# Generated by pormake.
# Topology sxb, (6)-cn, num edge types: 1
# Building blocks:
#     Node 0, Type 0, BuildingBlock: KUMBUR_clean_sbu_1, # of connection points: 6
#     Node 1, Type 0, BuildingBlock: KUMBUR_clean_sbu_1, # of connection points: 6
#     Node 2, Type 0, BuildingBlock: KUMBUR_clean_sbu_1, # of connection points: 6
#     Node 3, Type 0, BuildingBlock: KUMBUR_clean_sbu_1, # of connection points: 6
#     Edge 4, Type (0, 0), BuildingBlock: CIFDUS_clean_linker_0, # of connection points: 2
#     Edge 5, Type (0, 0), BuildingBlock: CIFDUS_clean_linker_0, # of connection points: 2
#     Edge 6, Type (0, 0), BuildingBlock: CIFDUS_clean_linker_0, # of connection points: 2
#     Edge 7, Type (0, 0), BuildingBlock: CIFDUS_clean_linker_0, # of connection points: 2
#     Edge 8, Type (0, 0), BuildingBlock: CIFDUS_clean_linker_0, # of connection points: 2
#     Edge 9, Type (0, 0), BuildingBlock: CIFDUS_clean_linker_0, # of connection points: 2
#     Edge 10, Type (0, 0), BuildingBlock: CIFDUS_clean_linker_0, # of connection points: 2
#     Edge 11, Type (0, 0), BuildingBlock: CIFDUS_clean_linker_0, # of connection points: 2
#     Edge 12, Type (0, 0), BuildingBlock: CIFDUS_clean_linker_0, # of connection points: 2
#     Edge 13, Type (0, 0), BuildingBlock: CIFDUS_clean_linker_0, # of connection points: 2
#     Edge 14, Type (0, 0), BuildingBlock: CIFDUS_clean_linker_0, # of connection points: 2
#     Edge 15, Type (0, 0), BuildingBlock: CIFDUS_clean_linker_0, # of connection points: 2
# Relax obj value: 0.017
# Max RMSD: 0.064
# Mean RMSD: 0.064
data_MOF--net-sxb--node1-KUMBUR_clean_sbu_1--edge1-CIFDUS_clean_linker_0
_symmetry_space_group_name_H-M    P1
_symmetry_Int_Tables_number       1
_symmetry_cell_setting            triclinic
loop_
_symmetry_equiv_pos_as_xyz
'x, y, z'
_cell_length_a     13.046044
_cell_length_b     44.477414
_cell_length_c     25.588903
_cell_angle_alpha  113.78083
_cell_angle_beta   90.639027
_cell_angle_gamma 90.005579
loop_
_atom_site_label
_atom_site_type_symbol
_atom_site_fract_x
_atom_site_fract_y
_atom_site_fract_z
_atom_type_partial_charge
Tb0 Tb 0.0533 0.95789 0.95949 0.0
C1 C 0.19492 0.09983 0.13227 0.0
N2 N 0.10137 0.08542 0.1274 0.0
C3 C 0.0876 0.10762 0.22943 0.0
C4 C 0.23924 0.11845 0.18619 0.0
C5 C 1.04638 0.08958 0.17495 0.0
C6 C 0.1846 0.12201 0.23511 0.0
C7 C 0.34348 0.11037 0.08576 0.0
C8 C 0.24662 0.09578 0.08279 0.0
C9 C 0.38815 0.12894 0.13941 0.0
C10 C 0.33627 0.13291 0.1895 0.0
Tb11 Tb 1.04407 0.05657 0.03613 0.0
N12 N 0.20308 0.07644 0.03165 0.0
C13 C 0.39259 0.10564 0.03469 0.0
C14 C 0.24851 0.07278 0.9817 0.0
C15 C 0.34463 0.08693 0.98243 0.0
H16 H 0.97021 0.07928 0.17101 0.0
H17 H 0.38143 0.08355 0.94276 0.0
H18 H 0.09495 0.93462 0.8203 0.0
H19 H 0.74538 0.93394 0.07645 0.0
H20 H 0.21082 0.05887 0.94148 0.0
H21 H 0.46688 0.11661 0.03522 0.0
H22 H 0.91035 0.95746 0.06572 0.0
H23 H 1.04425 0.11058 0.267 0.0
H24 H 0.46283 0.14025 0.14263 0.0
H25 H 0.3717 0.14728 0.23056 0.0
H26 H 1.00257 0.90265 0.73014 0.0
H27 H 0.21612 0.13605 0.27738 0.0
H28 H 0.64401 0.90008 0.99097 0.0
N29 N 0.97674 0.92956 0.87295 0.0
C30 C 0.88502 0.91553 0.87485 0.0
C31 C 0.96847 0.90623 0.77058 0.0
C32 C 0.83083 0.89643 0.82438 0.0
C33 C 1.02 0.9247 0.82181 0.0
C34 C 0.87336 0.8921 0.77184 0.0
N35 N 0.89782 0.94023 0.97566 0.0
C36 C 0.86444 0.9444 0.02841 0.0
C37 C 0.75094 0.90611 0.93168 0.0
C38 C 0.84497 0.92061 0.92786 0.0
C39 C 0.71461 0.91129 0.98592 0.0
C40 C 0.77171 0.93046 0.03443 0.0
H41 H 0.83396 0.87765 0.73206 0.0
H42 H 0.69389 0.86727 0.78963 0.0
H43 H 0.62503 0.87522 0.88329 0.0
O44 O 0.09225 0.92556 0.99787 0.0
O45 O 0.9118 0.98313 0.95092 0.0
O46 O 0.89774 0.03133 0.03204 0.0
O47 O 0.12448 0.91324 0.90933 0.0
O48 O 0.08176 0.98281 0.05191 0.0
O49 O 0.98035 0.02896 0.08163 0.0
O50 O 1.00991 0.08658 0.9927 0.0
O51 O 0.18936 0.03205 0.04127 0.0
O52 O 0.20118 0.98205 0.963 0.0
O53 O 0.967 0.10119 0.08051 0.0
O54 O 1.02257 0.03168 0.94341 0.0
O55 O 0.1178 0.98383 0.91081 0.0
C56 C 0.85665 1.00684 0.98805 0.0
C57 C 0.22846 0.88907 0.95815 0.0
C58 C 0.31582 0.84617 0.9783 0.0
C59 C 0.41033 0.85841 0.96913 0.0
C60 C 0.32318 0.90114 0.94982 0.0
C61 C 0.41349 0.88576 0.95513 0.0
C62 C 0.22508 0.86177 0.97255 0.0
C63 C 1.03413 1.00708 0.09204 0.0
C64 C 0.13167 0.904 0.95139 0.0
C65 C 0.73654 0.88215 0.82797 0.0
C66 C 0.69709 0.88678 0.88142 0.0
C67 C 0.24288 1.00723 0.00548 0.0
C68 C 0.86989 0.12245 0.02444 0.0
C69 C 0.78259 0.16851 0.01416 0.0
C70 C 0.69296 0.14916 0.99712 0.0
C71 C 0.78015 0.10354 0.00728 0.0
C72 C 0.87088 0.15471 0.02769 0.0
C73 C 0.69214 0.11691 0.99362 0.0
C74 C 0.07323 1.00833 0.90326 0.0
C75 C 0.96534 0.10883 0.03652 0.0
H76 H 0.4817 0.84717 0.97353 0.0
H77 H 0.32725 0.92224 0.93891 0.0
H78 H 0.48593 0.89518 0.94824 0.0
H79 H 0.15132 0.85238 0.97838 0.0
H80 H 0.62329 0.15897 0.98688 0.0
H81 H 0.77858 0.07848 1.0039 0.0
H82 H 0.9416 0.16878 0.03954 0.0
H83 H 0.62322 0.10213 0.97991 0.0
Tb84 Tb 1.01784 0.06078 0.53232 0.0
C85 C 0.2283 0.92532 0.39089 0.0
N86 N 0.13152 0.935 0.38513 0.0
C87 C 0.14792 0.91133 0.28316 0.0
C88 C 0.28939 0.90855 0.34287 0.0
C89 C 0.09005 0.92779 0.33213 0.0
C90 C 0.24817 0.90179 0.28852 0.0
C91 C 0.36547 0.92243 0.45352 0.0
C92 C 0.26606 0.93226 0.44543 0.0
C93 C 0.42708 0.90592 0.40583 0.0
C94 C 0.38919 0.89904 0.35065 0.0
Tb95 Tb 1.04625 0.96248 0.46837 0.0
N96 N 0.20504 0.94907 0.49061 0.0
C97 C 0.39973 0.92953 0.5093 0.0
C98 C 0.23582 0.95438 0.54472 0.0
C99 C 0.33413 0.94525 0.55503 0.0
H100 H 1.01172 0.93419 0.32729 0.0
H101 H 0.35883 0.95003 0.59818 0.0
H102 H 1.04561 0.08855 0.67424 0.0
H103 H 0.70729 0.06814 0.3972 0.0
H104 H 0.18449 0.96508 0.57986 0.0
H105 H 0.47581 0.92251 0.51742 0.0
H106 H 0.88001 0.05328 0.4179 0.0
H107 H 0.11491 0.90581 0.24129 0.0
H108 H 0.50405 0.89836 0.41116 0.0
H109 H 0.43752 0.88624 0.31427 0.0
H110 H 0.9394 0.11768 0.75847 0.0
H111 H 0.29265 0.88897 0.25049 0.0
H112 H 0.59095 0.09818 0.4764 0.0
N113 N 0.92918 0.08756 0.61441 0.0
C114 C 0.83359 0.09754 0.60704 0.0
C115 C 0.90849 0.11196 0.71608 0.0
C116 C 0.77103 0.11485 0.65415 0.0
C117 C 0.968 0.09497 0.66804 0.0
C118 C 0.8095 0.12186 0.70914 0.0
N119 N 0.85865 0.07182 0.50737 0.0
C120 C 0.8286 0.06496 0.45255 0.0
C121 C 0.69894 0.09955 0.54225 0.0
C122 C 0.7977 0.08984 0.55179 0.0
C123 C 0.6659 0.09118 0.48584 0.0
C124 C 0.73127 0.07401 0.44086 0.0
H125 H 0.76377 0.13509 0.74647 0.0
H126 H 0.6231 0.13783 0.68055 0.0
H127 H 0.56038 0.12465 0.58286 0.0
O128 O 0.04836 0.09171 0.49036 0.0
O129 O 0.88405 0.0308 0.53639 0.0
O130 O 0.89589 0.9815 0.45817 0.0
O131 O 0.07201 0.10877 0.58099 0.0
O132 O 0.06007 0.0338 0.44226 0.0
O133 O 0.97788 0.98371 0.4131 0.0
O134 O 0.99317 0.93428 0.51206 0.0
O135 O 0.18437 0.99151 0.46736 0.0
O136 O 0.17254 0.04363 0.54006 0.0
O137 O 0.9885 0.91499 0.4204 0.0
O138 O 1.01342 0.99038 0.55955 0.0
O139 O 0.09125 0.0414 0.58901 0.0
C140 C 0.84123 1.00444 0.49692 0.0
C141 C 0.17688 0.13134 0.53125 0.0
C142 C 0.26551 0.17732 0.52184 0.0
C143 C 0.35835 0.16014 0.51525 0.0
C144 C 0.27004 0.11464 0.52443 0.0
C145 C 0.36013 0.12905 0.51655 0.0
C146 C 0.17478 0.16264 0.53003 0.0
C147 C 1.01807 1.00763 0.40236 0.0
C148 C 0.08058 0.11581 0.53661 0.0
C149 C 0.67236 0.12452 0.64488 0.0
C150 C 0.63657 0.11699 0.58913 0.0
C151 C 0.22645 0.01883 0.50466 0.0
C152 C 1.00575 0.87653 0.46217 0.0
C153 C 0.96523 0.82501 0.47099 0.0
C154 C 0.06554 0.81414 0.45382 0.0
C155 C 0.10491 0.86498 0.4448 0.0
C156 C 0.93627 0.85652 0.47536 0.0
C157 C 0.13469 0.83406 0.441 0.0
C158 C 0.06118 0.0158 0.5983 0.0
C159 C 0.97204 0.90883 0.46511 0.0
H160 H 0.4297 0.17082 0.50951 0.0
H161 H 0.27299 0.0904 0.52459 0.0
H162 H 0.43135 0.1159 0.51109 0.0
H163 H 0.10209 0.17515 0.53412 0.0
H164 H 0.09007 0.78991 0.44903 0.0
H165 H 0.15894 0.87953 0.43343 0.0
H166 H 0.8597 0.86553 0.48899 0.0
H167 H 0.21134 0.82531 0.4273 0.0
Tb168 Tb 0.53778 0.46236 0.97734 0.0
C169 C 0.75033 0.59877 0.12596 0.0
N170 N 0.65276 0.58886 0.12893 0.0
C171 C 0.66229 0.61399 0.23131 0.0
C172 C 0.80853 0.61626 0.17576 0.0
C173 C 0.60733 0.59684 0.18067 0.0
C174 C 0.76349 0.62359 0.22888 0.0
C175 C 0.89266 0.6011 0.06734 0.0
C176 C 0.79203 0.59128 0.07255 0.0
C177 C 0.95129 0.61835 0.11687 0.0
C178 C 0.90939 0.62587 0.17092 0.0
Tb179 Tb 0.57304 0.56047 0.04301 0.0
N180 N 0.73466 0.57322 0.02559 0.0
C181 C 0.93127 0.59298 0.01248 0.0
C182 C 0.76955 0.56695 0.97221 0.0
C183 C 0.86899 0.57616 0.96474 0.0
H184 H 0.52819 0.59043 0.18313 0.0
H185 H 0.89728 0.57048 0.92221 0.0
H186 H 0.55523 0.43572 0.83535 0.0
H187 H 0.23375 0.45688 0.11436 0.0
H188 H 0.72073 0.55508 0.93553 0.0
H189 H 1.00836 0.59983 0.00641 0.0
H190 H 0.40698 0.47044 0.09243 0.0
H191 H 0.62631 0.62 0.27218 0.0
H192 H 1.02911 0.62592 0.11392 0.0
H193 H 0.95552 0.63922 0.20872 0.0
H194 H 0.44238 0.40787 0.75191 0.0
H195 H 0.8057 0.63695 0.2682 0.0
H196 H 0.11066 0.42807 0.03571 0.0
N197 N 0.44268 0.43683 0.89589 0.0
C198 C 0.34713 0.42726 0.90381 0.0
C199 C 0.41444 0.41338 0.79445 0.0
C200 C 0.28077 0.4107 0.85714 0.0
C201 C 0.47776 0.42965 0.84206 0.0
C202 C 0.31546 0.40394 0.80199 0.0
N203 N 0.37945 0.45217 1.00327 0.0
C204 C 0.35275 0.45912 0.05824 0.0
C205 C 0.21598 0.42579 0.9694 0.0
C206 C 0.31494 0.43477 0.95924 0.0
C207 C 0.18619 0.43433 0.02598 0.0
C208 C 0.25521 0.45084 0.07055 0.0
H209 H 0.26676 0.39129 0.76497 0.0
H210 H 0.12991 0.38889 0.83169 0.0
H211 H 0.0733 0.40208 0.92983 0.0
O212 O 0.56685 0.43037 0.0176 0.0
O213 O 0.40519 0.49345 0.97539 0.0
O214 O 0.42058 0.54312 0.05348 0.0
O215 O 0.58755 0.41426 0.92718 0.0
O216 O 0.58614 0.48856 0.06704 0.0
O217 O 0.50755 0.53917 0.09848 0.0
O218 O 0.53481 0.58814 0.99561 0.0
O219 O 0.71069 0.53098 0.04228 0.0
O220 O 0.69392 0.4786 0.97016 0.0
O221 O 0.52355 0.60916 0.08718 0.0
O222 O 0.53209 0.53269 0.95242 0.0
O223 O 0.60941 0.48186 0.92097 0.0
C224 C 0.3643 0.51973 0.01537 0.0
C225 C 0.68862 0.38904 0.97544 0.0
C226 C 0.76686 0.34058 0.98154 0.0
C227 C 0.86262 0.3566 0.99153 0.0
C228 C 0.78471 0.40458 0.98534 0.0
C229 C 0.87124 0.38832 0.9932 0.0
C230 C 0.68008 0.35705 0.97324 0.0
C231 C 0.55106 0.51527 0.10806 0.0
C232 C 0.59538 0.40637 0.97077 0.0
C233 C 0.18208 0.4016 0.86702 0.0
C234 C 0.14985 0.40907 0.92296 0.0
C235 C 0.75 0.50326 0.00557 0.0
C236 C 0.41694 0.6313 0.03637 0.0
C237 C 0.33814 0.67664 0.01963 0.0
C238 C 0.24144 0.66585 0.02911 0.0
C239 C 0.31996 0.6209 0.04544 0.0
C240 C 0.42573 0.65903 0.02336 0.0
C241 C 0.23277 0.63822 0.0419 0.0
C242 C 0.57941 0.50794 0.91311 0.0
C243 C 0.51041 0.614 0.04074 0.0
H244 H 0.93096 0.34451 0.99762 0.0
H245 H 0.79255 0.42932 0.98769 0.0
H246 H 0.94513 0.40044 1.00108 0.0
H247 H 0.60532 0.34534 0.96657 0.0
H248 H 0.17229 0.67853 0.02597 0.0
H249 H 0.31183 0.59958 0.05545 0.0
H250 H 0.50116 0.66716 0.01706 0.0
H251 H 0.15817 0.63022 0.04915 0.0
Tb252 Tb 0.54312 0.56 0.54907 0.0
C253 C 0.7495 0.42651 0.39599 0.0
N254 N 0.65529 0.43762 0.38916 0.0
C255 C 0.68017 0.41727 0.28801 0.0
C256 C 0.8133 0.41051 0.34885 0.0
C257 C 0.61924 0.43284 0.33603 0.0
C258 C 0.77764 0.40609 0.29442 0.0
C259 C 0.88035 0.42103 0.45983 0.0
C260 C 0.78297 0.43187 0.45083 0.0
C261 C 0.94365 0.40468 0.41282 0.0
C262 C 0.91044 0.39957 0.35756 0.0
Tb263 Tb 0.564 0.4614 0.47098 0.0
N264 N 0.7212 0.44886 0.49552 0.0
C265 C 0.91112 0.42721 0.51587 0.0
C266 C 0.74909 0.45386 0.54986 0.0
C267 C 0.845 0.44357 0.56102 0.0
H268 H 0.54277 0.44031 0.33015 0.0
H269 H 0.86734 0.44787 0.60433 0.0
H270 H 0.58686 0.58254 0.68827 0.0
H271 H 0.22958 0.58405 0.43241 0.0
H272 H 0.69677 0.46513 0.5843 0.0
H273 H 0.98498 0.41918 0.5248 0.0
H274 H 0.40248 0.56498 0.4445 0.0
H275 H 0.65151 0.41361 0.24601 0.0
H276 H 1.0186 0.39602 0.4186 0.0
H277 H 0.96054 0.38715 0.32184 0.0
H278 H 0.48996 0.60888 0.77751 0.0
H279 H 0.82444 0.39394 0.25708 0.0
H280 H 0.11794 0.60973 0.51639 0.0
N281 N 0.46451 0.58581 0.63505 0.0
C282 C 0.36848 0.59714 0.6329 0.0
C283 C 0.45473 0.60559 0.73705 0.0
C284 C 0.31096 0.61279 0.68282 0.0
C285 C 0.50904 0.59038 0.68631 0.0
C286 C 0.35505 0.61669 0.73531 0.0
N287 N 0.38595 0.57748 0.53313 0.0
C288 C 0.35338 0.57522 0.48087 0.0
C289 C 0.2298 0.60506 0.5758 0.0
C290 C 0.32824 0.59329 0.58024 0.0
C291 C 0.19338 0.60111 0.52173 0.0
C292 C 0.25599 0.58647 0.47417 0.0
H293 H 0.31334 0.62854 0.77471 0.0
H294 H 0.16618 0.63609 0.71655 0.0
H295 H 0.09516 0.62932 0.62281 0.0
O296 O 0.6066 0.58875 0.50903 0.0
O297 O 0.39837 0.53206 0.54013 0.0
O298 O 0.41011 0.47996 0.46646 0.0
O299 O 0.60496 0.60638 0.60049 0.0
O300 O 0.57451 0.53595 0.45691 0.0
O301 O 0.49525 0.48485 0.41907 0.0
O302 O 0.53654 0.42626 0.50452 0.0
O303 O 0.69945 0.49228 0.47281 0.0
O304 O 0.68708 0.53729 0.5578 0.0
O305 O 0.5049 0.41511 0.41604 0.0
O306 O 0.51461 0.48378 0.56041 0.0
O307 O 0.60091 0.53311 0.59793 0.0
C308 C 0.35684 0.50472 0.50252 0.0
C309 C 0.59537 0.64625 0.56137 0.0
C310 C 0.63814 0.69738 0.55174 0.0
C311 C 0.53918 0.70909 0.57047 0.0
C312 C 0.49768 0.65869 0.58048 0.0
C313 C 0.46965 0.68981 0.58462 0.0
C314 C 0.66537 0.66567 0.54701 0.0
C315 C 0.52572 0.51212 0.41546 0.0
C316 C 0.62636 0.61346 0.55726 0.0
C317 C 0.21186 0.62414 0.67869 0.0
C318 C 0.17142 0.62031 0.62531 0.0
C319 C 0.74217 0.51715 0.51552 0.0
C320 C 0.40258 0.3893 0.4619 0.0
C321 C 0.3132 0.34348 0.47154 0.0
C322 C 0.22127 0.36133 0.48027 0.0
C323 C 0.31036 0.40668 0.47104 0.0
C324 C 0.40384 0.35778 0.46217 0.0
C325 C 0.22037 0.39272 0.48016 0.0
C326 C 0.54866 0.50963 0.60413 0.0
C327 C 0.49932 0.40472 0.45673 0.0
H328 H 0.51613 0.73348 0.57548 0.0
H329 H 0.44342 0.64465 0.59292 0.0
H330 H 0.39411 0.69921 0.59957 0.0
H331 H 0.74087 0.65604 0.53215 0.0
H332 H 0.14994 0.35104 0.48703 0.0
H333 H 0.30818 0.43118 0.47204 0.0
H334 H 0.47604 0.34486 0.45678 0.0
H335 H 0.15004 0.40651 0.48784 0.0
H336 H 0.23577 0.73475 0.06776 0.0
H337 H 0.46206 0.68487 0.94058 0.0
H338 H 0.47769 0.73301 0.9179 0.0
H339 H 0.42411 0.78897 0.93253 0.0
H340 H 0.19646 0.83843 0.05909 0.0
H341 H 0.18325 0.79066 0.08286 0.0
C342 C 0.28794 0.73428 0.03474 0.0
C343 C 0.34761 0.70613 0.00599 0.0
C344 C 0.29608 0.76199 0.02159 0.0
C345 C 0.41606 0.70627 0.96396 0.0
C346 C 0.42467 0.73376 0.9507 0.0
C347 C 0.37234 0.78941 0.96569 0.0
C348 C 0.31109 0.81727 0.99377 0.0
C349 C 0.36498 0.76176 0.97918 0.0
C350 C 0.2435 0.8172 0.03619 0.0
C351 C 0.23619 0.78992 0.05002 0.0
H352 H 0.85031 0.31768 0.05636 0.0
H353 H 0.66144 0.28801 0.90431 0.0
H354 H 0.64748 0.23253 0.90153 0.0
H355 H 0.69314 0.19198 0.94081 0.0
H356 H 0.8782 0.22239 0.09462 0.0
H357 H 0.89072 0.27774 0.09755 0.0
C358 C 0.80657 0.29901 0.02244 0.0
C359 C 0.75741 0.30696 0.98045 0.0
C360 C 0.79855 0.26719 0.02124 0.0
C361 C 0.6995 0.28261 0.93735 0.0
C362 C 0.69183 0.25084 0.93562 0.0
C363 C 0.7351 0.21078 0.97543 0.0
C364 C 0.78527 0.20275 0.01716 0.0
C365 C 0.74126 0.2428 0.97726 0.0
C366 C 0.84036 0.22753 0.06125 0.0
C367 C 0.84713 0.25932 0.0632 0.0
H368 H 0.36599 0.19706 0.44813 0.0
H369 H 0.15964 0.2317 0.59073 0.0
H370 H 0.15549 0.28582 0.58742 0.0
H371 H 0.21261 0.3236 0.54513 0.0
H372 H 0.41803 0.28887 0.40206 0.0
H373 H 0.4223 0.23479 0.40543 0.0
C374 C 0.32079 0.21653 0.47881 0.0
C375 C 0.26326 0.21027 0.51965 0.0
C376 C 0.31901 0.24765 0.47681 0.0
C377 C 0.20374 0.23568 0.55844 0.0
C378 C 0.20176 0.26671 0.55678 0.0
C379 C 0.25748 0.30412 0.51425 0.0
C380 C 0.31488 0.3104 0.47338 0.0
C381 C 0.25904 0.27297 0.51614 0.0
C382 C 0.37407 0.28494 0.43443 0.0
C383 C 0.37611 0.25391 0.4361 0.0
H384 H 1.00124 0.78453 0.52589 0.0
H385 H 0.7614 0.81589 0.44179 0.0
H386 H 0.64012 0.77909 0.45869 0.0
H387 H 0.60254 0.7373 0.49585 0.0
H388 H 0.84249 0.70573 0.5795 0.0
H389 H 0.96405 0.74239 0.56229 0.0
C390 C 0.92268 0.78314 0.51078 0.0
C391 C 0.89077 0.80311 0.48269 0.0
C392 C 0.8535 0.76157 0.51994 0.0
C393 C 0.78801 0.80129 0.46434 0.0
C394 C 0.71867 0.78 0.47353 0.0
C395 C 0.68127 0.73857 0.51066 0.0
C396 C 0.71309 0.71872 0.53897 0.0
C397 C 0.75059 0.76001 0.50122 0.0
C398 C 0.816 0.72033 0.55693 0.0
C399 C 0.88546 0.74152 0.54754 0.0
H400 H 0.38616 0.97664 0.92417 0.0
H401 H 0.35538 0.04287 0.10108 0.0
H402 H 0.541 0.04979 0.11078 0.0
H403 H 0.71319 0.03688 0.06939 0.0
H404 H 0.7442 0.97074 0.89245 0.0
H405 H 0.55862 0.96355 0.88284 0.0
C406 C 0.4201 0.99233 0.96499 0.0
C407 C 0.35647 0.00939 0.01166 0.0
C408 C 0.52746 0.99618 0.9704 0.0
C409 C 0.4021 0.02978 0.06415 0.0
C410 C 0.50852 0.0337 0.06984 0.0
C411 C 0.67936 0.02108 0.0286 0.0
C412 C 0.74308 1.00417 0.98189 0.0
C413 C 0.57207 0.01715 0.02322 0.0
C414 C 0.6975 0.98372 0.92942 0.0
C415 C 0.59108 0.97966 0.92378 0.0
H416 H 0.37043 0.98452 0.42609 0.0
H417 H 0.33946 0.05786 0.5979 0.0
H418 H 0.52512 0.0593 0.61147 0.0
H419 H 0.69698 0.03867 0.57567 0.0
H420 H 0.72798 0.96593 0.40328 0.0
H421 H 0.5424 0.96439 0.3899 0.0
C422 C 0.40413 1.0006 0.46668 0.0
C423 C 0.34034 0.02069 0.51107 0.0
C424 C 0.51143 1.00115 0.47447 0.0
C425 C 0.38612 0.04203 0.56288 0.0
C426 C 0.49257 0.04277 0.57086 0.0
C427 C 0.66336 0.0227 0.53498 0.0
C428 C 0.72723 1.00272 0.49048 0.0
C429 C 0.55608 0.02229 0.5271 0.0
C430 C 0.6814 0.9816 0.4385 0.0
C431 C 0.57494 0.98082 0.43059 0.0
H432 H 0.89617 0.53672 0.08532 0.0
H433 H 0.85984 0.46553 0.91166 0.0
H434 H 1.045 0.46547 0.89834 0.0
H435 H 0.21764 0.48658 0.93518 0.0
H436 H 0.25404 0.55702 0.10945 0.0
H437 H 0.06886 0.55749 0.12237 0.0
C438 C 0.92867 0.52128 0.04447 0.0
C439 C 0.8636 0.50139 0.99945 0.0
C440 C 1.03551 0.52156 0.03689 0.0
C441 C 0.90767 0.48102 0.9472 0.0
C442 C 1.01372 0.48115 0.93937 0.0
C443 C 0.18529 0.50181 0.97618 0.0
C444 C 0.25052 0.52139 0.02142 0.0
C445 C 0.07844 0.50145 0.98379 0.0
C446 C 0.20633 0.54164 0.07375 0.0
C447 C 0.1002 0.54177 0.08138 0.0
H448 H 0.21432 0.53802 0.5825 0.0
H449 H 0.24278 0.46709 0.40859 0.0
H450 H 0.05665 0.46529 0.39657 0.0
H451 H 0.88528 0.48483 0.43455 0.0
H452 H 0.8569 0.55491 0.60919 0.0
H453 H 1.04289 0.55716 0.62073 0.0
C454 C 0.17996 0.52244 0.54177 0.0
C455 C 0.24304 0.503 0.49642 0.0
C456 C 0.07249 0.52164 0.53495 0.0
C457 C 0.19654 0.4823 0.44438 0.0
C458 C 0.08988 0.48137 0.43731 0.0
C459 C 0.91949 0.50031 0.47536 0.0
C460 C 0.85624 0.5193 0.52105 0.0
C461 C 1.02698 0.50104 0.4822 0.0
C462 C 0.90291 0.5399 0.57314 0.0
C463 C 1.00962 0.54112 0.57997 0.0
H464 H 0.15898 0.02317 0.34035 0.0
H465 H 0.84769 0.98964 0.33571 0.0
H466 H 0.82189 0.98934 0.24067 0.0
H467 H 0.88866 0.99823 0.15858 0.0
H468 H 0.20674 0.02362 0.15668 0.0
H469 H 0.22949 0.02828 0.25501 0.0
C470 C 0.08573 0.01587 0.31829 0.0
C471 C 1.00502 1.00671 0.34464 0.0
C472 C 0.07287 0.01449 0.26281 0.0
C473 C 0.91078 0.99668 0.31576 0.0
C474 C 0.89591 0.99665 0.2617 0.0
C475 C 0.96292 1.00452 0.17973 0.0
C476 C 1.04612 0.01049 0.15111 0.0
C477 C 0.97646 1.00541 0.23476 0.0
C478 C 0.14208 0.01881 0.17846 0.0
C479 C 0.15496 0.02145 0.23443 0.0
H480 H 0.20777 0.02555 0.84034 0.0
H481 H 0.90444 0.9866 0.83725 0.0
H482 H 0.87497 0.98363 0.74059 0.0
H483 H 0.93433 0.99368 0.65805 0.0
H484 H 0.22944 0.03894 0.66586 0.0
H485 H 0.26344 0.03847 0.75982 0.0
C486 C 0.13557 0.0164 0.81822 0.0
C487 C 0.05892 1.00572 0.84477 0.0
C488 C 0.11763 0.01623 0.76389 0.0
C489 C 0.96479 0.99442 0.81668 0.0
C490 C 0.94786 0.99287 0.76171 0.0
C491 C 1.00599 1.00336 0.68047 0.0
C492 C 0.07952 0.01622 0.65542 0.0
C493 C 1.02351 1.0039 0.73503 0.0
C494 C 0.17162 0.02914 0.68483 0.0
C495 C 0.19121 0.02872 0.73829 0.0
H496 H 0.67463 0.52096 0.35054 0.0
H497 H 0.34885 0.50727 0.35664 0.0
H498 H 0.32606 0.51086 0.26407 0.0
H499 H 0.40012 0.51654 0.18035 0.0
H500 H 0.72808 0.52098 0.16703 0.0
H501 H 0.7497 0.52326 0.26398 0.0
C502 C 0.59887 0.51899 0.33147 0.0
C503 C 0.51321 0.51437 0.36009 0.0
C504 C 0.58719 0.51956 0.27724 0.0
C505 C 0.41545 0.51101 0.33498 0.0
C506 C 0.40252 0.51312 0.28232 0.0
C507 C 0.47612 0.51784 0.19877 0.0
C508 C 0.56258 0.51842 0.16713 0.0
C509 C 0.4879 0.51719 0.2529 0.0
C510 C 0.66082 0.52034 0.19106 0.0
C511 C 0.67305 0.52159 0.24623 0.0
H512 H 0.69956 0.50713 0.67519 0.0
H513 H 0.37213 0.51476 0.6614 0.0
H514 H 0.35214 0.51703 0.75827 0.0
H515 H 0.42912 0.51572 0.84618 0.0
H516 H 0.75313 0.49848 0.85216 0.0
H517 H 0.774 0.50018 0.75833 0.0
C518 C 0.62386 0.50876 0.69318 0.0
C519 C 0.5372 0.51047 0.66164 0.0
C520 C 0.61283 0.50819 0.74721 0.0
C521 C 0.43948 0.5131 0.68527 0.0
C522 C 0.42823 0.51443 0.74044 0.0
C523 C 0.50402 0.5124 0.82667 0.0
C524 C 0.58997 0.50765 0.85588 0.0
C525 C 0.51439 0.51182 0.7717 0.0
C526 C 0.68641 0.50245 0.83016 0.0
C527 C 0.69828 0.50348 0.77678 0.0
loop_
_geom_bond_atom_site_label_1
_geom_bond_atom_site_label_2
_geom_bond_distance
_geom_bond_site_symmetry_2
_ccdc_geom_bond_type
Tb0 N29 2.617 . S
Tb0 N35 2.572 . S
Tb0 O44 2.465 1_655 S
Tb0 O45 2.387 . S
Tb0 O47 2.428 1_655 S
Tb0 O48 2.308 1_556 S
Tb0 O52 2.349 1_655 S
Tb0 O55 2.393 1_655 S
Tb0 C64 2.802 1_655 S
C1 N2 1.379 . S
C1 C4 1.416 . S
C1 C8 1.424 . S
N2 C1 1.379 . S
N2 C5 1.334 . S
N2 Tb11 2.617 . S
C3 C5 1.390 . S
C3 C6 1.339 . S
C3 H23 0.930 . S
C4 C1 1.416 . S
C4 C6 1.416 . S
C4 C10 1.448 . S
C5 N2 1.334 . S
C5 C3 1.390 . S
C5 H16 0.930 . S
C6 C3 1.339 . S
C6 C4 1.416 . S
C6 H27 0.930 . S
C7 C8 1.413 . S
C7 C9 1.427 . S
C7 C13 1.438 . S
C8 C1 1.424 . S
C8 C7 1.413 . S
C8 N12 1.361 . S
C9 C7 1.427 . S
C9 C10 1.328 . S
C9 H24 0.929 . S
C10 C4 1.448 . S
C10 C9 1.328 . S
C10 H25 0.930 . S
Tb11 N2 2.617 . S
Tb11 N12 2.572 . S
Tb11 O46 2.349 1_455 S
Tb11 O49 2.393 1_455 S
Tb11 O50 2.465 1_455 S
Tb11 O51 2.387 . S
Tb11 O53 2.428 1_455 S
Tb11 O54 2.308 1_554 S
Tb11 C75 2.802 1_455 S
N12 C8 1.361 . S
N12 Tb11 2.572 . S
N12 C14 1.340 1_554 S
C13 C7 1.438 . S
C13 C15 1.320 1_554 S
C13 H21 0.922 1_554 S
C14 N12 1.340 1_556 S
C14 C15 1.407 . S
C14 H20 0.930 . S
C15 C13 1.320 1_556 S
C15 C14 1.407 . S
C15 H17 0.929 . S
H16 C5 0.930 . S
H17 C15 0.929 . S
H18 C33 0.930 . S
H19 C40 0.929 . S
H20 C14 0.930 . S
H21 C13 0.922 1_556 S
H22 C36 0.930 . S
H23 C3 0.930 . S
H24 C9 0.929 . S
H25 C10 0.930 . S
H26 C31 0.930 . S
H27 C6 0.930 . S
H28 C39 0.930 . S
N29 Tb0 2.617 . S
N29 C30 1.379 . S
N29 C33 1.334 . S
C30 N29 1.379 . S
C30 C32 1.416 . S
C30 C38 1.424 . S
C31 H26 0.930 . S
C31 C33 1.390 . S
C31 C34 1.339 . S
C32 C30 1.416 . S
C32 C34 1.416 . S
C32 C65 1.448 . S
C33 H18 0.930 . S
C33 N29 1.334 . S
C33 C31 1.390 . S
C34 C31 1.339 . S
C34 C32 1.416 . S
C34 H41 0.930 . S
N35 Tb0 2.572 . S
N35 C36 1.340 1_556 S
N35 C38 1.361 . S
C36 H22 0.930 . S
C36 N35 1.340 1_554 S
C36 C40 1.407 . S
C37 C38 1.413 . S
C37 C39 1.419 1_556 S
C37 C66 1.427 . S
C38 C30 1.424 . S
C38 N35 1.361 . S
C38 C37 1.413 . S
C39 H28 0.930 . S
C39 C37 1.419 1_554 S
C39 C40 1.331 . S
C40 H19 0.929 . S
C40 C36 1.407 . S
C40 C39 1.331 . S
H41 C34 0.930 . S
H42 C65 0.930 . S
H43 C66 0.929 . S
O44 Tb0 2.465 1_455 S
O44 C64 1.264 . S
O45 Tb0 2.387 . S
O45 C56 1.264 1_565 S
O46 Tb11 2.349 1_655 S
O46 C56 1.243 1_554 S
O47 Tb0 2.428 1_455 S
O47 C64 1.256 . S
O48 Tb0 2.308 1_554 S
O48 C63 1.266 1_565 S
O49 Tb11 2.393 1_655 S
O49 C63 1.248 . S
O50 Tb11 2.465 1_655 S
O50 C75 1.264 . S
O51 Tb11 2.387 . S
O51 C67 1.264 1_545 S
O52 Tb0 2.349 1_455 S
O52 C67 1.243 1_556 S
O53 Tb11 2.428 1_655 S
O53 C75 1.256 . S
O54 Tb11 2.308 1_556 S
O54 C74 1.266 1_545 S
O55 Tb0 2.393 1_455 S
O55 C74 1.248 . S
C56 O45 1.264 1_545 S
C56 O46 1.243 1_556 S
C57 C60 1.399 . S
C57 C62 1.383 . S
C57 C64 1.496 . S
C58 C59 1.399 . S
C58 C62 1.389 . S
C59 C58 1.399 . S
C59 C61 1.380 . S
C59 H76 0.929 . S
C60 C57 1.399 . S
C60 C61 1.392 . S
C60 H77 0.929 . S
C61 C59 1.380 . S
C61 C60 1.392 . S
C61 H78 0.929 . S
C62 C57 1.383 . S
C62 C58 1.389 . S
C62 H79 0.931 1_556 S
C63 O48 1.266 1_545 S
C63 O49 1.248 . S
C64 Tb0 2.802 1_455 S
C64 O44 1.264 . S
C64 O47 1.256 . S
C64 C57 1.496 . S
C65 C32 1.448 . S
C65 H42 0.930 . S
C65 C66 1.328 . S
C66 C37 1.427 . S
C66 H43 0.929 . S
C66 C65 1.328 . S
C67 O51 1.264 1_565 S
C67 O52 1.243 1_554 S
C68 C71 1.399 . S
C68 C72 1.383 . S
C68 C75 1.496 . S
C69 C70 1.399 . S
C69 C72 1.389 . S
C70 C69 1.399 . S
C70 C73 1.380 . S
C70 H80 0.929 . S
C71 C68 1.399 . S
C71 C73 1.392 . S
C71 H81 0.929 . S
C72 C68 1.383 . S
C72 C69 1.389 . S
C72 H82 0.931 1_554 S
C73 C70 1.380 . S
C73 C71 1.392 . S
C73 H83 0.929 . S
C74 O54 1.266 1_565 S
C74 O55 1.248 . S
C75 Tb11 2.802 1_655 S
C75 O50 1.264 . S
C75 O53 1.256 . S
C75 C68 1.496 . S
H76 C59 0.929 . S
H77 C60 0.929 . S
H78 C61 0.929 . S
H79 C62 0.931 1_554 S
H80 C70 0.929 . S
H81 C71 0.929 . S
H82 C72 0.931 1_556 S
H83 C73 0.929 . S
Tb84 N113 2.617 . S
Tb84 N119 2.572 . S
Tb84 O128 2.465 1_655 S
Tb84 O129 2.387 . S
Tb84 O131 2.428 1_655 S
Tb84 O132 2.308 . S
Tb84 O136 2.349 1_655 S
Tb84 O139 2.393 1_655 S
Tb84 C148 2.802 1_655 S
C85 N86 1.379 . S
C85 C88 1.416 . S
C85 C92 1.424 . S
N86 C85 1.379 . S
N86 C89 1.334 . S
N86 Tb95 2.617 . S
C87 C89 1.390 . S
C87 C90 1.339 . S
C87 H107 0.930 . S
C88 C85 1.416 . S
C88 C90 1.416 . S
C88 C94 1.448 . S
C89 N86 1.334 . S
C89 C87 1.390 . S
C89 H100 0.930 . S
C90 C87 1.339 . S
C90 C88 1.416 . S
C90 H111 0.930 . S
C91 C92 1.413 . S
C91 C93 1.427 . S
C91 C97 1.416 . S
C92 C85 1.424 . S
C92 C91 1.413 . S
C92 N96 1.361 . S
C93 C91 1.427 . S
C93 C94 1.328 . S
C93 H108 0.929 . S
C94 C88 1.448 . S
C94 C93 1.328 . S
C94 H109 0.930 . S
Tb95 N86 2.617 . S
Tb95 N96 2.572 . S
Tb95 O130 2.349 1_455 S
Tb95 O133 2.393 1_455 S
Tb95 O134 2.465 1_455 S
Tb95 O135 2.387 . S
Tb95 O137 2.428 1_455 S
Tb95 O138 2.308 . S
Tb95 C159 2.802 1_455 S
N96 C92 1.361 . S
N96 Tb95 2.572 . S
N96 C98 1.340 . S
C97 C91 1.416 . S
C97 C99 1.332 . S
C97 H105 0.931 . S
C98 N96 1.340 . S
C98 C99 1.407 . S
C98 H104 0.930 . S
C99 C97 1.332 . S
C99 C98 1.407 . S
C99 H101 0.929 . S
H100 C89 0.930 . S
H101 C99 0.929 . S
H102 C117 0.930 . S
H103 C124 0.929 . S
H104 C98 0.930 . S
H105 C97 0.931 . S
H106 C120 0.930 . S
H107 C87 0.930 . S
H108 C93 0.929 . S
H109 C94 0.930 . S
H110 C115 0.930 . S
H111 C90 0.930 . S
H112 C123 0.931 . S
N113 Tb84 2.617 . S
N113 C114 1.379 . S
N113 C117 1.334 . S
C114 N113 1.379 . S
C114 C116 1.416 . S
C114 C122 1.424 . S
C115 H110 0.930 . S
C115 C117 1.390 . S
C115 C118 1.339 . S
C116 C114 1.416 . S
C116 C118 1.416 . S
C116 C149 1.448 . S
C117 H102 0.930 . S
C117 N113 1.334 . S
C117 C115 1.390 . S
C118 C115 1.339 . S
C118 C116 1.416 . S
C118 H125 0.930 . S
N119 Tb84 2.572 . S
N119 C120 1.340 . S
N119 C122 1.361 . S
C120 H106 0.930 . S
C120 N119 1.340 . S
C120 C124 1.407 . S
C121 C122 1.413 . S
C121 C123 1.416 . S
C121 C150 1.427 . S
C122 C114 1.424 . S
C122 N119 1.361 . S
C122 C121 1.413 . S
C123 H112 0.931 . S
C123 C121 1.416 . S
C123 C124 1.332 . S
C124 H103 0.929 . S
C124 C120 1.407 . S
C124 C123 1.332 . S
H125 C118 0.930 . S
H126 C149 0.930 . S
H127 C150 0.929 . S
O128 Tb84 2.465 1_455 S
O128 C148 1.264 . S
O129 Tb84 2.387 . S
O129 C140 1.264 1_545 S
O130 Tb95 2.349 1_655 S
O130 C140 1.243 . S
O131 Tb84 2.428 1_455 S
O131 C148 1.256 . S
O132 Tb84 2.308 . S
O132 C147 1.266 1_545 S
O133 Tb95 2.393 1_655 S
O133 C147 1.248 . S
O134 Tb95 2.465 1_655 S
O134 C159 1.264 . S
O135 Tb95 2.387 . S
O135 C151 1.264 1_565 S
O136 Tb84 2.349 1_455 S
O136 C151 1.243 . S
O137 Tb95 2.428 1_655 S
O137 C159 1.256 . S
O138 Tb95 2.308 . S
O138 C158 1.266 1_565 S
O139 Tb84 2.393 1_455 S
O139 C158 1.248 . S
C140 O129 1.264 1_565 S
C140 O130 1.243 . S
C141 C144 1.399 . S
C141 C146 1.383 . S
C141 C148 1.496 . S
C142 C143 1.399 . S
C142 C146 1.389 . S
C143 C142 1.399 . S
C143 C145 1.380 . S
C143 H160 0.929 . S
C144 C141 1.399 . S
C144 C145 1.392 . S
C144 H161 0.929 . S
C145 C143 1.380 . S
C145 C144 1.392 . S
C145 H162 0.929 . S
C146 C141 1.383 . S
C146 C142 1.389 . S
C146 H163 0.931 . S
C147 O132 1.266 1_565 S
C147 O133 1.248 . S
C148 Tb84 2.802 1_455 S
C148 O128 1.264 . S
C148 O131 1.256 . S
C148 C141 1.496 . S
C149 C116 1.448 . S
C149 H126 0.930 . S
C149 C150 1.328 . S
C150 C121 1.427 . S
C150 H127 0.929 . S
C150 C149 1.328 . S
C151 O135 1.264 1_545 S
C151 O136 1.243 . S
C152 C155 1.399 . S
C152 C156 1.383 . S
C152 C159 1.496 . S
C153 C154 1.399 . S
C153 C156 1.389 . S
C154 C153 1.399 . S
C154 C157 1.380 . S
C154 H164 0.929 . S
C155 C152 1.399 . S
C155 C157 1.392 . S
C155 H165 0.929 . S
C156 C152 1.383 . S
C156 C153 1.389 . S
C156 H166 0.931 . S
C157 C154 1.380 . S
C157 C155 1.392 . S
C157 H167 0.929 . S
C158 O138 1.266 1_545 S
C158 O139 1.248 . S
C159 Tb95 2.802 1_655 S
C159 O134 1.264 . S
C159 O137 1.256 . S
C159 C152 1.496 . S
H160 C143 0.929 . S
H161 C144 0.929 . S
H162 C145 0.929 . S
H163 C146 0.931 . S
H164 C154 0.929 . S
H165 C155 0.929 . S
H166 C156 0.931 . S
H167 C157 0.929 . S
Tb168 N197 2.617 . S
Tb168 N203 2.572 . S
Tb168 O212 2.465 . S
Tb168 O213 2.387 . S
Tb168 O215 2.428 . S
Tb168 O216 2.308 1_556 S
Tb168 O220 2.349 . S
Tb168 O223 2.393 . S
Tb168 C232 2.802 . S
C169 N170 1.379 . S
C169 C172 1.416 . S
C169 C176 1.424 . S
N170 C169 1.379 . S
N170 C173 1.334 . S
N170 Tb179 2.617 . S
C171 C173 1.390 . S
C171 C174 1.339 . S
C171 H191 0.930 . S
C172 C169 1.416 . S
C172 C174 1.416 . S
C172 C178 1.448 . S
C173 N170 1.334 . S
C173 C171 1.390 . S
C173 H184 0.930 . S
C174 C171 1.339 . S
C174 C172 1.416 . S
C174 H195 0.930 . S
C175 C176 1.413 . S
C175 C177 1.427 . S
C175 C181 1.438 . S
C176 C169 1.424 . S
C176 C175 1.413 . S
C176 N180 1.361 . S
C177 C175 1.427 . S
C177 C178 1.328 . S
C177 H192 0.929 . S
C178 C172 1.448 . S
C178 C177 1.328 . S
C178 H193 0.930 . S
Tb179 N170 2.617 . S
Tb179 N180 2.572 . S
Tb179 O214 2.349 . S
Tb179 O217 2.393 . S
Tb179 O218 2.465 . S
Tb179 O219 2.387 . S
Tb179 O221 2.428 . S
Tb179 O222 2.308 1_554 S
Tb179 C243 2.802 . S
N180 C176 1.361 . S
N180 Tb179 2.572 . S
N180 C182 1.340 1_554 S
C181 C175 1.438 . S
C181 C183 1.320 1_554 S
C181 H189 0.922 1_554 S
C182 N180 1.340 1_556 S
C182 C183 1.407 . S
C182 H188 0.930 . S
C183 C181 1.320 1_556 S
C183 C182 1.407 . S
C183 H185 0.929 . S
H184 C173 0.930 . S
H185 C183 0.929 . S
H186 C201 0.930 . S
H187 C208 0.929 . S
H188 C182 0.930 . S
H189 C181 0.922 1_556 S
H190 C204 0.930 . S
H191 C171 0.930 . S
H192 C177 0.929 . S
H193 C178 0.930 . S
H194 C199 0.930 . S
H195 C174 0.930 . S
H196 C207 0.930 . S
N197 Tb168 2.617 . S
N197 C198 1.379 . S
N197 C201 1.334 . S
C198 N197 1.379 . S
C198 C200 1.416 . S
C198 C206 1.424 . S
C199 H194 0.930 . S
C199 C201 1.390 . S
C199 C202 1.339 . S
C200 C198 1.416 . S
C200 C202 1.416 . S
C200 C233 1.448 . S
C201 H186 0.930 . S
C201 N197 1.334 . S
C201 C199 1.390 . S
C202 C199 1.339 . S
C202 C200 1.416 . S
C202 H209 0.930 . S
N203 Tb168 2.572 . S
N203 C204 1.340 1_556 S
N203 C206 1.361 . S
C204 H190 0.930 . S
C204 N203 1.340 1_554 S
C204 C208 1.407 . S
C205 C206 1.413 . S
C205 C207 1.418 1_556 S
C205 C234 1.427 . S
C206 C198 1.424 . S
C206 N203 1.361 . S
C206 C205 1.413 . S
C207 H196 0.930 . S
C207 C205 1.418 1_554 S
C207 C208 1.331 . S
C208 H187 0.929 . S
C208 C204 1.407 . S
C208 C207 1.331 . S
H209 C202 0.930 . S
H210 C233 0.930 . S
H211 C234 0.929 . S
O212 Tb168 2.465 . S
O212 C232 1.264 . S
O213 Tb168 2.387 . S
O213 C224 1.264 . S
O214 Tb179 2.349 . S
O214 C224 1.243 1_554 S
O215 Tb168 2.428 . S
O215 C232 1.256 . S
O216 Tb168 2.308 1_554 S
O216 C231 1.266 . S
O217 Tb179 2.393 . S
O217 C231 1.248 . S
O218 Tb179 2.465 . S
O218 C243 1.264 . S
O219 Tb179 2.387 . S
O219 C235 1.264 . S
O220 Tb168 2.349 . S
O220 C235 1.243 1_556 S
O221 Tb179 2.428 . S
O221 C243 1.256 . S
O222 Tb179 2.308 1_556 S
O222 C242 1.266 . S
O223 Tb168 2.393 . S
O223 C242 1.248 . S
C224 O213 1.264 . S
C224 O214 1.243 1_556 S
C225 C228 1.399 . S
C225 C230 1.383 . S
C225 C232 1.496 . S
C226 C227 1.399 . S
C226 C230 1.389 . S
C227 C226 1.399 . S
C227 C229 1.380 . S
C227 H244 0.929 . S
C228 C225 1.399 . S
C228 C229 1.392 . S
C228 H245 0.929 . S
C229 C227 1.380 . S
C229 C228 1.392 . S
C229 H246 0.929 . S
C230 C225 1.383 . S
C230 C226 1.389 . S
C230 H247 0.931 1_556 S
C231 O216 1.266 . S
C231 O217 1.248 . S
C232 Tb168 2.802 . S
C232 O212 1.264 . S
C232 O215 1.256 . S
C232 C225 1.496 . S
C233 C200 1.448 . S
C233 H210 0.930 . S
C233 C234 1.328 . S
C234 C205 1.427 . S
C234 H211 0.929 . S
C234 C233 1.328 . S
C235 O219 1.264 . S
C235 O220 1.243 1_554 S
C236 C239 1.399 . S
C236 C240 1.383 . S
C236 C243 1.496 . S
C237 C238 1.399 . S
C237 C240 1.389 . S
C238 C237 1.399 . S
C238 C241 1.380 . S
C238 H248 0.929 . S
C239 C236 1.399 . S
C239 C241 1.392 . S
C239 H249 0.929 . S
C240 C236 1.383 . S
C240 C237 1.389 . S
C240 H250 0.931 1_554 S
C241 C238 1.380 . S
C241 C239 1.392 . S
C241 H251 0.929 . S
C242 O222 1.266 . S
C242 O223 1.248 . S
C243 Tb179 2.802 . S
C243 O218 1.264 . S
C243 O221 1.256 . S
C243 C236 1.496 . S
H244 C227 0.929 . S
H245 C228 0.929 . S
H246 C229 0.929 . S
H247 C230 0.931 1_554 S
H248 C238 0.929 . S
H249 C239 0.929 . S
H250 C240 0.931 1_556 S
H251 C241 0.929 . S
Tb252 N281 2.617 . S
Tb252 N287 2.572 . S
Tb252 O296 2.465 . S
Tb252 O297 2.387 . S
Tb252 O299 2.428 . S
Tb252 O300 2.308 . S
Tb252 O304 2.349 . S
Tb252 O307 2.393 . S
Tb252 C316 2.802 . S
C253 N254 1.379 . S
C253 C256 1.416 . S
C253 C260 1.424 . S
N254 C253 1.379 . S
N254 C257 1.334 . S
N254 Tb263 2.617 . S
C255 C257 1.390 . S
C255 C258 1.339 . S
C255 H275 0.930 . S
C256 C253 1.416 . S
C256 C258 1.416 . S
C256 C262 1.448 . S
C257 N254 1.334 . S
C257 C255 1.390 . S
C257 H268 0.930 . S
C258 C255 1.339 . S
C258 C256 1.416 . S
C258 H279 0.930 . S
C259 C260 1.413 . S
C259 C261 1.427 . S
C259 C265 1.416 . S
C260 C253 1.424 . S
C260 C259 1.413 . S
C260 N264 1.361 . S
C261 C259 1.427 . S
C261 C262 1.328 . S
C261 H276 0.929 . S
C262 C256 1.448 . S
C262 C261 1.328 . S
C262 H277 0.930 . S
Tb263 N254 2.617 . S
Tb263 N264 2.572 . S
Tb263 O298 2.349 . S
Tb263 O301 2.393 . S
Tb263 O302 2.465 . S
Tb263 O303 2.387 . S
Tb263 O305 2.428 . S
Tb263 O306 2.308 . S
Tb263 C327 2.802 . S
N264 C260 1.361 . S
N264 Tb263 2.572 . S
N264 C266 1.340 . S
C265 C259 1.416 . S
C265 C267 1.332 . S
C265 H273 0.931 . S
C266 N264 1.340 . S
C266 C267 1.407 . S
C266 H272 0.930 . S
C267 C265 1.332 . S
C267 C266 1.407 . S
C267 H269 0.929 . S
H268 C257 0.930 . S
H269 C267 0.929 . S
H270 C285 0.930 . S
H271 C292 0.929 . S
H272 C266 0.930 . S
H273 C265 0.931 . S
H274 C288 0.930 . S
H275 C255 0.930 . S
H276 C261 0.929 . S
H277 C262 0.930 . S
H278 C283 0.930 . S
H279 C258 0.930 . S
H280 C291 0.931 . S
N281 Tb252 2.617 . S
N281 C282 1.379 . S
N281 C285 1.334 . S
C282 N281 1.379 . S
C282 C284 1.416 . S
C282 C290 1.424 . S
C283 H278 0.930 . S
C283 C285 1.390 . S
C283 C286 1.339 . S
C284 C282 1.416 . S
C284 C286 1.416 . S
C284 C317 1.448 . S
C285 H270 0.930 . S
C285 N281 1.334 . S
C285 C283 1.390 . S
C286 C283 1.339 . S
C286 C284 1.416 . S
C286 H293 0.930 . S
N287 Tb252 2.572 . S
N287 C288 1.340 . S
N287 C290 1.361 . S
C288 H274 0.930 . S
C288 N287 1.340 . S
C288 C292 1.407 . S
C289 C290 1.413 . S
C289 C291 1.416 . S
C289 C318 1.427 . S
C290 C282 1.424 . S
C290 N287 1.361 . S
C290 C289 1.413 . S
C291 H280 0.931 . S
C291 C289 1.416 . S
C291 C292 1.332 . S
C292 H271 0.929 . S
C292 C288 1.407 . S
C292 C291 1.332 . S
H293 C286 0.930 . S
H294 C317 0.930 . S
H295 C318 0.929 . S
O296 Tb252 2.465 . S
O296 C316 1.264 . S
O297 Tb252 2.387 . S
O297 C308 1.264 . S
O298 Tb263 2.349 . S
O298 C308 1.243 . S
O299 Tb252 2.428 . S
O299 C316 1.256 . S
O300 Tb252 2.308 . S
O300 C315 1.266 . S
O301 Tb263 2.393 . S
O301 C315 1.248 . S
O302 Tb263 2.465 . S
O302 C327 1.264 . S
O303 Tb263 2.387 . S
O303 C319 1.264 . S
O304 Tb252 2.349 . S
O304 C319 1.243 . S
O305 Tb263 2.428 . S
O305 C327 1.256 . S
O306 Tb263 2.308 . S
O306 C326 1.266 . S
O307 Tb252 2.393 . S
O307 C326 1.248 . S
C308 O297 1.264 . S
C308 O298 1.243 . S
C309 C312 1.399 . S
C309 C314 1.383 . S
C309 C316 1.496 . S
C310 C311 1.399 . S
C310 C314 1.389 . S
C311 C310 1.399 . S
C311 C313 1.380 . S
C311 H328 0.929 . S
C312 C309 1.399 . S
C312 C313 1.392 . S
C312 H329 0.929 . S
C313 C311 1.380 . S
C313 C312 1.392 . S
C313 H330 0.929 . S
C314 C309 1.383 . S
C314 C310 1.389 . S
C314 H331 0.931 . S
C315 O300 1.266 . S
C315 O301 1.248 . S
C316 Tb252 2.802 . S
C316 O296 1.264 . S
C316 O299 1.256 . S
C316 C309 1.496 . S
C317 C284 1.448 . S
C317 H294 0.930 . S
C317 C318 1.328 . S
C318 C289 1.427 . S
C318 H295 0.929 . S
C318 C317 1.328 . S
C319 O303 1.264 . S
C319 O304 1.243 . S
C320 C323 1.399 . S
C320 C324 1.383 . S
C320 C327 1.496 . S
C321 C322 1.399 . S
C321 C324 1.389 . S
C322 C321 1.399 . S
C322 C325 1.380 . S
C322 H332 0.929 . S
C323 C320 1.399 . S
C323 C325 1.392 . S
C323 H333 0.929 . S
C324 C320 1.383 . S
C324 C321 1.389 . S
C324 H334 0.931 . S
C325 C322 1.380 . S
C325 C323 1.392 . S
C325 H335 0.929 . S
C326 O306 1.266 . S
C326 O307 1.248 . S
C327 Tb263 2.802 . S
C327 O302 1.264 . S
C327 O305 1.256 . S
C327 C320 1.496 . S
H328 C311 0.929 . S
H329 C312 0.929 . S
H330 C313 0.929 . S
H331 C314 0.931 . S
H332 C322 0.929 . S
H333 C323 0.929 . S
H334 C324 0.931 . S
H335 C325 0.929 . S
H336 C342 0.930 . S
H337 C345 0.930 . S
H338 C346 0.930 . S
H339 C347 0.930 . S
H340 C350 0.930 . S
H341 C351 0.930 . S
C342 H336 0.930 . S
C342 C343 1.355 1_554 S
C342 C344 1.415 . S
C343 C342 1.355 1_556 S
C343 C345 1.419 . S
C344 C342 1.415 . S
C344 C349 1.425 1_554 S
C344 C351 1.409 . S
C345 H337 0.930 . S
C345 C343 1.419 . S
C345 C346 1.362 . S
C346 H338 0.930 . S
C346 C345 1.362 . S
C346 C349 1.409 . S
C347 H339 0.930 . S
C347 C348 1.355 1_556 S
C347 C349 1.415 . S
C348 C347 1.355 1_554 S
C348 C350 1.419 . S
C349 C344 1.425 1_556 S
C349 C346 1.409 . S
C349 C347 1.415 . S
C350 H340 0.930 . S
C350 C348 1.419 . S
C350 C351 1.362 . S
C351 H341 0.930 . S
C351 C344 1.409 . S
C351 C350 1.362 . S
H352 C358 0.930 . S
H353 C361 0.930 . S
H354 C362 0.930 . S
H355 C363 0.930 . S
H356 C366 0.930 . S
H357 C367 0.930 . S
C358 H352 0.930 . S
C358 C359 1.355 1_554 S
C358 C360 1.415 . S
C359 C358 1.355 1_556 S
C359 C361 1.419 . S
C360 C358 1.415 . S
C360 C365 1.425 1_554 S
C360 C367 1.409 . S
C361 H353 0.930 . S
C361 C359 1.419 . S
C361 C362 1.362 . S
C362 H354 0.930 . S
C362 C361 1.362 . S
C362 C365 1.409 . S
C363 H355 0.930 . S
C363 C364 1.355 1_556 S
C363 C365 1.415 . S
C364 C363 1.355 1_554 S
C364 C366 1.419 . S
C365 C360 1.425 1_556 S
C365 C362 1.409 . S
C365 C363 1.415 . S
C366 H356 0.930 . S
C366 C364 1.419 . S
C366 C367 1.362 . S
C367 H357 0.930 . S
C367 C360 1.409 . S
C367 C366 1.362 . S
H368 C374 0.930 . S
H369 C377 0.930 . S
H370 C378 0.930 . S
H371 C379 0.930 . S
H372 C382 0.930 . S
H373 C383 0.930 . S
C374 H368 0.930 . S
C374 C375 1.355 . S
C374 C376 1.415 . S
C375 C374 1.355 . S
C375 C377 1.419 . S
C376 C374 1.415 . S
C376 C381 1.425 . S
C376 C383 1.409 . S
C377 H369 0.930 . S
C377 C375 1.419 . S
C377 C378 1.362 . S
C378 H370 0.930 . S
C378 C377 1.362 . S
C378 C381 1.409 . S
C379 H371 0.930 . S
C379 C380 1.355 . S
C379 C381 1.415 . S
C380 C379 1.355 . S
C380 C382 1.419 . S
C381 C376 1.425 . S
C381 C378 1.409 . S
C381 C379 1.415 . S
C382 H372 0.930 . S
C382 C380 1.419 . S
C382 C383 1.362 . S
C383 H373 0.930 . S
C383 C376 1.409 . S
C383 C382 1.362 . S
H384 C390 0.930 . S
H385 C393 0.930 . S
H386 C394 0.930 . S
H387 C395 0.930 . S
H388 C398 0.930 . S
H389 C399 0.930 . S
C390 H384 0.930 . S
C390 C391 1.355 . S
C390 C392 1.415 . S
C391 C390 1.355 . S
C391 C393 1.419 . S
C392 C390 1.415 . S
C392 C397 1.425 . S
C392 C399 1.409 . S
C393 H385 0.930 . S
C393 C391 1.419 . S
C393 C394 1.362 . S
C394 H386 0.930 . S
C394 C393 1.362 . S
C394 C397 1.409 . S
C395 H387 0.930 . S
C395 C396 1.355 . S
C395 C397 1.415 . S
C396 C395 1.355 . S
C396 C398 1.419 . S
C397 C392 1.425 . S
C397 C394 1.409 . S
C397 C395 1.415 . S
C398 H388 0.930 . S
C398 C396 1.419 . S
C398 C399 1.362 . S
C399 H389 0.930 . S
C399 C392 1.409 . S
C399 C398 1.362 . S
H400 C406 0.930 . S
H401 C409 0.930 . S
H402 C410 0.930 . S
H403 C411 0.930 . S
H404 C414 0.930 . S
H405 C415 0.930 . S
C406 H400 0.930 . S
C406 C407 1.349 1_566 S
C406 C408 1.415 . S
C407 C406 1.349 1_544 S
C407 C409 1.427 . S
C408 C406 1.415 . S
C408 C413 1.425 1_566 S
C408 C415 1.409 . S
C409 H401 0.930 . S
C409 C407 1.427 . S
C409 C410 1.362 . S
C410 H402 0.930 . S
C410 C409 1.362 . S
C410 C413 1.409 . S
C411 H403 0.930 . S
C411 C412 1.355 1_554 S
C411 C413 1.415 . S
C412 C411 1.355 1_556 S
C412 C414 1.419 1_545 S
C413 C408 1.425 1_544 S
C413 C410 1.409 . S
C413 C411 1.415 . S
C414 H404 0.930 . S
C414 C412 1.419 1_565 S
C414 C415 1.362 . S
C415 H405 0.930 . S
C415 C408 1.409 . S
C415 C414 1.362 . S
H416 C422 0.930 . S
H417 C425 0.930 . S
H418 C426 0.930 . S
H419 C427 0.930 . S
H420 C430 0.930 . S
H421 C431 0.930 . S
C422 H416 0.930 . S
C422 C423 1.355 1_565 S
C422 C424 1.415 . S
C423 C422 1.355 1_545 S
C423 C425 1.419 . S
C424 C422 1.415 . S
C424 C429 1.425 1_565 S
C424 C431 1.409 . S
C425 H417 0.930 . S
C425 C423 1.419 . S
C425 C426 1.362 . S
C426 H418 0.930 . S
C426 C425 1.362 . S
C426 C429 1.409 . S
C427 H419 0.930 . S
C427 C428 1.355 1_545 S
C427 C429 1.415 . S
C428 C427 1.355 1_565 S
C428 C430 1.419 . S
C429 C424 1.425 1_545 S
C429 C426 1.409 . S
C429 C427 1.415 . S
C430 H420 0.930 . S
C430 C428 1.419 . S
C430 C431 1.362 . S
C431 H421 0.930 . S
C431 C424 1.409 . S
C431 C430 1.362 . S
H432 C438 0.930 . S
H433 C441 0.930 . S
H434 C442 0.930 . S
H435 C443 0.930 . S
H436 C446 0.930 . S
H437 C447 0.930 . S
C438 H432 0.930 . S
C438 C439 1.354 1_556 S
C438 C440 1.415 . S
C439 C438 1.354 1_554 S
C439 C441 1.420 . S
C440 C438 1.415 . S
C440 C445 1.425 1_656 S
C440 C447 1.409 1_655 S
C441 H433 0.930 . S
C441 C439 1.420 . S
C441 C442 1.362 . S
C442 H434 0.930 . S
C442 C441 1.362 . S
C442 C445 1.409 1_655 S
C443 H435 0.930 . S
C443 C444 1.366 . S
C443 C445 1.415 . S
C444 C443 1.366 . S
C444 C446 1.405 1_554 S
C445 C440 1.425 1_454 S
C445 C442 1.409 1_455 S
C445 C443 1.415 . S
C446 H436 0.930 . S
C446 C444 1.405 1_556 S
C446 C447 1.362 . S
C447 H437 0.930 . S
C447 C440 1.409 1_455 S
C447 C446 1.362 . S
H448 C454 0.930 . S
H449 C457 0.930 . S
H450 C458 0.930 . S
H451 C459 0.930 . S
H452 C462 0.930 . S
H453 C463 0.930 . S
C454 H448 0.930 . S
C454 C455 1.355 . S
C454 C456 1.415 . S
C455 C454 1.355 . S
C455 C457 1.419 . S
C456 C454 1.415 . S
C456 C461 1.425 1_455 S
C456 C463 1.409 1_455 S
C457 H449 0.930 . S
C457 C455 1.419 . S
C457 C458 1.362 . S
C458 H450 0.930 . S
C458 C457 1.362 . S
C458 C461 1.409 1_455 S
C459 H451 0.930 . S
C459 C460 1.355 . S
C459 C461 1.415 . S
C460 C459 1.355 . S
C460 C462 1.419 . S
C461 C456 1.425 1_655 S
C461 C458 1.409 1_655 S
C461 C459 1.415 . S
C462 H452 0.930 . S
C462 C460 1.419 . S
C462 C463 1.362 . S
C463 H453 0.930 . S
C463 C456 1.409 1_655 S
C463 C462 1.362 . S
H464 C470 0.930 . S
H465 C473 0.930 . S
H466 C474 0.930 . S
H467 C475 0.930 . S
H468 C478 0.930 . S
H469 C479 0.930 . S
C470 H464 0.930 . S
C470 C471 1.355 1_465 S
C470 C472 1.415 . S
C471 C470 1.355 1_645 S
C471 C473 1.419 . S
C472 C470 1.415 . S
C472 C477 1.425 1_465 S
C472 C479 1.409 . S
C473 H465 0.930 . S
C473 C471 1.419 . S
C473 C474 1.362 . S
C474 H466 0.930 . S
C474 C473 1.362 . S
C474 C477 1.409 . S
C475 H467 0.930 . S
C475 C476 1.360 1_645 S
C475 C477 1.415 . S
C476 C475 1.360 1_465 S
C476 C478 1.433 . S
C477 C472 1.425 1_645 S
C477 C474 1.409 . S
C477 C475 1.415 . S
C478 H468 0.930 . S
C478 C476 1.433 . S
C478 C479 1.362 . S
C479 H469 0.930 . S
C479 C472 1.409 . S
C479 C478 1.362 . S
H480 C486 0.930 . S
H481 C489 0.930 . S
H482 C490 0.930 . S
H483 C491 0.930 . S
H484 C494 0.930 . S
H485 C495 0.930 . S
C486 H480 0.930 . S
C486 C487 1.355 1_445 S
C486 C488 1.415 . S
C487 C486 1.355 1_665 S
C487 C489 1.419 . S
C488 C486 1.415 . S
C488 C493 1.425 1_445 S
C488 C495 1.409 . S
C489 H481 0.930 . S
C489 C487 1.419 . S
C489 C490 1.362 . S
C490 H482 0.930 . S
C490 C489 1.362 . S
C490 C493 1.409 . S
C491 H483 0.930 . S
C491 C492 1.355 1_665 S
C491 C493 1.415 . S
C492 C491 1.355 1_445 S
C492 C494 1.419 . S
C493 C488 1.425 1_665 S
C493 C490 1.409 . S
C493 C491 1.415 . S
C494 H484 0.930 . S
C494 C492 1.419 . S
C494 C495 1.362 . S
C495 H485 0.930 . S
C495 C488 1.409 . S
C495 C494 1.362 . S
H496 C502 0.930 . S
H497 C505 0.930 . S
H498 C506 0.930 . S
H499 C507 0.930 . S
H500 C510 0.930 . S
H501 C511 0.930 . S
C502 H496 0.930 . S
C502 C503 1.355 . S
C502 C504 1.415 . S
C503 C502 1.355 . S
C503 C505 1.419 . S
C504 C502 1.415 . S
C504 C509 1.425 . S
C504 C511 1.409 . S
C505 H497 0.930 . S
C505 C503 1.419 . S
C505 C506 1.362 . S
C506 H498 0.930 . S
C506 C505 1.362 . S
C506 C509 1.409 . S
C507 H499 0.930 . S
C507 C508 1.355 . S
C507 C509 1.415 . S
C508 C507 1.355 . S
C508 C510 1.419 . S
C509 C504 1.425 . S
C509 C506 1.409 . S
C509 C507 1.415 . S
C510 H500 0.930 . S
C510 C508 1.419 . S
C510 C511 1.362 . S
C511 H501 0.930 . S
C511 C504 1.409 . S
C511 C510 1.362 . S
H512 C518 0.930 . S
H513 C521 0.930 . S
H514 C522 0.930 . S
H515 C523 0.930 . S
H516 C526 0.930 . S
H517 C527 0.930 . S
C518 H512 0.930 . S
C518 C519 1.355 . S
C518 C520 1.415 . S
C519 C518 1.355 . S
C519 C521 1.419 . S
C520 C518 1.415 . S
C520 C525 1.425 . S
C520 C527 1.409 . S
C521 H513 0.930 . S
C521 C519 1.419 . S
C521 C522 1.362 . S
C522 H514 0.930 . S
C522 C521 1.362 . S
C522 C525 1.409 . S
C523 H515 0.930 . S
C523 C524 1.355 . S
C523 C525 1.415 . S
C524 C523 1.355 . S
C524 C526 1.419 . S
C525 C520 1.425 . S
C525 C522 1.409 . S
C525 C523 1.415 . S
C526 H516 0.930 . S
C526 C524 1.419 . S
C526 C527 1.362 . S
C527 H517 0.930 . S
C527 C520 1.409 . S
C527 C526 1.362 . S
C343 C237 1.452 1_556 S
C348 C58 1.452 1_554 S
C359 C226 1.366 . S
C364 C69 1.366 . S
C375 C142 1.377 . S
C380 C321 1.377 . S
C391 C153 1.384 . S
C396 C310 1.384 . S
C407 C67 1.967 1_545 S
C412 C56 1.968 . S
C423 C151 1.981 . S
C428 C140 1.981 . S
C439 C235 1.979 . S
C444 C224 1.978 1_554 S
C455 C308 1.979 . S
C460 C319 1.979 . S
C471 C147 1.471 1_545 S
C476 C63 1.473 1_465 S
C487 C74 1.463 1_655 S
C492 C158 1.451 . S
C503 C315 1.451 . S
C508 C231 1.467 . S
C519 C326 1.496 . S
C524 C242 1.482 . S
