# Generated by pormake.
# Topology yfb, (5)-cn, num edge types: 1
# Building blocks:
#     Node 0, Type 0, BuildingBlock: XOMCOT_clean_sbu_0, # of connection points: 5
#     Node 1, Type 0, BuildingBlock: XOMCOT_clean_sbu_0, # of connection points: 5
#     Node 2, Type 0, BuildingBlock: XOMCOT_clean_sbu_0, # of connection points: 5
#     Node 3, Type 0, BuildingBlock: XOMCOT_clean_sbu_0, # of connection points: 5
#     Node 4, Type 0, BuildingBlock: XOMCOT_clean_sbu_0, # of connection points: 5
#     Node 5, Type 0, BuildingBlock: XOMCOT_clean_sbu_0, # of connection points: 5
#     Node 6, Type 0, BuildingBlock: XOMCOT_clean_sbu_0, # of connection points: 5
#     Node 7, Type 0, BuildingBlock: XOMCOT_clean_sbu_0, # of connection points: 5
#     Node 8, Type 0, BuildingBlock: XOMCOT_clean_sbu_0, # of connection points: 5
#     Node 9, Type 0, BuildingBlock: XOMCOT_clean_sbu_0, # of connection points: 5
#     Node 10, Type 0, BuildingBlock: XOMCOT_clean_sbu_0, # of connection points: 5
#     Node 11, Type 0, BuildingBlock: XOMCOT_clean_sbu_0, # of connection points: 5
#     Node 12, Type 0, BuildingBlock: XOMCOT_clean_sbu_0, # of connection points: 5
#     Node 13, Type 0, BuildingBlock: XOMCOT_clean_sbu_0, # of connection points: 5
#     Node 14, Type 0, BuildingBlock: XOMCOT_clean_sbu_0, # of connection points: 5
#     Node 15, Type 0, BuildingBlock: XOMCOT_clean_sbu_0, # of connection points: 5
#     Edge 16, Type (0, 0), BuildingBlock: ZUJKAS_clean_linker_0, # of connection points: 2
#     Edge 17, Type (0, 0), BuildingBlock: ZUJKAS_clean_linker_0, # of connection points: 2
#     Edge 18, Type (0, 0), BuildingBlock: ZUJKAS_clean_linker_0, # of connection points: 2
#     Edge 19, Type (0, 0), BuildingBlock: ZUJKAS_clean_linker_0, # of connection points: 2
#     Edge 20, Type (0, 0), BuildingBlock: ZUJKAS_clean_linker_0, # of connection points: 2
#     Edge 21, Type (0, 0), BuildingBlock: ZUJKAS_clean_linker_0, # of connection points: 2
#     Edge 22, Type (0, 0), BuildingBlock: ZUJKAS_clean_linker_0, # of connection points: 2
#     Edge 23, Type (0, 0), BuildingBlock: ZUJKAS_clean_linker_0, # of connection points: 2
#     Edge 24, Type (0, 0), BuildingBlock: ZUJKAS_clean_linker_0, # of connection points: 2
#     Edge 25, Type (0, 0), BuildingBlock: ZUJKAS_clean_linker_0, # of connection points: 2
#     Edge 26, Type (0, 0), BuildingBlock: ZUJKAS_clean_linker_0, # of connection points: 2
#     Edge 27, Type (0, 0), BuildingBlock: ZUJKAS_clean_linker_0, # of connection points: 2
#     Edge 28, Type (0, 0), BuildingBlock: ZUJKAS_clean_linker_0, # of connection points: 2
#     Edge 29, Type (0, 0), BuildingBlock: ZUJKAS_clean_linker_0, # of connection points: 2
#     Edge 30, Type (0, 0), BuildingBlock: ZUJKAS_clean_linker_0, # of connection points: 2
#     Edge 31, Type (0, 0), BuildingBlock: ZUJKAS_clean_linker_0, # of connection points: 2
#     Edge 32, Type (0, 0), BuildingBlock: ZUJKAS_clean_linker_0, # of connection points: 2
#     Edge 33, Type (0, 0), BuildingBlock: ZUJKAS_clean_linker_0, # of connection points: 2
#     Edge 34, Type (0, 0), BuildingBlock: ZUJKAS_clean_linker_0, # of connection points: 2
#     Edge 35, Type (0, 0), BuildingBlock: ZUJKAS_clean_linker_0, # of connection points: 2
#     Edge 36, Type (0, 0), BuildingBlock: ZUJKAS_clean_linker_0, # of connection points: 2
#     Edge 37, Type (0, 0), BuildingBlock: ZUJKAS_clean_linker_0, # of connection points: 2
#     Edge 38, Type (0, 0), BuildingBlock: ZUJKAS_clean_linker_0, # of connection points: 2
#     Edge 39, Type (0, 0), BuildingBlock: ZUJKAS_clean_linker_0, # of connection points: 2
#     Edge 40, Type (0, 0), BuildingBlock: ZUJKAS_clean_linker_0, # of connection points: 2
#     Edge 41, Type (0, 0), BuildingBlock: ZUJKAS_clean_linker_0, # of connection points: 2
#     Edge 42, Type (0, 0), BuildingBlock: ZUJKAS_clean_linker_0, # of connection points: 2
#     Edge 43, Type (0, 0), BuildingBlock: ZUJKAS_clean_linker_0, # of connection points: 2
#     Edge 44, Type (0, 0), BuildingBlock: ZUJKAS_clean_linker_0, # of connection points: 2
#     Edge 45, Type (0, 0), BuildingBlock: ZUJKAS_clean_linker_0, # of connection points: 2
#     Edge 46, Type (0, 0), BuildingBlock: ZUJKAS_clean_linker_0, # of connection points: 2
#     Edge 47, Type (0, 0), BuildingBlock: ZUJKAS_clean_linker_0, # of connection points: 2
#     Edge 48, Type (0, 0), BuildingBlock: ZUJKAS_clean_linker_0, # of connection points: 2
#     Edge 49, Type (0, 0), BuildingBlock: ZUJKAS_clean_linker_0, # of connection points: 2
#     Edge 50, Type (0, 0), BuildingBlock: ZUJKAS_clean_linker_0, # of connection points: 2
#     Edge 51, Type (0, 0), BuildingBlock: ZUJKAS_clean_linker_0, # of connection points: 2
#     Edge 52, Type (0, 0), BuildingBlock: ZUJKAS_clean_linker_0, # of connection points: 2
#     Edge 53, Type (0, 0), BuildingBlock: ZUJKAS_clean_linker_0, # of connection points: 2
#     Edge 54, Type (0, 0), BuildingBlock: ZUJKAS_clean_linker_0, # of connection points: 2
#     Edge 55, Type (0, 0), BuildingBlock: ZUJKAS_clean_linker_0, # of connection points: 2
# Relax obj value: 0.747
# Max RMSD: 0.295
# Mean RMSD: 0.295
data_MOF--net-yfb--node1-XOMCOT_clean_sbu_0--edge1-ZUJKAS_clean_linker_0
_symmetry_space_group_name_H-M    P1
_symmetry_Int_Tables_number       1
_symmetry_cell_setting            triclinic
loop_
_symmetry_equiv_pos_as_xyz
'x, y, z'
_cell_length_a     53.225846
_cell_length_b     53.234535
_cell_length_c     55.580904
_cell_angle_alpha  89.989754
_cell_angle_beta   89.999718
_cell_angle_gamma 90.014219
loop_
_atom_site_label
_atom_site_type_symbol
_atom_site_fract_x
_atom_site_fract_y
_atom_site_fract_z
_atom_type_partial_charge
Co0 Co 0.66509 0.06554 0.09893 0.0
C1 C 0.62665 0.03184 0.07865 0.0
C2 C 0.62311 0.03435 0.11683 0.0
C3 C 0.60187 0.02284 0.10775 0.0
N4 N 0.63895 0.03977 0.09857 0.0
N5 N 0.60401 0.02168 0.08363 0.0
H6 H 0.63266 0.03588 0.06057 0.0
H7 H 0.62542 0.04072 0.13516 0.0
C8 C 0.67708 0.03728 0.14407 0.0
O9 O 0.67356 0.01629 0.13209 0.0
N10 N 0.69017 0.09178 0.09881 0.0
C11 C 0.70728 0.09587 0.08138 0.0
C12 C 0.72089 0.11695 0.08711 0.0
C13 C 0.69318 0.11075 0.11468 0.0
N14 N 0.71201 0.12633 0.10798 0.0
C15 C 0.68884 0.03323 0.06451 0.0
C16 C 0.73425 0.02989 0.0883 0.0
C17 C 0.73314 0.023 0.06397 0.0
C18 C 0.7097 0.02353 0.0525 0.0
C19 C 0.71304 0.0399 0.09953 0.0
N20 N 0.69072 0.04213 0.08747 0.0
H21 H 0.67213 0.03622 0.05413 0.0
H22 H 0.71559 0.04839 0.11697 0.0
H23 H 0.70933 0.08466 0.06528 0.0
H24 H 0.68158 0.11332 0.13048 0.0
O25 O 0.6532 0.07754 0.06834 0.0
O26 O 0.63908 0.09048 0.10381 0.0
O27 O 0.67353 0.0584 0.13368 0.0
C28 C 0.63773 0.09158 0.08043 0.0
H29 H 0.58513 0.01813 0.11785 0.0
H30 H 0.73544 0.12541 0.07617 0.0
H31 H 0.75188 0.02968 0.09802 0.0
H32 H 0.70785 0.01903 0.03359 0.0
Co33 Co 0.42718 0.65654 0.10328 0.0
C34 C 0.45822 0.61538 0.08438 0.0
C35 C 0.46014 0.61605 0.12273 0.0
C36 C 0.47136 0.59418 0.11459 0.0
N37 N 0.45228 0.62972 0.10365 0.0
N38 N 0.46973 0.59378 0.09042 0.0
H39 H 0.45218 0.61932 0.06625 0.0
H40 H 0.45601 0.62033 0.14131 0.0
C41 C 0.45662 0.67184 0.14675 0.0
O42 O 0.4773 0.66827 0.13429 0.0
N43 N 0.40148 0.68221 0.10228 0.0
C44 C 0.39758 0.69831 0.08393 0.0
C45 C 0.37691 0.71275 0.08904 0.0
C46 C 0.38262 0.68648 0.11801 0.0
N47 N 0.36749 0.70527 0.11038 0.0
C48 C 0.4626 0.67611 0.06879 0.0
C49 C 0.46298 0.72432 0.08709 0.0
C50 C 0.47277 0.72011 0.06399 0.0
C51 C 0.47401 0.6953 0.05566 0.0
C52 C 0.45238 0.70445 0.09995 0.0
N53 N 0.45116 0.68084 0.09028 0.0
H54 H 0.4611 0.6581 0.06036 0.0
H55 H 0.44258 0.70879 0.11645 0.0
H56 H 0.40869 0.6991 0.06765 0.0
H57 H 0.37972 0.67577 0.13433 0.0
O58 O 0.41399 0.64352 0.07356 0.0
O59 O 0.40183 0.63148 0.10999 0.0
O60 O 0.43528 0.66681 0.13737 0.0
C61 C 0.39986 0.62907 0.08673 0.0
H62 H 0.47808 0.57884 0.12563 0.0
H63 H 0.36865 0.72683 0.07741 0.0
H64 H 0.46114 0.74312 0.0943 0.0
H65 H 0.48181 0.69096 0.03816 0.0
Co66 Co 0.84195 0.4326 0.10245 0.0
C67 C 0.88116 0.46608 0.08293 0.0
C68 C 0.88304 0.46428 0.12128 0.0
C69 C 0.90437 0.47614 0.11289 0.0
N70 N 0.86816 0.45824 0.10248 0.0
N71 N 0.90322 0.47705 0.08868 0.0
H72 H 0.87643 0.46093 0.06474 0.0
H73 H 0.87993 0.45837 0.13964 0.0
C74 C 0.82824 0.46218 0.14642 0.0
O75 O 0.83231 0.48286 0.1341 0.0
N76 N 0.8167 0.4065 0.10201 0.0
C77 C 0.7997 0.40265 0.0844 0.0
C78 C 0.78514 0.3823 0.09039 0.0
C79 C 0.81279 0.38795 0.11817 0.0
N80 N 0.79341 0.37309 0.11152 0.0
C81 C 0.81991 0.46384 0.06613 0.0
C82 C 0.77385 0.46921 0.08836 0.0
C83 C 0.7759 0.47517 0.06385 0.0
C84 C 0.7997 0.47353 0.05313 0.0
C85 C 0.79436 0.45898 0.10053 0.0
N86 N 0.81704 0.45584 0.0893 0.0
H87 H 0.83697 0.46018 0.05646 0.0
H88 H 0.79097 0.45116 0.11812 0.0
H89 H 0.79816 0.41367 0.06813 0.0
H90 H 0.82393 0.38528 0.13427 0.0
O91 O 0.85508 0.41955 0.07274 0.0
O92 O 0.86766 0.4078 0.10908 0.0
O93 O 0.83204 0.44078 0.13663 0.0
C94 C 0.87001 0.40588 0.08582 0.0
H95 H 0.92023 0.48197 0.12372 0.0
H96 H 0.7702 0.37426 0.07963 0.0
H97 H 0.75599 0.47039 0.09761 0.0
H98 H 0.80234 0.47728 0.03415 0.0
Co99 Co 0.06287 0.84529 0.09902 0.0
C100 C 0.02762 0.88496 0.08391 0.0
C101 C 0.03106 0.88413 0.12216 0.0
C102 C 0.01848 0.90581 0.11563 0.0
N103 N 0.03654 0.87071 0.1022 0.0
N104 N 0.01642 0.90624 0.09147 0.0
H105 H 0.03216 0.88182 0.06523 0.0
H106 H 0.03787 0.87988 0.14002 0.0
C107 C 0.03767 0.82751 0.14385 0.0
O108 O 0.01612 0.8306 0.13269 0.0
N109 N 0.08976 0.82117 0.09537 0.0
C110 C 0.09387 0.80682 0.07577 0.0
C111 C 0.11437 0.79178 0.07999 0.0
C112 C 0.10826 0.8153 0.11101 0.0
N113 N 0.12337 0.79718 0.10205 0.0
C114 C 0.02578 0.82432 0.06686 0.0
C115 C 0.03259 0.7755 0.08229 0.0
C116 C 0.02126 0.77966 0.05982 0.0
C117 C 0.016 0.80458 0.05328 0.0
C118 C 0.04118 0.79585 0.09584 0.0
N119 N 0.03933 0.81987 0.08725 0.0
H120 H 0.02443 0.8428 0.05942 0.0
H121 H 0.05231 0.79187 0.11164 0.0
H122 H 0.0826 0.80718 0.05958 0.0
H123 H 0.11057 0.82396 0.12848 0.0
O124 O 0.07243 0.85981 0.0687 0.0
O125 O 0.08755 0.87145 0.10425 0.0
O126 O 0.05815 0.83366 0.13335 0.0
C127 C 0.08711 0.87452 0.08098 0.0
H128 H 0.01293 0.92085 0.12759 0.0
H129 H 0.12247 0.77832 0.06762 0.0
H130 H 0.03732 0.75679 0.08839 0.0
H131 H 0.00643 0.80894 0.03662 0.0
Co132 Co 0.66062 0.43064 0.40249 0.0
C133 C 0.62113 0.46289 0.42306 0.0
C134 C 0.61883 0.46217 0.3847 0.0
C135 C 0.59735 0.47334 0.39362 0.0
N136 N 0.63405 0.45589 0.40319 0.0
N137 N 0.59872 0.47339 0.41782 0.0
H138 H 0.6266 0.45807 0.44112 0.0
H139 H 0.62178 0.45672 0.36618 0.0
C140 C 0.67344 0.4609 0.3586 0.0
O141 O 0.6693 0.48148 0.37104 0.0
N142 N 0.68624 0.40492 0.40224 0.0
C143 C 0.70351 0.40103 0.41959 0.0
C144 C 0.71837 0.3811 0.41307 0.0
C145 C 0.6903 0.38681 0.38568 0.0
N146 N 0.71003 0.37219 0.39185 0.0
C147 C 0.68274 0.46162 0.43897 0.0
C148 C 0.72833 0.46825 0.41616 0.0
C149 C 0.7265 0.47396 0.44074 0.0
C150 C 0.70292 0.47164 0.45178 0.0
C151 C 0.70784 0.45774 0.40416 0.0
N152 N 0.68539 0.45403 0.41565 0.0
H153 H 0.66597 0.4574 0.44887 0.0
H154 H 0.71112 0.45018 0.38644 0.0
H155 H 0.70504 0.41176 0.43604 0.0
H156 H 0.67904 0.38428 0.36964 0.0
O157 O 0.64807 0.41685 0.43216 0.0
O158 O 0.63517 0.40561 0.39578 0.0
O159 O 0.66992 0.43942 0.36832 0.0
C160 C 0.63316 0.40321 0.41903 0.0
H161 H 0.581 0.47867 0.38323 0.0
H162 H 0.73357 0.37312 0.42351 0.0
H163 H 0.74604 0.46987 0.4067 0.0
H164 H 0.70051 0.47512 0.47082 0.0
Co165 Co 0.06768 0.65381 0.40003 0.0
C166 C 0.0323 0.61495 0.41675 0.0
C167 C 0.03418 0.61546 0.37839 0.0
C168 C 0.02125 0.59419 0.38553 0.0
N169 N 0.04083 0.62883 0.39804 0.0
N170 N 0.02016 0.59398 0.40975 0.0
H171 H 0.03771 0.61806 0.43522 0.0
H172 H 0.04031 0.61945 0.36025 0.0
C173 C 0.04045 0.67186 0.35632 0.0
O174 O 0.01939 0.66881 0.36831 0.0
N175 N 0.095 0.67757 0.40258 0.0
C176 C 0.10012 0.69161 0.42215 0.0
C177 C 0.12109 0.70582 0.41761 0.0
C178 C 0.1133 0.68293 0.38655 0.0
N179 N 0.12938 0.70037 0.39529 0.0
C180 C 0.03334 0.67536 0.4345 0.0
C181 C 0.03756 0.72378 0.41716 0.0
C182 C 0.02746 0.72006 0.44022 0.0
C183 C 0.02384 0.69528 0.44804 0.0
C184 C 0.04619 0.70329 0.40389 0.0
N185 N 0.0452 0.67946 0.41308 0.0
H186 H 0.03321 0.65712 0.4426 0.0
H187 H 0.05645 0.70709 0.38753 0.0
H188 H 0.08942 0.69133 0.43869 0.0
H189 H 0.11491 0.67415 0.36905 0.0
O190 O 0.07879 0.63893 0.42972 0.0
O191 O 0.09156 0.62728 0.39339 0.0
O192 O 0.06134 0.66567 0.36601 0.0
C193 C 0.09254 0.62408 0.41662 0.0
H194 H 0.01472 0.57927 0.37388 0.0
H195 H 0.13012 0.71854 0.43011 0.0
H196 H 0.04124 0.74244 0.41028 0.0
H197 H 0.01566 0.6913 0.46547 0.0
Co198 Co 0.84376 0.06769 0.40222 0.0
C199 C 0.88414 0.03573 0.4213 0.0
C200 C 0.88369 0.03428 0.38293 0.0
C201 C 0.90557 0.02311 0.39105 0.0
N202 N 0.86991 0.0419 0.40201 0.0
N203 N 0.90589 0.02445 0.41524 0.0
H204 H 0.88005 0.0416 0.43945 0.0
H205 H 0.87957 0.03874 0.36438 0.0
C206 C 0.82794 0.03844 0.35892 0.0
O207 O 0.83082 0.01781 0.37161 0.0
N208 N 0.81885 0.09409 0.40296 0.0
C209 C 0.8035 0.09922 0.4216 0.0
C210 C 0.78936 0.11997 0.41601 0.0
C211 C 0.81438 0.11219 0.38649 0.0
N212 N 0.79623 0.12815 0.39401 0.0
C213 C 0.82285 0.03284 0.4366 0.0
C214 C 0.77457 0.03526 0.41859 0.0
C215 C 0.7783 0.0255 0.44179 0.0
C216 C 0.80309 0.02268 0.4499 0.0
C217 C 0.79497 0.04449 0.40553 0.0
N218 N 0.81864 0.04453 0.41513 0.0
H219 H 0.84101 0.03324 0.44486 0.0
H220 H 0.79113 0.05434 0.38894 0.0
H221 H 0.80297 0.08881 0.43831 0.0
H222 H 0.82446 0.1139 0.36966 0.0
O223 O 0.85691 0.08056 0.43201 0.0
O224 O 0.86955 0.09237 0.39566 0.0
O225 O 0.83351 0.05972 0.36812 0.0
C226 C 0.87175 0.09438 0.41893 0.0
H227 H 0.92105 0.01676 0.37997 0.0
H228 H 0.77587 0.12907 0.4277 0.0
H229 H 0.75591 0.03823 0.41141 0.0
H230 H 0.80711 0.01465 0.46738 0.0
Co231 Co 0.43019 0.8438 0.40232 0.0
C232 C 0.46201 0.88492 0.42005 0.0
C233 C 0.46324 0.88347 0.3817 0.0
C234 C 0.47428 0.90566 0.38924 0.0
N235 N 0.45584 0.87012 0.40115 0.0
N236 N 0.47307 0.90659 0.41342 0.0
H237 H 0.45637 0.88122 0.43835 0.0
H238 H 0.45872 0.87882 0.36328 0.0
C239 C 0.45861 0.82697 0.35891 0.0
O240 O 0.47944 0.83004 0.37126 0.0
N241 N 0.4039 0.81879 0.40408 0.0
C242 C 0.39907 0.80417 0.42335 0.0
C243 C 0.37922 0.78869 0.41803 0.0
C244 C 0.3864 0.81261 0.3875 0.0
N245 N 0.37129 0.79403 0.39559 0.0
C246 C 0.46672 0.82405 0.43581 0.0
C247 C 0.46217 0.77498 0.42037 0.0
C248 C 0.47293 0.77963 0.44302 0.0
C249 C 0.47706 0.80475 0.44958 0.0
C250 C 0.45308 0.79495 0.4066 0.0
N251 N 0.45378 0.81903 0.41518 0.0
H252 H 0.46734 0.84262 0.44314 0.0
H253 H 0.44266 0.79058 0.39045 0.0
H254 H 0.40937 0.80474 0.44012 0.0
H255 H 0.38475 0.82145 0.37004 0.0
O256 O 0.41793 0.85742 0.43213 0.0
O257 O 0.40525 0.86936 0.39583 0.0
O258 O 0.4375 0.83289 0.36827 0.0
C259 C 0.40383 0.87203 0.4191 0.0
H260 H 0.48048 0.92089 0.37777 0.0
H261 H 0.37075 0.77501 0.42996 0.0
H262 H 0.45835 0.7561 0.4142 0.0
H263 H 0.48626 0.80957 0.46632 0.0
Co264 Co 0.34011 0.9325 0.90618 0.0
C265 C 0.3811 0.96492 0.92358 0.0
C266 C 0.3815 0.96275 0.88524 0.0
C267 C 0.40368 0.9737 0.89284 0.0
N268 N 0.367 0.95752 0.90457 0.0
N269 N 0.40347 0.97465 0.91706 0.0
H270 H 0.37645 0.96084 0.94203 0.0
H271 H 0.37762 0.95665 0.86708 0.0
C272 C 0.32596 0.95947 0.86114 0.0
O273 O 0.32983 0.98063 0.87275 0.0
N274 N 0.31445 0.90686 0.90828 0.0
C275 C 0.29836 0.90364 0.92676 0.0
C276 C 0.28338 0.88323 0.92199 0.0
C277 C 0.30961 0.8879 0.89281 0.0
N278 N 0.2905 0.87335 0.90074 0.0
C279 C 0.31958 0.96938 0.93862 0.0
C280 C 0.27171 0.96799 0.91949 0.0
C281 C 0.27521 0.97839 0.94244 0.0
C282 C 0.29982 0.98054 0.95116 0.0
C283 C 0.29209 0.95753 0.90728 0.0
N284 N 0.31552 0.95712 0.91741 0.0
H285 H 0.33747 0.96856 0.94738 0.0
H286 H 0.28825 0.94704 0.89105 0.0
H287 H 0.29773 0.91523 0.94273 0.0
H288 H 0.31991 0.88472 0.8763 0.0
O289 O 0.3527 0.92157 0.93684 0.0
O290 O 0.36522 0.90666 0.90149 0.0
O291 O 0.33036 0.93851 0.87154 0.0
C292 C 0.36733 0.90654 0.92485 0.0
H293 H 0.41966 0.97821 0.8816 0.0
H294 H 0.26893 0.87565 0.93362 0.0
H295 H 0.2531 0.96546 0.91202 0.0
H296 H 0.30357 0.98882 0.96859 0.0
Co297 Co 0.57029 0.34137 0.90245 0.0
C298 C 0.5394 0.38214 0.92244 0.0
C299 C 0.53642 0.3817 0.88415 0.0
C300 C 0.52507 0.40332 0.89272 0.0
N301 N 0.54501 0.36803 0.90292 0.0
N302 N 0.52734 0.40358 0.91684 0.0
H303 H 0.54591 0.37808 0.9404 0.0
H304 H 0.54005 0.3776 0.86543 0.0
C305 C 0.54002 0.32626 0.85946 0.0
O306 O 0.51961 0.32933 0.87244 0.0
N307 N 0.59615 0.31586 0.90259 0.0
C308 C 0.60083 0.29982 0.92083 0.0
C309 C 0.62073 0.28478 0.91459 0.0
C310 C 0.6138 0.31098 0.88578 0.0
N311 N 0.62886 0.29184 0.89266 0.0
C312 C 0.53565 0.32111 0.93731 0.0
C313 C 0.536 0.27296 0.91886 0.0
C314 C 0.52671 0.27685 0.94221 0.0
C315 C 0.525 0.30161 0.9506 0.0
C316 C 0.5458 0.29313 0.90584 0.0
N317 N 0.54678 0.3167 0.91561 0.0
H318 H 0.53689 0.33913 0.94576 0.0
H319 H 0.55528 0.28909 0.8891 0.0
H320 H 0.59056 0.29925 0.93761 0.0
H321 H 0.61574 0.32127 0.86908 0.0
O322 O 0.58399 0.354 0.9321 0.0
O323 O 0.59539 0.36669 0.89565 0.0
O324 O 0.56151 0.33154 0.8684 0.0
C325 C 0.59783 0.36871 0.9189 0.0
H326 H 0.51773 0.41859 0.88195 0.0
H327 H 0.62922 0.27034 0.92565 0.0
H328 H 0.53813 0.25425 0.91154 0.0
H329 H 0.51747 0.30572 0.96827 0.0
Co330 Co 0.15947 0.56487 0.90313 0.0
C331 C 0.12015 0.53088 0.92175 0.0
C332 C 0.11804 0.53409 0.88349 0.0
C333 C 0.09694 0.52159 0.89156 0.0
N334 N 0.13294 0.53959 0.90243 0.0
N335 N 0.09827 0.51973 0.91571 0.0
H336 H 0.12494 0.53535 0.94009 0.0
H337 H 0.1211 0.5406 0.8653 0.0
C338 C 0.173 0.53577 0.85878 0.0
O339 O 0.16838 0.51496 0.87072 0.0
N340 N 0.18507 0.59066 0.90424 0.0
C341 C 0.20196 0.59402 0.92202 0.0
C342 C 0.21578 0.6152 0.91719 0.0
C343 C 0.1884 0.61023 0.8891 0.0
N344 N 0.20721 0.62544 0.89658 0.0
C345 C 0.18086 0.5332 0.93948 0.0
C346 C 0.22673 0.52665 0.91718 0.0
C347 C 0.22455 0.52071 0.94168 0.0
C348 C 0.20082 0.52296 0.95244 0.0
C349 C 0.20648 0.53745 0.90506 0.0
N350 N 0.18388 0.5411 0.91629 0.0
H351 H 0.16397 0.5374 0.94922 0.0
H352 H 0.21011 0.54527 0.88752 0.0
H353 H 0.20364 0.58235 0.93785 0.0
H354 H 0.17693 0.61358 0.87333 0.0
O355 O 0.14599 0.57771 0.93284 0.0
O356 O 0.13436 0.59021 0.89644 0.0
O357 O 0.16971 0.55707 0.86893 0.0
C358 C 0.13175 0.59201 0.91968 0.0
H359 H 0.08116 0.51582 0.8806 0.0
H360 H 0.23015 0.62322 0.92865 0.0
H361 H 0.24455 0.52505 0.90791 0.0
H362 H 0.19812 0.51931 0.97142 0.0
Co363 Co 0.93503 0.16204 0.90314 0.0
C364 C 0.96923 0.12398 0.92352 0.0
C365 C 0.96785 0.12144 0.88518 0.0
C366 C 0.97995 0.10044 0.89402 0.0
N367 N 0.96134 0.13651 0.9037 0.0
N368 N 0.98063 0.10204 0.91821 0.0
H369 H 0.96379 0.12884 0.9416 0.0
H370 H 0.96203 0.12413 0.86673 0.0
C371 C 0.96449 0.17605 0.85914 0.0
O372 O 0.98523 0.17269 0.87158 0.0
N373 N 0.90826 0.18656 0.90307 0.0
C374 C 0.90346 0.20324 0.92071 0.0
C375 C 0.88239 0.21671 0.9147 0.0
C376 C 0.88969 0.18964 0.88679 0.0
N377 N 0.87371 0.20814 0.89345 0.0
C378 C 0.96588 0.18535 0.93911 0.0
C379 C 0.96975 0.23131 0.91639 0.0
C380 C 0.97641 0.22956 0.94074 0.0
C381 C 0.97547 0.20587 0.95173 0.0
C382 C 0.95984 0.21043 0.90456 0.0
N383 N 0.9575 0.18779 0.91602 0.0
H384 H 0.96271 0.16834 0.94901 0.0
H385 H 0.95168 0.21341 0.88703 0.0
H386 H 0.91422 0.20512 0.93712 0.0
H387 H 0.88768 0.17836 0.8707 0.0
O388 O 0.92206 0.14901 0.93296 0.0
O389 O 0.91094 0.13562 0.8967 0.0
O390 O 0.94317 0.17167 0.86887 0.0
C391 C 0.90884 0.13359 0.91998 0.0
H392 H 0.9861 0.08446 0.88353 0.0
H393 H 0.87345 0.23093 0.92568 0.0
H394 H 0.97022 0.24916 0.90706 0.0
H395 H 0.97973 0.20355 0.97065 0.0
Co396 Co 0.3369 0.56383 0.59933 0.0
C397 C 0.37685 0.53153 0.57973 0.0
C398 C 0.37876 0.53296 0.61809 0.0
C399 C 0.40039 0.52175 0.60955 0.0
N400 N 0.36369 0.53882 0.59935 0.0
N401 N 0.39926 0.52125 0.58534 0.0
H402 H 0.37153 0.53597 0.56154 0.0
H403 H 0.37559 0.53871 0.63649 0.0
C404 C 0.32391 0.53445 0.64376 0.0
O405 O 0.32815 0.5136 0.63177 0.0
N406 N 0.31108 0.58935 0.59888 0.0
C407 C 0.29378 0.59274 0.58145 0.0
C408 C 0.27931 0.61323 0.58718 0.0
C409 C 0.30741 0.60829 0.61465 0.0
N410 N 0.28793 0.62299 0.60796 0.0
C411 C 0.31536 0.53199 0.56319 0.0
C412 C 0.26947 0.52594 0.5856 0.0
C413 C 0.27154 0.51996 0.56112 0.0
C414 C 0.29526 0.52188 0.55031 0.0
C415 C 0.2899 0.53643 0.59771 0.0
N416 N 0.31247 0.53996 0.58637 0.0
H417 H 0.33225 0.53602 0.5534 0.0
H418 H 0.28645 0.54424 0.61529 0.0
H419 H 0.29208 0.58142 0.56538 0.0
H420 H 0.31893 0.61145 0.63042 0.0
O421 O 0.34973 0.57715 0.56952 0.0
O422 O 0.36188 0.5893 0.60589 0.0
O423 O 0.32733 0.55571 0.63359 0.0
C424 C 0.36412 0.59137 0.58264 0.0
H425 H 0.41667 0.51669 0.62016 0.0
H426 H 0.2643 0.62106 0.57638 0.0
H427 H 0.2516 0.52465 0.59484 0.0
H428 H 0.29782 0.51812 0.53132 0.0
Co429 Co 0.93296 0.34103 0.60091 0.0
C430 C 0.96664 0.37928 0.57988 0.0
C431 C 0.9655 0.38227 0.6182 0.0
C432 C 0.97785 0.403 0.60909 0.0
N433 N 0.95877 0.36705 0.59987 0.0
N434 N 0.9784 0.40111 0.58491 0.0
H435 H 0.96114 0.37419 0.56187 0.0
H436 H 0.95991 0.37974 0.63674 0.0
C437 C 0.96335 0.32792 0.64469 0.0
O438 O 0.98391 0.33171 0.6321 0.0
N439 N 0.90668 0.31594 0.60149 0.0
C440 C 0.90247 0.2984 0.58447 0.0
C441 C 0.88142 0.28495 0.5906 0.0
C442 C 0.88773 0.31339 0.61745 0.0
N443 N 0.87213 0.29441 0.61125 0.0
C444 C 0.96313 0.31817 0.56423 0.0
C445 C 0.96976 0.27278 0.58739 0.0
C446 C 0.97545 0.2744 0.5628 0.0
C447 C 0.97306 0.29786 0.55155 0.0
C448 C 0.95937 0.2934 0.59927 0.0
N449 N 0.95575 0.31577 0.58763 0.0
H450 H 0.95887 0.33485 0.5542 0.0
H451 H 0.9519 0.29031 0.61705 0.0
H452 H 0.91349 0.29596 0.5683 0.0
H453 H 0.88511 0.32547 0.63292 0.0
O454 O 0.91913 0.35377 0.57132 0.0
O455 O 0.90848 0.36696 0.60777 0.0
O456 O 0.94186 0.33165 0.63508 0.0
C457 C 0.90577 0.36884 0.58455 0.0
H458 H 0.98441 0.41895 0.6194 0.0
H459 H 0.87283 0.27017 0.58003 0.0
H460 H 0.97139 0.25515 0.59699 0.0
H461 H 0.97645 0.3001 0.53247 0.0
Co462 Co 0.16524 0.93314 0.59965 0.0
C463 C 0.12566 0.96563 0.5796 0.0
C464 C 0.12254 0.96331 0.61784 0.0
C465 C 0.1011 0.97457 0.6089 0.0
N466 N 0.13826 0.95799 0.59945 0.0
N467 N 0.10302 0.97562 0.58476 0.0
H468 H 0.13152 0.96159 0.56147 0.0
H469 H 0.12514 0.95714 0.6362 0.0
C470 C 0.17644 0.96114 0.6452 0.0
O471 O 0.17249 0.98225 0.63353 0.0
N472 N 0.1912 0.90779 0.59941 0.0
C473 C 0.20888 0.90463 0.58233 0.0
C474 C 0.22253 0.88344 0.58763 0.0
C475 C 0.19394 0.88821 0.61461 0.0
N476 N 0.21308 0.87308 0.60784 0.0
C477 C 0.18766 0.96677 0.56562 0.0
C478 C 0.23281 0.97218 0.58949 0.0
C479 C 0.23134 0.97948 0.56527 0.0
C480 C 0.20795 0.97778 0.55377 0.0
C481 C 0.2122 0.96074 0.60051 0.0
N482 N 0.19 0.95761 0.58844 0.0
H483 H 0.17109 0.96312 0.55522 0.0
H484 H 0.21519 0.9521 0.61782 0.0
H485 H 0.21118 0.91642 0.56664 0.0
H486 H 0.18177 0.88478 0.62987 0.0
O487 O 0.15389 0.921 0.56891 0.0
O488 O 0.14013 0.9072 0.60421 0.0
O489 O 0.17336 0.94012 0.63449 0.0
C490 C 0.13897 0.90621 0.58082 0.0
H491 H 0.08442 0.97924 0.61911 0.0
H492 H 0.23738 0.87551 0.57671 0.0
H493 H 0.25036 0.97328 0.59929 0.0
H494 H 0.20578 0.98248 0.53494 0.0
Co495 Co 0.56564 0.16542 0.59879 0.0
C496 C 0.53366 0.1256 0.57834 0.0
C497 C 0.53575 0.12225 0.61657 0.0
C498 C 0.52461 0.10082 0.60744 0.0
N499 N 0.54112 0.13811 0.5983 0.0
N500 N 0.52369 0.1029 0.58331 0.0
H501 H 0.53775 0.13161 0.56026 0.0
H502 H 0.54176 0.12478 0.63499 0.0
C503 C 0.53729 0.17596 0.64435 0.0
O504 O 0.51624 0.17184 0.63263 0.0
N505 N 0.59065 0.19176 0.59879 0.0
C506 C 0.59321 0.20993 0.58206 0.0
C507 C 0.61341 0.22471 0.58806 0.0
C508 C 0.60981 0.19522 0.61438 0.0
N509 N 0.62382 0.21541 0.60828 0.0
C510 C 0.53215 0.18768 0.56458 0.0
C511 C 0.52637 0.23271 0.58854 0.0
C512 C 0.51982 0.23144 0.56412 0.0
C513 C 0.52155 0.20809 0.55259 0.0
C514 C 0.5374 0.21198 0.59973 0.0
N515 N 0.5409 0.1899 0.58756 0.0
H516 H 0.53599 0.17118 0.55416 0.0
H517 H 0.54567 0.21489 0.61722 0.0
H518 H 0.58147 0.21209 0.56633 0.0
H519 H 0.61357 0.18312 0.62961 0.0
O520 O 0.5781 0.15436 0.56808 0.0
O521 O 0.59184 0.14063 0.60342 0.0
O522 O 0.55837 0.17325 0.63365 0.0
C523 C 0.59293 0.13952 0.58003 0.0
H524 H 0.51987 0.08409 0.61753 0.0
H525 H 0.62058 0.24047 0.57783 0.0
H526 H 0.52517 0.25023 0.59838 0.0
H527 H 0.51734 0.20605 0.53363 0.0
H528 H 0.69094 0.99603 0.17048 0.0
H529 H 0.71615 0.99526 0.20727 0.0
H530 H 0.71742 0.07623 0.20825 0.0
H531 H 0.69242 0.07724 0.17139 0.0
H532 H 0.76513 0.05392 0.21252 0.0
H533 H 0.69744 0.01205 0.27717 0.0
H534 H 0.7015 0.99472 0.24971 0.0
H535 H 0.68773 0.02552 0.24884 0.0
C536 C 0.69621 0.01369 0.17871 0.0
C537 C 0.6896 0.03669 0.16794 0.0
C538 C 0.71058 0.01321 0.19981 0.0
C539 C 0.71851 0.03569 0.21062 0.0
C540 C 0.71145 0.05866 0.20024 0.0
H541 H 0.81389 0.07796 0.33042 0.0
H542 H 0.78848 0.07668 0.29388 0.0
C543 C 0.69706 0.05918 0.1792 0.0
C544 C 0.73543 0.03532 0.23188 0.0
H545 H 0.73942 0.01683 0.2906 0.0
C546 C 0.75949 0.04589 0.22963 0.0
C547 C 0.7281 0.02467 0.25411 0.0
C548 C 0.70222 0.01377 0.25778 0.0
C549 C 0.77652 0.0459 0.24895 0.0
C550 C 0.76912 0.0355 0.27128 0.0
C551 C 0.74511 0.02476 0.27347 0.0
C552 C 0.78571 0.03613 0.29279 0.0
C553 C 0.80245 0.05664 0.2451 0.0
C554 C 0.79244 0.01378 0.30455 0.0
C555 C 0.8069 0.01444 0.32559 0.0
C556 C 0.81482 0.0375 0.33536 0.0
C557 C 0.80836 0.05984 0.32331 0.0
C558 C 0.79387 0.05916 0.30232 0.0
H559 H 0.80759 0.05698 0.22572 0.0
H560 H 0.8029 0.07627 0.25181 0.0
H561 H 0.81685 0.04567 0.25503 0.0
H562 H 0.78627 0.99581 0.29757 0.0
H563 H 0.81142 0.99688 0.33444 0.0
H564 H 0.49978 0.81045 0.33387 0.0
H565 H 0.50033 0.78483 0.2973 0.0
H566 H 0.41937 0.78623 0.29514 0.0
H567 H 0.41862 0.81213 0.33137 0.0
H568 H 0.47984 0.73781 0.29126 0.0
H569 H 0.43725 0.80443 0.22638 0.0
H570 H 0.449 0.81426 0.25535 0.0
H571 H 0.41855 0.79981 0.25287 0.0
C572 C 0.48209 0.80564 0.32542 0.0
C573 C 0.45916 0.81349 0.33553 0.0
C574 C 0.48245 0.79092 0.30455 0.0
C575 C 0.45992 0.78383 0.29329 0.0
C576 C 0.43702 0.7919 0.30317 0.0
H577 H 0.41717 0.68749 0.17459 0.0
H578 H 0.41877 0.71351 0.21078 0.0
C579 C 0.43663 0.80666 0.32398 0.0
C580 C 0.46027 0.76694 0.27198 0.0
H581 H 0.4405 0.7618 0.21369 0.0
C582 C 0.47142 0.74313 0.27423 0.0
C583 C 0.44924 0.77386 0.24977 0.0
C584 C 0.43804 0.79957 0.24581 0.0
C585 C 0.47131 0.72585 0.2551 0.0
C586 C 0.46001 0.73268 0.23302 0.0
C587 C 0.44903 0.75655 0.23069 0.0
C588 C 0.45934 0.71541 0.21203 0.0
C589 C 0.48269 0.7002 0.25887 0.0
C590 C 0.48164 0.70765 0.20078 0.0
C591 C 0.48082 0.69271 0.18006 0.0
C592 C 0.45765 0.68531 0.17013 0.0
C593 C 0.43536 0.6927 0.18177 0.0
C594 C 0.43621 0.70768 0.20243 0.0
H595 H 0.48506 0.69577 0.27827 0.0
H596 H 0.47089 0.6854 0.25047 0.0
H597 H 0.5015 0.69962 0.25028 0.0
H598 H 0.4997 0.71373 0.20764 0.0
H599 H 0.49835 0.68751 0.1715 0.0
H600 H 0.68867 0.42183 0.33014 0.0
H601 H 0.71512 0.42378 0.2943 0.0
H602 H 0.71566 0.50464 0.2983 0.0
H603 H 0.68897 0.50296 0.33419 0.0
H604 H 0.70891 0.48473 0.25083 0.0
H605 H 0.7905 0.44182 0.29753 0.0
H606 H 0.76195 0.42396 0.29957 0.0
H607 H 0.76377 0.45436 0.31352 0.0
C608 C 0.69415 0.44009 0.32331 0.0
C609 C 0.68681 0.46226 0.3352 0.0
C610 C 0.70944 0.44113 0.3029 0.0
C611 C 0.71779 0.46432 0.29395 0.0
C612 C 0.7096 0.48654 0.30505 0.0
H613 H 0.81352 0.5041 0.17141 0.0
H614 H 0.78763 0.50576 0.20777 0.0
C615 C 0.6943 0.48553 0.32554 0.0
C616 C 0.73545 0.46528 0.27329 0.0
H617 H 0.79398 0.44687 0.25522 0.0
C618 C 0.72758 0.47664 0.2518 0.0
C619 C 0.75981 0.45471 0.27466 0.0
C620 C 0.76967 0.44321 0.29761 0.0
C621 C 0.74314 0.47702 0.23136 0.0
C622 C 0.76742 0.46621 0.23265 0.0
C623 C 0.77538 0.45514 0.25426 0.0
C624 C 0.78451 0.46542 0.21152 0.0
C625 C 0.73314 0.48825 0.20834 0.0
C626 C 0.79229 0.44221 0.20216 0.0
C627 C 0.80729 0.44118 0.18152 0.0
C628 C 0.81491 0.46339 0.16985 0.0
C629 C 0.8079 0.48664 0.17984 0.0
C630 C 0.79292 0.48764 0.20052 0.0
H631 H 0.71236 0.49016 0.2087 0.0
H632 H 0.7413 0.50726 0.20585 0.0
H633 H 0.73848 0.4766 0.19258 0.0
H634 H 0.78619 0.42483 0.21045 0.0
H635 H 0.81232 0.42294 0.17437 0.0
H636 H 0.08097 0.68733 0.32963 0.0
H637 H 0.08074 0.71411 0.29385 0.0
H638 H 0.99976 0.71512 0.29482 0.0
H639 H 0.99976 0.68864 0.33077 0.0
H640 H 0.05963 0.70776 0.24844 0.0
H641 H 0.0173 0.78977 0.29478 0.0
H642 H 0.02978 0.76313 0.31092 0.0
H643 H 0.99916 0.76146 0.29733 0.0
C644 C 0.06307 0.69307 0.32215 0.0
C645 C 0.04037 0.68592 0.33322 0.0
C646 C 0.063 0.70844 0.3017 0.0
C647 C 0.04026 0.71708 0.29193 0.0
C648 C 0.01755 0.70921 0.30238 0.0
H649 H 0.99801 0.81077 0.17085 0.0
H650 H 0.99941 0.78443 0.20689 0.0
C651 C 0.0176 0.69388 0.32285 0.0
C652 C 0.04029 0.7344 0.27091 0.0
H653 H 0.0213 0.79262 0.25232 0.0
C654 C 0.05138 0.72636 0.24931 0.0
C655 C 0.02956 0.75871 0.27208 0.0
C656 C 0.01848 0.76893 0.29507 0.0
C657 C 0.05148 0.74172 0.22872 0.0
C658 C 0.04058 0.76596 0.22985 0.0
C659 C 0.02962 0.77404 0.25147 0.0
C660 C 0.03998 0.78301 0.20864 0.0
C661 C 0.06268 0.7316 0.20573 0.0
C662 C 0.06233 0.79157 0.19801 0.0
C663 C 0.06161 0.8067 0.1774 0.0
C664 C 0.03849 0.81366 0.16705 0.0
C665 C 0.01614 0.80575 0.17827 0.0
C666 C 0.01689 0.79066 0.19888 0.0
H667 H 0.06465 0.71083 0.20622 0.0
H668 H 0.05097 0.73681 0.18997 0.0
H669 H 0.08165 0.73981 0.20314 0.0
H670 H 0.08036 0.78635 0.20552 0.0
H671 H 0.0792 0.81247 0.1693 0.0
H672 H 0.31111 0.00043 0.8349 0.0
H673 H 0.28526 0.00085 0.79851 0.0
H674 H 0.28489 0.91987 0.79767 0.0
H675 H 0.31046 0.91921 0.83421 0.0
H676 H 0.29304 0.98024 0.75262 0.0
H677 H 0.20992 0.93761 0.79708 0.0
H678 H 0.23619 0.95005 0.81381 0.0
H679 H 0.23831 0.91963 0.79993 0.0
C680 C 0.30571 0.98268 0.8269 0.0
C681 C 0.31275 0.95978 0.83761 0.0
C682 C 0.2909 0.98297 0.8061 0.0
C683 C 0.28271 0.96041 0.79566 0.0
C684 C 0.29052 0.93752 0.80573 0.0
H685 H 0.19113 0.92097 0.67257 0.0
H686 H 0.21628 0.92162 0.70935 0.0
C687 C 0.30533 0.93719 0.82653 0.0
C688 C 0.26581 0.96085 0.77439 0.0
H689 H 0.20766 0.94287 0.75475 0.0
C690 C 0.27433 0.97219 0.7531 0.0
C691 C 0.24137 0.95036 0.77508 0.0
C692 C 0.23075 0.93892 0.79774 0.0
C693 C 0.25931 0.97281 0.73231 0.0
C694 C 0.2349 0.96224 0.73297 0.0
C695 C 0.22634 0.95099 0.75429 0.0
C696 C 0.21822 0.96214 0.71153 0.0
C697 C 0.26995 0.98419 0.70962 0.0
C698 C 0.21026 0.98472 0.70094 0.0
C699 C 0.19582 0.98445 0.67988 0.0
C700 C 0.18896 0.96155 0.66907 0.0
C701 C 0.19608 0.93896 0.68035 0.0
C702 C 0.21051 0.93927 0.70138 0.0
H703 H 0.29075 0.98583 0.71042 0.0
H704 H 0.26482 0.97279 0.69362 0.0
H705 H 0.26209 0.00332 0.70717 0.0
H706 H 0.21552 0.00259 0.70878 0.0
H707 H 0.19059 0.00219 0.67178 0.0
H708 H 0.57897 0.31203 0.83031 0.0
H709 H 0.57692 0.2864 0.79389 0.0
H710 H 0.49617 0.28389 0.7994 0.0
H711 H 0.49796 0.30974 0.83576 0.0
H712 H 0.55672 0.23768 0.79092 0.0
H713 H 0.5077 0.30298 0.72868 0.0
H714 H 0.52235 0.31345 0.75622 0.0
H715 H 0.49228 0.29814 0.75706 0.0
C716 C 0.56071 0.3064 0.8236 0.0
C717 C 0.53861 0.31305 0.83597 0.0
C718 C 0.5596 0.29164 0.80281 0.0
C719 C 0.53639 0.28338 0.79381 0.0
C720 C 0.51426 0.2904 0.80579 0.0
H721 H 0.49604 0.18902 0.67119 0.0
H722 H 0.49529 0.21335 0.70857 0.0
C723 C 0.51534 0.30513 0.82663 0.0
C724 C 0.53552 0.26635 0.77264 0.0
H725 H 0.51392 0.26135 0.71496 0.0
C726 C 0.54741 0.24287 0.77428 0.0
C727 C 0.52322 0.27307 0.75102 0.0
C728 C 0.51082 0.29836 0.74795 0.0
C729 C 0.54721 0.22585 0.75495 0.0
C730 C 0.53519 0.23269 0.73321 0.0
C731 C 0.52307 0.25608 0.73165 0.0
C732 C 0.53571 0.21629 0.71156 0.0
C733 C 0.55953 0.20055 0.75815 0.0
C734 C 0.55868 0.20969 0.70088 0.0
C735 C 0.55919 0.19569 0.6796 0.0
C736 C 0.5367 0.18817 0.66837 0.0
C737 C 0.51371 0.19438 0.67937 0.0
C738 C 0.51323 0.20838 0.7007 0.0
H739 H 0.5611 0.19537 0.77746 0.0
H740 H 0.54888 0.1856 0.74865 0.0
H741 H 0.57879 0.20122 0.75056 0.0
H742 H 0.57625 0.216 0.70862 0.0
H743 H 0.57724 0.19145 0.67157 0.0
H744 H 0.30806 0.49293 0.66884 0.0
H745 H 0.28209 0.49207 0.70523 0.0
H746 H 0.28397 0.57296 0.70836 0.0
H747 H 0.30965 0.57408 0.67197 0.0
H748 H 0.29008 0.51172 0.75207 0.0
H749 H 0.20845 0.55683 0.70742 0.0
H750 H 0.23455 0.54392 0.69077 0.0
H751 H 0.23726 0.57418 0.70488 0.0
C752 C 0.30316 0.51054 0.67738 0.0
C753 C 0.31081 0.53357 0.66733 0.0
C754 C 0.28827 0.51001 0.69816 0.0
C755 C 0.28065 0.53247 0.70919 0.0
C756 C 0.28916 0.55542 0.69982 0.0
H757 H 0.1897 0.57507 0.83129 0.0
H758 H 0.21525 0.57313 0.79481 0.0
C759 C 0.30402 0.55599 0.67909 0.0
C760 C 0.26352 0.53199 0.73029 0.0
H761 H 0.20596 0.55182 0.74981 0.0
C762 C 0.27162 0.52032 0.75156 0.0
C763 C 0.23942 0.54322 0.72955 0.0
C764 C 0.22924 0.55506 0.70688 0.0
C765 C 0.25655 0.5202 0.77234 0.0
C766 C 0.23253 0.53163 0.77166 0.0
C767 C 0.22436 0.54308 0.7503 0.0
C768 C 0.2159 0.53253 0.79312 0.0
C769 C 0.26679 0.50852 0.79505 0.0
C770 C 0.20714 0.51036 0.80394 0.0
C771 C 0.19248 0.51138 0.82483 0.0
C772 C 0.18618 0.53464 0.83525 0.0
C773 C 0.1942 0.55683 0.82381 0.0
C774 C 0.20886 0.55577 0.80295 0.0
H775 H 0.28751 0.50613 0.79425 0.0
H776 H 0.26208 0.52014 0.81102 0.0
H777 H 0.25825 0.48969 0.79755 0.0
H778 H 0.21186 0.49223 0.79635 0.0
H779 H 0.18654 0.49393 0.83307 0.0
H780 H 0.00608 0.19188 0.83419 0.0
H781 H 0.00712 0.21809 0.79797 0.0
H782 H 0.92622 0.21674 0.79478 0.0
H783 H 0.92492 0.19076 0.83099 0.0
H784 H 0.98695 0.2103 0.75088 0.0
H785 H 0.94345 0.29232 0.79635 0.0
H786 H 0.95635 0.26604 0.81275 0.0
H787 H 0.92591 0.26362 0.79895 0.0
C788 C 0.9885 0.19694 0.82567 0.0
C789 C 0.96541 0.18932 0.83564 0.0
C790 C 0.98914 0.21196 0.80498 0.0
C791 C 0.96674 0.21978 0.79397 0.0
C792 C 0.94372 0.21136 0.80328 0.0
H793 H 0.92433 0.31249 0.67318 0.0
H794 H 0.92646 0.2869 0.70959 0.0
C795 C 0.94304 0.19632 0.82391 0.0
C796 C 0.96735 0.23705 0.77298 0.0
H797 H 0.94847 0.29513 0.75401 0.0
C798 C 0.9787 0.22891 0.75157 0.0
C799 C 0.95659 0.26135 0.77396 0.0
C800 C 0.94507 0.27152 0.79678 0.0
C801 C 0.97892 0.24413 0.73088 0.0
C802 C 0.96797 0.26836 0.7318 0.0
C803 C 0.95687 0.27658 0.75332 0.0
C804 C 0.96705 0.28513 0.71041 0.0
C805 C 0.99015 0.23379 0.708 0.0
C806 C 0.9892 0.29332 0.69912 0.0
C807 C 0.98807 0.30799 0.67822 0.0
C808 C 0.96475 0.31491 0.6683 0.0
C809 C 0.94263 0.30752 0.68026 0.0
C810 C 0.94379 0.29283 0.70109 0.0
H811 H 0.99204 0.21301 0.70865 0.0
H812 H 0.9785 0.23889 0.69216 0.0
H813 H 0.00916 0.24189 0.70541 0.0
H814 H 0.00738 0.28812 0.70631 0.0
H815 H 0.00548 0.31344 0.66958 0.0
H816 H 0.41366 0.95209 0.95979 0.0
H817 H 0.44827 0.96097 0.98699 0.0
H818 H 0.47693 0.01622 0.93733 0.0
H819 H 0.4415 0.0079 0.91007 0.0
H820 H 0.4992 0.95639 0.97949 0.0
H821 H 0.47392 0.05519 1.0008 0.0
H822 H 0.45242 0.03391 0.98614 0.0
H823 H 0.47733 0.0484 0.96931 0.0
C824 C 0.42695 0.96649 0.95473 0.0
C825 C 0.42444 0.97968 0.93288 0.0
C826 C 0.44696 0.97136 0.97027 0.0
C827 C 0.46499 0.98955 0.96444 0.0
C828 C 0.46294 0.00245 0.94244 0.0
H829 H 0.59673 0.04362 0.04001 0.0
H830 H 0.56351 0.0348 0.01117 0.0
C831 C 0.44284 0.99755 0.92679 0.0
C832 C 0.48597 0.99456 0.98144 0.0
H833 H 0.51193 0.03986 0.01721 0.0
C834 C 0.50199 0.97464 0.98775 0.0
C835 C 0.48953 0.01835 0.99227 0.0
C836 C 0.4723 0.04017 0.98701 0.0
C837 C 0.52162 0.97793 0.00437 0.0
C838 C 0.52509 0.00168 0.01529 0.0
C839 C 0.50919 0.02164 0.00887 0.0
C840 C 0.54548 0.00641 0.033 0.0
C841 C 0.53877 0.95608 0.00976 0.0
C842 C 0.54634 0.99353 0.05507 0.0
C843 C 0.56557 0.99842 0.07167 0.0
C844 C 0.5843 0.01626 0.06649 0.0
C845 C 0.58312 0.02928 0.04444 0.0
C846 C 0.56393 0.02445 0.02795 0.0
H847 H 0.53744 0.94122 0.99578 0.0
H848 H 0.55862 0.96236 0.01107 0.0
H849 H 0.53337 0.94765 0.02727 0.0
H850 H 0.53201 0.97987 0.05955 0.0
H851 H 0.5659 0.98818 0.0885 0.0
H852 H 0.4884 0.43638 0.91494 0.0
H853 H 0.4786 0.4696 0.9443 0.0
H854 H 0.54447 0.44957 0.98519 0.0
H855 H 0.55465 0.4172 0.95585 0.0
H856 H 0.46946 0.46338 0.99382 0.0
H857 H 0.55173 0.52538 0.979 0.0
H858 H 0.54278 0.50116 0.95795 0.0
H859 H 0.56006 0.49327 0.98471 0.0
C860 C 0.5009 0.43937 0.93003 0.0
C861 C 0.5221 0.42399 0.93319 0.0
C862 C 0.49526 0.45822 0.94683 0.0
C863 C 0.51095 0.46222 0.96683 0.0
C864 C 0.53229 0.44711 0.96976 0.0
H865 H 0.50837 0.56068 0.09281 0.0
H866 H 0.51808 0.52716 0.0637 0.0
C867 C 0.53788 0.42833 0.95309 0.0
C868 C 0.50459 0.48136 0.98531 0.0
H869 H 0.52734 0.53333 0.0141 0.0
C870 C 0.48201 0.47879 0.99814 0.0
C871 C 0.52111 0.50132 0.99108 0.0
C872 C 0.54517 0.50564 0.97732 0.0
C873 C 0.4757 0.49539 0.01684 0.0
C874 C 0.49222 0.51535 0.02262 0.0
C875 C 0.5148 0.51791 0.0098 0.0
C876 C 0.48583 0.53455 0.04103 0.0
C877 C 0.45161 0.49111 0.03057 0.0
C878 C 0.46456 0.54972 0.03796 0.0
C879 C 0.45904 0.56867 0.05447 0.0
C880 C 0.47482 0.5731 0.07436 0.0
C881 C 0.4959 0.55761 0.07771 0.0
C882 C 0.50148 0.5386 0.06105 0.0
H883 H 0.44503 0.47138 0.0289 0.0
H884 H 0.45397 0.49562 0.04994 0.0
H885 H 0.43674 0.5035 0.02314 0.0
H886 H 0.45241 0.54721 0.02251 0.0
H887 H 0.44236 0.5799 0.05159 0.0
H888 H 0.04768 0.51967 0.9079 0.0
H889 H 0.01476 0.51128 0.93757 0.0
H890 H 0.07114 0.49515 0.99104 0.0
H891 H 0.10417 0.5031 0.96144 0.0
H892 H 0.00512 0.46738 0.96746 0.0
H893 H 0.02828 0.55257 0.02089 0.0
H894 H 0.03912 0.54812 0.99041 0.0
H895 H 0.05423 0.53193 0.01479 0.0
C896 C 0.05314 0.51392 0.92582 0.0
C897 C 0.07867 0.51233 0.9323 0.0
C898 C 0.03426 0.50927 0.94281 0.0
C899 C 0.04052 0.50308 0.96662 0.0
C900 C 0.0659 0.50044 0.97289 0.0
H901 H 0.95372 0.4763 0.097 0.0
H902 H 0.98714 0.48274 0.0674 0.0
C903 C 0.08476 0.50501 0.95594 0.0
C904 C 0.02056 0.49992 0.98505 0.0
H905 H 0.99763 0.52519 0.03714 0.0
C906 C 0.00341 0.48005 0.98265 0.0
C907 C 0.01844 0.51644 0.0049 0.0
C908 C 0.03583 0.53861 0.00792 0.0
C909 C 0.98438 0.47605 0.99979 0.0
C910 C 0.98216 0.49269 0.01954 0.0
C911 C 0.99938 0.51249 0.02198 0.0
C912 C 0.96189 0.48998 0.03772 0.0
C913 C 0.96711 0.45376 0.9969 0.0
C914 C 0.93663 0.4927 0.03102 0.0
C915 C 0.91749 0.48932 0.04794 0.0
C916 C 0.92316 0.4831 0.07196 0.0
C917 C 0.94857 0.48126 0.07878 0.0
C918 C 0.96774 0.48475 0.06183 0.0
H919 H 0.97499 0.43956 0.98434 0.0
H920 H 0.96349 0.4446 0.01452 0.0
H921 H 0.94884 0.46022 0.98954 0.0
H922 H 0.93171 0.49732 0.01263 0.0
H923 H 0.89819 0.49136 0.04214 0.0
H924 H 0.99591 0.10816 0.96429 0.0
H925 H 0.00212 0.07534 0.99455 0.0
H926 H 0.98479 0.01876 0.9416 0.0
H927 H 0.97848 0.05145 0.91129 0.0
H928 H 0.96708 0.04062 0.01069 0.0
H929 H 0.04962 0.99219 0.97123 0.0
H930 H 0.03969 0.023 0.96157 0.0
H931 H 0.02371 0.99545 0.95078 0.0
C932 C 0.99358 0.08872 0.95904 0.0
C933 C 0.98675 0.08249 0.93531 0.0
C934 C 0.99715 0.06998 0.97636 0.0
C935 C 0.99416 0.04456 0.97033 0.0
C936 C 0.98773 0.03821 0.94658 0.0
H937 H 0.99772 0.90307 0.04642 0.0
H938 H 0.99115 0.93752 0.01804 0.0
C939 C 0.98417 0.05696 0.92921 0.0
C940 C 0.99674 0.0248 0.98911 0.0
H941 H 0.02906 0.97147 0.0036 0.0
C942 C 0.98076 0.02559 0.00924 0.0
C943 C 0.01457 0.0052 0.98722 0.0
C944 C 0.03305 0.00395 0.96666 0.0
C945 C 0.98173 0.00699 0.0272 0.0
C946 C 0.99937 0.98724 0.02513 0.0
C947 C 0.01548 0.98657 0.00512 0.0
C948 C 0.00126 0.96676 0.04325 0.0
C949 C 0.96346 0.00822 0.04791 0.0
C950 C 0.00877 0.97175 0.06702 0.0
C951 C 0.01263 0.952 0.08332 0.0
C952 C 0.00919 0.9269 0.07607 0.0
C953 C 0.00081 0.92214 0.05249 0.0
C954 C 0.99701 0.94181 0.03626 0.0
H955 H 0.94757 0.02116 0.04411 0.0
H956 H 0.95579 0.9893 0.05203 0.0
H957 H 0.97338 0.01515 0.06416 0.0
H958 H 0.01253 0.99083 0.07271 0.0
H959 H 0.0194 0.95634 0.1012 0.0
H960 H 0.43638 0.4868 0.59065 0.0
H961 H 0.47086 0.47814 0.56245 0.0
H962 H 0.44274 0.53546 0.5147 0.0
H963 H 0.40861 0.54424 0.54262 0.0
H964 H 0.45439 0.49101 0.49107 0.0
H965 H 0.53302 0.52151 0.54992 0.0
H966 H 0.51271 0.49822 0.56291 0.0
H967 H 0.50064 0.529 0.5564 0.0
C968 C 0.43768 0.4976 0.5742 0.0
C969 C 0.41956 0.51599 0.56883 0.0
C970 C 0.45739 0.49271 0.55813 0.0
C971 C 0.4595 0.50632 0.53654 0.0
C972 C 0.44145 0.52466 0.53118 0.0
H973 H 0.56162 0.50796 0.41322 0.0
H974 H 0.52732 0.5162 0.4417 0.0
C975 C 0.42178 0.52951 0.54715 0.0
C976 C 0.48019 0.50132 0.51922 0.0
H977 H 0.54401 0.50269 0.51278 0.0
C978 C 0.47399 0.49362 0.49579 0.0
C979 C 0.50575 0.50478 0.52539 0.0
C980 C 0.51352 0.51404 0.54994 0.0
C981 C 0.49265 0.48891 0.47847 0.0
C982 C 0.5182 0.49243 0.48463 0.0
C983 C 0.52441 0.50006 0.50808 0.0
C984 C 0.53885 0.48769 0.4672 0.0
C985 C 0.48488 0.47967 0.45391 0.0
C986 C 0.55694 0.4693 0.47225 0.0
C987 C 0.57652 0.46466 0.45611 0.0
C988 C 0.57859 0.47847 0.43457 0.0
C989 C 0.56044 0.49694 0.42955 0.0
C990 C 0.54082 0.5016 0.44578 0.0
H991 H 0.46541 0.47214 0.45395 0.0
H992 H 0.48562 0.49553 0.44097 0.0
H993 H 0.49781 0.46478 0.44741 0.0
H994 H 0.55575 0.45828 0.4886 0.0
H995 H 0.58971 0.44987 0.46037 0.0
H996 H 0.99322 0.39387 0.53881 0.0
H997 H 0.00087 0.42606 0.50826 0.0
H998 H 0.98639 0.48389 0.56074 0.0
H999 H 0.97857 0.45183 0.59134 0.0
H1000 H 0.96726 0.46217 0.49204 0.0
H1001 H 0.05228 0.50716 0.5304 0.0
H1002 H 0.04104 0.47691 0.54038 0.0
H1003 H 0.02645 0.50524 0.5511 0.0
C1004 C 0.99177 0.41344 0.5439 0.0
C1005 C 0.98526 0.4202 0.56758 0.0
C1006 C 0.99621 0.43182 0.52641 0.0
C1007 C 0.99444 0.45741 0.53223 0.0
C1008 C 0.98837 0.46428 0.55593 0.0
H1009 H 0.00314 0.59811 0.45533 0.0
H1010 H 0.99596 0.56408 0.48405 0.0
C1011 C 0.98394 0.44589 0.57345 0.0
C1012 C 0.99779 0.47683 0.51324 0.0
H1013 H 0.0323 0.52859 0.49809 0.0
C1014 C 0.98159 0.47659 0.49326 0.0
C1015 C 0.01651 0.49563 0.51483 0.0
C1016 C 0.03523 0.4962 0.53521 0.0
C1017 C 0.98318 0.49503 0.47518 0.0
C1018 C 0.00168 0.51401 0.47696 0.0
C1019 C 0.01805 0.51409 0.4968 0.0
C1020 C 0.00418 0.53433 0.45875 0.0
C1021 C 0.96462 0.49446 0.45468 0.0
C1022 C 0.01086 0.52894 0.43484 0.0
C1023 C 0.01503 0.54844 0.41833 0.0
C1024 C 0.01278 0.57369 0.42552 0.0
C1025 C 0.00531 0.5789 0.4493 0.0
C1026 C 0.00117 0.55947 0.46573 0.0
H1027 H 0.9482 0.48229 0.45876 0.0
H1028 H 0.95778 0.51367 0.45047 0.0
H1029 H 0.97401 0.48692 0.43839 0.0
H1030 H 0.01368 0.5097 0.42914 0.0
H1031 H 0.02109 0.54376 0.4003 0.0
H1032 H 0.9183 0.05049 0.4555 0.0
H1033 H 0.9523 0.0415 0.48348 0.0
H1034 H 0.97584 0.97927 0.43926 0.0
H1035 H 0.94129 0.98802 0.41106 0.0
H1036 H 0.96024 0.99609 0.50918 0.0
H1037 H 0.041 0.02036 0.45014 0.0
H1038 H 0.00926 0.03022 0.4436 0.0
H1039 H 0.01876 0.99842 0.43784 0.0
C1040 C 0.93044 0.03467 0.45176 0.0
C1041 C 0.92678 0.01966 0.43118 0.0
C1042 C 0.95004 0.0297 0.46774 0.0
C1043 C 0.96665 0.00979 0.46345 0.0
C1044 C 0.96339 0.99494 0.44276 0.0
H1045 H 0.09463 0.95229 0.54212 0.0
H1046 H 0.06126 0.96087 0.51335 0.0
C1047 C 0.94368 0.99991 0.42669 0.0
C1048 C 0.98685 0.00438 0.48112 0.0
H1049 H 0.05054 0.00366 0.48845 0.0
C1050 C 0.98 0.99775 0.50468 0.0
C1051 C 0.01258 0.0066 0.47519 0.0
C1052 C 0.02098 0.01448 0.45039 0.0
C1053 C 0.99819 0.99291 0.52241 0.0
C1054 C 0.02396 0.99534 0.51656 0.0
C1055 C 0.03079 0.00191 0.49295 0.0
C1056 C 0.04417 0.99044 0.53442 0.0
C1057 C 0.98963 0.98466 0.54706 0.0
C1058 C 0.04586 0.00432 0.55589 0.0
C1059 C 0.06508 0.99943 0.57251 0.0
C1060 C 0.08317 0.98085 0.56776 0.0
C1061 C 0.08142 0.96711 0.54618 0.0
C1062 C 0.0622 0.97189 0.52971 0.0
H1063 H 0.97008 0.97733 0.54674 0.0
H1064 H 0.00217 0.96987 0.55442 0.0
H1065 H 0.99012 0.00099 0.55946 0.0
H1066 H 0.03246 0.01909 0.55971 0.0
H1067 H 0.06605 0.01038 0.58889 0.0
H1068 H 0.44669 0.92007 0.4531 0.0
H1069 H 0.45605 0.95415 0.48087 0.0
H1070 H 0.51898 0.97631 0.43686 0.0
H1071 H 0.50984 0.94164 0.40887 0.0
H1072 H 0.50184 0.96092 0.50662 0.0
H1073 H 0.47919 0.04243 0.44791 0.0
H1074 H 0.46848 0.01097 0.44136 0.0
H1075 H 0.50051 0.01962 0.43555 0.0
C1076 C 0.46271 0.93196 0.44935 0.0
C1077 C 0.47785 0.92783 0.42894 0.0
C1078 C 0.4679 0.9516 0.4652 0.0
C1079 C 0.48816 0.96779 0.46096 0.0
C1080 C 0.50305 0.96417 0.44034 0.0
H1081 H 0.54698 0.09483 0.54058 0.0
H1082 H 0.53823 0.06177 0.5115 0.0
C1083 C 0.49786 0.9444 0.42439 0.0
C1084 C 0.49398 0.98783 0.47871 0.0
H1085 H 0.49567 0.05145 0.4864 0.0
C1086 C 0.5005 0.98074 0.50223 0.0
C1087 C 0.49221 0.01362 0.47291 0.0
C1088 C 0.48454 0.02226 0.44813 0.0
C1089 C 0.5056 0.99874 0.52007 0.0
C1090 C 0.50354 0.02457 0.51438 0.0
C1091 C 0.49714 0.03165 0.49079 0.0
C1092 C 0.50858 0.0446 0.53243 0.0
C1093 C 0.51372 0.98988 0.54466 0.0
C1094 C 0.49471 0.04615 0.55393 0.0
C1095 C 0.49972 0.06516 0.57072 0.0
C1096 C 0.5184 0.08321 0.56614 0.0
C1097 C 0.53211 0.08163 0.54453 0.0
C1098 C 0.52722 0.0626 0.52788 0.0
H1099 H 0.52094 0.9703 0.54417 0.0
H1100 H 0.52857 0.00225 0.55219 0.0
H1101 H 0.49735 0.99031 0.55701 0.0
H1102 H 0.47986 0.0328 0.55763 0.0
H1103 H 0.48877 0.06602 0.58712 0.0
H1104 H 0.5385 0.27563 0.99014 0.0
H1105 H 0.54499 0.23873 0.01483 0.0
H1106 H 0.51776 0.19151 0.95756 0.0
H1107 H 0.50995 0.2287 0.93268 0.0
H1108 H 0.51457 0.18884 0.02718 0.0
H1109 H 0.59865 0.18314 0.9674 0.0
H1110 H 0.58117 0.21195 0.97082 0.0
H1111 H 0.56803 0.18642 0.95397 0.0
C1112 C 0.5326 0.25767 0.98299 0.0
C1113 C 0.52401 0.25526 0.9591 0.0
C1114 C 0.53647 0.23649 0.99724 0.0
C1115 C 0.53207 0.21251 0.98789 0.0
C1116 C 0.52129 0.20999 0.965 0.0
H1117 H 0.62043 0.08486 0.03508 0.0
H1118 H 0.59022 0.11063 0.01323 0.0
C1119 C 0.5171 0.23125 0.95075 0.0
C1120 C 0.54345 0.19074 1.00015 0.0
H1121 H 0.59756 0.15664 1.00075 0.0
C1122 C 0.5325 0.18138 0.02127 0.0
C1123 C 0.56688 0.18131 0.99237 0.0
C1124 C 0.57957 0.19117 0.96996 0.0
C1125 C 0.54466 0.16287 0.03507 0.0
C1126 C 0.56868 0.15424 0.02783 0.0
C1127 C 0.57917 0.16321 0.0063 0.0
C1128 C 0.58402 0.13673 0.04252 0.0
C1129 C 0.53165 0.1528 0.05715 0.0
C1130 C 0.59039 0.14258 0.06643 0.0
C1131 C 0.60739 0.12754 0.07914 0.0
C1132 C 0.61875 0.10686 0.06789 0.0
C1133 C 0.6121 0.10084 0.04414 0.0
C1134 C 0.59476 0.1155 0.03166 0.0
H1135 H 0.51091 0.15445 0.05553 0.0
H1136 H 0.53651 0.1328 0.06039 0.0
H1137 H 0.53755 0.16394 0.07305 0.0
H1138 H 0.58296 0.15926 0.07499 0.0
H1139 H 0.61231 0.13259 0.09742 0.0
H1140 H 0.27058 0.54287 0.93595 0.0
H1141 H 0.30405 0.54565 0.96516 0.0
H1142 H 0.26375 0.496 0.01273 0.0
H1143 H 0.23017 0.49199 0.98283 0.0
H1144 H 0.27358 0.54439 0.03132 0.0
H1145 H 0.3605 0.5029 0.99447 0.0
H1146 H 0.34423 0.52144 0.97247 0.0
H1147 H 0.32954 0.49362 0.9844 0.0
C1148 C 0.26914 0.5314 0.95197 0.0
C1149 C 0.24736 0.51729 0.95695 0.0
C1150 C 0.28845 0.53313 0.9688 0.0
C1151 C 0.28647 0.52094 0.99105 0.0
C1152 C 0.26566 0.50546 0.99557 0.0
H1153 H 0.37236 0.5923 0.10911 0.0
H1154 H 0.3459 0.56029 0.08992 0.0
C1155 C 0.2464 0.5034 0.97852 0.0
C1156 C 0.30376 0.52837 0.01063 0.0
H1157 H 0.36598 0.53866 0.02132 0.0
C1158 C 0.2938 0.54251 0.02968 0.0
C1159 C 0.33007 0.52587 0.00835 0.0
C1160 C 0.3417 0.5099 0.98893 0.0
C1161 C 0.30947 0.55631 0.04509 0.0
C1162 C 0.33579 0.5554 0.04159 0.0
C1163 C 0.34578 0.5395 0.02384 0.0
C1164 C 0.35287 0.57339 0.05365 0.0
C1165 C 0.29764 0.57337 0.0636 0.0
C1166 C 0.36597 0.59093 0.03961 0.0
C1167 C 0.38114 0.60902 0.05044 0.0
C1168 C 0.38347 0.60999 0.07559 0.0
C1169 C 0.37064 0.59219 0.08969 0.0
C1170 C 0.35554 0.57392 0.07878 0.0
H1171 H 0.27696 0.57486 0.06131 0.0
H1172 H 0.30141 0.56585 0.08186 0.0
H1173 H 0.30585 0.59251 0.06253 0.0
H1174 H 0.36414 0.59089 0.02019 0.0
H1175 H 0.39091 0.62235 0.03907 0.0
H1176 H 0.00748 0.23717 0.97989 0.0
H1177 H 0.00389 0.27097 0.00969 0.0
H1178 H 0.94821 0.30749 0.96557 0.0
H1179 H 0.95098 0.27388 0.93631 0.0
H1180 H 0.98362 0.34113 0.99092 0.0
H1181 H 0.93664 0.26961 0.04906 0.0
H1182 H 0.96783 0.26336 0.03809 0.0
H1183 H 0.94193 0.26401 0.01745 0.0
C1184 C 0.99479 0.25263 0.97633 0.0
C1185 C 0.97932 0.25255 0.95576 0.0
C1186 C 0.99286 0.27195 0.99333 0.0
C1187 C 0.97556 0.29149 0.98991 0.0
C1188 C 0.96175 0.29259 0.96848 0.0
H1189 H 0.87846 0.39977 0.03803 0.0
H1190 H 0.91033 0.37401 0.01875 0.0
C1191 C 0.96351 0.27331 0.95163 0.0
C1192 C 0.96881 0.30891 0.00957 0.0
H1193 H 0.93064 0.31178 0.05879 0.0
C1194 C 0.9726 0.33474 0.00616 0.0
C1195 C 0.95459 0.30048 0.02951 0.0
C1196 C 0.94982 0.27289 0.03388 0.0
C1197 C 0.9611 0.35245 0.02128 0.0
C1198 C 0.94492 0.34401 0.03981 0.0
C1199 C 0.94292 0.31819 0.04447 0.0
C1200 C 0.9271 0.36114 0.05204 0.0
C1201 C 0.96561 0.38001 0.01664 0.0
C1202 C 0.92532 0.36187 0.07725 0.0
C1203 C 0.90673 0.37638 0.08841 0.0
C1204 C 0.88954 0.39018 0.07448 0.0
C1205 C 0.89143 0.38939 0.04929 0.0
C1206 C 0.9099 0.37493 0.03821 0.0
H1207 H 0.98469 0.38319 0.00912 0.0
H1208 H 0.95183 0.38688 0.00317 0.0
H1209 H 0.96353 0.39131 0.03332 0.0
H1210 H 0.93818 0.35105 0.08825 0.0
H1211 H 0.90575 0.3767 0.10787 0.0
H1212 H 0.2728 0.96768 0.99049 0.0
H1213 H 0.23528 0.96277 0.01475 0.0
H1214 H 0.18981 0.98986 0.9561 0.0
H1215 H 0.22763 0.9957 0.93156 0.0
H1216 H 0.18953 0.99347 0.02784 0.0
H1217 H 0.17387 0.91248 0.96592 0.0
H1218 H 0.20373 0.92841 0.9677 0.0
H1219 H 0.17773 0.94313 0.95278 0.0
C1220 C 0.25509 0.97377 0.98292 0.0
C1221 C 0.25333 0.98182 0.95882 0.0
C1222 C 0.23356 0.9708 0.9969 0.0
C1223 C 0.20984 0.97563 0.98708 0.0
C1224 C 0.20803 0.98585 0.96387 0.0
H1225 H 0.07738 0.89611 0.03783 0.0
H1226 H 0.10362 0.92582 0.01571 0.0
C1227 C 0.22964 0.98901 0.94985 0.0
C1228 C 0.18743 0.96585 0.99964 0.0
H1229 H 0.14822 0.91525 0.99976 0.0
C1230 C 0.1801 0.97663 0.02157 0.0
C1231 C 0.17538 0.9438 0.99141 0.0
C1232 C 0.18304 0.93108 0.96825 0.0
C1233 C 0.16122 0.9656 0.03577 0.0
C1234 C 0.14999 0.94287 0.02805 0.0
C1235 C 0.15678 0.93268 0.00568 0.0
C1236 C 0.13231 0.92826 0.04324 0.0
C1237 C 0.15361 0.97836 0.05887 0.0
C1238 C 0.13945 0.92005 0.06629 0.0
C1239 C 0.12426 0.90328 0.07912 0.0
C1240 C 0.10206 0.89401 0.06881 0.0
C1241 C 0.09459 0.90275 0.04607 0.0
C1242 C 0.1095 0.91982 0.03347 0.0
H1243 H 0.15695 0.99894 0.05792 0.0
H1244 H 0.13349 0.97501 0.06307 0.0
H1245 H 0.16515 0.97084 0.07385 0.0
H1246 H 0.15728 0.9257 0.07395 0.0
H1247 H 0.13045 0.89671 0.09659 0.0
H1248 H 0.62736 0.39347 0.46663 0.0
H1249 H 0.59517 0.36783 0.48583 0.0
H1250 H 0.56234 0.35188 0.41653 0.0
H1251 H 0.59505 0.37723 0.397 0.0
H1252 H 0.54301 0.37261 0.48548 0.0
H1253 H 0.57373 0.28198 0.44465 0.0
H1254 H 0.59295 0.30986 0.44335 0.0
H1255 H 0.5658 0.30705 0.42437 0.0
C1256 C 0.6134 0.38441 0.45541 0.0
C1257 C 0.61389 0.38711 0.43028 0.0
C1258 C 0.5949 0.3699 0.46643 0.0
C1259 C 0.57647 0.35782 0.45261 0.0
C1260 C 0.57663 0.36073 0.4275 0.0
H1261 H 0.49027 0.23895 0.52382 0.0
H1262 H 0.49527 0.27268 0.49423 0.0
C1263 C 0.5953 0.3752 0.41638 0.0
C1264 C 0.55781 0.34166 0.46489 0.0
H1265 H 0.54368 0.2801 0.47518 0.0
C1266 C 0.54273 0.35242 0.48291 0.0
C1267 C 0.55727 0.31536 0.46132 0.0
C1268 C 0.57336 0.30273 0.4425 0.0
C1269 C 0.52853 0.33739 0.49856 0.0
C1270 C 0.5296 0.31101 0.49618 0.0
C1271 C 0.5429 0.30039 0.4769 0.0
C1272 C 0.52147 0.29404 0.51579 0.0
C1273 C 0.51349 0.34979 0.51822 0.0
C1274 C 0.53396 0.29531 0.53795 0.0
C1275 C 0.53162 0.2759 0.55462 0.0
C1276 C 0.51664 0.25475 0.54953 0.0
C1277 C 0.50235 0.25467 0.52818 0.0
C1278 C 0.505 0.27402 0.5113 0.0
H1279 H 0.50735 0.36892 0.51278 0.0
H1280 H 0.49668 0.33847 0.523 0.0
H1281 H 0.52541 0.35173 0.5345 0.0
H1282 H 0.5472 0.3103 0.54157 0.0
H1283 H 0.54336 0.27664 0.5705 0.0
H1284 H 0.12316 0.58971 0.39441 0.0
H1285 H 0.1497 0.5579 0.41383 0.0
H1286 H 0.12366 0.58261 0.48342 0.0
H1287 H 0.09696 0.61384 0.46429 0.0
H1288 H 0.18783 0.56691 0.44404 0.0
H1289 H 0.11885 0.50775 0.49146 0.0
H1290 H 0.10988 0.52909 0.46769 0.0
H1291 H 0.11334 0.54019 0.49816 0.0
C1292 C 0.1229 0.5881 0.41384 0.0
C1293 C 0.10804 0.6043 0.42784 0.0
C1294 C 0.13797 0.56987 0.42488 0.0
C1295 C 0.13822 0.56747 0.45005 0.0
C1296 C 0.12319 0.58352 0.46396 0.0
H1297 H 0.22645 0.54392 0.56607 0.0
H1298 H 0.19288 0.54665 0.53675 0.0
C1299 C 0.10815 0.60163 0.45298 0.0
C1300 C 0.15617 0.55038 0.46222 0.0
H1301 H 0.16058 0.51042 0.51008 0.0
C1302 C 0.18191 0.5539 0.45796 0.0
C1303 C 0.1484 0.53327 0.48025 0.0
C1304 C 0.12107 0.52717 0.48445 0.0
C1305 C 0.20005 0.54269 0.47277 0.0
C1306 C 0.19217 0.5274 0.49217 0.0
C1307 C 0.16653 0.52224 0.49524 0.0
C1308 C 0.20981 0.52065 0.51167 0.0
C1309 C 0.22742 0.54896 0.46883 0.0
C1310 C 0.22989 0.50409 0.50779 0.0
C1311 C 0.24918 0.50214 0.52483 0.0
C1312 C 0.24871 0.51688 0.54589 0.0
C1313 C 0.22746 0.53193 0.55038 0.0
C1314 C 0.20821 0.53368 0.53349 0.0
H1315 H 0.23018 0.56275 0.45406 0.0
H1316 H 0.23572 0.55676 0.48557 0.0
H1317 H 0.23788 0.53158 0.46423 0.0
H1318 H 0.23127 0.49368 0.4911 0.0
H1319 H 0.26502 0.49004 0.52096 0.0
H1320 H 0.87781 0.10353 0.46663 0.0
H1321 H 0.9084 0.13108 0.48576 0.0
H1322 H 0.93994 0.14914 0.41637 0.0
H1323 H 0.90876 0.1219 0.39691 0.0
H1324 H 0.96045 0.13079 0.4859 0.0
H1325 H 0.92296 0.21804 0.44352 0.0
H1326 H 0.90619 0.18863 0.44229 0.0
H1327 H 0.93322 0.19357 0.42354 0.0
C1328 C 0.89119 0.11338 0.45538 0.0
C1329 C 0.89068 0.11083 0.43024 0.0
C1330 C 0.90879 0.12901 0.46637 0.0
C1331 C 0.92629 0.14235 0.45248 0.0
C1332 C 0.92631 0.13935 0.42738 0.0
H1333 H 0.00443 0.26805 0.52197 0.0
H1334 H 0.00099 0.23371 0.49282 0.0
C1335 C 0.90853 0.12378 0.41631 0.0
C1336 C 0.94352 0.16012 0.46465 0.0
H1337 H 0.95283 0.22278 0.47391 0.0
C1338 C 0.9592 0.1509 0.48296 0.0
C1339 C 0.94203 0.18633 0.46064 0.0
C1340 C 0.92512 0.19738 0.44156 0.0
C1341 C 0.97208 0.16726 0.49843 0.0
C1342 C 0.96906 0.19344 0.49554 0.0
C1343 C 0.95511 0.20265 0.47601 0.0
C1344 C 0.97596 0.21137 0.51476 0.0
C1345 C 0.98784 0.15644 0.51843 0.0
C1346 C 0.9635 0.20986 0.53691 0.0
C1347 C 0.96493 0.22959 0.55333 0.0
C1348 C 0.97898 0.25131 0.548 0.0
C1349 C 0.99308 0.25185 0.52653 0.0
C1350 C 0.99133 0.23217 0.50991 0.0
H1351 H 0.99521 0.13759 0.51354 0.0
H1352 H 0.00387 0.16896 0.52289 0.0
H1353 H 0.97604 0.15426 0.53476 0.0
H1354 H 0.95107 0.19426 0.54078 0.0
H1355 H 0.95335 0.22848 0.56929 0.0
H1356 H 0.39524 0.8785 0.46681 0.0
H1357 H 0.36954 0.91053 0.4861 0.0
H1358 H 0.3521 0.94254 0.41677 0.0
H1359 H 0.37747 0.90992 0.39714 0.0
H1360 H 0.37285 0.96244 0.48587 0.0
H1361 H 0.28282 0.92981 0.44508 0.0
H1362 H 0.31117 0.91135 0.44345 0.0
H1363 H 0.30755 0.93862 0.42475 0.0
C1364 C 0.38588 0.89227 0.4556 0.0
C1365 C 0.38809 0.89151 0.43044 0.0
C1366 C 0.37133 0.91069 0.46668 0.0
C1367 C 0.35875 0.92879 0.45287 0.0
C1368 C 0.36133 0.92848 0.42773 0.0
H1369 H 0.23799 0.01049 0.52583 0.0
H1370 H 0.27177 0.00735 0.49608 0.0
C1371 C 0.3758 0.90986 0.41656 0.0
C1372 C 0.34221 0.94707 0.46523 0.0
H1373 H 0.28033 0.9594 0.47591 0.0
C1374 C 0.35264 0.96222 0.48335 0.0
C1375 C 0.31587 0.94696 0.46174 0.0
C1376 C 0.30355 0.93075 0.44283 0.0
C1377 C 0.33731 0.97576 0.49926 0.0
C1378 C 0.31095 0.97398 0.49699 0.0
C1379 C 0.3006 0.96072 0.47755 0.0
C1380 C 0.29389 0.9811 0.51685 0.0
C1381 C 0.34938 0.9908 0.51912 0.0
C1382 C 0.29555 0.96796 0.53864 0.0
C1383 C 0.2761 0.96918 0.55537 0.0
C1384 C 0.25452 0.98371 0.55073 0.0
C1385 C 0.25403 0.9987 0.52982 0.0
C1386 C 0.27341 0.99713 0.51286 0.0
H1387 H 0.36834 0.9975 0.51374 0.0
H1388 H 0.33764 0.00723 0.52415 0.0
H1389 H 0.35163 0.97868 0.53523 0.0
H1390 H 0.31091 0.95504 0.54186 0.0
H1391 H 0.27719 0.95696 0.57089 0.0
H1392 H 0.49102 0.76762 0.07383 0.0
H1393 H 0.48497 0.80505 0.04884 0.0
H1394 H 0.45713 0.75879 0.99112 0.0
H1395 H 0.46198 0.72168 0.01587 0.0
H1396 H 0.48825 0.8067 0.97833 0.0
H1397 H 0.40547 0.81713 0.03916 0.0
H1398 H 0.4361 0.81348 0.05244 0.0
H1399 H 0.42214 0.78776 0.03646 0.0
C1400 C 0.48413 0.76532 0.05564 0.0
C1401 C 0.47655 0.74157 0.04715 0.0
C1402 C 0.48094 0.78671 0.04133 0.0
C1403 C 0.47042 0.78457 0.01829 0.0
C1404 C 0.46542 0.76074 0.00883 0.0
H1405 H 0.39118 0.8643 0.90856 0.0
H1406 H 0.42026 0.83752 0.93116 0.0
C1407 C 0.46834 0.73944 0.02312 0.0
C1408 C 0.45988 0.80669 0.00591 0.0
H1409 H 0.40729 0.8431 0.0055 0.0
C1410 C 0.4708 0.81508 0.9844 0.0
C1411 C 0.43705 0.81733 0.0139 0.0
C1412 C 0.4243 0.80851 0.03668 0.0
C1413 C 0.45916 0.83376 0.97041 0.0
C1414 C 0.43568 0.84357 0.97785 0.0
C1415 C 0.42528 0.83563 0.99979 0.0
C1416 C 0.42068 0.86114 0.96293 0.0
C1417 C 0.47212 0.8427 0.94785 0.0
C1418 C 0.41086 0.88305 0.97335 0.0
C1419 C 0.39365 0.8978 0.96081 0.0
C1420 C 0.38622 0.89119 0.93742 0.0
C1421 C 0.3967 0.86982 0.92656 0.0
C1422 C 0.41356 0.85471 0.93935 0.0
H1423 H 0.49281 0.84033 0.94919 0.0
H1424 H 0.46554 0.83131 0.93236 0.0
H1425 H 0.46792 0.86276 0.94413 0.0
H1426 H 0.41598 0.88837 0.99152 0.0
H1427 H 0.38601 0.9143 0.96955 0.0
H1428 H 0.76967 0.50387 0.02276 0.0
H1429 H 0.7359 0.49967 0.99308 0.0
H1430 H 0.69668 0.44902 0.0405 0.0
H1431 H 0.73037 0.45198 0.0695 0.0
H1432 H 0.72582 0.4512 0.97398 0.0
H1433 H 0.6397 0.49257 0.01274 0.0
H1434 H 0.67088 0.50171 0.0223 0.0
H1435 H 0.65646 0.47375 0.03419 0.0
C1436 C 0.75366 0.49216 0.02707 0.0
C1437 C 0.75303 0.47812 0.04858 0.0
C1438 C 0.73429 0.48999 0.01015 0.0
C1439 C 0.71371 0.47424 0.01471 0.0
C1440 C 0.71211 0.46175 0.03684 0.0
H1441 H 0.60757 0.37456 0.96651 0.0
H1442 H 0.63498 0.40537 0.9855 0.0
C1443 C 0.73153 0.46359 0.05355 0.0
C1444 C 0.69607 0.46711 0.99531 0.0
H1445 H 0.63362 0.45757 0.98525 0.0
C1446 C 0.70564 0.45321 0.97591 0.0
C1447 C 0.66983 0.46978 0.99797 0.0
C1448 C 0.65861 0.48549 0.01782 0.0
C1449 C 0.68962 0.43983 0.96047 0.0
C1450 C 0.66336 0.44093 0.96431 0.0
C1451 C 0.65377 0.45659 0.98246 0.0
C1452 C 0.64593 0.42333 0.95217 0.0
C1453 C 0.70103 0.42302 0.94152 0.0
C1454 C 0.64286 0.42328 0.92708 0.0
C1455 C 0.62736 0.40539 0.91608 0.0
C1456 C 0.61455 0.38749 0.93008 0.0
C1457 C 0.61729 0.38798 0.9552 0.0
C1458 C 0.63284 0.4057 0.96611 0.0
H1459 H 0.72173 0.42131 0.9435 0.0
H1460 H 0.69266 0.40393 0.94238 0.0
H1461 H 0.69706 0.43091 0.92344 0.0
H1462 H 0.65248 0.437 0.91602 0.0
H1463 H 0.62533 0.40563 0.89669 0.0
H1464 H 0.0267 0.78333 0.01077 0.0
H1465 H 0.03445 0.74975 0.98258 0.0
H1466 H 0.02384 0.69515 0.03897 0.0
H1467 H 0.0137 0.72869 0.06719 0.0
H1468 H 0.0749 0.72294 0.98832 0.0
H1469 H 0.99416 0.65766 0.98341 0.0
H1470 H 0.99147 0.68883 0.99596 0.0
H1471 H 0.00374 0.66342 0.01384 0.0
C1472 C 0.02461 0.76427 0.0172 0.0
C1473 C 0.01983 0.759 0.04164 0.0
C1474 C 0.0294 0.74496 1.00091 0.0
C1475 C 0.02992 0.7199 0.0086 0.0
C1476 C 0.02327 0.71431 0.03246 0.0
H1477 H 0.11674 0.59286 0.96643 0.0
H1478 H 0.0888 0.62322 0.98577 0.0
C1479 C 0.01791 0.73365 0.04874 0.0
C1480 C 0.04147 0.70053 0.9929 0.0
H1481 H 0.03425 0.64122 0.97039 0.0
C1482 C 0.06574 0.70529 0.98404 0.0
C1483 C 0.02967 0.67738 0.98749 0.0
C1484 C 0.00322 0.67161 0.99549 0.0
C1485 C 0.07877 0.68737 0.9705 0.0
C1486 C 0.06727 0.66404 0.96567 0.0
C1487 C 0.04291 0.65925 0.97415 0.0
C1488 C 0.08124 0.644 0.95315 0.0
C1489 C 0.10514 0.69311 0.96211 0.0
C1490 C 0.08584 0.64554 0.92834 0.0
C1491 C 0.10181 0.62822 0.9172 0.0
C1492 C 0.11352 0.60931 0.93082 0.0
C1493 C 0.10817 0.60739 0.95552 0.0
C1494 C 0.09208 0.62456 0.96657 0.0
H1495 H 0.11226 0.7112 0.96937 0.0
H1496 H 0.11812 0.67785 0.96766 0.0
H1497 H 0.10546 0.69411 0.94217 0.0
H1498 H 0.07765 0.66055 0.91778 0.0
H1499 H 0.10555 0.63008 0.89813 0.0
H1500 H 0.77684 0.04935 0.06924 0.0
H1501 H 0.81065 0.05331 0.04033 0.0
H1502 H 0.77614 0.99705 0.99543 0.0
H1503 H 0.74218 0.9922 0.0249 0.0
H1504 H 0.84547 0.01896 0.01476 0.0
H1505 H 0.77313 0.06502 0.95691 0.0
H1506 H 0.76757 0.05925 0.98845 0.0
H1507 H 0.76751 0.03358 0.96756 0.0
C1508 C 0.77679 0.03691 0.05384 0.0
C1509 C 0.75649 0.02059 0.04938 0.0
C1510 C 0.79618 0.03937 0.03718 0.0
C1511 C 0.79565 0.02577 0.01563 0.0
C1512 C 0.77666 0.00792 0.0119 0.0
H1513 H 0.88025 0.09731 0.89806 0.0
H1514 H 0.85485 0.06473 0.91777 0.0
C1515 C 0.75725 0.00527 0.02871 0.0
C1516 C 0.81301 0.03324 0.99614 0.0
H1517 H 0.81521 0.07196 0.94728 0.0
C1518 C 0.8389 0.03 0.9996 0.0
C1519 C 0.80432 0.04753 0.97634 0.0
C1520 C 0.77665 0.05174 0.97196 0.0
C1521 C 0.8564 0.04202 0.98463 0.0
C1522 C 0.84768 0.05816 0.96619 0.0
C1523 C 0.82183 0.05971 0.96153 0.0
C1524 C 0.86455 0.07623 0.95395 0.0
C1525 C 0.88404 0.03805 0.98929 0.0
C1526 C 0.87802 0.09372 0.96774 0.0
C1527 C 0.89236 0.11228 0.9566 0.0
C1528 C 0.89332 0.11395 0.9314 0.0
C1529 C 0.8798 0.09649 0.91752 0.0
C1530 C 0.86542 0.07782 0.92873 0.0
H1531 H 0.88757 0.01907 0.99689 0.0
H1532 H 0.89529 0.04027 0.9726 0.0
H1533 H 0.89063 0.05203 0.00268 0.0
H1534 H 0.87699 0.0934 0.9872 0.0
H1535 H 0.90251 0.12547 0.96781 0.0
H1536 H 0.46733 0.78325 0.49209 0.0
H1537 H 0.46037 0.74955 0.52029 0.0
H1538 H 0.47272 0.69515 0.46408 0.0
H1539 H 0.48218 0.72888 0.43586 0.0
H1540 H 0.42045 0.72212 0.51391 0.0
H1541 H 0.50213 0.65816 0.52015 0.0
H1542 H 0.50453 0.68937 0.50761 0.0
H1543 H 0.49295 0.66376 0.48958 0.0
C1544 C 0.47 0.76426 0.4857 0.0
C1545 C 0.47499 0.75908 0.46127 0.0
C1546 C 0.46567 0.74486 0.502 0.0
C1547 C 0.46578 0.7198 0.49434 0.0
C1548 C 0.47277 0.71433 0.47055 0.0
H1549 H 0.37879 0.5925 0.53578 0.0
H1550 H 0.40685 0.62284 0.5165 0.0
C1551 C 0.47771 0.73377 0.45426 0.0
C1552 C 0.45432 0.70025 0.5099 0.0
H1553 H 0.4621 0.64112 0.53266 0.0
C1554 C 0.42982 0.70463 0.51836 0.0
C1555 C 0.46639 0.67731 0.51553 0.0
C1556 C 0.49305 0.67196 0.50793 0.0
C1557 C 0.41686 0.68654 0.53175 0.0
C1558 C 0.42865 0.66342 0.5368 0.0
C1559 C 0.45322 0.65899 0.52872 0.0
C1560 C 0.41478 0.64326 0.54924 0.0
C1561 C 0.3903 0.69189 0.5398 0.0
C1562 C 0.41034 0.64463 0.57408 0.0
C1563 C 0.39429 0.62736 0.58517 0.0
C1564 C 0.38232 0.60867 0.57147 0.0
C1565 C 0.38753 0.60689 0.54673 0.0
C1566 C 0.4037 0.62403 0.53572 0.0
H1567 H 0.38311 0.71001 0.53265 0.0
H1568 H 0.37758 0.67656 0.53383 0.0
H1569 H 0.38961 0.69258 0.55974 0.0
H1570 H 0.4187 0.65951 0.5847 0.0
H1571 H 0.39068 0.62909 0.60427 0.0
H1572 H 0.73269 0.50276 0.48172 0.0
H1573 H 0.76679 0.49905 0.51111 0.0
H1574 H 0.80631 0.44905 0.4633 0.0
H1575 H 0.77233 0.45162 0.43455 0.0
H1576 H 0.77744 0.45116 0.53024 0.0
H1577 H 0.8631 0.49262 0.49071 0.0
H1578 H 0.83185 0.5014 0.4811 0.0
H1579 H 0.84651 0.47346 0.46943 0.0
C1580 C 0.74886 0.49134 0.47725 0.0
C1581 C 0.74949 0.47733 0.45573 0.0
C1582 C 0.76841 0.48943 0.494 0.0
C1583 C 0.78916 0.47397 0.48927 0.0
C1584 C 0.79075 0.46157 0.46709 0.0
H1585 H 0.89533 0.3743 0.53703 0.0
H1586 H 0.86779 0.40508 0.51816 0.0
C1587 C 0.77117 0.46316 0.45054 0.0
C1588 C 0.80698 0.46698 0.50857 0.0
H1589 H 0.86952 0.45752 0.51815 0.0
C1590 C 0.7976 0.45318 0.52813 0.0
C1591 C 0.8332 0.46967 0.50568 0.0
C1592 C 0.84425 0.48533 0.4857 0.0
C1593 C 0.81376 0.43992 0.54351 0.0
C1594 C 0.83998 0.44099 0.53943 0.0
C1595 C 0.8494 0.45656 0.52112 0.0
C1596 C 0.8575 0.42343 0.55148 0.0
C1597 C 0.80255 0.42322 0.56267 0.0
C1598 C 0.86097 0.42361 0.57652 0.0
C1599 C 0.87657 0.40576 0.58745 0.0
C1600 C 0.88906 0.38766 0.57343 0.0
C1601 C 0.88589 0.38791 0.54835 0.0
C1602 C 0.87026 0.40559 0.53751 0.0
H1603 H 0.78181 0.4216 0.56098 0.0
H1604 H 0.8108 0.40409 0.56175 0.0
H1605 H 0.80684 0.43114 0.58067 0.0
H1606 H 0.85158 0.43747 0.58758 0.0
H1607 H 0.87889 0.40617 0.6068 0.0
H1608 H 0.03735 0.71968 0.48864 0.0
H1609 H 0.04499 0.75564 0.51432 0.0
H1610 H 0.02388 0.80554 0.45677 0.0
H1611 H 0.01468 0.76945 0.43096 0.0
H1612 H 0.07778 0.80481 0.47569 0.0
H1613 H 0.00502 0.81709 0.54656 0.0
H1614 H 0.01409 0.78544 0.53906 0.0
H1615 H 0.99793 0.80422 0.5172 0.0
C1616 C 0.03297 0.73811 0.4816 0.0
C1617 C 0.02565 0.74149 0.45743 0.0
C1618 C 0.0375 0.75875 0.49643 0.0
C1619 C 0.03499 0.78316 0.48742 0.0
C1620 C 0.0258 0.78675 0.46403 0.0
H1621 H 0.12069 0.91289 0.53582 0.0
H1622 H 0.09235 0.88542 0.51352 0.0
C1623 C 0.02083 0.76608 0.44925 0.0
C1624 C 0.04685 0.80411 0.50057 0.0
H1625 H 0.04368 0.83871 0.55214 0.0
C1626 C 0.07018 0.81259 0.49221 0.0
C1627 C 0.03707 0.81359 0.52234 0.0
C1628 C 0.01207 0.8048 0.53189 0.0
C1629 C 0.08449 0.8298 0.50543 0.0
C1630 C 0.0747 0.83956 0.52722 0.0
C1631 C 0.05109 0.83134 0.5354 0.0
C1632 C 0.08915 0.85775 0.54191 0.0
C1633 C 0.11049 0.83631 0.49647 0.0
C1634 C 0.09557 0.8521 0.56584 0.0
C1635 C 0.11129 0.86819 0.5789 0.0
C1636 C 0.12103 0.88993 0.56805 0.0
C1637 C 0.1138 0.896 0.54446 0.0
C1638 C 0.09768 0.88028 0.53166 0.0
H1639 H 0.11782 0.82183 0.48389 0.0
H1640 H 0.10976 0.85439 0.48657 0.0
H1641 H 0.12397 0.83826 0.5116 0.0
H1642 H 0.08906 0.83488 0.57415 0.0
H1643 H 0.11649 0.8632 0.59713 0.0
H1644 H 0.63572 0.11674 0.59646 0.0
H1645 H 0.66354 0.08855 0.57378 0.0
H1646 H 0.61303 0.09201 0.51313 0.0
H1647 H 0.58612 0.12113 0.5351 0.0
H1648 H 0.65886 0.04306 0.55257 0.0
H1649 H 0.67694 0.11551 0.48292 0.0
H1650 H 0.66062 0.12249 0.5105 0.0
H1651 H 0.64424 0.10803 0.48574 0.0
C1652 C 0.63066 0.11145 0.57827 0.0
C1653 C 0.6091 0.12143 0.56733 0.0
C1654 C 0.64645 0.09529 0.56539 0.0
C1655 C 0.64065 0.08866 0.54155 0.0
C1656 C 0.6183 0.09749 0.5312 0.0
H1657 H 0.72914 0.01185 0.43217 0.0
H1658 H 0.6927 0.02102 0.45752 0.0
C1659 C 0.6029 0.11407 0.54381 0.0
C1660 C 0.65852 0.07358 0.52706 0.0
H1661 H 0.69336 0.0751 0.47553 0.0
C1662 C 0.66635 0.05001 0.53568 0.0
C1663 C 0.66842 0.08276 0.50509 0.0
C1664 C 0.66234 0.10868 0.49563 0.0
C1665 C 0.68393 0.03549 0.52293 0.0
C1666 C 0.6936 0.0447 0.50101 0.0
C1667 C 0.68542 0.06794 0.49216 0.0
C1668 C 0.71466 0.03251 0.48832 0.0
C1669 C 0.69238 0.01061 0.533 0.0
C1670 C 0.73895 0.03519 0.49759 0.0
C1671 C 0.75978 0.03073 0.48301 0.0
C1672 C 0.75673 0.0233 0.45883 0.0
C1673 C 0.73228 0.01815 0.45045 0.0
C1674 C 0.71139 0.02308 0.46498 0.0
H1675 H 0.67981 0.00391 0.54761 0.0
H1676 H 0.69308 0.9962 0.51855 0.0
H1677 H 0.71164 0.01263 0.54041 0.0
H1678 H 0.7418 0.04286 0.51545 0.0
H1679 H 0.77808 0.03534 0.49024 0.0
H1680 H 0.74543 0.36115 0.12065 0.0
H1681 H 0.72931 0.31969 0.13186 0.0
H1682 H 0.80531 0.2917 0.1361 0.0
H1683 H 0.82129 0.33364 0.12606 0.0
H1684 H 0.73421 0.28147 0.10411 0.0
H1685 H 0.77578 0.25482 0.19153 0.0
H1686 H 0.77636 0.28673 0.18054 0.0
H1687 H 0.79955 0.26435 0.17061 0.0
C1688 C 0.7586 0.34627 0.12483 0.0
C1689 C 0.78452 0.35043 0.12263 0.0
C1690 C 0.74944 0.3226 0.13116 0.0
C1691 C 0.76603 0.30247 0.13499 0.0
C1692 C 0.79207 0.30697 0.13391 0.0
H1693 H 0.75872 0.14583 0.10916 0.0
H1694 H 0.77031 0.18868 0.12063 0.0
C1695 C 0.80124 0.33088 0.12807 0.0
C1696 C 0.75605 0.27637 0.13642 0.0
H1697 H 0.76113 0.22052 0.16648 0.0
C1698 C 0.73971 0.26836 0.1181 0.0
C1699 C 0.76328 0.2591 0.15455 0.0
C1700 C 0.7795 0.26678 0.17554 0.0
C1701 C 0.7312 0.24348 0.11685 0.0
C1702 C 0.73918 0.22604 0.1344 0.0
C1703 C 0.75503 0.23402 0.15308 0.0
C1704 C 0.73291 0.19907 0.13206 0.0
C1705 C 0.71455 0.2357 0.09615 0.0
C1706 C 0.7082 0.19051 0.13547 0.0
C1707 C 0.70154 0.16598 0.12893 0.0
C1708 C 0.71946 0.14981 0.11868 0.0
C1709 C 0.74449 0.15802 0.11671 0.0
C1710 C 0.75117 0.1824 0.12342 0.0
H1711 H 0.7124 0.25085 0.08255 0.0
H1712 H 0.72233 0.21879 0.08714 0.0
H1713 H 0.69563 0.23079 0.1031 0.0
H1714 H 0.69386 0.20317 0.14211 0.0
H1715 H 0.68211 0.1602 0.13052 0.0
H1716 H 0.16258 0.82221 0.12133 0.0
H1717 H 0.20378 0.80414 0.13149 0.0
H1718 H 0.17488 0.72991 0.11706 0.0
H1719 H 0.13429 0.74816 0.10575 0.0
H1720 H 0.22379 0.76988 0.16228 0.0
H1721 H 0.23042 0.73439 0.06863 0.0
H1722 H 0.20571 0.75521 0.07823 0.0
H1723 H 0.20381 0.72206 0.08448 0.0
C1724 C 0.16504 0.80202 0.12082 0.0
C1725 C 0.14557 0.7865 0.11253 0.0
C1726 C 0.18851 0.7917 0.12657 0.0
C1727 C 0.19264 0.76571 0.12436 0.0
C1728 C 0.17241 0.75006 0.11814 0.0
H1729 H 0.33056 0.67651 0.12931 0.0
H1730 H 0.2874 0.69033 0.13806 0.0
C1731 C 0.14922 0.76042 0.11187 0.0
C1732 C 0.21843 0.75524 0.12649 0.0
H1733 H 0.26302 0.7227 0.09509 0.0
C1734 C 0.23233 0.75949 0.14763 0.0
C1735 C 0.22974 0.74193 0.10722 0.0
C1736 C 0.21677 0.73834 0.08328 0.0
C1737 C 0.25715 0.75071 0.14996 0.0
C1738 C 0.26814 0.73721 0.13082 0.0
C1739 C 0.25425 0.7327 0.10988 0.0
C1740 C 0.29484 0.72957 0.1309 0.0
C1741 C 0.2717 0.75605 0.17264 0.0
C1742 C 0.31325 0.74715 0.12447 0.0
C1743 C 0.33765 0.73927 0.11919 0.0
C1744 C 0.34409 0.71371 0.12045 0.0
C1745 C 0.32609 0.69633 0.1285 0.0
C1746 C 0.3015 0.70418 0.13343 0.0
H1747 H 0.25965 0.76422 0.18697 0.0
H1748 H 0.28046 0.73851 0.17948 0.0
H1749 H 0.28709 0.76948 0.16857 0.0
H1750 H 0.30836 0.76676 0.12214 0.0
H1751 H 0.35126 0.75296 0.11305 0.0
H1752 H 0.7581 0.36133 0.38202 0.0
H1753 H 0.77482 0.32035 0.37005 0.0
H1754 H 0.69927 0.2911 0.36602 0.0
H1755 H 0.68267 0.33257 0.37684 0.0
H1756 H 0.77065 0.28177 0.39751 0.0
H1757 H 0.72911 0.25534 0.31003 0.0
H1758 H 0.7281 0.28713 0.3213 0.0
H1759 H 0.70528 0.26429 0.33113 0.0
C1760 C 0.74515 0.3463 0.37771 0.0
C1761 C 0.71918 0.34994 0.38022 0.0
C1762 C 0.75464 0.32291 0.37094 0.0
C1763 C 0.73836 0.30254 0.36697 0.0
C1764 C 0.71226 0.30656 0.36831 0.0
H1765 H 0.7493 0.14694 0.39498 0.0
H1766 H 0.73646 0.18933 0.38308 0.0
C1767 C 0.70274 0.3302 0.3746 0.0
C1768 C 0.74876 0.27665 0.36524 0.0
H1769 H 0.74432 0.22099 0.33477 0.0
C1770 C 0.76529 0.26872 0.38344 0.0
C1771 C 0.74171 0.25945 0.34699 0.0
C1772 C 0.72528 0.26709 0.32614 0.0
C1773 C 0.77416 0.24398 0.38444 0.0
C1774 C 0.76631 0.22658 0.36681 0.0
C1775 C 0.7503 0.23447 0.34823 0.0
C1776 C 0.7729 0.1997 0.36906 0.0
C1777 C 0.79107 0.23623 0.40496 0.0
C1778 C 0.79741 0.19131 0.36434 0.0
C1779 C 0.80477 0.16704 0.37108 0.0
C1780 C 0.78775 0.15104 0.38288 0.0
C1781 C 0.76281 0.15903 0.38616 0.0
C1782 C 0.75543 0.18312 0.37922 0.0
H1783 H 0.79385 0.25157 0.41824 0.0
H1784 H 0.78304 0.21968 0.41439 0.0
H1785 H 0.80971 0.23069 0.39776 0.0
H1786 H 0.81116 0.20396 0.3566 0.0
H1787 H 0.82412 0.1614 0.36851 0.0
H1788 H 0.36078 0.74492 0.39236 0.0
H1789 H 0.32057 0.72629 0.3806 0.0
H1790 H 0.29208 0.80008 0.36348 0.0
H1791 H 0.33285 0.81846 0.37428 0.0
H1792 H 0.2802 0.73543 0.40512 0.0
H1793 H 0.26009 0.76045 0.31048 0.0
H1794 H 0.2911 0.76331 0.32339 0.0
H1795 H 0.26799 0.78752 0.32812 0.0
C1796 C 0.34613 0.75696 0.38529 0.0
C1797 C 0.34974 0.78303 0.38417 0.0
C1798 C 0.32319 0.74637 0.37861 0.0
C1799 C 0.30322 0.76171 0.37103 0.0
C1800 C 0.30729 0.78772 0.36867 0.0
H1801 H 0.14769 0.74729 0.39922 0.0
H1802 H 0.18998 0.76132 0.38831 0.0
C1803 C 0.33052 0.79827 0.37493 0.0
C1804 C 0.27745 0.751 0.36939 0.0
H1805 H 0.22428 0.7486 0.33484 0.0
C1806 C 0.26823 0.73792 0.38951 0.0
C1807 C 0.26167 0.7543 0.3491 0.0
C1808 C 0.27082 0.76694 0.32647 0.0
C1809 C 0.24357 0.7288 0.39022 0.0
C1810 C 0.22753 0.73302 0.37042 0.0
C1811 C 0.23672 0.74548 0.35 0.0
C1812 C 0.20069 0.72611 0.37192 0.0
C1813 C 0.23444 0.71536 0.41249 0.0
C1814 C 0.19256 0.70191 0.3656 0.0
C1815 C 0.16834 0.69384 0.37182 0.0
C1816 C 0.15217 0.70982 0.38469 0.0
C1817 C 0.15991 0.73455 0.38956 0.0
C1818 C 0.18394 0.74263 0.38319 0.0
H1819 H 0.24976 0.71209 0.4257 0.0
H1820 H 0.21953 0.72669 0.42129 0.0
H1821 H 0.22608 0.69698 0.40751 0.0
H1822 H 0.2054 0.68885 0.3571 0.0
H1823 H 0.16288 0.67466 0.36801 0.0
H1824 H 0.31721 0.83462 0.88257 0.0
H1825 H 0.3008 0.79287 0.87245 0.0
H1826 H 0.22531 0.81919 0.88552 0.0
H1827 H 0.24194 0.86045 0.89667 0.0
H1828 H 0.23348 0.77915 0.91026 0.0
H1829 H 0.266 0.75951 0.81771 0.0
H1830 H 0.29164 0.76792 0.837 0.0
H1831 H 0.26735 0.79056 0.83068 0.0
C1832 C 0.29709 0.83155 0.88259 0.0
C1833 C 0.28078 0.85059 0.89041 0.0
C1834 C 0.28767 0.80775 0.87669 0.0
C1835 C 0.26172 0.80283 0.87795 0.0
C1836 C 0.24537 0.82243 0.8844 0.0
H1837 H 0.17735 0.66091 0.87641 0.0
H1838 H 0.18935 0.7045 0.86732 0.0
C1839 C 0.25483 0.84598 0.89074 0.0
C1840 C 0.25188 0.77673 0.87577 0.0
H1841 H 0.25354 0.72345 0.84136 0.0
C1842 C 0.2375 0.7672 0.89493 0.0
C1843 C 0.25716 0.76097 0.85585 0.0
C1844 C 0.27116 0.77036 0.83405 0.0
C1845 C 0.22897 0.74229 0.89509 0.0
C1846 C 0.23501 0.72635 0.87564 0.0
C1847 C 0.24895 0.73582 0.85623 0.0
C1848 C 0.22851 0.69934 0.87646 0.0
C1849 C 0.21429 0.73282 0.91649 0.0
C1850 C 0.24672 0.68199 0.88387 0.0
C1851 C 0.23989 0.65728 0.88919 0.0
C1852 C 0.21477 0.64943 0.88704 0.0
C1853 C 0.19686 0.66641 0.87804 0.0
C1854 C 0.20367 0.69127 0.87292 0.0
H1855 H 0.21276 0.74711 0.93098 0.0
H1856 H 0.19505 0.72752 0.91069 0.0
H1857 H 0.22337 0.71574 0.92398 0.0
H1858 H 0.26596 0.68791 0.88677 0.0
H1859 H 0.25408 0.64449 0.89588 0.0
H1860 H 0.8544 0.25484 0.89169 0.0
H1861 H 0.81154 0.26633 0.88009 0.0
H1862 H 0.79705 0.18973 0.85916 0.0
H1863 H 0.84008 0.17811 0.87078 0.0
H1864 H 0.77887 0.25559 0.83386 0.0
H1865 H 0.75058 0.20994 0.92006 0.0
H1866 H 0.78239 0.22035 0.91481 0.0
H1867 H 0.77074 0.19295 0.89976 0.0
C1868 C 0.84222 0.24058 0.88414 0.0
C1869 C 0.85042 0.21555 0.88237 0.0
C1870 C 0.81785 0.24719 0.87738 0.0
C1871 C 0.80118 0.22885 0.86889 0.0
C1872 C 0.80974 0.20414 0.86562 0.0
H1873 H 0.63969 0.24338 0.88483 0.0
H1874 H 0.68044 0.22621 0.87267 0.0
C1875 C 0.83428 0.19754 0.87219 0.0
C1876 C 0.77416 0.23502 0.86688 0.0
H1877 H 0.71967 0.23169 0.89886 0.0
C1878 C 0.76573 0.25012 0.84783 0.0
C1879 C 0.7572 0.22785 0.88517 0.0
C1880 C 0.76552 0.21196 0.90623 0.0
C1881 C 0.74066 0.25847 0.84674 0.0
C1882 C 0.72391 0.25216 0.86562 0.0
C1883 C 0.73236 0.23649 0.8843 0.0
C1884 C 0.69801 0.26253 0.8675 0.0
C1885 C 0.73244 0.27387 0.82537 0.0
C1886 C 0.69389 0.28865 0.86774 0.0
C1887 C 0.67037 0.29839 0.87412 0.0
C1888 C 0.65085 0.28218 0.88094 0.0
C1889 C 0.65455 0.25614 0.87956 0.0
C1890 C 0.67782 0.2464 0.87269 0.0
H1891 H 0.74379 0.26928 0.80918 0.0
H1892 H 0.71229 0.27078 0.82113 0.0
H1893 H 0.7353 0.29408 0.8294 0.0
H1894 H 0.70923 0.30157 0.8645 0.0
H1895 H 0.66796 0.31854 0.87549 0.0
H1896 H 0.3168 0.66135 0.62362 0.0
H1897 H 0.30216 0.7038 0.63345 0.0
H1898 H 0.22531 0.67911 0.62582 0.0
H1899 H 0.2401 0.63707 0.61499 0.0
H1900 H 0.23348 0.71775 0.59867 0.0
H1901 H 0.27138 0.74047 0.68868 0.0
H1902 H 0.29563 0.73026 0.66856 0.0
H1903 H 0.27097 0.70882 0.67702 0.0
C1904 C 0.29681 0.66492 0.6248 0.0
C1905 C 0.27952 0.64612 0.61854 0.0
C1906 C 0.28841 0.68913 0.63052 0.0
C1907 C 0.26257 0.6947 0.63062 0.0
C1908 C 0.24531 0.67535 0.62588 0.0
H1909 H 0.18231 0.83855 0.62833 0.0
H1910 H 0.19329 0.79503 0.63845 0.0
C1911 C 0.25372 0.65136 0.61972 0.0
C1912 C 0.25363 0.72113 0.63217 0.0
H1913 H 0.2587 0.77578 0.66416 0.0
C1914 C 0.23863 0.73024 0.61327 0.0
C1915 C 0.26043 0.73758 0.65112 0.0
C1916 C 0.27528 0.7287 0.6726 0.0
C1917 C 0.23095 0.75539 0.61238 0.0
C1918 C 0.23841 0.77196 0.63088 0.0
C1919 C 0.253 0.76293 0.65004 0.0
C1920 C 0.23258 0.79908 0.62933 0.0
C1921 C 0.21564 0.76436 0.59119 0.0
C1922 C 0.25123 0.81583 0.62164 0.0
C1923 C 0.245 0.84056 0.61576 0.0
C1924 C 0.22005 0.84901 0.61762 0.0
C1925 C 0.20171 0.83263 0.62687 0.0
C1926 C 0.20792 0.80778 0.63258 0.0
H1927 H 0.21374 0.74974 0.57704 0.0
H1928 H 0.19654 0.76966 0.5974 0.0
H1929 H 0.2244 0.78131 0.5831 0.0
H1930 H 0.27034 0.80941 0.61898 0.0
H1931 H 0.25954 0.85289 0.60896 0.0
H1932 H 0.83681 0.32562 0.62944 0.0
H1933 H 0.79338 0.31418 0.63975 0.0
H1934 H 0.81048 0.23623 0.62647 0.0
H1935 H 0.85369 0.24764 0.61605 0.0
H1936 H 0.76432 0.28806 0.60248 0.0
H1937 H 0.76579 0.23569 0.68889 0.0
H1938 H 0.78975 0.25822 0.6807 0.0
H1939 H 0.78986 0.2274 0.6676 0.0
C1940 C 0.83146 0.306 0.62953 0.0
C1941 C 0.84848 0.28749 0.62188 0.0
C1942 C 0.80669 0.29949 0.63534 0.0
C1943 C 0.79881 0.27433 0.63408 0.0
C1944 C 0.81627 0.25569 0.62795 0.0
H1945 H 0.66383 0.18722 0.62095 0.0
H1946 H 0.70596 0.20308 0.63085 0.0
C1947 C 0.84086 0.26222 0.62183 0.0
C1948 C 0.77176 0.26791 0.63523 0.0
H1949 H 0.72875 0.23181 0.665 0.0
C1950 C 0.75637 0.27613 0.61637 0.0
C1951 C 0.7617 0.25195 0.65312 0.0
C1952 C 0.77753 0.24289 0.67387 0.0
C1953 C 0.73139 0.26806 0.61431 0.0
C1954 C 0.72118 0.25202 0.6322 0.0
C1955 C 0.73649 0.24421 0.6514 0.0
C1956 C 0.69507 0.24228 0.63038 0.0
C1957 C 0.71669 0.27575 0.59225 0.0
C1958 C 0.67474 0.25891 0.62802 0.0
C1959 C 0.65095 0.24989 0.62192 0.0
C1960 C 0.64686 0.22405 0.61886 0.0
C1961 C 0.6666 0.20722 0.62335 0.0
C1962 C 0.69061 0.21629 0.62895 0.0
H1963 H 0.72923 0.28198 0.57742 0.0
H1964 H 0.70489 0.26005 0.58553 0.0
H1965 H 0.70421 0.29173 0.59687 0.0
H1966 H 0.67754 0.27898 0.62979 0.0
H1967 H 0.63586 0.26313 0.61876 0.0
loop_
_geom_bond_atom_site_label_1
_geom_bond_atom_site_label_2
_geom_bond_distance
_geom_bond_site_symmetry_2
_ccdc_geom_bond_type
Co0 N4 2.148 . S
Co0 N10 2.128 . S
Co0 N20 2.194 . S
Co0 O25 2.351 . S
Co0 O26 2.155 . S
Co0 O27 2.096 . S
C1 N4 1.301 . S
C1 N5 1.328 . S
C1 H6 0.930 . S
C2 C3 1.333 . S
C2 N4 1.317 . S
C2 H7 0.930 . S
C3 C2 1.333 . S
C3 N5 1.350 . S
C3 H29 0.931 . S
N4 Co0 2.148 . S
N4 C1 1.301 . S
N4 C2 1.317 . S
N5 C1 1.328 . S
N5 C3 1.350 . S
H6 C1 0.930 . S
H7 C2 0.930 . S
C8 O9 1.224 . S
C8 O27 1.247 . S
O9 C8 1.224 . S
N10 Co0 2.128 . S
N10 C11 1.355 . S
N10 C13 1.311 . S
C11 N10 1.355 . S
C11 C12 1.363 . S
C11 H23 0.929 . S
C12 C11 1.363 . S
C12 N14 1.375 . S
C12 H30 0.931 . S
C13 N10 1.311 . S
C13 N14 1.347 . S
C13 H24 0.929 . S
N14 C12 1.375 . S
N14 C13 1.347 . S
C15 C18 1.365 . S
C15 N20 1.328 . S
C15 H21 0.929 . S
C16 C17 1.362 . S
C16 C19 1.378 . S
C16 H31 0.929 . S
C17 C16 1.362 . S
C17 C18 1.366 . S
C18 C15 1.365 . S
C18 C17 1.366 . S
C18 H32 0.930 . S
C19 C16 1.378 . S
C19 N20 1.315 . S
C19 H22 0.930 . S
N20 Co0 2.194 . S
N20 C15 1.328 . S
N20 C19 1.315 . S
H21 C15 0.929 . S
H22 C19 0.930 . S
H23 C11 0.929 . S
H24 C13 0.929 . S
O25 Co0 2.351 . S
O25 C28 1.244 . S
O26 Co0 2.155 . S
O26 C28 1.240 . S
O27 Co0 2.096 . S
O27 C8 1.247 . S
C28 O25 1.244 . S
C28 O26 1.240 . S
H29 C3 0.931 . S
H30 C12 0.931 . S
H31 C16 0.929 . S
H32 C18 0.930 . S
Co33 N37 2.148 . S
Co33 N43 2.128 . S
Co33 N53 2.194 . S
Co33 O58 2.351 . S
Co33 O59 2.155 . S
Co33 O60 2.096 . S
C34 N37 1.301 . S
C34 N38 1.328 . S
C34 H39 0.930 . S
C35 C36 1.333 . S
C35 N37 1.317 . S
C35 H40 0.930 . S
C36 C35 1.333 . S
C36 N38 1.350 . S
C36 H62 0.931 . S
N37 Co33 2.148 . S
N37 C34 1.301 . S
N37 C35 1.317 . S
N38 C34 1.328 . S
N38 C36 1.350 . S
H39 C34 0.930 . S
H40 C35 0.930 . S
C41 O42 1.224 . S
C41 O60 1.247 . S
O42 C41 1.224 . S
N43 Co33 2.128 . S
N43 C44 1.355 . S
N43 C46 1.311 . S
C44 N43 1.355 . S
C44 C45 1.363 . S
C44 H56 0.929 . S
C45 C44 1.363 . S
C45 N47 1.375 . S
C45 H63 0.931 . S
C46 N43 1.311 . S
C46 N47 1.347 . S
C46 H57 0.929 . S
N47 C45 1.375 . S
N47 C46 1.347 . S
C48 C51 1.365 . S
C48 N53 1.328 . S
C48 H54 0.929 . S
C49 C50 1.362 . S
C49 C52 1.378 . S
C49 H64 0.929 . S
C50 C49 1.362 . S
C50 C51 1.366 . S
C51 C48 1.365 . S
C51 C50 1.366 . S
C51 H65 0.930 . S
C52 C49 1.378 . S
C52 N53 1.315 . S
C52 H55 0.930 . S
N53 Co33 2.194 . S
N53 C48 1.328 . S
N53 C52 1.315 . S
H54 C48 0.929 . S
H55 C52 0.930 . S
H56 C44 0.929 . S
H57 C46 0.929 . S
O58 Co33 2.351 . S
O58 C61 1.244 . S
O59 Co33 2.155 . S
O59 C61 1.240 . S
O60 Co33 2.096 . S
O60 C41 1.247 . S
C61 O58 1.244 . S
C61 O59 1.240 . S
H62 C36 0.931 . S
H63 C45 0.931 . S
H64 C49 0.929 . S
H65 C51 0.930 . S
Co66 N70 2.148 . S
Co66 N76 2.128 . S
Co66 N86 2.194 . S
Co66 O91 2.351 . S
Co66 O92 2.155 . S
Co66 O93 2.096 . S
C67 N70 1.301 . S
C67 N71 1.328 . S
C67 H72 0.930 . S
C68 C69 1.333 . S
C68 N70 1.317 . S
C68 H73 0.930 . S
C69 C68 1.333 . S
C69 N71 1.350 . S
C69 H95 0.931 . S
N70 Co66 2.148 . S
N70 C67 1.301 . S
N70 C68 1.317 . S
N71 C67 1.328 . S
N71 C69 1.350 . S
H72 C67 0.930 . S
H73 C68 0.930 . S
C74 O75 1.224 . S
C74 O93 1.247 . S
O75 C74 1.224 . S
N76 Co66 2.128 . S
N76 C77 1.355 . S
N76 C79 1.311 . S
C77 N76 1.355 . S
C77 C78 1.363 . S
C77 H89 0.929 . S
C78 C77 1.363 . S
C78 N80 1.375 . S
C78 H96 0.931 . S
C79 N76 1.311 . S
C79 N80 1.347 . S
C79 H90 0.929 . S
N80 C78 1.375 . S
N80 C79 1.347 . S
C81 C84 1.365 . S
C81 N86 1.328 . S
C81 H87 0.929 . S
C82 C83 1.362 . S
C82 C85 1.378 . S
C82 H97 0.929 . S
C83 C82 1.362 . S
C83 C84 1.366 . S
C84 C81 1.365 . S
C84 C83 1.366 . S
C84 H98 0.930 . S
C85 C82 1.378 . S
C85 N86 1.315 . S
C85 H88 0.930 . S
N86 Co66 2.194 . S
N86 C81 1.328 . S
N86 C85 1.315 . S
H87 C81 0.929 . S
H88 C85 0.930 . S
H89 C77 0.929 . S
H90 C79 0.929 . S
O91 Co66 2.351 . S
O91 C94 1.244 . S
O92 Co66 2.155 . S
O92 C94 1.240 . S
O93 Co66 2.096 . S
O93 C74 1.247 . S
C94 O91 1.244 . S
C94 O92 1.240 . S
H95 C69 0.931 . S
H96 C78 0.931 . S
H97 C82 0.929 . S
H98 C84 0.930 . S
Co99 N103 2.148 . S
Co99 N109 2.128 . S
Co99 N119 2.194 . S
Co99 O124 2.351 . S
Co99 O125 2.155 . S
Co99 O126 2.096 . S
C100 N103 1.301 . S
C100 N104 1.328 . S
C100 H105 0.930 . S
C101 C102 1.333 . S
C101 N103 1.317 . S
C101 H106 0.930 . S
C102 C101 1.333 . S
C102 N104 1.350 . S
C102 H128 0.931 . S
N103 Co99 2.148 . S
N103 C100 1.301 . S
N103 C101 1.317 . S
N104 C100 1.328 . S
N104 C102 1.350 . S
H105 C100 0.930 . S
H106 C101 0.930 . S
C107 O108 1.224 . S
C107 O126 1.247 . S
O108 C107 1.224 . S
N109 Co99 2.128 . S
N109 C110 1.355 . S
N109 C112 1.311 . S
C110 N109 1.355 . S
C110 C111 1.363 . S
C110 H122 0.929 . S
C111 C110 1.363 . S
C111 N113 1.375 . S
C111 H129 0.931 . S
C112 N109 1.311 . S
C112 N113 1.347 . S
C112 H123 0.929 . S
N113 C111 1.375 . S
N113 C112 1.347 . S
C114 C117 1.365 . S
C114 N119 1.328 . S
C114 H120 0.929 . S
C115 C116 1.362 . S
C115 C118 1.378 . S
C115 H130 0.929 . S
C116 C115 1.362 . S
C116 C117 1.366 . S
C117 C114 1.365 . S
C117 C116 1.366 . S
C117 H131 0.930 . S
C118 C115 1.378 . S
C118 N119 1.315 . S
C118 H121 0.930 . S
N119 Co99 2.194 . S
N119 C114 1.328 . S
N119 C118 1.315 . S
H120 C114 0.929 . S
H121 C118 0.930 . S
H122 C110 0.929 . S
H123 C112 0.929 . S
O124 Co99 2.351 . S
O124 C127 1.244 . S
O125 Co99 2.155 . S
O125 C127 1.240 . S
O126 Co99 2.096 . S
O126 C107 1.247 . S
C127 O124 1.244 . S
C127 O125 1.240 . S
H128 C102 0.931 . S
H129 C111 0.931 . S
H130 C115 0.929 . S
H131 C117 0.930 . S
Co132 N136 2.148 . S
Co132 N142 2.128 . S
Co132 N152 2.194 . S
Co132 O157 2.351 . S
Co132 O158 2.155 . S
Co132 O159 2.096 . S
C133 N136 1.301 . S
C133 N137 1.328 . S
C133 H138 0.930 . S
C134 C135 1.333 . S
C134 N136 1.317 . S
C134 H139 0.930 . S
C135 C134 1.333 . S
C135 N137 1.350 . S
C135 H161 0.931 . S
N136 Co132 2.148 . S
N136 C133 1.301 . S
N136 C134 1.317 . S
N137 C133 1.328 . S
N137 C135 1.350 . S
H138 C133 0.930 . S
H139 C134 0.930 . S
C140 O141 1.224 . S
C140 O159 1.247 . S
O141 C140 1.224 . S
N142 Co132 2.128 . S
N142 C143 1.355 . S
N142 C145 1.311 . S
C143 N142 1.355 . S
C143 C144 1.363 . S
C143 H155 0.929 . S
C144 C143 1.363 . S
C144 N146 1.375 . S
C144 H162 0.931 . S
C145 N142 1.311 . S
C145 N146 1.347 . S
C145 H156 0.929 . S
N146 C144 1.375 . S
N146 C145 1.347 . S
C147 C150 1.365 . S
C147 N152 1.328 . S
C147 H153 0.929 . S
C148 C149 1.362 . S
C148 C151 1.378 . S
C148 H163 0.929 . S
C149 C148 1.362 . S
C149 C150 1.366 . S
C150 C147 1.365 . S
C150 C149 1.366 . S
C150 H164 0.930 . S
C151 C148 1.378 . S
C151 N152 1.315 . S
C151 H154 0.930 . S
N152 Co132 2.194 . S
N152 C147 1.328 . S
N152 C151 1.315 . S
H153 C147 0.929 . S
H154 C151 0.930 . S
H155 C143 0.929 . S
H156 C145 0.929 . S
O157 Co132 2.351 . S
O157 C160 1.244 . S
O158 Co132 2.155 . S
O158 C160 1.240 . S
O159 Co132 2.096 . S
O159 C140 1.247 . S
C160 O157 1.244 . S
C160 O158 1.240 . S
H161 C135 0.931 . S
H162 C144 0.931 . S
H163 C148 0.929 . S
H164 C150 0.930 . S
Co165 N169 2.148 . S
Co165 N175 2.128 . S
Co165 N185 2.194 . S
Co165 O190 2.351 . S
Co165 O191 2.155 . S
Co165 O192 2.096 . S
C166 N169 1.301 . S
C166 N170 1.328 . S
C166 H171 0.930 . S
C167 C168 1.333 . S
C167 N169 1.317 . S
C167 H172 0.930 . S
C168 C167 1.333 . S
C168 N170 1.350 . S
C168 H194 0.931 . S
N169 Co165 2.148 . S
N169 C166 1.301 . S
N169 C167 1.317 . S
N170 C166 1.328 . S
N170 C168 1.350 . S
H171 C166 0.930 . S
H172 C167 0.930 . S
C173 O174 1.224 . S
C173 O192 1.247 . S
O174 C173 1.224 . S
N175 Co165 2.128 . S
N175 C176 1.355 . S
N175 C178 1.311 . S
C176 N175 1.355 . S
C176 C177 1.363 . S
C176 H188 0.929 . S
C177 C176 1.363 . S
C177 N179 1.375 . S
C177 H195 0.931 . S
C178 N175 1.311 . S
C178 N179 1.347 . S
C178 H189 0.929 . S
N179 C177 1.375 . S
N179 C178 1.347 . S
C180 C183 1.365 . S
C180 N185 1.328 . S
C180 H186 0.929 . S
C181 C182 1.362 . S
C181 C184 1.378 . S
C181 H196 0.929 . S
C182 C181 1.362 . S
C182 C183 1.366 . S
C183 C180 1.365 . S
C183 C182 1.366 . S
C183 H197 0.930 . S
C184 C181 1.378 . S
C184 N185 1.315 . S
C184 H187 0.930 . S
N185 Co165 2.194 . S
N185 C180 1.328 . S
N185 C184 1.315 . S
H186 C180 0.929 . S
H187 C184 0.930 . S
H188 C176 0.929 . S
H189 C178 0.929 . S
O190 Co165 2.351 . S
O190 C193 1.244 . S
O191 Co165 2.155 . S
O191 C193 1.240 . S
O192 Co165 2.096 . S
O192 C173 1.247 . S
C193 O190 1.244 . S
C193 O191 1.240 . S
H194 C168 0.931 . S
H195 C177 0.931 . S
H196 C181 0.929 . S
H197 C183 0.930 . S
Co198 N202 2.148 . S
Co198 N208 2.128 . S
Co198 N218 2.194 . S
Co198 O223 2.351 . S
Co198 O224 2.155 . S
Co198 O225 2.096 . S
C199 N202 1.301 . S
C199 N203 1.328 . S
C199 H204 0.930 . S
C200 C201 1.333 . S
C200 N202 1.317 . S
C200 H205 0.930 . S
C201 C200 1.333 . S
C201 N203 1.350 . S
C201 H227 0.931 . S
N202 Co198 2.148 . S
N202 C199 1.301 . S
N202 C200 1.317 . S
N203 C199 1.328 . S
N203 C201 1.350 . S
H204 C199 0.930 . S
H205 C200 0.930 . S
C206 O207 1.224 . S
C206 O225 1.247 . S
O207 C206 1.224 . S
N208 Co198 2.128 . S
N208 C209 1.355 . S
N208 C211 1.311 . S
C209 N208 1.355 . S
C209 C210 1.363 . S
C209 H221 0.929 . S
C210 C209 1.363 . S
C210 N212 1.375 . S
C210 H228 0.931 . S
C211 N208 1.311 . S
C211 N212 1.347 . S
C211 H222 0.929 . S
N212 C210 1.375 . S
N212 C211 1.347 . S
C213 C216 1.365 . S
C213 N218 1.328 . S
C213 H219 0.929 . S
C214 C215 1.362 . S
C214 C217 1.378 . S
C214 H229 0.929 . S
C215 C214 1.362 . S
C215 C216 1.366 . S
C216 C213 1.365 . S
C216 C215 1.366 . S
C216 H230 0.930 . S
C217 C214 1.378 . S
C217 N218 1.315 . S
C217 H220 0.930 . S
N218 Co198 2.194 . S
N218 C213 1.328 . S
N218 C217 1.315 . S
H219 C213 0.929 . S
H220 C217 0.930 . S
H221 C209 0.929 . S
H222 C211 0.929 . S
O223 Co198 2.351 . S
O223 C226 1.244 . S
O224 Co198 2.155 . S
O224 C226 1.240 . S
O225 Co198 2.096 . S
O225 C206 1.247 . S
C226 O223 1.244 . S
C226 O224 1.240 . S
H227 C201 0.931 . S
H228 C210 0.931 . S
H229 C214 0.929 . S
H230 C216 0.930 . S
Co231 N235 2.148 . S
Co231 N241 2.128 . S
Co231 N251 2.194 . S
Co231 O256 2.351 . S
Co231 O257 2.155 . S
Co231 O258 2.096 . S
C232 N235 1.301 . S
C232 N236 1.328 . S
C232 H237 0.930 . S
C233 C234 1.333 . S
C233 N235 1.317 . S
C233 H238 0.930 . S
C234 C233 1.333 . S
C234 N236 1.350 . S
C234 H260 0.931 . S
N235 Co231 2.148 . S
N235 C232 1.301 . S
N235 C233 1.317 . S
N236 C232 1.328 . S
N236 C234 1.350 . S
H237 C232 0.930 . S
H238 C233 0.930 . S
C239 O240 1.224 . S
C239 O258 1.247 . S
O240 C239 1.224 . S
N241 Co231 2.128 . S
N241 C242 1.355 . S
N241 C244 1.311 . S
C242 N241 1.355 . S
C242 C243 1.363 . S
C242 H254 0.929 . S
C243 C242 1.363 . S
C243 N245 1.375 . S
C243 H261 0.931 . S
C244 N241 1.311 . S
C244 N245 1.347 . S
C244 H255 0.929 . S
N245 C243 1.375 . S
N245 C244 1.347 . S
C246 C249 1.365 . S
C246 N251 1.328 . S
C246 H252 0.929 . S
C247 C248 1.362 . S
C247 C250 1.378 . S
C247 H262 0.929 . S
C248 C247 1.362 . S
C248 C249 1.366 . S
C249 C246 1.365 . S
C249 C248 1.366 . S
C249 H263 0.930 . S
C250 C247 1.378 . S
C250 N251 1.315 . S
C250 H253 0.930 . S
N251 Co231 2.194 . S
N251 C246 1.328 . S
N251 C250 1.315 . S
H252 C246 0.929 . S
H253 C250 0.930 . S
H254 C242 0.929 . S
H255 C244 0.929 . S
O256 Co231 2.351 . S
O256 C259 1.244 . S
O257 Co231 2.155 . S
O257 C259 1.240 . S
O258 Co231 2.096 . S
O258 C239 1.247 . S
C259 O256 1.244 . S
C259 O257 1.240 . S
H260 C234 0.931 . S
H261 C243 0.931 . S
H262 C247 0.929 . S
H263 C249 0.930 . S
Co264 N268 2.148 . S
Co264 N274 2.128 . S
Co264 N284 2.194 . S
Co264 O289 2.351 . S
Co264 O290 2.155 . S
Co264 O291 2.096 . S
C265 N268 1.301 . S
C265 N269 1.328 . S
C265 H270 0.930 . S
C266 C267 1.333 . S
C266 N268 1.317 . S
C266 H271 0.930 . S
C267 C266 1.333 . S
C267 N269 1.350 . S
C267 H293 0.931 . S
N268 Co264 2.148 . S
N268 C265 1.301 . S
N268 C266 1.317 . S
N269 C265 1.328 . S
N269 C267 1.350 . S
H270 C265 0.930 . S
H271 C266 0.930 . S
C272 O273 1.224 . S
C272 O291 1.247 . S
O273 C272 1.224 . S
N274 Co264 2.128 . S
N274 C275 1.355 . S
N274 C277 1.311 . S
C275 N274 1.355 . S
C275 C276 1.363 . S
C275 H287 0.929 . S
C276 C275 1.363 . S
C276 N278 1.375 . S
C276 H294 0.931 . S
C277 N274 1.311 . S
C277 N278 1.347 . S
C277 H288 0.929 . S
N278 C276 1.375 . S
N278 C277 1.347 . S
C279 C282 1.365 . S
C279 N284 1.328 . S
C279 H285 0.929 . S
C280 C281 1.362 . S
C280 C283 1.378 . S
C280 H295 0.929 . S
C281 C280 1.362 . S
C281 C282 1.366 . S
C282 C279 1.365 . S
C282 C281 1.366 . S
C282 H296 0.930 . S
C283 C280 1.378 . S
C283 N284 1.315 . S
C283 H286 0.930 . S
N284 Co264 2.194 . S
N284 C279 1.328 . S
N284 C283 1.315 . S
H285 C279 0.929 . S
H286 C283 0.930 . S
H287 C275 0.929 . S
H288 C277 0.929 . S
O289 Co264 2.351 . S
O289 C292 1.244 . S
O290 Co264 2.155 . S
O290 C292 1.240 . S
O291 Co264 2.096 . S
O291 C272 1.247 . S
C292 O289 1.244 . S
C292 O290 1.240 . S
H293 C267 0.931 . S
H294 C276 0.931 . S
H295 C280 0.929 . S
H296 C282 0.930 . S
Co297 N301 2.148 . S
Co297 N307 2.128 . S
Co297 N317 2.194 . S
Co297 O322 2.351 . S
Co297 O323 2.155 . S
Co297 O324 2.096 . S
C298 N301 1.301 . S
C298 N302 1.328 . S
C298 H303 0.930 . S
C299 C300 1.333 . S
C299 N301 1.317 . S
C299 H304 0.930 . S
C300 C299 1.333 . S
C300 N302 1.350 . S
C300 H326 0.931 . S
N301 Co297 2.148 . S
N301 C298 1.301 . S
N301 C299 1.317 . S
N302 C298 1.328 . S
N302 C300 1.350 . S
H303 C298 0.930 . S
H304 C299 0.930 . S
C305 O306 1.224 . S
C305 O324 1.247 . S
O306 C305 1.224 . S
N307 Co297 2.128 . S
N307 C308 1.355 . S
N307 C310 1.311 . S
C308 N307 1.355 . S
C308 C309 1.363 . S
C308 H320 0.929 . S
C309 C308 1.363 . S
C309 N311 1.375 . S
C309 H327 0.931 . S
C310 N307 1.311 . S
C310 N311 1.347 . S
C310 H321 0.929 . S
N311 C309 1.375 . S
N311 C310 1.347 . S
C312 C315 1.365 . S
C312 N317 1.328 . S
C312 H318 0.929 . S
C313 C314 1.362 . S
C313 C316 1.378 . S
C313 H328 0.929 . S
C314 C313 1.362 . S
C314 C315 1.366 . S
C315 C312 1.365 . S
C315 C314 1.366 . S
C315 H329 0.930 . S
C316 C313 1.378 . S
C316 N317 1.315 . S
C316 H319 0.930 . S
N317 Co297 2.194 . S
N317 C312 1.328 . S
N317 C316 1.315 . S
H318 C312 0.929 . S
H319 C316 0.930 . S
H320 C308 0.929 . S
H321 C310 0.929 . S
O322 Co297 2.351 . S
O322 C325 1.244 . S
O323 Co297 2.155 . S
O323 C325 1.240 . S
O324 Co297 2.096 . S
O324 C305 1.247 . S
C325 O322 1.244 . S
C325 O323 1.240 . S
H326 C300 0.931 . S
H327 C309 0.931 . S
H328 C313 0.929 . S
H329 C315 0.930 . S
Co330 N334 2.148 . S
Co330 N340 2.128 . S
Co330 N350 2.194 . S
Co330 O355 2.351 . S
Co330 O356 2.155 . S
Co330 O357 2.096 . S
C331 N334 1.301 . S
C331 N335 1.328 . S
C331 H336 0.930 . S
C332 C333 1.333 . S
C332 N334 1.317 . S
C332 H337 0.930 . S
C333 C332 1.333 . S
C333 N335 1.350 . S
C333 H359 0.931 . S
N334 Co330 2.148 . S
N334 C331 1.301 . S
N334 C332 1.317 . S
N335 C331 1.328 . S
N335 C333 1.350 . S
H336 C331 0.930 . S
H337 C332 0.930 . S
C338 O339 1.224 . S
C338 O357 1.247 . S
O339 C338 1.224 . S
N340 Co330 2.128 . S
N340 C341 1.355 . S
N340 C343 1.311 . S
C341 N340 1.355 . S
C341 C342 1.363 . S
C341 H353 0.929 . S
C342 C341 1.363 . S
C342 N344 1.375 . S
C342 H360 0.931 . S
C343 N340 1.311 . S
C343 N344 1.347 . S
C343 H354 0.929 . S
N344 C342 1.375 . S
N344 C343 1.347 . S
C345 C348 1.365 . S
C345 N350 1.328 . S
C345 H351 0.929 . S
C346 C347 1.362 . S
C346 C349 1.378 . S
C346 H361 0.929 . S
C347 C346 1.362 . S
C347 C348 1.366 . S
C348 C345 1.365 . S
C348 C347 1.366 . S
C348 H362 0.930 . S
C349 C346 1.378 . S
C349 N350 1.315 . S
C349 H352 0.930 . S
N350 Co330 2.194 . S
N350 C345 1.328 . S
N350 C349 1.315 . S
H351 C345 0.929 . S
H352 C349 0.930 . S
H353 C341 0.929 . S
H354 C343 0.929 . S
O355 Co330 2.351 . S
O355 C358 1.244 . S
O356 Co330 2.155 . S
O356 C358 1.240 . S
O357 Co330 2.096 . S
O357 C338 1.247 . S
C358 O355 1.244 . S
C358 O356 1.240 . S
H359 C333 0.931 . S
H360 C342 0.931 . S
H361 C346 0.929 . S
H362 C348 0.930 . S
Co363 N367 2.148 . S
Co363 N373 2.128 . S
Co363 N383 2.194 . S
Co363 O388 2.351 . S
Co363 O389 2.155 . S
Co363 O390 2.096 . S
C364 N367 1.301 . S
C364 N368 1.328 . S
C364 H369 0.930 . S
C365 C366 1.333 . S
C365 N367 1.317 . S
C365 H370 0.930 . S
C366 C365 1.333 . S
C366 N368 1.350 . S
C366 H392 0.931 . S
N367 Co363 2.148 . S
N367 C364 1.301 . S
N367 C365 1.317 . S
N368 C364 1.328 . S
N368 C366 1.350 . S
H369 C364 0.930 . S
H370 C365 0.930 . S
C371 O372 1.224 . S
C371 O390 1.247 . S
O372 C371 1.224 . S
N373 Co363 2.128 . S
N373 C374 1.355 . S
N373 C376 1.311 . S
C374 N373 1.355 . S
C374 C375 1.363 . S
C374 H386 0.929 . S
C375 C374 1.363 . S
C375 N377 1.375 . S
C375 H393 0.931 . S
C376 N373 1.311 . S
C376 N377 1.347 . S
C376 H387 0.929 . S
N377 C375 1.375 . S
N377 C376 1.347 . S
C378 C381 1.365 . S
C378 N383 1.328 . S
C378 H384 0.929 . S
C379 C380 1.362 . S
C379 C382 1.378 . S
C379 H394 0.929 . S
C380 C379 1.362 . S
C380 C381 1.366 . S
C381 C378 1.365 . S
C381 C380 1.366 . S
C381 H395 0.930 . S
C382 C379 1.378 . S
C382 N383 1.315 . S
C382 H385 0.930 . S
N383 Co363 2.194 . S
N383 C378 1.328 . S
N383 C382 1.315 . S
H384 C378 0.929 . S
H385 C382 0.930 . S
H386 C374 0.929 . S
H387 C376 0.929 . S
O388 Co363 2.351 . S
O388 C391 1.244 . S
O389 Co363 2.155 . S
O389 C391 1.240 . S
O390 Co363 2.096 . S
O390 C371 1.247 . S
C391 O388 1.244 . S
C391 O389 1.240 . S
H392 C366 0.931 . S
H393 C375 0.931 . S
H394 C379 0.929 . S
H395 C381 0.930 . S
Co396 N400 2.148 . S
Co396 N406 2.128 . S
Co396 N416 2.194 . S
Co396 O421 2.351 . S
Co396 O422 2.155 . S
Co396 O423 2.096 . S
C397 N400 1.301 . S
C397 N401 1.328 . S
C397 H402 0.930 . S
C398 C399 1.333 . S
C398 N400 1.317 . S
C398 H403 0.930 . S
C399 C398 1.333 . S
C399 N401 1.350 . S
C399 H425 0.931 . S
N400 Co396 2.148 . S
N400 C397 1.301 . S
N400 C398 1.317 . S
N401 C397 1.328 . S
N401 C399 1.350 . S
H402 C397 0.930 . S
H403 C398 0.930 . S
C404 O405 1.224 . S
C404 O423 1.247 . S
O405 C404 1.224 . S
N406 Co396 2.128 . S
N406 C407 1.355 . S
N406 C409 1.311 . S
C407 N406 1.355 . S
C407 C408 1.363 . S
C407 H419 0.929 . S
C408 C407 1.363 . S
C408 N410 1.375 . S
C408 H426 0.931 . S
C409 N406 1.311 . S
C409 N410 1.347 . S
C409 H420 0.929 . S
N410 C408 1.375 . S
N410 C409 1.347 . S
C411 C414 1.365 . S
C411 N416 1.328 . S
C411 H417 0.929 . S
C412 C413 1.362 . S
C412 C415 1.378 . S
C412 H427 0.929 . S
C413 C412 1.362 . S
C413 C414 1.366 . S
C414 C411 1.365 . S
C414 C413 1.366 . S
C414 H428 0.930 . S
C415 C412 1.378 . S
C415 N416 1.315 . S
C415 H418 0.930 . S
N416 Co396 2.194 . S
N416 C411 1.328 . S
N416 C415 1.315 . S
H417 C411 0.929 . S
H418 C415 0.930 . S
H419 C407 0.929 . S
H420 C409 0.929 . S
O421 Co396 2.351 . S
O421 C424 1.244 . S
O422 Co396 2.155 . S
O422 C424 1.240 . S
O423 Co396 2.096 . S
O423 C404 1.247 . S
C424 O421 1.244 . S
C424 O422 1.240 . S
H425 C399 0.931 . S
H426 C408 0.931 . S
H427 C412 0.929 . S
H428 C414 0.930 . S
Co429 N433 2.148 . S
Co429 N439 2.128 . S
Co429 N449 2.194 . S
Co429 O454 2.351 . S
Co429 O455 2.155 . S
Co429 O456 2.096 . S
C430 N433 1.301 . S
C430 N434 1.328 . S
C430 H435 0.930 . S
C431 C432 1.333 . S
C431 N433 1.317 . S
C431 H436 0.930 . S
C432 C431 1.333 . S
C432 N434 1.350 . S
C432 H458 0.931 . S
N433 Co429 2.148 . S
N433 C430 1.301 . S
N433 C431 1.317 . S
N434 C430 1.328 . S
N434 C432 1.350 . S
H435 C430 0.930 . S
H436 C431 0.930 . S
C437 O438 1.224 . S
C437 O456 1.247 . S
O438 C437 1.224 . S
N439 Co429 2.128 . S
N439 C440 1.355 . S
N439 C442 1.311 . S
C440 N439 1.355 . S
C440 C441 1.363 . S
C440 H452 0.929 . S
C441 C440 1.363 . S
C441 N443 1.375 . S
C441 H459 0.931 . S
C442 N439 1.311 . S
C442 N443 1.347 . S
C442 H453 0.929 . S
N443 C441 1.375 . S
N443 C442 1.347 . S
C444 C447 1.365 . S
C444 N449 1.328 . S
C444 H450 0.929 . S
C445 C446 1.362 . S
C445 C448 1.378 . S
C445 H460 0.929 . S
C446 C445 1.362 . S
C446 C447 1.366 . S
C447 C444 1.365 . S
C447 C446 1.366 . S
C447 H461 0.930 . S
C448 C445 1.378 . S
C448 N449 1.315 . S
C448 H451 0.930 . S
N449 Co429 2.194 . S
N449 C444 1.328 . S
N449 C448 1.315 . S
H450 C444 0.929 . S
H451 C448 0.930 . S
H452 C440 0.929 . S
H453 C442 0.929 . S
O454 Co429 2.351 . S
O454 C457 1.244 . S
O455 Co429 2.155 . S
O455 C457 1.240 . S
O456 Co429 2.096 . S
O456 C437 1.247 . S
C457 O454 1.244 . S
C457 O455 1.240 . S
H458 C432 0.931 . S
H459 C441 0.931 . S
H460 C445 0.929 . S
H461 C447 0.930 . S
Co462 N466 2.148 . S
Co462 N472 2.128 . S
Co462 N482 2.194 . S
Co462 O487 2.351 . S
Co462 O488 2.155 . S
Co462 O489 2.096 . S
C463 N466 1.301 . S
C463 N467 1.328 . S
C463 H468 0.930 . S
C464 C465 1.333 . S
C464 N466 1.317 . S
C464 H469 0.930 . S
C465 C464 1.333 . S
C465 N467 1.350 . S
C465 H491 0.931 . S
N466 Co462 2.148 . S
N466 C463 1.301 . S
N466 C464 1.317 . S
N467 C463 1.328 . S
N467 C465 1.350 . S
H468 C463 0.930 . S
H469 C464 0.930 . S
C470 O471 1.224 . S
C470 O489 1.247 . S
O471 C470 1.224 . S
N472 Co462 2.128 . S
N472 C473 1.355 . S
N472 C475 1.311 . S
C473 N472 1.355 . S
C473 C474 1.363 . S
C473 H485 0.929 . S
C474 C473 1.363 . S
C474 N476 1.375 . S
C474 H492 0.931 . S
C475 N472 1.311 . S
C475 N476 1.347 . S
C475 H486 0.929 . S
N476 C474 1.375 . S
N476 C475 1.347 . S
C477 C480 1.365 . S
C477 N482 1.328 . S
C477 H483 0.929 . S
C478 C479 1.362 . S
C478 C481 1.378 . S
C478 H493 0.929 . S
C479 C478 1.362 . S
C479 C480 1.366 . S
C480 C477 1.365 . S
C480 C479 1.366 . S
C480 H494 0.930 . S
C481 C478 1.378 . S
C481 N482 1.315 . S
C481 H484 0.930 . S
N482 Co462 2.194 . S
N482 C477 1.328 . S
N482 C481 1.315 . S
H483 C477 0.929 . S
H484 C481 0.930 . S
H485 C473 0.929 . S
H486 C475 0.929 . S
O487 Co462 2.351 . S
O487 C490 1.244 . S
O488 Co462 2.155 . S
O488 C490 1.240 . S
O489 Co462 2.096 . S
O489 C470 1.247 . S
C490 O487 1.244 . S
C490 O488 1.240 . S
H491 C465 0.931 . S
H492 C474 0.931 . S
H493 C478 0.929 . S
H494 C480 0.930 . S
Co495 N499 2.148 . S
Co495 N505 2.128 . S
Co495 N515 2.194 . S
Co495 O520 2.351 . S
Co495 O521 2.155 . S
Co495 O522 2.096 . S
C496 N499 1.301 . S
C496 N500 1.328 . S
C496 H501 0.930 . S
C497 C498 1.333 . S
C497 N499 1.317 . S
C497 H502 0.930 . S
C498 C497 1.333 . S
C498 N500 1.350 . S
C498 H524 0.931 . S
N499 Co495 2.148 . S
N499 C496 1.301 . S
N499 C497 1.317 . S
N500 C496 1.328 . S
N500 C498 1.350 . S
H501 C496 0.930 . S
H502 C497 0.930 . S
C503 O504 1.224 . S
C503 O522 1.247 . S
O504 C503 1.224 . S
N505 Co495 2.128 . S
N505 C506 1.355 . S
N505 C508 1.311 . S
C506 N505 1.355 . S
C506 C507 1.363 . S
C506 H518 0.929 . S
C507 C506 1.363 . S
C507 N509 1.375 . S
C507 H525 0.931 . S
C508 N505 1.311 . S
C508 N509 1.347 . S
C508 H519 0.929 . S
N509 C507 1.375 . S
N509 C508 1.347 . S
C510 C513 1.365 . S
C510 N515 1.328 . S
C510 H516 0.929 . S
C511 C512 1.362 . S
C511 C514 1.378 . S
C511 H526 0.929 . S
C512 C511 1.362 . S
C512 C513 1.366 . S
C513 C510 1.365 . S
C513 C512 1.366 . S
C513 H527 0.930 . S
C514 C511 1.378 . S
C514 N515 1.315 . S
C514 H517 0.930 . S
N515 Co495 2.194 . S
N515 C510 1.328 . S
N515 C514 1.315 . S
H516 C510 0.929 . S
H517 C514 0.930 . S
H518 C506 0.929 . S
H519 C508 0.929 . S
O520 Co495 2.351 . S
O520 C523 1.244 . S
O521 Co495 2.155 . S
O521 C523 1.240 . S
O522 Co495 2.096 . S
O522 C503 1.247 . S
C523 O520 1.244 . S
C523 O521 1.240 . S
H524 C498 0.931 . S
H525 C507 0.931 . S
H526 C511 0.929 . S
H527 C513 0.930 . S
H528 C536 0.929 . S
H529 C538 0.930 . S
H530 C540 0.930 . S
H531 C543 0.929 . S
H532 C546 0.930 . S
H533 C548 0.960 . S
H534 C548 0.960 . S
H535 C548 0.960 . S
C536 H528 0.929 . S
C536 C537 1.377 . S
C536 C538 1.384 . S
C537 C536 1.377 . S
C537 C543 1.390 . S
C538 H529 0.930 . S
C538 C536 1.384 . S
C538 C539 1.372 . S
C539 C538 1.372 . S
C539 C540 1.400 . S
C539 C544 1.490 . S
C540 H530 0.930 . S
C540 C539 1.400 . S
C540 C543 1.386 . S
H541 C557 0.930 . S
H542 C558 0.931 . S
C543 H531 0.929 . S
C543 C537 1.390 . S
C543 C540 1.386 . S
C544 C539 1.490 . S
C544 C546 1.395 . S
C544 C547 1.403 . S
H545 C551 0.930 . S
C546 H532 0.930 . S
C546 C544 1.395 . S
C546 C549 1.403 . S
C547 C544 1.403 . S
C547 C548 1.524 . S
C547 C551 1.400 . S
C548 H533 0.960 . S
C548 H534 0.960 . S
C548 H535 0.960 . S
C548 C547 1.524 . S
C549 C546 1.403 . S
C549 C550 1.392 . S
C549 C553 1.495 . S
C550 C549 1.392 . S
C550 C551 1.385 . S
C550 C552 1.478 . S
C551 H545 0.930 . S
C551 C547 1.400 . S
C551 C550 1.385 . S
C552 C550 1.478 . S
C552 C554 1.381 . S
C552 C558 1.383 . S
C553 C549 1.495 . S
C553 H559 0.959 . S
C553 H560 0.961 . S
C553 H561 0.960 . S
C554 C552 1.381 . S
C554 C555 1.394 . S
C554 H562 0.930 . S
C555 C554 1.394 . S
C555 C556 1.383 . S
C555 H563 0.929 . S
C556 C555 1.383 . S
C556 C557 1.377 . S
C557 H541 0.930 . S
C557 C556 1.377 . S
C557 C558 1.379 . S
C558 H542 0.931 . S
C558 C552 1.383 . S
C558 C557 1.379 . S
H559 C553 0.959 . S
H560 C553 0.961 . S
H561 C553 0.960 . S
H562 C554 0.930 . S
H563 C555 0.929 . S
H564 C572 0.929 . S
H565 C574 0.930 . S
H566 C576 0.930 . S
H567 C579 0.929 . S
H568 C582 0.930 . S
H569 C584 0.960 . S
H570 C584 0.960 . S
H571 C584 0.960 . S
C572 H564 0.929 . S
C572 C573 1.377 . S
C572 C574 1.384 . S
C573 C572 1.377 . S
C573 C579 1.390 . S
C574 H565 0.930 . S
C574 C572 1.384 . S
C574 C575 1.372 . S
C575 C574 1.372 . S
C575 C576 1.400 . S
C575 C580 1.490 . S
C576 H566 0.930 . S
C576 C575 1.400 . S
C576 C579 1.386 . S
H577 C593 0.930 . S
H578 C594 0.931 . S
C579 H567 0.929 . S
C579 C573 1.390 . S
C579 C576 1.386 . S
C580 C575 1.490 . S
C580 C582 1.395 . S
C580 C583 1.403 . S
H581 C587 0.930 . S
C582 H568 0.930 . S
C582 C580 1.395 . S
C582 C585 1.403 . S
C583 C580 1.403 . S
C583 C584 1.524 . S
C583 C587 1.400 . S
C584 H569 0.960 . S
C584 H570 0.960 . S
C584 H571 0.960 . S
C584 C583 1.524 . S
C585 C582 1.403 . S
C585 C586 1.392 . S
C585 C589 1.495 . S
C586 C585 1.392 . S
C586 C587 1.385 . S
C586 C588 1.478 . S
C587 H581 0.930 . S
C587 C583 1.400 . S
C587 C586 1.385 . S
C588 C586 1.478 . S
C588 C590 1.381 . S
C588 C594 1.383 . S
C589 C585 1.495 . S
C589 H595 0.959 . S
C589 H596 0.961 . S
C589 H597 0.960 . S
C590 C588 1.381 . S
C590 C591 1.394 . S
C590 H598 0.930 . S
C591 C590 1.394 . S
C591 C592 1.383 . S
C591 H599 0.929 . S
C592 C591 1.383 . S
C592 C593 1.377 . S
C593 H577 0.930 . S
C593 C592 1.377 . S
C593 C594 1.379 . S
C594 H578 0.931 . S
C594 C588 1.383 . S
C594 C593 1.379 . S
H595 C589 0.959 . S
H596 C589 0.961 . S
H597 C589 0.960 . S
H598 C590 0.930 . S
H599 C591 0.929 . S
H600 C608 0.929 . S
H601 C610 0.930 . S
H602 C612 0.930 . S
H603 C615 0.929 . S
H604 C618 0.930 . S
H605 C620 0.960 . S
H606 C620 0.960 . S
H607 C620 0.960 . S
C608 H600 0.929 . S
C608 C609 1.377 . S
C608 C610 1.384 . S
C609 C608 1.377 . S
C609 C615 1.390 . S
C610 H601 0.930 . S
C610 C608 1.384 . S
C610 C611 1.372 . S
C611 C610 1.372 . S
C611 C612 1.400 . S
C611 C616 1.490 . S
C612 H602 0.930 . S
C612 C611 1.400 . S
C612 C615 1.386 . S
H613 C629 0.930 . S
H614 C630 0.931 . S
C615 H603 0.929 . S
C615 C609 1.390 . S
C615 C612 1.386 . S
C616 C611 1.490 . S
C616 C618 1.395 . S
C616 C619 1.403 . S
H617 C623 0.930 . S
C618 H604 0.930 . S
C618 C616 1.395 . S
C618 C621 1.403 . S
C619 C616 1.403 . S
C619 C620 1.524 . S
C619 C623 1.400 . S
C620 H605 0.960 . S
C620 H606 0.960 . S
C620 H607 0.960 . S
C620 C619 1.524 . S
C621 C618 1.403 . S
C621 C622 1.392 . S
C621 C625 1.495 . S
C622 C621 1.392 . S
C622 C623 1.385 . S
C622 C624 1.478 . S
C623 H617 0.930 . S
C623 C619 1.400 . S
C623 C622 1.385 . S
C624 C622 1.478 . S
C624 C626 1.381 . S
C624 C630 1.383 . S
C625 C621 1.495 . S
C625 H631 0.959 . S
C625 H632 0.961 . S
C625 H633 0.960 . S
C626 C624 1.381 . S
C626 C627 1.394 . S
C626 H634 0.930 . S
C627 C626 1.394 . S
C627 C628 1.383 . S
C627 H635 0.929 . S
C628 C627 1.383 . S
C628 C629 1.377 . S
C629 H613 0.930 . S
C629 C628 1.377 . S
C629 C630 1.379 . S
C630 H614 0.931 . S
C630 C624 1.383 . S
C630 C629 1.379 . S
H631 C625 0.959 . S
H632 C625 0.961 . S
H633 C625 0.960 . S
H634 C626 0.930 . S
H635 C627 0.929 . S
H636 C644 0.929 . S
H637 C646 0.930 . S
H638 C648 0.930 . S
H639 C651 0.929 . S
H640 C654 0.930 . S
H641 C656 0.960 . S
H642 C656 0.960 . S
H643 C656 0.960 . S
C644 H636 0.929 . S
C644 C645 1.377 . S
C644 C646 1.384 . S
C645 C644 1.377 . S
C645 C651 1.390 . S
C646 H637 0.930 . S
C646 C644 1.384 . S
C646 C647 1.372 . S
C647 C646 1.372 . S
C647 C648 1.400 . S
C647 C652 1.490 . S
C648 H638 0.930 . S
C648 C647 1.400 . S
C648 C651 1.386 . S
H649 C665 0.930 . S
H650 C666 0.931 . S
C651 H639 0.929 . S
C651 C645 1.390 . S
C651 C648 1.386 . S
C652 C647 1.490 . S
C652 C654 1.395 . S
C652 C655 1.403 . S
H653 C659 0.930 . S
C654 H640 0.930 . S
C654 C652 1.395 . S
C654 C657 1.403 . S
C655 C652 1.403 . S
C655 C656 1.524 . S
C655 C659 1.400 . S
C656 H641 0.960 . S
C656 H642 0.960 . S
C656 H643 0.960 . S
C656 C655 1.524 . S
C657 C654 1.403 . S
C657 C658 1.392 . S
C657 C661 1.495 . S
C658 C657 1.392 . S
C658 C659 1.385 . S
C658 C660 1.478 . S
C659 H653 0.930 . S
C659 C655 1.400 . S
C659 C658 1.385 . S
C660 C658 1.478 . S
C660 C662 1.381 . S
C660 C666 1.383 . S
C661 C657 1.495 . S
C661 H667 0.959 . S
C661 H668 0.961 . S
C661 H669 0.960 . S
C662 C660 1.381 . S
C662 C663 1.394 . S
C662 H670 0.930 . S
C663 C662 1.394 . S
C663 C664 1.383 . S
C663 H671 0.929 . S
C664 C663 1.383 . S
C664 C665 1.377 . S
C665 H649 0.930 . S
C665 C664 1.377 . S
C665 C666 1.379 . S
C666 H650 0.931 . S
C666 C660 1.383 . S
C666 C665 1.379 . S
H667 C661 0.959 . S
H668 C661 0.961 . S
H669 C661 0.960 . S
H670 C662 0.930 . S
H671 C663 0.929 . S
H672 C680 0.929 . S
H673 C682 0.930 . S
H674 C684 0.930 . S
H675 C687 0.929 . S
H676 C690 0.930 . S
H677 C692 0.960 . S
H678 C692 0.960 . S
H679 C692 0.960 . S
C680 H672 0.929 . S
C680 C681 1.377 . S
C680 C682 1.384 . S
C681 C680 1.377 . S
C681 C687 1.390 . S
C682 H673 0.930 . S
C682 C680 1.384 . S
C682 C683 1.372 . S
C683 C682 1.372 . S
C683 C684 1.400 . S
C683 C688 1.490 . S
C684 H674 0.930 . S
C684 C683 1.400 . S
C684 C687 1.386 . S
H685 C701 0.930 . S
H686 C702 0.931 . S
C687 H675 0.929 . S
C687 C681 1.390 . S
C687 C684 1.386 . S
C688 C683 1.490 . S
C688 C690 1.395 . S
C688 C691 1.403 . S
H689 C695 0.930 . S
C690 H676 0.930 . S
C690 C688 1.395 . S
C690 C693 1.403 . S
C691 C688 1.403 . S
C691 C692 1.524 . S
C691 C695 1.400 . S
C692 H677 0.960 . S
C692 H678 0.960 . S
C692 H679 0.960 . S
C692 C691 1.524 . S
C693 C690 1.403 . S
C693 C694 1.392 . S
C693 C697 1.495 . S
C694 C693 1.392 . S
C694 C695 1.385 . S
C694 C696 1.478 . S
C695 H689 0.930 . S
C695 C691 1.400 . S
C695 C694 1.385 . S
C696 C694 1.478 . S
C696 C698 1.381 . S
C696 C702 1.383 . S
C697 C693 1.495 . S
C697 H703 0.959 . S
C697 H704 0.961 . S
C697 H705 0.960 . S
C698 C696 1.381 . S
C698 C699 1.394 . S
C698 H706 0.930 . S
C699 C698 1.394 . S
C699 C700 1.383 . S
C699 H707 0.929 . S
C700 C699 1.383 . S
C700 C701 1.377 . S
C701 H685 0.930 . S
C701 C700 1.377 . S
C701 C702 1.379 . S
C702 H686 0.931 . S
C702 C696 1.383 . S
C702 C701 1.379 . S
H703 C697 0.959 . S
H704 C697 0.961 . S
H705 C697 0.960 . S
H706 C698 0.930 . S
H707 C699 0.929 . S
H708 C716 0.929 . S
H709 C718 0.930 . S
H710 C720 0.930 . S
H711 C723 0.929 . S
H712 C726 0.930 . S
H713 C728 0.960 . S
H714 C728 0.960 . S
H715 C728 0.960 . S
C716 H708 0.929 . S
C716 C717 1.377 . S
C716 C718 1.384 . S
C717 C716 1.377 . S
C717 C723 1.390 . S
C718 H709 0.930 . S
C718 C716 1.384 . S
C718 C719 1.372 . S
C719 C718 1.372 . S
C719 C720 1.400 . S
C719 C724 1.490 . S
C720 H710 0.930 . S
C720 C719 1.400 . S
C720 C723 1.386 . S
H721 C737 0.930 . S
H722 C738 0.931 . S
C723 H711 0.929 . S
C723 C717 1.390 . S
C723 C720 1.386 . S
C724 C719 1.490 . S
C724 C726 1.395 . S
C724 C727 1.403 . S
H725 C731 0.930 . S
C726 H712 0.930 . S
C726 C724 1.395 . S
C726 C729 1.403 . S
C727 C724 1.403 . S
C727 C728 1.524 . S
C727 C731 1.400 . S
C728 H713 0.960 . S
C728 H714 0.960 . S
C728 H715 0.960 . S
C728 C727 1.524 . S
C729 C726 1.403 . S
C729 C730 1.392 . S
C729 C733 1.495 . S
C730 C729 1.392 . S
C730 C731 1.385 . S
C730 C732 1.478 . S
C731 H725 0.930 . S
C731 C727 1.400 . S
C731 C730 1.385 . S
C732 C730 1.478 . S
C732 C734 1.381 . S
C732 C738 1.383 . S
C733 C729 1.495 . S
C733 H739 0.959 . S
C733 H740 0.961 . S
C733 H741 0.960 . S
C734 C732 1.381 . S
C734 C735 1.394 . S
C734 H742 0.930 . S
C735 C734 1.394 . S
C735 C736 1.383 . S
C735 H743 0.929 . S
C736 C735 1.383 . S
C736 C737 1.377 . S
C737 H721 0.930 . S
C737 C736 1.377 . S
C737 C738 1.379 . S
C738 H722 0.931 . S
C738 C732 1.383 . S
C738 C737 1.379 . S
H739 C733 0.959 . S
H740 C733 0.961 . S
H741 C733 0.960 . S
H742 C734 0.930 . S
H743 C735 0.929 . S
H744 C752 0.929 . S
H745 C754 0.930 . S
H746 C756 0.930 . S
H747 C759 0.929 . S
H748 C762 0.930 . S
H749 C764 0.960 . S
H750 C764 0.960 . S
H751 C764 0.960 . S
C752 H744 0.929 . S
C752 C753 1.377 . S
C752 C754 1.384 . S
C753 C752 1.377 . S
C753 C759 1.390 . S
C754 H745 0.930 . S
C754 C752 1.384 . S
C754 C755 1.372 . S
C755 C754 1.372 . S
C755 C756 1.400 . S
C755 C760 1.490 . S
C756 H746 0.930 . S
C756 C755 1.400 . S
C756 C759 1.386 . S
H757 C773 0.930 . S
H758 C774 0.931 . S
C759 H747 0.929 . S
C759 C753 1.390 . S
C759 C756 1.386 . S
C760 C755 1.490 . S
C760 C762 1.395 . S
C760 C763 1.403 . S
H761 C767 0.930 . S
C762 H748 0.930 . S
C762 C760 1.395 . S
C762 C765 1.403 . S
C763 C760 1.403 . S
C763 C764 1.524 . S
C763 C767 1.400 . S
C764 H749 0.960 . S
C764 H750 0.960 . S
C764 H751 0.960 . S
C764 C763 1.524 . S
C765 C762 1.403 . S
C765 C766 1.392 . S
C765 C769 1.495 . S
C766 C765 1.392 . S
C766 C767 1.385 . S
C766 C768 1.478 . S
C767 H761 0.930 . S
C767 C763 1.400 . S
C767 C766 1.385 . S
C768 C766 1.478 . S
C768 C770 1.381 . S
C768 C774 1.383 . S
C769 C765 1.495 . S
C769 H775 0.959 . S
C769 H776 0.961 . S
C769 H777 0.960 . S
C770 C768 1.381 . S
C770 C771 1.394 . S
C770 H778 0.930 . S
C771 C770 1.394 . S
C771 C772 1.383 . S
C771 H779 0.929 . S
C772 C771 1.383 . S
C772 C773 1.377 . S
C773 H757 0.930 . S
C773 C772 1.377 . S
C773 C774 1.379 . S
C774 H758 0.931 . S
C774 C768 1.383 . S
C774 C773 1.379 . S
H775 C769 0.959 . S
H776 C769 0.961 . S
H777 C769 0.960 . S
H778 C770 0.930 . S
H779 C771 0.929 . S
H780 C788 0.929 . S
H781 C790 0.930 . S
H782 C792 0.930 . S
H783 C795 0.929 . S
H784 C798 0.930 . S
H785 C800 0.960 . S
H786 C800 0.960 . S
H787 C800 0.960 . S
C788 H780 0.929 . S
C788 C789 1.377 . S
C788 C790 1.384 . S
C789 C788 1.377 . S
C789 C795 1.390 . S
C790 H781 0.930 . S
C790 C788 1.384 . S
C790 C791 1.372 . S
C791 C790 1.372 . S
C791 C792 1.400 . S
C791 C796 1.490 . S
C792 H782 0.930 . S
C792 C791 1.400 . S
C792 C795 1.386 . S
H793 C809 0.930 . S
H794 C810 0.931 . S
C795 H783 0.929 . S
C795 C789 1.390 . S
C795 C792 1.386 . S
C796 C791 1.490 . S
C796 C798 1.395 . S
C796 C799 1.403 . S
H797 C803 0.930 . S
C798 H784 0.930 . S
C798 C796 1.395 . S
C798 C801 1.403 . S
C799 C796 1.403 . S
C799 C800 1.524 . S
C799 C803 1.400 . S
C800 H785 0.960 . S
C800 H786 0.960 . S
C800 H787 0.960 . S
C800 C799 1.524 . S
C801 C798 1.403 . S
C801 C802 1.392 . S
C801 C805 1.495 . S
C802 C801 1.392 . S
C802 C803 1.385 . S
C802 C804 1.478 . S
C803 H797 0.930 . S
C803 C799 1.400 . S
C803 C802 1.385 . S
C804 C802 1.478 . S
C804 C806 1.381 . S
C804 C810 1.383 . S
C805 C801 1.495 . S
C805 H811 0.959 . S
C805 H812 0.961 . S
C805 H813 0.960 . S
C806 C804 1.381 . S
C806 C807 1.394 . S
C806 H814 0.930 . S
C807 C806 1.394 . S
C807 C808 1.383 . S
C807 H815 0.929 . S
C808 C807 1.383 . S
C808 C809 1.377 . S
C809 H793 0.930 . S
C809 C808 1.377 . S
C809 C810 1.379 . S
C810 H794 0.931 . S
C810 C804 1.383 . S
C810 C809 1.379 . S
H811 C805 0.959 . S
H812 C805 0.961 . S
H813 C805 0.960 . S
H814 C806 0.930 . S
H815 C807 0.929 . S
H816 C824 0.929 . S
H817 C826 0.930 . S
H818 C828 0.930 . S
H819 C831 0.929 . S
H820 C834 0.930 . S
H821 C836 0.960 1_545 S
H822 C836 0.960 . S
H823 C836 0.960 1_545 S
C824 H816 0.929 . S
C824 C825 1.377 . S
C824 C826 1.384 . S
C825 C824 1.377 . S
C825 C831 1.390 1_565 S
C826 H817 0.930 . S
C826 C824 1.384 . S
C826 C827 1.372 . S
C827 C826 1.372 . S
C827 C828 1.400 1_565 S
C827 C832 1.490 . S
C828 H818 0.930 . S
C828 C827 1.400 1_545 S
C828 C831 1.386 . S
H829 C845 0.930 . S
H830 C846 0.931 . S
C831 H819 0.929 . S
C831 C825 1.390 1_545 S
C831 C828 1.386 . S
C832 C827 1.490 . S
C832 C834 1.395 . S
C832 C835 1.403 1_556 S
H833 C839 0.930 . S
C834 H820 0.930 . S
C834 C832 1.395 . S
C834 C837 1.403 . S
C835 C832 1.403 1_554 S
C835 C836 1.524 . S
C835 C839 1.400 1_565 S
C836 H821 0.960 1_565 S
C836 H822 0.960 . S
C836 H823 0.960 1_565 S
C836 C835 1.524 . S
C837 C834 1.403 . S
C837 C838 1.392 1_566 S
C837 C841 1.495 . S
C838 C837 1.392 1_544 S
C838 C839 1.385 . S
C838 C840 1.478 . S
C839 H833 0.930 . S
C839 C835 1.400 1_545 S
C839 C838 1.385 . S
C840 C838 1.478 . S
C840 C842 1.381 1_545 S
C840 C846 1.383 . S
C841 C837 1.495 . S
C841 H847 0.959 . S
C841 H848 0.961 1_565 S
C841 H849 0.960 . S
C842 C840 1.381 1_565 S
C842 C843 1.394 . S
C842 H850 0.930 . S
C843 C842 1.394 . S
C843 C844 1.383 1_565 S
C843 H851 0.929 . S
C844 C843 1.383 1_545 S
C844 C845 1.377 . S
C845 H829 0.930 . S
C845 C844 1.377 . S
C845 C846 1.379 . S
C846 H830 0.931 . S
C846 C840 1.383 . S
C846 C845 1.379 . S
H847 C841 0.959 . S
H848 C841 0.961 1_545 S
H849 C841 0.960 . S
H850 C842 0.930 . S
H851 C843 0.929 . S
H852 C860 0.929 . S
H853 C862 0.930 . S
H854 C864 0.930 . S
H855 C867 0.929 . S
H856 C870 0.930 . S
H857 C872 0.960 . S
H858 C872 0.960 . S
H859 C872 0.960 . S
C860 H852 0.929 . S
C860 C861 1.377 . S
C860 C862 1.384 . S
C861 C860 1.377 . S
C861 C867 1.390 . S
C862 H853 0.930 . S
C862 C860 1.384 . S
C862 C863 1.372 . S
C863 C862 1.372 . S
C863 C864 1.400 . S
C863 C868 1.490 . S
C864 H854 0.930 . S
C864 C863 1.400 . S
C864 C867 1.386 . S
H865 C881 0.930 . S
H866 C882 0.931 . S
C867 H855 0.929 . S
C867 C861 1.390 . S
C867 C864 1.386 . S
C868 C863 1.490 . S
C868 C870 1.395 . S
C868 C871 1.403 . S
H869 C875 0.930 . S
C870 H856 0.930 . S
C870 C868 1.395 . S
C870 C873 1.403 1_556 S
C871 C868 1.403 . S
C871 C872 1.524 . S
C871 C875 1.400 1_556 S
C872 H857 0.960 . S
C872 H858 0.960 . S
C872 H859 0.960 . S
C872 C871 1.524 . S
C873 C870 1.403 1_554 S
C873 C874 1.392 . S
C873 C877 1.495 . S
C874 C873 1.392 . S
C874 C875 1.385 . S
C874 C876 1.478 . S
C875 H869 0.930 . S
C875 C871 1.400 1_554 S
C875 C874 1.385 . S
C876 C874 1.478 . S
C876 C878 1.381 . S
C876 C882 1.383 . S
C877 C873 1.495 . S
C877 H883 0.959 . S
C877 H884 0.961 . S
C877 H885 0.960 . S
C878 C876 1.381 . S
C878 C879 1.394 . S
C878 H886 0.930 . S
C879 C878 1.394 . S
C879 C880 1.383 . S
C879 H887 0.929 . S
C880 C879 1.383 . S
C880 C881 1.377 . S
C881 H865 0.930 . S
C881 C880 1.377 . S
C881 C882 1.379 . S
C882 H866 0.931 . S
C882 C876 1.383 . S
C882 C881 1.379 . S
H883 C877 0.959 . S
H884 C877 0.961 . S
H885 C877 0.960 . S
H886 C878 0.930 . S
H887 C879 0.929 . S
H888 C896 0.929 . S
H889 C898 0.930 . S
H890 C900 0.930 . S
H891 C903 0.929 . S
H892 C906 0.930 1_455 S
H893 C908 0.960 . S
H894 C908 0.960 . S
H895 C908 0.960 . S
C896 H888 0.929 . S
C896 C897 1.377 . S
C896 C898 1.384 . S
C897 C896 1.377 . S
C897 C903 1.390 . S
C898 H889 0.930 . S
C898 C896 1.384 . S
C898 C899 1.372 . S
C899 C898 1.372 . S
C899 C900 1.400 . S
C899 C904 1.490 . S
C900 H890 0.930 . S
C900 C899 1.400 . S
C900 C903 1.386 . S
H901 C917 0.930 . S
H902 C918 0.931 . S
C903 H891 0.929 . S
C903 C897 1.390 . S
C903 C900 1.386 . S
C904 C899 1.490 . S
C904 C906 1.390 1_455 S
C904 C907 1.403 1_556 S
H905 C911 0.930 . S
C906 H892 0.930 1_655 S
C906 C904 1.390 1_655 S
C906 C909 1.408 . S
C907 C904 1.403 1_554 S
C907 C908 1.524 . S
C907 C911 1.400 1_455 S
C908 H893 0.960 . S
C908 H894 0.960 . S
C908 H895 0.960 . S
C908 C907 1.524 . S
C909 C906 1.408 . S
C909 C910 1.392 1_556 S
C909 C913 1.495 . S
C910 C909 1.392 1_554 S
C910 C911 1.385 . S
C910 C912 1.478 . S
C911 H905 0.930 . S
C911 C907 1.400 1_655 S
C911 C910 1.385 . S
C912 C910 1.478 . S
C912 C914 1.381 . S
C912 C918 1.383 . S
C913 C909 1.495 . S
C913 H919 0.959 . S
C913 H920 0.961 . S
C913 H921 0.960 . S
C914 C912 1.381 . S
C914 C915 1.394 . S
C914 H922 0.930 . S
C915 C914 1.394 . S
C915 C916 1.383 . S
C915 H923 0.929 . S
C916 C915 1.383 . S
C916 C917 1.377 . S
C917 H901 0.930 . S
C917 C916 1.377 . S
C917 C918 1.379 . S
C918 H902 0.931 . S
C918 C912 1.383 . S
C918 C917 1.379 . S
H919 C913 0.959 . S
H920 C913 0.961 . S
H921 C913 0.960 . S
H922 C914 0.930 . S
H923 C915 0.929 . S
H924 C932 0.929 . S
H925 C934 0.930 . S
H926 C936 0.930 1_455 S
H927 C939 0.929 . S
H928 C942 0.934 . S
H929 C944 0.960 . S
H930 C944 0.960 . S
H931 C944 0.960 . S
C932 H924 0.929 . S
C932 C933 1.377 . S
C932 C934 1.384 . S
C933 C932 1.377 . S
C933 C939 1.390 . S
C934 H925 0.930 . S
C934 C932 1.384 . S
C934 C935 1.372 . S
C935 C934 1.372 . S
C935 C936 1.400 . S
C935 C940 1.490 . S
C936 H926 0.930 1_655 S
C936 C935 1.400 . S
C936 C939 1.386 . S
H937 C953 0.930 . S
H938 C954 0.931 . S
C939 H927 0.929 . S
C939 C933 1.390 . S
C939 C936 1.386 . S
C940 C935 1.490 . S
C940 C942 1.413 . S
C940 C943 1.403 1_655 S
H941 C947 0.930 . S
C942 H928 0.934 . S
C942 C940 1.413 . S
C942 C945 1.382 1_546 S
C943 C940 1.403 1_455 S
C943 C944 1.524 . S
C943 C947 1.400 1_546 S
C944 H929 0.960 . S
C944 H930 0.960 . S
C944 H931 0.960 . S
C944 C943 1.524 . S
C945 C942 1.382 1_564 S
C945 C946 1.388 1_655 S
C945 C949 1.495 . S
C946 C945 1.388 1_455 S
C946 C947 1.389 . S
C946 C948 1.478 . S
C947 H941 0.930 . S
C947 C943 1.400 1_564 S
C947 C946 1.389 . S
C948 C946 1.478 . S
C948 C950 1.381 . S
C948 C954 1.383 . S
C949 C945 1.495 . S
C949 H955 0.959 . S
C949 H956 0.961 . S
C949 H957 0.960 . S
C950 C948 1.381 . S
C950 C951 1.394 . S
C950 H958 0.930 1_455 S
C951 C950 1.394 . S
C951 C952 1.383 . S
C951 H959 0.929 . S
C952 C951 1.383 . S
C952 C953 1.377 . S
C953 H937 0.930 . S
C953 C952 1.377 . S
C953 C954 1.379 . S
C954 H938 0.931 . S
C954 C948 1.383 . S
C954 C953 1.379 . S
H955 C949 0.959 . S
H956 C949 0.961 . S
H957 C949 0.960 . S
H958 C950 0.930 1_655 S
H959 C951 0.929 . S
H960 C968 0.929 . S
H961 C970 0.930 . S
H962 C972 0.930 . S
H963 C975 0.929 . S
H964 C978 0.930 . S
H965 C980 0.960 . S
H966 C980 0.960 . S
H967 C980 0.960 . S
C968 H960 0.929 . S
C968 C969 1.377 . S
C968 C970 1.384 . S
C969 C968 1.377 . S
C969 C975 1.390 . S
C970 H961 0.930 . S
C970 C968 1.384 . S
C970 C971 1.372 . S
C971 C970 1.372 . S
C971 C972 1.400 . S
C971 C976 1.490 . S
C972 H962 0.930 . S
C972 C971 1.400 . S
C972 C975 1.386 . S
H973 C989 0.930 . S
H974 C990 0.931 . S
C975 H963 0.929 . S
C975 C969 1.390 . S
C975 C972 1.386 . S
C976 C971 1.490 . S
C976 C978 1.395 . S
C976 C979 1.403 . S
H977 C983 0.930 . S
C978 H964 0.930 . S
C978 C976 1.395 . S
C978 C981 1.403 . S
C979 C976 1.403 . S
C979 C980 1.524 . S
C979 C983 1.400 . S
C980 H965 0.960 . S
C980 H966 0.960 . S
C980 H967 0.960 . S
C980 C979 1.524 . S
C981 C978 1.403 . S
C981 C982 1.392 . S
C981 C985 1.495 . S
C982 C981 1.392 . S
C982 C983 1.385 . S
C982 C984 1.478 . S
C983 H977 0.930 . S
C983 C979 1.400 . S
C983 C982 1.385 . S
C984 C982 1.478 . S
C984 C986 1.381 . S
C984 C990 1.383 . S
C985 C981 1.495 . S
C985 H991 0.959 . S
C985 H992 0.961 . S
C985 H993 0.960 . S
C986 C984 1.381 . S
C986 C987 1.394 . S
C986 H994 0.930 . S
C987 C986 1.394 . S
C987 C988 1.383 . S
C987 H995 0.929 . S
C988 C987 1.383 . S
C988 C989 1.377 . S
C989 H973 0.930 . S
C989 C988 1.377 . S
C989 C990 1.379 . S
C990 H974 0.931 . S
C990 C984 1.383 . S
C990 C989 1.379 . S
H991 C985 0.959 . S
H992 C985 0.961 . S
H993 C985 0.960 . S
H994 C986 0.930 . S
H995 C987 0.929 . S
H996 C1004 0.929 . S
H997 C1006 0.930 . S
H998 C1008 0.930 . S
H999 C1011 0.929 . S
H1000 C1014 0.930 . S
H1001 C1016 0.960 . S
H1002 C1016 0.960 . S
H1003 C1016 0.960 . S
C1004 H996 0.929 . S
C1004 C1005 1.377 . S
C1004 C1006 1.384 . S
C1005 C1004 1.377 . S
C1005 C1011 1.390 . S
C1006 H997 0.930 . S
C1006 C1004 1.384 . S
C1006 C1007 1.372 . S
C1007 C1006 1.372 . S
C1007 C1008 1.400 . S
C1007 C1012 1.490 . S
C1008 H998 0.930 . S
C1008 C1007 1.400 . S
C1008 C1011 1.386 . S
H1009 C1025 0.930 . S
H1010 C1026 0.931 1_655 S
C1011 H999 0.929 . S
C1011 C1005 1.390 . S
C1011 C1008 1.386 . S
C1012 C1007 1.490 . S
C1012 C1014 1.395 . S
C1012 C1015 1.403 1_655 S
H1013 C1019 0.930 . S
C1014 H1000 0.930 . S
C1014 C1012 1.395 . S
C1014 C1017 1.403 . S
C1015 C1012 1.403 1_455 S
C1015 C1016 1.524 . S
C1015 C1019 1.400 . S
C1016 H1001 0.960 . S
C1016 H1002 0.960 . S
C1016 H1003 0.960 . S
C1016 C1015 1.524 . S
C1017 C1014 1.403 . S
C1017 C1018 1.392 1_655 S
C1017 C1021 1.495 . S
C1018 C1017 1.392 1_455 S
C1018 C1019 1.385 . S
C1018 C1020 1.478 . S
C1019 H1013 0.930 . S
C1019 C1015 1.400 . S
C1019 C1018 1.385 . S
C1020 C1018 1.478 . S
C1020 C1022 1.381 . S
C1020 C1026 1.383 . S
C1021 C1017 1.495 . S
C1021 H1027 0.959 . S
C1021 H1028 0.961 . S
C1021 H1029 0.960 . S
C1022 C1020 1.381 . S
C1022 C1023 1.394 . S
C1022 H1030 0.930 . S
C1023 C1022 1.394 . S
C1023 C1024 1.383 . S
C1023 H1031 0.929 . S
C1024 C1023 1.383 . S
C1024 C1025 1.377 . S
C1025 H1009 0.930 . S
C1025 C1024 1.377 . S
C1025 C1026 1.379 . S
C1026 H1010 0.931 1_455 S
C1026 C1020 1.383 . S
C1026 C1025 1.379 . S
H1027 C1021 0.959 . S
H1028 C1021 0.961 . S
H1029 C1021 0.960 . S
H1030 C1022 0.930 . S
H1031 C1023 0.929 . S
H1032 C1040 0.929 . S
H1033 C1042 0.930 . S
H1034 C1044 0.930 . S
H1035 C1047 0.929 . S
H1036 C1050 0.930 . S
H1037 C1052 0.960 . S
H1038 C1052 0.960 . S
H1039 C1052 0.960 1_655 S
C1040 H1032 0.929 . S
C1040 C1041 1.377 . S
C1040 C1042 1.384 . S
C1041 C1040 1.377 . S
C1041 C1047 1.390 1_545 S
C1042 H1033 0.930 . S
C1042 C1040 1.384 . S
C1042 C1043 1.372 . S
C1043 C1042 1.372 . S
C1043 C1044 1.400 1_545 S
C1043 C1048 1.490 . S
C1044 H1034 0.930 . S
C1044 C1043 1.400 1_565 S
C1044 C1047 1.386 . S
H1045 C1061 0.930 . S
H1046 C1062 0.931 . S
C1047 H1035 0.929 . S
C1047 C1041 1.390 1_565 S
C1047 C1044 1.386 . S
C1048 C1043 1.490 . S
C1048 C1050 1.395 . S
C1048 C1051 1.402 1_545 S
H1049 C1055 0.930 . S
C1050 H1036 0.930 . S
C1050 C1048 1.395 . S
C1050 C1053 1.429 . S
C1051 C1048 1.402 1_565 S
C1051 C1052 1.524 1_655 S
C1051 C1055 1.400 1_655 S
C1052 H1037 0.960 . S
C1052 H1038 0.960 . S
C1052 H1039 0.960 1_455 S
C1052 C1051 1.524 1_455 S
C1053 C1050 1.429 . S
C1053 C1054 1.367 1_645 S
C1053 C1057 1.497 . S
C1054 C1053 1.367 1_465 S
C1054 C1055 1.385 . S
C1054 C1056 1.478 . S
C1055 H1049 0.930 . S
C1055 C1051 1.400 1_455 S
C1055 C1054 1.385 . S
C1056 C1054 1.478 . S
C1056 C1058 1.381 1_565 S
C1056 C1062 1.383 . S
C1057 C1053 1.497 . S
C1057 H1063 0.959 . S
C1057 H1064 0.961 . S
C1057 H1065 0.960 1_655 S
C1058 C1056 1.381 1_545 S
C1058 C1059 1.394 . S
C1058 H1066 0.930 . S
C1059 C1058 1.394 . S
C1059 C1060 1.383 1_545 S
C1059 H1067 0.929 . S
C1060 C1059 1.383 1_565 S
C1060 C1061 1.377 . S
C1061 H1045 0.930 . S
C1061 C1060 1.377 . S
C1061 C1062 1.379 . S
C1062 H1046 0.931 . S
C1062 C1056 1.383 . S
C1062 C1061 1.379 . S
H1063 C1057 0.959 . S
H1064 C1057 0.961 . S
H1065 C1057 0.960 1_455 S
H1066 C1058 0.930 . S
H1067 C1059 0.929 . S
H1068 C1076 0.929 . S
H1069 C1078 0.930 . S
H1070 C1080 0.930 . S
H1071 C1083 0.929 . S
H1072 C1086 0.930 . S
H1073 C1088 0.960 . S
H1074 C1088 0.960 . S
H1075 C1088 0.960 1_565 S
C1076 H1068 0.929 . S
C1076 C1077 1.377 . S
C1076 C1078 1.384 . S
C1077 C1076 1.377 . S
C1077 C1083 1.390 . S
C1078 H1069 0.930 . S
C1078 C1076 1.384 . S
C1078 C1079 1.372 . S
C1079 C1078 1.372 . S
C1079 C1080 1.400 . S
C1079 C1084 1.490 . S
C1080 H1070 0.930 . S
C1080 C1079 1.400 . S
C1080 C1083 1.386 . S
H1081 C1097 0.930 . S
H1082 C1098 0.931 . S
C1083 H1071 0.929 . S
C1083 C1077 1.390 . S
C1083 C1080 1.386 . S
C1084 C1079 1.490 . S
C1084 C1086 1.395 . S
C1084 C1087 1.400 . S
H1085 C1091 0.930 . S
C1086 H1072 0.930 . S
C1086 C1084 1.395 . S
C1086 C1089 1.432 . S
C1087 C1084 1.400 . S
C1087 C1088 1.524 1_565 S
C1087 C1091 1.403 1_565 S
C1088 H1073 0.960 . S
C1088 H1074 0.960 . S
C1088 H1075 0.960 1_545 S
C1088 C1087 1.524 1_545 S
C1089 C1086 1.432 . S
C1089 C1090 1.363 1_565 S
C1089 C1093 1.498 . S
C1090 C1089 1.363 1_545 S
C1090 C1091 1.385 . S
C1090 C1092 1.478 . S
C1091 H1085 0.930 . S
C1091 C1087 1.403 1_545 S
C1091 C1090 1.385 . S
C1092 C1090 1.478 . S
C1092 C1094 1.381 . S
C1092 C1098 1.383 . S
C1093 C1089 1.498 . S
C1093 H1099 0.959 . S
C1093 H1100 0.961 . S
C1093 H1101 0.960 1_565 S
C1094 C1092 1.381 . S
C1094 C1095 1.394 . S
C1094 H1102 0.930 . S
C1095 C1094 1.394 . S
C1095 C1096 1.383 . S
C1095 H1103 0.929 . S
C1096 C1095 1.383 . S
C1096 C1097 1.377 . S
C1097 H1081 0.930 . S
C1097 C1096 1.377 . S
C1097 C1098 1.379 . S
C1098 H1082 0.931 . S
C1098 C1092 1.383 . S
C1098 C1097 1.379 . S
H1099 C1093 0.959 . S
H1100 C1093 0.961 . S
H1101 C1093 0.960 1_545 S
H1102 C1094 0.930 . S
H1103 C1095 0.929 . S
H1104 C1112 0.929 . S
H1105 C1114 0.930 . S
H1106 C1116 0.930 . S
H1107 C1119 0.929 . S
H1108 C1122 0.930 . S
H1109 C1124 0.960 . S
H1110 C1124 0.960 . S
H1111 C1124 0.960 . S
C1112 H1104 0.929 . S
C1112 C1113 1.377 . S
C1112 C1114 1.384 . S
C1113 C1112 1.377 . S
C1113 C1119 1.390 . S
C1114 H1105 0.930 . S
C1114 C1112 1.384 . S
C1114 C1115 1.372 . S
C1115 C1114 1.372 . S
C1115 C1116 1.400 . S
C1115 C1120 1.485 1_556 S
C1116 H1106 0.930 . S
C1116 C1115 1.400 . S
C1116 C1119 1.386 . S
H1117 C1133 0.930 . S
H1118 C1134 0.931 . S
C1119 H1107 0.929 . S
C1119 C1113 1.390 . S
C1119 C1116 1.386 . S
C1120 C1115 1.485 1_554 S
C1120 C1122 1.402 . S
C1120 C1123 1.401 1_554 S
H1121 C1127 0.930 . S
C1122 H1108 0.930 . S
C1122 C1120 1.402 . S
C1122 C1125 1.403 . S
C1123 C1120 1.401 1_556 S
C1123 C1124 1.524 . S
C1123 C1127 1.400 1_556 S
C1124 H1109 0.960 . S
C1124 H1110 0.960 . S
C1124 H1111 0.960 . S
C1124 C1123 1.524 . S
C1125 C1122 1.403 . S
C1125 C1126 1.392 . S
C1125 C1129 1.495 . S
C1126 C1125 1.392 . S
C1126 C1127 1.385 . S
C1126 C1128 1.478 . S
C1127 H1121 0.930 . S
C1127 C1123 1.400 1_554 S
C1127 C1126 1.385 . S
C1128 C1126 1.478 . S
C1128 C1130 1.381 . S
C1128 C1134 1.383 . S
C1129 C1125 1.495 . S
C1129 H1135 0.959 . S
C1129 H1136 0.961 . S
C1129 H1137 0.960 . S
C1130 C1128 1.381 . S
C1130 C1131 1.394 . S
C1130 H1138 0.930 . S
C1131 C1130 1.394 . S
C1131 C1132 1.383 . S
C1131 H1139 0.929 . S
C1132 C1131 1.383 . S
C1132 C1133 1.377 . S
C1133 H1117 0.930 . S
C1133 C1132 1.377 . S
C1133 C1134 1.379 . S
C1134 H1118 0.931 . S
C1134 C1128 1.383 . S
C1134 C1133 1.379 . S
H1135 C1129 0.959 . S
H1136 C1129 0.961 . S
H1137 C1129 0.960 . S
H1138 C1130 0.930 . S
H1139 C1131 0.929 . S
H1140 C1148 0.929 . S
H1141 C1150 0.930 . S
H1142 C1152 0.930 . S
H1143 C1155 0.929 . S
H1144 C1158 0.930 . S
H1145 C1160 0.960 . S
H1146 C1160 0.960 . S
H1147 C1160 0.960 . S
C1148 H1140 0.929 . S
C1148 C1149 1.377 . S
C1148 C1150 1.384 . S
C1149 C1148 1.377 . S
C1149 C1155 1.390 . S
C1150 H1141 0.930 . S
C1150 C1148 1.384 . S
C1150 C1151 1.372 . S
C1151 C1150 1.372 . S
C1151 C1152 1.400 . S
C1151 C1156 1.500 . S
C1152 H1142 0.930 . S
C1152 C1151 1.400 . S
C1152 C1155 1.386 . S
H1153 C1169 0.930 . S
H1154 C1170 0.931 . S
C1155 H1143 0.929 . S
C1155 C1149 1.390 . S
C1155 C1152 1.386 . S
C1156 C1151 1.500 . S
C1156 C1158 1.382 1_556 S
C1156 C1159 1.406 . S
H1157 C1163 0.930 . S
C1158 H1144 0.930 . S
C1158 C1156 1.382 1_554 S
C1158 C1161 1.403 . S
C1159 C1156 1.406 . S
C1159 C1160 1.524 . S
C1159 C1163 1.400 1_556 S
C1160 H1145 0.960 . S
C1160 H1146 0.960 . S
C1160 H1147 0.960 . S
C1160 C1159 1.524 . S
C1161 C1158 1.403 . S
C1161 C1162 1.392 . S
C1161 C1165 1.495 . S
C1162 C1161 1.392 . S
C1162 C1163 1.385 . S
C1162 C1164 1.478 . S
C1163 H1157 0.930 . S
C1163 C1159 1.400 1_554 S
C1163 C1162 1.385 . S
C1164 C1162 1.478 . S
C1164 C1166 1.381 . S
C1164 C1170 1.383 . S
C1165 C1161 1.495 . S
C1165 H1171 0.959 . S
C1165 H1172 0.961 . S
C1165 H1173 0.960 . S
C1166 C1164 1.381 . S
C1166 C1167 1.394 . S
C1166 H1174 0.930 . S
C1167 C1166 1.394 . S
C1167 C1168 1.383 . S
C1167 H1175 0.929 . S
C1168 C1167 1.383 . S
C1168 C1169 1.377 . S
C1169 H1153 0.930 . S
C1169 C1168 1.377 . S
C1169 C1170 1.379 . S
C1170 H1154 0.931 . S
C1170 C1164 1.383 . S
C1170 C1169 1.379 . S
H1171 C1165 0.959 . S
H1172 C1165 0.961 . S
H1173 C1165 0.960 . S
H1174 C1166 0.930 . S
H1175 C1167 0.929 . S
H1176 C1184 0.929 . S
H1177 C1186 0.930 . S
H1178 C1188 0.930 . S
H1179 C1191 0.929 . S
H1180 C1194 0.930 1_556 S
H1181 C1196 0.960 . S
H1182 C1196 0.960 . S
H1183 C1196 0.960 1_556 S
C1184 H1176 0.929 . S
C1184 C1185 1.377 . S
C1184 C1186 1.384 . S
C1185 C1184 1.377 . S
C1185 C1191 1.390 . S
C1186 H1177 0.930 . S
C1186 C1184 1.384 . S
C1186 C1187 1.372 . S
C1187 C1186 1.372 . S
C1187 C1188 1.400 . S
C1187 C1192 1.488 . S
C1188 H1178 0.930 . S
C1188 C1187 1.400 . S
C1188 C1191 1.386 . S
H1189 C1205 0.930 . S
H1190 C1206 0.931 . S
C1191 H1179 0.929 . S
C1191 C1185 1.390 . S
C1191 C1188 1.386 . S
C1192 C1187 1.488 . S
C1192 C1194 1.395 1_556 S
C1192 C1195 1.404 1_556 S
H1193 C1199 0.930 . S
C1194 H1180 0.930 1_554 S
C1194 C1192 1.395 1_554 S
C1194 C1197 1.403 . S
C1195 C1192 1.404 1_554 S
C1195 C1196 1.524 . S
C1195 C1199 1.400 . S
C1196 H1181 0.960 . S
C1196 H1182 0.960 . S
C1196 H1183 0.960 1_554 S
C1196 C1195 1.524 . S
C1197 C1194 1.403 . S
C1197 C1198 1.392 . S
C1197 C1201 1.495 . S
C1198 C1197 1.392 . S
C1198 C1199 1.385 . S
C1198 C1200 1.478 . S
C1199 H1193 0.930 . S
C1199 C1195 1.400 . S
C1199 C1198 1.385 . S
C1200 C1198 1.478 . S
C1200 C1202 1.381 . S
C1200 C1206 1.383 . S
C1201 C1197 1.495 . S
C1201 H1207 0.959 . S
C1201 H1208 0.961 . S
C1201 H1209 0.960 . S
C1202 C1200 1.381 . S
C1202 C1203 1.394 . S
C1202 H1210 0.930 . S
C1203 C1202 1.394 . S
C1203 C1204 1.383 . S
C1203 H1211 0.929 . S
C1204 C1203 1.383 . S
C1204 C1205 1.377 . S
C1205 H1189 0.930 . S
C1205 C1204 1.377 . S
C1205 C1206 1.379 . S
C1206 H1190 0.931 . S
C1206 C1200 1.383 . S
C1206 C1205 1.379 . S
H1207 C1201 0.959 . S
H1208 C1201 0.961 . S
H1209 C1201 0.960 . S
H1210 C1202 0.930 . S
H1211 C1203 0.929 . S
H1212 C1220 0.929 . S
H1213 C1222 0.930 . S
H1214 C1224 0.930 . S
H1215 C1227 0.929 . S
H1216 C1230 0.930 . S
H1217 C1232 0.960 . S
H1218 C1232 0.960 . S
H1219 C1232 0.960 . S
C1220 H1212 0.929 . S
C1220 C1221 1.377 . S
C1220 C1222 1.384 . S
C1221 C1220 1.377 . S
C1221 C1227 1.390 . S
C1222 H1213 0.930 . S
C1222 C1220 1.384 . S
C1222 C1223 1.372 . S
C1223 C1222 1.372 . S
C1223 C1224 1.400 . S
C1223 C1228 1.486 . S
C1224 H1214 0.930 . S
C1224 C1223 1.400 . S
C1224 C1227 1.386 . S
H1225 C1241 0.930 . S
H1226 C1242 0.931 . S
C1227 H1215 0.929 . S
C1227 C1221 1.390 . S
C1227 C1224 1.386 . S
C1228 C1223 1.486 . S
C1228 C1230 1.400 1_556 S
C1228 C1231 1.401 . S
H1229 C1235 0.930 . S
C1230 H1216 0.930 . S
C1230 C1228 1.400 1_554 S
C1230 C1233 1.403 . S
C1231 C1228 1.401 . S
C1231 C1232 1.524 . S
C1231 C1235 1.400 1_556 S
C1232 H1217 0.960 . S
C1232 H1218 0.960 . S
C1232 H1219 0.960 . S
C1232 C1231 1.524 . S
C1233 C1230 1.403 . S
C1233 C1234 1.392 . S
C1233 C1237 1.495 . S
C1234 C1233 1.392 . S
C1234 C1235 1.385 . S
C1234 C1236 1.478 . S
C1235 H1229 0.930 . S
C1235 C1231 1.400 1_554 S
C1235 C1234 1.385 . S
C1236 C1234 1.478 . S
C1236 C1238 1.381 . S
C1236 C1242 1.383 . S
C1237 C1233 1.495 . S
C1237 H1243 0.959 . S
C1237 H1244 0.961 . S
C1237 H1245 0.960 . S
C1238 C1236 1.381 . S
C1238 C1239 1.394 . S
C1238 H1246 0.930 . S
C1239 C1238 1.394 . S
C1239 C1240 1.383 . S
C1239 H1247 0.929 . S
C1240 C1239 1.383 . S
C1240 C1241 1.377 . S
C1241 H1225 0.930 . S
C1241 C1240 1.377 . S
C1241 C1242 1.379 . S
C1242 H1226 0.931 . S
C1242 C1236 1.383 . S
C1242 C1241 1.379 . S
H1243 C1237 0.959 . S
H1244 C1237 0.961 . S
H1245 C1237 0.960 . S
H1246 C1238 0.930 . S
H1247 C1239 0.929 . S
H1248 C1256 0.929 . S
H1249 C1258 0.930 . S
H1250 C1260 0.930 . S
H1251 C1263 0.929 . S
H1252 C1266 0.930 . S
H1253 C1268 0.960 . S
H1254 C1268 0.960 . S
H1255 C1268 0.960 . S
C1256 H1248 0.929 . S
C1256 C1257 1.377 . S
C1256 C1258 1.384 . S
C1257 C1256 1.377 . S
C1257 C1263 1.390 . S
C1258 H1249 0.930 . S
C1258 C1256 1.384 . S
C1258 C1259 1.372 . S
C1259 C1258 1.372 . S
C1259 C1260 1.400 . S
C1259 C1264 1.490 . S
C1260 H1250 0.930 . S
C1260 C1259 1.400 . S
C1260 C1263 1.386 . S
H1261 C1277 0.930 . S
H1262 C1278 0.931 . S
C1263 H1251 0.929 . S
C1263 C1257 1.390 . S
C1263 C1260 1.386 . S
C1264 C1259 1.490 . S
C1264 C1266 1.395 . S
C1264 C1267 1.403 . S
H1265 C1271 0.930 . S
C1266 H1252 0.930 . S
C1266 C1264 1.395 . S
C1266 C1269 1.403 . S
C1267 C1264 1.403 . S
C1267 C1268 1.524 . S
C1267 C1271 1.400 . S
C1268 H1253 0.960 . S
C1268 H1254 0.960 . S
C1268 H1255 0.960 . S
C1268 C1267 1.524 . S
C1269 C1266 1.403 . S
C1269 C1270 1.392 . S
C1269 C1273 1.495 . S
C1270 C1269 1.392 . S
C1270 C1271 1.385 . S
C1270 C1272 1.478 . S
C1271 H1265 0.930 . S
C1271 C1267 1.400 . S
C1271 C1270 1.385 . S
C1272 C1270 1.478 . S
C1272 C1274 1.381 . S
C1272 C1278 1.383 . S
C1273 C1269 1.495 . S
C1273 H1279 0.959 . S
C1273 H1280 0.961 . S
C1273 H1281 0.960 . S
C1274 C1272 1.381 . S
C1274 C1275 1.394 . S
C1274 H1282 0.930 . S
C1275 C1274 1.394 . S
C1275 C1276 1.383 . S
C1275 H1283 0.929 . S
C1276 C1275 1.383 . S
C1276 C1277 1.377 . S
C1277 H1261 0.930 . S
C1277 C1276 1.377 . S
C1277 C1278 1.379 . S
C1278 H1262 0.931 . S
C1278 C1272 1.383 . S
C1278 C1277 1.379 . S
H1279 C1273 0.959 . S
H1280 C1273 0.961 . S
H1281 C1273 0.960 . S
H1282 C1274 0.930 . S
H1283 C1275 0.929 . S
H1284 C1292 0.929 . S
H1285 C1294 0.930 . S
H1286 C1296 0.930 . S
H1287 C1299 0.929 . S
H1288 C1302 0.930 . S
H1289 C1304 0.960 . S
H1290 C1304 0.960 . S
H1291 C1304 0.960 . S
C1292 H1284 0.929 . S
C1292 C1293 1.377 . S
C1292 C1294 1.384 . S
C1293 C1292 1.377 . S
C1293 C1299 1.390 . S
C1294 H1285 0.930 . S
C1294 C1292 1.384 . S
C1294 C1295 1.372 . S
C1295 C1294 1.372 . S
C1295 C1296 1.400 . S
C1295 C1300 1.490 . S
C1296 H1286 0.930 . S
C1296 C1295 1.400 . S
C1296 C1299 1.386 . S
H1297 C1313 0.930 . S
H1298 C1314 0.931 . S
C1299 H1287 0.929 . S
C1299 C1293 1.390 . S
C1299 C1296 1.386 . S
C1300 C1295 1.490 . S
C1300 C1302 1.395 . S
C1300 C1303 1.403 . S
H1301 C1307 0.930 . S
C1302 H1288 0.930 . S
C1302 C1300 1.395 . S
C1302 C1305 1.403 . S
C1303 C1300 1.403 . S
C1303 C1304 1.524 . S
C1303 C1307 1.400 . S
C1304 H1289 0.960 . S
C1304 H1290 0.960 . S
C1304 H1291 0.960 . S
C1304 C1303 1.524 . S
C1305 C1302 1.403 . S
C1305 C1306 1.392 . S
C1305 C1309 1.495 . S
C1306 C1305 1.392 . S
C1306 C1307 1.385 . S
C1306 C1308 1.478 . S
C1307 H1301 0.930 . S
C1307 C1303 1.400 . S
C1307 C1306 1.385 . S
C1308 C1306 1.478 . S
C1308 C1310 1.381 . S
C1308 C1314 1.383 . S
C1309 C1305 1.495 . S
C1309 H1315 0.959 . S
C1309 H1316 0.961 . S
C1309 H1317 0.960 . S
C1310 C1308 1.381 . S
C1310 C1311 1.394 . S
C1310 H1318 0.930 . S
C1311 C1310 1.394 . S
C1311 C1312 1.383 . S
C1311 H1319 0.929 . S
C1312 C1311 1.383 . S
C1312 C1313 1.377 . S
C1313 H1297 0.930 . S
C1313 C1312 1.377 . S
C1313 C1314 1.379 . S
C1314 H1298 0.931 . S
C1314 C1308 1.383 . S
C1314 C1313 1.379 . S
H1315 C1309 0.959 . S
H1316 C1309 0.961 . S
H1317 C1309 0.960 . S
H1318 C1310 0.930 . S
H1319 C1311 0.929 . S
H1320 C1328 0.929 . S
H1321 C1330 0.930 . S
H1322 C1332 0.930 . S
H1323 C1335 0.929 . S
H1324 C1338 0.930 . S
H1325 C1340 0.960 . S
H1326 C1340 0.960 . S
H1327 C1340 0.960 . S
C1328 H1320 0.929 . S
C1328 C1329 1.377 . S
C1328 C1330 1.384 . S
C1329 C1328 1.377 . S
C1329 C1335 1.390 . S
C1330 H1321 0.930 . S
C1330 C1328 1.384 . S
C1330 C1331 1.372 . S
C1331 C1330 1.372 . S
C1331 C1332 1.400 . S
C1331 C1336 1.490 . S
C1332 H1322 0.930 . S
C1332 C1331 1.400 . S
C1332 C1335 1.386 . S
H1333 C1349 0.930 . S
H1334 C1350 0.931 . S
C1335 H1323 0.929 . S
C1335 C1329 1.390 . S
C1335 C1332 1.386 . S
C1336 C1331 1.490 . S
C1336 C1338 1.395 . S
C1336 C1339 1.403 . S
H1337 C1343 0.930 . S
C1338 H1324 0.930 . S
C1338 C1336 1.395 . S
C1338 C1341 1.403 . S
C1339 C1336 1.403 . S
C1339 C1340 1.524 . S
C1339 C1343 1.400 . S
C1340 H1325 0.960 . S
C1340 H1326 0.960 . S
C1340 H1327 0.960 . S
C1340 C1339 1.524 . S
C1341 C1338 1.403 . S
C1341 C1342 1.392 . S
C1341 C1345 1.495 . S
C1342 C1341 1.392 . S
C1342 C1343 1.385 . S
C1342 C1344 1.478 . S
C1343 H1337 0.930 . S
C1343 C1339 1.400 . S
C1343 C1342 1.385 . S
C1344 C1342 1.478 . S
C1344 C1346 1.381 . S
C1344 C1350 1.383 . S
C1345 C1341 1.495 . S
C1345 H1351 0.959 . S
C1345 H1352 0.961 . S
C1345 H1353 0.960 . S
C1346 C1344 1.381 . S
C1346 C1347 1.394 . S
C1346 H1354 0.930 . S
C1347 C1346 1.394 . S
C1347 C1348 1.383 . S
C1347 H1355 0.929 . S
C1348 C1347 1.383 . S
C1348 C1349 1.377 . S
C1349 H1333 0.930 . S
C1349 C1348 1.377 . S
C1349 C1350 1.379 . S
C1350 H1334 0.931 . S
C1350 C1344 1.383 . S
C1350 C1349 1.379 . S
H1351 C1345 0.959 . S
H1352 C1345 0.961 . S
H1353 C1345 0.960 . S
H1354 C1346 0.930 . S
H1355 C1347 0.929 . S
H1356 C1364 0.929 . S
H1357 C1366 0.930 . S
H1358 C1368 0.930 . S
H1359 C1371 0.929 . S
H1360 C1374 0.930 . S
H1361 C1376 0.960 . S
H1362 C1376 0.960 . S
H1363 C1376 0.960 . S
C1364 H1356 0.929 . S
C1364 C1365 1.377 . S
C1364 C1366 1.384 . S
C1365 C1364 1.377 . S
C1365 C1371 1.390 . S
C1366 H1357 0.930 . S
C1366 C1364 1.384 . S
C1366 C1367 1.372 . S
C1367 C1366 1.372 . S
C1367 C1368 1.400 . S
C1367 C1372 1.490 . S
C1368 H1358 0.930 . S
C1368 C1367 1.400 . S
C1368 C1371 1.386 . S
H1369 C1385 0.930 . S
H1370 C1386 0.931 . S
C1371 H1359 0.929 . S
C1371 C1365 1.390 . S
C1371 C1368 1.386 . S
C1372 C1367 1.490 . S
C1372 C1374 1.395 . S
C1372 C1375 1.403 . S
H1373 C1379 0.930 . S
C1374 H1360 0.930 . S
C1374 C1372 1.395 . S
C1374 C1377 1.403 . S
C1375 C1372 1.403 . S
C1375 C1376 1.524 . S
C1375 C1379 1.400 . S
C1376 H1361 0.960 . S
C1376 H1362 0.960 . S
C1376 H1363 0.960 . S
C1376 C1375 1.524 . S
C1377 C1374 1.403 . S
C1377 C1378 1.392 . S
C1377 C1381 1.495 . S
C1378 C1377 1.392 . S
C1378 C1379 1.385 . S
C1378 C1380 1.478 . S
C1379 H1373 0.930 . S
C1379 C1375 1.400 . S
C1379 C1378 1.385 . S
C1380 C1378 1.478 . S
C1380 C1382 1.381 . S
C1380 C1386 1.383 . S
C1381 C1377 1.495 . S
C1381 H1387 0.959 . S
C1381 H1388 0.961 . S
C1381 H1389 0.960 . S
C1382 C1380 1.381 . S
C1382 C1383 1.394 . S
C1382 H1390 0.930 . S
C1383 C1382 1.394 . S
C1383 C1384 1.383 . S
C1383 H1391 0.929 . S
C1384 C1383 1.383 . S
C1384 C1385 1.377 . S
C1385 H1369 0.930 . S
C1385 C1384 1.377 . S
C1385 C1386 1.379 . S
C1386 H1370 0.931 . S
C1386 C1380 1.383 . S
C1386 C1385 1.379 . S
H1387 C1381 0.959 . S
H1388 C1381 0.961 . S
H1389 C1381 0.960 . S
H1390 C1382 0.930 . S
H1391 C1383 0.929 . S
H1392 C1400 0.929 . S
H1393 C1402 0.930 . S
H1394 C1404 0.930 . S
H1395 C1407 0.929 . S
H1396 C1410 0.930 . S
H1397 C1412 0.960 . S
H1398 C1412 0.960 . S
H1399 C1412 0.960 . S
C1400 H1392 0.929 . S
C1400 C1401 1.377 . S
C1400 C1402 1.384 . S
C1401 C1400 1.377 . S
C1401 C1407 1.390 . S
C1402 H1393 0.930 . S
C1402 C1400 1.384 . S
C1402 C1403 1.372 . S
C1403 C1402 1.372 . S
C1403 C1404 1.400 . S
C1403 C1408 1.504 . S
C1404 H1394 0.930 . S
C1404 C1403 1.400 . S
C1404 C1407 1.386 . S
H1405 C1421 0.930 . S
H1406 C1422 0.931 . S
C1407 H1395 0.929 . S
C1407 C1401 1.390 . S
C1407 C1404 1.386 . S
C1408 C1403 1.504 . S
C1408 C1410 1.377 1_554 S
C1408 C1411 1.406 . S
H1409 C1415 0.930 . S
C1410 H1396 0.930 . S
C1410 C1408 1.377 1_556 S
C1410 C1413 1.403 . S
C1411 C1408 1.406 . S
C1411 C1412 1.524 . S
C1411 C1415 1.400 1_554 S
C1412 H1397 0.960 . S
C1412 H1398 0.960 . S
C1412 H1399 0.960 . S
C1412 C1411 1.524 . S
C1413 C1410 1.403 . S
C1413 C1414 1.392 . S
C1413 C1417 1.495 . S
C1414 C1413 1.392 . S
C1414 C1415 1.385 . S
C1414 C1416 1.478 . S
C1415 H1409 0.930 . S
C1415 C1411 1.400 1_556 S
C1415 C1414 1.385 . S
C1416 C1414 1.478 . S
C1416 C1418 1.381 . S
C1416 C1422 1.383 . S
C1417 C1413 1.495 . S
C1417 H1423 0.959 . S
C1417 H1424 0.961 . S
C1417 H1425 0.960 . S
C1418 C1416 1.381 . S
C1418 C1419 1.394 . S
C1418 H1426 0.930 . S
C1419 C1418 1.394 . S
C1419 C1420 1.383 . S
C1419 H1427 0.929 . S
C1420 C1419 1.383 . S
C1420 C1421 1.377 . S
C1421 H1405 0.930 . S
C1421 C1420 1.377 . S
C1421 C1422 1.379 . S
C1422 H1406 0.931 . S
C1422 C1416 1.383 . S
C1422 C1421 1.379 . S
H1423 C1417 0.959 . S
H1424 C1417 0.961 . S
H1425 C1417 0.960 . S
H1426 C1418 0.930 . S
H1427 C1419 0.929 . S
H1428 C1436 0.929 . S
H1429 C1438 0.930 1_556 S
H1430 C1440 0.930 . S
H1431 C1443 0.929 . S
H1432 C1446 0.930 . S
H1433 C1448 0.960 . S
H1434 C1448 0.960 . S
H1435 C1448 0.960 . S
C1436 H1428 0.929 . S
C1436 C1437 1.377 . S
C1436 C1438 1.384 . S
C1437 C1436 1.377 . S
C1437 C1443 1.390 . S
C1438 H1429 0.930 1_554 S
C1438 C1436 1.384 . S
C1438 C1439 1.372 . S
C1439 C1438 1.372 . S
C1439 C1440 1.400 . S
C1439 C1444 1.468 1_554 S
C1440 H1430 0.930 . S
C1440 C1439 1.400 . S
C1440 C1443 1.386 . S
H1441 C1457 0.930 . S
H1442 C1458 0.931 . S
C1443 H1431 0.929 . S
C1443 C1437 1.390 . S
C1443 C1440 1.386 . S
C1444 C1439 1.468 1_556 S
C1444 C1446 1.424 . S
C1444 C1447 1.396 1_556 S
H1445 C1451 0.930 . S
C1446 H1432 0.930 . S
C1446 C1444 1.424 . S
C1446 C1449 1.403 . S
C1447 C1444 1.396 1_554 S
C1447 C1448 1.524 . S
C1447 C1451 1.400 1_554 S
C1448 H1433 0.960 . S
C1448 H1434 0.960 . S
C1448 H1435 0.960 . S
C1448 C1447 1.524 . S
C1449 C1446 1.403 . S
C1449 C1450 1.392 . S
C1449 C1453 1.495 . S
C1450 C1449 1.392 . S
C1450 C1451 1.385 . S
C1450 C1452 1.478 . S
C1451 H1445 0.930 . S
C1451 C1447 1.400 1_556 S
C1451 C1450 1.385 . S
C1452 C1450 1.478 . S
C1452 C1454 1.381 . S
C1452 C1458 1.383 . S
C1453 C1449 1.495 . S
C1453 H1459 0.959 . S
C1453 H1460 0.961 . S
C1453 H1461 0.960 . S
C1454 C1452 1.381 . S
C1454 C1455 1.394 . S
C1454 H1462 0.930 . S
C1455 C1454 1.394 . S
C1455 C1456 1.383 . S
C1455 H1463 0.929 . S
C1456 C1455 1.383 . S
C1456 C1457 1.377 . S
C1457 H1441 0.930 . S
C1457 C1456 1.377 . S
C1457 C1458 1.379 . S
C1458 H1442 0.931 . S
C1458 C1452 1.383 . S
C1458 C1457 1.379 . S
H1459 C1453 0.959 . S
H1460 C1453 0.961 . S
H1461 C1453 0.960 . S
H1462 C1454 0.930 . S
H1463 C1455 0.929 . S
H1464 C1472 0.929 . S
H1465 C1474 0.930 . S
H1466 C1476 0.930 . S
H1467 C1479 0.929 . S
H1468 C1482 0.917 1_554 S
H1469 C1484 0.960 . S
H1470 C1484 0.960 . S
H1471 C1484 1.005 . S
C1472 H1464 0.929 . S
C1472 C1473 1.377 . S
C1472 C1474 1.384 . S
C1473 C1472 1.377 . S
C1473 C1479 1.390 . S
C1474 H1465 0.930 . S
C1474 C1472 1.384 . S
C1474 C1475 1.372 . S
C1475 C1474 1.372 . S
C1475 C1476 1.400 . S
C1475 C1480 1.492 . S
C1476 H1466 0.930 . S
C1476 C1475 1.400 . S
C1476 C1479 1.386 . S
H1477 C1493 0.930 . S
H1478 C1494 0.931 . S
C1479 H1467 0.929 . S
C1479 C1473 1.390 . S
C1479 C1476 1.386 . S
C1480 C1475 1.492 . S
C1480 C1482 1.394 1_554 S
C1480 C1483 1.401 1_554 S
H1481 C1487 0.930 . S
C1482 H1468 0.917 1_556 S
C1482 C1480 1.394 1_556 S
C1482 C1485 1.417 . S
C1483 C1480 1.401 1_556 S
C1483 C1484 1.524 . S
C1483 C1487 1.400 . S
C1484 H1469 0.960 . S
C1484 H1470 0.960 . S
C1484 H1471 1.005 . S
C1484 C1483 1.524 . S
C1485 C1482 1.417 . S
C1485 C1486 1.392 . S
C1485 C1489 1.495 . S
C1486 C1485 1.392 . S
C1486 C1487 1.385 . S
C1486 C1488 1.478 . S
C1487 H1481 0.930 . S
C1487 C1483 1.400 . S
C1487 C1486 1.385 . S
C1488 C1486 1.478 . S
C1488 C1490 1.381 . S
C1488 C1494 1.383 . S
C1489 C1485 1.495 . S
C1489 H1495 0.959 . S
C1489 H1496 0.961 . S
C1489 H1497 0.960 . S
C1490 C1488 1.381 . S
C1490 C1491 1.394 . S
C1490 H1498 0.930 . S
C1491 C1490 1.394 . S
C1491 C1492 1.383 . S
C1491 H1499 0.929 . S
C1492 C1491 1.383 . S
C1492 C1493 1.377 . S
C1493 H1477 0.930 . S
C1493 C1492 1.377 . S
C1493 C1494 1.379 . S
C1494 H1478 0.931 . S
C1494 C1488 1.383 . S
C1494 C1493 1.379 . S
H1495 C1489 0.959 . S
H1496 C1489 0.961 . S
H1497 C1489 0.960 . S
H1498 C1490 0.930 . S
H1499 C1491 0.929 . S
H1500 C1508 0.929 . S
H1501 C1510 0.930 . S
H1502 C1512 0.930 . S
H1503 C1515 0.929 . S
H1504 C1518 0.930 . S
H1505 C1520 0.960 . S
H1506 C1520 0.960 . S
H1507 C1520 0.960 . S
C1508 H1500 0.929 . S
C1508 C1509 1.377 . S
C1508 C1510 1.384 . S
C1509 C1508 1.377 . S
C1509 C1515 1.390 . S
C1510 H1501 0.930 . S
C1510 C1508 1.384 . S
C1510 C1511 1.372 . S
C1511 C1510 1.372 . S
C1511 C1512 1.400 . S
C1511 C1516 1.490 . S
C1512 H1502 0.930 . S
C1512 C1511 1.400 . S
C1512 C1515 1.386 . S
H1513 C1529 0.930 . S
H1514 C1530 0.931 . S
C1515 H1503 0.929 . S
C1515 C1509 1.390 . S
C1515 C1512 1.386 . S
C1516 C1511 1.490 . S
C1516 C1518 1.395 . S
C1516 C1519 1.403 1_554 S
H1517 C1523 0.930 . S
C1518 H1504 0.930 . S
C1518 C1516 1.395 . S
C1518 C1521 1.403 1_554 S
C1519 C1516 1.403 1_556 S
C1519 C1520 1.524 . S
C1519 C1523 1.400 . S
C1520 H1505 0.960 . S
C1520 H1506 0.960 . S
C1520 H1507 0.960 . S
C1520 C1519 1.524 . S
C1521 C1518 1.403 1_556 S
C1521 C1522 1.392 . S
C1521 C1525 1.495 1_556 S
C1522 C1521 1.392 . S
C1522 C1523 1.385 . S
C1522 C1524 1.478 . S
C1523 H1517 0.930 . S
C1523 C1519 1.400 . S
C1523 C1522 1.385 . S
C1524 C1522 1.478 . S
C1524 C1526 1.381 . S
C1524 C1530 1.383 . S
C1525 C1521 1.495 1_554 S
C1525 H1531 0.959 . S
C1525 H1532 0.961 . S
C1525 H1533 0.960 . S
C1526 C1524 1.381 . S
C1526 C1527 1.394 . S
C1526 H1534 0.930 . S
C1527 C1526 1.394 . S
C1527 C1528 1.383 . S
C1527 H1535 0.929 . S
C1528 C1527 1.383 . S
C1528 C1529 1.377 . S
C1529 H1513 0.930 . S
C1529 C1528 1.377 . S
C1529 C1530 1.379 . S
C1530 H1514 0.931 . S
C1530 C1524 1.383 . S
C1530 C1529 1.379 . S
H1531 C1525 0.959 . S
H1532 C1525 0.961 . S
H1533 C1525 0.960 . S
H1534 C1526 0.930 . S
H1535 C1527 0.929 . S
H1536 C1544 0.929 . S
H1537 C1546 0.930 . S
H1538 C1548 0.930 . S
H1539 C1551 0.929 . S
H1540 C1554 0.930 . S
H1541 C1556 0.960 . S
H1542 C1556 0.960 . S
H1543 C1556 0.960 . S
C1544 H1536 0.929 . S
C1544 C1545 1.377 . S
C1544 C1546 1.384 . S
C1545 C1544 1.377 . S
C1545 C1551 1.390 . S
C1546 H1537 0.930 . S
C1546 C1544 1.384 . S
C1546 C1547 1.372 . S
C1547 C1546 1.372 . S
C1547 C1548 1.400 . S
C1547 C1552 1.490 . S
C1548 H1538 0.930 . S
C1548 C1547 1.400 . S
C1548 C1551 1.386 . S
H1549 C1565 0.930 . S
H1550 C1566 0.931 . S
C1551 H1539 0.929 . S
C1551 C1545 1.390 . S
C1551 C1548 1.386 . S
C1552 C1547 1.490 . S
C1552 C1554 1.395 . S
C1552 C1555 1.403 . S
H1553 C1559 0.930 . S
C1554 H1540 0.930 . S
C1554 C1552 1.395 . S
C1554 C1557 1.403 . S
C1555 C1552 1.403 . S
C1555 C1556 1.524 . S
C1555 C1559 1.400 . S
C1556 H1541 0.960 . S
C1556 H1542 0.960 . S
C1556 H1543 0.960 . S
C1556 C1555 1.524 . S
C1557 C1554 1.403 . S
C1557 C1558 1.392 . S
C1557 C1561 1.495 . S
C1558 C1557 1.392 . S
C1558 C1559 1.385 . S
C1558 C1560 1.478 . S
C1559 H1553 0.930 . S
C1559 C1555 1.400 . S
C1559 C1558 1.385 . S
C1560 C1558 1.478 . S
C1560 C1562 1.381 . S
C1560 C1566 1.383 . S
C1561 C1557 1.495 . S
C1561 H1567 0.959 . S
C1561 H1568 0.961 . S
C1561 H1569 0.960 . S
C1562 C1560 1.381 . S
C1562 C1563 1.394 . S
C1562 H1570 0.930 . S
C1563 C1562 1.394 . S
C1563 C1564 1.383 . S
C1563 H1571 0.929 . S
C1564 C1563 1.383 . S
C1564 C1565 1.377 . S
C1565 H1549 0.930 . S
C1565 C1564 1.377 . S
C1565 C1566 1.379 . S
C1566 H1550 0.931 . S
C1566 C1560 1.383 . S
C1566 C1565 1.379 . S
H1567 C1561 0.959 . S
H1568 C1561 0.961 . S
H1569 C1561 0.960 . S
H1570 C1562 0.930 . S
H1571 C1563 0.929 . S
H1572 C1580 0.929 . S
H1573 C1582 0.930 . S
H1574 C1584 0.930 . S
H1575 C1587 0.929 . S
H1576 C1590 0.930 . S
H1577 C1592 0.960 . S
H1578 C1592 0.960 . S
H1579 C1592 0.960 . S
C1580 H1572 0.929 . S
C1580 C1581 1.377 . S
C1580 C1582 1.384 . S
C1581 C1580 1.377 . S
C1581 C1587 1.390 . S
C1582 H1573 0.930 . S
C1582 C1580 1.384 . S
C1582 C1583 1.372 . S
C1583 C1582 1.372 . S
C1583 C1584 1.400 . S
C1583 C1588 1.490 . S
C1584 H1574 0.930 . S
C1584 C1583 1.400 . S
C1584 C1587 1.386 . S
H1585 C1601 0.930 . S
H1586 C1602 0.931 . S
C1587 H1575 0.929 . S
C1587 C1581 1.390 . S
C1587 C1584 1.386 . S
C1588 C1583 1.490 . S
C1588 C1590 1.395 . S
C1588 C1591 1.403 . S
H1589 C1595 0.930 . S
C1590 H1576 0.930 . S
C1590 C1588 1.395 . S
C1590 C1593 1.403 . S
C1591 C1588 1.403 . S
C1591 C1592 1.524 . S
C1591 C1595 1.400 . S
C1592 H1577 0.960 . S
C1592 H1578 0.960 . S
C1592 H1579 0.960 . S
C1592 C1591 1.524 . S
C1593 C1590 1.403 . S
C1593 C1594 1.392 . S
C1593 C1597 1.495 . S
C1594 C1593 1.392 . S
C1594 C1595 1.385 . S
C1594 C1596 1.478 . S
C1595 H1589 0.930 . S
C1595 C1591 1.400 . S
C1595 C1594 1.385 . S
C1596 C1594 1.478 . S
C1596 C1598 1.381 . S
C1596 C1602 1.383 . S
C1597 C1593 1.495 . S
C1597 H1603 0.959 . S
C1597 H1604 0.961 . S
C1597 H1605 0.960 . S
C1598 C1596 1.381 . S
C1598 C1599 1.394 . S
C1598 H1606 0.930 . S
C1599 C1598 1.394 . S
C1599 C1600 1.383 . S
C1599 H1607 0.929 . S
C1600 C1599 1.383 . S
C1600 C1601 1.377 . S
C1601 H1585 0.930 . S
C1601 C1600 1.377 . S
C1601 C1602 1.379 . S
C1602 H1586 0.931 . S
C1602 C1596 1.383 . S
C1602 C1601 1.379 . S
H1603 C1597 0.959 . S
H1604 C1597 0.961 . S
H1605 C1597 0.960 . S
H1606 C1598 0.930 . S
H1607 C1599 0.929 . S
H1608 C1616 0.929 . S
H1609 C1618 0.930 . S
H1610 C1620 0.930 . S
H1611 C1623 0.929 . S
H1612 C1626 0.930 . S
H1613 C1628 0.960 . S
H1614 C1628 0.960 . S
H1615 C1628 0.960 . S
C1616 H1608 0.929 . S
C1616 C1617 1.377 . S
C1616 C1618 1.384 . S
C1617 C1616 1.377 . S
C1617 C1623 1.390 . S
C1618 H1609 0.930 . S
C1618 C1616 1.384 . S
C1618 C1619 1.372 . S
C1619 C1618 1.372 . S
C1619 C1620 1.400 . S
C1619 C1624 1.490 . S
C1620 H1610 0.930 . S
C1620 C1619 1.400 . S
C1620 C1623 1.386 . S
H1621 C1637 0.930 . S
H1622 C1638 0.931 . S
C1623 H1611 0.929 . S
C1623 C1617 1.390 . S
C1623 C1620 1.386 . S
C1624 C1619 1.490 . S
C1624 C1626 1.395 . S
C1624 C1627 1.403 . S
H1625 C1631 0.930 . S
C1626 H1612 0.930 . S
C1626 C1624 1.395 . S
C1626 C1629 1.403 . S
C1627 C1624 1.403 . S
C1627 C1628 1.524 . S
C1627 C1631 1.400 . S
C1628 H1613 0.960 . S
C1628 H1614 0.960 . S
C1628 H1615 0.960 . S
C1628 C1627 1.524 . S
C1629 C1626 1.403 . S
C1629 C1630 1.392 . S
C1629 C1633 1.495 . S
C1630 C1629 1.392 . S
C1630 C1631 1.385 . S
C1630 C1632 1.478 . S
C1631 H1625 0.930 . S
C1631 C1627 1.400 . S
C1631 C1630 1.385 . S
C1632 C1630 1.478 . S
C1632 C1634 1.381 . S
C1632 C1638 1.383 . S
C1633 C1629 1.495 . S
C1633 H1639 0.959 . S
C1633 H1640 0.961 . S
C1633 H1641 0.960 . S
C1634 C1632 1.381 . S
C1634 C1635 1.394 . S
C1634 H1642 0.930 . S
C1635 C1634 1.394 . S
C1635 C1636 1.383 . S
C1635 H1643 0.929 . S
C1636 C1635 1.383 . S
C1636 C1637 1.377 . S
C1637 H1621 0.930 . S
C1637 C1636 1.377 . S
C1637 C1638 1.379 . S
C1638 H1622 0.931 . S
C1638 C1632 1.383 . S
C1638 C1637 1.379 . S
H1639 C1633 0.959 . S
H1640 C1633 0.961 . S
H1641 C1633 0.960 . S
H1642 C1634 0.930 . S
H1643 C1635 0.929 . S
H1644 C1652 0.929 . S
H1645 C1654 0.930 . S
H1646 C1656 0.930 . S
H1647 C1659 0.929 . S
H1648 C1662 0.930 . S
H1649 C1664 0.960 . S
H1650 C1664 0.960 . S
H1651 C1664 0.960 . S
C1652 H1644 0.929 . S
C1652 C1653 1.377 . S
C1652 C1654 1.384 . S
C1653 C1652 1.377 . S
C1653 C1659 1.390 . S
C1654 H1645 0.930 . S
C1654 C1652 1.384 . S
C1654 C1655 1.372 . S
C1655 C1654 1.372 . S
C1655 C1656 1.400 . S
C1655 C1660 1.490 . S
C1656 H1646 0.930 . S
C1656 C1655 1.400 . S
C1656 C1659 1.386 . S
H1657 C1673 0.930 . S
H1658 C1674 0.931 . S
C1659 H1647 0.929 . S
C1659 C1653 1.390 . S
C1659 C1656 1.386 . S
C1660 C1655 1.490 . S
C1660 C1662 1.395 . S
C1660 C1663 1.403 . S
H1661 C1667 0.930 . S
C1662 H1648 0.930 . S
C1662 C1660 1.395 . S
C1662 C1665 1.403 . S
C1663 C1660 1.403 . S
C1663 C1664 1.524 . S
C1663 C1667 1.400 . S
C1664 H1649 0.960 . S
C1664 H1650 0.960 . S
C1664 H1651 0.960 . S
C1664 C1663 1.524 . S
C1665 C1662 1.403 . S
C1665 C1666 1.392 . S
C1665 C1669 1.495 . S
C1666 C1665 1.392 . S
C1666 C1667 1.385 . S
C1666 C1668 1.478 . S
C1667 H1661 0.930 . S
C1667 C1663 1.400 . S
C1667 C1666 1.385 . S
C1668 C1666 1.478 . S
C1668 C1670 1.381 . S
C1668 C1674 1.383 . S
C1669 C1665 1.495 . S
C1669 H1675 0.959 . S
C1669 H1676 0.961 . S
C1669 H1677 0.960 . S
C1670 C1668 1.381 . S
C1670 C1671 1.394 . S
C1670 H1678 0.930 . S
C1671 C1670 1.394 . S
C1671 C1672 1.383 . S
C1671 H1679 0.929 . S
C1672 C1671 1.383 . S
C1672 C1673 1.377 . S
C1673 H1657 0.930 . S
C1673 C1672 1.377 . S
C1673 C1674 1.379 . S
C1674 H1658 0.931 . S
C1674 C1668 1.383 . S
C1674 C1673 1.379 . S
H1675 C1669 0.959 . S
H1676 C1669 0.961 . S
H1677 C1669 0.960 . S
H1678 C1670 0.930 . S
H1679 C1671 0.929 . S
H1680 C1688 0.929 . S
H1681 C1690 0.930 . S
H1682 C1692 0.930 . S
H1683 C1695 0.929 . S
H1684 C1698 0.930 . S
H1685 C1700 0.960 . S
H1686 C1700 0.960 . S
H1687 C1700 0.960 . S
C1688 H1680 0.929 . S
C1688 C1689 1.377 . S
C1688 C1690 1.384 . S
C1689 C1688 1.377 . S
C1689 C1695 1.390 . S
C1690 H1681 0.930 . S
C1690 C1688 1.384 . S
C1690 C1691 1.372 . S
C1691 C1690 1.372 . S
C1691 C1692 1.400 . S
C1691 C1696 1.490 . S
C1692 H1682 0.930 . S
C1692 C1691 1.400 . S
C1692 C1695 1.386 . S
H1693 C1709 0.930 . S
H1694 C1710 0.931 . S
C1695 H1683 0.929 . S
C1695 C1689 1.390 . S
C1695 C1692 1.386 . S
C1696 C1691 1.490 . S
C1696 C1698 1.395 . S
C1696 C1699 1.403 . S
H1697 C1703 0.930 . S
C1698 H1684 0.930 . S
C1698 C1696 1.395 . S
C1698 C1701 1.403 . S
C1699 C1696 1.403 . S
C1699 C1700 1.524 . S
C1699 C1703 1.400 . S
C1700 H1685 0.960 . S
C1700 H1686 0.960 . S
C1700 H1687 0.960 . S
C1700 C1699 1.524 . S
C1701 C1698 1.403 . S
C1701 C1702 1.392 . S
C1701 C1705 1.495 . S
C1702 C1701 1.392 . S
C1702 C1703 1.385 . S
C1702 C1704 1.478 . S
C1703 H1697 0.930 . S
C1703 C1699 1.400 . S
C1703 C1702 1.385 . S
C1704 C1702 1.478 . S
C1704 C1706 1.381 . S
C1704 C1710 1.383 . S
C1705 C1701 1.495 . S
C1705 H1711 0.959 . S
C1705 H1712 0.961 . S
C1705 H1713 0.960 . S
C1706 C1704 1.381 . S
C1706 C1707 1.394 . S
C1706 H1714 0.930 . S
C1707 C1706 1.394 . S
C1707 C1708 1.383 . S
C1707 H1715 0.929 . S
C1708 C1707 1.383 . S
C1708 C1709 1.377 . S
C1709 H1693 0.930 . S
C1709 C1708 1.377 . S
C1709 C1710 1.379 . S
C1710 H1694 0.931 . S
C1710 C1704 1.383 . S
C1710 C1709 1.379 . S
H1711 C1705 0.959 . S
H1712 C1705 0.961 . S
H1713 C1705 0.960 . S
H1714 C1706 0.930 . S
H1715 C1707 0.929 . S
H1716 C1724 0.929 . S
H1717 C1726 0.930 . S
H1718 C1728 0.930 . S
H1719 C1731 0.929 . S
H1720 C1734 0.930 . S
H1721 C1736 0.960 . S
H1722 C1736 0.960 . S
H1723 C1736 0.960 . S
C1724 H1716 0.929 . S
C1724 C1725 1.377 . S
C1724 C1726 1.384 . S
C1725 C1724 1.377 . S
C1725 C1731 1.390 . S
C1726 H1717 0.930 . S
C1726 C1724 1.384 . S
C1726 C1727 1.372 . S
C1727 C1726 1.372 . S
C1727 C1728 1.400 . S
C1727 C1732 1.490 . S
C1728 H1718 0.930 . S
C1728 C1727 1.400 . S
C1728 C1731 1.386 . S
H1729 C1745 0.930 . S
H1730 C1746 0.931 . S
C1731 H1719 0.929 . S
C1731 C1725 1.390 . S
C1731 C1728 1.386 . S
C1732 C1727 1.490 . S
C1732 C1734 1.395 . S
C1732 C1735 1.403 . S
H1733 C1739 0.930 . S
C1734 H1720 0.930 . S
C1734 C1732 1.395 . S
C1734 C1737 1.403 . S
C1735 C1732 1.403 . S
C1735 C1736 1.524 . S
C1735 C1739 1.400 . S
C1736 H1721 0.960 . S
C1736 H1722 0.960 . S
C1736 H1723 0.960 . S
C1736 C1735 1.524 . S
C1737 C1734 1.403 . S
C1737 C1738 1.392 . S
C1737 C1741 1.495 . S
C1738 C1737 1.392 . S
C1738 C1739 1.385 . S
C1738 C1740 1.478 . S
C1739 H1733 0.930 . S
C1739 C1735 1.400 . S
C1739 C1738 1.385 . S
C1740 C1738 1.478 . S
C1740 C1742 1.381 . S
C1740 C1746 1.383 . S
C1741 C1737 1.495 . S
C1741 H1747 0.959 . S
C1741 H1748 0.961 . S
C1741 H1749 0.960 . S
C1742 C1740 1.381 . S
C1742 C1743 1.394 . S
C1742 H1750 0.930 . S
C1743 C1742 1.394 . S
C1743 C1744 1.383 . S
C1743 H1751 0.929 . S
C1744 C1743 1.383 . S
C1744 C1745 1.377 . S
C1745 H1729 0.930 . S
C1745 C1744 1.377 . S
C1745 C1746 1.379 . S
C1746 H1730 0.931 . S
C1746 C1740 1.383 . S
C1746 C1745 1.379 . S
H1747 C1741 0.959 . S
H1748 C1741 0.961 . S
H1749 C1741 0.960 . S
H1750 C1742 0.930 . S
H1751 C1743 0.929 . S
H1752 C1760 0.929 . S
H1753 C1762 0.930 . S
H1754 C1764 0.930 . S
H1755 C1767 0.929 . S
H1756 C1770 0.930 . S
H1757 C1772 0.960 . S
H1758 C1772 0.960 . S
H1759 C1772 0.960 . S
C1760 H1752 0.929 . S
C1760 C1761 1.377 . S
C1760 C1762 1.384 . S
C1761 C1760 1.377 . S
C1761 C1767 1.390 . S
C1762 H1753 0.930 . S
C1762 C1760 1.384 . S
C1762 C1763 1.372 . S
C1763 C1762 1.372 . S
C1763 C1764 1.400 . S
C1763 C1768 1.490 . S
C1764 H1754 0.930 . S
C1764 C1763 1.400 . S
C1764 C1767 1.386 . S
H1765 C1781 0.930 . S
H1766 C1782 0.931 . S
C1767 H1755 0.929 . S
C1767 C1761 1.390 . S
C1767 C1764 1.386 . S
C1768 C1763 1.490 . S
C1768 C1770 1.395 . S
C1768 C1771 1.403 . S
H1769 C1775 0.930 . S
C1770 H1756 0.930 . S
C1770 C1768 1.395 . S
C1770 C1773 1.403 . S
C1771 C1768 1.403 . S
C1771 C1772 1.524 . S
C1771 C1775 1.400 . S
C1772 H1757 0.960 . S
C1772 H1758 0.960 . S
C1772 H1759 0.960 . S
C1772 C1771 1.524 . S
C1773 C1770 1.403 . S
C1773 C1774 1.392 . S
C1773 C1777 1.495 . S
C1774 C1773 1.392 . S
C1774 C1775 1.385 . S
C1774 C1776 1.478 . S
C1775 H1769 0.930 . S
C1775 C1771 1.400 . S
C1775 C1774 1.385 . S
C1776 C1774 1.478 . S
C1776 C1778 1.381 . S
C1776 C1782 1.383 . S
C1777 C1773 1.495 . S
C1777 H1783 0.959 . S
C1777 H1784 0.961 . S
C1777 H1785 0.960 . S
C1778 C1776 1.381 . S
C1778 C1779 1.394 . S
C1778 H1786 0.930 . S
C1779 C1778 1.394 . S
C1779 C1780 1.383 . S
C1779 H1787 0.929 . S
C1780 C1779 1.383 . S
C1780 C1781 1.377 . S
C1781 H1765 0.930 . S
C1781 C1780 1.377 . S
C1781 C1782 1.379 . S
C1782 H1766 0.931 . S
C1782 C1776 1.383 . S
C1782 C1781 1.379 . S
H1783 C1777 0.959 . S
H1784 C1777 0.961 . S
H1785 C1777 0.960 . S
H1786 C1778 0.930 . S
H1787 C1779 0.929 . S
H1788 C1796 0.929 . S
H1789 C1798 0.930 . S
H1790 C1800 0.930 . S
H1791 C1803 0.929 . S
H1792 C1806 0.930 . S
H1793 C1808 0.960 . S
H1794 C1808 0.960 . S
H1795 C1808 0.960 . S
C1796 H1788 0.929 . S
C1796 C1797 1.377 . S
C1796 C1798 1.384 . S
C1797 C1796 1.377 . S
C1797 C1803 1.390 . S
C1798 H1789 0.930 . S
C1798 C1796 1.384 . S
C1798 C1799 1.372 . S
C1799 C1798 1.372 . S
C1799 C1800 1.400 . S
C1799 C1804 1.490 . S
C1800 H1790 0.930 . S
C1800 C1799 1.400 . S
C1800 C1803 1.386 . S
H1801 C1817 0.930 . S
H1802 C1818 0.931 . S
C1803 H1791 0.929 . S
C1803 C1797 1.390 . S
C1803 C1800 1.386 . S
C1804 C1799 1.490 . S
C1804 C1806 1.395 . S
C1804 C1807 1.403 . S
H1805 C1811 0.930 . S
C1806 H1792 0.930 . S
C1806 C1804 1.395 . S
C1806 C1809 1.403 . S
C1807 C1804 1.403 . S
C1807 C1808 1.524 . S
C1807 C1811 1.400 . S
C1808 H1793 0.960 . S
C1808 H1794 0.960 . S
C1808 H1795 0.960 . S
C1808 C1807 1.524 . S
C1809 C1806 1.403 . S
C1809 C1810 1.392 . S
C1809 C1813 1.495 . S
C1810 C1809 1.392 . S
C1810 C1811 1.385 . S
C1810 C1812 1.478 . S
C1811 H1805 0.930 . S
C1811 C1807 1.400 . S
C1811 C1810 1.385 . S
C1812 C1810 1.478 . S
C1812 C1814 1.381 . S
C1812 C1818 1.383 . S
C1813 C1809 1.495 . S
C1813 H1819 0.959 . S
C1813 H1820 0.961 . S
C1813 H1821 0.960 . S
C1814 C1812 1.381 . S
C1814 C1815 1.394 . S
C1814 H1822 0.930 . S
C1815 C1814 1.394 . S
C1815 C1816 1.383 . S
C1815 H1823 0.929 . S
C1816 C1815 1.383 . S
C1816 C1817 1.377 . S
C1817 H1801 0.930 . S
C1817 C1816 1.377 . S
C1817 C1818 1.379 . S
C1818 H1802 0.931 . S
C1818 C1812 1.383 . S
C1818 C1817 1.379 . S
H1819 C1813 0.959 . S
H1820 C1813 0.961 . S
H1821 C1813 0.960 . S
H1822 C1814 0.930 . S
H1823 C1815 0.929 . S
H1824 C1832 0.929 . S
H1825 C1834 0.930 . S
H1826 C1836 0.930 . S
H1827 C1839 0.929 . S
H1828 C1842 0.930 . S
H1829 C1844 0.960 . S
H1830 C1844 0.960 . S
H1831 C1844 0.960 . S
C1832 H1824 0.929 . S
C1832 C1833 1.377 . S
C1832 C1834 1.384 . S
C1833 C1832 1.377 . S
C1833 C1839 1.390 . S
C1834 H1825 0.930 . S
C1834 C1832 1.384 . S
C1834 C1835 1.372 . S
C1835 C1834 1.372 . S
C1835 C1836 1.400 . S
C1835 C1840 1.490 . S
C1836 H1826 0.930 . S
C1836 C1835 1.400 . S
C1836 C1839 1.386 . S
H1837 C1853 0.930 . S
H1838 C1854 0.931 . S
C1839 H1827 0.929 . S
C1839 C1833 1.390 . S
C1839 C1836 1.386 . S
C1840 C1835 1.490 . S
C1840 C1842 1.395 . S
C1840 C1843 1.403 . S
H1841 C1847 0.930 . S
C1842 H1828 0.930 . S
C1842 C1840 1.395 . S
C1842 C1845 1.403 . S
C1843 C1840 1.403 . S
C1843 C1844 1.524 . S
C1843 C1847 1.400 . S
C1844 H1829 0.960 . S
C1844 H1830 0.960 . S
C1844 H1831 0.960 . S
C1844 C1843 1.524 . S
C1845 C1842 1.403 . S
C1845 C1846 1.392 . S
C1845 C1849 1.495 . S
C1846 C1845 1.392 . S
C1846 C1847 1.385 . S
C1846 C1848 1.478 . S
C1847 H1841 0.930 . S
C1847 C1843 1.400 . S
C1847 C1846 1.385 . S
C1848 C1846 1.478 . S
C1848 C1850 1.381 . S
C1848 C1854 1.383 . S
C1849 C1845 1.495 . S
C1849 H1855 0.959 . S
C1849 H1856 0.961 . S
C1849 H1857 0.960 . S
C1850 C1848 1.381 . S
C1850 C1851 1.394 . S
C1850 H1858 0.930 . S
C1851 C1850 1.394 . S
C1851 C1852 1.383 . S
C1851 H1859 0.929 . S
C1852 C1851 1.383 . S
C1852 C1853 1.377 . S
C1853 H1837 0.930 . S
C1853 C1852 1.377 . S
C1853 C1854 1.379 . S
C1854 H1838 0.931 . S
C1854 C1848 1.383 . S
C1854 C1853 1.379 . S
H1855 C1849 0.959 . S
H1856 C1849 0.961 . S
H1857 C1849 0.960 . S
H1858 C1850 0.930 . S
H1859 C1851 0.929 . S
H1860 C1868 0.929 . S
H1861 C1870 0.930 . S
H1862 C1872 0.930 . S
H1863 C1875 0.929 . S
H1864 C1878 0.930 . S
H1865 C1880 0.960 . S
H1866 C1880 0.960 . S
H1867 C1880 0.960 . S
C1868 H1860 0.929 . S
C1868 C1869 1.377 . S
C1868 C1870 1.384 . S
C1869 C1868 1.377 . S
C1869 C1875 1.390 . S
C1870 H1861 0.930 . S
C1870 C1868 1.384 . S
C1870 C1871 1.372 . S
C1871 C1870 1.372 . S
C1871 C1872 1.400 . S
C1871 C1876 1.490 . S
C1872 H1862 0.930 . S
C1872 C1871 1.400 . S
C1872 C1875 1.386 . S
H1873 C1889 0.930 . S
H1874 C1890 0.931 . S
C1875 H1863 0.929 . S
C1875 C1869 1.390 . S
C1875 C1872 1.386 . S
C1876 C1871 1.490 . S
C1876 C1878 1.395 . S
C1876 C1879 1.403 . S
H1877 C1883 0.930 . S
C1878 H1864 0.930 . S
C1878 C1876 1.395 . S
C1878 C1881 1.403 . S
C1879 C1876 1.403 . S
C1879 C1880 1.524 . S
C1879 C1883 1.400 . S
C1880 H1865 0.960 . S
C1880 H1866 0.960 . S
C1880 H1867 0.960 . S
C1880 C1879 1.524 . S
C1881 C1878 1.403 . S
C1881 C1882 1.392 . S
C1881 C1885 1.495 . S
C1882 C1881 1.392 . S
C1882 C1883 1.385 . S
C1882 C1884 1.478 . S
C1883 H1877 0.930 . S
C1883 C1879 1.400 . S
C1883 C1882 1.385 . S
C1884 C1882 1.478 . S
C1884 C1886 1.381 . S
C1884 C1890 1.383 . S
C1885 C1881 1.495 . S
C1885 H1891 0.959 . S
C1885 H1892 0.961 . S
C1885 H1893 0.960 . S
C1886 C1884 1.381 . S
C1886 C1887 1.394 . S
C1886 H1894 0.930 . S
C1887 C1886 1.394 . S
C1887 C1888 1.383 . S
C1887 H1895 0.929 . S
C1888 C1887 1.383 . S
C1888 C1889 1.377 . S
C1889 H1873 0.930 . S
C1889 C1888 1.377 . S
C1889 C1890 1.379 . S
C1890 H1874 0.931 . S
C1890 C1884 1.383 . S
C1890 C1889 1.379 . S
H1891 C1885 0.959 . S
H1892 C1885 0.961 . S
H1893 C1885 0.960 . S
H1894 C1886 0.930 . S
H1895 C1887 0.929 . S
H1896 C1904 0.929 . S
H1897 C1906 0.930 . S
H1898 C1908 0.930 . S
H1899 C1911 0.929 . S
H1900 C1914 0.930 . S
H1901 C1916 0.960 . S
H1902 C1916 0.960 . S
H1903 C1916 0.960 . S
C1904 H1896 0.929 . S
C1904 C1905 1.377 . S
C1904 C1906 1.384 . S
C1905 C1904 1.377 . S
C1905 C1911 1.390 . S
C1906 H1897 0.930 . S
C1906 C1904 1.384 . S
C1906 C1907 1.372 . S
C1907 C1906 1.372 . S
C1907 C1908 1.400 . S
C1907 C1912 1.490 . S
C1908 H1898 0.930 . S
C1908 C1907 1.400 . S
C1908 C1911 1.386 . S
H1909 C1925 0.930 . S
H1910 C1926 0.931 . S
C1911 H1899 0.929 . S
C1911 C1905 1.390 . S
C1911 C1908 1.386 . S
C1912 C1907 1.490 . S
C1912 C1914 1.395 . S
C1912 C1915 1.403 . S
H1913 C1919 0.930 . S
C1914 H1900 0.930 . S
C1914 C1912 1.395 . S
C1914 C1917 1.403 . S
C1915 C1912 1.403 . S
C1915 C1916 1.524 . S
C1915 C1919 1.400 . S
C1916 H1901 0.960 . S
C1916 H1902 0.960 . S
C1916 H1903 0.960 . S
C1916 C1915 1.524 . S
C1917 C1914 1.403 . S
C1917 C1918 1.392 . S
C1917 C1921 1.495 . S
C1918 C1917 1.392 . S
C1918 C1919 1.385 . S
C1918 C1920 1.478 . S
C1919 H1913 0.930 . S
C1919 C1915 1.400 . S
C1919 C1918 1.385 . S
C1920 C1918 1.478 . S
C1920 C1922 1.381 . S
C1920 C1926 1.383 . S
C1921 C1917 1.495 . S
C1921 H1927 0.959 . S
C1921 H1928 0.961 . S
C1921 H1929 0.960 . S
C1922 C1920 1.381 . S
C1922 C1923 1.394 . S
C1922 H1930 0.930 . S
C1923 C1922 1.394 . S
C1923 C1924 1.383 . S
C1923 H1931 0.929 . S
C1924 C1923 1.383 . S
C1924 C1925 1.377 . S
C1925 H1909 0.930 . S
C1925 C1924 1.377 . S
C1925 C1926 1.379 . S
C1926 H1910 0.931 . S
C1926 C1920 1.383 . S
C1926 C1925 1.379 . S
H1927 C1921 0.959 . S
H1928 C1921 0.961 . S
H1929 C1921 0.960 . S
H1930 C1922 0.930 . S
H1931 C1923 0.929 . S
H1932 C1940 0.929 . S
H1933 C1942 0.930 . S
H1934 C1944 0.930 . S
H1935 C1947 0.929 . S
H1936 C1950 0.930 . S
H1937 C1952 0.960 . S
H1938 C1952 0.960 . S
H1939 C1952 0.960 . S
C1940 H1932 0.929 . S
C1940 C1941 1.377 . S
C1940 C1942 1.384 . S
C1941 C1940 1.377 . S
C1941 C1947 1.390 . S
C1942 H1933 0.930 . S
C1942 C1940 1.384 . S
C1942 C1943 1.372 . S
C1943 C1942 1.372 . S
C1943 C1944 1.400 . S
C1943 C1948 1.490 . S
C1944 H1934 0.930 . S
C1944 C1943 1.400 . S
C1944 C1947 1.386 . S
H1945 C1961 0.930 . S
H1946 C1962 0.931 . S
C1947 H1935 0.929 . S
C1947 C1941 1.390 . S
C1947 C1944 1.386 . S
C1948 C1943 1.490 . S
C1948 C1950 1.395 . S
C1948 C1951 1.403 . S
H1949 C1955 0.930 . S
C1950 H1936 0.930 . S
C1950 C1948 1.395 . S
C1950 C1953 1.403 . S
C1951 C1948 1.403 . S
C1951 C1952 1.524 . S
C1951 C1955 1.400 . S
C1952 H1937 0.960 . S
C1952 H1938 0.960 . S
C1952 H1939 0.960 . S
C1952 C1951 1.524 . S
C1953 C1950 1.403 . S
C1953 C1954 1.392 . S
C1953 C1957 1.495 . S
C1954 C1953 1.392 . S
C1954 C1955 1.385 . S
C1954 C1956 1.478 . S
C1955 H1949 0.930 . S
C1955 C1951 1.400 . S
C1955 C1954 1.385 . S
C1956 C1954 1.478 . S
C1956 C1958 1.381 . S
C1956 C1962 1.383 . S
C1957 C1953 1.495 . S
C1957 H1963 0.959 . S
C1957 H1964 0.961 . S
C1957 H1965 0.960 . S
C1958 C1956 1.381 . S
C1958 C1959 1.394 . S
C1958 H1966 0.930 . S
C1959 C1958 1.394 . S
C1959 C1960 1.383 . S
C1959 H1967 0.929 . S
C1960 C1959 1.383 . S
C1960 C1961 1.377 . S
C1961 H1945 0.930 . S
C1961 C1960 1.377 . S
C1961 C1962 1.379 . S
C1962 H1946 0.931 . S
C1962 C1956 1.383 . S
C1962 C1961 1.379 . S
H1963 C1957 0.959 . S
H1964 C1957 0.961 . S
H1965 C1957 0.960 . S
H1966 C1958 0.930 . S
H1967 C1959 0.929 . S
C537 C8 1.450 . S
C556 C206 1.458 . S
C573 C239 1.456 . S
C592 C41 1.482 . S
C609 C140 1.448 . S
C628 C74 1.418 . S
C645 C173 1.445 . S
C664 C107 1.413 . S
C681 C272 1.452 . S
C700 C470 1.413 . S
C717 C305 1.457 . S
C736 C503 1.470 . S
C753 C404 1.444 . S
C772 C338 1.451 . S
C789 C371 1.451 . S
C808 C437 1.413 . S
C825 N269 2.059 . S
C844 N5 2.064 . S
C861 N302 2.059 . S
C880 N38 2.041 . S
C897 N335 2.057 . S
C916 N71 2.054 . S
C933 N368 2.063 . S
C952 N104 2.069 . S
C969 N401 2.062 . S
C988 N137 2.048 . S
C1005 N434 2.063 . S
C1024 N170 2.063 . S
C1041 N203 2.057 . S
C1060 N467 2.056 . S
C1077 N236 2.057 . S
C1096 N500 2.056 . S
C1113 C314 0.414 . S
C1132 C28 0.422 . S
C1149 C347 0.421 . S
C1168 C61 0.377 . S
C1185 C380 0.433 . S
C1204 C94 0.465 . S
C1221 C281 0.417 . S
C1240 C127 0.404 . S
C1257 C160 0.366 . S
C1276 C512 0.506 . S
C1293 C193 0.404 . S
C1312 C413 0.337 . S
C1329 C226 0.376 . S
C1348 C446 0.531 . S
C1365 C259 0.366 . S
C1384 C479 0.509 . S
C1401 C50 0.442 . S
C1420 C292 0.466 . S
C1437 C83 0.454 . S
C1456 C325 0.371 . S
C1473 C116 0.435 . S
C1492 C358 0.290 . S
C1509 C17 0.413 . S
C1528 C391 0.389 . S
C1545 C248 0.432 . S
C1564 C424 0.295 . S
C1581 C149 0.451 . S
C1600 C457 0.420 . S
C1617 C182 0.425 . S
C1636 C490 0.316 . S
C1653 C523 0.367 . S
C1672 C215 0.493 . S
C1689 N80 0.579 . S
C1708 N14 0.498 . S
C1725 N113 0.542 . S
C1744 N47 0.661 . S
C1761 N146 0.575 . S
C1780 N212 0.476 . S
C1797 N245 0.579 . S
C1816 N179 0.465 . S
C1833 N278 0.549 . S
C1852 N344 0.467 . S
C1869 N377 0.545 . S
C1888 N311 0.612 . S
C1905 N410 0.560 . S
C1924 N476 0.465 . S
C1941 N443 0.569 . S
C1960 N509 0.485 . S
