# Generated by pormake.
# Topology wjb, (6)-cn, num edge types: 1
# Building blocks:
#     Node 0, Type 0, BuildingBlock: OJICUG_clean_sbu_0, # of connection points: 6
#     Node 1, Type 0, BuildingBlock: OJICUG_clean_sbu_0, # of connection points: 6
#     Node 2, Type 0, BuildingBlock: OJICUG_clean_sbu_0, # of connection points: 6
#     Node 3, Type 0, BuildingBlock: OJICUG_clean_sbu_0, # of connection points: 6
#     Node 4, Type 0, BuildingBlock: OJICUG_clean_sbu_0, # of connection points: 6
#     Node 5, Type 0, BuildingBlock: OJICUG_clean_sbu_0, # of connection points: 6
#     Node 6, Type 0, BuildingBlock: OJICUG_clean_sbu_0, # of connection points: 6
#     Node 7, Type 0, BuildingBlock: OJICUG_clean_sbu_0, # of connection points: 6
#     Node 8, Type 0, BuildingBlock: OJICUG_clean_sbu_0, # of connection points: 6
#     Node 9, Type 0, BuildingBlock: OJICUG_clean_sbu_0, # of connection points: 6
#     Node 10, Type 0, BuildingBlock: OJICUG_clean_sbu_0, # of connection points: 6
#     Node 11, Type 0, BuildingBlock: OJICUG_clean_sbu_0, # of connection points: 6
#     Node 12, Type 0, BuildingBlock: OJICUG_clean_sbu_0, # of connection points: 6
#     Node 13, Type 0, BuildingBlock: OJICUG_clean_sbu_0, # of connection points: 6
#     Node 14, Type 0, BuildingBlock: OJICUG_clean_sbu_0, # of connection points: 6
#     Node 15, Type 0, BuildingBlock: OJICUG_clean_sbu_0, # of connection points: 6
#     Node 16, Type 0, BuildingBlock: OJICUG_clean_sbu_0, # of connection points: 6
#     Node 17, Type 0, BuildingBlock: OJICUG_clean_sbu_0, # of connection points: 6
#     Node 18, Type 0, BuildingBlock: OJICUG_clean_sbu_0, # of connection points: 6
#     Node 19, Type 0, BuildingBlock: OJICUG_clean_sbu_0, # of connection points: 6
#     Node 20, Type 0, BuildingBlock: OJICUG_clean_sbu_0, # of connection points: 6
#     Node 21, Type 0, BuildingBlock: OJICUG_clean_sbu_0, # of connection points: 6
#     Node 22, Type 0, BuildingBlock: OJICUG_clean_sbu_0, # of connection points: 6
#     Node 23, Type 0, BuildingBlock: OJICUG_clean_sbu_0, # of connection points: 6
#     Edge 24, Type (0, 0), None
#     Edge 25, Type (0, 0), None
#     Edge 26, Type (0, 0), None
#     Edge 27, Type (0, 0), None
#     Edge 28, Type (0, 0), None
#     Edge 29, Type (0, 0), None
#     Edge 30, Type (0, 0), None
#     Edge 31, Type (0, 0), None
#     Edge 32, Type (0, 0), None
#     Edge 33, Type (0, 0), None
#     Edge 34, Type (0, 0), None
#     Edge 35, Type (0, 0), None
#     Edge 36, Type (0, 0), None
#     Edge 37, Type (0, 0), None
#     Edge 38, Type (0, 0), None
#     Edge 39, Type (0, 0), None
#     Edge 40, Type (0, 0), None
#     Edge 41, Type (0, 0), None
#     Edge 42, Type (0, 0), None
#     Edge 43, Type (0, 0), None
#     Edge 44, Type (0, 0), None
#     Edge 45, Type (0, 0), None
#     Edge 46, Type (0, 0), None
#     Edge 47, Type (0, 0), None
#     Edge 48, Type (0, 0), None
#     Edge 49, Type (0, 0), None
#     Edge 50, Type (0, 0), None
#     Edge 51, Type (0, 0), None
#     Edge 52, Type (0, 0), None
#     Edge 53, Type (0, 0), None
#     Edge 54, Type (0, 0), None
#     Edge 55, Type (0, 0), None
#     Edge 56, Type (0, 0), None
#     Edge 57, Type (0, 0), None
#     Edge 58, Type (0, 0), None
#     Edge 59, Type (0, 0), None
#     Edge 60, Type (0, 0), None
#     Edge 61, Type (0, 0), None
#     Edge 62, Type (0, 0), None
#     Edge 63, Type (0, 0), None
#     Edge 64, Type (0, 0), None
#     Edge 65, Type (0, 0), None
#     Edge 66, Type (0, 0), None
#     Edge 67, Type (0, 0), None
#     Edge 68, Type (0, 0), None
#     Edge 69, Type (0, 0), None
#     Edge 70, Type (0, 0), None
#     Edge 71, Type (0, 0), None
#     Edge 72, Type (0, 0), None
#     Edge 73, Type (0, 0), None
#     Edge 74, Type (0, 0), None
#     Edge 75, Type (0, 0), None
#     Edge 76, Type (0, 0), None
#     Edge 77, Type (0, 0), None
#     Edge 78, Type (0, 0), None
#     Edge 79, Type (0, 0), None
#     Edge 80, Type (0, 0), None
#     Edge 81, Type (0, 0), None
#     Edge 82, Type (0, 0), None
#     Edge 83, Type (0, 0), None
#     Edge 84, Type (0, 0), None
#     Edge 85, Type (0, 0), None
#     Edge 86, Type (0, 0), None
#     Edge 87, Type (0, 0), None
#     Edge 88, Type (0, 0), None
#     Edge 89, Type (0, 0), None
#     Edge 90, Type (0, 0), None
#     Edge 91, Type (0, 0), None
#     Edge 92, Type (0, 0), None
#     Edge 93, Type (0, 0), None
#     Edge 94, Type (0, 0), None
#     Edge 95, Type (0, 0), None
# Relax obj value: 0.482
# Max RMSD: 0.212
# Mean RMSD: 0.212
data_MOF--net-wjb--node1-OJICUG_clean_sbu_0--edge1-none
_symmetry_space_group_name_H-M    P1
_symmetry_Int_Tables_number       1
_symmetry_cell_setting            triclinic
loop_
_symmetry_equiv_pos_as_xyz
'x, y, z'
_cell_length_a     26.340513
_cell_length_b     26.34091
_cell_length_c     27.683104
_cell_angle_alpha  89.999969
_cell_angle_beta   90.000034
_cell_angle_gamma 119.99879
loop_
_atom_site_label
_atom_site_type_symbol
_atom_site_fract_x
_atom_site_fract_y
_atom_site_fract_z
_atom_type_partial_charge
Sc0 Sc 0.08736 0.51057 0.13799 0.0
Sc1 Sc 0.14231 0.41194 0.13357 0.0
Sc2 Sc 0.1572 0.50334 0.03891 0.0
O3 O 0.13366 0.47831 0.10601 0.0
C4 C 0.04655 0.50225 0.02816 0.0
C5 C 0.00661 0.36844 0.13783 0.0
C6 C 0.15459 0.38698 0.02394 0.0
C7 C 0.12885 0.47108 0.23045 0.0
C8 C 0.18071 0.62387 0.09665 0.0
C9 C 0.26738 0.51489 0.09494 0.0
O10 O 0.05293 0.5253 0.06982 0.0
O11 O 0.04347 0.35 0.13236 0.0
O12 O 0.1331 0.41813 0.01166 0.0
O13 O 0.11559 0.50544 0.20931 0.0
O14 O 0.18066 0.59476 0.05909 0.0
O15 O 0.23735 0.47774 0.12892 0.0
O16 O 0.15414 0.5991 0.13513 0.0
O17 O 0.13638 0.43337 0.20804 0.0
O18 O 0.24457 0.52547 0.05835 0.0
O19 O 0.02395 0.42281 0.14041 0.0
O20 O 0.06825 0.47059 0.02073 0.0
O21 O 0.16089 0.37974 0.06806 0.0
Sc22 Sc 0.55916 0.09619 0.638 0.0
Sc23 Sc 0.71273 0.15113 0.63358 0.0
Sc24 Sc 0.63623 0.16603 0.53892 0.0
O25 O 0.63771 0.14248 0.60602 0.0
C26 C 0.52667 0.05538 0.52817 0.0
C27 C 0.62054 0.01544 0.63784 0.0
C28 C 0.74999 0.16342 0.52395 0.0
C29 C 0.64014 0.13767 0.73046 0.0
C30 C 0.5392 0.18953 0.59666 0.0
C31 C 0.73486 0.2762 0.59494 0.0
O32 O 0.51 0.06176 0.56983 0.0
O33 O 0.67583 0.05229 0.63236 0.0
O34 O 0.69735 0.14195 0.51166 0.0
O35 O 0.59252 0.12442 0.70931 0.0
O36 O 0.56826 0.18948 0.5591 0.0
O37 O 0.74198 0.24617 0.62892 0.0
O38 O 0.53741 0.16297 0.63514 0.0
O39 O 0.68538 0.1452 0.70805 0.0
O40 O 0.70146 0.25339 0.55836 0.0
O41 O 0.58351 0.03278 0.64042 0.0
O42 O 0.58004 0.07708 0.52074 0.0
O43 O 0.76351 0.1697 0.56806 0.0
Sc44 Sc 0.44535 0.568 0.13799 0.0
Sc45 Sc 0.54399 0.72156 0.13358 0.0
Sc46 Sc 0.45258 0.64507 0.03891 0.0
O47 O 0.47761 0.64655 0.10601 0.0
C48 C 0.45367 0.5355 0.02816 0.0
C49 C 0.58747 0.62936 0.13784 0.0
C50 C 0.56895 0.75882 0.02395 0.0
C51 C 0.48484 0.64897 0.23046 0.0
C52 C 0.33205 0.54805 0.09665 0.0
C53 C 0.44104 0.7437 0.09494 0.0
O54 O 0.43061 0.51884 0.06983 0.0
O55 O 0.60592 0.68466 0.13236 0.0
O56 O 0.5378 0.70618 0.01167 0.0
O57 O 0.45047 0.60136 0.20931 0.0
O58 O 0.36116 0.57711 0.05908 0.0
O59 O 0.47819 0.75081 0.12892 0.0
O60 O 0.35682 0.54626 0.13513 0.0
O61 O 0.52256 0.69421 0.20804 0.0
O62 O 0.43046 0.71031 0.05835 0.0
O63 O 0.5331 0.59233 0.14042 0.0
O64 O 0.48533 0.58886 0.02073 0.0
O65 O 0.57619 0.77234 0.06806 0.0
Sc66 Sc 0.85972 0.45417 0.638 0.0
Sc67 Sc 0.80477 0.5528 0.63358 0.0
Sc68 Sc 0.78988 0.4614 0.53892 0.0
O69 O 0.81342 0.48642 0.60602 0.0
C70 C 0.90053 0.46248 0.52817 0.0
C71 C 0.94047 0.59629 0.63784 0.0
C72 C 0.79249 0.57776 0.52395 0.0
C73 C 0.81823 0.49366 0.73046 0.0
C74 C 0.76636 0.34087 0.59666 0.0
C75 C 0.6797 0.44985 0.59494 0.0
O76 O 0.89414 0.43943 0.56983 0.0
O77 O 0.90361 0.61473 0.63236 0.0
O78 O 0.81399 0.54662 0.51167 0.0
O79 O 0.83149 0.45929 0.70931 0.0
O80 O 0.76642 0.36998 0.55909 0.0
O81 O 0.70973 0.487 0.62893 0.0
O82 O 0.79293 0.36564 0.63514 0.0
O83 O 0.8107 0.53137 0.70805 0.0
O84 O 0.70251 0.43927 0.55835 0.0
O85 O 0.92313 0.54192 0.64042 0.0
O86 O 0.87883 0.49415 0.52073 0.0
O87 O 0.78619 0.58499 0.56806 0.0
Sc88 Sc 0.38792 0.86854 0.13799 0.0
Sc89 Sc 0.23435 0.81361 0.13358 0.0
Sc90 Sc 0.31085 0.79871 0.03891 0.0
O91 O 0.30937 0.82225 0.10601 0.0
C92 C 0.42041 0.90936 0.02817 0.0
C93 C 0.32654 0.9493 0.13784 0.0
C94 C 0.19709 0.80132 0.02394 0.0
C95 C 0.30694 0.82706 0.23046 0.0
C96 C 0.40788 0.7752 0.09665 0.0
C97 C 0.21222 0.68853 0.09494 0.0
O98 O 0.43708 0.90297 0.06983 0.0
O99 O 0.27125 0.91245 0.13236 0.0
O100 O 0.24973 0.82279 0.01166 0.0
O101 O 0.35456 0.84031 0.20931 0.0
O102 O 0.37882 0.77525 0.05909 0.0
O103 O 0.2051 0.71857 0.12892 0.0
O104 O 0.40967 0.80176 0.13514 0.0
O105 O 0.2617 0.81954 0.20804 0.0
O106 O 0.24562 0.71134 0.05835 0.0
O107 O 0.36357 0.93196 0.14041 0.0
O108 O 0.36704 0.88766 0.02073 0.0
O109 O 0.18357 0.79504 0.06806 0.0
Sc110 Sc 0.50173 0.39674 0.638 0.0
Sc111 Sc 0.40309 0.24317 0.63358 0.0
Sc112 Sc 0.4945 0.31967 0.53892 0.0
O113 O 0.46947 0.31819 0.60602 0.0
C114 C 0.49341 0.42923 0.52817 0.0
C115 C 0.3596 0.33537 0.63784 0.0
C116 C 0.37813 0.20592 0.52395 0.0
C117 C 0.46223 0.31576 0.73046 0.0
C118 C 0.61503 0.41669 0.59666 0.0
C119 C 0.50604 0.22103 0.59495 0.0
O120 O 0.51646 0.4459 0.56983 0.0
O121 O 0.34116 0.28008 0.63236 0.0
O122 O 0.40928 0.25856 0.51167 0.0
O123 O 0.4966 0.36338 0.70931 0.0
O124 O 0.58592 0.38763 0.55909 0.0
O125 O 0.46889 0.21392 0.62893 0.0
O126 O 0.59026 0.41848 0.63514 0.0
O127 O 0.42452 0.27052 0.70805 0.0
O128 O 0.51662 0.25443 0.55836 0.0
O129 O 0.41398 0.3724 0.64042 0.0
O130 O 0.46174 0.37587 0.52074 0.0
O131 O 0.37089 0.19239 0.56806 0.0
Sc132 Sc 0.45258 0.79872 0.97511 0.0
Sc133 Sc 0.54397 0.8136 0.88044 0.0
Sc134 Sc 0.44533 0.86853 0.87601 0.0
O135 O 0.4776 0.82225 0.908 0.0
C136 C 0.33203 0.7752 0.91737 0.0
C137 C 0.44102 0.68853 0.91908 0.0
C138 C 0.48483 0.82703 0.78355 0.0
C139 C 0.56897 0.80138 0.99006 0.0
C140 C 0.45371 0.90939 0.9858 0.0
C141 C 0.58746 0.94928 0.87617 0.0
O142 O 0.36115 0.77527 0.95493 0.0
O143 O 0.47817 0.71856 0.8851 0.0
O144 O 0.45045 0.84028 0.8047 0.0
O145 O 0.53778 0.82282 1.00237 0.0
O146 O 0.43061 0.90298 0.94416 0.0
O147 O 0.6059 0.91243 0.88166 0.0
O148 O 0.48535 0.88768 0.99327 0.0
O149 O 0.57616 0.79501 0.94596 0.0
O150 O 0.53309 0.93194 0.87358 0.0
O151 O 0.43044 0.71135 0.95567 0.0
O152 O 0.3568 0.80175 0.87888 0.0
O153 O 0.52255 0.81953 0.80597 0.0
Sc154 Sc 0.63623 0.4614 0.47511 0.0
Sc155 Sc 0.71274 0.55278 0.38044 0.0
Sc156 Sc 0.55917 0.45415 0.37601 0.0
O157 O 0.63772 0.48642 0.40801 0.0
C158 C 0.53922 0.34086 0.41738 0.0
C159 C 0.73486 0.44983 0.41909 0.0
C160 C 0.64016 0.49364 0.28356 0.0
C161 C 0.74995 0.57779 0.49006 0.0
C162 C 0.52668 0.46253 0.48581 0.0
C163 C 0.62055 0.59628 0.37617 0.0
O164 O 0.56826 0.36997 0.45494 0.0
O165 O 0.74197 0.48697 0.38511 0.0
O166 O 0.59254 0.45927 0.30471 0.0
O167 O 0.69733 0.54661 0.50237 0.0
O168 O 0.50999 0.43943 0.44417 0.0
O169 O 0.67584 0.61472 0.38166 0.0
O170 O 0.58004 0.49417 0.49328 0.0
O171 O 0.76352 0.58498 0.44596 0.0
O172 O 0.58351 0.54191 0.37358 0.0
O173 O 0.70147 0.43926 0.45569 0.0
O174 O 0.53743 0.36563 0.37889 0.0
O175 O 0.68539 0.53136 0.30597 0.0
Sc176 Sc 0.15719 0.64507 0.97511 0.0
Sc177 Sc 0.1423 0.72158 0.88044 0.0
Sc178 Sc 0.08739 0.56802 0.876 0.0
O179 O 0.13365 0.64656 0.908 0.0
C180 C 0.18073 0.54807 0.91737 0.0
C181 C 0.26737 0.74371 0.91908 0.0
C182 C 0.12887 0.64901 0.78355 0.0
C183 C 0.15452 0.7588 0.99006 0.0
C184 C 0.04652 0.53552 0.9858 0.0
C185 C 0.00661 0.62937 0.87617 0.0
O186 O 0.18066 0.57711 0.95494 0.0
O187 O 0.23734 0.75082 0.88509 0.0
O188 O 0.11564 0.60139 0.8047 0.0
O189 O 0.13306 0.70617 1.00236 0.0
O190 O 0.05293 0.51884 0.94416 0.0
O191 O 0.04346 0.68467 0.88166 0.0
O192 O 0.06823 0.58888 0.99327 0.0
O193 O 0.16089 0.77236 0.94596 0.0
O194 O 0.02396 0.59235 0.87357 0.0
O195 O 0.24455 0.71032 0.95567 0.0
O196 O 0.15418 0.54629 0.87888 0.0
O197 O 0.13637 0.69423 0.80597 0.0
Sc198 Sc 0.4945 0.16601 0.47511 0.0
Sc199 Sc 0.40311 0.15113 0.38044 0.0
Sc200 Sc 0.50175 0.0962 0.37601 0.0
O201 O 0.46948 0.14248 0.408 0.0
C202 C 0.61504 0.18953 0.41737 0.0
C203 C 0.50606 0.2762 0.41909 0.0
C204 C 0.46225 0.1377 0.28356 0.0
C205 C 0.37811 0.16335 0.49007 0.0
C206 C 0.49337 0.05534 0.48581 0.0
C207 C 0.35962 0.01545 0.37617 0.0
O208 O 0.58593 0.18947 0.45494 0.0
O209 O 0.46891 0.24617 0.3851 0.0
O210 O 0.49663 0.12446 0.3047 0.0
O211 O 0.4093 0.14191 0.50237 0.0
O212 O 0.51647 0.06175 0.44417 0.0
O213 O 0.34117 0.0523 0.38166 0.0
O214 O 0.46172 0.07705 0.49327 0.0
O215 O 0.37091 0.16972 0.44596 0.0
O216 O 0.41399 0.03279 0.37358 0.0
O217 O 0.51664 0.25338 0.45568 0.0
O218 O 0.59027 0.16298 0.37888 0.0
O219 O 0.42453 0.14521 0.30597 0.0
Sc220 Sc 0.31085 0.50333 0.97511 0.0
Sc221 Sc 0.23434 0.41195 0.88043 0.0
Sc222 Sc 0.38791 0.51058 0.87601 0.0
O223 O 0.30936 0.47831 0.908 0.0
C224 C 0.40786 0.62387 0.91737 0.0
C225 C 0.21222 0.5149 0.91908 0.0
C226 C 0.30692 0.47109 0.78355 0.0
C227 C 0.19712 0.38694 0.99006 0.0
C228 C 0.42039 0.5022 0.9858 0.0
C229 C 0.32653 0.36845 0.87616 0.0
O230 O 0.37881 0.59476 0.95493 0.0
O231 O 0.20511 0.47776 0.8851 0.0
O232 O 0.35454 0.50546 0.8047 0.0
O233 O 0.24975 0.41812 1.00236 0.0
O234 O 0.43709 0.5253 0.94416 0.0
O235 O 0.27124 0.35001 0.88166 0.0
O236 O 0.36704 0.47056 0.99327 0.0
O237 O 0.18356 0.37975 0.94595 0.0
O238 O 0.36357 0.42282 0.87358 0.0
O239 O 0.24561 0.52546 0.95568 0.0
O240 O 0.40964 0.5991 0.87888 0.0
O241 O 0.26169 0.43337 0.80596 0.0
Sc242 Sc 0.78989 0.31966 0.47511 0.0
Sc243 Sc 0.80478 0.24315 0.38044 0.0
Sc244 Sc 0.85969 0.39672 0.37601 0.0
O245 O 0.81342 0.31817 0.408 0.0
C246 C 0.76635 0.41666 0.41738 0.0
C247 C 0.67971 0.22102 0.41909 0.0
C248 C 0.81821 0.31573 0.28356 0.0
C249 C 0.79257 0.20594 0.49006 0.0
C250 C 0.90056 0.42921 0.48581 0.0
C251 C 0.94046 0.33536 0.37617 0.0
O252 O 0.76642 0.38761 0.45494 0.0
O253 O 0.70974 0.21391 0.3851 0.0
O254 O 0.83144 0.36334 0.3047 0.0
O255 O 0.81403 0.25857 0.50235 0.0
O256 O 0.89414 0.4459 0.44417 0.0
O257 O 0.90362 0.28006 0.38166 0.0
O258 O 0.87885 0.37585 0.49328 0.0
O259 O 0.78619 0.19237 0.44596 0.0
O260 O 0.92312 0.37238 0.37358 0.0
O261 O 0.70253 0.25441 0.45568 0.0
O262 O 0.7929 0.41844 0.37889 0.0
O263 O 0.81071 0.2705 0.30597 0.0
Sc264 Sc 0.85972 0.45416 0.87601 0.0
Sc265 Sc 0.80477 0.55279 0.88045 0.0
Sc266 Sc 0.78989 0.46139 0.97511 0.0
O267 O 0.81343 0.48642 0.908 0.0
C268 C 0.76636 0.34086 0.91737 0.0
C269 C 0.81822 0.49365 0.78356 0.0
C270 C 0.6797 0.44985 0.91908 0.0
C271 C 0.94046 0.59629 0.87615 0.0
C272 C 0.90056 0.46249 0.98584 0.0
C273 C 0.79248 0.57773 0.99008 0.0
O274 O 0.79294 0.36563 0.87889 0.0
O275 O 0.81072 0.53138 0.80598 0.0
O276 O 0.70252 0.43927 0.95567 0.0
O277 O 0.92313 0.54192 0.87357 0.0
O278 O 0.87883 0.49412 0.99329 0.0
O279 O 0.78617 0.58496 0.94597 0.0
O280 O 0.89417 0.43945 0.94417 0.0
O281 O 0.90361 0.61473 0.88168 0.0
O282 O 0.81401 0.54661 1.00234 0.0
O283 O 0.83146 0.45927 0.80471 0.0
O284 O 0.76641 0.36996 0.95493 0.0
O285 O 0.70973 0.48699 0.88509 0.0
Sc286 Sc 0.38792 0.86854 0.376 0.0
Sc287 Sc 0.23436 0.81361 0.38044 0.0
Sc288 Sc 0.31087 0.79871 0.4751 0.0
O289 O 0.30938 0.82226 0.408 0.0
C290 C 0.40789 0.7752 0.41736 0.0
C291 C 0.30694 0.82705 0.28356 0.0
C292 C 0.21223 0.68854 0.41907 0.0
C293 C 0.32654 0.94929 0.37615 0.0
C294 C 0.42044 0.90939 0.48583 0.0
C295 C 0.19712 0.80131 0.49007 0.0
O296 O 0.40968 0.80177 0.37888 0.0
O297 O 0.26171 0.81956 0.30597 0.0
O298 O 0.24562 0.71135 0.45566 0.0
O299 O 0.36357 0.93195 0.37356 0.0
O300 O 0.36707 0.88766 0.49329 0.0
O301 O 0.18358 0.79501 0.44596 0.0
O302 O 0.43709 0.903 0.44417 0.0
O303 O 0.27125 0.91244 0.38168 0.0
O304 O 0.24976 0.82282 0.50235 0.0
O305 O 0.35455 0.84028 0.3047 0.0
O306 O 0.37883 0.77525 0.45492 0.0
O307 O 0.20511 0.71857 0.38509 0.0
Sc308 Sc 0.50174 0.39674 0.87601 0.0
Sc309 Sc 0.4031 0.24318 0.88044 0.0
Sc310 Sc 0.4945 0.31968 0.97511 0.0
O311 O 0.46947 0.3182 0.908 0.0
C312 C 0.61504 0.41669 0.91737 0.0
C313 C 0.46224 0.31576 0.78356 0.0
C314 C 0.50603 0.22104 0.91907 0.0
C315 C 0.3596 0.33537 0.87615 0.0
C316 C 0.49341 0.42926 0.98584 0.0
C317 C 0.37816 0.20594 0.99007 0.0
O318 O 0.59027 0.41849 0.87889 0.0
O319 O 0.4245 0.27054 0.80597 0.0
O320 O 0.51661 0.25443 0.95567 0.0
O321 O 0.41398 0.3724 0.87356 0.0
O322 O 0.46177 0.3759 0.99329 0.0
O323 O 0.37092 0.1924 0.94596 0.0
O324 O 0.51645 0.44591 0.94417 0.0
O325 O 0.34116 0.28008 0.88168 0.0
O326 O 0.40927 0.25859 1.00234 0.0
O327 O 0.49663 0.36337 0.80471 0.0
O328 O 0.58593 0.38763 0.95493 0.0
O329 O 0.46889 0.21393 0.88509 0.0
Sc330 Sc 0.08736 0.51057 0.37601 0.0
Sc331 Sc 0.1423 0.41194 0.38044 0.0
Sc332 Sc 0.15719 0.50334 0.4751 0.0
O333 O 0.13365 0.47831 0.408 0.0
C334 C 0.18072 0.62387 0.41736 0.0
C335 C 0.12886 0.47109 0.28355 0.0
C336 C 0.26737 0.51488 0.41907 0.0
C337 C 0.00662 0.36844 0.37615 0.0
C338 C 0.04652 0.50225 0.48583 0.0
C339 C 0.1546 0.387 0.49007 0.0
O340 O 0.15414 0.5991 0.37888 0.0
O341 O 0.13636 0.43335 0.30597 0.0
O342 O 0.24456 0.52545 0.45566 0.0
O343 O 0.02395 0.42281 0.37356 0.0
O344 O 0.06825 0.47061 0.49329 0.0
O345 O 0.16091 0.37977 0.44596 0.0
O346 O 0.05291 0.52529 0.44416 0.0
O347 O 0.04347 0.35 0.38168 0.0
O348 O 0.13306 0.41811 0.50233 0.0
O349 O 0.11562 0.50547 0.3047 0.0
O350 O 0.18067 0.59477 0.45492 0.0
O351 O 0.23734 0.47774 0.38508 0.0
Sc352 Sc 0.55916 0.09619 0.87601 0.0
Sc353 Sc 0.71272 0.15112 0.88044 0.0
Sc354 Sc 0.63621 0.16602 0.9751 0.0
O355 O 0.6377 0.14247 0.908 0.0
C356 C 0.53919 0.18954 0.91736 0.0
C357 C 0.64014 0.13769 0.78356 0.0
C358 C 0.73486 0.27619 0.91907 0.0
C359 C 0.62054 0.01544 0.87615 0.0
C360 C 0.52664 0.05534 0.98584 0.0
C361 C 0.74996 0.16343 0.99008 0.0
O362 O 0.5374 0.16296 0.87888 0.0
O363 O 0.68537 0.14518 0.80597 0.0
O364 O 0.70146 0.25338 0.95566 0.0
O365 O 0.58351 0.03278 0.87356 0.0
O366 O 0.58001 0.07707 0.99329 0.0
O367 O 0.7635 0.16972 0.94597 0.0
O368 O 0.50999 0.06173 0.94417 0.0
O369 O 0.67583 0.05229 0.88168 0.0
O370 O 0.69732 0.1419 1.00235 0.0
O371 O 0.59253 0.12445 0.8047 0.0
O372 O 0.56825 0.18949 0.95493 0.0
O373 O 0.74197 0.24616 0.88509 0.0
Sc374 Sc 0.44534 0.56799 0.376 0.0
Sc375 Sc 0.54398 0.72155 0.38044 0.0
Sc376 Sc 0.45258 0.64505 0.4751 0.0
O377 O 0.4776 0.64653 0.408 0.0
C378 C 0.33204 0.54804 0.41736 0.0
C379 C 0.48483 0.64898 0.28356 0.0
C380 C 0.44104 0.74369 0.41907 0.0
C381 C 0.58748 0.62936 0.37615 0.0
C382 C 0.45367 0.53547 0.48583 0.0
C383 C 0.56891 0.75879 0.49007 0.0
O384 O 0.35681 0.54624 0.37888 0.0
O385 O 0.52257 0.6942 0.30597 0.0
O386 O 0.43046 0.7103 0.45566 0.0
O387 O 0.5331 0.59233 0.37356 0.0
O388 O 0.48531 0.58883 0.49328 0.0
O389 O 0.57616 0.77233 0.44596 0.0
O390 O 0.43063 0.51882 0.44416 0.0
O391 O 0.60591 0.68465 0.38168 0.0
O392 O 0.5378 0.70614 0.50233 0.0
O393 O 0.45045 0.60136 0.3047 0.0
O394 O 0.36115 0.5771 0.45492 0.0
O395 O 0.47818 0.7508 0.38508 0.0
Sc396 Sc 0.49451 0.16601 0.0389 0.0
Sc397 Sc 0.40312 0.15114 0.13357 0.0
Sc398 Sc 0.50175 0.0962 0.13802 0.0
O399 O 0.46949 0.14248 0.10601 0.0
C400 C 0.49336 0.05531 0.02822 0.0
C401 C 0.37814 0.16336 0.02394 0.0
C402 C 0.35962 0.01545 0.13787 0.0
C403 C 0.50606 0.27619 0.09493 0.0
C404 C 0.61505 0.18954 0.09664 0.0
C405 C 0.46226 0.13771 0.23046 0.0
O406 O 0.46175 0.07705 0.02073 0.0
O407 O 0.37094 0.16974 0.06804 0.0
O408 O 0.41399 0.03279 0.14047 0.0
O409 O 0.51663 0.25338 0.05834 0.0
O410 O 0.59028 0.16298 0.13513 0.0
O411 O 0.42452 0.14519 0.20804 0.0
O412 O 0.58594 0.18947 0.05908 0.0
O413 O 0.46892 0.24617 0.12892 0.0
O414 O 0.49666 0.12449 0.20931 0.0
O415 O 0.40929 0.14188 0.01165 0.0
O416 O 0.51646 0.06172 0.06987 0.0
O417 O 0.34118 0.0523 0.13232 0.0
Sc418 Sc 0.31087 0.50334 0.53889 0.0
Sc419 Sc 0.23435 0.41196 0.63356 0.0
Sc420 Sc 0.38791 0.51059 0.63801 0.0
O421 O 0.30938 0.47832 0.606 0.0
C422 C 0.42043 0.5022 0.52821 0.0
C423 C 0.19715 0.38698 0.52394 0.0
C424 C 0.32653 0.36845 0.63787 0.0
C425 C 0.21223 0.5149 0.59492 0.0
C426 C 0.40787 0.62388 0.59663 0.0
C427 C 0.30692 0.4711 0.73045 0.0
O428 O 0.36707 0.47059 0.52072 0.0
O429 O 0.18357 0.37979 0.56804 0.0
O430 O 0.36356 0.42282 0.64047 0.0
O431 O 0.24562 0.52547 0.55832 0.0
O432 O 0.40966 0.59911 0.63512 0.0
O433 O 0.2617 0.43336 0.70803 0.0
O434 O 0.37882 0.59477 0.55907 0.0
O435 O 0.20512 0.47777 0.62891 0.0
O436 O 0.35453 0.50549 0.70931 0.0
O437 O 0.24978 0.41812 0.51165 0.0
O438 O 0.4371 0.52529 0.56986 0.0
O439 O 0.27124 0.35002 0.63232 0.0
Sc440 Sc 0.7899 0.31968 0.0389 0.0
Sc441 Sc 0.80478 0.24316 0.13357 0.0
Sc442 Sc 0.85969 0.39672 0.13802 0.0
O443 O 0.81343 0.31819 0.10601 0.0
C444 C 0.90059 0.42924 0.02822 0.0
C445 C 0.79256 0.20596 0.02395 0.0
C446 C 0.94046 0.33536 0.13787 0.0
C447 C 0.67971 0.22104 0.09493 0.0
C448 C 0.76635 0.41668 0.09664 0.0
C449 C 0.81819 0.31573 0.23046 0.0
O450 O 0.87885 0.37588 0.02073 0.0
O451 O 0.78617 0.19238 0.06805 0.0
O452 O 0.92312 0.37239 0.14048 0.0
O453 O 0.70253 0.25442 0.05833 0.0
O454 O 0.79291 0.41846 0.13512 0.0
O455 O 0.81073 0.27051 0.20804 0.0
O456 O 0.76642 0.38763 0.05907 0.0
O457 O 0.70974 0.21393 0.12892 0.0
O458 O 0.8314 0.36334 0.20931 0.0
O459 O 0.81406 0.2586 0.01166 0.0
O460 O 0.89417 0.44591 0.06987 0.0
O461 O 0.90362 0.28007 0.13232 0.0
Sc462 Sc 0.45257 0.79873 0.5389 0.0
Sc463 Sc 0.54397 0.8136 0.63356 0.0
Sc464 Sc 0.44533 0.86853 0.63801 0.0
O465 O 0.47759 0.82226 0.60601 0.0
C466 C 0.45372 0.90943 0.52822 0.0
C467 C 0.56894 0.80137 0.52394 0.0
C468 C 0.58746 0.94928 0.63787 0.0
C469 C 0.44102 0.68854 0.59492 0.0
C470 C 0.33203 0.7752 0.59664 0.0
C471 C 0.48482 0.82702 0.73045 0.0
O472 O 0.48533 0.88769 0.52073 0.0
O473 O 0.57614 0.79499 0.56804 0.0
O474 O 0.53309 0.93194 0.64047 0.0
O475 O 0.43045 0.71136 0.55833 0.0
O476 O 0.3568 0.80176 0.63512 0.0
O477 O 0.52256 0.81955 0.70804 0.0
O478 O 0.36114 0.77526 0.55907 0.0
O479 O 0.47816 0.71857 0.62891 0.0
O480 O 0.45042 0.84025 0.70931 0.0
O481 O 0.53779 0.82286 0.51165 0.0
O482 O 0.43062 0.90301 0.56986 0.0
O483 O 0.6059 0.91243 0.63232 0.0
Sc484 Sc 0.63622 0.4614 0.0389 0.0
Sc485 Sc 0.71273 0.55278 0.13357 0.0
Sc486 Sc 0.55917 0.45415 0.13802 0.0
O487 O 0.6377 0.48642 0.10601 0.0
C488 C 0.52665 0.46254 0.02822 0.0
C489 C 0.74993 0.57776 0.02395 0.0
C490 C 0.62055 0.59628 0.13787 0.0
C491 C 0.73485 0.44984 0.09493 0.0
C492 C 0.53922 0.34086 0.09664 0.0
C493 C 0.64016 0.49363 0.23046 0.0
O494 O 0.58001 0.49415 0.02073 0.0
O495 O 0.76351 0.58495 0.06805 0.0
O496 O 0.58351 0.54191 0.14047 0.0
O497 O 0.70147 0.43928 0.05833 0.0
O498 O 0.53742 0.36562 0.13512 0.0
O499 O 0.68538 0.53138 0.20804 0.0
O500 O 0.56827 0.36997 0.05907 0.0
O501 O 0.74196 0.48697 0.12892 0.0
O502 O 0.59255 0.45924 0.20931 0.0
O503 O 0.6973 0.54662 0.01166 0.0
O504 O 0.50998 0.43944 0.06987 0.0
O505 O 0.67584 0.61472 0.13233 0.0
Sc506 Sc 0.15718 0.64506 0.5389 0.0
Sc507 Sc 0.1423 0.72158 0.63356 0.0
Sc508 Sc 0.08739 0.56801 0.63801 0.0
O509 O 0.13365 0.64655 0.60601 0.0
C510 C 0.04649 0.5355 0.52822 0.0
C511 C 0.15452 0.75878 0.52394 0.0
C512 C 0.00662 0.62938 0.63787 0.0
C513 C 0.26736 0.7437 0.59493 0.0
C514 C 0.18074 0.54807 0.59663 0.0
C515 C 0.12889 0.64901 0.73045 0.0
O516 O 0.06823 0.58885 0.52072 0.0
O517 O 0.16091 0.77236 0.56804 0.0
O518 O 0.02396 0.59235 0.64047 0.0
O519 O 0.24454 0.71032 0.55833 0.0
O520 O 0.15418 0.54628 0.63512 0.0
O521 O 0.13635 0.69422 0.70804 0.0
O522 O 0.18067 0.57712 0.55906 0.0
O523 O 0.23734 0.75081 0.62892 0.0
O524 O 0.11568 0.6014 0.70931 0.0
O525 O 0.13301 0.70614 0.51167 0.0
O526 O 0.05291 0.51883 0.56986 0.0
O527 O 0.04346 0.68467 0.63232 0.0
loop_
_geom_bond_atom_site_label_1
_geom_bond_atom_site_label_2
_geom_bond_distance
_geom_bond_site_symmetry_2
_ccdc_geom_bond_type
Sc0 O3 2.025 . S
Sc0 O10 2.105 . S
Sc0 O13 2.105 . S
Sc0 O16 2.105 . S
Sc0 O19 2.105 . S
Sc1 O3 2.025 . S
Sc1 O11 2.105 . S
Sc1 O15 2.105 . S
Sc1 O17 2.105 . S
Sc1 O21 2.105 . S
Sc2 O3 2.025 . S
Sc2 O12 2.105 . S
Sc2 O14 2.105 . S
Sc2 O18 2.105 . S
Sc2 O20 2.105 . S
O3 Sc0 2.025 . S
O3 Sc1 2.025 . S
O3 Sc2 2.025 . S
C4 O10 1.268 . S
C4 O20 1.268 . S
C5 O11 1.268 . S
C5 O19 1.268 . S
C6 O12 1.268 . S
C6 O21 1.268 . S
C7 O13 1.268 . S
C7 O17 1.268 . S
C8 O14 1.268 . S
C8 O16 1.268 . S
C9 O15 1.268 . S
C9 O18 1.268 . S
O10 Sc0 2.105 . S
O10 C4 1.268 . S
O11 Sc1 2.105 . S
O11 C5 1.268 . S
O12 Sc2 2.105 . S
O12 C6 1.268 . S
O13 Sc0 2.105 . S
O13 C7 1.268 . S
O14 Sc2 2.105 . S
O14 C8 1.268 . S
O15 Sc1 2.105 . S
O15 C9 1.268 . S
O16 Sc0 2.105 . S
O16 C8 1.268 . S
O17 Sc1 2.105 . S
O17 C7 1.268 . S
O18 Sc2 2.105 . S
O18 C9 1.268 . S
O19 Sc0 2.105 . S
O19 C5 1.268 . S
O20 Sc2 2.105 . S
O20 C4 1.268 . S
O21 Sc1 2.105 . S
O21 C6 1.268 . S
Sc22 O25 2.025 . S
Sc22 O32 2.105 . S
Sc22 O35 2.105 . S
Sc22 O38 2.105 . S
Sc22 O41 2.105 . S
Sc23 O25 2.025 . S
Sc23 O33 2.105 . S
Sc23 O37 2.105 . S
Sc23 O39 2.105 . S
Sc23 O43 2.105 . S
Sc24 O25 2.025 . S
Sc24 O34 2.105 . S
Sc24 O36 2.105 . S
Sc24 O40 2.105 . S
Sc24 O42 2.105 . S
O25 Sc22 2.025 . S
O25 Sc23 2.025 . S
O25 Sc24 2.025 . S
C26 O32 1.268 . S
C26 O42 1.268 . S
C27 O33 1.268 . S
C27 O41 1.268 . S
C28 O34 1.268 . S
C28 O43 1.268 . S
C29 O35 1.268 . S
C29 O39 1.268 . S
C30 O36 1.268 . S
C30 O38 1.268 . S
C31 O37 1.268 . S
C31 O40 1.268 . S
O32 Sc22 2.105 . S
O32 C26 1.268 . S
O33 Sc23 2.105 . S
O33 C27 1.268 . S
O34 Sc24 2.105 . S
O34 C28 1.268 . S
O35 Sc22 2.105 . S
O35 C29 1.268 . S
O36 Sc24 2.105 . S
O36 C30 1.268 . S
O37 Sc23 2.105 . S
O37 C31 1.268 . S
O38 Sc22 2.105 . S
O38 C30 1.268 . S
O39 Sc23 2.105 . S
O39 C29 1.268 . S
O40 Sc24 2.105 . S
O40 C31 1.268 . S
O41 Sc22 2.105 . S
O41 C27 1.268 . S
O42 Sc24 2.105 . S
O42 C26 1.268 . S
O43 Sc23 2.105 . S
O43 C28 1.268 . S
Sc44 O47 2.025 . S
Sc44 O54 2.105 . S
Sc44 O57 2.105 . S
Sc44 O60 2.105 . S
Sc44 O63 2.105 . S
Sc45 O47 2.025 . S
Sc45 O55 2.105 . S
Sc45 O59 2.105 . S
Sc45 O61 2.105 . S
Sc45 O65 2.105 . S
Sc46 O47 2.025 . S
Sc46 O56 2.105 . S
Sc46 O58 2.105 . S
Sc46 O62 2.105 . S
Sc46 O64 2.105 . S
O47 Sc44 2.025 . S
O47 Sc45 2.025 . S
O47 Sc46 2.025 . S
C48 O54 1.268 . S
C48 O64 1.268 . S
C49 O55 1.268 . S
C49 O63 1.268 . S
C50 O56 1.268 . S
C50 O65 1.268 . S
C51 O57 1.268 . S
C51 O61 1.268 . S
C52 O58 1.268 . S
C52 O60 1.268 . S
C53 O59 1.268 . S
C53 O62 1.268 . S
O54 Sc44 2.105 . S
O54 C48 1.268 . S
O55 Sc45 2.105 . S
O55 C49 1.268 . S
O56 Sc46 2.105 . S
O56 C50 1.268 . S
O57 Sc44 2.105 . S
O57 C51 1.268 . S
O58 Sc46 2.105 . S
O58 C52 1.268 . S
O59 Sc45 2.105 . S
O59 C53 1.268 . S
O60 Sc44 2.105 . S
O60 C52 1.268 . S
O61 Sc45 2.105 . S
O61 C51 1.268 . S
O62 Sc46 2.105 . S
O62 C53 1.268 . S
O63 Sc44 2.105 . S
O63 C49 1.268 . S
O64 Sc46 2.105 . S
O64 C48 1.268 . S
O65 Sc45 2.105 . S
O65 C50 1.268 . S
Sc66 O69 2.025 . S
Sc66 O76 2.105 . S
Sc66 O79 2.105 . S
Sc66 O82 2.105 . S
Sc66 O85 2.105 . S
Sc67 O69 2.025 . S
Sc67 O77 2.105 . S
Sc67 O81 2.105 . S
Sc67 O83 2.105 . S
Sc67 O87 2.105 . S
Sc68 O69 2.025 . S
Sc68 O78 2.105 . S
Sc68 O80 2.105 . S
Sc68 O84 2.105 . S
Sc68 O86 2.105 . S
O69 Sc66 2.025 . S
O69 Sc67 2.025 . S
O69 Sc68 2.025 . S
C70 O76 1.268 . S
C70 O86 1.268 . S
C71 O77 1.268 . S
C71 O85 1.268 . S
C72 O78 1.268 . S
C72 O87 1.268 . S
C73 O79 1.268 . S
C73 O83 1.268 . S
C74 O80 1.268 . S
C74 O82 1.268 . S
C75 O81 1.268 . S
C75 O84 1.268 . S
O76 Sc66 2.105 . S
O76 C70 1.268 . S
O77 Sc67 2.105 . S
O77 C71 1.268 . S
O78 Sc68 2.105 . S
O78 C72 1.268 . S
O79 Sc66 2.105 . S
O79 C73 1.268 . S
O80 Sc68 2.105 . S
O80 C74 1.268 . S
O81 Sc67 2.105 . S
O81 C75 1.268 . S
O82 Sc66 2.105 . S
O82 C74 1.268 . S
O83 Sc67 2.105 . S
O83 C73 1.268 . S
O84 Sc68 2.105 . S
O84 C75 1.268 . S
O85 Sc66 2.105 . S
O85 C71 1.268 . S
O86 Sc68 2.105 . S
O86 C70 1.268 . S
O87 Sc67 2.105 . S
O87 C72 1.268 . S
Sc88 O91 2.025 . S
Sc88 O98 2.105 . S
Sc88 O101 2.105 . S
Sc88 O104 2.105 . S
Sc88 O107 2.105 . S
Sc89 O91 2.025 . S
Sc89 O99 2.105 . S
Sc89 O103 2.105 . S
Sc89 O105 2.105 . S
Sc89 O109 2.105 . S
Sc90 O91 2.025 . S
Sc90 O100 2.105 . S
Sc90 O102 2.105 . S
Sc90 O106 2.105 . S
Sc90 O108 2.105 . S
O91 Sc88 2.025 . S
O91 Sc89 2.025 . S
O91 Sc90 2.025 . S
C92 O98 1.268 . S
C92 O108 1.268 . S
C93 O99 1.268 . S
C93 O107 1.268 . S
C94 O100 1.268 . S
C94 O109 1.268 . S
C95 O101 1.268 . S
C95 O105 1.268 . S
C96 O102 1.268 . S
C96 O104 1.268 . S
C97 O103 1.268 . S
C97 O106 1.268 . S
O98 Sc88 2.105 . S
O98 C92 1.268 . S
O99 Sc89 2.105 . S
O99 C93 1.268 . S
O100 Sc90 2.105 . S
O100 C94 1.268 . S
O101 Sc88 2.105 . S
O101 C95 1.268 . S
O102 Sc90 2.105 . S
O102 C96 1.268 . S
O103 Sc89 2.105 . S
O103 C97 1.268 . S
O104 Sc88 2.105 . S
O104 C96 1.268 . S
O105 Sc89 2.105 . S
O105 C95 1.268 . S
O106 Sc90 2.105 . S
O106 C97 1.268 . S
O107 Sc88 2.105 . S
O107 C93 1.268 . S
O108 Sc90 2.105 . S
O108 C92 1.268 . S
O109 Sc89 2.105 . S
O109 C94 1.268 . S
Sc110 O113 2.025 . S
Sc110 O120 2.105 . S
Sc110 O123 2.105 . S
Sc110 O126 2.105 . S
Sc110 O129 2.105 . S
Sc111 O113 2.025 . S
Sc111 O121 2.105 . S
Sc111 O125 2.105 . S
Sc111 O127 2.105 . S
Sc111 O131 2.105 . S
Sc112 O113 2.025 . S
Sc112 O122 2.105 . S
Sc112 O124 2.105 . S
Sc112 O128 2.105 . S
Sc112 O130 2.105 . S
O113 Sc110 2.025 . S
O113 Sc111 2.025 . S
O113 Sc112 2.025 . S
C114 O120 1.268 . S
C114 O130 1.268 . S
C115 O121 1.268 . S
C115 O129 1.268 . S
C116 O122 1.268 . S
C116 O131 1.268 . S
C117 O123 1.268 . S
C117 O127 1.268 . S
C118 O124 1.268 . S
C118 O126 1.268 . S
C119 O125 1.268 . S
C119 O128 1.268 . S
O120 Sc110 2.105 . S
O120 C114 1.268 . S
O121 Sc111 2.105 . S
O121 C115 1.268 . S
O122 Sc112 2.105 . S
O122 C116 1.268 . S
O123 Sc110 2.105 . S
O123 C117 1.268 . S
O124 Sc112 2.105 . S
O124 C118 1.268 . S
O125 Sc111 2.105 . S
O125 C119 1.268 . S
O126 Sc110 2.105 . S
O126 C118 1.268 . S
O127 Sc111 2.105 . S
O127 C117 1.268 . S
O128 Sc112 2.105 . S
O128 C119 1.268 . S
O129 Sc110 2.105 . S
O129 C115 1.268 . S
O130 Sc112 2.105 . S
O130 C114 1.268 . S
O131 Sc111 2.105 . S
O131 C116 1.268 . S
Sc132 O135 2.025 . S
Sc132 O142 2.105 . S
Sc132 O145 2.105 . S
Sc132 O148 2.105 . S
Sc132 O151 2.105 . S
Sc133 O135 2.025 . S
Sc133 O143 2.105 . S
Sc133 O147 2.105 . S
Sc133 O149 2.105 . S
Sc133 O153 2.105 . S
Sc134 O135 2.025 . S
Sc134 O144 2.105 . S
Sc134 O146 2.105 . S
Sc134 O150 2.105 . S
Sc134 O152 2.105 . S
O135 Sc132 2.025 . S
O135 Sc133 2.025 . S
O135 Sc134 2.025 . S
C136 O142 1.268 . S
C136 O152 1.268 . S
C137 O143 1.268 . S
C137 O151 1.268 . S
C138 O144 1.268 . S
C138 O153 1.268 . S
C139 O145 1.268 . S
C139 O149 1.268 . S
C140 O146 1.268 . S
C140 O148 1.268 . S
C141 O147 1.268 . S
C141 O150 1.268 . S
O142 Sc132 2.105 . S
O142 C136 1.268 . S
O143 Sc133 2.105 . S
O143 C137 1.268 . S
O144 Sc134 2.105 . S
O144 C138 1.268 . S
O145 Sc132 2.105 . S
O145 C139 1.268 . S
O146 Sc134 2.105 . S
O146 C140 1.268 . S
O147 Sc133 2.105 . S
O147 C141 1.268 . S
O148 Sc132 2.105 . S
O148 C140 1.268 . S
O149 Sc133 2.105 . S
O149 C139 1.268 . S
O150 Sc134 2.105 . S
O150 C141 1.268 . S
O151 Sc132 2.105 . S
O151 C137 1.268 . S
O152 Sc134 2.105 . S
O152 C136 1.268 . S
O153 Sc133 2.105 . S
O153 C138 1.268 . S
Sc154 O157 2.025 . S
Sc154 O164 2.105 . S
Sc154 O167 2.105 . S
Sc154 O170 2.105 . S
Sc154 O173 2.105 . S
Sc155 O157 2.025 . S
Sc155 O165 2.105 . S
Sc155 O169 2.105 . S
Sc155 O171 2.105 . S
Sc155 O175 2.105 . S
Sc156 O157 2.025 . S
Sc156 O166 2.105 . S
Sc156 O168 2.105 . S
Sc156 O172 2.105 . S
Sc156 O174 2.105 . S
O157 Sc154 2.025 . S
O157 Sc155 2.025 . S
O157 Sc156 2.025 . S
C158 O164 1.268 . S
C158 O174 1.268 . S
C159 O165 1.268 . S
C159 O173 1.268 . S
C160 O166 1.268 . S
C160 O175 1.268 . S
C161 O167 1.268 . S
C161 O171 1.268 . S
C162 O168 1.268 . S
C162 O170 1.268 . S
C163 O169 1.268 . S
C163 O172 1.268 . S
O164 Sc154 2.105 . S
O164 C158 1.268 . S
O165 Sc155 2.105 . S
O165 C159 1.268 . S
O166 Sc156 2.105 . S
O166 C160 1.268 . S
O167 Sc154 2.105 . S
O167 C161 1.268 . S
O168 Sc156 2.105 . S
O168 C162 1.268 . S
O169 Sc155 2.105 . S
O169 C163 1.268 . S
O170 Sc154 2.105 . S
O170 C162 1.268 . S
O171 Sc155 2.105 . S
O171 C161 1.268 . S
O172 Sc156 2.105 . S
O172 C163 1.268 . S
O173 Sc154 2.105 . S
O173 C159 1.268 . S
O174 Sc156 2.105 . S
O174 C158 1.268 . S
O175 Sc155 2.105 . S
O175 C160 1.268 . S
Sc176 O179 2.025 . S
Sc176 O186 2.105 . S
Sc176 O189 2.105 . S
Sc176 O192 2.105 . S
Sc176 O195 2.105 . S
Sc177 O179 2.025 . S
Sc177 O187 2.105 . S
Sc177 O191 2.105 . S
Sc177 O193 2.105 . S
Sc177 O197 2.105 . S
Sc178 O179 2.025 . S
Sc178 O188 2.105 . S
Sc178 O190 2.105 . S
Sc178 O194 2.105 . S
Sc178 O196 2.105 . S
O179 Sc176 2.025 . S
O179 Sc177 2.025 . S
O179 Sc178 2.025 . S
C180 O186 1.268 . S
C180 O196 1.268 . S
C181 O187 1.268 . S
C181 O195 1.268 . S
C182 O188 1.268 . S
C182 O197 1.268 . S
C183 O189 1.268 . S
C183 O193 1.268 . S
C184 O190 1.268 . S
C184 O192 1.268 . S
C185 O191 1.268 . S
C185 O194 1.268 . S
O186 Sc176 2.105 . S
O186 C180 1.268 . S
O187 Sc177 2.105 . S
O187 C181 1.268 . S
O188 Sc178 2.105 . S
O188 C182 1.268 . S
O189 Sc176 2.105 . S
O189 C183 1.268 . S
O190 Sc178 2.105 . S
O190 C184 1.268 . S
O191 Sc177 2.105 . S
O191 C185 1.268 . S
O192 Sc176 2.105 . S
O192 C184 1.268 . S
O193 Sc177 2.105 . S
O193 C183 1.268 . S
O194 Sc178 2.105 . S
O194 C185 1.268 . S
O195 Sc176 2.105 . S
O195 C181 1.268 . S
O196 Sc178 2.105 . S
O196 C180 1.268 . S
O197 Sc177 2.105 . S
O197 C182 1.268 . S
Sc198 O201 2.025 . S
Sc198 O208 2.105 . S
Sc198 O211 2.105 . S
Sc198 O214 2.105 . S
Sc198 O217 2.105 . S
Sc199 O201 2.025 . S
Sc199 O209 2.105 . S
Sc199 O213 2.105 . S
Sc199 O215 2.105 . S
Sc199 O219 2.105 . S
Sc200 O201 2.025 . S
Sc200 O210 2.105 . S
Sc200 O212 2.105 . S
Sc200 O216 2.105 . S
Sc200 O218 2.105 . S
O201 Sc198 2.025 . S
O201 Sc199 2.025 . S
O201 Sc200 2.025 . S
C202 O208 1.268 . S
C202 O218 1.268 . S
C203 O209 1.268 . S
C203 O217 1.268 . S
C204 O210 1.268 . S
C204 O219 1.268 . S
C205 O211 1.268 . S
C205 O215 1.268 . S
C206 O212 1.268 . S
C206 O214 1.268 . S
C207 O213 1.268 . S
C207 O216 1.268 . S
O208 Sc198 2.105 . S
O208 C202 1.268 . S
O209 Sc199 2.105 . S
O209 C203 1.268 . S
O210 Sc200 2.105 . S
O210 C204 1.268 . S
O211 Sc198 2.105 . S
O211 C205 1.268 . S
O212 Sc200 2.105 . S
O212 C206 1.268 . S
O213 Sc199 2.105 . S
O213 C207 1.268 . S
O214 Sc198 2.105 . S
O214 C206 1.268 . S
O215 Sc199 2.105 . S
O215 C205 1.268 . S
O216 Sc200 2.105 . S
O216 C207 1.268 . S
O217 Sc198 2.105 . S
O217 C203 1.268 . S
O218 Sc200 2.105 . S
O218 C202 1.268 . S
O219 Sc199 2.105 . S
O219 C204 1.268 . S
Sc220 O223 2.025 . S
Sc220 O230 2.105 . S
Sc220 O233 2.105 . S
Sc220 O236 2.105 . S
Sc220 O239 2.105 . S
Sc221 O223 2.025 . S
Sc221 O231 2.105 . S
Sc221 O235 2.105 . S
Sc221 O237 2.105 . S
Sc221 O241 2.105 . S
Sc222 O223 2.025 . S
Sc222 O232 2.105 . S
Sc222 O234 2.105 . S
Sc222 O238 2.105 . S
Sc222 O240 2.105 . S
O223 Sc220 2.025 . S
O223 Sc221 2.025 . S
O223 Sc222 2.025 . S
C224 O230 1.268 . S
C224 O240 1.268 . S
C225 O231 1.268 . S
C225 O239 1.268 . S
C226 O232 1.268 . S
C226 O241 1.268 . S
C227 O233 1.268 . S
C227 O237 1.268 . S
C228 O234 1.268 . S
C228 O236 1.268 . S
C229 O235 1.268 . S
C229 O238 1.268 . S
O230 Sc220 2.105 . S
O230 C224 1.268 . S
O231 Sc221 2.105 . S
O231 C225 1.268 . S
O232 Sc222 2.105 . S
O232 C226 1.268 . S
O233 Sc220 2.105 . S
O233 C227 1.268 . S
O234 Sc222 2.105 . S
O234 C228 1.268 . S
O235 Sc221 2.105 . S
O235 C229 1.268 . S
O236 Sc220 2.105 . S
O236 C228 1.268 . S
O237 Sc221 2.105 . S
O237 C227 1.268 . S
O238 Sc222 2.105 . S
O238 C229 1.268 . S
O239 Sc220 2.105 . S
O239 C225 1.268 . S
O240 Sc222 2.105 . S
O240 C224 1.268 . S
O241 Sc221 2.105 . S
O241 C226 1.268 . S
Sc242 O245 2.025 . S
Sc242 O252 2.105 . S
Sc242 O255 2.105 . S
Sc242 O258 2.105 . S
Sc242 O261 2.105 . S
Sc243 O245 2.025 . S
Sc243 O253 2.105 . S
Sc243 O257 2.105 . S
Sc243 O259 2.105 . S
Sc243 O263 2.105 . S
Sc244 O245 2.025 . S
Sc244 O254 2.105 . S
Sc244 O256 2.105 . S
Sc244 O260 2.105 . S
Sc244 O262 2.105 . S
O245 Sc242 2.025 . S
O245 Sc243 2.025 . S
O245 Sc244 2.025 . S
C246 O252 1.268 . S
C246 O262 1.268 . S
C247 O253 1.268 . S
C247 O261 1.268 . S
C248 O254 1.268 . S
C248 O263 1.268 . S
C249 O255 1.268 . S
C249 O259 1.268 . S
C250 O256 1.268 . S
C250 O258 1.268 . S
C251 O257 1.268 . S
C251 O260 1.268 . S
O252 Sc242 2.105 . S
O252 C246 1.268 . S
O253 Sc243 2.105 . S
O253 C247 1.268 . S
O254 Sc244 2.105 . S
O254 C248 1.268 . S
O255 Sc242 2.105 . S
O255 C249 1.268 . S
O256 Sc244 2.105 . S
O256 C250 1.268 . S
O257 Sc243 2.105 . S
O257 C251 1.268 . S
O258 Sc242 2.105 . S
O258 C250 1.268 . S
O259 Sc243 2.105 . S
O259 C249 1.268 . S
O260 Sc244 2.105 . S
O260 C251 1.268 . S
O261 Sc242 2.105 . S
O261 C247 1.268 . S
O262 Sc244 2.105 . S
O262 C246 1.268 . S
O263 Sc243 2.105 . S
O263 C248 1.268 . S
Sc264 O267 2.025 . S
Sc264 O274 2.105 . S
Sc264 O277 2.105 . S
Sc264 O280 2.105 . S
Sc264 O283 2.105 . S
Sc265 O267 2.025 . S
Sc265 O275 2.105 . S
Sc265 O279 2.105 . S
Sc265 O281 2.105 . S
Sc265 O285 2.105 . S
Sc266 O267 2.025 . S
Sc266 O276 2.105 . S
Sc266 O278 2.105 . S
Sc266 O282 2.105 . S
Sc266 O284 2.105 . S
O267 Sc264 2.025 . S
O267 Sc265 2.025 . S
O267 Sc266 2.025 . S
C268 O274 1.268 . S
C268 O284 1.268 . S
C269 O275 1.268 . S
C269 O283 1.268 . S
C270 O276 1.268 . S
C270 O285 1.268 . S
C271 O277 1.268 . S
C271 O281 1.268 . S
C272 O278 1.268 . S
C272 O280 1.268 . S
C273 O279 1.268 . S
C273 O282 1.268 . S
O274 Sc264 2.105 . S
O274 C268 1.268 . S
O275 Sc265 2.105 . S
O275 C269 1.268 . S
O276 Sc266 2.105 . S
O276 C270 1.268 . S
O277 Sc264 2.105 . S
O277 C271 1.268 . S
O278 Sc266 2.105 . S
O278 C272 1.268 . S
O279 Sc265 2.105 . S
O279 C273 1.268 . S
O280 Sc264 2.105 . S
O280 C272 1.268 . S
O281 Sc265 2.105 . S
O281 C271 1.268 . S
O282 Sc266 2.105 . S
O282 C273 1.268 . S
O283 Sc264 2.105 . S
O283 C269 1.268 . S
O284 Sc266 2.105 . S
O284 C268 1.268 . S
O285 Sc265 2.105 . S
O285 C270 1.268 . S
Sc286 O289 2.025 . S
Sc286 O296 2.105 . S
Sc286 O299 2.105 . S
Sc286 O302 2.105 . S
Sc286 O305 2.105 . S
Sc287 O289 2.025 . S
Sc287 O297 2.105 . S
Sc287 O301 2.105 . S
Sc287 O303 2.105 . S
Sc287 O307 2.105 . S
Sc288 O289 2.025 . S
Sc288 O298 2.105 . S
Sc288 O300 2.105 . S
Sc288 O304 2.105 . S
Sc288 O306 2.105 . S
O289 Sc286 2.025 . S
O289 Sc287 2.025 . S
O289 Sc288 2.025 . S
C290 O296 1.268 . S
C290 O306 1.268 . S
C291 O297 1.268 . S
C291 O305 1.268 . S
C292 O298 1.268 . S
C292 O307 1.268 . S
C293 O299 1.268 . S
C293 O303 1.268 . S
C294 O300 1.268 . S
C294 O302 1.268 . S
C295 O301 1.268 . S
C295 O304 1.268 . S
O296 Sc286 2.105 . S
O296 C290 1.268 . S
O297 Sc287 2.105 . S
O297 C291 1.268 . S
O298 Sc288 2.105 . S
O298 C292 1.268 . S
O299 Sc286 2.105 . S
O299 C293 1.268 . S
O300 Sc288 2.105 . S
O300 C294 1.268 . S
O301 Sc287 2.105 . S
O301 C295 1.268 . S
O302 Sc286 2.105 . S
O302 C294 1.268 . S
O303 Sc287 2.105 . S
O303 C293 1.268 . S
O304 Sc288 2.105 . S
O304 C295 1.268 . S
O305 Sc286 2.105 . S
O305 C291 1.268 . S
O306 Sc288 2.105 . S
O306 C290 1.268 . S
O307 Sc287 2.105 . S
O307 C292 1.268 . S
Sc308 O311 2.025 . S
Sc308 O318 2.105 . S
Sc308 O321 2.105 . S
Sc308 O324 2.105 . S
Sc308 O327 2.105 . S
Sc309 O311 2.025 . S
Sc309 O319 2.105 . S
Sc309 O323 2.105 . S
Sc309 O325 2.105 . S
Sc309 O329 2.105 . S
Sc310 O311 2.025 . S
Sc310 O320 2.105 . S
Sc310 O322 2.105 . S
Sc310 O326 2.105 . S
Sc310 O328 2.105 . S
O311 Sc308 2.025 . S
O311 Sc309 2.025 . S
O311 Sc310 2.025 . S
C312 O318 1.268 . S
C312 O328 1.268 . S
C313 O319 1.268 . S
C313 O327 1.268 . S
C314 O320 1.268 . S
C314 O329 1.268 . S
C315 O321 1.268 . S
C315 O325 1.268 . S
C316 O322 1.268 . S
C316 O324 1.268 . S
C317 O323 1.268 . S
C317 O326 1.268 . S
O318 Sc308 2.105 . S
O318 C312 1.268 . S
O319 Sc309 2.105 . S
O319 C313 1.268 . S
O320 Sc310 2.105 . S
O320 C314 1.268 . S
O321 Sc308 2.105 . S
O321 C315 1.268 . S
O322 Sc310 2.105 . S
O322 C316 1.268 . S
O323 Sc309 2.105 . S
O323 C317 1.268 . S
O324 Sc308 2.105 . S
O324 C316 1.268 . S
O325 Sc309 2.105 . S
O325 C315 1.268 . S
O326 Sc310 2.105 . S
O326 C317 1.268 . S
O327 Sc308 2.105 . S
O327 C313 1.268 . S
O328 Sc310 2.105 . S
O328 C312 1.268 . S
O329 Sc309 2.105 . S
O329 C314 1.268 . S
Sc330 O333 2.025 . S
Sc330 O340 2.105 . S
Sc330 O343 2.105 . S
Sc330 O346 2.105 . S
Sc330 O349 2.105 . S
Sc331 O333 2.025 . S
Sc331 O341 2.105 . S
Sc331 O345 2.105 . S
Sc331 O347 2.105 . S
Sc331 O351 2.105 . S
Sc332 O333 2.025 . S
Sc332 O342 2.105 . S
Sc332 O344 2.105 . S
Sc332 O348 2.105 . S
Sc332 O350 2.105 . S
O333 Sc330 2.025 . S
O333 Sc331 2.025 . S
O333 Sc332 2.025 . S
C334 O340 1.268 . S
C334 O350 1.268 . S
C335 O341 1.268 . S
C335 O349 1.268 . S
C336 O342 1.268 . S
C336 O351 1.268 . S
C337 O343 1.268 . S
C337 O347 1.268 . S
C338 O344 1.268 . S
C338 O346 1.268 . S
C339 O345 1.268 . S
C339 O348 1.268 . S
O340 Sc330 2.105 . S
O340 C334 1.268 . S
O341 Sc331 2.105 . S
O341 C335 1.268 . S
O342 Sc332 2.105 . S
O342 C336 1.268 . S
O343 Sc330 2.105 . S
O343 C337 1.268 . S
O344 Sc332 2.105 . S
O344 C338 1.268 . S
O345 Sc331 2.105 . S
O345 C339 1.268 . S
O346 Sc330 2.105 . S
O346 C338 1.268 . S
O347 Sc331 2.105 . S
O347 C337 1.268 . S
O348 Sc332 2.105 . S
O348 C339 1.268 . S
O349 Sc330 2.105 . S
O349 C335 1.268 . S
O350 Sc332 2.105 . S
O350 C334 1.268 . S
O351 Sc331 2.105 . S
O351 C336 1.268 . S
Sc352 O355 2.025 . S
Sc352 O362 2.105 . S
Sc352 O365 2.105 . S
Sc352 O368 2.105 . S
Sc352 O371 2.105 . S
Sc353 O355 2.025 . S
Sc353 O363 2.105 . S
Sc353 O367 2.105 . S
Sc353 O369 2.105 . S
Sc353 O373 2.105 . S
Sc354 O355 2.025 . S
Sc354 O364 2.105 . S
Sc354 O366 2.105 . S
Sc354 O370 2.105 . S
Sc354 O372 2.105 . S
O355 Sc352 2.025 . S
O355 Sc353 2.025 . S
O355 Sc354 2.025 . S
C356 O362 1.268 . S
C356 O372 1.268 . S
C357 O363 1.268 . S
C357 O371 1.268 . S
C358 O364 1.268 . S
C358 O373 1.268 . S
C359 O365 1.268 . S
C359 O369 1.268 . S
C360 O366 1.268 . S
C360 O368 1.268 . S
C361 O367 1.268 . S
C361 O370 1.268 . S
O362 Sc352 2.105 . S
O362 C356 1.268 . S
O363 Sc353 2.105 . S
O363 C357 1.268 . S
O364 Sc354 2.105 . S
O364 C358 1.268 . S
O365 Sc352 2.105 . S
O365 C359 1.268 . S
O366 Sc354 2.105 . S
O366 C360 1.268 . S
O367 Sc353 2.105 . S
O367 C361 1.268 . S
O368 Sc352 2.105 . S
O368 C360 1.268 . S
O369 Sc353 2.105 . S
O369 C359 1.268 . S
O370 Sc354 2.105 . S
O370 C361 1.268 . S
O371 Sc352 2.105 . S
O371 C357 1.268 . S
O372 Sc354 2.105 . S
O372 C356 1.268 . S
O373 Sc353 2.105 . S
O373 C358 1.268 . S
Sc374 O377 2.025 . S
Sc374 O384 2.105 . S
Sc374 O387 2.105 . S
Sc374 O390 2.105 . S
Sc374 O393 2.105 . S
Sc375 O377 2.025 . S
Sc375 O385 2.105 . S
Sc375 O389 2.105 . S
Sc375 O391 2.105 . S
Sc375 O395 2.105 . S
Sc376 O377 2.025 . S
Sc376 O386 2.105 . S
Sc376 O388 2.105 . S
Sc376 O392 2.105 . S
Sc376 O394 2.105 . S
O377 Sc374 2.025 . S
O377 Sc375 2.025 . S
O377 Sc376 2.025 . S
C378 O384 1.268 . S
C378 O394 1.268 . S
C379 O385 1.268 . S
C379 O393 1.268 . S
C380 O386 1.268 . S
C380 O395 1.268 . S
C381 O387 1.268 . S
C381 O391 1.268 . S
C382 O388 1.268 . S
C382 O390 1.268 . S
C383 O389 1.268 . S
C383 O392 1.268 . S
O384 Sc374 2.105 . S
O384 C378 1.268 . S
O385 Sc375 2.105 . S
O385 C379 1.268 . S
O386 Sc376 2.105 . S
O386 C380 1.268 . S
O387 Sc374 2.105 . S
O387 C381 1.268 . S
O388 Sc376 2.105 . S
O388 C382 1.268 . S
O389 Sc375 2.105 . S
O389 C383 1.268 . S
O390 Sc374 2.105 . S
O390 C382 1.268 . S
O391 Sc375 2.105 . S
O391 C381 1.268 . S
O392 Sc376 2.105 . S
O392 C383 1.268 . S
O393 Sc374 2.105 . S
O393 C379 1.268 . S
O394 Sc376 2.105 . S
O394 C378 1.268 . S
O395 Sc375 2.105 . S
O395 C380 1.268 . S
Sc396 O399 2.025 . S
Sc396 O406 2.105 . S
Sc396 O409 2.105 . S
Sc396 O412 2.105 . S
Sc396 O415 2.105 . S
Sc397 O399 2.025 . S
Sc397 O407 2.105 . S
Sc397 O411 2.105 . S
Sc397 O413 2.105 . S
Sc397 O417 2.105 . S
Sc398 O399 2.025 . S
Sc398 O408 2.105 . S
Sc398 O410 2.105 . S
Sc398 O414 2.105 . S
Sc398 O416 2.105 . S
O399 Sc396 2.025 . S
O399 Sc397 2.025 . S
O399 Sc398 2.025 . S
C400 O406 1.268 . S
C400 O416 1.268 . S
C401 O407 1.268 . S
C401 O415 1.268 . S
C402 O408 1.268 . S
C402 O417 1.268 . S
C403 O409 1.268 . S
C403 O413 1.268 . S
C404 O410 1.268 . S
C404 O412 1.268 . S
C405 O411 1.268 . S
C405 O414 1.268 . S
O406 Sc396 2.105 . S
O406 C400 1.268 . S
O407 Sc397 2.105 . S
O407 C401 1.268 . S
O408 Sc398 2.105 . S
O408 C402 1.268 . S
O409 Sc396 2.105 . S
O409 C403 1.268 . S
O410 Sc398 2.105 . S
O410 C404 1.268 . S
O411 Sc397 2.105 . S
O411 C405 1.268 . S
O412 Sc396 2.105 . S
O412 C404 1.268 . S
O413 Sc397 2.105 . S
O413 C403 1.268 . S
O414 Sc398 2.105 . S
O414 C405 1.268 . S
O415 Sc396 2.105 . S
O415 C401 1.268 . S
O416 Sc398 2.105 . S
O416 C400 1.268 . S
O417 Sc397 2.105 . S
O417 C402 1.268 . S
Sc418 O421 2.025 . S
Sc418 O428 2.105 . S
Sc418 O431 2.105 . S
Sc418 O434 2.105 . S
Sc418 O437 2.105 . S
Sc419 O421 2.025 . S
Sc419 O429 2.105 . S
Sc419 O433 2.105 . S
Sc419 O435 2.105 . S
Sc419 O439 2.105 . S
Sc420 O421 2.025 . S
Sc420 O430 2.105 . S
Sc420 O432 2.105 . S
Sc420 O436 2.105 . S
Sc420 O438 2.105 . S
O421 Sc418 2.025 . S
O421 Sc419 2.025 . S
O421 Sc420 2.025 . S
C422 O428 1.268 . S
C422 O438 1.268 . S
C423 O429 1.268 . S
C423 O437 1.268 . S
C424 O430 1.268 . S
C424 O439 1.268 . S
C425 O431 1.268 . S
C425 O435 1.268 . S
C426 O432 1.268 . S
C426 O434 1.268 . S
C427 O433 1.268 . S
C427 O436 1.268 . S
O428 Sc418 2.105 . S
O428 C422 1.268 . S
O429 Sc419 2.105 . S
O429 C423 1.268 . S
O430 Sc420 2.105 . S
O430 C424 1.268 . S
O431 Sc418 2.105 . S
O431 C425 1.268 . S
O432 Sc420 2.105 . S
O432 C426 1.268 . S
O433 Sc419 2.105 . S
O433 C427 1.268 . S
O434 Sc418 2.105 . S
O434 C426 1.268 . S
O435 Sc419 2.105 . S
O435 C425 1.268 . S
O436 Sc420 2.105 . S
O436 C427 1.268 . S
O437 Sc418 2.105 . S
O437 C423 1.268 . S
O438 Sc420 2.105 . S
O438 C422 1.268 . S
O439 Sc419 2.105 . S
O439 C424 1.268 . S
Sc440 O443 2.025 . S
Sc440 O450 2.105 . S
Sc440 O453 2.105 . S
Sc440 O456 2.105 . S
Sc440 O459 2.105 . S
Sc441 O443 2.025 . S
Sc441 O451 2.105 . S
Sc441 O455 2.105 . S
Sc441 O457 2.105 . S
Sc441 O461 2.105 . S
Sc442 O443 2.025 . S
Sc442 O452 2.105 . S
Sc442 O454 2.105 . S
Sc442 O458 2.105 . S
Sc442 O460 2.105 . S
O443 Sc440 2.025 . S
O443 Sc441 2.025 . S
O443 Sc442 2.025 . S
C444 O450 1.268 . S
C444 O460 1.268 . S
C445 O451 1.268 . S
C445 O459 1.268 . S
C446 O452 1.268 . S
C446 O461 1.268 . S
C447 O453 1.268 . S
C447 O457 1.268 . S
C448 O454 1.268 . S
C448 O456 1.268 . S
C449 O455 1.268 . S
C449 O458 1.268 . S
O450 Sc440 2.105 . S
O450 C444 1.268 . S
O451 Sc441 2.105 . S
O451 C445 1.268 . S
O452 Sc442 2.105 . S
O452 C446 1.268 . S
O453 Sc440 2.105 . S
O453 C447 1.268 . S
O454 Sc442 2.105 . S
O454 C448 1.268 . S
O455 Sc441 2.105 . S
O455 C449 1.268 . S
O456 Sc440 2.105 . S
O456 C448 1.268 . S
O457 Sc441 2.105 . S
O457 C447 1.268 . S
O458 Sc442 2.105 . S
O458 C449 1.268 . S
O459 Sc440 2.105 . S
O459 C445 1.268 . S
O460 Sc442 2.105 . S
O460 C444 1.268 . S
O461 Sc441 2.105 . S
O461 C446 1.268 . S
Sc462 O465 2.025 . S
Sc462 O472 2.105 . S
Sc462 O475 2.105 . S
Sc462 O478 2.105 . S
Sc462 O481 2.105 . S
Sc463 O465 2.025 . S
Sc463 O473 2.105 . S
Sc463 O477 2.105 . S
Sc463 O479 2.105 . S
Sc463 O483 2.105 . S
Sc464 O465 2.025 . S
Sc464 O474 2.105 . S
Sc464 O476 2.105 . S
Sc464 O480 2.105 . S
Sc464 O482 2.105 . S
O465 Sc462 2.025 . S
O465 Sc463 2.025 . S
O465 Sc464 2.025 . S
C466 O472 1.268 . S
C466 O482 1.268 . S
C467 O473 1.268 . S
C467 O481 1.268 . S
C468 O474 1.268 . S
C468 O483 1.268 . S
C469 O475 1.268 . S
C469 O479 1.268 . S
C470 O476 1.268 . S
C470 O478 1.268 . S
C471 O477 1.268 . S
C471 O480 1.268 . S
O472 Sc462 2.105 . S
O472 C466 1.268 . S
O473 Sc463 2.105 . S
O473 C467 1.268 . S
O474 Sc464 2.105 . S
O474 C468 1.268 . S
O475 Sc462 2.105 . S
O475 C469 1.268 . S
O476 Sc464 2.105 . S
O476 C470 1.268 . S
O477 Sc463 2.105 . S
O477 C471 1.268 . S
O478 Sc462 2.105 . S
O478 C470 1.268 . S
O479 Sc463 2.105 . S
O479 C469 1.268 . S
O480 Sc464 2.105 . S
O480 C471 1.268 . S
O481 Sc462 2.105 . S
O481 C467 1.268 . S
O482 Sc464 2.105 . S
O482 C466 1.268 . S
O483 Sc463 2.105 . S
O483 C468 1.268 . S
Sc484 O487 2.025 . S
Sc484 O494 2.105 . S
Sc484 O497 2.105 . S
Sc484 O500 2.105 . S
Sc484 O503 2.105 . S
Sc485 O487 2.025 . S
Sc485 O495 2.105 . S
Sc485 O499 2.105 . S
Sc485 O501 2.105 . S
Sc485 O505 2.105 . S
Sc486 O487 2.025 . S
Sc486 O496 2.105 . S
Sc486 O498 2.105 . S
Sc486 O502 2.105 . S
Sc486 O504 2.105 . S
O487 Sc484 2.025 . S
O487 Sc485 2.025 . S
O487 Sc486 2.025 . S
C488 O494 1.268 . S
C488 O504 1.268 . S
C489 O495 1.268 . S
C489 O503 1.268 . S
C490 O496 1.268 . S
C490 O505 1.268 . S
C491 O497 1.268 . S
C491 O501 1.268 . S
C492 O498 1.268 . S
C492 O500 1.268 . S
C493 O499 1.268 . S
C493 O502 1.268 . S
O494 Sc484 2.105 . S
O494 C488 1.268 . S
O495 Sc485 2.105 . S
O495 C489 1.268 . S
O496 Sc486 2.105 . S
O496 C490 1.268 . S
O497 Sc484 2.105 . S
O497 C491 1.268 . S
O498 Sc486 2.105 . S
O498 C492 1.268 . S
O499 Sc485 2.105 . S
O499 C493 1.268 . S
O500 Sc484 2.105 . S
O500 C492 1.268 . S
O501 Sc485 2.105 . S
O501 C491 1.268 . S
O502 Sc486 2.105 . S
O502 C493 1.268 . S
O503 Sc484 2.105 . S
O503 C489 1.268 . S
O504 Sc486 2.105 . S
O504 C488 1.268 . S
O505 Sc485 2.105 . S
O505 C490 1.268 . S
Sc506 O509 2.025 . S
Sc506 O516 2.105 . S
Sc506 O519 2.105 . S
Sc506 O522 2.105 . S
Sc506 O525 2.105 . S
Sc507 O509 2.025 . S
Sc507 O517 2.105 . S
Sc507 O521 2.105 . S
Sc507 O523 2.105 . S
Sc507 O527 2.105 . S
Sc508 O509 2.025 . S
Sc508 O518 2.105 . S
Sc508 O520 2.105 . S
Sc508 O524 2.105 . S
Sc508 O526 2.105 . S
O509 Sc506 2.025 . S
O509 Sc507 2.025 . S
O509 Sc508 2.025 . S
C510 O516 1.268 . S
C510 O526 1.268 . S
C511 O517 1.268 . S
C511 O525 1.268 . S
C512 O518 1.268 . S
C512 O527 1.268 . S
C513 O519 1.268 . S
C513 O523 1.268 . S
C514 O520 1.268 . S
C514 O522 1.268 . S
C515 O521 1.268 . S
C515 O524 1.268 . S
O516 Sc506 2.105 . S
O516 C510 1.268 . S
O517 Sc507 2.105 . S
O517 C511 1.268 . S
O518 Sc508 2.105 . S
O518 C512 1.268 . S
O519 Sc506 2.105 . S
O519 C513 1.268 . S
O520 Sc508 2.105 . S
O520 C514 1.268 . S
O521 Sc507 2.105 . S
O521 C515 1.268 . S
O522 Sc506 2.105 . S
O522 C514 1.268 . S
O523 Sc507 2.105 . S
O523 C513 1.268 . S
O524 Sc508 2.105 . S
O524 C515 1.268 . S
O525 Sc506 2.105 . S
O525 C511 1.268 . S
O526 Sc508 2.105 . S
O526 C510 1.268 . S
O527 Sc507 2.105 . S
O527 C512 1.268 . S
C184 C4 1.326 1_556 S
C26 C206 1.326 . S
C228 C48 1.326 1_556 S
C70 C250 1.326 . S
C140 C92 1.326 1_556 S
C162 C114 1.326 . S
C272 C444 1.326 1_556 S
C466 C294 1.326 . S
C488 C316 1.326 1_554 S
C338 C510 1.326 . S
C360 C400 1.327 1_556 S
C422 C382 1.326 . S
C9 C52 1.428 . S
C74 C31 1.428 . S
C53 C96 1.428 . S
C75 C118 1.428 . S
C8 C97 1.428 . S
C30 C119 1.428 . S
C224 C137 1.428 . S
C159 C246 1.428 . S
C181 C136 1.428 . S
C158 C203 1.428 . S
C180 C225 1.428 . S
C202 C247 1.428 . S
C312 C270 1.428 . S
C292 C334 1.428 . S
C314 C356 1.428 . S
C336 C378 1.428 . S
C268 C358 1.428 . S
C290 C380 1.428 . S
C403 C492 1.428 . S
C425 C514 1.428 . S
C447 C404 1.428 . S
C469 C426 1.428 . S
C448 C491 1.428 . S
C470 C513 1.428 . S
C7 C335 1.482 . S
C357 C29 1.482 . S
C51 C379 1.482 . S
C73 C269 1.482 . S
C291 C95 1.482 . S
C117 C313 1.482 . S
C138 C471 1.482 . S
C493 C160 1.482 . S
C182 C515 1.482 . S
C204 C405 1.482 . S
C427 C226 1.482 . S
C449 C248 1.482 . S
C446 C5 1.440 1_655 S
C468 C27 1.440 1_565 S
C490 C49 1.440 . S
C512 C71 1.440 1_455 S
C402 C93 1.440 1_545 S
C115 C424 1.440 . S
C141 C359 1.440 1_565 S
C381 C163 1.440 . S
C271 C185 1.440 1_655 S
C293 C207 1.440 1_565 S
C229 C315 1.440 . S
C251 C337 1.440 1_655 S
C227 C6 1.478 1_556 S
C249 C28 1.478 . S
C50 C139 1.478 1_554 S
C72 C161 1.478 . S
C183 C94 1.478 1_556 S
C116 C205 1.478 . S
C489 C273 1.478 1_554 S
C511 C295 1.478 . S
C401 C317 1.478 1_554 S
C339 C423 1.478 . S
C445 C361 1.478 1_554 S
C383 C467 1.478 . S
