# Generated by pormake.
# Topology gis, (4)-cn, num edge types: 1
# Building blocks:
#     Node 0, Type 0, BuildingBlock: UXUYUI_clean_sbu_0, # of connection points: 4
#     Node 1, Type 0, BuildingBlock: UXUYUI_clean_sbu_0, # of connection points: 4
#     Node 2, Type 0, BuildingBlock: UXUYUI_clean_sbu_0, # of connection points: 4
#     Node 3, Type 0, BuildingBlock: UXUYUI_clean_sbu_0, # of connection points: 4
#     Node 4, Type 0, BuildingBlock: UXUYUI_clean_sbu_0, # of connection points: 4
#     Node 5, Type 0, BuildingBlock: UXUYUI_clean_sbu_0, # of connection points: 4
#     Node 6, Type 0, BuildingBlock: UXUYUI_clean_sbu_0, # of connection points: 4
#     Node 7, Type 0, BuildingBlock: UXUYUI_clean_sbu_0, # of connection points: 4
#     Node 8, Type 0, BuildingBlock: UXUYUI_clean_sbu_0, # of connection points: 4
#     Node 9, Type 0, BuildingBlock: UXUYUI_clean_sbu_0, # of connection points: 4
#     Node 10, Type 0, BuildingBlock: UXUYUI_clean_sbu_0, # of connection points: 4
#     Node 11, Type 0, BuildingBlock: UXUYUI_clean_sbu_0, # of connection points: 4
#     Node 12, Type 0, BuildingBlock: UXUYUI_clean_sbu_0, # of connection points: 4
#     Node 13, Type 0, BuildingBlock: UXUYUI_clean_sbu_0, # of connection points: 4
#     Node 14, Type 0, BuildingBlock: UXUYUI_clean_sbu_0, # of connection points: 4
#     Node 15, Type 0, BuildingBlock: UXUYUI_clean_sbu_0, # of connection points: 4
#     Edge 16, Type (0, 0), BuildingBlock: AJUNOK_clean_linker_0, # of connection points: 2
#     Edge 17, Type (0, 0), BuildingBlock: AJUNOK_clean_linker_0, # of connection points: 2
#     Edge 18, Type (0, 0), BuildingBlock: AJUNOK_clean_linker_0, # of connection points: 2
#     Edge 19, Type (0, 0), BuildingBlock: AJUNOK_clean_linker_0, # of connection points: 2
#     Edge 20, Type (0, 0), BuildingBlock: AJUNOK_clean_linker_0, # of connection points: 2
#     Edge 21, Type (0, 0), BuildingBlock: AJUNOK_clean_linker_0, # of connection points: 2
#     Edge 22, Type (0, 0), BuildingBlock: AJUNOK_clean_linker_0, # of connection points: 2
#     Edge 23, Type (0, 0), BuildingBlock: AJUNOK_clean_linker_0, # of connection points: 2
#     Edge 24, Type (0, 0), BuildingBlock: AJUNOK_clean_linker_0, # of connection points: 2
#     Edge 25, Type (0, 0), BuildingBlock: AJUNOK_clean_linker_0, # of connection points: 2
#     Edge 26, Type (0, 0), BuildingBlock: AJUNOK_clean_linker_0, # of connection points: 2
#     Edge 27, Type (0, 0), BuildingBlock: AJUNOK_clean_linker_0, # of connection points: 2
#     Edge 28, Type (0, 0), BuildingBlock: AJUNOK_clean_linker_0, # of connection points: 2
#     Edge 29, Type (0, 0), BuildingBlock: AJUNOK_clean_linker_0, # of connection points: 2
#     Edge 30, Type (0, 0), BuildingBlock: AJUNOK_clean_linker_0, # of connection points: 2
#     Edge 31, Type (0, 0), BuildingBlock: AJUNOK_clean_linker_0, # of connection points: 2
#     Edge 32, Type (0, 0), BuildingBlock: AJUNOK_clean_linker_0, # of connection points: 2
#     Edge 33, Type (0, 0), BuildingBlock: AJUNOK_clean_linker_0, # of connection points: 2
#     Edge 34, Type (0, 0), BuildingBlock: AJUNOK_clean_linker_0, # of connection points: 2
#     Edge 35, Type (0, 0), BuildingBlock: AJUNOK_clean_linker_0, # of connection points: 2
#     Edge 36, Type (0, 0), BuildingBlock: AJUNOK_clean_linker_0, # of connection points: 2
#     Edge 37, Type (0, 0), BuildingBlock: AJUNOK_clean_linker_0, # of connection points: 2
#     Edge 38, Type (0, 0), BuildingBlock: AJUNOK_clean_linker_0, # of connection points: 2
#     Edge 39, Type (0, 0), BuildingBlock: AJUNOK_clean_linker_0, # of connection points: 2
#     Edge 40, Type (0, 0), BuildingBlock: AJUNOK_clean_linker_0, # of connection points: 2
#     Edge 41, Type (0, 0), BuildingBlock: AJUNOK_clean_linker_0, # of connection points: 2
#     Edge 42, Type (0, 0), BuildingBlock: AJUNOK_clean_linker_0, # of connection points: 2
#     Edge 43, Type (0, 0), BuildingBlock: AJUNOK_clean_linker_0, # of connection points: 2
#     Edge 44, Type (0, 0), BuildingBlock: AJUNOK_clean_linker_0, # of connection points: 2
#     Edge 45, Type (0, 0), BuildingBlock: AJUNOK_clean_linker_0, # of connection points: 2
#     Edge 46, Type (0, 0), BuildingBlock: AJUNOK_clean_linker_0, # of connection points: 2
#     Edge 47, Type (0, 0), BuildingBlock: AJUNOK_clean_linker_0, # of connection points: 2
# Relax obj value: 0.245
# Max RMSD: 0.177
# Mean RMSD: 0.176
data_MOF--net-gis--node1-UXUYUI_clean_sbu_0--edge1-AJUNOK_clean_linker_0
_symmetry_space_group_name_H-M    P1
_symmetry_Int_Tables_number       1
_symmetry_cell_setting            triclinic
loop_
_symmetry_equiv_pos_as_xyz
'x, y, z'
_cell_length_a     55.493867
_cell_length_b     55.500003
_cell_length_c     59.085977
_cell_angle_alpha  89.977865
_cell_angle_beta   90.003472
_cell_angle_gamma 90.006877
loop_
_atom_site_label
_atom_site_type_symbol
_atom_site_fract_x
_atom_site_fract_y
_atom_site_fract_z
_atom_type_partial_charge
Li0 Li 0.16891 0.61184 0.12184 0.0
Li1 Li 0.17569 0.5756 0.14209 0.0
Li2 Li 0.17215 0.57252 0.10269 0.0
Li3 Li 0.13593 0.58037 0.12797 0.0
C4 C 0.21361 0.60045 0.10438 0.0
N5 N 0.24526 0.62123 0.07395 0.0
C6 C 0.23782 0.60364 0.11018 0.0
C7 C 0.20554 0.60781 0.08307 0.0
C8 C 0.25353 0.6142 0.09458 0.0
C9 C 0.22179 0.61827 0.06792 0.0
C10 C 0.15802 0.60871 0.17109 0.0
C11 C 0.14865 0.61112 0.21086 0.0
N12 N 0.17015 0.62222 0.2146 0.0
C13 C 0.17993 0.6203 0.17527 0.0
C14 C 0.14216 0.60418 0.18896 0.0
C15 C 0.18577 0.62691 0.19742 0.0
C16 C 0.15077 0.65772 0.11899 0.0
N17 N 0.17207 0.6457 0.11971 0.0
C18 C 0.194 0.68274 0.11889 0.0
C19 C 0.19351 0.65757 0.11975 0.0
C20 C 0.17222 0.69559 0.11834 0.0
C21 C 0.15042 0.6828 0.11817 0.0
H22 H 0.13403 0.64773 0.11914 0.0
H23 H 0.2102 0.64763 0.12081 0.0
C24 C 0.21625 0.56582 0.16907 0.0
N25 N 0.19188 0.5638 0.16822 0.0
C26 C 0.22849 0.56141 0.18926 0.0
C27 C 0.19044 0.55147 0.20691 0.0
C28 C 0.17894 0.55612 0.18639 0.0
C29 C 0.21541 0.55497 0.20867 0.0
H30 H 0.22604 0.57196 0.15437 0.0
H31 H 0.15955 0.55478 0.18526 0.0
C32 C 0.13335 0.6051 0.08173 0.0
N33 N 0.10652 0.6209 0.0452 0.0
C34 C 0.11237 0.59289 0.0754 0.0
C35 C 0.14057 0.62548 0.06955 0.0
C36 C 0.09909 0.60112 0.05686 0.0
C37 C 0.12679 0.63314 0.05112 0.0
C38 C 0.1621 0.53084 0.13662 0.0
C39 C 0.18466 0.5202 0.1334 0.0
C40 C 0.14576 0.52055 0.1518 0.0
C41 C 0.19063 0.49953 0.14567 0.0
C42 C 0.1524 0.49985 0.16374 0.0
N43 N 0.17452 0.48987 0.16047 0.0
C44 C 0.20394 0.54673 0.07397 0.0
C45 C 0.16511 0.55439 0.05883 0.0
C46 C 0.21044 0.5339 0.05455 0.0
N47 N 0.18153 0.5565 0.07574 0.0
C48 C 0.17091 0.54202 0.03909 0.0
C49 C 0.1937 0.53137 0.03693 0.0
H50 H 0.21663 0.54863 0.08775 0.0
H51 H 0.14733 0.56186 0.06082 0.0
C52 C 0.08999 0.59599 0.13984 0.0
N53 N 0.10247 0.57672 0.13191 0.0
C54 C 0.06505 0.59465 0.14243 0.0
C55 C 0.06636 0.5536 0.12869 0.0
C56 C 0.09131 0.55572 0.12641 0.0
C57 C 0.05295 0.57325 0.13681 0.0
H58 H 0.09944 0.6125 0.14386 0.0
H59 H 0.10177 0.54079 0.11996 0.0
O60 O 0.19806 0.59033 0.11968 0.0
O61 O 0.15228 0.60151 0.14964 0.0
O62 O 0.14642 0.59744 0.10005 0.0
O63 O 0.15604 0.55122 0.12495 0.0
H64 H 0.24442 0.59818 0.12663 0.0
H65 H 0.18702 0.60533 0.07815 0.0
H66 H 0.27229 0.61682 0.09889 0.0
H67 H 0.21575 0.62399 0.05136 0.0
H68 H 0.13664 0.60761 0.2249 0.0
H69 H 0.19245 0.62379 0.16161 0.0
H70 H 0.12514 0.59519 0.18596 0.0
H71 H 0.20276 0.63569 0.20095 0.0
H72 H 0.21114 0.69208 0.11917 0.0
H73 H 0.13328 0.6921 0.11743 0.0
H74 H 0.24777 0.56436 0.19002 0.0
H75 H 0.17982 0.54617 0.22146 0.0
H76 H 0.10656 0.57704 0.08453 0.0
H77 H 0.1566 0.63536 0.07425 0.0
H78 H 0.08289 0.59175 0.05173 0.0
H79 H 0.1322 0.64885 0.04154 0.0
H80 H 0.19752 0.52801 0.12175 0.0
H81 H 0.12825 0.52862 0.15454 0.0
H82 H 0.20809 0.49119 0.14347 0.0
H83 H 0.14001 0.49176 0.17565 0.0
H84 H 0.2282 0.5259 0.05338 0.0
H85 H 0.15745 0.54009 0.02593 0.0
H86 H 0.05527 0.61036 0.14825 0.0
H87 H 0.05761 0.53685 0.12412 0.0
Li88 Li 0.6371 0.91918 0.37281 0.0
Li89 Li 0.67269 0.92652 0.3948 0.0
Li90 Li 0.67532 0.92462 0.35438 0.0
Li91 Li 0.66808 0.88856 0.37559 0.0
C92 C 0.64775 0.96605 0.35868 0.0
N93 N 0.62812 0.00087 0.33074 0.0
C94 C 0.65221 0.99045 0.36278 0.0
C95 C 0.63321 0.95939 0.3404 0.0
C96 C 0.64216 0.00777 0.34845 0.0
C97 C 0.62348 0.97724 0.32647 0.0
C98 C 0.63309 0.90725 0.41792 0.0
C99 C 0.60917 0.89509 0.45002 0.0
N100 N 0.60358 0.91856 0.45404 0.0
C101 C 0.62707 0.93125 0.42234 0.0
C102 C 0.62407 0.889 0.43184 0.0
C103 C 0.61215 0.9366 0.44069 0.0
C104 C 0.59127 0.9024 0.36381 0.0
N105 N 0.60313 0.92234 0.37109 0.0
C106 C 0.566 0.94344 0.37613 0.0
C107 C 0.59115 0.94271 0.37717 0.0
C108 C 0.55328 0.92293 0.369 0.0
C109 C 0.5662 0.90231 0.36257 0.0
H110 H 0.60136 0.88648 0.35914 0.0
H111 H 0.60107 0.95829 0.383 0.0
C112 C 0.68994 0.96581 0.41987 0.0
N113 N 0.68406 0.9421 0.42134 0.0
C114 C 0.69503 0.97898 0.43941 0.0
C115 C 0.68923 0.94271 0.46144 0.0
C116 C 0.68403 0.93032 0.44152 0.0
C117 C 0.69427 0.96749 0.46059 0.0
H118 H 0.68968 0.9747 0.40359 0.0
H119 H 0.67894 0.91155 0.44231 0.0
C120 C 0.65747 0.88586 0.32998 0.0
N121 N 0.67081 0.85908 0.29261 0.0
C122 C 0.68155 0.87919 0.32688 0.0
C123 C 0.64019 0.87888 0.31408 0.0
C124 C 0.68793 0.86567 0.30787 0.0
C125 C 0.64729 0.86533 0.29531 0.0
C126 C 0.71411 0.8993 0.39115 0.0
C127 C 0.73872 0.90297 0.3875 0.0
C128 C 0.70659 0.88544 0.40961 0.0
C129 C 0.7554 0.89277 0.40241 0.0
C130 C 0.72381 0.87555 0.42413 0.0
N131 N 0.74766 0.87939 0.42027 0.0
C132 C 0.71527 0.93898 0.3284 0.0
C133 C 0.67839 0.93762 0.30819 0.0
C134 C 0.72808 0.94237 0.30832 0.0
N135 N 0.69098 0.93597 0.32787 0.0
C136 C 0.69041 0.94137 0.2878 0.0
C137 C 0.71566 0.94269 0.28762 0.0
H138 H 0.72481 0.93741 0.34428 0.0
H139 H 0.65918 0.9346 0.30806 0.0
C140 C 0.65037 0.84243 0.37972 0.0
N141 N 0.67138 0.8545 0.37648 0.0
C142 C 0.65005 0.81732 0.37972 0.0
C143 C 0.69312 0.81746 0.37344 0.0
C144 C 0.69258 0.84265 0.37325 0.0
C145 C 0.6716 0.80461 0.37647 0.0
H146 H 0.63381 0.8524 0.38205 0.0
H147 H 0.70897 0.85268 0.37027 0.0
O148 O 0.65736 0.94897 0.37277 0.0
O149 O 0.64771 0.90145 0.4001 0.0
O150 O 0.65076 0.89958 0.34816 0.0
O151 O 0.69765 0.90925 0.3766 0.0
H152 H 0.6633 0.99598 0.37692 0.0
H153 H 0.62942 0.94066 0.33696 0.0
H154 H 0.64549 0.02671 0.35144 0.0
H155 H 0.61222 0.97231 0.31226 0.0
H156 H 0.60207 0.88115 0.46095 0.0
H157 H 0.63389 0.94563 0.41178 0.0
H158 H 0.62856 0.87033 0.42862 0.0
H159 H 0.60738 0.9551 0.44432 0.0
H160 H 0.55658 0.95963 0.38125 0.0
H161 H 0.55701 0.8863 0.35663 0.0
H162 H 0.6983 0.99816 0.43804 0.0
H163 H 0.68848 0.9332 0.47744 0.0
H164 H 0.69523 0.88454 0.33889 0.0
H165 H 0.6215 0.884 0.31619 0.0
H166 H 0.7065 0.86047 0.30523 0.0
H167 H 0.6341 0.85983 0.28285 0.0
H168 H 0.74492 0.91359 0.37328 0.0
H169 H 0.68769 0.88218 0.41269 0.0
H170 H 0.77449 0.89549 0.39977 0.0
H171 H 0.7182 0.86478 0.43846 0.0
H172 H 0.74757 0.94328 0.30886 0.0
H173 H 0.68014 0.94202 0.27222 0.0
H174 H 0.63315 0.80791 0.38222 0.0
H175 H 0.71002 0.80813 0.37075 0.0
Li176 Li 0.32851 0.42849 0.6019 0.0
Li177 Li 0.36243 0.4176 0.62813 0.0
Li178 Li 0.3321 0.38716 0.61645 0.0
Li179 Li 0.32132 0.41904 0.64332 0.0
C180 C 0.36395 0.39188 0.58009 0.0
N181 N 0.3814 0.3633 0.54552 0.0
C182 C 0.38767 0.38345 0.58075 0.0
C183 C 0.3492 0.38603 0.56175 0.0
C184 C 0.39613 0.36895 0.56313 0.0
C185 C 0.35832 0.37149 0.54447 0.0
C186 C 0.35099 0.46651 0.63654 0.0
C187 C 0.36766 0.49139 0.6661 0.0
N188 N 0.37341 0.50841 0.65043 0.0
C189 C 0.35682 0.48436 0.62076 0.0
C190 C 0.35622 0.47013 0.65942 0.0
C191 C 0.36825 0.50537 0.62811 0.0
C192 C 0.2983 0.45712 0.57358 0.0
N193 N 0.3208 0.44818 0.5771 0.0
C194 C 0.33598 0.46896 0.54483 0.0
C195 C 0.33946 0.45362 0.56316 0.0
C196 C 0.31306 0.47872 0.54087 0.0
C197 C 0.29393 0.47244 0.55524 0.0
H198 H 0.28386 0.45251 0.5851 0.0
H199 H 0.35715 0.44623 0.56651 0.0
C200 C 0.40773 0.4025 0.6427 0.0
N201 N 0.39583 0.42172 0.63382 0.0
C202 C 0.43272 0.40308 0.64508 0.0
C203 C 0.43277 0.44341 0.6296 0.0
C204 C 0.40777 0.44195 0.62726 0.0
C205 C 0.4455 0.42366 0.63834 0.0
H206 H 0.39787 0.3864 0.6472 0.0
H207 H 0.39808 0.4566 0.61944 0.0
C208 C 0.28186 0.39967 0.60805 0.0
N209 N 0.23866 0.38197 0.59182 0.0
C210 C 0.26342 0.39346 0.62308 0.0
C211 C 0.27826 0.3971 0.58478 0.0
C212 C 0.24173 0.38448 0.61454 0.0
C213 C 0.25631 0.38807 0.5769 0.0
C214 C 0.34942 0.38615 0.6684 0.0
C215 C 0.34135 0.36357 0.67563 0.0
C216 C 0.36131 0.40134 0.68358 0.0
C217 C 0.34496 0.35672 0.69814 0.0
C218 C 0.36459 0.39383 0.70594 0.0
N219 N 0.35639 0.37188 0.7127 0.0
C220 C 0.34991 0.34096 0.6089 0.0
C221 C 0.30723 0.34223 0.60912 0.0
C222 C 0.3496 0.31602 0.60605 0.0
N223 N 0.32895 0.35356 0.6102 0.0
C224 C 0.30608 0.31724 0.60657 0.0
C225 C 0.32746 0.3039 0.60503 0.0
H226 H 0.36692 0.35022 0.61078 0.0
H227 H 0.29078 0.35232 0.61089 0.0
C228 C 0.29579 0.44933 0.67358 0.0
N229 N 0.30195 0.4262 0.66871 0.0
C230 C 0.28087 0.45434 0.69204 0.0
C231 C 0.27899 0.41163 0.69995 0.0
C232 C 0.29368 0.40746 0.68127 0.0
C233 C 0.2724 0.43531 0.70556 0.0
H234 H 0.3022 0.46384 0.66294 0.0
H235 H 0.29821 0.38922 0.67657 0.0
O236 O 0.35535 0.40599 0.59725 0.0
O237 O 0.33974 0.44587 0.62963 0.0
O238 O 0.30317 0.40854 0.61615 0.0
O239 O 0.34596 0.39312 0.64645 0.0
H240 H 0.39938 0.38794 0.59477 0.0
H241 H 0.33092 0.39263 0.56087 0.0
H242 H 0.41441 0.36219 0.56346 0.0
H243 H 0.34706 0.36673 0.5302 0.0
H244 H 0.37188 0.4944 0.68375 0.0
H245 H 0.3527 0.48194 0.60302 0.0
H246 H 0.35134 0.45676 0.67191 0.0
H247 H 0.37301 0.51927 0.61607 0.0
H248 H 0.35103 0.47315 0.53383 0.0
H249 H 0.27602 0.47964 0.55254 0.0
H250 H 0.44204 0.38744 0.65171 0.0
H251 H 0.44216 0.45936 0.62375 0.0
H252 H 0.26586 0.39546 0.64114 0.0
H253 H 0.29218 0.40213 0.57291 0.0
H254 H 0.22734 0.37951 0.62597 0.0
H255 H 0.25329 0.38594 0.55893 0.0
H256 H 0.33226 0.35154 0.664 0.0
H257 H 0.36808 0.41864 0.67812 0.0
H258 H 0.33869 0.33936 0.70402 0.0
H259 H 0.37371 0.40543 0.7179 0.0
H260 H 0.36646 0.3062 0.60552 0.0
H261 H 0.28868 0.30839 0.60611 0.0
H262 H 0.2757 0.4728 0.69544 0.0
H263 H 0.27286 0.39644 0.70993 0.0
Li264 Li 0.8302 0.10949 0.87617 0.0
Li265 Li 0.82491 0.07416 0.8537 0.0
Li266 Li 0.82831 0.06891 0.89289 0.0
Li267 Li 0.86456 0.07987 0.86899 0.0
C268 C 0.78509 0.09591 0.89118 0.0
N269 N 0.75093 0.11515 0.92004 0.0
C270 C 0.76162 0.10009 0.88353 0.0
C271 C 0.79118 0.10163 0.91347 0.0
C272 C 0.74461 0.1098 0.89838 0.0
C273 C 0.77367 0.11128 0.92782 0.0
C274 C 0.84164 0.11063 0.82722 0.0
C275 C 0.8518 0.11909 0.78836 0.0
N276 N 0.82939 0.1284 0.78511 0.0
C277 C 0.81875 0.12037 0.82354 0.0
C278 C 0.85835 0.11002 0.80955 0.0
C279 C 0.81288 0.12921 0.8021 0.0
C280 C 0.8461 0.15543 0.88495 0.0
N281 N 0.8257 0.14307 0.87984 0.0
C282 C 0.80333 0.17973 0.87685 0.0
C283 C 0.80445 0.15457 0.876 0.0
C284 C 0.82434 0.19296 0.8815 0.0
C285 C 0.84578 0.18048 0.88609 0.0
H286 H 0.86278 0.14577 0.88769 0.0
H287 H 0.78857 0.14431 0.8716 0.0
C288 C 0.78465 0.06131 0.82766 0.0
N289 N 0.80906 0.06299 0.82714 0.0
C290 C 0.77182 0.05667 0.80784 0.0
C291 C 0.80961 0.05427 0.78758 0.0
C292 C 0.82171 0.05894 0.80781 0.0
C293 C 0.78432 0.05362 0.78739 0.0
H294 H 0.77511 0.06453 0.8433 0.0
H295 H 0.84114 0.0603 0.80792 0.0
C296 C 0.86312 0.09915 0.9183 0.0
N297 N 0.88438 0.10863 0.95968 0.0
C298 C 0.88349 0.08627 0.92516 0.0
C299 C 0.85384 0.11719 0.93235 0.0
C300 C 0.8939 0.09122 0.94618 0.0
C301 C 0.86476 0.12162 0.95324 0.0
C302 C 0.84063 0.03011 0.85687 0.0
C303 C 0.81915 0.01745 0.86016 0.0
C304 C 0.85688 0.02257 0.84027 0.0
C305 C 0.81413 0.99752 0.84652 0.0
C306 C 0.85122 0.00252 0.827 0.0
N307 N 0.83013 0.99054 0.83035 0.0
C308 C 0.79728 0.04405 0.9244 0.0
C309 C 0.83947 0.04022 0.9296 0.0
C310 C 0.79293 0.02906 0.94299 0.0
N311 N 0.8203 0.0496 0.91837 0.0
C312 C 0.83598 0.02519 0.94817 0.0
C313 C 0.81248 0.01936 0.95499 0.0
H314 H 0.78231 0.05098 0.91468 0.0
H315 H 0.85751 0.04414 0.92389 0.0
C316 C 0.9098 0.09854 0.85911 0.0
N317 N 0.89833 0.07823 0.86603 0.0
C318 C 0.9349 0.09934 0.85847 0.0
C319 C 0.93588 0.0581 0.87172 0.0
C320 C 0.9107 0.05805 0.87196 0.0
C321 C 0.94826 0.07912 0.86534 0.0
H322 H 0.89939 0.11428 0.8545 0.0
H323 H 0.901 0.04221 0.87752 0.0
O324 O 0.80204 0.087 0.87657 0.0
O325 O 0.84749 0.10127 0.8479 0.0
O326 O 0.85293 0.0948 0.89758 0.0
O327 O 0.84564 0.0499 0.86976 0.0
H328 H 0.75663 0.09609 0.86623 0.0
H329 H 0.8091 0.0983 0.91973 0.0
H330 H 0.7264 0.11316 0.89265 0.0
H331 H 0.77815 0.11565 0.94516 0.0
H332 H 0.86451 0.11867 0.77449 0.0
H333 H 0.80551 0.12066 0.83698 0.0
H334 H 0.87611 0.10243 0.81215 0.0
H335 H 0.79517 0.13663 0.79895 0.0
H336 H 0.78649 0.18877 0.87316 0.0
H337 H 0.86224 0.19002 0.8902 0.0
H338 H 0.75232 0.05678 0.80833 0.0
H339 H 0.81985 0.05201 0.77212 0.0
H340 H 0.89111 0.07246 0.91444 0.0
H341 H 0.83846 0.12781 0.92717 0.0
H342 H 0.90956 0.08125 0.95174 0.0
H343 H 0.8577 0.13545 0.96429 0.0
H344 H 0.80639 0.02314 0.87296 0.0
H345 H 0.87358 0.03224 0.83754 0.0
H346 H 0.79751 0.98762 0.84876 0.0
H347 H 0.86355 0.99654 0.81398 0.0
H348 H 0.77457 0.02477 0.94772 0.0
H349 H 0.85152 0.01826 0.95716 0.0
H350 H 0.94377 0.11569 0.85291 0.0
H351 H 0.94557 0.04216 0.87713 0.0
Li352 Li 0.13656 0.41504 0.87138 0.0
Li353 Li 0.17391 0.42631 0.89471 0.0
Li354 Li 0.17558 0.42154 0.85385 0.0
Li355 Li 0.17019 0.38739 0.87687 0.0
C356 C 0.1566 0.46423 0.85645 0.0
N357 N 0.15901 0.50142 0.82546 0.0
C358 C 0.17615 0.4801 0.85668 0.0
C359 C 0.13823 0.4673 0.84053 0.0
C360 C 0.17706 0.49877 0.84084 0.0
C361 C 0.13978 0.48623 0.825 0.0
C362 C 0.14338 0.38142 0.91296 0.0
C363 C 0.15447 0.35185 0.941 0.0
N364 N 0.13363 0.33973 0.93684 0.0
C365 C 0.12197 0.3688 0.9091 0.0
C366 C 0.15969 0.37301 0.92917 0.0
C367 C 0.11741 0.34773 0.92131 0.0
C368 C 0.09015 0.40081 0.85811 0.0
N369 N 0.10285 0.41832 0.86886 0.0
C370 C 0.06679 0.44012 0.87699 0.0
C371 C 0.09182 0.43782 0.87812 0.0
C372 C 0.0531 0.42203 0.86644 0.0
C373 C 0.06509 0.40231 0.85669 0.0
H374 H 0.09948 0.38547 0.851 0.0
H375 H 0.1025 0.45151 0.88644 0.0
C376 C 0.2016 0.46089 0.91868 0.0
N377 N 0.18386 0.44407 0.92024 0.0
C378 C 0.2078 0.4747 0.93758 0.0
C379 C 0.17805 0.45281 0.95935 0.0
C380 C 0.17221 0.43971 0.94003 0.0
C381 C 0.19587 0.47069 0.95817 0.0
H382 H 0.21067 0.46377 0.90272 0.0
H383 H 0.15806 0.42634 0.94069 0.0
C384 C 0.1592 0.38204 0.83001 0.0
N385 N 0.17299 0.35665 0.79195 0.0
C386 C 0.18256 0.37285 0.8283 0.0
C387 C 0.14284 0.37833 0.81238 0.0
C388 C 0.1892 0.36006 0.80893 0.0
C389 C 0.15016 0.36544 0.79328 0.0
C390 C 0.21936 0.39998 0.88481 0.0
C391 C 0.23684 0.39134 0.86981 0.0
C392 C 0.22378 0.39923 0.90811 0.0
C393 C 0.25827 0.3818 0.87839 0.0
C394 C 0.24546 0.38959 0.91601 0.0
N395 N 0.2621 0.38113 0.90111 0.0
C396 C 0.21468 0.43697 0.82754 0.0
C397 C 0.17766 0.43465 0.80763 0.0
C398 C 0.22709 0.4417 0.80752 0.0
N399 N 0.19057 0.43289 0.8271 0.0
C400 C 0.18929 0.43964 0.78724 0.0
C401 C 0.21443 0.44261 0.78694 0.0
H402 H 0.22443 0.43553 0.84332 0.0
H403 H 0.15846 0.43128 0.80783 0.0
C404 C 0.15694 0.3394 0.87243 0.0
N405 N 0.17539 0.3533 0.88012 0.0
C406 C 0.15781 0.31441 0.87464 0.0
C407 C 0.19691 0.31825 0.89225 0.0
C408 C 0.19516 0.34322 0.88994 0.0
C409 C 0.17796 0.30363 0.88474 0.0
H410 H 0.14133 0.34781 0.86484 0.0
H411 H 0.20947 0.35435 0.89633 0.0
O412 O 0.15567 0.44547 0.87144 0.0
O413 O 0.14854 0.40164 0.90062 0.0
O414 O 0.15243 0.39508 0.8486 0.0
O415 O 0.19845 0.40976 0.87664 0.0
H416 H 0.1906 0.47785 0.86877 0.0
H417 H 0.12309 0.45504 0.83999 0.0
H418 H 0.19214 0.51112 0.84073 0.0
H419 H 0.12575 0.48877 0.81252 0.0
H420 H 0.16703 0.34501 0.95345 0.0
H421 H 0.10916 0.37504 0.89663 0.0
H422 H 0.17633 0.38254 0.93237 0.0
H423 H 0.101 0.33767 0.91837 0.0
H424 H 0.05825 0.45584 0.8843 0.0
H425 H 0.05516 0.38794 0.84852 0.0
H426 H 0.22153 0.48849 0.93611 0.0
H427 H 0.16813 0.44962 0.97486 0.0
H428 H 0.19542 0.3756 0.84175 0.0
H429 H 0.12472 0.38548 0.8134 0.0
H430 H 0.20724 0.35287 0.80737 0.0
H431 H 0.1377 0.36247 0.77948 0.0
H432 H 0.23394 0.39199 0.85172 0.0
H433 H 0.21058 0.40573 0.92003 0.0
H434 H 0.2719 0.37499 0.86696 0.0
H435 H 0.24902 0.38878 0.93399 0.0
H436 H 0.24653 0.44328 0.80804 0.0
H437 H 0.17887 0.44026 0.77174 0.0
H438 H 0.14296 0.30361 0.86841 0.0
H439 H 0.21269 0.31046 0.90018 0.0
Li440 Li 0.82754 0.92402 0.10433 0.0
Li441 Li 0.86303 0.91854 0.1261 0.0
Li442 Li 0.8332 0.88416 0.11814 0.0
Li443 Li 0.82266 0.91946 0.1435 0.0
C444 C 0.86081 0.90714 0.07576 0.0
N445 N 0.8717 0.91863 0.03146 0.0
C446 C 0.87173 0.92917 0.07065 0.0
C447 C 0.85568 0.89082 0.05842 0.0
C448 C 0.87699 0.93469 0.04811 0.0
C449 C 0.86128 0.89699 0.0361 0.0
C450 C 0.84881 0.96238 0.14355 0.0
C451 C 0.86401 0.97098 0.18095 0.0
N452 N 0.86706 0.99446 0.175 0.0
C453 C 0.85208 0.98661 0.13782 0.0
C454 C 0.85484 0.95452 0.16528 0.0
C455 C 0.86133 0.00253 0.15395 0.0
C456 C 0.81813 0.9646 0.07722 0.0
N457 N 0.81591 0.94025 0.07807 0.0
C458 C 0.80305 0.939 0.03953 0.0
C459 C 0.80789 0.92742 0.05997 0.0
C460 C 0.80664 0.96396 0.03778 0.0
C461 C 0.81351 0.97692 0.05711 0.0
H462 H 0.82452 0.97431 0.09185 0.0
H463 H 0.80637 0.90804 0.06109 0.0
C464 C 0.90994 0.90444 0.13525 0.0
N465 N 0.89644 0.92404 0.1299 0.0
C466 C 0.93483 0.90652 0.13764 0.0
C467 C 0.9316 0.94886 0.12841 0.0
C468 C 0.90667 0.94599 0.12636 0.0
C469 C 0.94592 0.92895 0.13422 0.0
H470 H 0.90134 0.8871 0.1374 0.0
H471 H 0.89557 0.96116 0.12159 0.0
C472 C 0.78258 0.90977 0.10932 0.0
N473 N 0.74078 0.92334 0.0874 0.0
C474 C 0.77226 0.93226 0.11367 0.0
C475 C 0.77158 0.89409 0.09397 0.0
C476 C 0.75114 0.93882 0.10236 0.0
C477 C 0.75046 0.90131 0.08303 0.0
C478 C 0.85434 0.88266 0.16646 0.0
C479 C 0.84254 0.86114 0.17183 0.0
C480 C 0.87259 0.89117 0.18071 0.0
C481 C 0.84885 0.84875 0.19154 0.0
C482 C 0.8784 0.87825 0.20026 0.0
N483 N 0.8665 0.8575 0.20524 0.0
C484 C 0.84992 0.83777 0.10759 0.0
C485 C 0.80887 0.83974 0.11866 0.0
C486 C 0.84862 0.81272 0.10588 0.0
N487 N 0.83026 0.85061 0.11408 0.0
C488 C 0.80678 0.81473 0.11723 0.0
C489 C 0.82693 0.80091 0.11109 0.0
H490 H 0.8667 0.847 0.10416 0.0
H491 H 0.7936 0.85047 0.12392 0.0
C492 C 0.79606 0.94935 0.17424 0.0
N493 N 0.80405 0.9267 0.16963 0.0
C494 C 0.78121 0.95349 0.19296 0.0
C495 C 0.78325 0.91098 0.20171 0.0
C496 C 0.79782 0.90766 0.18281 0.0
C497 C 0.77441 0.93404 0.20675 0.0
H498 H 0.80084 0.96412 0.16317 0.0
H499 H 0.80376 0.88979 0.17838 0.0
O500 O 0.85498 0.90167 0.09764 0.0
O501 O 0.84015 0.94655 0.12772 0.0
O502 O 0.80339 0.90317 0.12001 0.0
O503 O 0.84867 0.89478 0.14695 0.0
H504 H 0.8757 0.94202 0.0839 0.0
H505 H 0.84722 0.87369 0.06216 0.0
H506 H 0.88521 0.95178 0.04386 0.0
H507 H 0.85727 0.88463 0.02246 0.0
H508 H 0.86866 0.9651 0.19785 0.0
H509 H 0.84771 0.99306 0.12105 0.0
H510 H 0.85216 0.93602 0.17013 0.0
H511 H 0.86399 0.02131 0.1497 0.0
H512 H 0.79744 0.92847 0.02502 0.0
H513 H 0.81655 0.99619 0.05637 0.0
H514 H 0.94537 0.89062 0.14155 0.0
H515 H 0.93962 0.96637 0.12543 0.0
H516 H 0.78064 0.94462 0.12544 0.0
H517 H 0.77941 0.87665 0.09037 0.0
H518 H 0.74302 0.95622 0.10545 0.0
H519 H 0.7418 0.88943 0.07101 0.0
H520 H 0.82844 0.85419 0.16104 0.0
H521 H 0.88233 0.9075 0.17672 0.0
H522 H 0.83973 0.83217 0.19594 0.0
H523 H 0.89243 0.88469 0.21143 0.0
H524 H 0.86456 0.80262 0.10117 0.0
H525 H 0.78967 0.80626 0.12106 0.0
H526 H 0.77467 0.97152 0.19631 0.0
H527 H 0.77878 0.89558 0.21217 0.0
Li528 Li 0.33141 0.61462 0.37744 0.0
Li529 Li 0.32031 0.57867 0.35332 0.0
Li530 Li 0.32647 0.57517 0.39227 0.0
Li531 Li 0.36126 0.58042 0.36935 0.0
C532 C 0.28145 0.58875 0.38848 0.0
N533 N 0.24094 0.57488 0.41228 0.0
C534 C 0.27069 0.56646 0.38416 0.0
C535 C 0.27153 0.60409 0.40475 0.0
C536 C 0.25025 0.55974 0.39643 0.0
C537 C 0.25106 0.59672 0.41664 0.0
C538 C 0.34919 0.61525 0.32823 0.0
C539 C 0.37042 0.62033 0.29289 0.0
N540 N 0.35642 0.63976 0.28804 0.0
C541 C 0.33522 0.63545 0.32299 0.0
C542 C 0.36713 0.60778 0.31316 0.0
C543 C 0.33906 0.64752 0.30255 0.0
C544 C 0.34882 0.66117 0.38537 0.0
N545 N 0.3286 0.64822 0.38093 0.0
C546 C 0.30486 0.68404 0.37926 0.0
C547 C 0.30682 0.659 0.37808 0.0
C548 C 0.32554 0.69796 0.38334 0.0
C549 C 0.34768 0.68624 0.38673 0.0
H550 H 0.36588 0.65199 0.38745 0.0
H551 H 0.2911 0.64816 0.37443 0.0
C552 C 0.29536 0.54751 0.32212 0.0
N553 N 0.30072 0.5706 0.32803 0.0
C554 C 0.28032 0.54291 0.30364 0.0
C555 C 0.27598 0.58588 0.29828 0.0
C556 C 0.29104 0.58961 0.31678 0.0
C557 C 0.27039 0.5623 0.29158 0.0
H558 H 0.30248 0.53264 0.33185 0.0
H559 H 0.29477 0.60772 0.32239 0.0
C560 C 0.36123 0.59256 0.41926 0.0
N561 N 0.37499 0.58154 0.46297 0.0
C562 C 0.3718 0.57028 0.42407 0.0
C563 C 0.3579 0.60936 0.43659 0.0
C564 C 0.37853 0.56501 0.44631 0.0
C565 C 0.36494 0.60342 0.45861 0.0
C566 C 0.34713 0.53605 0.35349 0.0
C567 C 0.35007 0.51185 0.35948 0.0
C568 C 0.3534 0.54359 0.33171 0.0
C569 C 0.35919 0.49563 0.34356 0.0
C570 C 0.36242 0.52683 0.31626 0.0
N571 N 0.36512 0.50339 0.32245 0.0
C572 C 0.31592 0.53499 0.41947 0.0
C573 C 0.30956 0.57257 0.4376 0.0
C574 C 0.31145 0.52274 0.43963 0.0
N575 N 0.31559 0.55945 0.41901 0.0
C576 C 0.30508 0.56107 0.45815 0.0
C577 C 0.30674 0.53589 0.4594 0.0
H578 H 0.32059 0.52506 0.40439 0.0
H579 H 0.30926 0.59202 0.43669 0.0
C580 C 0.40764 0.59482 0.3584 0.0
N581 N 0.39458 0.57522 0.36465 0.0
C582 C 0.43251 0.59306 0.35558 0.0
C583 C 0.43013 0.55096 0.36593 0.0
C584 C 0.40522 0.55352 0.36848 0.0
C585 C 0.44404 0.57091 0.35937 0.0
H586 H 0.39871 0.61195 0.35598 0.0
H587 H 0.39447 0.53834 0.3739 0.0
O588 O 0.30167 0.59546 0.37688 0.0
O589 O 0.346 0.60349 0.34841 0.0
O590 O 0.35393 0.5978 0.39772 0.0
O591 O 0.33872 0.55218 0.36915 0.0
H592 H 0.27823 0.55437 0.37165 0.0
H593 H 0.27973 0.62136 0.40834 0.0
H594 H 0.2418 0.54248 0.39338 0.0
H595 H 0.24326 0.60833 0.42939 0.0
H596 H 0.38418 0.61467 0.28106 0.0
H597 H 0.32141 0.64167 0.33449 0.0
H598 H 0.37853 0.59253 0.31705 0.0
H599 H 0.32824 0.66308 0.29824 0.0
H600 H 0.28743 0.69243 0.37689 0.0
H601 H 0.36402 0.69641 0.38981 0.0
H602 H 0.27622 0.52448 0.29902 0.0
H603 H 0.26889 0.60131 0.28924 0.0
H604 H 0.37436 0.55706 0.41083 0.0
H605 H 0.34974 0.62668 0.43309 0.0
H606 H 0.38649 0.54774 0.45034 0.0
H607 H 0.36235 0.61616 0.47224 0.0
H608 H 0.34555 0.50567 0.37632 0.0
H609 H 0.35097 0.56207 0.32668 0.0
H610 H 0.36159 0.47687 0.34801 0.0
H611 H 0.36723 0.53247 0.29932 0.0
H612 H 0.31293 0.50328 0.44003 0.0
H613 H 0.30123 0.57174 0.47306 0.0
H614 H 0.44269 0.60901 0.35111 0.0
H615 H 0.43846 0.53365 0.36919 0.0
Li616 Li 0.66698 0.11297 0.61778 0.0
Li617 Li 0.67789 0.078 0.64343 0.0
Li618 Li 0.67222 0.07262 0.6045 0.0
Li619 Li 0.63706 0.07924 0.62681 0.0
C620 C 0.71622 0.08855 0.60601 0.0
N621 N 0.75481 0.07725 0.57851 0.0
C622 C 0.72952 0.0676 0.60995 0.0
C623 C 0.72262 0.10389 0.58824 0.0
C624 C 0.74894 0.06216 0.5958 0.0
C625 C 0.74219 0.09783 0.57449 0.0
C626 C 0.64749 0.11484 0.66687 0.0
C627 C 0.62466 0.11924 0.70139 0.0
N628 N 0.63744 0.13944 0.70644 0.0
C629 C 0.66018 0.13582 0.67229 0.0
C630 C 0.62939 0.10662 0.68143 0.0
C631 C 0.65492 0.14793 0.69242 0.0
C632 C 0.64851 0.15818 0.60721 0.0
N633 N 0.66903 0.14653 0.61328 0.0
C634 C 0.69042 0.18377 0.61594 0.0
C635 C 0.68988 0.15864 0.61735 0.0
C636 C 0.66927 0.19636 0.6104 0.0
C637 C 0.64825 0.18325 0.60554 0.0
H638 H 0.63223 0.14798 0.60411 0.0
H639 H 0.70586 0.14881 0.62232 0.0
C640 C 0.70406 0.04735 0.67351 0.0
N641 N 0.69703 0.07038 0.66914 0.0
C642 C 0.71877 0.04234 0.69212 0.0
C643 C 0.71928 0.08489 0.70088 0.0
C644 C 0.7046 0.08905 0.68217 0.0
C645 C 0.72647 0.06129 0.70609 0.0
H646 H 0.69849 0.03291 0.6624 0.0
H647 H 0.69957 0.10723 0.67782 0.0
C648 C 0.63652 0.0886 0.57694 0.0
N649 N 0.6199 0.0753 0.53471 0.0
C650 C 0.62614 0.06592 0.57373 0.0
C651 C 0.6383 0.10461 0.55876 0.0
C652 C 0.61791 0.0595 0.55222 0.0
C653 C 0.62981 0.09753 0.53752 0.0
C654 C 0.65074 0.03515 0.64418 0.0
C655 C 0.64662 0.01119 0.63797 0.0
C656 C 0.64537 0.04263 0.66617 0.0
C657 C 0.63722 0.99513 0.6539 0.0
C658 C 0.63604 0.02604 0.68164 0.0
N659 N 0.63218 0.00283 0.67523 0.0
C660 C 0.6855 0.03052 0.58183 0.0
C661 C 0.68748 0.06535 0.55866 0.0
C662 C 0.6907 0.01578 0.56339 0.0
N663 N 0.68335 0.05471 0.57904 0.0
C664 C 0.69275 0.05128 0.53972 0.0
C665 C 0.69385 0.02612 0.54193 0.0
H666 H 0.68252 0.02261 0.5983 0.0
H667 H 0.68585 0.08467 0.55695 0.0
C668 C 0.59048 0.09483 0.63532 0.0
N669 N 0.60351 0.07462 0.63104 0.0
C670 C 0.56547 0.09359 0.6373 0.0
C671 C 0.5677 0.05069 0.63045 0.0
C672 C 0.59273 0.05276 0.62862 0.0
C673 C 0.55377 0.07135 0.63459 0.0
H674 H 0.59955 0.11201 0.6368 0.0
H675 H 0.60344 0.03703 0.62481 0.0
O676 O 0.69688 0.09393 0.61938 0.0
O677 O 0.65214 0.10296 0.64703 0.0
O678 O 0.64512 0.09503 0.59774 0.0
O679 O 0.65953 0.05111 0.62853 0.0
H680 H 0.72471 0.05555 0.62364 0.0
H681 H 0.71242 0.12014 0.58496 0.0
H682 H 0.75932 0.04592 0.59853 0.0
H683 H 0.74728 0.10944 0.56058 0.0
H684 H 0.61077 0.11301 0.71284 0.0
H685 H 0.67412 0.14255 0.66119 0.0
H686 H 0.61897 0.09073 0.67735 0.0
H687 H 0.66474 0.16408 0.69688 0.0
H688 H 0.70694 0.19328 0.61985 0.0
H689 H 0.63173 0.1923 0.60077 0.0
H690 H 0.72443 0.02397 0.6953 0.0
H691 H 0.72496 0.09999 0.71121 0.0
H692 H 0.62483 0.05327 0.58762 0.0
H693 H 0.64633 0.12223 0.56103 0.0
H694 H 0.61 0.04194 0.54942 0.0
H695 H 0.63116 0.10967 0.52325 0.0
H696 H 0.6504 0.00509 0.62094 0.0
H697 H 0.64865 0.06095 0.67134 0.0
H698 H 0.63389 0.97657 0.6493 0.0
H699 H 0.63191 0.03162 0.69874 0.0
H700 H 0.69157 0.99644 0.56573 0.0
H701 H 0.69477 0.05986 0.52336 0.0
H702 H 0.55533 0.10995 0.64029 0.0
H703 H 0.55934 0.03319 0.62849 0.0
Li704 Li 0.82476 0.41649 0.85322 0.0
Li705 Li 0.83093 0.42145 0.8928 0.0
Li706 Li 0.8653 0.41254 0.86915 0.0
Li707 Li 0.83384 0.38086 0.87767 0.0
C708 C 0.83847 0.46441 0.86329 0.0
N709 N 0.82568 0.51129 0.85318 0.0
C710 C 0.81613 0.47341 0.87015 0.0
C711 C 0.85441 0.47929 0.85145 0.0
C712 C 0.80997 0.49715 0.86484 0.0
C713 C 0.84758 0.50293 0.84645 0.0
C714 C 0.78282 0.40533 0.88597 0.0
C715 C 0.75001 0.39293 0.91007 0.0
N716 N 0.73641 0.41138 0.9019 0.0
C717 C 0.7684 0.42393 0.87754 0.0
C718 C 0.77346 0.38947 0.9021 0.0
C719 C 0.74503 0.42678 0.88592 0.0
C720 C 0.79182 0.40593 0.82037 0.0
N721 N 0.8064 0.4242 0.82715 0.0
C722 C 0.79305 0.44885 0.79644 0.0
C723 C 0.80741 0.44538 0.8156 0.0
C724 C 0.77792 0.43018 0.78896 0.0
C725 C 0.77741 0.40851 0.80123 0.0
H726 H 0.79159 0.38923 0.82982 0.0
H727 H 0.81935 0.45955 0.82105 0.0
C728 C 0.83574 0.46046 0.92203 0.0
N729 N 0.82308 0.43969 0.91923 0.0
C730 C 0.83293 0.47418 0.94157 0.0
C731 C 0.80463 0.44456 0.9555 0.0
C732 C 0.80771 0.43156 0.93546 0.0
C733 C 0.81743 0.46608 0.95864 0.0
H734 H 0.84865 0.46603 0.90938 0.0
H735 H 0.79858 0.41457 0.93332 0.0
C736 C 0.85733 0.3915 0.82625 0.0
N737 N 0.87469 0.39437 0.78253 0.0
C738 C 0.8582 0.37091 0.8127 0.0
C739 C 0.86524 0.41357 0.81759 0.0
C740 C 0.86707 0.37272 0.79063 0.0
C741 C 0.87395 0.41465 0.79543 0.0
C742 C 0.85812 0.39718 0.92127 0.0
C743 C 0.87385 0.41312 0.93207 0.0
C744 C 0.8432 0.38223 0.93415 0.0
C745 C 0.87417 0.41405 0.9557 0.0
C746 C 0.8441 0.38366 0.95774 0.0
N747 N 0.8594 0.39944 0.96794 0.0
C748 C 0.90899 0.43752 0.87329 0.0
C749 C 0.91213 0.39904 0.85605 0.0
C750 C 0.93399 0.44034 0.87268 0.0
N751 N 0.89871 0.41703 0.86524 0.0
C752 C 0.93716 0.40115 0.85499 0.0
C753 C 0.94837 0.42181 0.86377 0.0
H754 H 0.89779 0.45139 0.88069 0.0
H755 H 0.90343 0.3828 0.85009 0.0
C756 C 0.8081 0.33671 0.87586 0.0
N757 N 0.82936 0.34743 0.88128 0.0
C758 C 0.80601 0.31162 0.87655 0.0
C759 C 0.84758 0.30933 0.88873 0.0
C760 C 0.84883 0.3344 0.8879 0.0
C761 C 0.82611 0.29767 0.88258 0.0
H762 H 0.79301 0.34761 0.87041 0.0
H763 H 0.8655 0.34351 0.89199 0.0
O764 O 0.84502 0.44128 0.86839 0.0
O765 O 0.80554 0.40188 0.87766 0.0
O766 O 0.84854 0.39005 0.84782 0.0
O767 O 0.85687 0.39663 0.89818 0.0
H768 H 0.80381 0.46231 0.87971 0.0
H769 H 0.87184 0.47261 0.84613 0.0
H770 H 0.79274 0.50436 0.87007 0.0
H771 H 0.85969 0.51463 0.83723 0.0
H772 H 0.7426 0.38093 0.92271 0.0
H773 H 0.77504 0.43585 0.86448 0.0
H774 H 0.78429 0.37477 0.90855 0.0
H775 H 0.73371 0.44116 0.87962 0.0
H776 H 0.79371 0.46597 0.78766 0.0
H777 H 0.76622 0.39356 0.79591 0.0
H778 H 0.84341 0.49049 0.9437 0.0
H779 H 0.7927 0.43773 0.96852 0.0
H780 H 0.85208 0.35371 0.81917 0.0
H781 H 0.86462 0.4297 0.82782 0.0
H782 H 0.86787 0.35693 0.77993 0.0
H783 H 0.88012 0.4316 0.7885 0.0
H784 H 0.88543 0.42487 0.92229 0.0
H785 H 0.83079 0.36992 0.92601 0.0
H786 H 0.88609 0.42644 0.96432 0.0
H787 H 0.83252 0.37234 0.96794 0.0
H788 H 0.94201 0.45663 0.87938 0.0
H789 H 0.94771 0.38644 0.84814 0.0
H790 H 0.78921 0.30317 0.87165 0.0
H791 H 0.86334 0.29913 0.89376 0.0
Li792 Li 0.33651 0.11643 0.61825 0.0
Li793 Li 0.36625 0.08509 0.62746 0.0
Li794 Li 0.33174 0.07597 0.60267 0.0
Li795 Li 0.32569 0.08163 0.64295 0.0
C796 C 0.35734 0.10933 0.57631 0.0
N797 N 0.35478 0.12988 0.5338 0.0
C798 C 0.37841 0.11416 0.5642 0.0
C799 C 0.33496 0.11498 0.56684 0.0
C800 C 0.37674 0.12457 0.54272 0.0
C801 C 0.33404 0.12534 0.54531 0.0
C802 C 0.3627 0.10932 0.66779 0.0
C803 C 0.3792 0.09109 0.70143 0.0
N804 N 0.38936 0.11255 0.70714 0.0
C805 C 0.37326 0.1312 0.67398 0.0
C806 C 0.36564 0.0891 0.6816 0.0
C807 C 0.38669 0.13246 0.69395 0.0
C808 C 0.31124 0.16063 0.61536 0.0
N809 N 0.33313 0.14987 0.61339 0.0
C810 C 0.35195 0.1876 0.60546 0.0
C811 C 0.35331 0.16272 0.60855 0.0
C812 C 0.32957 0.19928 0.60723 0.0
C813 C 0.30902 0.18547 0.61223 0.0
H814 H 0.2956 0.14997 0.61964 0.0
H815 H 0.37051 0.15363 0.60743 0.0
C816 C 0.40912 0.0576 0.63035 0.0
N817 N 0.3996 0.08009 0.63209 0.0
C818 C 0.43401 0.05422 0.63202 0.0
C819 C 0.43866 0.09716 0.63753 0.0
C820 C 0.41374 0.09972 0.63564 0.0
C821 C 0.44909 0.07423 0.63538 0.0
H822 H 0.39743 0.04238 0.62718 0.0
H823 H 0.40567 0.11743 0.63647 0.0
C824 C 0.28375 0.09012 0.61252 0.0
N825 N 0.23693 0.07737 0.60197 0.0
C826 C 0.27432 0.0682 0.62003 0.0
C827 C 0.26936 0.10556 0.59958 0.0
C828 C 0.25062 0.06207 0.61455 0.0
C829 C 0.24574 0.09879 0.59443 0.0
C830 C 0.34052 0.0336 0.63481 0.0
C831 C 0.32274 0.01988 0.62407 0.0
C832 C 0.35374 0.02354 0.6526 0.0
C833 C 0.31818 0.99646 0.63161 0.0
C834 C 0.34863 6e-05 0.65964 0.0
N835 N 0.33109 0.98713 0.6491 0.0
C836 C 0.34381 0.04582 0.56804 0.0
C837 C 0.30242 0.05619 0.56617 0.0
C838 C 0.34167 0.03148 0.54881 0.0
N839 N 0.32437 0.05777 0.57632 0.0
C840 C 0.2994 0.04182 0.54696 0.0
C841 C 0.31923 0.02932 0.53802 0.0
H842 H 0.36105 0.04752 0.57644 0.0
H843 H 0.28722 0.06592 0.57285 0.0
C844 C 0.30308 0.0939 0.68279 0.0
N845 N 0.30735 0.07439 0.66949 0.0
C846 C 0.28965 0.0916 0.7026 0.0
C847 C 0.2847 0.04919 0.69455 0.0
C848 C 0.29859 0.05223 0.67502 0.0
C849 C 0.28016 0.06908 0.70853 0.0
H850 H 0.31003 0.11134 0.6779 0.0
H851 H 0.30196 0.03696 0.66423 0.0
O852 O 0.35876 0.09936 0.59744 0.0
O853 O 0.34972 0.10772 0.64819 0.0
O854 O 0.3069 0.09653 0.61772 0.0
O855 O 0.34546 0.05647 0.62753 0.0
H856 H 0.39587 0.10996 0.57137 0.0
H857 H 0.31847 0.11145 0.57599 0.0
H858 H 0.3929 0.12843 0.53316 0.0
H859 H 0.31685 0.12978 0.53776 0.0
H860 H 0.38163 0.07557 0.71228 0.0
H861 H 0.37116 0.147 0.66341 0.0
H862 H 0.35754 0.07207 0.67705 0.0
H863 H 0.39501 0.14926 0.69894 0.0
H864 H 0.36834 0.19765 0.60231 0.0
H865 H 0.29146 0.19381 0.61384 0.0
H866 H 0.4414 0.03624 0.63047 0.0
H867 H 0.44975 0.11302 0.6399 0.0
H868 H 0.28524 0.05593 0.62978 0.0
H869 H 0.27641 0.1225 0.59339 0.0
H870 H 0.24313 0.04513 0.62025 0.0
H871 H 0.23444 0.11053 0.58439 0.0
H872 H 0.31246 0.02723 0.61016 0.0
H873 H 0.36784 0.03373 0.66086 0.0
H874 H 0.30438 0.98571 0.62354 0.0
H875 H 0.35865 0.99209 0.67345 0.0
H876 H 0.35746 0.02233 0.54233 0.0
H877 H 0.28171 0.04032 0.53936 0.0
H878 H 0.28632 0.10735 0.71297 0.0
H879 H 0.27766 0.03154 0.69874 0.0
Li880 Li 0.66101 0.61621 0.37626 0.0
Li881 Li 0.63122 0.58463 0.36859 0.0
Li882 Li 0.66719 0.57727 0.39385 0.0
Li883 Li 0.67215 0.58052 0.35287 0.0
C884 C 0.63324 0.61751 0.41284 0.0
N885 N 0.62093 0.65427 0.44215 0.0
C886 C 0.6099 0.62695 0.41268 0.0
C887 C 0.65023 0.62654 0.42809 0.0
C888 C 0.60405 0.64559 0.42759 0.0
C889 C 0.64369 0.64519 0.44272 0.0
C890 C 0.63502 0.60827 0.32713 0.0
C891 C 0.61939 0.59132 0.29254 0.0
N892 N 0.60914 0.61291 0.28742 0.0
C893 C 0.62454 0.63035 0.32142 0.0
C894 C 0.6326 0.58865 0.31251 0.0
C895 C 0.61144 0.6323 0.30131 0.0
C896 C 0.68619 0.66064 0.38001 0.0
N897 N 0.66412 0.65013 0.37848 0.0
C898 C 0.6449 0.68856 0.37701 0.0
C899 C 0.64368 0.66348 0.37701 0.0
C900 C 0.66745 0.7 0.37791 0.0
C901 C 0.68828 0.68574 0.37979 0.0
H902 H 0.70217 0.64954 0.38084 0.0
H903 H 0.62641 0.65462 0.37546 0.0
C904 C 0.58803 0.55715 0.36828 0.0
N905 N 0.59785 0.57917 0.3642 0.0
C906 C 0.56321 0.55363 0.3659 0.0
C907 C 0.55921 0.59555 0.35537 0.0
C908 C 0.58401 0.59825 0.35801 0.0
C909 C 0.54853 0.57301 0.35929 0.0
H910 H 0.5994 0.54242 0.3737 0.0
H911 H 0.59219 0.61575 0.35568 0.0
C912 C 0.71296 0.59238 0.38663 0.0
N913 N 0.75706 0.58287 0.40641 0.0
C914 C 0.72864 0.57568 0.3768 0.0
C915 C 0.71981 0.60445 0.40635 0.0
C916 C 0.75084 0.57108 0.38709 0.0
C917 C 0.74214 0.59931 0.41616 0.0
C918 C 0.65452 0.53364 0.36068 0.0
C919 C 0.67122 0.51702 0.36905 0.0
C920 C 0.63902 0.52688 0.34314 0.0
C921 C 0.67245 0.49406 0.35944 0.0
C922 C 0.64082 0.50376 0.33397 0.0
N923 N 0.65737 0.48797 0.34222 0.0
C924 C 0.66095 0.56331 0.43864 0.0
C925 C 0.69638 0.5468 0.42249 0.0
C926 C 0.66508 0.55098 0.4588 0.0
N927 N 0.67648 0.56106 0.42098 0.0
C928 C 0.70112 0.53394 0.44235 0.0
C929 C 0.68529 0.53597 0.46077 0.0
H930 H 0.64493 0.57419 0.43688 0.0
H931 H 0.70823 0.54483 0.40814 0.0
C932 C 0.69447 0.59161 0.31291 0.0
N933 N 0.69019 0.57237 0.32655 0.0
C934 C 0.70773 0.5889 0.29308 0.0
C935 C 0.71248 0.5466 0.30178 0.0
C936 C 0.6989 0.55011 0.32145 0.0
C937 C 0.71701 0.56621 0.28739 0.0
H938 H 0.68766 0.60918 0.31756 0.0
H939 H 0.69571 0.53515 0.33268 0.0
O940 O 0.63942 0.59947 0.39818 0.0
O941 O 0.64775 0.60601 0.34686 0.0
O942 O 0.6912 0.5972 0.37674 0.0
O943 O 0.65291 0.55612 0.37007 0.0
H944 H 0.59648 0.62005 0.4011 0.0
H945 H 0.66828 0.61924 0.42858 0.0
H946 H 0.58609 0.65317 0.42756 0.0
H947 H 0.6567 0.65243 0.45453 0.0
H948 H 0.61734 0.57626 0.28109 0.0
H949 H 0.62639 0.64578 0.33247 0.0
H950 H 0.64099 0.5716 0.31642 0.0
H951 H 0.60311 0.64924 0.29675 0.0
H952 H 0.62836 0.69886 0.37612 0.0
H953 H 0.706 0.69389 0.38047 0.0
H954 H 0.55556 0.53604 0.36928 0.0
H955 H 0.5484 0.61111 0.35096 0.0
H956 H 0.72367 0.56622 0.36152 0.0
H957 H 0.70805 0.61766 0.414 0.0
H958 H 0.7631 0.55811 0.37974 0.0
H959 H 0.74764 0.60844 0.43148 0.0
H960 H 0.68324 0.52184 0.38268 0.0
H961 H 0.62558 0.53926 0.33679 0.0
H962 H 0.6854 0.48109 0.36567 0.0
H963 H 0.62898 0.49833 0.32035 0.0
H964 H 0.6521 0.55248 0.47242 0.0
H965 H 0.71677 0.52233 0.44323 0.0
H966 H 0.7111 0.60449 0.2825 0.0
H967 H 0.71932 0.52881 0.29785 0.0
Li968 Li 0.16949 0.92273 0.09984 0.0
Li969 Li 0.17413 0.91923 0.1406 0.0
Li970 Li 0.1626 0.88386 0.11651 0.0
Li971 Li 0.13319 0.9158 0.12432 0.0
C972 C 0.21412 0.90774 0.10575 0.0
N973 N 0.25626 0.91898 0.0832 0.0
C974 C 0.22966 0.92526 0.11443 0.0
C975 C 0.22013 0.89574 0.08574 0.0
C976 C 0.25086 0.93073 0.10275 0.0
C977 C 0.24147 0.90174 0.07454 0.0
C978 C 0.15304 0.96505 0.13578 0.0
C979 C 0.13462 0.98776 0.16599 0.0
N980 N 0.14797 0.00732 0.16009 0.0
C981 C 0.16634 0.98549 0.12982 0.0
C982 C 0.13684 0.96629 0.15385 0.0
C983 C 0.16362 0.00664 0.14239 0.0
C984 C 0.17067 0.9331 0.05329 0.0
N985 N 0.18042 0.93928 0.07357 0.0
C986 C 0.20213 0.97173 0.05646 0.0
C987 C 0.19622 0.95792 0.07543 0.0
C988 C 0.19184 0.96606 0.03544 0.0
C989 C 0.17626 0.94623 0.03388 0.0
H990 H 0.15783 0.91855 0.05229 0.0
H991 H 0.20369 0.96248 0.09175 0.0
C992 C 0.19615 0.90855 0.18106 0.0
N993 N 0.1923 0.92734 0.16677 0.0
C994 C 0.20938 0.91178 0.20084 0.0
C995 C 0.21524 0.95356 0.19059 0.0
C996 C 0.20161 0.94956 0.17103 0.0
C997 C 0.21915 0.93448 0.20574 0.0
H998 H 0.18896 0.89096 0.17701 0.0
H999 H 0.19883 0.96407 0.15915 0.0
C1000 C 0.13347 0.88317 0.08069 0.0
N1001 N 0.1174 0.84638 0.05302 0.0
C1002 C 0.10908 0.87688 0.08045 0.0
C1003 C 0.14962 0.87097 0.06662 0.0
C1004 C 0.10133 0.85818 0.0664 0.0
C1005 C 0.14117 0.85235 0.05283 0.0
C1006 C 0.13693 0.88934 0.1656 0.0
C1007 C 0.12599 0.86691 0.16884 0.0
C1008 C 0.13569 0.90663 0.18276 0.0
C1009 C 0.11339 0.86242 0.18887 0.0
C1010 C 0.12297 0.90145 0.20258 0.0
N1011 N 0.11213 0.87965 0.20518 0.0
C1012 C 0.18754 0.83937 0.11329 0.0
C1013 C 0.1449 0.83661 0.11431 0.0
C1014 C 0.18956 0.81427 0.11342 0.0
N1015 N 0.16544 0.84993 0.11396 0.0
C1016 C 0.14607 0.81154 0.11438 0.0
C1017 C 0.16862 0.8001 0.11443 0.0
H1018 H 0.20357 0.85045 0.11324 0.0
H1019 H 0.12759 0.84548 0.11503 0.0
C1020 C 0.08978 0.94331 0.12378 0.0
N1021 N 0.0997 0.92146 0.12845 0.0
C1022 C 0.06497 0.94685 0.12623 0.0
C1023 C 0.0611 0.90522 0.13773 0.0
C1024 C 0.0859 0.90252 0.13508 0.0
C1025 C 0.05037 0.92765 0.13342 0.0
H1026 H 0.10109 0.95792 0.11796 0.0
H1027 H 0.09405 0.88507 0.13764 0.0
O1028 O 0.19316 0.90234 0.11682 0.0
O1029 O 0.15548 0.9442 0.1236 0.0
O1030 O 0.14144 0.90129 0.09452 0.0
O1031 O 0.14941 0.89399 0.14604 0.0
H1032 H 0.22531 0.93471 0.12989 0.0
H1033 H 0.20844 0.88196 0.07892 0.0
H1034 H 0.26299 0.94436 0.1092 0.0
H1035 H 0.24629 0.89268 0.05898 0.0
H1036 H 0.12218 0.98891 0.18005 0.0
H1037 H 0.17872 0.98505 0.11573 0.0
H1038 H 0.12583 0.95098 0.15829 0.0
H1039 H 0.17394 0.02252 0.13805 0.0
H1040 H 0.21411 0.98702 0.05827 0.0
H1041 H 0.16754 0.94168 0.01804 0.0
H1042 H 0.21232 0.89658 0.21202 0.0
H1043 H 0.22256 0.97131 0.19387 0.0
H1044 H 0.09626 0.88632 0.09097 0.0
H1045 H 0.1685 0.8757 0.06649 0.0
H1046 H 0.08252 0.85305 0.06612 0.0
H1047 H 0.15352 0.84265 0.04199 0.0
H1048 H 0.12703 0.85313 0.15597 0.0
H1049 H 0.14475 0.92374 0.18103 0.0
H1050 H 0.10466 0.84521 0.19147 0.0
H1051 H 0.12184 0.91472 0.21594 0.0
H1052 H 0.20726 0.80604 0.11346 0.0
H1053 H 0.12951 0.80122 0.1147 0.0
H1054 H 0.05727 0.96434 0.1225 0.0
H1055 H 0.05036 0.88973 0.14247 0.0
Li1056 Li 0.83525 0.61317 0.11829 0.0
Li1057 Li 0.86565 0.58293 0.12854 0.0
Li1058 Li 0.8318 0.57244 0.1035 0.0
Li1059 Li 0.82485 0.57906 0.14324 0.0
C1060 C 0.85688 0.60504 0.07646 0.0
N1061 N 0.85419 0.62275 0.03283 0.0
C1062 C 0.87781 0.60781 0.06359 0.0
C1063 C 0.83458 0.61127 0.06716 0.0
C1064 C 0.87608 0.61681 0.04156 0.0
C1065 C 0.83359 0.62018 0.04507 0.0
C1066 C 0.85712 0.60478 0.17039 0.0
C1067 C 0.87204 0.58217 0.2023 0.0
N1068 N 0.87468 0.60304 0.2141 0.0
C1069 C 0.85995 0.626 0.18282 0.0
C1070 C 0.8632 0.58268 0.18018 0.0
C1071 C 0.86887 0.62475 0.2049 0.0
C1072 C 0.80958 0.65703 0.11828 0.0
N1073 N 0.83102 0.64649 0.11331 0.0
C1074 C 0.84863 0.68463 0.10465 0.0
C1075 C 0.85033 0.65962 0.10641 0.0
C1076 C 0.82691 0.69614 0.11027 0.0
C1077 C 0.80706 0.68202 0.11676 0.0
H1078 H 0.79463 0.64608 0.12397 0.0
H1079 H 0.86725 0.6507 0.10288 0.0
C1080 C 0.90948 0.55744 0.12811 0.0
N1081 N 0.89886 0.57864 0.13383 0.0
C1082 C 0.93438 0.55468 0.13028 0.0
C1083 C 0.93678 0.59555 0.14432 0.0
C1084 C 0.91186 0.59753 0.14185 0.0
C1085 C 0.94833 0.57395 0.13837 0.0
H1086 H 0.89865 0.54289 0.12141 0.0
H1087 H 0.90293 0.61433 0.1458 0.0
C1088 C 0.78296 0.58698 0.11258 0.0
N1089 N 0.73566 0.57572 0.10247 0.0
C1090 C 0.77244 0.56615 0.12145 0.0
C1091 C 0.76932 0.60228 0.09881 0.0
C1092 C 0.74853 0.56072 0.11608 0.0
C1093 C 0.74547 0.59621 0.09382 0.0
C1094 C 0.84088 0.53038 0.13417 0.0
C1095 C 0.82084 0.51865 0.12502 0.0
C1096 C 0.85666 0.51768 0.14825 0.0
C1097 C 0.81667 0.49451 0.13042 0.0
C1098 C 0.85186 0.49355 0.15326 0.0
N1099 N 0.83212 0.48257 0.14434 0.0
C1100 C 0.84355 0.5388 0.07148 0.0
C1101 C 0.80381 0.55344 0.06612 0.0
C1102 C 0.84129 0.52359 0.05285 0.0
N1103 N 0.82495 0.55322 0.07777 0.0
C1104 C 0.80074 0.53843 0.04736 0.0
C1105 C 0.81961 0.52316 0.04065 0.0
H1106 H 0.86022 0.53926 0.08096 0.0
H1107 H 0.78939 0.56526 0.07121 0.0
C1108 C 0.79244 0.59072 0.17639 0.0
N1109 N 0.80589 0.57182 0.1691 0.0
C1110 C 0.77767 0.58833 0.19531 0.0
C1111 C 0.79074 0.54694 0.1989 0.0
C1112 C 0.80539 0.55018 0.17991 0.0
C1113 C 0.77673 0.56624 0.20685 0.0
H1114 H 0.79333 0.60773 0.16747 0.0
H1115 H 0.81627 0.53542 0.1739 0.0
O1116 O 0.85835 0.59621 0.09803 0.0
O1117 O 0.84839 0.60576 0.14877 0.0
O1118 O 0.8063 0.59279 0.11768 0.0
O1119 O 0.84547 0.55398 0.12901 0.0
H1120 H 0.89522 0.60306 0.07057 0.0
H1121 H 0.81821 0.60923 0.07685 0.0
H1122 H 0.89214 0.61907 0.0314 0.0
H1123 H 0.81644 0.62505 0.03766 0.0
H1124 H 0.8768 0.56518 0.21009 0.0
H1125 H 0.8553 0.64325 0.17545 0.0
H1126 H 0.86108 0.5661 0.17082 0.0
H1127 H 0.87118 0.64103 0.21472 0.0
H1128 H 0.86436 0.69493 0.09973 0.0
H1129 H 0.78993 0.69024 0.12092 0.0
H1130 H 0.94269 0.53779 0.12543 0.0
H1131 H 0.94699 0.61102 0.15006 0.0
H1132 H 0.7825 0.55435 0.13249 0.0
H1133 H 0.7771 0.6186 0.09196 0.0
H1134 H 0.74019 0.54461 0.12279 0.0
H1135 H 0.73475 0.60781 0.08309 0.0
H1136 H 0.80868 0.52797 0.11374 0.0
H1137 H 0.87241 0.52638 0.1553 0.0
H1138 H 0.80119 0.48524 0.12349 0.0
H1139 H 0.86385 0.48355 0.16423 0.0
H1140 H 0.85649 0.51258 0.04782 0.0
H1141 H 0.78382 0.53869 0.03823 0.0
H1142 H 0.76731 0.6037 0.20103 0.0
H1143 H 0.79023 0.52953 0.20715 0.0
Li1144 Li 0.1368 0.08922 0.87193 0.0
Li1145 Li 0.16932 0.11671 0.87989 0.0
Li1146 Li 0.17566 0.08346 0.85461 0.0
Li1147 Li 0.17123 0.07604 0.89443 0.0
C1148 C 0.14248 0.10946 0.82967 0.0
N1149 N 0.12045 0.10651 0.78781 0.0
C1150 C 0.13887 0.13025 0.81676 0.0
C1151 C 0.13485 0.08716 0.8213 0.0
C1152 C 0.12769 0.12839 0.79564 0.0
C1153 C 0.12378 0.08605 0.8001 0.0
C1154 C 0.13329 0.11737 0.91302 0.0
C1155 C 0.11795 0.13399 0.94786 0.0
N1156 N 0.10636 0.15142 0.93588 0.0
C1157 C 0.12137 0.13552 0.90106 0.0
C1158 C 0.1317 0.11665 0.93662 0.0
C1159 C 0.10777 0.15253 0.91292 0.0
C1160 C 0.09181 0.06627 0.87678 0.0
N1161 N 0.1028 0.08647 0.86885 0.0
C1162 C 0.06486 0.10358 0.85857 0.0
C1163 C 0.08993 0.10484 0.85958 0.0
C1164 C 0.05299 0.08319 0.86709 0.0
C1165 C 0.06673 0.06417 0.87594 0.0
H1166 H 0.10254 0.05197 0.88409 0.0
H1167 H 0.09906 0.12066 0.85326 0.0
C1168 C 0.18057 0.16279 0.8655 0.0
N1169 N 0.17651 0.14973 0.88457 0.0
C1170 C 0.18303 0.18775 0.8667 0.0
C1171 C 0.17801 0.18528 0.9073 0.0
C1172 C 0.1758 0.16031 0.90533 0.0
C1173 C 0.18113 0.19929 0.88773 0.0
H1174 H 0.18114 0.15384 0.84925 0.0
H1175 H 0.17272 0.14951 0.92027 0.0
C1176 C 0.16481 0.03595 0.86709 0.0
N1177 N 0.18438 0.9904 0.86297 0.0
C1178 C 0.18978 0.03277 0.86785 0.0
C1179 C 0.1498 0.01598 0.86421 0.0
C1180 C 0.19933 0.00959 0.86576 0.0
C1181 C 0.16003 0.99309 0.86214 0.0
C1182 C 0.2143 0.102 0.89446 0.0
C1183 C 0.23843 0.10373 0.88794 0.0
C1184 C 0.20764 0.10797 0.91658 0.0
C1185 C 0.25557 0.11141 0.9037 0.0
C1186 C 0.22531 0.11556 0.93184 0.0
N1187 N 0.2487 0.11711 0.92513 0.0
C1188 C 0.20843 0.09357 0.82168 0.0
C1189 C 0.19024 0.0555 0.81535 0.0
C1190 C 0.22252 0.09103 0.80235 0.0
N1191 N 0.1928 0.07594 0.82782 0.0
C1192 C 0.20429 0.05204 0.79596 0.0
C1193 C 0.22066 0.07002 0.78923 0.0
H1194 H 0.20983 0.10972 0.83185 0.0
H1195 H 0.17742 0.04187 0.82043 0.0
C1196 C 0.16175 0.05237 0.93458 0.0
N1197 N 0.17972 0.05649 0.91948 0.0
C1198 C 0.16599 0.03836 0.95372 0.0
C1199 C 0.20711 0.03265 0.94123 0.0
C1200 C 0.20214 0.04706 0.92239 0.0
C1201 C 0.18886 0.02825 0.95713 0.0
H1202 H 0.14406 0.05995 0.93166 0.0
H1203 H 0.21613 0.0507 0.91012 0.0
O1204 O 0.15333 0.11116 0.85042 0.0
O1205 O 0.14756 0.10113 0.90192 0.0
O1206 O 0.15492 0.05841 0.86916 0.0
O1207 O 0.19744 0.0945 0.87911 0.0
H1208 H 0.14457 0.14767 0.82303 0.0
H1209 H 0.13737 0.07086 0.831 0.0
H1210 H 0.12476 0.14434 0.78548 0.0
H1211 H 0.1178 0.06892 0.79341 0.0
H1212 H 0.1166 0.13368 0.96612 0.0
H1213 H 0.12315 0.13685 0.88289 0.0
H1214 H 0.14122 0.10299 0.94617 0.0
H1215 H 0.09854 0.16675 0.90388 0.0
H1216 H 0.05483 0.11844 0.85132 0.0
H1217 H 0.05812 0.04818 0.88266 0.0
H1218 H 0.18539 0.19801 0.85126 0.0
H1219 H 0.17682 0.1936 0.92384 0.0
H1220 H 0.2017 0.04803 0.86988 0.0
H1221 H 0.13042 0.01816 0.86354 0.0
H1222 H 0.21862 0.00687 0.86631 0.0
H1223 H 0.14863 0.97747 0.85989 0.0
H1224 H 0.24385 0.09918 0.87087 0.0
H1225 H 0.18909 0.1067 0.922 0.0
H1226 H 0.27432 0.11282 0.89888 0.0
H1227 H 0.22041 0.12022 0.94901 0.0
H1228 H 0.23464 0.10548 0.79761 0.0
H1229 H 0.20254 0.03542 0.78652 0.0
H1230 H 0.15145 0.03513 0.96558 0.0
H1231 H 0.225 0.0252 0.94345 0.0
Li1232 Li 0.66765 0.42571 0.60219 0.0
Li1233 Li 0.67423 0.41876 0.64194 0.0
Li1234 Li 0.66362 0.38447 0.61645 0.0
Li1235 Li 0.63339 0.41509 0.62694 0.0
C1236 C 0.71578 0.413 0.61198 0.0
N1237 N 0.76177 0.42951 0.60309 0.0
C1238 C 0.72222 0.43657 0.61756 0.0
C1239 C 0.73269 0.3978 0.60183 0.0
C1240 C 0.74557 0.4446 0.61296 0.0
C1241 C 0.75587 0.40649 0.59747 0.0
C1242 C 0.65509 0.4661 0.63787 0.0
C1243 C 0.64189 0.49407 0.66654 0.0
N1244 N 0.65722 0.51095 0.65809 0.0
C1245 C 0.67048 0.48385 0.62928 0.0
C1246 C 0.64046 0.47134 0.65647 0.0
C1247 C 0.67139 0.50636 0.63981 0.0
C1248 C 0.66035 0.46361 0.57293 0.0
N1249 N 0.67569 0.44501 0.57686 0.0
C1250 C 0.69934 0.4557 0.54458 0.0
C1251 C 0.69481 0.44062 0.56306 0.0
C1252 C 0.68403 0.47535 0.54042 0.0
C1253 C 0.66422 0.4791 0.55475 0.0
H1254 H 0.64502 0.46631 0.58395 0.0
H1255 H 0.70641 0.42536 0.56624 0.0
C1256 C 0.69719 0.40604 0.68149 0.0
N1257 N 0.69272 0.42562 0.66833 0.0
C1258 C 0.7104 0.40835 0.70141 0.0
C1259 C 0.7149 0.45088 0.69366 0.0
C1260 C 0.70129 0.44781 0.67396 0.0
C1261 C 0.71948 0.43096 0.70761 0.0
H1262 H 0.69048 0.38856 0.67645 0.0
H1263 H 0.69783 0.46309 0.66319 0.0
C1264 C 0.64256 0.3947 0.57427 0.0
N1265 N 0.6459 0.38065 0.52954 0.0
C1266 C 0.62267 0.39694 0.55994 0.0
C1267 C 0.66418 0.38536 0.56587 0.0
C1268 C 0.62471 0.38972 0.53737 0.0
C1269 C 0.66549 0.37835 0.5432 0.0
C1270 C 0.63883 0.38705 0.66615 0.0
C1271 C 0.63018 0.36374 0.66991 0.0
C1272 C 0.63522 0.40486 0.68249 0.0
C1273 C 0.61771 0.35873 0.68991 0.0
C1274 C 0.62269 0.39913 0.70227 0.0
N1275 N 0.61424 0.37638 0.70553 0.0
C1276 C 0.68776 0.33945 0.61655 0.0
C1277 C 0.64678 0.3388 0.60512 0.0
C1278 C 0.68895 0.31432 0.61534 0.0
N1279 N 0.66681 0.35101 0.61168 0.0
C1280 C 0.64716 0.31373 0.60371 0.0
C1281 C 0.66829 0.30119 0.60932 0.0
H1282 H 0.70328 0.34969 0.62204 0.0
H1283 H 0.63032 0.34856 0.60157 0.0
C1284 C 0.58902 0.44045 0.62948 0.0
N1285 N 0.59996 0.41874 0.63222 0.0
C1286 C 0.56401 0.44244 0.63174 0.0
C1287 C 0.56223 0.39979 0.63991 0.0
C1288 C 0.58714 0.39858 0.63719 0.0
C1289 C 0.55029 0.42188 0.63698 0.0
H1290 H 0.59962 0.45607 0.62492 0.0
H1291 H 0.5962 0.38141 0.63853 0.0
O1292 O 0.69295 0.40484 0.61603 0.0
O1293 O 0.65375 0.44404 0.62761 0.0
O1294 O 0.64096 0.40219 0.59626 0.0
O1295 O 0.65098 0.39225 0.64661 0.0
H1296 H 0.70927 0.44857 0.6252 0.0
H1297 H 0.72791 0.37953 0.59724 0.0
H1298 H 0.75078 0.46283 0.61718 0.0
H1299 H 0.76914 0.39494 0.58959 0.0
H1300 H 0.63074 0.49832 0.681 0.0
H1301 H 0.68171 0.48028 0.6147 0.0
H1302 H 0.62796 0.45809 0.66297 0.0
H1303 H 0.68334 0.52018 0.63344 0.0
H1304 H 0.71463 0.4521 0.5337 0.0
H1305 H 0.65157 0.49361 0.55169 0.0
H1306 H 0.71382 0.39255 0.7117 0.0
H1307 H 0.72163 0.46861 0.69802 0.0
H1308 H 0.60586 0.40427 0.56619 0.0
H1309 H 0.67984 0.38369 0.57665 0.0
H1310 H 0.60946 0.39137 0.52607 0.0
H1311 H 0.68211 0.37113 0.53645 0.0
H1312 H 0.63296 0.34972 0.65744 0.0
H1313 H 0.64219 0.42284 0.68001 0.0
H1314 H 0.6108 0.3408 0.69301 0.0
H1315 H 0.61973 0.41276 0.71506 0.0
H1316 H 0.70553 0.30522 0.61987 0.0
H1317 H 0.63098 0.30422 0.59867 0.0
H1318 H 0.55549 0.45967 0.62865 0.0
H1319 H 0.55237 0.38349 0.64392 0.0
Li1320 Li 0.32502 0.92048 0.35073 0.0
Li1321 Li 0.33036 0.92596 0.39089 0.0
Li1322 Li 0.36537 0.91601 0.36651 0.0
Li1323 Li 0.33442 0.88569 0.37501 0.0
C1324 C 0.33835 0.96853 0.36198 0.0
N1325 N 0.32466 0.01551 0.35338 0.0
C1326 C 0.31577 0.9768 0.36895 0.0
C1327 C 0.35404 0.98418 0.35074 0.0
C1328 C 0.30916 0.0006 0.36443 0.0
C1329 C 0.34677 0.00786 0.34651 0.0
C1330 C 0.28242 0.90994 0.38247 0.0
C1331 C 0.2489 0.89963 0.4066 0.0
N1332 N 0.23553 0.91722 0.39665 0.0
C1333 C 0.26823 0.92773 0.3723 0.0
C1334 C 0.2726 0.89559 0.39959 0.0
C1335 C 0.24461 0.93121 0.37978 0.0
C1336 C 0.29212 0.91031 0.31779 0.0
N1337 N 0.30685 0.92844 0.32461 0.0
C1338 C 0.29368 0.95329 0.29396 0.0
C1339 C 0.30804 0.94965 0.31311 0.0
C1340 C 0.27826 0.93482 0.28657 0.0
C1341 C 0.27761 0.91312 0.29876 0.0
H1342 H 0.29176 0.89359 0.3272 0.0
H1343 H 0.32012 0.96369 0.31865 0.0
C1344 C 0.34312 0.94996 0.42943 0.0
N1345 N 0.32312 0.94391 0.41745 0.0
C1346 C 0.34113 0.96317 0.44936 0.0
C1347 C 0.29792 0.96416 0.44419 0.0
C1348 C 0.30073 0.95069 0.42439 0.0
C1349 C 0.31833 0.9705 0.45688 0.0
H1350 H 0.36069 0.94451 0.42339 0.0
H1351 H 0.28507 0.94591 0.41457 0.0
C1352 C 0.35827 0.89631 0.32383 0.0
N1353 N 0.37719 0.90098 0.28081 0.0
C1354 C 0.36066 0.8761 0.30994 0.0
C1355 C 0.36551 0.91891 0.31588 0.0
C1356 C 0.37028 0.87883 0.28823 0.0
C1357 C 0.37502 0.92089 0.29407 0.0
C1358 C 0.35796 0.89008 0.41615 0.0
C1359 C 0.38008 0.88094 0.42349 0.0
C1360 C 0.33738 0.8867 0.42938 0.0
C1361 C 0.38121 0.86846 0.444 0.0
C1362 C 0.33924 0.87414 0.44979 0.0
N1363 N 0.36094 0.86534 0.45662 0.0
C1364 C 0.40987 0.9405 0.36934 0.0
C1365 C 0.41172 0.90002 0.35656 0.0
C1366 C 0.435 0.94202 0.36953 0.0
N1367 N 0.3989 0.91963 0.36316 0.0
C1368 C 0.43682 0.90074 0.35648 0.0
C1369 C 0.44873 0.92175 0.36353 0.0
H1370 H 0.39912 0.95566 0.37486 0.0
H1371 H 0.40241 0.8836 0.35199 0.0
C1372 C 0.30823 0.84193 0.37694 0.0
N1373 N 0.33026 0.85228 0.37944 0.0
C1374 C 0.30572 0.81695 0.37864 0.0
C1375 C 0.34856 0.81394 0.38572 0.0
C1376 C 0.35025 0.83893 0.3838 0.0
C1377 C 0.32614 0.80266 0.3828 0.0
H1378 H 0.29272 0.85303 0.37317 0.0
H1379 H 0.36759 0.84767 0.38527 0.0
O1380 O 0.34523 0.9453 0.36615 0.0
O1381 O 0.30551 0.90605 0.37522 0.0
O1382 O 0.34878 0.89387 0.34508 0.0
O1383 O 0.35655 0.9022 0.39605 0.0
H1384 H 0.30348 0.96499 0.37773 0.0
H1385 H 0.3716 0.97805 0.34522 0.0
H1386 H 0.29171 0.00722 0.3697 0.0
H1387 H 0.35869 0.02015 0.33775 0.0
H1388 H 0.24112 0.88873 0.4199 0.0
H1389 H 0.27534 0.93879 0.35879 0.0
H1390 H 0.28312 0.88141 0.40736 0.0
H1391 H 0.23349 0.945 0.37214 0.0
H1392 H 0.2945 0.97039 0.28517 0.0
H1393 H 0.26619 0.89832 0.29346 0.0
H1394 H 0.35728 0.96792 0.45864 0.0
H1395 H 0.28004 0.96944 0.44961 0.0
H1396 H 0.35512 0.85849 0.31587 0.0
H1397 H 0.36381 0.93475 0.32637 0.0
H1398 H 0.37224 0.86333 0.27728 0.0
H1399 H 0.38067 0.93827 0.28768 0.0
H1400 H 0.39618 0.88342 0.41339 0.0
H1401 H 0.32018 0.89377 0.42397 0.0
H1402 H 0.3982 0.86124 0.44989 0.0
H1403 H 0.32345 0.87139 0.4602 0.0
H1404 H 0.4436 0.95849 0.37512 0.0
H1405 H 0.44683 0.88489 0.35138 0.0
H1406 H 0.2881 0.80888 0.37653 0.0
H1407 H 0.36472 0.80349 0.38874 0.0
C1408 C 0.1846 0.76033 0.10107 0.0
C1409 C 0.17019 0.77352 0.11623 0.0
C1410 C 0.18554 0.73508 0.10207 0.0
C1411 C 0.17207 0.72225 0.11824 0.0
H1412 H 0.19481 0.76954 0.08805 0.0
H1413 H 0.19642 0.72551 0.08979 0.0
S1414 S 0.13392 0.74851 0.16347 0.0
N1415 N 0.14385 0.77201 0.14909 0.0
N1416 N 0.14552 0.72463 0.15087 0.0
C1417 C 0.15823 0.73528 0.13393 0.0
C1418 C 0.15731 0.76091 0.13295 0.0
C1419 C 0.48878 0.94091 0.35568 0.0
C1420 C 0.47534 0.92215 0.36553 0.0
C1421 C 0.51401 0.94126 0.3571 0.0
C1422 C 0.5266 0.92285 0.36843 0.0
H1423 H 0.47975 0.95519 0.34648 0.0
H1424 H 0.52377 0.95575 0.34892 0.0
S1425 S 0.49963 0.8713 0.39931 0.0
N1426 N 0.47634 0.88582 0.38852 0.0
N1427 N 0.52371 0.88645 0.39115 0.0
C1428 C 0.51332 0.90439 0.37889 0.0
C1429 C 0.4877 0.90405 0.37745 0.0
C1430 C 0.31434 0.26436 0.62091 0.0
C1431 C 0.32679 0.27727 0.60412 0.0
C1432 C 0.31494 0.23914 0.6215 0.0
C1433 C 0.32789 0.22591 0.60522 0.0
H1434 H 0.3047 0.27386 0.63413 0.0
H1435 H 0.30577 0.22998 0.63521 0.0
S1436 S 0.36112 0.25131 0.55619 0.0
N1437 N 0.35096 0.27515 0.56993 0.0
N1438 N 0.35172 0.22765 0.57068 0.0
C1439 C 0.33966 0.23864 0.58783 0.0
C1440 C 0.3392 0.26434 0.58736 0.0
C1441 C 0.01423 0.06251 0.85733 0.0
C1442 C 0.02633 0.08212 0.86722 0.0
C1443 C 0.98896 0.06158 0.85685 0.0
C1444 C 0.97497 0.08018 0.86633 0.0
H1445 H 0.02436 0.04802 0.84958 0.0
H1446 H 0.98031 0.04639 0.84869 0.0
S1447 S 0.99818 0.13403 0.89651 0.0
N1448 N 0.02262 0.11964 0.88807 0.0
N1449 N 0.97519 0.11777 0.88749 0.0
C1450 C 0.98694 0.09952 0.87683 0.0
C1451 C 0.0126 0.10052 0.8772 0.0
C1452 C 0.19874 0.26445 0.87769 0.0
C1453 C 0.17928 0.27716 0.88713 0.0
C1454 C 0.1995 0.23922 0.87838 0.0
C1455 C 0.18103 0.22592 0.88886 0.0
H1456 H 0.21311 0.27405 0.86915 0.0
H1457 H 0.21451 0.23001 0.87046 0.0
S1458 S 0.12674 0.25088 0.91697 0.0
N1459 N 0.1416 0.27481 0.90794 0.0
N1460 N 0.14301 0.22735 0.90928 0.0
C1461 C 0.16182 0.23849 0.8989 0.0
C1462 C 0.16093 0.26413 0.898 0.0
C1463 C 0.98549 0.9407 0.11723 0.0
C1464 C 0.97249 0.93104 0.13554 0.0
C1465 C 0.01075 0.94036 0.11703 0.0
C1466 C 0.02385 0.9304 0.13515 0.0
H1467 H 0.97607 0.94766 0.10256 0.0
H1468 H 0.02005 0.94705 0.10218 0.0
S1469 S 0.99827 0.90606 0.18846 0.0
N1470 N 0.97449 0.91347 0.17316 0.0
N1471 N 0.02199 0.91299 0.17288 0.0
C1472 C 0.01105 0.92184 0.15405 0.0
C1473 C 0.98537 0.92213 0.15422 0.0
C1474 C 0.33491 0.73774 0.40123 0.0
C1475 C 0.3243 0.72463 0.38346 0.0
C1476 C 0.33499 0.76299 0.40113 0.0
C1477 C 0.32445 0.77602 0.38327 0.0
H1478 H 0.34328 0.72839 0.41528 0.0
H1479 H 0.34345 0.7724 0.41509 0.0
S1480 S 0.29557 0.75022 0.33212 0.0
N1481 N 0.30373 0.72652 0.34718 0.0
N1482 N 0.30384 0.77399 0.34701 0.0
C1483 C 0.3137 0.76314 0.36545 0.0
C1484 C 0.31364 0.73744 0.36554 0.0
C1485 C 0.51444 0.08151 0.65301 0.0
C1486 C 0.52707 0.07014 0.63535 0.0
C1487 C 0.4892 0.08223 0.6532 0.0
C1488 C 0.47566 0.07156 0.63575 0.0
H1489 H 0.52416 0.09012 0.6667 0.0
H1490 H 0.48019 0.09139 0.667 0.0
S1491 S 0.50005 0.04044 0.58516 0.0
N1492 N 0.52416 0.04847 0.5997 0.0
N1493 N 0.4767 0.04974 0.6001 0.0
C1494 C 0.48804 0.05988 0.61813 0.0
C1495 C 0.51375 0.05918 0.61792 0.0
C1496 C 0.80677 0.23287 0.89283 0.0
C1497 C 0.82426 0.21968 0.88083 0.0
C1498 C 0.8072 0.25817 0.89311 0.0
C1499 C 0.82518 0.27104 0.88147 0.0
H1500 H 0.79299 0.22357 0.90244 0.0
H1501 H 0.79372 0.26771 0.90288 0.0
S1502 S 0.87312 0.24508 0.84521 0.0
N1503 N 0.85863 0.22145 0.85535 0.0
N1504 N 0.85956 0.26888 0.85609 0.0
C1505 C 0.84224 0.25808 0.86883 0.0
C1506 C 0.84175 0.23243 0.86846 0.0
C1507 C 0.684 0.73941 0.39183 0.0
C1508 C 0.66918 0.72668 0.37661 0.0
C1509 C 0.68513 0.76467 0.39141 0.0
C1510 C 0.67137 0.778 0.37586 0.0
H1511 H 0.69437 0.72982 0.40449 0.0
H1512 H 0.69637 0.77386 0.40367 0.0
S1513 S 0.632 0.75343 0.3308 0.0
N1514 N 0.64222 0.72941 0.34421 0.0
N1515 N 0.64394 0.77684 0.34389 0.0
C1516 C 0.65705 0.76555 0.36017 0.0
C1517 C 0.65606 0.7399 0.36043 0.0
C1518 C 0.83402 0.73608 0.09166 0.0
C1519 C 0.82548 0.72283 0.11032 0.0
C1520 C 0.83412 0.76134 0.09189 0.0
C1521 C 0.82566 0.77424 0.11078 0.0
H1522 H 0.84074 0.72684 0.0768 0.0
H1523 H 0.84088 0.77086 0.07719 0.0
S1524 S 0.80292 0.74807 0.16445 0.0
N1525 N 0.80928 0.72447 0.14852 0.0
N1526 N 0.80941 0.77193 0.14891 0.0
C1527 C 0.81707 0.76122 0.12952 0.0
C1528 C 0.81699 0.73552 0.1293 0.0
C1529 C 0.68652 0.26147 0.59851 0.0
C1530 C 0.66843 0.27449 0.60985 0.0
C1531 C 0.68674 0.23619 0.59877 0.0
C1532 C 0.6689 0.22308 0.6104 0.0
H1533 H 0.7004 0.2709 0.58915 0.0
H1534 H 0.70079 0.22682 0.58957 0.0
S1535 S 0.61922 0.24876 0.6448 0.0
N1536 N 0.6333 0.27248 0.63434 0.0
N1537 N 0.63376 0.22504 0.6349 0.0
C1538 C 0.65107 0.23593 0.62223 0.0
C1539 C 0.65083 0.2616 0.62194 0.0
C1540 C 0.0139 0.4188 0.84563 0.0
C1541 C 0.0264 0.42334 0.86591 0.0
C1542 C 0.98865 0.41876 0.84496 0.0
C1543 C 0.975 0.42337 0.86453 0.0
H1544 H 0.02372 0.41517 0.83015 0.0
H1545 H 0.97973 0.41503 0.82903 0.0
S1546 S 0.99893 0.43498 0.92211 0.0
N1547 N 0.02316 0.4317 0.9062 0.0
N1548 N 0.97572 0.43183 0.90488 0.0
C1549 C 0.98724 0.42806 0.88489 0.0
C1550 C 0.01293 0.428 0.88559 0.0
C1551 C 0.50917 0.56012 0.376 0.0
C1552 C 0.52201 0.57025 0.35781 0.0
C1553 C 0.48391 0.5596 0.37601 0.0
C1554 C 0.47064 0.5692 0.35783 0.0
H1555 H 0.51867 0.55339 0.39072 0.0
H1556 H 0.47471 0.55249 0.39074 0.0
S1557 S 0.49578 0.59468 0.30483 0.0
N1558 N 0.51969 0.58791 0.32022 0.0
N1559 N 0.47219 0.58695 0.32025 0.0
C1560 C 0.48329 0.57833 0.33909 0.0
C1561 C 0.50898 0.57885 0.33908 0.0
C1562 C 0.50993 0.40492 0.62699 0.0
C1563 C 0.52355 0.42289 0.63793 0.0
C1564 C 0.48473 0.40525 0.62745 0.0
C1565 C 0.47215 0.42366 0.63867 0.0
H1566 H 0.51879 0.39063 0.6177 0.0
H1567 H 0.47499 0.39118 0.61862 0.0
S1568 S 0.49899 0.47423 0.67091 0.0
N1569 N 0.52242 0.45905 0.6612 0.0
N1570 N 0.47489 0.4599 0.66152 0.0
C1571 C 0.4854 0.44172 0.64972 0.0
C1572 C 0.51113 0.44128 0.64946 0.0
C1573 C 0.01289 0.56388 0.11961 0.0
C1574 C 0.02634 0.57189 0.13833 0.0
C1575 C 0.98766 0.56402 0.12 0.0
C1576 C 0.97496 0.57216 0.13914 0.0
H1577 H 0.02194 0.55816 0.10427 0.0
H1578 H 0.97802 0.55843 0.10494 0.0
S1579 S 0.00173 0.59231 0.19344 0.0
N1580 N 0.02517 0.58632 0.17715 0.0
N1581 N 0.97767 0.58657 0.1779 0.0
C1582 C 0.98818 0.57941 0.15825 0.0
C1583 C 0.01388 0.57928 0.15784 0.0
C1584 C 0.1954 0.52613 0.99506 0.0
C1585 C 0.19897 0.5165 0.01682 0.0
C1586 C 0.19613 0.51136 0.97587 0.0
C1587 C 0.20011 0.48645 0.97789 0.0
H1588 H 0.19107 0.54504 0.99298 0.0
H1589 H 0.19215 0.51923 0.95951 0.0
S1590 S 0.21252 0.45283 0.03081 0.0
N1591 N 0.20833 0.48092 0.03915 0.0
N1592 N 0.20955 0.45308 0.003 0.0
C1593 C 0.20497 0.47683 -0.0006 0.0
C1594 C 0.20448 0.49191 0.01891 0.0
C1595 C 0.74865 0.95744 0.26208 0.0
C1596 C 0.72914 0.94178 0.26597 0.0
C1597 C 0.76277 0.95541 0.24247 0.0
C1598 C 0.75798 0.93751 0.22624 0.0
H1599 H 0.75321 0.97114 0.27441 0.0
H1600 H 0.77801 0.96741 0.24037 0.0
S1601 S 0.70846 0.89264 0.22803 0.0
N1602 N 0.70561 0.90799 0.25178 0.0
N1603 N 0.7316 0.90476 0.21469 0.0
C1604 C 0.7381 0.92223 0.22962 0.0
C1605 C 0.72381 0.92423 0.24954 0.0
C1606 C 0.29259 0.48953 0.50461 0.0
C1607 C 0.30939 0.49524 0.52158 0.0
C1608 C 0.29115 0.5033 0.48475 0.0
C1609 C 0.30618 0.52341 0.48148 0.0
H1610 H 0.28125 0.47373 0.50627 0.0
H1611 H 0.27861 0.49789 0.47165 0.0
S1612 S 0.35204 0.54664 0.52159 0.0
N1613 N 0.34039 0.52293 0.53447 0.0
N1614 N 0.33773 0.54882 0.49717 0.0
C1615 C 0.32232 0.52985 0.49878 0.0
C1616 C 0.32392 0.51574 0.51884 0.0
C1617 C 0.763 0.07116 0.72888 0.0
C1618 C 0.74231 0.05689 0.72584 0.0
C1619 C 0.7771 0.06912 0.74841 0.0
C1620 C 0.77097 0.05281 0.76569 0.0
H1621 H 0.76807 0.08437 0.71624 0.0
H1622 H 0.79234 0.08114 0.75039 0.0
S1623 S 0.71954 0.01016 0.7653 0.0
N1624 N 0.71699 0.0251 0.74123 0.0
N1625 N 0.74377 0.02104 0.77792 0.0
C1626 C 0.75088 0.03777 0.7625 0.0
C1627 C 0.73652 0.03981 0.74255 0.0
C1628 C 0.80891 0.50392 0.97992 0.0
C1629 C 0.81587 0.47958 0.98009 0.0
C1630 C 0.80937 0.51768 -0.00021 0.0
C1631 C 0.81717 0.50764 0.02039 0.0
H1632 H 0.80343 0.51244 0.96424 0.0
H1633 H 0.80437 0.53653 -0.00115 0.0
S1634 S 0.83673 0.44448 0.02969 0.0
N1635 N 0.83031 0.44581 0.00242 0.0
N1636 N 0.83117 0.47163 0.03987 0.0
C1637 C 0.82372 0.48316 0.02082 0.0
C1638 C 0.82304 0.46912 0.00063 0.0
C1639 C 0.26039 0.07395 0.76959 0.0
C1640 C 0.23591 0.06727 0.76872 0.0
C1641 C 0.27475 0.07384 0.75012 0.0
C1642 C 0.26528 0.06673 0.72914 0.0
H1643 H 0.26845 0.07968 0.78539 0.0
H1644 H 0.29334 0.07966 0.75143 0.0
S1645 S 0.20257 0.0475 0.71753 0.0
N1646 N 0.20291 0.05338 0.74493 0.0
N1647 N 0.23026 0.05257 0.70844 0.0
C1648 C 0.24114 0.05929 0.72805 0.0
C1649 C 0.22637 0.05966 0.74784 0.0
C1650 C 0.69094 0.49602 0.47959 0.0
C1651 C 0.68857 0.52118 0.4814 0.0
C1652 C 0.69054 0.48131 0.49889 0.0
C1653 C 0.68778 0.4913 0.52061 0.0
H1654 H 0.69193 0.48756 0.46309 0.0
H1655 H 0.69126 0.46195 0.49669 0.0
S1656 S 0.68473 0.55637 0.53459 0.0
N1657 N 0.68607 0.55561 0.50668 0.0
N1658 N 0.68546 0.52799 0.54298 0.0
C1659 C 0.68686 0.51651 0.5227 0.0
C1660 C 0.68722 0.53145 0.50309 0.0
C1661 C 0.23863 0.93042 0.26696 0.0
C1662 C 0.26291 0.93769 0.26619 0.0
C1663 C 0.22434 0.93033 0.24745 0.0
C1664 C 0.23374 0.93768 0.22647 0.0
H1665 H 0.23073 0.92426 0.2827 0.0
H1666 H 0.20592 0.92399 0.24868 0.0
S1667 S 0.29601 0.95866 0.2153 0.0
N1668 N 0.29563 0.9527 0.24268 0.0
N1669 N 0.26854 0.95285 0.20602 0.0
C1670 C 0.25768 0.94581 0.22555 0.0
C1671 C 0.27233 0.94576 0.24541 0.0
C1672 C 0.67842 0.99237 0.51835 0.0
C1673 C 0.69569 0.01054 0.5217 0.0
C1674 C 0.67853 0.97825 0.49878 0.0
C1675 C 0.69597 0.98166 0.4818 0.0
H1676 H 0.66423 0.98951 0.53066 0.0
H1677 H 0.66434 0.96503 0.49663 0.0
S1678 S 0.74646 0.02545 0.48343 0.0
N1679 N 0.73152 0.03037 0.50716 0.0
N1680 N 0.73194 0.00354 0.47031 0.0
C1681 C 0.71377 -0.00065 0.48521 0.0
C1682 C 0.71358 0.01385 0.50517 0.0
C1683 C 0.23607 0.42501 0.72852 0.0
C1684 C 0.25645 0.43968 0.72529 0.0
C1685 C 0.22201 0.42688 0.74806 0.0
C1686 C 0.22768 0.44359 0.76515 0.0
H1687 H 0.23124 0.41154 0.71605 0.0
H1688 H 0.20716 0.4144 0.7502 0.0
S1689 S 0.27787 0.48774 0.76403 0.0
N1690 N 0.28093 0.47235 0.74029 0.0
N1691 N 0.25388 0.47648 0.77674 0.0
C1692 C 0.24731 0.45921 0.76166 0.0
C1693 C 0.26178 0.45717 0.74177 0.0
C1694 C 0.79425 0.01131 0.99294 0.0
C1695 C 0.80867 0.0035 0.9748 0.0
C1696 C 0.79291 0.99796 0.01305 0.0
C1697 C 0.80569 0.97623 0.01555 0.0
H1698 H 0.78477 0.02834 0.99193 0.0
H1699 H 0.78226 0.00495 0.02695 0.0
S1700 S 0.84461 0.94724 0.97237 0.0
N1701 N 0.83473 0.97203 0.96002 0.0
N1702 N 0.83248 0.9471 0.99788 0.0
C1703 C 0.81935 0.96776 0.99716 0.0
C1704 C 0.82079 0.98138 0.97677 0.0
C1705 C 0.24928 0.54172 0.23375 0.0
C1706 C 0.22756 0.55444 0.23096 0.0
C1707 C 0.26253 0.54344 0.25388 0.0
C1708 C 0.25463 0.55818 0.27175 0.0
H1709 H 0.25634 0.53081 0.22006 0.0
H1710 H 0.27957 0.534 0.2551 0.0
S1711 S 0.19832 0.59411 0.27337 0.0
N1712 N 0.19833 0.58155 0.24805 0.0
N1713 N 0.22305 0.58445 0.286 0.0
C1714 C 0.2325 0.57024 0.2695 0.0
C1715 C 0.219 0.56844 0.24908 0.0
C1716 C 0.32749 0.99093 0.51735 0.0
C1717 C 0.31685 0.01395 0.5176 0.0
C1718 C 0.32727 0.97672 0.4978 0.0
C1719 C 0.31624 0.98491 0.47782 0.0
H1720 H 0.33633 0.98394 0.53232 0.0
H1721 H 0.33605 0.95929 0.49821 0.0
S1722 S 0.28597 0.04376 0.46943 0.0
N1723 N 0.29505 0.04429 0.49604 0.0
N1724 N 0.29433 0.0173 0.45935 0.0
C1725 C 0.30499 0.00758 0.47794 0.0
C1726 C 0.30536 0.02216 0.49782 0.0
C1727 C 0.73738 0.57244 0.22654 0.0
C1728 C 0.76117 0.56372 0.22713 0.0
C1729 C 0.72294 0.5724 0.24596 0.0
C1730 C 0.73171 0.56351 0.26666 0.0
H1731 H 0.72997 0.57972 0.21101 0.0
H1732 H 0.70488 0.57974 0.24487 0.0
S1733 S 0.79268 0.53869 0.27728 0.0
N1734 N 0.79283 0.54589 0.25016 0.0
N1735 N 0.76551 0.5456 0.28665 0.0
C1736 C 0.7552 0.5541 0.26738 0.0
C1737 C 0.76998 0.55424 0.24761 0.0
C1738 C 0.18874 0.00672 0.01787 0.0
C1739 C 0.19492 0.98226 0.01577 0.0
C1740 C 0.18772 0.02174 -0.00114 0.0
C1741 C 0.19316 0.01289 0.97717 0.0
H1742 H 0.1835 0.01401 0.03415 0.0
H1743 H 0.18199 0.04026 0.00104 0.0
S1744 S 0.21229 0.95075 0.96293 0.0
N1745 N 0.20801 0.95021 0.9906 0.0
N1746 N 0.20624 0.97858 0.95479 0.0
C1747 C 0.20054 0.9888 0.97498 0.0
C1748 C 0.20133 0.97343 0.99431 0.0
C1749 C 0.72459 0.42502 0.74913 0.0
C1750 C 0.73396 0.43334 0.72848 0.0
C1751 C 0.73869 0.42489 0.76876 0.0
C1752 C 0.76278 0.43285 0.7684 0.0
H1753 H 0.7063 0.41825 0.75003 0.0
H1754 H 0.73077 0.41816 0.78428 0.0
S1755 S 0.79578 0.45611 0.71831 0.0
N1756 N 0.76852 0.44996 0.70869 0.0
N1757 N 0.79535 0.44926 0.74551 0.0
C1758 C 0.7722 0.44169 0.7479 0.0
C1759 C 0.75771 0.44202 0.72794 0.0
loop_
_geom_bond_atom_site_label_1
_geom_bond_atom_site_label_2
_geom_bond_distance
_geom_bond_site_symmetry_2
_ccdc_geom_bond_type
Li0 N17 1.990 . S
Li0 O60 1.956 . S
Li0 O61 1.970 . S
Li0 O62 1.961 . S
Li1 N25 1.990 . S
Li1 O60 1.970 . S
Li1 O61 1.956 . S
Li1 O63 1.961 . S
Li2 N47 1.990 . S
Li2 O60 1.961 . S
Li2 O62 1.956 . S
Li2 O63 1.970 . S
Li3 N53 1.990 . S
Li3 O61 1.961 . S
Li3 O62 1.970 . S
Li3 O63 1.956 . S
C4 C6 1.348 . S
C4 C7 1.356 . S
C4 O60 1.325 . S
N5 C8 1.314 . S
N5 C9 1.279 . S
C6 C4 1.348 . S
C6 C8 1.353 . S
C6 H64 0.929 . S
C7 C4 1.356 . S
C7 C9 1.358 . S
C7 H65 0.930 . S
C8 N5 1.314 . S
C8 C6 1.353 . S
C8 H66 0.930 . S
C9 N5 1.279 . S
C9 C7 1.358 . S
C9 H67 0.930 . S
C10 C13 1.348 . S
C10 C14 1.356 . S
C10 O61 1.325 . S
C11 N12 1.279 . S
C11 C14 1.358 . S
C11 H68 0.930 . S
N12 C11 1.279 . S
N12 C15 1.314 . S
C13 C10 1.348 . S
C13 C15 1.353 . S
C13 H69 0.929 . S
C14 C10 1.356 . S
C14 C11 1.358 . S
C14 H70 0.930 . S
C15 N12 1.314 . S
C15 C13 1.353 . S
C15 H71 0.930 . S
C16 N17 1.314 . S
C16 C21 1.353 . S
C16 H22 0.930 . S
N17 Li0 1.990 . S
N17 C16 1.314 . S
N17 C19 1.279 . S
C18 C19 1.358 . S
C18 C20 1.356 . S
C18 H72 0.930 . S
C19 N17 1.279 . S
C19 C18 1.358 . S
C19 H23 0.930 . S
C20 C18 1.356 . S
C20 C21 1.348 . S
C21 C16 1.353 . S
C21 C20 1.348 . S
C21 H73 0.929 . S
H22 C16 0.930 . S
H23 C19 0.930 . S
C24 N25 1.314 . S
C24 C26 1.353 . S
C24 H30 0.930 . S
N25 Li1 1.990 . S
N25 C24 1.314 . S
N25 C28 1.279 . S
C26 C24 1.353 . S
C26 C29 1.348 . S
C26 H74 0.929 . S
C27 C28 1.358 . S
C27 C29 1.356 . S
C27 H75 0.930 . S
C28 N25 1.279 . S
C28 C27 1.358 . S
C28 H31 0.930 . S
C29 C26 1.348 . S
C29 C27 1.356 . S
H30 C24 0.930 . S
H31 C28 0.930 . S
C32 C34 1.348 . S
C32 C35 1.356 . S
C32 O62 1.325 . S
N33 C36 1.314 . S
N33 C37 1.279 . S
C34 C32 1.348 . S
C34 C36 1.353 . S
C34 H76 0.929 . S
C35 C32 1.356 . S
C35 C37 1.358 . S
C35 H77 0.930 . S
C36 N33 1.314 . S
C36 C34 1.353 . S
C36 H78 0.930 . S
C37 N33 1.279 . S
C37 C35 1.358 . S
C37 H79 0.930 . S
C38 C39 1.348 . S
C38 C40 1.356 . S
C38 O63 1.325 . S
C39 C38 1.348 . S
C39 C41 1.353 . S
C39 H80 0.929 . S
C40 C38 1.356 . S
C40 C42 1.358 . S
C40 H81 0.930 . S
C41 C39 1.353 . S
C41 N43 1.314 . S
C41 H82 0.930 . S
C42 C40 1.358 . S
C42 N43 1.279 . S
C42 H83 0.930 . S
N43 C41 1.314 . S
N43 C42 1.279 . S
C44 C46 1.353 . S
C44 N47 1.314 . S
C44 H50 0.930 . S
C45 N47 1.279 . S
C45 C48 1.358 . S
C45 H51 0.930 . S
C46 C44 1.353 . S
C46 C49 1.348 . S
C46 H84 0.929 . S
N47 Li2 1.990 . S
N47 C44 1.314 . S
N47 C45 1.279 . S
C48 C45 1.358 . S
C48 C49 1.356 . S
C48 H85 0.930 . S
C49 C46 1.348 . S
C49 C48 1.356 . S
H50 C44 0.930 . S
H51 C45 0.930 . S
C52 N53 1.314 . S
C52 C54 1.353 . S
C52 H58 0.930 . S
N53 Li3 1.990 . S
N53 C52 1.314 . S
N53 C56 1.279 . S
C54 C52 1.353 . S
C54 C57 1.348 . S
C54 H86 0.929 . S
C55 C56 1.358 . S
C55 C57 1.356 . S
C55 H87 0.930 . S
C56 N53 1.279 . S
C56 C55 1.358 . S
C56 H59 0.930 . S
C57 C54 1.348 . S
C57 C55 1.356 . S
H58 C52 0.930 . S
H59 C56 0.930 . S
O60 Li0 1.956 . S
O60 Li1 1.970 . S
O60 Li2 1.961 . S
O60 C4 1.325 . S
O61 Li0 1.970 . S
O61 Li1 1.956 . S
O61 Li3 1.961 . S
O61 C10 1.325 . S
O62 Li0 1.961 . S
O62 Li2 1.956 . S
O62 Li3 1.970 . S
O62 C32 1.325 . S
O63 Li1 1.961 . S
O63 Li2 1.970 . S
O63 Li3 1.956 . S
O63 C38 1.325 . S
H64 C6 0.929 . S
H65 C7 0.930 . S
H66 C8 0.930 . S
H67 C9 0.930 . S
H68 C11 0.930 . S
H69 C13 0.929 . S
H70 C14 0.930 . S
H71 C15 0.930 . S
H72 C18 0.930 . S
H73 C21 0.929 . S
H74 C26 0.929 . S
H75 C27 0.930 . S
H76 C34 0.929 . S
H77 C35 0.930 . S
H78 C36 0.930 . S
H79 C37 0.930 . S
H80 C39 0.929 . S
H81 C40 0.930 . S
H82 C41 0.930 . S
H83 C42 0.930 . S
H84 C46 0.929 . S
H85 C48 0.930 . S
H86 C54 0.929 . S
H87 C55 0.930 . S
Li88 N105 1.990 . S
Li88 O148 1.956 . S
Li88 O149 1.970 . S
Li88 O150 1.961 . S
Li89 N113 1.990 . S
Li89 O148 1.970 . S
Li89 O149 1.956 . S
Li89 O151 1.961 . S
Li90 N135 1.990 . S
Li90 O148 1.961 . S
Li90 O150 1.956 . S
Li90 O151 1.970 . S
Li91 N141 1.990 . S
Li91 O149 1.961 . S
Li91 O150 1.970 . S
Li91 O151 1.956 . S
C92 C94 1.348 . S
C92 C95 1.356 . S
C92 O148 1.325 . S
N93 C96 1.314 . S
N93 C97 1.279 . S
C94 C92 1.348 . S
C94 C96 1.353 1_565 S
C94 H152 0.929 . S
C95 C92 1.356 . S
C95 C97 1.358 1_565 S
C95 H153 0.930 . S
C96 N93 1.314 . S
C96 C94 1.353 1_545 S
C96 H154 0.930 . S
C97 N93 1.279 . S
C97 C95 1.358 1_545 S
C97 H155 0.930 . S
C98 C101 1.348 . S
C98 C102 1.356 . S
C98 O149 1.325 . S
C99 N100 1.279 . S
C99 C102 1.358 . S
C99 H156 0.930 . S
N100 C99 1.279 . S
N100 C103 1.314 . S
C101 C98 1.348 . S
C101 C103 1.353 . S
C101 H157 0.929 . S
C102 C98 1.356 . S
C102 C99 1.358 . S
C102 H158 0.930 . S
C103 N100 1.314 . S
C103 C101 1.353 . S
C103 H159 0.930 . S
C104 N105 1.314 . S
C104 C109 1.353 . S
C104 H110 0.930 . S
N105 Li88 1.990 . S
N105 C104 1.314 . S
N105 C107 1.279 . S
C106 C107 1.358 . S
C106 C108 1.356 . S
C106 H160 0.930 . S
C107 N105 1.279 . S
C107 C106 1.358 . S
C107 H111 0.930 . S
C108 C106 1.356 . S
C108 C109 1.348 . S
C109 C104 1.353 . S
C109 C108 1.348 . S
C109 H161 0.929 . S
H110 C104 0.930 . S
H111 C107 0.930 . S
C112 N113 1.314 . S
C112 C114 1.353 . S
C112 H118 0.930 . S
N113 Li89 1.990 . S
N113 C112 1.314 . S
N113 C116 1.279 . S
C114 C112 1.353 . S
C114 C117 1.348 . S
C114 H162 0.929 . S
C115 C116 1.358 . S
C115 C117 1.356 . S
C115 H163 0.930 . S
C116 N113 1.279 . S
C116 C115 1.358 . S
C116 H119 0.930 . S
C117 C114 1.348 . S
C117 C115 1.356 . S
H118 C112 0.930 . S
H119 C116 0.930 . S
C120 C122 1.348 . S
C120 C123 1.356 . S
C120 O150 1.325 . S
N121 C124 1.314 . S
N121 C125 1.279 . S
C122 C120 1.348 . S
C122 C124 1.353 . S
C122 H164 0.929 . S
C123 C120 1.356 . S
C123 C125 1.358 . S
C123 H165 0.930 . S
C124 N121 1.314 . S
C124 C122 1.353 . S
C124 H166 0.930 . S
C125 N121 1.279 . S
C125 C123 1.358 . S
C125 H167 0.930 . S
C126 C127 1.348 . S
C126 C128 1.356 . S
C126 O151 1.325 . S
C127 C126 1.348 . S
C127 C129 1.353 . S
C127 H168 0.929 . S
C128 C126 1.356 . S
C128 C130 1.358 . S
C128 H169 0.930 . S
C129 C127 1.353 . S
C129 N131 1.314 . S
C129 H170 0.930 . S
C130 C128 1.358 . S
C130 N131 1.279 . S
C130 H171 0.930 . S
N131 C129 1.314 . S
N131 C130 1.279 . S
C132 C134 1.353 . S
C132 N135 1.314 . S
C132 H138 0.930 . S
C133 N135 1.279 . S
C133 C136 1.358 . S
C133 H139 0.930 . S
C134 C132 1.353 . S
C134 C137 1.348 . S
C134 H172 0.929 . S
N135 Li90 1.990 . S
N135 C132 1.314 . S
N135 C133 1.279 . S
C136 C133 1.358 . S
C136 C137 1.356 . S
C136 H173 0.930 . S
C137 C134 1.348 . S
C137 C136 1.356 . S
H138 C132 0.930 . S
H139 C133 0.930 . S
C140 N141 1.314 . S
C140 C142 1.353 . S
C140 H146 0.930 . S
N141 Li91 1.990 . S
N141 C140 1.314 . S
N141 C144 1.279 . S
C142 C140 1.353 . S
C142 C145 1.348 . S
C142 H174 0.929 . S
C143 C144 1.358 . S
C143 C145 1.356 . S
C143 H175 0.930 . S
C144 N141 1.279 . S
C144 C143 1.358 . S
C144 H147 0.930 . S
C145 C142 1.348 . S
C145 C143 1.356 . S
H146 C140 0.930 . S
H147 C144 0.930 . S
O148 Li88 1.956 . S
O148 Li89 1.970 . S
O148 Li90 1.961 . S
O148 C92 1.325 . S
O149 Li88 1.970 . S
O149 Li89 1.956 . S
O149 Li91 1.961 . S
O149 C98 1.325 . S
O150 Li88 1.961 . S
O150 Li90 1.956 . S
O150 Li91 1.970 . S
O150 C120 1.325 . S
O151 Li89 1.961 . S
O151 Li90 1.970 . S
O151 Li91 1.956 . S
O151 C126 1.325 . S
H152 C94 0.929 . S
H153 C95 0.930 . S
H154 C96 0.930 . S
H155 C97 0.930 . S
H156 C99 0.930 . S
H157 C101 0.929 . S
H158 C102 0.930 . S
H159 C103 0.930 . S
H160 C106 0.930 . S
H161 C109 0.929 . S
H162 C114 0.929 . S
H163 C115 0.930 . S
H164 C122 0.929 . S
H165 C123 0.930 . S
H166 C124 0.930 . S
H167 C125 0.930 . S
H168 C127 0.929 . S
H169 C128 0.930 . S
H170 C129 0.930 . S
H171 C130 0.930 . S
H172 C134 0.929 . S
H173 C136 0.930 . S
H174 C142 0.929 . S
H175 C143 0.930 . S
Li176 N193 1.990 . S
Li176 O236 1.956 . S
Li176 O237 1.970 . S
Li176 O238 1.961 . S
Li177 N201 1.990 . S
Li177 O236 1.970 . S
Li177 O237 1.956 . S
Li177 O239 1.961 . S
Li178 N223 1.990 . S
Li178 O236 1.961 . S
Li178 O238 1.956 . S
Li178 O239 1.970 . S
Li179 N229 1.990 . S
Li179 O237 1.961 . S
Li179 O238 1.970 . S
Li179 O239 1.956 . S
C180 C182 1.348 . S
C180 C183 1.356 . S
C180 O236 1.325 . S
N181 C184 1.314 . S
N181 C185 1.279 . S
C182 C180 1.348 . S
C182 C184 1.353 . S
C182 H240 0.929 . S
C183 C180 1.356 . S
C183 C185 1.358 . S
C183 H241 0.930 . S
C184 N181 1.314 . S
C184 C182 1.353 . S
C184 H242 0.930 . S
C185 N181 1.279 . S
C185 C183 1.358 . S
C185 H243 0.930 . S
C186 C189 1.348 . S
C186 C190 1.356 . S
C186 O237 1.325 . S
C187 N188 1.279 . S
C187 C190 1.358 . S
C187 H244 0.930 . S
N188 C187 1.279 . S
N188 C191 1.314 . S
C189 C186 1.348 . S
C189 C191 1.353 . S
C189 H245 0.929 . S
C190 C186 1.356 . S
C190 C187 1.358 . S
C190 H246 0.930 . S
C191 N188 1.314 . S
C191 C189 1.353 . S
C191 H247 0.930 . S
C192 N193 1.314 . S
C192 C197 1.353 . S
C192 H198 0.930 . S
N193 Li176 1.990 . S
N193 C192 1.314 . S
N193 C195 1.279 . S
C194 C195 1.358 . S
C194 C196 1.356 . S
C194 H248 0.930 . S
C195 N193 1.279 . S
C195 C194 1.358 . S
C195 H199 0.930 . S
C196 C194 1.356 . S
C196 C197 1.348 . S
C197 C192 1.353 . S
C197 C196 1.348 . S
C197 H249 0.929 . S
H198 C192 0.930 . S
H199 C195 0.930 . S
C200 N201 1.314 . S
C200 C202 1.353 . S
C200 H206 0.930 . S
N201 Li177 1.990 . S
N201 C200 1.314 . S
N201 C204 1.279 . S
C202 C200 1.353 . S
C202 C205 1.348 . S
C202 H250 0.929 . S
C203 C204 1.358 . S
C203 C205 1.356 . S
C203 H251 0.930 . S
C204 N201 1.279 . S
C204 C203 1.358 . S
C204 H207 0.930 . S
C205 C202 1.348 . S
C205 C203 1.356 . S
H206 C200 0.930 . S
H207 C204 0.930 . S
C208 C210 1.348 . S
C208 C211 1.356 . S
C208 O238 1.325 . S
N209 C212 1.314 . S
N209 C213 1.279 . S
C210 C208 1.348 . S
C210 C212 1.353 . S
C210 H252 0.929 . S
C211 C208 1.356 . S
C211 C213 1.358 . S
C211 H253 0.930 . S
C212 N209 1.314 . S
C212 C210 1.353 . S
C212 H254 0.930 . S
C213 N209 1.279 . S
C213 C211 1.358 . S
C213 H255 0.930 . S
C214 C215 1.348 . S
C214 C216 1.356 . S
C214 O239 1.325 . S
C215 C214 1.348 . S
C215 C217 1.353 . S
C215 H256 0.929 . S
C216 C214 1.356 . S
C216 C218 1.358 . S
C216 H257 0.930 . S
C217 C215 1.353 . S
C217 N219 1.314 . S
C217 H258 0.930 . S
C218 C216 1.358 . S
C218 N219 1.279 . S
C218 H259 0.930 . S
N219 C217 1.314 . S
N219 C218 1.279 . S
C220 C222 1.353 . S
C220 N223 1.314 . S
C220 H226 0.930 . S
C221 N223 1.279 . S
C221 C224 1.358 . S
C221 H227 0.930 . S
C222 C220 1.353 . S
C222 C225 1.348 . S
C222 H260 0.929 . S
N223 Li178 1.990 . S
N223 C220 1.314 . S
N223 C221 1.279 . S
C224 C221 1.358 . S
C224 C225 1.356 . S
C224 H261 0.930 . S
C225 C222 1.348 . S
C225 C224 1.356 . S
H226 C220 0.930 . S
H227 C221 0.930 . S
C228 N229 1.314 . S
C228 C230 1.353 . S
C228 H234 0.930 . S
N229 Li179 1.990 . S
N229 C228 1.314 . S
N229 C232 1.279 . S
C230 C228 1.353 . S
C230 C233 1.348 . S
C230 H262 0.929 . S
C231 C232 1.358 . S
C231 C233 1.356 . S
C231 H263 0.930 . S
C232 N229 1.279 . S
C232 C231 1.358 . S
C232 H235 0.930 . S
C233 C230 1.348 . S
C233 C231 1.356 . S
H234 C228 0.930 . S
H235 C232 0.930 . S
O236 Li176 1.956 . S
O236 Li177 1.970 . S
O236 Li178 1.961 . S
O236 C180 1.325 . S
O237 Li176 1.970 . S
O237 Li177 1.956 . S
O237 Li179 1.961 . S
O237 C186 1.325 . S
O238 Li176 1.961 . S
O238 Li178 1.956 . S
O238 Li179 1.970 . S
O238 C208 1.325 . S
O239 Li177 1.961 . S
O239 Li178 1.970 . S
O239 Li179 1.956 . S
O239 C214 1.325 . S
H240 C182 0.929 . S
H241 C183 0.930 . S
H242 C184 0.930 . S
H243 C185 0.930 . S
H244 C187 0.930 . S
H245 C189 0.929 . S
H246 C190 0.930 . S
H247 C191 0.930 . S
H248 C194 0.930 . S
H249 C197 0.929 . S
H250 C202 0.929 . S
H251 C203 0.930 . S
H252 C210 0.929 . S
H253 C211 0.930 . S
H254 C212 0.930 . S
H255 C213 0.930 . S
H256 C215 0.929 . S
H257 C216 0.930 . S
H258 C217 0.930 . S
H259 C218 0.930 . S
H260 C222 0.929 . S
H261 C224 0.930 . S
H262 C230 0.929 . S
H263 C231 0.930 . S
Li264 N281 1.990 . S
Li264 O324 1.956 . S
Li264 O325 1.970 . S
Li264 O326 1.961 . S
Li265 N289 1.990 . S
Li265 O324 1.970 . S
Li265 O325 1.956 . S
Li265 O327 1.961 . S
Li266 N311 1.990 . S
Li266 O324 1.961 . S
Li266 O326 1.956 . S
Li266 O327 1.970 . S
Li267 N317 1.990 . S
Li267 O325 1.961 . S
Li267 O326 1.970 . S
Li267 O327 1.956 . S
C268 C270 1.348 . S
C268 C271 1.356 . S
C268 O324 1.325 . S
N269 C272 1.314 . S
N269 C273 1.279 . S
C270 C268 1.348 . S
C270 C272 1.353 . S
C270 H328 0.929 . S
C271 C268 1.356 . S
C271 C273 1.358 . S
C271 H329 0.930 . S
C272 N269 1.314 . S
C272 C270 1.353 . S
C272 H330 0.930 . S
C273 N269 1.279 . S
C273 C271 1.358 . S
C273 H331 0.930 . S
C274 C277 1.348 . S
C274 C278 1.356 . S
C274 O325 1.325 . S
C275 N276 1.279 . S
C275 C278 1.358 . S
C275 H332 0.930 . S
N276 C275 1.279 . S
N276 C279 1.314 . S
C277 C274 1.348 . S
C277 C279 1.353 . S
C277 H333 0.929 . S
C278 C274 1.356 . S
C278 C275 1.358 . S
C278 H334 0.930 . S
C279 N276 1.314 . S
C279 C277 1.353 . S
C279 H335 0.930 . S
C280 N281 1.314 . S
C280 C285 1.353 . S
C280 H286 0.930 . S
N281 Li264 1.990 . S
N281 C280 1.314 . S
N281 C283 1.279 . S
C282 C283 1.358 . S
C282 C284 1.356 . S
C282 H336 0.930 . S
C283 N281 1.279 . S
C283 C282 1.358 . S
C283 H287 0.930 . S
C284 C282 1.356 . S
C284 C285 1.348 . S
C285 C280 1.353 . S
C285 C284 1.348 . S
C285 H337 0.929 . S
H286 C280 0.930 . S
H287 C283 0.930 . S
C288 N289 1.314 . S
C288 C290 1.353 . S
C288 H294 0.930 . S
N289 Li265 1.990 . S
N289 C288 1.314 . S
N289 C292 1.279 . S
C290 C288 1.353 . S
C290 C293 1.348 . S
C290 H338 0.929 . S
C291 C292 1.358 . S
C291 C293 1.356 . S
C291 H339 0.930 . S
C292 N289 1.279 . S
C292 C291 1.358 . S
C292 H295 0.930 . S
C293 C290 1.348 . S
C293 C291 1.356 . S
H294 C288 0.930 . S
H295 C292 0.930 . S
C296 C298 1.348 . S
C296 C299 1.356 . S
C296 O326 1.325 . S
N297 C300 1.314 . S
N297 C301 1.279 . S
C298 C296 1.348 . S
C298 C300 1.353 . S
C298 H340 0.929 . S
C299 C296 1.356 . S
C299 C301 1.358 . S
C299 H341 0.930 . S
C300 N297 1.314 . S
C300 C298 1.353 . S
C300 H342 0.930 . S
C301 N297 1.279 . S
C301 C299 1.358 . S
C301 H343 0.930 . S
C302 C303 1.348 . S
C302 C304 1.356 . S
C302 O327 1.325 . S
C303 C302 1.348 . S
C303 C305 1.353 1_545 S
C303 H344 0.929 . S
C304 C302 1.356 . S
C304 C306 1.358 1_545 S
C304 H345 0.930 . S
C305 C303 1.353 1_565 S
C305 N307 1.314 . S
C305 H346 0.930 . S
C306 C304 1.358 1_565 S
C306 N307 1.279 . S
C306 H347 0.930 . S
N307 C305 1.314 . S
N307 C306 1.279 . S
C308 C310 1.353 . S
C308 N311 1.314 . S
C308 H314 0.930 . S
C309 N311 1.279 . S
C309 C312 1.358 . S
C309 H315 0.930 . S
C310 C308 1.353 . S
C310 C313 1.348 . S
C310 H348 0.929 . S
N311 Li266 1.990 . S
N311 C308 1.314 . S
N311 C309 1.279 . S
C312 C309 1.358 . S
C312 C313 1.356 . S
C312 H349 0.930 . S
C313 C310 1.348 . S
C313 C312 1.356 . S
H314 C308 0.930 . S
H315 C309 0.930 . S
C316 N317 1.314 . S
C316 C318 1.353 . S
C316 H322 0.930 . S
N317 Li267 1.990 . S
N317 C316 1.314 . S
N317 C320 1.279 . S
C318 C316 1.353 . S
C318 C321 1.348 . S
C318 H350 0.929 . S
C319 C320 1.358 . S
C319 C321 1.356 . S
C319 H351 0.930 . S
C320 N317 1.279 . S
C320 C319 1.358 . S
C320 H323 0.930 . S
C321 C318 1.348 . S
C321 C319 1.356 . S
H322 C316 0.930 . S
H323 C320 0.930 . S
O324 Li264 1.956 . S
O324 Li265 1.970 . S
O324 Li266 1.961 . S
O324 C268 1.325 . S
O325 Li264 1.970 . S
O325 Li265 1.956 . S
O325 Li267 1.961 . S
O325 C274 1.325 . S
O326 Li264 1.961 . S
O326 Li266 1.956 . S
O326 Li267 1.970 . S
O326 C296 1.325 . S
O327 Li265 1.961 . S
O327 Li266 1.970 . S
O327 Li267 1.956 . S
O327 C302 1.325 . S
H328 C270 0.929 . S
H329 C271 0.930 . S
H330 C272 0.930 . S
H331 C273 0.930 . S
H332 C275 0.930 . S
H333 C277 0.929 . S
H334 C278 0.930 . S
H335 C279 0.930 . S
H336 C282 0.930 . S
H337 C285 0.929 . S
H338 C290 0.929 . S
H339 C291 0.930 . S
H340 C298 0.929 . S
H341 C299 0.930 . S
H342 C300 0.930 . S
H343 C301 0.930 . S
H344 C303 0.929 . S
H345 C304 0.930 . S
H346 C305 0.930 . S
H347 C306 0.930 . S
H348 C310 0.929 . S
H349 C312 0.930 . S
H350 C318 0.929 . S
H351 C319 0.930 . S
Li352 N369 1.990 . S
Li352 O412 1.956 . S
Li352 O413 1.970 . S
Li352 O414 1.961 . S
Li353 N377 1.990 . S
Li353 O412 1.970 . S
Li353 O413 1.956 . S
Li353 O415 1.961 . S
Li354 N399 1.990 . S
Li354 O412 1.961 . S
Li354 O414 1.956 . S
Li354 O415 1.970 . S
Li355 N405 1.990 . S
Li355 O413 1.961 . S
Li355 O414 1.970 . S
Li355 O415 1.956 . S
C356 C358 1.348 . S
C356 C359 1.356 . S
C356 O412 1.325 . S
N357 C360 1.314 . S
N357 C361 1.279 . S
C358 C356 1.348 . S
C358 C360 1.353 . S
C358 H416 0.929 . S
C359 C356 1.356 . S
C359 C361 1.358 . S
C359 H417 0.930 . S
C360 N357 1.314 . S
C360 C358 1.353 . S
C360 H418 0.930 . S
C361 N357 1.279 . S
C361 C359 1.358 . S
C361 H419 0.930 . S
C362 C365 1.348 . S
C362 C366 1.356 . S
C362 O413 1.325 . S
C363 N364 1.279 . S
C363 C366 1.358 . S
C363 H420 0.930 . S
N364 C363 1.279 . S
N364 C367 1.314 . S
C365 C362 1.348 . S
C365 C367 1.353 . S
C365 H421 0.929 . S
C366 C362 1.356 . S
C366 C363 1.358 . S
C366 H422 0.930 . S
C367 N364 1.314 . S
C367 C365 1.353 . S
C367 H423 0.930 . S
C368 N369 1.314 . S
C368 C373 1.353 . S
C368 H374 0.930 . S
N369 Li352 1.990 . S
N369 C368 1.314 . S
N369 C371 1.279 . S
C370 C371 1.358 . S
C370 C372 1.356 . S
C370 H424 0.930 . S
C371 N369 1.279 . S
C371 C370 1.358 . S
C371 H375 0.930 . S
C372 C370 1.356 . S
C372 C373 1.348 . S
C373 C368 1.353 . S
C373 C372 1.348 . S
C373 H425 0.929 . S
H374 C368 0.930 . S
H375 C371 0.930 . S
C376 N377 1.314 . S
C376 C378 1.353 . S
C376 H382 0.930 . S
N377 Li353 1.990 . S
N377 C376 1.314 . S
N377 C380 1.279 . S
C378 C376 1.353 . S
C378 C381 1.348 . S
C378 H426 0.929 . S
C379 C380 1.358 . S
C379 C381 1.356 . S
C379 H427 0.930 . S
C380 N377 1.279 . S
C380 C379 1.358 . S
C380 H383 0.930 . S
C381 C378 1.348 . S
C381 C379 1.356 . S
H382 C376 0.930 . S
H383 C380 0.930 . S
C384 C386 1.348 . S
C384 C387 1.356 . S
C384 O414 1.325 . S
N385 C388 1.314 . S
N385 C389 1.279 . S
C386 C384 1.348 . S
C386 C388 1.353 . S
C386 H428 0.929 . S
C387 C384 1.356 . S
C387 C389 1.358 . S
C387 H429 0.930 . S
C388 N385 1.314 . S
C388 C386 1.353 . S
C388 H430 0.930 . S
C389 N385 1.279 . S
C389 C387 1.358 . S
C389 H431 0.930 . S
C390 C391 1.348 . S
C390 C392 1.356 . S
C390 O415 1.325 . S
C391 C390 1.348 . S
C391 C393 1.353 . S
C391 H432 0.929 . S
C392 C390 1.356 . S
C392 C394 1.358 . S
C392 H433 0.930 . S
C393 C391 1.353 . S
C393 N395 1.314 . S
C393 H434 0.930 . S
C394 C392 1.358 . S
C394 N395 1.279 . S
C394 H435 0.930 . S
N395 C393 1.314 . S
N395 C394 1.279 . S
C396 C398 1.353 . S
C396 N399 1.314 . S
C396 H402 0.930 . S
C397 N399 1.279 . S
C397 C400 1.358 . S
C397 H403 0.930 . S
C398 C396 1.353 . S
C398 C401 1.348 . S
C398 H436 0.929 . S
N399 Li354 1.990 . S
N399 C396 1.314 . S
N399 C397 1.279 . S
C400 C397 1.358 . S
C400 C401 1.356 . S
C400 H437 0.930 . S
C401 C398 1.348 . S
C401 C400 1.356 . S
H402 C396 0.930 . S
H403 C397 0.930 . S
C404 N405 1.314 . S
C404 C406 1.353 . S
C404 H410 0.930 . S
N405 Li355 1.990 . S
N405 C404 1.314 . S
N405 C408 1.279 . S
C406 C404 1.353 . S
C406 C409 1.348 . S
C406 H438 0.929 . S
C407 C408 1.358 . S
C407 C409 1.356 . S
C407 H439 0.930 . S
C408 N405 1.279 . S
C408 C407 1.358 . S
C408 H411 0.930 . S
C409 C406 1.348 . S
C409 C407 1.356 . S
H410 C404 0.930 . S
H411 C408 0.930 . S
O412 Li352 1.956 . S
O412 Li353 1.970 . S
O412 Li354 1.961 . S
O412 C356 1.325 . S
O413 Li352 1.970 . S
O413 Li353 1.956 . S
O413 Li355 1.961 . S
O413 C362 1.325 . S
O414 Li352 1.961 . S
O414 Li354 1.956 . S
O414 Li355 1.970 . S
O414 C384 1.325 . S
O415 Li353 1.961 . S
O415 Li354 1.970 . S
O415 Li355 1.956 . S
O415 C390 1.325 . S
H416 C358 0.929 . S
H417 C359 0.930 . S
H418 C360 0.930 . S
H419 C361 0.930 . S
H420 C363 0.930 . S
H421 C365 0.929 . S
H422 C366 0.930 . S
H423 C367 0.930 . S
H424 C370 0.930 . S
H425 C373 0.929 . S
H426 C378 0.929 . S
H427 C379 0.930 . S
H428 C386 0.929 . S
H429 C387 0.930 . S
H430 C388 0.930 . S
H431 C389 0.930 . S
H432 C391 0.929 . S
H433 C392 0.930 . S
H434 C393 0.930 . S
H435 C394 0.930 . S
H436 C398 0.929 . S
H437 C400 0.930 . S
H438 C406 0.929 . S
H439 C407 0.930 . S
Li440 N457 1.990 . S
Li440 O500 1.956 . S
Li440 O501 1.970 . S
Li440 O502 1.961 . S
Li441 N465 1.990 . S
Li441 O500 1.970 . S
Li441 O501 1.956 . S
Li441 O503 1.961 . S
Li442 N487 1.990 . S
Li442 O500 1.961 . S
Li442 O502 1.956 . S
Li442 O503 1.970 . S
Li443 N493 1.990 . S
Li443 O501 1.961 . S
Li443 O502 1.970 . S
Li443 O503 1.956 . S
C444 C446 1.348 . S
C444 C447 1.356 . S
C444 O500 1.325 . S
N445 C448 1.314 . S
N445 C449 1.279 . S
C446 C444 1.348 . S
C446 C448 1.353 . S
C446 H504 0.929 . S
C447 C444 1.356 . S
C447 C449 1.358 . S
C447 H505 0.930 . S
C448 N445 1.314 . S
C448 C446 1.353 . S
C448 H506 0.930 . S
C449 N445 1.279 . S
C449 C447 1.358 . S
C449 H507 0.930 . S
C450 C453 1.348 . S
C450 C454 1.356 . S
C450 O501 1.325 . S
C451 N452 1.279 . S
C451 C454 1.358 1_545 S
C451 H508 0.930 . S
N452 C451 1.279 . S
N452 C455 1.314 . S
C453 C450 1.348 . S
C453 C455 1.353 1_565 S
C453 H509 0.929 . S
C454 C450 1.356 . S
C454 C451 1.358 1_565 S
C454 H510 0.930 . S
C455 N452 1.314 . S
C455 C453 1.353 1_545 S
C455 H511 0.930 . S
C456 N457 1.314 . S
C456 C461 1.353 . S
C456 H462 0.930 . S
N457 Li440 1.990 . S
N457 C456 1.314 . S
N457 C459 1.279 . S
C458 C459 1.358 . S
C458 C460 1.356 . S
C458 H512 0.930 . S
C459 N457 1.279 . S
C459 C458 1.358 . S
C459 H463 0.930 . S
C460 C458 1.356 . S
C460 C461 1.348 . S
C461 C456 1.353 . S
C461 C460 1.348 . S
C461 H513 0.929 . S
H462 C456 0.930 . S
H463 C459 0.930 . S
C464 N465 1.314 . S
C464 C466 1.353 . S
C464 H470 0.930 . S
N465 Li441 1.990 . S
N465 C464 1.314 . S
N465 C468 1.279 . S
C466 C464 1.353 . S
C466 C469 1.348 . S
C466 H514 0.929 . S
C467 C468 1.358 . S
C467 C469 1.356 . S
C467 H515 0.930 . S
C468 N465 1.279 . S
C468 C467 1.358 . S
C468 H471 0.930 . S
C469 C466 1.348 . S
C469 C467 1.356 . S
H470 C464 0.930 . S
H471 C468 0.930 . S
C472 C474 1.348 . S
C472 C475 1.356 . S
C472 O502 1.325 . S
N473 C476 1.314 . S
N473 C477 1.279 . S
C474 C472 1.348 . S
C474 C476 1.353 . S
C474 H516 0.929 . S
C475 C472 1.356 . S
C475 C477 1.358 . S
C475 H517 0.930 . S
C476 N473 1.314 . S
C476 C474 1.353 . S
C476 H518 0.930 . S
C477 N473 1.279 . S
C477 C475 1.358 . S
C477 H519 0.930 . S
C478 C479 1.348 . S
C478 C480 1.356 . S
C478 O503 1.325 . S
C479 C478 1.348 . S
C479 C481 1.353 . S
C479 H520 0.929 . S
C480 C478 1.356 . S
C480 C482 1.358 . S
C480 H521 0.930 . S
C481 C479 1.353 . S
C481 N483 1.314 . S
C481 H522 0.930 . S
C482 C480 1.358 . S
C482 N483 1.279 . S
C482 H523 0.930 . S
N483 C481 1.314 . S
N483 C482 1.279 . S
C484 C486 1.353 . S
C484 N487 1.314 . S
C484 H490 0.930 . S
C485 N487 1.279 . S
C485 C488 1.358 . S
C485 H491 0.930 . S
C486 C484 1.353 . S
C486 C489 1.348 . S
C486 H524 0.929 . S
N487 Li442 1.990 . S
N487 C484 1.314 . S
N487 C485 1.279 . S
C488 C485 1.358 . S
C488 C489 1.356 . S
C488 H525 0.930 . S
C489 C486 1.348 . S
C489 C488 1.356 . S
H490 C484 0.930 . S
H491 C485 0.930 . S
C492 N493 1.314 . S
C492 C494 1.353 . S
C492 H498 0.930 . S
N493 Li443 1.990 . S
N493 C492 1.314 . S
N493 C496 1.279 . S
C494 C492 1.353 . S
C494 C497 1.348 . S
C494 H526 0.929 . S
C495 C496 1.358 . S
C495 C497 1.356 . S
C495 H527 0.930 . S
C496 N493 1.279 . S
C496 C495 1.358 . S
C496 H499 0.930 . S
C497 C494 1.348 . S
C497 C495 1.356 . S
H498 C492 0.930 . S
H499 C496 0.930 . S
O500 Li440 1.956 . S
O500 Li441 1.970 . S
O500 Li442 1.961 . S
O500 C444 1.325 . S
O501 Li440 1.970 . S
O501 Li441 1.956 . S
O501 Li443 1.961 . S
O501 C450 1.325 . S
O502 Li440 1.961 . S
O502 Li442 1.956 . S
O502 Li443 1.970 . S
O502 C472 1.325 . S
O503 Li441 1.961 . S
O503 Li442 1.970 . S
O503 Li443 1.956 . S
O503 C478 1.325 . S
H504 C446 0.929 . S
H505 C447 0.930 . S
H506 C448 0.930 . S
H507 C449 0.930 . S
H508 C451 0.930 . S
H509 C453 0.929 . S
H510 C454 0.930 . S
H511 C455 0.930 . S
H512 C458 0.930 . S
H513 C461 0.929 . S
H514 C466 0.929 . S
H515 C467 0.930 . S
H516 C474 0.929 . S
H517 C475 0.930 . S
H518 C476 0.930 . S
H519 C477 0.930 . S
H520 C479 0.929 . S
H521 C480 0.930 . S
H522 C481 0.930 . S
H523 C482 0.930 . S
H524 C486 0.929 . S
H525 C488 0.930 . S
H526 C494 0.929 . S
H527 C495 0.930 . S
Li528 N545 1.990 . S
Li528 O588 1.956 . S
Li528 O589 1.970 . S
Li528 O590 1.961 . S
Li529 N553 1.990 . S
Li529 O588 1.970 . S
Li529 O589 1.956 . S
Li529 O591 1.961 . S
Li530 N575 1.990 . S
Li530 O588 1.961 . S
Li530 O590 1.956 . S
Li530 O591 1.970 . S
Li531 N581 1.990 . S
Li531 O589 1.961 . S
Li531 O590 1.970 . S
Li531 O591 1.956 . S
C532 C534 1.348 . S
C532 C535 1.356 . S
C532 O588 1.325 . S
N533 C536 1.314 . S
N533 C537 1.279 . S
C534 C532 1.348 . S
C534 C536 1.353 . S
C534 H592 0.929 . S
C535 C532 1.356 . S
C535 C537 1.358 . S
C535 H593 0.930 . S
C536 N533 1.314 . S
C536 C534 1.353 . S
C536 H594 0.930 . S
C537 N533 1.279 . S
C537 C535 1.358 . S
C537 H595 0.930 . S
C538 C541 1.348 . S
C538 C542 1.356 . S
C538 O589 1.325 . S
C539 N540 1.279 . S
C539 C542 1.358 . S
C539 H596 0.930 . S
N540 C539 1.279 . S
N540 C543 1.314 . S
C541 C538 1.348 . S
C541 C543 1.353 . S
C541 H597 0.929 . S
C542 C538 1.356 . S
C542 C539 1.358 . S
C542 H598 0.930 . S
C543 N540 1.314 . S
C543 C541 1.353 . S
C543 H599 0.930 . S
C544 N545 1.314 . S
C544 C549 1.353 . S
C544 H550 0.930 . S
N545 Li528 1.990 . S
N545 C544 1.314 . S
N545 C547 1.279 . S
C546 C547 1.358 . S
C546 C548 1.356 . S
C546 H600 0.930 . S
C547 N545 1.279 . S
C547 C546 1.358 . S
C547 H551 0.930 . S
C548 C546 1.356 . S
C548 C549 1.348 . S
C549 C544 1.353 . S
C549 C548 1.348 . S
C549 H601 0.929 . S
H550 C544 0.930 . S
H551 C547 0.930 . S
C552 N553 1.314 . S
C552 C554 1.353 . S
C552 H558 0.930 . S
N553 Li529 1.990 . S
N553 C552 1.314 . S
N553 C556 1.279 . S
C554 C552 1.353 . S
C554 C557 1.348 . S
C554 H602 0.929 . S
C555 C556 1.358 . S
C555 C557 1.356 . S
C555 H603 0.930 . S
C556 N553 1.279 . S
C556 C555 1.358 . S
C556 H559 0.930 . S
C557 C554 1.348 . S
C557 C555 1.356 . S
H558 C552 0.930 . S
H559 C556 0.930 . S
C560 C562 1.348 . S
C560 C563 1.356 . S
C560 O590 1.325 . S
N561 C564 1.314 . S
N561 C565 1.279 . S
C562 C560 1.348 . S
C562 C564 1.353 . S
C562 H604 0.929 . S
C563 C560 1.356 . S
C563 C565 1.358 . S
C563 H605 0.930 . S
C564 N561 1.314 . S
C564 C562 1.353 . S
C564 H606 0.930 . S
C565 N561 1.279 . S
C565 C563 1.358 . S
C565 H607 0.930 . S
C566 C567 1.348 . S
C566 C568 1.356 . S
C566 O591 1.325 . S
C567 C566 1.348 . S
C567 C569 1.353 . S
C567 H608 0.929 . S
C568 C566 1.356 . S
C568 C570 1.358 . S
C568 H609 0.930 . S
C569 C567 1.353 . S
C569 N571 1.314 . S
C569 H610 0.930 . S
C570 C568 1.358 . S
C570 N571 1.279 . S
C570 H611 0.930 . S
N571 C569 1.314 . S
N571 C570 1.279 . S
C572 C574 1.353 . S
C572 N575 1.314 . S
C572 H578 0.930 . S
C573 N575 1.279 . S
C573 C576 1.358 . S
C573 H579 0.930 . S
C574 C572 1.353 . S
C574 C577 1.348 . S
C574 H612 0.929 . S
N575 Li530 1.990 . S
N575 C572 1.314 . S
N575 C573 1.279 . S
C576 C573 1.358 . S
C576 C577 1.356 . S
C576 H613 0.930 . S
C577 C574 1.348 . S
C577 C576 1.356 . S
H578 C572 0.930 . S
H579 C573 0.930 . S
C580 N581 1.314 . S
C580 C582 1.353 . S
C580 H586 0.930 . S
N581 Li531 1.990 . S
N581 C580 1.314 . S
N581 C584 1.279 . S
C582 C580 1.353 . S
C582 C585 1.348 . S
C582 H614 0.929 . S
C583 C584 1.358 . S
C583 C585 1.356 . S
C583 H615 0.930 . S
C584 N581 1.279 . S
C584 C583 1.358 . S
C584 H587 0.930 . S
C585 C582 1.348 . S
C585 C583 1.356 . S
H586 C580 0.930 . S
H587 C584 0.930 . S
O588 Li528 1.956 . S
O588 Li529 1.970 . S
O588 Li530 1.961 . S
O588 C532 1.325 . S
O589 Li528 1.970 . S
O589 Li529 1.956 . S
O589 Li531 1.961 . S
O589 C538 1.325 . S
O590 Li528 1.961 . S
O590 Li530 1.956 . S
O590 Li531 1.970 . S
O590 C560 1.325 . S
O591 Li529 1.961 . S
O591 Li530 1.970 . S
O591 Li531 1.956 . S
O591 C566 1.325 . S
H592 C534 0.929 . S
H593 C535 0.930 . S
H594 C536 0.930 . S
H595 C537 0.930 . S
H596 C539 0.930 . S
H597 C541 0.929 . S
H598 C542 0.930 . S
H599 C543 0.930 . S
H600 C546 0.930 . S
H601 C549 0.929 . S
H602 C554 0.929 . S
H603 C555 0.930 . S
H604 C562 0.929 . S
H605 C563 0.930 . S
H606 C564 0.930 . S
H607 C565 0.930 . S
H608 C567 0.929 . S
H609 C568 0.930 . S
H610 C569 0.930 . S
H611 C570 0.930 . S
H612 C574 0.929 . S
H613 C576 0.930 . S
H614 C582 0.929 . S
H615 C583 0.930 . S
Li616 N633 1.990 . S
Li616 O676 1.956 . S
Li616 O677 1.970 . S
Li616 O678 1.961 . S
Li617 N641 1.990 . S
Li617 O676 1.970 . S
Li617 O677 1.956 . S
Li617 O679 1.961 . S
Li618 N663 1.990 . S
Li618 O676 1.961 . S
Li618 O678 1.956 . S
Li618 O679 1.970 . S
Li619 N669 1.990 . S
Li619 O677 1.961 . S
Li619 O678 1.970 . S
Li619 O679 1.956 . S
C620 C622 1.348 . S
C620 C623 1.356 . S
C620 O676 1.325 . S
N621 C624 1.314 . S
N621 C625 1.279 . S
C622 C620 1.348 . S
C622 C624 1.353 . S
C622 H680 0.929 . S
C623 C620 1.356 . S
C623 C625 1.358 . S
C623 H681 0.930 . S
C624 N621 1.314 . S
C624 C622 1.353 . S
C624 H682 0.930 . S
C625 N621 1.279 . S
C625 C623 1.358 . S
C625 H683 0.930 . S
C626 C629 1.348 . S
C626 C630 1.356 . S
C626 O677 1.325 . S
C627 N628 1.279 . S
C627 C630 1.358 . S
C627 H684 0.930 . S
N628 C627 1.279 . S
N628 C631 1.314 . S
C629 C626 1.348 . S
C629 C631 1.353 . S
C629 H685 0.929 . S
C630 C626 1.356 . S
C630 C627 1.358 . S
C630 H686 0.930 . S
C631 N628 1.314 . S
C631 C629 1.353 . S
C631 H687 0.930 . S
C632 N633 1.314 . S
C632 C637 1.353 . S
C632 H638 0.930 . S
N633 Li616 1.990 . S
N633 C632 1.314 . S
N633 C635 1.279 . S
C634 C635 1.358 . S
C634 C636 1.356 . S
C634 H688 0.930 . S
C635 N633 1.279 . S
C635 C634 1.358 . S
C635 H639 0.930 . S
C636 C634 1.356 . S
C636 C637 1.348 . S
C637 C632 1.353 . S
C637 C636 1.348 . S
C637 H689 0.929 . S
H638 C632 0.930 . S
H639 C635 0.930 . S
C640 N641 1.314 . S
C640 C642 1.353 . S
C640 H646 0.930 . S
N641 Li617 1.990 . S
N641 C640 1.314 . S
N641 C644 1.279 . S
C642 C640 1.353 . S
C642 C645 1.348 . S
C642 H690 0.929 . S
C643 C644 1.358 . S
C643 C645 1.356 . S
C643 H691 0.930 . S
C644 N641 1.279 . S
C644 C643 1.358 . S
C644 H647 0.930 . S
C645 C642 1.348 . S
C645 C643 1.356 . S
H646 C640 0.930 . S
H647 C644 0.930 . S
C648 C650 1.348 . S
C648 C651 1.356 . S
C648 O678 1.325 . S
N649 C652 1.314 . S
N649 C653 1.279 . S
C650 C648 1.348 . S
C650 C652 1.353 . S
C650 H692 0.929 . S
C651 C648 1.356 . S
C651 C653 1.358 . S
C651 H693 0.930 . S
C652 N649 1.314 . S
C652 C650 1.353 . S
C652 H694 0.930 . S
C653 N649 1.279 . S
C653 C651 1.358 . S
C653 H695 0.930 . S
C654 C655 1.348 . S
C654 C656 1.356 . S
C654 O679 1.325 . S
C655 C654 1.348 . S
C655 C657 1.353 1_545 S
C655 H696 0.929 . S
C656 C654 1.356 . S
C656 C658 1.358 1_545 S
C656 H697 0.930 . S
C657 C655 1.353 1_565 S
C657 N659 1.314 . S
C657 H698 0.930 . S
C658 C656 1.358 1_565 S
C658 N659 1.279 . S
C658 H699 0.930 . S
N659 C657 1.314 . S
N659 C658 1.279 . S
C660 C662 1.353 . S
C660 N663 1.314 . S
C660 H666 0.930 . S
C661 N663 1.279 . S
C661 C664 1.358 . S
C661 H667 0.930 . S
C662 C660 1.353 . S
C662 C665 1.348 . S
C662 H700 0.929 . S
N663 Li618 1.990 . S
N663 C660 1.314 . S
N663 C661 1.279 . S
C664 C661 1.358 . S
C664 C665 1.356 . S
C664 H701 0.930 . S
C665 C662 1.348 . S
C665 C664 1.356 . S
H666 C660 0.930 . S
H667 C661 0.930 . S
C668 N669 1.314 . S
C668 C670 1.353 . S
C668 H674 0.930 . S
N669 Li619 1.990 . S
N669 C668 1.314 . S
N669 C672 1.279 . S
C670 C668 1.353 . S
C670 C673 1.348 . S
C670 H702 0.929 . S
C671 C672 1.358 . S
C671 C673 1.356 . S
C671 H703 0.930 . S
C672 N669 1.279 . S
C672 C671 1.358 . S
C672 H675 0.930 . S
C673 C670 1.348 . S
C673 C671 1.356 . S
H674 C668 0.930 . S
H675 C672 0.930 . S
O676 Li616 1.956 . S
O676 Li617 1.970 . S
O676 Li618 1.961 . S
O676 C620 1.325 . S
O677 Li616 1.970 . S
O677 Li617 1.956 . S
O677 Li619 1.961 . S
O677 C626 1.325 . S
O678 Li616 1.961 . S
O678 Li618 1.956 . S
O678 Li619 1.970 . S
O678 C648 1.325 . S
O679 Li617 1.961 . S
O679 Li618 1.970 . S
O679 Li619 1.956 . S
O679 C654 1.325 . S
H680 C622 0.929 . S
H681 C623 0.930 . S
H682 C624 0.930 . S
H683 C625 0.930 . S
H684 C627 0.930 . S
H685 C629 0.929 . S
H686 C630 0.930 . S
H687 C631 0.930 . S
H688 C634 0.930 . S
H689 C637 0.929 . S
H690 C642 0.929 . S
H691 C643 0.930 . S
H692 C650 0.929 . S
H693 C651 0.930 . S
H694 C652 0.930 . S
H695 C653 0.930 . S
H696 C655 0.929 . S
H697 C656 0.930 . S
H698 C657 0.930 . S
H699 C658 0.930 . S
H700 C662 0.929 . S
H701 C664 0.930 . S
H702 C670 0.929 . S
H703 C671 0.930 . S
Li704 N721 1.990 . S
Li704 O764 1.956 . S
Li704 O765 1.970 . S
Li704 O766 1.961 . S
Li705 N729 1.990 . S
Li705 O764 1.970 . S
Li705 O765 1.956 . S
Li705 O767 1.961 . S
Li706 N751 1.990 . S
Li706 O764 1.961 . S
Li706 O766 1.956 . S
Li706 O767 1.970 . S
Li707 N757 1.990 . S
Li707 O765 1.961 . S
Li707 O766 1.970 . S
Li707 O767 1.956 . S
C708 C710 1.348 . S
C708 C711 1.356 . S
C708 O764 1.325 . S
N709 C712 1.314 . S
N709 C713 1.279 . S
C710 C708 1.348 . S
C710 C712 1.353 . S
C710 H768 0.929 . S
C711 C708 1.356 . S
C711 C713 1.358 . S
C711 H769 0.930 . S
C712 N709 1.314 . S
C712 C710 1.353 . S
C712 H770 0.930 . S
C713 N709 1.279 . S
C713 C711 1.358 . S
C713 H771 0.930 . S
C714 C717 1.348 . S
C714 C718 1.356 . S
C714 O765 1.325 . S
C715 N716 1.279 . S
C715 C718 1.358 . S
C715 H772 0.930 . S
N716 C715 1.279 . S
N716 C719 1.314 . S
C717 C714 1.348 . S
C717 C719 1.353 . S
C717 H773 0.929 . S
C718 C714 1.356 . S
C718 C715 1.358 . S
C718 H774 0.930 . S
C719 N716 1.314 . S
C719 C717 1.353 . S
C719 H775 0.930 . S
C720 N721 1.314 . S
C720 C725 1.353 . S
C720 H726 0.930 . S
N721 Li704 1.990 . S
N721 C720 1.314 . S
N721 C723 1.279 . S
C722 C723 1.358 . S
C722 C724 1.356 . S
C722 H776 0.930 . S
C723 N721 1.279 . S
C723 C722 1.358 . S
C723 H727 0.930 . S
C724 C722 1.356 . S
C724 C725 1.348 . S
C725 C720 1.353 . S
C725 C724 1.348 . S
C725 H777 0.929 . S
H726 C720 0.930 . S
H727 C723 0.930 . S
C728 N729 1.314 . S
C728 C730 1.353 . S
C728 H734 0.930 . S
N729 Li705 1.990 . S
N729 C728 1.314 . S
N729 C732 1.279 . S
C730 C728 1.353 . S
C730 C733 1.348 . S
C730 H778 0.929 . S
C731 C732 1.358 . S
C731 C733 1.356 . S
C731 H779 0.930 . S
C732 N729 1.279 . S
C732 C731 1.358 . S
C732 H735 0.930 . S
C733 C730 1.348 . S
C733 C731 1.356 . S
H734 C728 0.930 . S
H735 C732 0.930 . S
C736 C738 1.348 . S
C736 C739 1.356 . S
C736 O766 1.325 . S
N737 C740 1.314 . S
N737 C741 1.279 . S
C738 C736 1.348 . S
C738 C740 1.353 . S
C738 H780 0.929 . S
C739 C736 1.356 . S
C739 C741 1.358 . S
C739 H781 0.930 . S
C740 N737 1.314 . S
C740 C738 1.353 . S
C740 H782 0.930 . S
C741 N737 1.279 . S
C741 C739 1.358 . S
C741 H783 0.930 . S
C742 C743 1.348 . S
C742 C744 1.356 . S
C742 O767 1.325 . S
C743 C742 1.348 . S
C743 C745 1.353 . S
C743 H784 0.929 . S
C744 C742 1.356 . S
C744 C746 1.358 . S
C744 H785 0.930 . S
C745 C743 1.353 . S
C745 N747 1.314 . S
C745 H786 0.930 . S
C746 C744 1.358 . S
C746 N747 1.279 . S
C746 H787 0.930 . S
N747 C745 1.314 . S
N747 C746 1.279 . S
C748 C750 1.353 . S
C748 N751 1.314 . S
C748 H754 0.930 . S
C749 N751 1.279 . S
C749 C752 1.358 . S
C749 H755 0.930 . S
C750 C748 1.353 . S
C750 C753 1.348 . S
C750 H788 0.929 . S
N751 Li706 1.990 . S
N751 C748 1.314 . S
N751 C749 1.279 . S
C752 C749 1.358 . S
C752 C753 1.356 . S
C752 H789 0.930 . S
C753 C750 1.348 . S
C753 C752 1.356 . S
H754 C748 0.930 . S
H755 C749 0.930 . S
C756 N757 1.314 . S
C756 C758 1.353 . S
C756 H762 0.930 . S
N757 Li707 1.990 . S
N757 C756 1.314 . S
N757 C760 1.279 . S
C758 C756 1.353 . S
C758 C761 1.348 . S
C758 H790 0.929 . S
C759 C760 1.358 . S
C759 C761 1.356 . S
C759 H791 0.930 . S
C760 N757 1.279 . S
C760 C759 1.358 . S
C760 H763 0.930 . S
C761 C758 1.348 . S
C761 C759 1.356 . S
H762 C756 0.930 . S
H763 C760 0.930 . S
O764 Li704 1.956 . S
O764 Li705 1.970 . S
O764 Li706 1.961 . S
O764 C708 1.325 . S
O765 Li704 1.970 . S
O765 Li705 1.956 . S
O765 Li707 1.961 . S
O765 C714 1.325 . S
O766 Li704 1.961 . S
O766 Li706 1.956 . S
O766 Li707 1.970 . S
O766 C736 1.325 . S
O767 Li705 1.961 . S
O767 Li706 1.970 . S
O767 Li707 1.956 . S
O767 C742 1.325 . S
H768 C710 0.929 . S
H769 C711 0.930 . S
H770 C712 0.930 . S
H771 C713 0.930 . S
H772 C715 0.930 . S
H773 C717 0.929 . S
H774 C718 0.930 . S
H775 C719 0.930 . S
H776 C722 0.930 . S
H777 C725 0.929 . S
H778 C730 0.929 . S
H779 C731 0.930 . S
H780 C738 0.929 . S
H781 C739 0.930 . S
H782 C740 0.930 . S
H783 C741 0.930 . S
H784 C743 0.929 . S
H785 C744 0.930 . S
H786 C745 0.930 . S
H787 C746 0.930 . S
H788 C750 0.929 . S
H789 C752 0.930 . S
H790 C758 0.929 . S
H791 C759 0.930 . S
Li792 N809 1.990 . S
Li792 O852 1.956 . S
Li792 O853 1.970 . S
Li792 O854 1.961 . S
Li793 N817 1.990 . S
Li793 O852 1.970 . S
Li793 O853 1.956 . S
Li793 O855 1.961 . S
Li794 N839 1.990 . S
Li794 O852 1.961 . S
Li794 O854 1.956 . S
Li794 O855 1.970 . S
Li795 N845 1.990 . S
Li795 O853 1.961 . S
Li795 O854 1.970 . S
Li795 O855 1.956 . S
C796 C798 1.348 . S
C796 C799 1.356 . S
C796 O852 1.325 . S
N797 C800 1.314 . S
N797 C801 1.279 . S
C798 C796 1.348 . S
C798 C800 1.353 . S
C798 H856 0.929 . S
C799 C796 1.356 . S
C799 C801 1.358 . S
C799 H857 0.930 . S
C800 N797 1.314 . S
C800 C798 1.353 . S
C800 H858 0.930 . S
C801 N797 1.279 . S
C801 C799 1.358 . S
C801 H859 0.930 . S
C802 C805 1.348 . S
C802 C806 1.356 . S
C802 O853 1.325 . S
C803 N804 1.279 . S
C803 C806 1.358 . S
C803 H860 0.930 . S
N804 C803 1.279 . S
N804 C807 1.314 . S
C805 C802 1.348 . S
C805 C807 1.353 . S
C805 H861 0.929 . S
C806 C802 1.356 . S
C806 C803 1.358 . S
C806 H862 0.930 . S
C807 N804 1.314 . S
C807 C805 1.353 . S
C807 H863 0.930 . S
C808 N809 1.314 . S
C808 C813 1.353 . S
C808 H814 0.930 . S
N809 Li792 1.990 . S
N809 C808 1.314 . S
N809 C811 1.279 . S
C810 C811 1.358 . S
C810 C812 1.356 . S
C810 H864 0.930 . S
C811 N809 1.279 . S
C811 C810 1.358 . S
C811 H815 0.930 . S
C812 C810 1.356 . S
C812 C813 1.348 . S
C813 C808 1.353 . S
C813 C812 1.348 . S
C813 H865 0.929 . S
H814 C808 0.930 . S
H815 C811 0.930 . S
C816 N817 1.314 . S
C816 C818 1.353 . S
C816 H822 0.930 . S
N817 Li793 1.990 . S
N817 C816 1.314 . S
N817 C820 1.279 . S
C818 C816 1.353 . S
C818 C821 1.348 . S
C818 H866 0.929 . S
C819 C820 1.358 . S
C819 C821 1.356 . S
C819 H867 0.930 . S
C820 N817 1.279 . S
C820 C819 1.358 . S
C820 H823 0.930 . S
C821 C818 1.348 . S
C821 C819 1.356 . S
H822 C816 0.930 . S
H823 C820 0.930 . S
C824 C826 1.348 . S
C824 C827 1.356 . S
C824 O854 1.325 . S
N825 C828 1.314 . S
N825 C829 1.279 . S
C826 C824 1.348 . S
C826 C828 1.353 . S
C826 H868 0.929 . S
C827 C824 1.356 . S
C827 C829 1.358 . S
C827 H869 0.930 . S
C828 N825 1.314 . S
C828 C826 1.353 . S
C828 H870 0.930 . S
C829 N825 1.279 . S
C829 C827 1.358 . S
C829 H871 0.930 . S
C830 C831 1.348 . S
C830 C832 1.356 . S
C830 O855 1.325 . S
C831 C830 1.348 . S
C831 C833 1.353 1_545 S
C831 H872 0.929 . S
C832 C830 1.356 . S
C832 C834 1.358 1_545 S
C832 H873 0.930 . S
C833 C831 1.353 1_565 S
C833 N835 1.314 . S
C833 H874 0.930 . S
C834 C832 1.358 1_565 S
C834 N835 1.279 . S
C834 H875 0.930 . S
N835 C833 1.314 . S
N835 C834 1.279 . S
C836 C838 1.353 . S
C836 N839 1.314 . S
C836 H842 0.930 . S
C837 N839 1.279 . S
C837 C840 1.358 . S
C837 H843 0.930 . S
C838 C836 1.353 . S
C838 C841 1.348 . S
C838 H876 0.929 . S
N839 Li794 1.990 . S
N839 C836 1.314 . S
N839 C837 1.279 . S
C840 C837 1.358 . S
C840 C841 1.356 . S
C840 H877 0.930 . S
C841 C838 1.348 . S
C841 C840 1.356 . S
H842 C836 0.930 . S
H843 C837 0.930 . S
C844 N845 1.314 . S
C844 C846 1.353 . S
C844 H850 0.930 . S
N845 Li795 1.990 . S
N845 C844 1.314 . S
N845 C848 1.279 . S
C846 C844 1.353 . S
C846 C849 1.348 . S
C846 H878 0.929 . S
C847 C848 1.358 . S
C847 C849 1.356 . S
C847 H879 0.930 . S
C848 N845 1.279 . S
C848 C847 1.358 . S
C848 H851 0.930 . S
C849 C846 1.348 . S
C849 C847 1.356 . S
H850 C844 0.930 . S
H851 C848 0.930 . S
O852 Li792 1.956 . S
O852 Li793 1.970 . S
O852 Li794 1.961 . S
O852 C796 1.325 . S
O853 Li792 1.970 . S
O853 Li793 1.956 . S
O853 Li795 1.961 . S
O853 C802 1.325 . S
O854 Li792 1.961 . S
O854 Li794 1.956 . S
O854 Li795 1.970 . S
O854 C824 1.325 . S
O855 Li793 1.961 . S
O855 Li794 1.970 . S
O855 Li795 1.956 . S
O855 C830 1.325 . S
H856 C798 0.929 . S
H857 C799 0.930 . S
H858 C800 0.930 . S
H859 C801 0.930 . S
H860 C803 0.930 . S
H861 C805 0.929 . S
H862 C806 0.930 . S
H863 C807 0.930 . S
H864 C810 0.930 . S
H865 C813 0.929 . S
H866 C818 0.929 . S
H867 C819 0.930 . S
H868 C826 0.929 . S
H869 C827 0.930 . S
H870 C828 0.930 . S
H871 C829 0.930 . S
H872 C831 0.929 . S
H873 C832 0.930 . S
H874 C833 0.930 . S
H875 C834 0.930 . S
H876 C838 0.929 . S
H877 C840 0.930 . S
H878 C846 0.929 . S
H879 C847 0.930 . S
Li880 N897 1.990 . S
Li880 O940 1.956 . S
Li880 O941 1.970 . S
Li880 O942 1.961 . S
Li881 N905 1.990 . S
Li881 O940 1.970 . S
Li881 O941 1.956 . S
Li881 O943 1.961 . S
Li882 N927 1.990 . S
Li882 O940 1.961 . S
Li882 O942 1.956 . S
Li882 O943 1.970 . S
Li883 N933 1.990 . S
Li883 O941 1.961 . S
Li883 O942 1.970 . S
Li883 O943 1.956 . S
C884 C886 1.348 . S
C884 C887 1.356 . S
C884 O940 1.325 . S
N885 C888 1.314 . S
N885 C889 1.279 . S
C886 C884 1.348 . S
C886 C888 1.353 . S
C886 H944 0.929 . S
C887 C884 1.356 . S
C887 C889 1.358 . S
C887 H945 0.930 . S
C888 N885 1.314 . S
C888 C886 1.353 . S
C888 H946 0.930 . S
C889 N885 1.279 . S
C889 C887 1.358 . S
C889 H947 0.930 . S
C890 C893 1.348 . S
C890 C894 1.356 . S
C890 O941 1.325 . S
C891 N892 1.279 . S
C891 C894 1.358 . S
C891 H948 0.930 . S
N892 C891 1.279 . S
N892 C895 1.314 . S
C893 C890 1.348 . S
C893 C895 1.353 . S
C893 H949 0.929 . S
C894 C890 1.356 . S
C894 C891 1.358 . S
C894 H950 0.930 . S
C895 N892 1.314 . S
C895 C893 1.353 . S
C895 H951 0.930 . S
C896 N897 1.314 . S
C896 C901 1.353 . S
C896 H902 0.930 . S
N897 Li880 1.990 . S
N897 C896 1.314 . S
N897 C899 1.279 . S
C898 C899 1.358 . S
C898 C900 1.356 . S
C898 H952 0.930 . S
C899 N897 1.279 . S
C899 C898 1.358 . S
C899 H903 0.930 . S
C900 C898 1.356 . S
C900 C901 1.348 . S
C901 C896 1.353 . S
C901 C900 1.348 . S
C901 H953 0.929 . S
H902 C896 0.930 . S
H903 C899 0.930 . S
C904 N905 1.314 . S
C904 C906 1.353 . S
C904 H910 0.930 . S
N905 Li881 1.990 . S
N905 C904 1.314 . S
N905 C908 1.279 . S
C906 C904 1.353 . S
C906 C909 1.348 . S
C906 H954 0.929 . S
C907 C908 1.358 . S
C907 C909 1.356 . S
C907 H955 0.930 . S
C908 N905 1.279 . S
C908 C907 1.358 . S
C908 H911 0.930 . S
C909 C906 1.348 . S
C909 C907 1.356 . S
H910 C904 0.930 . S
H911 C908 0.930 . S
C912 C914 1.348 . S
C912 C915 1.356 . S
C912 O942 1.325 . S
N913 C916 1.314 . S
N913 C917 1.279 . S
C914 C912 1.348 . S
C914 C916 1.353 . S
C914 H956 0.929 . S
C915 C912 1.356 . S
C915 C917 1.358 . S
C915 H957 0.930 . S
C916 N913 1.314 . S
C916 C914 1.353 . S
C916 H958 0.930 . S
C917 N913 1.279 . S
C917 C915 1.358 . S
C917 H959 0.930 . S
C918 C919 1.348 . S
C918 C920 1.356 . S
C918 O943 1.325 . S
C919 C918 1.348 . S
C919 C921 1.353 . S
C919 H960 0.929 . S
C920 C918 1.356 . S
C920 C922 1.358 . S
C920 H961 0.930 . S
C921 C919 1.353 . S
C921 N923 1.314 . S
C921 H962 0.930 . S
C922 C920 1.358 . S
C922 N923 1.279 . S
C922 H963 0.930 . S
N923 C921 1.314 . S
N923 C922 1.279 . S
C924 C926 1.353 . S
C924 N927 1.314 . S
C924 H930 0.930 . S
C925 N927 1.279 . S
C925 C928 1.358 . S
C925 H931 0.930 . S
C926 C924 1.353 . S
C926 C929 1.348 . S
C926 H964 0.929 . S
N927 Li882 1.990 . S
N927 C924 1.314 . S
N927 C925 1.279 . S
C928 C925 1.358 . S
C928 C929 1.356 . S
C928 H965 0.930 . S
C929 C926 1.348 . S
C929 C928 1.356 . S
H930 C924 0.930 . S
H931 C925 0.930 . S
C932 N933 1.314 . S
C932 C934 1.353 . S
C932 H938 0.930 . S
N933 Li883 1.990 . S
N933 C932 1.314 . S
N933 C936 1.279 . S
C934 C932 1.353 . S
C934 C937 1.348 . S
C934 H966 0.929 . S
C935 C936 1.358 . S
C935 C937 1.356 . S
C935 H967 0.930 . S
C936 N933 1.279 . S
C936 C935 1.358 . S
C936 H939 0.930 . S
C937 C934 1.348 . S
C937 C935 1.356 . S
H938 C932 0.930 . S
H939 C936 0.930 . S
O940 Li880 1.956 . S
O940 Li881 1.970 . S
O940 Li882 1.961 . S
O940 C884 1.325 . S
O941 Li880 1.970 . S
O941 Li881 1.956 . S
O941 Li883 1.961 . S
O941 C890 1.325 . S
O942 Li880 1.961 . S
O942 Li882 1.956 . S
O942 Li883 1.970 . S
O942 C912 1.325 . S
O943 Li881 1.961 . S
O943 Li882 1.970 . S
O943 Li883 1.956 . S
O943 C918 1.325 . S
H944 C886 0.929 . S
H945 C887 0.930 . S
H946 C888 0.930 . S
H947 C889 0.930 . S
H948 C891 0.930 . S
H949 C893 0.929 . S
H950 C894 0.930 . S
H951 C895 0.930 . S
H952 C898 0.930 . S
H953 C901 0.929 . S
H954 C906 0.929 . S
H955 C907 0.930 . S
H956 C914 0.929 . S
H957 C915 0.930 . S
H958 C916 0.930 . S
H959 C917 0.930 . S
H960 C919 0.929 . S
H961 C920 0.930 . S
H962 C921 0.930 . S
H963 C922 0.930 . S
H964 C926 0.929 . S
H965 C928 0.930 . S
H966 C934 0.929 . S
H967 C935 0.930 . S
Li968 N985 1.990 . S
Li968 O1028 1.956 . S
Li968 O1029 1.970 . S
Li968 O1030 1.961 . S
Li969 N993 1.990 . S
Li969 O1028 1.970 . S
Li969 O1029 1.956 . S
Li969 O1031 1.961 . S
Li970 N1015 1.990 . S
Li970 O1028 1.961 . S
Li970 O1030 1.956 . S
Li970 O1031 1.970 . S
Li971 N1021 1.990 . S
Li971 O1029 1.961 . S
Li971 O1030 1.970 . S
Li971 O1031 1.956 . S
C972 C974 1.348 . S
C972 C975 1.356 . S
C972 O1028 1.325 . S
N973 C976 1.314 . S
N973 C977 1.279 . S
C974 C972 1.348 . S
C974 C976 1.353 . S
C974 H1032 0.929 . S
C975 C972 1.356 . S
C975 C977 1.358 . S
C975 H1033 0.930 . S
C976 N973 1.314 . S
C976 C974 1.353 . S
C976 H1034 0.930 . S
C977 N973 1.279 . S
C977 C975 1.358 . S
C977 H1035 0.930 . S
C978 C981 1.348 . S
C978 C982 1.356 . S
C978 O1029 1.325 . S
C979 N980 1.279 . S
C979 C982 1.358 1_545 S
C979 H1036 0.930 . S
N980 C979 1.279 . S
N980 C983 1.314 . S
C981 C978 1.348 . S
C981 C983 1.353 1_565 S
C981 H1037 0.929 . S
C982 C978 1.356 . S
C982 C979 1.358 1_565 S
C982 H1038 0.930 . S
C983 N980 1.314 . S
C983 C981 1.353 1_545 S
C983 H1039 0.930 . S
C984 N985 1.314 . S
C984 C989 1.353 . S
C984 H990 0.930 . S
N985 Li968 1.990 . S
N985 C984 1.314 . S
N985 C987 1.279 . S
C986 C987 1.358 . S
C986 C988 1.356 . S
C986 H1040 0.930 . S
C987 N985 1.279 . S
C987 C986 1.358 . S
C987 H991 0.930 . S
C988 C986 1.356 . S
C988 C989 1.348 . S
C989 C984 1.353 . S
C989 C988 1.348 . S
C989 H1041 0.929 . S
H990 C984 0.930 . S
H991 C987 0.930 . S
C992 N993 1.314 . S
C992 C994 1.353 . S
C992 H998 0.930 . S
N993 Li969 1.990 . S
N993 C992 1.314 . S
N993 C996 1.279 . S
C994 C992 1.353 . S
C994 C997 1.348 . S
C994 H1042 0.929 . S
C995 C996 1.358 . S
C995 C997 1.356 . S
C995 H1043 0.930 . S
C996 N993 1.279 . S
C996 C995 1.358 . S
C996 H999 0.930 . S
C997 C994 1.348 . S
C997 C995 1.356 . S
H998 C992 0.930 . S
H999 C996 0.930 . S
C1000 C1002 1.348 . S
C1000 C1003 1.356 . S
C1000 O1030 1.325 . S
N1001 C1004 1.314 . S
N1001 C1005 1.279 . S
C1002 C1000 1.348 . S
C1002 C1004 1.353 . S
C1002 H1044 0.929 . S
C1003 C1000 1.356 . S
C1003 C1005 1.358 . S
C1003 H1045 0.930 . S
C1004 N1001 1.314 . S
C1004 C1002 1.353 . S
C1004 H1046 0.930 . S
C1005 N1001 1.279 . S
C1005 C1003 1.358 . S
C1005 H1047 0.930 . S
C1006 C1007 1.348 . S
C1006 C1008 1.356 . S
C1006 O1031 1.325 . S
C1007 C1006 1.348 . S
C1007 C1009 1.353 . S
C1007 H1048 0.929 . S
C1008 C1006 1.356 . S
C1008 C1010 1.358 . S
C1008 H1049 0.930 . S
C1009 C1007 1.353 . S
C1009 N1011 1.314 . S
C1009 H1050 0.930 . S
C1010 C1008 1.358 . S
C1010 N1011 1.279 . S
C1010 H1051 0.930 . S
N1011 C1009 1.314 . S
N1011 C1010 1.279 . S
C1012 C1014 1.353 . S
C1012 N1015 1.314 . S
C1012 H1018 0.930 . S
C1013 N1015 1.279 . S
C1013 C1016 1.358 . S
C1013 H1019 0.930 . S
C1014 C1012 1.353 . S
C1014 C1017 1.348 . S
C1014 H1052 0.929 . S
N1015 Li970 1.990 . S
N1015 C1012 1.314 . S
N1015 C1013 1.279 . S
C1016 C1013 1.358 . S
C1016 C1017 1.356 . S
C1016 H1053 0.930 . S
C1017 C1014 1.348 . S
C1017 C1016 1.356 . S
H1018 C1012 0.930 . S
H1019 C1013 0.930 . S
C1020 N1021 1.314 . S
C1020 C1022 1.353 . S
C1020 H1026 0.930 . S
N1021 Li971 1.990 . S
N1021 C1020 1.314 . S
N1021 C1024 1.279 . S
C1022 C1020 1.353 . S
C1022 C1025 1.348 . S
C1022 H1054 0.929 . S
C1023 C1024 1.358 . S
C1023 C1025 1.356 . S
C1023 H1055 0.930 . S
C1024 N1021 1.279 . S
C1024 C1023 1.358 . S
C1024 H1027 0.930 . S
C1025 C1022 1.348 . S
C1025 C1023 1.356 . S
H1026 C1020 0.930 . S
H1027 C1024 0.930 . S
O1028 Li968 1.956 . S
O1028 Li969 1.970 . S
O1028 Li970 1.961 . S
O1028 C972 1.325 . S
O1029 Li968 1.970 . S
O1029 Li969 1.956 . S
O1029 Li971 1.961 . S
O1029 C978 1.325 . S
O1030 Li968 1.961 . S
O1030 Li970 1.956 . S
O1030 Li971 1.970 . S
O1030 C1000 1.325 . S
O1031 Li969 1.961 . S
O1031 Li970 1.970 . S
O1031 Li971 1.956 . S
O1031 C1006 1.325 . S
H1032 C974 0.929 . S
H1033 C975 0.930 . S
H1034 C976 0.930 . S
H1035 C977 0.930 . S
H1036 C979 0.930 . S
H1037 C981 0.929 . S
H1038 C982 0.930 . S
H1039 C983 0.930 . S
H1040 C986 0.930 . S
H1041 C989 0.929 . S
H1042 C994 0.929 . S
H1043 C995 0.930 . S
H1044 C1002 0.929 . S
H1045 C1003 0.930 . S
H1046 C1004 0.930 . S
H1047 C1005 0.930 . S
H1048 C1007 0.929 . S
H1049 C1008 0.930 . S
H1050 C1009 0.930 . S
H1051 C1010 0.930 . S
H1052 C1014 0.929 . S
H1053 C1016 0.930 . S
H1054 C1022 0.929 . S
H1055 C1023 0.930 . S
Li1056 N1073 1.990 . S
Li1056 O1116 1.956 . S
Li1056 O1117 1.970 . S
Li1056 O1118 1.961 . S
Li1057 N1081 1.990 . S
Li1057 O1116 1.970 . S
Li1057 O1117 1.956 . S
Li1057 O1119 1.961 . S
Li1058 N1103 1.990 . S
Li1058 O1116 1.961 . S
Li1058 O1118 1.956 . S
Li1058 O1119 1.970 . S
Li1059 N1109 1.990 . S
Li1059 O1117 1.961 . S
Li1059 O1118 1.970 . S
Li1059 O1119 1.956 . S
C1060 C1062 1.348 . S
C1060 C1063 1.356 . S
C1060 O1116 1.325 . S
N1061 C1064 1.314 . S
N1061 C1065 1.279 . S
C1062 C1060 1.348 . S
C1062 C1064 1.353 . S
C1062 H1120 0.929 . S
C1063 C1060 1.356 . S
C1063 C1065 1.358 . S
C1063 H1121 0.930 . S
C1064 N1061 1.314 . S
C1064 C1062 1.353 . S
C1064 H1122 0.930 . S
C1065 N1061 1.279 . S
C1065 C1063 1.358 . S
C1065 H1123 0.930 . S
C1066 C1069 1.348 . S
C1066 C1070 1.356 . S
C1066 O1117 1.325 . S
C1067 N1068 1.279 . S
C1067 C1070 1.358 . S
C1067 H1124 0.930 . S
N1068 C1067 1.279 . S
N1068 C1071 1.314 . S
C1069 C1066 1.348 . S
C1069 C1071 1.353 . S
C1069 H1125 0.929 . S
C1070 C1066 1.356 . S
C1070 C1067 1.358 . S
C1070 H1126 0.930 . S
C1071 N1068 1.314 . S
C1071 C1069 1.353 . S
C1071 H1127 0.930 . S
C1072 N1073 1.314 . S
C1072 C1077 1.353 . S
C1072 H1078 0.930 . S
N1073 Li1056 1.990 . S
N1073 C1072 1.314 . S
N1073 C1075 1.279 . S
C1074 C1075 1.358 . S
C1074 C1076 1.356 . S
C1074 H1128 0.930 . S
C1075 N1073 1.279 . S
C1075 C1074 1.358 . S
C1075 H1079 0.930 . S
C1076 C1074 1.356 . S
C1076 C1077 1.348 . S
C1077 C1072 1.353 . S
C1077 C1076 1.348 . S
C1077 H1129 0.929 . S
H1078 C1072 0.930 . S
H1079 C1075 0.930 . S
C1080 N1081 1.314 . S
C1080 C1082 1.353 . S
C1080 H1086 0.930 . S
N1081 Li1057 1.990 . S
N1081 C1080 1.314 . S
N1081 C1084 1.279 . S
C1082 C1080 1.353 . S
C1082 C1085 1.348 . S
C1082 H1130 0.929 . S
C1083 C1084 1.358 . S
C1083 C1085 1.356 . S
C1083 H1131 0.930 . S
C1084 N1081 1.279 . S
C1084 C1083 1.358 . S
C1084 H1087 0.930 . S
C1085 C1082 1.348 . S
C1085 C1083 1.356 . S
H1086 C1080 0.930 . S
H1087 C1084 0.930 . S
C1088 C1090 1.348 . S
C1088 C1091 1.356 . S
C1088 O1118 1.325 . S
N1089 C1092 1.314 . S
N1089 C1093 1.279 . S
C1090 C1088 1.348 . S
C1090 C1092 1.353 . S
C1090 H1132 0.929 . S
C1091 C1088 1.356 . S
C1091 C1093 1.358 . S
C1091 H1133 0.930 . S
C1092 N1089 1.314 . S
C1092 C1090 1.353 . S
C1092 H1134 0.930 . S
C1093 N1089 1.279 . S
C1093 C1091 1.358 . S
C1093 H1135 0.930 . S
C1094 C1095 1.348 . S
C1094 C1096 1.356 . S
C1094 O1119 1.325 . S
C1095 C1094 1.348 . S
C1095 C1097 1.353 . S
C1095 H1136 0.929 . S
C1096 C1094 1.356 . S
C1096 C1098 1.358 . S
C1096 H1137 0.930 . S
C1097 C1095 1.353 . S
C1097 N1099 1.314 . S
C1097 H1138 0.930 . S
C1098 C1096 1.358 . S
C1098 N1099 1.279 . S
C1098 H1139 0.930 . S
N1099 C1097 1.314 . S
N1099 C1098 1.279 . S
C1100 C1102 1.353 . S
C1100 N1103 1.314 . S
C1100 H1106 0.930 . S
C1101 N1103 1.279 . S
C1101 C1104 1.358 . S
C1101 H1107 0.930 . S
C1102 C1100 1.353 . S
C1102 C1105 1.348 . S
C1102 H1140 0.929 . S
N1103 Li1058 1.990 . S
N1103 C1100 1.314 . S
N1103 C1101 1.279 . S
C1104 C1101 1.358 . S
C1104 C1105 1.356 . S
C1104 H1141 0.930 . S
C1105 C1102 1.348 . S
C1105 C1104 1.356 . S
H1106 C1100 0.930 . S
H1107 C1101 0.930 . S
C1108 N1109 1.314 . S
C1108 C1110 1.353 . S
C1108 H1114 0.930 . S
N1109 Li1059 1.990 . S
N1109 C1108 1.314 . S
N1109 C1112 1.279 . S
C1110 C1108 1.353 . S
C1110 C1113 1.348 . S
C1110 H1142 0.929 . S
C1111 C1112 1.358 . S
C1111 C1113 1.356 . S
C1111 H1143 0.930 . S
C1112 N1109 1.279 . S
C1112 C1111 1.358 . S
C1112 H1115 0.930 . S
C1113 C1110 1.348 . S
C1113 C1111 1.356 . S
H1114 C1108 0.930 . S
H1115 C1112 0.930 . S
O1116 Li1056 1.956 . S
O1116 Li1057 1.970 . S
O1116 Li1058 1.961 . S
O1116 C1060 1.325 . S
O1117 Li1056 1.970 . S
O1117 Li1057 1.956 . S
O1117 Li1059 1.961 . S
O1117 C1066 1.325 . S
O1118 Li1056 1.961 . S
O1118 Li1058 1.956 . S
O1118 Li1059 1.970 . S
O1118 C1088 1.325 . S
O1119 Li1057 1.961 . S
O1119 Li1058 1.970 . S
O1119 Li1059 1.956 . S
O1119 C1094 1.325 . S
H1120 C1062 0.929 . S
H1121 C1063 0.930 . S
H1122 C1064 0.930 . S
H1123 C1065 0.930 . S
H1124 C1067 0.930 . S
H1125 C1069 0.929 . S
H1126 C1070 0.930 . S
H1127 C1071 0.930 . S
H1128 C1074 0.930 . S
H1129 C1077 0.929 . S
H1130 C1082 0.929 . S
H1131 C1083 0.930 . S
H1132 C1090 0.929 . S
H1133 C1091 0.930 . S
H1134 C1092 0.930 . S
H1135 C1093 0.930 . S
H1136 C1095 0.929 . S
H1137 C1096 0.930 . S
H1138 C1097 0.930 . S
H1139 C1098 0.930 . S
H1140 C1102 0.929 . S
H1141 C1104 0.930 . S
H1142 C1110 0.929 . S
H1143 C1111 0.930 . S
Li1144 N1161 1.990 . S
Li1144 O1204 1.956 . S
Li1144 O1205 1.970 . S
Li1144 O1206 1.961 . S
Li1145 N1169 1.990 . S
Li1145 O1204 1.970 . S
Li1145 O1205 1.956 . S
Li1145 O1207 1.961 . S
Li1146 N1191 1.990 . S
Li1146 O1204 1.961 . S
Li1146 O1206 1.956 . S
Li1146 O1207 1.970 . S
Li1147 N1197 1.990 . S
Li1147 O1205 1.961 . S
Li1147 O1206 1.970 . S
Li1147 O1207 1.956 . S
C1148 C1150 1.348 . S
C1148 C1151 1.356 . S
C1148 O1204 1.325 . S
N1149 C1152 1.314 . S
N1149 C1153 1.279 . S
C1150 C1148 1.348 . S
C1150 C1152 1.353 . S
C1150 H1208 0.929 . S
C1151 C1148 1.356 . S
C1151 C1153 1.358 . S
C1151 H1209 0.930 . S
C1152 N1149 1.314 . S
C1152 C1150 1.353 . S
C1152 H1210 0.930 . S
C1153 N1149 1.279 . S
C1153 C1151 1.358 . S
C1153 H1211 0.930 . S
C1154 C1157 1.348 . S
C1154 C1158 1.356 . S
C1154 O1205 1.325 . S
C1155 N1156 1.279 . S
C1155 C1158 1.358 . S
C1155 H1212 0.930 . S
N1156 C1155 1.279 . S
N1156 C1159 1.314 . S
C1157 C1154 1.348 . S
C1157 C1159 1.353 . S
C1157 H1213 0.929 . S
C1158 C1154 1.356 . S
C1158 C1155 1.358 . S
C1158 H1214 0.930 . S
C1159 N1156 1.314 . S
C1159 C1157 1.353 . S
C1159 H1215 0.930 . S
C1160 N1161 1.314 . S
C1160 C1165 1.353 . S
C1160 H1166 0.930 . S
N1161 Li1144 1.990 . S
N1161 C1160 1.314 . S
N1161 C1163 1.279 . S
C1162 C1163 1.358 . S
C1162 C1164 1.356 . S
C1162 H1216 0.930 . S
C1163 N1161 1.279 . S
C1163 C1162 1.358 . S
C1163 H1167 0.930 . S
C1164 C1162 1.356 . S
C1164 C1165 1.348 . S
C1165 C1160 1.353 . S
C1165 C1164 1.348 . S
C1165 H1217 0.929 . S
H1166 C1160 0.930 . S
H1167 C1163 0.930 . S
C1168 N1169 1.314 . S
C1168 C1170 1.353 . S
C1168 H1174 0.930 . S
N1169 Li1145 1.990 . S
N1169 C1168 1.314 . S
N1169 C1172 1.279 . S
C1170 C1168 1.353 . S
C1170 C1173 1.348 . S
C1170 H1218 0.929 . S
C1171 C1172 1.358 . S
C1171 C1173 1.356 . S
C1171 H1219 0.930 . S
C1172 N1169 1.279 . S
C1172 C1171 1.358 . S
C1172 H1175 0.930 . S
C1173 C1170 1.348 . S
C1173 C1171 1.356 . S
H1174 C1168 0.930 . S
H1175 C1172 0.930 . S
C1176 C1178 1.348 . S
C1176 C1179 1.356 . S
C1176 O1206 1.325 . S
N1177 C1180 1.314 . S
N1177 C1181 1.279 . S
C1178 C1176 1.348 . S
C1178 C1180 1.353 1_545 S
C1178 H1220 0.929 . S
C1179 C1176 1.356 . S
C1179 C1181 1.358 1_545 S
C1179 H1221 0.930 . S
C1180 N1177 1.314 . S
C1180 C1178 1.353 1_565 S
C1180 H1222 0.930 . S
C1181 N1177 1.279 . S
C1181 C1179 1.358 1_565 S
C1181 H1223 0.930 . S
C1182 C1183 1.348 . S
C1182 C1184 1.356 . S
C1182 O1207 1.325 . S
C1183 C1182 1.348 . S
C1183 C1185 1.353 . S
C1183 H1224 0.929 . S
C1184 C1182 1.356 . S
C1184 C1186 1.358 . S
C1184 H1225 0.930 . S
C1185 C1183 1.353 . S
C1185 N1187 1.314 . S
C1185 H1226 0.930 . S
C1186 C1184 1.358 . S
C1186 N1187 1.279 . S
C1186 H1227 0.930 . S
N1187 C1185 1.314 . S
N1187 C1186 1.279 . S
C1188 C1190 1.353 . S
C1188 N1191 1.314 . S
C1188 H1194 0.930 . S
C1189 N1191 1.279 . S
C1189 C1192 1.358 . S
C1189 H1195 0.930 . S
C1190 C1188 1.353 . S
C1190 C1193 1.348 . S
C1190 H1228 0.929 . S
N1191 Li1146 1.990 . S
N1191 C1188 1.314 . S
N1191 C1189 1.279 . S
C1192 C1189 1.358 . S
C1192 C1193 1.356 . S
C1192 H1229 0.930 . S
C1193 C1190 1.348 . S
C1193 C1192 1.356 . S
H1194 C1188 0.930 . S
H1195 C1189 0.930 . S
C1196 N1197 1.314 . S
C1196 C1198 1.353 . S
C1196 H1202 0.930 . S
N1197 Li1147 1.990 . S
N1197 C1196 1.314 . S
N1197 C1200 1.279 . S
C1198 C1196 1.353 . S
C1198 C1201 1.348 . S
C1198 H1230 0.929 . S
C1199 C1200 1.358 . S
C1199 C1201 1.356 . S
C1199 H1231 0.930 . S
C1200 N1197 1.279 . S
C1200 C1199 1.358 . S
C1200 H1203 0.930 . S
C1201 C1198 1.348 . S
C1201 C1199 1.356 . S
H1202 C1196 0.930 . S
H1203 C1200 0.930 . S
O1204 Li1144 1.956 . S
O1204 Li1145 1.970 . S
O1204 Li1146 1.961 . S
O1204 C1148 1.325 . S
O1205 Li1144 1.970 . S
O1205 Li1145 1.956 . S
O1205 Li1147 1.961 . S
O1205 C1154 1.325 . S
O1206 Li1144 1.961 . S
O1206 Li1146 1.956 . S
O1206 Li1147 1.970 . S
O1206 C1176 1.325 . S
O1207 Li1145 1.961 . S
O1207 Li1146 1.970 . S
O1207 Li1147 1.956 . S
O1207 C1182 1.325 . S
H1208 C1150 0.929 . S
H1209 C1151 0.930 . S
H1210 C1152 0.930 . S
H1211 C1153 0.930 . S
H1212 C1155 0.930 . S
H1213 C1157 0.929 . S
H1214 C1158 0.930 . S
H1215 C1159 0.930 . S
H1216 C1162 0.930 . S
H1217 C1165 0.929 . S
H1218 C1170 0.929 . S
H1219 C1171 0.930 . S
H1220 C1178 0.929 . S
H1221 C1179 0.930 . S
H1222 C1180 0.930 . S
H1223 C1181 0.930 . S
H1224 C1183 0.929 . S
H1225 C1184 0.930 . S
H1226 C1185 0.930 . S
H1227 C1186 0.930 . S
H1228 C1190 0.929 . S
H1229 C1192 0.930 . S
H1230 C1198 0.929 . S
H1231 C1199 0.930 . S
Li1232 N1249 1.990 . S
Li1232 O1292 1.956 . S
Li1232 O1293 1.970 . S
Li1232 O1294 1.961 . S
Li1233 N1257 1.990 . S
Li1233 O1292 1.970 . S
Li1233 O1293 1.956 . S
Li1233 O1295 1.961 . S
Li1234 N1279 1.990 . S
Li1234 O1292 1.961 . S
Li1234 O1294 1.956 . S
Li1234 O1295 1.970 . S
Li1235 N1285 1.990 . S
Li1235 O1293 1.961 . S
Li1235 O1294 1.970 . S
Li1235 O1295 1.956 . S
C1236 C1238 1.348 . S
C1236 C1239 1.356 . S
C1236 O1292 1.325 . S
N1237 C1240 1.314 . S
N1237 C1241 1.279 . S
C1238 C1236 1.348 . S
C1238 C1240 1.353 . S
C1238 H1296 0.929 . S
C1239 C1236 1.356 . S
C1239 C1241 1.358 . S
C1239 H1297 0.930 . S
C1240 N1237 1.314 . S
C1240 C1238 1.353 . S
C1240 H1298 0.930 . S
C1241 N1237 1.279 . S
C1241 C1239 1.358 . S
C1241 H1299 0.930 . S
C1242 C1245 1.348 . S
C1242 C1246 1.356 . S
C1242 O1293 1.325 . S
C1243 N1244 1.279 . S
C1243 C1246 1.358 . S
C1243 H1300 0.930 . S
N1244 C1243 1.279 . S
N1244 C1247 1.314 . S
C1245 C1242 1.348 . S
C1245 C1247 1.353 . S
C1245 H1301 0.929 . S
C1246 C1242 1.356 . S
C1246 C1243 1.358 . S
C1246 H1302 0.930 . S
C1247 N1244 1.314 . S
C1247 C1245 1.353 . S
C1247 H1303 0.930 . S
C1248 N1249 1.314 . S
C1248 C1253 1.353 . S
C1248 H1254 0.930 . S
N1249 Li1232 1.990 . S
N1249 C1248 1.314 . S
N1249 C1251 1.279 . S
C1250 C1251 1.358 . S
C1250 C1252 1.356 . S
C1250 H1304 0.930 . S
C1251 N1249 1.279 . S
C1251 C1250 1.358 . S
C1251 H1255 0.930 . S
C1252 C1250 1.356 . S
C1252 C1253 1.348 . S
C1253 C1248 1.353 . S
C1253 C1252 1.348 . S
C1253 H1305 0.929 . S
H1254 C1248 0.930 . S
H1255 C1251 0.930 . S
C1256 N1257 1.314 . S
C1256 C1258 1.353 . S
C1256 H1262 0.930 . S
N1257 Li1233 1.990 . S
N1257 C1256 1.314 . S
N1257 C1260 1.279 . S
C1258 C1256 1.353 . S
C1258 C1261 1.348 . S
C1258 H1306 0.929 . S
C1259 C1260 1.358 . S
C1259 C1261 1.356 . S
C1259 H1307 0.930 . S
C1260 N1257 1.279 . S
C1260 C1259 1.358 . S
C1260 H1263 0.930 . S
C1261 C1258 1.348 . S
C1261 C1259 1.356 . S
H1262 C1256 0.930 . S
H1263 C1260 0.930 . S
C1264 C1266 1.348 . S
C1264 C1267 1.356 . S
C1264 O1294 1.325 . S
N1265 C1268 1.314 . S
N1265 C1269 1.279 . S
C1266 C1264 1.348 . S
C1266 C1268 1.353 . S
C1266 H1308 0.929 . S
C1267 C1264 1.356 . S
C1267 C1269 1.358 . S
C1267 H1309 0.930 . S
C1268 N1265 1.314 . S
C1268 C1266 1.353 . S
C1268 H1310 0.930 . S
C1269 N1265 1.279 . S
C1269 C1267 1.358 . S
C1269 H1311 0.930 . S
C1270 C1271 1.348 . S
C1270 C1272 1.356 . S
C1270 O1295 1.325 . S
C1271 C1270 1.348 . S
C1271 C1273 1.353 . S
C1271 H1312 0.929 . S
C1272 C1270 1.356 . S
C1272 C1274 1.358 . S
C1272 H1313 0.930 . S
C1273 C1271 1.353 . S
C1273 N1275 1.314 . S
C1273 H1314 0.930 . S
C1274 C1272 1.358 . S
C1274 N1275 1.279 . S
C1274 H1315 0.930 . S
N1275 C1273 1.314 . S
N1275 C1274 1.279 . S
C1276 C1278 1.353 . S
C1276 N1279 1.314 . S
C1276 H1282 0.930 . S
C1277 N1279 1.279 . S
C1277 C1280 1.358 . S
C1277 H1283 0.930 . S
C1278 C1276 1.353 . S
C1278 C1281 1.348 . S
C1278 H1316 0.929 . S
N1279 Li1234 1.990 . S
N1279 C1276 1.314 . S
N1279 C1277 1.279 . S
C1280 C1277 1.358 . S
C1280 C1281 1.356 . S
C1280 H1317 0.930 . S
C1281 C1278 1.348 . S
C1281 C1280 1.356 . S
H1282 C1276 0.930 . S
H1283 C1277 0.930 . S
C1284 N1285 1.314 . S
C1284 C1286 1.353 . S
C1284 H1290 0.930 . S
N1285 Li1235 1.990 . S
N1285 C1284 1.314 . S
N1285 C1288 1.279 . S
C1286 C1284 1.353 . S
C1286 C1289 1.348 . S
C1286 H1318 0.929 . S
C1287 C1288 1.358 . S
C1287 C1289 1.356 . S
C1287 H1319 0.930 . S
C1288 N1285 1.279 . S
C1288 C1287 1.358 . S
C1288 H1291 0.930 . S
C1289 C1286 1.348 . S
C1289 C1287 1.356 . S
H1290 C1284 0.930 . S
H1291 C1288 0.930 . S
O1292 Li1232 1.956 . S
O1292 Li1233 1.970 . S
O1292 Li1234 1.961 . S
O1292 C1236 1.325 . S
O1293 Li1232 1.970 . S
O1293 Li1233 1.956 . S
O1293 Li1235 1.961 . S
O1293 C1242 1.325 . S
O1294 Li1232 1.961 . S
O1294 Li1234 1.956 . S
O1294 Li1235 1.970 . S
O1294 C1264 1.325 . S
O1295 Li1233 1.961 . S
O1295 Li1234 1.970 . S
O1295 Li1235 1.956 . S
O1295 C1270 1.325 . S
H1296 C1238 0.929 . S
H1297 C1239 0.930 . S
H1298 C1240 0.930 . S
H1299 C1241 0.930 . S
H1300 C1243 0.930 . S
H1301 C1245 0.929 . S
H1302 C1246 0.930 . S
H1303 C1247 0.930 . S
H1304 C1250 0.930 . S
H1305 C1253 0.929 . S
H1306 C1258 0.929 . S
H1307 C1259 0.930 . S
H1308 C1266 0.929 . S
H1309 C1267 0.930 . S
H1310 C1268 0.930 . S
H1311 C1269 0.930 . S
H1312 C1271 0.929 . S
H1313 C1272 0.930 . S
H1314 C1273 0.930 . S
H1315 C1274 0.930 . S
H1316 C1278 0.929 . S
H1317 C1280 0.930 . S
H1318 C1286 0.929 . S
H1319 C1287 0.930 . S
Li1320 N1337 1.990 . S
Li1320 O1380 1.956 . S
Li1320 O1381 1.970 . S
Li1320 O1382 1.961 . S
Li1321 N1345 1.990 . S
Li1321 O1380 1.970 . S
Li1321 O1381 1.956 . S
Li1321 O1383 1.961 . S
Li1322 N1367 1.990 . S
Li1322 O1380 1.961 . S
Li1322 O1382 1.956 . S
Li1322 O1383 1.970 . S
Li1323 N1373 1.990 . S
Li1323 O1381 1.961 . S
Li1323 O1382 1.970 . S
Li1323 O1383 1.956 . S
C1324 C1326 1.348 . S
C1324 C1327 1.356 . S
C1324 O1380 1.325 . S
N1325 C1328 1.314 . S
N1325 C1329 1.279 . S
C1326 C1324 1.348 . S
C1326 C1328 1.353 1_565 S
C1326 H1384 0.929 . S
C1327 C1324 1.356 . S
C1327 C1329 1.358 1_565 S
C1327 H1385 0.930 . S
C1328 N1325 1.314 . S
C1328 C1326 1.353 1_545 S
C1328 H1386 0.930 . S
C1329 N1325 1.279 . S
C1329 C1327 1.358 1_545 S
C1329 H1387 0.930 . S
C1330 C1333 1.348 . S
C1330 C1334 1.356 . S
C1330 O1381 1.325 . S
C1331 N1332 1.279 . S
C1331 C1334 1.358 . S
C1331 H1388 0.930 . S
N1332 C1331 1.279 . S
N1332 C1335 1.314 . S
C1333 C1330 1.348 . S
C1333 C1335 1.353 . S
C1333 H1389 0.929 . S
C1334 C1330 1.356 . S
C1334 C1331 1.358 . S
C1334 H1390 0.930 . S
C1335 N1332 1.314 . S
C1335 C1333 1.353 . S
C1335 H1391 0.930 . S
C1336 N1337 1.314 . S
C1336 C1341 1.353 . S
C1336 H1342 0.930 . S
N1337 Li1320 1.990 . S
N1337 C1336 1.314 . S
N1337 C1339 1.279 . S
C1338 C1339 1.358 . S
C1338 C1340 1.356 . S
C1338 H1392 0.930 . S
C1339 N1337 1.279 . S
C1339 C1338 1.358 . S
C1339 H1343 0.930 . S
C1340 C1338 1.356 . S
C1340 C1341 1.348 . S
C1341 C1336 1.353 . S
C1341 C1340 1.348 . S
C1341 H1393 0.929 . S
H1342 C1336 0.930 . S
H1343 C1339 0.930 . S
C1344 N1345 1.314 . S
C1344 C1346 1.353 . S
C1344 H1350 0.930 . S
N1345 Li1321 1.990 . S
N1345 C1344 1.314 . S
N1345 C1348 1.279 . S
C1346 C1344 1.353 . S
C1346 C1349 1.348 . S
C1346 H1394 0.929 . S
C1347 C1348 1.358 . S
C1347 C1349 1.356 . S
C1347 H1395 0.930 . S
C1348 N1345 1.279 . S
C1348 C1347 1.358 . S
C1348 H1351 0.930 . S
C1349 C1346 1.348 . S
C1349 C1347 1.356 . S
H1350 C1344 0.930 . S
H1351 C1348 0.930 . S
C1352 C1354 1.348 . S
C1352 C1355 1.356 . S
C1352 O1382 1.325 . S
N1353 C1356 1.314 . S
N1353 C1357 1.279 . S
C1354 C1352 1.348 . S
C1354 C1356 1.353 . S
C1354 H1396 0.929 . S
C1355 C1352 1.356 . S
C1355 C1357 1.358 . S
C1355 H1397 0.930 . S
C1356 N1353 1.314 . S
C1356 C1354 1.353 . S
C1356 H1398 0.930 . S
C1357 N1353 1.279 . S
C1357 C1355 1.358 . S
C1357 H1399 0.930 . S
C1358 C1359 1.348 . S
C1358 C1360 1.356 . S
C1358 O1383 1.325 . S
C1359 C1358 1.348 . S
C1359 C1361 1.353 . S
C1359 H1400 0.929 . S
C1360 C1358 1.356 . S
C1360 C1362 1.358 . S
C1360 H1401 0.930 . S
C1361 C1359 1.353 . S
C1361 N1363 1.314 . S
C1361 H1402 0.930 . S
C1362 C1360 1.358 . S
C1362 N1363 1.279 . S
C1362 H1403 0.930 . S
N1363 C1361 1.314 . S
N1363 C1362 1.279 . S
C1364 C1366 1.353 . S
C1364 N1367 1.314 . S
C1364 H1370 0.930 . S
C1365 N1367 1.279 . S
C1365 C1368 1.358 . S
C1365 H1371 0.930 . S
C1366 C1364 1.353 . S
C1366 C1369 1.348 . S
C1366 H1404 0.929 . S
N1367 Li1322 1.990 . S
N1367 C1364 1.314 . S
N1367 C1365 1.279 . S
C1368 C1365 1.358 . S
C1368 C1369 1.356 . S
C1368 H1405 0.930 . S
C1369 C1366 1.348 . S
C1369 C1368 1.356 . S
H1370 C1364 0.930 . S
H1371 C1365 0.930 . S
C1372 N1373 1.314 . S
C1372 C1374 1.353 . S
C1372 H1378 0.930 . S
N1373 Li1323 1.990 . S
N1373 C1372 1.314 . S
N1373 C1376 1.279 . S
C1374 C1372 1.353 . S
C1374 C1377 1.348 . S
C1374 H1406 0.929 . S
C1375 C1376 1.358 . S
C1375 C1377 1.356 . S
C1375 H1407 0.930 . S
C1376 N1373 1.279 . S
C1376 C1375 1.358 . S
C1376 H1379 0.930 . S
C1377 C1374 1.348 . S
C1377 C1375 1.356 . S
H1378 C1372 0.930 . S
H1379 C1376 0.930 . S
O1380 Li1320 1.956 . S
O1380 Li1321 1.970 . S
O1380 Li1322 1.961 . S
O1380 C1324 1.325 . S
O1381 Li1320 1.970 . S
O1381 Li1321 1.956 . S
O1381 Li1323 1.961 . S
O1381 C1330 1.325 . S
O1382 Li1320 1.961 . S
O1382 Li1322 1.956 . S
O1382 Li1323 1.970 . S
O1382 C1352 1.325 . S
O1383 Li1321 1.961 . S
O1383 Li1322 1.970 . S
O1383 Li1323 1.956 . S
O1383 C1358 1.325 . S
H1384 C1326 0.929 . S
H1385 C1327 0.930 . S
H1386 C1328 0.930 . S
H1387 C1329 0.930 . S
H1388 C1331 0.930 . S
H1389 C1333 0.929 . S
H1390 C1334 0.930 . S
H1391 C1335 0.930 . S
H1392 C1338 0.930 . S
H1393 C1341 0.929 . S
H1394 C1346 0.929 . S
H1395 C1347 0.930 . S
H1396 C1354 0.929 . S
H1397 C1355 0.930 . S
H1398 C1356 0.930 . S
H1399 C1357 0.930 . S
H1400 C1359 0.929 . S
H1401 C1360 0.930 . S
H1402 C1361 0.930 . S
H1403 C1362 0.930 . S
H1404 C1366 0.929 . S
H1405 C1368 0.930 . S
H1406 C1374 0.929 . S
H1407 C1375 0.930 . S
C1408 C1409 1.369 . S
C1408 C1410 1.419 . S
C1408 H1412 0.930 . S
C1409 C1408 1.369 . S
C1409 C1418 1.429 . S
C1410 C1408 1.419 . S
C1410 C1411 1.363 . S
C1410 H1413 0.929 . S
C1411 C1410 1.363 . S
C1411 C1417 1.428 . S
H1412 C1408 0.930 . S
H1413 C1410 0.929 . S
S1414 N1415 1.613 . S
S1414 N1416 1.610 . S
N1415 S1414 1.613 . S
N1415 C1418 1.350 . S
N1416 S1414 1.610 . S
N1416 C1417 1.351 . S
C1417 C1411 1.428 . S
C1417 N1416 1.351 . S
C1417 C1418 1.434 . S
C1418 C1409 1.429 . S
C1418 N1415 1.350 . S
C1418 C1417 1.434 . S
C1419 C1420 1.369 . S
C1419 C1421 1.419 . S
C1419 H1423 0.930 . S
C1420 C1419 1.369 . S
C1420 C1429 1.429 . S
C1421 C1419 1.419 . S
C1421 C1422 1.363 . S
C1421 H1424 0.929 . S
C1422 C1421 1.363 . S
C1422 C1428 1.428 . S
H1423 C1419 0.930 . S
H1424 C1421 0.929 . S
S1425 N1426 1.613 . S
S1425 N1427 1.610 . S
N1426 S1425 1.613 . S
N1426 C1429 1.350 . S
N1427 S1425 1.610 . S
N1427 C1428 1.351 . S
C1428 C1422 1.428 . S
C1428 N1427 1.351 . S
C1428 C1429 1.434 . S
C1429 C1420 1.429 . S
C1429 N1426 1.350 . S
C1429 C1428 1.434 . S
C1430 C1431 1.369 . S
C1430 C1432 1.419 . S
C1430 H1434 0.930 . S
C1431 C1430 1.369 . S
C1431 C1440 1.429 . S
C1432 C1430 1.419 . S
C1432 C1433 1.363 . S
C1432 H1435 0.929 . S
C1433 C1432 1.363 . S
C1433 C1439 1.428 . S
H1434 C1430 0.930 . S
H1435 C1432 0.929 . S
S1436 N1437 1.613 . S
S1436 N1438 1.610 . S
N1437 S1436 1.613 . S
N1437 C1440 1.350 . S
N1438 S1436 1.610 . S
N1438 C1439 1.351 . S
C1439 C1433 1.428 . S
C1439 N1438 1.351 . S
C1439 C1440 1.434 . S
C1440 C1431 1.429 . S
C1440 N1437 1.350 . S
C1440 C1439 1.434 . S
C1441 C1442 1.369 . S
C1441 C1443 1.419 1_455 S
C1441 H1445 0.930 . S
C1442 C1441 1.369 . S
C1442 C1451 1.429 . S
C1443 C1441 1.419 1_655 S
C1443 C1444 1.363 . S
C1443 H1446 0.929 . S
C1444 C1443 1.363 . S
C1444 C1450 1.428 . S
H1445 C1441 0.930 . S
H1446 C1443 0.929 . S
S1447 N1448 1.614 1_655 S
S1447 N1449 1.610 . S
N1448 S1447 1.614 1_455 S
N1448 C1451 1.350 . S
N1449 S1447 1.610 . S
N1449 C1450 1.351 . S
C1450 C1444 1.428 . S
C1450 N1449 1.351 . S
C1450 C1451 1.434 1_655 S
C1451 C1442 1.429 . S
C1451 N1448 1.350 . S
C1451 C1450 1.434 1_455 S
C1452 C1453 1.369 . S
C1452 C1454 1.419 . S
C1452 H1456 0.930 . S
C1453 C1452 1.369 . S
C1453 C1462 1.429 . S
C1454 C1452 1.419 . S
C1454 C1455 1.363 . S
C1454 H1457 0.929 . S
C1455 C1454 1.363 . S
C1455 C1461 1.428 . S
H1456 C1452 0.930 . S
H1457 C1454 0.929 . S
S1458 N1459 1.613 . S
S1458 N1460 1.610 . S
N1459 S1458 1.613 . S
N1459 C1462 1.350 . S
N1460 S1458 1.610 . S
N1460 C1461 1.351 . S
C1461 C1455 1.428 . S
C1461 N1460 1.351 . S
C1461 C1462 1.434 . S
C1462 C1453 1.429 . S
C1462 N1459 1.350 . S
C1462 C1461 1.434 . S
C1463 C1464 1.369 . S
C1463 C1465 1.419 1_655 S
C1463 H1467 0.930 . S
C1464 C1463 1.369 . S
C1464 C1473 1.429 . S
C1465 C1463 1.419 1_455 S
C1465 C1466 1.363 . S
C1465 H1468 0.929 . S
C1466 C1465 1.363 . S
C1466 C1472 1.428 . S
H1467 C1463 0.930 . S
H1468 C1465 0.929 . S
S1469 N1470 1.609 . S
S1469 N1471 1.614 1_655 S
N1470 S1469 1.609 . S
N1470 C1473 1.350 . S
N1471 S1469 1.614 1_455 S
N1471 C1472 1.351 . S
C1472 C1466 1.428 . S
C1472 N1471 1.351 . S
C1472 C1473 1.434 1_455 S
C1473 C1464 1.429 . S
C1473 N1470 1.350 . S
C1473 C1472 1.434 1_655 S
C1474 C1475 1.369 . S
C1474 C1476 1.419 . S
C1474 H1478 0.930 . S
C1475 C1474 1.369 . S
C1475 C1484 1.429 . S
C1476 C1474 1.419 . S
C1476 C1477 1.363 . S
C1476 H1479 0.929 . S
C1477 C1476 1.363 . S
C1477 C1483 1.428 . S
H1478 C1474 0.930 . S
H1479 C1476 0.929 . S
S1480 N1481 1.613 . S
S1480 N1482 1.610 . S
N1481 S1480 1.613 . S
N1481 C1484 1.350 . S
N1482 S1480 1.610 . S
N1482 C1483 1.351 . S
C1483 C1477 1.428 . S
C1483 N1482 1.351 . S
C1483 C1484 1.434 . S
C1484 C1475 1.429 . S
C1484 N1481 1.350 . S
C1484 C1483 1.434 . S
C1485 C1486 1.369 . S
C1485 C1487 1.419 . S
C1485 H1489 0.930 . S
C1486 C1485 1.369 . S
C1486 C1495 1.429 . S
C1487 C1485 1.419 . S
C1487 C1488 1.363 . S
C1487 H1490 0.929 . S
C1488 C1487 1.363 . S
C1488 C1494 1.428 . S
H1489 C1485 0.930 . S
H1490 C1487 0.929 . S
S1491 N1492 1.613 . S
S1491 N1493 1.610 . S
N1492 S1491 1.613 . S
N1492 C1495 1.350 . S
N1493 S1491 1.610 . S
N1493 C1494 1.351 . S
C1494 C1488 1.428 . S
C1494 N1493 1.351 . S
C1494 C1495 1.434 . S
C1495 C1486 1.429 . S
C1495 N1492 1.350 . S
C1495 C1494 1.434 . S
C1496 C1497 1.369 . S
C1496 C1498 1.419 . S
C1496 H1500 0.930 . S
C1497 C1496 1.369 . S
C1497 C1506 1.429 . S
C1498 C1496 1.419 . S
C1498 C1499 1.363 . S
C1498 H1501 0.929 . S
C1499 C1498 1.363 . S
C1499 C1505 1.428 . S
H1500 C1496 0.930 . S
H1501 C1498 0.929 . S
S1502 N1503 1.613 . S
S1502 N1504 1.610 . S
N1503 S1502 1.613 . S
N1503 C1506 1.350 . S
N1504 S1502 1.610 . S
N1504 C1505 1.351 . S
C1505 C1499 1.428 . S
C1505 N1504 1.351 . S
C1505 C1506 1.434 . S
C1506 C1497 1.429 . S
C1506 N1503 1.350 . S
C1506 C1505 1.434 . S
C1507 C1508 1.369 . S
C1507 C1509 1.419 . S
C1507 H1511 0.930 . S
C1508 C1507 1.369 . S
C1508 C1517 1.429 . S
C1509 C1507 1.419 . S
C1509 C1510 1.363 . S
C1509 H1512 0.929 . S
C1510 C1509 1.363 . S
C1510 C1516 1.428 . S
H1511 C1507 0.930 . S
H1512 C1509 0.929 . S
S1513 N1514 1.613 . S
S1513 N1515 1.610 . S
N1514 S1513 1.613 . S
N1514 C1517 1.350 . S
N1515 S1513 1.610 . S
N1515 C1516 1.351 . S
C1516 C1510 1.428 . S
C1516 N1515 1.351 . S
C1516 C1517 1.434 . S
C1517 C1508 1.429 . S
C1517 N1514 1.350 . S
C1517 C1516 1.434 . S
C1518 C1519 1.369 . S
C1518 C1520 1.419 . S
C1518 H1522 0.930 . S
C1519 C1518 1.369 . S
C1519 C1528 1.429 . S
C1520 C1518 1.419 . S
C1520 C1521 1.363 . S
C1520 H1523 0.929 . S
C1521 C1520 1.363 . S
C1521 C1527 1.428 . S
H1522 C1518 0.930 . S
H1523 C1520 0.929 . S
S1524 N1525 1.613 . S
S1524 N1526 1.610 . S
N1525 S1524 1.613 . S
N1525 C1528 1.350 . S
N1526 S1524 1.610 . S
N1526 C1527 1.351 . S
C1527 C1521 1.428 . S
C1527 N1526 1.351 . S
C1527 C1528 1.434 . S
C1528 C1519 1.429 . S
C1528 N1525 1.350 . S
C1528 C1527 1.434 . S
C1529 C1530 1.369 . S
C1529 C1531 1.419 . S
C1529 H1533 0.930 . S
C1530 C1529 1.369 . S
C1530 C1539 1.429 . S
C1531 C1529 1.419 . S
C1531 C1532 1.363 . S
C1531 H1534 0.929 . S
C1532 C1531 1.363 . S
C1532 C1538 1.428 . S
H1533 C1529 0.930 . S
H1534 C1531 0.929 . S
S1535 N1536 1.613 . S
S1535 N1537 1.610 . S
N1536 S1535 1.613 . S
N1536 C1539 1.350 . S
N1537 S1535 1.610 . S
N1537 C1538 1.351 . S
C1538 C1532 1.428 . S
C1538 N1537 1.351 . S
C1538 C1539 1.434 . S
C1539 C1530 1.429 . S
C1539 N1536 1.350 . S
C1539 C1538 1.434 . S
C1540 C1541 1.369 . S
C1540 C1542 1.419 1_455 S
C1540 H1544 0.930 . S
C1541 C1540 1.369 . S
C1541 C1550 1.429 . S
C1542 C1540 1.419 1_655 S
C1542 C1543 1.363 . S
C1542 H1545 0.929 . S
C1543 C1542 1.363 . S
C1543 C1549 1.428 . S
H1544 C1540 0.930 . S
H1545 C1542 0.929 . S
S1546 N1547 1.614 . S
S1546 N1548 1.610 1_455 S
N1547 S1546 1.614 . S
N1547 C1550 1.350 . S
N1548 S1546 1.610 1_655 S
N1548 C1549 1.351 . S
C1549 C1543 1.428 . S
C1549 N1548 1.351 . S
C1549 C1550 1.434 1_655 S
C1550 C1541 1.429 . S
C1550 N1547 1.350 . S
C1550 C1549 1.434 1_455 S
C1551 C1552 1.369 . S
C1551 C1553 1.419 . S
C1551 H1555 0.930 . S
C1552 C1551 1.369 . S
C1552 C1561 1.429 . S
C1553 C1551 1.419 . S
C1553 C1554 1.363 . S
C1553 H1556 0.929 . S
C1554 C1553 1.363 . S
C1554 C1560 1.428 . S
H1555 C1551 0.930 . S
H1556 C1553 0.929 . S
S1557 N1558 1.613 . S
S1557 N1559 1.610 . S
N1558 S1557 1.613 . S
N1558 C1561 1.350 . S
N1559 S1557 1.610 . S
N1559 C1560 1.351 . S
C1560 C1554 1.428 . S
C1560 N1559 1.351 . S
C1560 C1561 1.434 . S
C1561 C1552 1.429 . S
C1561 N1558 1.350 . S
C1561 C1560 1.434 . S
C1562 C1563 1.369 . S
C1562 C1564 1.419 . S
C1562 H1566 0.930 . S
C1563 C1562 1.369 . S
C1563 C1572 1.429 . S
C1564 C1562 1.419 . S
C1564 C1565 1.363 . S
C1564 H1567 0.929 . S
C1565 C1564 1.363 . S
C1565 C1571 1.428 . S
H1566 C1562 0.930 . S
H1567 C1564 0.929 . S
S1568 N1569 1.613 . S
S1568 N1570 1.610 . S
N1569 S1568 1.613 . S
N1569 C1572 1.350 . S
N1570 S1568 1.610 . S
N1570 C1571 1.351 . S
C1571 C1565 1.428 . S
C1571 N1570 1.351 . S
C1571 C1572 1.434 . S
C1572 C1563 1.429 . S
C1572 N1569 1.350 . S
C1572 C1571 1.434 . S
C1573 C1574 1.369 . S
C1573 C1575 1.419 1_455 S
C1573 H1577 0.930 . S
C1574 C1573 1.369 . S
C1574 C1583 1.429 . S
C1575 C1573 1.419 1_655 S
C1575 C1576 1.363 . S
C1575 H1578 0.929 . S
C1576 C1575 1.363 . S
C1576 C1582 1.428 . S
H1577 C1573 0.930 . S
H1578 C1575 0.929 . S
S1579 N1580 1.609 . S
S1579 N1581 1.614 1_455 S
N1580 S1579 1.609 . S
N1580 C1583 1.350 . S
N1581 S1579 1.614 1_655 S
N1581 C1582 1.351 . S
C1582 C1576 1.428 . S
C1582 N1581 1.351 . S
C1582 C1583 1.434 1_655 S
C1583 C1574 1.429 . S
C1583 N1580 1.350 . S
C1583 C1582 1.434 1_455 S
C1584 C1585 1.369 . S
C1584 C1586 1.419 1_554 S
C1584 H1588 0.930 . S
C1585 C1584 1.369 . S
C1585 C1594 1.429 . S
C1586 C1584 1.419 1_556 S
C1586 C1587 1.363 . S
C1586 H1589 0.929 . S
C1587 C1586 1.363 . S
C1587 C1593 1.428 . S
H1588 C1584 0.930 . S
H1589 C1586 0.929 . S
S1590 N1591 1.613 . S
S1590 N1592 1.610 1_554 S
N1591 S1590 1.613 . S
N1591 C1594 1.350 . S
N1592 S1590 1.610 1_556 S
N1592 C1593 1.351 . S
C1593 C1587 1.428 . S
C1593 N1592 1.351 . S
C1593 C1594 1.434 1_556 S
C1594 C1585 1.429 . S
C1594 N1591 1.350 . S
C1594 C1593 1.434 1_554 S
C1595 C1596 1.369 . S
C1595 C1597 1.419 . S
C1595 H1599 0.930 . S
C1596 C1595 1.369 . S
C1596 C1605 1.429 . S
C1597 C1595 1.419 . S
C1597 C1598 1.363 . S
C1597 H1600 0.929 . S
C1598 C1597 1.363 . S
C1598 C1604 1.428 . S
H1599 C1595 0.930 . S
H1600 C1597 0.929 . S
S1601 N1602 1.613 . S
S1601 N1603 1.610 . S
N1602 S1601 1.613 . S
N1602 C1605 1.350 . S
N1603 S1601 1.610 . S
N1603 C1604 1.351 . S
C1604 C1598 1.428 . S
C1604 N1603 1.351 . S
C1604 C1605 1.434 . S
C1605 C1596 1.429 . S
C1605 N1602 1.350 . S
C1605 C1604 1.434 . S
C1606 C1607 1.369 . S
C1606 C1608 1.419 . S
C1606 H1610 0.930 . S
C1607 C1606 1.369 . S
C1607 C1616 1.429 . S
C1608 C1606 1.419 . S
C1608 C1609 1.363 . S
C1608 H1611 0.929 . S
C1609 C1608 1.363 . S
C1609 C1615 1.428 . S
H1610 C1606 0.930 . S
H1611 C1608 0.929 . S
S1612 N1613 1.613 . S
S1612 N1614 1.610 . S
N1613 S1612 1.613 . S
N1613 C1616 1.350 . S
N1614 S1612 1.610 . S
N1614 C1615 1.351 . S
C1615 C1609 1.428 . S
C1615 N1614 1.351 . S
C1615 C1616 1.434 . S
C1616 C1607 1.429 . S
C1616 N1613 1.350 . S
C1616 C1615 1.434 . S
C1617 C1618 1.369 . S
C1617 C1619 1.419 . S
C1617 H1621 0.930 . S
C1618 C1617 1.369 . S
C1618 C1627 1.429 . S
C1619 C1617 1.419 . S
C1619 C1620 1.363 . S
C1619 H1622 0.929 . S
C1620 C1619 1.363 . S
C1620 C1626 1.428 . S
H1621 C1617 0.930 . S
H1622 C1619 0.929 . S
S1623 N1624 1.613 1_565 S
S1623 N1625 1.610 1_565 S
N1624 S1623 1.613 1_545 S
N1624 C1627 1.350 . S
N1625 S1623 1.610 1_545 S
N1625 C1626 1.351 . S
C1626 C1620 1.428 . S
C1626 N1625 1.351 . S
C1626 C1627 1.434 . S
C1627 C1618 1.429 . S
C1627 N1624 1.350 . S
C1627 C1626 1.434 . S
C1628 C1629 1.369 . S
C1628 C1630 1.419 1_556 S
C1628 H1632 0.930 . S
C1629 C1628 1.369 . S
C1629 C1638 1.429 . S
C1630 C1628 1.419 1_554 S
C1630 C1631 1.363 . S
C1630 H1633 0.929 . S
C1631 C1630 1.363 . S
C1631 C1637 1.428 . S
H1632 C1628 0.930 . S
H1633 C1630 0.929 . S
S1634 N1635 1.613 1_554 S
S1634 N1636 1.610 . S
N1635 S1634 1.613 1_556 S
N1635 C1638 1.350 . S
N1636 S1634 1.610 . S
N1636 C1637 1.351 . S
C1637 C1631 1.428 . S
C1637 N1636 1.351 . S
C1637 C1638 1.434 1_554 S
C1638 C1629 1.429 . S
C1638 N1635 1.350 . S
C1638 C1637 1.434 1_556 S
C1639 C1640 1.369 . S
C1639 C1641 1.419 . S
C1639 H1643 0.930 . S
C1640 C1639 1.369 . S
C1640 C1649 1.429 . S
C1641 C1639 1.419 . S
C1641 C1642 1.363 . S
C1641 H1644 0.929 . S
C1642 C1641 1.363 . S
C1642 C1648 1.428 . S
H1643 C1639 0.930 . S
H1644 C1641 0.929 . S
S1645 N1646 1.613 1_565 S
S1645 N1647 1.610 1_565 S
N1646 S1645 1.613 1_545 S
N1646 C1649 1.350 . S
N1647 S1645 1.610 1_545 S
N1647 C1648 1.351 . S
C1648 C1642 1.428 . S
C1648 N1647 1.351 . S
C1648 C1649 1.434 . S
C1649 C1640 1.429 . S
C1649 N1646 1.350 . S
C1649 C1648 1.434 . S
C1650 C1651 1.369 . S
C1650 C1652 1.419 . S
C1650 H1654 0.930 . S
C1651 C1650 1.369 . S
C1651 C1660 1.429 . S
C1652 C1650 1.419 . S
C1652 C1653 1.363 . S
C1652 H1655 0.929 . S
C1653 C1652 1.363 . S
C1653 C1659 1.428 . S
H1654 C1650 0.930 . S
H1655 C1652 0.929 . S
S1656 N1657 1.613 . S
S1656 N1658 1.610 . S
N1657 S1656 1.613 . S
N1657 C1660 1.350 . S
N1658 S1656 1.610 . S
N1658 C1659 1.351 . S
C1659 C1653 1.428 . S
C1659 N1658 1.351 . S
C1659 C1660 1.434 . S
C1660 C1651 1.429 . S
C1660 N1657 1.350 . S
C1660 C1659 1.434 . S
C1661 C1662 1.369 . S
C1661 C1663 1.419 . S
C1661 H1665 0.930 . S
C1662 C1661 1.369 . S
C1662 C1671 1.429 . S
C1663 C1661 1.419 . S
C1663 C1664 1.363 . S
C1663 H1666 0.929 . S
C1664 C1663 1.363 . S
C1664 C1670 1.428 . S
H1665 C1661 0.930 . S
H1666 C1663 0.929 . S
S1667 N1668 1.613 1_545 S
S1667 N1669 1.610 1_545 S
N1668 S1667 1.613 1_565 S
N1668 C1671 1.350 . S
N1669 S1667 1.610 1_565 S
N1669 C1670 1.351 . S
C1670 C1664 1.428 . S
C1670 N1669 1.351 . S
C1670 C1671 1.434 . S
C1671 C1662 1.429 . S
C1671 N1668 1.350 . S
C1671 C1670 1.434 . S
C1672 C1673 1.369 . S
C1672 C1674 1.419 1_545 S
C1672 H1676 0.930 . S
C1673 C1672 1.369 . S
C1673 C1682 1.429 . S
C1674 C1672 1.419 1_565 S
C1674 C1675 1.363 . S
C1674 H1677 0.929 . S
C1675 C1674 1.363 . S
C1675 C1681 1.428 . S
H1676 C1672 0.930 . S
H1677 C1674 0.929 . S
S1678 N1679 1.613 . S
S1678 N1680 1.610 1_545 S
N1679 S1678 1.613 . S
N1679 C1682 1.350 . S
N1680 S1678 1.610 1_565 S
N1680 C1681 1.351 . S
C1681 C1675 1.428 . S
C1681 N1680 1.351 . S
C1681 C1682 1.434 1_565 S
C1682 C1673 1.429 . S
C1682 N1679 1.350 . S
C1682 C1681 1.434 1_545 S
C1683 C1684 1.369 . S
C1683 C1685 1.419 . S
C1683 H1687 0.930 . S
C1684 C1683 1.369 . S
C1684 C1693 1.429 . S
C1685 C1683 1.419 . S
C1685 C1686 1.363 . S
C1685 H1688 0.929 . S
C1686 C1685 1.363 . S
C1686 C1692 1.428 . S
H1687 C1683 0.930 . S
H1688 C1685 0.929 . S
S1689 N1690 1.613 . S
S1689 N1691 1.610 . S
N1690 S1689 1.613 . S
N1690 C1693 1.350 . S
N1691 S1689 1.610 . S
N1691 C1692 1.351 . S
C1692 C1686 1.428 . S
C1692 N1691 1.351 . S
C1692 C1693 1.434 . S
C1693 C1684 1.429 . S
C1693 N1690 1.350 . S
C1693 C1692 1.434 . S
C1694 C1695 1.369 . S
C1694 C1696 1.413 1_546 S
C1694 H1698 0.930 . S
C1695 C1694 1.369 . S
C1695 C1704 1.413 1_545 S
C1696 C1694 1.413 1_564 S
C1696 C1697 1.369 . S
C1696 H1699 0.929 . S
C1697 C1696 1.369 . S
C1697 C1703 1.428 . S
H1698 C1694 0.930 . S
H1699 C1696 0.929 . S
S1700 N1701 1.613 . S
S1700 N1702 1.610 1_556 S
N1701 S1700 1.613 . S
N1701 C1704 1.355 . S
N1702 S1700 1.610 1_554 S
N1702 C1703 1.351 . S
C1703 C1697 1.428 . S
C1703 N1702 1.351 . S
C1703 C1704 1.450 1_554 S
C1704 C1695 1.413 1_565 S
C1704 N1701 1.355 . S
C1704 C1703 1.450 1_556 S
C1705 C1706 1.369 . S
C1705 C1707 1.419 . S
C1705 H1709 0.930 . S
C1706 C1705 1.369 . S
C1706 C1715 1.429 . S
C1707 C1705 1.419 . S
C1707 C1708 1.363 . S
C1707 H1710 0.929 . S
C1708 C1707 1.363 . S
C1708 C1714 1.428 . S
H1709 C1705 0.930 . S
H1710 C1707 0.929 . S
S1711 N1712 1.613 . S
S1711 N1713 1.610 . S
N1712 S1711 1.613 . S
N1712 C1715 1.350 . S
N1713 S1711 1.610 . S
N1713 C1714 1.351 . S
C1714 C1708 1.428 . S
C1714 N1713 1.351 . S
C1714 C1715 1.434 . S
C1715 C1706 1.429 . S
C1715 N1712 1.350 . S
C1715 C1714 1.434 . S
C1716 C1717 1.369 . S
C1716 C1718 1.418 1_545 S
C1716 H1720 0.930 1_545 S
C1717 C1716 1.369 . S
C1717 C1726 1.429 . S
C1718 C1716 1.418 1_565 S
C1718 C1719 1.363 . S
C1718 H1721 0.929 . S
C1719 C1718 1.363 . S
C1719 C1725 1.427 . S
H1720 C1716 0.930 1_565 S
H1721 C1718 0.929 . S
S1722 N1723 1.613 . S
S1722 N1724 1.626 . S
N1723 S1722 1.613 . S
N1723 C1726 1.350 . S
N1724 S1722 1.626 . S
N1724 C1725 1.350 1_545 S
C1725 C1719 1.427 . S
C1725 N1724 1.350 1_565 S
C1725 C1726 1.435 1_565 S
C1726 C1717 1.429 . S
C1726 N1723 1.350 . S
C1726 C1725 1.435 1_545 S
C1727 C1728 1.369 . S
C1727 C1729 1.419 . S
C1727 H1731 0.930 . S
C1728 C1727 1.369 . S
C1728 C1737 1.429 . S
C1729 C1727 1.419 . S
C1729 C1730 1.363 . S
C1729 H1732 0.929 . S
C1730 C1729 1.363 . S
C1730 C1736 1.428 . S
H1731 C1727 0.930 . S
H1732 C1729 0.929 . S
S1733 N1734 1.613 . S
S1733 N1735 1.610 . S
N1734 S1733 1.613 . S
N1734 C1737 1.350 . S
N1735 S1733 1.610 . S
N1735 C1736 1.351 . S
C1736 C1730 1.428 . S
C1736 N1735 1.351 . S
C1736 C1737 1.434 . S
C1737 C1728 1.429 . S
C1737 N1734 1.350 . S
C1737 C1736 1.434 . S
C1738 C1739 1.369 1_545 S
C1738 C1740 1.419 1_554 S
C1738 H1742 0.930 . S
C1739 C1738 1.369 1_565 S
C1739 C1748 1.429 . S
C1740 C1738 1.419 1_556 S
C1740 C1741 1.363 . S
C1740 H1743 0.929 . S
C1741 C1740 1.363 . S
C1741 C1747 1.428 1_545 S
H1742 C1738 0.930 . S
H1743 C1740 0.929 . S
S1744 N1745 1.571 1_556 S
S1744 N1746 1.610 . S
N1745 S1744 1.571 1_554 S
N1745 C1748 1.352 . S
N1746 S1744 1.610 . S
N1746 C1747 1.351 . S
C1747 C1741 1.428 1_565 S
C1747 N1746 1.351 . S
C1747 C1748 1.434 1_556 S
C1748 C1739 1.429 . S
C1748 N1745 1.352 . S
C1748 C1747 1.434 1_554 S
C1749 C1750 1.369 . S
C1749 C1751 1.419 . S
C1749 H1753 0.930 . S
C1750 C1749 1.369 . S
C1750 C1759 1.429 . S
C1751 C1749 1.419 . S
C1751 C1752 1.363 . S
C1751 H1754 0.929 . S
C1752 C1751 1.363 . S
C1752 C1758 1.428 . S
H1753 C1749 0.930 . S
H1754 C1751 0.929 . S
S1755 N1756 1.613 . S
S1755 N1757 1.610 . S
N1756 S1755 1.613 . S
N1756 C1759 1.350 . S
N1757 S1755 1.610 . S
N1757 C1758 1.351 . S
C1758 C1752 1.428 . S
C1758 N1757 1.351 . S
C1758 C1759 1.434 . S
C1759 C1750 1.429 . S
C1759 N1756 1.350 . S
C1759 C1758 1.434 . S
C1409 C1017 1.513 . S
C1411 C20 1.514 . S
C1420 C1369 1.513 . S
C1422 C108 1.514 . S
C1431 C225 1.517 . S
C1433 C812 1.516 . S
C1442 C1164 1.513 . S
C1444 C321 1.514 . S
C1453 C409 1.516 . S
C1455 C1173 1.515 . S
C1464 C469 1.517 . S
C1466 C1025 1.516 . S
C1475 C548 1.514 . S
C1477 C1377 1.514 . S
C1486 C673 1.514 . S
C1488 C821 1.514 . S
C1497 C284 1.515 . S
C1499 C761 1.514 . S
C1508 C900 1.513 . S
C1510 C145 1.514 . S
C1519 C1076 1.514 . S
C1521 C489 1.515 . S
C1530 C1281 1.513 . S
C1532 C636 1.514 . S
C1541 C372 1.514 . S
C1543 C753 1.514 . S
C1552 C909 1.515 . S
C1554 C585 1.516 . S
C1563 C1289 1.516 . S
C1565 C205 1.517 . S
C1574 C57 1.517 . S
C1576 C1085 1.516 . S
C1585 C49 1.105 . S
C1587 C381 1.103 . S
C1596 C137 1.098 . S
C1598 C497 1.098 . S
C1607 C196 1.100 . S
C1609 C577 1.098 . S
C1618 C645 1.102 . S
C1620 C293 1.104 . S
C1629 C733 1.101 . S
C1631 C1105 1.104 . S
C1640 C1193 1.106 . S
C1642 C849 1.106 . S
C1651 C929 1.101 . S
C1653 C1252 1.105 . S
C1662 C1340 1.106 . S
C1664 C997 1.106 . S
C1673 C665 1.103 . S
C1675 C117 1.104 . S
C1684 C233 1.103 . S
C1686 C401 1.104 . S
C1695 C313 1.100 . S
C1697 C460 1.098 . S
C1706 C29 1.097 . S
C1708 C557 1.099 . S
C1717 C841 1.107 . S
C1719 C1349 1.106 . S
C1728 C1113 1.105 . S
C1730 C937 1.106 . S
C1739 C988 1.103 . S
C1741 C1201 1.105 . S
C1750 C1261 1.104 . S
C1752 C724 1.101 . S
