# Generated by pormake.
# Topology wkp, (6)-cn, num edge types: 1
# Building blocks:
#     Node 0, Type 0, BuildingBlock: OJICUG_clean_sbu_0, # of connection points: 6
#     Node 1, Type 0, BuildingBlock: OJICUG_clean_sbu_0, # of connection points: 6
#     Node 2, Type 0, BuildingBlock: OJICUG_clean_sbu_0, # of connection points: 6
#     Node 3, Type 0, BuildingBlock: OJICUG_clean_sbu_0, # of connection points: 6
#     Node 4, Type 0, BuildingBlock: OJICUG_clean_sbu_0, # of connection points: 6
#     Node 5, Type 0, BuildingBlock: OJICUG_clean_sbu_0, # of connection points: 6
#     Node 6, Type 0, BuildingBlock: OJICUG_clean_sbu_0, # of connection points: 6
#     Node 7, Type 0, BuildingBlock: OJICUG_clean_sbu_0, # of connection points: 6
#     Node 8, Type 0, BuildingBlock: OJICUG_clean_sbu_0, # of connection points: 6
#     Node 9, Type 0, BuildingBlock: OJICUG_clean_sbu_0, # of connection points: 6
#     Node 10, Type 0, BuildingBlock: OJICUG_clean_sbu_0, # of connection points: 6
#     Node 11, Type 0, BuildingBlock: OJICUG_clean_sbu_0, # of connection points: 6
#     Edge 12, Type (0, 0), BuildingBlock: AJUNOK_clean_linker_0, # of connection points: 2
#     Edge 13, Type (0, 0), BuildingBlock: AJUNOK_clean_linker_0, # of connection points: 2
#     Edge 14, Type (0, 0), BuildingBlock: AJUNOK_clean_linker_0, # of connection points: 2
#     Edge 15, Type (0, 0), BuildingBlock: AJUNOK_clean_linker_0, # of connection points: 2
#     Edge 16, Type (0, 0), BuildingBlock: AJUNOK_clean_linker_0, # of connection points: 2
#     Edge 17, Type (0, 0), BuildingBlock: AJUNOK_clean_linker_0, # of connection points: 2
#     Edge 18, Type (0, 0), BuildingBlock: AJUNOK_clean_linker_0, # of connection points: 2
#     Edge 19, Type (0, 0), BuildingBlock: AJUNOK_clean_linker_0, # of connection points: 2
#     Edge 20, Type (0, 0), BuildingBlock: AJUNOK_clean_linker_0, # of connection points: 2
#     Edge 21, Type (0, 0), BuildingBlock: AJUNOK_clean_linker_0, # of connection points: 2
#     Edge 22, Type (0, 0), BuildingBlock: AJUNOK_clean_linker_0, # of connection points: 2
#     Edge 23, Type (0, 0), BuildingBlock: AJUNOK_clean_linker_0, # of connection points: 2
#     Edge 24, Type (0, 0), BuildingBlock: AJUNOK_clean_linker_0, # of connection points: 2
#     Edge 25, Type (0, 0), BuildingBlock: AJUNOK_clean_linker_0, # of connection points: 2
#     Edge 26, Type (0, 0), BuildingBlock: AJUNOK_clean_linker_0, # of connection points: 2
#     Edge 27, Type (0, 0), BuildingBlock: AJUNOK_clean_linker_0, # of connection points: 2
#     Edge 28, Type (0, 0), BuildingBlock: AJUNOK_clean_linker_0, # of connection points: 2
#     Edge 29, Type (0, 0), BuildingBlock: AJUNOK_clean_linker_0, # of connection points: 2
#     Edge 30, Type (0, 0), BuildingBlock: AJUNOK_clean_linker_0, # of connection points: 2
#     Edge 31, Type (0, 0), BuildingBlock: AJUNOK_clean_linker_0, # of connection points: 2
#     Edge 32, Type (0, 0), BuildingBlock: AJUNOK_clean_linker_0, # of connection points: 2
#     Edge 33, Type (0, 0), BuildingBlock: AJUNOK_clean_linker_0, # of connection points: 2
#     Edge 34, Type (0, 0), BuildingBlock: AJUNOK_clean_linker_0, # of connection points: 2
#     Edge 35, Type (0, 0), BuildingBlock: AJUNOK_clean_linker_0, # of connection points: 2
#     Edge 36, Type (0, 0), BuildingBlock: AJUNOK_clean_linker_0, # of connection points: 2
#     Edge 37, Type (0, 0), BuildingBlock: AJUNOK_clean_linker_0, # of connection points: 2
#     Edge 38, Type (0, 0), BuildingBlock: AJUNOK_clean_linker_0, # of connection points: 2
#     Edge 39, Type (0, 0), BuildingBlock: AJUNOK_clean_linker_0, # of connection points: 2
#     Edge 40, Type (0, 0), BuildingBlock: AJUNOK_clean_linker_0, # of connection points: 2
#     Edge 41, Type (0, 0), BuildingBlock: AJUNOK_clean_linker_0, # of connection points: 2
#     Edge 42, Type (0, 0), BuildingBlock: AJUNOK_clean_linker_0, # of connection points: 2
#     Edge 43, Type (0, 0), BuildingBlock: AJUNOK_clean_linker_0, # of connection points: 2
#     Edge 44, Type (0, 0), BuildingBlock: AJUNOK_clean_linker_0, # of connection points: 2
#     Edge 45, Type (0, 0), BuildingBlock: AJUNOK_clean_linker_0, # of connection points: 2
#     Edge 46, Type (0, 0), BuildingBlock: AJUNOK_clean_linker_0, # of connection points: 2
#     Edge 47, Type (0, 0), BuildingBlock: AJUNOK_clean_linker_0, # of connection points: 2
# Relax obj value: 0.288
# Max RMSD: 0.309
# Mean RMSD: 0.309
data_MOF--net-wkp--node1-OJICUG_clean_sbu_0--edge1-AJUNOK_clean_linker_0
_symmetry_space_group_name_H-M    P1
_symmetry_Int_Tables_number       1
_symmetry_cell_setting            triclinic
loop_
_symmetry_equiv_pos_as_xyz
'x, y, z'
_cell_length_a     33.258485
_cell_length_b     33.234139
_cell_length_c     22.93298
_cell_angle_alpha  90.05009
_cell_angle_beta   90.023985
_cell_angle_gamma 119.94871
loop_
_atom_site_label
_atom_site_type_symbol
_atom_site_fract_x
_atom_site_fract_y
_atom_site_fract_z
_atom_type_partial_charge
Sc0 Sc 0.21089 0.4452 0.01734 0.0
Sc1 Sc 0.18327 0.33036 1.00009 0.0
Sc2 Sc 0.28371 0.40745 0.07451 0.0
O3 O 0.22595 0.39439 0.03104 0.0
C4 C 0.32067 0.49824 1.00041 0.0
C5 C 0.18393 0.39477 0.89659 0.0
C6 C 0.27786 0.33887 0.97117 0.0
C7 C 0.11193 0.35709 0.04536 0.0
C8 C 0.24416 0.46253 0.1481 0.0
C9 C 0.21856 0.30798 0.1198 0.0
O10 O 0.28213 0.49744 1.00344 0.0
O11 O 0.16679 0.3555 0.92177 0.0
O12 O 0.29727 0.36309 0.01673 0.0
O13 O 0.13733 0.39924 0.03008 0.0
O14 O 0.27483 0.45084 0.13877 0.0
O15 O 0.1965 0.29529 0.0717 0.0
O16 O 0.21562 0.45961 0.10907 0.0
O17 O 0.1255 0.32745 0.04478 0.0
O18 O 0.24552 0.35032 0.13256 0.0
O19 O 0.20594 0.4328 0.92449 0.0
O20 O 0.32632 0.46544 0.01912 0.0
O21 O 0.23856 0.33109 0.95337 0.0
Sc22 Sc 0.86491 0.28747 0.24182 0.0
Sc23 Sc 0.84309 0.18852 0.1648 0.0
Sc24 Sc 0.75444 0.21359 0.18545 0.0
O25 O 0.82075 0.22983 0.19797 0.0
C26 C 0.77059 0.24573 0.31634 0.0
C27 C 0.90305 0.22432 0.28264 0.0
C28 C 0.74659 0.11541 0.21176 0.0
C29 C 0.92666 0.28481 0.13524 0.0
C30 C 0.80878 0.32348 0.16993 0.0
C31 C 0.77875 0.18963 0.06359 0.0
O32 O 0.81294 0.27634 0.30731 0.0
O33 O 0.89294 0.20251 0.23436 0.0
O34 O 0.72877 0.14007 0.19705 0.0
O35 O 0.92192 0.30308 0.18193 0.0
O36 O 0.7715 0.28455 0.17253 0.0
O37 O 0.80007 0.1712 0.08774 0.0
O38 O 0.84738 0.32963 0.18869 0.0
O39 O 0.89605 0.24494 0.11761 0.0
O40 O 0.76208 0.21032 0.09288 0.0
O41 O 0.88653 0.24993 0.29755 0.0
O42 O 0.74489 0.21743 0.27717 0.0
O43 O 0.79 0.13016 0.21046 0.0
Sc44 Sc 0.52105 0.76003 0.35623 0.0
Sc45 Sc 0.63734 0.84324 0.33757 0.0
Sc46 Sc 0.56379 0.87209 0.41095 0.0
O47 O 0.57406 0.82502 0.36881 0.0
C48 C 0.47289 0.821 0.33545 0.0
C49 C 0.57103 0.78076 0.23548 0.0
C50 C 0.63229 0.931 0.30607 0.0
C51 C 0.60654 0.74491 0.38577 0.0
C52 C 0.5055 0.77915 0.48624 0.0
C53 C 0.66293 0.9039 0.45517 0.0
O54 O 0.4712 0.78207 0.33993 0.0
O55 O 0.61052 0.80064 0.26035 0.0
O56 O 0.60883 0.92784 0.35167 0.0
O57 O 0.56452 0.72968 0.37084 0.0
O58 O 0.51972 0.82195 0.47613 0.0
O59 O 0.67434 0.89239 0.40768 0.0
O60 O 0.50623 0.75195 0.44776 0.0
O61 O 0.63772 0.78756 0.38375 0.0
O62 O 0.62099 0.88985 0.46864 0.0
O63 O 0.53352 0.76614 0.26385 0.0
O64 O 0.50633 0.85839 0.35554 0.0
O65 O 0.639 0.89848 0.28927 0.0
Sc66 Sc 0.67808 0.56764 0.58128 0.0
Sc67 Sc 0.77616 0.64597 0.50292 0.0
Sc68 Sc 0.75117 0.53125 0.51967 0.0
O69 O 0.7352 0.58163 0.53512 0.0
C70 C 0.72065 0.51409 0.6522 0.0
C71 C 0.74228 0.66941 0.62299 0.0
C72 C 0.84987 0.62081 0.54682 0.0
C73 C 0.67789 0.63197 0.47671 0.0
C74 C 0.64132 0.47673 0.50447 0.0
C75 C 0.77497 0.58201 0.39845 0.0
O76 O 0.69165 0.52832 0.64613 0.0
O77 O 0.76501 0.68132 0.57548 0.0
O78 O 0.82436 0.578 0.53429 0.0
O79 O 0.6598 0.60726 0.52215 0.0
O80 O 0.68041 0.47864 0.50285 0.0
O81 O 0.79034 0.62142 0.42271 0.0
O82 O 0.63535 0.50744 0.52941 0.0
O83 O 0.71886 0.64452 0.46005 0.0
O84 O 0.75646 0.54447 0.42739 0.0
O85 O 0.71507 0.6273 0.63649 0.0
O86 O 0.74611 0.51448 0.61065 0.0
O87 O 0.83605 0.65023 0.54389 0.0
Sc88 Sc 0.20759 0.75614 0.68583 0.0
Sc89 Sc 0.12234 0.78705 0.66903 0.0
Sc90 Sc 0.09671 0.68587 0.74377 0.0
O91 O 0.14225 0.74301 0.69988 0.0
C92 C 0.14834 0.6465 0.6678 0.0
C93 C 0.18538 0.78498 0.56546 0.0
C94 C 0.03514 0.69256 0.63954 0.0
C95 C 0.22132 0.85633 0.71475 0.0
C96 C 0.19101 0.72358 0.81748 0.0
C97 C 0.06398 0.753 0.78802 0.0
O98 O 0.18661 0.68458 0.66949 0.0
O99 O 0.16319 0.80204 0.59061 0.0
O100 O 0.03981 0.67269 0.68468 0.0
O101 O 0.23691 0.82972 0.70035 0.0
O102 O 0.14806 0.69463 0.80901 0.0
O103 O 0.07463 0.77563 0.74042 0.0
O104 O 0.21717 0.75017 0.77741 0.0
O105 O 0.17854 0.84438 0.71305 0.0
O106 O 0.07794 0.72489 0.80081 0.0
O107 O 0.20105 0.76262 0.59319 0.0
O108 O 0.11124 0.64189 0.68973 0.0
O109 O 0.06636 0.73244 0.6229 0.0
Sc110 Sc 0.40244 0.10397 0.90965 0.0
Sc111 Sc 0.32372 0.12554 0.83476 0.0
Sc112 Sc 0.43834 0.21461 0.85289 0.0
O113 O 0.38812 0.14802 0.86617 0.0
C114 C 0.45571 0.19857 0.98381 0.0
C115 C 0.30139 0.06815 0.95438 0.0
C116 C 0.34921 0.22413 0.88024 0.0
C117 C 0.33616 0.04063 0.80555 0.0
C118 C 0.49372 0.16011 0.83568 0.0
C119 C 0.38822 0.18904 0.73121 0.0
O120 O 0.44279 0.15584 0.97525 0.0
O121 O 0.28887 0.07926 0.90751 0.0
O122 O 0.39187 0.24141 0.86739 0.0
O123 O 0.36181 0.04684 0.84993 0.0
O124 O 0.49147 0.19712 0.83685 0.0
O125 O 0.34869 0.16489 0.75503 0.0
O126 O 0.46215 0.12189 0.85641 0.0
O127 O 0.32374 0.06949 0.79037 0.0
O128 O 0.42567 0.20777 0.76046 0.0
O129 O 0.34346 0.08112 0.96596 0.0
O130 O 0.45386 0.22432 0.9442 0.0
O131 O 0.31998 0.18094 0.87715 0.0
Sc132 Sc 0.56088 0.68834 0.79844 0.0
Sc133 Sc 0.63864 0.78601 0.87773 0.0
Sc134 Sc 0.52444 0.76111 0.8588 0.0
O135 O 0.57473 0.74531 0.84456 0.0
C136 C 0.50686 0.73014 0.72738 0.0
C137 C 0.66128 0.75335 0.75596 0.0
C138 C 0.61377 0.85993 0.83469 0.0
C139 C 0.62788 0.68935 0.9005 0.0
C140 C 0.47065 0.65136 0.87462 0.0
C141 C 0.57323 0.78313 0.98097 0.0
O142 O 0.51848 0.6993 0.73532 0.0
O143 O 0.67357 0.77436 0.80481 0.0
O144 O 0.57109 0.83439 0.84723 0.0
O145 O 0.60375 0.67215 0.85443 0.0
O146 O 0.4718 0.69007 0.87202 0.0
O147 O 0.61307 0.79979 0.95753 0.0
O148 O 0.50242 0.64523 0.85312 0.0
O149 O 0.63709 0.7286 0.92073 0.0
O150 O 0.53606 0.76441 0.95122 0.0
O151 O 0.61901 0.72741 0.74185 0.0
O152 O 0.5099 0.75794 0.76742 0.0
O153 O 0.64325 0.84619 0.83696 0.0
Sc154 Sc 0.75394 0.53075 0.02223 0.0
Sc155 Sc 0.84258 0.64705 0.03883 0.0
Sc156 Sc 0.86624 0.56646 0.96978 0.0
O157 O 0.82101 0.58162 0.00986 0.0
C158 C 0.80709 0.47479 0.0447 0.0
C159 C 0.77917 0.58337 0.14381 0.0
C160 C 0.92814 0.634 0.07229 0.0
C161 C 0.74225 0.61794 0.99163 0.0
C162 C 0.774 0.51355 0.89156 0.0
C163 C 0.9017 0.66885 0.92188 0.0
O164 O 0.7716 0.47944 0.04676 0.0
O165 O 0.80778 0.6222 0.12112 0.0
O166 O 0.91976 0.6025 0.03469 0.0
O167 O 0.72642 0.57491 0.99986 0.0
O168 O 0.81744 0.53071 0.89987 0.0
O169 O 0.88396 0.68104 0.96248 0.0
O170 O 0.74647 0.51131 0.93161 0.0
O171 O 0.78421 0.64859 1.00129 0.0
O172 O 0.89599 0.62823 0.91748 0.0
O173 O 0.75707 0.54643 0.11388 0.0
O174 O 0.84409 0.50377 0.01893 0.0
O175 O 0.90264 0.65202 0.07883 0.0
Sc176 Sc 0.28133 0.87093 0.13066 0.0
Sc177 Sc 0.18189 0.84604 0.20761 0.0
Sc178 Sc 0.21222 0.76088 0.19058 0.0
O179 O 0.2251 0.8258 0.1756 0.0
C180 C 0.24275 0.77565 0.05863 0.0
C181 C 0.21553 0.90487 0.08895 0.0
C182 C 0.11203 0.74787 0.16331 0.0
C183 C 0.27591 0.93251 0.23571 0.0
C184 C 0.32204 0.82039 0.20561 0.0
C185 C 0.18686 0.78612 0.31085 0.0
O186 O 0.2723 0.81851 0.06686 0.0
O187 O 0.19459 0.89542 0.13776 0.0
O188 O 0.13817 0.73208 0.17946 0.0
O189 O 0.29442 0.92845 0.18883 0.0
O190 O 0.28424 0.7818 0.20349 0.0
O191 O 0.16524 0.80324 0.2845 0.0
O192 O 0.32597 0.85754 0.18472 0.0
O193 O 0.23736 0.90036 0.25472 0.0
O194 O 0.20938 0.77051 0.28335 0.0
O195 O 0.24083 0.88805 0.07394 0.0
O196 O 0.21564 0.74981 0.09866 0.0
O197 O 0.12482 0.79092 0.16232 0.0
Sc198 Sc 0.43862 0.21703 0.35514 0.0
Sc199 Sc 0.32435 0.19126 0.37446 0.0
Sc200 Sc 0.40088 0.28975 0.29699 0.0
O201 O 0.38804 0.23262 0.34167 0.0
C202 C 0.49161 0.32684 0.37299 0.0
C203 C 0.38907 0.19148 0.4765 0.0
C204 C 0.33624 0.28733 0.40275 0.0
C205 C 0.34885 0.11855 0.32712 0.0
C206 C 0.45575 0.24979 0.22411 0.0
C207 C 0.30014 0.22607 0.25565 0.0
O208 O 0.49106 0.2883 0.37133 0.0
O209 O 0.34947 0.17424 0.45226 0.0
O210 O 0.35896 0.30521 0.35593 0.0
O211 O 0.3915 0.14347 0.34105 0.0
O212 O 0.44238 0.27925 0.23234 0.0
O213 O 0.28854 0.20478 0.30423 0.0
O214 O 0.454 0.22224 0.26374 0.0
O215 O 0.31994 0.13302 0.3293 0.0
O216 O 0.34222 0.25148 0.24073 0.0
O217 O 0.42648 0.21197 0.44752 0.0
O218 O 0.45976 0.3323 0.35059 0.0
O219 O 0.32717 0.2477 0.4212 0.0
Sc220 Sc 0.09979 0.40643 0.46156 0.0
Sc221 Sc 0.12394 0.33063 0.537 0.0
Sc222 Sc 0.20962 0.44626 0.52174 0.0
O223 O 0.1445 0.39456 0.50643 0.0
C224 C 0.19484 0.46319 0.39004 0.0
C225 C 0.06718 0.30732 0.41676 0.0
C226 C 0.22256 0.35935 0.49262 0.0
C227 C 0.03737 0.33826 0.56472 0.0
C228 C 0.15003 0.49649 0.53841 0.0
C229 C 0.18353 0.39482 0.64179 0.0
O230 O 0.15225 0.45051 0.39884 0.0
O231 O 0.07606 0.29507 0.46542 0.0
O232 O 0.2386 0.40104 0.51 0.0
O233 O 0.04219 0.36181 0.51864 0.0
O234 O 0.18872 0.49745 0.53577 0.0
O235 O 0.16528 0.35597 0.61542 0.0
O236 O 0.11298 0.46358 0.51696 0.0
O237 O 0.06842 0.32993 0.58332 0.0
O238 O 0.20009 0.4331 0.61441 0.0
O239 O 0.08283 0.34958 0.40342 0.0
O240 O 0.22067 0.4613 0.42972 0.0
O241 O 0.17943 0.32961 0.49185 0.0
Sc242 Sc 0.75466 0.21569 0.68806 0.0
Sc243 Sc 0.78133 0.12772 0.70642 0.0
Sc244 Sc 0.67997 0.10461 0.63394 0.0
O245 O 0.73865 0.14928 0.67565 0.0
C246 C 0.64547 0.16115 0.70834 0.0
C247 C 0.78049 0.19173 0.80902 0.0
C248 C 0.68553 0.04346 0.73918 0.0
C249 C 0.85275 0.22511 0.65849 0.0
C250 C 0.72037 0.19807 0.55786 0.0
C251 C 0.74402 0.068 0.58854 0.0
O252 O 0.6841 0.19847 0.70362 0.0
O253 O 0.79821 0.16984 0.78445 0.0
O254 O 0.66556 0.04839 0.69436 0.0
O255 O 0.82796 0.24234 0.67471 0.0
O256 O 0.68987 0.15585 0.56809 0.0
O257 O 0.76765 0.07903 0.63544 0.0
O258 O 0.74904 0.22433 0.59636 0.0
O259 O 0.83861 0.18181 0.66017 0.0
O260 O 0.71578 0.08201 0.5766 0.0
O261 O 0.75983 0.2087 0.7803 0.0
O262 O 0.63896 0.1226 0.68872 0.0
O263 O 0.72652 0.07331 0.75403 0.0
C264 C 0.21336 0.43477 0.73866 0.0
C265 C 0.18301 0.39472 0.70672 0.0
C266 C 0.21246 0.43511 0.79998 0.0
C267 C 0.18093 0.39551 0.83182 0.0
H268 H 0.23851 0.46592 0.7162 0.0
H269 H 0.23747 0.46634 0.82253 0.0
S270 S 0.09016 0.28357 0.76889 0.0
N271 N 0.11787 0.31559 0.71179 0.0
N272 N 0.11607 0.31637 0.82626 0.0
C273 C 0.14929 0.35582 0.80027 0.0
C274 C 0.15037 0.35537 0.73805 0.0
C275 C 0.79696 0.1682 0.9666 0.0
C276 C 0.77663 0.18954 0.99876 0.0
C277 C 0.7991 0.17033 0.90575 0.0
C278 C 0.78091 0.19383 0.87385 0.0
H279 H 0.81186 0.1498 0.98848 0.0
H280 H 0.81483 0.15281 0.88367 0.0
S281 S 0.72381 0.25581 0.93666 0.0
N282 N 0.7379 0.23529 0.99384 0.0
N283 N 0.74165 0.23904 0.87929 0.0
C284 C 0.76037 0.21541 0.90528 0.0
C285 C 0.75821 0.21326 0.9676 0.0
C286 C 0.61193 0.8056 0.07844 0.0
C287 C 0.57063 0.78292 0.04575 0.0
C288 C 0.61152 0.80347 0.13929 0.0
C289 C 0.56978 0.77865 0.17066 0.0
H290 H 0.64522 0.8252 0.05698 0.0
H291 H 0.64449 0.82216 0.1618 0.0
S292 S 0.45168 0.71217 0.10628 0.0
N293 N 0.48648 0.73401 0.04954 0.0
N294 N 0.48574 0.73034 0.16418 0.0
C295 C 0.52804 0.75565 0.13871 0.0
C296 C 0.52846 0.75776 0.07637 0.0
C297 C 0.79641 0.62231 0.30192 0.0
C298 C 0.7761 0.58043 0.33359 0.0
C299 C 0.79589 0.62264 0.24099 0.0
C300 C 0.77501 0.58113 0.20849 0.0
H301 H 0.81289 0.65549 0.32422 0.0
H302 H 0.81243 0.65604 0.21929 0.0
S303 S 0.71661 0.46166 0.26974 0.0
N304 N 0.73401 0.49594 0.32748 0.0
N305 N 0.73335 0.49661 0.21276 0.0
C306 C 0.75425 0.53882 0.23938 0.0
C307 C 0.75483 0.53846 0.3018 0.0
C308 C 0.20003 0.75855 0.46883 0.0
C309 C 0.18942 0.78834 0.50076 0.0
C310 C 0.19905 0.75779 0.40753 0.0
C311 C 0.18708 0.78651 0.37572 0.0
H312 H 0.20808 0.73477 0.49127 0.0
H313 H 0.20708 0.73401 0.38499 0.0
S314 S 0.161 0.87431 0.43816 0.0
N315 N 0.17 0.84984 0.49539 0.0
N316 N 0.16776 0.84815 0.38099 0.0
C317 C 0.17773 0.81743 0.40713 0.0
C318 C 0.17904 0.81843 0.46932 0.0
C319 C 0.34945 0.16515 0.573 0.0
C320 C 0.39095 0.19015 0.54128 0.0
C321 C 0.34905 0.16601 0.63393 0.0
C322 C 0.39015 0.19187 0.66637 0.0
H323 H 0.31661 0.14479 0.55069 0.0
H324 H 0.31596 0.14571 0.65563 0.0
S325 S 0.5085 0.26372 0.60474 0.0
N326 N 0.4746 0.24185 0.54713 0.0
N327 N 0.47388 0.24322 0.66183 0.0
C328 C 0.4321 0.21699 0.63536 0.0
C329 C 0.43251 0.21612 0.57296 0.0
C330 C 0.34261 0.32139 0.95782 0.0
C331 C 0.29829 0.31337 0.94184 0.0
C332 C 0.35968 0.29327 0.93626 0.0
C333 C 0.33264 0.25569 0.89893 0.0
H334 H 0.36384 0.34881 0.98829 0.0
H335 H 0.3935 0.2999 0.95063 0.0
S336 S 0.21649 0.22195 0.83924 0.0
N337 N 0.22934 0.26667 0.88209 0.0
N338 N 0.2614 0.21376 0.84331 0.0
C339 C 0.28921 0.24823 0.88091 0.0
C340 C 0.27208 0.27713 0.90182 0.0
C341 C 0.0093 0.34897 0.12636 0.0
C342 C 0.97212 0.30712 0.10488 0.0
C343 C 0.05452 0.36609 0.10532 0.0
C344 C 0.06404 0.34149 0.06295 0.0
H345 H 0.00391 0.36772 0.16129 0.0
H346 H 0.08249 0.39756 0.12421 0.0
S347 S 0.97921 0.23462 0.98574 0.0
N348 N 0.9479 0.2449 0.03284 0.0
N349 N 0.03319 0.27669 0.99552 0.0
C350 C 0.02728 0.3013 0.03875 0.0
C351 C -0.01882 0.28428 0.05904 0.0
C352 C 0.67647 0.05691 0.2656 0.0
C353 C 0.71542 0.06747 0.23106 0.0
C354 C 0.64846 0.01211 0.28795 0.0
C355 C 0.65802 0.97622 0.27562 0.0
H356 H 0.66861 0.08384 0.27725 0.0
H357 H 0.61984 0.00592 0.3162 0.0
S358 S 0.75367 0.98579 0.18153 0.0
N359 N 0.76046 0.03845 0.18192 0.0
N360 N 0.70783 0.95413 0.22261 0.0
C361 C 0.69574 0.98612 0.23847 0.0
C362 C 0.72451 0.03182 0.21664 0.0
C363 C 0.61651 0.65466 0.47422 0.0
C364 C 0.65364 0.65321 0.44662 0.0
C365 C 0.59987 0.68313 0.45287 0.0
C366 C 0.62026 0.71131 0.40386 0.0
H367 H 0.60187 0.63576 0.51432 0.0
H368 H 0.57259 0.68493 0.47649 0.0
S369 S 0.71169 0.71404 0.30937 0.0
N370 N 0.70506 0.67741 0.36205 0.0
N371 N 0.67464 0.73206 0.3239 0.0
C372 C 0.65492 0.70793 0.37359 0.0
C373 C 0.67131 0.67842 0.39439 0.0
C374 C 0.95287 0.62807 0.62685 0.0
C375 C -0.01042 0.67163 0.60926 0.0
C376 C 0.90785 0.61096 0.6049 0.0
C377 C 0.89788 0.63718 0.56551 0.0
H378 H 0.95852 0.60759 0.65906 0.0
H379 H 0.88033 0.57786 0.62064 0.0
S380 S -0.01835 0.75026 0.49986 0.0
N381 N 0.01299 0.73832 0.54485 0.0
N382 N 0.92818 0.70629 0.50556 0.0
C383 C 0.93427 0.67958 0.54553 0.0
C384 C 0.9802 0.69672 0.56681 0.0
C385 C 0.31352 0.95663 0.80122 0.0
C386 C 0.31374 -0.00484 0.77525 0.0
C387 C 0.28461 0.91157 0.78002 0.0
C388 C 0.25466 0.90373 0.73287 0.0
H389 H 0.33401 0.96087 0.83987 0.0
H390 H 0.28408 0.88256 0.80229 0.0
S391 S 0.24757 -0.00769 0.64288 0.0
N392 N 0.28597 0.0223 0.69401 0.0
N393 N 0.23055 0.9373 0.65625 0.0
C394 C 0.25652 0.94172 0.70421 0.0
C395 C 0.28648 -0.01241 0.72479 0.0
C396 C 0.6848 0.69019 0.97204 0.0
C397 C 0.65193 0.66661 0.92754 0.0
C398 C 0.71364 0.674 0.99261 0.0
C399 C 0.7102 0.63309 0.9705 0.0
H400 H 0.68965 0.72247 0.99002 0.0
H401 H 0.73902 0.69383 0.02596 0.0
S402 S 0.62895 0.55666 0.85625 0.0
N403 N 0.61693 0.59899 0.86348 0.0
N404 N 0.67077 0.56813 0.90356 0.0
C405 C 0.67645 0.60796 0.92788 0.0
C406 C 0.64739 0.62478 0.90611 0.0
C407 C 0.01046 0.65225 0.08232 0.0
C408 C 0.97285 0.65604 0.10401 0.0
C409 C 0.05554 0.68096 0.10345 0.0
C410 C 0.06432 0.7146 0.14624 0.0
H411 H 0.0056 0.62889 0.04661 0.0
H412 H 0.08396 0.67848 0.08413 0.0
S413 S 0.97764 0.73284 0.22506 0.0
N414 N 0.94703 0.69154 0.17723 0.0
N415 N 0.03212 0.74641 0.21497 0.0
C416 C 0.02699 0.71671 0.17103 0.0
C417 C -0.01891 0.68705 0.15051 0.0
C418 C 0.34178 0.01359 0.25196 0.0
C419 C 0.29632 0.97829 0.26514 0.0
C420 C 0.35935 0.05877 0.27377 0.0
C421 C 0.33172 0.07028 0.30853 0.0
H422 H 0.36358 0.00659 0.22354 0.0
H423 H 0.39409 0.08523 0.26151 0.0
S424 S 0.21188 -0.00943 0.35941 0.0
N425 N 0.22512 0.95797 0.31858 0.0
N426 N 0.25826 0.04277 0.35845 0.0
C427 C 0.28696 0.0352 0.32367 0.0
C428 C 0.26925 -0.01079 0.30235 0.0
C429 C 0.2419 0.29692 0.48077 0.0
C430 C 0.25509 0.34389 0.47413 0.0
C431 C 0.2699 0.27984 0.46036 0.0
C432 C 0.31201 0.30886 0.43155 0.0
H433 H 0.20922 0.27283 0.50123 0.0
H434 H 0.25716 0.24297 0.46497 0.0
S435 S 0.36456 0.4355 0.40794 0.0
N436 N 0.31476 0.42019 0.44082 0.0
N437 N 0.36735 0.38749 0.40117 0.0
C438 C 0.32664 0.35631 0.42651 0.0
C439 C 0.29825 0.374 0.44822 0.0
C440 C 0.93343 0.24229 0.64094 0.0
C441 C 0.90033 0.25666 0.63764 0.0
C442 C 0.9782 0.27008 0.61947 0.0
C443 C -0.00842 0.31315 0.593 0.0
H444 H 0.92467 0.20905 0.65993 0.0
H445 H 0.00198 0.25675 0.62186 0.0
S446 S 0.91917 0.3684 0.57699 0.0
N447 N 0.88467 0.31812 0.60879 0.0
N448 N 0.96925 0.37021 0.56743 0.0
C449 C 0.95937 0.32867 0.59068 0.0
C450 C 0.91368 0.30052 0.61335 0.0
C451 C 0.60559 0.91579 0.77093 0.0
C452 C 0.62943 0.90752 0.8156 0.0
C453 C 0.62243 0.96054 0.74849 0.0
C454 C 0.66327 -0.00146 0.77072 0.0
H455 H 0.57492 0.88717 0.75147 0.0
H456 H 0.60432 0.96488 0.71192 0.0
S457 S 0.73301 -0.00494 0.89569 0.0
N458 N 0.69217 0.94048 0.88595 0.0
N459 N 0.72333 0.0251 0.84594 0.0
C460 C 0.68523 -0.00919 0.81872 0.0
C461 C 0.66851 0.94511 0.84052 0.0
C462 C 0.3931 0.53223 0.9408 0.0
C463 C 0.35962 0.53813 0.971 0.0
C464 C 0.42843 0.56877 0.9091 0.0
C465 C 0.43182 0.61272 0.90668 0.0
H466 H 0.39146 0.49884 0.94058 0.0
H467 H 0.4532 0.56235 0.8863 0.0
S468 S 0.3543 0.64675 0.98248 0.0
N469 N 0.33312 0.59154 0.99919 0.0
N470 N 0.39938 0.66035 0.94014 0.0
C471 C 0.39888 0.6192 0.93785 0.0
C472 C 0.36288 0.58192 0.96987 0.0
C473 C 0.847 0.43278 0.08134 0.0
C474 C 0.80613 0.43535 0.07634 0.0
C475 C 0.84775 0.39714 0.11287 0.0
C476 C 0.80759 0.36236 0.14031 0.0
H477 H 0.87893 0.45862 0.06101 0.0
H478 H 0.87995 0.39644 0.11479 0.0
S479 S 0.69187 0.35354 0.14272 0.0
N480 N 0.72445 0.40012 0.10315 0.0
N481 N 0.7261 0.33317 0.16209 0.0
C482 C 0.76652 0.36449 0.13614 0.0
C483 C 0.76573 0.40093 0.10429 0.0
C484 C 0.39374 0.78093 0.29121 0.0
C485 C 0.43506 0.82257 0.3032 0.0
C486 C 0.35803 0.78068 0.25885 0.0
C487 C 0.36198 0.82202 0.23677 0.0
H488 H 0.38869 0.74804 0.30707 0.0
H489 H 0.32691 0.74755 0.25148 0.0
S490 S 0.46386 0.94054 0.2543 0.0
N491 N 0.47848 0.90637 0.28928 0.0
N492 N 0.41122 0.90599 0.22855 0.0
C493 C 0.40335 0.86403 0.24796 0.0
C494 C 0.43979 0.86427 0.28122 0.0
C495 C 0.60371 0.39849 0.45714 0.0
C496 C 0.60197 0.43856 0.47264 0.0
C497 C 0.56823 0.36293 0.42442 0.0
C498 C 0.52967 0.36611 0.40529 0.0
H499 H 0.63272 0.39439 0.47046 0.0
H500 H 0.57122 0.33273 0.41406 0.0
S501 S 0.50875 0.46439 0.43345 0.0
N502 N 0.55868 0.47969 0.46579 0.0
N503 N 0.49198 0.41297 0.40442 0.0
C504 C 0.52754 0.40616 0.42031 0.0
C505 C 0.56359 0.44226 0.45401 0.0
C506 C 0.18954 0.57378 0.58796 0.0
C507 C 0.14805 0.53435 0.57024 0.0
C508 C 0.18909 0.60926 0.62015 0.0
C509 C 0.14714 0.6069 0.63634 0.0
H510 H 0.22289 0.57749 0.57695 0.0
H511 H 0.22214 0.63886 0.63235 0.0
S512 S 0.02852 0.51091 0.60127 0.0
N513 N 0.06352 0.49482 0.57172 0.0
N514 N 0.06274 0.56172 0.63204 0.0
C515 C 0.10524 0.56759 0.61916 0.0
C516 C 0.1057 0.53139 0.58609 0.0
C517 C 0.52796 0.12067 0.77846 0.0
C518 C 0.53344 0.16109 0.8055 0.0
C519 C 0.56405 0.12126 0.74644 0.0
C520 C 0.60726 0.16224 0.74049 0.0
H521 H 0.49519 0.08842 0.78106 0.0
H522 H 0.55787 0.08917 0.7263 0.0
S523 S 0.64006 0.27696 0.80642 0.0
N524 N 0.58568 0.2428 0.82639 0.0
N525 N 0.65378 0.24415 0.76671 0.0
C526 C 0.61337 0.20286 0.7682 0.0
C527 C 0.57643 0.20222 0.80055 0.0
C528 C 0.24241 0.24853 0.12835 0.0
C529 C 0.2237 0.27372 0.15509 0.0
C530 C 0.26376 0.22893 0.16164 0.0
C531 C 0.26556 0.23248 0.22276 0.0
H532 H 0.24488 0.24807 0.08125 0.0
H533 H 0.28172 0.21376 0.13931 0.0
S534 S 0.21661 0.29005 0.31373 0.0
N535 N 0.20522 0.29815 0.24601 0.0
N536 N 0.24294 0.25918 0.30885 0.0
C537 C 0.24293 0.25364 0.25011 0.0
C538 C 0.22258 0.27485 0.21617 0.0
C539 C -0.01614 0.24837 0.40937 0.0
C540 C 0.02752 0.27285 0.38209 0.0
C541 C 0.94275 0.22835 0.37649 0.0
C542 C 0.94409 0.23076 0.31531 0.0
H543 H -0.01874 0.24879 0.45646 0.0
H544 H 0.90983 0.21381 0.39911 0.0
S545 S 0.04984 0.28543 0.22317 0.0
N546 N 0.06979 0.29498 0.29073 0.0
N547 N -0.00729 0.25518 0.22865 0.0
C548 C -0.01239 0.25104 0.28752 0.0
C549 C 0.02936 0.2727 0.32103 0.0
C550 C 0.71991 0.98468 0.58167 0.0
C551 C 0.73913 0.02829 0.5542 0.0
C552 C 0.699 0.94344 0.54893 0.0
C553 C 0.69817 0.94462 0.48772 0.0
H554 H 0.71667 0.98223 0.62874 0.0
H555 H 0.68038 0.91056 0.57164 0.0
S556 S 0.74929 0.05019 0.39518 0.0
N557 N 0.7594 0.07035 0.46268 0.0
N558 N 0.72265 -0.00696 0.40092 0.0
C559 C 0.72153 -0.0119 0.45982 0.0
C560 C 0.74135 0.02998 0.49316 0.0
C561 C 0.73757 0.70422 0.71735 0.0
C562 C 0.73675 0.70445 0.65611 0.0
C563 C 0.718 0.72595 0.74989 0.0
C564 C 0.6955 0.74712 0.72217 0.0
H565 H 0.75045 0.68437 0.74013 0.0
H566 H 0.71629 0.72196 0.79689 0.0
S567 S 0.68718 0.76032 0.5631 0.0
N568 N 0.71569 0.73163 0.56912 0.0
N569 N 0.67666 0.77011 0.63049 0.0
C570 C 0.69712 0.75021 0.66119 0.0
C571 C 0.71839 0.72946 0.62808 0.0
C572 C 0.9804 0.72744 0.79461 0.0
C573 C 0.02421 0.74819 0.82195 0.0
C574 C 0.93933 0.70538 0.82751 0.0
C575 C 0.94092 0.70506 0.88866 0.0
H576 H 0.97786 0.72371 0.74757 0.0
H577 H 0.90649 0.68546 0.80503 0.0
S578 S 0.04665 0.75922 0.98091 0.0
N579 N 0.06656 0.76995 0.91337 0.0
N580 N -0.01051 0.73095 0.9753 0.0
C581 C -0.01564 0.72974 0.91639 0.0
C582 C 0.02607 0.75077 0.88297 0.0
C583 C 0.24094 0.98546 0.96198 0.0
C584 C 0.26623 0.02917 0.98912 0.0
C585 C 0.21997 0.94446 0.995 0.0
C586 C 0.22227 0.94599 0.05619 0.0
H587 H 0.24144 0.98264 0.91492 0.0
H588 H 0.2049 0.91138 0.9725 0.0
S589 S 0.27882 0.05215 0.14794 0.0
N590 N 0.28907 0.07183 0.08029 0.0
N591 N 0.24733 -0.00497 0.14265 0.0
C592 C 0.24331 -0.0103 0.08379 0.0
C593 C 0.26599 0.03131 0.05013 0.0
C594 C 0.18135 0.46765 0.28327 0.0
C595 C 0.21243 0.47393 0.32883 0.0
C596 C 0.19324 0.46739 0.22475 0.0
C597 C 0.23679 0.47332 0.20891 0.0
H598 H 0.14638 0.4602 0.29267 0.0
H599 H 0.16682 0.45959 0.19204 0.0
S600 S 0.33457 0.5015 0.30989 0.0
N601 N 0.29159 0.49383 0.35306 0.0
N602 N 0.31375 0.49315 0.2429 0.0
C603 C 0.26972 0.48383 0.25344 0.0
C604 C 0.25765 0.48425 0.31331 0.0
C605 C 0.70255 0.18328 0.45129 0.0
C606 C 0.72695 0.21491 0.4965 0.0
C607 C 0.71489 0.19481 0.39279 0.0
C608 C 0.75229 0.23845 0.37684 0.0
H609 H 0.67534 0.14825 0.46104 0.0
H610 H 0.69667 0.1681 0.36024 0.0
S611 S 0.82093 0.3373 0.47689 0.0
N612 N 0.78557 0.29453 0.52022 0.0
N613 N 0.80883 0.31591 0.41013 0.0
C614 C 0.77429 0.27184 0.42097 0.0
C615 C 0.76159 0.26019 0.48073 0.0
C616 C 0.49435 0.70891 0.62139 0.0
C617 C 0.49538 0.73777 0.66704 0.0
C618 C 0.4938 0.72074 0.56292 0.0
C619 C 0.49449 0.76211 0.5474 0.0
H620 H 0.49657 0.67811 0.63057 0.0
H621 H 0.49587 0.69859 0.5298 0.0
S622 S 0.48797 0.8452 0.65 0.0
N623 N 0.48998 0.80619 0.69247 0.0
N624 N 0.48922 0.82842 0.58261 0.0
C625 C 0.49118 0.78909 0.59249 0.0
C626 C 0.49152 0.77694 0.65221 0.0
C627 C 0.71388 0.50063 0.81668 0.0
C628 C 0.75594 0.50231 0.83082 0.0
C629 C 0.70104 0.50108 0.75861 0.0
C630 C 0.72941 0.50273 0.71205 0.0
H631 H 0.69196 0.50196 0.85062 0.0
H632 H 0.66974 0.50261 0.75043 0.0
S633 S 0.83833 0.49773 0.72547 0.0
N634 N 0.82242 0.49855 0.79341 0.0
N635 N 0.79822 0.4989 0.68431 0.0
C636 C 0.76926 0.49971 0.72552 0.0
C637 C 0.78252 0.49965 0.78481 0.0
C638 C 0.17967 0.70527 0.92456 0.0
C639 C 0.20934 0.73108 0.87843 0.0
C640 C 0.19226 0.71789 0.98296 0.0
C641 C 0.23505 0.75705 0.99796 0.0
H642 H 0.14525 0.67648 0.91569 0.0
H643 H 0.16688 0.69835 0.01631 0.0
S644 S 0.329 0.83146 0.89466 0.0
N645 N 0.28643 0.794 0.85258 0.0
N646 N 0.30975 0.81768 0.96214 0.0
C647 C 0.26666 0.78082 0.95264 0.0
C648 C 0.25396 0.76784 0.89306 0.0
C649 C 0.46351 0.18725 0.09037 0.0
C650 C 0.46706 0.21698 0.04447 0.0
C651 C 0.46361 0.19976 0.14871 0.0
C652 C 0.46709 0.2425 0.16373 0.0
H653 H 0.45787 0.1528 0.08139 0.0
H654 H 0.45781 0.17428 0.18195 0.0
S655 S 0.48702 0.33696 0.06099 0.0
N656 N 0.48162 0.29432 0.01873 0.0
N657 N 0.48152 0.31754 0.12839 0.0
C658 C 0.47507 0.27435 0.11867 0.0
C659 C 0.47519 0.26171 0.05912 0.0
loop_
_geom_bond_atom_site_label_1
_geom_bond_atom_site_label_2
_geom_bond_distance
_geom_bond_site_symmetry_2
_ccdc_geom_bond_type
Sc0 O3 2.025 . S
Sc0 O10 2.105 1_554 S
Sc0 O13 2.105 . S
Sc0 O16 2.105 . S
Sc0 O19 2.105 1_554 S
Sc1 O3 2.025 1_556 S
Sc1 O11 2.105 . S
Sc1 O15 2.105 1_556 S
Sc1 O17 2.105 1_556 S
Sc1 O21 2.105 . S
Sc2 O3 2.025 . S
Sc2 O12 2.105 1_554 S
Sc2 O14 2.105 . S
Sc2 O18 2.105 . S
Sc2 O20 2.105 . S
O3 Sc0 2.025 . S
O3 Sc1 2.025 1_554 S
O3 Sc2 2.025 . S
C4 O10 1.268 . S
C4 O20 1.268 1_556 S
C5 O11 1.268 . S
C5 O19 1.268 . S
C6 O12 1.268 . S
C6 O21 1.268 . S
C7 O13 1.268 . S
C7 O17 1.268 . S
C8 O14 1.268 . S
C8 O16 1.268 . S
C9 O15 1.268 . S
C9 O18 1.268 . S
O10 Sc0 2.105 1_556 S
O10 C4 1.268 . S
O11 Sc1 2.105 . S
O11 C5 1.268 . S
O12 Sc2 2.105 1_556 S
O12 C6 1.268 . S
O13 Sc0 2.105 . S
O13 C7 1.268 . S
O14 Sc2 2.105 . S
O14 C8 1.268 . S
O15 Sc1 2.105 1_554 S
O15 C9 1.268 . S
O16 Sc0 2.105 . S
O16 C8 1.268 . S
O17 Sc1 2.105 1_554 S
O17 C7 1.268 . S
O18 Sc2 2.105 . S
O18 C9 1.268 . S
O19 Sc0 2.105 1_556 S
O19 C5 1.268 . S
O20 Sc2 2.105 . S
O20 C4 1.268 1_554 S
O21 Sc1 2.105 . S
O21 C6 1.268 . S
Sc22 O25 2.025 . S
Sc22 O32 2.105 . S
Sc22 O35 2.105 . S
Sc22 O38 2.105 . S
Sc22 O41 2.105 . S
Sc23 O25 2.025 . S
Sc23 O33 2.105 . S
Sc23 O37 2.105 . S
Sc23 O39 2.105 . S
Sc23 O43 2.105 . S
Sc24 O25 2.025 . S
Sc24 O34 2.105 . S
Sc24 O36 2.105 . S
Sc24 O40 2.105 . S
Sc24 O42 2.105 . S
O25 Sc22 2.025 . S
O25 Sc23 2.025 . S
O25 Sc24 2.025 . S
C26 O32 1.268 . S
C26 O42 1.268 . S
C27 O33 1.268 . S
C27 O41 1.268 . S
C28 O34 1.268 . S
C28 O43 1.268 . S
C29 O35 1.268 . S
C29 O39 1.268 . S
C30 O36 1.268 . S
C30 O38 1.268 . S
C31 O37 1.268 . S
C31 O40 1.268 . S
O32 Sc22 2.105 . S
O32 C26 1.268 . S
O33 Sc23 2.105 . S
O33 C27 1.268 . S
O34 Sc24 2.105 . S
O34 C28 1.268 . S
O35 Sc22 2.105 . S
O35 C29 1.268 . S
O36 Sc24 2.105 . S
O36 C30 1.268 . S
O37 Sc23 2.105 . S
O37 C31 1.268 . S
O38 Sc22 2.105 . S
O38 C30 1.268 . S
O39 Sc23 2.105 . S
O39 C29 1.268 . S
O40 Sc24 2.105 . S
O40 C31 1.268 . S
O41 Sc22 2.105 . S
O41 C27 1.268 . S
O42 Sc24 2.105 . S
O42 C26 1.268 . S
O43 Sc23 2.105 . S
O43 C28 1.268 . S
Sc44 O47 2.025 . S
Sc44 O54 2.105 . S
Sc44 O57 2.105 . S
Sc44 O60 2.105 . S
Sc44 O63 2.105 . S
Sc45 O47 2.025 . S
Sc45 O55 2.105 . S
Sc45 O59 2.105 . S
Sc45 O61 2.105 . S
Sc45 O65 2.105 . S
Sc46 O47 2.025 . S
Sc46 O56 2.105 . S
Sc46 O58 2.105 . S
Sc46 O62 2.105 . S
Sc46 O64 2.105 . S
O47 Sc44 2.025 . S
O47 Sc45 2.025 . S
O47 Sc46 2.025 . S
C48 O54 1.268 . S
C48 O64 1.268 . S
C49 O55 1.268 . S
C49 O63 1.268 . S
C50 O56 1.268 . S
C50 O65 1.268 . S
C51 O57 1.268 . S
C51 O61 1.268 . S
C52 O58 1.268 . S
C52 O60 1.268 . S
C53 O59 1.268 . S
C53 O62 1.268 . S
O54 Sc44 2.105 . S
O54 C48 1.268 . S
O55 Sc45 2.105 . S
O55 C49 1.268 . S
O56 Sc46 2.105 . S
O56 C50 1.268 . S
O57 Sc44 2.105 . S
O57 C51 1.268 . S
O58 Sc46 2.105 . S
O58 C52 1.268 . S
O59 Sc45 2.105 . S
O59 C53 1.268 . S
O60 Sc44 2.105 . S
O60 C52 1.268 . S
O61 Sc45 2.105 . S
O61 C51 1.268 . S
O62 Sc46 2.105 . S
O62 C53 1.268 . S
O63 Sc44 2.105 . S
O63 C49 1.268 . S
O64 Sc46 2.105 . S
O64 C48 1.268 . S
O65 Sc45 2.105 . S
O65 C50 1.268 . S
Sc66 O69 2.025 . S
Sc66 O76 2.105 . S
Sc66 O79 2.105 . S
Sc66 O82 2.105 . S
Sc66 O85 2.105 . S
Sc67 O69 2.025 . S
Sc67 O77 2.105 . S
Sc67 O81 2.105 . S
Sc67 O83 2.105 . S
Sc67 O87 2.105 . S
Sc68 O69 2.025 . S
Sc68 O78 2.105 . S
Sc68 O80 2.105 . S
Sc68 O84 2.105 . S
Sc68 O86 2.105 . S
O69 Sc66 2.025 . S
O69 Sc67 2.025 . S
O69 Sc68 2.025 . S
C70 O76 1.268 . S
C70 O86 1.268 . S
C71 O77 1.268 . S
C71 O85 1.268 . S
C72 O78 1.268 . S
C72 O87 1.268 . S
C73 O79 1.268 . S
C73 O83 1.268 . S
C74 O80 1.268 . S
C74 O82 1.268 . S
C75 O81 1.268 . S
C75 O84 1.268 . S
O76 Sc66 2.105 . S
O76 C70 1.268 . S
O77 Sc67 2.105 . S
O77 C71 1.268 . S
O78 Sc68 2.105 . S
O78 C72 1.268 . S
O79 Sc66 2.105 . S
O79 C73 1.268 . S
O80 Sc68 2.105 . S
O80 C74 1.268 . S
O81 Sc67 2.105 . S
O81 C75 1.268 . S
O82 Sc66 2.105 . S
O82 C74 1.268 . S
O83 Sc67 2.105 . S
O83 C73 1.268 . S
O84 Sc68 2.105 . S
O84 C75 1.268 . S
O85 Sc66 2.105 . S
O85 C71 1.268 . S
O86 Sc68 2.105 . S
O86 C70 1.268 . S
O87 Sc67 2.105 . S
O87 C72 1.268 . S
Sc88 O91 2.025 . S
Sc88 O98 2.105 . S
Sc88 O101 2.105 . S
Sc88 O104 2.105 . S
Sc88 O107 2.105 . S
Sc89 O91 2.025 . S
Sc89 O99 2.105 . S
Sc89 O103 2.105 . S
Sc89 O105 2.105 . S
Sc89 O109 2.105 . S
Sc90 O91 2.025 . S
Sc90 O100 2.105 . S
Sc90 O102 2.105 . S
Sc90 O106 2.105 . S
Sc90 O108 2.105 . S
O91 Sc88 2.025 . S
O91 Sc89 2.025 . S
O91 Sc90 2.025 . S
C92 O98 1.268 . S
C92 O108 1.268 . S
C93 O99 1.268 . S
C93 O107 1.268 . S
C94 O100 1.268 . S
C94 O109 1.268 . S
C95 O101 1.268 . S
C95 O105 1.268 . S
C96 O102 1.268 . S
C96 O104 1.268 . S
C97 O103 1.268 . S
C97 O106 1.268 . S
O98 Sc88 2.105 . S
O98 C92 1.268 . S
O99 Sc89 2.105 . S
O99 C93 1.268 . S
O100 Sc90 2.105 . S
O100 C94 1.268 . S
O101 Sc88 2.105 . S
O101 C95 1.268 . S
O102 Sc90 2.105 . S
O102 C96 1.268 . S
O103 Sc89 2.105 . S
O103 C97 1.268 . S
O104 Sc88 2.105 . S
O104 C96 1.268 . S
O105 Sc89 2.105 . S
O105 C95 1.268 . S
O106 Sc90 2.105 . S
O106 C97 1.268 . S
O107 Sc88 2.105 . S
O107 C93 1.268 . S
O108 Sc90 2.105 . S
O108 C92 1.268 . S
O109 Sc89 2.105 . S
O109 C94 1.268 . S
Sc110 O113 2.025 . S
Sc110 O120 2.105 . S
Sc110 O123 2.105 . S
Sc110 O126 2.105 . S
Sc110 O129 2.105 . S
Sc111 O113 2.025 . S
Sc111 O121 2.105 . S
Sc111 O125 2.105 . S
Sc111 O127 2.105 . S
Sc111 O131 2.105 . S
Sc112 O113 2.025 . S
Sc112 O122 2.105 . S
Sc112 O124 2.105 . S
Sc112 O128 2.105 . S
Sc112 O130 2.105 . S
O113 Sc110 2.025 . S
O113 Sc111 2.025 . S
O113 Sc112 2.025 . S
C114 O120 1.268 . S
C114 O130 1.268 . S
C115 O121 1.268 . S
C115 O129 1.268 . S
C116 O122 1.268 . S
C116 O131 1.268 . S
C117 O123 1.268 . S
C117 O127 1.268 . S
C118 O124 1.268 . S
C118 O126 1.268 . S
C119 O125 1.268 . S
C119 O128 1.268 . S
O120 Sc110 2.105 . S
O120 C114 1.268 . S
O121 Sc111 2.105 . S
O121 C115 1.268 . S
O122 Sc112 2.105 . S
O122 C116 1.268 . S
O123 Sc110 2.105 . S
O123 C117 1.268 . S
O124 Sc112 2.105 . S
O124 C118 1.268 . S
O125 Sc111 2.105 . S
O125 C119 1.268 . S
O126 Sc110 2.105 . S
O126 C118 1.268 . S
O127 Sc111 2.105 . S
O127 C117 1.268 . S
O128 Sc112 2.105 . S
O128 C119 1.268 . S
O129 Sc110 2.105 . S
O129 C115 1.268 . S
O130 Sc112 2.105 . S
O130 C114 1.268 . S
O131 Sc111 2.105 . S
O131 C116 1.268 . S
Sc132 O135 2.025 . S
Sc132 O142 2.105 . S
Sc132 O145 2.105 . S
Sc132 O148 2.105 . S
Sc132 O151 2.105 . S
Sc133 O135 2.025 . S
Sc133 O143 2.105 . S
Sc133 O147 2.105 . S
Sc133 O149 2.105 . S
Sc133 O153 2.105 . S
Sc134 O135 2.025 . S
Sc134 O144 2.105 . S
Sc134 O146 2.105 . S
Sc134 O150 2.105 . S
Sc134 O152 2.105 . S
O135 Sc132 2.025 . S
O135 Sc133 2.025 . S
O135 Sc134 2.025 . S
C136 O142 1.268 . S
C136 O152 1.268 . S
C137 O143 1.268 . S
C137 O151 1.268 . S
C138 O144 1.268 . S
C138 O153 1.268 . S
C139 O145 1.268 . S
C139 O149 1.268 . S
C140 O146 1.268 . S
C140 O148 1.268 . S
C141 O147 1.268 . S
C141 O150 1.268 . S
O142 Sc132 2.105 . S
O142 C136 1.268 . S
O143 Sc133 2.105 . S
O143 C137 1.268 . S
O144 Sc134 2.105 . S
O144 C138 1.268 . S
O145 Sc132 2.105 . S
O145 C139 1.268 . S
O146 Sc134 2.105 . S
O146 C140 1.268 . S
O147 Sc133 2.105 . S
O147 C141 1.268 . S
O148 Sc132 2.105 . S
O148 C140 1.268 . S
O149 Sc133 2.105 . S
O149 C139 1.268 . S
O150 Sc134 2.105 . S
O150 C141 1.268 . S
O151 Sc132 2.105 . S
O151 C137 1.268 . S
O152 Sc134 2.105 . S
O152 C136 1.268 . S
O153 Sc133 2.105 . S
O153 C138 1.268 . S
Sc154 O157 2.025 . S
Sc154 O164 2.105 . S
Sc154 O167 2.105 1_554 S
Sc154 O170 2.105 1_554 S
Sc154 O173 2.105 . S
Sc155 O157 2.025 . S
Sc155 O165 2.105 . S
Sc155 O169 2.105 1_554 S
Sc155 O171 2.105 . S
Sc155 O175 2.105 . S
Sc156 O157 2.025 1_556 S
Sc156 O166 2.105 1_556 S
Sc156 O168 2.105 . S
Sc156 O172 2.105 . S
Sc156 O174 2.105 1_556 S
O157 Sc154 2.025 . S
O157 Sc155 2.025 . S
O157 Sc156 2.025 1_554 S
C158 O164 1.268 . S
C158 O174 1.268 . S
C159 O165 1.268 . S
C159 O173 1.268 . S
C160 O166 1.268 . S
C160 O175 1.268 . S
C161 O167 1.268 . S
C161 O171 1.268 1_556 S
C162 O168 1.268 . S
C162 O170 1.268 . S
C163 O169 1.268 . S
C163 O172 1.268 . S
O164 Sc154 2.105 . S
O164 C158 1.268 . S
O165 Sc155 2.105 . S
O165 C159 1.268 . S
O166 Sc156 2.105 1_554 S
O166 C160 1.268 . S
O167 Sc154 2.105 1_556 S
O167 C161 1.268 . S
O168 Sc156 2.105 . S
O168 C162 1.268 . S
O169 Sc155 2.105 1_556 S
O169 C163 1.268 . S
O170 Sc154 2.105 1_556 S
O170 C162 1.268 . S
O171 Sc155 2.105 . S
O171 C161 1.268 1_554 S
O172 Sc156 2.105 . S
O172 C163 1.268 . S
O173 Sc154 2.105 . S
O173 C159 1.268 . S
O174 Sc156 2.105 1_554 S
O174 C158 1.268 . S
O175 Sc155 2.105 . S
O175 C160 1.268 . S
Sc176 O179 2.025 . S
Sc176 O186 2.105 . S
Sc176 O189 2.105 . S
Sc176 O192 2.105 . S
Sc176 O195 2.105 . S
Sc177 O179 2.025 . S
Sc177 O187 2.105 . S
Sc177 O191 2.105 . S
Sc177 O193 2.105 . S
Sc177 O197 2.105 . S
Sc178 O179 2.025 . S
Sc178 O188 2.105 . S
Sc178 O190 2.105 . S
Sc178 O194 2.105 . S
Sc178 O196 2.105 . S
O179 Sc176 2.025 . S
O179 Sc177 2.025 . S
O179 Sc178 2.025 . S
C180 O186 1.268 . S
C180 O196 1.268 . S
C181 O187 1.268 . S
C181 O195 1.268 . S
C182 O188 1.268 . S
C182 O197 1.268 . S
C183 O189 1.268 . S
C183 O193 1.268 . S
C184 O190 1.268 . S
C184 O192 1.268 . S
C185 O191 1.268 . S
C185 O194 1.268 . S
O186 Sc176 2.105 . S
O186 C180 1.268 . S
O187 Sc177 2.105 . S
O187 C181 1.268 . S
O188 Sc178 2.105 . S
O188 C182 1.268 . S
O189 Sc176 2.105 . S
O189 C183 1.268 . S
O190 Sc178 2.105 . S
O190 C184 1.268 . S
O191 Sc177 2.105 . S
O191 C185 1.268 . S
O192 Sc176 2.105 . S
O192 C184 1.268 . S
O193 Sc177 2.105 . S
O193 C183 1.268 . S
O194 Sc178 2.105 . S
O194 C185 1.268 . S
O195 Sc176 2.105 . S
O195 C181 1.268 . S
O196 Sc178 2.105 . S
O196 C180 1.268 . S
O197 Sc177 2.105 . S
O197 C182 1.268 . S
Sc198 O201 2.025 . S
Sc198 O208 2.105 . S
Sc198 O211 2.105 . S
Sc198 O214 2.105 . S
Sc198 O217 2.105 . S
Sc199 O201 2.025 . S
Sc199 O209 2.105 . S
Sc199 O213 2.105 . S
Sc199 O215 2.105 . S
Sc199 O219 2.105 . S
Sc200 O201 2.025 . S
Sc200 O210 2.105 . S
Sc200 O212 2.105 . S
Sc200 O216 2.105 . S
Sc200 O218 2.105 . S
O201 Sc198 2.025 . S
O201 Sc199 2.025 . S
O201 Sc200 2.025 . S
C202 O208 1.268 . S
C202 O218 1.268 . S
C203 O209 1.268 . S
C203 O217 1.268 . S
C204 O210 1.268 . S
C204 O219 1.268 . S
C205 O211 1.268 . S
C205 O215 1.268 . S
C206 O212 1.268 . S
C206 O214 1.268 . S
C207 O213 1.268 . S
C207 O216 1.268 . S
O208 Sc198 2.105 . S
O208 C202 1.268 . S
O209 Sc199 2.105 . S
O209 C203 1.268 . S
O210 Sc200 2.105 . S
O210 C204 1.268 . S
O211 Sc198 2.105 . S
O211 C205 1.268 . S
O212 Sc200 2.105 . S
O212 C206 1.268 . S
O213 Sc199 2.105 . S
O213 C207 1.268 . S
O214 Sc198 2.105 . S
O214 C206 1.268 . S
O215 Sc199 2.105 . S
O215 C205 1.268 . S
O216 Sc200 2.105 . S
O216 C207 1.268 . S
O217 Sc198 2.105 . S
O217 C203 1.268 . S
O218 Sc200 2.105 . S
O218 C202 1.268 . S
O219 Sc199 2.105 . S
O219 C204 1.268 . S
Sc220 O223 2.025 . S
Sc220 O230 2.105 . S
Sc220 O233 2.105 . S
Sc220 O236 2.105 . S
Sc220 O239 2.105 . S
Sc221 O223 2.025 . S
Sc221 O231 2.105 . S
Sc221 O235 2.105 . S
Sc221 O237 2.105 . S
Sc221 O241 2.105 . S
Sc222 O223 2.025 . S
Sc222 O232 2.105 . S
Sc222 O234 2.105 . S
Sc222 O238 2.105 . S
Sc222 O240 2.105 . S
O223 Sc220 2.025 . S
O223 Sc221 2.025 . S
O223 Sc222 2.025 . S
C224 O230 1.268 . S
C224 O240 1.268 . S
C225 O231 1.268 . S
C225 O239 1.268 . S
C226 O232 1.268 . S
C226 O241 1.268 . S
C227 O233 1.268 . S
C227 O237 1.268 . S
C228 O234 1.268 . S
C228 O236 1.268 . S
C229 O235 1.268 . S
C229 O238 1.268 . S
O230 Sc220 2.105 . S
O230 C224 1.268 . S
O231 Sc221 2.105 . S
O231 C225 1.268 . S
O232 Sc222 2.105 . S
O232 C226 1.268 . S
O233 Sc220 2.105 . S
O233 C227 1.268 . S
O234 Sc222 2.105 . S
O234 C228 1.268 . S
O235 Sc221 2.105 . S
O235 C229 1.268 . S
O236 Sc220 2.105 . S
O236 C228 1.268 . S
O237 Sc221 2.105 . S
O237 C227 1.268 . S
O238 Sc222 2.105 . S
O238 C229 1.268 . S
O239 Sc220 2.105 . S
O239 C225 1.268 . S
O240 Sc222 2.105 . S
O240 C224 1.268 . S
O241 Sc221 2.105 . S
O241 C226 1.268 . S
Sc242 O245 2.025 . S
Sc242 O252 2.105 . S
Sc242 O255 2.105 . S
Sc242 O258 2.105 . S
Sc242 O261 2.105 . S
Sc243 O245 2.025 . S
Sc243 O253 2.105 . S
Sc243 O257 2.105 . S
Sc243 O259 2.105 . S
Sc243 O263 2.105 . S
Sc244 O245 2.025 . S
Sc244 O254 2.105 . S
Sc244 O256 2.105 . S
Sc244 O260 2.105 . S
Sc244 O262 2.105 . S
O245 Sc242 2.025 . S
O245 Sc243 2.025 . S
O245 Sc244 2.025 . S
C246 O252 1.268 . S
C246 O262 1.268 . S
C247 O253 1.268 . S
C247 O261 1.268 . S
C248 O254 1.268 . S
C248 O263 1.268 . S
C249 O255 1.268 . S
C249 O259 1.268 . S
C250 O256 1.268 . S
C250 O258 1.268 . S
C251 O257 1.268 . S
C251 O260 1.268 . S
O252 Sc242 2.105 . S
O252 C246 1.268 . S
O253 Sc243 2.105 . S
O253 C247 1.268 . S
O254 Sc244 2.105 . S
O254 C248 1.268 . S
O255 Sc242 2.105 . S
O255 C249 1.268 . S
O256 Sc244 2.105 . S
O256 C250 1.268 . S
O257 Sc243 2.105 . S
O257 C251 1.268 . S
O258 Sc242 2.105 . S
O258 C250 1.268 . S
O259 Sc243 2.105 . S
O259 C249 1.268 . S
O260 Sc244 2.105 . S
O260 C251 1.268 . S
O261 Sc242 2.105 . S
O261 C247 1.268 . S
O262 Sc244 2.105 . S
O262 C246 1.268 . S
O263 Sc243 2.105 . S
O263 C248 1.268 . S
C264 C265 1.369 . S
C264 C266 1.419 . S
C264 H268 0.930 . S
C265 C264 1.369 . S
C265 C274 1.429 . S
C266 C264 1.419 . S
C266 C267 1.363 . S
C266 H269 0.929 . S
C267 C266 1.363 . S
C267 C273 1.428 . S
H268 C264 0.930 . S
H269 C266 0.929 . S
S270 N271 1.613 . S
S270 N272 1.610 . S
N271 S270 1.613 . S
N271 C274 1.350 . S
N272 S270 1.610 . S
N272 C273 1.351 . S
C273 C267 1.428 . S
C273 N272 1.351 . S
C273 C274 1.434 . S
C274 C265 1.429 . S
C274 N271 1.350 . S
C274 C273 1.434 . S
C275 C276 1.369 . S
C275 C277 1.419 . S
C275 H279 0.930 . S
C276 C275 1.369 . S
C276 C285 1.429 . S
C277 C275 1.419 . S
C277 C278 1.363 . S
C277 H280 0.929 . S
C278 C277 1.363 . S
C278 C284 1.428 . S
H279 C275 0.930 . S
H280 C277 0.929 . S
S281 N282 1.613 . S
S281 N283 1.610 . S
N282 S281 1.613 . S
N282 C285 1.350 . S
N283 S281 1.610 . S
N283 C284 1.351 . S
C284 C278 1.428 . S
C284 N283 1.351 . S
C284 C285 1.434 . S
C285 C276 1.429 . S
C285 N282 1.350 . S
C285 C284 1.434 . S
C286 C287 1.369 . S
C286 C288 1.419 . S
C286 H290 0.930 . S
C287 C286 1.369 . S
C287 C296 1.429 . S
C288 C286 1.419 . S
C288 C289 1.363 . S
C288 H291 0.929 . S
C289 C288 1.363 . S
C289 C295 1.428 . S
H290 C286 0.930 . S
H291 C288 0.929 . S
S292 N293 1.613 . S
S292 N294 1.610 . S
N293 S292 1.613 . S
N293 C296 1.350 . S
N294 S292 1.610 . S
N294 C295 1.351 . S
C295 C289 1.428 . S
C295 N294 1.351 . S
C295 C296 1.434 . S
C296 C287 1.429 . S
C296 N293 1.350 . S
C296 C295 1.434 . S
C297 C298 1.369 . S
C297 C299 1.419 . S
C297 H301 0.930 . S
C298 C297 1.369 . S
C298 C307 1.429 . S
C299 C297 1.419 . S
C299 C300 1.363 . S
C299 H302 0.929 . S
C300 C299 1.363 . S
C300 C306 1.428 . S
H301 C297 0.930 . S
H302 C299 0.929 . S
S303 N304 1.613 . S
S303 N305 1.610 . S
N304 S303 1.613 . S
N304 C307 1.350 . S
N305 S303 1.610 . S
N305 C306 1.351 . S
C306 C300 1.428 . S
C306 N305 1.351 . S
C306 C307 1.434 . S
C307 C298 1.429 . S
C307 N304 1.350 . S
C307 C306 1.434 . S
C308 C309 1.369 . S
C308 C310 1.419 . S
C308 H312 0.930 . S
C309 C308 1.369 . S
C309 C318 1.429 . S
C310 C308 1.419 . S
C310 C311 1.363 . S
C310 H313 0.929 . S
C311 C310 1.363 . S
C311 C317 1.428 . S
H312 C308 0.930 . S
H313 C310 0.929 . S
S314 N315 1.613 . S
S314 N316 1.610 . S
N315 S314 1.613 . S
N315 C318 1.350 . S
N316 S314 1.610 . S
N316 C317 1.351 . S
C317 C311 1.428 . S
C317 N316 1.351 . S
C317 C318 1.434 . S
C318 C309 1.429 . S
C318 N315 1.350 . S
C318 C317 1.434 . S
C319 C320 1.369 . S
C319 C321 1.419 . S
C319 H323 0.930 . S
C320 C319 1.369 . S
C320 C329 1.429 . S
C321 C319 1.419 . S
C321 C322 1.363 . S
C321 H324 0.929 . S
C322 C321 1.363 . S
C322 C328 1.428 . S
H323 C319 0.930 . S
H324 C321 0.929 . S
S325 N326 1.613 . S
S325 N327 1.610 . S
N326 S325 1.613 . S
N326 C329 1.350 . S
N327 S325 1.610 . S
N327 C328 1.351 . S
C328 C322 1.428 . S
C328 N327 1.351 . S
C328 C329 1.434 . S
C329 C320 1.429 . S
C329 N326 1.350 . S
C329 C328 1.434 . S
C330 C331 1.369 . S
C330 C332 1.419 . S
C330 H334 0.930 . S
C331 C330 1.369 . S
C331 C340 1.429 . S
C332 C330 1.419 . S
C332 C333 1.363 . S
C332 H335 0.929 . S
C333 C332 1.363 . S
C333 C339 1.428 . S
H334 C330 0.930 . S
H335 C332 0.929 . S
S336 N337 1.613 . S
S336 N338 1.610 1_554 S
N337 S336 1.613 . S
N337 C340 1.350 1_554 S
N338 S336 1.610 1_556 S
N338 C339 1.351 . S
C339 C333 1.428 . S
C339 N338 1.351 . S
C339 C340 1.434 . S
C340 C331 1.429 . S
C340 N337 1.350 1_556 S
C340 C339 1.434 . S
C341 C342 1.369 1_455 S
C341 C343 1.419 . S
C341 H345 0.917 1_455 S
C342 C341 1.369 1_655 S
C342 C351 1.429 1_655 S
C343 C341 1.419 . S
C343 C344 1.363 . S
C343 H346 0.929 1_554 S
C344 C343 1.363 . S
C344 C350 1.428 . S
H345 C341 0.917 1_655 S
H346 C343 0.929 1_556 S
S347 N348 1.613 . S
S347 N349 1.610 . S
N348 S347 1.613 . S
N348 C351 1.350 . S
N349 S347 1.610 . S
N349 C350 1.351 . S
C350 C344 1.428 . S
C350 N349 1.351 . S
C350 C351 1.434 . S
C351 C342 1.429 1_455 S
C351 N348 1.350 . S
C351 C350 1.434 . S
C352 C353 1.369 . S
C352 C354 1.419 . S
C352 H356 0.930 . S
C353 C352 1.369 . S
C353 C362 1.429 . S
C354 C352 1.419 . S
C354 C355 1.363 1_545 S
C354 H357 0.929 . S
C355 C354 1.363 1_565 S
C355 C361 1.428 . S
H356 C352 0.930 . S
H357 C354 0.929 . S
S358 N359 1.613 1_565 S
S358 N360 1.610 . S
N359 S358 1.613 1_545 S
N359 C362 1.350 . S
N360 S358 1.610 . S
N360 C361 1.351 . S
C361 C355 1.428 . S
C361 N360 1.351 . S
C361 C362 1.434 1_565 S
C362 C353 1.429 . S
C362 N359 1.350 . S
C362 C361 1.434 1_545 S
C363 C364 1.369 . S
C363 C365 1.419 . S
C363 H367 0.930 . S
C364 C363 1.369 . S
C364 C373 1.429 . S
C365 C363 1.419 . S
C365 C366 1.363 . S
C365 H368 0.929 . S
C366 C365 1.363 . S
C366 C372 1.428 . S
H367 C363 0.930 . S
H368 C365 0.929 . S
S369 N370 1.613 . S
S369 N371 1.610 . S
N370 S369 1.613 . S
N370 C373 1.350 . S
N371 S369 1.610 . S
N371 C372 1.351 . S
C372 C366 1.428 . S
C372 N371 1.351 . S
C372 C373 1.434 . S
C373 C364 1.429 . S
C373 N370 1.350 . S
C373 C372 1.434 . S
C374 C375 1.369 1_655 S
C374 C376 1.419 . S
C374 H378 0.930 . S
C375 C374 1.369 1_455 S
C375 C384 1.429 1_455 S
C376 C374 1.419 . S
C376 C377 1.363 . S
C376 H379 0.929 . S
C377 C376 1.363 . S
C377 C383 1.428 . S
H378 C374 0.930 . S
H379 C376 0.929 . S
S380 N381 1.613 . S
S380 N382 1.610 . S
N381 S380 1.613 . S
N381 C384 1.350 . S
N382 S380 1.610 . S
N382 C383 1.351 . S
C383 C377 1.428 . S
C383 N382 1.351 . S
C383 C384 1.434 . S
C384 C375 1.429 1_655 S
C384 N381 1.350 . S
C384 C383 1.434 . S
C385 C386 1.369 1_565 S
C385 C387 1.419 . S
C385 H389 0.930 . S
C386 C385 1.369 1_545 S
C386 C395 1.433 1_545 S
C387 C385 1.419 . S
C387 C388 1.363 . S
C387 H390 0.929 . S
C388 C387 1.363 . S
C388 C394 1.428 . S
H389 C385 0.930 . S
H390 C387 0.929 . S
S391 N392 1.613 . S
S391 N393 1.610 1_545 S
N392 S391 1.613 . S
N392 C395 1.340 1_545 S
N393 S391 1.610 1_565 S
N393 C394 1.351 . S
C394 C388 1.428 . S
C394 N393 1.351 . S
C394 C395 1.439 . S
C395 C386 1.433 1_565 S
C395 N392 1.340 1_565 S
C395 C394 1.439 . S
C396 C397 1.369 . S
C396 C398 1.419 1_556 S
C396 H400 0.930 1_556 S
C397 C396 1.369 . S
C397 C406 1.429 . S
C398 C396 1.419 1_554 S
C398 C399 1.363 1_554 S
C398 H401 0.929 . S
C399 C398 1.363 1_556 S
C399 C405 1.428 . S
H400 C396 0.930 1_554 S
H401 C398 0.929 . S
S402 N403 1.613 . S
S402 N404 1.610 . S
N403 S402 1.613 . S
N403 C406 1.350 . S
N404 S402 1.610 . S
N404 C405 1.351 . S
C405 C399 1.428 . S
C405 N404 1.351 . S
C405 C406 1.434 . S
C406 C397 1.429 . S
C406 N403 1.350 . S
C406 C405 1.434 . S
C407 C408 1.369 1_455 S
C407 C409 1.419 . S
C407 H411 0.930 1_455 S
C408 C407 1.369 1_655 S
C408 C417 1.429 1_655 S
C409 C407 1.419 . S
C409 C410 1.363 . S
C409 H412 0.929 . S
C410 C409 1.363 . S
C410 C416 1.428 . S
H411 C407 0.930 1_655 S
H412 C409 0.929 . S
S413 N414 1.613 . S
S413 N415 1.610 . S
N414 S413 1.613 . S
N414 C417 1.350 . S
N415 S413 1.610 . S
N415 C416 1.351 . S
C416 C410 1.428 . S
C416 N415 1.351 . S
C416 C417 1.434 . S
C417 C408 1.429 1_455 S
C417 N414 1.350 . S
C417 C416 1.434 . S
C418 C419 1.369 1_545 S
C418 C420 1.419 . S
C418 H422 0.930 . S
C419 C418 1.369 1_565 S
C419 C428 1.429 . S
C420 C418 1.419 . S
C420 C421 1.363 . S
C420 H423 0.929 . S
C421 C420 1.363 . S
C421 C427 1.428 . S
H422 C418 0.930 . S
H423 C420 0.929 . S
S424 N425 1.613 . S
S424 N426 1.610 1_565 S
N425 S424 1.613 . S
N425 C428 1.350 . S
N426 S424 1.610 1_545 S
N426 C427 1.351 . S
C427 C421 1.428 . S
C427 N426 1.351 . S
C427 C428 1.434 1_545 S
C428 C419 1.429 . S
C428 N425 1.350 . S
C428 C427 1.434 1_565 S
C429 C430 1.369 . S
C429 C431 1.419 . S
C429 H433 0.930 . S
C430 C429 1.369 . S
C430 C439 1.429 . S
C431 C429 1.419 . S
C431 C432 1.363 . S
C431 H434 0.929 . S
C432 C431 1.363 . S
C432 C438 1.428 . S
H433 C429 0.930 . S
H434 C431 0.929 . S
S435 N436 1.613 . S
S435 N437 1.610 . S
N436 S435 1.613 . S
N436 C439 1.350 . S
N437 S435 1.610 . S
N437 C438 1.351 . S
C438 C432 1.428 . S
C438 N437 1.351 . S
C438 C439 1.434 . S
C439 C430 1.429 . S
C439 N436 1.350 . S
C439 C438 1.434 . S
C440 C441 1.369 . S
C440 C442 1.419 . S
C440 H444 0.930 . S
C441 C440 1.369 . S
C441 C450 1.429 . S
C442 C440 1.419 . S
C442 C443 1.363 1_655 S
C442 H445 0.929 1_655 S
C443 C442 1.363 1_455 S
C443 C449 1.428 1_455 S
H444 C440 0.930 . S
H445 C442 0.929 1_455 S
S446 N447 1.613 . S
S446 N448 1.610 . S
N447 S446 1.613 . S
N447 C450 1.350 . S
N448 S446 1.610 . S
N448 C449 1.351 . S
C449 C443 1.428 1_655 S
C449 N448 1.351 . S
C449 C450 1.434 . S
C450 C441 1.429 . S
C450 N447 1.350 . S
C450 C449 1.434 . S
C451 C452 1.369 . S
C451 C453 1.419 . S
C451 H455 0.930 . S
C452 C451 1.369 . S
C452 C461 1.429 . S
C453 C451 1.419 . S
C453 C454 1.363 1_565 S
C453 H456 0.929 . S
C454 C453 1.363 1_545 S
C454 C460 1.428 . S
H455 C451 0.930 . S
H456 C453 0.929 . S
S457 N458 1.613 1_545 S
S457 N459 1.610 . S
N458 S457 1.613 1_565 S
N458 C461 1.350 . S
N459 S457 1.610 . S
N459 C460 1.351 . S
C460 C454 1.428 . S
C460 N459 1.351 . S
C460 C461 1.434 1_545 S
C461 C452 1.429 . S
C461 N458 1.350 . S
C461 C460 1.434 1_565 S
C462 C463 1.369 . S
C462 C464 1.419 . S
C462 H466 0.930 . S
C463 C462 1.369 . S
C463 C472 1.429 . S
C464 C462 1.419 . S
C464 C465 1.363 . S
C464 H467 0.929 . S
C465 C464 1.363 . S
C465 C471 1.428 . S
H466 C462 0.930 . S
H467 C464 0.929 . S
S468 N469 1.613 . S
S468 N470 1.610 . S
N469 S468 1.613 . S
N469 C472 1.350 1_554 S
N470 S468 1.610 . S
N470 C471 1.351 1_554 S
C471 C465 1.428 . S
C471 N470 1.351 1_556 S
C471 C472 1.434 . S
C472 C463 1.429 . S
C472 N469 1.350 1_556 S
C472 C471 1.434 . S
C473 C474 1.369 . S
C473 C475 1.419 . S
C473 H477 0.930 . S
C474 C473 1.369 . S
C474 C483 1.429 . S
C475 C473 1.419 . S
C475 C476 1.363 . S
C475 H478 0.929 . S
C476 C475 1.363 . S
C476 C482 1.428 . S
H477 C473 0.930 . S
H478 C475 0.929 . S
S479 N480 1.613 . S
S479 N481 1.610 . S
N480 S479 1.613 . S
N480 C483 1.350 . S
N481 S479 1.610 . S
N481 C482 1.351 . S
C482 C476 1.428 . S
C482 N481 1.351 . S
C482 C483 1.434 . S
C483 C474 1.429 . S
C483 N480 1.350 . S
C483 C482 1.434 . S
C484 C485 1.369 . S
C484 C486 1.419 . S
C484 H488 0.930 . S
C485 C484 1.369 . S
C485 C494 1.429 . S
C486 C484 1.419 . S
C486 C487 1.363 . S
C486 H489 0.929 . S
C487 C486 1.363 . S
C487 C493 1.428 . S
H488 C484 0.930 . S
H489 C486 0.929 . S
S490 N491 1.613 . S
S490 N492 1.610 . S
N491 S490 1.613 . S
N491 C494 1.350 . S
N492 S490 1.610 . S
N492 C493 1.351 . S
C493 C487 1.428 . S
C493 N492 1.351 . S
C493 C494 1.434 . S
C494 C485 1.429 . S
C494 N491 1.350 . S
C494 C493 1.434 . S
C495 C496 1.369 . S
C495 C497 1.419 . S
C495 H499 0.930 . S
C496 C495 1.369 . S
C496 C505 1.429 . S
C497 C495 1.419 . S
C497 C498 1.363 . S
C497 H500 0.929 . S
C498 C497 1.363 . S
C498 C504 1.428 . S
H499 C495 0.930 . S
H500 C497 0.929 . S
S501 N502 1.613 . S
S501 N503 1.610 . S
N502 S501 1.613 . S
N502 C505 1.350 . S
N503 S501 1.610 . S
N503 C504 1.351 . S
C504 C498 1.428 . S
C504 N503 1.351 . S
C504 C505 1.434 . S
C505 C496 1.429 . S
C505 N502 1.350 . S
C505 C504 1.434 . S
C506 C507 1.369 . S
C506 C508 1.419 . S
C506 H510 0.930 . S
C507 C506 1.369 . S
C507 C516 1.429 . S
C508 C506 1.419 . S
C508 C509 1.363 . S
C508 H511 0.929 . S
C509 C508 1.363 . S
C509 C515 1.428 . S
H510 C506 0.930 . S
H511 C508 0.929 . S
S512 N513 1.613 . S
S512 N514 1.610 . S
N513 S512 1.613 . S
N513 C516 1.350 . S
N514 S512 1.610 . S
N514 C515 1.351 . S
C515 C509 1.428 . S
C515 N514 1.351 . S
C515 C516 1.434 . S
C516 C507 1.429 . S
C516 N513 1.350 . S
C516 C515 1.434 . S
C517 C518 1.369 . S
C517 C519 1.419 . S
C517 H521 0.930 . S
C518 C517 1.369 . S
C518 C527 1.429 . S
C519 C517 1.419 . S
C519 C520 1.363 . S
C519 H522 0.929 . S
C520 C519 1.363 . S
C520 C526 1.428 . S
H521 C517 0.930 . S
H522 C519 0.929 . S
S523 N524 1.613 . S
S523 N525 1.610 . S
N524 S523 1.613 . S
N524 C527 1.350 . S
N525 S523 1.610 . S
N525 C526 1.351 . S
C526 C520 1.428 . S
C526 N525 1.351 . S
C526 C527 1.434 . S
C527 C518 1.429 . S
C527 N524 1.350 . S
C527 C526 1.434 . S
C528 C529 1.369 . S
C528 C530 1.419 . S
C528 H532 0.930 . S
C529 C528 1.369 . S
C529 C538 1.429 . S
C530 C528 1.419 . S
C530 C531 1.363 . S
C530 H533 0.929 . S
C531 C530 1.363 . S
C531 C537 1.428 . S
H532 C528 0.930 . S
H533 C530 0.929 . S
S534 N535 1.613 . S
S534 N536 1.610 . S
N535 S534 1.613 . S
N535 C538 1.350 . S
N536 S534 1.610 . S
N536 C537 1.351 . S
C537 C531 1.428 . S
C537 N536 1.351 . S
C537 C538 1.434 . S
C538 C529 1.429 . S
C538 N535 1.350 . S
C538 C537 1.434 . S
C539 C540 1.369 . S
C539 C541 1.419 1_455 S
C539 H543 0.930 . S
C540 C539 1.369 . S
C540 C549 1.429 . S
C541 C539 1.419 1_655 S
C541 C542 1.363 . S
C541 H544 0.929 . S
C542 C541 1.363 . S
C542 C548 1.428 . S
H543 C539 0.930 . S
H544 C541 0.929 . S
S545 N546 1.613 . S
S545 N547 1.610 1_455 S
N546 S545 1.613 . S
N546 C549 1.350 . S
N547 S545 1.610 1_655 S
N547 C548 1.351 . S
C548 C542 1.428 . S
C548 N547 1.351 . S
C548 C549 1.434 1_655 S
C549 C540 1.429 . S
C549 N546 1.350 . S
C549 C548 1.434 1_455 S
C550 C551 1.369 . S
C550 C552 1.419 1_545 S
C550 H554 0.930 . S
C551 C550 1.369 . S
C551 C560 1.429 . S
C552 C550 1.419 1_565 S
C552 C553 1.363 . S
C552 H555 0.929 . S
C553 C552 1.363 . S
C553 C559 1.428 . S
H554 C550 0.930 . S
H555 C552 0.929 . S
S556 N557 1.619 . S
S556 N558 1.591 1_545 S
N557 S556 1.619 . S
N557 C560 1.350 . S
N558 S556 1.591 1_565 S
N558 C559 1.351 . S
C559 C553 1.428 . S
C559 N558 1.351 . S
C559 C560 1.434 1_565 S
C560 C551 1.429 . S
C560 N557 1.350 . S
C560 C559 1.434 1_545 S
C561 C562 1.369 . S
C561 C563 1.419 . S
C561 H565 0.930 . S
C562 C561 1.369 . S
C562 C571 1.429 . S
C563 C561 1.419 . S
C563 C564 1.363 . S
C563 H566 0.929 . S
C564 C563 1.363 . S
C564 C570 1.428 . S
H565 C561 0.930 . S
H566 C563 0.929 . S
S567 N568 1.613 . S
S567 N569 1.610 . S
N568 S567 1.613 . S
N568 C571 1.350 . S
N569 S567 1.610 . S
N569 C570 1.351 . S
C570 C564 1.428 . S
C570 N569 1.351 . S
C570 C571 1.434 . S
C571 C562 1.429 . S
C571 N568 1.350 . S
C571 C570 1.434 . S
C572 C573 1.369 . S
C572 C574 1.419 1_455 S
C572 H576 0.930 . S
C573 C572 1.369 . S
C573 C582 1.429 . S
C574 C572 1.419 1_655 S
C574 C575 1.363 . S
C574 H577 0.929 . S
C575 C574 1.363 . S
C575 C581 1.428 . S
H576 C572 0.930 . S
H577 C574 0.929 . S
S578 N579 1.613 . S
S578 N580 1.622 . S
N579 S578 1.613 . S
N579 C582 1.350 . S
N580 S578 1.622 . S
N580 C581 1.356 1_455 S
C581 C575 1.428 . S
C581 N580 1.356 1_655 S
C581 C582 1.434 1_655 S
C582 C573 1.429 . S
C582 N579 1.350 . S
C582 C581 1.434 1_455 S
C583 C584 1.369 . S
C583 C585 1.418 1_545 S
C583 H587 0.930 1_545 S
C584 C583 1.369 . S
C584 C593 1.429 1_556 S
C585 C583 1.418 1_565 S
C585 C586 1.363 1_556 S
C585 H588 0.929 . S
C586 C585 1.363 1_554 S
C586 C592 1.428 1_565 S
H587 C583 0.930 1_565 S
H588 C585 0.929 . S
S589 N590 1.613 . S
S589 N591 1.610 . S
N590 S589 1.613 . S
N590 C593 1.350 . S
N591 S589 1.610 . S
N591 C592 1.351 . S
C592 C586 1.428 1_545 S
C592 N591 1.351 . S
C592 C593 1.434 . S
C593 C584 1.429 1_554 S
C593 N590 1.350 . S
C593 C592 1.434 . S
C594 C595 1.369 . S
C594 C596 1.419 . S
C594 H598 0.930 . S
C595 C594 1.369 . S
C595 C604 1.429 . S
C596 C594 1.419 . S
C596 C597 1.363 . S
C596 H599 0.929 . S
C597 C596 1.363 . S
C597 C603 1.428 . S
H598 C594 0.930 . S
H599 C596 0.929 . S
S600 N601 1.613 . S
S600 N602 1.610 . S
N601 S600 1.613 . S
N601 C604 1.350 . S
N602 S600 1.610 . S
N602 C603 1.351 . S
C603 C597 1.428 . S
C603 N602 1.351 . S
C603 C604 1.434 . S
C604 C595 1.429 . S
C604 N601 1.350 . S
C604 C603 1.434 . S
C605 C606 1.369 . S
C605 C607 1.419 . S
C605 H609 0.930 . S
C606 C605 1.369 . S
C606 C615 1.429 . S
C607 C605 1.419 . S
C607 C608 1.363 . S
C607 H610 0.929 . S
C608 C607 1.363 . S
C608 C614 1.428 . S
H609 C605 0.930 . S
H610 C607 0.929 . S
S611 N612 1.613 . S
S611 N613 1.610 . S
N612 S611 1.613 . S
N612 C615 1.350 . S
N613 S611 1.610 . S
N613 C614 1.351 . S
C614 C608 1.428 . S
C614 N613 1.351 . S
C614 C615 1.434 . S
C615 C606 1.429 . S
C615 N612 1.350 . S
C615 C614 1.434 . S
C616 C617 1.369 . S
C616 C618 1.419 . S
C616 H620 0.930 . S
C617 C616 1.369 . S
C617 C626 1.429 . S
C618 C616 1.419 . S
C618 C619 1.363 . S
C618 H621 0.929 . S
C619 C618 1.363 . S
C619 C625 1.428 . S
H620 C616 0.930 . S
H621 C618 0.929 . S
S622 N623 1.613 . S
S622 N624 1.610 . S
N623 S622 1.613 . S
N623 C626 1.350 . S
N624 S622 1.610 . S
N624 C625 1.351 . S
C625 C619 1.428 . S
C625 N624 1.351 . S
C625 C626 1.434 . S
C626 C617 1.429 . S
C626 N623 1.350 . S
C626 C625 1.434 . S
C627 C628 1.369 . S
C627 C629 1.419 . S
C627 H631 0.930 . S
C628 C627 1.369 . S
C628 C637 1.429 . S
C629 C627 1.419 . S
C629 C630 1.363 . S
C629 H632 0.929 . S
C630 C629 1.363 . S
C630 C636 1.428 . S
H631 C627 0.930 . S
H632 C629 0.929 . S
S633 N634 1.613 . S
S633 N635 1.610 . S
N634 S633 1.613 . S
N634 C637 1.350 . S
N635 S633 1.610 . S
N635 C636 1.351 . S
C636 C630 1.428 . S
C636 N635 1.351 . S
C636 C637 1.434 . S
C637 C628 1.429 . S
C637 N634 1.350 . S
C637 C636 1.434 . S
C638 C639 1.369 . S
C638 C640 1.419 . S
C638 H642 0.930 . S
C639 C638 1.369 . S
C639 C648 1.429 . S
C640 C638 1.419 . S
C640 C641 1.363 . S
C640 H643 0.929 1_556 S
C641 C640 1.363 . S
C641 C647 1.428 . S
H642 C638 0.930 . S
H643 C640 0.929 1_554 S
S644 N645 1.613 . S
S644 N646 1.610 . S
N645 S644 1.613 . S
N645 C648 1.350 . S
N646 S644 1.610 . S
N646 C647 1.351 . S
C647 C641 1.428 . S
C647 N646 1.351 . S
C647 C648 1.434 . S
C648 C639 1.429 . S
C648 N645 1.350 . S
C648 C647 1.434 . S
C649 C650 1.369 . S
C649 C651 1.419 . S
C649 H653 0.930 . S
C650 C649 1.369 . S
C650 C659 1.429 . S
C651 C649 1.419 . S
C651 C652 1.363 . S
C651 H654 0.929 . S
C652 C651 1.363 . S
C652 C658 1.428 . S
H653 C649 0.930 . S
H654 C651 0.929 . S
S655 N656 1.613 . S
S655 N657 1.610 . S
N656 S655 1.613 . S
N656 C659 1.350 . S
N657 S655 1.610 . S
N657 C658 1.351 . S
C658 C652 1.428 . S
C658 N657 1.351 . S
C658 C659 1.434 . S
C659 C650 1.429 . S
C659 N656 1.350 . S
C659 C658 1.434 . S
C265 C229 1.321 . S
C267 C5 1.322 . S
C276 C31 1.323 1_556 S
C278 C247 1.322 . S
C287 C141 1.322 1_554 S
C289 C49 1.322 . S
C298 C75 1.323 . S
C300 C159 1.322 . S
C309 C93 1.321 . S
C311 C185 1.321 . S
C320 C203 1.323 . S
C322 C119 1.322 . S
C331 C6 1.315 . S
C333 C116 1.436 . S
C342 C29 1.316 . S
C344 C7 1.435 . S
C353 C28 1.433 . S
C355 C50 1.321 . S
C364 C73 1.322 . S
C366 C51 1.432 . S
C375 C94 1.315 . S
C377 C72 1.436 . S
C386 C117 1.313 . S
C388 C95 1.436 . S
C397 C139 1.318 . S
C399 C161 1.435 . S
C408 C160 1.328 . S
C410 C182 1.430 . S
C419 C183 1.314 . S
C421 C205 1.436 . S
C430 C226 1.431 . S
C432 C204 1.324 . S
C441 C249 1.429 . S
C443 C227 1.327 . S
C452 C138 1.432 . S
C454 C248 1.322 . S
C463 C4 1.345 . S
C465 C140 1.349 . S
C474 C158 1.349 . S
C476 C30 1.346 . S
C485 C48 1.347 . S
C487 C184 1.347 . S
C496 C74 1.348 . S
C498 C202 1.346 . S
C507 C228 1.344 . S
C509 C92 1.350 . S
C518 C118 1.345 . S
C520 C246 1.349 . S
C529 C9 1.314 . S
C531 C207 1.306 . S
C540 C225 1.303 . S
C542 C27 1.305 . S
C551 C251 1.303 . S
C553 C53 1.306 . S
C562 C71 1.307 . S
C564 C137 1.314 . S
C573 C97 1.315 . S
C575 C163 1.307 . S
C584 C115 1.314 . S
C586 C181 1.306 . S
C595 C224 1.885 . S
C597 C8 1.885 . S
C606 C250 1.883 . S
C608 C26 1.883 . S
C617 C136 1.883 . S
C619 C52 1.883 . S
C628 C162 1.883 . S
C630 C70 1.883 . S
C639 C96 1.884 . S
C641 C180 1.884 1_556 S
C650 C114 1.885 1_554 S
C652 C206 1.885 . S
