# Generated by pormake.
# Topology hjm, (4)-cn, num edge types: 1
# Building blocks:
#     Node 0, Type 0, BuildingBlock: GALJAG_clean_sbu_0, # of connection points: 4
#     Node 1, Type 0, BuildingBlock: GALJAG_clean_sbu_0, # of connection points: 4
#     Node 2, Type 0, BuildingBlock: GALJAG_clean_sbu_0, # of connection points: 4
#     Node 3, Type 0, BuildingBlock: GALJAG_clean_sbu_0, # of connection points: 4
#     Node 4, Type 0, BuildingBlock: GALJAG_clean_sbu_0, # of connection points: 4
#     Node 5, Type 0, BuildingBlock: GALJAG_clean_sbu_0, # of connection points: 4
#     Node 6, Type 0, BuildingBlock: GALJAG_clean_sbu_0, # of connection points: 4
#     Node 7, Type 0, BuildingBlock: GALJAG_clean_sbu_0, # of connection points: 4
#     Edge 8, Type (0, 0), BuildingBlock: AJUNOK_clean_linker_0, # of connection points: 2
#     Edge 9, Type (0, 0), BuildingBlock: AJUNOK_clean_linker_0, # of connection points: 2
#     Edge 10, Type (0, 0), BuildingBlock: AJUNOK_clean_linker_0, # of connection points: 2
#     Edge 11, Type (0, 0), BuildingBlock: AJUNOK_clean_linker_0, # of connection points: 2
#     Edge 12, Type (0, 0), BuildingBlock: AJUNOK_clean_linker_0, # of connection points: 2
#     Edge 13, Type (0, 0), BuildingBlock: AJUNOK_clean_linker_0, # of connection points: 2
#     Edge 14, Type (0, 0), BuildingBlock: AJUNOK_clean_linker_0, # of connection points: 2
#     Edge 15, Type (0, 0), BuildingBlock: AJUNOK_clean_linker_0, # of connection points: 2
#     Edge 16, Type (0, 0), BuildingBlock: AJUNOK_clean_linker_0, # of connection points: 2
#     Edge 17, Type (0, 0), BuildingBlock: AJUNOK_clean_linker_0, # of connection points: 2
#     Edge 18, Type (0, 0), BuildingBlock: AJUNOK_clean_linker_0, # of connection points: 2
#     Edge 19, Type (0, 0), BuildingBlock: AJUNOK_clean_linker_0, # of connection points: 2
#     Edge 20, Type (0, 0), BuildingBlock: AJUNOK_clean_linker_0, # of connection points: 2
#     Edge 21, Type (0, 0), BuildingBlock: AJUNOK_clean_linker_0, # of connection points: 2
#     Edge 22, Type (0, 0), BuildingBlock: AJUNOK_clean_linker_0, # of connection points: 2
#     Edge 23, Type (0, 0), BuildingBlock: AJUNOK_clean_linker_0, # of connection points: 2
# Relax obj value: 0.069
# Max RMSD: 0.136
# Mean RMSD: 0.136
data_MOF--net-hjm--node1-GALJAG_clean_sbu_0--edge1-AJUNOK_clean_linker_0
_symmetry_space_group_name_H-M    P1
_symmetry_Int_Tables_number       1
_symmetry_cell_setting            triclinic
loop_
_symmetry_equiv_pos_as_xyz
'x, y, z'
_cell_length_a     18.757582
_cell_length_b     15.653682
_cell_length_c     18.670378
_cell_angle_alpha  90.038622
_cell_angle_beta   68.467629
_cell_angle_gamma 89.953758
loop_
_atom_site_label
_atom_site_type_symbol
_atom_site_fract_x
_atom_site_fract_y
_atom_site_fract_z
_atom_type_partial_charge
In0 In 0.18536 0.27221 0.35222 0.0
O1 O 0.0948 0.37506 0.36626 0.0
O2 O 0.1288 0.3495 0.46101 0.0
C3 C 0.22298 0.24922 0.19995 0.0
C4 C 0.09752 0.14114 0.4278 0.0
C5 C 0.32948 0.30283 0.34426 0.0
O6 O 0.20053 0.32013 0.23278 0.0
O7 O 0.22361 0.18898 0.24459 0.0
O8 O 0.29794 0.23058 0.36118 0.0
O9 O 0.28668 0.36076 0.33548 0.0
C10 C 0.08489 0.39011 0.43572 0.0
O11 O 0.15428 0.16696 0.44289 0.0
O12 O 0.08784 0.17901 0.3724 0.0
In13 In 0.81401 0.323 0.19325 0.0
O14 O 0.89745 0.43485 0.16623 0.0
O15 O 0.8278 0.42028 0.09926 0.0
C16 C 0.81295 0.29136 0.33562 0.0
C17 C 0.89849 0.20829 0.0881 0.0
C18 C 0.66047 0.32605 0.23635 0.0
O19 O 0.82416 0.36538 0.30675 0.0
O20 O 0.8065 0.23369 0.29133 0.0
O21 O 0.69959 0.25855 0.21723 0.0
O22 O 0.699 0.39338 0.23136 0.0
C23 C 0.88073 0.46127 0.11036 0.0
O24 O 0.83092 0.22796 0.09562 0.0
O25 O 0.92278 0.24508 0.13484 0.0
In26 In 0.78885 0.77007 0.70566 0.0
O27 O 0.84077 0.63707 0.69622 0.0
O28 O 0.83877 0.69403 0.59402 0.0
C29 C 0.77104 0.76816 0.85567 0.0
C30 C 0.87848 0.89931 0.62587 0.0
C31 C 0.63984 0.77197 0.72251 0.0
O32 O 0.83007 0.73792 0.80411 0.0
O33 O 0.72419 0.80318 0.83093 0.0
O34 O 0.67683 0.83843 0.72515 0.0
O35 O 0.67875 0.70379 0.70901 0.0
C36 C 0.85936 0.63145 0.62427 0.0
O37 O 0.8227 0.87027 0.61148 0.0
O38 O 0.88733 0.86577 0.68343 0.0
In39 In 0.16791 0.82293 0.79534 0.0
O40 O 0.14915 0.9361 0.87694 0.0
O41 O 0.07241 0.92269 0.81829 0.0
C42 C 0.31405 0.79765 0.78217 0.0
C43 C 0.08028 0.70204 0.89098 0.0
C44 C 0.19333 0.81766 0.64309 0.0
O45 O 0.28234 0.87019 0.7945 0.0
O46 O 0.27129 0.73695 0.77795 0.0
O47 O 0.14211 0.77398 0.69219 0.0
O48 O 0.23007 0.86659 0.6707 0.0
C49 C 0.09007 0.96329 0.86764 0.0
O50 O 0.07551 0.72017 0.82719 0.0
O51 O 0.13148 0.74271 0.90541 0.0
In52 In 0.68543 0.67819 0.32536 0.0
O53 O 0.58683 0.77212 0.36294 0.0
O54 O 0.66416 0.77528 0.42239 0.0
C55 C 0.6991 0.68794 0.17705 0.0
C56 C 0.6154 0.54191 0.41029 0.0
C57 C 0.83583 0.69489 0.28973 0.0
O58 O 0.64856 0.72858 0.22991 0.0
O59 O 0.73898 0.63745 0.19935 0.0
O60 O 0.80202 0.62391 0.30769 0.0
O61 O 0.79281 0.75851 0.29435 0.0
C62 C 0.60412 0.8049 0.41605 0.0
O63 O 0.66544 0.5852 0.42385 0.0
O64 O 0.6026 0.56522 0.35146 0.0
In65 In 0.31053 0.73466 0.16357 0.0
O66 O 0.40259 0.83412 0.15004 0.0
O67 O 0.34325 0.83995 0.07287 0.0
C68 C 0.27767 0.76213 0.31511 0.0
C69 C 0.39206 0.60213 0.07921 0.0
C70 C 0.16625 0.71136 0.1732 0.0
O71 O 0.33802 0.72337 0.27376 0.0
O72 O 0.23632 0.78835 0.2797 0.0
O73 O 0.20501 0.65274 0.18807 0.0
O74 O 0.20208 0.78021 0.14936 0.0
C75 C 0.39576 0.87005 0.09245 0.0
O76 O 0.37251 0.66619 0.05004 0.0
O77 O 0.36942 0.60364 0.15182 0.0
In78 In 0.33151 0.17821 0.72264 0.0
O79 O 0.41638 0.06723 0.69561 0.0
O80 O 0.35468 0.08922 0.6218 0.0
C81 C 0.31912 0.19823 0.86972 0.0
C82 C 0.42193 0.29619 0.62767 0.0
C83 C 0.18021 0.18309 0.75218 0.0
O84 O 0.31715 0.1252 0.84146 0.0
O85 O 0.33131 0.25904 0.8226 0.0
O86 O 0.2199 0.24924 0.74755 0.0
O87 O 0.2171 0.11371 0.73933 0.0
C88 C 0.40588 0.04685 0.63465 0.0
O89 O 0.35659 0.2773 0.62745 0.0
O90 O 0.44043 0.25728 0.6774 0.0
In91 In 0.71241 0.23315 0.81488 0.0
O92 O 0.61048 0.14301 0.83764 0.0
O93 O 0.67896 0.12987 0.90574 0.0
C94 C 0.74801 0.24457 0.66196 0.0
C95 C 0.62053 0.36113 0.89424 0.0
C96 C 0.85591 0.21188 0.81179 0.0
O97 O 0.71047 0.18266 0.70143 0.0
O98 O 0.76602 0.30156 0.70021 0.0
O99 O 0.81784 0.27923 0.83749 0.0
O100 O 0.82101 0.15561 0.78907 0.0
C101 C 0.62045 0.10589 0.8933 0.0
O102 O 0.65418 0.31075 0.92394 0.0
O103 O 0.63721 0.35127 0.82295 0.0
C104 C 0.05181 0.04343 0.54154 0.0
C105 C 0.0427 0.07699 0.47551 0.0
C106 C 0.9979 0.98691 0.59044 0.0
C107 C 0.93269 0.96214 0.57538 0.0
H108 H 0.10063 0.06139 0.55602 0.0
H109 H 0.00771 0.96218 0.64024 0.0
S110 S 0.88411 0.02853 0.40776 0.0
N111 N 0.96476 0.07898 0.39614 0.0
N112 N 0.86337 0.97338 0.48813 0.0
C113 C 0.92334 0.99448 0.50903 0.0
C114 C 0.97837 0.05169 0.45908 0.0
C115 C 0.07183 0.08417 0.95949 0.0
C116 C 0.04133 0.03048 0.91752 0.0
C117 C 0.02524 0.14193 0.01391 0.0
C118 C 0.94629 0.14819 0.02853 0.0
H119 H 0.13209 0.08075 0.95106 0.0
H120 H 0.05136 0.18157 0.0451 0.0
S121 S 0.83816 0.02126 0.93413 0.0
N122 N 0.92734 0.98697 0.89406 0.0
N123 N 0.8397 0.09613 0.99592 0.0
C124 C 0.91525 0.09599 0.98586 0.0
C125 C 0.9628 0.03702 0.93041 0.0
C126 C 0.45472 0.38729 0.51045 0.0
C127 C 0.47355 0.35698 0.57218 0.0
C128 C 0.50194 0.44567 0.45751 0.0
C129 C 0.57024 0.47511 0.46348 0.0
H130 H 0.40259 0.36665 0.50333 0.0
H131 H 0.48335 0.47019 0.41318 0.0
S132 S 0.64314 0.4196 0.61741 0.0
N133 N 0.56379 0.36325 0.63813 0.0
N134 N 0.65321 0.47196 0.53761 0.0
C135 C 0.59002 0.44514 0.52478 0.0
C136 C 0.54163 0.38609 0.57918 0.0
C137 C 0.49431 0.55751 0.95556 0.0
C138 C 0.44547 0.53686 0.03118 0.0
C139 C 0.55094 0.50037 0.91112 0.0
C140 C 0.56056 0.42073 0.94089 0.0
H141 H 0.49031 0.61929 0.93115 0.0
H142 H 0.58831 0.5193 0.85381 0.0
S143 S 0.43596 0.32785 0.1273 0.0
N144 N 0.40285 0.42589 0.12855 0.0
N145 N 0.5094 0.31856 0.04507 0.0
C146 C 0.50938 0.39729 0.01443 0.0
C147 C 0.45169 0.45532 0.05959 0.0
C148 C 0.98542 0.56993 0.07132 0.0
C149 C 0.92607 0.52779 0.05656 0.0
C150 C 0.03484 0.62618 0.01753 0.0
C151 C 0.0277 0.64135 0.94621 0.0
H152 H 0.99486 0.5581 0.12422 0.0
H153 H 0.07963 0.6571 0.03168 0.0
S154 S 0.88203 0.54599 0.87878 0.0
N155 N 0.86161 0.50674 0.96605 0.0
N156 N 0.95711 0.60846 0.86313 0.0
C157 C 0.96856 0.59956 0.93056 0.0
C158 C 0.91692 0.54408 0.98629 0.0
C159 C 0.99231 0.50983 0.45116 0.0
C160 C 0.02426 0.44775 0.48478 0.0
C161 C 0.93642 0.56684 0.49681 0.0
C162 C 0.90996 0.56317 0.57777 0.0
H163 H 0.01197 0.51577 0.38916 0.0
H164 H 0.91548 0.6156 0.4683 0.0
S165 S 0.96801 0.4044 0.69368 0.0
N166 N 0.02053 0.38059 0.60355 0.0
N167 N 0.91498 0.48697 0.68938 0.0
C168 C 0.93868 0.49842 0.61198 0.0
C169 C 0.99607 0.44098 0.56549 0.0
C170 C 0.49902 0.02182 0.92908 0.0
C171 C 0.56446 0.04499 0.94441 0.0
C172 C 0.44363 0.96707 0.97846 0.0
C173 C 0.45115 0.93417 0.04548 0.0
H174 H 0.49046 0.04589 0.87842 0.0
H175 H 0.39501 0.94969 0.9634 0.0
S176 S 0.61095 0.97705 0.11297 0.0
N177 N 0.63322 0.03145 0.03203 0.0
N178 N 0.52843 0.93032 0.12551 0.0
C179 C 0.51564 0.95805 0.06224 0.0
C180 C 0.57252 0.01285 0.01147 0.0
C181 C 0.56052 0.88193 0.54191 0.0
C182 C 0.55487 0.86881 0.46968 0.0
C183 C 0.51148 0.93901 0.59526 0.0
C184 C 0.45454 0.98414 0.57875 0.0
H185 H 0.60271 0.84748 0.55768 0.0
H186 H 0.51898 0.94872 0.64938 0.0
S187 S 0.42195 0.97927 0.39412 0.0
N188 N 0.49213 0.91037 0.38184 0.0
N189 N 0.39905 0.0163 0.48253 0.0
C190 C 0.44938 0.9728 0.50598 0.0
C191 C 0.49972 0.91533 0.45141 0.0
C192 C 0.31151 0.78912 0.4309 0.0
C193 C 0.25547 0.77532 0.39882 0.0
C194 C 0.29068 0.80609 0.50984 0.0
C195 C 0.21327 0.8063 0.55959 0.0
H196 H 0.3717 0.78811 0.39456 0.0
H197 H 0.33553 0.81682 0.53242 0.0
S198 S 0.04508 0.76694 0.50496 0.0
N199 N 0.11945 0.76068 0.42305 0.0
N200 N 0.08073 0.78764 0.57193 0.0
C201 C 0.15687 0.79012 0.52858 0.0
C202 C 0.17787 0.77578 0.44799 0.0
C203 C 0.8107 0.74047 0.96783 0.0
C204 C 0.75239 0.75265 0.93848 0.0
C205 C 0.79311 0.7172 0.04503 0.0
C206 C 0.7166 0.70668 0.09527 0.0
H207 H 0.87013 0.74904 0.93093 0.0
H208 H 0.8395 0.70906 0.06592 0.0
S209 S 0.5441 0.72929 0.04637 0.0
N210 N 0.61552 0.75097 0.96535 0.0
N211 N 0.58277 0.70958 0.11093 0.0
C212 C 0.65803 0.72014 0.06708 0.0
C213 C 0.67583 0.7428 0.98855 0.0
C214 C 0.83212 0.32935 0.45744 0.0
C215 C 0.80063 0.27463 0.41717 0.0
C216 C 0.81667 0.31747 0.53616 0.0
C217 C 0.76807 0.25136 0.5777 0.0
H218 H 0.86847 0.3821 0.42809 0.0
H219 H 0.84162 0.36169 0.56499 0.0
S220 S 0.6698 0.09202 0.49885 0.0
N221 N 0.71842 0.15222 0.4244 0.0
N222 N 0.68875 0.13046 0.57227 0.0
C223 C 0.73698 0.19562 0.53775 0.0
C224 C 0.75326 0.20727 0.45753 0.0
C225 C 0.26351 0.15549 0.08327 0.0
C226 C 0.24924 0.23799 0.11553 0.0
C227 C 0.28807 0.14312 1.00347 0.0
C228 C 0.30031 0.21287 0.95296 0.0
H229 H 0.25461 0.0998 0.11994 0.0
H230 H 0.29648 0.07838 0.98138 0.0
S231 S 0.27494 0.44233 1.00815 0.0
N232 N 0.25119 0.39069 0.09064 0.0
N233 N 0.29891 0.36781 0.94089 0.0
C234 C 0.28829 0.2959 0.98439 0.0
C235 C 0.26225 0.30836 0.06562 0.0
C236 C 0.45772 0.244 0.32825 0.0
C237 C 0.41273 0.31472 0.32502 0.0
C238 C 0.53771 0.24873 0.29949 0.0
C239 C 0.57596 0.32445 0.26661 0.0
H240 H 0.43114 0.18352 0.35125 0.0
H241 H 0.56982 0.19226 0.30277 0.0
S242 S 0.48542 0.52915 0.24672 0.0
N243 N 0.41259 0.46447 0.28934 0.0
N244 N 0.56344 0.47222 0.23325 0.0
C245 C 0.53203 0.39637 0.26448 0.0
C246 C 0.45025 0.39188 0.29446 0.0
C247 C 0.51438 0.84762 0.77375 0.0
C248 C 0.55651 0.77451 0.73882 0.0
C249 C 0.43575 0.85362 0.7889 0.0
C250 C 0.39597 0.7865 0.77013 0.0
H251 H 0.54244 0.90131 0.78892 0.0
H252 H 0.40621 0.9119 0.81473 0.0
S253 S 0.47898 0.58008 0.68017 0.0
N254 N 0.5523 0.63257 0.68757 0.0
N255 N 0.40407 0.64369 0.7164 0.0
C256 C 0.4369 0.71212 0.73685 0.0
C257 C 0.51726 0.70611 0.72117 0.0
C258 C 0.04325 0.63745 0.24328 0.0
C259 C 0.08258 0.70506 0.1956 0.0
C260 C 0.96324 0.63532 0.27418 0.0
C261 C 0.91982 0.70085 0.2587 0.0
H262 H 0.07437 0.58664 0.25838 0.0
H263 H 0.93522 0.58224 0.31093 0.0
S264 S 0.99501 0.88731 0.13051 0.0
N265 N 0.07221 0.83595 0.12974 0.0
N266 N 0.9214 0.83183 0.18797 0.0
C267 C 0.95822 0.76759 0.2093 0.0
C268 C 0.0398 0.76962 0.17756 0.0
C269 C 0.06028 0.13002 0.73903 0.0
C270 C 0.09681 0.18729 0.77218 0.0
C271 C 0.98169 0.13736 0.75387 0.0
C272 C 0.93701 0.20151 0.80295 0.0
H273 H 0.09294 0.08078 0.69987 0.0
H274 H 0.95602 0.09352 0.72552 0.0
S275 S 0.00404 0.3563 0.91476 0.0
N276 N 0.08188 0.30322 0.86286 0.0
N277 N 0.9337 0.31623 0.892 0.0
C278 C 0.97233 0.25593 0.83979 0.0
C279 C 0.05243 0.24899 0.82402 0.0
loop_
_geom_bond_atom_site_label_1
_geom_bond_atom_site_label_2
_geom_bond_distance
_geom_bond_site_symmetry_2
_ccdc_geom_bond_type
In0 O1 2.294 . S
In0 O2 2.326 . S
In0 O6 2.266 . S
In0 O7 2.326 . S
In0 O8 2.266 . S
In0 O9 2.326 . S
In0 O11 2.294 . S
In0 O12 2.326 . S
O1 In0 2.294 . S
O1 C10 1.240 . S
O2 In0 2.326 . S
O2 C10 1.252 . S
C3 O6 1.252 . S
C3 O7 1.260 . S
C4 O11 1.240 . S
C4 O12 1.252 . S
C5 O8 1.252 . S
C5 O9 1.260 . S
O6 In0 2.266 . S
O6 C3 1.252 . S
O7 In0 2.326 . S
O7 C3 1.260 . S
O8 In0 2.266 . S
O8 C5 1.252 . S
O9 In0 2.326 . S
O9 C5 1.260 . S
C10 O1 1.240 . S
C10 O2 1.252 . S
O11 In0 2.294 . S
O11 C4 1.240 . S
O12 In0 2.326 . S
O12 C4 1.252 . S
In13 O14 2.294 . S
In13 O15 2.326 . S
In13 O19 2.266 . S
In13 O20 2.326 . S
In13 O21 2.266 . S
In13 O22 2.326 . S
In13 O24 2.294 . S
In13 O25 2.326 . S
O14 In13 2.294 . S
O14 C23 1.240 . S
O15 In13 2.326 . S
O15 C23 1.252 . S
C16 O19 1.252 . S
C16 O20 1.260 . S
C17 O24 1.240 . S
C17 O25 1.252 . S
C18 O21 1.252 . S
C18 O22 1.260 . S
O19 In13 2.266 . S
O19 C16 1.252 . S
O20 In13 2.326 . S
O20 C16 1.260 . S
O21 In13 2.266 . S
O21 C18 1.252 . S
O22 In13 2.326 . S
O22 C18 1.260 . S
C23 O14 1.240 . S
C23 O15 1.252 . S
O24 In13 2.294 . S
O24 C17 1.240 . S
O25 In13 2.326 . S
O25 C17 1.252 . S
In26 O27 2.294 . S
In26 O28 2.326 . S
In26 O32 2.266 . S
In26 O33 2.326 . S
In26 O34 2.266 . S
In26 O35 2.326 . S
In26 O37 2.294 . S
In26 O38 2.326 . S
O27 In26 2.294 . S
O27 C36 1.240 . S
O28 In26 2.326 . S
O28 C36 1.252 . S
C29 O32 1.252 . S
C29 O33 1.260 . S
C30 O37 1.240 . S
C30 O38 1.252 . S
C31 O34 1.252 . S
C31 O35 1.260 . S
O32 In26 2.266 . S
O32 C29 1.252 . S
O33 In26 2.326 . S
O33 C29 1.260 . S
O34 In26 2.266 . S
O34 C31 1.252 . S
O35 In26 2.326 . S
O35 C31 1.260 . S
C36 O27 1.240 . S
C36 O28 1.252 . S
O37 In26 2.294 . S
O37 C30 1.240 . S
O38 In26 2.326 . S
O38 C30 1.252 . S
In39 O40 2.294 . S
In39 O41 2.326 . S
In39 O45 2.266 . S
In39 O46 2.326 . S
In39 O47 2.266 . S
In39 O48 2.326 . S
In39 O50 2.294 . S
In39 O51 2.326 . S
O40 In39 2.294 . S
O40 C49 1.240 . S
O41 In39 2.326 . S
O41 C49 1.252 . S
C42 O45 1.252 . S
C42 O46 1.260 . S
C43 O50 1.240 . S
C43 O51 1.252 . S
C44 O47 1.252 . S
C44 O48 1.260 . S
O45 In39 2.266 . S
O45 C42 1.252 . S
O46 In39 2.326 . S
O46 C42 1.260 . S
O47 In39 2.266 . S
O47 C44 1.252 . S
O48 In39 2.326 . S
O48 C44 1.260 . S
C49 O40 1.240 . S
C49 O41 1.252 . S
O50 In39 2.294 . S
O50 C43 1.240 . S
O51 In39 2.326 . S
O51 C43 1.252 . S
In52 O53 2.294 . S
In52 O54 2.326 . S
In52 O58 2.266 . S
In52 O59 2.326 . S
In52 O60 2.266 . S
In52 O61 2.326 . S
In52 O63 2.294 . S
In52 O64 2.326 . S
O53 In52 2.294 . S
O53 C62 1.240 . S
O54 In52 2.326 . S
O54 C62 1.252 . S
C55 O58 1.252 . S
C55 O59 1.260 . S
C56 O63 1.240 . S
C56 O64 1.252 . S
C57 O60 1.252 . S
C57 O61 1.260 . S
O58 In52 2.266 . S
O58 C55 1.252 . S
O59 In52 2.326 . S
O59 C55 1.260 . S
O60 In52 2.266 . S
O60 C57 1.252 . S
O61 In52 2.326 . S
O61 C57 1.260 . S
C62 O53 1.240 . S
C62 O54 1.252 . S
O63 In52 2.294 . S
O63 C56 1.240 . S
O64 In52 2.326 . S
O64 C56 1.252 . S
In65 O66 2.294 . S
In65 O67 2.326 . S
In65 O71 2.266 . S
In65 O72 2.326 . S
In65 O73 2.266 . S
In65 O74 2.326 . S
In65 O76 2.294 . S
In65 O77 2.326 . S
O66 In65 2.294 . S
O66 C75 1.240 . S
O67 In65 2.326 . S
O67 C75 1.252 . S
C68 O71 1.252 . S
C68 O72 1.260 . S
C69 O76 1.240 . S
C69 O77 1.252 . S
C70 O73 1.252 . S
C70 O74 1.260 . S
O71 In65 2.266 . S
O71 C68 1.252 . S
O72 In65 2.326 . S
O72 C68 1.260 . S
O73 In65 2.266 . S
O73 C70 1.252 . S
O74 In65 2.326 . S
O74 C70 1.260 . S
C75 O66 1.240 . S
C75 O67 1.252 . S
O76 In65 2.294 . S
O76 C69 1.240 . S
O77 In65 2.326 . S
O77 C69 1.252 . S
In78 O79 2.294 . S
In78 O80 2.326 . S
In78 O84 2.266 . S
In78 O85 2.326 . S
In78 O86 2.266 . S
In78 O87 2.326 . S
In78 O89 2.294 . S
In78 O90 2.326 . S
O79 In78 2.294 . S
O79 C88 1.240 . S
O80 In78 2.326 . S
O80 C88 1.252 . S
C81 O84 1.252 . S
C81 O85 1.260 . S
C82 O89 1.240 . S
C82 O90 1.252 . S
C83 O86 1.252 . S
C83 O87 1.260 . S
O84 In78 2.266 . S
O84 C81 1.252 . S
O85 In78 2.326 . S
O85 C81 1.260 . S
O86 In78 2.266 . S
O86 C83 1.252 . S
O87 In78 2.326 . S
O87 C83 1.260 . S
C88 O79 1.240 . S
C88 O80 1.252 . S
O89 In78 2.294 . S
O89 C82 1.240 . S
O90 In78 2.326 . S
O90 C82 1.252 . S
In91 O92 2.294 . S
In91 O93 2.326 . S
In91 O97 2.266 . S
In91 O98 2.326 . S
In91 O99 2.266 . S
In91 O100 2.326 . S
In91 O102 2.294 . S
In91 O103 2.326 . S
O92 In91 2.294 . S
O92 C101 1.240 . S
O93 In91 2.326 . S
O93 C101 1.252 . S
C94 O97 1.252 . S
C94 O98 1.260 . S
C95 O102 1.240 . S
C95 O103 1.252 . S
C96 O99 1.252 . S
C96 O100 1.260 . S
O97 In91 2.266 . S
O97 C94 1.252 . S
O98 In91 2.326 . S
O98 C94 1.260 . S
O99 In91 2.266 . S
O99 C96 1.252 . S
O100 In91 2.326 . S
O100 C96 1.260 . S
C101 O92 1.240 . S
C101 O93 1.252 . S
O102 In91 2.294 . S
O102 C95 1.240 . S
O103 In91 2.326 . S
O103 C95 1.252 . S
C104 C105 1.369 . S
C104 C106 1.419 1_455 S
C104 H108 0.930 . S
C105 C104 1.369 . S
C105 C114 1.429 1_545 S
C106 C104 1.419 1_655 S
C106 C107 1.363 1_545 S
C106 H109 0.929 . S
C107 C106 1.363 1_565 S
C107 C113 1.428 . S
H108 C104 0.930 . S
H109 C106 0.929 . S
S110 N111 1.614 1_655 S
S110 N112 1.610 . S
N111 S110 1.614 1_455 S
N111 C114 1.350 . S
N112 S110 1.610 . S
N112 C113 1.351 . S
C113 C107 1.428 . S
C113 N112 1.351 . S
C113 C114 1.434 1_655 S
C114 C105 1.429 1_565 S
C114 N111 1.350 . S
C114 C113 1.434 1_455 S
C115 C116 1.369 1_545 S
C115 C117 1.419 . S
C115 H119 0.930 . S
C116 C115 1.369 1_565 S
C116 C125 1.429 1_456 S
C117 C115 1.419 . S
C117 C118 1.363 1_456 S
C117 H120 0.929 . S
C118 C117 1.363 1_654 S
C118 C124 1.428 1_545 S
H119 C115 0.930 . S
H120 C117 0.929 . S
S121 N122 1.613 . S
S121 N123 1.610 . S
N122 S121 1.613 . S
N122 C125 1.350 . S
N123 S121 1.610 . S
N123 C124 1.351 . S
C124 C118 1.428 1_565 S
C124 N123 1.351 . S
C124 C125 1.434 . S
C125 C116 1.429 1_654 S
C125 N122 1.350 . S
C125 C124 1.434 . S
C126 C127 1.369 . S
C126 C128 1.419 . S
C126 H130 0.930 . S
C127 C126 1.369 . S
C127 C136 1.429 . S
C128 C126 1.419 . S
C128 C129 1.363 . S
C128 H131 0.929 . S
C129 C128 1.363 . S
C129 C135 1.428 . S
H130 C126 0.930 . S
H131 C128 0.929 . S
S132 N133 1.613 . S
S132 N134 1.610 . S
N133 S132 1.613 . S
N133 C136 1.350 . S
N134 S132 1.610 . S
N134 C135 1.351 . S
C135 C129 1.428 . S
C135 N134 1.351 . S
C135 C136 1.434 . S
C136 C127 1.429 . S
C136 N133 1.350 . S
C136 C135 1.434 . S
C137 C138 1.369 1_556 S
C137 C139 1.419 . S
C137 H141 0.930 . S
C138 C137 1.369 1_554 S
C138 C147 1.429 . S
C139 C137 1.419 . S
C139 C140 1.363 . S
C139 H142 0.929 . S
C140 C139 1.363 . S
C140 C146 1.428 1_556 S
H141 C137 0.930 . S
H142 C139 0.929 . S
S143 N144 1.613 . S
S143 N145 1.610 . S
N144 S143 1.613 . S
N144 C147 1.350 . S
N145 S143 1.610 . S
N145 C146 1.351 . S
C146 C140 1.428 1_554 S
C146 N145 1.351 . S
C146 C147 1.434 . S
C147 C138 1.429 . S
C147 N144 1.350 . S
C147 C146 1.434 . S
C148 C149 1.369 1_455 S
C148 C150 1.419 1_554 S
C148 H152 0.930 . S
C149 C148 1.369 1_655 S
C149 C158 1.429 . S
C150 C148 1.419 1_556 S
C150 C151 1.363 . S
C150 H153 0.929 . S
C151 C150 1.363 . S
C151 C157 1.428 1_455 S
H152 C148 0.930 . S
H153 C150 0.929 . S
S154 N155 1.613 1_556 S
S154 N156 1.610 . S
N155 S154 1.613 1_554 S
N155 C158 1.350 . S
N156 S154 1.610 . S
N156 C157 1.351 . S
C157 C151 1.428 1_655 S
C157 N156 1.351 . S
C157 C158 1.434 1_556 S
C158 C149 1.429 . S
C158 N155 1.350 . S
C158 C157 1.434 1_554 S
C159 C160 1.369 . S
C159 C161 1.419 1_455 S
C159 H163 0.930 . S
C160 C159 1.369 . S
C160 C169 1.429 1_455 S
C161 C159 1.419 1_655 S
C161 C162 1.363 . S
C161 H164 0.930 1_655 S
C162 C161 1.363 . S
C162 C168 1.428 . S
H163 C159 0.930 . S
H164 C161 0.930 1_455 S
S165 N166 1.613 . S
S165 N167 1.610 . S
N166 S165 1.613 . S
N166 C169 1.350 . S
N167 S165 1.610 . S
N167 C168 1.351 . S
C168 C162 1.428 . S
C168 N167 1.351 . S
C168 C169 1.434 . S
C169 C160 1.429 1_655 S
C169 N166 1.350 . S
C169 C168 1.434 . S
C170 C171 1.369 1_565 S
C170 C172 1.419 . S
C170 H174 0.930 . S
C171 C170 1.369 1_545 S
C171 C180 1.429 1_556 S
C172 C170 1.419 . S
C172 C173 1.363 1_556 S
C172 H175 0.929 . S
C173 C172 1.363 1_554 S
C173 C179 1.428 1_565 S
H174 C170 0.930 . S
H175 C172 0.929 . S
S176 N177 1.613 . S
S176 N178 1.610 . S
N177 S176 1.613 . S
N177 C180 1.350 . S
N178 S176 1.610 . S
N178 C179 1.351 . S
C179 C173 1.428 1_545 S
C179 N178 1.351 . S
C179 C180 1.434 . S
C180 C171 1.429 1_554 S
C180 N177 1.350 . S
C180 C179 1.434 . S
C181 C182 1.369 . S
C181 C183 1.419 1_565 S
C181 H185 0.930 . S
C182 C181 1.369 . S
C182 C191 1.429 . S
C183 C181 1.419 1_545 S
C183 C184 1.363 . S
C183 H186 0.929 . S
C184 C183 1.363 . S
C184 C190 1.428 . S
H185 C181 0.930 . S
H186 C183 0.929 . S
S187 N188 1.613 . S
S187 N189 1.610 1_565 S
N188 S187 1.613 . S
N188 C191 1.350 . S
N189 S187 1.610 1_545 S
N189 C190 1.351 . S
C190 C184 1.428 . S
C190 N189 1.351 . S
C190 C191 1.434 1_545 S
C191 C182 1.429 . S
C191 N188 1.350 . S
C191 C190 1.434 1_565 S
C192 C193 1.369 . S
C192 C194 1.419 . S
C192 H196 0.930 . S
C193 C192 1.369 . S
C193 C202 1.429 . S
C194 C192 1.419 . S
C194 C195 1.363 . S
C194 H197 0.929 . S
C195 C194 1.363 . S
C195 C201 1.428 . S
H196 C192 0.930 . S
H197 C194 0.929 . S
S198 N199 1.613 . S
S198 N200 1.610 . S
N199 S198 1.613 . S
N199 C202 1.350 . S
N200 S198 1.610 . S
N200 C201 1.351 . S
C201 C195 1.428 . S
C201 N200 1.351 . S
C201 C202 1.434 . S
C202 C193 1.429 . S
C202 N199 1.350 . S
C202 C201 1.434 . S
C203 C204 1.369 . S
C203 C205 1.419 1_556 S
C203 H207 0.930 . S
C204 C203 1.369 . S
C204 C213 1.429 . S
C205 C203 1.419 1_554 S
C205 C206 1.363 . S
C205 H208 0.929 . S
C206 C205 1.363 . S
C206 C212 1.428 . S
H207 C203 0.930 . S
H208 C205 0.929 . S
S209 N210 1.613 1_554 S
S209 N211 1.610 . S
N210 S209 1.613 1_556 S
N210 C213 1.350 . S
N211 S209 1.610 . S
N211 C212 1.351 . S
C212 C206 1.428 . S
C212 N211 1.351 . S
C212 C213 1.434 1_554 S
C213 C204 1.429 . S
C213 N210 1.350 . S
C213 C212 1.434 1_556 S
C214 C215 1.369 . S
C214 C216 1.419 . S
C214 H218 0.930 . S
C215 C214 1.369 . S
C215 C224 1.429 . S
C216 C214 1.419 . S
C216 C217 1.363 . S
C216 H219 0.929 . S
C217 C216 1.363 . S
C217 C223 1.428 . S
H218 C214 0.930 . S
H219 C216 0.929 . S
S220 N221 1.613 . S
S220 N222 1.610 . S
N221 S220 1.613 . S
N221 C224 1.350 . S
N222 S220 1.610 . S
N222 C223 1.351 . S
C223 C217 1.428 . S
C223 N222 1.351 . S
C223 C224 1.434 . S
C224 C215 1.429 . S
C224 N221 1.350 . S
C224 C223 1.434 . S
C225 C226 1.369 . S
C225 C227 1.419 1_554 S
C225 H229 0.930 . S
C226 C225 1.369 . S
C226 C235 1.429 . S
C227 C225 1.419 1_556 S
C227 C228 1.363 . S
C227 H230 0.929 . S
C228 C227 1.363 . S
C228 C234 1.428 . S
H229 C225 0.930 . S
H230 C227 0.929 . S
S231 N232 1.613 1_556 S
S231 N233 1.610 . S
N232 S231 1.613 1_554 S
N232 C235 1.350 . S
N233 S231 1.610 . S
N233 C234 1.351 . S
C234 C228 1.428 . S
C234 N233 1.351 . S
C234 C235 1.434 1_556 S
C235 C226 1.429 . S
C235 N232 1.350 . S
C235 C234 1.434 1_554 S
C236 C237 1.369 . S
C236 C238 1.419 . S
C236 H240 0.930 . S
C237 C236 1.369 . S
C237 C246 1.429 . S
C238 C236 1.419 . S
C238 C239 1.363 . S
C238 H241 0.929 . S
C239 C238 1.363 . S
C239 C245 1.428 . S
H240 C236 0.930 . S
H241 C238 0.929 . S
S242 N243 1.613 . S
S242 N244 1.610 . S
N243 S242 1.613 . S
N243 C246 1.350 . S
N244 S242 1.610 . S
N244 C245 1.351 . S
C245 C239 1.428 . S
C245 N244 1.351 . S
C245 C246 1.434 . S
C246 C237 1.429 . S
C246 N243 1.350 . S
C246 C245 1.434 . S
C247 C248 1.369 . S
C247 C249 1.419 . S
C247 H251 0.930 . S
C248 C247 1.369 . S
C248 C257 1.429 . S
C249 C247 1.419 . S
C249 C250 1.363 . S
C249 H252 0.929 . S
C250 C249 1.363 . S
C250 C256 1.428 . S
H251 C247 0.930 . S
H252 C249 0.929 . S
S253 N254 1.613 . S
S253 N255 1.610 . S
N254 S253 1.613 . S
N254 C257 1.350 . S
N255 S253 1.610 . S
N255 C256 1.351 . S
C256 C250 1.428 . S
C256 N255 1.351 . S
C256 C257 1.434 . S
C257 C248 1.429 . S
C257 N254 1.350 . S
C257 C256 1.434 . S
C258 C259 1.369 . S
C258 C260 1.419 1_455 S
C258 H262 0.930 . S
C259 C258 1.369 . S
C259 C268 1.429 . S
C260 C258 1.419 1_655 S
C260 C261 1.363 . S
C260 H263 0.929 . S
C261 C260 1.363 . S
C261 C267 1.428 . S
H262 C258 0.930 . S
H263 C260 0.929 . S
S264 N265 1.613 . S
S264 N266 1.610 1_455 S
N265 S264 1.613 . S
N265 C268 1.350 . S
N266 S264 1.610 1_655 S
N266 C267 1.351 . S
C267 C261 1.428 . S
C267 N266 1.351 . S
C267 C268 1.434 1_655 S
C268 C259 1.429 . S
C268 N265 1.350 . S
C268 C267 1.434 1_455 S
C269 C270 1.369 . S
C269 C271 1.419 1_455 S
C269 H273 0.930 . S
C270 C269 1.369 . S
C270 C279 1.429 . S
C271 C269 1.419 1_655 S
C271 C272 1.363 . S
C271 H274 0.929 . S
C272 C271 1.363 . S
C272 C278 1.428 . S
H273 C269 0.930 . S
H274 C271 0.929 . S
S275 N276 1.613 1_655 S
S275 N277 1.610 . S
N276 S275 1.613 1_455 S
N276 C279 1.350 . S
N277 S275 1.610 . S
N277 C278 1.351 . S
C278 C272 1.428 . S
C278 N277 1.351 . S
C278 C279 1.434 1_655 S
C279 C270 1.429 . S
C279 N276 1.350 . S
C279 C278 1.434 1_455 S
C105 C4 1.783 . S
C107 C30 1.779 . S
C116 C49 1.782 . S
C118 C17 1.780 . S
C127 C82 1.781 . S
C129 C56 1.780 . S
C138 C69 1.782 . S
C140 C95 1.780 . S
C149 C23 1.334 . S
C151 C43 1.328 . S
C160 C10 1.329 . S
C162 C36 1.332 . S
C171 C101 1.333 . S
C173 C75 1.329 . S
C182 C62 1.327 . S
C184 C88 1.333 . S
C193 C68 1.533 . S
C195 C44 1.535 . S
C204 C29 1.535 . S
C206 C55 1.534 . S
C215 C16 1.536 . S
C217 C94 1.533 . S
C226 C3 1.533 . S
C228 C81 1.535 . S
C237 C5 1.552 . S
C239 C18 1.552 . S
C248 C31 1.550 . S
C250 C42 1.550 . S
C259 C70 1.552 . S
C261 C57 1.551 . S
C270 C83 1.550 . S
C272 C96 1.550 . S
