# Generated by pormake.
# Topology zfv, (5)-cn, num edge types: 1
# Building blocks:
#     Node 0, Type 0, BuildingBlock: BEQFEK_clean_sbu_0, # of connection points: 5
#     Node 1, Type 0, BuildingBlock: BEQFEK_clean_sbu_0, # of connection points: 5
#     Node 2, Type 0, BuildingBlock: BEQFEK_clean_sbu_0, # of connection points: 5
#     Node 3, Type 0, BuildingBlock: BEQFEK_clean_sbu_0, # of connection points: 5
#     Node 4, Type 0, BuildingBlock: BEQFEK_clean_sbu_0, # of connection points: 5
#     Node 5, Type 0, BuildingBlock: BEQFEK_clean_sbu_0, # of connection points: 5
#     Node 6, Type 0, BuildingBlock: BEQFEK_clean_sbu_0, # of connection points: 5
#     Node 7, Type 0, BuildingBlock: BEQFEK_clean_sbu_0, # of connection points: 5
#     Node 8, Type 0, BuildingBlock: BEQFEK_clean_sbu_0, # of connection points: 5
#     Node 9, Type 0, BuildingBlock: BEQFEK_clean_sbu_0, # of connection points: 5
#     Node 10, Type 0, BuildingBlock: BEQFEK_clean_sbu_0, # of connection points: 5
#     Node 11, Type 0, BuildingBlock: BEQFEK_clean_sbu_0, # of connection points: 5
#     Node 12, Type 0, BuildingBlock: BEQFEK_clean_sbu_0, # of connection points: 5
#     Node 13, Type 0, BuildingBlock: BEQFEK_clean_sbu_0, # of connection points: 5
#     Node 14, Type 0, BuildingBlock: BEQFEK_clean_sbu_0, # of connection points: 5
#     Node 15, Type 0, BuildingBlock: BEQFEK_clean_sbu_0, # of connection points: 5
#     Edge 16, Type (0, 0), BuildingBlock: KIFKEQ_clean_linker_1, # of connection points: 2
#     Edge 17, Type (0, 0), BuildingBlock: KIFKEQ_clean_linker_1, # of connection points: 2
#     Edge 18, Type (0, 0), BuildingBlock: KIFKEQ_clean_linker_1, # of connection points: 2
#     Edge 19, Type (0, 0), BuildingBlock: KIFKEQ_clean_linker_1, # of connection points: 2
#     Edge 20, Type (0, 0), BuildingBlock: KIFKEQ_clean_linker_1, # of connection points: 2
#     Edge 21, Type (0, 0), BuildingBlock: KIFKEQ_clean_linker_1, # of connection points: 2
#     Edge 22, Type (0, 0), BuildingBlock: KIFKEQ_clean_linker_1, # of connection points: 2
#     Edge 23, Type (0, 0), BuildingBlock: KIFKEQ_clean_linker_1, # of connection points: 2
#     Edge 24, Type (0, 0), BuildingBlock: KIFKEQ_clean_linker_1, # of connection points: 2
#     Edge 25, Type (0, 0), BuildingBlock: KIFKEQ_clean_linker_1, # of connection points: 2
#     Edge 26, Type (0, 0), BuildingBlock: KIFKEQ_clean_linker_1, # of connection points: 2
#     Edge 27, Type (0, 0), BuildingBlock: KIFKEQ_clean_linker_1, # of connection points: 2
#     Edge 28, Type (0, 0), BuildingBlock: KIFKEQ_clean_linker_1, # of connection points: 2
#     Edge 29, Type (0, 0), BuildingBlock: KIFKEQ_clean_linker_1, # of connection points: 2
#     Edge 30, Type (0, 0), BuildingBlock: KIFKEQ_clean_linker_1, # of connection points: 2
#     Edge 31, Type (0, 0), BuildingBlock: KIFKEQ_clean_linker_1, # of connection points: 2
#     Edge 32, Type (0, 0), BuildingBlock: KIFKEQ_clean_linker_1, # of connection points: 2
#     Edge 33, Type (0, 0), BuildingBlock: KIFKEQ_clean_linker_1, # of connection points: 2
#     Edge 34, Type (0, 0), BuildingBlock: KIFKEQ_clean_linker_1, # of connection points: 2
#     Edge 35, Type (0, 0), BuildingBlock: KIFKEQ_clean_linker_1, # of connection points: 2
#     Edge 36, Type (0, 0), BuildingBlock: KIFKEQ_clean_linker_1, # of connection points: 2
#     Edge 37, Type (0, 0), BuildingBlock: KIFKEQ_clean_linker_1, # of connection points: 2
#     Edge 38, Type (0, 0), BuildingBlock: KIFKEQ_clean_linker_1, # of connection points: 2
#     Edge 39, Type (0, 0), BuildingBlock: KIFKEQ_clean_linker_1, # of connection points: 2
#     Edge 40, Type (0, 0), BuildingBlock: KIFKEQ_clean_linker_1, # of connection points: 2
#     Edge 41, Type (0, 0), BuildingBlock: KIFKEQ_clean_linker_1, # of connection points: 2
#     Edge 42, Type (0, 0), BuildingBlock: KIFKEQ_clean_linker_1, # of connection points: 2
#     Edge 43, Type (0, 0), BuildingBlock: KIFKEQ_clean_linker_1, # of connection points: 2
#     Edge 44, Type (0, 0), BuildingBlock: KIFKEQ_clean_linker_1, # of connection points: 2
#     Edge 45, Type (0, 0), BuildingBlock: KIFKEQ_clean_linker_1, # of connection points: 2
#     Edge 46, Type (0, 0), BuildingBlock: KIFKEQ_clean_linker_1, # of connection points: 2
#     Edge 47, Type (0, 0), BuildingBlock: KIFKEQ_clean_linker_1, # of connection points: 2
#     Edge 48, Type (0, 0), BuildingBlock: KIFKEQ_clean_linker_1, # of connection points: 2
#     Edge 49, Type (0, 0), BuildingBlock: KIFKEQ_clean_linker_1, # of connection points: 2
#     Edge 50, Type (0, 0), BuildingBlock: KIFKEQ_clean_linker_1, # of connection points: 2
#     Edge 51, Type (0, 0), BuildingBlock: KIFKEQ_clean_linker_1, # of connection points: 2
#     Edge 52, Type (0, 0), BuildingBlock: KIFKEQ_clean_linker_1, # of connection points: 2
#     Edge 53, Type (0, 0), BuildingBlock: KIFKEQ_clean_linker_1, # of connection points: 2
#     Edge 54, Type (0, 0), BuildingBlock: KIFKEQ_clean_linker_1, # of connection points: 2
#     Edge 55, Type (0, 0), BuildingBlock: KIFKEQ_clean_linker_1, # of connection points: 2
# Relax obj value: 0.068
# Max RMSD: 0.133
# Mean RMSD: 0.133
data_MOF--net-zfv--node1-BEQFEK_clean_sbu_0--edge1-KIFKEQ_clean_linker_1
_symmetry_space_group_name_H-M    P1
_symmetry_Int_Tables_number       1
_symmetry_cell_setting            triclinic
loop_
_symmetry_equiv_pos_as_xyz
'x, y, z'
_cell_length_a     76.862259
_cell_length_b     76.86127
_cell_length_c     19.640004
_cell_angle_alpha  90.025712
_cell_angle_beta   90.033741
_cell_angle_gamma 90.007204
loop_
_atom_site_label
_atom_site_type_symbol
_atom_site_fract_x
_atom_site_fract_y
_atom_site_fract_z
_atom_type_partial_charge
Co0 Co 0.01209 0.60839 0.16103 0.0
Co1 Co 0.01384 0.61431 0.00307 0.0
C2 C 0.98448 0.62849 0.08527 0.0
O3 O 0.99108 0.62201 0.13907 0.0
O4 O 0.99176 0.62662 0.02729 0.0
C5 C 0.99726 0.60103 0.29339 0.0
O6 O 0.98218 0.60377 0.26373 0.0
C7 C 0.00684 0.6124 0.85426 0.0
C8 C 0.03388 0.61076 0.81633 0.0
C9 C 0.01668 0.61017 0.79558 0.0
N10 N 0.01783 0.61392 0.90735 0.0
N11 N 0.03393 0.61325 0.88399 0.0
C12 C 0.98749 0.61128 0.86093 0.0
H13 H 0.98381 0.60759 0.91361 0.0
H14 H 0.98211 0.60172 0.82414 0.0
H15 H 0.98177 0.62421 0.84947 0.0
C16 C 0.01404 0.5715 0.11701 0.0
N17 N 0.01357 0.58869 0.10373 0.0
N18 N 0.01416 0.59112 0.03741 0.0
C19 C 0.01516 0.57549 0.00643 0.0
C20 C 0.01516 0.56259 0.05575 0.0
C21 C 0.01383 0.56391 0.1871 0.0
H22 H 0.02376 0.5705 0.219 0.0
H23 H 0.00093 0.56635 0.21057 0.0
H24 H 0.0164 0.54971 0.1863 0.0
O25 O 0.03281 0.62353 0.1515 0.0
O26 O 0.03375 0.62759 0.03988 0.0
H27 H 0.0272 0.5786 0.90907 0.0
H28 H 0.0146 0.55889 0.9169 0.0
C29 C 0.01522 0.57285 0.93092 0.0
H30 H 0.00381 0.57949 0.90846 0.0
H31 H 0.045 0.61377 0.91476 0.0
O32 O 0.01112 0.6017 0.25821 0.0
C33 C 0.03988 0.63022 0.09912 0.0
Co34 Co 0.65328 0.74807 0.42049 0.0
Co35 Co 0.64766 0.75065 0.26258 0.0
C36 C 0.63327 0.72089 0.34301 0.0
O37 O 0.63971 0.72715 0.39752 0.0
O38 O 0.63522 0.72852 0.28573 0.0
C39 C 0.66038 0.73322 0.55333 0.0
O40 O 0.65748 0.71812 0.52411 0.0
C41 C 0.65013 0.74358 0.11427 0.0
C42 C 0.65092 0.77056 0.07531 0.0
C43 C 0.65208 0.75333 0.05525 0.0
N44 N 0.64819 0.75463 0.16688 0.0
N45 N 0.64837 0.77069 0.14294 0.0
C46 C 0.65181 0.72429 0.12173 0.0
H47 H 0.65569 0.72088 0.1745 0.0
H48 H 0.66147 0.71908 0.08498 0.0
H49 H 0.63904 0.71817 0.11081 0.0
C50 C 0.69023 0.7496 0.37777 0.0
N51 N 0.67307 0.74964 0.36387 0.0
N52 N 0.6708 0.75084 0.29757 0.0
C53 C 0.68652 0.7519 0.26734 0.0
C54 C 0.69927 0.75113 0.31709 0.0
C55 C 0.69771 0.74822 0.44786 0.0
H56 H 0.69199 0.75848 0.48071 0.0
H57 H 0.69412 0.73543 0.46995 0.0
H58 H 0.71209 0.74954 0.44742 0.0
O59 O 0.63816 0.76885 0.41129 0.0
O60 O 0.6344 0.77054 0.29963 0.0
H61 H 0.68276 0.76468 0.17176 0.0
H62 H 0.70341 0.75368 0.17912 0.0
C63 C 0.68939 0.75298 0.19211 0.0
H64 H 0.68375 0.74132 0.16739 0.0
H65 H 0.64745 0.78181 0.17328 0.0
O66 O 0.65985 0.74703 0.51776 0.0
C67 C 0.63164 0.77628 0.35935 0.0
Co68 Co 0.51478 0.3897 0.65812 0.0
Co69 Co 0.51294 0.38377 0.50016 0.0
C70 C 0.54231 0.36952 0.58247 0.0
O71 O 0.53574 0.376 0.63632 0.0
O72 O 0.53501 0.37143 0.5245 0.0
C73 C 0.52961 0.39708 0.79062 0.0
O74 O 0.54469 0.39435 0.76107 0.0
C75 C 0.52001 0.38582 0.35151 0.0
C76 C 0.49299 0.38705 0.31308 0.0
C77 C 0.51019 0.3879 0.29266 0.0
N78 N 0.509 0.38413 0.40439 0.0
N79 N 0.49291 0.38455 0.38073 0.0
C80 C 0.53933 0.38721 0.35855 0.0
H81 H 0.54291 0.3909 0.41137 0.0
H82 H 0.5446 0.39689 0.32204 0.0
H83 H 0.54525 0.37438 0.34692 0.0
C84 C 0.51301 0.42659 0.61413 0.0
N85 N 0.51338 0.4094 0.60082 0.0
N86 N 0.51264 0.40697 0.5345 0.0
C87 C 0.51159 0.4226 0.50359 0.0
C88 C 0.51177 0.4355 0.55294 0.0
C89 C 0.51345 0.4342 0.68421 0.0
H90 H 0.50338 0.42786 0.71614 0.0
H91 H 0.5263 0.43146 0.70764 0.0
H92 H 0.51122 0.44846 0.68339 0.0
O93 O 0.494 0.37462 0.64845 0.0
O94 O 0.49299 0.37055 0.53683 0.0
H95 H 0.49932 0.41917 0.40679 0.0
H96 H 0.51137 0.43922 0.41417 0.0
C97 C 0.5112 0.42525 0.42811 0.0
H98 H 0.52272 0.41893 0.40508 0.0
H99 H 0.48183 0.38386 0.41128 0.0
O100 O 0.51575 0.39639 0.75532 0.0
C101 C 0.48688 0.36795 0.59608 0.0
Co102 Co 0.87409 0.24979 0.91387 0.0
Co103 Co 0.87817 0.24864 0.75487 0.0
C104 C 0.89287 0.27791 0.83569 0.0
O105 O 0.88697 0.27108 0.89001 0.0
O106 O 0.89065 0.27071 0.77772 0.0
C107 C 0.8637 0.26374 0.04561 0.0
O108 O 0.85807 0.27743 0.01223 0.0
C109 C 0.87645 0.25641 0.60661 0.0
C110 C 0.87031 0.23018 0.56699 0.0
C111 C 0.87249 0.24732 0.54751 0.0
N112 N 0.87634 0.2451 0.65893 0.0
N113 N 0.87296 0.22943 0.63457 0.0
C114 C 0.87872 0.27563 0.61441 0.0
H115 H 0.87278 0.28006 0.66291 0.0
H116 H 0.87283 0.28275 0.57098 0.0
H117 H 0.89283 0.27865 0.61642 0.0
C118 C 0.83652 0.24725 0.87605 0.0
N119 N 0.8536 0.24813 0.86061 0.0
N120 N 0.8554 0.24821 0.79388 0.0
C121 C 0.83951 0.24755 0.76496 0.0
C122 C 0.82709 0.24676 0.81588 0.0
C123 C 0.82941 0.24644 0.9468 0.0
H124 H 0.83826 0.23882 0.97997 0.0
H125 H 0.82845 0.25983 0.96746 0.0
H126 H 0.81623 0.24052 0.94724 0.0
O127 O 0.88931 0.2294 0.89975 0.0
O128 O 0.89209 0.22858 0.78753 0.0
H129 H 0.83939 0.23622 0.6656 0.0
H130 H 0.82226 0.2518 0.67917 0.0
C131 C 0.8361 0.24879 0.69007 0.0
H132 H 0.84427 0.25917 0.6677 0.0
H133 H 0.87184 0.21829 0.66462 0.0
O134 O 0.86982 0.25082 0.01309 0.0
C135 C 0.89547 0.22244 0.84618 0.0
Co136 Co 0.01226 0.38971 0.83596 0.0
Co137 Co 0.01294 0.38321 0.99374 0.0
C138 C 0.98414 0.36933 0.9086 0.0
O139 O 0.9913 0.37569 0.85568 0.0
O140 O 0.99083 0.37134 0.96763 0.0
C141 C 0.99761 0.39766 0.70389 0.0
O142 O 0.98251 0.39532 0.73384 0.0
C143 C 0.00577 0.38531 0.14259 0.0
C144 C 0.03281 0.38534 0.18112 0.0
C145 C 0.01566 0.38695 0.20151 0.0
N146 N 0.01671 0.38317 0.0897 0.0
N147 N 0.0328 0.38285 0.11347 0.0
C148 C 0.98653 0.38752 0.13557 0.0
H149 H 0.98306 0.39096 0.08238 0.0
H150 H 0.98176 0.3977 0.17105 0.0
H151 H 0.98004 0.37508 0.14884 0.0
C152 C 0.01373 0.42643 0.88198 0.0
N153 N 0.01324 0.4092 0.89435 0.0
N154 N 0.01374 0.40654 0.96057 0.0
C155 C 0.01482 0.42207 0.99234 0.0
C156 C 0.01483 0.43512 0.94368 0.0
C157 C 0.01352 0.43428 0.81234 0.0
H158 H 0.00079 0.43152 0.78792 0.0
H159 H 0.01562 0.44856 0.81416 0.0
H160 H 0.02378 0.42814 0.78071 0.0
O161 O 0.03329 0.375 0.84648 0.0
O162 O 0.03262 0.36958 0.95717 0.0
H163 H 0.01583 0.43843 0.08245 0.0
H164 H 0.00329 0.41881 0.09032 0.0
C165 C 0.01521 0.4245 0.06793 0.0
H166 H 0.02667 0.41769 0.08937 0.0
H167 H 0.04385 0.38171 0.08296 0.0
O168 O 0.0115 0.39661 0.73887 0.0
C169 C 0.03955 0.36757 0.89895 0.0
Co170 Co 0.87183 0.74766 0.09243 0.0
Co171 Co 0.8799 0.74875 0.24923 0.0
C172 C 0.89335 0.72004 0.16142 0.0
O173 O 0.88637 0.72694 0.10923 0.0
O174 O 0.89179 0.72685 0.22038 0.0
C175 C 0.86389 0.73324 0.96018 0.0
O176 O 0.86672 0.71817 0.98971 0.0
C177 C 0.87884 0.74115 0.39831 0.0
C178 C 0.8848 0.76738 0.43822 0.0
C179 C 0.88074 0.75061 0.45845 0.0
N180 N 0.88145 0.75202 0.34546 0.0
N181 N 0.88511 0.76761 0.36994 0.0
C182 C 0.87539 0.72209 0.39073 0.0
H183 H 0.87993 0.7174 0.34041 0.0
H184 H 0.86121 0.71964 0.39425 0.0
H185 H 0.88196 0.7147 0.43195 0.0
C186 C 0.83553 0.74793 0.14473 0.0
N187 N 0.85289 0.7482 0.15418 0.0
N188 N 0.85624 0.7494 0.21977 0.0
C189 C 0.84108 0.75056 0.25397 0.0
C190 C 0.82742 0.74941 0.20778 0.0
C191 C 0.82707 0.74532 0.07685 0.0
H192 H 0.83413 0.73511 0.04814 0.0
H193 H 0.81324 0.74141 0.08198 0.0
H194 H 0.82788 0.75759 0.0473 0.0
O195 O 0.88645 0.76894 0.10107 0.0
O196 O 0.89283 0.76855 0.21094 0.0
H197 H 0.82674 0.75975 0.34184 0.0
H198 H 0.84167 0.74214 0.35763 0.0
C199 C 0.83967 0.75432 0.32859 0.0
H200 H 0.84973 0.76386 0.34389 0.0
H201 H 0.88758 0.77853 0.33992 0.0
O202 O 0.86432 0.74706 0.9958 0.0
C203 C 0.89425 0.7754 0.15239 0.0
Co204 Co 0.51379 0.60868 0.3364 0.0
Co205 Co 0.51301 0.61497 0.49425 0.0
C206 C 0.54165 0.62931 0.40981 0.0
O207 O 0.53458 0.62294 0.35667 0.0
O208 O 0.53498 0.62713 0.46873 0.0
C209 C 0.52858 0.60106 0.20437 0.0
O210 O 0.54364 0.60363 0.23443 0.0
C211 C 0.52013 0.61301 0.64315 0.0
C212 C 0.49307 0.61213 0.68126 0.0
C213 C 0.51025 0.61106 0.7019 0.0
N214 N 0.50916 0.61482 0.59012 0.0
N215 N 0.49306 0.61463 0.61362 0.0
C216 C 0.53944 0.61139 0.6364 0.0
H217 H 0.54303 0.60794 0.58336 0.0
H218 H 0.54451 0.60144 0.67223 0.0
H219 H 0.54553 0.62406 0.64932 0.0
C220 C 0.5126 0.57188 0.38159 0.0
N221 N 0.51298 0.5891 0.39432 0.0
N222 N 0.51252 0.59167 0.46059 0.0
C223 C 0.51165 0.5761 0.49206 0.0
C224 C 0.51166 0.5631 0.44313 0.0
C225 C 0.51269 0.56412 0.31174 0.0
H226 H 0.50248 0.57041 0.2803 0.0
H227 H 0.52544 0.5668 0.28735 0.0
H228 H 0.51045 0.54987 0.31319 0.0
O229 O 0.49261 0.62315 0.34693 0.0
O230 O 0.49318 0.62842 0.45775 0.0
H231 H 0.4998 0.57988 0.58943 0.0
H232 H 0.51156 0.55965 0.58197 0.0
C233 C 0.51152 0.5736 0.56762 0.0
H234 H 0.52321 0.57981 0.58981 0.0
H235 H 0.482 0.61543 0.58294 0.0
O236 O 0.51467 0.60187 0.23925 0.0
C237 C 0.48625 0.63044 0.39951 0.0
Co238 Co 0.65585 0.25138 0.5808 0.0
Co239 Co 0.64796 0.2492 0.73784 0.0
C240 C 0.63431 0.27844 0.65232 0.0
O241 O 0.64158 0.27215 0.59956 0.0
O242 O 0.63565 0.27102 0.71024 0.0
C243 C 0.66364 0.26601 0.44861 0.0
O244 O 0.66027 0.28104 0.47761 0.0
C245 C 0.64802 0.25633 0.88763 0.0
C246 C 0.64599 0.22935 0.92573 0.0
C247 C 0.64768 0.24644 0.94707 0.0
N248 N 0.6469 0.24543 0.83399 0.0
N249 N 0.64554 0.22938 0.85743 0.0
C250 C 0.64878 0.27572 0.88164 0.0
H251 H 0.64281 0.28006 0.83319 0.0
H252 H 0.66256 0.28001 0.88195 0.0
H253 H 0.642 0.28196 0.92516 0.0
C254 C 0.69215 0.24991 0.63266 0.0
N255 N 0.6748 0.25017 0.64234 0.0
N256 N 0.67151 0.24906 0.70802 0.0
C257 C 0.68669 0.2477 0.74201 0.0
C258 C 0.70022 0.24825 0.69551 0.0
C259 C 0.70068 0.25074 0.56433 0.0
H260 H 0.69534 0.24031 0.5313 0.0
H261 H 0.69753 0.26339 0.54005 0.0
H262 H 0.71501 0.2493 0.56823 0.0
O263 O 0.64081 0.23045 0.58748 0.0
O264 O 0.63554 0.22912 0.6983 0.0
H265 H 0.68112 0.23455 0.83546 0.0
H266 H 0.70202 0.24529 0.83446 0.0
C267 C 0.68827 0.24622 0.81774 0.0
H268 H 0.68239 0.25784 0.84171 0.0
H269 H 0.64462 0.21835 0.82659 0.0
O270 O 0.6635 0.25225 0.48451 0.0
C271 C 0.63368 0.22313 0.63842 0.0
Co272 Co 0.37254 0.24788 0.58118 0.0
Co273 Co 0.37932 0.2497 0.73867 0.0
C274 C 0.3933 0.22047 0.65431 0.0
O275 O 0.38646 0.22694 0.60098 0.0
O276 O 0.39165 0.22781 0.71229 0.0
C277 C 0.36473 0.23318 0.44924 0.0
O278 O 0.36757 0.21811 0.47873 0.0
C279 C 0.3788 0.24268 0.88839 0.0
C280 C 0.37997 0.26976 0.92614 0.0
C281 C 0.37877 0.25265 0.9476 0.0
N282 N 0.3797 0.25354 0.83466 0.0
N283 N 0.38052 0.26966 0.85787 0.0
C284 C 0.37858 0.22326 0.88278 0.0
H285 H 0.38483 0.21901 0.83479 0.0
H286 H 0.36492 0.21862 0.88243 0.0
H287 H 0.38538 0.21728 0.9268 0.0
C288 C 0.33592 0.24948 0.62848 0.0
N289 N 0.35318 0.24916 0.6403 0.0
N290 N 0.35598 0.25001 0.70636 0.0
C291 C 0.34054 0.25117 0.73862 0.0
C292 C 0.32737 0.25084 0.6904 0.0
C293 C 0.32793 0.24894 0.55907 0.0
H294 H 0.33401 0.25906 0.52655 0.0
H295 H 0.33066 0.23611 0.53548 0.0
H296 H 0.31366 0.25106 0.56104 0.0
O297 O 0.38765 0.26871 0.58975 0.0
O298 O 0.39221 0.26972 0.70107 0.0
H299 H 0.34484 0.26384 0.8341 0.0
H300 H 0.32454 0.25203 0.82965 0.0
C301 C 0.33842 0.25195 0.81429 0.0
H302 H 0.34479 0.24049 0.83751 0.0
H303 H 0.3812 0.28067 0.82688 0.0
O304 O 0.36538 0.24703 0.48459 0.0
C305 C 0.39452 0.27585 0.64168 0.0
Co306 Co 0.15348 0.75084 0.08264 0.0
Co307 Co 0.14781 0.74862 0.24058 0.0
C308 C 0.13339 0.77816 0.15944 0.0
O309 O 0.13984 0.77177 0.10519 0.0
O310 O 0.13535 0.77068 0.21701 0.0
C311 C 0.16068 0.7657 0.95002 0.0
O312 O 0.15787 0.78079 0.97943 0.0
C313 C 0.15004 0.75566 0.3891 0.0
C314 C 0.15126 0.72866 0.4276 0.0
C315 C 0.15213 0.74587 0.44797 0.0
N316 N 0.14831 0.74464 0.33627 0.0
N317 N 0.14874 0.72855 0.35995 0.0
C318 C 0.15145 0.77498 0.38198 0.0
H319 H 0.15524 0.77852 0.32925 0.0
H320 H 0.16106 0.78028 0.41876 0.0
H321 H 0.1386 0.78091 0.39311 0.0
C322 C 0.19043 0.74908 0.12575 0.0
N323 N 0.17326 0.74935 0.13947 0.0
N324 N 0.17096 0.74843 0.2058 0.0
C325 C 0.18664 0.74732 0.2363 0.0
C326 C 0.19945 0.74768 0.18666 0.0
C327 C 0.19792 0.74978 0.05555 0.0
H328 H 0.1917 0.73966 0.02341 0.0
H329 H 0.19494 0.76262 0.03259 0.0
H330 H 0.21222 0.74777 0.05601 0.0
O331 O 0.13841 0.73003 0.09203 0.0
O332 O 0.13461 0.72869 0.20372 0.0
H333 H 0.18327 0.73475 0.33248 0.0
H334 H 0.20342 0.74664 0.32526 0.0
C335 C 0.18942 0.74665 0.31168 0.0
H336 H 0.18324 0.75814 0.33553 0.0
H337 H 0.14801 0.71746 0.32941 0.0
O338 O 0.16007 0.75187 0.98541 0.0
C339 C 0.13189 0.72275 0.14426 0.0
Co340 Co 0.1546 0.24862 0.90997 0.0
Co341 Co 0.14779 0.24935 0.75251 0.0
C342 C 0.13404 0.22056 0.83802 0.0
O343 O 0.14052 0.22762 0.89096 0.0
O344 O 0.13596 0.22733 0.77919 0.0
C345 C 0.16265 0.234 0.04154 0.0
O346 O 0.16018 0.21892 0.01151 0.0
C347 C 0.14828 0.24236 0.60265 0.0
C348 C 0.147 0.26947 0.56537 0.0
C349 C 0.14823 0.25239 0.54362 0.0
N350 N 0.14737 0.25318 0.65657 0.0
N351 N 0.1465 0.26931 0.63364 0.0
C352 C 0.14854 0.22294 0.60788 0.0
H353 H 0.14234 0.21863 0.65588 0.0
H354 H 0.1622 0.21832 0.60793 0.0
H355 H 0.14171 0.21699 0.56382 0.0
C356 C 0.19122 0.25014 0.86273 0.0
N357 N 0.17396 0.24966 0.85097 0.0
N358 N 0.17115 0.25015 0.78487 0.0
C359 C 0.18657 0.2512 0.75249 0.0
C360 C 0.19976 0.25121 0.8007 0.0
C361 C 0.19922 0.25002 0.93216 0.0
H362 H 0.1929 0.26008 0.96427 0.0
H363 H 0.19682 0.23719 0.95627 0.0
H364 H 0.21343 0.25249 0.93006 0.0
O365 O 0.13978 0.26961 0.90028 0.0
O366 O 0.13424 0.26899 0.78969 0.0
H367 H 0.18234 0.26324 0.6558 0.0
H368 H 0.20256 0.25132 0.66134 0.0
C369 C 0.18868 0.25145 0.67676 0.0
H370 H 0.18221 0.23988 0.65475 0.0
H371 H 0.14579 0.28028 0.66483 0.0
O372 O 0.16172 0.24789 0.00663 0.0
C373 C 0.13227 0.27587 0.848 0.0
Co374 Co 0.37175 0.74982 0.41025 0.0
Co375 Co 0.37913 0.74952 0.25298 0.0
C376 C 0.39282 0.77792 0.34054 0.0
O377 O 0.3861 0.7707 0.39262 0.0
O378 O 0.39105 0.77141 0.28115 0.0
C379 C 0.36356 0.7644 0.54171 0.0
O380 O 0.36601 0.77945 0.51156 0.0
C381 C 0.37905 0.75664 0.10302 0.0
C382 C 0.38033 0.72954 0.06555 0.0
C383 C 0.37916 0.74663 0.04388 0.0
N384 N 0.37984 0.7458 0.15689 0.0
N385 N 0.38074 0.72968 0.13383 0.0
C386 C 0.37883 0.77605 0.10843 0.0
H387 H 0.3849 0.78032 0.1568 0.0
H388 H 0.36518 0.78072 0.10783 0.0
H389 H 0.38579 0.782 0.06474 0.0
C390 C 0.3353 0.74864 0.36074 0.0
N391 N 0.3526 0.74911 0.35004 0.0
N392 N 0.35566 0.74881 0.28409 0.0
C393 C 0.34034 0.74791 0.25075 0.0
C394 C 0.32698 0.74779 0.29814 0.0
C395 C 0.32706 0.74852 0.4297 0.0
H396 H 0.33332 0.7384 0.46168 0.0
H397 H 0.32931 0.76129 0.45457 0.0
H398 H 0.31287 0.746 0.42664 0.0
O399 O 0.38638 0.72871 0.40048 0.0
O400 O 0.3924 0.7297 0.29035 0.0
H401 H 0.34485 0.73605 0.15387 0.0
H402 H 0.32469 0.74807 0.15866 0.0
C403 C 0.3385 0.74783 0.1749 0.0
H404 H 0.3451 0.75942 0.15372 0.0
H405 H 0.38135 0.71869 0.16492 0.0
O406 O 0.36445 0.75049 0.50681 0.0
C407 C 0.39406 0.72258 0.34837 0.0
Co408 Co 0.51363 0.1105 0.66302 0.0
Co409 Co 0.51395 0.11441 0.5041 0.0
C410 C 0.48525 0.12945 0.58549 0.0
O411 O 0.49232 0.12355 0.6394 0.0
O412 O 0.49212 0.12711 0.52704 0.0
C413 C 0.49997 0.09957 0.79431 0.0
O414 O 0.4867 0.09314 0.76045 0.0
C415 C 0.50636 0.11303 0.3554 0.0
C416 C 0.53214 0.10469 0.31749 0.0
C417 C 0.51529 0.10818 0.29697 0.0
N418 N 0.51746 0.11218 0.40832 0.0
N419 N 0.53289 0.10747 0.38497 0.0
C420 C 0.48735 0.11682 0.36209 0.0
H421 H 0.48227 0.1111 0.40998 0.0
H422 H 0.47995 0.11165 0.31796 0.0
H423 H 0.48547 0.13112 0.36471 0.0
C424 C 0.51649 0.0729 0.62548 0.0
N425 N 0.51514 0.08996 0.61014 0.0
N426 N 0.51404 0.09172 0.5436 0.0
C427 C 0.51402 0.07582 0.51472 0.0
C428 C 0.5159 0.06337 0.56534 0.0
C429 C 0.51906 0.066 0.69596 0.0
H430 H 0.52615 0.07563 0.72759 0.0
H431 H 0.50616 0.06358 0.71942 0.0
H432 H 0.52638 0.05356 0.69493 0.0
O433 O 0.53402 0.12551 0.64816 0.0
O434 O 0.5343 0.12823 0.53588 0.0
H435 H 0.52279 0.07399 0.41163 0.0
H436 H 0.50543 0.05917 0.43234 0.0
C437 C 0.51054 0.07249 0.44082 0.0
H438 H 0.50082 0.0819 0.42156 0.0
H439 H 0.5438 0.10553 0.4157 0.0
O440 O 0.51262 0.10634 0.76223 0.0
C441 C 0.54074 0.1316 0.59409 0.0
Co442 Co 0.0133 0.88993 0.15904 0.0
Co443 Co 0.0128 0.883 0.00162 0.0
C444 C 0.04128 0.869 0.08812 0.0
O445 O 0.03414 0.87558 0.14067 0.0
O446 O 0.03468 0.87095 0.02897 0.0
C447 C 0.02798 0.89793 0.29052 0.0
O448 O 0.04302 0.89542 0.26034 0.0
C449 C 0.01986 0.8833 0.85172 0.0
C450 C 0.99273 0.88244 0.81435 0.0
C451 C 0.00983 0.88339 0.79265 0.0
N452 N 0.00903 0.88259 0.90561 0.0
N453 N 0.99289 0.88195 0.88262 0.0
C454 C 0.03928 0.88326 0.85702 0.0
H455 H 0.0435 0.87702 0.90511 0.0
H456 H 0.04411 0.89686 0.85694 0.0
H457 H 0.04512 0.87632 0.81304 0.0
C458 C 0.01226 0.92652 0.11141 0.0
N459 N 0.0126 0.90925 0.09983 0.0
N460 N 0.01224 0.9064 0.03374 0.0
C461 C 0.01144 0.92181 0.00118 0.0
C462 C 0.01144 0.93503 0.04925 0.0
C463 C 0.01224 0.93455 0.18078 0.0
H464 H 0.00214 0.92823 0.21263 0.0
H465 H 0.02503 0.9322 0.2053 0.0
H466 H 0.00975 0.94876 0.17848 0.0
O467 O 0.99212 0.87541 0.14885 0.0
O468 O 0.99294 0.86968 0.03844 0.0
H469 H -0.00048 0.91777 0.90406 0.0
H470 H 0.01186 0.93774 0.90988 0.0
C471 C 0.0114 0.92388 0.92543 0.0
H472 H 0.02288 0.91715 0.90392 0.0
H473 H 0.98191 0.88144 0.91376 0.0
O474 O 0.01405 0.89706 0.25571 0.0
C475 C 0.98589 0.86789 0.09652 0.0
Co476 Co 0.51138 0.89007 0.34882 0.0
Co477 Co 0.51286 0.8834 0.50658 0.0
C478 C 0.48376 0.86941 0.42251 0.0
O479 O 0.49041 0.8762 0.36939 0.0
O480 O 0.49094 0.87104 0.48084 0.0
C481 C 0.49667 0.89781 0.21643 0.0
O482 O 0.48158 0.89503 0.24585 0.0
C483 C 0.5057 0.88542 0.6553 0.0
C484 C 0.53272 0.88545 0.69412 0.0
C485 C 0.51555 0.88703 0.71433 0.0
N486 N 0.51668 0.88329 0.60252 0.0
N487 N 0.53275 0.88299 0.62644 0.0
C488 C 0.48646 0.88759 0.64808 0.0
H489 H 0.48303 0.89106 0.59488 0.0
H490 H 0.48164 0.89774 0.68362 0.0
H491 H 0.47999 0.87513 0.66114 0.0
C492 C 0.51332 0.92671 0.39563 0.0
N493 N 0.51276 0.90947 0.40773 0.0
N494 N 0.51294 0.90677 0.47397 0.0
C495 C 0.51353 0.92229 0.50599 0.0
C496 C 0.51376 0.93534 0.45752 0.0
C497 C 0.51308 0.93466 0.32616 0.0
H498 H 0.50056 0.93148 0.30095 0.0
H499 H 0.51465 0.949 0.32845 0.0
H500 H 0.52367 0.92892 0.29499 0.0
O501 O 0.53212 0.875 0.35772 0.0
O502 O 0.53297 0.87047 0.46908 0.0
H503 H 0.51575 0.93863 0.59563 0.0
H504 H 0.50224 0.91963 0.60472 0.0
C505 C 0.51433 0.92473 0.58151 0.0
H506 H 0.52555 0.91742 0.60238 0.0
H507 H 0.54383 0.88187 0.59604 0.0
O508 O 0.51051 0.89712 0.25185 0.0
C509 C 0.53917 0.86813 0.40978 0.0
Co510 Co 0.01571 0.10795 0.83152 0.0
Co511 Co 0.01332 0.11468 0.98892 0.0
C512 C 0.04289 0.12863 0.9061 0.0
O513 O 0.03666 0.12178 0.85232 0.0
O514 O 0.03527 0.12703 0.9635 0.0
C515 C 0.03045 0.10041 0.69931 0.0
O516 O 0.04551 0.10359 0.72839 0.0
C517 C 0.02018 0.11406 0.13866 0.0
C518 C 0.99309 0.11522 0.17613 0.0
C519 C 0.01019 0.11398 0.19777 0.0
N520 N 0.00935 0.11502 0.08482 0.0
N521 N 0.99322 0.11583 0.10786 0.0
C522 C 0.0396 0.11383 0.13323 0.0
H523 H 0.04389 0.12019 0.08554 0.0
H524 H 0.04422 0.10016 0.13242 0.0
H525 H 0.04559 0.12052 0.17753 0.0
C526 C 0.01395 0.07132 0.87856 0.0
N527 N 0.01421 0.08858 0.89049 0.0
N528 N 0.01311 0.09134 0.95652 0.0
C529 C 0.01184 0.07589 0.9886 0.0
C530 C 0.01236 0.06274 0.94034 0.0
C531 C 0.01478 0.06336 0.80914 0.0
H532 H 0.00465 0.0693 0.77625 0.0
H533 H 0.02762 0.0663 0.78607 0.0
H534 H 0.01286 0.04906 0.81095 0.0
O535 O 0.99491 0.12313 0.83915 0.0
O536 O 0.99339 0.12755 0.95047 0.0
H537 H 0.99884 0.08023 0.08332 0.0
H538 H 0.01051 0.05985 0.07943 0.0
C539 C 0.01075 0.07373 0.0642 0.0
H540 H 0.02218 0.08001 0.08819 0.0
H541 H 0.98223 0.11656 0.07675 0.0
O542 O 0.01666 0.10078 0.73498 0.0
C543 C 0.98754 0.12993 0.89067 0.0
H544 H 0.99059 0.6254 0.72125 0.0
H545 H 0.03019 0.58568 0.71257 0.0
H546 H 0.98422 0.62073 0.60048 0.0
H547 H 0.02351 0.58053 0.59316 0.0
H548 H 0.02649 0.59609 0.36929 0.0
H549 H 0.02915 0.59637 0.49214 0.0
H550 H 0.97338 0.6018 0.51106 0.0
H551 H 0.97076 0.60206 0.38699 0.0
C552 C 0.99759 0.61537 0.69388 0.0
C553 C 0.01095 0.60599 0.72579 0.0
C554 C 0.99394 0.61265 0.6248 0.0
C555 C 0.00352 0.6004 0.58682 0.0
C556 C 0.01618 0.59036 0.62031 0.0
C557 C 0.01996 0.59325 0.68877 0.0
C558 C 0.01474 0.59717 0.39945 0.0
C559 C 0.99842 0.59916 0.36824 0.0
C560 C 0.01625 0.5972 0.47016 0.0
C561 C 0.00147 0.59909 0.51168 0.0
C562 C 0.98505 0.60053 0.48056 0.0
C563 C 0.98354 0.60055 0.40949 0.0
H564 H 0.63733 0.72671 0.98237 0.0
H565 H 0.67606 0.76723 0.97103 0.0
H566 H 0.64183 0.7202 0.86167 0.0
H567 H 0.68109 0.76041 0.85168 0.0
H568 H 0.66501 0.76264 0.62842 0.0
H569 H 0.66502 0.76548 0.75114 0.0
H570 H 0.66053 0.70966 0.7716 0.0
H571 H 0.65995 0.70685 0.64759 0.0
C572 C 0.64713 0.73388 0.95443 0.0
C573 C 0.65627 0.74754 0.98557 0.0
C574 C 0.64975 0.73015 0.88537 0.0
C575 C 0.66167 0.73995 0.84663 0.0
C576 C 0.6715 0.75291 0.87939 0.0
C577 C 0.66869 0.75677 0.94782 0.0
C578 C 0.66419 0.75092 0.65887 0.0
C579 C 0.66237 0.73452 0.62811 0.0
C580 C 0.66433 0.75254 0.72953 0.0
C581 C 0.6628 0.73779 0.77149 0.0
C582 C 0.66153 0.7213 0.74079 0.0
C583 C 0.66132 0.71968 0.66975 0.0
H584 H 0.49643 0.41221 0.20951 0.0
H585 H 0.53653 0.37301 0.2187 0.0
H586 H 0.50309 0.41741 0.09017 0.0
H587 H 0.54289 0.37771 0.09798 0.0
H588 H 0.55611 0.39636 0.88436 0.0
H589 H 0.55348 0.39666 0.00843 0.0
H590 H 0.49767 0.40149 0.98921 0.0
H591 H 0.50032 0.40174 0.86639 0.0
C592 C 0.50676 0.40477 0.18584 0.0
C593 C 0.51592 0.39215 0.22298 0.0
C594 C 0.51054 0.40768 0.11741 0.0
C595 C 0.52333 0.39778 0.08406 0.0
C596 C 0.53306 0.38567 0.12217 0.0
C597 C 0.52942 0.38294 0.19123 0.0
C598 C 0.54332 0.39775 0.9068 0.0
C599 C 0.52842 0.39896 0.86547 0.0
C600 C 0.54181 0.39779 0.97787 0.0
C601 C 0.52537 0.39907 0.00892 0.0
C602 C 0.51057 0.40078 0.9673 0.0
C603 C 0.51208 0.4008 0.8966 0.0
H604 H 0.89476 0.26709 0.4721 0.0
H605 H 0.84472 0.2417 0.46588 0.0
H606 H 0.89222 0.27382 0.35004 0.0
H607 H 0.84194 0.24891 0.34481 0.0
H608 H 0.8423 0.28083 0.135 0.0
H609 H 0.84369 0.28008 0.26024 0.0
H610 H 0.88867 0.24665 0.24951 0.0
H611 H 0.887 0.24685 0.12534 0.0
C612 C 0.88304 0.26343 0.445 0.0
C613 C 0.86993 0.2539 0.47783 0.0
C614 C 0.8816 0.26722 0.37553 0.0
C615 C 0.86684 0.26193 0.3387 0.0
C616 C 0.85333 0.25326 0.37252 0.0
C617 C 0.85496 0.24909 0.4414 0.0
C618 C 0.85248 0.27337 0.15959 0.0
C619 C 0.86445 0.26378 0.12068 0.0
C620 C 0.85328 0.27298 0.23087 0.0
C621 C 0.8664 0.26345 0.26386 0.0
C622 C 0.87858 0.25423 0.22494 0.0
C623 C 0.8775 0.25423 0.15407 0.0
H624 H 0.98879 0.3733 0.27634 0.0
H625 H 0.03045 0.41088 0.28364 0.0
H626 H 0.98285 0.37844 0.39717 0.0
H627 H 0.02423 0.41653 0.40302 0.0
H628 H 0.02688 0.40112 0.62701 0.0
H629 H 0.02925 0.40059 0.5041 0.0
H630 H 0.97324 0.39786 0.48689 0.0
H631 H 0.97089 0.39784 0.61104 0.0
C632 C 0.99634 0.38298 0.30341 0.0
C633 C 0.01016 0.39159 0.27112 0.0
C634 C 0.99295 0.38597 0.37253 0.0
C635 C 0.00324 0.39773 0.41015 0.0
C636 C 0.01634 0.40707 0.37621 0.0
C637 C 0.01987 0.4039 0.30774 0.0
C638 C 0.01503 0.40059 0.59722 0.0
C639 C 0.9987 0.39942 0.62896 0.0
C640 C 0.01637 0.40041 0.52645 0.0
C641 C 0.00142 0.3992 0.48537 0.0
C642 C 0.98502 0.39859 0.51702 0.0
C643 C 0.98368 0.39871 0.58814 0.0
H644 H 0.89736 0.76389 0.56793 0.0
H645 H 0.85806 0.72622 0.51254 0.0
H646 H 0.8913 0.75873 0.68768 0.0
H647 H 0.85236 0.72073 0.63316 0.0
H648 H 0.86482 0.70669 0.86672 0.0
H649 H 0.86812 0.70938 0.74314 0.0
H650 H 0.86466 0.76524 0.7606 0.0
H651 H 0.86134 0.76269 0.88337 0.0
C652 C 0.88758 0.75432 0.58124 0.0
C653 C 0.87834 0.74536 0.53043 0.0
C654 C 0.88407 0.75144 0.64985 0.0
C655 C 0.87123 0.73949 0.66956 0.0
C656 C 0.86239 0.72997 0.61918 0.0
C657 C 0.86581 0.73298 0.55006 0.0
C658 C 0.86446 0.71953 0.84404 0.0
C659 C 0.86305 0.73449 0.88502 0.0
C660 C 0.86633 0.72103 0.77335 0.0
C661 C 0.86695 0.73752 0.74267 0.0
C662 C 0.86455 0.75239 0.7832 0.0
C663 C 0.86256 0.7509 0.85351 0.0
H664 H 0.4961 0.58677 0.78407 0.0
H665 H 0.53671 0.62549 0.77688 0.0
H666 H 0.50246 0.58136 0.90351 0.0
H667 H 0.54278 0.62057 0.89775 0.0
H668 H 0.55529 0.60151 0.11162 0.0
H669 H 0.55293 0.60138 0.98746 0.0
H670 H 0.49701 0.59727 0.0045 0.0
H671 H 0.4994 0.59686 0.12743 0.0
C672 C 0.50648 0.59406 0.8082 0.0
C673 C 0.51585 0.60661 0.77159 0.0
C674 C 0.51008 0.59102 0.8767 0.0
C675 C 0.52293 0.60073 0.91067 0.0
C676 C 0.53289 0.61275 0.87308 0.0
C677 C 0.52942 0.61562 0.80393 0.0
C678 C 0.54253 0.60031 0.08868 0.0
C679 C 0.52752 0.59925 0.12945 0.0
C680 C 0.54117 0.60037 0.01757 0.0
C681 C 0.52479 0.59934 0.98587 0.0
C682 C 0.50988 0.59778 0.02691 0.0
C683 C 0.51123 0.59767 0.09767 0.0
H684 H 0.66037 0.29207 0.35394 0.0
H685 H 0.66861 0.23664 0.37308 0.0
H686 H 0.65707 0.28871 0.23068 0.0
H687 H 0.66537 0.2334 0.25052 0.0
H688 H 0.63322 0.23095 0.05679 0.0
H689 H 0.63892 0.2367 0.17653 0.0
H690 H 0.67293 0.2791 0.12145 0.0
H691 H 0.66754 0.27313 0.00099 0.0
C692 C 0.66178 0.27923 0.33185 0.0
C693 C 0.66452 0.26459 0.37349 0.0
C694 C 0.6599 0.27734 0.2613 0.0
C695 C 0.66064 0.26076 0.23132 0.0
C696 C 0.66437 0.24629 0.2725 0.0
C697 C 0.66633 0.24818 0.34271 0.0
C698 C 0.64182 0.24161 0.07006 0.0
C699 C 0.64973 0.25171 0.01919 0.0
C700 C 0.64515 0.24482 0.13865 0.0
C701 C 0.65652 0.25822 0.15823 0.0
C702 C 0.66403 0.26875 0.1077 0.0
C703 C 0.66077 0.26544 0.03867 0.0
H704 H 0.35908 0.26235 0.37366 0.0
H705 H 0.36809 0.20702 0.35497 0.0
H706 H 0.36182 0.26549 0.25095 0.0
H707 H 0.37091 0.21029 0.23147 0.0
H708 H 0.35949 0.22568 0.00199 0.0
H709 H 0.35455 0.21962 0.12272 0.0
H710 H 0.38817 0.26248 0.17648 0.0
H711 H 0.39337 0.26833 0.05655 0.0
C712 C 0.36144 0.25081 0.34334 0.0
C713 C 0.36362 0.23447 0.37422 0.0
C714 C 0.3631 0.25264 0.27307 0.0
C715 C 0.36692 0.23818 0.23198 0.0
C716 C 0.36801 0.22165 0.26208 0.0
C717 C 0.36641 0.21981 0.33273 0.0
C718 C 0.36625 0.23345 0.03948 0.0
C719 C 0.37702 0.24735 0.01968 0.0
C720 C 0.36326 0.23009 0.10861 0.0
C721 C 0.3708 0.24072 0.1588 0.0
C722 C 0.38192 0.25428 0.13884 0.0
C723 C 0.38497 0.25756 0.07017 0.0
H724 H 0.13717 0.77228 0.52135 0.0
H725 H 0.17632 0.73214 0.53183 0.0
H726 H 0.14172 0.77874 0.64209 0.0
H727 H 0.18138 0.73891 0.65123 0.0
H728 H 0.16543 0.73636 0.87462 0.0
H729 H 0.16535 0.7336 0.75184 0.0
H730 H 0.16052 0.7894 0.73199 0.0
H731 H 0.16004 0.79213 0.85603 0.0
C732 C 0.14706 0.76518 0.54911 0.0
C733 C 0.1563 0.75164 0.51771 0.0
C734 C 0.14971 0.76888 0.61819 0.0
C735 C 0.16176 0.75917 0.65668 0.0
C736 C 0.17169 0.74634 0.62369 0.0
C737 C 0.16886 0.7425 0.55523 0.0
C738 C 0.16452 0.74809 0.84429 0.0
C739 C 0.16263 0.76446 0.87522 0.0
C740 C 0.16461 0.74652 0.77361 0.0
C741 C 0.16295 0.76129 0.73182 0.0
C742 C 0.16161 0.77775 0.76269 0.0
C743 C 0.16147 0.77932 0.83373 0.0
H744 H 0.13337 0.26801 0.4352 0.0
H745 H 0.16773 0.22567 0.48858 0.0
H746 H 0.13862 0.26241 0.31511 0.0
H747 H 0.17277 0.21988 0.36766 0.0
H748 H 0.15967 0.2076 0.13488 0.0
H749 H 0.15671 0.21056 0.25844 0.0
H750 H 0.16489 0.26595 0.24094 0.0
H751 H 0.16776 0.26311 0.11816 0.0
C752 C 0.14188 0.25735 0.42127 0.0
C753 C 0.14997 0.24717 0.47146 0.0
C754 C 0.14497 0.25422 0.35251 0.0
C755 C 0.15627 0.24085 0.33217 0.0
C756 C 0.16392 0.23021 0.38206 0.0
C757 C 0.16089 0.23342 0.45128 0.0
C758 C 0.16112 0.22036 0.15757 0.0
C759 C 0.16368 0.23516 0.1166 0.0
C760 C 0.15944 0.22203 0.22825 0.0
C761 C 0.16023 0.23852 0.25894 0.0
C762 C 0.16384 0.25313 0.21838 0.0
C763 C 0.16557 0.25147 0.14806 0.0
H764 H 0.36658 0.79091 0.63464 0.0
H765 H 0.3589 0.73532 0.61896 0.0
H766 H 0.36992 0.78811 0.75808 0.0
H767 H 0.36214 0.73264 0.74169 0.0
H768 H 0.39392 0.73094 0.93535 0.0
H769 H 0.38842 0.73636 0.81529 0.0
H770 H 0.35436 0.77895 0.86794 0.0
H771 H 0.35965 0.77335 0.98882 0.0
C772 C 0.3653 0.77815 0.65754 0.0
C773 C 0.36273 0.7633 0.61686 0.0
C774 C 0.3672 0.77658 0.72819 0.0
C775 C 0.36663 0.76012 0.75916 0.0
C776 C 0.36303 0.74544 0.71892 0.0
C777 C 0.36108 0.74701 0.64862 0.0
C778 C 0.38538 0.74158 0.92144 0.0
C779 C 0.37738 0.75183 0.97168 0.0
C780 C 0.38214 0.74461 0.85269 0.0
C781 C 0.37078 0.75793 0.83237 0.0
C782 C 0.36324 0.76865 0.88229 0.0
C783 C 0.36643 0.76555 0.9515 0.0
H784 H 0.51581 0.12357 0.87431 0.0
H785 H 0.48339 0.07771 0.88341 0.0
H786 H 0.5157 0.12536 0.99835 0.0
H787 H 0.48377 0.07926 0.00855 0.0
H788 H 0.51938 0.07994 0.21644 0.0
H789 H 0.51241 0.07738 0.09514 0.0
H790 H 0.49063 0.12912 0.09772 0.0
H791 H 0.49718 0.13149 0.21993 0.0
C792 C 0.50869 0.11384 0.9029 0.0
C793 C 0.4997 0.10042 0.86936 0.0
C794 C 0.50849 0.11499 0.97374 0.0
C795 C 0.49962 0.10253 0.01257 0.0
C796 C 0.49061 0.08907 0.97935 0.0
C797 C 0.49043 0.08817 0.9081 0.0
C798 C 0.51273 0.09058 0.19129 0.0
C799 C 0.50876 0.1059 0.22704 0.0
C800 C 0.50868 0.08908 0.12224 0.0
C801 C 0.501 0.10305 0.08753 0.0
C802 C 0.49651 0.11817 0.12376 0.0
C803 C 0.50018 0.11951 0.19336 0.0
H804 H 0.03681 0.90251 0.73756 0.0
H805 H 0.99397 0.86874 0.68426 0.0
H806 H 0.04255 0.90756 0.61663 0.0
H807 H -0.00047 0.874 0.56417 0.0
H808 H 0.99898 0.90324 0.36749 0.0
H809 H 0.99622 0.9003 0.49027 0.0
H810 H 0.05155 0.89159 0.5071 0.0
H811 H 0.05443 0.89463 0.38356 0.0
C812 C 0.02893 0.89579 0.70027 0.0
C813 C 0.01505 0.88505 0.72048 0.0
C814 C 0.03212 0.89884 0.63104 0.0
C815 C 0.02133 0.89137 0.58117 0.0
C816 C 0.00784 0.88022 0.60154 0.0
C817 C 0.00473 0.87713 0.6703 0.0
C818 C 0.01062 0.90092 0.39725 0.0
C819 C 0.02689 0.89891 0.36561 0.0
C820 C 0.00902 0.89914 0.46757 0.0
C821 C 0.02362 0.89536 0.50795 0.0
C822 C 0.04008 0.89445 0.47708 0.0
C823 C 0.0417 0.89618 0.40639 0.0
H824 H 0.52603 0.90168 0.14034 0.0
H825 H 0.47012 0.89761 0.12281 0.0
H826 H 0.52863 0.90108 0.01751 0.0
H827 H 0.4727 0.8976 0.99875 0.0
H828 H 0.48871 0.87322 0.7888 0.0
H829 H 0.48259 0.87835 0.90948 0.0
H830 H 0.52372 0.91671 0.91595 0.0
H831 H 0.53014 0.91104 0.79674 0.0
C832 C 0.51424 0.90097 0.11022 0.0
C833 C 0.49788 0.89959 0.14151 0.0
C834 C 0.51572 0.90075 0.03948 0.0
C835 C 0.50086 0.8993 0.99797 0.0
C836 C 0.48442 0.8985 0.02919 0.0
C837 C 0.48294 0.89865 0.10027 0.0
C838 C 0.49618 0.88295 0.81598 0.0
C839 C 0.50997 0.89163 0.78391 0.0
C840 C 0.49268 0.88593 0.88503 0.0
C841 C 0.50284 0.89777 0.9228 0.0
C842 C 0.51594 0.90717 0.88906 0.0
C843 C 0.51957 0.904 0.82068 0.0
H844 H 0.03725 0.09478 0.25207 0.0
H845 H 0.9944 0.12836 0.3069 0.0
H846 H 0.04349 0.08996 0.37273 0.0
H847 H 0.00042 0.12324 0.42681 0.0
H848 H 0.00122 0.0943 0.62452 0.0
H849 H 0.99782 0.09688 0.50185 0.0
H850 H 0.05287 0.10665 0.48088 0.0
H851 H 0.05639 0.10402 0.60434 0.0
C852 C 0.02946 0.1015 0.28959 0.0
C853 C 0.01548 0.11218 0.26987 0.0
C854 C 0.03293 0.09857 0.35868 0.0
C855 C 0.02231 0.10606 0.40896 0.0
C856 C 0.00863 0.11704 0.3891 0.0
C857 C 0.00525 0.12004 0.32044 0.0
C858 C 0.01267 0.09678 0.59389 0.0
C859 C 0.02904 0.09921 0.62434 0.0
C860 C 0.01069 0.09834 0.52363 0.0
C861 C 0.02503 0.1023 0.48214 0.0
C862 C 0.0416 0.10364 0.51182 0.0
C863 C 0.04359 0.10215 0.58245 0.0
H864 H 0.99099 0.53838 0.09055 0.0
H865 H 0.04096 0.54455 0.99381 0.0
H866 H 0.99117 0.50729 0.06168 0.0
H867 H 0.04126 0.51352 0.96514 0.0
H868 H 0.04165 0.45332 0.99768 0.0
H869 H 0.04219 0.48431 0.0274 0.0
H870 H 0.98994 0.48997 0.9494 0.0
H871 H 0.98957 0.45897 0.91915 0.0
C872 C 0.00207 0.53297 0.06385 0.0
C873 C 0.01596 0.54367 0.0443 0.0
C874 C 0.00212 0.5153 0.04682 0.0
C875 C 0.01619 0.50807 0.01082 0.0
C876 C 0.03031 0.51875 0.99314 0.0
C877 C 0.03014 0.53643 0.00941 0.0
C878 C 0.03041 0.46132 0.98632 0.0
C879 C 0.0156 0.45399 0.95606 0.0
C880 C 0.03069 0.47897 0.00326 0.0
C881 C 0.01606 0.48947 0.99107 0.0
C882 C 0.00131 0.4821 0.96 0.0
C883 C 0.00114 0.46449 0.94218 0.0
H884 H 0.81082 0.73107 0.30666 0.0
H885 H 0.80162 0.76774 0.14438 0.0
H886 H 0.78019 0.73213 0.33749 0.0
H887 H 0.77065 0.76784 0.17138 0.0
H888 H 0.71925 0.77816 0.27597 0.0
H889 H 0.75041 0.7779 0.25116 0.0
H890 H 0.75243 0.72329 0.30445 0.0
H891 H 0.72148 0.72407 0.3326 0.0
C892 C 0.80217 0.73929 0.27731 0.0
C893 C 0.80858 0.74939 0.22337 0.0
C894 C 0.78454 0.73973 0.29436 0.0
C895 C 0.77283 0.75008 0.25704 0.0
C896 C 0.77928 0.75996 0.20216 0.0
C897 C 0.79698 0.75971 0.18585 0.0
C898 C 0.72654 0.76623 0.2831 0.0
C899 C 0.71822 0.75117 0.30648 0.0
C900 C 0.74431 0.76597 0.26816 0.0
C901 C 0.75401 0.75053 0.27525 0.0
C902 C 0.74552 0.73549 0.29938 0.0
C903 C 0.72781 0.73586 0.3153 0.0
H904 H 0.53643 0.5391 0.41308 0.0
H905 H 0.48544 0.54494 0.50154 0.0
H906 H 0.53622 0.50804 0.44236 0.0
H907 H 0.48506 0.51391 0.53039 0.0
H908 H 0.48545 0.45372 0.49537 0.0
H909 H 0.48503 0.48477 0.46702 0.0
H910 H 0.53626 0.4906 0.5547 0.0
H911 H 0.53652 0.45951 0.58344 0.0
C912 C 0.52513 0.53362 0.43809 0.0
C913 C 0.51094 0.5442 0.4551 0.0
C914 C 0.52505 0.51597 0.45535 0.0
C915 C 0.51066 0.50864 0.48897 0.0
C916 C 0.49628 0.51922 0.50426 0.0
C917 C 0.49647 0.5369 0.48785 0.0
C918 C 0.49649 0.46176 0.50913 0.0
C919 C 0.511 0.45442 0.54157 0.0
C920 C 0.49627 0.47945 0.49301 0.0
C921 C 0.51066 0.49002 0.5083 0.0
C922 C 0.52508 0.48267 0.54172 0.0
C923 C 0.52519 0.46501 0.55867 0.0
H924 H 0.80262 0.26985 0.85895 0.0
H925 H 0.80917 0.22168 0.74932 0.0
H926 H 0.77154 0.26995 0.82964 0.0
H927 H 0.77816 0.2216 0.72057 0.0
H928 H 0.71786 0.22076 0.74717 0.0
H929 H 0.74855 0.21978 0.78136 0.0
H930 H 0.75498 0.27294 0.71475 0.0
H931 H 0.7243 0.27375 0.67991 0.0
C932 C 0.79728 0.25916 0.82966 0.0
C933 C 0.8081 0.24575 0.80634 0.0
C934 C 0.77962 0.25929 0.81237 0.0
C935 C 0.77253 0.24584 0.77248 0.0
C936 C 0.78329 0.23208 0.75157 0.0
C937 C 0.80096 0.23211 0.76795 0.0
C938 C 0.72597 0.23212 0.73931 0.0
C939 C 0.71895 0.24729 0.71078 0.0
C940 C 0.74343 0.23159 0.75888 0.0
C941 C 0.75406 0.24633 0.75113 0.0
C942 C 0.747 0.26148 0.72199 0.0
C943 C 0.72958 0.26191 0.7015 0.0
H944 H 0.22375 0.22658 0.83225 0.0
H945 H 0.2179 0.27707 0.73939 0.0
H946 H 0.25484 0.22671 0.80359 0.0
H947 H 0.24898 0.27736 0.71121 0.0
H948 H 0.30342 0.22591 0.66216 0.0
H949 H 0.27234 0.22622 0.69086 0.0
H950 H 0.27811 0.27767 0.77647 0.0
H951 H 0.30919 0.27719 0.74828 0.0
C952 C 0.22923 0.23775 0.80629 0.0
C953 C 0.21863 0.25182 0.7879 0.0
C954 C 0.2469 0.23778 0.78946 0.0
C955 C 0.25424 0.25201 0.75492 0.0
C956 C 0.24365 0.26627 0.73808 0.0
C957 C 0.22594 0.26611 0.75403 0.0
C958 C 0.29793 0.23728 0.68664 0.0
C959 C 0.3085 0.25153 0.70312 0.0
C960 C 0.28026 0.23742 0.7035 0.0
C961 C 0.27289 0.25194 0.73614 0.0
C962 C 0.28346 0.26636 0.75107 0.0
C963 C 0.30117 0.2661 0.7351 0.0
H964 H 0.22316 0.77286 0.15856 0.0
H965 H 0.21799 0.72111 0.24069 0.0
H966 H 0.2543 0.77267 0.18658 0.0
H967 H 0.24911 0.72075 0.26818 0.0
H968 H 0.30924 0.72206 0.23415 0.0
H969 H 0.27827 0.72166 0.20417 0.0
H970 H 0.27172 0.7719 0.29933 0.0
H971 H 0.30271 0.77215 0.32971 0.0
C972 C 0.22881 0.76139 0.18183 0.0
C973 C 0.21839 0.74698 0.19751 0.0
C974 C 0.24651 0.76132 0.19833 0.0
C975 C 0.25405 0.74673 0.22983 0.0
C976 C 0.24364 0.73213 0.24364 0.0
C977 C 0.22591 0.73231 0.22802 0.0
C978 C 0.30107 0.73291 0.24896 0.0
C979 C 0.30817 0.74712 0.28415 0.0
C980 C 0.28343 0.73269 0.23196 0.0
C981 C 0.27267 0.7468 0.2491 0.0
C982 C 0.27979 0.76096 0.28489 0.0
C983 C 0.2974 0.76105 0.30273 0.0
H984 H 0.49881 0.03771 0.635 0.0
H985 H 0.53576 0.04615 0.47313 0.0
H986 H 0.49912 0.00651 0.6111 0.0
H987 H 0.53525 0.01531 0.44586 0.0
H988 H 0.54171 0.95661 0.44731 0.0
H989 H 0.54345 0.98729 0.47966 0.0
H990 H 0.48856 0.98678 0.52872 0.0
H991 H 0.48729 0.95589 0.49938 0.0
C992 C 0.50708 0.03285 0.59466 0.0
C993 C 0.51714 0.04431 0.55553 0.0
C994 C 0.50707 0.01502 0.58014 0.0
C995 C 0.51703 0.00835 0.52585 0.0
C996 C 0.52752 0.01986 0.48834 0.0
C997 C 0.52767 0.0376 0.50342 0.0
C998 C 0.53007 0.96323 0.46454 0.0
C999 C 0.51435 0.95417 0.47039 0.0
C1000 C 0.531 0.98077 0.48302 0.0
C1001 C 0.51615 0.98959 0.50703 0.0
C1002 C 0.50034 0.98039 0.51179 0.0
C1003 C 0.49951 0.9628 0.49413 0.0
H1004 H 0.03596 0.95898 0.08284 0.0
H1005 H 0.98596 0.95323 0.98572 0.0
H1006 H 0.036 0.99009 0.05454 0.0
H1007 H 0.98585 0.98434 0.95785 0.0
H1008 H 0.98575 0.04447 0.99582 0.0
H1009 H 0.98517 0.01337 0.02353 0.0
H1010 H 0.03708 0.00775 0.94233 0.0
H1011 H 0.0375 0.03887 0.91409 0.0
C1012 C 0.02494 0.96448 0.05597 0.0
C1013 C 0.01096 0.9539 0.03631 0.0
C1014 C 0.02501 0.98217 0.03937 0.0
C1015 C 0.01096 0.98955 0.00376 0.0
C1016 C 0.99679 0.97897 0.98556 0.0
C1017 C 0.99685 0.96125 0.00132 0.0
C1018 C 0.99693 0.03648 0.9835 0.0
C1019 C 0.01165 0.04386 0.95287 0.0
C1020 C 0.9966 0.01876 0.9992 0.0
C1021 C 0.01111 0.00822 0.98535 0.0
C1022 C 0.0258 0.01565 0.95411 0.0
C1023 C 0.02601 0.03333 0.93752 0.0
H1024 H 0.12368 0.69827 0.2395 0.0
H1025 H 0.11385 0.71293 0.03074 0.0
H1026 H 0.10326 0.67423 0.22854 0.0
H1027 H 0.09274 0.68949 0.02055 0.0
H1028 H 0.06385 0.63903 0.00273 0.0
H1029 H 0.08778 0.65959 0.01336 0.0
H1030 H 0.07338 0.66912 0.22298 0.0
H1031 H 0.05006 0.64789 0.21304 0.0
C1032 C 0.11711 0.69636 0.19125 0.0
C1033 C 0.12032 0.70752 0.13604 0.0
C1034 C 0.10529 0.68264 0.18506 0.0
C1035 C 0.09616 0.67993 0.12385 0.0
C1036 C 0.09968 0.69093 0.06819 0.0
C1037 C 0.11173 0.70447 0.07407 0.0
C1038 C 0.06593 0.64541 0.05125 0.0
C1039 C 0.05504 0.64189 0.107 0.0
C1040 C 0.07959 0.65731 0.05726 0.0
C1041 C 0.0825 0.66621 0.11886 0.0
C1042 C 0.07177 0.66237 0.17501 0.0
C1043 C 0.0583 0.65025 0.16928 0.0
H1044 H 0.54944 0.85099 0.29489 0.0
H1045 H 0.56322 0.85909 0.50574 0.0
H1046 H 0.57289 0.82996 0.28365 0.0
H1047 H 0.5873 0.83875 0.49384 0.0
H1048 H 0.61364 0.78565 0.47338 0.0
H1049 H 0.59245 0.80895 0.48491 0.0
H1050 H 0.60276 0.82496 0.27766 0.0
H1051 H 0.62326 0.80103 0.26532 0.0
C1052 C 0.55771 0.84851 0.33851 0.0
C1053 C 0.55441 0.85659 0.40131 0.0
C1054 C 0.57126 0.83651 0.33203 0.0
C1055 C 0.58203 0.83252 0.38793 0.0
C1056 C 0.57907 0.84114 0.45008 0.0
C1057 C 0.56533 0.85291 0.45684 0.0
C1058 C 0.61146 0.79424 0.4305 0.0
C1059 C 0.62001 0.79143 0.36832 0.0
C1060 C 0.59937 0.80771 0.43716 0.0
C1061 C 0.59575 0.81888 0.38211 0.0
C1062 C 0.60485 0.81641 0.32069 0.0
C1063 C 0.61672 0.80276 0.3137 0.0
H1064 H 0.47677 0.3502 0.70976 0.0
H1065 H 0.46272 0.3594 0.49991 0.0
H1066 H 0.45334 0.3291 0.71968 0.0
H1067 H 0.43866 0.33899 0.51054 0.0
H1068 H 0.41219 0.28579 0.52754 0.0
H1069 H 0.43339 0.30915 0.51715 0.0
H1070 H 0.42348 0.32418 0.72587 0.0
H1071 H 0.403 0.30021 0.73698 0.0
C1072 C 0.46845 0.34795 0.66611 0.0
C1073 C 0.47167 0.35636 0.60395 0.0
C1074 C 0.45491 0.3359 0.67182 0.0
C1075 C 0.44406 0.33221 0.61581 0.0
C1076 C 0.44694 0.34115 0.55434 0.0
C1077 C 0.46068 0.35296 0.54832 0.0
C1078 C 0.41446 0.29419 0.57096 0.0
C1079 C 0.40604 0.29109 0.63319 0.0
C1080 C 0.42656 0.30768 0.56499 0.0
C1081 C 0.4303 0.31858 0.62081 0.0
C1082 C 0.4213 0.31584 0.68225 0.0
C1083 C 0.40944 0.30217 0.68853 0.0
H1084 H 0.97821 0.14796 0.77644 0.0
H1085 H 0.96261 0.13802 0.984 0.0
H1086 H 0.95493 0.16927 0.76518 0.0
H1087 H 0.93877 0.15859 0.97194 0.0
H1088 H 0.91337 0.21194 0.95876 0.0
H1089 H 0.93446 0.18854 0.96745 0.0
H1090 H 0.92506 0.17495 0.75685 0.0
H1091 H 0.90456 0.19902 0.74746 0.0
C1092 C 0.96957 0.15009 0.81922 0.0
C1093 C 0.97233 0.14146 0.88128 0.0
C1094 C 0.95614 0.16225 0.81273 0.0
C1095 C 0.94499 0.16584 0.86786 0.0
C1096 C 0.94734 0.15656 0.92894 0.0
C1097 C 0.96094 0.14465 0.93576 0.0
C1098 C 0.91573 0.20389 0.91442 0.0
C1099 C 0.90735 0.20738 0.85236 0.0
C1100 C 0.92776 0.19035 0.91946 0.0
C1101 C 0.93153 0.17975 0.86286 0.0
C1102 C 0.92277 0.183 0.80119 0.0
C1103 C 0.91092 0.19674 0.79587 0.0
H1104 H 0.11029 0.28911 0.75197 0.0
H1105 H 0.12735 0.2968 0.95957 0.0
H1106 H 0.08929 0.31242 0.76487 0.0
H1107 H 0.10671 0.3207 0.97171 0.0
H1108 H 0.06083 0.36311 0.78831 0.0
H1109 H 0.08498 0.34277 0.77652 0.0
H1110 H 0.07627 0.32473 0.98217 0.0
H1111 H 0.05268 0.34546 0.99476 0.0
C1112 C 0.10974 0.29595 0.80016 0.0
C1113 C 0.12043 0.29098 0.85495 0.0
C1114 C 0.09775 0.30945 0.80739 0.0
C1115 C 0.09623 0.31847 0.86939 0.0
C1116 C 0.1073 0.31385 0.92359 0.0
C1117 C 0.11921 0.3002 0.91655 0.0
C1118 C 0.06417 0.35489 0.83114 0.0
C1119 C 0.05475 0.35586 0.89231 0.0
C1120 C 0.07797 0.34315 0.82431 0.0
C1121 C 0.08255 0.332 0.87826 0.0
C1122 C 0.07333 0.33326 0.93987 0.0
C1123 C 0.05967 0.3451 0.94691 0.0
H1124 H 0.97278 0.84559 0.00121 0.0
H1125 H 0.96444 0.8638 0.20685 0.0
H1126 H 0.94928 0.82476 0.01448 0.0
H1127 H 0.94038 0.84338 0.21928 0.0
H1128 H 0.89865 0.79597 0.03935 0.0
H1129 H 0.91887 0.82021 0.0255 0.0
H1130 H 0.93666 0.81303 0.23246 0.0
H1131 H 0.91612 0.78941 0.24702 0.0
C1132 C 0.96575 0.84534 0.04899 0.0
C1133 C 0.97062 0.85625 0.10324 0.0
C1134 C 0.95215 0.83345 0.05642 0.0
C1135 C 0.94294 0.83229 0.11807 0.0
C1136 C 0.9474 0.84367 0.17151 0.0
C1137 C 0.96115 0.85545 0.16431 0.0
C1138 C 0.90678 0.7997 0.08202 0.0
C1139 C 0.9058 0.79069 0.14415 0.0
C1140 C 0.91844 0.81353 0.074 0.0
C1141 C 0.92948 0.81857 0.12777 0.0
C1142 C 0.9282 0.80976 0.19025 0.0
C1143 C 0.91647 0.79607 0.19843 0.0
H1144 H 0.46513 0.63506 0.28842 0.0
H1145 H 0.47283 0.65223 0.49585 0.0
H1146 H 0.44101 0.65543 0.27649 0.0
H1147 H 0.44927 0.673 0.48315 0.0
H1148 H 0.39846 0.70131 0.45924 0.0
H1149 H 0.41886 0.67721 0.47139 0.0
H1150 H 0.43694 0.68584 0.26576 0.0
H1151 H 0.41618 0.70937 0.25282 0.0
C1152 C 0.46168 0.64317 0.33146 0.0
C1153 C 0.47098 0.64208 0.39292 0.0
C1154 C 0.44791 0.65493 0.32454 0.0
C1155 C 0.44323 0.66598 0.3787 0.0
C1156 C 0.45229 0.66455 0.44065 0.0
C1157 C 0.46593 0.6527 0.44776 0.0
C1158 C 0.40669 0.69795 0.41648 0.0
C1159 C 0.40574 0.70734 0.35522 0.0
C1160 C 0.41846 0.68418 0.42353 0.0
C1161 C 0.42965 0.6796 0.36969 0.0
C1162 C 0.42838 0.68878 0.30799 0.0
C1163 C 0.41653 0.70241 0.30074 0.0
H1164 H 0.61569 0.21404 0.52372 0.0
H1165 H 0.62593 0.19782 0.73033 0.0
H1166 H 0.59433 0.19081 0.51179 0.0
H1167 H 0.60536 0.174 0.71755 0.0
H1168 H 0.55181 0.14929 0.70619 0.0
H1169 H 0.57541 0.17011 0.71418 0.0
H1170 H 0.58811 0.16103 0.50257 0.0
H1171 H 0.56378 0.14076 0.49391 0.0
C1172 C 0.61363 0.20526 0.56609 0.0
C1173 C 0.62231 0.20785 0.62819 0.0
C1174 C 0.60144 0.19186 0.55922 0.0
C1175 C 0.5979 0.18057 0.61398 0.0
C1176 C 0.60732 0.1827 0.67488 0.0
C1177 C 0.61923 0.19628 0.68213 0.0
C1178 C 0.5597 0.15165 0.66144 0.0
C1179 C 0.55589 0.14341 0.59937 0.0
C1180 C 0.57337 0.16353 0.66609 0.0
C1181 C 0.58381 0.16729 0.60908 0.0
C1182 C 0.58021 0.15872 0.54728 0.0
C1183 C 0.56632 0.14701 0.54236 0.0
H1184 H 0.96396 0.36624 0.79473 0.0
H1185 H 0.96873 0.34768 0.00162 0.0
H1186 H 0.9399 0.3463 0.77543 0.0
H1187 H 0.94496 0.32734 0.98165 0.0
H1188 H 0.89451 0.30001 0.94402 0.0
H1189 H 0.91451 0.32411 0.96138 0.0
H1190 H 0.93593 0.31565 0.76064 0.0
H1191 H 0.91549 0.29181 0.74245 0.0
C1192 C 0.95983 0.35796 0.83629 0.0
C1193 C 0.96837 0.35848 0.89967 0.0
C1194 C 0.94608 0.34643 0.825 0.0
C1195 C 0.94057 0.33507 0.87666 0.0
C1196 C 0.94871 0.33603 0.94085 0.0
C1197 C 0.96241 0.34766 0.95231 0.0
C1198 C 0.90335 0.30342 0.90318 0.0
C1199 C 0.90353 0.29388 0.84203 0.0
C1200 C 0.9149 0.31718 0.91337 0.0
C1201 C 0.92702 0.32169 0.86289 0.0
C1202 C 0.92668 0.31264 0.80049 0.0
C1203 C 0.915 0.29893 0.79005 0.0
H1204 H 0.46423 0.13225 0.69679 0.0
H1205 H 0.47042 0.15112 0.49096 0.0
H1206 H 0.44008 0.15219 0.714 0.0
H1207 H 0.44655 0.17149 0.5089 0.0
H1208 H 0.41588 0.20648 0.74746 0.0
H1209 H 0.43645 0.18282 0.72936 0.0
H1210 H 0.41596 0.17504 0.52663 0.0
H1211 H 0.39579 0.199 0.54395 0.0
C1212 C 0.46039 0.14061 0.65502 0.0
C1213 C 0.46936 0.1402 0.59263 0.0
C1214 C 0.44659 0.15213 0.66511 0.0
C1215 C 0.44148 0.16362 0.61323 0.0
C1216 C 0.45001 0.16272 0.54984 0.0
C1217 C 0.46376 0.15108 0.53956 0.0
C1218 C 0.41563 0.19959 0.69934 0.0
C1219 C 0.4043 0.20476 0.64698 0.0
C1220 C 0.42738 0.18595 0.68898 0.0
C1221 C 0.42797 0.17709 0.62623 0.0
C1222 C 0.41611 0.1818 0.57502 0.0
C1223 C 0.40446 0.19548 0.58519 0.0
H1224 H 0.63151 0.6982 0.44945 0.0
H1225 H 0.61015 0.70789 0.24944 0.0
H1226 H 0.61129 0.67423 0.46505 0.0
H1227 H 0.5895 0.68416 0.2659 0.0
H1228 H 0.56152 0.63327 0.29556 0.0
H1229 H 0.58549 0.65339 0.27757 0.0
H1230 H 0.58081 0.67106 0.48569 0.0
H1231 H 0.55713 0.65054 0.50432 0.0
C1232 C 0.62254 0.69516 0.40858 0.0
C1233 C 0.62235 0.70507 0.34838 0.0
C1234 C 0.61086 0.68147 0.41778 0.0
C1235 C 0.59859 0.67739 0.36721 0.0
C1236 C 0.59887 0.68683 0.30576 0.0
C1237 C 0.61067 0.70049 0.29632 0.0
C1238 C 0.56571 0.64131 0.3378 0.0
C1239 C 0.55731 0.64036 0.40136 0.0
C1240 C 0.5794 0.65294 0.32726 0.0
C1241 C 0.585 0.66397 0.3799 0.0
C1242 C 0.57698 0.66262 0.44415 0.0
C1243 C 0.56333 0.6509 0.45483 0.0
H1244 H 0.06095 0.86533 0.20316 0.0
H1245 H 0.057 0.84766 0.99475 0.0
H1246 H 0.08507 0.84545 0.22227 0.0
H1247 H 0.0808 0.82737 0.0145 0.0
H1248 H 0.1316 0.80065 0.05235 0.0
H1249 H 0.11125 0.82448 0.03579 0.0
H1250 H 0.08938 0.81477 0.23488 0.0
H1251 H 0.11017 0.79121 0.25232 0.0
C1252 C 0.06526 0.85725 0.16125 0.0
C1253 C 0.05695 0.85803 0.09745 0.0
C1254 C 0.07904 0.84576 0.17243 0.0
C1255 C 0.08481 0.83468 0.1202 0.0
C1256 C 0.07685 0.83585 0.05574 0.0
C1257 C 0.06313 0.84744 0.04442 0.0
C1258 C 0.12259 0.80372 0.093 0.0
C1259 C 0.1224 0.79391 0.15347 0.0
C1260 C 0.11083 0.81732 0.08326 0.0
C1261 C 0.0985 0.82141 0.13352 0.0
C1262 C 0.0988 0.81209 0.19525 0.0
C1263 C 0.11068 0.79853 0.20524 0.0
H1264 H 0.89641 0.70004 0.047 0.0
H1265 H 0.91539 0.70475 0.25341 0.0
H1266 H 0.91639 0.67605 0.02697 0.0
H1267 H 0.93576 0.68106 0.2327 0.0
H1268 H 0.96258 0.63033 0.19422 0.0
H1269 H 0.93871 0.65053 0.21224 0.0
H1270 H 0.9471 0.67207 0.01171 0.0
H1271 H 0.97073 0.65145 0.99286 0.0
C1272 C 0.9048 0.69592 0.08828 0.0
C1273 C 0.90436 0.70441 0.15177 0.0
C1274 C 0.91634 0.68221 0.07657 0.0
C1275 C 0.9278 0.6767 0.12793 0.0
C1276 C 0.92698 0.68482 0.19215 0.0
C1277 C 0.91535 0.69848 0.20401 0.0
C1278 C 0.95922 0.63923 0.15357 0.0
C1279 C 0.96868 0.63938 0.09227 0.0
C1280 C 0.94558 0.6509 0.16415 0.0
C1281 C 0.94111 0.6631 0.11389 0.0
C1282 C 0.95009 0.66276 0.05138 0.0
C1283 C 0.96369 0.65097 0.04058 0.0
H1284 H 0.11277 0.20509 0.74376 0.0
H1285 H 0.13046 0.20046 0.95192 0.0
H1286 H 0.09242 0.18128 0.76232 0.0
H1287 H 0.11051 0.17633 0.96982 0.0
H1288 H 0.05612 0.15168 0.99926 0.0
H1289 H 0.07981 0.17231 0.98233 0.0
H1290 H 0.0892 0.15081 0.7823 0.0
H1291 H 0.06521 0.1306 0.79836 0.0
C1292 C 0.11255 0.1988 0.7931 0.0
C1293 C 0.12314 0.2048 0.84646 0.0
C1294 C 0.10092 0.18507 0.80373 0.0
C1295 C 0.09972 0.17694 0.8678 0.0
C1296 C 0.11084 0.1825 0.92028 0.0
C1297 C 0.12237 0.19629 0.90981 0.0
C1298 C 0.06338 0.15122 0.95202 0.0
C1299 C 0.05864 0.13963 0.89992 0.0
C1300 C 0.07703 0.16301 0.94235 0.0
C1301 C 0.08633 0.16335 0.88059 0.0
C1302 C 0.08208 0.15117 0.82986 0.0
C1303 C 0.06838 0.1395 0.8393 0.0
H1304 H 0.6118 0.29265 0.74521 0.0
H1305 H 0.63137 0.29942 0.54063 0.0
H1306 H 0.59113 0.3162 0.72649 0.0
H1307 H 0.61107 0.32324 0.52265 0.0
H1308 H 0.56382 0.36701 0.69255 0.0
H1309 H 0.58783 0.34692 0.70959 0.0
H1310 H 0.58027 0.32671 0.50633 0.0
H1311 H 0.55648 0.34721 0.48853 0.0
C1312 C 0.61191 0.29935 0.69668 0.0
C1313 C 0.62315 0.29403 0.6443 0.0
C1314 C 0.6001 0.31292 0.68598 0.0
C1315 C 0.59934 0.32155 0.6228 0.0
C1316 C 0.61106 0.31666 0.57142 0.0
C1317 C 0.62279 0.30306 0.58197 0.0
C1318 C 0.56738 0.35842 0.65112 0.0
C1319 C 0.55811 0.35863 0.5893 0.0
C1320 C 0.5811 0.34681 0.66113 0.0
C1321 C 0.58586 0.33504 0.60974 0.0
C1322 C 0.57705 0.3357 0.54687 0.0
C1323 C 0.56336 0.34742 0.53668 0.0
H1324 H 0.46208 0.86781 0.31267 0.0
H1325 H 0.46999 0.84605 0.51318 0.0
H1326 H 0.43824 0.84763 0.29308 0.0
H1327 H 0.44643 0.82545 0.49274 0.0
H1328 H 0.39584 0.7976 0.45581 0.0
H1329 H 0.4158 0.82154 0.47701 0.0
H1330 H 0.43512 0.81721 0.27107 0.0
H1331 H 0.41476 0.79357 0.24918 0.0
C1332 C 0.45868 0.85877 0.35279 0.0
C1333 C 0.46805 0.85845 0.41435 0.0
C1334 C 0.44507 0.84711 0.34131 0.0
C1335 C 0.44053 0.83475 0.3909 0.0
C1336 C 0.44945 0.83489 0.45359 0.0
C1337 C 0.46301 0.84667 0.4653 0.0
C1338 C 0.40421 0.80186 0.41473 0.0
C1339 C 0.40377 0.79357 0.35084 0.0
C1340 C 0.41574 0.81554 0.42711 0.0
C1341 C 0.4272 0.82123 0.37605 0.0
C1342 C 0.42635 0.81332 0.31142 0.0
C1343 C 0.41472 0.79969 0.29887 0.0
loop_
_geom_bond_atom_site_label_1
_geom_bond_atom_site_label_2
_geom_bond_distance
_geom_bond_site_symmetry_2
_ccdc_geom_bond_type
Co0 O3 1.970 1_455 S
Co0 N17 1.989 . S
Co0 O25 1.967 . S
Co0 O32 1.920 . S
Co1 O4 1.966 1_556 S
Co1 N10 2.022 . S
Co1 N18 1.993 1_556 S
Co1 O26 1.941 1_556 S
C2 O3 1.258 . S
C2 O4 1.263 1_655 S
O3 Co0 1.970 1_655 S
O3 C2 1.258 . S
O4 Co1 1.966 1_554 S
O4 C2 1.263 1_455 S
C5 O6 1.235 1_455 S
C5 O32 1.289 . S
O6 C5 1.235 1_655 S
C7 C9 1.400 . S
C7 N10 1.351 . S
C7 C12 1.501 1_455 S
C8 C9 1.387 . S
C8 N11 1.341 . S
C9 C7 1.400 . S
C9 C8 1.387 . S
N10 Co1 2.022 . S
N10 C7 1.351 . S
N10 N11 1.365 . S
N11 C8 1.341 . S
N11 N10 1.365 . S
N11 H31 0.862 . S
C12 C7 1.501 1_655 S
C12 H13 0.961 . S
C12 H14 0.961 . S
C12 H15 0.960 . S
H13 C12 0.961 . S
H14 C12 0.961 . S
H15 C12 0.960 . S
C16 N17 1.342 . S
C16 C20 1.401 . S
C16 C21 1.499 . S
N17 Co0 1.989 . S
N17 C16 1.342 . S
N17 N18 1.388 . S
N18 Co1 1.993 1_554 S
N18 N17 1.388 . S
N18 C19 1.346 1_554 S
C19 N18 1.346 1_556 S
C19 C20 1.396 1_556 S
C19 C29 1.510 . S
C20 C16 1.401 . S
C20 C19 1.396 1_554 S
C21 C16 1.499 . S
C21 H22 0.959 . S
C21 H23 0.960 . S
C21 H24 0.961 . S
H22 C21 0.959 . S
H23 C21 0.960 . S
H24 C21 0.961 . S
O25 Co0 1.967 . S
O25 C33 1.258 . S
O26 Co1 1.941 1_554 S
O26 C33 1.266 . S
H27 C29 0.959 . S
H28 C29 0.961 . S
C29 C19 1.510 . S
C29 H27 0.959 . S
C29 H28 0.961 . S
C29 H30 0.960 . S
H30 C29 0.960 . S
H31 N11 0.862 . S
O32 Co0 1.920 . S
O32 C5 1.289 . S
C33 O25 1.258 . S
C33 O26 1.266 . S
Co34 O37 1.970 . S
Co34 N51 1.989 . S
Co34 O59 1.967 . S
Co34 O66 1.920 . S
Co35 O38 1.966 . S
Co35 N44 2.022 . S
Co35 N52 1.993 . S
Co35 O60 1.941 . S
C36 O37 1.258 . S
C36 O38 1.263 . S
O37 Co34 1.970 . S
O37 C36 1.258 . S
O38 Co35 1.966 . S
O38 C36 1.263 . S
C39 O40 1.235 . S
C39 O66 1.289 . S
O40 C39 1.235 . S
C41 C43 1.400 . S
C41 N44 1.351 . S
C41 C46 1.501 . S
C42 C43 1.387 . S
C42 N45 1.341 . S
C43 C41 1.400 . S
C43 C42 1.387 . S
N44 Co35 2.022 . S
N44 C41 1.351 . S
N44 N45 1.365 . S
N45 C42 1.341 . S
N45 N44 1.365 . S
N45 H65 0.862 . S
C46 C41 1.501 . S
C46 H47 0.961 . S
C46 H48 0.961 . S
C46 H49 0.960 . S
H47 C46 0.961 . S
H48 C46 0.961 . S
H49 C46 0.960 . S
C50 N51 1.342 . S
C50 C54 1.401 . S
C50 C55 1.499 . S
N51 Co34 1.989 . S
N51 C50 1.342 . S
N51 N52 1.388 . S
N52 Co35 1.993 . S
N52 N51 1.388 . S
N52 C53 1.346 . S
C53 N52 1.346 . S
C53 C54 1.396 . S
C53 C63 1.510 . S
C54 C50 1.401 . S
C54 C53 1.396 . S
C55 C50 1.499 . S
C55 H56 0.959 . S
C55 H57 0.960 . S
C55 H58 0.961 . S
H56 C55 0.959 . S
H57 C55 0.960 . S
H58 C55 0.961 . S
O59 Co34 1.967 . S
O59 C67 1.258 . S
O60 Co35 1.941 . S
O60 C67 1.266 . S
H61 C63 0.959 . S
H62 C63 0.961 . S
C63 C53 1.510 . S
C63 H61 0.959 . S
C63 H62 0.961 . S
C63 H64 0.960 . S
H64 C63 0.960 . S
H65 N45 0.862 . S
O66 Co34 1.920 . S
O66 C39 1.289 . S
C67 O59 1.258 . S
C67 O60 1.266 . S
Co68 O71 1.970 . S
Co68 N85 1.989 . S
Co68 O93 1.967 . S
Co68 O100 1.920 . S
Co69 O72 1.966 . S
Co69 N78 2.022 . S
Co69 N86 1.993 . S
Co69 O94 1.941 . S
C70 O71 1.258 . S
C70 O72 1.263 . S
O71 Co68 1.970 . S
O71 C70 1.258 . S
O72 Co69 1.966 . S
O72 C70 1.263 . S
C73 O74 1.235 . S
C73 O100 1.289 . S
O74 C73 1.235 . S
C75 C77 1.400 . S
C75 N78 1.351 . S
C75 C80 1.501 . S
C76 C77 1.387 . S
C76 N79 1.341 . S
C77 C75 1.400 . S
C77 C76 1.387 . S
N78 Co69 2.022 . S
N78 C75 1.351 . S
N78 N79 1.365 . S
N79 C76 1.341 . S
N79 N78 1.365 . S
N79 H99 0.862 . S
C80 C75 1.501 . S
C80 H81 0.961 . S
C80 H82 0.961 . S
C80 H83 0.960 . S
H81 C80 0.961 . S
H82 C80 0.961 . S
H83 C80 0.960 . S
C84 N85 1.342 . S
C84 C88 1.401 . S
C84 C89 1.499 . S
N85 Co68 1.989 . S
N85 C84 1.342 . S
N85 N86 1.388 . S
N86 Co69 1.993 . S
N86 N85 1.388 . S
N86 C87 1.346 . S
C87 N86 1.346 . S
C87 C88 1.396 . S
C87 C97 1.510 . S
C88 C84 1.401 . S
C88 C87 1.396 . S
C89 C84 1.499 . S
C89 H90 0.959 . S
C89 H91 0.960 . S
C89 H92 0.961 . S
H90 C89 0.959 . S
H91 C89 0.960 . S
H92 C89 0.961 . S
O93 Co68 1.967 . S
O93 C101 1.258 . S
O94 Co69 1.941 . S
O94 C101 1.266 . S
H95 C97 0.959 . S
H96 C97 0.961 . S
C97 C87 1.510 . S
C97 H95 0.959 . S
C97 H96 0.961 . S
C97 H98 0.960 . S
H98 C97 0.960 . S
H99 N79 0.862 . S
O100 Co68 1.920 . S
O100 C73 1.289 . S
C101 O93 1.258 . S
C101 O94 1.266 . S
Co102 O105 1.970 . S
Co102 N119 1.989 . S
Co102 O127 1.967 . S
Co102 O134 1.920 . S
Co103 O106 1.966 . S
Co103 N112 2.022 . S
Co103 N120 1.993 . S
Co103 O128 1.941 . S
C104 O105 1.258 . S
C104 O106 1.263 . S
O105 Co102 1.970 . S
O105 C104 1.258 . S
O106 Co103 1.966 . S
O106 C104 1.263 . S
C107 O108 1.235 . S
C107 O134 1.289 1_554 S
O108 C107 1.235 . S
C109 C111 1.400 . S
C109 N112 1.351 . S
C109 C114 1.501 . S
C110 C111 1.387 . S
C110 N113 1.341 . S
C111 C109 1.400 . S
C111 C110 1.387 . S
N112 Co103 2.022 . S
N112 C109 1.351 . S
N112 N113 1.365 . S
N113 C110 1.341 . S
N113 N112 1.365 . S
N113 H133 0.862 . S
C114 C109 1.501 . S
C114 H115 0.961 . S
C114 H116 0.961 . S
C114 H117 0.960 . S
H115 C114 0.961 . S
H116 C114 0.961 . S
H117 C114 0.960 . S
C118 N119 1.342 . S
C118 C122 1.401 . S
C118 C123 1.499 . S
N119 Co102 1.989 . S
N119 C118 1.342 . S
N119 N120 1.388 . S
N120 Co103 1.993 . S
N120 N119 1.388 . S
N120 C121 1.346 . S
C121 N120 1.346 . S
C121 C122 1.396 . S
C121 C131 1.510 . S
C122 C118 1.401 . S
C122 C121 1.396 . S
C123 C118 1.499 . S
C123 H124 0.959 . S
C123 H125 0.960 . S
C123 H126 0.961 . S
H124 C123 0.959 . S
H125 C123 0.960 . S
H126 C123 0.961 . S
O127 Co102 1.967 . S
O127 C135 1.258 . S
O128 Co103 1.941 . S
O128 C135 1.266 . S
H129 C131 0.959 . S
H130 C131 0.961 . S
C131 C121 1.510 . S
C131 H129 0.959 . S
C131 H130 0.961 . S
C131 H132 0.960 . S
H132 C131 0.960 . S
H133 N113 0.862 . S
O134 Co102 1.920 . S
O134 C107 1.289 1_556 S
C135 O127 1.258 . S
C135 O128 1.266 . S
Co136 O139 1.970 1_455 S
Co136 N153 1.989 . S
Co136 O161 1.967 . S
Co136 O168 1.920 . S
Co137 O140 1.966 1_554 S
Co137 N146 2.022 . S
Co137 N154 1.993 1_554 S
Co137 O162 1.941 1_554 S
C138 O139 1.258 . S
C138 O140 1.263 1_655 S
O139 Co136 1.970 1_655 S
O139 C138 1.258 . S
O140 Co137 1.966 1_556 S
O140 C138 1.263 1_455 S
C141 O142 1.235 1_455 S
C141 O168 1.289 . S
O142 C141 1.235 1_655 S
C143 C145 1.400 . S
C143 N146 1.351 . S
C143 C148 1.501 1_455 S
C144 C145 1.387 . S
C144 N147 1.341 . S
C145 C143 1.400 . S
C145 C144 1.387 . S
N146 Co137 2.022 . S
N146 C143 1.351 . S
N146 N147 1.365 . S
N147 C144 1.341 . S
N147 N146 1.365 . S
N147 H167 0.862 . S
C148 C143 1.501 1_655 S
C148 H149 0.961 . S
C148 H150 0.961 . S
C148 H151 0.960 . S
H149 C148 0.961 . S
H150 C148 0.961 . S
H151 C148 0.960 . S
C152 N153 1.342 . S
C152 C156 1.401 . S
C152 C157 1.499 . S
N153 Co136 1.989 . S
N153 C152 1.342 . S
N153 N154 1.388 . S
N154 Co137 1.993 1_556 S
N154 N153 1.388 . S
N154 C155 1.346 1_556 S
C155 N154 1.346 1_554 S
C155 C156 1.396 1_554 S
C155 C165 1.510 . S
C156 C152 1.401 . S
C156 C155 1.396 1_556 S
C157 C152 1.499 . S
C157 H158 0.959 . S
C157 H159 0.960 . S
C157 H160 0.961 . S
H158 C157 0.959 . S
H159 C157 0.960 . S
H160 C157 0.961 . S
O161 Co136 1.967 . S
O161 C169 1.258 . S
O162 Co137 1.941 1_556 S
O162 C169 1.266 . S
H163 C165 0.959 . S
H164 C165 0.961 . S
C165 C155 1.510 . S
C165 H163 0.959 . S
C165 H164 0.961 . S
C165 H166 0.960 . S
H166 C165 0.960 . S
H167 N147 0.862 . S
O168 Co136 1.920 . S
O168 C141 1.289 . S
C169 O161 1.258 . S
C169 O162 1.266 . S
Co170 O173 1.970 . S
Co170 N187 1.989 . S
Co170 O195 1.967 . S
Co170 O202 1.920 . S
Co171 O174 1.966 . S
Co171 N180 2.022 . S
Co171 N188 1.993 . S
Co171 O196 1.941 . S
C172 O173 1.258 . S
C172 O174 1.263 . S
O173 Co170 1.970 . S
O173 C172 1.258 . S
O174 Co171 1.966 . S
O174 C172 1.263 . S
C175 O176 1.235 . S
C175 O202 1.289 1_556 S
O176 C175 1.235 . S
C177 C179 1.400 . S
C177 N180 1.351 . S
C177 C182 1.501 . S
C178 C179 1.387 . S
C178 N181 1.341 . S
C179 C177 1.400 . S
C179 C178 1.387 . S
N180 Co171 2.022 . S
N180 C177 1.351 . S
N180 N181 1.365 . S
N181 C178 1.341 . S
N181 N180 1.365 . S
N181 H201 0.862 . S
C182 C177 1.501 . S
C182 H183 0.961 . S
C182 H184 0.961 . S
C182 H185 0.960 . S
H183 C182 0.961 . S
H184 C182 0.961 . S
H185 C182 0.960 . S
C186 N187 1.342 . S
C186 C190 1.401 . S
C186 C191 1.499 . S
N187 Co170 1.989 . S
N187 C186 1.342 . S
N187 N188 1.388 . S
N188 Co171 1.993 . S
N188 N187 1.388 . S
N188 C189 1.346 . S
C189 N188 1.346 . S
C189 C190 1.396 . S
C189 C199 1.510 . S
C190 C186 1.401 . S
C190 C189 1.396 . S
C191 C186 1.499 . S
C191 H192 0.959 . S
C191 H193 0.960 . S
C191 H194 0.961 . S
H192 C191 0.959 . S
H193 C191 0.960 . S
H194 C191 0.961 . S
O195 Co170 1.967 . S
O195 C203 1.258 . S
O196 Co171 1.941 . S
O196 C203 1.266 . S
H197 C199 0.959 . S
H198 C199 0.961 . S
C199 C189 1.510 . S
C199 H197 0.959 . S
C199 H198 0.961 . S
C199 H200 0.960 . S
H200 C199 0.960 . S
H201 N181 0.862 . S
O202 Co170 1.920 . S
O202 C175 1.289 1_554 S
C203 O195 1.258 . S
C203 O196 1.266 . S
Co204 O207 1.970 . S
Co204 N221 1.989 . S
Co204 O229 1.967 . S
Co204 O236 1.920 . S
Co205 O208 1.966 . S
Co205 N214 2.022 . S
Co205 N222 1.993 . S
Co205 O230 1.941 . S
C206 O207 1.258 . S
C206 O208 1.263 . S
O207 Co204 1.970 . S
O207 C206 1.258 . S
O208 Co205 1.966 . S
O208 C206 1.263 . S
C209 O210 1.235 . S
C209 O236 1.289 . S
O210 C209 1.235 . S
C211 C213 1.400 . S
C211 N214 1.351 . S
C211 C216 1.501 . S
C212 C213 1.387 . S
C212 N215 1.341 . S
C213 C211 1.400 . S
C213 C212 1.387 . S
N214 Co205 2.022 . S
N214 C211 1.351 . S
N214 N215 1.365 . S
N215 C212 1.341 . S
N215 N214 1.365 . S
N215 H235 0.862 . S
C216 C211 1.501 . S
C216 H217 0.961 . S
C216 H218 0.961 . S
C216 H219 0.960 . S
H217 C216 0.961 . S
H218 C216 0.961 . S
H219 C216 0.960 . S
C220 N221 1.342 . S
C220 C224 1.401 . S
C220 C225 1.499 . S
N221 Co204 1.989 . S
N221 C220 1.342 . S
N221 N222 1.388 . S
N222 Co205 1.993 . S
N222 N221 1.388 . S
N222 C223 1.346 . S
C223 N222 1.346 . S
C223 C224 1.396 . S
C223 C233 1.510 . S
C224 C220 1.401 . S
C224 C223 1.396 . S
C225 C220 1.499 . S
C225 H226 0.959 . S
C225 H227 0.960 . S
C225 H228 0.961 . S
H226 C225 0.959 . S
H227 C225 0.960 . S
H228 C225 0.961 . S
O229 Co204 1.967 . S
O229 C237 1.258 . S
O230 Co205 1.941 . S
O230 C237 1.266 . S
H231 C233 0.959 . S
H232 C233 0.961 . S
C233 C223 1.510 . S
C233 H231 0.959 . S
C233 H232 0.961 . S
C233 H234 0.960 . S
H234 C233 0.960 . S
H235 N215 0.862 . S
O236 Co204 1.920 . S
O236 C209 1.289 . S
C237 O229 1.258 . S
C237 O230 1.266 . S
Co238 O241 1.970 . S
Co238 N255 1.989 . S
Co238 O263 1.967 . S
Co238 O270 1.920 . S
Co239 O242 1.966 . S
Co239 N248 2.022 . S
Co239 N256 1.993 . S
Co239 O264 1.941 . S
C240 O241 1.258 . S
C240 O242 1.263 . S
O241 Co238 1.970 . S
O241 C240 1.258 . S
O242 Co239 1.966 . S
O242 C240 1.263 . S
C243 O244 1.235 . S
C243 O270 1.289 . S
O244 C243 1.235 . S
C245 C247 1.400 . S
C245 N248 1.351 . S
C245 C250 1.501 . S
C246 C247 1.387 . S
C246 N249 1.341 . S
C247 C245 1.400 . S
C247 C246 1.387 . S
N248 Co239 2.022 . S
N248 C245 1.351 . S
N248 N249 1.365 . S
N249 C246 1.341 . S
N249 N248 1.365 . S
N249 H269 0.862 . S
C250 C245 1.501 . S
C250 H251 0.961 . S
C250 H252 0.961 . S
C250 H253 0.960 . S
H251 C250 0.961 . S
H252 C250 0.961 . S
H253 C250 0.960 . S
C254 N255 1.342 . S
C254 C258 1.401 . S
C254 C259 1.499 . S
N255 Co238 1.989 . S
N255 C254 1.342 . S
N255 N256 1.388 . S
N256 Co239 1.993 . S
N256 N255 1.388 . S
N256 C257 1.346 . S
C257 N256 1.346 . S
C257 C258 1.396 . S
C257 C267 1.510 . S
C258 C254 1.401 . S
C258 C257 1.396 . S
C259 C254 1.499 . S
C259 H260 0.959 . S
C259 H261 0.960 . S
C259 H262 0.961 . S
H260 C259 0.959 . S
H261 C259 0.960 . S
H262 C259 0.961 . S
O263 Co238 1.967 . S
O263 C271 1.258 . S
O264 Co239 1.941 . S
O264 C271 1.266 . S
H265 C267 0.959 . S
H266 C267 0.961 . S
C267 C257 1.510 . S
C267 H265 0.959 . S
C267 H266 0.961 . S
C267 H268 0.960 . S
H268 C267 0.960 . S
H269 N249 0.862 . S
O270 Co238 1.920 . S
O270 C243 1.289 . S
C271 O263 1.258 . S
C271 O264 1.266 . S
Co272 O275 1.970 . S
Co272 N289 1.989 . S
Co272 O297 1.967 . S
Co272 O304 1.920 . S
Co273 O276 1.966 . S
Co273 N282 2.022 . S
Co273 N290 1.993 . S
Co273 O298 1.941 . S
C274 O275 1.258 . S
C274 O276 1.263 . S
O275 Co272 1.970 . S
O275 C274 1.258 . S
O276 Co273 1.966 . S
O276 C274 1.263 . S
C277 O278 1.235 . S
C277 O304 1.289 . S
O278 C277 1.235 . S
C279 C281 1.400 . S
C279 N282 1.351 . S
C279 C284 1.501 . S
C280 C281 1.387 . S
C280 N283 1.341 . S
C281 C279 1.400 . S
C281 C280 1.387 . S
N282 Co273 2.022 . S
N282 C279 1.351 . S
N282 N283 1.365 . S
N283 C280 1.341 . S
N283 N282 1.365 . S
N283 H303 0.862 . S
C284 C279 1.501 . S
C284 H285 0.961 . S
C284 H286 0.961 . S
C284 H287 0.960 . S
H285 C284 0.961 . S
H286 C284 0.961 . S
H287 C284 0.960 . S
C288 N289 1.342 . S
C288 C292 1.401 . S
C288 C293 1.499 . S
N289 Co272 1.989 . S
N289 C288 1.342 . S
N289 N290 1.388 . S
N290 Co273 1.993 . S
N290 N289 1.388 . S
N290 C291 1.346 . S
C291 N290 1.346 . S
C291 C292 1.396 . S
C291 C301 1.510 . S
C292 C288 1.401 . S
C292 C291 1.396 . S
C293 C288 1.499 . S
C293 H294 0.959 . S
C293 H295 0.960 . S
C293 H296 0.961 . S
H294 C293 0.959 . S
H295 C293 0.960 . S
H296 C293 0.961 . S
O297 Co272 1.967 . S
O297 C305 1.258 . S
O298 Co273 1.941 . S
O298 C305 1.266 . S
H299 C301 0.959 . S
H300 C301 0.961 . S
C301 C291 1.510 . S
C301 H299 0.959 . S
C301 H300 0.961 . S
C301 H302 0.960 . S
H302 C301 0.960 . S
H303 N283 0.862 . S
O304 Co272 1.920 . S
O304 C277 1.289 . S
C305 O297 1.258 . S
C305 O298 1.266 . S
Co306 O309 1.970 . S
Co306 N323 1.989 . S
Co306 O331 1.967 . S
Co306 O338 1.920 . S
Co307 O310 1.966 . S
Co307 N316 2.022 . S
Co307 N324 1.993 . S
Co307 O332 1.941 . S
C308 O309 1.258 . S
C308 O310 1.263 . S
O309 Co306 1.970 . S
O309 C308 1.258 . S
O310 Co307 1.966 . S
O310 C308 1.263 . S
C311 O312 1.235 . S
C311 O338 1.289 1_556 S
O312 C311 1.235 . S
C313 C315 1.400 . S
C313 N316 1.351 . S
C313 C318 1.501 . S
C314 C315 1.387 . S
C314 N317 1.341 . S
C315 C313 1.400 . S
C315 C314 1.387 . S
N316 Co307 2.022 . S
N316 C313 1.351 . S
N316 N317 1.365 . S
N317 C314 1.341 . S
N317 N316 1.365 . S
N317 H337 0.862 . S
C318 C313 1.501 . S
C318 H319 0.961 . S
C318 H320 0.961 . S
C318 H321 0.960 . S
H319 C318 0.961 . S
H320 C318 0.961 . S
H321 C318 0.960 . S
C322 N323 1.342 . S
C322 C326 1.401 . S
C322 C327 1.499 . S
N323 Co306 1.989 . S
N323 C322 1.342 . S
N323 N324 1.388 . S
N324 Co307 1.993 . S
N324 N323 1.388 . S
N324 C325 1.346 . S
C325 N324 1.346 . S
C325 C326 1.396 . S
C325 C335 1.510 . S
C326 C322 1.401 . S
C326 C325 1.396 . S
C327 C322 1.499 . S
C327 H328 0.959 . S
C327 H329 0.960 . S
C327 H330 0.961 . S
H328 C327 0.959 . S
H329 C327 0.960 . S
H330 C327 0.961 . S
O331 Co306 1.967 . S
O331 C339 1.258 . S
O332 Co307 1.941 . S
O332 C339 1.266 . S
H333 C335 0.959 . S
H334 C335 0.961 . S
C335 C325 1.510 . S
C335 H333 0.959 . S
C335 H334 0.961 . S
C335 H336 0.960 . S
H336 C335 0.960 . S
H337 N317 0.862 . S
O338 Co306 1.920 . S
O338 C311 1.289 1_554 S
C339 O331 1.258 . S
C339 O332 1.266 . S
Co340 O343 1.970 . S
Co340 N357 1.989 . S
Co340 O365 1.967 . S
Co340 O372 1.920 . S
Co341 O344 1.966 . S
Co341 N350 2.022 . S
Co341 N358 1.993 . S
Co341 O366 1.941 . S
C342 O343 1.258 . S
C342 O344 1.263 . S
O343 Co340 1.970 . S
O343 C342 1.258 . S
O344 Co341 1.966 . S
O344 C342 1.263 . S
C345 O346 1.235 . S
C345 O372 1.289 1_554 S
O346 C345 1.235 . S
C347 C349 1.400 . S
C347 N350 1.351 . S
C347 C352 1.501 . S
C348 C349 1.387 . S
C348 N351 1.341 . S
C349 C347 1.400 . S
C349 C348 1.387 . S
N350 Co341 2.022 . S
N350 C347 1.351 . S
N350 N351 1.365 . S
N351 C348 1.341 . S
N351 N350 1.365 . S
N351 H371 0.862 . S
C352 C347 1.501 . S
C352 H353 0.961 . S
C352 H354 0.961 . S
C352 H355 0.960 . S
H353 C352 0.961 . S
H354 C352 0.961 . S
H355 C352 0.960 . S
C356 N357 1.342 . S
C356 C360 1.401 . S
C356 C361 1.499 . S
N357 Co340 1.989 . S
N357 C356 1.342 . S
N357 N358 1.388 . S
N358 Co341 1.993 . S
N358 N357 1.388 . S
N358 C359 1.346 . S
C359 N358 1.346 . S
C359 C360 1.396 . S
C359 C369 1.510 . S
C360 C356 1.401 . S
C360 C359 1.396 . S
C361 C356 1.499 . S
C361 H362 0.959 . S
C361 H363 0.960 . S
C361 H364 0.961 . S
H362 C361 0.959 . S
H363 C361 0.960 . S
H364 C361 0.961 . S
O365 Co340 1.967 . S
O365 C373 1.258 . S
O366 Co341 1.941 . S
O366 C373 1.266 . S
H367 C369 0.959 . S
H368 C369 0.961 . S
C369 C359 1.510 . S
C369 H367 0.959 . S
C369 H368 0.961 . S
C369 H370 0.960 . S
H370 C369 0.960 . S
H371 N351 0.862 . S
O372 Co340 1.920 . S
O372 C345 1.289 1_556 S
C373 O365 1.258 . S
C373 O366 1.266 . S
Co374 O377 1.970 . S
Co374 N391 1.989 . S
Co374 O399 1.967 . S
Co374 O406 1.920 . S
Co375 O378 1.966 . S
Co375 N384 2.022 . S
Co375 N392 1.993 . S
Co375 O400 1.941 . S
C376 O377 1.258 . S
C376 O378 1.263 . S
O377 Co374 1.970 . S
O377 C376 1.258 . S
O378 Co375 1.966 . S
O378 C376 1.263 . S
C379 O380 1.235 . S
C379 O406 1.289 . S
O380 C379 1.235 . S
C381 C383 1.400 . S
C381 N384 1.351 . S
C381 C386 1.501 . S
C382 C383 1.387 . S
C382 N385 1.341 . S
C383 C381 1.400 . S
C383 C382 1.387 . S
N384 Co375 2.022 . S
N384 C381 1.351 . S
N384 N385 1.365 . S
N385 C382 1.341 . S
N385 N384 1.365 . S
N385 H405 0.862 . S
C386 C381 1.501 . S
C386 H387 0.961 . S
C386 H388 0.961 . S
C386 H389 0.960 . S
H387 C386 0.961 . S
H388 C386 0.961 . S
H389 C386 0.960 . S
C390 N391 1.342 . S
C390 C394 1.401 . S
C390 C395 1.499 . S
N391 Co374 1.989 . S
N391 C390 1.342 . S
N391 N392 1.388 . S
N392 Co375 1.993 . S
N392 N391 1.388 . S
N392 C393 1.346 . S
C393 N392 1.346 . S
C393 C394 1.396 . S
C393 C403 1.510 . S
C394 C390 1.401 . S
C394 C393 1.396 . S
C395 C390 1.499 . S
C395 H396 0.959 . S
C395 H397 0.960 . S
C395 H398 0.961 . S
H396 C395 0.959 . S
H397 C395 0.960 . S
H398 C395 0.961 . S
O399 Co374 1.967 . S
O399 C407 1.258 . S
O400 Co375 1.941 . S
O400 C407 1.266 . S
H401 C403 0.959 . S
H402 C403 0.961 . S
C403 C393 1.510 . S
C403 H401 0.959 . S
C403 H402 0.961 . S
C403 H404 0.960 . S
H404 C403 0.960 . S
H405 N385 0.862 . S
O406 Co374 1.920 . S
O406 C379 1.289 . S
C407 O399 1.258 . S
C407 O400 1.266 . S
Co408 O411 1.970 . S
Co408 N425 1.989 . S
Co408 O433 1.967 . S
Co408 O440 1.920 . S
Co409 O412 1.966 . S
Co409 N418 2.022 . S
Co409 N426 1.993 . S
Co409 O434 1.941 . S
C410 O411 1.258 . S
C410 O412 1.263 . S
O411 Co408 1.970 . S
O411 C410 1.258 . S
O412 Co409 1.966 . S
O412 C410 1.263 . S
C413 O414 1.235 . S
C413 O440 1.289 . S
O414 C413 1.235 . S
C415 C417 1.400 . S
C415 N418 1.351 . S
C415 C420 1.501 . S
C416 C417 1.387 . S
C416 N419 1.341 . S
C417 C415 1.400 . S
C417 C416 1.387 . S
N418 Co409 2.022 . S
N418 C415 1.351 . S
N418 N419 1.365 . S
N419 C416 1.341 . S
N419 N418 1.365 . S
N419 H439 0.862 . S
C420 C415 1.501 . S
C420 H421 0.961 . S
C420 H422 0.961 . S
C420 H423 0.960 . S
H421 C420 0.961 . S
H422 C420 0.961 . S
H423 C420 0.960 . S
C424 N425 1.342 . S
C424 C428 1.401 . S
C424 C429 1.499 . S
N425 Co408 1.989 . S
N425 C424 1.342 . S
N425 N426 1.388 . S
N426 Co409 1.993 . S
N426 N425 1.388 . S
N426 C427 1.346 . S
C427 N426 1.346 . S
C427 C428 1.396 . S
C427 C437 1.510 . S
C428 C424 1.401 . S
C428 C427 1.396 . S
C429 C424 1.499 . S
C429 H430 0.959 . S
C429 H431 0.960 . S
C429 H432 0.961 . S
H430 C429 0.959 . S
H431 C429 0.960 . S
H432 C429 0.961 . S
O433 Co408 1.967 . S
O433 C441 1.258 . S
O434 Co409 1.941 . S
O434 C441 1.266 . S
H435 C437 0.959 . S
H436 C437 0.961 . S
C437 C427 1.510 . S
C437 H435 0.959 . S
C437 H436 0.961 . S
C437 H438 0.960 . S
H438 C437 0.960 . S
H439 N419 0.862 . S
O440 Co408 1.920 . S
O440 C413 1.289 . S
C441 O433 1.258 . S
C441 O434 1.266 . S
Co442 O445 1.970 . S
Co442 N459 1.989 . S
Co442 O467 1.967 1_455 S
Co442 O474 1.920 . S
Co443 O446 1.966 1_556 S
Co443 N452 2.022 . S
Co443 N460 1.993 1_556 S
Co443 O468 1.941 1_456 S
C444 O445 1.258 . S
C444 O446 1.263 . S
O445 Co442 1.970 . S
O445 C444 1.258 . S
O446 Co443 1.966 1_554 S
O446 C444 1.263 . S
C447 O448 1.235 . S
C447 O474 1.289 . S
O448 C447 1.235 . S
C449 C451 1.400 . S
C449 N452 1.351 . S
C449 C454 1.501 . S
C450 C451 1.387 1_655 S
C450 N453 1.341 . S
C451 C449 1.400 . S
C451 C450 1.387 1_455 S
N452 Co443 2.022 . S
N452 C449 1.351 . S
N452 N453 1.365 1_455 S
N453 C450 1.341 . S
N453 N452 1.365 1_655 S
N453 H473 0.862 . S
C454 C449 1.501 . S
C454 H455 0.961 . S
C454 H456 0.961 . S
C454 H457 0.960 . S
H455 C454 0.961 . S
H456 C454 0.961 . S
H457 C454 0.960 . S
C458 N459 1.342 . S
C458 C462 1.401 . S
C458 C463 1.499 . S
N459 Co442 1.989 . S
N459 C458 1.342 . S
N459 N460 1.388 . S
N460 Co443 1.993 1_554 S
N460 N459 1.388 . S
N460 C461 1.346 1_554 S
C461 N460 1.346 1_556 S
C461 C462 1.396 1_556 S
C461 C471 1.510 . S
C462 C458 1.401 . S
C462 C461 1.396 1_554 S
C463 C458 1.499 . S
C463 H464 0.959 . S
C463 H465 0.960 . S
C463 H466 0.961 1_455 S
H464 C463 0.959 . S
H465 C463 0.960 . S
H466 C463 0.961 1_655 S
O467 Co442 1.967 1_655 S
O467 C475 1.258 . S
O468 Co443 1.941 1_654 S
O468 C475 1.266 . S
H469 C471 0.959 1_655 S
H470 C471 0.961 . S
C471 C461 1.510 . S
C471 H469 0.959 1_455 S
C471 H470 0.961 . S
C471 H472 0.960 . S
H472 C471 0.960 . S
H473 N453 0.862 . S
O474 Co442 1.920 . S
O474 C447 1.289 . S
C475 O467 1.258 . S
C475 O468 1.266 . S
Co476 O479 1.970 . S
Co476 N493 1.989 . S
Co476 O501 1.967 . S
Co476 O508 1.920 . S
Co477 O480 1.966 . S
Co477 N486 2.022 . S
Co477 N494 1.993 . S
Co477 O502 1.941 . S
C478 O479 1.258 . S
C478 O480 1.263 . S
O479 Co476 1.970 . S
O479 C478 1.258 . S
O480 Co477 1.966 . S
O480 C478 1.263 . S
C481 O482 1.235 . S
C481 O508 1.289 . S
O482 C481 1.235 . S
C483 C485 1.400 . S
C483 N486 1.351 . S
C483 C488 1.501 . S
C484 C485 1.387 . S
C484 N487 1.341 . S
C485 C483 1.400 . S
C485 C484 1.387 . S
N486 Co477 2.022 . S
N486 C483 1.351 . S
N486 N487 1.365 . S
N487 C484 1.341 . S
N487 N486 1.365 . S
N487 H507 0.862 . S
C488 C483 1.501 . S
C488 H489 0.961 . S
C488 H490 0.961 . S
C488 H491 0.960 . S
H489 C488 0.961 . S
H490 C488 0.961 . S
H491 C488 0.960 . S
C492 N493 1.342 . S
C492 C496 1.401 . S
C492 C497 1.499 . S
N493 Co476 1.989 . S
N493 C492 1.342 . S
N493 N494 1.388 . S
N494 Co477 1.993 . S
N494 N493 1.388 . S
N494 C495 1.346 . S
C495 N494 1.346 . S
C495 C496 1.396 . S
C495 C505 1.510 . S
C496 C492 1.401 . S
C496 C495 1.396 . S
C497 C492 1.499 . S
C497 H498 0.959 . S
C497 H499 0.960 . S
C497 H500 0.961 . S
H498 C497 0.959 . S
H499 C497 0.960 . S
H500 C497 0.961 . S
O501 Co476 1.967 . S
O501 C509 1.258 . S
O502 Co477 1.941 . S
O502 C509 1.266 . S
H503 C505 0.959 . S
H504 C505 0.961 . S
C505 C495 1.510 . S
C505 H503 0.959 . S
C505 H504 0.961 . S
C505 H506 0.960 . S
H506 C505 0.960 . S
H507 N487 0.862 . S
O508 Co476 1.920 . S
O508 C481 1.289 . S
C509 O501 1.258 . S
C509 O502 1.266 . S
Co510 O513 1.970 . S
Co510 N527 1.989 . S
Co510 O535 1.967 1_455 S
Co510 O542 1.920 . S
Co511 O514 1.966 1_554 S
Co511 N520 2.022 . S
Co511 N528 1.993 1_554 S
Co511 O536 1.941 1_454 S
C512 O513 1.258 . S
C512 O514 1.263 . S
O513 Co510 1.970 . S
O513 C512 1.258 . S
O514 Co511 1.966 1_556 S
O514 C512 1.263 . S
C515 O516 1.235 . S
C515 O542 1.289 . S
O516 C515 1.235 . S
C517 C519 1.400 . S
C517 N520 1.351 . S
C517 C522 1.501 . S
C518 C519 1.387 1_655 S
C518 N521 1.341 . S
C519 C517 1.400 . S
C519 C518 1.387 1_455 S
N520 Co511 2.022 . S
N520 C517 1.351 . S
N520 N521 1.365 1_455 S
N521 C518 1.341 . S
N521 N520 1.365 1_655 S
N521 H541 0.862 . S
C522 C517 1.501 . S
C522 H523 0.961 . S
C522 H524 0.961 . S
C522 H525 0.960 . S
H523 C522 0.961 . S
H524 C522 0.961 . S
H525 C522 0.960 . S
C526 N527 1.342 . S
C526 C530 1.401 . S
C526 C531 1.499 . S
N527 Co510 1.989 . S
N527 C526 1.342 . S
N527 N528 1.388 . S
N528 Co511 1.993 1_556 S
N528 N527 1.388 . S
N528 C529 1.346 1_556 S
C529 N528 1.346 1_554 S
C529 C530 1.396 1_554 S
C529 C539 1.510 . S
C530 C526 1.401 . S
C530 C529 1.396 1_556 S
C531 C526 1.499 . S
C531 H532 0.959 . S
C531 H533 0.960 . S
C531 H534 0.961 1_455 S
H532 C531 0.959 . S
H533 C531 0.960 . S
H534 C531 0.961 1_655 S
O535 Co510 1.967 1_655 S
O535 C543 1.258 . S
O536 Co511 1.941 1_656 S
O536 C543 1.266 . S
H537 C539 0.959 1_655 S
H538 C539 0.961 . S
C539 C529 1.510 . S
C539 H537 0.959 1_455 S
C539 H538 0.961 . S
C539 H540 0.960 . S
H540 C539 0.960 . S
H541 N521 0.862 . S
O542 Co510 1.920 . S
O542 C515 1.289 . S
C543 O535 1.258 . S
C543 O536 1.266 . S
H544 C552 0.950 . S
H545 C557 0.950 . S
H546 C554 0.950 . S
H547 C556 0.950 . S
H548 C558 0.950 . S
H549 C560 0.950 . S
H550 C562 0.950 . S
H551 C563 0.950 . S
C552 H544 0.950 . S
C552 C553 1.386 1_655 S
C552 C554 1.391 . S
C553 C552 1.386 1_455 S
C553 C557 1.393 . S
C554 H546 0.950 . S
C554 C552 1.391 . S
C554 C555 1.400 1_655 S
C555 C554 1.400 1_455 S
C555 C556 1.398 . S
C555 C561 1.491 . S
C556 H547 0.950 . S
C556 C555 1.398 . S
C556 C557 1.391 . S
C557 H545 0.950 . S
C557 C553 1.393 . S
C557 C556 1.391 . S
C558 H548 0.950 . S
C558 C559 1.386 . S
C558 C560 1.391 . S
C559 C558 1.386 . S
C559 C563 1.393 1_455 S
C560 H549 0.950 . S
C560 C558 1.391 . S
C560 C561 1.400 . S
C561 C555 1.491 . S
C561 C560 1.400 . S
C561 C562 1.398 1_455 S
C562 H550 0.950 . S
C562 C561 1.398 1_655 S
C562 C563 1.391 . S
C563 H551 0.950 . S
C563 C559 1.393 1_655 S
C563 C562 1.391 . S
H564 C572 0.950 . S
H565 C577 0.950 . S
H566 C574 0.950 . S
H567 C576 0.950 . S
H568 C578 0.950 . S
H569 C580 0.950 . S
H570 C582 0.950 . S
H571 C583 0.950 . S
C572 H564 0.950 . S
C572 C573 1.386 . S
C572 C574 1.391 . S
C573 C572 1.386 . S
C573 C577 1.393 . S
C574 H566 0.950 . S
C574 C572 1.391 . S
C574 C575 1.400 . S
C575 C574 1.400 . S
C575 C576 1.398 . S
C575 C581 1.491 . S
C576 H567 0.950 . S
C576 C575 1.398 . S
C576 C577 1.391 . S
C577 H565 0.950 . S
C577 C573 1.393 . S
C577 C576 1.391 . S
C578 H568 0.950 . S
C578 C579 1.386 . S
C578 C580 1.391 . S
C579 C578 1.386 . S
C579 C583 1.393 . S
C580 H569 0.950 . S
C580 C578 1.391 . S
C580 C581 1.400 . S
C581 C575 1.491 . S
C581 C580 1.400 . S
C581 C582 1.398 . S
C582 H570 0.950 . S
C582 C581 1.398 . S
C582 C583 1.391 . S
C583 H571 0.950 . S
C583 C579 1.393 . S
C583 C582 1.391 . S
H584 C592 0.950 . S
H585 C597 0.950 . S
H586 C594 0.950 . S
H587 C596 0.950 . S
H588 C598 0.950 . S
H589 C600 0.950 . S
H590 C602 0.950 . S
H591 C603 0.950 . S
C592 H584 0.950 . S
C592 C593 1.386 . S
C592 C594 1.391 . S
C593 C592 1.386 . S
C593 C597 1.393 . S
C594 H586 0.950 . S
C594 C592 1.391 . S
C594 C595 1.400 . S
C595 C594 1.400 . S
C595 C596 1.398 . S
C595 C601 1.491 1_554 S
C596 H587 0.950 . S
C596 C595 1.398 . S
C596 C597 1.391 . S
C597 H585 0.950 . S
C597 C593 1.393 . S
C597 C596 1.391 . S
C598 H588 0.950 . S
C598 C599 1.386 . S
C598 C600 1.391 . S
C599 C598 1.386 . S
C599 C603 1.393 . S
C600 H589 0.950 . S
C600 C598 1.391 . S
C600 C601 1.400 . S
C601 C595 1.491 1_556 S
C601 C600 1.400 . S
C601 C602 1.398 . S
C602 H590 0.950 . S
C602 C601 1.398 . S
C602 C603 1.391 . S
C603 H591 0.950 . S
C603 C599 1.393 . S
C603 C602 1.391 . S
H604 C612 0.950 . S
H605 C617 0.950 . S
H606 C614 0.950 . S
H607 C616 0.950 . S
H608 C618 0.950 . S
H609 C620 0.950 . S
H610 C622 0.950 . S
H611 C623 0.950 . S
C612 H604 0.950 . S
C612 C613 1.386 . S
C612 C614 1.391 . S
C613 C612 1.386 . S
C613 C617 1.393 . S
C614 H606 0.950 . S
C614 C612 1.391 . S
C614 C615 1.400 . S
C615 C614 1.400 . S
C615 C616 1.398 . S
C615 C621 1.491 . S
C616 H607 0.950 . S
C616 C615 1.398 . S
C616 C617 1.391 . S
C617 H605 0.950 . S
C617 C613 1.393 . S
C617 C616 1.391 . S
C618 H608 0.950 . S
C618 C619 1.386 . S
C618 C620 1.391 . S
C619 C618 1.386 . S
C619 C623 1.393 . S
C620 H609 0.950 . S
C620 C618 1.391 . S
C620 C621 1.400 . S
C621 C615 1.491 . S
C621 C620 1.400 . S
C621 C622 1.398 . S
C622 H610 0.950 . S
C622 C621 1.398 . S
C622 C623 1.391 . S
C623 H611 0.950 . S
C623 C619 1.393 . S
C623 C622 1.391 . S
H624 C632 0.950 . S
H625 C637 0.950 . S
H626 C634 0.950 . S
H627 C636 0.950 . S
H628 C638 0.950 . S
H629 C640 0.950 . S
H630 C642 0.950 . S
H631 C643 0.950 . S
C632 H624 0.950 . S
C632 C633 1.386 1_655 S
C632 C634 1.391 . S
C633 C632 1.386 1_455 S
C633 C637 1.393 . S
C634 H626 0.950 . S
C634 C632 1.391 . S
C634 C635 1.400 1_655 S
C635 C634 1.400 1_455 S
C635 C636 1.398 . S
C635 C641 1.491 . S
C636 H627 0.950 . S
C636 C635 1.398 . S
C636 C637 1.391 . S
C637 H625 0.950 . S
C637 C633 1.393 . S
C637 C636 1.391 . S
C638 H628 0.950 . S
C638 C639 1.386 . S
C638 C640 1.391 . S
C639 C638 1.386 . S
C639 C643 1.393 1_455 S
C640 H629 0.950 . S
C640 C638 1.391 . S
C640 C641 1.400 . S
C641 C635 1.491 . S
C641 C640 1.400 . S
C641 C642 1.398 1_455 S
C642 H630 0.950 . S
C642 C641 1.398 1_655 S
C642 C643 1.391 . S
C643 H631 0.950 . S
C643 C639 1.393 1_655 S
C643 C642 1.391 . S
H644 C652 0.950 . S
H645 C657 0.950 . S
H646 C654 0.950 . S
H647 C656 0.950 . S
H648 C658 0.950 . S
H649 C660 0.950 . S
H650 C662 0.950 . S
H651 C663 0.950 . S
C652 H644 0.950 . S
C652 C653 1.386 . S
C652 C654 1.391 . S
C653 C652 1.386 . S
C653 C657 1.393 . S
C654 H646 0.950 . S
C654 C652 1.391 . S
C654 C655 1.400 . S
C655 C654 1.400 . S
C655 C656 1.398 . S
C655 C661 1.491 . S
C656 H647 0.950 . S
C656 C655 1.398 . S
C656 C657 1.391 . S
C657 H645 0.950 . S
C657 C653 1.393 . S
C657 C656 1.391 . S
C658 H648 0.950 . S
C658 C659 1.386 . S
C658 C660 1.391 . S
C659 C658 1.386 . S
C659 C663 1.393 . S
C660 H649 0.950 . S
C660 C658 1.391 . S
C660 C661 1.400 . S
C661 C655 1.491 . S
C661 C660 1.400 . S
C661 C662 1.398 . S
C662 H650 0.950 . S
C662 C661 1.398 . S
C662 C663 1.391 . S
C663 H651 0.950 . S
C663 C659 1.393 . S
C663 C662 1.391 . S
H664 C672 0.950 . S
H665 C677 0.950 . S
H666 C674 0.950 . S
H667 C676 0.950 . S
H668 C678 0.950 . S
H669 C680 0.950 . S
H670 C682 0.950 . S
H671 C683 0.950 . S
C672 H664 0.950 . S
C672 C673 1.386 . S
C672 C674 1.391 . S
C673 C672 1.386 . S
C673 C677 1.393 . S
C674 H666 0.950 . S
C674 C672 1.391 . S
C674 C675 1.400 . S
C675 C674 1.400 . S
C675 C676 1.398 . S
C675 C681 1.491 1_556 S
C676 H667 0.950 . S
C676 C675 1.398 . S
C676 C677 1.391 . S
C677 H665 0.950 . S
C677 C673 1.393 . S
C677 C676 1.391 . S
C678 H668 0.950 . S
C678 C679 1.386 . S
C678 C680 1.391 . S
C679 C678 1.386 . S
C679 C683 1.393 . S
C680 H669 0.950 . S
C680 C678 1.391 . S
C680 C681 1.400 . S
C681 C675 1.491 1_554 S
C681 C680 1.400 . S
C681 C682 1.398 . S
C682 H670 0.950 . S
C682 C681 1.398 . S
C682 C683 1.391 . S
C683 H671 0.950 . S
C683 C679 1.393 . S
C683 C682 1.391 . S
H684 C692 0.950 . S
H685 C697 0.950 . S
H686 C694 0.950 . S
H687 C696 0.950 . S
H688 C698 0.950 . S
H689 C700 0.950 . S
H690 C702 0.950 . S
H691 C703 0.950 . S
C692 H684 0.950 . S
C692 C693 1.386 . S
C692 C694 1.391 . S
C693 C692 1.386 . S
C693 C697 1.393 . S
C694 H686 0.950 . S
C694 C692 1.391 . S
C694 C695 1.400 . S
C695 C694 1.400 . S
C695 C696 1.398 . S
C695 C701 1.491 . S
C696 H687 0.950 . S
C696 C695 1.398 . S
C696 C697 1.391 . S
C697 H685 0.950 . S
C697 C693 1.393 . S
C697 C696 1.391 . S
C698 H688 0.950 . S
C698 C699 1.386 . S
C698 C700 1.391 . S
C699 C698 1.386 . S
C699 C703 1.393 . S
C700 H689 0.950 . S
C700 C698 1.391 . S
C700 C701 1.400 . S
C701 C695 1.491 . S
C701 C700 1.400 . S
C701 C702 1.398 . S
C702 H690 0.950 . S
C702 C701 1.398 . S
C702 C703 1.391 . S
C703 H691 0.950 . S
C703 C699 1.393 . S
C703 C702 1.391 . S
H704 C712 0.950 . S
H705 C717 0.950 . S
H706 C714 0.950 . S
H707 C716 0.950 . S
H708 C718 0.950 . S
H709 C720 0.950 . S
H710 C722 0.950 . S
H711 C723 0.950 . S
C712 H704 0.950 . S
C712 C713 1.386 . S
C712 C714 1.391 . S
C713 C712 1.386 . S
C713 C717 1.393 . S
C714 H706 0.950 . S
C714 C712 1.391 . S
C714 C715 1.400 . S
C715 C714 1.400 . S
C715 C716 1.398 . S
C715 C721 1.491 . S
C716 H707 0.950 . S
C716 C715 1.398 . S
C716 C717 1.391 . S
C717 H705 0.950 . S
C717 C713 1.393 . S
C717 C716 1.391 . S
C718 H708 0.950 . S
C718 C719 1.386 . S
C718 C720 1.391 . S
C719 C718 1.386 . S
C719 C723 1.393 . S
C720 H709 0.950 . S
C720 C718 1.391 . S
C720 C721 1.400 . S
C721 C715 1.491 . S
C721 C720 1.400 . S
C721 C722 1.398 . S
C722 H710 0.950 . S
C722 C721 1.398 . S
C722 C723 1.391 . S
C723 H711 0.950 . S
C723 C719 1.393 . S
C723 C722 1.391 . S
H724 C732 0.950 . S
H725 C737 0.950 . S
H726 C734 0.950 . S
H727 C736 0.950 . S
H728 C738 0.950 . S
H729 C740 0.950 . S
H730 C742 0.950 . S
H731 C743 0.950 . S
C732 H724 0.950 . S
C732 C733 1.386 . S
C732 C734 1.391 . S
C733 C732 1.386 . S
C733 C737 1.393 . S
C734 H726 0.950 . S
C734 C732 1.391 . S
C734 C735 1.400 . S
C735 C734 1.400 . S
C735 C736 1.398 . S
C735 C741 1.491 . S
C736 H727 0.950 . S
C736 C735 1.398 . S
C736 C737 1.391 . S
C737 H725 0.950 . S
C737 C733 1.393 . S
C737 C736 1.391 . S
C738 H728 0.950 . S
C738 C739 1.386 . S
C738 C740 1.391 . S
C739 C738 1.386 . S
C739 C743 1.393 . S
C740 H729 0.950 . S
C740 C738 1.391 . S
C740 C741 1.400 . S
C741 C735 1.491 . S
C741 C740 1.400 . S
C741 C742 1.398 . S
C742 H730 0.950 . S
C742 C741 1.398 . S
C742 C743 1.391 . S
C743 H731 0.950 . S
C743 C739 1.393 . S
C743 C742 1.391 . S
H744 C752 0.950 . S
H745 C757 0.950 . S
H746 C754 0.950 . S
H747 C756 0.950 . S
H748 C758 0.950 . S
H749 C760 0.950 . S
H750 C762 0.950 . S
H751 C763 0.950 . S
C752 H744 0.950 . S
C752 C753 1.386 . S
C752 C754 1.391 . S
C753 C752 1.386 . S
C753 C757 1.393 . S
C754 H746 0.950 . S
C754 C752 1.391 . S
C754 C755 1.400 . S
C755 C754 1.400 . S
C755 C756 1.398 . S
C755 C761 1.491 . S
C756 H747 0.950 . S
C756 C755 1.398 . S
C756 C757 1.391 . S
C757 H745 0.950 . S
C757 C753 1.393 . S
C757 C756 1.391 . S
C758 H748 0.950 . S
C758 C759 1.386 . S
C758 C760 1.391 . S
C759 C758 1.386 . S
C759 C763 1.393 . S
C760 H749 0.950 . S
C760 C758 1.391 . S
C760 C761 1.400 . S
C761 C755 1.491 . S
C761 C760 1.400 . S
C761 C762 1.398 . S
C762 H750 0.950 . S
C762 C761 1.398 . S
C762 C763 1.391 . S
C763 H751 0.950 . S
C763 C759 1.393 . S
C763 C762 1.391 . S
H764 C772 0.950 . S
H765 C777 0.950 . S
H766 C774 0.950 . S
H767 C776 0.950 . S
H768 C778 0.950 . S
H769 C780 0.950 . S
H770 C782 0.950 . S
H771 C783 0.950 . S
C772 H764 0.950 . S
C772 C773 1.386 . S
C772 C774 1.391 . S
C773 C772 1.386 . S
C773 C777 1.393 . S
C774 H766 0.950 . S
C774 C772 1.391 . S
C774 C775 1.400 . S
C775 C774 1.400 . S
C775 C776 1.398 . S
C775 C781 1.491 . S
C776 H767 0.950 . S
C776 C775 1.398 . S
C776 C777 1.391 . S
C777 H765 0.950 . S
C777 C773 1.393 . S
C777 C776 1.391 . S
C778 H768 0.950 . S
C778 C779 1.386 . S
C778 C780 1.391 . S
C779 C778 1.386 . S
C779 C783 1.393 . S
C780 H769 0.950 . S
C780 C778 1.391 . S
C780 C781 1.400 . S
C781 C775 1.491 . S
C781 C780 1.400 . S
C781 C782 1.398 . S
C782 H770 0.950 . S
C782 C781 1.398 . S
C782 C783 1.391 . S
C783 H771 0.950 . S
C783 C779 1.393 . S
C783 C782 1.391 . S
H784 C792 0.950 . S
H785 C797 0.950 . S
H786 C794 0.950 . S
H787 C796 0.950 . S
H788 C798 0.950 . S
H789 C800 0.950 . S
H790 C802 0.950 . S
H791 C803 0.950 . S
C792 H784 0.950 . S
C792 C793 1.386 . S
C792 C794 1.391 . S
C793 C792 1.386 . S
C793 C797 1.393 . S
C794 H786 0.950 . S
C794 C792 1.391 . S
C794 C795 1.400 . S
C795 C794 1.400 . S
C795 C796 1.398 . S
C795 C801 1.491 1_556 S
C796 H787 0.950 . S
C796 C795 1.398 . S
C796 C797 1.391 . S
C797 H785 0.950 . S
C797 C793 1.393 . S
C797 C796 1.391 . S
C798 H788 0.950 . S
C798 C799 1.386 . S
C798 C800 1.391 . S
C799 C798 1.386 . S
C799 C803 1.393 . S
C800 H789 0.950 . S
C800 C798 1.391 . S
C800 C801 1.400 . S
C801 C795 1.491 1_554 S
C801 C800 1.400 . S
C801 C802 1.398 . S
C802 H790 0.950 . S
C802 C801 1.398 . S
C802 C803 1.391 . S
C803 H791 0.950 . S
C803 C799 1.393 . S
C803 C802 1.391 . S
H804 C812 0.950 . S
H805 C817 0.950 1_655 S
H806 C814 0.950 . S
H807 C816 0.950 1_655 S
H808 C818 0.950 1_655 S
H809 C820 0.950 1_655 S
H810 C822 0.950 . S
H811 C823 0.950 . S
C812 H804 0.950 . S
C812 C813 1.386 . S
C812 C814 1.391 . S
C813 C812 1.386 . S
C813 C817 1.393 . S
C814 H806 0.950 . S
C814 C812 1.391 . S
C814 C815 1.400 . S
C815 C814 1.400 . S
C815 C816 1.398 . S
C815 C821 1.491 . S
C816 H807 0.950 1_455 S
C816 C815 1.398 . S
C816 C817 1.391 . S
C817 H805 0.950 1_455 S
C817 C813 1.393 . S
C817 C816 1.391 . S
C818 H808 0.950 1_455 S
C818 C819 1.386 . S
C818 C820 1.391 . S
C819 C818 1.386 . S
C819 C823 1.393 . S
C820 H809 0.950 1_455 S
C820 C818 1.391 . S
C820 C821 1.400 . S
C821 C815 1.491 . S
C821 C820 1.400 . S
C821 C822 1.398 . S
C822 H810 0.950 . S
C822 C821 1.398 . S
C822 C823 1.391 . S
C823 H811 0.950 . S
C823 C819 1.393 . S
C823 C822 1.391 . S
H824 C832 0.950 . S
H825 C837 0.950 . S
H826 C834 0.950 . S
H827 C836 0.950 . S
H828 C838 0.950 . S
H829 C840 0.950 . S
H830 C842 0.950 . S
H831 C843 0.950 . S
C832 H824 0.950 . S
C832 C833 1.386 . S
C832 C834 1.391 . S
C833 C832 1.386 . S
C833 C837 1.393 . S
C834 H826 0.950 . S
C834 C832 1.391 . S
C834 C835 1.400 . S
C835 C834 1.400 . S
C835 C836 1.398 . S
C835 C841 1.491 1_554 S
C836 H827 0.950 . S
C836 C835 1.398 . S
C836 C837 1.391 . S
C837 H825 0.950 . S
C837 C833 1.393 . S
C837 C836 1.391 . S
C838 H828 0.950 . S
C838 C839 1.386 . S
C838 C840 1.391 . S
C839 C838 1.386 . S
C839 C843 1.393 . S
C840 H829 0.950 . S
C840 C838 1.391 . S
C840 C841 1.400 . S
C841 C835 1.491 1_556 S
C841 C840 1.400 . S
C841 C842 1.398 . S
C842 H830 0.950 . S
C842 C841 1.398 . S
C842 C843 1.391 . S
C843 H831 0.950 . S
C843 C839 1.393 . S
C843 C842 1.391 . S
H844 C852 0.950 . S
H845 C857 0.950 1_655 S
H846 C854 0.950 . S
H847 C856 0.950 1_655 S
H848 C858 0.950 1_655 S
H849 C860 0.950 1_655 S
H850 C862 0.950 . S
H851 C863 0.950 . S
C852 H844 0.950 . S
C852 C853 1.386 . S
C852 C854 1.391 . S
C853 C852 1.386 . S
C853 C857 1.393 . S
C854 H846 0.950 . S
C854 C852 1.391 . S
C854 C855 1.400 . S
C855 C854 1.400 . S
C855 C856 1.398 . S
C855 C861 1.491 . S
C856 H847 0.950 1_455 S
C856 C855 1.398 . S
C856 C857 1.391 . S
C857 H845 0.950 1_455 S
C857 C853 1.393 . S
C857 C856 1.391 . S
C858 H848 0.950 1_455 S
C858 C859 1.386 . S
C858 C860 1.391 . S
C859 C858 1.386 . S
C859 C863 1.393 . S
C860 H849 0.950 1_455 S
C860 C858 1.391 . S
C860 C861 1.400 . S
C861 C855 1.491 . S
C861 C860 1.400 . S
C861 C862 1.398 . S
C862 H850 0.950 . S
C862 C861 1.398 . S
C862 C863 1.391 . S
C863 H851 0.950 . S
C863 C859 1.393 . S
C863 C862 1.391 . S
H864 C872 0.950 . S
H865 C877 0.950 . S
H866 C874 0.950 . S
H867 C876 0.950 . S
H868 C878 0.950 . S
H869 C880 0.950 . S
H870 C882 0.950 . S
H871 C883 0.950 . S
C872 H864 0.950 . S
C872 C873 1.386 . S
C872 C874 1.391 . S
C873 C872 1.386 . S
C873 C877 1.393 1_554 S
C874 H866 0.950 . S
C874 C872 1.391 . S
C874 C875 1.400 . S
C875 C874 1.400 . S
C875 C876 1.398 1_554 S
C875 C881 1.491 1_554 S
C876 H867 0.950 . S
C876 C875 1.398 1_556 S
C876 C877 1.391 . S
C877 H865 0.950 . S
C877 C873 1.393 1_556 S
C877 C876 1.391 . S
C878 H868 0.950 . S
C878 C879 1.386 . S
C878 C880 1.391 . S
C879 C878 1.386 . S
C879 C883 1.393 1_556 S
C880 H869 0.950 . S
C880 C878 1.391 . S
C880 C881 1.400 . S
C881 C875 1.491 1_556 S
C881 C880 1.400 . S
C881 C882 1.398 1_556 S
C882 H870 0.950 . S
C882 C881 1.398 1_554 S
C882 C883 1.391 . S
C883 H871 0.950 . S
C883 C879 1.393 1_554 S
C883 C882 1.391 . S
H884 C892 0.950 . S
H885 C897 0.950 . S
H886 C894 0.950 . S
H887 C896 0.950 . S
H888 C898 0.950 . S
H889 C900 0.950 . S
H890 C902 0.950 . S
H891 C903 0.950 . S
C892 H884 0.950 . S
C892 C893 1.386 . S
C892 C894 1.391 . S
C893 C892 1.386 . S
C893 C897 1.393 . S
C894 H886 0.950 . S
C894 C892 1.391 . S
C894 C895 1.400 . S
C895 C894 1.400 . S
C895 C896 1.398 . S
C895 C901 1.491 . S
C896 H887 0.950 . S
C896 C895 1.398 . S
C896 C897 1.391 . S
C897 H885 0.950 . S
C897 C893 1.393 . S
C897 C896 1.391 . S
C898 H888 0.950 . S
C898 C899 1.386 . S
C898 C900 1.391 . S
C899 C898 1.386 . S
C899 C903 1.393 . S
C900 H889 0.950 . S
C900 C898 1.391 . S
C900 C901 1.400 . S
C901 C895 1.491 . S
C901 C900 1.400 . S
C901 C902 1.398 . S
C902 H890 0.950 . S
C902 C901 1.398 . S
C902 C903 1.391 . S
C903 H891 0.950 . S
C903 C899 1.393 . S
C903 C902 1.391 . S
H904 C912 0.950 . S
H905 C917 0.950 . S
H906 C914 0.950 . S
H907 C916 0.950 . S
H908 C918 0.950 . S
H909 C920 0.950 . S
H910 C922 0.950 . S
H911 C923 0.950 . S
C912 H904 0.950 . S
C912 C913 1.386 . S
C912 C914 1.391 . S
C913 C912 1.386 . S
C913 C917 1.393 . S
C914 H906 0.950 . S
C914 C912 1.391 . S
C914 C915 1.400 . S
C915 C914 1.400 . S
C915 C916 1.398 . S
C915 C921 1.491 . S
C916 H907 0.950 . S
C916 C915 1.398 . S
C916 C917 1.391 . S
C917 H905 0.950 . S
C917 C913 1.393 . S
C917 C916 1.391 . S
C918 H908 0.950 . S
C918 C919 1.386 . S
C918 C920 1.391 . S
C919 C918 1.386 . S
C919 C923 1.393 . S
C920 H909 0.950 . S
C920 C918 1.391 . S
C920 C921 1.400 . S
C921 C915 1.491 . S
C921 C920 1.400 . S
C921 C922 1.398 . S
C922 H910 0.950 . S
C922 C921 1.398 . S
C922 C923 1.391 . S
C923 H911 0.950 . S
C923 C919 1.393 . S
C923 C922 1.391 . S
H924 C932 0.950 . S
H925 C937 0.950 . S
H926 C934 0.950 . S
H927 C936 0.950 . S
H928 C938 0.950 . S
H929 C940 0.950 . S
H930 C942 0.950 . S
H931 C943 0.950 . S
C932 H924 0.950 . S
C932 C933 1.386 . S
C932 C934 1.391 . S
C933 C932 1.386 . S
C933 C937 1.393 . S
C934 H926 0.950 . S
C934 C932 1.391 . S
C934 C935 1.400 . S
C935 C934 1.400 . S
C935 C936 1.398 . S
C935 C941 1.491 . S
C936 H927 0.950 . S
C936 C935 1.398 . S
C936 C937 1.391 . S
C937 H925 0.950 . S
C937 C933 1.393 . S
C937 C936 1.391 . S
C938 H928 0.950 . S
C938 C939 1.386 . S
C938 C940 1.391 . S
C939 C938 1.386 . S
C939 C943 1.393 . S
C940 H929 0.950 . S
C940 C938 1.391 . S
C940 C941 1.400 . S
C941 C935 1.491 . S
C941 C940 1.400 . S
C941 C942 1.398 . S
C942 H930 0.950 . S
C942 C941 1.398 . S
C942 C943 1.391 . S
C943 H931 0.950 . S
C943 C939 1.393 . S
C943 C942 1.391 . S
H944 C952 0.950 . S
H945 C957 0.950 . S
H946 C954 0.950 . S
H947 C956 0.950 . S
H948 C958 0.950 . S
H949 C960 0.950 . S
H950 C962 0.950 . S
H951 C963 0.950 . S
C952 H944 0.950 . S
C952 C953 1.386 . S
C952 C954 1.391 . S
C953 C952 1.386 . S
C953 C957 1.393 . S
C954 H946 0.950 . S
C954 C952 1.391 . S
C954 C955 1.400 . S
C955 C954 1.400 . S
C955 C956 1.398 . S
C955 C961 1.491 . S
C956 H947 0.950 . S
C956 C955 1.398 . S
C956 C957 1.391 . S
C957 H945 0.950 . S
C957 C953 1.393 . S
C957 C956 1.391 . S
C958 H948 0.950 . S
C958 C959 1.386 . S
C958 C960 1.391 . S
C959 C958 1.386 . S
C959 C963 1.393 . S
C960 H949 0.950 . S
C960 C958 1.391 . S
C960 C961 1.400 . S
C961 C955 1.491 . S
C961 C960 1.400 . S
C961 C962 1.398 . S
C962 H950 0.950 . S
C962 C961 1.398 . S
C962 C963 1.391 . S
C963 H951 0.950 . S
C963 C959 1.393 . S
C963 C962 1.391 . S
H964 C972 0.950 . S
H965 C977 0.950 . S
H966 C974 0.950 . S
H967 C976 0.950 . S
H968 C978 0.950 . S
H969 C980 0.950 . S
H970 C982 0.950 . S
H971 C983 0.950 . S
C972 H964 0.950 . S
C972 C973 1.386 . S
C972 C974 1.391 . S
C973 C972 1.386 . S
C973 C977 1.393 . S
C974 H966 0.950 . S
C974 C972 1.391 . S
C974 C975 1.400 . S
C975 C974 1.400 . S
C975 C976 1.398 . S
C975 C981 1.491 . S
C976 H967 0.950 . S
C976 C975 1.398 . S
C976 C977 1.391 . S
C977 H965 0.950 . S
C977 C973 1.393 . S
C977 C976 1.391 . S
C978 H968 0.950 . S
C978 C979 1.386 . S
C978 C980 1.391 . S
C979 C978 1.386 . S
C979 C983 1.393 . S
C980 H969 0.950 . S
C980 C978 1.391 . S
C980 C981 1.400 . S
C981 C975 1.491 . S
C981 C980 1.400 . S
C981 C982 1.398 . S
C982 H970 0.950 . S
C982 C981 1.398 . S
C982 C983 1.391 . S
C983 H971 0.950 . S
C983 C979 1.393 . S
C983 C982 1.391 . S
H984 C992 0.950 . S
H985 C997 0.950 . S
H986 C994 0.950 . S
H987 C996 0.950 . S
H988 C998 0.950 . S
H989 C1000 0.950 . S
H990 C1002 0.950 . S
H991 C1003 0.950 . S
C992 H984 0.950 . S
C992 C993 1.386 . S
C992 C994 1.391 . S
C993 C992 1.386 . S
C993 C997 1.393 . S
C994 H986 0.950 . S
C994 C992 1.391 . S
C994 C995 1.400 . S
C995 C994 1.400 . S
C995 C996 1.398 . S
C995 C1001 1.491 1_545 S
C996 H987 0.950 . S
C996 C995 1.398 . S
C996 C997 1.391 . S
C997 H985 0.950 . S
C997 C993 1.393 . S
C997 C996 1.391 . S
C998 H988 0.950 . S
C998 C999 1.386 . S
C998 C1000 1.391 . S
C999 C998 1.386 . S
C999 C1003 1.393 . S
C1000 H989 0.950 . S
C1000 C998 1.391 . S
C1000 C1001 1.400 . S
C1001 C995 1.491 1_565 S
C1001 C1000 1.400 . S
C1001 C1002 1.398 . S
C1002 H990 0.950 . S
C1002 C1001 1.398 . S
C1002 C1003 1.391 . S
C1003 H991 0.950 . S
C1003 C999 1.393 . S
C1003 C1002 1.391 . S
H1004 C1012 0.950 . S
H1005 C1017 0.950 . S
H1006 C1014 0.950 . S
H1007 C1016 0.950 . S
H1008 C1018 0.950 . S
H1009 C1020 0.950 . S
H1010 C1022 0.950 . S
H1011 C1023 0.950 . S
C1012 H1004 0.950 . S
C1012 C1013 1.386 . S
C1012 C1014 1.391 . S
C1013 C1012 1.386 . S
C1013 C1017 1.393 1_455 S
C1014 H1006 0.950 . S
C1014 C1012 1.391 . S
C1014 C1015 1.400 . S
C1015 C1014 1.400 . S
C1015 C1016 1.398 1_454 S
C1015 C1021 1.491 1_564 S
C1016 H1007 0.950 . S
C1016 C1015 1.398 1_656 S
C1016 C1017 1.391 1_556 S
C1017 H1005 0.950 . S
C1017 C1013 1.393 1_655 S
C1017 C1016 1.391 1_554 S
C1018 H1008 0.950 . S
C1018 C1019 1.386 1_655 S
C1018 C1020 1.391 . S
C1019 C1018 1.386 1_455 S
C1019 C1023 1.393 . S
C1020 H1009 0.950 . S
C1020 C1018 1.391 . S
C1020 C1021 1.400 1_655 S
C1021 C1015 1.491 1_546 S
C1021 C1020 1.400 1_455 S
C1021 C1022 1.398 1_556 S
C1022 H1010 0.950 . S
C1022 C1021 1.398 1_554 S
C1022 C1023 1.391 1_554 S
C1023 H1011 0.950 . S
C1023 C1019 1.393 . S
C1023 C1022 1.391 1_556 S
H1024 C1032 0.950 . S
H1025 C1037 0.950 . S
H1026 C1034 0.950 . S
H1027 C1036 0.950 . S
H1028 C1038 0.950 . S
H1029 C1040 0.950 . S
H1030 C1042 0.950 . S
H1031 C1043 0.950 . S
C1032 H1024 0.950 . S
C1032 C1033 1.386 . S
C1032 C1034 1.391 . S
C1033 C1032 1.386 . S
C1033 C1037 1.393 . S
C1034 H1026 0.950 . S
C1034 C1032 1.391 . S
C1034 C1035 1.400 . S
C1035 C1034 1.400 . S
C1035 C1036 1.398 . S
C1035 C1041 1.491 . S
C1036 H1027 0.950 . S
C1036 C1035 1.398 . S
C1036 C1037 1.391 . S
C1037 H1025 0.950 . S
C1037 C1033 1.393 . S
C1037 C1036 1.391 . S
C1038 H1028 0.950 . S
C1038 C1039 1.386 . S
C1038 C1040 1.391 . S
C1039 C1038 1.386 . S
C1039 C1043 1.393 . S
C1040 H1029 0.950 . S
C1040 C1038 1.391 . S
C1040 C1041 1.400 . S
C1041 C1035 1.491 . S
C1041 C1040 1.400 . S
C1041 C1042 1.398 . S
C1042 H1030 0.950 . S
C1042 C1041 1.398 . S
C1042 C1043 1.391 . S
C1043 H1031 0.950 . S
C1043 C1039 1.393 . S
C1043 C1042 1.391 . S
H1044 C1052 0.950 . S
H1045 C1057 0.950 . S
H1046 C1054 0.950 . S
H1047 C1056 0.950 . S
H1048 C1058 0.950 . S
H1049 C1060 0.950 . S
H1050 C1062 0.950 . S
H1051 C1063 0.950 . S
C1052 H1044 0.950 . S
C1052 C1053 1.386 . S
C1052 C1054 1.391 . S
C1053 C1052 1.386 . S
C1053 C1057 1.393 . S
C1054 H1046 0.950 . S
C1054 C1052 1.391 . S
C1054 C1055 1.400 . S
C1055 C1054 1.400 . S
C1055 C1056 1.398 . S
C1055 C1061 1.491 . S
C1056 H1047 0.950 . S
C1056 C1055 1.398 . S
C1056 C1057 1.391 . S
C1057 H1045 0.950 . S
C1057 C1053 1.393 . S
C1057 C1056 1.391 . S
C1058 H1048 0.950 . S
C1058 C1059 1.386 . S
C1058 C1060 1.391 . S
C1059 C1058 1.386 . S
C1059 C1063 1.393 . S
C1060 H1049 0.950 . S
C1060 C1058 1.391 . S
C1060 C1061 1.400 . S
C1061 C1055 1.491 . S
C1061 C1060 1.400 . S
C1061 C1062 1.398 . S
C1062 H1050 0.950 . S
C1062 C1061 1.398 . S
C1062 C1063 1.391 . S
C1063 H1051 0.950 . S
C1063 C1059 1.393 . S
C1063 C1062 1.391 . S
H1064 C1072 0.950 . S
H1065 C1077 0.950 . S
H1066 C1074 0.950 . S
H1067 C1076 0.950 . S
H1068 C1078 0.950 . S
H1069 C1080 0.950 . S
H1070 C1082 0.950 . S
H1071 C1083 0.950 . S
C1072 H1064 0.950 . S
C1072 C1073 1.386 . S
C1072 C1074 1.391 . S
C1073 C1072 1.386 . S
C1073 C1077 1.393 . S
C1074 H1066 0.950 . S
C1074 C1072 1.391 . S
C1074 C1075 1.400 . S
C1075 C1074 1.400 . S
C1075 C1076 1.398 . S
C1075 C1081 1.491 . S
C1076 H1067 0.950 . S
C1076 C1075 1.398 . S
C1076 C1077 1.391 . S
C1077 H1065 0.950 . S
C1077 C1073 1.393 . S
C1077 C1076 1.391 . S
C1078 H1068 0.950 . S
C1078 C1079 1.386 . S
C1078 C1080 1.391 . S
C1079 C1078 1.386 . S
C1079 C1083 1.393 . S
C1080 H1069 0.950 . S
C1080 C1078 1.391 . S
C1080 C1081 1.400 . S
C1081 C1075 1.491 . S
C1081 C1080 1.400 . S
C1081 C1082 1.398 . S
C1082 H1070 0.950 . S
C1082 C1081 1.398 . S
C1082 C1083 1.391 . S
C1083 H1071 0.950 . S
C1083 C1079 1.393 . S
C1083 C1082 1.391 . S
H1084 C1092 0.950 . S
H1085 C1097 0.950 . S
H1086 C1094 0.950 . S
H1087 C1096 0.950 . S
H1088 C1098 0.950 . S
H1089 C1100 0.950 . S
H1090 C1102 0.950 . S
H1091 C1103 0.950 . S
C1092 H1084 0.950 . S
C1092 C1093 1.386 . S
C1092 C1094 1.391 . S
C1093 C1092 1.386 . S
C1093 C1097 1.393 . S
C1094 H1086 0.950 . S
C1094 C1092 1.391 . S
C1094 C1095 1.400 . S
C1095 C1094 1.400 . S
C1095 C1096 1.398 . S
C1095 C1101 1.491 . S
C1096 H1087 0.950 . S
C1096 C1095 1.398 . S
C1096 C1097 1.391 . S
C1097 H1085 0.950 . S
C1097 C1093 1.393 . S
C1097 C1096 1.391 . S
C1098 H1088 0.950 . S
C1098 C1099 1.386 . S
C1098 C1100 1.391 . S
C1099 C1098 1.386 . S
C1099 C1103 1.393 . S
C1100 H1089 0.950 . S
C1100 C1098 1.391 . S
C1100 C1101 1.400 . S
C1101 C1095 1.491 . S
C1101 C1100 1.400 . S
C1101 C1102 1.398 . S
C1102 H1090 0.950 . S
C1102 C1101 1.398 . S
C1102 C1103 1.391 . S
C1103 H1091 0.950 . S
C1103 C1099 1.393 . S
C1103 C1102 1.391 . S
H1104 C1112 0.950 . S
H1105 C1117 0.950 . S
H1106 C1114 0.950 . S
H1107 C1116 0.950 . S
H1108 C1118 0.950 . S
H1109 C1120 0.950 . S
H1110 C1122 0.950 . S
H1111 C1123 0.950 . S
C1112 H1104 0.950 . S
C1112 C1113 1.386 . S
C1112 C1114 1.391 . S
C1113 C1112 1.386 . S
C1113 C1117 1.393 . S
C1114 H1106 0.950 . S
C1114 C1112 1.391 . S
C1114 C1115 1.400 . S
C1115 C1114 1.400 . S
C1115 C1116 1.398 . S
C1115 C1121 1.491 . S
C1116 H1107 0.950 . S
C1116 C1115 1.398 . S
C1116 C1117 1.391 . S
C1117 H1105 0.950 . S
C1117 C1113 1.393 . S
C1117 C1116 1.391 . S
C1118 H1108 0.950 . S
C1118 C1119 1.386 . S
C1118 C1120 1.391 . S
C1119 C1118 1.386 . S
C1119 C1123 1.393 . S
C1120 H1109 0.950 . S
C1120 C1118 1.391 . S
C1120 C1121 1.400 . S
C1121 C1115 1.491 . S
C1121 C1120 1.400 . S
C1121 C1122 1.398 . S
C1122 H1110 0.950 . S
C1122 C1121 1.398 . S
C1122 C1123 1.391 . S
C1123 H1111 0.950 . S
C1123 C1119 1.393 . S
C1123 C1122 1.391 . S
H1124 C1132 0.950 . S
H1125 C1137 0.950 . S
H1126 C1134 0.950 . S
H1127 C1136 0.950 . S
H1128 C1138 0.950 . S
H1129 C1140 0.950 . S
H1130 C1142 0.950 . S
H1131 C1143 0.950 . S
C1132 H1124 0.950 . S
C1132 C1133 1.386 . S
C1132 C1134 1.391 . S
C1133 C1132 1.386 . S
C1133 C1137 1.393 . S
C1134 H1126 0.950 . S
C1134 C1132 1.391 . S
C1134 C1135 1.400 . S
C1135 C1134 1.400 . S
C1135 C1136 1.398 . S
C1135 C1141 1.491 . S
C1136 H1127 0.950 . S
C1136 C1135 1.398 . S
C1136 C1137 1.391 . S
C1137 H1125 0.950 . S
C1137 C1133 1.393 . S
C1137 C1136 1.391 . S
C1138 H1128 0.950 . S
C1138 C1139 1.386 . S
C1138 C1140 1.391 . S
C1139 C1138 1.386 . S
C1139 C1143 1.393 . S
C1140 H1129 0.950 . S
C1140 C1138 1.391 . S
C1140 C1141 1.400 . S
C1141 C1135 1.491 . S
C1141 C1140 1.400 . S
C1141 C1142 1.398 . S
C1142 H1130 0.950 . S
C1142 C1141 1.398 . S
C1142 C1143 1.391 . S
C1143 H1131 0.950 . S
C1143 C1139 1.393 . S
C1143 C1142 1.391 . S
H1144 C1152 0.950 . S
H1145 C1157 0.950 . S
H1146 C1154 0.950 . S
H1147 C1156 0.950 . S
H1148 C1158 0.950 . S
H1149 C1160 0.950 . S
H1150 C1162 0.950 . S
H1151 C1163 0.950 . S
C1152 H1144 0.950 . S
C1152 C1153 1.386 . S
C1152 C1154 1.391 . S
C1153 C1152 1.386 . S
C1153 C1157 1.393 . S
C1154 H1146 0.950 . S
C1154 C1152 1.391 . S
C1154 C1155 1.400 . S
C1155 C1154 1.400 . S
C1155 C1156 1.398 . S
C1155 C1161 1.491 . S
C1156 H1147 0.950 . S
C1156 C1155 1.398 . S
C1156 C1157 1.391 . S
C1157 H1145 0.950 . S
C1157 C1153 1.393 . S
C1157 C1156 1.391 . S
C1158 H1148 0.950 . S
C1158 C1159 1.386 . S
C1158 C1160 1.391 . S
C1159 C1158 1.386 . S
C1159 C1163 1.393 . S
C1160 H1149 0.950 . S
C1160 C1158 1.391 . S
C1160 C1161 1.400 . S
C1161 C1155 1.491 . S
C1161 C1160 1.400 . S
C1161 C1162 1.398 . S
C1162 H1150 0.950 . S
C1162 C1161 1.398 . S
C1162 C1163 1.391 . S
C1163 H1151 0.950 . S
C1163 C1159 1.393 . S
C1163 C1162 1.391 . S
H1164 C1172 0.950 . S
H1165 C1177 0.950 . S
H1166 C1174 0.950 . S
H1167 C1176 0.950 . S
H1168 C1178 0.950 . S
H1169 C1180 0.950 . S
H1170 C1182 0.950 . S
H1171 C1183 0.950 . S
C1172 H1164 0.950 . S
C1172 C1173 1.386 . S
C1172 C1174 1.391 . S
C1173 C1172 1.386 . S
C1173 C1177 1.393 . S
C1174 H1166 0.950 . S
C1174 C1172 1.391 . S
C1174 C1175 1.400 . S
C1175 C1174 1.400 . S
C1175 C1176 1.398 . S
C1175 C1181 1.491 . S
C1176 H1167 0.950 . S
C1176 C1175 1.398 . S
C1176 C1177 1.391 . S
C1177 H1165 0.950 . S
C1177 C1173 1.393 . S
C1177 C1176 1.391 . S
C1178 H1168 0.950 . S
C1178 C1179 1.386 . S
C1178 C1180 1.391 . S
C1179 C1178 1.386 . S
C1179 C1183 1.393 . S
C1180 H1169 0.950 . S
C1180 C1178 1.391 . S
C1180 C1181 1.400 . S
C1181 C1175 1.491 . S
C1181 C1180 1.400 . S
C1181 C1182 1.398 . S
C1182 H1170 0.950 . S
C1182 C1181 1.398 . S
C1182 C1183 1.391 . S
C1183 H1171 0.950 . S
C1183 C1179 1.393 . S
C1183 C1182 1.391 . S
H1184 C1192 0.950 . S
H1185 C1197 0.950 . S
H1186 C1194 0.950 . S
H1187 C1196 0.950 . S
H1188 C1198 0.950 . S
H1189 C1200 0.950 . S
H1190 C1202 0.950 . S
H1191 C1203 0.950 . S
C1192 H1184 0.950 . S
C1192 C1193 1.386 . S
C1192 C1194 1.391 . S
C1193 C1192 1.386 . S
C1193 C1197 1.393 . S
C1194 H1186 0.950 . S
C1194 C1192 1.391 . S
C1194 C1195 1.400 . S
C1195 C1194 1.400 . S
C1195 C1196 1.398 . S
C1195 C1201 1.491 . S
C1196 H1187 0.950 . S
C1196 C1195 1.398 . S
C1196 C1197 1.391 . S
C1197 H1185 0.950 . S
C1197 C1193 1.393 . S
C1197 C1196 1.391 . S
C1198 H1188 0.950 . S
C1198 C1199 1.386 . S
C1198 C1200 1.391 . S
C1199 C1198 1.386 . S
C1199 C1203 1.393 . S
C1200 H1189 0.950 . S
C1200 C1198 1.391 . S
C1200 C1201 1.400 . S
C1201 C1195 1.491 . S
C1201 C1200 1.400 . S
C1201 C1202 1.398 . S
C1202 H1190 0.950 . S
C1202 C1201 1.398 . S
C1202 C1203 1.391 . S
C1203 H1191 0.950 . S
C1203 C1199 1.393 . S
C1203 C1202 1.391 . S
H1204 C1212 0.950 . S
H1205 C1217 0.950 . S
H1206 C1214 0.950 . S
H1207 C1216 0.950 . S
H1208 C1218 0.950 . S
H1209 C1220 0.950 . S
H1210 C1222 0.950 . S
H1211 C1223 0.950 . S
C1212 H1204 0.950 . S
C1212 C1213 1.386 . S
C1212 C1214 1.391 . S
C1213 C1212 1.386 . S
C1213 C1217 1.393 . S
C1214 H1206 0.950 . S
C1214 C1212 1.391 . S
C1214 C1215 1.400 . S
C1215 C1214 1.400 . S
C1215 C1216 1.398 . S
C1215 C1221 1.491 . S
C1216 H1207 0.950 . S
C1216 C1215 1.398 . S
C1216 C1217 1.391 . S
C1217 H1205 0.950 . S
C1217 C1213 1.393 . S
C1217 C1216 1.391 . S
C1218 H1208 0.950 . S
C1218 C1219 1.386 . S
C1218 C1220 1.391 . S
C1219 C1218 1.386 . S
C1219 C1223 1.393 . S
C1220 H1209 0.950 . S
C1220 C1218 1.391 . S
C1220 C1221 1.400 . S
C1221 C1215 1.491 . S
C1221 C1220 1.400 . S
C1221 C1222 1.398 . S
C1222 H1210 0.950 . S
C1222 C1221 1.398 . S
C1222 C1223 1.391 . S
C1223 H1211 0.950 . S
C1223 C1219 1.393 . S
C1223 C1222 1.391 . S
H1224 C1232 0.950 . S
H1225 C1237 0.950 . S
H1226 C1234 0.950 . S
H1227 C1236 0.950 . S
H1228 C1238 0.950 . S
H1229 C1240 0.950 . S
H1230 C1242 0.950 . S
H1231 C1243 0.950 . S
C1232 H1224 0.950 . S
C1232 C1233 1.386 . S
C1232 C1234 1.391 . S
C1233 C1232 1.386 . S
C1233 C1237 1.393 . S
C1234 H1226 0.950 . S
C1234 C1232 1.391 . S
C1234 C1235 1.400 . S
C1235 C1234 1.400 . S
C1235 C1236 1.398 . S
C1235 C1241 1.491 . S
C1236 H1227 0.950 . S
C1236 C1235 1.398 . S
C1236 C1237 1.391 . S
C1237 H1225 0.950 . S
C1237 C1233 1.393 . S
C1237 C1236 1.391 . S
C1238 H1228 0.950 . S
C1238 C1239 1.386 . S
C1238 C1240 1.391 . S
C1239 C1238 1.386 . S
C1239 C1243 1.393 . S
C1240 H1229 0.950 . S
C1240 C1238 1.391 . S
C1240 C1241 1.400 . S
C1241 C1235 1.491 . S
C1241 C1240 1.400 . S
C1241 C1242 1.398 . S
C1242 H1230 0.950 . S
C1242 C1241 1.398 . S
C1242 C1243 1.391 . S
C1243 H1231 0.950 . S
C1243 C1239 1.393 . S
C1243 C1242 1.391 . S
H1244 C1252 0.950 . S
H1245 C1257 0.950 1_556 S
H1246 C1254 0.950 . S
H1247 C1256 0.950 . S
H1248 C1258 0.950 . S
H1249 C1260 0.950 . S
H1250 C1262 0.950 . S
H1251 C1263 0.950 . S
C1252 H1244 0.950 . S
C1252 C1253 1.386 . S
C1252 C1254 1.391 . S
C1253 C1252 1.386 . S
C1253 C1257 1.393 . S
C1254 H1246 0.950 . S
C1254 C1252 1.391 . S
C1254 C1255 1.400 . S
C1255 C1254 1.400 . S
C1255 C1256 1.398 . S
C1255 C1261 1.491 . S
C1256 H1247 0.950 . S
C1256 C1255 1.398 . S
C1256 C1257 1.391 . S
C1257 H1245 0.950 1_554 S
C1257 C1253 1.393 . S
C1257 C1256 1.391 . S
C1258 H1248 0.950 . S
C1258 C1259 1.386 . S
C1258 C1260 1.391 . S
C1259 C1258 1.386 . S
C1259 C1263 1.393 . S
C1260 H1249 0.950 . S
C1260 C1258 1.391 . S
C1260 C1261 1.400 . S
C1261 C1255 1.491 . S
C1261 C1260 1.400 . S
C1261 C1262 1.398 . S
C1262 H1250 0.950 . S
C1262 C1261 1.398 . S
C1262 C1263 1.391 . S
C1263 H1251 0.950 . S
C1263 C1259 1.393 . S
C1263 C1262 1.391 . S
H1264 C1272 0.950 . S
H1265 C1277 0.950 . S
H1266 C1274 0.950 . S
H1267 C1276 0.950 . S
H1268 C1278 0.950 . S
H1269 C1280 0.950 . S
H1270 C1282 0.950 . S
H1271 C1283 0.954 . S
C1272 H1264 0.950 . S
C1272 C1273 1.386 . S
C1272 C1274 1.391 . S
C1273 C1272 1.386 . S
C1273 C1277 1.393 . S
C1274 H1266 0.950 . S
C1274 C1272 1.391 . S
C1274 C1275 1.400 . S
C1275 C1274 1.400 . S
C1275 C1276 1.398 . S
C1275 C1281 1.491 . S
C1276 H1267 0.950 . S
C1276 C1275 1.398 . S
C1276 C1277 1.391 . S
C1277 H1265 0.950 . S
C1277 C1273 1.393 . S
C1277 C1276 1.391 . S
C1278 H1268 0.950 . S
C1278 C1279 1.386 . S
C1278 C1280 1.391 . S
C1279 C1278 1.386 . S
C1279 C1283 1.393 . S
C1280 H1269 0.950 . S
C1280 C1278 1.391 . S
C1280 C1281 1.400 . S
C1281 C1275 1.491 . S
C1281 C1280 1.400 . S
C1281 C1282 1.398 . S
C1282 H1270 0.950 . S
C1282 C1281 1.398 . S
C1282 C1283 1.391 . S
C1283 H1271 0.954 . S
C1283 C1279 1.393 . S
C1283 C1282 1.391 . S
H1284 C1292 0.950 . S
H1285 C1297 0.950 . S
H1286 C1294 0.950 . S
H1287 C1296 0.950 . S
H1288 C1298 0.950 1_554 S
H1289 C1300 0.950 . S
H1290 C1302 0.950 . S
H1291 C1303 0.950 . S
C1292 H1284 0.950 . S
C1292 C1293 1.386 . S
C1292 C1294 1.391 . S
C1293 C1292 1.386 . S
C1293 C1297 1.393 . S
C1294 H1286 0.950 . S
C1294 C1292 1.391 . S
C1294 C1295 1.400 . S
C1295 C1294 1.400 . S
C1295 C1296 1.398 . S
C1295 C1301 1.491 . S
C1296 H1287 0.950 . S
C1296 C1295 1.398 . S
C1296 C1297 1.391 . S
C1297 H1285 0.950 . S
C1297 C1293 1.393 . S
C1297 C1296 1.391 . S
C1298 H1288 0.950 1_556 S
C1298 C1299 1.386 . S
C1298 C1300 1.391 . S
C1299 C1298 1.386 . S
C1299 C1303 1.393 . S
C1300 H1289 0.950 . S
C1300 C1298 1.391 . S
C1300 C1301 1.400 . S
C1301 C1295 1.491 . S
C1301 C1300 1.400 . S
C1301 C1302 1.398 . S
C1302 H1290 0.950 . S
C1302 C1301 1.398 . S
C1302 C1303 1.391 . S
C1303 H1291 0.950 . S
C1303 C1299 1.393 . S
C1303 C1302 1.391 . S
H1304 C1312 0.950 . S
H1305 C1317 0.950 . S
H1306 C1314 0.950 . S
H1307 C1316 0.950 . S
H1308 C1318 0.950 . S
H1309 C1320 0.950 . S
H1310 C1322 0.950 . S
H1311 C1323 0.950 . S
C1312 H1304 0.950 . S
C1312 C1313 1.386 . S
C1312 C1314 1.391 . S
C1313 C1312 1.386 . S
C1313 C1317 1.393 . S
C1314 H1306 0.950 . S
C1314 C1312 1.391 . S
C1314 C1315 1.400 . S
C1315 C1314 1.400 . S
C1315 C1316 1.398 . S
C1315 C1321 1.491 . S
C1316 H1307 0.950 . S
C1316 C1315 1.398 . S
C1316 C1317 1.391 . S
C1317 H1305 0.950 . S
C1317 C1313 1.393 . S
C1317 C1316 1.391 . S
C1318 H1308 0.950 . S
C1318 C1319 1.386 . S
C1318 C1320 1.391 . S
C1319 C1318 1.386 . S
C1319 C1323 1.393 . S
C1320 H1309 0.950 . S
C1320 C1318 1.391 . S
C1320 C1321 1.400 . S
C1321 C1315 1.491 . S
C1321 C1320 1.400 . S
C1321 C1322 1.398 . S
C1322 H1310 0.950 . S
C1322 C1321 1.398 . S
C1322 C1323 1.391 . S
C1323 H1311 0.950 . S
C1323 C1319 1.393 . S
C1323 C1322 1.391 . S
H1324 C1332 0.950 . S
H1325 C1337 0.950 . S
H1326 C1334 0.950 . S
H1327 C1336 0.950 . S
H1328 C1338 0.950 . S
H1329 C1340 0.950 . S
H1330 C1342 0.950 . S
H1331 C1343 0.950 . S
C1332 H1324 0.950 . S
C1332 C1333 1.386 . S
C1332 C1334 1.391 . S
C1333 C1332 1.386 . S
C1333 C1337 1.393 . S
C1334 H1326 0.950 . S
C1334 C1332 1.391 . S
C1334 C1335 1.400 . S
C1335 C1334 1.400 . S
C1335 C1336 1.398 . S
C1335 C1341 1.491 . S
C1336 H1327 0.950 . S
C1336 C1335 1.398 . S
C1336 C1337 1.391 . S
C1337 H1325 0.950 . S
C1337 C1333 1.393 . S
C1337 C1336 1.391 . S
C1338 H1328 0.950 . S
C1338 C1339 1.386 . S
C1338 C1340 1.391 . S
C1339 C1338 1.386 . S
C1339 C1343 1.393 . S
C1340 H1329 0.950 . S
C1340 C1338 1.391 . S
C1340 C1341 1.400 . S
C1341 C1335 1.491 . S
C1341 C1340 1.400 . S
C1341 C1342 1.398 . S
C1342 H1330 0.950 . S
C1342 C1341 1.398 . S
C1342 C1343 1.391 . S
C1343 H1331 0.950 . S
C1343 C1339 1.393 . S
C1343 C1342 1.391 . S
C553 C9 1.318 . S
C559 C5 1.409 . S
C573 C43 1.318 1_556 S
C579 C39 1.409 . S
C593 C77 1.343 . S
C599 C73 1.411 . S
C613 C111 1.311 . S
C619 C107 1.403 . S
C633 C145 1.320 . S
C639 C141 1.409 . S
C653 C179 1.313 . S
C659 C175 1.403 . S
C673 C213 1.345 . S
C679 C209 1.413 . S
C693 C243 1.415 . S
C699 C247 1.341 1_554 S
C713 C277 1.403 . S
C719 C281 1.314 1_554 S
C733 C315 1.311 . S
C739 C311 1.405 . S
C753 C349 1.314 . S
C759 C345 1.403 . S
C773 C379 1.414 . S
C779 C383 1.338 1_556 S
C793 C413 1.404 . S
C799 C417 1.310 . S
C813 C451 1.329 . S
C819 C447 1.412 . S
C833 C481 1.407 . S
C839 C485 1.333 . S
C853 C519 1.331 . S
C859 C515 1.413 . S
C873 C20 1.474 . S
C879 C156 1.482 . S
C893 C190 1.485 . S
C899 C54 1.474 . S
C913 C224 1.480 . S
C919 C88 1.476 . S
C933 C122 1.480 . S
C939 C258 1.476 . S
C953 C360 1.474 . S
C959 C292 1.484 . S
C973 C326 1.479 . S
C979 C394 1.476 . S
C993 C428 1.474 . S
C999 C496 1.482 . S
C1013 C462 1.477 . S
C1019 C530 1.478 . S
C1033 C339 1.187 . S
C1039 C33 1.191 . S
C1053 C509 1.191 . S
C1059 C67 1.188 . S
C1073 C101 1.190 . S
C1079 C305 1.188 . S
C1093 C543 1.190 . S
C1099 C135 1.188 . S
C1113 C373 1.189 . S
C1119 C169 1.190 . S
C1133 C475 1.188 . S
C1139 C203 1.189 . S
C1153 C237 1.193 . S
C1159 C407 1.185 . S
C1173 C271 1.193 . S
C1179 C441 1.185 . S
C1193 C138 1.702 . S
C1199 C104 1.702 . S
C1213 C410 1.694 . S
C1219 C274 1.694 . S
C1233 C36 1.694 . S
C1239 C206 1.694 . S
C1253 C444 1.698 . S
C1259 C308 1.698 . S
C1273 C172 1.696 . S
C1279 C2 1.696 . S
C1293 C342 1.696 . S
C1299 C512 1.697 . S
C1313 C240 1.702 . S
C1319 C70 1.702 . S
C1333 C478 1.695 . S
C1339 C376 1.695 . S
