# Generated by pormake.
# Topology crb, (4)-cn, num edge types: 1
# Building blocks:
#     Node 0, Type 0, BuildingBlock: QUQFOY_clean_sbu_3, # of connection points: 4
#     Node 1, Type 0, BuildingBlock: QUQFOY_clean_sbu_3, # of connection points: 4
#     Node 2, Type 0, BuildingBlock: QUQFOY_clean_sbu_3, # of connection points: 4
#     Node 3, Type 0, BuildingBlock: QUQFOY_clean_sbu_3, # of connection points: 4
#     Node 4, Type 0, BuildingBlock: QUQFOY_clean_sbu_3, # of connection points: 4
#     Node 5, Type 0, BuildingBlock: QUQFOY_clean_sbu_3, # of connection points: 4
#     Node 6, Type 0, BuildingBlock: QUQFOY_clean_sbu_3, # of connection points: 4
#     Node 7, Type 0, BuildingBlock: QUQFOY_clean_sbu_3, # of connection points: 4
#     Edge 8, Type (0, 0), BuildingBlock: ZUJKAS_clean_linker_0, # of connection points: 2
#     Edge 9, Type (0, 0), BuildingBlock: ZUJKAS_clean_linker_0, # of connection points: 2
#     Edge 10, Type (0, 0), BuildingBlock: ZUJKAS_clean_linker_0, # of connection points: 2
#     Edge 11, Type (0, 0), BuildingBlock: ZUJKAS_clean_linker_0, # of connection points: 2
#     Edge 12, Type (0, 0), BuildingBlock: ZUJKAS_clean_linker_0, # of connection points: 2
#     Edge 13, Type (0, 0), BuildingBlock: ZUJKAS_clean_linker_0, # of connection points: 2
#     Edge 14, Type (0, 0), BuildingBlock: ZUJKAS_clean_linker_0, # of connection points: 2
#     Edge 15, Type (0, 0), BuildingBlock: ZUJKAS_clean_linker_0, # of connection points: 2
#     Edge 16, Type (0, 0), BuildingBlock: ZUJKAS_clean_linker_0, # of connection points: 2
#     Edge 17, Type (0, 0), BuildingBlock: ZUJKAS_clean_linker_0, # of connection points: 2
#     Edge 18, Type (0, 0), BuildingBlock: ZUJKAS_clean_linker_0, # of connection points: 2
#     Edge 19, Type (0, 0), BuildingBlock: ZUJKAS_clean_linker_0, # of connection points: 2
#     Edge 20, Type (0, 0), BuildingBlock: ZUJKAS_clean_linker_0, # of connection points: 2
#     Edge 21, Type (0, 0), BuildingBlock: ZUJKAS_clean_linker_0, # of connection points: 2
#     Edge 22, Type (0, 0), BuildingBlock: ZUJKAS_clean_linker_0, # of connection points: 2
#     Edge 23, Type (0, 0), BuildingBlock: ZUJKAS_clean_linker_0, # of connection points: 2
# Relax obj value: 0.113
# Max RMSD: 0.155
# Mean RMSD: 0.155
data_MOF--net-crb--node1-QUQFOY_clean_sbu_3--edge1-ZUJKAS_clean_linker_0
_symmetry_space_group_name_H-M    P1
_symmetry_Int_Tables_number       1
_symmetry_cell_setting            triclinic
loop_
_symmetry_equiv_pos_as_xyz
'x, y, z'
_cell_length_a     57.900574
_cell_length_b     57.381613
_cell_length_c     31.102291
_cell_angle_alpha  90.051916
_cell_angle_beta   90.043322
_cell_angle_gamma 90.004734
loop_
_atom_site_label
_atom_site_type_symbol
_atom_site_fract_x
_atom_site_fract_y
_atom_site_fract_z
_atom_type_partial_charge
C0 C 0.37373 0.31979 0.08631 0.0
O1 O 0.3672 0.32403 0.12452 0.0
Cd2 Cd 0.3273 0.32872 0.1441 0.0
O3 O 0.35899 0.31731 0.05623 0.0
Cd4 Cd 0.3169 0.31751 0.04521 0.0
C5 C 0.31289 0.37386 0.07765 0.0
O6 O 0.30752 0.2967 0.11053 0.0
O7 O 0.2784 0.30991 0.0747 0.0
O8 O 0.32229 0.28682 0.99184 0.0
C9 C 0.2858 0.29815 0.1063 0.0
O10 O 0.31602 0.36699 0.11614 0.0
C11 C 0.31114 0.29731 0.96246 0.0
O12 O 0.31356 0.35952 0.0465 0.0
O13 O 0.30291 0.3172 0.97172 0.0
C14 C 0.61544 0.31769 0.98647 0.0
O15 O 0.62206 0.32124 0.9481 0.0
Cd16 Cd 0.66193 0.32594 0.92882 0.0
O17 O 0.63009 0.31582 0.01684 0.0
Cd18 Cd 0.6722 0.31617 0.0285 0.0
C19 C 0.67571 0.37207 0.99414 0.0
O20 O 0.68171 0.29465 0.96416 0.0
O21 O 0.71081 0.30887 -0.00133 0.0
O22 O 0.66605 0.28562 0.08155 0.0
C23 C 0.70342 0.29652 0.96778 0.0
O24 O 0.67281 0.3645 0.956 0.0
C25 C 0.67726 0.29577 0.11125 0.0
O26 O 0.67505 0.35827 0.0261 0.0
O27 O 0.686 0.31549 0.10239 0.0
C28 C 0.61521 0.67122 0.08701 0.0
O29 O 0.62232 0.66751 0.12504 0.0
Cd30 Cd 0.66253 0.66315 0.14272 0.0
O31 O 0.62947 0.67341 0.05612 0.0
Cd32 Cd 0.67134 0.67349 0.04245 0.0
C33 C 0.67611 0.61747 0.07648 0.0
O34 O 0.68157 0.69476 0.10676 0.0
O35 O 0.71028 0.68164 0.06978 0.0
O36 O 0.66442 0.70374 0.98901 0.0
C37 C 0.70324 0.69338 0.10172 0.0
O38 O 0.67349 0.62472 0.11489 0.0
C39 C 0.67498 0.69321 0.95894 0.0
O40 O 0.67495 0.63148 0.0449 0.0
O41 O 0.68375 0.67352 0.96791 0.0
C42 C 0.37336 0.67281 0.98723 0.0
O43 O 0.36695 0.66919 0.94872 0.0
Cd44 Cd 0.32714 0.66467 0.92837 0.0
O45 O 0.35854 0.67479 0.01723 0.0
Cd46 Cd 0.31643 0.67455 0.02793 0.0
C47 C 0.3125 0.61869 0.99307 0.0
O48 O 0.30704 0.69594 0.96328 0.0
O49 O 0.27795 0.68197 -0.00188 0.0
O50 O 0.32186 0.7051 0.08135 0.0
C51 C 0.28532 0.69409 0.96698 0.0
O52 O 0.31571 0.62619 0.955 0.0
C53 C 0.31081 0.69461 0.1108 0.0
O54 O 0.31316 0.6325 0.02505 0.0
O55 O 0.30255 0.67471 0.10161 0.0
C56 C 0.87051 0.81487 0.58965 0.0
O57 O 0.86315 0.81802 0.62768 0.0
Cd58 Cd 0.82292 0.82254 0.64446 0.0
O59 O 0.85645 0.81338 0.55825 0.0
Cd60 Cd 0.81459 0.81398 0.54365 0.0
C61 C 0.8102 0.86946 0.58063 0.0
O62 O 0.8037 0.79179 0.60638 0.0
O63 O 0.77536 0.80623 0.5701 0.0
O64 O 0.82148 0.7843 0.4891 0.0
C65 C 0.78208 0.79374 0.60128 0.0
O66 O 0.81248 0.86147 0.6186 0.0
C67 C 0.81097 0.79514 0.45936 0.0
O68 O 0.81148 0.85602 0.54817 0.0
O69 O 0.80232 0.81481 0.46894 0.0
C70 C 0.11195 0.81738 0.48907 0.0
O71 O 0.11768 0.82077 0.45017 0.0
Cd72 Cd 0.1569 0.82702 0.42844 0.0
O73 O 0.12726 0.8162 0.51843 0.0
Cd74 Cd 0.1696 0.81726 0.52758 0.0
C75 C 0.17165 0.87319 0.4931 0.0
O76 O 0.17868 0.79637 0.4621 0.0
O77 O 0.20784 0.81024 0.49706 0.0
O78 O 0.16522 0.78634 0.58049 0.0
C79 C 0.2004 0.79848 0.46545 0.0
O80 O 0.16642 0.86592 0.45565 0.0
C81 C 0.17598 0.79704 0.61012 0.0
O82 O 0.17335 0.85924 0.52468 0.0
O83 O 0.1837 0.81718 0.60123 0.0
C84 C 0.11477 0.17181 0.58362 0.0
O85 O 0.121 0.16947 0.62254 0.0
Cd86 Cd 0.16046 0.16444 0.64336 0.0
O87 O 0.12973 0.17268 0.55362 0.0
Cd88 Cd 0.17208 0.17254 0.54323 0.0
C89 C 0.17513 0.11731 0.58088 0.0
O90 O 0.18096 0.19497 0.60686 0.0
O91 O 0.21037 0.18087 0.57312 0.0
O92 O 0.16617 0.20234 0.48875 0.0
C93 C 0.20271 0.19328 0.60366 0.0
O94 O 0.17015 0.12521 0.618 0.0
C95 C 0.17739 0.19177 0.45962 0.0
O96 O 0.17644 0.13069 0.54841 0.0
O97 O 0.18605 0.17214 0.46945 0.0
C98 C 0.8729 0.16862 0.48456 0.0
O99 O 0.86609 0.1639 0.44669 0.0
Cd100 Cd 0.82615 0.15884 0.42801 0.0
O101 O 0.85839 0.17139 0.51491 0.0
Cd102 Cd 0.81633 0.17112 0.52694 0.0
C103 C 0.81242 0.11439 0.49668 0.0
O104 O 0.80656 0.19109 0.46096 0.0
O105 O 0.77762 0.17816 0.49751 0.0
O106 O 0.82187 0.20248 0.57903 0.0
C107 C 0.78487 0.18956 0.46536 0.0
O108 O 0.81525 0.12091 0.4579 0.0
C109 C 0.81089 0.19232 0.60897 0.0
O110 O 0.81322 0.12904 0.52734 0.0
O111 O 0.80268 0.1723 0.60062 0.0
H112 H 0.30591 0.39436 -0.00052 0.0
H113 H 0.30232 0.43588 0.98387 0.0
H114 H 0.3081 0.45167 0.119 0.0
H115 H 0.31157 0.41006 0.1352 0.0
H116 H 0.2721 0.47681 0.07189 0.0
H117 H 0.3585 0.48087 0.9941 0.0
H118 H 0.33942 0.45863 0.97416 0.0
H119 H 0.34989 0.45705 0.02844 0.0
C120 C 0.30631 0.4066 0.026 0.0
C121 C 0.30925 0.39889 0.0686 0.0
C122 C 0.30431 0.43031 0.01695 0.0
C123 C 0.30528 0.44674 0.05025 0.0
C124 C 0.30742 0.43916 0.0929 0.0
H125 H 0.30722 0.59645 0.07011 0.0
H126 H 0.30337 0.55469 0.08267 0.0
C127 C 0.30944 0.41541 0.10205 0.0
C128 C 0.30482 0.47187 0.04036 0.0
H129 H 0.33579 0.51496 0.99173 0.0
C130 C 0.28599 0.48522 0.05439 0.0
C131 C 0.32298 0.48264 0.01743 0.0
C132 C 0.34396 0.46916 0.00288 0.0
C133 C 0.28473 0.50918 0.04568 0.0
C134 C 0.30302 0.51999 0.02311 0.0
C135 C 0.32176 0.50656 0.00885 0.0
C136 C 0.30362 0.54538 0.01524 0.0
C137 C 0.26373 0.52261 0.06018 0.0
C138 C 0.30538 0.55395 0.97314 0.0
C139 C 0.30782 0.57783 0.96579 0.0
C140 C 0.30866 0.59353 0.0005 0.0
C141 C 0.30655 0.58487 0.04262 0.0
C142 C 0.30417 0.561 0.0499 0.0
H143 H 0.2487 0.51093 0.06551 0.0
H144 H 0.26765 0.53148 0.09105 0.0
H145 H 0.25885 0.53609 0.03624 0.0
H146 H 0.30515 0.5421 0.94599 0.0
H147 H 0.30939 0.58391 0.93297 0.0
H148 H 0.41022 0.3214 0.14239 0.0
H149 H 0.45141 0.31968 0.12479 0.0
H150 H 0.43472 0.3126 0.99031 0.0
H151 H 0.39359 0.3143 0.00733 0.0
H152 H 0.4758 0.28262 0.0761 0.0
H153 H 0.47929 0.37013 -0.00057 0.0
H154 H 0.45637 0.36161 0.0355 0.0
H155 H 0.45666 0.35106 0.98116 0.0
C156 C 0.41529 0.31945 0.10907 0.0
C157 C 0.39862 0.31811 0.07624 0.0
C158 C 0.4388 0.31844 0.09913 0.0
C159 C 0.44596 0.31628 0.05628 0.0
C160 C 0.42943 0.31457 0.02353 0.0
H161 H 0.57923 0.31794 0.92979 0.0
H162 H 0.53802 0.31604 0.94666 0.0
C163 C 0.40596 0.31547 0.03339 0.0
C164 C 0.47077 0.3159 0.04566 0.0
H165 H 0.51297 0.34703 -0.0047 0.0
C166 C 0.48401 0.29669 0.05855 0.0
C167 C 0.48123 0.33428 0.0226 0.0
C168 C 0.46777 0.35556 0.00905 0.0
C169 C 0.50756 0.2952 0.04839 0.0
C170 C 0.51811 0.31369 0.0256 0.0
C171 C 0.50479 0.33288 0.01268 0.0
C172 C 0.54304 0.31375 0.01548 0.0
C173 C 0.5208 0.27367 0.06135 0.0
C174 C 0.55945 0.31324 0.04864 0.0
C175 C 0.58297 0.31422 0.03915 0.0
C176 C 0.59051 0.316 -0.00371 0.0
C177 C 0.574 0.31656 0.96312 0.0
C178 C 0.55047 0.31547 0.97267 0.0
H179 H 0.50909 0.25866 0.06719 0.0
H180 H 0.53353 0.26867 0.0363 0.0
H181 H 0.53032 0.27723 0.09162 0.0
H182 H 0.55405 0.31249 0.08194 0.0
H183 H 0.59521 0.31391 0.06549 0.0
H184 H 0.67945 0.3946 0.07134 0.0
H185 H 0.68242 0.43652 0.08381 0.0
H186 H 0.68291 0.4486 0.94699 0.0
H187 H 0.67955 0.4067 0.93404 0.0
H188 H 0.71557 0.46925 0.05732 0.0
H189 H 0.6288 0.48846 0.98957 0.0
H190 H 0.63802 0.45929 0.00272 0.0
H191 H 0.6477 0.4729 0.95392 0.0
C192 C 0.68026 0.40613 0.04383 0.0
C193 C 0.67902 0.39731 0.00166 0.0
C194 C 0.682 0.43007 0.05106 0.0
C195 C 0.68249 0.44561 0.01634 0.0
C196 C 0.68208 0.43687 0.97421 0.0
H197 H 0.68134 0.59603 -0.00136 0.0
H198 H 0.68497 0.55436 0.98438 0.0
C199 C 0.68026 0.41292 0.9669 0.0
C200 C 0.6829 0.47099 0.02433 0.0
H201 H 0.65179 0.5208 0.00928 0.0
C202 C 0.70165 0.48056 0.04688 0.0
C203 C 0.66462 0.48559 0.01078 0.0
C204 C 0.64353 0.47607 0.98824 0.0
C205 C 0.70275 0.50452 0.05575 0.0
C206 C 0.68449 0.51909 0.04212 0.0
C207 C 0.6658 0.50952 0.01948 0.0
C208 C 0.68416 0.54433 0.05137 0.0
C209 C 0.72354 0.51412 0.07905 0.0
C210 C 0.68255 0.55242 0.09383 0.0
C211 C 0.68042 0.57625 0.10217 0.0
C212 C 0.67975 0.59235 0.06812 0.0
C213 C 0.68177 0.58414 0.02564 0.0
C214 C 0.68386 0.56033 0.01738 0.0
H215 H 0.73834 0.5018 0.07818 0.0
H216 H 0.72905 0.53097 0.06484 0.0
H217 H 0.71898 0.51726 0.11321 0.0
H218 H 0.68233 0.54025 0.12044 0.0
H219 H 0.67885 0.58198 0.13523 0.0
H220 H 0.39301 0.67674 0.06677 0.0
H221 H 0.4341 0.67828 0.08436 0.0
H222 H 0.45111 0.67375 0.94968 0.0
H223 H 0.41 0.67223 0.93155 0.0
H224 H 0.46782 0.64309 0.06071 0.0
H225 H 0.48834 0.73099 -0.00409 0.0
H226 H 0.45922 0.72193 0.00841 0.0
H227 H 0.47298 0.71179 0.9602 0.0
C228 C 0.40545 0.67622 0.04079 0.0
C229 C 0.39822 0.67438 -0.00229 0.0
C230 C 0.4289 0.67709 0.05096 0.0
C231 C 0.44551 0.67637 0.01828 0.0
C232 C 0.43845 0.67467 0.97526 0.0
H233 H 0.59412 0.67488 0.00875 0.0
H234 H 0.55278 0.67617 0.99369 0.0
C235 C 0.41498 0.67369 0.96501 0.0
C236 C 0.47028 0.67643 0.0294 0.0
H237 H 0.51987 0.70801 0.01944 0.0
C238 C 0.47924 0.65731 0.05194 0.0
C239 C 0.48498 0.69501 0.0177 0.0
C240 C 0.47595 0.71622 0.9945 0.0
C241 C 0.50276 0.65601 0.06235 0.0
C242 C 0.5175 0.67461 0.05071 0.0
C243 C 0.50848 0.69381 0.02836 0.0
C244 C 0.54249 0.67422 0.06044 0.0
C245 C 0.51171 0.63444 0.08457 0.0
C246 C 0.55036 0.67304 0.10306 0.0
C247 C 0.57401 0.67215 0.11184 0.0
C248 C 0.59016 0.67268 0.07811 0.0
C249 C 0.58216 0.67438 0.0355 0.0
C250 C 0.55854 0.67515 0.02679 0.0
H251 H 0.49958 0.61954 0.0812 0.0
H252 H 0.52877 0.6292 0.07145 0.0
H253 H 0.51383 0.63812 0.11938 0.0
H254 H 0.53822 0.67283 0.12952 0.0
H255 H 0.57961 0.67104 0.14501 0.0
H256 H 0.80721 0.90374 0.64176 0.0
H257 H 0.80344 0.94571 0.62994 0.0
H258 H 0.80215 0.93436 0.49288 0.0
H259 H 0.80558 0.89246 0.50422 0.0
H260 H 0.83451 0.97317 0.58497 0.0
H261 H 0.74745 0.97815 0.51109 0.0
H262 H 0.75743 0.95279 0.54002 0.0
H263 H 0.76623 0.95755 0.48528 0.0
C264 C 0.80585 0.91014 0.6091 0.0
C265 C 0.8067 0.89473 0.57393 0.0
C266 C 0.80369 0.93411 0.60244 0.0
C267 C 0.80218 0.94306 0.56059 0.0
C268 C 0.80276 0.92775 0.52546 0.0
H269 H 0.81054 0.07778 0.44016 0.0
H270 H 0.80694 0.03634 0.45743 0.0
C271 C 0.8049 0.9038 0.53205 0.0
C272 C 0.80172 0.96851 0.5534 0.0
H273 H 0.77118 0.01206 0.50489 0.0
C274 C 0.82055 0.98174 0.56791 0.0
C275 C 0.78351 0.97955 0.53096 0.0
C276 C 0.7624 0.96633 0.51627 0.0
C277 C 0.822 0.00568 0.55947 0.0
C278 C 0.80396 0.01665 0.53648 0.0
C279 C 0.78498 0.00351 0.52242 0.0
C280 C 0.80478 0.04173 0.52614 0.0
C281 C 0.84314 0.01891 0.57407 0.0
C282 C 0.80426 0.05839 0.55909 0.0
C283 C 0.80634 0.08204 0.54942 0.0
C284 C 0.8089 0.08943 0.50655 0.0
C285 C 0.80871 0.07268 0.47351 0.0
C286 C 0.80661 0.04901 0.48326 0.0
H287 H 0.85754 0.00704 0.5829 0.0
H288 H 0.84921 0.03095 0.54853 0.0
H289 H 0.83872 0.0295 0.60278 0.0
H290 H 0.80249 0.05307 0.59233 0.0
H291 H 0.80625 0.09447 0.57564 0.0
H292 H 0.09341 0.81311 0.56948 0.0
H293 H 0.05258 0.8102 0.58866 0.0
H294 H 0.03389 0.81363 0.4546 0.0
H295 H 0.07467 0.81647 0.43491 0.0
H296 H 0.01767 0.84386 0.567 0.0
H297 H -0.00132 0.7558 0.50139 0.0
H298 H 0.02771 0.76573 0.51234 0.0
H299 H 0.01287 0.77537 0.46485 0.0
C300 C 0.08065 0.81309 0.54399 0.0
C301 C 0.0873 0.815 0.50063 0.0
C302 C 0.05736 0.81143 0.55506 0.0
C303 C 0.04035 0.81143 0.523 0.0
C304 C 0.04686 0.81322 0.47972 0.0
H305 H 0.89218 0.81178 0.5119 0.0
H306 H 0.93364 0.81054 0.49803 0.0
C307 C 0.07015 0.81497 0.46858 0.0
C308 C 0.0157 0.81067 0.53492 0.0
H309 H 0.96658 0.7784 0.52413 0.0
C310 C 0.00648 0.82949 0.55799 0.0
C311 C 0.00129 0.79189 0.52291 0.0
C312 C 0.0106 0.77093 0.49931 0.0
C313 C 0.98294 0.83038 0.56836 0.0
C314 C 0.96846 0.81166 0.5561 0.0
C315 C 0.97777 0.79269 0.53348 0.0
C316 C 0.94341 0.81182 0.56513 0.0
C317 C 0.97367 0.85167 0.59105 0.0
C318 C 0.93521 0.81258 0.60754 0.0
C319 C 0.9115 0.81344 0.61565 0.0
C320 C 0.89561 0.81331 0.58142 0.0
C321 C 0.90393 0.81197 0.53901 0.0
C322 C 0.92761 0.81123 0.53098 0.0
H323 H 0.98572 0.86669 0.58864 0.0
H324 H 0.95669 0.85692 0.57753 0.0
H325 H 0.97124 0.84764 0.62563 0.0
H326 H 0.94716 0.81255 0.63436 0.0
H327 H 0.90566 0.81426 0.64869 0.0
H328 H 0.1515 0.08201 0.61872 0.0
H329 H 0.15519 0.04035 0.60412 0.0
H330 H 0.21143 0.05437 0.51669 0.0
H331 H 0.20647 0.09621 0.52884 0.0
H332 H 0.18557 0.02529 0.48147 0.0
H333 H 0.19825 0.99314 0.6466 0.0
H334 H 0.17162 0.00888 0.64383 0.0
H335 H 0.19858 0.0238 0.63417 0.0
C336 C 0.16479 0.0761 0.59677 0.0
C337 C 0.17876 0.09217 0.57497 0.0
C338 C 0.16707 0.05227 0.58873 0.0
C339 C 0.184 0.04405 0.5601 0.0
C340 C 0.19829 0.06021 0.53901 0.0
H341 H 0.20341 0.89315 0.54583 0.0
H342 H 0.20941 0.93476 0.559 0.0
C343 C 0.1955 0.08408 0.54599 0.0
C344 C 0.18566 0.01883 0.5498 0.0
H345 H 0.18475 0.96472 0.59495 0.0
C346 C 0.1858 0.01207 0.50637 0.0
C347 C 0.1865 0.00146 0.58206 0.0
C348 C 0.18902 0.00725 0.62919 0.0
C349 C 0.18596 0.98852 0.49435 0.0
C350 C 0.18462 0.97119 0.52663 0.0
C351 C 0.18533 0.97793 0.57005 0.0
C352 C 0.182 0.94606 0.51631 0.0
C353 C 0.18795 0.98264 0.44717 0.0
C354 C 0.16466 0.93847 0.4879 0.0
C355 C 0.16177 0.91476 0.47928 0.0
C356 C 0.17553 0.8982 0.5003 0.0
C357 C 0.19258 0.90567 0.52929 0.0
C358 C 0.19597 0.92941 0.53684 0.0
H359 H 0.19753 -0.00358 0.42954 0.0
H360 H 0.19692 0.96577 0.44202 0.0
H361 H 0.17041 0.9816 0.43291 0.0
H362 H 0.15303 0.95081 0.47295 0.0
H363 H 0.14826 0.90934 0.45732 0.0
H364 H 0.90893 0.16582 0.42772 0.0
H365 H 0.95025 0.16763 0.44416 0.0
H366 H 0.93468 0.17752 0.57846 0.0
H367 H 0.89341 0.17569 0.56261 0.0
H368 H 0.97552 0.20508 0.4889 0.0
H369 H 0.97853 0.1196 0.57292 0.0
H370 H 0.95528 0.12764 0.53713 0.0
H371 H 0.95639 0.13937 0.59063 0.0
C372 C 0.91427 0.16841 0.46076 0.0
C373 C 0.89787 0.17047 0.4939 0.0
C374 C 0.93786 0.16947 0.47003 0.0
C375 C 0.94538 0.17242 0.51252 0.0
C376 C 0.92912 0.17492 0.54554 0.0
H377 H 0.07823 0.17357 0.63922 0.0
H378 H 0.03718 0.17513 0.62121 0.0
C379 C 0.90556 0.17394 0.53634 0.0
C380 C 0.97027 0.17275 0.52253 0.0
H381 H 0.01237 0.1426 0.57524 0.0
C382 C 0.98367 0.19142 0.50763 0.0
C383 C 0.98067 0.15489 0.54704 0.0
C384 C 0.96708 0.13411 0.56266 0.0
C385 C 0.00728 0.19293 0.51737 0.0
C386 C 0.01771 0.17502 0.54184 0.0
C387 C 0.00428 0.15632 0.55659 0.0
C388 C 0.0426 0.17518 0.55239 0.0
C389 C 0.0207 0.21392 0.50225 0.0
C390 C 0.0592 0.17457 0.5196 0.0
C391 C 0.08267 0.17377 0.52974 0.0
C392 C 0.08994 0.17331 0.5729 0.0
C393 C 0.07323 0.1739 0.60567 0.0
C394 C 0.04977 0.1748 0.59547 0.0
H395 H 0.00912 0.22878 0.49448 0.0
H396 H 0.03334 0.21966 0.52696 0.0
H397 H 0.03037 0.2093 0.47265 0.0
H398 H 0.05399 0.1743 0.48615 0.0
H399 H 0.09508 0.17319 0.50372 0.0
H400 H 0.16064 0.23321 0.42975 0.0
H401 H 0.17047 0.25256 0.36215 0.0
H402 H 0.21316 0.19404 0.32653 0.0
H403 H 0.20312 0.17443 0.39352 0.0
H404 H 0.21391 0.26542 0.34214 0.0
H405 H 0.18022 0.20767 0.21433 0.0
H406 H 0.17064 0.20571 0.26949 0.0
H407 H 0.19706 0.19182 0.25289 0.0
C408 C 0.17176 0.22427 0.40713 0.0
C409 C 0.18123 0.20236 0.41701 0.0
C410 C 0.1773 0.23533 0.36851 0.0
C411 C 0.19228 0.2246 0.33909 0.0
C412 C 0.2011 0.20238 0.34826 0.0
H413 H 0.29753 0.27597 0.18041 0.0
H414 H 0.27165 0.25995 0.23475 0.0
C415 C 0.19553 0.19129 0.38678 0.0
C416 C 0.20114 0.23772 0.3017 0.0
H417 H 0.21189 0.23311 0.19415 0.0
C418 C 0.21304 0.25859 0.30964 0.0
C419 C 0.19979 0.22895 0.25925 0.0
C420 C 0.18601 0.20743 0.2484 0.0
C421 C 0.22488 0.27013 0.27673 0.0
C422 C 0.22505 0.26035 0.23506 0.0
C423 C 0.21194 0.24034 0.22638 0.0
C424 C 0.24033 0.26961 0.20126 0.0
C425 C 0.23771 0.29234 0.28705 0.0
C426 C 0.23117 0.27984 0.16406 0.0
C427 C 0.24594 0.28907 0.13286 0.0
C428 C 0.27004 0.28794 0.13839 0.0
C429 C 0.27906 0.2772 0.17532 0.0
C430 C 0.26432 0.26811 0.20645 0.0
H431 H 0.23086 0.3008 0.31655 0.0
H432 H 0.2562 0.28823 0.29261 0.0
H433 H 0.23661 0.30488 0.25996 0.0
H434 H 0.21265 0.28098 0.15953 0.0
H435 H 0.23852 0.29716 0.1046 0.0
H436 H 0.66077 0.25375 0.13885 0.0
H437 H 0.67021 0.23372 0.20604 0.0
H438 H 0.712 0.29225 0.24528 0.0
H439 H 0.70237 0.31251 0.17874 0.0
H440 H 0.7135 0.22099 0.22763 0.0
H441 H 0.67793 0.27735 0.35558 0.0
H442 H 0.66893 0.27968 0.3001 0.0
H443 H 0.69499 0.29375 0.31822 0.0
C444 C 0.67162 0.26252 0.16217 0.0
C445 C 0.68094 0.28465 0.15346 0.0
C446 C 0.67694 0.25108 0.20054 0.0
C447 C 0.69153 0.26164 0.23088 0.0
C448 C 0.70024 0.28403 0.22282 0.0
H449 H 0.79638 0.21097 0.39043 0.0
H450 H 0.77038 0.22619 0.33548 0.0
C451 C 0.6949 0.29549 0.18456 0.0
C452 C 0.70008 0.24827 0.26826 0.0
H453 H 0.70992 0.25235 0.37619 0.0
C454 C 0.71228 0.22759 0.26024 0.0
C455 C 0.69824 0.25672 0.31085 0.0
C456 C 0.68409 0.27797 0.32177 0.0
C457 C 0.72402 0.216 0.29327 0.0
C458 C 0.72379 0.22556 0.33513 0.0
C459 C 0.7103 0.2453 0.34383 0.0
C460 C 0.73913 0.21649 0.36908 0.0
C461 C 0.73718 0.19401 0.28285 0.0
C462 C 0.73006 0.20653 0.40659 0.0
C463 C 0.74491 0.19779 0.43819 0.0
C464 C 0.76899 0.19915 0.43277 0.0
C465 C 0.77793 0.20957 0.39547 0.0
C466 C 0.76311 0.21818 0.36396 0.0
H467 H 0.73036 0.18545 0.2534 0.0
H468 H 0.75557 0.19844 0.27706 0.0
H469 H 0.73638 0.18143 0.30992 0.0
H470 H 0.71155 0.20528 0.41112 0.0
H471 H 0.73755 0.18994 0.46672 0.0
H472 H 0.82748 0.75346 0.4299 0.0
H473 H 0.81848 0.73456 0.36135 0.0
H474 H 0.77773 0.79414 0.32394 0.0
H475 H 0.78697 0.81329 0.39181 0.0
H476 H 0.77537 0.72261 0.33862 0.0
H477 H 0.81166 0.7801 0.21337 0.0
H478 H 0.82051 0.7818 0.26901 0.0
H479 H 0.79464 0.7963 0.25111 0.0
C480 C 0.81699 0.76272 0.40668 0.0
C481 C 0.80781 0.7848 0.4163 0.0
C482 C 0.81192 0.75193 0.36752 0.0
C483 C 0.79771 0.76307 0.33732 0.0
C484 C 0.78923 0.78546 0.34627 0.0
H485 H 0.69219 0.71565 0.17611 0.0
H486 H 0.71851 0.73058 0.23086 0.0
C487 C 0.79433 0.79629 0.3853 0.0
C488 C 0.7891 0.75026 0.29928 0.0
H489 H 0.77921 0.75586 0.19158 0.0
C490 C 0.77667 0.72962 0.30632 0.0
C491 C 0.791 0.75923 0.25708 0.0
C492 C 0.8054 0.78045 0.24713 0.0
C493 C 0.76476 0.71861 0.2728 0.0
C494 C 0.76506 0.72872 0.23142 0.0
C495 C 0.77877 0.7484 0.2236 0.0
C496 C 0.74955 0.72026 0.19717 0.0
C497 C 0.7513 0.69669 0.28221 0.0
C498 C 0.75841 0.71008 0.15966 0.0
C499 C 0.74337 0.70149 0.12819 0.0
C500 C 0.71932 0.7032 0.13377 0.0
C501 C 0.71061 0.71397 0.17095 0.0
C502 C 0.72561 0.72243 0.20233 0.0
H503 H 0.75788 0.68775 0.31143 0.0
H504 H 0.73293 0.70127 0.28785 0.0
H505 H 0.75207 0.68438 0.25467 0.0
H506 H 0.77689 0.70844 0.15513 0.0
H507 H 0.75056 0.69336 0.09975 0.0
H508 H 0.24765 0.79923 0.46534 0.0
H509 H 0.27349 0.78414 0.40937 0.0
H510 H 0.21452 0.76104 0.33605 0.0
H511 H 0.18864 0.77605 0.39146 0.0
H512 H 0.27624 0.73704 0.37555 0.0
H513 H 0.25252 0.80236 0.25195 0.0
H514 H 0.24678 0.80654 0.30853 0.0
H515 H 0.22802 0.78855 0.27651 0.0
C516 C 0.24021 0.79094 0.43726 0.0
C517 C 0.21613 0.78892 0.43262 0.0
C518 C 0.25498 0.78234 0.40544 0.0
C519 C 0.24582 0.77184 0.36847 0.0
C520 C 0.22184 0.76947 0.36411 0.0
H521 H 0.28635 0.67682 0.17803 0.0
H522 H 0.27571 0.69668 0.24448 0.0
C523 C 0.2071 0.77795 0.39588 0.0
C524 C 0.26113 0.76303 0.33427 0.0
H525 H 0.271 0.76761 0.22668 0.0
C526 C 0.27545 0.74392 0.3431 0.0
C527 C 0.26037 0.77238 0.2923 0.0
C528 C 0.24627 0.79374 0.28173 0.0
C529 C 0.28793 0.73292 0.31019 0.0
C530 C 0.28569 0.74114 0.26755 0.0
C531 C 0.27254 0.7612 0.25935 0.0
C532 C 0.29492 0.72813 0.23031 0.0
C533 C 0.30302 0.71235 0.32124 0.0
C534 C 0.30915 0.73927 0.20019 0.0
C535 C 0.31505 0.72805 0.16189 0.0
C536 C 0.30667 0.70555 0.15304 0.0
C537 C 0.2931 0.69413 0.18395 0.0
C538 C 0.28718 0.70538 0.22216 0.0
H539 H 0.30906 0.71325 0.35512 0.0
H540 H 0.29286 0.69607 0.3175 0.0
H541 H 0.31829 0.71134 0.29974 0.0
H542 H 0.31512 0.75691 0.20578 0.0
H543 H 0.32558 0.73726 0.13869 0.0
H544 H 0.16163 0.75424 0.63782 0.0
H545 H 0.17189 0.73487 0.70524 0.0
H546 H 0.21068 0.7955 0.74434 0.0
H547 H 0.20022 0.8151 0.67754 0.0
H548 H 0.2158 0.72445 0.72751 0.0
H549 H 0.17669 0.77926 0.85426 0.0
H550 H 0.16786 0.78092 0.79861 0.0
H551 H 0.19313 0.79632 0.81693 0.0
C552 C 0.17201 0.7636 0.66114 0.0
C553 C 0.18023 0.78614 0.65234 0.0
C554 C 0.17779 0.75253 0.69964 0.0
C555 C 0.19175 0.76387 0.73002 0.0
C556 C 0.19939 0.78664 0.72183 0.0
H557 H 0.29714 0.7172 0.89391 0.0
H558 H 0.27138 0.73216 0.83829 0.0
C559 C 0.19359 0.79774 0.68343 0.0
C560 C 0.20077 0.75106 0.76766 0.0
H561 H 0.20942 0.75563 0.87589 0.0
C562 C 0.21401 0.731 0.76006 0.0
C563 C 0.19819 0.75946 0.81016 0.0
C564 C 0.18298 0.78004 0.82055 0.0
C565 C 0.22595 0.71998 0.79348 0.0
C566 C 0.22486 0.7295 0.83532 0.0
C567 C 0.21044 0.74862 0.84354 0.0
C568 C 0.24004 0.72092 0.86993 0.0
C569 C 0.2402 0.69863 0.78354 0.0
C570 C 0.2308 0.71022 0.90658 0.0
C571 C 0.24551 0.70163 0.93854 0.0
C572 C 0.2696 0.70385 0.93432 0.0
C573 C 0.27867 0.71511 0.89799 0.0
C574 C 0.26401 0.72359 0.86611 0.0
H575 H 0.23424 0.68989 0.75362 0.0
H576 H 0.25848 0.70386 0.7789 0.0
H577 H 0.23949 0.68592 0.81042 0.0
H578 H 0.2123 0.7082 0.91008 0.0
H579 H 0.23803 0.69311 0.96631 0.0
H580 H 0.28622 0.3151 0.89583 0.0
H581 H 0.27509 0.29524 0.82955 0.0
H582 H 0.31519 0.23522 0.86684 0.0
H583 H 0.32616 0.25485 0.9338 0.0
H584 H 0.30007 0.27426 0.76087 0.0
H585 H 0.24861 0.21046 0.85593 0.0
H586 H 0.26002 0.23684 0.87927 0.0
H587 H 0.27878 0.21255 0.86898 0.0
C588 C 0.2929 0.29778 0.88977 0.0
C589 C 0.30677 0.28638 0.92029 0.0
C590 C 0.28661 0.28651 0.8518 0.0
C591 C 0.29408 0.26369 0.84371 0.0
C592 C 0.309 0.25273 0.87292 0.0
H593 H 0.24992 0.19084 0.60763 0.0
H594 H 0.27506 0.20691 0.66385 0.0
C595 C 0.31525 0.26397 0.91105 0.0
C596 C 0.28449 0.2509 0.80656 0.0
H597 H 0.24627 0.20785 0.78088 0.0
C598 C 0.28856 0.25952 0.76503 0.0
C599 C 0.26934 0.23184 0.81242 0.0
C600 C 0.26371 0.2224 0.8565 0.0
C601 C 0.27727 0.24996 0.72917 0.0
C602 C 0.26172 0.23129 0.73526 0.0
C603 C 0.2583 0.22216 0.77655 0.0
C604 C 0.24709 0.22235 0.70009 0.0
C605 C 0.28112 0.26057 0.6854 0.0
C606 C 0.22314 0.22568 0.70218 0.0
C607 C 0.20879 0.21652 0.67042 0.0
C608 C 0.21816 0.20375 0.63606 0.0
C609 C 0.24223 0.20065 0.63373 0.0
C610 C 0.25661 0.20987 0.66563 0.0
H611 H 0.29128 0.27697 0.68712 0.0
H612 H 0.29062 0.248 0.66485 0.0
H613 H 0.26432 0.26428 0.66958 0.0
H614 H 0.21552 0.23528 0.72864 0.0
H615 H 0.19034 0.21923 0.67311 0.0
H616 H 0.69145 0.27083 0.89779 0.0
H617 H 0.71683 0.25546 0.84204 0.0
H618 H 0.77599 0.2844 0.90736 0.0
H619 H 0.75062 0.29981 0.96386 0.0
H620 H 0.74728 0.2833 0.79003 0.0
H621 H 0.79296 0.21456 0.88377 0.0
H622 H 0.76587 0.22694 0.90132 0.0
H623 H 0.79199 0.24354 0.90595 0.0
C624 C 0.70987 0.27383 0.90055 0.0
C625 C 0.71905 0.28654 0.93518 0.0
C626 C 0.72432 0.26506 0.86864 0.0
C627 C 0.74822 0.26873 0.87081 0.0
C628 C 0.75758 0.2812 0.90549 0.0
H629 H 0.82598 0.23512 0.63588 0.0
H630 H 0.8155 0.25536 0.70248 0.0
C631 C 0.74307 0.29003 0.93757 0.0
C632 C 0.76295 0.25999 0.83563 0.0
H633 H 0.80117 0.21695 0.80984 0.0
C634 C 0.75936 0.26904 0.79432 0.0
C635 C 0.77856 0.24135 0.84166 0.0
C636 C 0.78261 0.23084 0.88546 0.0
C637 C 0.77021 0.25925 0.75836 0.0
C638 C 0.78535 0.24016 0.76414 0.0
C639 C 0.78967 0.2317 0.80572 0.0
C640 C 0.79456 0.22711 0.72697 0.0
C641 C 0.76434 0.26855 0.71428 0.0
C642 C 0.78702 0.20422 0.71972 0.0
C643 C 0.79304 0.19261 0.68197 0.0
C644 C 0.80671 0.20371 0.65081 0.0
C645 C 0.81523 0.22622 0.65914 0.0
C646 C 0.80924 0.23781 0.69707 0.0
H647 H 0.7493 0.28058 0.715 0.0
H648 H 0.77937 0.27827 0.70136 0.0
H649 H 0.76041 0.25404 0.69177 0.0
H650 H 0.77568 0.19568 0.7425 0.0
H651 H 0.78633 0.17522 0.67662 0.0
H652 H 0.65878 0.73533 0.93104 0.0
H653 H 0.66726 0.75447 0.86252 0.0
H654 H 0.70682 0.69456 0.82249 0.0
H655 H 0.69814 0.67521 0.8903 0.0
H656 H 0.71033 0.7659 0.83823 0.0
H657 H 0.67164 0.7095 0.71355 0.0
H658 H 0.66339 0.70777 0.76948 0.0
H659 H 0.68876 0.69282 0.75043 0.0
C660 C 0.66891 0.72607 0.90726 0.0
C661 C 0.67792 0.70383 0.91611 0.0
C662 C 0.67367 0.73699 0.86813 0.0
C663 C 0.68737 0.72579 0.83718 0.0
C664 C 0.6957 0.70328 0.84541 0.0
H665 H 0.79259 0.7702 0.67453 0.0
H666 H 0.76598 0.7559 0.72923 0.0
C667 C 0.69093 0.69233 0.88442 0.0
C668 C 0.69569 0.73863 0.79902 0.0
H669 H 0.70452 0.73299 0.69102 0.0
C670 C 0.70858 0.75901 0.8059 0.0
C671 C 0.69319 0.72979 0.75679 0.0
C672 C 0.67827 0.7089 0.74707 0.0
C673 C 0.72045 0.76978 0.77216 0.0
C674 C 0.71961 0.75973 0.73073 0.0
C675 C 0.70536 0.74041 0.72308 0.0
C676 C 0.73521 0.76772 0.69635 0.0
C677 C 0.73454 0.79134 0.78139 0.0
C678 C 0.72655 0.77852 0.65929 0.0
C679 C 0.74176 0.78677 0.62784 0.0
C680 C 0.76576 0.78409 0.63302 0.0
C681 C 0.77422 0.77264 0.66968 0.0
C682 C 0.75907 0.76453 0.70104 0.0
H683 H 0.72847 0.80037 0.8109 0.0
H684 H 0.75285 0.78628 0.78639 0.0
H685 H 0.73381 0.80372 0.75399 0.0
H686 H 0.70813 0.78095 0.65514 0.0
H687 H 0.73475 0.79544 0.5998 0.0
loop_
_geom_bond_atom_site_label_1
_geom_bond_atom_site_label_2
_geom_bond_distance
_geom_bond_site_symmetry_2
_ccdc_geom_bond_type
C0 O1 1.306 . S
C0 O3 1.160 1_554 S
O1 C0 1.306 . S
O1 Cd2 2.228 . S
Cd2 O1 2.228 . S
Cd2 O6 2.273 . S
Cd2 O10 2.277 . S
O3 C0 1.160 1_556 S
O3 Cd4 2.203 1_556 S
Cd4 O3 2.203 1_554 S
Cd4 O6 2.411 . S
Cd4 O7 2.333 . S
Cd4 O8 2.352 1_554 S
Cd4 O12 2.277 . S
Cd4 O13 2.356 1_554 S
C5 O10 1.209 . S
C5 O12 1.226 . S
O6 Cd2 2.273 . S
O6 Cd4 2.411 . S
O6 C9 1.320 . S
O7 Cd4 2.333 . S
O7 C9 1.214 . S
O8 Cd4 2.352 1_556 S
O8 C11 1.258 . S
C9 O6 1.320 . S
C9 O7 1.214 . S
O10 Cd2 2.277 . S
O10 C5 1.209 . S
C11 O8 1.258 . S
C11 O13 1.282 . S
O12 Cd4 2.277 . S
O12 C5 1.226 . S
O13 Cd4 2.356 1_556 S
O13 C11 1.282 . S
C14 O15 1.306 . S
C14 O17 1.160 . S
O15 C14 1.306 . S
O15 Cd16 2.228 1_554 S
Cd16 O15 2.228 1_556 S
Cd16 O20 2.273 . S
Cd16 O24 2.277 1_556 S
O17 C14 1.160 . S
O17 Cd18 2.203 . S
Cd18 O17 2.203 . S
Cd18 O20 2.411 1_554 S
Cd18 O21 2.333 . S
Cd18 O22 2.352 . S
Cd18 O26 2.277 . S
Cd18 O27 2.356 . S
C19 O24 1.209 . S
C19 O26 1.226 . S
O20 Cd16 2.273 . S
O20 Cd18 2.411 1_556 S
O20 C23 1.320 . S
O21 Cd18 2.333 . S
O21 C23 1.214 1_554 S
O22 Cd18 2.352 . S
O22 C25 1.258 . S
C23 O20 1.320 . S
C23 O21 1.214 1_556 S
O24 Cd16 2.277 1_554 S
O24 C19 1.209 . S
C25 O22 1.258 . S
C25 O27 1.282 . S
O26 Cd18 2.277 . S
O26 C19 1.226 . S
O27 Cd18 2.356 . S
O27 C25 1.282 . S
C28 O29 1.306 . S
C28 O31 1.160 1_554 S
O29 C28 1.306 . S
O29 Cd30 2.228 . S
Cd30 O29 2.228 . S
Cd30 O34 2.273 . S
Cd30 O38 2.277 . S
O31 C28 1.160 1_556 S
O31 Cd32 2.203 1_556 S
Cd32 O31 2.203 1_554 S
Cd32 O34 2.411 . S
Cd32 O35 2.333 . S
Cd32 O36 2.352 1_554 S
Cd32 O40 2.277 . S
Cd32 O41 2.356 1_554 S
C33 O38 1.209 . S
C33 O40 1.226 . S
O34 Cd30 2.273 . S
O34 Cd32 2.411 . S
O34 C37 1.320 . S
O35 Cd32 2.333 . S
O35 C37 1.214 . S
O36 Cd32 2.352 1_556 S
O36 C39 1.258 . S
C37 O34 1.320 . S
C37 O35 1.214 . S
O38 Cd30 2.277 . S
O38 C33 1.209 . S
C39 O36 1.258 . S
C39 O41 1.282 . S
O40 Cd32 2.277 . S
O40 C33 1.226 . S
O41 Cd32 2.356 1_556 S
O41 C39 1.282 . S
C42 O43 1.306 . S
C42 O45 1.160 . S
O43 C42 1.306 . S
O43 Cd44 2.228 1_554 S
Cd44 O43 2.228 1_556 S
Cd44 O48 2.273 . S
Cd44 O52 2.277 1_556 S
O45 C42 1.160 . S
O45 Cd46 2.203 . S
Cd46 O45 2.203 . S
Cd46 O48 2.411 1_554 S
Cd46 O49 2.333 . S
Cd46 O50 2.352 . S
Cd46 O54 2.277 . S
Cd46 O55 2.356 . S
C47 O52 1.209 . S
C47 O54 1.226 . S
O48 Cd44 2.273 . S
O48 Cd46 2.411 1_556 S
O48 C51 1.320 . S
O49 Cd46 2.333 . S
O49 C51 1.214 1_554 S
O50 Cd46 2.352 . S
O50 C53 1.258 . S
C51 O48 1.320 . S
C51 O49 1.214 1_556 S
O52 Cd44 2.277 1_554 S
O52 C47 1.209 . S
C53 O50 1.258 . S
C53 O55 1.282 . S
O54 Cd46 2.277 . S
O54 C47 1.226 . S
O55 Cd46 2.356 . S
O55 C53 1.282 . S
C56 O57 1.306 . S
C56 O59 1.160 . S
O57 C56 1.306 . S
O57 Cd58 2.228 . S
Cd58 O57 2.228 . S
Cd58 O62 2.273 . S
Cd58 O66 2.277 . S
O59 C56 1.160 . S
O59 Cd60 2.203 . S
Cd60 O59 2.203 . S
Cd60 O62 2.411 . S
Cd60 O63 2.333 . S
Cd60 O64 2.352 . S
Cd60 O68 2.277 . S
Cd60 O69 2.356 . S
C61 O66 1.209 . S
C61 O68 1.226 . S
O62 Cd58 2.273 . S
O62 Cd60 2.411 . S
O62 C65 1.320 . S
O63 Cd60 2.333 . S
O63 C65 1.214 . S
O64 Cd60 2.352 . S
O64 C67 1.258 . S
C65 O62 1.320 . S
C65 O63 1.214 . S
O66 Cd58 2.277 . S
O66 C61 1.209 . S
C67 O64 1.258 . S
C67 O69 1.282 . S
O68 Cd60 2.277 . S
O68 C61 1.226 . S
O69 Cd60 2.356 . S
O69 C67 1.282 . S
C70 O71 1.306 . S
C70 O73 1.160 . S
O71 C70 1.306 . S
O71 Cd72 2.228 . S
Cd72 O71 2.228 . S
Cd72 O76 2.273 . S
Cd72 O80 2.277 . S
O73 C70 1.160 . S
O73 Cd74 2.203 . S
Cd74 O73 2.203 . S
Cd74 O76 2.411 . S
Cd74 O77 2.333 . S
Cd74 O78 2.352 . S
Cd74 O82 2.277 . S
Cd74 O83 2.356 . S
C75 O80 1.209 . S
C75 O82 1.226 . S
O76 Cd72 2.273 . S
O76 Cd74 2.411 . S
O76 C79 1.320 . S
O77 Cd74 2.333 . S
O77 C79 1.214 . S
O78 Cd74 2.352 . S
O78 C81 1.258 . S
C79 O76 1.320 . S
C79 O77 1.214 . S
O80 Cd72 2.277 . S
O80 C75 1.209 . S
C81 O78 1.258 . S
C81 O83 1.282 . S
O82 Cd74 2.277 . S
O82 C75 1.226 . S
O83 Cd74 2.356 . S
O83 C81 1.282 . S
C84 O85 1.306 . S
C84 O87 1.160 . S
O85 C84 1.306 . S
O85 Cd86 2.228 . S
Cd86 O85 2.228 . S
Cd86 O90 2.273 . S
Cd86 O94 2.277 . S
O87 C84 1.160 . S
O87 Cd88 2.203 . S
Cd88 O87 2.203 . S
Cd88 O90 2.411 . S
Cd88 O91 2.333 . S
Cd88 O92 2.352 . S
Cd88 O96 2.277 . S
Cd88 O97 2.356 . S
C89 O94 1.209 . S
C89 O96 1.226 . S
O90 Cd86 2.273 . S
O90 Cd88 2.411 . S
O90 C93 1.320 . S
O91 Cd88 2.333 . S
O91 C93 1.214 . S
O92 Cd88 2.352 . S
O92 C95 1.258 . S
C93 O90 1.320 . S
C93 O91 1.214 . S
O94 Cd86 2.277 . S
O94 C89 1.209 . S
C95 O92 1.258 . S
C95 O97 1.282 . S
O96 Cd88 2.277 . S
O96 C89 1.226 . S
O97 Cd88 2.356 . S
O97 C95 1.282 . S
C98 O99 1.306 . S
C98 O101 1.160 . S
O99 C98 1.306 . S
O99 Cd100 2.228 . S
Cd100 O99 2.228 . S
Cd100 O104 2.273 . S
Cd100 O108 2.277 . S
O101 C98 1.160 . S
O101 Cd102 2.203 . S
Cd102 O101 2.203 . S
Cd102 O104 2.411 . S
Cd102 O105 2.333 . S
Cd102 O106 2.352 . S
Cd102 O110 2.277 . S
Cd102 O111 2.356 . S
C103 O108 1.209 . S
C103 O110 1.226 . S
O104 Cd100 2.273 . S
O104 Cd102 2.411 . S
O104 C107 1.320 . S
O105 Cd102 2.333 . S
O105 C107 1.214 . S
O106 Cd102 2.352 . S
O106 C109 1.258 . S
C107 O104 1.320 . S
C107 O105 1.214 . S
O108 Cd100 2.277 . S
O108 C103 1.209 . S
C109 O106 1.258 . S
C109 O111 1.282 . S
O110 Cd102 2.277 . S
O110 C103 1.226 . S
O111 Cd102 2.356 . S
O111 C109 1.282 . S
H112 C120 0.929 . S
H113 C122 0.930 . S
H114 C124 0.930 . S
H115 C127 0.929 . S
H116 C130 0.930 . S
H117 C132 0.960 . S
H118 C132 0.960 . S
H119 C132 0.960 . S
C120 H112 0.929 . S
C120 C121 1.377 . S
C120 C122 1.384 . S
C121 C120 1.377 . S
C121 C127 1.390 . S
C122 H113 0.930 . S
C122 C120 1.384 . S
C122 C123 1.372 . S
C123 C122 1.372 . S
C123 C124 1.400 . S
C123 C128 1.490 . S
C124 H114 0.930 . S
C124 C123 1.400 . S
C124 C127 1.386 . S
H125 C141 0.930 . S
H126 C142 0.931 . S
C127 H115 0.929 . S
C127 C121 1.390 . S
C127 C124 1.386 . S
C128 C123 1.490 . S
C128 C130 1.395 . S
C128 C131 1.403 . S
H129 C135 0.930 1_556 S
C130 H116 0.930 . S
C130 C128 1.395 . S
C130 C133 1.403 . S
C131 C128 1.403 . S
C131 C132 1.524 1_554 S
C131 C135 1.400 . S
C132 H117 0.960 . S
C132 H118 0.960 . S
C132 H119 0.960 . S
C132 C131 1.524 1_556 S
C133 C130 1.403 . S
C133 C134 1.392 . S
C133 C137 1.495 . S
C134 C133 1.392 . S
C134 C135 1.385 . S
C134 C136 1.478 . S
C135 H129 0.930 1_554 S
C135 C131 1.400 . S
C135 C134 1.385 . S
C136 C134 1.478 . S
C136 C138 1.381 . S
C136 C142 1.383 . S
C137 C133 1.495 . S
C137 H143 0.959 . S
C137 H144 0.961 . S
C137 H145 0.960 . S
C138 C136 1.381 . S
C138 C139 1.394 . S
C138 H146 0.930 . S
C139 C138 1.394 . S
C139 C140 1.383 . S
C139 H147 0.929 . S
C140 C139 1.383 . S
C140 C141 1.377 . S
C141 H125 0.930 . S
C141 C140 1.377 . S
C141 C142 1.379 . S
C142 H126 0.931 . S
C142 C136 1.383 . S
C142 C141 1.379 . S
H143 C137 0.959 . S
H144 C137 0.961 . S
H145 C137 0.960 . S
H146 C138 0.930 . S
H147 C139 0.929 . S
H148 C156 0.929 . S
H149 C158 0.930 . S
H150 C160 0.930 . S
H151 C163 0.929 . S
H152 C166 0.930 . S
H153 C168 0.960 . S
H154 C168 0.960 . S
H155 C168 0.960 . S
C156 H148 0.929 . S
C156 C157 1.377 . S
C156 C158 1.384 . S
C157 C156 1.377 . S
C157 C163 1.390 . S
C158 H149 0.930 . S
C158 C156 1.384 . S
C158 C159 1.372 . S
C159 C158 1.372 . S
C159 C160 1.400 . S
C159 C164 1.490 . S
C160 H150 0.930 . S
C160 C159 1.400 . S
C160 C163 1.386 . S
H161 C177 0.930 . S
H162 C178 0.931 . S
C163 H151 0.929 . S
C163 C157 1.390 . S
C163 C160 1.386 . S
C164 C159 1.490 . S
C164 C166 1.395 . S
C164 C167 1.403 . S
H165 C171 0.930 1_556 S
C166 H152 0.930 . S
C166 C164 1.395 . S
C166 C169 1.403 . S
C167 C164 1.403 . S
C167 C168 1.524 1_554 S
C167 C171 1.400 . S
C168 H153 0.960 . S
C168 H154 0.960 . S
C168 H155 0.960 . S
C168 C167 1.524 1_556 S
C169 C166 1.403 . S
C169 C170 1.392 . S
C169 C173 1.495 . S
C170 C169 1.392 . S
C170 C171 1.385 . S
C170 C172 1.478 . S
C171 H165 0.930 1_554 S
C171 C167 1.400 . S
C171 C170 1.385 . S
C172 C170 1.478 . S
C172 C174 1.381 . S
C172 C178 1.383 . S
C173 C169 1.495 . S
C173 H179 0.959 . S
C173 H180 0.961 . S
C173 H181 0.960 . S
C174 C172 1.381 . S
C174 C175 1.394 . S
C174 H182 0.930 . S
C175 C174 1.394 . S
C175 C176 1.383 . S
C175 H183 0.929 . S
C176 C175 1.383 . S
C176 C177 1.377 . S
C177 H161 0.930 . S
C177 C176 1.377 . S
C177 C178 1.379 . S
C178 H162 0.931 . S
C178 C172 1.383 . S
C178 C177 1.379 . S
H179 C173 0.959 . S
H180 C173 0.961 . S
H181 C173 0.960 . S
H182 C174 0.930 . S
H183 C175 0.929 . S
H184 C192 0.929 . S
H185 C194 0.930 . S
H186 C196 0.930 . S
H187 C199 0.929 . S
H188 C202 0.930 . S
H189 C204 0.960 . S
H190 C204 0.960 1_554 S
H191 C204 0.960 . S
C192 H184 0.929 . S
C192 C193 1.377 . S
C192 C194 1.384 . S
C193 C192 1.377 . S
C193 C199 1.390 1_554 S
C194 H185 0.930 . S
C194 C192 1.384 . S
C194 C195 1.372 . S
C195 C194 1.372 . S
C195 C196 1.400 1_554 S
C195 C200 1.490 . S
C196 H186 0.930 . S
C196 C195 1.400 1_556 S
C196 C199 1.386 . S
H197 C213 0.930 1_556 S
H198 C214 0.931 1_556 S
C199 H187 0.929 . S
C199 C193 1.390 1_556 S
C199 C196 1.386 . S
C200 C195 1.490 . S
C200 C202 1.395 . S
C200 C203 1.403 . S
H201 C207 0.930 . S
C202 H188 0.930 . S
C202 C200 1.395 . S
C202 C205 1.403 . S
C203 C200 1.403 . S
C203 C204 1.524 1_554 S
C203 C207 1.400 . S
C204 H189 0.960 . S
C204 H190 0.960 1_556 S
C204 H191 0.960 . S
C204 C203 1.524 1_556 S
C205 C202 1.403 . S
C205 C206 1.392 . S
C205 C209 1.495 . S
C206 C205 1.392 . S
C206 C207 1.385 . S
C206 C208 1.478 . S
C207 H201 0.930 . S
C207 C203 1.400 . S
C207 C206 1.385 . S
C208 C206 1.478 . S
C208 C210 1.381 . S
C208 C214 1.383 . S
C209 C205 1.495 . S
C209 H215 0.959 . S
C209 H216 0.961 . S
C209 H217 0.960 . S
C210 C208 1.381 . S
C210 C211 1.394 . S
C210 H218 0.930 . S
C211 C210 1.394 . S
C211 C212 1.383 . S
C211 H219 0.929 . S
C212 C211 1.383 . S
C212 C213 1.377 . S
C213 H197 0.930 1_554 S
C213 C212 1.377 . S
C213 C214 1.379 . S
C214 H198 0.931 1_554 S
C214 C208 1.383 . S
C214 C213 1.379 . S
H215 C209 0.959 . S
H216 C209 0.961 . S
H217 C209 0.960 . S
H218 C210 0.930 . S
H219 C211 0.929 . S
H220 C228 0.929 . S
H221 C230 0.930 . S
H222 C232 0.930 . S
H223 C235 0.929 . S
H224 C238 0.930 . S
H225 C240 0.960 . S
H226 C240 0.960 . S
H227 C240 0.960 . S
C228 H220 0.929 . S
C228 C229 1.377 . S
C228 C230 1.384 . S
C229 C228 1.377 . S
C229 C235 1.390 . S
C230 H221 0.930 . S
C230 C228 1.384 . S
C230 C231 1.372 . S
C231 C230 1.372 . S
C231 C232 1.400 . S
C231 C236 1.490 . S
C232 H222 0.930 . S
C232 C231 1.400 . S
C232 C235 1.386 . S
H233 C249 0.928 1_556 S
H234 C250 0.931 . S
C235 H223 0.929 . S
C235 C229 1.390 . S
C235 C232 1.386 . S
C236 C231 1.490 . S
C236 C238 1.395 . S
C236 C239 1.403 . S
H237 C243 0.930 1_556 S
C238 H224 0.930 . S
C238 C236 1.395 . S
C238 C241 1.403 . S
C239 C236 1.403 . S
C239 C240 1.524 1_554 S
C239 C243 1.400 . S
C240 H225 0.960 . S
C240 H226 0.960 . S
C240 H227 0.960 . S
C240 C239 1.524 1_556 S
C241 C238 1.403 . S
C241 C242 1.392 . S
C241 C245 1.495 . S
C242 C241 1.392 . S
C242 C243 1.385 . S
C242 C244 1.478 . S
C243 H237 0.930 1_554 S
C243 C239 1.400 . S
C243 C242 1.385 . S
C244 C242 1.478 . S
C244 C246 1.381 . S
C244 C250 1.383 . S
C245 C241 1.495 . S
C245 H251 0.959 . S
C245 H252 0.961 . S
C245 H253 0.960 . S
C246 C244 1.381 . S
C246 C247 1.394 . S
C246 H254 0.930 . S
C247 C246 1.394 . S
C247 C248 1.383 . S
C247 H255 0.929 . S
C248 C247 1.383 . S
C248 C249 1.377 . S
C249 H233 0.928 1_554 S
C249 C248 1.377 . S
C249 C250 1.379 . S
C250 H234 0.931 . S
C250 C244 1.383 . S
C250 C249 1.379 . S
H251 C245 0.959 . S
H252 C245 0.961 . S
H253 C245 0.960 . S
H254 C246 0.930 . S
H255 C247 0.929 . S
H256 C264 0.929 . S
H257 C266 0.930 . S
H258 C268 0.930 . S
H259 C271 0.929 . S
H260 C274 0.930 . S
H261 C276 0.960 . S
H262 C276 0.960 . S
H263 C276 0.960 . S
C264 H256 0.929 . S
C264 C265 1.377 . S
C264 C266 1.384 . S
C265 C264 1.377 . S
C265 C271 1.390 . S
C266 H257 0.930 . S
C266 C264 1.384 . S
C266 C267 1.372 . S
C267 C266 1.372 . S
C267 C268 1.400 . S
C267 C272 1.490 . S
C268 H258 0.930 . S
C268 C267 1.400 . S
C268 C271 1.386 . S
H269 C285 0.930 . S
H270 C286 0.931 . S
C271 H259 0.929 . S
C271 C265 1.390 . S
C271 C268 1.386 . S
C272 C267 1.490 . S
C272 C274 1.395 . S
C272 C275 1.403 . S
H273 C279 0.930 . S
C274 H260 0.930 . S
C274 C272 1.395 . S
C274 C277 1.403 1_565 S
C275 C272 1.403 . S
C275 C276 1.524 . S
C275 C279 1.400 1_565 S
C276 H261 0.960 . S
C276 H262 0.960 . S
C276 H263 0.960 . S
C276 C275 1.524 . S
C277 C274 1.403 1_545 S
C277 C278 1.392 . S
C277 C281 1.495 . S
C278 C277 1.392 . S
C278 C279 1.385 . S
C278 C280 1.478 . S
C279 H273 0.930 . S
C279 C275 1.400 1_545 S
C279 C278 1.385 . S
C280 C278 1.478 . S
C280 C282 1.381 . S
C280 C286 1.383 . S
C281 C277 1.495 . S
C281 H287 0.959 . S
C281 H288 0.961 . S
C281 H289 0.960 . S
C282 C280 1.381 . S
C282 C283 1.394 . S
C282 H290 0.930 . S
C283 C282 1.394 . S
C283 C284 1.383 . S
C283 H291 0.929 . S
C284 C283 1.383 . S
C284 C285 1.377 . S
C285 H269 0.930 . S
C285 C284 1.377 . S
C285 C286 1.379 . S
C286 H270 0.931 . S
C286 C280 1.383 . S
C286 C285 1.379 . S
H287 C281 0.959 . S
H288 C281 0.961 . S
H289 C281 0.960 . S
H290 C282 0.930 . S
H291 C283 0.929 . S
H292 C300 0.929 . S
H293 C302 0.930 . S
H294 C304 0.930 . S
H295 C307 0.929 . S
H296 C310 0.930 . S
H297 C312 0.960 . S
H298 C312 0.960 . S
H299 C312 0.960 . S
C300 H292 0.929 . S
C300 C301 1.377 . S
C300 C302 1.384 . S
C301 C300 1.377 . S
C301 C307 1.390 . S
C302 H293 0.930 . S
C302 C300 1.384 . S
C302 C303 1.372 . S
C303 C302 1.372 . S
C303 C304 1.400 . S
C303 C308 1.490 . S
C304 H294 0.930 . S
C304 C303 1.400 . S
C304 C307 1.386 . S
H305 C321 0.930 . S
H306 C322 0.931 . S
C307 H295 0.929 . S
C307 C301 1.390 . S
C307 C304 1.386 . S
C308 C303 1.490 . S
C308 C310 1.395 . S
C308 C311 1.403 . S
H309 C315 0.930 . S
C310 H296 0.930 . S
C310 C308 1.395 . S
C310 C313 1.403 1_455 S
C311 C308 1.403 . S
C311 C312 1.524 . S
C311 C315 1.400 1_455 S
C312 H297 0.960 . S
C312 H298 0.960 . S
C312 H299 0.960 . S
C312 C311 1.524 . S
C313 C310 1.403 1_655 S
C313 C314 1.392 . S
C313 C317 1.495 . S
C314 C313 1.392 . S
C314 C315 1.385 . S
C314 C316 1.478 . S
C315 H309 0.930 . S
C315 C311 1.400 1_655 S
C315 C314 1.385 . S
C316 C314 1.478 . S
C316 C318 1.381 . S
C316 C322 1.383 . S
C317 C313 1.495 . S
C317 H323 0.959 . S
C317 H324 0.961 . S
C317 H325 0.960 . S
C318 C316 1.381 . S
C318 C319 1.394 . S
C318 H326 0.930 . S
C319 C318 1.394 . S
C319 C320 1.383 . S
C319 H327 0.929 . S
C320 C319 1.383 . S
C320 C321 1.377 . S
C321 H305 0.930 . S
C321 C320 1.377 . S
C321 C322 1.379 . S
C322 H306 0.931 . S
C322 C316 1.383 . S
C322 C321 1.379 . S
H323 C317 0.959 . S
H324 C317 0.961 . S
H325 C317 0.960 . S
H326 C318 0.930 . S
H327 C319 0.929 . S
H328 C336 0.929 . S
H329 C338 0.930 . S
H330 C340 0.930 . S
H331 C343 0.929 . S
H332 C346 0.930 . S
H333 C348 0.960 . S
H334 C348 0.960 . S
H335 C348 0.960 . S
C336 H328 0.929 . S
C336 C337 1.377 . S
C336 C338 1.384 . S
C337 C336 1.377 . S
C337 C343 1.390 . S
C338 H329 0.930 . S
C338 C336 1.384 . S
C338 C339 1.372 . S
C339 C338 1.372 . S
C339 C340 1.400 . S
C339 C344 1.490 . S
C340 H330 0.930 . S
C340 C339 1.400 . S
C340 C343 1.386 . S
H341 C357 0.930 . S
H342 C358 0.931 . S
C343 H331 0.929 . S
C343 C337 1.390 . S
C343 C340 1.386 . S
C344 C339 1.490 . S
C344 C346 1.395 . S
C344 C347 1.403 . S
H345 C351 0.930 . S
C346 H332 0.930 . S
C346 C344 1.395 . S
C346 C349 1.403 1_545 S
C347 C344 1.403 . S
C347 C348 1.524 . S
C347 C351 1.400 1_545 S
C348 H333 0.960 . S
C348 H334 0.960 . S
C348 H335 0.960 . S
C348 C347 1.524 . S
C349 C346 1.403 1_565 S
C349 C350 1.392 . S
C349 C353 1.495 . S
C350 C349 1.392 . S
C350 C351 1.385 . S
C350 C352 1.478 . S
C351 H345 0.930 . S
C351 C347 1.400 1_565 S
C351 C350 1.385 . S
C352 C350 1.478 . S
C352 C354 1.381 . S
C352 C358 1.383 . S
C353 C349 1.495 . S
C353 H359 0.959 . S
C353 H360 0.961 . S
C353 H361 0.960 . S
C354 C352 1.381 . S
C354 C355 1.394 . S
C354 H362 0.930 . S
C355 C354 1.394 . S
C355 C356 1.383 . S
C355 H363 0.929 . S
C356 C355 1.383 . S
C356 C357 1.377 . S
C357 H341 0.930 . S
C357 C356 1.377 . S
C357 C358 1.379 . S
C358 H342 0.931 . S
C358 C352 1.383 . S
C358 C357 1.379 . S
H359 C353 0.959 . S
H360 C353 0.961 . S
H361 C353 0.960 . S
H362 C354 0.930 . S
H363 C355 0.929 . S
H364 C372 0.929 . S
H365 C374 0.930 . S
H366 C376 0.930 . S
H367 C379 0.929 . S
H368 C382 0.930 . S
H369 C384 0.960 . S
H370 C384 0.960 . S
H371 C384 0.960 . S
C372 H364 0.929 . S
C372 C373 1.377 . S
C372 C374 1.384 . S
C373 C372 1.377 . S
C373 C379 1.390 . S
C374 H365 0.930 . S
C374 C372 1.384 . S
C374 C375 1.372 . S
C375 C374 1.372 . S
C375 C376 1.400 . S
C375 C380 1.490 . S
C376 H366 0.930 . S
C376 C375 1.400 . S
C376 C379 1.386 . S
H377 C393 0.930 . S
H378 C394 0.931 . S
C379 H367 0.929 . S
C379 C373 1.390 . S
C379 C376 1.386 . S
C380 C375 1.490 . S
C380 C382 1.395 . S
C380 C383 1.403 . S
H381 C387 0.930 . S
C382 H368 0.930 . S
C382 C380 1.395 . S
C382 C385 1.403 1_655 S
C383 C380 1.403 . S
C383 C384 1.524 . S
C383 C387 1.400 1_655 S
C384 H369 0.960 . S
C384 H370 0.960 . S
C384 H371 0.960 . S
C384 C383 1.524 . S
C385 C382 1.403 1_455 S
C385 C386 1.392 . S
C385 C389 1.495 . S
C386 C385 1.392 . S
C386 C387 1.385 . S
C386 C388 1.478 . S
C387 H381 0.930 . S
C387 C383 1.400 1_455 S
C387 C386 1.385 . S
C388 C386 1.478 . S
C388 C390 1.381 . S
C388 C394 1.383 . S
C389 C385 1.495 . S
C389 H395 0.959 . S
C389 H396 0.961 . S
C389 H397 0.960 . S
C390 C388 1.381 . S
C390 C391 1.394 . S
C390 H398 0.930 . S
C391 C390 1.394 . S
C391 C392 1.383 . S
C391 H399 0.929 . S
C392 C391 1.383 . S
C392 C393 1.377 . S
C393 H377 0.930 . S
C393 C392 1.377 . S
C393 C394 1.379 . S
C394 H378 0.931 . S
C394 C388 1.383 . S
C394 C393 1.379 . S
H395 C389 0.959 . S
H396 C389 0.961 . S
H397 C389 0.960 . S
H398 C390 0.930 . S
H399 C391 0.929 . S
H400 C408 0.929 . S
H401 C410 0.930 . S
H402 C412 0.930 . S
H403 C415 0.929 . S
H404 C418 0.930 . S
H405 C420 0.960 . S
H406 C420 0.960 . S
H407 C420 0.960 . S
C408 H400 0.929 . S
C408 C409 1.377 . S
C408 C410 1.384 . S
C409 C408 1.377 . S
C409 C415 1.390 . S
C410 H401 0.930 . S
C410 C408 1.384 . S
C410 C411 1.372 . S
C411 C410 1.372 . S
C411 C412 1.400 . S
C411 C416 1.490 . S
C412 H402 0.930 . S
C412 C411 1.400 . S
C412 C415 1.386 . S
H413 C429 0.930 . S
H414 C430 0.931 . S
C415 H403 0.929 . S
C415 C409 1.390 . S
C415 C412 1.386 . S
C416 C411 1.490 . S
C416 C418 1.395 . S
C416 C419 1.403 . S
H417 C423 0.930 . S
C418 H404 0.930 . S
C418 C416 1.395 . S
C418 C421 1.403 . S
C419 C416 1.403 . S
C419 C420 1.524 . S
C419 C423 1.400 . S
C420 H405 0.960 . S
C420 H406 0.960 . S
C420 H407 0.960 . S
C420 C419 1.524 . S
C421 C418 1.403 . S
C421 C422 1.392 . S
C421 C425 1.495 . S
C422 C421 1.392 . S
C422 C423 1.385 . S
C422 C424 1.478 . S
C423 H417 0.930 . S
C423 C419 1.400 . S
C423 C422 1.385 . S
C424 C422 1.478 . S
C424 C426 1.381 . S
C424 C430 1.383 . S
C425 C421 1.495 . S
C425 H431 0.959 . S
C425 H432 0.961 . S
C425 H433 0.960 . S
C426 C424 1.381 . S
C426 C427 1.394 . S
C426 H434 0.930 . S
C427 C426 1.394 . S
C427 C428 1.383 . S
C427 H435 0.929 . S
C428 C427 1.383 . S
C428 C429 1.377 . S
C429 H413 0.930 . S
C429 C428 1.377 . S
C429 C430 1.379 . S
C430 H414 0.931 . S
C430 C424 1.383 . S
C430 C429 1.379 . S
H431 C425 0.959 . S
H432 C425 0.961 . S
H433 C425 0.960 . S
H434 C426 0.930 . S
H435 C427 0.929 . S
H436 C444 0.929 . S
H437 C446 0.930 . S
H438 C448 0.930 . S
H439 C451 0.929 . S
H440 C454 0.930 . S
H441 C456 0.960 . S
H442 C456 0.960 . S
H443 C456 0.960 . S
C444 H436 0.929 . S
C444 C445 1.377 . S
C444 C446 1.384 . S
C445 C444 1.377 . S
C445 C451 1.390 . S
C446 H437 0.930 . S
C446 C444 1.384 . S
C446 C447 1.372 . S
C447 C446 1.372 . S
C447 C448 1.400 . S
C447 C452 1.490 . S
C448 H438 0.930 . S
C448 C447 1.400 . S
C448 C451 1.386 . S
H449 C465 0.930 . S
H450 C466 0.931 . S
C451 H439 0.929 . S
C451 C445 1.390 . S
C451 C448 1.386 . S
C452 C447 1.490 . S
C452 C454 1.395 . S
C452 C455 1.403 . S
H453 C459 0.930 . S
C454 H440 0.930 . S
C454 C452 1.395 . S
C454 C457 1.403 . S
C455 C452 1.403 . S
C455 C456 1.524 . S
C455 C459 1.400 . S
C456 H441 0.960 . S
C456 H442 0.960 . S
C456 H443 0.960 . S
C456 C455 1.524 . S
C457 C454 1.403 . S
C457 C458 1.392 . S
C457 C461 1.495 . S
C458 C457 1.392 . S
C458 C459 1.385 . S
C458 C460 1.478 . S
C459 H453 0.930 . S
C459 C455 1.400 . S
C459 C458 1.385 . S
C460 C458 1.478 . S
C460 C462 1.381 . S
C460 C466 1.383 . S
C461 C457 1.495 . S
C461 H467 0.959 . S
C461 H468 0.961 . S
C461 H469 0.960 . S
C462 C460 1.381 . S
C462 C463 1.394 . S
C462 H470 0.930 . S
C463 C462 1.394 . S
C463 C464 1.383 . S
C463 H471 0.929 . S
C464 C463 1.383 . S
C464 C465 1.377 . S
C465 H449 0.930 . S
C465 C464 1.377 . S
C465 C466 1.379 . S
C466 H450 0.931 . S
C466 C460 1.383 . S
C466 C465 1.379 . S
H467 C461 0.959 . S
H468 C461 0.961 . S
H469 C461 0.960 . S
H470 C462 0.930 . S
H471 C463 0.929 . S
H472 C480 0.929 . S
H473 C482 0.930 . S
H474 C484 0.930 . S
H475 C487 0.929 . S
H476 C490 0.930 . S
H477 C492 0.960 . S
H478 C492 0.960 . S
H479 C492 0.960 . S
C480 H472 0.929 . S
C480 C481 1.377 . S
C480 C482 1.384 . S
C481 C480 1.377 . S
C481 C487 1.390 . S
C482 H473 0.930 . S
C482 C480 1.384 . S
C482 C483 1.372 . S
C483 C482 1.372 . S
C483 C484 1.400 . S
C483 C488 1.490 . S
C484 H474 0.930 . S
C484 C483 1.400 . S
C484 C487 1.386 . S
H485 C501 0.930 . S
H486 C502 0.931 . S
C487 H475 0.929 . S
C487 C481 1.390 . S
C487 C484 1.386 . S
C488 C483 1.490 . S
C488 C490 1.395 . S
C488 C491 1.403 . S
H489 C495 0.930 . S
C490 H476 0.930 . S
C490 C488 1.395 . S
C490 C493 1.403 . S
C491 C488 1.403 . S
C491 C492 1.524 . S
C491 C495 1.400 . S
C492 H477 0.960 . S
C492 H478 0.960 . S
C492 H479 0.960 . S
C492 C491 1.524 . S
C493 C490 1.403 . S
C493 C494 1.392 . S
C493 C497 1.495 . S
C494 C493 1.392 . S
C494 C495 1.385 . S
C494 C496 1.478 . S
C495 H489 0.930 . S
C495 C491 1.400 . S
C495 C494 1.385 . S
C496 C494 1.478 . S
C496 C498 1.381 . S
C496 C502 1.383 . S
C497 C493 1.495 . S
C497 H503 0.959 . S
C497 H504 0.961 . S
C497 H505 0.960 . S
C498 C496 1.381 . S
C498 C499 1.394 . S
C498 H506 0.930 . S
C499 C498 1.394 . S
C499 C500 1.383 . S
C499 H507 0.929 . S
C500 C499 1.383 . S
C500 C501 1.377 . S
C501 H485 0.930 . S
C501 C500 1.377 . S
C501 C502 1.379 . S
C502 H486 0.931 . S
C502 C496 1.383 . S
C502 C501 1.379 . S
H503 C497 0.959 . S
H504 C497 0.961 . S
H505 C497 0.960 . S
H506 C498 0.930 . S
H507 C499 0.929 . S
H508 C516 0.929 . S
H509 C518 0.930 . S
H510 C520 0.930 . S
H511 C523 0.929 . S
H512 C526 0.930 . S
H513 C528 0.960 . S
H514 C528 0.960 . S
H515 C528 0.960 . S
C516 H508 0.929 . S
C516 C517 1.377 . S
C516 C518 1.384 . S
C517 C516 1.377 . S
C517 C523 1.390 . S
C518 H509 0.930 . S
C518 C516 1.384 . S
C518 C519 1.372 . S
C519 C518 1.372 . S
C519 C520 1.400 . S
C519 C524 1.490 . S
C520 H510 0.930 . S
C520 C519 1.400 . S
C520 C523 1.386 . S
H521 C537 0.930 . S
H522 C538 0.931 . S
C523 H511 0.929 . S
C523 C517 1.390 . S
C523 C520 1.386 . S
C524 C519 1.490 . S
C524 C526 1.395 . S
C524 C527 1.403 . S
H525 C531 0.930 . S
C526 H512 0.930 . S
C526 C524 1.395 . S
C526 C529 1.403 . S
C527 C524 1.403 . S
C527 C528 1.524 . S
C527 C531 1.400 . S
C528 H513 0.960 . S
C528 H514 0.960 . S
C528 H515 0.960 . S
C528 C527 1.524 . S
C529 C526 1.403 . S
C529 C530 1.392 . S
C529 C533 1.495 . S
C530 C529 1.392 . S
C530 C531 1.385 . S
C530 C532 1.478 . S
C531 H525 0.930 . S
C531 C527 1.400 . S
C531 C530 1.385 . S
C532 C530 1.478 . S
C532 C534 1.381 . S
C532 C538 1.383 . S
C533 C529 1.495 . S
C533 H539 0.959 . S
C533 H540 0.961 . S
C533 H541 0.960 . S
C534 C532 1.381 . S
C534 C535 1.394 . S
C534 H542 0.930 . S
C535 C534 1.394 . S
C535 C536 1.383 . S
C535 H543 0.929 . S
C536 C535 1.383 . S
C536 C537 1.377 . S
C537 H521 0.930 . S
C537 C536 1.377 . S
C537 C538 1.379 . S
C538 H522 0.931 . S
C538 C532 1.383 . S
C538 C537 1.379 . S
H539 C533 0.959 . S
H540 C533 0.961 . S
H541 C533 0.960 . S
H542 C534 0.930 . S
H543 C535 0.929 . S
H544 C552 0.929 . S
H545 C554 0.930 . S
H546 C556 0.930 . S
H547 C559 0.929 . S
H548 C562 0.930 . S
H549 C564 0.960 . S
H550 C564 0.960 . S
H551 C564 0.960 . S
C552 H544 0.929 . S
C552 C553 1.377 . S
C552 C554 1.384 . S
C553 C552 1.377 . S
C553 C559 1.390 . S
C554 H545 0.930 . S
C554 C552 1.384 . S
C554 C555 1.372 . S
C555 C554 1.372 . S
C555 C556 1.400 . S
C555 C560 1.490 . S
C556 H546 0.930 . S
C556 C555 1.400 . S
C556 C559 1.386 . S
H557 C573 0.930 . S
H558 C574 0.931 . S
C559 H547 0.929 . S
C559 C553 1.390 . S
C559 C556 1.386 . S
C560 C555 1.490 . S
C560 C562 1.395 . S
C560 C563 1.403 . S
H561 C567 0.930 . S
C562 H548 0.930 . S
C562 C560 1.395 . S
C562 C565 1.403 . S
C563 C560 1.403 . S
C563 C564 1.524 . S
C563 C567 1.400 . S
C564 H549 0.960 . S
C564 H550 0.960 . S
C564 H551 0.960 . S
C564 C563 1.524 . S
C565 C562 1.403 . S
C565 C566 1.392 . S
C565 C569 1.495 . S
C566 C565 1.392 . S
C566 C567 1.385 . S
C566 C568 1.478 . S
C567 H561 0.930 . S
C567 C563 1.400 . S
C567 C566 1.385 . S
C568 C566 1.478 . S
C568 C570 1.381 . S
C568 C574 1.383 . S
C569 C565 1.495 . S
C569 H575 0.959 . S
C569 H576 0.961 . S
C569 H577 0.960 . S
C570 C568 1.381 . S
C570 C571 1.394 . S
C570 H578 0.930 . S
C571 C570 1.394 . S
C571 C572 1.383 . S
C571 H579 0.929 . S
C572 C571 1.383 . S
C572 C573 1.377 . S
C573 H557 0.930 . S
C573 C572 1.377 . S
C573 C574 1.379 . S
C574 H558 0.931 . S
C574 C568 1.383 . S
C574 C573 1.379 . S
H575 C569 0.959 . S
H576 C569 0.961 . S
H577 C569 0.960 . S
H578 C570 0.930 . S
H579 C571 0.929 . S
H580 C588 0.929 . S
H581 C590 0.930 . S
H582 C592 0.930 . S
H583 C595 0.929 . S
H584 C598 0.930 . S
H585 C600 0.960 . S
H586 C600 0.960 . S
H587 C600 0.960 . S
C588 H580 0.929 . S
C588 C589 1.377 . S
C588 C590 1.384 . S
C589 C588 1.377 . S
C589 C595 1.390 . S
C590 H581 0.930 . S
C590 C588 1.384 . S
C590 C591 1.372 . S
C591 C590 1.372 . S
C591 C592 1.400 . S
C591 C596 1.490 . S
C592 H582 0.930 . S
C592 C591 1.400 . S
C592 C595 1.386 . S
H593 C609 0.930 . S
H594 C610 0.931 . S
C595 H583 0.929 . S
C595 C589 1.390 . S
C595 C592 1.386 . S
C596 C591 1.490 . S
C596 C598 1.395 . S
C596 C599 1.403 . S
H597 C603 0.930 . S
C598 H584 0.930 . S
C598 C596 1.395 . S
C598 C601 1.403 . S
C599 C596 1.403 . S
C599 C600 1.524 . S
C599 C603 1.400 . S
C600 H585 0.960 . S
C600 H586 0.960 . S
C600 H587 0.960 . S
C600 C599 1.524 . S
C601 C598 1.403 . S
C601 C602 1.392 . S
C601 C605 1.495 . S
C602 C601 1.392 . S
C602 C603 1.385 . S
C602 C604 1.478 . S
C603 H597 0.930 . S
C603 C599 1.400 . S
C603 C602 1.385 . S
C604 C602 1.478 . S
C604 C606 1.381 . S
C604 C610 1.383 . S
C605 C601 1.495 . S
C605 H611 0.959 . S
C605 H612 0.961 . S
C605 H613 0.960 . S
C606 C604 1.381 . S
C606 C607 1.394 . S
C606 H614 0.930 . S
C607 C606 1.394 . S
C607 C608 1.383 . S
C607 H615 0.929 . S
C608 C607 1.383 . S
C608 C609 1.377 . S
C609 H593 0.930 . S
C609 C608 1.377 . S
C609 C610 1.379 . S
C610 H594 0.931 . S
C610 C604 1.383 . S
C610 C609 1.379 . S
H611 C605 0.959 . S
H612 C605 0.961 . S
H613 C605 0.960 . S
H614 C606 0.930 . S
H615 C607 0.929 . S
H616 C624 0.929 . S
H617 C626 0.930 . S
H618 C628 0.930 . S
H619 C631 0.929 . S
H620 C634 0.930 . S
H621 C636 0.960 . S
H622 C636 0.960 . S
H623 C636 0.960 . S
C624 H616 0.929 . S
C624 C625 1.377 . S
C624 C626 1.384 . S
C625 C624 1.377 . S
C625 C631 1.390 . S
C626 H617 0.930 . S
C626 C624 1.384 . S
C626 C627 1.372 . S
C627 C626 1.372 . S
C627 C628 1.400 . S
C627 C632 1.490 . S
C628 H618 0.930 . S
C628 C627 1.400 . S
C628 C631 1.386 . S
H629 C645 0.930 . S
H630 C646 0.931 . S
C631 H619 0.929 . S
C631 C625 1.390 . S
C631 C628 1.386 . S
C632 C627 1.490 . S
C632 C634 1.395 . S
C632 C635 1.403 . S
H633 C639 0.930 . S
C634 H620 0.930 . S
C634 C632 1.395 . S
C634 C637 1.403 . S
C635 C632 1.403 . S
C635 C636 1.524 . S
C635 C639 1.400 . S
C636 H621 0.960 . S
C636 H622 0.960 . S
C636 H623 0.960 . S
C636 C635 1.524 . S
C637 C634 1.403 . S
C637 C638 1.392 . S
C637 C641 1.495 . S
C638 C637 1.392 . S
C638 C639 1.385 . S
C638 C640 1.478 . S
C639 H633 0.930 . S
C639 C635 1.400 . S
C639 C638 1.385 . S
C640 C638 1.478 . S
C640 C642 1.381 . S
C640 C646 1.383 . S
C641 C637 1.495 . S
C641 H647 0.959 . S
C641 H648 0.961 . S
C641 H649 0.960 . S
C642 C640 1.381 . S
C642 C643 1.394 . S
C642 H650 0.930 . S
C643 C642 1.394 . S
C643 C644 1.383 . S
C643 H651 0.929 . S
C644 C643 1.383 . S
C644 C645 1.377 . S
C645 H629 0.930 . S
C645 C644 1.377 . S
C645 C646 1.379 . S
C646 H630 0.931 . S
C646 C640 1.383 . S
C646 C645 1.379 . S
H647 C641 0.959 . S
H648 C641 0.961 . S
H649 C641 0.960 . S
H650 C642 0.930 . S
H651 C643 0.929 . S
H652 C660 0.929 . S
H653 C662 0.930 . S
H654 C664 0.930 . S
H655 C667 0.929 . S
H656 C670 0.930 . S
H657 C672 0.960 . S
H658 C672 0.960 . S
H659 C672 0.960 . S
C660 H652 0.929 . S
C660 C661 1.377 . S
C660 C662 1.384 . S
C661 C660 1.377 . S
C661 C667 1.390 . S
C662 H653 0.930 . S
C662 C660 1.384 . S
C662 C663 1.372 . S
C663 C662 1.372 . S
C663 C664 1.400 . S
C663 C668 1.490 . S
C664 H654 0.930 . S
C664 C663 1.400 . S
C664 C667 1.386 . S
H665 C681 0.930 . S
H666 C682 0.931 . S
C667 H655 0.929 . S
C667 C661 1.390 . S
C667 C664 1.386 . S
C668 C663 1.490 . S
C668 C670 1.395 . S
C668 C671 1.403 . S
H669 C675 0.930 . S
C670 H656 0.930 . S
C670 C668 1.395 . S
C670 C673 1.403 . S
C671 C668 1.403 . S
C671 C672 1.524 . S
C671 C675 1.400 . S
C672 H657 0.960 . S
C672 H658 0.960 . S
C672 H659 0.960 . S
C672 C671 1.524 . S
C673 C670 1.403 . S
C673 C674 1.392 . S
C673 C677 1.495 . S
C674 C673 1.392 . S
C674 C675 1.385 . S
C674 C676 1.478 . S
C675 H669 0.930 . S
C675 C671 1.400 . S
C675 C674 1.385 . S
C676 C674 1.478 . S
C676 C678 1.381 . S
C676 C682 1.383 . S
C677 C673 1.495 . S
C677 H683 0.959 . S
C677 H684 0.961 . S
C677 H685 0.960 . S
C678 C676 1.381 . S
C678 C679 1.394 . S
C678 H686 0.930 . S
C679 C678 1.394 . S
C679 C680 1.383 . S
C679 H687 0.929 . S
C680 C679 1.383 . S
C680 C681 1.377 . S
C681 H665 0.930 . S
C681 C680 1.377 . S
C681 C682 1.379 . S
C682 H666 0.931 . S
C682 C676 1.383 . S
C682 C681 1.379 . S
H683 C677 0.959 . S
H684 C677 0.961 . S
H685 C677 0.960 . S
H686 C678 0.930 . S
H687 C679 0.929 . S
C121 C5 1.518 . S
C140 C47 1.509 . S
C157 C0 1.486 . S
C176 C14 1.499 . S
C193 C19 1.517 . S
C212 C33 1.524 . S
C229 C42 1.484 . S
C248 C28 1.461 . S
C265 C61 1.521 . S
C284 C103 1.516 . S
C301 C70 1.485 . S
C320 C56 1.461 . S
C337 C89 1.520 . S
C356 C75 1.524 . S
C373 C98 1.485 . S
C392 C84 1.501 . S
C409 C95 1.470 . S
C428 C9 1.483 . S
C445 C25 1.473 . S
C464 C107 1.479 . S
C481 C67 1.469 . S
C500 C37 1.482 . S
C517 C79 1.482 . S
C536 C53 1.463 . S
C553 C81 1.472 . S
C572 C51 1.484 . S
C589 C11 1.467 . S
C608 C93 1.475 . S
C625 C23 1.480 . S
C644 C109 1.474 . S
C661 C39 1.473 . S
C680 C65 1.480 . S
