# Generated by pormake.
# Topology bcu-h, (3)-cn, num edge types: 1
# Building blocks:
#     Node 0, Type 0, BuildingBlock: OLANEW_clean_sbu_2, # of connection points: 3
#     Node 1, Type 0, BuildingBlock: OLANEW_clean_sbu_2, # of connection points: 3
#     Node 2, Type 0, BuildingBlock: OLANEW_clean_sbu_2, # of connection points: 3
#     Node 3, Type 0, BuildingBlock: OLANEW_clean_sbu_2, # of connection points: 3
#     Node 4, Type 0, BuildingBlock: OLANEW_clean_sbu_2, # of connection points: 3
#     Node 5, Type 0, BuildingBlock: OLANEW_clean_sbu_2, # of connection points: 3
#     Node 6, Type 0, BuildingBlock: OLANEW_clean_sbu_2, # of connection points: 3
#     Node 7, Type 0, BuildingBlock: OLANEW_clean_sbu_2, # of connection points: 3
#     Node 8, Type 0, BuildingBlock: OLANEW_clean_sbu_2, # of connection points: 3
#     Node 9, Type 0, BuildingBlock: OLANEW_clean_sbu_2, # of connection points: 3
#     Node 10, Type 0, BuildingBlock: OLANEW_clean_sbu_2, # of connection points: 3
#     Node 11, Type 0, BuildingBlock: OLANEW_clean_sbu_2, # of connection points: 3
#     Node 12, Type 0, BuildingBlock: OLANEW_clean_sbu_2, # of connection points: 3
#     Node 13, Type 0, BuildingBlock: OLANEW_clean_sbu_2, # of connection points: 3
#     Node 14, Type 0, BuildingBlock: OLANEW_clean_sbu_2, # of connection points: 3
#     Node 15, Type 0, BuildingBlock: OLANEW_clean_sbu_2, # of connection points: 3
#     Edge 16, Type (0, 0), BuildingBlock: ZUJKAS_clean_linker_0, # of connection points: 2
#     Edge 17, Type (0, 0), BuildingBlock: ZUJKAS_clean_linker_0, # of connection points: 2
#     Edge 18, Type (0, 0), BuildingBlock: ZUJKAS_clean_linker_0, # of connection points: 2
#     Edge 19, Type (0, 0), BuildingBlock: ZUJKAS_clean_linker_0, # of connection points: 2
#     Edge 20, Type (0, 0), BuildingBlock: ZUJKAS_clean_linker_0, # of connection points: 2
#     Edge 21, Type (0, 0), BuildingBlock: ZUJKAS_clean_linker_0, # of connection points: 2
#     Edge 22, Type (0, 0), BuildingBlock: ZUJKAS_clean_linker_0, # of connection points: 2
#     Edge 23, Type (0, 0), BuildingBlock: ZUJKAS_clean_linker_0, # of connection points: 2
#     Edge 24, Type (0, 0), BuildingBlock: ZUJKAS_clean_linker_0, # of connection points: 2
#     Edge 25, Type (0, 0), BuildingBlock: ZUJKAS_clean_linker_0, # of connection points: 2
#     Edge 26, Type (0, 0), BuildingBlock: ZUJKAS_clean_linker_0, # of connection points: 2
#     Edge 27, Type (0, 0), BuildingBlock: ZUJKAS_clean_linker_0, # of connection points: 2
#     Edge 28, Type (0, 0), BuildingBlock: ZUJKAS_clean_linker_0, # of connection points: 2
#     Edge 29, Type (0, 0), BuildingBlock: ZUJKAS_clean_linker_0, # of connection points: 2
#     Edge 30, Type (0, 0), BuildingBlock: ZUJKAS_clean_linker_0, # of connection points: 2
#     Edge 31, Type (0, 0), BuildingBlock: ZUJKAS_clean_linker_0, # of connection points: 2
#     Edge 32, Type (0, 0), BuildingBlock: ZUJKAS_clean_linker_0, # of connection points: 2
#     Edge 33, Type (0, 0), BuildingBlock: ZUJKAS_clean_linker_0, # of connection points: 2
#     Edge 34, Type (0, 0), BuildingBlock: ZUJKAS_clean_linker_0, # of connection points: 2
#     Edge 35, Type (0, 0), BuildingBlock: ZUJKAS_clean_linker_0, # of connection points: 2
#     Edge 36, Type (0, 0), BuildingBlock: ZUJKAS_clean_linker_0, # of connection points: 2
#     Edge 37, Type (0, 0), BuildingBlock: ZUJKAS_clean_linker_0, # of connection points: 2
#     Edge 38, Type (0, 0), BuildingBlock: ZUJKAS_clean_linker_0, # of connection points: 2
#     Edge 39, Type (0, 0), BuildingBlock: ZUJKAS_clean_linker_0, # of connection points: 2
# Relax obj value: 0.003
# Max RMSD: 0.066
# Mean RMSD: 0.066
data_MOF--net-bcu-h--node1-OLANEW_clean_sbu_2--edge1-ZUJKAS_clean_linker_0
_symmetry_space_group_name_H-M    P1
_symmetry_Int_Tables_number       1
_symmetry_cell_setting            triclinic
loop_
_symmetry_equiv_pos_as_xyz
'x, y, z'
_cell_length_a     75.405751
_cell_length_b     75.543012
_cell_length_c     60.759754
_cell_angle_alpha  90.007347
_cell_angle_beta   90.338946
_cell_angle_gamma 90.00269
loop_
_atom_site_label
_atom_site_type_symbol
_atom_site_fract_x
_atom_site_fract_y
_atom_site_fract_z
_atom_type_partial_charge
O0 O 0.58955 0.02021 0.12713 0.0
Cd1 Cd 0.59982 0.01202 0.09043 0.0
O2 O 0.60248 0.0463 0.12631 0.0
Cd3 Cd 0.61764 0.04097 0.09651 0.0
O4 O 0.64294 0.03864 0.07938 0.0
C5 C 0.65246 0.05248 0.07801 0.0
O6 O 0.6461 0.0675 0.0855 0.0
C7 C 0.59258 0.03516 0.136 0.0
C8 C 0.57094 0.00452 0.06303 0.0
O9 O 0.57844 -0.00769 0.07439 0.0
O10 O 0.57723 0.02025 0.06445 0.0
O11 O 0.44955 0.58298 0.62361 0.0
Cd12 Cd 0.45719 0.59267 0.58647 0.0
O13 O 0.42298 0.59495 0.62216 0.0
Cd14 Cd 0.42762 0.60919 0.59145 0.0
O15 O 0.42984 0.63416 0.57357 0.0
C16 C 0.44492 0.64107 0.57006 0.0
O17 O 0.45926 0.63229 0.5758 0.0
C18 C 0.43453 0.58577 0.63236 0.0
C19 C 0.46727 0.56391 0.56057 0.0
O20 O 0.47875 0.57267 0.57177 0.0
O21 O 0.45103 0.56885 0.56149 0.0
O22 O 0.88472 0.45949 0.11993 0.0
Cd23 Cd 0.87338 0.46691 0.08335 0.0
O24 O 0.88494 0.43087 0.11324 0.0
Cd25 Cd 0.86845 0.43385 0.08381 0.0
O26 O 0.84255 0.43547 0.06761 0.0
C27 C 0.83188 0.44707 0.0749 0.0
O28 O 0.83733 0.45778 0.09057 0.0
C29 C 0.88865 0.44382 0.12585 0.0
C30 C 0.90159 0.47593 0.05614 0.0
O31 O 0.89336 0.48775 0.06724 0.0
O32 O 0.89628 0.45986 0.05764 0.0
O33 O 0.03256 0.87442 0.64364 0.0
Cd34 Cd 0.02563 0.86085 0.60806 0.0
O35 O 0.05981 0.86403 0.64438 0.0
Cd36 Cd 0.05584 0.84771 0.61509 0.0
O37 O 0.05064 0.82408 0.59537 0.0
C38 C 0.06288 0.81262 0.59349 0.0
O39 O 0.07846 0.81592 0.60238 0.0
C40 C 0.04763 0.87331 0.65306 0.0
C41 C 0.01221 0.88598 0.57878 0.0
O42 O 0.02893 0.88314 0.58033 0.0
O43 O 0.00184 0.87682 0.59095 0.0
O44 O 0.07573 0.9441 0.88339 0.0
Cd45 Cd 0.08426 0.95296 0.92071 0.0
O46 O 0.09927 0.92713 0.87988 0.0
Cd47 Cd 0.11208 0.93386 0.9111 0.0
O48 O 0.13683 0.93749 0.9294 0.0
C49 C 0.14598 0.95121 0.92527 0.0
O50 O 0.13945 0.96312 0.91171 0.0
C51 C 0.08487 0.93331 0.87206 0.0
C52 C 0.05607 0.96797 0.94373 0.0
O53 O 0.06663 0.9776 0.93242 0.0
O54 O 0.05882 0.95123 0.94411 0.0
O55 O 0.52846 0.08408 0.36293 0.0
Cd56 Cd 0.52045 0.09513 0.39934 0.0
O57 O 0.55661 0.09113 0.36685 0.0
Cd58 Cd 0.55228 0.10635 0.39691 0.0
O59 O 0.55 0.13103 0.41545 0.0
C60 C 0.53602 0.14024 0.41302 0.0
O61 O 0.52309 0.13399 0.40069 0.0
C62 C 0.54423 0.08403 0.3556 0.0
C63 C 0.51058 0.06728 0.4268 0.0
O64 O 0.49906 0.07547 0.41503 0.0
O65 O 0.52677 0.07237 0.42572 0.0
O66 O 0.39924 0.52998 0.86715 0.0
Cd67 Cd 0.39019 0.52211 0.90445 0.0
O68 O 0.37495 0.54533 0.86074 0.0
Cd69 Cd 0.36166 0.53937 0.89171 0.0
O70 O 0.33726 0.53567 0.91036 0.0
C71 C 0.32702 0.54894 0.91222 0.0
O72 O 0.33221 0.56428 0.90435 0.0
C73 C 0.38995 0.53964 0.85441 0.0
C74 C 0.41938 0.51259 0.93029 0.0
O75 O 0.41082 0.50099 0.91908 0.0
O76 O 0.41407 0.5287 0.92935 0.0
O77 O 0.96171 0.39017 0.34625 0.0
Cd78 Cd 0.9709 0.37724 0.38141 0.0
O79 O 0.93432 0.39452 0.35722 0.0
Cd80 Cd 0.93783 0.37646 0.38489 0.0
O81 O 0.93818 0.34882 0.39535 0.0
C82 C 0.92353 0.34051 0.39551 0.0
O83 O 0.90885 0.34922 0.39112 0.0
C84 C 0.94633 0.39654 0.34283 0.0
C85 C 0.98003 0.40413 0.41089 0.0
O86 O -0.00828 0.39695 0.39854 0.0
O87 O 0.96405 0.39841 0.40952 0.0
O88 O 0.39627 0.95365 0.86765 0.0
Cd89 Cd 0.38648 0.96105 0.90482 0.0
O90 O 0.37826 0.93086 0.86467 0.0
Cd91 Cd 0.36433 0.93571 0.89551 0.0
O92 O 0.3407 0.93821 0.91591 0.0
C93 C 0.33163 0.95235 0.91462 0.0
O94 O 0.33747 0.96536 0.90227 0.0
C95 C 0.39045 0.94051 0.8567 0.0
C96 C 0.41559 0.96835 0.93191 0.0
O97 O 0.40942 0.95259 0.93021 0.0
O98 O 0.40788 0.98067 0.92096 0.0
O99 O 0.53618 0.39334 0.36895 0.0
Cd100 Cd 0.53002 0.38394 0.40664 0.0
O101 O 0.5233 0.37 0.35425 0.0
Cd102 Cd 0.51863 0.35615 0.38523 0.0
O103 O 0.51728 0.33185 0.40463 0.0
C104 C 0.53108 0.32588 0.41418 0.0
O105 O 0.54575 0.33526 0.4136 0.0
C106 C 0.53121 0.38475 0.35201 0.0
C107 C 0.51945 0.41268 0.43228 0.0
O108 O 0.53583 0.40831 0.4309 0.0
O109 O 0.50805 0.40337 0.42166 0.0
O110 O 0.07277 0.53558 0.86531 0.0
Cd111 Cd 0.08369 0.53169 0.90293 0.0
O112 O 0.09537 0.52171 0.85043 0.0
Cd113 Cd 0.1103 0.51891 0.88114 0.0
O114 O 0.13431 0.51908 0.90142 0.0
C115 C 0.14168 0.53385 0.90554 0.0
O116 O 0.13391 0.54845 0.89876 0.0
C117 C 0.08054 0.52957 0.84837 0.0
C118 C 0.05564 0.52217 0.9302 0.0
O119 O 0.05983 0.53846 0.92739 0.0
O120 O 0.0649 0.51038 0.92036 0.0
O121 O 0.92837 0.05723 0.38819 0.0
Cd122 Cd 0.93051 0.05985 0.42819 0.0
O123 O 0.93067 0.08602 0.38782 0.0
Cd124 Cd 0.93063 0.11333 0.37586 0.0
O125 O 0.93169 0.14221 0.375 0.0
C126 C 0.91767 0.15115 0.37828 0.0
O127 O 0.90261 0.14276 0.38121 0.0
C128 C 0.92895 0.07156 0.37727 0.0
C129 C 0.94364 0.02957 0.44879 0.0
O130 O 0.92695 0.03166 0.4456 0.0
O131 O 0.95412 0.04172 0.44199 0.0
O132 O 0.89865 0.06602 0.13169 0.0
Cd133 Cd 0.88883 0.06354 0.09335 0.0
O134 O 0.8858 0.04101 0.14103 0.0
Cd135 Cd 0.87163 0.03785 0.10981 0.0
O136 O 0.84753 0.03632 0.08978 0.0
C137 C 0.83892 0.05048 0.08609 0.0
O138 O 0.84553 0.06558 0.09307 0.0
C139 C 0.89541 0.05425 0.14608 0.0
C140 C 0.91489 0.04781 0.06741 0.0
O141 O 0.91418 0.06465 0.06977 0.0
O142 O 0.90321 0.0384 0.07724 0.0
O143 O 0.44412 0.89978 0.62329 0.0
Cd144 Cd 0.45029 0.88953 0.58596 0.0
O145 O 0.44983 0.87385 0.63822 0.0
Cd146 Cd 0.45469 0.85969 0.60749 0.0
O147 O 0.45738 0.83577 0.58756 0.0
C148 C 0.4435 0.82685 0.58321 0.0
O149 O 0.42805 0.833 0.58955 0.0
C150 C 0.44547 0.89002 0.64027 0.0
C151 C 0.4604 0.91772 0.55914 0.0
O152 O 0.44409 0.91318 0.56078 0.0
O153 O 0.47195 0.90883 0.57007 0.0
O154 O 0.58699 0.4464 0.12649 0.0
Cd155 Cd 0.59856 0.45476 0.09045 0.0
O156 O 0.5968 0.41904 0.12427 0.0
Cd157 Cd 0.61218 0.42391 0.09454 0.0
O158 O 0.63663 0.42729 0.07591 0.0
C159 C 0.64568 0.44123 0.07926 0.0
O160 O 0.63936 0.45339 0.09255 0.0
C161 C 0.58823 0.43091 0.13456 0.0
C162 C 0.57087 0.46448 0.0623 0.0
O163 O 0.57619 0.44838 0.06341 0.0
O164 O 0.57879 0.476 0.07433 0.0
O165 O 0.03769 0.57009 0.61384 0.0
Cd166 Cd 0.03445 0.5807 0.57603 0.0
O167 O 0.0135 0.58345 0.62519 0.0
Cd168 Cd 0.01074 0.59888 0.59499 0.0
O169 O 0.0137 0.62396 0.57756 0.0
C170 C 0.02929 0.63015 0.57564 0.0
O171 O 0.04275 0.6206 0.58266 0.0
C172 C 0.02655 0.57321 0.629 0.0
C173 C 0.02529 0.55278 0.54814 0.0
O174 O 0.04156 0.55694 0.55149 0.0
O175 O 0.01334 0.56195 0.55782 0.0
H176 H 0.43494 0.94504 0.95677 0.0
H177 H 0.46117 0.95135 0.97935 0.0
H178 H 0.45826 0.00639 0.96087 0.0
H179 H 0.43192 0.00026 0.93846 0.0
H180 H 0.49364 0.96561 0.96573 0.0
H181 H 0.46158 0.00849 0.02816 0.0
H182 H 0.44905 -0.00552 0.00969 0.0
H183 H 0.45776 0.01525 0.00019 0.0
C184 C 0.43981 0.95851 0.95761 0.0
C185 C 0.43129 0.97217 0.94589 0.0
C186 C 0.45481 0.96208 0.9705 0.0
C187 C 0.4615 0.97937 0.97202 0.0
C188 C 0.45309 -0.00698 0.96027 0.0
H189 H 0.55176 0.02769 0.03776 0.0
H190 H 0.52558 0.02128 0.01514 0.0
C191 C 0.43809 -0.01053 0.94738 0.0
C192 C 0.4776 0.98303 0.98537 0.0
H193 H 0.49302 0.00704 0.02909 0.0
C194 C 0.49351 0.9746 0.97966 0.0
C195 C 0.47737 -0.00521 0.00349 0.0
C196 C 0.4605 0.00367 0.01092 0.0
C197 C 0.50929 0.97785 0.99136 0.0
C198 C 0.50906 -0.01038 0.00945 0.0
C199 C 0.49315 -0.00195 0.01517 0.0
C200 C 0.52516 -0.00668 0.02278 0.0
C201 C 0.52615 0.96895 0.98396 0.0
C202 C 0.53351 0.97973 0.03468 0.0
C203 C 0.54848 0.98333 0.04761 0.0
C204 C 0.55531 0.00063 0.04895 0.0
C205 C 0.54687 0.01422 0.03704 0.0
C206 C 0.5319 0.0106 0.02413 0.0
H207 H 0.52506 0.96401 0.96678 0.0
H208 H 0.53759 0.97817 0.98508 0.0
H209 H 0.52893 0.95745 0.99481 0.0
H210 H 0.52832 0.96637 0.0342 0.0
H211 H 0.5546 0.97258 0.05668 0.0
H212 H 0.44596 0.54233 0.53574 0.0
H213 H 0.45477 0.51642 0.51423 0.0
H214 H 0.50932 0.52474 0.53323 0.0
H215 H 0.50064 0.55052 0.555 0.0
H216 H 0.47854 0.51431 0.47911 0.0
H217 H 0.5009 0.47281 0.54938 0.0
H218 H 0.48764 0.49248 0.55297 0.0
H219 H 0.51109 0.49427 0.54827 0.0
C220 C 0.45983 0.53863 0.53539 0.0
C221 C 0.47259 0.54843 0.54719 0.0
C222 C 0.46483 0.52383 0.52308 0.0
C223 C 0.48265 0.5185 0.52243 0.0
C224 C 0.49545 0.52841 0.5339 0.0
H225 H 0.54045 0.43483 0.45671 0.0
H226 H 0.53124 0.46062 0.47816 0.0
C227 C 0.49047 0.5432 0.54622 0.0
C228 C 0.48788 0.50277 0.50942 0.0
H229 H 0.50725 0.46203 0.51357 0.0
C230 C 0.48473 0.50283 0.48664 0.0
C231 C 0.49596 0.48783 0.51932 0.0
C232 C 0.49897 0.4867 0.54385 0.0
C233 C 0.48978 0.48849 0.47338 0.0
C234 C 0.49792 0.47359 0.48326 0.0
C235 C 0.50103 0.4735 0.50606 0.0
C236 C 0.50337 0.45795 0.47023 0.0
C237 C 0.48672 0.48957 0.44885 0.0
C238 C 0.4907 0.44777 0.45891 0.0
C239 C 0.49591 0.43302 0.44664 0.0
C240 C 0.51388 0.42814 0.44556 0.0
C241 C 0.52651 0.43825 0.45715 0.0
C242 C 0.52128 0.45299 0.46943 0.0
H243 H 0.48446 0.50341 0.44332 0.0
H244 H 0.49818 0.48405 0.43974 0.0
H245 H 0.4748 0.4817 0.44443 0.0
H246 H 0.47677 0.45117 0.45967 0.0
H247 H 0.48584 0.42547 0.43799 0.0
H248 H 0.03366 0.54409 0.95325 0.0
H249 H 0.00775 0.53582 0.975 0.0
H250 H 0.01669 0.48084 0.95955 0.0
H251 H 0.04275 0.48894 0.93802 0.0
H252 H 0.9774 0.51823 0.96044 0.0
H253 H 0.01142 0.48016 0.02646 0.0
H254 H 0.02316 0.49469 0.00801 0.0
H255 H 0.01658 0.47297 -0.00093 0.0
C256 C 0.03021 0.53022 0.95462 0.0
C257 C 0.04031 0.51716 0.94397 0.0
C258 C 0.01539 0.52553 0.96703 0.0
C259 C 0.01044 0.50771 0.96912 0.0
C260 C 0.02049 0.49464 0.95852 0.0
H261 H 0.92272 0.45368 0.0323 0.0
H262 H 0.94876 0.4615 0.01048 0.0
C263 C 0.03533 0.49931 0.94612 0.0
C264 C -0.00561 0.50288 0.98171 0.0
H265 H 0.97998 0.47877 0.02565 0.0
C266 C 0.97796 0.50967 0.97476 0.0
C267 C -0.00483 0.49166 0.00034 0.0
C268 C 0.01254 0.48455 0.00908 0.0
C269 C 0.96223 0.50535 0.98577 0.0
C270 C 0.96302 0.49416 0.0044 0.0
C271 C 0.97944 0.48732 0.01132 0.0
C272 C 0.94699 0.48957 0.01713 0.0
C273 C 0.94486 0.51253 0.97714 0.0
C274 C 0.93746 0.50277 0.02819 0.0
C275 C 0.92258 0.49837 0.04066 0.0
C276 C 0.91702 0.48065 0.04237 0.0
C277 C 0.92661 0.46746 0.03125 0.0
C278 C 0.94151 0.47188 0.01882 0.0
H279 H 0.94597 0.51713 0.95983 0.0
H280 H 0.93426 0.50236 0.97804 0.0
H281 H 0.94078 0.52399 0.98737 0.0
H282 H 0.94167 0.51646 0.02741 0.0
H283 H 0.91555 0.50883 0.0491 0.0
H284 H 0.97744 0.89373 0.57016 0.0
H285 H 0.96573 0.91695 0.54609 0.0
H286 H 0.01903 0.93275 0.52982 0.0
H287 H 0.03087 0.90935 0.5535 0.0
H288 H 0.97088 0.95267 0.54986 0.0
H289 H -0.00401 0.92902 0.46942 0.0
H290 H -0.00428 0.91519 0.49364 0.0
H291 H 0.01297 0.93136 0.49004 0.0
C292 C 0.98668 0.90203 0.56131 0.0
C293 C 0.00509 0.89966 0.56369 0.0
C294 C 0.97996 0.9153 0.54757 0.0
C295 C -0.0085 0.9264 0.53591 0.0
C296 C 0.00988 0.92407 0.53825 0.0
H297 H 0.97828 0.02099 0.45706 0.0
H298 H -0.01042 -0.00438 0.47791 0.0
C299 C 0.01662 0.91075 0.55191 0.0
C300 C 0.98429 0.941 0.52223 0.0
H301 H 0.98398 0.95819 0.47023 0.0
C302 C 0.97363 0.95381 0.53241 0.0
C303 C 0.98795 0.94247 0.49948 0.0
C304 C -0.00136 0.9287 0.48742 0.0
C305 C 0.9668 0.96823 0.52057 0.0
C306 C 0.97055 0.96975 0.49788 0.0
C307 C 0.98117 0.95696 0.48765 0.0
C308 C 0.96366 0.98467 0.48456 0.0
C309 C 0.95595 0.98196 0.53251 0.0
C310 C 0.94537 0.98669 0.48109 0.0
C311 C 0.93886 0.00114 0.46918 0.0
C312 C 0.95056 0.01381 0.4605 0.0
C313 C 0.96892 0.01151 0.4636 0.0
C314 C 0.9754 -0.00298 0.47547 0.0
H315 H 0.95758 0.98097 0.55065 0.0
H316 H 0.95972 -0.00448 0.52724 0.0
H317 H 0.94171 0.98 0.5285 0.0
H318 H 0.93611 0.97712 0.4877 0.0
H319 H 0.92466 0.00248 0.467 0.0
H320 H 0.04783 0.00308 0.94777 0.0
H321 H 0.02355 0.01622 0.96872 0.0
H322 H 0.00617 0.96416 0.98815 0.0
H323 H 0.03058 0.95091 0.96757 0.0
H324 H 0.98727 0.01147 0.96411 0.0
H325 H 0.01007 -0.01009 0.04692 0.0
H326 H 0.02416 -0.01097 0.02303 0.0
H327 H 0.0077 0.97219 0.02743 0.0
C328 C 0.03888 -0.00558 0.95655 0.0
C329 C 0.04121 0.97595 0.95611 0.0
C330 C 0.025 0.00195 0.96849 0.0
C331 C 0.01323 -0.00881 0.98028 0.0
C332 C 0.01534 0.97274 0.97958 0.0
H333 H 0.92082 0.01246 0.06089 0.0
H334 H 0.94428 -0.00125 0.03904 0.0
C335 C 0.02924 0.96518 0.9677 0.0
C336 C -0.00141 -0.00072 0.99299 0.0
H337 H 0.9815 0.00298 0.04473 0.0
C338 C 0.98604 0.00968 0.98175 0.0
C339 C -0.00299 -0.0031 0.016 0.0
C340 C 0.01053 0.98654 0.02913 0.0
C341 C 0.9718 0.01756 0.99286 0.0
C342 C 0.97023 0.01517 0.01585 0.0
C343 C 0.98273 0.00474 0.02708 0.0
C344 C 0.95582 0.02356 0.02863 0.0
C345 C 0.95838 0.02814 0.97986 0.0
C346 C 0.95466 0.04206 0.03016 0.0
C347 C 0.9413 0.04994 0.04265 0.0
C348 C 0.92889 0.03946 0.05391 0.0
C349 C 0.93013 0.02092 0.05237 0.0
C350 C 0.94353 0.01305 0.03992 0.0
H351 H 0.95898 0.02511 0.96199 0.0
H352 H 0.94472 0.0255 0.98576 0.0
H353 H 0.96114 0.04246 0.98205 0.0
H354 H 0.96422 0.0504 0.02189 0.0
H355 H 0.94077 0.06425 0.04357 0.0
H356 H 0.43905 0.939 0.53399 0.0
H357 H 0.44789 0.96425 0.51135 0.0
H358 H 0.50246 0.9563 0.53054 0.0
H359 H 0.4938 0.9309 0.553 0.0
H360 H 0.46507 -0.00473 0.52478 0.0
H361 H 0.50512 0.95867 0.46333 0.0
H362 H 0.48996 0.94773 0.48176 0.0
H363 H 0.51144 0.95465 0.49143 0.0
C364 C 0.45295 0.94255 0.5333 0.0
C365 C 0.46574 0.93288 0.54522 0.0
C366 C 0.45797 0.95699 0.52038 0.0
C367 C 0.47585 0.96198 0.51903 0.0
C368 C 0.48863 0.95245 0.531 0.0
H369 H 0.53208 0.0467 0.45268 0.0
H370 H 0.52347 0.02154 0.47563 0.0
C371 C 0.48364 0.93799 0.54392 0.0
C372 C 0.48105 0.97748 0.50558 0.0
H373 H 0.50647 -0.00997 0.46194 0.0
C374 C 0.47406 -0.00587 0.51097 0.0
C375 C 0.49281 0.97594 0.48762 0.0
C376 C 0.50017 0.95827 0.48051 0.0
C377 C 0.47872 0.00936 0.49909 0.0
C378 C 0.49047 0.00781 0.48114 0.0
C379 C 0.49749 -0.00883 0.47576 0.0
C380 C 0.49554 0.02328 0.46757 0.0
C381 C 0.47132 0.02702 0.50611 0.0
C382 C 0.4827 0.03249 0.45531 0.0
C383 C 0.48756 0.04686 0.44219 0.0
C384 C 0.50539 0.05224 0.44101 0.0
C385 C 0.51823 0.04294 0.45327 0.0
C386 C 0.51335 0.02854 0.46637 0.0
H387 H 0.46625 0.02663 0.52324 0.0
H388 H 0.48154 0.03756 0.50495 0.0
H389 H 0.46012 0.03064 0.49507 0.0
H390 H 0.46893 0.02842 0.45569 0.0
H391 H 0.47736 0.05368 0.43286 0.0
H392 H 0.5509 0.44296 0.03573 0.0
H393 H 0.5256 0.45133 0.01256 0.0
H394 H 0.53128 0.50564 0.03329 0.0
H395 H 0.55668 0.49746 0.05633 0.0
H396 H 0.49375 0.46723 0.02624 0.0
H397 H 0.52917 0.50938 0.96588 0.0
H398 H 0.54057 0.49418 0.984 0.0
H399 H 0.53304 0.5152 0.99417 0.0
C400 C 0.54686 0.45672 0.03525 0.0
C401 C 0.55585 0.46956 0.04782 0.0
C402 C 0.53239 0.46146 0.02202 0.0
C403 C 0.52672 0.47913 0.02099 0.0
C404 C 0.53565 0.49198 0.03352 0.0
H405 H 0.44023 0.53414 0.95575 0.0
H406 H 0.46602 0.52574 0.97804 0.0
C407 C 0.55011 0.48726 0.04677 0.0
C408 C 0.51107 0.48401 0.00744 0.0
H409 H 0.49771 0.50976 0.96424 0.0
C410 C 0.49461 0.47645 0.0126 0.0
C411 C 0.51226 0.49609 0.98973 0.0
C412 C 0.52973 0.50409 0.98293 0.0
C413 C 0.47921 0.4809 0.00075 0.0
C414 C 0.48039 0.49298 0.98304 0.0
C415 C 0.49686 0.50052 0.97786 0.0
C416 C 0.46469 0.49794 0.96962 0.0
C417 C 0.46174 0.47294 0.00763 0.0
C418 C 0.45551 0.48512 0.95732 0.0
C419 C 0.44076 0.48986 0.9446 0.0
C420 C 0.43497 0.50756 0.94384 0.0
C421 C 0.4443 0.5204 0.95603 0.0
C422 C 0.45906 0.51563 0.96875 0.0
H423 H 0.46232 0.46766 0.02468 0.0
H424 H 0.4509 0.48287 0.00658 0.0
H425 H 0.45837 0.46182 -0.00357 0.0
H426 H 0.45985 0.47145 0.95742 0.0
H427 H 0.43394 0.47967 0.9353 0.0
H428 H 0.04749 0.53163 0.52432 0.0
H429 H 0.03946 0.50645 0.50098 0.0
H430 H 0.9843 0.51426 0.51656 0.0
H431 H -0.00785 0.53963 0.53963 0.0
H432 H 0.02236 0.47545 0.51269 0.0
H433 H 0.98341 0.51196 0.44957 0.0
H434 H -0.00223 0.52299 0.46909 0.0
H435 H 0.9761 0.51563 0.47726 0.0
C436 C 0.03363 0.52807 0.52267 0.0
C437 C 0.02045 0.5377 0.53374 0.0
C438 C 0.02908 0.51366 0.50935 0.0
C439 C 0.01127 0.50865 0.50678 0.0
C440 C -0.00192 0.51814 0.51793 0.0
H441 H 0.95783 0.42342 0.43705 0.0
H442 H 0.96558 0.44833 0.46102 0.0
C443 C 0.00261 0.53259 0.53121 0.0
C444 C 0.00656 0.49317 0.49292 0.0
H445 H 0.98229 0.48057 0.44794 0.0
C446 C 0.01367 0.47657 0.49847 0.0
C447 C -0.00481 0.49468 0.4744 0.0
C448 C 0.98779 0.51229 0.46706 0.0
C449 C 0.0095 0.46138 0.48618 0.0
C450 C -0.00188 0.4629 0.4677 0.0
C451 C -0.00902 0.47947 0.46217 0.0
C452 C -0.0064 0.44747 0.45371 0.0
C453 C 0.01705 0.44377 0.49327 0.0
C454 C 0.0068 0.43882 0.44158 0.0
C455 C 0.00242 0.42461 0.42785 0.0
C456 C 0.98475 0.41882 0.42595 0.0
C457 C 0.97157 0.42751 0.43819 0.0
C458 C 0.97596 0.44175 0.45186 0.0
H459 H 0.02196 0.44412 0.51054 0.0
H460 H 0.00696 0.43313 0.49172 0.0
H461 H 0.02837 0.44032 0.4825 0.0
H462 H 0.02045 0.44323 0.4425 0.0
H463 H 0.01288 0.41827 0.41858 0.0
H464 H 0.59619 0.06595 0.15923 0.0
H465 H 0.5859 0.07221 0.19646 0.0
H466 H 0.56214 0.02038 0.19991 0.0
H467 H 0.57253 0.01387 0.16266 0.0
H468 H 0.55117 0.07192 0.21395 0.0
H469 H 0.59523 0.02243 0.25437 0.0
H470 H 0.5984 0.02967 0.22635 0.0
H471 H 0.5812 0.01408 0.23271 0.0
C472 C 0.58872 0.05587 0.16783 0.0
C473 C 0.5853 0.03935 0.158 0.0
C474 C 0.58283 0.0595 0.1891 0.0
C475 C 0.57349 0.04667 0.20102 0.0
C476 C 0.5696 0.03034 0.1911 0.0
H477 H 0.52075 0.0696 0.326 0.0
H478 H 0.52695 0.05929 0.28863 0.0
C479 C 0.57547 0.0267 0.16977 0.0
C480 C 0.56811 0.05041 0.22395 0.0
H481 H 0.57579 0.03836 0.27734 0.0
C482 C 0.55644 0.06452 0.22783 0.0
C483 C 0.57519 0.04084 0.24198 0.0
C484 C 0.58832 0.02599 0.23878 0.0
C485 C 0.55175 0.06942 0.24931 0.0
C486 C 0.55876 0.05979 0.26733 0.0
C487 C 0.57033 0.0456 0.26345 0.0
C488 C 0.55505 0.06492 0.29037 0.0
C489 C 0.5398 0.08522 0.25258 0.0
C490 C 0.5689 0.07095 0.30393 0.0
C491 C 0.56544 0.07678 0.3253 0.0
C492 C 0.54805 0.0766 0.33355 0.0
C493 C 0.53428 0.07 0.32014 0.0
C494 C 0.53777 0.06419 0.29873 0.0
H495 H 0.53855 0.09333 0.23739 0.0
H496 H 0.52637 0.08058 0.25718 0.0
H497 H 0.54488 0.09378 0.26608 0.0
H498 H 0.58235 0.07154 0.29778 0.0
H499 H 0.57637 0.08171 0.33518 0.0
H500 H 0.37277 0.55907 0.82297 0.0
H501 H 0.38254 0.56556 0.78564 0.0
H502 H 0.43113 0.53692 0.79756 0.0
H503 H 0.42134 0.53009 0.835 0.0
H504 H 0.4127 0.58367 0.77212 0.0
H505 H 0.41229 0.51456 0.74051 0.0
H506 H 0.40165 0.52075 0.7659 0.0
H507 H 0.42531 0.51821 0.76495 0.0
C508 C 0.38554 0.55411 0.81772 0.0
C509 C 0.39624 0.54398 0.83198 0.0
C510 C 0.3911 0.55784 0.79635 0.0
C511 C 0.40743 0.55151 0.78874 0.0
C512 C 0.41831 0.54163 0.80298 0.0
H513 H 0.45624 0.56634 0.65956 0.0
H514 H 0.4506 0.55763 0.69774 0.0
C515 C 0.41274 0.53785 0.82441 0.0
C516 C 0.41303 0.5556 0.76597 0.0
H517 H 0.42191 0.53684 0.71605 0.0
C518 C 0.41476 0.57343 0.75988 0.0
C519 C 0.41578 0.5422 0.75007 0.0
C520 C 0.41354 0.52285 0.75554 0.0
C521 C 0.41901 0.57825 0.73826 0.0
C522 C 0.42134 0.56488 0.72224 0.0
C523 C 0.42007 0.54703 0.72841 0.0
C524 C 0.42443 0.56928 0.69885 0.0
C525 C 0.421 0.59762 0.73272 0.0
C526 C 0.41137 0.57829 0.68672 0.0
C527 C 0.4145 0.58324 0.66495 0.0
C528 C 0.43076 0.57924 0.65485 0.0
C529 C 0.4436 0.56969 0.66686 0.0
C530 C 0.44042 0.5647 0.68866 0.0
H531 H 0.42334 0.60577 0.74768 0.0
H532 H 0.43214 0.59974 0.72114 0.0
H533 H 0.40864 0.60239 0.72469 0.0
H534 H 0.39881 0.58165 0.69419 0.0
H535 H 0.40427 0.59048 0.65619 0.0
H536 H 0.96681 0.39801 0.30586 0.0
H537 H 0.95819 0.40889 0.26951 0.0
H538 H 0.90752 0.42525 0.29508 0.0
H539 H 0.91586 0.414 0.3314 0.0
H540 H 0.90392 0.4054 0.25875 0.0
H541 H 0.95363 0.45788 0.24345 0.0
H542 H 0.96354 0.43708 0.2507 0.0
H543 H 0.95003 0.44856 0.27042 0.0
C544 C 0.95394 0.40419 0.30386 0.0
C545 C 0.942 0.40508 0.32153 0.0
C546 C 0.94908 0.41051 0.28307 0.0
C547 C 0.93229 0.41807 0.27962 0.0
C548 C 0.92057 0.4195 0.29739 0.0
H549 H 0.89465 0.46782 0.15882 0.0
H550 H 0.90557 0.46188 0.19608 0.0
C551 C 0.92536 0.41307 0.31815 0.0
C552 C 0.92634 0.42301 0.25715 0.0
H553 H 0.93702 0.44784 0.21215 0.0
C554 C 0.91108 0.41479 0.24863 0.0
C555 C 0.93561 0.43537 0.24403 0.0
C556 C 0.95151 0.44537 0.25268 0.0
C557 C 0.90501 0.41832 0.22723 0.0
C558 C 0.91472 0.43008 0.21377 0.0
C559 C 0.92975 0.43863 0.22241 0.0
C560 C 0.90926 0.4338 0.19077 0.0
C561 C 0.88812 0.40958 0.21937 0.0
C562 C 0.90818 0.42007 0.17527 0.0
C563 C 0.90185 0.42338 0.15402 0.0
C564 C 0.89666 0.44055 0.14779 0.0
C565 C 0.89847 0.45443 0.1631 0.0
C566 C 0.90472 0.45107 0.1844 0.0
H567 H 0.87986 0.40502 0.23335 0.0
H568 H 0.88011 0.41877 0.20908 0.0
H569 H 0.89149 0.39784 0.20926 0.0
H570 H 0.91202 0.40671 0.17972 0.0
H571 H 0.9008 0.41242 0.14258 0.0
H572 H 0.02487 0.89461 0.67609 0.0
H573 H 0.02973 0.9079 0.71239 0.0
H574 H 0.08202 0.88486 0.71511 0.0
H575 H 0.07745 0.87181 0.6788 0.0
H576 H 0.03633 0.89066 0.75136 0.0
H577 H 0.09194 0.93581 0.73215 0.0
H578 H 0.07839 0.92572 0.71101 0.0
H579 H 0.09622 0.91348 0.72366 0.0
C580 C 0.03749 0.89253 0.6843 0.0
C581 C 0.0508 0.88218 0.67449 0.0
C582 C 0.04023 0.90013 0.70505 0.0
C583 C 0.05633 0.89759 0.7163 0.0
C584 C 0.06965 0.88735 0.70651 0.0
H585 H 0.10226 0.91178 0.84331 0.0
H586 H 0.09377 0.90426 0.80567 0.0
C587 C 0.06696 0.8798 0.68577 0.0
C588 C 0.05893 0.90478 0.7388 0.0
H589 H 0.08737 0.9293 0.77034 0.0
C590 C 0.04732 0.89933 0.75548 0.0
C591 C 0.07325 0.91613 0.74411 0.0
C592 C 0.08555 0.92328 0.72674 0.0
C593 C 0.05016 0.90426 0.77751 0.0
C594 C 0.06488 0.91504 0.78289 0.0
C595 C 0.07615 0.92095 0.76613 0.0
C596 C 0.06948 0.91947 0.80595 0.0
C597 C 0.03786 0.89733 0.79501 0.0
C598 C 0.05859 0.93054 0.81859 0.0
C599 C 0.06341 0.93491 0.84021 0.0
C600 C 0.07922 0.92829 0.8495 0.0
C601 C 0.08999 0.91711 0.83674 0.0
C602 C 0.08519 0.91281 0.81519 0.0
H603 H 0.02887 0.88685 0.7886 0.0
H604 H 0.04557 0.89189 0.80909 0.0
H605 H 0.0296 0.90837 0.80129 0.0
H606 H 0.04651 0.93597 0.81163 0.0
H607 H 0.05486 0.9436 0.84954 0.0
H608 H 0.41645 0.95826 0.83427 0.0
H609 H 0.42704 0.95239 0.79693 0.0
H610 H 0.39101 0.90826 0.79156 0.0
H611 H 0.38023 0.91406 0.82866 0.0
H612 H 0.44254 0.92144 0.77963 0.0
H613 H 0.37967 0.93804 0.7366 0.0
H614 H 0.38405 0.94431 0.7648 0.0
H615 H 0.377 0.92216 0.75832 0.0
C616 C 0.41077 0.94731 0.82515 0.0
C617 C 0.39741 0.9367 0.83443 0.0
C618 C 0.41684 0.94398 0.80383 0.0
C619 C 0.40958 0.93009 0.79138 0.0
C620 C 0.39651 0.91928 0.80073 0.0
H621 H 0.44728 0.8727 0.67969 0.0
H622 H 0.43979 0.88412 0.71601 0.0
C623 C 0.39046 0.92257 0.82201 0.0
C624 C 0.41582 0.92661 0.76872 0.0
H625 H 0.40139 0.92255 0.7156 0.0
C626 C 0.43361 0.92185 0.76558 0.0
C627 C 0.4042 0.92744 0.75038 0.0
C628 C 0.3852 0.93343 0.75259 0.0
C629 C 0.43991 0.91717 0.74467 0.0
C630 C 0.42804 0.91703 0.72656 0.0
C631 C 0.41043 0.9225 0.72956 0.0
C632 C 0.43336 0.91049 0.70457 0.0
C633 C 0.45922 0.91237 0.74219 0.0
C634 C 0.4319 0.92143 0.68598 0.0
C635 C 0.43607 0.91491 0.66509 0.0
C636 C 0.44164 0.89726 0.66242 0.0
C637 C 0.44312 0.88638 0.68113 0.0
C638 C 0.43896 0.89291 0.70197 0.0
H639 H 0.46744 0.91813 0.75563 0.0
H640 H 0.46064 0.89776 0.74292 0.0
H641 H 0.46447 0.91699 0.72615 0.0
H642 H 0.42746 0.93501 0.68764 0.0
H643 H 0.43475 0.92363 0.65104 0.0
H644 H 0.58976 0.39969 0.15724 0.0
H645 H 0.57832 0.39349 0.19396 0.0
H646 H 0.5579 0.44669 0.19816 0.0
H647 H 0.56919 0.45303 0.16131 0.0
H648 H 0.58781 0.41171 0.23293 0.0
H649 H 0.51536 0.41532 0.21599 0.0
H650 H 0.53154 0.41276 0.19443 0.0
H651 H 0.52812 0.43402 0.20693 0.0
C652 C 0.58269 0.41005 0.16584 0.0
C653 C 0.58038 0.42687 0.1563 0.0
C654 C 0.57619 0.40648 0.18685 0.0
C655 C 0.56715 0.41958 0.19868 0.0
C656 C 0.56461 0.43631 0.18915 0.0
H657 H 0.54937 0.41486 0.34073 0.0
H658 H 0.55757 0.42462 0.30373 0.0
C659 C 0.57114 0.43993 0.16812 0.0
C660 C 0.5611 0.41588 0.22135 0.0
H661 H 0.52416 0.41175 0.25319 0.0
C662 C 0.5739 0.41176 0.23741 0.0
C663 C 0.54294 0.41585 0.22703 0.0
C664 C 0.52864 0.41958 0.2102 0.0
C665 C 0.56903 0.40755 0.25903 0.0
C666 C 0.55089 0.4077 0.26479 0.0
C667 C 0.53807 0.41183 0.24874 0.0
C668 C 0.54493 0.40262 0.28709 0.0
C669 C 0.58331 0.40249 0.27537 0.0
C670 C 0.53464 0.38734 0.2899 0.0
C671 C 0.52988 0.38176 0.31096 0.0
C672 C 0.53526 0.39141 0.32965 0.0
C673 C 0.5451 0.40706 0.32672 0.0
C674 C 0.54986 0.41262 0.3056 0.0
H675 H 0.59606 0.39938 0.26717 0.0
H676 H 0.58562 0.41368 0.28686 0.0
H677 H 0.57919 0.39082 0.28522 0.0
H678 H 0.53066 0.37947 0.27579 0.0
H679 H 0.52224 0.36969 0.31258 0.0
H680 H 0.09448 0.51981 0.80873 0.0
H681 H 0.08238 0.5256 0.77206 0.0
H682 H 0.03671 0.55069 0.8009 0.0
H683 H 0.04882 0.54521 0.83773 0.0
H684 H 0.05014 0.51553 0.75239 0.0
H685 H 0.05601 0.5887 0.75935 0.0
H686 H 0.06674 0.57378 0.77842 0.0
H687 H 0.04343 0.57827 0.78074 0.0
C688 C 0.08183 0.52652 0.80733 0.0
C689 C 0.0727 0.53219 0.82619 0.0
C690 C 0.07493 0.52978 0.78634 0.0
C691 C 0.05879 0.5388 0.78378 0.0
C692 C 0.04936 0.54401 0.80253 0.0
H693 H 0.00624 0.57855 0.6656 0.0
H694 H 0.01244 0.5687 0.70319 0.0
C695 C 0.05627 0.54079 0.82356 0.0
C696 C 0.05211 0.54304 0.76141 0.0
H697 H 0.04292 0.57751 0.72688 0.0
C698 C 0.0485 0.52908 0.7468 0.0
C699 C 0.05001 0.56072 0.7542 0.0
C700 C 0.05438 0.57626 0.76889 0.0
C701 C 0.04282 0.53234 0.72513 0.0
C702 C 0.04097 0.55002 0.71784 0.0
C703 C 0.0443 0.56396 0.73256 0.0
C704 C 0.03635 0.55446 0.69477 0.0
C705 C 0.03874 0.51685 0.71027 0.0
C706 C 0.04769 0.54963 0.67757 0.0
C707 C 0.04421 0.55523 0.65605 0.0
C708 C 0.02935 0.56589 0.65137 0.0
C709 C 0.01779 0.57035 0.6686 0.0
C710 C 0.02131 0.56475 0.6901 0.0
H711 H 0.03598 0.50464 0.71985 0.0
H712 H 0.02716 0.51971 0.69946 0.0
H713 H 0.05036 0.51422 0.69964 0.0
H714 H 0.05957 0.54199 0.68088 0.0
H715 H 0.05342 0.5516 0.64321 0.0
H716 H 0.91459 0.08178 0.16364 0.0
H717 H 0.92368 0.0858 0.2021 0.0
H718 H 0.89979 0.03575 0.21881 0.0
H719 H 0.89087 0.03149 0.18054 0.0
H720 H 0.9014 0.08764 0.23834 0.0
H721 H 0.94861 0.03195 0.24754 0.0
H722 H 0.94133 0.03999 0.22099 0.0
H723 H 0.92755 0.02517 0.23654 0.0
C724 C 0.91147 0.07152 0.17544 0.0
C725 C 0.90203 0.05629 0.16897 0.0
C726 C 0.91665 0.07386 0.19741 0.0
C727 C 0.91263 0.06097 0.21324 0.0
C728 C 0.90338 0.04569 0.20679 0.0
H729 H 0.91299 0.0461 0.35255 0.0
H730 H 0.91011 0.0448 0.3125 0.0
C731 C 0.8982 0.04334 0.18488 0.0
C732 C 0.91708 0.06386 0.23677 0.0
H733 H 0.93775 0.04477 0.28091 0.0
C734 C 0.90956 0.07843 0.24761 0.0
C735 C 0.92774 0.05182 0.2488 0.0
C736 C 0.93692 0.03645 0.23783 0.0
C737 C 0.91176 0.08083 0.27039 0.0
C738 C 0.92192 0.06845 0.28253 0.0
C739 C 0.92988 0.05418 0.27157 0.0
C740 C 0.92375 0.06954 0.30678 0.0
C741 C 0.90258 0.09616 0.28145 0.0
C742 C 0.93257 0.08381 0.31682 0.0
C743 C 0.93425 0.08459 0.33975 0.0
C744 C 0.92712 0.07112 0.35301 0.0
C745 C 0.91854 0.05674 0.34282 0.0
C746 C 0.91688 0.05597 0.31994 0.0
H747 H 0.89249 0.10242 0.27056 0.0
H748 H 0.89601 0.09177 0.29682 0.0
H749 H 0.91256 0.10637 0.28591 0.0
H750 H 0.93836 0.0942 0.3069 0.0
H751 H 0.94156 0.09546 0.34698 0.0
H752 H 0.82037 0.02122 0.0725 0.0
H753 H 0.78895 0.0197 0.0624 0.0
H754 H 0.78464 0.07633 0.06969 0.0
H755 H 0.81602 0.07802 0.07943 0.0
H756 H 0.76278 0.02937 0.09046 0.0
H757 H 0.75642 0.06817 0.01361 0.0
H758 H 0.7775 0.06008 0.02369 0.0
H759 H 0.76806 0.08003 0.03481 0.0
C760 C 0.81283 0.03341 0.07148 0.0
C761 C 0.82069 0.04974 0.07691 0.0
C762 C 0.79488 0.03251 0.06569 0.0
C763 C 0.78448 0.04791 0.06506 0.0
C764 C 0.79247 0.06431 0.06957 0.0
H765 H 0.67684 0.07918 0.07632 0.0
H766 H 0.70865 0.07655 0.06979 0.0
C767 C 0.81041 0.06523 0.07532 0.0
C768 C 0.76494 0.04668 0.06246 0.0
H769 H 0.72959 0.06394 0.03435 0.0
C770 C 0.75553 0.03665 0.07792 0.0
C771 C 0.75551 0.05627 0.04617 0.0
C772 C 0.76491 0.0666 0.0285 0.0
C773 C 0.73693 0.03662 0.07825 0.0
C774 C 0.72749 0.04665 0.06239 0.0
C775 C 0.73688 0.05625 0.04647 0.0
C776 C 0.70793 0.04841 0.0633 0.0
C777 C 0.72759 0.02658 0.09628 0.0
C778 C 0.69689 0.03355 0.06105 0.0
C779 C 0.67867 0.03497 0.0649 0.0
C780 C 0.67119 0.05132 0.07094 0.0
C781 C 0.68216 0.06637 0.07186 0.0
C782 C 0.70036 0.06491 0.06807 0.0
H783 H 0.73682 0.02256 0.10969 0.0
H784 H 0.71682 0.03471 0.1035 0.0
H785 H 0.72154 0.01442 0.08927 0.0
H786 H 0.70245 0.02075 0.05699 0.0
H787 H 0.67057 0.02316 0.06386 0.0
H788 H 0.41667 0.80333 0.57528 0.0
H789 H 0.41943 0.77212 0.56531 0.0
H790 H 0.47611 0.77809 0.56014 0.0
H791 H 0.47355 0.80931 0.57042 0.0
H792 H 0.43494 0.75337 0.52908 0.0
H793 H 0.46943 0.74059 0.60876 0.0
H794 H 0.45785 0.76101 0.60317 0.0
H795 H 0.47934 0.75712 0.5915 0.0
C796 C 0.42972 0.7981 0.57174 0.0
C797 C 0.44492 0.80875 0.57399 0.0
C798 C 0.43125 0.78026 0.56598 0.0
C799 C 0.44799 0.77275 0.56237 0.0
C800 C 0.4631 0.78359 0.56324 0.0
H801 H 0.47497 0.66048 0.56282 0.0
H802 H 0.47697 0.69237 0.55641 0.0
C803 C 0.46159 0.80143 0.56905 0.0
C804 C 0.44966 0.75335 0.55955 0.0
H805 H 0.4645 0.71619 0.58571 0.0
C806 C 0.44153 0.74522 0.54133 0.0
C807 C 0.45824 0.74278 0.57561 0.0
C808 C 0.46661 0.75073 0.59597 0.0
C809 C 0.44163 0.72672 0.53884 0.0
C810 C 0.4498 0.71613 0.55522 0.0
C811 C 0.45833 0.72433 0.57311 0.0
C812 C 0.44859 0.69653 0.55525 0.0
C813 C 0.43297 0.7187 0.51875 0.0
C814 C 0.43197 0.68822 0.5563 0.0
C815 C 0.43078 0.66999 0.5599 0.0
C816 C 0.4462 0.65975 0.5628 0.0
C817 C 0.46284 0.66797 0.56073 0.0
C818 C 0.46401 0.68621 0.55706 0.0
H819 H 0.43268 0.72821 0.50481 0.0
H820 H 0.43998 0.70651 0.51344 0.0
H821 H 0.41906 0.71516 0.52267 0.0
H822 H 0.41989 0.69594 0.55546 0.0
H823 H 0.41775 0.66409 0.56144 0.0
H824 H 0.80626 0.47058 0.08689 0.0
H825 H 0.77455 0.46905 0.07882 0.0
H826 H 0.78301 0.42275 0.03873 0.0
H827 H 0.81487 0.42405 0.04689 0.0
H828 H 0.7546 0.46834 0.03811 0.0
H829 H 0.74813 0.40637 0.08716 0.0
H830 H 0.76758 0.42024 0.08876 0.0
H831 H 0.76406 0.40624 0.06527 0.0
C832 C 0.80145 0.46016 0.07617 0.0
C833 C 0.81307 0.44731 0.06775 0.0
C834 C 0.78332 0.45935 0.07151 0.0
C835 C 0.77644 0.44566 0.05844 0.0
C836 C 0.78807 0.43329 0.04912 0.0
H837 H 0.66378 0.4175 0.05367 0.0
H838 H 0.69514 0.41856 0.04358 0.0
C839 C 0.80626 0.43409 0.05374 0.0
C840 C 0.75698 0.44383 0.05595 0.0
H841 H 0.72199 0.41892 0.07325 0.0
C842 C 0.74744 0.45743 0.04553 0.0
C843 C 0.74772 0.42954 0.06559 0.0
C844 C 0.75731 0.41479 0.07747 0.0
C845 C 0.72882 0.45736 0.045 0.0
C846 C 0.71955 0.44351 0.05558 0.0
C847 C 0.72912 0.42952 0.06514 0.0
C848 C 0.70007 0.444 0.05882 0.0
C849 C 0.71927 0.47221 0.03331 0.0
C850 C 0.69238 0.45803 0.07051 0.0
C851 C 0.67448 0.45748 0.07626 0.0
C852 C 0.66395 0.44278 0.07065 0.0
C853 C 0.67152 0.42901 0.05826 0.0
C854 C 0.68944 0.42959 0.05248 0.0
H855 H 0.72757 0.47794 0.02005 0.0
H856 H 0.70653 0.46762 0.02603 0.0
H857 H 0.7164 0.48292 0.04527 0.0
H858 H 0.70039 0.46907 0.07607 0.0
H859 H 0.6691 0.46829 0.08585 0.0
H860 H 0.00422 0.65438 0.56285 0.0
H861 H 0.00853 0.68612 0.55689 0.0
H862 H 0.06475 0.67985 0.56777 0.0
H863 H 0.06063 0.64816 0.57335 0.0
H864 H 0.02116 0.70774 0.58889 0.0
H865 H 0.06415 0.71334 0.51579 0.0
H866 H 0.0522 0.69332 0.52234 0.0
H867 H 0.07293 0.69823 0.53585 0.0
C868 C 0.01755 0.65968 0.56347 0.0
C869 C 0.03207 0.64875 0.56872 0.0
C870 C 0.01999 0.67783 0.56004 0.0
C871 C 0.03698 0.68534 0.56166 0.0
C872 C 0.05158 0.67431 0.56594 0.0
H873 H 0.08527 0.7843 0.59044 0.0
H874 H 0.07778 0.75412 0.57931 0.0
C875 C 0.04917 0.65618 0.56931 0.0
C876 C 0.03921 0.70485 0.5618 0.0
H877 H 0.06363 0.73861 0.54007 0.0
C878 C 0.03018 0.71456 0.57792 0.0
C879 C 0.05107 0.71369 0.54758 0.0
C880 C 0.06051 0.70412 0.52927 0.0
C881 C 0.03331 0.73269 0.58095 0.0
C882 C 0.04559 0.74143 0.56718 0.0
C883 C 0.05423 0.73186 0.55059 0.0
C884 C 0.05052 0.76016 0.57097 0.0
C885 C 0.02412 0.74213 0.59959 0.0
C886 C 0.03783 0.77368 0.56924 0.0
C887 C 0.04202 0.79095 0.57572 0.0
C888 C 0.05904 0.795 0.58391 0.0
C889 C 0.07201 0.78162 0.58436 0.0
C890 C 0.06778 0.76436 0.57794 0.0
H891 H 0.01792 0.73274 0.61132 0.0
H892 H 0.03361 0.75064 0.6088 0.0
H893 H 0.01351 0.75075 0.59277 0.0
H894 H 0.02451 0.77075 0.56353 0.0
H895 H 0.03177 0.80098 0.57496 0.0
H896 H 0.1697 0.97761 0.91673 0.0
H897 H 0.20159 0.97742 0.92398 0.0
H898 H 0.19661 0.92761 0.95802 0.0
H899 H 0.16466 0.92752 0.95057 0.0
H900 H 0.22321 0.97453 0.96268 0.0
H901 H 0.2302 0.91671 0.9065 0.0
H902 H 0.21009 0.92957 0.90791 0.0
H903 H 0.21532 0.91392 0.92922 0.0
C904 C 0.17531 0.96672 0.92604 0.0
C905 C 0.16467 0.95244 0.93277 0.0
C906 C 0.19354 0.96666 0.93022 0.0
C907 C 0.20148 0.95235 0.94118 0.0
C908 C 0.19076 0.93863 0.94919 0.0
H909 H 0.3146 0.92701 0.93891 0.0
H910 H 0.28355 0.927 0.95035 0.0
C911 C 0.1725 0.93865 0.94498 0.0
C912 C 0.22107 0.95121 0.94246 0.0
H913 H 0.2563 0.9287 0.9213 0.0
C914 C 0.23048 0.96441 0.95385 0.0
C915 C 0.23049 0.93797 0.93093 0.0
C916 C 0.22108 0.92379 0.91779 0.0
C917 C 0.24911 0.96491 0.95366 0.0
C918 C 0.25849 0.95207 0.94141 0.0
C919 C 0.24908 0.9385 0.93073 0.0
C920 C 0.27789 0.9532 0.93773 0.0
C921 C 0.25853 0.97925 0.96643 0.0
C922 C 0.2851 0.96803 0.92713 0.0
C923 C 0.30283 0.96809 0.92061 0.0
C924 C 0.31367 0.95323 0.92433 0.0
C925 C 0.30662 0.93867 0.93575 0.0
C926 C 0.28887 0.93863 0.94232 0.0
H927 H 0.25036 0.98399 0.9804 0.0
H928 H 0.27149 0.97454 0.97293 0.0
H929 H 0.26097 -0.00931 0.95541 0.0
H930 H 0.2768 0.97925 0.92294 0.0
H931 H 0.30781 0.97951 0.91181 0.0
H932 H 0.504 0.3018 0.41394 0.0
H933 H 0.50577 0.27039 0.42292 0.0
H934 H 0.56033 0.27689 0.44303 0.0
H935 H 0.55879 0.30835 0.43369 0.0
H936 H 0.55629 0.25114 0.41273 0.0
H937 H 0.507 0.24109 0.47852 0.0
H938 H 0.49772 0.25267 0.45541 0.0
H939 H 0.51528 0.26274 0.47125 0.0
C940 C 0.51628 0.29666 0.42071 0.0
C941 C 0.5313 0.30758 0.42293 0.0
C942 C 0.51722 0.27869 0.42602 0.0
C943 C 0.53312 0.27131 0.4339 0.0
C944 C 0.5479 0.28234 0.43709 0.0
H945 H 0.5616 0.15841 0.43601 0.0
H946 H 0.56169 0.18997 0.44521 0.0
C947 C 0.54699 0.30032 0.43173 0.0
C948 C 0.53489 0.25182 0.43602 0.0
H949 H 0.51509 0.21511 0.45764 0.0
C950 C 0.54753 0.24327 0.42291 0.0
C951 C 0.52341 0.24158 0.44924 0.0
C952 C 0.51021 0.25001 0.46457 0.0
C953 C 0.54838 0.22475 0.42172 0.0
C954 C 0.53644 0.2145 0.43428 0.0
C955 C 0.52421 0.22302 0.44803 0.0
C956 C 0.53553 0.19501 0.43181 0.0
C957 C 0.56144 0.21632 0.40615 0.0
C958 C 0.52048 0.18728 0.42216 0.0
C959 C 0.52034 0.16927 0.41696 0.0
C960 C 0.53526 0.15865 0.42136 0.0
C961 C 0.54994 0.16624 0.43222 0.0
C962 C 0.55005 0.18428 0.43744 0.0
H963 H 0.56735 0.22612 0.39469 0.0
H964 H 0.57236 0.21018 0.41578 0.0
H965 H 0.55493 0.20576 0.39629 0.0
H966 H 0.50911 0.19534 0.41777 0.0
H967 H 0.50877 0.16383 0.40875 0.0
H968 H 0.16221 0.50608 0.91951 0.0
H969 H 0.19358 0.50689 0.92993 0.0
H970 H 0.19377 0.56366 0.92244 0.0
H971 H 0.16241 0.56302 0.91242 0.0
H972 H 0.2189 0.51825 0.90191 0.0
H973 H 0.22261 0.55782 0.9784 0.0
H974 H 0.20212 0.54827 0.96841 0.0
H975 H 0.21017 0.56877 0.95713 0.0
C976 C 0.16882 0.51878 0.92057 0.0
C977 C 0.15983 0.53448 0.91498 0.0
C978 C 0.18675 0.51921 0.92655 0.0
C979 C 0.19599 0.53534 0.92719 0.0
C980 C 0.18684 0.5511 0.92257 0.0
H981 H 0.30098 0.574 0.91443 0.0
H982 H 0.26953 0.56927 0.92175 0.0
C983 C 0.16891 0.55069 0.91664 0.0
C984 C 0.21556 0.53552 0.92977 0.0
H985 H 0.24964 0.55544 0.95756 0.0
C986 C 0.22564 0.5261 0.91436 0.0
C987 C 0.22431 0.54586 0.94593 0.0
C988 C 0.21423 0.55561 0.96354 0.0
C989 C 0.24417 0.5274 0.91395 0.0
C990 C 0.25291 0.53817 0.92968 0.0
C991 C 0.2429 0.54717 0.94555 0.0
C992 C 0.27228 0.54131 0.92863 0.0
C993 C 0.25417 0.51796 0.89596 0.0
C994 C 0.28435 0.52728 0.93089 0.0
C995 C 0.30236 0.5299 0.92657 0.0
C996 C 0.30859 0.54664 0.92005 0.0
C997 C 0.29662 0.56091 0.91924 0.0
C998 C 0.27863 0.55825 0.92349 0.0
H999 H 0.2452 0.5132 0.88263 0.0
H1000 H 0.26429 0.5268 0.8886 0.0
H1001 H 0.2611 0.5063 0.90303 0.0
H1002 H 0.27974 0.51416 0.93524 0.0
H1003 H 0.31126 0.51867 0.92756 0.0
H1004 H 0.89003 0.17426 0.38298 0.0
H1005 H 0.89151 0.20645 0.38702 0.0
H1006 H 0.94852 0.20436 0.38236 0.0
H1007 H 0.94716 0.17225 0.37785 0.0
H1008 H 0.90816 0.22602 0.41925 0.0
H1009 H 0.93603 0.24203 0.33731 0.0
H1010 H 0.9269 0.22058 0.34373 0.0
H1011 H 0.94898 0.22628 0.35258 0.0
C1012 C 0.90288 0.18066 0.38263 0.0
C1013 C 0.91848 0.17069 0.37997 0.0
C1014 C 0.9037 0.19905 0.38499 0.0
C1015 C 0.9201 0.20782 0.3847 0.0
C1016 C 0.93569 0.19791 0.38215 0.0
H1017 H 0.95181 0.31787 0.3985 0.0
H1018 H 0.9511 0.28548 0.39796 0.0
C1019 C 0.93489 0.17953 0.37967 0.0
C1020 C 0.92091 0.22729 0.38765 0.0
H1021 H 0.93487 0.2655 0.36325 0.0
C1022 C 0.91394 0.23467 0.40698 0.0
C1023 C 0.92846 0.23853 0.37161 0.0
C1024 C 0.93537 0.2315 0.35005 0.0
C1025 C 0.91453 0.25299 0.41082 0.0
C1026 C 0.92214 0.26419 0.39483 0.0
C1027 C 0.92916 0.25682 0.37555 0.0
C1028 C 0.92248 0.28367 0.39735 0.0
C1029 C 0.90723 0.26021 0.43207 0.0
C1030 C 0.9066 0.29334 0.39739 0.0
C1031 C 0.90695 0.31184 0.39765 0.0
C1032 C 0.92319 0.32099 0.3978 0.0
C1033 C 0.93908 0.31123 0.39844 0.0
C1034 C 0.93871 0.29273 0.39808 0.0
H1035 H 0.90584 0.24971 0.44475 0.0
H1036 H 0.91589 0.27086 0.43872 0.0
H1037 H 0.89391 0.26596 0.42893 0.0
H1038 H 0.89394 0.2866 0.39648 0.0
H1039 H 0.89448 0.31894 0.39711 0.0
loop_
_geom_bond_atom_site_label_1
_geom_bond_atom_site_label_2
_geom_bond_distance
_geom_bond_site_symmetry_2
_ccdc_geom_bond_type
O0 Cd1 2.300 . S
O0 C7 1.275 . S
Cd1 O0 2.300 . S
Cd1 O9 2.381 . S
Cd1 O10 2.378 . S
O2 Cd3 2.385 . S
O2 C7 1.255 . S
Cd3 O2 2.385 . S
Cd3 O4 2.317 . S
O4 Cd3 2.317 . S
O4 C5 1.232 . S
C5 O4 1.232 . S
C5 O6 1.218 . S
O6 C5 1.218 . S
C7 O0 1.275 . S
C7 O2 1.255 . S
C8 O9 1.258 . S
C8 O10 1.256 . S
O9 Cd1 2.381 . S
O9 C8 1.258 . S
O10 Cd1 2.378 . S
O10 C8 1.256 . S
O11 Cd12 2.300 . S
O11 C18 1.275 . S
Cd12 O11 2.300 . S
Cd12 O20 2.381 . S
Cd12 O21 2.378 . S
O13 Cd14 2.385 . S
O13 C18 1.255 . S
Cd14 O13 2.385 . S
Cd14 O15 2.317 . S
O15 Cd14 2.317 . S
O15 C16 1.232 . S
C16 O15 1.232 . S
C16 O17 1.218 . S
O17 C16 1.218 . S
C18 O11 1.275 . S
C18 O13 1.255 . S
C19 O20 1.258 . S
C19 O21 1.256 . S
O20 Cd12 2.381 . S
O20 C19 1.258 . S
O21 Cd12 2.378 . S
O21 C19 1.256 . S
O22 Cd23 2.300 . S
O22 C29 1.275 . S
Cd23 O22 2.300 . S
Cd23 O31 2.381 . S
Cd23 O32 2.378 . S
O24 Cd25 2.385 . S
O24 C29 1.255 . S
Cd25 O24 2.385 . S
Cd25 O26 2.317 . S
O26 Cd25 2.317 . S
O26 C27 1.232 . S
C27 O26 1.232 . S
C27 O28 1.218 . S
O28 C27 1.218 . S
C29 O22 1.275 . S
C29 O24 1.255 . S
C30 O31 1.258 . S
C30 O32 1.256 . S
O31 Cd23 2.381 . S
O31 C30 1.258 . S
O32 Cd23 2.378 . S
O32 C30 1.256 . S
O33 Cd34 2.300 . S
O33 C40 1.275 . S
Cd34 O33 2.300 . S
Cd34 O42 2.381 . S
Cd34 O43 2.378 . S
O35 Cd36 2.385 . S
O35 C40 1.255 . S
Cd36 O35 2.385 . S
Cd36 O37 2.317 . S
O37 Cd36 2.317 . S
O37 C38 1.232 . S
C38 O37 1.232 . S
C38 O39 1.218 . S
O39 C38 1.218 . S
C40 O33 1.275 . S
C40 O35 1.255 . S
C41 O42 1.258 . S
C41 O43 1.256 . S
O42 Cd34 2.381 . S
O42 C41 1.258 . S
O43 Cd34 2.378 . S
O43 C41 1.256 . S
O44 Cd45 2.300 . S
O44 C51 1.275 . S
Cd45 O44 2.300 . S
Cd45 O53 2.381 . S
Cd45 O54 2.378 . S
O46 Cd47 2.385 . S
O46 C51 1.255 . S
Cd47 O46 2.385 . S
Cd47 O48 2.317 . S
O48 Cd47 2.317 . S
O48 C49 1.232 . S
C49 O48 1.232 . S
C49 O50 1.218 . S
O50 C49 1.218 . S
C51 O44 1.275 . S
C51 O46 1.255 . S
C52 O53 1.258 . S
C52 O54 1.256 . S
O53 Cd45 2.381 . S
O53 C52 1.258 . S
O54 Cd45 2.378 . S
O54 C52 1.256 . S
O55 Cd56 2.300 . S
O55 C62 1.275 . S
Cd56 O55 2.300 . S
Cd56 O64 2.381 . S
Cd56 O65 2.378 . S
O57 Cd58 2.385 . S
O57 C62 1.255 . S
Cd58 O57 2.385 . S
Cd58 O59 2.317 . S
O59 Cd58 2.317 . S
O59 C60 1.232 . S
C60 O59 1.232 . S
C60 O61 1.218 . S
O61 C60 1.218 . S
C62 O55 1.275 . S
C62 O57 1.255 . S
C63 O64 1.258 . S
C63 O65 1.256 . S
O64 Cd56 2.381 . S
O64 C63 1.258 . S
O65 Cd56 2.378 . S
O65 C63 1.256 . S
O66 Cd67 2.300 . S
O66 C73 1.275 . S
Cd67 O66 2.300 . S
Cd67 O75 2.381 . S
Cd67 O76 2.378 . S
O68 Cd69 2.385 . S
O68 C73 1.255 . S
Cd69 O68 2.385 . S
Cd69 O70 2.317 . S
O70 Cd69 2.317 . S
O70 C71 1.232 . S
C71 O70 1.232 . S
C71 O72 1.218 . S
O72 C71 1.218 . S
C73 O66 1.275 . S
C73 O68 1.255 . S
C74 O75 1.258 . S
C74 O76 1.256 . S
O75 Cd67 2.381 . S
O75 C74 1.258 . S
O76 Cd67 2.378 . S
O76 C74 1.256 . S
O77 Cd78 2.300 . S
O77 C84 1.275 . S
Cd78 O77 2.300 . S
Cd78 O86 2.381 . S
Cd78 O87 2.378 . S
O79 Cd80 2.385 . S
O79 C84 1.255 . S
Cd80 O79 2.385 . S
Cd80 O81 2.317 . S
O81 Cd80 2.317 . S
O81 C82 1.232 . S
C82 O81 1.232 . S
C82 O83 1.218 . S
O83 C82 1.218 . S
C84 O77 1.275 . S
C84 O79 1.255 . S
C85 O86 1.258 . S
C85 O87 1.256 . S
O86 Cd78 2.381 . S
O86 C85 1.258 . S
O87 Cd78 2.378 . S
O87 C85 1.256 . S
O88 Cd89 2.300 . S
O88 C95 1.275 . S
Cd89 O88 2.300 . S
Cd89 O97 2.381 . S
Cd89 O98 2.378 . S
O90 Cd91 2.385 . S
O90 C95 1.255 . S
Cd91 O90 2.385 . S
Cd91 O92 2.317 . S
O92 Cd91 2.317 . S
O92 C93 1.232 . S
C93 O92 1.232 . S
C93 O94 1.218 . S
O94 C93 1.218 . S
C95 O88 1.275 . S
C95 O90 1.255 . S
C96 O97 1.258 . S
C96 O98 1.256 . S
O97 Cd89 2.381 . S
O97 C96 1.258 . S
O98 Cd89 2.378 . S
O98 C96 1.256 . S
O99 Cd100 2.300 . S
O99 C106 1.275 . S
Cd100 O99 2.300 . S
Cd100 O108 2.381 . S
Cd100 O109 2.378 . S
O101 Cd102 2.385 . S
O101 C106 1.255 . S
Cd102 O101 2.385 . S
Cd102 O103 2.317 . S
O103 Cd102 2.317 . S
O103 C104 1.232 . S
C104 O103 1.232 . S
C104 O105 1.218 . S
O105 C104 1.218 . S
C106 O99 1.275 . S
C106 O101 1.255 . S
C107 O108 1.258 . S
C107 O109 1.256 . S
O108 Cd100 2.381 . S
O108 C107 1.258 . S
O109 Cd100 2.378 . S
O109 C107 1.256 . S
O110 Cd111 2.300 . S
O110 C117 1.275 . S
Cd111 O110 2.300 . S
Cd111 O119 2.381 . S
Cd111 O120 2.378 . S
O112 Cd113 2.385 . S
O112 C117 1.255 . S
Cd113 O112 2.385 . S
Cd113 O114 2.317 . S
O114 Cd113 2.317 . S
O114 C115 1.232 . S
C115 O114 1.232 . S
C115 O116 1.218 . S
O116 C115 1.218 . S
C117 O110 1.275 . S
C117 O112 1.255 . S
C118 O119 1.258 . S
C118 O120 1.256 . S
O119 Cd111 2.381 . S
O119 C118 1.258 . S
O120 Cd111 2.378 . S
O120 C118 1.256 . S
O121 Cd122 2.300 . S
O121 C128 1.275 . S
Cd122 O121 2.300 . S
Cd122 O130 2.381 . S
Cd122 O131 2.378 . S
O123 Cd124 2.385 . S
O123 C128 1.255 . S
Cd124 O123 2.385 . S
Cd124 O125 2.317 . S
O125 Cd124 2.317 . S
O125 C126 1.232 . S
C126 O125 1.232 . S
C126 O127 1.218 . S
O127 C126 1.218 . S
C128 O121 1.275 . S
C128 O123 1.255 . S
C129 O130 1.258 . S
C129 O131 1.256 . S
O130 Cd122 2.381 . S
O130 C129 1.258 . S
O131 Cd122 2.378 . S
O131 C129 1.256 . S
O132 Cd133 2.300 . S
O132 C139 1.275 . S
Cd133 O132 2.300 . S
Cd133 O141 2.381 . S
Cd133 O142 2.378 . S
O134 Cd135 2.385 . S
O134 C139 1.255 . S
Cd135 O134 2.385 . S
Cd135 O136 2.317 . S
O136 Cd135 2.317 . S
O136 C137 1.232 . S
C137 O136 1.232 . S
C137 O138 1.218 . S
O138 C137 1.218 . S
C139 O132 1.275 . S
C139 O134 1.255 . S
C140 O141 1.258 . S
C140 O142 1.256 . S
O141 Cd133 2.381 . S
O141 C140 1.258 . S
O142 Cd133 2.378 . S
O142 C140 1.256 . S
O143 Cd144 2.300 . S
O143 C150 1.275 . S
Cd144 O143 2.300 . S
Cd144 O152 2.381 . S
Cd144 O153 2.378 . S
O145 Cd146 2.385 . S
O145 C150 1.255 . S
Cd146 O145 2.385 . S
Cd146 O147 2.317 . S
O147 Cd146 2.317 . S
O147 C148 1.232 . S
C148 O147 1.232 . S
C148 O149 1.218 . S
O149 C148 1.218 . S
C150 O143 1.275 . S
C150 O145 1.255 . S
C151 O152 1.258 . S
C151 O153 1.256 . S
O152 Cd144 2.381 . S
O152 C151 1.258 . S
O153 Cd144 2.378 . S
O153 C151 1.256 . S
O154 Cd155 2.300 . S
O154 C161 1.275 . S
Cd155 O154 2.300 . S
Cd155 O163 2.381 . S
Cd155 O164 2.378 . S
O156 Cd157 2.385 . S
O156 C161 1.255 . S
Cd157 O156 2.385 . S
Cd157 O158 2.317 . S
O158 Cd157 2.317 . S
O158 C159 1.232 . S
C159 O158 1.232 . S
C159 O160 1.218 . S
O160 C159 1.218 . S
C161 O154 1.275 . S
C161 O156 1.255 . S
C162 O163 1.258 . S
C162 O164 1.256 . S
O163 Cd155 2.381 . S
O163 C162 1.258 . S
O164 Cd155 2.378 . S
O164 C162 1.256 . S
O165 Cd166 2.300 . S
O165 C172 1.275 . S
Cd166 O165 2.300 . S
Cd166 O174 2.381 . S
Cd166 O175 2.378 . S
O167 Cd168 2.385 . S
O167 C172 1.255 . S
Cd168 O167 2.385 . S
Cd168 O169 2.317 . S
O169 Cd168 2.317 . S
O169 C170 1.232 . S
C170 O169 1.232 . S
C170 O171 1.218 . S
O171 C170 1.218 . S
C172 O165 1.275 . S
C172 O167 1.255 . S
C173 O174 1.258 . S
C173 O175 1.256 . S
O174 Cd166 2.381 . S
O174 C173 1.258 . S
O175 Cd166 2.378 . S
O175 C173 1.256 . S
H176 C184 0.929 . S
H177 C186 0.930 1_554 S
H178 C188 0.930 . S
H179 C191 0.929 . S
H180 C194 0.929 . S
H181 C196 0.960 . S
H182 C196 0.960 . S
H183 C196 0.960 . S
C184 H176 0.929 . S
C184 C185 1.377 . S
C184 C186 1.384 . S
C185 C184 1.377 . S
C185 C191 1.390 . S
C186 H177 0.930 1_556 S
C186 C184 1.384 . S
C186 C187 1.372 . S
C187 C186 1.372 . S
C187 C188 1.400 . S
C187 C192 1.490 . S
C188 H178 0.930 . S
C188 C187 1.400 . S
C188 C191 1.386 . S
H189 C205 0.930 . S
H190 C206 0.931 1_556 S
C191 H179 0.929 . S
C191 C185 1.390 . S
C191 C188 1.386 . S
C192 C187 1.490 . S
C192 C194 1.373 1_556 S
C192 C195 1.403 1_565 S
H193 C199 0.930 . S
C194 H180 0.929 . S
C194 C192 1.373 1_554 S
C194 C197 1.427 . S
C195 C192 1.403 1_545 S
C195 C196 1.524 . S
C195 C199 1.400 1_556 S
C196 H181 0.960 . S
C196 H182 0.960 . S
C196 H183 0.960 . S
C196 C195 1.524 . S
C197 C194 1.427 . S
C197 C198 1.392 1_565 S
C197 C201 1.495 . S
C198 C197 1.392 1_545 S
C198 C199 1.385 . S
C198 C200 1.478 . S
C199 H193 0.930 . S
C199 C195 1.400 1_554 S
C199 C198 1.385 . S
C200 C198 1.478 . S
C200 C202 1.381 . S
C200 C206 1.383 . S
C201 C197 1.495 . S
C201 H207 0.959 . S
C201 H208 0.961 . S
C201 H209 0.960 . S
C202 C200 1.381 . S
C202 C203 1.394 . S
C202 H210 0.930 . S
C203 C202 1.394 . S
C203 C204 1.383 . S
C203 H211 0.929 . S
C204 C203 1.383 . S
C204 C205 1.377 . S
C205 H189 0.930 . S
C205 C204 1.377 . S
C205 C206 1.379 . S
C206 H190 0.931 1_554 S
C206 C200 1.383 . S
C206 C205 1.379 . S
H207 C201 0.959 . S
H208 C201 0.961 . S
H209 C201 0.960 . S
H210 C202 0.930 . S
H211 C203 0.929 . S
H212 C220 0.929 . S
H213 C222 0.930 . S
H214 C224 0.930 . S
H215 C227 0.929 . S
H216 C230 0.930 . S
H217 C232 0.960 . S
H218 C232 0.960 . S
H219 C232 0.960 . S
C220 H212 0.929 . S
C220 C221 1.377 . S
C220 C222 1.384 . S
C221 C220 1.377 . S
C221 C227 1.390 . S
C222 H213 0.930 . S
C222 C220 1.384 . S
C222 C223 1.372 . S
C223 C222 1.372 . S
C223 C224 1.400 . S
C223 C228 1.490 . S
C224 H214 0.930 . S
C224 C223 1.400 . S
C224 C227 1.386 . S
H225 C241 0.930 . S
H226 C242 0.931 . S
C227 H215 0.929 . S
C227 C221 1.390 . S
C227 C224 1.386 . S
C228 C223 1.490 . S
C228 C230 1.395 . S
C228 C231 1.403 . S
H229 C235 0.930 . S
C230 H216 0.930 . S
C230 C228 1.395 . S
C230 C233 1.403 . S
C231 C228 1.403 . S
C231 C232 1.524 . S
C231 C235 1.400 . S
C232 H217 0.960 . S
C232 H218 0.960 . S
C232 H219 0.960 . S
C232 C231 1.524 . S
C233 C230 1.403 . S
C233 C234 1.392 . S
C233 C237 1.495 . S
C234 C233 1.392 . S
C234 C235 1.385 . S
C234 C236 1.478 . S
C235 H229 0.930 . S
C235 C231 1.400 . S
C235 C234 1.385 . S
C236 C234 1.478 . S
C236 C238 1.381 . S
C236 C242 1.383 . S
C237 C233 1.495 . S
C237 H243 0.959 . S
C237 H244 0.961 . S
C237 H245 0.960 . S
C238 C236 1.381 . S
C238 C239 1.394 . S
C238 H246 0.930 . S
C239 C238 1.394 . S
C239 C240 1.383 . S
C239 H247 0.929 . S
C240 C239 1.383 . S
C240 C241 1.377 . S
C241 H225 0.930 . S
C241 C240 1.377 . S
C241 C242 1.379 . S
C242 H226 0.931 . S
C242 C236 1.383 . S
C242 C241 1.379 . S
H243 C237 0.959 . S
H244 C237 0.961 . S
H245 C237 0.960 . S
H246 C238 0.930 . S
H247 C239 0.929 . S
H248 C256 0.929 . S
H249 C258 0.930 . S
H250 C260 0.930 . S
H251 C263 0.929 . S
H252 C266 0.930 . S
H253 C268 0.960 . S
H254 C268 0.960 . S
H255 C268 0.960 . S
C256 H248 0.929 . S
C256 C257 1.377 . S
C256 C258 1.384 . S
C257 C256 1.377 . S
C257 C263 1.390 . S
C258 H249 0.930 . S
C258 C256 1.384 . S
C258 C259 1.372 . S
C259 C258 1.372 . S
C259 C260 1.400 . S
C259 C264 1.490 . S
C260 H250 0.930 . S
C260 C259 1.400 . S
C260 C263 1.386 . S
H261 C277 0.930 . S
H262 C278 0.931 . S
C263 H251 0.929 . S
C263 C257 1.390 . S
C263 C260 1.386 . S
C264 C259 1.490 . S
C264 C266 1.395 1_455 S
C264 C267 1.403 1_556 S
H265 C271 0.929 . S
C266 H252 0.930 . S
C266 C264 1.395 1_655 S
C266 C269 1.403 . S
C267 C264 1.403 1_554 S
C267 C268 1.524 . S
C267 C271 1.358 1_455 S
C268 H253 0.960 . S
C268 H254 0.960 . S
C268 H255 0.960 . S
C268 C267 1.524 . S
C269 C266 1.403 . S
C269 C270 1.392 1_556 S
C269 C273 1.495 . S
C270 C269 1.392 1_554 S
C270 C271 1.431 . S
C270 C272 1.478 . S
C271 H265 0.929 . S
C271 C267 1.358 1_655 S
C271 C270 1.431 . S
C272 C270 1.478 . S
C272 C274 1.381 . S
C272 C278 1.383 . S
C273 C269 1.495 . S
C273 H279 0.959 . S
C273 H280 0.961 . S
C273 H281 0.960 . S
C274 C272 1.381 . S
C274 C275 1.394 . S
C274 H282 0.930 . S
C275 C274 1.394 . S
C275 C276 1.383 . S
C275 H283 0.929 . S
C276 C275 1.383 . S
C276 C277 1.377 . S
C277 H261 0.930 . S
C277 C276 1.377 . S
C277 C278 1.379 . S
C278 H262 0.931 . S
C278 C272 1.383 . S
C278 C277 1.379 . S
H279 C273 0.959 . S
H280 C273 0.961 . S
H281 C273 0.960 . S
H282 C274 0.930 . S
H283 C275 0.929 . S
H284 C292 0.929 . S
H285 C294 0.930 . S
H286 C296 0.930 . S
H287 C299 0.929 . S
H288 C302 0.930 . S
H289 C304 0.960 . S
H290 C304 0.962 . S
H291 C304 0.960 . S
C292 H284 0.929 . S
C292 C293 1.377 . S
C292 C294 1.384 . S
C293 C292 1.377 . S
C293 C299 1.390 . S
C294 H285 0.930 . S
C294 C292 1.384 . S
C294 C295 1.372 . S
C295 C294 1.372 . S
C295 C296 1.400 . S
C295 C300 1.490 . S
C296 H286 0.930 . S
C296 C295 1.400 . S
C296 C299 1.386 . S
H297 C313 0.930 . S
H298 C314 0.931 . S
C299 H287 0.929 . S
C299 C293 1.390 . S
C299 C296 1.386 . S
C300 C295 1.490 . S
C300 C302 1.395 1_455 S
C300 C303 1.403 1_565 S
H301 C307 0.930 . S
C302 H288 0.930 . S
C302 C300 1.395 1_655 S
C302 C305 1.403 . S
C303 C300 1.403 1_545 S
C303 C304 1.524 . S
C303 C307 1.400 . S
C304 H289 0.960 . S
C304 H290 0.962 . S
C304 H291 0.960 . S
C304 C303 1.524 . S
C305 C302 1.403 . S
C305 C306 1.392 1_565 S
C305 C309 1.495 . S
C306 C305 1.392 1_545 S
C306 C307 1.385 1_655 S
C306 C308 1.478 . S
C307 H301 0.930 . S
C307 C303 1.400 . S
C307 C306 1.385 1_455 S
C308 C306 1.478 . S
C308 C310 1.381 . S
C308 C314 1.383 . S
C309 C305 1.495 . S
C309 H315 0.959 . S
C309 H316 0.961 . S
C309 H317 0.960 . S
C310 C308 1.381 . S
C310 C311 1.394 . S
C310 H318 0.930 . S
C311 C310 1.394 . S
C311 C312 1.383 . S
C311 H319 0.929 . S
C312 C311 1.383 . S
C312 C313 1.377 . S
C313 H297 0.930 . S
C313 C312 1.377 . S
C313 C314 1.379 . S
C314 H298 0.931 . S
C314 C308 1.383 . S
C314 C313 1.379 . S
H315 C309 0.959 . S
H316 C309 0.961 . S
H317 C309 0.960 . S
H318 C310 0.930 . S
H319 C311 0.929 . S
H320 C328 0.929 . S
H321 C330 0.930 . S
H322 C332 0.930 . S
H323 C335 0.929 . S
H324 C338 0.930 . S
H325 C340 0.983 . S
H326 C340 0.960 . S
H327 C340 0.960 . S
C328 H320 0.929 . S
C328 C329 1.377 . S
C328 C330 1.384 . S
C329 C328 1.377 . S
C329 C335 1.390 . S
C330 H321 0.930 . S
C330 C328 1.384 . S
C330 C331 1.372 . S
C331 C330 1.372 . S
C331 C332 1.400 . S
C331 C336 1.490 . S
C332 H322 0.930 . S
C332 C331 1.400 . S
C332 C335 1.386 . S
H333 C349 0.930 . S
H334 C350 0.931 . S
C335 H323 0.929 . S
C335 C329 1.390 . S
C335 C332 1.386 . S
C336 C331 1.490 . S
C336 C338 1.395 1_565 S
C336 C339 1.403 1_556 S
H337 C343 0.930 . S
C338 H324 0.930 . S
C338 C336 1.395 1_545 S
C338 C341 1.403 1_455 S
C339 C336 1.403 1_554 S
C339 C340 1.524 . S
C339 C343 1.400 1_455 S
C340 H325 0.983 . S
C340 H326 0.960 . S
C340 H327 0.960 . S
C340 C339 1.524 . S
C341 C338 1.403 1_655 S
C341 C342 1.392 1_556 S
C341 C345 1.495 . S
C342 C341 1.392 1_554 S
C342 C343 1.385 1_545 S
C342 C344 1.478 . S
C343 H337 0.930 . S
C343 C339 1.400 1_655 S
C343 C342 1.385 1_565 S
C344 C342 1.478 . S
C344 C346 1.381 . S
C344 C350 1.383 . S
C345 C341 1.495 . S
C345 H351 0.959 1_655 S
C345 H352 0.961 . S
C345 H353 0.960 . S
C346 C344 1.381 . S
C346 C347 1.394 . S
C346 H354 0.930 . S
C347 C346 1.394 . S
C347 C348 1.383 . S
C347 H355 0.929 . S
C348 C347 1.383 . S
C348 C349 1.377 . S
C349 H333 0.930 . S
C349 C348 1.377 . S
C349 C350 1.379 . S
C350 H334 0.931 . S
C350 C344 1.383 . S
C350 C349 1.379 . S
H351 C345 0.959 1_455 S
H352 C345 0.961 . S
H353 C345 0.960 . S
H354 C346 0.930 . S
H355 C347 0.929 . S
H356 C364 0.929 . S
H357 C366 0.930 . S
H358 C368 0.930 . S
H359 C371 0.929 . S
H360 C374 0.930 . S
H361 C376 0.960 . S
H362 C376 0.960 . S
H363 C376 0.960 . S
C364 H356 0.929 . S
C364 C365 1.377 . S
C364 C366 1.384 . S
C365 C364 1.377 . S
C365 C371 1.390 . S
C366 H357 0.930 . S
C366 C364 1.384 . S
C366 C367 1.372 . S
C367 C366 1.372 . S
C367 C368 1.400 . S
C367 C372 1.490 . S
C368 H358 0.930 . S
C368 C367 1.400 . S
C368 C371 1.386 . S
H369 C385 0.930 . S
H370 C386 0.931 . S
C371 H359 0.929 . S
C371 C365 1.390 . S
C371 C368 1.386 . S
C372 C367 1.490 . S
C372 C374 1.395 1_565 S
C372 C375 1.403 . S
H373 C379 0.930 . S
C374 H360 0.930 . S
C374 C372 1.395 1_545 S
C374 C377 1.403 . S
C375 C372 1.403 . S
C375 C376 1.524 . S
C375 C379 1.400 . S
C376 H361 0.960 . S
C376 H362 0.960 . S
C376 H363 0.960 . S
C376 C375 1.524 . S
C377 C374 1.403 . S
C377 C378 1.392 . S
C377 C381 1.495 . S
C378 C377 1.392 . S
C378 C379 1.385 1_545 S
C378 C380 1.478 . S
C379 H373 0.930 . S
C379 C375 1.400 . S
C379 C378 1.385 1_565 S
C380 C378 1.478 . S
C380 C382 1.381 . S
C380 C386 1.383 . S
C381 C377 1.495 . S
C381 H387 0.959 . S
C381 H388 0.961 . S
C381 H389 0.960 . S
C382 C380 1.381 . S
C382 C383 1.394 . S
C382 H390 0.930 . S
C383 C382 1.394 . S
C383 C384 1.383 . S
C383 H391 0.929 . S
C384 C383 1.383 . S
C384 C385 1.377 . S
C385 H369 0.930 . S
C385 C384 1.377 . S
C385 C386 1.379 . S
C386 H370 0.931 . S
C386 C380 1.383 . S
C386 C385 1.379 . S
H387 C381 0.959 . S
H388 C381 0.961 . S
H389 C381 0.960 . S
H390 C382 0.930 . S
H391 C383 0.929 . S
H392 C400 0.929 . S
H393 C402 0.930 . S
H394 C404 0.930 . S
H395 C407 0.929 . S
H396 C410 0.930 . S
H397 C412 0.960 . S
H398 C412 0.960 . S
H399 C412 0.960 1_554 S
C400 H392 0.929 . S
C400 C401 1.377 . S
C400 C402 1.384 . S
C401 C400 1.377 . S
C401 C407 1.390 . S
C402 H393 0.930 . S
C402 C400 1.384 . S
C402 C403 1.372 . S
C403 C402 1.372 . S
C403 C404 1.400 . S
C403 C408 1.490 . S
C404 H394 0.930 . S
C404 C403 1.400 . S
C404 C407 1.386 . S
H405 C421 0.930 . S
H406 C422 0.931 . S
C407 H395 0.929 . S
C407 C401 1.390 . S
C407 C404 1.386 . S
C408 C403 1.490 . S
C408 C410 1.395 . S
C408 C411 1.403 1_554 S
H409 C415 0.930 . S
C410 H396 0.930 . S
C410 C408 1.395 . S
C410 C413 1.403 . S
C411 C408 1.403 1_556 S
C411 C412 1.524 . S
C411 C415 1.400 . S
C412 H397 0.960 . S
C412 H398 0.960 . S
C412 H399 0.960 1_556 S
C412 C411 1.524 . S
C413 C410 1.403 . S
C413 C414 1.392 1_554 S
C413 C417 1.495 . S
C414 C413 1.392 1_556 S
C414 C415 1.385 . S
C414 C416 1.478 . S
C415 H409 0.930 . S
C415 C411 1.400 . S
C415 C414 1.385 . S
C416 C414 1.478 . S
C416 C418 1.381 . S
C416 C422 1.383 . S
C417 C413 1.495 . S
C417 H423 0.959 . S
C417 H424 0.961 . S
C417 H425 0.960 1_554 S
C418 C416 1.381 . S
C418 C419 1.394 . S
C418 H426 0.930 . S
C419 C418 1.394 . S
C419 C420 1.383 . S
C419 H427 0.929 . S
C420 C419 1.383 . S
C420 C421 1.377 . S
C421 H405 0.930 . S
C421 C420 1.377 . S
C421 C422 1.379 . S
C422 H406 0.931 . S
C422 C416 1.383 . S
C422 C421 1.379 . S
H423 C417 0.959 . S
H424 C417 0.961 . S
H425 C417 0.960 1_556 S
H426 C418 0.930 . S
H427 C419 0.929 . S
H428 C436 0.929 . S
H429 C438 0.930 . S
H430 C440 0.930 . S
H431 C443 0.929 . S
H432 C446 0.930 . S
H433 C448 0.960 . S
H434 C448 0.960 . S
H435 C448 0.960 . S
C436 H428 0.929 . S
C436 C437 1.377 . S
C436 C438 1.384 . S
C437 C436 1.377 . S
C437 C443 1.390 . S
C438 H429 0.930 . S
C438 C436 1.384 . S
C438 C439 1.372 . S
C439 C438 1.372 . S
C439 C440 1.400 . S
C439 C444 1.490 . S
C440 H430 0.930 . S
C440 C439 1.400 . S
C440 C443 1.386 . S
H441 C457 0.930 . S
H442 C458 0.931 . S
C443 H431 0.929 . S
C443 C437 1.390 . S
C443 C440 1.386 . S
C444 C439 1.490 . S
C444 C446 1.395 . S
C444 C447 1.403 1_455 S
H445 C451 0.930 . S
C446 H432 0.930 . S
C446 C444 1.395 . S
C446 C449 1.403 . S
C447 C444 1.403 1_655 S
C447 C448 1.524 . S
C447 C451 1.400 . S
C448 H433 0.960 . S
C448 H434 0.960 . S
C448 H435 0.960 . S
C448 C447 1.524 . S
C449 C446 1.403 . S
C449 C450 1.392 1_455 S
C449 C453 1.495 . S
C450 C449 1.392 1_655 S
C450 C451 1.385 . S
C450 C452 1.478 . S
C451 H445 0.930 . S
C451 C447 1.400 . S
C451 C450 1.385 . S
C452 C450 1.478 . S
C452 C454 1.381 . S
C452 C458 1.383 . S
C453 C449 1.495 . S
C453 H459 0.959 . S
C453 H460 0.961 . S
C453 H461 0.960 . S
C454 C452 1.381 . S
C454 C455 1.394 . S
C454 H462 0.930 . S
C455 C454 1.394 . S
C455 C456 1.383 . S
C455 H463 0.929 . S
C456 C455 1.383 . S
C456 C457 1.377 . S
C457 H441 0.930 . S
C457 C456 1.377 . S
C457 C458 1.379 . S
C458 H442 0.931 . S
C458 C452 1.383 . S
C458 C457 1.379 . S
H459 C453 0.959 . S
H460 C453 0.961 . S
H461 C453 0.960 . S
H462 C454 0.930 . S
H463 C455 0.929 . S
H464 C472 0.929 . S
H465 C474 0.930 . S
H466 C476 0.930 . S
H467 C479 0.929 . S
H468 C482 0.930 . S
H469 C484 0.960 . S
H470 C484 0.960 . S
H471 C484 0.960 . S
C472 H464 0.929 . S
C472 C473 1.377 . S
C472 C474 1.384 . S
C473 C472 1.377 . S
C473 C479 1.390 . S
C474 H465 0.930 . S
C474 C472 1.384 . S
C474 C475 1.372 . S
C475 C474 1.372 . S
C475 C476 1.400 . S
C475 C480 1.490 . S
C476 H466 0.930 . S
C476 C475 1.400 . S
C476 C479 1.386 . S
H477 C493 0.930 . S
H478 C494 0.931 . S
C479 H467 0.929 . S
C479 C473 1.390 . S
C479 C476 1.386 . S
C480 C475 1.490 . S
C480 C482 1.395 . S
C480 C483 1.403 . S
H481 C487 0.930 . S
C482 H468 0.930 . S
C482 C480 1.395 . S
C482 C485 1.403 . S
C483 C480 1.403 . S
C483 C484 1.524 . S
C483 C487 1.400 . S
C484 H469 0.960 . S
C484 H470 0.960 . S
C484 H471 0.960 . S
C484 C483 1.524 . S
C485 C482 1.403 . S
C485 C486 1.392 . S
C485 C489 1.495 . S
C486 C485 1.392 . S
C486 C487 1.385 . S
C486 C488 1.478 . S
C487 H481 0.930 . S
C487 C483 1.400 . S
C487 C486 1.385 . S
C488 C486 1.478 . S
C488 C490 1.381 . S
C488 C494 1.383 . S
C489 C485 1.495 . S
C489 H495 0.959 . S
C489 H496 0.961 . S
C489 H497 0.960 . S
C490 C488 1.381 . S
C490 C491 1.394 . S
C490 H498 0.930 . S
C491 C490 1.394 . S
C491 C492 1.383 . S
C491 H499 0.929 . S
C492 C491 1.383 . S
C492 C493 1.377 . S
C493 H477 0.930 . S
C493 C492 1.377 . S
C493 C494 1.379 . S
C494 H478 0.931 . S
C494 C488 1.383 . S
C494 C493 1.379 . S
H495 C489 0.959 . S
H496 C489 0.961 . S
H497 C489 0.960 . S
H498 C490 0.930 . S
H499 C491 0.929 . S
H500 C508 0.929 . S
H501 C510 0.930 . S
H502 C512 0.930 . S
H503 C515 0.929 . S
H504 C518 0.930 . S
H505 C520 0.960 . S
H506 C520 0.960 . S
H507 C520 0.960 . S
C508 H500 0.929 . S
C508 C509 1.377 . S
C508 C510 1.384 . S
C509 C508 1.377 . S
C509 C515 1.390 . S
C510 H501 0.930 . S
C510 C508 1.384 . S
C510 C511 1.372 . S
C511 C510 1.372 . S
C511 C512 1.400 . S
C511 C516 1.490 . S
C512 H502 0.930 . S
C512 C511 1.400 . S
C512 C515 1.386 . S
H513 C529 0.930 . S
H514 C530 0.931 . S
C515 H503 0.929 . S
C515 C509 1.390 . S
C515 C512 1.386 . S
C516 C511 1.490 . S
C516 C518 1.395 . S
C516 C519 1.403 . S
H517 C523 0.930 . S
C518 H504 0.930 . S
C518 C516 1.395 . S
C518 C521 1.403 . S
C519 C516 1.403 . S
C519 C520 1.524 . S
C519 C523 1.400 . S
C520 H505 0.960 . S
C520 H506 0.960 . S
C520 H507 0.960 . S
C520 C519 1.524 . S
C521 C518 1.403 . S
C521 C522 1.392 . S
C521 C525 1.495 . S
C522 C521 1.392 . S
C522 C523 1.385 . S
C522 C524 1.478 . S
C523 H517 0.930 . S
C523 C519 1.400 . S
C523 C522 1.385 . S
C524 C522 1.478 . S
C524 C526 1.381 . S
C524 C530 1.383 . S
C525 C521 1.495 . S
C525 H531 0.959 . S
C525 H532 0.961 . S
C525 H533 0.960 . S
C526 C524 1.381 . S
C526 C527 1.394 . S
C526 H534 0.930 . S
C527 C526 1.394 . S
C527 C528 1.383 . S
C527 H535 0.929 . S
C528 C527 1.383 . S
C528 C529 1.377 . S
C529 H513 0.930 . S
C529 C528 1.377 . S
C529 C530 1.379 . S
C530 H514 0.931 . S
C530 C524 1.383 . S
C530 C529 1.379 . S
H531 C525 0.959 . S
H532 C525 0.961 . S
H533 C525 0.960 . S
H534 C526 0.930 . S
H535 C527 0.929 . S
H536 C544 0.929 . S
H537 C546 0.930 . S
H538 C548 0.930 . S
H539 C551 0.929 . S
H540 C554 0.930 . S
H541 C556 0.960 . S
H542 C556 0.960 . S
H543 C556 0.960 . S
C544 H536 0.929 . S
C544 C545 1.377 . S
C544 C546 1.384 . S
C545 C544 1.377 . S
C545 C551 1.390 . S
C546 H537 0.930 . S
C546 C544 1.384 . S
C546 C547 1.372 . S
C547 C546 1.372 . S
C547 C548 1.400 . S
C547 C552 1.490 . S
C548 H538 0.930 . S
C548 C547 1.400 . S
C548 C551 1.386 . S
H549 C565 0.930 . S
H550 C566 0.931 . S
C551 H539 0.929 . S
C551 C545 1.390 . S
C551 C548 1.386 . S
C552 C547 1.490 . S
C552 C554 1.395 . S
C552 C555 1.403 . S
H553 C559 0.930 . S
C554 H540 0.930 . S
C554 C552 1.395 . S
C554 C557 1.403 . S
C555 C552 1.403 . S
C555 C556 1.524 . S
C555 C559 1.400 . S
C556 H541 0.960 . S
C556 H542 0.960 . S
C556 H543 0.960 . S
C556 C555 1.524 . S
C557 C554 1.403 . S
C557 C558 1.392 . S
C557 C561 1.495 . S
C558 C557 1.392 . S
C558 C559 1.385 . S
C558 C560 1.478 . S
C559 H553 0.930 . S
C559 C555 1.400 . S
C559 C558 1.385 . S
C560 C558 1.478 . S
C560 C562 1.381 . S
C560 C566 1.383 . S
C561 C557 1.495 . S
C561 H567 0.959 . S
C561 H568 0.961 . S
C561 H569 0.960 . S
C562 C560 1.381 . S
C562 C563 1.394 . S
C562 H570 0.930 . S
C563 C562 1.394 . S
C563 C564 1.383 . S
C563 H571 0.929 . S
C564 C563 1.383 . S
C564 C565 1.377 . S
C565 H549 0.930 . S
C565 C564 1.377 . S
C565 C566 1.379 . S
C566 H550 0.931 . S
C566 C560 1.383 . S
C566 C565 1.379 . S
H567 C561 0.959 . S
H568 C561 0.961 . S
H569 C561 0.960 . S
H570 C562 0.930 . S
H571 C563 0.929 . S
H572 C580 0.929 . S
H573 C582 0.930 . S
H574 C584 0.930 . S
H575 C587 0.929 . S
H576 C590 0.930 . S
H577 C592 0.960 . S
H578 C592 0.960 . S
H579 C592 0.960 . S
C580 H572 0.929 . S
C580 C581 1.377 . S
C580 C582 1.384 . S
C581 C580 1.377 . S
C581 C587 1.390 . S
C582 H573 0.930 . S
C582 C580 1.384 . S
C582 C583 1.372 . S
C583 C582 1.372 . S
C583 C584 1.400 . S
C583 C588 1.490 . S
C584 H574 0.930 . S
C584 C583 1.400 . S
C584 C587 1.386 . S
H585 C601 0.930 . S
H586 C602 0.931 . S
C587 H575 0.929 . S
C587 C581 1.390 . S
C587 C584 1.386 . S
C588 C583 1.490 . S
C588 C590 1.395 . S
C588 C591 1.403 . S
H589 C595 0.930 . S
C590 H576 0.930 . S
C590 C588 1.395 . S
C590 C593 1.403 . S
C591 C588 1.403 . S
C591 C592 1.524 . S
C591 C595 1.400 . S
C592 H577 0.960 . S
C592 H578 0.960 . S
C592 H579 0.960 . S
C592 C591 1.524 . S
C593 C590 1.403 . S
C593 C594 1.392 . S
C593 C597 1.495 . S
C594 C593 1.392 . S
C594 C595 1.385 . S
C594 C596 1.478 . S
C595 H589 0.930 . S
C595 C591 1.400 . S
C595 C594 1.385 . S
C596 C594 1.478 . S
C596 C598 1.381 . S
C596 C602 1.383 . S
C597 C593 1.495 . S
C597 H603 0.959 . S
C597 H604 0.961 . S
C597 H605 0.960 . S
C598 C596 1.381 . S
C598 C599 1.394 . S
C598 H606 0.930 . S
C599 C598 1.394 . S
C599 C600 1.383 . S
C599 H607 0.929 . S
C600 C599 1.383 . S
C600 C601 1.377 . S
C601 H585 0.930 . S
C601 C600 1.377 . S
C601 C602 1.379 . S
C602 H586 0.931 . S
C602 C596 1.383 . S
C602 C601 1.379 . S
H603 C597 0.959 . S
H604 C597 0.961 . S
H605 C597 0.960 . S
H606 C598 0.930 . S
H607 C599 0.929 . S
H608 C616 0.929 . S
H609 C618 0.930 . S
H610 C620 0.930 . S
H611 C623 0.929 . S
H612 C626 0.930 . S
H613 C628 0.960 . S
H614 C628 0.960 . S
H615 C628 0.960 . S
C616 H608 0.929 . S
C616 C617 1.377 . S
C616 C618 1.384 . S
C617 C616 1.377 . S
C617 C623 1.390 . S
C618 H609 0.930 . S
C618 C616 1.384 . S
C618 C619 1.372 . S
C619 C618 1.372 . S
C619 C620 1.400 . S
C619 C624 1.490 . S
C620 H610 0.930 . S
C620 C619 1.400 . S
C620 C623 1.386 . S
H621 C637 0.930 . S
H622 C638 0.931 . S
C623 H611 0.929 . S
C623 C617 1.390 . S
C623 C620 1.386 . S
C624 C619 1.490 . S
C624 C626 1.395 . S
C624 C627 1.403 . S
H625 C631 0.930 . S
C626 H612 0.930 . S
C626 C624 1.395 . S
C626 C629 1.403 . S
C627 C624 1.403 . S
C627 C628 1.524 . S
C627 C631 1.400 . S
C628 H613 0.960 . S
C628 H614 0.960 . S
C628 H615 0.960 . S
C628 C627 1.524 . S
C629 C626 1.403 . S
C629 C630 1.392 . S
C629 C633 1.495 . S
C630 C629 1.392 . S
C630 C631 1.385 . S
C630 C632 1.478 . S
C631 H625 0.930 . S
C631 C627 1.400 . S
C631 C630 1.385 . S
C632 C630 1.478 . S
C632 C634 1.381 . S
C632 C638 1.383 . S
C633 C629 1.495 . S
C633 H639 0.959 . S
C633 H640 0.961 . S
C633 H641 0.960 . S
C634 C632 1.381 . S
C634 C635 1.394 . S
C634 H642 0.930 . S
C635 C634 1.394 . S
C635 C636 1.383 . S
C635 H643 0.929 . S
C636 C635 1.383 . S
C636 C637 1.377 . S
C637 H621 0.930 . S
C637 C636 1.377 . S
C637 C638 1.379 . S
C638 H622 0.931 . S
C638 C632 1.383 . S
C638 C637 1.379 . S
H639 C633 0.959 . S
H640 C633 0.961 . S
H641 C633 0.960 . S
H642 C634 0.930 . S
H643 C635 0.929 . S
H644 C652 0.929 . S
H645 C654 0.930 . S
H646 C656 0.930 . S
H647 C659 0.929 . S
H648 C662 0.930 . S
H649 C664 0.960 . S
H650 C664 0.960 . S
H651 C664 0.960 . S
C652 H644 0.929 . S
C652 C653 1.377 . S
C652 C654 1.384 . S
C653 C652 1.377 . S
C653 C659 1.390 . S
C654 H645 0.930 . S
C654 C652 1.384 . S
C654 C655 1.372 . S
C655 C654 1.372 . S
C655 C656 1.400 . S
C655 C660 1.490 . S
C656 H646 0.930 . S
C656 C655 1.400 . S
C656 C659 1.386 . S
H657 C673 0.930 . S
H658 C674 0.931 . S
C659 H647 0.929 . S
C659 C653 1.390 . S
C659 C656 1.386 . S
C660 C655 1.490 . S
C660 C662 1.395 . S
C660 C663 1.403 . S
H661 C667 0.930 . S
C662 H648 0.930 . S
C662 C660 1.395 . S
C662 C665 1.403 . S
C663 C660 1.403 . S
C663 C664 1.524 . S
C663 C667 1.400 . S
C664 H649 0.960 . S
C664 H650 0.960 . S
C664 H651 0.960 . S
C664 C663 1.524 . S
C665 C662 1.403 . S
C665 C666 1.392 . S
C665 C669 1.495 . S
C666 C665 1.392 . S
C666 C667 1.385 . S
C666 C668 1.478 . S
C667 H661 0.930 . S
C667 C663 1.400 . S
C667 C666 1.385 . S
C668 C666 1.478 . S
C668 C670 1.381 . S
C668 C674 1.383 . S
C669 C665 1.495 . S
C669 H675 0.959 . S
C669 H676 0.961 . S
C669 H677 0.960 . S
C670 C668 1.381 . S
C670 C671 1.394 . S
C670 H678 0.930 . S
C671 C670 1.394 . S
C671 C672 1.383 . S
C671 H679 0.929 . S
C672 C671 1.383 . S
C672 C673 1.377 . S
C673 H657 0.930 . S
C673 C672 1.377 . S
C673 C674 1.379 . S
C674 H658 0.931 . S
C674 C668 1.383 . S
C674 C673 1.379 . S
H675 C669 0.959 . S
H676 C669 0.961 . S
H677 C669 0.960 . S
H678 C670 0.930 . S
H679 C671 0.929 . S
H680 C688 0.929 . S
H681 C690 0.930 . S
H682 C692 0.930 . S
H683 C695 0.929 . S
H684 C698 0.930 . S
H685 C700 0.960 . S
H686 C700 0.960 . S
H687 C700 0.960 . S
C688 H680 0.929 . S
C688 C689 1.377 . S
C688 C690 1.384 . S
C689 C688 1.377 . S
C689 C695 1.390 . S
C690 H681 0.930 . S
C690 C688 1.384 . S
C690 C691 1.372 . S
C691 C690 1.372 . S
C691 C692 1.400 . S
C691 C696 1.490 . S
C692 H682 0.930 . S
C692 C691 1.400 . S
C692 C695 1.386 . S
H693 C709 0.930 . S
H694 C710 0.931 . S
C695 H683 0.929 . S
C695 C689 1.390 . S
C695 C692 1.386 . S
C696 C691 1.490 . S
C696 C698 1.395 . S
C696 C699 1.403 . S
H697 C703 0.930 . S
C698 H684 0.930 . S
C698 C696 1.395 . S
C698 C701 1.403 . S
C699 C696 1.403 . S
C699 C700 1.524 . S
C699 C703 1.400 . S
C700 H685 0.960 . S
C700 H686 0.960 . S
C700 H687 0.960 . S
C700 C699 1.524 . S
C701 C698 1.403 . S
C701 C702 1.392 . S
C701 C705 1.495 . S
C702 C701 1.392 . S
C702 C703 1.385 . S
C702 C704 1.478 . S
C703 H697 0.930 . S
C703 C699 1.400 . S
C703 C702 1.385 . S
C704 C702 1.478 . S
C704 C706 1.381 . S
C704 C710 1.383 . S
C705 C701 1.495 . S
C705 H711 0.959 . S
C705 H712 0.961 . S
C705 H713 0.960 . S
C706 C704 1.381 . S
C706 C707 1.394 . S
C706 H714 0.930 . S
C707 C706 1.394 . S
C707 C708 1.383 . S
C707 H715 0.929 . S
C708 C707 1.383 . S
C708 C709 1.377 . S
C709 H693 0.930 . S
C709 C708 1.377 . S
C709 C710 1.379 . S
C710 H694 0.931 . S
C710 C704 1.383 . S
C710 C709 1.379 . S
H711 C705 0.959 . S
H712 C705 0.961 . S
H713 C705 0.960 . S
H714 C706 0.930 . S
H715 C707 0.929 . S
H716 C724 0.929 . S
H717 C726 0.930 . S
H718 C728 0.930 . S
H719 C731 0.929 . S
H720 C734 0.930 . S
H721 C736 0.960 . S
H722 C736 0.960 . S
H723 C736 0.960 . S
C724 H716 0.929 . S
C724 C725 1.377 . S
C724 C726 1.384 . S
C725 C724 1.377 . S
C725 C731 1.390 . S
C726 H717 0.930 . S
C726 C724 1.384 . S
C726 C727 1.372 . S
C727 C726 1.372 . S
C727 C728 1.400 . S
C727 C732 1.490 . S
C728 H718 0.930 . S
C728 C727 1.400 . S
C728 C731 1.386 . S
H729 C745 0.930 . S
H730 C746 0.931 . S
C731 H719 0.929 . S
C731 C725 1.390 . S
C731 C728 1.386 . S
C732 C727 1.490 . S
C732 C734 1.395 . S
C732 C735 1.403 . S
H733 C739 0.930 . S
C734 H720 0.930 . S
C734 C732 1.395 . S
C734 C737 1.403 . S
C735 C732 1.403 . S
C735 C736 1.524 . S
C735 C739 1.400 . S
C736 H721 0.960 . S
C736 H722 0.960 . S
C736 H723 0.960 . S
C736 C735 1.524 . S
C737 C734 1.403 . S
C737 C738 1.392 . S
C737 C741 1.495 . S
C738 C737 1.392 . S
C738 C739 1.385 . S
C738 C740 1.478 . S
C739 H733 0.930 . S
C739 C735 1.400 . S
C739 C738 1.385 . S
C740 C738 1.478 . S
C740 C742 1.381 . S
C740 C746 1.383 . S
C741 C737 1.495 . S
C741 H747 0.959 . S
C741 H748 0.961 . S
C741 H749 0.960 . S
C742 C740 1.381 . S
C742 C743 1.394 . S
C742 H750 0.930 . S
C743 C742 1.394 . S
C743 C744 1.383 . S
C743 H751 0.929 . S
C744 C743 1.383 . S
C744 C745 1.377 . S
C745 H729 0.930 . S
C745 C744 1.377 . S
C745 C746 1.379 . S
C746 H730 0.931 . S
C746 C740 1.383 . S
C746 C745 1.379 . S
H747 C741 0.959 . S
H748 C741 0.961 . S
H749 C741 0.960 . S
H750 C742 0.930 . S
H751 C743 0.929 . S
H752 C760 0.929 . S
H753 C762 0.930 . S
H754 C764 0.930 . S
H755 C767 0.929 . S
H756 C770 0.930 . S
H757 C772 0.960 . S
H758 C772 0.960 . S
H759 C772 0.960 . S
C760 H752 0.929 . S
C760 C761 1.377 . S
C760 C762 1.384 . S
C761 C760 1.377 . S
C761 C767 1.390 . S
C762 H753 0.930 . S
C762 C760 1.384 . S
C762 C763 1.372 . S
C763 C762 1.372 . S
C763 C764 1.400 . S
C763 C768 1.490 . S
C764 H754 0.930 . S
C764 C763 1.400 . S
C764 C767 1.386 . S
H765 C781 0.930 . S
H766 C782 0.931 . S
C767 H755 0.929 . S
C767 C761 1.390 . S
C767 C764 1.386 . S
C768 C763 1.490 . S
C768 C770 1.395 . S
C768 C771 1.403 . S
H769 C775 0.930 . S
C770 H756 0.930 . S
C770 C768 1.395 . S
C770 C773 1.403 . S
C771 C768 1.403 . S
C771 C772 1.524 . S
C771 C775 1.400 . S
C772 H757 0.960 . S
C772 H758 0.960 . S
C772 H759 0.960 . S
C772 C771 1.524 . S
C773 C770 1.403 . S
C773 C774 1.392 . S
C773 C777 1.495 . S
C774 C773 1.392 . S
C774 C775 1.385 . S
C774 C776 1.478 . S
C775 H769 0.930 . S
C775 C771 1.400 . S
C775 C774 1.385 . S
C776 C774 1.478 . S
C776 C778 1.381 . S
C776 C782 1.383 . S
C777 C773 1.495 . S
C777 H783 0.959 . S
C777 H784 0.961 . S
C777 H785 0.960 . S
C778 C776 1.381 . S
C778 C779 1.394 . S
C778 H786 0.930 . S
C779 C778 1.394 . S
C779 C780 1.383 . S
C779 H787 0.929 . S
C780 C779 1.383 . S
C780 C781 1.377 . S
C781 H765 0.930 . S
C781 C780 1.377 . S
C781 C782 1.379 . S
C782 H766 0.931 . S
C782 C776 1.383 . S
C782 C781 1.379 . S
H783 C777 0.959 . S
H784 C777 0.961 . S
H785 C777 0.960 . S
H786 C778 0.930 . S
H787 C779 0.929 . S
H788 C796 0.929 . S
H789 C798 0.930 . S
H790 C800 0.930 . S
H791 C803 0.929 . S
H792 C806 0.930 . S
H793 C808 0.960 . S
H794 C808 0.960 . S
H795 C808 0.960 . S
C796 H788 0.929 . S
C796 C797 1.377 . S
C796 C798 1.384 . S
C797 C796 1.377 . S
C797 C803 1.390 . S
C798 H789 0.930 . S
C798 C796 1.384 . S
C798 C799 1.372 . S
C799 C798 1.372 . S
C799 C800 1.400 . S
C799 C804 1.490 . S
C800 H790 0.930 . S
C800 C799 1.400 . S
C800 C803 1.386 . S
H801 C817 0.930 . S
H802 C818 0.931 . S
C803 H791 0.929 . S
C803 C797 1.390 . S
C803 C800 1.386 . S
C804 C799 1.490 . S
C804 C806 1.395 . S
C804 C807 1.403 . S
H805 C811 0.930 . S
C806 H792 0.930 . S
C806 C804 1.395 . S
C806 C809 1.403 . S
C807 C804 1.403 . S
C807 C808 1.524 . S
C807 C811 1.400 . S
C808 H793 0.960 . S
C808 H794 0.960 . S
C808 H795 0.960 . S
C808 C807 1.524 . S
C809 C806 1.403 . S
C809 C810 1.392 . S
C809 C813 1.495 . S
C810 C809 1.392 . S
C810 C811 1.385 . S
C810 C812 1.478 . S
C811 H805 0.930 . S
C811 C807 1.400 . S
C811 C810 1.385 . S
C812 C810 1.478 . S
C812 C814 1.381 . S
C812 C818 1.383 . S
C813 C809 1.495 . S
C813 H819 0.959 . S
C813 H820 0.961 . S
C813 H821 0.960 . S
C814 C812 1.381 . S
C814 C815 1.394 . S
C814 H822 0.930 . S
C815 C814 1.394 . S
C815 C816 1.383 . S
C815 H823 0.929 . S
C816 C815 1.383 . S
C816 C817 1.377 . S
C817 H801 0.930 . S
C817 C816 1.377 . S
C817 C818 1.379 . S
C818 H802 0.931 . S
C818 C812 1.383 . S
C818 C817 1.379 . S
H819 C813 0.959 . S
H820 C813 0.961 . S
H821 C813 0.960 . S
H822 C814 0.930 . S
H823 C815 0.929 . S
H824 C832 0.929 . S
H825 C834 0.930 . S
H826 C836 0.930 . S
H827 C839 0.929 . S
H828 C842 0.930 . S
H829 C844 0.960 . S
H830 C844 0.960 . S
H831 C844 0.960 . S
C832 H824 0.929 . S
C832 C833 1.377 . S
C832 C834 1.384 . S
C833 C832 1.377 . S
C833 C839 1.390 . S
C834 H825 0.930 . S
C834 C832 1.384 . S
C834 C835 1.372 . S
C835 C834 1.372 . S
C835 C836 1.400 . S
C835 C840 1.490 . S
C836 H826 0.930 . S
C836 C835 1.400 . S
C836 C839 1.386 . S
H837 C853 0.930 . S
H838 C854 0.931 . S
C839 H827 0.929 . S
C839 C833 1.390 . S
C839 C836 1.386 . S
C840 C835 1.490 . S
C840 C842 1.395 . S
C840 C843 1.403 . S
H841 C847 0.930 . S
C842 H828 0.930 . S
C842 C840 1.395 . S
C842 C845 1.403 . S
C843 C840 1.403 . S
C843 C844 1.524 . S
C843 C847 1.400 . S
C844 H829 0.960 . S
C844 H830 0.960 . S
C844 H831 0.960 . S
C844 C843 1.524 . S
C845 C842 1.403 . S
C845 C846 1.392 . S
C845 C849 1.495 . S
C846 C845 1.392 . S
C846 C847 1.385 . S
C846 C848 1.478 . S
C847 H841 0.930 . S
C847 C843 1.400 . S
C847 C846 1.385 . S
C848 C846 1.478 . S
C848 C850 1.381 . S
C848 C854 1.383 . S
C849 C845 1.495 . S
C849 H855 0.959 . S
C849 H856 0.961 . S
C849 H857 0.960 . S
C850 C848 1.381 . S
C850 C851 1.394 . S
C850 H858 0.930 . S
C851 C850 1.394 . S
C851 C852 1.383 . S
C851 H859 0.929 . S
C852 C851 1.383 . S
C852 C853 1.377 . S
C853 H837 0.930 . S
C853 C852 1.377 . S
C853 C854 1.379 . S
C854 H838 0.931 . S
C854 C848 1.383 . S
C854 C853 1.379 . S
H855 C849 0.959 . S
H856 C849 0.961 . S
H857 C849 0.960 . S
H858 C850 0.930 . S
H859 C851 0.929 . S
H860 C868 0.929 . S
H861 C870 0.930 . S
H862 C872 0.930 . S
H863 C875 0.929 . S
H864 C878 0.930 . S
H865 C880 0.960 . S
H866 C880 0.960 . S
H867 C880 0.960 . S
C868 H860 0.929 . S
C868 C869 1.377 . S
C868 C870 1.384 . S
C869 C868 1.377 . S
C869 C875 1.390 . S
C870 H861 0.930 . S
C870 C868 1.384 . S
C870 C871 1.372 . S
C871 C870 1.372 . S
C871 C872 1.400 . S
C871 C876 1.490 . S
C872 H862 0.930 . S
C872 C871 1.400 . S
C872 C875 1.386 . S
H873 C889 0.930 . S
H874 C890 0.931 . S
C875 H863 0.929 . S
C875 C869 1.390 . S
C875 C872 1.386 . S
C876 C871 1.490 . S
C876 C878 1.395 . S
C876 C879 1.403 . S
H877 C883 0.930 . S
C878 H864 0.930 . S
C878 C876 1.395 . S
C878 C881 1.403 . S
C879 C876 1.403 . S
C879 C880 1.524 . S
C879 C883 1.400 . S
C880 H865 0.960 . S
C880 H866 0.960 . S
C880 H867 0.960 . S
C880 C879 1.524 . S
C881 C878 1.403 . S
C881 C882 1.392 . S
C881 C885 1.495 . S
C882 C881 1.392 . S
C882 C883 1.385 . S
C882 C884 1.478 . S
C883 H877 0.930 . S
C883 C879 1.400 . S
C883 C882 1.385 . S
C884 C882 1.478 . S
C884 C886 1.381 . S
C884 C890 1.383 . S
C885 C881 1.495 . S
C885 H891 0.959 . S
C885 H892 0.961 . S
C885 H893 0.960 . S
C886 C884 1.381 . S
C886 C887 1.394 . S
C886 H894 0.930 . S
C887 C886 1.394 . S
C887 C888 1.383 . S
C887 H895 0.929 . S
C888 C887 1.383 . S
C888 C889 1.377 . S
C889 H873 0.930 . S
C889 C888 1.377 . S
C889 C890 1.379 . S
C890 H874 0.931 . S
C890 C884 1.383 . S
C890 C889 1.379 . S
H891 C885 0.959 . S
H892 C885 0.961 . S
H893 C885 0.960 . S
H894 C886 0.930 . S
H895 C887 0.929 . S
H896 C904 0.929 . S
H897 C906 0.930 . S
H898 C908 0.930 . S
H899 C911 0.929 . S
H900 C914 0.930 . S
H901 C916 0.960 . S
H902 C916 0.960 . S
H903 C916 0.960 . S
C904 H896 0.929 . S
C904 C905 1.377 . S
C904 C906 1.384 . S
C905 C904 1.377 . S
C905 C911 1.390 . S
C906 H897 0.930 . S
C906 C904 1.384 . S
C906 C907 1.372 . S
C907 C906 1.372 . S
C907 C908 1.400 . S
C907 C912 1.490 . S
C908 H898 0.930 . S
C908 C907 1.400 . S
C908 C911 1.386 . S
H909 C925 0.930 . S
H910 C926 0.931 . S
C911 H899 0.929 . S
C911 C905 1.390 . S
C911 C908 1.386 . S
C912 C907 1.490 . S
C912 C914 1.395 . S
C912 C915 1.403 . S
H913 C919 0.930 . S
C914 H900 0.930 . S
C914 C912 1.395 . S
C914 C917 1.403 . S
C915 C912 1.403 . S
C915 C916 1.524 . S
C915 C919 1.400 . S
C916 H901 0.960 . S
C916 H902 0.960 . S
C916 H903 0.960 . S
C916 C915 1.524 . S
C917 C914 1.403 . S
C917 C918 1.392 . S
C917 C921 1.495 . S
C918 C917 1.392 . S
C918 C919 1.385 . S
C918 C920 1.478 . S
C919 H913 0.930 . S
C919 C915 1.400 . S
C919 C918 1.385 . S
C920 C918 1.478 . S
C920 C922 1.381 . S
C920 C926 1.383 . S
C921 C917 1.495 . S
C921 H927 0.959 . S
C921 H928 0.961 . S
C921 H929 0.960 . S
C922 C920 1.381 . S
C922 C923 1.394 . S
C922 H930 0.930 . S
C923 C922 1.394 . S
C923 C924 1.383 . S
C923 H931 0.929 . S
C924 C923 1.383 . S
C924 C925 1.377 . S
C925 H909 0.930 . S
C925 C924 1.377 . S
C925 C926 1.379 . S
C926 H910 0.931 . S
C926 C920 1.383 . S
C926 C925 1.379 . S
H927 C921 0.959 . S
H928 C921 0.961 . S
H929 C921 0.960 . S
H930 C922 0.930 . S
H931 C923 0.929 . S
H932 C940 0.929 . S
H933 C942 0.930 . S
H934 C944 0.930 . S
H935 C947 0.929 . S
H936 C950 0.930 . S
H937 C952 0.960 . S
H938 C952 0.960 . S
H939 C952 0.960 . S
C940 H932 0.929 . S
C940 C941 1.377 . S
C940 C942 1.384 . S
C941 C940 1.377 . S
C941 C947 1.390 . S
C942 H933 0.930 . S
C942 C940 1.384 . S
C942 C943 1.372 . S
C943 C942 1.372 . S
C943 C944 1.400 . S
C943 C948 1.490 . S
C944 H934 0.930 . S
C944 C943 1.400 . S
C944 C947 1.386 . S
H945 C961 0.930 . S
H946 C962 0.931 . S
C947 H935 0.929 . S
C947 C941 1.390 . S
C947 C944 1.386 . S
C948 C943 1.490 . S
C948 C950 1.395 . S
C948 C951 1.403 . S
H949 C955 0.930 . S
C950 H936 0.930 . S
C950 C948 1.395 . S
C950 C953 1.403 . S
C951 C948 1.403 . S
C951 C952 1.524 . S
C951 C955 1.400 . S
C952 H937 0.960 . S
C952 H938 0.960 . S
C952 H939 0.960 . S
C952 C951 1.524 . S
C953 C950 1.403 . S
C953 C954 1.392 . S
C953 C957 1.495 . S
C954 C953 1.392 . S
C954 C955 1.385 . S
C954 C956 1.478 . S
C955 H949 0.930 . S
C955 C951 1.400 . S
C955 C954 1.385 . S
C956 C954 1.478 . S
C956 C958 1.381 . S
C956 C962 1.383 . S
C957 C953 1.495 . S
C957 H963 0.959 . S
C957 H964 0.961 . S
C957 H965 0.960 . S
C958 C956 1.381 . S
C958 C959 1.394 . S
C958 H966 0.930 . S
C959 C958 1.394 . S
C959 C960 1.383 . S
C959 H967 0.929 . S
C960 C959 1.383 . S
C960 C961 1.377 . S
C961 H945 0.930 . S
C961 C960 1.377 . S
C961 C962 1.379 . S
C962 H946 0.931 . S
C962 C956 1.383 . S
C962 C961 1.379 . S
H963 C957 0.959 . S
H964 C957 0.961 . S
H965 C957 0.960 . S
H966 C958 0.930 . S
H967 C959 0.929 . S
H968 C976 0.929 . S
H969 C978 0.930 . S
H970 C980 0.930 . S
H971 C983 0.929 . S
H972 C986 0.930 . S
H973 C988 0.960 . S
H974 C988 0.960 . S
H975 C988 0.960 . S
C976 H968 0.929 . S
C976 C977 1.377 . S
C976 C978 1.384 . S
C977 C976 1.377 . S
C977 C983 1.390 . S
C978 H969 0.930 . S
C978 C976 1.384 . S
C978 C979 1.372 . S
C979 C978 1.372 . S
C979 C980 1.400 . S
C979 C984 1.490 . S
C980 H970 0.930 . S
C980 C979 1.400 . S
C980 C983 1.386 . S
H981 C997 0.930 . S
H982 C998 0.931 . S
C983 H971 0.929 . S
C983 C977 1.390 . S
C983 C980 1.386 . S
C984 C979 1.490 . S
C984 C986 1.395 . S
C984 C987 1.403 . S
H985 C991 0.930 . S
C986 H972 0.930 . S
C986 C984 1.395 . S
C986 C989 1.403 . S
C987 C984 1.403 . S
C987 C988 1.524 . S
C987 C991 1.400 . S
C988 H973 0.960 . S
C988 H974 0.960 . S
C988 H975 0.960 . S
C988 C987 1.524 . S
C989 C986 1.403 . S
C989 C990 1.392 . S
C989 C993 1.495 . S
C990 C989 1.392 . S
C990 C991 1.385 . S
C990 C992 1.478 . S
C991 H985 0.930 . S
C991 C987 1.400 . S
C991 C990 1.385 . S
C992 C990 1.478 . S
C992 C994 1.381 . S
C992 C998 1.383 . S
C993 C989 1.495 . S
C993 H999 0.959 . S
C993 H1000 0.961 . S
C993 H1001 0.960 . S
C994 C992 1.381 . S
C994 C995 1.394 . S
C994 H1002 0.930 . S
C995 C994 1.394 . S
C995 C996 1.383 . S
C995 H1003 0.929 . S
C996 C995 1.383 . S
C996 C997 1.377 . S
C997 H981 0.930 . S
C997 C996 1.377 . S
C997 C998 1.379 . S
C998 H982 0.931 . S
C998 C992 1.383 . S
C998 C997 1.379 . S
H999 C993 0.959 . S
H1000 C993 0.961 . S
H1001 C993 0.960 . S
H1002 C994 0.930 . S
H1003 C995 0.929 . S
H1004 C1012 0.929 . S
H1005 C1014 0.930 . S
H1006 C1016 0.930 . S
H1007 C1019 0.929 . S
H1008 C1022 0.930 . S
H1009 C1024 0.960 . S
H1010 C1024 0.960 . S
H1011 C1024 0.960 . S
C1012 H1004 0.929 . S
C1012 C1013 1.377 . S
C1012 C1014 1.384 . S
C1013 C1012 1.377 . S
C1013 C1019 1.390 . S
C1014 H1005 0.930 . S
C1014 C1012 1.384 . S
C1014 C1015 1.372 . S
C1015 C1014 1.372 . S
C1015 C1016 1.400 . S
C1015 C1020 1.490 . S
C1016 H1006 0.930 . S
C1016 C1015 1.400 . S
C1016 C1019 1.386 . S
H1017 C1033 0.930 . S
H1018 C1034 0.931 . S
C1019 H1007 0.929 . S
C1019 C1013 1.390 . S
C1019 C1016 1.386 . S
C1020 C1015 1.490 . S
C1020 C1022 1.395 . S
C1020 C1023 1.403 . S
H1021 C1027 0.930 . S
C1022 H1008 0.930 . S
C1022 C1020 1.395 . S
C1022 C1025 1.403 . S
C1023 C1020 1.403 . S
C1023 C1024 1.524 . S
C1023 C1027 1.400 . S
C1024 H1009 0.960 . S
C1024 H1010 0.960 . S
C1024 H1011 0.960 . S
C1024 C1023 1.524 . S
C1025 C1022 1.403 . S
C1025 C1026 1.392 . S
C1025 C1029 1.495 . S
C1026 C1025 1.392 . S
C1026 C1027 1.385 . S
C1026 C1028 1.478 . S
C1027 H1021 0.930 . S
C1027 C1023 1.400 . S
C1027 C1026 1.385 . S
C1028 C1026 1.478 . S
C1028 C1030 1.381 . S
C1028 C1034 1.383 . S
C1029 C1025 1.495 . S
C1029 H1035 0.959 . S
C1029 H1036 0.961 . S
C1029 H1037 0.960 . S
C1030 C1028 1.381 . S
C1030 C1031 1.394 . S
C1030 H1038 0.930 . S
C1031 C1030 1.394 . S
C1031 C1032 1.383 . S
C1031 H1039 0.929 . S
C1032 C1031 1.383 . S
C1032 C1033 1.377 . S
C1033 H1017 0.930 . S
C1033 C1032 1.377 . S
C1033 C1034 1.379 . S
C1034 H1018 0.931 . S
C1034 C1028 1.383 . S
C1034 C1033 1.379 . S
H1035 C1029 0.959 . S
H1036 C1029 0.961 . S
H1037 C1029 0.960 . S
H1038 C1030 0.930 . S
H1039 C1031 0.929 . S
C185 C96 1.646 . S
C204 C8 1.684 . S
C221 C19 1.687 . S
C240 C107 1.626 . S
C257 C118 1.650 . S
C276 C30 1.687 . S
C293 C41 1.689 . S
C312 C129 1.660 . S
C329 C52 1.689 . S
C348 C140 1.662 . S
C365 C151 1.649 . S
C384 C63 1.686 . S
C401 C162 1.649 . S
C420 C74 1.686 . S
C437 C173 1.647 . S
C456 C85 1.685 . S
C473 C7 1.586 . S
C492 C62 1.591 . S
C509 C73 1.585 . S
C528 C18 1.590 . S
C545 C84 1.584 . S
C564 C29 1.583 . S
C581 C40 1.581 . S
C600 C51 1.566 . S
C617 C95 1.521 . S
C636 C150 1.503 . S
C653 C161 1.532 . S
C672 C106 1.543 . S
C689 C117 1.533 . S
C708 C172 1.534 . S
C725 C139 1.522 . S
C744 C128 1.528 . S
C761 C137 1.379 . S
C780 C5 1.515 . S
C797 C148 1.380 . S
C816 C16 1.495 . S
C833 C27 1.480 . S
C852 C159 1.321 . S
C869 C170 1.384 . S
C888 C38 1.520 . S
C905 C49 1.482 . S
C924 C93 1.327 . S
C941 C104 1.367 . S
C960 C60 1.473 . S
C977 C115 1.384 . S
C996 C71 1.522 . S
C1013 C126 1.364 . S
C1032 C82 1.444 . S
