# Generated by pormake.
# Topology qdl, (4)-cn, num edge types: 1
# Building blocks:
#     Node 0, Type 0, BuildingBlock: KOZSID_clean_sbu_0, # of connection points: 4
#     Node 1, Type 0, BuildingBlock: KOZSID_clean_sbu_0, # of connection points: 4
#     Node 2, Type 0, BuildingBlock: KOZSID_clean_sbu_0, # of connection points: 4
#     Node 3, Type 0, BuildingBlock: KOZSID_clean_sbu_0, # of connection points: 4
#     Node 4, Type 0, BuildingBlock: KOZSID_clean_sbu_0, # of connection points: 4
#     Node 5, Type 0, BuildingBlock: KOZSID_clean_sbu_0, # of connection points: 4
#     Edge 6, Type (0, 0), BuildingBlock: ZUJKAS_clean_linker_0, # of connection points: 2
#     Edge 7, Type (0, 0), BuildingBlock: ZUJKAS_clean_linker_0, # of connection points: 2
#     Edge 8, Type (0, 0), BuildingBlock: ZUJKAS_clean_linker_0, # of connection points: 2
#     Edge 9, Type (0, 0), BuildingBlock: ZUJKAS_clean_linker_0, # of connection points: 2
#     Edge 10, Type (0, 0), BuildingBlock: ZUJKAS_clean_linker_0, # of connection points: 2
#     Edge 11, Type (0, 0), BuildingBlock: ZUJKAS_clean_linker_0, # of connection points: 2
#     Edge 12, Type (0, 0), BuildingBlock: ZUJKAS_clean_linker_0, # of connection points: 2
#     Edge 13, Type (0, 0), BuildingBlock: ZUJKAS_clean_linker_0, # of connection points: 2
#     Edge 14, Type (0, 0), BuildingBlock: ZUJKAS_clean_linker_0, # of connection points: 2
#     Edge 15, Type (0, 0), BuildingBlock: ZUJKAS_clean_linker_0, # of connection points: 2
#     Edge 16, Type (0, 0), BuildingBlock: ZUJKAS_clean_linker_0, # of connection points: 2
#     Edge 17, Type (0, 0), BuildingBlock: ZUJKAS_clean_linker_0, # of connection points: 2
# Relax obj value: 0.000
# Max RMSD: 0.050
# Mean RMSD: 0.047
data_MOF--net-qdl--node1-KOZSID_clean_sbu_0--edge1-ZUJKAS_clean_linker_0
_symmetry_space_group_name_H-M    P1
_symmetry_Int_Tables_number       1
_symmetry_cell_setting            triclinic
loop_
_symmetry_equiv_pos_as_xyz
'x, y, z'
_cell_length_a     21.186453
_cell_length_b     21.173828
_cell_length_c     143.5843
_cell_angle_alpha  101.65493
_cell_angle_beta   101.66079
_cell_angle_gamma 120.05186
loop_
_atom_site_label
_atom_site_type_symbol
_atom_site_fract_x
_atom_site_fract_y
_atom_site_fract_z
_atom_type_partial_charge
C0 C 0.2764 0.48403 0.09866 0.0
C1 C 0.2045 0.47423 0.09659 0.0
C2 C 0.14924 0.39578 0.09309 0.0
C3 C 0.19031 0.36231 0.09317 0.0
N4 N 0.26868 0.41467 0.09668 0.0
Co5 Co 0.35033 0.39159 0.09758 0.0
N6 N 0.26868 0.27606 0.09182 0.0
C7 C 0.19027 0.23955 0.0888 0.0
C8 C 0.14954 0.15968 0.08548 0.0
C9 C 0.20524 0.14416 0.08659 0.0
C10 C 0.27693 0.21583 0.09056 0.0
N11 N 0.4319 0.36854 0.09836 0.0
C12 C 0.42426 0.29922 0.09632 0.0
C13 C 0.49605 0.30901 0.09809 0.0
C14 C 0.55115 0.38743 0.10146 0.0
C15 C 0.5101 0.4209 0.10158 0.0
N16 N 0.43202 0.50707 0.10348 0.0
C17 C 0.51045 0.5435 0.1067 0.0
C18 C 0.55134 0.62341 0.11027 0.0
C19 C 0.49573 0.63907 0.10915 0.0
C20 C 0.42394 0.56743 0.1049 0.0
N21 N 0.35586 0.39002 0.11152 0.0
C22 C 0.36288 0.3831 0.13112 0.0
C23 C 0.43092 0.42246 0.12895 0.0
C24 C 0.42612 0.42517 0.11919 0.0
C25 C 0.29134 0.34775 0.12331 0.0
C26 C 0.2892 0.35201 0.11368 0.0
N27 N 0.34474 0.39307 0.08363 0.0
C28 C 0.40818 0.43999 0.07193 0.0
C29 C 0.33635 0.39786 0.06391 0.0
C30 C 0.2689 0.35301 0.06596 0.0
C31 C 0.27436 0.3517 0.07577 0.0
C32 C 0.41102 0.43659 0.08162 0.0
H33 H 0.22066 0.31686 0.07678 0.0
H34 H 0.46755 0.47018 0.08738 0.0
H35 H 0.48008 0.45575 0.11804 0.0
H36 H 0.2328 0.32337 0.10809 0.0
C37 C 0.15687 0.282 0.0896 0.0
C38 C 0.34993 0.55984 0.1019 0.0
C39 C 0.35113 0.22364 0.0934 0.0
C40 C 0.54366 0.5011 0.10551 0.0
H41 H 0.193 0.51901 0.09732 0.0
H42 H 0.08649 0.36654 0.09052 0.0
H43 H 0.08692 0.11784 0.08279 0.0
H44 H 0.19452 0.08669 0.08486 0.0
H45 H 0.50769 0.26433 0.09731 0.0
H46 H 0.61387 0.4167 0.1039 0.0
H47 H 0.61401 0.66522 0.11306 0.0
H48 H 0.50661 0.69663 0.111 0.0
H49 H 0.48793 0.45178 0.13476 0.0
H50 H 0.23678 0.31554 0.12454 0.0
H51 H 0.46224 0.47657 0.07082 0.0
H52 H 0.21178 0.31817 0.06 0.0
C53 C 0.38865 0.22692 0.42808 0.0
C54 C 0.46086 0.29746 0.43324 0.0
C55 C 0.44681 0.35405 0.43526 0.0
C56 C 0.36719 0.31493 0.43127 0.0
N57 N 0.32936 0.23657 0.42693 0.0
Co58 Co 0.2138 0.15729 0.42003 0.0
N59 N 0.19349 0.24113 0.42222 0.0
C60 C 0.24716 0.31925 0.42665 0.0
C61 C 0.21532 0.36182 0.42732 0.0
C62 C 0.13655 0.30773 0.4232 0.0
C63 C 0.12493 0.23498 0.42022 0.0
N64 N 0.09821 0.07798 0.4132 0.0
C65 C 0.03893 0.08759 0.41215 0.0
C66 C 0.96663 1.01696 0.40712 0.0
C67 C 0.98063 0.96035 0.40509 0.0
C68 C 0.0603 0.99956 0.40896 0.0
N69 N 0.23416 0.0735 0.41778 0.0
C70 C 0.18056 0.99546 0.4132 0.0
C71 C 0.21239 0.95291 0.41245 0.0
C72 C 0.29113 1.00697 0.41667 0.0
C73 C 0.30272 0.07966 0.41979 0.0
N74 N 0.20497 0.14907 0.43333 0.0
C75 C 0.18878 0.13777 0.4521 0.0
C76 C 0.15369 0.07083 0.44349 0.0
C77 C 0.1625 0.07775 0.43428 0.0
C78 C 0.23242 0.2104 0.45114 0.0
C79 C 0.23972 0.21466 0.44179 0.0
N80 N 0.22261 0.16562 0.40673 0.0
C81 C 0.19093 0.10519 0.38873 0.0
C82 C 0.23727 0.178 0.38793 0.0
C83 C 0.27619 0.2444 0.39673 0.0
C84 C 0.26804 0.23696 0.40594 0.0
C85 C 0.18456 0.10038 0.39811 0.0
H86 H 0.29956 0.28989 0.41232 0.0
H87 H 0.14856 0.04321 0.39819 0.0
H88 H 0.13412 0.02453 0.42802 0.0
H89 H 0.27322 0.27178 0.44159 0.0
C90 C 0.32668 0.35047 0.43083 0.0
C91 C 0.37972 0.15294 0.42404 0.0
C92 C 0.048 0.1617 0.41615 0.0
C93 C 0.10095 0.96419 0.4092 0.0
H94 H 0.51784 0.30706 0.43514 0.0
H95 H 0.48962 0.41645 0.43894 0.0
H96 H 0.24571 0.42455 0.43073 0.0
H97 H 0.09271 0.3204 0.42272 0.0
H98 H 0.90964 1.00733 0.4053 0.0
H99 H 0.93781 0.89791 0.40146 0.0
H100 H 0.18202 0.89022 0.40899 0.0
H101 H 0.335 0.99433 0.41716 0.0
H102 H 0.12008 1.0131 0.44386 0.0
H103 H 0.25988 0.26413 0.45752 0.0
H104 H 0.15875 0.0519 0.38213 0.0
H105 H 0.31389 0.30217 0.39658 0.0
C106 C 0.2144 0.4284 0.7576 0.0
C107 C 0.21184 0.49359 0.75857 0.0
C108 C 0.13603 0.4686 0.75693 0.0
C109 C 0.09678 0.38997 0.75506 0.0
N110 N 0.14313 0.36333 0.75552 0.0
Co111 Co 0.11016 0.25282 0.75314 0.0
N112 N 0.99744 0.21463 0.74944 0.0
C113 C 0.96711 0.25715 0.74859 0.0
C114 C 0.88754 0.2146 0.74592 0.0
C115 C 0.86578 0.14064 0.74513 0.0
C116 C 0.93376 0.14264 0.74743 0.0
N117 N 0.07745 0.14269 0.75114 0.0
C118 C 1.00634 0.07813 0.74928 0.0
C119 C 1.00965 1.01409 0.74912 0.0
C120 C 0.08576 0.03924 0.75105 0.0
C121 C 0.12443 0.1169 0.75233 0.0
N122 N 0.22264 0.29058 0.75647 0.0
C123 C 0.25256 0.24723 0.75667 0.0
C124 C 0.33141 0.28883 0.75868 0.0
C125 C 0.35299 0.36293 0.75961 0.0
C126 C 0.28569 0.36203 0.7581 0.0
N127 N 0.12169 0.27092 0.76771 0.0
C128 C 0.13349 0.29088 0.78817 0.0
C129 C 0.17434 0.26567 0.78393 0.0
C130 C 0.16739 0.2558 0.77378 0.0
C131 C 0.08721 0.3067 0.78203 0.0
C132 C 0.08264 0.29699 0.77194 0.0
N133 N 0.09876 0.23479 0.73859 0.0
C134 C 0.11714 0.18068 0.72365 0.0
C135 C 0.09064 0.21593 0.71823 0.0
C136 C 0.06695 0.2597 0.72316 0.0
C137 C 0.07112 0.26799 0.73322 0.0
C138 C 0.12085 0.19089 0.73371 0.0
H139 H 0.05254 0.30239 0.73653 0.0
H140 H 0.14238 0.16311 0.7374 0.0
H141 H 0.19897 0.23509 0.771 0.0
H142 H 0.04679 0.31059 0.76769 0.0
C143 C 1.01563 0.3383 0.75155 0.0
C144 C 0.2842 0.42974 0.7579 0.0
C145 C 0.93533 0.07594 0.7482 0.0
C146 C 0.20484 0.16736 0.7548 0.0
H147 H 0.25921 0.55255 0.75995 0.0
H148 H 0.11179 0.50294 0.75664 0.0
H149 H 0.8502 0.23556 0.74508 0.0
H150 H 0.80692 0.09131 0.74338 0.0
H151 H 0.9623 0.95562 0.74794 0.0
H152 H 0.11025 1.00536 0.75167 0.0
H153 H 0.36848 0.2675 0.75922 0.0
H154 H 0.41136 0.41187 0.76106 0.0
H155 H 0.21034 0.2519 0.78837 0.0
H156 H 0.05513 0.32723 0.78502 0.0
H157 H 0.13476 0.14485 0.72014 0.0
H158 H 0.04668 0.28896 0.71937 0.0
C159 C 1.00785 0.21247 0.58159 0.0
C160 C 1.01704 0.28408 0.58345 0.0
C161 C 0.09533 0.33973 0.58688 0.0
C162 C 0.12933 0.29918 0.58696 0.0
N163 N 0.07745 0.22075 0.58363 0.0
Co164 Co 0.10143 0.13973 0.58286 0.0
N165 N 0.2167 0.22208 0.58871 0.0
C166 C 0.2526 0.30048 0.59185 0.0
C167 C 0.33249 0.34183 0.59531 0.0
C168 C 0.34869 0.28659 0.59418 0.0
C169 C 0.27737 0.21452 0.59005 0.0
N170 N 0.12543 0.05872 0.58205 0.0
C171 C 0.19499 0.06698 0.58404 0.0
C172 C 0.18579 0.99534 0.58212 0.0
C173 C 0.10752 0.93969 0.57869 0.0
C174 C 0.07356 0.98029 0.57868 0.0
N175 N 0.98618 0.05741 0.57705 0.0
C176 C 0.9503 0.97905 0.57399 0.0
C177 C 0.87042 0.93767 0.57057 0.0
C178 C 0.85419 0.99288 0.57163 0.0
C179 C 0.92549 0.06497 0.5757 0.0
N180 N 0.10297 0.13416 0.56892 0.0
C181 C 0.11112 0.12711 0.54936 0.0
C182 C 0.0692 0.05897 0.55143 0.0
C183 C 0.06587 0.0638 0.56116 0.0
C184 C 0.14792 0.19874 0.55723 0.0
C185 C 0.14315 0.2009 0.56684 0.0
N186 N 0.10006 0.1454 0.59682 0.0
C187 C 0.05931 0.08175 0.60875 0.0
C188 C 0.09563 0.15372 0.61655 0.0
C189 C 0.13428 0.22136 0.61427 0.0
C190 C 0.1359 0.21593 0.60447 0.0
C191 C 0.06211 0.07897 0.59904 0.0
H192 H 0.16607 0.26972 0.60327 0.0
H193 H 0.03294 0.02233 0.59345 0.0
H194 H 0.03361 1.00978 0.56225 0.0
H195 H 0.17293 0.25738 0.57248 0.0
C196 C 0.20969 0.33327 0.59078 0.0
C197 C 0.93247 0.1388 0.57853 0.0
C198 C 0.27035 0.14069 0.58712 0.0
C199 C 0.99324 0.94628 0.57497 0.0
H200 H 0.97203 0.29522 0.58267 0.0
H201 H 0.12413 0.40244 0.58936 0.0
H202 H 0.37393 0.40458 0.59805 0.0
H203 H 0.40636 0.29787 0.59598 0.0
H204 H 0.23079 0.98419 0.58286 0.0
H205 H 0.0787 0.87698 0.57619 0.0
H206 H 0.829 0.87494 0.56786 0.0
H207 H 0.7965 0.98157 0.56983 0.0
H208 H 0.04022 1.00194 0.54563 0.0
H209 H 0.18 0.2533 0.556 0.0
H210 H 0.02939 0.02754 0.61014 0.0
H211 H 0.16232 0.2786 0.61996 0.0
C212 C 0.05773 0.27758 0.92283 0.0
C213 C 0.99368 0.28178 0.9221 0.0
C214 C 0.01995 0.35799 0.92378 0.0
C215 C 0.09817 0.39582 0.92545 0.0
N216 N 0.12334 0.34819 0.9248 0.0
Co217 Co 0.23299 0.37892 0.92702 0.0
N218 N 0.27306 0.49222 0.93064 0.0
C219 C 0.23162 0.52393 0.93135 0.0
C220 C 0.27521 0.60342 0.93388 0.0
C221 C 0.34871 0.62365 0.93469 0.0
C222 C 0.34543 0.55491 0.93256 0.0
N223 N 0.34247 0.40953 0.92906 0.0
C224 C 0.4079 0.48012 0.93096 0.0
C225 C 0.47137 0.47553 0.93129 0.0
C226 C 0.44494 0.39911 0.92941 0.0
C227 C 0.36717 0.36153 0.92801 0.0
N228 N 0.19312 0.26573 0.92358 0.0
C229 C 0.2349 0.23416 0.92316 0.0
C230 C 0.19179 0.15507 0.92098 0.0
C231 C 0.11833 0.13501 0.92016 0.0
C232 C 0.12111 0.20343 0.92191 0.0
N233 N 0.21483 0.36714 0.91243 0.0
C234 C 0.19373 0.35419 0.89193 0.0
C235 C 0.22192 0.31587 0.89629 0.0
C236 C 0.23237 0.32344 0.90647 0.0
C237 C 0.17585 0.3988 0.89797 0.0
C238 C 0.18617 0.40394 0.90809 0.0
N239 N 0.25109 0.39059 0.94158 0.0
C240 C 0.2983 0.36553 0.95627 0.0
C241 C 0.27055 0.40044 0.962 0.0
C242 C 0.23373 0.43122 0.95734 0.0
C243 C 0.22464 0.42564 0.94723 0.0
C244 C 0.28832 0.36156 0.9462 0.0
H245 H 0.1955 0.44965 0.94412 0.0
H246 H 0.31042 0.33381 0.94227 0.0
H247 H 0.2554 0.29389 0.90936 0.0
H248 H 0.17081 0.43831 0.91226 0.0
C249 C 0.15066 0.47675 0.92868 0.0
C250 C 0.05473 0.20671 0.92235 0.0
C251 C 0.41143 0.5517 0.93188 0.0
C252 C 0.31523 0.28092 0.92527 0.0
H253 H 0.93461 0.23518 0.92082 0.0
H254 H 0.98667 0.38335 0.92417 0.0
H255 H 0.25531 0.6417 0.93467 0.0
H256 H 0.39867 0.68203 0.93638 0.0
H257 H 0.53025 0.52219 0.9325 0.0
H258 H 0.47797 0.37361 0.92884 0.0
H259 H 0.21184 0.1169 0.92033 0.0
H260 H 0.06863 0.07693 0.91866 0.0
H261 H 0.23741 0.2813 0.89193 0.0
H262 H 0.15309 0.42894 0.89488 0.0
H263 H 0.32634 0.33979 0.95944 0.0
H264 H 0.21225 0.46002 0.96148 0.0
C265 C 0.26397 0.10512 0.2523 0.0
C266 C 0.193 0.03307 0.24728 0.0
C267 C 0.13681 0.04768 0.24536 0.0
C268 C 0.17642 0.12738 0.24932 0.0
N269 N 0.25477 0.16479 0.25355 0.0
Co270 Co 0.33453 0.28037 0.26052 0.0
N271 N 0.25122 0.30128 0.25843 0.0
C272 C 0.17305 0.24798 0.2541 0.0
C273 C 0.13091 0.28035 0.25359 0.0
C274 C 0.18541 0.35909 0.25772 0.0
C275 C 0.25786 0.37007 0.26048 0.0
N276 N 0.41431 0.39599 0.26741 0.0
C277 C 0.40515 0.45566 0.26854 0.0
C278 C 0.47619 0.52779 0.27342 0.0
C279 C 0.53241 0.51323 0.27536 0.0
C280 C 0.49271 0.43348 0.27154 0.0
N281 N 0.41779 0.25942 0.26266 0.0
C282 C 0.49589 0.31265 0.26715 0.0
C283 C 0.53802 0.28032 0.26773 0.0
C284 C 0.48357 0.2016 0.2635 0.0
C285 C 0.41115 0.19062 0.26061 0.0
N286 N 0.34236 0.28962 0.24722 0.0
C287 C 0.35277 0.30804 0.22852 0.0
C288 C 0.41992 0.34196 0.23704 0.0
C289 C 0.41345 0.3321 0.24622 0.0
C290 C 0.28038 0.26381 0.22951 0.0
C291 C 0.27656 0.25539 0.23882 0.0
N292 N 0.32659 0.2712 0.27382 0.0
C293 C 0.38759 0.3028 0.2918 0.0
C294 C 0.31498 0.25667 0.29265 0.0
C295 C 0.24839 0.21781 0.28388 0.0
C296 C 0.25544 0.22589 0.27466 0.0
C297 C 0.39201 0.30909 0.2824 0.0
H298 H 0.20239 0.19444 0.26831 0.0
H299 H 0.44907 0.34493 0.28228 0.0
H300 H 0.46681 0.36016 0.25243 0.0
H301 H 0.2196 0.22127 0.23903 0.0
C302 C 0.14134 0.16833 0.24988 0.0
C303 C 0.33782 0.11374 0.25633 0.0
C304 C 0.33118 0.44686 0.26456 0.0
C305 C 0.52763 0.39239 0.27118 0.0
H306 H 0.18259 0.97575 0.24544 0.0
H307 H 0.0743 1.00515 0.24181 0.0
H308 H 0.06819 0.25032 0.25032 0.0
H309 H 0.17343 0.40354 0.2584 0.0
H310 H 0.48659 0.58509 0.27517 0.0
H311 H 0.59494 0.55578 0.27885 0.0
H312 H 0.60072 0.31034 0.27105 0.0
H313 H 0.49558 0.15717 0.2628 0.0
H314 H 0.47747 0.3774 0.23671 0.0
H315 H 0.22653 0.23516 0.2231 0.0
H316 H 0.44102 0.33489 0.29837 0.0
H317 H 0.19075 0.18023 0.28406 0.0
H318 H 0.3275 0.16297 0.10822 0.0
H319 H 0.32893 0.05026 0.10982 0.0
H320 H 0.37695 0.01925 0.08204 0.0
H321 H 0.37607 0.13244 0.08051 0.0
H322 H 0.23374 0.895 0.09575 0.0
H323 H 0.54855 0.02551 0.10263 0.0
H324 H 0.50876 0.08353 0.10386 0.0
H325 H 0.49662 0.02974 0.09148 0.0
C326 C 0.33864 0.13196 0.10251 0.0
C327 C 0.3524 0.15592 0.0943 0.0
C328 C 0.33939 0.06791 0.10341 0.0
C329 C 0.3542 0.02734 0.09613 0.0
C330 C 0.36698 0.05084 0.08784 0.0
H331 H 0.37595 0.62303 0.08735 0.0
H332 H 0.3756 0.73669 0.08597 0.0
C333 C 0.36616 0.11491 0.08694 0.0
C334 C 0.35441 0.95926 0.0971 0.0
H335 H 0.46976 0.89072 0.10008 0.0
C336 C 0.28535 0.89405 0.09674 0.0
C337 C 0.42193 0.9585 0.09838 0.0
C338 C 0.49845 0.02825 0.0992 0.0
C339 C 0.28156 0.82721 0.09745 0.0
C340 C 0.34906 0.8264 0.09872 0.0
C341 C 0.41816 0.89169 0.0991 0.0
C342 C 0.34903 0.758 0.09959 0.0
C343 C 0.20494 0.75742 0.0966 0.0
C344 C 0.33517 0.73325 0.10777 0.0
C345 C 0.33524 0.66854 0.10853 0.0
C346 C 0.34947 0.62823 0.10115 0.0
C347 C 0.36443 0.6535 0.09306 0.0
C348 C 0.36433 0.71812 0.0923 0.0
H349 H 0.15489 0.76021 0.09316 0.0
H350 H 0.19464 0.70215 0.09194 0.0
H351 H 0.20657 0.75584 0.10432 0.0
H352 H 0.32484 0.76429 0.11358 0.0
H353 H 0.32441 0.64999 0.11487 0.0
H354 H 0.45248 0.19451 0.41072 0.0
H355 H 0.56642 0.19479 0.40937 0.0
H356 H 0.57546 0.11391 0.43459 0.0
H357 H 0.46096 0.11301 0.43585 0.0
H358 H 0.71635 0.27807 0.42436 0.0
H359 H 0.57511 0.95733 0.41228 0.0
H360 H 0.51988 1.00028 0.41181 0.0
H361 H 0.56647 0.99982 0.42371 0.0
C362 C 0.47899 0.17662 0.41592 0.0
C363 C 0.44845 0.1531 0.42332 0.0
C364 C 0.54374 0.17682 0.41516 0.0
C365 C 0.57847 0.15325 0.42178 0.0
C366 C 0.54845 0.13077 0.42928 0.0
H367 H 0.97647 0.12077 0.4296 0.0
H368 H 0.86256 0.12019 0.43105 0.0
C369 C 0.48364 0.13058 0.43004 0.0
C370 C 0.64716 0.15384 0.42094 0.0
H371 H 0.7118 0.03634 0.4161 0.0
C372 C 0.7154 0.22525 0.42252 0.0
C373 C 0.64547 0.08474 0.41855 0.0
C374 C 0.57267 1.00601 0.4164 0.0
C375 C 0.78266 0.22966 0.42191 0.0
C376 C 0.78095 0.16056 0.4195 0.0
C377 C 0.71275 0.08915 0.41795 0.0
C378 C 0.84952 0.16116 0.41861 0.0
C379 C 0.85545 0.30838 0.42405 0.0
C380 C 0.87895 0.18341 0.41106 0.0
C381 C 0.94373 0.18377 0.41024 0.0
C382 C 0.97952 0.1617 0.41696 0.0
C383 C 0.94955 0.1384 0.42441 0.0
C384 C 0.8848 0.13799 0.42522 0.0
H385 H 0.85306 0.35707 0.42819 0.0
H386 H 0.90826 0.31407 0.42862 0.0
H387 H 0.86154 0.31459 0.41674 0.0
H388 H 0.85149 0.19995 0.40576 0.0
H389 H 0.96588 0.20107 0.40439 0.0
H390 H 0.82827 0.93122 0.73372 0.0
H391 H 0.71479 0.82103 0.7352 0.0
H392 H 0.77747 0.96208 0.76607 0.0
H393 H 0.89012 0.07218 0.76452 0.0
H394 H 0.71419 0.74588 0.74919 0.0
H395 H 0.54718 0.87841 0.75308 0.0
H396 H 0.62773 0.91744 0.74858 0.0
H397 H 0.64589 0.9376 0.76197 0.0
C398 C 0.81719 0.93821 0.74078 0.0
C399 C 0.86704 1.00931 0.74902 0.0
C400 C 0.75277 0.87567 0.74162 0.0
C401 C 0.73724 0.88388 0.75069 0.0
C402 C 0.78755 0.95509 0.75894 0.0
H403 H 0.39362 0.57403 0.77238 0.0
H404 H 0.50503 0.68444 0.77061 0.0
C405 C 0.85186 1.01755 0.75809 0.0
C406 C 0.66976 0.81724 0.75164 0.0
H407 H 0.50089 0.75991 0.75627 0.0
C408 C 0.66727 0.74867 0.75068 0.0
C409 C 0.60887 0.82134 0.7536 0.0
C410 C 0.60689 0.89235 0.75428 0.0
C411 C 0.60608 0.68441 0.75182 0.0
C412 C 0.54539 0.68865 0.75382 0.0
C413 C 0.54776 0.75712 0.75477 0.0
C414 C 0.47851 0.6223 0.75489 0.0
C415 C 0.60766 0.61314 0.75108 0.0
C416 C 0.42663 0.55151 0.74661 0.0
C417 C 0.36338 0.48898 0.74762 0.0
C418 C 0.35097 0.49671 0.75689 0.0
C419 C 0.40245 0.56746 0.76516 0.0
C420 C 0.4657 0.63011 0.76415 0.0
H421 H 0.66676 0.6262 0.75199 0.0
H422 H 0.58876 0.58929 0.75696 0.0
H423 H 0.56671 0.5672 0.74349 0.0
H424 H 0.43486 0.54484 0.73936 0.0
H425 H 0.32391 0.43463 0.74116 0.0
H426 H 0.33245 0.16634 0.57246 0.0
H427 H 0.44502 0.1647 0.57086 0.0
H428 H 0.4744 0.11452 0.5985 0.0
H429 H 0.3613 0.11552 0.60001 0.0
H430 H 0.59987 0.25801 0.58481 0.0
H431 H 0.46679 0.94257 0.57785 0.0
H432 H 0.40966 0.98336 0.57674 0.0
H433 H 0.4635 0.99479 0.58908 0.0
C434 C 0.36316 0.15482 0.57814 0.0
C435 C 0.33868 0.14039 0.5863 0.0
C436 C 0.42713 0.15391 0.57725 0.0
C437 C 0.46712 0.13828 0.58448 0.0
C438 C 0.44326 0.1251 0.59273 0.0
H439 H 0.8695 0.11341 0.59312 0.0
H440 H 0.75627 0.11441 0.59452 0.0
C441 C 0.37926 0.12603 0.59363 0.0
C442 C 0.53476 0.13731 0.58347 0.0
H443 H 0.60162 0.02042 0.58042 0.0
C444 C 0.60026 0.20605 0.58381 0.0
C445 C 0.53482 0.06934 0.58217 0.0
C446 C 0.46473 0.99306 0.58134 0.0
C447 C 0.66664 0.20908 0.58305 0.0
C448 C 0.66676 0.14114 0.58176 0.0
C449 C 0.60121 0.07237 0.58141 0.0
C450 C 0.7347 0.14041 0.58086 0.0
C451 C 0.73672 0.28535 0.58387 0.0
C452 C 0.75911 0.15362 0.57264 0.0
C453 C 0.82353 0.15309 0.57186 0.0
C454 C 0.86397 0.13913 0.57926 0.0
C455 C 0.83895 0.12469 0.58738 0.0
C456 C 0.77458 0.12519 0.58816 0.0
H457 H 0.73443 0.3358 0.5873 0.0
H458 H 0.79176 0.29528 0.58853 0.0
H459 H 0.73826 0.28338 0.57614 0.0
H460 H 0.72809 0.1639 0.56682 0.0
H461 H 0.84187 0.16354 0.56549 0.0
H462 H 0.41638 0.59604 0.91549 0.0
H463 H 0.52714 0.70824 0.91395 0.0
H464 H 0.66679 0.7712 0.94491 0.0
H465 H 0.55604 0.65834 0.94638 0.0
H466 H 0.60783 0.86704 0.92572 0.0
H467 H 0.80432 0.7649 0.92879 0.0
H468 H 0.70116 0.70078 0.92626 0.0
H469 H 0.7674 0.76686 0.93899 0.0
C470 C 0.47108 0.63388 0.92191 0.0
C471 C 0.47879 0.61895 0.93101 0.0
C472 C 0.53398 0.6977 0.92105 0.0
C473 C 0.60539 0.7472 0.92926 0.0
C474 C 0.61267 0.73271 0.93842 0.0
H475 H 0.04972 0.16532 0.93896 0.0
H476 H 0.93903 0.05425 0.94069 0.0
C477 C 0.54969 0.66879 0.93928 0.0
C478 C 0.67163 0.81495 0.9283 0.0
H479 H 0.8586 0.89411 0.92895 0.0
C480 C 0.6626 0.87292 0.92639 0.0
C481 C 0.74288 0.82226 0.92918 0.0
C482 C 0.75462 0.76013 0.93083 0.0
C483 C 0.72354 0.93884 0.92548 0.0
C484 C 0.79476 0.94612 0.92636 0.0
C485 C 0.80384 0.88823 0.92829 0.0
C486 C 0.86077 1.01351 0.92531 0.0
C487 C 0.7118 1.00088 0.92379 0.0
C488 C 0.85341 0.02661 0.91607 0.0
C489 C 0.91638 0.08977 0.91509 0.0
C490 C 0.98731 0.14034 0.92334 0.0
C491 C 0.99502 0.12691 0.93255 0.0
C492 C 0.93215 0.06376 0.93352 0.0
H493 H 0.66185 0.99597 0.92577 0.0
H494 H 0.76515 0.06025 0.92839 0.0
H495 H 0.69949 0.99425 0.91564 0.0
H496 H 0.79927 0.98753 0.90959 0.0
H497 H 0.91002 0.09905 0.9079 0.0
H498 H 0.35314 0.56501 0.27965 0.0
H499 H 0.353 0.67858 0.2781 0.0
H500 H 0.30902 0.59447 0.24595 0.0
H501 H 0.30851 0.48082 0.24751 0.0
H502 H 0.45116 0.79284 0.27101 0.0
H503 H 0.13818 0.63293 0.24702 0.0
H504 H 0.17615 0.58971 0.25397 0.0
H505 H 0.19016 0.59661 0.24219 0.0
C506 C 0.34323 0.57114 0.27228 0.0
C507 C 0.3308 0.51508 0.26369 0.0
C508 C 0.34318 0.63561 0.27139 0.0
C509 C 0.33002 0.64422 0.26188 0.0
C510 C 0.31784 0.58807 0.2533 0.0
H511 H 0.31602 0.99648 0.24109 0.0
H512 H 0.31666 0.88279 0.24247 0.0
C513 C 0.31792 0.52368 0.2542 0.0
C514 C 0.331 0.71299 0.26098 0.0
H515 H 0.21869 0.76735 0.24946 0.0
C516 C 0.40031 0.78744 0.26634 0.0
C517 C 0.26455 0.70542 0.25485 0.0
C518 C 0.18777 0.62697 0.24924 0.0
C519 C 0.40532 0.85475 0.2656 0.0
C520 C 0.33882 0.84719 0.25949 0.0
C521 C 0.26956 0.77273 0.25412 0.0
C522 C 0.33953 0.91602 0.25868 0.0
C523 C 0.48209 0.93321 0.27121 0.0
C524 C 0.3514 0.97151 0.26731 0.0
C525 C 0.35095 0.0359 0.26652 0.0
C526 C 0.33802 0.04519 0.25707 0.0
C527 C 0.32588 0.98977 0.24843 0.0
C528 C 0.32626 0.92526 0.24922 0.0
H529 H 0.53172 0.92726 0.27338 0.0
H530 H 0.49349 0.97068 0.26652 0.0
H531 H 0.47985 0.96332 0.2783 0.0
H532 H 0.36031 0.9646 0.27464 0.0
H533 H 0.36022 0.07829 0.27325 0.0
H534 H 0.45472 0.30741 0.21942 0.0
H535 H 0.46253 0.32549 0.20328 0.0
H536 H 0.26877 0.34862 0.1991 0.0
H537 H 0.26215 0.33323 0.21536 0.0
H538 H 0.34776 0.23471 0.18387 0.0
H539 H 0.43139 0.54033 0.19469 0.0
H540 H 0.43762 0.49554 0.20397 0.0
H541 H 0.34518 0.47538 0.1969 0.0
C542 C 0.41448 0.31748 0.21514 0.0
C543 C 0.35794 0.31909 0.21872 0.0
C544 C 0.41872 0.32729 0.20589 0.0
C545 C 0.36698 0.33952 0.20006 0.0
C546 C 0.31024 0.34072 0.20356 0.0
H547 H 0.27213 0.39279 0.14175 0.0
H548 H 0.27476 0.38068 0.15837 0.0
C549 C 0.30592 0.33091 0.21281 0.0
C550 C 0.37062 0.34853 0.19016 0.0
H551 H 0.39371 0.47208 0.1771 0.0
C552 C 0.35841 0.28682 0.18241 0.0
C553 C 0.38438 0.41654 0.18826 0.0
C554 C 0.40112 0.48607 0.19642 0.0
C555 C 0.35743 0.29034 0.17271 0.0
C556 C 0.37055 0.35811 0.17079 0.0
C557 C 0.38353 0.42013 0.17858 0.0
C558 C 0.36959 0.36533 0.1607 0.0
C559 C 0.33998 0.22049 0.16454 0.0
C560 C 0.42271 0.36173 0.15653 0.0
C561 C 0.42084 0.36781 0.14696 0.0
C562 C 0.36618 0.3783 0.14141 0.0
C563 C 0.31405 0.38335 0.14572 0.0
C564 C 0.31585 0.37704 0.15526 0.0
H565 H 0.31149 0.16667 0.1664 0.0
H566 H 0.30152 0.20986 0.15706 0.0
H567 H 0.39546 0.23164 0.1638 0.0
H568 H 0.46574 0.3543 0.16067 0.0
H569 H 0.46148 0.3631 0.14386 0.0
H570 H 0.23888 0.22096 0.54491 0.0
H571 H 0.24772 0.21786 0.52814 0.0
H572 H 1.00732 0.02084 0.51386 0.0
H573 H 0.99699 0.02528 0.53061 0.0
H574 H 0.22496 0.09851 0.51251 0.0
H575 H 1.01268 0.17241 0.4999 0.0
H576 H 0.05292 0.18479 0.51299 0.0
H577 H 0.97539 0.08948 0.50385 0.0
C578 C 0.18748 0.1776 0.53821 0.0
C579 C 0.11696 0.12383 0.53913 0.0
C580 C 0.19285 0.17554 0.52863 0.0
C581 C 0.12787 0.11993 0.51975 0.0
C582 C 0.05779 0.06524 0.52061 0.0
H583 H 0.05767 0.03493 0.45531 0.0
H584 H 0.04305 0.02669 0.47158 0.0
C585 C 0.05228 0.0673 0.5302 0.0
C586 C 0.13413 0.11876 0.50961 0.0
H587 H 0.06155 0.13895 0.48772 0.0
C588 C 0.18931 0.10744 0.50709 0.0
C589 C 0.08741 0.13021 0.50253 0.0
C590 C 0.02921 0.14561 0.50496 0.0
C591 C 0.19867 0.10666 0.49767 0.0
C592 C 0.15255 0.11895 0.49064 0.0
C593 C 0.0968 0.12947 0.49311 0.0
C594 C 0.16228 0.12272 0.48077 0.0
C595 C 0.25703 0.09146 0.49527 0.0
C596 C 0.23397 0.17984 0.48052 0.0
C597 C 0.24274 0.18429 0.47124 0.0
C598 C 0.17972 0.1321 0.46198 0.0
C599 C 0.10777 0.07522 0.46226 0.0
C600 C 0.09912 0.07077 0.47156 0.0
H601 H 0.27074 0.06146 0.50002 0.0
H602 H 0.23509 0.05529 0.48712 0.0
H603 H 0.31219 0.14802 0.49687 0.0
H604 H 0.28308 0.22157 0.48753 0.0
H605 H 0.29913 0.22841 0.47131 0.0
H606 H 0.26435 0.36008 0.80501 0.0
H607 H 0.27229 0.37165 0.82257 0.0
H608 H 0.02204 0.25186 0.81305 0.0
H609 H 1.01402 0.24174 0.7955 0.0
H610 H 0.09275 0.37376 0.83035 0.0
H611 H 0.2182 0.20111 0.83405 0.0
H612 H 0.27702 0.28348 0.83075 0.0
H613 H 0.17996 0.20599 0.82199 0.0
C614 C 0.21101 0.3359 0.80666 0.0
C615 C 0.13851 0.29957 0.79887 0.0
C616 C 0.21557 0.34225 0.81669 0.0
C617 C 0.14759 0.31107 0.81911 0.0
C618 C 0.07525 0.27602 0.81137 0.0
H619 H 0.12693 0.22242 0.87534 0.0
H620 H 0.1123 0.21214 0.85765 0.0
C621 C 0.07075 0.27043 0.80135 0.0
C622 C 0.15191 0.31565 0.82971 0.0
H623 H 0.2187 0.27084 0.84935 0.0
C624 C 0.11993 0.35089 0.83449 0.0
C625 C 0.18617 0.28462 0.83507 0.0
C626 C 0.21653 0.24095 0.83017 0.0
C627 C 0.12234 0.35706 0.8445 0.0
C628 C 0.15981 0.32924 0.85001 0.0
C629 C 0.19075 0.29299 0.84518 0.0
C630 C 0.16667 0.33587 0.86073 0.0
C631 C 0.08308 0.39172 0.84896 0.0
C632 C 0.20251 0.40886 0.86839 0.0
C633 C 0.21017 0.4147 0.87849 0.0
C634 C 0.18354 0.34785 0.88116 0.0
C635 C 0.14842 0.27499 0.87351 0.0
C636 C 0.13992 0.26906 0.8634 0.0
H637 H 0.03741 0.38724 0.84291 0.0
H638 H 0.05574 0.36228 0.85398 0.0
H639 H 0.12726 0.45461 0.85355 0.0
H640 H 0.22573 0.46157 0.86659 0.0
H641 H 0.23862 0.47177 0.88425 0.0
H642 H 0.226 0.39877 0.0502 0.0
H643 H 0.21607 0.39881 0.03296 0.0
H644 H 0.42822 0.40813 0.03696 0.0
H645 H 0.43642 0.40379 0.05401 0.0
H646 H 0.31357 0.5059 0.02633 0.0
H647 H 0.2836 0.22674 0.01044 0.0
H648 H 0.27548 0.25625 0.0226 0.0
H649 H 0.37003 0.29576 0.0215 0.0
C650 C 0.26992 0.39946 0.04737 0.0
C651 C 0.3316 0.40043 0.0535 0.0
C652 C 0.26449 0.4002 0.03753 0.0
C653 C 0.32057 0.40201 0.03359 0.0
C654 C 0.3832 0.40483 0.03974 0.0
H655 H 0.39475 0.42598 0.97671 0.0
H656 H 0.40691 0.42769 0.99408 0.0
C657 C 0.3884 0.4035 0.04956 0.0
C658 C 0.31406 0.40231 0.0231 0.0
H659 H 0.30253 0.3044 1.00007 0.0
C660 C 0.3108 0.46163 0.02058 0.0
C661 C 0.3103 0.34442 0.01558 0.0
C662 C 0.30925 0.27675 0.01761 0.0
C663 C 0.30508 0.46531 0.01081 0.0
C664 C 0.3019 0.40779 1.00334 0.0
C665 C 0.30531 0.34859 1.00584 0.0
C666 C 0.29444 0.40762 0.99284 0.0
C667 C 0.30374 0.53138 0.00859 0.0
C668 C 0.22677 0.39496 0.98637 0.0
C669 C 0.21918 0.39309 0.97639 0.0
C670 C 0.27918 0.4038 0.97269 0.0
C671 C 0.34695 0.4165 0.97924 0.0
C672 C 0.35427 0.41798 0.98919 0.0
H673 H 0.32441 0.58005 0.01568 0.0
H674 H 0.34064 0.55455 1.00403 0.0
H675 H 0.24299 0.50934 1.00409 0.0
H676 H 0.17929 0.38537 0.98898 0.0
H677 H 0.16557 0.38166 0.97152 0.0
H678 H 0.20487 0.25057 0.30045 0.0
H679 H 0.1933 0.23646 0.31661 0.0
H680 H 0.39861 0.2324 0.32358 0.0
H681 H 0.41005 0.24515 0.30734 0.0
H682 H 0.17671 0.1153 0.32366 0.0
H683 H 0.44588 0.40433 0.34899 0.0
H684 H 0.4021 0.38135 0.33556 0.0
H685 H 0.45976 0.34586 0.33977 0.0
C686 C 0.24732 0.24607 0.30537 0.0
C687 C 0.30852 0.24914 0.30257 0.0
C688 C 0.24079 0.23842 0.31463 0.0
C689 C 0.29559 0.23432 0.32135 0.0
C690 C 0.35653 0.23695 0.31859 0.0
H691 H 0.24867 0.08308 0.37319 0.0
H692 H 0.26153 0.09497 0.35697 0.0
C693 C 0.36304 0.24441 0.30931 0.0
C694 C 0.28802 0.22603 0.33115 0.0
H695 H 0.37908 0.31711 0.35696 0.0
C696 C 0.22092 0.15936 0.33095 0.0
C697 C 0.34542 0.28404 0.34064 0.0
C698 C 0.41711 0.35833 0.34132 0.0
C699 C 0.21 0.14875 0.33998 0.0
C700 C 0.26816 0.20599 0.34947 0.0
C701 C 0.33491 0.27303 0.34968 0.0
C702 C 0.25997 0.19827 0.35927 0.0
C703 C 0.13564 0.07716 0.33931 0.0
C704 C 0.25606 0.2531 0.36602 0.0
C705 C 0.24833 0.24631 0.37528 0.0
C706 C 0.24499 0.18482 0.37802 0.0
C707 C 0.24959 0.13031 0.37126 0.0
C708 C 0.25713 0.13708 0.36199 0.0
H709 H 0.0896 0.04858 0.33165 0.0
H710 H 0.14787 0.03428 0.34082 0.0
H711 H 0.11282 0.09228 0.34508 0.0
H712 H 0.25817 0.30079 0.36407 0.0
H713 H 0.24396 0.28877 0.38022 0.0
H714 H 0.97351 0.05736 0.6218 0.0
H715 H 0.96958 0.06631 0.63891 0.0
H716 H 0.20684 0.26973 0.65195 0.0
H717 H 0.21209 0.26049 0.63492 0.0
H718 H 0.06922 0.06447 0.65545 0.0
H719 H 0.08401 0.34034 0.66489 0.0
H720 H 0.05924 0.28175 0.65201 0.0
H721 H 0.1593 0.34456 0.66052 0.0
C722 C 0.02519 0.10362 0.6283 0.0
C723 C 0.09305 0.15842 0.62695 0.0
C724 C 0.02262 0.10887 0.63807 0.0
C725 C 0.0875 0.16933 0.64668 0.0
C726 C 0.15558 0.22355 0.64539 0.0
H727 H 0.19638 0.21387 0.71007 0.0
H728 H 0.19229 0.19928 0.6926 0.0
C729 C 0.15836 0.21822 0.63564 0.0
C730 C 0.08451 0.17504 0.65703 0.0
H731 H 0.09683 0.29347 0.67838 0.0
C732 C 0.07496 0.11435 0.66045 0.0
C733 C 0.09118 0.23983 0.66349 0.0
C734 C 0.09832 0.30511 0.66004 0.0
C735 C 0.07365 0.11756 0.67028 0.0
C736 C 0.08271 0.18345 0.67685 0.0
C737 C 0.09051 0.24333 0.67334 0.0
C738 C 0.08453 0.19142 0.68741 0.0
C739 C 0.06195 0.0502 0.67353 0.0
C740 C 0.02589 0.19305 0.69033 0.0
C741 C 0.02758 0.20068 0.7003 0.0
C742 C 0.08849 0.20763 0.70759 0.0
C743 C 0.14769 0.20697 0.70463 0.0
C744 C 0.14565 0.19889 0.69465 0.0
H745 H 0.03807 0.99686 0.66691 0.0
H746 H 0.11898 0.06657 0.67858 0.0
H747 H 0.02177 0.03626 0.67785 0.0
H748 H 0.97832 0.18756 0.68485 0.0
H749 H 0.98056 0.20006 0.70225 0.0
loop_
_geom_bond_atom_site_label_1
_geom_bond_atom_site_label_2
_geom_bond_distance
_geom_bond_site_symmetry_2
_ccdc_geom_bond_type
C0 C1 1.443 . S
C0 N4 1.376 . S
C0 C38 1.389 . S
C1 C0 1.443 . S
C1 C2 1.340 . S
C1 H41 0.951 . S
C2 C1 1.340 . S
C2 C3 1.439 . S
C2 H42 0.950 . S
C3 C2 1.439 . S
C3 N4 1.374 . S
C3 C37 1.395 . S
N4 C0 1.376 . S
N4 C3 1.374 . S
N4 Co5 2.008 . S
Co5 N4 2.008 . S
Co5 N6 1.995 . S
Co5 N11 2.008 . S
Co5 N16 1.995 . S
Co5 N21 2.282 . S
Co5 N27 2.282 . S
N6 Co5 1.995 . S
N6 C7 1.376 . S
N6 C10 1.383 . S
C7 N6 1.376 . S
C7 C8 1.446 . S
C7 C37 1.391 . S
C8 C7 1.446 . S
C8 C9 1.339 . S
C8 H43 0.949 . S
C9 C8 1.339 . S
C9 C10 1.439 . S
C9 H44 0.950 . S
C10 N6 1.383 . S
C10 C9 1.439 . S
C10 C39 1.392 . S
N11 Co5 2.008 . S
N11 C12 1.376 . S
N11 C15 1.374 . S
C12 N11 1.376 . S
C12 C13 1.443 . S
C12 C39 1.389 . S
C13 C12 1.443 . S
C13 C14 1.340 . S
C13 H45 0.951 . S
C14 C13 1.340 . S
C14 C15 1.439 . S
C14 H46 0.950 . S
C15 N11 1.374 . S
C15 C14 1.439 . S
C15 C40 1.395 . S
N16 Co5 1.995 . S
N16 C17 1.376 . S
N16 C20 1.383 . S
C17 N16 1.376 . S
C17 C18 1.446 . S
C17 C40 1.391 . S
C18 C17 1.446 . S
C18 C19 1.339 . S
C18 H47 0.949 . S
C19 C18 1.339 . S
C19 C20 1.439 . S
C19 H48 0.950 . S
C20 N16 1.383 . S
C20 C19 1.439 . S
C20 C38 1.392 . S
N21 Co5 2.282 . S
N21 C24 1.332 . S
N21 C26 1.332 . S
C22 C23 1.386 . S
C22 C25 1.388 . S
C23 C22 1.386 . S
C23 C24 1.382 . S
C23 H49 0.950 . S
C24 N21 1.332 . S
C24 C23 1.382 . S
C24 H35 0.952 . S
C25 C22 1.388 . S
C25 C26 1.382 . S
C25 H50 0.950 . S
C26 N21 1.332 . S
C26 C25 1.382 . S
C26 H36 0.948 . S
N27 Co5 2.282 . S
N27 C31 1.332 . S
N27 C32 1.332 . S
C28 C29 1.388 . S
C28 C32 1.382 . S
C28 H51 0.950 . S
C29 C28 1.388 . S
C29 C30 1.386 . S
C30 C29 1.386 . S
C30 C31 1.382 . S
C30 H52 0.950 . S
C31 N27 1.332 . S
C31 C30 1.382 . S
C31 H33 0.952 . S
C32 N27 1.332 . S
C32 C28 1.382 . S
C32 H34 0.948 . S
H33 C31 0.952 . S
H34 C32 0.948 . S
H35 C24 0.952 . S
H36 C26 0.948 . S
C37 C3 1.395 . S
C37 C7 1.391 . S
C38 C0 1.389 . S
C38 C20 1.392 . S
C39 C10 1.392 . S
C39 C12 1.389 . S
C40 C15 1.395 . S
C40 C17 1.391 . S
H41 C1 0.951 . S
H42 C2 0.950 . S
H43 C8 0.949 . S
H44 C9 0.950 . S
H45 C13 0.951 . S
H46 C14 0.950 . S
H47 C18 0.949 . S
H48 C19 0.950 . S
H49 C23 0.950 . S
H50 C25 0.950 . S
H51 C28 0.950 . S
H52 C30 0.950 . S
C53 C54 1.443 . S
C53 N57 1.376 . S
C53 C91 1.389 . S
C54 C53 1.443 . S
C54 C55 1.340 . S
C54 H94 0.951 . S
C55 C54 1.340 . S
C55 C56 1.439 . S
C55 H95 0.950 . S
C56 C55 1.439 . S
C56 N57 1.374 . S
C56 C90 1.395 . S
N57 C53 1.376 . S
N57 C56 1.374 . S
N57 Co58 2.008 . S
Co58 N57 2.008 . S
Co58 N59 1.995 . S
Co58 N64 2.008 1_545 S
Co58 N69 1.995 1_545 S
Co58 N74 2.282 . S
Co58 N80 2.282 . S
N59 Co58 1.995 . S
N59 C60 1.376 . S
N59 C63 1.383 . S
C60 N59 1.376 . S
C60 C61 1.446 . S
C60 C90 1.391 . S
C61 C60 1.446 . S
C61 C62 1.339 . S
C61 H96 0.949 . S
C62 C61 1.339 . S
C62 C63 1.439 . S
C62 H97 0.950 . S
C63 N59 1.383 . S
C63 C62 1.439 . S
C63 C92 1.392 1_455 S
N64 Co58 2.008 1_565 S
N64 C65 1.376 1_455 S
N64 C68 1.374 1_455 S
C65 N64 1.376 1_655 S
C65 C66 1.443 . S
C65 C92 1.389 1_565 S
C66 C65 1.443 . S
C66 C67 1.340 . S
C66 H98 0.951 . S
C67 C66 1.340 . S
C67 C68 1.439 . S
C67 H99 0.950 . S
C68 N64 1.374 1_655 S
C68 C67 1.439 . S
C68 C93 1.395 1_655 S
N69 Co58 1.995 1_565 S
N69 C70 1.376 . S
N69 C73 1.383 . S
C70 N69 1.376 . S
C70 C71 1.446 . S
C70 C93 1.391 . S
C71 C70 1.446 . S
C71 C72 1.339 . S
C71 H100 0.949 . S
C72 C71 1.339 . S
C72 C73 1.439 . S
C72 H101 0.950 . S
C73 N69 1.383 . S
C73 C72 1.439 . S
C73 C91 1.392 1_565 S
N74 Co58 2.282 . S
N74 C77 1.332 1_545 S
N74 C79 1.332 . S
C75 C76 1.386 1_545 S
C75 C78 1.388 . S
C76 C75 1.386 1_565 S
C76 C77 1.382 . S
C76 H102 0.950 . S
C77 N74 1.332 1_565 S
C77 C76 1.382 . S
C77 H88 0.952 . S
C78 C75 1.388 . S
C78 C79 1.382 . S
C78 H103 0.950 . S
C79 N74 1.332 . S
C79 C78 1.382 . S
C79 H89 0.948 . S
N80 Co58 2.282 . S
N80 C84 1.332 . S
N80 C85 1.332 1_545 S
C81 C82 1.378 1_565 S
C81 C85 1.384 . S
C81 H104 0.958 . S
C82 C81 1.378 1_545 S
C82 C83 1.386 . S
C83 C82 1.386 . S
C83 C84 1.382 . S
C83 H105 0.950 . S
C84 N80 1.332 . S
C84 C83 1.382 . S
C84 H86 0.952 . S
C85 N80 1.332 1_565 S
C85 C81 1.384 . S
C85 H87 0.948 . S
H86 C84 0.952 . S
H87 C85 0.948 . S
H88 C77 0.952 . S
H89 C79 0.948 . S
C90 C56 1.395 . S
C90 C60 1.391 . S
C91 C53 1.389 . S
C91 C73 1.392 1_545 S
C92 C63 1.392 1_655 S
C92 C65 1.389 1_545 S
C93 C68 1.395 1_455 S
C93 C70 1.391 . S
H94 C54 0.951 . S
H95 C55 0.950 . S
H96 C61 0.949 . S
H97 C62 0.950 . S
H98 C66 0.951 . S
H99 C67 0.950 . S
H100 C71 0.949 . S
H101 C72 0.950 . S
H102 C76 0.950 . S
H103 C78 0.950 . S
H104 C81 0.958 . S
H105 C83 0.950 . S
C106 C107 1.443 . S
C106 N110 1.376 . S
C106 C144 1.389 . S
C107 C106 1.443 . S
C107 C108 1.340 . S
C107 H147 0.951 . S
C108 C107 1.340 . S
C108 C109 1.439 . S
C108 H148 0.950 . S
C109 C108 1.439 . S
C109 N110 1.374 . S
C109 C143 1.395 1_455 S
N110 C106 1.376 . S
N110 C109 1.374 . S
N110 Co111 2.008 . S
Co111 N110 2.008 . S
Co111 N112 1.995 1_455 S
Co111 N117 2.008 . S
Co111 N122 1.995 . S
Co111 N127 2.282 . S
Co111 N133 2.282 . S
N112 Co111 1.995 1_655 S
N112 C113 1.376 . S
N112 C116 1.383 . S
C113 N112 1.376 . S
C113 C114 1.446 . S
C113 C143 1.391 . S
C114 C113 1.446 . S
C114 C115 1.339 . S
C114 H149 0.949 . S
C115 C114 1.339 . S
C115 C116 1.439 . S
C115 H150 0.950 . S
C116 N112 1.383 . S
C116 C115 1.439 . S
C116 C145 1.392 . S
N117 Co111 2.008 . S
N117 C118 1.376 1_455 S
N117 C121 1.374 . S
C118 N117 1.376 1_655 S
C118 C119 1.443 . S
C118 C145 1.389 . S
C119 C118 1.443 . S
C119 C120 1.340 1_655 S
C119 H151 0.951 . S
C120 C119 1.340 1_455 S
C120 C121 1.439 . S
C120 H152 0.950 . S
C121 N117 1.374 . S
C121 C120 1.439 . S
C121 C146 1.395 . S
N122 Co111 1.995 . S
N122 C123 1.376 . S
N122 C126 1.383 . S
C123 N122 1.376 . S
C123 C124 1.446 . S
C123 C146 1.391 . S
C124 C123 1.446 . S
C124 C125 1.339 . S
C124 H153 0.949 . S
C125 C124 1.339 . S
C125 C126 1.439 . S
C125 H154 0.950 . S
C126 N122 1.383 . S
C126 C125 1.439 . S
C126 C144 1.392 . S
N127 Co111 2.282 . S
N127 C130 1.332 . S
N127 C132 1.332 . S
C128 C129 1.386 . S
C128 C131 1.388 . S
C129 C128 1.386 . S
C129 C130 1.382 . S
C129 H155 0.950 . S
C130 N127 1.332 . S
C130 C129 1.382 . S
C130 H141 0.952 . S
C131 C128 1.388 . S
C131 C132 1.382 . S
C131 H156 0.950 1_455 S
C132 N127 1.332 . S
C132 C131 1.382 . S
C132 H142 0.948 1_455 S
N133 Co111 2.282 . S
N133 C137 1.332 1_455 S
N133 C138 1.332 . S
C134 C135 1.388 . S
C134 C138 1.382 . S
C134 H157 0.950 . S
C135 C134 1.388 . S
C135 C136 1.386 1_455 S
C136 C135 1.386 1_655 S
C136 C137 1.382 . S
C136 H158 0.950 . S
C137 N133 1.332 1_655 S
C137 C136 1.382 . S
C137 H139 0.952 . S
C138 N133 1.332 . S
C138 C134 1.382 . S
C138 H140 0.948 . S
H139 C137 0.952 . S
H140 C138 0.948 . S
H141 C130 0.952 . S
H142 C132 0.948 1_655 S
C143 C109 1.395 1_655 S
C143 C113 1.391 . S
C144 C106 1.389 . S
C144 C126 1.392 . S
C145 C116 1.392 . S
C145 C118 1.389 . S
C146 C121 1.395 . S
C146 C123 1.391 . S
H147 C107 0.951 . S
H148 C108 0.950 . S
H149 C114 0.949 . S
H150 C115 0.950 . S
H151 C119 0.951 . S
H152 C120 0.950 . S
H153 C124 0.949 . S
H154 C125 0.950 . S
H155 C129 0.950 . S
H156 C131 0.950 1_655 S
H157 C134 0.950 . S
H158 C136 0.950 . S
C159 C160 1.443 . S
C159 N163 1.376 1_655 S
C159 C197 1.389 . S
C160 C159 1.443 . S
C160 C161 1.340 1_655 S
C160 H200 0.951 . S
C161 C160 1.340 1_455 S
C161 C162 1.439 . S
C161 H201 0.950 . S
C162 C161 1.439 . S
C162 N163 1.374 . S
C162 C196 1.395 . S
N163 C159 1.376 1_455 S
N163 C162 1.374 . S
N163 Co164 2.008 . S
Co164 N163 2.008 . S
Co164 N165 1.995 . S
Co164 N170 2.008 1_545 S
Co164 N175 1.995 1_445 S
Co164 N180 2.282 . S
Co164 N186 2.282 . S
N165 Co164 1.995 . S
N165 C166 1.376 . S
N165 C169 1.383 . S
C166 N165 1.376 . S
C166 C167 1.446 . S
C166 C196 1.391 . S
C167 C166 1.446 . S
C167 C168 1.339 . S
C167 H202 0.949 . S
C168 C167 1.339 . S
C168 C169 1.439 . S
C168 H203 0.950 . S
C169 N165 1.383 . S
C169 C168 1.439 . S
C169 C198 1.392 . S
N170 Co164 2.008 1_565 S
N170 C171 1.376 . S
N170 C174 1.374 1_455 S
C171 N170 1.376 . S
C171 C172 1.443 . S
C171 C198 1.389 1_565 S
C172 C171 1.443 . S
C172 C173 1.340 . S
C172 H204 0.951 . S
C173 C172 1.340 . S
C173 C174 1.439 1_455 S
C173 H205 0.948 . S
C174 N170 1.374 1_655 S
C174 C173 1.439 1_655 S
C174 C199 1.395 . S
N175 Co164 1.995 1_665 S
N175 C176 1.376 . S
N175 C179 1.383 . S
C176 N175 1.376 . S
C176 C177 1.446 . S
C176 C199 1.391 . S
C177 C176 1.446 . S
C177 C178 1.339 . S
C177 H206 0.949 . S
C178 C177 1.339 . S
C178 C179 1.439 . S
C178 H207 0.950 . S
C179 N175 1.383 . S
C179 C178 1.439 . S
C179 C197 1.392 1_565 S
N180 Co164 2.282 . S
N180 C183 1.332 1_445 S
N180 C185 1.332 . S
C181 C182 1.386 1_445 S
C181 C184 1.388 . S
C182 C181 1.386 1_665 S
C182 C183 1.382 . S
C182 H208 0.950 . S
C183 N180 1.332 1_665 S
C183 C182 1.382 . S
C183 H194 0.952 . S
C184 C181 1.388 . S
C184 C185 1.382 . S
C184 H209 0.950 . S
C185 N180 1.332 . S
C185 C184 1.382 . S
C185 H195 0.948 . S
N186 Co164 2.282 . S
N186 C190 1.332 . S
N186 C191 1.332 1_445 S
C187 C188 1.388 1_665 S
C187 C191 1.382 . S
C187 H210 0.950 . S
C188 C187 1.388 1_445 S
C188 C189 1.386 . S
C189 C188 1.386 . S
C189 C190 1.382 . S
C189 H211 0.950 . S
C190 N186 1.332 . S
C190 C189 1.382 . S
C190 H192 0.952 . S
C191 N186 1.332 1_665 S
C191 C187 1.382 . S
C191 H193 0.948 . S
H192 C190 0.952 . S
H193 C191 0.948 . S
H194 C183 0.952 . S
H195 C185 0.948 . S
C196 C162 1.395 . S
C196 C166 1.391 . S
C197 C159 1.389 . S
C197 C179 1.392 1_545 S
C198 C169 1.392 . S
C198 C171 1.389 1_545 S
C199 C174 1.395 . S
C199 C176 1.391 . S
H200 C160 0.951 . S
H201 C161 0.950 . S
H202 C167 0.949 . S
H203 C168 0.950 . S
H204 C172 0.951 . S
H205 C173 0.948 . S
H206 C177 0.949 . S
H207 C178 0.950 . S
H208 C182 0.950 . S
H209 C184 0.950 . S
H210 C187 0.950 . S
H211 C189 0.950 . S
C212 C213 1.443 1_455 S
C212 N216 1.376 . S
C212 C250 1.389 . S
C213 C212 1.443 1_655 S
C213 C214 1.340 . S
C213 H253 0.951 . S
C214 C213 1.340 . S
C214 C215 1.439 1_655 S
C214 H254 0.950 . S
C215 C214 1.439 1_455 S
C215 N216 1.374 . S
C215 C249 1.395 . S
N216 C212 1.376 . S
N216 C215 1.374 . S
N216 Co217 2.008 . S
Co217 N216 2.008 . S
Co217 N218 1.995 . S
Co217 N223 2.008 . S
Co217 N228 1.995 . S
Co217 N233 2.282 . S
Co217 N239 2.282 . S
N218 Co217 1.995 . S
N218 C219 1.376 . S
N218 C222 1.383 . S
C219 N218 1.376 . S
C219 C220 1.446 . S
C219 C249 1.391 . S
C220 C219 1.446 . S
C220 C221 1.339 . S
C220 H255 0.949 . S
C221 C220 1.339 . S
C221 C222 1.439 . S
C221 H256 0.950 . S
C222 N218 1.383 . S
C222 C221 1.439 . S
C222 C251 1.392 . S
N223 Co217 2.008 . S
N223 C224 1.376 . S
N223 C227 1.374 . S
C224 N223 1.376 . S
C224 C225 1.443 . S
C224 C251 1.389 . S
C225 C224 1.443 . S
C225 C226 1.340 . S
C225 H257 0.951 . S
C226 C225 1.340 . S
C226 C227 1.439 . S
C226 H258 0.950 . S
C227 N223 1.374 . S
C227 C226 1.439 . S
C227 C252 1.395 . S
N228 Co217 1.995 . S
N228 C229 1.376 . S
N228 C232 1.383 . S
C229 N228 1.376 . S
C229 C230 1.446 . S
C229 C252 1.391 . S
C230 C229 1.446 . S
C230 C231 1.339 . S
C230 H259 0.949 . S
C231 C230 1.339 . S
C231 C232 1.439 . S
C231 H260 0.950 . S
C232 N228 1.383 . S
C232 C231 1.439 . S
C232 C250 1.392 . S
N233 Co217 2.282 . S
N233 C236 1.332 . S
N233 C238 1.332 . S
C234 C235 1.386 . S
C234 C237 1.388 . S
C235 C234 1.386 . S
C235 C236 1.382 . S
C235 H261 0.950 . S
C236 N233 1.332 . S
C236 C235 1.382 . S
C236 H247 0.952 . S
C237 C234 1.388 . S
C237 C238 1.382 . S
C237 H262 0.950 . S
C238 N233 1.332 . S
C238 C237 1.382 . S
C238 H248 0.948 . S
N239 Co217 2.282 . S
N239 C243 1.332 . S
N239 C244 1.332 . S
C240 C241 1.388 . S
C240 C244 1.382 . S
C240 H263 0.950 . S
C241 C240 1.388 . S
C241 C242 1.386 . S
C242 C241 1.386 . S
C242 C243 1.382 . S
C242 H264 0.950 . S
C243 N239 1.332 . S
C243 C242 1.382 . S
C243 H245 0.952 . S
C244 N239 1.332 . S
C244 C240 1.382 . S
C244 H246 0.948 . S
H245 C243 0.952 . S
H246 C244 0.948 . S
H247 C236 0.952 . S
H248 C238 0.948 . S
C249 C215 1.395 . S
C249 C219 1.391 . S
C250 C212 1.389 . S
C250 C232 1.392 . S
C251 C222 1.392 . S
C251 C224 1.389 . S
C252 C227 1.395 . S
C252 C229 1.391 . S
H253 C213 0.951 . S
H254 C214 0.950 . S
H255 C220 0.949 . S
H256 C221 0.950 . S
H257 C225 0.951 . S
H258 C226 0.950 . S
H259 C230 0.949 . S
H260 C231 0.950 . S
H261 C235 0.950 . S
H262 C237 0.950 . S
H263 C240 0.950 . S
H264 C242 0.950 . S
C265 C266 1.443 . S
C265 N269 1.376 . S
C265 C303 1.389 . S
C266 C265 1.443 . S
C266 C267 1.340 . S
C266 H306 0.951 . S
C267 C266 1.340 . S
C267 C268 1.439 . S
C267 H307 0.950 . S
C268 C267 1.439 . S
C268 N269 1.374 . S
C268 C302 1.395 . S
N269 C265 1.376 . S
N269 C268 1.374 . S
N269 Co270 2.008 . S
Co270 N269 2.008 . S
Co270 N271 1.995 . S
Co270 N276 2.008 . S
Co270 N281 1.995 . S
Co270 N286 2.282 . S
Co270 N292 2.282 . S
N271 Co270 1.995 . S
N271 C272 1.376 . S
N271 C275 1.383 . S
C272 N271 1.376 . S
C272 C273 1.446 . S
C272 C302 1.391 . S
C273 C272 1.446 . S
C273 C274 1.339 . S
C273 H308 0.949 . S
C274 C273 1.339 . S
C274 C275 1.439 . S
C274 H309 0.950 . S
C275 N271 1.383 . S
C275 C274 1.439 . S
C275 C304 1.392 . S
N276 Co270 2.008 . S
N276 C277 1.376 . S
N276 C280 1.374 . S
C277 N276 1.376 . S
C277 C278 1.443 . S
C277 C304 1.389 . S
C278 C277 1.443 . S
C278 C279 1.340 . S
C278 H310 0.951 . S
C279 C278 1.340 . S
C279 C280 1.439 . S
C279 H311 0.950 . S
C280 N276 1.374 . S
C280 C279 1.439 . S
C280 C305 1.395 . S
N281 Co270 1.995 . S
N281 C282 1.376 . S
N281 C285 1.383 . S
C282 N281 1.376 . S
C282 C283 1.446 . S
C282 C305 1.391 . S
C283 C282 1.446 . S
C283 C284 1.339 . S
C283 H312 0.949 . S
C284 C283 1.339 . S
C284 C285 1.439 . S
C284 H313 0.950 . S
C285 N281 1.383 . S
C285 C284 1.439 . S
C285 C303 1.392 . S
N286 Co270 2.282 . S
N286 C289 1.332 . S
N286 C291 1.332 . S
C287 C288 1.386 . S
C287 C290 1.388 . S
C288 C287 1.386 . S
C288 C289 1.382 . S
C288 H314 0.950 . S
C289 N286 1.332 . S
C289 C288 1.382 . S
C289 H300 0.952 . S
C290 C287 1.388 . S
C290 C291 1.382 . S
C290 H315 0.950 . S
C291 N286 1.332 . S
C291 C290 1.382 . S
C291 H301 0.948 . S
N292 Co270 2.282 . S
N292 C296 1.332 . S
N292 C297 1.332 . S
C293 C294 1.388 . S
C293 C297 1.382 . S
C293 H316 0.950 . S
C294 C293 1.388 . S
C294 C295 1.386 . S
C295 C294 1.386 . S
C295 C296 1.382 . S
C295 H317 0.950 . S
C296 N292 1.332 . S
C296 C295 1.382 . S
C296 H298 0.952 . S
C297 N292 1.332 . S
C297 C293 1.382 . S
C297 H299 0.948 . S
H298 C296 0.952 . S
H299 C297 0.948 . S
H300 C289 0.952 . S
H301 C291 0.948 . S
C302 C268 1.395 . S
C302 C272 1.391 . S
C303 C265 1.389 . S
C303 C285 1.392 . S
C304 C275 1.392 . S
C304 C277 1.389 . S
C305 C280 1.395 . S
C305 C282 1.391 . S
H306 C266 0.951 . S
H307 C267 0.950 . S
H308 C273 0.949 . S
H309 C274 0.950 . S
H310 C278 0.951 . S
H311 C279 0.950 . S
H312 C283 0.949 . S
H313 C284 0.950 . S
H314 C288 0.950 . S
H315 C290 0.950 . S
H316 C293 0.950 . S
H317 C295 0.950 . S
H318 C326 0.929 . S
H319 C328 0.930 . S
H320 C330 0.930 . S
H321 C333 0.929 . S
H322 C336 0.930 . S
H323 C338 0.960 . S
H324 C338 0.960 . S
H325 C338 0.960 . S
C326 H318 0.929 . S
C326 C327 1.377 . S
C326 C328 1.384 . S
C327 C326 1.377 . S
C327 C333 1.390 . S
C328 H319 0.930 . S
C328 C326 1.384 . S
C328 C329 1.372 . S
C329 C328 1.372 . S
C329 C330 1.400 . S
C329 C334 1.490 1_545 S
C330 H320 0.930 . S
C330 C329 1.400 . S
C330 C333 1.386 . S
H331 C347 0.930 . S
H332 C348 0.931 . S
C333 H321 0.929 . S
C333 C327 1.390 . S
C333 C330 1.386 . S
C334 C329 1.490 1_565 S
C334 C336 1.395 . S
C334 C337 1.403 . S
H335 C341 0.930 . S
C336 H322 0.930 . S
C336 C334 1.395 . S
C336 C339 1.403 . S
C337 C334 1.403 . S
C337 C338 1.524 1_565 S
C337 C341 1.400 . S
C338 H323 0.960 . S
C338 H324 0.960 . S
C338 H325 0.960 . S
C338 C337 1.524 1_545 S
C339 C336 1.403 . S
C339 C340 1.392 . S
C339 C343 1.495 . S
C340 C339 1.392 . S
C340 C341 1.385 . S
C340 C342 1.478 . S
C341 H335 0.930 . S
C341 C337 1.400 . S
C341 C340 1.385 . S
C342 C340 1.478 . S
C342 C344 1.381 . S
C342 C348 1.383 . S
C343 C339 1.495 . S
C343 H349 0.959 . S
C343 H350 0.961 . S
C343 H351 0.960 . S
C344 C342 1.381 . S
C344 C345 1.394 . S
C344 H352 0.930 . S
C345 C344 1.394 . S
C345 C346 1.383 . S
C345 H353 0.929 . S
C346 C345 1.383 . S
C346 C347 1.377 . S
C347 H331 0.930 . S
C347 C346 1.377 . S
C347 C348 1.379 . S
C348 H332 0.931 . S
C348 C342 1.383 . S
C348 C347 1.379 . S
H349 C343 0.959 . S
H350 C343 0.961 . S
H351 C343 0.960 . S
H352 C344 0.930 . S
H353 C345 0.929 . S
H354 C362 0.929 . S
H355 C364 0.930 . S
H356 C366 0.930 1_565 S
H357 C369 0.929 1_565 S
H358 C372 0.930 . S
H359 C374 0.960 . S
H360 C374 0.960 . S
H361 C374 0.960 . S
C362 H354 0.929 . S
C362 C363 1.377 . S
C362 C364 1.384 . S
C363 C362 1.377 . S
C363 C369 1.390 . S
C364 H355 0.930 . S
C364 C362 1.384 . S
C364 C365 1.372 . S
C365 C364 1.372 . S
C365 C366 1.400 . S
C365 C370 1.490 . S
C366 H356 0.930 1_545 S
C366 C365 1.400 . S
C366 C369 1.386 . S
H367 C383 0.930 1_565 S
H368 C384 0.931 . S
C369 H357 0.929 1_545 S
C369 C363 1.390 . S
C369 C366 1.386 . S
C370 C365 1.490 . S
C370 C372 1.395 . S
C370 C373 1.403 1_545 S
H371 C377 0.930 . S
C372 H358 0.930 . S
C372 C370 1.395 . S
C372 C375 1.403 . S
C373 C370 1.403 1_565 S
C373 C374 1.524 . S
C373 C377 1.400 . S
C374 H359 0.960 . S
C374 H360 0.960 . S
C374 H361 0.960 . S
C374 C373 1.524 . S
C375 C372 1.403 . S
C375 C376 1.392 . S
C375 C379 1.495 . S
C376 C375 1.392 . S
C376 C377 1.385 1_545 S
C376 C378 1.478 . S
C377 H371 0.930 . S
C377 C373 1.400 . S
C377 C376 1.385 1_565 S
C378 C376 1.478 . S
C378 C380 1.381 . S
C378 C384 1.383 . S
C379 C375 1.495 . S
C379 H385 0.959 . S
C379 H386 0.961 . S
C379 H387 0.960 . S
C380 C378 1.381 . S
C380 C381 1.394 . S
C380 H388 0.930 . S
C381 C380 1.394 . S
C381 C382 1.383 . S
C381 H389 0.929 . S
C382 C381 1.383 . S
C382 C383 1.377 . S
C383 H367 0.930 1_545 S
C383 C382 1.377 . S
C383 C384 1.379 . S
C384 H368 0.931 . S
C384 C378 1.383 . S
C384 C383 1.379 . S
H385 C379 0.959 . S
H386 C379 0.961 . S
H387 C379 0.960 . S
H388 C380 0.930 . S
H389 C381 0.929 . S
H390 C398 0.929 . S
H391 C400 0.930 . S
H392 C402 0.930 . S
H393 C405 0.929 . S
H394 C408 0.930 . S
H395 C410 0.960 . S
H396 C410 0.960 . S
H397 C410 0.960 . S
C398 H390 0.929 . S
C398 C399 1.377 1_565 S
C398 C400 1.384 . S
C399 C398 1.377 1_545 S
C399 C405 1.390 . S
C400 H391 0.930 . S
C400 C398 1.384 . S
C400 C401 1.372 . S
C401 C400 1.372 . S
C401 C402 1.400 . S
C401 C406 1.490 . S
C402 H392 0.930 . S
C402 C401 1.400 . S
C402 C405 1.386 1_565 S
H403 C419 0.930 . S
H404 C420 0.931 . S
C405 H393 0.929 . S
C405 C399 1.390 . S
C405 C402 1.386 1_545 S
C406 C401 1.490 . S
C406 C408 1.395 . S
C406 C409 1.403 . S
H407 C413 0.930 . S
C408 H394 0.930 . S
C408 C406 1.395 . S
C408 C411 1.403 . S
C409 C406 1.403 . S
C409 C410 1.524 . S
C409 C413 1.400 . S
C410 H395 0.960 . S
C410 H396 0.960 . S
C410 H397 0.960 . S
C410 C409 1.524 . S
C411 C408 1.403 . S
C411 C412 1.392 . S
C411 C415 1.495 . S
C412 C411 1.392 . S
C412 C413 1.385 . S
C412 C414 1.478 . S
C413 H407 0.930 . S
C413 C409 1.400 . S
C413 C412 1.385 . S
C414 C412 1.478 . S
C414 C416 1.381 . S
C414 C420 1.383 . S
C415 C411 1.495 . S
C415 H421 0.959 . S
C415 H422 0.961 . S
C415 H423 0.960 . S
C416 C414 1.381 . S
C416 C417 1.394 . S
C416 H424 0.930 . S
C417 C416 1.394 . S
C417 C418 1.383 . S
C417 H425 0.929 . S
C418 C417 1.383 . S
C418 C419 1.377 . S
C419 H403 0.930 . S
C419 C418 1.377 . S
C419 C420 1.379 . S
C420 H404 0.931 . S
C420 C414 1.383 . S
C420 C419 1.379 . S
H421 C415 0.959 . S
H422 C415 0.961 . S
H423 C415 0.960 . S
H424 C416 0.930 . S
H425 C417 0.929 . S
H426 C434 0.929 . S
H427 C436 0.930 . S
H428 C438 0.930 1_565 S
H429 C441 0.929 1_565 S
H430 C444 0.930 . S
H431 C446 0.960 . S
H432 C446 0.960 . S
H433 C446 0.960 . S
C434 H426 0.929 . S
C434 C435 1.377 . S
C434 C436 1.384 . S
C435 C434 1.377 . S
C435 C441 1.390 . S
C436 H427 0.930 . S
C436 C434 1.384 . S
C436 C437 1.372 . S
C437 C436 1.372 . S
C437 C438 1.400 . S
C437 C442 1.490 . S
C438 H428 0.930 1_545 S
C438 C437 1.400 . S
C438 C441 1.386 . S
H439 C455 0.930 . S
H440 C456 0.931 . S
C441 H429 0.929 1_545 S
C441 C435 1.390 . S
C441 C438 1.386 . S
C442 C437 1.490 . S
C442 C444 1.395 . S
C442 C445 1.403 1_545 S
H443 C449 0.930 . S
C444 H430 0.930 . S
C444 C442 1.395 . S
C444 C447 1.403 . S
C445 C442 1.403 1_565 S
C445 C446 1.524 . S
C445 C449 1.400 . S
C446 H431 0.960 . S
C446 H432 0.960 . S
C446 H433 0.960 . S
C446 C445 1.524 . S
C447 C444 1.403 . S
C447 C448 1.392 . S
C447 C451 1.495 . S
C448 C447 1.392 . S
C448 C449 1.385 1_545 S
C448 C450 1.478 . S
C449 H443 0.930 . S
C449 C445 1.400 . S
C449 C448 1.385 1_565 S
C450 C448 1.478 . S
C450 C452 1.381 . S
C450 C456 1.383 . S
C451 C447 1.495 . S
C451 H457 0.959 . S
C451 H458 0.961 . S
C451 H459 0.960 . S
C452 C450 1.381 . S
C452 C453 1.394 . S
C452 H460 0.930 . S
C453 C452 1.394 . S
C453 C454 1.383 . S
C453 H461 0.929 . S
C454 C453 1.383 . S
C454 C455 1.377 . S
C455 H439 0.930 . S
C455 C454 1.377 . S
C455 C456 1.379 . S
C456 H440 0.931 . S
C456 C450 1.383 . S
C456 C455 1.379 . S
H457 C451 0.959 . S
H458 C451 0.961 . S
H459 C451 0.960 . S
H460 C452 0.930 . S
H461 C453 0.929 . S
H462 C470 0.929 . S
H463 C472 0.930 . S
H464 C474 0.930 . S
H465 C477 0.929 . S
H466 C480 0.930 . S
H467 C482 0.960 . S
H468 C482 0.960 . S
H469 C482 0.960 . S
C470 H462 0.929 . S
C470 C471 1.377 . S
C470 C472 1.384 . S
C471 C470 1.377 . S
C471 C477 1.390 . S
C472 H463 0.930 . S
C472 C470 1.384 . S
C472 C473 1.372 . S
C473 C472 1.372 . S
C473 C474 1.400 . S
C473 C478 1.490 . S
C474 H464 0.930 . S
C474 C473 1.400 . S
C474 C477 1.386 . S
H475 C491 0.930 . S
H476 C492 0.931 . S
C477 H465 0.929 . S
C477 C471 1.390 . S
C477 C474 1.386 . S
C478 C473 1.490 . S
C478 C480 1.395 . S
C478 C481 1.403 . S
H479 C485 0.930 . S
C480 H466 0.930 . S
C480 C478 1.395 . S
C480 C483 1.403 . S
C481 C478 1.403 . S
C481 C482 1.524 . S
C481 C485 1.400 . S
C482 H467 0.960 . S
C482 H468 0.960 . S
C482 H469 0.960 . S
C482 C481 1.524 . S
C483 C480 1.403 . S
C483 C484 1.392 . S
C483 C487 1.495 1_565 S
C484 C483 1.392 . S
C484 C485 1.385 . S
C484 C486 1.478 1_565 S
C485 H479 0.930 . S
C485 C481 1.400 . S
C485 C484 1.385 . S
C486 C484 1.478 1_545 S
C486 C488 1.381 . S
C486 C492 1.383 . S
C487 C483 1.495 1_545 S
C487 H493 0.959 . S
C487 H494 0.961 . S
C487 H495 0.960 . S
C488 C486 1.381 . S
C488 C489 1.394 . S
C488 H496 0.930 . S
C489 C488 1.394 . S
C489 C490 1.383 . S
C489 H497 0.929 . S
C490 C489 1.383 . S
C490 C491 1.377 . S
C491 H475 0.930 . S
C491 C490 1.377 . S
C491 C492 1.379 . S
C492 H476 0.931 . S
C492 C486 1.383 . S
C492 C491 1.379 . S
H493 C487 0.959 . S
H494 C487 0.961 . S
H495 C487 0.960 . S
H496 C488 0.930 . S
H497 C489 0.929 . S
H498 C506 0.929 . S
H499 C508 0.930 . S
H500 C510 0.930 . S
H501 C513 0.929 . S
H502 C516 0.930 . S
H503 C518 0.960 . S
H504 C518 0.960 . S
H505 C518 0.960 . S
C506 H498 0.929 . S
C506 C507 1.377 . S
C506 C508 1.384 . S
C507 C506 1.377 . S
C507 C513 1.390 . S
C508 H499 0.930 . S
C508 C506 1.384 . S
C508 C509 1.372 . S
C509 C508 1.372 . S
C509 C510 1.400 . S
C509 C514 1.490 . S
C510 H500 0.930 . S
C510 C509 1.400 . S
C510 C513 1.386 . S
H511 C527 0.930 . S
H512 C528 0.931 . S
C513 H501 0.929 . S
C513 C507 1.390 . S
C513 C510 1.386 . S
C514 C509 1.490 . S
C514 C516 1.395 . S
C514 C517 1.403 . S
H515 C521 0.930 . S
C516 H502 0.930 . S
C516 C514 1.395 . S
C516 C519 1.403 . S
C517 C514 1.403 . S
C517 C518 1.524 . S
C517 C521 1.400 . S
C518 H503 0.960 . S
C518 H504 0.960 . S
C518 H505 0.960 . S
C518 C517 1.524 . S
C519 C516 1.403 . S
C519 C520 1.392 . S
C519 C523 1.495 . S
C520 C519 1.392 . S
C520 C521 1.385 . S
C520 C522 1.478 . S
C521 H515 0.930 . S
C521 C517 1.400 . S
C521 C520 1.385 . S
C522 C520 1.478 . S
C522 C524 1.381 1_565 S
C522 C528 1.383 . S
C523 C519 1.495 . S
C523 H529 0.959 . S
C523 H530 0.961 . S
C523 H531 0.960 . S
C524 C522 1.381 1_545 S
C524 C525 1.394 . S
C524 H532 0.930 . S
C525 C524 1.394 . S
C525 C526 1.383 . S
C525 H533 0.929 . S
C526 C525 1.383 . S
C526 C527 1.377 . S
C527 H511 0.930 . S
C527 C526 1.377 . S
C527 C528 1.379 1_545 S
C528 H512 0.931 . S
C528 C522 1.383 . S
C528 C527 1.379 1_565 S
H529 C523 0.959 . S
H530 C523 0.961 . S
H531 C523 0.960 . S
H532 C524 0.930 . S
H533 C525 0.929 . S
H534 C542 0.929 . S
H535 C544 0.930 . S
H536 C546 0.930 . S
H537 C549 0.929 . S
H538 C552 0.930 . S
H539 C554 0.960 . S
H540 C554 0.960 . S
H541 C554 0.960 . S
C542 H534 0.929 . S
C542 C543 1.377 . S
C542 C544 1.384 . S
C543 C542 1.377 . S
C543 C549 1.390 . S
C544 H535 0.930 . S
C544 C542 1.384 . S
C544 C545 1.372 . S
C545 C544 1.372 . S
C545 C546 1.400 . S
C545 C550 1.490 . S
C546 H536 0.930 . S
C546 C545 1.400 . S
C546 C549 1.386 . S
H547 C563 0.930 . S
H548 C564 0.931 . S
C549 H537 0.929 . S
C549 C543 1.390 . S
C549 C546 1.386 . S
C550 C545 1.490 . S
C550 C552 1.395 . S
C550 C553 1.403 . S
H551 C557 0.930 . S
C552 H538 0.930 . S
C552 C550 1.395 . S
C552 C555 1.403 . S
C553 C550 1.403 . S
C553 C554 1.524 . S
C553 C557 1.400 . S
C554 H539 0.960 . S
C554 H540 0.960 . S
C554 H541 0.960 . S
C554 C553 1.524 . S
C555 C552 1.403 . S
C555 C556 1.392 . S
C555 C559 1.495 . S
C556 C555 1.392 . S
C556 C557 1.385 . S
C556 C558 1.478 . S
C557 H551 0.930 . S
C557 C553 1.400 . S
C557 C556 1.385 . S
C558 C556 1.478 . S
C558 C560 1.381 . S
C558 C564 1.383 . S
C559 C555 1.495 . S
C559 H565 0.959 . S
C559 H566 0.961 . S
C559 H567 0.960 . S
C560 C558 1.381 . S
C560 C561 1.394 . S
C560 H568 0.930 . S
C561 C560 1.394 . S
C561 C562 1.383 . S
C561 H569 0.929 . S
C562 C561 1.383 . S
C562 C563 1.377 . S
C563 H547 0.930 . S
C563 C562 1.377 . S
C563 C564 1.379 . S
C564 H548 0.931 . S
C564 C558 1.383 . S
C564 C563 1.379 . S
H565 C559 0.959 . S
H566 C559 0.961 . S
H567 C559 0.960 . S
H568 C560 0.930 . S
H569 C561 0.929 . S
H570 C578 0.929 . S
H571 C580 0.930 . S
H572 C582 0.930 1_655 S
H573 C585 0.929 . S
H574 C588 0.930 . S
H575 C590 0.960 . S
H576 C590 0.954 1_545 S
H577 C590 0.960 . S
C578 H570 0.929 . S
C578 C579 1.377 1_545 S
C578 C580 1.384 . S
C579 C578 1.377 1_565 S
C579 C585 1.390 1_455 S
C580 H571 0.930 . S
C580 C578 1.384 . S
C580 C581 1.372 . S
C581 C580 1.372 . S
C581 C582 1.400 1_545 S
C581 C586 1.490 . S
C582 H572 0.930 1_455 S
C582 C581 1.400 1_565 S
C582 C585 1.386 1_455 S
H583 C599 0.930 . S
H584 C600 0.931 . S
C585 H573 0.929 . S
C585 C579 1.390 1_655 S
C585 C582 1.386 1_655 S
C586 C581 1.490 . S
C586 C588 1.395 . S
C586 C589 1.403 1_545 S
H587 C593 0.930 1_655 S
C588 H574 0.930 . S
C588 C586 1.395 . S
C588 C591 1.403 . S
C589 C586 1.403 1_565 S
C589 C590 1.524 1_455 S
C589 C593 1.400 . S
C590 H575 0.960 . S
C590 H576 0.954 1_565 S
C590 H577 0.960 . S
C590 C589 1.524 1_655 S
C591 C588 1.403 . S
C591 C592 1.392 . S
C591 C595 1.495 . S
C592 C591 1.392 . S
C592 C593 1.385 1_545 S
C592 C594 1.478 . S
C593 H587 0.930 1_455 S
C593 C589 1.400 . S
C593 C592 1.385 1_565 S
C594 C592 1.478 . S
C594 C596 1.381 . S
C594 C600 1.383 1_545 S
C595 C591 1.495 . S
C595 H601 0.959 . S
C595 H602 0.961 . S
C595 H603 0.960 . S
C596 C594 1.381 . S
C596 C597 1.394 . S
C596 H604 0.930 . S
C597 C596 1.394 . S
C597 C598 1.383 . S
C597 H605 0.929 . S
C598 C597 1.383 . S
C598 C599 1.377 1_545 S
C599 H583 0.930 . S
C599 C598 1.377 1_565 S
C599 C600 1.379 . S
C600 H584 0.931 . S
C600 C594 1.383 1_565 S
C600 C599 1.379 . S
H601 C595 0.959 . S
H602 C595 0.961 . S
H603 C595 0.960 . S
H604 C596 0.930 . S
H605 C597 0.929 . S
H606 C614 0.929 . S
H607 C616 0.930 . S
H608 C618 0.930 1_655 S
H609 C621 0.929 1_655 S
H610 C624 0.930 . S
H611 C626 0.960 . S
H612 C626 0.960 . S
H613 C626 0.960 . S
C614 H606 0.929 . S
C614 C615 1.377 . S
C614 C616 1.384 . S
C615 C614 1.377 . S
C615 C621 1.390 . S
C616 H607 0.930 . S
C616 C614 1.384 . S
C616 C617 1.372 . S
C617 C616 1.372 . S
C617 C618 1.400 . S
C617 C622 1.490 . S
C618 H608 0.930 1_455 S
C618 C617 1.400 . S
C618 C621 1.386 . S
H619 C635 0.930 . S
H620 C636 0.931 . S
C621 H609 0.929 1_455 S
C621 C615 1.390 . S
C621 C618 1.386 . S
C622 C617 1.490 . S
C622 C624 1.395 . S
C622 C625 1.403 . S
H623 C629 0.930 . S
C624 H610 0.930 . S
C624 C622 1.395 . S
C624 C627 1.403 . S
C625 C622 1.403 . S
C625 C626 1.524 . S
C625 C629 1.400 . S
C626 H611 0.960 . S
C626 H612 0.960 . S
C626 H613 0.960 . S
C626 C625 1.524 . S
C627 C624 1.403 . S
C627 C628 1.392 . S
C627 C631 1.495 . S
C628 C627 1.392 . S
C628 C629 1.385 . S
C628 C630 1.478 . S
C629 H623 0.930 . S
C629 C625 1.400 . S
C629 C628 1.385 . S
C630 C628 1.478 . S
C630 C632 1.381 . S
C630 C636 1.383 . S
C631 C627 1.495 . S
C631 H637 0.959 . S
C631 H638 0.961 . S
C631 H639 0.960 . S
C632 C630 1.381 . S
C632 C633 1.394 . S
C632 H640 0.930 . S
C633 C632 1.394 . S
C633 C634 1.383 . S
C633 H641 0.929 . S
C634 C633 1.383 . S
C634 C635 1.377 . S
C635 H619 0.930 . S
C635 C634 1.377 . S
C635 C636 1.379 . S
C636 H620 0.931 . S
C636 C630 1.383 . S
C636 C635 1.379 . S
H637 C631 0.959 . S
H638 C631 0.961 . S
H639 C631 0.960 . S
H640 C632 0.930 . S
H641 C633 0.929 . S
H642 C650 0.929 . S
H643 C652 0.930 . S
H644 C654 0.930 . S
H645 C657 0.929 . S
H646 C660 0.930 . S
H647 C662 0.960 . S
H648 C662 0.960 . S
H649 C662 0.960 . S
C650 H642 0.929 . S
C650 C651 1.377 . S
C650 C652 1.384 . S
C651 C650 1.377 . S
C651 C657 1.390 . S
C652 H643 0.930 . S
C652 C650 1.384 . S
C652 C653 1.372 . S
C653 C652 1.372 . S
C653 C654 1.400 . S
C653 C658 1.490 . S
C654 H644 0.930 . S
C654 C653 1.400 . S
C654 C657 1.386 . S
H655 C671 0.930 . S
H656 C672 0.931 . S
C657 H645 0.929 . S
C657 C651 1.390 . S
C657 C654 1.386 . S
C658 C653 1.490 . S
C658 C660 1.395 . S
C658 C661 1.403 . S
H659 C665 0.886 1_556 S
C660 H646 0.930 . S
C660 C658 1.395 . S
C660 C663 1.403 . S
C661 C658 1.403 . S
C661 C662 1.524 . S
C661 C665 1.495 . S
C662 H647 0.960 . S
C662 H648 0.960 . S
C662 H649 0.960 . S
C662 C661 1.524 . S
C663 C660 1.403 . S
C663 C664 1.351 1_554 S
C663 C667 1.495 . S
C664 C663 1.351 1_556 S
C664 C665 1.301 1_556 S
C664 C666 1.568 . S
C665 H659 0.886 1_554 S
C665 C661 1.495 . S
C665 C664 1.301 1_554 S
C666 C664 1.568 . S
C666 C668 1.381 . S
C666 C672 1.383 . S
C667 C663 1.495 . S
C667 H673 0.959 . S
C667 H674 0.961 . S
C667 H675 0.960 . S
C668 C666 1.381 . S
C668 C669 1.394 . S
C668 H676 0.930 . S
C669 C668 1.394 . S
C669 C670 1.383 . S
C669 H677 0.929 . S
C670 C669 1.383 . S
C670 C671 1.377 . S
C671 H655 0.930 . S
C671 C670 1.377 . S
C671 C672 1.379 . S
C672 H656 0.931 . S
C672 C666 1.383 . S
C672 C671 1.379 . S
H673 C667 0.959 . S
H674 C667 0.961 . S
H675 C667 0.960 . S
H676 C668 0.930 . S
H677 C669 0.929 . S
H678 C686 0.929 . S
H679 C688 0.930 . S
H680 C690 0.930 . S
H681 C693 0.929 . S
H682 C696 0.930 . S
H683 C698 0.960 . S
H684 C698 0.960 . S
H685 C698 0.960 . S
C686 H678 0.929 . S
C686 C687 1.377 . S
C686 C688 1.384 . S
C687 C686 1.377 . S
C687 C693 1.390 . S
C688 H679 0.930 . S
C688 C686 1.384 . S
C688 C689 1.372 . S
C689 C688 1.372 . S
C689 C690 1.400 . S
C689 C694 1.490 . S
C690 H680 0.930 . S
C690 C689 1.400 . S
C690 C693 1.386 . S
H691 C707 0.930 . S
H692 C708 0.931 . S
C693 H681 0.929 . S
C693 C687 1.390 . S
C693 C690 1.386 . S
C694 C689 1.490 . S
C694 C696 1.395 . S
C694 C697 1.403 . S
H695 C701 0.930 . S
C696 H682 0.930 . S
C696 C694 1.395 . S
C696 C699 1.403 . S
C697 C694 1.403 . S
C697 C698 1.524 . S
C697 C701 1.400 . S
C698 H683 0.960 . S
C698 H684 0.960 . S
C698 H685 0.960 . S
C698 C697 1.524 . S
C699 C696 1.403 . S
C699 C700 1.392 . S
C699 C703 1.495 . S
C700 C699 1.392 . S
C700 C701 1.385 . S
C700 C702 1.478 . S
C701 H695 0.930 . S
C701 C697 1.400 . S
C701 C700 1.385 . S
C702 C700 1.478 . S
C702 C704 1.381 . S
C702 C708 1.383 . S
C703 C699 1.495 . S
C703 H709 0.959 . S
C703 H710 0.961 1_545 S
C703 H711 0.960 . S
C704 C702 1.381 . S
C704 C705 1.394 . S
C704 H712 0.930 . S
C705 C704 1.394 . S
C705 C706 1.383 . S
C705 H713 0.929 . S
C706 C705 1.383 . S
C706 C707 1.377 . S
C707 H691 0.930 . S
C707 C706 1.377 . S
C707 C708 1.379 . S
C708 H692 0.931 . S
C708 C702 1.383 . S
C708 C707 1.379 . S
H709 C703 0.959 . S
H710 C703 0.961 1_565 S
H711 C703 0.960 . S
H712 C704 0.930 . S
H713 C705 0.929 . S
H714 C722 0.929 . S
H715 C724 0.930 . S
H716 C726 0.930 . S
H717 C729 0.929 . S
H718 C732 0.935 . S
H719 C734 0.960 . S
H720 C734 0.960 . S
H721 C734 0.960 . S
C722 H714 0.929 . S
C722 C723 1.377 1_655 S
C722 C724 1.384 . S
C723 C722 1.377 1_455 S
C723 C729 1.390 . S
C724 H715 0.930 . S
C724 C722 1.384 . S
C724 C725 1.372 1_655 S
C725 C724 1.372 1_455 S
C725 C726 1.400 . S
C725 C730 1.490 . S
C726 H716 0.930 . S
C726 C725 1.400 . S
C726 C729 1.386 . S
H727 C743 0.930 . S
H728 C744 0.931 . S
C729 H717 0.929 . S
C729 C723 1.390 . S
C729 C726 1.386 . S
C730 C725 1.490 . S
C730 C732 1.395 1_455 S
C730 C733 1.403 . S
H731 C737 0.930 . S
C732 H718 0.935 . S
C732 C730 1.395 1_655 S
C732 C735 1.403 . S
C733 C730 1.403 . S
C733 C734 1.524 . S
C733 C737 1.400 . S
C734 H719 0.960 . S
C734 H720 0.960 . S
C734 H721 0.960 . S
C734 C733 1.524 . S
C735 C732 1.403 . S
C735 C736 1.392 1_655 S
C735 C739 1.495 1_545 S
C736 C735 1.392 1_455 S
C736 C737 1.385 . S
C736 C738 1.478 . S
C737 H731 0.930 . S
C737 C733 1.400 . S
C737 C736 1.385 . S
C738 C736 1.478 . S
C738 C740 1.381 1_455 S
C738 C744 1.383 . S
C739 C735 1.495 1_565 S
C739 H745 0.959 . S
C739 H746 0.961 . S
C739 H747 0.960 . S
C740 C738 1.381 1_655 S
C740 C741 1.394 . S
C740 H748 0.930 . S
C741 C740 1.394 . S
C741 C742 1.383 1_655 S
C741 H749 0.929 . S
C742 C741 1.383 1_455 S
C742 C743 1.377 . S
C743 H727 0.930 . S
C743 C742 1.377 . S
C743 C744 1.379 . S
C744 H728 0.931 . S
C744 C738 1.383 . S
C744 C743 1.379 . S
H745 C739 0.959 . S
H746 C739 0.961 . S
H747 C739 0.960 . S
H748 C740 0.930 . S
H749 C741 0.929 . S
C327 C39 1.500 . S
C346 C38 1.495 . S
C363 C91 1.500 . S
C382 C92 1.498 . S
C399 C145 1.500 . S
C418 C144 1.498 . S
C435 C198 1.500 . S
C454 C197 1.495 . S
C471 C251 1.500 . S
C490 C250 1.495 1_655 S
C507 C304 1.499 . S
C526 C303 1.496 . S
C543 C287 1.554 . S
C562 C22 1.553 . S
C579 C181 1.551 1_565 S
C598 C75 1.546 . S
C615 C128 1.547 . S
C634 C234 1.548 . S
C651 C29 1.562 . S
C670 C241 1.555 . S
C687 C294 1.571 . S
C706 C82 1.573 . S
C723 C188 1.564 . S
C742 C135 1.552 . S
