# Generated by pormake.
# Topology sni, (6)-cn, num edge types: 1
# Building blocks:
#     Node 0, Type 0, BuildingBlock: IZENUY_clean_sbu_0, # of connection points: 6
#     Node 1, Type 0, BuildingBlock: IZENUY_clean_sbu_0, # of connection points: 6
#     Node 2, Type 0, BuildingBlock: IZENUY_clean_sbu_0, # of connection points: 6
#     Node 3, Type 0, BuildingBlock: IZENUY_clean_sbu_0, # of connection points: 6
#     Node 4, Type 0, BuildingBlock: IZENUY_clean_sbu_0, # of connection points: 6
#     Node 5, Type 0, BuildingBlock: IZENUY_clean_sbu_0, # of connection points: 6
#     Node 6, Type 0, BuildingBlock: IZENUY_clean_sbu_0, # of connection points: 6
#     Node 7, Type 0, BuildingBlock: IZENUY_clean_sbu_0, # of connection points: 6
#     Edge 8, Type (0, 0), BuildingBlock: EYOCIG_clean_linker_4, # of connection points: 2
#     Edge 9, Type (0, 0), BuildingBlock: EYOCIG_clean_linker_4, # of connection points: 2
#     Edge 10, Type (0, 0), BuildingBlock: EYOCIG_clean_linker_4, # of connection points: 2
#     Edge 11, Type (0, 0), BuildingBlock: EYOCIG_clean_linker_4, # of connection points: 2
#     Edge 12, Type (0, 0), BuildingBlock: EYOCIG_clean_linker_4, # of connection points: 2
#     Edge 13, Type (0, 0), BuildingBlock: EYOCIG_clean_linker_4, # of connection points: 2
#     Edge 14, Type (0, 0), BuildingBlock: EYOCIG_clean_linker_4, # of connection points: 2
#     Edge 15, Type (0, 0), BuildingBlock: EYOCIG_clean_linker_4, # of connection points: 2
#     Edge 16, Type (0, 0), BuildingBlock: EYOCIG_clean_linker_4, # of connection points: 2
#     Edge 17, Type (0, 0), BuildingBlock: EYOCIG_clean_linker_4, # of connection points: 2
#     Edge 18, Type (0, 0), BuildingBlock: EYOCIG_clean_linker_4, # of connection points: 2
#     Edge 19, Type (0, 0), BuildingBlock: EYOCIG_clean_linker_4, # of connection points: 2
#     Edge 20, Type (0, 0), BuildingBlock: EYOCIG_clean_linker_4, # of connection points: 2
#     Edge 21, Type (0, 0), BuildingBlock: EYOCIG_clean_linker_4, # of connection points: 2
#     Edge 22, Type (0, 0), BuildingBlock: EYOCIG_clean_linker_4, # of connection points: 2
#     Edge 23, Type (0, 0), BuildingBlock: EYOCIG_clean_linker_4, # of connection points: 2
#     Edge 24, Type (0, 0), BuildingBlock: EYOCIG_clean_linker_4, # of connection points: 2
#     Edge 25, Type (0, 0), BuildingBlock: EYOCIG_clean_linker_4, # of connection points: 2
#     Edge 26, Type (0, 0), BuildingBlock: EYOCIG_clean_linker_4, # of connection points: 2
#     Edge 27, Type (0, 0), BuildingBlock: EYOCIG_clean_linker_4, # of connection points: 2
#     Edge 28, Type (0, 0), BuildingBlock: EYOCIG_clean_linker_4, # of connection points: 2
#     Edge 29, Type (0, 0), BuildingBlock: EYOCIG_clean_linker_4, # of connection points: 2
#     Edge 30, Type (0, 0), BuildingBlock: EYOCIG_clean_linker_4, # of connection points: 2
#     Edge 31, Type (0, 0), BuildingBlock: EYOCIG_clean_linker_4, # of connection points: 2
# Relax obj value: 0.128
# Max RMSD: 0.110
# Mean RMSD: 0.110
data_MOF--net-sni--node1-IZENUY_clean_sbu_0--edge1-EYOCIG_clean_linker_4
_symmetry_space_group_name_H-M    P1
_symmetry_Int_Tables_number       1
_symmetry_cell_setting            triclinic
loop_
_symmetry_equiv_pos_as_xyz
'x, y, z'
_cell_length_a     33.169229
_cell_length_b     33.166702
_cell_length_c     16.0981
_cell_angle_alpha  90.016869
_cell_angle_beta   90.026831
_cell_angle_gamma 89.997065
loop_
_atom_site_label
_atom_site_type_symbol
_atom_site_fract_x
_atom_site_fract_y
_atom_site_fract_z
_atom_type_partial_charge
Fe0 Fe 0.64113 0.20893 0.00544 0.0
Fe1 Fe 0.7087 0.14066 0.00481 0.0
O2 O 0.65553 0.15563 0.0057 0.0
Fe3 Fe 0.61665 0.11716 0.007 0.0
O4 O 0.58643 0.14016 0.92578 0.0
O5 O 0.60341 0.20431 0.92349 0.0
O6 O 0.67628 0.22315 0.92527 0.0
C7 C 0.70858 0.20839 0.8989 0.0
C8 C 0.58332 0.17584 0.11539 0.0
O9 O 0.72319 0.17604 0.92533 0.0
C10 C 0.67521 0.08282 0.11421 0.0
O11 O 0.67618 0.22266 0.08624 0.0
O12 O 0.72291 0.17514 0.08615 0.0
O13 O 0.5871 0.14054 0.08852 0.0
O14 O 0.60332 0.20479 0.08677 0.0
C15 C 0.67411 0.08306 0.89625 0.0
O16 O 0.70434 0.10246 0.08528 0.0
O17 O 0.63983 0.08735 0.08834 0.0
C18 C 0.70804 0.20723 0.11348 0.0
O19 O 0.70351 0.10343 0.92225 0.0
O20 O 0.63928 0.08677 0.92582 0.0
C21 C 0.58286 0.17515 0.89686 0.0
Fe22 Fe 0.90011 0.61648 1.00201 0.0
Fe23 Fe 0.87719 0.70871 0.00386 0.0
O24 O 0.86189 0.65562 1.00291 0.0
Fe25 Fe 0.80851 0.64157 1.00314 0.0
O26 O 0.81282 0.60396 0.08517 0.0
O27 O 0.87675 0.58629 0.08278 0.0
O28 O 0.93036 0.63864 0.08375 0.0
C29 C 0.93513 0.67364 0.11149 0.0
C30 C 0.84143 0.5831 0.89382 0.0
O31 O 0.91564 0.70327 0.08397 0.0
C32 C 0.80942 0.70935 0.89763 0.0
O33 O 0.93028 0.63976 0.92116 0.0
O34 O 0.91397 0.7041 0.92096 0.0
O35 O 0.81248 0.60342 0.92196 0.0
O36 O 0.87676 0.58712 0.92029 0.0
C37 C 0.81068 0.70837 0.11202 0.0
O38 O 0.84158 0.72398 0.92521 0.0
O39 O 0.79474 0.67668 0.92242 0.0
C40 C 0.93399 0.67493 0.89327 0.0
O41 O 0.84319 0.72269 0.08591 0.0
O42 O 0.79482 0.67698 0.08346 0.0
C43 C 0.84174 0.58309 0.1117 0.0
Fe44 Fe 0.30869 0.87707 0.00344 0.0
Fe45 Fe 0.37648 0.80903 0.00329 0.0
O46 O 0.36188 0.86228 0.00353 0.0
Fe47 Fe 0.40062 0.90094 0.00407 0.0
O48 O 0.37757 0.93068 0.08573 0.0
O49 O 0.3133 0.91432 0.08578 0.0
O50 O 0.29419 0.8417 0.08316 0.0
C51 C 0.30887 0.80939 0.10986 0.0
C52 C 0.34283 0.93538 0.8954 0.0
O53 O 0.34129 0.79467 0.08366 0.0
C54 C 0.43451 0.84307 0.89436 0.0
O55 O 0.29455 0.84235 0.92261 0.0
O56 O 0.34137 0.79497 0.92289 0.0
O57 O 0.37788 0.93117 0.92317 0.0
O58 O 0.31353 0.91522 0.92244 0.0
C59 C 0.43416 0.84273 0.11297 0.0
O60 O 0.41434 0.8138 0.9216 0.0
O61 O 0.43061 0.87811 0.92262 0.0
C62 C 0.30915 0.80994 0.89641 0.0
O63 O 0.41415 0.81352 0.0851 0.0
O64 O 0.43044 0.8778 0.08507 0.0
C65 C 0.34248 0.93421 0.11396 0.0
Fe66 Fe 0.20852 0.37698 0.00413 0.0
Fe67 Fe 0.11651 0.40065 1.00212 0.0
O68 O 0.15534 0.3621 1.00308 0.0
Fe69 Fe 0.14083 0.30885 1.00316 0.0
O70 O 0.17589 0.29466 0.08338 0.0
O71 O 0.22279 0.3418 0.0841 0.0
O72 O 0.20349 0.41436 0.08654 0.0
C73 C 0.17422 0.43497 0.11223 0.0
C74 C 0.20825 0.30996 0.89621 0.0
O75 O 0.13951 0.43152 0.0821 0.0
C76 C 0.08231 0.34187 0.89465 0.0
O77 O 0.20394 0.41495 0.92306 0.0
O78 O 0.13927 0.42972 0.91949 0.0
O79 O 0.176 0.29488 0.9225 0.0
O80 O 0.22295 0.34219 0.92337 0.0
C81 C 0.08353 0.34318 0.11333 0.0
O82 O 0.08611 0.37706 0.9221 0.0
O83 O 0.10296 0.313 0.92177 0.0
C84 C 0.1746 0.43407 0.89325 0.0
O85 O 0.08714 0.37816 0.08467 0.0
O86 O 0.10323 0.31374 0.08521 0.0
C87 C 0.20801 0.3095 0.11036 0.0
Fe88 Fe 0.64071 0.80911 0.50285 0.0
Fe89 Fe 0.70881 0.87686 0.50418 0.0
O90 O 0.65555 0.8623 0.50296 0.0
Fe91 Fe 0.617 0.90113 0.50218 0.0
O92 O 0.58692 0.87849 0.58357 0.0
O93 O 0.60262 0.81404 0.58382 0.0
O94 O 0.67535 0.79499 0.58422 0.0
C95 C 0.70722 0.81011 0.61221 0.0
C96 C 0.58301 0.843 0.39337 0.0
O97 O 0.72235 0.84214 0.5854 0.0
C98 C 0.67563 0.93421 0.39344 0.0
O99 O 0.67619 0.79461 0.42314 0.0
O100 O 0.72344 0.8415 0.42468 0.0
O101 O 0.58699 0.87807 0.42122 0.0
O102 O 0.60325 0.81377 0.42051 0.0
C103 C 0.67464 0.93512 0.61213 0.0
O104 O 0.70468 0.91423 0.42199 0.0
O105 O 0.64037 0.93062 0.42066 0.0
C106 C 0.70879 0.80924 0.39777 0.0
O107 O 0.70393 0.91488 0.58537 0.0
O108 O 0.63976 0.93132 0.58323 0.0
C109 C 0.58278 0.84343 0.61148 0.0
Fe110 Fe 0.14024 0.70874 0.50477 0.0
Fe111 Fe 0.20842 0.64108 0.50507 0.0
O112 O 0.15515 0.65556 0.50563 0.0
Fe113 Fe 0.11662 0.61674 0.50691 0.0
O114 O 0.0867 0.63903 0.42494 0.0
O115 O 0.10243 0.70348 0.42334 0.0
O116 O 0.17495 0.7229 0.42385 0.0
C117 C 0.20733 0.70837 0.39746 0.0
C118 C 0.0825 0.67542 0.61425 0.0
O119 O 0.22263 0.67658 0.42529 0.0
C120 C 0.17504 0.58303 0.61458 0.0
O121 O 0.17535 0.72321 0.58492 0.0
O122 O 0.2222 0.6758 0.58657 0.0
O123 O 0.08648 0.64016 0.58734 0.0
O124 O 0.10267 0.70444 0.58645 0.0
C125 C 0.17451 0.58292 0.3968 0.0
O126 O 0.20419 0.60271 0.58558 0.0
O127 O 0.13966 0.58755 0.58893 0.0
C128 C 0.20722 0.70809 0.61285 0.0
O129 O 0.20367 0.60378 0.42239 0.0
O130 O 0.13973 0.5862 0.42669 0.0
C131 C 0.08266 0.67393 0.39618 0.0
Fe132 Fe 0.37665 0.20897 0.50336 0.0
Fe133 Fe 0.30879 0.14097 0.50391 0.0
O134 O 0.36203 0.15573 0.50319 0.0
Fe135 Fe 0.40079 0.11712 0.50254 0.0
O136 O 0.43098 0.14008 0.58381 0.0
O137 O 0.41459 0.20435 0.58488 0.0
O138 O 0.3419 0.22314 0.58394 0.0
C139 C 0.30959 0.20855 0.61036 0.0
C140 C 0.43452 0.1756 0.39418 0.0
O141 O 0.29447 0.17655 0.58326 0.0
C142 C 0.34221 0.08247 0.39547 0.0
O143 O 0.34133 0.223 0.42309 0.0
O144 O 0.29464 0.17543 0.4223 0.0
O145 O 0.43061 0.14033 0.42124 0.0
O146 O 0.41425 0.2046 0.42182 0.0
C147 C 0.3431 0.08375 0.61347 0.0
O148 O 0.3131 0.10244 0.42375 0.0
O149 O 0.3776 0.08715 0.42132 0.0
C150 C 0.30933 0.2078 0.3958 0.0
O151 O 0.31378 0.104 0.58683 0.0
O152 O 0.37793 0.08707 0.58383 0.0
C153 C 0.4349 0.17515 0.61204 0.0
Fe154 Fe 0.8766 0.30881 0.50296 0.0
Fe155 Fe 0.90043 0.4008 0.50432 0.0
O156 O 0.86184 0.36205 0.50359 0.0
Fe157 Fe 0.80858 0.37667 0.50392 0.0
O158 O 0.7949 0.34208 0.58559 0.0
O159 O 0.84128 0.29432 0.58293 0.0
O160 O 0.91397 0.31309 0.58504 0.0
C161 C 0.93412 0.34213 0.613 0.0
C162 C 0.80909 0.30922 0.39733 0.0
O163 O 0.93048 0.37734 0.58526 0.0
C164 C 0.84209 0.43476 0.39477 0.0
O165 O 0.9148 0.31377 0.42199 0.0
O166 O 0.93048 0.37823 0.42278 0.0
O167 O 0.79402 0.34116 0.42477 0.0
O168 O 0.84186 0.2949 0.42212 0.0
C169 C 0.8423 0.4344 0.61339 0.0
O170 O 0.87716 0.43121 0.42348 0.0
O171 O 0.81305 0.41404 0.42131 0.0
C172 C 0.93497 0.34315 0.39522 0.0
O173 O 0.8775 0.43034 0.58631 0.0
O174 O 0.81312 0.41477 0.58458 0.0
C175 C 0.80964 0.30965 0.61155 0.0
C176 C 0.49299 0.18606 0.28421 0.0
C177 C 0.4659 0.18315 0.33417 0.0
C178 C 0.52565 0.18618 0.22726 0.0
C179 C 0.5524 0.18344 0.17644 0.0
C180 C 0.8321 0.52543 0.22471 0.0
C181 C 0.8345 0.5522 0.17353 0.0
C182 C 0.83229 0.49289 0.28263 0.0
C183 C 0.8349 0.46596 0.33346 0.0
C184 C 0.52435 0.83421 0.28292 0.0
C185 C 0.55155 0.83618 0.33298 0.0
C186 C 0.49165 0.83409 0.22588 0.0
C187 C 0.46496 0.8359 0.17469 0.0
C188 C 0.18248 0.49261 0.22579 0.0
C189 C 0.18061 0.46589 0.1744 0.0
C190 C 0.18268 0.52509 0.2838 0.0
C191 C 0.18102 0.55195 0.33489 0.0
C192 C 0.52505 0.83482 0.72431 0.0
C193 C 0.55178 0.83683 0.67312 0.0
C194 C 0.49253 0.83462 0.782 0.0
C195 C 0.46563 0.83639 0.8329 0.0
C196 C 0.18389 0.49131 0.78033 0.0
C197 C 0.18161 0.46479 0.83169 0.0
C198 C 0.18421 0.52404 0.72364 0.0
C199 C 0.18225 0.55139 0.67411 0.0
C200 C 0.49285 0.18426 0.72491 0.0
C201 C 0.46601 0.18203 0.67374 0.0
C202 C 0.52526 0.18425 0.78326 0.0
C203 C 0.55196 0.18201 0.83473 0.0
C204 C 0.83182 0.5243 0.78387 0.0
C205 C 0.83398 0.55159 0.83374 0.0
C206 C 0.83235 0.49166 0.72659 0.0
C207 C 0.8351 0.46516 0.67512 0.0
C208 C 0.9913 0.68518 0.78084 0.0
C209 C 0.96475 0.68224 0.83193 0.0
C210 C 0.0239 0.68547 0.72387 0.0
C211 C 0.05107 0.68288 0.67409 0.0
C212 C 0.33461 0.02683 0.72783 0.0
C213 C 0.33656 0.05325 0.67602 0.0
C214 C 0.33443 0.99425 0.78521 0.0
C215 C 0.33618 0.96697 0.83514 0.0
C216 C 0.99118 0.33189 0.72665 0.0
C217 C 0.96473 0.33473 0.67503 0.0
C218 C 0.02367 0.33174 0.78434 0.0
C219 C 0.05086 0.33438 0.83439 0.0
C220 C 0.68247 0.02539 0.78301 0.0
C221 C 0.6805 0.05211 0.83432 0.0
C222 C 0.68275 0.99294 0.72506 0.0
C223 C 0.68112 0.96612 0.67393 0.0
C224 C 0.02703 0.33497 0.22873 0.0
C225 C 0.05324 0.33671 0.17641 0.0
C226 C 0.99441 0.33485 0.28613 0.0
C227 C 0.96689 0.33657 0.33556 0.0
C228 C 0.68557 0.99156 0.28091 0.0
C229 C 0.68306 0.96494 0.33201 0.0
C230 C 0.68542 0.02421 0.22397 0.0
C231 C 0.68267 0.05134 0.17405 0.0
C232 C 0.9932 0.68163 0.22381 0.0
C233 C 0.96636 0.67984 0.17282 0.0
C234 C 0.02549 0.68173 0.282 0.0
C235 C 0.05198 0.68012 0.33377 0.0
C236 C 0.33275 0.99077 0.22875 0.0
C237 C 0.33539 0.96456 0.17661 0.0
C238 C 0.33245 0.02329 0.28634 0.0
C239 C 0.33487 0.05068 0.33592 0.0
C240 C 0.76837 0.26778 0.28839 0.0
C241 C 0.78685 0.2869 0.33826 0.0
C242 C 0.74706 0.24583 0.22934 0.0
C243 C 0.72931 0.22806 0.17632 0.0
C244 C 0.77276 0.74769 0.22884 0.0
C245 C 0.79008 0.72968 0.17539 0.0
C246 C 0.7509 0.76901 0.28838 0.0
C247 C 0.73144 0.7872 0.33839 0.0
C248 C 0.26766 0.7693 0.22137 0.0
C249 C 0.28663 0.78749 0.1704 0.0
C250 C 0.24597 0.74788 0.28137 0.0
C251 C 0.22835 0.72976 0.33446 0.0
C252 C 0.26957 0.24768 0.28235 0.0
C253 C 0.28766 0.22934 0.33424 0.0
C254 C 0.24803 0.26938 0.22293 0.0
C255 C 0.22968 0.2877 0.17143 0.0
C256 C 0.24607 0.74799 0.72736 0.0
C257 C 0.22837 0.72966 0.67498 0.0
C258 C 0.26783 0.76967 0.78631 0.0
C259 C 0.28684 0.78799 0.83669 0.0
C260 C 0.27052 0.24896 0.72388 0.0
C261 C 0.28827 0.23034 0.67194 0.0
C262 C 0.249 0.2706 0.78341 0.0
C263 C 0.2303 0.28854 0.835 0.0
C264 C 0.77109 0.27017 0.72768 0.0
C265 C 0.7886 0.28835 0.67459 0.0
C266 C 0.74956 0.24857 0.78752 0.0
C267 C 0.73072 0.2303 0.83846 0.0
C268 C 0.74619 0.77197 0.72923 0.0
C269 C 0.72813 0.78919 0.6757 0.0
C270 C 0.76831 0.75082 0.78863 0.0
C271 C 0.78731 0.73205 0.83849 0.0
loop_
_geom_bond_atom_site_label_1
_geom_bond_atom_site_label_2
_geom_bond_distance
_geom_bond_site_symmetry_2
_ccdc_geom_bond_type
Fe0 O2 1.918 . S
Fe0 O5 1.997 1_554 S
Fe0 O6 2.002 1_554 S
Fe0 O11 1.976 . S
Fe0 O14 1.996 . S
Fe1 O2 1.918 . S
Fe1 O9 1.997 1_554 S
Fe1 O12 1.996 . S
Fe1 O16 1.976 . S
Fe1 O19 2.002 1_554 S
O2 Fe0 1.918 . S
O2 Fe1 1.918 . S
O2 Fe3 1.918 . S
Fe3 O2 1.918 . S
Fe3 O4 2.002 1_554 S
Fe3 O13 1.976 . S
Fe3 O17 1.996 . S
Fe3 O20 1.997 1_554 S
O4 Fe3 2.002 1_556 S
O4 C21 1.295 . S
O5 Fe0 1.997 1_556 S
O5 C21 1.235 . S
O6 Fe0 2.002 1_556 S
O6 C7 1.295 . S
C7 O6 1.295 . S
C7 O9 1.235 . S
C8 O13 1.287 . S
C8 O14 1.255 . S
O9 Fe1 1.997 1_556 S
O9 C7 1.235 . S
C10 O16 1.287 . S
C10 O17 1.255 . S
O11 Fe0 1.976 . S
O11 C18 1.287 . S
O12 Fe1 1.996 . S
O12 C18 1.255 . S
O13 Fe3 1.976 . S
O13 C8 1.287 . S
O14 Fe0 1.996 . S
O14 C8 1.255 . S
C15 O19 1.295 . S
C15 O20 1.235 . S
O16 Fe1 1.976 . S
O16 C10 1.287 . S
O17 Fe3 1.996 . S
O17 C10 1.255 . S
C18 O11 1.287 . S
C18 O12 1.255 . S
O19 Fe1 2.002 1_556 S
O19 C15 1.295 . S
O20 Fe3 1.997 1_556 S
O20 C15 1.235 . S
C21 O4 1.295 . S
C21 O5 1.235 . S
Fe22 O24 1.918 . S
Fe22 O27 1.997 1_556 S
Fe22 O28 2.002 1_556 S
Fe22 O33 1.976 . S
Fe22 O36 1.996 . S
Fe23 O24 1.918 . S
Fe23 O31 1.997 1_556 S
Fe23 O34 1.996 . S
Fe23 O38 1.976 . S
Fe23 O41 2.002 1_556 S
O24 Fe22 1.918 . S
O24 Fe23 1.918 . S
O24 Fe25 1.918 . S
Fe25 O24 1.918 . S
Fe25 O26 2.002 1_556 S
Fe25 O35 1.976 . S
Fe25 O39 1.996 . S
Fe25 O42 1.997 1_556 S
O26 Fe25 2.002 1_554 S
O26 C43 1.295 . S
O27 Fe22 1.997 1_554 S
O27 C43 1.235 . S
O28 Fe22 2.002 1_554 S
O28 C29 1.295 . S
C29 O28 1.295 . S
C29 O31 1.235 . S
C30 O35 1.287 . S
C30 O36 1.255 . S
O31 Fe23 1.997 1_554 S
O31 C29 1.235 . S
C32 O38 1.287 . S
C32 O39 1.255 . S
O33 Fe22 1.976 . S
O33 C40 1.287 . S
O34 Fe23 1.996 . S
O34 C40 1.255 . S
O35 Fe25 1.976 . S
O35 C30 1.287 . S
O36 Fe22 1.996 . S
O36 C30 1.255 . S
C37 O41 1.295 . S
C37 O42 1.235 . S
O38 Fe23 1.976 . S
O38 C32 1.287 . S
O39 Fe25 1.996 . S
O39 C32 1.255 . S
C40 O33 1.287 . S
C40 O34 1.255 . S
O41 Fe23 2.002 1_554 S
O41 C37 1.295 . S
O42 Fe25 1.997 1_554 S
O42 C37 1.235 . S
C43 O26 1.295 . S
C43 O27 1.235 . S
Fe44 O46 1.918 . S
Fe44 O49 1.997 1_556 S
Fe44 O50 2.002 1_556 S
Fe44 O55 1.976 . S
Fe44 O58 1.996 . S
Fe45 O46 1.918 . S
Fe45 O53 1.997 1_556 S
Fe45 O56 1.996 . S
Fe45 O60 1.976 . S
Fe45 O63 2.002 1_556 S
O46 Fe44 1.918 . S
O46 Fe45 1.918 . S
O46 Fe47 1.918 . S
Fe47 O46 1.918 . S
Fe47 O48 2.002 1_556 S
Fe47 O57 1.976 . S
Fe47 O61 1.996 . S
Fe47 O64 1.997 1_556 S
O48 Fe47 2.002 1_554 S
O48 C65 1.295 . S
O49 Fe44 1.997 1_554 S
O49 C65 1.235 . S
O50 Fe44 2.002 1_554 S
O50 C51 1.295 . S
C51 O50 1.295 . S
C51 O53 1.235 . S
C52 O57 1.287 . S
C52 O58 1.255 . S
O53 Fe45 1.997 1_554 S
O53 C51 1.235 . S
C54 O60 1.287 . S
C54 O61 1.255 . S
O55 Fe44 1.976 . S
O55 C62 1.287 . S
O56 Fe45 1.996 . S
O56 C62 1.255 . S
O57 Fe47 1.976 . S
O57 C52 1.287 . S
O58 Fe44 1.996 . S
O58 C52 1.255 . S
C59 O63 1.295 . S
C59 O64 1.235 . S
O60 Fe45 1.976 . S
O60 C54 1.287 . S
O61 Fe47 1.996 . S
O61 C54 1.255 . S
C62 O55 1.287 . S
C62 O56 1.255 . S
O63 Fe45 2.002 1_554 S
O63 C59 1.295 . S
O64 Fe47 1.997 1_554 S
O64 C59 1.235 . S
C65 O48 1.295 . S
C65 O49 1.235 . S
Fe66 O68 1.918 . S
Fe66 O71 1.997 1_556 S
Fe66 O72 2.002 1_556 S
Fe66 O77 1.976 . S
Fe66 O80 1.996 . S
Fe67 O68 1.918 . S
Fe67 O75 1.997 1_556 S
Fe67 O78 1.996 . S
Fe67 O82 1.976 . S
Fe67 O85 2.002 1_556 S
O68 Fe66 1.918 . S
O68 Fe67 1.918 . S
O68 Fe69 1.918 . S
Fe69 O68 1.918 . S
Fe69 O70 2.002 1_556 S
Fe69 O79 1.976 . S
Fe69 O83 1.996 . S
Fe69 O86 1.997 1_556 S
O70 Fe69 2.002 1_554 S
O70 C87 1.295 . S
O71 Fe66 1.997 1_554 S
O71 C87 1.235 . S
O72 Fe66 2.002 1_554 S
O72 C73 1.295 . S
C73 O72 1.295 . S
C73 O75 1.235 . S
C74 O79 1.287 . S
C74 O80 1.255 . S
O75 Fe67 1.997 1_554 S
O75 C73 1.235 . S
C76 O82 1.287 . S
C76 O83 1.255 . S
O77 Fe66 1.976 . S
O77 C84 1.287 . S
O78 Fe67 1.996 . S
O78 C84 1.255 . S
O79 Fe69 1.976 . S
O79 C74 1.287 . S
O80 Fe66 1.996 . S
O80 C74 1.255 . S
C81 O85 1.295 . S
C81 O86 1.235 . S
O82 Fe67 1.976 . S
O82 C76 1.287 . S
O83 Fe69 1.996 . S
O83 C76 1.255 . S
C84 O77 1.287 . S
C84 O78 1.255 . S
O85 Fe67 2.002 1_554 S
O85 C81 1.295 . S
O86 Fe69 1.997 1_554 S
O86 C81 1.235 . S
C87 O70 1.295 . S
C87 O71 1.235 . S
Fe88 O90 1.918 . S
Fe88 O93 1.997 . S
Fe88 O94 2.002 . S
Fe88 O99 1.976 . S
Fe88 O102 1.996 . S
Fe89 O90 1.918 . S
Fe89 O97 1.997 . S
Fe89 O100 1.996 . S
Fe89 O104 1.976 . S
Fe89 O107 2.002 . S
O90 Fe88 1.918 . S
O90 Fe89 1.918 . S
O90 Fe91 1.918 . S
Fe91 O90 1.918 . S
Fe91 O92 2.002 . S
Fe91 O101 1.976 . S
Fe91 O105 1.996 . S
Fe91 O108 1.997 . S
O92 Fe91 2.002 . S
O92 C109 1.295 . S
O93 Fe88 1.997 . S
O93 C109 1.235 . S
O94 Fe88 2.002 . S
O94 C95 1.295 . S
C95 O94 1.295 . S
C95 O97 1.235 . S
C96 O101 1.287 . S
C96 O102 1.255 . S
O97 Fe89 1.997 . S
O97 C95 1.235 . S
C98 O104 1.287 . S
C98 O105 1.255 . S
O99 Fe88 1.976 . S
O99 C106 1.287 . S
O100 Fe89 1.996 . S
O100 C106 1.255 . S
O101 Fe91 1.976 . S
O101 C96 1.287 . S
O102 Fe88 1.996 . S
O102 C96 1.255 . S
C103 O107 1.295 . S
C103 O108 1.235 . S
O104 Fe89 1.976 . S
O104 C98 1.287 . S
O105 Fe91 1.996 . S
O105 C98 1.255 . S
C106 O99 1.287 . S
C106 O100 1.255 . S
O107 Fe89 2.002 . S
O107 C103 1.295 . S
O108 Fe91 1.997 . S
O108 C103 1.235 . S
C109 O92 1.295 . S
C109 O93 1.235 . S
Fe110 O112 1.918 . S
Fe110 O115 1.997 . S
Fe110 O116 2.002 . S
Fe110 O121 1.976 . S
Fe110 O124 1.996 . S
Fe111 O112 1.918 . S
Fe111 O119 1.997 . S
Fe111 O122 1.996 . S
Fe111 O126 1.976 . S
Fe111 O129 2.002 . S
O112 Fe110 1.918 . S
O112 Fe111 1.918 . S
O112 Fe113 1.918 . S
Fe113 O112 1.918 . S
Fe113 O114 2.002 . S
Fe113 O123 1.976 . S
Fe113 O127 1.996 . S
Fe113 O130 1.997 . S
O114 Fe113 2.002 . S
O114 C131 1.295 . S
O115 Fe110 1.997 . S
O115 C131 1.235 . S
O116 Fe110 2.002 . S
O116 C117 1.295 . S
C117 O116 1.295 . S
C117 O119 1.235 . S
C118 O123 1.287 . S
C118 O124 1.255 . S
O119 Fe111 1.997 . S
O119 C117 1.235 . S
C120 O126 1.287 . S
C120 O127 1.255 . S
O121 Fe110 1.976 . S
O121 C128 1.287 . S
O122 Fe111 1.996 . S
O122 C128 1.255 . S
O123 Fe113 1.976 . S
O123 C118 1.287 . S
O124 Fe110 1.996 . S
O124 C118 1.255 . S
C125 O129 1.295 . S
C125 O130 1.235 . S
O126 Fe111 1.976 . S
O126 C120 1.287 . S
O127 Fe113 1.996 . S
O127 C120 1.255 . S
C128 O121 1.287 . S
C128 O122 1.255 . S
O129 Fe111 2.002 . S
O129 C125 1.295 . S
O130 Fe113 1.997 . S
O130 C125 1.235 . S
C131 O114 1.295 . S
C131 O115 1.235 . S
Fe132 O134 1.918 . S
Fe132 O137 1.997 . S
Fe132 O138 2.002 . S
Fe132 O143 1.976 . S
Fe132 O146 1.996 . S
Fe133 O134 1.918 . S
Fe133 O141 1.997 . S
Fe133 O144 1.996 . S
Fe133 O148 1.976 . S
Fe133 O151 2.002 . S
O134 Fe132 1.918 . S
O134 Fe133 1.918 . S
O134 Fe135 1.918 . S
Fe135 O134 1.918 . S
Fe135 O136 2.002 . S
Fe135 O145 1.976 . S
Fe135 O149 1.996 . S
Fe135 O152 1.997 . S
O136 Fe135 2.002 . S
O136 C153 1.295 . S
O137 Fe132 1.997 . S
O137 C153 1.235 . S
O138 Fe132 2.002 . S
O138 C139 1.295 . S
C139 O138 1.295 . S
C139 O141 1.235 . S
C140 O145 1.287 . S
C140 O146 1.255 . S
O141 Fe133 1.997 . S
O141 C139 1.235 . S
C142 O148 1.287 . S
C142 O149 1.255 . S
O143 Fe132 1.976 . S
O143 C150 1.287 . S
O144 Fe133 1.996 . S
O144 C150 1.255 . S
O145 Fe135 1.976 . S
O145 C140 1.287 . S
O146 Fe132 1.996 . S
O146 C140 1.255 . S
C147 O151 1.295 . S
C147 O152 1.235 . S
O148 Fe133 1.976 . S
O148 C142 1.287 . S
O149 Fe135 1.996 . S
O149 C142 1.255 . S
C150 O143 1.287 . S
C150 O144 1.255 . S
O151 Fe133 2.002 . S
O151 C147 1.295 . S
O152 Fe135 1.997 . S
O152 C147 1.235 . S
C153 O136 1.295 . S
C153 O137 1.235 . S
Fe154 O156 1.918 . S
Fe154 O159 1.997 . S
Fe154 O160 2.002 . S
Fe154 O165 1.976 . S
Fe154 O168 1.996 . S
Fe155 O156 1.918 . S
Fe155 O163 1.997 . S
Fe155 O166 1.996 . S
Fe155 O170 1.976 . S
Fe155 O173 2.002 . S
O156 Fe154 1.918 . S
O156 Fe155 1.918 . S
O156 Fe157 1.918 . S
Fe157 O156 1.918 . S
Fe157 O158 2.002 . S
Fe157 O167 1.976 . S
Fe157 O171 1.996 . S
Fe157 O174 1.997 . S
O158 Fe157 2.002 . S
O158 C175 1.295 . S
O159 Fe154 1.997 . S
O159 C175 1.235 . S
O160 Fe154 2.002 . S
O160 C161 1.295 . S
C161 O160 1.295 . S
C161 O163 1.235 . S
C162 O167 1.287 . S
C162 O168 1.255 . S
O163 Fe155 1.997 . S
O163 C161 1.235 . S
C164 O170 1.287 . S
C164 O171 1.255 . S
O165 Fe154 1.976 . S
O165 C172 1.287 . S
O166 Fe155 1.996 . S
O166 C172 1.255 . S
O167 Fe157 1.976 . S
O167 C162 1.287 . S
O168 Fe154 1.996 . S
O168 C162 1.255 . S
C169 O173 1.295 . S
C169 O174 1.235 . S
O170 Fe155 1.976 . S
O170 C164 1.287 . S
O171 Fe157 1.996 . S
O171 C164 1.255 . S
C172 O165 1.287 . S
C172 O166 1.255 . S
O173 Fe155 2.002 . S
O173 C169 1.295 . S
O174 Fe157 1.997 . S
O174 C169 1.235 . S
C175 O158 1.295 . S
C175 O159 1.235 . S
C176 C177 1.170 . S
C176 C178 1.380 . S
C177 C176 1.170 . S
C178 C176 1.380 . S
C178 C179 1.170 . S
C179 C178 1.170 . S
C180 C181 1.170 . S
C180 C182 1.380 . S
C181 C180 1.170 . S
C182 C180 1.380 . S
C182 C183 1.170 . S
C183 C182 1.170 . S
C184 C185 1.170 . S
C184 C186 1.380 . S
C185 C184 1.170 . S
C186 C184 1.380 . S
C186 C187 1.170 . S
C187 C186 1.170 . S
C188 C189 1.170 . S
C188 C190 1.380 . S
C189 C188 1.170 . S
C190 C188 1.380 . S
C190 C191 1.170 . S
C191 C190 1.170 . S
C192 C193 1.170 . S
C192 C194 1.380 . S
C193 C192 1.170 . S
C194 C192 1.380 . S
C194 C195 1.170 . S
C195 C194 1.170 . S
C196 C197 1.170 . S
C196 C198 1.380 . S
C197 C196 1.170 . S
C198 C196 1.380 . S
C198 C199 1.170 . S
C199 C198 1.170 . S
C200 C201 1.170 . S
C200 C202 1.380 . S
C201 C200 1.170 . S
C202 C200 1.380 . S
C202 C203 1.170 . S
C203 C202 1.170 . S
C204 C205 1.170 . S
C204 C206 1.380 . S
C205 C204 1.170 . S
C206 C204 1.380 . S
C206 C207 1.170 . S
C207 C206 1.170 . S
C208 C209 1.170 . S
C208 C210 1.380 1_655 S
C209 C208 1.170 . S
C210 C208 1.380 1_455 S
C210 C211 1.170 . S
C211 C210 1.170 . S
C212 C213 1.170 . S
C212 C214 1.380 1_545 S
C213 C212 1.170 . S
C214 C212 1.380 1_565 S
C214 C215 1.170 . S
C215 C214 1.170 . S
C216 C217 1.170 . S
C216 C218 1.380 1_655 S
C217 C216 1.170 . S
C218 C216 1.380 1_455 S
C218 C219 1.170 . S
C219 C218 1.170 . S
C220 C221 1.170 . S
C220 C222 1.380 1_545 S
C221 C220 1.170 . S
C222 C220 1.380 1_565 S
C222 C223 1.170 . S
C223 C222 1.170 . S
C224 C225 1.170 . S
C224 C226 1.380 1_455 S
C225 C224 1.170 . S
C226 C224 1.380 1_655 S
C226 C227 1.170 . S
C227 C226 1.170 . S
C228 C229 1.170 . S
C228 C230 1.380 1_565 S
C229 C228 1.170 . S
C230 C228 1.380 1_545 S
C230 C231 1.170 . S
C231 C230 1.170 . S
C232 C233 1.170 . S
C232 C234 1.380 1_655 S
C233 C232 1.170 . S
C234 C232 1.380 1_455 S
C234 C235 1.170 . S
C235 C234 1.170 . S
C236 C237 1.170 . S
C236 C238 1.380 1_565 S
C237 C236 1.170 . S
C238 C236 1.380 1_545 S
C238 C239 1.170 . S
C239 C238 1.170 . S
C240 C241 1.170 . S
C240 C242 1.380 . S
C241 C240 1.170 . S
C242 C240 1.380 . S
C242 C243 1.170 . S
C243 C242 1.170 . S
C244 C245 1.170 . S
C244 C246 1.380 . S
C245 C244 1.170 . S
C246 C244 1.380 . S
C246 C247 1.170 . S
C247 C246 1.170 . S
C248 C249 1.170 . S
C248 C250 1.380 . S
C249 C248 1.170 . S
C250 C248 1.380 . S
C250 C251 1.170 . S
C251 C250 1.170 . S
C252 C253 1.170 . S
C252 C254 1.380 . S
C253 C252 1.170 . S
C254 C252 1.380 . S
C254 C255 1.170 . S
C255 C254 1.170 . S
C256 C257 1.170 . S
C256 C258 1.380 . S
C257 C256 1.170 . S
C258 C256 1.380 . S
C258 C259 1.170 . S
C259 C258 1.170 . S
C260 C261 1.170 . S
C260 C262 1.380 . S
C261 C260 1.170 . S
C262 C260 1.380 . S
C262 C263 1.170 . S
C263 C262 1.170 . S
C264 C265 1.170 . S
C264 C266 1.380 . S
C265 C264 1.170 . S
C266 C264 1.380 . S
C266 C267 1.170 . S
C267 C266 1.170 . S
C268 C269 1.170 . S
C268 C270 1.380 . S
C269 C268 1.170 . S
C270 C268 1.380 . S
C270 C271 1.170 . S
C271 C270 1.170 . S
C177 C140 1.429 . S
C179 C8 1.432 . S
C181 C43 1.459 . S
C183 C164 1.477 . S
C185 C96 1.466 . S
C187 C59 1.456 . S
C189 C73 1.504 . S
C191 C125 1.505 . S
C193 C109 1.443 . S
C195 C54 1.455 . S
C197 C84 1.411 . S
C199 C120 1.411 . S
C201 C153 1.504 . S
C203 C21 1.508 . S
C205 C30 1.468 . S
C207 C169 1.461 . S
C209 C40 1.432 . S
C211 C118 1.425 . S
C213 C147 1.464 . S
C215 C52 1.464 . S
C217 C161 1.464 . S
C219 C76 1.474 . S
C221 C15 1.508 . S
C223 C103 1.501 . S
C225 C81 1.450 . S
C227 C172 1.452 . S
C229 C98 1.422 . S
C231 C10 1.422 . S
C233 C29 1.485 . S
C235 C131 1.493 . S
C237 C65 1.464 . S
C239 C142 1.467 . S
C241 C162 1.209 . S
C243 C18 1.204 . S
C245 C37 1.244 . S
C247 C106 1.246 . S
C249 C51 1.277 . S
C251 C117 1.290 . S
C253 C150 1.246 . S
C255 C87 1.238 . S
C257 C128 1.206 . S
C259 C62 1.209 . S
C261 C139 1.238 . S
C263 C74 1.245 . S
C265 C175 1.292 . S
C267 C7 1.282 . S
C269 C95 1.250 . S
C271 C32 1.248 . S
