# Generated by pormake.
# Topology dei, (4)-cn, num edge types: 1
# Building blocks:
#     Node 0, Type 0, BuildingBlock: GALJAG_clean_sbu_0, # of connection points: 4
#     Node 1, Type 0, BuildingBlock: GALJAG_clean_sbu_0, # of connection points: 4
#     Node 2, Type 0, BuildingBlock: GALJAG_clean_sbu_0, # of connection points: 4
#     Node 3, Type 0, BuildingBlock: GALJAG_clean_sbu_0, # of connection points: 4
#     Node 4, Type 0, BuildingBlock: GALJAG_clean_sbu_0, # of connection points: 4
#     Node 5, Type 0, BuildingBlock: GALJAG_clean_sbu_0, # of connection points: 4
#     Node 6, Type 0, BuildingBlock: GALJAG_clean_sbu_0, # of connection points: 4
#     Node 7, Type 0, BuildingBlock: GALJAG_clean_sbu_0, # of connection points: 4
#     Node 8, Type 0, BuildingBlock: GALJAG_clean_sbu_0, # of connection points: 4
#     Node 9, Type 0, BuildingBlock: GALJAG_clean_sbu_0, # of connection points: 4
#     Node 10, Type 0, BuildingBlock: GALJAG_clean_sbu_0, # of connection points: 4
#     Node 11, Type 0, BuildingBlock: GALJAG_clean_sbu_0, # of connection points: 4
#     Node 12, Type 0, BuildingBlock: GALJAG_clean_sbu_0, # of connection points: 4
#     Node 13, Type 0, BuildingBlock: GALJAG_clean_sbu_0, # of connection points: 4
#     Node 14, Type 0, BuildingBlock: GALJAG_clean_sbu_0, # of connection points: 4
#     Node 15, Type 0, BuildingBlock: GALJAG_clean_sbu_0, # of connection points: 4
#     Node 16, Type 0, BuildingBlock: GALJAG_clean_sbu_0, # of connection points: 4
#     Node 17, Type 0, BuildingBlock: GALJAG_clean_sbu_0, # of connection points: 4
#     Node 18, Type 0, BuildingBlock: GALJAG_clean_sbu_0, # of connection points: 4
#     Node 19, Type 0, BuildingBlock: GALJAG_clean_sbu_0, # of connection points: 4
#     Node 20, Type 0, BuildingBlock: GALJAG_clean_sbu_0, # of connection points: 4
#     Node 21, Type 0, BuildingBlock: GALJAG_clean_sbu_0, # of connection points: 4
#     Node 22, Type 0, BuildingBlock: GALJAG_clean_sbu_0, # of connection points: 4
#     Node 23, Type 0, BuildingBlock: GALJAG_clean_sbu_0, # of connection points: 4
#     Node 24, Type 0, BuildingBlock: GALJAG_clean_sbu_0, # of connection points: 4
#     Node 25, Type 0, BuildingBlock: GALJAG_clean_sbu_0, # of connection points: 4
#     Node 26, Type 0, BuildingBlock: GALJAG_clean_sbu_0, # of connection points: 4
#     Node 27, Type 0, BuildingBlock: GALJAG_clean_sbu_0, # of connection points: 4
#     Node 28, Type 0, BuildingBlock: GALJAG_clean_sbu_0, # of connection points: 4
#     Node 29, Type 0, BuildingBlock: GALJAG_clean_sbu_0, # of connection points: 4
#     Node 30, Type 0, BuildingBlock: GALJAG_clean_sbu_0, # of connection points: 4
#     Node 31, Type 0, BuildingBlock: GALJAG_clean_sbu_0, # of connection points: 4
#     Edge 32, Type (0, 0), BuildingBlock: XUDNAN_clean_linker_2, # of connection points: 2
#     Edge 33, Type (0, 0), BuildingBlock: XUDNAN_clean_linker_2, # of connection points: 2
#     Edge 34, Type (0, 0), BuildingBlock: XUDNAN_clean_linker_2, # of connection points: 2
#     Edge 35, Type (0, 0), BuildingBlock: XUDNAN_clean_linker_2, # of connection points: 2
#     Edge 36, Type (0, 0), BuildingBlock: XUDNAN_clean_linker_2, # of connection points: 2
#     Edge 37, Type (0, 0), BuildingBlock: XUDNAN_clean_linker_2, # of connection points: 2
#     Edge 38, Type (0, 0), BuildingBlock: XUDNAN_clean_linker_2, # of connection points: 2
#     Edge 39, Type (0, 0), BuildingBlock: XUDNAN_clean_linker_2, # of connection points: 2
#     Edge 40, Type (0, 0), BuildingBlock: XUDNAN_clean_linker_2, # of connection points: 2
#     Edge 41, Type (0, 0), BuildingBlock: XUDNAN_clean_linker_2, # of connection points: 2
#     Edge 42, Type (0, 0), BuildingBlock: XUDNAN_clean_linker_2, # of connection points: 2
#     Edge 43, Type (0, 0), BuildingBlock: XUDNAN_clean_linker_2, # of connection points: 2
#     Edge 44, Type (0, 0), BuildingBlock: XUDNAN_clean_linker_2, # of connection points: 2
#     Edge 45, Type (0, 0), BuildingBlock: XUDNAN_clean_linker_2, # of connection points: 2
#     Edge 46, Type (0, 0), BuildingBlock: XUDNAN_clean_linker_2, # of connection points: 2
#     Edge 47, Type (0, 0), BuildingBlock: XUDNAN_clean_linker_2, # of connection points: 2
#     Edge 48, Type (0, 0), BuildingBlock: XUDNAN_clean_linker_2, # of connection points: 2
#     Edge 49, Type (0, 0), BuildingBlock: XUDNAN_clean_linker_2, # of connection points: 2
#     Edge 50, Type (0, 0), BuildingBlock: XUDNAN_clean_linker_2, # of connection points: 2
#     Edge 51, Type (0, 0), BuildingBlock: XUDNAN_clean_linker_2, # of connection points: 2
#     Edge 52, Type (0, 0), BuildingBlock: XUDNAN_clean_linker_2, # of connection points: 2
#     Edge 53, Type (0, 0), BuildingBlock: XUDNAN_clean_linker_2, # of connection points: 2
#     Edge 54, Type (0, 0), BuildingBlock: XUDNAN_clean_linker_2, # of connection points: 2
#     Edge 55, Type (0, 0), BuildingBlock: XUDNAN_clean_linker_2, # of connection points: 2
#     Edge 56, Type (0, 0), BuildingBlock: XUDNAN_clean_linker_2, # of connection points: 2
#     Edge 57, Type (0, 0), BuildingBlock: XUDNAN_clean_linker_2, # of connection points: 2
#     Edge 58, Type (0, 0), BuildingBlock: XUDNAN_clean_linker_2, # of connection points: 2
#     Edge 59, Type (0, 0), BuildingBlock: XUDNAN_clean_linker_2, # of connection points: 2
#     Edge 60, Type (0, 0), BuildingBlock: XUDNAN_clean_linker_2, # of connection points: 2
#     Edge 61, Type (0, 0), BuildingBlock: XUDNAN_clean_linker_2, # of connection points: 2
#     Edge 62, Type (0, 0), BuildingBlock: XUDNAN_clean_linker_2, # of connection points: 2
#     Edge 63, Type (0, 0), BuildingBlock: XUDNAN_clean_linker_2, # of connection points: 2
#     Edge 64, Type (0, 0), BuildingBlock: XUDNAN_clean_linker_2, # of connection points: 2
#     Edge 65, Type (0, 0), BuildingBlock: XUDNAN_clean_linker_2, # of connection points: 2
#     Edge 66, Type (0, 0), BuildingBlock: XUDNAN_clean_linker_2, # of connection points: 2
#     Edge 67, Type (0, 0), BuildingBlock: XUDNAN_clean_linker_2, # of connection points: 2
#     Edge 68, Type (0, 0), BuildingBlock: XUDNAN_clean_linker_2, # of connection points: 2
#     Edge 69, Type (0, 0), BuildingBlock: XUDNAN_clean_linker_2, # of connection points: 2
#     Edge 70, Type (0, 0), BuildingBlock: XUDNAN_clean_linker_2, # of connection points: 2
#     Edge 71, Type (0, 0), BuildingBlock: XUDNAN_clean_linker_2, # of connection points: 2
#     Edge 72, Type (0, 0), BuildingBlock: XUDNAN_clean_linker_2, # of connection points: 2
#     Edge 73, Type (0, 0), BuildingBlock: XUDNAN_clean_linker_2, # of connection points: 2
#     Edge 74, Type (0, 0), BuildingBlock: XUDNAN_clean_linker_2, # of connection points: 2
#     Edge 75, Type (0, 0), BuildingBlock: XUDNAN_clean_linker_2, # of connection points: 2
#     Edge 76, Type (0, 0), BuildingBlock: XUDNAN_clean_linker_2, # of connection points: 2
#     Edge 77, Type (0, 0), BuildingBlock: XUDNAN_clean_linker_2, # of connection points: 2
#     Edge 78, Type (0, 0), BuildingBlock: XUDNAN_clean_linker_2, # of connection points: 2
#     Edge 79, Type (0, 0), BuildingBlock: XUDNAN_clean_linker_2, # of connection points: 2
#     Edge 80, Type (0, 0), BuildingBlock: XUDNAN_clean_linker_2, # of connection points: 2
#     Edge 81, Type (0, 0), BuildingBlock: XUDNAN_clean_linker_2, # of connection points: 2
#     Edge 82, Type (0, 0), BuildingBlock: XUDNAN_clean_linker_2, # of connection points: 2
#     Edge 83, Type (0, 0), BuildingBlock: XUDNAN_clean_linker_2, # of connection points: 2
#     Edge 84, Type (0, 0), BuildingBlock: XUDNAN_clean_linker_2, # of connection points: 2
#     Edge 85, Type (0, 0), BuildingBlock: XUDNAN_clean_linker_2, # of connection points: 2
#     Edge 86, Type (0, 0), BuildingBlock: XUDNAN_clean_linker_2, # of connection points: 2
#     Edge 87, Type (0, 0), BuildingBlock: XUDNAN_clean_linker_2, # of connection points: 2
#     Edge 88, Type (0, 0), BuildingBlock: XUDNAN_clean_linker_2, # of connection points: 2
#     Edge 89, Type (0, 0), BuildingBlock: XUDNAN_clean_linker_2, # of connection points: 2
#     Edge 90, Type (0, 0), BuildingBlock: XUDNAN_clean_linker_2, # of connection points: 2
#     Edge 91, Type (0, 0), BuildingBlock: XUDNAN_clean_linker_2, # of connection points: 2
#     Edge 92, Type (0, 0), BuildingBlock: XUDNAN_clean_linker_2, # of connection points: 2
#     Edge 93, Type (0, 0), BuildingBlock: XUDNAN_clean_linker_2, # of connection points: 2
#     Edge 94, Type (0, 0), BuildingBlock: XUDNAN_clean_linker_2, # of connection points: 2
#     Edge 95, Type (0, 0), BuildingBlock: XUDNAN_clean_linker_2, # of connection points: 2
# Relax obj value: 0.292
# Max RMSD: 0.107
# Mean RMSD: 0.106
data_MOF--net-dei--node1-GALJAG_clean_sbu_0--edge1-XUDNAN_clean_linker_2
_symmetry_space_group_name_H-M    P1
_symmetry_Int_Tables_number       1
_symmetry_cell_setting            triclinic
loop_
_symmetry_equiv_pos_as_xyz
'x, y, z'
_cell_length_a     57.023532
_cell_length_b     57.222936
_cell_length_c     81.752137
_cell_angle_alpha  90.064841
_cell_angle_beta   89.994215
_cell_angle_gamma 89.992409
loop_
_atom_site_label
_atom_site_type_symbol
_atom_site_fract_x
_atom_site_fract_y
_atom_site_fract_z
_atom_type_partial_charge
In0 In 0.13353 0.62519 0.03433 0.0
O1 O 0.15832 0.60077 0.01987 0.0
O2 O 0.12411 0.58867 0.02538 0.0
C3 C 0.1511 0.6669 0.02408 0.0
C4 C 0.08809 0.63824 0.03374 0.0
C5 C 0.14602 0.61347 0.06511 0.0
O6 O 0.14243 0.65223 0.01423 0.0
O7 O 0.15209 0.65989 0.03865 0.0
O8 O 0.12522 0.61204 0.05999 0.0
O9 O 0.16069 0.62034 0.05458 0.0
C10 C 0.14371 0.5842 0.01902 0.0
O11 O 0.10168 0.64276 0.04547 0.0
O12 O 0.09733 0.62693 0.02213 0.0
In13 In 0.62823 0.8831 0.28107 0.0
O14 O 0.6519 0.87363 0.3024 0.0
O15 O 0.62767 0.90141 0.30604 0.0
C16 C 0.61726 0.83719 0.28249 0.0
C17 C 0.58659 0.90032 0.26983 0.0
C18 C 0.66736 0.89825 0.26521 0.0
O19 O 0.61072 0.85175 0.29311 0.0
O20 O 0.62908 0.84579 0.27093 0.0
O21 O 0.65917 0.87792 0.26378 0.0
O22 O 0.65484 0.91179 0.27377 0.0
C23 C 0.64361 0.88871 0.31205 0.0
O24 O 0.60082 0.88945 0.26077 0.0
O25 O 0.59412 0.90396 0.28409 0.0
In26 In 0.37683 0.38688 0.53317 0.0
O27 O 0.41441 0.39363 0.54169 0.0
O28 O 0.40873 0.38585 0.51653 0.0
C29 C 0.36512 0.3917 0.56489 0.0
C30 C 0.35857 0.42516 0.5179 0.0
C31 C 0.36738 0.34137 0.52603 0.0
O32 O 0.38391 0.39995 0.55908 0.0
O33 O 0.35223 0.38128 0.55465 0.0
O34 O 0.35533 0.35782 0.52005 0.0
O35 O 0.38373 0.34803 0.53524 0.0
C36 C 0.42329 0.39065 0.52768 0.0
O37 O 0.37556 0.41358 0.51236 0.0
O38 O 0.34964 0.41664 0.53064 0.0
In39 In 0.88062 0.12919 0.78852 0.0
O40 O 0.85376 0.12359 0.80884 0.0
O41 O 0.8894 0.11642 0.81433 0.0
C42 C 0.88506 0.17578 0.79289 0.0
C43 C 0.92297 0.11457 0.77684 0.0
C44 C 0.84344 0.11603 0.76984 0.0
O45 O 0.88852 0.16115 0.80416 0.0
O46 O 0.87938 0.16694 0.77929 0.0
O47 O 0.8568 0.10134 0.77662 0.0
O48 O 0.84974 0.13696 0.77168 0.0
C49 C 0.86851 0.1172 0.81941 0.0
O50 O 0.90886 0.10089 0.78386 0.0
O51 O 0.91515 0.13492 0.7749 0.0
In52 In 0.13447 0.38303 0.96109 0.0
O53 O 0.10074 0.37627 0.94741 0.0
O54 O 0.09836 0.37905 0.97331 0.0
C55 C 0.14964 0.39465 0.93093 0.0
C56 C 0.14584 0.42265 0.97775 0.0
C57 C 0.14789 0.33888 0.96942 0.0
O58 O 0.12961 0.40009 0.93626 0.0
O59 O 0.16254 0.38412 0.9411 0.0
O60 O 0.14815 0.35533 0.97975 0.0
O61 O 0.14175 0.34503 0.95532 0.0
C62 C 0.08783 0.37567 0.9599 0.0
O63 O 0.1251 0.41559 0.97588 0.0
O64 O 0.16121 0.40913 0.97188 0.0
In65 In 0.87266 0.88787 0.21286 0.0
O66 O 0.90061 0.91642 0.21708 0.0
O67 O 0.9065 0.88337 0.22781 0.0
C68 C 0.8321 0.89698 0.2294 0.0
C69 C 0.86724 0.90308 0.18173 0.0
C70 C 0.87571 0.84112 0.20884 0.0
O71 O 0.84894 0.91135 0.22913 0.0
O72 O 0.83627 0.87809 0.22208 0.0
O73 O 0.87455 0.85536 0.19712 0.0
O74 O 0.87537 0.85042 0.22289 0.0
C75 C 0.91447 0.90349 0.22498 0.0
O76 O 0.88553 0.89303 0.18675 0.0
O77 O 0.85184 0.90627 0.19258 0.0
In78 In 0.38372 0.62624 0.46595 0.0
O79 O 0.35393 0.60412 0.47771 0.0
O80 O 0.3884 0.59026 0.47653 0.0
C81 C 0.36885 0.67087 0.47008 0.0
C82 C 0.42864 0.6331 0.47494 0.0
C83 C 0.37858 0.61182 0.43471 0.0
O84 O 0.36487 0.65528 0.4807 0.0
O85 O 0.3793 0.66362 0.45749 0.0
O86 O 0.39614 0.60705 0.4434 0.0
O87 O 0.36309 0.62404 0.44174 0.0
C88 C 0.36734 0.58691 0.48039 0.0
O89 O 0.4218 0.63311 0.46029 0.0
O90 O 0.41259 0.63016 0.48539 0.0
In91 In 0.63793 0.12526 0.7187 0.0
O92 O 0.61019 0.10893 0.7361 0.0
O93 O 0.60229 0.11138 0.7109 0.0
C94 C 0.68011 0.11418 0.73202 0.0
C95 C 0.64638 0.11816 0.68665 0.0
C96 C 0.63136 0.17071 0.7262 0.0
O97 O 0.66402 0.09912 0.7304 0.0
O98 O 0.67453 0.13442 0.72741 0.0
O99 O 0.63722 0.16363 0.71219 0.0
O100 O 0.62879 0.15476 0.73673 0.0
C101 C 0.59518 0.10592 0.72493 0.0
O102 O 0.63539 0.13564 0.69209 0.0
O103 O 0.65306 0.10378 0.69742 0.0
In104 In 0.87071 0.38809 0.96546 0.0
O105 O 0.87993 0.40498 0.94122 0.0
O106 O 0.84467 0.39392 0.9445 0.0
C107 C 0.91634 0.37605 0.96347 0.0
C108 C 0.85341 0.34616 0.97542 0.0
C109 C 0.85986 0.42783 0.98193 0.0
O110 O 0.90175 0.37247 0.95217 0.0
O111 O 0.90789 0.38551 0.97615 0.0
O112 O 0.88058 0.42116 0.97935 0.0
O113 O 0.84433 0.41383 0.97692 0.0
C114 C 0.85973 0.40301 0.93512 0.0
O115 O 0.85302 0.35308 0.96083 0.0
O116 O 0.86148 0.36094 0.98542 0.0
In117 In 0.38079 0.12547 0.71817 0.0
O118 O 0.35879 0.13712 0.69646 0.0
O119 O 0.38229 0.10869 0.69278 0.0
C120 C 0.38781 0.17118 0.72508 0.0
C121 C 0.42437 0.10772 0.72384 0.0
C122 C 0.34193 0.10765 0.73289 0.0
O123 O 0.38529 0.16351 0.71075 0.0
O124 O 0.38696 0.15577 0.73608 0.0
O125 O 0.35335 0.09637 0.72227 0.0
O126 O 0.35089 0.12702 0.73669 0.0
C127 C 0.36724 0.12231 0.68664 0.0
O128 O 0.40774 0.10494 0.73386 0.0
O129 O 0.41872 0.11859 0.71107 0.0
In130 In 0.64509 0.62433 0.46535 0.0
O131 O 0.6362 0.61507 0.43918 0.0
O132 O 0.67143 0.62495 0.444 0.0
C133 C 0.59972 0.62557 0.47448 0.0
C134 C 0.65621 0.66984 0.47078 0.0
C135 C 0.66011 0.58404 0.47941 0.0
O136 O 0.60642 0.62508 0.4598 0.0
O137 O 0.61605 0.62504 0.48492 0.0
O138 O 0.66601 0.60387 0.48491 0.0
O139 O 0.64717 0.58479 0.46696 0.0
C140 C 0.65642 0.6186 0.43352 0.0
O141 O 0.66947 0.65348 0.47559 0.0
O142 O 0.63807 0.66307 0.46343 0.0
In143 In 0.1291 0.88751 0.21636 0.0
O144 O 0.12136 0.87848 0.18967 0.0
O145 O 0.14034 0.90963 0.19438 0.0
C146 C 0.1305 0.84186 0.22385 0.0
C147 C 0.08569 0.90299 0.22573 0.0
C148 C 0.17145 0.89982 0.22908 0.0
O149 O 0.12858 0.84926 0.20935 0.0
O150 O 0.13159 0.85759 0.23471 0.0
O151 O 0.15264 0.90953 0.23378 0.0
O152 O 0.16861 0.88445 0.21825 0.0
C153 C 0.13185 0.89597 0.18382 0.0
O154 O 0.10105 0.91659 0.21997 0.0
O155 O 0.09269 0.88233 0.22748 0.0
In156 In 0.87194 0.63171 0.03455 0.0
O157 O 0.86138 0.65836 0.01469 0.0
O158 O 0.85267 0.66589 0.03931 0.0
C159 C 0.8613 0.59098 0.01929 0.0
C160 C 0.86337 0.61803 0.0656 0.0
C161 C 0.9173 0.64463 0.03284 0.0
O162 O 0.84604 0.60655 0.02189 0.0
O163 O 0.88171 0.59643 0.02375 0.0
O164 O 0.90387 0.65061 0.04437 0.0
O165 O 0.90777 0.63229 0.02187 0.0
C166 C 0.85276 0.67282 0.0247 0.0
O167 O 0.88368 0.61957 0.05966 0.0
O168 O 0.84706 0.62328 0.05583 0.0
In169 In 0.13855 0.12561 0.78523 0.0
O170 O 0.10017 0.13436 0.78055 0.0
O171 O 0.11045 0.09928 0.77631 0.0
C172 C 0.18002 0.11059 0.77251 0.0
C173 C 0.13949 0.11323 0.81719 0.0
C174 C 0.13946 0.17122 0.77719 0.0
O175 O 0.16056 0.10498 0.76622 0.0
O176 O 0.17833 0.12318 0.78507 0.0
O177 O 0.13738 0.1641 0.79174 0.0
O178 O 0.14103 0.15523 0.76654 0.0
C179 C 0.09399 0.11409 0.77641 0.0
O180 O 0.14466 0.13342 0.81225 0.0
O181 O 0.13384 0.09911 0.806 0.0
In182 In 0.64132 0.3859 0.53558 0.0
O183 O 0.63313 0.39543 0.56198 0.0
O184 O 0.66501 0.37722 0.55716 0.0
C185 C 0.59529 0.39165 0.52897 0.0
C186 C 0.65105 0.34083 0.52728 0.0
C187 C 0.66147 0.42523 0.52301 0.0
O188 O 0.60328 0.39155 0.54337 0.0
O189 O 0.61054 0.38914 0.51792 0.0
O190 O 0.6508 0.41059 0.51421 0.0
O191 O 0.663 0.41942 0.53779 0.0
C192 C 0.65166 0.38648 0.56768 0.0
O193 O 0.66544 0.35718 0.52455 0.0
O194 O 0.63217 0.34739 0.53379 0.0
In195 In 0.374 0.88204 0.28104 0.0
O196 O 0.40173 0.88743 0.26071 0.0
O197 O 0.40813 0.90281 0.28378 0.0
C198 C 0.3356 0.89912 0.26525 0.0
C199 C 0.35976 0.88874 0.31217 0.0
C200 C 0.38361 0.83577 0.28309 0.0
O201 O 0.34747 0.91124 0.27515 0.0
O202 O 0.34408 0.87917 0.26245 0.0
O203 O 0.3924 0.85083 0.29251 0.0
O204 O 0.37 0.844 0.27238 0.0
C205 C 0.41583 0.89868 0.26964 0.0
O206 O 0.3508 0.87347 0.30295 0.0
O207 O 0.37565 0.90092 0.30561 0.0
In208 In 0.6387 0.12461 0.53497 0.0
O209 O 0.60087 0.11722 0.54182 0.0
O210 O 0.60837 0.12339 0.51668 0.0
C211 C 0.65036 0.12286 0.567 0.0
C212 C 0.65439 0.08482 0.52067 0.0
C213 C 0.65 0.16945 0.52704 0.0
O214 O 0.63115 0.13089 0.5619 0.0
O215 O 0.66416 0.11607 0.55592 0.0
O216 O 0.66513 0.1533 0.52682 0.0
O217 O 0.62971 0.16275 0.53078 0.0
C218 C 0.59306 0.11897 0.52743 0.0
O219 O 0.6595 0.10481 0.51508 0.0
O220 O 0.64182 0.08518 0.53334 0.0
In221 In 0.13694 0.38904 0.77968 0.0
O222 O 0.16133 0.38406 0.80147 0.0
O223 O 0.12884 0.40094 0.80591 0.0
C224 C 0.1373 0.34263 0.77396 0.0
C225 C 0.09256 0.40341 0.77224 0.0
C226 C 0.17364 0.40798 0.76307 0.0
O227 O 0.13681 0.35116 0.78823 0.0
O228 O 0.13746 0.35754 0.76257 0.0
O229 O 0.16374 0.3892 0.759 0.0
O230 O 0.16386 0.41843 0.77483 0.0
C231 C 0.14798 0.39367 0.81175 0.0
O232 O 0.10955 0.41754 0.77286 0.0
O233 O 0.09812 0.38255 0.77505 0.0
In234 In 0.87001 0.88494 0.0306 0.0
O235 O 0.84335 0.91052 0.01899 0.0
O236 O 0.87837 0.92187 0.02249 0.0
C237 C 0.85182 0.84227 0.02302 0.0
C238 C 0.91576 0.87843 0.02347 0.0
C239 C 0.86208 0.89394 0.06249 0.0
O240 O 0.85602 0.8575 0.01228 0.0
O241 O 0.85574 0.84897 0.03742 0.0
O242 O 0.88152 0.88683 0.05706 0.0
O243 O 0.84621 0.89626 0.05181 0.0
C244 C 0.85803 0.92697 0.01772 0.0
O245 O 0.90817 0.88098 0.03784 0.0
O246 O 0.90018 0.879 0.01249 0.0
In247 In 0.38341 0.61724 0.28349 0.0
O248 O 0.4176 0.62255 0.26905 0.0
O249 O 0.40989 0.58819 0.27654 0.0
C250 C 0.34205 0.60229 0.27013 0.0
C251 C 0.38074 0.60664 0.3156 0.0
C252 C 0.38757 0.66416 0.28575 0.0
O253 O 0.35002 0.59505 0.28353 0.0
O254 O 0.35557 0.61623 0.26278 0.0
O255 O 0.39805 0.65014 0.29513 0.0
O256 O 0.37467 0.65455 0.27512 0.0
C257 C 0.42452 0.60173 0.26995 0.0
O258 O 0.36937 0.62328 0.30931 0.0
O259 O 0.39341 0.59533 0.30569 0.0
In260 In 0.64269 0.8866 0.46372 0.0
O261 O 0.60465 0.89288 0.45643 0.0
O262 O 0.61183 0.88649 0.48154 0.0
C263 C 0.65187 0.88879 0.43146 0.0
C264 C 0.66181 0.92602 0.47697 0.0
C265 C 0.6536 0.84146 0.4709 0.0
O266 O 0.63319 0.89677 0.43765 0.0
O267 O 0.66603 0.87987 0.44159 0.0
O268 O 0.66676 0.85816 0.47522 0.0
O269 O 0.63545 0.84773 0.46336 0.0
C270 C 0.59659 0.89051 0.47071 0.0
O271 O 0.64968 0.91186 0.48519 0.0
O272 O 0.66543 0.9196 0.46248 0.0
In273 In 0.3785 0.38683 0.71555 0.0
O274 O 0.40606 0.40547 0.73174 0.0
O275 O 0.41593 0.39433 0.70794 0.0
C276 C 0.33803 0.40198 0.72942 0.0
C277 C 0.36557 0.3926 0.68407 0.0
C278 C 0.38736 0.34196 0.7236 0.0
O279 O 0.35464 0.41597 0.72638 0.0
O280 O 0.34253 0.38095 0.72628 0.0
O281 O 0.3863 0.3491 0.70904 0.0
O282 O 0.38428 0.3576 0.7343 0.0
C283 C 0.42221 0.40368 0.72119 0.0
O284 O 0.35957 0.37528 0.69258 0.0
O285 O 0.37819 0.40741 0.69141 0.0
In286 In 0.86871 0.13274 0.97014 0.0
O287 O 0.90669 0.13517 0.96224 0.0
O288 O 0.89932 0.14007 0.98753 0.0
C289 C 0.86004 0.12301 0.93845 0.0
C290 C 0.85622 0.09151 0.98415 0.0
C291 C 0.85243 0.17626 0.97734 0.0
O292 O 0.88043 0.12504 0.94423 0.0
O293 O 0.84369 0.12587 0.94871 0.0
O294 O 0.85809 0.16978 0.96317 0.0
O295 O 0.85406 0.16047 0.98805 0.0
C296 C 0.91464 0.13902 0.97638 0.0
O297 O 0.87706 0.09754 0.98146 0.0
O298 O 0.84115 0.1067 0.98028 0.0
In299 In 0.13943 0.62527 0.21588 0.0
O300 O 0.11124 0.59771 0.22291 0.0
O301 O 0.10064 0.63289 0.21934 0.0
C302 C 0.17975 0.6099 0.23025 0.0
C303 C 0.14705 0.61616 0.18382 0.0
C304 C 0.13745 0.67084 0.22392 0.0
O305 O 0.15981 0.60403 0.23568 0.0
O306 O 0.17895 0.62279 0.21785 0.0
O307 O 0.13453 0.66335 0.20954 0.0
O308 O 0.14116 0.65519 0.23452 0.0
C309 C 0.09452 0.61231 0.22275 0.0
O310 O 0.15559 0.63339 0.19126 0.0
O311 O 0.13398 0.60327 0.19241 0.0
In312 In 0.37861 0.88797 0.46209 0.0
O313 O 0.3837 0.8971 0.43538 0.0
O314 O 0.34966 0.88606 0.44261 0.0
C315 C 0.42468 0.88866 0.46985 0.0
C316 C 0.36872 0.84243 0.46832 0.0
C317 C 0.36222 0.92795 0.4759 0.0
O318 O 0.41721 0.88962 0.45537 0.0
O319 O 0.40887 0.8872 0.48061 0.0
O320 O 0.35509 0.90804 0.48037 0.0
O321 O 0.37716 0.92749 0.46458 0.0
C322 C 0.36293 0.89268 0.43113 0.0
O323 O 0.36045 0.8588 0.47699 0.0
O324 O 0.38165 0.84915 0.45674 0.0
In325 In 0.87914 0.6228 0.21489 0.0
O326 O 0.85407 0.61074 0.19477 0.0
O327 O 0.89031 0.61176 0.18911 0.0
C328 C 0.88009 0.66941 0.20988 0.0
C329 C 0.92256 0.61003 0.22593 0.0
C330 C 0.84111 0.61131 0.2334 0.0
O331 O 0.88023 0.65467 0.1984 0.0
O332 O 0.87961 0.66069 0.22407 0.0
O333 O 0.85569 0.59615 0.2286 0.0
O334 O 0.84677 0.63197 0.22994 0.0
C335 C 0.86976 0.60772 0.18414 0.0
O336 O 0.9079 0.59531 0.22068 0.0
O337 O 0.91471 0.63055 0.22669 0.0
In338 In 0.13179 0.12328 0.96821 0.0
O339 O 0.15211 0.1516 0.98289 0.0
O340 O 0.13566 0.1611 0.96062 0.0
C341 C 0.14847 0.08505 0.98419 0.0
C342 C 0.13727 0.11009 0.93673 0.0
C343 C 0.08609 0.13033 0.97518 0.0
O344 O 0.128 0.09289 0.98588 0.0
O345 O 0.16144 0.09738 0.97511 0.0
O346 O 0.0933 0.12484 0.96111 0.0
O347 O 0.10196 0.13224 0.98586 0.0
C348 C 0.14731 0.16772 0.97284 0.0
O349 O 0.1216 0.1017 0.9459 0.0
O350 O 0.15059 0.12483 0.94352 0.0
In351 In 0.6375 0.38689 0.71854 0.0
O352 O 0.6589 0.37485 0.6967 0.0
O353 O 0.63739 0.40486 0.69351 0.0
C354 C 0.62959 0.3416 0.72578 0.0
C355 C 0.59344 0.40377 0.72311 0.0
C356 C 0.67664 0.40319 0.73364 0.0
O357 O 0.63365 0.34881 0.71149 0.0
O358 O 0.6292 0.35735 0.7366 0.0
O359 O 0.66353 0.41648 0.72535 0.0
O360 O 0.66902 0.38267 0.73513 0.0
C361 C 0.6516 0.39053 0.68716 0.0
O362 O 0.60948 0.40706 0.73355 0.0
O363 O 0.59998 0.3929 0.71052 0.0
In364 In 0.37546 0.12437 0.53478 0.0
O365 O 0.38387 0.11484 0.56115 0.0
O366 O 0.35132 0.13185 0.55637 0.0
C367 C 0.42139 0.11863 0.52779 0.0
C368 C 0.36624 0.16976 0.52735 0.0
C369 C 0.35552 0.08561 0.52119 0.0
O370 O 0.41328 0.11638 0.54207 0.0
O371 O 0.40631 0.12354 0.51705 0.0
O372 O 0.36721 0.10015 0.51299 0.0
O373 O 0.35275 0.09129 0.53593 0.0
C374 C 0.36503 0.12314 0.56689 0.0
O375 O 0.35276 0.15344 0.52282 0.0
O376 O 0.38387 0.16303 0.5353 0.0
In377 In 0.6357 0.62085 0.28273 0.0
O378 O 0.60322 0.6217 0.26623 0.0
O379 O 0.60822 0.5913 0.28048 0.0
C380 C 0.6751 0.60848 0.26601 0.0
C381 C 0.64922 0.61431 0.31416 0.0
C382 C 0.62438 0.66649 0.2847 0.0
O383 O 0.66178 0.59347 0.2725 0.0
O384 O 0.66754 0.62911 0.26691 0.0
O385 O 0.63475 0.65791 0.27243 0.0
O386 O 0.61973 0.65206 0.29589 0.0
C387 C 0.59502 0.60236 0.27081 0.0
O388 O 0.66187 0.62429 0.30366 0.0
O389 O 0.62969 0.60727 0.30882 0.0
In390 In 0.13346 0.87919 0.0319 0.0
O391 O 0.14564 0.85181 0.01288 0.0
O392 O 0.15007 0.84377 0.03788 0.0
C393 C 0.14639 0.92158 0.01989 0.0
C394 C 0.14097 0.88538 0.06417 0.0
C395 C 0.08747 0.87487 0.02444 0.0
O396 O 0.16007 0.90418 0.01947 0.0
O397 O 0.12659 0.91731 0.02601 0.0
O398 O 0.0949 0.87754 0.03883 0.0
O399 O 0.10328 0.87425 0.01365 0.0
C400 C 0.15184 0.83684 0.02332 0.0
O401 O 0.12349 0.87447 0.05857 0.0
O402 O 0.15516 0.89279 0.05348 0.0
In403 In 0.87959 0.39363 0.78635 0.0
O404 O 0.90797 0.42173 0.7817 0.0
O405 O 0.91339 0.38794 0.7719 0.0
C406 C 0.8416 0.40424 0.76775 0.0
C407 C 0.86723 0.40779 0.81678 0.0
C408 C 0.8853 0.34736 0.79152 0.0
O409 O 0.85625 0.41968 0.77199 0.0
O410 O 0.84707 0.38382 0.77197 0.0
O411 O 0.87983 0.3556 0.77771 0.0
O412 O 0.88808 0.36244 0.80262 0.0
C413 C 0.92163 0.40809 0.77417 0.0
O414 O 0.85259 0.40106 0.80626 0.0
O415 O 0.88823 0.40785 0.81188 0.0
H416 H 0.11788 0.59918 0.15988 0.0
H417 H 0.18841 0.62435 0.16881 0.0
H418 H 0.1974 0.62107 0.13937 0.0
H419 H 0.1319 0.55925 0.1249 0.0
H420 H 0.10563 0.56724 0.11399 0.0
H421 H 0.1059 0.56751 0.13605 0.0
H422 H 0.09233 0.61073 0.13592 0.0
H423 H 0.09207 0.61061 0.11392 0.0
H424 H 0.10921 0.63208 0.12477 0.0
H425 H 0.19775 0.61885 0.10905 0.0
H426 H 0.18863 0.62037 0.07956 0.0
H427 H 0.11721 0.59863 0.08983 0.0
C428 C 0.13538 0.60329 0.15562 0.0
C429 C 0.15261 0.61167 0.16653 0.0
C430 C 0.17508 0.61774 0.16057 0.0
C431 C 0.18038 0.61581 0.14391 0.0
C432 C 0.16291 0.608 0.13334 0.0
C433 C 0.14081 0.60194 0.13891 0.0
C434 C 0.12443 0.59685 0.12474 0.0
C435 C 0.1165 0.57118 0.12494 0.0
C436 C 0.10327 0.61357 0.12485 0.0
C437 C 0.14058 0.60168 0.11041 0.0
C438 C 0.16283 0.60759 0.11566 0.0
C439 C 0.18048 0.61398 0.10475 0.0
C440 C 0.17514 0.61481 0.08803 0.0
C441 C 0.15226 0.60957 0.08242 0.0
C442 C 0.13493 0.60252 0.09376 0.0
H443 H 0.62429 0.90785 0.40751 0.0
H444 H 0.68956 0.87046 0.41526 0.0
H445 H 0.69612 0.86923 0.3854 0.0
H446 H 0.60617 0.87651 0.37278 0.0
H447 H 0.5936 0.90131 0.3624 0.0
H448 H 0.59501 0.90091 0.38439 0.0
H449 H 0.61768 0.94016 0.38414 0.0
H450 H 0.61635 0.94067 0.36211 0.0
H451 H 0.64428 0.94263 0.37235 0.0
H452 H 0.69385 0.86903 0.35482 0.0
H453 H 0.68324 0.87044 0.32554 0.0
H454 H 0.62003 0.90899 0.3376 0.0
C455 C 0.64012 0.89968 0.40293 0.0
C456 C 0.65646 0.88928 0.41368 0.0
C457 C 0.67686 0.87859 0.40723 0.0
C458 C 0.68075 0.87785 0.3903 0.0
C459 C 0.66417 0.88804 0.38002 0.0
C460 C 0.64432 0.89888 0.38608 0.0
C461 C 0.62873 0.90757 0.37236 0.0
C462 C 0.60445 0.89587 0.37303 0.0
C463 C 0.62665 0.93435 0.37277 0.0
C464 C 0.64264 0.89944 0.35764 0.0
C465 C 0.66308 0.88831 0.36233 0.0
C466 C 0.67808 0.87801 0.35097 0.0
C467 C 0.67189 0.87886 0.33439 0.0
C468 C 0.65096 0.89002 0.32933 0.0
C469 C 0.63636 0.90074 0.34111 0.0
H470 H 0.38988 0.41444 0.65955 0.0
H471 H 0.32734 0.37373 0.66941 0.0
H472 H 0.3183 0.37273 0.63989 0.0
H473 H 0.36687 0.44777 0.62391 0.0
H474 H 0.39436 0.44594 0.61309 0.0
H475 H 0.39406 0.44657 0.63514 0.0
H476 H 0.41781 0.40797 0.63578 0.0
H477 H 0.41807 0.40716 0.61378 0.0
H478 H 0.40669 0.38268 0.62514 0.0
H479 H 0.31782 0.37305 0.60949 0.0
H480 H 0.32657 0.37351 0.57994 0.0
H481 H 0.39035 0.41261 0.58948 0.0
C482 C 0.37396 0.40592 0.65548 0.0
C483 C 0.3591 0.39442 0.66669 0.0
C484 C 0.33882 0.38276 0.66096 0.0
C485 C 0.33351 0.38217 0.64425 0.0
C486 C 0.34878 0.39319 0.63343 0.0
C487 C 0.36862 0.40482 0.63877 0.0
C488 C 0.38332 0.41313 0.62446 0.0
C489 C 0.38472 0.43995 0.62413 0.0
C490 C 0.40792 0.40206 0.62482 0.0
C491 C 0.3689 0.40388 0.61029 0.0
C492 C 0.34888 0.39277 0.61575 0.0
C493 C 0.33331 0.38192 0.60503 0.0
C494 C 0.33845 0.38223 0.58828 0.0
C495 C 0.3591 0.39313 0.58243 0.0
C496 C 0.37435 0.40431 0.59359 0.0
H497 H 0.89307 0.11628 0.91482 0.0
H498 H 0.81786 0.12015 0.9224 0.0
H499 H 0.81158 0.11525 0.89262 0.0
H500 H 0.89472 0.14933 0.87902 0.0
H501 H 0.91756 0.13245 0.86938 0.0
H502 H 0.91587 0.13387 0.89132 0.0
H503 H 0.91415 0.08865 0.89275 0.0
H504 H 0.91583 0.08708 0.87076 0.0
H505 H 0.89191 0.07319 0.8814 0.0
H506 H 0.81387 0.11347 0.86181 0.0
H507 H 0.82445 0.11511 0.8325 0.0
H508 H 0.89818 0.11188 0.84539 0.0
C509 C 0.87525 0.11574 0.91026 0.0
C510 C 0.85592 0.11853 0.92089 0.0
C511 C 0.83289 0.11795 0.91445 0.0
C512 C 0.82917 0.11513 0.89758 0.0
C513 C 0.84867 0.11273 0.8874 0.0
C514 C 0.87125 0.1129 0.89353 0.0
C515 C 0.88927 0.11139 0.87998 0.0
C516 C 0.90528 0.13305 0.87993 0.0
C517 C 0.90363 0.08872 0.88131 0.0
C518 C 0.87335 0.11095 0.8652 0.0
C519 C 0.84998 0.11153 0.86972 0.0
C520 C 0.83209 0.11268 0.85814 0.0
C521 C 0.83826 0.11363 0.84154 0.0
C522 C 0.86211 0.11344 0.8367 0.0
C523 C 0.87979 0.11167 0.84871 0.0
H524 H 0.12233 0.4122 0.90644 0.0
H525 H 0.19113 0.38296 0.91614 0.0
H526 H 0.19959 0.38283 0.88647 0.0
H527 H 0.10993 0.37835 0.8726 0.0
H528 H 0.09473 0.40074 0.86129 0.0
H529 H 0.09536 0.40181 0.88327 0.0
H530 H 0.11308 0.44349 0.8823 0.0
H531 H 0.11228 0.44266 0.86026 0.0
H532 H 0.13947 0.44864 0.87071 0.0
H533 H 0.19869 0.38171 0.85575 0.0
H534 H 0.18903 0.38065 0.82631 0.0
H535 H 0.12064 0.41042 0.83674 0.0
C536 C 0.13942 0.40636 0.90237 0.0
C537 C 0.15616 0.39775 0.91358 0.0
C538 C 0.17815 0.38982 0.90775 0.0
C539 C 0.18309 0.38968 0.89093 0.0
C540 C 0.1659 0.39764 0.88016 0.0
C541 C 0.14459 0.40605 0.88565 0.0
C542 C 0.12844 0.41194 0.87154 0.0
C543 C 0.10579 0.39733 0.87223 0.0
C544 C 0.123 0.43825 0.87119 0.0
C545 C 0.1437 0.40486 0.85723 0.0
C546 C 0.16534 0.39689 0.86245 0.0
C547 C 0.18195 0.38823 0.85151 0.0
C548 C 0.17626 0.38762 0.83483 0.0
C549 C 0.15412 0.39554 0.82925 0.0
C550 C 0.13778 0.40446 0.84063 0.0
H551 H 0.89339 0.88745 0.08719 0.0
H552 H 0.82282 0.91204 0.07733 0.0
H553 H 0.81738 0.92035 0.10685 0.0
H554 H 0.88015 0.85825 0.12406 0.0
H555 H 0.9075 0.86569 0.13381 0.0
H556 H 0.90604 0.86325 0.11189 0.0
H557 H 0.92236 0.90535 0.1091 0.0
H558 H 0.92372 0.90797 0.13105 0.0
H559 H 0.90754 0.92913 0.11925 0.0
H560 H 0.81933 0.92415 0.1378 0.0
H561 H 0.82779 0.92141 0.16744 0.0
H562 H 0.89712 0.89438 0.15645 0.0
C563 C 0.87683 0.89476 0.0912 0.0
C564 C 0.85853 0.89917 0.08 0.0
C565 C 0.83707 0.90855 0.08574 0.0
C566 C 0.83387 0.91341 0.10245 0.0
C567 C 0.85233 0.90881 0.11318 0.0
C568 C 0.87336 0.89964 0.10775 0.0
C569 C 0.89007 0.89517 0.12176 0.0
C570 C 0.89629 0.86904 0.12295 0.0
C571 C 0.91223 0.91032 0.12019 0.0
C572 C 0.87508 0.90294 0.136 0.0
C573 C 0.85343 0.91095 0.13085 0.0
C574 C 0.83629 0.9181 0.14195 0.0
C575 C 0.84127 0.91654 0.15875 0.0
C576 C 0.86314 0.90781 0.16421 0.0
C577 C 0.88033 0.90137 0.15264 0.0
H578 H 0.35457 0.63289 0.40963 0.0
H579 H 0.40078 0.57489 0.42089 0.0
H580 H 0.40309 0.56492 0.39157 0.0
H581 H 0.3239 0.60528 0.37421 0.0
H582 H 0.32321 0.63228 0.36288 0.0
H583 H 0.32228 0.63279 0.38492 0.0
H584 H 0.35848 0.66015 0.38534 0.0
H585 H 0.35963 0.65959 0.36335 0.0
H586 H 0.385 0.65117 0.3751 0.0
H587 H 0.40378 0.56355 0.36121 0.0
H588 H 0.40297 0.57107 0.3315 0.0
H589 H 0.35713 0.63054 0.33958 0.0
C590 C 0.36459 0.6177 0.40591 0.0
C591 C 0.3773 0.60447 0.41746 0.0
C592 C 0.39083 0.58514 0.41218 0.0
C593 C 0.39219 0.5793 0.39558 0.0
C594 C 0.37999 0.59304 0.38441 0.0
C595 C 0.36639 0.61181 0.38931 0.0
C596 C 0.35688 0.62499 0.37467 0.0
C597 C 0.32997 0.62375 0.37414 0.0
C598 C 0.36552 0.65048 0.37462 0.0
C599 C 0.36775 0.61104 0.36084 0.0
C600 C 0.38075 0.59251 0.36675 0.0
C601 C 0.39342 0.57782 0.3564 0.0
C602 C 0.39291 0.58226 0.33956 0.0
C603 C 0.37994 0.60132 0.33325 0.0
C604 C 0.36702 0.61571 0.34405 0.0
H605 H 0.62509 0.14104 0.66164 0.0
H606 H 0.67814 0.08877 0.67195 0.0
H607 H 0.68657 0.08544 0.64227 0.0
H608 H 0.60279 0.11373 0.62549 0.0
H609 H 0.59717 0.14103 0.61524 0.0
H610 H 0.59619 0.1396 0.63722 0.0
H611 H 0.62694 0.1729 0.63895 0.0
H612 H 0.62815 0.17431 0.61696 0.0
H613 H 0.65463 0.16967 0.62855 0.0
H614 H 0.68941 0.0887 0.61121 0.0
H615 H 0.68386 0.09543 0.5815 0.0
H616 H 0.62774 0.14429 0.59218 0.0
C617 C 0.63853 0.12892 0.65767 0.0
C618 C 0.65108 0.11524 0.66903 0.0
C619 C 0.66834 0.09939 0.66338 0.0
C620 C 0.6733 0.09748 0.64659 0.0
C621 C 0.66068 0.1114 0.63569 0.0
C622 C 0.64346 0.12661 0.64104 0.0
C623 C 0.63169 0.13897 0.62693 0.0
C624 C 0.60541 0.13296 0.62618 0.0
C625 C 0.6356 0.16554 0.62791 0.0
C626 C 0.64493 0.12837 0.61274 0.0
C627 C 0.66178 0.11271 0.61799 0.0
C628 C 0.67622 0.10087 0.60697 0.0
C629 C 0.67303 0.10487 0.59016 0.0
C630 C 0.65536 0.12033 0.58461 0.0
C631 C 0.64135 0.13233 0.59609 0.0
H632 H 0.8963 0.41785 0.84245 0.0
H633 H 0.82314 0.40755 0.82981 0.0
H634 H 0.8124 0.41009 0.85902 0.0
H635 H 0.89651 0.38256 0.87636 0.0
H636 H 0.91603 0.40029 0.88848 0.0
H637 H 0.91753 0.40144 0.86654 0.0
H638 H 0.91118 0.44628 0.86733 0.0
H639 H 0.90979 0.4453 0.88935 0.0
H640 H 0.88606 0.45809 0.87787 0.0
H641 H 0.81039 0.40812 0.88968 0.0
H642 H 0.8173 0.40284 0.91933 0.0
H643 H 0.89159 0.41518 0.91184 0.0
C644 C 0.87795 0.4168 0.8458 0.0
C645 C 0.86053 0.41263 0.83389 0.0
C646 C 0.83675 0.41089 0.83875 0.0
C647 C 0.83048 0.41235 0.8553 0.0
C648 C 0.84816 0.41579 0.86681 0.0
C649 C 0.8714 0.41824 0.86225 0.0
C650 C 0.88726 0.41979 0.87705 0.0
C651 C 0.90539 0.39983 0.8771 0.0
C652 C 0.89928 0.4438 0.87795 0.0
C653 C 0.86945 0.41691 0.89062 0.0
C654 C 0.84695 0.41489 0.8845 0.0
C655 C 0.82786 0.41016 0.89464 0.0
C656 C 0.83194 0.40714 0.91145 0.0
C657 C 0.85492 0.40882 0.91787 0.0
C658 C 0.87376 0.41421 0.90732 0.0
H659 H 0.39142 0.10174 0.66151 0.0
H660 H 0.32955 0.14316 0.6722 0.0
H661 H 0.32074 0.1456 0.64265 0.0
H662 H 0.40878 0.13403 0.62699 0.0
H663 H 0.41946 0.10925 0.61558 0.0
H664 H 0.41954 0.10857 0.63758 0.0
H665 H 0.39501 0.07045 0.63716 0.0
H666 H 0.39494 0.07096 0.61512 0.0
H667 H 0.36761 0.06977 0.62617 0.0
H668 H 0.31987 0.14539 0.61194 0.0
H669 H 0.3276 0.14345 0.58222 0.0
H670 H 0.39078 0.1033 0.59153 0.0
C671 C 0.37576 0.11091 0.65763 0.0
C672 C 0.36101 0.12207 0.66911 0.0
C673 C 0.34099 0.13439 0.66358 0.0
C674 C 0.33583 0.13583 0.64684 0.0
C675 C 0.35094 0.12496 0.6358 0.0
C676 C 0.37051 0.11276 0.64095 0.0
C677 C 0.38478 0.10407 0.62654 0.0
C678 C 0.4096 0.11462 0.62669 0.0
C679 C 0.38562 0.07721 0.62623 0.0
C680 C 0.37034 0.11355 0.61249 0.0
C681 C 0.35075 0.12533 0.61809 0.0
C682 C 0.33507 0.13609 0.60741 0.0
C683 C 0.33961 0.1349 0.59056 0.0
C684 C 0.35976 0.12322 0.58459 0.0
C685 C 0.37519 0.1123 0.59574 0.0
H686 H 0.62619 0.60455 0.40969 0.0
H687 H 0.69773 0.62786 0.41747 0.0
H688 H 0.70473 0.62631 0.38757 0.0
H689 H 0.63837 0.56495 0.37545 0.0
H690 H 0.61151 0.57242 0.36508 0.0
H691 H 0.61293 0.57354 0.38709 0.0
H692 H 0.59921 0.61672 0.38652 0.0
H693 H 0.59778 0.61576 0.36455 0.0
H694 H 0.61538 0.63769 0.37455 0.0
H695 H 0.70268 0.6252 0.3567 0.0
H696 H 0.692 0.62443 0.32741 0.0
H697 H 0.62185 0.60138 0.34013 0.0
C698 C 0.64345 0.60902 0.40515 0.0
C699 C 0.66147 0.61627 0.41587 0.0
C700 C 0.68374 0.62216 0.40945 0.0
C701 C 0.68786 0.62131 0.39251 0.0
C702 C 0.66956 0.61437 0.38225 0.0
C703 C 0.64784 0.60822 0.38836 0.0
C704 C 0.63074 0.60251 0.37477 0.0
C705 C 0.62293 0.57683 0.37565 0.0
C706 C 0.60953 0.61917 0.37513 0.0
C707 C 0.64606 0.60688 0.35999 0.0
C708 C 0.66844 0.61356 0.36455 0.0
C709 C 0.68531 0.61971 0.35301 0.0
C710 C 0.67907 0.61924 0.33641 0.0
C711 C 0.65615 0.61269 0.33153 0.0
C712 C 0.6396 0.60614 0.3435 0.0
H713 H 0.11106 0.87167 0.15891 0.0
H714 H 0.16107 0.92709 0.16869 0.0
H715 H 0.16942 0.93017 0.13907 0.0
H716 H 0.14286 0.84377 0.127 0.0
H717 H 0.11729 0.83696 0.11494 0.0
H718 H 0.11489 0.83947 0.13683 0.0
H719 H 0.0824 0.87081 0.13356 0.0
H720 H 0.08454 0.86823 0.11165 0.0
H721 H 0.08804 0.89636 0.12129 0.0
H722 H 0.17369 0.92568 0.1084 0.0
H723 H 0.17094 0.91637 0.07887 0.0
H724 H 0.11713 0.86492 0.08933 0.0
C725 C 0.12363 0.88458 0.15481 0.0
C726 C 0.13544 0.89914 0.16607 0.0
C727 C 0.15176 0.91583 0.16024 0.0
C728 C 0.15668 0.91764 0.14346 0.0
C729 C 0.14498 0.90276 0.13269 0.0
C730 C 0.12857 0.88677 0.13812 0.0
C731 C 0.11827 0.87296 0.12405 0.0
C732 C 0.12366 0.84674 0.12582 0.0
C733 C 0.09174 0.87736 0.12255 0.0
C734 C 0.13154 0.88356 0.10986 0.0
C735 C 0.14701 0.9006 0.11508 0.0
C736 C 0.16153 0.91248 0.10416 0.0
C737 C 0.15993 0.90701 0.08744 0.0
C738 C 0.1438 0.88999 0.08184 0.0
C739 C 0.12956 0.87809 0.09325 0.0
H740 H 0.89644 0.6121 0.08925 0.0
H741 H 0.8213 0.61049 0.08101 0.0
H742 H 0.81494 0.60273 0.11047 0.0
H743 H 0.89862 0.56713 0.1216 0.0
H744 H 0.92092 0.58266 0.13284 0.0
H745 H 0.91956 0.58506 0.11087 0.0
H746 H 0.91706 0.63017 0.11334 0.0
H747 H 0.91844 0.62791 0.13525 0.0
H748 H 0.89432 0.64306 0.12574 0.0
H749 H 0.8168 0.59879 0.14114 0.0
H750 H 0.82651 0.60067 0.17057 0.0
H751 H 0.90046 0.60535 0.15853 0.0
C752 C 0.87865 0.60964 0.09357 0.0
C753 C 0.85934 0.61173 0.08287 0.0
C754 C 0.83633 0.60884 0.08902 0.0
C755 C 0.83257 0.60434 0.1057 0.0
C756 C 0.85203 0.60274 0.11599 0.0
C757 C 0.87462 0.6053 0.11013 0.0
C758 C 0.89243 0.60484 0.12385 0.0
C759 C 0.90885 0.58366 0.12219 0.0
C760 C 0.90636 0.62786 0.12458 0.0
C761 C 0.87631 0.60227 0.13842 0.0
C762 C 0.8531 0.60073 0.13364 0.0
C763 C 0.83493 0.59967 0.14501 0.0
C764 C 0.84061 0.60074 0.1617 0.0
C765 C 0.86424 0.60303 0.1668 0.0
C766 C 0.88227 0.60328 0.15499 0.0
H767 H 0.15682 0.13892 0.84265 0.0
H768 H 0.12194 0.07352 0.83124 0.0
H769 H 0.11999 0.06417 0.86075 0.0
H770 H 0.19163 0.11662 0.87698 0.0
H771 H 0.18873 0.14333 0.88853 0.0
H772 H 0.18852 0.14415 0.86649 0.0
H773 H 0.14849 0.1656 0.86703 0.0
H774 H 0.14857 0.16485 0.88903 0.0
H775 H 0.1242 0.15268 0.87786 0.0
H776 H 0.11862 0.06382 0.89156 0.0
H777 H 0.11949 0.07166 0.92132 0.0
H778 H 0.15709 0.13629 0.91248 0.0
C779 C 0.14898 0.12251 0.84635 0.0
C780 C 0.13949 0.10693 0.8347 0.0
C781 C 0.12937 0.08566 0.84 0.0
C782 C 0.12819 0.08021 0.85671 0.0
C783 C 0.1375 0.09608 0.86792 0.0
C784 C 0.14791 0.1167 0.86295 0.0
C785 C 0.15601 0.13109 0.87744 0.0
C786 C 0.18282 0.13395 0.87735 0.0
C787 C 0.14357 0.15496 0.87786 0.0
C788 C 0.14807 0.1156 0.89137 0.0
C789 C 0.13743 0.09549 0.88563 0.0
C790 C 0.12726 0.0793 0.8962 0.0
C791 C 0.1278 0.08391 0.91306 0.0
C792 C 0.13862 0.1044 0.91916 0.0
C793 C 0.14916 0.12024 0.90816 0.0
H794 H 0.62696 0.40778 0.59224 0.0
H795 H 0.68873 0.36547 0.58292 0.0
H796 H 0.69718 0.36455 0.61256 0.0
H797 H 0.6519 0.44205 0.62593 0.0
H798 H 0.62472 0.44258 0.63718 0.0
H799 H 0.62433 0.44111 0.61516 0.0
H800 H 0.59886 0.40365 0.61648 0.0
H801 H 0.59912 0.40503 0.63847 0.0
H802 H 0.60905 0.37896 0.62819 0.0
H803 H 0.69709 0.36555 0.64318 0.0
H804 H 0.68877 0.36886 0.67275 0.0
H805 H 0.62789 0.41171 0.66213 0.0
C806 C 0.6424 0.39851 0.59643 0.0
C807 C 0.65721 0.38669 0.58531 0.0
C808 C 0.67718 0.37468 0.59124 0.0
C809 C 0.68215 0.3741 0.60803 0.0
C810 C 0.66709 0.3858 0.61868 0.0
C811 C 0.64769 0.39789 0.61312 0.0
C812 C 0.63383 0.40826 0.62718 0.0
C813 C 0.6337 0.43509 0.62631 0.0
C814 C 0.60874 0.39837 0.6276 0.0
C815 C 0.6482 0.39969 0.64154 0.0
C816 C 0.66735 0.38684 0.63636 0.0
C817 C 0.68236 0.37586 0.64738 0.0
C818 C 0.67748 0.37781 0.66413 0.0
C819 C 0.65786 0.39074 0.66967 0.0
C820 C 0.64328 0.40211 0.65823 0.0
H821 H 0.38473 0.91048 0.33621 0.0
H822 H 0.32104 0.87099 0.3275 0.0
H823 H 0.31247 0.87144 0.35717 0.0
H824 H 0.40142 0.87998 0.37098 0.0
H825 H 0.41363 0.90481 0.38156 0.0
H826 H 0.41287 0.9044 0.35957 0.0
H827 H 0.39004 0.94358 0.35951 0.0
H828 H 0.39079 0.94415 0.38154 0.0
H829 H 0.36313 0.94603 0.37096 0.0
H830 H 0.31262 0.87352 0.38805 0.0
H831 H 0.32256 0.8753 0.41751 0.0
H832 H 0.38692 0.91202 0.40573 0.0
C833 C 0.36868 0.90245 0.34051 0.0
C834 C 0.35339 0.89093 0.3296 0.0
C835 C 0.33289 0.88005 0.33569 0.0
C836 C 0.32784 0.88029 0.3525 0.0
C837 C 0.34354 0.89141 0.36301 0.0
C838 C 0.36357 0.90227 0.35723 0.0
C839 C 0.37876 0.911 0.37112 0.0
C840 C 0.4031 0.89934 0.37078 0.0
C841 C 0.38078 0.93778 0.37076 0.0
C842 C 0.36446 0.90288 0.38562 0.0
C843 C 0.34399 0.89198 0.38073 0.0
C844 C 0.32848 0.88222 0.39202 0.0
C845 C 0.33424 0.88333 0.40871 0.0
C846 C 0.35547 0.89381 0.41386 0.0
C847 C 0.37051 0.90398 0.40215 0.0
H848 H 0.05244 0.62209 0.01416 0.0
H849 H 0.06754 0.6696 0.05421 0.0
H850 H 0.02556 0.67951 0.05621 0.0
H851 H 1.00394 0.65639 0.99577 0.0
H852 H 0.98715 0.63061 0.99092 0.0
H853 H 0.01873 0.62929 0.99124 0.0
H854 H 0.01693 0.59528 0.0121 0.0
H855 H 0.98541 0.59649 0.01185 0.0
H856 H 1.00098 0.59917 0.03095 0.0
H857 H 0.98215 0.68165 0.05567 0.0
H858 H 0.93957 0.67522 0.05304 0.0
H859 H 0.95201 0.62612 0.01347 0.0
C860 C 0.04692 0.63493 0.02311 0.0
C861 C 0.0632 0.64521 0.03397 0.0
C862 C 0.05533 0.66157 0.04576 0.0
C863 C 0.03155 0.66739 0.04694 0.0
C864 C 0.01587 0.6567 0.03624 0.0
C865 C 0.02316 0.64082 0.02454 0.0
C866 C 1.00243 0.63046 0.01548 0.0
C867 C 1.00311 0.63709 0.99727 0.0
C868 C 1.00138 0.60377 0.01774 0.0
C869 C 0.98236 0.64254 0.02421 0.0
C870 C 0.99056 0.65782 0.036 0.0
C871 C 0.97547 0.66999 0.04634 0.0
C872 C 0.95133 0.66618 0.04477 0.0
C873 C 0.94253 0.65029 0.033 0.0
C874 C 0.95825 0.63864 0.02241 0.0
H875 H 0.63791 0.70198 0.26432 0.0
H876 H 0.5978 0.68744 0.30827 0.0
H877 H 0.5891 0.7295 0.31125 0.0
H878 H 0.6644 0.75369 0.27881 0.0
H879 H 0.66349 0.7687 0.25945 0.0
H880 H 0.66487 0.73729 0.25996 0.0
H881 H 0.62719 0.73491 0.24231 0.0
H882 H 0.62568 0.76636 0.24175 0.0
H883 H 0.60099 0.7497 0.24906 0.0
H884 H 0.58665 0.77309 0.31038 0.0
H885 H 0.59147 0.81552 0.30612 0.0
H886 H 0.63345 0.80183 0.26286 0.0
C887 C 0.62704 0.70764 0.27444 0.0
C888 C 0.61842 0.6915 0.28603 0.0
C889 C 0.60453 0.69955 0.29924 0.0
C890 C 0.59943 0.72337 0.301 0.0
C891 C 0.60836 0.73887 0.28945 0.0
C892 C 0.62188 0.73137 0.27643 0.0
C893 C 0.63043 0.75178 0.26627 0.0
C894 C 0.65739 0.75292 0.26612 0.0
C895 C 0.62047 0.75061 0.24881 0.0
C896 C 0.61994 0.77195 0.27578 0.0
C897 C 0.6071 0.7641 0.28902 0.0
C898 C 0.59649 0.77946 0.29998 0.0
C899 C 0.59934 0.80351 0.29747 0.0
C900 C 0.61275 0.81192 0.28414 0.0
C901 C 0.62291 0.79589 0.27307 0.0
H902 H 0.45871 0.39525 0.55016 0.0
H903 H 0.4453 0.38944 0.49805 0.0
H904 H 0.48787 0.39101 0.49263 0.0
H905 H 0.50857 0.43485 0.5473 0.0
H906 H 0.52422 0.42103 0.56383 0.0
H907 H 0.49263 0.42071 0.56356 0.0
H908 H 0.49298 0.37551 0.56558 0.0
H909 H 0.52454 0.3757 0.56585 0.0
H910 H 0.50914 0.35876 0.55067 0.0
H911 H 0.53183 0.39188 0.49291 0.0
H912 H 0.57428 0.39109 0.49894 0.0
H913 H 0.55913 0.39586 0.55087 0.0
C914 C 0.46474 0.39453 0.5376 0.0
C915 C 0.44873 0.39231 0.52451 0.0
C916 C 0.45728 0.39117 0.50826 0.0
C917 C 0.48141 0.3921 0.50506 0.0
C918 C 0.49675 0.39414 0.51824 0.0
C919 C 0.48878 0.39532 0.53419 0.0
C920 C 0.50901 0.39655 0.54617 0.0
C921 C 0.50858 0.41966 0.55578 0.0
C922 C 0.50891 0.37537 0.55775 0.0
C923 C 0.52959 0.39565 0.53447 0.0
C924 C 0.52212 0.39443 0.51841 0.0
C925 C 0.5379 0.39294 0.50544 0.0
C926 C 0.56196 0.39251 0.50898 0.0
C927 C 0.56997 0.39346 0.52536 0.0
C928 C 0.55352 0.39523 0.53822 0.0
H929 H 0.87757 0.31131 0.77002 0.0
H930 H 0.89842 0.32629 0.82001 0.0
H931 H 0.90152 0.284 0.82554 0.0
H932 H 0.84204 0.2617 0.77919 0.0
H933 H 0.8504 0.24557 0.76115 0.0
H934 H 0.85066 0.27703 0.7609 0.0
H935 H 0.89427 0.27664 0.75197 0.0
H936 H 0.89413 0.24515 0.75217 0.0
H937 H 0.91545 0.26096 0.76412 0.0
H938 H 0.90136 0.24029 0.8259 0.0
H939 H 0.89802 0.19784 0.82105 0.0
H940 H 0.8772 0.2111 0.77083 0.0
C941 C 0.88294 0.30568 0.78209 0.0
C942 C 0.88781 0.32205 0.79459 0.0
C943 C 0.89464 0.31403 0.81026 0.0
C944 C 0.89647 0.29006 0.81351 0.0
C945 C 0.89141 0.27436 0.80097 0.0
C946 C 0.88482 0.2818 0.78556 0.0
C947 C 0.87989 0.26126 0.77436 0.0
C948 C 0.85422 0.26141 0.76856 0.0
C949 C 0.89696 0.26099 0.7598 0.0
C950 C 0.88459 0.24112 0.78591 0.0
C951 C 0.89127 0.24909 0.80118 0.0
C952 C 0.89622 0.23383 0.81398 0.0
C953 C 0.89426 0.20976 0.81111 0.0
C954 C 0.88738 0.2012 0.79557 0.0
C955 C 0.88256 0.21714 0.78282 0.0
H956 H 0.95263 0.38544 0.98475 0.0
H957 H 0.93692 0.35562 0.93713 0.0
H958 H 0.97909 0.35004 0.93202 0.0
H959 H 1.00228 0.4173 0.97263 0.0
H960 H 0.01899 0.41218 0.991 0.0
H961 H 0.98744 0.41199 0.99175 0.0
H962 H 0.98808 0.37039 0.00423 0.0
H963 H 0.01968 0.3705 0.0036 0.0
H964 H 1.00356 0.34733 0.99375 0.0
H965 H 0.02232 0.35105 0.93078 0.0
H966 H 0.06486 0.35696 0.93399 0.0
H967 H 0.05351 0.38508 0.98269 0.0
C968 C 0.95809 0.37735 0.97339 0.0
C969 C 0.94152 0.3709 0.96135 0.0
C970 C 0.94931 0.36063 0.94654 0.0
C971 C 0.97322 0.35736 0.94353 0.0
C972 C 0.98913 0.36428 0.95548 0.0
C973 C 0.98199 0.37387 0.97019 0.0
C974 C 1.00292 0.38071 0.9806 0.0
C975 C 1.00289 0.40711 0.9842 0.0
C976 C 1.00359 0.36637 0.99649 0.0
C977 C 0.02286 0.374 0.96926 0.0
C978 C 0.01442 0.36448 0.95487 0.0
C979 C 0.02921 0.35815 0.94208 0.0
C980 C 0.05331 0.36166 0.944 0.0
C981 C 0.06242 0.37132 0.95862 0.0
C982 C 0.047 0.37735 0.97148 0.0
H983 H 0.87677 0.80588 0.23183 0.0
H984 H 0.87765 0.81885 0.1795 0.0
H985 H 0.87941 0.7765 0.1743 0.0
H986 H 0.91676 0.75659 0.23122 0.0
H987 H 0.90128 0.74069 0.24689 0.0
H988 H 0.90044 0.77217 0.24666 0.0
H989 H 0.85502 0.77104 0.24611 0.0
H990 H 0.85573 0.73957 0.24633 0.0
H991 H 0.84029 0.75471 0.23028 0.0
H992 H 0.88058 0.73318 0.17453 0.0
H993 H 0.881 0.69091 0.18022 0.0
H994 H 0.87929 0.70528 0.23238 0.0
C995 C 0.87741 0.79977 0.21929 0.0
C996 C 0.8771 0.81565 0.20606 0.0
C997 C 0.87789 0.80701 0.18983 0.0
C998 C 0.8789 0.78298 0.18673 0.0
C999 C 0.87912 0.76778 0.2 0.0
C1000 C 0.87841 0.77574 0.21596 0.0
C1001 C 0.8786 0.75551 0.22793 0.0
C1002 C 0.90058 0.75629 0.23882 0.0
C1003 C 0.85606 0.75519 0.23827 0.0
C1004 C 0.87943 0.735 0.21618 0.0
C1005 C 0.87976 0.74256 0.20013 0.0
C1006 C 0.88037 0.72701 0.18704 0.0
C1007 C 0.88061 0.70304 0.1904 0.0
C1008 C 0.88021 0.69482 0.20674 0.0
C1009 C 0.87965 0.71106 0.21978 0.0
H1010 H 0.46484 0.638 0.45376 0.0
H1011 H 0.44915 0.63073 0.50542 0.0
H1012 H 0.49177 0.62954 0.51152 0.0
H1013 H 0.51141 0.59836 0.45278 0.0
H1014 H 0.52839 0.61468 0.43811 0.0
H1015 H 0.49694 0.61708 0.43821 0.0
H1016 H 0.50012 0.66207 0.44145 0.0
H1017 H 0.53163 0.65984 0.44122 0.0
H1018 H 0.51706 0.67408 0.45807 0.0
H1019 H 0.53677 0.62702 0.51138 0.0
H1020 H 0.57925 0.62378 0.50502 0.0
H1021 H 0.56364 0.63183 0.4534 0.0
C1022 C 0.4703 0.63652 0.46641 0.0
C1023 C 0.45375 0.63456 0.47914 0.0
C1024 C 0.46161 0.6324 0.4955 0.0
C1025 C 0.48575 0.63168 0.49906 0.0
C1026 C 0.50162 0.63318 0.4861 0.0
C1027 C 0.49411 0.63567 0.47012 0.0
C1028 C 0.51435 0.63582 0.45823 0.0
C1029 C 0.51266 0.61526 0.44613 0.0
C1030 C 0.51588 0.65935 0.44922 0.0
C1031 C 0.53453 0.63272 0.46995 0.0
C1032 C 0.52702 0.63138 0.486 0.0
C1033 C 0.54281 0.62815 0.49886 0.0
C1034 C 0.56684 0.62628 0.49515 0.0
C1035 C 0.57466 0.62748 0.47873 0.0
C1036 C 0.55821 0.63077 0.46608 0.0
H1037 H 0.63417 0.20656 0.70458 0.0
H1038 H 0.62186 0.19147 0.75586 0.0
H1039 H 0.61827 0.23393 0.76148 0.0
H1040 H 0.6694 0.25656 0.7105 0.0
H1041 H 0.65782 0.27193 0.69305 0.0
H1042 H 0.65824 0.24049 0.69319 0.0
H1043 H 0.61343 0.23972 0.68776 0.0
H1044 H 0.61287 0.27119 0.6876 0.0
H1045 H 0.594 0.25529 0.70134 0.0
H1046 H 0.6179 0.27861 0.76137 0.0
H1047 H 0.62054 0.32104 0.75551 0.0
H1048 H 0.63264 0.30553 0.70424 0.0
C1049 C 0.63056 0.21212 0.717 0.0
C1050 C 0.62829 0.19579 0.7298 0.0
C1051 C 0.62361 0.20377 0.74588 0.0
C1052 C 0.62154 0.22781 0.74917 0.0
C1053 C 0.62406 0.24348 0.73622 0.0
C1054 C 0.62839 0.23588 0.72045 0.0
C1055 C 0.63099 0.25605 0.7087 0.0
C1056 C 0.65557 0.25626 0.70091 0.0
C1057 C 0.61167 0.25552 0.69558 0.0
C1058 C 0.62773 0.27631 0.72031 0.0
C1059 C 0.62368 0.26883 0.73613 0.0
C1060 C 0.62088 0.28463 0.749 0.0
C1061 C 0.62241 0.30866 0.74557 0.0
C1062 C 0.6267 0.31652 0.72943 0.0
C1063 C 0.62918 0.30007 0.71669 0.0
H1064 H 0.39108 0.3058 0.70211 0.0
H1065 H 0.39023 0.32177 0.754 0.0
H1066 H 0.3928 0.27949 0.76028 0.0
H1067 H 0.35474 0.25653 0.70419 0.0
H1068 H 0.37007 0.24042 0.68853 0.0
H1069 H 0.3703 0.27185 0.68828 0.0
H1070 H 0.41577 0.2717 0.68828 0.0
H1071 H 0.41569 0.24021 0.68848 0.0
H1072 H 0.43128 0.25613 0.7041 0.0
H1073 H 0.39304 0.23507 0.76065 0.0
H1074 H 0.39064 0.19257 0.75509 0.0
H1075 H 0.39089 0.20658 0.70294 0.0
C1076 C 0.39179 0.30046 0.71481 0.0
C1077 C 0.39057 0.31702 0.72759 0.0
C1078 C 0.39126 0.30933 0.74404 0.0
C1079 C 0.39273 0.28538 0.74771 0.0
C1080 C 0.39356 0.26947 0.73477 0.0
C1081 C 0.39317 0.27675 0.71866 0.0
C1082 C 0.39302 0.25627 0.70697 0.0
C1083 C 0.37071 0.25627 0.69638 0.0
C1084 C 0.41527 0.25607 0.69634 0.0
C1085 C 0.39299 0.23625 0.719 0.0
C1086 C 0.3935 0.24413 0.73498 0.0
C1087 C 0.39283 0.22871 0.74818 0.0
C1088 C 0.39146 0.20464 0.74491 0.0
C1089 C 0.39063 0.19633 0.7286 0.0
C1090 C 0.39161 0.2124 0.71554 0.0
H1091 H 0.13153 0.70654 0.20242 0.0
H1092 H 0.14144 0.69193 0.25402 0.0
H1093 H 0.14021 0.73442 0.25996 0.0
H1094 H 0.16747 0.75747 0.20087 0.0
H1095 H 0.14884 0.77241 0.18647 0.0
H1096 H 0.15003 0.74097 0.18655 0.0
H1097 H 0.1049 0.73919 0.19031 0.0
H1098 H 0.10357 0.77063 0.19024 0.0
H1099 H 0.09152 0.7545 0.20719 0.0
H1100 H 0.13817 0.77891 0.25993 0.0
H1101 H 0.13586 0.82128 0.25393 0.0
H1102 H 0.1276 0.80566 0.2023 0.0
C1103 C 0.13337 0.71223 0.21499 0.0
C1104 C 0.13654 0.696 0.22778 0.0
C1105 C 0.13898 0.70414 0.24406 0.0
C1106 C 0.13829 0.72819 0.24753 0.0
C1107 C 0.13518 0.74374 0.23458 0.0
C1108 C 0.13279 0.73602 0.21864 0.0
C1109 C 0.12997 0.75613 0.20684 0.0
C1110 C 0.15029 0.75678 0.19446 0.0
C1111 C 0.10607 0.75504 0.19814 0.0
C1112 C 0.13117 0.77646 0.21859 0.0
C1113 C 0.13413 0.76905 0.23455 0.0
C1114 C 0.13582 0.78487 0.24748 0.0
C1115 C 0.13449 0.80887 0.24397 0.0
C1116 C 0.13155 0.8167 0.22767 0.0
C1117 C 0.12983 0.80021 0.21489 0.0
H1118 H 0.13711 0.20797 0.79842 0.0
H1119 H 0.14213 0.19119 0.74676 0.0
H1120 H 0.14199 0.23341 0.74014 0.0
H1121 H 0.09834 0.25691 0.79428 0.0
H1122 H 0.11211 0.27348 0.8104 0.0
H1123 H 0.11269 0.24203 0.81094 0.0
H1124 H 0.15806 0.2428 0.81289 0.0
H1125 H 0.15763 0.27426 0.81238 0.0
H1126 H 0.17472 0.25824 0.79759 0.0
H1127 H 0.14106 0.27767 0.73933 0.0
H1128 H 0.13993 0.3203 0.74438 0.0
H1129 H 0.13574 0.30755 0.79661 0.0
C1130 C 0.13819 0.21315 0.7857 0.0
C1131 C 0.13963 0.19634 0.77308 0.0
C1132 C 0.14104 0.20382 0.75661 0.0
C1133 C 0.14095 0.22773 0.75274 0.0
C1134 C 0.13948 0.24386 0.76551 0.0
C1135 C 0.13816 0.23685 0.78165 0.0
C1136 C 0.13678 0.25758 0.79312 0.0
C1137 C 0.1136 0.25749 0.80275 0.0
C1138 C 0.15807 0.25825 0.80467 0.0
C1139 C 0.13752 0.27741 0.78092 0.0
C1140 C 0.13904 0.26918 0.76505 0.0
C1141 C 0.13989 0.2843 0.75171 0.0
C1142 C 0.13923 0.30846 0.75469 0.0
C1143 C 0.13776 0.3172 0.77088 0.0
C1144 C 0.13688 0.3014 0.7841 0.0
H1145 H 0.36596 0.69869 0.26776 0.0
H1146 H 0.41573 0.68736 0.30716 0.0
H1147 H 0.42091 0.72991 0.31004 0.0
H1148 H 0.39555 0.7486 0.24976 0.0
H1149 H 0.36874 0.76373 0.24485 0.0
H1150 H 0.3692 0.73226 0.24553 0.0
H1151 H 0.33527 0.7326 0.26661 0.0
H1152 H 0.33466 0.76405 0.26597 0.0
H1153 H 0.3384 0.74922 0.28523 0.0
H1154 H 0.42032 0.77332 0.30913 0.0
H1155 H 0.41348 0.81539 0.30476 0.0
H1156 H 0.36408 0.79918 0.26597 0.0
C1157 C 0.378 0.7052 0.27694 0.0
C1158 C 0.39047 0.68973 0.28723 0.0
C1159 C 0.40599 0.69888 0.29915 0.0
C1160 C 0.40909 0.72303 0.30086 0.0
C1161 C 0.39655 0.73781 0.29057 0.0
C1162 C 0.38129 0.72933 0.27885 0.0
C1163 C 0.36966 0.74915 0.2696 0.0
C1164 C 0.37619 0.74838 0.25135 0.0
C1165 C 0.34291 0.74873 0.272 0.0
C1166 C 0.38067 0.77005 0.27805 0.0
C1167 C 0.39619 0.76305 0.29006 0.0
C1168 C 0.40827 0.77906 0.29973 0.0
C1169 C 0.40426 0.80291 0.29715 0.0
C1170 C 0.3883 0.81054 0.28501 0.0
C1171 C 0.37648 0.79385 0.27528 0.0
H1172 H 0.45734 0.11156 0.54937 0.0
H1173 H 0.44245 0.12178 0.49782 0.0
H1174 H 0.48492 0.12078 0.49177 0.0
H1175 H 0.50711 0.148 0.55102 0.0
H1176 H 0.52306 0.12989 0.5652 0.0
H1177 H 0.49151 0.12967 0.56526 0.0
H1178 H 0.49165 0.08476 0.56108 0.0
H1179 H 0.52324 0.08483 0.56104 0.0
H1180 H 0.50744 0.07238 0.54404 0.0
H1181 H 0.52918 0.1209 0.49163 0.0
H1182 H 0.57175 0.12212 0.49746 0.0
H1183 H 0.55733 0.11182 0.54907 0.0
C1184 C 0.463 0.11328 0.53678 0.0
C1185 C 0.44664 0.11667 0.52405 0.0
C1186 C 0.45472 0.11911 0.50775 0.0
C1187 C 0.47879 0.11853 0.5042 0.0
C1188 C 0.49449 0.11544 0.51707 0.0
C1189 C 0.48692 0.11279 0.53303 0.0
C1190 C 0.50737 0.11071 0.54473 0.0
C1191 C 0.50725 0.13077 0.55729 0.0
C1192 C 0.50742 0.08674 0.55322 0.0
C1193 C 0.52764 0.11297 0.5329 0.0
C1194 C 0.51989 0.11554 0.51699 0.0
C1195 C 0.53546 0.1187 0.50402 0.0
C1196 C 0.55958 0.11939 0.50744 0.0
C1197 C 0.56781 0.11699 0.52369 0.0
C1198 C 0.55157 0.11354 0.53651 0.0
H1199 H 0.95156 0.87843 0.04549 0.0
H1200 H 0.93696 0.87279 0.99355 0.0
H1201 H 0.97958 0.86984 0.98796 0.0
H1202 H 1.00199 0.91418 0.0419 0.0
H1203 H 0.01732 0.90052 0.05864 0.0
H1204 H 0.98576 0.90103 0.05843 0.0
H1205 H 0.98486 0.8559 0.06115 0.0
H1206 H 0.01643 0.85525 0.06138 0.0
H1207 H 1.00053 0.83821 0.04652 0.0
H1208 H 0.02421 0.86886 0.98822 0.0
H1209 H 0.06676 0.87005 0.9943 0.0
H1210 H 0.05117 0.87647 0.04606 0.0
C1211 C 0.95728 0.87638 0.03293 0.0
C1212 C 0.94101 0.87577 0.01994 0.0
C1213 C 0.94919 0.87323 0.00368 0.0
C1214 C 0.97332 0.87154 0.0004 0.0
C1215 C 0.98893 0.87238 0.01353 0.0
C1216 C 0.98118 0.87471 0.02947 0.0
C1217 C 1.0014 0.87583 0.0414 0.0
C1218 C 1.00162 0.89929 0.05063 0.0
C1219 C 1.00076 0.85506 0.05331 0.0
C1220 C 0.02182 0.87395 0.0297 0.0
C1221 C 0.01436 0.87189 0.01367 0.0
C1222 C 0.03023 0.87036 0.00073 0.0
C1223 C 0.05433 0.87105 0.00429 0.0
C1224 C 0.06222 0.87331 0.02064 0.0
C1225 C 0.04568 0.87464 0.03344 0.0
H1226 H 0.46088 0.89342 0.44834 0.0
H1227 H 0.44555 0.88531 0.50001 0.0
H1228 H 0.48809 0.88609 0.50613 0.0
H1229 H 0.51154 0.85708 0.44739 0.0
H1230 H 0.52704 0.87512 0.43292 0.0
H1231 H 0.49548 0.87447 0.43282 0.0
H1232 H 0.49445 0.91952 0.43619 0.0
H1233 H 0.52603 0.9203 0.43633 0.0
H1234 H 0.50977 0.9329 0.45307 0.0
H1235 H 0.53256 0.88676 0.50632 0.0
H1236 H 0.57519 0.88718 0.50062 0.0
H1237 H 0.56074 0.8953 0.44882 0.0
C1238 C 0.46644 0.89187 0.46096 0.0
C1239 C 0.44997 0.88929 0.47372 0.0
C1240 C 0.45793 0.88731 0.49006 0.0
C1241 C 0.48202 0.88775 0.49364 0.0
C1242 C 0.49782 0.89028 0.48073 0.0
C1243 C 0.49032 0.89234 0.46473 0.0
C1244 C 0.51075 0.89457 0.45304 0.0
C1245 C 0.51123 0.87409 0.44083 0.0
C1246 C 0.51021 0.91823 0.44414 0.0
C1247 C 0.531 0.89325 0.46493 0.0
C1248 C 0.52323 0.89083 0.48086 0.0
C1249 C 0.53883 0.88876 0.49391 0.0
C1250 C 0.56298 0.88903 0.49055 0.0
C1251 C 0.57123 0.89136 0.47429 0.0
C1252 C 0.55496 0.89365 0.46139 0.0
H1253 H 0.04958 0.12766 0.95375 0.0
H1254 H 0.06601 0.14108 0.00473 0.0
H1255 H 0.02374 0.14636 0.01062 0.0
H1256 H 1.00223 0.16939 0.95027 0.0
H1257 H 0.98512 0.15085 0.93703 0.0
H1258 H 0.01664 0.14886 0.93688 0.0
H1259 H 0.01401 0.10451 0.94309 0.0
H1260 H 0.9825 0.10636 0.94323 0.0
H1261 H 0.99777 0.09475 0.96073 0.0
H1262 H 0.97929 0.14876 0.01094 0.0
H1263 H 0.93652 0.14803 0.00563 0.0
H1264 H 0.95006 0.13347 0.95439 0.0
C1265 C 0.04433 0.13184 0.96615 0.0
C1266 C 0.06101 0.13399 0.97879 0.0
C1267 C 0.05345 0.13939 0.99486 0.0
C1268 C 0.02952 0.14244 0.99831 0.0
C1269 C 0.01349 0.1401 0.98554 0.0
C1270 C 0.02062 0.13496 0.96978 0.0
C1271 C 0.99998 0.13287 0.95827 0.0
C1272 C 1.00106 0.15162 0.94482 0.0
C1273 C 0.99848 0.10815 0.95091 0.0
C1274 C 0.98005 0.13745 0.97003 0.0
C1275 C 0.98812 0.14164 0.9857 0.0
C1276 C 0.97278 0.14566 0.99869 0.0
C1277 C 0.94856 0.14522 0.99557 0.0
C1278 C 0.94003 0.1408 0.9796 0.0
C1279 C 0.95606 0.13707 0.96671 0.0
H1280 H 0.1153 0.45311 0.99228 0.0
H1281 H 0.18837 0.44521 0.97861 0.0
H1282 H 0.19616 0.48578 0.98772 0.0
H1283 H 0.10844 0.51139 0.97909 0.0
H1284 H 0.08961 0.51993 0.99576 0.0
H1285 H 0.09016 0.48998 0.98902 0.0
H1286 H 0.10045 0.47638 0.01838 0.0
H1287 H 0.09968 0.50628 0.02527 0.0
H1288 H 0.12552 0.4888 0.02864 0.0
H1289 H 0.19518 0.52845 0.99706 0.0
H1290 H 0.18606 0.56818 0.00739 0.0
H1291 H 0.11374 0.54737 0.01503 0.0
C1292 C 0.13302 0.45978 0.99139 0.0
C1293 C 0.15125 0.44596 0.98477 0.0
C1294 C 0.17417 0.45542 0.98375 0.0
C1295 C 0.17873 0.47848 0.98883 0.0
C1296 C 0.16022 0.4918 0.99501 0.0
C1297 C 0.13788 0.48266 0.99646 0.0
C1298 C 0.12093 0.50055 0.0033 0.0
C1299 C 0.10112 0.50577 0.99106 0.0
C1300 C 0.11107 0.49252 0.01988 0.0
C1301 C 0.1371 0.52134 0.00528 0.0
C1302 C 0.15971 0.51603 0.00044 0.0
C1303 C 0.17756 0.53271 0.00097 0.0
C1304 C 0.17221 0.55526 0.00678 0.0
C1305 C 0.14921 0.5609 0.01201 0.0
C1306 C 0.13151 0.54364 0.01114 0.0
H1307 H 0.79378 0.86844 0.22954 0.0
H1308 H 0.81699 0.93735 0.2446 0.0
H1309 H 0.77677 0.94626 0.2544 0.0
H1310 H 0.73725 0.88563 0.21486 0.0
H1311 H 0.72284 0.85951 0.22198 0.0
H1312 H 0.75341 0.85864 0.21646 0.0
H1313 H 0.76389 0.84239 0.24513 0.0
H1314 H 0.73334 0.84294 0.25065 0.0
H1315 H 0.75454 0.85806 0.26313 0.0
H1316 H 0.73317 0.94725 0.26253 0.0
H1317 H 0.69152 0.93952 0.26938 0.0
H1318 H 0.69765 0.87019 0.24832 0.0
C1319 C 0.79051 0.88538 0.235 0.0
C1320 C 0.80859 0.90218 0.23637 0.0
C1321 C 0.80346 0.92417 0.2435 0.0
C1322 C 0.78063 0.9294 0.24903 0.0
C1323 C 0.76313 0.9125 0.24727 0.0
C1324 C 0.76792 0.89089 0.24048 0.0
C1325 C 0.74625 0.87562 0.23999 0.0
C1326 C 0.73955 0.8695 0.22227 0.0
C1327 C 0.74971 0.85345 0.25034 0.0
C1328 C 0.72843 0.89189 0.24765 0.0
C1329 C 0.73838 0.91314 0.25174 0.0
C1330 C 0.72525 0.93069 0.25931 0.0
C1331 C 0.70156 0.9262 0.26308 0.0
C1332 C 0.69123 0.90433 0.25928 0.0
C1333 C 0.70489 0.88719 0.25125 0.0
H1334 H 0.38384 0.45145 0.4966 0.0
H1335 H 0.32024 0.45228 0.52563 0.0
H1336 H 0.31346 0.49359 0.51773 0.0
H1337 H 0.40305 0.50637 0.50854 0.0
H1338 H 0.41578 0.51393 0.48907 0.0
H1339 H 0.41358 0.48377 0.49503 0.0
H1340 H 0.39043 0.47437 0.46853 0.0
H1341 H 0.39278 0.50451 0.46238 0.0
H1342 H 0.36437 0.49085 0.46376 0.0
H1343 H 0.31542 0.53632 0.50761 0.0
H1344 H 0.32675 0.57562 0.49725 0.0
H1345 H 0.39026 0.5459 0.4768 0.0
C1346 C 0.36811 0.46007 0.50094 0.0
C1347 C 0.35236 0.44856 0.51152 0.0
C1348 C 0.33237 0.46072 0.51733 0.0
C1349 C 0.32842 0.48418 0.51292 0.0
C1350 C 0.34471 0.49523 0.50279 0.0
C1351 C 0.36416 0.48346 0.4969 0.0
C1352 C 0.38022 0.49953 0.48746 0.0
C1353 C 0.40458 0.50098 0.49551 0.0
C1354 C 0.38204 0.49186 0.46947 0.0
C1355 C 0.36702 0.5223 0.4891 0.0
C1356 C 0.34639 0.51959 0.49775 0.0
C1357 C 0.33154 0.53856 0.5008 0.0
C1358 C 0.33807 0.56079 0.49491 0.0
C1359 C 0.35945 0.56381 0.48638 0.0
C1360 C 0.3739 0.54422 0.48343 0.0
H1361 H 0.81152 0.14569 0.75621 0.0
H1362 H 0.82315 0.07253 0.76741 0.0
H1363 H 0.78265 0.06344 0.75842 0.0
H1364 H 0.75394 0.14869 0.77092 0.0
H1365 H 0.7436 0.16836 0.7553 0.0
H1366 H 0.77401 0.16864 0.76117 0.0
H1367 H 0.78642 0.16134 0.73109 0.0
H1368 H 0.75603 0.16136 0.72507 0.0
H1369 H 0.77443 0.13671 0.72016 0.0
H1370 H 0.73934 0.06316 0.74979 0.0
H1371 H 0.69848 0.0715 0.74107 0.0
H1372 H 0.71613 0.14487 0.73608 0.0
C1373 C 0.80575 0.12766 0.75647 0.0
C1374 C 0.82056 0.10979 0.76241 0.0
C1375 C 0.81218 0.08648 0.76276 0.0
C1376 C 0.78917 0.08118 0.75775 0.0
C1377 C 0.7748 0.09937 0.75237 0.0
C1378 C 0.78292 0.12211 0.75157 0.0
C1379 C 0.76392 0.13871 0.74594 0.0
C1380 C 0.75856 0.15718 0.75912 0.0
C1381 C 0.7706 0.1502 0.72959 0.0
C1382 C 0.7437 0.12187 0.74387 0.0
C1383 C 0.75021 0.09923 0.74758 0.0
C1384 C 0.73414 0.08082 0.74677 0.0
C1385 C 0.71096 0.08571 0.74188 0.0
C1386 C 0.7041 0.10881 0.73792 0.0
C1387 C 0.72078 0.12701 0.73902 0.0
H1388 H 0.89213 0.55574 0.01279 0.0
H1389 H 0.81804 0.57285 0.01146 0.0
H1390 H 0.8091 0.53237 0.00259 0.0
H1391 H 0.89252 0.51827 0.97733 0.0
H1392 H 0.91363 0.49838 0.98601 0.0
H1393 H 0.91377 0.52868 0.99195 0.0
H1394 H 0.91002 0.51647 0.02236 0.0
H1395 H 0.90957 0.48612 0.0165 0.0
H1396 H 0.88598 0.49804 0.02858 0.0
H1397 H 0.80858 0.4893 0.99426 0.0
H1398 H 0.8167 0.44853 0.9857 0.0
H1399 H 0.89113 0.46042 0.99283 0.0
C1400 C 0.87401 0.55107 0.01053 0.0
C1401 C 0.85576 0.56745 0.01278 0.0
C1402 C 0.8323 0.56059 0.00973 0.0
C1403 C 0.82707 0.53762 0.00476 0.0
C1404 C 0.8455 0.52179 0.0029 0.0
C1405 C 0.86852 0.52833 0.00559 0.0
C1406 C 0.88521 0.50818 0.00271 0.0
C1407 C 0.90228 0.51371 0.98866 0.0
C1408 C 0.89847 0.50183 0.01848 0.0
C1409 C 0.86805 0.48921 0.99796 0.0
C1410 C 0.8452 0.49729 0.99819 0.0
C1411 C 0.82641 0.48282 0.99406 0.0
C1412 C 0.83117 0.45967 0.98929 0.0
C1413 C 0.85452 0.45127 0.98866 0.0
C1414 C 0.87307 0.46625 0.99326 0.0
H1415 H 0.22244 0.1293 0.78034 0.0
H1416 H 0.18982 0.07788 0.74868 0.0
H1417 H 0.22876 0.06849 0.73679 0.0
H1418 H 0.26152 0.15131 0.75079 0.0
H1419 H 0.285 0.15648 0.7651 0.0
H1420 H 0.25505 0.15725 0.77198 0.0
H1421 H 0.26455 0.12588 0.79385 0.0
H1422 H 0.29456 0.12491 0.78696 0.0
H1423 H 0.27739 0.09848 0.78762 0.0
H1424 H 0.2717 0.06606 0.72773 0.0
H1425 H 0.31337 0.07313 0.72071 0.0
H1426 H 0.31679 0.12722 0.75781 0.0
C1427 C 0.22348 0.1158 0.77107 0.0
C1428 C 0.20313 0.10413 0.76554 0.0
C1429 C 0.20521 0.08694 0.75315 0.0
C1430 C 0.22727 0.08145 0.74639 0.0
C1431 C 0.247 0.09341 0.7521 0.0
C1432 C 0.2452 0.11036 0.7641 0.0
C1433 C 0.2686 0.12197 0.76734 0.0
C1434 C 0.26747 0.1483 0.76357 0.0
C1435 C 0.27675 0.11754 0.78499 0.0
C1436 C 0.28391 0.10916 0.75517 0.0
C1437 C 0.27129 0.09249 0.74664 0.0
C1438 C 0.28172 0.07898 0.73441 0.0
C1439 C 0.30543 0.08303 0.73056 0.0
C1440 C 0.31835 0.10064 0.73876 0.0
C1441 C 0.30745 0.11351 0.75141 0.0
H1442 H 0.64889 0.44709 0.49449 0.0
H1443 H 0.68928 0.45674 0.53893 0.0
H1444 H 0.69644 0.49794 0.53143 0.0
H1445 H 0.6836 0.48725 0.4681 0.0
H1446 H 0.65774 0.49772 0.45776 0.0
H1447 H 0.65865 0.46826 0.46552 0.0
H1448 H 0.62074 0.47613 0.48211 0.0
H1449 H 0.61982 0.50561 0.47455 0.0
H1450 H 0.61992 0.50029 0.49627 0.0
H1451 H 0.69559 0.5393 0.52052 0.0
H1452 H 0.68723 0.577 0.5068 0.0
H1453 H 0.64711 0.54024 0.46975 0.0
C1454 C 0.65985 0.45768 0.50238 0.0
C1455 C 0.66876 0.44864 0.5172 0.0
C1456 C 0.68245 0.46325 0.52744 0.0
C1457 C 0.68661 0.48669 0.52328 0.0
C1458 C 0.67698 0.49529 0.50883 0.0
C1459 C 0.66402 0.48118 0.49847 0.0
C1460 C 0.65402 0.49511 0.48435 0.0
C1461 C 0.66412 0.48657 0.46796 0.0
C1462 C 0.62703 0.49423 0.48433 0.0
C1463 C 0.66291 0.51932 0.48858 0.0
C1464 C 0.67631 0.51909 0.50265 0.0
C1465 C 0.68538 0.53964 0.50936 0.0
C1466 C 0.68053 0.56097 0.50152 0.0
C1467 C 0.66664 0.56157 0.48718 0.0
C1468 C 0.65798 0.54038 0.48061 0.0
H1469 H 0.2118 0.87562 0.2236 0.0
H1470 H 0.1847 0.93619 0.24933 0.0
H1471 H 0.22472 0.94469 0.25974 0.0
H1472 H 0.25102 0.85739 0.25473 0.0
H1473 H 0.27317 0.84738 0.24064 0.0
H1474 H 0.24281 0.84726 0.23464 0.0
H1475 H 0.25303 0.87249 0.20931 0.0
H1476 H 0.28343 0.87284 0.21531 0.0
H1477 H 0.26801 0.89995 0.21209 0.0
H1478 H 0.26824 0.94572 0.26772 0.0
H1479 H 0.30984 0.93757 0.27427 0.0
H1480 H 0.30745 0.87575 0.24359 0.0
C1481 C 0.21424 0.89081 0.23133 0.0
C1482 C 0.19513 0.90536 0.23558 0.0
C1483 C 0.19909 0.92485 0.24589 0.0
C1484 C 0.22178 0.92984 0.25179 0.0
C1485 C 0.24026 0.91511 0.2473 0.0
C1486 C 0.23661 0.8959 0.23738 0.0
C1487 C 0.25897 0.88203 0.23494 0.0
C1488 C 0.25633 0.85704 0.24164 0.0
C1489 C 0.26629 0.88183 0.21684 0.0
C1490 C 0.27587 0.89627 0.24517 0.0
C1491 C 0.26488 0.91545 0.25206 0.0
C1492 C 0.27697 0.9308 0.26232 0.0
C1493 C 0.30065 0.9261 0.2659 0.0
C1494 C 0.31197 0.90609 0.25937 0.0
C1495 C 0.2994 0.89129 0.24866 0.0
H1496 H 0.6419 0.04073 0.52987 0.0
H1497 H 0.68252 0.07854 0.49368 0.0
H1498 H 0.69242 0.04109 0.48006 0.0
H1499 H 0.67952 0.98878 0.53224 0.0
H1500 H 0.65491 0.96924 0.53431 0.0
H1501 H 0.65295 0.99872 0.54197 0.0
H1502 H 0.61573 0.00568 0.52444 0.0
H1503 H 0.61753 0.97625 0.5168 0.0
H1504 H 0.61687 1.00045 0.50271 0.0
H1505 H 0.69523 0.99964 0.46929 0.0
H1506 H 0.68968 0.95818 0.46171 0.0
H1507 H 0.64723 0.94771 0.50511 0.0
C1508 C 0.65319 0.04115 0.51922 0.0
C1509 C 0.66157 0.06255 0.51287 0.0
C1510 C 0.67601 0.06234 0.49878 0.0
C1511 C 0.68176 0.04115 0.49101 0.0
C1512 C 0.67299 0.02036 0.49753 0.0
C1513 C 0.65902 0.02023 0.51133 0.0
C1514 C 0.65053 0.9958 0.51531 0.0
C1515 C 0.66005 0.98766 0.53195 0.0
C1516 C 0.62357 0.99448 0.51477 0.0
C1517 C 0.66151 0.98216 0.5014 0.0
C1518 C 0.6746 0.99659 0.49136 0.0
C1519 C 0.68527 0.98816 0.47719 0.0
C1520 C 0.68205 0.96457 0.47299 0.0
C1521 C 0.66822 0.94965 0.4829 0.0
C1522 C 0.65826 0.95854 0.49745 0.0
H1523 H 0.2022 0.38136 0.7441 0.0
H1524 H 0.1986 0.44853 0.76854 0.0
H1525 H 0.24018 0.45598 0.76126 0.0
H1526 H 0.25721 0.36647 0.75876 0.0
H1527 H 0.26653 0.35144 0.74049 0.0
H1528 H 0.23585 0.35311 0.74546 0.0
H1529 H 0.22709 0.37187 0.71726 0.0
H1530 H 0.25774 0.36997 0.71209 0.0
H1531 H 0.24286 0.39772 0.71111 0.0
H1532 H 0.28374 0.45447 0.75242 0.0
H1533 H 0.3241 0.44371 0.74361 0.0
H1534 H 0.29821 0.37649 0.72707 0.0
C1535 C 0.20989 0.39796 0.74753 0.0
C1536 C 0.19705 0.41453 0.75666 0.0
C1537 C 0.20804 0.43572 0.76133 0.0
C1538 C 0.23166 0.44006 0.75728 0.0
C1539 C 0.24405 0.42294 0.74868 0.0
C1540 C 0.23341 0.40233 0.74386 0.0
C1541 C 0.25074 0.38578 0.73601 0.0
C1542 C 0.25269 0.36286 0.74577 0.0
C1543 C 0.24422 0.38107 0.71805 0.0
C1544 C 0.27293 0.40008 0.73731 0.0
C1545 C 0.26884 0.42162 0.74442 0.0
C1546 C 0.28705 0.43764 0.74684 0.0
C1547 C 0.3099 0.43141 0.74184 0.0
C1548 C 0.31431 0.4092 0.73483 0.0
C1549 C 0.29548 0.39351 0.73257 0.0
H1550 H 0.88812 0.96328 0.01344 0.0
H1551 H 0.81463 0.94465 0.00936 0.0
H1552 H 0.80534 0.98541 0.00122 0.0
H1553 H 0.87969 0.0203 0.0303 0.0
H1554 H 0.9039 0.03294 0.01924 0.0
H1555 H 0.90443 1.00244 0.02462 0.0
H1556 H 0.91055 0.99127 0.99416 0.0
H1557 H 0.91026 0.02173 0.98872 0.0
H1558 H 0.89015 1.00177 0.97901 0.0
H1559 H 0.80461 0.02915 0.99366 0.0
H1560 H 0.81284 0.07034 0.98604 0.0
H1561 H 0.88682 0.05886 0.99537 0.0
C1562 C 0.87004 0.96768 0.01079 0.0
C1563 C 0.85208 0.9508 0.01202 0.0
C1564 C 0.82867 0.95732 0.00844 0.0
C1565 C 0.82324 0.98043 0.00388 0.0
C1566 C 0.84144 0.99673 0.00297 0.0
C1567 C 0.86438 0.9905 0.00625 0.0
C1568 C 0.8809 0.01095 0.00427 0.0
C1569 C 0.89293 0.01701 0.02058 0.0
C1570 C 0.89902 0.00614 0.99073 0.0
C1571 C 0.86376 0.02975 0.99927 0.0
C1572 C 0.84104 0.0214 0.99865 0.0
C1573 C 0.82235 0.03581 0.99413 0.0
C1574 C 0.82715 0.05919 0.9899 0.0
C1575 C 0.85044 0.0678 0.99015 0.0
C1576 C 0.86881 0.05285 0.99509 0.0
H1577 H 0.31783 0.62098 0.24408 0.0
H1578 H 0.31088 0.57247 0.28452 0.0
H1579 H 0.26889 0.56737 0.27806 0.0
H1580 H 0.26402 0.64943 0.24984 0.0
H1581 H 0.25764 0.6531 0.2284 0.0
H1582 H 0.2876 0.65125 0.2352 0.0
H1583 H 0.29497 0.61663 0.21539 0.0
H1584 H 0.26504 0.6185 0.20843 0.0
H1585 H 0.27623 0.59129 0.21632 0.0
H1586 H 0.22645 0.5703 0.26859 0.0
H1587 H 0.188 0.57976 0.25598 0.0
H1588 H 0.22309 0.62574 0.22165 0.0
C1589 C 0.3076 0.60888 0.25133 0.0
C1590 C 0.31773 0.59701 0.26474 0.0
C1591 C 0.30358 0.58165 0.27412 0.0
C1592 C 0.27967 0.57866 0.27056 0.0
C1593 C 0.27007 0.59105 0.25752 0.0
C1594 C 0.28367 0.60567 0.24794 0.0
C1595 C 0.26891 0.61775 0.23507 0.0
C1596 C 0.26959 0.64446 0.23727 0.0
C1597 C 0.27676 0.61061 0.21778 0.0
C1598 C 0.24488 0.60797 0.23907 0.0
C1599 C 0.24584 0.59255 0.25203 0.0
C1600 C 0.22556 0.58214 0.2583 0.0
C1601 C 0.20379 0.58763 0.25111 0.0
C1602 C 0.20251 0.60334 0.23778 0.0
C1603 C 0.22344 0.61347 0.23172 0.0
H1604 H 0.37055 0.0645 0.49304 0.0
H1605 H 0.32645 0.05363 0.53557 0.0
H1606 H 0.32019 0.01255 0.52721 0.0
H1607 H 0.33874 0.0247 0.46467 0.0
H1608 H 0.36563 0.01471 0.45542 0.0
H1609 H 0.36367 0.04398 0.46346 0.0
H1610 H 0.40003 0.03612 0.48166 0.0
H1611 H 0.40197 0.00681 0.47381 0.0
H1612 H 0.39977 0.01166 0.49554 0.0
H1613 H 0.32224 0.97142 0.51571 0.0
H1614 H 0.33228 0.93413 0.50194 0.0
H1615 H 0.37567 0.97206 0.4674 0.0
C1616 C 0.35898 0.05368 0.50031 0.0
C1617 C 0.34873 0.06233 0.51484 0.0
C1618 C 0.33427 0.04742 0.5243 0.0
C1619 C 0.33063 0.02405 0.51965 0.0
C1620 C 0.34157 0.01585 0.50551 0.0
C1621 C 0.35535 0.03028 0.49593 0.0
C1622 C 0.36681 0.01677 0.48214 0.0
C1623 C 0.35819 0.02556 0.46543 0.0
C1624 C 0.39373 0.01791 0.48337 0.0
C1625 C 0.3578 0.9924 0.48567 0.0
C1626 C 0.34306 0.99221 0.49908 0.0
C1627 C 0.33353 0.97143 0.50507 0.0
C1628 C 0.33934 0.95033 0.4972 0.0
C1629 C 0.35468 0.95019 0.48358 0.0
C1630 C 0.36375 0.97158 0.47771 0.0
H1631 H 0.70847 0.63972 0.25636 0.0
H1632 H 0.69652 0.56549 0.26298 0.0
H1633 H 0.73816 0.55772 0.25607 0.0
H1634 H 0.74925 0.6354 0.22251 0.0
H1635 H 0.76686 0.65947 0.2297 0.0
H1636 H 0.73599 0.65854 0.23429 0.0
H1637 H 0.74551 0.66218 0.26519 0.0
H1638 H 0.77643 0.66274 0.26072 0.0
H1639 H 0.76484 0.6412 0.27461 0.0
H1640 H 0.78209 0.5586 0.24881 0.0
H1641 H 0.82304 0.56792 0.24089 0.0
H1642 H 0.80557 0.64168 0.24034 0.0
C1643 C 0.71445 0.62176 0.25611 0.0
C1644 C 0.69914 0.60318 0.26005 0.0
C1645 C 0.70786 0.57999 0.25984 0.0
C1646 C 0.73152 0.57544 0.25601 0.0
C1647 C 0.74628 0.59428 0.25254 0.0
C1648 C 0.73796 0.61697 0.25249 0.0
C1649 C 0.75731 0.63427 0.24874 0.0
C1650 C 0.75204 0.6477 0.23287 0.0
C1651 C 0.76125 0.65108 0.26318 0.0
C1652 C 0.77788 0.61784 0.24662 0.0
C1653 C 0.77128 0.59482 0.24883 0.0
C1654 C 0.7874 0.57659 0.24711 0.0
C1655 C 0.81066 0.58204 0.2427 0.0
C1656 C 0.81761 0.60553 0.24014 0.0
C1657 C 0.80096 0.62356 0.24239 0.0
H1658 H 0.11966 0.96085 0.02201 0.0
H1659 H 0.18731 0.93619 0.00498 0.0
H1660 H 0.19694 0.97632 0.99557 0.0
H1661 H 0.10827 0.99955 0.98931 0.0
H1662 H 0.09417 0.02116 0.002 0.0
H1663 H 0.09353 0.99087 0.00784 0.0
H1664 H 0.11184 1.00158 0.0359 0.0
H1665 H 0.11269 0.03193 0.03008 0.0
H1666 H 0.13917 0.01741 0.03654 0.0
H1667 H 0.19793 0.01966 0.98691 0.0
H1668 H 0.18974 0.06084 0.97931 0.0
H1669 H 0.12174 0.05601 0.00281 0.0
C1670 C 0.13657 0.96383 0.01636 0.0
C1671 C 0.15274 0.94537 0.0142 0.0
C1672 C 0.17466 0.95008 0.00675 0.0
C1673 C 0.18028 0.97283 0.00142 0.0
C1674 C 0.16385 0.99065 0.00375 0.0
C1675 C 0.14245 0.98629 0.01108 0.0
C1676 C 0.12744 0.00806 0.01182 0.0
C1677 C 0.10451 1.0047 0.00216 0.0
C1678 C 0.12251 0.01516 0.02964 0.0
C1679 C 0.1435 0.0254 0.00353 0.0
C1680 C 0.16451 0.0152 0.99901 0.0
C1681 C 0.18161 0.02781 0.99054 0.0
C1682 C 0.17687 0.05122 0.98633 0.0
C1683 C 0.15519 0.06172 0.99057 0.0
C1684 C 0.13859 0.04863 0.99954 0.0
H1685 H 0.80565 0.3738 0.7633 0.0
H1686 H 0.82443 0.44663 0.75684 0.0
H1687 H 0.78377 0.45517 0.7477 0.0
H1688 H 0.76603 0.36874 0.72904 0.0
H1689 H 0.74627 0.3498 0.74 0.0
H1690 H 0.77704 0.34982 0.7449 0.0
H1691 H 0.76692 0.35878 0.7752 0.0
H1692 H 0.73614 0.35915 0.77034 0.0
H1693 H 0.74946 0.38412 0.78006 0.0
H1694 H 0.7399 0.45512 0.73941 0.0
H1695 H 0.69833 0.44639 0.73265 0.0
H1696 H 0.70938 0.37408 0.74649 0.0
C1697 C 0.8014 0.39152 0.75973 0.0
C1698 C 0.81829 0.40952 0.76061 0.0
C1699 C 0.81181 0.43253 0.7561 0.0
C1700 C 0.78874 0.43753 0.75097 0.0
C1701 C 0.77238 0.41936 0.75058 0.0
C1702 C 0.77856 0.39681 0.75485 0.0
C1703 C 0.75784 0.38039 0.75399 0.0
C1704 C 0.76205 0.36106 0.74122 0.0
C1705 C 0.75227 0.37001 0.7709 0.0
C1706 C 0.73891 0.39711 0.74852 0.0
C1707 C 0.74748 0.41952 0.74652 0.0
C1708 C 0.73305 0.43764 0.74105 0.0
C1709 C 0.70945 0.43257 0.73731 0.0
C1710 C 0.70053 0.40963 0.73922 0.0
C1711 C 0.71551 0.39189 0.74511 0.0
H1712 H 0.16339 0.80166 0.04442 0.0
H1713 H 0.15175 0.81608 0.993 0.0
H1714 H 0.15497 0.77382 0.98688 0.0
H1715 H 0.20461 0.7517 0.03879 0.0
H1716 H 0.19238 0.73625 0.05599 0.0
H1717 H 0.19257 0.76775 0.05582 0.0
H1718 H 0.14761 0.76805 0.06048 0.0
H1719 H 0.14726 0.73664 0.06058 0.0
H1720 H 0.12887 0.75242 0.04647 0.0
H1721 H 0.15415 0.72929 0.98708 0.0
H1722 H 0.15028 0.68716 0.99355 0.0
H1723 H 0.16313 0.70239 0.04474 0.0
C1724 C 0.16219 0.79603 0.03179 0.0
C1725 C 0.15751 0.81222 0.01916 0.0
C1726 C 0.15559 0.80404 0.00285 0.0
C1727 C 0.15737 0.78004 0.99927 0.0
C1728 C 0.16129 0.76445 0.0121 0.0
C1729 C 0.16394 0.77221 0.02803 0.0
C1730 C 0.16617 0.75193 0.03982 0.0
C1731 C 0.19038 0.75191 0.04809 0.0
C1732 C 0.1463 0.75229 0.05258 0.0
C1733 C 0.16363 0.73151 0.02815 0.0
C1734 C 0.16104 0.739 0.01219 0.0
C1735 C 0.15662 0.72324 0.9995 0.0
C1736 C 0.15445 0.69934 0.00327 0.0
C1737 C 0.15667 0.69142 0.01961 0.0
C1738 C 0.16178 0.70778 0.03208 0.0
H1739 H 0.55099 0.91631 0.28936 0.0
H1740 H 0.56598 0.89353 0.23985 0.0
H1741 H 0.52366 0.89524 0.23329 0.0
H1742 H 0.50165 0.88234 0.29475 0.0
H1743 H 0.48549 0.90334 0.30673 0.0
H1744 H 0.51701 0.90392 0.30674 0.0
H1745 H 0.51646 0.94721 0.2975 0.0
H1746 H 0.48485 0.94681 0.29754 0.0
H1747 H 0.5005 0.95531 0.27934 0.0
H1748 H 0.47913 0.89454 0.23327 0.0
H1749 H 0.4368 0.89183 0.23975 0.0
H1750 H 0.45105 0.91524 0.28922 0.0
C1751 C 0.54547 0.91239 0.27698 0.0
C1752 C 0.56188 0.90504 0.26506 0.0
C1753 C 0.5538 0.89945 0.24914 0.0
C1754 C 0.52976 0.90037 0.24531 0.0
C1755 C 0.51396 0.90701 0.2575 0.0
C1756 C 0.52155 0.91312 0.27299 0.0
C1757 C 0.50098 0.91766 0.28432 0.0
C1758 C 0.50131 0.90081 0.29899 0.0
C1759 C 0.50068 0.94328 0.29001 0.0
C1760 C 0.48062 0.91251 0.27296 0.0
C1761 C 0.48842 0.90663 0.25748 0.0
C1762 C 0.47284 0.89953 0.24526 0.0
C1763 C 0.4488 0.89805 0.24904 0.0
C1764 C 0.44053 0.90358 0.26492 0.0
C1765 C 0.45671 0.91133 0.27687 0.0
H1766 H 0.39331 0.20615 0.53726 0.0
H1767 H 0.32957 0.19035 0.51051 0.0
H1768 H 0.32294 0.23285 0.50624 0.0
H1769 H 0.37181 0.25603 0.55813 0.0
H1770 H 0.39929 0.27152 0.55711 0.0
H1771 H 0.39905 0.24008 0.55731 0.0
H1772 H 0.42292 0.23939 0.53031 0.0
H1773 H 0.42323 0.27085 0.53003 0.0
H1774 H 0.41201 0.25489 0.5127 0.0
H1775 H 0.32347 0.27819 0.50562 0.0
H1776 H 0.33078 0.32073 0.50912 0.0
H1777 H 0.39397 0.30499 0.53649 0.0
C1778 C 0.37798 0.21152 0.5304 0.0
C1779 C 0.36197 0.19493 0.52418 0.0
C1780 C 0.34209 0.20278 0.51536 0.0
C1781 C 0.33822 0.22687 0.51288 0.0
C1782 C 0.35439 0.24279 0.51929 0.0
C1783 C 0.37387 0.23529 0.52787 0.0
C1784 C 0.38846 0.25557 0.53392 0.0
C1785 C 0.38971 0.25581 0.55273 0.0
C1786 C 0.41311 0.25514 0.52628 0.0
C1787 C 0.37416 0.27581 0.52753 0.0
C1788 C 0.35461 0.26827 0.51904 0.0
C1789 C 0.33879 0.28419 0.51221 0.0
C1790 C 0.34306 0.3083 0.51424 0.0
C1791 C 0.36292 0.31619 0.52307 0.0
C1792 C 0.37861 0.29959 0.52966 0.0
H1793 H 0.95862 0.14463 0.76991 0.0
H1794 H 0.94356 0.07104 0.77679 0.0
H1795 H 0.98597 0.06208 0.77435 0.0
H1796 H 0.0088 0.13819 0.74155 0.0
H1797 H 0.0244 0.16213 0.75089 0.0
H1798 H 0.9928 0.16204 0.75068 0.0
H1799 H 0.99234 0.16665 0.78222 0.0
H1800 H 0.02387 0.16664 0.78255 0.0
H1801 H 0.00785 0.14575 0.79467 0.0
H1802 H 0.03084 0.06188 0.77339 0.0
H1803 H 0.07334 0.07064 0.77545 0.0
H1804 H 0.05823 0.14457 0.7706 0.0
C1805 C 0.96413 0.12653 0.77044 0.0
C1806 C 0.94775 0.10847 0.77329 0.0
C1807 C 0.95579 0.08511 0.77442 0.0
C1808 C 0.97984 0.07988 0.77303 0.0
C1809 C 0.99562 0.09822 0.7706 0.0
C1810 C 0.98801 0.1211 0.76933 0.0
C1811 C 0.00844 0.13794 0.76838 0.0
C1812 C 0.00862 0.15083 0.75189 0.0
C1813 C 0.00809 0.15525 0.78281 0.0
C1814 C 0.0288 0.12109 0.76967 0.0
C1815 C 0.02117 0.09821 0.77065 0.0
C1816 C 0.03696 0.07973 0.77248 0.0
C1817 C 0.06107 0.08485 0.77362 0.0
C1818 C 0.06908 0.10826 0.77317 0.0
C1819 C 0.05267 0.12647 0.77092 0.0
H1820 H 0.14097 0.20304 0.95115 0.0
H1821 H 0.16567 0.18919 0.00034 0.0
H1822 H 0.17079 0.23185 0.00485 0.0
H1823 H 0.17939 0.25223 0.94231 0.0
H1824 H 0.15697 0.26741 0.93097 0.0
H1825 H 0.1571 0.23595 0.93159 0.0
H1826 H 0.11439 0.23625 0.94247 0.0
H1827 H 0.11416 0.26767 0.94198 0.0
H1828 H 0.10755 0.25255 0.96074 0.0
H1829 H 0.16983 0.27723 0.00428 0.0
H1830 H 0.16444 0.31949 0.99826 0.0
H1831 H 0.14113 0.30178 0.94931 0.0
C1832 C 0.14781 0.20887 0.96282 0.0
C1833 C 0.153 0.19277 0.97539 0.0
C1834 C 0.16174 0.20121 0.9905 0.0
C1835 C 0.16463 0.22541 0.99317 0.0
C1836 C 0.15886 0.24086 0.98055 0.0
C1837 C 0.15082 0.23276 0.96563 0.0
C1838 C 0.14489 0.25261 0.95418 0.0
C1839 C 0.16053 0.25201 0.93886 0.0
C1840 C 0.1187 0.25224 0.94958 0.0
C1841 C 0.15065 0.27328 0.96496 0.0
C1842 C 0.15864 0.26636 0.98016 0.0
C1843 C 0.16386 0.28275 0.99233 0.0
C1844 C 0.16074 0.30671 0.98883 0.0
C1845 C 0.15258 0.31397 0.97328 0.0
C1846 C 0.14771 0.2969 0.96126 0.0
H1847 H 0.9499 0.8749 0.23551 0.0
H1848 H 0.93543 0.94631 0.22099 0.0
H1849 H 0.97782 0.95537 0.22246 0.0
H1850 H 1.00006 0.88755 0.26318 0.0
H1851 H 0.01566 0.86176 0.25668 0.0
H1852 H 0.98405 0.86198 0.25675 0.0
H1853 H 0.98387 0.85026 0.22613 0.0
H1854 H 0.0154 0.85013 0.22593 0.0
H1855 H 0.99954 0.86803 0.21157 0.0
H1856 H 0.02254 0.95529 0.22255 0.0
H1857 H 0.06496 0.946 0.22127 0.0
H1858 H 0.04981 0.87461 0.23552 0.0
C1859 C 0.95554 0.89264 0.23312 0.0
C1860 C 0.93927 0.90999 0.22834 0.0
C1861 C 0.94751 0.93281 0.22486 0.0
C1862 C 0.97159 0.9381 0.22566 0.0
C1863 C 0.98726 0.9204 0.22997 0.0
C1864 C 0.9795 0.89815 0.23375 0.0
C1865 C 0.99992 0.88171 0.23666 0.0
C1866 C 0.99992 0.87273 0.25437 0.0
C1867 C 0.99966 0.86134 0.22434 0.0
C1868 C 0.02041 0.898 0.23359 0.0
C1869 C 0.01282 0.92032 0.2299 0.0
C1870 C 0.02864 0.93795 0.22567 0.0
C1871 C 0.05272 0.93254 0.22498 0.0
C1872 C 0.06078 0.90965 0.22843 0.0
C1873 C 0.04431 0.89237 0.23304 0.0
H1874 H 0.38128 0.70661 0.44997 0.0
H1875 H 0.34537 0.69219 0.49562 0.0
H1876 H 0.33957 0.73479 0.49986 0.0
H1877 H 0.41252 0.75582 0.46398 0.0
H1878 H 0.41061 0.77134 0.44486 0.0
H1879 H 0.41014 0.7399 0.44501 0.0
H1880 H 0.3707 0.74013 0.42923 0.0
H1881 H 0.3711 0.7716 0.42897 0.0
H1882 H 0.3462 0.75633 0.43734 0.0
H1883 H 0.33932 0.77987 0.49928 0.0
H1884 H 0.3452 0.82222 0.49418 0.0
H1885 H 0.3822 0.80573 0.44928 0.0
C1886 C 0.37188 0.71231 0.46078 0.0
C1887 C 0.3636 0.69605 0.47242 0.0
C1888 C 0.35172 0.70434 0.48649 0.0
C1889 C 0.34837 0.72849 0.48899 0.0
C1890 C 0.35708 0.74407 0.47732 0.0
C1891 C 0.36859 0.73619 0.46349 0.0
C1892 C 0.37733 0.75625 0.45311 0.0
C1893 C 0.40424 0.75579 0.45167 0.0
C1894 C 0.36562 0.75606 0.43616 0.0
C1895 C 0.3691 0.77677 0.46326 0.0
C1896 C 0.35731 0.76954 0.47713 0.0
C1897 C 0.34846 0.78564 0.48841 0.0
C1898 C 0.35187 0.80966 0.48543 0.0
C1899 C 0.36416 0.81728 0.47135 0.0
C1900 C 0.37272 0.80051 0.46016 0.0
H1901 H 0.46045 0.10732 0.70208 0.0
H1902 H 0.44416 0.09365 0.75297 0.0
H1903 H 0.48648 0.08758 0.75864 0.0
H1904 H 0.50951 0.0653 0.6984 0.0
H1905 H 0.52574 0.08457 0.68515 0.0
H1906 H 0.49414 0.08507 0.685 0.0
H1907 H 0.49479 0.12954 0.69108 0.0
H1908 H 0.52631 0.12916 0.69131 0.0
H1909 H 0.51043 0.14013 0.70877 0.0
H1910 H 0.53157 0.08797 0.7591 0.0
H1911 H 0.57415 0.09338 0.75406 0.0
H1912 H 0.55975 0.10548 0.70269 0.0
C1913 C 0.46569 0.10254 0.71436 0.0
C1914 C 0.44902 0.10087 0.72708 0.0
C1915 C 0.45663 0.09481 0.74301 0.0
C1916 C 0.48064 0.09138 0.74634 0.0
C1917 C 0.49672 0.09375 0.73355 0.0
C1918 C 0.48943 0.09892 0.71783 0.0
C1919 C 0.51003 0.10191 0.70636 0.0
C1920 C 0.50984 0.08308 0.69294 0.0
C1921 C 0.5104 0.12665 0.69896 0.0
C1922 C 0.53017 0.09829 0.71812 0.0
C1923 C 0.52228 0.09349 0.73375 0.0
C1924 C 0.53789 0.09128 0.74684 0.0
C1925 C 0.56204 0.09436 0.74388 0.0
C1926 C 0.57032 0.09957 0.72796 0.0
C1927 C 0.55408 0.10109 0.71495 0.0
H1928 H 0.84416 0.31031 0.95452 0.0
H1929 H 0.85124 0.32643 0.00611 0.0
H1930 H 0.84685 0.28436 0.0127 0.0
H1931 H 0.80256 0.26093 0.95839 0.0
H1932 H 0.8167 0.24489 0.94217 0.0
H1933 H 0.81672 0.27638 0.94192 0.0
H1934 H 0.86209 0.27631 0.93993 0.0
H1935 H 0.86222 0.24491 0.94023 0.0
H1936 H 0.87896 0.26099 0.95517 0.0
H1937 H 0.84556 0.23972 0.0132 0.0
H1938 H 0.84913 0.1973 0.00751 0.0
H1939 H 0.84425 0.21126 0.95551 0.0
C1940 C 0.84413 0.30512 0.96725 0.0
C1941 C 0.84774 0.32168 0.97983 0.0
C1942 C 0.84823 0.31406 0.9963 0.0
C1943 C 0.84573 0.29021 0.00014 0.0
C1944 C 0.84278 0.27424 0.98737 0.0
C1945 C 0.84194 0.28148 0.97125 0.0
C1946 C 0.84099 0.26091 0.95962 0.0
C1947 C 0.81786 0.26078 0.94996 0.0
C1948 C 0.86233 0.26078 0.94807 0.0
C1949 C 0.84198 0.24087 0.97164 0.0
C1950 C 0.84263 0.24881 0.98761 0.0
C1951 C 0.84477 0.23335 0.00074 0.0
C1952 C 0.84674 0.20929 0.99741 0.0
C1953 C 0.84686 0.20099 0.98108 0.0
C1954 C 0.84401 0.21704 0.96813 0.0
H1955 H 0.62613 0.8046 0.46264 0.0
H1956 H 0.69279 0.82152 0.48527 0.0
H1957 H 0.70107 0.77911 0.48852 0.0
H1958 H 0.6122 0.75478 0.48774 0.0
H1959 H 0.59897 0.73901 0.47103 0.0
H1960 H 0.59847 0.77047 0.4712 0.0
H1961 H 0.61838 0.7711 0.44268 0.0
H1962 H 0.61901 0.73966 0.44244 0.0
H1963 H 0.64579 0.75594 0.43977 0.0
H1964 H 0.70186 0.73362 0.48839 0.0
H1965 H 0.69497 0.69098 0.48495 0.0
H1966 H 0.62788 0.70589 0.46226 0.0
C1967 C 0.64245 0.7995 0.46839 0.0
C1968 C 0.65881 0.81638 0.47373 0.0
C1969 C 0.67997 0.80886 0.48113 0.0
C1970 C 0.6848 0.78482 0.48301 0.0
C1971 C 0.66827 0.76861 0.47744 0.0
C1972 C 0.64749 0.7758 0.47032 0.0
C1973 C 0.63264 0.7553 0.465 0.0
C1974 C 0.60919 0.75487 0.4743 0.0
C1975 C 0.62874 0.75552 0.44637 0.0
C1976 C 0.64828 0.7353 0.47009 0.0
C1977 C 0.66876 0.74312 0.4773 0.0
C1978 C 0.68583 0.72742 0.48278 0.0
C1979 C 0.6818 0.70324 0.48079 0.0
C1980 C 0.66091 0.69509 0.47333 0.0
C1981 C 0.64405 0.71148 0.46801 0.0
H1982 H 0.84174 0.70834 0.04553 0.0
H1983 H 0.85097 0.69255 0.99405 0.0
H1984 H 0.84631 0.73455 0.98746 0.0
H1985 H 0.79974 0.75778 0.0408 0.0
H1986 H 0.81313 0.77377 0.05735 0.0
H1987 H 0.81313 0.74227 0.05756 0.0
H1988 H 0.85838 0.74234 0.06058 0.0
H1989 H 0.85854 0.77374 0.06031 0.0
H1990 H 0.87595 0.75767 0.04573 0.0
H1991 H 0.8454 0.77901 0.98702 0.0
H1992 H 0.84941 0.82131 0.99281 0.0
H1993 H 0.84173 0.80743 0.04466 0.0
C1994 C 0.84205 0.71358 0.03281 0.0
C1995 C 0.84643 0.69713 0.02027 0.0
C1996 C 0.84736 0.70482 0.00383 0.0
C1997 C 0.84472 0.72864 -2e-05 0.0
C1998 C 0.84111 0.74452 0.01272 0.0
C1999 C 0.83968 0.73723 0.02881 0.0
C2000 C 0.83821 0.75779 0.04044 0.0
C2001 C 0.81465 0.7579 0.04958 0.0
C2002 C 0.85901 0.75788 0.05246 0.0
C2003 C 0.83974 0.77787 0.02846 0.0
C2004 C 0.84102 0.76995 0.0125 0.0
C2005 C 0.84404 0.78537 0.99945 0.0
C2006 C 0.84627 0.80938 0.00285 0.0
C2007 C 0.84574 0.81769 0.01917 0.0
C2008 C 0.84193 0.80168 0.03204 0.0
H2009 H 0.62013 0.30484 0.52955 0.0
H2010 H 0.69283 0.32002 0.51826 0.0
H2011 H 0.70069 0.27751 0.5154 0.0
H2012 H 0.6303 0.25544 0.55385 0.0
H2013 H 0.60477 0.23981 0.54681 0.0
H2014 H 0.60492 0.27124 0.54674 0.0
H2015 H 0.595 0.27129 0.51579 0.0
H2016 H 0.59475 0.23981 0.51577 0.0
H2017 H 0.61347 0.25538 0.50176 0.0
H2018 H 0.70061 0.23229 0.51584 0.0
H2019 H 0.69235 0.18987 0.5188 0.0
H2020 H 0.61955 0.20585 0.52931 0.0
C2021 C 0.63768 0.29931 0.52627 0.0
C2022 C 0.65588 0.31575 0.5241 0.0
C2023 C 0.6786 0.30772 0.51989 0.0
C2024 C 0.6832 0.28361 0.51827 0.0
C2025 C 0.66484 0.26783 0.52077 0.0
C2026 C 0.64249 0.27549 0.52455 0.0
C2027 C 0.62584 0.25528 0.52718 0.0
C2028 C 0.61589 0.25546 0.54468 0.0
C2029 C 0.6061 0.25545 0.51436 0.0
C2030 C 0.64231 0.23492 0.52456 0.0
C2031 C 0.66475 0.24234 0.52083 0.0
C2032 C 0.68303 0.22636 0.51859 0.0
C2033 C 0.6782 0.20231 0.52028 0.0
C2034 C 0.65529 0.19452 0.52418 0.0
C2035 C 0.63721 0.21116 0.52617 0.0
H2036 H 0.95625 0.37768 0.76559 0.0
H2037 H 0.94345 0.45098 0.77563 0.0
H2038 H 0.98608 0.45888 0.77328 0.0
H2039 H 1.00565 0.3731 0.78992 0.0
H2040 H 0.02091 0.35277 0.77686 0.0
H2041 H 0.9894 0.35372 0.77673 0.0
H2042 H 0.98963 0.36088 0.74543 0.0
H2043 H 0.02121 0.35982 0.74544 0.0
H2044 H 1.00626 0.38494 0.7372 0.0
H2045 H 0.03102 0.45779 0.77215 0.0
H2046 H 0.07328 0.44755 0.77351 0.0
H2047 H 0.05574 0.37472 0.76548 0.0
C2048 C 0.96229 0.39554 0.76682 0.0
C2049 C 0.94648 0.4138 0.77054 0.0
C2050 C 0.95522 0.43679 0.77256 0.0
C2051 C 0.97941 0.44142 0.77125 0.0
C2052 C 0.99462 0.42285 0.76798 0.0
C2053 C 0.98631 0.40036 0.76578 0.0
C2054 C 1.00619 0.38302 0.764 0.0
C2055 C 1.00549 0.36458 0.77769 0.0
C2056 C 1.0058 0.3715 0.747 0.0
C2057 C 0.02707 0.39912 0.76585 0.0
C2058 C 0.02017 0.42209 0.76788 0.0
C2059 C 0.03657 0.43988 0.77042 0.0
C2060 C 0.06053 0.43393 0.77115 0.0
C2061 C 0.06779 0.41036 0.76957 0.0
C2062 C 0.05077 0.39291 0.76666 0.0
H2063 H 0.45988 0.62957 0.25832 0.0
H2064 H 0.44519 0.55888 0.27438 0.0
H2065 H 0.48754 0.54965 0.27311 0.0
H2066 H 0.51026 0.61487 0.23079 0.0
H2067 H 0.52585 0.64104 0.23652 0.0
H2068 H 0.49423 0.64087 0.23632 0.0
H2069 H 0.49381 0.65461 0.26653 0.0
H2070 H 0.52533 0.65469 0.26686 0.0
H2071 H 0.5093 0.63778 0.28171 0.0
H2072 H 0.53206 0.55005 0.27411 0.0
H2073 H 0.57432 0.55967 0.27614 0.0
H2074 H 0.55979 0.62968 0.25865 0.0
C2075 C 0.46547 0.61192 0.26106 0.0
C2076 C 0.44914 0.59488 0.2663 0.0
C2077 C 0.45729 0.57215 0.27015 0.0
C2078 C 0.48136 0.56676 0.26949 0.0
C2079 C 0.49708 0.58421 0.2648 0.0
C2080 C 0.4894 0.60626 0.26044 0.0
C2081 C 0.50989 0.62245 0.25709 0.0
C2082 C 0.51006 0.63026 0.23911 0.0
C2083 C 0.50955 0.64362 0.26874 0.0
C2084 C 0.53033 0.60634 0.26076 0.0
C2085 C 0.52264 0.58429 0.26508 0.0
C2086 C 0.53828 0.5671 0.27038 0.0
C2087 C 0.56227 0.5727 0.2715 0.0
C2088 C 0.57045 0.59527 0.26729 0.0
C2089 C 0.55421 0.61207 0.26155 0.0
H2090 H 0.45872 0.39926 0.70001 0.0
H2091 H 0.44209 0.42125 0.74945 0.0
H2092 H 0.48447 0.42739 0.75491 0.0
H2093 H 0.50796 0.36645 0.71004 0.0
H2094 H 0.5242 0.37388 0.69185 0.0
H2095 H 0.49267 0.374 0.69148 0.0
H2096 H 0.49289 0.417 0.68152 0.0
H2097 H 0.52449 0.417 0.68182 0.0
H2098 H 0.50847 0.4388 0.69318 0.0
H2099 H 0.52968 0.42769 0.75536 0.0
H2100 H 0.57232 0.4217 0.75082 0.0
H2101 H 0.55795 0.39927 0.70114 0.0
C2102 C 0.46387 0.40583 0.71191 0.0
C2103 C 0.44707 0.40993 0.72428 0.0
C2104 C 0.45465 0.41817 0.73975 0.0
C2105 C 0.47869 0.42169 0.74294 0.0
C2106 C 0.49485 0.41699 0.73052 0.0
C2107 C 0.48764 0.40933 0.71529 0.0
C2108 C 0.50827 0.40392 0.70429 0.0
C2109 C 0.50827 0.37803 0.69912 0.0
C2110 C 0.50854 0.42016 0.68932 0.0
C2111 C 0.52834 0.4093 0.71576 0.0
C2112 C 0.52042 0.41702 0.73081 0.0
C2113 C 0.53601 0.42192 0.74355 0.0
C2114 C 0.5602 0.41851 0.74087 0.0
C2115 C 0.56848 0.41013 0.72562 0.0
C2116 C 0.55225 0.40588 0.71291 0.0
H2117 H 0.95835 0.64123 0.22962 0.0
H2118 H 0.94403 0.5669 0.22731 0.0
H2119 H 0.98675 0.5588 0.22838 0.0
H2120 H 1.00628 0.64011 0.20302 0.0
H2121 H 0.02257 0.66255 0.21354 0.0
H2122 H 0.99107 0.66216 0.21469 0.0
H2123 H 0.99321 0.66123 0.24634 0.0
H2124 H 0.02477 0.66176 0.2453 0.0
H2125 H 0.0101 0.63875 0.25632 0.0
H2126 H 0.03195 0.55935 0.22788 0.0
H2127 H 0.07432 0.56856 0.2251 0.0
H2128 H 0.05797 0.64254 0.22662 0.0
C2129 C 0.96412 0.62319 0.22975 0.0
C2130 C 0.94779 0.60466 0.22863 0.0
C2131 C 0.95619 0.58136 0.22837 0.0
C2132 C 0.98044 0.57662 0.22895 0.0
C2133 C 0.99609 0.59537 0.2297 0.0
C2134 C 0.98817 0.61821 0.23011 0.0
C2135 C 0.00836 0.63538 0.22962 0.0
C2136 C 1.00698 0.65096 0.21431 0.0
C2137 C 0.00915 0.65015 0.24534 0.0
C2138 C 0.02896 0.61874 0.22871 0.0
C2139 C 0.02167 0.59571 0.22894 0.0
C2140 C 0.03778 0.57735 0.2278 0.0
C2141 C 0.06182 0.58272 0.22623 0.0
C2142 C 0.0695 0.60625 0.22565 0.0
C2143 C 0.05273 0.62435 0.22706 0.0
loop_
_geom_bond_atom_site_label_1
_geom_bond_atom_site_label_2
_geom_bond_distance
_geom_bond_site_symmetry_2
_ccdc_geom_bond_type
In0 O1 2.294 . S
In0 O2 2.326 . S
In0 O6 2.266 . S
In0 O7 2.326 . S
In0 O8 2.266 . S
In0 O9 2.326 . S
In0 O11 2.294 . S
In0 O12 2.326 . S
O1 In0 2.294 . S
O1 C10 1.240 . S
O2 In0 2.326 . S
O2 C10 1.252 . S
C3 O6 1.252 . S
C3 O7 1.260 . S
C4 O11 1.240 . S
C4 O12 1.252 . S
C5 O8 1.252 . S
C5 O9 1.260 . S
O6 In0 2.266 . S
O6 C3 1.252 . S
O7 In0 2.326 . S
O7 C3 1.260 . S
O8 In0 2.266 . S
O8 C5 1.252 . S
O9 In0 2.326 . S
O9 C5 1.260 . S
C10 O1 1.240 . S
C10 O2 1.252 . S
O11 In0 2.294 . S
O11 C4 1.240 . S
O12 In0 2.326 . S
O12 C4 1.252 . S
In13 O14 2.294 . S
In13 O15 2.326 . S
In13 O19 2.266 . S
In13 O20 2.326 . S
In13 O21 2.266 . S
In13 O22 2.326 . S
In13 O24 2.294 . S
In13 O25 2.326 . S
O14 In13 2.294 . S
O14 C23 1.240 . S
O15 In13 2.326 . S
O15 C23 1.252 . S
C16 O19 1.252 . S
C16 O20 1.260 . S
C17 O24 1.240 . S
C17 O25 1.252 . S
C18 O21 1.252 . S
C18 O22 1.260 . S
O19 In13 2.266 . S
O19 C16 1.252 . S
O20 In13 2.326 . S
O20 C16 1.260 . S
O21 In13 2.266 . S
O21 C18 1.252 . S
O22 In13 2.326 . S
O22 C18 1.260 . S
C23 O14 1.240 . S
C23 O15 1.252 . S
O24 In13 2.294 . S
O24 C17 1.240 . S
O25 In13 2.326 . S
O25 C17 1.252 . S
In26 O27 2.294 . S
In26 O28 2.326 . S
In26 O32 2.266 . S
In26 O33 2.326 . S
In26 O34 2.266 . S
In26 O35 2.326 . S
In26 O37 2.294 . S
In26 O38 2.326 . S
O27 In26 2.294 . S
O27 C36 1.240 . S
O28 In26 2.326 . S
O28 C36 1.252 . S
C29 O32 1.252 . S
C29 O33 1.260 . S
C30 O37 1.240 . S
C30 O38 1.252 . S
C31 O34 1.252 . S
C31 O35 1.260 . S
O32 In26 2.266 . S
O32 C29 1.252 . S
O33 In26 2.326 . S
O33 C29 1.260 . S
O34 In26 2.266 . S
O34 C31 1.252 . S
O35 In26 2.326 . S
O35 C31 1.260 . S
C36 O27 1.240 . S
C36 O28 1.252 . S
O37 In26 2.294 . S
O37 C30 1.240 . S
O38 In26 2.326 . S
O38 C30 1.252 . S
In39 O40 2.294 . S
In39 O41 2.326 . S
In39 O45 2.266 . S
In39 O46 2.326 . S
In39 O47 2.266 . S
In39 O48 2.326 . S
In39 O50 2.294 . S
In39 O51 2.326 . S
O40 In39 2.294 . S
O40 C49 1.240 . S
O41 In39 2.326 . S
O41 C49 1.252 . S
C42 O45 1.252 . S
C42 O46 1.260 . S
C43 O50 1.240 . S
C43 O51 1.252 . S
C44 O47 1.252 . S
C44 O48 1.260 . S
O45 In39 2.266 . S
O45 C42 1.252 . S
O46 In39 2.326 . S
O46 C42 1.260 . S
O47 In39 2.266 . S
O47 C44 1.252 . S
O48 In39 2.326 . S
O48 C44 1.260 . S
C49 O40 1.240 . S
C49 O41 1.252 . S
O50 In39 2.294 . S
O50 C43 1.240 . S
O51 In39 2.326 . S
O51 C43 1.252 . S
In52 O53 2.294 . S
In52 O54 2.326 . S
In52 O58 2.266 . S
In52 O59 2.326 . S
In52 O60 2.266 . S
In52 O61 2.326 . S
In52 O63 2.294 . S
In52 O64 2.326 . S
O53 In52 2.294 . S
O53 C62 1.240 . S
O54 In52 2.326 . S
O54 C62 1.252 . S
C55 O58 1.252 . S
C55 O59 1.260 . S
C56 O63 1.240 . S
C56 O64 1.252 . S
C57 O60 1.252 . S
C57 O61 1.260 . S
O58 In52 2.266 . S
O58 C55 1.252 . S
O59 In52 2.326 . S
O59 C55 1.260 . S
O60 In52 2.266 . S
O60 C57 1.252 . S
O61 In52 2.326 . S
O61 C57 1.260 . S
C62 O53 1.240 . S
C62 O54 1.252 . S
O63 In52 2.294 . S
O63 C56 1.240 . S
O64 In52 2.326 . S
O64 C56 1.252 . S
In65 O66 2.294 . S
In65 O67 2.326 . S
In65 O71 2.266 . S
In65 O72 2.326 . S
In65 O73 2.266 . S
In65 O74 2.326 . S
In65 O76 2.294 . S
In65 O77 2.326 . S
O66 In65 2.294 . S
O66 C75 1.240 . S
O67 In65 2.326 . S
O67 C75 1.252 . S
C68 O71 1.252 . S
C68 O72 1.260 . S
C69 O76 1.240 . S
C69 O77 1.252 . S
C70 O73 1.252 . S
C70 O74 1.260 . S
O71 In65 2.266 . S
O71 C68 1.252 . S
O72 In65 2.326 . S
O72 C68 1.260 . S
O73 In65 2.266 . S
O73 C70 1.252 . S
O74 In65 2.326 . S
O74 C70 1.260 . S
C75 O66 1.240 . S
C75 O67 1.252 . S
O76 In65 2.294 . S
O76 C69 1.240 . S
O77 In65 2.326 . S
O77 C69 1.252 . S
In78 O79 2.294 . S
In78 O80 2.326 . S
In78 O84 2.266 . S
In78 O85 2.326 . S
In78 O86 2.266 . S
In78 O87 2.326 . S
In78 O89 2.294 . S
In78 O90 2.326 . S
O79 In78 2.294 . S
O79 C88 1.240 . S
O80 In78 2.326 . S
O80 C88 1.252 . S
C81 O84 1.252 . S
C81 O85 1.260 . S
C82 O89 1.240 . S
C82 O90 1.252 . S
C83 O86 1.252 . S
C83 O87 1.260 . S
O84 In78 2.266 . S
O84 C81 1.252 . S
O85 In78 2.326 . S
O85 C81 1.260 . S
O86 In78 2.266 . S
O86 C83 1.252 . S
O87 In78 2.326 . S
O87 C83 1.260 . S
C88 O79 1.240 . S
C88 O80 1.252 . S
O89 In78 2.294 . S
O89 C82 1.240 . S
O90 In78 2.326 . S
O90 C82 1.252 . S
In91 O92 2.294 . S
In91 O93 2.326 . S
In91 O97 2.266 . S
In91 O98 2.326 . S
In91 O99 2.266 . S
In91 O100 2.326 . S
In91 O102 2.294 . S
In91 O103 2.326 . S
O92 In91 2.294 . S
O92 C101 1.240 . S
O93 In91 2.326 . S
O93 C101 1.252 . S
C94 O97 1.252 . S
C94 O98 1.260 . S
C95 O102 1.240 . S
C95 O103 1.252 . S
C96 O99 1.252 . S
C96 O100 1.260 . S
O97 In91 2.266 . S
O97 C94 1.252 . S
O98 In91 2.326 . S
O98 C94 1.260 . S
O99 In91 2.266 . S
O99 C96 1.252 . S
O100 In91 2.326 . S
O100 C96 1.260 . S
C101 O92 1.240 . S
C101 O93 1.252 . S
O102 In91 2.294 . S
O102 C95 1.240 . S
O103 In91 2.326 . S
O103 C95 1.252 . S
In104 O105 2.294 . S
In104 O106 2.326 . S
In104 O110 2.266 . S
In104 O111 2.326 . S
In104 O112 2.266 . S
In104 O113 2.326 . S
In104 O115 2.294 . S
In104 O116 2.326 . S
O105 In104 2.294 . S
O105 C114 1.240 . S
O106 In104 2.326 . S
O106 C114 1.252 . S
C107 O110 1.252 . S
C107 O111 1.260 . S
C108 O115 1.240 . S
C108 O116 1.252 . S
C109 O112 1.252 . S
C109 O113 1.260 . S
O110 In104 2.266 . S
O110 C107 1.252 . S
O111 In104 2.326 . S
O111 C107 1.260 . S
O112 In104 2.266 . S
O112 C109 1.252 . S
O113 In104 2.326 . S
O113 C109 1.260 . S
C114 O105 1.240 . S
C114 O106 1.252 . S
O115 In104 2.294 . S
O115 C108 1.240 . S
O116 In104 2.326 . S
O116 C108 1.252 . S
In117 O118 2.294 . S
In117 O119 2.326 . S
In117 O123 2.266 . S
In117 O124 2.326 . S
In117 O125 2.266 . S
In117 O126 2.326 . S
In117 O128 2.294 . S
In117 O129 2.326 . S
O118 In117 2.294 . S
O118 C127 1.240 . S
O119 In117 2.326 . S
O119 C127 1.252 . S
C120 O123 1.252 . S
C120 O124 1.260 . S
C121 O128 1.240 . S
C121 O129 1.252 . S
C122 O125 1.252 . S
C122 O126 1.260 . S
O123 In117 2.266 . S
O123 C120 1.252 . S
O124 In117 2.326 . S
O124 C120 1.260 . S
O125 In117 2.266 . S
O125 C122 1.252 . S
O126 In117 2.326 . S
O126 C122 1.260 . S
C127 O118 1.240 . S
C127 O119 1.252 . S
O128 In117 2.294 . S
O128 C121 1.240 . S
O129 In117 2.326 . S
O129 C121 1.252 . S
In130 O131 2.294 . S
In130 O132 2.326 . S
In130 O136 2.266 . S
In130 O137 2.326 . S
In130 O138 2.266 . S
In130 O139 2.326 . S
In130 O141 2.294 . S
In130 O142 2.326 . S
O131 In130 2.294 . S
O131 C140 1.240 . S
O132 In130 2.326 . S
O132 C140 1.252 . S
C133 O136 1.252 . S
C133 O137 1.260 . S
C134 O141 1.240 . S
C134 O142 1.252 . S
C135 O138 1.252 . S
C135 O139 1.260 . S
O136 In130 2.266 . S
O136 C133 1.252 . S
O137 In130 2.326 . S
O137 C133 1.260 . S
O138 In130 2.266 . S
O138 C135 1.252 . S
O139 In130 2.326 . S
O139 C135 1.260 . S
C140 O131 1.240 . S
C140 O132 1.252 . S
O141 In130 2.294 . S
O141 C134 1.240 . S
O142 In130 2.326 . S
O142 C134 1.252 . S
In143 O144 2.294 . S
In143 O145 2.326 . S
In143 O149 2.266 . S
In143 O150 2.326 . S
In143 O151 2.266 . S
In143 O152 2.326 . S
In143 O154 2.294 . S
In143 O155 2.326 . S
O144 In143 2.294 . S
O144 C153 1.240 . S
O145 In143 2.326 . S
O145 C153 1.252 . S
C146 O149 1.252 . S
C146 O150 1.260 . S
C147 O154 1.240 . S
C147 O155 1.252 . S
C148 O151 1.252 . S
C148 O152 1.260 . S
O149 In143 2.266 . S
O149 C146 1.252 . S
O150 In143 2.326 . S
O150 C146 1.260 . S
O151 In143 2.266 . S
O151 C148 1.252 . S
O152 In143 2.326 . S
O152 C148 1.260 . S
C153 O144 1.240 . S
C153 O145 1.252 . S
O154 In143 2.294 . S
O154 C147 1.240 . S
O155 In143 2.326 . S
O155 C147 1.252 . S
In156 O157 2.294 . S
In156 O158 2.326 . S
In156 O162 2.266 . S
In156 O163 2.326 . S
In156 O164 2.266 . S
In156 O165 2.326 . S
In156 O167 2.294 . S
In156 O168 2.326 . S
O157 In156 2.294 . S
O157 C166 1.240 . S
O158 In156 2.326 . S
O158 C166 1.252 . S
C159 O162 1.252 . S
C159 O163 1.260 . S
C160 O167 1.240 . S
C160 O168 1.252 . S
C161 O164 1.252 . S
C161 O165 1.260 . S
O162 In156 2.266 . S
O162 C159 1.252 . S
O163 In156 2.326 . S
O163 C159 1.260 . S
O164 In156 2.266 . S
O164 C161 1.252 . S
O165 In156 2.326 . S
O165 C161 1.260 . S
C166 O157 1.240 . S
C166 O158 1.252 . S
O167 In156 2.294 . S
O167 C160 1.240 . S
O168 In156 2.326 . S
O168 C160 1.252 . S
In169 O170 2.294 . S
In169 O171 2.326 . S
In169 O175 2.266 . S
In169 O176 2.326 . S
In169 O177 2.266 . S
In169 O178 2.326 . S
In169 O180 2.294 . S
In169 O181 2.326 . S
O170 In169 2.294 . S
O170 C179 1.240 . S
O171 In169 2.326 . S
O171 C179 1.252 . S
C172 O175 1.252 . S
C172 O176 1.260 . S
C173 O180 1.240 . S
C173 O181 1.252 . S
C174 O177 1.252 . S
C174 O178 1.260 . S
O175 In169 2.266 . S
O175 C172 1.252 . S
O176 In169 2.326 . S
O176 C172 1.260 . S
O177 In169 2.266 . S
O177 C174 1.252 . S
O178 In169 2.326 . S
O178 C174 1.260 . S
C179 O170 1.240 . S
C179 O171 1.252 . S
O180 In169 2.294 . S
O180 C173 1.240 . S
O181 In169 2.326 . S
O181 C173 1.252 . S
In182 O183 2.294 . S
In182 O184 2.326 . S
In182 O188 2.266 . S
In182 O189 2.326 . S
In182 O190 2.266 . S
In182 O191 2.326 . S
In182 O193 2.294 . S
In182 O194 2.326 . S
O183 In182 2.294 . S
O183 C192 1.240 . S
O184 In182 2.326 . S
O184 C192 1.252 . S
C185 O188 1.252 . S
C185 O189 1.260 . S
C186 O193 1.240 . S
C186 O194 1.252 . S
C187 O190 1.252 . S
C187 O191 1.260 . S
O188 In182 2.266 . S
O188 C185 1.252 . S
O189 In182 2.326 . S
O189 C185 1.260 . S
O190 In182 2.266 . S
O190 C187 1.252 . S
O191 In182 2.326 . S
O191 C187 1.260 . S
C192 O183 1.240 . S
C192 O184 1.252 . S
O193 In182 2.294 . S
O193 C186 1.240 . S
O194 In182 2.326 . S
O194 C186 1.252 . S
In195 O196 2.294 . S
In195 O197 2.326 . S
In195 O201 2.266 . S
In195 O202 2.326 . S
In195 O203 2.266 . S
In195 O204 2.326 . S
In195 O206 2.294 . S
In195 O207 2.326 . S
O196 In195 2.294 . S
O196 C205 1.240 . S
O197 In195 2.326 . S
O197 C205 1.252 . S
C198 O201 1.252 . S
C198 O202 1.260 . S
C199 O206 1.240 . S
C199 O207 1.252 . S
C200 O203 1.252 . S
C200 O204 1.260 . S
O201 In195 2.266 . S
O201 C198 1.252 . S
O202 In195 2.326 . S
O202 C198 1.260 . S
O203 In195 2.266 . S
O203 C200 1.252 . S
O204 In195 2.326 . S
O204 C200 1.260 . S
C205 O196 1.240 . S
C205 O197 1.252 . S
O206 In195 2.294 . S
O206 C199 1.240 . S
O207 In195 2.326 . S
O207 C199 1.252 . S
In208 O209 2.294 . S
In208 O210 2.326 . S
In208 O214 2.266 . S
In208 O215 2.326 . S
In208 O216 2.266 . S
In208 O217 2.326 . S
In208 O219 2.294 . S
In208 O220 2.326 . S
O209 In208 2.294 . S
O209 C218 1.240 . S
O210 In208 2.326 . S
O210 C218 1.252 . S
C211 O214 1.252 . S
C211 O215 1.260 . S
C212 O219 1.240 . S
C212 O220 1.252 . S
C213 O216 1.252 . S
C213 O217 1.260 . S
O214 In208 2.266 . S
O214 C211 1.252 . S
O215 In208 2.326 . S
O215 C211 1.260 . S
O216 In208 2.266 . S
O216 C213 1.252 . S
O217 In208 2.326 . S
O217 C213 1.260 . S
C218 O209 1.240 . S
C218 O210 1.252 . S
O219 In208 2.294 . S
O219 C212 1.240 . S
O220 In208 2.326 . S
O220 C212 1.252 . S
In221 O222 2.294 . S
In221 O223 2.326 . S
In221 O227 2.266 . S
In221 O228 2.326 . S
In221 O229 2.266 . S
In221 O230 2.326 . S
In221 O232 2.294 . S
In221 O233 2.326 . S
O222 In221 2.294 . S
O222 C231 1.240 . S
O223 In221 2.326 . S
O223 C231 1.252 . S
C224 O227 1.252 . S
C224 O228 1.260 . S
C225 O232 1.240 . S
C225 O233 1.252 . S
C226 O229 1.252 . S
C226 O230 1.260 . S
O227 In221 2.266 . S
O227 C224 1.252 . S
O228 In221 2.326 . S
O228 C224 1.260 . S
O229 In221 2.266 . S
O229 C226 1.252 . S
O230 In221 2.326 . S
O230 C226 1.260 . S
C231 O222 1.240 . S
C231 O223 1.252 . S
O232 In221 2.294 . S
O232 C225 1.240 . S
O233 In221 2.326 . S
O233 C225 1.252 . S
In234 O235 2.294 . S
In234 O236 2.326 . S
In234 O240 2.266 . S
In234 O241 2.326 . S
In234 O242 2.266 . S
In234 O243 2.326 . S
In234 O245 2.294 . S
In234 O246 2.326 . S
O235 In234 2.294 . S
O235 C244 1.240 . S
O236 In234 2.326 . S
O236 C244 1.252 . S
C237 O240 1.252 . S
C237 O241 1.260 . S
C238 O245 1.240 . S
C238 O246 1.252 . S
C239 O242 1.252 . S
C239 O243 1.260 . S
O240 In234 2.266 . S
O240 C237 1.252 . S
O241 In234 2.326 . S
O241 C237 1.260 . S
O242 In234 2.266 . S
O242 C239 1.252 . S
O243 In234 2.326 . S
O243 C239 1.260 . S
C244 O235 1.240 . S
C244 O236 1.252 . S
O245 In234 2.294 . S
O245 C238 1.240 . S
O246 In234 2.326 . S
O246 C238 1.252 . S
In247 O248 2.294 . S
In247 O249 2.326 . S
In247 O253 2.266 . S
In247 O254 2.326 . S
In247 O255 2.266 . S
In247 O256 2.326 . S
In247 O258 2.294 . S
In247 O259 2.326 . S
O248 In247 2.294 . S
O248 C257 1.240 . S
O249 In247 2.326 . S
O249 C257 1.252 . S
C250 O253 1.252 . S
C250 O254 1.260 . S
C251 O258 1.240 . S
C251 O259 1.252 . S
C252 O255 1.252 . S
C252 O256 1.260 . S
O253 In247 2.266 . S
O253 C250 1.252 . S
O254 In247 2.326 . S
O254 C250 1.260 . S
O255 In247 2.266 . S
O255 C252 1.252 . S
O256 In247 2.326 . S
O256 C252 1.260 . S
C257 O248 1.240 . S
C257 O249 1.252 . S
O258 In247 2.294 . S
O258 C251 1.240 . S
O259 In247 2.326 . S
O259 C251 1.252 . S
In260 O261 2.294 . S
In260 O262 2.326 . S
In260 O266 2.266 . S
In260 O267 2.326 . S
In260 O268 2.266 . S
In260 O269 2.326 . S
In260 O271 2.294 . S
In260 O272 2.326 . S
O261 In260 2.294 . S
O261 C270 1.240 . S
O262 In260 2.326 . S
O262 C270 1.252 . S
C263 O266 1.252 . S
C263 O267 1.260 . S
C264 O271 1.240 . S
C264 O272 1.252 . S
C265 O268 1.252 . S
C265 O269 1.260 . S
O266 In260 2.266 . S
O266 C263 1.252 . S
O267 In260 2.326 . S
O267 C263 1.260 . S
O268 In260 2.266 . S
O268 C265 1.252 . S
O269 In260 2.326 . S
O269 C265 1.260 . S
C270 O261 1.240 . S
C270 O262 1.252 . S
O271 In260 2.294 . S
O271 C264 1.240 . S
O272 In260 2.326 . S
O272 C264 1.252 . S
In273 O274 2.294 . S
In273 O275 2.326 . S
In273 O279 2.266 . S
In273 O280 2.326 . S
In273 O281 2.266 . S
In273 O282 2.326 . S
In273 O284 2.294 . S
In273 O285 2.326 . S
O274 In273 2.294 . S
O274 C283 1.240 . S
O275 In273 2.326 . S
O275 C283 1.252 . S
C276 O279 1.252 . S
C276 O280 1.260 . S
C277 O284 1.240 . S
C277 O285 1.252 . S
C278 O281 1.252 . S
C278 O282 1.260 . S
O279 In273 2.266 . S
O279 C276 1.252 . S
O280 In273 2.326 . S
O280 C276 1.260 . S
O281 In273 2.266 . S
O281 C278 1.252 . S
O282 In273 2.326 . S
O282 C278 1.260 . S
C283 O274 1.240 . S
C283 O275 1.252 . S
O284 In273 2.294 . S
O284 C277 1.240 . S
O285 In273 2.326 . S
O285 C277 1.252 . S
In286 O287 2.294 . S
In286 O288 2.326 . S
In286 O292 2.266 . S
In286 O293 2.326 . S
In286 O294 2.266 . S
In286 O295 2.326 . S
In286 O297 2.294 . S
In286 O298 2.326 . S
O287 In286 2.294 . S
O287 C296 1.240 . S
O288 In286 2.326 . S
O288 C296 1.252 . S
C289 O292 1.252 . S
C289 O293 1.260 . S
C290 O297 1.240 . S
C290 O298 1.252 . S
C291 O294 1.252 . S
C291 O295 1.260 . S
O292 In286 2.266 . S
O292 C289 1.252 . S
O293 In286 2.326 . S
O293 C289 1.260 . S
O294 In286 2.266 . S
O294 C291 1.252 . S
O295 In286 2.326 . S
O295 C291 1.260 . S
C296 O287 1.240 . S
C296 O288 1.252 . S
O297 In286 2.294 . S
O297 C290 1.240 . S
O298 In286 2.326 . S
O298 C290 1.252 . S
In299 O300 2.294 . S
In299 O301 2.326 . S
In299 O305 2.266 . S
In299 O306 2.326 . S
In299 O307 2.266 . S
In299 O308 2.326 . S
In299 O310 2.294 . S
In299 O311 2.326 . S
O300 In299 2.294 . S
O300 C309 1.240 . S
O301 In299 2.326 . S
O301 C309 1.252 . S
C302 O305 1.252 . S
C302 O306 1.260 . S
C303 O310 1.240 . S
C303 O311 1.252 . S
C304 O307 1.252 . S
C304 O308 1.260 . S
O305 In299 2.266 . S
O305 C302 1.252 . S
O306 In299 2.326 . S
O306 C302 1.260 . S
O307 In299 2.266 . S
O307 C304 1.252 . S
O308 In299 2.326 . S
O308 C304 1.260 . S
C309 O300 1.240 . S
C309 O301 1.252 . S
O310 In299 2.294 . S
O310 C303 1.240 . S
O311 In299 2.326 . S
O311 C303 1.252 . S
In312 O313 2.294 . S
In312 O314 2.326 . S
In312 O318 2.266 . S
In312 O319 2.326 . S
In312 O320 2.266 . S
In312 O321 2.326 . S
In312 O323 2.294 . S
In312 O324 2.326 . S
O313 In312 2.294 . S
O313 C322 1.240 . S
O314 In312 2.326 . S
O314 C322 1.252 . S
C315 O318 1.252 . S
C315 O319 1.260 . S
C316 O323 1.240 . S
C316 O324 1.252 . S
C317 O320 1.252 . S
C317 O321 1.260 . S
O318 In312 2.266 . S
O318 C315 1.252 . S
O319 In312 2.326 . S
O319 C315 1.260 . S
O320 In312 2.266 . S
O320 C317 1.252 . S
O321 In312 2.326 . S
O321 C317 1.260 . S
C322 O313 1.240 . S
C322 O314 1.252 . S
O323 In312 2.294 . S
O323 C316 1.240 . S
O324 In312 2.326 . S
O324 C316 1.252 . S
In325 O326 2.294 . S
In325 O327 2.326 . S
In325 O331 2.266 . S
In325 O332 2.326 . S
In325 O333 2.266 . S
In325 O334 2.326 . S
In325 O336 2.294 . S
In325 O337 2.326 . S
O326 In325 2.294 . S
O326 C335 1.240 . S
O327 In325 2.326 . S
O327 C335 1.252 . S
C328 O331 1.252 . S
C328 O332 1.260 . S
C329 O336 1.240 . S
C329 O337 1.252 . S
C330 O333 1.252 . S
C330 O334 1.260 . S
O331 In325 2.266 . S
O331 C328 1.252 . S
O332 In325 2.326 . S
O332 C328 1.260 . S
O333 In325 2.266 . S
O333 C330 1.252 . S
O334 In325 2.326 . S
O334 C330 1.260 . S
C335 O326 1.240 . S
C335 O327 1.252 . S
O336 In325 2.294 . S
O336 C329 1.240 . S
O337 In325 2.326 . S
O337 C329 1.252 . S
In338 O339 2.294 . S
In338 O340 2.326 . S
In338 O344 2.266 . S
In338 O345 2.326 . S
In338 O346 2.266 . S
In338 O347 2.326 . S
In338 O349 2.294 . S
In338 O350 2.326 . S
O339 In338 2.294 . S
O339 C348 1.240 . S
O340 In338 2.326 . S
O340 C348 1.252 . S
C341 O344 1.252 . S
C341 O345 1.260 . S
C342 O349 1.240 . S
C342 O350 1.252 . S
C343 O346 1.252 . S
C343 O347 1.260 . S
O344 In338 2.266 . S
O344 C341 1.252 . S
O345 In338 2.326 . S
O345 C341 1.260 . S
O346 In338 2.266 . S
O346 C343 1.252 . S
O347 In338 2.326 . S
O347 C343 1.260 . S
C348 O339 1.240 . S
C348 O340 1.252 . S
O349 In338 2.294 . S
O349 C342 1.240 . S
O350 In338 2.326 . S
O350 C342 1.252 . S
In351 O352 2.294 . S
In351 O353 2.326 . S
In351 O357 2.266 . S
In351 O358 2.326 . S
In351 O359 2.266 . S
In351 O360 2.326 . S
In351 O362 2.294 . S
In351 O363 2.326 . S
O352 In351 2.294 . S
O352 C361 1.240 . S
O353 In351 2.326 . S
O353 C361 1.252 . S
C354 O357 1.252 . S
C354 O358 1.260 . S
C355 O362 1.240 . S
C355 O363 1.252 . S
C356 O359 1.252 . S
C356 O360 1.260 . S
O357 In351 2.266 . S
O357 C354 1.252 . S
O358 In351 2.326 . S
O358 C354 1.260 . S
O359 In351 2.266 . S
O359 C356 1.252 . S
O360 In351 2.326 . S
O360 C356 1.260 . S
C361 O352 1.240 . S
C361 O353 1.252 . S
O362 In351 2.294 . S
O362 C355 1.240 . S
O363 In351 2.326 . S
O363 C355 1.252 . S
In364 O365 2.294 . S
In364 O366 2.326 . S
In364 O370 2.266 . S
In364 O371 2.326 . S
In364 O372 2.266 . S
In364 O373 2.326 . S
In364 O375 2.294 . S
In364 O376 2.326 . S
O365 In364 2.294 . S
O365 C374 1.240 . S
O366 In364 2.326 . S
O366 C374 1.252 . S
C367 O370 1.252 . S
C367 O371 1.260 . S
C368 O375 1.240 . S
C368 O376 1.252 . S
C369 O372 1.252 . S
C369 O373 1.260 . S
O370 In364 2.266 . S
O370 C367 1.252 . S
O371 In364 2.326 . S
O371 C367 1.260 . S
O372 In364 2.266 . S
O372 C369 1.252 . S
O373 In364 2.326 . S
O373 C369 1.260 . S
C374 O365 1.240 . S
C374 O366 1.252 . S
O375 In364 2.294 . S
O375 C368 1.240 . S
O376 In364 2.326 . S
O376 C368 1.252 . S
In377 O378 2.294 . S
In377 O379 2.326 . S
In377 O383 2.266 . S
In377 O384 2.326 . S
In377 O385 2.266 . S
In377 O386 2.326 . S
In377 O388 2.294 . S
In377 O389 2.326 . S
O378 In377 2.294 . S
O378 C387 1.240 . S
O379 In377 2.326 . S
O379 C387 1.252 . S
C380 O383 1.252 . S
C380 O384 1.260 . S
C381 O388 1.240 . S
C381 O389 1.252 . S
C382 O385 1.252 . S
C382 O386 1.260 . S
O383 In377 2.266 . S
O383 C380 1.252 . S
O384 In377 2.326 . S
O384 C380 1.260 . S
O385 In377 2.266 . S
O385 C382 1.252 . S
O386 In377 2.326 . S
O386 C382 1.260 . S
C387 O378 1.240 . S
C387 O379 1.252 . S
O388 In377 2.294 . S
O388 C381 1.240 . S
O389 In377 2.326 . S
O389 C381 1.252 . S
In390 O391 2.294 . S
In390 O392 2.326 . S
In390 O396 2.266 . S
In390 O397 2.326 . S
In390 O398 2.266 . S
In390 O399 2.326 . S
In390 O401 2.294 . S
In390 O402 2.326 . S
O391 In390 2.294 . S
O391 C400 1.240 . S
O392 In390 2.326 . S
O392 C400 1.252 . S
C393 O396 1.252 . S
C393 O397 1.260 . S
C394 O401 1.240 . S
C394 O402 1.252 . S
C395 O398 1.252 . S
C395 O399 1.260 . S
O396 In390 2.266 . S
O396 C393 1.252 . S
O397 In390 2.326 . S
O397 C393 1.260 . S
O398 In390 2.266 . S
O398 C395 1.252 . S
O399 In390 2.326 . S
O399 C395 1.260 . S
C400 O391 1.240 . S
C400 O392 1.252 . S
O401 In390 2.294 . S
O401 C394 1.240 . S
O402 In390 2.326 . S
O402 C394 1.252 . S
In403 O404 2.294 . S
In403 O405 2.326 . S
In403 O409 2.266 . S
In403 O410 2.326 . S
In403 O411 2.266 . S
In403 O412 2.326 . S
In403 O414 2.294 . S
In403 O415 2.326 . S
O404 In403 2.294 . S
O404 C413 1.240 . S
O405 In403 2.326 . S
O405 C413 1.252 . S
C406 O409 1.252 . S
C406 O410 1.260 . S
C407 O414 1.240 . S
C407 O415 1.252 . S
C408 O411 1.252 . S
C408 O412 1.260 . S
O409 In403 2.266 . S
O409 C406 1.252 . S
O410 In403 2.326 . S
O410 C406 1.260 . S
O411 In403 2.266 . S
O411 C408 1.252 . S
O412 In403 2.326 . S
O412 C408 1.260 . S
C413 O404 1.240 . S
C413 O405 1.252 . S
O414 In403 2.294 . S
O414 C407 1.240 . S
O415 In403 2.326 . S
O415 C407 1.252 . S
H416 C428 0.930 . S
H417 C430 0.930 . S
H418 C431 0.930 . S
H419 C435 0.959 . S
H420 C435 0.959 . S
H421 C435 0.961 . S
H422 C436 0.960 . S
H423 C436 0.961 . S
H424 C436 0.959 . S
H425 C439 0.929 . S
H426 C440 0.931 . S
H427 C442 0.930 . S
C428 H416 0.930 . S
C428 C429 1.399 . S
C428 C433 1.399 . S
C429 C428 1.399 . S
C429 C430 1.376 . S
C430 H417 0.930 . S
C430 C429 1.376 . S
C430 C431 1.388 . S
C431 H418 0.930 . S
C431 C430 1.388 . S
C431 C432 1.390 . S
C432 C431 1.390 . S
C432 C433 1.394 . S
C432 C438 1.465 . S
C433 C428 1.399 . S
C433 C432 1.394 . S
C433 C434 1.516 . S
C434 C433 1.516 . S
C434 C435 1.502 . S
C434 C436 1.561 . S
C434 C437 1.526 . S
C435 H419 0.959 . S
C435 H420 0.959 . S
C435 H421 0.961 . S
C435 C434 1.502 . S
C436 H422 0.960 . S
C436 H423 0.961 . S
C436 H424 0.959 . S
C436 C434 1.561 . S
C437 C434 1.526 . S
C437 C438 1.396 . S
C437 C442 1.390 . S
C438 C432 1.465 . S
C438 C437 1.396 . S
C438 C439 1.399 . S
C439 H425 0.929 . S
C439 C438 1.399 . S
C439 C440 1.385 . S
C440 H426 0.931 . S
C440 C439 1.385 . S
C440 C441 1.389 . S
C441 C440 1.389 . S
C441 C442 1.387 . S
C442 H427 0.930 . S
C442 C437 1.390 . S
C442 C441 1.387 . S
H443 C455 0.930 . S
H444 C457 0.930 . S
H445 C458 0.930 . S
H446 C462 0.959 . S
H447 C462 0.959 . S
H448 C462 0.961 . S
H449 C463 0.960 . S
H450 C463 0.961 . S
H451 C463 0.959 . S
H452 C466 0.929 . S
H453 C467 0.931 . S
H454 C469 0.930 . S
C455 H443 0.930 . S
C455 C456 1.399 . S
C455 C460 1.399 . S
C456 C455 1.399 . S
C456 C457 1.376 . S
C457 H444 0.930 . S
C457 C456 1.376 . S
C457 C458 1.388 . S
C458 H445 0.930 . S
C458 C457 1.388 . S
C458 C459 1.390 . S
C459 C458 1.390 . S
C459 C460 1.394 . S
C459 C465 1.465 . S
C460 C455 1.399 . S
C460 C459 1.394 . S
C460 C461 1.516 . S
C461 C460 1.516 . S
C461 C462 1.502 . S
C461 C463 1.561 . S
C461 C464 1.526 . S
C462 H446 0.959 . S
C462 H447 0.959 . S
C462 H448 0.961 . S
C462 C461 1.502 . S
C463 H449 0.960 . S
C463 H450 0.961 . S
C463 H451 0.959 . S
C463 C461 1.561 . S
C464 C461 1.526 . S
C464 C465 1.396 . S
C464 C469 1.390 . S
C465 C459 1.465 . S
C465 C464 1.396 . S
C465 C466 1.399 . S
C466 H452 0.929 . S
C466 C465 1.399 . S
C466 C467 1.385 . S
C467 H453 0.931 . S
C467 C466 1.385 . S
C467 C468 1.389 . S
C468 C467 1.389 . S
C468 C469 1.387 . S
C469 H454 0.930 . S
C469 C464 1.390 . S
C469 C468 1.387 . S
H470 C482 0.930 . S
H471 C484 0.930 . S
H472 C485 0.930 . S
H473 C489 0.959 . S
H474 C489 0.959 . S
H475 C489 0.961 . S
H476 C490 0.960 . S
H477 C490 0.961 . S
H478 C490 0.959 . S
H479 C493 0.929 . S
H480 C494 0.931 . S
H481 C496 0.930 . S
C482 H470 0.930 . S
C482 C483 1.399 . S
C482 C487 1.399 . S
C483 C482 1.399 . S
C483 C484 1.376 . S
C484 H471 0.930 . S
C484 C483 1.376 . S
C484 C485 1.388 . S
C485 H472 0.930 . S
C485 C484 1.388 . S
C485 C486 1.390 . S
C486 C485 1.390 . S
C486 C487 1.394 . S
C486 C492 1.465 . S
C487 C482 1.399 . S
C487 C486 1.394 . S
C487 C488 1.516 . S
C488 C487 1.516 . S
C488 C489 1.502 . S
C488 C490 1.561 . S
C488 C491 1.526 . S
C489 H473 0.959 . S
C489 H474 0.959 . S
C489 H475 0.961 . S
C489 C488 1.502 . S
C490 H476 0.960 . S
C490 H477 0.961 . S
C490 H478 0.959 . S
C490 C488 1.561 . S
C491 C488 1.526 . S
C491 C492 1.396 . S
C491 C496 1.390 . S
C492 C486 1.465 . S
C492 C491 1.396 . S
C492 C493 1.399 . S
C493 H479 0.929 . S
C493 C492 1.399 . S
C493 C494 1.385 . S
C494 H480 0.931 . S
C494 C493 1.385 . S
C494 C495 1.389 . S
C495 C494 1.389 . S
C495 C496 1.387 . S
C496 H481 0.930 . S
C496 C491 1.390 . S
C496 C495 1.387 . S
H497 C509 0.930 . S
H498 C511 0.930 . S
H499 C512 0.930 . S
H500 C516 0.959 . S
H501 C516 0.959 . S
H502 C516 0.961 . S
H503 C517 0.960 . S
H504 C517 0.961 . S
H505 C517 0.959 . S
H506 C520 0.929 . S
H507 C521 0.931 . S
H508 C523 0.930 . S
C509 H497 0.930 . S
C509 C510 1.399 . S
C509 C514 1.399 . S
C510 C509 1.399 . S
C510 C511 1.376 . S
C511 H498 0.930 . S
C511 C510 1.376 . S
C511 C512 1.388 . S
C512 H499 0.930 . S
C512 C511 1.388 . S
C512 C513 1.390 . S
C513 C512 1.390 . S
C513 C514 1.394 . S
C513 C519 1.465 . S
C514 C509 1.399 . S
C514 C513 1.394 . S
C514 C515 1.516 . S
C515 C514 1.516 . S
C515 C516 1.502 . S
C515 C517 1.561 . S
C515 C518 1.526 . S
C516 H500 0.959 . S
C516 H501 0.959 . S
C516 H502 0.961 . S
C516 C515 1.502 . S
C517 H503 0.960 . S
C517 H504 0.961 . S
C517 H505 0.959 . S
C517 C515 1.561 . S
C518 C515 1.526 . S
C518 C519 1.396 . S
C518 C523 1.390 . S
C519 C513 1.465 . S
C519 C518 1.396 . S
C519 C520 1.399 . S
C520 H506 0.929 . S
C520 C519 1.399 . S
C520 C521 1.385 . S
C521 H507 0.931 . S
C521 C520 1.385 . S
C521 C522 1.389 . S
C522 C521 1.389 . S
C522 C523 1.387 . S
C523 H508 0.930 . S
C523 C518 1.390 . S
C523 C522 1.387 . S
H524 C536 0.930 . S
H525 C538 0.930 . S
H526 C539 0.930 . S
H527 C543 0.959 . S
H528 C543 0.959 . S
H529 C543 0.961 . S
H530 C544 0.960 . S
H531 C544 0.961 . S
H532 C544 0.959 . S
H533 C547 0.929 . S
H534 C548 0.931 . S
H535 C550 0.930 . S
C536 H524 0.930 . S
C536 C537 1.399 . S
C536 C541 1.399 . S
C537 C536 1.399 . S
C537 C538 1.376 . S
C538 H525 0.930 . S
C538 C537 1.376 . S
C538 C539 1.388 . S
C539 H526 0.930 . S
C539 C538 1.388 . S
C539 C540 1.390 . S
C540 C539 1.390 . S
C540 C541 1.394 . S
C540 C546 1.465 . S
C541 C536 1.399 . S
C541 C540 1.394 . S
C541 C542 1.516 . S
C542 C541 1.516 . S
C542 C543 1.502 . S
C542 C544 1.561 . S
C542 C545 1.526 . S
C543 H527 0.959 . S
C543 H528 0.959 . S
C543 H529 0.961 . S
C543 C542 1.502 . S
C544 H530 0.960 . S
C544 H531 0.961 . S
C544 H532 0.959 . S
C544 C542 1.561 . S
C545 C542 1.526 . S
C545 C546 1.396 . S
C545 C550 1.390 . S
C546 C540 1.465 . S
C546 C545 1.396 . S
C546 C547 1.399 . S
C547 H533 0.929 . S
C547 C546 1.399 . S
C547 C548 1.385 . S
C548 H534 0.931 . S
C548 C547 1.385 . S
C548 C549 1.389 . S
C549 C548 1.389 . S
C549 C550 1.387 . S
C550 H535 0.930 . S
C550 C545 1.390 . S
C550 C549 1.387 . S
H551 C563 0.930 . S
H552 C565 0.930 . S
H553 C566 0.930 . S
H554 C570 0.959 . S
H555 C570 0.959 . S
H556 C570 0.961 . S
H557 C571 0.960 . S
H558 C571 0.961 . S
H559 C571 0.959 . S
H560 C574 0.929 . S
H561 C575 0.931 . S
H562 C577 0.930 . S
C563 H551 0.930 . S
C563 C564 1.399 . S
C563 C568 1.399 . S
C564 C563 1.399 . S
C564 C565 1.376 . S
C565 H552 0.930 . S
C565 C564 1.376 . S
C565 C566 1.388 . S
C566 H553 0.930 . S
C566 C565 1.388 . S
C566 C567 1.390 . S
C567 C566 1.390 . S
C567 C568 1.394 . S
C567 C573 1.465 . S
C568 C563 1.399 . S
C568 C567 1.394 . S
C568 C569 1.516 . S
C569 C568 1.516 . S
C569 C570 1.502 . S
C569 C571 1.561 . S
C569 C572 1.526 . S
C570 H554 0.959 . S
C570 H555 0.959 . S
C570 H556 0.961 . S
C570 C569 1.502 . S
C571 H557 0.960 . S
C571 H558 0.961 . S
C571 H559 0.959 . S
C571 C569 1.561 . S
C572 C569 1.526 . S
C572 C573 1.396 . S
C572 C577 1.390 . S
C573 C567 1.465 . S
C573 C572 1.396 . S
C573 C574 1.399 . S
C574 H560 0.929 . S
C574 C573 1.399 . S
C574 C575 1.385 . S
C575 H561 0.931 . S
C575 C574 1.385 . S
C575 C576 1.389 . S
C576 C575 1.389 . S
C576 C577 1.387 . S
C577 H562 0.930 . S
C577 C572 1.390 . S
C577 C576 1.387 . S
H578 C590 0.930 . S
H579 C592 0.930 . S
H580 C593 0.930 . S
H581 C597 0.959 . S
H582 C597 0.959 . S
H583 C597 0.961 . S
H584 C598 0.960 . S
H585 C598 0.961 . S
H586 C598 0.959 . S
H587 C601 0.929 . S
H588 C602 0.931 . S
H589 C604 0.930 . S
C590 H578 0.930 . S
C590 C591 1.399 . S
C590 C595 1.399 . S
C591 C590 1.399 . S
C591 C592 1.376 . S
C592 H579 0.930 . S
C592 C591 1.376 . S
C592 C593 1.388 . S
C593 H580 0.930 . S
C593 C592 1.388 . S
C593 C594 1.390 . S
C594 C593 1.390 . S
C594 C595 1.394 . S
C594 C600 1.465 . S
C595 C590 1.399 . S
C595 C594 1.394 . S
C595 C596 1.516 . S
C596 C595 1.516 . S
C596 C597 1.502 . S
C596 C598 1.561 . S
C596 C599 1.526 . S
C597 H581 0.959 . S
C597 H582 0.959 . S
C597 H583 0.961 . S
C597 C596 1.502 . S
C598 H584 0.960 . S
C598 H585 0.961 . S
C598 H586 0.959 . S
C598 C596 1.561 . S
C599 C596 1.526 . S
C599 C600 1.396 . S
C599 C604 1.390 . S
C600 C594 1.465 . S
C600 C599 1.396 . S
C600 C601 1.399 . S
C601 H587 0.929 . S
C601 C600 1.399 . S
C601 C602 1.385 . S
C602 H588 0.931 . S
C602 C601 1.385 . S
C602 C603 1.389 . S
C603 C602 1.389 . S
C603 C604 1.387 . S
C604 H589 0.930 . S
C604 C599 1.390 . S
C604 C603 1.387 . S
H605 C617 0.930 . S
H606 C619 0.930 . S
H607 C620 0.930 . S
H608 C624 0.959 . S
H609 C624 0.959 . S
H610 C624 0.961 . S
H611 C625 0.960 . S
H612 C625 0.961 . S
H613 C625 0.959 . S
H614 C628 0.929 . S
H615 C629 0.931 . S
H616 C631 0.930 . S
C617 H605 0.930 . S
C617 C618 1.399 . S
C617 C622 1.399 . S
C618 C617 1.399 . S
C618 C619 1.376 . S
C619 H606 0.930 . S
C619 C618 1.376 . S
C619 C620 1.388 . S
C620 H607 0.930 . S
C620 C619 1.388 . S
C620 C621 1.390 . S
C621 C620 1.390 . S
C621 C622 1.394 . S
C621 C627 1.465 . S
C622 C617 1.399 . S
C622 C621 1.394 . S
C622 C623 1.516 . S
C623 C622 1.516 . S
C623 C624 1.502 . S
C623 C625 1.561 . S
C623 C626 1.526 . S
C624 H608 0.959 . S
C624 H609 0.959 . S
C624 H610 0.961 . S
C624 C623 1.502 . S
C625 H611 0.960 . S
C625 H612 0.961 . S
C625 H613 0.959 . S
C625 C623 1.561 . S
C626 C623 1.526 . S
C626 C627 1.396 . S
C626 C631 1.390 . S
C627 C621 1.465 . S
C627 C626 1.396 . S
C627 C628 1.399 . S
C628 H614 0.929 . S
C628 C627 1.399 . S
C628 C629 1.385 . S
C629 H615 0.931 . S
C629 C628 1.385 . S
C629 C630 1.389 . S
C630 C629 1.389 . S
C630 C631 1.387 . S
C631 H616 0.930 . S
C631 C626 1.390 . S
C631 C630 1.387 . S
H632 C644 0.930 . S
H633 C646 0.930 . S
H634 C647 0.930 . S
H635 C651 0.959 . S
H636 C651 0.959 . S
H637 C651 0.961 . S
H638 C652 0.960 . S
H639 C652 0.961 . S
H640 C652 0.959 . S
H641 C655 0.929 . S
H642 C656 0.931 . S
H643 C658 0.930 . S
C644 H632 0.930 . S
C644 C645 1.399 . S
C644 C649 1.399 . S
C645 C644 1.399 . S
C645 C646 1.376 . S
C646 H633 0.930 . S
C646 C645 1.376 . S
C646 C647 1.388 . S
C647 H634 0.930 . S
C647 C646 1.388 . S
C647 C648 1.390 . S
C648 C647 1.390 . S
C648 C649 1.394 . S
C648 C654 1.465 . S
C649 C644 1.399 . S
C649 C648 1.394 . S
C649 C650 1.516 . S
C650 C649 1.516 . S
C650 C651 1.502 . S
C650 C652 1.561 . S
C650 C653 1.526 . S
C651 H635 0.959 . S
C651 H636 0.959 . S
C651 H637 0.961 . S
C651 C650 1.502 . S
C652 H638 0.960 . S
C652 H639 0.961 . S
C652 H640 0.959 . S
C652 C650 1.561 . S
C653 C650 1.526 . S
C653 C654 1.396 . S
C653 C658 1.390 . S
C654 C648 1.465 . S
C654 C653 1.396 . S
C654 C655 1.399 . S
C655 H641 0.929 . S
C655 C654 1.399 . S
C655 C656 1.385 . S
C656 H642 0.931 . S
C656 C655 1.385 . S
C656 C657 1.389 . S
C657 C656 1.389 . S
C657 C658 1.387 . S
C658 H643 0.930 . S
C658 C653 1.390 . S
C658 C657 1.387 . S
H659 C671 0.930 . S
H660 C673 0.930 . S
H661 C674 0.930 . S
H662 C678 0.959 . S
H663 C678 0.959 . S
H664 C678 0.961 . S
H665 C679 0.960 . S
H666 C679 0.961 . S
H667 C679 0.959 . S
H668 C682 0.929 . S
H669 C683 0.931 . S
H670 C685 0.930 . S
C671 H659 0.930 . S
C671 C672 1.399 . S
C671 C676 1.399 . S
C672 C671 1.399 . S
C672 C673 1.376 . S
C673 H660 0.930 . S
C673 C672 1.376 . S
C673 C674 1.388 . S
C674 H661 0.930 . S
C674 C673 1.388 . S
C674 C675 1.390 . S
C675 C674 1.390 . S
C675 C676 1.394 . S
C675 C681 1.465 . S
C676 C671 1.399 . S
C676 C675 1.394 . S
C676 C677 1.516 . S
C677 C676 1.516 . S
C677 C678 1.502 . S
C677 C679 1.561 . S
C677 C680 1.526 . S
C678 H662 0.959 . S
C678 H663 0.959 . S
C678 H664 0.961 . S
C678 C677 1.502 . S
C679 H665 0.960 . S
C679 H666 0.961 . S
C679 H667 0.959 . S
C679 C677 1.561 . S
C680 C677 1.526 . S
C680 C681 1.396 . S
C680 C685 1.390 . S
C681 C675 1.465 . S
C681 C680 1.396 . S
C681 C682 1.399 . S
C682 H668 0.929 . S
C682 C681 1.399 . S
C682 C683 1.385 . S
C683 H669 0.931 . S
C683 C682 1.385 . S
C683 C684 1.389 . S
C684 C683 1.389 . S
C684 C685 1.387 . S
C685 H670 0.930 . S
C685 C680 1.390 . S
C685 C684 1.387 . S
H686 C698 0.930 . S
H687 C700 0.930 . S
H688 C701 0.930 . S
H689 C705 0.959 . S
H690 C705 0.959 . S
H691 C705 0.961 . S
H692 C706 0.960 . S
H693 C706 0.961 . S
H694 C706 0.959 . S
H695 C709 0.929 . S
H696 C710 0.931 . S
H697 C712 0.930 . S
C698 H686 0.930 . S
C698 C699 1.399 . S
C698 C703 1.399 . S
C699 C698 1.399 . S
C699 C700 1.376 . S
C700 H687 0.930 . S
C700 C699 1.376 . S
C700 C701 1.388 . S
C701 H688 0.930 . S
C701 C700 1.388 . S
C701 C702 1.390 . S
C702 C701 1.390 . S
C702 C703 1.394 . S
C702 C708 1.465 . S
C703 C698 1.399 . S
C703 C702 1.394 . S
C703 C704 1.516 . S
C704 C703 1.516 . S
C704 C705 1.502 . S
C704 C706 1.561 . S
C704 C707 1.526 . S
C705 H689 0.959 . S
C705 H690 0.959 . S
C705 H691 0.961 . S
C705 C704 1.502 . S
C706 H692 0.960 . S
C706 H693 0.961 . S
C706 H694 0.959 . S
C706 C704 1.561 . S
C707 C704 1.526 . S
C707 C708 1.396 . S
C707 C712 1.390 . S
C708 C702 1.465 . S
C708 C707 1.396 . S
C708 C709 1.399 . S
C709 H695 0.929 . S
C709 C708 1.399 . S
C709 C710 1.385 . S
C710 H696 0.931 . S
C710 C709 1.385 . S
C710 C711 1.389 . S
C711 C710 1.389 . S
C711 C712 1.387 . S
C712 H697 0.930 . S
C712 C707 1.390 . S
C712 C711 1.387 . S
H713 C725 0.930 . S
H714 C727 0.930 . S
H715 C728 0.930 . S
H716 C732 0.959 . S
H717 C732 0.959 . S
H718 C732 0.961 . S
H719 C733 0.960 . S
H720 C733 0.961 . S
H721 C733 0.959 . S
H722 C736 0.929 . S
H723 C737 0.931 . S
H724 C739 0.930 . S
C725 H713 0.930 . S
C725 C726 1.399 . S
C725 C730 1.399 . S
C726 C725 1.399 . S
C726 C727 1.376 . S
C727 H714 0.930 . S
C727 C726 1.376 . S
C727 C728 1.388 . S
C728 H715 0.930 . S
C728 C727 1.388 . S
C728 C729 1.390 . S
C729 C728 1.390 . S
C729 C730 1.394 . S
C729 C735 1.465 . S
C730 C725 1.399 . S
C730 C729 1.394 . S
C730 C731 1.516 . S
C731 C730 1.516 . S
C731 C732 1.502 . S
C731 C733 1.561 . S
C731 C734 1.526 . S
C732 H716 0.959 . S
C732 H717 0.959 . S
C732 H718 0.961 . S
C732 C731 1.502 . S
C733 H719 0.960 . S
C733 H720 0.961 . S
C733 H721 0.959 . S
C733 C731 1.561 . S
C734 C731 1.526 . S
C734 C735 1.396 . S
C734 C739 1.390 . S
C735 C729 1.465 . S
C735 C734 1.396 . S
C735 C736 1.399 . S
C736 H722 0.929 . S
C736 C735 1.399 . S
C736 C737 1.385 . S
C737 H723 0.931 . S
C737 C736 1.385 . S
C737 C738 1.389 . S
C738 C737 1.389 . S
C738 C739 1.387 . S
C739 H724 0.930 . S
C739 C734 1.390 . S
C739 C738 1.387 . S
H740 C752 0.930 . S
H741 C754 0.930 . S
H742 C755 0.930 . S
H743 C759 0.959 . S
H744 C759 0.959 . S
H745 C759 0.961 . S
H746 C760 0.960 . S
H747 C760 0.961 . S
H748 C760 0.959 . S
H749 C763 0.929 . S
H750 C764 0.931 . S
H751 C766 0.930 . S
C752 H740 0.930 . S
C752 C753 1.399 . S
C752 C757 1.399 . S
C753 C752 1.399 . S
C753 C754 1.376 . S
C754 H741 0.930 . S
C754 C753 1.376 . S
C754 C755 1.388 . S
C755 H742 0.930 . S
C755 C754 1.388 . S
C755 C756 1.390 . S
C756 C755 1.390 . S
C756 C757 1.394 . S
C756 C762 1.465 . S
C757 C752 1.399 . S
C757 C756 1.394 . S
C757 C758 1.516 . S
C758 C757 1.516 . S
C758 C759 1.502 . S
C758 C760 1.561 . S
C758 C761 1.526 . S
C759 H743 0.959 . S
C759 H744 0.959 . S
C759 H745 0.961 . S
C759 C758 1.502 . S
C760 H746 0.960 . S
C760 H747 0.961 . S
C760 H748 0.959 . S
C760 C758 1.561 . S
C761 C758 1.526 . S
C761 C762 1.396 . S
C761 C766 1.390 . S
C762 C756 1.465 . S
C762 C761 1.396 . S
C762 C763 1.399 . S
C763 H749 0.929 . S
C763 C762 1.399 . S
C763 C764 1.385 . S
C764 H750 0.931 . S
C764 C763 1.385 . S
C764 C765 1.389 . S
C765 C764 1.389 . S
C765 C766 1.387 . S
C766 H751 0.930 . S
C766 C761 1.390 . S
C766 C765 1.387 . S
H767 C779 0.930 . S
H768 C781 0.930 . S
H769 C782 0.930 . S
H770 C786 0.959 . S
H771 C786 0.959 . S
H772 C786 0.961 . S
H773 C787 0.960 . S
H774 C787 0.961 . S
H775 C787 0.959 . S
H776 C790 0.929 . S
H777 C791 0.931 . S
H778 C793 0.930 . S
C779 H767 0.930 . S
C779 C780 1.399 . S
C779 C784 1.399 . S
C780 C779 1.399 . S
C780 C781 1.376 . S
C781 H768 0.930 . S
C781 C780 1.376 . S
C781 C782 1.388 . S
C782 H769 0.930 . S
C782 C781 1.388 . S
C782 C783 1.390 . S
C783 C782 1.390 . S
C783 C784 1.394 . S
C783 C789 1.465 . S
C784 C779 1.399 . S
C784 C783 1.394 . S
C784 C785 1.516 . S
C785 C784 1.516 . S
C785 C786 1.502 . S
C785 C787 1.561 . S
C785 C788 1.526 . S
C786 H770 0.959 . S
C786 H771 0.959 . S
C786 H772 0.961 . S
C786 C785 1.502 . S
C787 H773 0.960 . S
C787 H774 0.961 . S
C787 H775 0.959 . S
C787 C785 1.561 . S
C788 C785 1.526 . S
C788 C789 1.396 . S
C788 C793 1.390 . S
C789 C783 1.465 . S
C789 C788 1.396 . S
C789 C790 1.399 . S
C790 H776 0.929 . S
C790 C789 1.399 . S
C790 C791 1.385 . S
C791 H777 0.931 . S
C791 C790 1.385 . S
C791 C792 1.389 . S
C792 C791 1.389 . S
C792 C793 1.387 . S
C793 H778 0.930 . S
C793 C788 1.390 . S
C793 C792 1.387 . S
H794 C806 0.930 . S
H795 C808 0.930 . S
H796 C809 0.930 . S
H797 C813 0.959 . S
H798 C813 0.959 . S
H799 C813 0.961 . S
H800 C814 0.960 . S
H801 C814 0.961 . S
H802 C814 0.959 . S
H803 C817 0.929 . S
H804 C818 0.931 . S
H805 C820 0.930 . S
C806 H794 0.930 . S
C806 C807 1.399 . S
C806 C811 1.399 . S
C807 C806 1.399 . S
C807 C808 1.376 . S
C808 H795 0.930 . S
C808 C807 1.376 . S
C808 C809 1.388 . S
C809 H796 0.930 . S
C809 C808 1.388 . S
C809 C810 1.390 . S
C810 C809 1.390 . S
C810 C811 1.394 . S
C810 C816 1.465 . S
C811 C806 1.399 . S
C811 C810 1.394 . S
C811 C812 1.516 . S
C812 C811 1.516 . S
C812 C813 1.502 . S
C812 C814 1.561 . S
C812 C815 1.526 . S
C813 H797 0.959 . S
C813 H798 0.959 . S
C813 H799 0.961 . S
C813 C812 1.502 . S
C814 H800 0.960 . S
C814 H801 0.961 . S
C814 H802 0.959 . S
C814 C812 1.561 . S
C815 C812 1.526 . S
C815 C816 1.396 . S
C815 C820 1.390 . S
C816 C810 1.465 . S
C816 C815 1.396 . S
C816 C817 1.399 . S
C817 H803 0.929 . S
C817 C816 1.399 . S
C817 C818 1.385 . S
C818 H804 0.931 . S
C818 C817 1.385 . S
C818 C819 1.389 . S
C819 C818 1.389 . S
C819 C820 1.387 . S
C820 H805 0.930 . S
C820 C815 1.390 . S
C820 C819 1.387 . S
H821 C833 0.930 . S
H822 C835 0.930 . S
H823 C836 0.930 . S
H824 C840 0.959 . S
H825 C840 0.959 . S
H826 C840 0.961 . S
H827 C841 0.960 . S
H828 C841 0.961 . S
H829 C841 0.959 . S
H830 C844 0.929 . S
H831 C845 0.931 . S
H832 C847 0.930 . S
C833 H821 0.930 . S
C833 C834 1.399 . S
C833 C838 1.399 . S
C834 C833 1.399 . S
C834 C835 1.376 . S
C835 H822 0.930 . S
C835 C834 1.376 . S
C835 C836 1.388 . S
C836 H823 0.930 . S
C836 C835 1.388 . S
C836 C837 1.390 . S
C837 C836 1.390 . S
C837 C838 1.394 . S
C837 C843 1.465 . S
C838 C833 1.399 . S
C838 C837 1.394 . S
C838 C839 1.516 . S
C839 C838 1.516 . S
C839 C840 1.502 . S
C839 C841 1.561 . S
C839 C842 1.526 . S
C840 H824 0.959 . S
C840 H825 0.959 . S
C840 H826 0.961 . S
C840 C839 1.502 . S
C841 H827 0.960 . S
C841 H828 0.961 . S
C841 H829 0.959 . S
C841 C839 1.561 . S
C842 C839 1.526 . S
C842 C843 1.396 . S
C842 C847 1.390 . S
C843 C837 1.465 . S
C843 C842 1.396 . S
C843 C844 1.399 . S
C844 H830 0.929 . S
C844 C843 1.399 . S
C844 C845 1.385 . S
C845 H831 0.931 . S
C845 C844 1.385 . S
C845 C846 1.389 . S
C846 C845 1.389 . S
C846 C847 1.387 . S
C847 H832 0.930 . S
C847 C842 1.390 . S
C847 C846 1.387 . S
H848 C860 0.930 1_556 S
H849 C862 0.930 . S
H850 C863 0.930 . S
H851 C867 0.964 . S
H852 C867 0.991 . S
H853 C867 0.927 1_455 S
H854 C868 0.950 1_455 S
H855 C868 0.970 . S
H856 C868 0.960 1_554 S
H857 C871 0.929 . S
H858 C872 0.931 . S
H859 C874 0.930 1_556 S
C860 H848 0.930 1_554 S
C860 C861 1.399 . S
C860 C865 1.399 . S
C861 C860 1.399 . S
C861 C862 1.376 . S
C862 H849 0.930 . S
C862 C861 1.376 . S
C862 C863 1.388 . S
C863 H850 0.930 . S
C863 C862 1.388 . S
C863 C864 1.390 . S
C864 C863 1.390 . S
C864 C865 1.394 . S
C864 C870 1.465 1_455 S
C865 C860 1.399 . S
C865 C864 1.394 . S
C865 C866 1.495 1_454 S
C866 C865 1.495 1_656 S
C866 C867 1.518 . S
C866 C868 1.569 . S
C866 C869 1.520 1_556 S
C867 H851 0.964 . S
C867 H852 0.991 . S
C867 H853 0.927 1_655 S
C867 C866 1.518 . S
C868 H854 0.950 1_655 S
C868 H855 0.970 . S
C868 H856 0.960 1_556 S
C868 C866 1.569 . S
C869 C866 1.520 1_554 S
C869 C870 1.396 . S
C869 C874 1.390 . S
C870 C864 1.465 1_655 S
C870 C869 1.396 . S
C870 C871 1.399 . S
C871 H857 0.929 . S
C871 C870 1.399 . S
C871 C872 1.385 . S
C872 H858 0.931 . S
C872 C871 1.385 . S
C872 C873 1.389 . S
C873 C872 1.389 . S
C873 C874 1.387 . S
C874 H859 0.930 1_554 S
C874 C869 1.390 . S
C874 C873 1.387 . S
H875 C887 0.930 . S
H876 C889 0.930 . S
H877 C890 0.930 . S
H878 C894 0.959 . S
H879 C894 0.959 . S
H880 C894 0.961 . S
H881 C895 0.960 . S
H882 C895 0.961 . S
H883 C895 0.959 . S
H884 C898 0.929 . S
H885 C899 0.931 . S
H886 C901 0.930 . S
C887 H875 0.930 . S
C887 C888 1.399 . S
C887 C892 1.399 . S
C888 C887 1.399 . S
C888 C889 1.376 . S
C889 H876 0.930 . S
C889 C888 1.376 . S
C889 C890 1.388 . S
C890 H877 0.930 . S
C890 C889 1.388 . S
C890 C891 1.390 . S
C891 C890 1.390 . S
C891 C892 1.394 . S
C891 C897 1.465 . S
C892 C887 1.399 . S
C892 C891 1.394 . S
C892 C893 1.516 . S
C893 C892 1.516 . S
C893 C894 1.502 . S
C893 C895 1.561 . S
C893 C896 1.526 . S
C894 H878 0.959 . S
C894 H879 0.959 . S
C894 H880 0.961 . S
C894 C893 1.502 . S
C895 H881 0.960 . S
C895 H882 0.961 . S
C895 H883 0.959 . S
C895 C893 1.561 . S
C896 C893 1.526 . S
C896 C897 1.396 . S
C896 C901 1.390 . S
C897 C891 1.465 . S
C897 C896 1.396 . S
C897 C898 1.399 . S
C898 H884 0.929 . S
C898 C897 1.399 . S
C898 C899 1.385 . S
C899 H885 0.931 . S
C899 C898 1.385 . S
C899 C900 1.389 . S
C900 C899 1.389 . S
C900 C901 1.387 . S
C901 H886 0.930 . S
C901 C896 1.390 . S
C901 C900 1.387 . S
H902 C914 0.930 . S
H903 C916 0.930 . S
H904 C917 0.930 . S
H905 C921 0.959 . S
H906 C921 0.959 . S
H907 C921 0.961 . S
H908 C922 0.960 . S
H909 C922 0.961 . S
H910 C922 0.959 . S
H911 C925 0.929 . S
H912 C926 0.931 . S
H913 C928 0.930 . S
C914 H902 0.930 . S
C914 C915 1.399 . S
C914 C919 1.399 . S
C915 C914 1.399 . S
C915 C916 1.376 . S
C916 H903 0.930 . S
C916 C915 1.376 . S
C916 C917 1.388 . S
C917 H904 0.930 . S
C917 C916 1.388 . S
C917 C918 1.390 . S
C918 C917 1.390 . S
C918 C919 1.394 . S
C918 C924 1.465 . S
C919 C914 1.399 . S
C919 C918 1.394 . S
C919 C920 1.516 . S
C920 C919 1.516 . S
C920 C921 1.502 . S
C920 C922 1.561 . S
C920 C923 1.526 . S
C921 H905 0.959 . S
C921 H906 0.959 . S
C921 H907 0.961 . S
C921 C920 1.502 . S
C922 H908 0.960 . S
C922 H909 0.961 . S
C922 H910 0.959 . S
C922 C920 1.561 . S
C923 C920 1.526 . S
C923 C924 1.396 . S
C923 C928 1.390 . S
C924 C918 1.465 . S
C924 C923 1.396 . S
C924 C925 1.399 . S
C925 H911 0.929 . S
C925 C924 1.399 . S
C925 C926 1.385 . S
C926 H912 0.931 . S
C926 C925 1.385 . S
C926 C927 1.389 . S
C927 C926 1.389 . S
C927 C928 1.387 . S
C928 H913 0.930 . S
C928 C923 1.390 . S
C928 C927 1.387 . S
H929 C941 0.930 . S
H930 C943 0.930 . S
H931 C944 0.930 . S
H932 C948 0.959 . S
H933 C948 0.959 . S
H934 C948 0.961 . S
H935 C949 0.960 . S
H936 C949 0.961 . S
H937 C949 0.959 . S
H938 C952 0.929 . S
H939 C953 0.931 . S
H940 C955 0.930 . S
C941 H929 0.930 . S
C941 C942 1.399 . S
C941 C946 1.399 . S
C942 C941 1.399 . S
C942 C943 1.376 . S
C943 H930 0.930 . S
C943 C942 1.376 . S
C943 C944 1.388 . S
C944 H931 0.930 . S
C944 C943 1.388 . S
C944 C945 1.390 . S
C945 C944 1.390 . S
C945 C946 1.394 . S
C945 C951 1.465 . S
C946 C941 1.399 . S
C946 C945 1.394 . S
C946 C947 1.516 . S
C947 C946 1.516 . S
C947 C948 1.502 . S
C947 C949 1.561 . S
C947 C950 1.526 . S
C948 H932 0.959 . S
C948 H933 0.959 . S
C948 H934 0.961 . S
C948 C947 1.502 . S
C949 H935 0.960 . S
C949 H936 0.961 . S
C949 H937 0.959 . S
C949 C947 1.561 . S
C950 C947 1.526 . S
C950 C951 1.396 . S
C950 C955 1.390 . S
C951 C945 1.465 . S
C951 C950 1.396 . S
C951 C952 1.399 . S
C952 H938 0.929 . S
C952 C951 1.399 . S
C952 C953 1.385 . S
C953 H939 0.931 . S
C953 C952 1.385 . S
C953 C954 1.389 . S
C954 C953 1.389 . S
C954 C955 1.387 . S
C955 H940 0.930 . S
C955 C950 1.390 . S
C955 C954 1.387 . S
H956 C968 0.930 1_554 S
H957 C970 0.930 . S
H958 C971 0.930 . S
H959 C975 0.991 . S
H960 C975 0.971 . S
H961 C975 0.948 1_655 S
H962 C976 0.961 . S
H963 C976 0.960 1_455 S
H964 C976 0.959 1_455 S
H965 C979 0.929 . S
H966 C980 0.931 . S
H967 C982 0.930 1_554 S
C968 H956 0.930 1_556 S
C968 C969 1.399 . S
C968 C973 1.399 . S
C969 C968 1.399 . S
C969 C970 1.376 . S
C970 H957 0.930 . S
C970 C969 1.376 . S
C970 C971 1.388 . S
C971 H958 0.930 . S
C971 C970 1.388 . S
C971 C972 1.390 . S
C972 C971 1.390 . S
C972 C973 1.394 . S
C972 C978 1.465 1_655 S
C973 C968 1.399 . S
C973 C972 1.394 . S
C973 C974 1.495 1_556 S
C974 C973 1.495 1_554 S
C974 C975 1.519 1_655 S
C974 C976 1.587 . S
C974 C977 1.503 1_654 S
C975 H959 0.991 . S
C975 H960 0.971 . S
C975 H961 0.948 1_455 S
C975 C974 1.519 1_455 S
C976 H962 0.961 . S
C976 H963 0.960 1_655 S
C976 H964 0.959 1_655 S
C976 C974 1.587 . S
C977 C974 1.503 1_456 S
C977 C978 1.396 . S
C977 C982 1.390 . S
C978 C972 1.465 1_455 S
C978 C977 1.396 . S
C978 C979 1.399 . S
C979 H965 0.929 . S
C979 C978 1.399 . S
C979 C980 1.385 . S
C980 H966 0.931 . S
C980 C979 1.385 . S
C980 C981 1.389 . S
C981 C980 1.389 . S
C981 C982 1.387 . S
C982 H967 0.930 1_556 S
C982 C977 1.390 . S
C982 C981 1.387 . S
H983 C995 0.930 . S
H984 C997 0.930 . S
H985 C998 0.930 . S
H986 C1002 0.959 . S
H987 C1002 0.959 . S
H988 C1002 0.961 . S
H989 C1003 0.960 . S
H990 C1003 0.961 . S
H991 C1003 0.959 . S
H992 C1006 0.929 . S
H993 C1007 0.931 . S
H994 C1009 0.930 . S
C995 H983 0.930 . S
C995 C996 1.399 . S
C995 C1000 1.399 . S
C996 C995 1.399 . S
C996 C997 1.376 . S
C997 H984 0.930 . S
C997 C996 1.376 . S
C997 C998 1.388 . S
C998 H985 0.930 . S
C998 C997 1.388 . S
C998 C999 1.390 . S
C999 C998 1.390 . S
C999 C1000 1.394 . S
C999 C1005 1.465 . S
C1000 C995 1.399 . S
C1000 C999 1.394 . S
C1000 C1001 1.516 . S
C1001 C1000 1.516 . S
C1001 C1002 1.502 . S
C1001 C1003 1.561 . S
C1001 C1004 1.526 . S
C1002 H986 0.959 . S
C1002 H987 0.959 . S
C1002 H988 0.961 . S
C1002 C1001 1.502 . S
C1003 H989 0.960 . S
C1003 H990 0.961 . S
C1003 H991 0.959 . S
C1003 C1001 1.561 . S
C1004 C1001 1.526 . S
C1004 C1005 1.396 . S
C1004 C1009 1.390 . S
C1005 C999 1.465 . S
C1005 C1004 1.396 . S
C1005 C1006 1.399 . S
C1006 H992 0.929 . S
C1006 C1005 1.399 . S
C1006 C1007 1.385 . S
C1007 H993 0.931 . S
C1007 C1006 1.385 . S
C1007 C1008 1.389 . S
C1008 C1007 1.389 . S
C1008 C1009 1.387 . S
C1009 H994 0.930 . S
C1009 C1004 1.390 . S
C1009 C1008 1.387 . S
H1010 C1022 0.930 . S
H1011 C1024 0.930 . S
H1012 C1025 0.930 . S
H1013 C1029 0.959 . S
H1014 C1029 0.959 . S
H1015 C1029 0.961 . S
H1016 C1030 0.960 . S
H1017 C1030 0.961 . S
H1018 C1030 0.959 . S
H1019 C1033 0.929 . S
H1020 C1034 0.931 . S
H1021 C1036 0.930 . S
C1022 H1010 0.930 . S
C1022 C1023 1.399 . S
C1022 C1027 1.399 . S
C1023 C1022 1.399 . S
C1023 C1024 1.376 . S
C1024 H1011 0.930 . S
C1024 C1023 1.376 . S
C1024 C1025 1.388 . S
C1025 H1012 0.930 . S
C1025 C1024 1.388 . S
C1025 C1026 1.390 . S
C1026 C1025 1.390 . S
C1026 C1027 1.394 . S
C1026 C1032 1.465 . S
C1027 C1022 1.399 . S
C1027 C1026 1.394 . S
C1027 C1028 1.516 . S
C1028 C1027 1.516 . S
C1028 C1029 1.502 . S
C1028 C1030 1.561 . S
C1028 C1031 1.526 . S
C1029 H1013 0.959 . S
C1029 H1014 0.959 . S
C1029 H1015 0.961 . S
C1029 C1028 1.502 . S
C1030 H1016 0.960 . S
C1030 H1017 0.961 . S
C1030 H1018 0.959 . S
C1030 C1028 1.561 . S
C1031 C1028 1.526 . S
C1031 C1032 1.396 . S
C1031 C1036 1.390 . S
C1032 C1026 1.465 . S
C1032 C1031 1.396 . S
C1032 C1033 1.399 . S
C1033 H1019 0.929 . S
C1033 C1032 1.399 . S
C1033 C1034 1.385 . S
C1034 H1020 0.931 . S
C1034 C1033 1.385 . S
C1034 C1035 1.389 . S
C1035 C1034 1.389 . S
C1035 C1036 1.387 . S
C1036 H1021 0.930 . S
C1036 C1031 1.390 . S
C1036 C1035 1.387 . S
H1037 C1049 0.930 . S
H1038 C1051 0.930 . S
H1039 C1052 0.930 . S
H1040 C1056 0.959 . S
H1041 C1056 0.959 . S
H1042 C1056 0.961 . S
H1043 C1057 0.960 . S
H1044 C1057 0.961 . S
H1045 C1057 0.959 . S
H1046 C1060 0.929 . S
H1047 C1061 0.931 . S
H1048 C1063 0.930 . S
C1049 H1037 0.930 . S
C1049 C1050 1.399 . S
C1049 C1054 1.399 . S
C1050 C1049 1.399 . S
C1050 C1051 1.376 . S
C1051 H1038 0.930 . S
C1051 C1050 1.376 . S
C1051 C1052 1.388 . S
C1052 H1039 0.930 . S
C1052 C1051 1.388 . S
C1052 C1053 1.390 . S
C1053 C1052 1.390 . S
C1053 C1054 1.394 . S
C1053 C1059 1.465 . S
C1054 C1049 1.399 . S
C1054 C1053 1.394 . S
C1054 C1055 1.516 . S
C1055 C1054 1.516 . S
C1055 C1056 1.502 . S
C1055 C1057 1.561 . S
C1055 C1058 1.526 . S
C1056 H1040 0.959 . S
C1056 H1041 0.959 . S
C1056 H1042 0.961 . S
C1056 C1055 1.502 . S
C1057 H1043 0.960 . S
C1057 H1044 0.961 . S
C1057 H1045 0.959 . S
C1057 C1055 1.561 . S
C1058 C1055 1.526 . S
C1058 C1059 1.396 . S
C1058 C1063 1.390 . S
C1059 C1053 1.465 . S
C1059 C1058 1.396 . S
C1059 C1060 1.399 . S
C1060 H1046 0.929 . S
C1060 C1059 1.399 . S
C1060 C1061 1.385 . S
C1061 H1047 0.931 . S
C1061 C1060 1.385 . S
C1061 C1062 1.389 . S
C1062 C1061 1.389 . S
C1062 C1063 1.387 . S
C1063 H1048 0.930 . S
C1063 C1058 1.390 . S
C1063 C1062 1.387 . S
H1064 C1076 0.930 . S
H1065 C1078 0.930 . S
H1066 C1079 0.930 . S
H1067 C1083 0.959 . S
H1068 C1083 0.959 . S
H1069 C1083 0.961 . S
H1070 C1084 0.960 . S
H1071 C1084 0.961 . S
H1072 C1084 0.959 . S
H1073 C1087 0.929 . S
H1074 C1088 0.931 . S
H1075 C1090 0.930 . S
C1076 H1064 0.930 . S
C1076 C1077 1.399 . S
C1076 C1081 1.399 . S
C1077 C1076 1.399 . S
C1077 C1078 1.376 . S
C1078 H1065 0.930 . S
C1078 C1077 1.376 . S
C1078 C1079 1.388 . S
C1079 H1066 0.930 . S
C1079 C1078 1.388 . S
C1079 C1080 1.390 . S
C1080 C1079 1.390 . S
C1080 C1081 1.394 . S
C1080 C1086 1.465 . S
C1081 C1076 1.399 . S
C1081 C1080 1.394 . S
C1081 C1082 1.516 . S
C1082 C1081 1.516 . S
C1082 C1083 1.502 . S
C1082 C1084 1.561 . S
C1082 C1085 1.526 . S
C1083 H1067 0.959 . S
C1083 H1068 0.959 . S
C1083 H1069 0.961 . S
C1083 C1082 1.502 . S
C1084 H1070 0.960 . S
C1084 H1071 0.961 . S
C1084 H1072 0.959 . S
C1084 C1082 1.561 . S
C1085 C1082 1.526 . S
C1085 C1086 1.396 . S
C1085 C1090 1.390 . S
C1086 C1080 1.465 . S
C1086 C1085 1.396 . S
C1086 C1087 1.399 . S
C1087 H1073 0.929 . S
C1087 C1086 1.399 . S
C1087 C1088 1.385 . S
C1088 H1074 0.931 . S
C1088 C1087 1.385 . S
C1088 C1089 1.389 . S
C1089 C1088 1.389 . S
C1089 C1090 1.387 . S
C1090 H1075 0.930 . S
C1090 C1085 1.390 . S
C1090 C1089 1.387 . S
H1091 C1103 0.930 . S
H1092 C1105 0.930 . S
H1093 C1106 0.930 . S
H1094 C1110 0.959 . S
H1095 C1110 0.959 . S
H1096 C1110 0.961 . S
H1097 C1111 0.960 . S
H1098 C1111 0.961 . S
H1099 C1111 0.959 . S
H1100 C1114 0.929 . S
H1101 C1115 0.931 . S
H1102 C1117 0.930 . S
C1103 H1091 0.930 . S
C1103 C1104 1.399 . S
C1103 C1108 1.399 . S
C1104 C1103 1.399 . S
C1104 C1105 1.376 . S
C1105 H1092 0.930 . S
C1105 C1104 1.376 . S
C1105 C1106 1.388 . S
C1106 H1093 0.930 . S
C1106 C1105 1.388 . S
C1106 C1107 1.390 . S
C1107 C1106 1.390 . S
C1107 C1108 1.394 . S
C1107 C1113 1.465 . S
C1108 C1103 1.399 . S
C1108 C1107 1.394 . S
C1108 C1109 1.516 . S
C1109 C1108 1.516 . S
C1109 C1110 1.502 . S
C1109 C1111 1.561 . S
C1109 C1112 1.526 . S
C1110 H1094 0.959 . S
C1110 H1095 0.959 . S
C1110 H1096 0.961 . S
C1110 C1109 1.502 . S
C1111 H1097 0.960 . S
C1111 H1098 0.961 . S
C1111 H1099 0.959 . S
C1111 C1109 1.561 . S
C1112 C1109 1.526 . S
C1112 C1113 1.396 . S
C1112 C1117 1.390 . S
C1113 C1107 1.465 . S
C1113 C1112 1.396 . S
C1113 C1114 1.399 . S
C1114 H1100 0.929 . S
C1114 C1113 1.399 . S
C1114 C1115 1.385 . S
C1115 H1101 0.931 . S
C1115 C1114 1.385 . S
C1115 C1116 1.389 . S
C1116 C1115 1.389 . S
C1116 C1117 1.387 . S
C1117 H1102 0.930 . S
C1117 C1112 1.390 . S
C1117 C1116 1.387 . S
H1118 C1130 0.930 . S
H1119 C1132 0.930 . S
H1120 C1133 0.930 . S
H1121 C1137 0.959 . S
H1122 C1137 0.959 . S
H1123 C1137 0.961 . S
H1124 C1138 0.960 . S
H1125 C1138 0.961 . S
H1126 C1138 0.959 . S
H1127 C1141 0.929 . S
H1128 C1142 0.931 . S
H1129 C1144 0.930 . S
C1130 H1118 0.930 . S
C1130 C1131 1.399 . S
C1130 C1135 1.399 . S
C1131 C1130 1.399 . S
C1131 C1132 1.376 . S
C1132 H1119 0.930 . S
C1132 C1131 1.376 . S
C1132 C1133 1.388 . S
C1133 H1120 0.930 . S
C1133 C1132 1.388 . S
C1133 C1134 1.390 . S
C1134 C1133 1.390 . S
C1134 C1135 1.394 . S
C1134 C1140 1.465 . S
C1135 C1130 1.399 . S
C1135 C1134 1.394 . S
C1135 C1136 1.516 . S
C1136 C1135 1.516 . S
C1136 C1137 1.502 . S
C1136 C1138 1.561 . S
C1136 C1139 1.526 . S
C1137 H1121 0.959 . S
C1137 H1122 0.959 . S
C1137 H1123 0.961 . S
C1137 C1136 1.502 . S
C1138 H1124 0.960 . S
C1138 H1125 0.961 . S
C1138 H1126 0.959 . S
C1138 C1136 1.561 . S
C1139 C1136 1.526 . S
C1139 C1140 1.396 . S
C1139 C1144 1.390 . S
C1140 C1134 1.465 . S
C1140 C1139 1.396 . S
C1140 C1141 1.399 . S
C1141 H1127 0.929 . S
C1141 C1140 1.399 . S
C1141 C1142 1.385 . S
C1142 H1128 0.931 . S
C1142 C1141 1.385 . S
C1142 C1143 1.389 . S
C1143 C1142 1.389 . S
C1143 C1144 1.387 . S
C1144 H1129 0.930 . S
C1144 C1139 1.390 . S
C1144 C1143 1.387 . S
H1145 C1157 0.930 . S
H1146 C1159 0.930 . S
H1147 C1160 0.930 . S
H1148 C1164 0.959 . S
H1149 C1164 0.959 . S
H1150 C1164 0.961 . S
H1151 C1165 0.960 . S
H1152 C1165 0.961 . S
H1153 C1165 0.959 . S
H1154 C1168 0.929 . S
H1155 C1169 0.931 . S
H1156 C1171 0.930 . S
C1157 H1145 0.930 . S
C1157 C1158 1.399 . S
C1157 C1162 1.399 . S
C1158 C1157 1.399 . S
C1158 C1159 1.376 . S
C1159 H1146 0.930 . S
C1159 C1158 1.376 . S
C1159 C1160 1.388 . S
C1160 H1147 0.930 . S
C1160 C1159 1.388 . S
C1160 C1161 1.390 . S
C1161 C1160 1.390 . S
C1161 C1162 1.394 . S
C1161 C1167 1.465 . S
C1162 C1157 1.399 . S
C1162 C1161 1.394 . S
C1162 C1163 1.516 . S
C1163 C1162 1.516 . S
C1163 C1164 1.502 . S
C1163 C1165 1.561 . S
C1163 C1166 1.526 . S
C1164 H1148 0.959 . S
C1164 H1149 0.959 . S
C1164 H1150 0.961 . S
C1164 C1163 1.502 . S
C1165 H1151 0.960 . S
C1165 H1152 0.961 . S
C1165 H1153 0.959 . S
C1165 C1163 1.561 . S
C1166 C1163 1.526 . S
C1166 C1167 1.396 . S
C1166 C1171 1.390 . S
C1167 C1161 1.465 . S
C1167 C1166 1.396 . S
C1167 C1168 1.399 . S
C1168 H1154 0.929 . S
C1168 C1167 1.399 . S
C1168 C1169 1.385 . S
C1169 H1155 0.931 . S
C1169 C1168 1.385 . S
C1169 C1170 1.389 . S
C1170 C1169 1.389 . S
C1170 C1171 1.387 . S
C1171 H1156 0.930 . S
C1171 C1166 1.390 . S
C1171 C1170 1.387 . S
H1172 C1184 0.930 . S
H1173 C1186 0.930 . S
H1174 C1187 0.930 . S
H1175 C1191 0.959 . S
H1176 C1191 0.959 . S
H1177 C1191 0.961 . S
H1178 C1192 0.960 . S
H1179 C1192 0.961 . S
H1180 C1192 0.959 . S
H1181 C1195 0.929 . S
H1182 C1196 0.931 . S
H1183 C1198 0.930 . S
C1184 H1172 0.930 . S
C1184 C1185 1.399 . S
C1184 C1189 1.399 . S
C1185 C1184 1.399 . S
C1185 C1186 1.376 . S
C1186 H1173 0.930 . S
C1186 C1185 1.376 . S
C1186 C1187 1.388 . S
C1187 H1174 0.930 . S
C1187 C1186 1.388 . S
C1187 C1188 1.390 . S
C1188 C1187 1.390 . S
C1188 C1189 1.394 . S
C1188 C1194 1.465 . S
C1189 C1184 1.399 . S
C1189 C1188 1.394 . S
C1189 C1190 1.516 . S
C1190 C1189 1.516 . S
C1190 C1191 1.502 . S
C1190 C1192 1.561 . S
C1190 C1193 1.526 . S
C1191 H1175 0.959 . S
C1191 H1176 0.959 . S
C1191 H1177 0.961 . S
C1191 C1190 1.502 . S
C1192 H1178 0.960 . S
C1192 H1179 0.961 . S
C1192 H1180 0.959 . S
C1192 C1190 1.561 . S
C1193 C1190 1.526 . S
C1193 C1194 1.396 . S
C1193 C1198 1.390 . S
C1194 C1188 1.465 . S
C1194 C1193 1.396 . S
C1194 C1195 1.399 . S
C1195 H1181 0.929 . S
C1195 C1194 1.399 . S
C1195 C1196 1.385 . S
C1196 H1182 0.931 . S
C1196 C1195 1.385 . S
C1196 C1197 1.389 . S
C1197 C1196 1.389 . S
C1197 C1198 1.387 . S
C1198 H1183 0.930 . S
C1198 C1193 1.390 . S
C1198 C1197 1.387 . S
H1199 C1211 0.930 . S
H1200 C1213 0.930 . S
H1201 C1214 0.930 . S
H1202 C1218 0.963 1_556 S
H1203 C1218 0.985 . S
H1204 C1218 0.939 1_655 S
H1205 C1219 0.955 1_655 S
H1206 C1219 0.966 . S
H1207 C1219 0.959 . S
H1208 C1222 0.929 . S
H1209 C1223 0.931 . S
H1210 C1225 0.930 . S
C1211 H1199 0.930 . S
C1211 C1212 1.399 . S
C1211 C1216 1.399 . S
C1212 C1211 1.399 . S
C1212 C1213 1.376 . S
C1213 H1200 0.930 . S
C1213 C1212 1.376 . S
C1213 C1214 1.388 . S
C1214 H1201 0.930 . S
C1214 C1213 1.388 . S
C1214 C1215 1.390 . S
C1215 C1214 1.390 . S
C1215 C1216 1.394 . S
C1215 C1221 1.465 1_655 S
C1216 C1211 1.399 . S
C1216 C1215 1.394 . S
C1216 C1217 1.512 1_655 S
C1217 C1216 1.512 1_455 S
C1217 C1218 1.502 . S
C1217 C1219 1.561 . S
C1217 C1220 1.530 . S
C1218 H1202 0.963 1_554 S
C1218 H1203 0.985 . S
C1218 H1204 0.939 1_455 S
C1218 C1217 1.502 . S
C1219 H1205 0.955 1_455 S
C1219 H1206 0.966 . S
C1219 H1207 0.959 . S
C1219 C1217 1.561 . S
C1220 C1217 1.530 . S
C1220 C1221 1.396 . S
C1220 C1225 1.390 . S
C1221 C1215 1.465 1_455 S
C1221 C1220 1.396 . S
C1221 C1222 1.399 . S
C1222 H1208 0.929 . S
C1222 C1221 1.399 . S
C1222 C1223 1.385 . S
C1223 H1209 0.931 . S
C1223 C1222 1.385 . S
C1223 C1224 1.389 . S
C1224 C1223 1.389 . S
C1224 C1225 1.387 . S
C1225 H1210 0.930 . S
C1225 C1220 1.390 . S
C1225 C1224 1.387 . S
H1226 C1238 0.930 . S
H1227 C1240 0.930 . S
H1228 C1241 0.930 . S
H1229 C1245 0.959 . S
H1230 C1245 0.959 . S
H1231 C1245 0.961 . S
H1232 C1246 0.960 . S
H1233 C1246 0.961 . S
H1234 C1246 0.959 . S
H1235 C1249 0.929 . S
H1236 C1250 0.931 . S
H1237 C1252 0.930 . S
C1238 H1226 0.930 . S
C1238 C1239 1.399 . S
C1238 C1243 1.399 . S
C1239 C1238 1.399 . S
C1239 C1240 1.376 . S
C1240 H1227 0.930 . S
C1240 C1239 1.376 . S
C1240 C1241 1.388 . S
C1241 H1228 0.930 . S
C1241 C1240 1.388 . S
C1241 C1242 1.390 . S
C1242 C1241 1.390 . S
C1242 C1243 1.394 . S
C1242 C1248 1.465 . S
C1243 C1238 1.399 . S
C1243 C1242 1.394 . S
C1243 C1244 1.516 . S
C1244 C1243 1.516 . S
C1244 C1245 1.502 . S
C1244 C1246 1.561 . S
C1244 C1247 1.526 . S
C1245 H1229 0.959 . S
C1245 H1230 0.959 . S
C1245 H1231 0.961 . S
C1245 C1244 1.502 . S
C1246 H1232 0.960 . S
C1246 H1233 0.961 . S
C1246 H1234 0.959 . S
C1246 C1244 1.561 . S
C1247 C1244 1.526 . S
C1247 C1248 1.396 . S
C1247 C1252 1.390 . S
C1248 C1242 1.465 . S
C1248 C1247 1.396 . S
C1248 C1249 1.399 . S
C1249 H1235 0.929 . S
C1249 C1248 1.399 . S
C1249 C1250 1.385 . S
C1250 H1236 0.931 . S
C1250 C1249 1.385 . S
C1250 C1251 1.389 . S
C1251 C1250 1.389 . S
C1251 C1252 1.387 . S
C1252 H1237 0.930 . S
C1252 C1247 1.390 . S
C1252 C1251 1.387 . S
H1253 C1265 0.930 . S
H1254 C1267 0.930 . S
H1255 C1268 0.930 . S
H1256 C1272 0.961 . S
H1257 C1272 0.976 . S
H1258 C1272 0.943 1_455 S
H1259 C1273 0.965 1_455 S
H1260 C1273 0.956 . S
H1261 C1273 0.958 . S
H1262 C1276 0.929 . S
H1263 C1277 0.931 . S
H1264 C1279 0.930 . S
C1265 H1253 0.930 . S
C1265 C1266 1.399 . S
C1265 C1270 1.399 . S
C1266 C1265 1.399 . S
C1266 C1267 1.376 . S
C1267 H1254 0.930 . S
C1267 C1266 1.376 . S
C1267 C1268 1.388 . S
C1268 H1255 0.930 . S
C1268 C1267 1.388 . S
C1268 C1269 1.390 . S
C1269 C1268 1.390 . S
C1269 C1270 1.394 . S
C1269 C1275 1.465 1_455 S
C1270 C1265 1.399 . S
C1270 C1269 1.394 . S
C1270 C1271 1.514 . S
C1271 C1270 1.514 . S
C1271 C1272 1.501 1_455 S
C1271 C1273 1.561 1_456 S
C1271 C1274 1.528 1_455 S
C1272 H1256 0.961 . S
C1272 H1257 0.976 . S
C1272 H1258 0.943 1_655 S
C1272 C1271 1.501 1_655 S
C1273 H1259 0.965 1_655 S
C1273 H1260 0.956 . S
C1273 H1261 0.958 . S
C1273 C1271 1.561 1_654 S
C1274 C1271 1.528 1_655 S
C1274 C1275 1.396 . S
C1274 C1279 1.390 . S
C1275 C1269 1.465 1_655 S
C1275 C1274 1.396 . S
C1275 C1276 1.399 . S
C1276 H1262 0.929 . S
C1276 C1275 1.399 . S
C1276 C1277 1.385 . S
C1277 H1263 0.931 . S
C1277 C1276 1.385 . S
C1277 C1278 1.389 . S
C1278 C1277 1.389 . S
C1278 C1279 1.387 . S
C1279 H1264 0.930 . S
C1279 C1274 1.390 . S
C1279 C1278 1.387 . S
H1280 C1292 0.911 1_554 S
H1281 C1294 0.930 . S
H1282 C1295 0.930 . S
H1283 C1299 0.959 . S
H1284 C1299 0.959 . S
H1285 C1299 0.961 . S
H1286 C1300 0.960 . S
H1287 C1300 0.961 . S
H1288 C1300 0.959 . S
H1289 C1303 0.929 . S
H1290 C1304 0.931 . S
H1291 C1306 0.930 . S
C1292 H1280 0.911 1_556 S
C1292 C1293 1.425 . S
C1292 C1297 1.394 1_556 S
C1293 C1292 1.425 . S
C1293 C1294 1.376 . S
C1294 H1281 0.930 . S
C1294 C1293 1.376 . S
C1294 C1295 1.388 . S
C1295 H1282 0.930 . S
C1295 C1294 1.388 . S
C1295 C1296 1.390 . S
C1296 C1295 1.390 . S
C1296 C1297 1.394 1_556 S
C1296 C1302 1.465 . S
C1297 C1292 1.394 1_554 S
C1297 C1296 1.394 1_554 S
C1297 C1298 1.516 . S
C1298 C1297 1.516 . S
C1298 C1299 1.502 . S
C1298 C1300 1.561 . S
C1298 C1301 1.526 . S
C1299 H1283 0.959 . S
C1299 H1284 0.959 . S
C1299 H1285 0.961 . S
C1299 C1298 1.502 . S
C1300 H1286 0.960 . S
C1300 H1287 0.961 . S
C1300 H1288 0.959 . S
C1300 C1298 1.561 . S
C1301 C1298 1.526 . S
C1301 C1302 1.396 1_554 S
C1301 C1306 1.390 . S
C1302 C1296 1.465 . S
C1302 C1301 1.396 1_556 S
C1302 C1303 1.399 . S
C1303 H1289 0.929 . S
C1303 C1302 1.399 . S
C1303 C1304 1.385 . S
C1304 H1290 0.931 . S
C1304 C1303 1.385 . S
C1304 C1305 1.389 1_556 S
C1305 C1304 1.389 1_554 S
C1305 C1306 1.387 . S
C1306 H1291 0.930 . S
C1306 C1301 1.390 . S
C1306 C1305 1.387 . S
H1307 C1319 0.930 . S
H1308 C1321 0.930 . S
H1309 C1322 0.930 . S
H1310 C1326 0.959 . S
H1311 C1326 0.959 . S
H1312 C1326 0.961 . S
H1313 C1327 0.960 . S
H1314 C1327 0.961 . S
H1315 C1327 0.959 . S
H1316 C1330 0.929 . S
H1317 C1331 0.931 . S
H1318 C1333 0.930 . S
C1319 H1307 0.930 . S
C1319 C1320 1.399 . S
C1319 C1324 1.399 . S
C1320 C1319 1.399 . S
C1320 C1321 1.376 . S
C1321 H1308 0.930 . S
C1321 C1320 1.376 . S
C1321 C1322 1.388 . S
C1322 H1309 0.930 . S
C1322 C1321 1.388 . S
C1322 C1323 1.390 . S
C1323 C1322 1.390 . S
C1323 C1324 1.394 . S
C1323 C1329 1.465 . S
C1324 C1319 1.399 . S
C1324 C1323 1.394 . S
C1324 C1325 1.516 . S
C1325 C1324 1.516 . S
C1325 C1326 1.502 . S
C1325 C1327 1.561 . S
C1325 C1328 1.526 . S
C1326 H1310 0.959 . S
C1326 H1311 0.959 . S
C1326 H1312 0.961 . S
C1326 C1325 1.502 . S
C1327 H1313 0.960 . S
C1327 H1314 0.961 . S
C1327 H1315 0.959 . S
C1327 C1325 1.561 . S
C1328 C1325 1.526 . S
C1328 C1329 1.396 . S
C1328 C1333 1.390 . S
C1329 C1323 1.465 . S
C1329 C1328 1.396 . S
C1329 C1330 1.399 . S
C1330 H1316 0.929 . S
C1330 C1329 1.399 . S
C1330 C1331 1.385 . S
C1331 H1317 0.931 . S
C1331 C1330 1.385 . S
C1331 C1332 1.389 . S
C1332 C1331 1.389 . S
C1332 C1333 1.387 . S
C1333 H1318 0.930 . S
C1333 C1328 1.390 . S
C1333 C1332 1.387 . S
H1334 C1346 0.930 . S
H1335 C1348 0.930 . S
H1336 C1349 0.930 . S
H1337 C1353 0.959 . S
H1338 C1353 0.959 . S
H1339 C1353 0.961 . S
H1340 C1354 0.960 . S
H1341 C1354 0.961 . S
H1342 C1354 0.959 . S
H1343 C1357 0.929 . S
H1344 C1358 0.931 . S
H1345 C1360 0.930 . S
C1346 H1334 0.930 . S
C1346 C1347 1.399 . S
C1346 C1351 1.399 . S
C1347 C1346 1.399 . S
C1347 C1348 1.376 . S
C1348 H1335 0.930 . S
C1348 C1347 1.376 . S
C1348 C1349 1.388 . S
C1349 H1336 0.930 . S
C1349 C1348 1.388 . S
C1349 C1350 1.390 . S
C1350 C1349 1.390 . S
C1350 C1351 1.394 . S
C1350 C1356 1.465 . S
C1351 C1346 1.399 . S
C1351 C1350 1.394 . S
C1351 C1352 1.516 . S
C1352 C1351 1.516 . S
C1352 C1353 1.502 . S
C1352 C1354 1.561 . S
C1352 C1355 1.526 . S
C1353 H1337 0.959 . S
C1353 H1338 0.959 . S
C1353 H1339 0.961 . S
C1353 C1352 1.502 . S
C1354 H1340 0.960 . S
C1354 H1341 0.961 . S
C1354 H1342 0.959 . S
C1354 C1352 1.561 . S
C1355 C1352 1.526 . S
C1355 C1356 1.396 . S
C1355 C1360 1.390 . S
C1356 C1350 1.465 . S
C1356 C1355 1.396 . S
C1356 C1357 1.399 . S
C1357 H1343 0.929 . S
C1357 C1356 1.399 . S
C1357 C1358 1.385 . S
C1358 H1344 0.931 . S
C1358 C1357 1.385 . S
C1358 C1359 1.389 . S
C1359 C1358 1.389 . S
C1359 C1360 1.387 . S
C1360 H1345 0.930 . S
C1360 C1355 1.390 . S
C1360 C1359 1.387 . S
H1361 C1373 0.930 . S
H1362 C1375 0.930 . S
H1363 C1376 0.930 . S
H1364 C1380 0.959 . S
H1365 C1380 0.959 . S
H1366 C1380 0.961 . S
H1367 C1381 0.960 . S
H1368 C1381 0.961 . S
H1369 C1381 0.959 . S
H1370 C1384 0.929 . S
H1371 C1385 0.931 . S
H1372 C1387 0.930 . S
C1373 H1361 0.930 . S
C1373 C1374 1.399 . S
C1373 C1378 1.399 . S
C1374 C1373 1.399 . S
C1374 C1375 1.376 . S
C1375 H1362 0.930 . S
C1375 C1374 1.376 . S
C1375 C1376 1.388 . S
C1376 H1363 0.930 . S
C1376 C1375 1.388 . S
C1376 C1377 1.390 . S
C1377 C1376 1.390 . S
C1377 C1378 1.394 . S
C1377 C1383 1.465 . S
C1378 C1373 1.399 . S
C1378 C1377 1.394 . S
C1378 C1379 1.516 . S
C1379 C1378 1.516 . S
C1379 C1380 1.502 . S
C1379 C1381 1.561 . S
C1379 C1382 1.526 . S
C1380 H1364 0.959 . S
C1380 H1365 0.959 . S
C1380 H1366 0.961 . S
C1380 C1379 1.502 . S
C1381 H1367 0.960 . S
C1381 H1368 0.961 . S
C1381 H1369 0.959 . S
C1381 C1379 1.561 . S
C1382 C1379 1.526 . S
C1382 C1383 1.396 . S
C1382 C1387 1.390 . S
C1383 C1377 1.465 . S
C1383 C1382 1.396 . S
C1383 C1384 1.399 . S
C1384 H1370 0.929 . S
C1384 C1383 1.399 . S
C1384 C1385 1.385 . S
C1385 H1371 0.931 . S
C1385 C1384 1.385 . S
C1385 C1386 1.389 . S
C1386 C1385 1.389 . S
C1386 C1387 1.387 . S
C1387 H1372 0.930 . S
C1387 C1382 1.390 . S
C1387 C1386 1.387 . S
H1388 C1400 0.930 . S
H1389 C1402 0.930 . S
H1390 C1403 0.930 . S
H1391 C1407 0.959 . S
H1392 C1407 0.959 . S
H1393 C1407 0.961 . S
H1394 C1408 0.960 . S
H1395 C1408 0.961 . S
H1396 C1408 0.959 . S
H1397 C1411 0.929 . S
H1398 C1412 0.931 . S
H1399 C1414 0.930 . S
C1400 H1388 0.930 . S
C1400 C1401 1.399 . S
C1400 C1405 1.399 . S
C1401 C1400 1.399 . S
C1401 C1402 1.376 1_554 S
C1402 H1389 0.930 . S
C1402 C1401 1.376 1_556 S
C1402 C1403 1.388 . S
C1403 H1390 0.930 . S
C1403 C1402 1.388 . S
C1403 C1404 1.390 . S
C1404 C1403 1.390 . S
C1404 C1405 1.394 1_556 S
C1404 C1410 1.465 . S
C1405 C1400 1.399 . S
C1405 C1404 1.394 1_554 S
C1405 C1406 1.516 . S
C1406 C1405 1.516 . S
C1406 C1407 1.502 . S
C1406 C1408 1.561 . S
C1406 C1409 1.526 . S
C1407 H1391 0.959 . S
C1407 H1392 0.959 . S
C1407 H1393 0.961 . S
C1407 C1406 1.502 . S
C1408 H1394 0.960 . S
C1408 H1395 0.961 . S
C1408 H1396 0.959 . S
C1408 C1406 1.561 . S
C1409 C1406 1.526 . S
C1409 C1410 1.396 1_554 S
C1409 C1414 1.390 . S
C1410 C1404 1.465 . S
C1410 C1409 1.396 1_556 S
C1410 C1411 1.399 . S
C1411 H1397 0.929 . S
C1411 C1410 1.399 . S
C1411 C1412 1.385 . S
C1412 H1398 0.931 . S
C1412 C1411 1.385 . S
C1412 C1413 1.389 . S
C1413 C1412 1.389 . S
C1413 C1414 1.387 1_556 S
C1414 H1399 0.930 . S
C1414 C1409 1.390 . S
C1414 C1413 1.387 1_554 S
H1415 C1427 0.930 . S
H1416 C1429 0.930 . S
H1417 C1430 0.930 . S
H1418 C1434 0.959 . S
H1419 C1434 0.959 . S
H1420 C1434 0.961 . S
H1421 C1435 0.960 . S
H1422 C1435 0.961 . S
H1423 C1435 0.959 . S
H1424 C1438 0.929 . S
H1425 C1439 0.931 . S
H1426 C1441 0.930 . S
C1427 H1415 0.930 . S
C1427 C1428 1.399 . S
C1427 C1432 1.399 . S
C1428 C1427 1.399 . S
C1428 C1429 1.376 . S
C1429 H1416 0.930 . S
C1429 C1428 1.376 . S
C1429 C1430 1.388 . S
C1430 H1417 0.930 . S
C1430 C1429 1.388 . S
C1430 C1431 1.390 . S
C1431 C1430 1.390 . S
C1431 C1432 1.394 . S
C1431 C1437 1.465 . S
C1432 C1427 1.399 . S
C1432 C1431 1.394 . S
C1432 C1433 1.516 . S
C1433 C1432 1.516 . S
C1433 C1434 1.502 . S
C1433 C1435 1.561 . S
C1433 C1436 1.526 . S
C1434 H1418 0.959 . S
C1434 H1419 0.959 . S
C1434 H1420 0.961 . S
C1434 C1433 1.502 . S
C1435 H1421 0.960 . S
C1435 H1422 0.961 . S
C1435 H1423 0.959 . S
C1435 C1433 1.561 . S
C1436 C1433 1.526 . S
C1436 C1437 1.396 . S
C1436 C1441 1.390 . S
C1437 C1431 1.465 . S
C1437 C1436 1.396 . S
C1437 C1438 1.399 . S
C1438 H1424 0.929 . S
C1438 C1437 1.399 . S
C1438 C1439 1.385 . S
C1439 H1425 0.931 . S
C1439 C1438 1.385 . S
C1439 C1440 1.389 . S
C1440 C1439 1.389 . S
C1440 C1441 1.387 . S
C1441 H1426 0.930 . S
C1441 C1436 1.390 . S
C1441 C1440 1.387 . S
H1442 C1454 0.930 . S
H1443 C1456 0.930 . S
H1444 C1457 0.930 . S
H1445 C1461 0.959 . S
H1446 C1461 0.959 . S
H1447 C1461 0.961 . S
H1448 C1462 0.960 . S
H1449 C1462 0.961 . S
H1450 C1462 0.959 . S
H1451 C1465 0.929 . S
H1452 C1466 0.931 . S
H1453 C1468 0.930 . S
C1454 H1442 0.930 . S
C1454 C1455 1.399 . S
C1454 C1459 1.399 . S
C1455 C1454 1.399 . S
C1455 C1456 1.376 . S
C1456 H1443 0.930 . S
C1456 C1455 1.376 . S
C1456 C1457 1.388 . S
C1457 H1444 0.930 . S
C1457 C1456 1.388 . S
C1457 C1458 1.390 . S
C1458 C1457 1.390 . S
C1458 C1459 1.394 . S
C1458 C1464 1.465 . S
C1459 C1454 1.399 . S
C1459 C1458 1.394 . S
C1459 C1460 1.516 . S
C1460 C1459 1.516 . S
C1460 C1461 1.502 . S
C1460 C1462 1.561 . S
C1460 C1463 1.526 . S
C1461 H1445 0.959 . S
C1461 H1446 0.959 . S
C1461 H1447 0.961 . S
C1461 C1460 1.502 . S
C1462 H1448 0.960 . S
C1462 H1449 0.961 . S
C1462 H1450 0.959 . S
C1462 C1460 1.561 . S
C1463 C1460 1.526 . S
C1463 C1464 1.396 . S
C1463 C1468 1.390 . S
C1464 C1458 1.465 . S
C1464 C1463 1.396 . S
C1464 C1465 1.399 . S
C1465 H1451 0.929 . S
C1465 C1464 1.399 . S
C1465 C1466 1.385 . S
C1466 H1452 0.931 . S
C1466 C1465 1.385 . S
C1466 C1467 1.389 . S
C1467 C1466 1.389 . S
C1467 C1468 1.387 . S
C1468 H1453 0.930 . S
C1468 C1463 1.390 . S
C1468 C1467 1.387 . S
H1469 C1481 0.930 . S
H1470 C1483 0.930 . S
H1471 C1484 0.930 . S
H1472 C1488 0.959 . S
H1473 C1488 0.959 . S
H1474 C1488 0.961 . S
H1475 C1489 0.960 . S
H1476 C1489 0.961 . S
H1477 C1489 0.959 . S
H1478 C1492 0.929 . S
H1479 C1493 0.931 . S
H1480 C1495 0.930 . S
C1481 H1469 0.930 . S
C1481 C1482 1.399 . S
C1481 C1486 1.399 . S
C1482 C1481 1.399 . S
C1482 C1483 1.376 . S
C1483 H1470 0.930 . S
C1483 C1482 1.376 . S
C1483 C1484 1.388 . S
C1484 H1471 0.930 . S
C1484 C1483 1.388 . S
C1484 C1485 1.390 . S
C1485 C1484 1.390 . S
C1485 C1486 1.394 . S
C1485 C1491 1.465 . S
C1486 C1481 1.399 . S
C1486 C1485 1.394 . S
C1486 C1487 1.516 . S
C1487 C1486 1.516 . S
C1487 C1488 1.502 . S
C1487 C1489 1.561 . S
C1487 C1490 1.526 . S
C1488 H1472 0.959 . S
C1488 H1473 0.959 . S
C1488 H1474 0.961 . S
C1488 C1487 1.502 . S
C1489 H1475 0.960 . S
C1489 H1476 0.961 . S
C1489 H1477 0.959 . S
C1489 C1487 1.561 . S
C1490 C1487 1.526 . S
C1490 C1491 1.396 . S
C1490 C1495 1.390 . S
C1491 C1485 1.465 . S
C1491 C1490 1.396 . S
C1491 C1492 1.399 . S
C1492 H1478 0.929 . S
C1492 C1491 1.399 . S
C1492 C1493 1.385 . S
C1493 H1479 0.931 . S
C1493 C1492 1.385 . S
C1493 C1494 1.389 . S
C1494 C1493 1.389 . S
C1494 C1495 1.387 . S
C1495 H1480 0.930 . S
C1495 C1490 1.390 . S
C1495 C1494 1.387 . S
H1496 C1508 0.930 . S
H1497 C1510 0.930 . S
H1498 C1511 0.930 . S
H1499 C1515 0.959 . S
H1500 C1515 0.959 . S
H1501 C1515 0.961 . S
H1502 C1516 0.960 . S
H1503 C1516 0.961 . S
H1504 C1516 0.959 . S
H1505 C1519 0.929 . S
H1506 C1520 0.931 . S
H1507 C1522 0.930 . S
C1508 H1496 0.930 . S
C1508 C1509 1.399 . S
C1508 C1513 1.399 . S
C1509 C1508 1.399 . S
C1509 C1510 1.376 . S
C1510 H1497 0.930 . S
C1510 C1509 1.376 . S
C1510 C1511 1.388 . S
C1511 H1498 0.930 . S
C1511 C1510 1.388 . S
C1511 C1512 1.390 . S
C1512 C1511 1.390 . S
C1512 C1513 1.394 . S
C1512 C1518 1.465 1_545 S
C1513 C1508 1.399 . S
C1513 C1512 1.394 . S
C1513 C1514 1.516 1_545 S
C1514 C1513 1.516 1_565 S
C1514 C1515 1.502 . S
C1514 C1516 1.561 . S
C1514 C1517 1.526 . S
C1515 H1499 0.959 . S
C1515 H1500 0.959 . S
C1515 H1501 0.961 . S
C1515 C1514 1.502 . S
C1516 H1502 0.960 . S
C1516 H1503 0.961 . S
C1516 H1504 0.959 . S
C1516 C1514 1.561 . S
C1517 C1514 1.526 . S
C1517 C1518 1.396 . S
C1517 C1522 1.390 . S
C1518 C1512 1.465 1_565 S
C1518 C1517 1.396 . S
C1518 C1519 1.399 . S
C1519 H1505 0.929 . S
C1519 C1518 1.399 . S
C1519 C1520 1.385 . S
C1520 H1506 0.931 . S
C1520 C1519 1.385 . S
C1520 C1521 1.389 . S
C1521 C1520 1.389 . S
C1521 C1522 1.387 . S
C1522 H1507 0.930 . S
C1522 C1517 1.390 . S
C1522 C1521 1.387 . S
H1523 C1535 0.930 . S
H1524 C1537 0.930 . S
H1525 C1538 0.930 . S
H1526 C1542 0.959 . S
H1527 C1542 0.959 . S
H1528 C1542 0.961 . S
H1529 C1543 0.960 . S
H1530 C1543 0.961 . S
H1531 C1543 0.959 . S
H1532 C1546 0.929 . S
H1533 C1547 0.931 . S
H1534 C1549 0.930 . S
C1535 H1523 0.930 . S
C1535 C1536 1.399 . S
C1535 C1540 1.399 . S
C1536 C1535 1.399 . S
C1536 C1537 1.376 . S
C1537 H1524 0.930 . S
C1537 C1536 1.376 . S
C1537 C1538 1.388 . S
C1538 H1525 0.930 . S
C1538 C1537 1.388 . S
C1538 C1539 1.390 . S
C1539 C1538 1.390 . S
C1539 C1540 1.394 . S
C1539 C1545 1.465 . S
C1540 C1535 1.399 . S
C1540 C1539 1.394 . S
C1540 C1541 1.516 . S
C1541 C1540 1.516 . S
C1541 C1542 1.502 . S
C1541 C1543 1.561 . S
C1541 C1544 1.526 . S
C1542 H1526 0.959 . S
C1542 H1527 0.959 . S
C1542 H1528 0.961 . S
C1542 C1541 1.502 . S
C1543 H1529 0.960 . S
C1543 H1530 0.961 . S
C1543 H1531 0.959 . S
C1543 C1541 1.561 . S
C1544 C1541 1.526 . S
C1544 C1545 1.396 . S
C1544 C1549 1.390 . S
C1545 C1539 1.465 . S
C1545 C1544 1.396 . S
C1545 C1546 1.399 . S
C1546 H1532 0.929 . S
C1546 C1545 1.399 . S
C1546 C1547 1.385 . S
C1547 H1533 0.931 . S
C1547 C1546 1.385 . S
C1547 C1548 1.389 . S
C1548 C1547 1.389 . S
C1548 C1549 1.387 . S
C1549 H1534 0.930 . S
C1549 C1544 1.390 . S
C1549 C1548 1.387 . S
H1550 C1562 0.930 . S
H1551 C1564 0.930 . S
H1552 C1565 0.930 . S
H1553 C1569 0.959 . S
H1554 C1569 0.959 . S
H1555 C1569 0.939 1_565 S
H1556 C1570 0.960 . S
H1557 C1570 0.961 . S
H1558 C1570 0.959 . S
H1559 C1573 0.929 . S
H1560 C1574 0.931 . S
H1561 C1576 0.952 . S
C1562 H1550 0.930 . S
C1562 C1563 1.399 . S
C1562 C1567 1.399 . S
C1563 C1562 1.399 . S
C1563 C1564 1.376 1_554 S
C1564 H1551 0.930 . S
C1564 C1563 1.376 1_556 S
C1564 C1565 1.388 . S
C1565 H1552 0.930 . S
C1565 C1564 1.388 . S
C1565 C1566 1.390 . S
C1566 C1565 1.390 . S
C1566 C1567 1.394 1_556 S
C1566 C1572 1.465 1_565 S
C1567 C1562 1.399 . S
C1567 C1566 1.394 1_554 S
C1567 C1568 1.516 1_565 S
C1568 C1567 1.516 1_545 S
C1568 C1569 1.502 . S
C1568 C1570 1.561 . S
C1568 C1571 1.526 . S
C1569 H1553 0.959 . S
C1569 H1554 0.959 . S
C1569 H1555 0.939 1_545 S
C1569 C1568 1.502 . S
C1570 H1556 0.960 . S
C1570 H1557 0.961 . S
C1570 H1558 0.959 . S
C1570 C1568 1.561 . S
C1571 C1568 1.526 . S
C1571 C1572 1.396 1_554 S
C1571 C1576 1.394 . S
C1572 C1566 1.465 1_545 S
C1572 C1571 1.396 1_556 S
C1572 C1573 1.399 . S
C1573 H1559 0.929 . S
C1573 C1572 1.399 . S
C1573 C1574 1.385 . S
C1574 H1560 0.931 . S
C1574 C1573 1.385 . S
C1574 C1575 1.389 . S
C1575 C1574 1.389 . S
C1575 C1576 1.360 1_556 S
C1576 H1561 0.952 . S
C1576 C1571 1.394 . S
C1576 C1575 1.360 1_554 S
H1577 C1589 0.930 . S
H1578 C1591 0.930 . S
H1579 C1592 0.930 . S
H1580 C1596 0.959 . S
H1581 C1596 0.959 . S
H1582 C1596 0.961 . S
H1583 C1597 0.960 . S
H1584 C1597 0.961 . S
H1585 C1597 0.959 . S
H1586 C1600 0.929 . S
H1587 C1601 0.931 . S
H1588 C1603 0.930 . S
C1589 H1577 0.930 . S
C1589 C1590 1.399 . S
C1589 C1594 1.399 . S
C1590 C1589 1.399 . S
C1590 C1591 1.376 . S
C1591 H1578 0.930 . S
C1591 C1590 1.376 . S
C1591 C1592 1.388 . S
C1592 H1579 0.930 . S
C1592 C1591 1.388 . S
C1592 C1593 1.390 . S
C1593 C1592 1.390 . S
C1593 C1594 1.394 . S
C1593 C1599 1.465 . S
C1594 C1589 1.399 . S
C1594 C1593 1.394 . S
C1594 C1595 1.516 . S
C1595 C1594 1.516 . S
C1595 C1596 1.502 . S
C1595 C1597 1.561 . S
C1595 C1598 1.526 . S
C1596 H1580 0.959 . S
C1596 H1581 0.959 . S
C1596 H1582 0.961 . S
C1596 C1595 1.502 . S
C1597 H1583 0.960 . S
C1597 H1584 0.961 . S
C1597 H1585 0.959 . S
C1597 C1595 1.561 . S
C1598 C1595 1.526 . S
C1598 C1599 1.396 . S
C1598 C1603 1.390 . S
C1599 C1593 1.465 . S
C1599 C1598 1.396 . S
C1599 C1600 1.399 . S
C1600 H1586 0.929 . S
C1600 C1599 1.399 . S
C1600 C1601 1.385 . S
C1601 H1587 0.931 . S
C1601 C1600 1.385 . S
C1601 C1602 1.389 . S
C1602 C1601 1.389 . S
C1602 C1603 1.387 . S
C1603 H1588 0.930 . S
C1603 C1598 1.390 . S
C1603 C1602 1.387 . S
H1604 C1616 0.930 . S
H1605 C1618 0.930 . S
H1606 C1619 0.930 . S
H1607 C1623 0.959 . S
H1608 C1623 0.959 . S
H1609 C1623 0.961 . S
H1610 C1624 0.960 . S
H1611 C1624 0.961 . S
H1612 C1624 0.959 . S
H1613 C1627 0.929 . S
H1614 C1628 0.931 . S
H1615 C1630 0.930 . S
C1616 H1604 0.930 . S
C1616 C1617 1.399 . S
C1616 C1621 1.399 . S
C1617 C1616 1.399 . S
C1617 C1618 1.376 . S
C1618 H1605 0.930 . S
C1618 C1617 1.376 . S
C1618 C1619 1.388 . S
C1619 H1606 0.930 . S
C1619 C1618 1.388 . S
C1619 C1620 1.390 . S
C1620 C1619 1.390 . S
C1620 C1621 1.394 . S
C1620 C1626 1.465 1_545 S
C1621 C1616 1.399 . S
C1621 C1620 1.394 . S
C1621 C1622 1.516 . S
C1622 C1621 1.516 . S
C1622 C1623 1.502 . S
C1622 C1624 1.561 . S
C1622 C1625 1.526 1_545 S
C1623 H1607 0.959 . S
C1623 H1608 0.959 . S
C1623 H1609 0.961 . S
C1623 C1622 1.502 . S
C1624 H1610 0.960 . S
C1624 H1611 0.961 . S
C1624 H1612 0.959 . S
C1624 C1622 1.561 . S
C1625 C1622 1.526 1_565 S
C1625 C1626 1.396 . S
C1625 C1630 1.390 . S
C1626 C1620 1.465 1_565 S
C1626 C1625 1.396 . S
C1626 C1627 1.399 . S
C1627 H1613 0.929 . S
C1627 C1626 1.399 . S
C1627 C1628 1.385 . S
C1628 H1614 0.931 . S
C1628 C1627 1.385 . S
C1628 C1629 1.389 . S
C1629 C1628 1.389 . S
C1629 C1630 1.387 . S
C1630 H1615 0.930 . S
C1630 C1625 1.390 . S
C1630 C1629 1.387 . S
H1631 C1643 0.930 . S
H1632 C1645 0.930 . S
H1633 C1646 0.930 . S
H1634 C1650 0.959 . S
H1635 C1650 0.959 . S
H1636 C1650 0.961 . S
H1637 C1651 0.960 . S
H1638 C1651 0.961 . S
H1639 C1651 0.959 . S
H1640 C1654 0.929 . S
H1641 C1655 0.931 . S
H1642 C1657 0.930 . S
C1643 H1631 0.930 . S
C1643 C1644 1.399 . S
C1643 C1648 1.399 . S
C1644 C1643 1.399 . S
C1644 C1645 1.376 . S
C1645 H1632 0.930 . S
C1645 C1644 1.376 . S
C1645 C1646 1.388 . S
C1646 H1633 0.930 . S
C1646 C1645 1.388 . S
C1646 C1647 1.390 . S
C1647 C1646 1.390 . S
C1647 C1648 1.394 . S
C1647 C1653 1.465 . S
C1648 C1643 1.399 . S
C1648 C1647 1.394 . S
C1648 C1649 1.516 . S
C1649 C1648 1.516 . S
C1649 C1650 1.502 . S
C1649 C1651 1.561 . S
C1649 C1652 1.526 . S
C1650 H1634 0.959 . S
C1650 H1635 0.959 . S
C1650 H1636 0.961 . S
C1650 C1649 1.502 . S
C1651 H1637 0.960 . S
C1651 H1638 0.961 . S
C1651 H1639 0.959 . S
C1651 C1649 1.561 . S
C1652 C1649 1.526 . S
C1652 C1653 1.396 . S
C1652 C1657 1.390 . S
C1653 C1647 1.465 . S
C1653 C1652 1.396 . S
C1653 C1654 1.399 . S
C1654 H1640 0.929 . S
C1654 C1653 1.399 . S
C1654 C1655 1.385 . S
C1655 H1641 0.931 . S
C1655 C1654 1.385 . S
C1655 C1656 1.389 . S
C1656 C1655 1.389 . S
C1656 C1657 1.387 . S
C1657 H1642 0.930 . S
C1657 C1652 1.390 . S
C1657 C1656 1.387 . S
H1658 C1670 0.930 . S
H1659 C1672 0.930 . S
H1660 C1673 0.930 . S
H1661 C1677 0.959 . S
H1662 C1677 0.959 . S
H1663 C1677 0.961 . S
H1664 C1678 0.960 . S
H1665 C1678 0.961 . S
H1666 C1678 0.959 . S
H1667 C1681 0.929 . S
H1668 C1682 0.931 . S
H1669 C1684 0.984 . S
C1670 H1658 0.930 . S
C1670 C1671 1.399 . S
C1670 C1675 1.399 . S
C1671 C1670 1.399 . S
C1671 C1672 1.376 1_554 S
C1672 H1659 0.930 . S
C1672 C1671 1.376 1_556 S
C1672 C1673 1.388 . S
C1673 H1660 0.930 . S
C1673 C1672 1.388 . S
C1673 C1674 1.390 . S
C1674 C1673 1.390 . S
C1674 C1675 1.394 1_556 S
C1674 C1680 1.465 1_565 S
C1675 C1670 1.399 . S
C1675 C1674 1.394 1_554 S
C1675 C1676 1.516 1_565 S
C1676 C1675 1.516 1_545 S
C1676 C1677 1.502 . S
C1676 C1678 1.561 . S
C1676 C1679 1.526 . S
C1677 H1661 0.959 . S
C1677 H1662 0.959 . S
C1677 H1663 0.961 . S
C1677 C1676 1.502 . S
C1678 H1664 0.960 . S
C1678 H1665 0.961 . S
C1678 H1666 0.959 . S
C1678 C1676 1.561 . S
C1679 C1676 1.526 . S
C1679 C1680 1.396 1_554 S
C1679 C1684 1.400 . S
C1680 C1674 1.465 1_545 S
C1680 C1679 1.396 1_556 S
C1680 C1681 1.399 . S
C1681 H1667 0.929 . S
C1681 C1680 1.399 . S
C1681 C1682 1.385 . S
C1682 H1668 0.931 . S
C1682 C1681 1.385 . S
C1682 C1683 1.389 . S
C1683 C1682 1.389 . S
C1683 C1684 1.325 1_556 S
C1684 H1669 0.984 . S
C1684 C1679 1.400 . S
C1684 C1683 1.325 1_554 S
H1685 C1697 0.930 . S
H1686 C1699 0.930 . S
H1687 C1700 0.930 . S
H1688 C1704 0.959 . S
H1689 C1704 0.959 . S
H1690 C1704 0.961 . S
H1691 C1705 0.960 . S
H1692 C1705 0.961 . S
H1693 C1705 0.959 . S
H1694 C1708 0.929 . S
H1695 C1709 0.931 . S
H1696 C1711 0.930 . S
C1697 H1685 0.930 . S
C1697 C1698 1.399 . S
C1697 C1702 1.399 . S
C1698 C1697 1.399 . S
C1698 C1699 1.376 . S
C1699 H1686 0.930 . S
C1699 C1698 1.376 . S
C1699 C1700 1.388 . S
C1700 H1687 0.930 . S
C1700 C1699 1.388 . S
C1700 C1701 1.390 . S
C1701 C1700 1.390 . S
C1701 C1702 1.394 . S
C1701 C1707 1.465 . S
C1702 C1697 1.399 . S
C1702 C1701 1.394 . S
C1702 C1703 1.516 . S
C1703 C1702 1.516 . S
C1703 C1704 1.502 . S
C1703 C1705 1.561 . S
C1703 C1706 1.526 . S
C1704 H1688 0.959 . S
C1704 H1689 0.959 . S
C1704 H1690 0.961 . S
C1704 C1703 1.502 . S
C1705 H1691 0.960 . S
C1705 H1692 0.961 . S
C1705 H1693 0.959 . S
C1705 C1703 1.561 . S
C1706 C1703 1.526 . S
C1706 C1707 1.396 . S
C1706 C1711 1.390 . S
C1707 C1701 1.465 . S
C1707 C1706 1.396 . S
C1707 C1708 1.399 . S
C1708 H1694 0.929 . S
C1708 C1707 1.399 . S
C1708 C1709 1.385 . S
C1709 H1695 0.931 . S
C1709 C1708 1.385 . S
C1709 C1710 1.389 . S
C1710 C1709 1.389 . S
C1710 C1711 1.387 . S
C1711 H1696 0.930 . S
C1711 C1706 1.390 . S
C1711 C1710 1.387 . S
H1712 C1724 0.930 . S
H1713 C1726 0.930 . S
H1714 C1727 0.919 1_556 S
H1715 C1731 0.959 . S
H1716 C1731 0.959 . S
H1717 C1731 0.961 . S
H1718 C1732 0.960 . S
H1719 C1732 0.961 . S
H1720 C1732 0.959 . S
H1721 C1735 0.893 1_556 S
H1722 C1736 0.931 . S
H1723 C1738 0.930 . S
C1724 H1712 0.930 . S
C1724 C1725 1.399 . S
C1724 C1729 1.399 . S
C1725 C1724 1.399 . S
C1725 C1726 1.376 . S
C1726 H1713 0.930 . S
C1726 C1725 1.376 . S
C1726 C1727 1.388 . S
C1727 H1714 0.919 1_554 S
C1727 C1726 1.388 . S
C1727 C1728 1.390 . S
C1728 C1727 1.390 . S
C1728 C1729 1.394 . S
C1728 C1734 1.465 . S
C1729 C1724 1.399 . S
C1729 C1728 1.394 . S
C1729 C1730 1.516 . S
C1730 C1729 1.516 . S
C1730 C1731 1.502 . S
C1730 C1732 1.561 . S
C1730 C1733 1.526 . S
C1731 H1715 0.959 . S
C1731 H1716 0.959 . S
C1731 H1717 0.961 . S
C1731 C1730 1.502 . S
C1732 H1718 0.960 . S
C1732 H1719 0.961 . S
C1732 H1720 0.959 . S
C1732 C1730 1.561 . S
C1733 C1730 1.526 . S
C1733 C1734 1.396 . S
C1733 C1738 1.390 . S
C1734 C1728 1.465 . S
C1734 C1733 1.396 . S
C1734 C1735 1.399 . S
C1735 H1721 0.893 1_554 S
C1735 C1734 1.399 . S
C1735 C1736 1.385 . S
C1736 H1722 0.931 . S
C1736 C1735 1.385 . S
C1736 C1737 1.389 . S
C1737 C1736 1.389 . S
C1737 C1738 1.387 . S
C1738 H1723 0.930 . S
C1738 C1733 1.390 . S
C1738 C1737 1.387 . S
H1739 C1751 0.930 . S
H1740 C1753 0.930 . S
H1741 C1754 0.930 . S
H1742 C1758 0.959 . S
H1743 C1758 0.959 . S
H1744 C1758 0.961 . S
H1745 C1759 0.960 . S
H1746 C1759 0.961 . S
H1747 C1759 0.959 . S
H1748 C1762 0.929 . S
H1749 C1763 0.931 . S
H1750 C1765 0.930 . S
C1751 H1739 0.930 . S
C1751 C1752 1.399 . S
C1751 C1756 1.399 . S
C1752 C1751 1.399 . S
C1752 C1753 1.376 . S
C1753 H1740 0.930 . S
C1753 C1752 1.376 . S
C1753 C1754 1.388 . S
C1754 H1741 0.930 . S
C1754 C1753 1.388 . S
C1754 C1755 1.390 . S
C1755 C1754 1.390 . S
C1755 C1756 1.394 . S
C1755 C1761 1.465 . S
C1756 C1751 1.399 . S
C1756 C1755 1.394 . S
C1756 C1757 1.516 . S
C1757 C1756 1.516 . S
C1757 C1758 1.502 . S
C1757 C1759 1.561 . S
C1757 C1760 1.526 . S
C1758 H1742 0.959 . S
C1758 H1743 0.959 . S
C1758 H1744 0.961 . S
C1758 C1757 1.502 . S
C1759 H1745 0.960 . S
C1759 H1746 0.961 . S
C1759 H1747 0.959 . S
C1759 C1757 1.561 . S
C1760 C1757 1.526 . S
C1760 C1761 1.396 . S
C1760 C1765 1.390 . S
C1761 C1755 1.465 . S
C1761 C1760 1.396 . S
C1761 C1762 1.399 . S
C1762 H1748 0.929 . S
C1762 C1761 1.399 . S
C1762 C1763 1.385 . S
C1763 H1749 0.931 . S
C1763 C1762 1.385 . S
C1763 C1764 1.389 . S
C1764 C1763 1.389 . S
C1764 C1765 1.387 . S
C1765 H1750 0.930 . S
C1765 C1760 1.390 . S
C1765 C1764 1.387 . S
H1766 C1778 0.930 . S
H1767 C1780 0.930 . S
H1768 C1781 0.930 . S
H1769 C1785 0.959 . S
H1770 C1785 0.959 . S
H1771 C1785 0.961 . S
H1772 C1786 0.960 . S
H1773 C1786 0.961 . S
H1774 C1786 0.959 . S
H1775 C1789 0.929 . S
H1776 C1790 0.931 . S
H1777 C1792 0.930 . S
C1778 H1766 0.930 . S
C1778 C1779 1.399 . S
C1778 C1783 1.399 . S
C1779 C1778 1.399 . S
C1779 C1780 1.376 . S
C1780 H1767 0.930 . S
C1780 C1779 1.376 . S
C1780 C1781 1.388 . S
C1781 H1768 0.930 . S
C1781 C1780 1.388 . S
C1781 C1782 1.390 . S
C1782 C1781 1.390 . S
C1782 C1783 1.394 . S
C1782 C1788 1.465 . S
C1783 C1778 1.399 . S
C1783 C1782 1.394 . S
C1783 C1784 1.516 . S
C1784 C1783 1.516 . S
C1784 C1785 1.502 . S
C1784 C1786 1.561 . S
C1784 C1787 1.526 . S
C1785 H1769 0.959 . S
C1785 H1770 0.959 . S
C1785 H1771 0.961 . S
C1785 C1784 1.502 . S
C1786 H1772 0.960 . S
C1786 H1773 0.961 . S
C1786 H1774 0.959 . S
C1786 C1784 1.561 . S
C1787 C1784 1.526 . S
C1787 C1788 1.396 . S
C1787 C1792 1.390 . S
C1788 C1782 1.465 . S
C1788 C1787 1.396 . S
C1788 C1789 1.399 . S
C1789 H1775 0.929 . S
C1789 C1788 1.399 . S
C1789 C1790 1.385 . S
C1790 H1776 0.931 . S
C1790 C1789 1.385 . S
C1790 C1791 1.389 . S
C1791 C1790 1.389 . S
C1791 C1792 1.387 . S
C1792 H1777 0.930 . S
C1792 C1787 1.390 . S
C1792 C1791 1.387 . S
H1793 C1805 0.930 . S
H1794 C1807 0.930 . S
H1795 C1808 0.930 . S
H1796 C1812 0.961 . S
H1797 C1812 0.971 . S
H1798 C1812 0.948 1_655 S
H1799 C1813 0.960 1_655 S
H1800 C1813 0.961 . S
H1801 C1813 0.959 . S
H1802 C1816 0.929 . S
H1803 C1817 0.931 . S
H1804 C1819 0.930 . S
C1805 H1793 0.930 . S
C1805 C1806 1.399 . S
C1805 C1810 1.399 . S
C1806 C1805 1.399 . S
C1806 C1807 1.376 . S
C1807 H1794 0.930 . S
C1807 C1806 1.376 . S
C1807 C1808 1.388 . S
C1808 H1795 0.930 . S
C1808 C1807 1.388 . S
C1808 C1809 1.390 . S
C1809 C1808 1.390 . S
C1809 C1810 1.394 . S
C1809 C1815 1.465 1_655 S
C1810 C1805 1.399 . S
C1810 C1809 1.394 . S
C1810 C1811 1.513 . S
C1811 C1810 1.513 . S
C1811 C1812 1.502 1_655 S
C1811 C1813 1.561 1_655 S
C1811 C1814 1.529 1_655 S
C1812 H1796 0.961 . S
C1812 H1797 0.971 . S
C1812 H1798 0.948 1_455 S
C1812 C1811 1.502 1_455 S
C1813 H1799 0.960 1_455 S
C1813 H1800 0.961 . S
C1813 H1801 0.959 . S
C1813 C1811 1.561 1_455 S
C1814 C1811 1.529 1_455 S
C1814 C1815 1.396 . S
C1814 C1819 1.390 . S
C1815 C1809 1.465 1_455 S
C1815 C1814 1.396 . S
C1815 C1816 1.399 . S
C1816 H1802 0.929 . S
C1816 C1815 1.399 . S
C1816 C1817 1.385 . S
C1817 H1803 0.931 . S
C1817 C1816 1.385 . S
C1817 C1818 1.389 . S
C1818 C1817 1.389 . S
C1818 C1819 1.387 . S
C1819 H1804 0.930 . S
C1819 C1814 1.390 . S
C1819 C1818 1.387 . S
H1820 C1832 0.930 . S
H1821 C1834 0.930 . S
H1822 C1835 0.930 1_554 S
H1823 C1839 0.959 . S
H1824 C1839 0.959 . S
H1825 C1839 0.961 . S
H1826 C1840 0.960 . S
H1827 C1840 0.961 . S
H1828 C1840 0.959 . S
H1829 C1843 0.929 1_554 S
H1830 C1844 0.931 . S
H1831 C1846 0.930 . S
C1832 H1820 0.930 . S
C1832 C1833 1.399 . S
C1832 C1837 1.399 . S
C1833 C1832 1.399 . S
C1833 C1834 1.376 . S
C1834 H1821 0.930 . S
C1834 C1833 1.376 . S
C1834 C1835 1.388 . S
C1835 H1822 0.930 1_556 S
C1835 C1834 1.388 . S
C1835 C1836 1.390 . S
C1836 C1835 1.390 . S
C1836 C1837 1.394 . S
C1836 C1842 1.465 . S
C1837 C1832 1.399 . S
C1837 C1836 1.394 . S
C1837 C1838 1.516 . S
C1838 C1837 1.516 . S
C1838 C1839 1.502 . S
C1838 C1840 1.561 . S
C1838 C1841 1.526 . S
C1839 H1823 0.959 . S
C1839 H1824 0.959 . S
C1839 H1825 0.961 . S
C1839 C1838 1.502 . S
C1840 H1826 0.960 . S
C1840 H1827 0.961 . S
C1840 H1828 0.959 . S
C1840 C1838 1.561 . S
C1841 C1838 1.526 . S
C1841 C1842 1.396 . S
C1841 C1846 1.390 . S
C1842 C1836 1.465 . S
C1842 C1841 1.396 . S
C1842 C1843 1.399 . S
C1843 H1829 0.929 1_556 S
C1843 C1842 1.399 . S
C1843 C1844 1.385 . S
C1844 H1830 0.931 . S
C1844 C1843 1.385 . S
C1844 C1845 1.389 . S
C1845 C1844 1.389 . S
C1845 C1846 1.387 . S
C1846 H1831 0.930 . S
C1846 C1841 1.390 . S
C1846 C1845 1.387 . S
H1847 C1859 0.930 . S
H1848 C1861 0.930 . S
H1849 C1862 0.930 . S
H1850 C1866 0.962 . S
H1851 C1866 0.981 . S
H1852 C1866 0.937 1_655 S
H1853 C1867 0.960 1_655 S
H1854 C1867 0.960 . S
H1855 C1867 0.959 . S
H1856 C1870 0.929 . S
H1857 C1871 0.931 . S
H1858 C1873 0.930 . S
C1859 H1847 0.930 . S
C1859 C1860 1.399 . S
C1859 C1864 1.399 . S
C1860 C1859 1.399 . S
C1860 C1861 1.376 . S
C1861 H1848 0.930 . S
C1861 C1860 1.376 . S
C1861 C1862 1.388 . S
C1862 H1849 0.930 . S
C1862 C1861 1.388 . S
C1862 C1863 1.390 . S
C1863 C1862 1.390 . S
C1863 C1864 1.394 . S
C1863 C1869 1.465 1_655 S
C1864 C1859 1.399 . S
C1864 C1863 1.394 . S
C1864 C1865 1.518 1_655 S
C1865 C1864 1.518 1_455 S
C1865 C1866 1.501 . S
C1865 C1867 1.561 . S
C1865 C1868 1.524 . S
C1866 H1850 0.962 . S
C1866 H1851 0.981 . S
C1866 H1852 0.937 1_455 S
C1866 C1865 1.501 . S
C1867 H1853 0.960 1_455 S
C1867 H1854 0.960 . S
C1867 H1855 0.959 . S
C1867 C1865 1.561 . S
C1868 C1865 1.524 . S
C1868 C1869 1.396 . S
C1868 C1873 1.390 . S
C1869 C1863 1.465 1_455 S
C1869 C1868 1.396 . S
C1869 C1870 1.399 . S
C1870 H1856 0.929 . S
C1870 C1869 1.399 . S
C1870 C1871 1.385 . S
C1871 H1857 0.931 . S
C1871 C1870 1.385 . S
C1871 C1872 1.389 . S
C1872 C1871 1.389 . S
C1872 C1873 1.387 . S
C1873 H1858 0.930 . S
C1873 C1868 1.390 . S
C1873 C1872 1.387 . S
H1874 C1886 0.930 . S
H1875 C1888 0.930 . S
H1876 C1889 0.930 . S
H1877 C1893 0.959 . S
H1878 C1893 0.959 . S
H1879 C1893 0.961 . S
H1880 C1894 0.960 . S
H1881 C1894 0.961 . S
H1882 C1894 0.959 . S
H1883 C1897 0.929 . S
H1884 C1898 0.931 . S
H1885 C1900 0.930 . S
C1886 H1874 0.930 . S
C1886 C1887 1.399 . S
C1886 C1891 1.399 . S
C1887 C1886 1.399 . S
C1887 C1888 1.376 . S
C1888 H1875 0.930 . S
C1888 C1887 1.376 . S
C1888 C1889 1.388 . S
C1889 H1876 0.930 . S
C1889 C1888 1.388 . S
C1889 C1890 1.390 . S
C1890 C1889 1.390 . S
C1890 C1891 1.394 . S
C1890 C1896 1.465 . S
C1891 C1886 1.399 . S
C1891 C1890 1.394 . S
C1891 C1892 1.516 . S
C1892 C1891 1.516 . S
C1892 C1893 1.502 . S
C1892 C1894 1.561 . S
C1892 C1895 1.526 . S
C1893 H1877 0.959 . S
C1893 H1878 0.959 . S
C1893 H1879 0.961 . S
C1893 C1892 1.502 . S
C1894 H1880 0.960 . S
C1894 H1881 0.961 . S
C1894 H1882 0.959 . S
C1894 C1892 1.561 . S
C1895 C1892 1.526 . S
C1895 C1896 1.396 . S
C1895 C1900 1.390 . S
C1896 C1890 1.465 . S
C1896 C1895 1.396 . S
C1896 C1897 1.399 . S
C1897 H1883 0.929 . S
C1897 C1896 1.399 . S
C1897 C1898 1.385 . S
C1898 H1884 0.931 . S
C1898 C1897 1.385 . S
C1898 C1899 1.389 . S
C1899 C1898 1.389 . S
C1899 C1900 1.387 . S
C1900 H1885 0.930 . S
C1900 C1895 1.390 . S
C1900 C1899 1.387 . S
H1901 C1913 0.930 . S
H1902 C1915 0.930 . S
H1903 C1916 0.930 . S
H1904 C1920 0.959 . S
H1905 C1920 0.959 . S
H1906 C1920 0.961 . S
H1907 C1921 0.960 . S
H1908 C1921 0.961 . S
H1909 C1921 0.959 . S
H1910 C1924 0.929 . S
H1911 C1925 0.931 . S
H1912 C1927 0.930 . S
C1913 H1901 0.930 . S
C1913 C1914 1.399 . S
C1913 C1918 1.399 . S
C1914 C1913 1.399 . S
C1914 C1915 1.376 . S
C1915 H1902 0.930 . S
C1915 C1914 1.376 . S
C1915 C1916 1.388 . S
C1916 H1903 0.930 . S
C1916 C1915 1.388 . S
C1916 C1917 1.390 . S
C1917 C1916 1.390 . S
C1917 C1918 1.394 . S
C1917 C1923 1.465 . S
C1918 C1913 1.399 . S
C1918 C1917 1.394 . S
C1918 C1919 1.516 . S
C1919 C1918 1.516 . S
C1919 C1920 1.502 . S
C1919 C1921 1.561 . S
C1919 C1922 1.526 . S
C1920 H1904 0.959 . S
C1920 H1905 0.959 . S
C1920 H1906 0.961 . S
C1920 C1919 1.502 . S
C1921 H1907 0.960 . S
C1921 H1908 0.961 . S
C1921 H1909 0.959 . S
C1921 C1919 1.561 . S
C1922 C1919 1.526 . S
C1922 C1923 1.396 . S
C1922 C1927 1.390 . S
C1923 C1917 1.465 . S
C1923 C1922 1.396 . S
C1923 C1924 1.399 . S
C1924 H1910 0.929 . S
C1924 C1923 1.399 . S
C1924 C1925 1.385 . S
C1925 H1911 0.931 . S
C1925 C1924 1.385 . S
C1925 C1926 1.389 . S
C1926 C1925 1.389 . S
C1926 C1927 1.387 . S
C1927 H1912 0.930 . S
C1927 C1922 1.390 . S
C1927 C1926 1.387 . S
H1928 C1940 0.930 . S
H1929 C1942 0.930 . S
H1930 C1943 0.930 . S
H1931 C1947 0.959 . S
H1932 C1947 0.959 . S
H1933 C1947 0.961 . S
H1934 C1948 0.960 . S
H1935 C1948 0.961 . S
H1936 C1948 0.959 . S
H1937 C1951 0.929 . S
H1938 C1952 0.931 . S
H1939 C1954 0.930 . S
C1940 H1928 0.930 . S
C1940 C1941 1.399 . S
C1940 C1945 1.399 . S
C1941 C1940 1.399 . S
C1941 C1942 1.376 . S
C1942 H1929 0.930 . S
C1942 C1941 1.376 . S
C1942 C1943 1.388 . S
C1943 H1930 0.930 . S
C1943 C1942 1.388 . S
C1943 C1944 1.390 . S
C1944 C1943 1.390 . S
C1944 C1945 1.394 . S
C1944 C1950 1.465 . S
C1945 C1940 1.399 . S
C1945 C1944 1.394 . S
C1945 C1946 1.516 . S
C1946 C1945 1.516 . S
C1946 C1947 1.502 . S
C1946 C1948 1.561 . S
C1946 C1949 1.526 . S
C1947 H1931 0.959 . S
C1947 H1932 0.959 . S
C1947 H1933 0.961 . S
C1947 C1946 1.502 . S
C1948 H1934 0.960 . S
C1948 H1935 0.961 . S
C1948 H1936 0.959 . S
C1948 C1946 1.561 . S
C1949 C1946 1.526 . S
C1949 C1950 1.396 . S
C1949 C1954 1.390 . S
C1950 C1944 1.465 . S
C1950 C1949 1.396 . S
C1950 C1951 1.399 . S
C1951 H1937 0.929 . S
C1951 C1950 1.399 . S
C1951 C1952 1.385 . S
C1952 H1938 0.931 . S
C1952 C1951 1.385 . S
C1952 C1953 1.389 . S
C1953 C1952 1.389 . S
C1953 C1954 1.387 . S
C1954 H1939 0.930 . S
C1954 C1949 1.390 . S
C1954 C1953 1.387 . S
H1955 C1967 0.930 . S
H1956 C1969 0.930 . S
H1957 C1970 0.930 . S
H1958 C1974 0.959 . S
H1959 C1974 0.959 . S
H1960 C1974 0.961 . S
H1961 C1975 0.960 . S
H1962 C1975 0.961 . S
H1963 C1975 0.959 . S
H1964 C1978 0.929 . S
H1965 C1979 0.931 . S
H1966 C1981 0.930 . S
C1967 H1955 0.930 . S
C1967 C1968 1.399 . S
C1967 C1972 1.399 . S
C1968 C1967 1.399 . S
C1968 C1969 1.376 . S
C1969 H1956 0.930 . S
C1969 C1968 1.376 . S
C1969 C1970 1.388 . S
C1970 H1957 0.930 . S
C1970 C1969 1.388 . S
C1970 C1971 1.390 . S
C1971 C1970 1.390 . S
C1971 C1972 1.394 . S
C1971 C1977 1.465 . S
C1972 C1967 1.399 . S
C1972 C1971 1.394 . S
C1972 C1973 1.516 . S
C1973 C1972 1.516 . S
C1973 C1974 1.502 . S
C1973 C1975 1.561 . S
C1973 C1976 1.526 . S
C1974 H1958 0.959 . S
C1974 H1959 0.959 . S
C1974 H1960 0.961 . S
C1974 C1973 1.502 . S
C1975 H1961 0.960 . S
C1975 H1962 0.961 . S
C1975 H1963 0.959 . S
C1975 C1973 1.561 . S
C1976 C1973 1.526 . S
C1976 C1977 1.396 . S
C1976 C1981 1.390 . S
C1977 C1971 1.465 . S
C1977 C1976 1.396 . S
C1977 C1978 1.399 . S
C1978 H1964 0.929 . S
C1978 C1977 1.399 . S
C1978 C1979 1.385 . S
C1979 H1965 0.931 . S
C1979 C1978 1.385 . S
C1979 C1980 1.389 . S
C1980 C1979 1.389 . S
C1980 C1981 1.387 . S
C1981 H1966 0.930 . S
C1981 C1976 1.390 . S
C1981 C1980 1.387 . S
H1982 C1994 0.930 . S
H1983 C1996 0.930 . S
H1984 C1997 0.930 1_556 S
H1985 C2001 0.959 . S
H1986 C2001 0.959 . S
H1987 C2001 0.961 . S
H1988 C2002 0.960 . S
H1989 C2002 0.961 . S
H1990 C2002 0.959 . S
H1991 C2005 0.929 1_556 S
H1992 C2006 0.931 . S
H1993 C2008 0.930 . S
C1994 H1982 0.930 . S
C1994 C1995 1.399 . S
C1994 C1999 1.399 . S
C1995 C1994 1.399 . S
C1995 C1996 1.376 . S
C1996 H1983 0.930 . S
C1996 C1995 1.376 . S
C1996 C1997 1.388 . S
C1997 H1984 0.930 1_554 S
C1997 C1996 1.388 . S
C1997 C1998 1.390 . S
C1998 C1997 1.390 . S
C1998 C1999 1.394 . S
C1998 C2004 1.465 . S
C1999 C1994 1.399 . S
C1999 C1998 1.394 . S
C1999 C2000 1.516 . S
C2000 C1999 1.516 . S
C2000 C2001 1.502 . S
C2000 C2002 1.561 . S
C2000 C2003 1.526 . S
C2001 H1985 0.959 . S
C2001 H1986 0.959 . S
C2001 H1987 0.961 . S
C2001 C2000 1.502 . S
C2002 H1988 0.960 . S
C2002 H1989 0.961 . S
C2002 H1990 0.959 . S
C2002 C2000 1.561 . S
C2003 C2000 1.526 . S
C2003 C2004 1.396 . S
C2003 C2008 1.390 . S
C2004 C1998 1.465 . S
C2004 C2003 1.396 . S
C2004 C2005 1.399 . S
C2005 H1991 0.929 1_554 S
C2005 C2004 1.399 . S
C2005 C2006 1.385 . S
C2006 H1992 0.931 . S
C2006 C2005 1.385 . S
C2006 C2007 1.389 . S
C2007 C2006 1.389 . S
C2007 C2008 1.387 . S
C2008 H1993 0.930 . S
C2008 C2003 1.390 . S
C2008 C2007 1.387 . S
H2009 C2021 0.930 . S
H2010 C2023 0.930 . S
H2011 C2024 0.930 . S
H2012 C2028 0.959 . S
H2013 C2028 0.959 . S
H2014 C2028 0.961 . S
H2015 C2029 0.960 . S
H2016 C2029 0.961 . S
H2017 C2029 0.959 . S
H2018 C2032 0.929 . S
H2019 C2033 0.931 . S
H2020 C2035 0.930 . S
C2021 H2009 0.930 . S
C2021 C2022 1.399 . S
C2021 C2026 1.399 . S
C2022 C2021 1.399 . S
C2022 C2023 1.376 . S
C2023 H2010 0.930 . S
C2023 C2022 1.376 . S
C2023 C2024 1.388 . S
C2024 H2011 0.930 . S
C2024 C2023 1.388 . S
C2024 C2025 1.390 . S
C2025 C2024 1.390 . S
C2025 C2026 1.394 . S
C2025 C2031 1.465 . S
C2026 C2021 1.399 . S
C2026 C2025 1.394 . S
C2026 C2027 1.516 . S
C2027 C2026 1.516 . S
C2027 C2028 1.502 . S
C2027 C2029 1.561 . S
C2027 C2030 1.526 . S
C2028 H2012 0.959 . S
C2028 H2013 0.959 . S
C2028 H2014 0.961 . S
C2028 C2027 1.502 . S
C2029 H2015 0.960 . S
C2029 H2016 0.961 . S
C2029 H2017 0.959 . S
C2029 C2027 1.561 . S
C2030 C2027 1.526 . S
C2030 C2031 1.396 . S
C2030 C2035 1.390 . S
C2031 C2025 1.465 . S
C2031 C2030 1.396 . S
C2031 C2032 1.399 . S
C2032 H2018 0.929 . S
C2032 C2031 1.399 . S
C2032 C2033 1.385 . S
C2033 H2019 0.931 . S
C2033 C2032 1.385 . S
C2033 C2034 1.389 . S
C2034 C2033 1.389 . S
C2034 C2035 1.387 . S
C2035 H2020 0.930 . S
C2035 C2030 1.390 . S
C2035 C2034 1.387 . S
H2036 C2048 0.930 . S
H2037 C2050 0.930 . S
H2038 C2051 0.930 . S
H2039 C2055 0.962 . S
H2040 C2055 0.983 . S
H2041 C2055 0.935 1_655 S
H2042 C2056 0.948 1_655 S
H2043 C2056 0.972 . S
H2044 C2056 0.960 . S
H2045 C2059 0.929 . S
H2046 C2060 0.931 . S
H2047 C2062 0.930 . S
C2048 H2036 0.930 . S
C2048 C2049 1.399 . S
C2048 C2053 1.399 . S
C2049 C2048 1.399 . S
C2049 C2050 1.376 . S
C2050 H2037 0.930 . S
C2050 C2049 1.376 . S
C2050 C2051 1.388 . S
C2051 H2038 0.930 . S
C2051 C2050 1.388 . S
C2051 C2052 1.390 . S
C2052 C2051 1.390 . S
C2052 C2053 1.394 . S
C2052 C2058 1.465 1_655 S
C2053 C2048 1.399 . S
C2053 C2052 1.394 . S
C2053 C2054 1.512 1_655 S
C2054 C2053 1.512 1_455 S
C2054 C2055 1.502 . S
C2054 C2056 1.561 . S
C2054 C2057 1.530 . S
C2055 H2039 0.962 . S
C2055 H2040 0.983 . S
C2055 H2041 0.935 1_455 S
C2055 C2054 1.502 . S
C2056 H2042 0.948 1_455 S
C2056 H2043 0.972 . S
C2056 H2044 0.960 . S
C2056 C2054 1.561 . S
C2057 C2054 1.530 . S
C2057 C2058 1.396 . S
C2057 C2062 1.390 . S
C2058 C2052 1.465 1_455 S
C2058 C2057 1.396 . S
C2058 C2059 1.399 . S
C2059 H2045 0.929 . S
C2059 C2058 1.399 . S
C2059 C2060 1.385 . S
C2060 H2046 0.931 . S
C2060 C2059 1.385 . S
C2060 C2061 1.389 . S
C2061 C2060 1.389 . S
C2061 C2062 1.387 . S
C2062 H2047 0.930 . S
C2062 C2057 1.390 . S
C2062 C2061 1.387 . S
H2063 C2075 0.930 . S
H2064 C2077 0.930 . S
H2065 C2078 0.930 . S
H2066 C2082 0.959 . S
H2067 C2082 0.959 . S
H2068 C2082 0.961 . S
H2069 C2083 0.960 . S
H2070 C2083 0.961 . S
H2071 C2083 0.959 . S
H2072 C2086 0.929 . S
H2073 C2087 0.931 . S
H2074 C2089 0.930 . S
C2075 H2063 0.930 . S
C2075 C2076 1.399 . S
C2075 C2080 1.399 . S
C2076 C2075 1.399 . S
C2076 C2077 1.376 . S
C2077 H2064 0.930 . S
C2077 C2076 1.376 . S
C2077 C2078 1.388 . S
C2078 H2065 0.930 . S
C2078 C2077 1.388 . S
C2078 C2079 1.390 . S
C2079 C2078 1.390 . S
C2079 C2080 1.394 . S
C2079 C2085 1.465 . S
C2080 C2075 1.399 . S
C2080 C2079 1.394 . S
C2080 C2081 1.516 . S
C2081 C2080 1.516 . S
C2081 C2082 1.502 . S
C2081 C2083 1.561 . S
C2081 C2084 1.526 . S
C2082 H2066 0.959 . S
C2082 H2067 0.959 . S
C2082 H2068 0.961 . S
C2082 C2081 1.502 . S
C2083 H2069 0.960 . S
C2083 H2070 0.961 . S
C2083 H2071 0.959 . S
C2083 C2081 1.561 . S
C2084 C2081 1.526 . S
C2084 C2085 1.396 . S
C2084 C2089 1.390 . S
C2085 C2079 1.465 . S
C2085 C2084 1.396 . S
C2085 C2086 1.399 . S
C2086 H2072 0.929 . S
C2086 C2085 1.399 . S
C2086 C2087 1.385 . S
C2087 H2073 0.931 . S
C2087 C2086 1.385 . S
C2087 C2088 1.389 . S
C2088 C2087 1.389 . S
C2088 C2089 1.387 . S
C2089 H2074 0.930 . S
C2089 C2084 1.390 . S
C2089 C2088 1.387 . S
H2090 C2102 0.930 . S
H2091 C2104 0.930 . S
H2092 C2105 0.930 . S
H2093 C2109 0.959 . S
H2094 C2109 0.959 . S
H2095 C2109 0.961 . S
H2096 C2110 0.960 . S
H2097 C2110 0.961 . S
H2098 C2110 0.959 . S
H2099 C2113 0.929 . S
H2100 C2114 0.931 . S
H2101 C2116 0.930 . S
C2102 H2090 0.930 . S
C2102 C2103 1.399 . S
C2102 C2107 1.399 . S
C2103 C2102 1.399 . S
C2103 C2104 1.376 . S
C2104 H2091 0.930 . S
C2104 C2103 1.376 . S
C2104 C2105 1.388 . S
C2105 H2092 0.930 . S
C2105 C2104 1.388 . S
C2105 C2106 1.390 . S
C2106 C2105 1.390 . S
C2106 C2107 1.394 . S
C2106 C2112 1.465 . S
C2107 C2102 1.399 . S
C2107 C2106 1.394 . S
C2107 C2108 1.516 . S
C2108 C2107 1.516 . S
C2108 C2109 1.502 . S
C2108 C2110 1.561 . S
C2108 C2111 1.526 . S
C2109 H2093 0.959 . S
C2109 H2094 0.959 . S
C2109 H2095 0.961 . S
C2109 C2108 1.502 . S
C2110 H2096 0.960 . S
C2110 H2097 0.961 . S
C2110 H2098 0.959 . S
C2110 C2108 1.561 . S
C2111 C2108 1.526 . S
C2111 C2112 1.396 . S
C2111 C2116 1.390 . S
C2112 C2106 1.465 . S
C2112 C2111 1.396 . S
C2112 C2113 1.399 . S
C2113 H2099 0.929 . S
C2113 C2112 1.399 . S
C2113 C2114 1.385 . S
C2114 H2100 0.931 . S
C2114 C2113 1.385 . S
C2114 C2115 1.389 . S
C2115 C2114 1.389 . S
C2115 C2116 1.387 . S
C2116 H2101 0.930 . S
C2116 C2111 1.390 . S
C2116 C2115 1.387 . S
H2117 C2129 0.930 . S
H2118 C2131 0.930 . S
H2119 C2132 0.930 . S
H2120 C2136 0.962 . S
H2121 C2136 0.981 . S
H2122 C2136 0.937 1_655 S
H2123 C2137 0.950 1_655 S
H2124 C2137 0.970 . S
H2125 C2137 0.960 . S
H2126 C2140 0.929 . S
H2127 C2141 0.931 . S
H2128 C2143 0.930 . S
C2129 H2117 0.930 . S
C2129 C2130 1.399 . S
C2129 C2134 1.399 . S
C2130 C2129 1.399 . S
C2130 C2131 1.376 . S
C2131 H2118 0.930 . S
C2131 C2130 1.376 . S
C2131 C2132 1.388 . S
C2132 H2119 0.930 . S
C2132 C2131 1.388 . S
C2132 C2133 1.390 . S
C2133 C2132 1.390 . S
C2133 C2134 1.394 . S
C2133 C2139 1.465 1_655 S
C2134 C2129 1.399 . S
C2134 C2133 1.394 . S
C2134 C2135 1.513 1_655 S
C2135 C2134 1.513 1_455 S
C2135 C2136 1.502 . S
C2135 C2137 1.561 . S
C2135 C2138 1.529 . S
C2136 H2120 0.962 . S
C2136 H2121 0.981 . S
C2136 H2122 0.937 1_455 S
C2136 C2135 1.502 . S
C2137 H2123 0.950 1_455 S
C2137 H2124 0.970 . S
C2137 H2125 0.960 . S
C2137 C2135 1.561 . S
C2138 C2135 1.529 . S
C2138 C2139 1.396 . S
C2138 C2143 1.390 . S
C2139 C2133 1.465 1_455 S
C2139 C2138 1.396 . S
C2139 C2140 1.399 . S
C2140 H2126 0.929 . S
C2140 C2139 1.399 . S
C2140 C2141 1.385 . S
C2141 H2127 0.931 . S
C2141 C2140 1.385 . S
C2141 C2142 1.389 . S
C2142 C2141 1.389 . S
C2142 C2143 1.387 . S
C2143 H2128 0.930 . S
C2143 C2138 1.390 . S
C2143 C2142 1.387 . S
C429 C303 1.743 . S
C441 C5 1.759 . S
C456 C263 1.795 . S
C468 C23 1.737 . S
C483 C277 1.741 . S
C495 C29 1.761 . S
C510 C289 1.793 . S
C522 C49 1.735 . S
C537 C55 1.792 . S
C549 C231 1.734 . S
C564 C239 1.748 . S
C576 C69 1.796 . S
C591 C83 1.740 . S
C603 C251 1.791 . S
C618 C95 1.785 . S
C630 C211 1.778 . S
C645 C407 1.720 . S
C657 C114 1.756 . S
C672 C127 1.726 . S
C684 C374 1.768 . S
C699 C140 1.732 . S
C711 C381 1.725 . S
C726 C153 1.775 . S
C738 C394 1.734 . S
C753 C160 1.731 . S
C765 C335 1.725 . S
C780 C173 1.776 . S
C792 C342 1.735 . S
C807 C192 1.768 . S
C819 C361 1.727 . S
C834 C199 1.731 . S
C846 C322 1.773 . S
C861 C4 1.163 . S
C873 C161 1.162 . S
C888 C382 1.162 . S
C900 C16 1.160 . S
C915 C36 1.217 . S
C927 C185 1.216 . S
C942 C408 1.177 . S
C954 C42 1.170 . S
C969 C107 1.163 . S
C981 C62 1.161 . S
C996 C70 1.165 . S
C1008 C328 1.160 . S
C1023 C82 1.171 . S
C1035 C133 1.175 . S
C1050 C96 1.192 . S
C1062 C354 1.200 . S
C1077 C278 1.200 . S
C1089 C120 1.207 . S
C1104 C304 1.204 . S
C1116 C146 1.210 . S
C1131 C174 1.186 . S
C1143 C224 1.195 . S
C1158 C252 1.168 . S
C1170 C200 1.162 . S
C1185 C367 1.212 . S
C1197 C218 1.214 . S
C1212 C238 1.168 . S
C1224 C395 1.173 . S
C1239 C315 1.197 . S
C1251 C270 1.193 . S
C1266 C343 1.189 . S
C1278 C296 1.185 . S
C1293 C56 1.178 . S
C1305 C10 1.189 . S
C1320 C68 1.135 . S
C1332 C18 1.147 . S
C1347 C30 1.174 . S
C1359 C88 1.187 . S
C1374 C44 1.192 . S
C1386 C94 1.173 . S
C1401 C159 1.201 . S
C1413 C109 1.161 . S
C1428 C172 1.173 . S
C1440 C122 1.197 . S
C1455 C187 1.148 . S
C1467 C135 1.175 . S
C1482 C148 1.172 . S
C1494 C198 1.139 . S
C1509 C212 1.157 . S
C1521 C264 1.140 . S
C1536 C226 1.137 . S
C1548 C276 1.157 . S
C1563 C244 1.149 . S
C1575 C290 1.135 . S
C1590 C250 1.135 . S
C1602 C302 1.149 . S
C1617 C369 1.149 . S
C1629 C317 1.187 . S
C1644 C380 1.178 . S
C1656 C330 1.196 . S
C1671 C393 1.206 . S
C1683 C341 1.172 . S
C1698 C406 1.160 . S
C1710 C356 1.141 . S
C1725 C400 1.829 . S
C1737 C3 1.829 . S
C1752 C17 1.845 . S
C1764 C205 1.840 . S
C1779 C368 1.837 . S
C1791 C31 1.830 . S
C1806 C43 1.817 . S
C1818 C179 1.821 . S
C1833 C348 1.831 . S
C1845 C57 1.831 . S
C1860 C75 1.848 . S
C1872 C147 1.846 . S
C1887 C81 1.847 . S
C1899 C316 1.849 . S
C1914 C121 1.824 . S
C1926 C101 1.830 . S
C1941 C108 1.817 . S
C1953 C291 1.813 . S
C1968 C265 1.848 . S
C1980 C134 1.850 . S
C1995 C166 1.831 . S
C2007 C237 1.830 . S
C2022 C186 1.850 . S
C2034 C213 1.846 . S
C2049 C413 1.830 . S
C2061 C225 1.826 . S
C2076 C257 1.815 . S
C2088 C387 1.818 . S
C2103 C283 1.848 . S
C2115 C355 1.845 . S
C2130 C329 1.835 . S
C2142 C309 1.830 . S
