# Generated by pormake.
# Topology ukp, (4)-cn, num edge types: 1
# Building blocks:
#     Node 0, Type 0, BuildingBlock: CEKHIL_clean_sbu_0, # of connection points: 4
#     Node 1, Type 0, BuildingBlock: CEKHIL_clean_sbu_0, # of connection points: 4
#     Node 2, Type 0, BuildingBlock: CEKHIL_clean_sbu_0, # of connection points: 4
#     Node 3, Type 0, BuildingBlock: CEKHIL_clean_sbu_0, # of connection points: 4
#     Node 4, Type 0, BuildingBlock: CEKHIL_clean_sbu_0, # of connection points: 4
#     Node 5, Type 0, BuildingBlock: CEKHIL_clean_sbu_0, # of connection points: 4
#     Node 6, Type 0, BuildingBlock: CEKHIL_clean_sbu_0, # of connection points: 4
#     Node 7, Type 0, BuildingBlock: CEKHIL_clean_sbu_0, # of connection points: 4
#     Node 8, Type 0, BuildingBlock: CEKHIL_clean_sbu_0, # of connection points: 4
#     Node 9, Type 0, BuildingBlock: CEKHIL_clean_sbu_0, # of connection points: 4
#     Node 10, Type 0, BuildingBlock: CEKHIL_clean_sbu_0, # of connection points: 4
#     Node 11, Type 0, BuildingBlock: CEKHIL_clean_sbu_0, # of connection points: 4
#     Node 12, Type 0, BuildingBlock: CEKHIL_clean_sbu_0, # of connection points: 4
#     Node 13, Type 0, BuildingBlock: CEKHIL_clean_sbu_0, # of connection points: 4
#     Node 14, Type 0, BuildingBlock: CEKHIL_clean_sbu_0, # of connection points: 4
#     Node 15, Type 0, BuildingBlock: CEKHIL_clean_sbu_0, # of connection points: 4
#     Node 16, Type 0, BuildingBlock: CEKHIL_clean_sbu_0, # of connection points: 4
#     Node 17, Type 0, BuildingBlock: CEKHIL_clean_sbu_0, # of connection points: 4
#     Node 18, Type 0, BuildingBlock: CEKHIL_clean_sbu_0, # of connection points: 4
#     Node 19, Type 0, BuildingBlock: CEKHIL_clean_sbu_0, # of connection points: 4
#     Node 20, Type 0, BuildingBlock: CEKHIL_clean_sbu_0, # of connection points: 4
#     Node 21, Type 0, BuildingBlock: CEKHIL_clean_sbu_0, # of connection points: 4
#     Node 22, Type 0, BuildingBlock: CEKHIL_clean_sbu_0, # of connection points: 4
#     Node 23, Type 0, BuildingBlock: CEKHIL_clean_sbu_0, # of connection points: 4
#     Node 24, Type 0, BuildingBlock: CEKHIL_clean_sbu_0, # of connection points: 4
#     Node 25, Type 0, BuildingBlock: CEKHIL_clean_sbu_0, # of connection points: 4
#     Node 26, Type 0, BuildingBlock: CEKHIL_clean_sbu_0, # of connection points: 4
#     Node 27, Type 0, BuildingBlock: CEKHIL_clean_sbu_0, # of connection points: 4
#     Node 28, Type 0, BuildingBlock: CEKHIL_clean_sbu_0, # of connection points: 4
#     Node 29, Type 0, BuildingBlock: CEKHIL_clean_sbu_0, # of connection points: 4
#     Node 30, Type 0, BuildingBlock: CEKHIL_clean_sbu_0, # of connection points: 4
#     Node 31, Type 0, BuildingBlock: CEKHIL_clean_sbu_0, # of connection points: 4
#     Node 32, Type 0, BuildingBlock: CEKHIL_clean_sbu_0, # of connection points: 4
#     Node 33, Type 0, BuildingBlock: CEKHIL_clean_sbu_0, # of connection points: 4
#     Node 34, Type 0, BuildingBlock: CEKHIL_clean_sbu_0, # of connection points: 4
#     Node 35, Type 0, BuildingBlock: CEKHIL_clean_sbu_0, # of connection points: 4
#     Node 36, Type 0, BuildingBlock: CEKHIL_clean_sbu_0, # of connection points: 4
#     Node 37, Type 0, BuildingBlock: CEKHIL_clean_sbu_0, # of connection points: 4
#     Node 38, Type 0, BuildingBlock: CEKHIL_clean_sbu_0, # of connection points: 4
#     Node 39, Type 0, BuildingBlock: CEKHIL_clean_sbu_0, # of connection points: 4
#     Node 40, Type 0, BuildingBlock: CEKHIL_clean_sbu_0, # of connection points: 4
#     Node 41, Type 0, BuildingBlock: CEKHIL_clean_sbu_0, # of connection points: 4
#     Node 42, Type 0, BuildingBlock: CEKHIL_clean_sbu_0, # of connection points: 4
#     Node 43, Type 0, BuildingBlock: CEKHIL_clean_sbu_0, # of connection points: 4
#     Node 44, Type 0, BuildingBlock: CEKHIL_clean_sbu_0, # of connection points: 4
#     Node 45, Type 0, BuildingBlock: CEKHIL_clean_sbu_0, # of connection points: 4
#     Node 46, Type 0, BuildingBlock: CEKHIL_clean_sbu_0, # of connection points: 4
#     Node 47, Type 0, BuildingBlock: CEKHIL_clean_sbu_0, # of connection points: 4
#     Edge 48, Type (0, 0), BuildingBlock: XIVTED_clean_linker_0, # of connection points: 2
#     Edge 49, Type (0, 0), BuildingBlock: XIVTED_clean_linker_0, # of connection points: 2
#     Edge 50, Type (0, 0), BuildingBlock: XIVTED_clean_linker_0, # of connection points: 2
#     Edge 51, Type (0, 0), BuildingBlock: XIVTED_clean_linker_0, # of connection points: 2
#     Edge 52, Type (0, 0), BuildingBlock: XIVTED_clean_linker_0, # of connection points: 2
#     Edge 53, Type (0, 0), BuildingBlock: XIVTED_clean_linker_0, # of connection points: 2
#     Edge 54, Type (0, 0), BuildingBlock: XIVTED_clean_linker_0, # of connection points: 2
#     Edge 55, Type (0, 0), BuildingBlock: XIVTED_clean_linker_0, # of connection points: 2
#     Edge 56, Type (0, 0), BuildingBlock: XIVTED_clean_linker_0, # of connection points: 2
#     Edge 57, Type (0, 0), BuildingBlock: XIVTED_clean_linker_0, # of connection points: 2
#     Edge 58, Type (0, 0), BuildingBlock: XIVTED_clean_linker_0, # of connection points: 2
#     Edge 59, Type (0, 0), BuildingBlock: XIVTED_clean_linker_0, # of connection points: 2
#     Edge 60, Type (0, 0), BuildingBlock: XIVTED_clean_linker_0, # of connection points: 2
#     Edge 61, Type (0, 0), BuildingBlock: XIVTED_clean_linker_0, # of connection points: 2
#     Edge 62, Type (0, 0), BuildingBlock: XIVTED_clean_linker_0, # of connection points: 2
#     Edge 63, Type (0, 0), BuildingBlock: XIVTED_clean_linker_0, # of connection points: 2
#     Edge 64, Type (0, 0), BuildingBlock: XIVTED_clean_linker_0, # of connection points: 2
#     Edge 65, Type (0, 0), BuildingBlock: XIVTED_clean_linker_0, # of connection points: 2
#     Edge 66, Type (0, 0), BuildingBlock: XIVTED_clean_linker_0, # of connection points: 2
#     Edge 67, Type (0, 0), BuildingBlock: XIVTED_clean_linker_0, # of connection points: 2
#     Edge 68, Type (0, 0), BuildingBlock: XIVTED_clean_linker_0, # of connection points: 2
#     Edge 69, Type (0, 0), BuildingBlock: XIVTED_clean_linker_0, # of connection points: 2
#     Edge 70, Type (0, 0), BuildingBlock: XIVTED_clean_linker_0, # of connection points: 2
#     Edge 71, Type (0, 0), BuildingBlock: XIVTED_clean_linker_0, # of connection points: 2
#     Edge 72, Type (0, 0), BuildingBlock: XIVTED_clean_linker_0, # of connection points: 2
#     Edge 73, Type (0, 0), BuildingBlock: XIVTED_clean_linker_0, # of connection points: 2
#     Edge 74, Type (0, 0), BuildingBlock: XIVTED_clean_linker_0, # of connection points: 2
#     Edge 75, Type (0, 0), BuildingBlock: XIVTED_clean_linker_0, # of connection points: 2
#     Edge 76, Type (0, 0), BuildingBlock: XIVTED_clean_linker_0, # of connection points: 2
#     Edge 77, Type (0, 0), BuildingBlock: XIVTED_clean_linker_0, # of connection points: 2
#     Edge 78, Type (0, 0), BuildingBlock: XIVTED_clean_linker_0, # of connection points: 2
#     Edge 79, Type (0, 0), BuildingBlock: XIVTED_clean_linker_0, # of connection points: 2
#     Edge 80, Type (0, 0), BuildingBlock: XIVTED_clean_linker_0, # of connection points: 2
#     Edge 81, Type (0, 0), BuildingBlock: XIVTED_clean_linker_0, # of connection points: 2
#     Edge 82, Type (0, 0), BuildingBlock: XIVTED_clean_linker_0, # of connection points: 2
#     Edge 83, Type (0, 0), BuildingBlock: XIVTED_clean_linker_0, # of connection points: 2
#     Edge 84, Type (0, 0), BuildingBlock: XIVTED_clean_linker_0, # of connection points: 2
#     Edge 85, Type (0, 0), BuildingBlock: XIVTED_clean_linker_0, # of connection points: 2
#     Edge 86, Type (0, 0), BuildingBlock: XIVTED_clean_linker_0, # of connection points: 2
#     Edge 87, Type (0, 0), BuildingBlock: XIVTED_clean_linker_0, # of connection points: 2
#     Edge 88, Type (0, 0), BuildingBlock: XIVTED_clean_linker_0, # of connection points: 2
#     Edge 89, Type (0, 0), BuildingBlock: XIVTED_clean_linker_0, # of connection points: 2
#     Edge 90, Type (0, 0), BuildingBlock: XIVTED_clean_linker_0, # of connection points: 2
#     Edge 91, Type (0, 0), BuildingBlock: XIVTED_clean_linker_0, # of connection points: 2
#     Edge 92, Type (0, 0), BuildingBlock: XIVTED_clean_linker_0, # of connection points: 2
#     Edge 93, Type (0, 0), BuildingBlock: XIVTED_clean_linker_0, # of connection points: 2
#     Edge 94, Type (0, 0), BuildingBlock: XIVTED_clean_linker_0, # of connection points: 2
#     Edge 95, Type (0, 0), BuildingBlock: XIVTED_clean_linker_0, # of connection points: 2
#     Edge 96, Type (0, 0), BuildingBlock: XIVTED_clean_linker_0, # of connection points: 2
#     Edge 97, Type (0, 0), BuildingBlock: XIVTED_clean_linker_0, # of connection points: 2
#     Edge 98, Type (0, 0), BuildingBlock: XIVTED_clean_linker_0, # of connection points: 2
#     Edge 99, Type (0, 0), BuildingBlock: XIVTED_clean_linker_0, # of connection points: 2
#     Edge 100, Type (0, 0), BuildingBlock: XIVTED_clean_linker_0, # of connection points: 2
#     Edge 101, Type (0, 0), BuildingBlock: XIVTED_clean_linker_0, # of connection points: 2
#     Edge 102, Type (0, 0), BuildingBlock: XIVTED_clean_linker_0, # of connection points: 2
#     Edge 103, Type (0, 0), BuildingBlock: XIVTED_clean_linker_0, # of connection points: 2
#     Edge 104, Type (0, 0), BuildingBlock: XIVTED_clean_linker_0, # of connection points: 2
#     Edge 105, Type (0, 0), BuildingBlock: XIVTED_clean_linker_0, # of connection points: 2
#     Edge 106, Type (0, 0), BuildingBlock: XIVTED_clean_linker_0, # of connection points: 2
#     Edge 107, Type (0, 0), BuildingBlock: XIVTED_clean_linker_0, # of connection points: 2
#     Edge 108, Type (0, 0), BuildingBlock: XIVTED_clean_linker_0, # of connection points: 2
#     Edge 109, Type (0, 0), BuildingBlock: XIVTED_clean_linker_0, # of connection points: 2
#     Edge 110, Type (0, 0), BuildingBlock: XIVTED_clean_linker_0, # of connection points: 2
#     Edge 111, Type (0, 0), BuildingBlock: XIVTED_clean_linker_0, # of connection points: 2
#     Edge 112, Type (0, 0), BuildingBlock: XIVTED_clean_linker_0, # of connection points: 2
#     Edge 113, Type (0, 0), BuildingBlock: XIVTED_clean_linker_0, # of connection points: 2
#     Edge 114, Type (0, 0), BuildingBlock: XIVTED_clean_linker_0, # of connection points: 2
#     Edge 115, Type (0, 0), BuildingBlock: XIVTED_clean_linker_0, # of connection points: 2
#     Edge 116, Type (0, 0), BuildingBlock: XIVTED_clean_linker_0, # of connection points: 2
#     Edge 117, Type (0, 0), BuildingBlock: XIVTED_clean_linker_0, # of connection points: 2
#     Edge 118, Type (0, 0), BuildingBlock: XIVTED_clean_linker_0, # of connection points: 2
#     Edge 119, Type (0, 0), BuildingBlock: XIVTED_clean_linker_0, # of connection points: 2
#     Edge 120, Type (0, 0), BuildingBlock: XIVTED_clean_linker_0, # of connection points: 2
#     Edge 121, Type (0, 0), BuildingBlock: XIVTED_clean_linker_0, # of connection points: 2
#     Edge 122, Type (0, 0), BuildingBlock: XIVTED_clean_linker_0, # of connection points: 2
#     Edge 123, Type (0, 0), BuildingBlock: XIVTED_clean_linker_0, # of connection points: 2
#     Edge 124, Type (0, 0), BuildingBlock: XIVTED_clean_linker_0, # of connection points: 2
#     Edge 125, Type (0, 0), BuildingBlock: XIVTED_clean_linker_0, # of connection points: 2
#     Edge 126, Type (0, 0), BuildingBlock: XIVTED_clean_linker_0, # of connection points: 2
#     Edge 127, Type (0, 0), BuildingBlock: XIVTED_clean_linker_0, # of connection points: 2
#     Edge 128, Type (0, 0), BuildingBlock: XIVTED_clean_linker_0, # of connection points: 2
#     Edge 129, Type (0, 0), BuildingBlock: XIVTED_clean_linker_0, # of connection points: 2
#     Edge 130, Type (0, 0), BuildingBlock: XIVTED_clean_linker_0, # of connection points: 2
#     Edge 131, Type (0, 0), BuildingBlock: XIVTED_clean_linker_0, # of connection points: 2
#     Edge 132, Type (0, 0), BuildingBlock: XIVTED_clean_linker_0, # of connection points: 2
#     Edge 133, Type (0, 0), BuildingBlock: XIVTED_clean_linker_0, # of connection points: 2
#     Edge 134, Type (0, 0), BuildingBlock: XIVTED_clean_linker_0, # of connection points: 2
#     Edge 135, Type (0, 0), BuildingBlock: XIVTED_clean_linker_0, # of connection points: 2
#     Edge 136, Type (0, 0), BuildingBlock: XIVTED_clean_linker_0, # of connection points: 2
#     Edge 137, Type (0, 0), BuildingBlock: XIVTED_clean_linker_0, # of connection points: 2
#     Edge 138, Type (0, 0), BuildingBlock: XIVTED_clean_linker_0, # of connection points: 2
#     Edge 139, Type (0, 0), BuildingBlock: XIVTED_clean_linker_0, # of connection points: 2
#     Edge 140, Type (0, 0), BuildingBlock: XIVTED_clean_linker_0, # of connection points: 2
#     Edge 141, Type (0, 0), BuildingBlock: XIVTED_clean_linker_0, # of connection points: 2
#     Edge 142, Type (0, 0), BuildingBlock: XIVTED_clean_linker_0, # of connection points: 2
#     Edge 143, Type (0, 0), BuildingBlock: XIVTED_clean_linker_0, # of connection points: 2
# Relax obj value: 0.215
# Max RMSD: 0.304
# Mean RMSD: 0.304
data_MOF--net-ukp--node1-CEKHIL_clean_sbu_0--edge1-XIVTED_clean_linker_0
_symmetry_space_group_name_H-M    P1
_symmetry_Int_Tables_number       1
_symmetry_cell_setting            triclinic
loop_
_symmetry_equiv_pos_as_xyz
'x, y, z'
_cell_length_a     60.891489
_cell_length_b     60.8846
_cell_length_c     60.886359
_cell_angle_alpha  89.961222
_cell_angle_beta   90.004531
_cell_angle_gamma 90.034693
loop_
_atom_site_label
_atom_site_type_symbol
_atom_site_fract_x
_atom_site_fract_y
_atom_site_fract_z
_atom_type_partial_charge
Co0 Co 0.21419 0.25729 0.39672 0.0
O1 O 0.20611 0.23883 0.42115 0.0
O2 O 0.1826 0.25736 0.40056 0.0
C3 C 0.23781 0.23367 0.38074 0.0
O4 O 0.21625 0.27716 0.36973 0.0
Co5 Co 0.26229 0.27319 0.39018 0.0
O6 O 0.2518 0.27941 0.35993 0.0
C7 C 0.2331 0.29715 0.42075 0.0
C8 C 0.18586 0.24384 0.41681 0.0
C9 C 0.23147 0.28245 0.35602 0.0
O10 O 0.21723 0.28376 0.41655 0.0
O11 O 0.25239 0.29515 0.41262 0.0
O12 O 0.21681 0.23171 0.37748 0.0
O13 O 0.24352 0.24809 0.39518 0.0
Co14 Co 0.97815 0.96558 0.65603 0.0
O15 O 0.99725 0.95739 0.67985 0.0
O16 O 0.97653 0.93419 0.66107 0.0
C17 C 0.00233 0.98706 0.63798 0.0
O18 O 0.95723 0.96784 0.62993 0.0
Co19 Co 0.96482 0.01429 0.64859 0.0
O20 O 0.95687 0.00315 0.61898 0.0
C21 C 0.94095 0.98772 0.68155 0.0
C22 C 0.99105 0.93729 0.67645 0.0
C23 C 0.95246 0.98293 0.61589 0.0
O24 O 0.95293 0.97087 0.67697 0.0
O25 O 0.94379 0.00664 0.67279 0.0
O26 O 0.00286 0.96588 0.63557 0.0
O27 O 0.98903 0.99424 0.65286 0.0
Co28 Co 0.28083 0.74095 0.89949 0.0
O29 O 0.28898 0.7593 0.92397 0.0
O30 O 0.31205 0.7386 0.90505 0.0
C31 C 0.26013 0.76597 0.88167 0.0
O32 O 0.27876 0.72077 0.87279 0.0
Co33 Co 0.2321 0.72872 0.89035 0.0
O34 O 0.24379 0.72118 0.86086 0.0
C35 C 0.25752 0.70311 0.92294 0.0
C36 C 0.30901 0.7528 0.92072 0.0
C37 C 0.26401 0.7165 0.85824 0.0
O38 O 0.2746 0.71521 0.91961 0.0
O39 O 0.23898 0.70639 0.91356 0.0
O40 O 0.28136 0.76622 0.87968 0.0
O41 O 0.25245 0.75239 0.89605 0.0
Co42 Co 0.51511 0.0383 0.1489 0.0
O43 O 0.49709 0.04792 0.17303 0.0
O44 O 0.5157 0.06999 0.15087 0.0
C45 C 0.49146 0.0141 0.13406 0.0
O46 O 0.53463 0.03443 0.122 0.0
Co47 Co 0.53088 0.98986 0.14635 0.0
O48 O 0.53766 0.99817 0.11545 0.0
C49 C 0.55412 0.02064 0.17543 0.0
C50 C 0.50247 0.06781 0.16752 0.0
C51 C 0.54027 0.01816 0.10976 0.0
O52 O 0.5417 0.0363 0.16852 0.0
O53 O 0.55148 0.00053 0.16988 0.0
O54 O 0.48943 0.03497 0.13007 0.0
O55 O 0.50565 0.009 0.14901 0.0
Co56 Co 0.21893 0.73567 0.10243 0.0
O57 O 0.21017 0.75451 0.0786 0.0
O58 O 0.18719 0.73547 0.09934 0.0
C59 C 0.2428 0.75901 0.11837 0.0
O60 O 0.22207 0.71527 0.12887 0.0
Co61 Co 0.26752 0.72018 0.10608 0.0
O62 O 0.25818 0.71219 0.13637 0.0
C63 C 0.23769 0.69766 0.07535 0.0
C64 C 0.19005 0.74929 0.08325 0.0
C65 C 0.23805 0.70925 0.14137 0.0
O66 O 0.22158 0.70962 0.08209 0.0
O67 O 0.25758 0.70047 0.08159 0.0
O68 O 0.22189 0.76082 0.12218 0.0
O69 O 0.24816 0.74513 0.1033 0.0
Co70 Co 0.5098 0.96328 0.35629 0.0
O71 O 0.4908 0.95448 0.3326 0.0
O72 O 0.51023 0.9316 0.3531 0.0
C73 C 0.4864 0.98701 0.37237 0.0
O74 O 0.53046 0.96627 0.38255 0.0
Co75 Co 0.52535 0.01171 0.36082 0.0
O76 O 0.53271 0.00214 0.39112 0.0
C77 C 0.54855 0.98196 0.33028 0.0
C78 C 0.49637 0.9344 0.33707 0.0
C79 C 0.5361 0.98197 0.39556 0.0
O80 O 0.53555 0.9661 0.33556 0.0
O81 O 0.54664 0.00149 0.33783 0.0
O82 O 0.48479 0.96608 0.37624 0.0
O83 O 0.5003 0.99253 0.35734 0.0
Co84 Co 0.28514 0.26955 0.60052 0.0
O85 O 0.29298 0.25064 0.57641 0.0
O86 O 0.31649 0.27079 0.59548 0.0
C87 C 0.26321 0.2456 0.61829 0.0
O88 O 0.28339 0.29009 0.62696 0.0
Co89 Co 0.23681 0.28387 0.60833 0.0
O90 O 0.24816 0.29121 0.63802 0.0
C91 C 0.26364 0.30745 0.57544 0.0
C92 C 0.31316 0.2566 0.57985 0.0
C93 C 0.2685 0.29503 0.64114 0.0
O94 O 0.28026 0.29512 0.5799 0.0
O95 O 0.24471 0.30497 0.58427 0.0
O96 O 0.28439 0.24457 0.62066 0.0
O97 O 0.25628 0.25924 0.60359 0.0
Co98 Co 0.99275 0.03555 0.85205 0.0
O99 O 0.01302 0.04492 0.82965 0.0
O100 O 0.99369 0.06738 0.85065 0.0
C101 C 0.01427 0.00999 0.868 0.0
O102 O 0.9709 0.03174 0.87713 0.0
Co103 Co 0.97525 0.98748 0.85196 0.0
O104 O 0.96587 0.99541 0.88224 0.0
C105 C 0.95484 0.02015 0.8227 0.0
C106 C 0.00808 0.06494 0.83502 0.0
C107 C 0.96345 0.01532 0.88821 0.0
O108 O 0.96763 0.03511 0.83046 0.0
O109 O 0.95632 0.99982 0.82791 0.0
O110 O 0.01674 0.03064 0.8728 0.0
O111 O 0.00111 0.00591 0.85188 0.0
Co112 Co 0.40716 0.21906 0.26061 0.0
O113 O 0.43284 0.2122 0.24352 0.0
O114 O 0.41005 0.18756 0.25756 0.0
C115 C 0.39349 0.24559 0.23878 0.0
O116 O 0.37877 0.22001 0.27829 0.0
Co117 Co 0.40176 0.26533 0.28146 0.0
O118 O 0.37074 0.25551 0.28479 0.0
C119 C 0.43027 0.23283 0.30314 0.0
C120 C 0.42754 0.19169 0.24598 0.0
C121 C 0.36556 0.23521 0.28471 0.0
O122 O 0.4247 0.21838 0.28872 0.0
O123 O 0.42428 0.25297 0.30221 0.0
O124 O 0.3902 0.22504 0.23406 0.0
O125 O 0.40711 0.24925 0.25462 0.0
Co126 Co 0.03358 0.15088 0.51241 0.0
O127 O 0.04259 0.17573 0.49499 0.0
O128 O 0.06516 0.15062 0.50842 0.0
C129 C 0.00489 0.14034 0.49134 0.0
O130 O 0.03014 0.12279 0.53032 0.0
Co131 Co 0.9872 0.14998 0.5342 0.0
O132 O 0.9942 0.11825 0.53783 0.0
C133 C 0.0228 0.17568 0.5547 0.0
C134 C 0.06253 0.16845 0.49692 0.0
C135 C 0.01391 0.11121 0.53739 0.0
O136 O 0.03671 0.1683 0.54054 0.0
O137 O 0.00213 0.17187 0.55375 0.0
O138 O 0.02474 0.13465 0.48593 0.0
O139 O 0.00353 0.15405 0.5074 0.0
Co140 Co 0.09532 0.78457 0.75717 0.0
O141 O 0.06918 0.79203 0.74093 0.0
O142 O 0.09168 0.81611 0.75631 0.0
C143 C 0.10934 0.75971 0.73364 0.0
O144 O 0.12395 0.78318 0.77438 0.0
Co145 Co 0.10219 0.73719 0.77503 0.0
O146 O 0.13291 0.74763 0.77914 0.0
C147 C 0.07371 0.76772 0.79939 0.0
C148 C 0.07405 0.81243 0.74481 0.0
C149 C 0.13753 0.76804 0.78012 0.0
O150 O 0.07836 0.7831 0.78562 0.0
O151 O 0.08014 0.74783 0.79715 0.0
O152 O 0.112 0.78059 0.73006 0.0
O153 O 0.09597 0.75481 0.74936 0.0
Co154 Co 0.46336 0.84966 0.00782 0.0
O155 O 0.45414 0.8248 0.99059 0.0
O156 O 0.43158 0.8477 0.00751 0.0
C157 C 0.48832 0.86323 0.98404 0.0
O158 O 0.46694 0.87731 0.02633 0.0
Co159 Co 0.51163 0.85286 0.02436 0.0
O160 O 0.50316 0.88392 0.02995 0.0
C161 C 0.48008 0.82511 0.04844 0.0
C162 C 0.43411 0.8305 0.99507 0.0
C163 C 0.48314 0.88967 0.032 0.0
O164 O 0.4646 0.83128 0.03539 0.0
O165 O 0.50025 0.83049 0.04582 0.0
O166 O 0.46756 0.8674 0.98136 0.0
O167 O 0.49287 0.84898 0.99908 0.0
Co168 Co 0.41167 0.77889 0.2394 0.0
O169 O 0.43656 0.78778 0.25688 0.0
O170 O 0.41095 0.81025 0.24423 0.0
C171 C 0.40155 0.74948 0.25969 0.0
O172 O 0.38346 0.77589 0.22174 0.0
Co173 Co 0.41063 0.73342 0.21597 0.0
O174 O 0.37891 0.74044 0.21232 0.0
C175 C 0.43577 0.76988 0.19625 0.0
C176 C 0.42887 0.80763 0.25555 0.0
C177 C 0.37187 0.76011 0.21377 0.0
O178 O 0.42872 0.78311 0.2112 0.0
O179 O 0.43196 0.74919 0.19637 0.0
O180 O 0.39585 0.76914 0.26575 0.0
O181 O 0.41508 0.74865 0.24341 0.0
Co182 Co 0.46476 0.15697 0.49158 0.0
O183 O 0.45646 0.1823 0.50859 0.0
O184 O 0.4331 0.15924 0.49296 0.0
C185 C 0.49047 0.14357 0.51455 0.0
O186 O 0.46717 0.12883 0.47366 0.0
Co187 Co 0.51211 0.15276 0.47298 0.0
O188 O 0.50303 0.12168 0.46832 0.0
C189 C 0.48022 0.181 0.45013 0.0
C190 C 0.43623 0.17669 0.50488 0.0
C191 C 0.48286 0.11609 0.46749 0.0
O192 O 0.46516 0.17484 0.46365 0.0
O193 O 0.50042 0.17549 0.45205 0.0
O194 O 0.46978 0.13978 0.51821 0.0
O195 O 0.4946 0.15746 0.49906 0.0
Co196 Co 0.09845 0.22147 0.74353 0.0
O197 O 0.07359 0.21266 0.76112 0.0
O198 O 0.09908 0.19009 0.74845 0.0
C199 C 0.10878 0.25097 0.76357 0.0
O200 O 0.12658 0.22446 0.7257 0.0
Co201 Co 0.09934 0.26699 0.72 0.0
O202 O 0.13108 0.26001 0.71655 0.0
C203 C 0.07421 0.23046 0.70044 0.0
C204 C 0.08116 0.19277 0.75976 0.0
C205 C 0.13814 0.24034 0.71789 0.0
O206 O 0.08127 0.21721 0.71539 0.0
O207 O 0.07801 0.25114 0.70054 0.0
O208 O 0.11443 0.23133 0.76977 0.0
O209 O 0.09508 0.25171 0.74743 0.0
Co210 Co 0.03525 0.84047 0.99 0.0
O211 O 0.04394 0.81579 0.00782 0.0
O212 O 0.06683 0.84041 0.99399 0.0
C213 C 0.00674 0.85173 0.01085 0.0
O214 O 0.03217 0.86833 0.97161 0.0
Co215 Co 0.98901 0.84135 0.968 0.0
O216 O 0.9963 0.87296 0.96378 0.0
C217 C 0.02438 0.81509 0.948 0.0
C218 C 0.06397 0.82278 0.00576 0.0
C219 C 0.01606 0.87989 0.96423 0.0
O220 O 0.03821 0.82256 0.9622 0.0
O221 O 0.00375 0.81909 0.9487 0.0
O222 O 0.02667 0.85722 0.01619 0.0
O223 O 0.00516 0.83775 0.99503 0.0
Co224 Co 0.26485 0.4094 0.21937 0.0
O225 O 0.24684 0.43368 0.20975 0.0
O226 O 0.2684 0.414 0.18814 0.0
C227 C 0.2391 0.39206 0.23965 0.0
O228 O 0.28487 0.38276 0.22274 0.0
Co229 Co 0.27543 0.4011 0.26863 0.0
O230 O 0.28339 0.37136 0.25784 0.0
C231 C 0.30213 0.43303 0.24337 0.0
C232 C 0.25404 0.42969 0.19007 0.0
C233 C 0.28872 0.36845 0.23783 0.0
O234 O 0.29048 0.42956 0.22601 0.0
O235 O 0.29819 0.42399 0.26196 0.0
O236 O 0.23955 0.38967 0.21846 0.0
O237 O 0.25243 0.40659 0.24747 0.0
Co238 Co 0.76699 0.09442 0.77882 0.0
O239 O 0.74959 0.06926 0.78709 0.0
O240 O 0.76331 0.09355 0.8104 0.0
C241 C 0.74588 0.10615 0.75067 0.0
O242 O 0.78493 0.1226 0.77638 0.0
Co243 Co 0.78887 0.09689 0.73262 0.0
O244 O 0.79271 0.12835 0.74068 0.0
C245 C 0.80937 0.06998 0.76722 0.0
C246 C 0.75183 0.07579 0.80727 0.0
C247 C 0.79216 0.13472 0.76062 0.0
O248 O 0.79502 0.07683 0.7812 0.0
O249 O 0.80866 0.07459 0.74671 0.0
O250 O 0.74053 0.11098 0.77077 0.0
O251 O 0.76188 0.09242 0.74867 0.0
Co252 Co 0.16924 0.51084 0.02514 0.0
O253 O 0.1918 0.49174 0.03635 0.0
O254 O 0.16691 0.5085 0.05683 0.0
C255 C 0.15784 0.49001 0.99666 0.0
O256 O 0.14332 0.53126 0.01912 0.0
Co257 Co 0.1755 0.53088 0.9784 0.0
O258 O 0.14534 0.54206 0.98376 0.0
C259 C 0.19878 0.55075 0.01549 0.0
C260 C 0.18394 0.49562 0.05578 0.0
C261 C 0.13568 0.54171 0.00236 0.0
O262 O 0.18898 0.5373 0.02857 0.0
O263 O 0.19721 0.54965 0.99457 0.0
O264 O 0.15099 0.48576 0.01644 0.0
O265 O 0.17355 0.50421 0.99549 0.0
Co266 Co 0.7326 0.90769 0.27959 0.0
O267 O 0.74902 0.93388 0.28657 0.0
O268 O 0.73577 0.91044 0.31104 0.0
C269 C 0.75489 0.8954 0.25266 0.0
O270 O 0.7158 0.8787 0.27888 0.0
Co271 Co 0.71185 0.90017 0.23354 0.0
O272 O 0.71038 0.86915 0.24363 0.0
C273 C 0.68885 0.92817 0.26596 0.0
C274 C 0.74686 0.92827 0.30704 0.0
C275 C 0.71026 0.86467 0.26408 0.0
O276 O 0.70399 0.92453 0.28033 0.0
O277 O 0.68956 0.9208 0.24627 0.0
O278 O 0.7598 0.89174 0.27311 0.0
O279 O 0.73819 0.90803 0.2494 0.0
Co280 Co 0.84317 0.98154 0.03612 0.0
O281 O 0.81992 0.00054 0.04579 0.0
O282 O 0.84191 0.98207 0.06803 0.0
C283 C 0.8583 0.00416 0.01101 0.0
O284 O 0.86927 0.96097 0.03154 0.0
Co285 Co 0.84173 0.96549 0.98748 0.0
O286 O 0.87093 0.95336 0.9953 0.0
C287 C 0.81529 0.94232 0.02052 0.0
C288 C 0.82571 0.99585 0.06573 0.0
C289 C 0.87848 0.95183 0.0148 0.0
O290 O 0.82286 0.95526 0.03546 0.0
O291 O 0.81938 0.94476 1.00004 0.0
O292 O 0.86273 0.00654 0.03173 0.0
O293 O 0.84249 0.99068 0.00667 0.0
Co294 Co 0.23527 0.59438 0.71479 0.0
O295 O 0.25276 0.56947 0.70618 0.0
O296 O 0.23477 0.5911 0.68316 0.0
C297 C 0.25931 0.60955 0.73847 0.0
O298 O 0.21637 0.62188 0.71745 0.0
Co299 Co 0.21962 0.59969 0.7631 0.0
O300 O 0.21347 0.63029 0.75333 0.0
C301 C 0.1955 0.56986 0.73363 0.0
C302 C 0.24767 0.57432 0.68604 0.0
C303 C 0.21095 0.63502 0.73308 0.0
O304 O 0.20817 0.5755 0.71764 0.0
O305 O 0.1983 0.57639 0.75343 0.0
O306 O 0.26145 0.61272 0.71747 0.0
O307 O 0.24467 0.59525 0.74409 0.0
Co308 Co 0.16083 0.48198 0.47268 0.0
O309 O 0.18602 0.49937 0.46412 0.0
O310 O 0.16202 0.48481 0.44107 0.0
C311 C 0.14876 0.50391 0.50012 0.0
O312 O 0.13266 0.46395 0.47498 0.0
Co313 Co 0.15645 0.46146 0.51934 0.0
O314 O 0.12524 0.45765 0.5106 0.0
C315 C 0.18331 0.43897 0.48561 0.0
C316 C 0.17964 0.49654 0.44396 0.0
C317 C 0.1198 0.4573 0.4904 0.0
O318 O 0.17866 0.45395 0.47136 0.0
O319 O 0.17697 0.43967 0.50565 0.0
O320 O 0.14405 0.50858 0.47982 0.0
O321 O 0.16233 0.48788 0.5028 0.0
Co322 Co 0.32822 0.5222 0.97919 0.0
O323 O 0.30528 0.50338 0.968 0.0
O324 O 0.32937 0.52122 0.94743 0.0
C325 C 0.3407 0.49987 0.00613 0.0
O326 O 0.35452 0.54228 0.98468 0.0
Co327 Co 0.32574 0.53993 0.0272 0.0
O328 O 0.35565 0.55101 0.02061 0.0
C329 C 0.30026 0.56203 0.99248 0.0
C330 C 0.31267 0.50792 0.94851 0.0
C331 C 0.36373 0.5516 0.0013 0.0
O332 O 0.30812 0.54874 0.97798 0.0
O333 O 0.30419 0.5603 0.01306 0.0
O334 O 0.34681 0.49677 0.98592 0.0
O335 O 0.32529 0.51418 0.00874 0.0
Co336 Co 0.70586 0.76217 0.89749 0.0
O337 O 0.69784 0.74322 0.92156 0.0
O338 O 0.67432 0.76292 0.90214 0.0
C339 C 0.72839 0.73827 0.88037 0.0
O340 O 0.70804 0.78281 0.87105 0.0
Co341 Co 0.75443 0.77658 0.8905 0.0
O342 O 0.74351 0.78427 0.86074 0.0
C343 C 0.72665 0.80051 0.92241 0.0
C344 C 0.67762 0.74881 0.91787 0.0
C345 C 0.72324 0.78812 0.85729 0.0
O346 O 0.71017 0.78795 0.918 0.0
O347 O 0.74575 0.79793 0.914 0.0
O348 O 0.70729 0.73709 0.87745 0.0
O349 O 0.73483 0.75209 0.89509 0.0
Co350 Co 0.47914 0.46714 0.16193 0.0
O351 O 0.50022 0.4569 0.1832 0.0
O352 O 0.47732 0.43536 0.16508 0.0
C353 C 0.50166 0.48966 0.14287 0.0
O354 O 0.45577 0.472 0.13827 0.0
Co355 Co 0.46712 0.51701 0.16141 0.0
O356 O 0.45015 0.5085 0.13497 0.0
C357 C 0.44538 0.48778 0.19329 0.0
C358 C 0.49312 0.43719 0.17938 0.0
C359 C 0.44656 0.48872 0.12909 0.0
O360 O 0.45601 0.47116 0.18556 0.0
O361 O 0.44863 0.50754 0.18688 0.0
O362 O 0.50167 0.46868 0.13903 0.0
O363 O 0.49049 0.49573 0.15981 0.0
Co364 Co 0.7806 0.241 0.40826 0.0
O365 O 0.7905 0.25949 0.432 0.0
O366 O 0.81235 0.24069 0.4099 0.0
C367 C 0.75596 0.2642 0.39327 0.0
O368 O 0.77651 0.22101 0.38172 0.0
Co369 Co 0.73216 0.22489 0.40645 0.0
O370 O 0.7402 0.21738 0.37566 0.0
C371 C 0.7635 0.20199 0.43525 0.0
C372 C 0.81036 0.25414 0.42637 0.0
C373 C 0.76015 0.21485 0.36982 0.0
O374 O 0.779 0.21461 0.42826 0.0
O375 O 0.74333 0.20443 0.42984 0.0
O376 O 0.77677 0.2664 0.38904 0.0
O377 O 0.75122 0.25024 0.40854 0.0
Co378 Co 0.01147 0.53432 0.65704 0.0
O379 O 0.99033 0.54403 0.67836 0.0
O380 O 0.0107 0.5662 0.65798 0.0
C381 C 0.99071 0.50877 0.64023 0.0
O382 O 0.03441 0.52981 0.63294 0.0
Co383 Co 0.02812 0.48604 0.66056 0.0
O384 O 0.04353 0.49388 0.63291 0.0
C385 C 0.04731 0.51935 0.68947 0.0
C386 C 0.99564 0.56396 0.67301 0.0
C387 C 0.04501 0.51326 0.62505 0.0
O388 O 0.03557 0.53409 0.67984 0.0
O389 O 0.04539 0.49879 0.68556 0.0
O390 O 0.98846 0.5294 0.63529 0.0
O391 O 0.00276 0.5048 0.65724 0.0
Co392 Co 0.72047 0.24134 0.59167 0.0
O393 O 0.70972 0.2616 0.56992 0.0
O394 O 0.68873 0.23921 0.5894 0.0
C395 C 0.7434 0.26445 0.60938 0.0
O396 O 0.72581 0.21883 0.616 0.0
Co397 Co 0.77023 0.22911 0.59155 0.0
O398 O 0.76236 0.21363 0.6191 0.0
C399 C 0.74028 0.20646 0.56106 0.0
C400 C 0.69017 0.25443 0.57443 0.0
C401 C 0.74268 0.21014 0.62538 0.0
O402 O 0.72394 0.21747 0.56877 0.0
O403 O 0.76018 0.20966 0.56703 0.0
O404 O 0.7225 0.26467 0.61366 0.0
O405 O 0.7491 0.25269 0.59271 0.0
Co406 Co 0.0221 0.46797 0.83699 0.0
O407 O 0.00191 0.45839 0.81463 0.0
O408 O 0.02443 0.4364 0.83271 0.0
C409 C 0.99848 0.48925 0.856 0.0
O410 O 0.04459 0.47207 0.86161 0.0
Co411 Co 0.03326 0.51795 0.84045 0.0
O412 O 0.04953 0.50841 0.86698 0.0
C413 C 0.05663 0.4906 0.80804 0.0
C414 C 0.009 0.43861 0.81806 0.0
C415 C 0.05328 0.4884 0.87193 0.0
O416 O 0.04595 0.47343 0.81441 0.0
O417 O 0.05286 0.50994 0.81535 0.0
O418 O 0.99875 0.46815 0.85909 0.0
O419 O 0.01024 0.49623 0.83983 0.0
Co420 Co 0.79216 0.75575 0.09986 0.0
O421 O 0.80216 0.7349 0.07843 0.0
O422 O 0.82406 0.75618 0.0981 0.0
C423 C 0.76785 0.73398 0.11738 0.0
O424 O 0.7872 0.77863 0.12384 0.0
Co425 Co 0.74298 0.77002 0.09725 0.0
O426 O 0.7509 0.78623 0.12439 0.0
C427 C 0.77502 0.79132 0.06822 0.0
C428 C 0.822 0.74094 0.08322 0.0
C429 C 0.77035 0.78866 0.1318 0.0
O430 O 0.79047 0.77989 0.07708 0.0
O431 O 0.75465 0.78846 0.07257 0.0
O432 O 0.78866 0.73267 0.12192 0.0
O433 O 0.76305 0.74572 0.10039 0.0
Co434 Co 0.48683 0.52628 0.34385 0.0
O435 O 0.50501 0.53466 0.31928 0.0
O436 O 0.48524 0.55769 0.33922 0.0
C437 C 0.51151 0.50448 0.36084 0.0
O438 O 0.46714 0.52408 0.37092 0.0
Co439 Co 0.47348 0.47764 0.35209 0.0
O440 O 0.46686 0.48882 0.38201 0.0
C441 C 0.44813 0.5044 0.32037 0.0
C442 C 0.49923 0.55477 0.32334 0.0
C443 C 0.46284 0.5091 0.38524 0.0
O444 O 0.46054 0.52119 0.32408 0.0
O445 O 0.45127 0.48553 0.32911 0.0
O446 O 0.51246 0.52566 0.36317 0.0
O447 O 0.49757 0.49752 0.34646 0.0
Co448 Co 0.89617 0.71759 0.759 0.0
O449 O 0.92142 0.70928 0.74179 0.0
O450 O 0.89805 0.68595 0.75703 0.0
C451 C 0.88288 0.74387 0.73658 0.0
O452 O 0.86801 0.71998 0.77694 0.0
Co453 Co 0.89238 0.76463 0.77849 0.0
O454 O 0.86112 0.75588 0.78244 0.0
C455 C 0.92013 0.73197 0.80088 0.0
C456 C 0.9155 0.68905 0.74507 0.0
C457 C 0.85532 0.73576 0.783 0.0
O458 O 0.91399 0.71724 0.78699 0.0
O459 O 0.91475 0.75224 0.79936 0.0
O460 O 0.87908 0.72328 0.73247 0.0
O461 O 0.89689 0.74759 0.75208 0.0
Co462 Co 0.52722 0.65616 0.01727 0.0
O463 O 0.53575 0.68042 0.99878 0.0
O464 O 0.55854 0.65515 0.01149 0.0
C465 C 0.49709 0.6458 0.99828 0.0
O466 O 0.52417 0.62854 0.03609 0.0
Co467 Co 0.48226 0.65718 0.04187 0.0
O468 O 0.48868 0.62539 0.04612 0.0
C469 C 0.51961 0.68253 0.0593 0.0
C470 C 0.55564 0.67286 0.99984 0.0
C471 C 0.50809 0.61769 0.04459 0.0
O472 O 0.5324 0.67417 0.04466 0.0
O473 O 0.49882 0.67939 0.05969 0.0
O474 O 0.51644 0.63953 0.99178 0.0
O475 O 0.49703 0.65995 0.014 0.0
Co476 Co 0.59069 0.28196 0.26559 0.0
O477 O 0.56605 0.2903 0.24733 0.0
O478 O 0.58676 0.31352 0.26604 0.0
C479 C 0.60703 0.25861 0.24183 0.0
O480 O 0.61782 0.27986 0.28526 0.0
Co481 Co 0.59752 0.23376 0.28113 0.0
O482 O 0.62777 0.24433 0.2873 0.0
C483 C 0.56704 0.26263 0.30558 0.0
C484 C 0.57043 0.3105 0.2526 0.0
C485 C 0.63161 0.26466 0.2904 0.0
O486 O 0.57106 0.27859 0.29223 0.0
O487 O 0.57518 0.24337 0.30334 0.0
O488 O 0.60979 0.27969 0.23988 0.0
O489 O 0.59252 0.25265 0.25611 0.0
Co490 Co 0.96954 0.34233 0.51452 0.0
O491 O 0.95968 0.31879 0.49575 0.0
O492 O 0.93783 0.34014 0.5154 0.0
C493 C 0.99335 0.35796 0.4908 0.0
O494 O 0.97345 0.36868 0.53486 0.0
Co495 Co 0.01828 0.34586 0.5294 0.0
O496 O 0.00956 0.37644 0.53662 0.0
C497 C 0.98806 0.31631 0.55336 0.0
C498 C 0.93983 0.32408 0.50145 0.0
C499 C 0.98953 0.38138 0.5401 0.0
O500 O 0.97216 0.32175 0.54047 0.0
O501 O 0.00774 0.32337 0.55105 0.0
O502 O 0.97247 0.36206 0.48936 0.0
O503 O 0.99872 0.34275 0.50459 0.0
Co504 Co 0.90876 0.28299 0.73655 0.0
O505 O 0.93369 0.291 0.75447 0.0
O506 O 0.91324 0.31448 0.73576 0.0
C507 C 0.89233 0.26006 0.76063 0.0
O508 O 0.88141 0.28112 0.71716 0.0
Co509 Co 0.90124 0.23477 0.72149 0.0
O510 O 0.8711 0.24566 0.71546 0.0
C511 C 0.93205 0.26299 0.69674 0.0
C512 C 0.92971 0.31122 0.74899 0.0
C513 C 0.86741 0.26601 0.71228 0.0
O514 O 0.92815 0.27914 0.70986 0.0
O515 O 0.92369 0.24384 0.69916 0.0
O516 O 0.88981 0.28118 0.76243 0.0
O517 O 0.90664 0.25382 0.74629 0.0
Co518 Co 0.9749 0.65163 0.98514 0.0
O519 O 0.96646 0.67554 0.00415 0.0
O520 O 0.94372 0.65037 0.99108 0.0
C521 C 0.00512 0.64062 0.00361 0.0
O522 O 0.9777 0.62436 0.96594 0.0
Co523 Co 0.01944 0.65309 0.95996 0.0
O524 O 0.0131 0.6213 0.95566 0.0
C525 C 0.98187 0.67844 0.94309 0.0
C526 C 0.94661 0.66781 0.00308 0.0
C527 C 0.9937 0.61357 0.95733 0.0
O528 O 0.9694 0.67012 0.95806 0.0
O529 O 0.00262 0.67518 0.9422 0.0
O530 O 0.98575 0.63454 0.01023 0.0
O531 O 0.00521 0.6552 0.98822 0.0
Co532 Co 0.6036 0.70957 0.24557 0.0
O533 O 0.57877 0.70034 0.26285 0.0
O534 O 0.6014 0.67779 0.24556 0.0
C535 C 0.61744 0.73436 0.2693 0.0
O536 O 0.63113 0.71317 0.22682 0.0
Co537 Co 0.6068 0.75793 0.22922 0.0
O538 O 0.63771 0.74938 0.22297 0.0
C539 C 0.57889 0.72658 0.20519 0.0
C540 C 0.58416 0.68031 0.25796 0.0
C541 C 0.64341 0.72935 0.22088 0.0
O542 O 0.58503 0.71108 0.21821 0.0
O543 O 0.58439 0.74672 0.20777 0.0
O544 O 0.62157 0.71358 0.2719 0.0
O545 O 0.60307 0.739 0.25443 0.0
Co546 Co 0.52935 0.34165 0.48873 0.0
O547 O 0.53846 0.31696 0.50649 0.0
O548 O 0.56096 0.33893 0.48824 0.0
C549 C 0.50545 0.3565 0.51284 0.0
O550 O 0.52656 0.3691 0.46973 0.0
Co551 Co 0.48114 0.34765 0.47314 0.0
O552 O 0.49087 0.37834 0.46772 0.0
C553 C 0.51081 0.31824 0.4483 0.0
C554 C 0.55849 0.32227 0.5014 0.0
C555 C 0.51114 0.38271 0.46487 0.0
O556 O 0.52668 0.32247 0.4617 0.0
O557 O 0.49136 0.32589 0.45064 0.0
O558 O 0.52639 0.36007 0.51483 0.0
O559 O 0.49998 0.34224 0.49812 0.0
Co560 Co 0.76035 0.91231 0.71729 0.0
O561 O 0.74311 0.93714 0.70758 0.0
O562 O 0.76333 0.91611 0.68593 0.0
C563 C 0.73486 0.89622 0.73886 0.0
O564 O 0.7795 0.88502 0.72076 0.0
Co565 Co 0.77265 0.90546 0.7663 0.0
O566 O 0.77914 0.87507 0.75634 0.0
C567 C 0.79898 0.93593 0.73921 0.0
C568 C 0.75004 0.9327 0.68789 0.0
C569 C 0.78347 0.87117 0.73625 0.0
O570 O 0.78673 0.93176 0.72247 0.0
O571 O 0.79561 0.92776 0.75831 0.0
O572 O 0.73439 0.89349 0.71769 0.0
O573 O 0.74882 0.9106 0.74587 0.0
Co574 Co 0.27019 0.58699 0.287 0.0
O575 O 0.24994 0.5649 0.29713 0.0
O576 O 0.27218 0.5838 0.31872 0.0
C577 C 0.24692 0.6053 0.26467 0.0
O578 O 0.29259 0.6116 0.28236 0.0
Co579 Co 0.28225 0.58858 0.23718 0.0
O580 O 0.29773 0.61586 0.2459 0.0
C581 C 0.30518 0.55724 0.26608 0.0
C582 C 0.25684 0.56901 0.31685 0.0
C583 C 0.30121 0.62155 0.26575 0.0
O584 O 0.29419 0.56429 0.28276 0.0
O585 O 0.30182 0.56385 0.24641 0.0
O586 O 0.24678 0.60894 0.28569 0.0
O587 O 0.25877 0.58889 0.25843 0.0
Co588 Co 0.66149 0.02449 0.53264 0.0
O589 O 0.68703 0.0075 0.54049 0.0
O590 O 0.66669 0.02633 0.56397 0.0
C591 C 0.64538 0.99887 0.51125 0.0
O592 O 0.63364 0.04307 0.53101 0.0
Co593 Co 0.6515 0.03739 0.48426 0.0
O594 O 0.62158 0.04272 0.4961 0.0
C595 C 0.68301 0.06393 0.51014 0.0
C596 C 0.68321 0.01319 0.56068 0.0
C597 C 0.61879 0.04679 0.51643 0.0
O598 O 0.68009 0.05149 0.52706 0.0
O599 O 0.67386 0.06049 0.49151 0.0
O600 O 0.6433 0.99803 0.53246 0.0
O601 O 0.65881 0.01357 0.50393 0.0
Co602 Co 0.23874 0.41489 0.7848 0.0
O603 O 0.25714 0.43818 0.79586 0.0
O604 O 0.23474 0.41808 0.81622 0.0
C605 C 0.26413 0.39782 0.76391 0.0
O606 O 0.21802 0.38902 0.77946 0.0
Co607 Co 0.22925 0.41142 0.73455 0.0
O608 O 0.21504 0.38336 0.74301 0.0
C609 C 0.20321 0.44203 0.76156 0.0
C610 C 0.24929 0.4337 0.81517 0.0
C611 C 0.21086 0.37806 0.76284 0.0
O612 O 0.2138 0.43614 0.77895 0.0
O613 O 0.20779 0.43504 0.74228 0.0
O614 O 0.26341 0.39432 0.78496 0.0
O615 O 0.25165 0.41341 0.75687 0.0
Co616 Co 0.34217 0.48597 0.5312 0.0
O617 O 0.31781 0.50463 0.53907 0.0
O618 O 0.33801 0.48576 0.56268 0.0
C619 C 0.35895 0.50925 0.50777 0.0
O620 O 0.36894 0.46586 0.52955 0.0
Co621 Co 0.34908 0.46977 0.4833 0.0
O622 O 0.37909 0.46294 0.49416 0.0
C623 C 0.31759 0.44653 0.51206 0.0
C624 C 0.32189 0.49937 0.55934 0.0
C625 C 0.38272 0.4601 0.51458 0.0
O626 O 0.32207 0.45976 0.52795 0.0
O627 O 0.32587 0.44836 0.49281 0.0
O628 O 0.36168 0.51134 0.52883 0.0
O629 O 0.3443 0.49509 0.50184 0.0
Co630 Co 0.7389 0.09735 0.21781 0.0
O631 O 0.75814 0.07351 0.2098 0.0
O632 O 0.7409 0.09505 0.18615 0.0
C633 C 0.76011 0.11291 0.24378 0.0
O634 O 0.7185 0.12391 0.2201 0.0
Co635 Co 0.71921 0.09932 0.26485 0.0
O636 O 0.71258 0.13011 0.25609 0.0
C637 C 0.69886 0.07021 0.23216 0.0
C638 C 0.75413 0.0786 0.18949 0.0
C639 C 0.71138 0.13591 0.23601 0.0
O640 O 0.71266 0.07717 0.21773 0.0
O641 O 0.69958 0.07585 0.2524 0.0
O642 O 0.76384 0.11675 0.22312 0.0
O643 O 0.74597 0.09757 0.24779 0.0
Co644 Co 0.65645 0.98605 0.96114 0.0
O645 O 0.68151 0.00365 0.95306 0.0
O646 O 0.66016 0.98602 0.92954 0.0
C647 C 0.64136 0.01011 0.98489 0.0
O648 O 0.62878 0.96718 0.96316 0.0
Co649 Co 0.6494 0.97018 0.00919 0.0
O650 O 0.61897 0.96484 0.9987 0.0
C651 C 0.67894 0.9452 0.97979 0.0
C652 C 0.67685 0.99898 0.9328 0.0
C653 C 0.61496 0.9621 0.97835 0.0
O654 O 0.67526 0.95884 0.964 0.0
O655 O 0.67097 0.94743 0.99912 0.0
O656 O 0.6382 0.0123 0.9639 0.0
O657 O 0.65529 0.99517 0.99054 0.0
Co658 Co 0.83896 0.01421 0.46457 0.0
O659 O 0.8158 0.99587 0.45338 0.0
O660 O 0.83872 0.01516 0.43276 0.0
C661 C 0.85301 0.99064 0.48935 0.0
O662 O 0.86516 0.03429 0.47041 0.0
Co663 Co 0.83683 0.02904 0.51345 0.0
O664 O 0.8663 0.04131 0.50674 0.0
C665 C 0.8102 0.05243 0.48086 0.0
C666 C 0.82218 0.00164 0.43388 0.0
C667 C 0.87425 0.04298 0.48742 0.0
O668 O 0.81871 0.04045 0.46565 0.0
O669 O 0.81384 0.04931 0.50132 0.0
O670 O 0.85812 0.98889 0.46871 0.0
O671 O 0.8373 0.00423 0.49366 0.0
H672 H 0.10657 0.15883 0.49932 0.0
H673 H 0.14168 0.25209 0.41299 0.0
H674 H 0.0608 0.20413 0.46972 0.0
H675 H 0.18823 0.2127 0.44911 0.0
H676 H 0.11174 0.23423 0.43308 0.0
H677 H 0.1367 0.17778 0.4805 0.0
C678 C 0.10286 0.17277 0.48891 0.0
C679 C 0.08112 0.17988 0.4861 0.0
C680 C 0.12851 0.22955 0.43667 0.0
C681 C 0.11551 0.20161 0.46443 0.0
C682 C 0.14561 0.23975 0.42519 0.0
C683 C 0.1675 0.23389 0.42936 0.0
C684 C 0.1333 0.21325 0.45234 0.0
C685 C 0.17161 0.21777 0.44536 0.0
C686 C 0.12007 0.18361 0.47818 0.0
C687 C 0.0773 0.19806 0.4724 0.0
N688 N 0.1547 0.20797 0.45618 0.0
N689 N 0.09428 0.20823 0.46204 0.0
H690 H 0.03753 0.8094 0.71875 0.0
H691 H 0.02191 0.93966 0.70887 0.0
H692 H 0.07923 0.85673 0.75109 0.0
H693 H 0.98371 0.89297 0.67166 0.0
H694 H 0.0409 0.90931 0.72684 0.0
H695 H 0.01574 0.83953 0.70359 0.0
C696 C 0.04207 0.82613 0.72274 0.0
C697 C 0.06031 0.83055 0.73615 0.0
C698 C 0.0283 0.90566 0.71483 0.0
C699 C 0.03537 0.86515 0.71883 0.0
C700 C 0.01739 0.923 0.70458 0.0
C701 C 0.00124 0.91887 0.68864 0.0
C702 C 0.02309 0.88392 0.70914 0.0
C703 C 0.99607 0.89692 0.68381 0.0
C704 C 0.02961 0.84334 0.71405 0.0
C705 C 0.06536 0.85255 0.74077 0.0
N706 N 0.00704 0.88027 0.69395 0.0
N707 N 0.053 0.86901 0.73209 0.0
H708 H 0.39 0.83812 0.00098 0.0
H709 H 0.35293 0.74326 0.91735 0.0
H710 H 0.43529 0.79474 0.96804 0.0
H711 H 0.30725 0.78423 0.95275 0.0
H712 H 0.38328 0.76119 0.93668 0.0
H713 H 0.35937 0.81802 0.9843 0.0
C714 C 0.3935 0.82433 0.99032 0.0
C715 C 0.41525 0.81815 0.98587 0.0
C716 C 0.36661 0.76618 0.94032 0.0
C717 C 0.3803 0.79509 0.96666 0.0
C718 C 0.34927 0.75591 0.9293 0.0
C719 C 0.32751 0.76227 0.93339 0.0
C720 C 0.3622 0.78302 0.95549 0.0
C721 C 0.32377 0.7788 0.94905 0.0
C722 C 0.37602 0.81285 0.9808 0.0
C723 C 0.4188 0.80012 0.97193 0.0
N724 N 0.34091 0.78866 0.95943 0.0
N725 N 0.40155 0.7893 0.96278 0.0
H726 H 0.46568 0.1959 0.22277 0.0
H727 H 0.50947 0.11152 0.15921 0.0
H728 H 0.41908 0.14739 0.24513 0.0
H729 H 0.47459 0.06774 0.20271 0.0
H730 H 0.49301 0.14273 0.17802 0.0
H731 H 0.48622 0.16718 0.20415 0.0
C732 C 0.45968 0.17917 0.22364 0.0
C733 C 0.4405 0.17409 0.23537 0.0
C734 C 0.48925 0.12639 0.18387 0.0
C735 C 0.46365 0.14095 0.21339 0.0
C736 C 0.49856 0.1085 0.17293 0.0
C737 C 0.49346 0.08699 0.17942 0.0
C738 C 0.4748 0.12275 0.20156 0.0
C739 C 0.47903 0.08405 0.19717 0.0
C740 C 0.47134 0.16272 0.21275 0.0
C741 C 0.43371 0.15208 0.23617 0.0
N742 N 0.47015 0.1017 0.20753 0.0
N743 N 0.44525 0.13635 0.22529 0.0
H744 H 0.19209 0.78012 0.05077 0.0
H745 H 0.06191 0.78745 0.03345 0.0
H746 H 0.14574 0.74144 0.08795 0.0
H747 H 0.1081 0.83179 0.00301 0.0
H748 H 0.09237 0.76891 0.05187 0.0
H749 H 0.16161 0.79754 0.03147 0.0
C750 C 0.17548 0.77521 0.05485 0.0
C751 C 0.17148 0.75928 0.07106 0.0
C752 C 0.09586 0.78268 0.04116 0.0
C753 C 0.13638 0.77928 0.04893 0.0
C754 C 0.07847 0.79328 0.03059 0.0
C755 C 0.08244 0.81125 0.01666 0.0
C756 C 0.11746 0.79 0.03774 0.0
C757 C 0.10426 0.81804 0.01362 0.0
C758 C 0.15806 0.78523 0.04382 0.0
C759 C 0.14959 0.75364 0.0756 0.0
N760 N 0.12093 0.80741 0.02405 0.0
N761 N 0.13286 0.76363 0.0646 0.0
H762 H 0.46519 0.93598 0.3049 0.0
H763 H 0.46457 0.80627 0.28288 0.0
H764 H 0.50612 0.89041 0.34056 0.0
H765 H 0.41791 0.85127 0.25423 0.0
H766 H 0.48162 0.83698 0.3024 0.0
H767 H 0.44935 0.90532 0.28455 0.0
C768 C 0.4709 0.91951 0.30844 0.0
C769 C 0.48701 0.91577 0.32451 0.0
C770 C 0.46767 0.84015 0.29183 0.0
C771 C 0.46887 0.88047 0.30116 0.0
C772 C 0.45795 0.82263 0.28063 0.0
C773 C 0.43975 0.8262 0.26691 0.0
C774 C 0.45921 0.86145 0.28924 0.0
C775 C 0.43188 0.84774 0.26465 0.0
C776 C 0.4618 0.90198 0.29681 0.0
C777 C 0.49372 0.89405 0.32835 0.0
N778 N 0.44165 0.86453 0.27569 0.0
N779 N 0.48463 0.87721 0.31676 0.0
H780 H 0.35726 0.2653 0.58322 0.0
H781 H 0.392 0.16966 0.49969 0.0
H782 H 0.31072 0.22515 0.54792 0.0
H783 H 0.43842 0.21269 0.5316 0.0
H784 H 0.36194 0.19031 0.51656 0.0
H785 H 0.38722 0.24689 0.56375 0.0
C786 C 0.35334 0.25272 0.57128 0.0
C787 C 0.33146 0.24672 0.56725 0.0
C788 C 0.3787 0.19529 0.51981 0.0
C789 C 0.36565 0.22545 0.545 0.0
C790 C 0.39587 0.18349 0.51018 0.0
C791 C 0.41776 0.1894 0.51429 0.0
C792 C 0.38345 0.2131 0.53372 0.0
C793 C 0.4218 0.2075 0.528 0.0
C794 C 0.37045 0.24218 0.56018 0.0
C795 C 0.32734 0.23029 0.55159 0.0
N796 N 0.40483 0.21864 0.53728 0.0
N797 N 0.34426 0.22017 0.54114 0.0
H798 H 0.04524 0.19417 0.78681 0.0
H799 H 0.0406 0.06382 0.80421 0.0
H800 H 0.0915 0.14898 0.75791 0.0
H801 H 0.99967 0.10907 0.84021 0.0
H802 H 0.05816 0.0948 0.78585 0.0
H803 H 0.02716 0.16331 0.80518 0.0
C804 C 0.05158 0.17775 0.78429 0.0
C805 C 0.06994 0.17416 0.77078 0.0
C806 C 0.04535 0.09801 0.79776 0.0
C807 C 0.04926 0.13872 0.79178 0.0
C808 C 0.03526 0.0803 0.80826 0.0
C809 C 0.01862 0.08383 0.82381 0.0
C810 C 0.03873 0.11953 0.80272 0.0
C811 C 0.01245 0.10558 0.82836 0.0
C812 C 0.04126 0.16014 0.79483 0.0
C813 C 0.07743 0.15253 0.76817 0.0
N814 N 0.02248 0.1226 0.81783 0.0
N815 N 0.06705 0.13565 0.77854 0.0
H816 H 0.22199 0.46126 0.18906 0.0
H817 H 0.21906 0.46782 0.05759 0.0
H818 H 0.26513 0.42427 0.14677 0.0
H819 H 0.17317 0.50218 0.09919 0.0
H820 H 0.23699 0.45297 0.09019 0.0
H821 H 0.20515 0.47795 0.15661 0.0
C822 C 0.22806 0.45677 0.17296 0.0
C823 C 0.245 0.44129 0.17065 0.0
C824 C 0.223 0.46374 0.09225 0.0
C825 C 0.22564 0.46025 0.13337 0.0
C826 C 0.2127 0.47222 0.0736 0.0
C827 C 0.19451 0.48624 0.07563 0.0
C828 C 0.21513 0.46929 0.1132 0.0
C829 C 0.18709 0.49138 0.09684 0.0
C830 C 0.21836 0.46626 0.15442 0.0
C831 C 0.25213 0.4361 0.14935 0.0
N832 N 0.19742 0.48292 0.1148 0.0
N833 N 0.24238 0.4455 0.13157 0.0
H834 H 0.72461 0.04011 0.80489 0.0
H835 H 0.71031 0.02883 0.93523 0.0
H836 H 0.75565 0.0835 0.85154 0.0
H837 H 0.67174 0.99209 0.88848 0.0
H838 H 0.72936 0.04684 0.90485 0.0
H839 H 0.70731 0.02039 0.83529 0.0
C840 C 0.72784 0.04548 0.82154 0.0
C841 C 0.74157 0.06355 0.82566 0.0
C842 C 0.71677 0.0348 0.90121 0.0
C843 C 0.7218 0.04094 0.86061 0.0
C844 C 0.70592 0.02444 0.91856 0.0
C845 C 0.68934 0.00895 0.91441 0.0
C846 C 0.71111 0.02962 0.87946 0.0
C847 C 0.68437 0.00396 0.89246 0.0
C848 C 0.71791 0.0342 0.8389 0.0
C849 C 0.74514 0.06972 0.84758 0.0
N850 N 0.69519 0.01428 0.87582 0.0
N851 N 0.73532 0.05844 0.86422 0.0
H852 H 0.77107 0.96601 0.30335 0.0
H853 H 0.83211 0.00936 0.39052 0.0
H854 H 0.74645 0.91991 0.35125 0.0
H855 H 0.78723 0.97364 0.43217 0.0
H856 H 0.81427 0.99342 0.35836 0.0
H857 H 0.78937 0.98619 0.33264 0.0
C858 C 0.7696 0.96007 0.32006 0.0
C859 C 0.75733 0.94113 0.32483 0.0
C860 C 0.80796 0.98934 0.37444 0.0
C861 C 0.77884 0.96387 0.35859 0.0
C862 C 0.81833 0.99835 0.39287 0.0
C863 C 0.81114 0.99287 0.41407 0.0
C864 C 0.79018 0.97479 0.37726 0.0
C865 C 0.79333 0.97837 0.41615 0.0
C866 C 0.7803 0.97151 0.33684 0.0
C867 C 0.75582 0.93435 0.34679 0.0
N868 N 0.78356 0.9698 0.39802 0.0
N869 N 0.76646 0.9457 0.36282 0.0
H870 H 0.83409 0.99089 0.10998 0.0
H871 H 0.74708 0.08346 0.14526 0.0
H872 H 0.79226 0.02554 0.06444 0.0
H873 H 0.7841 0.04516 0.19202 0.0
H874 H 0.76397 0.06256 0.11543 0.0
H875 H 0.81635 0.01054 0.14039 0.0
C876 C 0.82113 0.00253 0.10638 0.0
C877 C 0.8147 0.00658 0.08462 0.0
C878 C 0.76839 0.05869 0.13222 0.0
C879 C 0.79442 0.02922 0.11925 0.0
C880 C 0.75876 0.07067 0.14926 0.0
C881 C 0.76418 0.06609 0.17118 0.0
C882 C 0.78366 0.04203 0.13707 0.0
C883 C 0.77942 0.04926 0.17536 0.0
C884 C 0.81102 0.01376 0.12373 0.0
C885 C 0.79782 0.02188 0.08093 0.0
N886 N 0.78865 0.03789 0.15849 0.0
N887 N 0.78836 0.03265 0.09801 0.0
H888 H 0.27552 0.53918 0.68773 0.0
H889 H 0.28864 0.52955 0.55712 0.0
H890 H 0.24108 0.58082 0.64186 0.0
H891 H 0.32635 0.4914 0.60345 0.0
H892 H 0.26914 0.5467 0.58774 0.0
H893 H 0.29227 0.51975 0.65695 0.0
C894 C 0.27138 0.54418 0.67117 0.0
C895 C 0.25692 0.56174 0.66738 0.0
C896 C 0.28162 0.53453 0.59122 0.0
C897 C 0.27616 0.53952 0.63196 0.0
C898 C 0.29276 0.52469 0.57373 0.0
C899 C 0.30923 0.50906 0.57772 0.0
C900 C 0.28696 0.5287 0.6129 0.0
C901 C 0.31383 0.50341 0.5996 0.0
C902 C 0.28099 0.53308 0.65358 0.0
C903 C 0.25217 0.56743 0.64555 0.0
N904 N 0.3028 0.51326 0.61634 0.0
N905 N 0.26182 0.55641 0.62866 0.0
H906 H 0.26664 0.57408 0.3608 0.0
H907 H 0.17111 0.49197 0.40006 0.0
H908 H 0.22428 0.53823 0.31673 0.0
H909 H 0.21565 0.52371 0.44512 0.0
H910 H 0.19068 0.50894 0.36941 0.0
H911 H 0.2486 0.55594 0.39201 0.0
C912 C 0.25364 0.56235 0.35767 0.0
C913 C 0.24696 0.55772 0.33609 0.0
C914 C 0.19624 0.51219 0.38599 0.0
C915 C 0.22618 0.53698 0.37169 0.0
C916 C 0.18504 0.50249 0.40352 0.0
C917 C 0.19171 0.50643 0.42521 0.0
C918 C 0.21427 0.52605 0.39009 0.0
C919 C 0.20992 0.52021 0.42866 0.0
C920 C 0.24333 0.55201 0.37549 0.0
C921 C 0.22999 0.54237 0.33304 0.0
N922 N 0.22052 0.52957 0.4113 0.0
N923 N 0.22019 0.53265 0.35059 0.0
H924 H 0.32406 0.5146 0.90542 0.0
H925 H 0.23654 0.42801 0.85811 0.0
H926 H 0.27855 0.47869 0.94622 0.0
H927 H 0.28032 0.4661 0.81739 0.0
H928 H 0.25121 0.44676 0.89056 0.0
H929 H 0.30784 0.49736 0.87294 0.0
C930 C 0.31062 0.50313 0.90755 0.0
C931 C 0.30269 0.49806 0.92859 0.0
C932 C 0.25755 0.45107 0.87452 0.0
C933 C 0.28403 0.47818 0.89144 0.0
C934 C 0.24916 0.44037 0.85598 0.0
C935 C 0.25723 0.44545 0.83499 0.0
C936 C 0.27418 0.46694 0.87207 0.0
C937 C 0.27361 0.46162 0.83323 0.0
C938 C 0.30135 0.49328 0.88899 0.0
C939 C 0.28522 0.48307 0.93033 0.0
N940 N 0.28157 0.47171 0.85149 0.0
N941 N 0.27653 0.47364 0.91203 0.0
H942 H 0.59966 0.66287 0.00071 0.0
H943 H 0.63336 0.75747 0.91509 0.0
H944 H 0.5533 0.70845 0.97253 0.0
H945 H 0.68031 0.71693 0.94936 0.0
H946 H 0.60367 0.73926 0.93534 0.0
H947 H 0.62936 0.68185 0.98127 0.0
C948 C 0.59572 0.67685 0.99044 0.0
C949 C 0.57395 0.68406 0.98826 0.0
C950 C 0.62048 0.73441 0.93847 0.0
C951 C 0.60787 0.70588 0.9659 0.0
C952 C 0.63744 0.74481 0.92692 0.0
C953 C 0.65937 0.73874 0.93052 0.0
C954 C 0.62547 0.7177 0.95366 0.0
C955 C 0.66366 0.72219 0.94604 0.0
C956 C 0.61269 0.68772 0.97936 0.0
C957 C 0.56983 0.70231 0.97472 0.0
N958 N 0.6469 0.71223 0.95695 0.0
N959 N 0.58659 0.71254 0.96404 0.0
H960 H 0.57624 0.35451 0.26003 0.0
H961 H 0.48374 0.39314 0.17411 0.0
H962 H 0.53621 0.30907 0.22325 0.0
H963 H 0.52533 0.43747 0.21053 0.0
H964 H 0.50157 0.36204 0.19266 0.0
H965 H 0.55658 0.38504 0.24292 0.0
C966 C 0.56325 0.35094 0.24843 0.0
C967 C 0.55792 0.32917 0.24307 0.0
C968 C 0.50673 0.37859 0.19661 0.0
C969 C 0.53529 0.36415 0.22325 0.0
C970 C 0.49654 0.39635 0.18603 0.0
C971 C 0.50305 0.41797 0.19071 0.0
C972 C 0.52355 0.38249 0.21199 0.0
C973 C 0.51976 0.42112 0.20632 0.0
C974 C 0.55201 0.3684 0.23861 0.0
C975 C 0.54089 0.32558 0.22788 0.0
N976 N 0.5294 0.40364 0.21632 0.0
N977 N 0.53024 0.34287 0.21847 0.0
H978 H 0.89615 0.33141 0.50988 0.0
H979 H 0.85404 0.24578 0.41894 0.0
H980 H 0.93948 0.29127 0.47077 0.0
H981 H 0.81069 0.28351 0.46036 0.0
H982 H 0.88556 0.26194 0.438 0.0
H983 H 0.86462 0.31369 0.49231 0.0
C984 C 0.89904 0.31881 0.49767 0.0
C985 C 0.9205 0.31285 0.49178 0.0
C986 C 0.86915 0.26664 0.44296 0.0
C987 C 0.88446 0.29254 0.47149 0.0
C988 C 0.85114 0.25742 0.43207 0.0
C989 C 0.82968 0.26331 0.43803 0.0
C990 C 0.8657 0.28194 0.45992 0.0
C991 C 0.82693 0.27848 0.45519 0.0
C992 C 0.88102 0.30869 0.48763 0.0
C993 C 0.92324 0.29641 0.47583 0.0
N994 N 0.8447 0.28729 0.46547 0.0
N995 N 0.90546 0.2869 0.46621 0.0
H996 H 0.9079 0.64496 0.74995 0.0
H997 H 0.00335 0.60815 0.66679 0.0
H998 H 0.95104 0.69096 0.71755 0.0
H999 H 0.96291 0.56293 0.70352 0.0
H1000 H 0.98435 0.63885 0.68472 0.0
H1001 H 0.92784 0.61474 0.73266 0.0
C1002 C 0.9216 0.64871 0.73924 0.0
C1003 C 0.92779 0.67053 0.7352 0.0
C1004 C 0.97969 0.62219 0.68886 0.0
C1005 C 0.95071 0.63597 0.71522 0.0
C1006 C 0.99051 0.60467 0.67862 0.0
C1007 C 0.98471 0.58293 0.68364 0.0
C1008 C 0.9629 0.61791 0.70416 0.0
C1009 C 0.96796 0.5794 0.69911 0.0
C1010 C 0.933 0.63144 0.72935 0.0
C1011 C 0.9457 0.67439 0.72115 0.0
N1012 N 0.95766 0.59666 0.70875 0.0
N1013 N 0.95649 0.65729 0.71163 0.0
H1014 H 0.55832 0.28809 0.53078 0.0
H1015 H 0.68941 0.28573 0.54238 0.0
H1016 H 0.60219 0.3301 0.49422 0.0
H1017 H 0.64653 0.24382 0.58023 0.0
H1018 H 0.6575 0.30112 0.52381 0.0
H1019 H 0.59014 0.2706 0.54808 0.0
C1020 C 0.57465 0.29355 0.52628 0.0
C1021 C 0.57759 0.31063 0.51103 0.0
C1022 C 0.655 0.28854 0.53614 0.0
C1023 C 0.61409 0.29072 0.53088 0.0
C1024 C 0.67326 0.27971 0.54679 0.0
C1025 C 0.67067 0.26346 0.56295 0.0
C1026 C 0.63386 0.28113 0.54163 0.0
C1027 C 0.64929 0.25634 0.56789 0.0
C1028 C 0.59281 0.28358 0.53621 0.0
C1029 C 0.59912 0.31703 0.50588 0.0
N1030 N 0.6317 0.26525 0.5573 0.0
N1031 N 0.6165 0.30713 0.51581 0.0
H1032 H 0.9644 0.30908 0.77761 0.0
H1033 H 0.9781 0.43974 0.78567 0.0
H1034 H 0.92519 0.35532 0.74093 0.0
H1035 H 0.01703 0.39438 0.82373 0.0
H1036 H 0.96003 0.40881 0.76783 0.0
H1037 H 0.98511 0.33972 0.79336 0.0
C1038 C 0.96019 0.32567 0.77278 0.0
C1039 C 0.94296 0.32962 0.75795 0.0
C1040 C 0.97257 0.40555 0.78001 0.0
C1041 C 0.96664 0.36484 0.77599 0.0
C1042 C 0.98295 0.42324 0.79023 0.0
C1043 C 0.99909 0.41968 0.80632 0.0
C1044 C 0.97825 0.38399 0.7859 0.0
C1045 C 0.00468 0.3979 0.81144 0.0
C1046 C 0.97204 0.34317 0.78181 0.0
C1047 C 0.93829 0.35148 0.75232 0.0
N1048 N 0.99421 0.38087 0.80134 0.0
N1049 N 0.95 0.36822 0.76138 0.0
H1050 H 0.86606 0.75089 0.08713 0.0
H1051 H 0.90306 0.6565 0.00276 0.0
H1052 H 0.8212 0.7073 0.0538 0.0
H1053 H 0.94835 0.70331 0.03071 0.0
H1054 H 0.87308 0.67429 0.02261 0.0
H1055 H 0.89675 0.73311 0.06788 0.0
C1056 C 0.86267 0.73761 0.0758 0.0
C1057 C 0.84102 0.73062 0.07206 0.0
C1058 C 0.88957 0.68071 0.02442 0.0
C1059 C 0.87596 0.71019 0.05005 0.0
C1060 C 0.9067 0.67052 0.01307 0.0
C1061 C 0.92825 0.67843 0.01503 0.0
C1062 C 0.89395 0.69894 0.03791 0.0
C1063 C 0.93198 0.69668 0.02867 0.0
C1064 C 0.88017 0.72748 0.06481 0.0
C1065 C 0.83758 0.71331 0.0572 0.0
N1066 N 0.91502 0.7063 0.0396 0.0
N1067 N 0.85481 0.70372 0.0468 0.0
H1068 H 0.49136 0.59881 0.32872 0.0
H1069 H 0.59031 0.63626 0.25008 0.0
H1070 H 0.53112 0.55337 0.29167 0.0
H1071 H 0.5481 0.68148 0.28461 0.0
H1072 H 0.5684 0.60565 0.26441 0.0
H1073 H 0.51121 0.62934 0.31172 0.0
C1074 C 0.50412 0.59525 0.31686 0.0
C1075 C 0.5096 0.57348 0.31166 0.0
C1076 C 0.5639 0.62228 0.2688 0.0
C1077 C 0.53261 0.60839 0.29227 0.0
C1078 C 0.57644 0.63976 0.26065 0.0
C1079 C 0.57109 0.66147 0.2662 0.0
C1080 C 0.54591 0.62653 0.28265 0.0
C1081 C 0.55289 0.66502 0.27992 0.0
C1082 C 0.51551 0.6127 0.30719 0.0
C1083 C 0.52633 0.56988 0.29619 0.0
N1084 N 0.54102 0.64777 0.2877 0.0
N1085 N 0.53732 0.58712 0.28715 0.0
H1086 H 0.76013 0.92587 0.64465 0.0
H1087 H 0.72113 0.9894 0.55822 0.0
H1088 H 0.72296 0.9687 0.68706 0.0
H1089 H 0.67455 0.01515 0.60491 0.0
H1090 H 0.74033 0.97099 0.58795 0.0
H1091 H 0.74652 0.94591 0.61297 0.0
C1092 C 0.74931 0.93973 0.6473 0.0
C1093 C 0.74272 0.9456 0.66857 0.0
C1094 C 0.72577 0.98032 0.59186 0.0
C1095 C 0.72728 0.9693 0.63213 0.0
C1096 C 0.71491 0.99113 0.57479 0.0
C1097 C 0.69606 0.00366 0.57902 0.0
C1098 C 0.71754 0.98174 0.61342 0.0
C1099 C 0.68896 0.00557 0.60087 0.0
C1100 C 0.74162 0.95141 0.6291 0.0
C1101 C 0.7285 0.96359 0.67096 0.0
N1102 N 0.69961 0.9946 0.6172 0.0
N1103 N 0.7212 0.97472 0.65298 0.0
H1104 H 0.22363 0.39724 0.28121 0.0
H1105 H 0.24978 0.27849 0.31544 0.0
H1106 H 0.23472 0.34822 0.23137 0.0
H1107 H 0.20101 0.31501 0.35148 0.0
H1108 H 0.24516 0.3037 0.28438 0.0
H1109 H 0.21544 0.36793 0.30763 0.0
C1110 C 0.2238 0.38031 0.27574 0.0
C1111 C 0.22975 0.37508 0.25414 0.0
C1112 C 0.23511 0.30589 0.29889 0.0
C1113 C 0.22118 0.34161 0.28429 0.0
C1114 C 0.23778 0.29158 0.3166 0.0
C1115 C 0.22579 0.29479 0.33599 0.0
C1116 C 0.22087 0.32389 0.30091 0.0
C1117 C 0.21048 0.31198 0.33674 0.0
C1118 C 0.21913 0.36364 0.29077 0.0
C1119 C 0.22998 0.35291 0.24785 0.0
N1120 N 0.20882 0.32626 0.31962 0.0
N1121 N 0.22629 0.33692 0.26302 0.0
H1122 H 0.89641 0.98033 0.48569 0.0
H1123 H 0.91554 0.95767 0.61327 0.0
H1124 H 0.84337 0.9833 0.53257 0.0
H1125 H 0.9602 0.99617 0.57402 0.0
H1126 H 0.89115 0.95412 0.58117 0.0
H1127 H 0.92207 0.97303 0.51585 0.0
C1128 C 0.89008 0.97889 0.50226 0.0
C1129 C 0.86778 0.98253 0.50674 0.0
C1130 C 0.90652 0.96295 0.57958 0.0
C1131 C 0.89693 0.97397 0.54105 0.0
C1132 C 0.92044 0.96484 0.59774 0.0
C1133 C 0.93976 0.97728 0.59615 0.0
C1134 C 0.91236 0.97308 0.5597 0.0
C1135 C 0.94534 0.98654 0.57582 0.0
C1136 C 0.90474 0.97485 0.5194 0.0
C1137 C 0.86048 0.9807 0.52851 0.0
N1138 N 0.93169 0.98425 0.55834 0.0
N1139 N 0.87505 0.97659 0.54493 0.0
H1140 H 0.24906 0.72215 0.81652 0.0
H1141 H 0.26914 0.60226 0.78146 0.0
H1142 H 0.29169 0.68136 0.85569 0.0
H1143 H 0.26729 0.6532 0.73226 0.0
H1144 H 0.27639 0.63025 0.80954 0.0
H1145 H 0.25412 0.697 0.78549 0.0
C1146 C 0.2598 0.70808 0.81841 0.0
C1147 C 0.26996 0.70371 0.83861 0.0
C1148 C 0.2749 0.63521 0.79251 0.0
C1149 C 0.27533 0.67473 0.80356 0.0
C1150 C 0.27075 0.61929 0.77655 0.0
C1151 C 0.26773 0.62549 0.75459 0.0
C1152 C 0.27526 0.65746 0.78652 0.0
C1153 C 0.26975 0.64776 0.74902 0.0
C1154 C 0.26273 0.69382 0.80074 0.0
C1155 C 0.28368 0.6853 0.84031 0.0
N1156 N 0.27289 0.66305 0.76498 0.0
N1157 N 0.28558 0.67115 0.82313 0.0
H1158 H 0.65011 0.02341 0.02655 0.0
H1159 H 0.53493 0.99731 0.07057 0.0
H1160 H 0.59712 0.01511 0.98034 0.0
H1161 H 0.57252 0.04831 0.10223 0.0
H1162 H 0.55811 0.00119 0.03779 0.0
H1163 H 0.62311 0.03085 0.05555 0.0
C1164 C 0.63279 0.02369 0.02246 0.0
C1165 C 0.62575 0.01884 0.00111 0.0
C1166 C 0.56098 0.0118 0.05178 0.0
C1167 C 0.59497 0.02644 0.03413 0.0
C1168 C 0.54788 0.00953 0.07045 0.0
C1169 C 0.55194 0.0225 0.08903 0.0
C1170 C 0.57865 0.02661 0.05205 0.0
C1171 C 0.56887 0.0381 0.08814 0.0
C1172 C 0.61745 0.02792 0.03894 0.0
C1173 C 0.60316 0.01908 0.99659 0.0
N1174 N 0.58198 0.03939 0.0701 0.0
N1175 N 0.58848 0.02227 0.01312 0.0
H1176 H 0.20842 0.67605 0.14703 0.0
H1177 H 0.24414 0.64966 0.27037 0.0
H1178 H 0.25761 0.71376 0.18128 0.0
H1179 H 0.23305 0.59853 0.22266 0.0
H1180 H 0.23725 0.67726 0.24174 0.0
H1181 H 0.20563 0.65148 0.17906 0.0
C1182 C 0.21819 0.67946 0.16151 0.0
C1183 C 0.23335 0.6968 0.16159 0.0
C1184 C 0.2359 0.65998 0.23772 0.0
C1185 C 0.23004 0.66917 0.19805 0.0
C1186 C 0.23967 0.64426 0.25402 0.0
C1187 C 0.23917 0.62184 0.24877 0.0
C1188 C 0.2311 0.65316 0.21625 0.0
C1189 C 0.23364 0.61569 0.22728 0.0
C1190 C 0.21669 0.66541 0.17963 0.0
C1191 C 0.24584 0.70043 0.1806 0.0
N1192 N 0.22982 0.63128 0.21174 0.0
N1193 N 0.24392 0.68671 0.19811 0.0
H1194 H 0.65228 0.98459 0.46955 0.0
H1195 H 0.56819 0.95094 0.40019 0.0
H1196 H 0.60195 0.99092 0.51893 0.0
H1197 H 0.53449 0.00236 0.43531 0.0
H1198 H 0.59491 0.9485 0.43037 0.0
H1199 H 0.62418 0.97362 0.44289 0.0
C1200 C 0.63536 0.9831 0.47487 0.0
C1201 C 0.62937 0.98845 0.49642 0.0
C1202 C 0.58144 0.96004 0.43154 0.0
C1203 C 0.59722 0.9764 0.46608 0.0
C1204 C 0.56611 0.9613 0.4145 0.0
C1205 C 0.54934 0.97706 0.41523 0.0
C1206 C 0.57966 0.97441 0.4495 0.0
C1207 C 0.5474 0.9902 0.43406 0.0
C1208 C 0.61938 0.97675 0.45973 0.0
C1209 C 0.60722 0.98661 0.5025 0.0
N1210 N 0.56246 0.98864 0.45045 0.0
N1211 N 0.59182 0.98128 0.48722 0.0
H1212 H 0.29861 0.32808 0.64523 0.0
H1213 H 0.26764 0.35356 0.77017 0.0
H1214 H 0.25186 0.28983 0.68227 0.0
H1215 H 0.27925 0.40458 0.72241 0.0
H1216 H 0.27437 0.32592 0.74161 0.0
H1217 H 0.30378 0.35201 0.67738 0.0
C1218 C 0.28987 0.32442 0.66029 0.0
C1219 C 0.27464 0.30716 0.66114 0.0
C1220 C 0.27595 0.34318 0.73759 0.0
C1221 C 0.28069 0.33406 0.69775 0.0
C1222 C 0.2723 0.35892 0.75386 0.0
C1223 C 0.27285 0.38133 0.74853 0.0
C1224 C 0.28061 0.34996 0.71605 0.0
C1225 C 0.27861 0.38743 0.72708 0.0
C1226 C 0.29274 0.33809 0.67851 0.0
C1227 C 0.26358 0.30316 0.68095 0.0
N1228 N 0.28218 0.37182 0.71154 0.0
N1229 N 0.26677 0.31656 0.69849 0.0
H1230 H 0.90173 0.01345 0.01607 0.0
H1231 H 0.92687 0.04078 0.89093 0.0
H1232 H 0.85047 0.01075 0.96722 0.0
H1233 H 0.96861 0.99819 0.92908 0.0
H1234 H 0.90083 0.0422 0.9219 0.0
H1235 H 0.9286 0.0204 0.9869 0.0
C1236 C 0.89606 0.01482 0.99926 0.0
C1237 C 0.87387 0.01148 0.99397 0.0
C1238 C 0.91591 0.03292 0.92353 0.0
C1239 C 0.90441 0.0197 0.9608 0.0
C1240 C 0.93077 0.03224 0.90605 0.0
C1241 C 0.94981 0.0194 0.90766 0.0
C1242 C 0.92055 0.02117 0.94281 0.0
C1243 C 0.95406 0.00827 0.92735 0.0
C1244 C 0.9114 0.01866 0.98269 0.0
C1245 C 0.86745 0.01318 0.97191 0.0
N1246 N 0.93955 0.00947 0.94425 0.0
N1247 N 0.88268 0.01721 0.95605 0.0
H1248 H 0.3262 0.25573 0.27933 0.0
H1249 H 0.27881 0.21852 0.38931 0.0
H1250 H 0.3569 0.20126 0.3126 0.0
H1251 H 0.23402 0.23197 0.33616 0.0
H1252 H 0.30834 0.21295 0.36248 0.0
H1253 H 0.29242 0.24891 0.30028 0.0
C1254 C 0.32565 0.24211 0.29079 0.0
C1255 C 0.34427 0.22906 0.29438 0.0
C1256 C 0.29191 0.21655 0.35668 0.0
C1257 C 0.30612 0.22157 0.3186 0.0
C1258 C 0.27512 0.21971 0.37194 0.0
C1259 C 0.25404 0.22552 0.36483 0.0
C1260 C 0.2877 0.22011 0.33431 0.0
C1261 C 0.25005 0.22721 0.3422 0.0
C1262 C 0.30641 0.23817 0.30261 0.0
C1263 C 0.34281 0.21161 0.30936 0.0
N1264 N 0.26691 0.22509 0.3277 0.0
N1265 N 0.3242 0.20868 0.32137 0.0
H1266 H 0.00298 0.98092 0.59367 0.0
H1267 H 0.04707 0.10094 0.5656 0.0
H1268 H 0.02027 0.02748 0.64411 0.0
H1269 H 0.99016 0.07345 0.53363 0.0
H1270 H 0.04964 0.06774 0.58851 0.0
H1271 H 0.01063 0.00907 0.5657 0.0
C1272 C 0.00909 0.99683 0.59878 0.0
C1273 C 0.01107 0.00201 0.62114 0.0
C1274 C 0.03695 0.06886 0.57609 0.0
C1275 C 0.02007 0.03384 0.58946 0.0
C1276 C 0.03554 0.08764 0.56298 0.0
C1277 C 0.0183 0.08987 0.54788 0.0
C1278 C 0.02136 0.05208 0.57359 0.0
C1279 C 0.00359 0.07233 0.54524 0.0
C1280 C 0.01328 0.01284 0.58288 0.0
C1281 C 0.01858 0.02295 0.627 0.0
N1282 N 0.00541 0.05412 0.55804 0.0
N1283 N 0.02283 0.03817 0.61123 0.0
H1284 H 0.14487 0.80225 0.808 0.0
H1285 H 0.26739 0.76649 0.8375 0.0
H1286 H 0.17731 0.74773 0.77653 0.0
H1287 H 0.21957 0.78375 0.88676 0.0
H1288 H 0.23945 0.77239 0.80895 0.0
H1289 H 0.17774 0.80813 0.83067 0.0
C1290 C 0.15913 0.79193 0.80545 0.0
C1291 C 0.1584 0.77434 0.79061 0.0
C1292 C 0.23536 0.7755 0.82598 0.0
C1293 C 0.19585 0.78119 0.81607 0.0
C1294 C 0.25126 0.77234 0.84221 0.0
C1295 C 0.24565 0.77469 0.86443 0.0
C1296 C 0.214 0.7816 0.83208 0.0
C1297 C 0.22444 0.7818 0.86977 0.0
C1298 C 0.17775 0.79524 0.81842 0.0
C1299 C 0.17721 0.76131 0.78801 0.0
N1300 N 0.2093 0.78495 0.85369 0.0
N1301 N 0.1952 0.76493 0.80072 0.0
H1302 H 0.47995 0.97173 0.14266 0.0
H1303 H 0.50357 0.92905 0.02633 0.0
H1304 H 0.48615 0.01857 0.08987 0.0
H1305 H 0.45339 0.89685 0.06459 0.0
H1306 H 0.50023 0.96152 0.05003 0.0
H1307 H 0.47258 0.9428 0.11551 0.0
C1308 C 0.47931 0.97595 0.12538 0.0
C1309 C 0.48347 0.99749 0.11843 0.0
C1310 C 0.48966 0.94749 0.05292 0.0
C1311 C 0.47587 0.96461 0.08749 0.0
C1312 C 0.49159 0.92903 0.0395 0.0
C1313 C 0.47869 0.9104 0.04358 0.0
C1314 C 0.47531 0.94693 0.07094 0.0
C1315 C 0.46348 0.91103 0.06087 0.0
C1316 C 0.47509 0.95953 0.10996 0.0
C1317 C 0.48273 0.00218 0.09587 0.0
N1318 N 0.46255 0.92885 0.07429 0.0
N1319 N 0.47951 0.98574 0.08111 0.0
H1320 H 0.36042 0.7971 0.19123 0.0
H1321 H 0.28306 0.77576 0.10919 0.0
H1322 H 0.33499 0.73458 0.2129 0.0
H1323 H 0.24055 0.75821 0.16302 0.0
H1324 H 0.31316 0.78157 0.1354 0.0
H1325 H 0.3269 0.80265 0.16943 0.0
C1326 C 0.34757 0.7848 0.19179 0.0
C1327 C 0.35048 0.76525 0.20365 0.0
C1328 C 0.29706 0.77706 0.14149 0.0
C1329 C 0.31235 0.7716 0.1791 0.0
C1330 C 0.27997 0.77373 0.1266 0.0
C1331 C 0.25936 0.76681 0.13409 0.0
C1332 C 0.29361 0.77265 0.16385 0.0
C1333 C 0.25617 0.76393 0.15673 0.0
C1334 C 0.3286 0.78793 0.17928 0.0
C1335 C 0.33342 0.74975 0.20374 0.0
N1336 N 0.27334 0.76628 0.17083 0.0
N1337 N 0.31502 0.75326 0.1916 0.0
H1338 H 0.46982 0.02714 0.36249 0.0
H1339 H 0.44736 0.10619 0.44188 0.0
H1340 H 0.48567 0.98496 0.41709 0.0
H1341 H 0.50624 0.07791 0.46932 0.0
H1342 H 0.44202 0.07269 0.42001 0.0
H1343 H 0.46298 0.0573 0.38826 0.0
C1344 C 0.47125 0.02413 0.37997 0.0
C1345 C 0.47803 0.00359 0.38778 0.0
C1346 C 0.45591 0.0738 0.43107 0.0
C1347 C 0.47089 0.03795 0.41717 0.0
C1348 C 0.45889 0.09276 0.44362 0.0
C1349 C 0.47744 0.09487 0.45713 0.0
C1350 C 0.47138 0.05677 0.4324 0.0
C1351 C 0.49192 0.07702 0.4588 0.0
C1352 C 0.4673 0.04126 0.39464 0.0
C1353 C 0.48009 0.00052 0.41053 0.0
N1354 N 0.48861 0.05869 0.44651 0.0
N1355 N 0.4771 0.01773 0.42445 0.0
H1356 H 0.14835 0.20556 0.69178 0.0
H1357 H 0.26922 0.24592 0.6626 0.0
H1358 H 0.1759 0.26434 0.72011 0.0
H1359 H 0.22262 0.22805 0.61238 0.0
H1360 H 0.24063 0.24008 0.69056 0.0
H1361 H 0.1817 0.20131 0.66939 0.0
C1362 C 0.16169 0.21719 0.69373 0.0
C1363 C 0.15945 0.2354 0.70763 0.0
C1364 C 0.23696 0.23686 0.67345 0.0
C1365 C 0.19742 0.23039 0.68258 0.0
C1366 C 0.25321 0.24 0.65757 0.0
C1367 C 0.24813 0.23738 0.63526 0.0
C1368 C 0.21583 0.23044 0.6669 0.0
C1369 C 0.22707 0.23018 0.62946 0.0
C1370 C 0.18056 0.2148 0.68092 0.0
C1371 C 0.17703 0.25018 0.70942 0.0
N1372 N 0.21161 0.22695 0.64523 0.0
N1373 N 0.19534 0.24738 0.69697 0.0
H1374 H 0.99347 0.91811 0.96932 0.0
H1375 H 0.02682 0.96823 0.85821 0.0
H1376 H 0.04828 0.88966 0.93474 0.0
H1377 H 0.01505 0.01183 0.91271 0.0
H1378 H 0.03193 0.93779 0.88426 0.0
H1379 H 0.99782 0.95186 0.94757 0.0
C1380 C 0.00663 0.91917 0.95738 0.0
C1381 C 0.02061 0.90124 0.95379 0.0
C1382 C 0.02867 0.95413 0.89048 0.0
C1383 C 0.02517 0.93924 0.92856 0.0
C1384 C 0.02573 0.97142 0.87568 0.0
C1385 C 0.02073 0.9925 0.88341 0.0
C1386 C 0.02573 0.95786 0.91302 0.0
C1387 C 0.0192 0.99583 0.90617 0.0
C1388 C 0.00912 0.93835 0.94507 0.0
C1389 C 0.03732 0.90327 0.93807 0.0
N1390 N 0.02121 0.97856 0.92021 0.0
N1391 N 0.03886 0.92178 0.92563 0.0
H1392 H 0.28305 0.32683 0.25324 0.0
H1393 H 0.40201 0.28906 0.23276 0.0
H1394 H 0.32428 0.36577 0.21076 0.0
H1395 H 0.34984 0.24123 0.22996 0.0
H1396 H 0.37483 0.31837 0.22728 0.0
H1397 H 0.30788 0.2955 0.24793 0.0
C1398 C 0.29718 0.32864 0.24257 0.0
C1399 C 0.30172 0.34881 0.23241 0.0
C1400 C 0.36945 0.30141 0.2274 0.0
C1401 C 0.33027 0.31346 0.22676 0.0
C1402 C 0.38489 0.28475 0.23052 0.0
C1403 C 0.3781 0.2628 0.23162 0.0
C1404 C 0.34708 0.29603 0.2262 0.0
C1405 C 0.35572 0.25798 0.22891 0.0
C1406 C 0.31123 0.31081 0.23949 0.0
C1407 C 0.3202 0.35041 0.21875 0.0
N1408 N 0.34089 0.27453 0.22681 0.0
N1409 N 0.33412 0.33307 0.21669 0.0
H1410 H 0.7881 0.17322 0.73816 0.0
H1411 H 0.84821 0.26704 0.76442 0.0
H1412 H 0.82018 0.14417 0.79421 0.0
H1413 H 0.89809 0.21752 0.77296 0.0
H1414 H 0.81988 0.23856 0.7686 0.0
H1415 H 0.80973 0.20682 0.74369 0.0
C1416 C 0.79939 0.17414 0.75188 0.0
C1417 C 0.80236 0.15605 0.76582 0.0
C1418 C 0.83704 0.2341 0.77004 0.0
C1419 C 0.8273 0.19402 0.77197 0.0
C1420 C 0.85316 0.25031 0.76793 0.0
C1421 C 0.87546 0.24451 0.76835 0.0
C1422 C 0.84335 0.21214 0.77305 0.0
C1423 C 0.88104 0.22257 0.7725 0.0
C1424 C 0.81159 0.19328 0.75511 0.0
C1425 C 0.81731 0.1579 0.78327 0.0
N1426 N 0.86507 0.20712 0.77468 0.0
N1427 N 0.82968 0.17638 0.78552 0.0
H1428 H 0.04686 0.64997 0.99108 0.0
H1429 H 0.10355 0.54023 0.03456 0.0
H1430 H 0.00895 0.6017 0.0266 0.0
H1431 H 0.12271 0.57521 0.97587 0.0
H1432 H 0.07178 0.56513 0.0382 0.0
H1433 H 0.07867 0.62587 0.99298 0.0
C1434 C 0.04529 0.6344 0.99957 0.0
C1435 C 0.02513 0.62772 0.00845 0.0
C1436 C 0.08302 0.56719 0.02457 0.0
C1437 C 0.0616 0.59994 0.01059 0.0
C1438 C 0.10109 0.55305 0.02247 0.0
C1439 C 0.11579 0.55555 0.00483 0.0
C1440 C 0.08005 0.58417 0.00922 0.0
C1441 C 0.11181 0.57246 0.98965 0.0
C1442 C 0.06345 0.6206 0.00054 0.0
C1443 C 0.02418 0.60743 0.01946 0.0
N1444 N 0.09449 0.58615 0.99229 0.0
N1445 N 0.04217 0.5941 0.02009 0.0
H1446 H 0.60736 0.7758 0.28232 0.0
H1447 H 0.71661 0.82471 0.24501 0.0
H1448 H 0.66204 0.73203 0.27218 0.0
H1449 H 0.68204 0.85663 0.2979 0.0
H1450 H 0.69628 0.79074 0.2528 0.0
H1451 H 0.63324 0.80637 0.28698 0.0
C1452 C 0.62485 0.77258 0.28168 0.0
C1453 C 0.63266 0.75145 0.27705 0.0
C1454 C 0.69353 0.80506 0.26298 0.0
C1455 C 0.66211 0.78626 0.28141 0.0
C1456 C 0.70501 0.8244 0.2585 0.0
C1457 C 0.70091 0.84339 0.27084 0.0
C1458 C 0.67734 0.80502 0.27939 0.0
C1459 C 0.6857 0.84224 0.28811 0.0
C1460 C 0.63956 0.78996 0.28431 0.0
C1461 C 0.65543 0.74808 0.27603 0.0
N1462 N 0.67403 0.8235 0.29156 0.0
N1463 N 0.6694 0.76545 0.27761 0.0
H1464 H 0.96407 0.84147 0.00376 0.0
H1465 H 0.91094 0.95317 0.04675 0.0
H1466 H 0.00514 0.89112 0.03331 0.0
H1467 H 0.88909 0.91659 0.9901 0.0
H1468 H 0.9423 0.92756 0.05034 0.0
H1469 H 0.93238 0.86534 0.00847 0.0
C1470 C 0.96637 0.85729 0.01159 0.0
C1471 C 0.98731 0.86446 0.01785 0.0
C1472 C 0.93051 0.92528 0.03722 0.0
C1473 C 0.95103 0.89197 0.02315 0.0
C1474 C 0.91268 0.93978 0.03518 0.0
C1475 C 0.89752 0.9371 0.01799 0.0
C1476 C 0.93262 0.90778 0.02233 0.0
C1477 C 0.90048 0.91949 0.00344 0.0
C1478 C 0.94828 0.87094 0.01418 0.0
C1479 C 0.98925 0.88504 0.02814 0.0
N1480 N 0.91755 0.90551 0.00602 0.0
N1481 N 0.97131 0.89828 0.03027 0.0
H1482 H 0.21681 0.67517 0.75188 0.0
H1483 H 0.15284 0.76614 0.72496 0.0
H1484 H 0.17856 0.64132 0.70283 0.0
H1485 H 0.10264 0.71616 0.72616 0.0
H1486 H 0.18074 0.73737 0.72041 0.0
H1487 H 0.19401 0.70797 0.7464 0.0
C1488 C 0.20384 0.67483 0.73968 0.0
C1489 C 0.19952 0.65565 0.72771 0.0
C1490 C 0.16356 0.73283 0.72123 0.0
C1491 C 0.17333 0.69275 0.72165 0.0
C1492 C 0.14765 0.74918 0.72356 0.0
C1493 C 0.12546 0.74341 0.72594 0.0
C1494 C 0.15711 0.7107 0.72086 0.0
C1495 C 0.11961 0.72119 0.72442 0.0
C1496 C 0.19098 0.69353 0.73647 0.0
C1497 C 0.18248 0.65591 0.7122 0.0
N1498 N 0.13537 0.70558 0.72198 0.0
N1499 N 0.16961 0.67404 0.70999 0.0
H1500 H 0.03461 0.34908 0.47631 0.0
H1501 H 0.11145 0.43145 0.45473 0.0
H1502 H 0.99018 0.4026 0.48935 0.0
H1503 H 0.08113 0.4577 0.51311 0.0
H1504 H 0.07896 0.40818 0.4489 0.0
H1505 H 0.0643 0.37574 0.47044 0.0
C1506 C 0.03103 0.36648 0.47734 0.0
C1507 C 0.00996 0.37374 0.48303 0.0
C1508 C 0.07937 0.41932 0.46276 0.0
C1509 C 0.04376 0.40411 0.47703 0.0
C1510 C 0.09775 0.43269 0.46601 0.0
C1511 C 0.09899 0.44631 0.48455 0.0
C1512 C 0.06204 0.41998 0.47793 0.0
C1513 C 0.08087 0.44721 0.49876 0.0
C1514 C 0.0479 0.38164 0.47396 0.0
C1515 C 0.00616 0.39642 0.4846 0.0
N1516 N 0.0631 0.43417 0.49517 0.0
N1517 N 0.02307 0.41083 0.4822 0.0
H1518 H 0.39527 0.54835 0.96877 0.0
H1519 H 0.45544 0.65771 0.00814 0.0
H1520 H 0.37726 0.58607 0.02601 0.0
H1521 H 0.49245 0.60619 0.97658 0.0
H1522 H 0.42261 0.63501 0.00599 0.0
H1523 H 0.42774 0.57223 0.96403 0.0
C1524 C 0.39811 0.56161 0.98027 0.0
C1525 C 0.38363 0.56514 0.9979 0.0
C1526 C 0.43785 0.62873 0.99931 0.0
C1527 C 0.4201 0.59257 0.99225 0.0
C1528 C 0.45659 0.64172 0.00042 0.0
C1529 C 0.47677 0.6337 0.9928 0.0
C1530 C 0.43916 0.60754 0.99042 0.0
C1531 C 0.4772 0.61293 0.98273 0.0
C1532 C 0.41658 0.57514 0.97757 0.0
C1533 C 0.38806 0.58255 0.01233 0.0
N1534 N 0.45864 0.60039 0.98201 0.0
N1535 N 0.40575 0.59564 0.00909 0.0
H1536 H 0.69555 0.82328 0.85469 0.0
H1537 H 0.72782 0.85267 0.73093 0.0
H1538 H 0.73926 0.78339 0.81587 0.0
H1539 H 0.72202 0.90202 0.78137 0.0
H1540 H 0.71945 0.82429 0.75834 0.0
H1541 H 0.69269 0.8493 0.82384 0.0
C1542 C 0.704 0.8197 0.83945 0.0
C1543 C 0.71772 0.80129 0.83774 0.0
C1544 C 0.71951 0.84139 0.76323 0.0
C1545 C 0.71438 0.83064 0.80263 0.0
C1546 C 0.72411 0.85758 0.74762 0.0
C1547 C 0.7256 0.87968 0.75397 0.0
C1548 C 0.71589 0.84744 0.78516 0.0
C1549 C 0.72105 0.88513 0.77588 0.0
C1550 C 0.7025 0.83458 0.822 0.0
C1551 C 0.7286 0.79749 0.8178 0.0
N1552 N 0.71643 0.8691 0.79075 0.0
N1553 N 0.72674 0.81208 0.801 0.0
H1554 H 0.44669 0.45973 0.09417 0.0
H1555 H 0.33168 0.50532 0.04952 0.0
H1556 H 0.4082 0.51041 0.12517 0.0
H1557 H 0.37984 0.47711 0.00587 0.0
H1558 H 0.35609 0.49828 0.08043 0.0
H1559 H 0.4191 0.45783 0.06442 0.0
C1560 C 0.43232 0.47019 0.09484 0.0
C1561 C 0.42973 0.48539 0.11196 0.0
C1562 C 0.36125 0.4934 0.06413 0.0
C1563 C 0.39827 0.48309 0.07854 0.0
C1564 C 0.34729 0.49737 0.04646 0.0
C1565 C 0.35387 0.49212 0.02503 0.0
C1566 C 0.382 0.48406 0.06045 0.0
C1567 C 0.3742 0.48158 0.02213 0.0
C1568 C 0.4167 0.46918 0.0779 0.0
C1569 C 0.41093 0.49866 0.11211 0.0
N1570 N 0.38771 0.47809 0.03965 0.0
N1571 N 0.39596 0.49718 0.09572 0.0
H1572 H 0.73927 0.21973 0.3306 0.0
H1573 H 0.76666 0.15691 0.2386 0.0
H1574 H 0.78995 0.18221 0.36283 0.0
H1575 H 0.76591 0.10576 0.28765 0.0
H1576 H 0.76992 0.18438 0.26791 0.0
H1577 H 0.74351 0.19656 0.29786 0.0
C1578 C 0.7515 0.2068 0.33061 0.0
C1579 C 0.76438 0.20286 0.34927 0.0
C1580 C 0.76939 0.16711 0.27215 0.0
C1581 C 0.769 0.17624 0.3123 0.0
C1582 C 0.76776 0.15144 0.2555 0.0
C1583 C 0.76601 0.12907 0.26081 0.0
C1584 C 0.76973 0.16026 0.29414 0.0
C1585 C 0.76717 0.12287 0.28296 0.0
C1586 C 0.75398 0.19372 0.31196 0.0
C1587 C 0.77991 0.18585 0.34861 0.0
N1588 N 0.76901 0.13842 0.29888 0.0
N1589 N 0.78146 0.17279 0.33055 0.0
H1590 H 0.04265 0.5414 0.58937 0.0
H1591 H 0.15845 0.4997 0.5433 0.0
H1592 H 0.08382 0.49253 0.61996 0.0
H1593 H 0.109 0.5258 0.49978 0.0
H1594 H 0.13419 0.50627 0.57435 0.0
H1595 H 0.06935 0.54392 0.55886 0.0
C1596 C 0.05736 0.53142 0.58976 0.0
C1597 C 0.06097 0.51657 0.60705 0.0
C1598 C 0.12868 0.51081 0.55806 0.0
C1599 C 0.09147 0.51966 0.57277 0.0
C1600 C 0.14258 0.50715 0.54031 0.0
C1601 C 0.13562 0.51194 0.5189 0.0
C1602 C 0.10755 0.51929 0.55448 0.0
C1603 C 0.11494 0.52179 0.51605 0.0
C1604 C 0.07248 0.53281 0.57239 0.0
C1605 C 0.08023 0.50397 0.60682 0.0
N1606 N 0.10144 0.52491 0.53367 0.0
N1607 N 0.0947 0.50584 0.59003 0.0
H1608 H 0.76717 0.17398 0.63276 0.0
H1609 H 0.72281 0.14517 0.75041 0.0
H1610 H 0.71123 0.2092 0.65818 0.0
H1611 H 0.75345 0.09773 0.70764 0.0
H1612 H 0.71828 0.16996 0.71874 0.0
H1613 H 0.7635 0.14733 0.66223 0.0
C1614 C 0.75408 0.1761 0.64462 0.0
C1615 C 0.73956 0.19388 0.64312 0.0
C1616 C 0.72558 0.15393 0.71632 0.0
C1617 C 0.73528 0.16333 0.67712 0.0
C1618 C 0.72812 0.13977 0.73432 0.0
C1619 C 0.73879 0.11949 0.73167 0.0
C1620 C 0.73401 0.14773 0.69576 0.0
C1621 C 0.74541 0.11333 0.71051 0.0
C1622 C 0.75188 0.16076 0.66136 0.0
C1623 C 0.72273 0.19567 0.65881 0.0
N1624 N 0.74322 0.1275 0.69348 0.0
N1625 N 0.7212 0.18069 0.67544 0.0
H1626 H 0.05395 0.45585 0.9036 0.0
H1627 H 0.16722 0.49949 0.95397 0.0
H1628 H 0.09018 0.51178 0.87948 0.0
H1629 H 0.1191 0.46674 0.99445 0.0
H1630 H 0.143 0.49521 0.92238 0.0
H1631 H 0.08127 0.45178 0.93337 0.0
C1632 C 0.06773 0.46708 0.90446 0.0
C1633 C 0.06975 0.48432 0.88927 0.0
C1634 C 0.13784 0.48874 0.93813 0.0
C1635 C 0.10097 0.4795 0.92263 0.0
C1636 C 0.15169 0.49111 0.95617 0.0
C1637 C 0.14501 0.4838 0.97697 0.0
C1638 C 0.11717 0.47887 0.94079 0.0
C1639 C 0.12478 0.4728 0.97873 0.0
C1640 C 0.0832 0.46479 0.9214 0.0
C1641 C 0.08785 0.49845 0.89104 0.0
N1642 N 0.11141 0.47084 0.96088 0.0
N1643 N 0.10274 0.4957 0.90734 0.0
H1644 H 0.75147 0.90395 0.20919 0.0
H1645 H 0.79718 0.7876 0.16848 0.0
H1646 H 0.77838 0.85672 0.25466 0.0
H1647 H 0.75014 0.82785 0.13406 0.0
H1648 H 0.79856 0.81551 0.19797 0.0
H1649 H 0.76015 0.87934 0.17894 0.0
C1650 C 0.75952 0.88849 0.21277 0.0
C1651 C 0.76394 0.88223 0.23445 0.0
C1652 C 0.78814 0.8182 0.18381 0.0
C1653 C 0.77364 0.85374 0.19987 0.0
C1654 C 0.7874 0.80239 0.16704 0.0
C1655 C 0.77332 0.80539 0.14904 0.0
C1656 C 0.7751 0.83719 0.1821 0.0
C1657 C 0.76096 0.82475 0.14784 0.0
C1658 C 0.7644 0.8744 0.1955 0.0
C1659 C 0.77462 0.8621 0.23813 0.0
N1660 N 0.76214 0.83985 0.1641 0.0
N1661 N 0.77885 0.84835 0.22098 0.0
H1662 H 0.40249 0.51722 0.51521 0.0
H1663 H 0.46904 0.49226 0.42616 0.0
H1664 H 0.35331 0.51768 0.46424 0.0
H1665 H 0.42952 0.5387 0.39014 0.0
H1666 H 0.44582 0.4981 0.45848 0.0
H1667 H 0.431 0.52219 0.48713 0.0
C1668 C 0.39766 0.51897 0.49818 0.0
C1669 C 0.37558 0.51692 0.49193 0.0
C1670 C 0.44259 0.50745 0.4437 0.0
C1671 C 0.40793 0.52239 0.45994 0.0
C1672 C 0.4557 0.504 0.42524 0.0
C1673 C 0.45112 0.51504 0.40555 0.0
C1674 C 0.42447 0.52163 0.44224 0.0
C1675 C 0.43363 0.53002 0.40511 0.0
C1676 C 0.41392 0.52155 0.4822 0.0
C1677 C 0.3702 0.51905 0.46964 0.0
N1678 N 0.42056 0.53248 0.42307 0.0
N1679 N 0.38629 0.52162 0.45439 0.0
H1680 H 0.76863 0.72092 0.88821 0.0
H1681 H 0.81682 0.75803 0.77818 0.0
H1682 H 0.72427 0.73811 0.83579 0.0
H1683 H 0.84546 0.70207 0.81084 0.0
H1684 H 0.78297 0.75251 0.79937 0.0
H1685 H 0.79768 0.71463 0.86103 0.0
C1686 C 0.76491 0.72279 0.8709 0.0
C1687 C 0.7441 0.72984 0.86412 0.0
C1688 C 0.79651 0.74118 0.80153 0.0
C1689 C 0.77727 0.72361 0.83321 0.0
C1690 C 0.81581 0.74438 0.78958 0.0
C1691 C 0.83389 0.73053 0.79292 0.0
C1692 C 0.79564 0.72447 0.8174 0.0
C1693 C 0.83181 0.71305 0.80779 0.0
C1694 C 0.78143 0.71923 0.85545 0.0
C1695 C 0.74008 0.73238 0.84157 0.0
N1696 N 0.81318 0.71081 0.81991 0.0
N1697 N 0.75672 0.72981 0.82689 0.0
H1698 H 0.49858 0.486 0.09834 0.0
H1699 H 0.54186 0.60674 0.0719 0.0
H1700 H 0.51929 0.53021 0.14961 0.0
H1701 H 0.48346 0.58047 0.04168 0.0
H1702 H 0.54475 0.57319 0.09434 0.0
H1703 H 0.50414 0.51551 0.07128 0.0
C1704 C 0.50491 0.50172 0.10379 0.0
C1705 C 0.50856 0.50578 0.12617 0.0
C1706 C 0.5316 0.57467 0.08244 0.0
C1707 C 0.51514 0.53922 0.09546 0.0
C1708 C 0.53003 0.59364 0.06958 0.0
C1709 C 0.51236 0.59628 0.05504 0.0
C1710 C 0.51574 0.55809 0.08022 0.0
C1711 C 0.49726 0.57902 0.05281 0.0
C1712 C 0.50791 0.51851 0.08841 0.0
C1713 C 0.51632 0.52652 0.13247 0.0
N1714 N 0.49928 0.5606 0.06529 0.0
N1715 N 0.5194 0.54251 0.11718 0.0
H1716 H 0.67247 0.2475 0.28474 0.0
H1717 H 0.71319 0.2742 0.40174 0.0
H1718 H 0.63631 0.29415 0.3238 0.0
H1719 H 0.76013 0.26923 0.34896 0.0
H1720 H 0.68389 0.27967 0.37455 0.0
H1721 H 0.70449 0.25292 0.30864 0.0
C1722 C 0.67145 0.25915 0.29815 0.0
C1723 C 0.65183 0.27044 0.30237 0.0
C1724 C 0.70069 0.27786 0.36899 0.0
C1725 C 0.68797 0.27621 0.32997 0.0
C1726 C 0.71735 0.27474 0.38445 0.0
C1727 C 0.73905 0.27143 0.37753 0.0
C1728 C 0.70572 0.27688 0.34652 0.0
C1729 C 0.74362 0.272 0.35494 0.0
C1730 C 0.68967 0.26228 0.31169 0.0
C1731 C 0.65123 0.28529 0.31997 0.0
N1732 N 0.727 0.27416 0.34018 0.0
N1733 N 0.66892 0.28741 0.33347 0.0
H1734 H 0.98273 0.51306 0.59636 0.0
H1735 H 0.00837 0.42126 0.53341 0.0
H1736 H 0.98591 0.46484 0.64824 0.0
H1737 H 0.96126 0.38769 0.57429 0.0
H1738 H 0.00425 0.45413 0.55629 0.0
H1739 H 0.97858 0.48332 0.56956 0.0
C1740 C 0.98213 0.49625 0.60215 0.0
C1741 C 0.98483 0.49132 0.62451 0.0
C1742 C 0.99447 0.43972 0.55995 0.0
C1743 C 0.98011 0.45746 0.59404 0.0
C1744 C 0.9969 0.42099 0.54702 0.0
C1745 C 0.98503 0.40191 0.55199 0.0
C1746 C 0.98053 0.43909 0.5783 0.0
C1747 C 0.97049 0.40223 0.56986 0.0
C1748 C 0.97994 0.47935 0.58685 0.0
C1749 C 0.98404 0.46926 0.63111 0.0
N1750 N 0.969 0.42043 0.58274 0.0
N1751 N 0.98175 0.45307 0.6159 0.0
H1752 H 0.8267 0.24858 0.71828 0.0
H1753 H 0.78551 0.27739 0.6016 0.0
H1754 H 0.86209 0.29605 0.67937 0.0
H1755 H 0.7389 0.26711 0.65392 0.0
H1756 H 0.81438 0.28341 0.62905 0.0
H1757 H 0.79446 0.2539 0.69475 0.0
C1758 C 0.82751 0.2604 0.70498 0.0
C1759 C 0.84701 0.27188 0.70066 0.0
C1760 C 0.79773 0.2803 0.6345 0.0
C1761 C 0.81055 0.27758 0.67345 0.0
C1762 C 0.7813 0.27683 0.61888 0.0
C1763 C 0.75986 0.27181 0.62556 0.0
C1764 C 0.79276 0.27801 0.6569 0.0
C1765 C 0.75523 0.27112 0.64813 0.0
C1766 C 0.80914 0.26347 0.69164 0.0
C1767 C 0.84729 0.28699 0.68326 0.0
N1768 N 0.77167 0.2737 0.66303 0.0
N1769 N 0.82946 0.28906 0.66994 0.0
H1770 H 0.01864 0.57659 0.95968 0.0
H1771 H 0.97965 0.52922 0.8499 0.0
H1772 H 0.95937 0.60244 0.93085 0.0
H1773 H 0.0011 0.48447 0.90042 0.0
H1774 H 0.97326 0.55732 0.87808 0.0
H1775 H 0.01437 0.5432 0.93751 0.0
C1776 C 0.00453 0.57501 0.94894 0.0
C1777 C 0.98933 0.59217 0.94699 0.0
C1778 C 0.97887 0.54117 0.88302 0.0
C1779 C 0.98472 0.55456 0.9213 0.0
C1780 C 0.98252 0.52521 0.867 0.0
C1781 C 0.99073 0.50457 0.87296 0.0
C1782 C 0.98428 0.53666 0.90496 0.0
C1783 C 0.99449 0.50016 0.89526 0.0
C1784 C 0.00206 0.556 0.93641 0.0
C1785 C 0.97135 0.58946 0.93285 0.0
N1786 N 0.99174 0.51629 0.91047 0.0
N1787 N 0.9698 0.57119 0.9201 0.0
H1788 H 0.68275 0.75007 0.22573 0.0
H1789 H 0.72527 0.72255 0.10939 0.0
H1790 H 0.65036 0.69925 0.18853 0.0
H1791 H 0.77191 0.73175 0.1619 0.0
H1792 H 0.69626 0.71663 0.13684 0.0
H1793 H 0.71498 0.74653 0.20175 0.0
C1794 C 0.68263 0.73792 0.21272 0.0
C1795 C 0.66401 0.72488 0.20905 0.0
C1796 C 0.71295 0.71956 0.14228 0.0
C1797 C 0.70029 0.72129 0.18131 0.0
C1798 C 0.72942 0.72298 0.12669 0.0
C1799 C 0.75095 0.72752 0.13346 0.0
C1800 C 0.71796 0.72145 0.1647 0.0
C1801 C 0.75553 0.72808 0.15604 0.0
C1802 C 0.70096 0.73589 0.19912 0.0
C1803 C 0.66453 0.70946 0.19195 0.0
N1804 N 0.73906 0.72553 0.17091 0.0
N1805 N 0.68222 0.70841 0.17835 0.0
H1806 H 0.51648 0.5129 0.40461 0.0
H1807 H 0.49118 0.42251 0.46927 0.0
H1808 H 0.52362 0.46178 0.35614 0.0
H1809 H 0.54328 0.38959 0.43441 0.0
H1810 H 0.49719 0.4552 0.44652 0.0
H1811 H 0.52112 0.48534 0.4337 0.0
C1812 C 0.51974 0.496 0.4001 0.0
C1813 C 0.5196 0.48948 0.378 0.0
C1814 C 0.50769 0.44103 0.44427 0.0
C1815 C 0.52469 0.45812 0.41099 0.0
C1816 C 0.50415 0.42235 0.45708 0.0
C1817 C 0.51675 0.4034 0.45362 0.0
C1818 C 0.52358 0.44049 0.42756 0.0
C1819 C 0.53332 0.40396 0.43762 0.0
C1820 C 0.5221 0.48031 0.41668 0.0
C1821 C 0.52354 0.46737 0.37302 0.0
N1822 N 0.5359 0.42205 0.42477 0.0
N1823 N 0.52586 0.45241 0.38942 0.0
H1824 H 0.77589 0.83047 0.75311 0.0
H1825 H 0.83953 0.73939 0.72613 0.0
H1826 H 0.81815 0.86566 0.70844 0.0
H1827 H 0.89101 0.78769 0.73223 0.0
H1828 H 0.8127 0.76916 0.72187 0.0
H1829 H 0.79858 0.79757 0.74805 0.0
C1830 C 0.78975 0.83111 0.74197 0.0
C1831 C 0.79519 0.85067 0.73109 0.0
C1832 C 0.82994 0.77315 0.72377 0.0
C1833 C 0.82124 0.81342 0.7255 0.0
C1834 C 0.84526 0.75624 0.72595 0.0
C1835 C 0.86748 0.76118 0.72957 0.0
C1836 C 0.83701 0.79506 0.72482 0.0
C1837 C 0.87399 0.78327 0.72954 0.0
C1838 C 0.80256 0.81236 0.73898 0.0
C1839 C 0.81336 0.85077 0.71693 0.0
N1840 N 0.8588 0.79946 0.72722 0.0
N1841 N 0.82609 0.83252 0.71491 0.0
H1842 H 0.30104 0.65408 0.29743 0.0
H1843 H 0.41171 0.70715 0.25035 0.0
H1844 H 0.33779 0.62957 0.24207 0.0
H1845 H 0.36369 0.74652 0.28445 0.0
H1846 H 0.38869 0.67491 0.25586 0.0
H1847 H 0.32738 0.68486 0.30047 0.0
C1848 C 0.31474 0.65506 0.28612 0.0
C1849 C 0.31718 0.63945 0.26933 0.0
C1850 C 0.38326 0.69055 0.26237 0.0
C1851 C 0.34727 0.674 0.27295 0.0
C1852 C 0.39644 0.70896 0.25929 0.0
C1853 C 0.38945 0.72961 0.26667 0.0
C1854 C 0.36288 0.69268 0.2729 0.0
C1855 C 0.36961 0.7309 0.27839 0.0
C1856 C 0.32965 0.67258 0.28781 0.0
C1857 C 0.33513 0.64142 0.25506 0.0
N1858 N 0.35682 0.71268 0.28095 0.0
N1859 N 0.34946 0.6583 0.25722 0.0
H1860 H 0.48697 0.0996 0.52219 0.0
H1861 H 0.61462 0.08111 0.54491 0.0
H1862 H 0.53318 0.15327 0.52349 0.0
H1863 H 0.57722 0.03915 0.50181 0.0
H1864 H 0.58181 0.1041 0.55018 0.0
H1865 H 0.51746 0.07379 0.52789 0.0
C1866 C 0.50344 0.10598 0.5244 0.0
C1867 C 0.50768 0.12854 0.52242 0.0
C1868 C 0.58078 0.08959 0.53995 0.0
C1869 C 0.5423 0.0993 0.5291 0.0
C1870 C 0.59935 0.07644 0.53704 0.0
C1871 C 0.59854 0.05837 0.5228 0.0
C1872 C 0.56123 0.0842 0.529 0.0
C1873 C 0.57848 0.05309 0.51278 0.0
C1874 C 0.52076 0.09127 0.52746 0.0
C1875 C 0.52932 0.13597 0.52493 0.0
N1876 N 0.56057 0.06599 0.51605 0.0
N1877 N 0.5459 0.12136 0.52814 0.0
H1878 H 0.20932 0.34856 0.79733 0.0
H1879 H 0.09938 0.29318 0.75295 0.0
H1880 H 0.17731 0.36572 0.73647 0.0
H1881 H 0.1473 0.25392 0.78741 0.0
H1882 H 0.12364 0.32484 0.75598 0.0
H1883 H 0.18306 0.31786 0.80177 0.0
C1884 C 0.19676 0.34592 0.78501 0.0
C1885 C 0.19555 0.35955 0.76642 0.0
C1886 C 0.12873 0.30937 0.76313 0.0
C1887 C 0.16545 0.32522 0.77168 0.0
C1888 C 0.11487 0.29129 0.76151 0.0
C1889 C 0.12148 0.27078 0.76963 0.0
C1890 C 0.14935 0.30707 0.77312 0.0
C1891 C 0.14165 0.26942 0.7808 0.0
C1892 C 0.1819 0.32847 0.78753 0.0
C1893 C 0.17901 0.35548 0.75092 0.0
N1894 N 0.15506 0.28734 0.78204 0.0
N1895 N 0.16457 0.33882 0.75397 0.0
H1896 H 0.38726 0.43021 0.54779 0.0
H1897 H 0.46342 0.34783 0.52512 0.0
H1898 H 0.42308 0.46144 0.49521 0.0
H1899 H 0.50986 0.4008 0.51785 0.0
H1900 H 0.43427 0.37482 0.53169 0.0
H1901 H 0.41851 0.40534 0.5537 0.0
C1902 C 0.40187 0.43212 0.53782 0.0
C1903 C 0.40256 0.44766 0.52081 0.0
C1904 C 0.45097 0.3805 0.52933 0.0
C1905 C 0.43811 0.41949 0.52748 0.0
C1906 C 0.46754 0.36514 0.52553 0.0
C1907 C 0.48903 0.37216 0.52121 0.0
C1908 C 0.45586 0.40301 0.52809 0.0
C1909 C 0.49353 0.39476 0.52149 0.0
C1910 C 0.41955 0.41785 0.54108 0.0
C1911 C 0.42183 0.44944 0.50829 0.0
N1912 N 0.47694 0.40945 0.52429 0.0
N1913 N 0.43886 0.43547 0.51186 0.0
H1914 H 0.65063 0.26606 0.23418 0.0
H1915 H 0.71715 0.17554 0.25565 0.0
H1916 H 0.60137 0.21516 0.23271 0.0
H1917 H 0.67842 0.14261 0.2064 0.0
H1918 H 0.69359 0.20801 0.25193 0.0
H1919 H 0.67907 0.23808 0.22833 0.0
C1920 C 0.64576 0.24908 0.23202 0.0
C1921 C 0.62366 0.24283 0.23396 0.0
C1922 C 0.69061 0.19389 0.24152 0.0
C1923 C 0.65597 0.21095 0.2274 0.0
C1924 C 0.70395 0.17539 0.24371 0.0
C1925 C 0.69974 0.15655 0.23117 0.0
C1926 C 0.67257 0.19326 0.22716 0.0
C1927 C 0.6823 0.15698 0.21613 0.0
C1928 C 0.66199 0.23316 0.22893 0.0
C1929 C 0.61826 0.22058 0.23137 0.0
N1930 N 0.66897 0.17489 0.21491 0.0
N1931 N 0.63432 0.2054 0.22822 0.0
H1932 H 0.53021 0.85269 0.97276 0.0
H1933 H 0.60902 0.93146 0.94612 0.0
H1934 H 0.48564 0.90745 0.97755 0.0
H1935 H 0.5748 0.96581 0.99773 0.0
H1936 H 0.57682 0.90751 0.94138 0.0
H1937 H 0.5603 0.8784 0.96511 0.0
C1938 C 0.52671 0.8701 0.97164 0.0
C1939 C 0.50547 0.87801 0.97553 0.0
C1940 C 0.57634 0.92052 0.9535 0.0
C1941 C 0.53969 0.90741 0.96737 0.0
C1942 C 0.59455 0.93427 0.95608 0.0
C1943 C 0.59456 0.95041 0.97251 0.0
C1944 C 0.55798 0.9233 0.96717 0.0
C1945 C 0.57548 0.95334 0.98507 0.0
C1946 C 0.54381 0.88472 0.9672 0.0
C1947 C 0.50176 0.90073 0.97428 0.0
N1948 N 0.55792 0.93986 0.98217 0.0
N1949 N 0.51885 0.91472 0.97086 0.0
H1950 H 0.96246 0.15148 0.49823 0.0
H1951 H 0.90673 0.04102 0.45567 0.0
H1952 H 0.00251 0.1008 0.46915 0.0
H1953 H 0.88603 0.07752 0.51279 0.0
H1954 H 0.93874 0.06579 0.45225 0.0
H1955 H 0.93031 0.1281 0.49394 0.0
C1956 C 0.96444 0.13554 0.49058 0.0
C1957 C 0.98523 0.12794 0.48434 0.0
C1958 C 0.92708 0.06824 0.46545 0.0
C1959 C 0.94843 0.101 0.47951 0.0
C1960 C 0.90888 0.05421 0.4674 0.0
C1961 C 0.89381 0.05714 0.48463 0.0
C1962 C 0.92969 0.08556 0.48046 0.0
C1963 C 0.89732 0.07447 0.49939 0.0
C1964 C 0.94609 0.12217 0.48824 0.0
C1965 C 0.98675 0.10722 0.47427 0.0
N1966 N 0.91476 0.08805 0.49687 0.0
N1967 N 0.96855 0.09427 0.47237 0.0
H1968 H 0.20905 0.43286 0.44892 0.0
H1969 H 0.2003 0.30387 0.45103 0.0
H1970 H 0.18237 0.3986 0.50504 0.0
H1971 H 0.25474 0.33636 0.41922 0.0
H1972 H 0.19075 0.33871 0.46891 0.0
H1973 H 0.22365 0.39783 0.43528 0.0
C1974 C 0.20646 0.41806 0.45847 0.0
C1975 C 0.19448 0.41869 0.47815 0.0
C1976 C 0.20494 0.33806 0.45821 0.0
C1977 C 0.21064 0.37867 0.46243 0.0
C1978 C 0.21036 0.31824 0.448 0.0
C1979 C 0.22837 0.31718 0.43367 0.0
C1980 C 0.21725 0.35704 0.45357 0.0
C1981 C 0.24082 0.33635 0.43027 0.0
C1982 C 0.21481 0.39812 0.45071 0.0
C1983 C 0.1916 0.39896 0.48985 0.0
N1984 N 0.23483 0.35557 0.43988 0.0
N1985 N 0.19932 0.37972 0.48165 0.0
H1986 H 0.90412 0.01329 0.6832 0.0
H1987 H 0.83717 0.93365 0.76265 0.0
H1988 H 0.93251 0.95461 0.71118 0.0
H1989 H 0.80758 0.96652 0.70722 0.0
H1990 H 0.87266 0.94982 0.75274 0.0
H1991 H 0.86932 0.00452 0.7012 0.0
C1992 C 0.90323 0.99882 0.69352 0.0
C1993 C 0.92126 0.98453 0.6955 0.0
C1994 C 0.85828 0.95373 0.74302 0.0
C1995 C 0.88147 0.97459 0.71618 0.0
C1996 C 0.838 0.94467 0.74871 0.0
C1997 C 0.8194 0.94863 0.73562 0.0
C1998 C 0.85987 0.96718 0.7244 0.0
C1999 C 0.82153 0.9629 0.71764 0.0
C2000 C 0.88331 0.9938 0.70365 0.0
C2001 C 0.91901 0.96597 0.70902 0.0
N2002 N 0.84144 0.97163 0.71251 0.0
N2003 N 0.89941 0.96147 0.71879 0.0
H2004 H 0.23433 0.66503 0.91902 0.0
H2005 H 0.29606 0.60093 0.01432 0.0
H2006 H 0.28644 0.6949 0.95669 0.0
H2007 H 0.27878 0.56918 0.9533 0.0
H2008 H 0.28281 0.63578 0.99947 0.0
H2009 H 0.24115 0.63019 0.93788 0.0
C2010 C 0.24693 0.6644 0.93156 0.0
C2011 C 0.25989 0.68292 0.93628 0.0
C2012 C 0.28162 0.62108 0.98954 0.0
C2013 C 0.26752 0.64317 0.95795 0.0
C2014 C 0.28902 0.60113 0.99798 0.0
C2015 C 0.28869 0.58207 0.98494 0.0
C2016 C 0.2733 0.62192 0.96813 0.0
C2017 C 0.27949 0.58347 0.96385 0.0
C2018 C 0.25086 0.64447 0.94216 0.0
C2019 C 0.27615 0.68102 0.9525 0.0
N2020 N 0.27215 0.6031 0.95606 0.0
N2021 N 0.27948 0.66147 0.96282 0.0
H2022 H 0.68348 0.06772 0.19022 0.0
H2023 H 0.57848 0.99536 0.20412 0.0
H2024 H 0.66929 0.04547 0.25612 0.0
H2025 H 0.57622 0.05932 0.17353 0.0
H2026 H 0.6149 0.00463 0.21936 0.0
H2027 H 0.64772 0.0541 0.17842 0.0
C2028 C 0.67312 0.05951 0.20214 0.0
C2029 C 0.67936 0.05795 0.22429 0.0
C2030 C 0.60617 0.01659 0.2095 0.0
C2031 C 0.63846 0.04228 0.21069 0.0
C2032 C 0.58547 0.01139 0.20086 0.0
C2033 C 0.57427 0.02664 0.1876 0.0
C2034 C 0.61585 0.03678 0.20412 0.0
C2035 C 0.58412 0.04714 0.18379 0.0
C2036 C 0.65266 0.05194 0.19538 0.0
C2037 C 0.66506 0.04718 0.23893 0.0
N2038 N 0.6045 0.05145 0.19167 0.0
N2039 N 0.64514 0.03976 0.23189 0.0
H2040 H 0.26495 0.67418 0.048 0.0
H2041 H 0.19165 0.56804 0.05609 0.0
H2042 H 0.19927 0.67481 0.07471 0.0
H2043 H 0.22845 0.57932 0.99646 0.0
H2044 H 0.20189 0.60459 0.06878 0.0
H2045 H 0.25785 0.63734 0.03295 0.0
C2046 C 0.24895 0.66676 0.05037 0.0
C2047 C 0.23265 0.6776 0.06261 0.0
C2048 C 0.2079 0.59892 0.05302 0.0
C2049 C 0.22488 0.63548 0.04617 0.0
C2050 C 0.20231 0.57795 0.04585 0.0
C2051 C 0.20903 0.57062 0.02506 0.0
C2052 C 0.22065 0.61255 0.03956 0.0
C2053 C 0.22275 0.58439 0.01251 0.0
C2054 C 0.24499 0.6458 0.04184 0.0
C2055 C 0.21226 0.66719 0.06527 0.0
N2056 N 0.22812 0.6048 0.01995 0.0
N2057 N 0.20909 0.64656 0.05746 0.0
H2058 H 0.68326 0.95652 0.30065 0.0
H2059 H 0.55438 0.94795 0.30126 0.0
H2060 H 0.64815 0.92559 0.24737 0.0
H2061 H 0.5876 0.00397 0.32931 0.0
H2062 H 0.58874 0.93741 0.28307 0.0
H2063 H 0.64851 0.9723 0.31361 0.0
C2064 C 0.66832 0.95322 0.29158 0.0
C2065 C 0.66862 0.93971 0.27292 0.0
C2066 C 0.58836 0.95217 0.29298 0.0
C2067 C 0.62892 0.95729 0.28786 0.0
C2068 C 0.5688 0.95817 0.30336 0.0
C2069 C 0.56812 0.97686 0.31681 0.0
C2070 C 0.60746 0.96463 0.29655 0.0
C2071 C 0.58733 0.9895 0.31899 0.0
C2072 C 0.64854 0.96226 0.29893 0.0
C2073 C 0.64874 0.93599 0.26178 0.0
N2074 N 0.60631 0.98295 0.30927 0.0
N2075 N 0.62965 0.94445 0.2696 0.0
H2076 H 0.31772 0.40748 0.48998 0.0
H2077 H 0.23964 0.34533 0.57466 0.0
H2078 H 0.28807 0.43998 0.54557 0.0
H2079 H 0.2959 0.31437 0.54462 0.0
H2080 H 0.24888 0.37956 0.55572 0.0
H2081 H 0.30101 0.3729 0.50181 0.0
C2082 C 0.30729 0.40749 0.50439 0.0
C2083 C 0.30443 0.42666 0.51693 0.0
C2084 C 0.25896 0.36514 0.55306 0.0
C2085 C 0.28526 0.38715 0.53037 0.0
C2086 C 0.25367 0.34556 0.56372 0.0
C2087 C 0.26714 0.32697 0.56135 0.0
C2088 C 0.2776 0.36605 0.53961 0.0
C2089 C 0.28518 0.32834 0.54707 0.0
C2090 C 0.29792 0.38771 0.51117 0.0
C2091 C 0.29086 0.42557 0.53554 0.0
N2092 N 0.28993 0.3476 0.53676 0.0
N2093 N 0.28182 0.4061 0.54175 0.0
H2094 H 0.92975 0.99627 0.79356 0.0
H2095 H 0.82772 0.07408 0.80778 0.0
H2096 H 0.93449 0.05983 0.82461 0.0
H2097 H 0.83702 0.04174 0.74538 0.0
H2098 H 0.86408 0.06152 0.81921 0.0
H2099 H 0.89342 0.00667 0.7791 0.0
C2100 C 0.92335 0.0125 0.79702 0.0
C2101 C 0.9352 0.02723 0.81027 0.0
C2102 C 0.85801 0.05701 0.8031 0.0
C2103 C 0.8936 0.03869 0.79465 0.0
C2104 C 0.83718 0.06392 0.79666 0.0
C2105 C 0.82936 0.05901 0.77556 0.0
C2106 C 0.87094 0.04471 0.78856 0.0
C2107 C 0.84251 0.04597 0.76175 0.0
C2108 C 0.90266 0.01833 0.78886 0.0
C2109 C 0.92607 0.048 0.81435 0.0
N2110 N 0.86272 0.0392 0.76851 0.0
N2111 N 0.90566 0.05295 0.80692 0.0
H2112 H 0.50401 0.20967 0.42444 0.0
H2113 H 0.42877 0.19196 0.32119 0.0
H2114 H 0.4413 0.17686 0.42876 0.0
H2115 H 0.4563 0.2565 0.33157 0.0
H2116 H 0.44162 0.18109 0.35763 0.0
H2117 H 0.49374 0.22331 0.38771 0.0
C2118 C 0.48802 0.20559 0.4178 0.0
C2119 C 0.47343 0.19221 0.42969 0.0
C2120 C 0.44504 0.19754 0.35176 0.0
C2121 C 0.46213 0.2069 0.38771 0.0
C2122 C 0.43795 0.20371 0.33091 0.0
C2123 C 0.44141 0.22521 0.32335 0.0
C2124 C 0.45611 0.21279 0.36499 0.0
C2125 C 0.45321 0.2398 0.33684 0.0
C2126 C 0.48225 0.21331 0.39692 0.0
C2127 C 0.45296 0.18729 0.42029 0.0
N2128 N 0.46022 0.23331 0.35707 0.0
N2129 N 0.44808 0.19432 0.39971 0.0
H2130 H 0.00221 0.20695 0.57949 0.0
H2131 H 0.08062 0.18999 0.68222 0.0
H2132 H 0.06152 0.16837 0.57603 0.0
H2133 H 0.04489 0.25047 0.67283 0.0
H2134 H 0.06846 0.17773 0.64587 0.0
H2135 H 0.01346 0.22017 0.61585 0.0
C2136 C 0.01774 0.20153 0.58626 0.0
C2137 C 0.03104 0.18666 0.5747 0.0
C2138 C 0.06317 0.1936 0.65189 0.0
C2139 C 0.04352 0.20104 0.61646 0.0
C2140 C 0.06983 0.20047 0.67273 0.0
C2141 C 0.06374 0.22127 0.68055 0.0
C2142 C 0.05 0.20744 0.63898 0.0
C2143 C 0.04999 0.23433 0.66739 0.0
C2144 C 0.02408 0.20899 0.607 0.0
C2145 C 0.05093 0.18003 0.58427 0.0
N2146 N 0.04354 0.22719 0.64725 0.0
N2147 N 0.05643 0.18702 0.60475 0.0
H2148 H 0.06416 0.82113 0.92843 0.0
H2149 H 0.04804 0.74236 0.82661 0.0
H2150 H 0.00352 0.785 0.92169 0.0
H2151 H 0.07698 0.80682 0.82066 0.0
H2152 H 0.03607 0.75176 0.86408 0.0
H2153 H 0.07507 0.80875 0.89178 0.0
C2154 C 0.05338 0.81015 0.91949 0.0
C2155 C 0.03287 0.80412 0.92808 0.0
C2156 C 0.04488 0.76382 0.85439 0.0
C2157 C 0.04524 0.79005 0.88623 0.0
C2158 C 0.05161 0.75854 0.83307 0.0
C2159 C 0.06337 0.7739 0.82047 0.0
C2160 C 0.05063 0.78427 0.86331 0.0
C2161 C 0.06773 0.79458 0.82967 0.0
C2162 C 0.0595 0.80334 0.8985 0.0
C2163 C 0.01943 0.79009 0.9156 0.0
N2164 N 0.06166 0.79903 0.85065 0.0
N2165 N 0.02586 0.78348 0.89524 0.0
H2166 H 0.50481 0.79685 0.07351 0.0
H2167 H 0.42909 0.8104 0.17835 0.0
H2168 H 0.44184 0.82926 0.07115 0.0
H2169 H 0.46488 0.7501 0.16812 0.0
H2170 H 0.4404 0.8228 0.14181 0.0
H2171 H 0.49595 0.78344 0.11061 0.0
C2172 C 0.48905 0.8009 0.08068 0.0
C2173 C 0.47396 0.81405 0.06919 0.0
C2174 C 0.44595 0.80696 0.14772 0.0
C2175 C 0.46422 0.7996 0.11168 0.0
C2176 C 0.43976 0.79999 0.16865 0.0
C2177 C 0.44603 0.77917 0.17627 0.0
C2178 C 0.45887 0.79322 0.13449 0.0
C2179 C 0.45963 0.76624 0.16282 0.0
C2180 C 0.48407 0.79334 0.1018 0.0
C2181 C 0.45383 0.81895 0.07929 0.0
N2182 N 0.46564 0.77348 0.14254 0.0
N2183 N 0.44969 0.812 0.10008 0.0
H2184 H 0.41029 0.51485 0.20022 0.0
H2185 H 0.33925 0.429 0.26809 0.0
H2186 H 0.43579 0.4511 0.21806 0.0
H2187 H 0.31235 0.46546 0.21353 0.0
H2188 H 0.37521 0.4455 0.26088 0.0
H2189 H 0.37508 0.50492 0.21672 0.0
C2190 C 0.40875 0.49898 0.20812 0.0
C2191 C 0.42604 0.48366 0.20752 0.0
C2192 C 0.3613 0.45012 0.25079 0.0
C2193 C 0.38577 0.47246 0.22654 0.0
C2194 C 0.34075 0.44087 0.25492 0.0
C2195 C 0.32276 0.44577 0.24127 0.0
C2196 C 0.36379 0.46475 0.23323 0.0
C2197 C 0.32579 0.46112 0.22434 0.0
C2198 C 0.38857 0.49335 0.21737 0.0
C2199 C 0.42289 0.46333 0.21796 0.0
N2200 N 0.34596 0.47007 0.22076 0.0
N2201 N 0.40307 0.45826 0.22698 0.0
H2202 H 0.81887 0.92226 0.06038 0.0
H2203 H 0.75023 0.81525 0.0388 0.0
H2204 H 0.78918 0.91412 0.99646 0.0
H2205 H 0.81337 0.81415 0.07107 0.0
H2206 H 0.75803 0.85285 0.02608 0.0
H2207 H 0.80901 0.88446 0.0693 0.0
C2208 C 0.80979 0.91275 0.04839 0.0
C2209 C 0.80493 0.92142 0.02757 0.0
C2210 C 0.77022 0.84413 0.03566 0.0
C2211 C 0.79376 0.87803 0.03775 0.0
C2212 C 0.76588 0.82269 0.04282 0.0
C2213 C 0.78117 0.81149 0.05603 0.0
C2214 C 0.78963 0.85455 0.04237 0.0
C2215 C 0.80113 0.82202 0.06084 0.0
C2216 C 0.80445 0.89108 0.05342 0.0
C2217 C 0.79332 0.90809 0.01267 0.0
N2218 N 0.80457 0.84309 0.0544 0.0
N2219 N 0.78809 0.88698 0.01805 0.0
H2220 H 0.17464 0.56843 0.69417 0.0
H2221 H 0.07277 0.49578 0.71877 0.0
H2222 H 0.16873 0.54561 0.76111 0.0
H2223 H 0.06684 0.55954 0.68815 0.0
H2224 H 0.10965 0.50619 0.73186 0.0
H2225 H 0.13733 0.55573 0.68703 0.0
C2226 C 0.16573 0.5603 0.70725 0.0
C2227 C 0.17481 0.55822 0.72833 0.0
C2228 C 0.09997 0.51791 0.72259 0.0
C2229 C 0.13209 0.54372 0.72015 0.0
C2230 C 0.07897 0.51207 0.7152 0.0
C2231 C 0.06673 0.52674 0.70216 0.0
C2232 C 0.10885 0.53819 0.71628 0.0
C2233 C 0.07559 0.54764 0.69806 0.0
C2234 C 0.14437 0.5533 0.7032 0.0
C2235 C 0.16227 0.54766 0.74467 0.0
N2236 N 0.09629 0.55253 0.70463 0.0
N2237 N 0.14144 0.54074 0.74024 0.0
H2238 H 0.70796 0.9368 0.94622 0.0
H2239 H 0.69313 0.80911 0.95149 0.0
H2240 H 0.67586 0.90613 0.00156 0.0
H2241 H 0.75121 0.83802 0.92278 0.0
H2242 H 0.68474 0.84457 0.96869 0.0
H2243 H 0.72265 0.90083 0.93558 0.0
C2244 C 0.70426 0.9226 0.95629 0.0
C2245 C 0.69066 0.92449 0.97478 0.0
C2246 C 0.69949 0.84297 0.95889 0.0
C2247 C 0.70691 0.88336 0.96243 0.0
C2248 C 0.70426 0.82278 0.94906 0.0
C2249 C 0.72286 0.82057 0.93564 0.0
C2250 C 0.7131 0.86116 0.95478 0.0
C2251 C 0.73672 0.83889 0.93305 0.0
C2252 C 0.71266 0.90211 0.95024 0.0
C2253 C 0.68637 0.90549 0.98723 0.0
N2254 N 0.73135 0.8585 0.94219 0.0
N2255 N 0.69413 0.88566 0.98061 0.0
H2256 H 0.73826 0.176 0.46259 0.0
H2257 H 0.81232 0.07316 0.44126 0.0
H2258 H 0.8027 0.1808 0.43333 0.0
H2259 H 0.78289 0.0789 0.50557 0.0
H2260 H 0.80012 0.11032 0.43281 0.0
H2261 H 0.74735 0.13857 0.47512 0.0
C2262 C 0.75439 0.16937 0.45912 0.0
C2263 C 0.76974 0.18154 0.44685 0.0
C2264 C 0.79613 0.10329 0.44867 0.0
C2265 C 0.77969 0.13879 0.46024 0.0
C2266 C 0.80286 0.08199 0.45346 0.0
C2267 C 0.79879 0.0729 0.47426 0.0
C2268 C 0.78487 0.11552 0.46456 0.0
C2269 C 0.78651 0.08534 0.48939 0.0
C2270 C 0.75948 0.14806 0.4662 0.0
C2271 C 0.79038 0.17213 0.4428 0.0
N2272 N 0.77996 0.10612 0.48427 0.0
N2273 N 0.79457 0.15118 0.44908 0.0
H2274 H 0.76614 0.17031 0.55515 0.0
H2275 H 0.67846 0.10189 0.48674 0.0
H2276 H 0.70355 0.19774 0.53618 0.0
H2277 H 0.71567 0.07332 0.53993 0.0
H2278 H 0.69541 0.13751 0.49452 0.0
H2279 H 0.7553 0.1353 0.53874 0.0
C2280 C 0.75034 0.16919 0.54705 0.0
C2281 C 0.73562 0.18699 0.54723 0.0
C2282 C 0.70006 0.12333 0.50421 0.0
C2283 C 0.72333 0.14697 0.5284 0.0
C2284 C 0.69054 0.10297 0.49976 0.0
C2285 C 0.69557 0.08459 0.51283 0.0
C2286 C 0.71506 0.12524 0.52152 0.0
C2287 C 0.7112 0.08708 0.52958 0.0
C2288 C 0.74417 0.14914 0.53787 0.0
C2289 C 0.71533 0.18443 0.53659 0.0
N2290 N 0.72041 0.10707 0.53347 0.0
N2291 N 0.70972 0.16472 0.52766 0.0
H2292 H 0.06706 0.45639 0.78036 0.0
H2293 H 0.1921 0.47098 0.79443 0.0
H2294 H 0.09236 0.51751 0.80598 0.0
H2295 H 0.16725 0.44134 0.735 0.0
H2296 H 0.15561 0.48688 0.80099 0.0
H2297 H 0.10343 0.44867 0.76472 0.0
C2298 C 0.08008 0.46836 0.78232 0.0
C2299 C 0.07666 0.48755 0.79459 0.0
C2300 C 0.15836 0.47722 0.78632 0.0
C2301 C 0.11825 0.47851 0.77743 0.0
C2302 C 0.17911 0.46814 0.7826 0.0
C2303 C 0.18272 0.45483 0.76417 0.0
C2304 C 0.14102 0.47232 0.7719 0.0
C2305 C 0.16525 0.4516 0.74938 0.0
C2306 C 0.10078 0.46396 0.77341 0.0
C2307 C 0.09419 0.5025 0.79663 0.0
N2308 N 0.14503 0.45987 0.75381 0.0
N2309 N 0.11436 0.49742 0.78862 0.0
H2310 H 0.34112 0.55263 0.23965 0.0
H2311 H 0.41055 0.48011 0.32289 0.0
H2312 H 0.31454 0.53109 0.30181 0.0
H2313 H 0.43861 0.53603 0.28941 0.0
H2314 H 0.37492 0.48861 0.30643 0.0
H2315 H 0.37633 0.536 0.2494 0.0
C2316 C 0.34246 0.54393 0.25511 0.0
C2317 C 0.32483 0.54343 0.27006 0.0
C2318 C 0.389 0.49875 0.30246 0.0
C2319 C 0.36507 0.52428 0.28105 0.0
C2320 C 0.40938 0.4939 0.31169 0.0
C2321 C 0.42762 0.50751 0.30764 0.0
C2322 C 0.3869 0.51704 0.2887 0.0
C2323 C 0.42498 0.52523 0.29312 0.0
C2324 C 0.36263 0.53461 0.26066 0.0
C2325 C 0.3277 0.53202 0.28989 0.0
N2326 N 0.40494 0.52952 0.28417 0.0
N2327 N 0.34751 0.52294 0.29486 0.0
H2328 H 0.94068 0.67221 0.92661 0.0
H2329 H 0.94867 0.75545 0.8268 0.0
H2330 H 0.99993 0.70972 0.91609 0.0
H2331 H 0.91667 0.69241 0.82147 0.0
H2332 H 0.96352 0.74428 0.86269 0.0
H2333 H 0.92635 0.68594 0.89163 0.0
C2334 C 0.95047 0.68372 0.9172 0.0
C2335 C 0.97156 0.6898 0.92424 0.0
C2336 C 0.95336 0.73292 0.85351 0.0
C2337 C 0.95528 0.70543 0.88425 0.0
C2338 C 0.94496 0.73921 0.83307 0.0
C2339 C 0.93156 0.72476 0.82108 0.0
C2340 C 0.94772 0.71234 0.86224 0.0
C2341 C 0.92714 0.70396 0.83002 0.0
C2342 C 0.94239 0.69132 0.89715 0.0
C2343 C 0.98363 0.70457 0.9112 0.0
N2344 N 0.93496 0.69849 0.85019 0.0
N2345 N 0.97531 0.71193 0.8918 0.0
H2346 H 0.50158 0.71437 0.08553 0.0
H2347 H 0.58035 0.68716 0.18418 0.0
H2348 H 0.55955 0.67439 0.07764 0.0
H2349 H 0.55273 0.75225 0.17875 0.0
H2350 H 0.56677 0.6788 0.14739 0.0
H2351 H 0.51537 0.72639 0.12152 0.0
C2352 C 0.51737 0.70845 0.09119 0.0
C2353 C 0.52948 0.69339 0.0786 0.0
C2354 C 0.56359 0.69486 0.15435 0.0
C2355 C 0.54477 0.70637 0.11982 0.0
C2356 C 0.57106 0.69957 0.17544 0.0
C2357 C 0.56765 0.72045 0.18456 0.0
C2358 C 0.55223 0.71095 0.14243 0.0
C2359 C 0.55573 0.73596 0.17229 0.0
C2360 C 0.52515 0.71525 0.11169 0.0
C2361 C 0.54978 0.68614 0.08672 0.0
N2362 N 0.54833 0.73087 0.15182 0.0
N2363 N 0.5566 0.69238 0.10701 0.0
H2364 H 0.56815 0.23975 0.34417 0.0
H2365 H 0.48808 0.31943 0.40966 0.0
H2366 H 0.53809 0.29637 0.31381 0.0
H2367 H 0.54491 0.28974 0.43996 0.0
H2368 H 0.49882 0.30329 0.37452 0.0
H2369 H 0.55193 0.25041 0.3793 0.0
C2370 C 0.55779 0.25419 0.34475 0.0
C2371 C 0.55456 0.26727 0.32597 0.0
C2372 C 0.50875 0.30013 0.38894 0.0
C2373 C 0.53594 0.27938 0.36618 0.0
C2374 C 0.5026 0.30918 0.40906 0.0
C2375 C 0.51569 0.30601 0.42783 0.0
C2376 C 0.52788 0.28746 0.38762 0.0
C2377 C 0.53442 0.29271 0.42591 0.0
C2378 C 0.54871 0.26031 0.36486 0.0
C2379 C 0.54111 0.28589 0.32786 0.0
N2380 N 0.53996 0.2839 0.40613 0.0
N2381 N 0.53228 0.29141 0.34764 0.0
H2382 H 0.96248 0.29545 0.68902 0.0
H2383 H 0.95295 0.28891 0.56098 0.0
H2384 H 0.92969 0.24083 0.65788 0.0
H2385 H 0.01109 0.31537 0.5918 0.0
H2386 H 0.94235 0.2726 0.5963 0.0
H2387 H 0.97912 0.30497 0.65355 0.0
C2388 C 0.95902 0.28531 0.67482 0.0
C2389 C 0.94468 0.26734 0.67642 0.0
C2390 C 0.95759 0.2817 0.59516 0.0
C2391 C 0.96316 0.27842 0.63586 0.0
C2392 C 0.96363 0.29102 0.57506 0.0
C2393 C 0.98291 0.30354 0.57342 0.0
C2394 C 0.97063 0.28546 0.61383 0.0
C2395 C 0.99613 0.30577 0.59224 0.0
C2396 C 0.96853 0.29071 0.65463 0.0
C2397 C 0.94073 0.25476 0.65746 0.0
N2398 N 0.98954 0.29717 0.61175 0.0
N2399 N 0.94961 0.26076 0.63788 0.0
loop_
_geom_bond_atom_site_label_1
_geom_bond_atom_site_label_2
_geom_bond_distance
_geom_bond_site_symmetry_2
_ccdc_geom_bond_type
Co0 O1 2.216 . S
Co0 O2 2.091 . S
Co0 O4 2.004 . S
Co0 O10 2.021 . S
Co0 O12 2.137 . S
Co0 O13 2.244 . S
O1 Co0 2.216 . S
O1 C8 1.247 . S
O2 Co0 2.091 . S
O2 C8 1.261 . S
C3 O12 1.247 . S
C3 O13 1.272 . S
O4 Co0 2.004 . S
O4 C9 1.259 . S
Co5 O6 2.061 . S
Co5 O11 2.052 . S
Co5 O13 2.135 . S
O6 Co5 2.061 . S
O6 C9 1.235 . S
C7 O10 1.238 . S
C7 O11 1.241 . S
C8 O1 1.247 . S
C8 O2 1.261 . S
C9 O4 1.259 . S
C9 O6 1.235 . S
O10 Co0 2.021 . S
O10 C7 1.238 . S
O11 Co5 2.052 . S
O11 C7 1.241 . S
O12 Co0 2.137 . S
O12 C3 1.247 . S
O13 Co0 2.244 . S
O13 C3 1.272 . S
O13 Co5 2.135 . S
Co14 O15 2.216 1_655 S
Co14 O16 2.091 1_655 S
Co14 O18 2.004 . S
Co14 O24 2.021 . S
Co14 O26 2.137 1_655 S
Co14 O27 2.244 . S
O15 Co14 2.216 1_455 S
O15 C22 1.247 . S
O16 Co14 2.091 1_455 S
O16 C22 1.261 . S
C17 O26 1.247 . S
C17 O27 1.272 1_455 S
O18 Co14 2.004 . S
O18 C23 1.259 . S
Co19 O20 2.061 . S
Co19 O25 2.052 . S
Co19 O27 2.135 . S
O20 Co19 2.061 . S
O20 C23 1.235 . S
C21 O24 1.238 . S
C21 O25 1.241 . S
C22 O15 1.247 . S
C22 O16 1.261 . S
C23 O18 1.259 . S
C23 O20 1.235 . S
O24 Co14 2.021 . S
O24 C21 1.238 . S
O25 Co19 2.052 . S
O25 C21 1.241 . S
O26 Co14 2.137 1_455 S
O26 C17 1.247 . S
O27 Co14 2.244 . S
O27 C17 1.272 1_655 S
O27 Co19 2.135 . S
Co28 O29 2.216 . S
Co28 O30 2.091 . S
Co28 O32 2.004 . S
Co28 O38 2.021 . S
Co28 O40 2.137 . S
Co28 O41 2.244 . S
O29 Co28 2.216 . S
O29 C36 1.247 . S
O30 Co28 2.091 . S
O30 C36 1.261 . S
C31 O40 1.247 . S
C31 O41 1.272 . S
O32 Co28 2.004 . S
O32 C37 1.259 . S
Co33 O34 2.061 . S
Co33 O39 2.052 . S
Co33 O41 2.135 . S
O34 Co33 2.061 . S
O34 C37 1.235 . S
C35 O38 1.238 . S
C35 O39 1.241 . S
C36 O29 1.247 . S
C36 O30 1.261 . S
C37 O32 1.259 . S
C37 O34 1.235 . S
O38 Co28 2.021 . S
O38 C35 1.238 . S
O39 Co33 2.052 . S
O39 C35 1.241 . S
O40 Co28 2.137 . S
O40 C31 1.247 . S
O41 Co28 2.244 . S
O41 C31 1.272 . S
O41 Co33 2.135 . S
Co42 O43 2.216 . S
Co42 O44 2.091 . S
Co42 O46 2.004 . S
Co42 O52 2.021 . S
Co42 O54 2.137 . S
Co42 O55 2.244 . S
O43 Co42 2.216 . S
O43 C50 1.247 . S
O44 Co42 2.091 . S
O44 C50 1.261 . S
C45 O54 1.247 . S
C45 O55 1.272 . S
O46 Co42 2.004 . S
O46 C51 1.259 . S
Co47 O48 2.061 . S
Co47 O53 2.052 . S
Co47 O55 2.135 . S
O48 Co47 2.061 . S
O48 C51 1.235 . S
C49 O52 1.238 . S
C49 O53 1.241 . S
C50 O43 1.247 . S
C50 O44 1.261 . S
C51 O46 1.259 . S
C51 O48 1.235 . S
O52 Co42 2.021 . S
O52 C49 1.238 . S
O53 Co47 2.052 . S
O53 C49 1.241 . S
O54 Co42 2.137 . S
O54 C45 1.247 . S
O55 Co42 2.244 . S
O55 C45 1.272 . S
O55 Co47 2.135 . S
Co56 O57 2.216 . S
Co56 O58 2.091 . S
Co56 O60 2.004 . S
Co56 O66 2.021 . S
Co56 O68 2.137 . S
Co56 O69 2.244 . S
O57 Co56 2.216 . S
O57 C64 1.247 . S
O58 Co56 2.091 . S
O58 C64 1.261 . S
C59 O68 1.247 . S
C59 O69 1.272 . S
O60 Co56 2.004 . S
O60 C65 1.259 . S
Co61 O62 2.061 . S
Co61 O67 2.052 . S
Co61 O69 2.135 . S
O62 Co61 2.061 . S
O62 C65 1.235 . S
C63 O66 1.238 . S
C63 O67 1.241 . S
C64 O57 1.247 . S
C64 O58 1.261 . S
C65 O60 1.259 . S
C65 O62 1.235 . S
O66 Co56 2.021 . S
O66 C63 1.238 . S
O67 Co61 2.052 . S
O67 C63 1.241 . S
O68 Co56 2.137 . S
O68 C59 1.247 . S
O69 Co56 2.244 . S
O69 C59 1.272 . S
O69 Co61 2.135 . S
Co70 O71 2.216 . S
Co70 O72 2.091 . S
Co70 O74 2.004 . S
Co70 O80 2.021 . S
Co70 O82 2.137 . S
Co70 O83 2.244 . S
O71 Co70 2.216 . S
O71 C78 1.247 . S
O72 Co70 2.091 . S
O72 C78 1.261 . S
C73 O82 1.247 . S
C73 O83 1.272 . S
O74 Co70 2.004 . S
O74 C79 1.259 . S
Co75 O76 2.061 . S
Co75 O81 2.052 . S
Co75 O83 2.135 . S
O76 Co75 2.061 . S
O76 C79 1.235 . S
C77 O80 1.238 . S
C77 O81 1.241 . S
C78 O71 1.247 . S
C78 O72 1.261 . S
C79 O74 1.259 . S
C79 O76 1.235 . S
O80 Co70 2.021 . S
O80 C77 1.238 . S
O81 Co75 2.052 . S
O81 C77 1.241 . S
O82 Co70 2.137 . S
O82 C73 1.247 . S
O83 Co70 2.244 . S
O83 C73 1.272 . S
O83 Co75 2.135 . S
Co84 O85 2.216 . S
Co84 O86 2.091 . S
Co84 O88 2.004 . S
Co84 O94 2.021 . S
Co84 O96 2.137 . S
Co84 O97 2.244 . S
O85 Co84 2.216 . S
O85 C92 1.247 . S
O86 Co84 2.091 . S
O86 C92 1.261 . S
C87 O96 1.247 . S
C87 O97 1.272 . S
O88 Co84 2.004 . S
O88 C93 1.259 . S
Co89 O90 2.061 . S
Co89 O95 2.052 . S
Co89 O97 2.135 . S
O90 Co89 2.061 . S
O90 C93 1.235 . S
C91 O94 1.238 . S
C91 O95 1.241 . S
C92 O85 1.247 . S
C92 O86 1.261 . S
C93 O88 1.259 . S
C93 O90 1.235 . S
O94 Co84 2.021 . S
O94 C91 1.238 . S
O95 Co89 2.052 . S
O95 C91 1.241 . S
O96 Co84 2.137 . S
O96 C87 1.247 . S
O97 Co84 2.244 . S
O97 C87 1.272 . S
O97 Co89 2.135 . S
Co98 O99 2.216 1_655 S
Co98 O100 2.091 1_655 S
Co98 O102 2.004 . S
Co98 O108 2.021 . S
Co98 O110 2.137 1_655 S
Co98 O111 2.244 . S
O99 Co98 2.216 1_455 S
O99 C106 1.247 . S
O100 Co98 2.091 1_455 S
O100 C106 1.261 . S
C101 O110 1.247 . S
C101 O111 1.272 1_455 S
O102 Co98 2.004 . S
O102 C107 1.259 . S
Co103 O104 2.061 . S
Co103 O109 2.052 . S
Co103 O111 2.135 . S
O104 Co103 2.061 . S
O104 C107 1.235 . S
C105 O108 1.238 . S
C105 O109 1.241 . S
C106 O99 1.247 . S
C106 O100 1.261 . S
C107 O102 1.259 . S
C107 O104 1.235 . S
O108 Co98 2.021 . S
O108 C105 1.238 . S
O109 Co103 2.052 . S
O109 C105 1.241 . S
O110 Co98 2.137 1_455 S
O110 C101 1.247 . S
O111 Co98 2.244 . S
O111 C101 1.272 1_655 S
O111 Co103 2.135 . S
Co112 O113 2.216 . S
Co112 O114 2.091 . S
Co112 O116 2.004 . S
Co112 O122 2.021 . S
Co112 O124 2.137 . S
Co112 O125 2.244 . S
O113 Co112 2.216 . S
O113 C120 1.247 . S
O114 Co112 2.091 . S
O114 C120 1.261 . S
C115 O124 1.247 . S
C115 O125 1.272 . S
O116 Co112 2.004 . S
O116 C121 1.259 . S
Co117 O118 2.061 . S
Co117 O123 2.052 . S
Co117 O125 2.135 . S
O118 Co117 2.061 . S
O118 C121 1.235 . S
C119 O122 1.238 . S
C119 O123 1.241 . S
C120 O113 1.247 . S
C120 O114 1.261 . S
C121 O116 1.259 . S
C121 O118 1.235 . S
O122 Co112 2.021 . S
O122 C119 1.238 . S
O123 Co117 2.052 . S
O123 C119 1.241 . S
O124 Co112 2.137 . S
O124 C115 1.247 . S
O125 Co112 2.244 . S
O125 C115 1.272 . S
O125 Co117 2.135 . S
Co126 O127 2.216 . S
Co126 O128 2.091 . S
Co126 O130 2.004 . S
Co126 O136 2.021 . S
Co126 O138 2.137 . S
Co126 O139 2.244 . S
O127 Co126 2.216 . S
O127 C134 1.247 . S
O128 Co126 2.091 . S
O128 C134 1.261 . S
C129 O138 1.247 . S
C129 O139 1.272 . S
O130 Co126 2.004 . S
O130 C135 1.259 . S
Co131 O132 2.061 . S
Co131 O137 2.052 . S
Co131 O139 2.135 . S
O132 Co131 2.061 . S
O132 C135 1.235 . S
C133 O136 1.238 . S
C133 O137 1.241 . S
C134 O127 1.247 . S
C134 O128 1.261 . S
C135 O130 1.259 . S
C135 O132 1.235 . S
O136 Co126 2.021 . S
O136 C133 1.238 . S
O137 Co131 2.052 . S
O137 C133 1.241 . S
O138 Co126 2.137 . S
O138 C129 1.247 . S
O139 Co126 2.244 . S
O139 C129 1.272 . S
O139 Co131 2.135 . S
Co140 O141 2.216 . S
Co140 O142 2.091 . S
Co140 O144 2.004 . S
Co140 O150 2.021 . S
Co140 O152 2.137 . S
Co140 O153 2.244 . S
O141 Co140 2.216 . S
O141 C148 1.247 . S
O142 Co140 2.091 . S
O142 C148 1.261 . S
C143 O152 1.247 . S
C143 O153 1.272 . S
O144 Co140 2.004 . S
O144 C149 1.259 . S
Co145 O146 2.061 . S
Co145 O151 2.052 . S
Co145 O153 2.135 . S
O146 Co145 2.061 . S
O146 C149 1.235 . S
C147 O150 1.238 . S
C147 O151 1.241 . S
C148 O141 1.247 . S
C148 O142 1.261 . S
C149 O144 1.259 . S
C149 O146 1.235 . S
O150 Co140 2.021 . S
O150 C147 1.238 . S
O151 Co145 2.052 . S
O151 C147 1.241 . S
O152 Co140 2.137 . S
O152 C143 1.247 . S
O153 Co140 2.244 . S
O153 C143 1.272 . S
O153 Co145 2.135 . S
Co154 O155 2.216 1_554 S
Co154 O156 2.091 1_554 S
Co154 O158 2.004 . S
Co154 O164 2.021 . S
Co154 O166 2.137 1_554 S
Co154 O167 2.244 . S
O155 Co154 2.216 1_556 S
O155 C162 1.247 . S
O156 Co154 2.091 1_556 S
O156 C162 1.261 . S
C157 O166 1.247 . S
C157 O167 1.272 1_556 S
O158 Co154 2.004 . S
O158 C163 1.259 . S
Co159 O160 2.061 . S
Co159 O165 2.052 . S
Co159 O167 2.135 . S
O160 Co159 2.061 . S
O160 C163 1.235 . S
C161 O164 1.238 . S
C161 O165 1.241 . S
C162 O155 1.247 . S
C162 O156 1.261 . S
C163 O158 1.259 . S
C163 O160 1.235 . S
O164 Co154 2.021 . S
O164 C161 1.238 . S
O165 Co159 2.052 . S
O165 C161 1.241 . S
O166 Co154 2.137 1_556 S
O166 C157 1.247 . S
O167 Co154 2.244 . S
O167 C157 1.272 1_554 S
O167 Co159 2.135 . S
Co168 O169 2.216 . S
Co168 O170 2.091 . S
Co168 O172 2.004 . S
Co168 O178 2.021 . S
Co168 O180 2.137 . S
Co168 O181 2.244 . S
O169 Co168 2.216 . S
O169 C176 1.247 . S
O170 Co168 2.091 . S
O170 C176 1.261 . S
C171 O180 1.247 . S
C171 O181 1.272 . S
O172 Co168 2.004 . S
O172 C177 1.259 . S
Co173 O174 2.061 . S
Co173 O179 2.052 . S
Co173 O181 2.135 . S
O174 Co173 2.061 . S
O174 C177 1.235 . S
C175 O178 1.238 . S
C175 O179 1.241 . S
C176 O169 1.247 . S
C176 O170 1.261 . S
C177 O172 1.259 . S
C177 O174 1.235 . S
O178 Co168 2.021 . S
O178 C175 1.238 . S
O179 Co173 2.052 . S
O179 C175 1.241 . S
O180 Co168 2.137 . S
O180 C171 1.247 . S
O181 Co168 2.244 . S
O181 C171 1.272 . S
O181 Co173 2.135 . S
Co182 O183 2.216 . S
Co182 O184 2.091 . S
Co182 O186 2.004 . S
Co182 O192 2.021 . S
Co182 O194 2.137 . S
Co182 O195 2.244 . S
O183 Co182 2.216 . S
O183 C190 1.247 . S
O184 Co182 2.091 . S
O184 C190 1.261 . S
C185 O194 1.247 . S
C185 O195 1.272 . S
O186 Co182 2.004 . S
O186 C191 1.259 . S
Co187 O188 2.061 . S
Co187 O193 2.052 . S
Co187 O195 2.135 . S
O188 Co187 2.061 . S
O188 C191 1.235 . S
C189 O192 1.238 . S
C189 O193 1.241 . S
C190 O183 1.247 . S
C190 O184 1.261 . S
C191 O186 1.259 . S
C191 O188 1.235 . S
O192 Co182 2.021 . S
O192 C189 1.238 . S
O193 Co187 2.052 . S
O193 C189 1.241 . S
O194 Co182 2.137 . S
O194 C185 1.247 . S
O195 Co182 2.244 . S
O195 C185 1.272 . S
O195 Co187 2.135 . S
Co196 O197 2.216 . S
Co196 O198 2.091 . S
Co196 O200 2.004 . S
Co196 O206 2.021 . S
Co196 O208 2.137 . S
Co196 O209 2.244 . S
O197 Co196 2.216 . S
O197 C204 1.247 . S
O198 Co196 2.091 . S
O198 C204 1.261 . S
C199 O208 1.247 . S
C199 O209 1.272 . S
O200 Co196 2.004 . S
O200 C205 1.259 . S
Co201 O202 2.061 . S
Co201 O207 2.052 . S
Co201 O209 2.135 . S
O202 Co201 2.061 . S
O202 C205 1.235 . S
C203 O206 1.238 . S
C203 O207 1.241 . S
C204 O197 1.247 . S
C204 O198 1.261 . S
C205 O200 1.259 . S
C205 O202 1.235 . S
O206 Co196 2.021 . S
O206 C203 1.238 . S
O207 Co201 2.052 . S
O207 C203 1.241 . S
O208 Co196 2.137 . S
O208 C199 1.247 . S
O209 Co196 2.244 . S
O209 C199 1.272 . S
O209 Co201 2.135 . S
Co210 O211 2.216 1_556 S
Co210 O212 2.091 1_556 S
Co210 O214 2.004 . S
Co210 O220 2.021 . S
Co210 O222 2.137 1_556 S
Co210 O223 2.244 . S
O211 Co210 2.216 1_554 S
O211 C218 1.247 . S
O212 Co210 2.091 1_554 S
O212 C218 1.261 . S
C213 O222 1.247 . S
C213 O223 1.272 1_554 S
O214 Co210 2.004 . S
O214 C219 1.259 . S
Co215 O216 2.061 . S
Co215 O221 2.052 . S
Co215 O223 2.135 . S
O216 Co215 2.061 . S
O216 C219 1.235 . S
C217 O220 1.238 . S
C217 O221 1.241 . S
C218 O211 1.247 . S
C218 O212 1.261 . S
C219 O214 1.259 . S
C219 O216 1.235 . S
O220 Co210 2.021 . S
O220 C217 1.238 . S
O221 Co215 2.052 . S
O221 C217 1.241 . S
O222 Co210 2.137 1_554 S
O222 C213 1.247 . S
O223 Co210 2.244 . S
O223 C213 1.272 1_556 S
O223 Co215 2.135 . S
Co224 O225 2.216 . S
Co224 O226 2.091 . S
Co224 O228 2.004 . S
Co224 O234 2.021 . S
Co224 O236 2.137 . S
Co224 O237 2.244 . S
O225 Co224 2.216 . S
O225 C232 1.247 . S
O226 Co224 2.091 . S
O226 C232 1.261 . S
C227 O236 1.247 . S
C227 O237 1.272 . S
O228 Co224 2.004 . S
O228 C233 1.259 . S
Co229 O230 2.061 . S
Co229 O235 2.052 . S
Co229 O237 2.135 . S
O230 Co229 2.061 . S
O230 C233 1.235 . S
C231 O234 1.238 . S
C231 O235 1.241 . S
C232 O225 1.247 . S
C232 O226 1.261 . S
C233 O228 1.259 . S
C233 O230 1.235 . S
O234 Co224 2.021 . S
O234 C231 1.238 . S
O235 Co229 2.052 . S
O235 C231 1.241 . S
O236 Co224 2.137 . S
O236 C227 1.247 . S
O237 Co224 2.244 . S
O237 C227 1.272 . S
O237 Co229 2.135 . S
Co238 O239 2.216 . S
Co238 O240 2.091 . S
Co238 O242 2.004 . S
Co238 O248 2.021 . S
Co238 O250 2.137 . S
Co238 O251 2.244 . S
O239 Co238 2.216 . S
O239 C246 1.247 . S
O240 Co238 2.091 . S
O240 C246 1.261 . S
C241 O250 1.247 . S
C241 O251 1.272 . S
O242 Co238 2.004 . S
O242 C247 1.259 . S
Co243 O244 2.061 . S
Co243 O249 2.052 . S
Co243 O251 2.135 . S
O244 Co243 2.061 . S
O244 C247 1.235 . S
C245 O248 1.238 . S
C245 O249 1.241 . S
C246 O239 1.247 . S
C246 O240 1.261 . S
C247 O242 1.259 . S
C247 O244 1.235 . S
O248 Co238 2.021 . S
O248 C245 1.238 . S
O249 Co243 2.052 . S
O249 C245 1.241 . S
O250 Co238 2.137 . S
O250 C241 1.247 . S
O251 Co238 2.244 . S
O251 C241 1.272 . S
O251 Co243 2.135 . S
Co252 O253 2.216 . S
Co252 O254 2.091 . S
Co252 O256 2.004 . S
Co252 O262 2.021 . S
Co252 O264 2.137 . S
Co252 O265 2.244 . S
O253 Co252 2.216 . S
O253 C260 1.247 . S
O254 Co252 2.091 . S
O254 C260 1.261 . S
C255 O264 1.247 . S
C255 O265 1.272 . S
O256 Co252 2.004 . S
O256 C261 1.259 . S
Co257 O258 2.061 . S
Co257 O263 2.052 . S
Co257 O265 2.135 . S
O258 Co257 2.061 . S
O258 C261 1.235 . S
C259 O262 1.238 . S
C259 O263 1.241 . S
C260 O253 1.247 . S
C260 O254 1.261 . S
C261 O256 1.259 . S
C261 O258 1.235 . S
O262 Co252 2.021 . S
O262 C259 1.238 . S
O263 Co257 2.052 . S
O263 C259 1.241 . S
O264 Co252 2.137 . S
O264 C255 1.247 . S
O265 Co252 2.244 . S
O265 C255 1.272 . S
O265 Co257 2.135 . S
Co266 O267 2.216 . S
Co266 O268 2.091 . S
Co266 O270 2.004 . S
Co266 O276 2.021 . S
Co266 O278 2.137 . S
Co266 O279 2.244 . S
O267 Co266 2.216 . S
O267 C274 1.247 . S
O268 Co266 2.091 . S
O268 C274 1.261 . S
C269 O278 1.247 . S
C269 O279 1.272 . S
O270 Co266 2.004 . S
O270 C275 1.259 . S
Co271 O272 2.061 . S
Co271 O277 2.052 . S
Co271 O279 2.135 . S
O272 Co271 2.061 . S
O272 C275 1.235 . S
C273 O276 1.238 . S
C273 O277 1.241 . S
C274 O267 1.247 . S
C274 O268 1.261 . S
C275 O270 1.259 . S
C275 O272 1.235 . S
O276 Co266 2.021 . S
O276 C273 1.238 . S
O277 Co271 2.052 . S
O277 C273 1.241 . S
O278 Co266 2.137 . S
O278 C269 1.247 . S
O279 Co266 2.244 . S
O279 C269 1.272 . S
O279 Co271 2.135 . S
Co280 O281 2.216 1_565 S
Co280 O282 2.091 1_565 S
Co280 O284 2.004 . S
Co280 O290 2.021 . S
Co280 O292 2.137 1_565 S
Co280 O293 2.244 . S
O281 Co280 2.216 1_545 S
O281 C288 1.247 . S
O282 Co280 2.091 1_545 S
O282 C288 1.261 . S
C283 O292 1.247 . S
C283 O293 1.272 1_545 S
O284 Co280 2.004 . S
O284 C289 1.259 . S
Co285 O286 2.061 . S
Co285 O291 2.052 . S
Co285 O293 2.135 . S
O286 Co285 2.061 . S
O286 C289 1.235 . S
C287 O290 1.238 . S
C287 O291 1.241 . S
C288 O281 1.247 . S
C288 O282 1.261 . S
C289 O284 1.259 . S
C289 O286 1.235 . S
O290 Co280 2.021 . S
O290 C287 1.238 . S
O291 Co285 2.052 . S
O291 C287 1.241 . S
O292 Co280 2.137 1_545 S
O292 C283 1.247 . S
O293 Co280 2.244 . S
O293 C283 1.272 1_565 S
O293 Co285 2.135 . S
Co294 O295 2.216 . S
Co294 O296 2.091 . S
Co294 O298 2.004 . S
Co294 O304 2.021 . S
Co294 O306 2.137 . S
Co294 O307 2.244 . S
O295 Co294 2.216 . S
O295 C302 1.247 . S
O296 Co294 2.091 . S
O296 C302 1.261 . S
C297 O306 1.247 . S
C297 O307 1.272 . S
O298 Co294 2.004 . S
O298 C303 1.259 . S
Co299 O300 2.061 . S
Co299 O305 2.052 . S
Co299 O307 2.135 . S
O300 Co299 2.061 . S
O300 C303 1.235 . S
C301 O304 1.238 . S
C301 O305 1.241 . S
C302 O295 1.247 . S
C302 O296 1.261 . S
C303 O298 1.259 . S
C303 O300 1.235 . S
O304 Co294 2.021 . S
O304 C301 1.238 . S
O305 Co299 2.052 . S
O305 C301 1.241 . S
O306 Co294 2.137 . S
O306 C297 1.247 . S
O307 Co294 2.244 . S
O307 C297 1.272 . S
O307 Co299 2.135 . S
Co308 O309 2.216 . S
Co308 O310 2.091 . S
Co308 O312 2.004 . S
Co308 O318 2.021 . S
Co308 O320 2.137 . S
Co308 O321 2.244 . S
O309 Co308 2.216 . S
O309 C316 1.247 . S
O310 Co308 2.091 . S
O310 C316 1.261 . S
C311 O320 1.247 . S
C311 O321 1.272 . S
O312 Co308 2.004 . S
O312 C317 1.259 . S
Co313 O314 2.061 . S
Co313 O319 2.052 . S
Co313 O321 2.135 . S
O314 Co313 2.061 . S
O314 C317 1.235 . S
C315 O318 1.238 . S
C315 O319 1.241 . S
C316 O309 1.247 . S
C316 O310 1.261 . S
C317 O312 1.259 . S
C317 O314 1.235 . S
O318 Co308 2.021 . S
O318 C315 1.238 . S
O319 Co313 2.052 . S
O319 C315 1.241 . S
O320 Co308 2.137 . S
O320 C311 1.247 . S
O321 Co308 2.244 . S
O321 C311 1.272 . S
O321 Co313 2.135 . S
Co322 O323 2.216 . S
Co322 O324 2.091 . S
Co322 O326 2.004 . S
Co322 O332 2.021 . S
Co322 O334 2.137 . S
Co322 O335 2.244 . S
O323 Co322 2.216 . S
O323 C330 1.247 . S
O324 Co322 2.091 . S
O324 C330 1.261 . S
C325 O334 1.247 . S
C325 O335 1.272 . S
O326 Co322 2.004 . S
O326 C331 1.259 . S
Co327 O328 2.061 . S
Co327 O333 2.052 . S
Co327 O335 2.135 . S
O328 Co327 2.061 . S
O328 C331 1.235 . S
C329 O332 1.238 . S
C329 O333 1.241 . S
C330 O323 1.247 . S
C330 O324 1.261 . S
C331 O326 1.259 . S
C331 O328 1.235 . S
O332 Co322 2.021 . S
O332 C329 1.238 . S
O333 Co327 2.052 . S
O333 C329 1.241 . S
O334 Co322 2.137 . S
O334 C325 1.247 . S
O335 Co322 2.244 . S
O335 C325 1.272 . S
O335 Co327 2.135 . S
Co336 O337 2.216 . S
Co336 O338 2.091 . S
Co336 O340 2.004 . S
Co336 O346 2.021 . S
Co336 O348 2.137 . S
Co336 O349 2.244 . S
O337 Co336 2.216 . S
O337 C344 1.247 . S
O338 Co336 2.091 . S
O338 C344 1.261 . S
C339 O348 1.247 . S
C339 O349 1.272 . S
O340 Co336 2.004 . S
O340 C345 1.259 . S
Co341 O342 2.061 . S
Co341 O347 2.052 . S
Co341 O349 2.135 . S
O342 Co341 2.061 . S
O342 C345 1.235 . S
C343 O346 1.238 . S
C343 O347 1.241 . S
C344 O337 1.247 . S
C344 O338 1.261 . S
C345 O340 1.259 . S
C345 O342 1.235 . S
O346 Co336 2.021 . S
O346 C343 1.238 . S
O347 Co341 2.052 . S
O347 C343 1.241 . S
O348 Co336 2.137 . S
O348 C339 1.247 . S
O349 Co336 2.244 . S
O349 C339 1.272 . S
O349 Co341 2.135 . S
Co350 O351 2.216 . S
Co350 O352 2.091 . S
Co350 O354 2.004 . S
Co350 O360 2.021 . S
Co350 O362 2.137 . S
Co350 O363 2.244 . S
O351 Co350 2.216 . S
O351 C358 1.247 . S
O352 Co350 2.091 . S
O352 C358 1.261 . S
C353 O362 1.247 . S
C353 O363 1.272 . S
O354 Co350 2.004 . S
O354 C359 1.259 . S
Co355 O356 2.061 . S
Co355 O361 2.052 . S
Co355 O363 2.135 . S
O356 Co355 2.061 . S
O356 C359 1.235 . S
C357 O360 1.238 . S
C357 O361 1.241 . S
C358 O351 1.247 . S
C358 O352 1.261 . S
C359 O354 1.259 . S
C359 O356 1.235 . S
O360 Co350 2.021 . S
O360 C357 1.238 . S
O361 Co355 2.052 . S
O361 C357 1.241 . S
O362 Co350 2.137 . S
O362 C353 1.247 . S
O363 Co350 2.244 . S
O363 C353 1.272 . S
O363 Co355 2.135 . S
Co364 O365 2.216 . S
Co364 O366 2.091 . S
Co364 O368 2.004 . S
Co364 O374 2.021 . S
Co364 O376 2.137 . S
Co364 O377 2.244 . S
O365 Co364 2.216 . S
O365 C372 1.247 . S
O366 Co364 2.091 . S
O366 C372 1.261 . S
C367 O376 1.247 . S
C367 O377 1.272 . S
O368 Co364 2.004 . S
O368 C373 1.259 . S
Co369 O370 2.061 . S
Co369 O375 2.052 . S
Co369 O377 2.135 . S
O370 Co369 2.061 . S
O370 C373 1.235 . S
C371 O374 1.238 . S
C371 O375 1.241 . S
C372 O365 1.247 . S
C372 O366 1.261 . S
C373 O368 1.259 . S
C373 O370 1.235 . S
O374 Co364 2.021 . S
O374 C371 1.238 . S
O375 Co369 2.052 . S
O375 C371 1.241 . S
O376 Co364 2.137 . S
O376 C367 1.247 . S
O377 Co364 2.244 . S
O377 C367 1.272 . S
O377 Co369 2.135 . S
Co378 O379 2.216 1_455 S
Co378 O380 2.091 1_455 S
Co378 O382 2.004 . S
Co378 O388 2.021 . S
Co378 O390 2.137 1_455 S
Co378 O391 2.244 . S
O379 Co378 2.216 1_655 S
O379 C386 1.247 . S
O380 Co378 2.091 1_655 S
O380 C386 1.261 . S
C381 O390 1.247 . S
C381 O391 1.272 1_655 S
O382 Co378 2.004 . S
O382 C387 1.259 . S
Co383 O384 2.061 . S
Co383 O389 2.052 . S
Co383 O391 2.135 . S
O384 Co383 2.061 . S
O384 C387 1.235 . S
C385 O388 1.238 . S
C385 O389 1.241 . S
C386 O379 1.247 . S
C386 O380 1.261 . S
C387 O382 1.259 . S
C387 O384 1.235 . S
O388 Co378 2.021 . S
O388 C385 1.238 . S
O389 Co383 2.052 . S
O389 C385 1.241 . S
O390 Co378 2.137 1_655 S
O390 C381 1.247 . S
O391 Co378 2.244 . S
O391 C381 1.272 1_455 S
O391 Co383 2.135 . S
Co392 O393 2.216 . S
Co392 O394 2.091 . S
Co392 O396 2.004 . S
Co392 O402 2.021 . S
Co392 O404 2.137 . S
Co392 O405 2.244 . S
O393 Co392 2.216 . S
O393 C400 1.247 . S
O394 Co392 2.091 . S
O394 C400 1.261 . S
C395 O404 1.247 . S
C395 O405 1.272 . S
O396 Co392 2.004 . S
O396 C401 1.259 . S
Co397 O398 2.061 . S
Co397 O403 2.052 . S
Co397 O405 2.135 . S
O398 Co397 2.061 . S
O398 C401 1.235 . S
C399 O402 1.238 . S
C399 O403 1.241 . S
C400 O393 1.247 . S
C400 O394 1.261 . S
C401 O396 1.259 . S
C401 O398 1.235 . S
O402 Co392 2.021 . S
O402 C399 1.238 . S
O403 Co397 2.052 . S
O403 C399 1.241 . S
O404 Co392 2.137 . S
O404 C395 1.247 . S
O405 Co392 2.244 . S
O405 C395 1.272 . S
O405 Co397 2.135 . S
Co406 O407 2.216 1_455 S
Co406 O408 2.091 1_455 S
Co406 O410 2.004 . S
Co406 O416 2.021 . S
Co406 O418 2.137 1_455 S
Co406 O419 2.244 . S
O407 Co406 2.216 1_655 S
O407 C414 1.247 . S
O408 Co406 2.091 1_655 S
O408 C414 1.261 . S
C409 O418 1.247 . S
C409 O419 1.272 1_655 S
O410 Co406 2.004 . S
O410 C415 1.259 . S
Co411 O412 2.061 . S
Co411 O417 2.052 . S
Co411 O419 2.135 . S
O412 Co411 2.061 . S
O412 C415 1.235 . S
C413 O416 1.238 . S
C413 O417 1.241 . S
C414 O407 1.247 . S
C414 O408 1.261 . S
C415 O410 1.259 . S
C415 O412 1.235 . S
O416 Co406 2.021 . S
O416 C413 1.238 . S
O417 Co411 2.052 . S
O417 C413 1.241 . S
O418 Co406 2.137 1_655 S
O418 C409 1.247 . S
O419 Co406 2.244 . S
O419 C409 1.272 1_455 S
O419 Co411 2.135 . S
Co420 O421 2.216 . S
Co420 O422 2.091 . S
Co420 O424 2.004 . S
Co420 O430 2.021 . S
Co420 O432 2.137 . S
Co420 O433 2.244 . S
O421 Co420 2.216 . S
O421 C428 1.247 . S
O422 Co420 2.091 . S
O422 C428 1.261 . S
C423 O432 1.247 . S
C423 O433 1.272 . S
O424 Co420 2.004 . S
O424 C429 1.259 . S
Co425 O426 2.061 . S
Co425 O431 2.052 . S
Co425 O433 2.135 . S
O426 Co425 2.061 . S
O426 C429 1.235 . S
C427 O430 1.238 . S
C427 O431 1.241 . S
C428 O421 1.247 . S
C428 O422 1.261 . S
C429 O424 1.259 . S
C429 O426 1.235 . S
O430 Co420 2.021 . S
O430 C427 1.238 . S
O431 Co425 2.052 . S
O431 C427 1.241 . S
O432 Co420 2.137 . S
O432 C423 1.247 . S
O433 Co420 2.244 . S
O433 C423 1.272 . S
O433 Co425 2.135 . S
Co434 O435 2.216 . S
Co434 O436 2.091 . S
Co434 O438 2.004 . S
Co434 O444 2.021 . S
Co434 O446 2.137 . S
Co434 O447 2.244 . S
O435 Co434 2.216 . S
O435 C442 1.247 . S
O436 Co434 2.091 . S
O436 C442 1.261 . S
C437 O446 1.247 . S
C437 O447 1.272 . S
O438 Co434 2.004 . S
O438 C443 1.259 . S
Co439 O440 2.061 . S
Co439 O445 2.052 . S
Co439 O447 2.135 . S
O440 Co439 2.061 . S
O440 C443 1.235 . S
C441 O444 1.238 . S
C441 O445 1.241 . S
C442 O435 1.247 . S
C442 O436 1.261 . S
C443 O438 1.259 . S
C443 O440 1.235 . S
O444 Co434 2.021 . S
O444 C441 1.238 . S
O445 Co439 2.052 . S
O445 C441 1.241 . S
O446 Co434 2.137 . S
O446 C437 1.247 . S
O447 Co434 2.244 . S
O447 C437 1.272 . S
O447 Co439 2.135 . S
Co448 O449 2.216 . S
Co448 O450 2.091 . S
Co448 O452 2.004 . S
Co448 O458 2.021 . S
Co448 O460 2.137 . S
Co448 O461 2.244 . S
O449 Co448 2.216 . S
O449 C456 1.247 . S
O450 Co448 2.091 . S
O450 C456 1.261 . S
C451 O460 1.247 . S
C451 O461 1.272 . S
O452 Co448 2.004 . S
O452 C457 1.259 . S
Co453 O454 2.061 . S
Co453 O459 2.052 . S
Co453 O461 2.135 . S
O454 Co453 2.061 . S
O454 C457 1.235 . S
C455 O458 1.238 . S
C455 O459 1.241 . S
C456 O449 1.247 . S
C456 O450 1.261 . S
C457 O452 1.259 . S
C457 O454 1.235 . S
O458 Co448 2.021 . S
O458 C455 1.238 . S
O459 Co453 2.052 . S
O459 C455 1.241 . S
O460 Co448 2.137 . S
O460 C451 1.247 . S
O461 Co448 2.244 . S
O461 C451 1.272 . S
O461 Co453 2.135 . S
Co462 O463 2.216 1_554 S
Co462 O464 2.091 1_554 S
Co462 O466 2.004 . S
Co462 O472 2.021 . S
Co462 O474 2.137 1_554 S
Co462 O475 2.244 . S
O463 Co462 2.216 1_556 S
O463 C470 1.247 . S
O464 Co462 2.091 1_556 S
O464 C470 1.261 . S
C465 O474 1.247 . S
C465 O475 1.272 1_556 S
O466 Co462 2.004 . S
O466 C471 1.259 . S
Co467 O468 2.061 . S
Co467 O473 2.052 . S
Co467 O475 2.135 . S
O468 Co467 2.061 . S
O468 C471 1.235 . S
C469 O472 1.238 . S
C469 O473 1.241 . S
C470 O463 1.247 . S
C470 O464 1.261 . S
C471 O466 1.259 . S
C471 O468 1.235 . S
O472 Co462 2.021 . S
O472 C469 1.238 . S
O473 Co467 2.052 . S
O473 C469 1.241 . S
O474 Co462 2.137 1_556 S
O474 C465 1.247 . S
O475 Co462 2.244 . S
O475 C465 1.272 1_554 S
O475 Co467 2.135 . S
Co476 O477 2.216 . S
Co476 O478 2.091 . S
Co476 O480 2.004 . S
Co476 O486 2.021 . S
Co476 O488 2.137 . S
Co476 O489 2.244 . S
O477 Co476 2.216 . S
O477 C484 1.247 . S
O478 Co476 2.091 . S
O478 C484 1.261 . S
C479 O488 1.247 . S
C479 O489 1.272 . S
O480 Co476 2.004 . S
O480 C485 1.259 . S
Co481 O482 2.061 . S
Co481 O487 2.052 . S
Co481 O489 2.135 . S
O482 Co481 2.061 . S
O482 C485 1.235 . S
C483 O486 1.238 . S
C483 O487 1.241 . S
C484 O477 1.247 . S
C484 O478 1.261 . S
C485 O480 1.259 . S
C485 O482 1.235 . S
O486 Co476 2.021 . S
O486 C483 1.238 . S
O487 Co481 2.052 . S
O487 C483 1.241 . S
O488 Co476 2.137 . S
O488 C479 1.247 . S
O489 Co476 2.244 . S
O489 C479 1.272 . S
O489 Co481 2.135 . S
Co490 O491 2.216 . S
Co490 O492 2.091 . S
Co490 O494 2.004 . S
Co490 O500 2.021 . S
Co490 O502 2.137 . S
Co490 O503 2.244 . S
O491 Co490 2.216 . S
O491 C498 1.247 . S
O492 Co490 2.091 . S
O492 C498 1.261 . S
C493 O502 1.247 . S
C493 O503 1.272 . S
O494 Co490 2.004 . S
O494 C499 1.259 . S
Co495 O496 2.061 . S
Co495 O501 2.052 . S
Co495 O503 2.135 . S
O496 Co495 2.061 . S
O496 C499 1.235 . S
C497 O500 1.238 . S
C497 O501 1.241 . S
C498 O491 1.247 . S
C498 O492 1.261 . S
C499 O494 1.259 . S
C499 O496 1.235 . S
O500 Co490 2.021 . S
O500 C497 1.238 . S
O501 Co495 2.052 . S
O501 C497 1.241 . S
O502 Co490 2.137 . S
O502 C493 1.247 . S
O503 Co490 2.244 . S
O503 C493 1.272 . S
O503 Co495 2.135 . S
Co504 O505 2.216 . S
Co504 O506 2.091 . S
Co504 O508 2.004 . S
Co504 O514 2.021 . S
Co504 O516 2.137 . S
Co504 O517 2.244 . S
O505 Co504 2.216 . S
O505 C512 1.247 . S
O506 Co504 2.091 . S
O506 C512 1.261 . S
C507 O516 1.247 . S
C507 O517 1.272 . S
O508 Co504 2.004 . S
O508 C513 1.259 . S
Co509 O510 2.061 . S
Co509 O515 2.052 . S
Co509 O517 2.135 . S
O510 Co509 2.061 . S
O510 C513 1.235 . S
C511 O514 1.238 . S
C511 O515 1.241 . S
C512 O505 1.247 . S
C512 O506 1.261 . S
C513 O508 1.259 . S
C513 O510 1.235 . S
O514 Co504 2.021 . S
O514 C511 1.238 . S
O515 Co509 2.052 . S
O515 C511 1.241 . S
O516 Co504 2.137 . S
O516 C507 1.247 . S
O517 Co504 2.244 . S
O517 C507 1.272 . S
O517 Co509 2.135 . S
Co518 O519 2.216 1_556 S
Co518 O520 2.091 1_556 S
Co518 O522 2.004 . S
Co518 O528 2.021 . S
Co518 O530 2.137 1_556 S
Co518 O531 2.244 . S
O519 Co518 2.216 1_554 S
O519 C526 1.247 . S
O520 Co518 2.091 1_554 S
O520 C526 1.261 . S
C521 O530 1.247 . S
C521 O531 1.272 1_554 S
O522 Co518 2.004 . S
O522 C527 1.259 . S
Co523 O524 2.061 . S
Co523 O529 2.052 . S
Co523 O531 2.135 . S
O524 Co523 2.061 . S
O524 C527 1.235 . S
C525 O528 1.238 . S
C525 O529 1.241 . S
C526 O519 1.247 . S
C526 O520 1.261 . S
C527 O522 1.259 . S
C527 O524 1.235 . S
O528 Co518 2.021 . S
O528 C525 1.238 . S
O529 Co523 2.052 . S
O529 C525 1.241 . S
O530 Co518 2.137 1_554 S
O530 C521 1.247 . S
O531 Co518 2.244 . S
O531 C521 1.272 1_556 S
O531 Co523 2.135 . S
Co532 O533 2.216 . S
Co532 O534 2.091 . S
Co532 O536 2.004 . S
Co532 O542 2.021 . S
Co532 O544 2.137 . S
Co532 O545 2.244 . S
O533 Co532 2.216 . S
O533 C540 1.247 . S
O534 Co532 2.091 . S
O534 C540 1.261 . S
C535 O544 1.247 . S
C535 O545 1.272 . S
O536 Co532 2.004 . S
O536 C541 1.259 . S
Co537 O538 2.061 . S
Co537 O543 2.052 . S
Co537 O545 2.135 . S
O538 Co537 2.061 . S
O538 C541 1.235 . S
C539 O542 1.238 . S
C539 O543 1.241 . S
C540 O533 1.247 . S
C540 O534 1.261 . S
C541 O536 1.259 . S
C541 O538 1.235 . S
O542 Co532 2.021 . S
O542 C539 1.238 . S
O543 Co537 2.052 . S
O543 C539 1.241 . S
O544 Co532 2.137 . S
O544 C535 1.247 . S
O545 Co532 2.244 . S
O545 C535 1.272 . S
O545 Co537 2.135 . S
Co546 O547 2.216 . S
Co546 O548 2.091 . S
Co546 O550 2.004 . S
Co546 O556 2.021 . S
Co546 O558 2.137 . S
Co546 O559 2.244 . S
O547 Co546 2.216 . S
O547 C554 1.247 . S
O548 Co546 2.091 . S
O548 C554 1.261 . S
C549 O558 1.247 . S
C549 O559 1.272 . S
O550 Co546 2.004 . S
O550 C555 1.259 . S
Co551 O552 2.061 . S
Co551 O557 2.052 . S
Co551 O559 2.135 . S
O552 Co551 2.061 . S
O552 C555 1.235 . S
C553 O556 1.238 . S
C553 O557 1.241 . S
C554 O547 1.247 . S
C554 O548 1.261 . S
C555 O550 1.259 . S
C555 O552 1.235 . S
O556 Co546 2.021 . S
O556 C553 1.238 . S
O557 Co551 2.052 . S
O557 C553 1.241 . S
O558 Co546 2.137 . S
O558 C549 1.247 . S
O559 Co546 2.244 . S
O559 C549 1.272 . S
O559 Co551 2.135 . S
Co560 O561 2.216 . S
Co560 O562 2.091 . S
Co560 O564 2.004 . S
Co560 O570 2.021 . S
Co560 O572 2.137 . S
Co560 O573 2.244 . S
O561 Co560 2.216 . S
O561 C568 1.247 . S
O562 Co560 2.091 . S
O562 C568 1.261 . S
C563 O572 1.247 . S
C563 O573 1.272 . S
O564 Co560 2.004 . S
O564 C569 1.259 . S
Co565 O566 2.061 . S
Co565 O571 2.052 . S
Co565 O573 2.135 . S
O566 Co565 2.061 . S
O566 C569 1.235 . S
C567 O570 1.238 . S
C567 O571 1.241 . S
C568 O561 1.247 . S
C568 O562 1.261 . S
C569 O564 1.259 . S
C569 O566 1.235 . S
O570 Co560 2.021 . S
O570 C567 1.238 . S
O571 Co565 2.052 . S
O571 C567 1.241 . S
O572 Co560 2.137 . S
O572 C563 1.247 . S
O573 Co560 2.244 . S
O573 C563 1.272 . S
O573 Co565 2.135 . S
Co574 O575 2.216 . S
Co574 O576 2.091 . S
Co574 O578 2.004 . S
Co574 O584 2.021 . S
Co574 O586 2.137 . S
Co574 O587 2.244 . S
O575 Co574 2.216 . S
O575 C582 1.247 . S
O576 Co574 2.091 . S
O576 C582 1.261 . S
C577 O586 1.247 . S
C577 O587 1.272 . S
O578 Co574 2.004 . S
O578 C583 1.259 . S
Co579 O580 2.061 . S
Co579 O585 2.052 . S
Co579 O587 2.135 . S
O580 Co579 2.061 . S
O580 C583 1.235 . S
C581 O584 1.238 . S
C581 O585 1.241 . S
C582 O575 1.247 . S
C582 O576 1.261 . S
C583 O578 1.259 . S
C583 O580 1.235 . S
O584 Co574 2.021 . S
O584 C581 1.238 . S
O585 Co579 2.052 . S
O585 C581 1.241 . S
O586 Co574 2.137 . S
O586 C577 1.247 . S
O587 Co574 2.244 . S
O587 C577 1.272 . S
O587 Co579 2.135 . S
Co588 O589 2.216 1_545 S
Co588 O590 2.091 1_545 S
Co588 O592 2.004 . S
Co588 O598 2.021 . S
Co588 O600 2.137 1_545 S
Co588 O601 2.244 . S
O589 Co588 2.216 1_565 S
O589 C596 1.247 . S
O590 Co588 2.091 1_565 S
O590 C596 1.261 . S
C591 O600 1.247 . S
C591 O601 1.272 1_565 S
O592 Co588 2.004 . S
O592 C597 1.259 . S
Co593 O594 2.061 . S
Co593 O599 2.052 . S
Co593 O601 2.135 . S
O594 Co593 2.061 . S
O594 C597 1.235 . S
C595 O598 1.238 . S
C595 O599 1.241 . S
C596 O589 1.247 . S
C596 O590 1.261 . S
C597 O592 1.259 . S
C597 O594 1.235 . S
O598 Co588 2.021 . S
O598 C595 1.238 . S
O599 Co593 2.052 . S
O599 C595 1.241 . S
O600 Co588 2.137 1_565 S
O600 C591 1.247 . S
O601 Co588 2.244 . S
O601 C591 1.272 1_545 S
O601 Co593 2.135 . S
Co602 O603 2.216 . S
Co602 O604 2.091 . S
Co602 O606 2.004 . S
Co602 O612 2.021 . S
Co602 O614 2.137 . S
Co602 O615 2.244 . S
O603 Co602 2.216 . S
O603 C610 1.247 . S
O604 Co602 2.091 . S
O604 C610 1.261 . S
C605 O614 1.247 . S
C605 O615 1.272 . S
O606 Co602 2.004 . S
O606 C611 1.259 . S
Co607 O608 2.061 . S
Co607 O613 2.052 . S
Co607 O615 2.135 . S
O608 Co607 2.061 . S
O608 C611 1.235 . S
C609 O612 1.238 . S
C609 O613 1.241 . S
C610 O603 1.247 . S
C610 O604 1.261 . S
C611 O606 1.259 . S
C611 O608 1.235 . S
O612 Co602 2.021 . S
O612 C609 1.238 . S
O613 Co607 2.052 . S
O613 C609 1.241 . S
O614 Co602 2.137 . S
O614 C605 1.247 . S
O615 Co602 2.244 . S
O615 C605 1.272 . S
O615 Co607 2.135 . S
Co616 O617 2.216 . S
Co616 O618 2.091 . S
Co616 O620 2.004 . S
Co616 O626 2.021 . S
Co616 O628 2.137 . S
Co616 O629 2.244 . S
O617 Co616 2.216 . S
O617 C624 1.247 . S
O618 Co616 2.091 . S
O618 C624 1.261 . S
C619 O628 1.247 . S
C619 O629 1.272 . S
O620 Co616 2.004 . S
O620 C625 1.259 . S
Co621 O622 2.061 . S
Co621 O627 2.052 . S
Co621 O629 2.135 . S
O622 Co621 2.061 . S
O622 C625 1.235 . S
C623 O626 1.238 . S
C623 O627 1.241 . S
C624 O617 1.247 . S
C624 O618 1.261 . S
C625 O620 1.259 . S
C625 O622 1.235 . S
O626 Co616 2.021 . S
O626 C623 1.238 . S
O627 Co621 2.052 . S
O627 C623 1.241 . S
O628 Co616 2.137 . S
O628 C619 1.247 . S
O629 Co616 2.244 . S
O629 C619 1.272 . S
O629 Co621 2.135 . S
Co630 O631 2.216 . S
Co630 O632 2.091 . S
Co630 O634 2.004 . S
Co630 O640 2.021 . S
Co630 O642 2.137 . S
Co630 O643 2.244 . S
O631 Co630 2.216 . S
O631 C638 1.247 . S
O632 Co630 2.091 . S
O632 C638 1.261 . S
C633 O642 1.247 . S
C633 O643 1.272 . S
O634 Co630 2.004 . S
O634 C639 1.259 . S
Co635 O636 2.061 . S
Co635 O641 2.052 . S
Co635 O643 2.135 . S
O636 Co635 2.061 . S
O636 C639 1.235 . S
C637 O640 1.238 . S
C637 O641 1.241 . S
C638 O631 1.247 . S
C638 O632 1.261 . S
C639 O634 1.259 . S
C639 O636 1.235 . S
O640 Co630 2.021 . S
O640 C637 1.238 . S
O641 Co635 2.052 . S
O641 C637 1.241 . S
O642 Co630 2.137 . S
O642 C633 1.247 . S
O643 Co630 2.244 . S
O643 C633 1.272 . S
O643 Co635 2.135 . S
Co644 O645 2.216 1_565 S
Co644 O646 2.091 1_565 S
Co644 O648 2.004 . S
Co644 O654 2.021 . S
Co644 O656 2.137 1_565 S
Co644 O657 2.244 . S
O645 Co644 2.216 1_545 S
O645 C652 1.247 . S
O646 Co644 2.091 1_545 S
O646 C652 1.261 . S
C647 O656 1.247 . S
C647 O657 1.272 1_545 S
O648 Co644 2.004 . S
O648 C653 1.259 . S
Co649 O650 2.061 . S
Co649 O655 2.052 . S
Co649 O657 2.135 . S
O650 Co649 2.061 . S
O650 C653 1.235 . S
C651 O654 1.238 . S
C651 O655 1.241 . S
C652 O645 1.247 . S
C652 O646 1.261 . S
C653 O648 1.259 . S
C653 O650 1.235 . S
O654 Co644 2.021 . S
O654 C651 1.238 . S
O655 Co649 2.052 . S
O655 C651 1.241 . S
O656 Co644 2.137 1_545 S
O656 C647 1.247 . S
O657 Co644 2.244 . S
O657 C647 1.272 1_565 S
O657 Co649 2.135 . S
Co658 O659 2.216 1_545 S
Co658 O660 2.091 1_545 S
Co658 O662 2.004 . S
Co658 O668 2.021 . S
Co658 O670 2.137 1_545 S
Co658 O671 2.244 . S
O659 Co658 2.216 1_565 S
O659 C666 1.247 . S
O660 Co658 2.091 1_565 S
O660 C666 1.261 . S
C661 O670 1.247 . S
C661 O671 1.272 1_565 S
O662 Co658 2.004 . S
O662 C667 1.259 . S
Co663 O664 2.061 . S
Co663 O669 2.052 . S
Co663 O671 2.135 . S
O664 Co663 2.061 . S
O664 C667 1.235 . S
C665 O668 1.238 . S
C665 O669 1.241 . S
C666 O659 1.247 . S
C666 O660 1.261 . S
C667 O662 1.259 . S
C667 O664 1.235 . S
O668 Co658 2.021 . S
O668 C665 1.238 . S
O669 Co663 2.052 . S
O669 C665 1.241 . S
O670 Co658 2.137 1_565 S
O670 C661 1.247 . S
O671 Co658 2.244 . S
O671 C661 1.272 1_545 S
O671 Co663 2.135 . S
H672 C678 0.930 . S
H673 C682 0.930 . S
H674 C687 0.929 . S
H675 C685 0.929 . S
H676 C680 0.929 . S
H677 C686 0.929 . S
C678 H672 0.930 . S
C678 C679 1.367 . S
C678 C686 1.378 . S
C679 C678 1.367 . S
C679 C687 1.433 . S
C680 H676 0.929 . S
C680 C682 1.378 . S
C680 C684 1.350 . S
C681 C684 1.463 . S
C681 C686 1.350 . S
C681 N689 1.427 . S
C682 H673 0.930 . S
C682 C680 1.378 . S
C682 C683 1.367 . S
C683 C682 1.367 . S
C683 C685 1.433 . S
C684 C680 1.350 . S
C684 C681 1.463 . S
C684 N688 1.427 . S
C685 H675 0.929 . S
C685 C683 1.433 . S
C685 N688 1.384 . S
C686 H677 0.929 . S
C686 C678 1.378 . S
C686 C681 1.350 . S
C687 H674 0.929 . S
C687 C679 1.433 . S
C687 N689 1.384 . S
N688 C684 1.427 . S
N688 C685 1.384 . S
N689 C681 1.427 . S
N689 C687 1.384 . S
H690 C696 0.930 . S
H691 C700 0.930 . S
H692 C705 0.929 . S
H693 C703 0.929 . S
H694 C698 0.929 . S
H695 C704 0.929 . S
C696 H690 0.930 . S
C696 C697 1.367 . S
C696 C704 1.378 . S
C697 C696 1.367 . S
C697 C705 1.433 . S
C698 H694 0.929 . S
C698 C700 1.378 . S
C698 C702 1.350 . S
C699 C702 1.463 . S
C699 C704 1.350 . S
C699 N707 1.427 . S
C700 H691 0.930 . S
C700 C698 1.378 . S
C700 C701 1.367 . S
C701 C700 1.367 . S
C701 C703 1.433 . S
C702 C698 1.350 . S
C702 C699 1.463 . S
C702 N706 1.427 . S
C703 H693 0.929 . S
C703 C701 1.433 . S
C703 N706 1.384 . S
C704 H695 0.929 . S
C704 C696 1.378 . S
C704 C699 1.350 . S
C705 H692 0.929 . S
C705 C697 1.433 . S
C705 N707 1.384 . S
N706 C702 1.427 . S
N706 C703 1.384 . S
N707 C699 1.427 . S
N707 C705 1.384 . S
H708 C714 0.930 . S
H709 C718 0.930 . S
H710 C723 0.929 . S
H711 C721 0.929 . S
H712 C716 0.929 . S
H713 C722 0.929 . S
C714 H708 0.930 . S
C714 C715 1.367 . S
C714 C722 1.378 . S
C715 C714 1.367 . S
C715 C723 1.433 . S
C716 H712 0.929 . S
C716 C718 1.378 . S
C716 C720 1.350 . S
C717 C720 1.463 . S
C717 C722 1.350 . S
C717 N725 1.427 . S
C718 H709 0.930 . S
C718 C716 1.378 . S
C718 C719 1.367 . S
C719 C718 1.367 . S
C719 C721 1.433 . S
C720 C716 1.350 . S
C720 C717 1.463 . S
C720 N724 1.427 . S
C721 H711 0.929 . S
C721 C719 1.433 . S
C721 N724 1.384 . S
C722 H713 0.929 . S
C722 C714 1.378 . S
C722 C717 1.350 . S
C723 H710 0.929 . S
C723 C715 1.433 . S
C723 N725 1.384 . S
N724 C720 1.427 . S
N724 C721 1.384 . S
N725 C717 1.427 . S
N725 C723 1.384 . S
H726 C732 0.930 . S
H727 C736 0.930 . S
H728 C741 0.929 . S
H729 C739 0.929 . S
H730 C734 0.929 . S
H731 C740 0.929 . S
C732 H726 0.930 . S
C732 C733 1.367 . S
C732 C740 1.378 . S
C733 C732 1.367 . S
C733 C741 1.433 . S
C734 H730 0.929 . S
C734 C736 1.378 . S
C734 C738 1.350 . S
C735 C738 1.463 . S
C735 C740 1.350 . S
C735 N743 1.427 . S
C736 H727 0.930 . S
C736 C734 1.378 . S
C736 C737 1.367 . S
C737 C736 1.367 . S
C737 C739 1.433 . S
C738 C734 1.350 . S
C738 C735 1.463 . S
C738 N742 1.427 . S
C739 H729 0.929 . S
C739 C737 1.433 . S
C739 N742 1.384 . S
C740 H731 0.929 . S
C740 C732 1.378 . S
C740 C735 1.350 . S
C741 H728 0.929 . S
C741 C733 1.433 . S
C741 N743 1.384 . S
N742 C738 1.427 . S
N742 C739 1.384 . S
N743 C735 1.427 . S
N743 C741 1.384 . S
H744 C750 0.930 . S
H745 C754 0.930 . S
H746 C759 0.929 . S
H747 C757 0.929 . S
H748 C752 0.929 . S
H749 C758 0.929 . S
C750 H744 0.930 . S
C750 C751 1.367 . S
C750 C758 1.378 . S
C751 C750 1.367 . S
C751 C759 1.433 . S
C752 H748 0.929 . S
C752 C754 1.378 . S
C752 C756 1.350 . S
C753 C756 1.463 . S
C753 C758 1.350 . S
C753 N761 1.427 . S
C754 H745 0.930 . S
C754 C752 1.378 . S
C754 C755 1.367 . S
C755 C754 1.367 . S
C755 C757 1.433 . S
C756 C752 1.350 . S
C756 C753 1.463 . S
C756 N760 1.427 . S
C757 H747 0.929 . S
C757 C755 1.433 . S
C757 N760 1.384 . S
C758 H749 0.929 . S
C758 C750 1.378 . S
C758 C753 1.350 . S
C759 H746 0.929 . S
C759 C751 1.433 . S
C759 N761 1.384 . S
N760 C756 1.427 . S
N760 C757 1.384 . S
N761 C753 1.427 . S
N761 C759 1.384 . S
H762 C768 0.930 . S
H763 C772 0.930 . S
H764 C777 0.929 . S
H765 C775 0.929 . S
H766 C770 0.929 . S
H767 C776 0.929 . S
C768 H762 0.930 . S
C768 C769 1.367 . S
C768 C776 1.378 . S
C769 C768 1.367 . S
C769 C777 1.433 . S
C770 H766 0.929 . S
C770 C772 1.378 . S
C770 C774 1.350 . S
C771 C774 1.463 . S
C771 C776 1.350 . S
C771 N779 1.427 . S
C772 H763 0.930 . S
C772 C770 1.378 . S
C772 C773 1.367 . S
C773 C772 1.367 . S
C773 C775 1.433 . S
C774 C770 1.350 . S
C774 C771 1.463 . S
C774 N778 1.427 . S
C775 H765 0.929 . S
C775 C773 1.433 . S
C775 N778 1.384 . S
C776 H767 0.929 . S
C776 C768 1.378 . S
C776 C771 1.350 . S
C777 H764 0.929 . S
C777 C769 1.433 . S
C777 N779 1.384 . S
N778 C774 1.427 . S
N778 C775 1.384 . S
N779 C771 1.427 . S
N779 C777 1.384 . S
H780 C786 0.930 . S
H781 C790 0.930 . S
H782 C795 0.929 . S
H783 C793 0.929 . S
H784 C788 0.929 . S
H785 C794 0.929 . S
C786 H780 0.930 . S
C786 C787 1.367 . S
C786 C794 1.378 . S
C787 C786 1.367 . S
C787 C795 1.433 . S
C788 H784 0.929 . S
C788 C790 1.378 . S
C788 C792 1.350 . S
C789 C792 1.463 . S
C789 C794 1.350 . S
C789 N797 1.427 . S
C790 H781 0.930 . S
C790 C788 1.378 . S
C790 C791 1.367 . S
C791 C790 1.367 . S
C791 C793 1.433 . S
C792 C788 1.350 . S
C792 C789 1.463 . S
C792 N796 1.427 . S
C793 H783 0.929 . S
C793 C791 1.433 . S
C793 N796 1.384 . S
C794 H785 0.929 . S
C794 C786 1.378 . S
C794 C789 1.350 . S
C795 H782 0.929 . S
C795 C787 1.433 . S
C795 N797 1.384 . S
N796 C792 1.427 . S
N796 C793 1.384 . S
N797 C789 1.427 . S
N797 C795 1.384 . S
H798 C804 0.930 . S
H799 C808 0.930 . S
H800 C813 0.929 . S
H801 C811 0.929 . S
H802 C806 0.929 . S
H803 C812 0.929 . S
C804 H798 0.930 . S
C804 C805 1.367 . S
C804 C812 1.378 . S
C805 C804 1.367 . S
C805 C813 1.433 . S
C806 H802 0.929 . S
C806 C808 1.378 . S
C806 C810 1.350 . S
C807 C810 1.463 . S
C807 C812 1.350 . S
C807 N815 1.427 . S
C808 H799 0.930 . S
C808 C806 1.378 . S
C808 C809 1.367 . S
C809 C808 1.367 . S
C809 C811 1.433 . S
C810 C806 1.350 . S
C810 C807 1.463 . S
C810 N814 1.427 . S
C811 H801 0.929 . S
C811 C809 1.433 . S
C811 N814 1.384 . S
C812 H803 0.929 . S
C812 C804 1.378 . S
C812 C807 1.350 . S
C813 H800 0.929 . S
C813 C805 1.433 . S
C813 N815 1.384 . S
N814 C810 1.427 . S
N814 C811 1.384 . S
N815 C807 1.427 . S
N815 C813 1.384 . S
H816 C822 0.930 . S
H817 C826 0.930 . S
H818 C831 0.929 . S
H819 C829 0.929 . S
H820 C824 0.929 . S
H821 C830 0.929 . S
C822 H816 0.930 . S
C822 C823 1.367 . S
C822 C830 1.378 . S
C823 C822 1.367 . S
C823 C831 1.433 . S
C824 H820 0.929 . S
C824 C826 1.378 . S
C824 C828 1.350 . S
C825 C828 1.463 . S
C825 C830 1.350 . S
C825 N833 1.427 . S
C826 H817 0.930 . S
C826 C824 1.378 . S
C826 C827 1.367 . S
C827 C826 1.367 . S
C827 C829 1.433 . S
C828 C824 1.350 . S
C828 C825 1.463 . S
C828 N832 1.427 . S
C829 H819 0.929 . S
C829 C827 1.433 . S
C829 N832 1.384 . S
C830 H821 0.929 . S
C830 C822 1.378 . S
C830 C825 1.350 . S
C831 H818 0.929 . S
C831 C823 1.433 . S
C831 N833 1.384 . S
N832 C828 1.427 . S
N832 C829 1.384 . S
N833 C825 1.427 . S
N833 C831 1.384 . S
H834 C840 0.930 . S
H835 C844 0.930 . S
H836 C849 0.929 . S
H837 C847 0.929 . S
H838 C842 0.929 . S
H839 C848 0.929 . S
C840 H834 0.930 . S
C840 C841 1.367 . S
C840 C848 1.378 . S
C841 C840 1.367 . S
C841 C849 1.433 . S
C842 H838 0.929 . S
C842 C844 1.378 . S
C842 C846 1.350 . S
C843 C846 1.463 . S
C843 C848 1.350 . S
C843 N851 1.427 . S
C844 H835 0.930 . S
C844 C842 1.378 . S
C844 C845 1.367 . S
C845 C844 1.367 . S
C845 C847 1.433 . S
C846 C842 1.350 . S
C846 C843 1.463 . S
C846 N850 1.427 . S
C847 H837 0.929 . S
C847 C845 1.433 . S
C847 N850 1.384 . S
C848 H839 0.929 . S
C848 C840 1.378 . S
C848 C843 1.350 . S
C849 H836 0.929 . S
C849 C841 1.433 . S
C849 N851 1.384 . S
N850 C846 1.427 . S
N850 C847 1.384 . S
N851 C843 1.427 . S
N851 C849 1.384 . S
H852 C858 0.930 . S
H853 C862 0.930 . S
H854 C867 0.929 . S
H855 C865 0.929 . S
H856 C860 0.929 . S
H857 C866 0.929 . S
C858 H852 0.930 . S
C858 C859 1.367 . S
C858 C866 1.378 . S
C859 C858 1.367 . S
C859 C867 1.433 . S
C860 H856 0.929 . S
C860 C862 1.378 . S
C860 C864 1.350 . S
C861 C864 1.463 . S
C861 C866 1.350 . S
C861 N869 1.427 . S
C862 H853 0.930 . S
C862 C860 1.378 . S
C862 C863 1.367 . S
C863 C862 1.367 . S
C863 C865 1.433 . S
C864 C860 1.350 . S
C864 C861 1.463 . S
C864 N868 1.427 . S
C865 H855 0.929 . S
C865 C863 1.433 . S
C865 N868 1.384 . S
C866 H857 0.929 . S
C866 C858 1.378 . S
C866 C861 1.350 . S
C867 H854 0.929 . S
C867 C859 1.433 . S
C867 N869 1.384 . S
N868 C864 1.427 . S
N868 C865 1.384 . S
N869 C861 1.427 . S
N869 C867 1.384 . S
H870 C876 0.930 . S
H871 C880 0.930 . S
H872 C885 0.929 . S
H873 C883 0.929 . S
H874 C878 0.929 . S
H875 C884 0.929 . S
C876 H870 0.930 . S
C876 C877 1.367 . S
C876 C884 1.378 . S
C877 C876 1.367 . S
C877 C885 1.433 . S
C878 H874 0.929 . S
C878 C880 1.378 . S
C878 C882 1.350 . S
C879 C882 1.463 . S
C879 C884 1.350 . S
C879 N887 1.427 . S
C880 H871 0.930 . S
C880 C878 1.378 . S
C880 C881 1.367 . S
C881 C880 1.367 . S
C881 C883 1.433 . S
C882 C878 1.350 . S
C882 C879 1.463 . S
C882 N886 1.427 . S
C883 H873 0.929 . S
C883 C881 1.433 . S
C883 N886 1.384 . S
C884 H875 0.929 . S
C884 C876 1.378 . S
C884 C879 1.350 . S
C885 H872 0.929 . S
C885 C877 1.433 . S
C885 N887 1.384 . S
N886 C882 1.427 . S
N886 C883 1.384 . S
N887 C879 1.427 . S
N887 C885 1.384 . S
H888 C894 0.930 . S
H889 C898 0.930 . S
H890 C903 0.929 . S
H891 C901 0.929 . S
H892 C896 0.929 . S
H893 C902 0.929 . S
C894 H888 0.930 . S
C894 C895 1.367 . S
C894 C902 1.378 . S
C895 C894 1.367 . S
C895 C903 1.433 . S
C896 H892 0.929 . S
C896 C898 1.378 . S
C896 C900 1.350 . S
C897 C900 1.463 . S
C897 C902 1.350 . S
C897 N905 1.427 . S
C898 H889 0.930 . S
C898 C896 1.378 . S
C898 C899 1.367 . S
C899 C898 1.367 . S
C899 C901 1.433 . S
C900 C896 1.350 . S
C900 C897 1.463 . S
C900 N904 1.427 . S
C901 H891 0.929 . S
C901 C899 1.433 . S
C901 N904 1.384 . S
C902 H893 0.929 . S
C902 C894 1.378 . S
C902 C897 1.350 . S
C903 H890 0.929 . S
C903 C895 1.433 . S
C903 N905 1.384 . S
N904 C900 1.427 . S
N904 C901 1.384 . S
N905 C897 1.427 . S
N905 C903 1.384 . S
H906 C912 0.930 . S
H907 C916 0.930 . S
H908 C921 0.929 . S
H909 C919 0.929 . S
H910 C914 0.929 . S
H911 C920 0.929 . S
C912 H906 0.930 . S
C912 C913 1.367 . S
C912 C920 1.378 . S
C913 C912 1.367 . S
C913 C921 1.433 . S
C914 H910 0.929 . S
C914 C916 1.378 . S
C914 C918 1.350 . S
C915 C918 1.463 . S
C915 C920 1.350 . S
C915 N923 1.427 . S
C916 H907 0.930 . S
C916 C914 1.378 . S
C916 C917 1.367 . S
C917 C916 1.367 . S
C917 C919 1.433 . S
C918 C914 1.350 . S
C918 C915 1.463 . S
C918 N922 1.427 . S
C919 H909 0.929 . S
C919 C917 1.433 . S
C919 N922 1.384 . S
C920 H911 0.929 . S
C920 C912 1.378 . S
C920 C915 1.350 . S
C921 H908 0.929 . S
C921 C913 1.433 . S
C921 N923 1.384 . S
N922 C918 1.427 . S
N922 C919 1.384 . S
N923 C915 1.427 . S
N923 C921 1.384 . S
H924 C930 0.930 . S
H925 C934 0.930 . S
H926 C939 0.929 . S
H927 C937 0.929 . S
H928 C932 0.929 . S
H929 C938 0.929 . S
C930 H924 0.930 . S
C930 C931 1.367 . S
C930 C938 1.378 . S
C931 C930 1.367 . S
C931 C939 1.433 . S
C932 H928 0.929 . S
C932 C934 1.378 . S
C932 C936 1.350 . S
C933 C936 1.463 . S
C933 C938 1.350 . S
C933 N941 1.427 . S
C934 H925 0.930 . S
C934 C932 1.378 . S
C934 C935 1.367 . S
C935 C934 1.367 . S
C935 C937 1.433 . S
C936 C932 1.350 . S
C936 C933 1.463 . S
C936 N940 1.427 . S
C937 H927 0.929 . S
C937 C935 1.433 . S
C937 N940 1.384 . S
C938 H929 0.929 . S
C938 C930 1.378 . S
C938 C933 1.350 . S
C939 H926 0.929 . S
C939 C931 1.433 . S
C939 N941 1.384 . S
N940 C936 1.427 . S
N940 C937 1.384 . S
N941 C933 1.427 . S
N941 C939 1.384 . S
H942 C948 0.930 . S
H943 C952 0.930 . S
H944 C957 0.929 . S
H945 C955 0.929 . S
H946 C950 0.929 . S
H947 C956 0.929 . S
C948 H942 0.930 . S
C948 C949 1.367 . S
C948 C956 1.378 . S
C949 C948 1.367 . S
C949 C957 1.433 . S
C950 H946 0.929 . S
C950 C952 1.378 . S
C950 C954 1.350 . S
C951 C954 1.463 . S
C951 C956 1.350 . S
C951 N959 1.427 . S
C952 H943 0.930 . S
C952 C950 1.378 . S
C952 C953 1.367 . S
C953 C952 1.367 . S
C953 C955 1.433 . S
C954 C950 1.350 . S
C954 C951 1.463 . S
C954 N958 1.427 . S
C955 H945 0.929 . S
C955 C953 1.433 . S
C955 N958 1.384 . S
C956 H947 0.929 . S
C956 C948 1.378 . S
C956 C951 1.350 . S
C957 H944 0.929 . S
C957 C949 1.433 . S
C957 N959 1.384 . S
N958 C954 1.427 . S
N958 C955 1.384 . S
N959 C951 1.427 . S
N959 C957 1.384 . S
H960 C966 0.930 . S
H961 C970 0.930 . S
H962 C975 0.929 . S
H963 C973 0.929 . S
H964 C968 0.929 . S
H965 C974 0.929 . S
C966 H960 0.930 . S
C966 C967 1.367 . S
C966 C974 1.378 . S
C967 C966 1.367 . S
C967 C975 1.433 . S
C968 H964 0.929 . S
C968 C970 1.378 . S
C968 C972 1.350 . S
C969 C972 1.463 . S
C969 C974 1.350 . S
C969 N977 1.427 . S
C970 H961 0.930 . S
C970 C968 1.378 . S
C970 C971 1.367 . S
C971 C970 1.367 . S
C971 C973 1.433 . S
C972 C968 1.350 . S
C972 C969 1.463 . S
C972 N976 1.427 . S
C973 H963 0.929 . S
C973 C971 1.433 . S
C973 N976 1.384 . S
C974 H965 0.929 . S
C974 C966 1.378 . S
C974 C969 1.350 . S
C975 H962 0.929 . S
C975 C967 1.433 . S
C975 N977 1.384 . S
N976 C972 1.427 . S
N976 C973 1.384 . S
N977 C969 1.427 . S
N977 C975 1.384 . S
H978 C984 0.930 . S
H979 C988 0.930 . S
H980 C993 0.929 . S
H981 C991 0.929 . S
H982 C986 0.929 . S
H983 C992 0.929 . S
C984 H978 0.930 . S
C984 C985 1.367 . S
C984 C992 1.378 . S
C985 C984 1.367 . S
C985 C993 1.433 . S
C986 H982 0.929 . S
C986 C988 1.378 . S
C986 C990 1.350 . S
C987 C990 1.463 . S
C987 C992 1.350 . S
C987 N995 1.427 . S
C988 H979 0.930 . S
C988 C986 1.378 . S
C988 C989 1.367 . S
C989 C988 1.367 . S
C989 C991 1.433 . S
C990 C986 1.350 . S
C990 C987 1.463 . S
C990 N994 1.427 . S
C991 H981 0.929 . S
C991 C989 1.433 . S
C991 N994 1.384 . S
C992 H983 0.929 . S
C992 C984 1.378 . S
C992 C987 1.350 . S
C993 H980 0.929 . S
C993 C985 1.433 . S
C993 N995 1.384 . S
N994 C990 1.427 . S
N994 C991 1.384 . S
N995 C987 1.427 . S
N995 C993 1.384 . S
H996 C1002 0.930 . S
H997 C1006 0.930 . S
H998 C1011 0.929 . S
H999 C1009 0.929 . S
H1000 C1004 0.929 . S
H1001 C1010 0.929 . S
C1002 H996 0.930 . S
C1002 C1003 1.367 . S
C1002 C1010 1.378 . S
C1003 C1002 1.367 . S
C1003 C1011 1.433 . S
C1004 H1000 0.929 . S
C1004 C1006 1.378 . S
C1004 C1008 1.350 . S
C1005 C1008 1.463 . S
C1005 C1010 1.350 . S
C1005 N1013 1.427 . S
C1006 H997 0.930 . S
C1006 C1004 1.378 . S
C1006 C1007 1.367 . S
C1007 C1006 1.367 . S
C1007 C1009 1.433 . S
C1008 C1004 1.350 . S
C1008 C1005 1.463 . S
C1008 N1012 1.427 . S
C1009 H999 0.929 . S
C1009 C1007 1.433 . S
C1009 N1012 1.384 . S
C1010 H1001 0.929 . S
C1010 C1002 1.378 . S
C1010 C1005 1.350 . S
C1011 H998 0.929 . S
C1011 C1003 1.433 . S
C1011 N1013 1.384 . S
N1012 C1008 1.427 . S
N1012 C1009 1.384 . S
N1013 C1005 1.427 . S
N1013 C1011 1.384 . S
H1014 C1020 0.930 . S
H1015 C1024 0.930 . S
H1016 C1029 0.929 . S
H1017 C1027 0.929 . S
H1018 C1022 0.929 . S
H1019 C1028 0.929 . S
C1020 H1014 0.930 . S
C1020 C1021 1.367 . S
C1020 C1028 1.378 . S
C1021 C1020 1.367 . S
C1021 C1029 1.433 . S
C1022 H1018 0.929 . S
C1022 C1024 1.378 . S
C1022 C1026 1.350 . S
C1023 C1026 1.463 . S
C1023 C1028 1.350 . S
C1023 N1031 1.427 . S
C1024 H1015 0.930 . S
C1024 C1022 1.378 . S
C1024 C1025 1.367 . S
C1025 C1024 1.367 . S
C1025 C1027 1.433 . S
C1026 C1022 1.350 . S
C1026 C1023 1.463 . S
C1026 N1030 1.427 . S
C1027 H1017 0.929 . S
C1027 C1025 1.433 . S
C1027 N1030 1.384 . S
C1028 H1019 0.929 . S
C1028 C1020 1.378 . S
C1028 C1023 1.350 . S
C1029 H1016 0.929 . S
C1029 C1021 1.433 . S
C1029 N1031 1.384 . S
N1030 C1026 1.427 . S
N1030 C1027 1.384 . S
N1031 C1023 1.427 . S
N1031 C1029 1.384 . S
H1032 C1038 0.930 . S
H1033 C1042 0.930 . S
H1034 C1047 0.929 . S
H1035 C1045 0.929 . S
H1036 C1040 0.929 . S
H1037 C1046 0.929 . S
C1038 H1032 0.930 . S
C1038 C1039 1.367 . S
C1038 C1046 1.378 . S
C1039 C1038 1.367 . S
C1039 C1047 1.433 . S
C1040 H1036 0.929 . S
C1040 C1042 1.378 . S
C1040 C1044 1.350 . S
C1041 C1044 1.463 . S
C1041 C1046 1.350 . S
C1041 N1049 1.427 . S
C1042 H1033 0.930 . S
C1042 C1040 1.378 . S
C1042 C1043 1.367 . S
C1043 C1042 1.367 . S
C1043 C1045 1.433 . S
C1044 C1040 1.350 . S
C1044 C1041 1.463 . S
C1044 N1048 1.427 . S
C1045 H1035 0.929 . S
C1045 C1043 1.433 . S
C1045 N1048 1.384 . S
C1046 H1037 0.929 . S
C1046 C1038 1.378 . S
C1046 C1041 1.350 . S
C1047 H1034 0.929 . S
C1047 C1039 1.433 . S
C1047 N1049 1.384 . S
N1048 C1044 1.427 . S
N1048 C1045 1.384 . S
N1049 C1041 1.427 . S
N1049 C1047 1.384 . S
H1050 C1056 0.930 . S
H1051 C1060 0.930 . S
H1052 C1065 0.929 . S
H1053 C1063 0.929 . S
H1054 C1058 0.929 . S
H1055 C1064 0.929 . S
C1056 H1050 0.930 . S
C1056 C1057 1.367 . S
C1056 C1064 1.378 . S
C1057 C1056 1.367 . S
C1057 C1065 1.433 . S
C1058 H1054 0.929 . S
C1058 C1060 1.378 . S
C1058 C1062 1.350 . S
C1059 C1062 1.463 . S
C1059 C1064 1.350 . S
C1059 N1067 1.427 . S
C1060 H1051 0.930 . S
C1060 C1058 1.378 . S
C1060 C1061 1.367 . S
C1061 C1060 1.367 . S
C1061 C1063 1.433 . S
C1062 C1058 1.350 . S
C1062 C1059 1.463 . S
C1062 N1066 1.427 . S
C1063 H1053 0.929 . S
C1063 C1061 1.433 . S
C1063 N1066 1.384 . S
C1064 H1055 0.929 . S
C1064 C1056 1.378 . S
C1064 C1059 1.350 . S
C1065 H1052 0.929 . S
C1065 C1057 1.433 . S
C1065 N1067 1.384 . S
N1066 C1062 1.427 . S
N1066 C1063 1.384 . S
N1067 C1059 1.427 . S
N1067 C1065 1.384 . S
H1068 C1074 0.930 . S
H1069 C1078 0.930 . S
H1070 C1083 0.929 . S
H1071 C1081 0.929 . S
H1072 C1076 0.929 . S
H1073 C1082 0.929 . S
C1074 H1068 0.930 . S
C1074 C1075 1.367 . S
C1074 C1082 1.378 . S
C1075 C1074 1.367 . S
C1075 C1083 1.433 . S
C1076 H1072 0.929 . S
C1076 C1078 1.378 . S
C1076 C1080 1.350 . S
C1077 C1080 1.463 . S
C1077 C1082 1.350 . S
C1077 N1085 1.427 . S
C1078 H1069 0.930 . S
C1078 C1076 1.378 . S
C1078 C1079 1.367 . S
C1079 C1078 1.367 . S
C1079 C1081 1.433 . S
C1080 C1076 1.350 . S
C1080 C1077 1.463 . S
C1080 N1084 1.427 . S
C1081 H1071 0.929 . S
C1081 C1079 1.433 . S
C1081 N1084 1.384 . S
C1082 H1073 0.929 . S
C1082 C1074 1.378 . S
C1082 C1077 1.350 . S
C1083 H1070 0.929 . S
C1083 C1075 1.433 . S
C1083 N1085 1.384 . S
N1084 C1080 1.427 . S
N1084 C1081 1.384 . S
N1085 C1077 1.427 . S
N1085 C1083 1.384 . S
H1086 C1092 0.930 . S
H1087 C1096 0.930 . S
H1088 C1101 0.929 . S
H1089 C1099 0.929 . S
H1090 C1094 0.929 . S
H1091 C1100 0.929 . S
C1092 H1086 0.930 . S
C1092 C1093 1.367 . S
C1092 C1100 1.378 . S
C1093 C1092 1.367 . S
C1093 C1101 1.433 . S
C1094 H1090 0.929 . S
C1094 C1096 1.378 . S
C1094 C1098 1.350 . S
C1095 C1098 1.463 . S
C1095 C1100 1.350 . S
C1095 N1103 1.427 . S
C1096 H1087 0.930 . S
C1096 C1094 1.378 . S
C1096 C1097 1.367 . S
C1097 C1096 1.367 . S
C1097 C1099 1.433 . S
C1098 C1094 1.350 . S
C1098 C1095 1.463 . S
C1098 N1102 1.427 . S
C1099 H1089 0.929 . S
C1099 C1097 1.433 . S
C1099 N1102 1.384 . S
C1100 H1091 0.929 . S
C1100 C1092 1.378 . S
C1100 C1095 1.350 . S
C1101 H1088 0.929 . S
C1101 C1093 1.433 . S
C1101 N1103 1.384 . S
N1102 C1098 1.427 . S
N1102 C1099 1.384 . S
N1103 C1095 1.427 . S
N1103 C1101 1.384 . S
H1104 C1110 0.930 . S
H1105 C1114 0.930 . S
H1106 C1119 0.929 . S
H1107 C1117 0.929 . S
H1108 C1112 0.929 . S
H1109 C1118 0.929 . S
C1110 H1104 0.930 . S
C1110 C1111 1.367 . S
C1110 C1118 1.378 . S
C1111 C1110 1.367 . S
C1111 C1119 1.433 . S
C1112 H1108 0.929 . S
C1112 C1114 1.378 . S
C1112 C1116 1.350 . S
C1113 C1116 1.463 . S
C1113 C1118 1.350 . S
C1113 N1121 1.427 . S
C1114 H1105 0.930 . S
C1114 C1112 1.378 . S
C1114 C1115 1.367 . S
C1115 C1114 1.367 . S
C1115 C1117 1.433 . S
C1116 C1112 1.350 . S
C1116 C1113 1.463 . S
C1116 N1120 1.427 . S
C1117 H1107 0.929 . S
C1117 C1115 1.433 . S
C1117 N1120 1.384 . S
C1118 H1109 0.929 . S
C1118 C1110 1.378 . S
C1118 C1113 1.350 . S
C1119 H1106 0.929 . S
C1119 C1111 1.433 . S
C1119 N1121 1.384 . S
N1120 C1116 1.427 . S
N1120 C1117 1.384 . S
N1121 C1113 1.427 . S
N1121 C1119 1.384 . S
H1122 C1128 0.930 . S
H1123 C1132 0.930 . S
H1124 C1137 0.929 1_545 S
H1125 C1135 0.929 . S
H1126 C1130 0.929 . S
H1127 C1136 0.929 . S
C1128 H1122 0.930 . S
C1128 C1129 1.367 . S
C1128 C1136 1.378 . S
C1129 C1128 1.367 . S
C1129 C1137 1.433 . S
C1130 H1126 0.929 . S
C1130 C1132 1.378 . S
C1130 C1134 1.350 . S
C1131 C1134 1.463 . S
C1131 C1136 1.350 . S
C1131 N1139 1.427 . S
C1132 H1123 0.930 . S
C1132 C1130 1.378 . S
C1132 C1133 1.367 . S
C1133 C1132 1.367 . S
C1133 C1135 1.433 . S
C1134 C1130 1.350 . S
C1134 C1131 1.463 . S
C1134 N1138 1.427 . S
C1135 H1125 0.929 . S
C1135 C1133 1.433 . S
C1135 N1138 1.384 . S
C1136 H1127 0.929 . S
C1136 C1128 1.378 . S
C1136 C1131 1.350 . S
C1137 H1124 0.929 1_565 S
C1137 C1129 1.433 . S
C1137 N1139 1.384 . S
N1138 C1134 1.427 . S
N1138 C1135 1.384 . S
N1139 C1131 1.427 . S
N1139 C1137 1.384 . S
H1140 C1146 0.930 . S
H1141 C1150 0.930 . S
H1142 C1155 0.929 . S
H1143 C1153 0.929 . S
H1144 C1148 0.929 . S
H1145 C1154 0.929 . S
C1146 H1140 0.930 . S
C1146 C1147 1.367 . S
C1146 C1154 1.378 . S
C1147 C1146 1.367 . S
C1147 C1155 1.433 . S
C1148 H1144 0.929 . S
C1148 C1150 1.378 . S
C1148 C1152 1.350 . S
C1149 C1152 1.463 . S
C1149 C1154 1.350 . S
C1149 N1157 1.427 . S
C1150 H1141 0.930 . S
C1150 C1148 1.378 . S
C1150 C1151 1.367 . S
C1151 C1150 1.367 . S
C1151 C1153 1.433 . S
C1152 C1148 1.350 . S
C1152 C1149 1.463 . S
C1152 N1156 1.427 . S
C1153 H1143 0.929 . S
C1153 C1151 1.433 . S
C1153 N1156 1.384 . S
C1154 H1145 0.929 . S
C1154 C1146 1.378 . S
C1154 C1149 1.350 . S
C1155 H1142 0.929 . S
C1155 C1147 1.433 . S
C1155 N1157 1.384 . S
N1156 C1152 1.427 . S
N1156 C1153 1.384 . S
N1157 C1149 1.427 . S
N1157 C1155 1.384 . S
H1158 C1164 0.930 . S
H1159 C1168 0.930 . S
H1160 C1173 0.929 . S
H1161 C1171 0.929 . S
H1162 C1166 0.929 1_556 S
H1163 C1172 0.929 . S
C1164 H1158 0.930 . S
C1164 C1165 1.367 . S
C1164 C1172 1.378 1_556 S
C1165 C1164 1.367 . S
C1165 C1173 1.433 . S
C1166 H1162 0.929 1_554 S
C1166 C1168 1.378 . S
C1166 C1170 1.350 . S
C1167 C1170 1.463 1_556 S
C1167 C1172 1.350 1_556 S
C1167 N1175 1.427 . S
C1168 H1159 0.930 . S
C1168 C1166 1.378 . S
C1168 C1169 1.367 . S
C1169 C1168 1.367 . S
C1169 C1171 1.433 . S
C1170 C1166 1.350 . S
C1170 C1167 1.463 1_554 S
C1170 N1174 1.427 . S
C1171 H1161 0.929 . S
C1171 C1169 1.433 . S
C1171 N1174 1.384 . S
C1172 H1163 0.929 . S
C1172 C1164 1.378 1_554 S
C1172 C1167 1.350 1_554 S
C1173 H1160 0.929 . S
C1173 C1165 1.433 . S
C1173 N1175 1.384 . S
N1174 C1170 1.427 . S
N1174 C1171 1.384 . S
N1175 C1167 1.427 . S
N1175 C1173 1.384 . S
H1176 C1182 0.930 . S
H1177 C1186 0.930 . S
H1178 C1191 0.929 . S
H1179 C1189 0.929 . S
H1180 C1184 0.929 . S
H1181 C1190 0.929 . S
C1182 H1176 0.930 . S
C1182 C1183 1.367 . S
C1182 C1190 1.378 . S
C1183 C1182 1.367 . S
C1183 C1191 1.433 . S
C1184 H1180 0.929 . S
C1184 C1186 1.378 . S
C1184 C1188 1.350 . S
C1185 C1188 1.463 . S
C1185 C1190 1.350 . S
C1185 N1193 1.427 . S
C1186 H1177 0.930 . S
C1186 C1184 1.378 . S
C1186 C1187 1.367 . S
C1187 C1186 1.367 . S
C1187 C1189 1.433 . S
C1188 C1184 1.350 . S
C1188 C1185 1.463 . S
C1188 N1192 1.427 . S
C1189 H1179 0.929 . S
C1189 C1187 1.433 . S
C1189 N1192 1.384 . S
C1190 H1181 0.929 . S
C1190 C1182 1.378 . S
C1190 C1185 1.350 . S
C1191 H1178 0.929 . S
C1191 C1183 1.433 . S
C1191 N1193 1.384 . S
N1192 C1188 1.427 . S
N1192 C1189 1.384 . S
N1193 C1185 1.427 . S
N1193 C1191 1.384 . S
H1194 C1200 0.930 1_545 S
H1195 C1204 0.930 . S
H1196 C1209 0.929 . S
H1197 C1207 0.929 . S
H1198 C1202 0.929 . S
H1199 C1208 0.929 . S
C1200 H1194 0.930 1_565 S
C1200 C1201 1.367 . S
C1200 C1208 1.378 . S
C1201 C1200 1.367 . S
C1201 C1209 1.433 . S
C1202 H1198 0.929 . S
C1202 C1204 1.378 . S
C1202 C1206 1.350 . S
C1203 C1206 1.463 . S
C1203 C1208 1.350 . S
C1203 N1211 1.427 . S
C1204 H1195 0.930 . S
C1204 C1202 1.378 . S
C1204 C1205 1.367 . S
C1205 C1204 1.367 . S
C1205 C1207 1.433 . S
C1206 C1202 1.350 . S
C1206 C1203 1.463 . S
C1206 N1210 1.427 . S
C1207 H1197 0.929 . S
C1207 C1205 1.433 . S
C1207 N1210 1.384 . S
C1208 H1199 0.929 . S
C1208 C1200 1.378 . S
C1208 C1203 1.350 . S
C1209 H1196 0.929 . S
C1209 C1201 1.433 . S
C1209 N1211 1.384 . S
N1210 C1206 1.427 . S
N1210 C1207 1.384 . S
N1211 C1203 1.427 . S
N1211 C1209 1.384 . S
H1212 C1218 0.930 . S
H1213 C1222 0.930 . S
H1214 C1227 0.929 . S
H1215 C1225 0.929 . S
H1216 C1220 0.929 . S
H1217 C1226 0.929 . S
C1218 H1212 0.930 . S
C1218 C1219 1.367 . S
C1218 C1226 1.378 . S
C1219 C1218 1.367 . S
C1219 C1227 1.433 . S
C1220 H1216 0.929 . S
C1220 C1222 1.378 . S
C1220 C1224 1.350 . S
C1221 C1224 1.463 . S
C1221 C1226 1.350 . S
C1221 N1229 1.427 . S
C1222 H1213 0.930 . S
C1222 C1220 1.378 . S
C1222 C1223 1.367 . S
C1223 C1222 1.367 . S
C1223 C1225 1.433 . S
C1224 C1220 1.350 . S
C1224 C1221 1.463 . S
C1224 N1228 1.427 . S
C1225 H1215 0.929 . S
C1225 C1223 1.433 . S
C1225 N1228 1.384 . S
C1226 H1217 0.929 . S
C1226 C1218 1.378 . S
C1226 C1221 1.350 . S
C1227 H1214 0.929 . S
C1227 C1219 1.433 . S
C1227 N1229 1.384 . S
N1228 C1224 1.427 . S
N1228 C1225 1.384 . S
N1229 C1221 1.427 . S
N1229 C1227 1.384 . S
H1230 C1236 0.930 . S
H1231 C1240 0.930 . S
H1232 C1245 0.929 . S
H1233 C1243 0.929 . S
H1234 C1238 0.929 . S
H1235 C1244 0.929 . S
C1236 H1230 0.930 . S
C1236 C1237 1.367 . S
C1236 C1244 1.378 . S
C1237 C1236 1.367 . S
C1237 C1245 1.433 . S
C1238 H1234 0.929 . S
C1238 C1240 1.378 . S
C1238 C1242 1.350 . S
C1239 C1242 1.463 1_554 S
C1239 C1244 1.350 . S
C1239 N1247 1.427 1_554 S
C1240 H1231 0.930 . S
C1240 C1238 1.378 . S
C1240 C1241 1.367 . S
C1241 C1240 1.367 . S
C1241 C1243 1.433 . S
C1242 C1238 1.350 . S
C1242 C1239 1.463 1_556 S
C1242 N1246 1.427 . S
C1243 H1233 0.929 . S
C1243 C1241 1.433 . S
C1243 N1246 1.384 . S
C1244 H1235 0.929 . S
C1244 C1236 1.378 . S
C1244 C1239 1.350 . S
C1245 H1232 0.929 . S
C1245 C1237 1.433 . S
C1245 N1247 1.384 1_554 S
N1246 C1242 1.427 . S
N1246 C1243 1.384 . S
N1247 C1239 1.427 1_556 S
N1247 C1245 1.384 1_556 S
H1248 C1254 0.930 . S
H1249 C1258 0.930 . S
H1250 C1263 0.929 . S
H1251 C1261 0.929 . S
H1252 C1256 0.929 . S
H1253 C1262 0.929 . S
C1254 H1248 0.930 . S
C1254 C1255 1.367 . S
C1254 C1262 1.378 . S
C1255 C1254 1.367 . S
C1255 C1263 1.433 . S
C1256 H1252 0.929 . S
C1256 C1258 1.378 . S
C1256 C1260 1.350 . S
C1257 C1260 1.463 . S
C1257 C1262 1.350 . S
C1257 N1265 1.427 . S
C1258 H1249 0.930 . S
C1258 C1256 1.378 . S
C1258 C1259 1.367 . S
C1259 C1258 1.367 . S
C1259 C1261 1.433 . S
C1260 C1256 1.350 . S
C1260 C1257 1.463 . S
C1260 N1264 1.427 . S
C1261 H1251 0.929 . S
C1261 C1259 1.433 . S
C1261 N1264 1.384 . S
C1262 H1253 0.929 . S
C1262 C1254 1.378 . S
C1262 C1257 1.350 . S
C1263 H1250 0.929 . S
C1263 C1255 1.433 . S
C1263 N1265 1.384 . S
N1264 C1260 1.427 . S
N1264 C1261 1.384 . S
N1265 C1257 1.427 . S
N1265 C1263 1.384 . S
H1266 C1272 0.930 1_655 S
H1267 C1276 0.930 . S
H1268 C1281 0.929 . S
H1269 C1279 0.929 . S
H1270 C1274 0.929 . S
H1271 C1280 0.929 . S
C1272 H1266 0.930 1_455 S
C1272 C1273 1.367 . S
C1272 C1280 1.378 . S
C1273 C1272 1.367 . S
C1273 C1281 1.433 . S
C1274 H1270 0.929 . S
C1274 C1276 1.378 . S
C1274 C1278 1.350 . S
C1275 C1278 1.463 1_565 S
C1275 C1280 1.350 . S
C1275 N1283 1.427 . S
C1276 H1267 0.930 . S
C1276 C1274 1.378 . S
C1276 C1277 1.367 . S
C1277 C1276 1.367 . S
C1277 C1279 1.433 . S
C1278 C1274 1.350 . S
C1278 C1275 1.463 1_545 S
C1278 N1282 1.427 . S
C1279 H1269 0.929 . S
C1279 C1277 1.433 . S
C1279 N1282 1.384 . S
C1280 H1271 0.929 . S
C1280 C1272 1.378 . S
C1280 C1275 1.350 . S
C1281 H1268 0.929 . S
C1281 C1273 1.433 . S
C1281 N1283 1.384 . S
N1282 C1278 1.427 . S
N1282 C1279 1.384 . S
N1283 C1275 1.427 . S
N1283 C1281 1.384 . S
H1284 C1290 0.930 . S
H1285 C1294 0.930 . S
H1286 C1299 0.929 . S
H1287 C1297 0.929 . S
H1288 C1292 0.929 . S
H1289 C1298 0.929 . S
C1290 H1284 0.930 . S
C1290 C1291 1.367 . S
C1290 C1298 1.378 . S
C1291 C1290 1.367 . S
C1291 C1299 1.433 . S
C1292 H1288 0.929 . S
C1292 C1294 1.378 . S
C1292 C1296 1.350 . S
C1293 C1296 1.463 . S
C1293 C1298 1.350 . S
C1293 N1301 1.427 . S
C1294 H1285 0.930 . S
C1294 C1292 1.378 . S
C1294 C1295 1.367 . S
C1295 C1294 1.367 . S
C1295 C1297 1.433 . S
C1296 C1292 1.350 . S
C1296 C1293 1.463 . S
C1296 N1300 1.427 . S
C1297 H1287 0.929 . S
C1297 C1295 1.433 . S
C1297 N1300 1.384 . S
C1298 H1289 0.929 . S
C1298 C1290 1.378 . S
C1298 C1293 1.350 . S
C1299 H1286 0.929 . S
C1299 C1291 1.433 . S
C1299 N1301 1.384 . S
N1300 C1296 1.427 . S
N1300 C1297 1.384 . S
N1301 C1293 1.427 . S
N1301 C1299 1.384 . S
H1302 C1308 0.930 . S
H1303 C1312 0.930 . S
H1304 C1317 0.929 . S
H1305 C1315 0.929 . S
H1306 C1310 0.929 . S
H1307 C1316 0.929 . S
C1308 H1302 0.930 . S
C1308 C1309 1.367 . S
C1308 C1316 1.378 . S
C1309 C1308 1.367 . S
C1309 C1317 1.433 . S
C1310 H1306 0.929 . S
C1310 C1312 1.378 . S
C1310 C1314 1.350 . S
C1311 C1314 1.463 1_545 S
C1311 C1316 1.350 . S
C1311 N1319 1.427 . S
C1312 H1303 0.930 . S
C1312 C1310 1.378 . S
C1312 C1313 1.367 . S
C1313 C1312 1.367 . S
C1313 C1315 1.433 . S
C1314 C1310 1.350 . S
C1314 C1311 1.463 1_565 S
C1314 N1318 1.427 . S
C1315 H1305 0.929 . S
C1315 C1313 1.433 . S
C1315 N1318 1.384 . S
C1316 H1307 0.929 . S
C1316 C1308 1.378 . S
C1316 C1311 1.350 . S
C1317 H1304 0.929 . S
C1317 C1309 1.433 . S
C1317 N1319 1.384 . S
N1318 C1314 1.427 . S
N1318 C1315 1.384 . S
N1319 C1311 1.427 . S
N1319 C1317 1.384 . S
H1320 C1326 0.930 . S
H1321 C1330 0.930 . S
H1322 C1335 0.929 . S
H1323 C1333 0.929 . S
H1324 C1328 0.929 . S
H1325 C1334 0.929 . S
C1326 H1320 0.930 . S
C1326 C1327 1.367 . S
C1326 C1334 1.378 . S
C1327 C1326 1.367 . S
C1327 C1335 1.433 . S
C1328 H1324 0.929 . S
C1328 C1330 1.378 . S
C1328 C1332 1.350 . S
C1329 C1332 1.463 . S
C1329 C1334 1.350 . S
C1329 N1337 1.427 . S
C1330 H1321 0.930 . S
C1330 C1328 1.378 . S
C1330 C1331 1.367 . S
C1331 C1330 1.367 . S
C1331 C1333 1.433 . S
C1332 C1328 1.350 . S
C1332 C1329 1.463 . S
C1332 N1336 1.427 . S
C1333 H1323 0.929 . S
C1333 C1331 1.433 . S
C1333 N1336 1.384 . S
C1334 H1325 0.929 . S
C1334 C1326 1.378 . S
C1334 C1329 1.350 . S
C1335 H1322 0.929 . S
C1335 C1327 1.433 . S
C1335 N1337 1.384 . S
N1336 C1332 1.427 . S
N1336 C1333 1.384 . S
N1337 C1329 1.427 . S
N1337 C1335 1.384 . S
H1338 C1344 0.930 . S
H1339 C1348 0.930 . S
H1340 C1353 0.929 . S
H1341 C1351 0.929 . S
H1342 C1346 0.929 1_565 S
H1343 C1352 0.929 . S
C1344 H1338 0.930 . S
C1344 C1345 1.367 . S
C1344 C1352 1.378 1_565 S
C1345 C1344 1.367 . S
C1345 C1353 1.433 . S
C1346 H1342 0.929 1_545 S
C1346 C1348 1.378 . S
C1346 C1350 1.350 . S
C1347 C1350 1.463 1_565 S
C1347 C1352 1.350 1_565 S
C1347 N1355 1.427 . S
C1348 H1339 0.930 . S
C1348 C1346 1.378 . S
C1348 C1349 1.367 . S
C1349 C1348 1.367 . S
C1349 C1351 1.433 . S
C1350 C1346 1.350 . S
C1350 C1347 1.463 1_545 S
C1350 N1354 1.427 . S
C1351 H1341 0.929 . S
C1351 C1349 1.433 . S
C1351 N1354 1.384 . S
C1352 H1343 0.929 . S
C1352 C1344 1.378 1_545 S
C1352 C1347 1.350 1_545 S
C1353 H1340 0.929 . S
C1353 C1345 1.433 . S
C1353 N1355 1.384 . S
N1354 C1350 1.427 . S
N1354 C1351 1.384 . S
N1355 C1347 1.427 . S
N1355 C1353 1.384 . S
H1356 C1362 0.930 . S
H1357 C1366 0.930 . S
H1358 C1371 0.929 . S
H1359 C1369 0.929 . S
H1360 C1364 0.929 . S
H1361 C1370 0.929 . S
C1362 H1356 0.930 . S
C1362 C1363 1.367 . S
C1362 C1370 1.378 . S
C1363 C1362 1.367 . S
C1363 C1371 1.433 . S
C1364 H1360 0.929 . S
C1364 C1366 1.378 . S
C1364 C1368 1.350 . S
C1365 C1368 1.463 . S
C1365 C1370 1.350 . S
C1365 N1373 1.427 . S
C1366 H1357 0.930 . S
C1366 C1364 1.378 . S
C1366 C1367 1.367 . S
C1367 C1366 1.367 . S
C1367 C1369 1.433 . S
C1368 C1364 1.350 . S
C1368 C1365 1.463 . S
C1368 N1372 1.427 . S
C1369 H1359 0.929 . S
C1369 C1367 1.433 . S
C1369 N1372 1.384 . S
C1370 H1361 0.929 . S
C1370 C1362 1.378 . S
C1370 C1365 1.350 . S
C1371 H1358 0.929 . S
C1371 C1363 1.433 . S
C1371 N1373 1.384 . S
N1372 C1368 1.427 . S
N1372 C1369 1.384 . S
N1373 C1365 1.427 . S
N1373 C1371 1.384 . S
H1374 C1380 0.930 . S
H1375 C1384 0.930 1_655 S
H1376 C1389 0.929 . S
H1377 C1387 0.929 . S
H1378 C1382 0.929 . S
H1379 C1388 0.929 1_545 S
C1380 H1374 0.930 . S
C1380 C1381 1.367 . S
C1380 C1388 1.378 . S
C1381 C1380 1.367 . S
C1381 C1389 1.433 . S
C1382 H1378 0.929 . S
C1382 C1384 1.378 1_565 S
C1382 C1386 1.350 1_565 S
C1383 C1386 1.463 1_565 S
C1383 C1388 1.350 . S
C1383 N1391 1.427 . S
C1384 H1375 0.930 1_455 S
C1384 C1382 1.378 1_545 S
C1384 C1385 1.367 . S
C1385 C1384 1.367 . S
C1385 C1387 1.433 . S
C1386 C1382 1.350 1_545 S
C1386 C1383 1.463 1_545 S
C1386 N1390 1.427 . S
C1387 H1377 0.929 . S
C1387 C1385 1.433 . S
C1387 N1390 1.384 . S
C1388 H1379 0.929 1_565 S
C1388 C1380 1.378 . S
C1388 C1383 1.350 . S
C1389 H1376 0.929 . S
C1389 C1381 1.433 . S
C1389 N1391 1.384 . S
N1390 C1386 1.427 . S
N1390 C1387 1.384 . S
N1391 C1383 1.427 . S
N1391 C1389 1.384 . S
H1392 C1398 0.930 . S
H1393 C1402 0.930 . S
H1394 C1407 0.929 . S
H1395 C1405 0.929 . S
H1396 C1400 0.929 . S
H1397 C1406 0.929 . S
C1398 H1392 0.930 . S
C1398 C1399 1.367 . S
C1398 C1406 1.378 . S
C1399 C1398 1.367 . S
C1399 C1407 1.433 . S
C1400 H1396 0.929 . S
C1400 C1402 1.378 . S
C1400 C1404 1.350 . S
C1401 C1404 1.463 . S
C1401 C1406 1.350 . S
C1401 N1409 1.427 . S
C1402 H1393 0.930 . S
C1402 C1400 1.378 . S
C1402 C1403 1.367 . S
C1403 C1402 1.367 . S
C1403 C1405 1.433 . S
C1404 C1400 1.350 . S
C1404 C1401 1.463 . S
C1404 N1408 1.427 . S
C1405 H1395 0.929 . S
C1405 C1403 1.433 . S
C1405 N1408 1.384 . S
C1406 H1397 0.929 . S
C1406 C1398 1.378 . S
C1406 C1401 1.350 . S
C1407 H1394 0.929 . S
C1407 C1399 1.433 . S
C1407 N1409 1.384 . S
N1408 C1404 1.427 . S
N1408 C1405 1.384 . S
N1409 C1401 1.427 . S
N1409 C1407 1.384 . S
H1410 C1416 0.930 . S
H1411 C1420 0.930 . S
H1412 C1425 0.929 . S
H1413 C1423 0.929 . S
H1414 C1418 0.929 . S
H1415 C1424 0.929 . S
C1416 H1410 0.930 . S
C1416 C1417 1.367 . S
C1416 C1424 1.378 . S
C1417 C1416 1.367 . S
C1417 C1425 1.433 . S
C1418 H1414 0.929 . S
C1418 C1420 1.378 . S
C1418 C1422 1.350 . S
C1419 C1422 1.463 . S
C1419 C1424 1.350 . S
C1419 N1427 1.427 . S
C1420 H1411 0.930 . S
C1420 C1418 1.378 . S
C1420 C1421 1.367 . S
C1421 C1420 1.367 . S
C1421 C1423 1.433 . S
C1422 C1418 1.350 . S
C1422 C1419 1.463 . S
C1422 N1426 1.427 . S
C1423 H1413 0.929 . S
C1423 C1421 1.433 . S
C1423 N1426 1.384 . S
C1424 H1415 0.929 . S
C1424 C1416 1.378 . S
C1424 C1419 1.350 . S
C1425 H1412 0.929 . S
C1425 C1417 1.433 . S
C1425 N1427 1.384 . S
N1426 C1422 1.427 . S
N1426 C1423 1.384 . S
N1427 C1419 1.427 . S
N1427 C1425 1.384 . S
H1428 C1434 0.930 1_556 S
H1429 C1438 0.930 . S
H1430 C1443 0.929 . S
H1431 C1441 0.929 . S
H1432 C1436 0.929 . S
H1433 C1442 0.929 1_455 S
C1434 H1428 0.930 1_554 S
C1434 C1435 1.367 . S
C1434 C1442 1.378 . S
C1435 C1434 1.367 . S
C1435 C1443 1.433 . S
C1436 H1432 0.929 . S
C1436 C1438 1.378 . S
C1436 C1440 1.350 . S
C1437 C1440 1.463 1_655 S
C1437 C1442 1.350 . S
C1437 N1445 1.427 . S
C1438 H1429 0.930 . S
C1438 C1436 1.378 . S
C1438 C1439 1.367 . S
C1439 C1438 1.367 . S
C1439 C1441 1.433 . S
C1440 C1436 1.350 . S
C1440 C1437 1.463 1_455 S
C1440 N1444 1.427 . S
C1441 H1431 0.929 . S
C1441 C1439 1.433 . S
C1441 N1444 1.384 . S
C1442 H1433 0.929 1_655 S
C1442 C1434 1.378 . S
C1442 C1437 1.350 . S
C1443 H1430 0.929 . S
C1443 C1435 1.433 . S
C1443 N1445 1.384 . S
N1444 C1440 1.427 . S
N1444 C1441 1.384 . S
N1445 C1437 1.427 . S
N1445 C1443 1.384 . S
H1446 C1452 0.930 . S
H1447 C1456 0.930 . S
H1448 C1461 0.929 . S
H1449 C1459 0.929 . S
H1450 C1454 0.929 . S
H1451 C1460 0.929 . S
C1452 H1446 0.930 . S
C1452 C1453 1.367 . S
C1452 C1460 1.378 . S
C1453 C1452 1.367 . S
C1453 C1461 1.433 . S
C1454 H1450 0.929 . S
C1454 C1456 1.378 . S
C1454 C1458 1.350 . S
C1455 C1458 1.463 . S
C1455 C1460 1.350 . S
C1455 N1463 1.427 . S
C1456 H1447 0.930 . S
C1456 C1454 1.378 . S
C1456 C1457 1.367 . S
C1457 C1456 1.367 . S
C1457 C1459 1.433 . S
C1458 C1454 1.350 . S
C1458 C1455 1.463 . S
C1458 N1462 1.427 . S
C1459 H1449 0.929 . S
C1459 C1457 1.433 . S
C1459 N1462 1.384 . S
C1460 H1451 0.929 . S
C1460 C1452 1.378 . S
C1460 C1455 1.350 . S
C1461 H1448 0.929 . S
C1461 C1453 1.433 . S
C1461 N1463 1.384 . S
N1462 C1458 1.427 . S
N1462 C1459 1.384 . S
N1463 C1455 1.427 . S
N1463 C1461 1.384 . S
H1464 C1470 0.930 1_556 S
H1465 C1474 0.930 . S
H1466 C1479 0.929 . S
H1467 C1477 0.929 . S
H1468 C1472 0.929 . S
H1469 C1478 0.929 1_655 S
C1470 H1464 0.930 1_554 S
C1470 C1471 1.367 . S
C1470 C1478 1.378 . S
C1471 C1470 1.367 . S
C1471 C1479 1.433 . S
C1472 H1468 0.929 . S
C1472 C1474 1.378 . S
C1472 C1476 1.350 . S
C1473 C1476 1.463 1_455 S
C1473 C1478 1.350 . S
C1473 N1481 1.427 . S
C1474 H1465 0.930 . S
C1474 C1472 1.378 . S
C1474 C1475 1.367 . S
C1475 C1474 1.367 . S
C1475 C1477 1.433 . S
C1476 C1472 1.350 . S
C1476 C1473 1.463 1_655 S
C1476 N1480 1.427 . S
C1477 H1467 0.929 . S
C1477 C1475 1.433 . S
C1477 N1480 1.384 . S
C1478 H1469 0.929 1_455 S
C1478 C1470 1.378 . S
C1478 C1473 1.350 . S
C1479 H1466 0.929 . S
C1479 C1471 1.433 . S
C1479 N1481 1.384 . S
N1480 C1476 1.427 . S
N1480 C1477 1.384 . S
N1481 C1473 1.427 . S
N1481 C1479 1.384 . S
H1482 C1488 0.930 . S
H1483 C1492 0.930 . S
H1484 C1497 0.929 . S
H1485 C1495 0.929 . S
H1486 C1490 0.929 . S
H1487 C1496 0.929 . S
C1488 H1482 0.930 . S
C1488 C1489 1.367 . S
C1488 C1496 1.378 . S
C1489 C1488 1.367 . S
C1489 C1497 1.433 . S
C1490 H1486 0.929 . S
C1490 C1492 1.378 . S
C1490 C1494 1.350 . S
C1491 C1494 1.463 . S
C1491 C1496 1.350 . S
C1491 N1499 1.427 . S
C1492 H1483 0.930 . S
C1492 C1490 1.378 . S
C1492 C1493 1.367 . S
C1493 C1492 1.367 . S
C1493 C1495 1.433 . S
C1494 C1490 1.350 . S
C1494 C1491 1.463 . S
C1494 N1498 1.427 . S
C1495 H1485 0.929 . S
C1495 C1493 1.433 . S
C1495 N1498 1.384 . S
C1496 H1487 0.929 . S
C1496 C1488 1.378 . S
C1496 C1491 1.350 . S
C1497 H1484 0.929 . S
C1497 C1489 1.433 . S
C1497 N1499 1.384 . S
N1498 C1494 1.427 . S
N1498 C1495 1.384 . S
N1499 C1491 1.427 . S
N1499 C1497 1.384 . S
H1500 C1506 0.930 . S
H1501 C1510 0.930 . S
H1502 C1515 0.929 . S
H1503 C1513 0.929 . S
H1504 C1508 0.929 1_655 S
H1505 C1514 0.929 . S
C1506 H1500 0.930 . S
C1506 C1507 1.367 . S
C1506 C1514 1.378 1_655 S
C1507 C1506 1.367 . S
C1507 C1515 1.433 . S
C1508 H1504 0.929 1_455 S
C1508 C1510 1.378 . S
C1508 C1512 1.350 . S
C1509 C1512 1.463 1_655 S
C1509 C1514 1.350 1_655 S
C1509 N1517 1.427 . S
C1510 H1501 0.930 . S
C1510 C1508 1.378 . S
C1510 C1511 1.367 . S
C1511 C1510 1.367 . S
C1511 C1513 1.433 . S
C1512 C1508 1.350 . S
C1512 C1509 1.463 1_455 S
C1512 N1516 1.427 . S
C1513 H1503 0.929 . S
C1513 C1511 1.433 . S
C1513 N1516 1.384 . S
C1514 H1505 0.929 . S
C1514 C1506 1.378 1_455 S
C1514 C1509 1.350 1_455 S
C1515 H1502 0.929 . S
C1515 C1507 1.433 . S
C1515 N1517 1.384 . S
N1516 C1512 1.427 . S
N1516 C1513 1.384 . S
N1517 C1509 1.427 . S
N1517 C1515 1.384 . S
H1518 C1524 0.930 . S
H1519 C1528 0.930 1_554 S
H1520 C1533 0.929 . S
H1521 C1531 0.929 . S
H1522 C1526 0.929 . S
H1523 C1532 0.929 . S
C1524 H1518 0.930 . S
C1524 C1525 1.367 . S
C1524 C1532 1.378 . S
C1525 C1524 1.367 . S
C1525 C1533 1.433 . S
C1526 H1522 0.929 . S
C1526 C1528 1.378 . S
C1526 C1530 1.350 . S
C1527 C1530 1.463 . S
C1527 C1532 1.350 . S
C1527 N1535 1.427 . S
C1528 H1519 0.930 1_556 S
C1528 C1526 1.378 . S
C1528 C1529 1.367 . S
C1529 C1528 1.367 . S
C1529 C1531 1.433 . S
C1530 C1526 1.350 . S
C1530 C1527 1.463 . S
C1530 N1534 1.427 . S
C1531 H1521 0.929 . S
C1531 C1529 1.433 . S
C1531 N1534 1.384 . S
C1532 H1523 0.929 . S
C1532 C1524 1.378 . S
C1532 C1527 1.350 . S
C1533 H1520 0.929 . S
C1533 C1525 1.433 . S
C1533 N1535 1.384 . S
N1534 C1530 1.427 . S
N1534 C1531 1.384 . S
N1535 C1527 1.427 . S
N1535 C1533 1.384 . S
H1536 C1542 0.930 . S
H1537 C1546 0.930 . S
H1538 C1551 0.929 . S
H1539 C1549 0.929 . S
H1540 C1544 0.929 . S
H1541 C1550 0.929 . S
C1542 H1536 0.930 . S
C1542 C1543 1.367 . S
C1542 C1550 1.378 . S
C1543 C1542 1.367 . S
C1543 C1551 1.433 . S
C1544 H1540 0.929 . S
C1544 C1546 1.378 . S
C1544 C1548 1.350 . S
C1545 C1548 1.463 . S
C1545 C1550 1.350 . S
C1545 N1553 1.427 . S
C1546 H1537 0.930 . S
C1546 C1544 1.378 . S
C1546 C1547 1.367 . S
C1547 C1546 1.367 . S
C1547 C1549 1.433 . S
C1548 C1544 1.350 . S
C1548 C1545 1.463 . S
C1548 N1552 1.427 . S
C1549 H1539 0.929 . S
C1549 C1547 1.433 . S
C1549 N1552 1.384 . S
C1550 H1541 0.929 . S
C1550 C1542 1.378 . S
C1550 C1545 1.350 . S
C1551 H1538 0.929 . S
C1551 C1543 1.433 . S
C1551 N1553 1.384 . S
N1552 C1548 1.427 . S
N1552 C1549 1.384 . S
N1553 C1545 1.427 . S
N1553 C1551 1.384 . S
H1554 C1560 0.930 . S
H1555 C1564 0.930 . S
H1556 C1569 0.929 . S
H1557 C1567 0.929 . S
H1558 C1562 0.907 1_554 S
H1559 C1568 0.929 . S
C1560 H1554 0.930 . S
C1560 C1561 1.367 . S
C1560 C1568 1.378 . S
C1561 C1560 1.367 . S
C1561 C1569 1.433 . S
C1562 H1558 0.907 1_556 S
C1562 C1564 1.399 . S
C1562 C1566 1.351 . S
C1563 C1566 1.463 1_554 S
C1563 C1568 1.350 . S
C1563 N1571 1.427 . S
C1564 H1555 0.930 . S
C1564 C1562 1.399 . S
C1564 C1565 1.367 . S
C1565 C1564 1.367 . S
C1565 C1567 1.433 . S
C1566 C1562 1.351 . S
C1566 C1563 1.463 1_556 S
C1566 N1570 1.427 . S
C1567 H1557 0.929 . S
C1567 C1565 1.433 . S
C1567 N1570 1.384 . S
C1568 H1559 0.929 . S
C1568 C1560 1.378 . S
C1568 C1563 1.350 . S
C1569 H1556 0.929 . S
C1569 C1561 1.433 . S
C1569 N1571 1.384 . S
N1570 C1566 1.427 . S
N1570 C1567 1.384 . S
N1571 C1563 1.427 . S
N1571 C1569 1.384 . S
H1572 C1578 0.930 . S
H1573 C1582 0.930 . S
H1574 C1587 0.929 . S
H1575 C1585 0.929 . S
H1576 C1580 0.929 . S
H1577 C1586 0.929 . S
C1578 H1572 0.930 . S
C1578 C1579 1.367 . S
C1578 C1586 1.378 . S
C1579 C1578 1.367 . S
C1579 C1587 1.433 . S
C1580 H1576 0.929 . S
C1580 C1582 1.378 . S
C1580 C1584 1.350 . S
C1581 C1584 1.463 . S
C1581 C1586 1.350 . S
C1581 N1589 1.427 . S
C1582 H1573 0.930 . S
C1582 C1580 1.378 . S
C1582 C1583 1.367 . S
C1583 C1582 1.367 . S
C1583 C1585 1.433 . S
C1584 C1580 1.350 . S
C1584 C1581 1.463 . S
C1584 N1588 1.427 . S
C1585 H1575 0.929 . S
C1585 C1583 1.433 . S
C1585 N1588 1.384 . S
C1586 H1577 0.929 . S
C1586 C1578 1.378 . S
C1586 C1581 1.350 . S
C1587 H1574 0.929 . S
C1587 C1579 1.433 . S
C1587 N1589 1.384 . S
N1588 C1584 1.427 . S
N1588 C1585 1.384 . S
N1589 C1581 1.427 . S
N1589 C1587 1.384 . S
H1590 C1596 0.930 . S
H1591 C1600 0.930 . S
H1592 C1605 0.929 . S
H1593 C1603 0.929 . S
H1594 C1598 0.929 . S
H1595 C1604 0.929 . S
C1596 H1590 0.930 . S
C1596 C1597 1.367 . S
C1596 C1604 1.378 . S
C1597 C1596 1.367 . S
C1597 C1605 1.433 . S
C1598 H1594 0.929 . S
C1598 C1600 1.378 . S
C1598 C1602 1.350 . S
C1599 C1602 1.463 . S
C1599 C1604 1.350 . S
C1599 N1607 1.427 . S
C1600 H1591 0.930 . S
C1600 C1598 1.378 . S
C1600 C1601 1.367 . S
C1601 C1600 1.367 . S
C1601 C1603 1.433 . S
C1602 C1598 1.350 . S
C1602 C1599 1.463 . S
C1602 N1606 1.427 . S
C1603 H1593 0.929 . S
C1603 C1601 1.433 . S
C1603 N1606 1.384 . S
C1604 H1595 0.929 . S
C1604 C1596 1.378 . S
C1604 C1599 1.350 . S
C1605 H1592 0.929 . S
C1605 C1597 1.433 . S
C1605 N1607 1.384 . S
N1606 C1602 1.427 . S
N1606 C1603 1.384 . S
N1607 C1599 1.427 . S
N1607 C1605 1.384 . S
H1608 C1614 0.930 . S
H1609 C1618 0.930 . S
H1610 C1623 0.929 . S
H1611 C1621 0.929 . S
H1612 C1616 0.929 . S
H1613 C1622 0.929 . S
C1614 H1608 0.930 . S
C1614 C1615 1.367 . S
C1614 C1622 1.378 . S
C1615 C1614 1.367 . S
C1615 C1623 1.433 . S
C1616 H1612 0.929 . S
C1616 C1618 1.378 . S
C1616 C1620 1.350 . S
C1617 C1620 1.463 . S
C1617 C1622 1.350 . S
C1617 N1625 1.427 . S
C1618 H1609 0.930 . S
C1618 C1616 1.378 . S
C1618 C1619 1.367 . S
C1619 C1618 1.367 . S
C1619 C1621 1.433 . S
C1620 C1616 1.350 . S
C1620 C1617 1.463 . S
C1620 N1624 1.427 . S
C1621 H1611 0.929 . S
C1621 C1619 1.433 . S
C1621 N1624 1.384 . S
C1622 H1613 0.929 . S
C1622 C1614 1.378 . S
C1622 C1617 1.350 . S
C1623 H1610 0.929 . S
C1623 C1615 1.433 . S
C1623 N1625 1.384 . S
N1624 C1620 1.427 . S
N1624 C1621 1.384 . S
N1625 C1617 1.427 . S
N1625 C1623 1.384 . S
H1626 C1632 0.930 . S
H1627 C1636 0.930 . S
H1628 C1641 0.929 . S
H1629 C1639 0.929 . S
H1630 C1634 0.929 . S
H1631 C1640 0.929 1_554 S
C1632 H1626 0.930 . S
C1632 C1633 1.367 . S
C1632 C1640 1.378 . S
C1633 C1632 1.367 . S
C1633 C1641 1.433 . S
C1634 H1630 0.929 . S
C1634 C1636 1.378 1_556 S
C1634 C1638 1.350 1_556 S
C1635 C1638 1.463 1_556 S
C1635 C1640 1.350 . S
C1635 N1643 1.427 . S
C1636 H1627 0.930 . S
C1636 C1634 1.378 1_554 S
C1636 C1637 1.367 . S
C1637 C1636 1.367 . S
C1637 C1639 1.433 . S
C1638 C1634 1.350 1_554 S
C1638 C1635 1.463 1_554 S
C1638 N1642 1.427 . S
C1639 H1629 0.929 . S
C1639 C1637 1.433 . S
C1639 N1642 1.384 . S
C1640 H1631 0.929 1_556 S
C1640 C1632 1.378 . S
C1640 C1635 1.350 . S
C1641 H1628 0.929 . S
C1641 C1633 1.433 . S
C1641 N1643 1.384 . S
N1642 C1638 1.427 . S
N1642 C1639 1.384 . S
N1643 C1635 1.427 . S
N1643 C1641 1.384 . S
H1644 C1650 0.930 . S
H1645 C1654 0.930 . S
H1646 C1659 0.929 . S
H1647 C1657 0.929 . S
H1648 C1652 0.929 . S
H1649 C1658 0.929 . S
C1650 H1644 0.930 . S
C1650 C1651 1.367 . S
C1650 C1658 1.378 . S
C1651 C1650 1.367 . S
C1651 C1659 1.433 . S
C1652 H1648 0.929 . S
C1652 C1654 1.378 . S
C1652 C1656 1.350 . S
C1653 C1656 1.463 . S
C1653 C1658 1.350 . S
C1653 N1661 1.427 . S
C1654 H1645 0.930 . S
C1654 C1652 1.378 . S
C1654 C1655 1.367 . S
C1655 C1654 1.367 . S
C1655 C1657 1.433 . S
C1656 C1652 1.350 . S
C1656 C1653 1.463 . S
C1656 N1660 1.427 . S
C1657 H1647 0.929 . S
C1657 C1655 1.433 . S
C1657 N1660 1.384 . S
C1658 H1649 0.929 . S
C1658 C1650 1.378 . S
C1658 C1653 1.350 . S
C1659 H1646 0.929 . S
C1659 C1651 1.433 . S
C1659 N1661 1.384 . S
N1660 C1656 1.427 . S
N1660 C1657 1.384 . S
N1661 C1653 1.427 . S
N1661 C1659 1.384 . S
H1662 C1668 0.930 . S
H1663 C1672 0.930 . S
H1664 C1677 0.929 . S
H1665 C1675 0.929 . S
H1666 C1670 0.929 . S
H1667 C1676 0.929 . S
C1668 H1662 0.930 . S
C1668 C1669 1.367 . S
C1668 C1676 1.378 . S
C1669 C1668 1.367 . S
C1669 C1677 1.433 . S
C1670 H1666 0.929 . S
C1670 C1672 1.378 . S
C1670 C1674 1.350 . S
C1671 C1674 1.463 . S
C1671 C1676 1.350 . S
C1671 N1679 1.427 . S
C1672 H1663 0.930 . S
C1672 C1670 1.378 . S
C1672 C1673 1.367 . S
C1673 C1672 1.367 . S
C1673 C1675 1.433 . S
C1674 C1670 1.350 . S
C1674 C1671 1.463 . S
C1674 N1678 1.427 . S
C1675 H1665 0.929 . S
C1675 C1673 1.433 . S
C1675 N1678 1.384 . S
C1676 H1667 0.929 . S
C1676 C1668 1.378 . S
C1676 C1671 1.350 . S
C1677 H1664 0.929 . S
C1677 C1669 1.433 . S
C1677 N1679 1.384 . S
N1678 C1674 1.427 . S
N1678 C1675 1.384 . S
N1679 C1671 1.427 . S
N1679 C1677 1.384 . S
H1680 C1686 0.930 . S
H1681 C1690 0.930 . S
H1682 C1695 0.929 . S
H1683 C1693 0.929 . S
H1684 C1688 0.929 . S
H1685 C1694 0.929 . S
C1686 H1680 0.930 . S
C1686 C1687 1.367 . S
C1686 C1694 1.378 . S
C1687 C1686 1.367 . S
C1687 C1695 1.433 . S
C1688 H1684 0.929 . S
C1688 C1690 1.378 . S
C1688 C1692 1.350 . S
C1689 C1692 1.463 . S
C1689 C1694 1.350 . S
C1689 N1697 1.427 . S
C1690 H1681 0.930 . S
C1690 C1688 1.378 . S
C1690 C1691 1.367 . S
C1691 C1690 1.367 . S
C1691 C1693 1.433 . S
C1692 C1688 1.350 . S
C1692 C1689 1.463 . S
C1692 N1696 1.427 . S
C1693 H1683 0.929 . S
C1693 C1691 1.433 . S
C1693 N1696 1.384 . S
C1694 H1685 0.929 . S
C1694 C1686 1.378 . S
C1694 C1689 1.350 . S
C1695 H1682 0.929 . S
C1695 C1687 1.433 . S
C1695 N1697 1.384 . S
N1696 C1692 1.427 . S
N1696 C1693 1.384 . S
N1697 C1689 1.427 . S
N1697 C1695 1.384 . S
H1698 C1704 0.930 . S
H1699 C1708 0.930 . S
H1700 C1713 0.929 . S
H1701 C1711 0.929 . S
H1702 C1706 0.929 . S
H1703 C1712 0.929 . S
C1704 H1698 0.930 . S
C1704 C1705 1.367 . S
C1704 C1712 1.378 . S
C1705 C1704 1.367 . S
C1705 C1713 1.433 . S
C1706 H1702 0.929 . S
C1706 C1708 1.378 . S
C1706 C1710 1.350 . S
C1707 C1710 1.463 . S
C1707 C1712 1.350 . S
C1707 N1715 1.427 . S
C1708 H1699 0.930 . S
C1708 C1706 1.378 . S
C1708 C1709 1.367 . S
C1709 C1708 1.367 . S
C1709 C1711 1.433 . S
C1710 C1706 1.350 . S
C1710 C1707 1.463 . S
C1710 N1714 1.427 . S
C1711 H1701 0.929 . S
C1711 C1709 1.433 . S
C1711 N1714 1.384 . S
C1712 H1703 0.929 . S
C1712 C1704 1.378 . S
C1712 C1707 1.350 . S
C1713 H1700 0.929 . S
C1713 C1705 1.433 . S
C1713 N1715 1.384 . S
N1714 C1710 1.427 . S
N1714 C1711 1.384 . S
N1715 C1707 1.427 . S
N1715 C1713 1.384 . S
H1716 C1722 0.930 . S
H1717 C1726 0.930 . S
H1718 C1731 0.929 . S
H1719 C1729 0.929 . S
H1720 C1724 0.929 . S
H1721 C1730 0.929 . S
C1722 H1716 0.930 . S
C1722 C1723 1.367 . S
C1722 C1730 1.378 . S
C1723 C1722 1.367 . S
C1723 C1731 1.433 . S
C1724 H1720 0.929 . S
C1724 C1726 1.378 . S
C1724 C1728 1.350 . S
C1725 C1728 1.463 . S
C1725 C1730 1.350 . S
C1725 N1733 1.427 . S
C1726 H1717 0.930 . S
C1726 C1724 1.378 . S
C1726 C1727 1.367 . S
C1727 C1726 1.367 . S
C1727 C1729 1.433 . S
C1728 C1724 1.350 . S
C1728 C1725 1.463 . S
C1728 N1732 1.427 . S
C1729 H1719 0.929 . S
C1729 C1727 1.433 . S
C1729 N1732 1.384 . S
C1730 H1721 0.929 . S
C1730 C1722 1.378 . S
C1730 C1725 1.350 . S
C1731 H1718 0.929 . S
C1731 C1723 1.433 . S
C1731 N1733 1.384 . S
N1732 C1728 1.427 . S
N1732 C1729 1.384 . S
N1733 C1725 1.427 . S
N1733 C1731 1.384 . S
H1734 C1740 0.930 . S
H1735 C1744 0.930 . S
H1736 C1749 0.929 1_455 S
H1737 C1747 0.929 . S
H1738 C1742 0.929 . S
H1739 C1748 0.929 . S
C1740 H1734 0.930 . S
C1740 C1741 1.367 . S
C1740 C1748 1.378 . S
C1741 C1740 1.367 . S
C1741 C1749 1.433 . S
C1742 H1738 0.929 . S
C1742 C1744 1.378 . S
C1742 C1746 1.350 . S
C1743 C1746 1.463 . S
C1743 C1748 1.350 . S
C1743 N1751 1.427 . S
C1744 H1735 0.930 . S
C1744 C1742 1.378 . S
C1744 C1745 1.367 . S
C1745 C1744 1.367 . S
C1745 C1747 1.433 . S
C1746 C1742 1.350 . S
C1746 C1743 1.463 . S
C1746 N1750 1.427 . S
C1747 H1737 0.929 . S
C1747 C1745 1.433 . S
C1747 N1750 1.384 . S
C1748 H1739 0.929 . S
C1748 C1740 1.378 . S
C1748 C1743 1.350 . S
C1749 H1736 0.929 1_655 S
C1749 C1741 1.433 . S
C1749 N1751 1.384 . S
N1750 C1746 1.427 . S
N1750 C1747 1.384 . S
N1751 C1743 1.427 . S
N1751 C1749 1.384 . S
H1752 C1758 0.930 . S
H1753 C1762 0.930 . S
H1754 C1767 0.929 . S
H1755 C1765 0.929 . S
H1756 C1760 0.929 . S
H1757 C1766 0.929 . S
C1758 H1752 0.930 . S
C1758 C1759 1.367 . S
C1758 C1766 1.378 . S
C1759 C1758 1.367 . S
C1759 C1767 1.433 . S
C1760 H1756 0.929 . S
C1760 C1762 1.378 . S
C1760 C1764 1.350 . S
C1761 C1764 1.463 . S
C1761 C1766 1.350 . S
C1761 N1769 1.427 . S
C1762 H1753 0.930 . S
C1762 C1760 1.378 . S
C1762 C1763 1.367 . S
C1763 C1762 1.367 . S
C1763 C1765 1.433 . S
C1764 C1760 1.350 . S
C1764 C1761 1.463 . S
C1764 N1768 1.427 . S
C1765 H1755 0.929 . S
C1765 C1763 1.433 . S
C1765 N1768 1.384 . S
C1766 H1757 0.929 . S
C1766 C1758 1.378 . S
C1766 C1761 1.350 . S
C1767 H1754 0.929 . S
C1767 C1759 1.433 . S
C1767 N1769 1.384 . S
N1768 C1764 1.427 . S
N1768 C1765 1.384 . S
N1769 C1761 1.427 . S
N1769 C1767 1.384 . S
H1770 C1776 0.930 . S
H1771 C1780 0.930 . S
H1772 C1785 0.929 . S
H1773 C1783 0.929 1_455 S
H1774 C1778 0.929 . S
H1775 C1784 0.929 . S
C1776 H1770 0.930 . S
C1776 C1777 1.367 . S
C1776 C1784 1.378 . S
C1777 C1776 1.367 . S
C1777 C1785 1.433 . S
C1778 H1774 0.929 . S
C1778 C1780 1.378 . S
C1778 C1782 1.350 . S
C1779 C1782 1.463 . S
C1779 C1784 1.350 . S
C1779 N1787 1.427 . S
C1780 H1771 0.930 . S
C1780 C1778 1.378 . S
C1780 C1781 1.367 . S
C1781 C1780 1.367 . S
C1781 C1783 1.433 . S
C1782 C1778 1.350 . S
C1782 C1779 1.463 . S
C1782 N1786 1.427 . S
C1783 H1773 0.929 1_655 S
C1783 C1781 1.433 . S
C1783 N1786 1.384 . S
C1784 H1775 0.929 . S
C1784 C1776 1.378 . S
C1784 C1779 1.350 . S
C1785 H1772 0.929 . S
C1785 C1777 1.433 . S
C1785 N1787 1.384 . S
N1786 C1782 1.427 . S
N1786 C1783 1.384 . S
N1787 C1779 1.427 . S
N1787 C1785 1.384 . S
H1788 C1794 0.930 . S
H1789 C1798 0.930 . S
H1790 C1803 0.929 . S
H1791 C1801 0.929 . S
H1792 C1796 0.929 . S
H1793 C1802 0.929 . S
C1794 H1788 0.930 . S
C1794 C1795 1.367 . S
C1794 C1802 1.378 . S
C1795 C1794 1.367 . S
C1795 C1803 1.433 . S
C1796 H1792 0.929 . S
C1796 C1798 1.378 . S
C1796 C1800 1.350 . S
C1797 C1800 1.463 . S
C1797 C1802 1.350 . S
C1797 N1805 1.427 . S
C1798 H1789 0.930 . S
C1798 C1796 1.378 . S
C1798 C1799 1.367 . S
C1799 C1798 1.367 . S
C1799 C1801 1.433 . S
C1800 C1796 1.350 . S
C1800 C1797 1.463 . S
C1800 N1804 1.427 . S
C1801 H1791 0.929 . S
C1801 C1799 1.433 . S
C1801 N1804 1.384 . S
C1802 H1793 0.929 . S
C1802 C1794 1.378 . S
C1802 C1797 1.350 . S
C1803 H1790 0.929 . S
C1803 C1795 1.433 . S
C1803 N1805 1.384 . S
N1804 C1800 1.427 . S
N1804 C1801 1.384 . S
N1805 C1797 1.427 . S
N1805 C1803 1.384 . S
H1806 C1812 0.930 . S
H1807 C1816 0.930 . S
H1808 C1821 0.929 . S
H1809 C1819 0.929 . S
H1810 C1814 0.929 . S
H1811 C1820 0.929 . S
C1812 H1806 0.930 . S
C1812 C1813 1.367 . S
C1812 C1820 1.378 . S
C1813 C1812 1.367 . S
C1813 C1821 1.433 . S
C1814 H1810 0.929 . S
C1814 C1816 1.378 . S
C1814 C1818 1.350 . S
C1815 C1818 1.463 . S
C1815 C1820 1.350 . S
C1815 N1823 1.427 . S
C1816 H1807 0.930 . S
C1816 C1814 1.378 . S
C1816 C1817 1.367 . S
C1817 C1816 1.367 . S
C1817 C1819 1.433 . S
C1818 C1814 1.350 . S
C1818 C1815 1.463 . S
C1818 N1822 1.427 . S
C1819 H1809 0.929 . S
C1819 C1817 1.433 . S
C1819 N1822 1.384 . S
C1820 H1811 0.929 . S
C1820 C1812 1.378 . S
C1820 C1815 1.350 . S
C1821 H1808 0.929 . S
C1821 C1813 1.433 . S
C1821 N1823 1.384 . S
N1822 C1818 1.427 . S
N1822 C1819 1.384 . S
N1823 C1815 1.427 . S
N1823 C1821 1.384 . S
H1824 C1830 0.930 . S
H1825 C1834 0.930 . S
H1826 C1839 0.929 . S
H1827 C1837 0.929 . S
H1828 C1832 0.929 . S
H1829 C1838 0.929 . S
C1830 H1824 0.930 . S
C1830 C1831 1.367 . S
C1830 C1838 1.378 . S
C1831 C1830 1.367 . S
C1831 C1839 1.433 . S
C1832 H1828 0.929 . S
C1832 C1834 1.378 . S
C1832 C1836 1.350 . S
C1833 C1836 1.463 . S
C1833 C1838 1.350 . S
C1833 N1841 1.427 . S
C1834 H1825 0.930 . S
C1834 C1832 1.378 . S
C1834 C1835 1.367 . S
C1835 C1834 1.367 . S
C1835 C1837 1.433 . S
C1836 C1832 1.350 . S
C1836 C1833 1.463 . S
C1836 N1840 1.427 . S
C1837 H1827 0.929 . S
C1837 C1835 1.433 . S
C1837 N1840 1.384 . S
C1838 H1829 0.929 . S
C1838 C1830 1.378 . S
C1838 C1833 1.350 . S
C1839 H1826 0.929 . S
C1839 C1831 1.433 . S
C1839 N1841 1.384 . S
N1840 C1836 1.427 . S
N1840 C1837 1.384 . S
N1841 C1833 1.427 . S
N1841 C1839 1.384 . S
H1842 C1848 0.930 . S
H1843 C1852 0.930 . S
H1844 C1857 0.929 . S
H1845 C1855 0.929 . S
H1846 C1850 0.929 . S
H1847 C1856 0.929 . S
C1848 H1842 0.930 . S
C1848 C1849 1.367 . S
C1848 C1856 1.378 . S
C1849 C1848 1.367 . S
C1849 C1857 1.433 . S
C1850 H1846 0.929 . S
C1850 C1852 1.378 . S
C1850 C1854 1.350 . S
C1851 C1854 1.463 . S
C1851 C1856 1.350 . S
C1851 N1859 1.427 . S
C1852 H1843 0.930 . S
C1852 C1850 1.378 . S
C1852 C1853 1.367 . S
C1853 C1852 1.367 . S
C1853 C1855 1.433 . S
C1854 C1850 1.350 . S
C1854 C1851 1.463 . S
C1854 N1858 1.427 . S
C1855 H1845 0.929 . S
C1855 C1853 1.433 . S
C1855 N1858 1.384 . S
C1856 H1847 0.929 . S
C1856 C1848 1.378 . S
C1856 C1851 1.350 . S
C1857 H1844 0.929 . S
C1857 C1849 1.433 . S
C1857 N1859 1.384 . S
N1858 C1854 1.427 . S
N1858 C1855 1.384 . S
N1859 C1851 1.427 . S
N1859 C1857 1.384 . S
H1860 C1866 0.930 . S
H1861 C1870 0.930 . S
H1862 C1875 0.929 . S
H1863 C1873 0.929 . S
H1864 C1868 0.929 . S
H1865 C1874 0.929 . S
C1866 H1860 0.930 . S
C1866 C1867 1.367 . S
C1866 C1874 1.378 . S
C1867 C1866 1.367 . S
C1867 C1875 1.433 . S
C1868 H1864 0.929 . S
C1868 C1870 1.378 . S
C1868 C1872 1.350 . S
C1869 C1872 1.463 . S
C1869 C1874 1.350 . S
C1869 N1877 1.427 . S
C1870 H1861 0.930 . S
C1870 C1868 1.378 . S
C1870 C1871 1.367 . S
C1871 C1870 1.367 . S
C1871 C1873 1.433 . S
C1872 C1868 1.350 . S
C1872 C1869 1.463 . S
C1872 N1876 1.427 . S
C1873 H1863 0.929 . S
C1873 C1871 1.433 . S
C1873 N1876 1.384 . S
C1874 H1865 0.929 . S
C1874 C1866 1.378 . S
C1874 C1869 1.350 . S
C1875 H1862 0.929 . S
C1875 C1867 1.433 . S
C1875 N1877 1.384 . S
N1876 C1872 1.427 . S
N1876 C1873 1.384 . S
N1877 C1869 1.427 . S
N1877 C1875 1.384 . S
H1878 C1884 0.930 . S
H1879 C1888 0.930 . S
H1880 C1893 0.929 . S
H1881 C1891 0.929 . S
H1882 C1886 0.929 . S
H1883 C1892 0.929 . S
C1884 H1878 0.930 . S
C1884 C1885 1.367 . S
C1884 C1892 1.378 . S
C1885 C1884 1.367 . S
C1885 C1893 1.433 . S
C1886 H1882 0.929 . S
C1886 C1888 1.378 . S
C1886 C1890 1.350 . S
C1887 C1890 1.463 . S
C1887 C1892 1.350 . S
C1887 N1895 1.427 . S
C1888 H1879 0.930 . S
C1888 C1886 1.378 . S
C1888 C1889 1.367 . S
C1889 C1888 1.367 . S
C1889 C1891 1.433 . S
C1890 C1886 1.350 . S
C1890 C1887 1.463 . S
C1890 N1894 1.427 . S
C1891 H1881 0.929 . S
C1891 C1889 1.433 . S
C1891 N1894 1.384 . S
C1892 H1883 0.929 . S
C1892 C1884 1.378 . S
C1892 C1887 1.350 . S
C1893 H1880 0.929 . S
C1893 C1885 1.433 . S
C1893 N1895 1.384 . S
N1894 C1890 1.427 . S
N1894 C1891 1.384 . S
N1895 C1887 1.427 . S
N1895 C1893 1.384 . S
H1896 C1902 0.930 . S
H1897 C1906 0.930 . S
H1898 C1911 0.929 . S
H1899 C1909 0.929 . S
H1900 C1904 0.929 . S
H1901 C1910 0.929 . S
C1902 H1896 0.930 . S
C1902 C1903 1.367 . S
C1902 C1910 1.378 . S
C1903 C1902 1.367 . S
C1903 C1911 1.433 . S
C1904 H1900 0.929 . S
C1904 C1906 1.378 . S
C1904 C1908 1.350 . S
C1905 C1908 1.463 . S
C1905 C1910 1.350 . S
C1905 N1913 1.427 . S
C1906 H1897 0.930 . S
C1906 C1904 1.378 . S
C1906 C1907 1.367 . S
C1907 C1906 1.367 . S
C1907 C1909 1.433 . S
C1908 C1904 1.350 . S
C1908 C1905 1.463 . S
C1908 N1912 1.427 . S
C1909 H1899 0.929 . S
C1909 C1907 1.433 . S
C1909 N1912 1.384 . S
C1910 H1901 0.929 . S
C1910 C1902 1.378 . S
C1910 C1905 1.350 . S
C1911 H1898 0.929 . S
C1911 C1903 1.433 . S
C1911 N1913 1.384 . S
N1912 C1908 1.427 . S
N1912 C1909 1.384 . S
N1913 C1905 1.427 . S
N1913 C1911 1.384 . S
H1914 C1920 0.930 . S
H1915 C1924 0.930 . S
H1916 C1929 0.929 . S
H1917 C1927 0.929 . S
H1918 C1922 0.929 . S
H1919 C1928 0.929 . S
C1920 H1914 0.930 . S
C1920 C1921 1.367 . S
C1920 C1928 1.378 . S
C1921 C1920 1.367 . S
C1921 C1929 1.433 . S
C1922 H1918 0.929 . S
C1922 C1924 1.378 . S
C1922 C1926 1.350 . S
C1923 C1926 1.463 . S
C1923 C1928 1.350 . S
C1923 N1931 1.427 . S
C1924 H1915 0.930 . S
C1924 C1922 1.378 . S
C1924 C1925 1.367 . S
C1925 C1924 1.367 . S
C1925 C1927 1.433 . S
C1926 C1922 1.350 . S
C1926 C1923 1.463 . S
C1926 N1930 1.427 . S
C1927 H1917 0.929 . S
C1927 C1925 1.433 . S
C1927 N1930 1.384 . S
C1928 H1919 0.929 . S
C1928 C1920 1.378 . S
C1928 C1923 1.350 . S
C1929 H1916 0.929 . S
C1929 C1921 1.433 . S
C1929 N1931 1.384 . S
N1930 C1926 1.427 . S
N1930 C1927 1.384 . S
N1931 C1923 1.427 . S
N1931 C1929 1.384 . S
H1932 C1938 0.930 1_554 S
H1933 C1942 0.930 . S
H1934 C1947 0.929 . S
H1935 C1945 0.929 . S
H1936 C1940 0.929 . S
H1937 C1946 0.929 . S
C1938 H1932 0.930 1_556 S
C1938 C1939 1.367 . S
C1938 C1946 1.378 . S
C1939 C1938 1.367 . S
C1939 C1947 1.433 . S
C1940 H1936 0.929 . S
C1940 C1942 1.378 . S
C1940 C1944 1.350 . S
C1941 C1944 1.463 . S
C1941 C1946 1.350 . S
C1941 N1949 1.427 . S
C1942 H1933 0.930 . S
C1942 C1940 1.378 . S
C1942 C1943 1.367 . S
C1943 C1942 1.367 . S
C1943 C1945 1.433 . S
C1944 C1940 1.350 . S
C1944 C1941 1.463 . S
C1944 N1948 1.427 . S
C1945 H1935 0.929 . S
C1945 C1943 1.433 . S
C1945 N1948 1.384 . S
C1946 H1937 0.929 . S
C1946 C1938 1.378 . S
C1946 C1941 1.350 . S
C1947 H1934 0.929 . S
C1947 C1939 1.433 . S
C1947 N1949 1.384 . S
N1948 C1944 1.427 . S
N1948 C1945 1.384 . S
N1949 C1941 1.427 . S
N1949 C1947 1.384 . S
H1950 C1956 0.930 . S
H1951 C1960 0.930 . S
H1952 C1965 0.929 . S
H1953 C1963 0.929 . S
H1954 C1958 0.929 1_455 S
H1955 C1964 0.929 . S
C1956 H1950 0.930 . S
C1956 C1957 1.367 . S
C1956 C1964 1.378 1_455 S
C1957 C1956 1.367 . S
C1957 C1965 1.433 . S
C1958 H1954 0.929 1_655 S
C1958 C1960 1.378 . S
C1958 C1962 1.350 . S
C1959 C1962 1.463 1_455 S
C1959 C1964 1.350 1_455 S
C1959 N1967 1.427 . S
C1960 H1951 0.930 . S
C1960 C1958 1.378 . S
C1960 C1961 1.367 . S
C1961 C1960 1.367 . S
C1961 C1963 1.433 . S
C1962 C1958 1.350 . S
C1962 C1959 1.463 1_655 S
C1962 N1966 1.427 . S
C1963 H1953 0.929 . S
C1963 C1961 1.433 . S
C1963 N1966 1.384 . S
C1964 H1955 0.929 . S
C1964 C1956 1.378 1_655 S
C1964 C1959 1.350 1_655 S
C1965 H1952 0.929 . S
C1965 C1957 1.433 . S
C1965 N1967 1.384 . S
N1966 C1962 1.427 . S
N1966 C1963 1.384 . S
N1967 C1959 1.427 . S
N1967 C1965 1.384 . S
H1968 C1974 0.930 . S
H1969 C1978 0.930 . S
H1970 C1983 0.929 . S
H1971 C1981 0.929 . S
H1972 C1976 0.929 . S
H1973 C1982 0.929 . S
C1974 H1968 0.930 . S
C1974 C1975 1.367 . S
C1974 C1982 1.378 . S
C1975 C1974 1.367 . S
C1975 C1983 1.433 . S
C1976 H1972 0.929 . S
C1976 C1978 1.378 . S
C1976 C1980 1.350 . S
C1977 C1980 1.463 . S
C1977 C1982 1.350 . S
C1977 N1985 1.427 . S
C1978 H1969 0.930 . S
C1978 C1976 1.378 . S
C1978 C1979 1.367 . S
C1979 C1978 1.367 . S
C1979 C1981 1.433 . S
C1980 C1976 1.350 . S
C1980 C1977 1.463 . S
C1980 N1984 1.427 . S
C1981 H1971 0.929 . S
C1981 C1979 1.433 . S
C1981 N1984 1.384 . S
C1982 H1973 0.929 . S
C1982 C1974 1.378 . S
C1982 C1977 1.350 . S
C1983 H1970 0.929 . S
C1983 C1975 1.433 . S
C1983 N1985 1.384 . S
N1984 C1980 1.427 . S
N1984 C1981 1.384 . S
N1985 C1977 1.427 . S
N1985 C1983 1.384 . S
H1986 C1992 0.930 . S
H1987 C1996 0.930 . S
H1988 C2001 0.929 . S
H1989 C1999 0.929 . S
H1990 C1994 0.929 . S
H1991 C2000 0.929 . S
C1992 H1986 0.930 . S
C1992 C1993 1.367 . S
C1992 C2000 1.378 . S
C1993 C1992 1.367 . S
C1993 C2001 1.433 . S
C1994 H1990 0.929 . S
C1994 C1996 1.378 . S
C1994 C1998 1.350 . S
C1995 C1998 1.463 . S
C1995 C2000 1.350 . S
C1995 N2003 1.427 . S
C1996 H1987 0.930 . S
C1996 C1994 1.378 . S
C1996 C1997 1.367 . S
C1997 C1996 1.367 . S
C1997 C1999 1.433 . S
C1998 C1994 1.350 . S
C1998 C1995 1.463 . S
C1998 N2002 1.427 . S
C1999 H1989 0.929 . S
C1999 C1997 1.433 . S
C1999 N2002 1.384 . S
C2000 H1991 0.929 . S
C2000 C1992 1.378 . S
C2000 C1995 1.350 . S
C2001 H1988 0.929 . S
C2001 C1993 1.433 . S
C2001 N2003 1.384 . S
N2002 C1998 1.427 . S
N2002 C1999 1.384 . S
N2003 C1995 1.427 . S
N2003 C2001 1.384 . S
H2004 C2010 0.930 . S
H2005 C2014 0.930 . S
H2006 C2019 0.929 . S
H2007 C2017 0.929 . S
H2008 C2012 0.929 . S
H2009 C2018 0.929 . S
C2010 H2004 0.930 . S
C2010 C2011 1.367 . S
C2010 C2018 1.378 . S
C2011 C2010 1.367 . S
C2011 C2019 1.433 . S
C2012 H2008 0.929 . S
C2012 C2014 1.378 . S
C2012 C2016 1.350 . S
C2013 C2016 1.463 . S
C2013 C2018 1.350 . S
C2013 N2021 1.427 . S
C2014 H2005 0.930 . S
C2014 C2012 1.378 . S
C2014 C2015 1.367 . S
C2015 C2014 1.367 . S
C2015 C2017 1.433 . S
C2016 C2012 1.350 . S
C2016 C2013 1.463 . S
C2016 N2020 1.427 . S
C2017 H2007 0.929 . S
C2017 C2015 1.433 . S
C2017 N2020 1.384 . S
C2018 H2009 0.929 . S
C2018 C2010 1.378 . S
C2018 C2013 1.350 . S
C2019 H2006 0.929 . S
C2019 C2011 1.433 . S
C2019 N2021 1.384 . S
N2020 C2016 1.427 . S
N2020 C2017 1.384 . S
N2021 C2013 1.427 . S
N2021 C2019 1.384 . S
H2022 C2028 0.930 . S
H2023 C2032 0.930 . S
H2024 C2037 0.929 . S
H2025 C2035 0.929 . S
H2026 C2030 0.929 . S
H2027 C2036 0.929 . S
C2028 H2022 0.930 . S
C2028 C2029 1.367 . S
C2028 C2036 1.378 . S
C2029 C2028 1.367 . S
C2029 C2037 1.433 . S
C2030 H2026 0.929 . S
C2030 C2032 1.378 . S
C2030 C2034 1.350 . S
C2031 C2034 1.463 . S
C2031 C2036 1.350 . S
C2031 N2039 1.427 . S
C2032 H2023 0.930 . S
C2032 C2030 1.378 . S
C2032 C2033 1.367 . S
C2033 C2032 1.367 . S
C2033 C2035 1.433 . S
C2034 C2030 1.350 . S
C2034 C2031 1.463 . S
C2034 N2038 1.427 . S
C2035 H2025 0.929 . S
C2035 C2033 1.433 . S
C2035 N2038 1.384 . S
C2036 H2027 0.929 . S
C2036 C2028 1.378 . S
C2036 C2031 1.350 . S
C2037 H2024 0.929 . S
C2037 C2029 1.433 . S
C2037 N2039 1.384 . S
N2038 C2034 1.427 . S
N2038 C2035 1.384 . S
N2039 C2031 1.427 . S
N2039 C2037 1.384 . S
H2040 C2046 0.930 . S
H2041 C2050 0.930 . S
H2042 C2055 0.929 . S
H2043 C2053 0.929 . S
H2044 C2048 0.929 . S
H2045 C2054 0.929 . S
C2046 H2040 0.930 . S
C2046 C2047 1.367 . S
C2046 C2054 1.378 . S
C2047 C2046 1.367 . S
C2047 C2055 1.433 . S
C2048 H2044 0.929 . S
C2048 C2050 1.378 . S
C2048 C2052 1.350 . S
C2049 C2052 1.463 . S
C2049 C2054 1.350 . S
C2049 N2057 1.427 . S
C2050 H2041 0.930 . S
C2050 C2048 1.378 . S
C2050 C2051 1.367 . S
C2051 C2050 1.367 . S
C2051 C2053 1.433 . S
C2052 C2048 1.350 . S
C2052 C2049 1.463 . S
C2052 N2056 1.427 . S
C2053 H2043 0.929 . S
C2053 C2051 1.433 . S
C2053 N2056 1.384 . S
C2054 H2045 0.929 . S
C2054 C2046 1.378 . S
C2054 C2049 1.350 . S
C2055 H2042 0.929 . S
C2055 C2047 1.433 . S
C2055 N2057 1.384 . S
N2056 C2052 1.427 . S
N2056 C2053 1.384 . S
N2057 C2049 1.427 . S
N2057 C2055 1.384 . S
H2058 C2064 0.930 . S
H2059 C2068 0.930 . S
H2060 C2073 0.929 . S
H2061 C2071 0.929 . S
H2062 C2066 0.929 . S
H2063 C2072 0.929 . S
C2064 H2058 0.930 . S
C2064 C2065 1.367 . S
C2064 C2072 1.378 . S
C2065 C2064 1.367 . S
C2065 C2073 1.433 . S
C2066 H2062 0.929 . S
C2066 C2068 1.378 . S
C2066 C2070 1.350 . S
C2067 C2070 1.463 . S
C2067 C2072 1.350 . S
C2067 N2075 1.427 . S
C2068 H2059 0.930 . S
C2068 C2066 1.378 . S
C2068 C2069 1.367 . S
C2069 C2068 1.367 . S
C2069 C2071 1.433 . S
C2070 C2066 1.350 . S
C2070 C2067 1.463 . S
C2070 N2074 1.427 . S
C2071 H2061 0.929 . S
C2071 C2069 1.433 . S
C2071 N2074 1.384 . S
C2072 H2063 0.929 . S
C2072 C2064 1.378 . S
C2072 C2067 1.350 . S
C2073 H2060 0.929 . S
C2073 C2065 1.433 . S
C2073 N2075 1.384 . S
N2074 C2070 1.427 . S
N2074 C2071 1.384 . S
N2075 C2067 1.427 . S
N2075 C2073 1.384 . S
H2076 C2082 0.930 . S
H2077 C2086 0.930 . S
H2078 C2091 0.929 . S
H2079 C2089 0.929 . S
H2080 C2084 0.929 . S
H2081 C2090 0.929 . S
C2082 H2076 0.930 . S
C2082 C2083 1.367 . S
C2082 C2090 1.378 . S
C2083 C2082 1.367 . S
C2083 C2091 1.433 . S
C2084 H2080 0.929 . S
C2084 C2086 1.378 . S
C2084 C2088 1.350 . S
C2085 C2088 1.463 . S
C2085 C2090 1.350 . S
C2085 N2093 1.427 . S
C2086 H2077 0.930 . S
C2086 C2084 1.378 . S
C2086 C2087 1.367 . S
C2087 C2086 1.367 . S
C2087 C2089 1.433 . S
C2088 C2084 1.350 . S
C2088 C2085 1.463 . S
C2088 N2092 1.427 . S
C2089 H2079 0.929 . S
C2089 C2087 1.433 . S
C2089 N2092 1.384 . S
C2090 H2081 0.929 . S
C2090 C2082 1.378 . S
C2090 C2085 1.350 . S
C2091 H2078 0.929 . S
C2091 C2083 1.433 . S
C2091 N2093 1.384 . S
N2092 C2088 1.427 . S
N2092 C2089 1.384 . S
N2093 C2085 1.427 . S
N2093 C2091 1.384 . S
H2094 C2100 0.930 . S
H2095 C2104 0.930 . S
H2096 C2109 0.929 . S
H2097 C2107 0.929 . S
H2098 C2102 0.929 . S
H2099 C2108 0.929 . S
C2100 H2094 0.930 . S
C2100 C2101 1.367 . S
C2100 C2108 1.378 . S
C2101 C2100 1.367 . S
C2101 C2109 1.433 . S
C2102 H2098 0.929 . S
C2102 C2104 1.378 . S
C2102 C2106 1.350 . S
C2103 C2106 1.463 . S
C2103 C2108 1.350 . S
C2103 N2111 1.427 . S
C2104 H2095 0.930 . S
C2104 C2102 1.378 . S
C2104 C2105 1.367 . S
C2105 C2104 1.367 . S
C2105 C2107 1.433 . S
C2106 C2102 1.350 . S
C2106 C2103 1.463 . S
C2106 N2110 1.427 . S
C2107 H2097 0.929 . S
C2107 C2105 1.433 . S
C2107 N2110 1.384 . S
C2108 H2099 0.929 . S
C2108 C2100 1.378 . S
C2108 C2103 1.350 . S
C2109 H2096 0.929 . S
C2109 C2101 1.433 . S
C2109 N2111 1.384 . S
N2110 C2106 1.427 . S
N2110 C2107 1.384 . S
N2111 C2103 1.427 . S
N2111 C2109 1.384 . S
H2112 C2118 0.930 . S
H2113 C2122 0.930 . S
H2114 C2127 0.929 . S
H2115 C2125 0.929 . S
H2116 C2120 0.929 . S
H2117 C2126 0.929 . S
C2118 H2112 0.930 . S
C2118 C2119 1.367 . S
C2118 C2126 1.378 . S
C2119 C2118 1.367 . S
C2119 C2127 1.433 . S
C2120 H2116 0.929 . S
C2120 C2122 1.378 . S
C2120 C2124 1.350 . S
C2121 C2124 1.463 . S
C2121 C2126 1.350 . S
C2121 N2129 1.427 . S
C2122 H2113 0.930 . S
C2122 C2120 1.378 . S
C2122 C2123 1.367 . S
C2123 C2122 1.367 . S
C2123 C2125 1.433 . S
C2124 C2120 1.350 . S
C2124 C2121 1.463 . S
C2124 N2128 1.427 . S
C2125 H2115 0.929 . S
C2125 C2123 1.433 . S
C2125 N2128 1.384 . S
C2126 H2117 0.929 . S
C2126 C2118 1.378 . S
C2126 C2121 1.350 . S
C2127 H2114 0.929 . S
C2127 C2119 1.433 . S
C2127 N2129 1.384 . S
N2128 C2124 1.427 . S
N2128 C2125 1.384 . S
N2129 C2121 1.427 . S
N2129 C2127 1.384 . S
H2130 C2136 0.930 . S
H2131 C2140 0.930 . S
H2132 C2145 0.929 . S
H2133 C2143 0.929 . S
H2134 C2138 0.929 . S
H2135 C2144 0.929 . S
C2136 H2130 0.930 . S
C2136 C2137 1.367 . S
C2136 C2144 1.378 . S
C2137 C2136 1.367 . S
C2137 C2145 1.433 . S
C2138 H2134 0.929 . S
C2138 C2140 1.378 . S
C2138 C2142 1.350 . S
C2139 C2142 1.463 . S
C2139 C2144 1.350 . S
C2139 N2147 1.427 . S
C2140 H2131 0.930 . S
C2140 C2138 1.378 . S
C2140 C2141 1.367 . S
C2141 C2140 1.367 . S
C2141 C2143 1.433 . S
C2142 C2138 1.350 . S
C2142 C2139 1.463 . S
C2142 N2146 1.427 . S
C2143 H2133 0.929 . S
C2143 C2141 1.433 . S
C2143 N2146 1.384 . S
C2144 H2135 0.929 . S
C2144 C2136 1.378 . S
C2144 C2139 1.350 . S
C2145 H2132 0.929 . S
C2145 C2137 1.433 . S
C2145 N2147 1.384 . S
N2146 C2142 1.427 . S
N2146 C2143 1.384 . S
N2147 C2139 1.427 . S
N2147 C2145 1.384 . S
H2148 C2154 0.930 . S
H2149 C2158 0.930 . S
H2150 C2163 0.929 . S
H2151 C2161 0.929 . S
H2152 C2156 0.929 . S
H2153 C2162 0.929 . S
C2154 H2148 0.930 . S
C2154 C2155 1.367 . S
C2154 C2162 1.378 . S
C2155 C2154 1.367 . S
C2155 C2163 1.433 . S
C2156 H2152 0.929 . S
C2156 C2158 1.378 . S
C2156 C2160 1.350 . S
C2157 C2160 1.463 . S
C2157 C2162 1.350 . S
C2157 N2165 1.427 . S
C2158 H2149 0.930 . S
C2158 C2156 1.378 . S
C2158 C2159 1.367 . S
C2159 C2158 1.367 . S
C2159 C2161 1.433 . S
C2160 C2156 1.350 . S
C2160 C2157 1.463 . S
C2160 N2164 1.427 . S
C2161 H2151 0.929 . S
C2161 C2159 1.433 . S
C2161 N2164 1.384 . S
C2162 H2153 0.929 . S
C2162 C2154 1.378 . S
C2162 C2157 1.350 . S
C2163 H2150 0.929 . S
C2163 C2155 1.433 . S
C2163 N2165 1.384 . S
N2164 C2160 1.427 . S
N2164 C2161 1.384 . S
N2165 C2157 1.427 . S
N2165 C2163 1.384 . S
H2166 C2172 0.930 . S
H2167 C2176 0.930 . S
H2168 C2181 0.929 . S
H2169 C2179 0.929 . S
H2170 C2174 0.929 . S
H2171 C2180 0.929 . S
C2172 H2166 0.930 . S
C2172 C2173 1.367 . S
C2172 C2180 1.378 . S
C2173 C2172 1.367 . S
C2173 C2181 1.433 . S
C2174 H2170 0.929 . S
C2174 C2176 1.378 . S
C2174 C2178 1.350 . S
C2175 C2178 1.463 . S
C2175 C2180 1.350 . S
C2175 N2183 1.427 . S
C2176 H2167 0.930 . S
C2176 C2174 1.378 . S
C2176 C2177 1.367 . S
C2177 C2176 1.367 . S
C2177 C2179 1.433 . S
C2178 C2174 1.350 . S
C2178 C2175 1.463 . S
C2178 N2182 1.427 . S
C2179 H2169 0.929 . S
C2179 C2177 1.433 . S
C2179 N2182 1.384 . S
C2180 H2171 0.929 . S
C2180 C2172 1.378 . S
C2180 C2175 1.350 . S
C2181 H2168 0.929 . S
C2181 C2173 1.433 . S
C2181 N2183 1.384 . S
N2182 C2178 1.427 . S
N2182 C2179 1.384 . S
N2183 C2175 1.427 . S
N2183 C2181 1.384 . S
H2184 C2190 0.930 . S
H2185 C2194 0.930 . S
H2186 C2199 0.929 . S
H2187 C2197 0.929 . S
H2188 C2192 0.929 . S
H2189 C2198 0.929 . S
C2190 H2184 0.930 . S
C2190 C2191 1.367 . S
C2190 C2198 1.378 . S
C2191 C2190 1.367 . S
C2191 C2199 1.433 . S
C2192 H2188 0.929 . S
C2192 C2194 1.378 . S
C2192 C2196 1.350 . S
C2193 C2196 1.463 . S
C2193 C2198 1.350 . S
C2193 N2201 1.427 . S
C2194 H2185 0.930 . S
C2194 C2192 1.378 . S
C2194 C2195 1.367 . S
C2195 C2194 1.367 . S
C2195 C2197 1.433 . S
C2196 C2192 1.350 . S
C2196 C2193 1.463 . S
C2196 N2200 1.427 . S
C2197 H2187 0.929 . S
C2197 C2195 1.433 . S
C2197 N2200 1.384 . S
C2198 H2189 0.929 . S
C2198 C2190 1.378 . S
C2198 C2193 1.350 . S
C2199 H2186 0.929 . S
C2199 C2191 1.433 . S
C2199 N2201 1.384 . S
N2200 C2196 1.427 . S
N2200 C2197 1.384 . S
N2201 C2193 1.427 . S
N2201 C2199 1.384 . S
H2202 C2208 0.930 . S
H2203 C2212 0.930 . S
H2204 C2217 0.929 . S
H2205 C2215 0.929 . S
H2206 C2210 0.929 . S
H2207 C2216 0.929 . S
C2208 H2202 0.930 . S
C2208 C2209 1.367 . S
C2208 C2216 1.378 . S
C2209 C2208 1.367 . S
C2209 C2217 1.433 . S
C2210 H2206 0.929 . S
C2210 C2212 1.378 . S
C2210 C2214 1.350 . S
C2211 C2214 1.463 . S
C2211 C2216 1.350 . S
C2211 N2219 1.427 . S
C2212 H2203 0.930 . S
C2212 C2210 1.378 . S
C2212 C2213 1.367 . S
C2213 C2212 1.367 . S
C2213 C2215 1.433 . S
C2214 C2210 1.350 . S
C2214 C2211 1.463 . S
C2214 N2218 1.427 . S
C2215 H2205 0.929 . S
C2215 C2213 1.433 . S
C2215 N2218 1.384 . S
C2216 H2207 0.929 . S
C2216 C2208 1.378 . S
C2216 C2211 1.350 . S
C2217 H2204 0.929 . S
C2217 C2209 1.433 . S
C2217 N2219 1.384 . S
N2218 C2214 1.427 . S
N2218 C2215 1.384 . S
N2219 C2211 1.427 . S
N2219 C2217 1.384 . S
H2220 C2226 0.930 . S
H2221 C2230 0.930 . S
H2222 C2235 0.929 . S
H2223 C2233 0.929 . S
H2224 C2228 0.929 . S
H2225 C2234 0.929 . S
C2226 H2220 0.930 . S
C2226 C2227 1.367 . S
C2226 C2234 1.378 . S
C2227 C2226 1.367 . S
C2227 C2235 1.433 . S
C2228 H2224 0.929 . S
C2228 C2230 1.378 . S
C2228 C2232 1.350 . S
C2229 C2232 1.463 . S
C2229 C2234 1.350 . S
C2229 N2237 1.427 . S
C2230 H2221 0.930 . S
C2230 C2228 1.378 . S
C2230 C2231 1.367 . S
C2231 C2230 1.367 . S
C2231 C2233 1.433 . S
C2232 C2228 1.350 . S
C2232 C2229 1.463 . S
C2232 N2236 1.427 . S
C2233 H2223 0.929 . S
C2233 C2231 1.433 . S
C2233 N2236 1.384 . S
C2234 H2225 0.929 . S
C2234 C2226 1.378 . S
C2234 C2229 1.350 . S
C2235 H2222 0.929 . S
C2235 C2227 1.433 . S
C2235 N2237 1.384 . S
N2236 C2232 1.427 . S
N2236 C2233 1.384 . S
N2237 C2229 1.427 . S
N2237 C2235 1.384 . S
H2238 C2244 0.930 . S
H2239 C2248 0.930 . S
H2240 C2253 0.929 . S
H2241 C2251 0.929 . S
H2242 C2246 0.929 . S
H2243 C2252 0.929 . S
C2244 H2238 0.930 . S
C2244 C2245 1.367 . S
C2244 C2252 1.378 . S
C2245 C2244 1.367 . S
C2245 C2253 1.433 . S
C2246 H2242 0.929 . S
C2246 C2248 1.378 . S
C2246 C2250 1.350 . S
C2247 C2250 1.463 . S
C2247 C2252 1.350 . S
C2247 N2255 1.427 . S
C2248 H2239 0.930 . S
C2248 C2246 1.378 . S
C2248 C2249 1.367 . S
C2249 C2248 1.367 . S
C2249 C2251 1.433 . S
C2250 C2246 1.350 . S
C2250 C2247 1.463 . S
C2250 N2254 1.427 . S
C2251 H2241 0.929 . S
C2251 C2249 1.433 . S
C2251 N2254 1.384 . S
C2252 H2243 0.929 . S
C2252 C2244 1.378 . S
C2252 C2247 1.350 . S
C2253 H2240 0.929 . S
C2253 C2245 1.433 . S
C2253 N2255 1.384 . S
N2254 C2250 1.427 . S
N2254 C2251 1.384 . S
N2255 C2247 1.427 . S
N2255 C2253 1.384 . S
H2256 C2262 0.930 . S
H2257 C2266 0.930 . S
H2258 C2271 0.929 . S
H2259 C2269 0.929 . S
H2260 C2264 0.929 . S
H2261 C2270 0.929 . S
C2262 H2256 0.930 . S
C2262 C2263 1.367 . S
C2262 C2270 1.378 . S
C2263 C2262 1.367 . S
C2263 C2271 1.433 . S
C2264 H2260 0.929 . S
C2264 C2266 1.378 . S
C2264 C2268 1.350 . S
C2265 C2268 1.463 . S
C2265 C2270 1.350 . S
C2265 N2273 1.427 . S
C2266 H2257 0.930 . S
C2266 C2264 1.378 . S
C2266 C2267 1.367 . S
C2267 C2266 1.367 . S
C2267 C2269 1.433 . S
C2268 C2264 1.350 . S
C2268 C2265 1.463 . S
C2268 N2272 1.427 . S
C2269 H2259 0.929 . S
C2269 C2267 1.433 . S
C2269 N2272 1.384 . S
C2270 H2261 0.929 . S
C2270 C2262 1.378 . S
C2270 C2265 1.350 . S
C2271 H2258 0.929 . S
C2271 C2263 1.433 . S
C2271 N2273 1.384 . S
N2272 C2268 1.427 . S
N2272 C2269 1.384 . S
N2273 C2265 1.427 . S
N2273 C2271 1.384 . S
H2274 C2280 0.930 . S
H2275 C2284 0.930 . S
H2276 C2289 0.929 . S
H2277 C2287 0.929 . S
H2278 C2282 0.929 . S
H2279 C2288 0.929 . S
C2280 H2274 0.930 . S
C2280 C2281 1.367 . S
C2280 C2288 1.378 . S
C2281 C2280 1.367 . S
C2281 C2289 1.433 . S
C2282 H2278 0.929 . S
C2282 C2284 1.378 . S
C2282 C2286 1.350 . S
C2283 C2286 1.463 . S
C2283 C2288 1.350 . S
C2283 N2291 1.427 . S
C2284 H2275 0.930 . S
C2284 C2282 1.378 . S
C2284 C2285 1.367 . S
C2285 C2284 1.367 . S
C2285 C2287 1.433 . S
C2286 C2282 1.350 . S
C2286 C2283 1.463 . S
C2286 N2290 1.427 . S
C2287 H2277 0.929 . S
C2287 C2285 1.433 . S
C2287 N2290 1.384 . S
C2288 H2279 0.929 . S
C2288 C2280 1.378 . S
C2288 C2283 1.350 . S
C2289 H2276 0.929 . S
C2289 C2281 1.433 . S
C2289 N2291 1.384 . S
N2290 C2286 1.427 . S
N2290 C2287 1.384 . S
N2291 C2283 1.427 . S
N2291 C2289 1.384 . S
H2292 C2298 0.930 . S
H2293 C2302 0.930 . S
H2294 C2307 0.929 . S
H2295 C2305 0.929 . S
H2296 C2300 0.929 . S
H2297 C2306 0.929 . S
C2298 H2292 0.930 . S
C2298 C2299 1.367 . S
C2298 C2306 1.378 . S
C2299 C2298 1.367 . S
C2299 C2307 1.433 . S
C2300 H2296 0.929 . S
C2300 C2302 1.378 . S
C2300 C2304 1.350 . S
C2301 C2304 1.463 . S
C2301 C2306 1.350 . S
C2301 N2309 1.427 . S
C2302 H2293 0.930 . S
C2302 C2300 1.378 . S
C2302 C2303 1.367 . S
C2303 C2302 1.367 . S
C2303 C2305 1.433 . S
C2304 C2300 1.350 . S
C2304 C2301 1.463 . S
C2304 N2308 1.427 . S
C2305 H2295 0.929 . S
C2305 C2303 1.433 . S
C2305 N2308 1.384 . S
C2306 H2297 0.929 . S
C2306 C2298 1.378 . S
C2306 C2301 1.350 . S
C2307 H2294 0.929 . S
C2307 C2299 1.433 . S
C2307 N2309 1.384 . S
N2308 C2304 1.427 . S
N2308 C2305 1.384 . S
N2309 C2301 1.427 . S
N2309 C2307 1.384 . S
H2310 C2316 0.930 . S
H2311 C2320 0.930 . S
H2312 C2325 0.929 . S
H2313 C2323 0.929 . S
H2314 C2318 0.929 . S
H2315 C2324 0.929 . S
C2316 H2310 0.930 . S
C2316 C2317 1.367 . S
C2316 C2324 1.378 . S
C2317 C2316 1.367 . S
C2317 C2325 1.433 . S
C2318 H2314 0.929 . S
C2318 C2320 1.378 . S
C2318 C2322 1.350 . S
C2319 C2322 1.463 . S
C2319 C2324 1.350 . S
C2319 N2327 1.427 . S
C2320 H2311 0.930 . S
C2320 C2318 1.378 . S
C2320 C2321 1.367 . S
C2321 C2320 1.367 . S
C2321 C2323 1.433 . S
C2322 C2318 1.350 . S
C2322 C2319 1.463 . S
C2322 N2326 1.427 . S
C2323 H2313 0.929 . S
C2323 C2321 1.433 . S
C2323 N2326 1.384 . S
C2324 H2315 0.929 . S
C2324 C2316 1.378 . S
C2324 C2319 1.350 . S
C2325 H2312 0.929 . S
C2325 C2317 1.433 . S
C2325 N2327 1.384 . S
N2326 C2322 1.427 . S
N2326 C2323 1.384 . S
N2327 C2319 1.427 . S
N2327 C2325 1.384 . S
H2328 C2334 0.930 . S
H2329 C2338 0.930 . S
H2330 C2343 0.929 . S
H2331 C2341 0.929 . S
H2332 C2336 0.929 . S
H2333 C2342 0.929 . S
C2334 H2328 0.930 . S
C2334 C2335 1.367 . S
C2334 C2342 1.378 . S
C2335 C2334 1.367 . S
C2335 C2343 1.433 . S
C2336 H2332 0.929 . S
C2336 C2338 1.378 . S
C2336 C2340 1.350 . S
C2337 C2340 1.463 . S
C2337 C2342 1.350 . S
C2337 N2345 1.427 . S
C2338 H2329 0.930 . S
C2338 C2336 1.378 . S
C2338 C2339 1.367 . S
C2339 C2338 1.367 . S
C2339 C2341 1.433 . S
C2340 C2336 1.350 . S
C2340 C2337 1.463 . S
C2340 N2344 1.427 . S
C2341 H2331 0.929 . S
C2341 C2339 1.433 . S
C2341 N2344 1.384 . S
C2342 H2333 0.929 . S
C2342 C2334 1.378 . S
C2342 C2337 1.350 . S
C2343 H2330 0.929 . S
C2343 C2335 1.433 . S
C2343 N2345 1.384 . S
N2344 C2340 1.427 . S
N2344 C2341 1.384 . S
N2345 C2337 1.427 . S
N2345 C2343 1.384 . S
H2346 C2352 0.930 . S
H2347 C2356 0.930 . S
H2348 C2361 0.929 . S
H2349 C2359 0.929 . S
H2350 C2354 0.929 . S
H2351 C2360 0.929 . S
C2352 H2346 0.930 . S
C2352 C2353 1.367 . S
C2352 C2360 1.378 . S
C2353 C2352 1.367 . S
C2353 C2361 1.433 . S
C2354 H2350 0.929 . S
C2354 C2356 1.378 . S
C2354 C2358 1.350 . S
C2355 C2358 1.463 . S
C2355 C2360 1.350 . S
C2355 N2363 1.427 . S
C2356 H2347 0.930 . S
C2356 C2354 1.378 . S
C2356 C2357 1.367 . S
C2357 C2356 1.367 . S
C2357 C2359 1.433 . S
C2358 C2354 1.350 . S
C2358 C2355 1.463 . S
C2358 N2362 1.427 . S
C2359 H2349 0.929 . S
C2359 C2357 1.433 . S
C2359 N2362 1.384 . S
C2360 H2351 0.929 . S
C2360 C2352 1.378 . S
C2360 C2355 1.350 . S
C2361 H2348 0.929 . S
C2361 C2353 1.433 . S
C2361 N2363 1.384 . S
N2362 C2358 1.427 . S
N2362 C2359 1.384 . S
N2363 C2355 1.427 . S
N2363 C2361 1.384 . S
H2364 C2370 0.930 . S
H2365 C2374 0.930 . S
H2366 C2379 0.929 . S
H2367 C2377 0.929 . S
H2368 C2372 0.929 . S
H2369 C2378 0.929 . S
C2370 H2364 0.930 . S
C2370 C2371 1.367 . S
C2370 C2378 1.378 . S
C2371 C2370 1.367 . S
C2371 C2379 1.433 . S
C2372 H2368 0.929 . S
C2372 C2374 1.378 . S
C2372 C2376 1.350 . S
C2373 C2376 1.463 . S
C2373 C2378 1.350 . S
C2373 N2381 1.427 . S
C2374 H2365 0.930 . S
C2374 C2372 1.378 . S
C2374 C2375 1.367 . S
C2375 C2374 1.367 . S
C2375 C2377 1.433 . S
C2376 C2372 1.350 . S
C2376 C2373 1.463 . S
C2376 N2380 1.427 . S
C2377 H2367 0.929 . S
C2377 C2375 1.433 . S
C2377 N2380 1.384 . S
C2378 H2369 0.929 . S
C2378 C2370 1.378 . S
C2378 C2373 1.350 . S
C2379 H2366 0.929 . S
C2379 C2371 1.433 . S
C2379 N2381 1.384 . S
N2380 C2376 1.427 . S
N2380 C2377 1.384 . S
N2381 C2373 1.427 . S
N2381 C2379 1.384 . S
H2382 C2388 0.930 . S
H2383 C2392 0.930 . S
H2384 C2397 0.929 . S
H2385 C2395 0.929 . S
H2386 C2390 0.929 . S
H2387 C2396 0.929 . S
C2388 H2382 0.930 . S
C2388 C2389 1.367 . S
C2388 C2396 1.378 . S
C2389 C2388 1.367 . S
C2389 C2397 1.433 . S
C2390 H2386 0.929 . S
C2390 C2392 1.378 . S
C2390 C2394 1.350 . S
C2391 C2394 1.463 . S
C2391 C2396 1.350 . S
C2391 N2399 1.427 . S
C2392 H2383 0.930 . S
C2392 C2390 1.378 . S
C2392 C2393 1.367 . S
C2393 C2392 1.367 . S
C2393 C2395 1.433 . S
C2394 C2390 1.350 . S
C2394 C2391 1.463 . S
C2394 N2398 1.427 . S
C2395 H2385 0.929 . S
C2395 C2393 1.433 . S
C2395 N2398 1.384 . S
C2396 H2387 0.929 . S
C2396 C2388 1.378 . S
C2396 C2391 1.350 . S
C2397 H2384 0.929 . S
C2397 C2389 1.433 . S
C2397 N2399 1.384 . S
N2398 C2394 1.427 . S
N2398 C2395 1.384 . S
N2399 C2391 1.427 . S
N2399 C2397 1.384 . S
C679 C134 1.715 . S
C683 C8 1.715 . S
C697 C148 1.708 . S
C701 C22 1.708 . S
C715 C162 1.717 . S
C719 C36 1.717 . S
C733 C120 1.709 . S
C737 C50 1.709 . S
C751 C64 1.712 . S
C755 C218 1.712 . S
C769 C78 1.708 . S
C773 C176 1.708 . S
C787 C92 1.713 . S
C791 C190 1.714 . S
C805 C204 1.713 . S
C809 C106 1.713 . S
C823 C232 1.707 . S
C827 C260 1.707 . S
C841 C246 1.707 . S
C845 C652 1.708 . S
C859 C274 1.709 . S
C863 C666 1.709 . S
C877 C288 1.716 . S
C881 C638 1.716 . S
C895 C302 1.707 . S
C899 C624 1.707 . S
C913 C582 1.716 . S
C917 C316 1.716 . S
C931 C330 1.715 . S
C935 C610 1.715 . S
C949 C470 1.711 . S
C953 C344 1.711 . S
C967 C484 1.717 . S
C971 C358 1.717 . S
C985 C498 1.718 . S
C989 C372 1.718 . S
C1003 C456 1.711 . S
C1007 C386 1.710 . S
C1021 C554 1.708 . S
C1025 C400 1.709 . S
C1039 C512 1.707 . S
C1043 C414 1.707 . S
C1057 C428 1.717 . S
C1061 C526 1.717 . S
C1075 C442 1.711 . S
C1079 C540 1.710 . S
C1093 C568 1.710 . S
C1097 C596 1.709 . S
C1111 C227 1.027 . S
C1115 C9 0.962 . S
C1129 C661 1.004 . S
C1133 C23 0.934 . S
C1147 C37 0.966 . S
C1151 C297 1.027 . S
C1165 C647 1.027 . S
C1169 C51 0.962 . S
C1183 C65 0.939 . S
C1187 C577 1.002 . S
C1201 C591 1.025 . S
C1205 C79 0.970 . S
C1219 C93 0.937 . S
C1223 C605 1.002 . S
C1237 C283 1.002 . S
C1241 C107 0.937 . S
C1255 C121 0.969 . S
C1259 C3 1.026 . S
C1273 C17 1.006 . S
C1277 C135 0.952 . S
C1291 C149 0.944 . S
C1295 C31 1.003 . S
C1309 C45 1.020 . S
C1313 C163 0.945 . S
C1327 C177 0.965 . S
C1331 C59 1.014 . S
C1345 C73 1.022 . S
C1349 C191 0.970 . S
C1363 C205 0.949 . S
C1367 C87 1.004 . S
C1381 C219 0.969 . S
C1385 C101 1.026 . S
C1399 C233 0.968 . S
C1403 C115 1.026 . S
C1417 C247 0.941 . S
C1421 C507 1.017 . S
C1435 C521 1.012 . S
C1439 C261 0.963 . S
C1453 C535 1.026 . S
C1457 C275 0.960 . S
C1471 C213 1.013 . S
C1475 C289 0.963 . S
C1489 C303 0.933 . S
C1493 C143 1.007 . S
C1507 C493 1.018 . S
C1511 C317 0.968 . S
C1525 C331 0.961 . S
C1529 C465 1.011 . S
C1543 C345 0.935 . S
C1547 C563 1.003 . S
C1561 C359 0.966 . S
C1565 C325 1.016 . S
C1579 C373 0.933 . S
C1583 C633 1.004 . S
C1597 C387 0.962 . S
C1601 C311 1.012 . S
C1615 C401 0.933 . S
C1619 C241 1.006 . S
C1633 C415 0.970 . S
C1637 C255 1.025 . S
C1651 C269 1.019 . S
C1655 C429 0.969 . S
C1669 C619 1.011 . S
C1673 C443 0.935 . S
C1687 C339 1.027 . S
C1691 C457 0.968 . S
C1705 C353 1.003 . S
C1709 C471 0.945 . S
C1723 C485 0.947 . S
C1727 C367 1.021 . S
C1741 C381 1.019 . S
C1745 C499 0.943 . S
C1759 C513 0.953 . S
C1763 C395 1.024 . S
C1777 C527 0.952 . S
C1781 C409 1.024 . S
C1795 C541 0.965 . S
C1799 C423 1.027 . S
C1813 C437 1.016 . S
C1817 C555 0.940 . S
C1831 C569 0.933 . S
C1835 C451 1.006 . S
C1849 C583 0.956 . S
C1853 C171 1.008 . S
C1867 C185 1.007 . S
C1871 C597 0.954 . S
C1885 C611 0.965 . S
C1889 C199 1.014 . S
C1903 C625 0.967 . S
C1907 C549 1.017 . S
C1921 C479 1.017 . S
C1925 C639 0.940 . S
C1939 C157 1.013 . S
C1943 C653 0.963 . S
C1957 C129 1.023 . S
C1961 C667 0.970 . S
C1975 C315 1.288 . S
C1979 C7 1.288 . S
C1993 C21 1.272 . S
C1997 C567 1.272 . S
C2011 C35 1.274 . S
C2015 C329 1.276 . S
C2029 C637 1.278 . S
C2033 C49 1.280 . S
C2047 C63 1.283 . S
C2051 C259 1.282 . S
C2065 C273 1.287 . S
C2069 C77 1.288 . S
C2083 C623 1.273 . S
C2087 C91 1.274 . S
C2101 C105 1.277 . S
C2105 C245 1.276 . S
C2119 C189 1.276 . S
C2123 C119 1.274 . S
C2137 C133 1.285 . S
C2141 C203 1.283 . S
C2155 C217 1.277 . S
C2159 C147 1.278 . S
C2173 C161 1.283 . S
C2177 C175 1.282 . S
C2191 C357 1.272 . S
C2195 C231 1.271 . S
C2209 C287 1.283 . S
C2213 C427 1.284 . S
C2227 C301 1.281 . S
C2231 C385 1.282 . S
C2245 C651 1.288 . S
C2249 C343 1.287 . S
C2263 C371 1.286 . S
C2267 C665 1.285 . S
C2281 C399 1.272 . S
C2285 C595 1.271 . S
C2299 C413 1.285 . S
C2303 C609 1.286 . S
C2317 C581 1.271 . S
C2321 C441 1.272 . S
C2335 C525 1.282 . S
C2339 C455 1.283 . S
C2353 C469 1.277 . S
C2357 C539 1.276 . S
C2371 C483 1.272 . S
C2375 C553 1.272 . S
C2389 C511 1.288 . S
C2393 C497 1.287 . S
