# Generated by pormake.
# Topology npo, (4)-cn, num edge types: 1
# Building blocks:
#     Node 0, Type 0, BuildingBlock: NAHDIM_clean_sbu_0, # of connection points: 4
#     Node 1, Type 0, BuildingBlock: NAHDIM_clean_sbu_0, # of connection points: 4
#     Node 2, Type 0, BuildingBlock: NAHDIM_clean_sbu_0, # of connection points: 4
#     Node 3, Type 0, BuildingBlock: NAHDIM_clean_sbu_0, # of connection points: 4
#     Node 4, Type 0, BuildingBlock: NAHDIM_clean_sbu_0, # of connection points: 4
#     Node 5, Type 0, BuildingBlock: NAHDIM_clean_sbu_0, # of connection points: 4
#     Edge 6, Type (0, 0), BuildingBlock: EZIPEK_clean_linker_0, # of connection points: 2
#     Edge 7, Type (0, 0), BuildingBlock: EZIPEK_clean_linker_0, # of connection points: 2
#     Edge 8, Type (0, 0), BuildingBlock: EZIPEK_clean_linker_0, # of connection points: 2
#     Edge 9, Type (0, 0), BuildingBlock: EZIPEK_clean_linker_0, # of connection points: 2
#     Edge 10, Type (0, 0), BuildingBlock: EZIPEK_clean_linker_0, # of connection points: 2
#     Edge 11, Type (0, 0), BuildingBlock: EZIPEK_clean_linker_0, # of connection points: 2
#     Edge 12, Type (0, 0), BuildingBlock: EZIPEK_clean_linker_0, # of connection points: 2
#     Edge 13, Type (0, 0), BuildingBlock: EZIPEK_clean_linker_0, # of connection points: 2
#     Edge 14, Type (0, 0), BuildingBlock: EZIPEK_clean_linker_0, # of connection points: 2
#     Edge 15, Type (0, 0), BuildingBlock: EZIPEK_clean_linker_0, # of connection points: 2
#     Edge 16, Type (0, 0), BuildingBlock: EZIPEK_clean_linker_0, # of connection points: 2
#     Edge 17, Type (0, 0), BuildingBlock: EZIPEK_clean_linker_0, # of connection points: 2
# Relax obj value: 0.247
# Max RMSD: 0.227
# Mean RMSD: 0.223
data_MOF--net-npo--node1-NAHDIM_clean_sbu_0--edge1-EZIPEK_clean_linker_0
_symmetry_space_group_name_H-M    P1
_symmetry_Int_Tables_number       1
_symmetry_cell_setting            triclinic
loop_
_symmetry_equiv_pos_as_xyz
'x, y, z'
_cell_length_a     30.28454
_cell_length_b     31.769971
_cell_length_c     18.687534
_cell_angle_alpha  92.023063
_cell_angle_beta   90.692008
_cell_angle_gamma 117.30777
loop_
_atom_site_label
_atom_site_type_symbol
_atom_site_fract_x
_atom_site_fract_y
_atom_site_fract_z
_atom_type_partial_charge
C0 C 0.4999 0.04495 0.37172 0.0
O1 O 0.51999 0.02629 0.32709 0.0
O2 O 0.59837 0.13594 0.2646 0.0
Zn3 Zn 0.52389 0.11027 0.26142 0.0
O4 O 0.4962 0.06063 0.18142 0.0
C5 C 0.53234 0.20522 0.26058 0.0
O6 O 0.5724 0.21671 0.30084 0.0
O7 O 0.49656 0.08182 0.35513 0.0
C8 C 0.45654 0.05338 0.14763 0.0
O9 O 0.4324 0.07702 0.16735 0.0
C10 C 0.62254 0.16129 0.21391 0.0
O11 O 0.59807 0.1679 0.16065 0.0
O12 O 0.50535 0.16222 0.2401 0.0
C13 C 0.49671 0.54571 0.62567 0.0
O14 O 0.46803 0.51034 0.66466 0.0
O15 O 0.39527 0.5453 0.71338 0.0
Zn16 Zn 0.46777 0.59304 0.72859 0.0
O17 O 0.4998 0.57928 0.81376 0.0
C18 C 0.43838 0.66368 0.76852 0.0
O19 O 0.40292 0.62758 0.79887 0.0
O20 O 0.50315 0.58728 0.64206 0.0
C21 C 0.4944 0.58854 0.87877 0.0
O22 O 0.46662 0.6092 0.89437 0.0
C23 C 0.36698 0.51953 0.76081 0.0
O24 O 0.38522 0.52527 0.82647 0.0
O25 O 0.47232 0.65837 0.73633 0.0
C26 C 0.92724 0.41101 0.36495 0.0
O27 O 0.87996 0.38562 0.37822 0.0
O28 O 0.84066 0.41254 0.22642 0.0
Zn29 Zn 0.88999 0.38711 0.22111 0.0
O30 O 0.92229 0.40151 0.12616 0.0
C31 C 0.82098 0.29172 0.18353 0.0
O32 O 0.81933 0.31215 0.12431 0.0
O33 O 0.94103 0.41684 0.30062 0.0
C34 C 0.96196 0.39838 0.1151 0.0
O35 O 0.98162 0.38408 0.16585 0.0
C36 C 0.8508 0.45563 0.21993 0.0
O37 O 0.8965 0.48742 0.20818 0.0
O38 O 0.8513 0.31726 0.23324 0.0
C39 C 0.43622 0.9563 0.64191 0.0
O40 O 0.47062 0.95711 0.68623 0.0
O41 O 0.40976 0.85754 0.74875 0.0
Zn42 Zn 0.37409 0.89792 0.7478 0.0
O43 O 0.39536 0.94259 0.83446 0.0
C44 C 0.28073 0.82582 0.69541 0.0
O45 O 0.30808 0.8304 0.6393 0.0
O46 O 0.39075 0.93383 0.65751 0.0
C47 C 0.38857 0.92608 0.89656 0.0
O48 O 0.36704 0.88001 0.90338 0.0
C49 C 0.38884 0.8168 0.77494 0.0
O50 O 0.34552 0.80222 0.80459 0.0
O51 O 0.30098 0.85381 0.74947 0.0
C52 C 0.58317 0.53397 0.11027 0.0
O53 O 0.62954 0.5597 0.13279 0.0
O54 O 0.65292 0.49298 0.2183 0.0
Zn55 Zn 0.58054 0.47672 0.22738 0.0
O56 O 0.56907 0.50811 0.31466 0.0
C57 C 0.53419 0.37666 0.18635 0.0
O58 O 0.55566 0.39299 0.1257 0.0
O59 O 0.5555 0.49642 0.1416 0.0
C60 C 0.57801 0.49824 0.37667 0.0
O61 O 0.59815 0.46975 0.38371 0.0
C62 C 0.66847 0.46559 0.2443 0.0
O63 O 0.63811 0.42867 0.27905 0.0
O64 O 0.5407 0.40654 0.23737 0.0
C65 C 0.05386 0.46352 0.84484 0.0
O66 O 0.05712 0.43473 0.79548 0.0
O67 O 0.16746 0.52335 0.74054 0.0
Zn68 Zn 0.10633 0.53355 0.74301 0.0
O69 O 0.05904 0.5015 0.65884 0.0
C70 C 0.16182 0.62983 0.70411 0.0
O71 O 0.18128 0.61042 0.65972 0.0
O72 O 0.07163 0.50747 0.83398 0.0
C73 C 0.07347 0.49924 0.59594 0.0
O74 O 0.12117 0.51772 0.58375 0.0
C75 C 0.16911 0.48645 0.71525 0.0
O76 O 0.12903 0.45095 0.68637 0.0
O77 O 0.12762 0.60372 0.74476 0.0
C78 C 0.5089 0.26958 0.29182 0.0
C79 C 0.51924 0.24256 0.23862 0.0
C80 C 0.5131 0.29268 0.14616 0.0
C81 C 0.51392 0.32504 0.20077 0.0
N82 N 0.48264 0.33004 0.31686 0.0
N83 N 0.52918 0.22672 0.11378 0.0
C84 C 0.50276 0.30932 0.27145 0.0
C85 C 0.51957 0.25289 0.1651 0.0
N86 N 0.50596 0.25779 0.36187 0.0
N87 N 0.50289 0.29847 0.07689 0.0
H88 H 0.53296 0.19661 0.12457 0.0
H89 H 0.53644 0.23653 0.06095 0.0
H90 H 0.4926 0.32443 0.06342 0.0
H91 H 0.49782 0.27408 0.03492 0.0
H92 H 0.5051 0.27953 0.40427 0.0
H93 H 0.50648 0.22691 0.378 0.0
H94 H 0.47061 0.3184 0.36774 0.0
H95 H 0.4714 0.35461 0.29961 0.0
C96 C 0.27818 0.47713 0.8017 0.0
C97 C 0.31202 0.49278 0.7452 0.0
C98 C 0.24564 0.48759 0.66359 0.0
C99 C 0.21553 0.48238 0.7235 0.0
N100 N 0.20028 0.46822 0.84893 0.0
N101 N 0.31941 0.48556 0.61802 0.0
C102 C 0.23072 0.47537 0.79233 0.0
C103 C 0.29313 0.48962 0.67437 0.0
N104 N 0.28989 0.46039 0.86153 0.0
N105 N 0.23006 0.49317 0.59728 0.0
H106 H 0.35151 0.48167 0.62578 0.0
H107 H 0.3064 0.47977 0.56496 0.0
H108 H 0.19493 0.49051 0.58709 0.0
H109 H 0.25284 0.50299 0.55327 0.0
H110 H 0.26554 0.44561 0.90289 0.0
H111 H 0.32118 0.45479 0.86476 0.0
H112 H 0.21171 0.46904 0.90197 0.0
H113 H 0.16401 0.46361 0.84309 0.0
C114 C 0.70749 0.21044 0.27377 0.0
C115 C 0.67765 0.18337 0.21334 0.0
C116 C 0.75143 0.21323 0.1396 0.0
C117 C 0.77935 0.24415 0.19792 0.0
N118 N 0.79072 0.24948 0.32653 0.0
N119 N 0.67451 0.14533 0.09808 0.0
C120 C 0.75975 0.2353 0.26726 0.0
C121 C 0.70079 0.18027 0.14903 0.0
N122 N 0.6865 0.21541 0.33572 0.0
N123 N 0.77347 0.21601 0.07544 0.0
H124 H 0.63805 0.11957 0.10532 0.0
H125 H 0.68995 0.139 0.05205 0.0
H126 H 0.81177 0.23619 0.07018 0.0
H127 H 0.75415 0.19902 0.02801 0.0
H128 H 0.70707 0.23928 0.37754 0.0
H129 H 0.64844 0.19909 0.34363 0.0
H130 H 0.77793 0.24115 0.37823 0.0
H131 H 0.8291 0.26281 0.32302 0.0
C132 C 0.42908 0.77315 0.83375 0.0
C133 C 0.41162 0.78453 0.77017 0.0
C134 C 0.4188 0.72059 0.70262 0.0
C135 C 0.43552 0.70875 0.7665 0.0
N136 N 0.4673 0.72898 0.88816 0.0
N137 N 0.39946 0.77656 0.64161 0.0
C138 C 0.44406 0.73679 0.83071 0.0
C139 C 0.41005 0.76091 0.70362 0.0
N140 N 0.43019 0.79647 0.89721 0.0
N141 N 0.40827 0.69156 0.64227 0.0
H142 H 0.39078 0.8047 0.64041 0.0
H143 H 0.40295 0.76417 0.59076 0.0
H144 H 0.41487 0.6621 0.63897 0.0
H145 H 0.39007 0.69467 0.59671 0.0
H146 H 0.4366 0.7862 0.94693 0.0
H147 H 0.42262 0.82537 0.90048 0.0
H148 H 0.47874 0.75066 0.9347 0.0
H149 H 0.47905 0.7028 0.88692 0.0
C150 C 0.73151 0.4591 0.16609 0.0
C151 C 0.71972 0.47325 0.233 0.0
C152 C 0.80119 0.48911 0.28392 0.0
C153 C 0.80974 0.46846 0.22056 0.0
N154 N 0.78532 0.43472 0.1004 0.0
N155 N 0.74218 0.50311 0.35521 0.0
C156 C 0.77581 0.45432 0.16093 0.0
C157 C 0.75456 0.48925 0.29163 0.0
N158 N 0.70008 0.4499 0.10787 0.0
N159 N 0.83759 0.50819 0.33659 0.0
H160 H 0.70951 0.50613 0.3612 0.0
H161 H 0.76305 0.51001 0.40274 0.0
H162 H 0.87171 0.50774 0.33278 0.0
H163 H 0.83578 0.52742 0.38168 0.0
H164 H 0.70846 0.44374 0.05596 0.0
H165 H 0.6666 0.45168 0.11031 0.0
H166 H 0.75969 0.41817 0.05821 0.0
H167 H 0.81876 0.43331 0.09336 0.0
C168 C 0.22107 0.75964 0.76868 0.0
C169 C 0.23338 0.78105 0.70171 0.0
C170 C 0.17902 0.70408 0.64183 0.0
C171 C 0.17998 0.68183 0.70599 0.0
N172 N 0.20321 0.68899 0.83199 0.0
N173 N 0.21278 0.77654 0.57619 0.0
C174 C 0.20046 0.70965 0.77033 0.0
C175 C 0.20824 0.75407 0.63868 0.0
N176 N 0.22753 0.78662 0.8301 0.0
N177 N 0.14942 0.67741 0.58499 0.0
H178 H 0.22912 0.81346 0.57507 0.0
H179 H 0.2008 0.75909 0.5262 0.0
H180 H 0.12623 0.64112 0.58763 0.0
H181 H 0.14432 0.69141 0.53795 0.0
H182 H 0.21627 0.77207 0.87982 0.0
H183 H 0.23678 0.82251 0.82947 0.0
H184 H 0.22291 0.70859 0.87783 0.0
H185 H 0.18961 0.65253 0.83579 0.0
C186 C 0.37214 0.95446 0.01547 0.0
C187 C 0.40594 0.95853 0.96096 0.0
C188 C 0.47141 0.0278 0.02576 0.0
C189 C 0.43921 0.02053 0.08373 0.0
N190 N 0.36207 0.97131 0.13986 0.0
N191 N 0.49062 -0.00745 0.92169 0.0
C192 C 0.39038 0.98226 0.08036 0.0
C193 C 0.45644 -0.00661 0.96811 0.0
N194 N 0.32235 0.92558 0.00424 0.0
N195 N 0.51539 0.06849 0.0241 0.0
H196 H 0.48159 0.96705 0.87991 0.0
H197 H 0.52874 0.01413 0.92909 0.0
H198 H 0.52719 0.09542 0.06412 0.0
H199 H 0.53776 0.0777 0.97958 0.0
H200 H 0.2956 0.92505 0.03923 0.0
H201 H 0.30721 0.90555 0.95669 0.0
H202 H 0.32827 0.94075 0.14251 0.0
H203 H 0.3745 0.99023 0.1889 0.0
C204 C 0.50554 0.4923 0.4457 0.0
C205 C 0.55784 0.51193 0.43966 0.0
C206 C 0.57048 0.55317 0.55715 0.0
C207 C 0.51831 0.53628 0.5605 0.0
N208 N 0.43706 0.49831 0.50226 0.0
N209 N 0.64062 0.5661 0.48331 0.0
C210 C 0.48606 0.5083 0.50307 0.0
C211 C 0.59055 0.54385 0.49364 0.0
N212 N 0.47443 0.45682 0.39848 0.0
N213 N 0.60053 0.57647 0.61558 0.0
H214 H 0.65652 0.55966 0.43767 0.0
H215 H 0.66604 0.59352 0.51708 0.0
H216 H 0.58718 0.58426 0.66279 0.0
H217 H 0.63806 0.58504 0.61939 0.0
H218 H 0.43628 0.43758 0.4051 0.0
H219 H 0.48708 0.44343 0.35612 0.0
H220 H 0.41289 0.48231 0.45826 0.0
H221 H 0.42163 0.5102 0.54289 0.0
C222 C 0.9811 0.40915 0.91506 0.0
C223 C 0.03107 0.44518 0.9139 0.0
C224 C 0.03538 0.4515 0.04507 0.0
C225 C 0.98681 0.41297 0.04621 0.0
N226 N 0.91734 0.34861 0.98315 0.0
N227 N 0.10939 0.49319 0.97712 0.0
C228 C 0.96078 0.38983 0.98138 0.0
C229 C 0.05932 0.46421 0.97874 0.0
N230 N 0.95229 0.39489 0.85341 0.0
N231 N 0.05778 0.47751 0.10673 0.0
H232 H 0.12859 0.50286 0.92965 0.0
H233 H 0.13267 0.50391 0.02276 0.0
H234 H 0.04131 0.47 0.15646 0.0
H235 H 0.09074 0.50915 0.10755 0.0
H236 H 0.91416 0.37252 0.85244 0.0
H237 H 0.96544 0.40873 0.80383 0.0
H238 H 0.89935 0.32757 0.93753 0.0
H239 H 0.90178 0.33296 0.03079 0.0
C240 C 0.44447 0.97528 0.44156 0.0
C241 C 0.48166 0.02315 0.441 0.0
C242 C 0.48305 0.02887 0.57224 0.0
C243 C 0.45042 0.97956 0.57276 0.0
N244 N 0.40667 0.90382 0.50802 0.0
N245 N 0.54239 0.0937 0.50557 0.0
C246 C 0.43269 0.95216 0.50745 0.0
C247 C 0.5025 0.04962 0.50628 0.0
N248 N 0.41927 0.95231 0.37946 0.0
N249 N 0.49426 0.05619 0.63446 0.0
H250 H 0.55834 0.10998 0.45851 0.0
H251 H 0.56251 0.11238 0.55165 0.0
H252 H 0.48019 0.04235 0.68372 0.0
H253 H 0.51359 0.09308 0.63621 0.0
H254 H 0.38824 0.91909 0.3779 0.0
H255 H 0.42625 0.96833 0.33024 0.0
H256 H 0.39757 0.88181 0.46182 0.0
H257 H 0.39818 0.88523 0.55497 0.0
C258 C 0.54774 0.60924 -0.00883 0.0
C259 C 0.51852 0.57502 0.93682 0.0
C260 C 0.53922 0.51669 -0.00974 0.0
C261 C 0.56264 0.54888 0.04952 0.0
N262 N 0.58073 0.62292 0.11297 0.0
N263 N 0.47849 0.49307 0.89259 0.0
C264 C 0.56475 0.59448 0.05183 0.0
C265 C 0.51214 0.52786 0.93831 0.0
N266 N 0.56093 0.65615 0.98377 0.0
N267 N 0.54417 0.47614 0.98222 0.0
H268 H 0.45649 0.49904 0.85508 0.0
H269 H 0.46872 0.45727 0.8968 0.0
H270 H 0.5649 0.46727 0.01809 0.0
H271 H 0.53211 0.45386 0.93621 0.0
H272 H 0.58632 0.68302 0.01841 0.0
H273 H 0.55074 0.66878 0.93899 0.0
H274 H 0.57793 0.65429 0.11981 0.0
H275 H 0.59216 0.61304 0.15952 0.0
C276 C 0.03241 0.50454 0.48176 0.0
C277 C 0.03641 0.47643 0.53643 0.0
C278 C 0.97106 0.40479 0.47567 0.0
C279 C 0.96429 0.43343 0.42449 0.0
N280 N 0.98161 0.51101 0.38586 0.0
N281 N 0.00604 0.40074 0.59098 0.0
C282 C -0.00677 0.48346 0.4292 0.0
C283 C 0.00446 0.42684 0.53526 0.0
N284 N 0.066 0.55143 0.47996 0.0
N285 N 0.94754 0.35649 0.46534 0.0
H286 H 0.03208 0.41474 0.63338 0.0
H287 H 0.97956 0.36584 0.59759 0.0
H288 H 0.9234 0.33896 0.42176 0.0
H289 H 0.95514 0.33384 0.49629 0.0
H290 H 0.06868 0.57225 0.43681 0.0
H291 H 0.0937 0.56895 0.51937 0.0
H292 H -0.00236 0.54781 0.39206 0.0
H293 H 0.95249 0.49701 0.34767 0.0
loop_
_geom_bond_atom_site_label_1
_geom_bond_atom_site_label_2
_geom_bond_distance
_geom_bond_site_symmetry_2
_ccdc_geom_bond_type
C0 O1 1.160 . S
C0 O7 1.185 . S
O1 C0 1.160 . S
O2 Zn3 1.899 . S
O2 C10 1.284 . S
Zn3 O2 1.899 . S
Zn3 O4 2.032 . S
Zn3 O7 2.086 . S
Zn3 O12 1.977 . S
O4 Zn3 2.032 . S
O4 C8 1.278 . S
C5 O6 1.203 . S
C5 O12 1.267 . S
O6 C5 1.203 . S
O7 C0 1.185 . S
O7 Zn3 2.086 . S
C8 O4 1.278 . S
C8 O9 1.211 . S
O9 C8 1.211 . S
C10 O2 1.284 . S
C10 O11 1.273 . S
O11 C10 1.273 . S
O12 Zn3 1.977 . S
O12 C5 1.267 . S
C13 O14 1.160 . S
C13 O20 1.185 . S
O14 C13 1.160 . S
O15 Zn16 1.899 . S
O15 C23 1.284 . S
Zn16 O15 1.899 . S
Zn16 O17 2.032 . S
Zn16 O20 2.086 . S
Zn16 O25 1.977 . S
O17 Zn16 2.032 . S
O17 C21 1.278 . S
C18 O19 1.203 . S
C18 O25 1.267 . S
O19 C18 1.203 . S
O20 C13 1.185 . S
O20 Zn16 2.086 . S
C21 O17 1.278 . S
C21 O22 1.211 . S
O22 C21 1.211 . S
C23 O15 1.284 . S
C23 O24 1.273 . S
O24 C23 1.273 . S
O25 Zn16 1.977 . S
O25 C18 1.267 . S
C26 O27 1.160 . S
C26 O33 1.185 . S
O27 C26 1.160 . S
O28 Zn29 1.899 . S
O28 C36 1.284 . S
Zn29 O28 1.899 . S
Zn29 O30 2.032 . S
Zn29 O33 2.086 . S
Zn29 O38 1.977 . S
O30 Zn29 2.032 . S
O30 C34 1.278 . S
C31 O32 1.203 . S
C31 O38 1.267 . S
O32 C31 1.203 . S
O33 C26 1.185 . S
O33 Zn29 2.086 . S
C34 O30 1.278 . S
C34 O35 1.211 . S
O35 C34 1.211 . S
C36 O28 1.284 . S
C36 O37 1.273 . S
O37 C36 1.273 . S
O38 Zn29 1.977 . S
O38 C31 1.267 . S
C39 O40 1.160 . S
C39 O46 1.185 . S
O40 C39 1.160 . S
O41 Zn42 1.899 . S
O41 C49 1.284 . S
Zn42 O41 1.899 . S
Zn42 O43 2.032 . S
Zn42 O46 2.086 . S
Zn42 O51 1.977 . S
O43 Zn42 2.032 . S
O43 C47 1.278 . S
C44 O45 1.203 . S
C44 O51 1.267 . S
O45 C44 1.203 . S
O46 C39 1.185 . S
O46 Zn42 2.086 . S
C47 O43 1.278 . S
C47 O48 1.211 . S
O48 C47 1.211 . S
C49 O41 1.284 . S
C49 O50 1.273 . S
O50 C49 1.273 . S
O51 Zn42 1.977 . S
O51 C44 1.267 . S
C52 O53 1.160 . S
C52 O59 1.185 . S
O53 C52 1.160 . S
O54 Zn55 1.899 . S
O54 C62 1.284 . S
Zn55 O54 1.899 . S
Zn55 O56 2.032 . S
Zn55 O59 2.086 . S
Zn55 O64 1.977 . S
O56 Zn55 2.032 . S
O56 C60 1.278 . S
C57 O58 1.203 . S
C57 O64 1.267 . S
O58 C57 1.203 . S
O59 C52 1.185 . S
O59 Zn55 2.086 . S
C60 O56 1.278 . S
C60 O61 1.211 . S
O61 C60 1.211 . S
C62 O54 1.284 . S
C62 O63 1.273 . S
O63 C62 1.273 . S
O64 Zn55 1.977 . S
O64 C57 1.267 . S
C65 O66 1.160 . S
C65 O72 1.185 . S
O66 C65 1.160 . S
O67 Zn68 1.899 . S
O67 C75 1.284 . S
Zn68 O67 1.899 . S
Zn68 O69 2.032 . S
Zn68 O72 2.086 . S
Zn68 O77 1.977 . S
O69 Zn68 2.032 . S
O69 C73 1.278 . S
C70 O71 1.203 . S
C70 O77 1.267 . S
O71 C70 1.203 . S
O72 C65 1.185 . S
O72 Zn68 2.086 . S
C73 O69 1.278 . S
C73 O74 1.211 . S
O74 C73 1.211 . S
C75 O67 1.284 . S
C75 O76 1.273 . S
O76 C75 1.273 . S
O77 Zn68 1.977 . S
O77 C70 1.267 . S
C78 C79 1.363 . S
C78 C84 1.379 . S
C78 N86 1.356 . S
C79 C78 1.363 . S
C79 C85 1.363 . S
C80 C81 1.363 . S
C80 C85 1.379 . S
C80 N87 1.356 . S
C81 C80 1.363 . S
C81 C84 1.363 . S
N82 C84 1.356 . S
N82 H94 0.984 . S
N82 H95 0.985 . S
N83 C85 1.356 . S
N83 H88 0.984 . S
N83 H89 0.985 . S
C84 C78 1.379 . S
C84 C81 1.363 . S
C84 N82 1.356 . S
C85 C79 1.363 . S
C85 C80 1.379 . S
C85 N83 1.356 . S
N86 C78 1.356 . S
N86 H92 0.984 . S
N86 H93 0.984 . S
N87 C80 1.356 . S
N87 H90 0.984 . S
N87 H91 0.985 . S
H88 N83 0.984 . S
H89 N83 0.985 . S
H90 N87 0.984 . S
H91 N87 0.985 . S
H92 N86 0.984 . S
H93 N86 0.984 . S
H94 N82 0.984 . S
H95 N82 0.985 . S
C96 C97 1.363 . S
C96 C102 1.379 . S
C96 N104 1.356 . S
C97 C96 1.363 . S
C97 C103 1.363 . S
C98 C99 1.363 . S
C98 C103 1.379 . S
C98 N105 1.356 . S
C99 C98 1.363 . S
C99 C102 1.363 . S
N100 C102 1.356 . S
N100 H112 0.984 . S
N100 H113 0.985 . S
N101 C103 1.356 . S
N101 H106 0.984 . S
N101 H107 0.985 . S
C102 C96 1.379 . S
C102 C99 1.363 . S
C102 N100 1.356 . S
C103 C97 1.363 . S
C103 C98 1.379 . S
C103 N101 1.356 . S
N104 C96 1.356 . S
N104 H110 0.984 . S
N104 H111 0.984 . S
N105 C98 1.356 . S
N105 H108 0.984 . S
N105 H109 0.985 . S
H106 N101 0.984 . S
H107 N101 0.985 . S
H108 N105 0.984 . S
H109 N105 0.985 . S
H110 N104 0.984 . S
H111 N104 0.984 . S
H112 N100 0.984 . S
H113 N100 0.985 . S
C114 C115 1.363 . S
C114 C120 1.379 . S
C114 N122 1.356 . S
C115 C114 1.363 . S
C115 C121 1.363 . S
C116 C117 1.363 . S
C116 C121 1.379 . S
C116 N123 1.356 . S
C117 C116 1.363 . S
C117 C120 1.363 . S
N118 C120 1.356 . S
N118 H130 0.984 . S
N118 H131 0.985 . S
N119 C121 1.356 . S
N119 H124 0.984 . S
N119 H125 0.985 . S
C120 C114 1.379 . S
C120 C117 1.363 . S
C120 N118 1.356 . S
C121 C115 1.363 . S
C121 C116 1.379 . S
C121 N119 1.356 . S
N122 C114 1.356 . S
N122 H128 0.984 . S
N122 H129 0.984 . S
N123 C116 1.356 . S
N123 H126 0.984 . S
N123 H127 0.985 . S
H124 N119 0.984 . S
H125 N119 0.985 . S
H126 N123 0.984 . S
H127 N123 0.985 . S
H128 N122 0.984 . S
H129 N122 0.984 . S
H130 N118 0.984 . S
H131 N118 0.985 . S
C132 C133 1.363 . S
C132 C138 1.379 . S
C132 N140 1.356 . S
C133 C132 1.363 . S
C133 C139 1.363 . S
C134 C135 1.363 . S
C134 C139 1.379 . S
C134 N141 1.356 . S
C135 C134 1.363 . S
C135 C138 1.363 . S
N136 C138 1.356 . S
N136 H148 0.984 . S
N136 H149 0.985 . S
N137 C139 1.356 . S
N137 H142 0.984 . S
N137 H143 0.985 . S
C138 C132 1.379 . S
C138 C135 1.363 . S
C138 N136 1.356 . S
C139 C133 1.363 . S
C139 C134 1.379 . S
C139 N137 1.356 . S
N140 C132 1.356 . S
N140 H146 0.984 . S
N140 H147 0.984 . S
N141 C134 1.356 . S
N141 H144 0.984 . S
N141 H145 0.985 . S
H142 N137 0.984 . S
H143 N137 0.985 . S
H144 N141 0.984 . S
H145 N141 0.985 . S
H146 N140 0.984 . S
H147 N140 0.984 . S
H148 N136 0.984 . S
H149 N136 0.985 . S
C150 C151 1.363 . S
C150 C156 1.379 . S
C150 N158 1.356 . S
C151 C150 1.363 . S
C151 C157 1.363 . S
C152 C153 1.363 . S
C152 C157 1.379 . S
C152 N159 1.356 . S
C153 C152 1.363 . S
C153 C156 1.363 . S
N154 C156 1.356 . S
N154 H166 0.984 . S
N154 H167 0.985 . S
N155 C157 1.356 . S
N155 H160 0.984 . S
N155 H161 0.985 . S
C156 C150 1.379 . S
C156 C153 1.363 . S
C156 N154 1.356 . S
C157 C151 1.363 . S
C157 C152 1.379 . S
C157 N155 1.356 . S
N158 C150 1.356 . S
N158 H164 0.984 . S
N158 H165 0.984 . S
N159 C152 1.356 . S
N159 H162 0.984 . S
N159 H163 0.985 . S
H160 N155 0.984 . S
H161 N155 0.985 . S
H162 N159 0.984 . S
H163 N159 0.985 . S
H164 N158 0.984 . S
H165 N158 0.984 . S
H166 N154 0.984 . S
H167 N154 0.985 . S
C168 C169 1.363 . S
C168 C174 1.379 . S
C168 N176 1.356 . S
C169 C168 1.363 . S
C169 C175 1.363 . S
C170 C171 1.363 . S
C170 C175 1.379 . S
C170 N177 1.356 . S
C171 C170 1.363 . S
C171 C174 1.363 . S
N172 C174 1.356 . S
N172 H184 0.984 . S
N172 H185 0.985 . S
N173 C175 1.356 . S
N173 H178 0.984 . S
N173 H179 0.985 . S
C174 C168 1.379 . S
C174 C171 1.363 . S
C174 N172 1.356 . S
C175 C169 1.363 . S
C175 C170 1.379 . S
C175 N173 1.356 . S
N176 C168 1.356 . S
N176 H182 0.984 . S
N176 H183 0.984 . S
N177 C170 1.356 . S
N177 H180 0.984 . S
N177 H181 0.985 . S
H178 N173 0.984 . S
H179 N173 0.985 . S
H180 N177 0.984 . S
H181 N177 0.985 . S
H182 N176 0.984 . S
H183 N176 0.984 . S
H184 N172 0.984 . S
H185 N172 0.985 . S
C186 C187 1.363 . S
C186 C192 1.379 1_556 S
C186 N194 1.356 . S
C187 C186 1.363 . S
C187 C193 1.363 1_565 S
C188 C189 1.363 . S
C188 C193 1.379 1_554 S
C188 N195 1.356 . S
C189 C188 1.363 . S
C189 C192 1.363 1_545 S
N190 C192 1.356 . S
N190 H202 0.984 . S
N190 H203 0.985 1_565 S
N191 C193 1.356 . S
N191 H196 0.984 1_545 S
N191 H197 0.985 . S
C192 C186 1.379 1_554 S
C192 C189 1.363 1_565 S
C192 N190 1.356 . S
C193 C187 1.363 1_545 S
C193 C188 1.379 1_556 S
C193 N191 1.356 . S
N194 C186 1.356 . S
N194 H200 0.984 . S
N194 H201 0.984 . S
N195 C188 1.356 . S
N195 H198 0.984 . S
N195 H199 0.985 . S
H196 N191 0.984 1_565 S
H197 N191 0.985 . S
H198 N195 0.984 . S
H199 N195 0.985 . S
H200 N194 0.984 . S
H201 N194 0.984 . S
H202 N190 0.984 . S
H203 N190 0.985 1_545 S
C204 C205 1.363 . S
C204 C210 1.379 . S
C204 N212 1.356 . S
C205 C204 1.363 . S
C205 C211 1.363 . S
C206 C207 1.363 . S
C206 C211 1.379 . S
C206 N213 1.356 . S
C207 C206 1.363 . S
C207 C210 1.363 . S
N208 C210 1.356 . S
N208 H220 0.984 . S
N208 H221 0.985 . S
N209 C211 1.356 . S
N209 H214 0.984 . S
N209 H215 0.985 . S
C210 C204 1.379 . S
C210 C207 1.363 . S
C210 N208 1.356 . S
C211 C205 1.363 . S
C211 C206 1.379 . S
C211 N209 1.356 . S
N212 C204 1.356 . S
N212 H218 0.984 . S
N212 H219 0.984 . S
N213 C206 1.356 . S
N213 H216 0.984 . S
N213 H217 0.985 . S
H214 N209 0.984 . S
H215 N209 0.985 . S
H216 N213 0.984 . S
H217 N213 0.985 . S
H218 N212 0.984 . S
H219 N212 0.984 . S
H220 N208 0.984 . S
H221 N208 0.985 . S
C222 C223 1.363 1_655 S
C222 C228 1.379 1_556 S
C222 N230 1.356 . S
C223 C222 1.363 1_455 S
C223 C229 1.363 1_556 S
C224 C225 1.363 1_455 S
C224 C229 1.379 . S
C224 N231 1.356 . S
C225 C224 1.363 1_655 S
C225 C228 1.363 . S
N226 C228 1.356 . S
N226 H238 0.984 . S
N226 H239 0.985 . S
N227 C229 1.356 . S
N227 H232 0.984 1_554 S
N227 H233 0.985 . S
C228 C222 1.379 1_554 S
C228 C225 1.363 . S
C228 N226 1.356 . S
C229 C223 1.363 1_554 S
C229 C224 1.379 . S
C229 N227 1.356 . S
N230 C222 1.356 . S
N230 H236 0.984 . S
N230 H237 0.984 . S
N231 C224 1.356 . S
N231 H234 0.984 1_455 S
N231 H235 0.985 . S
H232 N227 0.984 1_556 S
H233 N227 0.985 . S
H234 N231 0.984 1_655 S
H235 N231 0.985 . S
H236 N230 0.984 . S
H237 N230 0.984 . S
H238 N226 0.984 . S
H239 N226 0.985 . S
C240 C241 1.363 1_565 S
C240 C246 1.379 . S
C240 N248 1.356 . S
C241 C240 1.363 1_545 S
C241 C247 1.363 . S
C242 C243 1.363 1_545 S
C242 C247 1.379 . S
C242 N249 1.356 . S
C243 C242 1.363 1_565 S
C243 C246 1.363 . S
N244 C246 1.356 . S
N244 H256 0.984 . S
N244 H257 0.985 . S
N245 C247 1.356 . S
N245 H250 0.984 . S
N245 H251 0.985 . S
C246 C240 1.379 . S
C246 C243 1.363 . S
C246 N244 1.356 . S
C247 C241 1.363 . S
C247 C242 1.379 . S
C247 N245 1.356 . S
N248 C240 1.356 . S
N248 H254 0.984 . S
N248 H255 0.984 . S
N249 C242 1.356 . S
N249 H252 0.984 . S
N249 H253 0.985 . S
H250 N245 0.984 . S
H251 N245 0.985 . S
H252 N249 0.984 . S
H253 N249 0.985 . S
H254 N248 0.984 . S
H255 N248 0.984 . S
H256 N244 0.984 . S
H257 N244 0.985 . S
C258 C259 1.363 . S
C258 C264 1.379 1_556 S
C258 N266 1.356 . S
C259 C258 1.363 . S
C259 C265 1.363 . S
C260 C261 1.363 1_556 S
C260 C265 1.379 . S
C260 N267 1.356 1_556 S
C261 C260 1.363 1_554 S
C261 C264 1.363 . S
N262 C264 1.356 . S
N262 H274 0.984 . S
N262 H275 0.985 . S
N263 C265 1.356 . S
N263 H268 0.984 . S
N263 H269 0.985 . S
C264 C258 1.379 1_554 S
C264 C261 1.363 . S
C264 N262 1.356 . S
C265 C259 1.363 . S
C265 C260 1.379 . S
C265 N263 1.356 . S
N266 C258 1.356 . S
N266 H272 0.984 . S
N266 H273 0.984 . S
N267 C260 1.356 1_554 S
N267 H270 0.984 . S
N267 H271 0.985 . S
H268 N263 0.984 . S
H269 N263 0.985 . S
H270 N267 0.984 . S
H271 N267 0.985 . S
H272 N266 0.984 . S
H273 N266 0.984 . S
H274 N262 0.984 . S
H275 N262 0.985 . S
C276 C277 1.363 . S
C276 C282 1.379 1_455 S
C276 N284 1.356 . S
C277 C276 1.363 . S
C277 C283 1.363 . S
C278 C279 1.363 . S
C278 C283 1.379 1_655 S
C278 N285 1.356 . S
C279 C278 1.363 . S
C279 C282 1.363 . S
N280 C282 1.356 . S
N280 H292 0.984 . S
N280 H293 0.985 . S
N281 C283 1.356 . S
N281 H286 0.984 . S
N281 H287 0.985 . S
C282 C276 1.379 1_655 S
C282 C279 1.363 . S
C282 N280 1.356 . S
C283 C277 1.363 . S
C283 C278 1.379 1_455 S
C283 N281 1.356 . S
N284 C276 1.356 . S
N284 H290 0.984 . S
N284 H291 0.984 . S
N285 C278 1.356 . S
N285 H288 0.984 . S
N285 H289 0.985 . S
H286 N281 0.984 . S
H287 N281 0.985 . S
H288 N285 0.984 . S
H289 N285 0.985 . S
H290 N284 0.984 . S
H291 N284 0.984 . S
H292 N280 0.984 . S
H293 N280 0.985 . S
C79 C5 1.109 . S
C81 C57 1.106 . S
C97 C23 1.181 . S
C99 C75 1.174 . S
C115 C10 1.187 . S
C117 C31 1.127 . S
C133 C49 1.187 . S
C135 C18 1.127 . S
C151 C62 1.174 . S
C153 C36 1.181 . S
C169 C44 1.109 . S
C171 C70 1.106 . S
C187 C47 1.339 . S
C189 C8 1.339 . S
C205 C60 1.379 . S
C207 C13 1.373 . S
C223 C65 1.363 . S
C225 C34 1.381 . S
C241 C0 1.378 . S
C243 C39 1.378 . S
C259 C21 1.381 . S
C261 C52 1.363 . S
C277 C73 1.379 . S
C279 C26 1.373 . S
