# Generated by pormake.
# Topology uml, (4)-cn, num edge types: 1
# Building blocks:
#     Node 0, Type 0, BuildingBlock: CEKHIL_clean_sbu_0, # of connection points: 4
#     Node 1, Type 0, BuildingBlock: CEKHIL_clean_sbu_0, # of connection points: 4
#     Node 2, Type 0, BuildingBlock: CEKHIL_clean_sbu_0, # of connection points: 4
#     Node 3, Type 0, BuildingBlock: CEKHIL_clean_sbu_0, # of connection points: 4
#     Node 4, Type 0, BuildingBlock: CEKHIL_clean_sbu_0, # of connection points: 4
#     Node 5, Type 0, BuildingBlock: CEKHIL_clean_sbu_0, # of connection points: 4
#     Node 6, Type 0, BuildingBlock: CEKHIL_clean_sbu_0, # of connection points: 4
#     Node 7, Type 0, BuildingBlock: CEKHIL_clean_sbu_0, # of connection points: 4
#     Node 8, Type 0, BuildingBlock: CEKHIL_clean_sbu_0, # of connection points: 4
#     Node 9, Type 0, BuildingBlock: CEKHIL_clean_sbu_0, # of connection points: 4
#     Node 10, Type 0, BuildingBlock: CEKHIL_clean_sbu_0, # of connection points: 4
#     Node 11, Type 0, BuildingBlock: CEKHIL_clean_sbu_0, # of connection points: 4
#     Node 12, Type 0, BuildingBlock: CEKHIL_clean_sbu_0, # of connection points: 4
#     Node 13, Type 0, BuildingBlock: CEKHIL_clean_sbu_0, # of connection points: 4
#     Node 14, Type 0, BuildingBlock: CEKHIL_clean_sbu_0, # of connection points: 4
#     Node 15, Type 0, BuildingBlock: CEKHIL_clean_sbu_0, # of connection points: 4
#     Node 16, Type 0, BuildingBlock: CEKHIL_clean_sbu_0, # of connection points: 4
#     Node 17, Type 0, BuildingBlock: CEKHIL_clean_sbu_0, # of connection points: 4
#     Node 18, Type 0, BuildingBlock: CEKHIL_clean_sbu_0, # of connection points: 4
#     Node 19, Type 0, BuildingBlock: CEKHIL_clean_sbu_0, # of connection points: 4
#     Node 20, Type 0, BuildingBlock: CEKHIL_clean_sbu_0, # of connection points: 4
#     Node 21, Type 0, BuildingBlock: CEKHIL_clean_sbu_0, # of connection points: 4
#     Node 22, Type 0, BuildingBlock: CEKHIL_clean_sbu_0, # of connection points: 4
#     Node 23, Type 0, BuildingBlock: CEKHIL_clean_sbu_0, # of connection points: 4
#     Node 24, Type 0, BuildingBlock: CEKHIL_clean_sbu_0, # of connection points: 4
#     Node 25, Type 0, BuildingBlock: CEKHIL_clean_sbu_0, # of connection points: 4
#     Node 26, Type 0, BuildingBlock: CEKHIL_clean_sbu_0, # of connection points: 4
#     Node 27, Type 0, BuildingBlock: CEKHIL_clean_sbu_0, # of connection points: 4
#     Node 28, Type 0, BuildingBlock: CEKHIL_clean_sbu_0, # of connection points: 4
#     Node 29, Type 0, BuildingBlock: CEKHIL_clean_sbu_0, # of connection points: 4
#     Node 30, Type 0, BuildingBlock: CEKHIL_clean_sbu_0, # of connection points: 4
#     Node 31, Type 0, BuildingBlock: CEKHIL_clean_sbu_0, # of connection points: 4
#     Node 32, Type 0, BuildingBlock: CEKHIL_clean_sbu_0, # of connection points: 4
#     Node 33, Type 0, BuildingBlock: CEKHIL_clean_sbu_0, # of connection points: 4
#     Node 34, Type 0, BuildingBlock: CEKHIL_clean_sbu_0, # of connection points: 4
#     Node 35, Type 0, BuildingBlock: CEKHIL_clean_sbu_0, # of connection points: 4
#     Edge 36, Type (0, 0), BuildingBlock: UVAHIK_clean_linker_0, # of connection points: 2
#     Edge 37, Type (0, 0), BuildingBlock: UVAHIK_clean_linker_0, # of connection points: 2
#     Edge 38, Type (0, 0), BuildingBlock: UVAHIK_clean_linker_0, # of connection points: 2
#     Edge 39, Type (0, 0), BuildingBlock: UVAHIK_clean_linker_0, # of connection points: 2
#     Edge 40, Type (0, 0), BuildingBlock: UVAHIK_clean_linker_0, # of connection points: 2
#     Edge 41, Type (0, 0), BuildingBlock: UVAHIK_clean_linker_0, # of connection points: 2
#     Edge 42, Type (0, 0), BuildingBlock: UVAHIK_clean_linker_0, # of connection points: 2
#     Edge 43, Type (0, 0), BuildingBlock: UVAHIK_clean_linker_0, # of connection points: 2
#     Edge 44, Type (0, 0), BuildingBlock: UVAHIK_clean_linker_0, # of connection points: 2
#     Edge 45, Type (0, 0), BuildingBlock: UVAHIK_clean_linker_0, # of connection points: 2
#     Edge 46, Type (0, 0), BuildingBlock: UVAHIK_clean_linker_0, # of connection points: 2
#     Edge 47, Type (0, 0), BuildingBlock: UVAHIK_clean_linker_0, # of connection points: 2
#     Edge 48, Type (0, 0), BuildingBlock: UVAHIK_clean_linker_0, # of connection points: 2
#     Edge 49, Type (0, 0), BuildingBlock: UVAHIK_clean_linker_0, # of connection points: 2
#     Edge 50, Type (0, 0), BuildingBlock: UVAHIK_clean_linker_0, # of connection points: 2
#     Edge 51, Type (0, 0), BuildingBlock: UVAHIK_clean_linker_0, # of connection points: 2
#     Edge 52, Type (0, 0), BuildingBlock: UVAHIK_clean_linker_0, # of connection points: 2
#     Edge 53, Type (0, 0), BuildingBlock: UVAHIK_clean_linker_0, # of connection points: 2
#     Edge 54, Type (0, 0), BuildingBlock: UVAHIK_clean_linker_0, # of connection points: 2
#     Edge 55, Type (0, 0), BuildingBlock: UVAHIK_clean_linker_0, # of connection points: 2
#     Edge 56, Type (0, 0), BuildingBlock: UVAHIK_clean_linker_0, # of connection points: 2
#     Edge 57, Type (0, 0), BuildingBlock: UVAHIK_clean_linker_0, # of connection points: 2
#     Edge 58, Type (0, 0), BuildingBlock: UVAHIK_clean_linker_0, # of connection points: 2
#     Edge 59, Type (0, 0), BuildingBlock: UVAHIK_clean_linker_0, # of connection points: 2
#     Edge 60, Type (0, 0), BuildingBlock: UVAHIK_clean_linker_0, # of connection points: 2
#     Edge 61, Type (0, 0), BuildingBlock: UVAHIK_clean_linker_0, # of connection points: 2
#     Edge 62, Type (0, 0), BuildingBlock: UVAHIK_clean_linker_0, # of connection points: 2
#     Edge 63, Type (0, 0), BuildingBlock: UVAHIK_clean_linker_0, # of connection points: 2
#     Edge 64, Type (0, 0), BuildingBlock: UVAHIK_clean_linker_0, # of connection points: 2
#     Edge 65, Type (0, 0), BuildingBlock: UVAHIK_clean_linker_0, # of connection points: 2
#     Edge 66, Type (0, 0), BuildingBlock: UVAHIK_clean_linker_0, # of connection points: 2
#     Edge 67, Type (0, 0), BuildingBlock: UVAHIK_clean_linker_0, # of connection points: 2
#     Edge 68, Type (0, 0), BuildingBlock: UVAHIK_clean_linker_0, # of connection points: 2
#     Edge 69, Type (0, 0), BuildingBlock: UVAHIK_clean_linker_0, # of connection points: 2
#     Edge 70, Type (0, 0), BuildingBlock: UVAHIK_clean_linker_0, # of connection points: 2
#     Edge 71, Type (0, 0), BuildingBlock: UVAHIK_clean_linker_0, # of connection points: 2
#     Edge 72, Type (0, 0), BuildingBlock: UVAHIK_clean_linker_0, # of connection points: 2
#     Edge 73, Type (0, 0), BuildingBlock: UVAHIK_clean_linker_0, # of connection points: 2
#     Edge 74, Type (0, 0), BuildingBlock: UVAHIK_clean_linker_0, # of connection points: 2
#     Edge 75, Type (0, 0), BuildingBlock: UVAHIK_clean_linker_0, # of connection points: 2
#     Edge 76, Type (0, 0), BuildingBlock: UVAHIK_clean_linker_0, # of connection points: 2
#     Edge 77, Type (0, 0), BuildingBlock: UVAHIK_clean_linker_0, # of connection points: 2
#     Edge 78, Type (0, 0), BuildingBlock: UVAHIK_clean_linker_0, # of connection points: 2
#     Edge 79, Type (0, 0), BuildingBlock: UVAHIK_clean_linker_0, # of connection points: 2
#     Edge 80, Type (0, 0), BuildingBlock: UVAHIK_clean_linker_0, # of connection points: 2
#     Edge 81, Type (0, 0), BuildingBlock: UVAHIK_clean_linker_0, # of connection points: 2
#     Edge 82, Type (0, 0), BuildingBlock: UVAHIK_clean_linker_0, # of connection points: 2
#     Edge 83, Type (0, 0), BuildingBlock: UVAHIK_clean_linker_0, # of connection points: 2
#     Edge 84, Type (0, 0), BuildingBlock: UVAHIK_clean_linker_0, # of connection points: 2
#     Edge 85, Type (0, 0), BuildingBlock: UVAHIK_clean_linker_0, # of connection points: 2
#     Edge 86, Type (0, 0), BuildingBlock: UVAHIK_clean_linker_0, # of connection points: 2
#     Edge 87, Type (0, 0), BuildingBlock: UVAHIK_clean_linker_0, # of connection points: 2
#     Edge 88, Type (0, 0), BuildingBlock: UVAHIK_clean_linker_0, # of connection points: 2
#     Edge 89, Type (0, 0), BuildingBlock: UVAHIK_clean_linker_0, # of connection points: 2
#     Edge 90, Type (0, 0), BuildingBlock: UVAHIK_clean_linker_0, # of connection points: 2
#     Edge 91, Type (0, 0), BuildingBlock: UVAHIK_clean_linker_0, # of connection points: 2
#     Edge 92, Type (0, 0), BuildingBlock: UVAHIK_clean_linker_0, # of connection points: 2
#     Edge 93, Type (0, 0), BuildingBlock: UVAHIK_clean_linker_0, # of connection points: 2
#     Edge 94, Type (0, 0), BuildingBlock: UVAHIK_clean_linker_0, # of connection points: 2
#     Edge 95, Type (0, 0), BuildingBlock: UVAHIK_clean_linker_0, # of connection points: 2
#     Edge 96, Type (0, 0), BuildingBlock: UVAHIK_clean_linker_0, # of connection points: 2
#     Edge 97, Type (0, 0), BuildingBlock: UVAHIK_clean_linker_0, # of connection points: 2
#     Edge 98, Type (0, 0), BuildingBlock: UVAHIK_clean_linker_0, # of connection points: 2
#     Edge 99, Type (0, 0), BuildingBlock: UVAHIK_clean_linker_0, # of connection points: 2
#     Edge 100, Type (0, 0), BuildingBlock: UVAHIK_clean_linker_0, # of connection points: 2
#     Edge 101, Type (0, 0), BuildingBlock: UVAHIK_clean_linker_0, # of connection points: 2
#     Edge 102, Type (0, 0), BuildingBlock: UVAHIK_clean_linker_0, # of connection points: 2
#     Edge 103, Type (0, 0), BuildingBlock: UVAHIK_clean_linker_0, # of connection points: 2
#     Edge 104, Type (0, 0), BuildingBlock: UVAHIK_clean_linker_0, # of connection points: 2
#     Edge 105, Type (0, 0), BuildingBlock: UVAHIK_clean_linker_0, # of connection points: 2
#     Edge 106, Type (0, 0), BuildingBlock: UVAHIK_clean_linker_0, # of connection points: 2
#     Edge 107, Type (0, 0), BuildingBlock: UVAHIK_clean_linker_0, # of connection points: 2
# Relax obj value: 0.146
# Max RMSD: 0.488
# Mean RMSD: 0.264
data_MOF--net-uml--node1-CEKHIL_clean_sbu_0--edge1-UVAHIK_clean_linker_0
_symmetry_space_group_name_H-M    P1
_symmetry_Int_Tables_number       1
_symmetry_cell_setting            triclinic
loop_
_symmetry_equiv_pos_as_xyz
'x, y, z'
_cell_length_a     118.9425
_cell_length_b     116.2517
_cell_length_c     35.741783
_cell_angle_alpha  90.108735
_cell_angle_beta   89.988783
_cell_angle_gamma 115.88278
loop_
_atom_site_label
_atom_site_type_symbol
_atom_site_fract_x
_atom_site_fract_y
_atom_site_fract_z
_atom_type_partial_charge
Co0 Co 0.33812 0.09583 0.16054 0.0
O1 O 0.3442 0.08313 0.15467 0.0
O2 O 0.35394 0.10313 0.13456 0.0
C3 C 0.33285 0.09208 0.22126 0.0
O4 O 0.33513 0.11172 0.16335 0.0
Co5 Co 0.31032 0.08811 0.17967 0.0
O6 O 0.3166 0.10662 0.19107 0.0
C7 C 0.31722 0.08475 0.10256 0.0
C8 C 0.35385 0.09196 0.13834 0.0
C9 C 0.32708 0.11487 0.17871 0.0
O10 O 0.32886 0.0906 0.11141 0.0
O11 O 0.30839 0.08193 0.12647 0.0
O12 O 0.34437 0.09913 0.2117 0.0
O13 O 0.32524 0.08645 0.19408 0.0
Co14 Co 0.87742 0.26596 0.1798 0.0
O15 O 0.87551 0.26646 0.23307 0.0
O16 O 0.88723 0.25863 0.20467 0.0
C17 C 0.8805 0.28615 0.16829 0.0
O18 O 0.88211 0.26443 0.12558 0.0
Co19 Co 0.85812 0.26857 0.12678 0.0
O20 O 0.87127 0.27164 0.08867 0.0
C21 C 0.85159 0.24404 0.1646 0.0
C22 C 0.88307 0.26115 0.2358 0.0
C23 C 0.87989 0.26808 0.09352 0.0
O24 O 0.86278 0.2486 0.17753 0.0
O25 O 0.84751 0.2507 0.14529 0.0
O26 O 0.88962 0.28376 0.1799 0.0
O27 O 0.86958 0.27647 0.16797 0.0
Co28 Co 0.72312 0.60809 0.16747 0.0
O29 O 0.70612 0.5956 0.16866 0.0
O30 O 0.72077 0.59375 0.13454 0.0
C31 C 0.72491 0.61141 0.22918 0.0
O32 O 0.742 0.61967 0.16228 0.0
Co33 Co 0.72797 0.63554 0.1925 0.0
O34 O 0.74521 0.63716 0.19665 0.0
C35 C 0.71694 0.6263 0.11926 0.0
C36 C 0.70904 0.5891 0.14444 0.0
C37 C 0.74927 0.63017 0.17914 0.0
O38 O 0.71909 0.61652 0.12417 0.0
O39 O 0.71921 0.63501 0.14398 0.0
O40 O 0.72632 0.60181 0.21497 0.0
O41 O 0.72122 0.61763 0.20626 0.0
Co42 Co 0.09344 0.34378 0.32321 0.0
O43 O 0.08204 0.35138 0.32542 0.0
O44 O 0.10146 0.36038 0.34704 0.0
C45 C 0.08966 0.33734 0.26341 0.0
O46 O 0.10803 0.33905 0.32388 0.0
Co47 Co 0.08352 0.31455 0.30867 0.0
O48 O 0.10147 0.31921 0.30029 0.0
C49 C 0.08029 0.32369 0.38297 0.0
C50 C 0.09099 0.36112 0.3413 0.0
C51 C 0.11015 0.32975 0.31157 0.0
O52 O 0.08728 0.3353 0.37311 0.0
O53 O 0.07688 0.3142 0.3604 0.0
O54 O 0.0973 0.34912 0.2712 0.0
O55 O 0.08371 0.33038 0.29145 0.0
Co56 Co 0.60514 0.75605 0.31498 0.0
O57 O 0.60215 0.75995 0.26481 0.0
O58 O 0.61775 0.75553 0.28209 0.0
C59 C 0.58546 0.74185 0.3281 0.0
O60 O 0.61064 0.75076 0.36364 0.0
Co61 Co 0.59332 0.76398 0.38116 0.0
O62 O 0.59778 0.75173 0.40848 0.0
C63 C 0.61546 0.7836 0.34503 0.0
C64 C 0.61184 0.7582 0.25541 0.0
C65 C 0.60587 0.7482 0.39669 0.0
O66 O 0.61605 0.77469 0.32503 0.0
O67 O 0.6066 0.78154 0.36827 0.0
O68 O 0.5928 0.73862 0.30843 0.0
O69 O 0.58969 0.75401 0.33509 0.0
Co70 Co 0.23904 0.9004 0.32445 0.0
O71 O 0.25695 0.90824 0.32348 0.0
O72 O 0.24535 0.88918 0.34744 0.0
C73 C 0.23646 0.90467 0.26424 0.0
O74 O 0.22017 0.88928 0.32871 0.0
Co75 Co 0.22566 0.91792 0.31216 0.0
O76 O 0.21038 0.90151 0.31405 0.0
C77 C 0.2373 0.91824 0.38504 0.0
C78 C 0.25645 0.89808 0.33974 0.0
C79 C 0.21019 0.89083 0.32312 0.0
O80 O 0.2393 0.90867 0.37461 0.0
O81 O 0.23301 0.92404 0.36296 0.0
O82 O 0.23846 0.89485 0.2725 0.0
O83 O 0.23741 0.91221 0.29189 0.0
Co84 Co 0.66824 0.91998 0.83131 0.0
O85 O 0.66727 0.91749 0.77838 0.0
O86 O 0.68472 0.92387 0.81143 0.0
C87 C 0.65665 0.93087 0.83269 0.0
O88 O 0.67261 0.92412 0.88658 0.0
Co89 Co 0.64397 0.9085 0.87929 0.0
O90 O 0.65488 0.92104 0.91665 0.0
C91 C 0.65481 0.89173 0.84998 0.0
C92 C 0.67923 0.92115 0.77888 0.0
C93 C 0.66674 0.92544 0.91544 0.0
O94 O 0.66463 0.90153 0.83896 0.0
O95 O 0.64527 0.89251 0.86414 0.0
O96 O 0.6685 0.93679 0.825 0.0
O97 O 0.65215 0.91863 0.83607 0.0
Co98 Co 0.09316 0.75236 0.82392 0.0
O99 O 0.09693 0.75374 0.77133 0.0
O100 O 0.08123 0.7564 0.79646 0.0
C101 C 0.09521 0.73416 0.83258 0.0
O102 O 0.08621 0.75119 0.87712 0.0
Co103 Co 0.11326 0.75378 0.88162 0.0
O104 O 0.0991 0.74791 0.91723 0.0
C105 C 0.11514 0.77746 0.84616 0.0
C106 C 0.08736 0.75614 0.76652 0.0
C107 C 0.08896 0.74871 0.91018 0.0
O108 O 0.10439 0.77113 0.83084 0.0
O109 O 0.1207 0.77215 0.86525 0.0
O110 O 0.08485 0.73374 0.81949 0.0
O111 O 0.10422 0.74545 0.8369 0.0
Co112 Co 0.24916 0.36246 0.83738 0.0
O113 O 0.24268 0.36437 0.79008 0.0
O114 O 0.24981 0.35003 0.80253 0.0
C115 C 0.26203 0.38327 0.84646 0.0
O116 O 0.25709 0.35831 0.88292 0.0
Co117 Co 0.24339 0.37448 0.90769 0.0
O118 O 0.25816 0.37265 0.92689 0.0
C119 C 0.22372 0.35076 0.87653 0.0
C120 C 0.24528 0.35525 0.77833 0.0
C121 C 0.26147 0.36442 0.91367 0.0
O122 O 0.23178 0.3502 0.85355 0.0
O123 O 0.22627 0.36009 0.89931 0.0
O124 O 0.26529 0.37617 0.82529 0.0
O125 O 0.25051 0.37798 0.85777 0.0
Co126 Co 0.90587 0.6744 0.66574 0.0
O127 O 0.9017 0.67159 0.71756 0.0
O128 O 0.90795 0.6903 0.68923 0.0
C129 C 0.91749 0.66359 0.66447 0.0
O130 O 0.91135 0.68064 0.61232 0.0
Co131 Co 0.89727 0.65113 0.61141 0.0
O132 O 0.91039 0.66376 0.57914 0.0
C133 C 0.87929 0.66085 0.63576 0.0
C134 C 0.90433 0.68362 0.71987 0.0
C135 C 0.91386 0.67573 0.5829 0.0
O136 O 0.888 0.6701 0.6534 0.0
O137 O 0.88093 0.65199 0.61877 0.0
O138 O 0.92241 0.67542 0.67566 0.0
O139 O 0.90565 0.65849 0.65785 0.0
Co140 Co 0.39196 0.27337 0.66289 0.0
O141 O 0.39807 0.26921 0.70823 0.0
O142 O 0.38216 0.27425 0.70485 0.0
C143 C 0.41051 0.28729 0.63943 0.0
O144 O 0.38354 0.27885 0.62131 0.0
Co145 Co 0.39895 0.26498 0.58724 0.0
O146 O 0.38906 0.27336 0.56605 0.0
C147 C 0.37959 0.24575 0.63347 0.0
C148 C 0.38949 0.27124 0.72543 0.0
C149 C 0.38342 0.27845 0.58529 0.0
O150 O 0.38006 0.25478 0.65517 0.0
O151 O 0.3872 0.24764 0.60629 0.0
O152 O 0.40498 0.29073 0.66537 0.0
O153 O 0.40554 0.27514 0.63215 0.0
Co154 Co 0.73267 0.1186 0.67328 0.0
O155 O 0.73369 0.12347 0.72509 0.0
O156 O 0.73876 0.10856 0.70292 0.0
C157 C 0.71336 0.11701 0.66266 0.0
O158 O 0.73238 0.11073 0.62181 0.0
Co159 Co 0.73073 0.13618 0.6113 0.0
O160 O 0.72503 0.12038 0.58058 0.0
C161 C 0.75523 0.14251 0.6464 0.0
C162 C 0.73764 0.11488 0.73165 0.0
C163 C 0.72799 0.11145 0.58938 0.0
O164 O 0.75029 0.132 0.66492 0.0
O165 O 0.74887 0.14632 0.62507 0.0
O166 O 0.7149 0.10771 0.67824 0.0
O167 O 0.72347 0.12744 0.65758 0.0
Co168 Co 0.00849 0.42506 0.49635 0.0
O169 O 0.01676 0.4142 0.4927 0.0
O170 O 0.0245 0.43414 0.47192 0.0
C171 C 0.00269 0.42092 0.55659 0.0
O172 O 0.00277 0.43922 0.49728 0.0
Co173 Co 0.9799 0.41299 0.51081 0.0
O174 O 0.98335 0.43098 0.52131 0.0
C175 C 0.98902 0.41181 0.43506 0.0
C176 C 0.02589 0.42375 0.47682 0.0
C177 C 0.99327 0.44047 0.51046 0.0
O178 O 0.00024 0.41883 0.44622 0.0
O179 O 0.97961 0.40764 0.45717 0.0
O180 O 0.01397 0.4291 0.54798 0.0
O181 O 0.99583 0.41446 0.52886 0.0
Co182 Co 0.5435 0.60513 0.49888 0.0
O183 O 0.5422 0.6053 0.55238 0.0
O184 O 0.55421 0.59839 0.52153 0.0
C185 C 0.54521 0.62502 0.48979 0.0
O186 O 0.54756 0.60397 0.44378 0.0
Co187 Co 0.52302 0.60701 0.44926 0.0
O188 O 0.5356 0.61041 0.4091 0.0
C189 C 0.51795 0.58263 0.48616 0.0
C190 C 0.55012 0.60041 0.55349 0.0
C191 C 0.54457 0.60727 0.41229 0.0
O192 O 0.52938 0.58742 0.49716 0.0
O193 O 0.51326 0.58911 0.46864 0.0
O194 O 0.55496 0.6233 0.49886 0.0
O195 O 0.5347 0.61486 0.48985 0.0
Co196 Co 0.3897 0.95143 0.48324 0.0
O197 O 0.3721 0.94106 0.48325 0.0
O198 O 0.38567 0.9358 0.45445 0.0
C199 C 0.39125 0.95603 0.54447 0.0
O200 O 0.4089 0.9603 0.48024 0.0
Co201 Co 0.39844 0.98023 0.50302 0.0
O202 O 0.41441 0.97906 0.51064 0.0
C203 C 0.3882 0.971 0.42855 0.0
C204 C 0.37408 0.93292 0.46296 0.0
C205 C 0.41709 0.97054 0.49616 0.0
O206 O 0.38814 0.96019 0.43635 0.0
O207 O 0.39116 0.98011 0.45233 0.0
O208 O 0.39098 0.94528 0.53311 0.0
O209 O 0.38912 0.96272 0.51912 0.0
Co210 Co 0.73474 0.6563 0.66922 0.0
O211 O 0.72299 0.66345 0.67163 0.0
O212 O 0.74263 0.67304 0.69162 0.0
C213 C 0.73075 0.64924 0.61044 0.0
O214 O 0.7497 0.6523 0.66925 0.0
Co215 Co 0.72579 0.62711 0.65893 0.0
O216 O 0.74381 0.63194 0.65103 0.0
C217 C 0.72203 0.63707 0.73092 0.0
C218 C 0.73196 0.67341 0.68665 0.0
C219 C 0.75221 0.64305 0.65926 0.0
O220 O 0.72921 0.64842 0.71978 0.0
O221 O 0.71859 0.62722 0.70972 0.0
O222 O 0.73805 0.6612 0.61719 0.0
O223 O 0.72508 0.64232 0.63899 0.0
Co224 Co 0.27589 0.09146 0.64719 0.0
O225 O 0.27387 0.09199 0.59401 0.0
O226 O 0.29089 0.09302 0.62221 0.0
C227 C 0.25766 0.07476 0.66036 0.0
O228 O 0.28103 0.09066 0.70138 0.0
Co229 Co 0.25863 0.09771 0.69961 0.0
O230 O 0.26495 0.08941 0.73711 0.0
C231 C 0.27958 0.11887 0.66376 0.0
C232 C 0.28512 0.09292 0.5912 0.0
C233 C 0.27516 0.08848 0.73285 0.0
O234 O 0.28282 0.1106 0.64966 0.0
O235 O 0.26974 0.11577 0.68367 0.0
O236 O 0.26699 0.07305 0.64721 0.0
O237 O 0.25898 0.08645 0.65969 0.0
Co238 Co 0.91538 0.23156 0.66693 0.0
O239 O 0.93316 0.23775 0.67005 0.0
O240 O 0.91951 0.21917 0.69273 0.0
C241 C 0.91487 0.23641 0.60602 0.0
O242 O 0.89625 0.22198 0.66653 0.0
Co243 Co 0.90466 0.25108 0.64991 0.0
O244 O 0.88934 0.23519 0.63949 0.0
C245 C 0.91326 0.24965 0.72625 0.0
C246 C 0.93114 0.22719 0.687 0.0
C247 C 0.88748 0.22422 0.65187 0.0
O248 O 0.91511 0.23995 0.71639 0.0
O249 O 0.90996 0.25602 0.70314 0.0
O250 O 0.91561 0.22597 0.61541 0.0
O251 O 0.91586 0.24409 0.63332 0.0
Co252 Co 0.35082 0.26966 0.15791 0.0
O253 O 0.35024 0.26419 0.10722 0.0
O254 O 0.36763 0.27387 0.14054 0.0
C255 C 0.33807 0.27912 0.15094 0.0
O256 O 0.35463 0.27693 0.21114 0.0
Co257 Co 0.32632 0.25861 0.20481 0.0
O258 O 0.33617 0.27356 0.23701 0.0
C259 C 0.33948 0.24267 0.1899 0.0
C260 C 0.36229 0.2687 0.10902 0.0
C261 C 0.34809 0.27897 0.23686 0.0
O262 O 0.34866 0.25236 0.17546 0.0
O263 O 0.32938 0.243 0.20097 0.0
O264 O 0.3498 0.28521 0.14199 0.0
O265 O 0.33427 0.2672 0.1592 0.0
Co266 Co 0.76656 0.08231 0.16416 0.0
O267 O 0.77157 0.08555 0.11263 0.0
O268 O 0.75475 0.08638 0.1365 0.0
C269 C 0.7693 0.06439 0.16961 0.0
O270 O 0.75837 0.07934 0.21585 0.0
Co271 Co 0.78545 0.08296 0.22486 0.0
O272 O 0.77029 0.07473 0.2564 0.0
C273 C 0.78705 0.10722 0.19432 0.0
C274 C 0.76177 0.08754 0.10745 0.0
C275 C 0.76026 0.07559 0.24819 0.0
O276 O 0.77686 0.10092 0.17613 0.0
O277 O 0.79248 0.1018 0.21351 0.0
O278 O 0.75911 0.06393 0.15507 0.0
O279 O 0.77788 0.0757 0.17726 0.0
Co280 Co 0.90417 0.72984 0.15615 0.0
O281 O 0.90092 0.73418 0.1068 0.0
O282 O 0.90282 0.71658 0.1213 0.0
C283 C 0.9199 0.74895 0.17056 0.0
O284 O 0.90825 0.72269 0.2039 0.0
Co285 Co 0.89873 0.74289 0.22429 0.0
O286 O 0.9099 0.73673 0.24948 0.0
C287 C 0.87772 0.72165 0.18821 0.0
C288 C 0.90107 0.72361 0.09578 0.0
C289 C 0.91168 0.72742 0.23691 0.0
O290 O 0.88566 0.72046 0.16613 0.0
O291 O 0.88088 0.73046 0.21309 0.0
O292 O 0.92176 0.74077 0.1499 0.0
O293 O 0.90826 0.74605 0.17796 0.0
Co294 Co 0.56525 0.98543 0.02815 0.0
O295 O 0.56338 0.98217 0.08077 0.0
O296 O 0.56692 0.00067 0.05425 0.0
C297 C 0.57841 0.9768 0.01671 0.0
O298 O 0.56812 0.99217 0.97461 0.0
Co299 Co 0.55545 0.96247 0.97304 0.0
O300 O 0.56629 0.97577 0.93743 0.0
C301 C 0.53759 0.97049 0.00751 0.0
C302 C 0.56516 0.99393 0.08463 0.0
C303 C 0.56947 0.98763 0.94287 0.0
O304 O 0.54681 0.97981 0.02306 0.0
O305 O 0.53888 0.96194 0.98776 0.0
O306 O 0.58253 0.98827 0.03044 0.0
O307 O 0.56637 0.97036 0.01529 0.0
Co308 Co 0.05721 0.60627 0.00325 0.0
O309 O 0.06117 0.60438 0.05424 0.0
O310 O 0.04404 0.60582 0.03581 0.0
C311 C 0.07598 0.62185 0.98726 0.0
O312 O 0.05044 0.60889 0.95285 0.0
Co313 Co 0.07066 0.59854 0.94079 0.0
O314 O 0.06269 0.6066 0.90822 0.0
C315 C 0.04974 0.57837 0.97997 0.0
C316 C 0.05073 0.60469 0.06312 0.0
C317 C 0.05406 0.6096 0.91853 0.0
O318 O 0.04811 0.58716 0.99752 0.0
O319 O 0.05883 0.58079 0.95728 0.0
O320 O 0.06795 0.62443 0.00568 0.0
O321 O 0.07309 0.60978 0.98345 0.0
Co322 Co 0.39441 0.46066 0.02332 0.0
O323 O 0.39532 0.46638 0.07419 0.0
O324 O 0.40133 0.45182 0.05485 0.0
C325 C 0.37463 0.45759 0.01263 0.0
O326 O 0.39433 0.45207 0.97322 0.0
Co327 Co 0.39128 0.47659 0.95868 0.0
O328 O 0.3859 0.46027 0.93077 0.0
C329 C 0.41635 0.48422 0.99119 0.0
C330 C 0.39973 0.45827 0.08247 0.0
C331 C 0.38952 0.45193 0.9408 0.0
O332 O 0.41168 0.47449 0.01301 0.0
O333 O 0.40969 0.48714 0.96836 0.0
O334 O 0.37695 0.44906 0.02992 0.0
O335 O 0.38428 0.46832 0.00585 0.0
Co336 Co 0.65194 0.74402 0.82193 0.0
O337 O 0.65849 0.73161 0.82217 0.0
O338 O 0.66807 0.7511 0.79806 0.0
C339 C 0.64589 0.74185 0.88193 0.0
O340 O 0.64845 0.75958 0.81846 0.0
Co341 Co 0.62368 0.73567 0.83444 0.0
O342 O 0.62907 0.75433 0.84001 0.0
C343 C 0.63225 0.73111 0.76122 0.0
C344 C 0.66825 0.74025 0.80572 0.0
C345 C 0.63973 0.7626 0.82893 0.0
O346 O 0.6436 0.73746 0.77226 0.0
O347 O 0.62283 0.72841 0.78278 0.0
O348 O 0.6575 0.74872 0.87298 0.0
O349 O 0.63862 0.7353 0.85497 0.0
Co350 Co 0.20349 0.9375 0.83576 0.0
O351 O 0.20066 0.93738 0.88875 0.0
O352 O 0.21367 0.93087 0.8619 0.0
C353 C 0.20537 0.95735 0.82522 0.0
O354 O 0.20922 0.93674 0.78227 0.0
Co355 Co 0.18442 0.93924 0.7799 0.0
O356 O 0.19818 0.9431 0.7434 0.0
C357 C 0.1787 0.91468 0.81659 0.0
C358 C 0.20872 0.93272 0.89245 0.0
C359 C 0.20714 0.94014 0.74969 0.0
O360 O 0.18967 0.91972 0.83124 0.0
O361 O 0.17441 0.92105 0.79681 0.0
O362 O 0.21477 0.95561 0.83773 0.0
O363 O 0.19486 0.94719 0.82304 0.0
Co364 Co 0.06681 0.27699 0.83505 0.0
O365 O 0.04898 0.26968 0.83098 0.0
O366 O 0.06063 0.2604 0.81048 0.0
C367 C 0.06779 0.28333 0.8948 0.0
O368 O 0.08559 0.28182 0.83684 0.0
Co369 Co 0.08135 0.30629 0.84985 0.0
O370 O 0.09456 0.30115 0.86478 0.0
C371 C 0.07153 0.29714 0.7746 0.0
C372 C 0.04959 0.26 0.81484 0.0
C373 C 0.09492 0.29094 0.85323 0.0
O374 O 0.0685 0.28557 0.78504 0.0
O375 O 0.07599 0.30671 0.79693 0.0
O376 O 0.06543 0.27154 0.88728 0.0
O377 O 0.06813 0.29029 0.86638 0.0
Co378 Co 0.41425 0.00723 0.98192 0.0
O379 O 0.40614 0.01822 0.97812 0.0
O380 O 0.42399 0.02312 0.00803 0.0
C381 C 0.41221 0.00136 0.92178 0.0
O382 O 0.42556 0.99838 0.98978 0.0
Co383 Co 0.39911 0.97813 0.96684 0.0
O384 O 0.41599 0.97867 0.96472 0.0
C385 C 0.39595 0.98879 0.03843 0.0
C386 C 0.41533 0.02644 0.99766 0.0
C387 C 0.42557 0.98781 0.97887 0.0
O388 O 0.40481 0.99964 0.02919 0.0
O389 O 0.3917 0.97907 0.0166 0.0
O390 O 0.4212 0.01219 0.93211 0.0
O391 O 0.40407 0.99519 0.94717 0.0
Co392 Co 0.94881 0.42227 0.98477 0.0
O393 O 0.94627 0.42378 0.93227 0.0
O394 O 0.96346 0.42409 0.95716 0.0
C395 C 0.93034 0.40552 0.99572 0.0
O396 O 0.95447 0.42025 0.03737 0.0
Co397 Co 0.93245 0.42769 0.04249 0.0
O398 O 0.93945 0.41924 0.07726 0.0
C399 C 0.95302 0.4494 0.00696 0.0
C400 C 0.95734 0.42443 0.92734 0.0
C401 C 0.94934 0.41799 0.06999 0.0
O402 O 0.95609 0.44134 0.99067 0.0
O403 O 0.94335 0.44598 0.02784 0.0
O404 O 0.93958 0.40394 0.98127 0.0
O405 O 0.93202 0.41729 -0.00076 0.0
Co406 Co 0.5777 0.56543 0.98357 0.0
O407 O 0.59552 0.57288 0.98835 0.0
O408 O 0.58285 0.55372 0.00955 0.0
C409 C 0.57749 0.57026 0.92235 0.0
O410 O 0.55864 0.55482 0.98192 0.0
Co411 Co 0.56552 0.5836 0.96401 0.0
O412 O 0.55098 0.56711 0.95291 0.0
C413 C 0.57407 0.58303 0.04126 0.0
C414 C 0.59425 0.56252 0.00506 0.0
C415 C 0.54962 0.55641 0.96622 0.0
O416 O 0.5764 0.57351 0.03273 0.0
O417 O 0.57064 0.58899 0.01709 0.0
O418 O 0.57883 0.56018 0.93207 0.0
O419 O 0.57767 0.57763 0.94961 0.0
Co420 Co 0.99325 0.58702 0.4923 0.0
O421 O 0.99156 0.58423 0.43955 0.0
O422 O 0.00957 0.59169 0.47002 0.0
C423 C 0.98113 0.59724 0.4969 0.0
O424 O 0.99809 0.59155 0.54727 0.0
Co425 Co 0.96936 0.57358 0.54103 0.0
O426 O 0.98005 0.58612 0.57864 0.0
C427 C 0.98219 0.55867 0.51304 0.0
C428 C 0.0036 0.58853 0.43825 0.0
C429 C 0.99195 0.59174 0.57694 0.0
O430 O 0.99098 0.569 0.5002 0.0
O431 O 0.97226 0.55827 0.52811 0.0
O432 O 0.99268 0.60335 0.48637 0.0
O433 O 0.97692 0.58496 0.49943 0.0
Co434 Co 0.42532 0.42247 0.51182 0.0
O435 O 0.42907 0.42556 0.45955 0.0
O436 O 0.41326 0.42717 0.48815 0.0
C437 C 0.42741 0.40414 0.51454 0.0
O438 O 0.41857 0.41988 0.56532 0.0
Co439 Co 0.44538 0.42218 0.56691 0.0
O440 O 0.43112 0.41488 0.60223 0.0
C441 C 0.44767 0.44671 0.53647 0.0
C442 C 0.41953 0.42815 0.45752 0.0
C443 C 0.42114 0.41616 0.5968 0.0
O444 O 0.43663 0.44095 0.5225 0.0
O445 O 0.4532 0.44081 0.55283 0.0
O446 O 0.41699 0.40403 0.50311 0.0
O447 O 0.43641 0.4153 0.52082 0.0
Co448 Co 0.57344 0.05234 0.5137 0.0
O449 O 0.57391 0.05571 0.46113 0.0
O450 O 0.57057 0.03702 0.48599 0.0
C451 C 0.59083 0.06965 0.52973 0.0
O452 O 0.57296 0.04566 0.56682 0.0
Co453 Co 0.5689 0.07008 0.56916 0.0
O454 O 0.57609 0.06216 0.60511 0.0
C455 C 0.54734 0.0505 0.53025 0.0
C456 C 0.57176 0.04387 0.45615 0.0
C457 C 0.57567 0.05118 0.59907 0.0
O458 O 0.55492 0.04692 0.51426 0.0
O459 O 0.55096 0.05997 0.55297 0.0
O460 O 0.5914 0.05964 0.51563 0.0
O461 O 0.57989 0.06965 0.52916 0.0
Co462 Co 0.25925 0.34568 0.34302 0.0
O463 O 0.25436 0.34505 0.39397 0.0
O464 O 0.2628 0.36279 0.35985 0.0
C465 C 0.26959 0.33362 0.34883 0.0
O466 O 0.26585 0.34956 0.28945 0.0
Co467 Co 0.24865 0.32036 0.29738 0.0
O468 O 0.26295 0.33064 0.2645 0.0
C469 C 0.23245 0.33293 0.31394 0.0
C470 C 0.25832 0.35731 0.39174 0.0
C471 C 0.26803 0.34282 0.26425 0.0
O472 O 0.24196 0.34264 0.32687 0.0
O473 O 0.23296 0.32266 0.30309 0.0
O474 O 0.27495 0.34565 0.35788 0.0
O475 O 0.25775 0.32902 0.34177 0.0
Co476 Co 0.72946 0.93552 0.3437 0.0
O477 O 0.73453 0.93308 0.39304 0.0
O478 O 0.71731 0.93517 0.37988 0.0
C479 C 0.74795 0.95092 0.32482 0.0
O480 O 0.72149 0.93872 0.29657 0.0
Co481 Co 0.74066 0.9282 0.27465 0.0
O482 O 0.73285 0.93767 0.24738 0.0
C483 C 0.72053 0.90782 0.31618 0.0
C484 C 0.72447 0.93365 0.40495 0.0
C485 C 0.72447 0.94033 0.26167 0.0
O486 O 0.71984 0.91651 0.33696 0.0
O487 O 0.72876 0.91034 0.29044 0.0
O488 O 0.74059 0.95356 0.34632 0.0
O489 O 0.74467 0.93883 0.31935 0.0
Co490 Co 0.05521 0.78843 0.33526 0.0
O491 O 0.05579 0.79175 0.38812 0.0
O492 O 0.06033 0.777 0.36228 0.0
C493 C 0.03644 0.78841 0.32519 0.0
O494 O 0.05508 0.78199 0.28163 0.0
Co495 Co 0.0553 0.80865 0.27918 0.0
O496 O 0.04983 0.79419 0.24336 0.0
C497 C 0.07909 0.81204 0.31345 0.0
C498 C 0.05919 0.78266 0.39254 0.0
C499 C 0.0518 0.78442 0.24926 0.0
O500 O 0.07326 0.80124 0.33009 0.0
O501 O 0.07354 0.81706 0.29314 0.0
O502 O 0.03719 0.77829 0.33774 0.0
O503 O 0.04697 0.79855 0.3226 0.0
C504 C 0.28601 0.09703 0.52261 0.0
C505 C 0.29088 0.09364 0.55421 0.0
C506 C 0.29101 0.09718 0.4872 0.0
C507 C 0.31849 0.0967 0.43839 0.0
H508 H 0.29556 0.08613 0.35439 0.0
C509 C 0.33588 0.10112 0.28591 0.0
C510 C 0.32845 0.09184 0.25995 0.0
C511 C 0.33149 0.10128 0.32207 0.0
C512 C 0.3021 0.08894 0.37752 0.0
H513 H 0.30487 0.08784 0.57376 0.0
H514 H 0.31333 0.0876 0.51172 0.0
H515 H 0.28767 0.08633 0.41676 0.0
H516 H 0.31075 0.07528 0.2515 0.0
H517 H 0.30326 0.07517 0.31503 0.0
H518 H 0.33283 0.0987 0.3993 0.0
C519 C 0.30586 0.09049 0.51427 0.0
C520 C 0.29759 0.08928 0.41336 0.0
C521 C 0.30097 0.09055 0.54984 0.0
C522 C 0.31664 0.08258 0.27095 0.0
C523 C 0.31232 0.0826 0.3073 0.0
C524 C 0.32298 0.09618 0.40258 0.0
C525 C 0.30087 0.09371 0.48241 0.0
C526 C 0.30573 0.09324 0.44428 0.0
C527 C 0.31964 0.09203 0.33327 0.0
C528 C 0.31485 0.09235 0.37161 0.0
H529 H 0.27832 0.0996 0.52522 0.0
H530 H 0.28713 0.10005 0.46358 0.0
H531 H 0.32508 0.09994 0.46136 0.0
H532 H 0.34498 0.10846 0.27805 0.0
H533 H 0.33731 0.10883 0.34094 0.0
C534 C 0.91277 0.23115 0.53767 0.0
C535 C 0.91207 0.23878 0.5673 0.0
C536 C 0.90987 0.23322 0.50113 0.0
C537 C 0.89142 0.24591 0.44892 0.0
H538 H 0.91362 0.24916 0.36597 0.0
C539 C 0.88402 0.26342 0.30523 0.0
C540 C 0.88667 0.2582 0.27285 0.0
C541 C 0.88721 0.26065 0.3405 0.0
C542 C 0.90721 0.24806 0.38867 0.0
H543 H 0.90784 0.25458 0.58193 0.0
H544 H 0.90255 0.25802 0.51822 0.0
H545 H 0.91901 0.24496 0.42883 0.0
H546 H 0.89473 0.24594 0.25198 0.0
H547 H 0.90001 0.24076 0.31385 0.0
H548 H 0.87946 0.24871 0.40914 0.0
C549 C 0.90537 0.25047 0.52328 0.0
C550 C 0.91033 0.24572 0.42468 0.0
C551 C 0.90846 0.24853 0.5597 0.0
C552 C 0.89262 0.25014 0.27647 0.0
C553 C 0.8957 0.24724 0.31193 0.0
C554 C 0.88821 0.24809 0.41294 0.0
C555 C 0.90603 0.24282 0.49366 0.0
C556 C 0.90254 0.24479 0.4552 0.0
C557 C 0.89299 0.25243 0.34443 0.0
C558 C 0.89615 0.24939 0.38238 0.0
H559 H 0.91555 0.22357 0.54271 0.0
H560 H 0.91038 0.22714 0.47882 0.0
H561 H 0.88514 0.24501 0.47187 0.0
H562 H 0.87955 0.26976 0.30336 0.0
H563 H 0.88525 0.2651 0.36468 0.0
C564 C 0.7251 0.63068 0.56702 0.0
C565 C 0.72947 0.6439 0.57263 0.0
C566 C 0.72419 0.62579 0.53084 0.0
C567 C 0.71932 0.63219 0.43527 0.0
H568 H 0.73841 0.61391 0.4049 0.0
C569 C 0.72749 0.62639 0.28143 0.0
C570 C 0.72658 0.61457 0.26914 0.0
C571 C 0.72783 0.62903 0.31947 0.0
C572 C 0.73287 0.61881 0.41309 0.0
H573 H 0.73615 0.66235 0.54535 0.0
H574 H 0.73421 0.65374 0.48214 0.0
H575 H 0.73822 0.6197 0.47077 0.0
H576 H 0.72578 0.59637 0.28654 0.0
H577 H 0.72604 0.60087 0.35349 0.0
H578 H 0.71383 0.6313 0.37817 0.0
C579 C 0.73163 0.64722 0.50566 0.0
C580 C 0.73278 0.62211 0.45066 0.0
C581 C 0.73278 0.65213 0.54172 0.0
C582 C 0.72649 0.60558 0.29545 0.0
C583 C 0.72666 0.60816 0.33368 0.0
C584 C 0.71927 0.62877 0.39797 0.0
C585 C 0.72736 0.63404 0.50001 0.0
C586 C 0.72625 0.62909 0.46169 0.0
C587 C 0.72707 0.61982 0.34602 0.0
C588 C 0.72633 0.62236 0.38628 0.0
H589 H 0.72255 0.62417 0.59051 0.0
H590 H 0.72086 0.61558 0.52687 0.0
H591 H 0.7141 0.63745 0.44344 0.0
H592 H 0.72775 0.63356 0.26168 0.0
H593 H 0.72853 0.63826 0.32808 0.0
C594 C 0.07594 0.30207 0.9377 0.0
C595 C 0.07091 0.28878 0.93268 0.0
C596 C 0.07887 0.30738 0.97338 0.0
C597 C 0.08403 0.30023 0.07118 0.0
H598 H 0.07704 0.32919 0.09278 0.0
C599 C 0.08212 0.31869 0.21998 0.0
C600 C 0.08849 0.33197 0.22553 0.0
C601 C 0.08087 0.31353 0.18413 0.0
C602 C 0.07916 0.32119 0.08697 0.0
H603 H 0.06502 0.27058 0.96087 0.0
H604 H 0.06969 0.27983 0.02365 0.0
H605 H 0.07279 0.31968 0.03059 0.0
H606 H 0.09863 0.35026 0.19821 0.0
H607 H 0.09622 0.34121 0.13519 0.0
H608 H 0.08998 0.30156 0.12828 0.0
C609 C 0.07168 0.28618 -0.00011 0.0
C610 C 0.07676 0.31576 0.05136 0.0
C611 C 0.06891 0.28087 0.96401 0.0
C612 C 0.09366 0.34 0.19466 0.0
C613 C 0.09226 0.33484 0.1587 0.0
C614 C 0.08627 0.30558 0.107 0.0
C615 C 0.07663 0.29951 0.00496 0.0
C616 C 0.0792 0.30523 0.04298 0.0
C617 C 0.08583 0.32157 0.15319 0.0
C618 C 0.08386 0.31612 0.11511 0.0
H619 H 0.07769 0.30843 0.91406 0.0
H620 H 0.08293 0.31768 0.97613 0.0
H621 H 0.08618 0.29225 0.06553 0.0
H622 H 0.07805 0.31227 0.24327 0.0
H623 H 0.07578 0.30328 0.1805 0.0
C624 C 0.62695 0.7587 0.20618 0.0
C625 C 0.61536 0.75831 0.21584 0.0
C626 C 0.62985 0.7578 0.16874 0.0
C627 C 0.61538 0.74402 0.08037 0.0
H628 H 0.64707 0.76721 0.037 0.0
C629 C 0.62878 0.73975 0.92636 0.0
C630 C 0.64137 0.74272 0.91968 0.0
C631 C 0.62499 0.74194 0.9617 0.0
C632 C 0.63824 0.76054 0.0488 0.0
H633 H 0.59777 0.7569 0.19406 0.0
H634 H 0.60277 0.75508 0.12863 0.0
H635 H 0.64187 0.77096 0.10036 0.0
H636 H 0.65975 0.74961 0.94484 0.0
H637 H 0.65311 0.75286 0.00652 0.0
H638 H 0.61192 0.73327 0.0295 0.0
C639 C 0.60961 0.75614 0.15003 0.0
C640 C 0.63525 0.76276 0.08498 0.0
C641 C 0.6068 0.75726 0.1874 0.0
C642 C 0.65 0.74739 0.94912 0.0
C643 C 0.6462 0.74938 0.9844 0.0
C644 C 0.61844 0.74167 0.0443 0.0
C645 C 0.62111 0.7563 0.14045 0.0
C646 C 0.62387 0.75444 0.10122 0.0
C647 C 0.63372 0.74696 0.99099 0.0
C648 C 0.63 0.7498 0.0283 0.0
H649 H 0.63372 0.75952 0.22755 0.0
H650 H 0.63876 0.75788 0.16199 0.0
H651 H 0.60656 0.73742 0.09248 0.0
H652 H 0.62195 0.73618 0.90404 0.0
H653 H 0.61531 0.74002 0.96573 0.0
C654 C 0.23492 0.90016 0.19549 0.0
C655 C 0.2334 0.90706 0.22583 0.0
C656 C 0.23232 0.90261 0.15901 0.0
C657 C 0.21394 0.91526 0.10577 0.0
H658 H 0.23805 0.92081 0.02659 0.0
C659 C 0.2084 0.93421 0.96203 0.0
C660 C 0.21195 0.92965 0.9299 0.0
C661 C 0.21114 0.93122 0.99763 0.0
C662 C 0.23112 0.91908 0.04817 0.0
H663 H 0.22783 0.92182 0.24188 0.0
H664 H 0.22306 0.92593 0.17817 0.0
H665 H 0.2424 0.91579 0.08969 0.0
H666 H 0.22116 0.91835 0.9098 0.0
H667 H 0.22564 0.91276 0.97212 0.0
H668 H 0.20251 0.91825 0.06452 0.0
C669 C 0.22631 0.91867 0.18263 0.0
C670 C 0.23364 0.91625 0.08436 0.0
C671 C 0.22909 0.91635 0.21905 0.0
C672 C 0.21836 0.92205 0.93409 0.0
C673 C 0.22098 0.91891 0.96984 0.0
C674 C 0.21134 0.91792 0.06957 0.0
C675 C 0.22796 0.91186 0.15223 0.0
C676 C 0.22513 0.91445 0.11358 0.0
C677 C 0.21735 0.92341 0.00211 0.0
C678 C 0.21995 0.92003 0.04033 0.0
H679 H 0.23825 0.89296 0.19987 0.0
H680 H 0.23357 0.89716 0.13612 0.0
H681 H 0.20712 0.91371 0.12765 0.0
H682 H 0.20355 0.9402 0.95974 0.0
H683 H 0.20846 0.93513 0.02167 0.0
C684 C 0.67966 0.92163 0.70951 0.0
C685 C 0.68609 0.92278 0.74332 0.0
C686 C 0.68591 0.92389 0.6755 0.0
C687 C 0.71149 0.92303 0.62504 0.0
H688 H 0.70604 0.94638 0.55818 0.0
C689 C 0.72991 0.93234 0.47199 0.0
C690 C 0.72151 0.93293 0.44524 0.0
C691 C 0.72728 0.93208 0.5102 0.0
C692 C 0.7076 0.93978 0.57639 0.0
H693 H 0.7041 0.92684 0.76792 0.0
H694 H 0.71511 0.93055 0.70746 0.0
H695 H 0.69871 0.94417 0.62259 0.0
H696 H 0.70368 0.93347 0.43745 0.0
H697 H 0.69896 0.93279 0.50387 0.0
H698 H 0.71988 0.91818 0.57826 0.0
C699 C 0.7052 0.92802 0.70785 0.0
C700 C 0.7035 0.93861 0.6133 0.0
C701 C 0.69892 0.92591 0.74228 0.0
C702 C 0.71037 0.9331 0.45738 0.0
C703 C 0.70772 0.93281 0.49549 0.0
C704 C 0.71554 0.92414 0.58785 0.0
C705 C 0.69874 0.92723 0.6743 0.0
C706 C 0.70509 0.92997 0.63763 0.0
C707 C 0.71619 0.93241 0.52238 0.0
C708 C 0.71329 0.93225 0.56285 0.0
H709 H 0.66977 0.9192 0.7092 0.0
H710 H 0.68069 0.92304 0.64996 0.0
H711 H 0.71275 0.91626 0.64332 0.0
H712 H 0.7386 0.93222 0.46347 0.0
H713 H 0.73401 0.93184 0.53019 0.0
C714 C 0.06767 0.77125 0.43577 0.0
C715 C 0.06155 0.77908 0.43049 0.0
C716 C 0.07013 0.7683 0.47199 0.0
C717 C 0.05993 0.76643 0.57019 0.0
H718 H 0.09329 0.77064 0.59411 0.0
C719 C 0.07531 0.76365 0.72284 0.0
C720 C 0.08375 0.75832 0.72845 0.0
C721 C 0.07233 0.76596 0.6865 0.0
C722 C 0.08385 0.7692 0.58791 0.0
H723 H 0.05303 0.78977 0.45904 0.0
H724 H 0.05717 0.7845 0.52189 0.0
H725 H 0.08842 0.77446 0.53049 0.0
H726 H 0.09538 0.7509 0.70038 0.0
H727 H 0.0899 0.75448 0.63753 0.0
H728 H 0.05525 0.76096 0.62734 0.0
C729 C 0.06008 0.78065 0.49817 0.0
C730 C 0.08109 0.77142 0.55136 0.0
C731 C 0.05778 0.78373 0.46211 0.0
C732 C 0.08895 0.75515 0.69707 0.0
C733 C 0.08587 0.7573 0.66089 0.0
C734 C 0.06265 0.76405 0.60668 0.0
C735 C 0.06635 0.77297 0.50357 0.0
C736 C 0.06912 0.77011 0.54211 0.0
C737 C 0.07761 0.76285 0.65499 0.0
C738 C 0.07466 0.76543 0.61612 0.0
H739 H 0.0707 0.76753 0.41198 0.0
H740 H 0.07491 0.76229 0.47531 0.0
H741 H 0.05058 0.76524 0.56382 0.0
H742 H 0.07119 0.76624 0.74649 0.0
H743 H 0.06606 0.77039 0.6832 0.0
C744 C 0.26957 0.36906 0.4474 0.0
C745 C 0.25865 0.36438 0.42576 0.0
C746 C 0.26889 0.3705 0.486 0.0
C747 C 0.24966 0.37073 0.56549 0.0
H748 H 0.25957 0.34601 0.60927 0.0
C749 C 0.23591 0.354 0.71576 0.0
C750 C 0.24495 0.35267 0.7381 0.0
C751 C 0.23736 0.35505 0.67703 0.0
C752 C 0.25694 0.3531 0.59781 0.0
H753 H 0.23873 0.3586 0.42603 0.0
H754 H 0.2376 0.36169 0.4934 0.0
H755 H 0.2641 0.3519 0.54376 0.0
H756 H 0.26219 0.35065 0.73791 0.0
H757 H 0.26505 0.35296 0.67042 0.0
H758 H 0.24275 0.37223 0.61945 0.0
C759 C 0.24665 0.36419 0.48073 0.0
C760 C 0.25956 0.35648 0.56029 0.0
C761 C 0.24729 0.36252 0.44225 0.0
C762 C 0.25502 0.35151 0.72108 0.0
C763 C 0.25665 0.35288 0.68236 0.0
C764 C 0.24726 0.36755 0.60325 0.0
C765 C 0.2573 0.36742 0.5031 0.0
C766 C 0.25584 0.36522 0.54378 0.0
C767 C 0.24808 0.35517 0.66002 0.0
C768 C 0.2507 0.35854 0.61979 0.0
H769 H 0.27835 0.37024 0.43522 0.0
H770 H 0.27722 0.37302 0.50283 0.0
H771 H 0.24668 0.37745 0.55321 0.0
H772 H 0.22803 0.35485 0.72843 0.0
H773 H 0.23031 0.35629 0.66065 0.0
C774 C 0.89974 0.68122 0.78791 0.0
C775 C 0.90313 0.6891 0.75614 0.0
C776 C 0.89842 0.68595 0.82253 0.0
C777 C 0.90785 0.71542 0.87713 0.0
H778 H 0.88173 0.69275 0.94332 0.0
C779 C 0.90069 0.72917 0.02847 0.0
C780 C 0.89983 0.72012 0.05577 0.0
C781 C 0.90013 0.72615 0.99046 0.0
C782 C 0.88907 0.69917 0.92515 0.0
H783 H 0.90783 0.70821 0.73579 0.0
H784 H 0.90541 0.71657 0.79693 0.0
H785 H 0.88229 0.68646 0.87853 0.0
H786 H 0.89749 0.70077 0.06477 0.0
H787 H 0.89632 0.69543 0.99827 0.0
H788 H 0.91463 0.72808 0.92418 0.0
C789 C 0.90386 0.70669 0.79477 0.0
C790 C 0.88941 0.69559 0.88808 0.0
C791 C 0.90521 0.70191 0.75982 0.0
C792 C 0.89817 0.70792 0.04436 0.0
C793 C 0.89744 0.70486 0.00635 0.0
C794 C 0.90743 0.71906 0.91426 0.0
C795 C 0.90037 0.6987 0.82644 0.0
C796 C 0.89902 0.70348 0.86395 0.0
C797 C 0.89852 0.71397 0.97905 0.0
C798 C 0.89823 0.7108 0.93883 0.0
H799 H 0.89815 0.67132 0.78622 0.0
H800 H 0.89604 0.67961 0.84644 0.0
H801 H 0.91541 0.72167 0.85934 0.0
H802 H 0.90201 0.73867 0.03642 0.0
H803 H 0.90091 0.73332 0.96998 0.0
C804 C 0.38075 0.27846 0.06628 0.0
C805 C 0.36932 0.26821 0.07568 0.0
C806 C 0.38596 0.27895 0.03079 0.0
C807 C 0.38613 0.28144 0.94511 0.0
H808 H 0.38572 0.25191 0.89322 0.0
C809 C 0.3809 0.27526 0.78535 0.0
C810 C 0.3886 0.27079 0.76666 0.0
C811 C 0.38061 0.27547 0.82442 0.0
C812 C 0.38603 0.26029 0.9074 0.0
H813 H 0.35484 0.25003 0.05709 0.0
H814 H 0.36403 0.25071 0.99583 0.0
H815 H 0.3827 0.25116 0.96099 0.0
H816 H 0.40195 0.26288 0.77419 0.0
H817 H 0.40129 0.26309 0.84247 0.0
H818 H 0.389 0.29039 0.89135 0.0
C819 C 0.36896 0.25841 0.0154 0.0
C820 C 0.38428 0.25985 0.94611 0.0
C821 C 0.36366 0.25805 0.05038 0.0
C822 C 0.39589 0.26637 0.78781 0.0
C823 C 0.39552 0.26647 0.82687 0.0
C824 C 0.38776 0.28183 0.90634 0.0
C825 C 0.37993 0.26906 0.00474 0.0
C826 C 0.38403 0.27031 0.96521 0.0
C827 C 0.38795 0.27111 0.84557 0.0
C828 C 0.38744 0.27116 0.88701 0.0
H829 H 0.38523 0.28644 0.08533 0.0
H830 H 0.39446 0.28724 0.02323 0.0
H831 H 0.38586 0.28959 0.95904 0.0
H832 H 0.3752 0.27875 0.76982 0.0
H833 H 0.37454 0.27892 0.83811 0.0
C834 C 0.74116 0.10093 0.77926 0.0
C835 C 0.74039 0.11233 0.77027 0.0
C836 C 0.74313 0.09836 0.81632 0.0
C837 C 0.7565 0.11388 0.90512 0.0
H838 H 0.73509 0.08131 0.95049 0.0
C839 C 0.76837 0.09579 0.04285 0.0
C840 C 0.75891 0.091 0.07005 0.0
C841 C 0.76579 0.09878 0.00704 0.0
C842 C 0.74109 0.09046 0.93819 0.0
H843 H 0.74132 0.13006 0.79282 0.0
H844 H 0.74507 0.12569 0.85723 0.0
H845 H 0.73141 0.0856 0.88559 0.0
H846 H 0.73934 0.08559 0.08113 0.0
H847 H 0.73474 0.09056 0.01781 0.0
H848 H 0.76632 0.11866 0.95739 0.0
C849 C 0.74404 0.11871 0.83573 0.0
C850 C 0.73906 0.09287 0.90104 0.0
C851 C 0.74186 0.12118 0.79888 0.0
C852 C 0.74681 0.08929 0.06073 0.0
C853 C 0.74417 0.09207 0.02454 0.0
C854 C 0.75866 0.1114 0.94199 0.0
C855 C 0.7446 0.10724 0.84488 0.0
C856 C 0.74675 0.1046 0.88416 0.0
C857 C 0.75366 0.09685 0.99741 0.0
C858 C 0.75098 0.09966 0.95887 0.0
H859 H 0.74001 0.09391 0.75781 0.0
H860 H 0.74363 0.08948 0.82262 0.0
H861 H 0.76259 0.12299 0.89274 0.0
H862 H 0.7778 0.09724 0.04925 0.0
H863 H 0.77326 0.10237 0.98659 0.0
C864 C 0.95435 0.42199 0.85824 0.0
C865 C 0.96234 0.4248 0.88933 0.0
C866 C 0.95876 0.42153 0.82235 0.0
C867 C 0.98473 0.41834 0.77293 0.0
H868 H 0.97166 0.42898 0.68713 0.0
C869 C 0.00618 0.42563 0.62475 0.0
C870 C 0.99783 0.42018 0.59492 0.0
C871 C 0.00173 0.42567 0.66084 0.0
C872 C 0.97529 0.42587 0.71084 0.0
H873 H 0.98129 0.4297 0.90719 0.0
H874 H 0.98916 0.42939 0.84429 0.0
H875 H 0.9646 0.43098 0.7498 0.0
H876 H 0.97828 0.41035 0.57945 0.0
H877 H 0.97046 0.41067 0.64268 0.0
H878 H 0.99571 0.41363 0.73369 0.0
C879 C 0.97938 0.42715 0.8477 0.0
C880 C 0.97124 0.42698 0.74678 0.0
C881 C 0.97491 0.42743 0.88374 0.0
C882 C 0.98492 0.41461 0.60192 0.0
C883 C 0.98045 0.41485 0.63799 0.0
C884 C 0.9889 0.41741 0.73701 0.0
C885 C 0.97131 0.42405 0.81657 0.0
C886 C 0.97587 0.42318 0.77832 0.0
C887 C 0.98883 0.42043 0.66771 0.0
C888 C 0.98419 0.42113 0.70566 0.0
H889 H 0.94458 0.41981 0.86169 0.0
H890 H 0.9522 0.41889 0.79928 0.0
H891 H 0.98832 0.41508 0.79637 0.0
H892 H 0.01619 0.42998 0.62016 0.0
H893 H 0.00837 0.43011 0.68323 0.0
C894 C 0.55108 0.60167 0.62304 0.0
C895 C 0.55388 0.59703 0.58975 0.0
C896 C 0.55387 0.59807 0.65769 0.0
C897 C 0.57272 0.58395 0.70464 0.0
H898 H 0.54906 0.57894 0.78486 0.0
C899 C 0.57638 0.56537 0.85368 0.0
C900 C 0.57502 0.57265 0.88329 0.0
C901 C 0.57391 0.56761 0.81678 0.0
C902 C 0.55577 0.58035 0.76277 0.0
H903 H 0.56197 0.58511 0.56661 0.0
H904 H 0.56664 0.57854 0.62751 0.0
H905 H 0.54452 0.58395 0.72226 0.0
H906 H 0.57005 0.58798 0.89745 0.0
H907 H 0.56554 0.59172 0.8333 0.0
H908 H 0.58386 0.58014 0.7456 0.0
C909 C 0.56245 0.58514 0.62673 0.0
C910 C 0.55322 0.58329 0.72688 0.0
C911 C 0.55975 0.58887 0.59184 0.0
C912 C 0.57116 0.5822 0.8753 0.0
C913 C 0.56852 0.58431 0.83858 0.0
C914 C 0.57521 0.58087 0.74061 0.0
C915 C 0.55939 0.58958 0.66011 0.0
C916 C 0.56177 0.58542 0.69749 0.0
C917 C 0.56985 0.57703 0.80895 0.0
C918 C 0.56687 0.57929 0.77015 0.0
H919 H 0.54668 0.60809 0.6224 0.0
H920 H 0.55169 0.60198 0.68267 0.0
H921 H 0.57955 0.5856 0.68279 0.0
H922 H 0.57937 0.55796 0.85901 0.0
H923 H 0.57496 0.56184 0.79447 0.0
C924 C 0.40406 0.98341 0.87577 0.0
C925 C 0.41143 0.99641 0.88358 0.0
C926 C 0.40305 0.97885 0.83918 0.0
C927 C 0.40205 0.98828 0.74539 0.0
H928 H 0.41065 0.96117 0.71397 0.0
C929 C 0.39849 0.97358 0.59147 0.0
C930 C 0.39449 0.96061 0.58309 0.0
C931 C 0.40153 0.97797 0.62807 0.0
C932 C 0.40802 0.96862 0.72238 0.0
H933 H 0.42363 0.01482 0.85975 0.0
H934 H 0.42147 0.00687 0.79545 0.0
H935 H 0.41408 0.96855 0.77894 0.0
H936 H 0.3905 0.94199 0.60607 0.0
H937 H 0.39512 0.9495 0.6705 0.0
H938 H 0.3954 0.98805 0.68996 0.0
C939 C 0.41666 0.00024 0.81776 0.0
C940 C 0.41007 0.97287 0.75944 0.0
C941 C 0.4179 0.00475 0.85441 0.0
C942 C 0.3936 0.95207 0.61188 0.0
C943 C 0.39636 0.95641 0.64872 0.0
C944 C 0.39975 0.98387 0.70865 0.0
C945 C 0.40918 0.98729 0.80994 0.0
C946 C 0.40716 0.98277 0.77101 0.0
C947 C 0.4003 0.96942 0.65729 0.0
C948 C 0.40278 0.97404 0.69656 0.0
H949 H 0.39905 0.97679 0.89784 0.0
H950 H 0.39717 0.96884 0.83353 0.0
H951 H 0.39959 0.99583 0.75405 0.0
H952 H 0.39937 0.9804 0.56974 0.0
H953 H 0.40485 0.98811 0.63335 0.0
C954 C 0.56834 0.02577 0.41243 0.0
C955 C 0.57077 0.03859 0.4181 0.0
C956 C 0.56752 0.02094 0.37616 0.0
C957 C 0.56221 0.02722 0.27803 0.0
H958 H 0.57807 0.00513 0.25533 0.0
C959 C 0.56774 0.01213 0.12708 0.0
C960 C 0.56534 0.99928 0.12219 0.0
C961 C 0.56826 0.0171 0.16307 0.0
C962 C 0.5735 0.0112 0.26133 0.0
H963 H 0.57426 0.05644 0.39035 0.0
H964 H 0.57297 0.04807 0.3273 0.0
H965 H 0.57909 0.01325 0.31877 0.0
H966 H 0.56138 0.98149 0.15098 0.0
H967 H 0.56218 0.9901 0.21339 0.0
H968 H 0.55665 0.02517 0.22048 0.0
C969 C 0.57152 0.04168 0.35074 0.0
C970 C 0.57406 0.01582 0.29766 0.0
C971 C 0.57233 0.04649 0.3869 0.0
C972 C 0.56332 0.99146 0.1538 0.0
C973 C 0.56385 0.99641 0.18962 0.0
C974 C 0.56166 0.0226 0.24165 0.0
C975 C 0.56911 0.02886 0.34495 0.0
C976 C 0.5684 0.02386 0.30643 0.0
C977 C 0.56642 0.00929 0.19469 0.0
C978 C 0.56725 0.0145 0.23298 0.0
H979 H 0.56706 0.01946 0.43596 0.0
H980 H 0.56552 0.01098 0.37255 0.0
H981 H 0.55763 0.03327 0.28404 0.0
H982 H 0.56934 0.01838 0.1032 0.0
H983 H 0.57034 0.0271 0.16618 0.0
C984 C 0.02294 0.59495 0.39856 0.0
C985 C 0.00991 0.59037 0.40163 0.0
C986 C 0.02863 0.59729 0.36319 0.0
C987 C 0.02354 0.60506 0.26737 0.0
H988 H 0.04557 0.59026 0.23592 0.0
C989 C 0.03477 0.60223 0.1121 0.0
C990 C 0.04683 0.60389 0.10263 0.0
C991 C 0.03117 0.60138 0.14962 0.0
C992 C 0.03961 0.59466 0.2444 0.0
H993 H 0.99264 0.58441 0.3701 0.0
H994 H 0.00253 0.58857 0.30916 0.0
H995 H 0.03817 0.58764 0.30057 0.0
H996 H 0.06466 0.60617 0.12492 0.0
H997 H 0.05849 0.605 0.19023 0.0
H998 H 0.02491 0.61211 0.21159 0.0
C999 C 0.00836 0.59044 0.33384 0.0
C1000 C 0.03538 0.59314 0.28142 0.0
C1001 C 0.00271 0.58798 0.36885 0.0
C1002 C 0.05525 0.60479 0.13135 0.0
C1003 C 0.05169 0.60405 0.16882 0.0
C1004 C 0.02784 0.60668 0.23056 0.0
C1005 C 0.02136 0.59524 0.3306 0.0
C1006 C 0.0271 0.59809 0.29296 0.0
C1007 C 0.0396 0.60229 0.17846 0.0
C1008 C 0.03572 0.60128 0.21836 0.0
H1009 H 0.02871 0.59687 0.42335 0.0
H1010 H 0.03869 0.60097 0.36131 0.0
H1011 H 0.01728 0.60912 0.27577 0.0
H1012 H 0.02807 0.60144 0.09056 0.0
H1013 H 0.0217 0.59979 0.15596 0.0
C1014 C 0.40479 0.44586 0.13157 0.0
C1015 C 0.40199 0.45602 0.12186 0.0
C1016 C 0.40595 0.44322 0.16918 0.0
C1017 C 0.41267 0.45781 0.26253 0.0
H1018 H 0.3965 0.4228 0.29798 0.0
C1019 C 0.42611 0.43999 0.3977 0.0
C1020 C 0.41642 0.43244 0.42195 0.0
C1021 C 0.42343 0.44358 0.36288 0.0
C1022 C 0.40094 0.43262 0.28849 0.0
H1023 H 0.39842 0.47153 0.1439 0.0
H1024 H 0.40059 0.467 0.20936 0.0
H1025 H 0.39395 0.42753 0.23262 0.0
H1026 H 0.39635 0.42279 0.42931 0.0
H1027 H 0.39161 0.4287 0.36719 0.0
H1028 H 0.41993 0.46284 0.31816 0.0
C1029 C 0.40188 0.46107 0.18795 0.0
C1030 C 0.3996 0.43531 0.25108 0.0
C1031 C 0.40063 0.46365 0.15044 0.0
C1032 C 0.40397 0.42867 0.41105 0.0
C1033 C 0.40127 0.43199 0.37562 0.0
C1034 C 0.41415 0.45509 0.29975 0.0
C1035 C 0.40444 0.45076 0.19774 0.0
C1036 C 0.40555 0.44793 0.23765 0.0
C1037 C 0.411 0.43944 0.35124 0.0
C1038 C 0.40839 0.44247 0.31296 0.0
H1039 H 0.40588 0.4398 0.11018 0.0
H1040 H 0.40809 0.43531 0.17593 0.0
H1041 H 0.41738 0.46761 0.25294 0.0
H1042 H 0.43579 0.44308 0.40564 0.0
H1043 H 0.43109 0.44927 0.34451 0.0
C1044 C 0.35039 0.22888 0.17629 0.0
C1045 C 0.34047 0.23046 0.19322 0.0
C1046 C 0.35084 0.21707 0.17763 0.0
C1047 C 0.33783 0.18602 0.22729 0.0
H1048 H 0.34391 0.17276 0.13369 0.0
C1049 C 0.32206 0.13244 0.20182 0.0
C1050 C 0.33008 0.1286 0.18212 0.0
C1051 C 0.32486 0.14536 0.20524 0.0
C1052 C 0.34239 0.1764 0.16018 0.0
H1053 H 0.32349 0.22096 0.22586 0.0
H1054 H 0.32425 0.20044 0.22786 0.0
H1055 H 0.34637 0.1947 0.13675 0.0
H1056 H 0.34742 0.13541 0.15072 0.0
H1057 H 0.35229 0.15801 0.15673 0.0
H1058 H 0.33356 0.16762 0.25048 0.0
C1059 C 0.33172 0.20833 0.21382 0.0
C1060 C 0.34382 0.18897 0.16195 0.0
C1061 C 0.33124 0.22008 0.21238 0.0
C1062 C 0.34101 0.13802 0.16602 0.0
C1063 C 0.34379 0.15096 0.16933 0.0
C1064 C 0.3364 0.17346 0.22551 0.0
C1065 C 0.34144 0.20664 0.19609 0.0
C1066 C 0.34131 0.19383 0.19534 0.0
C1067 C 0.33574 0.15476 0.18899 0.0
C1068 C 0.33842 0.16844 0.19175 0.0
H1069 H 0.35767 0.23667 0.16136 0.0
H1070 H 0.35851 0.21608 0.16401 0.0
H1071 H 0.33605 0.18958 0.25358 0.0
H1072 H 0.31357 0.12546 0.21463 0.0
H1073 H 0.31838 0.14798 0.22008 0.0
C1074 C 0.80363 0.12883 0.21322 0.0
C1075 C 0.79266 0.12141 0.19314 0.0
C1076 C 0.80889 0.14218 0.21195 0.0
C1077 C 0.80979 0.16883 0.15421 0.0
H1078 H 0.8242 0.18892 0.24342 0.0
C1079 C 0.83166 0.22412 0.15334 0.0
C1080 C 0.84331 0.23031 0.17131 0.0
C1081 C 0.82436 0.21097 0.15789 0.0
C1082 C 0.82027 0.18345 0.21821 0.0
H1083 H 0.77857 0.12232 0.15616 0.0
H1084 H 0.78771 0.14556 0.15422 0.0
H1085 H 0.81371 0.16565 0.24751 0.0
H1086 H 0.8562 0.22751 0.20916 0.0
H1087 H 0.84356 0.2047 0.21673 0.0
H1088 H 0.81652 0.18662 0.12481 0.0
C1089 C 0.79232 0.14104 0.17062 0.0
C1090 C 0.81428 0.17011 0.22055 0.0
C1091 C 0.78705 0.12769 0.1719 0.0
C1092 C 0.8473 0.2231 0.19475 0.0
C1093 C 0.84 0.21 0.19935 0.0
C1094 C 0.81579 0.18217 0.15187 0.0
C1095 C 0.80332 0.14844 0.19056 0.0
C1096 C 0.80911 0.16264 0.18848 0.0
C1097 C 0.82852 0.20373 0.18065 0.0
C1098 C 0.82124 0.18963 0.18375 0.0
H1099 H 0.80822 0.12434 0.22986 0.0
H1100 H 0.81746 0.1476 0.22724 0.0
H1101 H 0.80604 0.16337 0.12889 0.0
H1102 H 0.82827 0.22937 0.13516 0.0
H1103 H 0.81548 0.20644 0.14343 0.0
C1104 C 0.86016 0.70437 0.15296 0.0
C1105 C 0.86446 0.71198 0.18531 0.0
C1106 C 0.84791 0.69472 0.15079 0.0
C1107 C 0.8167 0.68315 0.19701 0.0
H1108 H 0.80986 0.65164 0.14384 0.0
C1109 C 0.76954 0.64008 0.21215 0.0
C1110 C 0.76302 0.63502 0.17873 0.0
C1111 C 0.78233 0.64809 0.21174 0.0
C1112 C 0.81164 0.66041 0.15859 0.0
H1113 H 0.85917 0.71531 0.24085 0.0
H1114 H 0.83798 0.69829 0.23764 0.0
H1115 H 0.8312 0.66873 0.14595 0.0
H1116 H 0.76492 0.63363 0.11889 0.0
H1117 H 0.78756 0.64765 0.11814 0.0
H1118 H 0.79722 0.6747 0.21039 0.0
C1119 C 0.84394 0.69997 0.21338 0.0
C1120 C 0.82386 0.67027 0.15971 0.0
C1121 C 0.85615 0.70974 0.21535 0.0
C1122 C 0.76976 0.63727 0.14508 0.0
C1123 C 0.78268 0.64536 0.14467 0.0
C1124 C 0.80458 0.67327 0.19629 0.0
C1125 C 0.83962 0.69227 0.18109 0.0
C1126 C 0.82658 0.68177 0.17914 0.0
C1127 C 0.78894 0.6513 0.17786 0.0
C1128 C 0.80191 0.66175 0.17734 0.0
H1129 H 0.86628 0.70587 0.12916 0.0
H1130 H 0.84493 0.68923 0.12516 0.0
H1131 H 0.81826 0.69192 0.21139 0.0
H1132 H 0.76457 0.63847 0.23849 0.0
H1133 H 0.78693 0.65229 0.23784 0.0
C1134 C 0.12564 0.32121 0.29677 0.0
C1135 C 0.12314 0.33112 0.3112 0.0
C1136 C 0.13774 0.32217 0.29724 0.0
C1137 C 0.17095 0.34493 0.30387 0.0
H1138 H 0.17472 0.31461 0.33227 0.0
C1139 C 0.21905 0.3443 0.32615 0.0
C1140 C 0.22028 0.33357 0.31218 0.0
C1141 C 0.20744 0.34463 0.32595 0.0
C1142 C 0.17382 0.32312 0.3239 0.0
H1143 H 0.13153 0.34996 0.33679 0.0
H1144 H 0.15272 0.35157 0.3378 0.0
H1145 H 0.15407 0.31414 0.33262 0.0
H1146 H 0.21028 0.31494 0.28614 0.0
H1147 H 0.19013 0.31559 0.2856 0.0
H1148 H 0.19077 0.35388 0.2951 0.0
C1149 C 0.14526 0.3431 0.32595 0.0
C1150 C 0.16199 0.32285 0.32413 0.0
C1151 C 0.13311 0.34214 0.32551 0.0
C1152 C 0.20969 0.32331 0.29738 0.0
C1153 C 0.1981 0.32365 0.29724 0.0
C1154 C 0.18283 0.3452 0.30365 0.0
C1155 C 0.14766 0.33305 0.31217 0.0
C1156 C 0.16039 0.33369 0.31367 0.0
C1157 C 0.19682 0.33424 0.3119 0.0
C1158 C 0.18435 0.33423 0.31324 0.0
H1159 H 0.11825 0.31263 0.28518 0.0
H1160 H 0.13932 0.31438 0.28572 0.0
H1161 H 0.16999 0.3534 0.29542 0.0
H1162 H 0.227 0.35237 0.3378 0.0
H1163 H 0.20672 0.35288 0.33768 0.0
C1164 C 0.63474 0.79934 0.31275 0.0
C1165 C 0.62583 0.79666 0.34144 0.0
C1166 C 0.64494 0.81134 0.31016 0.0
C1167 C 0.66433 0.8396 0.36662 0.0
H1168 H 0.67575 0.85559 0.27 0.0
C1169 C 0.70221 0.89154 0.35094 0.0
C1170 C 0.71077 0.8945 0.32118 0.0
C1171 C 0.69223 0.87941 0.35403 0.0
C1172 C 0.67281 0.85117 0.29715 0.0
H1173 H 0.62064 0.80468 0.38955 0.0
H1174 H 0.63849 0.82571 0.38489 0.0
H1175 H 0.65718 0.83521 0.27373 0.0
H1176 H 0.71571 0.88675 0.27197 0.0
H1177 H 0.69835 0.86546 0.27768 0.0
H1178 H 0.67997 0.85555 0.39005 0.0
C1179 C 0.63758 0.81842 0.36462 0.0
C1180 C 0.66212 0.83951 0.29931 0.0
C1181 C 0.6273 0.8064 0.36712 0.0
C1182 C 0.70931 0.88484 0.29522 0.0
C1183 C 0.69928 0.87266 0.29831 0.0
C1184 C 0.67504 0.85126 0.36446 0.0
C1185 C 0.64656 0.82099 0.33622 0.0
C1186 C 0.65775 0.83358 0.33407 0.0
C1187 C 0.69053 0.86986 0.32749 0.0
C1188 C 0.6794 0.85721 0.3297 0.0
H1189 H 0.63393 0.79211 0.29236 0.0
H1190 H 0.65173 0.81294 0.28819 0.0
H1191 H 0.66134 0.8352 0.39376 0.0
H1192 H 0.70301 0.89871 0.37156 0.0
H1193 H 0.68562 0.87766 0.37663 0.0
C1194 C 0.18852 0.88239 0.34722 0.0
C1195 C 0.19774 0.88008 0.32868 0.0
C1196 C 0.17623 0.87297 0.34897 0.0
C1197 C 0.15372 0.84678 0.29537 0.0
H1198 H 0.13337 0.84033 0.3848 0.0
C1199 C 0.10007 0.82843 0.29167 0.0
C1200 C 0.09292 0.81871 0.31691 0.0
C1201 C 0.11313 0.83433 0.29397 0.0
C1202 C 0.13894 0.84192 0.35967 0.0
H1203 H 0.20148 0.86603 0.29812 0.0
H1204 H 0.17967 0.84947 0.30026 0.0
H1205 H 0.15602 0.85291 0.38908 0.0
H1206 H 0.09394 0.80768 0.36464 0.0
H1207 H 0.11673 0.8182 0.36902 0.0
H1208 H 0.13657 0.83619 0.26573 0.0
C1209 C 0.18209 0.85859 0.31384 0.0
C1210 C 0.15189 0.84914 0.3621 0.0
C1211 C 0.19453 0.86799 0.31281 0.0
C1212 C 0.09915 0.81513 0.34473 0.0
C1213 C 0.1122 0.82116 0.34732 0.0
C1214 C 0.14073 0.83969 0.29285 0.0
C1215 C 0.1728 0.86107 0.33159 0.0
C1216 C 0.15939 0.85184 0.32989 0.0
C1217 C 0.11933 0.83078 0.32184 0.0
C1218 C 0.13319 0.83737 0.32488 0.0
H1219 H 0.19077 0.89164 0.35971 0.0
H1220 H 0.16928 0.87521 0.36251 0.0
H1221 H 0.15925 0.84881 0.27005 0.0
H1222 H 0.09561 0.83139 0.26977 0.0
H1223 H 0.11837 0.84183 0.27423 0.0
C1224 C 0.66452 0.87724 0.83089 0.0
C1225 C 0.65436 0.87886 0.84584 0.0
C1226 C 0.66381 0.86498 0.82628 0.0
C1227 C 0.64077 0.83144 0.8162 0.0
H1228 H 0.66742 0.82317 0.84933 0.0
C1229 C 0.63282 0.7798 0.83965 0.0
C1230 C 0.64211 0.7762 0.82799 0.0
C1231 C 0.635 0.79259 0.839 0.0
C1232 C 0.65998 0.82538 0.83944 0.0
H1233 H 0.63556 0.86882 0.86822 0.0
H1234 H 0.63439 0.84762 0.86029 0.0
H1235 H 0.67014 0.84525 0.85326 0.0
H1236 H 0.66106 0.78328 0.80665 0.0
H1237 H 0.66481 0.80567 0.80534 0.0
H1238 H 0.63054 0.81163 0.80277 0.0
C1239 C 0.64284 0.85579 0.85167 0.0
C1240 C 0.66154 0.83801 0.8417 0.0
C1241 C 0.64355 0.86798 0.85642 0.0
C1242 C 0.65368 0.78572 0.8158 0.0
C1243 C 0.65587 0.79855 0.8152 0.0
C1244 C 0.63922 0.81887 0.81389 0.0
C1245 C 0.6529 0.85414 0.83629 0.0
C1246 C 0.65184 0.84109 0.83081 0.0
C1247 C 0.64653 0.8021 0.82666 0.0
C1248 C 0.6487 0.81566 0.82618 0.0
H1249 H 0.67299 0.88541 0.8225 0.0
H1250 H 0.67169 0.86397 0.81426 0.0
H1251 H 0.63324 0.83359 0.80687 0.0
H1252 H 0.62383 0.77276 0.84946 0.0
H1253 H 0.6277 0.79506 0.84866 0.0
C1254 C 0.17548 0.89369 0.84414 0.0
C1255 C 0.17104 0.90074 0.8216 0.0
C1256 C 0.16887 0.88043 0.84682 0.0
C1257 C 0.13809 0.8532 0.83204 0.0
H1258 H 0.15772 0.83398 0.82562 0.0
C1259 C 0.11571 0.79789 0.82097 0.0
C1260 C 0.12128 0.79158 0.84223 0.0
C1261 C 0.12144 0.81122 0.81781 0.0
C1262 C 0.1521 0.8392 0.82787 0.0
H1263 H 0.15588 0.89933 0.78519 0.0
H1264 H 0.14434 0.87609 0.78986 0.0
H1265 H 0.1681 0.8572 0.82211 0.0
H1266 H 0.13726 0.79444 0.87703 0.0
H1267 H 0.14714 0.8176 0.87177 0.0
H1268 H 0.12208 0.83513 0.838 0.0
C1269 C 0.15295 0.8809 0.80552 0.0
C1270 C 0.15805 0.85251 0.82585 0.0
C1271 C 0.15959 0.89421 0.80277 0.0
C1272 C 0.13272 0.79893 0.86023 0.0
C1273 C 0.13843 0.81224 0.85708 0.0
C1274 C 0.13212 0.83984 0.83414 0.0
C1275 C 0.15765 0.87386 0.82707 0.0
C1276 C 0.15114 0.85968 0.82824 0.0
C1277 C 0.13288 0.81854 0.83579 0.0
C1278 C 0.13908 0.8327 0.83238 0.0
H1279 H 0.18419 0.89836 0.85939 0.0
H1280 H 0.1726 0.87531 0.86427 0.0
H1281 H 0.13252 0.85847 0.83425 0.0
H1282 H 0.10691 0.79255 0.80667 0.0
H1283 H 0.11699 0.81578 0.80088 0.0
C1284 C 0.11218 0.28587 0.82945 0.0
C1285 C 0.10693 0.29022 0.85817 0.0
C1286 C 0.12472 0.28797 0.83167 0.0
C1287 C 0.15226 0.29902 0.89649 0.0
H1288 H 0.17114 0.31638 0.8087 0.0
C1289 C 0.20218 0.33929 0.90387 0.0
C1290 C 0.2108 0.3403 0.87567 0.0
C1291 C 0.18981 0.32993 0.90181 0.0
C1292 C 0.16603 0.31135 0.83326 0.0
H1293 H 0.11022 0.29911 0.91292 0.0
H1294 H 0.13183 0.30268 0.91697 0.0
H1295 H 0.14846 0.30475 0.80493 0.0
H1296 H 0.21318 0.33194 0.82362 0.0
H1297 H 0.19154 0.31571 0.81994 0.0
H1298 H 0.16982 0.30624 0.92529 0.0
C1299 C 0.12646 0.29768 0.89269 0.0
C1300 C 0.15301 0.30462 0.83106 0.0
C1301 C 0.11407 0.29573 0.89028 0.0
C1302 C 0.2068 0.33148 0.84584 0.0
C1303 C 0.19439 0.32219 0.84361 0.0
C1304 C 0.16526 0.30581 0.89873 0.0
C1305 C 0.13211 0.29427 0.86289 0.0
C1306 C 0.14592 0.29879 0.86303 0.0
C1307 C 0.18572 0.32141 0.87136 0.0
C1308 C 0.17225 0.31243 0.86748 0.0
H1309 H 0.10688 0.28163 0.80434 0.0
H1310 H 0.12877 0.28511 0.80839 0.0
H1311 H 0.14711 0.29442 0.92145 0.0
H1312 H 0.20492 0.34586 0.92733 0.0
H1313 H 0.18333 0.32969 0.92344 0.0
C1314 C 0.76886 0.63542 0.65884 0.0
C1315 C 0.76543 0.64551 0.65631 0.0
C1316 C 0.78134 0.63773 0.65518 0.0
C1317 C 0.80695 0.64344 0.62621 0.0
H1318 H 0.83334 0.67482 0.66448 0.0
C1319 C 0.85851 0.65444 0.60553 0.0
C1320 C 0.8667 0.66034 0.63532 0.0
C1321 C 0.84645 0.65361 0.60563 0.0
C1322 C 0.82609 0.66594 0.65395 0.0
H1323 H 0.77232 0.66591 0.64735 0.0
H1324 H 0.79403 0.66989 0.63949 0.0
H1325 H 0.8117 0.67108 0.67126 0.0
H1326 H 0.86883 0.67012 0.68841 0.0
H1327 H 0.8476 0.66813 0.6896 0.0
H1328 H 0.82123 0.63792 0.611 0.0
C1329 C 0.78718 0.66025 0.64554 0.0
C1330 C 0.81366 0.66388 0.65731 0.0
C1331 C 0.77472 0.65796 0.64989 0.0
C1332 C 0.8627 0.66556 0.66499 0.0
C1333 C 0.85055 0.6645 0.66549 0.0
C1334 C 0.81935 0.64539 0.62345 0.0
C1335 C 0.79066 0.65016 0.64816 0.0
C1336 C 0.80392 0.65256 0.64369 0.0
C1337 C 0.84223 0.65842 0.63593 0.0
C1338 C 0.82908 0.65664 0.63745 0.0
H1339 H 0.7619 0.62573 0.66404 0.0
H1340 H 0.78368 0.62977 0.65823 0.0
H1341 H 0.79974 0.63472 0.61467 0.0
H1342 H 0.86144 0.65051 0.58201 0.0
H1343 H 0.84044 0.64915 0.58193 0.0
C1344 C 0.36827 0.22259 0.61539 0.0
C1345 C 0.36936 0.23272 0.63899 0.0
C1346 C 0.35826 0.2105 0.61923 0.0
C1347 C 0.32612 0.19409 0.65607 0.0
H1348 H 0.33185 0.16387 0.64571 0.0
C1349 C 0.28806 0.14207 0.68236 0.0
C1350 C 0.28824 0.13255 0.65835 0.0
C1351 C 0.29743 0.15465 0.68009 0.0
C1352 C 0.33006 0.17221 0.64824 0.0
H1353 H 0.36079 0.23794 0.68559 0.0
H1354 H 0.34339 0.21679 0.6924 0.0
H1355 H 0.34945 0.18493 0.64283 0.0
H1356 H 0.29791 0.12901 0.61144 0.0
H1357 H 0.31401 0.15084 0.60716 0.0
H1358 H 0.30666 0.18126 0.66141 0.0
C1359 C 0.35022 0.21828 0.67063 0.0
C1360 C 0.34016 0.18429 0.64663 0.0
C1361 C 0.36026 0.23038 0.66686 0.0
C1362 C 0.29758 0.13604 0.63079 0.0
C1363 C 0.30687 0.14856 0.62845 0.0
C1364 C 0.31597 0.18196 0.65767 0.0
C1365 C 0.34907 0.20821 0.64674 0.0
C1366 C 0.33832 0.19538 0.65014 0.0
C1367 C 0.30713 0.15794 0.65372 0.0
C1368 C 0.31782 0.17089 0.65331 0.0
H1369 H 0.37505 0.22401 0.59352 0.0
H1370 H 0.35757 0.20299 0.60007 0.0
H1371 H 0.32437 0.20245 0.65854 0.0
H1372 H 0.28101 0.1397 0.70394 0.0
H1373 H 0.29738 0.16167 0.69999 0.0
C1374 C 0.7749 0.16175 0.62853 0.0
C1375 C 0.76896 0.1504 0.64923 0.0
C1376 C 0.78783 0.16903 0.63061 0.0
C1377 C 0.81729 0.16743 0.65593 0.0
H1378 H 0.83026 0.20435 0.65721 0.0
C1379 C 0.87026 0.20319 0.6735 0.0
C1380 C 0.87444 0.21405 0.65039 0.0
C1381 C 0.85753 0.19456 0.67454 0.0
C1382 C 0.8268 0.19404 0.65661 0.0
H1383 H 0.77212 0.13786 0.6885 0.0
H1384 H 0.79468 0.15068 0.69234 0.0
H1385 H 0.8078 0.19119 0.65752 0.0
H1386 H 0.86862 0.22382 0.60831 0.0
H1387 H 0.84671 0.20887 0.60999 0.0
H1388 H 0.83644 0.17041 0.65494 0.0
C1389 C 0.78931 0.15384 0.67417 0.0
C1390 C 0.81391 0.1865 0.65671 0.0
C1391 C 0.77634 0.14654 0.67211 0.0
C1392 C 0.86574 0.21571 0.62704 0.0
C1393 C 0.85313 0.20716 0.62807 0.0
C1394 C 0.83026 0.17501 0.6559 0.0
C1395 C 0.79521 0.1652 0.6535 0.0
C1396 C 0.80898 0.1731 0.65571 0.0
C1397 C 0.8488 0.19667 0.6525 0.0
C1398 C 0.83513 0.18842 0.65551 0.0
H1399 H 0.76957 0.165 0.61043 0.0
H1400 H 0.79209 0.17762 0.61383 0.0
H1401 H 0.8138 0.15713 0.65497 0.0
H1402 H 0.87672 0.20162 0.69177 0.0
H1403 H 0.85445 0.18652 0.69358 0.0
C1404 C 0.00346 0.46405 0.49649 0.0
C1405 C 0.99361 0.45334 0.51249 0.0
C1406 C 0.00337 0.47605 0.4975 0.0
C1407 C 0.98897 0.49428 0.5469 0.0
H1408 H 0.99633 0.51437 0.45594 0.0
C1409 C 0.97514 0.53549 0.52832 0.0
C1410 C 0.98391 0.5468 0.51165 0.0
C1411 C 0.9771 0.5245 0.52867 0.0
C1412 C 0.9944 0.50895 0.48168 0.0
H1413 H 0.97606 0.44695 0.54276 0.0
H1414 H 0.97589 0.46772 0.54417 0.0
H1415 H 0.99884 0.49462 0.45712 0.0
H1416 H 0.00156 0.55529 0.48168 0.0
H1417 H 0.00496 0.5361 0.48246 0.0
H1418 H 0.98436 0.50848 0.57134 0.0
C1419 C 0.98374 0.46691 0.53115 0.0
C1420 C 0.99586 0.49766 0.48238 0.0
C1421 C 0.9838 0.45496 0.53004 0.0
C1422 C 0.99459 0.54677 0.49478 0.0
C1423 C 0.99653 0.53575 0.49507 0.0
C1424 C 0.9875 0.50554 0.54619 0.0
C1425 C 0.99347 0.47757 0.51474 0.0
C1426 C 0.99299 0.49011 0.51485 0.0
C1427 C 0.98786 0.52453 0.5123 0.0
C1428 C 0.99002 0.5129 0.51343 0.0
H1429 H 0.01116 0.46315 0.48281 0.0
H1430 H 0.01105 0.48413 0.48489 0.0
H1431 H 0.9869 0.48878 0.57255 0.0
H1432 H 0.96679 0.53514 0.5415 0.0
H1433 H 0.97014 0.51593 0.54163 0.0
C1434 C 0.46638 0.46759 0.54804 0.0
C1435 C 0.45434 0.46082 0.53294 0.0
C1436 C 0.47284 0.48082 0.54362 0.0
C1437 C 0.46861 0.50974 0.52208 0.0
H1438 H 0.50381 0.52392 0.49689 0.0
C1439 C 0.49778 0.56269 0.47902 0.0
C1440 C 0.51003 0.56885 0.49323 0.0
C1441 C 0.49061 0.54956 0.48438 0.0
C1442 C 0.49402 0.52013 0.50434 0.0
H1443 H 0.43961 0.46276 0.50164 0.0
H1444 H 0.45094 0.48583 0.4938 0.0
H1445 H 0.49202 0.50094 0.50539 0.0
H1446 H 0.52417 0.56602 0.52516 0.0
H1447 H 0.51164 0.54327 0.53469 0.0
H1448 H 0.47066 0.52899 0.52095 0.0
C1449 C 0.45532 0.48089 0.50936 0.0
C1450 C 0.48726 0.50696 0.50921 0.0
C1451 C 0.44885 0.46765 0.51374 0.0
C1452 C 0.51482 0.56162 0.51352 0.0
C1453 C 0.50766 0.54853 0.51884 0.0
C1454 C 0.47539 0.52294 0.5172 0.0
C1455 C 0.46743 0.48761 0.52401 0.0
C1456 C 0.4745 0.50162 0.51836 0.0
C1457 C 0.49553 0.54232 0.50401 0.0
C1458 C 0.48819 0.52829 0.50851 0.0
H1459 H 0.47089 0.46268 0.56314 0.0
H1460 H 0.48208 0.48575 0.55574 0.0
H1461 H 0.45881 0.50592 0.52946 0.0
H1462 H 0.49379 0.56795 0.46324 0.0
H1463 H 0.48133 0.54503 0.47237 0.0
C1464 C 0.52977 0.0351 0.49095 0.0
C1465 C 0.5338 0.04261 0.52353 0.0
C1466 C 0.51722 0.02648 0.48619 0.0
C1467 C 0.4853 0.01755 0.52499 0.0
H1468 H 0.47739 0.98533 0.47449 0.0
C1469 C 0.43638 0.97713 0.53318 0.0
C1470 C 0.43038 0.9732 0.49846 0.0
C1471 C 0.44934 0.98392 0.53522 0.0
C1472 C 0.47949 0.99431 0.4885 0.0
H1473 H 0.52776 0.04701 0.57655 0.0
H1474 H 0.50595 0.03173 0.56898 0.0
H1475 H 0.49918 0.0012 0.48018 0.0
H1476 H 0.43321 0.97239 0.43891 0.0
H1477 H 0.45614 0.98417 0.44251 0.0
H1478 H 0.46564 0.01045 0.53431 0.0
C1479 C 0.51239 0.03271 0.54645 0.0
C1480 C 0.49196 0.00347 0.49161 0.0
C1481 C 0.52493 0.0415 0.55091 0.0
C1482 C 0.43765 0.97513 0.46605 0.0
C1483 C 0.45074 0.98195 0.46811 0.0
C1484 C 0.47291 0.00833 0.52243 0.0
C1485 C 0.50836 0.02496 0.51417 0.0
C1486 C 0.49506 0.01523 0.51003 0.0
C1487 C 0.4566 0.98695 0.50255 0.0
C1488 C 0.46986 0.9966 0.50438 0.0
H1489 H 0.53637 0.03578 0.46918 0.0
H1490 H 0.5145 0.02097 0.46055 0.0
H1491 H 0.48718 0.02655 0.5385 0.0
H1492 H 0.43095 0.9758 0.55854 0.0
H1493 H 0.45364 0.98748 0.56216 0.0
C1494 C 0.43795 0.97553 0.96594 0.0
C1495 C 0.43703 0.98593 0.98344 0.0
C1496 C 0.44857 0.97347 0.97062 0.0
C1497 C 0.48176 0.9897 0.99846 0.0
H1498 H 0.47808 0.955 0.0087 0.0
C1499 C 0.52353 0.97945 0.03328 0.0
C1500 C 0.52512 0.9704 0.01045 0.0
C1501 C 0.51238 0.98066 0.03261 0.0
C1502 C 0.47924 0.96473 0.00565 0.0
H1503 H 0.44662 0.00237 0.01952 0.0
H1504 H 0.46511 0.99866 0.02824 0.0
H1505 H 0.45952 0.95878 0.00239 0.0
H1506 H 0.51594 0.95505 0.97045 0.0
H1507 H 0.49638 0.95716 0.96942 0.0
H1508 H 0.50147 0.99564 0.00185 0.0
C1509 C 0.45766 0.99219 0.01042 0.0
C1510 C 0.46863 0.96691 0.00195 0.0
C1511 C 0.44704 0.9943 0.00554 0.0
C1512 C 0.51504 0.96212 0.98837 0.0
C1513 C 0.50383 0.96331 0.9878 0.0
C1514 C 0.49235 0.98753 0.00238 0.0
C1515 C 0.45852 0.98172 0.9931 0.0
C1516 C 0.46977 0.97942 0.99811 0.0
C1517 C 0.50252 0.97281 0.00924 0.0
C1518 C 0.4912 0.97502 0.00592 0.0
H1519 H 0.43048 0.96895 0.94838 0.0
H1520 H 0.44903 0.96548 0.95623 0.0
H1521 H 0.483 0.99943 0.9949 0.0
H1522 H 0.53103 0.98591 0.05099 0.0
H1523 H 0.51154 0.98789 0.04998 0.0
C1524 C 0.0398 0.55514 0.96121 0.0
C1525 C 0.04015 0.56497 0.98486 0.0
C1526 C 0.03004 0.5428 0.9639 0.0
C1527 C 0.00489 0.52128 0.02677 0.0
H1528 H 0.99009 0.50344 0.93464 0.0
C1529 C 0.9609 0.47253 0.0261 0.0
C1530 C 0.96153 0.46319 0.00227 0.0
C1531 C 0.9698 0.48531 0.02348 0.0
C1532 C 0.99417 0.50826 0.96064 0.0
H1533 H 0.03066 0.56935 0.03074 0.0
H1534 H 0.01372 0.54794 0.03522 0.0
H1535 H 0.00751 0.52471 0.93199 0.0
H1536 H 0.97176 0.46012 0.95598 0.0
H1537 H 0.98717 0.48221 0.95165 0.0
H1538 H 0.99161 0.50477 0.05541 0.0
C1539 C 0.021 0.54973 0.01471 0.0
C1540 C 0.00418 0.52043 0.95911 0.0
C1541 C 0.03071 0.56205 0.01196 0.0
C1542 C 0.97099 0.46701 0.97496 0.0
C1543 C 0.97981 0.47974 0.97225 0.0
C1544 C 0.99488 0.50909 0.0283 0.0
C1545 C 0.02044 0.53999 0.99039 0.0
C1546 C 0.00974 0.52706 0.99214 0.0
C1547 C 0.97946 0.48903 0.99678 0.0
C1548 C 0.98947 0.50238 0.99525 0.0
H1549 H 0.0469 0.55702 0.94003 0.0
H1550 H 0.02998 0.53545 0.94511 0.0
H1551 H 0.00902 0.52608 0.05274 0.0
H1552 H 0.95374 0.46992 0.04744 0.0
H1553 H 0.96919 0.49228 0.04251 0.0
C1554 C 0.43609 0.5008 0.96253 0.0
C1555 C 0.43016 0.49187 0.99102 0.0
C1556 C 0.44915 0.50717 0.96062 0.0
C1557 C 0.47787 0.50495 0.99313 0.0
H1558 H 0.49399 0.54017 0.95991 0.0
C1559 C 0.53193 0.53748 0.99586 0.0
C1560 C 0.53673 0.546 0.96573 0.0
C1561 C 0.51901 0.52973 0.99877 0.0
C1562 C 0.48963 0.53028 0.96886 0.0
H1563 H 0.43342 0.48297 0.04059 0.0
H1564 H 0.45611 0.49429 0.03772 0.0
H1565 H 0.4714 0.52961 0.96674 0.0
H1566 H 0.53197 0.55221 0.91341 0.0
H1567 H 0.50966 0.5386 0.91809 0.0
H1568 H 0.49626 0.50579 0.99561 0.0
C1569 C 0.45069 0.49615 0.01629 0.0
C1570 C 0.47665 0.52421 0.97275 0.0
C1571 C 0.43764 0.48972 0.01809 0.0
C1572 C 0.52853 0.54587 0.93724 0.0
C1573 C 0.51573 0.53815 0.94006 0.0
C1574 C 0.49091 0.51107 0.98942 0.0
C1575 C 0.45663 0.50486 0.9873 0.0
C1576 C 0.47055 0.51142 0.98457 0.0
C1577 C 0.51073 0.53037 0.97155 0.0
C1578 C 0.49693 0.52377 0.97677 0.0
H1579 H 0.43067 0.50264 0.94102 0.0
H1580 H 0.45336 0.51367 0.93758 0.0
H1581 H 0.4735 0.49505 0.00192 0.0
H1582 H 0.53802 0.53743 0.01833 0.0
H1583 H 0.51544 0.52379 0.02333 0.0
C1584 C 0.42229 0.04563 0.03976 0.0
C1585 C 0.41531 0.03864 0.00893 0.0
C1586 C 0.42052 0.056 0.05364 0.0
C1587 C 0.4045 0.0768 0.0338 0.0
H1588 H 0.39588 0.0717 0.139 0.0
C1589 C 0.37443 0.09852 0.10563 0.0
C1590 C 0.36434 0.08937 0.12569 0.0
C1591 C 0.38425 0.09582 0.09373 0.0
C1592 C 0.39836 0.07335 0.10968 0.0
H1593 H 0.40185 0.0376 0.96654 0.0
H1594 H 0.39872 0.05546 0.99067 0.0
H1595 H 0.4076 0.06121 0.11101 0.0
H1596 H 0.35669 0.07031 0.14953 0.0
H1597 H 0.37361 0.06558 0.12863 0.0
H1598 H 0.39435 0.08812 0.03194 0.0
C1599 C 0.40559 0.0531 0.00422 0.0
C1600 C 0.40523 0.06746 0.09371 0.0
C1601 C 0.40727 0.04274 0.9906 0.0
C1602 C 0.36432 0.07757 0.1341 0.0
C1603 C 0.37411 0.07491 0.12248 0.0
C1604 C 0.39759 0.08266 0.04977 0.0
C1605 C 0.41185 0.05959 0.03664 0.0
C1606 C 0.40783 0.06861 0.05518 0.0
C1607 C 0.38417 0.08396 0.10207 0.0
C1608 C 0.39392 0.08045 0.08744 0.0
H1609 H 0.42858 0.04268 0.05431 0.0
H1610 H 0.42556 0.06089 0.07852 0.0
H1611 H 0.40656 0.07804 0.00415 0.0
H1612 H 0.3747 0.10772 0.09884 0.0
H1613 H 0.39187 0.10296 0.07799 0.0
C1614 C 0.8732 0.3012 0.13784 0.0
C1615 C 0.88285 0.29886 0.15353 0.0
C1616 C 0.87585 0.31308 0.12154 0.0
C1617 C 0.90148 0.33871 0.07394 0.0
H1618 H 0.8841 0.35982 0.09039 0.0
C1619 C 0.91419 0.39376 0.0444 0.0
C1620 C 0.91921 0.39427 0.00855 0.0
C1621 C 0.90659 0.38188 0.06061 0.0
C1622 C 0.88898 0.35397 0.08551 0.0
H1623 H 0.90269 0.30728 0.16604 0.0
H1624 H 0.90726 0.32782 0.13757 0.0
H1625 H 0.87743 0.33943 0.12418 0.0
H1626 H 0.91892 0.38317 0.95955 0.0
H1627 H 0.90532 0.36264 0.98698 0.0
H1628 H 0.91314 0.35309 0.03606 0.0
C1629 C 0.8977 0.3205 0.13754 0.0
C1630 C 0.88514 0.34232 0.10463 0.0
C1631 C 0.89506 0.30873 0.15387 0.0
C1632 C 0.91529 0.38299 0.98747 0.0
C1633 C 0.90757 0.37124 0.00326 0.0
C1634 C 0.90519 0.35018 0.05472 0.0
C1635 C 0.88819 0.32271 0.12051 0.0
C1636 C 0.8915 0.3347 0.09932 0.0
C1637 C 0.90383 0.37048 0.04079 0.0
C1638 C 0.89905 0.35798 0.0603 0.0
H1639 H 0.86369 0.29378 0.13732 0.0
H1640 H 0.86837 0.31455 0.10846 0.0
H1641 H 0.90648 0.33298 0.06903 0.0
H1642 H 0.91699 0.40235 0.06107 0.0
H1643 H 0.90377 0.38159 0.08955 0.0
C1644 C 0.68769 0.57151 0.14576 0.0
C1645 C 0.69878 0.57828 0.12564 0.0
C1646 C 0.67636 0.56486 0.12719 0.0
C1647 C 0.66263 0.56814 0.03799 0.0
H1648 H 0.63229 0.54406 0.08636 0.0
C1649 C 0.61704 0.57203 0.01819 0.0
C1650 C 0.60551 0.56111 0.01719 0.0
C1651 C 0.62802 0.57109 0.02688 0.0
C1652 C 0.64064 0.55063 0.07198 0.0
H1653 H 0.70698 0.58216 0.07036 0.0
H1654 H 0.68721 0.57004 0.03755 0.0
H1655 H 0.65249 0.54588 0.10747 0.0
H1656 H 0.59645 0.5406 0.02521 0.0
H1657 H 0.61584 0.53888 0.04017 0.0
H1658 H 0.65082 0.57278 0.00227 0.0
C1659 C 0.68718 0.57021 0.06783 0.0
C1660 C 0.65228 0.5518 0.08438 0.0
C1661 C 0.69858 0.57697 0.08659 0.0
C1662 C 0.60519 0.54918 0.02587 0.0
C1663 C 0.6163 0.54821 0.03439 0.0
C1664 C 0.65102 0.56682 0.02527 0.0
C1665 C 0.67581 0.56475 0.08786 0.0
C1666 C 0.66348 0.56103 0.06878 0.0
C1667 C 0.6279 0.55917 0.03446 0.0
C1668 C 0.6399 0.55854 0.04332 0.0
H1669 H 0.68759 0.57236 0.17595 0.0
H1670 H 0.66794 0.56089 0.14392 0.0
H1671 H 0.67092 0.57539 0.0251 0.0
H1672 H 0.61764 0.5814 0.01213 0.0
H1673 H 0.63665 0.57981 0.02791 0.0
C1674 C 0.03947 0.41252 0.47936 0.0
C1675 C 0.03726 0.4226 0.46522 0.0
C1676 C 0.04966 0.41066 0.46705 0.0
C1677 C 0.06838 0.41479 0.38436 0.0
H1678 H 0.08485 0.39995 0.44863 0.0
C1679 C 0.09746 0.38183 0.37627 0.0
C1680 C 0.08913 0.37244 0.35205 0.0
C1681 C 0.09498 0.392 0.38808 0.0
C1682 C 0.08061 0.40435 0.43024 0.0
H1683 H 0.04421 0.43895 0.42808 0.0
H1684 H 0.06206 0.43552 0.40576 0.0
H1685 H 0.07373 0.4112 0.47634 0.0
H1686 H 0.07207 0.36664 0.31977 0.0
H1687 H 0.06776 0.38418 0.34034 0.0
H1688 H 0.07477 0.40742 0.33832 0.0
C1689 C 0.05588 0.42912 0.42661 0.0
C1690 C 0.07415 0.41069 0.44613 0.0
C1691 C 0.0457 0.43108 0.43935 0.0
C1692 C 0.07863 0.37368 0.33865 0.0
C1693 C 0.07623 0.38384 0.35009 0.0
C1694 C 0.07485 0.40845 0.36846 0.0
C1695 C 0.05785 0.41878 0.44005 0.0
C1696 C 0.06743 0.41538 0.42341 0.0
C1697 C 0.08425 0.39301 0.37542 0.0
C1698 C 0.08046 0.40259 0.39133 0.0
H1699 H 0.03318 0.40587 0.49952 0.0
H1700 H 0.05076 0.40247 0.47748 0.0
H1701 H 0.06331 0.41831 0.36609 0.0
H1702 H 0.10566 0.38112 0.38691 0.0
H1703 H 0.10132 0.39893 0.40761 0.0
C1704 C 0.5708 0.73303 0.38262 0.0
C1705 C 0.57445 0.7317 0.34612 0.0
C1706 C 0.56339 0.72212 0.40354 0.0
C1707 C 0.5605 0.69771 0.44385 0.0
H1708 H 0.53517 0.66637 0.40155 0.0
C1709 C 0.55778 0.64843 0.47865 0.0
C1710 C 0.54611 0.63771 0.47968 0.0
C1711 C 0.55867 0.6604 0.46849 0.0
C1712 C 0.54207 0.67503 0.4143 0.0
H1713 H 0.57169 0.71829 0.30089 0.0
H1714 H 0.55856 0.69951 0.33646 0.0
H1715 H 0.53952 0.68677 0.37223 0.0
H1716 H 0.52618 0.63116 0.47171 0.0
H1717 H 0.52773 0.65209 0.45416 0.0
H1718 H 0.56336 0.68594 0.4852 0.0
C1719 C 0.56159 0.70879 0.34964 0.0
C1720 C 0.54459 0.68673 0.39736 0.0
C1721 C 0.56918 0.71958 0.32922 0.0
C1722 C 0.53532 0.63924 0.47094 0.0
C1723 C 0.53621 0.65123 0.46083 0.0
C1724 C 0.55797 0.68601 0.46084 0.0
C1725 C 0.5592 0.70985 0.38764 0.0
C1726 C 0.55419 0.69813 0.41103 0.0
C1727 C 0.54791 0.66194 0.45919 0.0
C1728 C 0.54907 0.67448 0.44537 0.0
H1729 H 0.57444 0.74231 0.396 0.0
H1730 H 0.56152 0.72323 0.43265 0.0
H1731 H 0.56803 0.70631 0.45493 0.0
H1732 H 0.56626 0.64756 0.48522 0.0
H1733 H 0.56786 0.66838 0.46685 0.0
C1734 C 0.26809 0.8857 0.3625 0.0
C1735 C 0.26814 0.897 0.34838 0.0
C1736 C 0.2794 0.88502 0.36987 0.0
C1737 C 0.3138 0.90247 0.35087 0.0
H1738 H 0.31721 0.88779 0.44485 0.0
C1739 C 0.36255 0.91747 0.41162 0.0
C1740 C 0.3632 0.92157 0.44883 0.0
C1741 C 0.35093 0.90947 0.39572 0.0
C1742 C 0.31645 0.89191 0.41839 0.0
H1743 H 0.2801 0.91646 0.33122 0.0
H1744 H 0.29951 0.91542 0.34484 0.0
H1745 H 0.29655 0.88424 0.42321 0.0
H1746 H 0.35262 0.91952 0.49969 0.0
H1747 H 0.33261 0.90589 0.47248 0.0
H1748 H 0.3337 0.91113 0.34754 0.0
C1749 C 0.29087 0.90691 0.34928 0.0
C1750 C 0.30453 0.88974 0.40575 0.0
C1751 C 0.27967 0.90755 0.34184 0.0
C1752 C 0.35235 0.91654 0.47082 0.0
C1753 C 0.34083 0.9086 0.45512 0.0
C1754 C 0.3257 0.90481 0.36375 0.0
C1755 C 0.29095 0.89565 0.36325 0.0
C1756 C 0.30312 0.89552 0.37271 0.0
C1757 C 0.33983 0.90547 0.41685 0.0
C1758 C 0.32724 0.90008 0.39862 0.0
H1759 H 0.25935 0.87739 0.36771 0.0
H1760 H 0.27909 0.87618 0.38057 0.0
H1761 H 0.31305 0.90673 0.32463 0.0
H1762 H 0.37079 0.92127 0.39404 0.0
H1763 H 0.35057 0.90704 0.36634 0.0
C1764 C 0.5997 0.98093 0.99497 0.0
C1765 C 0.5869 0.97262 0.99733 0.0
C1766 C 0.60767 0.9776 0.97381 0.0
C1767 C 0.60752 0.95643 0.89687 0.0
H1768 H 0.64025 0.96295 0.93537 0.0
C1769 C 0.6361 0.93073 0.84516 0.0
C1770 C 0.64913 0.93763 0.84258 0.0
C1771 C 0.62891 0.93657 0.85881 0.0
C1772 C 0.63124 0.9613 0.92393 0.0
H1773 H 0.57244 0.95419 0.98029 0.0
H1774 H 0.58646 0.94822 0.94385 0.0
H1775 H 0.62674 0.96956 0.97171 0.0
H1776 H 0.66487 0.95614 0.85058 0.0
H1777 H 0.65222 0.96639 0.87494 0.0
H1778 H 0.61192 0.94781 0.84961 0.0
C1779 C 0.59026 0.95743 0.95775 0.0
C1780 C 0.62348 0.96504 0.94478 0.0
C1781 C 0.58227 0.96078 0.97889 0.0
C1782 C 0.65483 0.95063 0.85232 0.0
C1783 C 0.64762 0.95646 0.86639 0.0
C1784 C 0.61526 0.95265 0.87609 0.0
C1785 C 0.60302 0.96587 0.95471 0.0
C1786 C 0.61147 0.96246 0.93173 0.0
C1787 C 0.63463 0.94939 0.87041 0.0
C1788 C 0.62711 0.95487 0.88973 0.0
H1789 H 0.60354 0.99016 0.00876 0.0
H1790 H 0.61743 0.98435 0.97173 0.0
H1791 H 0.59841 0.95456 0.88575 0.0
H1792 H 0.63148 0.9207 0.83766 0.0
H1793 H 0.61894 0.93086 0.86197 0.0
C1794 C 0.10475 0.7225 0.86958 0.0
C1795 C 0.09671 0.72251 0.84096 0.0
C1796 C 0.10592 0.71134 0.87808 0.0
C1797 C 0.08943 0.67598 0.86321 0.0
H1798 H 0.11813 0.67728 0.91786 0.0
C1799 C 0.08839 0.63097 0.92904 0.0
C1800 C 0.08611 0.63227 0.96698 0.0
C1801 C 0.09384 0.64185 0.90636 0.0
C1802 C 0.11019 0.67677 0.90184 0.0
H1803 H 0.08409 0.71119 0.79737 0.0
H1804 H 0.0867 0.69196 0.8103 0.0
H1805 H 0.11893 0.69677 0.88989 0.0
H1806 H 0.08966 0.64577 0.01241 0.0
H1807 H 0.09991 0.66469 0.97348 0.0
H1808 H 0.08078 0.65595 0.87532 0.0
C1809 C 0.09167 0.70028 0.8277 0.0
C1810 C 0.11051 0.68797 0.88638 0.0
C1811 C 0.09019 0.71134 0.82005 0.0
C1812 C 0.09121 0.64452 0.98309 0.0
C1813 C 0.09707 0.65535 0.96083 0.0
C1814 C 0.08927 0.66477 0.87771 0.0
C1815 C 0.09937 0.70001 0.85735 0.0
C1816 C 0.09992 0.68784 0.86823 0.0
C1817 C 0.09765 0.65409 0.92196 0.0
C1818 C 0.09946 0.66515 0.8983 0.0
H1819 H 0.10986 0.73101 0.88616 0.0
H1820 H 0.11172 0.71157 0.90168 0.0
H1821 H 0.08098 0.67535 0.85013 0.0
H1822 H 0.08493 0.62164 0.91614 0.0
H1823 H 0.09427 0.64069 0.87639 0.0
C1824 C 0.35944 0.46231 0.97384 0.0
C1825 C 0.36186 0.45449 -0.00065 0.0
C1826 C 0.34737 0.45843 0.95921 0.0
C1827 C 0.32416 0.44262 0.91258 0.0
H1828 H 0.29501 0.42028 0.96938 0.0
C1829 C 0.28375 0.40044 0.84593 0.0
C1830 C 0.27164 0.39556 0.86088 0.0
C1831 C 0.2935 0.41098 0.8621 0.0
C1832 C 0.30293 0.42672 0.95309 0.0
H1833 H 0.35347 0.43678 0.03077 0.0
H1834 H 0.33276 0.42998 0.00512 0.0
H1835 H 0.31444 0.43319 0.00183 0.0
H1836 H 0.26005 0.39837 0.90326 0.0
H1837 H 0.27718 0.41704 0.93162 0.0
H1838 H 0.31267 0.43608 0.86381 0.0
C1839 C 0.33997 0.43918 0.9966 0.0
C1840 C 0.31415 0.43401 0.9717 0.0
C1841 C 0.35194 0.44302 0.01105 0.0
C1842 C 0.26931 0.40191 0.89123 0.0
C1843 C 0.27914 0.41254 0.90755 0.0
C1844 C 0.31289 0.43545 0.89401 0.0
C1845 C 0.33753 0.4467 0.97004 0.0
C1846 C 0.32507 0.44153 0.9515 0.0
C1847 C 0.29142 0.41702 0.89365 0.0
C1848 C 0.30231 0.42691 0.91384 0.0
H1849 H 0.36691 0.47121 0.96439 0.0
H1850 H 0.3458 0.46449 0.93898 0.0
H1851 H 0.33234 0.44831 0.89605 0.0
H1852 H 0.28586 0.3958 0.82246 0.0
H1853 H 0.30281 0.41393 0.85093 0.0
C1854 C 0.91919 0.64365 0.64853 0.0
C1855 C 0.92506 0.65693 0.65413 0.0
C1856 C 0.92592 0.63736 0.63455 0.0
C1857 C 0.95205 0.64288 0.57395 0.0
H1858 H 0.94889 0.61038 0.61199 0.0
C1859 C 0.98022 0.61752 0.51429 0.0
C1860 C 0.97427 0.60413 0.51178 0.0
C1861 C 0.97432 0.6241 0.53189 0.0
C1862 C 0.94972 0.61936 0.60076 0.0
H1863 H 0.94259 0.67404 0.65083 0.0
H1864 H 0.9544 0.66298 0.62581 0.0
H1865 H 0.93901 0.62184 0.64552 0.0
H1866 H 0.95732 0.58711 0.52427 0.0
H1867 H 0.94684 0.59865 0.55434 0.0
H1868 H 0.96246 0.6403 0.5287 0.0
C1869 C 0.94459 0.65749 0.63234 0.0
C1870 C 0.94416 0.62595 0.62011 0.0
C1871 C 0.93788 0.66378 0.64682 0.0
C1872 C 0.96213 0.59744 0.52599 0.0
C1873 C 0.95619 0.60404 0.54347 0.0
C1874 C 0.95753 0.63625 0.55444 0.0
C1875 C 0.9386 0.64426 0.62555 0.0
C1876 C 0.94524 0.63773 0.60678 0.0
C1877 C 0.96232 0.61742 0.54711 0.0
C1878 C 0.95639 0.6244 0.56757 0.0
H1879 H 0.9093 0.63816 0.65406 0.0
H1880 H 0.92107 0.62717 0.62928 0.0
H1881 H 0.95281 0.65185 0.56278 0.0
H1882 H 0.9896 0.62293 0.50366 0.0
H1883 H 0.97935 0.63439 0.53458 0.0
C1884 C 0.41997 0.38051 0.50702 0.0
C1885 C 0.42884 0.39231 0.5209 0.0
C1886 C 0.42133 0.36932 0.51359 0.0
C1887 C 0.43309 0.35529 0.58324 0.0
H1888 H 0.43084 0.33029 0.50806 0.0
C1889 C 0.42908 0.30792 0.63364 0.0
C1890 C 0.41979 0.29727 0.61583 0.0
C1891 C 0.43432 0.31978 0.61585 0.0
C1892 C 0.43141 0.3371 0.52951 0.0
H1893 H 0.44617 0.4017 0.55198 0.0
H1894 H 0.44829 0.3821 0.56447 0.0
H1895 H 0.43079 0.35047 0.48902 0.0
H1896 H 0.41024 0.29017 0.56337 0.0
H1897 H 0.41828 0.31089 0.5335 0.0
H1898 H 0.43271 0.34191 0.62404 0.0
C1899 C 0.4404 0.38155 0.54813 0.0
C1900 C 0.43142 0.34867 0.51849 0.0
C1901 C 0.43916 0.39275 0.54104 0.0
C1902 C 0.41709 0.29828 0.57816 0.0
C1903 C 0.42186 0.31027 0.56086 0.0
C1904 C 0.43279 0.34368 0.59432 0.0
C1905 C 0.43146 0.36974 0.53466 0.0
C1906 C 0.43218 0.3578 0.54536 0.0
C1907 C 0.42986 0.32134 0.5806 0.0
C1908 C 0.43184 0.33432 0.56773 0.0
H1909 H 0.41196 0.37992 0.49123 0.0
H1910 H 0.41425 0.36029 0.50329 0.0
H1911 H 0.4335 0.36212 0.60453 0.0
H1912 H 0.43147 0.30734 0.66263 0.0
H1913 H 0.44103 0.32791 0.63122 0.0
C1914 C 0.60804 0.09167 0.53998 0.0
C1915 C 0.60163 0.07881 0.5509 0.0
C1916 C 0.62032 0.09909 0.55261 0.0
C1917 C 0.64673 0.09336 0.56984 0.0
H1918 H 0.66255 0.12332 0.63313 0.0
C1919 C 0.69091 0.10296 0.65033 0.0
C1920 C 0.70098 0.11518 0.64879 0.0
C1921 C 0.67925 0.10084 0.63626 0.0
C1922 C 0.65829 0.1151 0.61484 0.0
H1923 H 0.60249 0.0639 0.58525 0.0
H1924 H 0.62355 0.07683 0.60794 0.0
H1925 H 0.64055 0.11597 0.61406 0.0
H1926 H 0.70667 0.13486 0.63208 0.0
H1927 H 0.686 0.13111 0.60763 0.0
H1928 H 0.66409 0.09207 0.57145 0.0
C1929 C 0.61925 0.08119 0.58962 0.0
C1930 C 0.64575 0.11092 0.60401 0.0
C1931 C 0.60717 0.07383 0.57686 0.0
C1932 C 0.69906 0.12533 0.63352 0.0
C1933 C 0.68726 0.12321 0.61969 0.0
C1934 C 0.65914 0.09749 0.58056 0.0
C1935 C 0.62615 0.09365 0.57623 0.0
C1936 C 0.63981 0.09976 0.58247 0.0
C1937 C 0.67731 0.11088 0.62046 0.0
C1938 C 0.66492 0.10811 0.60426 0.0
H1939 H 0.60401 0.0956 0.51941 0.0
H1940 H 0.62554 0.10867 0.5418 0.0
H1941 H 0.64236 0.0848 0.55286 0.0
H1942 H 0.69204 0.09494 0.66202 0.0
H1943 H 0.67169 0.09128 0.63772 0.0
C1944 C 0.67973 0.72687 0.81111 0.0
C1945 C 0.6791 0.73781 0.79685 0.0
C1946 C 0.6897 0.72417 0.80191 0.0
C1947 C 0.71075 0.72816 0.7256 0.0
H1948 H 0.72375 0.71094 0.79377 0.0
C1949 C 0.73818 0.69385 0.72232 0.0
C1950 C 0.72997 0.68459 0.69754 0.0
C1951 C 0.7357 0.70399 0.73411 0.0
C1952 C 0.72047 0.716 0.7745 0.0
H1953 H 0.68859 0.75477 0.76285 0.0
H1954 H 0.70601 0.74988 0.74606 0.0
H1955 H 0.71268 0.72272 0.81861 0.0
H1956 H 0.71308 0.67888 0.66453 0.0
H1957 H 0.70882 0.69655 0.68482 0.0
H1958 H 0.7179 0.7208 0.6814 0.0
C1959 C 0.69878 0.74345 0.76452 0.0
C1960 C 0.71406 0.72264 0.78867 0.0
C1961 C 0.68882 0.74623 0.77404 0.0
C1962 C 0.71954 0.68586 0.68375 0.0
C1963 C 0.71717 0.69605 0.69505 0.0
C1964 C 0.71711 0.72147 0.71145 0.0
C1965 C 0.69922 0.73232 0.77806 0.0
C1966 C 0.70864 0.72826 0.76422 0.0
C1967 C 0.72512 0.70511 0.72068 0.0
C1968 C 0.72149 0.71484 0.7357 0.0
H1969 H 0.67241 0.72025 0.82897 0.0
H1970 H 0.68966 0.7154 0.81222 0.0
H1971 H 0.70665 0.73237 0.7061 0.0
H1972 H 0.74629 0.69306 0.73336 0.0
H1973 H 0.74192 0.71085 0.75404 0.0
C1974 C 0.21805 0.98091 0.82139 0.0
C1975 C 0.2068 0.97013 0.81389 0.0
C1976 C 0.21972 0.99303 0.81026 0.0
C1977 C 0.20992 0.00924 0.73969 0.0
H1978 H 0.23043 0.03874 0.80008 0.0
C1979 C 0.23556 0.06138 0.68174 0.0
C1980 C 0.24841 0.06478 0.68406 0.0
C1981 C 0.22702 0.05087 0.70213 0.0
C1982 C 0.22445 0.03062 0.78319 0.0
H1983 H 0.18838 0.96357 0.78918 0.0
H1984 H 0.19139 0.98491 0.76915 0.0
H1985 H 0.22142 0.0175 0.82817 0.0
H1986 H 0.26251 0.06048 0.71057 0.0
H1987 H 0.24781 0.04267 0.74699 0.0
H1988 H 0.21364 0.02241 0.69413 0.0
C1989 C 0.19888 0.98392 0.78384 0.0
C1990 C 0.21939 0.01846 0.79911 0.0
C1991 C 0.19716 0.97173 0.79532 0.0
C1992 C 0.25264 0.05802 0.70821 0.0
C1993 C 0.24423 0.04788 0.72925 0.0
C1994 C 0.21495 0.02146 0.72377 0.0
C1995 C 0.2102 0.99469 0.7912 0.0
C1996 C 0.21266 0.00758 0.77701 0.0
C1997 C 0.23135 0.04403 0.72592 0.0
C1998 C 0.22279 0.03215 0.74496 0.0
H1999 H 0.22566 0.97999 0.83564 0.0
H2000 H 0.22866 0.00107 0.81566 0.0
H2001 H 0.20479 0.00104 0.72193 0.0
H2002 H 0.23213 0.06647 0.6631 0.0
H2003 H 0.21709 0.04797 0.69901 0.0
C2004 C 0.02872 0.24229 0.82652 0.0
C2005 C 0.03806 0.24952 0.80094 0.0
C2006 C 0.01647 0.23493 0.81439 0.0
C2007 C 0.99603 0.22469 0.72867 0.0
H2008 H 0.97239 0.22931 0.79455 0.0
C2009 C 0.95306 0.2305 0.67853 0.0
C2010 C 0.9418 0.22472 0.69856 0.0
C2011 C 0.96371 0.22947 0.69078 0.0
C2012 C 0.97878 0.22767 0.77613 0.0
H2013 H 0.0422 0.25452 0.74272 0.0
H2014 H 0.02078 0.24206 0.72134 0.0
H2015 H 0.99341 0.23478 0.81656 0.0
H2016 H 0.93272 0.21301 0.74655 0.0
H2017 H 0.95162 0.21153 0.76892 0.0
H2018 H 0.98148 0.21848 0.68735 0.0
C2019 C 0.02285 0.2416 0.75063 0.0
C2020 C 0.99089 0.23078 0.78875 0.0
C2021 C 0.03517 0.24875 0.76276 0.0
C2022 C 0.94128 0.21751 0.73056 0.0
C2023 C 0.95208 0.2167 0.74336 0.0
C2024 C 0.98395 0.22176 0.7159 0.0
C2025 C 0.01322 0.235 0.77652 0.0
C2026 C 0.99981 0.22967 0.76488 0.0
C2027 C 0.96343 0.22283 0.72377 0.0
C2028 C 0.97532 0.22355 0.73919 0.0
H2029 H 0.03076 0.24289 0.8562 0.0
H2030 H 0.00942 0.22973 0.83506 0.0
H2031 H 0.0025 0.22343 0.70971 0.0
H2032 H 0.95371 0.23606 0.65364 0.0
H2033 H 0.97234 0.23442 0.67535 0.0
C2034 C 0.31786 0.27897 0.16887 0.0
C2035 C 0.33069 0.28592 0.16199 0.0
C2036 C 0.31124 0.28476 0.18675 0.0
C2037 C 0.29863 0.3011 0.21353 0.0
H2038 H 0.31442 0.31861 0.30527 0.0
C2039 C 0.27117 0.31453 0.32245 0.0
C2040 C 0.27708 0.32713 0.33586 0.0
C2041 C 0.27798 0.30933 0.30275 0.0
C2042 C 0.30994 0.31385 0.27958 0.0
H2043 H 0.34658 0.30453 0.1663 0.0
H2044 H 0.33497 0.31468 0.19772 0.0
H2045 H 0.32578 0.31091 0.26307 0.0
H2046 H 0.29488 0.34386 0.34166 0.0
H2047 H 0.30673 0.33482 0.30712 0.0
H2048 H 0.28281 0.30406 0.22987 0.0
C2049 C 0.33007 0.30474 0.18942 0.0
C2050 C 0.31646 0.30951 0.25538 0.0
C2051 C 0.33667 0.29897 0.17115 0.0
C2052 C 0.29007 0.33411 0.33164 0.0
C2053 C 0.29687 0.32893 0.31185 0.0
C2054 C 0.29214 0.30549 0.23763 0.0
C2055 C 0.3174 0.29757 0.1983 0.0
C2056 C 0.31083 0.30303 0.22226 0.0
C2057 C 0.29081 0.31664 0.29616 0.0
C2058 C 0.29769 0.31182 0.27105 0.0
H2059 H 0.31305 0.26889 0.16208 0.0
H2060 H 0.30149 0.27901 0.19344 0.0
H2061 H 0.29414 0.2962 0.18802 0.0
H2062 H 0.26118 0.30891 0.32558 0.0
H2063 H 0.27313 0.29972 0.29169 0.0
C2064 C 0.76304 0.97364 0.31938 0.0
C2065 C 0.75767 0.96137 0.30338 0.0
C2066 C 0.76889 0.98443 0.29696 0.0
C2067 C 0.76157 0.9944 0.21323 0.0
H2068 H 0.79178 0.02579 0.22714 0.0
C2069 C 0.76448 0.04172 0.15531 0.0
C2070 C 0.77086 0.05271 0.17712 0.0
C2071 C 0.76564 0.03049 0.16287 0.0
C2072 C 0.78323 0.01716 0.2231 0.0
H2073 H 0.75587 0.95065 0.2523 0.0
H2074 H 0.76522 0.96967 0.21235 0.0
H2075 H 0.79013 0.00596 0.25509 0.0
H2076 H 0.78356 0.06071 0.22365 0.0
H2077 H 0.78492 0.04097 0.23877 0.0
H2078 H 0.75401 0.00552 0.18491 0.0
C2079 C 0.76499 0.97086 0.24236 0.0
C2080 C 0.78241 0.00577 0.2386 0.0
C2081 C 0.75955 0.96 0.26516 0.0
C2082 C 0.77856 0.05235 0.20634 0.0
C2083 C 0.77943 0.04102 0.21467 0.0
C2084 C 0.76224 0.00581 0.1986 0.0
C2085 C 0.7692 0.98314 0.25803 0.0
C2086 C 0.77146 0.99437 0.23449 0.0
C2087 C 0.7729 0.02986 0.19325 0.0
C2088 C 0.77294 0.01745 0.20422 0.0
H2089 H 0.76184 0.97495 0.3489 0.0
H2090 H 0.77203 0.9938 0.30968 0.0
H2091 H 0.75293 0.98576 0.21034 0.0
H2092 H 0.75863 0.04181 0.1322 0.0
H2093 H 0.76072 0.02229 0.14496 0.0
C2094 C 0.02353 0.79912 0.30089 0.0
C2095 C 0.02431 0.78816 0.31449 0.0
C2096 C 0.01196 0.79863 0.29045 0.0
C2097 C 0.9775 0.77828 0.29833 0.0
H2098 H 0.97612 0.79348 0.20311 0.0
C2099 C 0.93043 0.76419 0.22377 0.0
C2100 C 0.93079 0.75966 0.18755 0.0
C2101 C 0.94161 0.77169 0.24276 0.0
C2102 C 0.97634 0.78928 0.22996 0.0
H2103 H 0.01356 0.76812 0.32816 0.0
H2104 H 0.99357 0.76717 0.30939 0.0
H2105 H 0.99632 0.79815 0.23109 0.0
H2106 H 0.94293 0.76065 0.14121 0.0
H2107 H 0.96217 0.77375 0.17353 0.0
H2108 H 0.95754 0.76865 0.2958 0.0
C2109 C 0.00178 0.77625 0.30744 0.0
C2110 C 0.98794 0.79204 0.24618 0.0
C2111 C 0.01329 0.77676 0.31785 0.0
C2112 C 0.94236 0.76388 0.1693 0.0
C2113 C 0.95343 0.77149 0.18785 0.0
C2114 C 0.9659 0.77547 0.28202 0.0
C2115 C 0.00093 0.78715 0.29344 0.0
C2116 C 0.98868 0.78615 0.27982 0.0
C2117 C 0.95326 0.77502 0.22536 0.0
C2118 C 0.9652 0.78052 0.24686 0.0
H2119 H 0.03186 0.80807 0.29813 0.0
H2120 H 0.01166 0.80722 0.28 0.0
H2121 H 0.97771 0.77382 0.32473 0.0
H2122 H 0.92163 0.76126 0.23832 0.0
H2123 H 0.94117 0.77442 0.27151 0.0
C2124 C 0.30126 0.07435 0.05234 0.0
C2125 C 0.31376 0.08195 0.06254 0.0
C2126 C 0.29762 0.07302 0.01485 0.0
C2127 C 0.30893 0.07831 0.91661 0.0
H2128 H 0.27886 0.08282 0.90087 0.0
C2129 C 0.29322 0.08999 0.77249 0.0
C2130 C 0.28029 0.08492 0.76609 0.0
C2131 C 0.29776 0.08801 0.80692 0.0
C2132 C 0.28716 0.08132 0.90465 0.0
H2133 H 0.33238 0.09351 0.04092 0.0
H2134 H 0.32596 0.09133 0.9754 0.0
H2135 H 0.28588 0.0821 0.96404 0.0
H2136 H 0.26203 0.07282 0.78893 0.0
H2137 H 0.26988 0.06907 0.84813 0.0
H2138 H 0.31022 0.07773 0.85675 0.0
C2139 C 0.319 0.08632 0.99649 0.0
C2140 C 0.29119 0.08091 0.94098 0.0
C2141 C 0.32266 0.08761 0.0341 0.0
C2142 C 0.27204 0.07709 0.79345 0.0
C2143 C 0.27655 0.07498 0.82743 0.0
C2144 C 0.30486 0.0787 0.88002 0.0
C2145 C 0.30637 0.07931 0.98657 0.0
C2146 C 0.3021 0.07936 0.9475 0.0
C2147 C 0.28942 0.08081 0.8352 0.0
C2148 C 0.29388 0.08016 0.87367 0.0
H2149 H 0.29417 0.06969 0.07339 0.0
H2150 H 0.28787 0.0673 0.00807 0.0
H2151 H 0.31736 0.07706 0.92073 0.0
H2152 H 0.29977 0.09605 0.75179 0.0
H2153 H 0.30773 0.09263 0.81203 0.0
C2154 C 0.88753 0.27496 0.02847 0.0
C2155 C 0.88716 0.26769 0.06023 0.0
C2156 C 0.89346 0.27396 0.99578 0.0
C2157 C 0.90116 0.25135 0.944 0.0
H2158 H 0.91994 0.28081 0.8816 0.0
C2159 C 0.91637 0.24568 0.79394 0.0
C2160 C 0.91407 0.25309 0.76659 0.0
C2161 C 0.91577 0.24816 0.83209 0.0
C2162 C 0.91468 0.27247 0.8986 0.0
H2163 H 0.89306 0.2539 0.08284 0.0
H2164 H 0.90333 0.25201 0.02518 0.0
H2165 H 0.91403 0.28392 0.94481 0.0
H2166 H 0.90987 0.26931 0.75824 0.0
H2167 H 0.90868 0.27349 0.82422 0.0
H2168 H 0.90132 0.23987 0.89731 0.0
C2169 C 0.89901 0.2585 0.02583 0.0
C2170 C 0.91133 0.27426 0.93487 0.0
C2171 C 0.89319 0.25964 0.05885 0.0
C2172 C 0.91168 0.26336 0.77837 0.0
C2173 C 0.91108 0.26584 0.81638 0.0
C2174 C 0.90445 0.24955 0.90761 0.0
C2175 C 0.89909 0.26557 0.99382 0.0
C2176 C 0.90425 0.26372 0.95763 0.0
C2177 C 0.91291 0.25814 0.84378 0.0
C2178 C 0.91097 0.26008 0.88409 0.0
H2179 H 0.88305 0.28132 0.02862 0.0
H2180 H 0.89322 0.27942 0.97153 0.0
H2181 H 0.89561 0.24303 0.96073 0.0
H2182 H 0.9183 0.23772 0.78597 0.0
H2183 H 0.91739 0.24216 0.85242 0.0
C2184 C 0.70418 0.61628 0.06314 0.0
C2185 C 0.71202 0.62745 0.08246 0.0
C2186 C 0.70131 0.61684 0.02567 0.0
C2187 C 0.70434 0.63861 0.94632 0.0
H2188 H 0.71084 0.6135 0.89045 0.0
C2189 C 0.72173 0.646 0.79441 0.0
C2190 C 0.71775 0.63539 0.77024 0.0
C2191 C 0.71813 0.64446 0.83186 0.0
C2192 C 0.70872 0.62041 0.90548 0.0
H2193 H 0.72224 0.64804 0.07896 0.0
H2194 H 0.71754 0.64904 0.01276 0.0
H2195 H 0.70916 0.61197 0.95796 0.0
H2196 H 0.70644 0.61488 0.76627 0.0
H2197 H 0.7001 0.61221 0.83177 0.0
H2198 H 0.70438 0.6473 0.89349 0.0
C2199 C 0.71343 0.63987 0.02674 0.0
C2200 C 0.70774 0.61954 0.94428 0.0
C2201 C 0.71617 0.63932 0.06457 0.0
C2202 C 0.70978 0.62324 0.78418 0.0
C2203 C 0.70615 0.6217 0.8217 0.0
C2204 C 0.70531 0.63948 0.90735 0.0
C2205 C 0.7064 0.62856 0.00658 0.0
C2206 C 0.70578 0.62875 0.96521 0.0
C2207 C 0.71044 0.63228 0.84603 0.0
C2208 C 0.70778 0.63053 0.88664 0.0
H2209 H 0.70069 0.60702 0.07662 0.0
H2210 H 0.6956 0.60801 0.01115 0.0
H2211 H 0.7027 0.64577 0.96169 0.0
H2212 H 0.72784 0.65552 0.78465 0.0
H2213 H 0.72175 0.65276 0.85001 0.0
C2214 C 0.07507 0.31213 0.72086 0.0
C2215 C 0.07012 0.29955 0.73462 0.0
C2216 C 0.0743 0.31443 0.68286 0.0
C2217 C 0.07095 0.29891 0.59121 0.0
H2218 H 0.06584 0.32782 0.55599 0.0
C2219 C 0.06913 0.30839 0.43453 0.0
C2220 C 0.07661 0.321 0.42276 0.0
C2221 C 0.06664 0.30559 0.47242 0.0
C2222 C 0.06732 0.31975 0.56547 0.0
H2223 H 0.06006 0.27952 0.71931 0.0
H2224 H 0.05858 0.28356 0.65307 0.0
H2225 H 0.06446 0.32306 0.62286 0.0
H2226 H 0.08682 0.34064 0.44165 0.0
H2227 H 0.08252 0.33569 0.50788 0.0
H2228 H 0.07397 0.29567 0.53401 0.0
C2229 C 0.06328 0.29164 0.67163 0.0
C2230 C 0.06655 0.31702 0.60371 0.0
C2231 C 0.06409 0.28933 0.70963 0.0
C2232 C 0.08107 0.33082 0.4497 0.0
C2233 C 0.07855 0.328 0.48766 0.0
C2234 C 0.07168 0.3016 0.55305 0.0
C2235 C 0.06851 0.3042 0.65775 0.0
C2236 C 0.06848 0.30665 0.61703 0.0
C2237 C 0.07153 0.31532 0.49943 0.0
C2238 C 0.06999 0.31211 0.53979 0.0
H2239 H 0.07981 0.32024 0.73927 0.0
H2240 H 0.07858 0.32421 0.67302 0.0
H2241 H 0.07272 0.29099 0.60056 0.0
H2242 H 0.06542 0.3006 0.4146 0.0
H2243 H 0.06102 0.29576 0.48063 0.0
C2244 C 0.61802 0.71951 0.70793 0.0
C2245 C 0.63 0.72777 0.72096 0.0
C2246 C 0.61559 0.71774 0.66955 0.0
C2247 C 0.6306 0.72503 0.57473 0.0
H2248 H 0.5999 0.72697 0.54804 0.0
C2249 C 0.62199 0.7456 0.43584 0.0
C2250 C 0.60964 0.74085 0.42302 0.0
C2251 C 0.62471 0.74053 0.46829 0.0
C2252 C 0.60839 0.72613 0.55476 0.0
H2253 H 0.649 0.74009 0.70372 0.0
H2254 H 0.64468 0.73735 0.63711 0.0
H2255 H 0.60403 0.72439 0.61289 0.0
H2256 H 0.59068 0.72639 0.43109 0.0
H2257 H 0.59545 0.71724 0.4867 0.0
H2258 H 0.63515 0.72746 0.51623 0.0
C2259 C 0.63718 0.73202 0.65638 0.0
C2260 C 0.61077 0.72463 0.59216 0.0
C2261 C 0.63965 0.73366 0.69474 0.0
C2262 C 0.60028 0.73023 0.44074 0.0
C2263 C 0.603 0.72507 0.47269 0.0
C2264 C 0.62824 0.72662 0.53714 0.0
C2265 C 0.62503 0.72432 0.64327 0.0
C2266 C 0.62199 0.72428 0.60281 0.0
C2267 C 0.6151 0.73061 0.48803 0.0
C2268 C 0.61718 0.72738 0.52684 0.0
H2269 H 0.61041 0.71467 0.72735 0.0
H2270 H 0.60619 0.71149 0.66049 0.0
H2271 H 0.63926 0.72463 0.58185 0.0
H2272 H 0.62931 0.75388 0.42271 0.0
H2273 H 0.63411 0.74504 0.47944 0.0
C2274 C 0.22085 0.93182 0.717 0.0
C2275 C 0.21482 0.93987 0.71733 0.0
C2276 C 0.22676 0.93047 0.68444 0.0
C2277 C 0.23907 0.94529 0.59239 0.0
H2278 H 0.22806 0.91046 0.5573 0.0
C2279 C 0.23726 0.93281 0.43677 0.0
C2280 C 0.23906 0.92218 0.42505 0.0
C2281 C 0.23739 0.93574 0.4747 0.0
C2282 C 0.23149 0.92025 0.56691 0.0
H2283 H 0.21085 0.95334 0.68449 0.0
H2284 H 0.22122 0.95111 0.62818 0.0
H2285 H 0.22291 0.91437 0.62065 0.0
H2286 H 0.24305 0.90665 0.44434 0.0
H2287 H 0.2434 0.91187 0.51074 0.0
H2288 H 0.24739 0.9512 0.53846 0.0
C2289 C 0.22138 0.9458 0.65289 0.0
C2290 C 0.22852 0.92248 0.60327 0.0
C2291 C 0.21535 0.947 0.68511 0.0
C2292 C 0.24157 0.91488 0.4523 0.0
C2293 C 0.24169 0.91782 0.49041 0.0
C2294 C 0.24211 0.94306 0.55617 0.0
C2295 C 0.22692 0.93732 0.65188 0.0
C2296 C 0.23193 0.93502 0.61597 0.0
C2297 C 0.23936 0.92815 0.50211 0.0
C2298 C 0.238 0.93051 0.5425 0.0
H2299 H 0.22058 0.92617 0.74135 0.0
H2300 H 0.23101 0.92391 0.68452 0.0
H2301 H 0.24201 0.95506 0.60162 0.0
H2302 H 0.23533 0.93869 0.4167 0.0
H2303 H 0.23538 0.94365 0.48254 0.0
C2304 C 0.70479 0.93644 0.22859 0.0
C2305 C 0.71743 0.94439 0.2354 0.0
C2306 C 0.69908 0.93797 0.19599 0.0
C2307 C 0.70868 0.95048 0.10024 0.0
H2308 H 0.67294 0.93747 0.08643 0.0
C2309 C 0.6687 0.93709 0.97567 0.0
C2310 C 0.67377 0.93152 0.94978 0.0
C2311 C 0.67452 0.9416 0.0101 0.0
C2312 C 0.68298 0.94137 0.08962 0.0
H2313 H 0.73378 0.96085 0.21598 0.0
H2314 H 0.72364 0.96413 0.1604 0.0
H2315 H 0.68153 0.94108 0.14929 0.0
H2316 H 0.68914 0.92673 0.93907 0.0
H2317 H 0.69909 0.93414 -0.00036 0.0
H2318 H 0.71017 0.95103 0.04063 0.0
C2319 C 0.71821 0.95635 0.17907 0.0
C2320 C 0.6879 0.94327 0.12587 0.0
C2321 C 0.72397 0.95463 0.21118 0.0
C2322 C 0.68505 0.93102 0.95841 0.0
C2323 C 0.69078 0.93535 0.99315 0.0
C2324 C 0.70378 0.94877 0.06404 0.0
C2325 C 0.7059 0.94761 0.16993 0.0
C2326 C 0.70079 0.94751 0.13172 0.0
C2327 C 0.68546 0.94047 0.01978 0.0
C2328 C 0.69083 0.94383 0.05819 0.0
H2329 H 0.69966 0.92835 0.24666 0.0
H2330 H 0.68964 0.93097 0.18999 0.0
H2331 H 0.71864 0.95361 0.10331 0.0
H2332 H 0.6601 0.93778 0.96954 0.0
H2333 H 0.67031 0.94578 0.02937 0.0
C2334 C 0.05812 0.7691 0.21535 0.0
C2335 C 0.05135 0.77644 0.21624 0.0
C2336 C 0.05928 0.76338 0.18185 0.0
C2337 C 0.05866 0.76828 0.08008 0.0
H2338 H 0.06103 0.73616 0.07268 0.0
C2339 C 0.07155 0.75239 0.94004 0.0
C2340 C 0.08081 0.74799 0.9426 0.0
C2341 C 0.06538 0.75355 0.97227 0.0
C2342 C 0.06043 0.74518 0.07427 0.0
H2343 H 0.03964 0.78262 0.18338 0.0
H2344 H 0.04149 0.77253 0.12559 0.0
H2345 H 0.05514 0.7424 0.13216 0.0
H2346 H 0.09017 0.7405 0.9809 0.0
H2347 H 0.07964 0.74269 0.03653 0.0
H2348 H 0.06433 0.77132 0.0228 0.0
C2349 C 0.04621 0.77148 0.15033 0.0
C2350 C 0.05706 0.74875 0.10841 0.0
C2351 C 0.04511 0.77721 0.1836 0.0
C2352 C 0.08317 0.74404 0.97776 0.0
C2353 C 0.07703 0.7452 0.00982 0.0
C2354 C 0.06206 0.76474 0.04607 0.0
C2355 C 0.05365 0.76485 0.14865 0.0
C2356 C 0.05629 0.76044 0.11187 0.0
C2357 C 0.0683 0.7503 0.00775 0.0
C2358 C 0.06319 0.75324 0.04279 0.0
H2359 H 0.06306 0.76833 0.23996 0.0
H2360 H 0.06512 0.75838 0.18157 0.0
H2361 H 0.05837 0.77745 0.08179 0.0
H2362 H 0.06945 0.75547 0.91346 0.0
H2363 H 0.05854 0.75731 0.9695 0.0
C2364 C 0.27463 0.35905 0.21325 0.0
C2365 C 0.27588 0.34906 0.23171 0.0
C2366 C 0.2796 0.36267 0.17737 0.0
C2367 C 0.29123 0.36969 0.10097 0.0
H2368 H 0.28331 0.33925 0.04117 0.0
C2369 C 0.28149 0.37146 0.94739 0.0
C2370 C 0.27002 0.36148 0.93686 0.0
C2371 C 0.28787 0.37021 0.97871 0.0
C2372 C 0.28564 0.34788 0.05737 0.0
H2373 H 0.28453 0.33607 0.22974 0.0
H2374 H 0.29366 0.34275 0.16786 0.0
H2375 H 0.2842 0.33804 0.10871 0.0
H2376 H 0.25665 0.34205 0.94828 0.0
H2377 H 0.26743 0.3399 0.00375 0.0
H2378 H 0.29141 0.37922 0.05002 0.0
C2379 C 0.28843 0.34744 0.1801 0.0
C2380 C 0.28634 0.34725 0.09627 0.0
C2381 C 0.28327 0.34368 0.21561 0.0
C2382 C 0.26558 0.34979 0.95575 0.0
C2383 C 0.27182 0.34861 0.98759 0.0
C2384 C 0.29036 0.37028 0.06213 0.0
C2385 C 0.28607 0.35648 0.15966 0.0
C2386 C 0.28852 0.358 0.11868 0.0
C2387 C 0.28265 0.35908 0.00072 0.0
C2388 C 0.28693 0.35921 0.03997 0.0
H2389 H 0.26895 0.36331 0.22512 0.0
H2390 H 0.27748 0.3696 0.16255 0.0
H2391 H 0.29327 0.37824 0.11724 0.0
H2392 H 0.28504 0.38058 0.93304 0.0
H2393 H 0.29637 0.37833 0.98729 0.0
C2394 C 0.91727 0.69438 0.5418 0.0
C2395 C 0.91958 0.68379 0.54987 0.0
C2396 C 0.92034 0.70024 0.50668 0.0
C2397 C 0.93009 0.71331 0.43245 0.0
H2398 H 0.92213 0.6891 0.35048 0.0
C2399 C 0.92788 0.72974 0.2836 0.0
C2400 C 0.91729 0.72168 0.26311 0.0
C2401 C 0.93151 0.72522 0.31529 0.0
C2402 C 0.92438 0.696 0.37299 0.0
H2403 H 0.92801 0.67184 0.52912 0.0
H2404 H 0.93379 0.68234 0.46853 0.0
H2405 H 0.92234 0.68195 0.41419 0.0
H2406 H 0.90259 0.70246 0.25795 0.0
H2407 H 0.90862 0.69456 0.31408 0.0
H2408 H 0.93124 0.72714 0.39166 0.0
C2409 C 0.92917 0.68582 0.48858 0.0
C2410 C 0.92469 0.69194 0.40961 0.0
C2411 C 0.92595 0.67987 0.52342 0.0
C2412 C 0.91089 0.70878 0.27313 0.0
C2413 C 0.91437 0.7043 0.30536 0.0
C2414 C 0.92966 0.71734 0.3959 0.0
C2415 C 0.92594 0.69573 0.47915 0.0
C2416 C 0.92726 0.70048 0.43994 0.0
C2417 C 0.92442 0.71262 0.32772 0.0
C2418 C 0.92653 0.70867 0.36573 0.0
H2419 H 0.91232 0.69757 0.56157 0.0
H2420 H 0.91762 0.70778 0.50045 0.0
H2421 H 0.93231 0.72021 0.45497 0.0
H2422 H 0.93297 0.73974 0.27618 0.0
H2423 H 0.93951 0.73181 0.33109 0.0
C2424 C 0.38433 0.29755 0.55286 0.0
C2425 C 0.37728 0.2848 0.56378 0.0
C2426 C 0.38092 0.30231 0.52111 0.0
C2427 C 0.35653 0.29427 0.4469 0.0
H2428 H 0.38493 0.30688 0.3795 0.0
C2429 C 0.36508 0.28664 0.28507 0.0
C2430 C 0.35426 0.2868 0.26998 0.0
C2431 C 0.36907 0.29143 0.3211 0.0
C2432 C 0.37691 0.30346 0.39797 0.0
H2433 H 0.36081 0.26729 0.55225 0.0
H2434 H 0.35465 0.27558 0.49746 0.0
H2435 H 0.38826 0.30583 0.44642 0.0
H2436 H 0.34001 0.29343 0.27858 0.0
H2437 H 0.34716 0.30209 0.34087 0.0
H2438 H 0.34509 0.29095 0.39837 0.0
C2439 C 0.36271 0.28202 0.51329 0.0
C2440 C 0.37883 0.30302 0.43645 0.0
C2441 C 0.36618 0.27725 0.54479 0.0
C2442 C 0.34826 0.29297 0.2899 0.0
C2443 C 0.35232 0.29788 0.32565 0.0
C2444 C 0.35461 0.2947 0.40848 0.0
C2445 C 0.37042 0.29437 0.4999 0.0
C2446 C 0.36861 0.29789 0.46115 0.0
C2447 C 0.36238 0.29658 0.34246 0.0
C2448 C 0.36474 0.2988 0.38337 0.0
H2449 H 0.39308 0.30343 0.56674 0.0
H2450 H 0.38697 0.3119 0.5117 0.0
H2451 H 0.34848 0.29041 0.46524 0.0
H2452 H 0.36987 0.28193 0.27033 0.0
H2453 H 0.37682 0.2902 0.33316 0.0
C2454 C 0.73772 0.09975 0.55317 0.0
C2455 C 0.72751 0.10249 0.55942 0.0
C2456 C 0.73833 0.09334 0.5206 0.0
C2457 C 0.7246 0.08625 0.4243 0.0
H2458 H 0.7467 0.06989 0.41612 0.0
C2459 C 0.74653 0.08292 0.28375 0.0
C2460 C 0.75151 0.07407 0.27919 0.0
C2461 C 0.74078 0.0835 0.3174 0.0
C2462 C 0.74024 0.07415 0.41762 0.0
H2463 H 0.70948 0.09985 0.53844 0.0
H2464 H 0.71004 0.08784 0.48314 0.0
H2465 H 0.74156 0.07512 0.4772 0.0
H2466 H 0.75339 0.05812 0.30462 0.0
H2467 H 0.74254 0.05843 0.36215 0.0
H2468 H 0.72276 0.08469 0.36487 0.0
C2469 C 0.71794 0.09118 0.50201 0.0
C2470 C 0.73749 0.07743 0.45299 0.0
C2471 C 0.71752 0.09793 0.534 0.0
C2472 C 0.7497 0.06511 0.30759 0.0
C2473 C 0.74363 0.06544 0.34083 0.0
C2474 C 0.72707 0.08265 0.38902 0.0
C2475 C 0.72858 0.08923 0.49397 0.0
C2476 C 0.72999 0.08396 0.45685 0.0
C2477 C 0.73959 0.07502 0.34699 0.0
C2478 C 0.7353 0.07697 0.38493 0.0
H2479 H 0.74561 0.1033 0.57219 0.0
H2480 H 0.74679 0.09226 0.51558 0.0
H2481 H 0.71885 0.09132 0.42557 0.0
H2482 H 0.74793 0.09004 0.26247 0.0
H2483 H 0.73799 0.09114 0.32078 0.0
C2484 C 0.94766 0.40715 0.13112 0.0
C2485 C 0.95515 0.41419 0.1012 0.0
C2486 C 0.95302 0.40462 0.16281 0.0
C2487 C 0.98155 0.41846 0.21763 0.0
H2488 H 0.96532 0.387 0.27412 0.0
C2489 C 0.99669 0.4145 0.36858 0.0
C2490 C 0.98678 0.40922 0.39434 0.0
C2491 C 0.99437 0.41329 0.33005 0.0
C2492 C 0.96997 0.39585 0.25872 0.0
H2493 H 0.97413 0.42366 0.08033 0.0
H2494 H 0.9836 0.41938 0.13642 0.0
H2495 H 0.95857 0.38801 0.21024 0.0
H2496 H 0.96671 0.39801 0.39946 0.0
H2497 H 0.9627 0.39604 0.33258 0.0
H2498 H 0.99256 0.4265 0.26659 0.0
C2499 C 0.97354 0.41582 0.13511 0.0
C2500 C 0.96613 0.39642 0.2221 0.0
C2501 C 0.96813 0.41821 0.10299 0.0
C2502 C 0.97458 0.40222 0.38056 0.0
C2503 C 0.97228 0.40102 0.34208 0.0
C2504 C 0.98537 0.41791 0.25432 0.0
C2505 C 0.96604 0.40916 0.16559 0.0
C2506 C 0.97162 0.40785 0.20156 0.0
C2507 C 0.98211 0.40675 0.31634 0.0
C2508 C 0.97937 0.40671 0.27569 0.0
H2509 H 0.93761 0.40382 0.13043 0.0
H2510 H 0.94698 0.3996 0.18591 0.0
H2511 H 0.98588 0.42745 0.20269 0.0
H2512 H 0.00622 0.41988 0.3781 0.0
H2513 H 0.00217 0.41768 0.31098 0.0
C2514 C 0.5727 0.5977 0.09056 0.0
C2515 C 0.57444 0.58683 0.08117 0.0
C2516 C 0.57141 0.60052 0.1278 0.0
C2517 C 0.57599 0.59431 0.22644 0.0
H2518 H 0.54768 0.60193 0.24203 0.0
C2519 C 0.55615 0.59777 0.37368 0.0
C2520 C 0.55103 0.60656 0.37752 0.0
C2521 C 0.56051 0.59587 0.33879 0.0
C2522 C 0.55576 0.60005 0.23828 0.0
H2523 H 0.57691 0.57081 0.10415 0.0
H2524 H 0.57462 0.5758 0.16954 0.0
H2525 H 0.55273 0.59776 0.17929 0.0
H2526 H 0.54741 0.62099 0.34867 0.0
H2527 H 0.55535 0.61805 0.2886 0.0
H2528 H 0.57899 0.59668 0.28578 0.0
C2529 C 0.57426 0.5821 0.14778 0.0
C2530 C 0.55862 0.5976 0.2022 0.0
C2531 C 0.57554 0.57924 0.1103 0.0
C2532 C 0.5511 0.61398 0.34648 0.0
C2533 C 0.55558 0.61222 0.31193 0.0
C2534 C 0.57315 0.59686 0.26277 0.0
C2535 C 0.57182 0.59258 0.15678 0.0
C2536 C 0.56883 0.59484 0.19572 0.0
C2537 C 0.55993 0.60284 0.30723 0.0
C2538 C 0.56306 0.5999 0.26904 0.0
H2539 H 0.57198 0.60389 0.06905 0.0
H2540 H 0.56981 0.60882 0.13388 0.0
H2541 H 0.58392 0.59221 0.22228 0.0
H2542 H 0.55619 0.59189 0.39711 0.0
H2543 H 0.56378 0.58855 0.33622 0.0
C2544 C 0.3809 0.96302 0.36374 0.0
C2545 C 0.3853 0.97316 0.38967 0.0
C2546 C 0.37927 0.96523 0.32622 0.0
C2547 C 0.392 0.99062 0.25713 0.0
H2548 H 0.36545 0.96692 0.19396 0.0
C2549 C 0.39347 0.99825 0.09894 0.0
C2550 C 0.39109 0.98736 0.07706 0.0
C2551 C 0.39032 0.99704 0.13679 0.0
C2552 C 0.37294 0.9736 0.21123 0.0
H2553 H 0.39082 0.99347 0.39674 0.0
H2554 H 0.38798 0.9973 0.33114 0.0
H2555 H 0.36432 0.9638 0.26172 0.0
H2556 H 0.38293 0.96664 0.0773 0.0
H2557 H 0.37772 0.96454 0.14358 0.0
H2558 H 0.40092 0.00013 0.20695 0.0
C2559 C 0.38592 0.98767 0.33992 0.0
C2560 C 0.37228 0.97183 0.24999 0.0
C2561 C 0.3875 0.98546 0.37751 0.0
C2562 C 0.38489 0.97521 0.09339 0.0
C2563 C 0.38184 0.974 0.13139 0.0
C2564 C 0.3927 0.99236 0.21848 0.0
C2565 C 0.38203 0.97763 0.31378 0.0
C2566 C 0.38191 0.98021 0.27325 0.0
C2567 C 0.38483 0.98493 0.15374 0.0
C2568 C 0.38328 0.98376 0.19499 0.0
H2569 H 0.37902 0.9534 0.37216 0.0
H2570 H 0.37638 0.95732 0.30668 0.0
H2571 H 0.39967 0.99711 0.27424 0.0
H2572 H 0.39807 0.00775 0.08705 0.0
H2573 H 0.39249 0.00563 0.15302 0.0
C2574 C 0.57093 0.00645 0.90586 0.0
C2575 C 0.57397 0.99615 0.9102 0.0
C2576 C 0.57349 0.01322 0.87218 0.0
C2577 C 0.58313 0.0291 0.80239 0.0
H2578 H 0.57857 0.00891 0.71227 0.0
C2579 C 0.5869 0.05196 0.65831 0.0
C2580 C 0.5782 0.04467 0.63104 0.0
C2581 C 0.58845 0.04625 0.6909 0.0
C2582 C 0.57978 0.01469 0.73711 0.0
H2583 H 0.58292 0.98546 0.88417 0.0
H2584 H 0.58795 0.99763 0.82619 0.0
H2585 H 0.57735 0.99911 0.77293 0.0
H2586 H 0.56461 0.02566 0.6156 0.0
H2587 H 0.56683 0.01567 0.67341 0.0
H2588 H 0.58465 0.0444 0.76679 0.0
C2589 C 0.5831 0.00017 0.84794 0.0
C2590 C 0.5793 0.00912 0.77204 0.0
C2591 C 0.58032 0.99326 0.88128 0.0
C2592 C 0.57141 0.03146 0.63621 0.0
C2593 C 0.57275 0.02576 0.66932 0.0
C2594 C 0.5834 0.03461 0.76752 0.0
C2595 C 0.57936 0.00997 0.84244 0.0
C2596 C 0.58084 0.01621 0.8052 0.0
C2597 C 0.58111 0.03315 0.69747 0.0
C2598 C 0.58162 0.02744 0.73438 0.0
H2599 H 0.56596 0.00882 0.92765 0.0
H2600 H 0.57032 0.02059 0.86897 0.0
H2601 H 0.58456 0.03495 0.82717 0.0
H2602 H 0.5924 0.06216 0.65468 0.0
H2603 H 0.59526 0.05219 0.71125 0.0
C2604 C 0.01165 0.60237 0.61544 0.0
C2605 C 0.99868 0.59809 0.61164 0.0
C2606 C 0.01752 0.60707 0.64991 0.0
C2607 C 0.0103 0.6029 0.7495 0.0
H2608 H 0.0427 0.63169 0.76267 0.0
C2609 C 0.03528 0.61128 0.89137 0.0
C2610 C 0.04781 0.61339 0.88848 0.0
C2611 C 0.02896 0.61266 0.85983 0.0
C2612 C 0.03365 0.62359 0.75949 0.0
H2613 H 0.98188 0.59627 0.64055 0.0
H2614 H 0.99208 0.6043 0.70012 0.0
H2615 H 0.03259 0.62762 0.70136 0.0
H2616 H 0.06386 0.61985 0.85146 0.0
H2617 H 0.05291 0.62192 0.79695 0.0
H2618 H 0.01155 0.59835 0.80669 0.0
C2619 C 0.99768 0.60386 0.67674 0.0
C2620 C 0.02788 0.62128 0.72435 0.0
C2621 C 0.99185 0.59924 0.64247 0.0
C2622 C 0.05413 0.61792 0.85447 0.0
C2623 C 0.04786 0.61926 0.82315 0.0
C2624 C 0.01612 0.60509 0.78444 0.0
C2625 C 0.0105 0.60752 0.68113 0.0
C2626 C 0.01625 0.61077 0.71886 0.0
C2627 C 0.03507 0.61621 0.82496 0.0
C2628 C 0.02801 0.61529 0.78973 0.0
H2629 H 0.0172 0.60168 0.59227 0.0
H2630 H 0.02743 0.6098 0.65257 0.0
H2631 H 0.00137 0.59464 0.74603 0.0
H2632 H 0.03019 0.60787 0.91728 0.0
H2633 H 0.01916 0.61048 0.86243 0.0
C2634 C 0.41233 0.40648 0.65878 0.0
C2635 C 0.41319 0.41495 0.62976 0.0
C2636 C 0.40677 0.40694 0.69288 0.0
C2637 C 0.38932 0.42292 0.74213 0.0
H2638 H 0.40584 0.41751 0.82914 0.0
C2639 C 0.40031 0.44125 0.90495 0.0
C2640 C 0.38948 0.44285 0.91193 0.0
C2641 C 0.40125 0.43495 0.87254 0.0
C2642 C 0.40118 0.41921 0.80524 0.0
H2643 H 0.4085 0.43022 0.61309 0.0
H2644 H 0.3994 0.43152 0.67282 0.0
H2645 H 0.41093 0.41251 0.76763 0.0
H2646 H 0.37078 0.43829 0.89256 0.0
H2647 H 0.37198 0.42646 0.83759 0.0
H2648 H 0.38045 0.43073 0.7793 0.0
C2649 C 0.40257 0.42417 0.66926 0.0
C2650 C 0.40393 0.41607 0.76969 0.0
C2651 C 0.40784 0.42347 0.63484 0.0
C2652 C 0.37927 0.43723 0.88757 0.0
C2653 C 0.38005 0.4306 0.85576 0.0
C2654 C 0.38681 0.42636 0.77756 0.0
C2655 C 0.40225 0.41614 0.69921 0.0
C2656 C 0.39822 0.4181 0.73745 0.0
C2657 C 0.39124 0.42983 0.84684 0.0
C2658 C 0.39287 0.42478 0.80966 0.0
H2659 H 0.41629 0.39973 0.65547 0.0
H2660 H 0.40637 0.40029 0.7146 0.0
H2661 H 0.38446 0.42435 0.71832 0.0
H2662 H 0.40837 0.44566 0.92311 0.0
H2663 H 0.4101 0.43478 0.86678 0.0
loop_
_geom_bond_atom_site_label_1
_geom_bond_atom_site_label_2
_geom_bond_distance
_geom_bond_site_symmetry_2
_ccdc_geom_bond_type
Co0 O1 2.216 . S
Co0 O2 2.091 . S
Co0 O4 2.004 . S
Co0 O10 2.021 . S
Co0 O12 2.137 . S
Co0 O13 2.244 . S
O1 Co0 2.216 . S
O1 C8 1.247 . S
O2 Co0 2.091 . S
O2 C8 1.261 . S
C3 O12 1.247 . S
C3 O13 1.272 . S
O4 Co0 2.004 . S
O4 C9 1.259 . S
Co5 O6 2.061 . S
Co5 O11 2.052 . S
Co5 O13 2.135 . S
O6 Co5 2.061 . S
O6 C9 1.235 . S
C7 O10 1.238 . S
C7 O11 1.241 . S
C8 O1 1.247 . S
C8 O2 1.261 . S
C9 O4 1.259 . S
C9 O6 1.235 . S
O10 Co0 2.021 . S
O10 C7 1.238 . S
O11 Co5 2.052 . S
O11 C7 1.241 . S
O12 Co0 2.137 . S
O12 C3 1.247 . S
O13 Co0 2.244 . S
O13 C3 1.272 . S
O13 Co5 2.135 . S
Co14 O15 2.216 . S
Co14 O16 2.091 . S
Co14 O18 2.004 . S
Co14 O24 2.021 . S
Co14 O26 2.137 . S
Co14 O27 2.244 . S
O15 Co14 2.216 . S
O15 C22 1.247 . S
O16 Co14 2.091 . S
O16 C22 1.261 . S
C17 O26 1.247 . S
C17 O27 1.272 . S
O18 Co14 2.004 . S
O18 C23 1.259 . S
Co19 O20 2.061 . S
Co19 O25 2.052 . S
Co19 O27 2.135 . S
O20 Co19 2.061 . S
O20 C23 1.235 . S
C21 O24 1.238 . S
C21 O25 1.241 . S
C22 O15 1.247 . S
C22 O16 1.261 . S
C23 O18 1.259 . S
C23 O20 1.235 . S
O24 Co14 2.021 . S
O24 C21 1.238 . S
O25 Co19 2.052 . S
O25 C21 1.241 . S
O26 Co14 2.137 . S
O26 C17 1.247 . S
O27 Co14 2.244 . S
O27 C17 1.272 . S
O27 Co19 2.135 . S
Co28 O29 2.216 . S
Co28 O30 2.091 . S
Co28 O32 2.004 . S
Co28 O38 2.021 . S
Co28 O40 2.137 . S
Co28 O41 2.244 . S
O29 Co28 2.216 . S
O29 C36 1.247 . S
O30 Co28 2.091 . S
O30 C36 1.261 . S
C31 O40 1.247 . S
C31 O41 1.272 . S
O32 Co28 2.004 . S
O32 C37 1.259 . S
Co33 O34 2.061 . S
Co33 O39 2.052 . S
Co33 O41 2.135 . S
O34 Co33 2.061 . S
O34 C37 1.235 . S
C35 O38 1.238 . S
C35 O39 1.241 . S
C36 O29 1.247 . S
C36 O30 1.261 . S
C37 O32 1.259 . S
C37 O34 1.235 . S
O38 Co28 2.021 . S
O38 C35 1.238 . S
O39 Co33 2.052 . S
O39 C35 1.241 . S
O40 Co28 2.137 . S
O40 C31 1.247 . S
O41 Co28 2.244 . S
O41 C31 1.272 . S
O41 Co33 2.135 . S
Co42 O43 2.216 . S
Co42 O44 2.091 . S
Co42 O46 2.004 . S
Co42 O52 2.021 . S
Co42 O54 2.137 . S
Co42 O55 2.244 . S
O43 Co42 2.216 . S
O43 C50 1.247 . S
O44 Co42 2.091 . S
O44 C50 1.261 . S
C45 O54 1.247 . S
C45 O55 1.272 . S
O46 Co42 2.004 . S
O46 C51 1.259 . S
Co47 O48 2.061 . S
Co47 O53 2.052 . S
Co47 O55 2.135 . S
O48 Co47 2.061 . S
O48 C51 1.235 . S
C49 O52 1.238 . S
C49 O53 1.241 . S
C50 O43 1.247 . S
C50 O44 1.261 . S
C51 O46 1.259 . S
C51 O48 1.235 . S
O52 Co42 2.021 . S
O52 C49 1.238 . S
O53 Co47 2.052 . S
O53 C49 1.241 . S
O54 Co42 2.137 . S
O54 C45 1.247 . S
O55 Co42 2.244 . S
O55 C45 1.272 . S
O55 Co47 2.135 . S
Co56 O57 2.216 . S
Co56 O58 2.091 . S
Co56 O60 2.004 . S
Co56 O66 2.021 . S
Co56 O68 2.137 . S
Co56 O69 2.244 . S
O57 Co56 2.216 . S
O57 C64 1.247 . S
O58 Co56 2.091 . S
O58 C64 1.261 . S
C59 O68 1.247 . S
C59 O69 1.272 . S
O60 Co56 2.004 . S
O60 C65 1.259 . S
Co61 O62 2.061 . S
Co61 O67 2.052 . S
Co61 O69 2.135 . S
O62 Co61 2.061 . S
O62 C65 1.235 . S
C63 O66 1.238 . S
C63 O67 1.241 . S
C64 O57 1.247 . S
C64 O58 1.261 . S
C65 O60 1.259 . S
C65 O62 1.235 . S
O66 Co56 2.021 . S
O66 C63 1.238 . S
O67 Co61 2.052 . S
O67 C63 1.241 . S
O68 Co56 2.137 . S
O68 C59 1.247 . S
O69 Co56 2.244 . S
O69 C59 1.272 . S
O69 Co61 2.135 . S
Co70 O71 2.216 . S
Co70 O72 2.091 . S
Co70 O74 2.004 . S
Co70 O80 2.021 . S
Co70 O82 2.137 . S
Co70 O83 2.244 . S
O71 Co70 2.216 . S
O71 C78 1.247 . S
O72 Co70 2.091 . S
O72 C78 1.261 . S
C73 O82 1.247 . S
C73 O83 1.272 . S
O74 Co70 2.004 . S
O74 C79 1.259 . S
Co75 O76 2.061 . S
Co75 O81 2.052 . S
Co75 O83 2.135 . S
O76 Co75 2.061 . S
O76 C79 1.235 . S
C77 O80 1.238 . S
C77 O81 1.241 . S
C78 O71 1.247 . S
C78 O72 1.261 . S
C79 O74 1.259 . S
C79 O76 1.235 . S
O80 Co70 2.021 . S
O80 C77 1.238 . S
O81 Co75 2.052 . S
O81 C77 1.241 . S
O82 Co70 2.137 . S
O82 C73 1.247 . S
O83 Co70 2.244 . S
O83 C73 1.272 . S
O83 Co75 2.135 . S
Co84 O85 2.216 . S
Co84 O86 2.091 . S
Co84 O88 2.004 . S
Co84 O94 2.021 . S
Co84 O96 2.137 . S
Co84 O97 2.244 . S
O85 Co84 2.216 . S
O85 C92 1.247 . S
O86 Co84 2.091 . S
O86 C92 1.261 . S
C87 O96 1.247 . S
C87 O97 1.272 . S
O88 Co84 2.004 . S
O88 C93 1.259 . S
Co89 O90 2.061 . S
Co89 O95 2.052 . S
Co89 O97 2.135 . S
O90 Co89 2.061 . S
O90 C93 1.235 . S
C91 O94 1.238 . S
C91 O95 1.241 . S
C92 O85 1.247 . S
C92 O86 1.261 . S
C93 O88 1.259 . S
C93 O90 1.235 . S
O94 Co84 2.021 . S
O94 C91 1.238 . S
O95 Co89 2.052 . S
O95 C91 1.241 . S
O96 Co84 2.137 . S
O96 C87 1.247 . S
O97 Co84 2.244 . S
O97 C87 1.272 . S
O97 Co89 2.135 . S
Co98 O99 2.216 . S
Co98 O100 2.091 . S
Co98 O102 2.004 . S
Co98 O108 2.021 . S
Co98 O110 2.137 . S
Co98 O111 2.244 . S
O99 Co98 2.216 . S
O99 C106 1.247 . S
O100 Co98 2.091 . S
O100 C106 1.261 . S
C101 O110 1.247 . S
C101 O111 1.272 . S
O102 Co98 2.004 . S
O102 C107 1.259 . S
Co103 O104 2.061 . S
Co103 O109 2.052 . S
Co103 O111 2.135 . S
O104 Co103 2.061 . S
O104 C107 1.235 . S
C105 O108 1.238 . S
C105 O109 1.241 . S
C106 O99 1.247 . S
C106 O100 1.261 . S
C107 O102 1.259 . S
C107 O104 1.235 . S
O108 Co98 2.021 . S
O108 C105 1.238 . S
O109 Co103 2.052 . S
O109 C105 1.241 . S
O110 Co98 2.137 . S
O110 C101 1.247 . S
O111 Co98 2.244 . S
O111 C101 1.272 . S
O111 Co103 2.135 . S
Co112 O113 2.216 . S
Co112 O114 2.091 . S
Co112 O116 2.004 . S
Co112 O122 2.021 . S
Co112 O124 2.137 . S
Co112 O125 2.244 . S
O113 Co112 2.216 . S
O113 C120 1.247 . S
O114 Co112 2.091 . S
O114 C120 1.261 . S
C115 O124 1.247 . S
C115 O125 1.272 . S
O116 Co112 2.004 . S
O116 C121 1.259 . S
Co117 O118 2.061 . S
Co117 O123 2.052 . S
Co117 O125 2.135 . S
O118 Co117 2.061 . S
O118 C121 1.235 . S
C119 O122 1.238 . S
C119 O123 1.241 . S
C120 O113 1.247 . S
C120 O114 1.261 . S
C121 O116 1.259 . S
C121 O118 1.235 . S
O122 Co112 2.021 . S
O122 C119 1.238 . S
O123 Co117 2.052 . S
O123 C119 1.241 . S
O124 Co112 2.137 . S
O124 C115 1.247 . S
O125 Co112 2.244 . S
O125 C115 1.272 . S
O125 Co117 2.135 . S
Co126 O127 2.216 . S
Co126 O128 2.091 . S
Co126 O130 2.004 . S
Co126 O136 2.021 . S
Co126 O138 2.137 . S
Co126 O139 2.244 . S
O127 Co126 2.216 . S
O127 C134 1.247 . S
O128 Co126 2.091 . S
O128 C134 1.261 . S
C129 O138 1.247 . S
C129 O139 1.272 . S
O130 Co126 2.004 . S
O130 C135 1.259 . S
Co131 O132 2.061 . S
Co131 O137 2.052 . S
Co131 O139 2.135 . S
O132 Co131 2.061 . S
O132 C135 1.235 . S
C133 O136 1.238 . S
C133 O137 1.241 . S
C134 O127 1.247 . S
C134 O128 1.261 . S
C135 O130 1.259 . S
C135 O132 1.235 . S
O136 Co126 2.021 . S
O136 C133 1.238 . S
O137 Co131 2.052 . S
O137 C133 1.241 . S
O138 Co126 2.137 . S
O138 C129 1.247 . S
O139 Co126 2.244 . S
O139 C129 1.272 . S
O139 Co131 2.135 . S
Co140 O141 2.216 . S
Co140 O142 2.091 . S
Co140 O144 2.004 . S
Co140 O150 2.021 . S
Co140 O152 2.137 . S
Co140 O153 2.244 . S
O141 Co140 2.216 . S
O141 C148 1.247 . S
O142 Co140 2.091 . S
O142 C148 1.261 . S
C143 O152 1.247 . S
C143 O153 1.272 . S
O144 Co140 2.004 . S
O144 C149 1.259 . S
Co145 O146 2.061 . S
Co145 O151 2.052 . S
Co145 O153 2.135 . S
O146 Co145 2.061 . S
O146 C149 1.235 . S
C147 O150 1.238 . S
C147 O151 1.241 . S
C148 O141 1.247 . S
C148 O142 1.261 . S
C149 O144 1.259 . S
C149 O146 1.235 . S
O150 Co140 2.021 . S
O150 C147 1.238 . S
O151 Co145 2.052 . S
O151 C147 1.241 . S
O152 Co140 2.137 . S
O152 C143 1.247 . S
O153 Co140 2.244 . S
O153 C143 1.272 . S
O153 Co145 2.135 . S
Co154 O155 2.216 . S
Co154 O156 2.091 . S
Co154 O158 2.004 . S
Co154 O164 2.021 . S
Co154 O166 2.137 . S
Co154 O167 2.244 . S
O155 Co154 2.216 . S
O155 C162 1.247 . S
O156 Co154 2.091 . S
O156 C162 1.261 . S
C157 O166 1.247 . S
C157 O167 1.272 . S
O158 Co154 2.004 . S
O158 C163 1.259 . S
Co159 O160 2.061 . S
Co159 O165 2.052 . S
Co159 O167 2.135 . S
O160 Co159 2.061 . S
O160 C163 1.235 . S
C161 O164 1.238 . S
C161 O165 1.241 . S
C162 O155 1.247 . S
C162 O156 1.261 . S
C163 O158 1.259 . S
C163 O160 1.235 . S
O164 Co154 2.021 . S
O164 C161 1.238 . S
O165 Co159 2.052 . S
O165 C161 1.241 . S
O166 Co154 2.137 . S
O166 C157 1.247 . S
O167 Co154 2.244 . S
O167 C157 1.272 . S
O167 Co159 2.135 . S
Co168 O169 2.216 . S
Co168 O170 2.091 . S
Co168 O172 2.004 . S
Co168 O178 2.021 1_455 S
Co168 O180 2.137 . S
Co168 O181 2.244 1_455 S
O169 Co168 2.216 . S
O169 C176 1.247 . S
O170 Co168 2.091 . S
O170 C176 1.261 . S
C171 O180 1.247 1_655 S
C171 O181 1.272 . S
O172 Co168 2.004 . S
O172 C177 1.259 . S
Co173 O174 2.061 . S
Co173 O179 2.052 . S
Co173 O181 2.135 . S
O174 Co173 2.061 . S
O174 C177 1.235 1_655 S
C175 O178 1.238 . S
C175 O179 1.241 . S
C176 O169 1.247 . S
C176 O170 1.261 . S
C177 O172 1.259 . S
C177 O174 1.235 1_455 S
O178 Co168 2.021 1_655 S
O178 C175 1.238 . S
O179 Co173 2.052 . S
O179 C175 1.241 . S
O180 Co168 2.137 . S
O180 C171 1.247 1_455 S
O181 Co168 2.244 1_655 S
O181 C171 1.272 . S
O181 Co173 2.135 . S
Co182 O183 2.216 . S
Co182 O184 2.091 . S
Co182 O186 2.004 . S
Co182 O192 2.021 . S
Co182 O194 2.137 . S
Co182 O195 2.244 . S
O183 Co182 2.216 . S
O183 C190 1.247 . S
O184 Co182 2.091 . S
O184 C190 1.261 . S
C185 O194 1.247 . S
C185 O195 1.272 . S
O186 Co182 2.004 . S
O186 C191 1.259 . S
Co187 O188 2.061 . S
Co187 O193 2.052 . S
Co187 O195 2.135 . S
O188 Co187 2.061 . S
O188 C191 1.235 . S
C189 O192 1.238 . S
C189 O193 1.241 . S
C190 O183 1.247 . S
C190 O184 1.261 . S
C191 O186 1.259 . S
C191 O188 1.235 . S
O192 Co182 2.021 . S
O192 C189 1.238 . S
O193 Co187 2.052 . S
O193 C189 1.241 . S
O194 Co182 2.137 . S
O194 C185 1.247 . S
O195 Co182 2.244 . S
O195 C185 1.272 . S
O195 Co187 2.135 . S
Co196 O197 2.216 . S
Co196 O198 2.091 . S
Co196 O200 2.004 . S
Co196 O206 2.021 . S
Co196 O208 2.137 . S
Co196 O209 2.244 . S
O197 Co196 2.216 . S
O197 C204 1.247 . S
O198 Co196 2.091 . S
O198 C204 1.261 . S
C199 O208 1.247 . S
C199 O209 1.272 . S
O200 Co196 2.004 . S
O200 C205 1.259 . S
Co201 O202 2.061 . S
Co201 O207 2.052 . S
Co201 O209 2.135 . S
O202 Co201 2.061 . S
O202 C205 1.235 . S
C203 O206 1.238 . S
C203 O207 1.241 . S
C204 O197 1.247 . S
C204 O198 1.261 . S
C205 O200 1.259 . S
C205 O202 1.235 . S
O206 Co196 2.021 . S
O206 C203 1.238 . S
O207 Co201 2.052 . S
O207 C203 1.241 . S
O208 Co196 2.137 . S
O208 C199 1.247 . S
O209 Co196 2.244 . S
O209 C199 1.272 . S
O209 Co201 2.135 . S
Co210 O211 2.216 . S
Co210 O212 2.091 . S
Co210 O214 2.004 . S
Co210 O220 2.021 . S
Co210 O222 2.137 . S
Co210 O223 2.244 . S
O211 Co210 2.216 . S
O211 C218 1.247 . S
O212 Co210 2.091 . S
O212 C218 1.261 . S
C213 O222 1.247 . S
C213 O223 1.272 . S
O214 Co210 2.004 . S
O214 C219 1.259 . S
Co215 O216 2.061 . S
Co215 O221 2.052 . S
Co215 O223 2.135 . S
O216 Co215 2.061 . S
O216 C219 1.235 . S
C217 O220 1.238 . S
C217 O221 1.241 . S
C218 O211 1.247 . S
C218 O212 1.261 . S
C219 O214 1.259 . S
C219 O216 1.235 . S
O220 Co210 2.021 . S
O220 C217 1.238 . S
O221 Co215 2.052 . S
O221 C217 1.241 . S
O222 Co210 2.137 . S
O222 C213 1.247 . S
O223 Co210 2.244 . S
O223 C213 1.272 . S
O223 Co215 2.135 . S
Co224 O225 2.216 . S
Co224 O226 2.091 . S
Co224 O228 2.004 . S
Co224 O234 2.021 . S
Co224 O236 2.137 . S
Co224 O237 2.244 . S
O225 Co224 2.216 . S
O225 C232 1.247 . S
O226 Co224 2.091 . S
O226 C232 1.261 . S
C227 O236 1.247 . S
C227 O237 1.272 . S
O228 Co224 2.004 . S
O228 C233 1.259 . S
Co229 O230 2.061 . S
Co229 O235 2.052 . S
Co229 O237 2.135 . S
O230 Co229 2.061 . S
O230 C233 1.235 . S
C231 O234 1.238 . S
C231 O235 1.241 . S
C232 O225 1.247 . S
C232 O226 1.261 . S
C233 O228 1.259 . S
C233 O230 1.235 . S
O234 Co224 2.021 . S
O234 C231 1.238 . S
O235 Co229 2.052 . S
O235 C231 1.241 . S
O236 Co224 2.137 . S
O236 C227 1.247 . S
O237 Co224 2.244 . S
O237 C227 1.272 . S
O237 Co229 2.135 . S
Co238 O239 2.216 . S
Co238 O240 2.091 . S
Co238 O242 2.004 . S
Co238 O248 2.021 . S
Co238 O250 2.137 . S
Co238 O251 2.244 . S
O239 Co238 2.216 . S
O239 C246 1.247 . S
O240 Co238 2.091 . S
O240 C246 1.261 . S
C241 O250 1.247 . S
C241 O251 1.272 . S
O242 Co238 2.004 . S
O242 C247 1.259 . S
Co243 O244 2.061 . S
Co243 O249 2.052 . S
Co243 O251 2.135 . S
O244 Co243 2.061 . S
O244 C247 1.235 . S
C245 O248 1.238 . S
C245 O249 1.241 . S
C246 O239 1.247 . S
C246 O240 1.261 . S
C247 O242 1.259 . S
C247 O244 1.235 . S
O248 Co238 2.021 . S
O248 C245 1.238 . S
O249 Co243 2.052 . S
O249 C245 1.241 . S
O250 Co238 2.137 . S
O250 C241 1.247 . S
O251 Co238 2.244 . S
O251 C241 1.272 . S
O251 Co243 2.135 . S
Co252 O253 2.216 . S
Co252 O254 2.091 . S
Co252 O256 2.004 . S
Co252 O262 2.021 . S
Co252 O264 2.137 . S
Co252 O265 2.244 . S
O253 Co252 2.216 . S
O253 C260 1.247 . S
O254 Co252 2.091 . S
O254 C260 1.261 . S
C255 O264 1.247 . S
C255 O265 1.272 . S
O256 Co252 2.004 . S
O256 C261 1.259 . S
Co257 O258 2.061 . S
Co257 O263 2.052 . S
Co257 O265 2.135 . S
O258 Co257 2.061 . S
O258 C261 1.235 . S
C259 O262 1.238 . S
C259 O263 1.241 . S
C260 O253 1.247 . S
C260 O254 1.261 . S
C261 O256 1.259 . S
C261 O258 1.235 . S
O262 Co252 2.021 . S
O262 C259 1.238 . S
O263 Co257 2.052 . S
O263 C259 1.241 . S
O264 Co252 2.137 . S
O264 C255 1.247 . S
O265 Co252 2.244 . S
O265 C255 1.272 . S
O265 Co257 2.135 . S
Co266 O267 2.216 . S
Co266 O268 2.091 . S
Co266 O270 2.004 . S
Co266 O276 2.021 . S
Co266 O278 2.137 . S
Co266 O279 2.244 . S
O267 Co266 2.216 . S
O267 C274 1.247 . S
O268 Co266 2.091 . S
O268 C274 1.261 . S
C269 O278 1.247 . S
C269 O279 1.272 . S
O270 Co266 2.004 . S
O270 C275 1.259 . S
Co271 O272 2.061 . S
Co271 O277 2.052 . S
Co271 O279 2.135 . S
O272 Co271 2.061 . S
O272 C275 1.235 . S
C273 O276 1.238 . S
C273 O277 1.241 . S
C274 O267 1.247 . S
C274 O268 1.261 . S
C275 O270 1.259 . S
C275 O272 1.235 . S
O276 Co266 2.021 . S
O276 C273 1.238 . S
O277 Co271 2.052 . S
O277 C273 1.241 . S
O278 Co266 2.137 . S
O278 C269 1.247 . S
O279 Co266 2.244 . S
O279 C269 1.272 . S
O279 Co271 2.135 . S
Co280 O281 2.216 . S
Co280 O282 2.091 . S
Co280 O284 2.004 . S
Co280 O290 2.021 . S
Co280 O292 2.137 . S
Co280 O293 2.244 . S
O281 Co280 2.216 . S
O281 C288 1.247 . S
O282 Co280 2.091 . S
O282 C288 1.261 . S
C283 O292 1.247 . S
C283 O293 1.272 . S
O284 Co280 2.004 . S
O284 C289 1.259 . S
Co285 O286 2.061 . S
Co285 O291 2.052 . S
Co285 O293 2.135 . S
O286 Co285 2.061 . S
O286 C289 1.235 . S
C287 O290 1.238 . S
C287 O291 1.241 . S
C288 O281 1.247 . S
C288 O282 1.261 . S
C289 O284 1.259 . S
C289 O286 1.235 . S
O290 Co280 2.021 . S
O290 C287 1.238 . S
O291 Co285 2.052 . S
O291 C287 1.241 . S
O292 Co280 2.137 . S
O292 C283 1.247 . S
O293 Co280 2.244 . S
O293 C283 1.272 . S
O293 Co285 2.135 . S
Co294 O295 2.216 1_545 S
Co294 O296 2.091 . S
Co294 O298 2.004 1_554 S
Co294 O304 2.021 . S
Co294 O306 2.137 1_545 S
Co294 O307 2.244 1_544 S
O295 Co294 2.216 1_565 S
O295 C302 1.247 1_565 S
O296 Co294 2.091 . S
O296 C302 1.261 . S
C297 O306 1.247 1_556 S
C297 O307 1.272 . S
O298 Co294 2.004 1_556 S
O298 C303 1.259 . S
Co299 O300 2.061 . S
Co299 O305 2.052 . S
Co299 O307 2.135 . S
O300 Co299 2.061 . S
O300 C303 1.235 1_565 S
C301 O304 1.238 1_566 S
C301 O305 1.241 . S
C302 O295 1.247 1_545 S
C302 O296 1.261 . S
C303 O298 1.259 . S
C303 O300 1.235 1_545 S
O304 Co294 2.021 . S
O304 C301 1.238 1_544 S
O305 Co299 2.052 . S
O305 C301 1.241 . S
O306 Co294 2.137 1_565 S
O306 C297 1.247 1_554 S
O307 Co294 2.244 1_566 S
O307 C297 1.272 . S
O307 Co299 2.135 . S
Co308 O309 2.216 . S
Co308 O310 2.091 . S
Co308 O312 2.004 1_554 S
Co308 O318 2.021 . S
Co308 O320 2.137 . S
Co308 O321 2.244 1_554 S
O309 Co308 2.216 . S
O309 C316 1.247 . S
O310 Co308 2.091 . S
O310 C316 1.261 . S
C311 O320 1.247 1_556 S
C311 O321 1.272 . S
O312 Co308 2.004 1_556 S
O312 C317 1.259 . S
Co313 O314 2.061 . S
Co313 O319 2.052 . S
Co313 O321 2.135 . S
O314 Co313 2.061 . S
O314 C317 1.235 . S
C315 O318 1.238 1_556 S
C315 O319 1.241 . S
C316 O309 1.247 . S
C316 O310 1.261 . S
C317 O312 1.259 . S
C317 O314 1.235 . S
O318 Co308 2.021 . S
O318 C315 1.238 1_554 S
O319 Co313 2.052 . S
O319 C315 1.241 . S
O320 Co308 2.137 . S
O320 C311 1.247 1_554 S
O321 Co308 2.244 1_556 S
O321 C311 1.272 . S
O321 Co313 2.135 . S
Co322 O323 2.216 . S
Co322 O324 2.091 . S
Co322 O326 2.004 1_554 S
Co322 O332 2.021 . S
Co322 O334 2.137 . S
Co322 O335 2.244 1_554 S
O323 Co322 2.216 . S
O323 C330 1.247 . S
O324 Co322 2.091 . S
O324 C330 1.261 . S
C325 O334 1.247 1_556 S
C325 O335 1.272 . S
O326 Co322 2.004 1_556 S
O326 C331 1.259 . S
Co327 O328 2.061 . S
Co327 O333 2.052 . S
Co327 O335 2.135 . S
O328 Co327 2.061 . S
O328 C331 1.235 . S
C329 O332 1.238 1_556 S
C329 O333 1.241 . S
C330 O323 1.247 . S
C330 O324 1.261 . S
C331 O326 1.259 . S
C331 O328 1.235 . S
O332 Co322 2.021 . S
O332 C329 1.238 1_554 S
O333 Co327 2.052 . S
O333 C329 1.241 . S
O334 Co322 2.137 . S
O334 C325 1.247 1_554 S
O335 Co322 2.244 1_556 S
O335 C325 1.272 . S
O335 Co327 2.135 . S
Co336 O337 2.216 . S
Co336 O338 2.091 . S
Co336 O340 2.004 . S
Co336 O346 2.021 . S
Co336 O348 2.137 . S
Co336 O349 2.244 . S
O337 Co336 2.216 . S
O337 C344 1.247 . S
O338 Co336 2.091 . S
O338 C344 1.261 . S
C339 O348 1.247 . S
C339 O349 1.272 . S
O340 Co336 2.004 . S
O340 C345 1.259 . S
Co341 O342 2.061 . S
Co341 O347 2.052 . S
Co341 O349 2.135 . S
O342 Co341 2.061 . S
O342 C345 1.235 . S
C343 O346 1.238 . S
C343 O347 1.241 . S
C344 O337 1.247 . S
C344 O338 1.261 . S
C345 O340 1.259 . S
C345 O342 1.235 . S
O346 Co336 2.021 . S
O346 C343 1.238 . S
O347 Co341 2.052 . S
O347 C343 1.241 . S
O348 Co336 2.137 . S
O348 C339 1.247 . S
O349 Co336 2.244 . S
O349 C339 1.272 . S
O349 Co341 2.135 . S
Co350 O351 2.216 . S
Co350 O352 2.091 . S
Co350 O354 2.004 . S
Co350 O360 2.021 . S
Co350 O362 2.137 . S
Co350 O363 2.244 . S
O351 Co350 2.216 . S
O351 C358 1.247 . S
O352 Co350 2.091 . S
O352 C358 1.261 . S
C353 O362 1.247 . S
C353 O363 1.272 . S
O354 Co350 2.004 . S
O354 C359 1.259 . S
Co355 O356 2.061 . S
Co355 O361 2.052 . S
Co355 O363 2.135 . S
O356 Co355 2.061 . S
O356 C359 1.235 . S
C357 O360 1.238 . S
C357 O361 1.241 . S
C358 O351 1.247 . S
C358 O352 1.261 . S
C359 O354 1.259 . S
C359 O356 1.235 . S
O360 Co350 2.021 . S
O360 C357 1.238 . S
O361 Co355 2.052 . S
O361 C357 1.241 . S
O362 Co350 2.137 . S
O362 C353 1.247 . S
O363 Co350 2.244 . S
O363 C353 1.272 . S
O363 Co355 2.135 . S
Co364 O365 2.216 . S
Co364 O366 2.091 . S
Co364 O368 2.004 . S
Co364 O374 2.021 . S
Co364 O376 2.137 . S
Co364 O377 2.244 . S
O365 Co364 2.216 . S
O365 C372 1.247 . S
O366 Co364 2.091 . S
O366 C372 1.261 . S
C367 O376 1.247 . S
C367 O377 1.272 . S
O368 Co364 2.004 . S
O368 C373 1.259 . S
Co369 O370 2.061 . S
Co369 O375 2.052 . S
Co369 O377 2.135 . S
O370 Co369 2.061 . S
O370 C373 1.235 . S
C371 O374 1.238 . S
C371 O375 1.241 . S
C372 O365 1.247 . S
C372 O366 1.261 . S
C373 O368 1.259 . S
C373 O370 1.235 . S
O374 Co364 2.021 . S
O374 C371 1.238 . S
O375 Co369 2.052 . S
O375 C371 1.241 . S
O376 Co364 2.137 . S
O376 C367 1.247 . S
O377 Co364 2.244 . S
O377 C367 1.272 . S
O377 Co369 2.135 . S
Co378 O379 2.216 1_556 S
Co378 O380 2.091 1_556 S
Co378 O382 2.004 . S
Co378 O388 2.021 1_546 S
Co378 O390 2.137 . S
Co378 O391 2.244 1_545 S
O379 Co378 2.216 1_554 S
O379 C386 1.247 . S
O380 Co378 2.091 1_554 S
O380 C386 1.261 . S
C381 O390 1.247 1_565 S
C381 O391 1.272 . S
O382 Co378 2.004 . S
O382 C387 1.259 . S
Co383 O384 2.061 . S
Co383 O389 2.052 1_556 S
Co383 O391 2.135 . S
O384 Co383 2.061 . S
O384 C387 1.235 1_565 S
C385 O388 1.238 . S
C385 O389 1.241 . S
C386 O379 1.247 . S
C386 O380 1.261 . S
C387 O382 1.259 . S
C387 O384 1.235 1_545 S
O388 Co378 2.021 1_564 S
O388 C385 1.238 . S
O389 Co383 2.052 1_554 S
O389 C385 1.241 . S
O390 Co378 2.137 . S
O390 C381 1.247 1_545 S
O391 Co378 2.244 1_565 S
O391 C381 1.272 . S
O391 Co383 2.135 . S
Co392 O393 2.216 . S
Co392 O394 2.091 . S
Co392 O396 2.004 1_556 S
Co392 O402 2.021 . S
Co392 O404 2.137 . S
Co392 O405 2.244 1_556 S
O393 Co392 2.216 . S
O393 C400 1.247 . S
O394 Co392 2.091 . S
O394 C400 1.261 . S
C395 O404 1.247 1_554 S
C395 O405 1.272 . S
O396 Co392 2.004 1_554 S
O396 C401 1.259 . S
Co397 O398 2.061 . S
Co397 O403 2.052 . S
Co397 O405 2.135 . S
O398 Co397 2.061 . S
O398 C401 1.235 . S
C399 O402 1.238 1_554 S
C399 O403 1.241 . S
C400 O393 1.247 . S
C400 O394 1.261 . S
C401 O396 1.259 . S
C401 O398 1.235 . S
O402 Co392 2.021 . S
O402 C399 1.238 1_556 S
O403 Co397 2.052 . S
O403 C399 1.241 . S
O404 Co392 2.137 . S
O404 C395 1.247 1_556 S
O405 Co392 2.244 1_554 S
O405 C395 1.272 . S
O405 Co397 2.135 . S
Co406 O407 2.216 1_556 S
Co406 O408 2.091 1_556 S
Co406 O410 2.004 . S
Co406 O416 2.021 1_556 S
Co406 O418 2.137 . S
Co406 O419 2.244 . S
O407 Co406 2.216 1_554 S
O407 C414 1.247 . S
O408 Co406 2.091 1_554 S
O408 C414 1.261 . S
C409 O418 1.247 . S
C409 O419 1.272 . S
O410 Co406 2.004 . S
O410 C415 1.259 . S
Co411 O412 2.061 . S
Co411 O417 2.052 1_556 S
Co411 O419 2.135 . S
O412 Co411 2.061 . S
O412 C415 1.235 . S
C413 O416 1.238 . S
C413 O417 1.241 . S
C414 O407 1.247 . S
C414 O408 1.261 . S
C415 O410 1.259 . S
C415 O412 1.235 . S
O416 Co406 2.021 1_554 S
O416 C413 1.238 . S
O417 Co411 2.052 1_554 S
O417 C413 1.241 . S
O418 Co406 2.137 . S
O418 C409 1.247 . S
O419 Co406 2.244 . S
O419 C409 1.272 . S
O419 Co411 2.135 . S
Co420 O421 2.216 1_455 S
Co420 O422 2.091 . S
Co420 O424 2.004 . S
Co420 O430 2.021 . S
Co420 O432 2.137 1_455 S
Co420 O433 2.244 1_455 S
O421 Co420 2.216 1_655 S
O421 C428 1.247 1_655 S
O422 Co420 2.091 . S
O422 C428 1.261 . S
C423 O432 1.247 . S
C423 O433 1.272 . S
O424 Co420 2.004 . S
O424 C429 1.259 . S
Co425 O426 2.061 . S
Co425 O431 2.052 . S
Co425 O433 2.135 . S
O426 Co425 2.061 . S
O426 C429 1.235 1_655 S
C427 O430 1.238 1_655 S
C427 O431 1.241 . S
C428 O421 1.247 1_455 S
C428 O422 1.261 . S
C429 O424 1.259 . S
C429 O426 1.235 1_455 S
O430 Co420 2.021 . S
O430 C427 1.238 1_455 S
O431 Co425 2.052 . S
O431 C427 1.241 . S
O432 Co420 2.137 1_655 S
O432 C423 1.247 . S
O433 Co420 2.244 1_655 S
O433 C423 1.272 . S
O433 Co425 2.135 . S
Co434 O435 2.216 . S
Co434 O436 2.091 . S
Co434 O438 2.004 . S
Co434 O444 2.021 . S
Co434 O446 2.137 . S
Co434 O447 2.244 . S
O435 Co434 2.216 . S
O435 C442 1.247 . S
O436 Co434 2.091 . S
O436 C442 1.261 . S
C437 O446 1.247 . S
C437 O447 1.272 . S
O438 Co434 2.004 . S
O438 C443 1.259 . S
Co439 O440 2.061 . S
Co439 O445 2.052 . S
Co439 O447 2.135 . S
O440 Co439 2.061 . S
O440 C443 1.235 . S
C441 O444 1.238 . S
C441 O445 1.241 . S
C442 O435 1.247 . S
C442 O436 1.261 . S
C443 O438 1.259 . S
C443 O440 1.235 . S
O444 Co434 2.021 . S
O444 C441 1.238 . S
O445 Co439 2.052 . S
O445 C441 1.241 . S
O446 Co434 2.137 . S
O446 C437 1.247 . S
O447 Co434 2.244 . S
O447 C437 1.272 . S
O447 Co439 2.135 . S
Co448 O449 2.216 . S
Co448 O450 2.091 . S
Co448 O452 2.004 . S
Co448 O458 2.021 . S
Co448 O460 2.137 . S
Co448 O461 2.244 . S
O449 Co448 2.216 . S
O449 C456 1.247 . S
O450 Co448 2.091 . S
O450 C456 1.261 . S
C451 O460 1.247 . S
C451 O461 1.272 . S
O452 Co448 2.004 . S
O452 C457 1.259 . S
Co453 O454 2.061 . S
Co453 O459 2.052 . S
Co453 O461 2.135 . S
O454 Co453 2.061 . S
O454 C457 1.235 . S
C455 O458 1.238 . S
C455 O459 1.241 . S
C456 O449 1.247 . S
C456 O450 1.261 . S
C457 O452 1.259 . S
C457 O454 1.235 . S
O458 Co448 2.021 . S
O458 C455 1.238 . S
O459 Co453 2.052 . S
O459 C455 1.241 . S
O460 Co448 2.137 . S
O460 C451 1.247 . S
O461 Co448 2.244 . S
O461 C451 1.272 . S
O461 Co453 2.135 . S
Co462 O463 2.216 . S
Co462 O464 2.091 . S
Co462 O466 2.004 . S
Co462 O472 2.021 . S
Co462 O474 2.137 . S
Co462 O475 2.244 . S
O463 Co462 2.216 . S
O463 C470 1.247 . S
O464 Co462 2.091 . S
O464 C470 1.261 . S
C465 O474 1.247 . S
C465 O475 1.272 . S
O466 Co462 2.004 . S
O466 C471 1.259 . S
Co467 O468 2.061 . S
Co467 O473 2.052 . S
Co467 O475 2.135 . S
O468 Co467 2.061 . S
O468 C471 1.235 . S
C469 O472 1.238 . S
C469 O473 1.241 . S
C470 O463 1.247 . S
C470 O464 1.261 . S
C471 O466 1.259 . S
C471 O468 1.235 . S
O472 Co462 2.021 . S
O472 C469 1.238 . S
O473 Co467 2.052 . S
O473 C469 1.241 . S
O474 Co462 2.137 . S
O474 C465 1.247 . S
O475 Co462 2.244 . S
O475 C465 1.272 . S
O475 Co467 2.135 . S
Co476 O477 2.216 . S
Co476 O478 2.091 . S
Co476 O480 2.004 . S
Co476 O486 2.021 . S
Co476 O488 2.137 . S
Co476 O489 2.244 . S
O477 Co476 2.216 . S
O477 C484 1.247 . S
O478 Co476 2.091 . S
O478 C484 1.261 . S
C479 O488 1.247 . S
C479 O489 1.272 . S
O480 Co476 2.004 . S
O480 C485 1.259 . S
Co481 O482 2.061 . S
Co481 O487 2.052 . S
Co481 O489 2.135 . S
O482 Co481 2.061 . S
O482 C485 1.235 . S
C483 O486 1.238 . S
C483 O487 1.241 . S
C484 O477 1.247 . S
C484 O478 1.261 . S
C485 O480 1.259 . S
C485 O482 1.235 . S
O486 Co476 2.021 . S
O486 C483 1.238 . S
O487 Co481 2.052 . S
O487 C483 1.241 . S
O488 Co476 2.137 . S
O488 C479 1.247 . S
O489 Co476 2.244 . S
O489 C479 1.272 . S
O489 Co481 2.135 . S
Co490 O491 2.216 . S
Co490 O492 2.091 . S
Co490 O494 2.004 . S
Co490 O500 2.021 . S
Co490 O502 2.137 . S
Co490 O503 2.244 . S
O491 Co490 2.216 . S
O491 C498 1.247 . S
O492 Co490 2.091 . S
O492 C498 1.261 . S
C493 O502 1.247 . S
C493 O503 1.272 . S
O494 Co490 2.004 . S
O494 C499 1.259 . S
Co495 O496 2.061 . S
Co495 O501 2.052 . S
Co495 O503 2.135 . S
O496 Co495 2.061 . S
O496 C499 1.235 . S
C497 O500 1.238 . S
C497 O501 1.241 . S
C498 O491 1.247 . S
C498 O492 1.261 . S
C499 O494 1.259 . S
C499 O496 1.235 . S
O500 Co490 2.021 . S
O500 C497 1.238 . S
O501 Co495 2.052 . S
O501 C497 1.241 . S
O502 Co490 2.137 . S
O502 C493 1.247 . S
O503 Co490 2.244 . S
O503 C493 1.272 . S
O503 Co495 2.135 . S
C504 C505 1.349 . S
C504 C506 1.327 . S
C504 H529 0.950 . S
C505 C504 1.349 . S
C505 C521 1.349 . S
C506 C504 1.327 . S
C506 C525 1.429 . S
C506 H530 0.950 . S
C507 C524 1.574 . S
C507 C526 1.368 . S
C507 H531 0.949 . S
H508 C512 0.949 . S
C509 C510 1.349 . S
C509 C511 1.327 . S
C509 H532 0.950 . S
C510 C509 1.349 . S
C510 C522 1.349 . S
C511 C509 1.327 . S
C511 C527 1.429 . S
C511 H533 0.950 . S
C512 H508 0.949 . S
C512 C520 1.574 . S
C512 C528 1.368 . S
H513 C521 0.950 . S
H514 C519 0.950 . S
H515 C520 0.949 . S
H516 C522 0.950 . S
H517 C523 0.950 . S
H518 C524 0.949 . S
C519 H514 0.950 . S
C519 C521 1.327 . S
C519 C525 1.429 . S
C520 C512 1.574 . S
C520 H515 0.949 . S
C520 C526 1.368 . S
C521 C505 1.349 . S
C521 H513 0.950 . S
C521 C519 1.327 . S
C522 C510 1.349 . S
C522 H516 0.950 . S
C522 C523 1.327 . S
C523 H517 0.950 . S
C523 C522 1.327 . S
C523 C527 1.429 . S
C524 C507 1.574 . S
C524 H518 0.949 . S
C524 C528 1.368 . S
C525 C506 1.429 . S
C525 C519 1.429 . S
C525 C526 1.523 . S
C526 C507 1.368 . S
C526 C520 1.368 . S
C526 C525 1.523 . S
C527 C511 1.429 . S
C527 C523 1.429 . S
C527 C528 1.523 . S
C528 C512 1.368 . S
C528 C524 1.368 . S
C528 C527 1.523 . S
H529 C504 0.950 . S
H530 C506 0.950 . S
H531 C507 0.949 . S
H532 C509 0.950 . S
H533 C511 0.950 . S
C534 C535 1.349 . S
C534 C536 1.327 . S
C534 H559 0.950 . S
C535 C534 1.349 . S
C535 C551 1.349 . S
C536 C534 1.327 . S
C536 C555 1.429 . S
C536 H560 0.950 . S
C537 C554 1.574 . S
C537 C556 1.368 . S
C537 H561 0.949 . S
H538 C542 0.949 . S
C539 C540 1.349 . S
C539 C541 1.327 . S
C539 H562 0.950 . S
C540 C539 1.349 . S
C540 C552 1.349 . S
C541 C539 1.327 . S
C541 C557 1.429 . S
C541 H563 0.950 . S
C542 H538 0.949 . S
C542 C550 1.574 . S
C542 C558 1.368 . S
H543 C551 0.950 . S
H544 C549 0.950 . S
H545 C550 0.949 . S
H546 C552 0.950 . S
H547 C553 0.950 . S
H548 C554 0.949 . S
C549 H544 0.950 . S
C549 C551 1.327 . S
C549 C555 1.429 . S
C550 C542 1.574 . S
C550 H545 0.949 . S
C550 C556 1.368 . S
C551 C535 1.349 . S
C551 H543 0.950 . S
C551 C549 1.327 . S
C552 C540 1.349 . S
C552 H546 0.950 . S
C552 C553 1.327 . S
C553 H547 0.950 . S
C553 C552 1.327 . S
C553 C557 1.429 . S
C554 C537 1.574 . S
C554 H548 0.949 . S
C554 C558 1.368 . S
C555 C536 1.429 . S
C555 C549 1.429 . S
C555 C556 1.523 . S
C556 C537 1.368 . S
C556 C550 1.368 . S
C556 C555 1.523 . S
C557 C541 1.429 . S
C557 C553 1.429 . S
C557 C558 1.523 . S
C558 C542 1.368 . S
C558 C554 1.368 . S
C558 C557 1.523 . S
H559 C534 0.950 . S
H560 C536 0.950 . S
H561 C537 0.949 . S
H562 C539 0.950 . S
H563 C541 0.950 . S
C564 C565 1.349 . S
C564 C566 1.327 . S
C564 H589 0.950 . S
C565 C564 1.349 . S
C565 C581 1.349 . S
C566 C564 1.327 . S
C566 C585 1.429 . S
C566 H590 0.950 . S
C567 C584 1.574 . S
C567 C586 1.368 . S
C567 H591 0.949 . S
H568 C572 0.949 . S
C569 C570 1.349 . S
C569 C571 1.327 . S
C569 H592 0.950 . S
C570 C569 1.349 . S
C570 C582 1.349 . S
C571 C569 1.327 . S
C571 C587 1.429 . S
C571 H593 0.950 . S
C572 H568 0.949 . S
C572 C580 1.574 . S
C572 C588 1.368 . S
H573 C581 0.950 . S
H574 C579 0.950 . S
H575 C580 0.949 . S
H576 C582 0.950 . S
H577 C583 0.950 . S
H578 C584 0.949 . S
C579 H574 0.950 . S
C579 C581 1.327 . S
C579 C585 1.429 . S
C580 C572 1.574 . S
C580 H575 0.949 . S
C580 C586 1.368 . S
C581 C565 1.349 . S
C581 H573 0.950 . S
C581 C579 1.327 . S
C582 C570 1.349 . S
C582 H576 0.950 . S
C582 C583 1.327 . S
C583 H577 0.950 . S
C583 C582 1.327 . S
C583 C587 1.429 . S
C584 C567 1.574 . S
C584 H578 0.949 . S
C584 C588 1.368 . S
C585 C566 1.429 . S
C585 C579 1.429 . S
C585 C586 1.523 . S
C586 C567 1.368 . S
C586 C580 1.368 . S
C586 C585 1.523 . S
C587 C571 1.429 . S
C587 C583 1.429 . S
C587 C588 1.523 . S
C588 C572 1.368 . S
C588 C584 1.368 . S
C588 C587 1.523 . S
H589 C564 0.950 . S
H590 C566 0.950 . S
H591 C567 0.949 . S
H592 C569 0.950 . S
H593 C571 0.950 . S
C594 C595 1.349 . S
C594 C596 1.327 . S
C594 H619 0.950 . S
C595 C594 1.349 . S
C595 C611 1.349 . S
C596 C594 1.327 . S
C596 C615 1.429 1_556 S
C596 H620 0.950 . S
C597 C614 1.574 . S
C597 C616 1.368 . S
C597 H621 0.949 . S
H598 C602 0.949 . S
C599 C600 1.349 . S
C599 C601 1.327 . S
C599 H622 0.950 . S
C600 C599 1.349 . S
C600 C612 1.349 . S
C601 C599 1.327 . S
C601 C617 1.429 . S
C601 H623 0.950 . S
C602 H598 0.949 . S
C602 C610 1.574 . S
C602 C618 1.368 . S
H603 C611 0.950 . S
H604 C609 0.950 1_554 S
H605 C610 0.949 . S
H606 C612 0.950 . S
H607 C613 0.950 . S
H608 C614 0.949 . S
C609 H604 0.950 1_556 S
C609 C611 1.327 . S
C609 C615 1.429 1_556 S
C610 C602 1.574 . S
C610 H605 0.949 . S
C610 C616 1.368 . S
C611 C595 1.349 . S
C611 H603 0.950 . S
C611 C609 1.327 . S
C612 C600 1.349 . S
C612 H606 0.950 . S
C612 C613 1.327 . S
C613 H607 0.950 . S
C613 C612 1.327 . S
C613 C617 1.429 . S
C614 C597 1.574 . S
C614 H608 0.949 . S
C614 C618 1.368 . S
C615 C596 1.429 1_554 S
C615 C609 1.429 1_554 S
C615 C616 1.523 . S
C616 C597 1.368 . S
C616 C610 1.368 . S
C616 C615 1.523 . S
C617 C601 1.429 . S
C617 C613 1.429 . S
C617 C618 1.523 . S
C618 C602 1.368 . S
C618 C614 1.368 . S
C618 C617 1.523 . S
H619 C594 0.950 . S
H620 C596 0.950 . S
H621 C597 0.949 . S
H622 C599 0.950 . S
H623 C601 0.950 . S
C624 C625 1.349 . S
C624 C626 1.327 . S
C624 H649 0.950 . S
C625 C624 1.349 . S
C625 C641 1.349 . S
C626 C624 1.327 . S
C626 C645 1.429 . S
C626 H650 0.950 . S
C627 C644 1.574 . S
C627 C646 1.368 . S
C627 H651 0.949 . S
H628 C632 0.949 . S
C629 C630 1.349 . S
C629 C631 1.327 . S
C629 H652 0.950 . S
C630 C629 1.349 . S
C630 C642 1.349 . S
C631 C629 1.327 . S
C631 C647 1.429 . S
C631 H653 0.950 . S
C632 H628 0.949 . S
C632 C640 1.574 . S
C632 C648 1.368 . S
H633 C641 0.950 . S
H634 C639 0.950 . S
H635 C640 0.949 . S
H636 C642 0.950 . S
H637 C643 0.950 . S
H638 C644 0.949 . S
C639 H634 0.950 . S
C639 C641 1.327 . S
C639 C645 1.429 . S
C640 C632 1.574 . S
C640 H635 0.949 . S
C640 C646 1.368 . S
C641 C625 1.349 . S
C641 H633 0.950 . S
C641 C639 1.327 . S
C642 C630 1.349 . S
C642 H636 0.950 . S
C642 C643 1.327 . S
C643 H637 0.950 . S
C643 C642 1.327 . S
C643 C647 1.429 . S
C644 C627 1.574 . S
C644 H638 0.949 . S
C644 C648 1.368 . S
C645 C626 1.429 . S
C645 C639 1.429 . S
C645 C646 1.523 . S
C646 C627 1.368 . S
C646 C640 1.368 . S
C646 C645 1.523 . S
C647 C631 1.429 . S
C647 C643 1.429 . S
C647 C648 1.523 1_556 S
C648 C632 1.368 . S
C648 C644 1.368 . S
C648 C647 1.523 1_554 S
H649 C624 0.950 . S
H650 C626 0.950 . S
H651 C627 0.949 . S
H652 C629 0.950 . S
H653 C631 0.950 . S
C654 C655 1.349 . S
C654 C656 1.327 . S
C654 H679 0.950 . S
C655 C654 1.349 . S
C655 C671 1.349 . S
C656 C654 1.327 . S
C656 C675 1.429 . S
C656 H680 0.950 . S
C657 C674 1.574 . S
C657 C676 1.368 . S
C657 H681 0.949 . S
H658 C662 0.949 . S
C659 C660 1.349 . S
C659 C661 1.327 . S
C659 H682 0.950 . S
C660 C659 1.349 . S
C660 C672 1.349 . S
C661 C659 1.327 . S
C661 C677 1.429 1_556 S
C661 H683 0.944 1_556 S
C662 H658 0.949 . S
C662 C670 1.574 . S
C662 C678 1.368 . S
H663 C671 0.950 . S
H664 C669 0.950 . S
H665 C670 0.949 . S
H666 C672 0.950 . S
H667 C673 0.947 1_554 S
H668 C674 0.949 . S
C669 H664 0.950 . S
C669 C671 1.327 . S
C669 C675 1.429 . S
C670 C662 1.574 . S
C670 H665 0.949 . S
C670 C676 1.368 . S
C671 C655 1.349 . S
C671 H663 0.950 . S
C671 C669 1.327 . S
C672 C660 1.349 . S
C672 H666 0.950 . S
C672 C673 1.327 . S
C673 H667 0.947 1_556 S
C673 C672 1.327 . S
C673 C677 1.429 1_556 S
C674 C657 1.574 . S
C674 H668 0.949 . S
C674 C678 1.368 . S
C675 C656 1.429 . S
C675 C669 1.429 . S
C675 C676 1.523 . S
C676 C657 1.368 . S
C676 C670 1.368 . S
C676 C675 1.523 . S
C677 C661 1.429 1_554 S
C677 C673 1.429 1_554 S
C677 C678 1.523 . S
C678 C662 1.368 . S
C678 C674 1.368 . S
C678 C677 1.523 . S
H679 C654 0.950 . S
H680 C656 0.950 . S
H681 C657 0.949 . S
H682 C659 0.950 . S
H683 C661 0.944 1_554 S
C684 C685 1.349 . S
C684 C686 1.327 . S
C684 H709 0.950 . S
C685 C684 1.349 . S
C685 C701 1.349 . S
C686 C684 1.327 . S
C686 C705 1.429 . S
C686 H710 0.950 . S
C687 C704 1.574 . S
C687 C706 1.368 . S
C687 H711 0.949 . S
H688 C692 0.949 . S
C689 C690 1.349 . S
C689 C691 1.327 . S
C689 H712 0.950 . S
C690 C689 1.349 . S
C690 C702 1.349 . S
C691 C689 1.327 . S
C691 C707 1.429 . S
C691 H713 0.950 . S
C692 H688 0.949 . S
C692 C700 1.574 . S
C692 C708 1.368 . S
H693 C701 0.950 . S
H694 C699 0.950 . S
H695 C700 0.949 . S
H696 C702 0.950 . S
H697 C703 0.950 . S
H698 C704 0.949 . S
C699 H694 0.950 . S
C699 C701 1.327 . S
C699 C705 1.429 . S
C700 C692 1.574 . S
C700 H695 0.949 . S
C700 C706 1.368 . S
C701 C685 1.349 . S
C701 H693 0.950 . S
C701 C699 1.327 . S
C702 C690 1.349 . S
C702 H696 0.950 . S
C702 C703 1.327 . S
C703 H697 0.950 . S
C703 C702 1.327 . S
C703 C707 1.429 . S
C704 C687 1.574 . S
C704 H698 0.949 . S
C704 C708 1.368 . S
C705 C686 1.429 . S
C705 C699 1.429 . S
C705 C706 1.523 . S
C706 C687 1.368 . S
C706 C700 1.368 . S
C706 C705 1.523 . S
C707 C691 1.429 . S
C707 C703 1.429 . S
C707 C708 1.523 . S
C708 C692 1.368 . S
C708 C704 1.368 . S
C708 C707 1.523 . S
H709 C684 0.950 . S
H710 C686 0.950 . S
H711 C687 0.949 . S
H712 C689 0.950 . S
H713 C691 0.950 . S
C714 C715 1.349 . S
C714 C716 1.327 . S
C714 H739 0.950 . S
C715 C714 1.349 . S
C715 C731 1.349 . S
C716 C714 1.327 . S
C716 C735 1.429 . S
C716 H740 0.950 . S
C717 C734 1.574 . S
C717 C736 1.368 . S
C717 H741 0.949 . S
H718 C722 0.949 . S
C719 C720 1.349 . S
C719 C721 1.327 . S
C719 H742 0.950 . S
C720 C719 1.349 . S
C720 C732 1.349 . S
C721 C719 1.327 . S
C721 C737 1.429 . S
C721 H743 0.950 . S
C722 H718 0.949 . S
C722 C730 1.574 . S
C722 C738 1.368 . S
H723 C731 0.950 . S
H724 C729 0.950 . S
H725 C730 0.949 . S
H726 C732 0.950 . S
H727 C733 0.950 . S
H728 C734 0.949 . S
C729 H724 0.950 . S
C729 C731 1.327 . S
C729 C735 1.429 . S
C730 C722 1.574 . S
C730 H725 0.949 . S
C730 C736 1.368 . S
C731 C715 1.349 . S
C731 H723 0.950 . S
C731 C729 1.327 . S
C732 C720 1.349 . S
C732 H726 0.950 . S
C732 C733 1.327 . S
C733 H727 0.950 . S
C733 C732 1.327 . S
C733 C737 1.429 . S
C734 C717 1.574 . S
C734 H728 0.949 . S
C734 C738 1.368 . S
C735 C716 1.429 . S
C735 C729 1.429 . S
C735 C736 1.523 . S
C736 C717 1.368 . S
C736 C730 1.368 . S
C736 C735 1.523 . S
C737 C721 1.429 . S
C737 C733 1.429 . S
C737 C738 1.523 . S
C738 C722 1.368 . S
C738 C734 1.368 . S
C738 C737 1.523 . S
H739 C714 0.950 . S
H740 C716 0.950 . S
H741 C717 0.949 . S
H742 C719 0.950 . S
H743 C721 0.950 . S
C744 C745 1.349 . S
C744 C746 1.327 . S
C744 H769 0.950 . S
C745 C744 1.349 . S
C745 C761 1.349 . S
C746 C744 1.327 . S
C746 C765 1.429 . S
C746 H770 0.950 . S
C747 C764 1.574 . S
C747 C766 1.368 . S
C747 H771 0.949 . S
H748 C752 0.949 . S
C749 C750 1.349 . S
C749 C751 1.327 . S
C749 H772 0.950 . S
C750 C749 1.349 . S
C750 C762 1.349 . S
C751 C749 1.327 . S
C751 C767 1.429 . S
C751 H773 0.950 . S
C752 H748 0.949 . S
C752 C760 1.574 . S
C752 C768 1.368 . S
H753 C761 0.950 . S
H754 C759 0.950 . S
H755 C760 0.949 . S
H756 C762 0.950 . S
H757 C763 0.950 . S
H758 C764 0.949 . S
C759 H754 0.950 . S
C759 C761 1.327 . S
C759 C765 1.429 . S
C760 C752 1.574 . S
C760 H755 0.949 . S
C760 C766 1.368 . S
C761 C745 1.349 . S
C761 H753 0.950 . S
C761 C759 1.327 . S
C762 C750 1.349 . S
C762 H756 0.950 . S
C762 C763 1.327 . S
C763 H757 0.950 . S
C763 C762 1.327 . S
C763 C767 1.429 . S
C764 C747 1.574 . S
C764 H758 0.949 . S
C764 C768 1.368 . S
C765 C746 1.429 . S
C765 C759 1.429 . S
C765 C766 1.523 . S
C766 C747 1.368 . S
C766 C760 1.368 . S
C766 C765 1.523 . S
C767 C751 1.429 . S
C767 C763 1.429 . S
C767 C768 1.523 . S
C768 C752 1.368 . S
C768 C764 1.368 . S
C768 C767 1.523 . S
H769 C744 0.950 . S
H770 C746 0.950 . S
H771 C747 0.949 . S
H772 C749 0.950 . S
H773 C751 0.950 . S
C774 C775 1.349 . S
C774 C776 1.327 . S
C774 H799 0.950 . S
C775 C774 1.349 . S
C775 C791 1.349 . S
C776 C774 1.327 . S
C776 C795 1.429 . S
C776 H800 0.950 . S
C777 C794 1.574 . S
C777 C796 1.368 . S
C777 H801 0.949 . S
H778 C782 0.949 . S
C779 C780 1.349 . S
C779 C781 1.327 . S
C779 H802 0.950 . S
C780 C779 1.349 . S
C780 C792 1.349 . S
C781 C779 1.327 . S
C781 C797 1.429 1_554 S
C781 H803 0.950 1_554 S
C782 H778 0.949 . S
C782 C790 1.574 . S
C782 C798 1.368 . S
H783 C791 0.950 . S
H784 C789 0.950 . S
H785 C790 0.949 . S
H786 C792 0.950 . S
H787 C793 0.950 . S
H788 C794 0.949 . S
C789 H784 0.950 . S
C789 C791 1.327 . S
C789 C795 1.429 . S
C790 C782 1.574 . S
C790 H785 0.949 . S
C790 C796 1.368 . S
C791 C775 1.349 . S
C791 H783 0.950 . S
C791 C789 1.327 . S
C792 C780 1.349 . S
C792 H786 0.950 . S
C792 C793 1.327 . S
C793 H787 0.950 . S
C793 C792 1.327 . S
C793 C797 1.429 1_554 S
C794 C777 1.574 . S
C794 H788 0.949 . S
C794 C798 1.368 . S
C795 C776 1.429 . S
C795 C789 1.429 . S
C795 C796 1.523 . S
C796 C777 1.368 . S
C796 C790 1.368 . S
C796 C795 1.523 . S
C797 C781 1.429 1_556 S
C797 C793 1.429 1_556 S
C797 C798 1.523 . S
C798 C782 1.368 . S
C798 C794 1.368 . S
C798 C797 1.523 . S
H799 C774 0.950 . S
H800 C776 0.950 . S
H801 C777 0.949 . S
H802 C779 0.950 . S
H803 C781 0.950 1_556 S
C804 C805 1.349 . S
C804 C806 1.327 . S
C804 H829 0.950 . S
C805 C804 1.349 . S
C805 C821 1.349 . S
C806 C804 1.327 . S
C806 C825 1.429 1_554 S
C806 H830 0.950 . S
C807 C824 1.574 . S
C807 C826 1.368 . S
C807 H831 0.949 . S
H808 C812 0.949 . S
C809 C810 1.349 . S
C809 C811 1.327 . S
C809 H832 0.950 . S
C810 C809 1.349 . S
C810 C822 1.349 . S
C811 C809 1.327 . S
C811 C827 1.429 . S
C811 H833 0.950 . S
C812 H808 0.949 . S
C812 C820 1.574 . S
C812 C828 1.368 . S
H813 C821 0.950 . S
H814 C819 0.950 . S
H815 C820 0.949 . S
H816 C822 0.950 . S
H817 C823 0.950 . S
H818 C824 0.949 . S
C819 H814 0.950 . S
C819 C821 1.327 . S
C819 C825 1.429 1_554 S
C820 C812 1.574 . S
C820 H815 0.949 . S
C820 C826 1.368 . S
C821 C805 1.349 . S
C821 H813 0.950 . S
C821 C819 1.327 . S
C822 C810 1.349 . S
C822 H816 0.950 . S
C822 C823 1.327 . S
C823 H817 0.950 . S
C823 C822 1.327 . S
C823 C827 1.429 . S
C824 C807 1.574 . S
C824 H818 0.949 . S
C824 C828 1.368 . S
C825 C806 1.429 1_556 S
C825 C819 1.429 1_556 S
C825 C826 1.523 . S
C826 C807 1.368 . S
C826 C820 1.368 . S
C826 C825 1.523 . S
C827 C811 1.429 . S
C827 C823 1.429 . S
C827 C828 1.523 . S
C828 C812 1.368 . S
C828 C824 1.368 . S
C828 C827 1.523 . S
H829 C804 0.950 . S
H830 C806 0.950 . S
H831 C807 0.949 . S
H832 C809 0.950 . S
H833 C811 0.950 . S
C834 C835 1.349 . S
C834 C836 1.327 . S
C834 H859 0.950 . S
C835 C834 1.349 . S
C835 C851 1.349 . S
C836 C834 1.327 . S
C836 C855 1.429 . S
C836 H860 0.950 . S
C837 C854 1.574 . S
C837 C856 1.368 . S
C837 H861 0.949 . S
H838 C842 0.949 . S
C839 C840 1.349 . S
C839 C841 1.327 . S
C839 H862 0.950 . S
C840 C839 1.349 . S
C840 C852 1.349 . S
C841 C839 1.327 . S
C841 C857 1.429 . S
C841 H863 0.950 . S
C842 H838 0.949 . S
C842 C850 1.574 . S
C842 C858 1.368 . S
H843 C851 0.950 . S
H844 C849 0.950 . S
H845 C850 0.949 . S
H846 C852 0.950 . S
H847 C853 0.950 . S
H848 C854 0.949 . S
C849 H844 0.950 . S
C849 C851 1.327 . S
C849 C855 1.429 . S
C850 C842 1.574 . S
C850 H845 0.949 . S
C850 C856 1.368 . S
C851 C835 1.349 . S
C851 H843 0.950 . S
C851 C849 1.327 . S
C852 C840 1.349 . S
C852 H846 0.950 . S
C852 C853 1.327 . S
C853 H847 0.950 . S
C853 C852 1.327 . S
C853 C857 1.429 . S
C854 C837 1.574 . S
C854 H848 0.949 . S
C854 C858 1.368 . S
C855 C836 1.429 . S
C855 C849 1.429 . S
C855 C856 1.523 . S
C856 C837 1.368 . S
C856 C850 1.368 . S
C856 C855 1.523 . S
C857 C841 1.429 . S
C857 C853 1.429 . S
C857 C858 1.523 1_554 S
C858 C842 1.368 . S
C858 C854 1.368 . S
C858 C857 1.523 1_556 S
H859 C834 0.950 . S
H860 C836 0.950 . S
H861 C837 0.949 . S
H862 C839 0.950 . S
H863 C841 0.950 . S
C864 C865 1.349 . S
C864 C866 1.327 . S
C864 H889 0.950 . S
C865 C864 1.349 . S
C865 C881 1.349 . S
C866 C864 1.327 . S
C866 C885 1.429 . S
C866 H890 0.950 . S
C867 C884 1.574 . S
C867 C886 1.368 . S
C867 H891 0.949 . S
H868 C872 0.949 . S
C869 C870 1.349 . S
C869 C871 1.327 . S
C869 H892 0.950 1_655 S
C870 C869 1.349 . S
C870 C882 1.349 . S
C871 C869 1.327 . S
C871 C887 1.429 . S
C871 H893 0.965 . S
C872 H868 0.949 . S
C872 C880 1.574 . S
C872 C888 1.368 . S
H873 C881 0.950 . S
H874 C879 0.950 . S
H875 C880 0.949 . S
H876 C882 0.950 . S
H877 C883 0.950 . S
H878 C884 0.949 . S
C879 H874 0.950 . S
C879 C881 1.327 . S
C879 C885 1.429 . S
C880 C872 1.574 . S
C880 H875 0.949 . S
C880 C886 1.368 . S
C881 C865 1.349 . S
C881 H873 0.950 . S
C881 C879 1.327 . S
C882 C870 1.349 . S
C882 H876 0.950 . S
C882 C883 1.327 . S
C883 H877 0.950 . S
C883 C882 1.327 . S
C883 C887 1.429 . S
C884 C867 1.574 . S
C884 H878 0.949 . S
C884 C888 1.368 . S
C885 C866 1.429 . S
C885 C879 1.429 . S
C885 C886 1.523 . S
C886 C867 1.368 . S
C886 C880 1.368 . S
C886 C885 1.523 . S
C887 C871 1.429 . S
C887 C883 1.429 . S
C887 C888 1.523 . S
C888 C872 1.368 . S
C888 C884 1.368 . S
C888 C887 1.523 . S
H889 C864 0.950 . S
H890 C866 0.950 . S
H891 C867 0.949 . S
H892 C869 0.950 1_455 S
H893 C871 0.965 . S
C894 C895 1.349 . S
C894 C896 1.327 . S
C894 H919 0.950 . S
C895 C894 1.349 . S
C895 C911 1.349 . S
C896 C894 1.327 . S
C896 C915 1.429 . S
C896 H920 0.950 . S
C897 C914 1.574 . S
C897 C916 1.368 . S
C897 H921 0.949 . S
H898 C902 0.949 . S
C899 C900 1.349 . S
C899 C901 1.327 . S
C899 H922 0.950 . S
C900 C899 1.349 . S
C900 C912 1.349 . S
C901 C899 1.327 . S
C901 C917 1.429 . S
C901 H923 0.950 . S
C902 H898 0.949 . S
C902 C910 1.574 . S
C902 C918 1.368 . S
H903 C911 0.950 . S
H904 C909 0.950 . S
H905 C910 0.949 . S
H906 C912 0.950 . S
H907 C913 0.950 . S
H908 C914 0.949 . S
C909 H904 0.950 . S
C909 C911 1.327 . S
C909 C915 1.429 . S
C910 C902 1.574 . S
C910 H905 0.949 . S
C910 C916 1.368 . S
C911 C895 1.349 . S
C911 H903 0.950 . S
C911 C909 1.327 . S
C912 C900 1.349 . S
C912 H906 0.950 . S
C912 C913 1.327 . S
C913 H907 0.950 . S
C913 C912 1.327 . S
C913 C917 1.429 . S
C914 C897 1.574 . S
C914 H908 0.949 . S
C914 C918 1.368 . S
C915 C896 1.429 . S
C915 C909 1.429 . S
C915 C916 1.523 . S
C916 C897 1.368 . S
C916 C910 1.368 . S
C916 C915 1.523 . S
C917 C901 1.429 . S
C917 C913 1.429 . S
C917 C918 1.523 . S
C918 C902 1.368 . S
C918 C914 1.368 . S
C918 C917 1.523 . S
H919 C894 0.950 . S
H920 C896 0.950 . S
H921 C897 0.949 . S
H922 C899 0.950 . S
H923 C901 0.950 . S
C924 C925 1.349 . S
C924 C926 1.327 . S
C924 H949 0.950 . S
C925 C924 1.349 . S
C925 C941 1.349 . S
C926 C924 1.327 . S
C926 C945 1.429 . S
C926 H950 0.950 . S
C927 C944 1.574 . S
C927 C946 1.368 . S
C927 H951 0.949 . S
H928 C932 0.949 . S
C929 C930 1.349 . S
C929 C931 1.327 . S
C929 H952 0.950 . S
C930 C929 1.349 . S
C930 C942 1.349 . S
C931 C929 1.327 . S
C931 C947 1.429 . S
C931 H953 0.950 . S
C932 H928 0.949 . S
C932 C940 1.574 . S
C932 C948 1.368 . S
H933 C941 0.950 1_545 S
H934 C939 0.950 . S
H935 C940 0.949 . S
H936 C942 0.950 . S
H937 C943 0.950 . S
H938 C944 0.949 . S
C939 H934 0.950 . S
C939 C941 1.327 . S
C939 C945 1.429 . S
C940 C932 1.574 . S
C940 H935 0.949 . S
C940 C946 1.368 . S
C941 C925 1.349 . S
C941 H933 0.950 1_565 S
C941 C939 1.327 . S
C942 C930 1.349 . S
C942 H936 0.950 . S
C942 C943 1.327 . S
C943 H937 0.950 . S
C943 C942 1.327 . S
C943 C947 1.429 . S
C944 C927 1.574 . S
C944 H938 0.949 . S
C944 C948 1.368 . S
C945 C926 1.429 . S
C945 C939 1.429 . S
C945 C946 1.523 . S
C946 C927 1.368 . S
C946 C940 1.368 . S
C946 C945 1.523 . S
C947 C931 1.429 . S
C947 C943 1.429 . S
C947 C948 1.523 . S
C948 C932 1.368 . S
C948 C944 1.368 . S
C948 C947 1.523 . S
H949 C924 0.950 . S
H950 C926 0.950 . S
H951 C927 0.949 . S
H952 C929 0.950 . S
H953 C931 0.950 . S
C954 C955 1.349 . S
C954 C956 1.327 . S
C954 H979 0.950 . S
C955 C954 1.349 . S
C955 C971 1.349 . S
C956 C954 1.327 . S
C956 C975 1.429 . S
C956 H980 0.950 . S
C957 C974 1.574 . S
C957 C976 1.368 . S
C957 H981 0.949 . S
H958 C962 0.949 . S
C959 C960 1.349 . S
C959 C961 1.327 . S
C959 H982 0.950 . S
C960 C959 1.349 . S
C960 C972 1.349 . S
C961 C959 1.327 . S
C961 C977 1.429 . S
C961 H983 0.950 . S
C962 H958 0.949 . S
C962 C970 1.574 . S
C962 C978 1.368 . S
H963 C971 0.950 . S
H964 C969 0.950 . S
H965 C970 0.949 . S
H966 C972 0.950 1_565 S
H967 C973 0.950 1_565 S
H968 C974 0.949 . S
C969 H964 0.950 . S
C969 C971 1.327 . S
C969 C975 1.429 . S
C970 C962 1.574 . S
C970 H965 0.949 . S
C970 C976 1.368 . S
C971 C955 1.349 . S
C971 H963 0.950 . S
C971 C969 1.327 . S
C972 C960 1.349 . S
C972 H966 0.950 1_545 S
C972 C973 1.327 . S
C973 H967 0.950 1_545 S
C973 C972 1.327 . S
C973 C977 1.429 . S
C974 C957 1.574 . S
C974 H968 0.949 . S
C974 C978 1.368 . S
C975 C956 1.429 . S
C975 C969 1.429 . S
C975 C976 1.523 . S
C976 C957 1.368 . S
C976 C970 1.368 . S
C976 C975 1.523 . S
C977 C961 1.429 . S
C977 C973 1.429 . S
C977 C978 1.523 . S
C978 C962 1.368 . S
C978 C974 1.368 . S
C978 C977 1.523 . S
H979 C954 0.950 . S
H980 C956 0.950 . S
H981 C957 0.949 . S
H982 C959 0.950 . S
H983 C961 0.950 . S
C984 C985 1.349 . S
C984 C986 1.327 . S
C984 H1009 0.950 . S
C985 C984 1.349 . S
C985 C1001 1.349 . S
C986 C984 1.327 . S
C986 C1005 1.429 . S
C986 H1010 0.950 . S
C987 C1004 1.574 . S
C987 C1006 1.368 . S
C987 H1011 0.975 . S
H988 C992 0.949 . S
C989 C990 1.349 . S
C989 C991 1.327 . S
C989 H1012 0.950 . S
C990 C989 1.349 . S
C990 C1002 1.349 . S
C991 C989 1.327 . S
C991 C1007 1.429 . S
C991 H1013 0.950 . S
C992 H988 0.949 . S
C992 C1000 1.574 . S
C992 C1008 1.368 . S
H993 C1001 0.950 1_655 S
H994 C999 0.950 1_655 S
H995 C1000 0.949 . S
H996 C1002 0.950 . S
H997 C1003 0.950 . S
H998 C1004 0.949 . S
C999 H994 0.950 1_455 S
C999 C1001 1.327 . S
C999 C1005 1.429 . S
C1000 C992 1.574 . S
C1000 H995 0.949 . S
C1000 C1006 1.368 . S
C1001 C985 1.349 . S
C1001 H993 0.950 1_455 S
C1001 C999 1.327 . S
C1002 C990 1.349 . S
C1002 H996 0.950 . S
C1002 C1003 1.327 . S
C1003 H997 0.950 . S
C1003 C1002 1.327 . S
C1003 C1007 1.429 . S
C1004 C987 1.574 . S
C1004 H998 0.949 . S
C1004 C1008 1.368 . S
C1005 C986 1.429 . S
C1005 C999 1.429 . S
C1005 C1006 1.523 . S
C1006 C987 1.368 . S
C1006 C1000 1.368 . S
C1006 C1005 1.523 . S
C1007 C991 1.429 . S
C1007 C1003 1.429 . S
C1007 C1008 1.523 . S
C1008 C992 1.368 . S
C1008 C1004 1.368 . S
C1008 C1007 1.523 . S
H1009 C984 0.950 . S
H1010 C986 0.950 . S
H1011 C987 0.975 . S
H1012 C989 0.950 . S
H1013 C991 0.950 . S
C1014 C1015 1.349 . S
C1014 C1016 1.327 . S
C1014 H1039 0.950 . S
C1015 C1014 1.349 . S
C1015 C1031 1.349 . S
C1016 C1014 1.327 . S
C1016 C1035 1.429 . S
C1016 H1040 0.950 . S
C1017 C1034 1.574 . S
C1017 C1036 1.368 . S
C1017 H1041 0.949 . S
H1018 C1022 0.949 . S
C1019 C1020 1.349 . S
C1019 C1021 1.327 . S
C1019 H1042 0.950 . S
C1020 C1019 1.349 . S
C1020 C1032 1.349 . S
C1021 C1019 1.327 . S
C1021 C1037 1.429 . S
C1021 H1043 0.950 . S
C1022 H1018 0.949 . S
C1022 C1030 1.574 . S
C1022 C1038 1.368 . S
H1023 C1031 0.950 . S
H1024 C1029 0.950 . S
H1025 C1030 0.949 . S
H1026 C1032 0.950 . S
H1027 C1033 0.950 . S
H1028 C1034 0.949 . S
C1029 H1024 0.950 . S
C1029 C1031 1.327 . S
C1029 C1035 1.429 . S
C1030 C1022 1.574 . S
C1030 H1025 0.949 . S
C1030 C1036 1.368 . S
C1031 C1015 1.349 . S
C1031 H1023 0.950 . S
C1031 C1029 1.327 . S
C1032 C1020 1.349 . S
C1032 H1026 0.950 . S
C1032 C1033 1.327 . S
C1033 H1027 0.950 . S
C1033 C1032 1.327 . S
C1033 C1037 1.429 . S
C1034 C1017 1.574 . S
C1034 H1028 0.949 . S
C1034 C1038 1.368 . S
C1035 C1016 1.429 . S
C1035 C1029 1.429 . S
C1035 C1036 1.523 . S
C1036 C1017 1.368 . S
C1036 C1030 1.368 . S
C1036 C1035 1.523 . S
C1037 C1021 1.429 . S
C1037 C1033 1.429 . S
C1037 C1038 1.523 . S
C1038 C1022 1.368 . S
C1038 C1034 1.368 . S
C1038 C1037 1.523 . S
H1039 C1014 0.950 . S
H1040 C1016 0.950 . S
H1041 C1017 0.949 . S
H1042 C1019 0.950 . S
H1043 C1021 0.950 . S
C1044 C1045 1.349 . S
C1044 C1046 1.327 . S
C1044 H1069 0.950 . S
C1045 C1044 1.349 . S
C1045 C1061 1.349 . S
C1046 C1044 1.327 . S
C1046 C1065 1.429 . S
C1046 H1070 0.950 . S
C1047 C1064 1.574 . S
C1047 C1066 1.368 . S
C1047 H1071 0.949 . S
H1048 C1052 0.949 . S
C1049 C1050 1.349 . S
C1049 C1051 1.327 . S
C1049 H1072 0.950 . S
C1050 C1049 1.349 . S
C1050 C1062 1.349 . S
C1051 C1049 1.327 . S
C1051 C1067 1.429 . S
C1051 H1073 0.950 . S
C1052 H1048 0.949 . S
C1052 C1060 1.574 . S
C1052 C1068 1.368 . S
H1053 C1061 0.950 . S
H1054 C1059 0.950 . S
H1055 C1060 0.949 . S
H1056 C1062 0.950 . S
H1057 C1063 0.950 . S
H1058 C1064 0.949 . S
C1059 H1054 0.950 . S
C1059 C1061 1.327 . S
C1059 C1065 1.429 . S
C1060 C1052 1.574 . S
C1060 H1055 0.949 . S
C1060 C1066 1.368 . S
C1061 C1045 1.349 . S
C1061 H1053 0.950 . S
C1061 C1059 1.327 . S
C1062 C1050 1.349 . S
C1062 H1056 0.950 . S
C1062 C1063 1.327 . S
C1063 H1057 0.950 . S
C1063 C1062 1.327 . S
C1063 C1067 1.429 . S
C1064 C1047 1.574 . S
C1064 H1058 0.949 . S
C1064 C1068 1.368 . S
C1065 C1046 1.429 . S
C1065 C1059 1.429 . S
C1065 C1066 1.523 . S
C1066 C1047 1.368 . S
C1066 C1060 1.368 . S
C1066 C1065 1.523 . S
C1067 C1051 1.429 . S
C1067 C1063 1.429 . S
C1067 C1068 1.523 . S
C1068 C1052 1.368 . S
C1068 C1064 1.368 . S
C1068 C1067 1.523 . S
H1069 C1044 0.950 . S
H1070 C1046 0.950 . S
H1071 C1047 0.949 . S
H1072 C1049 0.950 . S
H1073 C1051 0.950 . S
C1074 C1075 1.349 . S
C1074 C1076 1.327 . S
C1074 H1099 0.950 . S
C1075 C1074 1.349 . S
C1075 C1091 1.349 . S
C1076 C1074 1.327 . S
C1076 C1095 1.429 . S
C1076 H1100 0.950 . S
C1077 C1094 1.574 . S
C1077 C1096 1.368 . S
C1077 H1101 0.949 . S
H1078 C1082 0.949 . S
C1079 C1080 1.349 . S
C1079 C1081 1.327 . S
C1079 H1102 0.950 . S
C1080 C1079 1.349 . S
C1080 C1092 1.349 . S
C1081 C1079 1.327 . S
C1081 C1097 1.429 . S
C1081 H1103 0.950 . S
C1082 H1078 0.949 . S
C1082 C1090 1.574 . S
C1082 C1098 1.368 . S
H1083 C1091 0.950 . S
H1084 C1089 0.950 . S
H1085 C1090 0.949 . S
H1086 C1092 0.950 . S
H1087 C1093 0.950 . S
H1088 C1094 0.949 . S
C1089 H1084 0.950 . S
C1089 C1091 1.327 . S
C1089 C1095 1.429 . S
C1090 C1082 1.574 . S
C1090 H1085 0.949 . S
C1090 C1096 1.368 . S
C1091 C1075 1.349 . S
C1091 H1083 0.950 . S
C1091 C1089 1.327 . S
C1092 C1080 1.349 . S
C1092 H1086 0.950 . S
C1092 C1093 1.327 . S
C1093 H1087 0.950 . S
C1093 C1092 1.327 . S
C1093 C1097 1.429 . S
C1094 C1077 1.574 . S
C1094 H1088 0.949 . S
C1094 C1098 1.368 . S
C1095 C1076 1.429 . S
C1095 C1089 1.429 . S
C1095 C1096 1.523 . S
C1096 C1077 1.368 . S
C1096 C1090 1.368 . S
C1096 C1095 1.523 . S
C1097 C1081 1.429 . S
C1097 C1093 1.429 . S
C1097 C1098 1.523 . S
C1098 C1082 1.368 . S
C1098 C1094 1.368 . S
C1098 C1097 1.523 . S
H1099 C1074 0.950 . S
H1100 C1076 0.950 . S
H1101 C1077 0.949 . S
H1102 C1079 0.950 . S
H1103 C1081 0.950 . S
C1104 C1105 1.349 . S
C1104 C1106 1.327 . S
C1104 H1129 0.950 . S
C1105 C1104 1.349 . S
C1105 C1121 1.349 . S
C1106 C1104 1.327 . S
C1106 C1125 1.429 . S
C1106 H1130 0.950 . S
C1107 C1124 1.574 . S
C1107 C1126 1.368 . S
C1107 H1131 0.949 . S
H1108 C1112 0.949 . S
C1109 C1110 1.349 . S
C1109 C1111 1.327 . S
C1109 H1132 0.950 . S
C1110 C1109 1.349 . S
C1110 C1122 1.349 . S
C1111 C1109 1.327 . S
C1111 C1127 1.429 . S
C1111 H1133 0.950 . S
C1112 H1108 0.949 . S
C1112 C1120 1.574 . S
C1112 C1128 1.368 . S
H1113 C1121 0.950 . S
H1114 C1119 0.950 . S
H1115 C1120 0.949 . S
H1116 C1122 0.950 . S
H1117 C1123 0.950 . S
H1118 C1124 0.949 . S
C1119 H1114 0.950 . S
C1119 C1121 1.327 . S
C1119 C1125 1.429 . S
C1120 C1112 1.574 . S
C1120 H1115 0.949 . S
C1120 C1126 1.368 . S
C1121 C1105 1.349 . S
C1121 H1113 0.950 . S
C1121 C1119 1.327 . S
C1122 C1110 1.349 . S
C1122 H1116 0.950 . S
C1122 C1123 1.327 . S
C1123 H1117 0.950 . S
C1123 C1122 1.327 . S
C1123 C1127 1.429 . S
C1124 C1107 1.574 . S
C1124 H1118 0.949 . S
C1124 C1128 1.368 . S
C1125 C1106 1.429 . S
C1125 C1119 1.429 . S
C1125 C1126 1.523 . S
C1126 C1107 1.368 . S
C1126 C1120 1.368 . S
C1126 C1125 1.523 . S
C1127 C1111 1.429 . S
C1127 C1123 1.429 . S
C1127 C1128 1.523 . S
C1128 C1112 1.368 . S
C1128 C1124 1.368 . S
C1128 C1127 1.523 . S
H1129 C1104 0.950 . S
H1130 C1106 0.950 . S
H1131 C1107 0.949 . S
H1132 C1109 0.950 . S
H1133 C1111 0.950 . S
C1134 C1135 1.349 . S
C1134 C1136 1.327 . S
C1134 H1159 0.950 . S
C1135 C1134 1.349 . S
C1135 C1151 1.349 . S
C1136 C1134 1.327 . S
C1136 C1155 1.429 . S
C1136 H1160 0.950 . S
C1137 C1154 1.574 . S
C1137 C1156 1.368 . S
C1137 H1161 0.949 . S
H1138 C1142 0.949 . S
C1139 C1140 1.349 . S
C1139 C1141 1.327 . S
C1139 H1162 0.950 . S
C1140 C1139 1.349 . S
C1140 C1152 1.349 . S
C1141 C1139 1.327 . S
C1141 C1157 1.429 . S
C1141 H1163 0.950 . S
C1142 H1138 0.949 . S
C1142 C1150 1.574 . S
C1142 C1158 1.368 . S
H1143 C1151 0.950 . S
H1144 C1149 0.950 . S
H1145 C1150 0.949 . S
H1146 C1152 0.950 . S
H1147 C1153 0.950 . S
H1148 C1154 0.949 . S
C1149 H1144 0.950 . S
C1149 C1151 1.327 . S
C1149 C1155 1.429 . S
C1150 C1142 1.574 . S
C1150 H1145 0.949 . S
C1150 C1156 1.368 . S
C1151 C1135 1.349 . S
C1151 H1143 0.950 . S
C1151 C1149 1.327 . S
C1152 C1140 1.349 . S
C1152 H1146 0.950 . S
C1152 C1153 1.327 . S
C1153 H1147 0.950 . S
C1153 C1152 1.327 . S
C1153 C1157 1.429 . S
C1154 C1137 1.574 . S
C1154 H1148 0.949 . S
C1154 C1158 1.368 . S
C1155 C1136 1.429 . S
C1155 C1149 1.429 . S
C1155 C1156 1.523 . S
C1156 C1137 1.368 . S
C1156 C1150 1.368 . S
C1156 C1155 1.523 . S
C1157 C1141 1.429 . S
C1157 C1153 1.429 . S
C1157 C1158 1.523 . S
C1158 C1142 1.368 . S
C1158 C1154 1.368 . S
C1158 C1157 1.523 . S
H1159 C1134 0.950 . S
H1160 C1136 0.950 . S
H1161 C1137 0.949 . S
H1162 C1139 0.950 . S
H1163 C1141 0.950 . S
C1164 C1165 1.349 . S
C1164 C1166 1.327 . S
C1164 H1189 0.950 . S
C1165 C1164 1.349 . S
C1165 C1181 1.349 . S
C1166 C1164 1.327 . S
C1166 C1185 1.429 . S
C1166 H1190 0.950 . S
C1167 C1184 1.574 . S
C1167 C1186 1.368 . S
C1167 H1191 0.949 . S
H1168 C1172 0.949 . S
C1169 C1170 1.349 . S
C1169 C1171 1.327 . S
C1169 H1192 0.950 . S
C1170 C1169 1.349 . S
C1170 C1182 1.349 . S
C1171 C1169 1.327 . S
C1171 C1187 1.429 . S
C1171 H1193 0.950 . S
C1172 H1168 0.949 . S
C1172 C1180 1.574 . S
C1172 C1188 1.368 . S
H1173 C1181 0.950 . S
H1174 C1179 0.950 . S
H1175 C1180 0.949 . S
H1176 C1182 0.950 . S
H1177 C1183 0.950 . S
H1178 C1184 0.949 . S
C1179 H1174 0.950 . S
C1179 C1181 1.327 . S
C1179 C1185 1.429 . S
C1180 C1172 1.574 . S
C1180 H1175 0.949 . S
C1180 C1186 1.368 . S
C1181 C1165 1.349 . S
C1181 H1173 0.950 . S
C1181 C1179 1.327 . S
C1182 C1170 1.349 . S
C1182 H1176 0.950 . S
C1182 C1183 1.327 . S
C1183 H1177 0.950 . S
C1183 C1182 1.327 . S
C1183 C1187 1.429 . S
C1184 C1167 1.574 . S
C1184 H1178 0.949 . S
C1184 C1188 1.368 . S
C1185 C1166 1.429 . S
C1185 C1179 1.429 . S
C1185 C1186 1.523 . S
C1186 C1167 1.368 . S
C1186 C1180 1.368 . S
C1186 C1185 1.523 . S
C1187 C1171 1.429 . S
C1187 C1183 1.429 . S
C1187 C1188 1.523 . S
C1188 C1172 1.368 . S
C1188 C1184 1.368 . S
C1188 C1187 1.523 . S
H1189 C1164 0.950 . S
H1190 C1166 0.950 . S
H1191 C1167 0.949 . S
H1192 C1169 0.950 . S
H1193 C1171 0.950 . S
C1194 C1195 1.349 . S
C1194 C1196 1.327 . S
C1194 H1219 0.950 . S
C1195 C1194 1.349 . S
C1195 C1211 1.349 . S
C1196 C1194 1.327 . S
C1196 C1215 1.429 . S
C1196 H1220 0.950 . S
C1197 C1214 1.574 . S
C1197 C1216 1.368 . S
C1197 H1221 0.949 . S
H1198 C1202 0.949 . S
C1199 C1200 1.349 . S
C1199 C1201 1.327 . S
C1199 H1222 0.950 . S
C1200 C1199 1.349 . S
C1200 C1212 1.349 . S
C1201 C1199 1.327 . S
C1201 C1217 1.429 . S
C1201 H1223 0.950 . S
C1202 H1198 0.949 . S
C1202 C1210 1.574 . S
C1202 C1218 1.368 . S
H1203 C1211 0.950 . S
H1204 C1209 0.950 . S
H1205 C1210 0.949 . S
H1206 C1212 0.950 . S
H1207 C1213 0.950 . S
H1208 C1214 0.949 . S
C1209 H1204 0.950 . S
C1209 C1211 1.327 . S
C1209 C1215 1.429 . S
C1210 C1202 1.574 . S
C1210 H1205 0.949 . S
C1210 C1216 1.368 . S
C1211 C1195 1.349 . S
C1211 H1203 0.950 . S
C1211 C1209 1.327 . S
C1212 C1200 1.349 . S
C1212 H1206 0.950 . S
C1212 C1213 1.327 . S
C1213 H1207 0.950 . S
C1213 C1212 1.327 . S
C1213 C1217 1.429 . S
C1214 C1197 1.574 . S
C1214 H1208 0.949 . S
C1214 C1218 1.368 . S
C1215 C1196 1.429 . S
C1215 C1209 1.429 . S
C1215 C1216 1.523 . S
C1216 C1197 1.368 . S
C1216 C1210 1.368 . S
C1216 C1215 1.523 . S
C1217 C1201 1.429 . S
C1217 C1213 1.429 . S
C1217 C1218 1.523 . S
C1218 C1202 1.368 . S
C1218 C1214 1.368 . S
C1218 C1217 1.523 . S
H1219 C1194 0.950 . S
H1220 C1196 0.950 . S
H1221 C1197 0.949 . S
H1222 C1199 0.950 . S
H1223 C1201 0.950 . S
C1224 C1225 1.349 . S
C1224 C1226 1.327 . S
C1224 H1249 0.950 . S
C1225 C1224 1.349 . S
C1225 C1241 1.349 . S
C1226 C1224 1.327 . S
C1226 C1245 1.429 . S
C1226 H1250 0.950 . S
C1227 C1244 1.574 . S
C1227 C1246 1.368 . S
C1227 H1251 0.949 . S
H1228 C1232 0.949 . S
C1229 C1230 1.349 . S
C1229 C1231 1.327 . S
C1229 H1252 0.950 . S
C1230 C1229 1.349 . S
C1230 C1242 1.349 . S
C1231 C1229 1.327 . S
C1231 C1247 1.429 . S
C1231 H1253 0.950 . S
C1232 H1228 0.949 . S
C1232 C1240 1.574 . S
C1232 C1248 1.368 . S
H1233 C1241 0.950 . S
H1234 C1239 0.950 . S
H1235 C1240 0.949 . S
H1236 C1242 0.950 . S
H1237 C1243 0.950 . S
H1238 C1244 0.949 . S
C1239 H1234 0.950 . S
C1239 C1241 1.327 . S
C1239 C1245 1.429 . S
C1240 C1232 1.574 . S
C1240 H1235 0.949 . S
C1240 C1246 1.368 . S
C1241 C1225 1.349 . S
C1241 H1233 0.950 . S
C1241 C1239 1.327 . S
C1242 C1230 1.349 . S
C1242 H1236 0.950 . S
C1242 C1243 1.327 . S
C1243 H1237 0.950 . S
C1243 C1242 1.327 . S
C1243 C1247 1.429 . S
C1244 C1227 1.574 . S
C1244 H1238 0.949 . S
C1244 C1248 1.368 . S
C1245 C1226 1.429 . S
C1245 C1239 1.429 . S
C1245 C1246 1.523 . S
C1246 C1227 1.368 . S
C1246 C1240 1.368 . S
C1246 C1245 1.523 . S
C1247 C1231 1.429 . S
C1247 C1243 1.429 . S
C1247 C1248 1.523 . S
C1248 C1232 1.368 . S
C1248 C1244 1.368 . S
C1248 C1247 1.523 . S
H1249 C1224 0.950 . S
H1250 C1226 0.950 . S
H1251 C1227 0.949 . S
H1252 C1229 0.950 . S
H1253 C1231 0.950 . S
C1254 C1255 1.349 . S
C1254 C1256 1.327 . S
C1254 H1279 0.950 . S
C1255 C1254 1.349 . S
C1255 C1271 1.349 . S
C1256 C1254 1.327 . S
C1256 C1275 1.429 . S
C1256 H1280 0.950 . S
C1257 C1274 1.574 . S
C1257 C1276 1.368 . S
C1257 H1281 0.949 . S
H1258 C1262 0.949 . S
C1259 C1260 1.349 . S
C1259 C1261 1.327 . S
C1259 H1282 0.950 . S
C1260 C1259 1.349 . S
C1260 C1272 1.349 . S
C1261 C1259 1.327 . S
C1261 C1277 1.429 . S
C1261 H1283 0.950 . S
C1262 H1258 0.949 . S
C1262 C1270 1.574 . S
C1262 C1278 1.368 . S
H1263 C1271 0.950 . S
H1264 C1269 0.950 . S
H1265 C1270 0.949 . S
H1266 C1272 0.950 . S
H1267 C1273 0.950 . S
H1268 C1274 0.949 . S
C1269 H1264 0.950 . S
C1269 C1271 1.327 . S
C1269 C1275 1.429 . S
C1270 C1262 1.574 . S
C1270 H1265 0.949 . S
C1270 C1276 1.368 . S
C1271 C1255 1.349 . S
C1271 H1263 0.950 . S
C1271 C1269 1.327 . S
C1272 C1260 1.349 . S
C1272 H1266 0.950 . S
C1272 C1273 1.327 . S
C1273 H1267 0.950 . S
C1273 C1272 1.327 . S
C1273 C1277 1.429 . S
C1274 C1257 1.574 . S
C1274 H1268 0.949 . S
C1274 C1278 1.368 . S
C1275 C1256 1.429 . S
C1275 C1269 1.429 . S
C1275 C1276 1.523 . S
C1276 C1257 1.368 . S
C1276 C1270 1.368 . S
C1276 C1275 1.523 . S
C1277 C1261 1.429 . S
C1277 C1273 1.429 . S
C1277 C1278 1.523 . S
C1278 C1262 1.368 . S
C1278 C1274 1.368 . S
C1278 C1277 1.523 . S
H1279 C1254 0.950 . S
H1280 C1256 0.950 . S
H1281 C1257 0.949 . S
H1282 C1259 0.950 . S
H1283 C1261 0.950 . S
C1284 C1285 1.349 . S
C1284 C1286 1.327 . S
C1284 H1309 0.950 . S
C1285 C1284 1.349 . S
C1285 C1301 1.349 . S
C1286 C1284 1.327 . S
C1286 C1305 1.429 . S
C1286 H1310 0.950 . S
C1287 C1304 1.574 . S
C1287 C1306 1.368 . S
C1287 H1311 0.949 . S
H1288 C1292 0.949 . S
C1289 C1290 1.349 . S
C1289 C1291 1.327 . S
C1289 H1312 0.950 . S
C1290 C1289 1.349 . S
C1290 C1302 1.349 . S
C1291 C1289 1.327 . S
C1291 C1307 1.429 . S
C1291 H1313 0.950 . S
C1292 H1288 0.949 . S
C1292 C1300 1.574 . S
C1292 C1308 1.368 . S
H1293 C1301 0.950 . S
H1294 C1299 0.950 . S
H1295 C1300 0.949 . S
H1296 C1302 0.950 . S
H1297 C1303 0.950 . S
H1298 C1304 0.949 . S
C1299 H1294 0.950 . S
C1299 C1301 1.327 . S
C1299 C1305 1.429 . S
C1300 C1292 1.574 . S
C1300 H1295 0.949 . S
C1300 C1306 1.368 . S
C1301 C1285 1.349 . S
C1301 H1293 0.950 . S
C1301 C1299 1.327 . S
C1302 C1290 1.349 . S
C1302 H1296 0.950 . S
C1302 C1303 1.327 . S
C1303 H1297 0.950 . S
C1303 C1302 1.327 . S
C1303 C1307 1.429 . S
C1304 C1287 1.574 . S
C1304 H1298 0.949 . S
C1304 C1308 1.368 . S
C1305 C1286 1.429 . S
C1305 C1299 1.429 . S
C1305 C1306 1.523 . S
C1306 C1287 1.368 . S
C1306 C1300 1.368 . S
C1306 C1305 1.523 . S
C1307 C1291 1.429 . S
C1307 C1303 1.429 . S
C1307 C1308 1.523 . S
C1308 C1292 1.368 . S
C1308 C1304 1.368 . S
C1308 C1307 1.523 . S
H1309 C1284 0.950 . S
H1310 C1286 0.950 . S
H1311 C1287 0.949 . S
H1312 C1289 0.950 . S
H1313 C1291 0.950 . S
C1314 C1315 1.349 . S
C1314 C1316 1.327 . S
C1314 H1339 0.950 . S
C1315 C1314 1.349 . S
C1315 C1331 1.349 . S
C1316 C1314 1.327 . S
C1316 C1335 1.429 . S
C1316 H1340 0.950 . S
C1317 C1334 1.574 . S
C1317 C1336 1.368 . S
C1317 H1341 0.949 . S
H1318 C1322 0.949 . S
C1319 C1320 1.349 . S
C1319 C1321 1.327 . S
C1319 H1342 0.950 . S
C1320 C1319 1.349 . S
C1320 C1332 1.349 . S
C1321 C1319 1.327 . S
C1321 C1337 1.429 . S
C1321 H1343 0.950 . S
C1322 H1318 0.949 . S
C1322 C1330 1.574 . S
C1322 C1338 1.368 . S
H1323 C1331 0.950 . S
H1324 C1329 0.950 . S
H1325 C1330 0.949 . S
H1326 C1332 0.950 . S
H1327 C1333 0.950 . S
H1328 C1334 0.949 . S
C1329 H1324 0.950 . S
C1329 C1331 1.327 . S
C1329 C1335 1.429 . S
C1330 C1322 1.574 . S
C1330 H1325 0.949 . S
C1330 C1336 1.368 . S
C1331 C1315 1.349 . S
C1331 H1323 0.950 . S
C1331 C1329 1.327 . S
C1332 C1320 1.349 . S
C1332 H1326 0.950 . S
C1332 C1333 1.327 . S
C1333 H1327 0.950 . S
C1333 C1332 1.327 . S
C1333 C1337 1.429 . S
C1334 C1317 1.574 . S
C1334 H1328 0.949 . S
C1334 C1338 1.368 . S
C1335 C1316 1.429 . S
C1335 C1329 1.429 . S
C1335 C1336 1.523 . S
C1336 C1317 1.368 . S
C1336 C1330 1.368 . S
C1336 C1335 1.523 . S
C1337 C1321 1.429 . S
C1337 C1333 1.429 . S
C1337 C1338 1.523 . S
C1338 C1322 1.368 . S
C1338 C1334 1.368 . S
C1338 C1337 1.523 . S
H1339 C1314 0.950 . S
H1340 C1316 0.950 . S
H1341 C1317 0.949 . S
H1342 C1319 0.950 . S
H1343 C1321 0.950 . S
C1344 C1345 1.349 . S
C1344 C1346 1.327 . S
C1344 H1369 0.950 . S
C1345 C1344 1.349 . S
C1345 C1361 1.349 . S
C1346 C1344 1.327 . S
C1346 C1365 1.429 . S
C1346 H1370 0.950 . S
C1347 C1364 1.574 . S
C1347 C1366 1.368 . S
C1347 H1371 0.949 . S
H1348 C1352 0.949 . S
C1349 C1350 1.349 . S
C1349 C1351 1.327 . S
C1349 H1372 0.950 . S
C1350 C1349 1.349 . S
C1350 C1362 1.349 . S
C1351 C1349 1.327 . S
C1351 C1367 1.429 . S
C1351 H1373 0.950 . S
C1352 H1348 0.949 . S
C1352 C1360 1.574 . S
C1352 C1368 1.368 . S
H1353 C1361 0.950 . S
H1354 C1359 0.950 . S
H1355 C1360 0.949 . S
H1356 C1362 0.950 . S
H1357 C1363 0.950 . S
H1358 C1364 0.949 . S
C1359 H1354 0.950 . S
C1359 C1361 1.327 . S
C1359 C1365 1.429 . S
C1360 C1352 1.574 . S
C1360 H1355 0.949 . S
C1360 C1366 1.368 . S
C1361 C1345 1.349 . S
C1361 H1353 0.950 . S
C1361 C1359 1.327 . S
C1362 C1350 1.349 . S
C1362 H1356 0.950 . S
C1362 C1363 1.327 . S
C1363 H1357 0.950 . S
C1363 C1362 1.327 . S
C1363 C1367 1.429 . S
C1364 C1347 1.574 . S
C1364 H1358 0.949 . S
C1364 C1368 1.368 . S
C1365 C1346 1.429 . S
C1365 C1359 1.429 . S
C1365 C1366 1.523 . S
C1366 C1347 1.368 . S
C1366 C1360 1.368 . S
C1366 C1365 1.523 . S
C1367 C1351 1.429 . S
C1367 C1363 1.429 . S
C1367 C1368 1.523 . S
C1368 C1352 1.368 . S
C1368 C1364 1.368 . S
C1368 C1367 1.523 . S
H1369 C1344 0.950 . S
H1370 C1346 0.950 . S
H1371 C1347 0.949 . S
H1372 C1349 0.950 . S
H1373 C1351 0.950 . S
C1374 C1375 1.349 . S
C1374 C1376 1.327 . S
C1374 H1399 0.950 . S
C1375 C1374 1.349 . S
C1375 C1391 1.349 . S
C1376 C1374 1.327 . S
C1376 C1395 1.429 . S
C1376 H1400 0.950 . S
C1377 C1394 1.574 . S
C1377 C1396 1.368 . S
C1377 H1401 0.949 . S
H1378 C1382 0.949 . S
C1379 C1380 1.349 . S
C1379 C1381 1.327 . S
C1379 H1402 0.950 . S
C1380 C1379 1.349 . S
C1380 C1392 1.349 . S
C1381 C1379 1.327 . S
C1381 C1397 1.429 . S
C1381 H1403 0.950 . S
C1382 H1378 0.949 . S
C1382 C1390 1.574 . S
C1382 C1398 1.368 . S
H1383 C1391 0.950 . S
H1384 C1389 0.950 . S
H1385 C1390 0.949 . S
H1386 C1392 0.950 . S
H1387 C1393 0.950 . S
H1388 C1394 0.949 . S
C1389 H1384 0.950 . S
C1389 C1391 1.327 . S
C1389 C1395 1.429 . S
C1390 C1382 1.574 . S
C1390 H1385 0.949 . S
C1390 C1396 1.368 . S
C1391 C1375 1.349 . S
C1391 H1383 0.950 . S
C1391 C1389 1.327 . S
C1392 C1380 1.349 . S
C1392 H1386 0.950 . S
C1392 C1393 1.327 . S
C1393 H1387 0.950 . S
C1393 C1392 1.327 . S
C1393 C1397 1.429 . S
C1394 C1377 1.574 . S
C1394 H1388 0.949 . S
C1394 C1398 1.368 . S
C1395 C1376 1.429 . S
C1395 C1389 1.429 . S
C1395 C1396 1.523 . S
C1396 C1377 1.368 . S
C1396 C1390 1.368 . S
C1396 C1395 1.523 . S
C1397 C1381 1.429 . S
C1397 C1393 1.429 . S
C1397 C1398 1.523 . S
C1398 C1382 1.368 . S
C1398 C1394 1.368 . S
C1398 C1397 1.523 . S
H1399 C1374 0.950 . S
H1400 C1376 0.950 . S
H1401 C1377 0.949 . S
H1402 C1379 0.950 . S
H1403 C1381 0.950 . S
C1404 C1405 1.349 . S
C1404 C1406 1.327 . S
C1404 H1429 0.950 . S
C1405 C1404 1.349 . S
C1405 C1421 1.349 1_455 S
C1406 C1404 1.327 . S
C1406 C1425 1.429 . S
C1406 H1430 0.950 . S
C1407 C1424 1.574 . S
C1407 C1426 1.273 1_655 S
C1407 H1431 0.949 . S
H1408 C1412 0.949 . S
C1409 C1410 1.349 . S
C1409 C1411 1.327 . S
C1409 H1432 0.950 . S
C1410 C1409 1.349 . S
C1410 C1422 1.349 1_655 S
C1411 C1409 1.327 . S
C1411 C1427 1.429 . S
C1411 H1433 0.950 . S
C1412 H1408 0.949 . S
C1412 C1420 1.574 . S
C1412 C1428 1.368 1_455 S
H1413 C1421 0.950 . S
H1414 C1419 0.950 . S
H1415 C1420 0.949 . S
H1416 C1422 0.950 . S
H1417 C1423 0.950 . S
H1418 C1424 0.949 . S
C1419 H1414 0.950 . S
C1419 C1421 1.327 . S
C1419 C1425 1.429 1_655 S
C1420 C1412 1.574 . S
C1420 H1415 0.949 . S
C1420 C1426 1.426 . S
C1421 C1405 1.349 1_655 S
C1421 H1413 0.950 . S
C1421 C1419 1.327 . S
C1422 C1410 1.349 1_455 S
C1422 H1416 0.950 . S
C1422 C1423 1.327 . S
C1423 H1417 0.950 . S
C1423 C1422 1.327 . S
C1423 C1427 1.429 1_455 S
C1424 C1407 1.574 . S
C1424 H1418 0.949 . S
C1424 C1428 1.368 . S
C1425 C1406 1.429 . S
C1425 C1419 1.429 1_455 S
C1425 C1426 1.578 . S
C1426 C1407 1.273 1_455 S
C1426 C1420 1.426 . S
C1426 C1425 1.578 . S
C1427 C1411 1.429 . S
C1427 C1423 1.429 1_655 S
C1427 C1428 1.523 . S
C1428 C1412 1.368 1_655 S
C1428 C1424 1.368 . S
C1428 C1427 1.523 . S
H1429 C1404 0.950 . S
H1430 C1406 0.950 . S
H1431 C1407 0.949 . S
H1432 C1409 0.950 . S
H1433 C1411 0.950 . S
C1434 C1435 1.349 . S
C1434 C1436 1.327 . S
C1434 H1459 0.950 . S
C1435 C1434 1.349 . S
C1435 C1451 1.349 . S
C1436 C1434 1.327 . S
C1436 C1455 1.429 . S
C1436 H1460 0.950 . S
C1437 C1454 1.574 . S
C1437 C1456 1.368 . S
C1437 H1461 0.949 . S
H1438 C1442 0.949 . S
C1439 C1440 1.349 . S
C1439 C1441 1.327 . S
C1439 H1462 0.950 . S
C1440 C1439 1.349 . S
C1440 C1452 1.349 . S
C1441 C1439 1.327 . S
C1441 C1457 1.429 . S
C1441 H1463 0.950 . S
C1442 H1438 0.949 . S
C1442 C1450 1.574 . S
C1442 C1458 1.368 . S
H1443 C1451 0.950 . S
H1444 C1449 0.950 . S
H1445 C1450 0.949 . S
H1446 C1452 0.950 . S
H1447 C1453 0.950 . S
H1448 C1454 0.949 . S
C1449 H1444 0.950 . S
C1449 C1451 1.327 . S
C1449 C1455 1.429 . S
C1450 C1442 1.574 . S
C1450 H1445 0.949 . S
C1450 C1456 1.368 . S
C1451 C1435 1.349 . S
C1451 H1443 0.950 . S
C1451 C1449 1.327 . S
C1452 C1440 1.349 . S
C1452 H1446 0.950 . S
C1452 C1453 1.327 . S
C1453 H1447 0.950 . S
C1453 C1452 1.327 . S
C1453 C1457 1.429 . S
C1454 C1437 1.574 . S
C1454 H1448 0.949 . S
C1454 C1458 1.368 . S
C1455 C1436 1.429 . S
C1455 C1449 1.429 . S
C1455 C1456 1.523 . S
C1456 C1437 1.368 . S
C1456 C1450 1.368 . S
C1456 C1455 1.523 . S
C1457 C1441 1.429 . S
C1457 C1453 1.429 . S
C1457 C1458 1.523 . S
C1458 C1442 1.368 . S
C1458 C1454 1.368 . S
C1458 C1457 1.523 . S
H1459 C1434 0.950 . S
H1460 C1436 0.950 . S
H1461 C1437 0.949 . S
H1462 C1439 0.950 . S
H1463 C1441 0.950 . S
C1464 C1465 1.349 . S
C1464 C1466 1.327 . S
C1464 H1489 0.950 . S
C1465 C1464 1.349 . S
C1465 C1481 1.349 . S
C1466 C1464 1.327 . S
C1466 C1485 1.429 . S
C1466 H1490 0.950 . S
C1467 C1484 1.553 1_545 S
C1467 C1486 1.368 . S
C1467 H1491 0.949 . S
H1468 C1472 0.949 . S
C1469 C1470 1.349 . S
C1469 C1471 1.327 . S
C1469 H1492 0.950 . S
C1470 C1469 1.349 . S
C1470 C1482 1.349 . S
C1471 C1469 1.327 . S
C1471 C1487 1.429 . S
C1471 H1493 0.950 . S
C1472 H1468 0.949 . S
C1472 C1480 1.548 1_565 S
C1472 C1488 1.368 . S
H1473 C1481 0.950 . S
H1474 C1479 0.950 . S
H1475 C1480 0.930 . S
H1476 C1482 0.950 . S
H1477 C1483 0.950 . S
H1478 C1484 0.933 . S
C1479 H1474 0.950 . S
C1479 C1481 1.327 . S
C1479 C1485 1.429 . S
C1480 C1472 1.548 1_545 S
C1480 H1475 0.930 . S
C1480 C1486 1.426 . S
C1481 C1465 1.349 . S
C1481 H1473 0.950 . S
C1481 C1479 1.327 . S
C1482 C1470 1.349 . S
C1482 H1476 0.950 . S
C1482 C1483 1.327 . S
C1483 H1477 0.950 . S
C1483 C1482 1.327 . S
C1483 C1487 1.429 . S
C1484 C1467 1.553 1_565 S
C1484 H1478 0.933 . S
C1484 C1488 1.413 . S
C1485 C1466 1.429 . S
C1485 C1479 1.429 . S
C1485 C1486 1.523 . S
C1486 C1467 1.368 . S
C1486 C1480 1.426 . S
C1486 C1485 1.523 . S
C1487 C1471 1.429 . S
C1487 C1483 1.429 . S
C1487 C1488 1.523 . S
C1488 C1472 1.368 . S
C1488 C1484 1.413 . S
C1488 C1487 1.523 . S
H1489 C1464 0.950 . S
H1490 C1466 0.950 . S
H1491 C1467 0.949 . S
H1492 C1469 0.950 . S
H1493 C1471 0.950 . S
C1494 C1495 1.349 . S
C1494 C1496 1.327 . S
C1494 H1519 0.950 . S
C1495 C1494 1.349 . S
C1495 C1511 1.357 1_556 S
C1496 C1494 1.327 . S
C1496 C1515 1.429 . S
C1496 H1520 0.950 . S
C1497 C1514 1.574 . S
C1497 C1516 1.370 1_564 S
C1497 H1521 0.949 . S
H1498 C1502 0.949 . S
C1499 C1500 1.349 . S
C1499 C1501 1.327 . S
C1499 H1522 0.950 . S
C1500 C1499 1.349 . S
C1500 C1512 1.349 1_554 S
C1501 C1499 1.327 . S
C1501 C1517 1.429 . S
C1501 H1523 0.950 . S
C1502 H1498 0.949 . S
C1502 C1510 1.574 . S
C1502 C1518 1.368 1_546 S
H1503 C1511 0.951 1_565 S
H1504 C1509 0.950 . S
H1505 C1510 0.949 . S
H1506 C1512 0.950 . S
H1507 C1513 0.950 1_545 S
H1508 C1514 0.949 . S
C1509 H1504 0.950 . S
C1509 C1511 1.318 1_565 S
C1509 C1515 1.429 1_564 S
C1510 C1502 1.574 . S
C1510 H1505 0.949 . S
C1510 C1516 1.368 . S
C1511 C1495 1.357 1_554 S
C1511 H1503 0.951 1_545 S
C1511 C1509 1.318 1_545 S
C1512 C1500 1.349 1_556 S
C1512 H1506 0.950 . S
C1512 C1513 1.327 . S
C1513 H1507 0.950 1_565 S
C1513 C1512 1.327 . S
C1513 C1517 1.429 1_556 S
C1514 C1497 1.574 . S
C1514 H1508 0.949 . S
C1514 C1518 1.369 . S
C1515 C1496 1.429 . S
C1515 C1509 1.429 1_546 S
C1515 C1516 1.521 . S
C1516 C1497 1.370 1_546 S
C1516 C1510 1.368 . S
C1516 C1515 1.521 . S
C1517 C1501 1.429 . S
C1517 C1513 1.429 1_554 S
C1517 C1518 1.523 . S
C1518 C1502 1.368 1_564 S
C1518 C1514 1.369 . S
C1518 C1517 1.523 . S
H1519 C1494 0.950 . S
H1520 C1496 0.950 . S
H1521 C1497 0.949 . S
H1522 C1499 0.950 . S
H1523 C1501 0.950 . S
C1524 C1525 1.349 1_556 S
C1524 C1526 1.327 . S
C1524 H1549 0.950 . S
C1525 C1524 1.349 1_554 S
C1525 C1541 1.349 . S
C1526 C1524 1.327 . S
C1526 C1545 1.429 1_556 S
C1526 H1550 0.950 . S
C1527 C1544 1.574 1_455 S
C1527 C1546 1.392 . S
C1527 H1551 0.949 . S
H1528 C1532 0.949 . S
C1529 C1530 1.349 1_554 S
C1529 C1531 1.327 . S
C1529 H1552 0.950 . S
C1530 C1529 1.349 1_556 S
C1530 C1542 1.349 . S
C1531 C1529 1.327 . S
C1531 C1547 1.429 1_554 S
C1531 H1553 0.950 . S
C1532 H1528 0.949 . S
C1532 C1540 1.574 1_655 S
C1532 C1548 1.388 . S
H1533 C1541 0.950 . S
H1534 C1539 0.950 . S
H1535 C1540 0.949 . S
H1536 C1542 0.950 . S
H1537 C1543 0.950 . S
H1538 C1544 0.949 . S
C1539 H1534 0.950 . S
C1539 C1541 1.327 . S
C1539 C1545 1.429 . S
C1540 C1532 1.574 1_455 S
C1540 H1535 0.949 . S
C1540 C1546 1.345 1_556 S
C1541 C1525 1.349 . S
C1541 H1533 0.950 . S
C1541 C1539 1.327 . S
C1542 C1530 1.349 . S
C1542 H1536 0.950 . S
C1542 C1543 1.327 . S
C1543 H1537 0.950 . S
C1543 C1542 1.327 . S
C1543 C1547 1.429 . S
C1544 C1527 1.574 1_655 S
C1544 H1538 0.949 . S
C1544 C1548 1.348 1_554 S
C1545 C1526 1.429 1_554 S
C1545 C1539 1.429 . S
C1545 C1546 1.524 . S
C1546 C1527 1.392 . S
C1546 C1540 1.345 1_554 S
C1546 C1545 1.524 . S
C1547 C1531 1.429 1_556 S
C1547 C1543 1.429 . S
C1547 C1548 1.523 . S
C1548 C1532 1.388 . S
C1548 C1544 1.348 1_556 S
C1548 C1547 1.523 . S
H1549 C1524 0.950 . S
H1550 C1526 0.950 . S
H1551 C1527 0.949 . S
H1552 C1529 0.950 . S
H1553 C1531 0.950 . S
C1554 C1555 1.349 1_556 S
C1554 C1556 1.327 . S
C1554 H1579 0.950 . S
C1555 C1554 1.349 1_554 S
C1555 C1571 1.349 . S
C1556 C1554 1.327 . S
C1556 C1575 1.429 1_556 S
C1556 H1580 0.950 . S
C1557 C1574 1.574 . S
C1557 C1576 1.371 . S
C1557 H1581 0.949 . S
H1558 C1562 0.949 . S
C1559 C1560 1.349 1_554 S
C1559 C1561 1.327 . S
C1559 H1582 0.950 . S
C1560 C1559 1.349 1_556 S
C1560 C1572 1.349 . S
C1561 C1559 1.327 . S
C1561 C1577 1.429 1_554 S
C1561 H1583 0.950 . S
C1562 H1558 0.949 . S
C1562 C1570 1.574 . S
C1562 C1578 1.368 . S
H1563 C1571 0.950 . S
H1564 C1569 0.950 . S
H1565 C1570 0.949 . S
H1566 C1572 0.950 . S
H1567 C1573 0.950 . S
H1568 C1574 0.949 . S
C1569 H1564 0.950 . S
C1569 C1571 1.327 . S
C1569 C1575 1.429 . S
C1570 C1562 1.574 . S
C1570 H1565 0.949 . S
C1570 C1576 1.366 1_556 S
C1571 C1555 1.349 . S
C1571 H1563 0.950 . S
C1571 C1569 1.327 . S
C1572 C1560 1.349 . S
C1572 H1566 0.950 . S
C1572 C1573 1.327 . S
C1573 H1567 0.950 . S
C1573 C1572 1.327 . S
C1573 C1577 1.429 . S
C1574 C1557 1.574 . S
C1574 H1568 0.949 . S
C1574 C1578 1.368 1_554 S
C1575 C1556 1.429 1_554 S
C1575 C1569 1.429 . S
C1575 C1576 1.523 . S
C1576 C1557 1.371 . S
C1576 C1570 1.366 1_554 S
C1576 C1575 1.523 . S
C1577 C1561 1.429 1_556 S
C1577 C1573 1.429 . S
C1577 C1578 1.523 . S
C1578 C1562 1.368 . S
C1578 C1574 1.368 1_556 S
C1578 C1577 1.523 . S
H1579 C1554 0.950 . S
H1580 C1556 0.950 . S
H1581 C1557 0.949 . S
H1582 C1559 0.950 . S
H1583 C1561 0.950 . S
C1584 C1585 1.349 . S
C1584 C1586 1.327 . S
C1584 H1609 0.950 . S
C1585 C1584 1.349 . S
C1585 C1601 1.349 1_554 S
C1586 C1584 1.327 . S
C1586 C1605 1.429 . S
C1586 H1610 0.950 . S
C1587 C1604 1.574 . S
C1587 C1606 1.368 . S
C1587 H1611 0.949 . S
H1588 C1592 0.949 . S
C1589 C1590 1.349 . S
C1589 C1591 1.327 . S
C1589 H1612 0.950 . S
C1590 C1589 1.349 . S
C1590 C1602 1.349 . S
C1591 C1589 1.327 . S
C1591 C1607 1.429 . S
C1591 H1613 0.950 . S
C1592 H1588 0.949 . S
C1592 C1600 1.574 . S
C1592 C1608 1.368 . S
H1593 C1601 0.950 . S
H1594 C1599 0.950 1_556 S
H1595 C1600 0.949 . S
H1596 C1602 0.950 . S
H1597 C1603 0.950 . S
H1598 C1604 0.949 . S
C1599 H1594 0.950 1_554 S
C1599 C1601 1.327 1_554 S
C1599 C1605 1.429 . S
C1600 C1592 1.574 . S
C1600 H1595 0.949 . S
C1600 C1606 1.368 . S
C1601 C1585 1.349 1_556 S
C1601 H1593 0.950 . S
C1601 C1599 1.327 1_556 S
C1602 C1590 1.349 . S
C1602 H1596 0.950 . S
C1602 C1603 1.327 . S
C1603 H1597 0.950 . S
C1603 C1602 1.327 . S
C1603 C1607 1.429 . S
C1604 C1587 1.574 . S
C1604 H1598 0.949 . S
C1604 C1608 1.368 . S
C1605 C1586 1.429 . S
C1605 C1599 1.429 . S
C1605 C1606 1.523 . S
C1606 C1587 1.368 . S
C1606 C1600 1.368 . S
C1606 C1605 1.523 . S
C1607 C1591 1.429 . S
C1607 C1603 1.429 . S
C1607 C1608 1.523 . S
C1608 C1592 1.368 . S
C1608 C1604 1.368 . S
C1608 C1607 1.523 . S
H1609 C1584 0.950 . S
H1610 C1586 0.950 . S
H1611 C1587 0.949 . S
H1612 C1589 0.950 . S
H1613 C1591 0.950 . S
C1614 C1615 1.349 . S
C1614 C1616 1.327 . S
C1614 H1639 0.950 . S
C1615 C1614 1.349 . S
C1615 C1631 1.349 . S
C1616 C1614 1.327 . S
C1616 C1635 1.429 . S
C1616 H1640 0.950 . S
C1617 C1634 1.574 . S
C1617 C1636 1.368 . S
C1617 H1641 0.949 . S
H1618 C1622 0.949 . S
C1619 C1620 1.349 . S
C1619 C1621 1.327 . S
C1619 H1642 0.950 . S
C1620 C1619 1.349 . S
C1620 C1632 1.349 1_554 S
C1621 C1619 1.327 . S
C1621 C1637 1.429 . S
C1621 H1643 0.950 . S
C1622 H1618 0.949 . S
C1622 C1630 1.574 . S
C1622 C1638 1.368 . S
H1623 C1631 0.950 . S
H1624 C1629 0.950 . S
H1625 C1630 0.949 . S
H1626 C1632 0.950 . S
H1627 C1633 0.950 1_556 S
H1628 C1634 0.949 . S
C1629 H1624 0.950 . S
C1629 C1631 1.327 . S
C1629 C1635 1.429 . S
C1630 C1622 1.574 . S
C1630 H1625 0.949 . S
C1630 C1636 1.368 . S
C1631 C1615 1.349 . S
C1631 H1623 0.950 . S
C1631 C1629 1.327 . S
C1632 C1620 1.349 1_556 S
C1632 H1626 0.950 . S
C1632 C1633 1.327 1_556 S
C1633 H1627 0.950 1_554 S
C1633 C1632 1.327 1_554 S
C1633 C1637 1.429 . S
C1634 C1617 1.574 . S
C1634 H1628 0.949 . S
C1634 C1638 1.368 . S
C1635 C1616 1.429 . S
C1635 C1629 1.429 . S
C1635 C1636 1.523 . S
C1636 C1617 1.368 . S
C1636 C1630 1.368 . S
C1636 C1635 1.523 . S
C1637 C1621 1.429 . S
C1637 C1633 1.429 . S
C1637 C1638 1.523 . S
C1638 C1622 1.368 . S
C1638 C1634 1.368 . S
C1638 C1637 1.523 . S
H1639 C1614 0.950 . S
H1640 C1616 0.950 . S
H1641 C1617 0.949 . S
H1642 C1619 0.950 . S
H1643 C1621 0.950 . S
C1644 C1645 1.349 . S
C1644 C1646 1.327 . S
C1644 H1669 0.950 . S
C1645 C1644 1.349 . S
C1645 C1661 1.349 . S
C1646 C1644 1.327 . S
C1646 C1665 1.429 . S
C1646 H1670 0.950 . S
C1647 C1664 1.574 . S
C1647 C1666 1.368 . S
C1647 H1671 0.949 . S
H1648 C1652 0.949 . S
C1649 C1650 1.349 1_556 S
C1649 C1651 1.327 1_556 S
C1649 H1672 0.950 . S
C1650 C1649 1.349 1_554 S
C1650 C1662 1.349 . S
C1651 C1649 1.327 1_554 S
C1651 C1667 1.429 . S
C1651 H1673 0.950 1_554 S
C1652 H1648 0.949 . S
C1652 C1660 1.574 . S
C1652 C1668 1.368 . S
H1653 C1661 0.950 . S
H1654 C1659 0.950 . S
H1655 C1660 0.949 . S
H1656 C1662 0.950 . S
H1657 C1663 0.950 . S
H1658 C1664 0.949 . S
C1659 H1654 0.950 . S
C1659 C1661 1.327 . S
C1659 C1665 1.429 . S
C1660 C1652 1.574 . S
C1660 H1655 0.949 . S
C1660 C1666 1.368 . S
C1661 C1645 1.349 . S
C1661 H1653 0.950 . S
C1661 C1659 1.327 . S
C1662 C1650 1.349 . S
C1662 H1656 0.950 . S
C1662 C1663 1.327 . S
C1663 H1657 0.950 . S
C1663 C1662 1.327 . S
C1663 C1667 1.429 . S
C1664 C1647 1.574 . S
C1664 H1658 0.949 . S
C1664 C1668 1.368 . S
C1665 C1646 1.429 . S
C1665 C1659 1.429 . S
C1665 C1666 1.523 . S
C1666 C1647 1.368 . S
C1666 C1660 1.368 . S
C1666 C1665 1.523 . S
C1667 C1651 1.429 . S
C1667 C1663 1.429 . S
C1667 C1668 1.523 . S
C1668 C1652 1.368 . S
C1668 C1664 1.368 . S
C1668 C1667 1.523 . S
H1669 C1644 0.950 . S
H1670 C1646 0.950 . S
H1671 C1647 0.949 . S
H1672 C1649 0.950 . S
H1673 C1651 0.950 1_556 S
C1674 C1675 1.349 . S
C1674 C1676 1.327 . S
C1674 H1699 0.950 . S
C1675 C1674 1.349 . S
C1675 C1691 1.349 . S
C1676 C1674 1.327 . S
C1676 C1695 1.429 . S
C1676 H1700 0.950 . S
C1677 C1694 1.574 . S
C1677 C1696 1.368 . S
C1677 H1701 0.949 . S
H1678 C1682 0.949 . S
C1679 C1680 1.349 . S
C1679 C1681 1.327 . S
C1679 H1702 0.950 . S
C1680 C1679 1.349 . S
C1680 C1692 1.349 . S
C1681 C1679 1.327 . S
C1681 C1697 1.429 . S
C1681 H1703 0.950 . S
C1682 H1678 0.949 . S
C1682 C1690 1.574 . S
C1682 C1698 1.368 . S
H1683 C1691 0.950 . S
H1684 C1689 0.950 . S
H1685 C1690 0.949 . S
H1686 C1692 0.950 . S
H1687 C1693 0.950 . S
H1688 C1694 0.949 . S
C1689 H1684 0.950 . S
C1689 C1691 1.327 . S
C1689 C1695 1.429 . S
C1690 C1682 1.574 . S
C1690 H1685 0.949 . S
C1690 C1696 1.368 . S
C1691 C1675 1.349 . S
C1691 H1683 0.950 . S
C1691 C1689 1.327 . S
C1692 C1680 1.349 . S
C1692 H1686 0.950 . S
C1692 C1693 1.327 . S
C1693 H1687 0.950 . S
C1693 C1692 1.327 . S
C1693 C1697 1.429 . S
C1694 C1677 1.574 . S
C1694 H1688 0.949 . S
C1694 C1698 1.368 . S
C1695 C1676 1.429 . S
C1695 C1689 1.429 . S
C1695 C1696 1.523 . S
C1696 C1677 1.368 . S
C1696 C1690 1.368 . S
C1696 C1695 1.523 . S
C1697 C1681 1.429 . S
C1697 C1693 1.429 . S
C1697 C1698 1.523 . S
C1698 C1682 1.368 . S
C1698 C1694 1.368 . S
C1698 C1697 1.523 . S
H1699 C1674 0.950 . S
H1700 C1676 0.950 . S
H1701 C1677 0.949 . S
H1702 C1679 0.950 . S
H1703 C1681 0.950 . S
C1704 C1705 1.349 . S
C1704 C1706 1.327 . S
C1704 H1729 0.950 . S
C1705 C1704 1.349 . S
C1705 C1721 1.349 . S
C1706 C1704 1.327 . S
C1706 C1725 1.429 . S
C1706 H1730 0.950 . S
C1707 C1724 1.574 . S
C1707 C1726 1.368 . S
C1707 H1731 0.949 . S
H1708 C1712 0.949 . S
C1709 C1710 1.349 . S
C1709 C1711 1.327 . S
C1709 H1732 0.950 . S
C1710 C1709 1.349 . S
C1710 C1722 1.349 . S
C1711 C1709 1.327 . S
C1711 C1727 1.429 . S
C1711 H1733 0.950 . S
C1712 H1708 0.949 . S
C1712 C1720 1.574 . S
C1712 C1728 1.368 . S
H1713 C1721 0.950 . S
H1714 C1719 0.950 . S
H1715 C1720 0.949 . S
H1716 C1722 0.950 . S
H1717 C1723 0.950 . S
H1718 C1724 0.949 . S
C1719 H1714 0.950 . S
C1719 C1721 1.327 . S
C1719 C1725 1.429 . S
C1720 C1712 1.574 . S
C1720 H1715 0.949 . S
C1720 C1726 1.368 . S
C1721 C1705 1.349 . S
C1721 H1713 0.950 . S
C1721 C1719 1.327 . S
C1722 C1710 1.349 . S
C1722 H1716 0.950 . S
C1722 C1723 1.327 . S
C1723 H1717 0.950 . S
C1723 C1722 1.327 . S
C1723 C1727 1.429 . S
C1724 C1707 1.574 . S
C1724 H1718 0.949 . S
C1724 C1728 1.368 . S
C1725 C1706 1.429 . S
C1725 C1719 1.429 . S
C1725 C1726 1.523 . S
C1726 C1707 1.368 . S
C1726 C1720 1.368 . S
C1726 C1725 1.523 . S
C1727 C1711 1.429 . S
C1727 C1723 1.429 . S
C1727 C1728 1.523 . S
C1728 C1712 1.368 . S
C1728 C1724 1.368 . S
C1728 C1727 1.523 . S
H1729 C1704 0.950 . S
H1730 C1706 0.950 . S
H1731 C1707 0.949 . S
H1732 C1709 0.950 . S
H1733 C1711 0.950 . S
C1734 C1735 1.349 . S
C1734 C1736 1.327 . S
C1734 H1759 0.950 . S
C1735 C1734 1.349 . S
C1735 C1751 1.349 . S
C1736 C1734 1.327 . S
C1736 C1755 1.429 . S
C1736 H1760 0.950 . S
C1737 C1754 1.574 . S
C1737 C1756 1.368 . S
C1737 H1761 0.949 . S
H1738 C1742 0.949 . S
C1739 C1740 1.349 . S
C1739 C1741 1.327 . S
C1739 H1762 0.950 . S
C1740 C1739 1.349 . S
C1740 C1752 1.349 . S
C1741 C1739 1.327 . S
C1741 C1757 1.429 . S
C1741 H1763 0.950 . S
C1742 H1738 0.949 . S
C1742 C1750 1.574 . S
C1742 C1758 1.368 . S
H1743 C1751 0.950 . S
H1744 C1749 0.950 . S
H1745 C1750 0.949 . S
H1746 C1752 0.950 . S
H1747 C1753 0.950 . S
H1748 C1754 0.949 . S
C1749 H1744 0.950 . S
C1749 C1751 1.327 . S
C1749 C1755 1.429 . S
C1750 C1742 1.574 . S
C1750 H1745 0.949 . S
C1750 C1756 1.368 . S
C1751 C1735 1.349 . S
C1751 H1743 0.950 . S
C1751 C1749 1.327 . S
C1752 C1740 1.349 . S
C1752 H1746 0.950 . S
C1752 C1753 1.327 . S
C1753 H1747 0.950 . S
C1753 C1752 1.327 . S
C1753 C1757 1.429 . S
C1754 C1737 1.574 . S
C1754 H1748 0.949 . S
C1754 C1758 1.368 . S
C1755 C1736 1.429 . S
C1755 C1749 1.429 . S
C1755 C1756 1.523 . S
C1756 C1737 1.368 . S
C1756 C1750 1.368 . S
C1756 C1755 1.523 . S
C1757 C1741 1.429 . S
C1757 C1753 1.429 . S
C1757 C1758 1.523 . S
C1758 C1742 1.368 . S
C1758 C1754 1.368 . S
C1758 C1757 1.523 . S
H1759 C1734 0.950 . S
H1760 C1736 0.950 . S
H1761 C1737 0.949 . S
H1762 C1739 0.950 . S
H1763 C1741 0.950 . S
C1764 C1765 1.349 . S
C1764 C1766 1.327 . S
C1764 H1789 0.950 . S
C1765 C1764 1.349 . S
C1765 C1781 1.349 . S
C1766 C1764 1.327 . S
C1766 C1785 1.429 . S
C1766 H1790 0.950 . S
C1767 C1784 1.574 . S
C1767 C1786 1.368 . S
C1767 H1791 0.949 . S
H1768 C1772 0.949 . S
C1769 C1770 1.349 . S
C1769 C1771 1.327 . S
C1769 H1792 0.950 . S
C1770 C1769 1.349 . S
C1770 C1782 1.349 . S
C1771 C1769 1.327 . S
C1771 C1787 1.429 . S
C1771 H1793 0.950 . S
C1772 H1768 0.949 . S
C1772 C1780 1.574 . S
C1772 C1788 1.368 . S
H1773 C1781 0.950 . S
H1774 C1779 0.950 . S
H1775 C1780 0.949 . S
H1776 C1782 0.950 . S
H1777 C1783 0.950 . S
H1778 C1784 0.949 . S
C1779 H1774 0.950 . S
C1779 C1781 1.327 . S
C1779 C1785 1.429 . S
C1780 C1772 1.574 . S
C1780 H1775 0.949 . S
C1780 C1786 1.368 . S
C1781 C1765 1.349 . S
C1781 H1773 0.950 . S
C1781 C1779 1.327 . S
C1782 C1770 1.349 . S
C1782 H1776 0.950 . S
C1782 C1783 1.327 . S
C1783 H1777 0.950 . S
C1783 C1782 1.327 . S
C1783 C1787 1.429 . S
C1784 C1767 1.574 . S
C1784 H1778 0.949 . S
C1784 C1788 1.368 . S
C1785 C1766 1.429 . S
C1785 C1779 1.429 . S
C1785 C1786 1.523 . S
C1786 C1767 1.368 . S
C1786 C1780 1.368 . S
C1786 C1785 1.523 . S
C1787 C1771 1.429 . S
C1787 C1783 1.429 . S
C1787 C1788 1.523 . S
C1788 C1772 1.368 . S
C1788 C1784 1.368 . S
C1788 C1787 1.523 . S
H1789 C1764 0.950 . S
H1790 C1766 0.950 . S
H1791 C1767 0.949 . S
H1792 C1769 0.950 . S
H1793 C1771 0.950 . S
C1794 C1795 1.349 . S
C1794 C1796 1.327 . S
C1794 H1819 0.950 . S
C1795 C1794 1.349 . S
C1795 C1811 1.349 . S
C1796 C1794 1.327 . S
C1796 C1815 1.429 . S
C1796 H1820 0.950 . S
C1797 C1814 1.574 . S
C1797 C1816 1.368 . S
C1797 H1821 0.949 . S
H1798 C1802 0.949 . S
C1799 C1800 1.349 . S
C1799 C1801 1.327 . S
C1799 H1822 0.950 . S
C1800 C1799 1.349 . S
C1800 C1812 1.349 . S
C1801 C1799 1.327 . S
C1801 C1817 1.429 . S
C1801 H1823 0.950 . S
C1802 H1798 0.949 . S
C1802 C1810 1.574 . S
C1802 C1818 1.368 . S
H1803 C1811 0.950 . S
H1804 C1809 0.950 . S
H1805 C1810 0.949 . S
H1806 C1812 0.950 1_554 S
H1807 C1813 0.950 . S
H1808 C1814 0.949 . S
C1809 H1804 0.950 . S
C1809 C1811 1.327 . S
C1809 C1815 1.429 . S
C1810 C1802 1.574 . S
C1810 H1805 0.949 . S
C1810 C1816 1.368 . S
C1811 C1795 1.349 . S
C1811 H1803 0.950 . S
C1811 C1809 1.327 . S
C1812 C1800 1.349 . S
C1812 H1806 0.950 1_556 S
C1812 C1813 1.327 . S
C1813 H1807 0.950 . S
C1813 C1812 1.327 . S
C1813 C1817 1.429 . S
C1814 C1797 1.574 . S
C1814 H1808 0.949 . S
C1814 C1818 1.368 . S
C1815 C1796 1.429 . S
C1815 C1809 1.429 . S
C1815 C1816 1.523 . S
C1816 C1797 1.368 . S
C1816 C1810 1.368 . S
C1816 C1815 1.523 . S
C1817 C1801 1.429 . S
C1817 C1813 1.429 . S
C1817 C1818 1.523 . S
C1818 C1802 1.368 . S
C1818 C1814 1.368 . S
C1818 C1817 1.523 . S
H1819 C1794 0.950 . S
H1820 C1796 0.950 . S
H1821 C1797 0.949 . S
H1822 C1799 0.950 . S
H1823 C1801 0.950 . S
C1824 C1825 1.349 . S
C1824 C1826 1.327 . S
C1824 H1849 0.950 . S
C1825 C1824 1.349 . S
C1825 C1841 1.349 . S
C1826 C1824 1.327 . S
C1826 C1845 1.429 . S
C1826 H1850 0.950 . S
C1827 C1844 1.574 . S
C1827 C1846 1.368 . S
C1827 H1851 0.949 . S
H1828 C1832 0.949 . S
C1829 C1830 1.349 . S
C1829 C1831 1.327 . S
C1829 H1852 0.950 . S
C1830 C1829 1.349 . S
C1830 C1842 1.349 . S
C1831 C1829 1.327 . S
C1831 C1847 1.429 . S
C1831 H1853 0.950 . S
C1832 H1828 0.949 . S
C1832 C1840 1.574 . S
C1832 C1848 1.368 . S
H1833 C1841 0.950 1_554 S
H1834 C1839 0.950 . S
H1835 C1840 0.949 . S
H1836 C1842 0.950 . S
H1837 C1843 0.950 . S
H1838 C1844 0.949 . S
C1839 H1834 0.950 . S
C1839 C1841 1.327 . S
C1839 C1845 1.429 . S
C1840 C1832 1.574 . S
C1840 H1835 0.949 . S
C1840 C1846 1.368 . S
C1841 C1825 1.349 . S
C1841 H1833 0.950 1_556 S
C1841 C1839 1.327 . S
C1842 C1830 1.349 . S
C1842 H1836 0.950 . S
C1842 C1843 1.327 . S
C1843 H1837 0.950 . S
C1843 C1842 1.327 . S
C1843 C1847 1.429 . S
C1844 C1827 1.574 . S
C1844 H1838 0.949 . S
C1844 C1848 1.368 . S
C1845 C1826 1.429 . S
C1845 C1839 1.429 . S
C1845 C1846 1.523 . S
C1846 C1827 1.368 . S
C1846 C1840 1.368 . S
C1846 C1845 1.523 . S
C1847 C1831 1.429 . S
C1847 C1843 1.429 . S
C1847 C1848 1.523 . S
C1848 C1832 1.368 . S
C1848 C1844 1.368 . S
C1848 C1847 1.523 . S
H1849 C1824 0.950 . S
H1850 C1826 0.950 . S
H1851 C1827 0.949 . S
H1852 C1829 0.950 . S
H1853 C1831 0.950 . S
C1854 C1855 1.349 . S
C1854 C1856 1.327 . S
C1854 H1879 0.950 . S
C1855 C1854 1.349 . S
C1855 C1871 1.349 . S
C1856 C1854 1.327 . S
C1856 C1875 1.429 . S
C1856 H1880 0.950 . S
C1857 C1874 1.574 . S
C1857 C1876 1.368 . S
C1857 H1881 0.949 . S
H1858 C1862 0.949 . S
C1859 C1860 1.349 . S
C1859 C1861 1.327 . S
C1859 H1882 0.950 . S
C1860 C1859 1.349 . S
C1860 C1872 1.349 . S
C1861 C1859 1.327 . S
C1861 C1877 1.429 . S
C1861 H1883 0.950 . S
C1862 H1858 0.949 . S
C1862 C1870 1.574 . S
C1862 C1878 1.368 . S
H1863 C1871 0.950 . S
H1864 C1869 0.950 . S
H1865 C1870 0.949 . S
H1866 C1872 0.950 . S
H1867 C1873 0.950 . S
H1868 C1874 0.949 . S
C1869 H1864 0.950 . S
C1869 C1871 1.327 . S
C1869 C1875 1.429 . S
C1870 C1862 1.574 . S
C1870 H1865 0.949 . S
C1870 C1876 1.368 . S
C1871 C1855 1.349 . S
C1871 H1863 0.950 . S
C1871 C1869 1.327 . S
C1872 C1860 1.349 . S
C1872 H1866 0.950 . S
C1872 C1873 1.327 . S
C1873 H1867 0.950 . S
C1873 C1872 1.327 . S
C1873 C1877 1.429 . S
C1874 C1857 1.574 . S
C1874 H1868 0.949 . S
C1874 C1878 1.368 . S
C1875 C1856 1.429 . S
C1875 C1869 1.429 . S
C1875 C1876 1.523 . S
C1876 C1857 1.368 . S
C1876 C1870 1.368 . S
C1876 C1875 1.523 . S
C1877 C1861 1.429 . S
C1877 C1873 1.429 . S
C1877 C1878 1.523 . S
C1878 C1862 1.368 . S
C1878 C1874 1.368 . S
C1878 C1877 1.523 . S
H1879 C1854 0.950 . S
H1880 C1856 0.950 . S
H1881 C1857 0.949 . S
H1882 C1859 0.950 . S
H1883 C1861 0.950 . S
C1884 C1885 1.349 . S
C1884 C1886 1.327 . S
C1884 H1909 0.950 . S
C1885 C1884 1.349 . S
C1885 C1901 1.349 . S
C1886 C1884 1.327 . S
C1886 C1905 1.429 . S
C1886 H1910 0.950 . S
C1887 C1904 1.574 . S
C1887 C1906 1.368 . S
C1887 H1911 0.949 . S
H1888 C1892 0.949 . S
C1889 C1890 1.349 . S
C1889 C1891 1.327 . S
C1889 H1912 0.950 . S
C1890 C1889 1.349 . S
C1890 C1902 1.349 . S
C1891 C1889 1.327 . S
C1891 C1907 1.429 . S
C1891 H1913 0.950 . S
C1892 H1888 0.949 . S
C1892 C1900 1.574 . S
C1892 C1908 1.368 . S
H1893 C1901 0.950 . S
H1894 C1899 0.950 . S
H1895 C1900 0.949 . S
H1896 C1902 0.950 . S
H1897 C1903 0.950 . S
H1898 C1904 0.949 . S
C1899 H1894 0.950 . S
C1899 C1901 1.327 . S
C1899 C1905 1.429 . S
C1900 C1892 1.574 . S
C1900 H1895 0.949 . S
C1900 C1906 1.368 . S
C1901 C1885 1.349 . S
C1901 H1893 0.950 . S
C1901 C1899 1.327 . S
C1902 C1890 1.349 . S
C1902 H1896 0.950 . S
C1902 C1903 1.327 . S
C1903 H1897 0.950 . S
C1903 C1902 1.327 . S
C1903 C1907 1.429 . S
C1904 C1887 1.574 . S
C1904 H1898 0.949 . S
C1904 C1908 1.368 . S
C1905 C1886 1.429 . S
C1905 C1899 1.429 . S
C1905 C1906 1.523 . S
C1906 C1887 1.368 . S
C1906 C1900 1.368 . S
C1906 C1905 1.523 . S
C1907 C1891 1.429 . S
C1907 C1903 1.429 . S
C1907 C1908 1.523 . S
C1908 C1892 1.368 . S
C1908 C1904 1.368 . S
C1908 C1907 1.523 . S
H1909 C1884 0.950 . S
H1910 C1886 0.950 . S
H1911 C1887 0.949 . S
H1912 C1889 0.950 . S
H1913 C1891 0.950 . S
C1914 C1915 1.349 . S
C1914 C1916 1.327 . S
C1914 H1939 0.950 . S
C1915 C1914 1.349 . S
C1915 C1931 1.349 . S
C1916 C1914 1.327 . S
C1916 C1935 1.429 . S
C1916 H1940 0.950 . S
C1917 C1934 1.574 . S
C1917 C1936 1.368 . S
C1917 H1941 0.949 . S
H1918 C1922 0.949 . S
C1919 C1920 1.349 . S
C1919 C1921 1.327 . S
C1919 H1942 0.950 . S
C1920 C1919 1.349 . S
C1920 C1932 1.349 . S
C1921 C1919 1.327 . S
C1921 C1937 1.429 . S
C1921 H1943 0.950 . S
C1922 H1918 0.949 . S
C1922 C1930 1.574 . S
C1922 C1938 1.368 . S
H1923 C1931 0.950 . S
H1924 C1929 0.950 . S
H1925 C1930 0.949 . S
H1926 C1932 0.950 . S
H1927 C1933 0.950 . S
H1928 C1934 0.949 . S
C1929 H1924 0.950 . S
C1929 C1931 1.327 . S
C1929 C1935 1.429 . S
C1930 C1922 1.574 . S
C1930 H1925 0.949 . S
C1930 C1936 1.368 . S
C1931 C1915 1.349 . S
C1931 H1923 0.950 . S
C1931 C1929 1.327 . S
C1932 C1920 1.349 . S
C1932 H1926 0.950 . S
C1932 C1933 1.327 . S
C1933 H1927 0.950 . S
C1933 C1932 1.327 . S
C1933 C1937 1.429 . S
C1934 C1917 1.574 . S
C1934 H1928 0.949 . S
C1934 C1938 1.368 . S
C1935 C1916 1.429 . S
C1935 C1929 1.429 . S
C1935 C1936 1.523 . S
C1936 C1917 1.368 . S
C1936 C1930 1.368 . S
C1936 C1935 1.523 . S
C1937 C1921 1.429 . S
C1937 C1933 1.429 . S
C1937 C1938 1.523 . S
C1938 C1922 1.368 . S
C1938 C1934 1.368 . S
C1938 C1937 1.523 . S
H1939 C1914 0.950 . S
H1940 C1916 0.950 . S
H1941 C1917 0.949 . S
H1942 C1919 0.950 . S
H1943 C1921 0.950 . S
C1944 C1945 1.349 . S
C1944 C1946 1.327 . S
C1944 H1969 0.950 . S
C1945 C1944 1.349 . S
C1945 C1961 1.349 . S
C1946 C1944 1.327 . S
C1946 C1965 1.429 . S
C1946 H1970 0.950 . S
C1947 C1964 1.574 . S
C1947 C1966 1.368 . S
C1947 H1971 0.949 . S
H1948 C1952 0.949 . S
C1949 C1950 1.349 . S
C1949 C1951 1.327 . S
C1949 H1972 0.950 . S
C1950 C1949 1.349 . S
C1950 C1962 1.349 . S
C1951 C1949 1.327 . S
C1951 C1967 1.429 . S
C1951 H1973 0.950 . S
C1952 H1948 0.949 . S
C1952 C1960 1.574 . S
C1952 C1968 1.368 . S
H1953 C1961 0.950 . S
H1954 C1959 0.950 . S
H1955 C1960 0.949 . S
H1956 C1962 0.950 . S
H1957 C1963 0.950 . S
H1958 C1964 0.949 . S
C1959 H1954 0.950 . S
C1959 C1961 1.327 . S
C1959 C1965 1.429 . S
C1960 C1952 1.574 . S
C1960 H1955 0.949 . S
C1960 C1966 1.368 . S
C1961 C1945 1.349 . S
C1961 H1953 0.950 . S
C1961 C1959 1.327 . S
C1962 C1950 1.349 . S
C1962 H1956 0.950 . S
C1962 C1963 1.327 . S
C1963 H1957 0.950 . S
C1963 C1962 1.327 . S
C1963 C1967 1.429 . S
C1964 C1947 1.574 . S
C1964 H1958 0.949 . S
C1964 C1968 1.368 . S
C1965 C1946 1.429 . S
C1965 C1959 1.429 . S
C1965 C1966 1.523 . S
C1966 C1947 1.368 . S
C1966 C1960 1.368 . S
C1966 C1965 1.523 . S
C1967 C1951 1.429 . S
C1967 C1963 1.429 . S
C1967 C1968 1.523 . S
C1968 C1952 1.368 . S
C1968 C1964 1.368 . S
C1968 C1967 1.523 . S
H1969 C1944 0.950 . S
H1970 C1946 0.950 . S
H1971 C1947 0.949 . S
H1972 C1949 0.950 . S
H1973 C1951 0.950 . S
C1974 C1975 1.349 . S
C1974 C1976 1.327 . S
C1974 H1999 0.950 . S
C1975 C1974 1.349 . S
C1975 C1991 1.349 . S
C1976 C1974 1.327 . S
C1976 C1995 1.429 . S
C1976 H2000 0.950 . S
C1977 C1994 1.574 . S
C1977 C1996 1.368 . S
C1977 H2001 0.949 1_545 S
H1978 C1982 0.949 . S
C1979 C1980 1.349 . S
C1979 C1981 1.327 . S
C1979 H2002 0.950 . S
C1980 C1979 1.349 . S
C1980 C1992 1.349 . S
C1981 C1979 1.327 . S
C1981 C1997 1.429 . S
C1981 H2003 0.950 . S
C1982 H1978 0.949 . S
C1982 C1990 1.574 . S
C1982 C1998 1.368 . S
H1983 C1991 0.950 . S
H1984 C1989 0.950 . S
H1985 C1990 0.949 . S
H1986 C1992 0.950 . S
H1987 C1993 0.950 . S
H1988 C1994 0.949 . S
C1989 H1984 0.950 . S
C1989 C1991 1.327 . S
C1989 C1995 1.429 . S
C1990 C1982 1.574 . S
C1990 H1985 0.949 . S
C1990 C1996 1.368 . S
C1991 C1975 1.349 . S
C1991 H1983 0.950 . S
C1991 C1989 1.327 . S
C1992 C1980 1.349 . S
C1992 H1986 0.950 . S
C1992 C1993 1.327 . S
C1993 H1987 0.950 . S
C1993 C1992 1.327 . S
C1993 C1997 1.429 . S
C1994 C1977 1.574 . S
C1994 H1988 0.949 . S
C1994 C1998 1.368 . S
C1995 C1976 1.429 . S
C1995 C1989 1.429 . S
C1995 C1996 1.523 1_565 S
C1996 C1977 1.368 . S
C1996 C1990 1.368 . S
C1996 C1995 1.523 1_545 S
C1997 C1981 1.429 . S
C1997 C1993 1.429 . S
C1997 C1998 1.523 . S
C1998 C1982 1.368 . S
C1998 C1994 1.368 . S
C1998 C1997 1.523 . S
H1999 C1974 0.950 . S
H2000 C1976 0.950 . S
H2001 C1977 0.949 1_565 S
H2002 C1979 0.950 . S
H2003 C1981 0.950 . S
C2004 C2005 1.349 . S
C2004 C2006 1.327 . S
C2004 H2029 0.950 . S
C2005 C2004 1.349 . S
C2005 C2021 1.349 . S
C2006 C2004 1.327 . S
C2006 C2025 1.429 . S
C2006 H2030 0.950 . S
C2007 C2024 1.533 1_455 S
C2007 C2026 1.368 . S
C2007 H2031 0.982 . S
H2008 C2012 0.949 . S
C2009 C2010 1.349 . S
C2009 C2011 1.327 . S
C2009 H2032 0.950 . S
C2010 C2009 1.349 . S
C2010 C2022 1.349 . S
C2011 C2009 1.327 . S
C2011 C2027 1.429 . S
C2011 H2033 0.950 . S
C2012 H2008 0.949 . S
C2012 C2020 1.574 . S
C2012 C2028 1.368 . S
H2013 C2021 0.950 . S
H2014 C2019 0.950 . S
H2015 C2020 0.949 . S
H2016 C2022 0.950 . S
H2017 C2023 0.950 . S
H2018 C2024 0.949 . S
C2019 H2014 0.950 . S
C2019 C2021 1.327 . S
C2019 C2025 1.429 . S
C2020 C2012 1.574 . S
C2020 H2015 0.949 . S
C2020 C2026 1.338 1_655 S
C2021 C2005 1.349 . S
C2021 H2013 0.950 . S
C2021 C2019 1.327 . S
C2022 C2010 1.349 . S
C2022 H2016 0.950 . S
C2022 C2023 1.327 . S
C2023 H2017 0.950 . S
C2023 C2022 1.327 . S
C2023 C2027 1.429 . S
C2024 C2007 1.533 1_655 S
C2024 H2018 0.949 . S
C2024 C2028 1.368 . S
C2025 C2006 1.429 . S
C2025 C2019 1.429 . S
C2025 C2026 1.568 . S
C2026 C2007 1.368 . S
C2026 C2020 1.338 1_455 S
C2026 C2025 1.568 . S
C2027 C2011 1.429 . S
C2027 C2023 1.429 . S
C2027 C2028 1.523 . S
C2028 C2012 1.368 . S
C2028 C2024 1.368 . S
C2028 C2027 1.523 . S
H2029 C2004 0.950 . S
H2030 C2006 0.950 . S
H2031 C2007 0.982 . S
H2032 C2009 0.950 . S
H2033 C2011 0.950 . S
C2034 C2035 1.349 . S
C2034 C2036 1.327 . S
C2034 H2059 0.950 . S
C2035 C2034 1.349 . S
C2035 C2051 1.349 . S
C2036 C2034 1.327 . S
C2036 C2055 1.429 . S
C2036 H2060 0.950 . S
C2037 C2054 1.574 . S
C2037 C2056 1.368 . S
C2037 H2061 0.949 . S
H2038 C2042 0.949 . S
C2039 C2040 1.349 . S
C2039 C2041 1.327 . S
C2039 H2062 0.950 . S
C2040 C2039 1.349 . S
C2040 C2052 1.349 . S
C2041 C2039 1.327 . S
C2041 C2057 1.429 . S
C2041 H2063 0.950 . S
C2042 H2038 0.949 . S
C2042 C2050 1.574 . S
C2042 C2058 1.368 . S
H2043 C2051 0.950 . S
H2044 C2049 0.950 . S
H2045 C2050 0.949 . S
H2046 C2052 0.950 . S
H2047 C2053 0.950 . S
H2048 C2054 0.949 . S
C2049 H2044 0.950 . S
C2049 C2051 1.327 . S
C2049 C2055 1.429 . S
C2050 C2042 1.574 . S
C2050 H2045 0.949 . S
C2050 C2056 1.368 . S
C2051 C2035 1.349 . S
C2051 H2043 0.950 . S
C2051 C2049 1.327 . S
C2052 C2040 1.349 . S
C2052 H2046 0.950 . S
C2052 C2053 1.327 . S
C2053 H2047 0.950 . S
C2053 C2052 1.327 . S
C2053 C2057 1.429 . S
C2054 C2037 1.574 . S
C2054 H2048 0.949 . S
C2054 C2058 1.368 . S
C2055 C2036 1.429 . S
C2055 C2049 1.429 . S
C2055 C2056 1.523 . S
C2056 C2037 1.368 . S
C2056 C2050 1.368 . S
C2056 C2055 1.523 . S
C2057 C2041 1.429 . S
C2057 C2053 1.429 . S
C2057 C2058 1.523 . S
C2058 C2042 1.368 . S
C2058 C2054 1.368 . S
C2058 C2057 1.523 . S
H2059 C2034 0.950 . S
H2060 C2036 0.950 . S
H2061 C2037 0.949 . S
H2062 C2039 0.950 . S
H2063 C2041 0.950 . S
C2064 C2065 1.349 . S
C2064 C2066 1.327 . S
C2064 H2089 0.950 . S
C2065 C2064 1.349 . S
C2065 C2081 1.349 . S
C2066 C2064 1.327 . S
C2066 C2085 1.429 . S
C2066 H2090 0.950 . S
C2067 C2084 1.574 . S
C2067 C2086 1.368 . S
C2067 H2091 0.949 1_545 S
H2068 C2072 0.949 . S
C2069 C2070 1.349 . S
C2069 C2071 1.327 . S
C2069 H2092 0.950 . S
C2070 C2069 1.349 . S
C2070 C2082 1.349 . S
C2071 C2069 1.327 . S
C2071 C2087 1.429 . S
C2071 H2093 0.950 . S
C2072 H2068 0.949 . S
C2072 C2080 1.574 . S
C2072 C2088 1.368 . S
H2073 C2081 0.950 . S
H2074 C2079 0.950 . S
H2075 C2080 0.949 . S
H2076 C2082 0.950 . S
H2077 C2083 0.950 . S
H2078 C2084 0.949 . S
C2079 H2074 0.950 . S
C2079 C2081 1.327 . S
C2079 C2085 1.429 . S
C2080 C2072 1.574 . S
C2080 H2075 0.949 . S
C2080 C2086 1.368 . S
C2081 C2065 1.349 . S
C2081 H2073 0.950 . S
C2081 C2079 1.327 . S
C2082 C2070 1.349 . S
C2082 H2076 0.950 . S
C2082 C2083 1.327 . S
C2083 H2077 0.950 . S
C2083 C2082 1.327 . S
C2083 C2087 1.429 . S
C2084 C2067 1.574 . S
C2084 H2078 0.949 . S
C2084 C2088 1.368 . S
C2085 C2066 1.429 . S
C2085 C2079 1.429 . S
C2085 C2086 1.523 1_565 S
C2086 C2067 1.368 . S
C2086 C2080 1.368 . S
C2086 C2085 1.523 1_545 S
C2087 C2071 1.429 . S
C2087 C2083 1.429 . S
C2087 C2088 1.523 . S
C2088 C2072 1.368 . S
C2088 C2084 1.368 . S
C2088 C2087 1.523 . S
H2089 C2064 0.950 . S
H2090 C2066 0.950 . S
H2091 C2067 0.949 1_565 S
H2092 C2069 0.950 . S
H2093 C2071 0.950 . S
C2094 C2095 1.349 . S
C2094 C2096 1.327 . S
C2094 H2119 0.950 . S
C2095 C2094 1.349 . S
C2095 C2111 1.349 . S
C2096 C2094 1.327 . S
C2096 C2115 1.429 . S
C2096 H2120 0.950 . S
C2097 C2114 1.574 . S
C2097 C2116 1.385 . S
C2097 H2121 0.949 . S
H2098 C2102 0.949 . S
C2099 C2100 1.349 . S
C2099 C2101 1.327 . S
C2099 H2122 0.950 . S
C2100 C2099 1.349 . S
C2100 C2112 1.349 . S
C2101 C2099 1.327 . S
C2101 C2117 1.429 . S
C2101 H2123 0.950 . S
C2102 H2098 0.949 . S
C2102 C2110 1.572 1_655 S
C2102 C2118 1.368 . S
H2103 C2111 0.950 . S
H2104 C2109 0.950 . S
H2105 C2110 0.950 . S
H2106 C2112 0.950 . S
H2107 C2113 0.950 . S
H2108 C2114 0.949 . S
C2109 H2104 0.950 . S
C2109 C2111 1.327 . S
C2109 C2115 1.429 . S
C2110 C2102 1.572 1_455 S
C2110 H2105 0.950 . S
C2110 C2116 1.372 1_455 S
C2111 C2095 1.349 . S
C2111 H2103 0.950 . S
C2111 C2109 1.327 . S
C2112 C2100 1.349 . S
C2112 H2106 0.950 . S
C2112 C2113 1.327 . S
C2113 H2107 0.950 . S
C2113 C2112 1.327 . S
C2113 C2117 1.429 . S
C2114 C2097 1.574 . S
C2114 H2108 0.949 . S
C2114 C2118 1.368 . S
C2115 C2096 1.429 . S
C2115 C2109 1.429 . S
C2115 C2116 1.497 1_455 S
C2116 C2097 1.385 . S
C2116 C2110 1.372 1_655 S
C2116 C2115 1.497 1_655 S
C2117 C2101 1.429 . S
C2117 C2113 1.429 . S
C2117 C2118 1.523 . S
C2118 C2102 1.368 . S
C2118 C2114 1.368 . S
C2118 C2117 1.523 . S
H2119 C2094 0.950 . S
H2120 C2096 0.950 . S
H2121 C2097 0.949 . S
H2122 C2099 0.950 . S
H2123 C2101 0.950 . S
C2124 C2125 1.349 . S
C2124 C2126 1.327 . S
C2124 H2149 0.950 . S
C2125 C2124 1.349 . S
C2125 C2141 1.349 . S
C2126 C2124 1.327 . S
C2126 C2145 1.429 1_554 S
C2126 H2150 0.950 1_554 S
C2127 C2144 1.574 . S
C2127 C2146 1.368 . S
C2127 H2151 0.949 . S
H2128 C2132 0.949 . S
C2129 C2130 1.349 . S
C2129 C2131 1.327 . S
C2129 H2152 0.950 . S
C2130 C2129 1.349 . S
C2130 C2142 1.349 . S
C2131 C2129 1.327 . S
C2131 C2147 1.429 . S
C2131 H2153 0.950 . S
C2132 H2128 0.949 . S
C2132 C2140 1.574 . S
C2132 C2148 1.368 . S
H2133 C2141 0.950 . S
H2134 C2139 0.952 . S
H2135 C2140 0.949 . S
H2136 C2142 0.950 . S
H2137 C2143 0.950 . S
H2138 C2144 0.949 . S
C2139 H2134 0.952 . S
C2139 C2141 1.323 1_556 S
C2139 C2145 1.430 . S
C2140 C2132 1.574 . S
C2140 H2135 0.949 . S
C2140 C2146 1.368 . S
C2141 C2125 1.349 . S
C2141 H2133 0.950 . S
C2141 C2139 1.323 1_554 S
C2142 C2130 1.349 . S
C2142 H2136 0.950 . S
C2142 C2143 1.327 . S
C2143 H2137 0.950 . S
C2143 C2142 1.327 . S
C2143 C2147 1.429 . S
C2144 C2127 1.574 . S
C2144 H2138 0.949 . S
C2144 C2148 1.368 . S
C2145 C2126 1.429 1_556 S
C2145 C2139 1.430 . S
C2145 C2146 1.523 . S
C2146 C2127 1.368 . S
C2146 C2140 1.368 . S
C2146 C2145 1.523 . S
C2147 C2131 1.429 . S
C2147 C2143 1.429 . S
C2147 C2148 1.523 . S
C2148 C2132 1.368 . S
C2148 C2144 1.368 . S
C2148 C2147 1.523 . S
H2149 C2124 0.950 . S
H2150 C2126 0.950 1_556 S
H2151 C2127 0.949 . S
H2152 C2129 0.950 . S
H2153 C2131 0.950 . S
C2154 C2155 1.349 . S
C2154 C2156 1.327 . S
C2154 H2179 0.950 . S
C2155 C2154 1.349 . S
C2155 C2171 1.349 . S
C2156 C2154 1.327 . S
C2156 C2175 1.429 1_554 S
C2156 H2180 0.950 . S
C2157 C2174 1.574 . S
C2157 C2176 1.368 . S
C2157 H2181 0.949 . S
H2158 C2162 0.949 . S
C2159 C2160 1.349 . S
C2159 C2161 1.327 . S
C2159 H2182 0.950 . S
C2160 C2159 1.349 . S
C2160 C2172 1.349 . S
C2161 C2159 1.327 . S
C2161 C2177 1.429 . S
C2161 H2183 0.950 . S
C2162 H2158 0.949 . S
C2162 C2170 1.574 . S
C2162 C2178 1.368 . S
H2163 C2171 0.950 . S
H2164 C2169 0.950 . S
H2165 C2170 0.949 . S
H2166 C2172 0.950 . S
H2167 C2173 0.950 . S
H2168 C2174 0.949 . S
C2169 H2164 0.950 . S
C2169 C2171 1.327 . S
C2169 C2175 1.429 1_554 S
C2170 C2162 1.574 . S
C2170 H2165 0.949 . S
C2170 C2176 1.368 . S
C2171 C2155 1.349 . S
C2171 H2163 0.950 . S
C2171 C2169 1.327 . S
C2172 C2160 1.349 . S
C2172 H2166 0.950 . S
C2172 C2173 1.327 . S
C2173 H2167 0.950 . S
C2173 C2172 1.327 . S
C2173 C2177 1.429 . S
C2174 C2157 1.574 . S
C2174 H2168 0.949 . S
C2174 C2178 1.368 . S
C2175 C2156 1.429 1_556 S
C2175 C2169 1.429 1_556 S
C2175 C2176 1.523 . S
C2176 C2157 1.368 . S
C2176 C2170 1.368 . S
C2176 C2175 1.523 . S
C2177 C2161 1.429 . S
C2177 C2173 1.429 . S
C2177 C2178 1.523 . S
C2178 C2162 1.368 . S
C2178 C2174 1.368 . S
C2178 C2177 1.523 . S
H2179 C2154 0.950 . S
H2180 C2156 0.950 . S
H2181 C2157 0.949 . S
H2182 C2159 0.950 . S
H2183 C2161 0.950 . S
C2184 C2185 1.349 . S
C2184 C2186 1.327 . S
C2184 H2209 0.950 . S
C2185 C2184 1.349 . S
C2185 C2201 1.349 . S
C2186 C2184 1.327 . S
C2186 C2205 1.429 1_554 S
C2186 H2210 0.950 . S
C2187 C2204 1.574 . S
C2187 C2206 1.368 . S
C2187 H2211 0.949 . S
H2188 C2192 0.949 . S
C2189 C2190 1.349 . S
C2189 C2191 1.327 . S
C2189 H2212 0.950 . S
C2190 C2189 1.349 . S
C2190 C2202 1.349 . S
C2191 C2189 1.327 . S
C2191 C2207 1.429 . S
C2191 H2213 0.950 . S
C2192 H2188 0.949 . S
C2192 C2200 1.574 . S
C2192 C2208 1.368 . S
H2193 C2201 0.950 . S
H2194 C2199 0.950 . S
H2195 C2200 0.949 . S
H2196 C2202 0.950 . S
H2197 C2203 0.950 . S
H2198 C2204 0.949 . S
C2199 H2194 0.950 . S
C2199 C2201 1.327 . S
C2199 C2205 1.429 1_554 S
C2200 C2192 1.574 . S
C2200 H2195 0.949 . S
C2200 C2206 1.368 . S
C2201 C2185 1.349 . S
C2201 H2193 0.950 . S
C2201 C2199 1.327 . S
C2202 C2190 1.349 . S
C2202 H2196 0.950 . S
C2202 C2203 1.327 . S
C2203 H2197 0.950 . S
C2203 C2202 1.327 . S
C2203 C2207 1.429 . S
C2204 C2187 1.574 . S
C2204 H2198 0.949 . S
C2204 C2208 1.368 . S
C2205 C2186 1.429 1_556 S
C2205 C2199 1.429 1_556 S
C2205 C2206 1.523 . S
C2206 C2187 1.368 . S
C2206 C2200 1.368 . S
C2206 C2205 1.523 . S
C2207 C2191 1.429 . S
C2207 C2203 1.429 . S
C2207 C2208 1.523 . S
C2208 C2192 1.368 . S
C2208 C2204 1.368 . S
C2208 C2207 1.523 . S
H2209 C2184 0.950 . S
H2210 C2186 0.950 . S
H2211 C2187 0.949 . S
H2212 C2189 0.950 . S
H2213 C2191 0.950 . S
C2214 C2215 1.349 . S
C2214 C2216 1.327 . S
C2214 H2239 0.950 . S
C2215 C2214 1.349 . S
C2215 C2231 1.349 . S
C2216 C2214 1.327 . S
C2216 C2235 1.429 . S
C2216 H2240 0.950 . S
C2217 C2234 1.574 . S
C2217 C2236 1.368 . S
C2217 H2241 0.949 . S
H2218 C2222 0.949 . S
C2219 C2220 1.349 . S
C2219 C2221 1.327 . S
C2219 H2242 0.950 . S
C2220 C2219 1.349 . S
C2220 C2232 1.349 . S
C2221 C2219 1.327 . S
C2221 C2237 1.429 . S
C2221 H2243 0.950 . S
C2222 H2218 0.949 . S
C2222 C2230 1.574 . S
C2222 C2238 1.368 . S
H2223 C2231 0.950 . S
H2224 C2229 0.950 . S
H2225 C2230 0.949 . S
H2226 C2232 0.950 . S
H2227 C2233 0.950 . S
H2228 C2234 0.949 . S
C2229 H2224 0.950 . S
C2229 C2231 1.327 . S
C2229 C2235 1.429 . S
C2230 C2222 1.574 . S
C2230 H2225 0.949 . S
C2230 C2236 1.368 . S
C2231 C2215 1.349 . S
C2231 H2223 0.950 . S
C2231 C2229 1.327 . S
C2232 C2220 1.349 . S
C2232 H2226 0.950 . S
C2232 C2233 1.327 . S
C2233 H2227 0.950 . S
C2233 C2232 1.327 . S
C2233 C2237 1.429 . S
C2234 C2217 1.574 . S
C2234 H2228 0.949 . S
C2234 C2238 1.368 . S
C2235 C2216 1.429 . S
C2235 C2229 1.429 . S
C2235 C2236 1.523 . S
C2236 C2217 1.368 . S
C2236 C2230 1.368 . S
C2236 C2235 1.523 . S
C2237 C2221 1.429 . S
C2237 C2233 1.429 . S
C2237 C2238 1.523 . S
C2238 C2222 1.368 . S
C2238 C2234 1.368 . S
C2238 C2237 1.523 . S
H2239 C2214 0.950 . S
H2240 C2216 0.950 . S
H2241 C2217 0.949 . S
H2242 C2219 0.950 . S
H2243 C2221 0.950 . S
C2244 C2245 1.349 . S
C2244 C2246 1.327 . S
C2244 H2269 0.950 . S
C2245 C2244 1.349 . S
C2245 C2261 1.349 . S
C2246 C2244 1.327 . S
C2246 C2265 1.429 . S
C2246 H2270 0.950 . S
C2247 C2264 1.574 . S
C2247 C2266 1.368 . S
C2247 H2271 0.949 . S
H2248 C2252 0.949 . S
C2249 C2250 1.349 . S
C2249 C2251 1.327 . S
C2249 H2272 0.950 . S
C2250 C2249 1.349 . S
C2250 C2262 1.349 . S
C2251 C2249 1.327 . S
C2251 C2267 1.429 . S
C2251 H2273 0.950 . S
C2252 H2248 0.949 . S
C2252 C2260 1.574 . S
C2252 C2268 1.368 . S
H2253 C2261 0.950 . S
H2254 C2259 0.950 . S
H2255 C2260 0.949 . S
H2256 C2262 0.950 . S
H2257 C2263 0.950 . S
H2258 C2264 0.949 . S
C2259 H2254 0.950 . S
C2259 C2261 1.327 . S
C2259 C2265 1.429 . S
C2260 C2252 1.574 . S
C2260 H2255 0.949 . S
C2260 C2266 1.368 . S
C2261 C2245 1.349 . S
C2261 H2253 0.950 . S
C2261 C2259 1.327 . S
C2262 C2250 1.349 . S
C2262 H2256 0.950 . S
C2262 C2263 1.327 . S
C2263 H2257 0.950 . S
C2263 C2262 1.327 . S
C2263 C2267 1.429 . S
C2264 C2247 1.574 . S
C2264 H2258 0.949 . S
C2264 C2268 1.368 . S
C2265 C2246 1.429 . S
C2265 C2259 1.429 . S
C2265 C2266 1.523 . S
C2266 C2247 1.368 . S
C2266 C2260 1.368 . S
C2266 C2265 1.523 . S
C2267 C2251 1.429 . S
C2267 C2263 1.429 . S
C2267 C2268 1.523 . S
C2268 C2252 1.368 . S
C2268 C2264 1.368 . S
C2268 C2267 1.523 . S
H2269 C2244 0.950 . S
H2270 C2246 0.950 . S
H2271 C2247 0.949 . S
H2272 C2249 0.950 . S
H2273 C2251 0.950 . S
C2274 C2275 1.349 . S
C2274 C2276 1.327 . S
C2274 H2299 0.950 . S
C2275 C2274 1.349 . S
C2275 C2291 1.349 . S
C2276 C2274 1.327 . S
C2276 C2295 1.429 . S
C2276 H2300 0.950 . S
C2277 C2294 1.574 . S
C2277 C2296 1.368 . S
C2277 H2301 0.949 . S
H2278 C2282 0.949 . S
C2279 C2280 1.349 . S
C2279 C2281 1.327 . S
C2279 H2302 0.950 . S
C2280 C2279 1.349 . S
C2280 C2292 1.349 . S
C2281 C2279 1.327 . S
C2281 C2297 1.429 . S
C2281 H2303 0.950 . S
C2282 H2278 0.949 . S
C2282 C2290 1.574 . S
C2282 C2298 1.368 . S
H2283 C2291 0.950 . S
H2284 C2289 0.950 . S
H2285 C2290 0.949 . S
H2286 C2292 0.950 . S
H2287 C2293 0.950 . S
H2288 C2294 0.949 . S
C2289 H2284 0.950 . S
C2289 C2291 1.327 . S
C2289 C2295 1.429 . S
C2290 C2282 1.574 . S
C2290 H2285 0.949 . S
C2290 C2296 1.368 . S
C2291 C2275 1.349 . S
C2291 H2283 0.950 . S
C2291 C2289 1.327 . S
C2292 C2280 1.349 . S
C2292 H2286 0.950 . S
C2292 C2293 1.327 . S
C2293 H2287 0.950 . S
C2293 C2292 1.327 . S
C2293 C2297 1.429 . S
C2294 C2277 1.574 . S
C2294 H2288 0.949 . S
C2294 C2298 1.368 . S
C2295 C2276 1.429 . S
C2295 C2289 1.429 . S
C2295 C2296 1.523 . S
C2296 C2277 1.368 . S
C2296 C2290 1.368 . S
C2296 C2295 1.523 . S
C2297 C2281 1.429 . S
C2297 C2293 1.429 . S
C2297 C2298 1.523 . S
C2298 C2282 1.368 . S
C2298 C2294 1.368 . S
C2298 C2297 1.523 . S
H2299 C2274 0.950 . S
H2300 C2276 0.950 . S
H2301 C2277 0.949 . S
H2302 C2279 0.950 . S
H2303 C2281 0.950 . S
C2304 C2305 1.349 . S
C2304 C2306 1.327 . S
C2304 H2329 0.950 . S
C2305 C2304 1.349 . S
C2305 C2321 1.349 . S
C2306 C2304 1.327 . S
C2306 C2325 1.429 . S
C2306 H2330 0.950 . S
C2307 C2324 1.574 . S
C2307 C2326 1.368 . S
C2307 H2331 0.949 . S
H2308 C2312 0.949 . S
C2309 C2310 1.349 . S
C2309 C2311 1.327 . S
C2309 H2332 0.950 . S
C2310 C2309 1.349 . S
C2310 C2322 1.349 . S
C2311 C2309 1.327 . S
C2311 C2327 1.429 1_556 S
C2311 H2333 0.957 . S
C2312 H2308 0.949 . S
C2312 C2320 1.574 . S
C2312 C2328 1.368 . S
H2313 C2321 0.950 . S
H2314 C2319 0.950 . S
H2315 C2320 0.949 . S
H2316 C2322 0.950 . S
H2317 C2323 0.950 1_554 S
H2318 C2324 0.949 . S
C2319 H2314 0.950 . S
C2319 C2321 1.327 . S
C2319 C2325 1.429 . S
C2320 C2312 1.574 . S
C2320 H2315 0.949 . S
C2320 C2326 1.368 . S
C2321 C2305 1.349 . S
C2321 H2313 0.950 . S
C2321 C2319 1.327 . S
C2322 C2310 1.349 . S
C2322 H2316 0.950 . S
C2322 C2323 1.327 . S
C2323 H2317 0.950 1_556 S
C2323 C2322 1.327 . S
C2323 C2327 1.429 1_556 S
C2324 C2307 1.574 . S
C2324 H2318 0.949 . S
C2324 C2328 1.368 . S
C2325 C2306 1.429 . S
C2325 C2319 1.429 . S
C2325 C2326 1.523 . S
C2326 C2307 1.368 . S
C2326 C2320 1.368 . S
C2326 C2325 1.523 . S
C2327 C2311 1.429 1_554 S
C2327 C2323 1.429 1_554 S
C2327 C2328 1.523 . S
C2328 C2312 1.368 . S
C2328 C2324 1.368 . S
C2328 C2327 1.523 . S
H2329 C2304 0.950 . S
H2330 C2306 0.950 . S
H2331 C2307 0.949 . S
H2332 C2309 0.950 . S
H2333 C2311 0.957 . S
C2334 C2335 1.349 . S
C2334 C2336 1.327 . S
C2334 H2359 0.950 . S
C2335 C2334 1.349 . S
C2335 C2351 1.349 . S
C2336 C2334 1.327 . S
C2336 C2355 1.429 . S
C2336 H2360 0.950 . S
C2337 C2354 1.574 . S
C2337 C2356 1.368 . S
C2337 H2361 0.949 . S
H2338 C2342 0.949 . S
C2339 C2340 1.349 . S
C2339 C2341 1.327 . S
C2339 H2362 0.950 . S
C2340 C2339 1.349 . S
C2340 C2352 1.349 . S
C2341 C2339 1.327 . S
C2341 C2357 1.429 1_556 S
C2341 H2363 0.950 . S
C2342 H2338 0.949 . S
C2342 C2350 1.574 . S
C2342 C2358 1.368 . S
H2343 C2351 0.950 . S
H2344 C2349 0.950 . S
H2345 C2350 0.949 . S
H2346 C2352 0.950 . S
H2347 C2353 0.950 . S
H2348 C2354 0.949 . S
C2349 H2344 0.950 . S
C2349 C2351 1.327 . S
C2349 C2355 1.429 . S
C2350 C2342 1.574 . S
C2350 H2345 0.949 . S
C2350 C2356 1.368 . S
C2351 C2335 1.349 . S
C2351 H2343 0.950 . S
C2351 C2349 1.327 . S
C2352 C2340 1.349 . S
C2352 H2346 0.950 . S
C2352 C2353 1.327 . S
C2353 H2347 0.950 . S
C2353 C2352 1.327 . S
C2353 C2357 1.429 1_556 S
C2354 C2337 1.574 . S
C2354 H2348 0.949 . S
C2354 C2358 1.368 . S
C2355 C2336 1.429 . S
C2355 C2349 1.429 . S
C2355 C2356 1.523 . S
C2356 C2337 1.368 . S
C2356 C2350 1.368 . S
C2356 C2355 1.523 . S
C2357 C2341 1.429 1_554 S
C2357 C2353 1.429 1_554 S
C2357 C2358 1.523 . S
C2358 C2342 1.368 . S
C2358 C2354 1.368 . S
C2358 C2357 1.523 . S
H2359 C2334 0.950 . S
H2360 C2336 0.950 . S
H2361 C2337 0.949 . S
H2362 C2339 0.950 . S
H2363 C2341 0.950 . S
C2364 C2365 1.349 . S
C2364 C2366 1.327 . S
C2364 H2389 0.950 . S
C2365 C2364 1.349 . S
C2365 C2381 1.349 . S
C2366 C2364 1.327 . S
C2366 C2385 1.429 . S
C2366 H2390 0.950 . S
C2367 C2384 1.574 . S
C2367 C2386 1.368 . S
C2367 H2391 0.949 . S
H2368 C2372 0.949 . S
C2369 C2370 1.349 . S
C2369 C2371 1.327 . S
C2369 H2392 0.950 . S
C2370 C2369 1.349 . S
C2370 C2382 1.349 . S
C2371 C2369 1.327 . S
C2371 C2387 1.429 1_556 S
C2371 H2393 0.950 . S
C2372 H2368 0.949 . S
C2372 C2380 1.574 . S
C2372 C2388 1.368 . S
H2373 C2381 0.950 . S
H2374 C2379 0.950 . S
H2375 C2380 0.949 . S
H2376 C2382 0.950 . S
H2377 C2383 0.950 . S
H2378 C2384 0.949 . S
C2379 H2374 0.950 . S
C2379 C2381 1.327 . S
C2379 C2385 1.429 . S
C2380 C2372 1.574 . S
C2380 H2375 0.949 . S
C2380 C2386 1.368 . S
C2381 C2365 1.349 . S
C2381 H2373 0.950 . S
C2381 C2379 1.327 . S
C2382 C2370 1.349 . S
C2382 H2376 0.950 . S
C2382 C2383 1.327 1_556 S
C2383 H2377 0.950 . S
C2383 C2382 1.327 1_554 S
C2383 C2387 1.429 . S
C2384 C2367 1.574 . S
C2384 H2378 0.949 . S
C2384 C2388 1.368 . S
C2385 C2366 1.429 . S
C2385 C2379 1.429 . S
C2385 C2386 1.523 . S
C2386 C2367 1.368 . S
C2386 C2380 1.368 . S
C2386 C2385 1.523 . S
C2387 C2371 1.429 1_554 S
C2387 C2383 1.429 . S
C2387 C2388 1.523 . S
C2388 C2372 1.368 . S
C2388 C2384 1.368 . S
C2388 C2387 1.523 . S
H2389 C2364 0.950 . S
H2390 C2366 0.950 . S
H2391 C2367 0.949 . S
H2392 C2369 0.950 . S
H2393 C2371 0.950 . S
C2394 C2395 1.349 . S
C2394 C2396 1.327 . S
C2394 H2419 0.950 . S
C2395 C2394 1.349 . S
C2395 C2411 1.349 . S
C2396 C2394 1.327 . S
C2396 C2415 1.429 . S
C2396 H2420 0.950 . S
C2397 C2414 1.574 . S
C2397 C2416 1.368 . S
C2397 H2421 0.949 . S
H2398 C2402 0.949 . S
C2399 C2400 1.349 . S
C2399 C2401 1.327 . S
C2399 H2422 0.950 . S
C2400 C2399 1.349 . S
C2400 C2412 1.349 . S
C2401 C2399 1.327 . S
C2401 C2417 1.429 . S
C2401 H2423 0.950 . S
C2402 H2398 0.949 . S
C2402 C2410 1.574 . S
C2402 C2418 1.368 . S
H2403 C2411 0.950 . S
H2404 C2409 0.950 . S
H2405 C2410 0.949 . S
H2406 C2412 0.950 . S
H2407 C2413 0.950 . S
H2408 C2414 0.949 . S
C2409 H2404 0.950 . S
C2409 C2411 1.327 . S
C2409 C2415 1.429 . S
C2410 C2402 1.574 . S
C2410 H2405 0.949 . S
C2410 C2416 1.368 . S
C2411 C2395 1.349 . S
C2411 H2403 0.950 . S
C2411 C2409 1.327 . S
C2412 C2400 1.349 . S
C2412 H2406 0.950 . S
C2412 C2413 1.327 . S
C2413 H2407 0.950 . S
C2413 C2412 1.327 . S
C2413 C2417 1.429 . S
C2414 C2397 1.574 . S
C2414 H2408 0.949 . S
C2414 C2418 1.368 . S
C2415 C2396 1.429 . S
C2415 C2409 1.429 . S
C2415 C2416 1.523 . S
C2416 C2397 1.368 . S
C2416 C2410 1.368 . S
C2416 C2415 1.523 . S
C2417 C2401 1.429 . S
C2417 C2413 1.429 . S
C2417 C2418 1.523 . S
C2418 C2402 1.368 . S
C2418 C2414 1.368 . S
C2418 C2417 1.523 . S
H2419 C2394 0.950 . S
H2420 C2396 0.950 . S
H2421 C2397 0.949 . S
H2422 C2399 0.950 . S
H2423 C2401 0.950 . S
C2424 C2425 1.349 . S
C2424 C2426 1.327 . S
C2424 H2449 0.950 . S
C2425 C2424 1.349 . S
C2425 C2441 1.349 . S
C2426 C2424 1.327 . S
C2426 C2445 1.429 . S
C2426 H2450 0.950 . S
C2427 C2444 1.574 . S
C2427 C2446 1.368 . S
C2427 H2451 0.949 . S
H2428 C2432 0.949 . S
C2429 C2430 1.349 . S
C2429 C2431 1.327 . S
C2429 H2452 0.950 . S
C2430 C2429 1.349 . S
C2430 C2442 1.349 . S
C2431 C2429 1.327 . S
C2431 C2447 1.429 . S
C2431 H2453 0.950 . S
C2432 H2428 0.949 . S
C2432 C2440 1.574 . S
C2432 C2448 1.368 . S
H2433 C2441 0.950 . S
H2434 C2439 0.950 . S
H2435 C2440 0.949 . S
H2436 C2442 0.950 . S
H2437 C2443 0.950 . S
H2438 C2444 0.949 . S
C2439 H2434 0.950 . S
C2439 C2441 1.327 . S
C2439 C2445 1.429 . S
C2440 C2432 1.574 . S
C2440 H2435 0.949 . S
C2440 C2446 1.368 . S
C2441 C2425 1.349 . S
C2441 H2433 0.950 . S
C2441 C2439 1.327 . S
C2442 C2430 1.349 . S
C2442 H2436 0.950 . S
C2442 C2443 1.327 . S
C2443 H2437 0.950 . S
C2443 C2442 1.327 . S
C2443 C2447 1.429 . S
C2444 C2427 1.574 . S
C2444 H2438 0.949 . S
C2444 C2448 1.368 . S
C2445 C2426 1.429 . S
C2445 C2439 1.429 . S
C2445 C2446 1.523 . S
C2446 C2427 1.368 . S
C2446 C2440 1.368 . S
C2446 C2445 1.523 . S
C2447 C2431 1.429 . S
C2447 C2443 1.429 . S
C2447 C2448 1.523 . S
C2448 C2432 1.368 . S
C2448 C2444 1.368 . S
C2448 C2447 1.523 . S
H2449 C2424 0.950 . S
H2450 C2426 0.950 . S
H2451 C2427 0.949 . S
H2452 C2429 0.950 . S
H2453 C2431 0.950 . S
C2454 C2455 1.349 . S
C2454 C2456 1.327 . S
C2454 H2479 0.950 . S
C2455 C2454 1.349 . S
C2455 C2471 1.349 . S
C2456 C2454 1.327 . S
C2456 C2475 1.429 . S
C2456 H2480 0.950 . S
C2457 C2474 1.574 . S
C2457 C2476 1.368 . S
C2457 H2481 0.949 . S
H2458 C2462 0.949 . S
C2459 C2460 1.349 . S
C2459 C2461 1.327 . S
C2459 H2482 0.950 . S
C2460 C2459 1.349 . S
C2460 C2472 1.349 . S
C2461 C2459 1.327 . S
C2461 C2477 1.429 . S
C2461 H2483 0.950 . S
C2462 H2458 0.949 . S
C2462 C2470 1.574 . S
C2462 C2478 1.368 . S
H2463 C2471 0.950 . S
H2464 C2469 0.950 . S
H2465 C2470 0.949 . S
H2466 C2472 0.950 . S
H2467 C2473 0.950 . S
H2468 C2474 0.949 . S
C2469 H2464 0.950 . S
C2469 C2471 1.327 . S
C2469 C2475 1.429 . S
C2470 C2462 1.574 . S
C2470 H2465 0.949 . S
C2470 C2476 1.368 . S
C2471 C2455 1.349 . S
C2471 H2463 0.950 . S
C2471 C2469 1.327 . S
C2472 C2460 1.349 . S
C2472 H2466 0.950 . S
C2472 C2473 1.327 . S
C2473 H2467 0.950 . S
C2473 C2472 1.327 . S
C2473 C2477 1.429 . S
C2474 C2457 1.574 . S
C2474 H2468 0.949 . S
C2474 C2478 1.368 . S
C2475 C2456 1.429 . S
C2475 C2469 1.429 . S
C2475 C2476 1.523 . S
C2476 C2457 1.368 . S
C2476 C2470 1.368 . S
C2476 C2475 1.523 . S
C2477 C2461 1.429 . S
C2477 C2473 1.429 . S
C2477 C2478 1.523 . S
C2478 C2462 1.368 . S
C2478 C2474 1.368 . S
C2478 C2477 1.523 . S
H2479 C2454 0.950 . S
H2480 C2456 0.950 . S
H2481 C2457 0.949 . S
H2482 C2459 0.950 . S
H2483 C2461 0.950 . S
C2484 C2485 1.349 . S
C2484 C2486 1.327 . S
C2484 H2509 0.950 . S
C2485 C2484 1.349 . S
C2485 C2501 1.349 . S
C2486 C2484 1.327 . S
C2486 C2505 1.429 . S
C2486 H2510 0.950 . S
C2487 C2504 1.574 . S
C2487 C2506 1.368 . S
C2487 H2511 0.949 . S
H2488 C2492 0.949 . S
C2489 C2490 1.349 . S
C2489 C2491 1.327 . S
C2489 H2512 0.950 . S
C2490 C2489 1.349 . S
C2490 C2502 1.349 . S
C2491 C2489 1.327 . S
C2491 C2507 1.429 . S
C2491 H2513 0.950 . S
C2492 H2488 0.949 . S
C2492 C2500 1.574 . S
C2492 C2508 1.368 . S
H2493 C2501 0.950 . S
H2494 C2499 0.950 . S
H2495 C2500 0.949 . S
H2496 C2502 0.950 . S
H2497 C2503 0.950 . S
H2498 C2504 0.949 . S
C2499 H2494 0.950 . S
C2499 C2501 1.327 . S
C2499 C2505 1.429 . S
C2500 C2492 1.574 . S
C2500 H2495 0.949 . S
C2500 C2506 1.368 . S
C2501 C2485 1.349 . S
C2501 H2493 0.950 . S
C2501 C2499 1.327 . S
C2502 C2490 1.349 . S
C2502 H2496 0.950 . S
C2502 C2503 1.327 . S
C2503 H2497 0.950 . S
C2503 C2502 1.327 . S
C2503 C2507 1.429 . S
C2504 C2487 1.574 . S
C2504 H2498 0.949 . S
C2504 C2508 1.368 . S
C2505 C2486 1.429 . S
C2505 C2499 1.429 . S
C2505 C2506 1.523 . S
C2506 C2487 1.368 . S
C2506 C2500 1.368 . S
C2506 C2505 1.523 . S
C2507 C2491 1.429 . S
C2507 C2503 1.429 . S
C2507 C2508 1.523 . S
C2508 C2492 1.368 . S
C2508 C2504 1.368 . S
C2508 C2507 1.523 . S
H2509 C2484 0.950 . S
H2510 C2486 0.950 . S
H2511 C2487 0.949 . S
H2512 C2489 0.950 . S
H2513 C2491 0.950 . S
C2514 C2515 1.349 . S
C2514 C2516 1.327 . S
C2514 H2539 0.950 . S
C2515 C2514 1.349 . S
C2515 C2531 1.349 . S
C2516 C2514 1.327 . S
C2516 C2535 1.429 . S
C2516 H2540 0.950 . S
C2517 C2534 1.574 . S
C2517 C2536 1.368 . S
C2517 H2541 0.949 . S
H2518 C2522 0.949 . S
C2519 C2520 1.349 . S
C2519 C2521 1.327 . S
C2519 H2542 0.950 . S
C2520 C2519 1.349 . S
C2520 C2532 1.349 . S
C2521 C2519 1.327 . S
C2521 C2537 1.429 . S
C2521 H2543 0.950 . S
C2522 H2518 0.949 . S
C2522 C2530 1.574 . S
C2522 C2538 1.368 . S
H2523 C2531 0.950 . S
H2524 C2529 0.950 . S
H2525 C2530 0.949 . S
H2526 C2532 0.950 . S
H2527 C2533 0.950 . S
H2528 C2534 0.949 . S
C2529 H2524 0.950 . S
C2529 C2531 1.327 . S
C2529 C2535 1.429 . S
C2530 C2522 1.574 . S
C2530 H2525 0.949 . S
C2530 C2536 1.368 . S
C2531 C2515 1.349 . S
C2531 H2523 0.950 . S
C2531 C2529 1.327 . S
C2532 C2520 1.349 . S
C2532 H2526 0.950 . S
C2532 C2533 1.327 . S
C2533 H2527 0.950 . S
C2533 C2532 1.327 . S
C2533 C2537 1.429 . S
C2534 C2517 1.574 . S
C2534 H2528 0.949 . S
C2534 C2538 1.368 . S
C2535 C2516 1.429 . S
C2535 C2529 1.429 . S
C2535 C2536 1.523 . S
C2536 C2517 1.368 . S
C2536 C2530 1.368 . S
C2536 C2535 1.523 . S
C2537 C2521 1.429 . S
C2537 C2533 1.429 . S
C2537 C2538 1.523 . S
C2538 C2522 1.368 . S
C2538 C2534 1.368 . S
C2538 C2537 1.523 . S
H2539 C2514 0.950 . S
H2540 C2516 0.950 . S
H2541 C2517 0.949 . S
H2542 C2519 0.950 . S
H2543 C2521 0.950 . S
C2544 C2545 1.349 . S
C2544 C2546 1.327 . S
C2544 H2569 0.950 . S
C2545 C2544 1.349 . S
C2545 C2561 1.349 . S
C2546 C2544 1.327 . S
C2546 C2565 1.429 . S
C2546 H2570 0.950 . S
C2547 C2564 1.574 . S
C2547 C2566 1.368 . S
C2547 H2571 0.949 . S
H2548 C2552 0.949 . S
C2549 C2550 1.349 . S
C2549 C2551 1.327 . S
C2549 H2572 0.932 1_565 S
C2550 C2549 1.349 . S
C2550 C2562 1.349 . S
C2551 C2549 1.327 . S
C2551 C2567 1.429 . S
C2551 H2573 0.950 . S
C2552 H2548 0.949 . S
C2552 C2560 1.574 . S
C2552 C2568 1.368 . S
H2553 C2561 0.950 . S
H2554 C2559 0.950 . S
H2555 C2560 0.949 . S
H2556 C2562 0.950 . S
H2557 C2563 0.950 . S
H2558 C2564 0.949 . S
C2559 H2554 0.950 . S
C2559 C2561 1.327 . S
C2559 C2565 1.429 . S
C2560 C2552 1.574 . S
C2560 H2555 0.949 . S
C2560 C2566 1.368 . S
C2561 C2545 1.349 . S
C2561 H2553 0.950 . S
C2561 C2559 1.327 . S
C2562 C2550 1.349 . S
C2562 H2556 0.950 . S
C2562 C2563 1.327 . S
C2563 H2557 0.950 . S
C2563 C2562 1.327 . S
C2563 C2567 1.429 . S
C2564 C2547 1.574 . S
C2564 H2558 0.949 . S
C2564 C2568 1.368 . S
C2565 C2546 1.429 . S
C2565 C2559 1.429 . S
C2565 C2566 1.523 . S
C2566 C2547 1.368 . S
C2566 C2560 1.368 . S
C2566 C2565 1.523 . S
C2567 C2551 1.429 . S
C2567 C2563 1.429 . S
C2567 C2568 1.523 . S
C2568 C2552 1.368 . S
C2568 C2564 1.368 . S
C2568 C2567 1.523 . S
H2569 C2544 0.950 . S
H2570 C2546 0.950 . S
H2571 C2547 0.949 . S
H2572 C2549 0.932 1_545 S
H2573 C2551 0.950 . S
C2574 C2575 1.349 . S
C2574 C2576 1.327 . S
C2574 H2599 0.963 . S
C2575 C2574 1.349 . S
C2575 C2591 1.349 . S
C2576 C2574 1.327 . S
C2576 C2595 1.429 . S
C2576 H2600 0.950 . S
C2577 C2594 1.574 . S
C2577 C2596 1.368 . S
C2577 H2601 0.949 . S
H2578 C2582 0.949 . S
C2579 C2580 1.349 . S
C2579 C2581 1.327 . S
C2579 H2602 0.950 . S
C2580 C2579 1.349 . S
C2580 C2592 1.349 . S
C2581 C2579 1.327 . S
C2581 C2597 1.429 . S
C2581 H2603 0.950 . S
C2582 H2578 0.949 . S
C2582 C2590 1.574 . S
C2582 C2598 1.368 . S
H2583 C2591 0.950 . S
H2584 C2589 0.950 . S
H2585 C2590 0.949 . S
H2586 C2592 0.950 . S
H2587 C2593 0.950 . S
H2588 C2594 0.949 . S
C2589 H2584 0.950 . S
C2589 C2591 1.327 . S
C2589 C2595 1.429 . S
C2590 C2582 1.574 . S
C2590 H2585 0.949 . S
C2590 C2596 1.368 . S
C2591 C2575 1.349 . S
C2591 H2583 0.950 . S
C2591 C2589 1.327 . S
C2592 C2580 1.349 . S
C2592 H2586 0.950 . S
C2592 C2593 1.327 . S
C2593 H2587 0.950 . S
C2593 C2592 1.327 . S
C2593 C2597 1.429 . S
C2594 C2577 1.574 . S
C2594 H2588 0.949 . S
C2594 C2598 1.368 . S
C2595 C2576 1.429 . S
C2595 C2589 1.429 . S
C2595 C2596 1.523 . S
C2596 C2577 1.368 . S
C2596 C2590 1.368 . S
C2596 C2595 1.523 . S
C2597 C2581 1.429 . S
C2597 C2593 1.429 . S
C2597 C2598 1.523 . S
C2598 C2582 1.368 . S
C2598 C2594 1.368 . S
C2598 C2597 1.523 . S
H2599 C2574 0.963 . S
H2600 C2576 0.950 . S
H2601 C2577 0.949 . S
H2602 C2579 0.950 . S
H2603 C2581 0.950 . S
C2604 C2605 1.349 . S
C2604 C2606 1.327 . S
C2604 H2629 0.950 . S
C2605 C2604 1.349 . S
C2605 C2621 1.349 . S
C2606 C2604 1.327 . S
C2606 C2625 1.429 . S
C2606 H2630 0.950 . S
C2607 C2624 1.574 . S
C2607 C2626 1.368 . S
C2607 H2631 0.949 . S
H2608 C2612 0.949 . S
C2609 C2610 1.349 . S
C2609 C2611 1.327 . S
C2609 H2632 0.950 . S
C2610 C2609 1.349 . S
C2610 C2622 1.349 . S
C2611 C2609 1.327 . S
C2611 C2627 1.429 . S
C2611 H2633 0.950 . S
C2612 H2608 0.949 . S
C2612 C2620 1.574 . S
C2612 C2628 1.368 . S
H2613 C2621 0.950 . S
H2614 C2619 0.950 . S
H2615 C2620 0.949 . S
H2616 C2622 0.950 . S
H2617 C2623 0.950 . S
H2618 C2624 0.949 . S
C2619 H2614 0.950 . S
C2619 C2621 1.327 . S
C2619 C2625 1.429 . S
C2620 C2612 1.574 . S
C2620 H2615 0.949 . S
C2620 C2626 1.368 . S
C2621 C2605 1.349 . S
C2621 H2613 0.950 . S
C2621 C2619 1.327 . S
C2622 C2610 1.349 . S
C2622 H2616 0.950 . S
C2622 C2623 1.327 . S
C2623 H2617 0.950 . S
C2623 C2622 1.327 . S
C2623 C2627 1.429 . S
C2624 C2607 1.574 . S
C2624 H2618 0.949 . S
C2624 C2628 1.368 . S
C2625 C2606 1.429 . S
C2625 C2619 1.429 . S
C2625 C2626 1.523 . S
C2626 C2607 1.368 . S
C2626 C2620 1.368 . S
C2626 C2625 1.523 . S
C2627 C2611 1.429 . S
C2627 C2623 1.429 . S
C2627 C2628 1.523 . S
C2628 C2612 1.368 . S
C2628 C2624 1.368 . S
C2628 C2627 1.523 . S
H2629 C2604 0.950 . S
H2630 C2606 0.950 . S
H2631 C2607 0.949 . S
H2632 C2609 0.950 . S
H2633 C2611 0.950 . S
C2634 C2635 1.349 . S
C2634 C2636 1.327 . S
C2634 H2659 0.950 . S
C2635 C2634 1.349 . S
C2635 C2651 1.349 . S
C2636 C2634 1.327 . S
C2636 C2655 1.429 . S
C2636 H2660 0.950 . S
C2637 C2654 1.574 . S
C2637 C2656 1.368 . S
C2637 H2661 0.949 . S
H2638 C2642 0.949 . S
C2639 C2640 1.349 . S
C2639 C2641 1.327 . S
C2639 H2662 0.950 . S
C2640 C2639 1.349 . S
C2640 C2652 1.349 . S
C2641 C2639 1.327 . S
C2641 C2657 1.429 . S
C2641 H2663 0.950 . S
C2642 H2638 0.949 . S
C2642 C2650 1.574 . S
C2642 C2658 1.368 . S
H2643 C2651 0.950 . S
H2644 C2649 0.950 . S
H2645 C2650 0.949 . S
H2646 C2652 0.950 . S
H2647 C2653 0.950 . S
H2648 C2654 0.949 . S
C2649 H2644 0.950 . S
C2649 C2651 1.327 . S
C2649 C2655 1.429 . S
C2650 C2642 1.574 . S
C2650 H2645 0.949 . S
C2650 C2656 1.368 . S
C2651 C2635 1.349 . S
C2651 H2643 0.950 . S
C2651 C2649 1.327 . S
C2652 C2640 1.349 . S
C2652 H2646 0.950 . S
C2652 C2653 1.327 . S
C2653 H2647 0.950 . S
C2653 C2652 1.327 . S
C2653 C2657 1.429 . S
C2654 C2637 1.574 . S
C2654 H2648 0.949 . S
C2654 C2658 1.368 . S
C2655 C2636 1.429 . S
C2655 C2649 1.429 . S
C2655 C2656 1.523 . S
C2656 C2637 1.368 . S
C2656 C2650 1.368 . S
C2656 C2655 1.523 . S
C2657 C2641 1.429 . S
C2657 C2653 1.429 . S
C2657 C2658 1.523 . S
C2658 C2642 1.368 . S
C2658 C2654 1.368 . S
C2658 C2657 1.523 . S
H2659 C2634 0.950 . S
H2660 C2636 0.950 . S
H2661 C2637 0.949 . S
H2662 C2639 0.950 . S
H2663 C2641 0.950 . S
C505 C232 1.571 . S
C510 C3 1.548 . S
C535 C241 1.444 . S
C540 C22 1.460 . S
C565 C213 1.602 . S
C570 C31 1.611 . S
C595 C367 1.747 . S
C600 C45 1.747 . S
C625 C64 1.457 . S
C630 C339 1.425 . S
C655 C73 1.405 . S
C660 C358 1.423 . S
C685 C92 1.301 . S
C690 C484 1.305 . S
C715 C498 1.239 . S
C720 C106 1.240 . S
C745 C470 1.583 . S
C750 C120 1.593 . S
C775 C134 1.286 . S
C780 C288 1.290 . S
C805 C260 1.212 . S
C810 C148 1.215 . S
C835 C162 1.204 . S
C840 C274 1.205 . S
C865 C400 1.438 . S
C870 C171 1.415 . S
C895 C190 1.344 . S
C900 C409 1.329 . S
C925 C381 1.497 . S
C930 C199 1.499 . S
C955 C456 1.191 . S
C960 C302 1.188 . S
C985 C428 1.191 . S
C990 C316 1.194 . S
C1015 C330 1.170 . S
C1020 C442 1.163 . S
C1045 C259 1.091 . S
C1050 C9 1.085 . S
C1075 C273 1.375 . S
C1080 C21 1.371 . S
C1105 C287 2.102 . S
C1110 C37 1.931 . S
C1135 C51 1.180 . S
C1140 C469 1.203 . S
C1165 C63 2.075 . S
C1170 C483 2.047 . S
C1195 C79 1.317 . S
C1200 C497 1.345 . S
C1225 C91 1.083 . S
C1230 C345 1.075 . S
C1255 C357 1.372 . S
C1260 C105 1.374 . S
C1285 C373 1.284 . S
C1290 C119 1.380 . S
C1315 C219 1.103 . S
C1320 C133 1.108 . S
C1345 C147 2.037 . S
C1350 C231 2.075 . S
C1375 C161 1.304 . S
C1380 C247 1.274 . S
C1405 C177 1.079 . S
C1410 C427 1.115 . S
C1435 C441 1.227 . S
C1440 C189 1.230 . S
C1465 C455 1.738 . S
C1470 C205 1.579 . S
C1495 C387 1.072 . S
C1500 C301 1.095 1_554 S
C1525 C315 1.724 1_554 S
C1530 C399 1.743 1_556 S
C1555 C329 1.643 1_554 S
C1560 C415 1.621 . S
C1585 C386 1.471 . S
C1590 C8 1.463 . S
C1615 C17 1.319 . S
C1620 C395 1.268 . S
C1645 C36 1.453 . S
C1650 C414 1.525 . S
C1675 C176 1.402 . S
C1680 C50 1.392 . S
C1705 C59 1.244 . S
C1710 C185 1.362 . S
C1735 C78 1.457 . S
C1740 C204 1.402 . S
C1765 C297 1.433 . S
C1770 C87 1.448 . S
C1795 C101 1.424 . S
C1800 C311 1.322 . S
C1825 C325 1.258 . S
C1830 C115 1.373 . S
C1855 C129 1.436 . S
C1860 C423 1.416 . S
C1885 C437 1.814 . S
C1890 C143 1.614 . S
C1915 C451 1.139 . S
C1920 C157 1.199 . S
C1945 C344 1.604 . S
C1950 C218 1.603 . S
C1975 C353 1.364 . S
C1980 C227 1.278 . S
C2005 C372 1.272 . S
C2010 C246 1.296 . S
C2035 C255 1.371 . S
C2040 C465 1.348 . S
C2065 C479 1.487 . S
C2070 C269 1.653 . S
C2095 C493 1.475 . S
C2100 C283 1.343 . S
C2125 C7 0.763 . S
C2130 C233 0.762 . S
C2155 C23 0.727 . S
C2160 C245 0.723 . S
C2185 C35 0.768 . S
C2190 C217 0.768 . S
C2215 C371 1.046 . S
C2220 C49 1.044 . S
C2245 C343 0.691 . S
C2250 C65 0.699 . S
C2275 C359 0.720 . S
C2280 C77 0.715 . S
C2305 C485 0.558 . S
C2310 C93 0.562 . S
C2335 C499 0.625 . S
C2340 C107 0.624 . S
C2365 C471 0.857 . S
C2370 C121 0.859 . S
C2395 C135 0.599 . S
C2400 C289 0.595 . S
C2425 C149 0.588 . S
C2430 C261 0.593 . S
C2455 C163 0.629 . S
C2460 C275 0.629 . S
C2485 C401 0.770 . S
C2490 C175 0.776 . S
C2515 C413 0.761 . S
C2520 C191 0.762 . S
C2545 C203 0.920 . S
C2550 C385 0.919 . S
C2575 C303 0.699 . S
C2580 C457 0.708 . S
C2605 C429 0.619 . S
C2610 C317 0.630 . S
C2635 C443 0.601 . S
C2640 C331 0.602 . S
