# Generated by pormake.
# Topology kag, (6)-cn, num edge types: 1
# Building blocks:
#     Node 0, Type 0, BuildingBlock: BETDEL_clean_sbu_0, # of connection points: 6
#     Node 1, Type 0, BuildingBlock: BETDEL_clean_sbu_0, # of connection points: 6
#     Node 2, Type 0, BuildingBlock: BETDEL_clean_sbu_0, # of connection points: 6
#     Edge 3, Type (0, 0), BuildingBlock: MIFKUJ_clean_linker_0, # of connection points: 2
#     Edge 4, Type (0, 0), BuildingBlock: MIFKUJ_clean_linker_0, # of connection points: 2
#     Edge 5, Type (0, 0), BuildingBlock: MIFKUJ_clean_linker_0, # of connection points: 2
#     Edge 6, Type (0, 0), BuildingBlock: MIFKUJ_clean_linker_0, # of connection points: 2
#     Edge 7, Type (0, 0), BuildingBlock: MIFKUJ_clean_linker_0, # of connection points: 2
#     Edge 8, Type (0, 0), BuildingBlock: MIFKUJ_clean_linker_0, # of connection points: 2
#     Edge 9, Type (0, 0), BuildingBlock: MIFKUJ_clean_linker_0, # of connection points: 2
#     Edge 10, Type (0, 0), BuildingBlock: MIFKUJ_clean_linker_0, # of connection points: 2
#     Edge 11, Type (0, 0), BuildingBlock: MIFKUJ_clean_linker_0, # of connection points: 2
# Relax obj value: 0.008
# Max RMSD: 0.048
# Mean RMSD: 0.036
data_MOF--net-kag--node1-BETDEL_clean_sbu_0--edge1-MIFKUJ_clean_linker_0
_symmetry_space_group_name_H-M    P1
_symmetry_Int_Tables_number       1
_symmetry_cell_setting            triclinic
loop_
_symmetry_equiv_pos_as_xyz
'x, y, z'
_cell_length_a     39.91459
_cell_length_b     42.379432
_cell_length_c     19.112992
_cell_angle_alpha  94.146072
_cell_angle_beta   90.466288
_cell_angle_gamma 114.31232
loop_
_atom_site_label
_atom_site_type_symbol
_atom_site_fract_x
_atom_site_fract_y
_atom_site_fract_z
_atom_type_partial_charge
Dy0 Dy 0.9909 0.46979 0.0078 0.0
C1 C 0.08372 0.61341 0.01336 0.0
C2 C 0.94051 0.40343 0.0249 0.0
Dy3 Dy 0.03199 0.54625 0.01455 0.0
O4 O 0.96882 0.41143 0.98586 0.0
O5 O 0.94041 0.4316 0.05611 0.0
O6 O 0.01147 0.46327 0.90189 0.0
O7 O 1.00189 0.50759 0.92808 0.0
C8 C 0.01436 0.49283 0.88205 0.0
C9 C 1.00622 0.52178 0.13831 0.0
O10 O 0.9773 0.54624 0.98963 0.0
O11 O 0.9453 0.48822 0.00875 0.0
O12 O 0.0789 0.5936 0.0642 0.0
O13 O 0.05978 0.59668 0.96232 0.0
O14 O 1.00654 0.55021 0.11667 0.0
O15 O 0.02066 0.50819 0.09387 0.0
O16 O 0.04615 0.47378 0.04311 0.0
O17 O 0.07531 0.52606 0.99512 0.0
C18 C 0.94602 0.51896 0.99696 0.0
C19 C 0.07633 0.4983 0.02092 0.0
Dy20 Dy 0.55026 0.03017 1.00142 0.0
C21 C 0.40035 0.94025 0.02682 0.0
C22 C 0.61775 0.08099 0.97547 0.0
Dy23 Dy 0.46978 0.98911 0.00598 0.0
O24 O 0.61257 0.05478 0.01187 0.0
O25 O 0.58628 0.07871 0.95174 0.0
O26 O 0.5598 0.01418 0.10591 0.0
O27 O 0.51146 0.0208 0.0872 0.0
C28 C 0.52848 0.01088 0.13036 0.0
C29 C 0.49261 0.01019 0.87843 0.0
O30 O 0.46983 0.0404 0.04326 0.0
O31 O 0.52765 0.07098 1.00243 0.0
O32 O 0.40953 0.96002 0.97526 0.0
O33 O 0.42897 0.94789 0.0685 0.0
O34 O 0.462 0.00854 0.90397 0.0
O35 O 0.50874 0.9988 0.9204 0.0
O36 O 0.54972 0.97877 0.96295 0.0
O37 O 0.49125 0.94747 1.00086 0.0
C38 C 0.49613 0.06988 0.02628 0.0
C39 C 0.52298 0.94897 0.97739 0.0
Dy40 Dy 0.52594 0.54967 1.00283 0.0
C41 C 0.4912 0.4062 0.02409 0.0
C42 C 0.5368 0.61535 0.97163 0.0
Dy43 Dy 0.5001 0.47292 0.00697 0.0
O44 O 0.55573 0.60813 0.01842 0.0
O45 O 0.51226 0.58666 0.94115 0.0
O46 O 0.55111 0.55941 0.11179 0.0
O47 O 0.50345 0.51423 0.08618 0.0
C48 C 0.52821 0.53027 0.1333 0.0
C49 C 0.49635 0.49336 0.87805 0.0
O50 O 0.44558 0.47438 0.02502 0.0
O51 O 0.46426 0.53165 0.9991 0.0
O52 O 0.50745 0.4244 0.97299 0.0
O53 O 0.47934 0.42438 0.06654 0.0
O54 O 0.47226 0.46512 0.90091 0.0
O55 O 0.52221 0.50846 0.92366 0.0
O56 O 0.5775 0.54417 0.97424 0.0
O57 O 0.56116 0.49376 0.02964 0.0
C58 C 0.43813 0.50127 0.01297 0.0
C59 C 0.58636 0.52067 1.00153 0.0
H60 H 0.98986 0.53453 0.81363 0.0
H61 H 0.98881 0.53982 0.68653 0.0
H62 H 0.04511 0.47248 0.65535 0.0
H63 H 0.04588 0.46687 0.78186 0.0
H64 H 0.0717 0.52765 0.57276 0.0
H65 H 0.95662 0.43869 0.62506 0.0
H66 H 0.89813 0.41147 0.68424 0.0
H67 H 0.86259 0.48662 0.6112 0.0
H68 H 0.92119 0.51464 0.55228 0.0
H69 H 0.03005 0.47978 0.20701 0.0
H70 H 0.0315 0.47486 0.33408 0.0
H71 H 0.97728 0.54395 0.36564 0.0
H72 H 0.9759 0.54905 0.23899 0.0
H73 H 0.94994 0.48786 0.44793 0.0
H74 H 0.06754 0.57547 0.3917 0.0
H75 H 0.12511 0.59795 0.32798 0.0
H76 H 0.15543 0.52046 0.40626 0.0
H77 H 0.09774 0.49718 0.46963 0.0
C78 C 1.00246 0.5213 0.77967 0.0
C79 C 0.01776 0.50012 0.80738 0.0
C80 C 1.00168 0.52417 0.70714 0.0
C81 C 0.01652 0.50621 0.6614 0.0
C82 C 0.03343 0.48648 0.68957 0.0
C83 C 0.03379 0.48326 0.76179 0.0
C84 C 0.01306 0.50666 0.58401 0.0
C85 C 0.04507 0.51868 0.54541 0.0
C86 C 0.97834 0.49514 0.54829 0.0
C87 C 0.94346 0.479 0.58497 0.0
C88 C 0.93653 0.44968 0.62233 0.0
C89 C 0.90333 0.43405 0.65563 0.0
C90 C 0.8767 0.44733 0.6515 0.0
C91 C 0.88328 0.47638 0.61434 0.0
C92 C 0.91648 0.49215 0.58097 0.0
C93 C 0.01801 0.49352 0.24102 0.0
C94 C 1.00308 0.51498 0.21329 0.0
C95 C 0.01903 0.49085 0.31357 0.0
C96 C 1.00495 0.50944 0.3594 0.0
C97 C 0.98843 0.52951 0.33132 0.0
C98 C 0.9877 0.53242 0.25899 0.0
C99 C 1.00857 0.50908 0.43676 0.0
C100 C 0.97657 0.49702 0.47535 0.0
C101 C 0.0433 0.52019 0.47232 0.0
C102 C 0.07815 0.53437 0.43482 0.0
C103 C 0.08635 0.56305 0.39488 0.0
C104 C 0.11902 0.57597 0.3589 0.0
C105 C 0.14386 0.56058 0.36291 0.0
C106 C 0.13613 0.53232 0.40311 0.0
C107 C 0.10347 0.51927 0.43911 0.0
H108 H 0.16914 0.57061 0.33501 0.0
H109 H 0.8509 0.43495 0.67676 0.0
H110 H 0.5599 0.98559 0.22483 0.0
H111 H 0.55292 0.98563 0.35184 0.0
H112 H 0.47499 0.03144 0.33472 0.0
H113 H 0.48162 0.03111 0.20682 0.0
H114 H 0.53115 0.06545 0.44122 0.0
H115 H 0.44342 0.95033 0.36711 0.0
H116 H 0.42156 0.89228 0.30347 0.0
H117 H 0.50165 0.87075 0.41826 0.0
H118 H 0.52439 0.92894 0.48187 0.0
H119 H 0.46296 0.03814 0.78582 0.0
H120 H 0.47069 0.03961 0.65904 0.0
H121 H 0.54626 0.99099 0.67348 0.0
H122 H 0.53888 0.98982 0.80095 0.0
H123 H 0.49126 0.95865 0.56819 0.0
H124 H 0.57961 0.07289 0.64148 0.0
H125 H 0.60331 0.13125 0.70429 0.0
H126 H 0.52401 0.15465 0.59144 0.0
H127 H 0.49951 0.09623 0.5285 0.0
C128 C 0.54097 0.99534 0.24802 0.0
C129 C 0.52128 0.00832 0.20601 0.0
C130 C 0.53701 0.99534 0.32059 0.0
C131 C 0.51343 0.00852 0.35281 0.0
C132 C 0.49337 0.02119 0.31091 0.0
C133 C 0.49699 0.02078 0.23792 0.0
C134 C 0.51058 0.00965 0.43042 0.0
C135 C 0.52183 0.04207 0.46897 0.0
C136 C 0.49955 0.97923 0.46671 0.0
C137 C 0.48585 0.94415 0.42877 0.0
C138 C 0.4566 0.93335 0.37836 0.0
C139 C 0.444 0.90039 0.34237 0.0
C140 C 0.46027 0.87787 0.35669 0.0
C141 C 0.48911 0.88824 0.40716 0.0
C142 C 0.50184 0.9212 0.44325 0.0
C143 C 0.48156 0.02814 0.76208 0.0
C144 C 0.50028 0.01383 0.80314 0.0
C145 C 0.486 0.02904 0.68967 0.0
C146 C 0.50907 0.01544 0.65673 0.0
C147 C 0.52829 1.0016 0.69782 0.0
C148 C 0.52421 1.0011 0.77059 0.0
C149 C 0.51178 0.01445 0.57908 0.0
C150 C 0.50052 0.98204 0.5405 0.0
C151 C 0.52296 0.0449 0.54283 0.0
C152 C 0.53745 0.08002 0.5808 0.0
C153 C 0.56697 0.09034 0.63054 0.0
C154 C 0.58061 0.12347 0.66605 0.0
C155 C 0.5651 0.1466 0.65203 0.0
C156 C 0.53596 0.13668 0.60232 0.0
C157 C 0.52221 0.10357 0.56664 0.0
H158 H 0.57571 0.17224 0.67955 0.0
H159 H 0.45048 0.85236 0.32878 0.0
H160 H 0.55564 0.53722 0.81015 0.0
H161 H 0.56061 0.54315 0.68363 0.0
H162 H 0.44724 0.46993 0.64944 0.0
H163 H 0.44265 0.46311 0.77548 0.0
H164 H 0.48669 0.45465 0.55652 0.0
H165 H 0.47722 0.56027 0.63984 0.0
H166 H 0.49453 0.61497 0.71472 0.0
H167 H 0.60258 0.65438 0.63223 0.0
H168 H 0.58611 0.59969 0.55767 0.0
H169 H 0.46814 0.486 0.19892 0.0
H170 H 0.46174 0.47994 0.32527 0.0
H171 H 0.57465 0.55366 0.36362 0.0
H172 H 0.58059 0.56072 0.23784 0.0
H173 H 0.53443 0.56855 0.45441 0.0
H174 H 0.54393 0.46235 0.37231 0.0
H175 H 0.52636 0.40758 0.29753 0.0
H176 H 0.41778 0.3693 0.37765 0.0
H177 H 0.43456 0.42404 0.45219 0.0
C178 C 0.53172 0.52266 0.77564 0.0
C179 C 0.49875 0.49971 0.80266 0.0
C180 C 0.53452 0.52611 0.70326 0.0
C181 C 0.50419 0.5072 0.65661 0.0
C182 C 0.47109 0.48472 0.684 0.0
C183 C 0.46842 0.48098 0.75615 0.0
C184 C 0.50707 0.51011 0.57922 0.0
C185 C 0.49668 0.47957 0.53421 0.0
C186 C 0.52079 0.54258 0.54976 0.0
C187 C 0.53052 0.57575 0.59359 0.0
C188 C 0.50474 0.58053 0.63795 0.0
C189 C 0.51439 0.61153 0.68032 0.0
C190 C 0.54966 0.6381 0.67834 0.0
C191 C 0.57529 0.63376 0.63377 0.0
C192 C 0.5658 0.60278 0.59139 0.0
C193 C 0.49165 0.50063 0.23436 0.0
C194 C 0.52488 0.52382 0.2086 0.0
C195 C 0.48803 0.49711 0.30664 0.0
C196 C 0.51783 0.5161 0.35441 0.0
C197 C 0.55119 0.5388 0.32823 0.0
C198 C 0.55464 0.54268 0.25623 0.0
C199 C 0.51422 0.5131 0.4317 0.0
C200 C 0.52443 0.54363 0.47671 0.0
C201 C 0.5003 0.48062 0.46115 0.0
C202 C 0.49042 0.44742 0.41738 0.0
C203 C 0.51626 0.44232 0.37372 0.0
C204 C 0.50644 0.41127 0.33138 0.0
C205 C 0.47095 0.38501 0.3327 0.0
C206 C 0.44525 0.38968 0.37661 0.0
C207 C 0.45491 0.42069 0.41897 0.0
H208 H 0.46339 0.36103 0.29978 0.0
H209 H 0.55709 0.66206 0.71126 0.0
H210 H 0.14402 0.54798 0.99726 0.0
H211 H 0.20266 0.54318 0.99744 0.0
H212 H 0.14891 0.43704 0.05029 0.0
H213 H 0.08964 0.44185 0.05161 0.0
H214 H 0.21403 0.4714 0.12389 0.0
H215 H 0.17375 0.45469 0.88269 0.0
H216 H 0.14961 0.46828 0.77516 0.0
H217 H 0.24444 0.5655 0.77723 0.0
H218 H 0.26891 0.55274 0.88539 0.0
H219 H 0.37616 0.44412 0.04169 0.0
H220 H 0.3127 0.43877 0.04386 0.0
H221 H 0.34936 0.54497 0.99248 0.0
H222 H 0.41254 0.55046 0.98937 0.0
H223 H 0.28944 0.50319 0.91389 0.0
H224 H 0.32702 0.52182 0.15969 0.0
H225 H 0.35089 0.50888 0.2683 0.0
H226 H 0.26107 0.40788 0.25715 0.0
H227 H 0.23693 0.42006 0.14785 0.0
C228 C 0.14447 0.52352 0.00898 0.0
C229 C 0.11197 0.49515 0.02374 0.0
C230 C 0.17813 0.52081 0.00884 0.0
C231 C 0.18015 0.48953 0.02245 0.0
C232 C 0.14798 0.46137 0.03919 0.0
C233 C 0.11413 0.46413 0.03979 0.0
C234 C 0.21598 0.48658 0.01834 0.0
C235 C 0.23024 0.4777 0.07751 0.0
C236 C 0.23741 0.49528 0.95817 0.0
C237 C 0.22305 0.50283 0.89245 0.0
C238 C 0.18937 0.47905 0.86044 0.0
C239 C 0.17563 0.48661 0.79935 0.0
C240 C 0.19545 0.51776 0.76944 0.0
C241 C 0.22911 0.54138 0.80046 0.0
C242 C 0.24295 0.53398 0.86161 0.0
C243 C 0.37075 0.46636 0.03095 0.0
C244 C 0.39956 0.49774 0.01544 0.0
C245 C 0.33444 0.46328 0.03246 0.0
C246 C 0.32626 0.49154 0.0188 0.0
C247 C 0.35495 0.52278 1.00309 0.0
C248 C 0.39116 0.5259 1.00157 0.0
C249 C 0.28787 0.48877 0.01996 0.0
C250 C 0.27309 0.4965 0.96003 0.0
C251 C 0.26602 0.47897 0.07934 0.0
C252 C 0.28041 0.4717 0.14517 0.0
C253 C 0.31253 0.49675 0.18008 0.0
C254 C 0.32608 0.48957 0.24182 0.0
C255 C 0.30758 0.45754 0.26949 0.0
C256 C 0.27542 0.43266 0.23558 0.0
C257 C 0.26178 0.43969 0.17376 0.0
H258 H 0.31811 0.45203 0.31729 0.0
H259 H 0.18475 0.52357 0.72217 0.0
H260 H 0.6263 0.14654 0.95726 0.0
H261 H 0.68316 0.19915 0.96421 0.0
H262 H 0.74557 0.13807 0.99147 0.0
H263 H 0.68794 0.08546 0.99029 0.0
H264 H 0.77505 0.19135 0.07258 0.0
H265 H 0.7396 0.17819 0.83025 0.0
H266 H 0.69786 0.16871 0.7274 0.0
H267 H 0.6866 0.26307 0.79038 0.0
H268 H 0.72781 0.27286 0.89422 0.0
H269 H 0.9408 0.34081 0.97981 0.0
H270 H 0.88813 0.28366 0.97003 0.0
H271 H 0.81828 0.33077 0.05484 0.0
H272 H 0.87091 0.38761 0.06696 0.0
H273 H 0.79696 0.28338 0.91006 0.0
H274 H 0.83075 0.29092 0.15964 0.0
H275 H 0.87506 0.2986 0.25702 0.0
H276 H 0.89393 0.21185 0.1668 0.0
H277 H 0.8501 0.20402 0.06827 0.0
C278 C 0.6522 0.1443 0.96397 0.0
C279 C 0.65281 0.11193 0.97252 0.0
C280 C 0.68485 0.17445 0.96746 0.0
C281 C 0.71912 0.17283 0.97649 0.0
C282 C 0.71969 0.14024 0.98419 0.0
C283 C 0.6868 0.11012 0.98304 0.0
C284 C 0.75397 0.20529 0.98085 0.0
C285 C 0.77993 0.21106 0.03603 0.0
C286 C 0.76078 0.23149 0.93369 0.0
C287 C 0.73662 0.22612 0.87035 0.0
C288 C 0.72811 0.19685 0.82234 0.0
C289 C 0.70453 0.19142 0.76386 0.0
C290 C 0.68952 0.21523 0.75245 0.0
C291 C 0.69822 0.24463 0.79931 0.0
C292 C 0.72173 0.25016 0.85795 0.0
C293 C 0.91431 0.33882 0.99731 0.0
C294 C 0.90993 0.36855 0.0245 0.0
C295 C 0.8843 0.30626 0.99152 0.0
C296 C 0.84938 0.30311 0.01153 0.0
C297 C 0.84504 0.33272 0.03913 0.0
C298 C 0.87515 0.36509 0.04639 0.0
C299 C 0.81705 0.26914 1.00193 0.0
C300 C 0.79185 0.26325 0.94573 0.0
C301 C 0.81138 0.24255 0.04687 0.0
C302 C 0.83755 0.24719 0.10618 0.0
C303 C 0.84466 0.27374 0.16017 0.0
C304 C 0.8696 0.27806 0.21567 0.0
C305 C 0.8874 0.2558 0.21797 0.0
C306 C 0.88019 0.22911 0.16488 0.0
C307 C 0.85529 0.22472 0.10923 0.0
H308 H 0.90669 0.25918 0.26099 0.0
H309 H 0.67119 0.21092 0.70725 0.0
H310 H 0.58655 0.93922 0.98842 0.0
H311 H 0.59247 0.88377 0.98124 0.0
H312 H 0.47589 0.82934 0.9315 0.0
H313 H 0.46971 0.88435 0.94288 0.0
H314 H 0.49125 0.79648 0.01967 0.0
H315 H 0.54864 0.84179 0.80766 0.0
H316 H 0.59259 0.88457 0.7349 0.0
H317 H 0.68297 0.8795 0.84953 0.0
H318 H 0.63956 0.83701 0.92358 0.0
H319 H 0.48868 0.63277 0.89904 0.0
H320 H 0.4901 0.69091 0.8927 0.0
H321 H 0.59299 0.73565 0.01339 0.0
H322 H 0.59131 0.67743 0.02127 0.0
H323 H 0.58679 0.77306 0.88977 0.0
H324 H 0.5256 0.72634 0.10086 0.0
H325 H 0.47933 0.68139 0.16618 0.0
H326 H 0.39258 0.68741 0.04123 0.0
H327 H 0.4384 0.73204 0.97442 0.0
C328 C 0.56233 0.91538 0.97528 0.0
C329 C 0.52768 0.91609 0.9663 0.0
C330 C 0.56571 0.88364 0.9708 0.0
C331 C 0.53469 0.85207 0.95502 0.0
C332 C 0.50028 0.85309 0.94418 0.0
C333 C 0.49677 0.88463 0.95041 0.0
C334 C 0.53736 0.81782 0.95305 0.0
C335 C 0.51189 0.79143 0.99021 0.0
C336 C 0.5647 0.81099 0.91611 0.0
C337 C 0.59085 0.83649 0.87161 0.0
C338 C 0.5779 0.84999 0.81767 0.0
C339 C 0.60271 0.87416 0.77615 0.0
C340 C 0.64055 0.88482 0.78771 0.0
C341 C 0.65366 0.87126 0.8407 0.0
C342 C 0.62896 0.84711 0.88242 0.0
C343 C 0.51183 0.65504 0.92346 0.0
C344 C 0.5398 0.65062 0.96095 0.0
C345 C 0.51259 0.6882 0.91984 0.0
C346 C 0.54159 0.71754 0.95281 0.0
C347 C 0.57043 0.71335 0.98748 0.0
C348 C 0.56938 0.68011 0.9921 0.0
C349 C 0.54041 0.75217 0.95519 0.0
C350 C 0.5662 0.77846 0.91867 0.0
C351 C 0.513 0.75881 0.99157 0.0
C352 C 0.48543 0.73224 0.03216 0.0
C353 C 0.49667 0.71785 0.08691 0.0
C354 C 0.47052 0.69248 0.12428 0.0
C355 C 0.43304 0.68147 0.10773 0.0
C356 C 0.42162 0.69591 0.05391 0.0
C357 C 0.44767 0.72126 0.01632 0.0
H358 H 0.41284 0.66182 0.13671 0.0
H359 H 0.65971 0.90353 0.75551 0.0
H360 H 0.87735 0.46892 0.01424 0.0
H361 H 0.81886 0.47393 0.00938 0.0
H362 H 0.87462 0.58121 0.96502 0.0
H363 H 0.93389 0.57663 0.97099 0.0
H364 H 0.82281 0.57338 0.06046 0.0
H365 H 0.82562 0.5198 0.83437 0.0
H366 H 0.83383 0.47779 0.74813 0.0
H367 H 0.74628 0.39387 0.83655 0.0
H368 H 0.73776 0.43547 0.92389 0.0
H369 H 0.64831 0.57638 0.9676 0.0
H370 H 0.71132 0.58038 0.96262 0.0
H371 H 0.67399 0.47586 0.02454 0.0
H372 H 0.61124 0.47167 0.02998 0.0
H373 H 0.71859 0.48749 0.91023 0.0
H374 H 0.71897 0.54223 0.14093 0.0
H375 H 0.7108 0.5852 0.22501 0.0
H376 H 0.79277 0.66827 0.12386 0.0
H377 H 0.80105 0.62576 0.03848 0.0
C378 C 0.87739 0.49365 1.00317 0.0
C379 C 0.91046 0.52235 0.99261 0.0
C380 C 0.84376 0.49641 1.00015 0.0
C381 C 0.84219 0.52779 0.98576 0.0
C382 C 0.87513 0.55668 0.97592 0.0
C383 C 0.90897 0.55397 0.97912 0.0
C384 C 0.806 0.5301 0.98186 0.0
C385 C 0.80023 0.55503 0.0266 0.0
C386 C 0.7763 0.50591 0.93839 0.0
C387 C 0.78124 0.48074 0.88598 0.0
C388 C 0.80829 0.49237 0.83574 0.0
C389 C 0.81296 0.46861 0.78658 0.0
C390 C 0.79065 0.43313 0.78693 0.0
C391 C 0.76355 0.42136 0.83636 0.0
C392 C 0.75874 0.44503 0.88563 0.0
C393 C 0.65354 0.55428 0.9803 0.0
C394 C 0.62471 0.52373 0.9993 0.0
C395 C 0.68958 0.55666 0.97763 0.0
C396 C 0.69735 0.52845 0.99345 0.0
C397 C 0.6686 0.49792 0.01208 0.0
C398 C 0.63274 0.49565 0.01543 0.0
C399 C 0.73527 0.53026 0.98977 0.0
C400 C 0.74132 0.50608 0.94348 0.0
C401 C 0.76518 0.55528 0.03143 0.0
C402 C 0.7603 0.58084 0.08281 0.0
C403 C 0.735 0.56967 0.13621 0.0
C404 C 0.7304 0.59394 0.18419 0.0
C405 C 0.75117 0.62945 0.17964 0.0
C406 C 0.77665 0.64076 0.12723 0.0
C407 C 0.78132 0.61659 0.07905 0.0
H408 H 0.74758 0.6482 0.21685 0.0
H409 H 0.79427 0.41474 0.74882 0.0
H410 H 0.09648 0.66102 0.91522 0.0
H411 H 0.14711 0.71917 0.91753 0.0
H412 H 0.18915 0.70277 0.11398 0.0
H413 H 0.13828 0.64554 0.11284 0.0
H414 H 0.19377 0.76546 0.12136 0.0
H415 H 0.22736 0.69548 0.95131 0.0
H416 H 0.21907 0.65617 0.84467 0.0
H417 H 0.21026 0.73224 0.71787 0.0
H418 H 0.21803 0.77185 0.82394 0.0
H419 H 0.37965 0.89214 0.12405 0.0
H420 H 0.32278 0.83896 0.12219 0.0
H421 H 0.28369 0.86695 0.93554 0.0
H422 H 0.34064 0.91989 0.93681 0.0
H423 H 0.27539 0.8005 0.92057 0.0
H424 H 0.24669 0.8721 0.09548 0.0
H425 H 0.25776 0.91053 0.20438 0.0
H426 H 0.26051 0.82989 0.32486 0.0
H427 H 0.24992 0.79111 0.21655 0.0
C428 C 0.1165 0.67 0.9589 0.0
C429 C 0.11348 0.64878 0.01376 0.0
C430 C 0.14554 0.70314 0.96008 0.0
C431 C 0.17234 0.71535 0.01561 0.0
C432 C 0.16891 0.69415 0.07066 0.0
C433 C 0.13982 0.66132 0.06981 0.0
C434 C 0.2042 0.74996 0.01681 0.0
C435 C 0.21176 0.77294 0.07759 0.0
C436 C 0.22748 0.76019 0.95943 0.0
C437 C 0.22285 0.73645 0.89561 0.0
C438 C 0.22336 0.70371 0.90073 0.0
C439 C 0.21881 0.6814 0.8404 0.0
C440 C 0.21402 0.69166 0.77456 0.0
C441 C 0.21389 0.7243 0.76892 0.0
C442 C 0.21839 0.7467 0.82911 0.0
C443 C 0.35867 0.88717 0.08327 0.0
C444 C 0.3645 0.91019 0.03072 0.0
C445 C 0.32615 0.85678 0.08224 0.0
C446 C 0.29877 0.84897 0.02888 0.0
C447 C 0.30436 0.87235 0.97716 0.0
C448 C 0.33684 0.90269 0.97818 0.0
C449 C 0.26504 0.81579 0.02525 0.0
C450 C 0.25718 0.7931 0.96405 0.0
C451 C 0.24178 0.80563 0.08257 0.0
C452 C 0.24779 0.8288 0.14782 0.0
C453 C 0.24989 0.86264 0.14515 0.0
C454 C 0.25604 0.88447 0.20678 0.0
C455 C 0.25991 0.87268 0.27148 0.0
C456 C 0.25753 0.83899 0.2747 0.0
C457 C 0.2514 0.81706 0.21322 0.0
H458 H 0.26469 0.88963 0.31913 0.0
H459 H 0.21051 0.67435 0.7279 0.0
H460 H 0.52539 0.37223 0.94973 0.0
H461 H 0.51925 0.31304 0.95771 0.0
H462 H 0.44171 0.29922 0.1213 0.0
H463 H 0.44906 0.35955 0.11524 0.0
H464 H 0.48526 0.2692 0.15203 0.0
H465 H 0.41325 0.26314 0.94854 0.0
H466 H 0.39841 0.27982 0.8353 0.0
H467 H 0.4849 0.25882 0.73988 0.0
H468 H 0.50063 0.24249 0.85278 0.0
H469 H 0.44362 0.08415 0.09812 0.0
H470 H 0.43565 0.13886 0.10541 0.0
H471 H 0.52808 0.18369 0.9741 0.0
H472 H 0.53649 0.12982 0.96722 0.0
H473 H 0.46497 0.19309 0.93171 0.0
H474 H 0.53971 0.2053 0.14289 0.0
H475 H 0.55195 0.18723 0.25662 0.0
H476 H 0.4548 0.194 0.33717 0.0
H477 H 0.4417 0.21164 0.22348 0.0
C478 C 0.50702 0.35663 0.98748 0.0
C479 C 0.48741 0.37038 0.03138 0.0
C480 C 0.50332 0.32263 0.99171 0.0
C481 C 0.47923 0.30115 0.03877 0.0
C482 C 0.46021 0.3151 0.08408 0.0
C483 C 0.46434 0.34951 0.08052 0.0
C484 C 0.47448 0.26437 0.04014 0.0
C485 C 0.48004 0.25234 0.10398 0.0
C486 C 0.46772 0.24214 0.97758 0.0
C487 C 0.45825 0.25178 0.90933 0.0
C488 C 0.42926 0.26228 0.90353 0.0
C489 C 0.42067 0.27165 0.83937 0.0
C490 C 0.44074 0.27043 0.78046 0.0
C491 C 0.46939 0.25976 0.78556 0.0
C492 C 0.47812 0.25039 0.84961 0.0
C493 C 0.46224 0.10571 0.07095 0.0
C494 C 0.49073 0.1026 0.03224 0.0
C495 C 0.45771 0.13694 0.07531 0.0
C496 C 0.48131 0.16534 0.04031 0.0
C497 C 0.50952 0.16212 1.00141 0.0
C498 C 0.51436 0.13126 0.99782 0.0
C499 C 0.47692 0.19858 0.04297 0.0
C500 C 0.46953 0.20983 0.97979 0.0
C501 C 0.48147 0.21977 0.10612 0.0
C502 C 0.48947 0.20935 0.17445 0.0
C503 C 0.52077 0.20262 0.18465 0.0
C504 C 0.52791 0.19252 0.24914 0.0
C505 C 0.5041 0.18935 0.30401 0.0
C506 C 0.47317 0.19639 0.29458 0.0
C507 C 0.46589 0.20645 0.23014 0.0
H508 H 0.50967 0.18153 0.35391 0.0
H509 H 0.43405 0.2777 0.73084 0.0
loop_
_geom_bond_atom_site_label_1
_geom_bond_atom_site_label_2
_geom_bond_distance
_geom_bond_site_symmetry_2
_ccdc_geom_bond_type
Dy0 O4 2.398 . S
Dy0 O5 2.491 1_556 S
Dy0 O6 2.403 . S
Dy0 O7 2.664 1_655 S
Dy0 O11 2.326 . S
Dy0 O15 2.310 1_556 S
Dy0 O16 2.351 1_655 S
C1 O12 1.185 . S
C1 O13 1.355 1_554 S
C2 O4 1.185 . S
C2 O5 1.355 1_556 S
Dy3 O7 2.310 1_554 S
Dy3 O10 2.351 1_455 S
Dy3 O12 2.398 . S
Dy3 O13 2.491 1_554 S
Dy3 O14 2.403 . S
Dy3 O15 2.664 1_455 S
Dy3 O17 2.326 . S
O4 Dy0 2.398 . S
O4 C2 1.185 . S
O5 Dy0 2.491 1_554 S
O5 C2 1.355 1_554 S
O6 Dy0 2.403 . S
O6 C8 1.254 . S
O7 Dy0 2.664 1_455 S
O7 Dy3 2.310 1_556 S
O7 C8 1.268 1_455 S
C8 O6 1.254 . S
C8 O7 1.268 1_655 S
C9 O14 1.254 . S
C9 O15 1.268 1_455 S
O10 Dy3 2.351 1_655 S
O10 C18 1.249 1_554 S
O11 Dy0 2.326 . S
O11 C18 1.267 . S
O12 C1 1.185 . S
O12 Dy3 2.398 . S
O13 C1 1.355 1_556 S
O13 Dy3 2.491 1_556 S
O14 Dy3 2.403 . S
O14 C9 1.254 . S
O15 Dy0 2.310 1_554 S
O15 Dy3 2.664 1_655 S
O15 C9 1.268 1_655 S
O16 Dy0 2.351 1_455 S
O16 C19 1.249 1_556 S
O17 Dy3 2.326 . S
O17 C19 1.267 . S
C18 O10 1.249 1_556 S
C18 O11 1.267 . S
C19 O16 1.249 1_554 S
C19 O17 1.267 . S
Dy20 O24 2.398 . S
Dy20 O25 2.491 1_554 S
Dy20 O26 2.403 . S
Dy20 O27 2.664 1_545 S
Dy20 O31 2.326 . S
Dy20 O35 2.310 1_554 S
Dy20 O36 2.351 1_545 S
C21 O32 1.185 . S
C21 O33 1.355 1_556 S
C22 O24 1.185 . S
C22 O25 1.355 1_554 S
Dy23 O27 2.310 1_556 S
Dy23 O30 2.351 1_565 S
Dy23 O32 2.398 . S
Dy23 O33 2.491 1_556 S
Dy23 O34 2.403 . S
Dy23 O35 2.664 1_565 S
Dy23 O37 2.326 . S
O24 Dy20 2.398 . S
O24 C22 1.185 . S
O25 Dy20 2.491 1_556 S
O25 C22 1.355 1_556 S
O26 Dy20 2.403 . S
O26 C28 1.254 . S
O27 Dy20 2.664 1_565 S
O27 Dy23 2.310 1_554 S
O27 C28 1.268 1_565 S
C28 O26 1.254 . S
C28 O27 1.268 1_545 S
C29 O34 1.254 . S
C29 O35 1.268 1_565 S
O30 Dy23 2.351 1_545 S
O30 C38 1.249 1_556 S
O31 Dy20 2.326 . S
O31 C38 1.267 . S
O32 C21 1.185 . S
O32 Dy23 2.398 . S
O33 C21 1.355 1_554 S
O33 Dy23 2.491 1_554 S
O34 Dy23 2.403 . S
O34 C29 1.254 . S
O35 Dy20 2.310 1_556 S
O35 Dy23 2.664 1_545 S
O35 C29 1.268 1_545 S
O36 Dy20 2.351 1_565 S
O36 C39 1.249 1_554 S
O37 Dy23 2.326 . S
O37 C39 1.267 . S
C38 O30 1.249 1_554 S
C38 O31 1.267 . S
C39 O36 1.249 1_556 S
C39 O37 1.267 . S
Dy40 O44 2.398 . S
Dy40 O45 2.491 1_554 S
Dy40 O46 2.403 . S
Dy40 O47 2.664 . S
Dy40 O51 2.326 . S
Dy40 O55 2.310 1_554 S
Dy40 O56 2.351 . S
C41 O52 1.185 . S
C41 O53 1.355 1_556 S
C42 O44 1.185 . S
C42 O45 1.355 1_554 S
Dy43 O47 2.310 1_556 S
Dy43 O50 2.351 . S
Dy43 O52 2.398 . S
Dy43 O53 2.491 1_556 S
Dy43 O54 2.403 . S
Dy43 O55 2.664 . S
Dy43 O57 2.326 . S
O44 Dy40 2.398 . S
O44 C42 1.185 . S
O45 Dy40 2.491 1_556 S
O45 C42 1.355 1_556 S
O46 Dy40 2.403 . S
O46 C48 1.254 . S
O47 Dy40 2.664 . S
O47 Dy43 2.310 1_554 S
O47 C48 1.268 . S
C48 O46 1.254 . S
C48 O47 1.268 . S
C49 O54 1.254 . S
C49 O55 1.268 . S
O50 Dy43 2.351 . S
O50 C58 1.249 1_556 S
O51 Dy40 2.326 . S
O51 C58 1.267 . S
O52 C41 1.185 . S
O52 Dy43 2.398 . S
O53 C41 1.355 1_554 S
O53 Dy43 2.491 1_554 S
O54 Dy43 2.403 . S
O54 C49 1.254 . S
O55 Dy40 2.310 1_556 S
O55 Dy43 2.664 . S
O55 C49 1.268 . S
O56 Dy40 2.351 . S
O56 C59 1.249 1_554 S
O57 Dy43 2.326 . S
O57 C59 1.267 . S
C58 O50 1.249 1_554 S
C58 O51 1.267 . S
C59 O56 1.249 1_556 S
C59 O57 1.267 . S
H60 C78 0.951 . S
H61 C80 0.951 . S
H62 C82 0.950 . S
H63 C83 0.950 . S
H64 C85 0.950 . S
H65 C88 0.950 1_455 S
H66 C89 0.950 . S
H67 C91 0.950 . S
H68 C92 0.950 . S
H69 C93 0.951 . S
H70 C95 0.951 . S
H71 C97 0.950 . S
H72 C98 0.950 . S
H73 C100 0.950 . S
H74 C103 0.950 1_655 S
H75 C104 0.950 . S
H76 C106 0.950 . S
H77 C107 0.950 . S
C78 H60 0.951 . S
C78 C79 1.366 1_655 S
C78 C80 1.388 . S
C79 C78 1.366 1_455 S
C79 C83 1.385 . S
C80 H61 0.951 . S
C80 C78 1.388 . S
C80 C81 1.366 1_655 S
C81 C80 1.366 1_455 S
C81 C82 1.414 . S
C81 C84 1.499 . S
C82 H62 0.950 . S
C82 C81 1.414 . S
C82 C83 1.374 . S
C83 H63 0.950 . S
C83 C79 1.385 . S
C83 C82 1.374 . S
C84 C81 1.499 . S
C84 C85 1.373 . S
C84 C86 1.389 1_455 S
C85 H64 0.950 . S
C85 C84 1.373 . S
C85 C101 1.377 . S
C86 C84 1.389 1_655 S
C86 C87 1.524 . S
C86 C100 1.377 . S
C87 C86 1.524 . S
C87 C88 1.397 . S
C87 C92 1.363 . S
C88 H65 0.950 1_655 S
C88 C87 1.397 . S
C88 C89 1.334 . S
C89 H66 0.950 . S
C89 C88 1.334 . S
C89 C90 1.287 . S
C90 C89 1.287 . S
C90 C91 1.524 . S
C90 H109 0.913 . S
C91 H67 0.950 . S
C91 C90 1.524 . S
C91 C92 1.415 . S
C92 H68 0.950 . S
C92 C87 1.363 . S
C92 C91 1.415 . S
C93 H69 0.951 . S
C93 C94 1.340 1_455 S
C93 C95 1.388 . S
C94 C93 1.340 1_655 S
C94 C98 1.411 . S
C95 H70 0.951 . S
C95 C93 1.388 . S
C95 C96 1.358 1_455 S
C96 C95 1.358 1_655 S
C96 C97 1.422 . S
C96 C99 1.499 . S
C97 H71 0.950 . S
C97 C96 1.422 . S
C97 C98 1.374 . S
C98 H72 0.950 . S
C98 C94 1.411 . S
C98 C97 1.374 . S
C99 C96 1.499 . S
C99 C100 1.373 . S
C99 C101 1.389 1_655 S
C100 H73 0.950 . S
C100 C86 1.377 . S
C100 C99 1.373 . S
C101 C85 1.377 . S
C101 C99 1.389 1_455 S
C101 C102 1.524 . S
C102 C101 1.524 . S
C102 C103 1.397 . S
C102 C107 1.363 . S
C103 H74 0.950 1_455 S
C103 C102 1.397 . S
C103 C104 1.334 . S
C104 H75 0.950 . S
C104 C103 1.334 . S
C104 C105 1.287 . S
C105 C104 1.287 . S
C105 C106 1.524 . S
C105 H108 0.999 . S
C106 H76 0.950 . S
C106 C105 1.524 . S
C106 C107 1.415 . S
C107 H77 0.950 . S
C107 C102 1.363 . S
C107 C106 1.415 . S
H108 C105 0.999 . S
H109 C90 0.913 . S
H110 C128 0.951 . S
H111 C130 0.951 . S
H112 C132 0.950 . S
H113 C133 0.950 . S
H114 C135 0.950 . S
H115 C138 0.950 . S
H116 C139 0.950 . S
H117 C141 0.950 . S
H118 C142 0.950 . S
H119 C143 0.951 . S
H120 C145 0.951 . S
H121 C147 0.950 . S
H122 C148 0.950 . S
H123 C150 0.950 . S
H124 C153 0.950 . S
H125 C154 0.950 . S
H126 C156 0.950 . S
H127 C157 0.950 . S
C128 H110 0.951 . S
C128 C129 1.366 1_565 S
C128 C130 1.388 . S
C129 C128 1.366 1_545 S
C129 C133 1.385 . S
C130 H111 0.951 . S
C130 C128 1.388 . S
C130 C131 1.335 1_565 S
C131 C130 1.335 1_545 S
C131 C132 1.448 . S
C131 C134 1.497 . S
C132 H112 0.950 . S
C132 C131 1.448 . S
C132 C133 1.374 . S
C133 H113 0.950 . S
C133 C129 1.385 . S
C133 C132 1.374 . S
C134 C131 1.497 . S
C134 C135 1.373 . S
C134 C136 1.389 1_545 S
C135 H114 0.950 . S
C135 C134 1.373 . S
C135 C151 1.377 . S
C136 C134 1.389 1_565 S
C136 C137 1.524 . S
C136 C150 1.377 . S
C137 C136 1.524 . S
C137 C138 1.397 . S
C137 C142 1.363 . S
C138 H115 0.950 . S
C138 C137 1.397 . S
C138 C139 1.334 . S
C139 H116 0.950 . S
C139 C138 1.334 . S
C139 C140 1.287 . S
C140 C139 1.287 . S
C140 C141 1.524 . S
C140 H159 0.913 . S
C141 H117 0.950 . S
C141 C140 1.524 . S
C141 C142 1.415 . S
C142 H118 0.950 . S
C142 C137 1.363 . S
C142 C141 1.415 . S
C143 H119 0.951 . S
C143 C144 1.366 . S
C143 C145 1.388 . S
C144 C143 1.366 . S
C144 C148 1.385 1_545 S
C145 H120 0.951 . S
C145 C143 1.388 . S
C145 C146 1.366 . S
C146 C145 1.366 . S
C146 C147 1.414 1_545 S
C146 C149 1.499 . S
C147 H121 0.950 . S
C147 C146 1.414 1_565 S
C147 C148 1.374 . S
C148 H122 0.950 . S
C148 C144 1.385 1_565 S
C148 C147 1.374 . S
C149 C146 1.499 . S
C149 C150 1.373 1_545 S
C149 C151 1.389 . S
C150 H123 0.950 . S
C150 C136 1.377 . S
C150 C149 1.373 1_565 S
C151 C135 1.377 . S
C151 C149 1.389 . S
C151 C152 1.524 . S
C152 C151 1.524 . S
C152 C153 1.397 . S
C152 C157 1.363 . S
C153 H124 0.950 . S
C153 C152 1.397 . S
C153 C154 1.334 . S
C154 H125 0.950 . S
C154 C153 1.334 . S
C154 C155 1.287 . S
C155 C154 1.287 . S
C155 C156 1.524 . S
C155 H158 0.999 . S
C156 H126 0.950 . S
C156 C155 1.524 . S
C156 C157 1.415 . S
C157 H127 0.950 . S
C157 C152 1.363 . S
C157 C156 1.415 . S
H158 C155 0.999 . S
H159 C140 0.913 . S
H160 C178 0.951 . S
H161 C180 0.951 . S
H162 C182 0.950 . S
H163 C183 0.950 . S
H164 C185 0.950 . S
H165 C188 0.950 . S
H166 C189 0.950 . S
H167 C191 0.950 . S
H168 C192 0.950 . S
H169 C193 0.951 . S
H170 C195 0.951 . S
H171 C197 0.950 . S
H172 C198 0.950 . S
H173 C200 0.950 . S
H174 C203 0.950 . S
H175 C204 0.950 . S
H176 C206 0.950 . S
H177 C207 0.950 . S
C178 H160 0.951 . S
C178 C179 1.366 . S
C178 C180 1.388 . S
C179 C178 1.366 . S
C179 C183 1.385 . S
C180 H161 0.951 . S
C180 C178 1.388 . S
C180 C181 1.366 . S
C181 C180 1.366 . S
C181 C182 1.414 . S
C181 C184 1.499 . S
C182 H162 0.950 . S
C182 C181 1.414 . S
C182 C183 1.374 . S
C183 H163 0.950 . S
C183 C179 1.385 . S
C183 C182 1.374 . S
C184 C181 1.499 . S
C184 C185 1.373 . S
C184 C186 1.389 . S
C185 H164 0.950 . S
C185 C184 1.373 . S
C185 C201 1.377 . S
C186 C184 1.389 . S
C186 C187 1.524 . S
C186 C200 1.377 . S
C187 C186 1.524 . S
C187 C188 1.397 . S
C187 C192 1.363 . S
C188 H165 0.950 . S
C188 C187 1.397 . S
C188 C189 1.334 . S
C189 H166 0.950 . S
C189 C188 1.334 . S
C189 C190 1.287 . S
C190 C189 1.287 . S
C190 C191 1.524 . S
C190 H209 0.913 . S
C191 H167 0.950 . S
C191 C190 1.524 . S
C191 C192 1.415 . S
C192 H168 0.950 . S
C192 C187 1.363 . S
C192 C191 1.415 . S
C193 H169 0.951 . S
C193 C194 1.366 . S
C193 C195 1.388 . S
C194 C193 1.366 . S
C194 C198 1.385 . S
C195 H170 0.951 . S
C195 C193 1.388 . S
C195 C196 1.366 . S
C196 C195 1.366 . S
C196 C197 1.414 . S
C196 C199 1.499 . S
C197 H171 0.950 . S
C197 C196 1.414 . S
C197 C198 1.374 . S
C198 H172 0.950 . S
C198 C194 1.385 . S
C198 C197 1.374 . S
C199 C196 1.499 . S
C199 C200 1.373 . S
C199 C201 1.389 . S
C200 H173 0.950 . S
C200 C186 1.377 . S
C200 C199 1.373 . S
C201 C185 1.377 . S
C201 C199 1.389 . S
C201 C202 1.524 . S
C202 C201 1.524 . S
C202 C203 1.397 . S
C202 C207 1.363 . S
C203 H174 0.950 . S
C203 C202 1.397 . S
C203 C204 1.334 . S
C204 H175 0.950 . S
C204 C203 1.334 . S
C204 C205 1.287 . S
C205 C204 1.287 . S
C205 C206 1.524 . S
C205 H208 0.999 . S
C206 H176 0.950 . S
C206 C205 1.524 . S
C206 C207 1.415 . S
C207 H177 0.950 . S
C207 C202 1.363 . S
C207 C206 1.415 . S
H208 C205 0.999 . S
H209 C190 0.913 . S
H210 C228 0.951 . S
H211 C230 0.951 . S
H212 C232 0.950 . S
H213 C233 0.950 . S
H214 C235 0.950 . S
H215 C238 0.950 . S
H216 C239 0.950 . S
H217 C241 0.950 . S
H218 C242 0.950 . S
H219 C243 0.951 . S
H220 C245 0.951 . S
H221 C247 0.950 . S
H222 C248 0.950 . S
H223 C250 0.950 . S
H224 C253 0.950 . S
H225 C254 0.950 . S
H226 C256 0.950 . S
H227 C257 0.950 . S
C228 H210 0.951 . S
C228 C229 1.366 . S
C228 C230 1.388 . S
C229 C228 1.366 . S
C229 C233 1.385 1_556 S
C230 H211 0.951 . S
C230 C228 1.388 . S
C230 C231 1.366 . S
C231 C230 1.366 . S
C231 C232 1.414 1_556 S
C231 C234 1.499 . S
C232 H212 0.950 . S
C232 C231 1.414 1_554 S
C232 C233 1.374 . S
C233 H213 0.950 . S
C233 C229 1.385 1_554 S
C233 C232 1.374 . S
C234 C231 1.499 . S
C234 C235 1.373 1_556 S
C234 C236 1.389 . S
C235 H214 0.950 . S
C235 C234 1.373 1_554 S
C235 C251 1.377 . S
C236 C234 1.389 . S
C236 C237 1.524 . S
C236 C250 1.377 . S
C237 C236 1.524 . S
C237 C238 1.397 . S
C237 C242 1.363 . S
C238 H215 0.950 . S
C238 C237 1.397 . S
C238 C239 1.334 . S
C239 H216 0.950 . S
C239 C238 1.334 . S
C239 C240 1.287 . S
C240 C239 1.287 . S
C240 C241 1.524 . S
C240 H259 0.913 . S
C241 H217 0.950 . S
C241 C240 1.524 . S
C241 C242 1.415 . S
C242 H218 0.950 . S
C242 C237 1.363 . S
C242 C241 1.415 . S
C243 H219 0.951 . S
C243 C244 1.366 1_554 S
C243 C245 1.388 . S
C244 C243 1.366 1_556 S
C244 C248 1.385 . S
C245 H220 0.951 . S
C245 C243 1.388 . S
C245 C246 1.366 1_554 S
C246 C245 1.366 1_556 S
C246 C247 1.414 . S
C246 C249 1.499 . S
C247 H221 0.950 . S
C247 C246 1.414 . S
C247 C248 1.374 . S
C248 H222 0.950 . S
C248 C244 1.385 . S
C248 C247 1.374 . S
C249 C246 1.499 . S
C249 C250 1.373 . S
C249 C251 1.389 1_556 S
C250 H223 0.950 . S
C250 C236 1.377 . S
C250 C249 1.373 . S
C251 C235 1.377 . S
C251 C249 1.389 1_554 S
C251 C252 1.524 . S
C252 C251 1.524 . S
C252 C253 1.397 . S
C252 C257 1.363 . S
C253 H224 0.950 . S
C253 C252 1.397 . S
C253 C254 1.334 . S
C254 H225 0.950 . S
C254 C253 1.334 . S
C254 C255 1.287 . S
C255 C254 1.287 . S
C255 C256 1.524 . S
C255 H258 0.999 . S
C256 H226 0.950 . S
C256 C255 1.524 . S
C256 C257 1.415 . S
C257 H227 0.950 . S
C257 C252 1.363 . S
C257 C256 1.415 . S
H258 C255 0.999 . S
H259 C240 0.913 . S
H260 C278 0.951 . S
H261 C280 0.951 . S
H262 C282 0.950 . S
H263 C283 0.950 . S
H264 C285 0.950 . S
H265 C288 0.950 . S
H266 C289 0.950 . S
H267 C291 0.950 . S
H268 C292 0.950 . S
H269 C293 0.951 . S
H270 C295 0.951 . S
H271 C297 0.950 . S
H272 C298 0.950 . S
H273 C300 0.950 . S
H274 C303 0.950 . S
H275 C304 0.950 . S
H276 C306 0.950 . S
H277 C307 0.950 . S
C278 H260 0.951 . S
C278 C279 1.366 1_554 S
C278 C280 1.388 . S
C279 C278 1.366 1_556 S
C279 C283 1.385 . S
C280 H261 0.951 . S
C280 C278 1.388 . S
C280 C281 1.366 1_554 S
C281 C280 1.366 1_556 S
C281 C282 1.414 . S
C281 C284 1.499 . S
C282 H262 0.950 . S
C282 C281 1.414 . S
C282 C283 1.374 . S
C283 H263 0.950 . S
C283 C279 1.385 . S
C283 C282 1.374 . S
C284 C281 1.499 . S
C284 C285 1.373 1_556 S
C284 C286 1.389 . S
C285 H264 0.950 . S
C285 C284 1.373 1_554 S
C285 C301 1.377 . S
C286 C284 1.389 . S
C286 C287 1.524 . S
C286 C300 1.377 . S
C287 C286 1.524 . S
C287 C288 1.397 . S
C287 C292 1.363 . S
C288 H265 0.950 . S
C288 C287 1.397 . S
C288 C289 1.334 . S
C289 H266 0.950 . S
C289 C288 1.334 . S
C289 C290 1.287 . S
C290 C289 1.287 . S
C290 C291 1.524 . S
C290 H309 0.913 . S
C291 H267 0.950 . S
C291 C290 1.524 . S
C291 C292 1.415 . S
C292 H268 0.950 . S
C292 C287 1.363 . S
C292 C291 1.415 . S
C293 H269 0.951 . S
C293 C294 1.366 . S
C293 C295 1.388 . S
C294 C293 1.366 . S
C294 C298 1.385 1_556 S
C295 H270 0.951 . S
C295 C293 1.388 . S
C295 C296 1.366 1_556 S
C296 C295 1.366 1_554 S
C296 C297 1.414 . S
C296 C299 1.499 . S
C297 H271 0.950 . S
C297 C296 1.414 . S
C297 C298 1.374 . S
C298 H272 0.950 . S
C298 C294 1.385 1_554 S
C298 C297 1.374 . S
C299 C296 1.499 . S
C299 C300 1.373 1_554 S
C299 C301 1.389 . S
C300 H273 0.950 . S
C300 C286 1.377 . S
C300 C299 1.373 1_556 S
C301 C285 1.377 . S
C301 C299 1.389 . S
C301 C302 1.524 . S
C302 C301 1.524 . S
C302 C303 1.397 . S
C302 C307 1.363 . S
C303 H274 0.950 . S
C303 C302 1.397 . S
C303 C304 1.334 . S
C304 H275 0.950 . S
C304 C303 1.334 . S
C304 C305 1.287 . S
C305 C304 1.287 . S
C305 C306 1.524 . S
C305 H308 0.999 . S
C306 H276 0.950 . S
C306 C305 1.524 . S
C306 C307 1.415 . S
C307 H277 0.950 . S
C307 C302 1.363 . S
C307 C306 1.415 . S
H308 C305 0.999 . S
H309 C290 0.913 . S
H310 C328 0.951 . S
H311 C330 0.951 . S
H312 C332 0.950 . S
H313 C333 0.950 . S
H314 C335 0.950 . S
H315 C338 0.950 . S
H316 C339 0.950 . S
H317 C341 0.950 . S
H318 C342 0.950 . S
H319 C343 0.951 . S
H320 C345 0.951 . S
H321 C347 0.950 . S
H322 C348 0.950 . S
H323 C350 0.950 . S
H324 C353 0.950 . S
H325 C354 0.950 . S
H326 C356 0.950 . S
H327 C357 0.950 . S
C328 H310 0.951 . S
C328 C329 1.366 1_554 S
C328 C330 1.388 . S
C329 C328 1.366 1_556 S
C329 C333 1.385 . S
C330 H311 0.951 . S
C330 C328 1.388 . S
C330 C331 1.366 1_554 S
C331 C330 1.366 1_556 S
C331 C332 1.414 . S
C331 C334 1.499 . S
C332 H312 0.950 . S
C332 C331 1.414 . S
C332 C333 1.374 . S
C333 H313 0.950 . S
C333 C329 1.385 . S
C333 C332 1.374 . S
C334 C331 1.499 . S
C334 C335 1.373 1_556 S
C334 C336 1.389 . S
C335 H314 0.950 . S
C335 C334 1.373 1_554 S
C335 C351 1.377 . S
C336 C334 1.389 . S
C336 C337 1.524 . S
C336 C350 1.377 . S
C337 C336 1.524 . S
C337 C338 1.397 . S
C337 C342 1.363 . S
C338 H315 0.950 . S
C338 C337 1.397 . S
C338 C339 1.334 . S
C339 H316 0.950 . S
C339 C338 1.334 . S
C339 C340 1.287 . S
C340 C339 1.287 . S
C340 C341 1.524 . S
C340 H359 0.913 . S
C341 H317 0.950 . S
C341 C340 1.524 . S
C341 C342 1.415 . S
C342 H318 0.950 . S
C342 C337 1.363 . S
C342 C341 1.415 . S
C343 H319 0.951 . S
C343 C344 1.363 1_556 S
C343 C345 1.388 . S
C344 C343 1.363 1_554 S
C344 C348 1.387 . S
C345 H320 0.951 . S
C345 C343 1.388 . S
C345 C346 1.366 1_556 S
C346 C345 1.366 1_554 S
C346 C347 1.414 . S
C346 C349 1.499 . S
C347 H321 0.950 . S
C347 C346 1.414 . S
C347 C348 1.374 . S
C348 H322 0.950 . S
C348 C344 1.387 . S
C348 C347 1.374 . S
C349 C346 1.499 . S
C349 C350 1.373 1_554 S
C349 C351 1.389 . S
C350 H323 0.950 . S
C350 C336 1.377 . S
C350 C349 1.373 1_556 S
C351 C335 1.377 . S
C351 C349 1.389 . S
C351 C352 1.524 . S
C352 C351 1.524 . S
C352 C353 1.397 . S
C352 C357 1.363 . S
C353 H324 0.950 . S
C353 C352 1.397 . S
C353 C354 1.334 . S
C354 H325 0.950 . S
C354 C353 1.334 . S
C354 C355 1.287 . S
C355 C354 1.287 . S
C355 C356 1.524 . S
C355 H358 0.999 . S
C356 H326 0.950 . S
C356 C355 1.524 . S
C356 C357 1.415 . S
C357 H327 0.950 . S
C357 C352 1.363 . S
C357 C356 1.415 . S
H358 C355 0.999 . S
H359 C340 0.913 . S
H360 C378 0.951 . S
H361 C380 0.951 . S
H362 C382 0.950 . S
H363 C383 0.950 . S
H364 C385 0.950 . S
H365 C388 0.950 . S
H366 C389 0.950 . S
H367 C391 0.950 . S
H368 C392 0.950 . S
H369 C393 0.951 . S
H370 C395 0.951 . S
H371 C397 0.950 . S
H372 C398 0.950 . S
H373 C400 0.950 . S
H374 C403 0.950 . S
H375 C404 0.950 . S
H376 C406 0.950 . S
H377 C407 0.950 . S
C378 H360 0.951 . S
C378 C379 1.366 1_556 S
C378 C380 1.388 . S
C379 C378 1.366 1_554 S
C379 C383 1.385 . S
C380 H361 0.951 . S
C380 C378 1.388 . S
C380 C381 1.366 1_556 S
C381 C380 1.366 1_554 S
C381 C382 1.414 . S
C381 C384 1.499 . S
C382 H362 0.950 . S
C382 C381 1.414 . S
C382 C383 1.374 . S
C383 H363 0.950 . S
C383 C379 1.385 . S
C383 C382 1.374 . S
C384 C381 1.499 . S
C384 C385 1.373 . S
C384 C386 1.389 1_554 S
C385 H364 0.950 . S
C385 C384 1.373 . S
C385 C401 1.377 . S
C386 C384 1.389 1_556 S
C386 C387 1.524 . S
C386 C400 1.377 . S
C387 C386 1.524 . S
C387 C388 1.397 . S
C387 C392 1.363 . S
C388 H365 0.950 . S
C388 C387 1.397 . S
C388 C389 1.334 . S
C389 H366 0.950 . S
C389 C388 1.334 . S
C389 C390 1.287 . S
C390 C389 1.287 . S
C390 C391 1.524 . S
C390 H409 0.913 . S
C391 H367 0.950 . S
C391 C390 1.524 . S
C391 C392 1.415 . S
C392 H368 0.950 . S
C392 C387 1.363 . S
C392 C391 1.415 . S
C393 H369 0.951 . S
C393 C394 1.366 . S
C393 C395 1.388 . S
C394 C393 1.366 . S
C394 C398 1.385 1_554 S
C395 H370 0.951 . S
C395 C393 1.388 . S
C395 C396 1.366 . S
C396 C395 1.366 . S
C396 C397 1.414 1_554 S
C396 C399 1.499 . S
C397 H371 0.950 . S
C397 C396 1.414 1_556 S
C397 C398 1.374 . S
C398 H372 0.950 . S
C398 C394 1.385 1_556 S
C398 C397 1.374 . S
C399 C396 1.499 . S
C399 C400 1.373 1_554 S
C399 C401 1.389 . S
C400 H373 0.950 . S
C400 C386 1.377 . S
C400 C399 1.373 1_556 S
C401 C385 1.377 . S
C401 C399 1.389 . S
C401 C402 1.524 . S
C402 C401 1.524 . S
C402 C403 1.397 . S
C402 C407 1.363 . S
C403 H374 0.950 . S
C403 C402 1.397 . S
C403 C404 1.334 . S
C404 H375 0.950 . S
C404 C403 1.334 . S
C404 C405 1.287 . S
C405 C404 1.287 . S
C405 C406 1.524 . S
C405 H408 0.999 . S
C406 H376 0.950 . S
C406 C405 1.524 . S
C406 C407 1.415 . S
C407 H377 0.950 . S
C407 C402 1.363 . S
C407 C406 1.415 . S
H408 C405 0.999 . S
H409 C390 0.913 . S
H410 C428 0.951 . S
H411 C430 0.951 . S
H412 C432 0.950 . S
H413 C433 0.950 . S
H414 C435 0.950 . S
H415 C438 0.950 . S
H416 C439 0.950 . S
H417 C441 0.950 . S
H418 C442 0.950 . S
H419 C443 0.951 . S
H420 C445 0.951 . S
H421 C447 0.950 . S
H422 C448 0.950 . S
H423 C450 0.950 . S
H424 C453 0.950 . S
H425 C454 0.950 . S
H426 C456 0.950 . S
H427 C457 0.950 . S
C428 H410 0.951 . S
C428 C429 1.366 1_556 S
C428 C430 1.388 . S
C429 C428 1.366 1_554 S
C429 C433 1.385 . S
C430 H411 0.951 . S
C430 C428 1.388 . S
C430 C431 1.366 . S
C431 C430 1.366 . S
C431 C432 1.414 1_556 S
C431 C434 1.498 . S
C432 H412 0.950 . S
C432 C431 1.414 1_554 S
C432 C433 1.374 . S
C433 H413 0.950 . S
C433 C429 1.385 . S
C433 C432 1.374 . S
C434 C431 1.498 . S
C434 C435 1.360 1_556 S
C434 C436 1.403 . S
C435 H414 0.950 . S
C435 C434 1.360 1_554 S
C435 C451 1.377 . S
C436 C434 1.403 . S
C436 C437 1.524 . S
C436 C450 1.377 . S
C437 C436 1.524 . S
C437 C438 1.397 . S
C437 C442 1.363 . S
C438 H415 0.950 . S
C438 C437 1.397 . S
C438 C439 1.334 . S
C439 H416 0.950 . S
C439 C438 1.334 . S
C439 C440 1.287 . S
C440 C439 1.287 . S
C440 C441 1.524 . S
C440 H459 0.913 . S
C441 H417 0.950 . S
C441 C440 1.524 . S
C441 C442 1.415 . S
C442 H418 0.950 . S
C442 C437 1.363 . S
C442 C441 1.415 . S
C443 H419 0.951 . S
C443 C444 1.366 . S
C443 C445 1.388 . S
C444 C443 1.366 . S
C444 C448 1.385 1_554 S
C445 H420 0.951 . S
C445 C443 1.388 . S
C445 C446 1.366 . S
C446 C445 1.366 . S
C446 C447 1.414 1_554 S
C446 C449 1.499 . S
C447 H421 0.950 . S
C447 C446 1.414 1_556 S
C447 C448 1.374 . S
C448 H422 0.950 . S
C448 C444 1.385 1_556 S
C448 C447 1.374 . S
C449 C446 1.499 . S
C449 C450 1.373 1_554 S
C449 C451 1.389 . S
C450 H423 0.950 . S
C450 C436 1.377 . S
C450 C449 1.373 1_556 S
C451 C435 1.377 . S
C451 C449 1.389 . S
C451 C452 1.524 . S
C452 C451 1.524 . S
C452 C453 1.397 . S
C452 C457 1.363 . S
C453 H424 0.950 . S
C453 C452 1.397 . S
C453 C454 1.334 . S
C454 H425 0.950 . S
C454 C453 1.334 . S
C454 C455 1.287 . S
C455 C454 1.287 . S
C455 C456 1.524 . S
C455 H458 0.999 . S
C456 H426 0.950 . S
C456 C455 1.524 . S
C456 C457 1.415 . S
C457 H427 0.950 . S
C457 C452 1.363 . S
C457 C456 1.415 . S
H458 C455 0.999 . S
H459 C440 0.913 . S
H460 C478 0.951 . S
H461 C480 0.951 . S
H462 C482 0.950 . S
H463 C483 0.950 . S
H464 C485 0.950 . S
H465 C488 0.950 . S
H466 C489 0.950 . S
H467 C491 0.950 . S
H468 C492 0.950 . S
H469 C493 0.951 . S
H470 C495 0.951 . S
H471 C497 0.950 . S
H472 C498 0.950 . S
H473 C500 0.950 . S
H474 C503 0.950 . S
H475 C504 0.950 . S
H476 C506 0.950 . S
H477 C507 0.950 . S
C478 H460 0.951 . S
C478 C479 1.367 . S
C478 C480 1.388 . S
C479 C478 1.367 . S
C479 C483 1.383 1_556 S
C480 H461 0.951 . S
C480 C478 1.388 . S
C480 C481 1.366 . S
C481 C480 1.366 . S
C481 C482 1.414 1_556 S
C481 C484 1.499 . S
C482 H462 0.950 . S
C482 C481 1.414 1_554 S
C482 C483 1.374 . S
C483 H463 0.950 . S
C483 C479 1.383 1_554 S
C483 C482 1.374 . S
C484 C481 1.499 . S
C484 C485 1.373 1_556 S
C484 C486 1.389 . S
C485 H464 0.950 . S
C485 C484 1.373 1_554 S
C485 C501 1.377 . S
C486 C484 1.389 . S
C486 C487 1.524 . S
C486 C500 1.377 . S
C487 C486 1.524 . S
C487 C488 1.397 . S
C487 C492 1.363 . S
C488 H465 0.950 . S
C488 C487 1.397 . S
C488 C489 1.334 . S
C489 H466 0.950 . S
C489 C488 1.334 . S
C489 C490 1.287 . S
C490 C489 1.287 . S
C490 C491 1.524 . S
C490 H509 0.913 . S
C491 H467 0.950 . S
C491 C490 1.524 . S
C491 C492 1.415 . S
C492 H468 0.950 . S
C492 C487 1.363 . S
C492 C491 1.415 . S
C493 H469 0.951 . S
C493 C494 1.366 . S
C493 C495 1.388 . S
C494 C493 1.366 . S
C494 C498 1.385 1_554 S
C495 H470 0.951 . S
C495 C493 1.388 . S
C495 C496 1.366 . S
C496 C495 1.366 . S
C496 C497 1.414 1_554 S
C496 C499 1.499 . S
C497 H471 0.950 . S
C497 C496 1.414 1_556 S
C497 C498 1.374 . S
C498 H472 0.950 . S
C498 C494 1.385 1_556 S
C498 C497 1.374 . S
C499 C496 1.499 . S
C499 C500 1.373 1_554 S
C499 C501 1.389 . S
C500 H473 0.950 . S
C500 C486 1.377 . S
C500 C499 1.373 1_556 S
C501 C485 1.377 . S
C501 C499 1.389 . S
C501 C502 1.524 . S
C502 C501 1.524 . S
C502 C503 1.397 . S
C502 C507 1.363 . S
C503 H474 0.950 . S
C503 C502 1.397 . S
C503 C504 1.334 . S
C504 H475 0.950 . S
C504 C503 1.334 . S
C504 C505 1.287 . S
C505 C504 1.287 . S
C505 C506 1.524 . S
C505 H508 0.999 . S
C506 H476 0.950 . S
C506 C505 1.524 . S
C506 C507 1.415 . S
C507 H477 0.950 . S
C507 C502 1.363 . S
C507 C506 1.415 . S
H508 C505 0.999 . S
H509 C490 0.913 . S
C79 C8 1.460 1_455 S
C94 C9 1.461 1_655 S
C129 C28 1.456 . S
C144 C29 1.456 1_545 S
C179 C49 1.460 . S
C194 C48 1.460 . S
C229 C19 1.767 1_556 S
C244 C58 1.763 1_556 S
C279 C22 1.234 1_556 S
C294 C2 1.227 . S
C329 C39 1.513 . S
C344 C42 1.492 . S
C379 C18 1.768 1_554 S
C394 C59 1.763 1_554 S
C429 C1 1.227 . S
C444 C21 1.234 1_554 S
C479 C41 1.491 . S
C494 C38 1.513 . S
