# Generated by pormake.
# Topology vbm, (6)-cn, num edge types: 1
# Building blocks:
#     Node 0, Type 0, BuildingBlock: KUMBOL_clean_sbu_1, # of connection points: 6
#     Node 1, Type 0, BuildingBlock: KUMBOL_clean_sbu_1, # of connection points: 6
#     Node 2, Type 0, BuildingBlock: KUMBOL_clean_sbu_1, # of connection points: 6
#     Node 3, Type 0, BuildingBlock: KUMBOL_clean_sbu_1, # of connection points: 6
#     Node 4, Type 0, BuildingBlock: KUMBOL_clean_sbu_1, # of connection points: 6
#     Node 5, Type 0, BuildingBlock: KUMBOL_clean_sbu_1, # of connection points: 6
#     Node 6, Type 0, BuildingBlock: KUMBOL_clean_sbu_1, # of connection points: 6
#     Node 7, Type 0, BuildingBlock: KUMBOL_clean_sbu_1, # of connection points: 6
#     Node 8, Type 0, BuildingBlock: KUMBOL_clean_sbu_1, # of connection points: 6
#     Node 9, Type 0, BuildingBlock: KUMBOL_clean_sbu_1, # of connection points: 6
#     Node 10, Type 0, BuildingBlock: KUMBOL_clean_sbu_1, # of connection points: 6
#     Node 11, Type 0, BuildingBlock: KUMBOL_clean_sbu_1, # of connection points: 6
#     Node 12, Type 0, BuildingBlock: KUMBOL_clean_sbu_1, # of connection points: 6
#     Node 13, Type 0, BuildingBlock: KUMBOL_clean_sbu_1, # of connection points: 6
#     Node 14, Type 0, BuildingBlock: KUMBOL_clean_sbu_1, # of connection points: 6
#     Node 15, Type 0, BuildingBlock: KUMBOL_clean_sbu_1, # of connection points: 6
#     Edge 16, Type (0, 0), BuildingBlock: KIFKEQ_clean_linker_1, # of connection points: 2
#     Edge 17, Type (0, 0), BuildingBlock: KIFKEQ_clean_linker_1, # of connection points: 2
#     Edge 18, Type (0, 0), BuildingBlock: KIFKEQ_clean_linker_1, # of connection points: 2
#     Edge 19, Type (0, 0), BuildingBlock: KIFKEQ_clean_linker_1, # of connection points: 2
#     Edge 20, Type (0, 0), BuildingBlock: KIFKEQ_clean_linker_1, # of connection points: 2
#     Edge 21, Type (0, 0), BuildingBlock: KIFKEQ_clean_linker_1, # of connection points: 2
#     Edge 22, Type (0, 0), BuildingBlock: KIFKEQ_clean_linker_1, # of connection points: 2
#     Edge 23, Type (0, 0), BuildingBlock: KIFKEQ_clean_linker_1, # of connection points: 2
#     Edge 24, Type (0, 0), BuildingBlock: KIFKEQ_clean_linker_1, # of connection points: 2
#     Edge 25, Type (0, 0), BuildingBlock: KIFKEQ_clean_linker_1, # of connection points: 2
#     Edge 26, Type (0, 0), BuildingBlock: KIFKEQ_clean_linker_1, # of connection points: 2
#     Edge 27, Type (0, 0), BuildingBlock: KIFKEQ_clean_linker_1, # of connection points: 2
#     Edge 28, Type (0, 0), BuildingBlock: KIFKEQ_clean_linker_1, # of connection points: 2
#     Edge 29, Type (0, 0), BuildingBlock: KIFKEQ_clean_linker_1, # of connection points: 2
#     Edge 30, Type (0, 0), BuildingBlock: KIFKEQ_clean_linker_1, # of connection points: 2
#     Edge 31, Type (0, 0), BuildingBlock: KIFKEQ_clean_linker_1, # of connection points: 2
#     Edge 32, Type (0, 0), BuildingBlock: KIFKEQ_clean_linker_1, # of connection points: 2
#     Edge 33, Type (0, 0), BuildingBlock: KIFKEQ_clean_linker_1, # of connection points: 2
#     Edge 34, Type (0, 0), BuildingBlock: KIFKEQ_clean_linker_1, # of connection points: 2
#     Edge 35, Type (0, 0), BuildingBlock: KIFKEQ_clean_linker_1, # of connection points: 2
#     Edge 36, Type (0, 0), BuildingBlock: KIFKEQ_clean_linker_1, # of connection points: 2
#     Edge 37, Type (0, 0), BuildingBlock: KIFKEQ_clean_linker_1, # of connection points: 2
#     Edge 38, Type (0, 0), BuildingBlock: KIFKEQ_clean_linker_1, # of connection points: 2
#     Edge 39, Type (0, 0), BuildingBlock: KIFKEQ_clean_linker_1, # of connection points: 2
#     Edge 40, Type (0, 0), BuildingBlock: KIFKEQ_clean_linker_1, # of connection points: 2
#     Edge 41, Type (0, 0), BuildingBlock: KIFKEQ_clean_linker_1, # of connection points: 2
#     Edge 42, Type (0, 0), BuildingBlock: KIFKEQ_clean_linker_1, # of connection points: 2
#     Edge 43, Type (0, 0), BuildingBlock: KIFKEQ_clean_linker_1, # of connection points: 2
#     Edge 44, Type (0, 0), BuildingBlock: KIFKEQ_clean_linker_1, # of connection points: 2
#     Edge 45, Type (0, 0), BuildingBlock: KIFKEQ_clean_linker_1, # of connection points: 2
#     Edge 46, Type (0, 0), BuildingBlock: KIFKEQ_clean_linker_1, # of connection points: 2
#     Edge 47, Type (0, 0), BuildingBlock: KIFKEQ_clean_linker_1, # of connection points: 2
#     Edge 48, Type (0, 0), BuildingBlock: KIFKEQ_clean_linker_1, # of connection points: 2
#     Edge 49, Type (0, 0), BuildingBlock: KIFKEQ_clean_linker_1, # of connection points: 2
#     Edge 50, Type (0, 0), BuildingBlock: KIFKEQ_clean_linker_1, # of connection points: 2
#     Edge 51, Type (0, 0), BuildingBlock: KIFKEQ_clean_linker_1, # of connection points: 2
#     Edge 52, Type (0, 0), BuildingBlock: KIFKEQ_clean_linker_1, # of connection points: 2
#     Edge 53, Type (0, 0), BuildingBlock: KIFKEQ_clean_linker_1, # of connection points: 2
#     Edge 54, Type (0, 0), BuildingBlock: KIFKEQ_clean_linker_1, # of connection points: 2
#     Edge 55, Type (0, 0), BuildingBlock: KIFKEQ_clean_linker_1, # of connection points: 2
#     Edge 56, Type (0, 0), BuildingBlock: KIFKEQ_clean_linker_1, # of connection points: 2
#     Edge 57, Type (0, 0), BuildingBlock: KIFKEQ_clean_linker_1, # of connection points: 2
#     Edge 58, Type (0, 0), BuildingBlock: KIFKEQ_clean_linker_1, # of connection points: 2
#     Edge 59, Type (0, 0), BuildingBlock: KIFKEQ_clean_linker_1, # of connection points: 2
#     Edge 60, Type (0, 0), BuildingBlock: KIFKEQ_clean_linker_1, # of connection points: 2
#     Edge 61, Type (0, 0), BuildingBlock: KIFKEQ_clean_linker_1, # of connection points: 2
#     Edge 62, Type (0, 0), BuildingBlock: KIFKEQ_clean_linker_1, # of connection points: 2
#     Edge 63, Type (0, 0), BuildingBlock: KIFKEQ_clean_linker_1, # of connection points: 2
# Relax obj value: 0.077
# Max RMSD: 0.140
# Mean RMSD: 0.140
data_MOF--net-vbm--node1-KUMBOL_clean_sbu_1--edge1-KIFKEQ_clean_linker_1
_symmetry_space_group_name_H-M    P1
_symmetry_Int_Tables_number       1
_symmetry_cell_setting            triclinic
loop_
_symmetry_equiv_pos_as_xyz
'x, y, z'
_cell_length_a     55.070586
_cell_length_b     25.107499
_cell_length_c     58.734098
_cell_angle_alpha  89.935256
_cell_angle_beta   90.016089
_cell_angle_gamma 89.970491
loop_
_atom_site_label
_atom_site_type_symbol
_atom_site_fract_x
_atom_site_fract_y
_atom_site_fract_z
_atom_type_partial_charge
C0 C 0.21507 0.05636 0.11375 0.0
C1 C 0.23513 0.03993 0.14983 0.0
C2 C 0.21371 0.04353 0.13674 0.0
C3 C 0.25764 0.05161 0.13974 0.0
C4 C 0.23764 0.06684 0.10341 0.0
C5 C 0.2589 0.06502 0.11659 0.0
N6 N 0.19409 0.06012 0.10162 0.0
C7 C 0.19444 0.06977 0.07876 0.0
C8 C 0.23812 0.07895 0.08012 0.0
C9 C 0.21645 0.07984 0.0677 0.0
Gd10 Gd 0.13047 0.18734 0.13985 0.0
Gd11 Gd 0.15802 0.04502 0.12168 0.0
N12 N 0.19159 0.0332 0.14613 0.0
C13 C 0.23333 0.0236 0.17255 0.0
C14 C 0.19007 1.01264 0.1676 0.0
C15 C 0.21076 1.00886 0.18132 0.0
H16 H 0.17312 0.99762 0.17407 0.0
H17 H 0.20932 0.99373 0.19854 0.0
H18 H 0.09754 0.22552 0.09551 0.0
H19 H 0.17766 0.0706 0.06922 0.0
H20 H 0.05438 0.24347 0.08617 0.0
H21 H 0.24935 0.02034 0.18318 0.0
H22 H 0.27421 0.04956 0.14964 0.0
H23 H 0.13372 0.19292 0.19735 0.0
H24 H 0.25512 0.08719 0.07153 0.0
H25 H 0.21669 0.08847 0.04964 0.0
H26 H 0.01251 0.21445 0.15692 0.0
H27 H 0.2764 0.07349 0.109 0.0
H28 H 0.06131 0.18885 0.22361 0.0
H29 H 0.10572 0.18854 0.23003 0.0
N30 N 0.10559 0.18917 0.17252 0.0
C31 C 0.08132 0.19296 0.16871 0.0
C32 C 0.11443 0.19039 0.19425 0.0
C33 C 0.07354 0.18915 0.20916 0.0
C34 C 0.09859 0.18895 0.21285 0.0
C35 C 0.0646 0.1928 0.1869 0.0
H36 H 0.02655 0.19813 0.19611 0.0
N37 N 0.09007 0.20422 0.1298 0.0
C38 C 0.07333 0.2017 0.14669 0.0
C39 C 0.04167 0.22535 0.12003 0.0
C40 C 0.04856 0.21117 0.14219 0.0
C41 C 0.08377 0.22104 0.10849 0.0
C42 C 0.05943 0.23128 0.1032 0.0
O43 O 0.17752 0.12475 0.11702 0.0
O44 O 0.16847 0.16571 0.15006 0.0
O45 O 0.1463 0.25442 0.12186 0.0
O46 O 0.12815 0.26727 0.15397 0.0
O47 O 0.1405 0.04881 0.15631 0.0
O48 O 0.14792 0.13526 0.1674 0.0
O49 O 0.10477 0.12736 0.12382 0.0
O50 O 0.11903 0.0449 0.13471 0.0
O51 O 0.16698 0.961 0.12501 0.0
O52 O 0.1486 0.98906 0.09489 0.0
O53 O 0.1399 0.17636 0.10221 0.0
O54 O 0.13708 0.08575 0.09382 0.0
C55 C 0.18415 0.15517 0.13407 0.0
C56 C 0.1427 0.08518 0.17225 0.0
C57 C 0.15859 0.32888 0.14341 0.0
C58 C 0.17116 0.42234 0.14401 0.0
C59 C 0.19762 0.35313 0.15935 0.0
C60 C 0.18038 0.3143 0.15402 0.0
C61 C 0.19304 0.40679 0.15451 0.0
C62 C 0.15413 0.38263 0.13831 0.0
C63 C 0.14022 0.28894 0.13735 0.0
C64 C 0.03168 0.20805 0.16006 0.0
C65 C 0.03968 0.19871 0.18238 0.0
H66 H 0.02283 0.23316 0.1159 0.0
C67 C 0.10104 0.07716 0.1292 0.0
C68 C 0.13666 0.13635 0.08788 0.0
C69 C 0.13759 0.90426 0.10934 0.0
C70 C 0.12867 0.81066 0.11744 0.0
C71 C 0.09586 0.87525 0.11424 0.0
C72 C 0.11263 0.91567 0.11001 0.0
C73 C 0.10377 0.82316 0.11799 0.0
C74 C 0.14553 0.85159 0.11292 0.0
C75 C 0.15547 0.94758 0.10659 0.0
H76 H 0.21445 0.3417 0.16753 0.0
H77 H 0.18392 0.27312 0.15826 0.0
H78 H 0.20636 0.43615 0.15954 0.0
H79 H 0.13735 0.39336 0.12981 0.0
H80 H 0.07665 0.88442 0.11478 0.0
H81 H 0.10607 0.95592 0.10751 0.0
H82 H 0.09036 0.79251 0.12119 0.0
H83 H 0.16481 0.84284 0.11285 0.0
C84 C 0.81087 0.97771 0.11172 0.0
C85 C 0.78794 0.9928 0.1464 0.0
C86 C 0.81041 0.98713 0.1351 0.0
C87 C 0.76618 0.98707 0.13415 0.0
C88 C 0.78907 0.97287 0.09932 0.0
C89 C 0.76674 0.97719 0.11069 0.0
N90 N 0.83274 0.97229 0.10117 0.0
C91 C 0.83419 0.96441 0.07824 0.0
C92 C 0.79038 0.96366 0.07583 0.0
C93 C 0.81304 0.95967 0.06524 0.0
Gd94 Gd 0.89401 0.84278 0.14438 0.0
Gd95 Gd 0.86702 0.98348 0.12414 0.0
N96 N 0.8318 0.99242 0.1466 0.0
C97 C 0.78798 1.00555 0.16958 0.0
C98 C 0.83176 1.00977 0.16861 0.0
C99 C 0.80998 1.01503 0.18061 0.0
H100 H 0.84828 0.02197 0.17681 0.0
H101 H 0.81016 0.02778 0.19821 0.0
H102 H 0.92875 0.83464 0.09704 0.0
H103 H 0.85168 0.96217 0.07003 0.0
H104 H 0.97192 0.82601 0.08721 0.0
H105 H 0.77111 1.0103 0.17886 0.0
H106 H 0.74879 0.99105 0.14261 0.0
H107 H 0.89086 0.82989 0.20097 0.0
H108 H 0.77402 0.95982 0.0657 0.0
H109 H 0.81421 0.95312 0.04707 0.0
H110 H 0.01213 0.81006 0.15939 0.0
H111 H 0.74979 0.97333 0.10147 0.0
H112 H 0.96307 0.81121 0.22682 0.0
H113 H 0.91887 0.81929 0.23354 0.0
N114 N 0.919 0.83 0.17626 0.0
C115 C 0.94318 0.82494 0.17215 0.0
C116 C 0.91017 0.82765 0.19794 0.0
C117 C 0.95089 0.81642 0.2125 0.0
C118 C 0.92595 0.82106 0.21637 0.0
C119 C 0.9598 0.81807 0.19018 0.0
H120 H 0.99773 0.80781 0.19904 0.0
N121 N 0.93478 0.83373 0.13281 0.0
C122 C 0.95134 0.82648 0.14978 0.0
C123 C 0.9837 0.82139 0.12212 0.0
C124 C 0.97626 0.82075 0.14489 0.0
C125 C 0.94186 0.83212 0.11055 0.0
C126 C 0.96639 0.8266 0.10489 0.0
O127 O 0.84587 0.90569 0.11925 0.0
O128 O 0.85559 0.8651 0.15225 0.0
O129 O 0.88399 0.7718 0.12535 0.0
O130 O 0.8897 0.76684 0.16165 0.0
O131 O 0.8835 0.97906 0.15937 0.0
O132 O 0.8751 0.8935 0.1711 0.0
O133 O 0.92097 0.91057 0.14524 0.0
O134 O 0.90819 0.97752 0.12067 0.0
O135 O 0.86723 0.06708 0.13391 0.0
O136 O 0.86794 0.04533 0.09835 0.0
O137 O 0.8858 0.8534 0.10615 0.0
O138 O 0.89025 0.94315 0.09833 0.0
C139 C 0.84039 0.8718 0.13549 0.0
C140 C 0.88081 0.94345 0.17563 0.0
C141 C 0.90014 0.69165 0.13983 0.0
C142 C 0.90235 0.59669 0.13136 0.0
C143 C 0.93926 0.6472 0.13814 0.0
C144 C 0.92552 0.69308 0.14158 0.0
C145 C 0.9278 0.59925 0.13298 0.0
C146 C 0.88854 0.64319 0.13488 0.0
C147 C 0.88574 0.74047 0.14299 0.0
C148 C 0.99289 0.8143 0.16282 0.0
C149 C 0.98469 0.813 0.1854 0.0
H150 H 1.00269 0.81713 0.11765 0.0
C151 C 0.92511 0.95303 0.13275 0.0
C152 C 0.889 0.8934 0.09172 0.0
C153 C 0.8492 0.12711 0.1079 0.0
C154 C 0.84052 0.2226 0.10704 0.0
C155 C 0.81114 0.15906 0.09219 0.0
C156 C 0.82671 0.11701 0.09755 0.0
C157 C 0.81799 0.21154 0.09676 0.0
C158 C 0.85585 0.17973 0.11285 0.0
C159 C 0.86648 0.08398 0.11298 0.0
H160 H 0.95884 0.64878 0.13956 0.0
H161 H 0.93476 0.72949 0.14569 0.0
H162 H 0.93881 0.56393 0.1306 0.0
H163 H 0.86892 0.6418 0.13351 0.0
H164 H 0.79388 0.15102 0.08408 0.0
H165 H 0.82129 0.07694 0.09331 0.0
H166 H 0.80588 0.2434 0.0917 0.0
H167 H 0.87313 0.18711 0.1211 0.0
C168 C 0.20803 0.97822 0.41019 0.0
C169 C 0.24005 0.98991 0.38215 0.0
C170 C 0.21523 0.98677 0.38782 0.0
C171 C 0.25762 0.98213 0.39915 0.0
C172 C 0.22566 0.97284 0.42747 0.0
C173 C 0.25044 0.97352 0.42175 0.0
N174 N 0.18391 0.97864 0.41524 0.0
C175 C 0.17646 0.97994 0.4374 0.0
C176 C 0.21788 0.96897 0.4501 0.0
C177 C 0.19319 0.97358 0.4551 0.0
Gd178 Gd 0.13004 0.84141 0.36829 0.0
Gd179 Gd 0.15748 0.98657 0.38385 0.0
N180 N 0.19784 0.993 0.37162 0.0
C181 C 0.24643 1.00171 0.3596 0.0
C182 C 0.20382 1.00728 0.3499 0.0
C183 C 0.22822 1.01113 0.34348 0.0
H184 H 0.18969 1.01459 0.33751 0.0
H185 H 0.23297 0.02127 0.32613 0.0
H186 H 0.11522 0.79266 0.42059 0.0
H187 H 0.15769 0.98713 0.44163 0.0
H188 H 0.07832 0.77777 0.4432 0.0
H189 H 0.26531 1.00454 0.35457 0.0
H190 H 0.2768 0.98382 0.39509 0.0
H191 H 0.11209 0.85204 0.3145 0.0
H192 H 0.23084 0.96477 0.46387 0.0
H193 H 0.18707 0.9733 0.47262 0.0
H194 H 0.01327 0.80667 0.39028 0.0
H195 H 0.26422 0.96894 0.43479 0.0
H196 H 0.03449 0.84107 0.31244 0.0
H197 H 0.07375 0.85306 0.29255 0.0
N198 N 0.09458 0.84077 0.34632 0.0
C199 C 0.07338 0.83175 0.35743 0.0
C200 C 0.09503 0.84707 0.32326 0.0
C201 C 0.05125 0.84051 0.3221 0.0
C202 C 0.07337 0.84741 0.31081 0.0
C203 C 0.05106 0.83219 0.34568 0.0
H204 H 0.01201 0.82498 0.34912 0.0
N205 N 0.09617 0.81908 0.39106 0.0
C206 C 0.07416 0.82161 0.38059 0.0
C207 C 0.05407 0.79729 0.41565 0.0
C208 C 0.05251 0.81136 0.39265 0.0
C209 C 0.09782 0.80081 0.41293 0.0
C210 C 0.07686 0.791 0.42571 0.0
O211 O 0.18136 0.92055 0.36864 0.0
O212 O 0.16511 0.85055 0.38718 0.0
O213 O 0.12677 0.75553 0.37186 0.0
O214 O 0.14913 0.78862 0.34507 0.0
O215 O 0.14281 0.97649 0.34869 0.0
O216 O 0.14711 0.8877 0.33841 0.0
O217 O 0.10703 0.9149 0.36181 0.0
O218 O 0.11721 0.97279 0.39059 0.0
O219 O 0.1494 0.06029 0.36581 0.0
O220 O 0.16209 0.06315 0.40044 0.0
O221 O 0.14236 0.85695 0.4048 0.0
O222 O 0.13516 0.94621 0.41125 0.0
C223 C 0.1838 0.8728 0.37749 0.0
C224 C 0.14627 0.93929 0.33333 0.0
C225 C 0.13283 0.70146 0.33941 0.0
C226 C 0.12789 0.60556 0.33366 0.0
C227 C 0.12046 0.66748 0.30253 0.0
C228 C 0.12613 0.71043 0.31667 0.0
C229 C 0.12151 0.61535 0.31087 0.0
C230 C 0.13338 0.64897 0.34789 0.0
C231 C 0.14049 0.74544 0.3544 0.0
C232 C 0.0301 0.81387 0.38124 0.0
C233 C 0.02938 0.82412 0.35779 0.0
H234 H 0.03787 0.78916 0.42553 0.0
C235 C 0.10102 0.95165 0.37671 0.0
C236 C 0.13632 0.89656 0.4184 0.0
C237 C 0.13487 0.1302 0.38881 0.0
C238 C 0.11974 0.22197 0.38664 0.0
C239 C 0.09742 0.15415 0.40787 0.0
C240 C 0.11477 0.11602 0.40213 0.0
C241 C 0.09994 0.2067 0.40041 0.0
C242 C 0.13718 0.18289 0.38089 0.0
C243 C 0.15361 0.09037 0.38336 0.0
H244 H 0.11537 0.6746 0.28499 0.0
H245 H 0.12553 0.75043 0.30978 0.0
H246 H 0.11705 0.58267 0.29959 0.0
H247 H 0.13866 0.64181 0.36542 0.0
H248 H 0.08207 0.14307 0.41836 0.0
H249 H 0.11264 0.07561 0.40828 0.0
H250 H 0.08646 0.23543 0.40579 0.0
H251 H 0.15249 0.19305 0.37016 0.0
C252 C 0.81908 0.0525 0.41587 0.0
C253 C 0.78672 0.05283 0.3877 0.0
C254 C 0.81165 0.0525 0.39318 0.0
C255 C 0.7694 0.05297 0.40525 0.0
C256 C 0.80172 0.05277 0.4335 0.0
C257 C 0.77687 0.05292 0.42807 0.0
N258 N 0.84325 0.05351 0.42066 0.0
C259 C 0.85132 0.05304 0.44261 0.0
C260 C 0.80986 0.05328 0.4561 0.0
C261 C 0.83477 0.05325 0.46066 0.0
Gd262 Gd 0.89738 0.191 0.36748 0.0
Gd263 Gd 0.86928 0.05372 0.38921 0.0
N264 N 0.82884 0.05427 0.37651 0.0
C265 C 0.77994 0.05337 0.36473 0.0
C266 C 0.82235 0.05279 0.35412 0.0
C267 C 0.79784 0.05294 0.34788 0.0
H268 H 0.83592 0.05109 0.34099 0.0
H269 H 0.79276 0.05245 0.33008 0.0
H270 H 0.92632 0.21021 0.41808 0.0
H271 H 0.87054 0.05173 0.44623 0.0
H272 H 0.96796 0.2106 0.4327 0.0
H273 H 0.76097 0.05367 0.35982 0.0
H274 H 0.75017 0.05329 0.40136 0.0
H275 H 0.90214 0.19237 0.31075 0.0
H276 H 0.79709 0.05352 0.47012 0.0
H277 H 0.84123 0.05318 0.47807 0.0
H278 H 0.01743 0.20074 0.36573 0.0
H279 H 0.76328 0.05319 0.4414 0.0
H280 H 0.97757 0.19439 0.29327 0.0
H281 H 0.93442 0.19176 0.28157 0.0
N282 N 0.92673 0.19354 0.33857 0.0
C283 C 0.95029 0.19632 0.34538 0.0
C284 C 0.9209 0.19242 0.316 0.0
C285 C 0.96347 0.1944 0.30613 0.0
C286 C 0.93914 0.19271 0.29945 0.0
C287 C 0.96932 0.19632 0.32931 0.0
H288 H 1.00837 0.19747 0.32476 0.0
N289 N 0.93658 0.1967 0.38366 0.0
C290 C 0.95537 0.19777 0.36856 0.0
C291 C 0.98418 0.20291 0.39953 0.0
C292 C 0.97967 0.1999 0.37613 0.0
C293 C 0.94092 0.20397 0.40632 0.0
C294 C 0.9647 0.20589 0.41464 0.0
O295 O 0.84647 0.1299 0.39167 0.0
O296 O 0.85773 0.17739 0.36022 0.0
O297 O 0.89244 0.2682 0.38356 0.0
O298 O 0.89717 0.26314 0.34713 0.0
O299 O 0.88139 0.05788 0.35256 0.0
O300 O 0.87695 0.14484 0.34016 0.0
O301 O 0.92057 0.11692 0.36357 0.0
O302 O 0.91014 0.0633 0.39372 0.0
O303 O 0.86747 0.97723 0.37225 0.0
O304 O 0.87169 0.98038 0.40881 0.0
O305 O 0.8858 0.18321 0.40501 0.0
O306 O 0.89368 0.09552 0.4137 0.0
C307 C 0.84176 0.16588 0.37597 0.0
C308 C 0.87898 0.09318 0.33614 0.0
C309 C 0.87353 0.33405 0.36112 0.0
C310 C 0.86058 0.427 0.3631 0.0
C311 C 0.83323 0.35899 0.3484 0.0
C312 C 0.85106 0.32021 0.3517 0.0
C313 C 0.83793 0.41211 0.35394 0.0
C314 C 0.87812 0.38713 0.36704 0.0
C315 C 0.89269 0.29408 0.36434 0.0
C316 C 0.99867 0.19945 0.36019 0.0
C317 C 0.99351 0.1977 0.33685 0.0
H318 H 1.00258 0.20456 0.40603 0.0
C319 C 0.92602 0.08 0.37853 0.0
C320 C 0.89023 0.14498 0.41994 0.0
C321 C 0.89034 0.90934 0.38924 0.0
C322 C 0.90185 0.81639 0.38414 0.0
C323 C 0.93284 0.88522 0.38562 0.0
C324 C 0.91491 0.92389 0.38849 0.0
C325 C 0.92639 0.83173 0.38335 0.0
C326 C 0.88387 0.85555 0.38722 0.0
C327 C 0.87131 0.95014 0.39083 0.0
H328 H 0.81589 0.34805 0.3411 0.0
H329 H 0.84754 0.27964 0.34662 0.0
H330 H 0.82408 0.4416 0.3504 0.0
H331 H 0.8955 0.39726 0.37452 0.0
H332 H 0.95177 0.89679 0.38501 0.0
H333 H 0.92019 0.96508 0.38989 0.0
H334 H 0.94058 0.8023 0.38112 0.0
H335 H 0.86485 0.84437 0.38743 0.0
C336 C 0.94544 0.83583 0.84465 0.0
C337 C 0.97575 0.83448 0.87465 0.0
C338 C 0.95124 0.83556 0.86767 0.0
C339 C 0.99426 0.8346 0.85821 0.0
C340 C 0.96398 0.83553 0.82809 0.0
C341 C 0.98839 0.8351 0.835 0.0
N342 N 0.92166 0.83763 0.83847 0.0
C343 C 0.91514 0.83725 0.81607 0.0
C344 C 0.95741 0.83611 0.80507 0.0
C345 C 0.93287 0.83669 0.79904 0.0
Gd346 Gd 0.8647 0.97847 0.88961 0.0
Gd347 Gd 0.89318 0.84108 0.86814 0.0
N348 N 0.9329 0.83722 0.88321 0.0
C349 C 0.98093 0.83311 0.89795 0.0
C350 C 0.9379 0.83183 0.90584 0.0
C351 C 0.9619 0.83089 0.91359 0.0
H352 H 0.92362 0.82651 0.91802 0.0
H353 H 0.9657 0.82763 0.93163 0.0
H354 H 0.83514 0.99318 0.83923 0.0
H355 H 0.89622 0.83656 0.81131 0.0
H356 H 0.79312 0.994 0.82532 0.0
H357 H 0.99952 0.83234 0.90401 0.0
H358 H 0.01319 0.83414 0.86327 0.0
H359 H 0.86111 0.97029 0.94641 0.0
H360 H 0.97111 0.83588 0.79183 0.0
H361 H 0.92761 0.83658 0.78128 0.0
H362 H 0.74487 0.98054 0.89301 0.0
H363 H 1.00288 0.83512 0.82252 0.0
H364 H 0.78589 0.96743 0.96476 0.0
H365 H 0.82922 0.96469 0.97588 0.0
N366 N 0.83606 0.9741 0.91895 0.0
C367 C 0.81236 0.97699 0.91244 0.0
C368 C 0.84226 0.97037 0.94137 0.0
C369 C 0.7998 0.9696 0.95175 0.0
C370 C 0.82424 0.96782 0.9581 0.0
C371 C 0.79358 0.97428 0.92871 0.0
H372 H 0.7546 0.97355 0.93376 0.0
N373 N 0.8254 0.98149 0.8739 0.0
C374 C 0.80688 0.98077 0.88931 0.0
C375 C 0.77754 0.98607 0.85877 0.0
C376 C 0.78245 0.9822 0.88209 0.0
C377 C 0.82068 0.98799 0.85127 0.0
C378 C 0.79675 0.98954 0.84334 0.0
O379 O 0.91628 0.91522 0.86448 0.0
O380 O 0.90559 0.96945 0.89436 0.0
O381 O 0.86573 0.05767 0.87469 0.0
O382 O 0.86448 0.04828 0.91128 0.0
O383 O 0.88131 0.84879 0.90558 0.0
O384 O 0.8888 0.93661 0.91442 0.0
O385 O 0.84217 0.90209 0.8921 0.0
O386 O 0.8535 0.85464 0.86071 0.0
O387 O 0.89184 0.76418 0.88493 0.0
O388 O 0.89048 0.76815 0.84828 0.0
O389 O 0.8774 0.97488 0.85311 0.0
O390 O 0.873 0.88786 0.84077 0.0
C391 C 0.92158 0.95237 0.87936 0.0
C392 C 0.88592 0.88682 0.92052 0.0
C393 C 0.88605 0.12176 0.89681 0.0
C394 C 0.89846 0.21501 0.89429 0.0
C395 C 0.92688 0.14734 0.90763 0.0
C396 C 0.90919 0.10812 0.9049 0.0
C397 C 0.92157 0.20046 0.90256 0.0
C398 C 0.88089 0.17484 0.89122 0.0
C399 C 0.86697 0.08133 0.89438 0.0
C400 C 0.76372 0.97961 0.89828 0.0
C401 C 0.76927 0.97569 0.9215 0.0
H402 H 0.75902 0.98724 0.85254 0.0
C403 C 0.83713 0.8678 0.87588 0.0
C404 C 0.87537 0.93945 0.83671 0.0
C405 C 0.87013 0.69692 0.86625 0.0
C406 C 0.85781 0.60413 0.87006 0.0
C407 C 0.82736 0.67386 0.86722 0.0
C408 C 0.84569 0.71204 0.8657 0.0
C409 C 0.83334 0.62012 0.86951 0.0
C410 C 0.87618 0.64285 0.86825 0.0
C411 C 0.88934 0.73747 0.86609 0.0
H412 H 0.94467 0.13665 0.91402 0.0
H413 H 0.91349 0.06737 0.90932 0.0
H414 H 0.93544 0.23014 0.90559 0.0
H415 H 0.86311 0.18458 0.88448 0.0
H416 H 0.8085 0.68595 0.86686 0.0
H417 H 0.84099 0.75343 0.86438 0.0
H418 H 0.81888 0.59101 0.87077 0.0
H419 H 0.89512 0.63111 0.86907 0.0
C420 C 0.07827 0.19457 0.83767 0.0
C421 C 0.0454 0.19785 0.86519 0.0
C422 C 0.07036 0.19367 0.86014 0.0
C423 C 0.02852 0.20211 0.84737 0.0
C424 C 0.06137 0.19901 0.81974 0.0
C425 C 0.03647 0.20263 0.82471 0.0
N426 N 0.10247 0.19056 0.83335 0.0
C427 C 0.11101 0.19156 0.81154 0.0
C428 C 0.06999 0.19946 0.79731 0.0
C429 C 0.09492 0.19583 0.79322 0.0
Gd430 Gd 0.15571 0.04168 0.8849 0.0
Gd431 Gd 0.12791 0.18158 0.86514 0.0
N432 N 0.08715 0.18829 0.87705 0.0
C433 C 0.03817 0.19772 0.88802 0.0
C434 C 0.08024 0.19063 0.89934 0.0
C435 C 0.05569 0.19463 0.90515 0.0
H436 H 0.09347 0.19013 0.91278 0.0
H437 H 0.0503 0.19576 0.92287 0.0
H438 H 0.17611 1.00968 0.83194 0.0
H439 H 0.13029 0.1897 0.80826 0.0
H440 H 0.2148 1.00849 0.81128 0.0
H441 H 0.01916 0.20079 0.89261 0.0
H442 H 1.00926 0.2051 0.85093 0.0
H443 H 0.16953 0.05855 0.93962 0.0
H444 H 0.05757 0.20275 0.78307 0.0
H445 H 0.10175 0.19648 0.77594 0.0
H446 H 0.2744 0.04394 0.86876 0.0
H447 H 0.02321 0.20595 0.81115 0.0
H448 H 0.24699 0.06638 0.9456 0.0
H449 H 0.20631 0.06851 0.96348 0.0
N450 N 0.18934 0.05186 0.90879 0.0
C451 C 0.21151 0.0491 0.89862 0.0
C452 C 0.18724 0.05802 0.93176 0.0
C453 C 0.23095 0.06199 0.9351 0.0
C454 C 0.208 0.06336 0.94526 0.0
C455 C 0.23293 0.05476 0.91152 0.0
H456 H 0.27223 0.05787 0.91013 0.0
N457 N 0.19156 0.03647 0.8631 0.0
C458 C 0.21263 0.04192 0.87512 0.0
C459 C 0.23604 0.02894 0.84078 0.0
C460 C 0.2354 0.03921 0.86417 0.0
C461 C 0.1923 0.02168 0.84076 0.0
C462 C 0.21442 0.01916 0.82913 0.0
O463 O 0.10214 0.1115 0.86348 0.0
O464 O 0.11466 0.04759 0.88944 0.0
O465 O 0.15475 0.95951 0.87336 0.0
O466 O 0.15584 0.97691 0.90939 0.0
O467 O 0.13594 0.17073 0.90328 0.0
O468 O 0.13227 0.08057 0.91091 0.0
O469 O 0.17619 0.11991 0.89064 0.0
O470 O 0.16701 0.16288 0.85793 0.0
O471 O 0.13674 0.25395 0.88364 0.0
O472 O 0.13057 0.25723 0.84734 0.0
O473 O 0.13957 0.04712 0.84963 0.0
O474 O 0.14844 0.13301 0.83896 0.0
C475 C 0.0978 0.07049 0.87677 0.0
C476 C 0.13282 0.13041 0.91755 0.0
C477 C 0.17364 0.89616 0.89712 0.0
C478 C 0.18147 0.80044 0.89606 0.0
C479 C 0.21278 0.86179 0.90903 0.0
C480 C 0.19713 0.90478 0.90555 0.0
C481 C 0.20502 0.8099 0.90447 0.0
C482 C 0.16606 0.84425 0.89212 0.0
C483 C 0.15638 0.94011 0.89385 0.0
C484 C 0.25679 0.0456 0.87694 0.0
C485 C 0.25556 0.05332 0.90053 0.0
H486 H 0.25316 0.02649 0.83175 0.0
C487 C 0.18205 0.15427 0.87471 0.0
C488 C 0.14226 0.08381 0.83388 0.0
C489 C 0.11928 0.33235 0.86885 0.0
C490 C 0.11616 0.42783 0.87557 0.0
C491 C 0.07968 0.37403 0.87251 0.0
C492 C 0.09387 0.3288 0.86901 0.0
C493 C 0.09072 0.42333 0.87587 0.0
C494 C 0.13039 0.38208 0.87195 0.0
C495 C 0.13431 0.28448 0.86582 0.0
H496 H 0.23085 0.86861 0.91566 0.0
H497 H 0.2033 0.94441 0.90968 0.0
H498 H 0.21728 0.77723 0.90806 0.0
H499 H 0.148 0.83816 0.88525 0.0
H500 H 0.06008 0.37084 0.87261 0.0
H501 H 0.08496 0.29129 0.86644 0.0
H502 H 0.07939 0.45808 0.87845 0.0
H503 H 0.15004 0.38504 0.87191 0.0
C504 C 0.94641 0.18905 0.66724 0.0
C505 C 0.97703 0.18759 0.63753 0.0
C506 C 0.95244 0.18785 0.64427 0.0
C507 C 0.99537 0.18789 0.65414 0.0
C508 C 0.96479 0.18969 0.68397 0.0
C509 C 0.98927 0.18898 0.67729 0.0
N510 N 0.92256 0.18834 0.67323 0.0
C511 C 0.91583 0.18995 0.69558 0.0
C512 C 0.958 0.19058 0.70693 0.0
C513 C 0.93341 0.19096 0.71275 0.0
Gd514 Gd 0.86398 0.04698 0.62389 0.0
Gd515 Gd 0.89436 0.18428 0.64335 0.0
N516 N 0.93424 0.18574 0.62857 0.0
C517 C 0.98247 0.18708 0.61428 0.0
C518 C 0.93953 0.18867 0.60589 0.0
C519 C 0.96363 0.1884 0.59841 0.0
H520 H 0.92544 0.19256 0.5934 0.0
H521 H 0.96766 0.18984 0.58038 0.0
H522 H 0.83951 0.02335 0.67624 0.0
H523 H 0.89687 0.19132 0.70018 0.0
H524 H 0.79947 0.02652 0.69436 0.0
H525 H 1.00112 0.1868 0.60841 0.0
H526 H 0.01435 0.18737 0.64926 0.0
H527 H 0.85408 0.0589 0.56808 0.0
H528 H 0.97158 0.19116 0.72028 0.0
H529 H 0.92799 0.19213 0.73045 0.0
H530 H 0.74444 0.05735 0.63251 0.0
H531 H 1.00364 0.18924 0.6899 0.0
H532 H 0.7774 0.07152 0.55725 0.0
H533 H 0.81925 0.06987 0.54191 0.0
N534 N 0.83218 0.05588 0.59774 0.0
C535 C 0.80932 0.05507 0.60652 0.0
C536 C 0.83592 0.06043 0.57488 0.0
C537 C 0.79262 0.0668 0.56877 0.0
C538 C 0.81622 0.06611 0.56005 0.0
C539 C 0.78892 0.06123 0.59225 0.0
H540 H 0.74968 0.06714 0.59115 0.0
N541 N 0.82656 0.04525 0.64341 0.0
C542 C 0.80645 0.05017 0.62999 0.0
C543 C 0.78056 0.04337 0.66309 0.0
C544 C 0.78295 0.05036 0.63957 0.0
C545 C 0.82411 0.03422 0.66605 0.0
C546 C 0.80121 0.03435 0.67631 0.0
O547 O 0.91711 0.10982 0.6474 0.0
O548 O 0.9049 0.05323 0.61878 0.0
O549 O 0.86456 0.96619 0.63724 0.0
O550 O 0.86211 0.97951 0.60097 0.0
O551 O 0.88366 0.17466 0.6056 0.0
O552 O 0.88799 0.085 0.59797 0.0
O553 O 0.84384 0.1257 0.61918 0.0
O554 O 0.85456 0.17227 0.65082 0.0
O555 O 0.89168 0.25999 0.62565 0.0
O556 O 0.89356 0.25862 0.66232 0.0
O557 O 0.87837 0.05203 0.6598 0.0
O558 O 0.87359 0.13964 0.67096 0.0
C559 C 0.92149 0.07109 0.63303 0.0
C560 C 0.88665 0.13468 0.59115 0.0
C561 C 0.88407 0.90446 0.61335 0.0
C562 C 0.89705 0.81144 0.61492 0.0
C563 C 0.92427 0.87984 0.60023 0.0
C564 C 0.90661 0.91865 0.60403 0.0
C565 C 0.91953 0.82656 0.60545 0.0
C566 C 0.87951 0.8512 0.61907 0.0
C567 C 0.86508 0.94463 0.61711 0.0
C568 C 0.7626 0.05683 0.6254 0.0
C569 C 0.76557 0.06223 0.60183 0.0
H570 H 0.76283 0.04323 0.67109 0.0
C571 C 0.83854 0.1602 0.6352 0.0
C572 C 0.8765 0.08856 0.67577 0.0
C573 C 0.87186 0.32897 0.64519 0.0
C574 C 0.85947 0.42167 0.64117 0.0
C575 C 0.82935 0.35316 0.64849 0.0
C576 C 0.84764 0.31468 0.64895 0.0
C577 C 0.83517 0.40643 0.64446 0.0
C578 C 0.8778 0.38262 0.64155 0.0
C579 C 0.8909 0.28804 0.64427 0.0
H580 H 0.94158 0.89098 0.59291 0.0
H581 H 0.91048 0.95954 0.59949 0.0
H582 H 0.93332 0.79722 0.60158 0.0
H583 H 0.86225 0.84101 0.62677 0.0
H584 H 0.81064 0.34176 0.65127 0.0
H585 H 0.84306 0.27376 0.65218 0.0
H586 H 0.82076 0.43584 0.64427 0.0
H587 H 0.89656 0.39383 0.63861 0.0
C588 C 0.07466 0.84146 0.66289 0.0
C589 C 0.04496 0.82404 0.63325 0.0
C590 C 0.06919 0.83191 0.64023 0.0
C591 C 0.02614 0.82894 0.64924 0.0
C592 C 0.05587 0.84369 0.67919 0.0
C593 C 0.03158 0.83893 0.67215 0.0
N594 N 0.09838 0.84464 0.66919 0.0
C595 C 0.10449 0.84392 0.69175 0.0
C596 C 0.06211 0.84836 0.70219 0.0
C597 C 0.08653 0.84737 0.70852 0.0
Gd598 Gd 0.15331 0.99061 0.6267 0.0
Gd599 Gd 0.12693 0.8424 0.63918 0.0
N600 N 0.08772 0.82855 0.62508 0.0
C601 C 0.04046 0.81059 0.61049 0.0
C602 C 0.08365 0.81302 0.60315 0.0
C603 C 0.05994 0.80432 0.59545 0.0
H604 H 0.09874 0.80817 0.59158 0.0
H605 H 0.05668 0.79299 0.57795 0.0
H606 H 0.15501 0.04906 0.67855 0.0
H607 H 0.12318 0.84005 0.69704 0.0
H608 H 0.18561 0.07112 0.70766 0.0
H609 H 0.0221 0.8041 0.60448 0.0
H610 H 1.00737 0.82386 0.64415 0.0
H611 H 0.18337 0.97443 0.57812 0.0
H612 H 0.04823 0.85028 0.71524 0.0
H613 H 0.09154 0.84833 0.72633 0.0
H614 H 0.26174 0.03535 0.67098 0.0
H615 H 0.01691 0.84115 0.6844 0.0
H616 H 0.25962 0.98654 0.59207 0.0
H617 H 0.22607 0.97177 0.56471 0.0
N618 N 0.19306 0.98857 0.61257 0.0
C619 C 0.21105 1.00001 0.62757 0.0
C620 C 0.19804 0.98089 0.59003 0.0
C621 C 0.24099 0.98767 0.59797 0.0
C622 C 0.2221 0.97933 0.58247 0.0
C623 C 0.23559 0.99906 0.62076 0.0
H624 H 0.2728 1.00953 0.63192 0.0
N625 N 0.18083 0.01811 0.65503 0.0
C626 C 0.20475 1.01444 0.64956 0.0
C627 C 0.21588 0.04732 0.68678 0.0
C628 C 0.22295 0.0285 0.66535 0.0
C629 C 0.17391 0.04089 0.67511 0.0
C630 C 0.19125 0.05449 0.69151 0.0
O631 O 0.10307 0.90516 0.62226 0.0
O632 O 0.11459 0.983 0.63944 0.0
O633 O 0.15573 0.07806 0.62754 0.0
O634 O 0.14052 0.03676 0.59805 0.0
O635 O 0.14064 0.85597 0.60291 0.0
O636 O 0.13751 0.94728 0.59684 0.0
O637 O 0.17715 0.91704 0.62126 0.0
O638 O 0.16513 0.86144 0.64987 0.0
O639 O 0.14076 0.77177 0.6222 0.0
O640 O 0.12268 0.76425 0.65459 0.0
O641 O 0.13442 0.97497 0.66008 0.0
O642 O 0.14464 0.88824 0.66845 0.0
C643 C 0.09773 0.95253 0.63036 0.0
C644 C 0.13961 0.89811 0.58937 0.0
C645 C 0.14178 0.13302 0.59544 0.0
C646 C 0.13984 0.23041 0.59502 0.0
C647 C 0.12967 0.17982 0.56103 0.0
C648 C 0.13426 0.13238 0.57257 0.0
C649 C 0.13239 0.22847 0.57212 0.0
C650 C 0.14472 0.18229 0.60659 0.0
C651 C 0.14614 0.08204 0.60736 0.0
C652 C 0.24751 0.02521 0.659 0.0
C653 C 0.25381 1.0106 0.63674 0.0
H654 H 0.22929 0.05843 0.69941 0.0
C655 C 0.18165 0.87791 0.63552 0.0
C656 C 0.13954 0.93734 0.67482 0.0
C657 C 0.15273 0.70071 0.64593 0.0
C658 C 0.16651 0.60825 0.64754 0.0
C659 C 0.19083 0.67892 0.66443 0.0
C660 C 0.17346 0.71661 0.65799 0.0
C661 C 0.18744 0.62508 0.65925 0.0
C662 C 0.14929 0.64668 0.64081 0.0
C663 C 0.13445 0.73971 0.63857 0.0
H664 H 0.12399 0.17888 0.54339 0.0
H665 H 0.13194 0.09515 0.56353 0.0
H666 H 0.12894 0.26473 0.56264 0.0
H667 H 0.15031 0.1832 0.62428 0.0
H668 H 0.2069 0.69143 0.67358 0.0
H669 H 0.17623 0.75806 0.66232 0.0
H670 H 0.20099 0.59655 0.66475 0.0
H671 H 0.13328 0.63471 0.63136 0.0
C672 C 0.71019 0.53931 0.11842 0.0
C673 C 0.72867 0.50286 0.1527 0.0
C674 C 0.70797 0.52007 0.14063 0.0
C675 C 0.75154 0.50455 0.14216 0.0
C676 C 0.73317 0.54105 0.10786 0.0
C677 C 0.75377 0.5235 0.11981 0.0
N678 N 0.69001 0.55761 0.10744 0.0
C679 C 0.69141 0.57492 0.08547 0.0
C680 C 0.73479 0.56053 0.08558 0.0
C681 C 0.7138 0.57718 0.07431 0.0
Gd682 Gd 0.62837 0.696 0.13888 0.0
Gd683 Gd 0.65348 0.54812 0.12767 0.0
N684 N 0.68568 0.51994 0.15065 0.0
C685 C 0.72579 0.48489 0.17512 0.0
C686 C 0.68266 0.50134 0.17228 0.0
C687 C 0.70268 0.48399 0.18492 0.0
H688 H 0.66474 0.49875 0.17962 0.0
H689 H 0.70024 0.46955 0.20214 0.0
H690 H 0.60407 0.7406 0.09059 0.0
H691 H 0.67538 0.58591 0.07622 0.0
H692 H 0.56378 0.76698 0.07579 0.0
H693 H 0.74126 0.47143 0.18497 0.0
H694 H 0.76764 0.49146 0.15117 0.0
H695 H 0.62112 0.68691 0.19637 0.0
H696 H 0.75211 0.56239 0.07686 0.0
H697 H 0.71482 0.59127 0.05691 0.0
H698 H 0.51038 0.7446 0.13969 0.0
H699 H 0.77157 0.52462 0.11195 0.0
H700 H 0.54539 0.69329 0.211 0.0
H701 H 0.58776 0.6809 0.22383 0.0
N702 N 0.598 0.69272 0.16732 0.0
C703 C 0.5751 0.70502 0.1603 0.0
C704 C 0.60276 0.6878 0.19007 0.0
C705 C 0.55998 0.69366 0.19863 0.0
C706 C 0.58384 0.68632 0.20592 0.0
C707 C 0.55542 0.70492 0.1757 0.0
H708 H 0.51672 0.71789 0.17955 0.0
N709 N 0.59093 0.7224 0.12368 0.0
C710 C 0.57155 0.7214 0.13798 0.0
C711 C 0.54548 0.75257 0.10763 0.0
C712 C 0.54823 0.73619 0.13029 0.0
C713 C 0.58846 0.73897 0.10167 0.0
C714 C 0.56571 0.75413 0.09329 0.0
O715 O 0.68026 0.61199 0.1401 0.0
O716 O 0.6643 0.68341 0.12204 0.0
O717 O 0.63097 0.7783 0.12788 0.0
O718 O 0.64208 0.75695 0.16187 0.0
O719 O 0.63375 0.56166 0.1602 0.0
O720 O 0.64578 0.64726 0.16783 0.0
O721 O 0.60075 0.63751 0.125 0.0
O722 O 0.61362 0.55522 0.13784 0.0
O723 O 0.65094 0.46393 0.13587 0.0
O724 O 0.64814 0.49012 0.10081 0.0
O725 O 0.63967 0.68054 0.10224 0.0
O726 O 0.63624 0.58897 0.09747 0.0
C727 C 0.6826 0.66066 0.13213 0.0
C728 C 0.6394 0.5991 0.17465 0.0
C729 C 0.62532 0.84282 0.15606 0.0
C730 C 0.6204 0.93917 0.15582 0.0
C731 C 0.5908 0.88335 0.17503 0.0
C732 C 0.60395 0.83801 0.16891 0.0
C733 C 0.59883 0.93375 0.16834 0.0
C734 C 0.63366 0.89354 0.14981 0.0
C735 C 0.63817 0.79561 0.14754 0.0
C736 C 0.52846 0.73383 0.14533 0.0
C737 C 0.53205 0.71827 0.16799 0.0
H738 H 0.52786 0.76415 0.10107 0.0
C739 C 0.59641 0.58764 0.13049 0.0
C740 C 0.63613 0.63798 0.08941 0.0
C741 C 0.66542 0.40506 0.10781 0.0
C742 C 0.67318 0.30912 0.10821 0.0
C743 C 0.69964 0.36905 0.08696 0.0
C744 C 0.6857 0.41267 0.09375 0.0
C745 C 0.69336 0.3176 0.09392 0.0
C746 C 0.65956 0.35364 0.11531 0.0
C747 C 0.6497 0.44961 0.11465 0.0
H748 H 0.57423 0.87936 0.18479 0.0
H749 H 0.59728 0.79942 0.17401 0.0
H750 H 0.58832 0.96852 0.17306 0.0
H751 H 0.65004 0.89744 0.1397 0.0
H752 H 0.71518 0.37503 0.07596 0.0
H753 H 0.69065 0.45204 0.08785 0.0
H754 H 0.70408 0.28455 0.0877 0.0
H755 H 0.64425 0.34865 0.1267 0.0
C756 C 0.30489 0.47615 0.11414 0.0
C757 C 0.28343 0.48647 0.14995 0.0
C758 C 0.30531 0.48631 0.13746 0.0
C759 C 0.26142 0.47515 0.13888 0.0
C760 C 0.2828 0.46527 0.10294 0.0
C761 C 0.26109 0.46457 0.11547 0.0
N762 N 0.32626 0.47495 0.10254 0.0
C763 C 0.32681 0.46672 0.0796 0.0
C764 C 0.28323 0.45515 0.07949 0.0
C765 C 0.30531 0.4563 0.06774 0.0
Gd766 Gd 0.3903 0.35119 0.14138 0.0
Gd767 Gd 0.36115 0.49302 0.12377 0.0
N768 N 0.32699 0.49628 0.14788 0.0
C769 C 0.28425 0.49868 0.17317 0.0
C770 C 0.32755 0.51224 0.17008 0.0
C771 C 0.30635 0.51244 0.18317 0.0
H772 H 0.34405 0.52663 0.17766 0.0
H773 H 0.30702 0.52417 0.20089 0.0
H774 H 0.42858 0.33421 0.09742 0.0
H775 H 0.34388 0.46777 0.07055 0.0
H776 H 0.47275 0.32337 0.09125 0.0
H777 H 0.26784 0.49914 0.18334 0.0
H778 H 0.24451 0.47504 0.14826 0.0
H779 H 0.38064 0.32425 0.19639 0.0
H780 H 0.26663 0.44672 0.07027 0.0
H781 H 0.30577 0.44909 0.04959 0.0
H782 H 0.50591 0.31413 0.16682 0.0
H783 H 0.24393 0.45609 0.1072 0.0
H784 H 0.44983 0.30964 0.22926 0.0
H785 H 0.40495 0.3115 0.23148 0.0
N786 N 0.4115 0.33375 0.17516 0.0
C787 C 0.43603 0.33008 0.17335 0.0
C788 C 0.40024 0.32522 0.1955 0.0
C789 C 0.43927 0.31623 0.21395 0.0
C790 C 0.41393 0.31727 0.21528 0.0
C791 C 0.45063 0.32159 0.19274 0.0
H792 H 0.48747 0.31109 0.20497 0.0
N793 N 0.43168 0.33758 0.13349 0.0
C794 C 0.44643 0.33149 0.15186 0.0
C795 C 0.48124 0.32315 0.12708 0.0
C796 C 0.47168 0.32483 0.14917 0.0
C797 C 0.44063 0.33209 0.1119 0.0
C798 C 0.46559 0.32598 0.10837 0.0
O799 O 0.34412 0.41115 0.11834 0.0
O800 O 0.35243 0.3724 0.15189 0.0
O801 O 0.37261 0.29008 0.12107 0.0
O802 O 0.39252 0.26809 0.15139 0.0
O803 O 0.37931 0.48975 0.15812 0.0
O804 O 0.37441 0.40255 0.1698 0.0
O805 O 0.4182 0.41354 0.13272 0.0
O806 O 0.40174 0.49917 0.13064 0.0
O807 O 0.35239 0.57587 0.13082 0.0
O808 O 0.36369 0.55273 0.09711 0.0
O809 O 0.38485 0.36712 0.10333 0.0
O810 O 0.38458 0.45851 0.09648 0.0
C811 C 0.33705 0.3816 0.1355 0.0
C812 C 0.37946 0.45303 0.17411 0.0
C813 C 0.36008 0.21258 0.14076 0.0
C814 C 0.34651 0.11988 0.1414 0.0
C815 C 0.32192 0.18953 0.15879 0.0
C816 C 0.33938 0.22754 0.15303 0.0
C817 C 0.32545 0.13601 0.15312 0.0
C818 C 0.3635 0.159 0.13487 0.0
C819 C 0.37889 0.25159 0.13477 0.0
C820 C 0.48643 0.31881 0.16852 0.0
C821 C 0.47593 0.31714 0.19025 0.0
H822 H 0.50056 0.31825 0.1243 0.0
C823 C 0.42021 0.46556 0.13156 0.0
C824 C 0.38689 0.4089 0.08967 0.0
C825 C 0.37677 0.63637 0.11071 0.0
C826 C 0.38603 0.73053 0.11635 0.0
C827 C 0.41854 0.66714 0.1092 0.0
C828 C 0.40163 0.62597 0.10783 0.0
C829 C 0.41085 0.71909 0.11354 0.0
C830 C 0.369 0.68885 0.11481 0.0
C831 C 0.35915 0.59224 0.1108 0.0
H832 H 0.30588 0.20138 0.16816 0.0
H833 H 0.33696 0.2683 0.15842 0.0
H834 H 0.31208 0.10715 0.15862 0.0
H835 H 0.37962 0.14784 0.12541 0.0
H836 H 0.43767 0.6587 0.107 0.0
H837 H 0.40797 0.58592 0.10466 0.0
H838 H 0.4243 0.75049 0.11447 0.0
H839 H 0.34985 0.69698 0.11732 0.0
C840 C 0.71042 0.47961 0.40214 0.0
C841 C 0.73866 0.49403 0.37085 0.0
C842 C 0.71472 0.4898 0.37916 0.0
C843 C 0.75828 0.48721 0.38584 0.0
C844 C 0.73015 0.47379 0.41727 0.0
C845 C 0.75403 0.47703 0.40896 0.0
N846 N 0.68705 0.4765 0.40975 0.0
C847 C 0.68237 0.47254 0.43251 0.0
C848 C 0.72532 0.46589 0.44041 0.0
C849 C 0.70134 0.46602 0.44809 0.0
Gd850 Gd 0.63117 0.34225 0.36681 0.0
Gd851 Gd 0.65706 0.48853 0.38164 0.0
N852 N 0.69542 0.49395 0.36478 0.0
C853 C 0.74214 0.50464 0.34765 0.0
C854 C 0.6986 0.50626 0.34235 0.0
C855 C 0.72202 0.51117 0.33339 0.0
H856 H 0.68305 0.51221 0.33144 0.0
H857 H 0.72454 0.52014 0.31552 0.0
H858 H 0.62231 0.27446 0.41563 0.0
H859 H 0.66419 0.47626 0.43893 0.0
H860 H 0.58833 0.23336 0.43653 0.0
H861 H 0.76025 0.50819 0.34062 0.0
H862 H 0.77681 0.48992 0.37974 0.0
H863 H 0.61088 0.3658 0.31403 0.0
H864 H 0.73997 0.46128 0.45257 0.0
H865 H 0.69746 0.46214 0.46608 0.0
H866 H 0.52121 0.24541 0.38465 0.0
H867 H 0.76938 0.47237 0.42034 0.0
H868 H 0.53615 0.32001 0.31079 0.0
H869 H 0.57267 0.358 0.29239 0.0
N870 N 0.59585 0.33528 0.34472 0.0
C871 C 0.57643 0.31167 0.35475 0.0
C872 C 0.59498 0.3502 0.32238 0.0
C873 C 0.55285 0.3237 0.32042 0.0
C874 C 0.5734 0.34533 0.30999 0.0
C875 C 0.55425 0.306 0.34299 0.0
H876 H 0.51707 0.2783 0.34536 0.0
N877 N 0.60063 0.29801 0.38743 0.0
C878 C 0.57879 0.29323 0.37689 0.0
C879 C 0.56238 0.24799 0.4098 0.0
C880 C 0.55899 0.26845 0.38785 0.0
C881 C 0.60442 0.27512 0.40822 0.0
C882 C 0.5853 0.25071 0.4199 0.0
O883 O 0.68007 0.41952 0.36772 0.0
O884 O 0.66421 0.35284 0.38827 0.0
O885 O 0.63275 0.25535 0.36543 0.0
O886 O 0.65497 0.30357 0.3423 0.0
O887 O 0.63839 0.48154 0.34812 0.0
O888 O 0.64621 0.39431 0.3379 0.0
O889 O 0.60314 0.40822 0.36398 0.0
O890 O 0.61609 0.47947 0.38645 0.0
O891 O 0.65368 0.56626 0.36548 0.0
O892 O 0.6617 0.56098 0.40132 0.0
O893 O 0.63891 0.35985 0.40435 0.0
O894 O 0.63532 0.45112 0.41007 0.0
C895 C 0.68308 0.37441 0.37871 0.0
C896 C 0.64116 0.44439 0.33275 0.0
C897 C 0.65884 0.20693 0.33888 0.0
C898 C 0.664 0.10978 0.3385 0.0
C899 C 0.68328 0.16497 0.30955 0.0
C900 C 0.67359 0.21067 0.31946 0.0
C901 C 0.67852 0.11497 0.31889 0.0
C902 C 0.65408 0.15627 0.34836 0.0
C903 C 0.64872 0.25602 0.34912 0.0
C904 C 0.53666 0.26399 0.37644 0.0
C905 C 0.53431 0.28264 0.35405 0.0
H906 H 0.54762 0.22873 0.41881 0.0
C907 C 0.59894 0.45188 0.37587 0.0
C908 C 0.6339 0.40151 0.41736 0.0
C909 C 0.63917 0.63546 0.38892 0.0
C910 C 0.62776 0.72952 0.38639 0.0
C911 C 0.60016 0.66495 0.40335 0.0
C912 C 0.61699 0.62431 0.39962 0.0
C913 C 0.60542 0.71716 0.39675 0.0
C914 C 0.64457 0.68812 0.38246 0.0
C915 C 0.6567 0.59247 0.38436 0.0
H916 H 0.69447 0.16827 0.29446 0.0
H917 H 0.67757 0.24897 0.31182 0.0
H918 H 0.68598 0.08025 0.3105 0.0
H919 H 0.643 0.15316 0.36355 0.0
H920 H 0.58301 0.656 0.4115 0.0
H921 H 0.61272 0.58418 0.40507 0.0
H922 H 0.59219 0.74808 0.40015 0.0
H923 H 0.66174 0.69672 0.3742 0.0
C924 C 0.30931 0.55348 0.38801 0.0
C925 C 0.29339 0.53138 0.35076 0.0
C926 C 0.31327 0.53911 0.36553 0.0
C927 C 0.26969 0.54094 0.35865 0.0
C928 C 0.28555 0.5609 0.39631 0.0
C929 C 0.26578 0.55561 0.38138 0.0
N930 N 0.32882 0.55948 0.40189 0.0
C931 C 0.32592 0.56799 0.42468 0.0
C932 C 0.28241 0.57254 0.41945 0.0
C933 C 0.30267 0.57531 0.43376 0.0
Gd934 Gd 0.39582 0.69202 0.37055 0.0
Gd935 Gd 0.36716 0.54805 0.38534 0.0
N936 N 0.33641 0.52962 0.35853 0.0
C937 C 0.29787 0.51246 0.32876 0.0
C938 C 0.34057 0.50652 0.33788 0.0
C939 C 0.32153 0.49897 0.32245 0.0
H940 H 0.35845 0.49271 0.33337 0.0
H941 H 0.32506 0.48187 0.30587 0.0
H942 H 0.42575 0.7247 0.41762 0.0
H943 H 0.34162 0.57023 0.43567 0.0
H944 H 0.46834 0.73716 0.43022 0.0
H945 H 0.28311 0.506 0.31688 0.0
H946 H 0.25421 0.53572 0.34747 0.0
H947 H 0.39767 0.70042 0.31301 0.0
H948 H 0.26444 0.57844 0.4265 0.0
H949 H 0.3004 0.58324 0.45174 0.0
H950 H 0.51532 0.70659 0.3625 0.0
H951 H 0.24737 0.5617 0.38736 0.0
H952 H 0.47187 0.68828 0.29225 0.0
H953 H 0.42822 0.69345 0.28251 0.0
N954 N 0.4234 0.69219 0.33984 0.0
C955 C 0.44732 0.6935 0.34548 0.0
C956 C 0.41652 0.69524 0.31753 0.0
C957 C 0.45846 0.68965 0.30573 0.0
C958 C 0.43385 0.69249 0.30017 0.0
C959 C 0.46552 0.69183 0.3286 0.0
H960 H 0.50432 0.69289 0.32231 0.0
N961 N 0.43554 0.70461 0.38372 0.0
C962 C 0.45358 0.70103 0.36808 0.0
C963 C 0.4834 0.71967 0.39718 0.0
C964 C 0.47809 0.70742 0.37445 0.0
C965 C 0.44042 0.71941 0.40562 0.0
C966 C 0.46445 0.72656 0.41275 0.0
O967 O 0.34656 0.62639 0.38999 0.0
O968 O 0.358 0.67259 0.35872 0.0
O969 O 0.37968 0.76102 0.38703 0.0
O970 O 0.40117 0.77146 0.3567 0.0
O971 O 0.38582 0.55582 0.35128 0.0
O972 O 0.37934 0.64361 0.34121 0.0
O973 O 0.4194 0.62895 0.38742 0.0
O974 O 0.40628 0.54928 0.37279 0.0
O975 O 0.36135 0.46117 0.38381 0.0
O976 O 0.37722 0.4987 0.41391 0.0
O977 O 0.38361 0.68047 0.40757 0.0
O978 O 0.38581 0.58941 0.4143 0.0
C979 C 0.34131 0.66014 0.37361 0.0
C980 C 0.38376 0.59341 0.33576 0.0
C981 C 0.37011 0.83408 0.36338 0.0
C982 C 0.35603 0.92644 0.36162 0.0
C983 C 0.33428 0.8565 0.34139 0.0
C984 C 0.35106 0.81877 0.34903 0.0
C985 C 0.33669 0.90997 0.34762 0.0
C986 C 0.37259 0.88782 0.36959 0.0
C987 C 0.38764 0.79458 0.37188 0.0
C988 C 0.49635 0.7027 0.35789 0.0
C989 C 0.49008 0.69477 0.33501 0.0
H990 H 0.502 0.72501 0.40275 0.0
C991 C 0.42393 0.58085 0.37971 0.0
C992 C 0.38463 0.63896 0.4215 0.0
C993 C 0.37192 0.4032 0.41621 0.0
C994 C 0.37344 0.30569 0.41635 0.0
C995 C 0.37791 0.35511 0.4517 0.0
C996 C 0.37551 0.40295 0.4399 0.0
C997 C 0.37696 0.30687 0.44007 0.0
C998 C 0.3706 0.35426 0.40447 0.0
C999 C 0.3701 0.45489 0.40422 0.0
H1000 H 0.31951 0.84437 0.3304 0.0
H1001 H 0.34932 0.77778 0.34368 0.0
H1002 H 0.32371 0.93856 0.34107 0.0
H1003 H 0.38736 0.8994 0.38074 0.0
H1004 H 0.38057 0.35543 0.46996 0.0
H1005 H 0.37644 0.43987 0.4494 0.0
H1006 H 0.37874 0.27027 0.44971 0.0
H1007 H 0.36802 0.35397 0.38617 0.0
C1008 C 0.45305 0.33348 0.86335 0.0
C1009 C 0.47098 0.31399 0.9 0.0
C1010 C 0.45034 0.3219 0.88619 0.0
C1011 C 0.49427 0.32119 0.89069 0.0
C1012 C 0.47632 0.33751 0.85353 0.0
C1013 C 0.49694 0.33282 0.86747 0.0
N1014 N 0.43277 0.33865 0.85048 0.0
C1015 C 0.43428 0.34298 0.82737 0.0
C1016 C 0.47809 0.34508 0.82996 0.0
C1017 C 0.45696 0.34696 0.81677 0.0
Gd1018 Gd 0.36576 0.47877 0.88438 0.0
Gd1019 Gd 0.39532 0.3352 0.86931 0.0
N1020 N 0.42756 0.3143 0.89443 0.0
C1021 C 0.46761 0.29691 0.92246 0.0
C1022 C 0.42438 0.29254 0.91556 0.0
C1023 C 0.44422 0.28501 0.9301 0.0
H1024 H 0.40656 0.28079 0.92135 0.0
H1025 H 0.44148 0.26937 0.94709 0.0
H1026 H 0.32895 0.50653 0.84138 0.0
H1027 H 0.4179 0.34432 0.81724 0.0
H1028 H 0.28471 0.5076 0.83317 0.0
H1029 H 0.48297 0.29045 0.93366 0.0
H1030 H 0.51034 0.31603 0.90112 0.0
H1031 H 0.37035 0.48657 0.94179 0.0
H1032 H 0.49564 0.34837 0.82174 0.0
H1033 H 0.45812 0.35164 0.79848 0.0
H1034 H 0.24803 0.46286 0.90499 0.0
H1035 H 0.515 0.33673 0.86035 0.0
H1036 H 0.30035 0.45458 0.97015 0.0
H1037 H 0.34431 0.47117 0.97527 0.0
N1038 N 0.34224 0.47129 0.9178 0.0
C1039 C 0.31787 0.4667 0.91472 0.0
C1040 C 0.35152 0.47627 0.93926 0.0
C1041 C 0.31188 0.45955 0.95535 0.0
C1042 C 0.33668 0.46883 0.95831 0.0
C1043 C 0.30203 0.46016 0.93338 0.0
H1044 H 0.26444 0.45132 0.94368 0.0
N1045 N 0.3243 0.48201 0.87565 0.0
C1046 C 0.30856 0.47323 0.89301 0.0
C1047 C 0.2747 0.48479 0.86732 0.0
C1048 C 0.28329 0.47336 0.88925 0.0
C1049 C 0.31611 0.4965 0.85461 0.0
C1050 C 0.29118 0.49735 0.85001 0.0
O1051 O 0.41543 0.41146 0.86038 0.0
O1052 O 0.40623 0.46712 0.88992 0.0
O1053 O 0.37337 0.55102 0.86532 0.0
O1054 O 0.36075 0.55646 0.89995 0.0
O1055 O 0.38208 0.35076 0.90557 0.0
O1056 O 0.39009 0.43978 0.91064 0.0
O1057 O 0.34287 0.41066 0.8698 0.0
O1058 O 0.35954 0.33933 0.88771 0.0
O1059 O 0.40096 0.24921 0.86974 0.0
O1060 O 0.37827 0.28497 0.84398 0.0
O1061 O 0.37579 0.46939 0.84758 0.0
O1062 O 0.3781 0.37843 0.83907 0.0
C1063 C 0.4218 0.44853 0.87492 0.0
C1064 C 0.38837 0.39103 0.91867 0.0
C1065 C 0.38751 0.62298 0.88712 0.0
C1066 C 0.39963 0.71663 0.88737 0.0
C1067 C 0.42753 0.64781 0.90059 0.0
C1068 C 0.41019 0.60871 0.89609 0.0
C1069 C 0.42232 0.70141 0.89639 0.0
C1070 C 0.38238 0.67668 0.88261 0.0
C1071 C 0.36901 0.58235 0.88243 0.0
C1072 C 0.26751 0.46367 0.90756 0.0
C1073 C 0.27687 0.45698 0.92959 0.0
H1074 H 0.2554 0.4854 0.86373 0.0
C1075 C 0.34054 0.36332 0.87914 0.0
C1076 C 0.37574 0.42918 0.83325 0.0
C1077 C 0.36727 0.1989 0.85697 0.0
C1078 C 0.35731 0.10584 0.86492 0.0
C1079 C 0.32512 0.17114 0.86017 0.0
C1080 C 0.34234 0.21086 0.85627 0.0
C1081 C 0.3325 0.11902 0.86462 0.0
C1082 C 0.37464 0.14611 0.86108 0.0
C1083 C 0.38572 0.24076 0.85323 0.0
H1084 H 0.44499 0.6366 0.90759 0.0
H1085 H 0.41444 0.5675 0.89972 0.0
H1086 H 0.43591 0.73091 0.90063 0.0
H1087 H 0.36494 0.68711 0.8753 0.0
H1088 H 0.30596 0.18069 0.85958 0.0
H1089 H 0.33611 0.25083 0.85261 0.0
H1090 H 0.31879 0.08874 0.86733 0.0
H1091 H 0.39383 0.1365 0.86147 0.0
C1092 C 0.57412 0.68602 0.84124 0.0
C1093 C 0.54299 0.70181 0.8697 0.0
C1094 C 0.56757 0.69491 0.86369 0.0
C1095 C 0.52495 0.69649 0.85296 0.0
C1096 C 0.55614 0.68352 0.82417 0.0
C1097 C 0.53151 0.68722 0.83024 0.0
N1098 N 0.59812 0.68397 0.8359 0.0
C1099 C 0.6053 0.68521 0.81365 0.0
C1100 C 0.56349 0.6797 0.80143 0.0
C1101 C 0.58818 0.68161 0.79612 0.0
Gd1102 Gd 0.65368 0.54321 0.8845 0.0
Gd1103 Gd 0.62529 0.68615 0.86689 0.0
N1104 N 0.58539 0.69907 0.87954 0.0
C1105 C 0.53738 0.71519 0.89225 0.0
C1106 C 0.58023 0.71502 0.90123 0.0
C1107 C 0.55612 0.72267 0.90799 0.0
H1108 H 0.59475 0.72089 0.91336 0.0
H1109 H 0.552 0.73416 0.92532 0.0
H1110 H 0.66625 0.48885 0.83298 0.0
H1111 H 0.62421 0.6898 0.8093 0.0
H1112 H 0.70166 0.47758 0.80791 0.0
H1113 H 0.51871 0.72095 0.89754 0.0
H1114 H 0.50593 0.70088 0.85729 0.0
H1115 H 0.67526 0.56901 0.93612 0.0
H1116 H 0.55025 0.67767 0.7878 0.0
H1117 H 0.59404 0.68125 0.77853 0.0
H1118 H 0.76921 0.53012 0.85436 0.0
H1119 H 0.51744 0.6848 0.81739 0.0
H1120 H 0.75299 0.57512 0.93226 0.0
H1121 H 0.71517 0.58215 0.95486 0.0
N1122 N 0.69063 0.55578 0.90346 0.0
C1123 C 0.71116 0.54881 0.891 0.0
C1124 C 0.69177 0.56584 0.92626 0.0
C1125 C 0.73559 0.5691 0.92404 0.0
C1126 C 0.71427 0.57318 0.93686 0.0
C1127 C 0.73423 0.55637 0.90085 0.0
H1128 H 0.77301 0.55673 0.89451 0.0
N1129 N 0.68634 0.52495 0.85974 0.0
C1130 C 0.70891 0.53404 0.86835 0.0
C1131 C 0.72708 0.50736 0.8327 0.0
C1132 C 0.72988 0.52609 0.85498 0.0
C1133 C 0.68374 0.50229 0.83878 0.0
C1134 C 0.70393 0.49446 0.82473 0.0
O1135 O 0.60109 0.62394 0.88353 0.0
O1136 O 0.61508 0.5433 0.8706 0.0
O1137 O 0.65964 0.45645 0.88316 0.0
O1138 O 0.64288 0.49382 0.91289 0.0
O1139 O 0.63736 0.67667 0.90392 0.0
O1140 O 0.63346 0.5864 0.91211 0.0
O1141 O 0.67445 0.62157 0.88856 0.0
O1142 O 0.66347 0.66578 0.85655 0.0
O1143 O 0.63999 0.75699 0.88317 0.0
O1144 O 0.62051 0.76423 0.85151 0.0
O1145 O 0.63661 0.5487 0.84964 0.0
O1146 O 0.64269 0.63614 0.83858 0.0
C1147 C 0.59711 0.57489 0.8767 0.0
C1148 C 0.63432 0.63671 0.91832 0.0
C1149 C 0.6482 0.3981 0.91512 0.0
C1150 C 0.64651 0.30052 0.91494 0.0
C1151 C 0.64147 0.34948 0.95035 0.0
C1152 C 0.64416 0.39749 0.93874 0.0
C1153 C 0.64256 0.3014 0.9386 0.0
C1154 C 0.64966 0.34928 0.90325 0.0
C1155 C 0.65029 0.45003 0.90332 0.0
C1156 C 0.75293 0.53552 0.86445 0.0
C1157 C 0.7551 0.55054 0.88734 0.0
H1158 H 0.74271 0.50075 0.82187 0.0
C1159 C 0.67981 0.65486 0.87203 0.0
C1160 C 0.6389 0.58534 0.83373 0.0
C1161 C 0.65025 0.8293 0.8593 0.0
C1162 C 0.66426 0.92185 0.8588 0.0
C1163 C 0.68602 0.85345 0.8376 0.0
C1164 C 0.66927 0.81516 0.84471 0.0
C1165 C 0.6836 0.90641 0.84459 0.0
C1166 C 0.64773 0.88259 0.86625 0.0
C1167 C 0.6327 0.78911 0.86717 0.0
H1168 H 0.63847 0.34953 0.96857 0.0
H1169 H 0.6431 0.43426 0.94833 0.0
H1170 H 0.64054 0.26468 0.94812 0.0
H1171 H 0.65258 0.34926 0.885 0.0
H1172 H 0.70076 0.84219 0.82642 0.0
H1173 H 0.67096 0.77464 0.83872 0.0
H1174 H 0.69654 0.93548 0.8384 0.0
H1175 H 0.63293 0.89336 0.87752 0.0
C1176 C 0.44247 0.69479 0.67099 0.0
C1177 C 0.47384 0.70259 0.64214 0.0
C1178 C 0.44916 0.69765 0.64819 0.0
C1179 C 0.49167 0.70344 0.65924 0.0
C1180 C 0.4603 0.69616 0.68821 0.0
C1181 C 0.48492 0.70025 0.6822 0.0
N1182 N 0.41853 0.69033 0.6763 0.0
C1183 C 0.41113 0.68799 0.69845 0.0
C1184 C 0.45286 0.69322 0.71097 0.0
C1185 C 0.42816 0.68928 0.71609 0.0
Gd1186 Gd 0.36447 0.54873 0.62236 0.0
Gd1187 Gd 0.3914 0.68656 0.64558 0.0
N1188 N 0.43147 0.6959 0.63197 0.0
C1189 C 0.47987 0.70703 0.61909 0.0
C1190 C 0.4372 0.70354 0.6096 0.0
C1191 C 0.46143 0.70822 0.60279 0.0
H1192 H 0.4233 0.70742 0.5969 0.0
H1193 H 0.46586 0.71346 0.58497 0.0
H1194 H 0.33656 0.52881 0.67325 0.0
H1195 H 0.39204 0.68587 0.70254 0.0
H1196 H 0.29499 0.52563 0.6882 0.0
H1197 H 0.49861 0.71083 0.61374 0.0
H1198 H 0.51072 0.70689 0.6549 0.0
H1199 H 0.35922 0.56163 0.56599 0.0
H1200 H 0.46601 0.69418 0.72469 0.0
H1201 H 0.42222 0.68737 0.73364 0.0
H1202 H 0.24467 0.54349 0.62202 0.0
H1203 H 0.49888 0.70117 0.6952 0.0
H1204 H 0.28348 0.56244 0.54943 0.0
H1205 H 0.32646 0.56741 0.53731 0.0
N1206 N 0.33494 0.55541 0.59394 0.0
C1207 C 0.31147 0.55165 0.60101 0.0
C1208 C 0.34051 0.56055 0.57144 0.0
C1209 C 0.29777 0.56028 0.56209 0.0
C1210 C 0.32201 0.56328 0.55517 0.0
C1211 C 0.29223 0.55436 0.58523 0.0
H1212 H 0.25312 0.55349 0.58114 0.0
N1213 N 0.32573 0.54442 0.63914 0.0
C1214 C 0.30673 0.54612 0.62422 0.0
C1215 C 0.27837 0.53661 0.65535 0.0
C1216 C 0.28255 0.54294 0.63201 0.0
C1217 C 0.32172 0.5353 0.66172 0.0
C1218 C 0.29804 0.53221 0.67022 0.0
O1219 O 0.41647 0.61502 0.64752 0.0
O1220 O 0.40536 0.55836 0.61838 0.0
O1221 O 0.36528 0.46772 0.63548 0.0
O1222 O 0.36671 0.48174 0.59915 0.0
O1223 O 0.38207 0.68028 0.60751 0.0
O1224 O 0.38862 0.59209 0.59809 0.0
O1225 O 0.34219 0.62543 0.61896 0.0
O1226 O 0.35231 0.66651 0.65193 0.0
O1227 O 0.38304 0.76259 0.62966 0.0
O1228 O 0.38817 0.75823 0.66606 0.0
O1229 O 0.37822 0.5504 0.65858 0.0
O1230 O 0.37098 0.63588 0.67122 0.0
C1231 C 0.42156 0.57727 0.63282 0.0
C1232 C 0.38655 0.64242 0.59245 0.0
C1233 C 0.34861 0.40141 0.61166 0.0
C1234 C 0.34115 0.30554 0.61377 0.0
C1235 C 0.31078 0.36488 0.59743 0.0
C1236 C 0.32589 0.40851 0.60131 0.0
C1237 C 0.31836 0.31368 0.60346 0.0
C1238 C 0.35599 0.35011 0.61811 0.0
C1239 C 0.36529 0.44635 0.61529 0.0
C1240 C 0.26334 0.54578 0.61631 0.0
C1241 C 0.26816 0.55141 0.59301 0.0
H1242 H 0.26005 0.534 0.66199 0.0
C1243 C 0.33716 0.65998 0.63507 0.0
C1244 C 0.37584 0.58523 0.67513 0.0
C1245 C 0.40028 0.83732 0.64759 0.0
C1246 C 0.40418 0.93287 0.64121 0.0
C1247 C 0.44002 0.87911 0.64852 0.0
C1248 C 0.42551 0.83387 0.65048 0.0
C1249 C 0.42947 0.92838 0.64379 0.0
C1250 C 0.38962 0.88707 0.64317 0.0
C1251 C 0.38504 0.78929 0.64858 0.0
H1252 H 0.29332 0.37063 0.58932 0.0
H1253 H 0.31993 0.44743 0.59593 0.0
H1254 H 0.3066 0.28045 0.59945 0.0
H1255 H 0.37345 0.3451 0.62637 0.0
H1256 H 0.45949 0.87598 0.65071 0.0
H1257 H 0.43403 0.79637 0.65426 0.0
H1258 H 0.44103 0.96316 0.64248 0.0
H1259 H 0.37012 0.89 0.64091 0.0
C1260 C 0.57294 0.3305 0.65577 0.0
C1261 C 0.54892 0.29671 0.62425 0.0
C1262 C 0.57141 0.31273 0.63344 0.0
C1263 C 0.52798 0.29859 0.63786 0.0
C1264 C 0.55202 0.33107 0.66965 0.0
C1265 C 0.52954 0.3156 0.66051 0.0
N1266 N 0.59492 0.34597 0.66407 0.0
C1267 C 0.59754 0.35659 0.68672 0.0
C1268 C 0.55441 0.34606 0.69247 0.0
C1269 C 0.57735 0.35796 0.70112 0.0
Gd1270 Gd 0.65521 0.4866 0.62306 0.0
Gd1271 Gd 0.62759 0.34183 0.63817 0.0
N1272 N 0.59189 0.31225 0.62053 0.0
C1273 C 0.54811 0.27972 0.60157 0.0
C1274 C 0.59131 0.29488 0.59853 0.0
C1275 C 0.56942 0.27863 0.58869 0.0
H1276 H 0.60777 0.29301 0.58859 0.0
H1277 H 0.56901 0.26515 0.5712 0.0
H1278 H 0.67291 0.53495 0.67337 0.0
H1279 H 0.61519 0.36175 0.69413 0.0
H1280 H 0.71136 0.55568 0.69324 0.0
H1281 H 0.53116 0.26722 0.59387 0.0
H1282 H 0.51052 0.28666 0.63107 0.0
H1283 H 0.671 0.44545 0.57009 0.0
H1284 H 0.53881 0.34679 0.70371 0.0
H1285 H 0.57959 0.36713 0.71901 0.0
H1286 H 0.77321 0.51044 0.63897 0.0
H1287 H 0.51328 0.31614 0.6709 0.0
H1288 H 0.74835 0.44157 0.56662 0.0
H1289 H 0.7083 0.42586 0.54882 0.0
N1290 N 0.68933 0.4663 0.60062 0.0
C1291 C 0.71118 0.4788 0.61021 0.0
C1292 C 0.68815 0.44955 0.57858 0.0
C1293 C 0.73195 0.44911 0.57627 0.0
C1294 C 0.70938 0.43978 0.56622 0.0
C1295 C 0.73308 0.46952 0.59841 0.0
H1296 H 0.77235 0.47398 0.60015 0.0
N1297 N 0.69038 0.50736 0.64345 0.0
C1298 C 0.71172 0.50025 0.63212 0.0
C1299 C 0.73384 0.53169 0.66501 0.0
C1300 C 0.73406 0.51168 0.64276 0.0
C1301 C 0.68998 0.52759 0.66496 0.0
C1302 C 0.7117 0.53983 0.67612 0.0
O1303 O 0.6 0.40164 0.62559 0.0
O1304 O 0.61507 0.48649 0.63291 0.0
O1305 O 0.65653 0.57325 0.62987 0.0
O1306 O 0.65294 0.54201 0.59522 0.0
O1307 O 0.64041 0.35535 0.60186 0.0
O1308 O 0.63438 0.44499 0.595 0.0
O1309 O 0.67944 0.42131 0.63862 0.0
O1310 O 0.66309 0.35126 0.62041 0.0
O1311 O 0.62882 0.25702 0.63089 0.0
O1312 O 0.64308 0.28649 0.66273 0.0
O1313 O 0.63608 0.48153 0.65637 0.0
O1314 O 0.64339 0.39419 0.66686 0.0
C1315 C 0.597 0.45305 0.62881 0.0
C1316 C 0.63384 0.39493 0.58843 0.0
C1317 C 0.65548 0.63774 0.59805 0.0
C1318 C 0.65003 0.73442 0.60022 0.0
C1319 C 0.66156 0.69279 0.56446 0.0
C1320 C 0.66127 0.64294 0.57484 0.0
C1321 C 0.6559 0.73816 0.57698 0.0
C1322 C 0.65017 0.6839 0.61086 0.0
C1323 C 0.65495 0.58377 0.6082 0.0
C1324 C 0.75585 0.50203 0.63105 0.0
C1325 C 0.75536 0.48109 0.60895 0.0
H1326 H 0.75063 0.54094 0.67376 0.0
C1327 C 0.6815 0.3726 0.63076 0.0
C1328 C 0.63913 0.44482 0.67201 0.0
C1329 C 0.62679 0.19865 0.66223 0.0
C1330 C 0.62162 0.10194 0.66534 0.0
C1331 C 0.59981 0.16173 0.6908 0.0
C1332 C 0.61041 0.2058 0.68024 0.0
C1333 C 0.60532 0.11021 0.68345 0.0
C1334 C 0.63234 0.14674 0.65486 0.0
C1335 C 0.63797 0.24453 0.65055 0.0
H1336 H 0.66611 0.69627 0.54659 0.0
H1337 H 0.66568 0.60834 0.56464 0.0
H1338 H 0.65628 0.77647 0.56847 0.0
H1339 H 0.64558 0.68045 0.62874 0.0
H1340 H 0.5871 0.16755 0.70463 0.0
H1341 H 0.60576 0.24528 0.68613 0.0
H1342 H 0.5964 0.0769 0.69166 0.0
H1343 H 0.64512 0.14137 0.64101 0.0
H1344 H 0.21479 0.17546 0.1692 0.0
H1345 H 0.20553 0.20301 0.09734 0.0
H1346 H 0.25175 0.22859 0.16895 0.0
H1347 H 0.24146 0.25984 0.09708 0.0
H1348 H 0.31816 0.32849 0.099 0.0
H1349 H 0.28236 0.27133 0.09813 0.0
H1350 H 0.2675 0.3118 0.16839 0.0
H1351 H 0.30441 0.36513 0.16943 0.0
C1352 C 0.22065 0.19346 0.15336 0.0
C1353 C 0.20725 0.18545 0.13335 0.0
C1354 C 0.24175 0.22463 0.15319 0.0
C1355 C 0.24976 0.25 0.13308 0.0
C1356 C 0.23637 0.24091 0.11293 0.0
C1357 C 0.21559 0.20848 0.11302 0.0
C1358 C 0.30715 0.32489 0.11421 0.0
C1359 C 0.31417 0.35057 0.13436 0.0
C1360 C 0.28643 0.29231 0.11374 0.0
C1361 C 0.27176 0.28579 0.13327 0.0
C1362 C 0.27849 0.31375 0.15315 0.0
C1363 C 0.29956 0.34501 0.15376 0.0
H1364 H 0.82178 0.80657 0.16854 0.0
H1365 H 0.80806 0.86147 0.10008 0.0
H1366 H 0.78463 0.75386 0.16746 0.0
H1367 H 0.77087 0.80881 0.09894 0.0
H1368 H 0.69284 0.75845 0.11435 0.0
H1369 H 0.73087 0.80702 0.11488 0.0
H1370 H 0.76498 0.67681 0.15085 0.0
H1371 H 0.72638 0.6284 0.15088 0.0
C1372 C 0.81087 0.80737 0.1532 0.0
C1373 C 0.81782 0.83902 0.1345 0.0
C1374 C 0.78957 0.77676 0.15254 0.0
C1375 C 0.77454 0.77694 0.13315 0.0
C1376 C 0.78168 0.8082 0.11434 0.0
C1377 C 0.80305 0.83861 0.11498 0.0
C1378 C 0.7084 0.73982 0.12236 0.0
C1379 C 0.70642 0.68911 0.13249 0.0
C1380 C 0.73038 0.76775 0.12251 0.0
C1381 C 0.75122 0.746 0.13277 0.0
C1382 C 0.74931 0.69518 0.14293 0.0
C1383 C 0.72719 0.66712 0.14281 0.0
H1384 H 0.312 0.68088 0.41021 0.0
H1385 H 0.31812 0.70885 0.338 0.0
H1386 H 0.27471 0.73326 0.41118 0.0
H1387 H 0.28083 0.76166 0.33885 0.0
H1388 H 0.22493 0.89429 0.35217 0.0
H1389 H 0.26317 0.8445 0.35164 0.0
H1390 H 0.23327 0.73195 0.39972 0.0
H1391 H 0.19577 0.7828 0.40096 0.0
C1392 C 0.30526 0.69786 0.39448 0.0
C1393 C 0.31814 0.69082 0.37406 0.0
C1394 C 0.28383 0.72806 0.39501 0.0
C1395 C 0.27461 0.75215 0.3751 0.0
C1396 C 0.28747 0.74469 0.35462 0.0
C1397 C 0.30886 0.71424 0.35411 0.0
C1398 C 0.2267 0.85945 0.36288 0.0
C1399 C 0.20731 0.84315 0.3768 0.0
C1400 C 0.24854 0.83036 0.36237 0.0
C1401 C 0.2515 0.78397 0.37568 0.0
C1402 C 0.23199 0.76779 0.38951 0.0
C1403 C 0.21029 0.79687 0.39007 0.0
H1404 H 0.81124 0.18296 0.41201 0.0
H1405 H 0.81772 0.21029 0.33976 0.0
H1406 H 0.77336 0.23336 0.4125 0.0
H1407 H 0.77969 0.26022 0.34006 0.0
H1408 H 0.7235 0.39208 0.35194 0.0
H1409 H 0.76154 0.34192 0.35158 0.0
H1410 H 0.73219 0.23356 0.40171 0.0
H1411 H 0.69497 0.28549 0.40298 0.0
C1412 C 0.80449 0.1995 0.39618 0.0
C1413 C 0.81782 0.19357 0.37594 0.0
C1414 C 0.78265 0.22836 0.39641 0.0
C1415 C 0.77336 0.2517 0.37635 0.0
C1416 C 0.78642 0.24421 0.35598 0.0
C1417 C 0.80826 0.2154 0.35578 0.0
C1418 C 0.72537 0.35819 0.36318 0.0
C1419 C 0.70627 0.34362 0.37778 0.0
C1420 C 0.74709 0.32874 0.36273 0.0
C1421 C 0.75019 0.28342 0.37669 0.0
C1422 C 0.73086 0.26862 0.39103 0.0
C1423 C 0.70931 0.29828 0.39161 0.0
H1424 H 0.71059 0.67208 0.90815 0.0
H1425 H 0.70133 0.7083 0.83693 0.0
H1426 H 0.74781 0.72454 0.90883 0.0
H1427 H 0.737 0.76502 0.83794 0.0
H1428 H 0.81546 0.82002 0.83939 0.0
H1429 H 0.77826 0.76842 0.83862 0.0
H1430 H 0.76505 0.80878 0.90912 0.0
H1431 H 0.80341 0.85732 0.91016 0.0
C1432 C 0.71644 0.69145 0.89264 0.0
C1433 C 0.70281 0.68618 0.87253 0.0
C1434 C 0.73765 0.72252 0.89309 0.0
C1435 C 0.74566 0.75 0.8735 0.0
C1436 C 0.73192 0.74429 0.85338 0.0
C1437 C 0.71107 0.71233 0.85285 0.0
C1438 C 0.8046 0.81793 0.85474 0.0
C1439 C 0.81273 0.84206 0.87494 0.0
C1440 C 0.78299 0.78857 0.85428 0.0
C1441 C 0.76837 0.78349 0.87387 0.0
C1442 C 0.77595 0.81016 0.8938 0.0
C1443 C 0.79785 0.83883 0.89434 0.0
H1444 H 0.29994 0.38318 0.85323 0.0
H1445 H 0.32725 0.27861 0.90559 0.0
H1446 H 0.26145 0.3354 0.85337 0.0
H1447 H 0.28961 0.22823 0.90468 0.0
H1448 H 0.2116 0.17045 0.91176 0.0
H1449 H 0.24884 0.22269 0.9137 0.0
H1450 H 0.24268 0.2577 0.84182 0.0
H1451 H 0.20502 0.20731 0.84028 0.0
C1452 C 0.29766 0.35026 0.86492 0.0
C1453 C 0.31665 0.33531 0.87955 0.0
C1454 C 0.27567 0.32198 0.86473 0.0
C1455 C 0.27214 0.27721 0.87893 0.0
C1456 C 0.29117 0.26278 0.89375 0.0
C1457 C 0.313 0.29151 0.89412 0.0
C1458 C 0.21827 0.18924 0.89638 0.0
C1459 C 0.20525 0.18471 0.87588 0.0
C1460 C 0.23977 0.2192 0.89743 0.0
C1461 C 0.24904 0.24515 0.87794 0.0
C1462 C 0.23605 0.23976 0.85738 0.0
C1463 C 0.21444 0.21035 0.85642 0.0
H1464 H 0.72353 0.39602 0.6546 0.0
H1465 H 0.69233 0.28019 0.60883 0.0
H1466 H 0.76128 0.34404 0.65566 0.0
H1467 H 0.7295 0.22833 0.61024 0.0
H1468 H 0.80908 0.17954 0.59859 0.0
H1469 H 0.77161 0.23164 0.59758 0.0
H1470 H 0.77664 0.25677 0.67014 0.0
H1471 H 0.81409 0.20427 0.67111 0.0
C1472 C 0.72471 0.35973 0.64472 0.0
C1473 C 0.70485 0.34255 0.63159 0.0
C1474 C 0.74626 0.32964 0.64547 0.0
C1475 C 0.74848 0.28184 0.63303 0.0
C1476 C 0.72863 0.26511 0.61982 0.0
C1477 C 0.70718 0.29488 0.61916 0.0
C1478 C 0.80207 0.19575 0.61436 0.0
C1479 C 0.81476 0.18838 0.63487 0.0
C1480 C 0.78058 0.22574 0.6138 0.0
C1481 C 0.77122 0.24915 0.63375 0.0
C1482 C 0.78356 0.24033 0.65439 0.0
C1483 C 0.80494 0.20997 0.65496 0.0
H1484 H 0.22592 0.90535 0.65249 0.0
H1485 H 0.18901 0.7818 0.61536 0.0
H1486 H 0.26358 0.85396 0.65114 0.0
H1487 H 0.22614 0.7283 0.61513 0.0
H1488 H 0.30322 0.66642 0.60071 0.0
H1489 H 0.26604 0.71931 0.59988 0.0
H1490 H 0.28185 0.7778 0.66744 0.0
H1491 H 0.31904 0.7256 0.66808 0.0
C1492 C 0.22597 0.86731 0.64386 0.0
C1493 C 0.20468 0.84777 0.63383 0.0
C1494 C 0.24745 0.83727 0.64339 0.0
C1495 C 0.24807 0.78648 0.63314 0.0
C1496 C 0.22662 0.76736 0.6229 0.0
C1497 C 0.20524 0.79778 0.62318 0.0
C1498 C 0.29868 0.69024 0.61545 0.0
C1499 C 0.31418 0.69142 0.63449 0.0
C1500 C 0.27726 0.72067 0.615 0.0
C1501 C 0.2708 0.75336 0.63355 0.0
C1502 C 0.28631 0.75413 0.65262 0.0
C1503 C 0.30765 0.72375 0.65306 0.0
H1504 H 0.14483 0.04209 0.31867 0.0
H1505 H 0.14951 0.88085 0.29317 0.0
H1506 H 0.14414 0.07609 0.2804 0.0
H1507 H 0.14919 0.91594 0.25409 0.0
H1508 H 0.11942 0.99809 0.18898 0.0
H1509 H 0.12176 0.96046 0.22721 0.0
H1510 H 0.16905 0.08918 0.24754 0.0
H1511 H 0.16647 0.12705 0.20926 0.0
C1512 C 0.14587 1.01352 0.30492 0.0
C1513 C 0.14706 0.95828 0.30925 0.0
C1514 C 0.14567 0.03344 0.28279 0.0
C1515 C 0.14671 0.99901 0.26406 0.0
C1516 C 0.14813 0.94365 0.26817 0.0
C1517 C 0.14841 0.92348 0.29056 0.0
C1518 C 0.1302 0.01856 0.20168 0.0
C1519 C 0.14257 0.06592 0.19616 0.0
C1520 C 0.13175 0.99661 0.22354 0.0
C1521 C 0.1457 0.02146 0.2405 0.0
C1522 C 0.1579 0.06919 0.235 0.0
C1523 C 0.15633 0.0912 0.2131 0.0
H1524 H 0.88909 0.9918 0.32247 0.0
H1525 H 0.86798 0.14564 0.29588 0.0
H1526 H 0.88932 0.95546 0.28425 0.0
H1527 H 0.86869 0.10888 0.25725 0.0
H1528 H 0.90036 0.03635 0.19107 0.0
H1529 H 0.89899 0.07317 0.2294 0.0
H1530 H 0.86105 0.93306 0.25283 0.0
H1531 H 0.86206 0.89637 0.21426 0.0
C1532 C 0.88445 0.01811 0.3085 0.0
C1533 C 0.87876 0.07211 0.3124 0.0
C1534 C 0.88451 0.99696 0.28651 0.0
C1535 C 0.87905 0.02912 0.26765 0.0
C1536 C 0.87327 0.08313 0.27141 0.0
C1537 C 0.87294 0.10429 0.29356 0.0
C1538 C 0.89175 1.01319 0.20438 0.0
C1539 C 0.88145 0.9631 0.19955 0.0
C1540 C 0.89082 0.03459 0.22634 0.0
C1541 C 0.87978 1.00632 0.24418 0.0
C1542 C 0.86986 0.95575 0.2395 0.0
C1543 C 0.87058 0.9345 0.21742 0.0
H1544 H 0.86139 0.13994 0.71498 0.0
H1545 H 0.89242 0.99228 0.69095 0.0
H1546 H 0.86053 0.10369 0.75376 0.0
H1547 H 0.89144 0.95641 0.7293 0.0
H1548 H 0.86245 0.88847 0.79672 0.0
H1549 H 0.86254 0.92562 0.75815 0.0
H1550 H 0.88793 0.07604 0.78454 0.0
H1551 H 0.88803 0.03926 0.82275 0.0
C1552 C 0.86826 0.10012 0.71796 0.0
C1553 C 0.87699 0.06924 0.69978 0.0
C1554 C 0.86771 0.07919 0.74017 0.0
C1555 C 0.87572 0.02681 0.74466 0.0
C1556 C 0.88467 0.99639 0.72648 0.0
C1557 C 0.88536 0.01728 0.70443 0.0
C1558 C 0.8683 0.92922 0.79426 0.0
C1559 C 0.87543 0.96048 0.81293 0.0
C1560 C 0.86829 0.95066 0.77214 0.0
C1561 C 0.87519 1.00401 0.7682 0.0
C1562 C 0.88215 0.03518 0.78691 0.0
C1563 C 0.88232 1.01376 0.80889 0.0
H1564 H 0.17217 0.10871 0.79815 0.0
H1565 H 0.10852 0.01781 0.81614 0.0
H1566 H 0.17158 0.06874 0.75986 0.0
H1567 H 0.10748 0.97941 0.77783 0.0
H1568 H 0.10307 0.98826 0.69634 0.0
H1569 H 0.10329 0.02502 0.73497 0.0
H1570 H 0.17492 0.96024 0.74592 0.0
H1571 H 0.17431 0.9216 0.70736 0.0
C1572 C 0.15782 0.08109 0.79373 0.0
C1573 C 0.14034 0.06636 0.80995 0.0
C1574 C 0.15765 0.05782 0.77202 0.0
C1575 C 0.13961 0.02069 0.76609 0.0
C1576 C 0.12162 1.00772 0.78206 0.0
C1577 C 0.12218 0.02979 0.80387 0.0
C1578 C 0.11863 0.981 0.70722 0.0
C1579 C 0.13857 0.95177 0.69911 0.0
C1580 C 0.1188 1.00219 0.72919 0.0
C1581 C 0.13922 0.99588 0.74322 0.0
C1582 C 0.15905 0.96586 0.73529 0.0
C1583 C 0.15858 0.94325 0.71345 0.0
H1584 H 0.60678 0.50737 0.31431 0.0
H1585 H 0.673 0.42415 0.29784 0.0
H1586 H 0.60651 0.54828 0.27653 0.0
H1587 H 0.67309 0.46639 0.25991 0.0
H1588 H 0.67537 0.61005 0.20669 0.0
H1589 H 0.6761 0.56919 0.2449 0.0
H1590 H 0.60303 0.51187 0.23475 0.0
H1591 H 0.60263 0.55109 0.19665 0.0
C1592 C 0.62114 0.49743 0.30243 0.0
C1593 C 0.63976 0.46222 0.30882 0.0
C1594 C 0.62104 0.52101 0.28089 0.0
C1595 C 0.6399 0.51094 0.2654 0.0
C1596 C 0.65846 0.47519 0.27165 0.0
C1597 C 0.65824 0.45048 0.29313 0.0
C1598 C 0.65937 0.58968 0.21294 0.0
C1599 C 0.63884 0.58414 0.19896 0.0
C1600 C 0.65989 0.56566 0.23456 0.0
C1601 C 0.63967 0.53705 0.24267 0.0
C1602 C 0.61885 0.53363 0.22896 0.0
C1603 C 0.61858 0.55628 0.20725 0.0
H1604 H 0.3652 0.6433 0.29757 0.0
H1605 H 0.40497 0.50371 0.31911 0.0
H1606 H 0.36511 0.60944 0.25835 0.0
H1607 H 0.40394 0.4693 0.28035 0.0
H1608 H 0.36653 0.40225 0.21414 0.0
H1609 H 0.36895 0.43755 0.2529 0.0
H1610 H 0.39762 0.58531 0.22685 0.0
H1611 H 0.39645 0.54944 0.18832 0.0
C1612 C 0.37415 0.60586 0.29394 0.0
C1613 C 0.38508 0.57632 0.31152 0.0
C1614 C 0.37396 0.58629 0.27153 0.0
C1615 C 0.38429 0.5364 0.26637 0.0
C1616 C 0.39553 0.50743 0.28387 0.0
C1617 C 0.39616 0.52738 0.30606 0.0
C1618 C 0.37401 0.44159 0.21667 0.0
C1619 C 0.38168 0.47242 0.19802 0.0
C1620 C 0.37512 0.46209 0.23887 0.0
C1621 C 0.38338 0.51432 0.24287 0.0
C1622 C 0.39096 0.54517 0.22428 0.0
C1623 C 0.39035 0.52436 0.2022 0.0
H1624 H 0.41448 0.43941 0.8053 0.0
H1625 H 0.33664 0.45608 0.80746 0.0
H1626 H 0.4151 0.47843 0.76709 0.0
H1627 H 0.33714 0.4964 0.7694 0.0
H1628 H 0.3529 0.62294 0.7135 0.0
H1629 H 0.35269 0.58208 0.75152 0.0
H1630 H 0.40097 0.45875 0.72755 0.0
H1631 H 0.40116 0.49929 0.68985 0.0
C1632 C 0.39745 0.45003 0.79727 0.0
C1633 C 0.37546 0.44365 0.80898 0.0
C1634 C 0.39779 0.47295 0.77553 0.0
C1635 C 0.37617 0.49087 0.76528 0.0
C1636 C 0.35412 0.48367 0.77696 0.0
C1637 C 0.35378 0.46019 0.79861 0.0
C1638 C 0.36363 0.58746 0.71649 0.0
C1639 C 0.37698 0.56426 0.69871 0.0
C1640 C 0.36334 0.56376 0.73815 0.0
C1641 C 0.3767 0.51694 0.74249 0.0
C1642 C 0.39056 0.49482 0.72481 0.0
C1643 C 0.39058 0.51799 0.70319 0.0
H1644 H 0.65743 0.63428 0.79538 0.0
H1645 H 0.6195 0.49299 0.81772 0.0
H1646 H 0.65781 0.59941 0.75637 0.0
H1647 H 0.62081 0.45762 0.77913 0.0
H1648 H 0.65429 0.39215 0.71102 0.0
H1649 H 0.65432 0.42665 0.75016 0.0
H1650 H 0.62476 0.57566 0.72623 0.0
H1651 H 0.62385 0.54127 0.68764 0.0
C1652 C 0.64899 0.59616 0.79198 0.0
C1653 C 0.63833 0.56667 0.80969 0.0
C1654 C 0.64939 0.57598 0.7697 0.0
C1655 C 0.63956 0.5255 0.76479 0.0
C1656 C 0.62886 0.4962 0.78246 0.0
C1657 C 0.62803 0.51673 0.80455 0.0
C1658 C 0.64755 0.43199 0.71416 0.0
C1659 C 0.63898 0.46364 0.69609 0.0
C1660 C 0.64766 0.45183 0.73653 0.0
C1661 C 0.63971 0.50405 0.74118 0.0
C1662 C 0.6313 0.53561 0.72315 0.0
C1663 C 0.63072 0.51558 0.70099 0.0
H1664 H 0.1185 0.05873 0.94942 0.0
H1665 H 0.14101 0.22276 0.94216 0.0
H1666 H 0.11761 0.06833 0.9901 0.0
H1667 H 0.13897 0.23334 0.9837 0.0
H1668 H 0.163 0.20109 0.05977 0.0
H1669 H 0.15964 0.20705 0.01818 0.0
H1670 H 0.0965 0.10479 0.02046 0.0
H1671 H 0.10097 0.09656 0.06154 0.0
C1672 C 0.12293 0.09736 0.95648 0.0
C1673 C 0.12999 0.13992 0.94238 0.0
C1674 C 0.12214 0.10306 0.98002 0.0
C1675 C 0.12797 0.15181 0.99039 0.0
C1676 C 0.13451 0.19507 0.97633 0.0
C1677 C 0.13548 0.18919 0.95253 0.0
C1678 C 0.14823 0.18074 0.05125 0.0
C1679 C 0.13238 0.14793 0.06364 0.0
C1680 C 0.14622 0.18422 0.02746 0.0
C1681 C 0.12807 0.15557 0.01579 0.0
C1682 C 0.11119 0.12604 0.02867 0.0
C1683 C 0.11357 0.1216 0.05223 0.0
H1684 H 0.85738 0.82475 0.94842 0.0
H1685 H 0.92176 0.92228 0.94774 0.0
H1686 H 0.85965 0.81928 0.99019 0.0
H1687 H 0.92493 0.91478 0.98888 0.0
H1688 H 0.90341 0.9641 0.05944 0.0
H1689 H 0.90356 0.95434 0.01871 0.0
H1690 H 0.87993 0.79101 0.02544 0.0
H1691 H 0.87882 0.80167 0.06708 0.0
C1692 C 0.8724 0.84358 0.95718 0.0
C1693 C 0.88929 0.87426 0.94496 0.0
C1694 C 0.87374 0.8405 0.98109 0.0
C1695 C 0.89221 0.86749 0.99309 0.0
C1696 C 0.91 0.89484 0.98044 0.0
C1697 C 0.90835 0.89881 0.9568 0.0
C1698 C 0.89833 0.92578 0.05246 0.0
C1699 C 0.89106 0.88367 0.06674 0.0
C1700 C 0.89864 0.92001 0.02888 0.0
C1701 C 0.89205 0.87163 0.01856 0.0
C1702 C 0.88503 0.82895 0.03275 0.0
C1703 C 0.88461 0.83487 0.05663 0.0
H1704 H 0.10744 0.95024 0.44776 0.0
H1705 H 0.15933 0.82159 0.44466 0.0
H1706 H 0.10683 0.94375 0.48913 0.0
H1707 H 0.15917 0.8157 0.48638 0.0
H1708 H 0.13788 0.80494 0.56405 0.0
H1709 H 0.135 0.7974 0.52238 0.0
H1710 H 0.13782 0.96876 0.51667 0.0
H1711 H 0.1403 0.97651 0.55744 0.0
C1712 C 0.11855 0.92021 0.45598 0.0
C1713 C 0.13365 0.8869 0.44309 0.0
C1714 C 0.11829 0.91658 0.47966 0.0
C1715 C 0.13331 0.87985 0.49106 0.0
C1716 C 0.14736 0.84428 0.47809 0.0
C1717 C 0.14749 0.84771 0.45426 0.0
C1718 C 0.13787 0.84087 0.55384 0.0
C1719 C 0.13901 0.89128 0.56424 0.0
C1720 C 0.13628 0.83655 0.53 0.0
C1721 C 0.13569 0.88256 0.51626 0.0
C1722 C 0.13752 0.93256 0.52673 0.0
C1723 C 0.1391 0.93688 0.55027 0.0
H1724 H 0.90343 0.06544 0.55937 0.0
H1725 H 0.87555 0.22546 0.56624 0.0
H1726 H 0.90501 0.07574 0.51862 0.0
H1727 H 0.87816 0.23685 0.52471 0.0
H1728 H 0.85963 0.2039 0.44698 0.0
H1729 H 0.85999 0.20802 0.48881 0.0
H1730 H 0.92674 0.11732 0.48956 0.0
H1731 H 0.92548 0.11113 0.44827 0.0
C1732 C 0.89788 0.10332 0.55221 0.0
C1733 C 0.88924 0.14456 0.56623 0.0
C1734 C 0.89904 0.10945 0.52865 0.0
C1735 C 0.892 0.15741 0.51816 0.0
C1736 C 0.88363 0.19923 0.53214 0.0
C1737 C 0.88233 0.19292 0.55596 0.0
C1738 C 0.87456 0.18588 0.45622 0.0
C1739 C 0.89246 0.15696 0.44451 0.0
C1740 C 0.87481 0.18817 0.48017 0.0
C1741 C 0.89315 0.16211 0.49273 0.0
C1742 C 0.91189 0.13648 0.48065 0.0
C1743 C 0.91136 0.13332 0.45694 0.0
H1744 H 0.63962 0.72938 0.06324 0.0
H1745 H 0.62749 0.55964 0.05845 0.0
H1746 H 0.63653 0.73643 0.02172 0.0
H1747 H 0.62556 0.56628 0.01757 0.0
H1748 H 0.60274 0.58858 0.94673 0.0
H1749 H 0.60056 0.59584 0.98793 0.0
H1750 H 0.65758 0.71417 0.98673 0.0
H1751 H 0.65877 0.70845 0.94502 0.0
C1752 C 0.6362 0.69369 0.05342 0.0
C1753 C 0.63364 0.64404 0.06431 0.0
C1754 C 0.63464 0.69765 0.0296 0.0
C1755 C 0.63054 0.65204 0.0162 0.0
C1756 C 0.62807 0.6026 0.02722 0.0
C1757 C 0.62942 0.59872 0.05083 0.0
C1758 C 0.61453 0.61677 0.95527 0.0
C1759 C 0.63106 0.64764 0.9428 0.0
C1760 C 0.61345 0.62069 0.97892 0.0
C1761 C 0.62931 0.65466 0.99082 0.0
C1762 C 0.64503 0.68771 0.97818 0.0
C1763 C 0.64577 0.68446 0.95432 0.0
H1764 H 0.3642 0.32319 0.94743 0.0
H1765 H 0.42056 0.44231 0.94566 0.0
H1766 H 0.36606 0.32237 0.98916 0.0
H1767 H 0.42311 0.44041 0.98702 0.0
H1768 H 0.39542 0.48437 0.05722 0.0
H1769 H 0.3977 0.47333 0.01643 0.0
H1770 H 0.38874 0.30334 0.02413 0.0
H1771 H 0.3857 0.3146 0.06549 0.0
C1772 C 0.37741 0.34812 0.95598 0.0
C1773 C 0.39204 0.38326 0.94341 0.0
C1774 C 0.37851 0.34767 0.97986 0.0
C1775 C 0.39446 0.38201 0.99155 0.0
C1776 C 0.41016 0.41448 0.9787 0.0
C1777 C 0.40885 0.41533 0.95498 0.0
C1778 C 0.39407 0.44442 0.0504 0.0
C1779 C 0.39033 0.40037 0.0648 0.0
C1780 C 0.39558 0.43804 0.02685 0.0
C1781 C 0.3936 0.38736 0.01687 0.0
C1782 C 0.39018 0.34301 0.03122 0.0
C1783 C 0.38864 0.34942 0.05495 0.0
H1784 H 0.64563 0.31424 0.44362 0.0
H1785 H 0.61464 0.47191 0.44762 0.0
H1786 H 0.64157 0.30446 0.48463 0.0
H1787 H 0.61288 0.4647 0.48861 0.0
H1788 H 0.59894 0.43772 0.56165 0.0
H1789 H 0.59529 0.43176 0.52045 0.0
H1790 H 0.65834 0.32869 0.51869 0.0
H1791 H 0.6604 0.33153 0.56013 0.0
C1792 C 0.63759 0.34654 0.45318 0.0
C1793 C 0.63011 0.39353 0.44219 0.0
C1794 C 0.63575 0.34145 0.47689 0.0
C1795 C 0.62693 0.38375 0.49032 0.0
C1796 C 0.61922 0.43049 0.47914 0.0
C1797 C 0.6205 0.435 0.45547 0.0
C1798 C 0.61164 0.41293 0.55236 0.0
C1799 C 0.62994 0.38514 0.56394 0.0
C1800 C 0.60982 0.40998 0.52866 0.0
C1801 C 0.62684 0.38067 0.51583 0.0
C1802 C 0.64464 0.35118 0.52771 0.0
C1803 C 0.64593 0.35282 0.55153 0.0
H1804 H 0.36096 0.71417 0.56626 0.0
H1805 H 0.41875 0.59833 0.56352 0.0
H1806 H 0.36139 0.72034 0.5244 0.0
H1807 H 0.41967 0.60528 0.52225 0.0
H1808 H 0.38853 0.56229 0.45407 0.0
H1809 H 0.39031 0.57216 0.49481 0.0
H1810 H 0.38494 0.74295 0.4879 0.0
H1811 H 0.38274 0.73313 0.44623 0.0
C1812 C 0.3742 0.69133 0.55675 0.0
C1813 C 0.38965 0.65537 0.56804 0.0
C1814 C 0.37444 0.69476 0.53283 0.0
C1815 C 0.39024 0.6625 0.51996 0.0
C1816 C 0.40685 0.62969 0.53156 0.0
C1817 C 0.40643 0.6259 0.55523 0.0
C1818 C 0.38778 0.60224 0.46095 0.0
C1819 C 0.38569 0.647 0.44663 0.0
C1820 C 0.38895 0.60785 0.4845 0.0
C1821 C 0.3882 0.65839 0.49468 0.0
C1822 C 0.38563 0.70344 0.48056 0.0
C1823 C 0.38448 0.69781 0.45671 0.0
H1824 H 0.96035 0.94049 0.16499 0.0
H1825 H 0.94785 1.00857 0.09854 0.0
H1826 H 1.00256 0.96804 0.16344 0.0
H1827 H 0.99046 0.03466 0.09644 0.0
H1828 H 0.06184 0.12022 0.10751 0.0
H1829 H 0.0198 0.09249 0.10906 0.0
H1830 H 0.04084 0.954 0.14825 0.0
H1831 H 0.08279 0.98543 0.14851 0.0
C1832 C 0.96669 0.96114 0.14992 0.0
C1833 C 0.95064 0.97244 0.1319 0.0
C1834 C 0.99109 0.97665 0.14893 0.0
C1835 C 1.00033 1.00366 0.12978 0.0
C1836 C 0.98416 1.01493 0.11172 0.0
C1837 C 0.95963 0.99988 0.11285 0.0
C1838 C 0.05744 0.08472 0.117 0.0
C1839 C 0.07568 0.05632 0.12853 0.0
C1840 C 0.03323 0.06787 0.11745 0.0
C1841 C 0.02649 0.02087 0.1289 0.0
C1842 C 0.04498 0.99112 0.13972 0.0
C1843 C 0.0692 1.00878 0.13964 0.0
H1844 H 0.95866 0.08135 0.34369 0.0
H1845 H 0.95073 0.03116 0.41359 0.0
H1846 H 1.00076 0.05251 0.34395 0.0
H1847 H 0.99288 0.99975 0.41359 0.0
H1848 H 0.07713 1.00156 0.41179 0.0
H1849 H 0.03482 0.03158 0.4127 0.0
H1850 H 0.02474 0.97332 0.34416 0.0
H1851 H 0.06709 0.94603 0.34295 0.0
C1852 C 0.9659 0.06397 0.35914 0.0
C1853 C 0.9513 0.05895 0.37867 0.0
C1854 C 0.99006 0.0468 0.35922 0.0
C1855 C 1.00036 0.0235 0.37876 0.0
C1856 C 0.9857 0.01802 0.3983 0.0
C1857 C 0.96144 0.0355 0.39824 0.0
C1858 C 0.06588 0.99556 0.39688 0.0
C1859 C 0.07546 0.97087 0.37736 0.0
C1860 C 0.04153 1.01223 0.39748 0.0
C1861 C 0.02621 1.00486 0.37853 0.0
C1862 C 0.03594 0.98031 0.35902 0.0
C1863 C 0.06022 0.96392 0.35841 0.0
H1864 H 0.06308 0.08155 0.84416 0.0
H1865 H 0.07461 0.01582 0.91125 0.0
H1866 H 0.02056 0.05687 0.84593 0.0
H1867 H 0.03178 0.98876 0.91268 0.0
H1868 H 0.94716 0.9968 0.91498 0.0
H1869 H 0.98989 0.02475 0.91506 0.0
H1870 H 0.9961 0.97827 0.84451 0.0
H1871 H 0.95361 0.95279 0.84422 0.0
C1872 C 0.05655 0.06157 0.85932 0.0
C1873 C 0.07231 0.05092 0.87761 0.0
C1874 C 0.03211 0.04692 0.86024 0.0
C1875 C 0.02262 0.02055 0.87941 0.0
C1876 C 0.03839 1.00946 0.89773 0.0
C1877 C 0.063 0.02432 0.8968 0.0
C1878 C 0.95762 0.99341 0.89944 0.0
C1879 C 0.94694 0.97268 0.87959 0.0
C1880 C 0.98219 1.00872 0.89955 0.0
C1881 C 0.99653 1.00387 0.87978 0.0
C1882 C 0.98565 0.98343 0.85997 0.0
C1883 C 0.96124 0.96835 0.85986 0.0
H1884 H 0.95383 0.06572 0.66788 0.0
H1885 H 0.94617 0.03034 0.5964 0.0
H1886 H 0.99598 0.03761 0.66672 0.0
H1887 H 0.98886 1.00427 0.59477 0.0
H1888 H 0.06101 0.91793 0.60278 0.0
H1889 H 0.01836 0.94255 0.60388 0.0
H1890 H 0.0345 0.06074 0.65524 0.0
H1891 H 0.07672 0.03189 0.65558 0.0
C1892 C 0.96124 0.0519 0.65185 0.0
C1893 C 0.94664 0.05001 0.63225 0.0
C1894 C 0.98559 0.03627 0.65109 0.0
C1895 C 0.99624 0.01894 0.6306 0.0
C1896 C 0.98143 0.0165 0.61099 0.0
C1897 C 0.95688 0.03148 0.61186 0.0
C1898 C 0.05531 0.94821 0.61469 0.0
C1899 C 0.07215 0.97154 0.62961 0.0
C1900 C 0.03083 0.96328 0.61502 0.0
C1901 C 0.02258 1.0035 0.62982 0.0
C1902 C 0.03978 0.02853 0.64405 0.0
C1903 C 0.06418 1.01253 0.64404 0.0
H1904 H 0.45509 0.44689 0.16309 0.0
H1905 H 0.44219 0.5294 0.09993 0.0
H1906 H 0.49724 0.47602 0.16279 0.0
H1907 H 0.48462 0.55699 0.09875 0.0
H1908 H 0.55732 0.63544 0.11014 0.0
H1909 H 0.515 0.60988 0.11183 0.0
H1910 H 0.53513 0.46596 0.14779 0.0
H1911 H 0.57726 0.49519 0.14822 0.0
C1912 C 0.46139 0.47147 0.14912 0.0
C1913 C 0.44529 0.4868 0.13177 0.0
C1914 C 0.48571 0.4878 0.14875 0.0
C1915 C 0.49483 0.51908 0.13071 0.0
C1916 C 0.47849 0.53418 0.11328 0.0
C1917 C 0.45402 0.51851 0.1139 0.0
C1918 C 0.55266 0.59918 0.11902 0.0
C1919 C 0.57074 0.56856 0.12974 0.0
C1920 C 0.52825 0.58362 0.11953 0.0
C1921 C 0.52112 0.53568 0.13009 0.0
C1922 C 0.53946 0.50389 0.14004 0.0
C1923 C 0.56385 0.52029 0.14003 0.0
H1924 H 0.46173 0.61295 0.40657 0.0
H1925 H 0.44382 0.50317 0.35274 0.0
H1926 H 0.50412 0.58469 0.40495 0.0
H1927 H 0.48614 0.47329 0.35163 0.0
H1928 H 0.55712 0.39349 0.37627 0.0
H1929 H 0.51533 0.42436 0.37628 0.0
H1930 H 0.54053 0.58698 0.37921 0.0
H1931 H 0.58264 0.55538 0.37807 0.0
C1932 C 0.46691 0.58326 0.39418 0.0
C1933 C 0.44945 0.56121 0.37948 0.0
C1934 C 0.49122 0.56684 0.39332 0.0
C1935 C 0.49865 0.5269 0.37807 0.0
C1936 C 0.48106 0.50396 0.36367 0.0
C1937 C 0.45678 0.52099 0.36433 0.0
C1938 C 0.55388 0.43571 0.37632 0.0
C1939 C 0.5734 0.47171 0.37686 0.0
C1940 C 0.5298 0.45357 0.37652 0.0
C1941 C 0.52446 0.50823 0.37762 0.0
C1942 C 0.54395 0.54453 0.37854 0.0
C1943 C 0.56812 0.52645 0.37806 0.0
H1944 H 0.4535 0.45491 0.83923 0.0
H1945 H 0.44774 0.48552 0.91124 0.0
H1946 H 0.49588 0.48338 0.83987 0.0
H1947 H 0.49018 0.51307 0.91216 0.0
H1948 H 0.55927 0.60904 0.90281 0.0
H1949 H 0.51712 0.58073 0.9016 0.0
H1950 H 0.53573 0.46086 0.85179 0.0
H1951 H 0.57777 0.49242 0.85189 0.0
C1952 C 0.4614 0.46736 0.85525 0.0
C1953 C 0.44733 0.46763 0.8752 0.0
C1954 C 0.48576 0.48353 0.85567 0.0
C1955 C 0.49673 0.50054 0.87608 0.0
C1956 C 0.48245 0.5011 0.89601 0.0
C1957 C 0.45806 0.48516 0.89554 0.0
C1958 C 0.55428 0.57741 0.89126 0.0
C1959 C 0.5718 0.55404 0.87705 0.0
C1960 C 0.5301 0.56033 0.89086 0.0
C1961 C 0.52274 0.51838 0.87655 0.0
C1962 C 0.54048 0.49393 0.86273 0.0
C1963 C 0.5647 0.51157 0.86297 0.0
H1964 H 0.44487 0.52723 0.59749 0.0
H1965 H 0.45608 0.58324 0.66615 0.0
H1966 H 0.48741 0.49987 0.59558 0.0
H1967 H 0.49844 0.55613 0.6643 0.0
H1968 H 0.57906 0.54643 0.64666 0.0
H1969 H 0.53688 0.5771 0.64692 0.0
H1970 H 0.51534 0.4355 0.61039 0.0
H1971 H 0.5574 0.40659 0.60913 0.0
C1972 C 0.45635 0.53336 0.61223 0.0
C1973 C 0.44706 0.5578 0.6319 0.0
C1974 C 0.48078 0.51769 0.61116 0.0
C1975 C 0.49654 0.52596 0.62975 0.0
C1976 C 0.48709 0.54997 0.64948 0.0
C1977 C 0.4627 0.56543 0.65056 0.0
C1978 C 0.56534 0.52218 0.6385 0.0
C1979 C 0.57164 0.47361 0.62817 0.0
C1980 C 0.54109 0.53946 0.63883 0.0
C1981 C 0.52254 0.50867 0.6288 0.0
C1982 C 0.52902 0.46062 0.61812 0.0
C1983 C 0.55319 0.44354 0.61771 0.0
H1984 H 0.16222 0.75157 0.09387 0.0
H1985 H 0.1135 0.74423 0.15132 0.0
H1986 H 0.17319 0.6582 0.09992 0.0
H1987 H 0.12477 0.65174 0.15776 0.0
H1988 H 0.12755 0.47387 0.14829 0.0
H1989 H 0.11844 0.567 0.14135 0.0
H1990 H 0.19361 0.59564 0.12418 0.0
H1991 H 0.20245 0.50129 0.12981 0.0
C1992 C 0.15411 0.73018 0.10797 0.0
C1993 C 0.13679 0.75508 0.12196 0.0
C1994 C 0.16041 0.67667 0.11148 0.0
C1995 C 0.14967 0.64699 0.12918 0.0
C1996 C 0.13296 0.6727 0.14359 0.0
C1997 C 0.12654 0.72588 0.13997 0.0
C1998 C 0.14212 0.49968 0.14269 0.0
C1999 C 0.16576 0.47974 0.13961 0.0
C2000 C 0.13696 0.55351 0.13904 0.0
C2001 C 0.15532 0.58927 0.13243 0.0
C2002 C 0.17896 0.56934 0.12914 0.0
C2003 C 0.1841 0.51526 0.13266 0.0
H2004 H 0.88631 0.26377 0.10253 0.0
H2005 H 0.81284 0.30877 0.11997 0.0
H2006 H 0.89952 0.35465 0.10847 0.0
H2007 H 0.82583 0.40099 0.12429 0.0
H2008 H 0.86467 0.54938 0.15393 0.0
H2009 H 0.84867 0.45959 0.14809 0.0
H2010 H 0.89729 0.43896 0.09096 0.0
H2011 H 0.91368 0.52768 0.09739 0.0
C2012 C 0.87292 0.29295 0.10769 0.0
C2013 C 0.84847 0.27861 0.11083 0.0
C2014 C 0.88045 0.3455 0.1107 0.0
C2015 C 0.86371 0.38548 0.11659 0.0
C2016 C 0.83927 0.37124 0.11988 0.0
C2017 C 0.83175 0.3184 0.11711 0.0
C2018 C 0.87166 0.52569 0.13999 0.0
C2019 C 0.89057 0.54508 0.12626 0.0
C2020 C 0.8625 0.4743 0.1366 0.0
C2021 C 0.87194 0.4416 0.11926 0.0
C2022 C 0.89006 0.46232 0.10489 0.0
C2023 C 0.89936 0.51329 0.10844 0.0
H2024 H 0.08325 0.29228 0.37538 0.0
H2025 H 0.16154 0.28069 0.37935 0.0
H2026 H 0.08681 0.38531 0.3643 0.0
H2027 H 0.16484 0.37328 0.36683 0.0
H2028 H 0.15234 0.52056 0.31589 0.0
H2029 H 0.15185 0.42792 0.32927 0.0
H2030 H 0.10419 0.47274 0.38431 0.0
H2031 H 0.1051 0.56555 0.37123 0.0
C2032 C 0.10124 0.30933 0.37408 0.0
C2033 C 0.12209 0.27845 0.37859 0.0
C2034 C 0.10322 0.36274 0.36757 0.0
C2035 C 0.12607 0.38654 0.36485 0.0
C2036 C 0.14698 0.35578 0.36874 0.0
C2037 C 0.14503 0.30252 0.37575 0.0
C2038 C 0.14192 0.51056 0.33094 0.0
C2039 C 0.12867 0.55008 0.34248 0.0
C2040 C 0.14174 0.45773 0.33864 0.0
C2041 C 0.12788 0.44321 0.35774 0.0
C2042 C 0.1149 0.48287 0.36946 0.0
C2043 C 0.1155 0.53589 0.36205 0.0
H2044 H 0.83029 0.50598 0.37902 0.0
H2045 H 0.90407 0.47782 0.35687 0.0
H2046 H 0.83949 0.60019 0.38371 0.0
H2047 H 0.91369 0.57064 0.36327 0.0
H2048 H 0.91754 0.74775 0.35149 0.0
H2049 H 0.90689 0.65435 0.34678 0.0
H2050 H 0.86065 0.66336 0.40618 0.0
H2051 H 0.87074 0.7576 0.41025 0.0
C2052 C 0.8485 0.51969 0.37526 0.0
C2053 C 0.86638 0.48404 0.36747 0.0
C2054 C 0.85387 0.57369 0.37826 0.0
C2055 C 0.87733 0.59328 0.37375 0.0
C2056 C 0.89531 0.55735 0.36649 0.0
C2057 C 0.88987 0.50366 0.36321 0.0
C2058 C 0.90515 0.72962 0.36354 0.0
C2059 C 0.89506 0.75972 0.38129 0.0
C2060 C 0.8991 0.67601 0.36094 0.0
C2061 C 0.88307 0.65095 0.37624 0.0
C2062 C 0.87282 0.68137 0.39391 0.0
C2063 C 0.87865 0.73529 0.39632 0.0
H2064 H 0.85483 0.26608 0.90045 0.0
H2065 H 0.9284 0.29363 0.87751 0.0
H2066 H 0.84497 0.35833 0.89297 0.0
H2067 H 0.9191 0.38734 0.87212 0.0
H2068 H 0.88936 0.54428 0.84499 0.0
H2069 H 0.89885 0.44991 0.84964 0.0
H2070 H 0.85065 0.44291 0.90776 0.0
H2071 H 0.84042 0.53629 0.90222 0.0
C2072 C 0.86896 0.29163 0.89376 0.0
C2073 C 0.89246 0.27192 0.88958 0.0
C2074 C 0.86339 0.3451 0.88987 0.0
C2075 C 0.88127 0.38081 0.88217 0.0
C2076 C 0.90474 0.36111 0.87784 0.0
C2077 C 0.9102 0.30733 0.88132 0.0
C2078 C 0.88086 0.52229 0.85872 0.0
C2079 C 0.86407 0.54729 0.87316 0.0
C2080 C 0.88636 0.46829 0.8615 0.0
C2081 C 0.87547 0.43838 0.87904 0.0
C2082 C 0.85896 0.46402 0.89369 0.0
C2083 C 0.85317 0.51767 0.89065 0.0
H2084 H 0.10704 0.49806 0.9096 0.0
H2085 H 0.15091 0.4758 0.84951 0.0
H2086 H 0.12392 0.58683 0.91458 0.0
H2087 H 0.16725 0.56574 0.85382 0.0
H2088 H 0.20687 0.71391 0.87992 0.0
H2089 H 0.19253 0.62267 0.87579 0.0
H2090 H 0.12109 0.67158 0.89799 0.0
H2091 H 0.13582 0.76127 0.90385 0.0
C2092 C 0.12025 0.51247 0.8974 0.0
C2093 C 0.12759 0.48041 0.87911 0.0
C2094 C 0.12983 0.56344 0.90012 0.0
C2095 C 0.14671 0.5839 0.88441 0.0
C2096 C 0.15447 0.55118 0.86637 0.0
C2097 C 0.14509 0.49977 0.86383 0.0
C2098 C 0.18819 0.70503 0.88422 0.0
C2099 C 0.17258 0.74515 0.89231 0.0
C2100 C 0.17987 0.65278 0.88154 0.0
C2101 C 0.15567 0.63953 0.8867 0.0
C2102 C 0.13997 0.67993 0.8943 0.0
C2103 C 0.14835 0.73183 0.89727 0.0
H2104 H 0.85336 0.75949 0.61107 0.0
H2105 H 0.92839 0.73329 0.6298 0.0
H2106 H 0.84446 0.66689 0.61878 0.0
H2107 H 0.91996 0.6393 0.63533 0.0
H2108 H 0.89288 0.48154 0.6638 0.0
H2109 H 0.90171 0.57599 0.65862 0.0
H2110 H 0.84934 0.58252 0.60371 0.0
H2111 H 0.83973 0.48899 0.60994 0.0
C2112 C 0.86802 0.73415 0.61687 0.0
C2113 C 0.89164 0.75435 0.6198 0.0
C2114 C 0.86298 0.68047 0.62087 0.0
C2115 C 0.88151 0.64505 0.62744 0.0
C2116 C 0.90511 0.66525 0.63052 0.0
C2117 C 0.91006 0.71923 0.62695 0.0
C2118 C 0.88335 0.50343 0.65063 0.0
C2119 C 0.86559 0.47829 0.63732 0.0
C2120 C 0.88847 0.55749 0.64754 0.0
C2121 C 0.87621 0.58732 0.63077 0.0
C2122 C 0.85875 0.56147 0.61718 0.0
C2123 C 0.85333 0.50774 0.62058 0.0
H2124 H 0.17701 0.26454 0.62249 0.0
H2125 H 0.10893 0.31518 0.59309 0.0
H2126 H 0.18318 0.35406 0.63788 0.0
H2127 H 0.1154 0.40465 0.6077 0.0
H2128 H 0.12428 0.55147 0.65112 0.0
H2129 H 0.11736 0.45827 0.64155 0.0
H2130 H 0.19283 0.44192 0.62271 0.0
H2131 H 0.19975 0.53511 0.63242 0.0
C2132 C 0.16325 0.2946 0.61954 0.0
C2133 C 0.14261 0.28294 0.60639 0.0
C2134 C 0.1669 0.34603 0.62812 0.0
C2135 C 0.1499 0.38674 0.62386 0.0
C2136 C 0.12881 0.37432 0.61147 0.0
C2137 C 0.12521 0.32311 0.60288 0.0
C2138 C 0.13938 0.52803 0.64486 0.0
C2139 C 0.16254 0.55087 0.64239 0.0
C2140 C 0.13542 0.47455 0.6394 0.0
C2141 C 0.15451 0.44254 0.63129 0.0
C2142 C 0.17779 0.46512 0.62924 0.0
C2143 C 0.18176 0.51862 0.63475 0.0
H2144 H 0.59629 1.00934 0.12896 0.0
H2145 H 0.66314 0.98787 0.16603 0.0
H2146 H 0.60972 0.09703 0.11651 0.0
H2147 H 0.67616 0.07721 0.15507 0.0
H2148 H 0.70251 0.22216 0.1166 0.0
H2149 H 0.69028 0.13233 0.12658 0.0
H2150 H 0.6152 0.18296 0.12819 0.0
H2151 H 0.62713 0.27068 0.11574 0.0
C2152 C 0.61378 0.02398 0.13464 0.0
C2153 C 0.62868 0.99234 0.14847 0.0
C2154 C 0.62146 0.07442 0.1277 0.0
C2155 C 0.644 0.09497 0.13493 0.0
C2156 C 0.6589 0.06278 0.1488 0.0
C2157 C 0.65141 1.01175 0.15528 0.0
C2158 C 0.68334 0.21396 0.1186 0.0
C2159 C 0.66589 0.25421 0.11525 0.0
C2160 C 0.67631 0.16239 0.12478 0.0
C2161 C 0.65167 0.14984 0.12825 0.0
C2162 C 0.63431 0.19036 0.12525 0.0
C2163 C 0.64126 0.24144 0.11855 0.0
H2164 H 0.40426 0.79829 0.14816 0.0
H2165 H 0.35027 0.78769 0.09513 0.0
H2166 H 0.39353 0.89115 0.1545 0.0
H2167 H 0.34002 0.88151 0.10076 0.0
H2168 H 0.31412 0.04104 0.12968 0.0
H2169 H 0.32212 0.94625 0.12492 0.0
H2170 H 0.39847 0.97438 0.13705 0.0
H2171 H 0.39019 0.0679 0.14347 0.0
C2172 C 0.39014 0.81607 0.13779 0.0
C2173 C 0.37822 0.78599 0.12105 0.0
C2174 C 0.38407 0.86942 0.14129 0.0
C2175 C 0.36614 0.89435 0.12791 0.0
C2176 C 0.35376 0.86369 0.11153 0.0
C2177 C 0.35965 0.80997 0.10824 0.0
C2178 C 0.33254 0.02685 0.13163 0.0
C2179 C 0.35144 0.06235 0.13706 0.0
C2180 C 0.33721 0.97249 0.12859 0.0
C2181 C 0.36095 0.9523 0.13074 0.0
C2182 C 0.37988 0.98805 0.13572 0.0
C2183 C 0.37517 0.04214 0.13899 0.0
H2184 H 0.62146 0.07073 0.35661 0.0
H2185 H 0.69563 0.02589 0.34231 0.0
H2186 H 0.61309 0.9804 0.36974 0.0
H2187 H 0.68694 0.93516 0.35403 0.0
H2188 H 0.66996 0.78451 0.39372 0.0
H2189 H 0.67875 0.87728 0.38451 0.0
H2190 H 0.60722 0.89369 0.35496 0.0
H2191 H 0.59833 0.80144 0.36479 0.0
C2192 C 0.63603 0.04178 0.35637 0.0
C2193 C 0.65916 0.05569 0.34814 0.0
C2194 C 0.63114 0.98962 0.3636 0.0
C2195 C 0.64923 0.94992 0.36272 0.0
C2196 C 0.67254 0.96441 0.35515 0.0
C2197 C 0.67746 0.01651 0.34809 0.0
C2198 C 0.65619 0.80793 0.38514 0.0
C2199 C 0.63345 0.78558 0.37999 0.0
C2200 C 0.66121 0.86121 0.37983 0.0
C2201 C 0.6437 0.89343 0.369 0.0
C2202 C 0.62101 0.87074 0.36372 0.0
C2203 C 0.61593 0.81765 0.36923 0.0
H2204 H 0.39819 0.98413 0.36327 0.0
H2205 H 0.32078 0.99878 0.37334 0.0
H2206 H 0.40336 0.07758 0.37335 0.0
H2207 H 0.32595 0.09226 0.3835 0.0
H2208 H 0.34061 0.27039 0.38455 0.0
H2209 H 0.33699 0.18023 0.36897 0.0
H2210 H 0.40069 0.13244 0.40681 0.0
H2211 H 0.4046 0.22235 0.42174 0.0
C2212 C 0.38228 1.00718 0.36779 0.0
C2213 C 0.35909 0.98376 0.36761 0.0
C2214 C 0.38524 0.06086 0.37351 0.0
C2215 C 0.36508 0.09259 0.37925 0.0
C2216 C 0.34184 0.06934 0.3788 0.0
C2217 C 0.33888 0.01563 0.37305 0.0
C2218 C 0.35406 0.24079 0.38914 0.0
C2219 C 0.37274 0.25331 0.40454 0.0
C2220 C 0.35185 0.189 0.38044 0.0
C2221 C 0.3684 0.14883 0.38681 0.0
C2222 C 0.38769 0.16225 0.4014 0.0
C2223 C 0.38982 0.21375 0.41013 0.0
H2224 H 0.356 0.76738 0.89363 0.0
H2225 H 0.42997 0.79625 0.87233 0.0
H2226 H 0.34642 0.86059 0.88752 0.0
H2227 H 0.42082 0.89047 0.86789 0.0
H2228 H 0.38987 0.04729 0.84036 0.0
H2229 H 0.40021 0.95342 0.84517 0.0
H2230 H 0.35257 0.94496 0.9036 0.0
H2231 H 0.34166 0.03813 0.89813 0.0
C2232 C 0.37026 0.7935 0.8876 0.0
C2233 C 0.39379 0.77395 0.88348 0.0
C2234 C 0.36485 0.84737 0.88447 0.0
C2235 C 0.38288 0.88349 0.87743 0.0
C2236 C 0.40638 0.86393 0.87314 0.0
C2237 C 0.41174 0.80986 0.87602 0.0
C2238 C 0.3818 0.02531 0.85432 0.0
C2239 C 0.3649 0.04987 0.86881 0.0
C2240 C 0.38775 0.97151 0.85714 0.0
C2241 C 0.37713 0.94122 0.8747 0.0
C2242 C 0.36068 0.96646 0.88954 0.0
C2243 C 0.35452 0.01999 0.88653 0.0
H2244 H 0.61513 0.21738 0.91971 0.0
H2245 H 0.67975 0.26508 0.88349 0.0
H2246 H 0.61913 0.12755 0.90474 0.0
H2247 H 0.68346 0.175 0.86783 0.0
H2248 H 0.69939 0.99361 0.8714 0.0
H2249 H 0.69418 0.08681 0.88202 0.0
H2250 H 0.61682 0.07261 0.87142 0.0
H2251 H 0.62204 0.97941 0.86092 0.0
C2252 C 0.63008 0.20874 0.9083 0.0
C2253 C 0.6473 0.24821 0.90301 0.0
C2254 C 0.63226 0.15726 0.89953 0.0
C2255 C 0.65175 0.14371 0.8852 0.0
C2256 C 0.66844 0.18381 0.87912 0.0
C2257 C 0.66618 0.23558 0.88786 0.0
C2258 C 0.68129 1.01049 0.87114 0.0
C2259 C 0.66112 0.97882 0.8654 0.0
C2260 C 0.6783 0.06407 0.87715 0.0
C2261 C 0.65507 0.08744 0.87756 0.0
C2262 C 0.63494 0.05585 0.87161 0.0
C2263 C 0.63792 1.00228 0.86565 0.0
H2264 H 0.417 1.00321 0.60819 0.0
H2265 H 0.36691 0.98101 0.66384 0.0
H2266 H 0.40086 0.09222 0.60168 0.0
H2267 H 0.35133 0.07119 0.65815 0.0
H2268 H 0.31464 0.21951 0.62883 0.0
H2269 H 0.32859 0.1285 0.63449 0.0
H2270 H 0.40178 0.17714 0.61786 0.0
H2271 H 0.38754 0.26665 0.61035 0.0
C2272 C 0.40257 0.01769 0.61909 0.0
C2273 C 0.39325 0.98555 0.63656 0.0
C2274 C 0.39342 0.06884 0.61552 0.0
C2275 C 0.375 0.08942 0.6296 0.0
C2276 C 0.36533 0.05661 0.64682 0.0
C2277 C 0.37427 1.00502 0.65015 0.0
C2278 C 0.33365 0.21066 0.62607 0.0
C2279 C 0.34988 0.25065 0.61896 0.0
C2280 C 0.34174 0.1585 0.62965 0.0
C2281 C 0.36631 0.14514 0.62647 0.0
C2282 C 0.38262 0.18549 0.62 0.0
C2283 C 0.3745 0.23734 0.6161 0.0
H2284 H 0.66859 0.77145 0.64067 0.0
H2285 H 0.61726 0.8096 0.58759 0.0
H2286 H 0.66224 0.8598 0.65751 0.0
H2287 H 0.61054 0.89687 0.60444 0.0
H2288 H 0.62655 0.06835 0.62122 0.0
H2289 H 0.63318 0.97826 0.6074 0.0
H2290 H 0.63376 0.91973 0.67658 0.0
H2291 H 0.62816 1.01056 0.69051 0.0
C2292 C 0.65559 0.79832 0.63291 0.0
C2293 C 0.64362 0.78395 0.6127 0.0
C2294 C 0.65198 0.84894 0.64249 0.0
C2295 C 0.63623 0.88596 0.63206 0.0
C2296 C 0.62333 0.87012 0.61256 0.0
C2297 C 0.62702 0.81992 0.60299 0.0
C2298 C 0.62846 0.03651 0.63354 0.0
C2299 C 0.62672 0.0469 0.657 0.0
C2300 C 0.63192 0.98459 0.6256 0.0
C2301 C 0.63366 0.94145 0.64085 0.0
C2302 C 0.63253 0.95191 0.66434 0.0
C2303 C 0.62906 1.00397 0.67231 0.0
loop_
_geom_bond_atom_site_label_1
_geom_bond_atom_site_label_2
_geom_bond_distance
_geom_bond_site_symmetry_2
_ccdc_geom_bond_type
C0 C2 1.422 . S
C0 C4 1.415 . S
C0 N6 1.369 . S
C1 C2 1.421 . S
C1 C3 1.417 . S
C1 C13 1.422 . S
C2 C0 1.422 . S
C2 C1 1.421 . S
C2 N12 1.359 . S
C3 C1 1.417 . S
C3 C5 1.329 . S
C3 H22 0.930 . S
C4 C0 1.415 . S
C4 C5 1.437 . S
C4 C8 1.413 . S
C5 C3 1.329 . S
C5 C4 1.437 . S
C5 H27 0.929 . S
N6 C0 1.369 . S
N6 C7 1.338 . S
N6 Gd11 2.622 . S
C7 N6 1.338 . S
C7 C9 1.378 . S
C7 H19 0.929 . S
C8 C4 1.413 . S
C8 C9 1.348 . S
C8 H24 0.931 . S
C9 C7 1.378 . S
C9 C8 1.348 . S
C9 H25 0.930 . S
Gd10 N30 2.622 . S
Gd10 N37 2.570 . S
Gd10 O44 2.353 . S
Gd10 O45 2.468 . S
Gd10 O46 2.427 . S
Gd10 O48 2.388 . S
Gd10 O49 2.386 . S
Gd10 O53 2.307 . S
Gd10 C63 2.805 . S
Gd11 N6 2.622 . S
Gd11 N12 2.570 . S
Gd11 O43 2.386 . S
Gd11 O47 2.307 . S
Gd11 O50 2.353 . S
Gd11 O51 2.468 1_545 S
Gd11 O52 2.427 1_545 S
Gd11 O54 2.388 . S
Gd11 C75 2.805 1_545 S
N12 C2 1.359 . S
N12 Gd11 2.570 . S
N12 C14 1.343 . S
C13 C1 1.422 . S
C13 C15 1.321 . S
C13 H21 0.931 . S
C14 N12 1.343 . S
C14 C15 1.390 . S
C14 H16 0.931 . S
C15 C13 1.321 . S
C15 C14 1.390 . S
C15 H17 0.930 . S
H16 C14 0.931 . S
H17 C15 0.930 . S
H18 C41 0.931 . S
H19 C7 0.929 . S
H20 C42 0.930 . S
H21 C13 0.931 . S
H22 C3 0.930 . S
H23 C32 0.929 . S
H24 C8 0.931 . S
H25 C9 0.930 . S
H26 C64 0.930 1_655 S
H27 C5 0.929 . S
H28 C33 0.931 . S
H29 C34 0.930 . S
N30 Gd10 2.622 . S
N30 C31 1.369 . S
N30 C32 1.338 . S
C31 N30 1.369 . S
C31 C35 1.415 . S
C31 C38 1.422 . S
C32 H23 0.929 . S
C32 N30 1.338 . S
C32 C34 1.378 . S
C33 H28 0.931 . S
C33 C34 1.348 . S
C33 C35 1.413 . S
C34 H29 0.930 . S
C34 C32 1.378 . S
C34 C33 1.348 . S
C35 C31 1.415 . S
C35 C33 1.413 . S
C35 C65 1.437 . S
H36 C65 0.906 1_655 S
N37 Gd10 2.570 . S
N37 C38 1.359 . S
N37 C41 1.343 . S
C38 C31 1.422 . S
C38 N37 1.359 . S
C38 C40 1.421 . S
C39 C40 1.422 . S
C39 C42 1.321 . S
C39 H66 0.931 . S
C40 C38 1.421 . S
C40 C39 1.422 . S
C40 C64 1.417 . S
C41 H18 0.931 . S
C41 N37 1.343 . S
C41 C42 1.390 . S
C42 H20 0.930 . S
C42 C39 1.321 . S
C42 C41 1.390 . S
O43 Gd11 2.386 . S
O43 C55 1.265 . S
O44 Gd10 2.353 . S
O44 C55 1.242 . S
O45 Gd10 2.468 . S
O45 C63 1.263 . S
O46 Gd10 2.427 . S
O46 C63 1.252 . S
O47 Gd11 2.307 . S
O47 C56 1.261 . S
O48 Gd10 2.388 . S
O48 C56 1.252 . S
O49 Gd10 2.386 . S
O49 C67 1.265 . S
O50 Gd11 2.353 . S
O50 C67 1.242 . S
O51 Gd11 2.468 1_565 S
O51 C75 1.263 . S
O52 Gd11 2.427 1_565 S
O52 C75 1.252 . S
O53 Gd10 2.307 . S
O53 C68 1.261 . S
O54 Gd11 2.388 . S
O54 C68 1.252 . S
C55 O43 1.265 . S
C55 O44 1.242 . S
C56 O47 1.261 . S
C56 O48 1.252 . S
C57 C60 1.394 . S
C57 C62 1.370 . S
C57 C63 1.500 . S
C58 C61 1.383 . S
C58 C62 1.395 . S
C59 C60 1.396 . S
C59 C61 1.365 . S
C59 H76 0.929 . S
C60 C57 1.394 . S
C60 C59 1.396 . S
C60 H77 0.930 . S
C61 C58 1.383 . S
C61 C59 1.365 . S
C61 H78 0.931 . S
C62 C57 1.370 . S
C62 C58 1.395 . S
C62 H79 0.930 . S
C63 Gd10 2.805 . S
C63 O45 1.263 . S
C63 O46 1.252 . S
C63 C57 1.500 . S
C64 H26 0.930 1_455 S
C64 C40 1.417 . S
C64 C65 1.329 . S
C65 C35 1.437 . S
C65 H36 0.906 1_455 S
C65 C64 1.329 . S
H66 C39 0.931 . S
C67 O49 1.265 . S
C67 O50 1.242 . S
C68 O53 1.261 . S
C68 O54 1.252 . S
C69 C72 1.394 . S
C69 C74 1.370 . S
C69 C75 1.500 . S
C70 C73 1.383 . S
C70 C74 1.395 . S
C71 C72 1.396 . S
C71 C73 1.365 . S
C71 H80 0.929 . S
C72 C69 1.394 . S
C72 C71 1.396 . S
C72 H81 0.930 . S
C73 C70 1.383 . S
C73 C71 1.365 . S
C73 H82 0.931 . S
C74 C69 1.370 . S
C74 C70 1.395 . S
C74 H83 0.930 . S
C75 Gd11 2.805 1_565 S
C75 O51 1.263 . S
C75 O52 1.252 . S
C75 C69 1.500 . S
H76 C59 0.929 . S
H77 C60 0.930 . S
H78 C61 0.931 . S
H79 C62 0.930 . S
H80 C71 0.929 . S
H81 C72 0.930 . S
H82 C73 0.931 . S
H83 C74 0.930 . S
C84 C86 1.422 . S
C84 C88 1.415 . S
C84 N90 1.369 . S
C85 C86 1.421 . S
C85 C87 1.417 . S
C85 C97 1.422 . S
C86 C84 1.422 . S
C86 C85 1.421 . S
C86 N96 1.359 . S
C87 C85 1.417 . S
C87 C89 1.329 . S
C87 H106 0.930 . S
C88 C84 1.415 . S
C88 C89 1.437 . S
C88 C92 1.413 . S
C89 C87 1.329 . S
C89 C88 1.437 . S
C89 H111 0.929 . S
N90 C84 1.369 . S
N90 C91 1.338 . S
N90 Gd95 2.622 . S
C91 N90 1.338 . S
C91 C93 1.378 . S
C91 H103 0.929 . S
C92 C88 1.413 . S
C92 C93 1.348 . S
C92 H108 0.931 . S
C93 C91 1.378 . S
C93 C92 1.348 . S
C93 H109 0.930 . S
Gd94 N114 2.622 . S
Gd94 N121 2.570 . S
Gd94 O128 2.353 . S
Gd94 O129 2.468 . S
Gd94 O130 2.427 . S
Gd94 O132 2.388 . S
Gd94 O133 2.386 . S
Gd94 O137 2.307 . S
Gd94 C147 2.805 . S
Gd95 N90 2.622 . S
Gd95 N96 2.570 . S
Gd95 O127 2.386 . S
Gd95 O131 2.307 . S
Gd95 O134 2.353 . S
Gd95 O135 2.468 1_565 S
Gd95 O136 2.427 1_565 S
Gd95 O138 2.388 . S
Gd95 C159 2.805 1_565 S
N96 C86 1.359 . S
N96 Gd95 2.570 . S
N96 C98 1.343 . S
C97 C85 1.422 . S
C97 C99 1.321 . S
C97 H105 0.931 . S
C98 N96 1.343 . S
C98 C99 1.390 . S
C98 H100 0.931 . S
C99 C97 1.321 . S
C99 C98 1.390 . S
C99 H101 0.930 . S
H100 C98 0.931 . S
H101 C99 0.930 . S
H102 C125 0.931 . S
H103 C91 0.929 . S
H104 C126 0.930 . S
H105 C97 0.931 . S
H106 C87 0.930 . S
H107 C116 0.929 . S
H108 C92 0.931 . S
H109 C93 0.930 . S
H110 C148 0.930 1_455 S
H111 C89 0.929 . S
H112 C117 0.931 . S
H113 C118 0.930 . S
N114 Gd94 2.622 . S
N114 C115 1.369 . S
N114 C116 1.338 . S
C115 N114 1.369 . S
C115 C119 1.415 . S
C115 C122 1.422 . S
C116 H107 0.929 . S
C116 N114 1.338 . S
C116 C118 1.378 . S
C117 H112 0.931 . S
C117 C118 1.348 . S
C117 C119 1.413 . S
C118 H113 0.930 . S
C118 C116 1.378 . S
C118 C117 1.348 . S
C119 C115 1.415 . S
C119 C117 1.413 . S
C119 C149 1.437 . S
H120 C149 0.906 1_455 S
N121 Gd94 2.570 . S
N121 C122 1.359 . S
N121 C125 1.343 . S
C122 C115 1.422 . S
C122 N121 1.359 . S
C122 C124 1.421 . S
C123 C124 1.422 . S
C123 C126 1.321 . S
C123 H150 0.931 . S
C124 C122 1.421 . S
C124 C123 1.422 . S
C124 C148 1.417 . S
C125 H102 0.931 . S
C125 N121 1.343 . S
C125 C126 1.390 . S
C126 H104 0.930 . S
C126 C123 1.321 . S
C126 C125 1.390 . S
O127 Gd95 2.386 . S
O127 C139 1.265 . S
O128 Gd94 2.353 . S
O128 C139 1.242 . S
O129 Gd94 2.468 . S
O129 C147 1.263 . S
O130 Gd94 2.427 . S
O130 C147 1.252 . S
O131 Gd95 2.307 . S
O131 C140 1.261 . S
O132 Gd94 2.388 . S
O132 C140 1.252 . S
O133 Gd94 2.386 . S
O133 C151 1.265 . S
O134 Gd95 2.353 . S
O134 C151 1.242 . S
O135 Gd95 2.468 1_545 S
O135 C159 1.263 . S
O136 Gd95 2.427 1_545 S
O136 C159 1.252 . S
O137 Gd94 2.307 . S
O137 C152 1.261 . S
O138 Gd95 2.388 . S
O138 C152 1.252 . S
C139 O127 1.265 . S
C139 O128 1.242 . S
C140 O131 1.261 . S
C140 O132 1.252 . S
C141 C144 1.394 . S
C141 C146 1.370 . S
C141 C147 1.500 . S
C142 C145 1.383 . S
C142 C146 1.395 . S
C143 C144 1.396 . S
C143 C145 1.365 . S
C143 H160 0.929 . S
C144 C141 1.394 . S
C144 C143 1.396 . S
C144 H161 0.930 . S
C145 C142 1.383 . S
C145 C143 1.365 . S
C145 H162 0.931 . S
C146 C141 1.370 . S
C146 C142 1.395 . S
C146 H163 0.930 . S
C147 Gd94 2.805 . S
C147 O129 1.263 . S
C147 O130 1.252 . S
C147 C141 1.500 . S
C148 H110 0.930 1_655 S
C148 C124 1.417 . S
C148 C149 1.329 . S
C149 C119 1.437 . S
C149 H120 0.906 1_655 S
C149 C148 1.329 . S
H150 C123 0.931 . S
C151 O133 1.265 . S
C151 O134 1.242 . S
C152 O137 1.261 . S
C152 O138 1.252 . S
C153 C156 1.394 . S
C153 C158 1.370 . S
C153 C159 1.500 . S
C154 C157 1.383 . S
C154 C158 1.395 . S
C155 C156 1.396 . S
C155 C157 1.365 . S
C155 H164 0.929 . S
C156 C153 1.394 . S
C156 C155 1.396 . S
C156 H165 0.930 . S
C157 C154 1.383 . S
C157 C155 1.365 . S
C157 H166 0.931 . S
C158 C153 1.370 . S
C158 C154 1.395 . S
C158 H167 0.930 . S
C159 Gd95 2.805 1_545 S
C159 O135 1.263 . S
C159 O136 1.252 . S
C159 C153 1.500 . S
H160 C143 0.929 . S
H161 C144 0.930 . S
H162 C145 0.931 . S
H163 C146 0.930 . S
H164 C155 0.929 . S
H165 C156 0.930 . S
H166 C157 0.931 . S
H167 C158 0.930 . S
C168 C170 1.422 . S
C168 C172 1.415 . S
C168 N174 1.369 . S
C169 C170 1.421 . S
C169 C171 1.417 . S
C169 C181 1.422 . S
C170 C168 1.422 . S
C170 C169 1.421 . S
C170 N180 1.359 . S
C171 C169 1.417 . S
C171 C173 1.329 . S
C171 H190 0.930 . S
C172 C168 1.415 . S
C172 C173 1.437 . S
C172 C176 1.413 . S
C173 C171 1.329 . S
C173 C172 1.437 . S
C173 H195 0.929 . S
N174 C168 1.369 . S
N174 C175 1.338 . S
N174 Gd179 2.622 . S
C175 N174 1.338 . S
C175 C177 1.378 . S
C175 H187 0.929 . S
C176 C172 1.413 . S
C176 C177 1.348 . S
C176 H192 0.931 . S
C177 C175 1.378 . S
C177 C176 1.348 . S
C177 H193 0.930 . S
Gd178 N198 2.622 . S
Gd178 N205 2.570 . S
Gd178 O212 2.353 . S
Gd178 O213 2.468 . S
Gd178 O214 2.427 . S
Gd178 O216 2.388 . S
Gd178 O217 2.386 . S
Gd178 O221 2.307 . S
Gd178 C231 2.805 . S
Gd179 N174 2.622 . S
Gd179 N180 2.570 . S
Gd179 O211 2.386 . S
Gd179 O215 2.307 . S
Gd179 O218 2.353 . S
Gd179 O219 2.468 1_565 S
Gd179 O220 2.427 1_565 S
Gd179 O222 2.388 . S
Gd179 C243 2.805 1_565 S
N180 C170 1.359 . S
N180 Gd179 2.570 . S
N180 C182 1.343 . S
C181 C169 1.422 . S
C181 C183 1.321 . S
C181 H189 0.931 . S
C182 N180 1.343 . S
C182 C183 1.390 . S
C182 H184 0.931 . S
C183 C181 1.321 . S
C183 C182 1.390 . S
C183 H185 0.930 . S
H184 C182 0.931 . S
H185 C183 0.930 . S
H186 C209 0.931 . S
H187 C175 0.929 . S
H188 C210 0.930 . S
H189 C181 0.931 . S
H190 C171 0.930 . S
H191 C200 0.929 . S
H192 C176 0.931 . S
H193 C177 0.930 . S
H194 C232 0.930 1_655 S
H195 C173 0.929 . S
H196 C201 0.931 . S
H197 C202 0.930 . S
N198 Gd178 2.622 . S
N198 C199 1.369 . S
N198 C200 1.338 . S
C199 N198 1.369 . S
C199 C203 1.415 . S
C199 C206 1.422 . S
C200 H191 0.929 . S
C200 N198 1.338 . S
C200 C202 1.378 . S
C201 H196 0.931 . S
C201 C202 1.348 . S
C201 C203 1.413 . S
C202 H197 0.930 . S
C202 C200 1.378 . S
C202 C201 1.348 . S
C203 C199 1.415 . S
C203 C201 1.413 . S
C203 C233 1.437 . S
H204 C233 0.906 1_655 S
N205 Gd178 2.570 . S
N205 C206 1.359 . S
N205 C209 1.343 . S
C206 C199 1.422 . S
C206 N205 1.359 . S
C206 C208 1.421 . S
C207 C208 1.422 . S
C207 C210 1.321 . S
C207 H234 0.931 . S
C208 C206 1.421 . S
C208 C207 1.422 . S
C208 C232 1.417 . S
C209 H186 0.931 . S
C209 N205 1.343 . S
C209 C210 1.390 . S
C210 H188 0.930 . S
C210 C207 1.321 . S
C210 C209 1.390 . S
O211 Gd179 2.386 . S
O211 C223 1.265 . S
O212 Gd178 2.353 . S
O212 C223 1.242 . S
O213 Gd178 2.468 . S
O213 C231 1.263 . S
O214 Gd178 2.427 . S
O214 C231 1.252 . S
O215 Gd179 2.307 . S
O215 C224 1.261 . S
O216 Gd178 2.388 . S
O216 C224 1.252 . S
O217 Gd178 2.386 . S
O217 C235 1.265 . S
O218 Gd179 2.353 . S
O218 C235 1.242 . S
O219 Gd179 2.468 1_545 S
O219 C243 1.263 . S
O220 Gd179 2.427 1_545 S
O220 C243 1.252 . S
O221 Gd178 2.307 . S
O221 C236 1.261 . S
O222 Gd179 2.388 . S
O222 C236 1.252 . S
C223 O211 1.265 . S
C223 O212 1.242 . S
C224 O215 1.261 . S
C224 O216 1.252 . S
C225 C228 1.394 . S
C225 C230 1.370 . S
C225 C231 1.500 . S
C226 C229 1.383 . S
C226 C230 1.395 . S
C227 C228 1.396 . S
C227 C229 1.365 . S
C227 H244 0.929 . S
C228 C225 1.394 . S
C228 C227 1.396 . S
C228 H245 0.930 . S
C229 C226 1.383 . S
C229 C227 1.365 . S
C229 H246 0.931 . S
C230 C225 1.370 . S
C230 C226 1.395 . S
C230 H247 0.930 . S
C231 Gd178 2.805 . S
C231 O213 1.263 . S
C231 O214 1.252 . S
C231 C225 1.500 . S
C232 H194 0.930 1_455 S
C232 C208 1.417 . S
C232 C233 1.329 . S
C233 C203 1.437 . S
C233 H204 0.906 1_455 S
C233 C232 1.329 . S
H234 C207 0.931 . S
C235 O217 1.265 . S
C235 O218 1.242 . S
C236 O221 1.261 . S
C236 O222 1.252 . S
C237 C240 1.394 . S
C237 C242 1.370 . S
C237 C243 1.500 . S
C238 C241 1.383 . S
C238 C242 1.395 . S
C239 C240 1.396 . S
C239 C241 1.365 . S
C239 H248 0.929 . S
C240 C237 1.394 . S
C240 C239 1.396 . S
C240 H249 0.930 . S
C241 C238 1.383 . S
C241 C239 1.365 . S
C241 H250 0.931 . S
C242 C237 1.370 . S
C242 C238 1.395 . S
C242 H251 0.930 . S
C243 Gd179 2.805 1_545 S
C243 O219 1.263 . S
C243 O220 1.252 . S
C243 C237 1.500 . S
H244 C227 0.929 . S
H245 C228 0.930 . S
H246 C229 0.931 . S
H247 C230 0.930 . S
H248 C239 0.929 . S
H249 C240 0.930 . S
H250 C241 0.931 . S
H251 C242 0.930 . S
C252 C254 1.422 . S
C252 C256 1.415 . S
C252 N258 1.369 . S
C253 C254 1.421 . S
C253 C255 1.417 . S
C253 C265 1.422 . S
C254 C252 1.422 . S
C254 C253 1.421 . S
C254 N264 1.359 . S
C255 C253 1.417 . S
C255 C257 1.329 . S
C255 H274 0.930 . S
C256 C252 1.415 . S
C256 C257 1.437 . S
C256 C260 1.413 . S
C257 C255 1.329 . S
C257 C256 1.437 . S
C257 H279 0.929 . S
N258 C252 1.369 . S
N258 C259 1.338 . S
N258 Gd263 2.622 . S
C259 N258 1.338 . S
C259 C261 1.378 . S
C259 H271 0.929 . S
C260 C256 1.413 . S
C260 C261 1.348 . S
C260 H276 0.931 . S
C261 C259 1.378 . S
C261 C260 1.348 . S
C261 H277 0.930 . S
Gd262 N282 2.622 . S
Gd262 N289 2.570 . S
Gd262 O296 2.353 . S
Gd262 O297 2.468 . S
Gd262 O298 2.427 . S
Gd262 O300 2.388 . S
Gd262 O301 2.386 . S
Gd262 O305 2.307 . S
Gd262 C315 2.805 . S
Gd263 N258 2.622 . S
Gd263 N264 2.570 . S
Gd263 O295 2.386 . S
Gd263 O299 2.307 . S
Gd263 O302 2.353 . S
Gd263 O303 2.468 1_545 S
Gd263 O304 2.427 1_545 S
Gd263 O306 2.388 . S
Gd263 C327 2.805 1_545 S
N264 C254 1.359 . S
N264 Gd263 2.570 . S
N264 C266 1.343 . S
C265 C253 1.422 . S
C265 C267 1.321 . S
C265 H273 0.931 . S
C266 N264 1.343 . S
C266 C267 1.390 . S
C266 H268 0.931 . S
C267 C265 1.321 . S
C267 C266 1.390 . S
C267 H269 0.930 . S
H268 C266 0.931 . S
H269 C267 0.930 . S
H270 C293 0.931 . S
H271 C259 0.929 . S
H272 C294 0.930 . S
H273 C265 0.931 . S
H274 C255 0.930 . S
H275 C284 0.929 . S
H276 C260 0.931 . S
H277 C261 0.930 . S
H278 C316 0.930 1_455 S
H279 C257 0.929 . S
H280 C285 0.931 . S
H281 C286 0.930 . S
N282 Gd262 2.622 . S
N282 C283 1.369 . S
N282 C284 1.338 . S
C283 N282 1.369 . S
C283 C287 1.415 . S
C283 C290 1.422 . S
C284 H275 0.929 . S
C284 N282 1.338 . S
C284 C286 1.378 . S
C285 H280 0.931 . S
C285 C286 1.348 . S
C285 C287 1.413 . S
C286 H281 0.930 . S
C286 C284 1.378 . S
C286 C285 1.348 . S
C287 C283 1.415 . S
C287 C285 1.413 . S
C287 C317 1.437 . S
H288 C317 0.906 1_455 S
N289 Gd262 2.570 . S
N289 C290 1.359 . S
N289 C293 1.343 . S
C290 C283 1.422 . S
C290 N289 1.359 . S
C290 C292 1.421 . S
C291 C292 1.422 . S
C291 C294 1.321 . S
C291 H318 0.931 . S
C292 C290 1.421 . S
C292 C291 1.422 . S
C292 C316 1.417 . S
C293 H270 0.931 . S
C293 N289 1.343 . S
C293 C294 1.390 . S
C294 H272 0.930 . S
C294 C291 1.321 . S
C294 C293 1.390 . S
O295 Gd263 2.386 . S
O295 C307 1.265 . S
O296 Gd262 2.353 . S
O296 C307 1.242 . S
O297 Gd262 2.468 . S
O297 C315 1.263 . S
O298 Gd262 2.427 . S
O298 C315 1.252 . S
O299 Gd263 2.307 . S
O299 C308 1.261 . S
O300 Gd262 2.388 . S
O300 C308 1.252 . S
O301 Gd262 2.386 . S
O301 C319 1.265 . S
O302 Gd263 2.353 . S
O302 C319 1.242 . S
O303 Gd263 2.468 1_565 S
O303 C327 1.263 . S
O304 Gd263 2.427 1_565 S
O304 C327 1.252 . S
O305 Gd262 2.307 . S
O305 C320 1.261 . S
O306 Gd263 2.388 . S
O306 C320 1.252 . S
C307 O295 1.265 . S
C307 O296 1.242 . S
C308 O299 1.261 . S
C308 O300 1.252 . S
C309 C312 1.394 . S
C309 C314 1.370 . S
C309 C315 1.500 . S
C310 C313 1.383 . S
C310 C314 1.395 . S
C311 C312 1.396 . S
C311 C313 1.365 . S
C311 H328 0.929 . S
C312 C309 1.394 . S
C312 C311 1.396 . S
C312 H329 0.930 . S
C313 C310 1.383 . S
C313 C311 1.365 . S
C313 H330 0.931 . S
C314 C309 1.370 . S
C314 C310 1.395 . S
C314 H331 0.930 . S
C315 Gd262 2.805 . S
C315 O297 1.263 . S
C315 O298 1.252 . S
C315 C309 1.500 . S
C316 H278 0.930 1_655 S
C316 C292 1.417 . S
C316 C317 1.329 . S
C317 C287 1.437 . S
C317 H288 0.906 1_655 S
C317 C316 1.329 . S
H318 C291 0.931 . S
C319 O301 1.265 . S
C319 O302 1.242 . S
C320 O305 1.261 . S
C320 O306 1.252 . S
C321 C324 1.394 . S
C321 C326 1.370 . S
C321 C327 1.500 . S
C322 C325 1.383 . S
C322 C326 1.395 . S
C323 C324 1.396 . S
C323 C325 1.365 . S
C323 H332 0.929 . S
C324 C321 1.394 . S
C324 C323 1.396 . S
C324 H333 0.930 . S
C325 C322 1.383 . S
C325 C323 1.365 . S
C325 H334 0.931 . S
C326 C321 1.370 . S
C326 C322 1.395 . S
C326 H335 0.930 . S
C327 Gd263 2.805 1_565 S
C327 O303 1.263 . S
C327 O304 1.252 . S
C327 C321 1.500 . S
H328 C311 0.929 . S
H329 C312 0.930 . S
H330 C313 0.931 . S
H331 C314 0.930 . S
H332 C323 0.929 . S
H333 C324 0.930 . S
H334 C325 0.931 . S
H335 C326 0.930 . S
C336 C338 1.422 . S
C336 C340 1.415 . S
C336 N342 1.369 . S
C337 C338 1.421 . S
C337 C339 1.417 . S
C337 C349 1.422 . S
C338 C336 1.422 . S
C338 C337 1.421 . S
C338 N348 1.359 . S
C339 C337 1.417 . S
C339 C341 1.329 . S
C339 H358 0.930 1_655 S
C340 C336 1.415 . S
C340 C341 1.437 . S
C340 C344 1.413 . S
C341 C339 1.329 . S
C341 C340 1.437 . S
C341 H363 0.906 1_655 S
N342 C336 1.369 . S
N342 C343 1.338 . S
N342 Gd347 2.622 . S
C343 N342 1.338 . S
C343 C345 1.378 . S
C343 H355 0.929 . S
C344 C340 1.413 . S
C344 C345 1.348 . S
C344 H360 0.931 . S
C345 C343 1.378 . S
C345 C344 1.348 . S
C345 H361 0.930 . S
Gd346 N366 2.622 . S
Gd346 N373 2.570 . S
Gd346 O380 2.353 . S
Gd346 O381 2.468 1_565 S
Gd346 O382 2.427 1_565 S
Gd346 O384 2.388 . S
Gd346 O385 2.386 . S
Gd346 O389 2.307 . S
Gd346 C399 2.805 1_565 S
Gd347 N342 2.622 . S
Gd347 N348 2.570 . S
Gd347 O379 2.386 . S
Gd347 O383 2.307 . S
Gd347 O386 2.353 . S
Gd347 O387 2.468 . S
Gd347 O388 2.427 . S
Gd347 O390 2.388 . S
Gd347 C411 2.805 . S
N348 C338 1.359 . S
N348 Gd347 2.570 . S
N348 C350 1.343 . S
C349 C337 1.422 . S
C349 C351 1.321 . S
C349 H357 0.931 . S
C350 N348 1.343 . S
C350 C351 1.390 . S
C350 H352 0.931 . S
C351 C349 1.321 . S
C351 C350 1.390 . S
C351 H353 0.930 . S
H352 C350 0.931 . S
H353 C351 0.930 . S
H354 C377 0.931 . S
H355 C343 0.929 . S
H356 C378 0.930 . S
H357 C349 0.931 . S
H358 C339 0.930 1_455 S
H359 C368 0.929 . S
H360 C344 0.931 . S
H361 C345 0.930 . S
H362 C400 0.930 . S
H363 C341 0.906 1_455 S
H364 C369 0.931 . S
H365 C370 0.930 . S
N366 Gd346 2.622 . S
N366 C367 1.369 . S
N366 C368 1.338 . S
C367 N366 1.369 . S
C367 C371 1.415 . S
C367 C374 1.422 . S
C368 H359 0.929 . S
C368 N366 1.338 . S
C368 C370 1.378 . S
C369 H364 0.931 . S
C369 C370 1.348 . S
C369 C371 1.413 . S
C370 H365 0.930 . S
C370 C368 1.378 . S
C370 C369 1.348 . S
C371 C367 1.415 . S
C371 C369 1.413 . S
C371 C401 1.437 . S
H372 C401 0.929 . S
N373 Gd346 2.570 . S
N373 C374 1.359 . S
N373 C377 1.343 . S
C374 C367 1.422 . S
C374 N373 1.359 . S
C374 C376 1.421 . S
C375 C376 1.422 . S
C375 C378 1.321 . S
C375 H402 0.931 . S
C376 C374 1.421 . S
C376 C375 1.422 . S
C376 C400 1.417 . S
C377 H354 0.931 . S
C377 N373 1.343 . S
C377 C378 1.390 . S
C378 H356 0.930 . S
C378 C375 1.321 . S
C378 C377 1.390 . S
O379 Gd347 2.386 . S
O379 C391 1.265 . S
O380 Gd346 2.353 . S
O380 C391 1.242 . S
O381 Gd346 2.468 1_545 S
O381 C399 1.263 . S
O382 Gd346 2.427 1_545 S
O382 C399 1.252 . S
O383 Gd347 2.307 . S
O383 C392 1.261 . S
O384 Gd346 2.388 . S
O384 C392 1.252 . S
O385 Gd346 2.386 . S
O385 C403 1.265 . S
O386 Gd347 2.353 . S
O386 C403 1.242 . S
O387 Gd347 2.468 . S
O387 C411 1.263 . S
O388 Gd347 2.427 . S
O388 C411 1.252 . S
O389 Gd346 2.307 . S
O389 C404 1.261 . S
O390 Gd347 2.388 . S
O390 C404 1.252 . S
C391 O379 1.265 . S
C391 O380 1.242 . S
C392 O383 1.261 . S
C392 O384 1.252 . S
C393 C396 1.394 . S
C393 C398 1.370 . S
C393 C399 1.500 . S
C394 C397 1.383 . S
C394 C398 1.395 . S
C395 C396 1.396 . S
C395 C397 1.365 . S
C395 H412 0.929 . S
C396 C393 1.394 . S
C396 C395 1.396 . S
C396 H413 0.930 . S
C397 C394 1.383 . S
C397 C395 1.365 . S
C397 H414 0.931 . S
C398 C393 1.370 . S
C398 C394 1.395 . S
C398 H415 0.930 . S
C399 Gd346 2.805 1_545 S
C399 O381 1.263 . S
C399 O382 1.252 . S
C399 C393 1.500 . S
C400 H362 0.930 . S
C400 C376 1.417 . S
C400 C401 1.329 . S
C401 C371 1.437 . S
C401 H372 0.929 . S
C401 C400 1.329 . S
H402 C375 0.931 . S
C403 O385 1.265 . S
C403 O386 1.242 . S
C404 O389 1.261 . S
C404 O390 1.252 . S
C405 C408 1.394 . S
C405 C410 1.370 . S
C405 C411 1.500 . S
C406 C409 1.383 . S
C406 C410 1.395 . S
C407 C408 1.396 . S
C407 C409 1.365 . S
C407 H416 0.929 . S
C408 C405 1.394 . S
C408 C407 1.396 . S
C408 H417 0.930 . S
C409 C406 1.383 . S
C409 C407 1.365 . S
C409 H418 0.931 . S
C410 C405 1.370 . S
C410 C406 1.395 . S
C410 H419 0.930 . S
C411 Gd347 2.805 . S
C411 O387 1.263 . S
C411 O388 1.252 . S
C411 C405 1.500 . S
H412 C395 0.929 . S
H413 C396 0.930 . S
H414 C397 0.931 . S
H415 C398 0.930 . S
H416 C407 0.929 . S
H417 C408 0.930 . S
H418 C409 0.931 . S
H419 C410 0.930 . S
C420 C422 1.422 . S
C420 C424 1.415 . S
C420 N426 1.369 . S
C421 C422 1.421 . S
C421 C423 1.417 . S
C421 C433 1.422 . S
C422 C420 1.422 . S
C422 C421 1.421 . S
C422 N432 1.359 . S
C423 C421 1.417 . S
C423 C425 1.329 . S
C423 H442 0.930 1_455 S
C424 C420 1.415 . S
C424 C425 1.437 . S
C424 C428 1.413 . S
C425 C423 1.329 . S
C425 C424 1.437 . S
C425 H447 0.906 1_455 S
N426 C420 1.369 . S
N426 C427 1.338 . S
N426 Gd431 2.622 . S
C427 N426 1.338 . S
C427 C429 1.378 . S
C427 H439 0.929 . S
C428 C424 1.413 . S
C428 C429 1.348 . S
C428 H444 0.931 . S
C429 C427 1.378 . S
C429 C428 1.348 . S
C429 H445 0.930 . S
Gd430 N450 2.622 . S
Gd430 N457 2.570 . S
Gd430 O464 2.353 . S
Gd430 O465 2.468 1_545 S
Gd430 O466 2.427 1_545 S
Gd430 O468 2.388 . S
Gd430 O469 2.386 . S
Gd430 O473 2.307 . S
Gd430 C483 2.805 1_545 S
Gd431 N426 2.622 . S
Gd431 N432 2.570 . S
Gd431 O463 2.386 . S
Gd431 O467 2.307 . S
Gd431 O470 2.353 . S
Gd431 O471 2.468 . S
Gd431 O472 2.427 . S
Gd431 O474 2.388 . S
Gd431 C495 2.805 . S
N432 C422 1.359 . S
N432 Gd431 2.570 . S
N432 C434 1.343 . S
C433 C421 1.422 . S
C433 C435 1.321 . S
C433 H441 0.931 . S
C434 N432 1.343 . S
C434 C435 1.390 . S
C434 H436 0.931 . S
C435 C433 1.321 . S
C435 C434 1.390 . S
C435 H437 0.930 . S
H436 C434 0.931 . S
H437 C435 0.930 . S
H438 C461 0.931 . S
H439 C427 0.929 . S
H440 C462 0.930 . S
H441 C433 0.931 . S
H442 C423 0.930 1_655 S
H443 C452 0.929 . S
H444 C428 0.931 . S
H445 C429 0.930 . S
H446 C484 0.930 . S
H447 C425 0.906 1_655 S
H448 C453 0.931 . S
H449 C454 0.930 . S
N450 Gd430 2.622 . S
N450 C451 1.369 . S
N450 C452 1.338 . S
C451 N450 1.369 . S
C451 C455 1.415 . S
C451 C458 1.422 . S
C452 H443 0.929 . S
C452 N450 1.338 . S
C452 C454 1.378 . S
C453 H448 0.931 . S
C453 C454 1.348 . S
C453 C455 1.413 . S
C454 H449 0.930 . S
C454 C452 1.378 . S
C454 C453 1.348 . S
C455 C451 1.415 . S
C455 C453 1.413 . S
C455 C485 1.437 . S
H456 C485 0.929 . S
N457 Gd430 2.570 . S
N457 C458 1.359 . S
N457 C461 1.343 . S
C458 C451 1.422 . S
C458 N457 1.359 . S
C458 C460 1.421 . S
C459 C460 1.422 . S
C459 C462 1.321 . S
C459 H486 0.931 . S
C460 C458 1.421 . S
C460 C459 1.422 . S
C460 C484 1.417 . S
C461 H438 0.931 . S
C461 N457 1.343 . S
C461 C462 1.390 . S
C462 H440 0.930 . S
C462 C459 1.321 . S
C462 C461 1.390 . S
O463 Gd431 2.386 . S
O463 C475 1.265 . S
O464 Gd430 2.353 . S
O464 C475 1.242 . S
O465 Gd430 2.468 1_565 S
O465 C483 1.263 . S
O466 Gd430 2.427 1_565 S
O466 C483 1.252 . S
O467 Gd431 2.307 . S
O467 C476 1.261 . S
O468 Gd430 2.388 . S
O468 C476 1.252 . S
O469 Gd430 2.386 . S
O469 C487 1.265 . S
O470 Gd431 2.353 . S
O470 C487 1.242 . S
O471 Gd431 2.468 . S
O471 C495 1.263 . S
O472 Gd431 2.427 . S
O472 C495 1.252 . S
O473 Gd430 2.307 . S
O473 C488 1.261 . S
O474 Gd431 2.388 . S
O474 C488 1.252 . S
C475 O463 1.265 . S
C475 O464 1.242 . S
C476 O467 1.261 . S
C476 O468 1.252 . S
C477 C480 1.394 . S
C477 C482 1.370 . S
C477 C483 1.500 . S
C478 C481 1.383 . S
C478 C482 1.395 . S
C479 C480 1.396 . S
C479 C481 1.365 . S
C479 H496 0.929 . S
C480 C477 1.394 . S
C480 C479 1.396 . S
C480 H497 0.930 . S
C481 C478 1.383 . S
C481 C479 1.365 . S
C481 H498 0.931 . S
C482 C477 1.370 . S
C482 C478 1.395 . S
C482 H499 0.930 . S
C483 Gd430 2.805 1_565 S
C483 O465 1.263 . S
C483 O466 1.252 . S
C483 C477 1.500 . S
C484 H446 0.930 . S
C484 C460 1.417 . S
C484 C485 1.329 . S
C485 C455 1.437 . S
C485 H456 0.929 . S
C485 C484 1.329 . S
H486 C459 0.931 . S
C487 O469 1.265 . S
C487 O470 1.242 . S
C488 O473 1.261 . S
C488 O474 1.252 . S
C489 C492 1.394 . S
C489 C494 1.370 . S
C489 C495 1.500 . S
C490 C493 1.383 . S
C490 C494 1.395 . S
C491 C492 1.396 . S
C491 C493 1.365 . S
C491 H500 0.929 . S
C492 C489 1.394 . S
C492 C491 1.396 . S
C492 H501 0.930 . S
C493 C490 1.383 . S
C493 C491 1.365 . S
C493 H502 0.931 . S
C494 C489 1.370 . S
C494 C490 1.395 . S
C494 H503 0.930 . S
C495 Gd431 2.805 . S
C495 O471 1.263 . S
C495 O472 1.252 . S
C495 C489 1.500 . S
H496 C479 0.929 . S
H497 C480 0.930 . S
H498 C481 0.931 . S
H499 C482 0.930 . S
H500 C491 0.929 . S
H501 C492 0.930 . S
H502 C493 0.931 . S
H503 C494 0.930 . S
C504 C506 1.422 . S
C504 C508 1.415 . S
C504 N510 1.369 . S
C505 C506 1.421 . S
C505 C507 1.417 . S
C505 C517 1.422 . S
C506 C504 1.422 . S
C506 C505 1.421 . S
C506 N516 1.359 . S
C507 C505 1.417 . S
C507 C509 1.329 . S
C507 H526 0.930 1_655 S
C508 C504 1.415 . S
C508 C509 1.437 . S
C508 C512 1.413 . S
C509 C507 1.329 . S
C509 C508 1.437 . S
C509 H531 0.906 1_655 S
N510 C504 1.369 . S
N510 C511 1.338 . S
N510 Gd515 2.622 . S
C511 N510 1.338 . S
C511 C513 1.378 . S
C511 H523 0.929 . S
C512 C508 1.413 . S
C512 C513 1.348 . S
C512 H528 0.931 . S
C513 C511 1.378 . S
C513 C512 1.348 . S
C513 H529 0.930 . S
Gd514 N534 2.622 . S
Gd514 N541 2.570 . S
Gd514 O548 2.353 . S
Gd514 O549 2.468 1_545 S
Gd514 O550 2.427 1_545 S
Gd514 O552 2.388 . S
Gd514 O553 2.386 . S
Gd514 O557 2.307 . S
Gd514 C567 2.805 1_545 S
Gd515 N510 2.622 . S
Gd515 N516 2.570 . S
Gd515 O547 2.386 . S
Gd515 O551 2.307 . S
Gd515 O554 2.353 . S
Gd515 O555 2.468 . S
Gd515 O556 2.427 . S
Gd515 O558 2.388 . S
Gd515 C579 2.805 . S
N516 C506 1.359 . S
N516 Gd515 2.570 . S
N516 C518 1.343 . S
C517 C505 1.422 . S
C517 C519 1.321 . S
C517 H525 0.931 . S
C518 N516 1.343 . S
C518 C519 1.390 . S
C518 H520 0.931 . S
C519 C517 1.321 . S
C519 C518 1.390 . S
C519 H521 0.930 . S
H520 C518 0.931 . S
H521 C519 0.930 . S
H522 C545 0.931 . S
H523 C511 0.929 . S
H524 C546 0.930 . S
H525 C517 0.931 . S
H526 C507 0.930 1_455 S
H527 C536 0.929 . S
H528 C512 0.931 . S
H529 C513 0.930 . S
H530 C568 0.930 . S
H531 C509 0.906 1_455 S
H532 C537 0.931 . S
H533 C538 0.930 . S
N534 Gd514 2.622 . S
N534 C535 1.369 . S
N534 C536 1.338 . S
C535 N534 1.369 . S
C535 C539 1.415 . S
C535 C542 1.422 . S
C536 H527 0.929 . S
C536 N534 1.338 . S
C536 C538 1.378 . S
C537 H532 0.931 . S
C537 C538 1.348 . S
C537 C539 1.413 . S
C538 H533 0.930 . S
C538 C536 1.378 . S
C538 C537 1.348 . S
C539 C535 1.415 . S
C539 C537 1.413 . S
C539 C569 1.437 . S
H540 C569 0.929 . S
N541 Gd514 2.570 . S
N541 C542 1.359 . S
N541 C545 1.343 . S
C542 C535 1.422 . S
C542 N541 1.359 . S
C542 C544 1.421 . S
C543 C544 1.422 . S
C543 C546 1.321 . S
C543 H570 0.931 . S
C544 C542 1.421 . S
C544 C543 1.422 . S
C544 C568 1.417 . S
C545 H522 0.931 . S
C545 N541 1.343 . S
C545 C546 1.390 . S
C546 H524 0.930 . S
C546 C543 1.321 . S
C546 C545 1.390 . S
O547 Gd515 2.386 . S
O547 C559 1.265 . S
O548 Gd514 2.353 . S
O548 C559 1.242 . S
O549 Gd514 2.468 1_565 S
O549 C567 1.263 . S
O550 Gd514 2.427 1_565 S
O550 C567 1.252 . S
O551 Gd515 2.307 . S
O551 C560 1.261 . S
O552 Gd514 2.388 . S
O552 C560 1.252 . S
O553 Gd514 2.386 . S
O553 C571 1.265 . S
O554 Gd515 2.353 . S
O554 C571 1.242 . S
O555 Gd515 2.468 . S
O555 C579 1.263 . S
O556 Gd515 2.427 . S
O556 C579 1.252 . S
O557 Gd514 2.307 . S
O557 C572 1.261 . S
O558 Gd515 2.388 . S
O558 C572 1.252 . S
C559 O547 1.265 . S
C559 O548 1.242 . S
C560 O551 1.261 . S
C560 O552 1.252 . S
C561 C564 1.394 . S
C561 C566 1.370 . S
C561 C567 1.500 . S
C562 C565 1.383 . S
C562 C566 1.395 . S
C563 C564 1.396 . S
C563 C565 1.365 . S
C563 H580 0.929 . S
C564 C561 1.394 . S
C564 C563 1.396 . S
C564 H581 0.930 . S
C565 C562 1.383 . S
C565 C563 1.365 . S
C565 H582 0.931 . S
C566 C561 1.370 . S
C566 C562 1.395 . S
C566 H583 0.930 . S
C567 Gd514 2.805 1_565 S
C567 O549 1.263 . S
C567 O550 1.252 . S
C567 C561 1.500 . S
C568 H530 0.930 . S
C568 C544 1.417 . S
C568 C569 1.329 . S
C569 C539 1.437 . S
C569 H540 0.929 . S
C569 C568 1.329 . S
H570 C543 0.931 . S
C571 O553 1.265 . S
C571 O554 1.242 . S
C572 O557 1.261 . S
C572 O558 1.252 . S
C573 C576 1.394 . S
C573 C578 1.370 . S
C573 C579 1.500 . S
C574 C577 1.383 . S
C574 C578 1.395 . S
C575 C576 1.396 . S
C575 C577 1.365 . S
C575 H584 0.929 . S
C576 C573 1.394 . S
C576 C575 1.396 . S
C576 H585 0.930 . S
C577 C574 1.383 . S
C577 C575 1.365 . S
C577 H586 0.931 . S
C578 C573 1.370 . S
C578 C574 1.395 . S
C578 H587 0.930 . S
C579 Gd515 2.805 . S
C579 O555 1.263 . S
C579 O556 1.252 . S
C579 C573 1.500 . S
H580 C563 0.929 . S
H581 C564 0.930 . S
H582 C565 0.931 . S
H583 C566 0.930 . S
H584 C575 0.929 . S
H585 C576 0.930 . S
H586 C577 0.931 . S
H587 C578 0.930 . S
C588 C590 1.422 . S
C588 C592 1.415 . S
C588 N594 1.369 . S
C589 C590 1.421 . S
C589 C591 1.417 . S
C589 C601 1.422 . S
C590 C588 1.422 . S
C590 C589 1.421 . S
C590 N600 1.359 . S
C591 C589 1.417 . S
C591 C593 1.329 . S
C591 H610 0.930 1_455 S
C592 C588 1.415 . S
C592 C593 1.437 . S
C592 C596 1.413 . S
C593 C591 1.329 . S
C593 C592 1.437 . S
C593 H615 0.906 1_455 S
N594 C588 1.369 . S
N594 C595 1.338 . S
N594 Gd599 2.622 . S
C595 N594 1.338 . S
C595 C597 1.378 . S
C595 H607 0.929 . S
C596 C592 1.413 . S
C596 C597 1.348 . S
C596 H612 0.931 . S
C597 C595 1.378 . S
C597 C596 1.348 . S
C597 H613 0.930 . S
Gd598 N618 2.622 . S
Gd598 N625 2.570 . S
Gd598 O632 2.353 . S
Gd598 O633 2.468 1_565 S
Gd598 O634 2.427 1_565 S
Gd598 O636 2.388 . S
Gd598 O637 2.386 . S
Gd598 O641 2.307 . S
Gd598 C651 2.805 1_565 S
Gd599 N594 2.622 . S
Gd599 N600 2.570 . S
Gd599 O631 2.386 . S
Gd599 O635 2.307 . S
Gd599 O638 2.353 . S
Gd599 O639 2.468 . S
Gd599 O640 2.427 . S
Gd599 O642 2.388 . S
Gd599 C663 2.805 . S
N600 C590 1.359 . S
N600 Gd599 2.570 . S
N600 C602 1.343 . S
C601 C589 1.422 . S
C601 C603 1.321 . S
C601 H609 0.931 . S
C602 N600 1.343 . S
C602 C603 1.390 . S
C602 H604 0.931 . S
C603 C601 1.321 . S
C603 C602 1.390 . S
C603 H605 0.930 . S
H604 C602 0.931 . S
H605 C603 0.930 . S
H606 C629 0.931 . S
H607 C595 0.929 . S
H608 C630 0.930 . S
H609 C601 0.931 . S
H610 C591 0.930 1_655 S
H611 C620 0.929 . S
H612 C596 0.931 . S
H613 C597 0.930 . S
H614 C652 0.930 . S
H615 C593 0.906 1_655 S
H616 C621 0.931 . S
H617 C622 0.930 . S
N618 Gd598 2.622 . S
N618 C619 1.369 . S
N618 C620 1.338 . S
C619 N618 1.369 . S
C619 C623 1.415 . S
C619 C626 1.422 . S
C620 H611 0.929 . S
C620 N618 1.338 . S
C620 C622 1.378 . S
C621 H616 0.931 . S
C621 C622 1.348 . S
C621 C623 1.413 . S
C622 H617 0.930 . S
C622 C620 1.378 . S
C622 C621 1.348 . S
C623 C619 1.415 . S
C623 C621 1.413 . S
C623 C653 1.437 . S
H624 C653 0.929 . S
N625 Gd598 2.570 . S
N625 C626 1.359 . S
N625 C629 1.343 . S
C626 C619 1.422 . S
C626 N625 1.359 . S
C626 C628 1.421 . S
C627 C628 1.422 . S
C627 C630 1.321 . S
C627 H654 0.931 . S
C628 C626 1.421 . S
C628 C627 1.422 . S
C628 C652 1.417 . S
C629 H606 0.931 . S
C629 N625 1.343 . S
C629 C630 1.390 . S
C630 H608 0.930 . S
C630 C627 1.321 . S
C630 C629 1.390 . S
O631 Gd599 2.386 . S
O631 C643 1.265 . S
O632 Gd598 2.353 . S
O632 C643 1.242 . S
O633 Gd598 2.468 1_545 S
O633 C651 1.263 . S
O634 Gd598 2.427 1_545 S
O634 C651 1.252 . S
O635 Gd599 2.307 . S
O635 C644 1.261 . S
O636 Gd598 2.388 . S
O636 C644 1.252 . S
O637 Gd598 2.386 . S
O637 C655 1.265 . S
O638 Gd599 2.353 . S
O638 C655 1.242 . S
O639 Gd599 2.468 . S
O639 C663 1.263 . S
O640 Gd599 2.427 . S
O640 C663 1.252 . S
O641 Gd598 2.307 . S
O641 C656 1.261 . S
O642 Gd599 2.388 . S
O642 C656 1.252 . S
C643 O631 1.265 . S
C643 O632 1.242 . S
C644 O635 1.261 . S
C644 O636 1.252 . S
C645 C648 1.394 . S
C645 C650 1.370 . S
C645 C651 1.500 . S
C646 C649 1.383 . S
C646 C650 1.395 . S
C647 C648 1.396 . S
C647 C649 1.365 . S
C647 H664 0.929 . S
C648 C645 1.394 . S
C648 C647 1.396 . S
C648 H665 0.930 . S
C649 C646 1.383 . S
C649 C647 1.365 . S
C649 H666 0.931 . S
C650 C645 1.370 . S
C650 C646 1.395 . S
C650 H667 0.930 . S
C651 Gd598 2.805 1_545 S
C651 O633 1.263 . S
C651 O634 1.252 . S
C651 C645 1.500 . S
C652 H614 0.930 . S
C652 C628 1.417 . S
C652 C653 1.329 . S
C653 C623 1.437 . S
C653 H624 0.929 . S
C653 C652 1.329 . S
H654 C627 0.931 . S
C655 O637 1.265 . S
C655 O638 1.242 . S
C656 O641 1.261 . S
C656 O642 1.252 . S
C657 C660 1.394 . S
C657 C662 1.370 . S
C657 C663 1.500 . S
C658 C661 1.383 . S
C658 C662 1.395 . S
C659 C660 1.396 . S
C659 C661 1.365 . S
C659 H668 0.929 . S
C660 C657 1.394 . S
C660 C659 1.396 . S
C660 H669 0.930 . S
C661 C658 1.383 . S
C661 C659 1.365 . S
C661 H670 0.931 . S
C662 C657 1.370 . S
C662 C658 1.395 . S
C662 H671 0.930 . S
C663 Gd599 2.805 . S
C663 O639 1.263 . S
C663 O640 1.252 . S
C663 C657 1.500 . S
H664 C647 0.929 . S
H665 C648 0.930 . S
H666 C649 0.931 . S
H667 C650 0.930 . S
H668 C659 0.929 . S
H669 C660 0.930 . S
H670 C661 0.931 . S
H671 C662 0.930 . S
C672 C674 1.422 . S
C672 C676 1.415 . S
C672 N678 1.369 . S
C673 C674 1.421 . S
C673 C675 1.417 . S
C673 C685 1.422 . S
C674 C672 1.422 . S
C674 C673 1.421 . S
C674 N684 1.359 . S
C675 C673 1.417 . S
C675 C677 1.329 . S
C675 H694 0.930 . S
C676 C672 1.415 . S
C676 C677 1.437 . S
C676 C680 1.413 . S
C677 C675 1.329 . S
C677 C676 1.437 . S
C677 H699 0.929 . S
N678 C672 1.369 . S
N678 C679 1.338 . S
N678 Gd683 2.622 . S
C679 N678 1.338 . S
C679 C681 1.378 . S
C679 H691 0.929 . S
C680 C676 1.413 . S
C680 C681 1.348 . S
C680 H696 0.931 . S
C681 C679 1.378 . S
C681 C680 1.348 . S
C681 H697 0.930 . S
Gd682 N702 2.622 . S
Gd682 N709 2.570 . S
Gd682 O716 2.353 . S
Gd682 O717 2.468 . S
Gd682 O718 2.427 . S
Gd682 O720 2.388 . S
Gd682 O721 2.386 . S
Gd682 O725 2.307 . S
Gd682 C735 2.805 . S
Gd683 N678 2.622 . S
Gd683 N684 2.570 . S
Gd683 O715 2.386 . S
Gd683 O719 2.307 . S
Gd683 O722 2.353 . S
Gd683 O723 2.468 . S
Gd683 O724 2.427 . S
Gd683 O726 2.388 . S
Gd683 C747 2.805 . S
N684 C674 1.359 . S
N684 Gd683 2.570 . S
N684 C686 1.343 . S
C685 C673 1.422 . S
C685 C687 1.321 . S
C685 H693 0.931 . S
C686 N684 1.343 . S
C686 C687 1.390 . S
C686 H688 0.931 . S
C687 C685 1.321 . S
C687 C686 1.390 . S
C687 H689 0.930 . S
H688 C686 0.931 . S
H689 C687 0.930 . S
H690 C713 0.931 . S
H691 C679 0.929 . S
H692 C714 0.930 . S
H693 C685 0.931 . S
H694 C675 0.930 . S
H695 C704 0.929 . S
H696 C680 0.931 . S
H697 C681 0.930 . S
H698 C736 0.930 . S
H699 C677 0.929 . S
H700 C705 0.931 . S
H701 C706 0.930 . S
N702 Gd682 2.622 . S
N702 C703 1.369 . S
N702 C704 1.338 . S
C703 N702 1.369 . S
C703 C707 1.415 . S
C703 C710 1.422 . S
C704 H695 0.929 . S
C704 N702 1.338 . S
C704 C706 1.378 . S
C705 H700 0.931 . S
C705 C706 1.348 . S
C705 C707 1.413 . S
C706 H701 0.930 . S
C706 C704 1.378 . S
C706 C705 1.348 . S
C707 C703 1.415 . S
C707 C705 1.413 . S
C707 C737 1.437 . S
H708 C737 0.929 . S
N709 Gd682 2.570 . S
N709 C710 1.359 . S
N709 C713 1.343 . S
C710 C703 1.422 . S
C710 N709 1.359 . S
C710 C712 1.421 . S
C711 C712 1.422 . S
C711 C714 1.321 . S
C711 H738 0.931 . S
C712 C710 1.421 . S
C712 C711 1.422 . S
C712 C736 1.417 . S
C713 H690 0.931 . S
C713 N709 1.343 . S
C713 C714 1.390 . S
C714 H692 0.930 . S
C714 C711 1.321 . S
C714 C713 1.390 . S
O715 Gd683 2.386 . S
O715 C727 1.265 . S
O716 Gd682 2.353 . S
O716 C727 1.242 . S
O717 Gd682 2.468 . S
O717 C735 1.263 . S
O718 Gd682 2.427 . S
O718 C735 1.252 . S
O719 Gd683 2.307 . S
O719 C728 1.261 . S
O720 Gd682 2.388 . S
O720 C728 1.252 . S
O721 Gd682 2.386 . S
O721 C739 1.265 . S
O722 Gd683 2.353 . S
O722 C739 1.242 . S
O723 Gd683 2.468 . S
O723 C747 1.263 . S
O724 Gd683 2.427 . S
O724 C747 1.252 . S
O725 Gd682 2.307 . S
O725 C740 1.261 . S
O726 Gd683 2.388 . S
O726 C740 1.252 . S
C727 O715 1.265 . S
C727 O716 1.242 . S
C728 O719 1.261 . S
C728 O720 1.252 . S
C729 C732 1.394 . S
C729 C734 1.370 . S
C729 C735 1.500 . S
C730 C733 1.383 . S
C730 C734 1.395 . S
C731 C732 1.396 . S
C731 C733 1.365 . S
C731 H748 0.929 . S
C732 C729 1.394 . S
C732 C731 1.396 . S
C732 H749 0.930 . S
C733 C730 1.383 . S
C733 C731 1.365 . S
C733 H750 0.931 . S
C734 C729 1.370 . S
C734 C730 1.395 . S
C734 H751 0.930 . S
C735 Gd682 2.805 . S
C735 O717 1.263 . S
C735 O718 1.252 . S
C735 C729 1.500 . S
C736 H698 0.930 . S
C736 C712 1.417 . S
C736 C737 1.329 . S
C737 C707 1.437 . S
C737 H708 0.929 . S
C737 C736 1.329 . S
H738 C711 0.931 . S
C739 O721 1.265 . S
C739 O722 1.242 . S
C740 O725 1.261 . S
C740 O726 1.252 . S
C741 C744 1.394 . S
C741 C746 1.370 . S
C741 C747 1.500 . S
C742 C745 1.383 . S
C742 C746 1.395 . S
C743 C744 1.396 . S
C743 C745 1.365 . S
C743 H752 0.929 . S
C744 C741 1.394 . S
C744 C743 1.396 . S
C744 H753 0.930 . S
C745 C742 1.383 . S
C745 C743 1.365 . S
C745 H754 0.931 . S
C746 C741 1.370 . S
C746 C742 1.395 . S
C746 H755 0.930 . S
C747 Gd683 2.805 . S
C747 O723 1.263 . S
C747 O724 1.252 . S
C747 C741 1.500 . S
H748 C731 0.929 . S
H749 C732 0.930 . S
H750 C733 0.931 . S
H751 C734 0.930 . S
H752 C743 0.929 . S
H753 C744 0.930 . S
H754 C745 0.931 . S
H755 C746 0.930 . S
C756 C758 1.422 . S
C756 C760 1.415 . S
C756 N762 1.369 . S
C757 C758 1.421 . S
C757 C759 1.417 . S
C757 C769 1.422 . S
C758 C756 1.422 . S
C758 C757 1.421 . S
C758 N768 1.359 . S
C759 C757 1.417 . S
C759 C761 1.329 . S
C759 H778 0.930 . S
C760 C756 1.415 . S
C760 C761 1.437 . S
C760 C764 1.413 . S
C761 C759 1.329 . S
C761 C760 1.437 . S
C761 H783 0.929 . S
N762 C756 1.369 . S
N762 C763 1.338 . S
N762 Gd767 2.622 . S
C763 N762 1.338 . S
C763 C765 1.378 . S
C763 H775 0.929 . S
C764 C760 1.413 . S
C764 C765 1.348 . S
C764 H780 0.931 . S
C765 C763 1.378 . S
C765 C764 1.348 . S
C765 H781 0.930 . S
Gd766 N786 2.622 . S
Gd766 N793 2.570 . S
Gd766 O800 2.353 . S
Gd766 O801 2.468 . S
Gd766 O802 2.427 . S
Gd766 O804 2.388 . S
Gd766 O805 2.386 . S
Gd766 O809 2.307 . S
Gd766 C819 2.805 . S
Gd767 N762 2.622 . S
Gd767 N768 2.570 . S
Gd767 O799 2.386 . S
Gd767 O803 2.307 . S
Gd767 O806 2.353 . S
Gd767 O807 2.468 . S
Gd767 O808 2.427 . S
Gd767 O810 2.388 . S
Gd767 C831 2.805 . S
N768 C758 1.359 . S
N768 Gd767 2.570 . S
N768 C770 1.343 . S
C769 C757 1.422 . S
C769 C771 1.321 . S
C769 H777 0.931 . S
C770 N768 1.343 . S
C770 C771 1.390 . S
C770 H772 0.931 . S
C771 C769 1.321 . S
C771 C770 1.390 . S
C771 H773 0.930 . S
H772 C770 0.931 . S
H773 C771 0.930 . S
H774 C797 0.931 . S
H775 C763 0.929 . S
H776 C798 0.930 . S
H777 C769 0.931 . S
H778 C759 0.930 . S
H779 C788 0.929 . S
H780 C764 0.931 . S
H781 C765 0.930 . S
H782 C820 0.930 . S
H783 C761 0.929 . S
H784 C789 0.931 . S
H785 C790 0.930 . S
N786 Gd766 2.622 . S
N786 C787 1.369 . S
N786 C788 1.338 . S
C787 N786 1.369 . S
C787 C791 1.415 . S
C787 C794 1.422 . S
C788 H779 0.929 . S
C788 N786 1.338 . S
C788 C790 1.378 . S
C789 H784 0.931 . S
C789 C790 1.348 . S
C789 C791 1.413 . S
C790 H785 0.930 . S
C790 C788 1.378 . S
C790 C789 1.348 . S
C791 C787 1.415 . S
C791 C789 1.413 . S
C791 C821 1.437 . S
H792 C821 0.929 . S
N793 Gd766 2.570 . S
N793 C794 1.359 . S
N793 C797 1.343 . S
C794 C787 1.422 . S
C794 N793 1.359 . S
C794 C796 1.421 . S
C795 C796 1.422 . S
C795 C798 1.321 . S
C795 H822 0.931 . S
C796 C794 1.421 . S
C796 C795 1.422 . S
C796 C820 1.417 . S
C797 H774 0.931 . S
C797 N793 1.343 . S
C797 C798 1.390 . S
C798 H776 0.930 . S
C798 C795 1.321 . S
C798 C797 1.390 . S
O799 Gd767 2.386 . S
O799 C811 1.265 . S
O800 Gd766 2.353 . S
O800 C811 1.242 . S
O801 Gd766 2.468 . S
O801 C819 1.263 . S
O802 Gd766 2.427 . S
O802 C819 1.252 . S
O803 Gd767 2.307 . S
O803 C812 1.261 . S
O804 Gd766 2.388 . S
O804 C812 1.252 . S
O805 Gd766 2.386 . S
O805 C823 1.265 . S
O806 Gd767 2.353 . S
O806 C823 1.242 . S
O807 Gd767 2.468 . S
O807 C831 1.263 . S
O808 Gd767 2.427 . S
O808 C831 1.252 . S
O809 Gd766 2.307 . S
O809 C824 1.261 . S
O810 Gd767 2.388 . S
O810 C824 1.252 . S
C811 O799 1.265 . S
C811 O800 1.242 . S
C812 O803 1.261 . S
C812 O804 1.252 . S
C813 C816 1.394 . S
C813 C818 1.370 . S
C813 C819 1.500 . S
C814 C817 1.383 . S
C814 C818 1.395 . S
C815 C816 1.396 . S
C815 C817 1.365 . S
C815 H832 0.929 . S
C816 C813 1.394 . S
C816 C815 1.396 . S
C816 H833 0.930 . S
C817 C814 1.383 . S
C817 C815 1.365 . S
C817 H834 0.931 . S
C818 C813 1.370 . S
C818 C814 1.395 . S
C818 H835 0.930 . S
C819 Gd766 2.805 . S
C819 O801 1.263 . S
C819 O802 1.252 . S
C819 C813 1.500 . S
C820 H782 0.930 . S
C820 C796 1.417 . S
C820 C821 1.329 . S
C821 C791 1.437 . S
C821 H792 0.929 . S
C821 C820 1.329 . S
H822 C795 0.931 . S
C823 O805 1.265 . S
C823 O806 1.242 . S
C824 O809 1.261 . S
C824 O810 1.252 . S
C825 C828 1.394 . S
C825 C830 1.370 . S
C825 C831 1.500 . S
C826 C829 1.383 . S
C826 C830 1.395 . S
C827 C828 1.396 . S
C827 C829 1.365 . S
C827 H836 0.929 . S
C828 C825 1.394 . S
C828 C827 1.396 . S
C828 H837 0.930 . S
C829 C826 1.383 . S
C829 C827 1.365 . S
C829 H838 0.931 . S
C830 C825 1.370 . S
C830 C826 1.395 . S
C830 H839 0.930 . S
C831 Gd767 2.805 . S
C831 O807 1.263 . S
C831 O808 1.252 . S
C831 C825 1.500 . S
H832 C815 0.929 . S
H833 C816 0.930 . S
H834 C817 0.931 . S
H835 C818 0.930 . S
H836 C827 0.929 . S
H837 C828 0.930 . S
H838 C829 0.931 . S
H839 C830 0.930 . S
C840 C842 1.422 . S
C840 C844 1.415 . S
C840 N846 1.369 . S
C841 C842 1.421 . S
C841 C843 1.417 . S
C841 C853 1.422 . S
C842 C840 1.422 . S
C842 C841 1.421 . S
C842 N852 1.359 . S
C843 C841 1.417 . S
C843 C845 1.329 . S
C843 H862 0.930 . S
C844 C840 1.415 . S
C844 C845 1.437 . S
C844 C848 1.413 . S
C845 C843 1.329 . S
C845 C844 1.437 . S
C845 H867 0.929 . S
N846 C840 1.369 . S
N846 C847 1.338 . S
N846 Gd851 2.622 . S
C847 N846 1.338 . S
C847 C849 1.378 . S
C847 H859 0.929 . S
C848 C844 1.413 . S
C848 C849 1.348 . S
C848 H864 0.931 . S
C849 C847 1.378 . S
C849 C848 1.348 . S
C849 H865 0.930 . S
Gd850 N870 2.622 . S
Gd850 N877 2.570 . S
Gd850 O884 2.353 . S
Gd850 O885 2.468 . S
Gd850 O886 2.427 . S
Gd850 O888 2.388 . S
Gd850 O889 2.386 . S
Gd850 O893 2.307 . S
Gd850 C903 2.805 . S
Gd851 N846 2.622 . S
Gd851 N852 2.570 . S
Gd851 O883 2.386 . S
Gd851 O887 2.307 . S
Gd851 O890 2.353 . S
Gd851 O891 2.468 . S
Gd851 O892 2.427 . S
Gd851 O894 2.388 . S
Gd851 C915 2.805 . S
N852 C842 1.359 . S
N852 Gd851 2.570 . S
N852 C854 1.343 . S
C853 C841 1.422 . S
C853 C855 1.321 . S
C853 H861 0.931 . S
C854 N852 1.343 . S
C854 C855 1.390 . S
C854 H856 0.931 . S
C855 C853 1.321 . S
C855 C854 1.390 . S
C855 H857 0.930 . S
H856 C854 0.931 . S
H857 C855 0.930 . S
H858 C881 0.931 . S
H859 C847 0.929 . S
H860 C882 0.930 . S
H861 C853 0.931 . S
H862 C843 0.930 . S
H863 C872 0.929 . S
H864 C848 0.931 . S
H865 C849 0.930 . S
H866 C904 0.930 . S
H867 C845 0.929 . S
H868 C873 0.931 . S
H869 C874 0.930 . S
N870 Gd850 2.622 . S
N870 C871 1.369 . S
N870 C872 1.338 . S
C871 N870 1.369 . S
C871 C875 1.415 . S
C871 C878 1.422 . S
C872 H863 0.929 . S
C872 N870 1.338 . S
C872 C874 1.378 . S
C873 H868 0.931 . S
C873 C874 1.348 . S
C873 C875 1.413 . S
C874 H869 0.930 . S
C874 C872 1.378 . S
C874 C873 1.348 . S
C875 C871 1.415 . S
C875 C873 1.413 . S
C875 C905 1.437 . S
H876 C905 0.929 . S
N877 Gd850 2.570 . S
N877 C878 1.359 . S
N877 C881 1.343 . S
C878 C871 1.422 . S
C878 N877 1.359 . S
C878 C880 1.421 . S
C879 C880 1.422 . S
C879 C882 1.321 . S
C879 H906 0.931 . S
C880 C878 1.421 . S
C880 C879 1.422 . S
C880 C904 1.417 . S
C881 H858 0.931 . S
C881 N877 1.343 . S
C881 C882 1.390 . S
C882 H860 0.930 . S
C882 C879 1.321 . S
C882 C881 1.390 . S
O883 Gd851 2.386 . S
O883 C895 1.265 . S
O884 Gd850 2.353 . S
O884 C895 1.242 . S
O885 Gd850 2.468 . S
O885 C903 1.263 . S
O886 Gd850 2.427 . S
O886 C903 1.252 . S
O887 Gd851 2.307 . S
O887 C896 1.261 . S
O888 Gd850 2.388 . S
O888 C896 1.252 . S
O889 Gd850 2.386 . S
O889 C907 1.265 . S
O890 Gd851 2.353 . S
O890 C907 1.242 . S
O891 Gd851 2.468 . S
O891 C915 1.263 . S
O892 Gd851 2.427 . S
O892 C915 1.252 . S
O893 Gd850 2.307 . S
O893 C908 1.261 . S
O894 Gd851 2.388 . S
O894 C908 1.252 . S
C895 O883 1.265 . S
C895 O884 1.242 . S
C896 O887 1.261 . S
C896 O888 1.252 . S
C897 C900 1.394 . S
C897 C902 1.370 . S
C897 C903 1.500 . S
C898 C901 1.383 . S
C898 C902 1.395 . S
C899 C900 1.396 . S
C899 C901 1.365 . S
C899 H916 0.929 . S
C900 C897 1.394 . S
C900 C899 1.396 . S
C900 H917 0.930 . S
C901 C898 1.383 . S
C901 C899 1.365 . S
C901 H918 0.931 . S
C902 C897 1.370 . S
C902 C898 1.395 . S
C902 H919 0.930 . S
C903 Gd850 2.805 . S
C903 O885 1.263 . S
C903 O886 1.252 . S
C903 C897 1.500 . S
C904 H866 0.930 . S
C904 C880 1.417 . S
C904 C905 1.329 . S
C905 C875 1.437 . S
C905 H876 0.929 . S
C905 C904 1.329 . S
H906 C879 0.931 . S
C907 O889 1.265 . S
C907 O890 1.242 . S
C908 O893 1.261 . S
C908 O894 1.252 . S
C909 C912 1.394 . S
C909 C914 1.370 . S
C909 C915 1.500 . S
C910 C913 1.383 . S
C910 C914 1.395 . S
C911 C912 1.396 . S
C911 C913 1.365 . S
C911 H920 0.929 . S
C912 C909 1.394 . S
C912 C911 1.396 . S
C912 H921 0.930 . S
C913 C910 1.383 . S
C913 C911 1.365 . S
C913 H922 0.931 . S
C914 C909 1.370 . S
C914 C910 1.395 . S
C914 H923 0.930 . S
C915 Gd851 2.805 . S
C915 O891 1.263 . S
C915 O892 1.252 . S
C915 C909 1.500 . S
H916 C899 0.929 . S
H917 C900 0.930 . S
H918 C901 0.931 . S
H919 C902 0.930 . S
H920 C911 0.929 . S
H921 C912 0.930 . S
H922 C913 0.931 . S
H923 C914 0.930 . S
C924 C926 1.422 . S
C924 C928 1.415 . S
C924 N930 1.369 . S
C925 C926 1.421 . S
C925 C927 1.417 . S
C925 C937 1.422 . S
C926 C924 1.422 . S
C926 C925 1.421 . S
C926 N936 1.359 . S
C927 C925 1.417 . S
C927 C929 1.329 . S
C927 H946 0.930 . S
C928 C924 1.415 . S
C928 C929 1.437 . S
C928 C932 1.413 . S
C929 C927 1.329 . S
C929 C928 1.437 . S
C929 H951 0.929 . S
N930 C924 1.369 . S
N930 C931 1.338 . S
N930 Gd935 2.622 . S
C931 N930 1.338 . S
C931 C933 1.378 . S
C931 H943 0.929 . S
C932 C928 1.413 . S
C932 C933 1.348 . S
C932 H948 0.931 . S
C933 C931 1.378 . S
C933 C932 1.348 . S
C933 H949 0.930 . S
Gd934 N954 2.622 . S
Gd934 N961 2.570 . S
Gd934 O968 2.353 . S
Gd934 O969 2.468 . S
Gd934 O970 2.427 . S
Gd934 O972 2.388 . S
Gd934 O973 2.386 . S
Gd934 O977 2.307 . S
Gd934 C987 2.805 . S
Gd935 N930 2.622 . S
Gd935 N936 2.570 . S
Gd935 O967 2.386 . S
Gd935 O971 2.307 . S
Gd935 O974 2.353 . S
Gd935 O975 2.468 . S
Gd935 O976 2.427 . S
Gd935 O978 2.388 . S
Gd935 C999 2.805 . S
N936 C926 1.359 . S
N936 Gd935 2.570 . S
N936 C938 1.343 . S
C937 C925 1.422 . S
C937 C939 1.321 . S
C937 H945 0.931 . S
C938 N936 1.343 . S
C938 C939 1.390 . S
C938 H940 0.931 . S
C939 C937 1.321 . S
C939 C938 1.390 . S
C939 H941 0.930 . S
H940 C938 0.931 . S
H941 C939 0.930 . S
H942 C965 0.931 . S
H943 C931 0.929 . S
H944 C966 0.930 . S
H945 C937 0.931 . S
H946 C927 0.930 . S
H947 C956 0.929 . S
H948 C932 0.931 . S
H949 C933 0.930 . S
H950 C988 0.930 . S
H951 C929 0.929 . S
H952 C957 0.931 . S
H953 C958 0.930 . S
N954 Gd934 2.622 . S
N954 C955 1.369 . S
N954 C956 1.338 . S
C955 N954 1.369 . S
C955 C959 1.415 . S
C955 C962 1.422 . S
C956 H947 0.929 . S
C956 N954 1.338 . S
C956 C958 1.378 . S
C957 H952 0.931 . S
C957 C958 1.348 . S
C957 C959 1.413 . S
C958 H953 0.930 . S
C958 C956 1.378 . S
C958 C957 1.348 . S
C959 C955 1.415 . S
C959 C957 1.413 . S
C959 C989 1.437 . S
H960 C989 0.929 . S
N961 Gd934 2.570 . S
N961 C962 1.359 . S
N961 C965 1.343 . S
C962 C955 1.422 . S
C962 N961 1.359 . S
C962 C964 1.421 . S
C963 C964 1.422 . S
C963 C966 1.321 . S
C963 H990 0.931 . S
C964 C962 1.421 . S
C964 C963 1.422 . S
C964 C988 1.417 . S
C965 H942 0.931 . S
C965 N961 1.343 . S
C965 C966 1.390 . S
C966 H944 0.930 . S
C966 C963 1.321 . S
C966 C965 1.390 . S
O967 Gd935 2.386 . S
O967 C979 1.265 . S
O968 Gd934 2.353 . S
O968 C979 1.242 . S
O969 Gd934 2.468 . S
O969 C987 1.263 . S
O970 Gd934 2.427 . S
O970 C987 1.252 . S
O971 Gd935 2.307 . S
O971 C980 1.261 . S
O972 Gd934 2.388 . S
O972 C980 1.252 . S
O973 Gd934 2.386 . S
O973 C991 1.265 . S
O974 Gd935 2.353 . S
O974 C991 1.242 . S
O975 Gd935 2.468 . S
O975 C999 1.263 . S
O976 Gd935 2.427 . S
O976 C999 1.252 . S
O977 Gd934 2.307 . S
O977 C992 1.261 . S
O978 Gd935 2.388 . S
O978 C992 1.252 . S
C979 O967 1.265 . S
C979 O968 1.242 . S
C980 O971 1.261 . S
C980 O972 1.252 . S
C981 C984 1.394 . S
C981 C986 1.370 . S
C981 C987 1.500 . S
C982 C985 1.383 . S
C982 C986 1.395 . S
C983 C984 1.396 . S
C983 C985 1.365 . S
C983 H1000 0.929 . S
C984 C981 1.394 . S
C984 C983 1.396 . S
C984 H1001 0.930 . S
C985 C982 1.383 . S
C985 C983 1.365 . S
C985 H1002 0.931 . S
C986 C981 1.370 . S
C986 C982 1.395 . S
C986 H1003 0.930 . S
C987 Gd934 2.805 . S
C987 O969 1.263 . S
C987 O970 1.252 . S
C987 C981 1.500 . S
C988 H950 0.930 . S
C988 C964 1.417 . S
C988 C989 1.329 . S
C989 C959 1.437 . S
C989 H960 0.929 . S
C989 C988 1.329 . S
H990 C963 0.931 . S
C991 O973 1.265 . S
C991 O974 1.242 . S
C992 O977 1.261 . S
C992 O978 1.252 . S
C993 C996 1.394 . S
C993 C998 1.370 . S
C993 C999 1.500 . S
C994 C997 1.383 . S
C994 C998 1.395 . S
C995 C996 1.396 . S
C995 C997 1.365 . S
C995 H1004 0.929 . S
C996 C993 1.394 . S
C996 C995 1.396 . S
C996 H1005 0.930 . S
C997 C994 1.383 . S
C997 C995 1.365 . S
C997 H1006 0.931 . S
C998 C993 1.370 . S
C998 C994 1.395 . S
C998 H1007 0.930 . S
C999 Gd935 2.805 . S
C999 O975 1.263 . S
C999 O976 1.252 . S
C999 C993 1.500 . S
H1000 C983 0.929 . S
H1001 C984 0.930 . S
H1002 C985 0.931 . S
H1003 C986 0.930 . S
H1004 C995 0.929 . S
H1005 C996 0.930 . S
H1006 C997 0.931 . S
H1007 C998 0.930 . S
C1008 C1010 1.422 . S
C1008 C1012 1.415 . S
C1008 N1014 1.369 . S
C1009 C1010 1.421 . S
C1009 C1011 1.417 . S
C1009 C1021 1.422 . S
C1010 C1008 1.422 . S
C1010 C1009 1.421 . S
C1010 N1020 1.359 . S
C1011 C1009 1.417 . S
C1011 C1013 1.329 . S
C1011 H1030 0.930 . S
C1012 C1008 1.415 . S
C1012 C1013 1.437 . S
C1012 C1016 1.413 . S
C1013 C1011 1.329 . S
C1013 C1012 1.437 . S
C1013 H1035 0.929 . S
N1014 C1008 1.369 . S
N1014 C1015 1.338 . S
N1014 Gd1019 2.622 . S
C1015 N1014 1.338 . S
C1015 C1017 1.378 . S
C1015 H1027 0.929 . S
C1016 C1012 1.413 . S
C1016 C1017 1.348 . S
C1016 H1032 0.931 . S
C1017 C1015 1.378 . S
C1017 C1016 1.348 . S
C1017 H1033 0.930 . S
Gd1018 N1038 2.622 . S
Gd1018 N1045 2.570 . S
Gd1018 O1052 2.353 . S
Gd1018 O1053 2.468 . S
Gd1018 O1054 2.427 . S
Gd1018 O1056 2.388 . S
Gd1018 O1057 2.386 . S
Gd1018 O1061 2.307 . S
Gd1018 C1071 2.805 . S
Gd1019 N1014 2.622 . S
Gd1019 N1020 2.570 . S
Gd1019 O1051 2.386 . S
Gd1019 O1055 2.307 . S
Gd1019 O1058 2.353 . S
Gd1019 O1059 2.468 . S
Gd1019 O1060 2.427 . S
Gd1019 O1062 2.388 . S
Gd1019 C1083 2.805 . S
N1020 C1010 1.359 . S
N1020 Gd1019 2.570 . S
N1020 C1022 1.343 . S
C1021 C1009 1.422 . S
C1021 C1023 1.321 . S
C1021 H1029 0.931 . S
C1022 N1020 1.343 . S
C1022 C1023 1.390 . S
C1022 H1024 0.931 . S
C1023 C1021 1.321 . S
C1023 C1022 1.390 . S
C1023 H1025 0.930 . S
H1024 C1022 0.931 . S
H1025 C1023 0.930 . S
H1026 C1049 0.931 . S
H1027 C1015 0.929 . S
H1028 C1050 0.930 . S
H1029 C1021 0.931 . S
H1030 C1011 0.930 . S
H1031 C1040 0.929 . S
H1032 C1016 0.931 . S
H1033 C1017 0.930 . S
H1034 C1072 0.930 . S
H1035 C1013 0.929 . S
H1036 C1041 0.931 . S
H1037 C1042 0.930 . S
N1038 Gd1018 2.622 . S
N1038 C1039 1.369 . S
N1038 C1040 1.338 . S
C1039 N1038 1.369 . S
C1039 C1043 1.415 . S
C1039 C1046 1.422 . S
C1040 H1031 0.929 . S
C1040 N1038 1.338 . S
C1040 C1042 1.378 . S
C1041 H1036 0.931 . S
C1041 C1042 1.348 . S
C1041 C1043 1.413 . S
C1042 H1037 0.930 . S
C1042 C1040 1.378 . S
C1042 C1041 1.348 . S
C1043 C1039 1.415 . S
C1043 C1041 1.413 . S
C1043 C1073 1.437 . S
H1044 C1073 0.929 . S
N1045 Gd1018 2.570 . S
N1045 C1046 1.359 . S
N1045 C1049 1.343 . S
C1046 C1039 1.422 . S
C1046 N1045 1.359 . S
C1046 C1048 1.421 . S
C1047 C1048 1.422 . S
C1047 C1050 1.321 . S
C1047 H1074 0.931 . S
C1048 C1046 1.421 . S
C1048 C1047 1.422 . S
C1048 C1072 1.417 . S
C1049 H1026 0.931 . S
C1049 N1045 1.343 . S
C1049 C1050 1.390 . S
C1050 H1028 0.930 . S
C1050 C1047 1.321 . S
C1050 C1049 1.390 . S
O1051 Gd1019 2.386 . S
O1051 C1063 1.265 . S
O1052 Gd1018 2.353 . S
O1052 C1063 1.242 . S
O1053 Gd1018 2.468 . S
O1053 C1071 1.263 . S
O1054 Gd1018 2.427 . S
O1054 C1071 1.252 . S
O1055 Gd1019 2.307 . S
O1055 C1064 1.261 . S
O1056 Gd1018 2.388 . S
O1056 C1064 1.252 . S
O1057 Gd1018 2.386 . S
O1057 C1075 1.265 . S
O1058 Gd1019 2.353 . S
O1058 C1075 1.242 . S
O1059 Gd1019 2.468 . S
O1059 C1083 1.263 . S
O1060 Gd1019 2.427 . S
O1060 C1083 1.252 . S
O1061 Gd1018 2.307 . S
O1061 C1076 1.261 . S
O1062 Gd1019 2.388 . S
O1062 C1076 1.252 . S
C1063 O1051 1.265 . S
C1063 O1052 1.242 . S
C1064 O1055 1.261 . S
C1064 O1056 1.252 . S
C1065 C1068 1.394 . S
C1065 C1070 1.370 . S
C1065 C1071 1.500 . S
C1066 C1069 1.383 . S
C1066 C1070 1.395 . S
C1067 C1068 1.396 . S
C1067 C1069 1.365 . S
C1067 H1084 0.929 . S
C1068 C1065 1.394 . S
C1068 C1067 1.396 . S
C1068 H1085 0.930 . S
C1069 C1066 1.383 . S
C1069 C1067 1.365 . S
C1069 H1086 0.931 . S
C1070 C1065 1.370 . S
C1070 C1066 1.395 . S
C1070 H1087 0.930 . S
C1071 Gd1018 2.805 . S
C1071 O1053 1.263 . S
C1071 O1054 1.252 . S
C1071 C1065 1.500 . S
C1072 H1034 0.930 . S
C1072 C1048 1.417 . S
C1072 C1073 1.329 . S
C1073 C1043 1.437 . S
C1073 H1044 0.929 . S
C1073 C1072 1.329 . S
H1074 C1047 0.931 . S
C1075 O1057 1.265 . S
C1075 O1058 1.242 . S
C1076 O1061 1.261 . S
C1076 O1062 1.252 . S
C1077 C1080 1.394 . S
C1077 C1082 1.370 . S
C1077 C1083 1.500 . S
C1078 C1081 1.383 . S
C1078 C1082 1.395 . S
C1079 C1080 1.396 . S
C1079 C1081 1.365 . S
C1079 H1088 0.929 . S
C1080 C1077 1.394 . S
C1080 C1079 1.396 . S
C1080 H1089 0.930 . S
C1081 C1078 1.383 . S
C1081 C1079 1.365 . S
C1081 H1090 0.931 . S
C1082 C1077 1.370 . S
C1082 C1078 1.395 . S
C1082 H1091 0.930 . S
C1083 Gd1019 2.805 . S
C1083 O1059 1.263 . S
C1083 O1060 1.252 . S
C1083 C1077 1.500 . S
H1084 C1067 0.929 . S
H1085 C1068 0.930 . S
H1086 C1069 0.931 . S
H1087 C1070 0.930 . S
H1088 C1079 0.929 . S
H1089 C1080 0.930 . S
H1090 C1081 0.931 . S
H1091 C1082 0.930 . S
C1092 C1094 1.422 . S
C1092 C1096 1.415 . S
C1092 N1098 1.369 . S
C1093 C1094 1.421 . S
C1093 C1095 1.417 . S
C1093 C1105 1.422 . S
C1094 C1092 1.422 . S
C1094 C1093 1.421 . S
C1094 N1104 1.359 . S
C1095 C1093 1.417 . S
C1095 C1097 1.329 . S
C1095 H1114 0.930 . S
C1096 C1092 1.415 . S
C1096 C1097 1.437 . S
C1096 C1100 1.413 . S
C1097 C1095 1.329 . S
C1097 C1096 1.437 . S
C1097 H1119 0.929 . S
N1098 C1092 1.369 . S
N1098 C1099 1.338 . S
N1098 Gd1103 2.622 . S
C1099 N1098 1.338 . S
C1099 C1101 1.378 . S
C1099 H1111 0.929 . S
C1100 C1096 1.413 . S
C1100 C1101 1.348 . S
C1100 H1116 0.931 . S
C1101 C1099 1.378 . S
C1101 C1100 1.348 . S
C1101 H1117 0.930 . S
Gd1102 N1122 2.622 . S
Gd1102 N1129 2.570 . S
Gd1102 O1136 2.353 . S
Gd1102 O1137 2.468 . S
Gd1102 O1138 2.427 . S
Gd1102 O1140 2.388 . S
Gd1102 O1141 2.386 . S
Gd1102 O1145 2.307 . S
Gd1102 C1155 2.805 . S
Gd1103 N1098 2.622 . S
Gd1103 N1104 2.570 . S
Gd1103 O1135 2.386 . S
Gd1103 O1139 2.307 . S
Gd1103 O1142 2.353 . S
Gd1103 O1143 2.468 . S
Gd1103 O1144 2.427 . S
Gd1103 O1146 2.388 . S
Gd1103 C1167 2.805 . S
N1104 C1094 1.359 . S
N1104 Gd1103 2.570 . S
N1104 C1106 1.343 . S
C1105 C1093 1.422 . S
C1105 C1107 1.321 . S
C1105 H1113 0.931 . S
C1106 N1104 1.343 . S
C1106 C1107 1.390 . S
C1106 H1108 0.931 . S
C1107 C1105 1.321 . S
C1107 C1106 1.390 . S
C1107 H1109 0.930 . S
H1108 C1106 0.931 . S
H1109 C1107 0.930 . S
H1110 C1133 0.931 . S
H1111 C1099 0.929 . S
H1112 C1134 0.930 . S
H1113 C1105 0.931 . S
H1114 C1095 0.930 . S
H1115 C1124 0.929 . S
H1116 C1100 0.931 . S
H1117 C1101 0.930 . S
H1118 C1156 0.930 . S
H1119 C1097 0.929 . S
H1120 C1125 0.931 . S
H1121 C1126 0.930 . S
N1122 Gd1102 2.622 . S
N1122 C1123 1.369 . S
N1122 C1124 1.338 . S
C1123 N1122 1.369 . S
C1123 C1127 1.415 . S
C1123 C1130 1.422 . S
C1124 H1115 0.929 . S
C1124 N1122 1.338 . S
C1124 C1126 1.378 . S
C1125 H1120 0.931 . S
C1125 C1126 1.348 . S
C1125 C1127 1.413 . S
C1126 H1121 0.930 . S
C1126 C1124 1.378 . S
C1126 C1125 1.348 . S
C1127 C1123 1.415 . S
C1127 C1125 1.413 . S
C1127 C1157 1.437 . S
H1128 C1157 0.929 . S
N1129 Gd1102 2.570 . S
N1129 C1130 1.359 . S
N1129 C1133 1.343 . S
C1130 C1123 1.422 . S
C1130 N1129 1.359 . S
C1130 C1132 1.421 . S
C1131 C1132 1.422 . S
C1131 C1134 1.321 . S
C1131 H1158 0.931 . S
C1132 C1130 1.421 . S
C1132 C1131 1.422 . S
C1132 C1156 1.417 . S
C1133 H1110 0.931 . S
C1133 N1129 1.343 . S
C1133 C1134 1.390 . S
C1134 H1112 0.930 . S
C1134 C1131 1.321 . S
C1134 C1133 1.390 . S
O1135 Gd1103 2.386 . S
O1135 C1147 1.265 . S
O1136 Gd1102 2.353 . S
O1136 C1147 1.242 . S
O1137 Gd1102 2.468 . S
O1137 C1155 1.263 . S
O1138 Gd1102 2.427 . S
O1138 C1155 1.252 . S
O1139 Gd1103 2.307 . S
O1139 C1148 1.261 . S
O1140 Gd1102 2.388 . S
O1140 C1148 1.252 . S
O1141 Gd1102 2.386 . S
O1141 C1159 1.265 . S
O1142 Gd1103 2.353 . S
O1142 C1159 1.242 . S
O1143 Gd1103 2.468 . S
O1143 C1167 1.263 . S
O1144 Gd1103 2.427 . S
O1144 C1167 1.252 . S
O1145 Gd1102 2.307 . S
O1145 C1160 1.261 . S
O1146 Gd1103 2.388 . S
O1146 C1160 1.252 . S
C1147 O1135 1.265 . S
C1147 O1136 1.242 . S
C1148 O1139 1.261 . S
C1148 O1140 1.252 . S
C1149 C1152 1.394 . S
C1149 C1154 1.370 . S
C1149 C1155 1.500 . S
C1150 C1153 1.383 . S
C1150 C1154 1.395 . S
C1151 C1152 1.396 . S
C1151 C1153 1.365 . S
C1151 H1168 0.929 . S
C1152 C1149 1.394 . S
C1152 C1151 1.396 . S
C1152 H1169 0.930 . S
C1153 C1150 1.383 . S
C1153 C1151 1.365 . S
C1153 H1170 0.931 . S
C1154 C1149 1.370 . S
C1154 C1150 1.395 . S
C1154 H1171 0.930 . S
C1155 Gd1102 2.805 . S
C1155 O1137 1.263 . S
C1155 O1138 1.252 . S
C1155 C1149 1.500 . S
C1156 H1118 0.930 . S
C1156 C1132 1.417 . S
C1156 C1157 1.329 . S
C1157 C1127 1.437 . S
C1157 H1128 0.929 . S
C1157 C1156 1.329 . S
H1158 C1131 0.931 . S
C1159 O1141 1.265 . S
C1159 O1142 1.242 . S
C1160 O1145 1.261 . S
C1160 O1146 1.252 . S
C1161 C1164 1.394 . S
C1161 C1166 1.370 . S
C1161 C1167 1.500 . S
C1162 C1165 1.383 . S
C1162 C1166 1.395 . S
C1163 C1164 1.396 . S
C1163 C1165 1.365 . S
C1163 H1172 0.929 . S
C1164 C1161 1.394 . S
C1164 C1163 1.396 . S
C1164 H1173 0.930 . S
C1165 C1162 1.383 . S
C1165 C1163 1.365 . S
C1165 H1174 0.931 . S
C1166 C1161 1.370 . S
C1166 C1162 1.395 . S
C1166 H1175 0.930 . S
C1167 Gd1103 2.805 . S
C1167 O1143 1.263 . S
C1167 O1144 1.252 . S
C1167 C1161 1.500 . S
H1168 C1151 0.929 . S
H1169 C1152 0.930 . S
H1170 C1153 0.931 . S
H1171 C1154 0.930 . S
H1172 C1163 0.929 . S
H1173 C1164 0.930 . S
H1174 C1165 0.931 . S
H1175 C1166 0.930 . S
C1176 C1178 1.422 . S
C1176 C1180 1.415 . S
C1176 N1182 1.369 . S
C1177 C1178 1.421 . S
C1177 C1179 1.417 . S
C1177 C1189 1.422 . S
C1178 C1176 1.422 . S
C1178 C1177 1.421 . S
C1178 N1188 1.359 . S
C1179 C1177 1.417 . S
C1179 C1181 1.329 . S
C1179 H1198 0.930 . S
C1180 C1176 1.415 . S
C1180 C1181 1.437 . S
C1180 C1184 1.413 . S
C1181 C1179 1.329 . S
C1181 C1180 1.437 . S
C1181 H1203 0.929 . S
N1182 C1176 1.369 . S
N1182 C1183 1.338 . S
N1182 Gd1187 2.622 . S
C1183 N1182 1.338 . S
C1183 C1185 1.378 . S
C1183 H1195 0.929 . S
C1184 C1180 1.413 . S
C1184 C1185 1.348 . S
C1184 H1200 0.931 . S
C1185 C1183 1.378 . S
C1185 C1184 1.348 . S
C1185 H1201 0.930 . S
Gd1186 N1206 2.622 . S
Gd1186 N1213 2.570 . S
Gd1186 O1220 2.353 . S
Gd1186 O1221 2.468 . S
Gd1186 O1222 2.427 . S
Gd1186 O1224 2.388 . S
Gd1186 O1225 2.386 . S
Gd1186 O1229 2.307 . S
Gd1186 C1239 2.805 . S
Gd1187 N1182 2.622 . S
Gd1187 N1188 2.570 . S
Gd1187 O1219 2.386 . S
Gd1187 O1223 2.307 . S
Gd1187 O1226 2.353 . S
Gd1187 O1227 2.468 . S
Gd1187 O1228 2.427 . S
Gd1187 O1230 2.388 . S
Gd1187 C1251 2.805 . S
N1188 C1178 1.359 . S
N1188 Gd1187 2.570 . S
N1188 C1190 1.343 . S
C1189 C1177 1.422 . S
C1189 C1191 1.321 . S
C1189 H1197 0.931 . S
C1190 N1188 1.343 . S
C1190 C1191 1.390 . S
C1190 H1192 0.931 . S
C1191 C1189 1.321 . S
C1191 C1190 1.390 . S
C1191 H1193 0.930 . S
H1192 C1190 0.931 . S
H1193 C1191 0.930 . S
H1194 C1217 0.931 . S
H1195 C1183 0.929 . S
H1196 C1218 0.930 . S
H1197 C1189 0.931 . S
H1198 C1179 0.930 . S
H1199 C1208 0.929 . S
H1200 C1184 0.931 . S
H1201 C1185 0.930 . S
H1202 C1240 0.930 . S
H1203 C1181 0.929 . S
H1204 C1209 0.931 . S
H1205 C1210 0.930 . S
N1206 Gd1186 2.622 . S
N1206 C1207 1.369 . S
N1206 C1208 1.338 . S
C1207 N1206 1.369 . S
C1207 C1211 1.415 . S
C1207 C1214 1.422 . S
C1208 H1199 0.929 . S
C1208 N1206 1.338 . S
C1208 C1210 1.378 . S
C1209 H1204 0.931 . S
C1209 C1210 1.348 . S
C1209 C1211 1.413 . S
C1210 H1205 0.930 . S
C1210 C1208 1.378 . S
C1210 C1209 1.348 . S
C1211 C1207 1.415 . S
C1211 C1209 1.413 . S
C1211 C1241 1.437 . S
H1212 C1241 0.929 . S
N1213 Gd1186 2.570 . S
N1213 C1214 1.359 . S
N1213 C1217 1.343 . S
C1214 C1207 1.422 . S
C1214 N1213 1.359 . S
C1214 C1216 1.421 . S
C1215 C1216 1.422 . S
C1215 C1218 1.321 . S
C1215 H1242 0.931 . S
C1216 C1214 1.421 . S
C1216 C1215 1.422 . S
C1216 C1240 1.417 . S
C1217 H1194 0.931 . S
C1217 N1213 1.343 . S
C1217 C1218 1.390 . S
C1218 H1196 0.930 . S
C1218 C1215 1.321 . S
C1218 C1217 1.390 . S
O1219 Gd1187 2.386 . S
O1219 C1231 1.265 . S
O1220 Gd1186 2.353 . S
O1220 C1231 1.242 . S
O1221 Gd1186 2.468 . S
O1221 C1239 1.263 . S
O1222 Gd1186 2.427 . S
O1222 C1239 1.252 . S
O1223 Gd1187 2.307 . S
O1223 C1232 1.261 . S
O1224 Gd1186 2.388 . S
O1224 C1232 1.252 . S
O1225 Gd1186 2.386 . S
O1225 C1243 1.265 . S
O1226 Gd1187 2.353 . S
O1226 C1243 1.242 . S
O1227 Gd1187 2.468 . S
O1227 C1251 1.263 . S
O1228 Gd1187 2.427 . S
O1228 C1251 1.252 . S
O1229 Gd1186 2.307 . S
O1229 C1244 1.261 . S
O1230 Gd1187 2.388 . S
O1230 C1244 1.252 . S
C1231 O1219 1.265 . S
C1231 O1220 1.242 . S
C1232 O1223 1.261 . S
C1232 O1224 1.252 . S
C1233 C1236 1.394 . S
C1233 C1238 1.370 . S
C1233 C1239 1.500 . S
C1234 C1237 1.383 . S
C1234 C1238 1.395 . S
C1235 C1236 1.396 . S
C1235 C1237 1.365 . S
C1235 H1252 0.929 . S
C1236 C1233 1.394 . S
C1236 C1235 1.396 . S
C1236 H1253 0.930 . S
C1237 C1234 1.383 . S
C1237 C1235 1.365 . S
C1237 H1254 0.931 . S
C1238 C1233 1.370 . S
C1238 C1234 1.395 . S
C1238 H1255 0.930 . S
C1239 Gd1186 2.805 . S
C1239 O1221 1.263 . S
C1239 O1222 1.252 . S
C1239 C1233 1.500 . S
C1240 H1202 0.930 . S
C1240 C1216 1.417 . S
C1240 C1241 1.329 . S
C1241 C1211 1.437 . S
C1241 H1212 0.929 . S
C1241 C1240 1.329 . S
H1242 C1215 0.931 . S
C1243 O1225 1.265 . S
C1243 O1226 1.242 . S
C1244 O1229 1.261 . S
C1244 O1230 1.252 . S
C1245 C1248 1.394 . S
C1245 C1250 1.370 . S
C1245 C1251 1.500 . S
C1246 C1249 1.383 . S
C1246 C1250 1.395 . S
C1247 C1248 1.396 . S
C1247 C1249 1.365 . S
C1247 H1256 0.929 . S
C1248 C1245 1.394 . S
C1248 C1247 1.396 . S
C1248 H1257 0.930 . S
C1249 C1246 1.383 . S
C1249 C1247 1.365 . S
C1249 H1258 0.931 . S
C1250 C1245 1.370 . S
C1250 C1246 1.395 . S
C1250 H1259 0.930 . S
C1251 Gd1187 2.805 . S
C1251 O1227 1.263 . S
C1251 O1228 1.252 . S
C1251 C1245 1.500 . S
H1252 C1235 0.929 . S
H1253 C1236 0.930 . S
H1254 C1237 0.931 . S
H1255 C1238 0.930 . S
H1256 C1247 0.929 . S
H1257 C1248 0.930 . S
H1258 C1249 0.931 . S
H1259 C1250 0.930 . S
C1260 C1262 1.422 . S
C1260 C1264 1.415 . S
C1260 N1266 1.369 . S
C1261 C1262 1.421 . S
C1261 C1263 1.417 . S
C1261 C1273 1.422 . S
C1262 C1260 1.422 . S
C1262 C1261 1.421 . S
C1262 N1272 1.359 . S
C1263 C1261 1.417 . S
C1263 C1265 1.329 . S
C1263 H1282 0.930 . S
C1264 C1260 1.415 . S
C1264 C1265 1.437 . S
C1264 C1268 1.413 . S
C1265 C1263 1.329 . S
C1265 C1264 1.437 . S
C1265 H1287 0.929 . S
N1266 C1260 1.369 . S
N1266 C1267 1.338 . S
N1266 Gd1271 2.622 . S
C1267 N1266 1.338 . S
C1267 C1269 1.378 . S
C1267 H1279 0.929 . S
C1268 C1264 1.413 . S
C1268 C1269 1.348 . S
C1268 H1284 0.931 . S
C1269 C1267 1.378 . S
C1269 C1268 1.348 . S
C1269 H1285 0.930 . S
Gd1270 N1290 2.622 . S
Gd1270 N1297 2.570 . S
Gd1270 O1304 2.353 . S
Gd1270 O1305 2.468 . S
Gd1270 O1306 2.427 . S
Gd1270 O1308 2.388 . S
Gd1270 O1309 2.386 . S
Gd1270 O1313 2.307 . S
Gd1270 C1323 2.805 . S
Gd1271 N1266 2.622 . S
Gd1271 N1272 2.570 . S
Gd1271 O1303 2.386 . S
Gd1271 O1307 2.307 . S
Gd1271 O1310 2.353 . S
Gd1271 O1311 2.468 . S
Gd1271 O1312 2.427 . S
Gd1271 O1314 2.388 . S
Gd1271 C1335 2.805 . S
N1272 C1262 1.359 . S
N1272 Gd1271 2.570 . S
N1272 C1274 1.343 . S
C1273 C1261 1.422 . S
C1273 C1275 1.321 . S
C1273 H1281 0.931 . S
C1274 N1272 1.343 . S
C1274 C1275 1.390 . S
C1274 H1276 0.931 . S
C1275 C1273 1.321 . S
C1275 C1274 1.390 . S
C1275 H1277 0.930 . S
H1276 C1274 0.931 . S
H1277 C1275 0.930 . S
H1278 C1301 0.931 . S
H1279 C1267 0.929 . S
H1280 C1302 0.930 . S
H1281 C1273 0.931 . S
H1282 C1263 0.930 . S
H1283 C1292 0.929 . S
H1284 C1268 0.931 . S
H1285 C1269 0.930 . S
H1286 C1324 0.930 . S
H1287 C1265 0.929 . S
H1288 C1293 0.931 . S
H1289 C1294 0.930 . S
N1290 Gd1270 2.622 . S
N1290 C1291 1.369 . S
N1290 C1292 1.338 . S
C1291 N1290 1.369 . S
C1291 C1295 1.415 . S
C1291 C1298 1.422 . S
C1292 H1283 0.929 . S
C1292 N1290 1.338 . S
C1292 C1294 1.378 . S
C1293 H1288 0.931 . S
C1293 C1294 1.348 . S
C1293 C1295 1.413 . S
C1294 H1289 0.930 . S
C1294 C1292 1.378 . S
C1294 C1293 1.348 . S
C1295 C1291 1.415 . S
C1295 C1293 1.413 . S
C1295 C1325 1.437 . S
H1296 C1325 0.929 . S
N1297 Gd1270 2.570 . S
N1297 C1298 1.359 . S
N1297 C1301 1.343 . S
C1298 C1291 1.422 . S
C1298 N1297 1.359 . S
C1298 C1300 1.421 . S
C1299 C1300 1.422 . S
C1299 C1302 1.321 . S
C1299 H1326 0.931 . S
C1300 C1298 1.421 . S
C1300 C1299 1.422 . S
C1300 C1324 1.417 . S
C1301 H1278 0.931 . S
C1301 N1297 1.343 . S
C1301 C1302 1.390 . S
C1302 H1280 0.930 . S
C1302 C1299 1.321 . S
C1302 C1301 1.390 . S
O1303 Gd1271 2.386 . S
O1303 C1315 1.265 . S
O1304 Gd1270 2.353 . S
O1304 C1315 1.242 . S
O1305 Gd1270 2.468 . S
O1305 C1323 1.263 . S
O1306 Gd1270 2.427 . S
O1306 C1323 1.252 . S
O1307 Gd1271 2.307 . S
O1307 C1316 1.261 . S
O1308 Gd1270 2.388 . S
O1308 C1316 1.252 . S
O1309 Gd1270 2.386 . S
O1309 C1327 1.265 . S
O1310 Gd1271 2.353 . S
O1310 C1327 1.242 . S
O1311 Gd1271 2.468 . S
O1311 C1335 1.263 . S
O1312 Gd1271 2.427 . S
O1312 C1335 1.252 . S
O1313 Gd1270 2.307 . S
O1313 C1328 1.261 . S
O1314 Gd1271 2.388 . S
O1314 C1328 1.252 . S
C1315 O1303 1.265 . S
C1315 O1304 1.242 . S
C1316 O1307 1.261 . S
C1316 O1308 1.252 . S
C1317 C1320 1.394 . S
C1317 C1322 1.370 . S
C1317 C1323 1.500 . S
C1318 C1321 1.383 . S
C1318 C1322 1.395 . S
C1319 C1320 1.396 . S
C1319 C1321 1.365 . S
C1319 H1336 0.929 . S
C1320 C1317 1.394 . S
C1320 C1319 1.396 . S
C1320 H1337 0.930 . S
C1321 C1318 1.383 . S
C1321 C1319 1.365 . S
C1321 H1338 0.931 . S
C1322 C1317 1.370 . S
C1322 C1318 1.395 . S
C1322 H1339 0.930 . S
C1323 Gd1270 2.805 . S
C1323 O1305 1.263 . S
C1323 O1306 1.252 . S
C1323 C1317 1.500 . S
C1324 H1286 0.930 . S
C1324 C1300 1.417 . S
C1324 C1325 1.329 . S
C1325 C1295 1.437 . S
C1325 H1296 0.929 . S
C1325 C1324 1.329 . S
H1326 C1299 0.931 . S
C1327 O1309 1.265 . S
C1327 O1310 1.242 . S
C1328 O1313 1.261 . S
C1328 O1314 1.252 . S
C1329 C1332 1.394 . S
C1329 C1334 1.370 . S
C1329 C1335 1.500 . S
C1330 C1333 1.383 . S
C1330 C1334 1.395 . S
C1331 C1332 1.396 . S
C1331 C1333 1.365 . S
C1331 H1340 0.929 . S
C1332 C1329 1.394 . S
C1332 C1331 1.396 . S
C1332 H1341 0.930 . S
C1333 C1330 1.383 . S
C1333 C1331 1.365 . S
C1333 H1342 0.931 . S
C1334 C1329 1.370 . S
C1334 C1330 1.395 . S
C1334 H1343 0.930 . S
C1335 Gd1271 2.805 . S
C1335 O1311 1.263 . S
C1335 O1312 1.252 . S
C1335 C1329 1.500 . S
H1336 C1319 0.929 . S
H1337 C1320 0.930 . S
H1338 C1321 0.931 . S
H1339 C1322 0.930 . S
H1340 C1331 0.929 . S
H1341 C1332 0.930 . S
H1342 C1333 0.931 . S
H1343 C1334 0.930 . S
H1344 C1352 0.950 . S
H1345 C1357 0.950 . S
H1346 C1354 0.950 . S
H1347 C1356 0.950 . S
H1348 C1358 0.950 . S
H1349 C1360 0.950 . S
H1350 C1362 0.950 . S
H1351 C1363 0.950 . S
C1352 H1344 0.950 . S
C1352 C1353 1.386 . S
C1352 C1354 1.391 . S
C1353 C1352 1.386 . S
C1353 C1357 1.393 . S
C1354 H1346 0.950 . S
C1354 C1352 1.391 . S
C1354 C1355 1.400 . S
C1355 C1354 1.400 . S
C1355 C1356 1.398 . S
C1355 C1361 1.491 . S
C1356 H1347 0.950 . S
C1356 C1355 1.398 . S
C1356 C1357 1.391 . S
C1357 H1345 0.950 . S
C1357 C1353 1.393 . S
C1357 C1356 1.391 . S
C1358 H1348 0.950 . S
C1358 C1359 1.386 . S
C1358 C1360 1.391 . S
C1359 C1358 1.386 . S
C1359 C1363 1.393 . S
C1360 H1349 0.950 . S
C1360 C1358 1.391 . S
C1360 C1361 1.400 . S
C1361 C1355 1.491 . S
C1361 C1360 1.400 . S
C1361 C1362 1.398 . S
C1362 H1350 0.950 . S
C1362 C1361 1.398 . S
C1362 C1363 1.391 . S
C1363 H1351 0.950 . S
C1363 C1359 1.393 . S
C1363 C1362 1.391 . S
H1364 C1372 0.950 . S
H1365 C1377 0.950 . S
H1366 C1374 0.950 . S
H1367 C1376 0.950 . S
H1368 C1378 0.950 . S
H1369 C1380 0.950 . S
H1370 C1382 0.950 . S
H1371 C1383 0.950 . S
C1372 H1364 0.950 . S
C1372 C1373 1.386 . S
C1372 C1374 1.391 . S
C1373 C1372 1.386 . S
C1373 C1377 1.393 . S
C1374 H1366 0.950 . S
C1374 C1372 1.391 . S
C1374 C1375 1.400 . S
C1375 C1374 1.400 . S
C1375 C1376 1.398 . S
C1375 C1381 1.491 . S
C1376 H1367 0.950 . S
C1376 C1375 1.398 . S
C1376 C1377 1.391 . S
C1377 H1365 0.950 . S
C1377 C1373 1.393 . S
C1377 C1376 1.391 . S
C1378 H1368 0.950 . S
C1378 C1379 1.386 . S
C1378 C1380 1.391 . S
C1379 C1378 1.386 . S
C1379 C1383 1.393 . S
C1380 H1369 0.950 . S
C1380 C1378 1.391 . S
C1380 C1381 1.400 . S
C1381 C1375 1.491 . S
C1381 C1380 1.400 . S
C1381 C1382 1.398 . S
C1382 H1370 0.950 . S
C1382 C1381 1.398 . S
C1382 C1383 1.391 . S
C1383 H1371 0.950 . S
C1383 C1379 1.393 . S
C1383 C1382 1.391 . S
H1384 C1392 0.950 . S
H1385 C1397 0.950 . S
H1386 C1394 0.950 . S
H1387 C1396 0.950 . S
H1388 C1398 0.950 . S
H1389 C1400 0.950 . S
H1390 C1402 0.950 . S
H1391 C1403 0.950 . S
C1392 H1384 0.950 . S
C1392 C1393 1.386 . S
C1392 C1394 1.391 . S
C1393 C1392 1.386 . S
C1393 C1397 1.393 . S
C1394 H1386 0.950 . S
C1394 C1392 1.391 . S
C1394 C1395 1.400 . S
C1395 C1394 1.400 . S
C1395 C1396 1.398 . S
C1395 C1401 1.491 . S
C1396 H1387 0.950 . S
C1396 C1395 1.398 . S
C1396 C1397 1.391 . S
C1397 H1385 0.950 . S
C1397 C1393 1.393 . S
C1397 C1396 1.391 . S
C1398 H1388 0.950 . S
C1398 C1399 1.386 . S
C1398 C1400 1.391 . S
C1399 C1398 1.386 . S
C1399 C1403 1.393 . S
C1400 H1389 0.950 . S
C1400 C1398 1.391 . S
C1400 C1401 1.400 . S
C1401 C1395 1.491 . S
C1401 C1400 1.400 . S
C1401 C1402 1.398 . S
C1402 H1390 0.950 . S
C1402 C1401 1.398 . S
C1402 C1403 1.391 . S
C1403 H1391 0.950 . S
C1403 C1399 1.393 . S
C1403 C1402 1.391 . S
H1404 C1412 0.950 . S
H1405 C1417 0.950 . S
H1406 C1414 0.950 . S
H1407 C1416 0.950 . S
H1408 C1418 0.950 . S
H1409 C1420 0.950 . S
H1410 C1422 0.950 . S
H1411 C1423 0.950 . S
C1412 H1404 0.950 . S
C1412 C1413 1.386 . S
C1412 C1414 1.391 . S
C1413 C1412 1.386 . S
C1413 C1417 1.393 . S
C1414 H1406 0.950 . S
C1414 C1412 1.391 . S
C1414 C1415 1.400 . S
C1415 C1414 1.400 . S
C1415 C1416 1.398 . S
C1415 C1421 1.491 . S
C1416 H1407 0.950 . S
C1416 C1415 1.398 . S
C1416 C1417 1.391 . S
C1417 H1405 0.950 . S
C1417 C1413 1.393 . S
C1417 C1416 1.391 . S
C1418 H1408 0.950 . S
C1418 C1419 1.386 . S
C1418 C1420 1.391 . S
C1419 C1418 1.386 . S
C1419 C1423 1.393 . S
C1420 H1409 0.950 . S
C1420 C1418 1.391 . S
C1420 C1421 1.400 . S
C1421 C1415 1.491 . S
C1421 C1420 1.400 . S
C1421 C1422 1.398 . S
C1422 H1410 0.950 . S
C1422 C1421 1.398 . S
C1422 C1423 1.391 . S
C1423 H1411 0.950 . S
C1423 C1419 1.393 . S
C1423 C1422 1.391 . S
H1424 C1432 0.950 . S
H1425 C1437 0.950 . S
H1426 C1434 0.950 . S
H1427 C1436 0.950 . S
H1428 C1438 0.950 . S
H1429 C1440 0.950 . S
H1430 C1442 0.950 . S
H1431 C1443 0.950 . S
C1432 H1424 0.950 . S
C1432 C1433 1.386 . S
C1432 C1434 1.391 . S
C1433 C1432 1.386 . S
C1433 C1437 1.393 . S
C1434 H1426 0.950 . S
C1434 C1432 1.391 . S
C1434 C1435 1.400 . S
C1435 C1434 1.400 . S
C1435 C1436 1.398 . S
C1435 C1441 1.491 . S
C1436 H1427 0.950 . S
C1436 C1435 1.398 . S
C1436 C1437 1.391 . S
C1437 H1425 0.950 . S
C1437 C1433 1.393 . S
C1437 C1436 1.391 . S
C1438 H1428 0.950 . S
C1438 C1439 1.386 . S
C1438 C1440 1.391 . S
C1439 C1438 1.386 . S
C1439 C1443 1.393 . S
C1440 H1429 0.950 . S
C1440 C1438 1.391 . S
C1440 C1441 1.400 . S
C1441 C1435 1.491 . S
C1441 C1440 1.400 . S
C1441 C1442 1.398 . S
C1442 H1430 0.950 . S
C1442 C1441 1.398 . S
C1442 C1443 1.391 . S
C1443 H1431 0.950 . S
C1443 C1439 1.393 . S
C1443 C1442 1.391 . S
H1444 C1452 0.950 . S
H1445 C1457 0.950 . S
H1446 C1454 0.950 . S
H1447 C1456 0.950 . S
H1448 C1458 0.950 . S
H1449 C1460 0.950 . S
H1450 C1462 0.950 . S
H1451 C1463 0.950 . S
C1452 H1444 0.950 . S
C1452 C1453 1.386 . S
C1452 C1454 1.391 . S
C1453 C1452 1.386 . S
C1453 C1457 1.393 . S
C1454 H1446 0.950 . S
C1454 C1452 1.391 . S
C1454 C1455 1.400 . S
C1455 C1454 1.400 . S
C1455 C1456 1.398 . S
C1455 C1461 1.491 . S
C1456 H1447 0.950 . S
C1456 C1455 1.398 . S
C1456 C1457 1.391 . S
C1457 H1445 0.950 . S
C1457 C1453 1.393 . S
C1457 C1456 1.391 . S
C1458 H1448 0.950 . S
C1458 C1459 1.386 . S
C1458 C1460 1.391 . S
C1459 C1458 1.386 . S
C1459 C1463 1.393 . S
C1460 H1449 0.950 . S
C1460 C1458 1.391 . S
C1460 C1461 1.400 . S
C1461 C1455 1.491 . S
C1461 C1460 1.400 . S
C1461 C1462 1.398 . S
C1462 H1450 0.950 . S
C1462 C1461 1.398 . S
C1462 C1463 1.391 . S
C1463 H1451 0.950 . S
C1463 C1459 1.393 . S
C1463 C1462 1.391 . S
H1464 C1472 0.950 . S
H1465 C1477 0.950 . S
H1466 C1474 0.950 . S
H1467 C1476 0.950 . S
H1468 C1478 0.950 . S
H1469 C1480 0.950 . S
H1470 C1482 0.950 . S
H1471 C1483 0.950 . S
C1472 H1464 0.950 . S
C1472 C1473 1.386 . S
C1472 C1474 1.391 . S
C1473 C1472 1.386 . S
C1473 C1477 1.393 . S
C1474 H1466 0.950 . S
C1474 C1472 1.391 . S
C1474 C1475 1.400 . S
C1475 C1474 1.400 . S
C1475 C1476 1.398 . S
C1475 C1481 1.491 . S
C1476 H1467 0.950 . S
C1476 C1475 1.398 . S
C1476 C1477 1.391 . S
C1477 H1465 0.950 . S
C1477 C1473 1.393 . S
C1477 C1476 1.391 . S
C1478 H1468 0.950 . S
C1478 C1479 1.386 . S
C1478 C1480 1.391 . S
C1479 C1478 1.386 . S
C1479 C1483 1.393 . S
C1480 H1469 0.950 . S
C1480 C1478 1.391 . S
C1480 C1481 1.400 . S
C1481 C1475 1.491 . S
C1481 C1480 1.400 . S
C1481 C1482 1.398 . S
C1482 H1470 0.950 . S
C1482 C1481 1.398 . S
C1482 C1483 1.391 . S
C1483 H1471 0.950 . S
C1483 C1479 1.393 . S
C1483 C1482 1.391 . S
H1484 C1492 0.950 . S
H1485 C1497 0.950 . S
H1486 C1494 0.950 . S
H1487 C1496 0.950 . S
H1488 C1498 0.950 . S
H1489 C1500 0.950 . S
H1490 C1502 0.950 . S
H1491 C1503 0.950 . S
C1492 H1484 0.950 . S
C1492 C1493 1.386 . S
C1492 C1494 1.391 . S
C1493 C1492 1.386 . S
C1493 C1497 1.393 . S
C1494 H1486 0.950 . S
C1494 C1492 1.391 . S
C1494 C1495 1.400 . S
C1495 C1494 1.400 . S
C1495 C1496 1.398 . S
C1495 C1501 1.491 . S
C1496 H1487 0.950 . S
C1496 C1495 1.398 . S
C1496 C1497 1.391 . S
C1497 H1485 0.950 . S
C1497 C1493 1.393 . S
C1497 C1496 1.391 . S
C1498 H1488 0.950 . S
C1498 C1499 1.386 . S
C1498 C1500 1.391 . S
C1499 C1498 1.386 . S
C1499 C1503 1.393 . S
C1500 H1489 0.950 . S
C1500 C1498 1.391 . S
C1500 C1501 1.400 . S
C1501 C1495 1.491 . S
C1501 C1500 1.400 . S
C1501 C1502 1.398 . S
C1502 H1490 0.950 . S
C1502 C1501 1.398 . S
C1502 C1503 1.391 . S
C1503 H1491 0.950 . S
C1503 C1499 1.393 . S
C1503 C1502 1.391 . S
H1504 C1512 0.950 . S
H1505 C1517 0.950 . S
H1506 C1514 0.950 . S
H1507 C1516 0.950 . S
H1508 C1518 0.950 . S
H1509 C1520 0.950 . S
H1510 C1522 0.950 . S
H1511 C1523 0.950 . S
C1512 H1504 0.950 . S
C1512 C1513 1.386 . S
C1512 C1514 1.391 1_565 S
C1513 C1512 1.386 . S
C1513 C1517 1.393 . S
C1514 H1506 0.950 . S
C1514 C1512 1.391 1_545 S
C1514 C1515 1.400 1_545 S
C1515 C1514 1.400 1_565 S
C1515 C1516 1.398 . S
C1515 C1521 1.491 1_565 S
C1516 H1507 0.950 . S
C1516 C1515 1.398 . S
C1516 C1517 1.391 . S
C1517 H1505 0.950 . S
C1517 C1513 1.393 . S
C1517 C1516 1.391 . S
C1518 H1508 0.950 . S
C1518 C1519 1.386 . S
C1518 C1520 1.391 1_545 S
C1519 C1518 1.386 . S
C1519 C1523 1.393 . S
C1520 H1509 0.950 . S
C1520 C1518 1.391 1_565 S
C1520 C1521 1.400 1_565 S
C1521 C1515 1.491 1_545 S
C1521 C1520 1.400 1_545 S
C1521 C1522 1.398 . S
C1522 H1510 0.950 . S
C1522 C1521 1.398 . S
C1522 C1523 1.391 . S
C1523 H1511 0.950 . S
C1523 C1519 1.393 . S
C1523 C1522 1.391 . S
H1524 C1532 0.950 . S
H1525 C1537 0.950 . S
H1526 C1534 0.950 . S
H1527 C1536 0.950 . S
H1528 C1538 0.950 . S
H1529 C1540 0.950 . S
H1530 C1542 0.950 . S
H1531 C1543 0.950 . S
C1532 H1524 0.950 . S
C1532 C1533 1.386 . S
C1532 C1534 1.391 1_545 S
C1533 C1532 1.386 . S
C1533 C1537 1.393 . S
C1534 H1526 0.950 . S
C1534 C1532 1.391 1_565 S
C1534 C1535 1.400 1_565 S
C1535 C1534 1.400 1_545 S
C1535 C1536 1.398 . S
C1535 C1541 1.491 1_545 S
C1536 H1527 0.950 . S
C1536 C1535 1.398 . S
C1536 C1537 1.391 . S
C1537 H1525 0.950 . S
C1537 C1533 1.393 . S
C1537 C1536 1.391 . S
C1538 H1528 0.950 . S
C1538 C1539 1.386 . S
C1538 C1540 1.391 1_565 S
C1539 C1538 1.386 . S
C1539 C1543 1.393 . S
C1540 H1529 0.950 . S
C1540 C1538 1.391 1_545 S
C1540 C1541 1.400 1_545 S
C1541 C1535 1.491 1_565 S
C1541 C1540 1.400 1_565 S
C1541 C1542 1.398 . S
C1542 H1530 0.950 . S
C1542 C1541 1.398 . S
C1542 C1543 1.391 . S
C1543 H1531 0.950 . S
C1543 C1539 1.393 . S
C1543 C1542 1.391 . S
H1544 C1552 0.950 . S
H1545 C1557 0.948 1_565 S
H1546 C1554 0.950 . S
H1547 C1556 0.950 . S
H1548 C1558 0.950 . S
H1549 C1560 0.950 . S
H1550 C1562 0.950 . S
H1551 C1563 0.948 1_545 S
C1552 H1544 0.950 . S
C1552 C1553 1.386 . S
C1552 C1554 1.391 . S
C1553 C1552 1.386 . S
C1553 C1557 1.393 . S
C1554 H1546 0.950 . S
C1554 C1552 1.391 . S
C1554 C1555 1.400 . S
C1555 C1554 1.400 . S
C1555 C1556 1.398 1_545 S
C1555 C1561 1.491 1_545 S
C1556 H1547 0.950 . S
C1556 C1555 1.398 1_565 S
C1556 C1557 1.391 1_565 S
C1557 H1545 0.948 1_545 S
C1557 C1553 1.393 . S
C1557 C1556 1.391 1_545 S
C1558 H1548 0.950 . S
C1558 C1559 1.386 . S
C1558 C1560 1.391 . S
C1559 C1558 1.386 . S
C1559 C1563 1.393 . S
C1560 H1549 0.950 . S
C1560 C1558 1.391 . S
C1560 C1561 1.400 . S
C1561 C1555 1.491 1_565 S
C1561 C1560 1.400 . S
C1561 C1562 1.398 1_565 S
C1562 H1550 0.950 . S
C1562 C1561 1.398 1_545 S
C1562 C1563 1.391 1_545 S
C1563 H1551 0.948 1_565 S
C1563 C1559 1.393 . S
C1563 C1562 1.391 1_565 S
H1564 C1572 0.950 . S
H1565 C1577 0.950 . S
H1566 C1574 0.950 . S
H1567 C1576 0.950 . S
H1568 C1578 0.950 . S
H1569 C1580 0.950 . S
H1570 C1582 0.950 . S
H1571 C1583 0.950 . S
C1572 H1564 0.950 . S
C1572 C1573 1.386 . S
C1572 C1574 1.391 . S
C1573 C1572 1.386 . S
C1573 C1577 1.393 . S
C1574 H1566 0.950 . S
C1574 C1572 1.391 . S
C1574 C1575 1.400 . S
C1575 C1574 1.400 . S
C1575 C1576 1.398 . S
C1575 C1581 1.491 1_545 S
C1576 H1567 0.950 . S
C1576 C1575 1.398 . S
C1576 C1577 1.391 . S
C1577 H1565 0.950 . S
C1577 C1573 1.393 . S
C1577 C1576 1.391 . S
C1578 H1568 0.950 . S
C1578 C1579 1.386 . S
C1578 C1580 1.391 . S
C1579 C1578 1.386 . S
C1579 C1583 1.393 . S
C1580 H1569 0.950 . S
C1580 C1578 1.391 . S
C1580 C1581 1.400 . S
C1581 C1575 1.491 1_565 S
C1581 C1580 1.400 . S
C1581 C1582 1.398 . S
C1582 H1570 0.950 . S
C1582 C1581 1.398 . S
C1582 C1583 1.391 . S
C1583 H1571 0.950 . S
C1583 C1579 1.393 . S
C1583 C1582 1.391 . S
H1584 C1592 0.950 . S
H1585 C1597 0.950 . S
H1586 C1594 0.950 . S
H1587 C1596 0.950 . S
H1588 C1598 0.950 . S
H1589 C1600 0.950 . S
H1590 C1602 0.950 . S
H1591 C1603 0.950 . S
C1592 H1584 0.950 . S
C1592 C1593 1.386 . S
C1592 C1594 1.391 . S
C1593 C1592 1.386 . S
C1593 C1597 1.393 . S
C1594 H1586 0.950 . S
C1594 C1592 1.391 . S
C1594 C1595 1.400 . S
C1595 C1594 1.400 . S
C1595 C1596 1.398 . S
C1595 C1601 1.491 . S
C1596 H1587 0.950 . S
C1596 C1595 1.398 . S
C1596 C1597 1.391 . S
C1597 H1585 0.950 . S
C1597 C1593 1.393 . S
C1597 C1596 1.391 . S
C1598 H1588 0.950 . S
C1598 C1599 1.386 . S
C1598 C1600 1.391 . S
C1599 C1598 1.386 . S
C1599 C1603 1.393 . S
C1600 H1589 0.950 . S
C1600 C1598 1.391 . S
C1600 C1601 1.400 . S
C1601 C1595 1.491 . S
C1601 C1600 1.400 . S
C1601 C1602 1.398 . S
C1602 H1590 0.950 . S
C1602 C1601 1.398 . S
C1602 C1603 1.391 . S
C1603 H1591 0.950 . S
C1603 C1599 1.393 . S
C1603 C1602 1.391 . S
H1604 C1612 0.950 . S
H1605 C1617 0.950 . S
H1606 C1614 0.950 . S
H1607 C1616 0.950 . S
H1608 C1618 0.950 . S
H1609 C1620 0.950 . S
H1610 C1622 0.950 . S
H1611 C1623 0.950 . S
C1612 H1604 0.950 . S
C1612 C1613 1.386 . S
C1612 C1614 1.391 . S
C1613 C1612 1.386 . S
C1613 C1617 1.393 . S
C1614 H1606 0.950 . S
C1614 C1612 1.391 . S
C1614 C1615 1.400 . S
C1615 C1614 1.400 . S
C1615 C1616 1.398 . S
C1615 C1621 1.491 . S
C1616 H1607 0.950 . S
C1616 C1615 1.398 . S
C1616 C1617 1.391 . S
C1617 H1605 0.950 . S
C1617 C1613 1.393 . S
C1617 C1616 1.391 . S
C1618 H1608 0.950 . S
C1618 C1619 1.386 . S
C1618 C1620 1.391 . S
C1619 C1618 1.386 . S
C1619 C1623 1.393 . S
C1620 H1609 0.950 . S
C1620 C1618 1.391 . S
C1620 C1621 1.400 . S
C1621 C1615 1.491 . S
C1621 C1620 1.400 . S
C1621 C1622 1.398 . S
C1622 H1610 0.950 . S
C1622 C1621 1.398 . S
C1622 C1623 1.391 . S
C1623 H1611 0.950 . S
C1623 C1619 1.393 . S
C1623 C1622 1.391 . S
H1624 C1632 0.950 . S
H1625 C1637 0.950 . S
H1626 C1634 0.950 . S
H1627 C1636 0.950 . S
H1628 C1638 0.950 . S
H1629 C1640 0.950 . S
H1630 C1642 0.950 . S
H1631 C1643 0.950 . S
C1632 H1624 0.950 . S
C1632 C1633 1.386 . S
C1632 C1634 1.391 . S
C1633 C1632 1.386 . S
C1633 C1637 1.393 . S
C1634 H1626 0.950 . S
C1634 C1632 1.391 . S
C1634 C1635 1.400 . S
C1635 C1634 1.400 . S
C1635 C1636 1.398 . S
C1635 C1641 1.491 . S
C1636 H1627 0.950 . S
C1636 C1635 1.398 . S
C1636 C1637 1.391 . S
C1637 H1625 0.950 . S
C1637 C1633 1.393 . S
C1637 C1636 1.391 . S
C1638 H1628 0.950 . S
C1638 C1639 1.386 . S
C1638 C1640 1.391 . S
C1639 C1638 1.386 . S
C1639 C1643 1.393 . S
C1640 H1629 0.950 . S
C1640 C1638 1.391 . S
C1640 C1641 1.400 . S
C1641 C1635 1.491 . S
C1641 C1640 1.400 . S
C1641 C1642 1.398 . S
C1642 H1630 0.950 . S
C1642 C1641 1.398 . S
C1642 C1643 1.391 . S
C1643 H1631 0.950 . S
C1643 C1639 1.393 . S
C1643 C1642 1.391 . S
H1644 C1652 0.950 . S
H1645 C1657 0.950 . S
H1646 C1654 0.950 . S
H1647 C1656 0.950 . S
H1648 C1658 0.950 . S
H1649 C1660 0.950 . S
H1650 C1662 0.950 . S
H1651 C1663 0.950 . S
C1652 H1644 0.950 . S
C1652 C1653 1.386 . S
C1652 C1654 1.391 . S
C1653 C1652 1.386 . S
C1653 C1657 1.393 . S
C1654 H1646 0.950 . S
C1654 C1652 1.391 . S
C1654 C1655 1.400 . S
C1655 C1654 1.400 . S
C1655 C1656 1.398 . S
C1655 C1661 1.491 . S
C1656 H1647 0.950 . S
C1656 C1655 1.398 . S
C1656 C1657 1.391 . S
C1657 H1645 0.950 . S
C1657 C1653 1.393 . S
C1657 C1656 1.391 . S
C1658 H1648 0.950 . S
C1658 C1659 1.386 . S
C1658 C1660 1.391 . S
C1659 C1658 1.386 . S
C1659 C1663 1.393 . S
C1660 H1649 0.950 . S
C1660 C1658 1.391 . S
C1660 C1661 1.400 . S
C1661 C1655 1.491 . S
C1661 C1660 1.400 . S
C1661 C1662 1.398 . S
C1662 H1650 0.950 . S
C1662 C1661 1.398 . S
C1662 C1663 1.391 . S
C1663 H1651 0.950 . S
C1663 C1659 1.393 . S
C1663 C1662 1.391 . S
H1664 C1672 0.950 . S
H1665 C1677 0.950 . S
H1666 C1674 0.950 . S
H1667 C1676 0.950 . S
H1668 C1678 0.950 . S
H1669 C1680 0.950 . S
H1670 C1682 0.950 . S
H1671 C1683 0.950 . S
C1672 H1664 0.950 . S
C1672 C1673 1.386 . S
C1672 C1674 1.391 . S
C1673 C1672 1.386 . S
C1673 C1677 1.393 . S
C1674 H1666 0.950 . S
C1674 C1672 1.391 . S
C1674 C1675 1.400 . S
C1675 C1674 1.400 . S
C1675 C1676 1.398 . S
C1675 C1681 1.491 1_556 S
C1676 H1667 0.950 . S
C1676 C1675 1.398 . S
C1676 C1677 1.391 . S
C1677 H1665 0.950 . S
C1677 C1673 1.393 . S
C1677 C1676 1.391 . S
C1678 H1668 0.950 . S
C1678 C1679 1.386 . S
C1678 C1680 1.391 . S
C1679 C1678 1.386 . S
C1679 C1683 1.393 . S
C1680 H1669 0.950 . S
C1680 C1678 1.391 . S
C1680 C1681 1.400 . S
C1681 C1675 1.491 1_554 S
C1681 C1680 1.400 . S
C1681 C1682 1.398 . S
C1682 H1670 0.950 . S
C1682 C1681 1.398 . S
C1682 C1683 1.391 . S
C1683 H1671 0.950 . S
C1683 C1679 1.393 . S
C1683 C1682 1.391 . S
H1684 C1692 0.950 . S
H1685 C1697 0.950 . S
H1686 C1694 0.950 . S
H1687 C1696 0.950 . S
H1688 C1698 0.950 . S
H1689 C1700 0.950 . S
H1690 C1702 0.950 . S
H1691 C1703 0.950 . S
C1692 H1684 0.950 . S
C1692 C1693 1.386 . S
C1692 C1694 1.391 . S
C1693 C1692 1.386 . S
C1693 C1697 1.393 . S
C1694 H1686 0.950 . S
C1694 C1692 1.391 . S
C1694 C1695 1.400 . S
C1695 C1694 1.400 . S
C1695 C1696 1.398 . S
C1695 C1701 1.491 1_556 S
C1696 H1687 0.950 . S
C1696 C1695 1.398 . S
C1696 C1697 1.391 . S
C1697 H1685 0.950 . S
C1697 C1693 1.393 . S
C1697 C1696 1.391 . S
C1698 H1688 0.950 . S
C1698 C1699 1.386 . S
C1698 C1700 1.391 . S
C1699 C1698 1.386 . S
C1699 C1703 1.393 . S
C1700 H1689 0.950 . S
C1700 C1698 1.391 . S
C1700 C1701 1.400 . S
C1701 C1695 1.491 1_554 S
C1701 C1700 1.400 . S
C1701 C1702 1.398 . S
C1702 H1690 0.950 . S
C1702 C1701 1.398 . S
C1702 C1703 1.391 . S
C1703 H1691 0.950 . S
C1703 C1699 1.393 . S
C1703 C1702 1.391 . S
H1704 C1712 0.950 . S
H1705 C1717 0.950 . S
H1706 C1714 0.950 . S
H1707 C1716 0.950 . S
H1708 C1718 0.950 . S
H1709 C1720 0.950 . S
H1710 C1722 0.950 . S
H1711 C1723 0.950 . S
C1712 H1704 0.950 . S
C1712 C1713 1.386 . S
C1712 C1714 1.391 . S
C1713 C1712 1.386 . S
C1713 C1717 1.393 . S
C1714 H1706 0.950 . S
C1714 C1712 1.391 . S
C1714 C1715 1.400 . S
C1715 C1714 1.400 . S
C1715 C1716 1.398 . S
C1715 C1721 1.491 . S
C1716 H1707 0.950 . S
C1716 C1715 1.398 . S
C1716 C1717 1.391 . S
C1717 H1705 0.950 . S
C1717 C1713 1.393 . S
C1717 C1716 1.391 . S
C1718 H1708 0.950 . S
C1718 C1719 1.386 . S
C1718 C1720 1.391 . S
C1719 C1718 1.386 . S
C1719 C1723 1.393 . S
C1720 H1709 0.950 . S
C1720 C1718 1.391 . S
C1720 C1721 1.400 . S
C1721 C1715 1.491 . S
C1721 C1720 1.400 . S
C1721 C1722 1.398 . S
C1722 H1710 0.950 . S
C1722 C1721 1.398 . S
C1722 C1723 1.391 . S
C1723 H1711 0.950 . S
C1723 C1719 1.393 . S
C1723 C1722 1.391 . S
H1724 C1732 0.950 . S
H1725 C1737 0.950 . S
H1726 C1734 0.950 . S
H1727 C1736 0.950 . S
H1728 C1738 0.950 . S
H1729 C1740 0.950 . S
H1730 C1742 0.950 . S
H1731 C1743 0.950 . S
C1732 H1724 0.950 . S
C1732 C1733 1.386 . S
C1732 C1734 1.391 . S
C1733 C1732 1.386 . S
C1733 C1737 1.393 . S
C1734 H1726 0.950 . S
C1734 C1732 1.391 . S
C1734 C1735 1.400 . S
C1735 C1734 1.400 . S
C1735 C1736 1.398 . S
C1735 C1741 1.491 . S
C1736 H1727 0.950 . S
C1736 C1735 1.398 . S
C1736 C1737 1.391 . S
C1737 H1725 0.950 . S
C1737 C1733 1.393 . S
C1737 C1736 1.391 . S
C1738 H1728 0.950 . S
C1738 C1739 1.386 . S
C1738 C1740 1.391 . S
C1739 C1738 1.386 . S
C1739 C1743 1.393 . S
C1740 H1729 0.950 . S
C1740 C1738 1.391 . S
C1740 C1741 1.400 . S
C1741 C1735 1.491 . S
C1741 C1740 1.400 . S
C1741 C1742 1.398 . S
C1742 H1730 0.950 . S
C1742 C1741 1.398 . S
C1742 C1743 1.391 . S
C1743 H1731 0.950 . S
C1743 C1739 1.393 . S
C1743 C1742 1.391 . S
H1744 C1752 0.950 . S
H1745 C1757 0.950 . S
H1746 C1754 0.950 . S
H1747 C1756 0.950 . S
H1748 C1758 0.950 . S
H1749 C1760 0.950 . S
H1750 C1762 0.950 . S
H1751 C1763 0.950 . S
C1752 H1744 0.950 . S
C1752 C1753 1.386 . S
C1752 C1754 1.391 . S
C1753 C1752 1.386 . S
C1753 C1757 1.393 . S
C1754 H1746 0.950 . S
C1754 C1752 1.391 . S
C1754 C1755 1.400 . S
C1755 C1754 1.400 . S
C1755 C1756 1.398 . S
C1755 C1761 1.491 1_554 S
C1756 H1747 0.950 . S
C1756 C1755 1.398 . S
C1756 C1757 1.391 . S
C1757 H1745 0.950 . S
C1757 C1753 1.393 . S
C1757 C1756 1.391 . S
C1758 H1748 0.950 . S
C1758 C1759 1.386 . S
C1758 C1760 1.391 . S
C1759 C1758 1.386 . S
C1759 C1763 1.393 . S
C1760 H1749 0.950 . S
C1760 C1758 1.391 . S
C1760 C1761 1.400 . S
C1761 C1755 1.491 1_556 S
C1761 C1760 1.400 . S
C1761 C1762 1.398 . S
C1762 H1750 0.950 . S
C1762 C1761 1.398 . S
C1762 C1763 1.391 . S
C1763 H1751 0.950 . S
C1763 C1759 1.393 . S
C1763 C1762 1.391 . S
H1764 C1772 0.950 . S
H1765 C1777 0.950 . S
H1766 C1774 0.950 . S
H1767 C1776 0.950 . S
H1768 C1778 0.950 . S
H1769 C1780 0.950 . S
H1770 C1782 0.950 . S
H1771 C1783 0.950 . S
C1772 H1764 0.950 . S
C1772 C1773 1.386 . S
C1772 C1774 1.391 . S
C1773 C1772 1.386 . S
C1773 C1777 1.393 . S
C1774 H1766 0.950 . S
C1774 C1772 1.391 . S
C1774 C1775 1.400 . S
C1775 C1774 1.400 . S
C1775 C1776 1.398 . S
C1775 C1781 1.491 1_556 S
C1776 H1767 0.950 . S
C1776 C1775 1.398 . S
C1776 C1777 1.391 . S
C1777 H1765 0.950 . S
C1777 C1773 1.393 . S
C1777 C1776 1.391 . S
C1778 H1768 0.950 . S
C1778 C1779 1.386 . S
C1778 C1780 1.391 . S
C1779 C1778 1.386 . S
C1779 C1783 1.393 . S
C1780 H1769 0.950 . S
C1780 C1778 1.391 . S
C1780 C1781 1.400 . S
C1781 C1775 1.491 1_554 S
C1781 C1780 1.400 . S
C1781 C1782 1.398 . S
C1782 H1770 0.950 . S
C1782 C1781 1.398 . S
C1782 C1783 1.391 . S
C1783 H1771 0.950 . S
C1783 C1779 1.393 . S
C1783 C1782 1.391 . S
H1784 C1792 0.950 . S
H1785 C1797 0.950 . S
H1786 C1794 0.950 . S
H1787 C1796 0.950 . S
H1788 C1798 0.950 . S
H1789 C1800 0.950 . S
H1790 C1802 0.950 . S
H1791 C1803 0.950 . S
C1792 H1784 0.950 . S
C1792 C1793 1.386 . S
C1792 C1794 1.391 . S
C1793 C1792 1.386 . S
C1793 C1797 1.393 . S
C1794 H1786 0.950 . S
C1794 C1792 1.391 . S
C1794 C1795 1.400 . S
C1795 C1794 1.400 . S
C1795 C1796 1.398 . S
C1795 C1801 1.491 . S
C1796 H1787 0.950 . S
C1796 C1795 1.398 . S
C1796 C1797 1.391 . S
C1797 H1785 0.950 . S
C1797 C1793 1.393 . S
C1797 C1796 1.391 . S
C1798 H1788 0.950 . S
C1798 C1799 1.386 . S
C1798 C1800 1.391 . S
C1799 C1798 1.386 . S
C1799 C1803 1.393 . S
C1800 H1789 0.950 . S
C1800 C1798 1.391 . S
C1800 C1801 1.400 . S
C1801 C1795 1.491 . S
C1801 C1800 1.400 . S
C1801 C1802 1.398 . S
C1802 H1790 0.950 . S
C1802 C1801 1.398 . S
C1802 C1803 1.391 . S
C1803 H1791 0.950 . S
C1803 C1799 1.393 . S
C1803 C1802 1.391 . S
H1804 C1812 0.950 . S
H1805 C1817 0.950 . S
H1806 C1814 0.950 . S
H1807 C1816 0.950 . S
H1808 C1818 0.950 . S
H1809 C1820 0.950 . S
H1810 C1822 0.950 . S
H1811 C1823 0.950 . S
C1812 H1804 0.950 . S
C1812 C1813 1.386 . S
C1812 C1814 1.391 . S
C1813 C1812 1.386 . S
C1813 C1817 1.393 . S
C1814 H1806 0.950 . S
C1814 C1812 1.391 . S
C1814 C1815 1.400 . S
C1815 C1814 1.400 . S
C1815 C1816 1.398 . S
C1815 C1821 1.491 . S
C1816 H1807 0.950 . S
C1816 C1815 1.398 . S
C1816 C1817 1.391 . S
C1817 H1805 0.950 . S
C1817 C1813 1.393 . S
C1817 C1816 1.391 . S
C1818 H1808 0.950 . S
C1818 C1819 1.386 . S
C1818 C1820 1.391 . S
C1819 C1818 1.386 . S
C1819 C1823 1.393 . S
C1820 H1809 0.950 . S
C1820 C1818 1.391 . S
C1820 C1821 1.400 . S
C1821 C1815 1.491 . S
C1821 C1820 1.400 . S
C1821 C1822 1.398 . S
C1822 H1810 0.950 . S
C1822 C1821 1.398 . S
C1822 C1823 1.391 . S
C1823 H1811 0.950 . S
C1823 C1819 1.393 . S
C1823 C1822 1.391 . S
H1824 C1832 0.950 . S
H1825 C1837 0.950 1_545 S
H1826 C1834 0.950 . S
H1827 C1836 0.950 . S
H1828 C1838 0.950 . S
H1829 C1840 0.950 . S
H1830 C1842 0.950 . S
H1831 C1843 0.950 1_565 S
C1832 H1824 0.950 . S
C1832 C1833 1.386 . S
C1832 C1834 1.391 . S
C1833 C1832 1.386 . S
C1833 C1837 1.393 . S
C1834 H1826 0.950 . S
C1834 C1832 1.391 . S
C1834 C1835 1.400 . S
C1835 C1834 1.400 . S
C1835 C1836 1.398 1_565 S
C1835 C1841 1.491 1_665 S
C1836 H1827 0.950 . S
C1836 C1835 1.398 1_545 S
C1836 C1837 1.391 1_545 S
C1837 H1825 0.950 1_565 S
C1837 C1833 1.393 . S
C1837 C1836 1.391 1_565 S
C1838 H1828 0.950 . S
C1838 C1839 1.386 . S
C1838 C1840 1.391 . S
C1839 C1838 1.386 . S
C1839 C1843 1.393 . S
C1840 H1829 0.950 . S
C1840 C1838 1.391 . S
C1840 C1841 1.400 . S
C1841 C1835 1.491 1_445 S
C1841 C1840 1.400 . S
C1841 C1842 1.398 1_545 S
C1842 H1830 0.950 . S
C1842 C1841 1.398 1_565 S
C1842 C1843 1.391 1_565 S
C1843 H1831 0.950 1_545 S
C1843 C1839 1.393 . S
C1843 C1842 1.391 1_545 S
H1844 C1852 0.950 . S
H1845 C1857 0.950 . S
H1846 C1854 0.950 . S
H1847 C1856 0.950 . S
H1848 C1858 0.950 . S
H1849 C1860 0.950 . S
H1850 C1862 0.950 . S
H1851 C1863 0.950 . S
C1852 H1844 0.950 . S
C1852 C1853 1.386 . S
C1852 C1854 1.391 . S
C1853 C1852 1.386 . S
C1853 C1857 1.393 . S
C1854 H1846 0.950 . S
C1854 C1852 1.391 . S
C1854 C1855 1.400 . S
C1855 C1854 1.400 . S
C1855 C1856 1.398 . S
C1855 C1861 1.491 1_645 S
C1856 H1847 0.950 . S
C1856 C1855 1.398 . S
C1856 C1857 1.391 . S
C1857 H1845 0.950 . S
C1857 C1853 1.393 . S
C1857 C1856 1.391 . S
C1858 H1848 0.950 . S
C1858 C1859 1.386 . S
C1858 C1860 1.391 . S
C1859 C1858 1.386 . S
C1859 C1863 1.393 . S
C1860 H1849 0.950 . S
C1860 C1858 1.391 . S
C1860 C1861 1.400 . S
C1861 C1855 1.491 1_465 S
C1861 C1860 1.400 . S
C1861 C1862 1.398 . S
C1862 H1850 0.950 . S
C1862 C1861 1.398 . S
C1862 C1863 1.391 . S
C1863 H1851 0.950 . S
C1863 C1859 1.393 . S
C1863 C1862 1.391 . S
H1864 C1872 0.950 . S
H1865 C1877 0.950 . S
H1866 C1874 0.950 . S
H1867 C1876 0.950 1_565 S
H1868 C1878 0.950 . S
H1869 C1880 0.950 . S
H1870 C1882 0.950 1_545 S
H1871 C1883 0.950 . S
C1872 H1864 0.950 . S
C1872 C1873 1.386 . S
C1872 C1874 1.391 . S
C1873 C1872 1.386 . S
C1873 C1877 1.393 . S
C1874 H1866 0.950 . S
C1874 C1872 1.391 . S
C1874 C1875 1.400 . S
C1875 C1874 1.400 . S
C1875 C1876 1.398 . S
C1875 C1881 1.491 1_445 S
C1876 H1867 0.950 1_545 S
C1876 C1875 1.398 . S
C1876 C1877 1.391 . S
C1877 H1865 0.950 . S
C1877 C1873 1.393 . S
C1877 C1876 1.391 . S
C1878 H1868 0.950 . S
C1878 C1879 1.386 . S
C1878 C1880 1.391 . S
C1879 C1878 1.386 . S
C1879 C1883 1.393 . S
C1880 H1869 0.950 . S
C1880 C1878 1.391 . S
C1880 C1881 1.400 . S
C1881 C1875 1.491 1_665 S
C1881 C1880 1.400 . S
C1881 C1882 1.398 . S
C1882 H1870 0.950 1_565 S
C1882 C1881 1.398 . S
C1882 C1883 1.391 . S
C1883 H1871 0.950 . S
C1883 C1879 1.393 . S
C1883 C1882 1.391 . S
H1884 C1892 0.950 . S
H1885 C1897 0.950 1_565 S
H1886 C1894 0.950 . S
H1887 C1896 0.950 . S
H1888 C1898 0.950 . S
H1889 C1900 0.950 . S
H1890 C1902 0.950 . S
H1891 C1903 0.950 1_545 S
C1892 H1884 0.950 . S
C1892 C1893 1.386 . S
C1892 C1894 1.391 . S
C1893 C1892 1.386 . S
C1893 C1897 1.393 . S
C1894 H1886 0.950 . S
C1894 C1892 1.391 . S
C1894 C1895 1.400 . S
C1895 C1894 1.400 . S
C1895 C1896 1.398 1_545 S
C1895 C1901 1.491 1_645 S
C1896 H1887 0.950 . S
C1896 C1895 1.398 1_565 S
C1896 C1897 1.391 1_565 S
C1897 H1885 0.950 1_545 S
C1897 C1893 1.393 . S
C1897 C1896 1.391 1_545 S
C1898 H1888 0.950 . S
C1898 C1899 1.386 . S
C1898 C1900 1.391 . S
C1899 C1898 1.386 . S
C1899 C1903 1.393 . S
C1900 H1889 0.950 . S
C1900 C1898 1.391 . S
C1900 C1901 1.400 . S
C1901 C1895 1.491 1_465 S
C1901 C1900 1.400 . S
C1901 C1902 1.398 1_565 S
C1902 H1890 0.950 . S
C1902 C1901 1.398 1_545 S
C1902 C1903 1.391 1_545 S
C1903 H1891 0.950 1_565 S
C1903 C1899 1.393 . S
C1903 C1902 1.391 1_565 S
H1904 C1912 0.950 . S
H1905 C1917 0.950 . S
H1906 C1914 0.950 . S
H1907 C1916 0.950 . S
H1908 C1918 0.950 . S
H1909 C1920 0.950 . S
H1910 C1922 0.950 . S
H1911 C1923 0.950 . S
C1912 H1904 0.950 . S
C1912 C1913 1.386 . S
C1912 C1914 1.391 . S
C1913 C1912 1.386 . S
C1913 C1917 1.393 . S
C1914 H1906 0.950 . S
C1914 C1912 1.391 . S
C1914 C1915 1.400 . S
C1915 C1914 1.400 . S
C1915 C1916 1.398 . S
C1915 C1921 1.491 . S
C1916 H1907 0.950 . S
C1916 C1915 1.398 . S
C1916 C1917 1.391 . S
C1917 H1905 0.950 . S
C1917 C1913 1.393 . S
C1917 C1916 1.391 . S
C1918 H1908 0.950 . S
C1918 C1919 1.386 . S
C1918 C1920 1.391 . S
C1919 C1918 1.386 . S
C1919 C1923 1.393 . S
C1920 H1909 0.950 . S
C1920 C1918 1.391 . S
C1920 C1921 1.400 . S
C1921 C1915 1.491 . S
C1921 C1920 1.400 . S
C1921 C1922 1.398 . S
C1922 H1910 0.950 . S
C1922 C1921 1.398 . S
C1922 C1923 1.391 . S
C1923 H1911 0.950 . S
C1923 C1919 1.393 . S
C1923 C1922 1.391 . S
H1924 C1932 0.950 . S
H1925 C1937 0.950 . S
H1926 C1934 0.950 . S
H1927 C1936 0.950 . S
H1928 C1938 0.950 . S
H1929 C1940 0.950 . S
H1930 C1942 0.950 . S
H1931 C1943 0.950 . S
C1932 H1924 0.950 . S
C1932 C1933 1.386 . S
C1932 C1934 1.391 . S
C1933 C1932 1.386 . S
C1933 C1937 1.393 . S
C1934 H1926 0.950 . S
C1934 C1932 1.391 . S
C1934 C1935 1.400 . S
C1935 C1934 1.400 . S
C1935 C1936 1.398 . S
C1935 C1941 1.491 . S
C1936 H1927 0.950 . S
C1936 C1935 1.398 . S
C1936 C1937 1.391 . S
C1937 H1925 0.950 . S
C1937 C1933 1.393 . S
C1937 C1936 1.391 . S
C1938 H1928 0.950 . S
C1938 C1939 1.386 . S
C1938 C1940 1.391 . S
C1939 C1938 1.386 . S
C1939 C1943 1.393 . S
C1940 H1929 0.950 . S
C1940 C1938 1.391 . S
C1940 C1941 1.400 . S
C1941 C1935 1.491 . S
C1941 C1940 1.400 . S
C1941 C1942 1.398 . S
C1942 H1930 0.950 . S
C1942 C1941 1.398 . S
C1942 C1943 1.391 . S
C1943 H1931 0.950 . S
C1943 C1939 1.393 . S
C1943 C1942 1.391 . S
H1944 C1952 0.950 . S
H1945 C1957 0.950 . S
H1946 C1954 0.950 . S
H1947 C1956 0.950 . S
H1948 C1958 0.950 . S
H1949 C1960 0.950 . S
H1950 C1962 0.950 . S
H1951 C1963 0.950 . S
C1952 H1944 0.950 . S
C1952 C1953 1.386 . S
C1952 C1954 1.391 . S
C1953 C1952 1.386 . S
C1953 C1957 1.393 . S
C1954 H1946 0.950 . S
C1954 C1952 1.391 . S
C1954 C1955 1.400 . S
C1955 C1954 1.400 . S
C1955 C1956 1.398 . S
C1955 C1961 1.491 . S
C1956 H1947 0.950 . S
C1956 C1955 1.398 . S
C1956 C1957 1.391 . S
C1957 H1945 0.950 . S
C1957 C1953 1.393 . S
C1957 C1956 1.391 . S
C1958 H1948 0.950 . S
C1958 C1959 1.386 . S
C1958 C1960 1.391 . S
C1959 C1958 1.386 . S
C1959 C1963 1.393 . S
C1960 H1949 0.950 . S
C1960 C1958 1.391 . S
C1960 C1961 1.400 . S
C1961 C1955 1.491 . S
C1961 C1960 1.400 . S
C1961 C1962 1.398 . S
C1962 H1950 0.950 . S
C1962 C1961 1.398 . S
C1962 C1963 1.391 . S
C1963 H1951 0.950 . S
C1963 C1959 1.393 . S
C1963 C1962 1.391 . S
H1964 C1972 0.950 . S
H1965 C1977 0.950 . S
H1966 C1974 0.950 . S
H1967 C1976 0.950 . S
H1968 C1978 0.950 . S
H1969 C1980 0.950 . S
H1970 C1982 0.950 . S
H1971 C1983 0.950 . S
C1972 H1964 0.950 . S
C1972 C1973 1.386 . S
C1972 C1974 1.391 . S
C1973 C1972 1.386 . S
C1973 C1977 1.393 . S
C1974 H1966 0.950 . S
C1974 C1972 1.391 . S
C1974 C1975 1.400 . S
C1975 C1974 1.400 . S
C1975 C1976 1.398 . S
C1975 C1981 1.491 . S
C1976 H1967 0.950 . S
C1976 C1975 1.398 . S
C1976 C1977 1.391 . S
C1977 H1965 0.950 . S
C1977 C1973 1.393 . S
C1977 C1976 1.391 . S
C1978 H1968 0.950 . S
C1978 C1979 1.386 . S
C1978 C1980 1.391 . S
C1979 C1978 1.386 . S
C1979 C1983 1.393 . S
C1980 H1969 0.950 . S
C1980 C1978 1.391 . S
C1980 C1981 1.400 . S
C1981 C1975 1.491 . S
C1981 C1980 1.400 . S
C1981 C1982 1.398 . S
C1982 H1970 0.950 . S
C1982 C1981 1.398 . S
C1982 C1983 1.391 . S
C1983 H1971 0.950 . S
C1983 C1979 1.393 . S
C1983 C1982 1.391 . S
H1984 C1992 0.950 . S
H1985 C1997 0.950 . S
H1986 C1994 0.950 . S
H1987 C1996 0.950 . S
H1988 C1998 0.950 . S
H1989 C2000 0.950 . S
H1990 C2002 0.950 . S
H1991 C2003 0.950 . S
C1992 H1984 0.950 . S
C1992 C1993 1.386 . S
C1992 C1994 1.391 . S
C1993 C1992 1.386 . S
C1993 C1997 1.393 . S
C1994 H1986 0.950 . S
C1994 C1992 1.391 . S
C1994 C1995 1.400 . S
C1995 C1994 1.400 . S
C1995 C1996 1.398 . S
C1995 C2001 1.491 . S
C1996 H1987 0.950 . S
C1996 C1995 1.398 . S
C1996 C1997 1.391 . S
C1997 H1985 0.950 . S
C1997 C1993 1.393 . S
C1997 C1996 1.391 . S
C1998 H1988 0.950 . S
C1998 C1999 1.386 . S
C1998 C2000 1.391 . S
C1999 C1998 1.386 . S
C1999 C2003 1.393 . S
C2000 H1989 0.950 . S
C2000 C1998 1.391 . S
C2000 C2001 1.400 . S
C2001 C1995 1.491 . S
C2001 C2000 1.400 . S
C2001 C2002 1.398 . S
C2002 H1990 0.950 . S
C2002 C2001 1.398 . S
C2002 C2003 1.391 . S
C2003 H1991 0.950 . S
C2003 C1999 1.393 . S
C2003 C2002 1.391 . S
H2004 C2012 0.950 . S
H2005 C2017 0.950 . S
H2006 C2014 0.950 . S
H2007 C2016 0.950 . S
H2008 C2018 0.950 . S
H2009 C2020 0.950 . S
H2010 C2022 0.950 . S
H2011 C2023 0.950 . S
C2012 H2004 0.950 . S
C2012 C2013 1.386 . S
C2012 C2014 1.391 . S
C2013 C2012 1.386 . S
C2013 C2017 1.393 . S
C2014 H2006 0.950 . S
C2014 C2012 1.391 . S
C2014 C2015 1.400 . S
C2015 C2014 1.400 . S
C2015 C2016 1.398 . S
C2015 C2021 1.491 . S
C2016 H2007 0.950 . S
C2016 C2015 1.398 . S
C2016 C2017 1.391 . S
C2017 H2005 0.950 . S
C2017 C2013 1.393 . S
C2017 C2016 1.391 . S
C2018 H2008 0.950 . S
C2018 C2019 1.386 . S
C2018 C2020 1.391 . S
C2019 C2018 1.386 . S
C2019 C2023 1.393 . S
C2020 H2009 0.950 . S
C2020 C2018 1.391 . S
C2020 C2021 1.400 . S
C2021 C2015 1.491 . S
C2021 C2020 1.400 . S
C2021 C2022 1.398 . S
C2022 H2010 0.950 . S
C2022 C2021 1.398 . S
C2022 C2023 1.391 . S
C2023 H2011 0.950 . S
C2023 C2019 1.393 . S
C2023 C2022 1.391 . S
H2024 C2032 0.950 . S
H2025 C2037 0.950 . S
H2026 C2034 0.950 . S
H2027 C2036 0.950 . S
H2028 C2038 0.950 . S
H2029 C2040 0.950 . S
H2030 C2042 0.950 . S
H2031 C2043 0.950 . S
C2032 H2024 0.950 . S
C2032 C2033 1.386 . S
C2032 C2034 1.391 . S
C2033 C2032 1.386 . S
C2033 C2037 1.393 . S
C2034 H2026 0.950 . S
C2034 C2032 1.391 . S
C2034 C2035 1.400 . S
C2035 C2034 1.400 . S
C2035 C2036 1.398 . S
C2035 C2041 1.491 . S
C2036 H2027 0.950 . S
C2036 C2035 1.398 . S
C2036 C2037 1.391 . S
C2037 H2025 0.950 . S
C2037 C2033 1.393 . S
C2037 C2036 1.391 . S
C2038 H2028 0.950 . S
C2038 C2039 1.386 . S
C2038 C2040 1.391 . S
C2039 C2038 1.386 . S
C2039 C2043 1.393 . S
C2040 H2029 0.950 . S
C2040 C2038 1.391 . S
C2040 C2041 1.400 . S
C2041 C2035 1.491 . S
C2041 C2040 1.400 . S
C2041 C2042 1.398 . S
C2042 H2030 0.950 . S
C2042 C2041 1.398 . S
C2042 C2043 1.391 . S
C2043 H2031 0.950 . S
C2043 C2039 1.393 . S
C2043 C2042 1.391 . S
H2044 C2052 0.950 . S
H2045 C2057 0.950 . S
H2046 C2054 0.950 . S
H2047 C2056 0.950 . S
H2048 C2058 0.950 . S
H2049 C2060 0.950 . S
H2050 C2062 0.950 . S
H2051 C2063 0.950 . S
C2052 H2044 0.950 . S
C2052 C2053 1.386 . S
C2052 C2054 1.391 . S
C2053 C2052 1.386 . S
C2053 C2057 1.393 . S
C2054 H2046 0.950 . S
C2054 C2052 1.391 . S
C2054 C2055 1.400 . S
C2055 C2054 1.400 . S
C2055 C2056 1.398 . S
C2055 C2061 1.491 . S
C2056 H2047 0.950 . S
C2056 C2055 1.398 . S
C2056 C2057 1.391 . S
C2057 H2045 0.950 . S
C2057 C2053 1.393 . S
C2057 C2056 1.391 . S
C2058 H2048 0.950 . S
C2058 C2059 1.386 . S
C2058 C2060 1.391 . S
C2059 C2058 1.386 . S
C2059 C2063 1.393 . S
C2060 H2049 0.950 . S
C2060 C2058 1.391 . S
C2060 C2061 1.400 . S
C2061 C2055 1.491 . S
C2061 C2060 1.400 . S
C2061 C2062 1.398 . S
C2062 H2050 0.950 . S
C2062 C2061 1.398 . S
C2062 C2063 1.391 . S
C2063 H2051 0.950 . S
C2063 C2059 1.393 . S
C2063 C2062 1.391 . S
H2064 C2072 0.950 . S
H2065 C2077 0.950 . S
H2066 C2074 0.950 . S
H2067 C2076 0.950 . S
H2068 C2078 0.950 . S
H2069 C2080 0.950 . S
H2070 C2082 0.950 . S
H2071 C2083 0.950 . S
C2072 H2064 0.950 . S
C2072 C2073 1.386 . S
C2072 C2074 1.391 . S
C2073 C2072 1.386 . S
C2073 C2077 1.393 . S
C2074 H2066 0.950 . S
C2074 C2072 1.391 . S
C2074 C2075 1.400 . S
C2075 C2074 1.400 . S
C2075 C2076 1.398 . S
C2075 C2081 1.491 . S
C2076 H2067 0.950 . S
C2076 C2075 1.398 . S
C2076 C2077 1.391 . S
C2077 H2065 0.950 . S
C2077 C2073 1.393 . S
C2077 C2076 1.391 . S
C2078 H2068 0.950 . S
C2078 C2079 1.386 . S
C2078 C2080 1.391 . S
C2079 C2078 1.386 . S
C2079 C2083 1.393 . S
C2080 H2069 0.950 . S
C2080 C2078 1.391 . S
C2080 C2081 1.400 . S
C2081 C2075 1.491 . S
C2081 C2080 1.400 . S
C2081 C2082 1.398 . S
C2082 H2070 0.950 . S
C2082 C2081 1.398 . S
C2082 C2083 1.391 . S
C2083 H2071 0.950 . S
C2083 C2079 1.393 . S
C2083 C2082 1.391 . S
H2084 C2092 0.950 . S
H2085 C2097 0.950 . S
H2086 C2094 0.950 . S
H2087 C2096 0.950 . S
H2088 C2098 0.950 . S
H2089 C2100 0.950 . S
H2090 C2102 0.950 . S
H2091 C2103 0.950 . S
C2092 H2084 0.950 . S
C2092 C2093 1.386 . S
C2092 C2094 1.391 . S
C2093 C2092 1.386 . S
C2093 C2097 1.393 . S
C2094 H2086 0.950 . S
C2094 C2092 1.391 . S
C2094 C2095 1.400 . S
C2095 C2094 1.400 . S
C2095 C2096 1.398 . S
C2095 C2101 1.491 . S
C2096 H2087 0.950 . S
C2096 C2095 1.398 . S
C2096 C2097 1.391 . S
C2097 H2085 0.950 . S
C2097 C2093 1.393 . S
C2097 C2096 1.391 . S
C2098 H2088 0.950 . S
C2098 C2099 1.386 . S
C2098 C2100 1.391 . S
C2099 C2098 1.386 . S
C2099 C2103 1.393 . S
C2100 H2089 0.950 . S
C2100 C2098 1.391 . S
C2100 C2101 1.400 . S
C2101 C2095 1.491 . S
C2101 C2100 1.400 . S
C2101 C2102 1.398 . S
C2102 H2090 0.950 . S
C2102 C2101 1.398 . S
C2102 C2103 1.391 . S
C2103 H2091 0.950 . S
C2103 C2099 1.393 . S
C2103 C2102 1.391 . S
H2104 C2112 0.950 . S
H2105 C2117 0.950 . S
H2106 C2114 0.950 . S
H2107 C2116 0.950 . S
H2108 C2118 0.950 . S
H2109 C2120 0.950 . S
H2110 C2122 0.950 . S
H2111 C2123 0.950 . S
C2112 H2104 0.950 . S
C2112 C2113 1.386 . S
C2112 C2114 1.391 . S
C2113 C2112 1.386 . S
C2113 C2117 1.393 . S
C2114 H2106 0.950 . S
C2114 C2112 1.391 . S
C2114 C2115 1.400 . S
C2115 C2114 1.400 . S
C2115 C2116 1.398 . S
C2115 C2121 1.491 . S
C2116 H2107 0.950 . S
C2116 C2115 1.398 . S
C2116 C2117 1.391 . S
C2117 H2105 0.950 . S
C2117 C2113 1.393 . S
C2117 C2116 1.391 . S
C2118 H2108 0.950 . S
C2118 C2119 1.386 . S
C2118 C2120 1.391 . S
C2119 C2118 1.386 . S
C2119 C2123 1.393 . S
C2120 H2109 0.950 . S
C2120 C2118 1.391 . S
C2120 C2121 1.400 . S
C2121 C2115 1.491 . S
C2121 C2120 1.400 . S
C2121 C2122 1.398 . S
C2122 H2110 0.950 . S
C2122 C2121 1.398 . S
C2122 C2123 1.391 . S
C2123 H2111 0.950 . S
C2123 C2119 1.393 . S
C2123 C2122 1.391 . S
H2124 C2132 0.950 . S
H2125 C2137 0.950 . S
H2126 C2134 0.950 . S
H2127 C2136 0.950 . S
H2128 C2138 0.950 . S
H2129 C2140 0.950 . S
H2130 C2142 0.950 . S
H2131 C2143 0.950 . S
C2132 H2124 0.950 . S
C2132 C2133 1.386 . S
C2132 C2134 1.391 . S
C2133 C2132 1.386 . S
C2133 C2137 1.393 . S
C2134 H2126 0.950 . S
C2134 C2132 1.391 . S
C2134 C2135 1.400 . S
C2135 C2134 1.400 . S
C2135 C2136 1.398 . S
C2135 C2141 1.491 . S
C2136 H2127 0.950 . S
C2136 C2135 1.398 . S
C2136 C2137 1.391 . S
C2137 H2125 0.950 . S
C2137 C2133 1.393 . S
C2137 C2136 1.391 . S
C2138 H2128 0.950 . S
C2138 C2139 1.386 . S
C2138 C2140 1.391 . S
C2139 C2138 1.386 . S
C2139 C2143 1.393 . S
C2140 H2129 0.950 . S
C2140 C2138 1.391 . S
C2140 C2141 1.400 . S
C2141 C2135 1.491 . S
C2141 C2140 1.400 . S
C2141 C2142 1.398 . S
C2142 H2130 0.950 . S
C2142 C2141 1.398 . S
C2142 C2143 1.391 . S
C2143 H2131 0.950 . S
C2143 C2139 1.393 . S
C2143 C2142 1.391 . S
H2144 C2152 0.950 . S
H2145 C2157 0.950 1_565 S
H2146 C2154 0.950 . S
H2147 C2156 0.950 . S
H2148 C2158 0.950 . S
H2149 C2160 0.950 . S
H2150 C2162 0.950 . S
H2151 C2163 0.950 . S
C2152 H2144 0.950 . S
C2152 C2153 1.386 1_545 S
C2152 C2154 1.391 . S
C2153 C2152 1.386 1_565 S
C2153 C2157 1.393 1_565 S
C2154 H2146 0.950 . S
C2154 C2152 1.391 . S
C2154 C2155 1.400 . S
C2155 C2154 1.400 . S
C2155 C2156 1.398 . S
C2155 C2161 1.491 . S
C2156 H2147 0.950 . S
C2156 C2155 1.398 . S
C2156 C2157 1.391 . S
C2157 H2145 0.950 1_545 S
C2157 C2153 1.393 1_545 S
C2157 C2156 1.391 . S
C2158 H2148 0.950 . S
C2158 C2159 1.386 . S
C2158 C2160 1.391 . S
C2159 C2158 1.386 . S
C2159 C2163 1.393 . S
C2160 H2149 0.950 . S
C2160 C2158 1.391 . S
C2160 C2161 1.400 . S
C2161 C2155 1.491 . S
C2161 C2160 1.400 . S
C2161 C2162 1.398 . S
C2162 H2150 0.950 . S
C2162 C2161 1.398 . S
C2162 C2163 1.391 . S
C2163 H2151 0.950 . S
C2163 C2159 1.393 . S
C2163 C2162 1.391 . S
H2164 C2172 0.950 . S
H2165 C2177 0.950 . S
H2166 C2174 0.950 . S
H2167 C2176 0.950 . S
H2168 C2178 0.950 . S
H2169 C2180 0.950 . S
H2170 C2182 0.950 . S
H2171 C2183 0.950 1_545 S
C2172 H2164 0.950 . S
C2172 C2173 1.386 . S
C2172 C2174 1.391 . S
C2173 C2172 1.386 . S
C2173 C2177 1.393 . S
C2174 H2166 0.950 . S
C2174 C2172 1.391 . S
C2174 C2175 1.400 . S
C2175 C2174 1.400 . S
C2175 C2176 1.398 . S
C2175 C2181 1.491 . S
C2176 H2167 0.950 . S
C2176 C2175 1.398 . S
C2176 C2177 1.391 . S
C2177 H2165 0.950 . S
C2177 C2173 1.393 . S
C2177 C2176 1.391 . S
C2178 H2168 0.950 . S
C2178 C2179 1.386 1_565 S
C2178 C2180 1.391 . S
C2179 C2178 1.386 1_545 S
C2179 C2183 1.393 1_545 S
C2180 H2169 0.950 . S
C2180 C2178 1.391 . S
C2180 C2181 1.400 . S
C2181 C2175 1.491 . S
C2181 C2180 1.400 . S
C2181 C2182 1.398 . S
C2182 H2170 0.950 . S
C2182 C2181 1.398 . S
C2182 C2183 1.391 . S
C2183 H2171 0.950 1_565 S
C2183 C2179 1.393 1_565 S
C2183 C2182 1.391 . S
H2184 C2192 0.950 1_545 S
H2185 C2197 0.950 . S
H2186 C2194 0.950 . S
H2187 C2196 0.950 . S
H2188 C2198 0.950 . S
H2189 C2200 0.950 . S
H2190 C2202 0.950 . S
H2191 C2203 0.950 . S
C2192 H2184 0.950 1_565 S
C2192 C2193 1.386 1_565 S
C2192 C2194 1.391 . S
C2193 C2192 1.386 1_545 S
C2193 C2197 1.393 1_545 S
C2194 H2186 0.950 . S
C2194 C2192 1.391 . S
C2194 C2195 1.400 . S
C2195 C2194 1.400 . S
C2195 C2196 1.398 . S
C2195 C2201 1.491 . S
C2196 H2187 0.950 . S
C2196 C2195 1.398 . S
C2196 C2197 1.391 . S
C2197 H2185 0.950 . S
C2197 C2193 1.393 1_565 S
C2197 C2196 1.391 . S
C2198 H2188 0.950 . S
C2198 C2199 1.386 . S
C2198 C2200 1.391 . S
C2199 C2198 1.386 . S
C2199 C2203 1.393 . S
C2200 H2189 0.950 . S
C2200 C2198 1.391 . S
C2200 C2201 1.400 . S
C2201 C2195 1.491 . S
C2201 C2200 1.400 . S
C2201 C2202 1.398 . S
C2202 H2190 0.950 . S
C2202 C2201 1.398 . S
C2202 C2203 1.391 . S
C2203 H2191 0.950 . S
C2203 C2199 1.393 . S
C2203 C2202 1.391 . S
H2204 C2212 0.950 1_565 S
H2205 C2217 0.950 . S
H2206 C2214 0.950 . S
H2207 C2216 0.950 . S
H2208 C2218 0.950 . S
H2209 C2220 0.950 . S
H2210 C2222 0.950 . S
H2211 C2223 0.950 . S
C2212 H2204 0.950 1_545 S
C2212 C2213 1.386 1_545 S
C2212 C2214 1.391 . S
C2213 C2212 1.386 1_565 S
C2213 C2217 1.393 1_565 S
C2214 H2206 0.950 . S
C2214 C2212 1.391 . S
C2214 C2215 1.400 . S
C2215 C2214 1.400 . S
C2215 C2216 1.398 . S
C2215 C2221 1.491 . S
C2216 H2207 0.950 . S
C2216 C2215 1.398 . S
C2216 C2217 1.391 . S
C2217 H2205 0.950 . S
C2217 C2213 1.393 1_545 S
C2217 C2216 1.391 . S
C2218 H2208 0.950 . S
C2218 C2219 1.386 . S
C2218 C2220 1.391 . S
C2219 C2218 1.386 . S
C2219 C2223 1.393 . S
C2220 H2209 0.950 . S
C2220 C2218 1.391 . S
C2220 C2221 1.400 . S
C2221 C2215 1.491 . S
C2221 C2220 1.400 . S
C2221 C2222 1.398 . S
C2222 H2210 0.950 . S
C2222 C2221 1.398 . S
C2222 C2223 1.391 . S
C2223 H2211 0.950 . S
C2223 C2219 1.393 . S
C2223 C2222 1.391 . S
H2224 C2232 0.950 . S
H2225 C2237 0.950 . S
H2226 C2234 0.950 . S
H2227 C2236 0.950 . S
H2228 C2238 0.950 1_545 S
H2229 C2240 0.950 . S
H2230 C2242 0.950 . S
H2231 C2243 0.950 . S
C2232 H2224 0.950 . S
C2232 C2233 1.386 . S
C2232 C2234 1.391 . S
C2233 C2232 1.386 . S
C2233 C2237 1.393 . S
C2234 H2226 0.950 . S
C2234 C2232 1.391 . S
C2234 C2235 1.400 . S
C2235 C2234 1.400 . S
C2235 C2236 1.398 . S
C2235 C2241 1.491 . S
C2236 H2227 0.950 . S
C2236 C2235 1.398 . S
C2236 C2237 1.391 . S
C2237 H2225 0.950 . S
C2237 C2233 1.393 . S
C2237 C2236 1.391 . S
C2238 H2228 0.950 1_565 S
C2238 C2239 1.386 1_565 S
C2238 C2240 1.391 . S
C2239 C2238 1.386 1_545 S
C2239 C2243 1.393 1_545 S
C2240 H2229 0.950 . S
C2240 C2238 1.391 . S
C2240 C2241 1.400 . S
C2241 C2235 1.491 . S
C2241 C2240 1.400 . S
C2241 C2242 1.398 . S
C2242 H2230 0.950 . S
C2242 C2241 1.398 . S
C2242 C2243 1.391 . S
C2243 H2231 0.950 . S
C2243 C2239 1.393 1_565 S
C2243 C2242 1.391 . S
H2244 C2252 0.950 . S
H2245 C2257 0.950 . S
H2246 C2254 0.950 . S
H2247 C2256 0.950 . S
H2248 C2258 0.950 1_565 S
H2249 C2260 0.950 . S
H2250 C2262 0.950 . S
H2251 C2263 0.941 1_565 S
C2252 H2244 0.950 . S
C2252 C2253 1.386 . S
C2252 C2254 1.391 . S
C2253 C2252 1.386 . S
C2253 C2257 1.393 . S
C2254 H2246 0.950 . S
C2254 C2252 1.391 . S
C2254 C2255 1.400 . S
C2255 C2254 1.400 . S
C2255 C2256 1.398 . S
C2255 C2261 1.491 . S
C2256 H2247 0.950 . S
C2256 C2255 1.398 . S
C2256 C2257 1.391 . S
C2257 H2245 0.950 . S
C2257 C2253 1.393 . S
C2257 C2256 1.391 . S
C2258 H2248 0.950 1_545 S
C2258 C2259 1.386 1_545 S
C2258 C2260 1.391 . S
C2259 C2258 1.386 1_565 S
C2259 C2263 1.393 1_565 S
C2260 H2249 0.950 . S
C2260 C2258 1.391 . S
C2260 C2261 1.400 . S
C2261 C2255 1.491 . S
C2261 C2260 1.400 . S
C2261 C2262 1.398 . S
C2262 H2250 0.950 . S
C2262 C2261 1.398 . S
C2262 C2263 1.391 . S
C2263 H2251 0.941 1_545 S
C2263 C2259 1.393 1_545 S
C2263 C2262 1.391 . S
H2264 C2272 0.950 . S
H2265 C2277 0.950 1_565 S
H2266 C2274 0.950 . S
H2267 C2276 0.950 . S
H2268 C2278 0.950 . S
H2269 C2280 0.950 . S
H2270 C2282 0.950 . S
H2271 C2283 0.950 . S
C2272 H2264 0.950 . S
C2272 C2273 1.386 1_545 S
C2272 C2274 1.391 . S
C2273 C2272 1.386 1_565 S
C2273 C2277 1.393 1_565 S
C2274 H2266 0.950 . S
C2274 C2272 1.391 . S
C2274 C2275 1.400 . S
C2275 C2274 1.400 . S
C2275 C2276 1.398 . S
C2275 C2281 1.491 . S
C2276 H2267 0.950 . S
C2276 C2275 1.398 . S
C2276 C2277 1.391 . S
C2277 H2265 0.950 1_545 S
C2277 C2273 1.393 1_545 S
C2277 C2276 1.391 . S
C2278 H2268 0.950 . S
C2278 C2279 1.386 . S
C2278 C2280 1.391 . S
C2279 C2278 1.386 . S
C2279 C2283 1.393 . S
C2280 H2269 0.950 . S
C2280 C2278 1.391 . S
C2280 C2281 1.400 . S
C2281 C2275 1.491 . S
C2281 C2280 1.400 . S
C2281 C2282 1.398 . S
C2282 H2270 0.950 . S
C2282 C2281 1.398 . S
C2282 C2283 1.391 . S
C2283 H2271 0.950 . S
C2283 C2279 1.393 . S
C2283 C2282 1.391 . S
H2284 C2292 0.950 . S
H2285 C2297 0.950 . S
H2286 C2294 0.950 . S
H2287 C2296 0.950 . S
H2288 C2298 0.950 . S
H2289 C2300 0.950 . S
H2290 C2302 0.950 . S
H2291 C2303 0.950 1_545 S
C2292 H2284 0.950 . S
C2292 C2293 1.386 . S
C2292 C2294 1.391 . S
C2293 C2292 1.386 . S
C2293 C2297 1.393 . S
C2294 H2286 0.950 . S
C2294 C2292 1.391 . S
C2294 C2295 1.400 . S
C2295 C2294 1.400 . S
C2295 C2296 1.398 . S
C2295 C2301 1.491 . S
C2296 H2287 0.950 . S
C2296 C2295 1.398 . S
C2296 C2297 1.391 . S
C2297 H2285 0.950 . S
C2297 C2293 1.393 . S
C2297 C2296 1.391 . S
C2298 H2288 0.950 . S
C2298 C2299 1.386 1_565 S
C2298 C2300 1.391 . S
C2299 C2298 1.386 1_545 S
C2299 C2303 1.393 1_545 S
C2300 H2289 0.950 . S
C2300 C2298 1.391 . S
C2300 C2301 1.400 . S
C2301 C2295 1.491 . S
C2301 C2300 1.400 . S
C2301 C2302 1.398 . S
C2302 H2290 0.950 . S
C2302 C2301 1.398 . S
C2302 C2303 1.391 . S
C2303 H2291 0.950 1_565 S
C2303 C2299 1.393 1_565 S
C2303 C2302 1.391 . S
C1353 C55 1.492 . S
C1359 C811 1.502 . S
C1373 C139 1.502 . S
C1379 C727 1.494 . S
C1393 C979 1.493 . S
C1399 C223 1.501 . S
C1413 C307 1.492 . S
C1419 C895 1.501 . S
C1433 C1159 1.497 . S
C1439 C403 1.500 . S
C1453 C1075 1.500 . S
C1459 C487 1.493 . S
C1473 C1327 1.500 . S
C1479 C571 1.493 . S
C1493 C655 1.502 . S
C1499 C1243 1.492 . S
C1513 C224 1.654 . S
C1519 C56 1.656 . S
C1533 C308 1.657 . S
C1539 C140 1.659 . S
C1553 C572 1.655 . S
C1559 C404 1.658 . S
C1573 C488 1.660 . S
C1579 C656 1.660 . S
C1593 C896 1.660 . S
C1599 C728 1.659 . S
C1613 C980 1.660 . S
C1619 C812 1.658 . S
C1633 C1076 1.655 . S
C1639 C1244 1.655 . S
C1653 C1160 1.657 . S
C1659 C1328 1.659 . S
C1673 C476 1.671 . S
C1679 C68 1.696 . S
C1693 C392 1.686 . S
C1699 C152 1.682 . S
C1713 C236 1.692 . S
C1719 C644 1.676 . S
C1733 C560 1.671 . S
C1739 C320 1.696 . S
C1753 C740 1.683 . S
C1759 C1148 1.684 . S
C1773 C1064 1.686 . S
C1779 C824 1.682 . S
C1793 C908 1.685 . S
C1799 C1316 1.683 . S
C1813 C1232 1.690 . S
C1819 C992 1.678 . S
C1833 C151 1.505 . S
C1839 C67 1.495 . S
C1853 C319 1.500 . S
C1859 C235 1.500 . S
C1873 C475 1.499 . S
C1879 C391 1.500 . S
C1893 C559 1.496 . S
C1899 C643 1.504 . S
C1913 C823 1.505 . S
C1919 C739 1.495 . S
C1933 C991 1.505 . S
C1939 C907 1.495 . S
C1953 C1063 1.497 . S
C1959 C1147 1.503 . S
C1973 C1231 1.502 . S
C1979 C1315 1.498 . S
C1993 C70 1.423 . S
C1999 C58 1.423 . S
C2013 C154 1.384 . S
C2019 C142 1.384 . S
C2033 C238 1.381 . S
C2039 C226 1.381 . S
C2053 C310 1.405 . S
C2059 C322 1.405 . S
C2073 C394 1.381 . S
C2079 C406 1.381 . S
C2093 C490 1.424 . S
C2099 C478 1.424 . S
C2113 C562 1.382 . S
C2119 C574 1.382 . S
C2133 C646 1.399 . S
C2139 C658 1.399 . S
C2153 C730 1.384 . S
C2159 C742 1.384 . S
C2173 C826 1.383 . S
C2179 C814 1.383 . S
C2193 C898 1.388 . S
C2199 C910 1.388 . S
C2213 C982 1.384 . S
C2219 C994 1.384 . S
C2233 C1066 1.405 . S
C2239 C1078 1.405 . S
C2253 C1150 1.431 . S
C2259 C1162 1.431 . S
C2273 C1246 1.417 . S
C2279 C1234 1.417 . S
C2293 C1318 1.384 . S
C2299 C1330 1.384 . S
