# Generated by pormake.
# Topology upc, (4)-cn, num edge types: 1
# Building blocks:
#     Node 0, Type 0, BuildingBlock: ESEHIV_clean_sbu_0, # of connection points: 4
#     Node 1, Type 0, BuildingBlock: ESEHIV_clean_sbu_0, # of connection points: 4
#     Node 2, Type 0, BuildingBlock: ESEHIV_clean_sbu_0, # of connection points: 4
#     Node 3, Type 0, BuildingBlock: ESEHIV_clean_sbu_0, # of connection points: 4
#     Node 4, Type 0, BuildingBlock: ESEHIV_clean_sbu_0, # of connection points: 4
#     Node 5, Type 0, BuildingBlock: ESEHIV_clean_sbu_0, # of connection points: 4
#     Node 6, Type 0, BuildingBlock: ESEHIV_clean_sbu_0, # of connection points: 4
#     Node 7, Type 0, BuildingBlock: ESEHIV_clean_sbu_0, # of connection points: 4
#     Node 8, Type 0, BuildingBlock: ESEHIV_clean_sbu_0, # of connection points: 4
#     Node 9, Type 0, BuildingBlock: ESEHIV_clean_sbu_0, # of connection points: 4
#     Node 10, Type 0, BuildingBlock: ESEHIV_clean_sbu_0, # of connection points: 4
#     Node 11, Type 0, BuildingBlock: ESEHIV_clean_sbu_0, # of connection points: 4
#     Node 12, Type 0, BuildingBlock: ESEHIV_clean_sbu_0, # of connection points: 4
#     Node 13, Type 0, BuildingBlock: ESEHIV_clean_sbu_0, # of connection points: 4
#     Node 14, Type 0, BuildingBlock: ESEHIV_clean_sbu_0, # of connection points: 4
#     Node 15, Type 0, BuildingBlock: ESEHIV_clean_sbu_0, # of connection points: 4
#     Edge 16, Type (0, 0), BuildingBlock: CIFDUS_clean_linker_0, # of connection points: 2
#     Edge 17, Type (0, 0), BuildingBlock: CIFDUS_clean_linker_0, # of connection points: 2
#     Edge 18, Type (0, 0), BuildingBlock: CIFDUS_clean_linker_0, # of connection points: 2
#     Edge 19, Type (0, 0), BuildingBlock: CIFDUS_clean_linker_0, # of connection points: 2
#     Edge 20, Type (0, 0), BuildingBlock: CIFDUS_clean_linker_0, # of connection points: 2
#     Edge 21, Type (0, 0), BuildingBlock: CIFDUS_clean_linker_0, # of connection points: 2
#     Edge 22, Type (0, 0), BuildingBlock: CIFDUS_clean_linker_0, # of connection points: 2
#     Edge 23, Type (0, 0), BuildingBlock: CIFDUS_clean_linker_0, # of connection points: 2
#     Edge 24, Type (0, 0), BuildingBlock: CIFDUS_clean_linker_0, # of connection points: 2
#     Edge 25, Type (0, 0), BuildingBlock: CIFDUS_clean_linker_0, # of connection points: 2
#     Edge 26, Type (0, 0), BuildingBlock: CIFDUS_clean_linker_0, # of connection points: 2
#     Edge 27, Type (0, 0), BuildingBlock: CIFDUS_clean_linker_0, # of connection points: 2
#     Edge 28, Type (0, 0), BuildingBlock: CIFDUS_clean_linker_0, # of connection points: 2
#     Edge 29, Type (0, 0), BuildingBlock: CIFDUS_clean_linker_0, # of connection points: 2
#     Edge 30, Type (0, 0), BuildingBlock: CIFDUS_clean_linker_0, # of connection points: 2
#     Edge 31, Type (0, 0), BuildingBlock: CIFDUS_clean_linker_0, # of connection points: 2
#     Edge 32, Type (0, 0), BuildingBlock: CIFDUS_clean_linker_0, # of connection points: 2
#     Edge 33, Type (0, 0), BuildingBlock: CIFDUS_clean_linker_0, # of connection points: 2
#     Edge 34, Type (0, 0), BuildingBlock: CIFDUS_clean_linker_0, # of connection points: 2
#     Edge 35, Type (0, 0), BuildingBlock: CIFDUS_clean_linker_0, # of connection points: 2
#     Edge 36, Type (0, 0), BuildingBlock: CIFDUS_clean_linker_0, # of connection points: 2
#     Edge 37, Type (0, 0), BuildingBlock: CIFDUS_clean_linker_0, # of connection points: 2
#     Edge 38, Type (0, 0), BuildingBlock: CIFDUS_clean_linker_0, # of connection points: 2
#     Edge 39, Type (0, 0), BuildingBlock: CIFDUS_clean_linker_0, # of connection points: 2
#     Edge 40, Type (0, 0), BuildingBlock: CIFDUS_clean_linker_0, # of connection points: 2
#     Edge 41, Type (0, 0), BuildingBlock: CIFDUS_clean_linker_0, # of connection points: 2
#     Edge 42, Type (0, 0), BuildingBlock: CIFDUS_clean_linker_0, # of connection points: 2
#     Edge 43, Type (0, 0), BuildingBlock: CIFDUS_clean_linker_0, # of connection points: 2
#     Edge 44, Type (0, 0), BuildingBlock: CIFDUS_clean_linker_0, # of connection points: 2
#     Edge 45, Type (0, 0), BuildingBlock: CIFDUS_clean_linker_0, # of connection points: 2
#     Edge 46, Type (0, 0), BuildingBlock: CIFDUS_clean_linker_0, # of connection points: 2
#     Edge 47, Type (0, 0), BuildingBlock: CIFDUS_clean_linker_0, # of connection points: 2
# Relax obj value: 0.167
# Max RMSD: 0.218
# Mean RMSD: 0.188
data_MOF--net-upc--node1-ESEHIV_clean_sbu_0--edge1-CIFDUS_clean_linker_0
_symmetry_space_group_name_H-M    P1
_symmetry_Int_Tables_number       1
_symmetry_cell_setting            triclinic
loop_
_symmetry_equiv_pos_as_xyz
'x, y, z'
_cell_length_a     30.225699
_cell_length_b     36.088191
_cell_length_c     39.408723
_cell_angle_alpha  90.166401
_cell_angle_beta   90.035668
_cell_angle_gamma 89.611058
loop_
_atom_site_label
_atom_site_type_symbol
_atom_site_fract_x
_atom_site_fract_y
_atom_site_fract_z
_atom_type_partial_charge
Cu0 Cu 0.11064 0.63316 0.17735 0.0
N1 N 0.06001 0.66186 0.18331 0.0
N2 N 1.0083 0.69572 0.20929 0.0
C3 C 0.0463 0.67646 0.21282 0.0
C4 C 0.99782 0.69366 0.17608 0.0
C5 C 0.02965 0.67224 0.1601 0.0
O6 O 0.16323 0.66359 0.18819 0.0
C7 C 0.09362 0.58656 0.23616 0.0
O8 O 0.1032 0.61513 0.25544 0.0
H9 H 0.06503 0.67471 0.23614 0.0
H10 H 0.0311 0.66535 0.13339 0.0
N11 N 0.11062 0.6174 0.13226 0.0
N12 N 0.0873 0.58618 0.08645 0.0
C13 C 0.08614 0.58907 0.12066 0.0
C14 C 0.12833 0.63316 0.10463 0.0
C15 C 0.11412 0.61392 0.07633 0.0
C16 C 0.16501 0.69697 0.17724 0.0
O17 O 0.13191 0.70952 0.15885 0.0
H18 H 0.067 0.57164 0.1373 0.0
H19 H 0.14866 0.6577 0.1049 0.0
O20 O 0.10031 0.58845 0.20427 0.0
H21 H 0.9699 0.70737 0.16418 0.0
H22 H 0.12167 0.62096 0.05033 0.0
Cu23 Cu 0.96141 0.16727 0.13186 0.0
N24 N 0.9825 0.19211 0.16982 0.0
N25 N 0.97484 0.19306 0.22629 0.0
C26 C 0.95441 0.19576 0.19597 0.0
C27 C 1.01819 0.18893 0.2189 0.0
C28 C 0.02284 0.18841 0.18398 0.0
O29 O 0.90135 0.1867 0.12356 0.0
C30 C 1.0026 0.10047 0.14907 0.0
O31 O 0.03604 0.11664 0.13406 0.0
H32 H 0.91901 0.19299 0.19273 0.0
H33 H 0.05229 0.18001 0.17032 0.0
N34 N 0.99697 0.17311 0.0934 0.0
N35 N 0.03257 0.15926 0.04516 0.0
C36 C 1.00322 0.14775 0.06866 0.0
C37 C 0.02289 0.20187 0.08519 0.0
C38 C 0.04481 0.19346 0.05537 0.0
C39 C 0.89623 0.22183 0.12131 0.0
O40 O 0.93152 0.24284 0.12264 0.0
H41 H 0.98688 0.12115 0.06823 0.0
H42 H 0.02623 0.22684 0.10018 0.0
O43 O 0.96449 0.11598 0.14788 0.0
H44 H 0.04386 0.18237 0.23712 0.0
H45 H 0.06888 0.21071 0.04279 0.0
Cu46 Cu 0.41272 0.91292 0.16911 0.0
N47 N 0.46037 0.88007 0.16715 0.0
N48 N 0.51458 0.84279 0.18519 0.0
C49 C 0.48212 0.86668 0.19417 0.0
C50 C 0.51327 0.84126 0.15096 0.0
C51 C 0.47993 0.86461 0.13987 0.0
O52 O 0.35754 0.88384 0.17445 0.0
C53 C 0.46477 0.96151 0.20746 0.0
O54 O 0.49352 0.95107 0.18429 0.0
H55 H 0.47257 0.87293 0.22005 0.0
H56 H 0.46995 0.8693 0.11386 0.0
N57 N 0.41117 0.93812 0.12754 0.0
N58 N 0.43047 0.97592 0.0851 0.0
C59 C 0.4336 0.96883 0.1187 0.0
C60 C 0.39284 0.92563 0.09861 0.0
C61 C 0.40467 0.94882 0.07241 0.0
C62 C 0.35506 0.85242 0.18942 0.0
O63 O 0.39006 0.83939 0.20523 0.0
H64 H 0.45366 0.98465 0.13612 0.0
H65 H 0.3738 0.90045 0.09649 0.0
O66 O 0.42562 0.94829 0.20608 0.0
H67 H 0.53394 0.82372 0.13517 0.0
H68 H 0.39577 0.94548 0.04598 0.0
Cu69 Cu 0.61163 0.40434 0.13532 0.0
N70 N 0.5822 0.37497 0.16653 0.0
N71 N 0.57749 0.37188 0.22308 0.0
C72 C 0.60402 0.36914 0.19572 0.0
C73 C 0.53653 0.37761 0.21045 0.0
C74 C 0.53945 0.37913 0.1755 0.0
O75 O 0.67111 0.38298 0.12869 0.0
C76 C 0.57429 0.46914 0.16181 0.0
O77 O 0.54086 0.45766 0.14336 0.0
H78 H 0.63968 0.37155 0.19729 0.0
H79 H 0.51382 0.3894 0.15877 0.0
N80 N 0.58168 0.40945 0.09403 0.0
N81 N 0.55732 0.43638 0.04634 0.0
C82 C 0.58535 0.4386 0.07301 0.0
C83 C 0.55034 0.38779 0.08027 0.0
C84 C 0.53521 0.40434 0.05083 0.0
C85 C 0.67574 0.34811 0.12379 0.0
O86 O 0.64011 0.32755 0.12183 0.0
H87 H 0.60707 0.46169 0.07803 0.0
H88 H 0.53873 0.36219 0.09122 0.0
O89 O 0.61135 0.45209 0.15922 0.0
H90 H 0.50793 0.38552 0.2254 0.0
H91 H 0.50987 0.39361 0.03414 0.0
Cu92 Cu 0.11953 0.92491 0.34062 0.0
N93 N 0.06944 0.89575 0.34356 0.0
N94 N 1.01337 0.86078 0.3262 0.0
C95 C 0.04741 0.88231 0.31676 0.0
C96 C 1.01399 0.86068 0.36045 0.0
C97 C 0.04845 0.88278 0.37114 0.0
O98 O 0.17184 0.89305 0.33197 0.0
C99 C 0.11538 0.95274 0.27286 0.0
O100 O 0.1377 0.92259 0.26489 0.0
H101 H 0.05795 0.8863 0.29078 0.0
H102 H 0.05853 0.88788 0.39707 0.0
N103 N 0.12413 0.95152 0.38111 0.0
N104 N 0.10366 0.98657 0.42545 0.0
C105 C 0.09142 0.97174 0.39537 0.0
C106 C 0.15841 0.95353 0.40276 0.0
C107 C 0.1459 0.97513 0.43016 0.0
C108 C 0.17678 0.86179 0.34678 0.0
O109 O 0.14701 0.85157 0.36908 0.0
H110 H 0.05885 0.97453 0.38421 0.0
H111 H 0.19004 0.93992 0.39905 0.0
O112 O 0.10685 0.95954 0.30388 0.0
H113 H 0.99238 0.84455 0.37647 0.0
H114 H 0.16644 0.98193 0.45176 0.0
Cu115 Cu 0.66608 0.124 0.377 0.0
N116 N 0.72421 0.10837 0.37076 0.0
N117 N 0.79053 0.12043 0.34835 0.0
C118 C 0.74642 0.1194 0.34315 0.0
C119 C 0.7965 0.10809 0.38034 0.0
C120 C 0.75538 0.10101 0.39427 0.0
O121 O 0.67422 0.17751 0.37053 0.0
C122 C 0.58949 0.09422 0.34019 0.0
O123 O 0.56424 0.10589 0.36519 0.0
H124 H 0.72991 0.13073 0.32108 0.0
H125 H 0.7486 0.09549 0.42072 0.0
N126 N 0.64719 0.11062 0.42071 0.0
N127 N 0.61501 0.08026 0.46349 0.0
C128 C 0.62038 0.08244 0.4295 0.0
C129 C 0.66019 0.12588 0.45027 0.0
C130 C 0.63998 0.1076 0.47661 0.0
C131 C 0.66798 0.20383 0.39165 0.0
O132 O 0.64291 0.19829 0.41832 0.0
H133 H 0.60555 0.06362 0.41142 0.0
H134 H 0.68381 0.14812 0.4526 0.0
O135 O 0.63101 0.10053 0.34101 0.0
H136 H 0.82764 0.10831 0.39392 0.0
H137 H 0.64462 0.11304 0.50341 0.0
Cu138 Cu 0.42973 0.64773 0.35264 0.0
N139 N 0.4769 0.6802 0.35647 0.0
N140 N 0.52753 0.72083 0.33959 0.0
C141 C 0.49781 0.6952 0.32994 0.0
C142 C 0.5254 0.72178 0.37382 0.0
C143 C 0.49425 0.69635 0.38421 0.0
O144 O 0.37447 0.67717 0.3494 0.0
C145 C 0.47994 0.60213 0.30858 0.0
O146 O 0.51076 0.60903 0.33119 0.0
H147 H 0.48868 0.68948 0.30388 0.0
H148 H 0.48343 0.69134 0.40994 0.0
N149 N 0.42752 0.61893 0.39198 0.0
N150 N 0.44729 0.58247 0.43531 0.0
C151 C 0.45953 0.59713 0.40525 0.0
C152 C 0.39398 0.61798 0.41437 0.0
C153 C 0.40606 0.59557 0.44113 0.0
C154 C 0.36987 0.70738 0.3328 0.0
O155 O 0.40273 0.71905 0.31395 0.0
H156 H 0.49167 0.59308 0.39376 0.0
H157 H 0.36314 0.63308 0.41165 0.0
O158 O 0.44127 0.61594 0.313 0.0
H159 H 0.54327 0.74079 0.39001 0.0
H160 H 0.38606 0.58941 0.46315 0.0
Cu161 Cu 0.86925 0.43355 0.39337 0.0
N162 N 0.81628 0.45352 0.37707 0.0
N163 N 0.7505 0.44368 0.3527 0.0
C164 C 0.79447 0.43742 0.35129 0.0
C165 C 0.74434 0.46606 0.37976 0.0
C166 C 0.78503 0.47183 0.39497 0.0
O167 O 0.85674 0.38042 0.39436 0.0
C168 C 0.92384 0.45727 0.33604 0.0
O169 O 0.89057 0.44926 0.31594 0.0
H170 H 0.80992 0.41816 0.33388 0.0
H171 H 0.79047 0.48447 0.41952 0.0
N172 N 0.8783 0.44865 0.43813 0.0
N173 N 0.91102 0.47243 0.48408 0.0
C174 C 0.91042 0.47109 0.44983 0.0
C175 C 0.85773 0.4356 0.46584 0.0
C176 C 0.87788 0.45018 0.49425 0.0
C177 C 0.85442 0.35929 0.36848 0.0
O178 O 0.87197 0.37011 0.33972 0.0
H179 H 0.93419 0.4847 0.43363 0.0
H180 H 0.83094 0.41588 0.46537 0.0
O181 O 0.92094 0.45045 0.36768 0.0
H182 H 0.71246 0.47421 0.38994 0.0
H183 H 0.86931 0.4444 0.52036 0.0
Cu184 Cu 0.86879 0.41436 0.90778 0.0
N185 N 0.87681 0.36686 0.89005 0.0
N186 N 0.87625 0.3193 0.85361 0.0
C187 C 0.86462 0.35504 0.85902 0.0
C188 C 0.89651 0.30832 0.88247 0.0
C189 C 0.89692 0.33773 0.90482 0.0
O190 O 0.80685 0.42956 0.90718 0.0
C191 C 0.8883 0.46109 0.85152 0.0
O192 O 0.85164 0.44786 0.83845 0.0
H193 H 0.84744 0.37237 0.84089 0.0
H194 H 0.91152 0.338 0.92986 0.0
N195 N 0.89182 0.41829 0.95175 0.0
N196 N 0.92815 0.44191 0.99623 0.0
C197 C 0.91743 0.44612 0.96318 0.0
C198 C 0.88639 0.39559 0.97845 0.0
C199 C 0.90861 0.41015 1.00593 0.0
C200 C 0.77084 0.41193 0.90268 0.0
O201 O 0.73391 0.43117 0.9004 0.0
H202 H 0.92721 0.46941 0.94772 0.0
H203 H 0.86784 0.37014 0.9781 0.0
O204 O 0.90135 0.44955 0.88035 0.0
H205 H 0.91137 0.28138 0.88679 0.0
H206 H 0.91055 0.3981 0.03101 0.0
Cu207 Cu 0.13042 0.95123 0.86426 0.0
N208 N 0.07996 0.94581 0.83756 0.0
N209 N 0.02611 0.96381 0.80231 0.0
C210 C 0.05219 0.97347 0.82864 0.0
C211 C 0.03773 0.92867 0.79443 0.0
C212 C 0.07093 0.9176 0.81631 0.0
O213 O 0.1162 0.98261 0.90308 0.0
C214 C 0.21422 0.97715 0.84026 0.0
O215 O 0.23009 0.96828 0.87023 0.0
H216 H 0.05381 1.00117 0.83914 0.0
H217 H 0.08953 0.89191 0.8151 0.0
N218 N 0.15102 0.90509 0.87979 0.0
N219 N 0.19443 0.85606 0.89106 0.0
C220 C 0.18776 0.88581 0.8708 0.0
C221 C 0.13378 0.8866 0.90618 0.0
C222 C 0.16046 0.85652 0.91325 0.0
C223 C 0.11449 1.01785 0.90203 0.0
O224 O 0.12441 0.03484 0.87362 0.0
H225 H 0.21036 0.89441 0.85109 0.0
H226 H 0.10472 0.89531 0.92016 0.0
O227 O 0.17327 0.97317 0.8343 0.0
H228 H 0.02473 0.91289 0.7733 0.0
H229 H 0.15588 0.83698 0.93373 0.0
Cu230 Cu 0.61143 0.15271 0.87462 0.0
N231 N 0.56019 0.16449 0.85072 0.0
N232 N 0.52206 0.19127 0.80887 0.0
C233 C 0.55478 0.19516 0.83181 0.0
C234 C 0.50606 0.15688 0.81355 0.0
C235 C 0.52952 0.14046 0.83959 0.0
O236 O 0.64814 0.19695 0.87251 0.0
C237 C 0.64529 0.11538 0.81863 0.0
O238 O 0.64461 0.14915 0.80623 0.0
H239 H 0.57784 0.218 0.83196 0.0
H240 H 0.52757 0.11179 0.84733 0.0
N241 N 0.59631 0.13869 0.91876 0.0
N242 N 0.56507 0.10704 0.96127 0.0
C243 C 0.57104 0.10954 0.92731 0.0
C244 C 0.6067 0.15539 0.9482 0.0
C245 C 0.58762 0.13594 0.97444 0.0
C246 C 0.68363 0.20541 0.88806 0.0
O247 O 0.7014 0.18193 0.90962 0.0
H248 H 0.55674 0.09101 0.90875 0.0
H249 H 0.62654 0.1801 0.95046 0.0
O250 O 0.63638 0.11097 0.84991 0.0
H251 H 0.48183 0.14357 0.79744 0.0
H252 H 0.59063 0.14253 1.00113 0.0
Cu253 Cu 0.45357 0.61623 0.8445 0.0
N254 N 0.50888 0.61688 0.82358 0.0
N255 N 0.56443 0.59434 0.79206 0.0
C256 C 0.52845 0.58631 0.81084 0.0
C257 C 0.56767 0.63164 0.79311 0.0
C258 C 0.53329 0.64551 0.81268 0.0
O259 O 0.45552 0.57996 0.88114 0.0
C260 C 0.37855 0.58289 0.81186 0.0
O261 O 0.36646 0.57122 0.84198 0.0
H262 H 0.5146 0.55887 0.81339 0.0
H263 H 0.52536 0.67439 0.81714 0.0
N264 N 0.43573 0.66294 0.86064 0.0
N265 N 0.39384 0.71352 0.86964 0.0
C266 C 0.40025 0.6829 0.85032 0.0
C267 C 0.45247 0.68167 0.88721 0.0
C268 C 0.42671 0.71281 0.89285 0.0
C269 C 0.48964 0.57839 0.90011 0.0
O270 O 0.52163 0.60225 0.89518 0.0
H271 H 0.37845 0.67428 0.83002 0.0
H272 H 0.48068 0.67276 0.90204 0.0
O273 O 0.41358 0.60177 0.80879 0.0
H274 H 0.59213 0.64781 0.77978 0.0
H275 H 0.4315 0.73312 0.91276 0.0
Cu276 Cu 0.87434 0.13732 0.61491 0.0
N277 N 0.87917 0.18507 0.63286 0.0
N278 N 0.87611 0.23272 0.66919 0.0
C279 C 0.86697 0.19655 0.66404 0.0
C280 C 0.89476 0.24438 0.64002 0.0
C281 C 0.89674 0.21494 0.61776 0.0
O282 O 0.81368 0.11949 0.61454 0.0
C283 C 0.89755 0.09371 0.67215 0.0
O284 O 0.86112 0.1077 0.68521 0.0
H285 H 0.85134 0.17879 0.68245 0.0
H286 H 0.91063 0.21519 0.59249 0.0
N287 N 0.89661 0.13539 0.57061 0.0
N288 N 0.93292 0.11559 0.52437 0.0
C289 C 0.92504 0.11002 0.55777 0.0
C290 C 0.88614 0.15775 0.54453 0.0
C291 C 0.90847 0.14569 0.51606 0.0
C292 C 0.77604 0.13423 0.62072 0.0
O293 O 0.74121 0.11264 0.6207 0.0
H294 H 0.93872 0.08739 0.57247 0.0
H295 H 0.86368 0.18111 0.546 0.0
O296 O 0.90915 0.10313 0.64235 0.0
H297 H 0.90744 0.27189 0.63543 0.0
H298 H 0.90691 0.15831 0.49121 0.0
Cu299 Cu 0.46589 0.9255 0.66153 0.0
N300 N 0.52089 0.91925 0.6821 0.0
N301 N 0.57576 0.93804 0.71601 0.0
C302 C 0.54467 0.94822 0.69323 0.0
C303 C 0.57166 0.90096 0.71907 0.0
C304 C 0.53771 0.88942 0.69809 0.0
O305 O 0.47329 0.96066 0.62468 0.0
C306 C 0.39371 0.96359 0.69461 0.0
O307 O 0.37761 0.9705 0.66429 0.0
H308 H 0.53579 0.9767 0.68776 0.0
H309 H 0.52362 0.86197 0.69713 0.0
N310 N 0.44059 0.88056 0.64768 0.0
N311 N 0.38989 0.83616 0.6402 0.0
C312 C 0.39734 0.8717 0.64949 0.0
C313 C 0.46125 0.84963 0.63674 0.0
C314 C 0.43012 0.82222 0.63213 0.0
C315 C 0.49521 0.952 0.5982 0.0
O316 O 0.50928 0.91771 0.5945 0.0
H317 H 0.37203 0.89062 0.65854 0.0
H318 H 0.49658 0.84699 0.63298 0.0
O319 O 0.42987 0.9458 0.6975 0.0
H320 H 0.58958 0.88386 0.73701 0.0
H321 H 0.43666 0.79421 0.6235 0.0
Cu322 Cu 0.63587 0.39346 0.62153 0.0
N323 N 0.58125 0.37757 0.63738 0.0
N324 N 0.53534 0.34725 0.67164 0.0
C325 C 0.5745 0.34642 0.65528 0.0
C326 C 0.51662 0.38012 0.66372 0.0
C327 C 0.54499 0.39874 0.64244 0.0
O328 O 0.67588 0.35095 0.6252 0.0
C329 C 0.65633 0.46736 0.64424 0.0
O330 O 0.65836 0.47632 0.61202 0.0
H331 H 0.59978 0.32548 0.65929 0.0
H332 H 0.54136 0.42709 0.63402 0.0
N333 N 0.62993 0.40949 0.57646 0.0
N334 N 0.60463 0.43908 0.53023 0.0
C335 C 0.59927 0.4331 0.56391 0.0
C336 C 0.65527 0.3998 0.54983 0.0
C337 C 0.64001 0.41802 0.52146 0.0
C338 C 0.71612 0.34863 0.61584 0.0
O339 O 0.73567 0.37767 0.60275 0.0
H340 H 0.57363 0.44552 0.57937 0.0
H341 H 0.68293 0.38073 0.55081 0.0
O342 O 0.65141 0.43353 0.65244 0.0
H343 H 0.48629 0.39099 0.67459 0.0
H344 H 0.65449 0.41602 0.49644 0.0
Cu345 Cu 0.10439 0.61348 0.66085 0.0
N346 N 0.05891 0.62155 0.69199 0.0
N347 N 1.00742 0.60426 0.72931 0.0
C348 C 0.02749 0.5966 0.69954 0.0
C349 C 0.02665 0.6355 0.74087 0.0
C350 C 0.05839 0.64614 0.71772 0.0
O351 O 0.08006 0.58612 0.6225 0.0
C352 C 0.18648 0.57714 0.67588 0.0
O353 O 0.1987 0.58633 0.64506 0.0
H354 H 0.02252 0.57129 0.68532 0.0
H355 H 0.08202 0.66826 0.7209 0.0
N356 N 0.1307 0.65822 0.64766 0.0
N357 N 0.18156 0.70272 0.64143 0.0
C358 C 0.17114 0.67044 0.65674 0.0
C359 C 0.11469 0.68387 0.62613 0.0
C360 C 0.1459 0.71136 0.62227 0.0
C361 C 0.07386 0.55141 0.62535 0.0
O362 O 0.08779 0.53461 0.65294 0.0
H363 H 0.19261 0.65585 0.67421 0.0
H364 H 0.08294 0.68228 0.61355 0.0
O365 O 0.1475 0.58469 0.68578 0.0
H366 H 1.02017 0.64833 0.76524 0.0
H367 H 0.1431 0.73515 0.60573 0.0
H368 H 0.17656 0.76811 0.15583 0.0
H369 H 0.24011 0.68256 0.21502 0.0
H370 H 0.30298 0.72364 0.22549 0.0
H371 H 0.34117 0.78323 0.21611 0.0
H372 H 0.27738 0.86809 0.15611 0.0
H373 H 0.21342 0.82797 0.14796 0.0
C374 C 0.20406 0.75828 0.17109 0.0
C375 C 0.20341 0.72193 0.18443 0.0
C376 C 0.24023 0.78204 0.17686 0.0
C377 C 0.23955 0.71013 0.20425 0.0
C378 C 0.27558 0.7337 0.21025 0.0
C379 C 0.31322 0.79314 0.20138 0.0
C380 C 0.3145 0.82888 0.18664 0.0
C381 C 0.27649 0.76964 0.19645 0.0
C382 C 0.27766 0.84094 0.16776 0.0
C383 C 0.24099 0.81788 0.16299 0.0
H384 H 0.87648 0.29569 0.12142 0.0
H385 H 0.81492 0.18818 0.11787 0.0
H386 H 0.74179 0.21778 0.11743 0.0
H387 H 0.69524 0.27416 0.11942 0.0
H388 H 0.75708 0.38152 0.12416 0.0
H389 H 0.8301 0.35194 0.12271 0.0
C390 C 0.84714 0.2786 0.12039 0.0
C391 C 0.85147 0.23958 0.11964 0.0
C392 C 0.80514 0.29584 0.12044 0.0
C393 C 0.81283 0.21814 0.11842 0.0
C394 C 0.77092 0.23511 0.11822 0.0
C395 C 0.72463 0.2912 0.12 0.0
C396 C 0.7204 0.3302 0.1219 0.0
C397 C 0.76665 0.27393 0.11942 0.0
C398 C 0.75909 0.35159 0.12273 0.0
C399 C 0.80095 0.33463 0.12191 0.0
H400 H 0.19415 0.79359 0.37363 0.0
H401 H 0.24564 0.87277 0.30221 0.0
H402 H 0.30841 0.83143 0.29036 0.0
H403 H 0.35012 0.77351 0.30174 0.0
H404 H 0.29803 0.69479 0.37344 0.0
H405 H 0.23418 0.73514 0.38347 0.0
C406 C 0.21903 0.80197 0.35545 0.0
C407 C 0.21507 0.8366 0.33906 0.0
C408 C 0.25512 0.77803 0.34879 0.0
C409 C 0.24774 0.84654 0.31541 0.0
C410 C 0.28372 0.82282 0.3086 0.0
C411 C 0.32473 0.76501 0.31945 0.0
C412 C 0.32928 0.73098 0.3369 0.0
C413 C 0.28797 0.78859 0.32533 0.0
C414 C 0.29571 0.72064 0.35963 0.0
C415 C 0.25912 0.74383 0.36548 0.0
H416 H 0.78934 0.34419 0.41444 0.0
H417 H 0.84887 0.30294 0.32215 0.0
H418 H 0.79414 0.2535 0.31952 0.0
H419 H 0.7305 0.22076 0.34404 0.0
H420 H 0.67038 0.26256 0.43586 0.0
H421 H 0.72377 0.31301 0.43768 0.0
C422 C 0.79091 0.324 0.39403 0.0
C423 C 0.82391 0.327 0.36886 0.0
C424 C 0.7589 0.29579 0.39236 0.0
C425 C 0.8244 0.30111 0.34213 0.0
C426 C 0.79297 0.27282 0.34053 0.0
C427 C 0.72879 0.24102 0.36432 0.0
C428 C 0.69638 0.2375 0.38985 0.0
C429 C 0.7601 0.26981 0.3655 0.0
C430 C 0.69475 0.26435 0.41581 0.0
C431 C 0.72557 0.29316 0.41703 0.0
H432 H 0.72494 0.37284 0.85665 0.0
H433 H 0.80794 0.36015 0.94445 0.0
H434 H 0.79247 0.29351 0.9458 0.0
H435 H 0.74793 0.24035 0.92553 0.0
H436 H 0.66171 0.25528 0.83912 0.0
H437 H 0.6856 0.31921 0.83367 0.0
C438 C 0.74032 0.35525 0.87564 0.0
C439 C 0.76837 0.3711 0.90005 0.0
C440 C 0.72996 0.31738 0.87678 0.0
C441 C 0.78748 0.34826 0.92486 0.0
C442 C 0.77804 0.31029 0.92584 0.0
C443 C 0.73483 0.25744 0.90524 0.0
C444 C 0.70255 0.24298 0.88308 0.0
C445 C 0.74831 0.29469 0.90245 0.0
C446 C 0.6861 0.26564 0.85687 0.0
C447 C 0.69978 0.30231 0.85365 0.0
H448 H 0.35362 0.74844 0.92171 0.0
H449 H 0.35245 0.73788 0.81282 0.0
H450 H 0.29128 0.78273 0.80932 0.0
H451 H 0.23707 0.82475 0.83773 0.0
H452 H 0.23685 0.832 0.94686 0.0
H453 H 0.29957 0.78914 0.94985 0.0
C454 C 0.34025 0.75621 0.8972 0.0
C455 C 0.35781 0.74 0.86756 0.0
C456 C 0.30468 0.7815 0.89547 0.0
C457 C 0.33941 0.74981 0.83602 0.0
C458 C 0.30454 0.77557 0.83402 0.0
C459 C 0.25108 0.81702 0.86205 0.0
C460 C 0.23233 0.8315 0.89205 0.0
C461 C 0.28677 0.79159 0.86361 0.0
C462 C 0.25041 0.82097 0.92347 0.0
C463 C 0.28637 0.79654 0.92519 0.0
H464 H 0.69985 0.2912 0.65812 0.0
H465 H 0.78309 0.32379 0.57473 0.0
H466 H 0.81261 0.26054 0.57049 0.0
H467 H 0.80771 0.19414 0.58637 0.0
H468 H 0.72656 0.16294 0.67122 0.0
H469 H 0.70302 0.22727 0.67895 0.0
C470 C 0.72486 0.28457 0.63928 0.0
C471 C 0.73874 0.31201 0.61645 0.0
C472 C 0.74179 0.24827 0.63711 0.0
C473 C 0.7717 0.30315 0.59254 0.0
C474 C 0.78842 0.26692 0.58998 0.0
C475 C 0.78615 0.20175 0.60719 0.0
C476 C 0.76946 0.17399 0.62851 0.0
C477 C 0.77284 0.239 0.61156 0.0
C478 C 0.74018 0.18394 0.65471 0.0
C479 C 0.7266 0.22069 0.65908 0.0
H480 H 0.1948 0.7762 0.63268 0.0
H481 H 0.26271 0.67335 0.65406 0.0
H482 H 0.3333 0.70566 0.65575 0.0
H483 H 0.37626 0.76306 0.65045 0.0
H484 H 0.30867 0.86601 0.62925 0.0
H485 H 0.23777 0.83386 0.62817 0.0
C486 C 0.22505 0.76082 0.63754 0.0
C487 C 0.22318 0.7223 0.64321 0.0
C488 C 0.26576 0.77964 0.63849 0.0
C489 C 0.26283 0.703 0.65001 0.0
C490 C 0.30338 0.72145 0.65076 0.0
C491 C 0.34609 0.77843 0.64533 0.0
C492 C 0.34799 0.81696 0.63979 0.0
C493 C 0.30531 0.75974 0.6449 0.0
C494 C 0.30828 0.83647 0.63386 0.0
C495 C 0.26768 0.81803 0.63309 0.0
H496 H 0.95101 0.46475 0.27017 0.0
H497 H 0.98288 0.49849 0.37238 0.0
H498 H 0.04029 0.53946 0.3509 0.0
H499 H 0.07769 0.56961 0.30276 0.0
H500 H 0.04763 0.53415 0.20066 0.0
H501 H 0.99412 0.48992 0.22242 0.0
C502 C 0.97082 0.48077 0.28778 0.0
C503 C 0.96218 0.47868 0.32286 0.0
C504 C 1.00424 0.50419 0.27525 0.0
C505 C 0.98862 0.49943 0.34527 0.0
C506 C 0.02146 0.52306 0.33298 0.0
C507 C 0.05994 0.55183 0.28527 0.0
C508 C 0.06666 0.5556 0.25005 0.0
C509 C 0.02904 0.52622 0.29798 0.0
C510 C 0.04339 0.53203 0.22788 0.0
C511 C 1.01245 0.50677 0.2403 0.0
H512 H 0.06901 0.05018 0.14453 0.0
H513 H 0.95978 0.08347 0.20825 0.0
H514 H 0.98543 0.04104 0.25265 0.0
H515 H 0.04191 0.99719 0.27469 0.0
H516 H 0.14947 0.96272 0.2097 0.0
H517 H 0.12175 1.00305 0.16462 0.0
C518 C 0.05036 0.04765 0.16791 0.0
C519 C 1.01242 0.06982 0.17299 0.0
C520 C 0.06548 1.02341 0.19333 0.0
C521 C 0.98864 0.06629 0.20344 0.0
C522 C 1.00365 0.04235 0.22901 0.0
C523 C 0.05931 0.99863 0.25068 0.0
C524 C 0.09815 0.9774 0.24574 0.0
C525 C 0.04256 1.02132 0.22451 0.0
C526 C 0.11975 0.97893 0.21424 0.0
C527 C 0.10385 1.00194 0.18841 0.0
H528 H 0.50579 0.06508 0.33448 0.0
H529 H 0.63078 0.07255 0.28193 0.0
H530 H 0.60258 0.03341 0.23655 0.0
H531 H 0.54401 0.99563 0.21233 0.0
H532 H 0.41867 0.98633 0.26383 0.0
H533 H 0.44541 1.02766 0.3089 0.0
C534 C 0.52676 0.05835 0.31299 0.0
C535 C 0.57054 0.07185 0.31184 0.0
C536 C 0.51035 0.03535 0.2868 0.0
C537 C 0.59713 0.06261 0.28375 0.0
C538 C 0.58101 0.04015 0.25768 0.0
C539 C 0.52227 1.00257 0.23333 0.0
C540 C 0.47931 0.98764 0.23462 0.0
C541 C 0.53791 1.02611 0.25908 0.0
C542 C 0.45184 0.99732 0.26209 0.0
C543 C 0.46719 1.02095 0.28791 0.0
H544 H 0.4981 0.50741 0.1738 0.0
H545 H 0.63053 0.49187 0.21256 0.0
H546 H 0.61291 0.53181 0.26106 0.0
H547 H 0.55906 0.56924 0.29348 0.0
H548 H 0.42617 0.58343 0.25517 0.0
H549 H 0.44486 0.54566 0.20553 0.0
C550 C 0.52339 0.513 0.19262 0.0
C551 C 0.56578 0.49672 0.18928 0.0
C552 C 0.51278 0.5355 0.22072 0.0
C553 C 0.59786 0.50427 0.21415 0.0
C554 C 0.58767 0.52694 0.24206 0.0
C555 C 0.53409 0.56418 0.27429 0.0
C556 C 0.49109 0.57919 0.27824 0.0
C557 C 0.54509 0.54237 0.24578 0.0
C558 C 0.45938 0.57223 0.25297 0.0
C559 C 0.47011 0.55067 0.2245 0.0
H560 H 1.01217 0.58764 0.7957 0.0
H561 H 0.94034 0.56413 0.70383 0.0
H562 H 0.89588 0.51801 0.73373 0.0
H563 H 0.87926 0.48302 0.7857 0.0
H564 H 0.95424 0.50449 0.87684 0.0
H565 H 0.99565 0.55265 0.84763 0.0
C566 C 0.98627 0.57283 0.78245 0.0
C567 C 0.97909 0.57949 0.74774 0.0
C568 C 0.96175 0.54573 0.79962 0.0
C569 C 0.94623 0.55945 0.73058 0.0
C570 C 0.92095 0.53309 0.74766 0.0
C571 C 0.90457 0.4983 0.7992 0.0
C572 C 0.91357 0.49008 0.83343 0.0
C573 C 0.92872 0.52572 0.78211 0.0
C574 C 0.94672 0.51005 0.85046 0.0
C575 C 0.97036 0.53772 0.8338 0.0
H576 H 0.0227 0.97019 0.73447 0.0
H577 H 0.96752 1.01317 0.82736 0.0
H578 H 0.92147 0.05689 0.79515 0.0
H579 H 0.89807 0.08349 0.74047 0.0
H580 H 0.95744 0.04335 0.64774 0.0
H581 H 1.00078 0.99796 0.67982 0.0
C582 C 1.00016 0.98888 0.7475 0.0
C583 C 0.99791 0.98829 0.78313 0.0
C584 C 0.97486 1.01455 0.72884 0.0
C585 C 0.96951 1.0132 0.79992 0.0
C586 C 0.9433 0.03812 0.78152 0.0
C587 C 0.9204 0.06473 0.72729 0.0
C588 C 0.92436 0.06669 0.69175 0.0
C589 C 0.94587 0.03918 0.74597 0.0
C590 C 0.95386 0.0425 0.67507 0.0
C591 C 0.97856 1.01645 0.69339 0.0
H592 H 0.63542 0.04203 0.83414 0.0
H593 H 0.65445 0.11638 0.7498 0.0
H594 H 0.63926 0.06625 0.71005 0.0
H595 H 0.61103 1.00351 0.69936 0.0
H596 H 0.59093 0.92933 0.78331 0.0
H597 H 0.61679 0.97676 0.8229 0.0
C598 C 0.63716 0.04712 0.80706 0.0
C599 C 0.6454 0.08317 0.79509 0.0
C600 C 0.62781 1.01817 0.78419 0.0
C601 C 0.64781 0.08908 0.75986 0.0
C602 C 0.63893 0.06041 0.73701 0.0
C603 C 0.61305 0.99763 0.72629 0.0
C604 C 0.59871 0.96312 0.73839 0.0
C605 C 0.62737 1.02523 0.74892 0.0
C606 C 0.60199 0.95557 0.77329 0.0
C607 C 0.61641 0.98284 0.79599 0.0
H608 H 0.63968 0.45836 0.71165 0.0
H609 H 0.65862 0.54261 0.63558 0.0
H610 H 0.63595 0.59037 0.67613 0.0
H611 H 0.60233 0.6073 0.7311 0.0
H612 H 0.58164 0.52261 0.80627 0.0
H613 H 0.61337 0.47604 0.76821 0.0
C614 C 0.63963 0.48722 0.70402 0.0
C615 C 0.65046 0.49672 0.67041 0.0
C616 C 0.62564 0.5145 0.72725 0.0
C617 C 0.65027 0.53436 0.66117 0.0
C618 C 0.6371 0.56174 0.68434 0.0
C619 C 0.60567 0.57884 0.73942 0.0
C620 C 0.5891 0.5684 0.77137 0.0
C621 C 0.62346 0.55203 0.71715 0.0
C622 C 0.5934 0.53125 0.78161 0.0
C623 C 0.61165 0.50461 0.75988 0.0
H624 H 0.97876 0.76518 0.20077 0.0
H625 H 0.99745 0.6794 0.27518 0.0
H626 H 0.98878 0.72464 0.32101 0.0
H627 H 0.99473 0.78961 0.33833 0.0
H628 H 0.98294 0.87583 0.26353 0.0
H629 H 0.96876 0.82969 0.21936 0.0
C630 C 0.97907 0.75631 0.22703 0.0
C631 C 0.98956 0.71939 0.23483 0.0
C632 C 0.97606 0.78274 0.25308 0.0
C633 C 0.99012 0.70798 0.26886 0.0
C634 C 0.98537 0.73381 0.29497 0.0
C635 C 0.98716 0.7983 0.31265 0.0
C636 C 0.99074 0.8358 0.30388 0.0
C637 C 0.98115 0.77154 0.28728 0.0
C638 C 0.98105 0.84689 0.27053 0.0
C639 C 0.97322 0.82055 0.24532 0.0
H640 H 0.89661 0.21866 0.24692 0.0
H641 H 1.00098 0.1423 0.27361 0.0
H642 H 0.9535 0.1143 0.3167 0.0
H643 H 0.87834 0.10653 0.34161 0.0
H644 H 0.77348 0.18009 0.30916 0.0
H645 H 0.82426 0.21295 0.27279 0.0
C646 C 0.90915 0.19624 0.26256 0.0
C647 C 0.95207 0.18257 0.25691 0.0
C648 C 0.88097 0.17894 0.28567 0.0
C649 C 0.96821 0.15374 0.27761 0.0
C650 C 0.94077 0.13729 0.30191 0.0
C651 C 0.8669 0.12998 0.3268 0.0
C652 C 0.82189 0.14034 0.32783 0.0
C653 C 0.89649 0.14883 0.30533 0.0
C654 C 0.80751 0.17083 0.30845 0.0
C655 C 0.8367 0.19001 0.28782 0.0
H656 H 0.55529 0.70888 0.27596 0.0
H657 H 0.54125 0.79373 0.35246 0.0
H658 H 0.54784 0.8416 0.30924 0.0
H659 H 0.53857 0.85809 0.24931 0.0
H660 H 0.54228 0.7724 0.17285 0.0
H661 H 0.55981 0.72633 0.21601 0.0
C662 C 0.55478 0.7379 0.28317 0.0
C663 C 0.54635 0.74778 0.3171 0.0
C664 C 0.55594 0.76514 0.25798 0.0
C665 C 0.54724 0.78536 0.32647 0.0
C666 C 0.55046 0.81277 0.30167 0.0
C667 C 0.54404 0.82942 0.24208 0.0
C668 C 0.5376 0.81846 0.20816 0.0
C669 C 0.55176 0.80284 0.26724 0.0
C670 C 0.54649 0.78154 0.19882 0.0
C671 C 0.55611 0.75509 0.22357 0.0
H672 H 0.64022 0.3389 0.25956 0.0
H673 H 0.55436 0.43442 0.25703 0.0
H674 H 0.59908 0.46479 0.30065 0.0
H675 H 0.66974 0.46774 0.33272 0.0
H676 H 0.75621 0.37218 0.33281 0.0
H677 H 0.7047 0.3384 0.29718 0.0
C678 C 0.63057 0.36579 0.26958 0.0
C679 C 0.59411 0.38425 0.25535 0.0
C680 C 0.65743 0.38356 0.29353 0.0
C681 C 0.5819 0.41934 0.26806 0.0
C682 C 0.60795 0.43699 0.29257 0.0
C683 C 0.67682 0.43938 0.32525 0.0
C684 C 0.71741 0.42299 0.3345 0.0
C685 C 0.64691 0.41998 0.30441 0.0
C686 C 0.72604 0.386 0.32502 0.0
C687 C 0.69636 0.36646 0.30488 0.0
H688 H 0.87317 0.20584 0.73302 0.0
H689 H 0.86667 0.30715 0.67528 0.0
H690 H 0.86417 0.34321 0.72776 0.0
H691 H 0.86851 0.346 0.78985 0.0
H692 H 0.87291 0.24456 0.84753 0.0
H693 H 0.87123 0.20848 0.79512 0.0
C694 C 0.8704 0.23574 0.7318 0.0
C695 C 0.87062 0.25371 0.70013 0.0
C696 C 0.86893 0.25631 0.76208 0.0
C697 C 0.8675 0.2926 0.69925 0.0
C698 C 0.86584 0.31325 0.72926 0.0
C699 C 0.86832 0.31603 0.79109 0.0
C700 C 0.87135 0.29812 0.82272 0.0
C701 C 0.86728 0.29541 0.76082 0.0
C702 C 0.87153 0.25916 0.82361 0.0
C703 C 0.87033 0.23846 0.79362 0.0
H704 H 0.309 0.98978 0.69906 0.0
H705 H 0.42102 0.95674 0.76022 0.0
H706 H 0.37655 0.96253 0.81147 0.0
H707 H 0.30392 0.97009 0.83834 0.0
H708 H 0.19131 1.00144 0.77714 0.0
H709 H 0.23805 1.00375 0.72682 0.0
C710 C 0.32386 0.98439 0.72362 0.0
C711 C 0.36807 0.9723 0.72566 0.0
C712 C 0.29791 0.98726 0.75311 0.0
C713 C 0.38686 0.96564 0.75779 0.0
C714 C 0.36147 0.96893 0.7872 0.0
C715 C 0.28975 0.97813 0.81414 0.0
C716 C 0.2441 0.98508 0.81149 0.0
C717 C 0.31664 0.97869 0.78509 0.0
C718 C 0.22632 0.99554 0.77988 0.0
C719 C 0.25299 0.99678 0.75101 0.0
H720 H 0.50684 0.26424 0.80874 0.0
H721 H 0.52623 0.16964 0.74362 0.0
H722 H 0.52934 0.21007 0.69384 0.0
H723 H 0.53379 0.27318 0.66987 0.0
H724 H 0.5109 0.36757 0.73467 0.0
H725 H 0.5013 0.32677 0.78361 0.0
C726 C 0.51079 0.25269 0.78348 0.0
C727 C 0.51625 0.21429 0.77958 0.0
C728 C 0.51219 0.2761 0.75511 0.0
C729 C 0.52145 0.19919 0.74695 0.0
C730 C 0.5236 0.2223 0.71862 0.0
C731 C 0.52591 0.28452 0.69467 0.0
C732 C 0.52312 0.32309 0.6989 0.0
C733 C 0.52005 0.26086 0.72251 0.0
C734 C 0.51277 0.33787 0.73094 0.0
C735 C 0.50762 0.31459 0.7589 0.0
H736 H 0.29568 0.55341 0.80945 0.0
H737 H 0.39816 0.59913 0.74611 0.0
H738 H 0.3494 0.59628 0.69701 0.0
H739 H 0.27528 0.58741 0.67336 0.0
H740 H 0.17159 0.54438 0.73696 0.0
H741 H 0.22337 0.53887 0.78429 0.0
C742 C 0.30753 0.56228 0.78483 0.0
C743 C 0.35029 0.57694 0.78165 0.0
C744 C 0.27906 0.56109 0.75663 0.0
C745 C 0.36519 0.58814 0.74946 0.0
C746 C 0.33735 0.58649 0.72126 0.0
C747 C 0.26428 0.57595 0.6973 0.0
C748 C 0.21965 0.56653 0.7017 0.0
C749 C 0.29387 0.57392 0.72472 0.0
C750 C 0.2058 0.55203 0.73301 0.0
C751 C 0.23532 0.54904 0.76015 0.0
H752 H 1.01823 0.54292 0.10526 0.0
H753 H 0.09993 0.57105 0.01925 0.0
H754 H 0.05714 0.52944 0.98348 0.0
H755 H 0.99653 0.4845 0.97648 0.0
H756 H 0.91743 0.45506 0.0632 0.0
H757 H 0.96001 0.49715 0.09892 0.0
C758 C 0.0274 0.53989 0.07888 0.0
C759 C 0.06262 0.56061 0.0653 0.0
C760 C 1.00308 0.51541 0.05845 0.0
C761 C 0.07287 0.55614 0.03065 0.0
C762 C 0.04846 0.53208 0.01006 0.0
C763 C 0.98852 0.4875 1.00315 0.0
C764 C 0.95378 0.46668 0.01713 0.0
C765 C 1.0134 0.51165 0.02366 0.0
C766 C 0.94424 0.47043 0.05187 0.0
C767 C 0.96844 0.49466 0.07228 0.0
H768 H 0.1075 0.09305 0.90878 0.0
H769 H 0.08701 0.99093 0.96321 0.0
H770 H 0.05965 1.02567 0.01215 0.0
H771 H 0.0411 0.08498 0.03959 0.0
H772 H 0.06159 0.18713 0.98553 0.0
H773 H 0.08968 0.15251 0.93658 0.0
C774 C 0.09717 0.07835 0.93136 0.0
C775 C 0.09932 0.03934 0.93216 0.0
C776 C 0.08142 0.09854 0.95956 0.0
C777 C 0.0858 1.02088 0.96176 0.0
C778 C 0.07004 0.04075 0.98982 0.0
C779 C 0.05129 0.09967 0.01699 0.0
C780 C 0.04898 0.13866 0.01624 0.0
C781 C 0.0675 0.07956 0.98896 0.0
C782 C 0.06328 0.15721 0.98694 0.0
C783 C 0.0792 0.13739 0.95887 0.0
H784 H 0.46022 0.97165 0.02059 0.0
H785 H 0.45325 0.04409 0.10763 0.0
H786 H 0.49425 0.0915 0.07684 0.0
H787 H 0.53205 0.11232 0.0252 0.0
H788 H 0.54098 0.03873 0.93881 0.0
H789 H 0.49847 0.99234 0.96907 0.0
C790 C 0.46719 0.99796 0.0327 0.0
C791 C 0.45349 1.00428 0.0664 0.0
C792 C 0.49109 1.02501 0.0149 0.0
C793 C 0.46366 0.03834 0.08187 0.0
C794 C 0.487 0.06553 0.06421 0.0
C795 C 0.52516 0.08609 0.01297 0.0
C796 C 0.5399 0.07942 0.97951 0.0
C797 C 0.50108 0.0591 0.03075 0.0
C798 C 0.52975 0.0452 0.9642 0.0
C799 C 0.50557 1.0184 0.98162 0.0
H800 H 0.56218 0.564 0.93854 0.0
H801 H 0.42846 0.52733 0.92115 0.0
H802 H 0.43771 0.47955 0.96466 0.0
H803 H 0.48382 0.44872 1.00823 0.0
H804 H 0.61801 0.48528 0.02385 0.0
H805 H 0.60831 0.53266 0.98063 0.0
C806 C 0.53491 0.54566 0.94423 0.0
C807 C 0.4946 0.54943 0.92662 0.0
C808 C 0.54054 0.5182 0.96907 0.0
C809 C 0.45984 0.52515 0.93431 0.0
C810 C 0.46513 0.49779 0.95919 0.0
C811 C 0.51109 0.46677 1.00197 0.0
C812 C 0.55155 0.46342 0.01963 0.0
C813 C 0.50538 0.49404 0.97676 0.0
C814 C 0.58629 0.48748 0.01127 0.0
C815 C 0.58086 0.51454 0.98635 0.0
H816 H 0.03349 0.02956 0.40858 0.0
H817 H 0.11295 0.99417 0.49367 0.0
H818 H 0.06716 0.03129 0.53198 0.0
H819 H 1.00409 0.07367 0.54148 0.0
H820 H 0.92382 0.10761 0.45632 0.0
H821 H 0.97021 0.07117 0.41807 0.0
C822 C 0.04064 0.02962 0.43552 0.0
C823 C 0.07675 1.00891 0.44807 0.0
C824 C 1.01396 0.05089 0.4575 0.0
C825 C 0.08581 1.01007 0.4831 0.0
C826 C 0.05941 0.03116 0.50512 0.0
C827 C 0.99649 0.07286 0.51462 0.0
C828 C 0.96042 0.09356 0.50194 0.0
C829 C 0.02331 0.05163 0.49263 0.0
C830 C 0.95161 0.09251 0.46687 0.0
C831 C 0.97803 0.07144 0.44492 0.0
H832 H 0.56868 0.09172 0.52079 0.0
H833 H 0.60652 1.00752 0.44855 0.0
H834 H 0.57027 0.96024 0.48301 0.0
H835 H 0.53191 0.9424 0.53559 0.0
H836 H 0.4924 1.02713 0.60715 0.0
H837 H 0.52482 0.07461 0.57102 0.0
C838 C 0.56879 0.06301 0.51262 0.0
C839 C 0.59056 0.05303 0.48236 0.0
C840 C 0.54763 0.03609 0.53247 0.0
C841 C 0.58983 1.01587 0.47167 0.0
C842 C 0.56931 0.98884 0.49146 0.0
C843 C 0.53 0.97129 0.54314 0.0
C844 C 0.51003 0.98108 0.57423 0.0
C845 C 0.54866 0.99854 0.52217 0.0
C846 C 0.50752 1.01873 0.58341 0.0
C847 C 0.52627 0.04593 0.56282 0.0
H848 H 0.54506 0.49219 0.54903 0.0
H849 H 0.60457 0.44041 0.46098 0.0
H850 H 0.56229 0.48105 0.42407 0.0
H851 H 0.50734 0.53095 0.41623 0.0
H852 H 0.44555 0.58074 0.50388 0.0
H853 H 0.48905 0.54073 0.54127 0.0
C854 C 0.54871 0.4893 0.52184 0.0
C855 C 0.57858 0.46297 0.50824 0.0
C856 C 0.52356 0.51246 0.50046 0.0
C857 C 0.58267 0.46049 0.47266 0.0
C858 C 0.55817 0.4837 0.4513 0.0
C859 C 0.50366 0.53317 0.44352 0.0
C860 C 0.47326 0.55883 0.45722 0.0
C861 C 0.52855 0.50982 0.46489 0.0
C862 C 0.46836 0.56099 0.49265 0.0
C863 C 0.4934 0.53822 0.51406 0.0
H864 H 0.94556 0.4475 0.54254 0.0
H865 H 0.94784 0.53943 0.47316 0.0
H866 H 0.99999 0.57212 0.51019 0.0
H867 H 0.04311 0.57515 0.56355 0.0
H868 H 0.04188 0.48148 0.63151 0.0
H869 H 0.99142 0.44896 0.59384 0.0
C870 C 0.95733 0.47477 0.53566 0.0
C871 C 0.94252 0.49125 0.50541 0.0
C872 C 0.98762 0.49306 0.55681 0.0
C873 C 0.95883 0.52622 0.49634 0.0
C874 C 0.98853 0.54491 0.51755 0.0
C875 C 0.03203 0.54753 0.56998 0.0
C876 C 0.04622 0.53096 0.60048 0.0
C877 C 1.00297 0.52869 0.548 0.0
C878 C 0.03166 0.49502 0.60827 0.0
C879 C 1.00258 0.47636 0.58677 0.0
loop_
_geom_bond_atom_site_label_1
_geom_bond_atom_site_label_2
_geom_bond_distance
_geom_bond_site_symmetry_2
_ccdc_geom_bond_type
Cu0 N1 1.999 . S
Cu0 O6 1.974 . S
Cu0 N11 1.985 . S
Cu0 O20 1.959 . S
N1 Cu0 1.999 . S
N1 C3 1.263 . S
N1 C5 1.389 . S
N2 C3 1.358 . S
N2 C4 1.400 . S
C3 N1 1.263 . S
C3 N2 1.358 . S
C3 H9 0.930 . S
C4 N2 1.400 . S
C4 C5 1.351 . S
C4 H21 0.930 . S
C5 N1 1.389 . S
C5 C4 1.351 . S
C5 H10 0.930 . S
O6 Cu0 1.974 . S
O6 C16 1.282 . S
C7 O8 1.261 . S
C7 O20 1.251 . S
O8 C7 1.261 . S
H9 C3 0.930 . S
H10 C5 0.930 . S
N11 Cu0 1.985 . S
N11 C13 1.335 . S
N11 C14 1.390 . S
N12 C13 1.345 . S
N12 C15 1.336 . S
C13 N11 1.335 . S
C13 N12 1.345 . S
C13 H18 0.930 . S
C14 N11 1.390 . S
C14 C15 1.346 . S
C14 H19 0.930 . S
C15 N12 1.336 . S
C15 C14 1.346 . S
C15 H22 0.929 . S
C16 O6 1.282 . S
C16 O17 1.216 . S
O17 C16 1.216 . S
H18 C13 0.930 . S
H19 C14 0.930 . S
O20 Cu0 1.959 . S
O20 C7 1.251 . S
H21 C4 0.930 . S
H22 C15 0.929 . S
Cu23 N24 1.999 . S
Cu23 O29 1.974 . S
Cu23 N34 1.985 . S
Cu23 O43 1.959 . S
N24 Cu23 1.999 . S
N24 C26 1.263 . S
N24 C28 1.389 . S
N25 C26 1.358 . S
N25 C27 1.400 . S
C26 N24 1.263 . S
C26 N25 1.358 . S
C26 H32 0.930 . S
C27 N25 1.400 . S
C27 C28 1.351 . S
C27 H44 0.930 . S
C28 N24 1.389 . S
C28 C27 1.351 . S
C28 H33 0.930 . S
O29 Cu23 1.974 . S
O29 C39 1.282 . S
C30 O31 1.261 . S
C30 O43 1.251 . S
O31 C30 1.261 . S
H32 C26 0.930 . S
H33 C28 0.930 . S
N34 Cu23 1.985 . S
N34 C36 1.335 . S
N34 C37 1.390 . S
N35 C36 1.345 . S
N35 C38 1.336 . S
C36 N34 1.335 . S
C36 N35 1.345 . S
C36 H41 0.930 . S
C37 N34 1.390 . S
C37 C38 1.346 . S
C37 H42 0.930 . S
C38 N35 1.336 . S
C38 C37 1.346 . S
C38 H45 0.929 . S
C39 O29 1.282 . S
C39 O40 1.216 . S
O40 C39 1.216 . S
H41 C36 0.930 . S
H42 C37 0.930 . S
O43 Cu23 1.959 . S
O43 C30 1.251 . S
H44 C27 0.930 . S
H45 C38 0.929 . S
Cu46 N47 1.999 . S
Cu46 O52 1.974 . S
Cu46 N57 1.985 . S
Cu46 O66 1.959 . S
N47 Cu46 1.999 . S
N47 C49 1.263 . S
N47 C51 1.389 . S
N48 C49 1.358 . S
N48 C50 1.400 . S
C49 N47 1.263 . S
C49 N48 1.358 . S
C49 H55 0.930 . S
C50 N48 1.400 . S
C50 C51 1.351 . S
C50 H67 0.930 . S
C51 N47 1.389 . S
C51 C50 1.351 . S
C51 H56 0.930 . S
O52 Cu46 1.974 . S
O52 C62 1.282 . S
C53 O54 1.261 . S
C53 O66 1.251 . S
O54 C53 1.261 . S
H55 C49 0.930 . S
H56 C51 0.930 . S
N57 Cu46 1.985 . S
N57 C59 1.335 . S
N57 C60 1.390 . S
N58 C59 1.345 . S
N58 C61 1.336 . S
C59 N57 1.335 . S
C59 N58 1.345 . S
C59 H64 0.930 . S
C60 N57 1.390 . S
C60 C61 1.346 . S
C60 H65 0.930 . S
C61 N58 1.336 . S
C61 C60 1.346 . S
C61 H68 0.929 . S
C62 O52 1.282 . S
C62 O63 1.216 . S
O63 C62 1.216 . S
H64 C59 0.930 . S
H65 C60 0.930 . S
O66 Cu46 1.959 . S
O66 C53 1.251 . S
H67 C50 0.930 . S
H68 C61 0.929 . S
Cu69 N70 1.999 . S
Cu69 O75 1.974 . S
Cu69 N80 1.985 . S
Cu69 O89 1.959 . S
N70 Cu69 1.999 . S
N70 C72 1.263 . S
N70 C74 1.389 . S
N71 C72 1.358 . S
N71 C73 1.400 . S
C72 N70 1.263 . S
C72 N71 1.358 . S
C72 H78 0.930 . S
C73 N71 1.400 . S
C73 C74 1.351 . S
C73 H90 0.930 . S
C74 N70 1.389 . S
C74 C73 1.351 . S
C74 H79 0.930 . S
O75 Cu69 1.974 . S
O75 C85 1.282 . S
C76 O77 1.261 . S
C76 O89 1.251 . S
O77 C76 1.261 . S
H78 C72 0.930 . S
H79 C74 0.930 . S
N80 Cu69 1.985 . S
N80 C82 1.335 . S
N80 C83 1.390 . S
N81 C82 1.345 . S
N81 C84 1.336 . S
C82 N80 1.335 . S
C82 N81 1.345 . S
C82 H87 0.930 . S
C83 N80 1.390 . S
C83 C84 1.346 . S
C83 H88 0.930 . S
C84 N81 1.336 . S
C84 C83 1.346 . S
C84 H91 0.929 . S
C85 O75 1.282 . S
C85 O86 1.216 . S
O86 C85 1.216 . S
H87 C82 0.930 . S
H88 C83 0.930 . S
O89 Cu69 1.959 . S
O89 C76 1.251 . S
H90 C73 0.930 . S
H91 C84 0.929 . S
Cu92 N93 1.999 . S
Cu92 O98 1.974 . S
Cu92 N103 1.985 . S
Cu92 O112 1.959 . S
N93 Cu92 1.999 . S
N93 C95 1.263 . S
N93 C97 1.389 . S
N94 C95 1.358 . S
N94 C96 1.400 . S
C95 N93 1.263 . S
C95 N94 1.358 . S
C95 H101 0.930 . S
C96 N94 1.400 . S
C96 C97 1.351 . S
C96 H113 0.930 . S
C97 N93 1.389 . S
C97 C96 1.351 . S
C97 H102 0.930 . S
O98 Cu92 1.974 . S
O98 C108 1.282 . S
C99 O100 1.261 . S
C99 O112 1.251 . S
O100 C99 1.261 . S
H101 C95 0.930 . S
H102 C97 0.930 . S
N103 Cu92 1.985 . S
N103 C105 1.335 . S
N103 C106 1.390 . S
N104 C105 1.345 . S
N104 C107 1.336 . S
C105 N103 1.335 . S
C105 N104 1.345 . S
C105 H110 0.930 . S
C106 N103 1.390 . S
C106 C107 1.346 . S
C106 H111 0.930 . S
C107 N104 1.336 . S
C107 C106 1.346 . S
C107 H114 0.929 . S
C108 O98 1.282 . S
C108 O109 1.216 . S
O109 C108 1.216 . S
H110 C105 0.930 . S
H111 C106 0.930 . S
O112 Cu92 1.959 . S
O112 C99 1.251 . S
H113 C96 0.930 . S
H114 C107 0.929 . S
Cu115 N116 1.999 . S
Cu115 O121 1.974 . S
Cu115 N126 1.985 . S
Cu115 O135 1.959 . S
N116 Cu115 1.999 . S
N116 C118 1.263 . S
N116 C120 1.389 . S
N117 C118 1.358 . S
N117 C119 1.400 . S
C118 N116 1.263 . S
C118 N117 1.358 . S
C118 H124 0.930 . S
C119 N117 1.400 . S
C119 C120 1.351 . S
C119 H136 0.930 . S
C120 N116 1.389 . S
C120 C119 1.351 . S
C120 H125 0.930 . S
O121 Cu115 1.974 . S
O121 C131 1.282 . S
C122 O123 1.261 . S
C122 O135 1.251 . S
O123 C122 1.261 . S
H124 C118 0.930 . S
H125 C120 0.930 . S
N126 Cu115 1.985 . S
N126 C128 1.335 . S
N126 C129 1.390 . S
N127 C128 1.345 . S
N127 C130 1.336 . S
C128 N126 1.335 . S
C128 N127 1.345 . S
C128 H133 0.930 . S
C129 N126 1.390 . S
C129 C130 1.346 . S
C129 H134 0.930 . S
C130 N127 1.336 . S
C130 C129 1.346 . S
C130 H137 0.929 . S
C131 O121 1.282 . S
C131 O132 1.216 . S
O132 C131 1.216 . S
H133 C128 0.930 . S
H134 C129 0.930 . S
O135 Cu115 1.959 . S
O135 C122 1.251 . S
H136 C119 0.930 . S
H137 C130 0.929 . S
Cu138 N139 1.999 . S
Cu138 O144 1.974 . S
Cu138 N149 1.985 . S
Cu138 O158 1.959 . S
N139 Cu138 1.999 . S
N139 C141 1.263 . S
N139 C143 1.389 . S
N140 C141 1.358 . S
N140 C142 1.400 . S
C141 N139 1.263 . S
C141 N140 1.358 . S
C141 H147 0.930 . S
C142 N140 1.400 . S
C142 C143 1.351 . S
C142 H159 0.930 . S
C143 N139 1.389 . S
C143 C142 1.351 . S
C143 H148 0.930 . S
O144 Cu138 1.974 . S
O144 C154 1.282 . S
C145 O146 1.261 . S
C145 O158 1.251 . S
O146 C145 1.261 . S
H147 C141 0.930 . S
H148 C143 0.930 . S
N149 Cu138 1.985 . S
N149 C151 1.335 . S
N149 C152 1.390 . S
N150 C151 1.345 . S
N150 C153 1.336 . S
C151 N149 1.335 . S
C151 N150 1.345 . S
C151 H156 0.930 . S
C152 N149 1.390 . S
C152 C153 1.346 . S
C152 H157 0.930 . S
C153 N150 1.336 . S
C153 C152 1.346 . S
C153 H160 0.929 . S
C154 O144 1.282 . S
C154 O155 1.216 . S
O155 C154 1.216 . S
H156 C151 0.930 . S
H157 C152 0.930 . S
O158 Cu138 1.959 . S
O158 C145 1.251 . S
H159 C142 0.930 . S
H160 C153 0.929 . S
Cu161 N162 1.999 . S
Cu161 O167 1.974 . S
Cu161 N172 1.985 . S
Cu161 O181 1.959 . S
N162 Cu161 1.999 . S
N162 C164 1.263 . S
N162 C166 1.389 . S
N163 C164 1.358 . S
N163 C165 1.400 . S
C164 N162 1.263 . S
C164 N163 1.358 . S
C164 H170 0.930 . S
C165 N163 1.400 . S
C165 C166 1.351 . S
C165 H182 0.930 . S
C166 N162 1.389 . S
C166 C165 1.351 . S
C166 H171 0.930 . S
O167 Cu161 1.974 . S
O167 C177 1.282 . S
C168 O169 1.261 . S
C168 O181 1.251 . S
O169 C168 1.261 . S
H170 C164 0.930 . S
H171 C166 0.930 . S
N172 Cu161 1.985 . S
N172 C174 1.335 . S
N172 C175 1.390 . S
N173 C174 1.345 . S
N173 C176 1.336 . S
C174 N172 1.335 . S
C174 N173 1.345 . S
C174 H179 0.930 . S
C175 N172 1.390 . S
C175 C176 1.346 . S
C175 H180 0.930 . S
C176 N173 1.336 . S
C176 C175 1.346 . S
C176 H183 0.929 . S
C177 O167 1.282 . S
C177 O178 1.216 . S
O178 C177 1.216 . S
H179 C174 0.930 . S
H180 C175 0.930 . S
O181 Cu161 1.959 . S
O181 C168 1.251 . S
H182 C165 0.930 . S
H183 C176 0.929 . S
Cu184 N185 1.999 . S
Cu184 O190 1.974 . S
Cu184 N195 1.985 . S
Cu184 O204 1.959 . S
N185 Cu184 1.999 . S
N185 C187 1.263 . S
N185 C189 1.389 . S
N186 C187 1.358 . S
N186 C188 1.400 . S
C187 N185 1.263 . S
C187 N186 1.358 . S
C187 H193 0.930 . S
C188 N186 1.400 . S
C188 C189 1.351 . S
C188 H205 0.930 . S
C189 N185 1.389 . S
C189 C188 1.351 . S
C189 H194 0.930 . S
O190 Cu184 1.974 . S
O190 C200 1.282 . S
C191 O192 1.261 . S
C191 O204 1.251 . S
O192 C191 1.261 . S
H193 C187 0.930 . S
H194 C189 0.930 . S
N195 Cu184 1.985 . S
N195 C197 1.335 . S
N195 C198 1.390 . S
N196 C197 1.345 . S
N196 C199 1.336 . S
C197 N195 1.335 . S
C197 N196 1.345 . S
C197 H202 0.930 . S
C198 N195 1.390 . S
C198 C199 1.346 . S
C198 H203 0.930 . S
C199 N196 1.336 . S
C199 C198 1.346 . S
C199 H206 0.929 . S
C200 O190 1.282 . S
C200 O201 1.216 . S
O201 C200 1.216 . S
H202 C197 0.930 . S
H203 C198 0.930 . S
O204 Cu184 1.959 . S
O204 C191 1.251 . S
H205 C188 0.930 . S
H206 C199 0.929 . S
Cu207 N208 1.999 . S
Cu207 O213 1.974 . S
Cu207 N218 1.985 . S
Cu207 O227 1.959 . S
N208 Cu207 1.999 . S
N208 C210 1.263 . S
N208 C212 1.389 . S
N209 C210 1.358 . S
N209 C211 1.400 . S
C210 N208 1.263 . S
C210 N209 1.358 . S
C210 H216 0.930 . S
C211 N209 1.400 . S
C211 C212 1.351 . S
C211 H228 0.930 . S
C212 N208 1.389 . S
C212 C211 1.351 . S
C212 H217 0.930 . S
O213 Cu207 1.974 . S
O213 C223 1.282 . S
C214 O215 1.261 . S
C214 O227 1.251 . S
O215 C214 1.261 . S
H216 C210 0.930 . S
H217 C212 0.930 . S
N218 Cu207 1.985 . S
N218 C220 1.335 . S
N218 C221 1.390 . S
N219 C220 1.345 . S
N219 C222 1.336 . S
C220 N218 1.335 . S
C220 N219 1.345 . S
C220 H225 0.930 . S
C221 N218 1.390 . S
C221 C222 1.346 . S
C221 H226 0.930 . S
C222 N219 1.336 . S
C222 C221 1.346 . S
C222 H229 0.929 . S
C223 O213 1.282 . S
C223 O224 1.216 . S
O224 C223 1.216 . S
H225 C220 0.930 . S
H226 C221 0.930 . S
O227 Cu207 1.959 . S
O227 C214 1.251 . S
H228 C211 0.930 . S
H229 C222 0.929 . S
Cu230 N231 1.999 . S
Cu230 O236 1.974 . S
Cu230 N241 1.985 . S
Cu230 O250 1.959 . S
N231 Cu230 1.999 . S
N231 C233 1.263 . S
N231 C235 1.389 . S
N232 C233 1.358 . S
N232 C234 1.400 . S
C233 N231 1.263 . S
C233 N232 1.358 . S
C233 H239 0.930 . S
C234 N232 1.400 . S
C234 C235 1.351 . S
C234 H251 0.930 . S
C235 N231 1.389 . S
C235 C234 1.351 . S
C235 H240 0.930 . S
O236 Cu230 1.974 . S
O236 C246 1.282 . S
C237 O238 1.261 . S
C237 O250 1.251 . S
O238 C237 1.261 . S
H239 C233 0.930 . S
H240 C235 0.930 . S
N241 Cu230 1.985 . S
N241 C243 1.335 . S
N241 C244 1.390 . S
N242 C243 1.345 . S
N242 C245 1.336 . S
C243 N241 1.335 . S
C243 N242 1.345 . S
C243 H248 0.930 . S
C244 N241 1.390 . S
C244 C245 1.346 . S
C244 H249 0.930 . S
C245 N242 1.336 . S
C245 C244 1.346 . S
C245 H252 0.929 . S
C246 O236 1.282 . S
C246 O247 1.216 . S
O247 C246 1.216 . S
H248 C243 0.930 . S
H249 C244 0.930 . S
O250 Cu230 1.959 . S
O250 C237 1.251 . S
H251 C234 0.930 . S
H252 C245 0.929 . S
Cu253 N254 1.999 . S
Cu253 O259 1.974 . S
Cu253 N264 1.985 . S
Cu253 O273 1.959 . S
N254 Cu253 1.999 . S
N254 C256 1.263 . S
N254 C258 1.389 . S
N255 C256 1.358 . S
N255 C257 1.400 . S
C256 N254 1.263 . S
C256 N255 1.358 . S
C256 H262 0.930 . S
C257 N255 1.400 . S
C257 C258 1.351 . S
C257 H274 0.930 . S
C258 N254 1.389 . S
C258 C257 1.351 . S
C258 H263 0.930 . S
O259 Cu253 1.974 . S
O259 C269 1.282 . S
C260 O261 1.261 . S
C260 O273 1.251 . S
O261 C260 1.261 . S
H262 C256 0.930 . S
H263 C258 0.930 . S
N264 Cu253 1.985 . S
N264 C266 1.335 . S
N264 C267 1.390 . S
N265 C266 1.345 . S
N265 C268 1.336 . S
C266 N264 1.335 . S
C266 N265 1.345 . S
C266 H271 0.930 . S
C267 N264 1.390 . S
C267 C268 1.346 . S
C267 H272 0.930 . S
C268 N265 1.336 . S
C268 C267 1.346 . S
C268 H275 0.929 . S
C269 O259 1.282 . S
C269 O270 1.216 . S
O270 C269 1.216 . S
H271 C266 0.930 . S
H272 C267 0.930 . S
O273 Cu253 1.959 . S
O273 C260 1.251 . S
H274 C257 0.930 . S
H275 C268 0.929 . S
Cu276 N277 1.999 . S
Cu276 O282 1.974 . S
Cu276 N287 1.985 . S
Cu276 O296 1.959 . S
N277 Cu276 1.999 . S
N277 C279 1.263 . S
N277 C281 1.389 . S
N278 C279 1.358 . S
N278 C280 1.400 . S
C279 N277 1.263 . S
C279 N278 1.358 . S
C279 H285 0.930 . S
C280 N278 1.400 . S
C280 C281 1.351 . S
C280 H297 0.930 . S
C281 N277 1.389 . S
C281 C280 1.351 . S
C281 H286 0.930 . S
O282 Cu276 1.974 . S
O282 C292 1.282 . S
C283 O284 1.261 . S
C283 O296 1.251 . S
O284 C283 1.261 . S
H285 C279 0.930 . S
H286 C281 0.930 . S
N287 Cu276 1.985 . S
N287 C289 1.335 . S
N287 C290 1.390 . S
N288 C289 1.345 . S
N288 C291 1.336 . S
C289 N287 1.335 . S
C289 N288 1.345 . S
C289 H294 0.930 . S
C290 N287 1.390 . S
C290 C291 1.346 . S
C290 H295 0.930 . S
C291 N288 1.336 . S
C291 C290 1.346 . S
C291 H298 0.929 . S
C292 O282 1.282 . S
C292 O293 1.216 . S
O293 C292 1.216 . S
H294 C289 0.930 . S
H295 C290 0.930 . S
O296 Cu276 1.959 . S
O296 C283 1.251 . S
H297 C280 0.930 . S
H298 C291 0.929 . S
Cu299 N300 1.999 . S
Cu299 O305 1.974 . S
Cu299 N310 1.985 . S
Cu299 O319 1.959 . S
N300 Cu299 1.999 . S
N300 C302 1.263 . S
N300 C304 1.389 . S
N301 C302 1.358 . S
N301 C303 1.400 . S
C302 N300 1.263 . S
C302 N301 1.358 . S
C302 H308 0.930 . S
C303 N301 1.400 . S
C303 C304 1.351 . S
C303 H320 0.930 . S
C304 N300 1.389 . S
C304 C303 1.351 . S
C304 H309 0.930 . S
O305 Cu299 1.974 . S
O305 C315 1.282 . S
C306 O307 1.261 . S
C306 O319 1.251 . S
O307 C306 1.261 . S
H308 C302 0.930 . S
H309 C304 0.930 . S
N310 Cu299 1.985 . S
N310 C312 1.335 . S
N310 C313 1.390 . S
N311 C312 1.345 . S
N311 C314 1.336 . S
C312 N310 1.335 . S
C312 N311 1.345 . S
C312 H317 0.930 . S
C313 N310 1.390 . S
C313 C314 1.346 . S
C313 H318 0.930 . S
C314 N311 1.336 . S
C314 C313 1.346 . S
C314 H321 0.929 . S
C315 O305 1.282 . S
C315 O316 1.216 . S
O316 C315 1.216 . S
H317 C312 0.930 . S
H318 C313 0.930 . S
O319 Cu299 1.959 . S
O319 C306 1.251 . S
H320 C303 0.930 . S
H321 C314 0.929 . S
Cu322 N323 1.999 . S
Cu322 O328 1.974 . S
Cu322 N333 1.985 . S
Cu322 O342 1.959 . S
N323 Cu322 1.999 . S
N323 C325 1.263 . S
N323 C327 1.389 . S
N324 C325 1.358 . S
N324 C326 1.400 . S
C325 N323 1.263 . S
C325 N324 1.358 . S
C325 H331 0.930 . S
C326 N324 1.400 . S
C326 C327 1.351 . S
C326 H343 0.930 . S
C327 N323 1.389 . S
C327 C326 1.351 . S
C327 H332 0.930 . S
O328 Cu322 1.974 . S
O328 C338 1.282 . S
C329 O330 1.261 . S
C329 O342 1.251 . S
O330 C329 1.261 . S
H331 C325 0.930 . S
H332 C327 0.930 . S
N333 Cu322 1.985 . S
N333 C335 1.335 . S
N333 C336 1.390 . S
N334 C335 1.345 . S
N334 C337 1.336 . S
C335 N333 1.335 . S
C335 N334 1.345 . S
C335 H340 0.930 . S
C336 N333 1.390 . S
C336 C337 1.346 . S
C336 H341 0.930 . S
C337 N334 1.336 . S
C337 C336 1.346 . S
C337 H344 0.929 . S
C338 O328 1.282 . S
C338 O339 1.216 . S
O339 C338 1.216 . S
H340 C335 0.930 . S
H341 C336 0.930 . S
O342 Cu322 1.959 . S
O342 C329 1.251 . S
H343 C326 0.930 . S
H344 C337 0.929 . S
Cu345 N346 1.999 . S
Cu345 O351 1.974 . S
Cu345 N356 1.985 . S
Cu345 O365 1.959 . S
N346 Cu345 1.999 . S
N346 C348 1.263 . S
N346 C350 1.389 . S
N347 C348 1.358 . S
N347 C349 1.400 . S
C348 N346 1.263 . S
C348 N347 1.358 . S
C348 H354 0.930 . S
C349 N347 1.400 . S
C349 C350 1.351 . S
C349 H366 0.930 . S
C350 N346 1.389 . S
C350 C349 1.351 . S
C350 H355 0.930 . S
O351 Cu345 1.974 . S
O351 C361 1.282 . S
C352 O353 1.261 . S
C352 O365 1.251 . S
O353 C352 1.261 . S
H354 C348 0.930 . S
H355 C350 0.930 . S
N356 Cu345 1.985 . S
N356 C358 1.335 . S
N356 C359 1.390 . S
N357 C358 1.345 . S
N357 C360 1.336 . S
C358 N356 1.335 . S
C358 N357 1.345 . S
C358 H363 0.930 . S
C359 N356 1.390 . S
C359 C360 1.346 . S
C359 H364 0.930 . S
C360 N357 1.336 . S
C360 C359 1.346 . S
C360 H367 0.929 . S
C361 O351 1.282 . S
C361 O362 1.216 . S
O362 C361 1.216 . S
H363 C358 0.930 . S
H364 C359 0.930 . S
O365 Cu345 1.959 . S
O365 C352 1.251 . S
H366 C349 0.930 . S
H367 C360 0.929 . S
H368 C374 0.930 . S
H369 C377 0.930 . S
H370 C378 0.930 . S
H371 C379 0.930 . S
H372 C382 0.930 . S
H373 C383 0.930 . S
C374 H368 0.930 . S
C374 C375 1.355 . S
C374 C376 1.415 . S
C375 C374 1.355 . S
C375 C377 1.419 . S
C376 C374 1.415 . S
C376 C381 1.425 . S
C376 C383 1.409 . S
C377 H369 0.930 . S
C377 C375 1.419 . S
C377 C378 1.362 . S
C378 H370 0.930 . S
C378 C377 1.362 . S
C378 C381 1.409 . S
C379 H371 0.930 . S
C379 C380 1.355 . S
C379 C381 1.415 . S
C380 C379 1.355 . S
C380 C382 1.419 . S
C381 C376 1.425 . S
C381 C378 1.409 . S
C381 C379 1.415 . S
C382 H372 0.930 . S
C382 C380 1.419 . S
C382 C383 1.362 . S
C383 H373 0.930 . S
C383 C376 1.409 . S
C383 C382 1.362 . S
H384 C390 0.930 . S
H385 C393 0.930 . S
H386 C394 0.930 . S
H387 C395 0.930 . S
H388 C398 0.930 . S
H389 C399 0.930 . S
C390 H384 0.930 . S
C390 C391 1.355 . S
C390 C392 1.415 . S
C391 C390 1.355 . S
C391 C393 1.419 . S
C392 C390 1.415 . S
C392 C397 1.425 . S
C392 C399 1.409 . S
C393 H385 0.930 . S
C393 C391 1.419 . S
C393 C394 1.362 . S
C394 H386 0.930 . S
C394 C393 1.362 . S
C394 C397 1.409 . S
C395 H387 0.930 . S
C395 C396 1.355 . S
C395 C397 1.415 . S
C396 C395 1.355 . S
C396 C398 1.419 . S
C397 C392 1.425 . S
C397 C394 1.409 . S
C397 C395 1.415 . S
C398 H388 0.930 . S
C398 C396 1.419 . S
C398 C399 1.362 . S
C399 H389 0.930 . S
C399 C392 1.409 . S
C399 C398 1.362 . S
H400 C406 0.930 . S
H401 C409 0.930 . S
H402 C410 0.930 . S
H403 C411 0.930 . S
H404 C414 0.930 . S
H405 C415 0.930 . S
C406 H400 0.930 . S
C406 C407 1.355 . S
C406 C408 1.415 . S
C407 C406 1.355 . S
C407 C409 1.419 . S
C408 C406 1.415 . S
C408 C413 1.425 . S
C408 C415 1.409 . S
C409 H401 0.930 . S
C409 C407 1.419 . S
C409 C410 1.362 . S
C410 H402 0.930 . S
C410 C409 1.362 . S
C410 C413 1.409 . S
C411 H403 0.930 . S
C411 C412 1.355 . S
C411 C413 1.415 . S
C412 C411 1.355 . S
C412 C414 1.419 . S
C413 C408 1.425 . S
C413 C410 1.409 . S
C413 C411 1.415 . S
C414 H404 0.930 . S
C414 C412 1.419 . S
C414 C415 1.362 . S
C415 H405 0.930 . S
C415 C408 1.409 . S
C415 C414 1.362 . S
H416 C422 0.930 . S
H417 C425 0.930 . S
H418 C426 0.930 . S
H419 C427 0.930 . S
H420 C430 0.930 . S
H421 C431 0.930 . S
C422 H416 0.930 . S
C422 C423 1.355 . S
C422 C424 1.415 . S
C423 C422 1.355 . S
C423 C425 1.419 . S
C424 C422 1.415 . S
C424 C429 1.425 . S
C424 C431 1.409 . S
C425 H417 0.930 . S
C425 C423 1.419 . S
C425 C426 1.362 . S
C426 H418 0.930 . S
C426 C425 1.362 . S
C426 C429 1.409 . S
C427 H419 0.930 . S
C427 C428 1.355 . S
C427 C429 1.415 . S
C428 C427 1.355 . S
C428 C430 1.419 . S
C429 C424 1.425 . S
C429 C426 1.409 . S
C429 C427 1.415 . S
C430 H420 0.930 . S
C430 C428 1.419 . S
C430 C431 1.362 . S
C431 H421 0.930 . S
C431 C424 1.409 . S
C431 C430 1.362 . S
H432 C438 0.930 . S
H433 C441 0.930 . S
H434 C442 0.930 . S
H435 C443 0.930 . S
H436 C446 0.930 . S
H437 C447 0.930 . S
C438 H432 0.930 . S
C438 C439 1.355 . S
C438 C440 1.415 . S
C439 C438 1.355 . S
C439 C441 1.419 . S
C440 C438 1.415 . S
C440 C445 1.425 . S
C440 C447 1.409 . S
C441 H433 0.930 . S
C441 C439 1.419 . S
C441 C442 1.362 . S
C442 H434 0.930 . S
C442 C441 1.362 . S
C442 C445 1.409 . S
C443 H435 0.930 . S
C443 C444 1.355 . S
C443 C445 1.415 . S
C444 C443 1.355 . S
C444 C446 1.419 . S
C445 C440 1.425 . S
C445 C442 1.409 . S
C445 C443 1.415 . S
C446 H436 0.930 . S
C446 C444 1.419 . S
C446 C447 1.362 . S
C447 H437 0.930 . S
C447 C440 1.409 . S
C447 C446 1.362 . S
H448 C454 0.930 . S
H449 C457 0.930 . S
H450 C458 0.930 . S
H451 C459 0.930 . S
H452 C462 0.930 . S
H453 C463 0.930 . S
C454 H448 0.930 . S
C454 C455 1.355 . S
C454 C456 1.415 . S
C455 C454 1.355 . S
C455 C457 1.419 . S
C456 C454 1.415 . S
C456 C461 1.425 . S
C456 C463 1.409 . S
C457 H449 0.930 . S
C457 C455 1.419 . S
C457 C458 1.362 . S
C458 H450 0.930 . S
C458 C457 1.362 . S
C458 C461 1.409 . S
C459 H451 0.930 . S
C459 C460 1.355 . S
C459 C461 1.415 . S
C460 C459 1.355 . S
C460 C462 1.419 . S
C461 C456 1.425 . S
C461 C458 1.409 . S
C461 C459 1.415 . S
C462 H452 0.930 . S
C462 C460 1.419 . S
C462 C463 1.362 . S
C463 H453 0.930 . S
C463 C456 1.409 . S
C463 C462 1.362 . S
H464 C470 0.930 . S
H465 C473 0.930 . S
H466 C474 0.930 . S
H467 C475 0.930 . S
H468 C478 0.930 . S
H469 C479 0.930 . S
C470 H464 0.930 . S
C470 C471 1.355 . S
C470 C472 1.415 . S
C471 C470 1.355 . S
C471 C473 1.419 . S
C472 C470 1.415 . S
C472 C477 1.425 . S
C472 C479 1.409 . S
C473 H465 0.930 . S
C473 C471 1.419 . S
C473 C474 1.362 . S
C474 H466 0.930 . S
C474 C473 1.362 . S
C474 C477 1.409 . S
C475 H467 0.930 . S
C475 C476 1.355 . S
C475 C477 1.415 . S
C476 C475 1.355 . S
C476 C478 1.419 . S
C477 C472 1.425 . S
C477 C474 1.409 . S
C477 C475 1.415 . S
C478 H468 0.930 . S
C478 C476 1.419 . S
C478 C479 1.362 . S
C479 H469 0.930 . S
C479 C472 1.409 . S
C479 C478 1.362 . S
H480 C486 0.930 . S
H481 C489 0.930 . S
H482 C490 0.930 . S
H483 C491 0.930 . S
H484 C494 0.930 . S
H485 C495 0.930 . S
C486 H480 0.930 . S
C486 C487 1.355 . S
C486 C488 1.415 . S
C487 C486 1.355 . S
C487 C489 1.419 . S
C488 C486 1.415 . S
C488 C493 1.425 . S
C488 C495 1.409 . S
C489 H481 0.930 . S
C489 C487 1.419 . S
C489 C490 1.362 . S
C490 H482 0.930 . S
C490 C489 1.362 . S
C490 C493 1.409 . S
C491 H483 0.930 . S
C491 C492 1.355 . S
C491 C493 1.415 . S
C492 C491 1.355 . S
C492 C494 1.419 . S
C493 C488 1.425 . S
C493 C490 1.409 . S
C493 C491 1.415 . S
C494 H484 0.930 . S
C494 C492 1.419 . S
C494 C495 1.362 . S
C495 H485 0.930 . S
C495 C488 1.409 . S
C495 C494 1.362 . S
H496 C502 0.930 1_655 S
H497 C505 0.930 . S
H498 C506 0.930 . S
H499 C507 0.930 . S
H500 C510 0.930 . S
H501 C511 0.930 1_655 S
C502 H496 0.930 1_455 S
C502 C503 1.355 . S
C502 C504 1.415 . S
C503 C502 1.355 . S
C503 C505 1.419 . S
C504 C502 1.415 . S
C504 C509 1.425 . S
C504 C511 1.409 . S
C505 H497 0.930 . S
C505 C503 1.419 . S
C505 C506 1.362 . S
C506 H498 0.930 . S
C506 C505 1.362 . S
C506 C509 1.409 . S
C507 H499 0.930 . S
C507 C508 1.355 . S
C507 C509 1.415 . S
C508 C507 1.355 . S
C508 C510 1.419 . S
C509 C504 1.425 . S
C509 C506 1.409 . S
C509 C507 1.415 . S
C510 H500 0.930 . S
C510 C508 1.419 . S
C510 C511 1.362 . S
C511 H501 0.930 1_455 S
C511 C504 1.409 . S
C511 C510 1.362 . S
H512 C518 0.930 . S
H513 C521 0.930 . S
H514 C522 0.930 . S
H515 C523 0.931 . S
H516 C526 0.930 . S
H517 C527 0.930 . S
C518 H512 0.930 . S
C518 C519 1.355 . S
C518 C520 1.415 . S
C519 C518 1.355 . S
C519 C521 1.419 1_455 S
C520 C518 1.415 . S
C520 C525 1.425 . S
C520 C527 1.409 . S
C521 H513 0.930 . S
C521 C519 1.419 1_655 S
C521 C522 1.362 . S
C522 H514 0.930 . S
C522 C521 1.362 . S
C522 C525 1.409 1_655 S
C523 H515 0.931 . S
C523 C524 1.356 . S
C523 C525 1.412 1_565 S
C524 C523 1.356 . S
C524 C526 1.419 1_565 S
C525 C520 1.425 . S
C525 C522 1.409 1_455 S
C525 C523 1.412 1_545 S
C526 H516 0.930 . S
C526 C524 1.419 1_545 S
C526 C527 1.362 . S
C527 H517 0.930 . S
C527 C520 1.409 . S
C527 C526 1.362 . S
H528 C534 0.930 . S
H529 C537 0.930 . S
H530 C538 0.930 . S
H531 C539 0.930 . S
H532 C542 0.930 . S
H533 C543 0.930 . S
C534 H528 0.930 . S
C534 C535 1.355 . S
C534 C536 1.415 . S
C535 C534 1.355 . S
C535 C537 1.419 . S
C536 C534 1.415 . S
C536 C541 1.425 . S
C536 C543 1.409 . S
C537 H529 0.930 . S
C537 C535 1.419 . S
C537 C538 1.362 . S
C538 H530 0.930 . S
C538 C537 1.362 . S
C538 C541 1.409 . S
C539 H531 0.930 . S
C539 C540 1.355 . S
C539 C541 1.415 1_565 S
C540 C539 1.355 . S
C540 C542 1.419 1_565 S
C541 C536 1.425 . S
C541 C538 1.409 . S
C541 C539 1.415 1_545 S
C542 H532 0.930 . S
C542 C540 1.419 1_545 S
C542 C543 1.362 . S
C543 H533 0.930 . S
C543 C536 1.409 . S
C543 C542 1.362 . S
H544 C550 0.930 . S
H545 C553 0.930 . S
H546 C554 0.930 . S
H547 C555 0.930 . S
H548 C558 0.930 . S
H549 C559 0.930 . S
C550 H544 0.930 . S
C550 C551 1.355 . S
C550 C552 1.415 . S
C551 C550 1.355 . S
C551 C553 1.419 . S
C552 C550 1.415 . S
C552 C557 1.425 . S
C552 C559 1.409 . S
C553 H545 0.930 . S
C553 C551 1.419 . S
C553 C554 1.362 . S
C554 H546 0.930 . S
C554 C553 1.362 . S
C554 C557 1.409 . S
C555 H547 0.930 . S
C555 C556 1.355 . S
C555 C557 1.415 . S
C556 C555 1.355 . S
C556 C558 1.419 . S
C557 C552 1.425 . S
C557 C554 1.409 . S
C557 C555 1.415 . S
C558 H548 0.930 . S
C558 C556 1.419 . S
C558 C559 1.362 . S
C559 H549 0.930 . S
C559 C552 1.409 . S
C559 C558 1.362 . S
H560 C566 0.930 1_455 S
H561 C569 0.930 . S
H562 C570 0.930 . S
H563 C571 0.930 . S
H564 C574 0.930 . S
H565 C575 0.930 . S
C566 H560 0.930 1_655 S
C566 C567 1.355 . S
C566 C568 1.415 . S
C567 C566 1.355 . S
C567 C569 1.419 . S
C568 C566 1.415 . S
C568 C573 1.425 . S
C568 C575 1.409 . S
C569 H561 0.930 . S
C569 C567 1.419 . S
C569 C570 1.362 . S
C570 H562 0.930 . S
C570 C569 1.362 . S
C570 C573 1.409 . S
C571 H563 0.930 . S
C571 C572 1.355 . S
C571 C573 1.415 . S
C572 C571 1.355 . S
C572 C574 1.419 . S
C573 C568 1.425 . S
C573 C570 1.409 . S
C573 C571 1.415 . S
C574 H564 0.930 . S
C574 C572 1.419 . S
C574 C575 1.362 . S
C575 H565 0.930 . S
C575 C568 1.409 . S
C575 C574 1.362 . S
H576 C582 0.930 1_455 S
H577 C585 0.930 . S
H578 C586 0.930 . S
H579 C587 0.930 1_565 S
H580 C590 0.930 . S
H581 C591 0.930 . S
C582 H576 0.930 1_655 S
C582 C583 1.355 1_545 S
C582 C584 1.415 . S
C583 C582 1.355 1_565 S
C583 C585 1.419 . S
C584 C582 1.415 . S
C584 C589 1.425 1_545 S
C584 C591 1.409 . S
C585 H577 0.930 . S
C585 C583 1.419 . S
C585 C586 1.362 . S
C586 H578 0.930 . S
C586 C585 1.362 . S
C586 C589 1.409 . S
C587 H579 0.930 1_545 S
C587 C588 1.355 . S
C587 C589 1.415 1_545 S
C588 C587 1.355 . S
C588 C590 1.419 . S
C589 C584 1.425 1_565 S
C589 C586 1.409 . S
C589 C587 1.415 1_565 S
C590 H580 0.930 . S
C590 C588 1.419 . S
C590 C591 1.362 . S
C591 H581 0.930 . S
C591 C584 1.409 . S
C591 C590 1.362 . S
H592 C598 0.930 . S
H593 C601 0.930 . S
H594 C602 0.930 . S
H595 C603 0.929 1_545 S
H596 C606 0.930 . S
H597 C607 0.931 . S
C598 H592 0.930 . S
C598 C599 1.355 . S
C598 C600 1.415 . S
C599 C598 1.355 . S
C599 C601 1.419 . S
C600 C598 1.415 . S
C600 C605 1.425 . S
C600 C607 1.416 . S
C601 H593 0.930 . S
C601 C599 1.419 . S
C601 C602 1.362 . S
C602 H594 0.930 . S
C602 C601 1.362 . S
C602 C605 1.409 . S
C603 H595 0.929 1_565 S
C603 C604 1.354 . S
C603 C605 1.415 1_565 S
C604 C603 1.354 . S
C604 C606 1.419 . S
C605 C600 1.425 . S
C605 C602 1.409 . S
C605 C603 1.415 1_545 S
C606 H596 0.930 . S
C606 C604 1.419 . S
C606 C607 1.355 1_565 S
C607 H597 0.931 . S
C607 C600 1.416 . S
C607 C606 1.355 1_545 S
H608 C614 0.930 . S
H609 C617 0.930 . S
H610 C618 0.930 . S
H611 C619 0.930 . S
H612 C622 0.930 . S
H613 C623 0.930 . S
C614 H608 0.930 . S
C614 C615 1.355 . S
C614 C616 1.415 . S
C615 C614 1.355 . S
C615 C617 1.419 . S
C616 C614 1.415 . S
C616 C621 1.425 . S
C616 C623 1.409 . S
C617 H609 0.930 . S
C617 C615 1.419 . S
C617 C618 1.362 . S
C618 H610 0.930 . S
C618 C617 1.362 . S
C618 C621 1.409 . S
C619 H611 0.930 . S
C619 C620 1.355 . S
C619 C621 1.415 . S
C620 C619 1.355 . S
C620 C622 1.419 . S
C621 C616 1.425 . S
C621 C618 1.409 . S
C621 C619 1.415 . S
C622 H612 0.930 . S
C622 C620 1.419 . S
C622 C623 1.362 . S
C623 H613 0.930 . S
C623 C616 1.409 . S
C623 C622 1.362 . S
H624 C630 0.930 . S
H625 C633 0.930 . S
H626 C634 0.930 . S
H627 C635 0.930 . S
H628 C638 0.930 . S
H629 C639 0.930 . S
C630 H624 0.930 . S
C630 C631 1.355 . S
C630 C632 1.415 . S
C631 C630 1.355 . S
C631 C633 1.419 . S
C632 C630 1.415 . S
C632 C637 1.425 . S
C632 C639 1.409 . S
C633 H625 0.930 . S
C633 C631 1.419 . S
C633 C634 1.362 . S
C634 H626 0.930 . S
C634 C633 1.362 . S
C634 C637 1.409 . S
C635 H627 0.930 . S
C635 C636 1.355 . S
C635 C637 1.415 . S
C636 C635 1.355 . S
C636 C638 1.419 . S
C637 C632 1.425 . S
C637 C634 1.409 . S
C637 C635 1.415 . S
C638 H628 0.930 . S
C638 C636 1.419 . S
C638 C639 1.362 . S
C639 H629 0.930 . S
C639 C632 1.409 . S
C639 C638 1.362 . S
H640 C646 0.930 . S
H641 C649 0.930 . S
H642 C650 0.930 . S
H643 C651 0.930 . S
H644 C654 0.930 . S
H645 C655 0.930 . S
C646 H640 0.930 . S
C646 C647 1.355 . S
C646 C648 1.415 . S
C647 C646 1.355 . S
C647 C649 1.419 . S
C648 C646 1.415 . S
C648 C653 1.425 . S
C648 C655 1.409 . S
C649 H641 0.930 . S
C649 C647 1.419 . S
C649 C650 1.362 . S
C650 H642 0.930 . S
C650 C649 1.362 . S
C650 C653 1.409 . S
C651 H643 0.930 . S
C651 C652 1.355 . S
C651 C653 1.415 . S
C652 C651 1.355 . S
C652 C654 1.419 . S
C653 C648 1.425 . S
C653 C650 1.409 . S
C653 C651 1.415 . S
C654 H644 0.930 . S
C654 C652 1.419 . S
C654 C655 1.362 . S
C655 H645 0.930 . S
C655 C648 1.409 . S
C655 C654 1.362 . S
H656 C662 0.930 . S
H657 C665 0.930 . S
H658 C666 0.930 . S
H659 C667 0.930 . S
H660 C670 0.930 . S
H661 C671 0.930 . S
C662 H656 0.930 . S
C662 C663 1.355 . S
C662 C664 1.415 . S
C663 C662 1.355 . S
C663 C665 1.419 . S
C664 C662 1.415 . S
C664 C669 1.425 . S
C664 C671 1.409 . S
C665 H657 0.930 . S
C665 C663 1.419 . S
C665 C666 1.362 . S
C666 H658 0.930 . S
C666 C665 1.362 . S
C666 C669 1.409 . S
C667 H659 0.930 . S
C667 C668 1.355 . S
C667 C669 1.415 . S
C668 C667 1.355 . S
C668 C670 1.419 . S
C669 C664 1.425 . S
C669 C666 1.409 . S
C669 C667 1.415 . S
C670 H660 0.930 . S
C670 C668 1.419 . S
C670 C671 1.362 . S
C671 H661 0.930 . S
C671 C664 1.409 . S
C671 C670 1.362 . S
H672 C678 0.930 . S
H673 C681 0.930 . S
H674 C682 0.930 . S
H675 C683 0.930 . S
H676 C686 0.930 . S
H677 C687 0.930 . S
C678 H672 0.930 . S
C678 C679 1.355 . S
C678 C680 1.415 . S
C679 C678 1.355 . S
C679 C681 1.419 . S
C680 C678 1.415 . S
C680 C685 1.425 . S
C680 C687 1.409 . S
C681 H673 0.930 . S
C681 C679 1.419 . S
C681 C682 1.362 . S
C682 H674 0.930 . S
C682 C681 1.362 . S
C682 C685 1.409 . S
C683 H675 0.930 . S
C683 C684 1.355 . S
C683 C685 1.415 . S
C684 C683 1.355 . S
C684 C686 1.419 . S
C685 C680 1.425 . S
C685 C682 1.409 . S
C685 C683 1.415 . S
C686 H676 0.930 . S
C686 C684 1.419 . S
C686 C687 1.362 . S
C687 H677 0.930 . S
C687 C680 1.409 . S
C687 C686 1.362 . S
H688 C694 0.930 . S
H689 C697 0.930 . S
H690 C698 0.930 . S
H691 C699 0.930 . S
H692 C702 0.930 . S
H693 C703 0.930 . S
C694 H688 0.930 . S
C694 C695 1.355 . S
C694 C696 1.415 . S
C695 C694 1.355 . S
C695 C697 1.419 . S
C696 C694 1.415 . S
C696 C701 1.425 . S
C696 C703 1.409 . S
C697 H689 0.930 . S
C697 C695 1.419 . S
C697 C698 1.362 . S
C698 H690 0.930 . S
C698 C697 1.362 . S
C698 C701 1.409 . S
C699 H691 0.930 . S
C699 C700 1.355 . S
C699 C701 1.415 . S
C700 C699 1.355 . S
C700 C702 1.419 . S
C701 C696 1.425 . S
C701 C698 1.409 . S
C701 C699 1.415 . S
C702 H692 0.930 . S
C702 C700 1.419 . S
C702 C703 1.362 . S
C703 H693 0.930 . S
C703 C696 1.409 . S
C703 C702 1.362 . S
H704 C710 0.930 . S
H705 C713 0.930 . S
H706 C714 0.930 . S
H707 C715 0.930 . S
H708 C718 0.930 . S
H709 C719 0.930 . S
C710 H704 0.930 . S
C710 C711 1.355 . S
C710 C712 1.415 . S
C711 C710 1.355 . S
C711 C713 1.419 . S
C712 C710 1.415 . S
C712 C717 1.425 . S
C712 C719 1.409 . S
C713 H705 0.930 . S
C713 C711 1.419 . S
C713 C714 1.362 . S
C714 H706 0.930 . S
C714 C713 1.362 . S
C714 C717 1.409 . S
C715 H707 0.930 . S
C715 C716 1.355 . S
C715 C717 1.415 . S
C716 C715 1.355 . S
C716 C718 1.419 . S
C717 C712 1.425 . S
C717 C714 1.409 . S
C717 C715 1.415 . S
C718 H708 0.930 . S
C718 C716 1.419 . S
C718 C719 1.362 . S
C719 H709 0.930 . S
C719 C712 1.409 . S
C719 C718 1.362 . S
H720 C726 0.930 . S
H721 C729 0.930 . S
H722 C730 0.930 . S
H723 C731 0.930 . S
H724 C734 0.930 . S
H725 C735 0.930 . S
C726 H720 0.930 . S
C726 C727 1.355 . S
C726 C728 1.415 . S
C727 C726 1.355 . S
C727 C729 1.419 . S
C728 C726 1.415 . S
C728 C733 1.425 . S
C728 C735 1.409 . S
C729 H721 0.930 . S
C729 C727 1.419 . S
C729 C730 1.362 . S
C730 H722 0.930 . S
C730 C729 1.362 . S
C730 C733 1.409 . S
C731 H723 0.930 . S
C731 C732 1.355 . S
C731 C733 1.415 . S
C732 C731 1.355 . S
C732 C734 1.419 . S
C733 C728 1.425 . S
C733 C730 1.409 . S
C733 C731 1.415 . S
C734 H724 0.930 . S
C734 C732 1.419 . S
C734 C735 1.362 . S
C735 H725 0.930 . S
C735 C728 1.409 . S
C735 C734 1.362 . S
H736 C742 0.930 . S
H737 C745 0.930 . S
H738 C746 0.930 . S
H739 C747 0.930 . S
H740 C750 0.930 . S
H741 C751 0.930 . S
C742 H736 0.930 . S
C742 C743 1.355 . S
C742 C744 1.415 . S
C743 C742 1.355 . S
C743 C745 1.419 . S
C744 C742 1.415 . S
C744 C749 1.425 . S
C744 C751 1.409 . S
C745 H737 0.930 . S
C745 C743 1.419 . S
C745 C746 1.362 . S
C746 H738 0.930 . S
C746 C745 1.362 . S
C746 C749 1.409 . S
C747 H739 0.930 . S
C747 C748 1.355 . S
C747 C749 1.415 . S
C748 C747 1.355 . S
C748 C750 1.419 . S
C749 C744 1.425 . S
C749 C746 1.409 . S
C749 C747 1.415 . S
C750 H740 0.930 . S
C750 C748 1.419 . S
C750 C751 1.362 . S
C751 H741 0.930 . S
C751 C744 1.409 . S
C751 C750 1.362 . S
H752 C758 0.930 . S
H753 C761 0.930 . S
H754 C762 0.930 1_556 S
H755 C763 0.930 . S
H756 C766 0.930 . S
H757 C767 0.930 . S
C758 H752 0.930 . S
C758 C759 1.355 . S
C758 C760 1.415 1_455 S
C759 C758 1.355 . S
C759 C761 1.419 . S
C760 C758 1.415 1_655 S
C760 C765 1.425 . S
C760 C767 1.409 . S
C761 H753 0.930 . S
C761 C759 1.419 . S
C761 C762 1.362 . S
C762 H754 0.930 1_554 S
C762 C761 1.362 . S
C762 C765 1.409 1_455 S
C763 H755 0.930 . S
C763 C764 1.355 . S
C763 C765 1.415 1_556 S
C764 C763 1.355 . S
C764 C766 1.419 1_556 S
C765 C760 1.425 . S
C765 C762 1.409 1_655 S
C765 C763 1.415 1_554 S
C766 H756 0.930 . S
C766 C764 1.419 1_554 S
C766 C767 1.362 . S
C767 H757 0.930 . S
C767 C760 1.409 . S
C767 C766 1.362 . S
H768 C774 0.930 . S
H769 C777 0.930 . S
H770 C778 0.930 1_554 S
H771 C779 0.930 . S
H772 C782 0.930 . S
H773 C783 0.930 1_655 S
C774 H768 0.930 . S
C774 C775 1.355 . S
C774 C776 1.415 1_565 S
C775 C774 1.355 . S
C775 C777 1.419 . S
C776 C774 1.415 1_545 S
C776 C781 1.425 . S
C776 C783 1.409 . S
C777 H769 0.930 . S
C777 C775 1.419 . S
C777 C778 1.362 . S
C778 H770 0.930 1_556 S
C778 C777 1.362 . S
C778 C781 1.409 1_565 S
C779 H771 0.930 . S
C779 C780 1.355 . S
C779 C781 1.415 1_554 S
C780 C779 1.355 . S
C780 C782 1.419 1_454 S
C781 C776 1.425 . S
C781 C778 1.409 1_545 S
C781 C779 1.415 1_556 S
C782 H772 0.930 . S
C782 C780 1.419 1_656 S
C782 C783 1.362 1_655 S
C783 H773 0.930 1_455 S
C783 C776 1.409 . S
C783 C782 1.362 1_455 S
H784 C790 0.930 . S
H785 C793 0.930 . S
H786 C794 0.930 . S
H787 C795 0.930 . S
H788 C798 0.930 . S
H789 C799 0.930 . S
C790 H784 0.930 . S
C790 C791 1.355 . S
C790 C792 1.415 . S
C791 C790 1.355 . S
C791 C793 1.419 1_565 S
C792 C790 1.415 . S
C792 C797 1.425 1_565 S
C792 C799 1.409 1_554 S
C793 H785 0.930 . S
C793 C791 1.419 1_545 S
C793 C794 1.362 . S
C794 H786 0.930 . S
C794 C793 1.362 . S
C794 C797 1.409 . S
C795 H787 0.930 . S
C795 C796 1.355 1_554 S
C795 C797 1.415 . S
C796 C795 1.355 1_556 S
C796 C798 1.419 1_545 S
C797 C792 1.425 1_545 S
C797 C794 1.409 . S
C797 C795 1.415 . S
C798 H788 0.930 . S
C798 C796 1.419 1_565 S
C798 C799 1.362 . S
C799 H789 0.930 . S
C799 C792 1.409 1_556 S
C799 C798 1.362 . S
H800 C806 0.930 . S
H801 C809 0.930 . S
H802 C810 0.930 . S
H803 C811 0.930 . S
H804 C814 0.930 . S
H805 C815 0.930 . S
C806 H800 0.930 . S
C806 C807 1.355 . S
C806 C808 1.415 . S
C807 C806 1.355 . S
C807 C809 1.419 . S
C808 C806 1.415 . S
C808 C813 1.425 . S
C808 C815 1.409 . S
C809 H801 0.930 . S
C809 C807 1.419 . S
C809 C810 1.362 . S
C810 H802 0.930 . S
C810 C809 1.362 . S
C810 C813 1.409 . S
C811 H803 0.930 . S
C811 C812 1.355 . S
C811 C813 1.415 1_554 S
C812 C811 1.355 . S
C812 C814 1.419 1_554 S
C813 C808 1.425 . S
C813 C810 1.409 . S
C813 C811 1.415 1_556 S
C814 H804 0.930 . S
C814 C812 1.419 1_556 S
C814 C815 1.362 . S
C815 H805 0.930 . S
C815 C808 1.409 . S
C815 C814 1.362 . S
H816 C822 0.930 . S
H817 C825 0.930 . S
H818 C826 0.930 . S
H819 C827 0.930 . S
H820 C830 0.930 . S
H821 C831 0.930 . S
C822 H816 0.930 . S
C822 C823 1.355 . S
C822 C824 1.415 1_455 S
C823 C822 1.355 . S
C823 C825 1.419 1_565 S
C824 C822 1.415 1_655 S
C824 C829 1.425 1_565 S
C824 C831 1.409 . S
C825 H817 0.930 . S
C825 C823 1.419 1_545 S
C825 C826 1.362 . S
C826 H818 0.930 . S
C826 C825 1.362 . S
C826 C829 1.409 1_455 S
C827 H819 0.930 . S
C827 C828 1.355 . S
C827 C829 1.415 . S
C828 C827 1.355 . S
C828 C830 1.419 1_545 S
C829 C824 1.425 1_545 S
C829 C826 1.409 1_655 S
C829 C827 1.415 . S
C830 H820 0.930 . S
C830 C828 1.419 1_565 S
C830 C831 1.362 . S
C831 H821 0.930 . S
C831 C824 1.409 . S
C831 C830 1.362 . S
H832 C838 0.930 . S
H833 C841 0.930 . S
H834 C842 0.930 1_565 S
H835 C843 0.930 . S
H836 C846 0.930 . S
H837 C847 0.930 . S
C838 H832 0.930 . S
C838 C839 1.355 . S
C838 C840 1.415 . S
C839 C838 1.355 . S
C839 C841 1.419 . S
C840 C838 1.415 . S
C840 C845 1.425 1_545 S
C840 C847 1.409 . S
C841 H833 0.930 . S
C841 C839 1.419 . S
C841 C842 1.362 . S
C842 H834 0.930 1_545 S
C842 C841 1.362 . S
C842 C845 1.409 1_545 S
C843 H835 0.930 . S
C843 C844 1.355 . S
C843 C845 1.415 . S
C844 C843 1.355 . S
C844 C846 1.419 . S
C845 C840 1.425 1_565 S
C845 C842 1.409 1_565 S
C845 C843 1.415 . S
C846 H836 0.930 . S
C846 C844 1.419 . S
C846 C847 1.362 1_565 S
C847 H837 0.930 . S
C847 C840 1.409 . S
C847 C846 1.362 1_545 S
H848 C854 0.930 . S
H849 C857 0.930 . S
H850 C858 0.930 . S
H851 C859 0.930 . S
H852 C862 0.930 . S
H853 C863 0.930 . S
C854 H848 0.930 . S
C854 C855 1.355 . S
C854 C856 1.415 . S
C855 C854 1.355 . S
C855 C857 1.419 . S
C856 C854 1.415 . S
C856 C861 1.425 . S
C856 C863 1.409 . S
C857 H849 0.930 . S
C857 C855 1.419 . S
C857 C858 1.362 . S
C858 H850 0.930 . S
C858 C857 1.362 . S
C858 C861 1.409 . S
C859 H851 0.930 . S
C859 C860 1.355 . S
C859 C861 1.415 . S
C860 C859 1.355 . S
C860 C862 1.419 . S
C861 C856 1.425 . S
C861 C858 1.409 . S
C861 C859 1.415 . S
C862 H852 0.930 . S
C862 C860 1.419 . S
C862 C863 1.362 . S
C863 H853 0.930 . S
C863 C856 1.409 . S
C863 C862 1.362 . S
H864 C870 0.930 . S
H865 C873 0.930 . S
H866 C874 0.930 . S
H867 C875 0.930 . S
H868 C878 0.930 . S
H869 C879 0.930 . S
C870 H864 0.930 . S
C870 C871 1.355 . S
C870 C872 1.415 . S
C871 C870 1.355 . S
C871 C873 1.419 1_455 S
C872 C870 1.415 . S
C872 C877 1.425 1_455 S
C872 C879 1.409 . S
C873 H865 0.930 . S
C873 C871 1.419 1_655 S
C873 C874 1.362 . S
C874 H866 0.930 . S
C874 C873 1.362 . S
C874 C877 1.409 . S
C875 H867 0.930 . S
C875 C876 1.355 1_655 S
C875 C877 1.415 . S
C876 C875 1.355 1_455 S
C876 C878 1.419 . S
C877 C872 1.425 1_655 S
C877 C874 1.409 . S
C877 C875 1.415 . S
C878 H868 0.930 . S
C878 C876 1.419 . S
C878 C879 1.362 . S
C879 H869 0.930 . S
C879 C872 1.409 . S
C879 C878 1.362 . S
C375 C16 1.911 . S
C380 C62 1.950 . S
C391 C39 2.092 . S
C396 C85 2.100 . S
C407 C108 1.911 . S
C412 C154 1.943 . S
C423 C177 2.096 . S
C428 C131 2.096 . S
C439 C200 1.368 . S
C444 C246 1.405 . S
C455 N265 1.319 . S
C460 N219 1.314 . S
C471 C338 1.391 . S
C476 C292 1.434 . S
C487 N357 1.314 . S
C492 N311 1.316 . S
C503 C168 2.261 1_455 S
C508 C7 2.271 . S
C519 C30 2.239 1_455 S
C524 C99 2.267 . S
C535 C122 2.242 . S
C540 C53 2.270 . S
C551 C76 2.267 . S
C556 C145 2.287 . S
C567 N347 1.499 1_655 S
C572 C191 1.625 . S
C583 N209 1.492 1_655 S
C588 C283 1.620 . S
C599 C237 1.619 . S
C604 N301 1.484 . S
C615 C329 1.661 . S
C620 N255 1.552 . S
C631 N2 0.916 . S
C636 N94 1.038 . S
C647 N25 0.757 . S
C652 N117 0.913 . S
C663 N140 0.940 . S
C668 N48 0.917 . S
C679 N71 0.763 . S
C684 N163 0.917 . S
C695 N278 1.093 . S
C700 N186 0.975 . S
C711 C306 1.244 . S
C716 C214 1.267 . S
C727 N232 0.989 . S
C732 N324 1.102 . S
C743 C260 1.264 . S
C748 C352 1.218 . S
C759 N12 2.233 . S
C764 N196 2.243 . S
C775 C223 1.948 . S
C780 N35 2.045 1_455 S
C791 N58 2.222 . S
C796 N242 2.232 . S
C807 C269 1.917 . S
C812 N81 2.031 . S
C823 N104 2.233 . S
C828 N288 2.243 . S
C839 N127 2.062 . S
C844 C315 1.938 . S
C855 N334 2.212 . S
C860 N150 2.199 . S
C871 N173 2.031 1_455 S
C876 C361 1.915 . S
