# Generated by pormake.
# Topology nfc, (4)-cn, num edge types: 1
# Building blocks:
#     Node 0, Type 0, BuildingBlock: KOZSID_clean_sbu_0, # of connection points: 4
#     Node 1, Type 0, BuildingBlock: KOZSID_clean_sbu_0, # of connection points: 4
#     Node 2, Type 0, BuildingBlock: KOZSID_clean_sbu_0, # of connection points: 4
#     Node 3, Type 0, BuildingBlock: KOZSID_clean_sbu_0, # of connection points: 4
#     Node 4, Type 0, BuildingBlock: KOZSID_clean_sbu_0, # of connection points: 4
#     Node 5, Type 0, BuildingBlock: KOZSID_clean_sbu_0, # of connection points: 4
#     Node 6, Type 0, BuildingBlock: KOZSID_clean_sbu_0, # of connection points: 4
#     Node 7, Type 0, BuildingBlock: KOZSID_clean_sbu_0, # of connection points: 4
#     Node 8, Type 0, BuildingBlock: KOZSID_clean_sbu_0, # of connection points: 4
#     Node 9, Type 0, BuildingBlock: KOZSID_clean_sbu_0, # of connection points: 4
#     Node 10, Type 0, BuildingBlock: KOZSID_clean_sbu_0, # of connection points: 4
#     Node 11, Type 0, BuildingBlock: KOZSID_clean_sbu_0, # of connection points: 4
#     Node 12, Type 0, BuildingBlock: KOZSID_clean_sbu_0, # of connection points: 4
#     Node 13, Type 0, BuildingBlock: KOZSID_clean_sbu_0, # of connection points: 4
#     Node 14, Type 0, BuildingBlock: KOZSID_clean_sbu_0, # of connection points: 4
#     Node 15, Type 0, BuildingBlock: KOZSID_clean_sbu_0, # of connection points: 4
#     Edge 16, Type (0, 0), BuildingBlock: OJICUG_clean_linker_0, # of connection points: 2
#     Edge 17, Type (0, 0), BuildingBlock: OJICUG_clean_linker_0, # of connection points: 2
#     Edge 18, Type (0, 0), BuildingBlock: OJICUG_clean_linker_0, # of connection points: 2
#     Edge 19, Type (0, 0), BuildingBlock: OJICUG_clean_linker_0, # of connection points: 2
#     Edge 20, Type (0, 0), BuildingBlock: OJICUG_clean_linker_0, # of connection points: 2
#     Edge 21, Type (0, 0), BuildingBlock: OJICUG_clean_linker_0, # of connection points: 2
#     Edge 22, Type (0, 0), BuildingBlock: OJICUG_clean_linker_0, # of connection points: 2
#     Edge 23, Type (0, 0), BuildingBlock: OJICUG_clean_linker_0, # of connection points: 2
#     Edge 24, Type (0, 0), BuildingBlock: OJICUG_clean_linker_0, # of connection points: 2
#     Edge 25, Type (0, 0), BuildingBlock: OJICUG_clean_linker_0, # of connection points: 2
#     Edge 26, Type (0, 0), BuildingBlock: OJICUG_clean_linker_0, # of connection points: 2
#     Edge 27, Type (0, 0), BuildingBlock: OJICUG_clean_linker_0, # of connection points: 2
#     Edge 28, Type (0, 0), BuildingBlock: OJICUG_clean_linker_0, # of connection points: 2
#     Edge 29, Type (0, 0), BuildingBlock: OJICUG_clean_linker_0, # of connection points: 2
#     Edge 30, Type (0, 0), BuildingBlock: OJICUG_clean_linker_0, # of connection points: 2
#     Edge 31, Type (0, 0), BuildingBlock: OJICUG_clean_linker_0, # of connection points: 2
#     Edge 32, Type (0, 0), BuildingBlock: OJICUG_clean_linker_0, # of connection points: 2
#     Edge 33, Type (0, 0), BuildingBlock: OJICUG_clean_linker_0, # of connection points: 2
#     Edge 34, Type (0, 0), BuildingBlock: OJICUG_clean_linker_0, # of connection points: 2
#     Edge 35, Type (0, 0), BuildingBlock: OJICUG_clean_linker_0, # of connection points: 2
#     Edge 36, Type (0, 0), BuildingBlock: OJICUG_clean_linker_0, # of connection points: 2
#     Edge 37, Type (0, 0), BuildingBlock: OJICUG_clean_linker_0, # of connection points: 2
#     Edge 38, Type (0, 0), BuildingBlock: OJICUG_clean_linker_0, # of connection points: 2
#     Edge 39, Type (0, 0), BuildingBlock: OJICUG_clean_linker_0, # of connection points: 2
#     Edge 40, Type (0, 0), BuildingBlock: OJICUG_clean_linker_0, # of connection points: 2
#     Edge 41, Type (0, 0), BuildingBlock: OJICUG_clean_linker_0, # of connection points: 2
#     Edge 42, Type (0, 0), BuildingBlock: OJICUG_clean_linker_0, # of connection points: 2
#     Edge 43, Type (0, 0), BuildingBlock: OJICUG_clean_linker_0, # of connection points: 2
#     Edge 44, Type (0, 0), BuildingBlock: OJICUG_clean_linker_0, # of connection points: 2
#     Edge 45, Type (0, 0), BuildingBlock: OJICUG_clean_linker_0, # of connection points: 2
#     Edge 46, Type (0, 0), BuildingBlock: OJICUG_clean_linker_0, # of connection points: 2
#     Edge 47, Type (0, 0), BuildingBlock: OJICUG_clean_linker_0, # of connection points: 2
# Relax obj value: 0.095
# Max RMSD: 0.165
# Mean RMSD: 0.121
data_MOF--net-nfc--node1-KOZSID_clean_sbu_0--edge1-OJICUG_clean_linker_0
_symmetry_space_group_name_H-M    P1
_symmetry_Int_Tables_number       1
_symmetry_cell_setting            triclinic
loop_
_symmetry_equiv_pos_as_xyz
'x, y, z'
_cell_length_a     33.010935
_cell_length_b     33.119736
_cell_length_c     27.458536
_cell_angle_alpha  82.423653
_cell_angle_beta   85.048058
_cell_angle_gamma 83.026932
loop_
_atom_site_label
_atom_site_type_symbol
_atom_site_fract_x
_atom_site_fract_y
_atom_site_fract_z
_atom_type_partial_charge
C0 C 0.97234 0.02688 0.11784 0.0
C1 C 0.9436 0.05628 0.13629 0.0
C2 C 0.92585 0.07923 0.09694 0.0
C3 C 0.94382 0.0626 0.05615 0.0
N4 N 0.97171 0.02992 0.06683 0.0
Co5 Co 0.00224 0.99725 0.01433 0.0
N6 N 0.97648 0.03199 0.95571 0.0
C7 C 0.94908 0.06527 0.96028 0.0
C8 C 0.93549 0.0841 0.9162 0.0
C9 C 0.95503 0.06142 0.8811 0.0
C10 C 0.97948 0.02927 0.9053 0.0
N11 N 0.03261 0.96446 0.96181 0.0
C12 C 0.0309 0.96668 0.91101 0.0
C13 C 0.05617 0.93452 0.89305 0.0
C14 C 0.07452 0.91201 0.93226 0.0
C15 C 0.05944 0.93094 0.97258 0.0
N16 N 0.02813 0.96261 0.07295 0.0
C17 C 0.05675 0.93033 0.06803 0.0
C18 C 0.07303 0.91364 0.1114 0.0
C19 C 0.05383 0.9365 0.14646 0.0
C20 C 0.02595 0.96597 0.12321 0.0
N21 N 0.95772 0.96172 0.01944 0.0
C22 C 0.89952 0.91598 0.99221 0.0
C23 C 0.93816 0.89705 1.00426 0.0
C24 C 0.96642 0.92032 0.01883 0.0
C25 C 0.88851 0.95631 1.00198 0.0
C26 C 0.91793 0.97844 0.01588 0.0
N27 N 0.04681 0.03278 1.00918 0.0
C28 C 0.11702 0.03818 0.0226 0.0
C29 C 0.10656 0.07828 0.03354 0.0
C30 C 0.06717 0.09702 0.02476 0.0
C31 C 0.03812 0.07393 0.01177 0.0
C32 C 0.08685 0.01621 1.01004 0.0
H33 H 0.0083 0.08943 1.00703 0.0
H34 H 0.09628 0.98536 1.00381 0.0
H35 H 0.99582 0.9048 0.02627 0.0
H36 H 0.90829 0.00956 0.02052 0.0
C37 C 0.93556 0.07698 1.00697 0.0
C38 C 0.99911 0.99691 0.15098 0.0
C39 C 0.00512 0.99749 0.87787 0.0
C40 C 0.06899 0.91768 0.02152 0.0
H41 H 0.93576 0.06074 0.17437 0.0
H42 H 0.90243 0.10504 0.09801 0.0
H43 H 0.91358 0.11105 0.91026 0.0
H44 H 0.95155 0.06798 0.84197 0.0
H45 H 0.06042 0.92734 0.85555 0.0
H46 H 0.09586 0.88451 0.93153 0.0
H47 H 0.09699 0.88842 0.11673 0.0
H48 H 0.06074 0.93237 0.18464 0.0
H49 H 0.94783 0.86543 0.99885 0.0
H50 H 0.85813 0.97159 0.99581 0.0
H51 H 0.14777 0.02303 0.02643 0.0
H52 H 0.05767 0.12838 0.03148 0.0
C53 C 0.26579 0.80195 0.33746 0.0
C54 C 0.28377 0.83566 0.34682 0.0
C55 C 0.32201 0.83291 0.32349 0.0
C56 C 0.32517 0.79801 0.301 0.0
N57 N 0.29123 0.77823 0.30843 0.0
Co58 Co 0.28259 0.72674 0.28135 0.0
N59 N 0.33852 0.72354 0.2458 0.0
C60 C 0.36708 0.74956 0.24598 0.0
C61 C 0.40201 0.7403 0.21701 0.0
C62 C 0.39528 0.70652 0.19666 0.0
C63 C 0.35649 0.69706 0.21461 0.0
N64 N 0.27369 0.67541 0.25411 0.0
C65 C 0.29766 0.65376 0.22175 0.0
C66 C 0.27953 0.62045 0.21143 0.0
C67 C 0.24249 0.62138 0.23764 0.0
C68 C 0.24018 0.65498 0.26242 0.0
N69 N 0.22669 0.72973 0.31707 0.0
C70 C 0.19895 0.70249 0.31884 0.0
C71 C 0.16421 0.71139 0.34819 0.0
C72 C 0.16989 0.74649 0.36628 0.0
C73 C 0.20782 0.7573 0.34639 0.0
N74 N 0.25985 0.75976 0.22251 0.0
C75 C 0.23569 0.79335 0.12895 0.0
C76 C 0.21099 0.76853 0.1607 0.0
C77 C 0.22367 0.75199 0.20684 0.0
C78 C 0.2701 0.80515 0.14711 0.0
C79 C 0.28123 0.78848 0.19419 0.0
N80 N 0.30545 0.69372 0.34035 0.0
C81 C 0.29267 0.65016 0.41626 0.0
C82 C 0.32519 0.66361 0.43695 0.0
C83 C 0.35153 0.68687 0.40525 0.0
C84 C 0.34086 0.70194 0.35766 0.0
C85 C 0.28416 0.66468 0.36786 0.0
H86 H 0.36067 0.72178 0.33667 0.0
H87 H 0.25871 0.65377 0.35467 0.0
H88 H 0.20468 0.73145 0.22811 0.0
H89 H 0.30824 0.79776 0.20593 0.0
C90 C 0.3593 0.7835 0.27201 0.0
C91 C 0.22434 0.79411 0.35643 0.0
C92 C 0.33741 0.66375 0.19932 0.0
C93 C 0.20651 0.66871 0.29256 0.0
H94 H 0.27061 0.85991 0.36809 0.0
H95 H 0.3447 0.85404 0.3227 0.0
H96 H 0.42878 0.75671 0.21057 0.0
H97 H 0.41626 0.69111 0.17075 0.0
H98 H 0.29167 0.59803 0.18707 0.0
H99 H 0.21971 0.60041 0.23804 0.0
H100 H 0.13798 0.69427 0.35574 0.0
H101 H 0.14848 0.76223 0.39147 0.0
H102 H 0.18317 0.75978 0.14882 0.0
H103 H 0.28982 0.8249 0.12414 0.0
H104 H 0.27157 0.63115 0.43779 0.0
H105 H 0.37888 0.69593 0.41781 0.0
C106 C 0.41871 0.97892 0.58559 0.0
C107 C 0.38643 0.99858 0.61242 0.0
C108 C 0.39157 0.03932 0.60616 0.0
C109 C 0.42639 0.04267 0.57555 0.0
N110 N 0.44388 0.00655 0.56161 0.0
Co111 Co 0.49482 0.99964 0.51575 0.0
N112 N 0.50445 0.05939 0.51013 0.0
C113 C 0.48055 0.08832 0.53313 0.0
C114 C 0.49296 0.12671 0.52233 0.0
C115 C 0.52683 0.12227 0.49035 0.0
C116 C 0.5335 0.0812 0.48331 0.0
N117 N 0.54518 0.99292 0.46894 0.0
C118 C 0.57007 0.02067 0.44462 0.0
C119 C 0.60062 0.00159 0.41484 0.0
C120 C 0.59467 0.96109 0.41964 0.0
C121 C 0.56101 0.95736 0.45215 0.0
N122 N 0.48588 0.93964 0.52261 0.0
C123 C 0.51057 0.9105 0.50087 0.0
C124 C 0.49951 0.87175 0.51372 0.0
C125 C 0.46585 0.87612 0.54599 0.0
C126 C 0.45773 0.91757 0.55086 0.0
N127 N 0.46095 0.01192 0.45812 0.0
C128 C 0.4284 0.03552 0.36647 0.0
C129 C 0.44695 0.99583 0.3785 0.0
C130 C 0.46296 0.98471 0.42425 0.0
C131 C 0.42278 0.0621 0.40227 0.0
C132 C 0.43828 0.04927 0.44824 0.0
N133 N 0.52873 0.98736 0.57307 0.0
C134 C 0.57553 0.94022 0.6221 0.0
C135 C 0.56496 0.96211 0.66208 0.0
C136 C 0.53883 0.99839 0.65592 0.0
C137 C 0.52117 0.01041 0.61139 0.0
C138 C 0.5577 0.95389 0.57761 0.0
H139 H 0.50008 0.03739 0.60968 0.0
H140 H 0.56661 0.93607 0.54813 0.0
H141 H 0.47857 0.95466 0.43016 0.0
H142 H 0.43306 0.07084 0.47416 0.0
C143 C 0.44487 0.07879 0.56172 0.0
C144 C 0.42347 0.93397 0.58389 0.0
C145 C 0.56674 0.06515 0.44882 0.0
C146 C 0.54394 0.9208 0.4684 0.0
H147 H 0.36165 0.98495 0.6344 0.0
H148 H 0.37242 0.0636 0.62257 0.0
H149 H 0.4784 0.15487 0.53508 0.0
H150 H 0.544 0.14683 0.47319 0.0
H151 H 0.62488 0.01545 0.39207 0.0
H152 H 0.61286 0.93713 0.40161 0.0
H153 H 0.51448 0.84353 0.50152 0.0
H154 H 0.44957 0.85133 0.56438 0.0
H155 H 0.45179 0.9744 0.35137 0.0
H156 H 0.4082 0.0931 0.39416 0.0
H157 H 0.596 0.91199 0.62572 0.0
H158 H 0.53008 0.01611 0.68641 0.0
C159 C 0.28582 0.15162 0.79589 0.0
C160 C 0.2718 0.11434 0.81405 0.0
C161 C 0.23088 0.1187 0.80767 0.0
C162 C 0.22228 0.15823 0.78608 0.0
N163 N 0.25542 0.17917 0.77731 0.0
Co164 Co 0.25632 0.23835 0.74986 0.0
N165 N 0.19519 0.24665 0.74742 0.0
C166 C 0.16881 0.21843 0.76205 0.0
C167 C 0.1289 0.23246 0.75375 0.0
C168 C 0.12987 0.27176 0.73165 0.0
C169 C 0.1705 0.27947 0.72779 0.0
N170 N 0.2573 0.29746 0.72214 0.0
C171 C 0.22675 0.32524 0.70436 0.0
C172 C 0.24084 0.36243 0.68589 0.0
C173 C 0.28195 0.35775 0.6911 0.0
C174 C 0.29057 0.31815 0.71246 0.0
N175 N 0.3174 0.23013 0.75272 0.0
C176 C 0.34389 0.25823 0.73804 0.0
C177 C 0.38363 0.24438 0.74749 0.0
C178 C 0.38237 0.20542 0.77064 0.0
C179 C 0.34176 0.19779 0.774 0.0
N180 N 0.26149 0.22351 0.68141 0.0
C181 C 0.26098 0.21244 0.58108 0.0
C182 C 0.28955 0.23484 0.59693 0.0
C183 C 0.28934 0.23983 0.64671 0.0
C184 C 0.23423 0.1937 0.61693 0.0
C185 C 0.23522 0.19932 0.66643 0.0
N186 N 0.25114 0.25326 0.81817 0.0
C187 C 0.27736 0.28519 0.88152 0.0
C188 C 0.25147 0.2659 0.91795 0.0
C189 C 0.22396 0.24181 0.90298 0.0
C190 C 0.22428 0.236 0.85341 0.0
C191 C 0.27644 0.2788 0.83233 0.0
H192 H 0.20309 0.21671 0.84468 0.0
H193 H 0.2973 0.29399 0.80663 0.0
H194 H 0.31144 0.25784 0.65596 0.0
H195 H 0.21364 0.1847 0.69166 0.0
C196 C 0.18295 0.17793 0.77901 0.0
C197 C 0.32748 0.16041 0.80041 0.0
C198 C 0.18451 0.31722 0.70196 0.0
C199 C 0.32989 0.29855 0.72008 0.0
H200 H 0.28907 0.08732 0.83176 0.0
H201 H 0.20957 0.09638 0.81962 0.0
H202 H 0.1025 0.21555 0.76093 0.0
H203 H 0.10382 0.29193 0.7183 0.0
H204 H 0.22334 0.38972 0.66913 0.0
H205 H 0.30326 0.38006 0.67907 0.0
H206 H 0.41007 0.26124 0.74043 0.0
H207 H 0.40814 0.18535 0.78499 0.0
H208 H 0.31184 0.24896 0.57097 0.0
H209 H 0.21151 0.17591 0.60684 0.0
H210 H 0.29937 0.30412 0.89089 0.0
H211 H 0.20241 0.22706 0.92942 0.0
C212 C 0.98338 0.96672 0.62727 0.0
C213 C 0.96173 0.9374 0.65528 0.0
C214 C 0.94355 0.91809 0.62322 0.0
C215 C 0.95524 0.93593 0.57699 0.0
N216 N 0.98017 0.96532 0.57729 0.0
Co217 Co 0.00269 0.99765 0.51464 0.0
N218 N 0.97194 0.97229 0.46729 0.0
C219 C 0.94482 0.94506 0.48269 0.0
C220 C 0.9268 0.93259 0.44491 0.0
C221 C 0.94368 0.95257 0.40257 0.0
C222 C 0.97207 0.97588 0.41617 0.0
N223 N 0.02612 0.02908 0.45183 0.0
C224 C 0.02413 0.02639 0.40187 0.0
C225 C 0.05114 0.05077 0.374 0.0
C226 C 0.0697 0.06972 0.40597 0.0
C227 C 0.05398 0.0557 0.45206 0.0
N228 N 0.0324 0.02394 0.56218 0.0
C229 C 0.05705 0.0535 0.54707 0.0
C230 C 0.07099 0.0698 0.585 0.0
C231 C 0.05393 0.04987 0.62723 0.0
C232 C 0.03061 0.02175 0.61332 0.0
N233 N 0.04923 0.95414 0.50791 0.0
C234 C 0.11224 0.89965 0.4699 0.0
C235 C 0.12081 0.93661 0.48363 0.0
C236 C 0.08896 0.96325 0.5028 0.0
C237 C 0.07284 0.88834 0.4807 0.0
C238 C 0.04222 0.91548 0.50073 0.0
N239 N 0.95632 0.04127 0.52127 0.0
C240 C 0.93351 0.11167 0.53346 0.0
C241 C 0.89672 0.10025 0.55725 0.0
C242 C 0.88845 0.0599 0.55752 0.0
C243 C 0.9182 0.03129 0.53871 0.0
C244 C 0.96264 0.08184 0.51543 0.0
H245 H 0.91027 0.0009 0.54092 0.0
H246 H 0.99072 0.09193 0.49902 0.0
H247 H 0.09691 0.99171 0.51106 0.0
H248 H 0.01271 0.90523 0.50777 0.0
C249 C 0.93985 0.92921 0.5328 0.0
C250 C 0.00644 0.99484 0.65066 0.0
C251 C 0.99838 0.00049 0.37854 0.0
C252 C 0.06584 0.0656 0.49661 0.0
H253 H 0.95889 0.9308 0.69498 0.0
H254 H 0.92317 0.89455 0.63266 0.0
H255 H 0.90452 0.91081 0.44772 0.0
H256 H 0.9359 0.9499 0.3658 0.0
H257 H 0.05804 0.05378 0.33462 0.0
H258 H 0.09297 0.0904 0.39669 0.0
H259 H 0.09059 0.09405 0.58228 0.0
H260 H 0.05759 0.05627 0.66409 0.0
H261 H 0.15133 0.94597 0.47691 0.0
H262 H 0.06537 0.85923 0.47209 0.0
H263 H 0.94085 0.14288 0.53138 0.0
H264 H 0.85965 0.05007 0.57384 0.0
C265 C 0.26498 0.83044 0.69772 0.0
C266 C 0.2467 0.86403 0.66864 0.0
C267 C 0.20534 0.86208 0.67489 0.0
C268 C 0.20036 0.82765 0.70758 0.0
N269 N 0.23594 0.80745 0.7224 0.0
Co270 Co 0.24024 0.75665 0.77137 0.0
N271 N 0.18183 0.7459 0.76716 0.0
C272 C 0.15327 0.77306 0.74509 0.0
C273 C 0.11535 0.75953 0.74888 0.0
C274 C 0.11975 0.72168 0.77597 0.0
C275 C 0.16035 0.71386 0.78737 0.0
N276 N 0.24443 0.70657 0.82153 0.0
C277 C 0.21729 0.67887 0.83914 0.0
C278 C 0.23398 0.64997 0.87543 0.0
C279 C 0.27163 0.66058 0.88234 0.0
C280 C 0.27635 0.69499 0.84963 0.0
N281 N 0.29908 0.76661 0.77373 0.0
C282 C 0.32424 0.74722 0.80758 0.0
C283 C 0.36324 0.75824 0.80013 0.0
C284 C 0.36286 0.78674 0.75918 0.0
C285 C 0.32336 0.79207 0.74392 0.0
N286 N 0.22344 0.78999 0.82568 0.0
C287 C 0.21515 0.8139 0.91997 0.0
C288 C 0.24515 0.82871 0.88527 0.0
C289 C 0.2479 0.81737 0.83751 0.0
C290 C 0.18516 0.79367 0.90373 0.0
C291 C 0.19037 0.78115 0.85722 0.0
N292 N 0.25718 0.72317 0.71826 0.0
C293 C 0.30683 0.67476 0.6812 0.0
C294 C 0.28738 0.68339 0.63736 0.0
C295 C 0.25148 0.71039 0.6353 0.0
C296 C 0.2369 0.73 0.67614 0.0
C297 C 0.29085 0.69466 0.72158 0.0
H298 H 0.21022 0.75194 0.67274 0.0
H299 H 0.30685 0.68816 0.75462 0.0
H300 H 0.27193 0.82817 0.81185 0.0
H301 H 0.16914 0.76132 0.8497 0.0
C302 C 0.16364 0.81037 0.71989 0.0
C303 C 0.30977 0.82344 0.70293 0.0
C304 C 0.17479 0.67965 0.82482 0.0
C305 C 0.31146 0.7154 0.84185 0.0
H306 H 0.26164 0.88774 0.64555 0.0
H307 H 0.18177 0.88274 0.65666 0.0
H308 H 0.08755 0.77561 0.73445 0.0
H309 H 0.0952 0.70307 0.78819 0.0
H310 H 0.22025 0.62404 0.89537 0.0
H311 H 0.29321 0.64478 0.90788 0.0
H312 H 0.38926 0.74605 0.82108 0.0
H313 H 0.38884 0.80181 0.74262 0.0
H314 H 0.26825 0.84581 0.89583 0.0
H315 H 0.16024 0.78333 0.92878 0.0
H316 H 0.33493 0.6542 0.68357 0.0
H317 H 0.23606 0.71794 0.60145 0.0
C318 C 0.42756 0.01557 0.95362 0.0
C319 C 0.39322 0.99825 0.94424 0.0
C320 C 0.39515 0.9603 0.97071 0.0
C321 C 0.4303 0.9566 0.99484 0.0
N322 N 0.45101 0.98993 0.98553 0.0
Co323 Co 0.50364 0.99723 0.01325 0.0
N324 N 0.50584 0.94156 0.05315 0.0
C325 C 0.47791 0.91446 0.05571 0.0
C326 C 0.48696 0.87925 0.0868 0.0
C327 C 0.52291 0.88396 0.10523 0.0
C328 C 0.53393 0.92186 0.08394 0.0
N329 N 0.55644 0.00441 0.04066 0.0
C330 C 0.58006 0.97863 0.07223 0.0
C331 C 0.61484 0.99559 0.08081 0.0
C332 C 0.61304 0.03345 0.05411 0.0
C333 C 0.57755 0.03743 0.03062 0.0
N334 N 0.50123 0.05307 0.9737 0.0
C335 C 0.52887 0.08039 0.97162 0.0
C336 C 0.51952 0.11585 0.94107 0.0
C337 C 0.48364 0.11109 0.92253 0.0
C338 C 0.47299 0.07288 0.94314 0.0
N339 N 0.47262 0.02166 0.06938 0.0
C340 C 0.43819 0.04873 0.15859 0.0
C341 C 0.46473 0.07177 0.12696 0.0
C342 C 0.48192 0.05746 0.08334 0.0
C343 C 0.42587 0.01432 0.14176 0.0
C344 C 0.44265 0.00203 0.09699 0.0
N345 N 0.53468 0.97274 0.95712 0.0
C346 C 0.5792 0.98075 0.88283 0.0
C347 C 0.56799 0.94509 0.86783 0.0
C348 C 0.54364 0.92115 0.90138 0.0
C349 C 0.52692 0.93573 0.94501 0.0
C350 C 0.563 0.99336 0.92768 0.0
H351 H 0.50666 0.91715 0.96731 0.0
H352 H 0.57253 0.02085 0.93663 0.0
H353 H 0.50367 0.07519 0.06248 0.0
H354 H 0.43209 0.97556 0.08655 0.0
C355 C 0.44391 0.92276 0.02759 0.0
C356 C 0.43602 0.05673 0.93199 0.0
C357 C 0.57133 0.93766 0.09428 0.0
C358 C 0.56352 0.07159 0.99862 0.0
H359 H 0.36904 0.01175 0.92098 0.0
H360 H 0.37329 0.9382 0.97257 0.0
H361 H 0.46955 0.8532 0.09497 0.0
H362 H 0.53918 0.86191 0.13141 0.0
H363 H 0.63919 0.98194 0.10374 0.0
H364 H 0.63514 0.05537 0.05183 0.0
H365 H 0.53683 0.14198 0.93308 0.0
H366 H 0.46728 0.13323 0.89654 0.0
H367 H 0.47391 0.09979 0.13664 0.0
H368 H 0.40524 0.99516 0.16398 0.0
H369 H 0.59823 0.00061 0.85905 0.0
H370 H 0.53552 0.89223 0.89305 0.0
C371 C 0.21186 0.23253 0.35016 0.0
C372 C 0.17659 0.24713 0.3765 0.0
C373 C 0.15498 0.27482 0.34435 0.0
C374 C 0.1782 0.27543 0.30041 0.0
N375 N 0.21275 0.24887 0.30223 0.0
Co376 Co 0.25738 0.24225 0.24867 0.0
N377 N 0.22929 0.28787 0.20363 0.0
C378 C 0.19393 0.31149 0.21388 0.0
C379 C 0.18056 0.33778 0.1742 0.0
C380 C 0.20829 0.32954 0.13594 0.0
C381 C 0.23717 0.2987 0.15468 0.0
N382 N 0.30204 0.23567 0.19517 0.0
C383 C 0.30271 0.25174 0.14717 0.0
C384 C 0.33798 0.23721 0.12079 0.0
C385 C 0.35982 0.2098 0.15303 0.0
C386 C 0.33672 0.2093 0.19706 0.0
N387 N 0.2854 0.19656 0.29367 0.0
C388 C 0.32071 0.17288 0.28333 0.0
C389 C 0.3339 0.14632 0.32287 0.0
C390 C 0.30607 0.15431 0.36111 0.0
C391 C 0.27729 0.18532 0.34252 0.0
N392 N 0.22808 0.20289 0.22091 0.0
C393 C 0.19223 0.15822 0.15972 0.0
C394 C 0.23156 0.1454 0.17447 0.0
C395 C 0.24875 0.16799 0.20515 0.0
C396 C 0.16978 0.19139 0.17955 0.0
C397 C 0.18797 0.21271 0.21064 0.0
N398 N 0.28678 0.28181 0.27599 0.0
C399 C 0.34702 0.29702 0.31076 0.0
C400 C 0.3259 0.33266 0.32621 0.0
C401 C 0.28559 0.34364 0.3142 0.0
C402 C 0.26668 0.31784 0.28932 0.0
C403 C 0.32716 0.27248 0.28532 0.0
H404 H 0.23555 0.32723 0.28247 0.0
H405 H 0.34487 0.2457 0.27458 0.0
H406 H 0.27933 0.15759 0.21385 0.0
H407 H 0.16952 0.23795 0.22432 0.0
C408 C 0.17117 0.30414 0.25897 0.0
C409 C 0.24542 0.20632 0.37326 0.0
C410 C 0.26876 0.27725 0.12407 0.0
C411 C 0.34361 0.1804 0.23837 0.0
H412 H 0.16843 0.23992 0.41545 0.0
H413 H 0.12695 0.294 0.35276 0.0
H414 H 0.15257 0.35851 0.1725 0.0
H415 H 0.2062 0.34321 0.09813 0.0
H416 H 0.3459 0.24413 0.08174 0.0
H417 H 0.38781 0.19057 0.14458 0.0
H418 H 0.36184 0.12556 0.32446 0.0
H419 H 0.30797 0.1403 0.39883 0.0
H420 H 0.24962 0.11917 0.16076 0.0
H421 H 0.1385 0.20121 0.17059 0.0
H422 H 0.37871 0.288 0.31849 0.0
H423 H 0.26829 0.37126 0.32539 0.0
C424 C 0.72342 0.35007 0.81275 0.0
C425 C 0.74365 0.37977 0.82866 0.0
C426 C 0.78288 0.37494 0.80846 0.0
C427 C 0.78434 0.34275 0.78149 0.0
N428 N 0.74833 0.32695 0.78271 0.0
Co429 Co 0.73771 0.27845 0.75092 0.0
N430 N 0.79508 0.27245 0.71954 0.0
C431 C 0.82465 0.29677 0.7226 0.0
C432 C 0.86059 0.28599 0.6963 0.0
C433 C 0.85352 0.25306 0.67457 0.0
C434 C 0.81338 0.24569 0.68882 0.0
N435 N 0.72763 0.22879 0.72095 0.0
C436 C 0.75262 0.20535 0.69126 0.0
C437 C 0.73313 0.17375 0.67854 0.0
C438 C 0.69472 0.17708 0.70131 0.0
C439 C 0.69277 0.21046 0.72637 0.0
N440 N 0.67966 0.28581 0.77993 0.0
C441 C 0.64942 0.26285 0.77477 0.0
C442 C 0.61273 0.27533 0.79851 0.0
C443 C 0.61986 0.30828 0.8202 0.0
C444 C 0.66072 0.31399 0.80836 0.0
N445 N 0.72092 0.3144 0.69109 0.0
C446 C 0.70976 0.35211 0.59488 0.0
C447 C 0.68418 0.32341 0.61771 0.0
C448 C 0.69005 0.30536 0.66562 0.0
C449 C 0.7372 0.36561 0.62359 0.0
C450 C 0.74216 0.34652 0.67152 0.0
N451 N 0.7547 0.24233 0.811 0.0
C452 C 0.73609 0.19964 0.88589 0.0
C453 C 0.77401 0.20139 0.90425 0.0
C454 C 0.80341 0.22072 0.87275 0.0
C455 C 0.79305 0.24126 0.82701 0.0
C456 C 0.72755 0.21934 0.83927 0.0
H457 H 0.81632 0.257 0.80611 0.0
H458 H 0.69811 0.21668 0.82786 0.0
H459 H 0.67093 0.28231 0.68004 0.0
H460 H 0.76484 0.35668 0.69101 0.0
C461 C 0.81839 0.32805 0.75269 0.0
C462 C 0.68053 0.34529 0.827 0.0
C463 C 0.79445 0.21238 0.6731 0.0
C464 C 0.65743 0.22774 0.75092 0.0
H465 H 0.73129 0.40264 0.85233 0.0
H466 H 0.80734 0.39298 0.8126 0.0
H467 H 0.88874 0.30008 0.69372 0.0
H468 H 0.87566 0.23621 0.65126 0.0
H469 H 0.74511 0.15107 0.65448 0.0
H470 H 0.67062 0.15822 0.6986 0.0
H471 H 0.58447 0.26144 0.80091 0.0
H472 H 0.59769 0.32554 0.84308 0.0
H473 H 0.6621 0.31194 0.59761 0.0
H474 H 0.75668 0.38887 0.60818 0.0
H475 H 0.7119 0.18514 0.90802 0.0
H476 H 0.83394 0.22155 0.88384 0.0
C477 C 0.77969 0.66511 0.31573 0.0
C478 C 0.76507 0.62807 0.33373 0.0
C479 C 0.72379 0.63371 0.3297 0.0
C480 C 0.71557 0.67371 0.30955 0.0
N481 N 0.74922 0.69383 0.29968 0.0
Co482 Co 0.75091 0.75306 0.27278 0.0
N483 N 0.6898 0.76224 0.27048 0.0
C484 C 0.66288 0.73459 0.28538 0.0
C485 C 0.62317 0.74914 0.27651 0.0
C486 C 0.6249 0.78812 0.25358 0.0
C487 C 0.66573 0.79504 0.24975 0.0
N488 N 0.75256 0.81227 0.24582 0.0
C489 C 0.72239 0.84032 0.22763 0.0
C490 C 0.7369 0.8774 0.20958 0.0
C491 C 0.77789 0.87239 0.21565 0.0
C492 C 0.78603 0.8327 0.23695 0.0
N493 N 0.81205 0.74387 0.27488 0.0
C494 C 0.83881 0.77182 0.26077 0.0
C495 C 0.87869 0.75701 0.26825 0.0
C496 C 0.87732 0.71741 0.28912 0.0
C497 C 0.8365 0.71037 0.29323 0.0
N498 N 0.75542 0.73876 0.2043 0.0
C499 C 0.75375 0.72794 0.10419 0.0
C500 C 0.78252 0.75043 0.11953 0.0
C501 C 0.78282 0.75539 0.16927 0.0
C502 C 0.72736 0.70912 0.14042 0.0
C503 C 0.729 0.71453 0.1898 0.0
N504 N 0.74631 0.76746 0.34143 0.0
C505 C 0.77302 0.79831 0.40544 0.0
C506 C 0.74588 0.7802 0.44134 0.0
C507 C 0.71772 0.75719 0.42579 0.0
C508 C 0.71844 0.7513 0.37623 0.0
C509 C 0.7725 0.79184 0.35618 0.0
H510 H 0.69659 0.73291 0.36726 0.0
H511 H 0.79426 0.80615 0.33095 0.0
H512 H 0.80489 0.7736 0.17832 0.0
H513 H 0.70776 0.69976 0.21538 0.0
C514 C 0.67641 0.69399 0.3027 0.0
C515 C 0.82236 0.67208 0.31711 0.0
C516 C 0.68045 0.83225 0.22345 0.0
C517 C 0.82518 0.8125 0.24395 0.0
H518 H 0.78235 0.60019 0.34934 0.0
H519 H 0.70216 0.61168 0.34155 0.0
H520 H 0.59644 0.73273 0.28377 0.0
H521 H 0.59927 0.80867 0.23969 0.0
H522 H 0.71989 0.90472 0.19218 0.0
H523 H 0.79951 0.89442 0.20377 0.0
H524 H 0.9054 0.77345 0.26089 0.0
H525 H 0.90328 0.69639 0.30118 0.0
H526 H 0.80453 0.76465 0.09327 0.0
H527 H 0.70441 0.69139 0.13081 0.0
H528 H 0.79557 0.81639 0.41533 0.0
H529 H 0.69525 0.74338 0.45177 0.0
C530 C 0.7688 0.32126 0.18751 0.0
C531 C 0.74993 0.35288 0.15611 0.0
C532 C 0.7091 0.34843 0.16035 0.0
C533 C 0.70501 0.31451 0.1941 0.0
N534 N 0.74067 0.29707 0.2121 0.0
Co535 Co 0.74678 0.24584 0.26088 0.0
N536 N 0.68599 0.24098 0.26972 0.0
C537 C 0.65696 0.268 0.24791 0.0
C538 C 0.61783 0.25907 0.26168 0.0
C539 C 0.62189 0.22433 0.29458 0.0
C540 C 0.6635 0.21347 0.2988 0.0
N541 N 0.75304 0.19357 0.30797 0.0
C542 C 0.72492 0.16933 0.33255 0.0
C543 C 0.74424 0.13494 0.3592 0.0
C544 C 0.78538 0.13756 0.35185 0.0
C545 C 0.78923 0.1731 0.32084 0.0
N546 N 0.80733 0.25201 0.25432 0.0
C547 C 0.83621 0.2261 0.27795 0.0
C548 C 0.87501 0.23714 0.26754 0.0
C549 C 0.87082 0.27239 0.23546 0.0
C550 C 0.82949 0.28114 0.22787 0.0
N551 N 0.74059 0.27907 0.31631 0.0
C552 C 0.73185 0.32503 0.39626 0.0
C553 C 0.76076 0.29064 0.39512 0.0
C554 C 0.76448 0.26824 0.35526 0.0
C555 C 0.70765 0.33644 0.35642 0.0
C556 C 0.71275 0.31334 0.3168 0.0
N557 N 0.75326 0.21287 0.20467 0.0
C558 C 0.7984 0.17695 0.14649 0.0
C559 C 0.76789 0.18231 0.11354 0.0
C560 C 0.72887 0.19925 0.12868 0.0
C561 C 0.72226 0.21435 0.17408 0.0
C562 C 0.79013 0.19142 0.19221 0.0
H563 H 0.6923 0.22881 0.1822 0.0
H564 H 0.8147 0.18639 0.2157 0.0
H565 H 0.7865 0.24191 0.35712 0.0
H566 H 0.69363 0.32354 0.28724 0.0
C567 C 0.66785 0.30008 0.21253 0.0
C568 C 0.81341 0.31643 0.19329 0.0
C569 C 0.67978 0.17685 0.33131 0.0
C570 C 0.82603 0.18992 0.30648 0.0
H571 H 0.76409 0.37707 0.13294 0.0
H572 H 0.6851 0.36813 0.14172 0.0
H573 H 0.58963 0.27574 0.24906 0.0
H574 H 0.5969 0.20881 0.31334 0.0
H575 H 0.7301 0.11039 0.3817 0.0
H576 H 0.80963 0.11632 0.36789 0.0
H577 H 0.9032 0.22092 0.28076 0.0
H578 H 0.8956 0.28923 0.21869 0.0
H579 H 0.77953 0.28002 0.42575 0.0
H580 H 0.68478 0.36286 0.35596 0.0
H581 H 0.82895 0.16332 0.13615 0.0
H582 H 0.70434 0.2038 0.10402 0.0
C583 C 0.70145 0.74953 0.87464 0.0
C584 C 0.66726 0.76623 0.90117 0.0
C585 C 0.64685 0.79503 0.86907 0.0
C586 C 0.66967 0.79418 0.82496 0.0
N587 N 0.70273 0.76564 0.82664 0.0
Co588 Co 0.74686 0.75668 0.77306 0.0
N589 N 0.72061 0.80326 0.72767 0.0
C590 C 0.68613 0.82827 0.73764 0.0
C591 C 0.67354 0.85464 0.69764 0.0
C592 C 0.70084 0.84509 0.6595 0.0
C593 C 0.72873 0.81344 0.67861 0.0
N594 N 0.79127 0.7481 0.71975 0.0
C595 C 0.7929 0.76443 0.67185 0.0
C596 C 0.82797 0.74886 0.64592 0.0
C597 C 0.84862 0.72054 0.67832 0.0
C598 C 0.82509 0.72059 0.72202 0.0
N599 N 0.77279 0.70969 0.81803 0.0
C600 C 0.80682 0.68422 0.80763 0.0
C601 C 0.81871 0.65684 0.84709 0.0
C602 C 0.7914 0.66614 0.88532 0.0
C603 C 0.76422 0.69872 0.8668 0.0
N604 N 0.71512 0.71897 0.74602 0.0
C605 C 0.67196 0.67046 0.69706 0.0
C606 C 0.71303 0.65886 0.7057 0.0
C607 C 0.73386 0.68336 0.73013 0.0
C608 C 0.65241 0.70577 0.71521 0.0
C609 C 0.67431 0.72917 0.73975 0.0
N610 N 0.77846 0.79424 0.80066 0.0
C611 C 0.83671 0.80235 0.84428 0.0
C612 C 0.81607 0.83733 0.86198 0.0
C613 C 0.7779 0.85253 0.84502 0.0
C614 C 0.75987 0.83074 0.81426 0.0
C615 C 0.81772 0.78181 0.81311 0.0
H616 H 0.73025 0.84317 0.8037 0.0
H617 H 0.83478 0.75511 0.80114 0.0
H618 H 0.76527 0.6733 0.73475 0.0
H619 H 0.65778 0.75593 0.7521 0.0
C620 C 0.66355 0.82267 0.78311 0.0
C621 C 0.73392 0.72158 0.89757 0.0
C622 C 0.75988 0.79109 0.64832 0.0
C623 C 0.83042 0.6911 0.76308 0.0
H624 H 0.65913 0.7596 0.94022 0.0
H625 H 0.61994 0.81574 0.87753 0.0
H626 H 0.64631 0.87641 0.69574 0.0
H627 H 0.69917 0.85859 0.62156 0.0
H628 H 0.83646 0.75572 0.60699 0.0
H629 H 0.87602 0.70039 0.67014 0.0
H630 H 0.84566 0.63469 0.84872 0.0
H631 H 0.79281 0.65195 0.923 0.0
H632 H 0.72924 0.63119 0.69331 0.0
H633 H 0.62063 0.71619 0.70922 0.0
H634 H 0.86717 0.79056 0.85494 0.0
H635 H 0.76126 0.88016 0.85703 0.0
C636 C 0.44466 0.51997 0.59768 0.0
C637 C 0.41224 0.5457 0.61612 0.0
C638 C 0.40031 0.57378 0.57768 0.0
C639 C 0.42587 0.56368 0.53808 0.0
N640 N 0.45313 0.53034 0.54878 0.0
Co641 Co 0.49914 0.50756 0.50399 0.0
N642 N 0.48563 0.55257 0.44966 0.0
C643 C 0.45598 0.58453 0.451 0.0
C644 C 0.4532 0.60935 0.40704 0.0
C645 C 0.48215 0.5917 0.37546 0.0
C646 C 0.50084 0.55697 0.40213 0.0
N647 N 0.54508 0.4847 0.45917 0.0
C648 C 0.55431 0.49577 0.41057 0.0
C649 C 0.58722 0.47049 0.39236 0.0
C650 C 0.59875 0.44201 0.43061 0.0
C651 C 0.57227 0.4513 0.4698 0.0
N652 N 0.5128 0.46265 0.55842 0.0
C653 C 0.54254 0.43076 0.55715 0.0
C654 C 0.54581 0.40636 0.60135 0.0
C655 C 0.51715 0.42433 0.63305 0.0
C656 C 0.49816 0.45879 0.60618 0.0
N657 N 0.4619 0.47393 0.47879 0.0
C658 C 0.41206 0.42781 0.43533 0.0
C659 C 0.45016 0.41051 0.45097 0.0
C660 C 0.47421 0.43382 0.4727 0.0
C661 C 0.39877 0.46824 0.44313 0.0
C662 C 0.42399 0.49057 0.46477 0.0
N663 N 0.53631 0.5411 0.52937 0.0
C664 C 0.59866 0.54551 0.5673 0.0
C665 C 0.5839 0.58447 0.57911 0.0
C666 C 0.5462 0.60245 0.56322 0.0
C667 C 0.5233 0.58056 0.53794 0.0
C668 C 0.57444 0.52445 0.5426 0.0
H669 H 0.49474 0.59581 0.52694 0.0
H670 H 0.58674 0.49433 0.53604 0.0
H671 H 0.503 0.41891 0.48326 0.0
H672 H 0.4124 0.52137 0.46906 0.0
C673 C 0.42872 0.58803 0.49251 0.0
C674 C 0.46934 0.48904 0.62864 0.0
C675 C 0.53018 0.5272 0.37963 0.0
C676 C 0.56962 0.42709 0.51549 0.0
H677 H 0.39979 0.54567 0.65385 0.0
H678 H 0.37767 0.6001 0.57927 0.0
H679 H 0.4315 0.63599 0.39834 0.0
H680 H 0.48782 0.60214 0.33669 0.0
H681 H 0.60058 0.47137 0.35493 0.0
H682 H 0.62233 0.41645 0.42931 0.0
H683 H 0.5678 0.37991 0.6101 0.0
H684 H 0.512 0.41437 0.67202 0.0
H685 H 0.46208 0.37942 0.44526 0.0
H686 H 0.36913 0.48276 0.43239 0.0
H687 H 0.62798 0.53069 0.57881 0.0
H688 H 0.53421 0.63311 0.57081 0.0
C689 C 0.9177 0.47607 0.07929 0.0
C690 C 0.88386 0.49481 0.10452 0.0
C691 C 0.88626 0.53608 0.096 0.0
C692 C 0.92116 0.54057 0.06584 0.0
N693 N 0.94144 0.50465 0.05455 0.0
Co694 Co 0.99308 0.49913 1.00954 0.0
N695 N 0.99755 0.56015 0.99866 0.0
C696 C 0.97112 0.58886 0.01895 0.0
C697 C 0.98036 0.62813 1.00491 0.0
C698 C 0.01489 0.6245 0.97389 0.0
C699 C 0.02524 0.58298 0.97074 0.0
N700 N 0.04412 0.49366 0.96358 0.0
C701 C 0.06759 0.52225 0.93827 0.0
C702 C 0.10037 0.50351 0.91126 0.0
C703 C 0.09731 0.46236 0.91881 0.0
C704 C 0.06312 0.45789 0.95021 0.0
N705 N 0.98922 0.43803 0.0215 0.0
C706 C 0.01649 0.4092 1.00275 0.0
C707 C 0.00772 0.36987 0.01762 0.0
C708 C 0.97274 0.37357 0.04789 0.0
C709 C 0.96168 0.41517 0.04963 0.0
N710 N 0.95941 0.50449 0.95214 0.0
C711 C 0.92269 0.51802 0.86232 0.0
C712 C 0.94622 0.48109 0.87607 0.0
C713 C 0.96438 0.47507 0.92076 0.0
C714 C 0.91499 0.54675 0.89555 0.0
C715 C 0.93277 0.53893 0.94061 0.0
N716 N 0.0269 0.49395 0.06669 0.0
C717 C 0.08199 0.4592 0.11454 0.0
C718 C 0.07125 0.48482 0.15115 0.0
C719 C 0.03888 0.51578 0.14402 0.0
C720 C 0.0173 0.51966 0.10209 0.0
C721 C 0.05981 0.46459 0.07254 0.0
H722 H 0.99233 0.5431 0.0998 0.0
H723 H 0.06946 0.44424 0.04583 0.0
H724 H 0.9837 0.44716 0.92795 0.0
H725 H 0.92567 0.56196 0.96446 0.0
C726 C 0.93647 0.57794 0.04873 0.0
C727 C 0.92506 0.43101 0.07934 0.0
C728 C 0.06096 0.56725 0.93933 0.0
C729 C 0.04916 0.42038 0.9697 0.0
H730 H 0.85971 0.48021 0.12661 0.0
H731 H 0.86505 0.56003 0.11024 0.0
H732 H 0.96345 0.65621 0.01517 0.0
H733 H 0.03019 0.64981 0.95499 0.0
H734 H 0.12446 0.51791 0.88884 0.0
H735 H 0.118 0.43842 0.90377 0.0
H736 H 0.02471 0.34178 1.00752 0.0
H737 H 0.95723 0.34837 0.06672 0.0
H738 H 0.95305 0.45817 0.85088 0.0
H739 H 0.89667 0.5757 0.88604 0.0
H740 H 0.10691 0.43478 0.11862 0.0
H741 H 0.02877 0.53587 0.17185 0.0
C742 C 0.4552 0.59176 0.01789 0.0
C743 C 0.45917 0.63337 1.01109 0.0
C744 C 0.49742 0.63747 0.98913 0.0
C745 C 0.51448 0.59827 0.98392 0.0
N746 N 0.48896 0.56949 0.99989 0.0
Co747 Co 0.50191 0.50843 1.00384 0.0
N748 N 0.56034 0.51368 0.97995 0.0
C749 C 0.57844 0.54861 0.96894 0.0
C750 C 0.61842 0.54236 0.95072 0.0
C751 C 0.62598 0.5011 0.94888 0.0
C752 C 0.59002 0.48464 0.96609 0.0
N753 N 0.51481 0.44735 1.00776 0.0
C754 C 0.54909 0.42483 0.99138 0.0
C755 C 0.54482 0.38324 0.99812 0.0
C756 C 0.50607 0.37942 0.01854 0.0
C757 C 0.48895 0.4187 0.02298 0.0
N758 N 0.44349 0.50326 0.02792 0.0
C759 C 0.42518 0.46846 0.0386 0.0
C760 C 0.38559 0.47473 0.05822 0.0
C761 C 0.37862 0.51582 0.06155 0.0
C762 C 0.41449 0.53214 0.04366 0.0
N763 N 0.48812 0.51001 0.93456 0.0
C764 C 0.47776 0.50567 0.83458 0.0
C765 C 0.46092 0.47833 0.87179 0.0
C766 C 0.46607 0.4813 0.92108 0.0
C767 C 0.49809 0.53646 0.84855 0.0
C768 C 0.50291 0.53802 0.89822 0.0
N769 N 0.51566 0.50685 0.07302 0.0
C770 C 0.5054 0.48027 0.15887 0.0
C771 C 0.5249 0.51156 0.17306 0.0
C772 C 0.54169 0.53911 0.13608 0.0
C773 C 0.53709 0.53597 0.08668 0.0
C774 C 0.50115 0.47852 0.10914 0.0
H775 H 0.55012 0.55817 0.06032 0.0
H776 H 0.48511 0.45455 0.10098 0.0
H777 H 0.45282 0.45932 0.94746 0.0
H778 H 0.51948 0.56167 0.90613 0.0
C779 C 0.55581 0.58703 0.97069 0.0
C780 C 0.42104 0.57432 0.04667 0.0
C781 C 0.58444 0.4419 0.96472 0.0
C782 C 0.44765 0.43003 0.03633 0.0
H783 H 0.43747 0.65792 0.0231 0.0
H784 H 0.51196 0.66541 0.98089 0.0
H785 H 0.63894 0.56527 0.93794 0.0
H786 H 0.65416 0.48507 0.93464 0.0
H787 H 0.56677 0.3584 0.98742 0.0
H788 H 0.49146 0.35152 0.02678 0.0
H789 H 0.36512 0.45184 0.07138 0.0
H790 H 0.35107 0.53176 0.07744 0.0
H791 H 0.44489 0.45383 0.8631 0.0
H792 H 0.51067 0.55921 0.82131 0.0
H793 H 0.49296 0.45736 0.186 0.0
H794 H 0.55716 0.5639 0.14503 0.0
C795 C 0.92911 0.5146 0.44511 0.0
C796 C 0.89471 0.49834 0.43386 0.0
C797 C 0.89753 0.45866 0.45545 0.0
C798 C 0.93316 0.45299 0.47888 0.0
N799 N 0.95352 0.48652 0.47326 0.0
Co800 Co 0.00465 0.49219 0.50518 0.0
N801 N 0.0109 0.43262 0.53275 0.0
C802 C 0.98626 0.40428 0.52625 0.0
C803 C 0.99862 0.36568 0.54823 0.0
C804 C 0.03346 0.36947 0.56983 0.0
C805 C 0.04029 0.4104 0.55986 0.0
N806 N 0.05423 0.49853 0.53966 0.0
C807 C 0.07808 0.47074 0.56878 0.0
C808 C 0.10839 0.48878 0.58721 0.0
C809 C 0.10339 0.52938 0.56937 0.0
C810 C 0.07045 0.53384 0.54121 0.0
N811 N 1.00037 0.55086 0.4743 0.0
C812 C 0.02639 0.57854 0.47853 0.0
C813 C 0.0171 0.61582 0.45145 0.0
C814 C 0.98302 0.61179 0.4285 0.0
C815 C 0.97317 0.57223 0.44345 0.0
N816 N 0.97005 0.50723 0.56444 0.0
C817 C 0.93009 0.52553 0.65527 0.0
C818 C 0.94569 0.55618 0.62139 0.0
C819 C 0.96583 0.54639 0.57695 0.0
C820 C 0.93165 0.48644 0.64064 0.0
C821 C 0.95081 0.4783 0.59525 0.0
N822 N 0.03904 0.47736 0.44637 0.0
C823 C 0.09453 0.49026 0.3852 0.0
C824 C 0.08056 0.46476 0.35507 0.0
C825 C 0.04776 0.44287 0.37363 0.0
C826 C 0.02774 0.44945 0.41908 0.0
C827 C 0.07348 0.49602 0.43055 0.0
H828 H 0.00202 0.43299 0.43039 0.0
H829 H 0.08461 0.51691 0.45132 0.0
H830 H 0.97854 0.57105 0.55423 0.0
H831 H 0.95065 0.44783 0.58704 0.0
C832 C 0.94997 0.41575 0.50292 0.0
C833 C 0.93682 0.55702 0.42889 0.0
C834 C 0.07393 0.42696 0.57897 0.0
C835 C 0.05695 0.56957 0.51155 0.0
H836 H 0.87007 0.51357 0.41232 0.0
H837 H 0.87637 0.43642 0.45374 0.0
H838 H 0.98359 0.33825 0.54939 0.0
H839 H 0.05134 0.34503 0.59138 0.0
H840 H 0.13208 0.47402 0.61052 0.0
H841 H 0.12226 0.55265 0.5751 0.0
H842 H 0.0327 0.64298 0.44949 0.0
H843 H 0.96682 0.63556 0.40423 0.0
H844 H 0.94393 0.58743 0.62968 0.0
H845 H 0.92025 0.46121 0.66491 0.0
H846 H 0.12033 0.50725 0.37287 0.0
H847 H 0.03543 0.42291 0.35182 0.0
C848 C 0.99872 0.96205 0.24507 0.0
C849 C 0.99886 0.99779 0.20962 0.0
H850 H 1.00047 0.93384 0.32106 0.0
C851 C 0.99859 0.03449 0.23189 0.0
H852 H 0.99793 0.93265 0.23228 0.0
C853 C 0.9976 0.03544 0.28455 0.0
C854 C 0.99845 0.99961 0.31993 0.0
H855 H 0.99929 0.06332 0.20833 0.0
H856 H 0.99586 0.0651 0.29752 0.0
C857 C 0.99926 0.96285 0.29763 0.0
C858 C 0.34139 0.69188 0.51258 0.0
C859 C 0.32659 0.66036 0.49161 0.0
H860 H 0.34083 0.72299 0.57615 0.0
C861 C 0.30613 0.63095 0.52323 0.0
H862 H 0.35696 0.71556 0.4904 0.0
C863 C 0.29564 0.63644 0.57256 0.0
C864 C 0.30718 0.67025 0.59139 0.0
H865 H 0.29579 0.60513 0.50944 0.0
H866 H 0.27669 0.61568 0.59514 0.0
C867 C 0.33191 0.69656 0.56201 0.0
C868 C 0.5455 0.92061 0.79294 0.0
C869 C 0.57551 0.93718 0.81534 0.0
H870 H 0.51978 0.91481 0.7257 0.0
C871 C 0.60817 0.95289 0.78505 0.0
H872 H 0.51962 0.90845 0.81423 0.0
C873 C 0.60739 0.95748 0.73374 0.0
C874 C 0.57481 0.94498 0.71222 0.0
H875 H 0.63272 0.96452 0.80076 0.0
H876 H 0.63041 0.97349 0.71115 0.0
C877 C 0.54535 0.92432 0.74189 0.0
C878 C 0.24956 0.23577 1.00716 0.0
C879 C 0.25424 0.26964 0.97112 0.0
H880 H 0.25042 0.212 0.08371 0.0
C881 C 0.26302 0.3065 0.98624 0.0
H882 H 0.24354 0.20667 0.99702 0.0
C883 C 0.26755 0.30918 0.03589 0.0
C884 C 0.26294 0.27527 0.07144 0.0
H885 H 0.26637 0.33336 0.95974 0.0
H886 H 0.27489 0.33765 0.04654 0.0
C887 C 0.25385 0.2386 0.05676 0.0
C888 C 0.04229 0.99292 0.73493 0.0
C889 C 0.00607 0.99536 0.70922 0.0
H890 H 0.07108 0.99242 0.80336 0.0
C891 C 0.96948 0.9984 0.741 0.0
H892 H 0.07168 0.98995 0.7142 0.0
C893 C 0.96917 0.99901 0.7937 0.0
C894 C 0.0054 0.99682 0.81934 0.0
H895 H 0.94035 0.00066 0.72496 0.0
H896 H 0.93983 0.00094 0.81467 0.0
C897 C 0.04196 0.99383 0.78753 0.0
C898 C 0.75822 0.35219 0.46645 0.0
C899 C 0.72481 0.34564 0.44131 0.0
H900 H 0.77965 0.35979 0.53515 0.0
C901 C 0.68514 0.35206 0.46385 0.0
H902 H 0.78907 0.34822 0.44945 0.0
C903 C 0.67945 0.35994 0.51285 0.0
C904 C 0.71345 0.36048 0.54028 0.0
H905 H 0.65882 0.34722 0.44526 0.0
H906 H 0.64873 0.36184 0.53042 0.0
C907 C 0.75265 0.35942 0.51555 0.0
C908 C 0.45772 0.07214 0.23585 0.0
C909 C 0.42861 0.05647 0.21096 0.0
H910 H 0.47929 0.07859 0.30536 0.0
C911 C 0.39408 0.04211 0.23872 0.0
H912 H 0.48499 0.08317 0.21663 0.0
C913 C 0.39177 0.03828 0.2902 0.0
C914 C 0.42301 0.05042 0.31446 0.0
H915 H 0.37012 0.03125 0.22107 0.0
H916 H 0.36701 0.02361 0.31103 0.0
C917 C 0.45469 0.06942 0.28704 0.0
C918 C 0.73923 0.68975 0.03498 0.0
C919 C 0.75022 0.72544 0.05087 0.0
H920 H 0.72491 0.66078 0.97401 0.0
C921 C 0.75633 0.75943 0.01548 0.0
H922 H 0.73475 0.6628 0.06092 0.0
C923 C 0.75141 0.75781 0.96576 0.0
C924 C 0.74013 0.72231 0.95034 0.0
H925 H 0.76402 0.78771 0.02621 0.0
H926 H 0.75609 0.78444 0.93929 0.0
C927 C 0.73396 0.68833 0.98524 0.0
C928 C 0.43818 0.48435 0.7155 0.0
C929 C 0.47107 0.493 0.68149 0.0
H930 H 0.41384 0.4828 0.79039 0.0
C931 C 0.50619 0.50537 0.69769 0.0
H932 H 0.41097 0.47442 0.70356 0.0
C933 C 0.50832 0.50942 0.74731 0.0
C934 C 0.47518 0.50147 0.78168 0.0
H935 H 0.53199 0.51191 0.67186 0.0
H936 H 0.53621 0.51829 0.75877 0.0
C937 C 0.44007 0.48883 0.76514 0.0
C938 C 0.75807 0.15837 0.98524 0.0
C939 C 0.78056 0.18818 0.9574 0.0
H940 H 0.73592 0.13334 0.05743 0.0
C941 C 0.80492 0.20967 0.98238 0.0
H942 H 0.74013 0.14001 0.96759 0.0
C943 C 0.80386 0.20426 0.03363 0.0
C944 C 0.77784 0.17798 0.06109 0.0
H945 H 0.82237 0.23321 0.96302 0.0
H946 H 0.82058 0.22344 0.05186 0.0
C947 C 0.75606 0.15395 0.0367 0.0
C948 C 0.09626 0.51001 0.22351 0.0
C949 C 0.08938 0.47691 0.19938 0.0
H950 H 0.09904 0.5321 0.29239 0.0
C951 C 0.09138 0.43746 0.22571 0.0
H952 H 0.09584 0.5406 0.20374 0.0
C953 C 0.09396 0.43232 0.27671 0.0
C954 C 0.09418 0.46663 0.30194 0.0
H955 H 0.08663 0.41125 0.20795 0.0
H956 H 0.09188 0.40214 0.29681 0.0
C957 C 0.09851 0.50498 0.27442 0.0
C958 C 0.7607 0.82314 0.55999 0.0
C959 C 0.75454 0.7895 0.59546 0.0
H960 H 0.76183 0.84709 0.48359 0.0
C961 C 0.74496 0.75315 0.58041 0.0
H962 H 0.76855 0.85131 0.57091 0.0
C963 C 0.74171 0.75037 0.53059 0.0
C964 C 0.74791 0.78395 0.49464 0.0
H965 H 0.74044 0.72672 0.60727 0.0
H966 H 0.73527 0.72149 0.52021 0.0
C967 C 0.75724 0.82049 0.51006 0.0
C968 C 0.5613 0.52858 0.24341 0.0
C969 C 0.52655 0.51598 0.226 0.0
H970 H 0.58944 0.54255 0.30595 0.0
C971 C 0.49291 0.50804 0.25955 0.0
H972 H 0.58783 0.5347 0.2187 0.0
C973 C 0.4943 0.5118 0.30935 0.0
C974 C 0.52916 0.52388 0.32653 0.0
H975 H 0.46526 0.49928 0.24732 0.0
H976 H 0.46816 0.50518 0.33459 0.0
C977 C 0.56246 0.53276 0.29325 0.0
C978 C 0.2342 0.83885 0.04716 0.0
C979 C 0.22886 0.80105 0.07575 0.0
H980 H 0.23355 0.87313 0.97479 0.0
C981 C 0.21932 0.76849 0.05257 0.0
H982 H 0.24196 0.86436 0.0641 0.0
C983 C 0.21469 0.77342 1.00244 0.0
C984 C 0.21924 0.81115 0.97364 0.0
H985 H 0.2166 0.73851 0.07297 0.0
H986 H 0.20849 0.74702 0.98597 0.0
C987 C 0.22944 0.84388 0.99627 0.0
C988 C 0.93553 0.55766 0.78121 0.0
C989 C 0.91346 0.5288 0.81057 0.0
H990 H 0.959 0.5788 0.70923 0.0
C991 C 0.89 0.50483 0.78837 0.0
H992 H 0.95411 0.57618 0.79785 0.0
C993 C 0.8915 0.50721 0.7371 0.0
C994 C 0.91795 0.53227 0.70742 0.0
H995 H 0.87261 0.48251 0.81067 0.0
H996 H 0.87407 0.48731 0.72108 0.0
C997 C 0.93812 0.55915 0.73012 0.0
C998 C 0.26003 0.24284 0.44261 0.0
C999 C 0.2505 0.20695 0.4264 0.0
H1000 H 0.27032 0.27293 0.50393 0.0
C1001 C 0.24476 0.17257 0.46089 0.0
H1002 H 0.26429 0.2698 0.4165 0.0
C1003 C 0.24869 0.17402 0.51101 0.0
C1004 C 0.25816 0.21004 0.52758 0.0
H1005 H 0.23707 0.14469 0.44905 0.0
H1006 H 0.24449 0.14687 0.53671 0.0
C1007 C 0.2638 0.24442 0.49262 0.0
C1008 C 0.13519 0.14091 0.05229 0.0
C1009 C 0.13407 0.09826 0.06034 0.0
H1010 H 0.15477 0.19333 0.0777 0.0
C1011 C 0.15538 0.07519 0.09886 0.0
H1012 H 0.11965 0.15943 0.02249 0.0
C1013 C 0.17557 0.09456 0.13016 0.0
C1014 C 0.17451 0.13733 0.1238 0.0
H1015 H 0.15458 0.04237 0.10668 0.0
H1016 H 0.1903 0.07627 0.16075 0.0
C1017 C 0.15512 0.1603 0.08389 0.0
C1018 C 0.17966 0.85632 0.45928 0.0
C1019 C 0.14271 0.87468 0.44043 0.0
H1020 H 0.23451 0.81555 0.44736 0.0
C1021 C 0.13412 0.86856 0.39292 0.0
H1022 H 0.18681 0.86071 0.49586 0.0
C1023 C 0.16161 0.84386 0.36496 0.0
C1024 C 0.19781 0.82413 0.38438 0.0
H1025 H 0.10593 0.88277 0.37755 0.0
H1026 H 0.15408 0.83914 0.32864 0.0
C1027 C 0.20687 0.83078 0.4316 0.0
C1028 C 0.36207 0.87694 0.69472 0.0
C1029 C 0.33923 0.85174 0.67246 0.0
H1030 H 0.40594 0.92133 0.6856 0.0
C1031 C 0.34397 0.8547 0.62045 0.0
H1032 H 0.35904 0.87662 0.73435 0.0
C1033 C 0.37066 0.88102 0.5922 0.0
C1034 C 0.39401 0.90571 0.61453 0.0
H1035 H 0.32695 0.83643 0.60139 0.0
H1036 H 0.37298 0.88209 0.55249 0.0
C1037 C 0.38892 0.90308 0.66651 0.0
C1038 C 0.37719 0.09761 0.81926 0.0
C1039 C 0.35442 0.13295 0.83447 0.0
H1040 H 0.42106 0.04566 0.83858 0.0
C1041 C 0.35791 0.14278 0.88199 0.0
H1042 H 0.37496 0.08968 0.78263 0.0
C1043 C 0.38394 0.11767 0.91389 0.0
C1044 C 0.40701 0.08246 0.89864 0.0
H1045 H 0.34062 0.17 0.89427 0.0
H1046 H 0.3864 0.12589 0.95034 0.0
C1047 C 0.40336 0.07255 0.85112 0.0
C1048 C 0.85469 0.91932 0.92287 0.0
C1049 C 0.87361 0.89616 0.96316 0.0
H1050 H 0.82202 0.91872 0.85907 0.0
C1051 C 0.87129 0.8537 0.9715 0.0
H1052 H 0.85666 0.95195 0.91467 0.0
C1053 C 0.85187 0.83464 0.93905 0.0
C1054 C 0.83435 0.85775 0.8979 0.0
H1055 H 0.88515 0.83513 1.00249 0.0
H1056 H 0.85087 0.80178 0.94583 0.0
C1057 C 0.83512 0.90032 0.8907 0.0
C1058 C 0.83024 0.14281 0.66215 0.0
C1059 C 0.81912 0.1834 0.64211 0.0
H1060 H 0.86328 0.08477 0.65074 0.0
C1061 C 0.83264 0.19654 0.59331 0.0
H1062 H 0.82042 0.13222 0.69986 0.0
C1063 C 0.85761 0.16958 0.56526 0.0
C1064 C 0.86882 0.12889 0.58538 0.0
H1065 H 0.82433 0.22781 0.57725 0.0
H1066 H 0.86809 0.18046 0.52791 0.0
C1067 C 0.8546 0.11575 0.63399 0.0
C1068 C 0.62487 0.1263 0.33868 0.0
C1069 C 0.65114 0.14762 0.36154 0.0
H1070 H 0.57853 0.08448 0.34708 0.0
C1071 C 0.64948 0.14098 0.41361 0.0
H1072 H 0.625 0.13011 0.29889 0.0
C1073 C 0.62266 0.11459 0.44144 0.0
C1074 C 0.59626 0.09344 0.41857 0.0
H1075 H 0.66886 0.15657 0.43304 0.0
H1076 H 0.62259 0.11069 0.48122 0.0
C1077 C 0.59813 0.09984 0.3665 0.0
C1078 C 0.63171 0.89592 0.20547 0.0
C1079 C 0.65356 0.86027 0.18989 0.0
H1080 H 0.58834 0.94851 0.18703 0.0
C1081 C 0.64903 0.85057 0.14257 0.0
H1082 H 0.63473 0.90374 0.24196 0.0
C1083 C 0.62285 0.8761 0.11125 0.0
C1084 C 0.60065 0.9116 0.1269 0.0
H1085 H 0.66559 0.8231 0.13003 0.0
H1086 H 0.61954 0.86796 0.07497 0.0
C1087 C 0.60538 0.9214 0.17419 0.0
C1088 C 0.64828 0.61015 0.5972 0.0
C1089 C 0.60685 0.60564 0.60961 0.0
H1090 H 0.7012 0.63513 0.61461 0.0
C1091 C 0.58724 0.62117 0.6517 0.0
H1092 H 0.66385 0.59846 0.5647 0.0
C1093 C 0.60865 0.64139 0.68078 0.0
C1094 C 0.64994 0.64682 0.66792 0.0
H1095 H 0.55542 0.61731 0.66234 0.0
H1096 H 0.59286 0.65268 0.71337 0.0
C1097 C 0.66961 0.63084 0.62594 0.0
C1098 C 0.60432 0.42626 0.87901 0.0
C1099 C 0.61049 0.41813 0.92944 0.0
H1100 H 0.6221 0.40917 0.80678 0.0
C1101 C 0.64067 0.38702 0.946 0.0
H1102 H 0.5811 0.45023 0.86574 0.0
C1103 C 0.66391 0.36367 0.9125 0.0
C1104 C 0.65723 0.37131 0.86217 0.0
H1105 H 0.64581 0.38054 0.98483 0.0
H1106 H 0.68672 0.33931 0.92583 0.0
C1107 C 0.62757 0.40294 0.84553 0.0
C1108 C 0.86384 0.37115 0.18766 0.0
C1109 C 0.84189 0.34617 0.16397 0.0
H1110 H 0.90637 0.41676 0.18063 0.0
C1111 C 0.84757 0.34974 0.112 0.0
H1112 H 0.86056 0.36964 0.22742 0.0
C1113 C 0.87402 0.37689 0.08502 0.0
C1114 C 0.89596 0.40189 0.10869 0.0
H1115 H 0.8316 0.33119 0.09204 0.0
H1116 H 0.87731 0.37836 0.04526 0.0
C1117 C 0.89017 0.39843 0.16065 0.0
C1118 C 0.90114 0.58139 0.35119 0.0
C1119 C 0.9064 0.58563 0.40042 0.0
H1120 H 0.87003 0.60569 0.28611 0.0
C1121 C 0.88333 0.61787 0.42231 0.0
H1122 H 0.91874 0.55682 0.33361 0.0
C1123 C 0.85577 0.64568 0.39527 0.0
C1124 C 0.85076 0.6416 0.346 0.0
H1125 H 0.88696 0.62168 0.46022 0.0
H1126 H 0.83854 0.67058 0.41265 0.0
C1127 C 0.87346 0.6092 0.32415 0.0
C1128 C 0.3657 0.3389 0.3972 0.0
C1129 C 0.34577 0.35763 0.35561 0.0
H1130 H 0.40111 0.34669 0.45611 0.0
C1131 C 0.34561 0.39996 0.34189 0.0
H1132 H 0.36553 0.30636 0.4089 0.0
C1133 C 0.36642 0.42301 0.36843 0.0
C1134 C 0.3873 0.40413 0.40946 0.0
H1135 H 0.33049 0.41493 0.30975 0.0
H1136 H 0.36724 0.45532 0.35584 0.0
C1137 C 0.38607 0.36197 0.42407 0.0
C1138 C 0.41143 0.58867 0.13396 0.0
C1139 C 0.39854 0.59642 0.08592 0.0
H1140 H 0.40184 0.60435 0.20786 0.0
C1141 C 0.36515 0.62578 0.0753 0.0
H1142 H 0.43723 0.56608 0.14261 0.0
C1143 C 0.34508 0.64754 0.11237 0.0
C1144 C 0.35831 0.64017 0.16028 0.0
H1145 H 0.35494 0.63203 0.03833 0.0
H1146 H 0.31947 0.67034 0.10367 0.0
C1147 C 0.39141 0.61045 0.17098 0.0
C1148 C 0.12404 0.62499 0.83063 0.0
C1149 C 0.14506 0.65101 0.85395 0.0
H1150 H 0.08157 0.57932 0.838 0.0
C1151 C 0.13756 0.64929 0.90568 0.0
H1152 H 0.1286 0.62507 0.7911 0.0
C1153 C 0.11097 0.62243 0.93284 0.0
C1154 C 0.09003 0.59631 0.90961 0.0
H1155 H 0.15246 0.66888 0.92542 0.0
H1156 H 0.10682 0.62207 0.97244 0.0
C1157 C 0.09707 0.5984 0.85778 0.0
C1158 C 0.09977 0.40002 0.66178 0.0
C1159 C 0.10291 0.39945 0.61053 0.0
H1160 H 0.12347 0.37418 0.73106 0.0
C1161 C 0.13326 0.37223 0.58944 0.0
H1162 H 0.07648 0.42079 0.67869 0.0
C1163 C 0.16001 0.3458 0.6192 0.0
C1164 C 0.15662 0.34611 0.67047 0.0
H1165 H 0.13611 0.37136 0.54998 0.0
H1166 H 0.18312 0.32484 0.60233 0.0
C1167 C 0.12646 0.37352 0.69157 0.0
loop_
_geom_bond_atom_site_label_1
_geom_bond_atom_site_label_2
_geom_bond_distance
_geom_bond_site_symmetry_2
_ccdc_geom_bond_type
C0 C1 1.443 . S
C0 N4 1.376 . S
C0 C38 1.389 1_545 S
C1 C0 1.443 . S
C1 C2 1.340 . S
C1 H41 0.951 . S
C2 C1 1.340 . S
C2 C3 1.439 . S
C2 H42 0.950 . S
C3 C2 1.439 . S
C3 N4 1.374 . S
C3 C37 1.395 1_554 S
N4 C0 1.376 . S
N4 C3 1.374 . S
N4 Co5 2.008 1_655 S
Co5 N4 2.008 1_455 S
Co5 N6 1.995 1_454 S
Co5 N11 2.008 1_544 S
Co5 N16 1.995 1_545 S
Co5 N21 2.282 1_444 S
Co5 N27 2.283 . S
N6 Co5 1.995 1_656 S
N6 C7 1.376 . S
N6 C10 1.383 . S
C7 N6 1.376 . S
C7 C8 1.446 . S
C7 C37 1.391 . S
C8 C7 1.446 . S
C8 C9 1.339 . S
C8 H43 0.949 . S
C9 C8 1.339 . S
C9 C10 1.439 . S
C9 H44 0.950 . S
C10 N6 1.383 . S
C10 C9 1.439 . S
C10 C39 1.392 1_655 S
N11 Co5 2.008 1_566 S
N11 C12 1.376 . S
N11 C15 1.374 . S
C12 N11 1.376 . S
C12 C13 1.443 . S
C12 C39 1.389 1_565 S
C13 C12 1.443 . S
C13 C14 1.340 . S
C13 H45 0.951 . S
C14 C13 1.340 . S
C14 C15 1.439 . S
C14 H46 0.950 . S
C15 N11 1.374 . S
C15 C14 1.439 . S
C15 C40 1.395 1_556 S
N16 Co5 1.995 1_565 S
N16 C17 1.376 . S
N16 C20 1.383 . S
C17 N16 1.376 . S
C17 C18 1.446 . S
C17 C40 1.391 . S
C18 C17 1.446 . S
C18 C19 1.339 . S
C18 H47 0.949 . S
C19 C18 1.339 . S
C19 C20 1.439 . S
C19 H48 0.950 . S
C20 N16 1.383 . S
C20 C19 1.439 . S
C20 C38 1.392 1_455 S
N21 Co5 2.282 1_666 S
N21 C24 1.332 . S
N21 C26 1.332 . S
C22 C23 1.386 . S
C22 C25 1.388 . S
C23 C22 1.386 . S
C23 C24 1.382 . S
C23 H49 0.950 . S
C24 N21 1.332 . S
C24 C23 1.382 . S
C24 H35 0.958 . S
C25 C22 1.388 . S
C25 C26 1.382 . S
C25 H50 0.950 . S
C26 N21 1.332 . S
C26 C25 1.382 . S
C26 H36 0.948 1_565 S
N27 Co5 2.283 . S
N27 C31 1.332 . S
N27 C32 1.332 . S
C28 C29 1.388 . S
C28 C32 1.382 . S
C28 H51 0.950 . S
C29 C28 1.388 . S
C29 C30 1.386 . S
C30 C29 1.386 . S
C30 C31 1.382 . S
C30 H52 0.950 . S
C31 N27 1.332 . S
C31 C30 1.382 . S
C31 H33 0.961 . S
C32 N27 1.332 . S
C32 C28 1.382 . S
C32 H34 0.948 1_545 S
H33 C31 0.961 . S
H34 C32 0.948 1_565 S
H35 C24 0.958 . S
H36 C26 0.948 1_545 S
C37 C3 1.395 1_556 S
C37 C7 1.391 . S
C38 C0 1.389 1_565 S
C38 C20 1.392 1_655 S
C39 C10 1.392 1_455 S
C39 C12 1.389 1_545 S
C40 C15 1.395 1_554 S
C40 C17 1.391 . S
H41 C1 0.951 . S
H42 C2 0.950 . S
H43 C8 0.949 . S
H44 C9 0.950 . S
H45 C13 0.951 . S
H46 C14 0.950 . S
H47 C18 0.949 . S
H48 C19 0.950 . S
H49 C23 0.950 . S
H50 C25 0.950 . S
H51 C28 0.950 . S
H52 C30 0.950 . S
C53 C54 1.443 . S
C53 N57 1.376 . S
C53 C91 1.389 . S
C54 C53 1.443 . S
C54 C55 1.340 . S
C54 H94 0.951 . S
C55 C54 1.340 . S
C55 C56 1.439 . S
C55 H95 0.950 . S
C56 C55 1.439 . S
C56 N57 1.374 . S
C56 C90 1.395 . S
N57 C53 1.376 . S
N57 C56 1.374 . S
N57 Co58 2.008 . S
Co58 N57 2.008 . S
Co58 N59 1.995 . S
Co58 N64 2.008 . S
Co58 N69 1.995 . S
Co58 N74 2.282 . S
Co58 N80 2.282 . S
N59 Co58 1.995 . S
N59 C60 1.376 . S
N59 C63 1.383 . S
C60 N59 1.376 . S
C60 C61 1.446 . S
C60 C90 1.391 . S
C61 C60 1.446 . S
C61 C62 1.339 . S
C61 H96 0.949 . S
C62 C61 1.339 . S
C62 C63 1.439 . S
C62 H97 0.950 . S
C63 N59 1.383 . S
C63 C62 1.439 . S
C63 C92 1.392 . S
N64 Co58 2.008 . S
N64 C65 1.376 . S
N64 C68 1.374 . S
C65 N64 1.376 . S
C65 C66 1.443 . S
C65 C92 1.389 . S
C66 C65 1.443 . S
C66 C67 1.340 . S
C66 H98 0.951 . S
C67 C66 1.340 . S
C67 C68 1.439 . S
C67 H99 0.950 . S
C68 N64 1.374 . S
C68 C67 1.439 . S
C68 C93 1.395 . S
N69 Co58 1.995 . S
N69 C70 1.376 . S
N69 C73 1.383 . S
C70 N69 1.376 . S
C70 C71 1.446 . S
C70 C93 1.391 . S
C71 C70 1.446 . S
C71 C72 1.339 . S
C71 H100 0.949 . S
C72 C71 1.339 . S
C72 C73 1.439 . S
C72 H101 0.950 . S
C73 N69 1.383 . S
C73 C72 1.439 . S
C73 C91 1.392 . S
N74 Co58 2.282 . S
N74 C77 1.332 . S
N74 C79 1.332 . S
C75 C76 1.386 . S
C75 C78 1.388 . S
C76 C75 1.386 . S
C76 C77 1.382 . S
C76 H102 0.950 . S
C77 N74 1.332 . S
C77 C76 1.382 . S
C77 H88 0.952 . S
C78 C75 1.388 . S
C78 C79 1.382 . S
C78 H103 0.950 . S
C79 N74 1.332 . S
C79 C78 1.382 . S
C79 H89 0.948 . S
N80 Co58 2.282 . S
N80 C84 1.332 . S
N80 C85 1.332 . S
C81 C82 1.388 . S
C81 C85 1.382 . S
C81 H104 0.950 . S
C82 C81 1.388 . S
C82 C83 1.386 . S
C83 C82 1.386 . S
C83 C84 1.382 . S
C83 H105 0.950 . S
C84 N80 1.332 . S
C84 C83 1.382 . S
C84 H86 0.952 . S
C85 N80 1.332 . S
C85 C81 1.382 . S
C85 H87 0.948 . S
H86 C84 0.952 . S
H87 C85 0.948 . S
H88 C77 0.952 . S
H89 C79 0.948 . S
C90 C56 1.395 . S
C90 C60 1.391 . S
C91 C53 1.389 . S
C91 C73 1.392 . S
C92 C63 1.392 . S
C92 C65 1.389 . S
C93 C68 1.395 . S
C93 C70 1.391 . S
H94 C54 0.951 . S
H95 C55 0.950 . S
H96 C61 0.949 . S
H97 C62 0.950 . S
H98 C66 0.951 . S
H99 C67 0.950 . S
H100 C71 0.949 . S
H101 C72 0.950 . S
H102 C76 0.950 . S
H103 C78 0.950 . S
H104 C81 0.950 . S
H105 C83 0.950 . S
C106 C107 1.443 . S
C106 N110 1.376 1_565 S
C106 C144 1.389 . S
C107 C106 1.443 . S
C107 C108 1.340 1_565 S
C107 H147 0.951 . S
C108 C107 1.340 1_545 S
C108 C109 1.439 . S
C108 H148 0.950 . S
C109 C108 1.439 . S
C109 N110 1.374 . S
C109 C143 1.395 . S
N110 C106 1.376 1_545 S
N110 C109 1.374 . S
N110 Co111 2.008 . S
Co111 N110 2.008 . S
Co111 N112 1.995 . S
Co111 N117 2.008 1_545 S
Co111 N122 1.995 1_545 S
Co111 N127 2.282 1_545 S
Co111 N133 2.282 . S
N112 Co111 1.995 . S
N112 C113 1.376 . S
N112 C116 1.383 . S
C113 N112 1.376 . S
C113 C114 1.446 . S
C113 C143 1.391 . S
C114 C113 1.446 . S
C114 C115 1.339 . S
C114 H149 0.949 . S
C115 C114 1.339 . S
C115 C116 1.439 . S
C115 H150 0.950 . S
C116 N112 1.383 . S
C116 C115 1.439 . S
C116 C145 1.392 . S
N117 Co111 2.008 1_565 S
N117 C118 1.376 1_565 S
N117 C121 1.374 . S
C118 N117 1.376 1_545 S
C118 C119 1.443 . S
C118 C145 1.389 . S
C119 C118 1.443 . S
C119 C120 1.340 1_545 S
C119 H151 0.951 . S
C120 C119 1.340 1_565 S
C120 C121 1.439 . S
C120 H152 0.950 . S
C121 N117 1.374 . S
C121 C120 1.439 . S
C121 C146 1.395 . S
N122 Co111 1.995 1_565 S
N122 C123 1.376 . S
N122 C126 1.383 . S
C123 N122 1.376 . S
C123 C124 1.446 . S
C123 C146 1.391 . S
C124 C123 1.446 . S
C124 C125 1.339 . S
C124 H153 0.949 . S
C125 C124 1.339 . S
C125 C126 1.439 . S
C125 H154 0.950 . S
C126 N122 1.383 . S
C126 C125 1.439 . S
C126 C144 1.392 . S
N127 Co111 2.282 1_565 S
N127 C130 1.332 . S
N127 C132 1.332 1_565 S
C128 C129 1.386 . S
C128 C131 1.388 1_565 S
C129 C128 1.386 . S
C129 C130 1.382 . S
C129 H155 0.950 . S
C130 N127 1.332 . S
C130 C129 1.382 . S
C130 H141 0.952 . S
C131 C128 1.388 1_545 S
C131 C132 1.382 . S
C131 H156 0.950 . S
C132 N127 1.332 1_545 S
C132 C131 1.382 . S
C132 H142 0.948 . S
N133 Co111 2.282 . S
N133 C137 1.332 . S
N133 C138 1.332 1_545 S
C134 C135 1.388 1_565 S
C134 C138 1.382 . S
C134 H157 0.950 . S
C135 C134 1.388 1_545 S
C135 C136 1.386 . S
C136 C135 1.386 . S
C136 C137 1.382 . S
C136 H158 0.950 . S
C137 N133 1.332 . S
C137 C136 1.382 . S
C137 H139 0.952 . S
C138 N133 1.332 1_565 S
C138 C134 1.382 . S
C138 H140 0.948 . S
H139 C137 0.952 . S
H140 C138 0.948 . S
H141 C130 0.952 . S
H142 C132 0.948 . S
C143 C109 1.395 . S
C143 C113 1.391 . S
C144 C106 1.389 . S
C144 C126 1.392 . S
C145 C116 1.392 . S
C145 C118 1.389 . S
C146 C121 1.395 . S
C146 C123 1.391 . S
H147 C107 0.951 . S
H148 C108 0.950 . S
H149 C114 0.949 . S
H150 C115 0.950 . S
H151 C119 0.951 . S
H152 C120 0.950 . S
H153 C124 0.949 . S
H154 C125 0.950 . S
H155 C129 0.950 . S
H156 C131 0.950 . S
H157 C134 0.950 . S
H158 C136 0.950 . S
C159 C160 1.443 . S
C159 N163 1.376 . S
C159 C197 1.389 . S
C160 C159 1.443 . S
C160 C161 1.340 . S
C160 H200 0.951 . S
C161 C160 1.340 . S
C161 C162 1.439 . S
C161 H201 0.950 . S
C162 C161 1.439 . S
C162 N163 1.374 . S
C162 C196 1.395 . S
N163 C159 1.376 . S
N163 C162 1.374 . S
N163 Co164 2.008 . S
Co164 N163 2.008 . S
Co164 N165 1.995 . S
Co164 N170 2.008 . S
Co164 N175 1.995 . S
Co164 N180 2.282 . S
Co164 N186 2.282 . S
N165 Co164 1.995 . S
N165 C166 1.376 . S
N165 C169 1.383 . S
C166 N165 1.376 . S
C166 C167 1.446 . S
C166 C196 1.391 . S
C167 C166 1.446 . S
C167 C168 1.339 . S
C167 H202 0.949 . S
C168 C167 1.339 . S
C168 C169 1.439 . S
C168 H203 0.950 . S
C169 N165 1.383 . S
C169 C168 1.439 . S
C169 C198 1.392 . S
N170 Co164 2.008 . S
N170 C171 1.376 . S
N170 C174 1.374 . S
C171 N170 1.376 . S
C171 C172 1.443 . S
C171 C198 1.389 . S
C172 C171 1.443 . S
C172 C173 1.340 . S
C172 H204 0.951 . S
C173 C172 1.340 . S
C173 C174 1.439 . S
C173 H205 0.950 . S
C174 N170 1.374 . S
C174 C173 1.439 . S
C174 C199 1.395 . S
N175 Co164 1.995 . S
N175 C176 1.376 . S
N175 C179 1.383 . S
C176 N175 1.376 . S
C176 C177 1.446 . S
C176 C199 1.391 . S
C177 C176 1.446 . S
C177 C178 1.339 . S
C177 H206 0.949 . S
C178 C177 1.339 . S
C178 C179 1.439 . S
C178 H207 0.950 . S
C179 N175 1.383 . S
C179 C178 1.439 . S
C179 C197 1.392 . S
N180 Co164 2.282 . S
N180 C183 1.332 . S
N180 C185 1.332 . S
C181 C182 1.386 . S
C181 C184 1.388 . S
C182 C181 1.386 . S
C182 C183 1.382 . S
C182 H208 0.950 . S
C183 N180 1.332 . S
C183 C182 1.382 . S
C183 H194 0.952 . S
C184 C181 1.388 . S
C184 C185 1.382 . S
C184 H209 0.950 . S
C185 N180 1.332 . S
C185 C184 1.382 . S
C185 H195 0.948 . S
N186 Co164 2.282 . S
N186 C190 1.332 . S
N186 C191 1.332 . S
C187 C188 1.388 . S
C187 C191 1.382 . S
C187 H210 0.950 . S
C188 C187 1.388 . S
C188 C189 1.386 . S
C189 C188 1.386 . S
C189 C190 1.382 . S
C189 H211 0.950 . S
C190 N186 1.332 . S
C190 C189 1.382 . S
C190 H192 0.952 . S
C191 N186 1.332 . S
C191 C187 1.382 . S
C191 H193 0.948 . S
H192 C190 0.952 . S
H193 C191 0.948 . S
H194 C183 0.952 . S
H195 C185 0.948 . S
C196 C162 1.395 . S
C196 C166 1.391 . S
C197 C159 1.389 . S
C197 C179 1.392 . S
C198 C169 1.392 . S
C198 C171 1.389 . S
C199 C174 1.395 . S
C199 C176 1.391 . S
H200 C160 0.951 . S
H201 C161 0.950 . S
H202 C167 0.949 . S
H203 C168 0.950 . S
H204 C172 0.951 . S
H205 C173 0.950 . S
H206 C177 0.949 . S
H207 C178 0.950 . S
H208 C182 0.950 . S
H209 C184 0.950 . S
H210 C187 0.950 . S
H211 C189 0.950 . S
C212 C213 1.443 . S
C212 N216 1.376 . S
C212 C250 1.389 1_655 S
C213 C212 1.443 . S
C213 C214 1.340 . S
C213 H253 0.951 . S
C214 C213 1.340 . S
C214 C215 1.439 . S
C214 H254 0.950 . S
C215 C214 1.439 . S
C215 N216 1.374 . S
C215 C249 1.395 . S
N216 C212 1.376 . S
N216 C215 1.374 . S
N216 Co217 2.008 1_665 S
Co217 N216 2.008 1_445 S
Co217 N218 1.995 1_445 S
Co217 N223 2.008 . S
Co217 N228 1.995 . S
Co217 N233 2.282 1_545 S
Co217 N239 2.282 1_455 S
N218 Co217 1.995 1_665 S
N218 C219 1.376 . S
N218 C222 1.383 . S
C219 N218 1.376 . S
C219 C220 1.446 . S
C219 C249 1.391 . S
C220 C219 1.446 . S
C220 C221 1.339 . S
C220 H255 0.949 . S
C221 C220 1.339 . S
C221 C222 1.439 . S
C221 H256 0.950 . S
C222 N218 1.383 . S
C222 C221 1.439 . S
C222 C251 1.392 1_565 S
N223 Co217 2.008 . S
N223 C224 1.376 . S
N223 C227 1.374 . S
C224 N223 1.376 . S
C224 C225 1.443 . S
C224 C251 1.389 1_455 S
C225 C224 1.443 . S
C225 C226 1.340 . S
C225 H257 0.951 . S
C226 C225 1.340 . S
C226 C227 1.439 . S
C226 H258 0.950 . S
C227 N223 1.374 . S
C227 C226 1.439 . S
C227 C252 1.395 . S
N228 Co217 1.995 . S
N228 C229 1.376 . S
N228 C232 1.383 . S
C229 N228 1.376 . S
C229 C230 1.446 . S
C229 C252 1.391 . S
C230 C229 1.446 . S
C230 C231 1.339 . S
C230 H259 0.949 . S
C231 C230 1.339 . S
C231 C232 1.439 . S
C231 H260 0.950 . S
C232 N228 1.383 . S
C232 C231 1.439 . S
C232 C250 1.392 1_545 S
N233 Co217 2.282 1_565 S
N233 C236 1.332 . S
N233 C238 1.332 . S
C234 C235 1.386 . S
C234 C237 1.388 . S
C235 C234 1.386 . S
C235 C236 1.382 . S
C235 H261 0.950 . S
C236 N233 1.332 . S
C236 C235 1.382 . S
C236 H247 0.952 . S
C237 C234 1.388 . S
C237 C238 1.382 . S
C237 H262 0.950 . S
C238 N233 1.332 . S
C238 C237 1.382 . S
C238 H248 0.948 . S
N239 Co217 2.282 1_655 S
N239 C243 1.332 . S
N239 C244 1.332 . S
C240 C241 1.388 . S
C240 C244 1.382 . S
C240 H263 0.950 . S
C241 C240 1.388 . S
C241 C242 1.386 . S
C242 C241 1.386 . S
C242 C243 1.382 . S
C242 H264 0.950 . S
C243 N239 1.332 . S
C243 C242 1.382 . S
C243 H245 0.952 . S
C244 N239 1.332 . S
C244 C240 1.382 . S
C244 H246 0.948 . S
H245 C243 0.952 . S
H246 C244 0.948 . S
H247 C236 0.952 . S
H248 C238 0.948 . S
C249 C215 1.395 . S
C249 C219 1.391 . S
C250 C212 1.389 1_455 S
C250 C232 1.392 1_565 S
C251 C222 1.392 1_545 S
C251 C224 1.389 1_655 S
C252 C227 1.395 . S
C252 C229 1.391 . S
H253 C213 0.951 . S
H254 C214 0.950 . S
H255 C220 0.949 . S
H256 C221 0.950 . S
H257 C225 0.951 . S
H258 C226 0.950 . S
H259 C230 0.949 . S
H260 C231 0.950 . S
H261 C235 0.950 . S
H262 C237 0.950 . S
H263 C240 0.950 . S
H264 C242 0.950 . S
C265 C266 1.443 . S
C265 N269 1.376 . S
C265 C303 1.389 . S
C266 C265 1.443 . S
C266 C267 1.340 . S
C266 H306 0.951 . S
C267 C266 1.340 . S
C267 C268 1.439 . S
C267 H307 0.950 . S
C268 C267 1.439 . S
C268 N269 1.374 . S
C268 C302 1.395 . S
N269 C265 1.376 . S
N269 C268 1.374 . S
N269 Co270 2.008 . S
Co270 N269 2.008 . S
Co270 N271 1.995 . S
Co270 N276 2.008 . S
Co270 N281 1.995 . S
Co270 N286 2.282 . S
Co270 N292 2.282 . S
N271 Co270 1.995 . S
N271 C272 1.376 . S
N271 C275 1.383 . S
C272 N271 1.376 . S
C272 C273 1.446 . S
C272 C302 1.391 . S
C273 C272 1.446 . S
C273 C274 1.339 . S
C273 H308 0.949 . S
C274 C273 1.339 . S
C274 C275 1.439 . S
C274 H309 0.950 . S
C275 N271 1.383 . S
C275 C274 1.439 . S
C275 C304 1.392 . S
N276 Co270 2.008 . S
N276 C277 1.376 . S
N276 C280 1.374 . S
C277 N276 1.376 . S
C277 C278 1.443 . S
C277 C304 1.389 . S
C278 C277 1.443 . S
C278 C279 1.340 . S
C278 H310 0.951 . S
C279 C278 1.340 . S
C279 C280 1.439 . S
C279 H311 0.950 . S
C280 N276 1.374 . S
C280 C279 1.439 . S
C280 C305 1.395 . S
N281 Co270 1.995 . S
N281 C282 1.376 . S
N281 C285 1.383 . S
C282 N281 1.376 . S
C282 C283 1.446 . S
C282 C305 1.391 . S
C283 C282 1.446 . S
C283 C284 1.339 . S
C283 H312 0.949 . S
C284 C283 1.339 . S
C284 C285 1.439 . S
C284 H313 0.950 . S
C285 N281 1.383 . S
C285 C284 1.439 . S
C285 C303 1.392 . S
N286 Co270 2.282 . S
N286 C289 1.332 . S
N286 C291 1.332 . S
C287 C288 1.386 . S
C287 C290 1.388 . S
C288 C287 1.386 . S
C288 C289 1.382 . S
C288 H314 0.950 . S
C289 N286 1.332 . S
C289 C288 1.382 . S
C289 H300 0.952 . S
C290 C287 1.388 . S
C290 C291 1.382 . S
C290 H315 0.950 . S
C291 N286 1.332 . S
C291 C290 1.382 . S
C291 H301 0.948 . S
N292 Co270 2.282 . S
N292 C296 1.332 . S
N292 C297 1.332 . S
C293 C294 1.388 . S
C293 C297 1.382 . S
C293 H316 0.950 . S
C294 C293 1.388 . S
C294 C295 1.386 . S
C295 C294 1.386 . S
C295 C296 1.382 . S
C295 H317 0.950 . S
C296 N292 1.332 . S
C296 C295 1.382 . S
C296 H298 0.952 . S
C297 N292 1.332 . S
C297 C293 1.382 . S
C297 H299 0.948 . S
H298 C296 0.952 . S
H299 C297 0.948 . S
H300 C289 0.952 . S
H301 C291 0.948 . S
C302 C268 1.395 . S
C302 C272 1.391 . S
C303 C265 1.389 . S
C303 C285 1.392 . S
C304 C275 1.392 . S
C304 C277 1.389 . S
C305 C280 1.395 . S
C305 C282 1.391 . S
H306 C266 0.951 . S
H307 C267 0.950 . S
H308 C273 0.949 . S
H309 C274 0.950 . S
H310 C278 0.951 . S
H311 C279 0.950 . S
H312 C283 0.949 . S
H313 C284 0.950 . S
H314 C288 0.950 . S
H315 C290 0.950 . S
H316 C293 0.950 . S
H317 C295 0.950 . S
C318 C319 1.443 . S
C318 N322 1.376 . S
C318 C356 1.389 . S
C319 C318 1.443 . S
C319 C320 1.340 1_545 S
C319 H359 0.951 . S
C320 C319 1.340 1_565 S
C320 C321 1.439 . S
C320 H360 0.950 . S
C321 C320 1.439 . S
C321 N322 1.375 1_565 S
C321 C355 1.395 1_556 S
N322 C318 1.376 . S
N322 C321 1.375 1_545 S
N322 Co323 2.008 1_556 S
Co323 N322 2.008 1_554 S
Co323 N324 1.995 1_545 S
Co323 N329 2.008 . S
Co323 N334 1.995 1_554 S
Co323 N339 2.283 . S
Co323 N345 2.282 1_544 S
N324 Co323 1.995 1_565 S
N324 C325 1.376 . S
N324 C328 1.383 . S
C325 N324 1.376 . S
C325 C326 1.446 . S
C325 C355 1.391 . S
C326 C325 1.446 . S
C326 C327 1.339 . S
C326 H361 0.949 . S
C327 C326 1.339 . S
C327 C328 1.439 . S
C327 H362 0.950 . S
C328 N324 1.383 . S
C328 C327 1.439 . S
C328 C357 1.392 . S
N329 Co323 2.008 . S
N329 C330 1.376 1_545 S
N329 C333 1.375 . S
C330 N329 1.376 1_565 S
C330 C331 1.443 . S
C330 C357 1.389 . S
C331 C330 1.443 . S
C331 C332 1.340 1_565 S
C331 H363 0.951 . S
C332 C331 1.340 1_545 S
C332 C333 1.439 . S
C332 H364 0.950 . S
C333 N329 1.375 . S
C333 C332 1.439 . S
C333 C358 1.395 1_554 S
N334 Co323 1.995 1_556 S
N334 C335 1.376 . S
N334 C338 1.383 . S
C335 N334 1.376 . S
C335 C336 1.446 . S
C335 C358 1.391 . S
C336 C335 1.446 . S
C336 C337 1.339 . S
C336 H365 0.949 . S
C337 C336 1.339 . S
C337 C338 1.439 . S
C337 H366 0.950 . S
C338 N334 1.383 . S
C338 C337 1.439 . S
C338 C356 1.392 . S
N339 Co323 2.283 . S
N339 C342 1.332 . S
N339 C344 1.332 1_545 S
C340 C341 1.386 . S
C340 C343 1.388 1_545 S
C341 C340 1.386 . S
C341 C342 1.382 . S
C341 H367 0.950 . S
C342 N339 1.332 . S
C342 C341 1.382 . S
C342 H353 0.952 . S
C343 C340 1.388 1_565 S
C343 C344 1.382 . S
C343 H368 0.950 . S
C344 N339 1.332 1_565 S
C344 C343 1.382 . S
C344 H354 0.948 . S
N345 Co323 2.282 1_566 S
N345 C349 1.332 . S
N345 C350 1.332 1_565 S
C346 C347 1.388 1_545 S
C346 C350 1.382 . S
C346 H369 0.950 . S
C347 C346 1.388 1_565 S
C347 C348 1.386 . S
C348 C347 1.386 . S
C348 C349 1.382 . S
C348 H370 0.950 . S
C349 N345 1.332 . S
C349 C348 1.382 . S
C349 H351 0.952 . S
C350 N345 1.332 1_545 S
C350 C346 1.382 . S
C350 H352 0.948 . S
H351 C349 0.952 . S
H352 C350 0.948 . S
H353 C342 0.952 . S
H354 C344 0.948 . S
C355 C321 1.395 1_554 S
C355 C325 1.391 . S
C356 C318 1.389 . S
C356 C338 1.392 . S
C357 C328 1.392 . S
C357 C330 1.389 . S
C358 C333 1.395 1_556 S
C358 C335 1.391 . S
H359 C319 0.951 . S
H360 C320 0.950 . S
H361 C326 0.949 . S
H362 C327 0.950 . S
H363 C331 0.951 . S
H364 C332 0.950 . S
H365 C336 0.949 . S
H366 C337 0.950 . S
H367 C341 0.950 . S
H368 C343 0.950 . S
H369 C346 0.950 . S
H370 C348 0.950 . S
C371 C372 1.443 . S
C371 N375 1.376 . S
C371 C409 1.389 . S
C372 C371 1.443 . S
C372 C373 1.340 . S
C372 H412 0.951 . S
C373 C372 1.340 . S
C373 C374 1.439 . S
C373 H413 0.950 . S
C374 C373 1.439 . S
C374 N375 1.374 . S
C374 C408 1.395 . S
N375 C371 1.376 . S
N375 C374 1.374 . S
N375 Co376 2.008 . S
Co376 N375 2.008 . S
Co376 N377 1.995 . S
Co376 N382 2.008 . S
Co376 N387 1.995 . S
Co376 N392 2.282 . S
Co376 N398 2.282 . S
N377 Co376 1.995 . S
N377 C378 1.376 . S
N377 C381 1.383 . S
C378 N377 1.376 . S
C378 C379 1.446 . S
C378 C408 1.391 . S
C379 C378 1.446 . S
C379 C380 1.339 . S
C379 H414 0.949 . S
C380 C379 1.339 . S
C380 C381 1.439 . S
C380 H415 0.950 . S
C381 N377 1.383 . S
C381 C380 1.439 . S
C381 C410 1.392 . S
N382 Co376 2.008 . S
N382 C383 1.376 . S
N382 C386 1.374 . S
C383 N382 1.376 . S
C383 C384 1.443 . S
C383 C410 1.389 . S
C384 C383 1.443 . S
C384 C385 1.340 . S
C384 H416 0.951 . S
C385 C384 1.340 . S
C385 C386 1.439 . S
C385 H417 0.950 . S
C386 N382 1.374 . S
C386 C385 1.439 . S
C386 C411 1.395 . S
N387 Co376 1.995 . S
N387 C388 1.376 . S
N387 C391 1.383 . S
C388 N387 1.376 . S
C388 C389 1.446 . S
C388 C411 1.391 . S
C389 C388 1.446 . S
C389 C390 1.339 . S
C389 H418 0.949 . S
C390 C389 1.339 . S
C390 C391 1.439 . S
C390 H419 0.950 . S
C391 N387 1.383 . S
C391 C390 1.439 . S
C391 C409 1.392 . S
N392 Co376 2.282 . S
N392 C395 1.332 . S
N392 C397 1.332 . S
C393 C394 1.386 . S
C393 C396 1.388 . S
C394 C393 1.386 . S
C394 C395 1.382 . S
C394 H420 0.950 . S
C395 N392 1.332 . S
C395 C394 1.382 . S
C395 H406 0.952 . S
C396 C393 1.388 . S
C396 C397 1.382 . S
C396 H421 0.950 . S
C397 N392 1.332 . S
C397 C396 1.382 . S
C397 H407 0.948 . S
N398 Co376 2.282 . S
N398 C402 1.332 . S
N398 C403 1.332 . S
C399 C400 1.388 . S
C399 C403 1.382 . S
C399 H422 0.950 . S
C400 C399 1.388 . S
C400 C401 1.386 . S
C401 C400 1.386 . S
C401 C402 1.382 . S
C401 H423 0.950 . S
C402 N398 1.332 . S
C402 C401 1.382 . S
C402 H404 0.952 . S
C403 N398 1.332 . S
C403 C399 1.382 . S
C403 H405 0.948 . S
H404 C402 0.952 . S
H405 C403 0.948 . S
H406 C395 0.952 . S
H407 C397 0.948 . S
C408 C374 1.395 . S
C408 C378 1.391 . S
C409 C371 1.389 . S
C409 C391 1.392 . S
C410 C381 1.392 . S
C410 C383 1.389 . S
C411 C386 1.395 . S
C411 C388 1.391 . S
H412 C372 0.951 . S
H413 C373 0.950 . S
H414 C379 0.949 . S
H415 C380 0.950 . S
H416 C384 0.951 . S
H417 C385 0.950 . S
H418 C389 0.949 . S
H419 C390 0.950 . S
H420 C394 0.950 . S
H421 C396 0.950 . S
H422 C399 0.950 . S
H423 C401 0.950 . S
C424 C425 1.443 . S
C424 N428 1.376 . S
C424 C462 1.389 . S
C425 C424 1.443 . S
C425 C426 1.340 . S
C425 H465 0.951 . S
C426 C425 1.340 . S
C426 C427 1.439 . S
C426 H466 0.950 . S
C427 C426 1.439 . S
C427 N428 1.374 . S
C427 C461 1.395 . S
N428 C424 1.376 . S
N428 C427 1.374 . S
N428 Co429 2.008 . S
Co429 N428 2.008 . S
Co429 N430 1.995 . S
Co429 N435 2.008 . S
Co429 N440 1.995 . S
Co429 N445 2.282 . S
Co429 N451 2.282 . S
N430 Co429 1.995 . S
N430 C431 1.376 . S
N430 C434 1.383 . S
C431 N430 1.376 . S
C431 C432 1.446 . S
C431 C461 1.391 . S
C432 C431 1.446 . S
C432 C433 1.339 . S
C432 H467 0.949 . S
C433 C432 1.339 . S
C433 C434 1.439 . S
C433 H468 0.950 . S
C434 N430 1.383 . S
C434 C433 1.439 . S
C434 C463 1.392 . S
N435 Co429 2.008 . S
N435 C436 1.376 . S
N435 C439 1.374 . S
C436 N435 1.376 . S
C436 C437 1.443 . S
C436 C463 1.389 . S
C437 C436 1.443 . S
C437 C438 1.340 . S
C437 H469 0.951 . S
C438 C437 1.340 . S
C438 C439 1.439 . S
C438 H470 0.950 . S
C439 N435 1.374 . S
C439 C438 1.439 . S
C439 C464 1.395 . S
N440 Co429 1.995 . S
N440 C441 1.376 . S
N440 C444 1.383 . S
C441 N440 1.376 . S
C441 C442 1.446 . S
C441 C464 1.391 . S
C442 C441 1.446 . S
C442 C443 1.339 . S
C442 H471 0.949 . S
C443 C442 1.339 . S
C443 C444 1.439 . S
C443 H472 0.950 . S
C444 N440 1.383 . S
C444 C443 1.439 . S
C444 C462 1.392 . S
N445 Co429 2.282 . S
N445 C448 1.332 . S
N445 C450 1.332 . S
C446 C447 1.386 . S
C446 C449 1.388 . S
C447 C446 1.386 . S
C447 C448 1.382 . S
C447 H473 0.950 . S
C448 N445 1.332 . S
C448 C447 1.382 . S
C448 H459 0.952 . S
C449 C446 1.388 . S
C449 C450 1.382 . S
C449 H474 0.950 . S
C450 N445 1.332 . S
C450 C449 1.382 . S
C450 H460 0.948 . S
N451 Co429 2.282 . S
N451 C455 1.332 . S
N451 C456 1.332 . S
C452 C453 1.388 . S
C452 C456 1.382 . S
C452 H475 0.950 . S
C453 C452 1.388 . S
C453 C454 1.386 . S
C454 C453 1.386 . S
C454 C455 1.382 . S
C454 H476 0.950 . S
C455 N451 1.332 . S
C455 C454 1.382 . S
C455 H457 0.952 . S
C456 N451 1.332 . S
C456 C452 1.382 . S
C456 H458 0.948 . S
H457 C455 0.952 . S
H458 C456 0.948 . S
H459 C448 0.952 . S
H460 C450 0.948 . S
C461 C427 1.395 . S
C461 C431 1.391 . S
C462 C424 1.389 . S
C462 C444 1.392 . S
C463 C434 1.392 . S
C463 C436 1.389 . S
C464 C439 1.395 . S
C464 C441 1.391 . S
H465 C425 0.951 . S
H466 C426 0.950 . S
H467 C432 0.949 . S
H468 C433 0.950 . S
H469 C437 0.951 . S
H470 C438 0.950 . S
H471 C442 0.949 . S
H472 C443 0.950 . S
H473 C447 0.950 . S
H474 C449 0.950 . S
H475 C452 0.950 . S
H476 C454 0.950 . S
C477 C478 1.443 . S
C477 N481 1.376 . S
C477 C515 1.389 . S
C478 C477 1.443 . S
C478 C479 1.340 . S
C478 H518 0.951 . S
C479 C478 1.340 . S
C479 C480 1.439 . S
C479 H519 0.950 . S
C480 C479 1.439 . S
C480 N481 1.374 . S
C480 C514 1.395 . S
N481 C477 1.376 . S
N481 C480 1.374 . S
N481 Co482 2.008 . S
Co482 N481 2.008 . S
Co482 N483 1.995 . S
Co482 N488 2.008 . S
Co482 N493 1.995 . S
Co482 N498 2.282 . S
Co482 N504 2.282 . S
N483 Co482 1.995 . S
N483 C484 1.376 . S
N483 C487 1.383 . S
C484 N483 1.376 . S
C484 C485 1.446 . S
C484 C514 1.391 . S
C485 C484 1.446 . S
C485 C486 1.339 . S
C485 H520 0.949 . S
C486 C485 1.339 . S
C486 C487 1.439 . S
C486 H521 0.950 . S
C487 N483 1.383 . S
C487 C486 1.439 . S
C487 C516 1.392 . S
N488 Co482 2.008 . S
N488 C489 1.376 . S
N488 C492 1.374 . S
C489 N488 1.376 . S
C489 C490 1.443 . S
C489 C516 1.389 . S
C490 C489 1.443 . S
C490 C491 1.340 . S
C490 H522 0.951 . S
C491 C490 1.340 . S
C491 C492 1.439 . S
C491 H523 0.950 . S
C492 N488 1.374 . S
C492 C491 1.439 . S
C492 C517 1.395 . S
N493 Co482 1.995 . S
N493 C494 1.376 . S
N493 C497 1.383 . S
C494 N493 1.376 . S
C494 C495 1.446 . S
C494 C517 1.391 . S
C495 C494 1.446 . S
C495 C496 1.339 . S
C495 H524 0.949 . S
C496 C495 1.339 . S
C496 C497 1.439 . S
C496 H525 0.950 . S
C497 N493 1.383 . S
C497 C496 1.439 . S
C497 C515 1.392 . S
N498 Co482 2.282 . S
N498 C501 1.332 . S
N498 C503 1.332 . S
C499 C500 1.386 . S
C499 C502 1.388 . S
C500 C499 1.386 . S
C500 C501 1.382 . S
C500 H526 0.950 . S
C501 N498 1.332 . S
C501 C500 1.382 . S
C501 H512 0.952 . S
C502 C499 1.388 . S
C502 C503 1.382 . S
C502 H527 0.950 . S
C503 N498 1.332 . S
C503 C502 1.382 . S
C503 H513 0.948 . S
N504 Co482 2.282 . S
N504 C508 1.332 . S
N504 C509 1.332 . S
C505 C506 1.388 . S
C505 C509 1.382 . S
C505 H528 0.950 . S
C506 C505 1.388 . S
C506 C507 1.386 . S
C507 C506 1.386 . S
C507 C508 1.382 . S
C507 H529 0.950 . S
C508 N504 1.332 . S
C508 C507 1.382 . S
C508 H510 0.952 . S
C509 N504 1.332 . S
C509 C505 1.382 . S
C509 H511 0.948 . S
H510 C508 0.952 . S
H511 C509 0.948 . S
H512 C501 0.952 . S
H513 C503 0.948 . S
C514 C480 1.395 . S
C514 C484 1.391 . S
C515 C477 1.389 . S
C515 C497 1.392 . S
C516 C487 1.392 . S
C516 C489 1.389 . S
C517 C492 1.395 . S
C517 C494 1.391 . S
H518 C478 0.951 . S
H519 C479 0.950 . S
H520 C485 0.949 . S
H521 C486 0.950 . S
H522 C490 0.951 . S
H523 C491 0.950 . S
H524 C495 0.949 . S
H525 C496 0.950 . S
H526 C500 0.950 . S
H527 C502 0.950 . S
H528 C505 0.950 . S
H529 C507 0.950 . S
C530 C531 1.443 . S
C530 N534 1.376 . S
C530 C568 1.389 . S
C531 C530 1.443 . S
C531 C532 1.340 . S
C531 H571 0.951 . S
C532 C531 1.340 . S
C532 C533 1.439 . S
C532 H572 0.950 . S
C533 C532 1.439 . S
C533 N534 1.374 . S
C533 C567 1.395 . S
N534 C530 1.376 . S
N534 C533 1.374 . S
N534 Co535 2.008 . S
Co535 N534 2.008 . S
Co535 N536 1.995 . S
Co535 N541 2.008 . S
Co535 N546 1.995 . S
Co535 N551 2.282 . S
Co535 N557 2.282 . S
N536 Co535 1.995 . S
N536 C537 1.376 . S
N536 C540 1.383 . S
C537 N536 1.376 . S
C537 C538 1.446 . S
C537 C567 1.391 . S
C538 C537 1.446 . S
C538 C539 1.339 . S
C538 H573 0.949 . S
C539 C538 1.339 . S
C539 C540 1.439 . S
C539 H574 0.950 . S
C540 N536 1.383 . S
C540 C539 1.439 . S
C540 C569 1.392 . S
N541 Co535 2.008 . S
N541 C542 1.376 . S
N541 C545 1.374 . S
C542 N541 1.376 . S
C542 C543 1.443 . S
C542 C569 1.389 . S
C543 C542 1.443 . S
C543 C544 1.340 . S
C543 H575 0.951 . S
C544 C543 1.340 . S
C544 C545 1.439 . S
C544 H576 0.950 . S
C545 N541 1.374 . S
C545 C544 1.439 . S
C545 C570 1.395 . S
N546 Co535 1.995 . S
N546 C547 1.376 . S
N546 C550 1.383 . S
C547 N546 1.376 . S
C547 C548 1.446 . S
C547 C570 1.391 . S
C548 C547 1.446 . S
C548 C549 1.339 . S
C548 H577 0.949 . S
C549 C548 1.339 . S
C549 C550 1.439 . S
C549 H578 0.950 . S
C550 N546 1.383 . S
C550 C549 1.439 . S
C550 C568 1.392 . S
N551 Co535 2.282 . S
N551 C554 1.332 . S
N551 C556 1.332 . S
C552 C553 1.386 . S
C552 C555 1.388 . S
C553 C552 1.386 . S
C553 C554 1.382 . S
C553 H579 0.950 . S
C554 N551 1.332 . S
C554 C553 1.382 . S
C554 H565 0.952 . S
C555 C552 1.388 . S
C555 C556 1.382 . S
C555 H580 0.950 . S
C556 N551 1.332 . S
C556 C555 1.382 . S
C556 H566 0.948 . S
N557 Co535 2.282 . S
N557 C561 1.332 . S
N557 C562 1.332 . S
C558 C559 1.388 . S
C558 C562 1.382 . S
C558 H581 0.950 . S
C559 C558 1.388 . S
C559 C560 1.386 . S
C560 C559 1.386 . S
C560 C561 1.382 . S
C560 H582 0.950 . S
C561 N557 1.332 . S
C561 C560 1.382 . S
C561 H563 0.952 . S
C562 N557 1.332 . S
C562 C558 1.382 . S
C562 H564 0.948 . S
H563 C561 0.952 . S
H564 C562 0.948 . S
H565 C554 0.952 . S
H566 C556 0.948 . S
C567 C533 1.395 . S
C567 C537 1.391 . S
C568 C530 1.389 . S
C568 C550 1.392 . S
C569 C540 1.392 . S
C569 C542 1.389 . S
C570 C545 1.395 . S
C570 C547 1.391 . S
H571 C531 0.951 . S
H572 C532 0.950 . S
H573 C538 0.949 . S
H574 C539 0.950 . S
H575 C543 0.951 . S
H576 C544 0.950 . S
H577 C548 0.949 . S
H578 C549 0.950 . S
H579 C553 0.950 . S
H580 C555 0.950 . S
H581 C558 0.950 . S
H582 C560 0.950 . S
C583 C584 1.443 . S
C583 N587 1.376 . S
C583 C621 1.389 . S
C584 C583 1.443 . S
C584 C585 1.340 . S
C584 H624 0.951 . S
C585 C584 1.340 . S
C585 C586 1.439 . S
C585 H625 0.950 . S
C586 C585 1.439 . S
C586 N587 1.374 . S
C586 C620 1.395 . S
N587 C583 1.376 . S
N587 C586 1.374 . S
N587 Co588 2.008 . S
Co588 N587 2.008 . S
Co588 N589 1.995 . S
Co588 N594 2.008 . S
Co588 N599 1.995 . S
Co588 N604 2.282 . S
Co588 N610 2.282 . S
N589 Co588 1.995 . S
N589 C590 1.376 . S
N589 C593 1.383 . S
C590 N589 1.376 . S
C590 C591 1.446 . S
C590 C620 1.391 . S
C591 C590 1.446 . S
C591 C592 1.339 . S
C591 H626 0.949 . S
C592 C591 1.339 . S
C592 C593 1.439 . S
C592 H627 0.950 . S
C593 N589 1.383 . S
C593 C592 1.439 . S
C593 C622 1.392 . S
N594 Co588 2.008 . S
N594 C595 1.376 . S
N594 C598 1.374 . S
C595 N594 1.376 . S
C595 C596 1.443 . S
C595 C622 1.389 . S
C596 C595 1.443 . S
C596 C597 1.340 . S
C596 H628 0.951 . S
C597 C596 1.340 . S
C597 C598 1.439 . S
C597 H629 0.950 . S
C598 N594 1.374 . S
C598 C597 1.439 . S
C598 C623 1.395 . S
N599 Co588 1.995 . S
N599 C600 1.376 . S
N599 C603 1.383 . S
C600 N599 1.376 . S
C600 C601 1.446 . S
C600 C623 1.391 . S
C601 C600 1.446 . S
C601 C602 1.339 . S
C601 H630 0.949 . S
C602 C601 1.339 . S
C602 C603 1.439 . S
C602 H631 0.950 . S
C603 N599 1.383 . S
C603 C602 1.439 . S
C603 C621 1.392 . S
N604 Co588 2.282 . S
N604 C607 1.332 . S
N604 C609 1.332 . S
C605 C606 1.386 . S
C605 C608 1.388 . S
C606 C605 1.386 . S
C606 C607 1.382 . S
C606 H632 0.950 . S
C607 N604 1.332 . S
C607 C606 1.382 . S
C607 H618 0.952 . S
C608 C605 1.388 . S
C608 C609 1.382 . S
C608 H633 0.950 . S
C609 N604 1.332 . S
C609 C608 1.382 . S
C609 H619 0.948 . S
N610 Co588 2.282 . S
N610 C614 1.332 . S
N610 C615 1.332 . S
C611 C612 1.388 . S
C611 C615 1.382 . S
C611 H634 0.950 . S
C612 C611 1.388 . S
C612 C613 1.386 . S
C613 C612 1.386 . S
C613 C614 1.382 . S
C613 H635 0.950 . S
C614 N610 1.332 . S
C614 C613 1.382 . S
C614 H616 0.952 . S
C615 N610 1.332 . S
C615 C611 1.382 . S
C615 H617 0.948 . S
H616 C614 0.952 . S
H617 C615 0.948 . S
H618 C607 0.952 . S
H619 C609 0.948 . S
C620 C586 1.395 . S
C620 C590 1.391 . S
C621 C583 1.389 . S
C621 C603 1.392 . S
C622 C593 1.392 . S
C622 C595 1.389 . S
C623 C598 1.395 . S
C623 C600 1.391 . S
H624 C584 0.951 . S
H625 C585 0.950 . S
H626 C591 0.949 . S
H627 C592 0.950 . S
H628 C596 0.951 . S
H629 C597 0.950 . S
H630 C601 0.949 . S
H631 C602 0.950 . S
H632 C606 0.950 . S
H633 C608 0.950 . S
H634 C611 0.950 . S
H635 C613 0.950 . S
C636 C637 1.443 . S
C636 N640 1.376 . S
C636 C674 1.389 . S
C637 C636 1.443 . S
C637 C638 1.340 . S
C637 H677 0.951 . S
C638 C637 1.340 . S
C638 C639 1.439 . S
C638 H678 0.950 . S
C639 C638 1.439 . S
C639 N640 1.374 . S
C639 C673 1.395 . S
N640 C636 1.376 . S
N640 C639 1.374 . S
N640 Co641 2.008 . S
Co641 N640 2.008 . S
Co641 N642 1.995 . S
Co641 N647 2.008 . S
Co641 N652 1.995 . S
Co641 N657 2.282 . S
Co641 N663 2.282 . S
N642 Co641 1.995 . S
N642 C643 1.376 . S
N642 C646 1.383 . S
C643 N642 1.376 . S
C643 C644 1.446 . S
C643 C673 1.391 . S
C644 C643 1.446 . S
C644 C645 1.339 . S
C644 H679 0.949 . S
C645 C644 1.339 . S
C645 C646 1.439 . S
C645 H680 0.950 . S
C646 N642 1.383 . S
C646 C645 1.439 . S
C646 C675 1.392 . S
N647 Co641 2.008 . S
N647 C648 1.376 . S
N647 C651 1.374 . S
C648 N647 1.376 . S
C648 C649 1.443 . S
C648 C675 1.389 . S
C649 C648 1.443 . S
C649 C650 1.340 . S
C649 H681 0.951 . S
C650 C649 1.340 . S
C650 C651 1.439 . S
C650 H682 0.950 . S
C651 N647 1.374 . S
C651 C650 1.439 . S
C651 C676 1.395 . S
N652 Co641 1.995 . S
N652 C653 1.376 . S
N652 C656 1.383 . S
C653 N652 1.376 . S
C653 C654 1.446 . S
C653 C676 1.391 . S
C654 C653 1.446 . S
C654 C655 1.339 . S
C654 H683 0.949 . S
C655 C654 1.339 . S
C655 C656 1.439 . S
C655 H684 0.950 . S
C656 N652 1.383 . S
C656 C655 1.439 . S
C656 C674 1.392 . S
N657 Co641 2.282 . S
N657 C660 1.332 . S
N657 C662 1.332 . S
C658 C659 1.386 . S
C658 C661 1.388 . S
C659 C658 1.386 . S
C659 C660 1.382 . S
C659 H685 0.950 . S
C660 N657 1.332 . S
C660 C659 1.382 . S
C660 H671 0.952 . S
C661 C658 1.388 . S
C661 C662 1.382 . S
C661 H686 0.950 . S
C662 N657 1.332 . S
C662 C661 1.382 . S
C662 H672 0.948 . S
N663 Co641 2.282 . S
N663 C667 1.332 . S
N663 C668 1.332 . S
C664 C665 1.388 . S
C664 C668 1.382 . S
C664 H687 0.950 . S
C665 C664 1.388 . S
C665 C666 1.386 . S
C666 C665 1.386 . S
C666 C667 1.382 . S
C666 H688 0.950 . S
C667 N663 1.332 . S
C667 C666 1.382 . S
C667 H669 0.952 . S
C668 N663 1.332 . S
C668 C664 1.382 . S
C668 H670 0.948 . S
H669 C667 0.952 . S
H670 C668 0.948 . S
H671 C660 0.952 . S
H672 C662 0.948 . S
C673 C639 1.395 . S
C673 C643 1.391 . S
C674 C636 1.389 . S
C674 C656 1.392 . S
C675 C646 1.392 . S
C675 C648 1.389 . S
C676 C651 1.395 . S
C676 C653 1.391 . S
H677 C637 0.951 . S
H678 C638 0.950 . S
H679 C644 0.949 . S
H680 C645 0.950 . S
H681 C649 0.951 . S
H682 C650 0.950 . S
H683 C654 0.949 . S
H684 C655 0.950 . S
H685 C659 0.950 . S
H686 C661 0.950 . S
H687 C664 0.950 . S
H688 C666 0.950 . S
C689 C690 1.443 . S
C689 N693 1.376 . S
C689 C727 1.389 . S
C690 C689 1.443 . S
C690 C691 1.340 . S
C690 H730 0.951 . S
C691 C690 1.340 . S
C691 C692 1.439 . S
C691 H731 0.950 . S
C692 C691 1.439 . S
C692 N693 1.374 . S
C692 C726 1.395 . S
N693 C689 1.376 . S
N693 C692 1.374 . S
N693 Co694 2.008 1_655 S
Co694 N693 2.008 1_455 S
Co694 N695 1.995 1_454 S
Co694 N700 2.008 1_554 S
Co694 N705 1.995 . S
Co694 N710 2.282 1_454 S
Co694 N716 2.283 . S
N695 Co694 1.995 1_656 S
N695 C696 1.376 . S
N695 C699 1.383 1_655 S
C696 N695 1.376 . S
C696 C697 1.446 . S
C696 C726 1.391 1_556 S
C697 C696 1.446 . S
C697 C698 1.339 1_655 S
C697 H732 0.949 . S
C698 C697 1.339 1_455 S
C698 C699 1.439 . S
C698 H733 0.950 . S
C699 N695 1.383 1_455 S
C699 C698 1.439 . S
C699 C728 1.392 . S
N700 Co694 2.008 1_556 S
N700 C701 1.376 . S
N700 C704 1.374 . S
C701 N700 1.376 . S
C701 C702 1.443 . S
C701 C728 1.389 . S
C702 C701 1.443 . S
C702 C703 1.340 . S
C702 H734 0.951 . S
C703 C702 1.340 . S
C703 C704 1.439 . S
C703 H735 0.950 . S
C704 N700 1.374 . S
C704 C703 1.439 . S
C704 C729 1.395 . S
N705 Co694 1.995 . S
N705 C706 1.376 . S
N705 C709 1.383 1_455 S
C706 N705 1.376 . S
C706 C707 1.446 . S
C706 C729 1.391 1_554 S
C707 C706 1.446 . S
C707 C708 1.339 1_455 S
C707 H736 0.949 . S
C708 C707 1.339 1_655 S
C708 C709 1.439 . S
C708 H737 0.950 . S
C709 N705 1.383 1_655 S
C709 C708 1.439 . S
C709 C727 1.392 . S
N710 Co694 2.282 1_656 S
N710 C713 1.332 1_655 S
N710 C715 1.332 . S
C711 C712 1.386 1_655 S
C711 C714 1.388 . S
C712 C711 1.386 1_455 S
C712 C713 1.382 . S
C712 H738 0.950 . S
C713 N710 1.332 1_455 S
C713 C712 1.382 . S
C713 H724 0.952 . S
C714 C711 1.388 . S
C714 C715 1.382 . S
C714 H739 0.950 . S
C715 N710 1.332 . S
C715 C714 1.382 . S
C715 H725 0.948 . S
N716 Co694 2.283 . S
N716 C720 1.332 1_455 S
N716 C721 1.332 . S
C717 C718 1.388 . S
C717 C721 1.382 . S
C717 H740 0.950 . S
C718 C717 1.388 . S
C718 C719 1.386 1_455 S
C719 C718 1.386 1_655 S
C719 C720 1.382 . S
C719 H741 0.950 . S
C720 N716 1.332 1_655 S
C720 C719 1.382 . S
C720 H722 0.952 . S
C721 N716 1.332 . S
C721 C717 1.382 . S
C721 H723 0.948 . S
H722 C720 0.952 . S
H723 C721 0.948 . S
H724 C713 0.952 . S
H725 C715 0.948 . S
C726 C692 1.395 . S
C726 C696 1.391 1_554 S
C727 C689 1.389 . S
C727 C709 1.392 . S
C728 C699 1.392 . S
C728 C701 1.389 . S
C729 C704 1.395 . S
C729 C706 1.391 1_556 S
H730 C690 0.951 . S
H731 C691 0.950 . S
H732 C697 0.949 . S
H733 C698 0.950 . S
H734 C702 0.951 . S
H735 C703 0.950 . S
H736 C707 0.949 . S
H737 C708 0.950 . S
H738 C712 0.950 . S
H739 C714 0.950 . S
H740 C717 0.950 . S
H741 C719 0.950 . S
C742 C743 1.443 . S
C742 N746 1.376 . S
C742 C780 1.389 . S
C743 C742 1.443 . S
C743 C744 1.340 . S
C743 H783 0.951 . S
C744 C743 1.340 . S
C744 C745 1.439 . S
C744 H784 0.950 . S
C745 C744 1.439 . S
C745 N746 1.374 . S
C745 C779 1.395 1_554 S
N746 C742 1.376 . S
N746 C745 1.374 . S
N746 Co747 2.008 . S
Co747 N746 2.008 . S
Co747 N748 1.995 1_554 S
Co747 N753 2.008 1_554 S
Co747 N758 1.995 . S
Co747 N763 2.282 1_554 S
Co747 N769 2.282 . S
N748 Co747 1.995 1_556 S
N748 C749 1.376 . S
N748 C752 1.383 . S
C749 N748 1.376 . S
C749 C750 1.446 . S
C749 C779 1.391 . S
C750 C749 1.446 . S
C750 C751 1.339 . S
C750 H785 0.949 . S
C751 C750 1.339 . S
C751 C752 1.439 . S
C751 H786 0.950 . S
C752 N748 1.383 . S
C752 C751 1.439 . S
C752 C781 1.392 . S
N753 Co747 2.008 1_556 S
N753 C754 1.376 . S
N753 C757 1.374 . S
C754 N753 1.376 . S
C754 C755 1.443 . S
C754 C781 1.389 . S
C755 C754 1.443 . S
C755 C756 1.340 . S
C755 H787 0.951 . S
C756 C755 1.340 . S
C756 C757 1.439 . S
C756 H788 0.950 . S
C757 N753 1.374 . S
C757 C756 1.439 . S
C757 C782 1.395 1_556 S
N758 Co747 1.995 . S
N758 C759 1.376 . S
N758 C762 1.383 . S
C759 N758 1.376 . S
C759 C760 1.446 . S
C759 C782 1.391 . S
C760 C759 1.446 . S
C760 C761 1.339 . S
C760 H789 0.949 . S
C761 C760 1.339 . S
C761 C762 1.439 . S
C761 H790 0.950 . S
C762 N758 1.383 . S
C762 C761 1.439 . S
C762 C780 1.392 . S
N763 Co747 2.282 1_556 S
N763 C766 1.332 . S
N763 C768 1.332 . S
C764 C765 1.386 . S
C764 C767 1.388 . S
C765 C764 1.386 . S
C765 C766 1.382 . S
C765 H791 0.950 . S
C766 N763 1.332 . S
C766 C765 1.382 . S
C766 H777 0.952 . S
C767 C764 1.388 . S
C767 C768 1.382 . S
C767 H792 0.950 . S
C768 N763 1.332 . S
C768 C767 1.382 . S
C768 H778 0.948 . S
N769 Co747 2.282 . S
N769 C773 1.332 . S
N769 C774 1.332 . S
C770 C771 1.388 . S
C770 C774 1.382 . S
C770 H793 0.950 . S
C771 C770 1.388 . S
C771 C772 1.386 . S
C772 C771 1.386 . S
C772 C773 1.382 . S
C772 H794 0.950 . S
C773 N769 1.332 . S
C773 C772 1.382 . S
C773 H775 0.952 . S
C774 N769 1.332 . S
C774 C770 1.382 . S
C774 H776 0.948 . S
H775 C773 0.952 . S
H776 C774 0.948 . S
H777 C766 0.952 . S
H778 C768 0.948 . S
C779 C745 1.395 1_556 S
C779 C749 1.391 . S
C780 C742 1.389 . S
C780 C762 1.392 . S
C781 C752 1.392 . S
C781 C754 1.389 . S
C782 C757 1.395 1_554 S
C782 C759 1.391 . S
H783 C743 0.951 . S
H784 C744 0.950 . S
H785 C750 0.949 . S
H786 C751 0.950 . S
H787 C755 0.951 . S
H788 C756 0.950 . S
H789 C760 0.949 . S
H790 C761 0.950 . S
H791 C765 0.950 . S
H792 C767 0.950 . S
H793 C770 0.950 . S
H794 C772 0.950 . S
C795 C796 1.443 . S
C795 N799 1.376 . S
C795 C833 1.389 . S
C796 C795 1.443 . S
C796 C797 1.340 . S
C796 H836 0.951 . S
C797 C796 1.340 . S
C797 C798 1.439 . S
C797 H837 0.950 . S
C798 C797 1.439 . S
C798 N799 1.374 . S
C798 C832 1.395 . S
N799 C795 1.376 . S
N799 C798 1.374 . S
N799 Co800 2.008 1_655 S
Co800 N799 2.008 1_455 S
Co800 N801 1.995 . S
Co800 N806 2.008 . S
Co800 N811 1.995 1_455 S
Co800 N816 2.282 1_455 S
Co800 N822 2.282 . S
N801 Co800 1.995 . S
N801 C802 1.376 1_455 S
N801 C805 1.383 . S
C802 N801 1.376 1_655 S
C802 C803 1.446 . S
C802 C832 1.391 . S
C803 C802 1.446 . S
C803 C804 1.339 1_655 S
C803 H838 0.949 . S
C804 C803 1.339 1_455 S
C804 C805 1.439 . S
C804 H839 0.950 . S
C805 N801 1.383 . S
C805 C804 1.439 . S
C805 C834 1.392 . S
N806 Co800 2.008 . S
N806 C807 1.376 . S
N806 C810 1.374 . S
C807 N806 1.376 . S
C807 C808 1.443 . S
C807 C834 1.389 . S
C808 C807 1.443 . S
C808 C809 1.340 . S
C808 H840 0.951 . S
C809 C808 1.340 . S
C809 C810 1.439 . S
C809 H841 0.950 . S
C810 N806 1.374 . S
C810 C809 1.439 . S
C810 C835 1.395 . S
N811 Co800 1.995 1_655 S
N811 C812 1.376 1_655 S
N811 C815 1.383 . S
C812 N811 1.376 1_455 S
C812 C813 1.446 . S
C812 C835 1.391 . S
C813 C812 1.446 . S
C813 C814 1.339 1_455 S
C813 H842 0.949 . S
C814 C813 1.339 1_655 S
C814 C815 1.439 . S
C814 H843 0.950 . S
C815 N811 1.383 . S
C815 C814 1.439 . S
C815 C833 1.392 . S
N816 Co800 2.282 1_655 S
N816 C819 1.332 1_655 S
N816 C821 1.332 . S
C817 C818 1.386 1_655 S
C817 C820 1.388 . S
C818 C817 1.386 1_455 S
C818 C819 1.382 . S
C818 H844 0.950 . S
C819 N816 1.332 1_455 S
C819 C818 1.382 . S
C819 H830 0.952 . S
C820 C817 1.388 . S
C820 C821 1.382 . S
C820 H845 0.950 . S
C821 N816 1.332 . S
C821 C820 1.382 . S
C821 H831 0.948 . S
N822 Co800 2.282 . S
N822 C826 1.332 1_455 S
N822 C827 1.332 . S
C823 C824 1.388 . S
C823 C827 1.382 . S
C823 H846 0.950 . S
C824 C823 1.388 . S
C824 C825 1.386 1_455 S
C825 C824 1.386 1_655 S
C825 C826 1.382 . S
C825 H847 0.950 . S
C826 N822 1.332 1_655 S
C826 C825 1.382 . S
C826 H828 0.952 . S
C827 N822 1.332 . S
C827 C823 1.382 . S
C827 H829 0.948 . S
H828 C826 0.952 . S
H829 C827 0.948 . S
H830 C819 0.952 . S
H831 C821 0.948 . S
C832 C798 1.395 . S
C832 C802 1.391 . S
C833 C795 1.389 . S
C833 C815 1.392 . S
C834 C805 1.392 . S
C834 C807 1.389 . S
C835 C810 1.395 . S
C835 C812 1.391 . S
H836 C796 0.951 . S
H837 C797 0.950 . S
H838 C803 0.949 . S
H839 C804 0.950 . S
H840 C808 0.951 . S
H841 C809 0.950 . S
H842 C813 0.949 . S
H843 C814 0.950 . S
H844 C818 0.950 . S
H845 C820 0.950 . S
H846 C823 0.950 . S
H847 C825 0.950 . S
C848 C849 1.387 . S
C848 H852 0.950 . S
C848 C857 1.390 . S
C849 C848 1.387 . S
C849 C851 1.387 1_565 S
H850 C857 0.950 . S
C851 C849 1.387 1_545 S
C851 C853 1.390 . S
C851 H855 0.950 . S
H852 C848 0.950 . S
C853 C851 1.390 . S
C853 C854 1.387 . S
C853 H856 0.953 . S
C854 C853 1.387 . S
C854 C857 1.387 1_545 S
H855 C851 0.950 . S
H856 C853 0.953 . S
C857 C848 1.390 . S
C857 H850 0.950 . S
C857 C854 1.387 1_565 S
C858 C859 1.387 . S
C858 H862 0.950 . S
C858 C867 1.390 . S
C859 C858 1.387 . S
C859 C861 1.387 . S
H860 C867 0.950 . S
C861 C859 1.387 . S
C861 C863 1.390 . S
C861 H865 0.950 . S
H862 C858 0.950 . S
C863 C861 1.390 . S
C863 C864 1.387 . S
C863 H866 0.950 . S
C864 C863 1.387 . S
C864 C867 1.387 . S
H865 C861 0.950 . S
H866 C863 0.950 . S
C867 C858 1.390 . S
C867 H860 0.950 . S
C867 C864 1.387 . S
C868 C869 1.387 . S
C868 H872 0.950 . S
C868 C877 1.390 . S
C869 C868 1.387 . S
C869 C871 1.387 1_565 S
H870 C877 0.950 . S
C871 C869 1.387 1_545 S
C871 C873 1.390 . S
C871 H875 0.950 . S
H872 C868 0.950 . S
C873 C871 1.390 . S
C873 C874 1.387 . S
C873 H876 0.950 . S
C874 C873 1.387 . S
C874 C877 1.387 1_545 S
H875 C871 0.950 . S
H876 C873 0.950 . S
C877 C868 1.390 . S
C877 H870 0.950 . S
C877 C874 1.387 1_565 S
C878 C879 1.387 1_554 S
C878 H882 0.950 1_554 S
C878 C887 1.390 . S
C879 C878 1.387 1_556 S
C879 C881 1.387 . S
H880 C887 0.950 . S
C881 C879 1.387 . S
C881 C883 1.390 1_556 S
C881 H885 0.950 . S
H882 C878 0.950 1_556 S
C883 C881 1.390 1_554 S
C883 C884 1.387 . S
C883 H886 0.950 . S
C884 C883 1.387 . S
C884 C887 1.387 . S
H885 C881 0.950 . S
H886 C883 0.950 . S
C887 C878 1.390 . S
C887 H880 0.950 . S
C887 C884 1.387 . S
C888 C889 1.387 1_545 S
C888 H892 0.950 . S
C888 C897 1.390 . S
C889 C888 1.387 1_565 S
C889 C891 1.387 1_455 S
H890 C897 0.950 . S
C891 C889 1.387 1_655 S
C891 C893 1.390 . S
C891 H895 0.950 . S
H892 C888 0.950 . S
C893 C891 1.390 . S
C893 C894 1.387 1_665 S
C893 H896 0.950 . S
C894 C893 1.387 1_445 S
C894 C897 1.387 . S
H895 C891 0.950 . S
H896 C893 0.950 . S
C897 C888 1.390 . S
C897 H890 0.950 . S
C897 C894 1.387 . S
C898 C899 1.387 . S
C898 H902 0.950 . S
C898 C907 1.390 . S
C899 C898 1.387 . S
C899 C901 1.387 . S
H900 C907 0.950 . S
C901 C899 1.387 . S
C901 C903 1.390 . S
C901 H905 0.950 . S
H902 C898 0.950 . S
C903 C901 1.390 . S
C903 C904 1.387 . S
C903 H906 0.950 . S
C904 C903 1.387 . S
C904 C907 1.387 . S
H905 C901 0.950 . S
H906 C903 0.950 . S
C907 C898 1.390 . S
C907 H900 0.950 . S
C907 C904 1.387 . S
C908 C909 1.387 . S
C908 H912 0.950 . S
C908 C917 1.390 . S
C909 C908 1.387 . S
C909 C911 1.387 . S
H910 C917 0.950 . S
C911 C909 1.387 . S
C911 C913 1.390 1_545 S
C911 H915 0.950 . S
H912 C908 0.950 . S
C913 C911 1.390 1_565 S
C913 C914 1.387 . S
C913 H916 0.950 . S
C914 C913 1.387 . S
C914 C917 1.387 1_565 S
H915 C911 0.950 . S
H916 C913 0.950 . S
C917 C908 1.390 . S
C917 H910 0.950 . S
C917 C914 1.387 1_545 S
C918 C919 1.387 . S
C918 H922 0.950 . S
C918 C927 1.390 1_554 S
C919 C918 1.387 . S
C919 C921 1.387 1_554 S
H920 C927 0.950 . S
C921 C919 1.387 1_556 S
C921 C923 1.390 . S
C921 H925 0.950 1_556 S
H922 C918 0.950 . S
C923 C921 1.390 . S
C923 C924 1.387 . S
C923 H926 0.950 . S
C924 C923 1.387 . S
C924 C927 1.387 . S
H925 C921 0.950 1_554 S
H926 C923 0.950 . S
C927 C918 1.390 1_556 S
C927 H920 0.950 . S
C927 C924 1.387 . S
C928 C929 1.387 . S
C928 H932 0.950 . S
C928 C937 1.390 . S
C929 C928 1.387 . S
C929 C931 1.387 . S
H930 C937 0.950 . S
C931 C929 1.387 . S
C931 C933 1.390 . S
C931 H935 0.950 . S
H932 C928 0.950 . S
C933 C931 1.390 . S
C933 C934 1.387 . S
C933 H936 0.950 . S
C934 C933 1.387 . S
C934 C937 1.387 . S
H935 C931 0.950 . S
H936 C933 0.950 . S
C937 C928 1.390 . S
C937 H930 0.950 . S
C937 C934 1.387 . S
C938 C939 1.387 . S
C938 H942 0.950 . S
C938 C947 1.390 1_556 S
C939 C938 1.387 . S
C939 C941 1.387 . S
H940 C947 0.950 . S
C941 C939 1.387 . S
C941 C943 1.390 1_556 S
C941 H945 0.950 . S
H942 C938 0.950 . S
C943 C941 1.390 1_554 S
C943 C944 1.387 . S
C943 H946 0.950 . S
C944 C943 1.387 . S
C944 C947 1.387 . S
H945 C941 0.950 . S
H946 C943 0.950 . S
C947 C938 1.390 1_554 S
C947 H940 0.950 . S
C947 C944 1.387 . S
C948 C949 1.387 . S
C948 H952 0.950 . S
C948 C957 1.390 . S
C949 C948 1.387 . S
C949 C951 1.387 . S
H950 C957 0.950 . S
C951 C949 1.387 . S
C951 C953 1.390 . S
C951 H955 0.950 . S
H952 C948 0.950 . S
C953 C951 1.390 . S
C953 C954 1.387 . S
C953 H956 0.950 . S
C954 C953 1.387 . S
C954 C957 1.387 . S
H955 C951 0.950 . S
H956 C953 0.950 . S
C957 C948 1.390 . S
C957 H950 0.950 . S
C957 C954 1.387 . S
C958 C959 1.387 . S
C958 H962 0.950 . S
C958 C967 1.390 . S
C959 C958 1.387 . S
C959 C961 1.387 . S
H960 C967 0.950 . S
C961 C959 1.387 . S
C961 C963 1.390 . S
C961 H965 0.950 . S
H962 C958 0.950 . S
C963 C961 1.390 . S
C963 C964 1.387 . S
C963 H966 0.950 . S
C964 C963 1.387 . S
C964 C967 1.387 . S
H965 C961 0.950 . S
H966 C963 0.950 . S
C967 C958 1.390 . S
C967 H960 0.950 . S
C967 C964 1.387 . S
C968 C969 1.387 . S
C968 H972 0.950 . S
C968 C977 1.390 . S
C969 C968 1.387 . S
C969 C971 1.387 . S
H970 C977 0.950 . S
C971 C969 1.387 . S
C971 C973 1.390 . S
C971 H975 0.950 . S
H972 C968 0.950 . S
C973 C971 1.390 . S
C973 C974 1.387 . S
C973 H976 0.950 . S
C974 C973 1.387 . S
C974 C977 1.387 . S
H975 C971 0.950 . S
H976 C973 0.950 . S
C977 C968 1.390 . S
C977 H970 0.950 . S
C977 C974 1.387 . S
C978 C979 1.387 . S
C978 H982 0.950 . S
C978 C987 1.390 1_554 S
C979 C978 1.387 . S
C979 C981 1.387 . S
H980 C987 0.950 . S
C981 C979 1.387 . S
C981 C983 1.390 1_554 S
C981 H985 0.950 . S
H982 C978 0.950 . S
C983 C981 1.390 1_556 S
C983 C984 1.387 . S
C983 H986 0.950 . S
C984 C983 1.387 . S
C984 C987 1.387 . S
H985 C981 0.950 . S
H986 C983 0.950 . S
C987 C978 1.390 1_556 S
C987 H980 0.950 . S
C987 C984 1.387 . S
C988 C989 1.387 1_455 S
C988 H992 0.950 . S
C988 C997 1.390 . S
C989 C988 1.387 1_655 S
C989 C991 1.387 . S
H990 C997 0.950 . S
C991 C989 1.387 . S
C991 C993 1.390 . S
C991 H995 0.950 . S
H992 C988 0.950 . S
C993 C991 1.390 . S
C993 C994 1.387 . S
C993 H996 0.950 . S
C994 C993 1.387 . S
C994 C997 1.387 1_655 S
H995 C991 0.950 . S
H996 C993 0.950 . S
C997 C988 1.390 . S
C997 H990 0.950 . S
C997 C994 1.387 1_455 S
C998 C999 1.387 . S
C998 H1002 0.950 . S
C998 C1007 1.390 . S
C999 C998 1.387 . S
C999 C1001 1.387 . S
H1000 C1007 0.950 . S
C1001 C999 1.387 . S
C1001 C1003 1.390 . S
C1001 H1005 0.950 . S
H1002 C998 0.950 . S
C1003 C1001 1.390 . S
C1003 C1004 1.387 . S
C1003 H1006 0.950 . S
C1004 C1003 1.387 . S
C1004 C1007 1.387 . S
H1005 C1001 0.950 . S
H1006 C1003 0.950 . S
C1007 C998 1.390 . S
C1007 H1000 0.950 . S
C1007 C1004 1.387 . S
C1008 C1009 1.387 . S
C1008 H1012 0.950 . S
C1008 C1017 1.390 . S
C1009 C1008 1.387 . S
C1009 C1011 1.387 . S
H1010 C1017 0.950 . S
C1011 C1009 1.387 . S
C1011 C1013 1.390 . S
C1011 H1015 0.950 . S
H1012 C1008 0.950 . S
C1013 C1011 1.390 . S
C1013 C1014 1.387 . S
C1013 H1016 0.950 . S
C1014 C1013 1.387 . S
C1014 C1017 1.387 . S
H1015 C1011 0.950 . S
H1016 C1013 0.950 . S
C1017 C1008 1.390 . S
C1017 H1010 0.950 . S
C1017 C1014 1.387 . S
C1018 C1019 1.387 . S
C1018 H1022 0.950 . S
C1018 C1027 1.390 . S
C1019 C1018 1.387 . S
C1019 C1021 1.387 . S
H1020 C1027 0.950 . S
C1021 C1019 1.387 . S
C1021 C1023 1.390 . S
C1021 H1025 0.950 . S
H1022 C1018 0.950 . S
C1023 C1021 1.390 . S
C1023 C1024 1.387 . S
C1023 H1026 0.950 . S
C1024 C1023 1.387 . S
C1024 C1027 1.387 . S
H1025 C1021 0.950 . S
H1026 C1023 0.950 . S
C1027 C1018 1.390 . S
C1027 H1020 0.950 . S
C1027 C1024 1.387 . S
C1028 C1029 1.387 . S
C1028 H1032 0.950 . S
C1028 C1037 1.390 . S
C1029 C1028 1.387 . S
C1029 C1031 1.387 . S
H1030 C1037 0.950 . S
C1031 C1029 1.387 . S
C1031 C1033 1.390 . S
C1031 H1035 0.950 . S
H1032 C1028 0.950 . S
C1033 C1031 1.390 . S
C1033 C1034 1.387 . S
C1033 H1036 0.950 . S
C1034 C1033 1.387 . S
C1034 C1037 1.387 . S
H1035 C1031 0.950 . S
H1036 C1033 0.950 . S
C1037 C1028 1.390 . S
C1037 H1030 0.950 . S
C1037 C1034 1.387 . S
C1038 C1039 1.387 . S
C1038 H1042 0.950 . S
C1038 C1047 1.390 . S
C1039 C1038 1.387 . S
C1039 C1041 1.387 . S
H1040 C1047 0.950 . S
C1041 C1039 1.387 . S
C1041 C1043 1.390 . S
C1041 H1045 0.950 . S
H1042 C1038 0.950 . S
C1043 C1041 1.390 . S
C1043 C1044 1.387 . S
C1043 H1046 0.950 . S
C1044 C1043 1.387 . S
C1044 C1047 1.387 . S
H1045 C1041 0.950 . S
H1046 C1043 0.950 . S
C1047 C1038 1.390 . S
C1047 H1040 0.950 . S
C1047 C1044 1.387 . S
C1048 C1049 1.387 . S
C1048 H1052 0.950 . S
C1048 C1057 1.390 . S
C1049 C1048 1.387 . S
C1049 C1051 1.387 . S
H1050 C1057 0.950 . S
C1051 C1049 1.387 . S
C1051 C1053 1.390 . S
C1051 H1055 0.950 . S
H1052 C1048 0.950 . S
C1053 C1051 1.390 . S
C1053 C1054 1.387 . S
C1053 H1056 0.950 . S
C1054 C1053 1.387 . S
C1054 C1057 1.387 . S
H1055 C1051 0.950 . S
H1056 C1053 0.950 . S
C1057 C1048 1.390 . S
C1057 H1050 0.950 . S
C1057 C1054 1.387 . S
C1058 C1059 1.387 . S
C1058 H1062 0.950 . S
C1058 C1067 1.390 . S
C1059 C1058 1.387 . S
C1059 C1061 1.387 . S
H1060 C1067 0.950 . S
C1061 C1059 1.387 . S
C1061 C1063 1.390 . S
C1061 H1065 0.950 . S
H1062 C1058 0.950 . S
C1063 C1061 1.390 . S
C1063 C1064 1.387 . S
C1063 H1066 0.950 . S
C1064 C1063 1.387 . S
C1064 C1067 1.387 . S
H1065 C1061 0.950 . S
H1066 C1063 0.950 . S
C1067 C1058 1.390 . S
C1067 H1060 0.950 . S
C1067 C1064 1.387 . S
C1068 C1069 1.387 . S
C1068 H1072 0.950 . S
C1068 C1077 1.390 . S
C1069 C1068 1.387 . S
C1069 C1071 1.387 . S
H1070 C1077 0.950 . S
C1071 C1069 1.387 . S
C1071 C1073 1.390 . S
C1071 H1075 0.950 . S
H1072 C1068 0.950 . S
C1073 C1071 1.390 . S
C1073 C1074 1.387 . S
C1073 H1076 0.950 . S
C1074 C1073 1.387 . S
C1074 C1077 1.387 . S
H1075 C1071 0.950 . S
H1076 C1073 0.950 . S
C1077 C1068 1.390 . S
C1077 H1070 0.950 . S
C1077 C1074 1.387 . S
C1078 C1079 1.387 . S
C1078 H1082 0.950 . S
C1078 C1087 1.390 . S
C1079 C1078 1.387 . S
C1079 C1081 1.387 . S
H1080 C1087 0.950 . S
C1081 C1079 1.387 . S
C1081 C1083 1.390 . S
C1081 H1085 0.950 . S
H1082 C1078 0.950 . S
C1083 C1081 1.390 . S
C1083 C1084 1.387 . S
C1083 H1086 0.950 . S
C1084 C1083 1.387 . S
C1084 C1087 1.387 . S
H1085 C1081 0.950 . S
H1086 C1083 0.950 . S
C1087 C1078 1.390 . S
C1087 H1080 0.950 . S
C1087 C1084 1.387 . S
C1088 C1089 1.387 . S
C1088 H1092 0.950 . S
C1088 C1097 1.390 . S
C1089 C1088 1.387 . S
C1089 C1091 1.387 . S
H1090 C1097 0.950 . S
C1091 C1089 1.387 . S
C1091 C1093 1.390 . S
C1091 H1095 0.950 . S
H1092 C1088 0.950 . S
C1093 C1091 1.390 . S
C1093 C1094 1.387 . S
C1093 H1096 0.950 . S
C1094 C1093 1.387 . S
C1094 C1097 1.387 . S
H1095 C1091 0.950 . S
H1096 C1093 0.950 . S
C1097 C1088 1.390 . S
C1097 H1090 0.950 . S
C1097 C1094 1.387 . S
C1098 C1099 1.387 . S
C1098 H1102 0.950 . S
C1098 C1107 1.390 . S
C1099 C1098 1.387 . S
C1099 C1101 1.387 . S
H1100 C1107 0.950 . S
C1101 C1099 1.387 . S
C1101 C1103 1.390 . S
C1101 H1105 0.950 . S
H1102 C1098 0.950 . S
C1103 C1101 1.390 . S
C1103 C1104 1.387 . S
C1103 H1106 0.950 . S
C1104 C1103 1.387 . S
C1104 C1107 1.387 . S
H1105 C1101 0.950 . S
H1106 C1103 0.950 . S
C1107 C1098 1.390 . S
C1107 H1100 0.950 . S
C1107 C1104 1.387 . S
C1108 C1109 1.387 . S
C1108 H1112 0.950 . S
C1108 C1117 1.390 . S
C1109 C1108 1.387 . S
C1109 C1111 1.387 . S
H1110 C1117 0.950 . S
C1111 C1109 1.387 . S
C1111 C1113 1.390 . S
C1111 H1115 0.950 . S
H1112 C1108 0.950 . S
C1113 C1111 1.390 . S
C1113 C1114 1.387 . S
C1113 H1116 0.950 . S
C1114 C1113 1.387 . S
C1114 C1117 1.387 . S
H1115 C1111 0.950 . S
H1116 C1113 0.950 . S
C1117 C1108 1.390 . S
C1117 H1110 0.950 . S
C1117 C1114 1.387 . S
C1118 C1119 1.387 . S
C1118 H1122 0.950 . S
C1118 C1127 1.390 . S
C1119 C1118 1.387 . S
C1119 C1121 1.387 . S
H1120 C1127 0.950 . S
C1121 C1119 1.387 . S
C1121 C1123 1.390 . S
C1121 H1125 0.950 . S
H1122 C1118 0.950 . S
C1123 C1121 1.390 . S
C1123 C1124 1.387 . S
C1123 H1126 0.950 . S
C1124 C1123 1.387 . S
C1124 C1127 1.387 . S
H1125 C1121 0.950 . S
H1126 C1123 0.950 . S
C1127 C1118 1.390 . S
C1127 H1120 0.950 . S
C1127 C1124 1.387 . S
C1128 C1129 1.387 . S
C1128 H1132 0.950 . S
C1128 C1137 1.390 . S
C1129 C1128 1.387 . S
C1129 C1131 1.387 . S
H1130 C1137 0.950 . S
C1131 C1129 1.387 . S
C1131 C1133 1.390 . S
C1131 H1135 0.950 . S
H1132 C1128 0.950 . S
C1133 C1131 1.390 . S
C1133 C1134 1.387 . S
C1133 H1136 0.950 . S
C1134 C1133 1.387 . S
C1134 C1137 1.387 . S
H1135 C1131 0.950 . S
H1136 C1133 0.950 . S
C1137 C1128 1.390 . S
C1137 H1130 0.950 . S
C1137 C1134 1.387 . S
C1138 C1139 1.387 . S
C1138 H1142 0.950 . S
C1138 C1147 1.390 . S
C1139 C1138 1.387 . S
C1139 C1141 1.387 . S
H1140 C1147 0.950 . S
C1141 C1139 1.387 . S
C1141 C1143 1.390 . S
C1141 H1145 0.950 . S
H1142 C1138 0.950 . S
C1143 C1141 1.390 . S
C1143 C1144 1.387 . S
C1143 H1146 0.950 . S
C1144 C1143 1.387 . S
C1144 C1147 1.387 . S
H1145 C1141 0.950 . S
H1146 C1143 0.950 . S
C1147 C1138 1.390 . S
C1147 H1140 0.950 . S
C1147 C1144 1.387 . S
C1148 C1149 1.387 . S
C1148 H1152 0.950 . S
C1148 C1157 1.390 . S
C1149 C1148 1.387 . S
C1149 C1151 1.387 . S
H1150 C1157 0.950 . S
C1151 C1149 1.387 . S
C1151 C1153 1.390 . S
C1151 H1155 0.950 . S
H1152 C1148 0.950 . S
C1153 C1151 1.390 . S
C1153 C1154 1.387 . S
C1153 H1156 0.950 . S
C1154 C1153 1.387 . S
C1154 C1157 1.387 . S
H1155 C1151 0.950 . S
H1156 C1153 0.950 . S
C1157 C1148 1.390 . S
C1157 H1150 0.950 . S
C1157 C1154 1.387 . S
C1158 C1159 1.387 . S
C1158 H1162 0.950 . S
C1158 C1167 1.390 . S
C1159 C1158 1.387 . S
C1159 C1161 1.387 . S
H1160 C1167 0.950 . S
C1161 C1159 1.387 . S
C1161 C1163 1.390 . S
C1161 H1165 0.950 . S
H1162 C1158 0.950 . S
C1163 C1161 1.390 . S
C1163 C1164 1.387 . S
C1163 H1166 0.950 . S
C1164 C1163 1.387 . S
C1164 C1167 1.387 . S
H1165 C1161 0.950 . S
H1166 C1163 0.950 . S
C1167 C1158 1.390 . S
C1167 H1160 0.950 . S
C1167 C1164 1.387 . S
C849 C38 2.276 . S
C854 C251 2.280 . S
C859 C82 0.758 . S
C864 C294 0.757 . S
C869 C347 0.660 . S
C874 C135 0.657 . S
C879 C188 1.462 . S
C884 C410 1.464 . S
C889 C250 2.281 . S
C894 C39 2.277 . S
C899 C552 0.757 . S
C904 C446 0.757 . S
C909 C340 0.655 . S
C914 C128 0.653 . S
C919 C499 1.462 . S
C924 C621 1.464 . S
C929 C674 1.507 . S
C934 C764 1.505 . S
C939 C453 0.628 . S
C944 C559 0.625 . S
C949 C718 0.646 . S
C954 C824 0.648 . S
C959 C622 1.483 . S
C964 C506 1.482 . S
C969 C771 1.506 . S
C974 C675 1.509 . S
C979 C75 0.632 . S
C984 C287 0.628 . S
C989 C711 0.645 . S
C994 C817 0.648 . S
C999 C409 1.483 . S
C1004 C181 1.482 . S
C1009 C29 1.296 . S
C1014 C393 1.296 . S
C1019 C234 1.492 . S
C1024 C91 1.495 . S
C1029 C303 2.001 . S
C1034 C144 2.005 . S
C1039 C197 1.680 . S
C1044 C356 1.679 . S
C1049 C22 1.294 . S
C1054 C612 1.295 . S
C1059 C463 1.497 . S
C1064 C241 1.493 . S
C1069 C569 2.002 . S
C1074 C145 2.002 . S
C1079 C516 1.681 . S
C1084 C357 1.683 . S
C1089 C665 1.321 . S
C1094 C605 1.321 . S
C1099 C781 1.545 . S
C1104 C462 1.542 . S
C1109 C568 2.009 . S
C1114 C727 2.011 . S
C1119 C833 1.678 . S
C1124 C515 1.680 . S
C1129 C400 1.321 . S
C1134 C658 1.322 . S
C1139 C780 1.547 . S
C1144 C92 1.544 . S
C1149 C304 2.009 . S
C1154 C728 2.007 . S
C1159 C834 1.679 . S
C1164 C198 1.678 . S
