# Generated by pormake.
# Topology uou, (4)-cn, num edge types: 1
# Building blocks:
#     Node 0, Type 0, BuildingBlock: ICAMEG_clean_sbu_1, # of connection points: 4
#     Node 1, Type 0, BuildingBlock: ICAMEG_clean_sbu_1, # of connection points: 4
#     Node 2, Type 0, BuildingBlock: ICAMEG_clean_sbu_1, # of connection points: 4
#     Node 3, Type 0, BuildingBlock: ICAMEG_clean_sbu_1, # of connection points: 4
#     Node 4, Type 0, BuildingBlock: ICAMEG_clean_sbu_1, # of connection points: 4
#     Node 5, Type 0, BuildingBlock: ICAMEG_clean_sbu_1, # of connection points: 4
#     Node 6, Type 0, BuildingBlock: ICAMEG_clean_sbu_1, # of connection points: 4
#     Node 7, Type 0, BuildingBlock: ICAMEG_clean_sbu_1, # of connection points: 4
#     Node 8, Type 0, BuildingBlock: ICAMEG_clean_sbu_1, # of connection points: 4
#     Node 9, Type 0, BuildingBlock: ICAMEG_clean_sbu_1, # of connection points: 4
#     Node 10, Type 0, BuildingBlock: ICAMEG_clean_sbu_1, # of connection points: 4
#     Node 11, Type 0, BuildingBlock: ICAMEG_clean_sbu_1, # of connection points: 4
#     Node 12, Type 0, BuildingBlock: ICAMEG_clean_sbu_1, # of connection points: 4
#     Node 13, Type 0, BuildingBlock: ICAMEG_clean_sbu_1, # of connection points: 4
#     Node 14, Type 0, BuildingBlock: ICAMEG_clean_sbu_1, # of connection points: 4
#     Node 15, Type 0, BuildingBlock: ICAMEG_clean_sbu_1, # of connection points: 4
#     Edge 16, Type (0, 0), BuildingBlock: AJUNOK_clean_linker_0, # of connection points: 2
#     Edge 17, Type (0, 0), BuildingBlock: AJUNOK_clean_linker_0, # of connection points: 2
#     Edge 18, Type (0, 0), BuildingBlock: AJUNOK_clean_linker_0, # of connection points: 2
#     Edge 19, Type (0, 0), BuildingBlock: AJUNOK_clean_linker_0, # of connection points: 2
#     Edge 20, Type (0, 0), BuildingBlock: AJUNOK_clean_linker_0, # of connection points: 2
#     Edge 21, Type (0, 0), BuildingBlock: AJUNOK_clean_linker_0, # of connection points: 2
#     Edge 22, Type (0, 0), BuildingBlock: AJUNOK_clean_linker_0, # of connection points: 2
#     Edge 23, Type (0, 0), BuildingBlock: AJUNOK_clean_linker_0, # of connection points: 2
#     Edge 24, Type (0, 0), BuildingBlock: AJUNOK_clean_linker_0, # of connection points: 2
#     Edge 25, Type (0, 0), BuildingBlock: AJUNOK_clean_linker_0, # of connection points: 2
#     Edge 26, Type (0, 0), BuildingBlock: AJUNOK_clean_linker_0, # of connection points: 2
#     Edge 27, Type (0, 0), BuildingBlock: AJUNOK_clean_linker_0, # of connection points: 2
#     Edge 28, Type (0, 0), BuildingBlock: AJUNOK_clean_linker_0, # of connection points: 2
#     Edge 29, Type (0, 0), BuildingBlock: AJUNOK_clean_linker_0, # of connection points: 2
#     Edge 30, Type (0, 0), BuildingBlock: AJUNOK_clean_linker_0, # of connection points: 2
#     Edge 31, Type (0, 0), BuildingBlock: AJUNOK_clean_linker_0, # of connection points: 2
#     Edge 32, Type (0, 0), BuildingBlock: AJUNOK_clean_linker_0, # of connection points: 2
#     Edge 33, Type (0, 0), BuildingBlock: AJUNOK_clean_linker_0, # of connection points: 2
#     Edge 34, Type (0, 0), BuildingBlock: AJUNOK_clean_linker_0, # of connection points: 2
#     Edge 35, Type (0, 0), BuildingBlock: AJUNOK_clean_linker_0, # of connection points: 2
#     Edge 36, Type (0, 0), BuildingBlock: AJUNOK_clean_linker_0, # of connection points: 2
#     Edge 37, Type (0, 0), BuildingBlock: AJUNOK_clean_linker_0, # of connection points: 2
#     Edge 38, Type (0, 0), BuildingBlock: AJUNOK_clean_linker_0, # of connection points: 2
#     Edge 39, Type (0, 0), BuildingBlock: AJUNOK_clean_linker_0, # of connection points: 2
#     Edge 40, Type (0, 0), BuildingBlock: AJUNOK_clean_linker_0, # of connection points: 2
#     Edge 41, Type (0, 0), BuildingBlock: AJUNOK_clean_linker_0, # of connection points: 2
#     Edge 42, Type (0, 0), BuildingBlock: AJUNOK_clean_linker_0, # of connection points: 2
#     Edge 43, Type (0, 0), BuildingBlock: AJUNOK_clean_linker_0, # of connection points: 2
#     Edge 44, Type (0, 0), BuildingBlock: AJUNOK_clean_linker_0, # of connection points: 2
#     Edge 45, Type (0, 0), BuildingBlock: AJUNOK_clean_linker_0, # of connection points: 2
#     Edge 46, Type (0, 0), BuildingBlock: AJUNOK_clean_linker_0, # of connection points: 2
#     Edge 47, Type (0, 0), BuildingBlock: AJUNOK_clean_linker_0, # of connection points: 2
# Relax obj value: 0.027
# Max RMSD: 0.080
# Mean RMSD: 0.080
data_MOF--net-uou--node1-ICAMEG_clean_sbu_1--edge1-AJUNOK_clean_linker_0
_symmetry_space_group_name_H-M    P1
_symmetry_Int_Tables_number       1
_symmetry_cell_setting            triclinic
loop_
_symmetry_equiv_pos_as_xyz
'x, y, z'
_cell_length_a     31.50895
_cell_length_b     29.828393
_cell_length_c     43.783639
_cell_angle_alpha  90.045451
_cell_angle_beta   89.795008
_cell_angle_gamma 90.017876
loop_
_atom_site_label
_atom_site_type_symbol
_atom_site_fract_x
_atom_site_fract_y
_atom_site_fract_z
_atom_type_partial_charge
Co0 Co 0.02163 0.07019 0.12791 0.0
Co1 Co 0.11361 0.11744 0.15304 0.0
O2 O 0.08382 0.07239 0.12862 0.0
C3 C 1.00357 0.05835 0.06147 0.0
O4 O 0.97792 0.09293 0.06359 0.0
C5 C 0.17157 0.03619 0.15137 0.0
O6 O 0.14407 0.01328 0.13527 0.0
O7 O 0.08319 0.09509 0.1901 0.0
O8 O 0.01717 0.09244 0.17139 0.0
H9 H 0.11961 0.24062 0.23096 0.0
H10 H 0.07025 0.98862 0.1112 0.0
O11 O 0.02514 0.0464 0.08473 0.0
H12 H 0.98015 0.94351 0.19814 0.0
H13 H 0.87912 1.0016 0.10401 0.0
H14 H 0.95349 0.13319 0.1461 0.0
H15 H 0.97697 0.0205 0.17796 0.0
H16 H 0.95731 1.00347 0.10612 0.0
O17 O 0.16263 0.07533 0.16119 0.0
H18 H 0.08505 0.18293 0.19958 0.0
H19 H 0.20403 0.14647 0.16092 0.0
H20 H 0.87532 0.13278 0.14438 0.0
H21 H 0.07398 0.91103 0.13032 0.0
H22 H 0.83758 0.06659 0.12325 0.0
H23 H 0.02877 0.88805 0.1742 0.0
O24 O 0.0208 0.13334 0.11274 0.0
H25 H 0.18658 0.10247 0.05076 0.0
H26 H 0.13486 0.20835 0.12883 0.0
H27 H 0.16995 0.2374 0.08266 0.0
H28 H 0.19656 0.18432 0.04328 0.0
H29 H 0.1506 0.07503 0.09688 0.0
H30 H 0.24011 0.20306 0.19267 0.0
H31 H 0.1978 0.25106 0.22773 0.0
O32 O 0.06758 0.16231 0.14556 0.0
C33 C 0.04294 0.09324 0.1939 0.0
C34 C 0.13849 0.21996 0.21585 0.0
C35 C 0.20606 0.19885 0.19431 0.0
N36 N 0.14238 0.16154 0.17823 0.0
C37 C 0.11902 0.18732 0.19787 0.0
C38 C 0.18546 0.16666 0.17653 0.0
C39 C 0.18231 0.22576 0.21401 0.0
C40 C 0.05025 0.9788 0.13009 0.0
N41 N 0.0234 0.00911 0.14332 0.0
C42 C 0.05259 0.93484 0.14092 0.0
C43 C 0.02727 0.92199 0.16555 0.0
C44 C 1.00001 0.9531 0.17901 0.0
C45 C 0.99851 0.99675 0.16755 0.0
C46 C 0.89518 0.0306 0.11333 0.0
C47 C 0.93733 0.10426 0.13688 0.0
C48 C 0.93945 0.03182 0.11462 0.0
N49 N 0.95999 0.06834 0.12636 0.0
C50 C 0.89304 0.10422 0.13596 0.0
C51 C 0.8719 0.06708 0.12411 0.0
C52 C 0.03828 0.1669 0.12578 0.0
C53 C 0.17573 0.12594 0.06795 0.0
C54 C 0.14653 0.18488 0.11202 0.0
C55 C 0.16632 0.20161 0.08581 0.0
C56 C 0.1812 0.17185 0.06373 0.0
N57 N 0.14211 0.13969 0.11644 0.0
C58 C 0.15571 0.11047 0.09444 0.0
Co59 Co 0.49758 0.93446 0.13184 0.0
Co60 Co 0.40054 0.89727 0.15536 0.0
O61 O 0.43521 0.93819 0.13048 0.0
C62 C 0.47984 0.94546 0.06532 0.0
O63 O 0.45048 0.91437 0.06739 0.0
C64 C 0.34875 0.98312 0.15136 0.0
O65 O 0.37815 1.00345 0.13524 0.0
O66 O 0.42997 0.91951 0.19266 0.0
O67 O 0.49671 0.91456 0.17557 0.0
H68 H 0.37855 0.78431 0.23892 0.0
H69 H 0.45713 0.01881 0.11131 0.0
O70 O 0.50151 0.9559 0.08866 0.0
H71 H 0.54509 0.06157 0.19957 0.0
H72 H 0.64676 0.98586 0.10908 0.0
H73 H 0.55862 0.86804 0.15636 0.0
H74 H 0.54335 0.98333 0.18154 0.0
H75 H 0.56871 0.99151 0.10859 0.0
O76 O 0.35441 0.94342 0.16119 0.0
H77 H 0.42016 0.83486 0.20604 0.0
H78 H 0.3082 0.87469 0.15967 0.0
H79 H 0.63655 0.86127 0.15759 0.0
H80 H 0.45826 0.09762 0.12836 0.0
H81 H 0.6812 0.92047 0.13383 0.0
H82 H 0.5024 0.11942 0.17286 0.0
O83 O 0.49455 0.87051 0.1182 0.0
H84 H 0.33223 0.9119 0.05186 0.0
H85 H 0.37793 0.80651 0.13191 0.0
H86 H 0.34428 0.77729 0.08528 0.0
H87 H 0.32081 0.83014 0.04491 0.0
H88 H 0.3667 0.93944 0.09846 0.0
H89 H 0.26526 0.82471 0.19227 0.0
H90 H 0.30045 0.7788 0.23211 0.0
O91 O 0.44368 0.84858 0.15081 0.0
C92 C 0.46992 0.91769 0.19736 0.0
C93 C 0.36283 0.80388 0.22155 0.0
C94 C 0.29927 0.82665 0.1954 0.0
N95 N 0.3668 0.85735 0.18071 0.0
C96 C 0.3863 0.83248 0.20276 0.0
C97 C 0.32376 0.85498 0.17706 0.0
C98 C 0.31903 0.80091 0.21775 0.0
C99 C 0.47646 0.02804 0.13065 0.0
N100 N 0.49988 0.99637 0.14553 0.0
C101 C 0.47696 0.07272 0.14022 0.0
C102 C 0.50171 0.08492 0.1652 0.0
C103 C 0.52563 0.05248 0.18021 0.0
C104 C 0.52434 0.00814 0.16999 0.0
C105 C 0.62765 0.95985 0.11951 0.0
C106 C 0.57779 0.89402 0.14603 0.0
C107 C 0.58341 0.96279 0.11921 0.0
N108 N 0.55907 0.9302 0.1325 0.0
C109 C 0.62193 0.88996 0.14677 0.0
C110 C 0.64696 0.92317 0.13342 0.0
C111 C 0.47409 0.84002 0.13244 0.0
C112 C 0.34171 0.88855 0.06948 0.0
C113 C 0.36758 0.82985 0.1146 0.0
C114 C 0.3486 0.81304 0.08818 0.0
C115 C 0.33546 0.84269 0.06554 0.0
N116 N 0.37295 0.875 0.1186 0.0
C117 C 0.3608 0.90411 0.09621 0.0
Co118 Co 0.52384 0.95174 0.38553 0.0
Co119 Co 0.61464 0.90064 0.36005 0.0
O120 O 0.5862 0.94771 0.38399 0.0
C121 C 0.54055 0.96408 0.45277 0.0
O122 O 0.55891 0.92461 0.45422 0.0
C123 C 0.67187 0.98247 0.35509 0.0
O124 O 0.64481 0.00679 0.37076 0.0
O125 O 0.58281 0.92008 0.32302 0.0
O126 O 0.51792 0.92666 0.34327 0.0
H127 H 0.61686 0.77397 0.28429 0.0
H128 H 0.57373 0.03325 0.40022 0.0
O129 O 0.52658 0.97855 0.42745 0.0
H130 H 0.48497 0.0753 0.31227 0.0
H131 H 0.38461 0.02646 0.41098 0.0
H132 H 0.45286 0.89044 0.37012 0.0
H133 H 0.48033 0.99955 0.33438 0.0
H134 H 0.46245 0.02154 0.40699 0.0
O135 O 0.66337 0.94177 0.34854 0.0
H136 H 0.58359 0.83225 0.31634 0.0
H137 H 0.70428 0.8699 0.35094 0.0
H138 H 0.37488 0.89384 0.3735 0.0
H139 H 0.57892 0.10966 0.3791 0.0
H140 H 0.34017 0.96236 0.39402 0.0
H141 H 0.53443 0.13108 0.33473 0.0
O142 O 0.52113 0.88943 0.4022 0.0
H143 H 0.6957 0.92335 0.45794 0.0
H144 H 0.63374 0.81189 0.38791 0.0
H145 H 0.67053 0.78629 0.43424 0.0
H146 H 0.70202 0.84218 0.46962 0.0
H147 H 0.65844 0.94748 0.41159 0.0
H148 H 0.73887 0.81231 0.319 0.0
H149 H 0.69505 0.76373 0.28544 0.0
O150 O 0.5685 0.85696 0.37066 0.0
C151 C 0.54252 0.92252 0.32028 0.0
C152 C 0.63628 0.79485 0.29888 0.0
C153 C 0.70475 0.81641 0.31832 0.0
N154 N 0.64188 0.85434 0.33565 0.0
C155 C 0.61761 0.82785 0.31715 0.0
C156 C 0.68498 0.84908 0.33629 0.0
C157 C 0.68016 0.78915 0.29951 0.0
C158 C 0.5542 0.04231 0.38095 0.0
N159 N 0.52704 0.01176 0.36843 0.0
C160 C 0.5573 0.08564 0.36907 0.0
C161 C 0.53236 0.09762 0.34417 0.0
C162 C 0.50465 0.06633 0.33154 0.0
C163 C 0.50237 0.02334 0.34404 0.0
C164 C 0.39932 0.99644 0.40195 0.0
C165 C 0.43807 0.92024 0.37906 0.0
C166 C 0.44345 0.99341 0.3997 0.0
N167 N 0.46233 0.95574 0.38812 0.0
C168 C 0.39385 0.92204 0.38093 0.0
C169 C 0.37441 0.96047 0.39244 0.0
C170 C 0.5385 0.85485 0.39025 0.0
C171 C 0.68253 0.89864 0.44254 0.0
C172 C 0.64767 0.83651 0.40299 0.0
C173 C 0.66838 0.82176 0.42927 0.0
C174 C 0.68598 0.85311 0.44912 0.0
N175 N 0.64489 0.88124 0.3964 0.0
C176 C 0.66162 0.91215 0.41601 0.0
Co177 Co 0.00809 0.05791 0.38344 0.0
Co178 Co 0.91234 0.10674 0.36647 0.0
O179 O 0.9461 0.061 0.38742 0.0
C180 C 0.99881 0.05081 0.45154 0.0
O181 O 0.97641 0.08793 0.45149 0.0
C182 C 0.84387 0.05114 0.33783 0.0
O183 O 0.85604 0.06546 0.31084 0.0
O184 O 0.93848 0.08906 0.32636 0.0
O185 O 1.00613 0.07926 0.34013 0.0
H186 H 0.89071 0.23136 0.29098 0.0
H187 H 0.95968 0.97855 0.40455 0.0
O188 O 0.01269 0.0349 0.42645 0.0
H189 H 0.03692 0.92821 0.31257 0.0
H190 H 0.15195 0.98868 0.40038 0.0
H191 H 0.07429 0.11625 0.35606 0.0
H192 H 0.04465 0.00569 0.33136 0.0
H193 H 0.07395 0.99254 0.40391 0.0
O194 O 0.86502 0.06175 0.36158 0.0
H195 H 0.93178 0.17487 0.3194 0.0
H196 H 0.82095 0.13543 0.36788 0.0
H197 H 0.15227 0.11365 0.35181 0.0
H198 H 0.95135 0.90056 0.38673 0.0
H199 H 0.19166 0.04947 0.37409 0.0
H200 H 0.9901 0.87497 0.34039 0.0
O201 O 0.01302 0.12158 0.39749 0.0
H202 H 0.84676 0.07662 0.46921 0.0
H203 H 0.89407 0.19399 0.39752 0.0
H204 H 0.86278 0.21577 0.44707 0.0
H205 H 0.83902 0.15687 0.48336 0.0
H206 H 0.87783 0.05634 0.41932 0.0
H207 H 0.77863 0.19135 0.33989 0.0
H208 H 0.81353 0.23982 0.3011 0.0
O209 O 0.95787 0.15291 0.37273 0.0
C210 C 0.97786 0.08507 0.31976 0.0
C211 C 0.87513 0.21042 0.30781 0.0
C212 C 0.81223 0.18793 0.33523 0.0
N213 N 0.8788 0.15166 0.34521 0.0
C214 C 0.89822 0.17837 0.324 0.0
C215 C 0.83633 0.15621 0.35095 0.0
C216 C 0.83183 0.21514 0.31349 0.0
C217 C 0.97682 0.96757 0.38447 0.0
N218 N 1.00274 0.9966 0.36909 0.0
C219 C 0.97191 0.92341 0.37444 0.0
C220 C 0.99363 0.90909 0.34843 0.0
C221 C 0.01988 0.93894 0.3328 0.0
C222 C 0.02403 0.98284 0.3435 0.0
C223 C 0.13516 0.01686 0.39061 0.0
C224 C 0.09116 0.08829 0.36581 0.0
C225 C 0.09097 0.01933 0.39265 0.0
N226 N 0.06951 0.05471 0.38024 0.0
C227 C 0.13534 0.08696 0.36333 0.0
C228 C 0.15742 0.05095 0.37584 0.0
C229 C 0.99206 0.15567 0.38824 0.0
C230 C 0.857 0.10261 0.4536 0.0
C231 C 0.88376 0.16815 0.41317 0.0
C232 C 0.86603 0.18069 0.44119 0.0
C233 C 0.85268 0.14763 0.46153 0.0
N234 N 0.88772 0.12393 0.40548 0.0
C235 C 0.87462 0.09133 0.42531 0.0
Co236 Co 0.97818 0.93915 0.88545 0.0
Co237 Co 0.88723 0.89067 0.85726 0.0
O238 O 0.91593 0.93544 0.88296 0.0
C239 C 0.99476 0.94484 0.9521 0.0
O240 O 0.0201 0.91034 0.94833 0.0
C241 C 0.83532 0.97549 0.85114 0.0
O242 O 0.86617 0.99925 0.8629 0.0
O243 O 0.92061 0.91121 0.8211 0.0
O244 O 0.9851 0.9208 0.84149 0.0
H245 H 0.88394 0.76811 0.77852 0.0
H246 H 0.92865 0.01821 0.90627 0.0
O247 O 0.97276 0.95872 0.92954 0.0
H248 H 0.01764 0.07341 0.82142 0.0
H249 H 0.11781 0.00946 0.91524 0.0
H250 H 0.04878 0.88045 0.86541 0.0
H251 H 0.02178 0.99457 0.83776 0.0
H252 H 0.03985 0.00561 0.91136 0.0
O253 O 0.83988 0.93359 0.84664 0.0
H254 H 0.91773 0.82387 0.81211 0.0
H255 H 0.79713 0.86274 0.8468 0.0
H256 H 0.12681 0.8829 0.86889 0.0
H257 H 0.92423 0.0976 0.89111 0.0
H258 H 0.16185 0.94775 0.89397 0.0
H259 H 0.96875 0.12565 0.84827 0.0
O260 O 0.98059 0.87472 0.89797 0.0
H261 H 0.80086 0.91249 0.95298 0.0
H262 H 0.86567 0.80126 0.88379 0.0
H263 H 0.82613 0.77543 0.92912 0.0
H264 H 0.79315 0.83122 0.96403 0.0
H265 H 0.84117 0.93682 0.90768 0.0
H266 H 0.76202 0.80757 0.81337 0.0
H267 H 0.80551 0.75968 0.77896 0.0
O268 O 0.93173 0.8451 0.86691 0.0
C269 C 0.96077 0.91595 0.81845 0.0
C270 C 0.86464 0.7887 0.79344 0.0
C271 C 0.79622 0.81092 0.81297 0.0
N272 N 0.8595 0.8465 0.83149 0.0
C273 C 0.88361 0.82028 0.81259 0.0
C274 C 0.81629 0.84222 0.83178 0.0
C275 C 0.82064 0.78404 0.79368 0.0
C276 C 0.94848 0.03019 0.88781 0.0
N277 N 0.97526 1.00156 0.87284 0.0
C278 C 0.94567 0.07518 0.87923 0.0
C279 C 0.9706 0.09087 0.85516 0.0
C280 C 0.99796 0.06156 0.84005 0.0
C281 C 0.99991 0.01679 0.84926 0.0
C282 C 0.10292 0.98103 0.90425 0.0
C283 C 0.06375 0.90879 0.87636 0.0
C284 C 0.05878 0.97868 0.90195 0.0
N285 N 0.0397 0.94277 0.88822 0.0
C286 C 0.10797 0.91 0.87825 0.0
C287 C 0.12761 0.94639 0.89232 0.0
C288 C 0.96274 0.84105 0.88532 0.0
C289 C 0.81487 0.88783 0.93786 0.0
C290 C 0.85154 0.82578 0.89887 0.0
C291 C 0.82911 0.81093 0.9245 0.0
C292 C 0.81061 0.84224 0.94407 0.0
N293 N 0.85527 0.87056 0.89274 0.0
C294 C 0.83756 0.90143 0.91201 0.0
Co295 Co 0.49974 0.06473 0.88738 0.0
Co296 Co 0.59697 0.10688 0.8691 0.0
O297 O 0.56184 0.06267 0.89057 0.0
C298 C 0.51259 0.04879 0.95414 0.0
O299 O 0.54117 0.08084 0.95439 0.0
C300 C 0.66476 0.05011 0.84115 0.0
O301 O 0.65267 0.06445 0.81419 0.0
O302 O 0.57038 0.08803 0.82961 0.0
O303 O 0.5026 0.08912 0.84482 0.0
H304 H 0.62264 0.22802 0.79152 0.0
H305 H 0.54227 0.98017 0.90499 0.0
O306 O 0.49371 0.03894 0.92943 0.0
H307 H 0.46134 0.94342 0.81208 0.0
H308 H 0.35137 1.00416 0.90031 0.0
H309 H 0.43754 0.13336 0.86744 0.0
H310 H 0.45911 0.01962 0.83378 0.0
H311 H 0.42945 1.00096 0.90225 0.0
O312 O 0.64336 0.06066 0.86491 0.0
H313 H 0.58003 0.1729 0.82017 0.0
H314 H 0.68856 0.13462 0.87109 0.0
H315 H 0.35959 0.13801 0.8648 0.0
H316 H 0.54493 0.90328 0.88428 0.0
H317 H 0.31587 0.07301 0.88131 0.0
H318 H 0.50433 0.88453 0.83746 0.0
O319 O 0.5003 0.12736 0.90383 0.0
H320 H 0.66081 0.07976 0.97246 0.0
H321 H 0.61446 0.19509 0.89918 0.0
H322 H 0.64428 0.21826 0.94871 0.0
H323 H 0.66784 0.1604 0.98573 0.0
H324 H 0.63058 0.05805 0.92272 0.0
H325 H 0.73241 0.18911 0.84285 0.0
H326 H 0.69944 0.23641 0.80274 0.0
O327 O 0.55259 0.15435 0.87409 0.0
C328 C 0.53063 0.08903 0.82375 0.0
C329 C 0.63741 0.20755 0.80888 0.0
C330 C 0.699 0.18571 0.83768 0.0
N331 N 0.63177 0.15025 0.8472 0.0
C332 C 0.61343 0.17623 0.82519 0.0
C333 C 0.67403 0.15477 0.85355 0.0
C334 C 0.68049 0.21224 0.81519 0.0
C335 C 0.52428 0.97218 0.88473 0.0
N336 N 0.50043 1.00435 0.87072 0.0
C337 C 0.52601 0.92862 0.87306 0.0
C338 C 0.50326 0.91813 0.84677 0.0
C339 C 0.47916 0.95116 0.8325 0.0
C340 C 0.47816 0.99434 0.84484 0.0
C341 C 0.37003 0.03273 0.89307 0.0
C342 C 0.41883 0.10504 0.87474 0.0
C343 C 0.4143 0.03119 0.89427 0.0
N344 N 0.43817 0.06701 0.88503 0.0
C345 C 0.37464 0.10782 0.87316 0.0
C346 C 0.35014 0.07136 0.88241 0.0
C347 C 0.52132 0.1599 0.89227 0.0
C348 C 0.65083 0.1053 0.95648 0.0
C349 C 0.62462 0.16967 0.91515 0.0
C350 C 0.64154 0.18302 0.94316 0.0
C351 C 0.65473 0.15054 0.96391 0.0
N352 N 0.62122 0.12522 0.90789 0.0
C353 C 0.63381 0.09321 0.92823 0.0
Co354 Co 0.50786 0.06939 0.63265 0.0
Co355 Co 0.41047 0.11225 0.6498 0.0
O356 O 0.44595 0.06867 0.62803 0.0
C357 C 0.50099 0.06343 0.56464 0.0
O358 O 0.47758 0.09985 0.56475 0.0
C359 C 0.34005 0.0566 0.67449 0.0
O360 O 0.35145 0.06969 0.70189 0.0
O361 O 0.43452 0.0905 0.68929 0.0
O362 O 0.50331 0.08933 0.67629 0.0
H363 H 0.38209 0.22818 0.73072 0.0
H364 H 0.46417 0.98771 0.61055 0.0
O365 O 0.51481 0.04759 0.58963 0.0
H366 H 0.5434 0.9398 0.7018 0.0
H367 H 0.65637 0.01104 0.61668 0.0
H368 H 0.56923 0.13254 0.66052 0.0
H369 H 0.54699 0.01808 0.684 0.0
H370 H 0.57837 0.00909 0.61249 0.0
O371 O 0.3629 0.06698 0.6514 0.0
H372 H 0.42551 0.17446 0.70143 0.0
H373 H 0.31981 0.14264 0.64555 0.0
H374 H 0.6471 0.13564 0.6654 0.0
H375 H 0.46005 0.90889 0.62733 0.0
H376 H 0.69123 0.07457 0.64339 0.0
H377 H 0.4998 0.88451 0.67331 0.0
O378 O 0.50931 0.13347 0.61908 0.0
H379 H 0.3532 0.09263 0.54369 0.0
H380 H 0.39709 0.20257 0.62161 0.0
H381 H 0.37187 0.22921 0.57159 0.0
H382 H 0.34954 0.17408 0.53225 0.0
H383 H 0.37901 0.06741 0.59394 0.0
H384 H 0.27522 0.19601 0.67424 0.0
H385 H 0.30633 0.23923 0.71723 0.0
O386 O 0.45571 0.15897 0.64782 0.0
C387 C 0.47388 0.08956 0.69639 0.0
C388 C 0.36813 0.2095 0.71207 0.0
C389 C 0.30817 0.19144 0.68039 0.0
N390 N 0.37522 0.15509 0.67189 0.0
C391 C 0.39256 0.17896 0.69541 0.0
C392 C 0.33357 0.16117 0.66425 0.0
C393 C 0.32564 0.21568 0.70449 0.0
C394 C 0.4817 0.9773 0.6305 0.0
N395 N 0.50582 0.00749 0.64626 0.0
C396 C 0.47919 0.93265 0.63992 0.0
C397 C 0.50147 0.919 0.66573 0.0
C398 C 0.52591 0.95001 0.68174 0.0
C399 C 0.52769 0.99436 0.67163 0.0
C400 C 0.63748 0.03781 0.6264 0.0
C401 C 0.58818 0.10572 0.651 0.0
C402 C 0.59329 0.03696 0.62404 0.0
N403 N 0.56921 0.07053 0.63643 0.0
C404 C 0.63228 0.10771 0.65378 0.0
C405 C 0.65702 0.07346 0.6414 0.0
C406 C 0.48835 0.16561 0.63118 0.0
C407 C 0.36265 0.117 0.5607 0.0
C408 C 0.38746 0.17832 0.60463 0.0
C409 C 0.37316 0.19364 0.57634 0.0
C410 C 0.36065 0.16269 0.55428 0.0
N411 N 0.38901 0.13343 0.61086 0.0
C412 C 0.37713 0.10292 0.58923 0.0
Co413 Co 0.02259 0.93797 0.63117 0.0
Co414 Co 0.1172 0.90166 0.65912 0.0
O415 O 0.08469 0.94367 0.6337 0.0
C416 C 0.03927 0.95184 0.56361 0.0
O417 O 0.06192 0.91493 0.5622 0.0
C418 C 0.16749 0.98855 0.66054 0.0
O419 O 0.1388 0.00955 0.6443 0.0
O420 O 0.08269 0.92035 0.69545 0.0
O421 O 0.01874 0.91374 0.67399 0.0
H422 H 0.1318 0.78146 0.73881 0.0
H423 H 0.0624 0.02556 0.617 0.0
O424 O 0.02317 0.96427 0.58891 0.0
H425 H 0.96277 0.05611 0.70158 0.0
H426 H 0.87498 0.98782 0.60292 0.0
H427 H 0.96115 0.866 0.64664 0.0
H428 H 0.96966 0.97992 0.68037 0.0
H429 H 0.95247 0.99608 0.60782 0.0
O430 O 0.16157 0.94821 0.66905 0.0
H431 H 0.09321 0.83526 0.70655 0.0
H432 H 0.20923 0.88055 0.6678 0.0
H433 H 0.88376 0.85644 0.64235 0.0
H434 H 0.05612 0.10244 0.63727 0.0
H435 H 0.84004 0.91768 0.6204 0.0
H436 H 1.00607 0.1181 0.67993 0.0
O437 O 0.02939 0.87547 0.61513 0.0
H438 H 0.19689 0.92559 0.56032 0.0
H439 H 0.14454 0.81338 0.63395 0.0
H440 H 0.184 0.78843 0.58839 0.0
H441 H 0.2108 0.84472 0.55126 0.0
H442 H 0.15685 0.94899 0.6058 0.0
H443 H 0.24923 0.82806 0.70027 0.0
H444 H 0.21047 0.77764 0.73584 0.0
O445 O 0.07587 0.8525 0.65038 0.0
C446 C 0.04233 0.91659 0.69757 0.0
C447 C 0.14907 0.80312 0.72334 0.0
C448 C 0.21495 0.82929 0.7017 0.0
N449 N 0.14875 0.8605 0.6849 0.0
C450 C 0.12731 0.83344 0.70483 0.0
C451 C 0.19211 0.85907 0.68345 0.0
C452 C 0.19319 0.80103 0.72168 0.0
C453 C 0.0405 0.03212 0.63552 0.0
N454 N 0.01658 0.9982 0.64753 0.0
C455 C 0.0371 0.07572 0.64692 0.0
C456 C 0.00903 0.08447 0.67086 0.0
C457 C 0.98475 0.04971 0.68303 0.0
C458 C 0.98896 0.00655 0.67102 0.0
C459 C 0.89365 0.96094 0.61259 0.0
C460 C 0.94243 0.89286 0.63712 0.0
C461 C 0.9376 0.96539 0.61538 0.0
N462 N 0.96139 0.93173 0.62779 0.0
C463 C 0.89857 0.88722 0.63472 0.0
C464 C 0.87407 0.92158 0.6224 0.0
C465 C 0.04819 0.84443 0.62993 0.0
C466 C 0.18586 0.90076 0.57653 0.0
C467 C 0.15629 0.83822 0.61807 0.0
C468 C 0.17856 0.82382 0.59224 0.0
C469 C 0.19356 0.85539 0.57141 0.0
N470 N 0.14949 0.8829 0.6233 0.0
C471 C 0.16346 0.91392 0.60262 0.0
Co472 Co 0.50289 0.55862 0.13536 0.0
Co473 Co 0.60043 0.59803 0.15509 0.0
O474 O 0.56503 0.55526 0.13255 0.0
C475 C 0.51648 0.54627 0.0679 0.0
O476 O 0.54385 0.57948 0.06801 0.0
C477 C 0.66739 0.54031 0.18212 0.0
O478 O 0.65476 0.55425 0.2091 0.0
O479 O 0.57311 0.57775 0.19405 0.0
O480 O 0.50543 0.58003 0.17884 0.0
H481 H 0.6271 0.71392 0.23624 0.0
H482 H 0.54447 0.4743 0.11577 0.0
O483 O 0.49756 0.5353 0.09248 0.0
H484 H 0.45815 0.43334 0.20568 0.0
H485 H 0.3531 0.5055 0.11747 0.0
H486 H 0.44251 0.62563 0.16028 0.0
H487 H 0.459 0.51109 0.18668 0.0
H488 H 0.4311 0.5001 0.11524 0.0
O489 O 0.64645 0.55125 0.15834 0.0
H490 H 0.58414 0.66096 0.20623 0.0
H491 H 0.69208 0.62566 0.15312 0.0
H492 H 0.36464 0.63219 0.1633 0.0
H493 H 0.5441 0.39595 0.13375 0.0
H494 H 0.31934 0.57186 0.14177 0.0
H495 H 0.50076 0.37506 0.17905 0.0
O496 O 0.50483 0.62218 0.12065 0.0
H497 H 0.66554 0.57509 0.05134 0.0
H498 H 0.61772 0.68744 0.12662 0.0
H499 H 0.64757 0.71258 0.07743 0.0
H500 H 0.67197 0.65622 0.03943 0.0
H501 H 0.63498 0.5514 0.10069 0.0
H502 H 0.73632 0.67814 0.18264 0.0
H503 H 0.70384 0.72277 0.22457 0.0
O504 O 0.55668 0.64611 0.15153 0.0
C505 C 0.53331 0.57915 0.19992 0.0
C506 C 0.64164 0.69467 0.21803 0.0
C507 C 0.70292 0.67457 0.18797 0.0
N508 N 0.63549 0.64003 0.17793 0.0
C509 C 0.61744 0.6646 0.20092 0.0
C510 C 0.67771 0.64481 0.17135 0.0
C511 C 0.68469 0.69961 0.21148 0.0
C512 C 0.52537 0.46542 0.13541 0.0
N513 N 0.50169 0.49724 0.15008 0.0
C514 C 0.52536 0.42103 0.14552 0.0
C515 C 0.50105 0.40933 0.17095 0.0
C516 C 0.47716 0.44201 0.18591 0.0
C517 C 0.4779 0.48605 0.17512 0.0
C518 C 0.37249 0.53205 0.1269 0.0
C519 C 0.42307 0.59918 0.1509 0.0
C520 C 0.4167 0.52927 0.12555 0.0
N521 N 0.44142 0.56252 0.13756 0.0
C522 C 0.37896 0.60311 0.15266 0.0
C523 C 0.35357 0.56926 0.14056 0.0
C524 C 0.52533 0.65352 0.13395 0.0
C525 C 0.65523 0.59998 0.06776 0.0
C526 C 0.62813 0.66267 0.1102 0.0
C527 C 0.64509 0.67713 0.08239 0.0
C528 C 0.65877 0.6455 0.06108 0.0
N529 N 0.6251 0.61794 0.1167 0.0
C530 C 0.63806 0.58676 0.0958 0.0
Co531 Co 0.97305 0.44574 0.12738 0.0
Co532 Co 0.88646 0.38326 0.15193 0.0
O533 O 0.9117 0.43305 0.12872 0.0
C534 C 0.99227 0.45305 0.0611 0.0
O535 O 0.02096 0.42182 0.06563 0.0
C536 C 0.83648 0.46284 0.1728 0.0
O537 O 0.87136 0.48681 0.17346 0.0
O538 O 0.91904 0.40042 0.18931 0.0
O539 O 0.98011 0.42842 0.17121 0.0
H540 H 0.89215 0.25053 0.22237 0.0
H541 H 0.91164 0.51459 0.10708 0.0
O542 O 0.96765 0.46438 0.08309 0.0
H543 H 0.99024 0.58476 0.19173 0.0
H544 H 0.10249 0.53742 0.10043 0.0
H545 H 0.05011 0.3995 0.14977 0.0
H546 H 1.00692 0.50768 0.17526 0.0
H547 H 0.02587 0.52078 0.10224 0.0
O548 O 0.83751 0.4218 0.16512 0.0
H549 H 0.92188 0.31231 0.19161 0.0
H550 H 0.79818 0.34898 0.16251 0.0
H551 H 0.127 0.41477 0.14848 0.0
H552 H 0.89447 0.59205 0.1224 0.0
H553 H 0.15366 0.48418 0.12365 0.0
H554 H 0.93383 0.62761 0.16511 0.0
O555 O 0.98522 0.3822 0.11518 0.0
H556 H 0.79652 0.41362 0.05974 0.0
H557 H 0.86717 0.29666 0.12069 0.0
H558 H 0.8271 0.2751 0.07465 0.0
H559 H 0.79136 0.33383 0.04384 0.0
H560 H 0.83717 0.4336 0.10583 0.0
H561 H 0.76713 0.2878 0.19317 0.0
H562 H 0.81425 0.23802 0.22335 0.0
O563 O 0.93325 0.34279 0.13844 0.0
C564 C 0.95713 0.41398 0.19311 0.0
C565 C 0.87131 0.2719 0.20924 0.0
C566 C 0.80114 0.2929 0.19291 0.0
N567 N 0.86186 0.33412 0.17513 0.0
C568 C 0.88796 0.30685 0.19168 0.0
C569 C 0.81891 0.32759 0.17566 0.0
C570 C 0.82759 0.26495 0.20982 0.0
C571 C 0.92942 0.53011 0.1253 0.0
N572 N 0.96066 0.50683 0.13992 0.0
C573 C 0.91933 0.57386 0.13404 0.0
C574 C 0.94134 0.59374 0.15805 0.0
C575 C 0.97297 0.5697 0.17302 0.0
C576 C 0.98219 0.52599 0.16365 0.0
C577 C 0.09128 0.50701 0.11127 0.0
C578 C 0.06146 0.42963 0.13882 0.0
C579 C 0.04793 0.49738 0.11234 0.0
N580 N 0.0335 0.45898 0.12593 0.0
C581 C 0.10504 0.43818 0.13821 0.0
C582 C 0.11997 0.47714 0.1243 0.0
C583 C 0.96752 0.34532 0.12297 0.0
C584 C 0.81199 0.38771 0.07294 0.0
C585 C 0.85196 0.3224 0.10727 0.0
C586 C 0.82918 0.30999 0.08129 0.0
C587 C 0.80912 0.34295 0.06403 0.0
N588 N 0.85467 0.36635 0.11584 0.0
C589 C 0.83504 0.39884 0.09906 0.0
Co590 Co 0.01404 0.43408 0.38022 0.0
Co591 Co 0.11096 0.40177 0.3536 0.0
O592 O 0.07585 0.4431 0.37792 0.0
C593 C 0.03424 0.45344 0.44627 0.0
O594 O 0.06337 0.42196 0.44596 0.0
C595 C 0.15694 0.49138 0.35039 0.0
O596 O 0.12631 0.51183 0.36524 0.0
O597 O 0.07672 0.41729 0.31669 0.0
O598 O 0.01232 0.40869 0.33758 0.0
H599 H 0.13336 0.27724 0.27799 0.0
H600 H 0.04901 0.52409 0.39385 0.0
O601 O 0.01256 0.46108 0.42236 0.0
H602 H 0.95026 0.54705 0.30817 0.0
H603 H 0.86357 0.47602 0.40739 0.0
H604 H 0.9567 0.35858 0.36491 0.0
H605 H 0.96039 0.47183 0.3302 0.0
H606 H 0.94063 0.48862 0.40272 0.0
O607 O 0.15346 0.45017 0.34318 0.0
H608 H 0.09124 0.3307 0.30839 0.0
H609 H 0.2041 0.38597 0.34563 0.0
H610 H 0.87982 0.34465 0.36894 0.0
H611 H 0.0394 0.60004 0.37277 0.0
H612 H 0.83263 0.40365 0.3903 0.0
H613 H 0.9898 0.61187 0.32955 0.0
O614 O 0.02347 0.37264 0.3971 0.0
H615 H 0.18725 0.43468 0.45213 0.0
H616 H 0.14173 0.31618 0.38088 0.0
H617 H 0.18108 0.29563 0.42728 0.0
H618 H 0.2044 0.3551 0.46324 0.0
H619 H 0.14737 0.45367 0.40583 0.0
H620 H 0.24742 0.33387 0.31491 0.0
H621 H 0.21208 0.2786 0.28106 0.0
O622 O 0.07181 0.35056 0.36288 0.0
C623 C 0.03655 0.41218 0.31424 0.0
C624 C 0.14916 0.30117 0.29258 0.0
C625 C 0.21316 0.33294 0.31335 0.0
N626 N 0.14509 0.36123 0.32896 0.0
C627 C 0.12545 0.33143 0.30998 0.0
C628 C 0.18842 0.36252 0.33057 0.0
C629 C 0.1933 0.30196 0.29434 0.0
C630 C 0.02728 0.52899 0.37512 0.0
N631 N 1.00544 0.49351 0.36324 0.0
C632 C 0.022 0.57207 0.36325 0.0
C633 C 0.99419 0.57868 0.33899 0.0
C634 C 0.97202 0.54232 0.32697 0.0
C635 C 0.97806 0.49974 0.33945 0.0
C636 C 0.88378 0.45008 0.39798 0.0
C637 C 0.93642 0.38452 0.37409 0.0
C638 C 0.92748 0.457 0.39534 0.0
N639 N 0.95319 0.42454 0.3833 0.0
C640 C 0.89288 0.37638 0.37639 0.0
C641 C 0.86643 0.40948 0.38839 0.0
C642 C 0.04432 0.34178 0.38347 0.0
C643 C 0.17769 0.40849 0.43647 0.0
C644 C 0.15189 0.34238 0.39627 0.0
C645 C 0.17415 0.33048 0.42257 0.0
C646 C 0.18721 0.36384 0.44273 0.0
N647 N 0.14316 0.38635 0.39 0.0
C648 C 0.15538 0.41913 0.40994 0.0
Co649 Co 0.48913 0.57571 0.39179 0.0
Co650 Co 0.39758 0.62126 0.36549 0.0
O651 O 0.42709 0.57854 0.39173 0.0
C652 C 0.51059 0.57065 0.45761 0.0
O653 O 0.5356 0.60523 0.45303 0.0
C654 C 0.32808 0.56541 0.33897 0.0
O655 O 0.34297 0.57469 0.31164 0.0
O656 O 0.42643 0.59404 0.32909 0.0
O657 O 0.49261 0.59286 0.34745 0.0
H658 H 0.38849 0.73011 0.27847 0.0
H659 H 0.43873 0.49781 0.41306 0.0
O660 O 0.48694 0.55683 0.43594 0.0
H661 H 0.5264 0.44013 0.3282 0.0
H662 H 0.63159 0.50735 0.41622 0.0
H663 H 0.55757 0.63625 0.37036 0.0
H664 H 0.53192 0.51907 0.34424 0.0
H665 H 0.55341 0.51 0.4151 0.0
O666 O 0.34837 0.57814 0.36264 0.0
H667 H 0.42384 0.67695 0.31287 0.0
H668 H 0.30829 0.65584 0.36096 0.0
H669 H 0.63575 0.63502 0.37112 0.0
H670 H 0.43266 0.41839 0.39803 0.0
H671 H 0.67332 0.57017 0.39411 0.0
H672 H 0.47663 0.38908 0.35527 0.0
O673 O 0.49104 0.64064 0.40358 0.0
H674 H 0.32273 0.61663 0.467 0.0
H675 H 0.38387 0.71506 0.38784 0.0
H676 H 0.35158 0.74861 0.43381 0.0
H677 H 0.32046 0.69929 0.47373 0.0
H678 H 0.35578 0.58445 0.42079 0.0
H679 H 0.27152 0.70883 0.32695 0.0
H680 H 0.3117 0.7466 0.28538 0.0
O681 O 0.44476 0.66588 0.36902 0.0
C682 C 0.46666 0.5915 0.32512 0.0
C683 C 0.37054 0.71395 0.29645 0.0
C684 C 0.30495 0.70195 0.32366 0.0
N685 N 0.36818 0.66308 0.33887 0.0
C686 C 0.39043 0.68369 0.31601 0.0
C687 C 0.32592 0.67187 0.34281 0.0
C688 C 0.32751 0.72313 0.30034 0.0
C689 C 0.45825 0.48524 0.3946 0.0
N690 N 0.48585 0.51308 0.37971 0.0
C691 C 0.45456 0.44026 0.38612 0.0
C692 C 0.4792 0.42385 0.3621 0.0
C693 C 0.5071 0.45247 0.34689 0.0
C694 C 0.50997 0.49724 0.35601 0.0
C695 C 0.6156 0.53573 0.40605 0.0
C696 C 0.57362 0.60793 0.38046 0.0
C697 C 0.57132 0.53738 0.40527 0.0
N698 N 0.55085 0.57314 0.39248 0.0
C699 C 0.61793 0.60741 0.3808 0.0
C700 C 0.63899 0.57101 0.39368 0.0
C701 C 0.47405 0.67267 0.38856 0.0
C702 C 0.33604 0.63849 0.44972 0.0
C703 C 0.37056 0.69332 0.40513 0.0
C704 C 0.35224 0.71254 0.4311 0.0
C705 C 0.3348 0.68486 0.45349 0.0
N706 N 0.37128 0.64779 0.40143 0.0
C707 C 0.3547 0.62045 0.42346 0.0
Co708 Co 0.4996 0.44199 0.88651 0.0
Co709 Co 0.40381 0.40536 0.86162 0.0
O710 O 0.43752 0.44645 0.88674 0.0
C711 C 0.48207 0.4501 0.95368 0.0
O712 O 0.45539 0.4164 0.95177 0.0
C713 C 0.33868 0.46564 0.83443 0.0
O714 O 0.35258 0.45381 0.80729 0.0
O715 O 0.43418 0.42808 0.82448 0.0
O716 O 0.50027 0.42245 0.84258 0.0
H717 H 0.38333 0.29502 0.77609 0.0
H718 H 0.45769 0.52636 0.90561 0.0
O719 O 0.50163 0.46347 0.92993 0.0
H720 H 0.55258 0.56886 0.82062 0.0
H721 H 0.64822 0.49071 0.91281 0.0
H722 H 0.56085 0.37494 0.86286 0.0
H723 H 0.54899 0.49054 0.83832 0.0
H724 H 0.57027 0.49769 0.91163 0.0
O725 O 0.35832 0.45266 0.85829 0.0
H726 H 0.42404 0.34548 0.80955 0.0
H727 H 0.31202 0.37828 0.85889 0.0
H728 H 0.63871 0.36682 0.86332 0.0
H729 H 0.46063 0.60525 0.88885 0.0
H730 H 0.68296 0.425 0.88843 0.0
H731 H 0.50829 0.62691 0.84602 0.0
O732 O 0.49508 0.37798 0.89994 0.0
H733 H 0.33284 0.42179 0.96397 0.0
H734 H 0.38285 0.31426 0.88619 0.0
H735 H 0.34975 0.2861 0.93351 0.0
H736 H 0.32431 0.34002 0.97277 0.0
H737 H 0.36649 0.44852 0.91643 0.0
H738 H 0.27004 0.32825 0.82592 0.0
H739 H 0.30573 0.28614 0.78412 0.0
O740 O 0.44695 0.35658 0.86553 0.0
C741 C 0.47438 0.42608 0.82033 0.0
C742 C 0.36739 0.31325 0.79418 0.0
C743 C 0.30383 0.33191 0.82213 0.0
N744 N 0.37045 0.3652 0.83609 0.0
C745 C 0.39028 0.34197 0.81321 0.0
C746 C 0.32775 0.36033 0.8407 0.0
C747 C 0.32386 0.30828 0.7987 0.0
C748 C 0.47866 0.53558 0.88705 0.0
N749 N 0.5032 0.50387 0.87302 0.0
C750 C 0.48013 0.58028 0.87762 0.0
C751 C 0.50685 0.59241 0.85358 0.0
C752 C 0.53169 0.55985 0.8393 0.0
C753 C 0.52941 0.5155 0.84937 0.0
C754 C 0.62929 0.46517 0.90177 0.0
C755 C 0.57987 0.4005 0.87372 0.0
C756 C 0.58511 0.46887 0.9011 0.0
N757 N 0.56101 0.43687 0.88703 0.0
C758 C 0.62396 0.39567 0.87396 0.0
C759 C 0.64876 0.4283 0.88807 0.0
C760 C 0.475 0.34742 0.88548 0.0
C761 C 0.34361 0.39796 0.94698 0.0
C762 C 0.37191 0.33799 0.90315 0.0
C763 C 0.35314 0.32182 0.9299 0.0
C764 C 0.33888 0.35208 0.95192 0.0
N765 N 0.37617 0.38308 0.89835 0.0
C766 C 0.36256 0.4129 0.91996 0.0
Co767 Co 0.03047 0.56206 0.88298 0.0
Co768 Co 0.11923 0.62416 0.86142 0.0
O769 O 0.09192 0.57469 0.88383 0.0
C770 C 1.00562 0.55896 0.94844 0.0
O771 O 0.97713 0.58944 0.94162 0.0
C772 C 0.16946 0.54327 0.84296 0.0
O773 O 0.13495 0.51877 0.84421 0.0
O774 O 0.08816 0.60812 0.82317 0.0
O775 O 0.02723 0.57636 0.83844 0.0
H776 H 0.11843 0.75947 0.79331 0.0
H777 H 0.08862 0.49407 0.909 0.0
O778 O 0.03216 0.54642 0.92796 0.0
H779 H 0.01966 0.41926 0.82183 0.0
H780 H 0.89886 0.47201 0.90686 0.0
H781 H 0.95556 0.60686 0.85602 0.0
H782 H 1.00152 0.49723 0.83519 0.0
H783 H 0.97553 0.4885 0.90785 0.0
O784 O 0.16808 0.58498 0.84875 0.0
H785 H 0.08668 0.6966 0.82181 0.0
H786 H 0.20857 0.6567 0.85281 0.0
H787 H 0.87867 0.59168 0.85447 0.0
H788 H 0.1072 0.41583 0.89671 0.0
H789 H 0.84984 0.52383 0.88005 0.0
H790 H 0.07272 0.37794 0.85276 0.0
O791 O 0.0171 0.62627 0.89283 0.0
H792 H 0.20442 0.59023 0.95537 0.0
H793 H 0.13961 0.70986 0.89348 0.0
H794 H 0.17797 0.72973 0.94061 0.0
H795 H 0.21081 0.66965 0.97188 0.0
H796 H 0.16537 0.57194 0.90825 0.0
H797 H 0.24172 0.71866 0.82409 0.0
H798 H 0.19653 0.77081 0.79427 0.0
O799 O 0.07266 0.66543 0.87423 0.0
C800 C 0.05138 0.59207 0.81763 0.0
C801 C 0.13849 0.73703 0.80623 0.0
C802 C 0.20766 0.71408 0.8235 0.0
N803 N 0.14566 0.67316 0.83916 0.0
C804 C 0.12065 0.70149 0.82257 0.0
C805 C 0.18871 0.67892 0.83961 0.0
C806 C 0.18229 0.74333 0.80676 0.0
C807 C 0.07303 0.47765 0.8901 0.0
N808 N 0.04383 0.50019 0.87296 0.0
C809 C 0.08388 0.43341 0.88314 0.0
C810 C 0.0646 0.41221 0.85844 0.0
C811 C 0.03487 0.43539 0.84104 0.0
C812 C 0.02486 0.47964 0.84865 0.0
C813 C 0.91102 0.50172 0.89566 0.0
C814 C 0.94325 0.57737 0.86729 0.0
C815 C 0.95441 0.51125 0.89615 0.0
N816 N 0.97002 0.54881 0.88215 0.0
C817 C 0.89969 0.56889 0.86629 0.0
C818 C 0.88354 0.53081 0.88062 0.0
C819 C 0.03631 0.66308 0.887 0.0
C820 C 0.19015 0.61671 0.942 0.0
C821 C 0.15337 0.68354 0.90718 0.0
C822 C 0.17528 0.69499 0.93374 0.0
C823 C 0.19372 0.66127 0.95125 0.0
N824 N 0.14986 0.63978 0.8983 0.0
C825 C 0.16798 0.60655 0.9153 0.0
Co826 Co 0.01485 0.56326 0.62672 0.0
Co827 Co 0.91866 0.60384 0.64894 0.0
O828 O 0.95264 0.56111 0.62525 0.0
C829 C 0.99995 0.5537 0.55931 0.0
O830 O 0.97381 0.58794 0.56057 0.0
C831 C 0.8523 0.54575 0.67682 0.0
O832 O 0.86638 0.55814 0.70373 0.0
O833 O 0.94689 0.58235 0.68718 0.0
O834 O 0.01414 0.58441 0.67045 0.0
H835 H 0.89638 0.71871 0.73151 0.0
H836 H 0.97155 0.47986 0.60731 0.0
O837 O 0.01835 0.54046 0.5835 0.0
H838 H 0.05757 0.43691 0.69649 0.0
H839 H 0.16227 0.50496 0.60606 0.0
H840 H 0.07802 0.62975 0.64836 0.0
H841 H 0.05837 0.51468 0.67744 0.0
H842 H 0.08407 0.50233 0.6053 0.0
O843 O 0.87209 0.55777 0.65268 0.0
H844 H 0.93724 0.66476 0.7007 0.0
H845 H 0.82755 0.63346 0.64893 0.0
H846 H 0.15611 0.63356 0.64998 0.0
H847 H 0.97019 0.40157 0.62541 0.0
H848 H 0.19883 0.57078 0.62874 0.0
H849 H 0.01337 0.37969 0.67034 0.0
O850 O 0.01366 0.62723 0.61261 0.0
H851 H 0.85073 0.58422 0.54612 0.0
H852 H 0.90209 0.6941 0.62165 0.0
H853 H 0.87184 0.72079 0.57313 0.0
H854 H 0.84574 0.66568 0.535 0.0
H855 H 0.88164 0.55894 0.59483 0.0
H856 H 0.78522 0.68666 0.67946 0.0
H857 H 0.81969 0.72997 0.72105 0.0
O858 O 0.96303 0.65118 0.64481 0.0
C859 C 0.98686 0.58413 0.69213 0.0
C860 C 0.88095 0.70008 0.71347 0.0
C861 C 0.8186 0.68208 0.68426 0.0
N862 N 0.88495 0.64589 0.67292 0.0
C863 C 0.90401 0.66949 0.69586 0.0
C864 C 0.84272 0.65185 0.66708 0.0
C865 C 0.83795 0.70636 0.70759 0.0
C866 C 0.99067 0.47051 0.62674 0.0
N867 N 0.0152 0.50175 0.64116 0.0
C868 C 0.98967 0.42617 0.63694 0.0
C869 C 0.01387 0.41393 0.66217 0.0
C870 C 0.03867 0.44602 0.67686 0.0
C871 C 0.0389 0.49003 0.66601 0.0
C872 C 0.14402 0.53241 0.61554 0.0
C873 C 0.09633 0.60211 0.6394 0.0
C874 C 0.09971 0.53114 0.61516 0.0
N875 N 0.07644 0.5655 0.62734 0.0
C876 C 0.14058 0.60455 0.64022 0.0
C877 C 0.16451 0.56935 0.62826 0.0
C878 C 0.99418 0.65855 0.62684 0.0
C879 C 0.8618 0.60856 0.56262 0.0
C880 C 0.89087 0.66986 0.60518 0.0
C881 C 0.8737 0.6852 0.57775 0.0
C882 C 0.85906 0.65427 0.55637 0.0
N883 N 0.89318 0.62496 0.61126 0.0
C884 C 0.87917 0.59445 0.5903 0.0
Co885 Co 0.54067 0.44598 0.63133 0.0
Co886 Co 0.62643 0.39177 0.66203 0.0
O887 O 0.60247 0.4382 0.63524 0.0
C888 C 0.52744 0.45441 0.56466 0.0
O889 O 0.50102 0.42053 0.56726 0.0
C890 C 0.68076 0.47316 0.67193 0.0
O891 O 0.64833 0.49898 0.66566 0.0
O892 O 0.59341 0.41654 0.69717 0.0
O893 O 0.53041 0.42664 0.67477 0.0
H894 H 0.61673 0.27188 0.74222 0.0
H895 H 0.59648 0.52192 0.61408 0.0
O896 O 0.54908 0.46666 0.58784 0.0
H897 H 0.50472 0.58052 0.69631 0.0
H898 H 0.40686 0.52676 0.60018 0.0
H899 H 0.46589 0.3903 0.64711 0.0
H900 H 0.49728 0.50252 0.67863 0.0
H901 H 0.48419 0.51755 0.60569 0.0
O902 O 0.67654 0.43078 0.67249 0.0
H903 H 0.589 0.32988 0.70761 0.0
H904 H 0.71352 0.35621 0.67466 0.0
H905 H 0.38838 0.39808 0.64202 0.0
H906 H 0.60415 0.60059 0.63042 0.0
H907 H 0.35834 0.46677 0.61845 0.0
H908 H 0.55824 0.63031 0.672 0.0
O909 O 0.53581 0.38231 0.61764 0.0
H910 H 0.71854 0.40278 0.56839 0.0
H911 H 0.64151 0.29985 0.63706 0.0
H912 H 0.68113 0.2692 0.59312 0.0
H913 H 0.72001 0.32079 0.5584 0.0
H914 H 0.6785 0.43201 0.6126 0.0
H915 H 0.74265 0.29874 0.7092 0.0
H916 H 0.69409 0.25594 0.7432 0.0
O917 O 0.5788 0.34997 0.65199 0.0
C918 C 0.55328 0.4225 0.69862 0.0
C919 C 0.63823 0.29023 0.7275 0.0
C920 C 0.70888 0.30536 0.70898 0.0
N921 N 0.64954 0.34628 0.68898 0.0
C922 C 0.62269 0.32306 0.70777 0.0
C923 C 0.6922 0.33797 0.68954 0.0
C924 C 0.68163 0.28134 0.72805 0.0
C925 C 0.57582 0.53483 0.63175 0.0
N926 N 0.54631 0.50763 0.64519 0.0
C927 C 0.58057 0.57931 0.64111 0.0
C928 C 0.55489 0.59592 0.66448 0.0
C929 C 0.52492 0.56798 0.67817 0.0
C930 C 0.52105 0.52369 0.66819 0.0
C931 C 0.41954 0.49672 0.61056 0.0
C932 C 0.45311 0.42024 0.6368 0.0
C933 C 0.46332 0.49134 0.61381 0.0
N934 N 0.47962 0.45348 0.62692 0.0
C935 C 0.40917 0.42448 0.63399 0.0
C936 C 0.39234 0.46304 0.62079 0.0
C937 C 0.5507 0.34791 0.63118 0.0
C938 C 0.70182 0.37994 0.5834 0.0
C939 C 0.65842 0.32255 0.62211 0.0
C940 C 0.68082 0.30498 0.59726 0.0
C941 C 0.70262 0.33394 0.5778 0.0
N942 N 0.658 0.36769 0.62757 0.0
C943 C 0.67918 0.3963 0.60852 0.0
C944 C 0.28236 0.00611 0.17894 0.0
C945 C 0.30481 1.00036 0.15136 0.0
C946 C 0.23911 0.01801 0.17897 0.0
C947 C 0.21656 0.02221 0.15145 0.0
H948 H 0.29837 1.00142 0.20056 0.0
H949 H 0.22301 0.0231 0.2006 0.0
S950 S 0.26063 0.00945 0.07327 0.0
N951 N 0.30147 1.0004 0.09598 0.0
N952 N 0.21988 0.0197 0.09604 0.0
C953 C 0.23861 0.01597 0.12383 0.0
C954 C 0.28283 0.00573 0.12378 0.0
C955 C 0.7349 0.0271 0.37164 0.0
C956 C 0.71548 0.99971 0.34957 0.0
C957 C 0.77686 0.04202 0.36806 0.0
C958 C 0.80086 0.0313 0.34183 0.0
H959 H 0.7178 0.03644 0.39219 0.0
H960 H 0.79023 0.06299 0.3858 0.0
S961 S 0.76488 0.9602 0.27738 0.0
N962 N 0.7238 0.96133 0.30094 0.0
N963 N 0.80206 0.99123 0.2935 0.0
C964 C 0.78178 1.00408 0.31949 0.0
C965 C 0.73934 0.98778 0.32357 0.0
C966 C 0.76725 0.9873 0.82256 0.0
C967 C 0.79228 0.99502 0.84858 0.0
C968 C 0.72585 1.00481 0.82037 0.0
C969 C 0.7074 0.02911 0.84463 0.0
H970 H 0.78001 0.96821 0.80357 0.0
H971 H 0.70811 0.99908 0.79959 0.0
S972 S 0.7592 0.05545 0.91872 0.0
N973 N 0.79553 0.02733 0.89938 0.0
N974 N 0.71753 0.0583 0.89608 0.0
C975 C 0.73191 0.03569 0.87118 0.0
C976 C 0.77437 0.01915 0.87294 0.0
C977 C 0.23395 0.99986 0.69093 0.0
C978 C 0.21059 0.00781 0.66414 0.0
C979 C 0.27594 0.01523 0.69397 0.0
C980 C 0.29673 0.03774 0.66992 0.0
H981 H 0.21954 0.98189 0.7098 0.0
H982 H 0.29232 0.00918 0.71528 0.0
S983 S 0.25003 0.06447 0.59421 0.0
N984 N 0.2115 0.03869 0.61285 0.0
N985 N 0.29056 0.06605 0.61796 0.0
C986 C 0.27387 0.0449 0.64271 0.0
C987 C 0.23079 0.03038 0.63999 0.0
C988 C 0.76922 0.47758 0.20161 0.0
C989 C 0.79463 0.48455 0.17561 0.0
C990 C 0.72789 0.4953 0.20343 0.0
C991 C 0.71005 0.51927 0.17888 0.0
H992 H 0.78141 0.45838 0.22065 0.0
H993 H 0.70967 0.48988 0.22413 0.0
S994 S 0.76403 0.54504 0.10528 0.0
N995 N 0.79962 0.51657 0.1249 0.0
N996 N 0.72171 0.54832 0.12751 0.0
C997 C 0.73524 0.52558 0.15251 0.0
C998 C 0.77758 0.50859 0.15109 0.0
C999 C 0.2673 0.51865 0.3196 0.0
C1000 C 0.28447 0.54656 0.34238 0.0
C1001 C 0.22578 0.50155 0.32207 0.0
C1002 C 0.19925 0.51292 0.34687 0.0
H1003 H 0.28631 0.50936 0.29993 0.0
H1004 H 0.21432 0.47923 0.30438 0.0
S1005 S 0.22838 0.58548 0.4124 0.0
N1006 N 0.27125 0.58475 0.39064 0.0
N1007 N 0.19322 0.55386 0.39467 0.0
C1008 C 0.21572 0.54138 0.36951 0.0
C1009 C 0.25829 0.55783 0.36743 0.0
C1010 C 0.23864 0.53208 0.81569 0.0
C1011 C 0.21152 0.52189 0.84029 0.0
C1012 C 0.27987 0.51403 0.81401 0.0
C1013 C 0.29598 0.48666 0.83749 0.0
H1014 H 0.22777 0.55387 0.79755 0.0
H1015 H 0.2994 0.52191 0.79432 0.0
S1016 S 0.23751 0.4523 0.90763 0.0
N1017 N 0.20328 0.4835 0.88868 0.0
N1018 N 0.28106 0.45138 0.88657 0.0
C1019 C 0.26917 0.4773 0.86259 0.0
C1020 C 0.22688 0.49447 0.86373 0.0
C1021 C 0.75148 0.48156 0.69735 0.0
C1022 C 0.72403 0.49218 0.67315 0.0
C1023 C 0.79314 0.49855 0.69823 0.0
C1024 C 0.80937 0.52519 0.67433 0.0
H1025 H 0.74042 0.46059 0.71594 0.0
H1026 H 0.81283 0.49062 0.71772 0.0
S1027 S 0.75068 0.55931 0.60457 0.0
N1028 N 0.71599 0.52962 0.62438 0.0
N1029 N 0.79461 0.55949 0.625 0.0
C1030 C 0.78244 0.53456 0.64946 0.0
C1031 C 0.73969 0.51859 0.64915 0.0
C1032 C 0.03636 0.082 0.28055 0.0
C1033 C 0.9928 0.0878 0.28727 0.0
C1034 C 0.05211 0.08428 0.25058 0.0
C1035 C 0.02517 0.09238 0.22565 0.0
H1036 H 0.05893 0.07549 0.2986 0.0
H1037 H 0.08579 0.07916 0.247 0.0
S1038 S 0.90873 0.11247 0.23046 0.0
N1039 N 0.92314 0.10371 0.26616 0.0
N1040 N 0.95254 0.108 0.20993 0.0
C1041 C 0.98155 0.09887 0.23195 0.0
C1042 C 0.96547 0.09659 0.26262 0.0
C1043 C 0.53131 0.91748 0.23377 0.0
C1044 C 0.48697 0.91773 0.22909 0.0
C1045 C 0.54885 0.91865 0.26313 0.0
C1046 C 0.52294 0.91985 0.28931 0.0
H1047 H 0.55306 0.91665 0.21457 0.0
H1048 H 0.5831 0.91892 0.26519 0.0
S1049 S 0.40469 0.91737 0.28995 0.0
N1050 N 0.41752 0.91709 0.2534 0.0
N1051 N 0.45014 0.91861 0.30849 0.0
C1052 C 0.47845 0.91888 0.28503 0.0
C1053 C 0.4606 0.91797 0.25503 0.0
C1054 C 0.04423 0.92454 0.75497 0.0
C1055 C 0.02137 0.9144 0.72829 0.0
C1056 C 0.02448 0.92474 0.78383 0.0
C1057 C 0.98082 0.9151 0.78741 0.0
H1058 H 0.07764 0.93291 0.7536 0.0
H1059 H 0.0438 0.93283 0.80347 0.0
S1060 S 0.90707 0.88271 0.72515 0.0
N1061 N 0.95287 0.89139 0.70782 0.0
N1062 N 0.91591 0.89292 0.76159 0.0
C1063 C 0.95776 0.90402 0.76099 0.0
C1064 C 0.97794 0.90337 0.73165 0.0
C1065 C 0.53048 0.08554 0.73669 0.0
C1066 C 0.48714 0.09029 0.72909 0.0
C1067 C 0.54432 0.08568 0.76712 0.0
C1068 C 0.51555 0.0909 0.79146 0.0
H1069 H 0.55427 0.08145 0.719 0.0
H1070 H 0.57787 0.08129 0.77152 0.0
S1071 S 0.39887 0.10832 0.7841 0.0
N1072 N 0.41582 0.10247 0.74866 0.0
N1073 N 0.44152 0.10369 0.80557 0.0
C1074 C 0.47218 0.0969 0.78416 0.0
C1075 C 0.45809 0.09635 0.75315 0.0
C1076 C 0.47364 0.58189 0.23828 0.0
C1077 C 0.51774 0.58212 0.23218 0.0
C1078 C 0.45752 0.58497 0.26814 0.0
C1079 C 0.48462 0.58862 0.29347 0.0
H1080 H 0.451 0.57933 0.21981 0.0
H1081 H 0.42341 0.58444 0.2713 0.0
S1082 S 0.60279 0.59294 0.29018 0.0
N1083 N 0.58819 0.5875 0.25424 0.0
N1084 N 0.5583 0.59376 0.31012 0.0
C1085 C 0.52887 0.58946 0.2877 0.0
C1086 C 0.54527 0.58611 0.25723 0.0
C1087 C 0.03769 0.42762 0.25767 0.0
C1088 C 0.01652 0.41011 0.28336 0.0
C1089 C 0.0182 0.4288 0.22884 0.0
C1090 C 0.97658 0.41245 0.22426 0.0
H1091 H 0.06936 0.44135 0.25989 0.0
H1092 H 0.0361 0.44297 0.21002 0.0
S1093 S 0.90836 0.35989 0.28369 0.0
N1094 N 0.95225 0.37359 0.30187 0.0
N1095 N 0.91567 0.37629 0.24809 0.0
C1096 C 0.95536 0.39402 0.24968 0.0
C1097 C 0.97526 0.39272 0.27903 0.0
C1098 C 0.55635 0.42235 0.75599 0.0
C1099 C 0.5319 0.4235 0.7292 0.0
C1100 C 0.53736 0.42327 0.785 0.0
C1101 C 0.49285 0.42542 0.78881 0.0
H1102 H 0.59066 0.42077 0.75469 0.0
H1103 H 0.55814 0.4222 0.80462 0.0
S1104 S 0.41383 0.42764 0.72614 0.0
N1105 N 0.46017 0.42588 0.70852 0.0
N1106 N 0.42477 0.42774 0.76296 0.0
C1107 C 0.46787 0.4263 0.76226 0.0
C1108 C 0.48725 0.42532 0.73258 0.0
C1109 C 0.99536 0.57226 0.77874 0.0
C1110 C 0.03533 0.59142 0.78546 0.0
C1111 C 0.9795 0.57073 0.74875 0.0
C1112 C 1.00296 0.58801 0.72406 0.0
H1113 H 0.97601 0.55798 0.79676 0.0
H1114 H 0.94895 0.55511 0.74485 0.0
S1115 S 0.10741 0.6457 0.72918 0.0
N1116 N 0.09667 0.63062 0.76461 0.0
N1117 N 0.06695 0.62788 0.70868 0.0
C1118 C 0.04242 0.60829 0.73049 0.0
C1119 C 0.05854 0.60996 0.76099 0.0
C1120 C 0.04338 0.24982 0.13438 0.0
C1121 C 0.02246 0.21331 0.12033 0.0
C1122 C 0.02728 0.29349 0.13279 0.0
C1123 C 0.98955 0.30256 0.1172 0.0
H1124 H 0.07163 0.24463 0.14791 0.0
H1125 H 0.04306 0.31971 0.14555 0.0
S1126 S 0.92484 0.22124 0.07339 0.0
N1127 N 0.96361 0.19075 0.08785 0.0
N1128 N 0.9336 0.2731 0.08501 0.0
C1129 C 0.9695 0.2673 0.10159 0.0
C1130 C 0.98592 0.22266 0.10306 0.0
C1131 C 0.49332 0.76884 0.10467 0.0
C1132 C 0.48929 0.79326 0.13205 0.0
C1133 C 0.50329 0.72271 0.10511 0.0
C1134 C 0.50984 0.70017 0.13293 0.0
H1135 H 0.48794 0.78521 0.08295 0.0
H1136 H 0.50678 0.70489 0.08368 0.0
S1137 S 0.50301 0.74939 0.21064 0.0
N1138 N 0.49298 0.79162 0.18744 0.0
N1139 N 0.51103 0.7056 0.1883 0.0
C1140 C 0.50581 0.72445 0.16029 0.0
C1141 C 0.49573 0.77086 0.15984 0.0
C1142 C 0.47379 0.75275 0.37172 0.0
C1143 C 0.48964 0.71968 0.39175 0.0
C1144 C 0.48828 0.797 0.37267 0.0
C1145 C 0.51854 0.81062 0.3941 0.0
H1146 H 0.45073 0.74437 0.35434 0.0
H1147 H 0.47694 0.82025 0.35556 0.0
S1148 S 0.57042 0.73885 0.45195 0.0
N1149 N 0.53768 0.7046 0.43398 0.0
N1150 N 0.56433 0.78849 0.43583 0.0
C1151 C 0.53437 0.77869 0.41464 0.0
C1152 C 0.51996 0.73313 0.41353 0.0
C1153 C 0.05296 0.26074 0.36963 0.0
C1154 C 0.03382 0.29353 0.38851 0.0
C1155 C 0.04113 0.21555 0.37114 0.0
C1156 C 0.01024 0.20092 0.39191 0.0
H1157 H 0.07625 0.27005 0.35254 0.0
H1158 H 0.05482 0.19237 0.35483 0.0
S1159 S 0.95379 0.27092 0.449 0.0
N1160 N 0.98435 0.30677 0.4304 0.0
N1161 N 0.96314 0.22131 0.43359 0.0
C1162 C 0.99239 0.23244 0.41206 0.0
C1163 C 1.00403 0.2788 0.41036 0.0
C1164 C 0.9754 0.71442 0.87803 0.0
C1165 C 0.01427 0.70612 0.89239 0.0
C1166 C 0.95843 0.75784 0.8769 0.0
C1167 C 0.97954 0.79481 0.89026 0.0
H1168 H 0.95917 0.68775 0.86601 0.0
H1169 H 0.92922 0.76247 0.86436 0.0
S1170 S 0.07972 0.78879 0.9345 0.0
N1171 N 0.07123 0.73678 0.92312 0.0
N1172 N 0.03977 0.81849 0.921 0.0
C1173 C 0.01724 0.78617 0.90638 0.0
C1174 C 0.0345 0.74185 0.90739 0.0
C1175 C 0.47228 0.26822 0.86722 0.0
C1176 C 0.48575 0.29923 0.88956 0.0
C1177 C 0.48195 0.22264 0.86941 0.0
C1178 C 0.5046 0.20578 0.89434 0.0
H1179 H 0.45508 0.27924 0.84722 0.0
H1180 H 0.47292 0.20067 0.8508 0.0
S1181 S 0.54636 0.27127 0.95953 0.0
N1182 N 0.5226 0.309 0.93789 0.0
N1183 N 0.54012 0.2226 0.94205 0.0
C1184 C 0.5176 0.2357 0.91722 0.0
C1185 C 0.50827 0.28257 0.91486 0.0
C1186 C 0.48565 0.24563 0.64796 0.0
C1187 C 0.50303 0.21284 0.62823 0.0
C1188 C 0.49952 0.29011 0.6473 0.0
C1189 C 0.53073 0.30399 0.62655 0.0
H1190 H 0.46198 0.23679 0.6649 0.0
H1191 H 0.4869 0.31344 0.66401 0.0
S1192 S 0.58475 0.23349 0.56863 0.0
N1193 N 0.55218 0.19858 0.5863 0.0
N1194 N 0.57768 0.28291 0.58495 0.0
C1195 C 0.54748 0.27248 0.60596 0.0
C1196 C 0.53372 0.22676 0.6068 0.0
C1197 C 0.0296 0.7745 0.60023 0.0
C1198 C 0.03287 0.79768 0.62816 0.0
C1199 C 0.01887 0.72851 0.59956 0.0
C1200 C 0.01092 0.70483 0.62681 0.0
H1201 H 0.03599 0.79176 0.57894 0.0
H1202 H 0.01581 0.71173 0.57774 0.0
S1203 S 0.01514 0.75059 0.7056 0.0
N1204 N 0.02631 0.79368 0.6834 0.0
N1205 N 0.00797 0.70788 0.68224 0.0
C1206 C 0.01443 0.72785 0.6547 0.0
C1207 C 0.02486 0.77414 0.65534 0.0
C1208 C 0.96949 0.00911 0.9848 0.0
C1209 C 0.99681 0.97216 0.98072 0.0
C1210 C 0.97244 0.03708 0.01057 0.0
C1211 C 1.00295 0.02957 0.03348 0.0
H1212 H 0.94555 0.01672 0.96788 0.0
H1213 H 0.95025 0.06466 0.01258 0.0
S1214 S 0.08337 0.93842 0.03345 0.0
N1215 N 0.05614 0.9302 1.00182 0.0
N1216 N 0.06192 0.98285 0.0498 0.0
C1217 C 0.03074 0.99297 0.02958 0.0
C1218 C 0.02759 0.9643 1.00341 0.0
C1219 C 0.53016 0.02518 1.00765 0.0
C1220 C 0.50309 0.02242 0.98227 0.0
C1221 C 0.52254 0.99981 0.03408 0.0
C1222 C 0.48746 0.97052 0.0364 0.0
H1223 H 0.55776 0.04683 1.00709 0.0
H1224 H 0.54455 1.0033 0.05287 0.0
S1225 S 0.4056 0.95238 0.97695 0.0
N1226 N 0.43878 0.98884 0.96161 0.0
N1227 N 0.42472 0.94127 0.01115 0.0
C1228 C 0.45995 0.9676 0.01129 0.0
C1229 C 0.46768 0.99349 0.98434 0.0
C1230 C 0.5288 0.99593 0.53672 0.0
C1231 C 0.51163 0.03962 0.53568 0.0
C1232 C 0.53897 0.9722 0.50996 0.0
C1233 C 0.53259 0.99111 0.48093 0.0
H1234 H 0.53397 0.97946 0.55844 0.0
H1235 H 0.55125 0.93844 0.51213 0.0
S1236 S 0.49168 0.10596 0.46554 0.0
N1237 N 0.49066 0.1016 0.5031 0.0
N1238 N 0.51031 0.05766 0.45293 0.0
C1239 C 0.51651 0.03532 0.47958 0.0
C1240 C 0.50586 0.05933 0.50686 0.0
C1241 C 0.04029 0.96148 0.50642 0.0
C1242 C 0.02999 0.97853 0.53548 0.0
C1243 C 0.03001 0.98503 0.47963 0.0
C1244 C 0.00894 0.02681 0.4806 0.0
H1245 H 0.05599 0.92934 0.50421 0.0
H1246 H 0.03852 0.97 0.45793 0.0
S1247 S 0.97654 0.08757 0.55096 0.0
N1248 N 0.99874 0.04106 0.56352 0.0
N1249 N 0.97923 0.08474 0.51337 0.0
C1250 C 0.99888 0.04456 0.50951 0.0
C1251 C 0.00947 0.02065 0.53682 0.0
C1252 C 0.52315 0.53621 0.01099 0.0
C1253 C 0.50729 0.52091 0.03919 0.0
C1254 C 0.51469 0.51315 0.98368 0.0
C1255 C 0.48997 0.47365 0.98324 0.0
H1256 H 0.54215 0.56643 0.00987 0.0
H1257 H 0.52764 0.52672 0.96269 0.0
S1258 S 0.44218 0.41815 0.05098 0.0
N1259 N 0.46656 0.46256 0.06498 0.0
N1260 N 0.45047 0.4198 0.01376 0.0
C1261 C 0.47408 0.45778 0.01127 0.0
C1262 C 0.4828 0.48119 0.03915 0.0
C1263 C 0.02403 0.46977 0.00952 0.0
C1264 C 0.99364 0.47989 0.03222 0.0
C1265 C 0.02829 0.49599 0.98302 0.0
C1266 C 1.00237 0.5337 0.97788 0.0
H1267 H 0.04511 0.44138 0.01221 0.0
H1268 H 0.05198 0.48622 0.96631 0.0
S1269 S 0.91776 0.5752 0.03017 0.0
N1270 N 0.93706 0.53067 0.04759 0.0
N1271 N 0.94509 0.57992 0.99812 0.0
C1272 C 0.97183 0.54434 1.00041 0.0
C1273 C 0.96743 0.51749 0.0274 0.0
C1274 C 0.03501 0.49131 0.52969 0.0
C1275 C 0.00836 0.52939 0.52997 0.0
C1276 C 0.04349 0.46736 0.50267 0.0
C1277 C 0.02565 0.48019 0.47459 0.0
H1278 H 0.04946 0.47955 0.55062 0.0
H1279 H 0.06392 0.43823 0.50395 0.0
S1280 S 0.95503 0.57851 0.4623 0.0
N1281 N 0.965 0.57934 0.49927 0.0
N1282 N 0.98102 0.53483 0.44865 0.0
C1283 C 0.99932 0.51856 0.47442 0.0
C1284 C 0.99067 0.54295 0.50199 0.0
C1285 C 0.49428 0.47577 0.5147 0.0
C1286 C 0.52559 0.48355 0.53698 0.0
C1287 C 0.48914 0.50459 0.48967 0.0
C1288 C 0.51504 0.54267 0.48568 0.0
H1289 H 0.47299 0.4474 0.5167 0.0
H1290 H 0.4646 0.49671 0.47326 0.0
S1291 S 0.60282 0.57775 0.53694 0.0
N1292 N 0.58371 0.53185 0.55288 0.0
N1293 N 0.57392 0.58611 0.50611 0.0
C1294 C 0.5467 0.55081 0.50768 0.0
C1295 C 0.55204 0.52127 0.53317 0.0
loop_
_geom_bond_atom_site_label_1
_geom_bond_atom_site_label_2
_geom_bond_distance
_geom_bond_site_symmetry_2
_ccdc_geom_bond_type
Co0 O2 2.143 . S
Co0 O8 2.074 . S
Co0 O11 2.093 1_455 S
Co0 O24 2.097 . S
Co0 N41 2.151 1_445 S
Co0 N49 2.214 1_455 S
Co1 O2 2.160 . S
Co1 O7 2.058 . S
Co1 O17 2.057 . S
Co1 O32 2.037 . S
Co1 N36 2.145 . S
Co1 N57 2.257 . S
O2 Co0 2.143 . S
O2 Co1 2.160 . S
C3 O4 1.278 . S
C3 O11 1.224 1_455 S
O4 C3 1.278 . S
C5 O6 1.245 1_545 S
C5 O17 1.232 . S
O6 C5 1.245 1_565 S
O7 Co1 2.058 . S
O7 C33 1.269 . S
O8 Co0 2.074 . S
O8 C33 1.257 . S
H9 C34 0.930 . S
H10 C40 0.930 . S
O11 Co0 2.093 1_655 S
O11 C3 1.224 1_655 S
H12 C44 0.929 . S
H13 C46 0.930 . S
H14 C47 0.930 . S
H15 C45 0.929 . S
H16 C48 0.928 . S
O17 Co1 2.057 . S
O17 C5 1.232 . S
H18 C37 0.929 . S
H19 C38 0.929 . S
H20 C50 0.931 . S
H21 C42 0.929 . S
H22 C51 0.930 . S
H23 C43 0.931 . S
O24 Co0 2.097 . S
O24 C52 1.214 . S
H25 C53 0.929 . S
H26 C54 0.929 . S
H27 C55 0.930 . S
H28 C56 0.929 . S
H29 C58 0.930 . S
H30 C35 0.930 . S
H31 C39 0.930 . S
O32 Co1 2.037 . S
O32 C52 1.234 . S
C33 O7 1.269 . S
C33 O8 1.257 . S
C34 H9 0.930 . S
C34 C37 1.388 . S
C34 C39 1.418 . S
C35 H30 0.930 . S
C35 C38 1.404 . S
C35 C39 1.353 . S
N36 Co1 2.145 . S
N36 C37 1.397 . S
N36 C38 1.334 . S
C37 H18 0.929 . S
C37 C34 1.388 . S
C37 N36 1.397 . S
C38 H19 0.929 . S
C38 C35 1.404 . S
C38 N36 1.334 . S
C39 H31 0.930 . S
C39 C34 1.418 . S
C39 C35 1.353 . S
C40 H10 0.930 . S
C40 N41 1.330 1_455 S
C40 C42 1.446 . S
N41 Co0 2.151 1_665 S
N41 C40 1.330 1_655 S
N41 C45 1.418 . S
C42 H21 0.929 . S
C42 C40 1.446 . S
C42 C43 1.332 1_455 S
C43 H23 0.931 . S
C43 C42 1.332 1_655 S
C43 C44 1.267 . S
C44 H12 0.929 . S
C44 C43 1.267 . S
C44 C45 1.251 . S
C45 H15 0.929 . S
C45 N41 1.418 . S
C45 C44 1.251 . S
C46 H13 0.930 . S
C46 C48 1.406 . S
C46 C51 1.261 . S
C47 H14 0.930 . S
C47 N49 1.325 . S
C47 C50 1.357 . S
C48 H16 0.928 . S
C48 C46 1.406 . S
C48 N49 1.261 . S
N49 Co0 2.214 1_655 S
N49 C47 1.325 . S
N49 C48 1.261 . S
C50 H20 0.931 . S
C50 C47 1.357 . S
C50 C51 1.312 . S
C51 H22 0.930 . S
C51 C46 1.261 . S
C51 C50 1.312 . S
C52 O24 1.214 . S
C52 O32 1.234 . S
C53 H25 0.929 . S
C53 C56 1.391 . S
C53 C58 1.391 . S
C54 H26 0.929 . S
C54 C55 1.390 . S
C54 N57 1.391 . S
C55 H27 0.930 . S
C55 C54 1.390 . S
C55 C56 1.392 . S
C56 H28 0.929 . S
C56 C53 1.391 . S
C56 C55 1.392 . S
N57 Co1 2.257 . S
N57 C54 1.391 . S
N57 C58 1.388 . S
C58 H29 0.930 . S
C58 C53 1.391 . S
C58 N57 1.388 . S
Co59 O61 2.143 . S
Co59 O67 2.074 . S
Co59 O70 2.093 . S
Co59 O83 2.097 . S
Co59 N100 2.151 1_565 S
Co59 N108 2.214 . S
Co60 O61 2.160 . S
Co60 O66 2.058 . S
Co60 O76 2.057 . S
Co60 O91 2.037 . S
Co60 N95 2.145 . S
Co60 N116 2.257 . S
O61 Co59 2.143 . S
O61 Co60 2.160 . S
C62 O63 1.278 . S
C62 O70 1.224 . S
O63 C62 1.278 . S
C64 O65 1.245 1_565 S
C64 O76 1.232 . S
O65 C64 1.245 1_545 S
O66 Co60 2.058 . S
O66 C92 1.269 . S
O67 Co59 2.074 . S
O67 C92 1.257 . S
H68 C93 0.930 . S
H69 C99 0.930 . S
O70 Co59 2.093 . S
O70 C62 1.224 . S
H71 C103 0.929 . S
H72 C105 0.930 . S
H73 C106 0.930 . S
H74 C104 0.929 . S
H75 C107 0.928 . S
O76 Co60 2.057 . S
O76 C64 1.232 . S
H77 C96 0.929 . S
H78 C97 0.929 . S
H79 C109 0.931 . S
H80 C101 0.929 . S
H81 C110 0.930 . S
H82 C102 0.931 . S
O83 Co59 2.097 . S
O83 C111 1.214 . S
H84 C112 0.929 . S
H85 C113 0.929 . S
H86 C114 0.930 . S
H87 C115 0.929 . S
H88 C117 0.930 . S
H89 C94 0.930 . S
H90 C98 0.930 . S
O91 Co60 2.037 . S
O91 C111 1.234 . S
C92 O66 1.269 . S
C92 O67 1.257 . S
C93 H68 0.930 . S
C93 C96 1.388 . S
C93 C98 1.418 . S
C94 H89 0.930 . S
C94 C97 1.404 . S
C94 C98 1.353 . S
N95 Co60 2.145 . S
N95 C96 1.397 . S
N95 C97 1.334 . S
C96 H77 0.929 . S
C96 C93 1.388 . S
C96 N95 1.397 . S
C97 H78 0.929 . S
C97 C94 1.404 . S
C97 N95 1.334 . S
C98 H90 0.930 . S
C98 C93 1.418 . S
C98 C94 1.353 . S
C99 H69 0.930 . S
C99 N100 1.330 . S
C99 C101 1.446 . S
N100 Co59 2.151 1_545 S
N100 C99 1.330 . S
N100 C104 1.418 . S
C101 H80 0.929 . S
C101 C99 1.446 . S
C101 C102 1.332 . S
C102 H82 0.931 . S
C102 C101 1.332 . S
C102 C103 1.267 . S
C103 H71 0.929 . S
C103 C102 1.267 . S
C103 C104 1.251 . S
C104 H74 0.929 . S
C104 N100 1.418 . S
C104 C103 1.251 . S
C105 H72 0.930 . S
C105 C107 1.406 . S
C105 C110 1.261 . S
C106 H73 0.930 . S
C106 N108 1.325 . S
C106 C109 1.357 . S
C107 H75 0.928 . S
C107 C105 1.406 . S
C107 N108 1.261 . S
N108 Co59 2.214 . S
N108 C106 1.325 . S
N108 C107 1.261 . S
C109 H79 0.931 . S
C109 C106 1.357 . S
C109 C110 1.312 . S
C110 H81 0.930 . S
C110 C105 1.261 . S
C110 C109 1.312 . S
C111 O83 1.214 . S
C111 O91 1.234 . S
C112 H84 0.929 . S
C112 C115 1.391 . S
C112 C117 1.391 . S
C113 H85 0.929 . S
C113 C114 1.390 . S
C113 N116 1.391 . S
C114 H86 0.930 . S
C114 C113 1.390 . S
C114 C115 1.392 . S
C115 H87 0.929 . S
C115 C112 1.391 . S
C115 C114 1.392 . S
N116 Co60 2.257 . S
N116 C113 1.391 . S
N116 C117 1.388 . S
C117 H88 0.930 . S
C117 C112 1.391 . S
C117 N116 1.388 . S
Co118 O120 2.143 . S
Co118 O126 2.074 . S
Co118 O129 2.093 . S
Co118 O142 2.097 . S
Co118 N159 2.151 1_565 S
Co118 N167 2.214 . S
Co119 O120 2.160 . S
Co119 O125 2.058 . S
Co119 O135 2.057 . S
Co119 O150 2.037 . S
Co119 N154 2.145 . S
Co119 N175 2.257 . S
O120 Co118 2.143 . S
O120 Co119 2.160 . S
C121 O122 1.278 . S
C121 O129 1.224 . S
O122 C121 1.278 . S
C123 O124 1.245 1_565 S
C123 O135 1.232 . S
O124 C123 1.245 1_545 S
O125 Co119 2.058 . S
O125 C151 1.269 . S
O126 Co118 2.074 . S
O126 C151 1.257 . S
H127 C152 0.930 . S
H128 C158 0.930 . S
O129 Co118 2.093 . S
O129 C121 1.224 . S
H130 C162 0.929 . S
H131 C164 0.930 . S
H132 C165 0.930 . S
H133 C163 0.929 . S
H134 C166 0.928 . S
O135 Co119 2.057 . S
O135 C123 1.232 . S
H136 C155 0.929 . S
H137 C156 0.929 . S
H138 C168 0.931 . S
H139 C160 0.929 . S
H140 C169 0.930 . S
H141 C161 0.931 . S
O142 Co118 2.097 . S
O142 C170 1.214 . S
H143 C171 0.929 . S
H144 C172 0.929 . S
H145 C173 0.930 . S
H146 C174 0.929 . S
H147 C176 0.930 . S
H148 C153 0.930 . S
H149 C157 0.930 . S
O150 Co119 2.037 . S
O150 C170 1.234 . S
C151 O125 1.269 . S
C151 O126 1.257 . S
C152 H127 0.930 . S
C152 C155 1.388 . S
C152 C157 1.418 . S
C153 H148 0.930 . S
C153 C156 1.404 . S
C153 C157 1.353 . S
N154 Co119 2.145 . S
N154 C155 1.397 . S
N154 C156 1.334 . S
C155 H136 0.929 . S
C155 C152 1.388 . S
C155 N154 1.397 . S
C156 H137 0.929 . S
C156 C153 1.404 . S
C156 N154 1.334 . S
C157 H149 0.930 . S
C157 C152 1.418 . S
C157 C153 1.353 . S
C158 H128 0.930 . S
C158 N159 1.330 . S
C158 C160 1.446 . S
N159 Co118 2.151 1_545 S
N159 C158 1.330 . S
N159 C163 1.418 . S
C160 H139 0.929 . S
C160 C158 1.446 . S
C160 C161 1.332 . S
C161 H141 0.931 . S
C161 C160 1.332 . S
C161 C162 1.267 . S
C162 H130 0.929 . S
C162 C161 1.267 . S
C162 C163 1.251 . S
C163 H133 0.929 . S
C163 N159 1.418 . S
C163 C162 1.251 . S
C164 H131 0.930 . S
C164 C166 1.406 . S
C164 C169 1.261 . S
C165 H132 0.930 . S
C165 N167 1.325 . S
C165 C168 1.357 . S
C166 H134 0.928 . S
C166 C164 1.406 . S
C166 N167 1.261 . S
N167 Co118 2.214 . S
N167 C165 1.325 . S
N167 C166 1.261 . S
C168 H138 0.931 . S
C168 C165 1.357 . S
C168 C169 1.312 . S
C169 H140 0.930 . S
C169 C164 1.261 . S
C169 C168 1.312 . S
C170 O142 1.214 . S
C170 O150 1.234 . S
C171 H143 0.929 . S
C171 C174 1.391 . S
C171 C176 1.391 . S
C172 H144 0.929 . S
C172 C173 1.390 . S
C172 N175 1.391 . S
C173 H145 0.930 . S
C173 C172 1.390 . S
C173 C174 1.392 . S
C174 H146 0.929 . S
C174 C171 1.391 . S
C174 C173 1.392 . S
N175 Co119 2.257 . S
N175 C172 1.391 . S
N175 C176 1.388 . S
C176 H147 0.930 . S
C176 C171 1.391 . S
C176 N175 1.388 . S
Co177 O179 2.143 . S
Co177 O185 2.074 . S
Co177 O188 2.093 1_655 S
Co177 O201 2.097 . S
Co177 N218 2.151 1_645 S
Co177 N226 2.214 1_655 S
Co178 O179 2.160 . S
Co178 O184 2.058 . S
Co178 O194 2.057 . S
Co178 O209 2.037 . S
Co178 N213 2.145 . S
Co178 N234 2.257 . S
O179 Co177 2.143 . S
O179 Co178 2.160 . S
C180 O181 1.278 . S
C180 O188 1.224 1_655 S
O181 C180 1.278 . S
C182 O183 1.245 1_545 S
C182 O194 1.232 . S
O183 C182 1.245 1_565 S
O184 Co178 2.058 . S
O184 C210 1.269 . S
O185 Co177 2.074 . S
O185 C210 1.257 . S
H186 C211 0.930 . S
H187 C217 0.930 . S
O188 Co177 2.093 1_455 S
O188 C180 1.224 1_455 S
H189 C221 0.929 . S
H190 C223 0.930 . S
H191 C224 0.930 . S
H192 C222 0.929 . S
H193 C225 0.928 . S
O194 Co178 2.057 . S
O194 C182 1.232 . S
H195 C214 0.929 . S
H196 C215 0.929 . S
H197 C227 0.931 . S
H198 C219 0.929 . S
H199 C228 0.930 . S
H200 C220 0.931 . S
O201 Co177 2.097 . S
O201 C229 1.214 . S
H202 C230 0.929 . S
H203 C231 0.929 . S
H204 C232 0.930 . S
H205 C233 0.929 . S
H206 C235 0.930 . S
H207 C212 0.930 . S
H208 C216 0.930 . S
O209 Co178 2.037 . S
O209 C229 1.234 . S
C210 O184 1.269 . S
C210 O185 1.257 . S
C211 H186 0.930 . S
C211 C214 1.388 . S
C211 C216 1.418 . S
C212 H207 0.930 . S
C212 C215 1.404 . S
C212 C216 1.353 . S
N213 Co178 2.145 . S
N213 C214 1.397 . S
N213 C215 1.334 . S
C214 H195 0.929 . S
C214 C211 1.388 . S
C214 N213 1.397 . S
C215 H196 0.929 . S
C215 C212 1.404 . S
C215 N213 1.334 . S
C216 H208 0.930 . S
C216 C211 1.418 . S
C216 C212 1.353 . S
C217 H187 0.930 . S
C217 N218 1.330 1_655 S
C217 C219 1.446 . S
N218 Co177 2.151 1_465 S
N218 C217 1.330 1_455 S
N218 C222 1.418 . S
C219 H198 0.929 . S
C219 C217 1.446 . S
C219 C220 1.332 1_655 S
C220 H200 0.931 . S
C220 C219 1.332 1_455 S
C220 C221 1.267 . S
C221 H189 0.929 . S
C221 C220 1.267 . S
C221 C222 1.251 . S
C222 H192 0.929 . S
C222 N218 1.418 . S
C222 C221 1.251 . S
C223 H190 0.930 . S
C223 C225 1.406 . S
C223 C228 1.261 . S
C224 H191 0.930 . S
C224 N226 1.325 . S
C224 C227 1.357 . S
C225 H193 0.928 . S
C225 C223 1.406 . S
C225 N226 1.261 . S
N226 Co177 2.214 1_455 S
N226 C224 1.325 . S
N226 C225 1.261 . S
C227 H197 0.931 . S
C227 C224 1.357 . S
C227 C228 1.312 . S
C228 H199 0.930 . S
C228 C223 1.261 . S
C228 C227 1.312 . S
C229 O201 1.214 . S
C229 O209 1.234 . S
C230 H202 0.929 . S
C230 C233 1.391 . S
C230 C235 1.391 . S
C231 H203 0.929 . S
C231 C232 1.390 . S
C231 N234 1.391 . S
C232 H204 0.930 . S
C232 C231 1.390 . S
C232 C233 1.392 . S
C233 H205 0.929 . S
C233 C230 1.391 . S
C233 C232 1.392 . S
N234 Co178 2.257 . S
N234 C231 1.391 . S
N234 C235 1.388 . S
C235 H206 0.930 . S
C235 C230 1.391 . S
C235 N234 1.388 . S
Co236 O238 2.143 . S
Co236 O244 2.074 . S
Co236 O247 2.093 1_655 S
Co236 O260 2.097 . S
Co236 N277 2.151 1_665 S
Co236 N285 2.214 1_655 S
Co237 O238 2.160 . S
Co237 O243 2.058 . S
Co237 O253 2.057 . S
Co237 O268 2.037 . S
Co237 N272 2.145 . S
Co237 N293 2.257 . S
O238 Co236 2.143 . S
O238 Co237 2.160 . S
C239 O240 1.278 . S
C239 O247 1.224 1_655 S
O240 C239 1.278 . S
C241 O242 1.245 1_565 S
C241 O253 1.232 . S
O242 C241 1.245 1_545 S
O243 Co237 2.058 . S
O243 C269 1.269 . S
O244 Co236 2.074 . S
O244 C269 1.257 . S
H245 C270 0.930 . S
H246 C276 0.930 . S
O247 Co236 2.093 1_455 S
O247 C239 1.224 1_455 S
H248 C280 0.929 . S
H249 C282 0.930 . S
H250 C283 0.930 . S
H251 C281 0.929 . S
H252 C284 0.928 . S
O253 Co237 2.057 . S
O253 C241 1.232 . S
H254 C273 0.929 . S
H255 C274 0.929 . S
H256 C286 0.931 . S
H257 C278 0.929 . S
H258 C287 0.930 . S
H259 C279 0.931 . S
O260 Co236 2.097 . S
O260 C288 1.214 . S
H261 C289 0.929 . S
H262 C290 0.929 . S
H263 C291 0.930 . S
H264 C292 0.929 . S
H265 C294 0.930 . S
H266 C271 0.930 . S
H267 C275 0.930 . S
O268 Co237 2.037 . S
O268 C288 1.234 . S
C269 O243 1.269 . S
C269 O244 1.257 . S
C270 H245 0.930 . S
C270 C273 1.388 . S
C270 C275 1.418 . S
C271 H266 0.930 . S
C271 C274 1.404 . S
C271 C275 1.353 . S
N272 Co237 2.145 . S
N272 C273 1.397 . S
N272 C274 1.334 . S
C273 H254 0.929 . S
C273 C270 1.388 . S
C273 N272 1.397 . S
C274 H255 0.929 . S
C274 C271 1.404 . S
C274 N272 1.334 . S
C275 H267 0.930 . S
C275 C270 1.418 . S
C275 C271 1.353 . S
C276 H246 0.930 . S
C276 N277 1.330 1_655 S
C276 C278 1.446 . S
N277 Co236 2.151 1_445 S
N277 C276 1.330 1_455 S
N277 C281 1.418 . S
C278 H257 0.929 . S
C278 C276 1.446 . S
C278 C279 1.332 1_655 S
C279 H259 0.931 . S
C279 C278 1.332 1_455 S
C279 C280 1.267 . S
C280 H248 0.929 . S
C280 C279 1.267 . S
C280 C281 1.251 . S
C281 H251 0.929 . S
C281 N277 1.418 . S
C281 C280 1.251 . S
C282 H249 0.930 . S
C282 C284 1.406 . S
C282 C287 1.261 . S
C283 H250 0.930 . S
C283 N285 1.325 . S
C283 C286 1.357 . S
C284 H252 0.928 . S
C284 C282 1.406 . S
C284 N285 1.261 . S
N285 Co236 2.214 1_455 S
N285 C283 1.325 . S
N285 C284 1.261 . S
C286 H256 0.931 . S
C286 C283 1.357 . S
C286 C287 1.312 . S
C287 H258 0.930 . S
C287 C282 1.261 . S
C287 C286 1.312 . S
C288 O260 1.214 . S
C288 O268 1.234 . S
C289 H261 0.929 . S
C289 C292 1.391 . S
C289 C294 1.391 . S
C290 H262 0.929 . S
C290 C291 1.390 . S
C290 N293 1.391 . S
C291 H263 0.930 . S
C291 C290 1.390 . S
C291 C292 1.392 . S
C292 H264 0.929 . S
C292 C289 1.391 . S
C292 C291 1.392 . S
N293 Co237 2.257 . S
N293 C290 1.391 . S
N293 C294 1.388 . S
C294 H265 0.930 . S
C294 C289 1.391 . S
C294 N293 1.388 . S
Co295 O297 2.143 . S
Co295 O303 2.074 . S
Co295 O306 2.093 . S
Co295 O319 2.097 . S
Co295 N336 2.151 1_545 S
Co295 N344 2.214 . S
Co296 O297 2.160 . S
Co296 O302 2.058 . S
Co296 O312 2.057 . S
Co296 O327 2.037 . S
Co296 N331 2.145 . S
Co296 N352 2.257 . S
O297 Co295 2.143 . S
O297 Co296 2.160 . S
C298 O299 1.278 . S
C298 O306 1.224 . S
O299 C298 1.278 . S
C300 O301 1.245 1_545 S
C300 O312 1.232 . S
O301 C300 1.245 1_565 S
O302 Co296 2.058 . S
O302 C328 1.269 . S
O303 Co295 2.074 . S
O303 C328 1.257 . S
H304 C329 0.930 . S
H305 C335 0.930 . S
O306 Co295 2.093 . S
O306 C298 1.224 . S
H307 C339 0.929 . S
H308 C341 0.930 . S
H309 C342 0.930 . S
H310 C340 0.929 . S
H311 C343 0.928 . S
O312 Co296 2.057 . S
O312 C300 1.232 . S
H313 C332 0.929 . S
H314 C333 0.929 . S
H315 C345 0.931 . S
H316 C337 0.929 . S
H317 C346 0.930 . S
H318 C338 0.931 . S
O319 Co295 2.097 . S
O319 C347 1.214 . S
H320 C348 0.929 . S
H321 C349 0.929 . S
H322 C350 0.930 . S
H323 C351 0.929 . S
H324 C353 0.930 . S
H325 C330 0.930 . S
H326 C334 0.930 . S
O327 Co296 2.037 . S
O327 C347 1.234 . S
C328 O302 1.269 . S
C328 O303 1.257 . S
C329 H304 0.930 . S
C329 C332 1.388 . S
C329 C334 1.418 . S
C330 H325 0.930 . S
C330 C333 1.404 . S
C330 C334 1.353 . S
N331 Co296 2.145 . S
N331 C332 1.397 . S
N331 C333 1.334 . S
C332 H313 0.929 . S
C332 C329 1.388 . S
C332 N331 1.397 . S
C333 H314 0.929 . S
C333 C330 1.404 . S
C333 N331 1.334 . S
C334 H326 0.930 . S
C334 C329 1.418 . S
C334 C330 1.353 . S
C335 H305 0.930 . S
C335 N336 1.330 . S
C335 C337 1.446 . S
N336 Co295 2.151 1_565 S
N336 C335 1.330 . S
N336 C340 1.418 . S
C337 H316 0.929 . S
C337 C335 1.446 . S
C337 C338 1.332 . S
C338 H318 0.931 . S
C338 C337 1.332 . S
C338 C339 1.267 . S
C339 H307 0.929 . S
C339 C338 1.267 . S
C339 C340 1.251 . S
C340 H310 0.929 . S
C340 N336 1.418 . S
C340 C339 1.251 . S
C341 H308 0.930 . S
C341 C343 1.406 . S
C341 C346 1.261 . S
C342 H309 0.930 . S
C342 N344 1.325 . S
C342 C345 1.357 . S
C343 H311 0.928 . S
C343 C341 1.406 . S
C343 N344 1.261 . S
N344 Co295 2.214 . S
N344 C342 1.325 . S
N344 C343 1.261 . S
C345 H315 0.931 . S
C345 C342 1.357 . S
C345 C346 1.312 . S
C346 H317 0.930 . S
C346 C341 1.261 . S
C346 C345 1.312 . S
C347 O319 1.214 . S
C347 O327 1.234 . S
C348 H320 0.929 . S
C348 C351 1.391 . S
C348 C353 1.391 . S
C349 H321 0.929 . S
C349 C350 1.390 . S
C349 N352 1.391 . S
C350 H322 0.930 . S
C350 C349 1.390 . S
C350 C351 1.392 . S
C351 H323 0.929 . S
C351 C348 1.391 . S
C351 C350 1.392 . S
N352 Co296 2.257 . S
N352 C349 1.391 . S
N352 C353 1.388 . S
C353 H324 0.930 . S
C353 C348 1.391 . S
C353 N352 1.388 . S
Co354 O356 2.143 . S
Co354 O362 2.074 . S
Co354 O365 2.093 . S
Co354 O378 2.097 . S
Co354 N395 2.151 1_545 S
Co354 N403 2.214 . S
Co355 O356 2.160 . S
Co355 O361 2.058 . S
Co355 O371 2.057 . S
Co355 O386 2.037 . S
Co355 N390 2.145 . S
Co355 N411 2.257 . S
O356 Co354 2.143 . S
O356 Co355 2.160 . S
C357 O358 1.278 . S
C357 O365 1.224 . S
O358 C357 1.278 . S
C359 O360 1.245 1_545 S
C359 O371 1.232 . S
O360 C359 1.245 1_565 S
O361 Co355 2.058 . S
O361 C387 1.269 . S
O362 Co354 2.074 . S
O362 C387 1.257 . S
H363 C388 0.930 . S
H364 C394 0.930 . S
O365 Co354 2.093 . S
O365 C357 1.224 . S
H366 C398 0.929 . S
H367 C400 0.930 . S
H368 C401 0.930 . S
H369 C399 0.929 . S
H370 C402 0.928 . S
O371 Co355 2.057 . S
O371 C359 1.232 . S
H372 C391 0.929 . S
H373 C392 0.929 . S
H374 C404 0.931 . S
H375 C396 0.929 . S
H376 C405 0.930 . S
H377 C397 0.931 . S
O378 Co354 2.097 . S
O378 C406 1.214 . S
H379 C407 0.929 . S
H380 C408 0.929 . S
H381 C409 0.930 . S
H382 C410 0.929 . S
H383 C412 0.930 . S
H384 C389 0.930 . S
H385 C393 0.930 . S
O386 Co355 2.037 . S
O386 C406 1.234 . S
C387 O361 1.269 . S
C387 O362 1.257 . S
C388 H363 0.930 . S
C388 C391 1.388 . S
C388 C393 1.418 . S
C389 H384 0.930 . S
C389 C392 1.404 . S
C389 C393 1.353 . S
N390 Co355 2.145 . S
N390 C391 1.397 . S
N390 C392 1.334 . S
C391 H372 0.929 . S
C391 C388 1.388 . S
C391 N390 1.397 . S
C392 H373 0.929 . S
C392 C389 1.404 . S
C392 N390 1.334 . S
C393 H385 0.930 . S
C393 C388 1.418 . S
C393 C389 1.353 . S
C394 H364 0.930 . S
C394 N395 1.330 . S
C394 C396 1.446 . S
N395 Co354 2.151 1_565 S
N395 C394 1.330 . S
N395 C399 1.418 . S
C396 H375 0.929 . S
C396 C394 1.446 . S
C396 C397 1.332 . S
C397 H377 0.931 . S
C397 C396 1.332 . S
C397 C398 1.267 . S
C398 H366 0.929 . S
C398 C397 1.267 . S
C398 C399 1.251 . S
C399 H369 0.929 . S
C399 N395 1.418 . S
C399 C398 1.251 . S
C400 H367 0.930 . S
C400 C402 1.406 . S
C400 C405 1.261 . S
C401 H368 0.930 . S
C401 N403 1.325 . S
C401 C404 1.357 . S
C402 H370 0.928 . S
C402 C400 1.406 . S
C402 N403 1.261 . S
N403 Co354 2.214 . S
N403 C401 1.325 . S
N403 C402 1.261 . S
C404 H374 0.931 . S
C404 C401 1.357 . S
C404 C405 1.312 . S
C405 H376 0.930 . S
C405 C400 1.261 . S
C405 C404 1.312 . S
C406 O378 1.214 . S
C406 O386 1.234 . S
C407 H379 0.929 . S
C407 C410 1.391 . S
C407 C412 1.391 . S
C408 H380 0.929 . S
C408 C409 1.390 . S
C408 N411 1.391 . S
C409 H381 0.930 . S
C409 C408 1.390 . S
C409 C410 1.392 . S
C410 H382 0.929 . S
C410 C407 1.391 . S
C410 C409 1.392 . S
N411 Co355 2.257 . S
N411 C408 1.391 . S
N411 C412 1.388 . S
C412 H383 0.930 . S
C412 C407 1.391 . S
C412 N411 1.388 . S
Co413 O415 2.143 . S
Co413 O421 2.074 . S
Co413 O424 2.093 1_455 S
Co413 O437 2.097 . S
Co413 N454 2.151 1_465 S
Co413 N462 2.214 1_455 S
Co414 O415 2.160 . S
Co414 O420 2.058 . S
Co414 O430 2.057 . S
Co414 O445 2.037 . S
Co414 N449 2.145 . S
Co414 N470 2.257 . S
O415 Co413 2.143 . S
O415 Co414 2.160 . S
C416 O417 1.278 . S
C416 O424 1.224 1_455 S
O417 C416 1.278 . S
C418 O419 1.245 1_565 S
C418 O430 1.232 . S
O419 C418 1.245 1_545 S
O420 Co414 2.058 . S
O420 C446 1.269 . S
O421 Co413 2.074 . S
O421 C446 1.257 . S
H422 C447 0.930 . S
H423 C453 0.930 . S
O424 Co413 2.093 1_655 S
O424 C416 1.224 1_655 S
H425 C457 0.929 . S
H426 C459 0.930 . S
H427 C460 0.930 . S
H428 C458 0.929 . S
H429 C461 0.928 . S
O430 Co414 2.057 . S
O430 C418 1.232 . S
H431 C450 0.929 . S
H432 C451 0.929 . S
H433 C463 0.931 . S
H434 C455 0.929 . S
H435 C464 0.930 . S
H436 C456 0.931 . S
O437 Co413 2.097 . S
O437 C465 1.214 . S
H438 C466 0.929 . S
H439 C467 0.929 . S
H440 C468 0.930 . S
H441 C469 0.929 . S
H442 C471 0.930 . S
H443 C448 0.930 . S
H444 C452 0.930 . S
O445 Co414 2.037 . S
O445 C465 1.234 . S
C446 O420 1.269 . S
C446 O421 1.257 . S
C447 H422 0.930 . S
C447 C450 1.388 . S
C447 C452 1.418 . S
C448 H443 0.930 . S
C448 C451 1.404 . S
C448 C452 1.353 . S
N449 Co414 2.145 . S
N449 C450 1.397 . S
N449 C451 1.334 . S
C450 H431 0.929 . S
C450 C447 1.388 . S
C450 N449 1.397 . S
C451 H432 0.929 . S
C451 C448 1.404 . S
C451 N449 1.334 . S
C452 H444 0.930 . S
C452 C447 1.418 . S
C452 C448 1.353 . S
C453 H423 0.930 . S
C453 N454 1.330 1_455 S
C453 C455 1.446 . S
N454 Co413 2.151 1_645 S
N454 C453 1.330 1_655 S
N454 C458 1.418 . S
C455 H434 0.929 . S
C455 C453 1.446 . S
C455 C456 1.332 1_455 S
C456 H436 0.931 . S
C456 C455 1.332 1_655 S
C456 C457 1.267 . S
C457 H425 0.929 . S
C457 C456 1.267 . S
C457 C458 1.251 . S
C458 H428 0.929 . S
C458 N454 1.418 . S
C458 C457 1.251 . S
C459 H426 0.930 . S
C459 C461 1.406 . S
C459 C464 1.261 . S
C460 H427 0.930 . S
C460 N462 1.325 . S
C460 C463 1.357 . S
C461 H429 0.928 . S
C461 C459 1.406 . S
C461 N462 1.261 . S
N462 Co413 2.214 1_655 S
N462 C460 1.325 . S
N462 C461 1.261 . S
C463 H433 0.931 . S
C463 C460 1.357 . S
C463 C464 1.312 . S
C464 H435 0.930 . S
C464 C459 1.261 . S
C464 C463 1.312 . S
C465 O437 1.214 . S
C465 O445 1.234 . S
C466 H438 0.929 . S
C466 C469 1.391 . S
C466 C471 1.391 . S
C467 H439 0.929 . S
C467 C468 1.390 . S
C467 N470 1.391 . S
C468 H440 0.930 . S
C468 C467 1.390 . S
C468 C469 1.392 . S
C469 H441 0.929 . S
C469 C466 1.391 . S
C469 C468 1.392 . S
N470 Co414 2.257 . S
N470 C467 1.391 . S
N470 C471 1.388 . S
C471 H442 0.930 . S
C471 C466 1.391 . S
C471 N470 1.388 . S
Co472 O474 2.143 . S
Co472 O480 2.074 . S
Co472 O483 2.093 . S
Co472 O496 2.097 . S
Co472 N513 2.151 . S
Co472 N521 2.214 . S
Co473 O474 2.160 . S
Co473 O479 2.058 . S
Co473 O489 2.057 . S
Co473 O504 2.037 . S
Co473 N508 2.145 . S
Co473 N529 2.257 . S
O474 Co472 2.143 . S
O474 Co473 2.160 . S
C475 O476 1.278 . S
C475 O483 1.224 . S
O476 C475 1.278 . S
C477 O478 1.245 . S
C477 O489 1.232 . S
O478 C477 1.245 . S
O479 Co473 2.058 . S
O479 C505 1.269 . S
O480 Co472 2.074 . S
O480 C505 1.257 . S
H481 C506 0.930 . S
H482 C512 0.930 . S
O483 Co472 2.093 . S
O483 C475 1.224 . S
H484 C516 0.929 . S
H485 C518 0.930 . S
H486 C519 0.930 . S
H487 C517 0.929 . S
H488 C520 0.928 . S
O489 Co473 2.057 . S
O489 C477 1.232 . S
H490 C509 0.929 . S
H491 C510 0.929 . S
H492 C522 0.931 . S
H493 C514 0.929 . S
H494 C523 0.930 . S
H495 C515 0.931 . S
O496 Co472 2.097 . S
O496 C524 1.214 . S
H497 C525 0.929 . S
H498 C526 0.929 . S
H499 C527 0.930 . S
H500 C528 0.929 . S
H501 C530 0.930 . S
H502 C507 0.930 . S
H503 C511 0.930 . S
O504 Co473 2.037 . S
O504 C524 1.234 . S
C505 O479 1.269 . S
C505 O480 1.257 . S
C506 H481 0.930 . S
C506 C509 1.388 . S
C506 C511 1.418 . S
C507 H502 0.930 . S
C507 C510 1.404 . S
C507 C511 1.353 . S
N508 Co473 2.145 . S
N508 C509 1.397 . S
N508 C510 1.334 . S
C509 H490 0.929 . S
C509 C506 1.388 . S
C509 N508 1.397 . S
C510 H491 0.929 . S
C510 C507 1.404 . S
C510 N508 1.334 . S
C511 H503 0.930 . S
C511 C506 1.418 . S
C511 C507 1.353 . S
C512 H482 0.930 . S
C512 N513 1.330 . S
C512 C514 1.446 . S
N513 Co472 2.151 . S
N513 C512 1.330 . S
N513 C517 1.418 . S
C514 H493 0.929 . S
C514 C512 1.446 . S
C514 C515 1.332 . S
C515 H495 0.931 . S
C515 C514 1.332 . S
C515 C516 1.267 . S
C516 H484 0.929 . S
C516 C515 1.267 . S
C516 C517 1.251 . S
C517 H487 0.929 . S
C517 N513 1.418 . S
C517 C516 1.251 . S
C518 H485 0.930 . S
C518 C520 1.406 . S
C518 C523 1.261 . S
C519 H486 0.930 . S
C519 N521 1.325 . S
C519 C522 1.357 . S
C520 H488 0.928 . S
C520 C518 1.406 . S
C520 N521 1.261 . S
N521 Co472 2.214 . S
N521 C519 1.325 . S
N521 C520 1.261 . S
C522 H492 0.931 . S
C522 C519 1.357 . S
C522 C523 1.312 . S
C523 H494 0.930 . S
C523 C518 1.261 . S
C523 C522 1.312 . S
C524 O496 1.214 . S
C524 O504 1.234 . S
C525 H497 0.929 . S
C525 C528 1.391 . S
C525 C530 1.391 . S
C526 H498 0.929 . S
C526 C527 1.390 . S
C526 N529 1.391 . S
C527 H499 0.930 . S
C527 C526 1.390 . S
C527 C528 1.392 . S
C528 H500 0.929 . S
C528 C525 1.391 . S
C528 C527 1.392 . S
N529 Co473 2.257 . S
N529 C526 1.391 . S
N529 C530 1.388 . S
C530 H501 0.930 . S
C530 C525 1.391 . S
C530 N529 1.388 . S
Co531 O533 2.143 . S
Co531 O539 2.074 . S
Co531 O542 2.093 1_655 S
Co531 O555 2.097 . S
Co531 N572 2.151 1_655 S
Co531 N580 2.214 1_655 S
Co532 O533 2.160 . S
Co532 O538 2.058 . S
Co532 O548 2.057 . S
Co532 O563 2.037 . S
Co532 N567 2.145 . S
Co532 N588 2.257 . S
O533 Co531 2.143 . S
O533 Co532 2.160 . S
C534 O535 1.278 . S
C534 O542 1.224 1_655 S
O535 C534 1.278 . S
C536 O537 1.245 . S
C536 O548 1.232 . S
O537 C536 1.245 . S
O538 Co532 2.058 . S
O538 C564 1.269 . S
O539 Co531 2.074 . S
O539 C564 1.257 . S
H540 C565 0.930 . S
H541 C571 0.930 . S
O542 Co531 2.093 1_455 S
O542 C534 1.224 1_455 S
H543 C575 0.929 . S
H544 C577 0.930 . S
H545 C578 0.930 . S
H546 C576 0.929 . S
H547 C579 0.928 . S
O548 Co532 2.057 . S
O548 C536 1.232 . S
H549 C568 0.929 . S
H550 C569 0.929 . S
H551 C581 0.931 . S
H552 C573 0.929 . S
H553 C582 0.930 . S
H554 C574 0.931 . S
O555 Co531 2.097 . S
O555 C583 1.214 . S
H556 C584 0.929 . S
H557 C585 0.929 . S
H558 C586 0.930 . S
H559 C587 0.929 . S
H560 C589 0.930 . S
H561 C566 0.930 . S
H562 C570 0.930 . S
O563 Co532 2.037 . S
O563 C583 1.234 . S
C564 O538 1.269 . S
C564 O539 1.257 . S
C565 H540 0.930 . S
C565 C568 1.388 . S
C565 C570 1.418 . S
C566 H561 0.930 . S
C566 C569 1.404 . S
C566 C570 1.353 . S
N567 Co532 2.145 . S
N567 C568 1.397 . S
N567 C569 1.334 . S
C568 H549 0.929 . S
C568 C565 1.388 . S
C568 N567 1.397 . S
C569 H550 0.929 . S
C569 C566 1.404 . S
C569 N567 1.334 . S
C570 H562 0.930 . S
C570 C565 1.418 . S
C570 C566 1.353 . S
C571 H541 0.930 . S
C571 N572 1.330 1_655 S
C571 C573 1.446 . S
N572 Co531 2.151 1_455 S
N572 C571 1.330 1_455 S
N572 C576 1.418 . S
C573 H552 0.929 . S
C573 C571 1.446 . S
C573 C574 1.332 1_655 S
C574 H554 0.931 . S
C574 C573 1.332 1_455 S
C574 C575 1.267 . S
C575 H543 0.929 . S
C575 C574 1.267 . S
C575 C576 1.251 . S
C576 H546 0.929 . S
C576 N572 1.418 . S
C576 C575 1.251 . S
C577 H544 0.930 . S
C577 C579 1.406 . S
C577 C582 1.261 . S
C578 H545 0.930 . S
C578 N580 1.325 . S
C578 C581 1.357 . S
C579 H547 0.928 . S
C579 C577 1.406 . S
C579 N580 1.261 . S
N580 Co531 2.214 1_455 S
N580 C578 1.325 . S
N580 C579 1.261 . S
C581 H551 0.931 . S
C581 C578 1.357 . S
C581 C582 1.312 . S
C582 H553 0.930 . S
C582 C577 1.261 . S
C582 C581 1.312 . S
C583 O555 1.214 . S
C583 O563 1.234 . S
C584 H556 0.929 . S
C584 C587 1.391 . S
C584 C589 1.391 . S
C585 H557 0.929 . S
C585 C586 1.390 . S
C585 N588 1.391 . S
C586 H558 0.930 . S
C586 C585 1.390 . S
C586 C587 1.392 . S
C587 H559 0.929 . S
C587 C584 1.391 . S
C587 C586 1.392 . S
N588 Co532 2.257 . S
N588 C585 1.391 . S
N588 C589 1.388 . S
C589 H560 0.930 . S
C589 C584 1.391 . S
C589 N588 1.388 . S
Co590 O592 2.143 . S
Co590 O598 2.074 . S
Co590 O601 2.093 1_455 S
Co590 O614 2.097 . S
Co590 N631 2.151 1_455 S
Co590 N639 2.214 1_455 S
Co591 O592 2.160 . S
Co591 O597 2.058 . S
Co591 O607 2.057 . S
Co591 O622 2.037 . S
Co591 N626 2.145 . S
Co591 N647 2.257 . S
O592 Co590 2.143 . S
O592 Co591 2.160 . S
C593 O594 1.278 . S
C593 O601 1.224 1_455 S
O594 C593 1.278 . S
C595 O596 1.245 . S
C595 O607 1.232 . S
O596 C595 1.245 . S
O597 Co591 2.058 . S
O597 C623 1.269 . S
O598 Co590 2.074 . S
O598 C623 1.257 . S
H599 C624 0.930 . S
H600 C630 0.930 . S
O601 Co590 2.093 1_655 S
O601 C593 1.224 1_655 S
H602 C634 0.929 . S
H603 C636 0.930 . S
H604 C637 0.930 . S
H605 C635 0.929 . S
H606 C638 0.928 . S
O607 Co591 2.057 . S
O607 C595 1.232 . S
H608 C627 0.929 . S
H609 C628 0.929 . S
H610 C640 0.931 . S
H611 C632 0.929 . S
H612 C641 0.930 . S
H613 C633 0.931 . S
O614 Co590 2.097 . S
O614 C642 1.214 . S
H615 C643 0.929 . S
H616 C644 0.929 . S
H617 C645 0.930 . S
H618 C646 0.929 . S
H619 C648 0.930 . S
H620 C625 0.930 . S
H621 C629 0.930 . S
O622 Co591 2.037 . S
O622 C642 1.234 . S
C623 O597 1.269 . S
C623 O598 1.257 . S
C624 H599 0.930 . S
C624 C627 1.388 . S
C624 C629 1.418 . S
C625 H620 0.930 . S
C625 C628 1.404 . S
C625 C629 1.353 . S
N626 Co591 2.145 . S
N626 C627 1.397 . S
N626 C628 1.334 . S
C627 H608 0.929 . S
C627 C624 1.388 . S
C627 N626 1.397 . S
C628 H609 0.929 . S
C628 C625 1.404 . S
C628 N626 1.334 . S
C629 H621 0.930 . S
C629 C624 1.418 . S
C629 C625 1.353 . S
C630 H600 0.930 . S
C630 N631 1.330 1_455 S
C630 C632 1.446 . S
N631 Co590 2.151 1_655 S
N631 C630 1.330 1_655 S
N631 C635 1.418 . S
C632 H611 0.929 . S
C632 C630 1.446 . S
C632 C633 1.332 1_455 S
C633 H613 0.931 . S
C633 C632 1.332 1_655 S
C633 C634 1.267 . S
C634 H602 0.929 . S
C634 C633 1.267 . S
C634 C635 1.251 . S
C635 H605 0.929 . S
C635 N631 1.418 . S
C635 C634 1.251 . S
C636 H603 0.930 . S
C636 C638 1.406 . S
C636 C641 1.261 . S
C637 H604 0.930 . S
C637 N639 1.325 . S
C637 C640 1.357 . S
C638 H606 0.928 . S
C638 C636 1.406 . S
C638 N639 1.261 . S
N639 Co590 2.214 1_655 S
N639 C637 1.325 . S
N639 C638 1.261 . S
C640 H610 0.931 . S
C640 C637 1.357 . S
C640 C641 1.312 . S
C641 H612 0.930 . S
C641 C636 1.261 . S
C641 C640 1.312 . S
C642 O614 1.214 . S
C642 O622 1.234 . S
C643 H615 0.929 . S
C643 C646 1.391 . S
C643 C648 1.391 . S
C644 H616 0.929 . S
C644 C645 1.390 . S
C644 N647 1.391 . S
C645 H617 0.930 . S
C645 C644 1.390 . S
C645 C646 1.392 . S
C646 H618 0.929 . S
C646 C643 1.391 . S
C646 C645 1.392 . S
N647 Co591 2.257 . S
N647 C644 1.391 . S
N647 C648 1.388 . S
C648 H619 0.930 . S
C648 C643 1.391 . S
C648 N647 1.388 . S
Co649 O651 2.143 . S
Co649 O657 2.074 . S
Co649 O660 2.093 . S
Co649 O673 2.097 . S
Co649 N690 2.151 . S
Co649 N698 2.214 . S
Co650 O651 2.160 . S
Co650 O656 2.058 . S
Co650 O666 2.057 . S
Co650 O681 2.037 . S
Co650 N685 2.145 . S
Co650 N706 2.257 . S
O651 Co649 2.143 . S
O651 Co650 2.160 . S
C652 O653 1.278 . S
C652 O660 1.224 . S
O653 C652 1.278 . S
C654 O655 1.245 . S
C654 O666 1.232 . S
O655 C654 1.245 . S
O656 Co650 2.058 . S
O656 C682 1.269 . S
O657 Co649 2.074 . S
O657 C682 1.257 . S
H658 C683 0.930 . S
H659 C689 0.930 . S
O660 Co649 2.093 . S
O660 C652 1.224 . S
H661 C693 0.929 . S
H662 C695 0.930 . S
H663 C696 0.930 . S
H664 C694 0.929 . S
H665 C697 0.928 . S
O666 Co650 2.057 . S
O666 C654 1.232 . S
H667 C686 0.929 . S
H668 C687 0.929 . S
H669 C699 0.931 . S
H670 C691 0.929 . S
H671 C700 0.930 . S
H672 C692 0.931 . S
O673 Co649 2.097 . S
O673 C701 1.214 . S
H674 C702 0.929 . S
H675 C703 0.929 . S
H676 C704 0.930 . S
H677 C705 0.929 . S
H678 C707 0.930 . S
H679 C684 0.930 . S
H680 C688 0.930 . S
O681 Co650 2.037 . S
O681 C701 1.234 . S
C682 O656 1.269 . S
C682 O657 1.257 . S
C683 H658 0.930 . S
C683 C686 1.388 . S
C683 C688 1.418 . S
C684 H679 0.930 . S
C684 C687 1.404 . S
C684 C688 1.353 . S
N685 Co650 2.145 . S
N685 C686 1.397 . S
N685 C687 1.334 . S
C686 H667 0.929 . S
C686 C683 1.388 . S
C686 N685 1.397 . S
C687 H668 0.929 . S
C687 C684 1.404 . S
C687 N685 1.334 . S
C688 H680 0.930 . S
C688 C683 1.418 . S
C688 C684 1.353 . S
C689 H659 0.930 . S
C689 N690 1.330 . S
C689 C691 1.446 . S
N690 Co649 2.151 . S
N690 C689 1.330 . S
N690 C694 1.418 . S
C691 H670 0.929 . S
C691 C689 1.446 . S
C691 C692 1.332 . S
C692 H672 0.931 . S
C692 C691 1.332 . S
C692 C693 1.267 . S
C693 H661 0.929 . S
C693 C692 1.267 . S
C693 C694 1.251 . S
C694 H664 0.929 . S
C694 N690 1.418 . S
C694 C693 1.251 . S
C695 H662 0.930 . S
C695 C697 1.406 . S
C695 C700 1.261 . S
C696 H663 0.930 . S
C696 N698 1.325 . S
C696 C699 1.357 . S
C697 H665 0.928 . S
C697 C695 1.406 . S
C697 N698 1.261 . S
N698 Co649 2.214 . S
N698 C696 1.325 . S
N698 C697 1.261 . S
C699 H669 0.931 . S
C699 C696 1.357 . S
C699 C700 1.312 . S
C700 H671 0.930 . S
C700 C695 1.261 . S
C700 C699 1.312 . S
C701 O673 1.214 . S
C701 O681 1.234 . S
C702 H674 0.929 . S
C702 C705 1.391 . S
C702 C707 1.391 . S
C703 H675 0.929 . S
C703 C704 1.390 . S
C703 N706 1.391 . S
C704 H676 0.930 . S
C704 C703 1.390 . S
C704 C705 1.392 . S
C705 H677 0.929 . S
C705 C702 1.391 . S
C705 C704 1.392 . S
N706 Co650 2.257 . S
N706 C703 1.391 . S
N706 C707 1.388 . S
C707 H678 0.930 . S
C707 C702 1.391 . S
C707 N706 1.388 . S
Co708 O710 2.143 . S
Co708 O716 2.074 . S
Co708 O719 2.093 . S
Co708 O732 2.097 . S
Co708 N749 2.151 . S
Co708 N757 2.214 . S
Co709 O710 2.160 . S
Co709 O715 2.058 . S
Co709 O725 2.057 . S
Co709 O740 2.037 . S
Co709 N744 2.145 . S
Co709 N765 2.257 . S
O710 Co708 2.143 . S
O710 Co709 2.160 . S
C711 O712 1.278 . S
C711 O719 1.224 . S
O712 C711 1.278 . S
C713 O714 1.245 . S
C713 O725 1.232 . S
O714 C713 1.245 . S
O715 Co709 2.058 . S
O715 C741 1.269 . S
O716 Co708 2.074 . S
O716 C741 1.257 . S
H717 C742 0.930 . S
H718 C748 0.930 . S
O719 Co708 2.093 . S
O719 C711 1.224 . S
H720 C752 0.929 . S
H721 C754 0.930 . S
H722 C755 0.930 . S
H723 C753 0.929 . S
H724 C756 0.928 . S
O725 Co709 2.057 . S
O725 C713 1.232 . S
H726 C745 0.929 . S
H727 C746 0.929 . S
H728 C758 0.931 . S
H729 C750 0.929 . S
H730 C759 0.930 . S
H731 C751 0.931 . S
O732 Co708 2.097 . S
O732 C760 1.214 . S
H733 C761 0.929 . S
H734 C762 0.929 . S
H735 C763 0.930 . S
H736 C764 0.929 . S
H737 C766 0.930 . S
H738 C743 0.930 . S
H739 C747 0.930 . S
O740 Co709 2.037 . S
O740 C760 1.234 . S
C741 O715 1.269 . S
C741 O716 1.257 . S
C742 H717 0.930 . S
C742 C745 1.388 . S
C742 C747 1.418 . S
C743 H738 0.930 . S
C743 C746 1.404 . S
C743 C747 1.353 . S
N744 Co709 2.145 . S
N744 C745 1.397 . S
N744 C746 1.334 . S
C745 H726 0.929 . S
C745 C742 1.388 . S
C745 N744 1.397 . S
C746 H727 0.929 . S
C746 C743 1.404 . S
C746 N744 1.334 . S
C747 H739 0.930 . S
C747 C742 1.418 . S
C747 C743 1.353 . S
C748 H718 0.930 . S
C748 N749 1.330 . S
C748 C750 1.446 . S
N749 Co708 2.151 . S
N749 C748 1.330 . S
N749 C753 1.418 . S
C750 H729 0.929 . S
C750 C748 1.446 . S
C750 C751 1.332 . S
C751 H731 0.931 . S
C751 C750 1.332 . S
C751 C752 1.267 . S
C752 H720 0.929 . S
C752 C751 1.267 . S
C752 C753 1.251 . S
C753 H723 0.929 . S
C753 N749 1.418 . S
C753 C752 1.251 . S
C754 H721 0.930 . S
C754 C756 1.406 . S
C754 C759 1.261 . S
C755 H722 0.930 . S
C755 N757 1.325 . S
C755 C758 1.357 . S
C756 H724 0.928 . S
C756 C754 1.406 . S
C756 N757 1.261 . S
N757 Co708 2.214 . S
N757 C755 1.325 . S
N757 C756 1.261 . S
C758 H728 0.931 . S
C758 C755 1.357 . S
C758 C759 1.312 . S
C759 H730 0.930 . S
C759 C754 1.261 . S
C759 C758 1.312 . S
C760 O732 1.214 . S
C760 O740 1.234 . S
C761 H733 0.929 . S
C761 C764 1.391 . S
C761 C766 1.391 . S
C762 H734 0.929 . S
C762 C763 1.390 . S
C762 N765 1.391 . S
C763 H735 0.930 . S
C763 C762 1.390 . S
C763 C764 1.392 . S
C764 H736 0.929 . S
C764 C761 1.391 . S
C764 C763 1.392 . S
N765 Co709 2.257 . S
N765 C762 1.391 . S
N765 C766 1.388 . S
C766 H737 0.930 . S
C766 C761 1.391 . S
C766 N765 1.388 . S
Co767 O769 2.143 . S
Co767 O775 2.074 . S
Co767 O778 2.093 1_455 S
Co767 O791 2.097 . S
Co767 N808 2.151 1_455 S
Co767 N816 2.214 1_455 S
Co768 O769 2.160 . S
Co768 O774 2.058 . S
Co768 O784 2.057 . S
Co768 O799 2.037 . S
Co768 N803 2.145 . S
Co768 N824 2.257 . S
O769 Co767 2.143 . S
O769 Co768 2.160 . S
C770 O771 1.278 . S
C770 O778 1.224 1_455 S
O771 C770 1.278 . S
C772 O773 1.245 . S
C772 O784 1.232 . S
O773 C772 1.245 . S
O774 Co768 2.058 . S
O774 C800 1.269 . S
O775 Co767 2.074 . S
O775 C800 1.257 . S
H776 C801 0.930 . S
H777 C807 0.930 . S
O778 Co767 2.093 1_655 S
O778 C770 1.224 1_655 S
H779 C811 0.929 . S
H780 C813 0.930 . S
H781 C814 0.930 . S
H782 C812 0.929 . S
H783 C815 0.928 . S
O784 Co768 2.057 . S
O784 C772 1.232 . S
H785 C804 0.929 . S
H786 C805 0.929 . S
H787 C817 0.931 . S
H788 C809 0.929 . S
H789 C818 0.930 . S
H790 C810 0.931 . S
O791 Co767 2.097 . S
O791 C819 1.214 . S
H792 C820 0.929 . S
H793 C821 0.929 . S
H794 C822 0.930 . S
H795 C823 0.929 . S
H796 C825 0.930 . S
H797 C802 0.930 . S
H798 C806 0.930 . S
O799 Co768 2.037 . S
O799 C819 1.234 . S
C800 O774 1.269 . S
C800 O775 1.257 . S
C801 H776 0.930 . S
C801 C804 1.388 . S
C801 C806 1.418 . S
C802 H797 0.930 . S
C802 C805 1.404 . S
C802 C806 1.353 . S
N803 Co768 2.145 . S
N803 C804 1.397 . S
N803 C805 1.334 . S
C804 H785 0.929 . S
C804 C801 1.388 . S
C804 N803 1.397 . S
C805 H786 0.929 . S
C805 C802 1.404 . S
C805 N803 1.334 . S
C806 H798 0.930 . S
C806 C801 1.418 . S
C806 C802 1.353 . S
C807 H777 0.930 . S
C807 N808 1.330 1_455 S
C807 C809 1.446 . S
N808 Co767 2.151 1_655 S
N808 C807 1.330 1_655 S
N808 C812 1.418 . S
C809 H788 0.929 . S
C809 C807 1.446 . S
C809 C810 1.332 1_455 S
C810 H790 0.931 . S
C810 C809 1.332 1_655 S
C810 C811 1.267 . S
C811 H779 0.929 . S
C811 C810 1.267 . S
C811 C812 1.251 . S
C812 H782 0.929 . S
C812 N808 1.418 . S
C812 C811 1.251 . S
C813 H780 0.930 . S
C813 C815 1.406 . S
C813 C818 1.261 . S
C814 H781 0.930 . S
C814 N816 1.325 . S
C814 C817 1.357 . S
C815 H783 0.928 . S
C815 C813 1.406 . S
C815 N816 1.261 . S
N816 Co767 2.214 1_655 S
N816 C814 1.325 . S
N816 C815 1.261 . S
C817 H787 0.931 . S
C817 C814 1.357 . S
C817 C818 1.312 . S
C818 H789 0.930 . S
C818 C813 1.261 . S
C818 C817 1.312 . S
C819 O791 1.214 . S
C819 O799 1.234 . S
C820 H792 0.929 . S
C820 C823 1.391 . S
C820 C825 1.391 . S
C821 H793 0.929 . S
C821 C822 1.390 . S
C821 N824 1.391 . S
C822 H794 0.930 . S
C822 C821 1.390 . S
C822 C823 1.392 . S
C823 H795 0.929 . S
C823 C820 1.391 . S
C823 C822 1.392 . S
N824 Co768 2.257 . S
N824 C821 1.391 . S
N824 C825 1.388 . S
C825 H796 0.930 . S
C825 C820 1.391 . S
C825 N824 1.388 . S
Co826 O828 2.143 . S
Co826 O834 2.074 . S
Co826 O837 2.093 1_655 S
Co826 O850 2.097 . S
Co826 N867 2.151 1_655 S
Co826 N875 2.214 1_655 S
Co827 O828 2.160 . S
Co827 O833 2.058 . S
Co827 O843 2.057 . S
Co827 O858 2.037 . S
Co827 N862 2.145 . S
Co827 N883 2.257 . S
O828 Co826 2.143 . S
O828 Co827 2.160 . S
C829 O830 1.278 . S
C829 O837 1.224 1_655 S
O830 C829 1.278 . S
C831 O832 1.245 . S
C831 O843 1.232 . S
O832 C831 1.245 . S
O833 Co827 2.058 . S
O833 C859 1.269 . S
O834 Co826 2.074 . S
O834 C859 1.257 . S
H835 C860 0.930 . S
H836 C866 0.930 . S
O837 Co826 2.093 1_455 S
O837 C829 1.224 1_455 S
H838 C870 0.929 . S
H839 C872 0.930 . S
H840 C873 0.930 . S
H841 C871 0.929 . S
H842 C874 0.928 . S
O843 Co827 2.057 . S
O843 C831 1.232 . S
H844 C863 0.929 . S
H845 C864 0.929 . S
H846 C876 0.931 . S
H847 C868 0.929 . S
H848 C877 0.930 . S
H849 C869 0.931 . S
O850 Co826 2.097 . S
O850 C878 1.214 . S
H851 C879 0.929 . S
H852 C880 0.929 . S
H853 C881 0.930 . S
H854 C882 0.929 . S
H855 C884 0.930 . S
H856 C861 0.930 . S
H857 C865 0.930 . S
O858 Co827 2.037 . S
O858 C878 1.234 . S
C859 O833 1.269 . S
C859 O834 1.257 . S
C860 H835 0.930 . S
C860 C863 1.388 . S
C860 C865 1.418 . S
C861 H856 0.930 . S
C861 C864 1.404 . S
C861 C865 1.353 . S
N862 Co827 2.145 . S
N862 C863 1.397 . S
N862 C864 1.334 . S
C863 H844 0.929 . S
C863 C860 1.388 . S
C863 N862 1.397 . S
C864 H845 0.929 . S
C864 C861 1.404 . S
C864 N862 1.334 . S
C865 H857 0.930 . S
C865 C860 1.418 . S
C865 C861 1.353 . S
C866 H836 0.930 . S
C866 N867 1.330 1_655 S
C866 C868 1.446 . S
N867 Co826 2.151 1_455 S
N867 C866 1.330 1_455 S
N867 C871 1.418 . S
C868 H847 0.929 . S
C868 C866 1.446 . S
C868 C869 1.332 1_655 S
C869 H849 0.931 . S
C869 C868 1.332 1_455 S
C869 C870 1.267 . S
C870 H838 0.929 . S
C870 C869 1.267 . S
C870 C871 1.251 . S
C871 H841 0.929 . S
C871 N867 1.418 . S
C871 C870 1.251 . S
C872 H839 0.930 . S
C872 C874 1.406 . S
C872 C877 1.261 . S
C873 H840 0.930 . S
C873 N875 1.325 . S
C873 C876 1.357 . S
C874 H842 0.928 . S
C874 C872 1.406 . S
C874 N875 1.261 . S
N875 Co826 2.214 1_455 S
N875 C873 1.325 . S
N875 C874 1.261 . S
C876 H846 0.931 . S
C876 C873 1.357 . S
C876 C877 1.312 . S
C877 H848 0.930 . S
C877 C872 1.261 . S
C877 C876 1.312 . S
C878 O850 1.214 . S
C878 O858 1.234 . S
C879 H851 0.929 . S
C879 C882 1.391 . S
C879 C884 1.391 . S
C880 H852 0.929 . S
C880 C881 1.390 . S
C880 N883 1.391 . S
C881 H853 0.930 . S
C881 C880 1.390 . S
C881 C882 1.392 . S
C882 H854 0.929 . S
C882 C879 1.391 . S
C882 C881 1.392 . S
N883 Co827 2.257 . S
N883 C880 1.391 . S
N883 C884 1.388 . S
C884 H855 0.930 . S
C884 C879 1.391 . S
C884 N883 1.388 . S
Co885 O887 2.143 . S
Co885 O893 2.074 . S
Co885 O896 2.093 . S
Co885 O909 2.097 . S
Co885 N926 2.151 . S
Co885 N934 2.214 . S
Co886 O887 2.160 . S
Co886 O892 2.058 . S
Co886 O902 2.057 . S
Co886 O917 2.037 . S
Co886 N921 2.145 . S
Co886 N942 2.257 . S
O887 Co885 2.143 . S
O887 Co886 2.160 . S
C888 O889 1.278 . S
C888 O896 1.224 . S
O889 C888 1.278 . S
C890 O891 1.245 . S
C890 O902 1.232 . S
O891 C890 1.245 . S
O892 Co886 2.058 . S
O892 C918 1.269 . S
O893 Co885 2.074 . S
O893 C918 1.257 . S
H894 C919 0.930 . S
H895 C925 0.930 . S
O896 Co885 2.093 . S
O896 C888 1.224 . S
H897 C929 0.929 . S
H898 C931 0.930 . S
H899 C932 0.930 . S
H900 C930 0.929 . S
H901 C933 0.928 . S
O902 Co886 2.057 . S
O902 C890 1.232 . S
H903 C922 0.929 . S
H904 C923 0.929 . S
H905 C935 0.931 . S
H906 C927 0.929 . S
H907 C936 0.930 . S
H908 C928 0.931 . S
O909 Co885 2.097 . S
O909 C937 1.214 . S
H910 C938 0.929 . S
H911 C939 0.929 . S
H912 C940 0.930 . S
H913 C941 0.929 . S
H914 C943 0.930 . S
H915 C920 0.930 . S
H916 C924 0.930 . S
O917 Co886 2.037 . S
O917 C937 1.234 . S
C918 O892 1.269 . S
C918 O893 1.257 . S
C919 H894 0.930 . S
C919 C922 1.388 . S
C919 C924 1.418 . S
C920 H915 0.930 . S
C920 C923 1.404 . S
C920 C924 1.353 . S
N921 Co886 2.145 . S
N921 C922 1.397 . S
N921 C923 1.334 . S
C922 H903 0.929 . S
C922 C919 1.388 . S
C922 N921 1.397 . S
C923 H904 0.929 . S
C923 C920 1.404 . S
C923 N921 1.334 . S
C924 H916 0.930 . S
C924 C919 1.418 . S
C924 C920 1.353 . S
C925 H895 0.930 . S
C925 N926 1.330 . S
C925 C927 1.446 . S
N926 Co885 2.151 . S
N926 C925 1.330 . S
N926 C930 1.418 . S
C927 H906 0.929 . S
C927 C925 1.446 . S
C927 C928 1.332 . S
C928 H908 0.931 . S
C928 C927 1.332 . S
C928 C929 1.267 . S
C929 H897 0.929 . S
C929 C928 1.267 . S
C929 C930 1.251 . S
C930 H900 0.929 . S
C930 N926 1.418 . S
C930 C929 1.251 . S
C931 H898 0.930 . S
C931 C933 1.406 . S
C931 C936 1.261 . S
C932 H899 0.930 . S
C932 N934 1.325 . S
C932 C935 1.357 . S
C933 H901 0.928 . S
C933 C931 1.406 . S
C933 N934 1.261 . S
N934 Co885 2.214 . S
N934 C932 1.325 . S
N934 C933 1.261 . S
C935 H905 0.931 . S
C935 C932 1.357 . S
C935 C936 1.312 . S
C936 H907 0.930 . S
C936 C931 1.261 . S
C936 C935 1.312 . S
C937 O909 1.214 . S
C937 O917 1.234 . S
C938 H910 0.929 . S
C938 C941 1.391 . S
C938 C943 1.391 . S
C939 H911 0.929 . S
C939 C940 1.390 . S
C939 N942 1.391 . S
C940 H912 0.930 . S
C940 C939 1.390 . S
C940 C941 1.392 . S
C941 H913 0.929 . S
C941 C938 1.391 . S
C941 C940 1.392 . S
N942 Co886 2.257 . S
N942 C939 1.391 . S
N942 C943 1.388 . S
C943 H914 0.930 . S
C943 C938 1.391 . S
C943 N942 1.388 . S
C944 C945 1.369 . S
C944 C946 1.419 1_565 S
C944 H948 0.930 . S
C945 C944 1.369 . S
C945 C954 1.429 . S
C946 C944 1.419 1_545 S
C946 C947 1.363 . S
C946 H949 0.929 . S
C947 C946 1.363 . S
C947 C953 1.428 . S
H948 C944 0.930 . S
H949 C946 0.929 . S
S950 N951 1.613 1_545 S
S950 N952 1.610 . S
N951 S950 1.613 1_565 S
N951 C954 1.350 . S
N952 S950 1.610 . S
N952 C953 1.351 . S
C953 C947 1.428 . S
C953 N952 1.351 . S
C953 C954 1.434 1_545 S
C954 C945 1.429 . S
C954 N951 1.350 . S
C954 C953 1.434 1_565 S
C955 C956 1.369 1_545 S
C955 C957 1.419 . S
C955 H959 0.930 . S
C956 C955 1.369 1_565 S
C956 C965 1.429 . S
C957 C955 1.419 . S
C957 C958 1.363 . S
C957 H960 0.929 . S
C958 C957 1.363 . S
C958 C964 1.428 1_545 S
H959 C955 0.930 . S
H960 C957 0.929 . S
S961 N962 1.613 . S
S961 N963 1.610 . S
N962 S961 1.613 . S
N962 C965 1.350 . S
N963 S961 1.610 . S
N963 C964 1.351 . S
C964 C958 1.428 1_565 S
C964 N963 1.351 . S
C964 C965 1.434 . S
C965 C956 1.429 . S
C965 N962 1.350 . S
C965 C964 1.434 . S
C966 C967 1.369 . S
C966 C968 1.419 . S
C966 H970 0.930 . S
C967 C966 1.369 . S
C967 C976 1.429 1_565 S
C968 C966 1.419 . S
C968 C969 1.363 1_565 S
C968 H971 0.929 . S
C969 C968 1.363 1_545 S
C969 C975 1.428 . S
H970 C966 0.930 . S
H971 C968 0.929 . S
S972 N973 1.613 . S
S972 N974 1.610 . S
N973 S972 1.613 . S
N973 C976 1.350 . S
N974 S972 1.610 . S
N974 C975 1.351 . S
C975 C969 1.428 . S
C975 N974 1.351 . S
C975 C976 1.434 . S
C976 C967 1.429 1_545 S
C976 N973 1.350 . S
C976 C975 1.434 . S
C977 C978 1.369 . S
C977 C979 1.419 . S
C977 H981 0.930 . S
C978 C977 1.369 . S
C978 C987 1.429 1_565 S
C979 C977 1.419 . S
C979 C980 1.363 1_565 S
C979 H982 0.929 . S
C980 C979 1.363 1_545 S
C980 C986 1.428 . S
H981 C977 0.930 . S
H982 C979 0.929 . S
S983 N984 1.613 . S
S983 N985 1.610 . S
N984 S983 1.613 . S
N984 C987 1.350 . S
N985 S983 1.610 . S
N985 C986 1.351 . S
C986 C980 1.428 . S
C986 N985 1.351 . S
C986 C987 1.434 . S
C987 C978 1.429 1_545 S
C987 N984 1.350 . S
C987 C986 1.434 . S
C988 C989 1.369 . S
C988 C990 1.419 . S
C988 H992 0.930 . S
C989 C988 1.369 . S
C989 C998 1.429 . S
C990 C988 1.419 . S
C990 C991 1.363 . S
C990 H993 0.929 . S
C991 C990 1.363 . S
C991 C997 1.428 . S
H992 C988 0.930 . S
H993 C990 0.929 . S
S994 N995 1.613 . S
S994 N996 1.610 . S
N995 S994 1.613 . S
N995 C998 1.350 . S
N996 S994 1.610 . S
N996 C997 1.351 . S
C997 C991 1.428 . S
C997 N996 1.351 . S
C997 C998 1.434 . S
C998 C989 1.429 . S
C998 N995 1.350 . S
C998 C997 1.434 . S
C999 C1000 1.369 . S
C999 C1001 1.419 . S
C999 H1003 0.930 . S
C1000 C999 1.369 . S
C1000 C1009 1.429 . S
C1001 C999 1.419 . S
C1001 C1002 1.363 . S
C1001 H1004 0.929 . S
C1002 C1001 1.363 . S
C1002 C1008 1.428 . S
H1003 C999 0.930 . S
H1004 C1001 0.929 . S
S1005 N1006 1.613 . S
S1005 N1007 1.610 . S
N1006 S1005 1.613 . S
N1006 C1009 1.350 . S
N1007 S1005 1.610 . S
N1007 C1008 1.351 . S
C1008 C1002 1.428 . S
C1008 N1007 1.351 . S
C1008 C1009 1.434 . S
C1009 C1000 1.429 . S
C1009 N1006 1.350 . S
C1009 C1008 1.434 . S
C1010 C1011 1.369 . S
C1010 C1012 1.419 . S
C1010 H1014 0.930 . S
C1011 C1010 1.369 . S
C1011 C1020 1.429 . S
C1012 C1010 1.419 . S
C1012 C1013 1.363 . S
C1012 H1015 0.929 . S
C1013 C1012 1.363 . S
C1013 C1019 1.428 . S
H1014 C1010 0.930 . S
H1015 C1012 0.929 . S
S1016 N1017 1.613 . S
S1016 N1018 1.610 . S
N1017 S1016 1.613 . S
N1017 C1020 1.350 . S
N1018 S1016 1.610 . S
N1018 C1019 1.351 . S
C1019 C1013 1.428 . S
C1019 N1018 1.351 . S
C1019 C1020 1.434 . S
C1020 C1011 1.429 . S
C1020 N1017 1.350 . S
C1020 C1019 1.434 . S
C1021 C1022 1.369 . S
C1021 C1023 1.419 . S
C1021 H1025 0.930 . S
C1022 C1021 1.369 . S
C1022 C1031 1.429 . S
C1023 C1021 1.419 . S
C1023 C1024 1.363 . S
C1023 H1026 0.929 . S
C1024 C1023 1.363 . S
C1024 C1030 1.428 . S
H1025 C1021 0.930 . S
H1026 C1023 0.929 . S
S1027 N1028 1.613 . S
S1027 N1029 1.610 . S
N1028 S1027 1.613 . S
N1028 C1031 1.350 . S
N1029 S1027 1.610 . S
N1029 C1030 1.351 . S
C1030 C1024 1.428 . S
C1030 N1029 1.351 . S
C1030 C1031 1.434 . S
C1031 C1022 1.429 . S
C1031 N1028 1.350 . S
C1031 C1030 1.434 . S
C1032 C1033 1.369 1_455 S
C1032 C1034 1.419 . S
C1032 H1036 0.930 . S
C1033 C1032 1.369 1_655 S
C1033 C1042 1.429 . S
C1034 C1032 1.419 . S
C1034 C1035 1.363 . S
C1034 H1037 0.929 . S
C1035 C1034 1.363 . S
C1035 C1041 1.428 1_455 S
H1036 C1032 0.930 . S
H1037 C1034 0.929 . S
S1038 N1039 1.613 . S
S1038 N1040 1.610 . S
N1039 S1038 1.613 . S
N1039 C1042 1.350 . S
N1040 S1038 1.610 . S
N1040 C1041 1.351 . S
C1041 C1035 1.428 1_655 S
C1041 N1040 1.351 . S
C1041 C1042 1.434 . S
C1042 C1033 1.429 . S
C1042 N1039 1.350 . S
C1042 C1041 1.434 . S
C1043 C1044 1.369 . S
C1043 C1045 1.419 . S
C1043 H1047 0.930 . S
C1044 C1043 1.369 . S
C1044 C1053 1.429 . S
C1045 C1043 1.419 . S
C1045 C1046 1.363 . S
C1045 H1048 0.929 . S
C1046 C1045 1.363 . S
C1046 C1052 1.428 . S
H1047 C1043 0.930 . S
H1048 C1045 0.929 . S
S1049 N1050 1.613 . S
S1049 N1051 1.610 . S
N1050 S1049 1.613 . S
N1050 C1053 1.350 1_545 S
N1051 S1049 1.610 . S
N1051 C1052 1.351 1_545 S
C1052 C1046 1.428 . S
C1052 N1051 1.351 1_565 S
C1052 C1053 1.434 . S
C1053 C1044 1.429 . S
C1053 N1050 1.350 1_565 S
C1053 C1052 1.434 . S
C1054 C1055 1.369 . S
C1054 C1056 1.419 . S
C1054 H1058 0.930 . S
C1055 C1054 1.369 . S
C1055 C1064 1.429 1_455 S
C1056 C1054 1.419 . S
C1056 C1057 1.363 1_455 S
C1056 H1059 0.929 . S
C1057 C1056 1.363 1_655 S
C1057 C1063 1.428 . S
H1058 C1054 0.930 . S
H1059 C1056 0.929 . S
S1060 N1061 1.613 . S
S1060 N1062 1.610 . S
N1061 S1060 1.613 . S
N1061 C1064 1.350 . S
N1062 S1060 1.610 . S
N1062 C1063 1.351 . S
C1063 C1057 1.428 . S
C1063 N1062 1.351 . S
C1063 C1064 1.434 . S
C1064 C1055 1.429 1_655 S
C1064 N1061 1.350 . S
C1064 C1063 1.434 . S
C1065 C1066 1.369 . S
C1065 C1067 1.419 . S
C1065 H1069 0.930 . S
C1066 C1065 1.369 . S
C1066 C1075 1.429 . S
C1067 C1065 1.419 . S
C1067 C1068 1.363 . S
C1067 H1070 0.929 . S
C1068 C1067 1.363 . S
C1068 C1074 1.428 . S
H1069 C1065 0.930 . S
H1070 C1067 0.929 . S
S1071 N1072 1.613 1_565 S
S1071 N1073 1.610 1_565 S
N1072 S1071 1.613 1_545 S
N1072 C1075 1.350 . S
N1073 S1071 1.610 1_545 S
N1073 C1074 1.351 . S
C1074 C1068 1.428 . S
C1074 N1073 1.351 . S
C1074 C1075 1.434 . S
C1075 C1066 1.429 . S
C1075 N1072 1.350 . S
C1075 C1074 1.434 . S
C1076 C1077 1.369 . S
C1076 C1078 1.419 . S
C1076 H1080 0.930 . S
C1077 C1076 1.369 . S
C1077 C1086 1.429 . S
C1078 C1076 1.419 . S
C1078 C1079 1.363 . S
C1078 H1081 0.929 . S
C1079 C1078 1.363 . S
C1079 C1085 1.428 . S
H1080 C1076 0.930 . S
H1081 C1078 0.929 . S
S1082 N1083 1.613 . S
S1082 N1084 1.610 . S
N1083 S1082 1.613 . S
N1083 C1086 1.350 . S
N1084 S1082 1.610 . S
N1084 C1085 1.351 . S
C1085 C1079 1.428 . S
C1085 N1084 1.351 . S
C1085 C1086 1.434 . S
C1086 C1077 1.429 . S
C1086 N1083 1.350 . S
C1086 C1085 1.434 . S
C1087 C1088 1.369 . S
C1087 C1089 1.419 . S
C1087 H1091 0.930 . S
C1088 C1087 1.369 . S
C1088 C1097 1.429 1_455 S
C1089 C1087 1.419 . S
C1089 C1090 1.363 1_455 S
C1089 H1092 0.929 . S
C1090 C1089 1.363 1_655 S
C1090 C1096 1.428 . S
H1091 C1087 0.930 . S
H1092 C1089 0.929 . S
S1093 N1094 1.613 . S
S1093 N1095 1.610 . S
N1094 S1093 1.613 . S
N1094 C1097 1.350 . S
N1095 S1093 1.610 . S
N1095 C1096 1.351 . S
C1096 C1090 1.428 . S
C1096 N1095 1.351 . S
C1096 C1097 1.434 . S
C1097 C1088 1.429 1_655 S
C1097 N1094 1.350 . S
C1097 C1096 1.434 . S
C1098 C1099 1.369 . S
C1098 C1100 1.419 . S
C1098 H1102 0.930 . S
C1099 C1098 1.369 . S
C1099 C1108 1.429 . S
C1100 C1098 1.419 . S
C1100 C1101 1.363 . S
C1100 H1103 0.929 . S
C1101 C1100 1.363 . S
C1101 C1107 1.428 . S
H1102 C1098 0.930 . S
H1103 C1100 0.929 . S
S1104 N1105 1.613 . S
S1104 N1106 1.610 . S
N1105 S1104 1.613 . S
N1105 C1108 1.350 . S
N1106 S1104 1.610 . S
N1106 C1107 1.351 . S
C1107 C1101 1.428 . S
C1107 N1106 1.351 . S
C1107 C1108 1.434 . S
C1108 C1099 1.429 . S
C1108 N1105 1.350 . S
C1108 C1107 1.434 . S
C1109 C1110 1.369 1_655 S
C1109 C1111 1.419 . S
C1109 H1113 0.930 . S
C1110 C1109 1.369 1_455 S
C1110 C1119 1.429 . S
C1111 C1109 1.419 . S
C1111 C1112 1.363 . S
C1111 H1114 0.929 . S
C1112 C1111 1.363 . S
C1112 C1118 1.428 1_655 S
H1113 C1109 0.930 . S
H1114 C1111 0.929 . S
S1115 N1116 1.613 . S
S1115 N1117 1.610 . S
N1116 S1115 1.613 . S
N1116 C1119 1.350 . S
N1117 S1115 1.610 . S
N1117 C1118 1.351 . S
C1118 C1112 1.428 1_455 S
C1118 N1117 1.351 . S
C1118 C1119 1.434 . S
C1119 C1110 1.429 . S
C1119 N1116 1.350 . S
C1119 C1118 1.434 . S
C1120 C1121 1.369 . S
C1120 C1122 1.419 . S
C1120 H1124 0.930 . S
C1121 C1120 1.369 . S
C1121 C1130 1.429 1_455 S
C1122 C1120 1.419 . S
C1122 C1123 1.363 1_455 S
C1122 H1125 0.929 . S
C1123 C1122 1.363 1_655 S
C1123 C1129 1.428 . S
H1124 C1120 0.930 . S
H1125 C1122 0.929 . S
S1126 N1127 1.613 . S
S1126 N1128 1.610 . S
N1127 S1126 1.613 . S
N1127 C1130 1.350 . S
N1128 S1126 1.610 . S
N1128 C1129 1.351 . S
C1129 C1123 1.428 . S
C1129 N1128 1.351 . S
C1129 C1130 1.434 . S
C1130 C1121 1.429 1_655 S
C1130 N1127 1.350 . S
C1130 C1129 1.434 . S
C1131 C1132 1.369 . S
C1131 C1133 1.419 . S
C1131 H1135 0.930 . S
C1132 C1131 1.369 . S
C1132 C1141 1.429 . S
C1133 C1131 1.419 . S
C1133 C1134 1.363 . S
C1133 H1136 0.929 . S
C1134 C1133 1.363 . S
C1134 C1140 1.428 . S
H1135 C1131 0.930 . S
H1136 C1133 0.929 . S
S1137 N1138 1.613 . S
S1137 N1139 1.610 . S
N1138 S1137 1.613 . S
N1138 C1141 1.350 . S
N1139 S1137 1.610 . S
N1139 C1140 1.351 . S
C1140 C1134 1.428 . S
C1140 N1139 1.351 . S
C1140 C1141 1.434 . S
C1141 C1132 1.429 . S
C1141 N1138 1.350 . S
C1141 C1140 1.434 . S
C1142 C1143 1.369 . S
C1142 C1144 1.419 . S
C1142 H1146 0.930 . S
C1143 C1142 1.369 . S
C1143 C1152 1.429 . S
C1144 C1142 1.419 . S
C1144 C1145 1.363 . S
C1144 H1147 0.929 . S
C1145 C1144 1.363 . S
C1145 C1151 1.428 . S
H1146 C1142 0.930 . S
H1147 C1144 0.929 . S
S1148 N1149 1.613 . S
S1148 N1150 1.610 . S
N1149 S1148 1.613 . S
N1149 C1152 1.350 . S
N1150 S1148 1.610 . S
N1150 C1151 1.351 . S
C1151 C1145 1.428 . S
C1151 N1150 1.351 . S
C1151 C1152 1.434 . S
C1152 C1143 1.429 . S
C1152 N1149 1.350 . S
C1152 C1151 1.434 . S
C1153 C1154 1.369 . S
C1153 C1155 1.419 . S
C1153 H1157 0.930 . S
C1154 C1153 1.369 . S
C1154 C1163 1.429 1_455 S
C1155 C1153 1.419 . S
C1155 C1156 1.363 1_455 S
C1155 H1158 0.929 . S
C1156 C1155 1.363 1_655 S
C1156 C1162 1.428 . S
H1157 C1153 0.930 . S
H1158 C1155 0.929 . S
S1159 N1160 1.613 . S
S1159 N1161 1.610 . S
N1160 S1159 1.613 . S
N1160 C1163 1.350 . S
N1161 S1159 1.610 . S
N1161 C1162 1.351 . S
C1162 C1156 1.428 . S
C1162 N1161 1.351 . S
C1162 C1163 1.434 . S
C1163 C1154 1.429 1_655 S
C1163 N1160 1.350 . S
C1163 C1162 1.434 . S
C1164 C1165 1.369 1_655 S
C1164 C1166 1.419 . S
C1164 H1168 0.930 . S
C1165 C1164 1.369 1_455 S
C1165 C1174 1.429 . S
C1166 C1164 1.419 . S
C1166 C1167 1.363 . S
C1166 H1169 0.929 . S
C1167 C1166 1.363 . S
C1167 C1173 1.428 1_655 S
H1168 C1164 0.930 . S
H1169 C1166 0.929 . S
S1170 N1171 1.613 . S
S1170 N1172 1.610 . S
N1171 S1170 1.613 . S
N1171 C1174 1.350 . S
N1172 S1170 1.610 . S
N1172 C1173 1.351 . S
C1173 C1167 1.428 1_455 S
C1173 N1172 1.351 . S
C1173 C1174 1.434 . S
C1174 C1165 1.429 . S
C1174 N1171 1.350 . S
C1174 C1173 1.434 . S
C1175 C1176 1.369 . S
C1175 C1177 1.419 . S
C1175 H1179 0.930 . S
C1176 C1175 1.369 . S
C1176 C1185 1.429 . S
C1177 C1175 1.419 . S
C1177 C1178 1.363 . S
C1177 H1180 0.929 . S
C1178 C1177 1.363 . S
C1178 C1184 1.428 . S
H1179 C1175 0.930 . S
H1180 C1177 0.929 . S
S1181 N1182 1.613 . S
S1181 N1183 1.610 . S
N1182 S1181 1.613 . S
N1182 C1185 1.350 . S
N1183 S1181 1.610 . S
N1183 C1184 1.351 . S
C1184 C1178 1.428 . S
C1184 N1183 1.351 . S
C1184 C1185 1.434 . S
C1185 C1176 1.429 . S
C1185 N1182 1.350 . S
C1185 C1184 1.434 . S
C1186 C1187 1.369 . S
C1186 C1188 1.419 . S
C1186 H1190 0.930 . S
C1187 C1186 1.369 . S
C1187 C1196 1.429 . S
C1188 C1186 1.419 . S
C1188 C1189 1.363 . S
C1188 H1191 0.929 . S
C1189 C1188 1.363 . S
C1189 C1195 1.428 . S
H1190 C1186 0.930 . S
H1191 C1188 0.929 . S
S1192 N1193 1.613 . S
S1192 N1194 1.610 . S
N1193 S1192 1.613 . S
N1193 C1196 1.350 . S
N1194 S1192 1.610 . S
N1194 C1195 1.351 . S
C1195 C1189 1.428 . S
C1195 N1194 1.351 . S
C1195 C1196 1.434 . S
C1196 C1187 1.429 . S
C1196 N1193 1.350 . S
C1196 C1195 1.434 . S
C1197 C1198 1.369 1_655 S
C1197 C1199 1.419 . S
C1197 H1201 0.930 . S
C1198 C1197 1.369 1_455 S
C1198 C1207 1.429 . S
C1199 C1197 1.419 . S
C1199 C1200 1.363 . S
C1199 H1202 0.929 . S
C1200 C1199 1.363 . S
C1200 C1206 1.428 1_655 S
H1201 C1197 0.930 . S
H1202 C1199 0.929 . S
S1203 N1204 1.613 . S
S1203 N1205 1.610 . S
N1204 S1203 1.613 . S
N1204 C1207 1.350 . S
N1205 S1203 1.610 . S
N1205 C1206 1.351 . S
C1206 C1200 1.428 1_455 S
C1206 N1205 1.351 . S
C1206 C1207 1.434 . S
C1207 C1198 1.429 . S
C1207 N1204 1.350 . S
C1207 C1206 1.434 . S
C1208 C1209 1.369 1_445 S
C1208 C1210 1.419 1_556 S
C1208 H1212 0.930 . S
C1209 C1208 1.369 1_665 S
C1209 C1218 1.429 . S
C1210 C1208 1.419 1_554 S
C1210 C1211 1.363 . S
C1210 H1213 0.929 . S
C1211 C1210 1.363 . S
C1211 C1217 1.428 1_445 S
H1212 C1208 0.930 . S
H1213 C1210 0.929 . S
S1214 N1215 1.613 . S
S1214 N1216 1.610 . S
N1215 S1214 1.613 . S
N1215 C1218 1.350 1_554 S
N1216 S1214 1.610 . S
N1216 C1217 1.351 . S
C1217 C1211 1.428 1_665 S
C1217 N1216 1.351 . S
C1217 C1218 1.434 1_554 S
C1218 C1209 1.429 . S
C1218 N1215 1.350 1_556 S
C1218 C1217 1.434 1_556 S
C1219 C1220 1.369 1_565 S
C1219 C1221 1.419 1_556 S
C1219 H1223 0.930 . S
C1220 C1219 1.369 1_545 S
C1220 C1229 1.429 . S
C1221 C1219 1.419 1_554 S
C1221 C1222 1.363 . S
C1221 H1224 0.929 . S
C1222 C1221 1.363 . S
C1222 C1228 1.428 1_565 S
H1223 C1219 0.930 . S
H1224 C1221 0.929 . S
S1225 N1226 1.613 1_554 S
S1225 N1227 1.610 . S
N1226 S1225 1.613 1_556 S
N1226 C1229 1.350 . S
N1227 S1225 1.610 . S
N1227 C1228 1.351 . S
C1228 C1222 1.428 1_545 S
C1228 N1227 1.351 . S
C1228 C1229 1.434 1_554 S
C1229 C1220 1.429 . S
C1229 N1226 1.350 . S
C1229 C1228 1.434 1_556 S
C1230 C1231 1.369 . S
C1230 C1232 1.419 . S
C1230 H1234 0.930 . S
C1231 C1230 1.369 . S
C1231 C1240 1.429 1_545 S
C1232 C1230 1.419 . S
C1232 C1233 1.363 1_545 S
C1232 H1235 0.929 . S
C1233 C1232 1.363 1_565 S
C1233 C1239 1.428 . S
H1234 C1230 0.930 . S
H1235 C1232 0.929 . S
S1236 N1237 1.613 . S
S1236 N1238 1.610 . S
N1237 S1236 1.613 . S
N1237 C1240 1.350 . S
N1238 S1236 1.610 . S
N1238 C1239 1.351 . S
C1239 C1233 1.428 . S
C1239 N1238 1.351 . S
C1239 C1240 1.434 . S
C1240 C1231 1.429 1_565 S
C1240 N1237 1.350 . S
C1240 C1239 1.434 . S
C1241 C1242 1.369 1_545 S
C1241 C1243 1.419 . S
C1241 H1245 0.930 . S
C1242 C1241 1.369 1_565 S
C1242 C1251 1.429 1_455 S
C1243 C1241 1.419 . S
C1243 C1244 1.363 1_455 S
C1243 H1246 0.929 . S
C1244 C1243 1.363 1_655 S
C1244 C1250 1.428 1_545 S
H1245 C1241 0.930 . S
H1246 C1243 0.929 . S
S1247 N1248 1.613 . S
S1247 N1249 1.610 . S
N1248 S1247 1.613 . S
N1248 C1251 1.350 . S
N1249 S1247 1.610 . S
N1249 C1250 1.351 . S
C1250 C1244 1.428 1_565 S
C1250 N1249 1.351 . S
C1250 C1251 1.434 . S
C1251 C1242 1.429 1_655 S
C1251 N1248 1.350 . S
C1251 C1250 1.434 . S
C1252 C1253 1.369 . S
C1252 C1254 1.419 1_554 S
C1252 H1256 0.930 . S
C1253 C1252 1.369 . S
C1253 C1262 1.429 . S
C1254 C1252 1.419 1_556 S
C1254 C1255 1.363 . S
C1254 H1257 0.929 . S
C1255 C1254 1.363 . S
C1255 C1261 1.428 . S
H1256 C1252 0.930 . S
H1257 C1254 0.929 . S
S1258 N1259 1.613 . S
S1258 N1260 1.610 1_554 S
N1259 S1258 1.613 . S
N1259 C1262 1.350 . S
N1260 S1258 1.610 1_556 S
N1260 C1261 1.351 . S
C1261 C1255 1.428 . S
C1261 N1260 1.351 . S
C1261 C1262 1.434 1_556 S
C1262 C1253 1.429 . S
C1262 N1259 1.350 . S
C1262 C1261 1.434 1_554 S
C1263 C1264 1.369 . S
C1263 C1265 1.419 1_554 S
C1263 H1267 0.930 . S
C1264 C1263 1.369 . S
C1264 C1273 1.429 1_655 S
C1265 C1263 1.419 1_556 S
C1265 C1266 1.363 1_655 S
C1265 H1268 0.929 . S
C1266 C1265 1.363 1_455 S
C1266 C1272 1.428 . S
H1267 C1263 0.930 . S
H1268 C1265 0.929 . S
S1269 N1270 1.613 . S
S1269 N1271 1.610 . S
N1270 S1269 1.613 . S
N1270 C1273 1.350 . S
N1271 S1269 1.610 . S
N1271 C1272 1.351 1_554 S
C1272 C1266 1.428 . S
C1272 N1271 1.351 1_556 S
C1272 C1273 1.434 1_556 S
C1273 C1264 1.429 1_455 S
C1273 N1270 1.350 . S
C1273 C1272 1.434 1_554 S
C1274 C1275 1.369 1_455 S
C1274 C1276 1.419 . S
C1274 H1278 0.930 . S
C1275 C1274 1.369 1_655 S
C1275 C1284 1.429 . S
C1276 C1274 1.419 . S
C1276 C1277 1.363 . S
C1276 H1279 0.929 . S
C1277 C1276 1.363 . S
C1277 C1283 1.428 1_455 S
H1278 C1274 0.930 . S
H1279 C1276 0.929 . S
S1280 N1281 1.613 . S
S1280 N1282 1.610 . S
N1281 S1280 1.613 . S
N1281 C1284 1.350 . S
N1282 S1280 1.610 . S
N1282 C1283 1.351 . S
C1283 C1277 1.428 1_655 S
C1283 N1282 1.351 . S
C1283 C1284 1.434 . S
C1284 C1275 1.429 . S
C1284 N1281 1.350 . S
C1284 C1283 1.434 . S
C1285 C1286 1.369 . S
C1285 C1287 1.419 . S
C1285 H1289 0.930 . S
C1286 C1285 1.369 . S
C1286 C1295 1.429 . S
C1287 C1285 1.419 . S
C1287 C1288 1.363 . S
C1287 H1290 0.929 . S
C1288 C1287 1.363 . S
C1288 C1294 1.428 . S
H1289 C1285 0.930 . S
H1290 C1287 0.929 . S
S1291 N1292 1.613 . S
S1291 N1293 1.610 . S
N1292 S1291 1.613 . S
N1292 C1295 1.350 . S
N1293 S1291 1.610 . S
N1293 C1294 1.351 . S
C1294 C1288 1.428 . S
C1294 N1293 1.351 . S
C1294 C1295 1.434 . S
C1295 C1286 1.429 . S
C1295 N1292 1.350 . S
C1295 C1294 1.434 . S
C945 C64 1.565 . S
C947 C5 1.563 . S
C956 C123 1.562 . S
C958 C182 1.565 . S
C967 C241 1.565 . S
C969 C300 1.563 . S
C978 C418 1.564 . S
C980 C359 1.564 . S
C989 C536 1.566 . S
C991 C477 1.562 . S
C1000 C654 1.563 . S
C1002 C595 1.565 . S
C1011 C772 1.565 . S
C1013 C713 1.563 . S
C1022 C890 1.563 . S
C1024 C831 1.564 . S
C1033 C210 1.563 . S
C1035 C33 1.561 . S
C1044 C92 1.562 . S
C1046 C151 1.562 . S
C1055 C446 1.560 . S
C1057 C269 1.563 . S
C1066 C387 1.563 . S
C1068 C328 1.561 . S
C1077 C505 1.563 . S
C1079 C682 1.561 . S
C1088 C623 1.560 . S
C1090 C564 1.562 . S
C1099 C918 1.560 . S
C1101 C741 1.562 . S
C1110 C800 1.560 . S
C1112 C859 1.561 . S
C1121 C52 1.572 . S
C1123 C583 1.569 . S
C1132 C111 1.570 . S
C1134 C524 1.572 . S
C1143 C701 1.571 . S
C1145 C170 1.570 . S
C1154 C642 1.570 . S
C1156 C229 1.570 . S
C1165 C819 1.570 . S
C1167 C288 1.571 . S
C1176 C760 1.572 . S
C1178 C347 1.569 . S
C1187 C406 1.572 . S
C1189 C937 1.569 . S
C1198 C465 1.569 . S
C1200 C878 1.572 . S
C1209 C239 1.531 . S
C1211 C3 1.531 . S
C1220 C298 1.530 . S
C1222 C62 1.532 . S
C1231 C357 1.532 . S
C1233 C121 1.530 . S
C1242 C416 1.530 . S
C1244 C180 1.532 . S
C1253 C475 1.531 . S
C1255 C711 1.531 . S
C1264 C534 1.532 . S
C1266 C770 1.530 . S
C1275 C829 1.532 . S
C1277 C593 1.530 . S
C1286 C888 1.530 . S
C1288 C652 1.531 . S
