# Generated by pormake.
# Topology uou, (4)-cn, num edge types: 1
# Building blocks:
#     Node 0, Type 0, BuildingBlock: QUQFOY_clean_sbu_3, # of connection points: 4
#     Node 1, Type 0, BuildingBlock: QUQFOY_clean_sbu_3, # of connection points: 4
#     Node 2, Type 0, BuildingBlock: QUQFOY_clean_sbu_3, # of connection points: 4
#     Node 3, Type 0, BuildingBlock: QUQFOY_clean_sbu_3, # of connection points: 4
#     Node 4, Type 0, BuildingBlock: QUQFOY_clean_sbu_3, # of connection points: 4
#     Node 5, Type 0, BuildingBlock: QUQFOY_clean_sbu_3, # of connection points: 4
#     Node 6, Type 0, BuildingBlock: QUQFOY_clean_sbu_3, # of connection points: 4
#     Node 7, Type 0, BuildingBlock: QUQFOY_clean_sbu_3, # of connection points: 4
#     Node 8, Type 0, BuildingBlock: QUQFOY_clean_sbu_3, # of connection points: 4
#     Node 9, Type 0, BuildingBlock: QUQFOY_clean_sbu_3, # of connection points: 4
#     Node 10, Type 0, BuildingBlock: QUQFOY_clean_sbu_3, # of connection points: 4
#     Node 11, Type 0, BuildingBlock: QUQFOY_clean_sbu_3, # of connection points: 4
#     Node 12, Type 0, BuildingBlock: QUQFOY_clean_sbu_3, # of connection points: 4
#     Node 13, Type 0, BuildingBlock: QUQFOY_clean_sbu_3, # of connection points: 4
#     Node 14, Type 0, BuildingBlock: QUQFOY_clean_sbu_3, # of connection points: 4
#     Node 15, Type 0, BuildingBlock: QUQFOY_clean_sbu_3, # of connection points: 4
#     Edge 16, Type (0, 0), BuildingBlock: CIFDUS_clean_linker_0, # of connection points: 2
#     Edge 17, Type (0, 0), BuildingBlock: CIFDUS_clean_linker_0, # of connection points: 2
#     Edge 18, Type (0, 0), BuildingBlock: CIFDUS_clean_linker_0, # of connection points: 2
#     Edge 19, Type (0, 0), BuildingBlock: CIFDUS_clean_linker_0, # of connection points: 2
#     Edge 20, Type (0, 0), BuildingBlock: CIFDUS_clean_linker_0, # of connection points: 2
#     Edge 21, Type (0, 0), BuildingBlock: CIFDUS_clean_linker_0, # of connection points: 2
#     Edge 22, Type (0, 0), BuildingBlock: CIFDUS_clean_linker_0, # of connection points: 2
#     Edge 23, Type (0, 0), BuildingBlock: CIFDUS_clean_linker_0, # of connection points: 2
#     Edge 24, Type (0, 0), BuildingBlock: CIFDUS_clean_linker_0, # of connection points: 2
#     Edge 25, Type (0, 0), BuildingBlock: CIFDUS_clean_linker_0, # of connection points: 2
#     Edge 26, Type (0, 0), BuildingBlock: CIFDUS_clean_linker_0, # of connection points: 2
#     Edge 27, Type (0, 0), BuildingBlock: CIFDUS_clean_linker_0, # of connection points: 2
#     Edge 28, Type (0, 0), BuildingBlock: CIFDUS_clean_linker_0, # of connection points: 2
#     Edge 29, Type (0, 0), BuildingBlock: CIFDUS_clean_linker_0, # of connection points: 2
#     Edge 30, Type (0, 0), BuildingBlock: CIFDUS_clean_linker_0, # of connection points: 2
#     Edge 31, Type (0, 0), BuildingBlock: CIFDUS_clean_linker_0, # of connection points: 2
#     Edge 32, Type (0, 0), BuildingBlock: CIFDUS_clean_linker_0, # of connection points: 2
#     Edge 33, Type (0, 0), BuildingBlock: CIFDUS_clean_linker_0, # of connection points: 2
#     Edge 34, Type (0, 0), BuildingBlock: CIFDUS_clean_linker_0, # of connection points: 2
#     Edge 35, Type (0, 0), BuildingBlock: CIFDUS_clean_linker_0, # of connection points: 2
#     Edge 36, Type (0, 0), BuildingBlock: CIFDUS_clean_linker_0, # of connection points: 2
#     Edge 37, Type (0, 0), BuildingBlock: CIFDUS_clean_linker_0, # of connection points: 2
#     Edge 38, Type (0, 0), BuildingBlock: CIFDUS_clean_linker_0, # of connection points: 2
#     Edge 39, Type (0, 0), BuildingBlock: CIFDUS_clean_linker_0, # of connection points: 2
#     Edge 40, Type (0, 0), BuildingBlock: CIFDUS_clean_linker_0, # of connection points: 2
#     Edge 41, Type (0, 0), BuildingBlock: CIFDUS_clean_linker_0, # of connection points: 2
#     Edge 42, Type (0, 0), BuildingBlock: CIFDUS_clean_linker_0, # of connection points: 2
#     Edge 43, Type (0, 0), BuildingBlock: CIFDUS_clean_linker_0, # of connection points: 2
#     Edge 44, Type (0, 0), BuildingBlock: CIFDUS_clean_linker_0, # of connection points: 2
#     Edge 45, Type (0, 0), BuildingBlock: CIFDUS_clean_linker_0, # of connection points: 2
#     Edge 46, Type (0, 0), BuildingBlock: CIFDUS_clean_linker_0, # of connection points: 2
#     Edge 47, Type (0, 0), BuildingBlock: CIFDUS_clean_linker_0, # of connection points: 2
# Relax obj value: 0.038
# Max RMSD: 0.066
# Mean RMSD: 0.066
data_MOF--net-uou--node1-QUQFOY_clean_sbu_3--edge1-CIFDUS_clean_linker_0
_symmetry_space_group_name_H-M    P1
_symmetry_Int_Tables_number       1
_symmetry_cell_setting            triclinic
loop_
_symmetry_equiv_pos_as_xyz
'x, y, z'
_cell_length_a     35.398884
_cell_length_b     35.41208
_cell_length_c     49.437896
_cell_angle_alpha  90.101459
_cell_angle_beta   90.159362
_cell_angle_gamma 90.667701
loop_
_atom_site_label
_atom_site_type_symbol
_atom_site_fract_x
_atom_site_fract_y
_atom_site_fract_z
_atom_type_partial_charge
C0 C 0.96725 0.02901 0.15134 0.0
O1 O 0.93806 0.0332 0.13676 0.0
Cd2 Cd 0.94358 0.0574 0.09155 0.0
O3 O -7e-05 0.03545 0.14167 0.0
Cd4 Cd 0.03149 0.05333 0.09964 0.0
C5 C -0.00671 0.13985 0.10363 0.0
O6 O 0.99004 0.0221 0.0671 0.0
O7 O 0.02948 0.06381 0.05144 0.0
O8 O 0.07497 0.0014 0.10564 0.0
C9 C 0.0051 0.0381 0.04677 0.0
O10 O 0.96228 0.12368 0.09698 0.0
C11 C 0.1047 0.02173 0.10525 0.0
O12 O 0.02313 0.12072 0.10724 0.0
O13 O 0.10035 0.05715 0.10278 0.0
C14 C 0.45871 0.96751 0.14279 0.0
O15 O 0.48849 0.96707 0.12852 0.0
Cd16 Cd 0.48901 0.94404 0.08293 0.0
O17 O 0.427 0.95724 0.13289 0.0
Cd18 Cd 0.39548 0.9361 0.09132 0.0
C19 C 0.44721 0.85607 0.09451 0.0
O20 O 0.43556 0.97109 0.06183 0.0
O21 O 0.39751 0.9319 0.04189 0.0
O22 O 0.3505 0.98466 0.10091 0.0
C23 C 0.42369 0.95651 0.03996 0.0
O24 O 0.47572 0.87676 0.08859 0.0
C25 C 0.32133 0.96357 0.0998 0.0
O26 O 0.41452 0.87027 0.09772 0.0
O27 O 0.32648 0.92868 0.09497 0.0
C28 C 0.50022 0.9691 0.29965 0.0
O29 O 0.46969 0.96994 0.31303 0.0
Cd30 Cd 0.46579 0.95059 0.35918 0.0
O31 O 0.53105 0.95976 0.31096 0.0
Cd32 Cd 0.55678 0.94333 0.3555 0.0
C33 C 0.50525 0.86174 0.35399 0.0
O34 O 0.5158 0.9826 0.38222 0.0
O35 O 0.54876 0.94205 0.40439 0.0
O36 O 0.6037 0.992 0.34742 0.0
C37 C 0.52559 0.9691 0.40484 0.0
O38 O 0.47677 0.88277 0.35777 0.0
C39 C 0.63242 0.97158 0.35115 0.0
O40 O 0.53833 0.87603 0.35133 0.0
O41 O 0.62626 0.93688 0.35646 0.0
C42 C 0.98691 0.03335 0.31015 0.0
O43 O 0.01671 0.03499 0.32447 0.0
Cd44 Cd 0.01583 0.05852 0.36993 0.0
O45 O 0.95516 0.04241 0.3201 0.0
Cd46 Cd 0.92524 0.06209 0.36247 0.0
C47 C 0.97397 0.14522 0.35962 0.0
O48 O 0.96521 0.02662 0.39257 0.0
O49 O 0.92897 0.06781 0.41138 0.0
O50 O 0.87958 0.01175 0.35485 0.0
C51 C 0.95265 0.04146 0.41406 0.0
O52 O 0.00303 0.12584 0.36532 0.0
C53 C 0.85045 0.03218 0.35591 0.0
O54 O 0.94173 0.12929 0.35635 0.0
O55 O 0.85588 0.06742 0.35956 0.0
C56 C -0.00825 0.95665 0.80677 0.0
O57 O 0.01864 0.95339 0.82362 0.0
Cd58 Cd 0.00761 0.93089 0.86871 0.0
O59 O 0.95793 0.94891 0.81364 0.0
Cd60 Cd 0.92061 0.9285 0.85265 0.0
C61 C 0.9654 0.84514 0.85492 0.0
O62 O 0.95462 0.96472 0.88652 0.0
O63 O 0.91454 0.92322 0.90143 0.0
O64 O 0.87186 0.97326 0.84104 0.0
C65 C 0.93739 0.95015 0.90647 0.0
O66 O -0.00573 0.86326 0.86365 0.0
C67 C 0.84551 0.94874 0.83938 0.0
O68 O 0.9354 0.8623 0.84835 0.0
O69 O 0.85438 0.91455 0.84336 0.0
C70 C 0.49502 0.02914 0.81523 0.0
O71 O 0.46774 0.02836 0.83187 0.0
Cd72 Cd 0.4754 0.04282 0.87899 0.0
O73 O 0.5285 0.03701 0.82309 0.0
Cd74 Cd 0.56649 0.05228 0.86326 0.0
C75 C 0.51588 0.13186 0.87292 0.0
O76 O 0.5315 0.0109 0.89183 0.0
O77 O 0.57272 0.04566 0.9125 0.0
O78 O 0.61572 0.01209 0.8461 0.0
C79 C 0.54694 0.02059 0.91392 0.0
O80 O 0.48774 0.11096 0.87933 0.0
C81 C 0.64171 0.03704 0.84753 0.0
O82 O 0.54705 0.11764 0.86545 0.0
O83 O 0.63245 0.06957 0.85596 0.0
C84 C 0.49382 0.02708 0.65491 0.0
O85 O 0.52198 0.02918 0.63911 0.0
Cd86 Cd 0.51653 0.04501 0.59248 0.0
O87 O 0.46036 0.03173 0.64605 0.0
Cd88 Cd 0.4261 0.04294 0.60338 0.0
C89 C 0.46886 0.12929 0.59877 0.0
O90 O 0.46688 0.00547 0.57567 0.0
O91 O 0.4281 0.04075 0.55383 0.0
O92 O 0.38171 0.99252 0.61487 0.0
C93 C 0.45324 0.01554 0.55318 0.0
O94 O 0.49893 0.1115 0.59317 0.0
C95 C 0.35218 0.01225 0.61275 0.0
O96 O 0.43825 0.11152 0.60422 0.0
O97 O 0.35695 0.04697 0.60696 0.0
C98 C -0.00688 0.95967 0.64748 0.0
O99 O 0.96557 0.96187 0.63108 0.0
Cd100 Cd 0.97 0.93912 0.58568 0.0
O101 O 0.02495 0.94735 0.63967 0.0
Cd102 Cd 0.05952 0.92586 0.5995 0.0
C103 C 0.0019 0.84844 0.59906 0.0
O104 O 0.02696 0.96537 0.56811 0.0
O105 O 0.06158 0.92251 0.54994 0.0
O106 O 0.10567 0.97288 0.61281 0.0
C107 C 0.04012 0.95062 0.54683 0.0
O108 O 0.97617 0.87108 0.59158 0.0
C109 C 0.13438 0.95191 0.61157 0.0
O110 O 0.03531 0.86046 0.6043 0.0
O111 O 0.12846 0.91736 0.60551 0.0
C112 C 0.49633 0.53034 0.1449 0.0
O113 O 0.46745 0.53032 0.1296 0.0
Cd114 Cd 0.47095 0.55226 0.08385 0.0
O115 O 0.52857 0.5406 0.13603 0.0
Cd116 Cd 0.56392 0.56132 0.09617 0.0
C117 C 0.51119 0.64087 0.09628 0.0
O118 O 0.52637 0.52447 0.06606 0.0
O119 O 0.56552 0.5627 0.04655 0.0
O120 O 0.60924 0.51446 0.10942 0.0
C121 C 0.53977 0.53767 0.0443 0.0
O122 O 0.48325 0.61987 0.08941 0.0
C123 C 0.63807 0.53602 0.1085 0.0
O124 O 0.54368 0.62695 0.10093 0.0
O125 O 0.63252 0.57034 0.10217 0.0
C126 C 0.00085 0.47344 0.15035 0.0
O127 O 0.0273 0.46836 0.13349 0.0
Cd128 Cd 0.01609 0.44442 0.08879 0.0
O129 O 0.96653 0.46785 0.14349 0.0
Cd130 Cd 0.92791 0.44999 0.10388 0.0
C131 C 0.96632 0.363 0.10466 0.0
O132 O 0.96588 0.47963 0.06906 0.0
O133 O 0.92312 0.43982 0.05541 0.0
O134 O 0.88491 0.5019 0.11214 0.0
C135 C 0.94854 0.46388 0.04949 0.0
O136 O -0.00364 0.37884 0.09587 0.0
C137 C 0.8554 0.48132 0.11371 0.0
O138 O 0.9373 0.38238 0.11042 0.0
O139 O 0.85981 0.44587 0.11153 0.0
C140 C 0.01109 0.47481 0.30994 0.0
O141 O 0.98364 0.47306 0.3264 0.0
Cd142 Cd 0.9892 0.45053 0.37173 0.0
O143 O 0.0444 0.46641 0.31751 0.0
Cd144 Cd 0.08013 0.44755 0.35829 0.0
C145 C 0.03093 0.36424 0.35854 0.0
O146 O 0.04297 0.48191 0.39031 0.0
O147 O 0.08153 0.44204 0.40776 0.0
O148 O 0.12626 0.4971 0.3489 0.0
C149 C 0.05687 0.46723 0.41138 0.0
O150 O 0.00259 0.38348 0.36602 0.0
C151 C 0.1549 0.4759 0.3487 0.0
O152 O 0.0626 0.38027 0.35334 0.0
O153 O 0.14882 0.44076 0.35223 0.0
C154 C 0.51368 0.52738 0.3038 0.0
O155 O 0.54303 0.52701 0.3186 0.0
Cd156 Cd 0.54151 0.54648 0.36487 0.0
O157 O 0.48187 0.53681 0.31351 0.0
Cd158 Cd 0.45067 0.55486 0.35574 0.0
C159 C 0.50378 0.63568 0.35696 0.0
O160 O 0.48825 0.51445 0.38378 0.0
O161 O 0.45328 0.55407 0.40512 0.0
O162 O 0.40282 0.50828 0.34374 0.0
C163 C 0.47612 0.52676 0.40613 0.0
O164 O 0.53157 0.61451 0.36259 0.0
C165 C 0.37458 0.52958 0.34666 0.0
O166 O 0.47099 0.62159 0.35243 0.0
O167 O 0.38153 0.56374 0.35321 0.0
C168 C 0.48162 0.45302 0.81751 0.0
O169 O 0.50859 0.45374 0.83453 0.0
Cd170 Cd 0.50023 0.43883 0.88139 0.0
O171 O 0.44804 0.44485 0.82485 0.0
Cd172 Cd 0.41011 0.42868 0.86472 0.0
C173 C 0.46136 0.34949 0.87438 0.0
O174 O 0.44394 0.47087 0.89382 0.0
O175 O 0.40339 0.43491 0.91389 0.0
O176 O 0.35944 0.46743 0.84761 0.0
C177 C 0.42819 0.46092 0.91564 0.0
O178 O 0.48926 0.37045 0.88132 0.0
C179 C 0.33427 0.44166 0.849 0.0
O180 O 0.43026 0.36364 0.86667 0.0
O181 O 0.34469 0.40946 0.85726 0.0
C182 C 0.98226 0.511 0.80509 0.0
O183 O 0.95463 0.51456 0.82119 0.0
Cd184 Cd 0.96278 0.53834 0.86652 0.0
O185 O 0.0157 0.51919 0.81275 0.0
Cd186 Cd 0.05112 0.54135 0.85231 0.0
C187 C 0.00475 0.62419 0.85307 0.0
O188 O 0.01583 0.50723 0.88667 0.0
O189 O 0.05612 0.54926 0.90079 0.0
O190 O 0.10171 0.49754 0.84298 0.0
C191 C 0.03228 0.52352 0.90642 0.0
O192 O 0.97581 0.60595 0.86139 0.0
C193 C 0.12717 0.52291 0.84081 0.0
O194 O 0.03507 0.6072 0.84707 0.0
O195 O 0.11697 0.55695 0.84359 0.0
C196 C 0.98823 0.50999 0.64602 0.0
O197 O 0.01657 0.50852 0.63037 0.0
Cd198 Cd 0.01516 0.53321 0.58526 0.0
O199 O 0.95679 0.52268 0.63764 0.0
Cd200 Cd 0.92357 0.54626 0.59744 0.0
C201 C 0.9821 0.62336 0.59979 0.0
O202 O 0.95837 0.51008 0.56533 0.0
O203 O 0.92253 0.55269 0.54811 0.0
O204 O 0.8765 0.49859 0.60732 0.0
C205 C 0.94607 0.52645 0.54438 0.0
O206 O 0.00819 0.60095 0.59263 0.0
C207 C 0.84829 0.52032 0.60789 0.0
O208 O 0.94843 0.61127 0.60392 0.0
O209 O 0.85488 0.55535 0.60404 0.0
C210 C 0.48627 0.45447 0.65732 0.0
O211 O 0.45844 0.45236 0.64111 0.0
Cd212 Cd 0.46461 0.43675 0.59449 0.0
O213 O 0.51989 0.44959 0.64896 0.0
Cd214 Cd 0.55418 0.43761 0.60646 0.0
C215 C 0.51052 0.35176 0.60058 0.0
O216 O 0.51448 0.47652 0.57846 0.0
O217 O 0.55299 0.44026 0.55718 0.0
O218 O 0.60046 0.48626 0.61879 0.0
C219 C 0.52887 0.46642 0.55623 0.0
O220 O 0.48078 0.36985 0.59455 0.0
C221 C 0.62923 0.46566 0.61581 0.0
O222 O 0.54106 0.36926 0.60677 0.0
O223 O 0.6231 0.43132 0.60945 0.0
H224 H 0.25375 0.92592 0.1014 0.0
H225 H 0.30365 0.03763 0.1056 0.0
H226 H 0.24118 0.06534 0.10868 0.0
H227 H 0.17234 0.05827 0.10835 0.0
H228 H 0.12194 0.94682 0.10456 0.0
H229 H 0.18456 0.91868 0.10333 0.0
C230 C 0.25092 0.95629 0.10311 0.0
C231 C 0.28329 0.97963 0.1031 0.0
C232 C 0.21482 0.97215 0.10491 0.0
C233 C 0.27919 0.01896 0.10549 0.0
C234 C 0.24346 0.0349 0.10723 0.0
C235 C 0.17505 0.02782 0.1074 0.0
C236 C 0.14257 0.00472 0.10639 0.0
C237 C 0.21108 0.01182 0.10668 0.0
C238 C 0.14654 0.96527 0.10533 0.0
C239 C 0.18234 0.94913 0.10456 0.0
H240 H 0.69975 0.93494 0.35304 0.0
H241 H 0.65147 0.04603 0.34739 0.0
H242 H 0.71441 0.07464 0.348 0.0
H243 H 0.78329 0.06843 0.35133 0.0
H244 H 0.83177 0.95736 0.3559 0.0
H245 H 0.76885 0.92861 0.35443 0.0
C246 C 0.70304 0.96538 0.35185 0.0
C247 C 0.67093 0.98825 0.35029 0.0
C248 C 0.73941 0.98176 0.35206 0.0
C249 C 0.67569 0.02769 0.34861 0.0
C250 C 0.7117 0.04415 0.349 0.0
C251 C 0.78007 0.03794 0.35193 0.0
C252 C 0.81217 0.01515 0.35385 0.0
C253 C 0.74377 0.0215 0.35091 0.0
C254 C 0.80753 0.97563 0.35442 0.0
C255 C 0.77153 0.95911 0.35363 0.0
H256 H 0.81763 0.01965 0.83929 0.0
H257 H 0.78455 0.90252 0.83054 0.0
H258 H 0.71813 0.92029 0.82944 0.0
H259 H 0.66966 0.96827 0.8354 0.0
H260 H 0.70263 0.08502 0.8466 0.0
H261 H 0.76905 0.06822 0.84205 0.0
C262 C 0.79591 -0.00194 0.83677 0.0
C263 C 0.80591 0.95982 0.83524 0.0
C264 C 0.75782 0.00837 0.83679 0.0
C265 C 0.77751 0.93215 0.83196 0.0
C266 C 0.73955 0.94227 0.83137 0.0
C267 C 0.69134 0.99013 0.83651 0.0
C268 C 0.68132 0.02776 0.84159 0.0
C269 C 0.72939 0.98017 0.83447 0.0
C270 C 0.70968 0.05579 0.8429 0.0
C271 C 0.74764 0.04621 0.84034 0.0
H272 H 0.20165 0.91476 0.61331 0.0
H273 H 0.15337 0.02599 0.61782 0.0
H274 H 0.21626 0.0544 0.61962 0.0
H275 H 0.28508 0.04821 0.61732 0.0
H276 H 0.33392 0.93725 0.61394 0.0
H277 H 0.27094 0.90836 0.61447 0.0
C278 C 0.20493 0.94517 0.61492 0.0
C279 C 0.17281 0.96814 0.61521 0.0
C280 C 0.24134 0.96149 0.61603 0.0
C281 C 0.17756 0.00754 0.61748 0.0
C282 C 0.21357 0.02392 0.61845 0.0
C283 C 0.28194 0.01771 0.61689 0.0
C284 C 0.31411 -0.00502 0.61537 0.0
C285 C 0.24566 0.00124 0.61732 0.0
C286 C 0.30959 0.95545 0.61508 0.0
C287 C 0.27357 0.93886 0.6153 0.0
H288 H 0.78851 0.44437 0.12042 0.0
H289 H 0.83723 0.55599 0.11193 0.0
H290 H 0.77419 0.58325 0.11096 0.0
H291 H 0.70506 0.57487 0.10947 0.0
H292 H 0.65684 0.46299 0.11811 0.0
H293 H 0.71977 0.4365 0.1222 0.0
C294 C 0.78536 0.47469 0.1186 0.0
C295 C 0.81748 0.49805 0.11603 0.0
C296 C 0.74907 0.49017 0.11793 0.0
C297 C 0.81293 0.53733 0.11388 0.0
C298 C 0.77688 0.55296 0.11323 0.0
C299 C 0.70834 0.54475 0.11246 0.0
C300 C 0.6763 0.52096 0.11323 0.0
C301 C 0.74472 0.52958 0.11475 0.0
C302 C 0.68101 0.48199 0.11731 0.0
C303 C 0.71702 0.46674 0.11962 0.0
H304 H 0.30846 0.56847 0.34753 0.0
H305 H 0.35318 0.45608 0.33993 0.0
H306 H 0.28935 0.42958 0.3389 0.0
H307 H 0.22074 0.43785 0.34236 0.0
H308 H 0.17578 0.55022 0.34907 0.0
H309 H 0.23956 0.57704 0.34807 0.0
C310 C 0.30421 0.53822 0.34547 0.0
C311 C 0.33559 0.51434 0.344 0.0
C312 C 0.26731 0.52306 0.3448 0.0
C313 C 0.32957 0.47518 0.34115 0.0
C314 C 0.29303 0.45992 0.34062 0.0
C315 C 0.22489 0.46821 0.34343 0.0
C316 C 0.19354 0.49192 0.34597 0.0
C317 C 0.26169 0.48352 0.34277 0.0
C318 C 0.19941 0.53125 0.34714 0.0
C319 C 0.23592 0.54667 0.34664 0.0
H320 H 0.15761 0.45303 0.84138 0.0
H321 H 0.18656 0.57109 0.83223 0.0
H322 H 0.25357 0.55565 0.83124 0.0
H323 H 0.30378 0.50943 0.83708 0.0
H324 H 0.27496 0.39172 0.84834 0.0
H325 H 0.20792 0.40622 0.84412 0.0
C326 C 0.17856 0.47534 0.83883 0.0
C327 C 0.1672 0.51316 0.83712 0.0
C328 C 0.21701 0.46636 0.83882 0.0
C329 C 0.19463 0.54176 0.83378 0.0
C330 C 0.23294 0.53297 0.83325 0.0
C331 C 0.28287 0.48686 0.83827 0.0
C332 C 0.29426 0.44963 0.84325 0.0
C333 C 0.24444 0.49549 0.83638 0.0
C334 C 0.26686 0.42067 0.84469 0.0
C335 C 0.22854 0.42894 0.84233 0.0
H336 H 0.69545 0.42764 0.61486 0.0
H337 H 0.64996 0.53984 0.62092 0.0
H338 H 0.71371 0.56693 0.61986 0.0
H339 H 0.78247 0.55888 0.61474 0.0
H340 H 0.8274 0.44629 0.60947 0.0
H341 H 0.76399 0.41942 0.61277 0.0
C342 C 0.69949 0.458 0.61617 0.0
C343 C 0.66798 0.48164 0.6178 0.0
C344 C 0.73621 0.47342 0.61554 0.0
C345 C 0.67373 0.52094 0.61964 0.0
C346 C 0.7102 0.53651 0.61894 0.0
C347 C 0.77836 0.52849 0.61447 0.0
C348 C 0.80966 0.50472 0.61166 0.0
C349 C 0.74166 0.51305 0.61649 0.0
C350 C 0.80386 0.46534 0.61155 0.0
C351 C 0.76755 0.44986 0.61339 0.0
H352 H 0.92862 0.02489 0.27482 0.0
H353 H 0.05029 0.01989 0.28028 0.0
H354 H 0.0543 0.01287 0.23127 0.0
H355 H 0.0239 0.01591 0.18693 0.0
H356 H 0.90244 0.02368 0.18129 0.0
H357 H 0.89774 0.02118 0.23052 0.0
C358 C 0.95603 0.02184 0.26536 0.0
C359 C 0.98915 0.02361 0.28114 0.0
C360 C 0.95818 0.01849 0.23718 0.0
C361 C 0.02437 0.01902 0.26859 0.0
C362 C 0.0267 0.01508 0.24056 0.0
C363 C -0.00369 0.01656 0.1964 0.0
C364 C 0.96362 0.02067 0.18048 0.0
C365 C -0.00612 0.01599 0.22465 0.0
C366 C 0.92809 0.02085 0.19308 0.0
C367 C 0.92538 0.0196 0.22123 0.0
H368 H 0.52192 0.97375 0.1738 0.0
H369 H 0.40036 0.98185 0.177 0.0
H370 H 0.40302 0.98744 0.22609 0.0
H371 H 0.43902 0.98265 0.26812 0.0
H372 H 0.56034 0.97164 0.26513 0.0
H373 H 0.55855 0.975 0.2159 0.0
C374 C 0.49607 0.97738 0.18519 0.0
C375 C 0.461 0.97683 0.17182 0.0
C376 C 0.49768 0.97969 0.21346 0.0
C377 C 0.42773 0.98169 0.18685 0.0
C378 C 0.42919 0.98485 0.21493 0.0
C379 C 0.46515 0.98148 0.25676 0.0
C380 C 0.49965 0.97631 0.27026 0.0
C381 C 0.46389 0.98268 0.22847 0.0
C382 C 0.53329 0.97517 0.25522 0.0
C383 C 0.53233 0.97706 0.22705 0.0
H384 H 0.04687 0.96346 0.68665 0.0
H385 H 0.92702 0.97594 0.67321 0.0
H386 H 0.91685 0.98105 0.72184 0.0
H387 H 0.94089 0.97413 0.76792 0.0
H388 H 0.06041 0.95957 0.7815 0.0
H389 H 0.07184 0.96376 0.7329 0.0
C390 C 0.01855 0.96774 0.69431 0.0
C391 C 0.98766 0.96858 0.67637 0.0
C392 C 0.01281 0.97008 0.72227 0.0
C393 C 0.95126 0.97481 0.6866 0.0
C394 C 0.94538 0.97763 0.71441 0.0
C395 C 0.96953 0.97234 0.76031 0.0
C396 C -0.00034 0.96582 0.77823 0.0
C397 C 0.97579 0.97406 0.73241 0.0
C398 C 0.03667 0.96428 0.7681 0.0
C399 C 0.04321 0.96649 0.74032 0.0
H400 H 0.44058 0.02149 0.69422 0.0
H401 H 0.56125 0.02019 0.6813 0.0
H402 H 0.57189 0.01765 0.72997 0.0
H403 H 0.54731 0.02089 0.77592 0.0
H404 H 0.42681 0.02352 0.78919 0.0
H405 H 0.41579 0.02004 0.74045 0.0
C406 C 0.46921 0.02032 0.70201 0.0
C407 C 0.50006 0.0215 0.68415 0.0
C408 C 0.47519 0.01927 0.73001 0.0
C409 C 0.53697 0.01959 0.69459 0.0
C410 C 0.54312 0.01821 0.72242 0.0
C411 C 0.51858 0.02045 0.76822 0.0
C412 C 0.48795 0.02295 0.78613 0.0
C413 C 0.51248 0.01887 0.74028 0.0
C414 C 0.45092 0.02181 0.77581 0.0
C415 C 0.44458 0.01994 0.74795 0.0
H416 H 0.55285 0.51799 0.18059 0.0
H417 H 0.43126 0.52239 0.17421 0.0
H418 H 0.42593 0.51746 0.22332 0.0
H419 H 0.45611 0.51957 0.26789 0.0
H420 H 0.57783 0.51731 0.27413 0.0
H421 H 0.58272 0.51334 0.225 0.0
C422 C 0.52512 0.51747 0.18988 0.0
C423 C 0.49253 0.52127 0.17385 0.0
C424 C 0.52231 0.5153 0.21804 0.0
C425 C 0.45681 0.51981 0.18614 0.0
C426 C 0.45374 0.51715 0.21421 0.0
C427 C 0.48373 0.51782 0.25855 0.0
C428 C 0.51658 0.51946 0.2746 0.0
C429 C 0.48636 0.51612 0.23035 0.0
C430 C 0.55211 0.51647 0.26222 0.0
C431 C 0.55494 0.5143 0.23414 0.0
H432 H 0.0625 0.4802 0.26933 0.0
H433 H 0.94311 0.48874 0.28583 0.0
H434 H 0.92998 0.49369 0.23756 0.0
H435 H 0.95154 0.48823 0.19082 0.0
H436 H 0.07067 0.47771 0.17416 0.0
H437 H 0.0847 0.4815 0.22244 0.0
C438 C 0.03363 0.48363 0.26243 0.0
C439 C 0.0038 0.48345 0.28117 0.0
C440 C 0.02617 0.48588 0.23462 0.0
C441 C 0.96662 0.4884 0.27186 0.0
C442 C 0.95903 0.49115 0.24423 0.0
C443 C 0.98065 0.48725 0.19767 0.0
C444 C 0.00993 0.48205 0.17892 0.0
C445 C 0.98847 0.48876 0.22544 0.0
C446 C 0.04752 0.48139 0.18816 0.0
C447 C 0.05558 0.4834 0.21579 0.0
H448 H 0.53865 0.46064 0.69741 0.0
H449 H 0.41828 0.46151 0.68267 0.0
H450 H 0.40656 0.46439 0.73115 0.0
H451 H 0.43014 0.46133 0.77748 0.0
H452 H 0.55035 0.45913 0.79255 0.0
H453 H 0.56242 0.46255 0.744 0.0
C454 C 0.50985 0.4618 0.70476 0.0
C455 C 0.4794 0.46035 0.68644 0.0
C456 C 0.50325 0.46305 0.73267 0.0
C457 C 0.44226 0.46228 0.69632 0.0
C458 C 0.4355 0.46387 0.72405 0.0
C459 C 0.45903 0.46187 0.77021 0.0
C460 C 0.48928 0.45945 0.78857 0.0
C461 C 0.46575 0.4634 0.74237 0.0
C462 C 0.52653 0.46075 0.77882 0.0
C463 C 0.53346 0.46259 0.75107 0.0
H464 H 0.03487 0.49342 0.76761 0.0
H465 H 0.91474 0.50736 0.77802 0.0
H466 H 0.90555 0.50343 0.72912 0.0
H467 H 0.93265 0.50469 0.68359 0.0
H468 H 0.05312 0.49306 0.67334 0.0
H469 H 0.06103 0.48702 0.72216 0.0
C470 C 0.00657 0.49508 0.75924 0.0
C471 C 0.97563 0.50141 0.77638 0.0
C472 C 0.0016 0.49358 0.73116 0.0
C473 C 0.93909 0.50279 0.76526 0.0
C474 C 0.93383 0.50075 0.73729 0.0
C475 C 0.96061 0.50035 0.69197 0.0
C476 C -0.00767 0.50008 0.67488 0.0
C477 C 0.96505 0.49754 0.72005 0.0
C478 C 0.02826 0.49376 0.68604 0.0
C479 C 0.03284 0.49042 0.71397 0.0
H480 H 0.93408 0.18761 0.10808 0.0
H481 H 0.05594 0.1856 0.10495 0.0
H482 H 0.05827 0.25451 0.10598 0.0
H483 H 0.02568 0.3152 0.10558 0.0
H484 H 0.90391 0.31735 0.10962 0.0
H485 H 0.90164 0.24839 0.11059 0.0
C486 C 0.96117 0.20222 0.10772 0.0
C487 C -0.00523 0.18147 0.10619 0.0
C488 C 0.96233 0.24183 0.10842 0.0
C489 C 0.02964 0.20086 0.10609 0.0
C490 C 0.03101 0.24027 0.1066 0.0
C491 C -0.00138 0.30061 0.10676 0.0
C492 C 0.965 0.3214 0.10727 0.0
C493 C -0.00247 0.26102 0.10741 0.0
C494 C 0.93022 0.30205 0.10918 0.0
C495 C 0.92888 0.26261 0.10965 0.0
H496 H 0.51356 0.81885 0.09854 0.0
H497 H 0.39277 0.80054 0.09614 0.0
H498 H 0.40208 0.73229 0.09734 0.0
H499 H 0.44451 0.67805 0.09713 0.0
H500 H 0.56528 0.69648 0.10002 0.0
H501 H 0.55586 0.7647 0.10068 0.0
C502 C 0.4892 0.79998 0.09834 0.0
C503 C 0.45251 0.81482 0.09701 0.0
C504 C 0.49475 0.76086 0.09906 0.0
C505 C 0.42131 0.78991 0.09712 0.0
C506 C 0.42662 0.75088 0.09773 0.0
C507 C 0.46883 0.69694 0.09796 0.0
C508 C 0.50558 0.68214 0.09828 0.0
C509 C 0.46322 0.73608 0.09838 0.0
C510 C 0.5367 0.70707 0.09971 0.0
C511 C 0.53134 0.74609 0.10002 0.0
H512 H 0.45112 0.69104 0.35213 0.0
H513 H 0.57131 0.6737 0.35895 0.0
H514 H 0.58256 0.74166 0.35773 0.0
H515 H 0.55839 0.8064 0.35571 0.0
H516 H 0.43808 0.82363 0.34999 0.0
H517 H 0.42701 0.75564 0.34972 0.0
C518 C 0.47978 0.70208 0.35326 0.0
C519 C 0.51022 0.67714 0.35568 0.0
C520 C 0.48616 0.74135 0.35278 0.0
C521 C 0.54721 0.69211 0.35719 0.0
C522 C 0.55376 0.73107 0.35647 0.0
C523 C 0.52977 0.79529 0.35426 0.0
C524 C 0.49919 0.82022 0.35293 0.0
C525 C 0.52345 0.756 0.3544 0.0
C526 C 0.46224 0.80522 0.35118 0.0
C527 C 0.45581 0.76625 0.351 0.0
H528 H 0.96559 0.32317 0.358 0.0
H529 H 0.08677 0.31165 0.35437 0.0
H530 H 0.07961 0.24291 0.35362 0.0
H531 H 0.03913 0.18626 0.35575 0.0
H532 H 0.91791 0.19784 0.35863 0.0
H533 H 0.925 0.26655 0.35779 0.0
C534 C -0.00951 0.30568 0.35699 0.0
C535 C 0.02671 0.32261 0.35647 0.0
C536 C 0.98617 0.26622 0.35647 0.0
C537 C 0.05858 0.29943 0.35482 0.0
C538 C 0.05451 0.26011 0.35446 0.0
C539 C 0.0142 0.20376 0.35614 0.0
C540 C 0.97802 0.18684 0.35748 0.0
C541 C 0.01847 0.24322 0.35556 0.0
C542 C 0.94607 0.21003 0.35762 0.0
C543 C 0.95011 0.24935 0.35722 0.0
H544 H 0.94269 0.66848 0.85191 0.0
H545 H 0.06461 0.67322 0.85067 0.0
H546 H 0.06317 0.74209 0.85083 0.0
H547 H 0.02738 0.80089 0.85287 0.0
H548 H 0.90546 0.79621 0.85255 0.0
H549 H 0.90686 0.72733 0.85139 0.0
C550 C 0.96894 0.68459 0.85161 0.0
C551 C 0.00367 0.66578 0.85148 0.0
C552 C 0.96794 0.72415 0.85149 0.0
C553 C 0.03746 0.68702 0.85075 0.0
C554 C 0.0367 0.7264 0.85093 0.0
C555 C 0.00113 0.78478 0.85252 0.0
C556 C 0.9664 0.80358 0.85301 0.0
C557 C 0.00211 0.74524 0.85157 0.0
C558 C 0.93259 0.78238 0.85218 0.0
C559 C 0.93334 0.743 0.85158 0.0
H560 H 0.52634 0.30963 0.87539 0.0
H561 H 0.40494 0.29641 0.87439 0.0
H562 H 0.4112 0.22785 0.87464 0.0
H563 H 0.45104 0.1718 0.87443 0.0
H564 H 0.57245 0.18492 0.87344 0.0
H565 H 0.56623 0.2535 0.87469 0.0
C566 C 0.50125 0.29174 0.87537 0.0
C567 C 0.46525 0.30806 0.87494 0.0
C568 C 0.50503 0.25239 0.87509 0.0
C569 C 0.433 0.28453 0.87463 0.0
C570 C 0.43653 0.24534 0.87481 0.0
C571 C 0.47616 0.18964 0.87461 0.0
C572 C 0.51213 0.1733 0.87391 0.0
C573 C 0.4724 0.22899 0.87494 0.0
C574 C 0.5444 0.19681 0.87388 0.0
C575 C 0.54089 0.23601 0.87464 0.0
H576 H 0.53114 0.17486 0.59971 0.0
H577 H 0.40924 0.17789 0.59906 0.0
H578 H 0.41152 0.24691 0.59932 0.0
H579 H 0.4481 0.30626 0.59955 0.0
H580 H 0.56997 0.30308 0.60168 0.0
H581 H 0.56765 0.23411 0.60105 0.0
C582 C 0.50501 0.19056 0.59956 0.0
C583 C 0.47004 0.17116 0.59922 0.0
C584 C 0.50653 0.23019 0.59999 0.0
C585 C 0.43653 0.19205 0.59933 0.0
C586 C 0.43781 0.23153 0.59944 0.0
C587 C 0.4742 0.29053 0.59982 0.0
C588 C 0.50919 0.30989 0.60053 0.0
C589 C 0.47265 0.25088 0.59973 0.0
C590 C 0.54267 0.28897 0.60116 0.0
C591 C 0.54137 0.2495 0.60075 0.0
H592 H 0.05004 0.78905 0.60389 0.0
H593 H 0.9316 0.81617 0.59933 0.0
H594 H 0.91484 0.74931 0.60082 0.0
H595 H 0.93366 0.68276 0.60131 0.0
H596 H 0.05216 0.65557 0.60423 0.0
H597 H 0.0688 0.7225 0.60565 0.0
C598 C 0.02057 0.78035 0.60342 0.0
C599 C -0.00777 0.80769 0.60137 0.0
C600 C 0.01101 0.74169 0.60391 0.0
C601 C 0.95412 0.79581 0.60069 0.0
C602 C 0.94442 0.75751 0.60159 0.0
C603 C 0.96309 0.69147 0.60252 0.0
C604 C -0.00847 0.66411 0.60256 0.0
C605 C 0.97261 0.73015 0.60288 0.0
C606 C 0.0296 0.67598 0.60397 0.0
C607 C 0.03922 0.71431 0.6048 0.0
H608 H 0.98452 0.00664 0.92237 0.0
H609 H 0.90703 0.9221 0.95307 0.0
H610 H 0.92049 0.94257 -0.00066 0.0
H611 H 0.95519 0.98366 0.03099 0.0
H612 H 0.03285 0.06793 6e-05 0.0
H613 H 0.01822 0.0484 0.95385 0.0
C614 C 0.97053 0.99271 0.93917 0.0
C615 C 0.94496 0.96285 0.93435 0.0
C616 C 0.9784 0.00456 0.96563 0.0
C617 C 0.92693 0.94514 0.9563 0.0
C618 C 0.93459 0.95681 -0.01726 0.0
C619 C 0.96881 -0.00217 0.01413 0.0
C620 C -0.0049 0.0271 0.01891 0.0
C621 C 0.96041 0.98637 -0.01237 0.0
C622 C 0.01252 0.04525 -0.00311 0.0
C623 C 0.00421 0.0341 0.97047 0.0
H624 H 0.48568 0.97574 0.92172 0.0
H625 H 0.5712 0.04029 0.9645 0.0
H626 H 0.54036 0.02586 0.00747 0.0
H627 H 0.48796 -0.00298 0.03247 0.0
H628 H 0.40226 0.93278 -0.01035 0.0
H629 H 0.43437 0.94528 0.94685 0.0
C630 C 0.49776 0.98641 0.94046 0.0
C631 C 0.53054 0.00915 0.93998 0.0
C632 C 0.47971 0.97841 0.96495 0.0
C633 C 0.54591 0.02277 0.96439 0.0
C634 C 0.52825 0.01466 -0.01108 0.0
C635 C 0.47625 0.98582 0.01377 0.0
C636 C 0.44271 0.96424 0.01412 0.0
C637 C 0.49489 0.99294 -0.01064 0.0
C638 C 0.42803 0.94959 -0.01018 0.0
C639 C 0.44637 0.95666 0.96539 0.0
H640 H 0.43714 0.03993 0.50251 0.0
H641 H 0.50552 0.96064 0.5466 0.0
H642 H 0.53396 0.93929 0.50448 0.0
H643 H 0.54003 0.94371 0.45535 0.0
H644 H 0.47226 0.02334 0.41112 0.0
H645 H 0.44304 0.04414 0.45319 0.0
C646 C 0.45816 0.01789 0.50287 0.0
C647 C 0.46924 0.00191 0.52757 0.0
C648 C 0.47462 0.00594 0.47863 0.0
C649 C 0.49656 0.97343 0.52779 0.0
C650 C 0.51288 0.96122 0.50375 0.0
C651 C 0.51888 0.96562 0.45491 0.0
C652 C 0.50834 0.98199 0.43023 0.0
C653 C 0.50224 0.97741 0.47909 0.0
C654 C 0.4809 0.01035 0.42993 0.0
C655 C 0.46414 0.02222 0.45394 0.0
H656 H -0.00859 0.00666 0.53561 0.0
H657 H 0.06264 0.92393 0.49765 0.0
H658 H 0.04204 0.94521 0.45304 0.0
H659 H 0.00322 0.98672 0.42504 0.0
H660 H 0.93171 0.06906 0.46322 0.0
H661 H 0.95314 0.04842 0.50771 0.0
C662 C 0.00251 0.99331 0.51759 0.0
C663 C 0.02844 0.96375 0.51988 0.0
C664 C -0.00951 0.00555 0.49212 0.0
C665 C 0.04259 0.94673 0.49637 0.0
C666 C 0.03083 0.95886 0.47089 0.0
C667 C -0.00764 0.00018 0.44309 0.0
C668 C 0.96592 0.02932 0.44088 0.0
C669 C 0.00469 0.98814 0.46856 0.0
C670 C 0.95209 0.04653 0.46442 0.0
C671 C 0.9643 0.03477 0.48985 0.0
H672 H 0.47812 0.49372 0.03547 0.0
H673 H 0.56371 0.55945 -0.00578 0.0
H674 H 0.53534 0.54278 0.95061 0.0
H675 H 0.48721 0.50851 0.92444 0.0
H676 H 0.4019 0.44245 0.96576 0.0
H677 H 0.42911 0.46074 0.00938 0.0
C678 C 0.49062 0.50436 0.01694 0.0
C679 C 0.52303 0.52758 0.01798 0.0
C680 C 0.47416 0.4948 -0.00792 0.0
C681 C 0.53878 0.54142 -0.00613 0.0
C682 C 0.52258 0.53196 0.96898 0.0
C683 C 0.4744 0.4983 0.94299 0.0
C684 C 0.44271 0.47409 0.94194 0.0
C685 C 0.49036 0.50858 0.96788 0.0
C686 C 0.42638 0.46108 0.9661 0.0
C687 C 0.44196 0.47143 -0.009 0.0
H688 H 0.00491 0.50972 0.03171 0.0
H689 H 0.91694 0.43349 0.00389 0.0
H690 H 0.9357 0.44458 0.95706 0.0
H691 H 0.97679 0.47628 0.92408 0.0
H692 H 0.06448 0.55273 0.95206 0.0
H693 H 0.04616 0.54101 -0.00115 0.0
C694 C 0.98981 0.49556 0.0154 0.0
C695 C 0.95959 0.47089 0.02122 0.0
C696 C 0.00073 0.502 -0.01141 0.0
C697 C 0.94033 0.45267 -9e-05 0.0
C698 C 0.95104 0.45895 0.97314 0.0
C699 C -0.00803 0.49025 0.94043 0.0
C700 C 0.0219 0.51532 0.93465 0.0
C701 C 0.98119 0.48357 0.96726 0.0
C702 C 0.04128 0.53331 0.95601 0.0
C703 C 0.03083 0.52668 -0.01724 0.0
H704 H 0.00419 0.48027 0.53252 0.0
H705 H 0.92397 0.55578 0.49597 0.0
H706 H 0.95186 0.5446 0.45158 0.0
H707 H -0.00103 0.51356 0.42333 0.0
H708 H 0.07935 0.4382 0.45985 0.0
H709 H 0.0515 0.44941 0.50426 0.0
C710 C -0.0073 0.49417 0.51482 0.0
C711 C 0.96204 0.51874 0.51747 0.0
C712 C 0.00899 0.48783 0.48946 0.0
C713 C 0.94757 0.5367 0.49442 0.0
C714 C 0.96352 0.53038 0.46906 0.0
C715 C 0.0105 0.49968 0.44101 0.0
C716 C 0.04115 0.4751 0.43834 0.0
C717 C -0.00572 0.5061 0.46639 0.0
C718 C 0.05575 0.45727 0.46141 0.0
C719 C 0.03981 0.4636 0.48678 0.0
H720 H 0.55045 0.44594 0.50583 0.0
H721 H 0.47746 0.52211 0.54883 0.0
H722 H 0.45471 0.54763 0.50605 0.0
H723 H 0.45526 0.54799 0.45653 0.0
H724 H 0.52795 0.4715 0.41354 0.0
H725 H 0.55107 0.44636 0.45633 0.0
C726 C 0.52961 0.46816 0.50583 0.0
C727 C 0.51564 0.4821 0.53039 0.0
C728 C 0.51655 0.48259 0.48122 0.0
C729 C 0.48863 0.51087 0.53013 0.0
C730 C 0.47558 0.52548 0.50571 0.0
C731 C 0.47617 0.52583 0.45654 0.0
C732 C 0.48987 0.51162 0.43198 0.0
C733 C 0.4893 0.51148 0.48115 0.0
C734 C 0.51693 0.48289 0.43224 0.0
C735 C 0.53019 0.46851 0.45667 0.0
loop_
_geom_bond_atom_site_label_1
_geom_bond_atom_site_label_2
_geom_bond_distance
_geom_bond_site_symmetry_2
_ccdc_geom_bond_type
C0 O1 1.306 . S
C0 O3 1.160 . S
O1 C0 1.306 . S
O1 Cd2 2.228 1_455 S
Cd2 O1 2.228 1_655 S
Cd2 O6 2.273 1_655 S
Cd2 O10 2.277 1_655 S
O3 C0 1.160 . S
O3 Cd4 2.203 . S
Cd4 O3 2.203 . S
Cd4 O6 2.411 . S
Cd4 O7 2.333 . S
Cd4 O8 2.352 . S
Cd4 O12 2.277 . S
Cd4 O13 2.356 . S
C5 O10 1.209 . S
C5 O12 1.226 . S
O6 Cd2 2.273 1_455 S
O6 Cd4 2.411 . S
O6 C9 1.320 . S
O7 Cd4 2.333 . S
O7 C9 1.214 . S
O8 Cd4 2.352 . S
O8 C11 1.258 . S
C9 O6 1.320 . S
C9 O7 1.214 . S
O10 Cd2 2.277 1_455 S
O10 C5 1.209 . S
C11 O8 1.258 . S
C11 O13 1.282 . S
O12 Cd4 2.277 . S
O12 C5 1.226 . S
O13 Cd4 2.356 . S
O13 C11 1.282 . S
C14 O15 1.306 . S
C14 O17 1.160 . S
O15 C14 1.306 . S
O15 Cd16 2.228 . S
Cd16 O15 2.228 . S
Cd16 O20 2.273 . S
Cd16 O24 2.277 . S
O17 C14 1.160 . S
O17 Cd18 2.203 . S
Cd18 O17 2.203 . S
Cd18 O20 2.411 . S
Cd18 O21 2.333 . S
Cd18 O22 2.352 . S
Cd18 O26 2.277 . S
Cd18 O27 2.356 . S
C19 O24 1.209 . S
C19 O26 1.226 . S
O20 Cd16 2.273 . S
O20 Cd18 2.411 . S
O20 C23 1.320 . S
O21 Cd18 2.333 . S
O21 C23 1.214 . S
O22 Cd18 2.352 . S
O22 C25 1.258 . S
C23 O20 1.320 . S
C23 O21 1.214 . S
O24 Cd16 2.277 . S
O24 C19 1.209 . S
C25 O22 1.258 . S
C25 O27 1.282 . S
O26 Cd18 2.277 . S
O26 C19 1.226 . S
O27 Cd18 2.356 . S
O27 C25 1.282 . S
C28 O29 1.306 . S
C28 O31 1.160 . S
O29 C28 1.306 . S
O29 Cd30 2.228 . S
Cd30 O29 2.228 . S
Cd30 O34 2.273 . S
Cd30 O38 2.277 . S
O31 C28 1.160 . S
O31 Cd32 2.203 . S
Cd32 O31 2.203 . S
Cd32 O34 2.411 . S
Cd32 O35 2.333 . S
Cd32 O36 2.352 . S
Cd32 O40 2.277 . S
Cd32 O41 2.356 . S
C33 O38 1.209 . S
C33 O40 1.226 . S
O34 Cd30 2.273 . S
O34 Cd32 2.411 . S
O34 C37 1.320 . S
O35 Cd32 2.333 . S
O35 C37 1.214 . S
O36 Cd32 2.352 . S
O36 C39 1.258 . S
C37 O34 1.320 . S
C37 O35 1.214 . S
O38 Cd30 2.277 . S
O38 C33 1.209 . S
C39 O36 1.258 . S
C39 O41 1.282 . S
O40 Cd32 2.277 . S
O40 C33 1.226 . S
O41 Cd32 2.356 . S
O41 C39 1.282 . S
C42 O43 1.306 . S
C42 O45 1.160 . S
O43 C42 1.306 . S
O43 Cd44 2.228 1_655 S
Cd44 O43 2.228 1_455 S
Cd44 O48 2.273 1_455 S
Cd44 O52 2.277 1_455 S
O45 C42 1.160 . S
O45 Cd46 2.203 . S
Cd46 O45 2.203 . S
Cd46 O48 2.411 . S
Cd46 O49 2.333 . S
Cd46 O50 2.352 . S
Cd46 O54 2.277 . S
Cd46 O55 2.356 . S
C47 O52 1.209 . S
C47 O54 1.226 . S
O48 Cd44 2.273 1_655 S
O48 Cd46 2.411 . S
O48 C51 1.320 . S
O49 Cd46 2.333 . S
O49 C51 1.214 . S
O50 Cd46 2.352 . S
O50 C53 1.258 . S
C51 O48 1.320 . S
C51 O49 1.214 . S
O52 Cd44 2.277 1_655 S
O52 C47 1.209 . S
C53 O50 1.258 . S
C53 O55 1.282 . S
O54 Cd46 2.277 . S
O54 C47 1.226 . S
O55 Cd46 2.356 . S
O55 C53 1.282 . S
C56 O57 1.306 . S
C56 O59 1.160 . S
O57 C56 1.306 . S
O57 Cd58 2.228 1_655 S
Cd58 O57 2.228 1_455 S
Cd58 O62 2.273 1_455 S
Cd58 O66 2.277 1_455 S
O59 C56 1.160 . S
O59 Cd60 2.203 . S
Cd60 O59 2.203 . S
Cd60 O62 2.411 . S
Cd60 O63 2.333 . S
Cd60 O64 2.352 . S
Cd60 O68 2.277 . S
Cd60 O69 2.356 . S
C61 O66 1.209 . S
C61 O68 1.226 . S
O62 Cd58 2.273 1_655 S
O62 Cd60 2.411 . S
O62 C65 1.320 . S
O63 Cd60 2.333 . S
O63 C65 1.214 . S
O64 Cd60 2.352 . S
O64 C67 1.258 . S
C65 O62 1.320 . S
C65 O63 1.214 . S
O66 Cd58 2.277 1_655 S
O66 C61 1.209 . S
C67 O64 1.258 . S
C67 O69 1.282 . S
O68 Cd60 2.277 . S
O68 C61 1.226 . S
O69 Cd60 2.356 . S
O69 C67 1.282 . S
C70 O71 1.306 . S
C70 O73 1.160 . S
O71 C70 1.306 . S
O71 Cd72 2.228 . S
Cd72 O71 2.228 . S
Cd72 O76 2.273 . S
Cd72 O80 2.277 . S
O73 C70 1.160 . S
O73 Cd74 2.203 . S
Cd74 O73 2.203 . S
Cd74 O76 2.411 . S
Cd74 O77 2.333 . S
Cd74 O78 2.352 . S
Cd74 O82 2.277 . S
Cd74 O83 2.356 . S
C75 O80 1.209 . S
C75 O82 1.226 . S
O76 Cd72 2.273 . S
O76 Cd74 2.411 . S
O76 C79 1.320 . S
O77 Cd74 2.333 . S
O77 C79 1.214 . S
O78 Cd74 2.352 . S
O78 C81 1.258 . S
C79 O76 1.320 . S
C79 O77 1.214 . S
O80 Cd72 2.277 . S
O80 C75 1.209 . S
C81 O78 1.258 . S
C81 O83 1.282 . S
O82 Cd74 2.277 . S
O82 C75 1.226 . S
O83 Cd74 2.356 . S
O83 C81 1.282 . S
C84 O85 1.306 . S
C84 O87 1.160 . S
O85 C84 1.306 . S
O85 Cd86 2.228 . S
Cd86 O85 2.228 . S
Cd86 O90 2.273 . S
Cd86 O94 2.277 . S
O87 C84 1.160 . S
O87 Cd88 2.203 . S
Cd88 O87 2.203 . S
Cd88 O90 2.411 . S
Cd88 O91 2.333 . S
Cd88 O92 2.352 . S
Cd88 O96 2.277 . S
Cd88 O97 2.356 . S
C89 O94 1.209 . S
C89 O96 1.226 . S
O90 Cd86 2.273 . S
O90 Cd88 2.411 . S
O90 C93 1.320 . S
O91 Cd88 2.333 . S
O91 C93 1.214 . S
O92 Cd88 2.352 . S
O92 C95 1.258 . S
C93 O90 1.320 . S
C93 O91 1.214 . S
O94 Cd86 2.277 . S
O94 C89 1.209 . S
C95 O92 1.258 . S
C95 O97 1.282 . S
O96 Cd88 2.277 . S
O96 C89 1.226 . S
O97 Cd88 2.356 . S
O97 C95 1.282 . S
C98 O99 1.306 . S
C98 O101 1.160 . S
O99 C98 1.306 . S
O99 Cd100 2.228 1_455 S
Cd100 O99 2.228 1_655 S
Cd100 O104 2.273 1_655 S
Cd100 O108 2.277 1_655 S
O101 C98 1.160 . S
O101 Cd102 2.203 . S
Cd102 O101 2.203 . S
Cd102 O104 2.411 . S
Cd102 O105 2.333 . S
Cd102 O106 2.352 . S
Cd102 O110 2.277 . S
Cd102 O111 2.356 . S
C103 O108 1.209 . S
C103 O110 1.226 . S
O104 Cd100 2.273 1_455 S
O104 Cd102 2.411 . S
O104 C107 1.320 . S
O105 Cd102 2.333 . S
O105 C107 1.214 . S
O106 Cd102 2.352 . S
O106 C109 1.258 . S
C107 O104 1.320 . S
C107 O105 1.214 . S
O108 Cd100 2.277 1_455 S
O108 C103 1.209 . S
C109 O106 1.258 . S
C109 O111 1.282 . S
O110 Cd102 2.277 . S
O110 C103 1.226 . S
O111 Cd102 2.356 . S
O111 C109 1.282 . S
C112 O113 1.306 . S
C112 O115 1.160 . S
O113 C112 1.306 . S
O113 Cd114 2.228 . S
Cd114 O113 2.228 . S
Cd114 O118 2.273 . S
Cd114 O122 2.277 . S
O115 C112 1.160 . S
O115 Cd116 2.203 . S
Cd116 O115 2.203 . S
Cd116 O118 2.411 . S
Cd116 O119 2.333 . S
Cd116 O120 2.352 . S
Cd116 O124 2.277 . S
Cd116 O125 2.356 . S
C117 O122 1.209 . S
C117 O124 1.226 . S
O118 Cd114 2.273 . S
O118 Cd116 2.411 . S
O118 C121 1.320 . S
O119 Cd116 2.333 . S
O119 C121 1.214 . S
O120 Cd116 2.352 . S
O120 C123 1.258 . S
C121 O118 1.320 . S
C121 O119 1.214 . S
O122 Cd114 2.277 . S
O122 C117 1.209 . S
C123 O120 1.258 . S
C123 O125 1.282 . S
O124 Cd116 2.277 . S
O124 C117 1.226 . S
O125 Cd116 2.356 . S
O125 C123 1.282 . S
C126 O127 1.306 . S
C126 O129 1.160 . S
O127 C126 1.306 . S
O127 Cd128 2.228 1_655 S
Cd128 O127 2.228 1_455 S
Cd128 O132 2.273 1_455 S
Cd128 O136 2.277 1_455 S
O129 C126 1.160 . S
O129 Cd130 2.203 . S
Cd130 O129 2.203 . S
Cd130 O132 2.411 . S
Cd130 O133 2.333 . S
Cd130 O134 2.352 . S
Cd130 O138 2.277 . S
Cd130 O139 2.356 . S
C131 O136 1.209 . S
C131 O138 1.226 . S
O132 Cd128 2.273 1_655 S
O132 Cd130 2.411 . S
O132 C135 1.320 . S
O133 Cd130 2.333 . S
O133 C135 1.214 . S
O134 Cd130 2.352 . S
O134 C137 1.258 . S
C135 O132 1.320 . S
C135 O133 1.214 . S
O136 Cd128 2.277 1_655 S
O136 C131 1.209 . S
C137 O134 1.258 . S
C137 O139 1.282 . S
O138 Cd130 2.277 . S
O138 C131 1.226 . S
O139 Cd130 2.356 . S
O139 C137 1.282 . S
C140 O141 1.306 . S
C140 O143 1.160 . S
O141 C140 1.306 . S
O141 Cd142 2.228 1_455 S
Cd142 O141 2.228 1_655 S
Cd142 O146 2.273 1_655 S
Cd142 O150 2.277 1_655 S
O143 C140 1.160 . S
O143 Cd144 2.203 . S
Cd144 O143 2.203 . S
Cd144 O146 2.411 . S
Cd144 O147 2.333 . S
Cd144 O148 2.352 . S
Cd144 O152 2.277 . S
Cd144 O153 2.356 . S
C145 O150 1.209 . S
C145 O152 1.226 . S
O146 Cd142 2.273 1_455 S
O146 Cd144 2.411 . S
O146 C149 1.320 . S
O147 Cd144 2.333 . S
O147 C149 1.214 . S
O148 Cd144 2.352 . S
O148 C151 1.258 . S
C149 O146 1.320 . S
C149 O147 1.214 . S
O150 Cd142 2.277 1_455 S
O150 C145 1.209 . S
C151 O148 1.258 . S
C151 O153 1.282 . S
O152 Cd144 2.277 . S
O152 C145 1.226 . S
O153 Cd144 2.356 . S
O153 C151 1.282 . S
C154 O155 1.306 . S
C154 O157 1.160 . S
O155 C154 1.306 . S
O155 Cd156 2.228 . S
Cd156 O155 2.228 . S
Cd156 O160 2.273 . S
Cd156 O164 2.277 . S
O157 C154 1.160 . S
O157 Cd158 2.203 . S
Cd158 O157 2.203 . S
Cd158 O160 2.411 . S
Cd158 O161 2.333 . S
Cd158 O162 2.352 . S
Cd158 O166 2.277 . S
Cd158 O167 2.356 . S
C159 O164 1.209 . S
C159 O166 1.226 . S
O160 Cd156 2.273 . S
O160 Cd158 2.411 . S
O160 C163 1.320 . S
O161 Cd158 2.333 . S
O161 C163 1.214 . S
O162 Cd158 2.352 . S
O162 C165 1.258 . S
C163 O160 1.320 . S
C163 O161 1.214 . S
O164 Cd156 2.277 . S
O164 C159 1.209 . S
C165 O162 1.258 . S
C165 O167 1.282 . S
O166 Cd158 2.277 . S
O166 C159 1.226 . S
O167 Cd158 2.356 . S
O167 C165 1.282 . S
C168 O169 1.306 . S
C168 O171 1.160 . S
O169 C168 1.306 . S
O169 Cd170 2.228 . S
Cd170 O169 2.228 . S
Cd170 O174 2.273 . S
Cd170 O178 2.277 . S
O171 C168 1.160 . S
O171 Cd172 2.203 . S
Cd172 O171 2.203 . S
Cd172 O174 2.411 . S
Cd172 O175 2.333 . S
Cd172 O176 2.352 . S
Cd172 O180 2.277 . S
Cd172 O181 2.356 . S
C173 O178 1.209 . S
C173 O180 1.226 . S
O174 Cd170 2.273 . S
O174 Cd172 2.411 . S
O174 C177 1.320 . S
O175 Cd172 2.333 . S
O175 C177 1.214 . S
O176 Cd172 2.352 . S
O176 C179 1.258 . S
C177 O174 1.320 . S
C177 O175 1.214 . S
O178 Cd170 2.277 . S
O178 C173 1.209 . S
C179 O176 1.258 . S
C179 O181 1.282 . S
O180 Cd172 2.277 . S
O180 C173 1.226 . S
O181 Cd172 2.356 . S
O181 C179 1.282 . S
C182 O183 1.306 . S
C182 O185 1.160 . S
O183 C182 1.306 . S
O183 Cd184 2.228 1_455 S
Cd184 O183 2.228 1_655 S
Cd184 O188 2.273 1_655 S
Cd184 O192 2.277 1_655 S
O185 C182 1.160 . S
O185 Cd186 2.203 . S
Cd186 O185 2.203 . S
Cd186 O188 2.411 . S
Cd186 O189 2.333 . S
Cd186 O190 2.352 . S
Cd186 O194 2.277 . S
Cd186 O195 2.356 . S
C187 O192 1.209 . S
C187 O194 1.226 . S
O188 Cd184 2.273 1_455 S
O188 Cd186 2.411 . S
O188 C191 1.320 . S
O189 Cd186 2.333 . S
O189 C191 1.214 . S
O190 Cd186 2.352 . S
O190 C193 1.258 . S
C191 O188 1.320 . S
C191 O189 1.214 . S
O192 Cd184 2.277 1_455 S
O192 C187 1.209 . S
C193 O190 1.258 . S
C193 O195 1.282 . S
O194 Cd186 2.277 . S
O194 C187 1.226 . S
O195 Cd186 2.356 . S
O195 C193 1.282 . S
C196 O197 1.306 . S
C196 O199 1.160 . S
O197 C196 1.306 . S
O197 Cd198 2.228 1_655 S
Cd198 O197 2.228 1_455 S
Cd198 O202 2.273 1_455 S
Cd198 O206 2.277 1_455 S
O199 C196 1.160 . S
O199 Cd200 2.203 . S
Cd200 O199 2.203 . S
Cd200 O202 2.411 . S
Cd200 O203 2.333 . S
Cd200 O204 2.352 . S
Cd200 O208 2.277 . S
Cd200 O209 2.356 . S
C201 O206 1.209 . S
C201 O208 1.226 . S
O202 Cd198 2.273 1_655 S
O202 Cd200 2.411 . S
O202 C205 1.320 . S
O203 Cd200 2.333 . S
O203 C205 1.214 . S
O204 Cd200 2.352 . S
O204 C207 1.258 . S
C205 O202 1.320 . S
C205 O203 1.214 . S
O206 Cd198 2.277 1_655 S
O206 C201 1.209 . S
C207 O204 1.258 . S
C207 O209 1.282 . S
O208 Cd200 2.277 . S
O208 C201 1.226 . S
O209 Cd200 2.356 . S
O209 C207 1.282 . S
C210 O211 1.306 . S
C210 O213 1.160 . S
O211 C210 1.306 . S
O211 Cd212 2.228 . S
Cd212 O211 2.228 . S
Cd212 O216 2.273 . S
Cd212 O220 2.277 . S
O213 C210 1.160 . S
O213 Cd214 2.203 . S
Cd214 O213 2.203 . S
Cd214 O216 2.411 . S
Cd214 O217 2.333 . S
Cd214 O218 2.352 . S
Cd214 O222 2.277 . S
Cd214 O223 2.356 . S
C215 O220 1.209 . S
C215 O222 1.226 . S
O216 Cd212 2.273 . S
O216 Cd214 2.411 . S
O216 C219 1.320 . S
O217 Cd214 2.333 . S
O217 C219 1.214 . S
O218 Cd214 2.352 . S
O218 C221 1.258 . S
C219 O216 1.320 . S
C219 O217 1.214 . S
O220 Cd212 2.277 . S
O220 C215 1.209 . S
C221 O218 1.258 . S
C221 O223 1.282 . S
O222 Cd214 2.277 . S
O222 C215 1.226 . S
O223 Cd214 2.356 . S
O223 C221 1.282 . S
H224 C230 0.930 . S
H225 C233 0.930 . S
H226 C234 0.930 . S
H227 C235 0.930 . S
H228 C238 0.930 . S
H229 C239 0.930 . S
C230 H224 0.930 . S
C230 C231 1.355 . S
C230 C232 1.415 . S
C231 C230 1.355 . S
C231 C233 1.419 1_565 S
C232 C230 1.415 . S
C232 C237 1.425 1_565 S
C232 C239 1.409 . S
C233 H225 0.930 . S
C233 C231 1.419 1_545 S
C233 C234 1.362 . S
C234 H226 0.930 . S
C234 C233 1.362 . S
C234 C237 1.409 . S
C235 H227 0.930 . S
C235 C236 1.355 . S
C235 C237 1.415 . S
C236 C235 1.355 . S
C236 C238 1.419 1_545 S
C237 C232 1.425 1_545 S
C237 C234 1.409 . S
C237 C235 1.415 . S
C238 H228 0.930 . S
C238 C236 1.419 1_565 S
C238 C239 1.362 . S
C239 H229 0.930 . S
C239 C232 1.409 . S
C239 C238 1.362 . S
H240 C246 0.930 . S
H241 C249 0.930 . S
H242 C250 0.930 . S
H243 C251 0.930 . S
H244 C254 0.930 . S
H245 C255 0.930 . S
C246 H240 0.930 . S
C246 C247 1.355 . S
C246 C248 1.415 . S
C247 C246 1.355 . S
C247 C249 1.419 1_565 S
C248 C246 1.415 . S
C248 C253 1.425 1_565 S
C248 C255 1.409 . S
C249 H241 0.930 . S
C249 C247 1.419 1_545 S
C249 C250 1.362 . S
C250 H242 0.930 . S
C250 C249 1.362 . S
C250 C253 1.409 . S
C251 H243 0.930 . S
C251 C252 1.355 . S
C251 C253 1.415 . S
C252 C251 1.355 . S
C252 C254 1.419 1_545 S
C253 C248 1.425 1_545 S
C253 C250 1.409 . S
C253 C251 1.415 . S
C254 H244 0.930 . S
C254 C252 1.419 1_565 S
C254 C255 1.362 . S
C255 H245 0.930 . S
C255 C248 1.409 . S
C255 C254 1.362 . S
H256 C262 0.930 . S
H257 C265 0.930 . S
H258 C266 0.930 . S
H259 C267 0.930 . S
H260 C270 0.930 . S
H261 C271 0.930 . S
C262 H256 0.930 . S
C262 C263 1.355 1_545 S
C262 C264 1.415 . S
C263 C262 1.355 1_565 S
C263 C265 1.419 . S
C264 C262 1.415 . S
C264 C269 1.425 1_545 S
C264 C271 1.409 . S
C265 H257 0.930 . S
C265 C263 1.419 . S
C265 C266 1.362 . S
C266 H258 0.930 . S
C266 C265 1.362 . S
C266 C269 1.409 . S
C267 H259 0.930 . S
C267 C268 1.355 1_565 S
C267 C269 1.415 . S
C268 C267 1.355 1_545 S
C268 C270 1.419 . S
C269 C264 1.425 1_565 S
C269 C266 1.409 . S
C269 C267 1.415 . S
C270 H260 0.930 . S
C270 C268 1.419 . S
C270 C271 1.362 . S
C271 H261 0.930 . S
C271 C264 1.409 . S
C271 C270 1.362 . S
H272 C278 0.930 . S
H273 C281 0.930 . S
H274 C282 0.930 . S
H275 C283 0.930 . S
H276 C286 0.930 . S
H277 C287 0.930 . S
C278 H272 0.930 . S
C278 C279 1.355 . S
C278 C280 1.415 . S
C279 C278 1.355 . S
C279 C281 1.419 1_565 S
C280 C278 1.415 . S
C280 C285 1.425 1_565 S
C280 C287 1.409 . S
C281 H273 0.930 . S
C281 C279 1.419 1_545 S
C281 C282 1.362 . S
C282 H274 0.930 . S
C282 C281 1.362 . S
C282 C285 1.409 . S
C283 H275 0.930 . S
C283 C284 1.355 . S
C283 C285 1.415 . S
C284 C283 1.355 . S
C284 C286 1.419 1_545 S
C285 C280 1.425 1_545 S
C285 C282 1.409 . S
C285 C283 1.415 . S
C286 H276 0.930 . S
C286 C284 1.419 1_565 S
C286 C287 1.362 . S
C287 H277 0.930 . S
C287 C280 1.409 . S
C287 C286 1.362 . S
H288 C294 0.930 . S
H289 C297 0.930 . S
H290 C298 0.930 . S
H291 C299 0.930 . S
H292 C302 0.930 . S
H293 C303 0.930 . S
C294 H288 0.930 . S
C294 C295 1.355 . S
C294 C296 1.415 . S
C295 C294 1.355 . S
C295 C297 1.419 . S
C296 C294 1.415 . S
C296 C301 1.425 . S
C296 C303 1.409 . S
C297 H289 0.930 . S
C297 C295 1.419 . S
C297 C298 1.362 . S
C298 H290 0.930 . S
C298 C297 1.362 . S
C298 C301 1.409 . S
C299 H291 0.930 . S
C299 C300 1.355 . S
C299 C301 1.415 . S
C300 C299 1.355 . S
C300 C302 1.419 . S
C301 C296 1.425 . S
C301 C298 1.409 . S
C301 C299 1.415 . S
C302 H292 0.930 . S
C302 C300 1.419 . S
C302 C303 1.362 . S
C303 H293 0.930 . S
C303 C296 1.409 . S
C303 C302 1.362 . S
H304 C310 0.930 . S
H305 C313 0.930 . S
H306 C314 0.930 . S
H307 C315 0.930 . S
H308 C318 0.930 . S
H309 C319 0.930 . S
C310 H304 0.930 . S
C310 C311 1.355 . S
C310 C312 1.415 . S
C311 C310 1.355 . S
C311 C313 1.419 . S
C312 C310 1.415 . S
C312 C317 1.425 . S
C312 C319 1.409 . S
C313 H305 0.930 . S
C313 C311 1.419 . S
C313 C314 1.362 . S
C314 H306 0.930 . S
C314 C313 1.362 . S
C314 C317 1.409 . S
C315 H307 0.930 . S
C315 C316 1.355 . S
C315 C317 1.415 . S
C316 C315 1.355 . S
C316 C318 1.419 . S
C317 C312 1.425 . S
C317 C314 1.409 . S
C317 C315 1.415 . S
C318 H308 0.930 . S
C318 C316 1.419 . S
C318 C319 1.362 . S
C319 H309 0.930 . S
C319 C312 1.409 . S
C319 C318 1.362 . S
H320 C326 0.930 . S
H321 C329 0.930 . S
H322 C330 0.930 . S
H323 C331 0.930 . S
H324 C334 0.930 . S
H325 C335 0.930 . S
C326 H320 0.930 . S
C326 C327 1.355 . S
C326 C328 1.415 . S
C327 C326 1.355 . S
C327 C329 1.419 . S
C328 C326 1.415 . S
C328 C333 1.425 . S
C328 C335 1.409 . S
C329 H321 0.930 . S
C329 C327 1.419 . S
C329 C330 1.362 . S
C330 H322 0.930 . S
C330 C329 1.362 . S
C330 C333 1.409 . S
C331 H323 0.930 . S
C331 C332 1.355 . S
C331 C333 1.415 . S
C332 C331 1.355 . S
C332 C334 1.419 . S
C333 C328 1.425 . S
C333 C330 1.409 . S
C333 C331 1.415 . S
C334 H324 0.930 . S
C334 C332 1.419 . S
C334 C335 1.362 . S
C335 H325 0.930 . S
C335 C328 1.409 . S
C335 C334 1.362 . S
H336 C342 0.930 . S
H337 C345 0.930 . S
H338 C346 0.930 . S
H339 C347 0.930 . S
H340 C350 0.930 . S
H341 C351 0.930 . S
C342 H336 0.930 . S
C342 C343 1.355 . S
C342 C344 1.415 . S
C343 C342 1.355 . S
C343 C345 1.419 . S
C344 C342 1.415 . S
C344 C349 1.425 . S
C344 C351 1.409 . S
C345 H337 0.930 . S
C345 C343 1.419 . S
C345 C346 1.362 . S
C346 H338 0.930 . S
C346 C345 1.362 . S
C346 C349 1.409 . S
C347 H339 0.930 . S
C347 C348 1.355 . S
C347 C349 1.415 . S
C348 C347 1.355 . S
C348 C350 1.419 . S
C349 C344 1.425 . S
C349 C346 1.409 . S
C349 C347 1.415 . S
C350 H340 0.930 . S
C350 C348 1.419 . S
C350 C351 1.362 . S
C351 H341 0.930 . S
C351 C344 1.409 . S
C351 C350 1.362 . S
H352 C358 0.930 . S
H353 C361 0.930 . S
H354 C362 0.930 . S
H355 C363 0.930 . S
H356 C366 0.930 . S
H357 C367 0.930 1_565 S
C358 H352 0.930 . S
C358 C359 1.355 . S
C358 C360 1.415 . S
C359 C358 1.355 . S
C359 C361 1.419 1_655 S
C360 C358 1.415 . S
C360 C365 1.425 1_655 S
C360 C367 1.409 . S
C361 H353 0.930 . S
C361 C359 1.419 1_455 S
C361 C362 1.362 . S
C362 H354 0.930 . S
C362 C361 1.362 . S
C362 C365 1.409 . S
C363 H355 0.930 . S
C363 C364 1.355 . S
C363 C365 1.415 . S
C364 C363 1.355 . S
C364 C366 1.419 1_455 S
C365 C360 1.425 1_455 S
C365 C362 1.409 . S
C365 C363 1.415 . S
C366 H356 0.930 . S
C366 C364 1.419 1_655 S
C366 C367 1.362 . S
C367 H357 0.930 1_545 S
C367 C360 1.409 . S
C367 C366 1.362 . S
H368 C374 0.930 . S
H369 C377 0.930 . S
H370 C378 0.930 . S
H371 C379 0.930 . S
H372 C382 0.930 . S
H373 C383 0.930 . S
C374 H368 0.930 . S
C374 C375 1.355 . S
C374 C376 1.415 . S
C375 C374 1.355 . S
C375 C377 1.419 . S
C376 C374 1.415 . S
C376 C381 1.425 . S
C376 C383 1.409 . S
C377 H369 0.930 . S
C377 C375 1.419 . S
C377 C378 1.362 . S
C378 H370 0.930 . S
C378 C377 1.362 . S
C378 C381 1.409 . S
C379 H371 0.930 . S
C379 C380 1.355 . S
C379 C381 1.415 . S
C380 C379 1.355 . S
C380 C382 1.419 . S
C381 C376 1.425 . S
C381 C378 1.409 . S
C381 C379 1.415 . S
C382 H372 0.930 . S
C382 C380 1.419 . S
C382 C383 1.362 . S
C383 H373 0.930 . S
C383 C376 1.409 . S
C383 C382 1.362 . S
H384 C390 0.930 . S
H385 C393 0.930 1_545 S
H386 C394 0.930 1_545 S
H387 C395 0.930 . S
H388 C398 0.930 . S
H389 C399 0.930 . S
C390 H384 0.930 . S
C390 C391 1.355 . S
C390 C392 1.415 . S
C391 C390 1.355 . S
C391 C393 1.419 . S
C392 C390 1.415 . S
C392 C397 1.425 1_455 S
C392 C399 1.409 . S
C393 H385 0.930 1_565 S
C393 C391 1.419 . S
C393 C394 1.362 1_455 S
C394 H386 0.930 1_565 S
C394 C393 1.362 1_655 S
C394 C397 1.409 . S
C395 H387 0.930 . S
C395 C396 1.355 . S
C395 C397 1.415 . S
C396 C395 1.355 . S
C396 C398 1.419 . S
C397 C392 1.425 1_655 S
C397 C394 1.409 . S
C397 C395 1.415 . S
C398 H388 0.930 . S
C398 C396 1.419 . S
C398 C399 1.362 1_655 S
C399 H389 0.930 . S
C399 C392 1.409 . S
C399 C398 1.362 1_455 S
H400 C406 0.930 . S
H401 C409 0.930 . S
H402 C410 0.930 . S
H403 C411 0.930 . S
H404 C414 0.930 . S
H405 C415 0.930 . S
C406 H400 0.930 . S
C406 C407 1.355 . S
C406 C408 1.415 . S
C407 C406 1.355 . S
C407 C409 1.419 . S
C408 C406 1.415 . S
C408 C413 1.425 . S
C408 C415 1.409 . S
C409 H401 0.930 . S
C409 C407 1.419 . S
C409 C410 1.362 . S
C410 H402 0.930 . S
C410 C409 1.362 . S
C410 C413 1.409 . S
C411 H403 0.930 . S
C411 C412 1.355 . S
C411 C413 1.415 . S
C412 C411 1.355 . S
C412 C414 1.419 . S
C413 C408 1.425 . S
C413 C410 1.409 . S
C413 C411 1.415 . S
C414 H404 0.930 . S
C414 C412 1.419 . S
C414 C415 1.362 . S
C415 H405 0.930 . S
C415 C408 1.409 . S
C415 C414 1.362 . S
H416 C422 0.930 . S
H417 C425 0.930 . S
H418 C426 0.930 . S
H419 C427 0.930 . S
H420 C430 0.930 . S
H421 C431 0.930 . S
C422 H416 0.930 . S
C422 C423 1.355 . S
C422 C424 1.415 . S
C423 C422 1.355 . S
C423 C425 1.419 . S
C424 C422 1.415 . S
C424 C429 1.425 . S
C424 C431 1.409 . S
C425 H417 0.930 . S
C425 C423 1.419 . S
C425 C426 1.362 . S
C426 H418 0.930 . S
C426 C425 1.362 . S
C426 C429 1.409 . S
C427 H419 0.930 . S
C427 C428 1.355 . S
C427 C429 1.415 . S
C428 C427 1.355 . S
C428 C430 1.419 . S
C429 C424 1.425 . S
C429 C426 1.409 . S
C429 C427 1.415 . S
C430 H420 0.930 . S
C430 C428 1.419 . S
C430 C431 1.362 . S
C431 H421 0.930 . S
C431 C424 1.409 . S
C431 C430 1.362 . S
H432 C438 0.930 . S
H433 C441 0.930 . S
H434 C442 0.930 1_655 S
H435 C443 0.930 . S
H436 C446 0.930 . S
H437 C447 0.930 1_455 S
C438 H432 0.930 . S
C438 C439 1.355 . S
C438 C440 1.415 . S
C439 C438 1.355 . S
C439 C441 1.419 . S
C440 C438 1.415 . S
C440 C445 1.425 1_455 S
C440 C447 1.409 1_455 S
C441 H433 0.930 . S
C441 C439 1.419 . S
C441 C442 1.363 . S
C442 H434 0.930 1_455 S
C442 C441 1.363 . S
C442 C445 1.409 1_455 S
C443 H435 0.930 . S
C443 C444 1.355 . S
C443 C445 1.415 . S
C444 C443 1.355 . S
C444 C446 1.419 . S
C445 C440 1.425 1_655 S
C445 C442 1.409 1_655 S
C445 C443 1.415 . S
C446 H436 0.930 . S
C446 C444 1.419 . S
C446 C447 1.363 . S
C447 H437 0.930 1_655 S
C447 C440 1.409 1_655 S
C447 C446 1.363 . S
H448 C454 0.930 . S
H449 C457 0.930 . S
H450 C458 0.930 . S
H451 C459 0.930 . S
H452 C462 0.930 . S
H453 C463 0.930 . S
C454 H448 0.930 . S
C454 C455 1.355 . S
C454 C456 1.415 . S
C455 C454 1.355 . S
C455 C457 1.419 . S
C456 C454 1.415 . S
C456 C461 1.425 . S
C456 C463 1.409 . S
C457 H449 0.930 . S
C457 C455 1.419 . S
C457 C458 1.362 . S
C458 H450 0.930 . S
C458 C457 1.362 . S
C458 C461 1.409 . S
C459 H451 0.930 . S
C459 C460 1.355 . S
C459 C461 1.415 . S
C460 C459 1.355 . S
C460 C462 1.419 . S
C461 C456 1.425 . S
C461 C458 1.409 . S
C461 C459 1.415 . S
C462 H452 0.930 . S
C462 C460 1.419 . S
C462 C463 1.362 . S
C463 H453 0.930 . S
C463 C456 1.409 . S
C463 C462 1.362 . S
H464 C470 0.930 . S
H465 C473 0.930 . S
H466 C474 0.930 . S
H467 C475 0.930 . S
H468 C478 0.930 . S
H469 C479 0.930 . S
C470 H464 0.930 . S
C470 C471 1.355 . S
C470 C472 1.415 . S
C471 C470 1.355 . S
C471 C473 1.419 1_455 S
C472 C470 1.415 . S
C472 C477 1.425 1_455 S
C472 C479 1.409 . S
C473 H465 0.930 . S
C473 C471 1.419 1_655 S
C473 C474 1.362 . S
C474 H466 0.930 . S
C474 C473 1.362 . S
C474 C477 1.409 . S
C475 H467 0.930 . S
C475 C476 1.355 . S
C475 C477 1.415 . S
C476 C475 1.355 . S
C476 C478 1.419 1_655 S
C477 C472 1.425 1_655 S
C477 C474 1.409 . S
C477 C475 1.415 . S
C478 H468 0.930 . S
C478 C476 1.419 1_455 S
C478 C479 1.362 . S
C479 H469 0.930 . S
C479 C472 1.409 . S
C479 C478 1.362 . S
H480 C486 0.929 . S
H481 C489 0.930 . S
H482 C490 0.930 . S
H483 C491 0.929 . S
H484 C494 0.930 . S
H485 C495 0.930 . S
C486 H480 0.929 . S
C486 C487 1.355 . S
C486 C488 1.415 1_455 S
C487 C486 1.355 . S
C487 C489 1.419 . S
C488 C486 1.415 1_655 S
C488 C493 1.425 1_655 S
C488 C495 1.409 . S
C489 H481 0.930 . S
C489 C487 1.419 . S
C489 C490 1.362 . S
C490 H482 0.930 . S
C490 C489 1.362 . S
C490 C493 1.409 . S
C491 H483 0.929 . S
C491 C492 1.355 . S
C491 C493 1.415 1_655 S
C492 C491 1.355 . S
C492 C494 1.419 . S
C493 C488 1.425 1_455 S
C493 C490 1.409 . S
C493 C491 1.415 1_455 S
C494 H484 0.930 . S
C494 C492 1.419 . S
C494 C495 1.362 . S
C495 H485 0.930 . S
C495 C488 1.409 . S
C495 C494 1.362 . S
H496 C502 0.930 . S
H497 C505 0.930 . S
H498 C506 0.930 . S
H499 C507 0.930 . S
H500 C510 0.930 . S
H501 C511 0.930 . S
C502 H496 0.930 . S
C502 C503 1.355 . S
C502 C504 1.415 . S
C503 C502 1.355 . S
C503 C505 1.419 . S
C504 C502 1.415 . S
C504 C509 1.425 . S
C504 C511 1.409 . S
C505 H497 0.930 . S
C505 C503 1.419 . S
C505 C506 1.362 . S
C506 H498 0.930 . S
C506 C505 1.362 . S
C506 C509 1.409 . S
C507 H499 0.930 . S
C507 C508 1.355 . S
C507 C509 1.415 . S
C508 C507 1.355 . S
C508 C510 1.419 . S
C509 C504 1.425 . S
C509 C506 1.409 . S
C509 C507 1.415 . S
C510 H500 0.930 . S
C510 C508 1.419 . S
C510 C511 1.362 . S
C511 H501 0.930 . S
C511 C504 1.409 . S
C511 C510 1.362 . S
H512 C518 0.930 . S
H513 C521 0.930 . S
H514 C522 0.930 . S
H515 C523 0.930 . S
H516 C526 0.930 . S
H517 C527 0.930 . S
C518 H512 0.930 . S
C518 C519 1.355 . S
C518 C520 1.415 . S
C519 C518 1.355 . S
C519 C521 1.419 . S
C520 C518 1.415 . S
C520 C525 1.425 . S
C520 C527 1.409 . S
C521 H513 0.930 . S
C521 C519 1.419 . S
C521 C522 1.362 . S
C522 H514 0.930 . S
C522 C521 1.362 . S
C522 C525 1.409 . S
C523 H515 0.930 . S
C523 C524 1.355 . S
C523 C525 1.415 . S
C524 C523 1.355 . S
C524 C526 1.419 . S
C525 C520 1.425 . S
C525 C522 1.409 . S
C525 C523 1.415 . S
C526 H516 0.930 . S
C526 C524 1.419 . S
C526 C527 1.362 . S
C527 H517 0.930 . S
C527 C520 1.409 . S
C527 C526 1.362 . S
H528 C534 0.930 . S
H529 C537 0.930 . S
H530 C538 0.930 . S
H531 C539 0.930 . S
H532 C542 0.930 . S
H533 C543 0.930 . S
C534 H528 0.930 . S
C534 C535 1.355 . S
C534 C536 1.415 1_455 S
C535 C534 1.355 . S
C535 C537 1.419 . S
C536 C534 1.415 1_655 S
C536 C541 1.425 1_655 S
C536 C543 1.409 . S
C537 H529 0.930 . S
C537 C535 1.419 . S
C537 C538 1.362 . S
C538 H530 0.930 . S
C538 C537 1.362 . S
C538 C541 1.409 . S
C539 H531 0.930 . S
C539 C540 1.355 . S
C539 C541 1.415 1_655 S
C540 C539 1.355 . S
C540 C542 1.419 . S
C541 C536 1.425 1_455 S
C541 C538 1.409 . S
C541 C539 1.415 1_455 S
C542 H532 0.930 . S
C542 C540 1.419 . S
C542 C543 1.362 . S
C543 H533 0.930 . S
C543 C536 1.409 . S
C543 C542 1.362 . S
H544 C550 0.930 1_655 S
H545 C553 0.930 . S
H546 C554 0.930 . S
H547 C555 0.930 1_455 S
H548 C558 0.930 . S
H549 C559 0.930 . S
C550 H544 0.930 1_455 S
C550 C551 1.355 . S
C550 C552 1.415 1_455 S
C551 C550 1.355 . S
C551 C553 1.419 . S
C552 C550 1.415 1_655 S
C552 C557 1.425 1_655 S
C552 C559 1.409 . S
C553 H545 0.930 . S
C553 C551 1.419 . S
C553 C554 1.362 . S
C554 H546 0.930 . S
C554 C553 1.362 . S
C554 C557 1.409 . S
C555 H547 0.930 1_655 S
C555 C556 1.355 . S
C555 C557 1.415 1_655 S
C556 C555 1.355 . S
C556 C558 1.419 . S
C557 C552 1.425 1_455 S
C557 C554 1.409 . S
C557 C555 1.415 1_455 S
C558 H548 0.930 . S
C558 C556 1.419 . S
C558 C559 1.362 . S
C559 H549 0.930 . S
C559 C552 1.409 . S
C559 C558 1.362 . S
H560 C566 0.930 . S
H561 C569 0.930 . S
H562 C570 0.930 . S
H563 C571 0.930 . S
H564 C574 0.930 . S
H565 C575 0.930 . S
C566 H560 0.930 . S
C566 C567 1.355 . S
C566 C568 1.415 . S
C567 C566 1.355 . S
C567 C569 1.419 . S
C568 C566 1.415 . S
C568 C573 1.425 . S
C568 C575 1.409 . S
C569 H561 0.930 . S
C569 C567 1.419 . S
C569 C570 1.362 . S
C570 H562 0.930 . S
C570 C569 1.362 . S
C570 C573 1.409 . S
C571 H563 0.930 . S
C571 C572 1.355 . S
C571 C573 1.415 . S
C572 C571 1.355 . S
C572 C574 1.419 . S
C573 C568 1.425 . S
C573 C570 1.409 . S
C573 C571 1.415 . S
C574 H564 0.930 . S
C574 C572 1.419 . S
C574 C575 1.362 . S
C575 H565 0.930 . S
C575 C568 1.409 . S
C575 C574 1.362 . S
H576 C582 0.930 . S
H577 C585 0.930 . S
H578 C586 0.930 . S
H579 C587 0.930 . S
H580 C590 0.930 . S
H581 C591 0.930 . S
C582 H576 0.930 . S
C582 C583 1.355 . S
C582 C584 1.415 . S
C583 C582 1.355 . S
C583 C585 1.419 . S
C584 C582 1.415 . S
C584 C589 1.425 . S
C584 C591 1.409 . S
C585 H577 0.930 . S
C585 C583 1.419 . S
C585 C586 1.362 . S
C586 H578 0.930 . S
C586 C585 1.362 . S
C586 C589 1.409 . S
C587 H579 0.930 . S
C587 C588 1.355 . S
C587 C589 1.415 . S
C588 C587 1.355 . S
C588 C590 1.419 . S
C589 C584 1.425 . S
C589 C586 1.409 . S
C589 C587 1.415 . S
C590 H580 0.930 . S
C590 C588 1.419 . S
C590 C591 1.362 . S
C591 H581 0.930 . S
C591 C584 1.409 . S
C591 C590 1.362 . S
H592 C598 0.930 . S
H593 C601 0.930 . S
H594 C602 0.930 . S
H595 C603 0.930 . S
H596 C606 0.930 . S
H597 C607 0.930 . S
C598 H592 0.930 . S
C598 C599 1.355 . S
C598 C600 1.415 . S
C599 C598 1.355 . S
C599 C601 1.419 1_455 S
C600 C598 1.415 . S
C600 C605 1.425 1_455 S
C600 C607 1.409 . S
C601 H593 0.930 . S
C601 C599 1.419 1_655 S
C601 C602 1.362 . S
C602 H594 0.930 . S
C602 C601 1.362 . S
C602 C605 1.409 . S
C603 H595 0.930 . S
C603 C604 1.355 . S
C603 C605 1.415 . S
C604 C603 1.355 . S
C604 C606 1.419 1_655 S
C605 C600 1.425 1_655 S
C605 C602 1.409 . S
C605 C603 1.415 . S
C606 H596 0.930 . S
C606 C604 1.419 1_455 S
C606 C607 1.362 . S
C607 H597 0.930 . S
C607 C600 1.409 . S
C607 C606 1.362 . S
H608 C614 0.930 . S
H609 C617 0.930 . S
H610 C618 0.930 . S
H611 C619 0.930 . S
H612 C622 0.930 . S
H613 C623 0.930 . S
C614 H608 0.930 . S
C614 C615 1.355 1_455 S
C614 C616 1.415 . S
C615 C614 1.355 1_655 S
C615 C617 1.419 1_565 S
C616 C614 1.415 . S
C616 C621 1.425 1_466 S
C616 C623 1.409 1_556 S
C617 H609 0.930 . S
C617 C615 1.419 1_545 S
C617 C618 1.362 . S
C618 H610 0.930 . S
C618 C617 1.362 . S
C618 C621 1.409 1_556 S
C619 H611 0.930 . S
C619 C620 1.355 1_655 S
C619 C621 1.415 . S
C620 C619 1.355 1_455 S
C620 C622 1.419 1_545 S
C621 C616 1.425 1_644 S
C621 C618 1.409 1_554 S
C621 C619 1.415 . S
C622 H612 0.930 . S
C622 C620 1.419 1_565 S
C622 C623 1.362 . S
C623 H613 0.930 . S
C623 C616 1.409 1_554 S
C623 C622 1.362 . S
H624 C630 0.930 . S
H625 C633 0.930 . S
H626 C634 0.931 1_554 S
H627 C635 0.930 . S
H628 C638 0.930 . S
H629 C639 0.931 1_556 S
C630 H624 0.930 . S
C630 C631 1.355 . S
C630 C632 1.415 1_545 S
C631 C630 1.355 . S
C631 C633 1.419 . S
C632 C630 1.415 1_565 S
C632 C637 1.425 1_566 S
C632 C639 1.409 1_556 S
C633 H625 0.930 . S
C633 C631 1.419 . S
C633 C634 1.361 . S
C634 H626 0.931 1_556 S
C634 C633 1.361 . S
C634 C637 1.409 1_556 S
C635 H627 0.930 . S
C635 C636 1.355 . S
C635 C637 1.415 1_565 S
C636 C635 1.355 . S
C636 C638 1.419 . S
C637 C632 1.425 1_544 S
C637 C634 1.409 1_554 S
C637 C635 1.415 1_545 S
C638 H628 0.930 . S
C638 C636 1.419 . S
C638 C639 1.361 . S
C639 H629 0.931 1_554 S
C639 C632 1.409 1_554 S
C639 C638 1.361 . S
H640 C646 0.930 . S
H641 C649 0.930 . S
H642 C650 0.930 . S
H643 C651 0.930 . S
H644 C654 0.930 . S
H645 C655 0.930 . S
C646 H640 0.930 . S
C646 C647 1.355 . S
C646 C648 1.415 . S
C647 C646 1.355 . S
C647 C649 1.419 1_545 S
C648 C646 1.415 . S
C648 C653 1.425 1_545 S
C648 C655 1.409 . S
C649 H641 0.930 . S
C649 C647 1.419 1_565 S
C649 C650 1.362 . S
C650 H642 0.930 . S
C650 C649 1.362 . S
C650 C653 1.409 . S
C651 H643 0.930 . S
C651 C652 1.355 . S
C651 C653 1.415 . S
C652 C651 1.355 . S
C652 C654 1.419 1_565 S
C653 C648 1.425 1_565 S
C653 C650 1.409 . S
C653 C651 1.415 . S
C654 H644 0.930 . S
C654 C652 1.419 1_545 S
C654 C655 1.362 . S
C655 H645 0.930 . S
C655 C648 1.409 . S
C655 C654 1.362 . S
H656 C662 0.930 . S
H657 C665 0.930 . S
H658 C666 0.930 . S
H659 C667 0.930 . S
H660 C670 0.930 . S
H661 C671 0.930 . S
C662 H656 0.930 . S
C662 C663 1.355 1_545 S
C662 C664 1.415 . S
C663 C662 1.355 1_565 S
C663 C665 1.419 1_455 S
C664 C662 1.415 . S
C664 C669 1.425 1_445 S
C664 C671 1.409 . S
C665 H657 0.930 . S
C665 C663 1.419 1_655 S
C665 C666 1.362 . S
C666 H658 0.930 . S
C666 C665 1.362 . S
C666 C669 1.409 . S
C667 H659 0.930 . S
C667 C668 1.355 1_565 S
C667 C669 1.415 . S
C668 C667 1.355 1_545 S
C668 C670 1.419 1_655 S
C669 C664 1.425 1_665 S
C669 C666 1.409 . S
C669 C667 1.415 . S
C670 H660 0.930 . S
C670 C668 1.419 1_455 S
C670 C671 1.362 . S
C671 H661 0.930 . S
C671 C664 1.409 . S
C671 C670 1.362 . S
H672 C678 0.930 . S
H673 C681 0.930 . S
H674 C682 0.930 . S
H675 C683 0.930 . S
H676 C686 0.930 . S
H677 C687 0.930 . S
C678 H672 0.930 . S
C678 C679 1.355 . S
C678 C680 1.415 . S
C679 C678 1.355 . S
C679 C681 1.419 . S
C680 C678 1.415 . S
C680 C685 1.425 1_554 S
C680 C687 1.409 . S
C681 H673 0.930 . S
C681 C679 1.419 . S
C681 C682 1.362 1_554 S
C682 H674 0.930 . S
C682 C681 1.362 1_556 S
C682 C685 1.409 . S
C683 H675 0.930 . S
C683 C684 1.355 . S
C683 C685 1.415 . S
C684 C683 1.355 . S
C684 C686 1.419 . S
C685 C680 1.425 1_556 S
C685 C682 1.409 . S
C685 C683 1.415 . S
C686 H676 0.930 . S
C686 C684 1.419 . S
C686 C687 1.362 1_556 S
C687 H677 0.930 . S
C687 C680 1.409 . S
C687 C686 1.362 1_554 S
H688 C694 0.930 . S
H689 C697 0.930 . S
H690 C698 0.930 . S
H691 C699 0.930 . S
H692 C702 0.930 . S
H693 C703 0.930 . S
C694 H688 0.930 . S
C694 C695 1.355 1_455 S
C694 C696 1.415 . S
C695 C694 1.355 1_655 S
C695 C697 1.419 . S
C696 C694 1.415 . S
C696 C701 1.425 1_454 S
C696 C703 1.409 . S
C697 H689 0.930 . S
C697 C695 1.419 . S
C697 C698 1.362 1_554 S
C698 H690 0.930 . S
C698 C697 1.362 1_556 S
C698 C701 1.409 . S
C699 H691 0.930 . S
C699 C700 1.355 1_655 S
C699 C701 1.415 . S
C700 C699 1.355 1_455 S
C700 C702 1.419 . S
C701 C696 1.425 1_656 S
C701 C698 1.409 . S
C701 C699 1.415 . S
C702 H692 0.930 . S
C702 C700 1.419 . S
C702 C703 1.362 1_556 S
C703 H693 0.930 . S
C703 C696 1.409 . S
C703 C702 1.362 1_554 S
H704 C710 0.930 . S
H705 C713 0.930 . S
H706 C714 0.930 . S
H707 C715 0.930 . S
H708 C718 0.930 . S
H709 C719 0.930 . S
C710 H704 0.930 . S
C710 C711 1.355 1_455 S
C710 C712 1.415 . S
C711 C710 1.355 1_655 S
C711 C713 1.419 . S
C712 C710 1.415 . S
C712 C717 1.425 1_455 S
C712 C719 1.409 . S
C713 H705 0.930 . S
C713 C711 1.419 . S
C713 C714 1.362 . S
C714 H706 0.930 . S
C714 C713 1.362 . S
C714 C717 1.409 . S
C715 H707 0.930 . S
C715 C716 1.355 1_655 S
C715 C717 1.415 . S
C716 C715 1.355 1_455 S
C716 C718 1.419 . S
C717 C712 1.425 1_655 S
C717 C714 1.409 . S
C717 C715 1.415 . S
C718 H708 0.930 . S
C718 C716 1.419 . S
C718 C719 1.362 . S
C719 H709 0.930 . S
C719 C712 1.409 . S
C719 C718 1.362 . S
H720 C726 0.930 . S
H721 C729 0.930 . S
H722 C730 0.930 . S
H723 C731 0.930 . S
H724 C734 0.930 . S
H725 C735 0.930 . S
C726 H720 0.930 . S
C726 C727 1.355 . S
C726 C728 1.415 . S
C727 C726 1.355 . S
C727 C729 1.419 . S
C728 C726 1.415 . S
C728 C733 1.425 . S
C728 C735 1.409 . S
C729 H721 0.930 . S
C729 C727 1.419 . S
C729 C730 1.362 . S
C730 H722 0.930 . S
C730 C729 1.362 . S
C730 C733 1.409 . S
C731 H723 0.930 . S
C731 C732 1.355 . S
C731 C733 1.415 . S
C732 C731 1.355 . S
C732 C734 1.419 . S
C733 C728 1.425 . S
C733 C730 1.409 . S
C733 C731 1.415 . S
C734 H724 0.930 . S
C734 C732 1.419 . S
C734 C735 1.362 . S
C735 H725 0.930 . S
C735 C728 1.409 . S
C735 C734 1.362 . S
C231 C25 1.502 . S
C236 C11 1.509 . S
C247 C39 1.505 . S
C252 C53 1.511 . S
C263 C67 1.483 . S
C268 C81 1.490 . S
C279 C109 1.506 . S
C284 C95 1.496 . S
C295 C137 1.510 . S
C300 C123 1.509 . S
C311 C165 1.503 . S
C316 C151 1.510 . S
C327 C193 1.483 . S
C332 C179 1.490 . S
C343 C221 1.511 . S
C348 C207 1.506 . S
C359 C42 1.389 . S
C364 C0 1.403 . S
C375 C14 1.418 . S
C380 C28 1.419 . S
C391 C98 1.413 . S
C396 C56 1.388 . S
C407 C84 1.388 . S
C412 C70 1.410 . S
C423 C112 1.390 . S
C428 C154 1.399 . S
C439 C140 1.423 . S
C444 C126 1.395 . S
C455 C210 1.411 . S
C460 C168 1.388 . S
C471 C182 1.399 . S
C476 C196 1.391 . S
C487 C5 1.493 . S
C492 C131 1.504 . S
C503 C19 1.494 . S
C508 C117 1.503 . S
C519 C159 1.499 . S
C524 C33 1.496 . S
C535 C145 1.505 . S
C540 C47 1.491 . S
C551 C187 1.503 . S
C556 C61 1.493 . S
C567 C173 1.495 . S
C572 C75 1.502 . S
C583 C89 1.498 . S
C588 C215 1.498 . S
C599 C103 1.497 . S
C604 C201 1.498 . S
C615 C65 1.339 . S
C620 C9 1.339 . S
C631 C79 1.336 . S
C636 C23 1.336 . S
C647 C93 1.342 . S
C652 C37 1.342 . S
C663 C107 1.363 . S
C668 C51 1.363 . S
C679 C121 1.335 . S
C684 C177 1.335 . S
C695 C135 1.335 . S
C700 C191 1.335 . S
C711 C205 1.337 . S
C716 C149 1.337 . S
C727 C219 1.371 . S
C732 C163 1.371 . S
