# Generated by pormake.
# Topology whq, (6)-cn, num edge types: 1
# Building blocks:
#     Node 0, Type 0, BuildingBlock: IZENUY_clean_sbu_0, # of connection points: 6
#     Node 1, Type 0, BuildingBlock: IZENUY_clean_sbu_0, # of connection points: 6
#     Node 2, Type 0, BuildingBlock: IZENUY_clean_sbu_0, # of connection points: 6
#     Node 3, Type 0, BuildingBlock: IZENUY_clean_sbu_0, # of connection points: 6
#     Node 4, Type 0, BuildingBlock: IZENUY_clean_sbu_0, # of connection points: 6
#     Node 5, Type 0, BuildingBlock: IZENUY_clean_sbu_0, # of connection points: 6
#     Node 6, Type 0, BuildingBlock: IZENUY_clean_sbu_0, # of connection points: 6
#     Node 7, Type 0, BuildingBlock: IZENUY_clean_sbu_0, # of connection points: 6
#     Node 8, Type 0, BuildingBlock: IZENUY_clean_sbu_0, # of connection points: 6
#     Node 9, Type 0, BuildingBlock: IZENUY_clean_sbu_0, # of connection points: 6
#     Node 10, Type 0, BuildingBlock: IZENUY_clean_sbu_0, # of connection points: 6
#     Node 11, Type 0, BuildingBlock: IZENUY_clean_sbu_0, # of connection points: 6
#     Node 12, Type 0, BuildingBlock: IZENUY_clean_sbu_0, # of connection points: 6
#     Node 13, Type 0, BuildingBlock: IZENUY_clean_sbu_0, # of connection points: 6
#     Node 14, Type 0, BuildingBlock: IZENUY_clean_sbu_0, # of connection points: 6
#     Node 15, Type 0, BuildingBlock: IZENUY_clean_sbu_0, # of connection points: 6
#     Node 16, Type 0, BuildingBlock: IZENUY_clean_sbu_0, # of connection points: 6
#     Node 17, Type 0, BuildingBlock: IZENUY_clean_sbu_0, # of connection points: 6
#     Node 18, Type 0, BuildingBlock: IZENUY_clean_sbu_0, # of connection points: 6
#     Node 19, Type 0, BuildingBlock: IZENUY_clean_sbu_0, # of connection points: 6
#     Node 20, Type 0, BuildingBlock: IZENUY_clean_sbu_0, # of connection points: 6
#     Node 21, Type 0, BuildingBlock: IZENUY_clean_sbu_0, # of connection points: 6
#     Node 22, Type 0, BuildingBlock: IZENUY_clean_sbu_0, # of connection points: 6
#     Node 23, Type 0, BuildingBlock: IZENUY_clean_sbu_0, # of connection points: 6
#     Node 24, Type 0, BuildingBlock: IZENUY_clean_sbu_0, # of connection points: 6
#     Node 25, Type 0, BuildingBlock: IZENUY_clean_sbu_0, # of connection points: 6
#     Node 26, Type 0, BuildingBlock: IZENUY_clean_sbu_0, # of connection points: 6
#     Node 27, Type 0, BuildingBlock: IZENUY_clean_sbu_0, # of connection points: 6
#     Node 28, Type 0, BuildingBlock: IZENUY_clean_sbu_0, # of connection points: 6
#     Node 29, Type 0, BuildingBlock: IZENUY_clean_sbu_0, # of connection points: 6
#     Node 30, Type 0, BuildingBlock: IZENUY_clean_sbu_0, # of connection points: 6
#     Node 31, Type 0, BuildingBlock: IZENUY_clean_sbu_0, # of connection points: 6
#     Edge 32, Type (0, 0), BuildingBlock: XIVTED_clean_linker_0, # of connection points: 2
#     Edge 33, Type (0, 0), BuildingBlock: XIVTED_clean_linker_0, # of connection points: 2
#     Edge 34, Type (0, 0), BuildingBlock: XIVTED_clean_linker_0, # of connection points: 2
#     Edge 35, Type (0, 0), BuildingBlock: XIVTED_clean_linker_0, # of connection points: 2
#     Edge 36, Type (0, 0), BuildingBlock: XIVTED_clean_linker_0, # of connection points: 2
#     Edge 37, Type (0, 0), BuildingBlock: XIVTED_clean_linker_0, # of connection points: 2
#     Edge 38, Type (0, 0), BuildingBlock: XIVTED_clean_linker_0, # of connection points: 2
#     Edge 39, Type (0, 0), BuildingBlock: XIVTED_clean_linker_0, # of connection points: 2
#     Edge 40, Type (0, 0), BuildingBlock: XIVTED_clean_linker_0, # of connection points: 2
#     Edge 41, Type (0, 0), BuildingBlock: XIVTED_clean_linker_0, # of connection points: 2
#     Edge 42, Type (0, 0), BuildingBlock: XIVTED_clean_linker_0, # of connection points: 2
#     Edge 43, Type (0, 0), BuildingBlock: XIVTED_clean_linker_0, # of connection points: 2
#     Edge 44, Type (0, 0), BuildingBlock: XIVTED_clean_linker_0, # of connection points: 2
#     Edge 45, Type (0, 0), BuildingBlock: XIVTED_clean_linker_0, # of connection points: 2
#     Edge 46, Type (0, 0), BuildingBlock: XIVTED_clean_linker_0, # of connection points: 2
#     Edge 47, Type (0, 0), BuildingBlock: XIVTED_clean_linker_0, # of connection points: 2
#     Edge 48, Type (0, 0), BuildingBlock: XIVTED_clean_linker_0, # of connection points: 2
#     Edge 49, Type (0, 0), BuildingBlock: XIVTED_clean_linker_0, # of connection points: 2
#     Edge 50, Type (0, 0), BuildingBlock: XIVTED_clean_linker_0, # of connection points: 2
#     Edge 51, Type (0, 0), BuildingBlock: XIVTED_clean_linker_0, # of connection points: 2
#     Edge 52, Type (0, 0), BuildingBlock: XIVTED_clean_linker_0, # of connection points: 2
#     Edge 53, Type (0, 0), BuildingBlock: XIVTED_clean_linker_0, # of connection points: 2
#     Edge 54, Type (0, 0), BuildingBlock: XIVTED_clean_linker_0, # of connection points: 2
#     Edge 55, Type (0, 0), BuildingBlock: XIVTED_clean_linker_0, # of connection points: 2
#     Edge 56, Type (0, 0), BuildingBlock: XIVTED_clean_linker_0, # of connection points: 2
#     Edge 57, Type (0, 0), BuildingBlock: XIVTED_clean_linker_0, # of connection points: 2
#     Edge 58, Type (0, 0), BuildingBlock: XIVTED_clean_linker_0, # of connection points: 2
#     Edge 59, Type (0, 0), BuildingBlock: XIVTED_clean_linker_0, # of connection points: 2
#     Edge 60, Type (0, 0), BuildingBlock: XIVTED_clean_linker_0, # of connection points: 2
#     Edge 61, Type (0, 0), BuildingBlock: XIVTED_clean_linker_0, # of connection points: 2
#     Edge 62, Type (0, 0), BuildingBlock: XIVTED_clean_linker_0, # of connection points: 2
#     Edge 63, Type (0, 0), BuildingBlock: XIVTED_clean_linker_0, # of connection points: 2
#     Edge 64, Type (0, 0), BuildingBlock: XIVTED_clean_linker_0, # of connection points: 2
#     Edge 65, Type (0, 0), BuildingBlock: XIVTED_clean_linker_0, # of connection points: 2
#     Edge 66, Type (0, 0), BuildingBlock: XIVTED_clean_linker_0, # of connection points: 2
#     Edge 67, Type (0, 0), BuildingBlock: XIVTED_clean_linker_0, # of connection points: 2
#     Edge 68, Type (0, 0), BuildingBlock: XIVTED_clean_linker_0, # of connection points: 2
#     Edge 69, Type (0, 0), BuildingBlock: XIVTED_clean_linker_0, # of connection points: 2
#     Edge 70, Type (0, 0), BuildingBlock: XIVTED_clean_linker_0, # of connection points: 2
#     Edge 71, Type (0, 0), BuildingBlock: XIVTED_clean_linker_0, # of connection points: 2
#     Edge 72, Type (0, 0), BuildingBlock: XIVTED_clean_linker_0, # of connection points: 2
#     Edge 73, Type (0, 0), BuildingBlock: XIVTED_clean_linker_0, # of connection points: 2
#     Edge 74, Type (0, 0), BuildingBlock: XIVTED_clean_linker_0, # of connection points: 2
#     Edge 75, Type (0, 0), BuildingBlock: XIVTED_clean_linker_0, # of connection points: 2
#     Edge 76, Type (0, 0), BuildingBlock: XIVTED_clean_linker_0, # of connection points: 2
#     Edge 77, Type (0, 0), BuildingBlock: XIVTED_clean_linker_0, # of connection points: 2
#     Edge 78, Type (0, 0), BuildingBlock: XIVTED_clean_linker_0, # of connection points: 2
#     Edge 79, Type (0, 0), BuildingBlock: XIVTED_clean_linker_0, # of connection points: 2
#     Edge 80, Type (0, 0), BuildingBlock: XIVTED_clean_linker_0, # of connection points: 2
#     Edge 81, Type (0, 0), BuildingBlock: XIVTED_clean_linker_0, # of connection points: 2
#     Edge 82, Type (0, 0), BuildingBlock: XIVTED_clean_linker_0, # of connection points: 2
#     Edge 83, Type (0, 0), BuildingBlock: XIVTED_clean_linker_0, # of connection points: 2
#     Edge 84, Type (0, 0), BuildingBlock: XIVTED_clean_linker_0, # of connection points: 2
#     Edge 85, Type (0, 0), BuildingBlock: XIVTED_clean_linker_0, # of connection points: 2
#     Edge 86, Type (0, 0), BuildingBlock: XIVTED_clean_linker_0, # of connection points: 2
#     Edge 87, Type (0, 0), BuildingBlock: XIVTED_clean_linker_0, # of connection points: 2
#     Edge 88, Type (0, 0), BuildingBlock: XIVTED_clean_linker_0, # of connection points: 2
#     Edge 89, Type (0, 0), BuildingBlock: XIVTED_clean_linker_0, # of connection points: 2
#     Edge 90, Type (0, 0), BuildingBlock: XIVTED_clean_linker_0, # of connection points: 2
#     Edge 91, Type (0, 0), BuildingBlock: XIVTED_clean_linker_0, # of connection points: 2
#     Edge 92, Type (0, 0), BuildingBlock: XIVTED_clean_linker_0, # of connection points: 2
#     Edge 93, Type (0, 0), BuildingBlock: XIVTED_clean_linker_0, # of connection points: 2
#     Edge 94, Type (0, 0), BuildingBlock: XIVTED_clean_linker_0, # of connection points: 2
#     Edge 95, Type (0, 0), BuildingBlock: XIVTED_clean_linker_0, # of connection points: 2
#     Edge 96, Type (0, 0), BuildingBlock: XIVTED_clean_linker_0, # of connection points: 2
#     Edge 97, Type (0, 0), BuildingBlock: XIVTED_clean_linker_0, # of connection points: 2
#     Edge 98, Type (0, 0), BuildingBlock: XIVTED_clean_linker_0, # of connection points: 2
#     Edge 99, Type (0, 0), BuildingBlock: XIVTED_clean_linker_0, # of connection points: 2
#     Edge 100, Type (0, 0), BuildingBlock: XIVTED_clean_linker_0, # of connection points: 2
#     Edge 101, Type (0, 0), BuildingBlock: XIVTED_clean_linker_0, # of connection points: 2
#     Edge 102, Type (0, 0), BuildingBlock: XIVTED_clean_linker_0, # of connection points: 2
#     Edge 103, Type (0, 0), BuildingBlock: XIVTED_clean_linker_0, # of connection points: 2
#     Edge 104, Type (0, 0), BuildingBlock: XIVTED_clean_linker_0, # of connection points: 2
#     Edge 105, Type (0, 0), BuildingBlock: XIVTED_clean_linker_0, # of connection points: 2
#     Edge 106, Type (0, 0), BuildingBlock: XIVTED_clean_linker_0, # of connection points: 2
#     Edge 107, Type (0, 0), BuildingBlock: XIVTED_clean_linker_0, # of connection points: 2
#     Edge 108, Type (0, 0), BuildingBlock: XIVTED_clean_linker_0, # of connection points: 2
#     Edge 109, Type (0, 0), BuildingBlock: XIVTED_clean_linker_0, # of connection points: 2
#     Edge 110, Type (0, 0), BuildingBlock: XIVTED_clean_linker_0, # of connection points: 2
#     Edge 111, Type (0, 0), BuildingBlock: XIVTED_clean_linker_0, # of connection points: 2
#     Edge 112, Type (0, 0), BuildingBlock: XIVTED_clean_linker_0, # of connection points: 2
#     Edge 113, Type (0, 0), BuildingBlock: XIVTED_clean_linker_0, # of connection points: 2
#     Edge 114, Type (0, 0), BuildingBlock: XIVTED_clean_linker_0, # of connection points: 2
#     Edge 115, Type (0, 0), BuildingBlock: XIVTED_clean_linker_0, # of connection points: 2
#     Edge 116, Type (0, 0), BuildingBlock: XIVTED_clean_linker_0, # of connection points: 2
#     Edge 117, Type (0, 0), BuildingBlock: XIVTED_clean_linker_0, # of connection points: 2
#     Edge 118, Type (0, 0), BuildingBlock: XIVTED_clean_linker_0, # of connection points: 2
#     Edge 119, Type (0, 0), BuildingBlock: XIVTED_clean_linker_0, # of connection points: 2
#     Edge 120, Type (0, 0), BuildingBlock: XIVTED_clean_linker_0, # of connection points: 2
#     Edge 121, Type (0, 0), BuildingBlock: XIVTED_clean_linker_0, # of connection points: 2
#     Edge 122, Type (0, 0), BuildingBlock: XIVTED_clean_linker_0, # of connection points: 2
#     Edge 123, Type (0, 0), BuildingBlock: XIVTED_clean_linker_0, # of connection points: 2
#     Edge 124, Type (0, 0), BuildingBlock: XIVTED_clean_linker_0, # of connection points: 2
#     Edge 125, Type (0, 0), BuildingBlock: XIVTED_clean_linker_0, # of connection points: 2
#     Edge 126, Type (0, 0), BuildingBlock: XIVTED_clean_linker_0, # of connection points: 2
#     Edge 127, Type (0, 0), BuildingBlock: XIVTED_clean_linker_0, # of connection points: 2
# Relax obj value: 0.294
# Max RMSD: 0.178
# Mean RMSD: 0.178
data_MOF--net-whq--node1-IZENUY_clean_sbu_0--edge1-XIVTED_clean_linker_0
_symmetry_space_group_name_H-M    P1
_symmetry_Int_Tables_number       1
_symmetry_cell_setting            triclinic
loop_
_symmetry_equiv_pos_as_xyz
'x, y, z'
_cell_length_a     51.143596
_cell_length_b     51.16765
_cell_length_c     56.662778
_cell_angle_alpha  89.994786
_cell_angle_beta   90.003447
_cell_angle_gamma 90.018176
loop_
_atom_site_label
_atom_site_type_symbol
_atom_site_fract_x
_atom_site_fract_y
_atom_site_fract_z
_atom_type_partial_charge
Fe0 Fe 0.07759 0.18628 0.15483 0.0
Fe1 Fe 0.12159 0.20883 0.12457 0.0
O2 O 0.08875 0.20993 0.13452 0.0
Fe3 Fe 0.06717 0.23481 0.12453 0.0
O4 O 0.06169 0.24679 0.15436 0.0
O5 O 0.05429 0.208 0.16963 0.0
O6 O 0.10134 0.19665 0.17651 0.0
C7 C 0.12567 0.19713 0.17308 0.0
C8 C 0.03519 0.18895 0.12597 0.0
O9 O 0.13494 0.19607 0.15239 0.0
C10 C 0.09274 0.2224 0.08365 0.0
O11 O 0.09887 0.15993 0.14399 0.0
O12 O 0.1179 0.17616 0.11251 0.0
O13 O 0.03761 0.21372 0.12552 0.0
O14 O 0.05314 0.17483 0.13434 0.0
C15 C 0.1154 0.26147 0.13112 0.0
O16 O 0.11409 0.22152 0.09499 0.0
O17 O 0.07117 0.22452 0.09424 0.0
C18 C 0.11099 0.15674 0.1247 0.0
O19 O 0.12778 0.241 0.13622 0.0
O20 O 0.09291 0.26026 0.12166 0.0
C21 C 0.05378 0.23263 0.1711 0.0
Fe22 Fe 0.82685 0.0772 0.1558 0.0
Fe23 Fe 0.80472 0.12162 0.12581 0.0
O24 O 0.80332 0.08872 0.13555 0.0
Fe25 Fe 0.77824 0.06744 0.12541 0.0
O26 O 0.76615 0.06181 0.15518 0.0
O27 O 0.80489 0.05404 0.17045 0.0
O28 O 0.81668 0.10086 0.1776 0.0
C29 C 0.81641 0.1252 0.17433 0.0
C30 C 0.82377 0.03512 0.12658 0.0
O31 O 0.8176 0.13464 0.15371 0.0
C32 C 0.79091 0.09319 0.08474 0.0
O33 O 0.85343 0.09831 0.14511 0.0
O34 O 0.83739 0.11776 0.11375 0.0
O35 O 0.79903 0.03774 0.12623 0.0
O36 O 0.8381 0.05279 0.13516 0.0
C37 C 0.752 0.11578 0.13225 0.0
O38 O 0.79198 0.11445 0.09618 0.0
O39 O 0.78863 0.07158 0.0952 0.0
C40 C 0.85676 0.11059 0.12592 0.0
O41 O 0.77256 0.12797 0.13748 0.0
O42 O 0.75304 0.09338 0.12265 0.0
C43 C 0.78024 0.05375 0.1719 0.0
Fe44 Fe 0.89196 0.80599 0.1241 0.0
Fe45 Fe 0.94556 0.77829 0.12336 0.0
O46 O 0.925 0.80397 0.13335 0.0
Fe47 Fe 0.93755 0.82755 0.15307 0.0
O48 O 0.91441 0.81798 0.17554 0.0
O49 O 0.87988 0.81906 0.1524 0.0
O50 O 0.885 0.77399 0.13583 0.0
C51 C 0.89663 0.7531 0.13067 0.0
C52 C 0.90393 0.85782 0.12391 0.0
O53 O 0.91912 0.75353 0.1212 0.0
C54 C 0.97871 0.82334 0.12315 0.0
O55 O 0.89843 0.79318 0.09422 0.0
O56 O 0.9412 0.78812 0.09299 0.0
O57 O 0.9165 0.85431 0.14287 0.0
O58 O 0.89619 0.83857 0.11191 0.0
C59 C 0.96054 0.78101 0.16949 0.0
O60 O 0.97574 0.79861 0.12345 0.0
O61 O 0.96132 0.8381 0.13159 0.0
C62 C 0.91957 0.79108 0.08262 0.0
O63 O 0.95128 0.76672 0.1534 0.0
O64 O 0.96105 0.80555 0.16725 0.0
C65 C 0.88995 0.81812 0.17285 0.0
Fe66 Fe 0.18587 0.93689 0.15382 0.0
Fe67 Fe 0.2083 0.89206 0.12452 0.0
O68 O 0.20961 0.92506 0.13393 0.0
Fe69 Fe 0.23478 0.9462 0.12386 0.0
O70 O 0.24652 0.95199 0.15378 0.0
O71 O 0.2076 0.96053 0.1682 0.0
O72 O 0.19591 0.91365 0.17605 0.0
C73 C 0.19622 0.88925 0.17308 0.0
C74 C 0.18915 0.97852 0.12428 0.0
O75 O 0.19533 0.87947 0.15256 0.0
C76 C 0.22227 0.92011 0.08324 0.0
O77 O 0.15944 0.9155 0.14333 0.0
O78 O 0.17571 0.89572 0.11226 0.0
O79 O 0.21393 0.97598 0.12428 0.0
O80 O 0.17478 0.96078 0.13268 0.0
C81 C 0.26102 0.89786 0.13105 0.0
O82 O 0.22113 0.89894 0.09483 0.0
O83 O 0.22468 0.94181 0.09357 0.0
C84 C 0.15627 0.90305 0.12423 0.0
O85 O 0.2404 0.88581 0.13636 0.0
O86 O 0.26003 0.92025 0.12143 0.0
C87 C 0.23221 0.96063 0.17012 0.0
Fe88 Fe 0.06511 0.78004 0.36631 0.0
Fe89 Fe 0.07492 0.82848 0.33579 0.0
O90 O 0.08646 0.80497 0.35605 0.0
Fe91 Fe 0.1194 0.80631 0.36563 0.0
O92 O 0.12563 0.77405 0.35419 0.0
O93 O 0.09094 0.75471 0.36902 0.0
O94 O 0.05934 0.76802 0.33646 0.0
C95 C 0.05092 0.78215 0.3199 0.0
C96 C 0.09116 0.79255 0.40697 0.0
O97 O 0.05121 0.80676 0.3215 0.0
C98 C 0.10863 0.85837 0.36524 0.0
O99 O 0.03553 0.8011 0.36562 0.0
O100 O 0.05099 0.84 0.35667 0.0
O101 O 0.11234 0.79383 0.39539 0.0
O102 O 0.06945 0.79031 0.39661 0.0
C103 C 0.12264 0.81767 0.31695 0.0
O104 O 0.0964 0.85491 0.34606 0.0
O105 O 0.11571 0.83908 0.37753 0.0
C106 C 0.03321 0.82589 0.36535 0.0
O107 O 0.09825 0.81797 0.31382 0.0
O108 O 0.13224 0.81887 0.33753 0.0
C109 C 0.11346 0.75355 0.35964 0.0
Fe110 Fe 0.18706 0.07836 0.33447 0.0
Fe111 Fe 0.21006 0.12204 0.36497 0.0
O112 O 0.21057 0.08916 0.35508 0.0
Fe113 Fe 0.23476 0.06707 0.36544 0.0
O114 O 0.24729 0.0615 0.33575 0.0
O115 O 0.20859 0.05459 0.32009 0.0
O116 O 0.19828 0.10179 0.3129 0.0
C117 C 0.1993 0.12611 0.31621 0.0
C118 C 0.18841 0.03602 0.36342 0.0
O119 O 0.19831 0.13557 0.33685 0.0
C120 C 0.22203 0.09273 0.40616 0.0
O121 O 0.16094 0.10017 0.3448 0.0
O122 O 0.17694 0.11924 0.37637 0.0
O123 O 0.21321 0.03794 0.36398 0.0
O124 O 0.17472 0.05421 0.35488 0.0
C125 C 0.26275 0.11468 0.35978 0.0
O126 O 0.22176 0.11417 0.3949 0.0
O127 O 0.22383 0.07117 0.39549 0.0
C128 C 0.15762 0.1125 0.36395 0.0
O129 O 0.24281 0.12755 0.35399 0.0
O130 O 0.26057 0.0922 0.36904 0.0
C131 C 0.23323 0.05377 0.31885 0.0
Fe132 Fe 0.93796 0.18803 0.33637 0.0
Fe133 Fe 0.89275 0.20976 0.36565 0.0
O134 O 0.9257 0.21164 0.35617 0.0
Fe135 Fe 0.94646 0.23724 0.36602 0.0
O136 O 0.9519 0.24887 0.336 0.0
O137 O 0.96144 0.21 0.32212 0.0
O138 O 0.91472 0.19783 0.3141 0.0
C139 C 0.89029 0.19821 0.317 0.0
C140 C 0.97952 0.19206 0.36584 0.0
O141 O 0.88039 0.19692 0.33747 0.0
C142 C 0.92088 0.22417 0.4068 0.0
O143 O 0.9168 0.16129 0.34664 0.0
O144 O 0.89687 0.17715 0.37774 0.0
O145 O 0.97658 0.2168 0.36561 0.0
O146 O 0.96191 0.17734 0.35767 0.0
C147 C 0.89747 0.26264 0.35931 0.0
O148 O 0.89959 0.22242 0.39542 0.0
O149 O 0.9424 0.22725 0.39632 0.0
C150 C 0.90423 0.15785 0.36563 0.0
O151 O 0.88583 0.2418 0.35405 0.0
O152 O 0.9201 0.26211 0.36853 0.0
C153 C 0.96106 0.23455 0.31989 0.0
Fe154 Fe 0.77708 0.94814 0.36734 0.0
Fe155 Fe 0.82576 0.9395 0.33682 0.0
O156 O 0.80225 0.92727 0.35675 0.0
Fe157 Fe 0.80379 0.89416 0.36571 0.0
O158 O 0.77161 0.88796 0.35405 0.0
O159 O 0.75201 0.92198 0.36976 0.0
O160 O 0.76496 0.95422 0.33763 0.0
C161 C 0.77904 0.96296 0.32117 0.0
C162 C 0.79026 0.92159 0.4075 0.0
O163 O 0.80367 0.96309 0.32286 0.0
C164 C 0.85575 0.90535 0.36581 0.0
O165 O 0.79775 0.97807 0.36698 0.0
O166 O 0.83688 0.96321 0.35813 0.0
O167 O 0.79131 0.90058 0.39563 0.0
O168 O 0.78754 0.94343 0.39748 0.0
C169 C 0.81568 0.8921 0.31696 0.0
O170 O 0.85243 0.91815 0.34691 0.0
O171 O 0.83641 0.89782 0.37778 0.0
C172 C 0.82251 0.98081 0.36673 0.0
O173 O 0.81572 0.91654 0.31437 0.0
O174 O 0.81657 0.88198 0.33737 0.0
C175 C 0.75101 0.89978 0.35976 0.0
Fe176 Fe 0.94441 0.77778 0.86474 0.0
Fe177 Fe 0.93493 0.82595 0.8338 0.0
O178 O 0.92314 0.80254 0.85406 0.0
Fe179 Fe 0.89004 0.8038 0.86325 0.0
O180 O 0.88408 0.77143 0.85204 0.0
O181 O 0.91862 0.75234 0.86738 0.0
O182 O 0.95077 0.76547 0.83509 0.0
C183 C 0.95957 0.77953 0.81863 0.0
C184 C 0.91787 0.79074 0.90508 0.0
O185 O 0.95891 0.80416 0.82006 0.0
C186 C 0.90066 0.85587 0.86266 0.0
O187 O 0.97401 0.79891 0.8642 0.0
O188 O 0.95867 0.83775 0.85488 0.0
O189 O 0.89675 0.79177 0.89334 0.0
O190 O 0.93964 0.78839 0.89485 0.0
C191 C 0.88754 0.81438 0.81431 0.0
O192 O 0.91318 0.85241 0.84363 0.0
O193 O 0.89344 0.83662 0.8749 0.0
C194 C 0.97651 0.82368 0.86356 0.0
O195 O 0.91198 0.81513 0.8116 0.0
O196 O 0.87749 0.81589 0.83473 0.0
C197 C 0.89624 0.75103 0.85774 0.0
Fe198 Fe 0.18584 0.93557 0.83415 0.0
Fe199 Fe 0.20839 0.89165 0.86462 0.0
O200 O 0.20902 0.9246 0.855 0.0
Fe201 Fe 0.23303 0.94662 0.86579 0.0
O202 O 0.246 0.95232 0.8363 0.0
O203 O 0.20756 0.95965 0.82034 0.0
O204 O 0.19757 0.91247 0.81253 0.0
C205 C 0.19885 0.88813 0.81566 0.0
C206 C 0.18663 0.97753 0.86349 0.0
O207 O 0.19728 0.87841 0.83617 0.0
C208 C 0.21967 0.92067 0.90617 0.0
O209 O 0.15958 0.91351 0.84383 0.0
O210 O 0.17505 0.8943 0.87553 0.0
O211 O 0.21144 0.9757 0.86423 0.0
O212 O 0.1731 0.9594 0.85465 0.0
C213 C 0.26117 0.89916 0.8602 0.0
O214 O 0.21949 0.8993 0.8948 0.0
O215 O 0.22165 0.9423 0.89565 0.0
C216 C 0.15592 0.90103 0.86285 0.0
O217 O 0.24134 0.88627 0.85412 0.0
O218 O 0.25882 0.92154 0.86958 0.0
C219 C 0.23222 0.96031 0.81934 0.0
Fe220 Fe 0.0653 0.2344 0.86588 0.0
Fe221 Fe 0.07385 0.18544 0.83587 0.0
O222 O 0.08605 0.2089 0.85586 0.0
Fe223 Fe 0.11895 0.20693 0.86542 0.0
O224 O 0.12591 0.239 0.85385 0.0
O225 O 0.09166 0.25914 0.86858 0.0
O226 O 0.06 0.24631 0.83598 0.0
C227 C 0.05114 0.23219 0.8196 0.0
C228 C 0.09081 0.22137 0.90662 0.0
O229 O 0.05062 0.20761 0.82152 0.0
C230 C 0.10712 0.15509 0.86534 0.0
O231 O 0.0352 0.2141 0.86527 0.0
O232 O 0.04975 0.17471 0.85699 0.0
O233 O 0.11208 0.21965 0.8952 0.0
O234 O 0.06926 0.22418 0.89613 0.0
C235 C 0.12172 0.19503 0.81673 0.0
O236 O 0.09477 0.15862 0.84624 0.0
O237 O 0.1146 0.17433 0.87748 0.0
C238 C 0.03233 0.18938 0.8655 0.0
O239 O 0.09731 0.19516 0.81373 0.0
O240 O 0.13146 0.19397 0.83729 0.0
C241 C 0.1142 0.25978 0.85922 0.0
Fe242 Fe 0.77711 0.06615 0.86715 0.0
Fe243 Fe 0.82558 0.0765 0.83682 0.0
O244 O 0.80194 0.08772 0.85705 0.0
Fe245 Fe 0.80305 0.1206 0.86686 0.0
O246 O 0.77088 0.12667 0.85517 0.0
O247 O 0.75164 0.09185 0.86992 0.0
O248 O 0.76508 0.06033 0.83739 0.0
C249 C 0.77932 0.05228 0.82077 0.0
C250 C 0.78955 0.09191 0.90787 0.0
O251 O 0.80394 0.05302 0.82227 0.0
C252 C 0.85511 0.10987 0.86682 0.0
O253 O 0.79825 0.03667 0.86629 0.0
O254 O 0.83712 0.05229 0.85747 0.0
O255 O 0.79036 0.11324 0.8965 0.0
O256 O 0.78747 0.07034 0.89732 0.0
C257 C 0.81481 0.12435 0.81831 0.0
O258 O 0.85187 0.09788 0.84749 0.0
O259 O 0.83572 0.11698 0.87897 0.0
C260 C 0.82303 0.03433 0.86585 0.0
O261 O 0.8151 0.10002 0.81504 0.0
O262 O 0.81586 0.13378 0.83896 0.0
C263 C 0.75043 0.11427 0.86035 0.0
Fe264 Fe 0.89299 0.20207 0.62517 0.0
Fe265 Fe 0.94645 0.22998 0.62399 0.0
O266 O 0.92593 0.20456 0.63457 0.0
Fe267 Fe 0.93836 0.18173 0.65504 0.0
O268 O 0.91496 0.19205 0.67706 0.0
O269 O 0.88079 0.18978 0.65359 0.0
O270 O 0.88583 0.23436 0.63615 0.0
C271 C 0.89754 0.25514 0.63073 0.0
C272 C 0.90517 0.15031 0.62641 0.0
O273 O 0.91998 0.25453 0.6212 0.0
C274 C 0.97965 0.18506 0.62509 0.0
O275 O 0.89951 0.21418 0.59518 0.0
O276 O 0.94225 0.21924 0.5939 0.0
O277 O 0.91742 0.15459 0.64544 0.0
O278 O 0.89755 0.16912 0.61377 0.0
C279 C 0.96118 0.22888 0.67018 0.0
O280 O 0.97661 0.20977 0.62468 0.0
O281 O 0.96239 0.17051 0.63406 0.0
C282 C 0.92063 0.21616 0.5836 0.0
O283 O 0.952 0.24254 0.65365 0.0
O284 O 0.9617 0.20428 0.66874 0.0
C285 C 0.89053 0.19184 0.67408 0.0
Fe286 Fe 0.80349 0.88662 0.62344 0.0
Fe287 Fe 0.78063 0.94214 0.62702 0.0
O288 O 0.80382 0.91834 0.63614 0.0
Fe289 Fe 0.82723 0.92592 0.65803 0.0
O290 O 0.82776 0.89305 0.67061 0.0
O291 O 0.79691 0.87136 0.65186 0.0
O292 O 0.76828 0.88613 0.61783 0.0
C293 C 0.74975 0.89841 0.62752 0.0
C294 C 0.85774 0.89669 0.62872 0.0
O295 O 0.75321 0.92115 0.63557 0.0
C296 C 0.8248 0.97251 0.63083 0.0
O297 O 0.80996 0.89996 0.59447 0.0
O298 O 0.77978 0.93068 0.5962 0.0
O299 O 0.85432 0.91868 0.63829 0.0
O300 O 0.83879 0.88099 0.62645 0.0
C301 C 0.78412 0.95013 0.67656 0.0
O302 O 0.80612 0.96497 0.61792 0.0
O303 O 0.83074 0.96021 0.64945 0.0
C304 C 0.79578 0.91684 0.58444 0.0
O305 O 0.77778 0.9579 0.65612 0.0
O306 O 0.802 0.93349 0.67936 0.0
C307 C 0.81097 0.87493 0.66986 0.0
Fe308 Fe 0.12476 0.80301 0.62382 0.0
Fe309 Fe 0.07028 0.77705 0.62609 0.0
O310 O 0.09227 0.80221 0.63478 0.0
Fe311 Fe 0.08192 0.82645 0.65484 0.0
O312 O 0.10637 0.81653 0.67598 0.0
O313 O 0.13918 0.81643 0.65098 0.0
O314 O 0.13132 0.77116 0.63593 0.0
C315 C 0.11872 0.75056 0.63179 0.0
C316 C 0.11425 0.8551 0.62316 0.0
O317 O 0.09584 0.75146 0.62311 0.0
C318 C 0.0385 0.823 0.62738 0.0
O319 O 0.1161 0.78962 0.59473 0.0
O320 O 0.07319 0.7864 0.59544 0.0
O321 O 0.10284 0.85242 0.64284 0.0
O322 O 0.12073 0.83538 0.61118 0.0
C323 C 0.05853 0.78075 0.67302 0.0
O324 O 0.04095 0.79824 0.62743 0.0
O325 O 0.0567 0.83743 0.63487 0.0
C326 C 0.09431 0.78843 0.58411 0.0
O327 O 0.06565 0.76598 0.6564 0.0
O328 O 0.05919 0.80531 0.67083 0.0
C329 C 0.13055 0.8157 0.67191 0.0
Fe330 Fe 0.23714 0.06571 0.62362 0.0
Fe331 Fe 0.18805 0.07367 0.65361 0.0
O332 O 0.21162 0.08627 0.63394 0.0
Fe333 Fe 0.20977 0.11938 0.62499 0.0
O334 O 0.24177 0.12597 0.63689 0.0
O335 O 0.26196 0.0921 0.62153 0.0
O336 O 0.24891 0.05972 0.65349 0.0
C337 C 0.23469 0.05054 0.66966 0.0
C338 C 0.22423 0.0922 0.58332 0.0
O339 O 0.21011 0.05009 0.6676 0.0
C340 C 0.15792 0.10746 0.62452 0.0
O341 O 0.21675 0.0356 0.62361 0.0
O342 O 0.17737 0.05011 0.63202 0.0
O343 O 0.22266 0.1132 0.59515 0.0
O344 O 0.22702 0.07041 0.5934 0.0
C345 C 0.1976 0.12106 0.67366 0.0
O346 O 0.16133 0.09483 0.64348 0.0
O347 O 0.17723 0.11537 0.61268 0.0
C348 C 0.192 0.03279 0.62332 0.0
O349 O 0.19771 0.0966 0.67622 0.0
O350 O 0.19663 0.13124 0.65328 0.0
C351 C 0.26257 0.11433 0.63146 0.0
Fe352 Fe 0.5875 0.68582 0.65853 0.0
Fe353 Fe 0.62685 0.70977 0.62417 0.0
O354 O 0.59499 0.70915 0.63658 0.0
Fe355 Fe 0.571 0.73197 0.62711 0.0
O356 O 0.5548 0.73478 0.65602 0.0
O357 O 0.57928 0.71105 0.67963 0.0
O358 O 0.62024 0.68597 0.67144 0.0
C359 C 0.63801 0.70312 0.67077 0.0
C360 C 0.54105 0.68754 0.631 0.0
O361 O 0.6417 0.71694 0.65263 0.0
C362 C 0.59693 0.71662 0.5849 0.0
O363 O 0.59536 0.65871 0.63903 0.0
O364 O 0.63302 0.67465 0.62757 0.0
O365 O 0.54851 0.70618 0.618 0.0
O366 O 0.55338 0.68173 0.64964 0.0
C367 C 0.6144 0.76332 0.62775 0.0
O368 O 0.61385 0.70275 0.59521 0.0
O369 O 0.58284 0.73266 0.59637 0.0
C370 C 0.61751 0.65554 0.62968 0.0
O371 O 0.6269 0.74488 0.61819 0.0
O372 O 0.59162 0.75967 0.63571 0.0
C373 C 0.56224 0.72849 0.67658 0.0
Fe374 Fe 0.33092 0.57655 0.66007 0.0
Fe375 Fe 0.30997 0.62156 0.63007 0.0
O376 O 0.30802 0.58855 0.6394 0.0
Fe377 Fe 0.28309 0.56757 0.62857 0.0
O378 O 0.2704 0.56152 0.65819 0.0
O379 O 0.30874 0.55276 0.67361 0.0
O380 O 0.31988 0.59971 0.68202 0.0
C381 C 0.31945 0.62414 0.67914 0.0
C382 C 0.32866 0.53518 0.63009 0.0
O383 O 0.3217 0.63402 0.65871 0.0
C384 C 0.29668 0.59381 0.5882 0.0
O385 O 0.35775 0.598 0.65066 0.0
O386 O 0.34309 0.61758 0.61891 0.0
O387 O 0.30391 0.53786 0.62931 0.0
O388 O 0.34283 0.55268 0.63921 0.0
C389 C 0.25692 0.61602 0.63514 0.0
O390 O 0.29831 0.6149 0.59989 0.0
O391 O 0.29392 0.5721 0.59847 0.0
C392 C 0.36195 0.61015 0.63157 0.0
O393 O 0.27742 0.6281 0.64075 0.0
O394 O 0.25801 0.59355 0.62571 0.0
C395 C 0.28411 0.55259 0.67482 0.0
Fe396 Fe 0.39412 0.30481 0.6272 0.0
Fe397 Fe 0.4478 0.27723 0.62622 0.0
O398 O 0.42698 0.30243 0.63688 0.0
Fe399 Fe 0.43901 0.32519 0.65761 0.0
O400 O 0.41535 0.31482 0.67933 0.0
O401 O 0.3814 0.31688 0.65562 0.0
O402 O 0.38705 0.27239 0.63788 0.0
C403 C 0.39884 0.25173 0.63225 0.0
C404 C 0.4062 0.35658 0.62866 0.0
O405 O 0.42143 0.25256 0.62298 0.0
C406 C 0.48073 0.32228 0.628 0.0
O407 O 0.40112 0.29308 0.59713 0.0
O408 O 0.44391 0.28824 0.59618 0.0
O409 O 0.41828 0.3524 0.64778 0.0
O410 O 0.39861 0.33778 0.61603 0.0
C411 C 0.46165 0.2779 0.67267 0.0
O412 O 0.47789 0.29756 0.62736 0.0
O413 O 0.46332 0.33659 0.637 0.0
C414 C 0.42241 0.29145 0.58572 0.0
O415 O 0.45319 0.26436 0.65576 0.0
O416 O 0.46201 0.30253 0.67154 0.0
C417 C 0.39096 0.31521 0.67621 0.0
Fe418 Fe 0.71084 0.38898 0.62542 0.0
Fe419 Fe 0.73753 0.44307 0.62643 0.0
O420 O 0.7123 0.4216 0.63586 0.0
Fe421 Fe 0.6886 0.43269 0.65616 0.0
O422 O 0.69877 0.40866 0.67759 0.0
O423 O 0.69793 0.37536 0.65311 0.0
O424 O 0.74291 0.38217 0.63698 0.0
C425 C 0.76357 0.3944 0.63222 0.0
C426 C 0.65885 0.40003 0.62565 0.0
O427 O 0.76276 0.41719 0.62338 0.0
C428 C 0.69189 0.4753 0.6278 0.0
O429 O 0.72361 0.39688 0.59591 0.0
O430 O 0.72755 0.43973 0.59598 0.0
O431 O 0.66216 0.4117 0.64512 0.0
O432 O 0.67822 0.39321 0.61335 0.0
C433 C 0.73486 0.45611 0.67309 0.0
O434 O 0.71665 0.47267 0.62763 0.0
O435 O 0.67743 0.45741 0.6358 0.0
C436 C 0.72497 0.41846 0.58498 0.0
O437 O 0.74923 0.44809 0.65651 0.0
O438 O 0.71027 0.45577 0.67124 0.0
C439 C 0.69909 0.38438 0.6739 0.0
Fe440 Fe 0.56698 0.27819 0.86715 0.0
Fe441 Fe 0.57632 0.32558 0.83517 0.0
O442 O 0.58806 0.303 0.85619 0.0
Fe443 Fe 0.62095 0.30514 0.86587 0.0
O444 O 0.62766 0.27258 0.85536 0.0
O445 O 0.59309 0.2533 0.87054 0.0
O446 O 0.56132 0.26495 0.83778 0.0
C447 C 0.5531 0.27832 0.82067 0.0
C448 C 0.59274 0.29249 0.9074 0.0
O449 O 0.55314 0.30298 0.82142 0.0
C450 C 0.6092 0.35701 0.864 0.0
O451 O 0.53716 0.29881 0.86585 0.0
O452 O 0.55202 0.33753 0.85554 0.0
O453 O 0.61397 0.29358 0.89591 0.0
O454 O 0.57113 0.28965 0.89703 0.0
C455 C 0.62434 0.31467 0.81693 0.0
O456 O 0.59729 0.35268 0.84481 0.0
O457 O 0.61671 0.33829 0.87681 0.0
C458 C 0.53455 0.32352 0.86485 0.0
O459 O 0.59998 0.31462 0.81366 0.0
O460 O 0.63376 0.31689 0.8375 0.0
C461 C 0.61558 0.25212 0.86111 0.0
Fe462 Fe 0.68211 0.57926 0.83379 0.0
Fe463 Fe 0.70299 0.62332 0.86503 0.0
O464 O 0.70502 0.59061 0.85477 0.0
Fe465 Fe 0.73005 0.56935 0.86504 0.0
O466 O 0.74275 0.56411 0.83536 0.0
O467 O 0.70444 0.55625 0.8194 0.0
O468 O 0.69292 0.6033 0.81255 0.0
C469 C 0.6933 0.62761 0.8161 0.0
C470 C 0.68466 0.53678 0.86262 0.0
O471 O 0.69115 0.63677 0.83679 0.0
C472 C 0.71642 0.5942 0.9061 0.0
O473 O 0.65516 0.60015 0.84398 0.0
O474 O 0.6699 0.61893 0.87612 0.0
O475 O 0.70936 0.53963 0.86358 0.0
O476 O 0.67038 0.55443 0.85388 0.0
C477 C 0.75606 0.61806 0.85955 0.0
O478 O 0.71474 0.61569 0.89501 0.0
O479 O 0.71922 0.5729 0.89522 0.0
C480 C 0.65101 0.61188 0.8633 0.0
O481 O 0.73549 0.6303 0.85445 0.0
O482 O 0.75508 0.59532 0.86847 0.0
C483 C 0.72909 0.55596 0.81837 0.0
Fe484 Fe 0.42575 0.68715 0.83636 0.0
Fe485 Fe 0.38597 0.71193 0.86991 0.0
O486 O 0.418 0.71099 0.85779 0.0
Fe487 Fe 0.4419 0.73399 0.86703 0.0
O488 O 0.45834 0.73616 0.83824 0.0
O489 O 0.43429 0.71185 0.81478 0.0
O490 O 0.39314 0.68689 0.82321 0.0
C491 C 0.37521 0.70388 0.82342 0.0
C492 C 0.47197 0.68953 0.86419 0.0
O493 O 0.37142 0.71829 0.84116 0.0
C494 C 0.41552 0.71967 0.90927 0.0
O495 O 0.41771 0.66057 0.85637 0.0
O496 O 0.3799 0.67669 0.86721 0.0
O497 O 0.46439 0.70844 0.87683 0.0
O498 O 0.45978 0.68332 0.84559 0.0
C499 C 0.39844 0.76528 0.86515 0.0
O500 O 0.39861 0.70566 0.89911 0.0
O501 O 0.42975 0.73543 0.89763 0.0
C502 C 0.39548 0.65758 0.86561 0.0
O503 O 0.38575 0.74726 0.87515 0.0
O504 O 0.42134 0.76135 0.85764 0.0
C505 C 0.45131 0.72937 0.8177 0.0
Fe506 Fe 0.27761 0.44392 0.86925 0.0
Fe507 Fe 0.32691 0.43497 0.8397 0.0
O508 O 0.30323 0.42304 0.85964 0.0
Fe509 Fe 0.30507 0.39022 0.86953 0.0
O510 O 0.27313 0.3832 0.85773 0.0
O511 O 0.25275 0.41766 0.87178 0.0
O512 O 0.26607 0.44917 0.83915 0.0
C513 C 0.28041 0.4578 0.8228 0.0
C514 C 0.29018 0.41876 0.91048 0.0
O515 O 0.30498 0.45804 0.82487 0.0
C516 C 0.35692 0.402 0.86971 0.0
O517 O 0.298 0.47389 0.86859 0.0
O518 O 0.33751 0.45936 0.8606 0.0
O519 O 0.29208 0.39738 0.89922 0.0
O520 O 0.2874 0.44017 0.89973 0.0
C521 C 0.31745 0.38691 0.82091 0.0
O522 O 0.35357 0.41416 0.8505 0.0
O523 O 0.33759 0.39462 0.88178 0.0
C524 C 0.32272 0.4769 0.86871 0.0
O525 O 0.31735 0.41128 0.81773 0.0
O526 O 0.31829 0.37737 0.84156 0.0
C527 C 0.25228 0.39511 0.86246 0.0
Fe528 Fe 0.42781 0.32744 0.33574 0.0
Fe529 Fe 0.38784 0.30334 0.36946 0.0
O530 O 0.41981 0.30375 0.35723 0.0
Fe531 Fe 0.44338 0.28035 0.36635 0.0
O532 O 0.45947 0.27775 0.33732 0.0
O533 O 0.43548 0.30254 0.31418 0.0
O534 O 0.39506 0.32837 0.32282 0.0
C535 C 0.37692 0.31159 0.32303 0.0
C536 C 0.47429 0.32422 0.3632 0.0
O537 O 0.37306 0.29718 0.34077 0.0
C538 C 0.41741 0.29521 0.40875 0.0
O539 O 0.42048 0.35418 0.35581 0.0
O540 O 0.38241 0.33869 0.36674 0.0
O541 O 0.46638 0.30552 0.37592 0.0
O542 O 0.46207 0.33061 0.34465 0.0
C543 C 0.39937 0.24975 0.36483 0.0
O544 O 0.40072 0.30944 0.39857 0.0
O545 O 0.43147 0.27926 0.39711 0.0
C546 C 0.39832 0.35755 0.36511 0.0
O547 O 0.38701 0.26803 0.37478 0.0
O548 O 0.42228 0.25329 0.3572 0.0
C549 C 0.45193 0.28447 0.31688 0.0
Fe550 Fe 0.68365 0.43828 0.33668 0.0
Fe551 Fe 0.70423 0.39273 0.36619 0.0
O552 O 0.70674 0.42571 0.35687 0.0
Fe553 Fe 0.73239 0.44615 0.36716 0.0
O554 O 0.74442 0.45191 0.33723 0.0
O555 O 0.70589 0.46188 0.32293 0.0
O556 O 0.69386 0.41514 0.31446 0.0
C557 C 0.69386 0.3907 0.31728 0.0
C558 C 0.68731 0.47927 0.36684 0.0
O559 O 0.69186 0.38074 0.3377 0.0
C560 C 0.71898 0.4202 0.40777 0.0
O561 O 0.65659 0.41723 0.34625 0.0
O562 O 0.67127 0.3972 0.37773 0.0
O563 O 0.71206 0.47628 0.36691 0.0
O564 O 0.67264 0.46204 0.35798 0.0
C565 C 0.75741 0.39703 0.36035 0.0
O566 O 0.71645 0.39915 0.39617 0.0
O567 O 0.72228 0.44181 0.39747 0.0
C568 C 0.65237 0.40487 0.36521 0.0
O569 O 0.73649 0.38545 0.35514 0.0
O570 O 0.75705 0.41967 0.36951 0.0
C571 C 0.73045 0.46133 0.321 0.0
Fe572 Fe 0.62074 0.70912 0.36707 0.0
Fe573 Fe 0.56666 0.73596 0.36729 0.0
O574 O 0.5879 0.7108 0.35717 0.0
Fe575 Fe 0.57634 0.68739 0.33682 0.0
O576 O 0.60018 0.69739 0.3151 0.0
O577 O 0.63389 0.69632 0.3391 0.0
O578 O 0.6274 0.74133 0.35566 0.0
C579 C 0.61534 0.76195 0.36096 0.0
C580 C 0.60923 0.65721 0.36677 0.0
O581 O 0.59276 0.76099 0.37025 0.0
C582 C 0.53416 0.69056 0.36593 0.0
O583 O 0.61338 0.72159 0.39678 0.0
O584 O 0.57051 0.72551 0.39752 0.0
O585 O 0.59718 0.66067 0.34751 0.0
O586 O 0.61661 0.67644 0.37897 0.0
C587 C 0.55326 0.73413 0.32071 0.0
O588 O 0.53681 0.7153 0.36628 0.0
O589 O 0.55183 0.67625 0.35736 0.0
C590 C 0.59201 0.72274 0.40809 0.0
O591 O 0.56127 0.74815 0.3375 0.0
O592 O 0.55339 0.7095 0.32215 0.0
C593 C 0.62453 0.69721 0.31842 0.0
Fe594 Fe 0.3259 0.57904 0.33965 0.0
Fe595 Fe 0.3041 0.62356 0.36976 0.0
O596 O 0.30237 0.59075 0.35983 0.0
Fe597 Fe 0.27699 0.56967 0.36963 0.0
O598 O 0.26514 0.56441 0.33962 0.0
O599 O 0.30395 0.55587 0.32495 0.0
O600 O 0.31589 0.60273 0.31785 0.0
C601 C 0.31577 0.62707 0.3211 0.0
C602 C 0.3223 0.53697 0.36857 0.0
O603 O 0.31693 0.63658 0.34173 0.0
C604 C 0.29001 0.5948 0.41074 0.0
O605 O 0.35258 0.60002 0.35026 0.0
O606 O 0.33678 0.61938 0.38171 0.0
O607 O 0.29757 0.53985 0.36871 0.0
O608 O 0.33691 0.55462 0.36036 0.0
C609 C 0.25126 0.6183 0.36314 0.0
O610 O 0.29151 0.61622 0.39952 0.0
O611 O 0.28714 0.5734 0.4 0.0
C612 C 0.35605 0.61221 0.36945 0.0
O613 O 0.27198 0.63038 0.35825 0.0
O614 O 0.25198 0.59575 0.37244 0.0
C615 C 0.27934 0.55594 0.32312 0.0
Fe616 Fe 0.44607 0.73512 0.12618 0.0
Fe617 Fe 0.43758 0.68676 0.15709 0.0
O618 O 0.42524 0.71 0.13694 0.0
Fe619 Fe 0.39211 0.70825 0.12802 0.0
O620 O 0.3858 0.74061 0.13921 0.0
O621 O 0.41994 0.76015 0.12362 0.0
O622 O 0.45221 0.74748 0.15579 0.0
C623 C 0.46116 0.73357 0.17226 0.0
C624 C 0.41951 0.72163 0.08611 0.0
O625 O 0.46134 0.70895 0.17069 0.0
C626 C 0.40326 0.65626 0.12867 0.0
O627 O 0.47595 0.71445 0.12656 0.0
O628 O 0.46115 0.67537 0.13575 0.0
O629 O 0.39849 0.72024 0.09795 0.0
O630 O 0.44132 0.72451 0.09613 0.0
C631 C 0.39027 0.6975 0.17692 0.0
O632 O 0.41611 0.65995 0.14749 0.0
O633 O 0.39576 0.67539 0.11641 0.0
C634 C 0.47862 0.6897 0.12683 0.0
O635 O 0.41474 0.69718 0.17948 0.0
O636 O 0.38006 0.69603 0.15658 0.0
C637 C 0.39765 0.76117 0.13343 0.0
Fe638 Fe 0.27838 0.44624 0.12859 0.0
Fe639 Fe 0.32657 0.43646 0.15945 0.0
O640 O 0.30303 0.42481 0.13923 0.0
Fe641 Fe 0.30403 0.3917 0.13007 0.0
O642 O 0.27158 0.386 0.14134 0.0
O643 O 0.25276 0.42067 0.12598 0.0
O644 O 0.26622 0.45256 0.15833 0.0
C645 C 0.28037 0.46119 0.17482 0.0
C646 C 0.29101 0.41957 0.0882 0.0
O647 O 0.30499 0.46059 0.1733 0.0
C648 C 0.35621 0.40213 0.13051 0.0
O649 O 0.29972 0.47565 0.12908 0.0
O650 O 0.33847 0.46005 0.13834 0.0
O651 O 0.29198 0.39849 0.1 0.0
O652 O 0.28884 0.44138 0.0984 0.0
C653 C 0.31484 0.38916 0.17899 0.0
O654 O 0.35284 0.41459 0.14957 0.0
O655 O 0.33691 0.39485 0.11836 0.0
C656 C 0.32452 0.4779 0.12957 0.0
O657 O 0.31568 0.41359 0.18169 0.0
O658 O 0.31613 0.37911 0.15857 0.0
C659 C 0.25128 0.39833 0.13565 0.0
Fe660 Fe 0.56636 0.2777 0.12507 0.0
Fe661 Fe 0.57622 0.32644 0.1551 0.0
O662 O 0.58773 0.30277 0.13501 0.0
Fe663 Fe 0.62063 0.30408 0.12525 0.0
O664 O 0.62695 0.27193 0.13689 0.0
O665 O 0.59222 0.25242 0.12233 0.0
O666 O 0.56071 0.26583 0.15492 0.0
C667 C 0.55245 0.28012 0.17143 0.0
C668 C 0.59197 0.29033 0.08427 0.0
O669 O 0.55281 0.30472 0.16967 0.0
C670 C 0.60972 0.35611 0.12524 0.0
O671 O 0.53671 0.29859 0.12585 0.0
O672 O 0.55199 0.33768 0.13429 0.0
O673 O 0.61333 0.2914 0.09559 0.0
O674 O 0.57043 0.28793 0.09484 0.0
C675 C 0.62407 0.31575 0.1738 0.0
O676 O 0.59752 0.35286 0.14447 0.0
O677 O 0.61688 0.33672 0.11314 0.0
C678 C 0.53415 0.32333 0.12602 0.0
O679 O 0.59971 0.31621 0.17698 0.0
O680 O 0.63365 0.31688 0.15321 0.0
C681 C 0.61474 0.25138 0.13172 0.0
Fe682 Fe 0.70754 0.62017 0.12525 0.0
Fe683 Fe 0.73478 0.56639 0.1241 0.0
O684 O 0.70932 0.5871 0.13436 0.0
Fe685 Fe 0.68572 0.57468 0.15415 0.0
O686 O 0.69547 0.59773 0.17665 0.0
O687 O 0.69469 0.63226 0.15356 0.0
O688 O 0.73966 0.62678 0.1369 0.0
C689 C 0.76042 0.61512 0.1314 0.0
C690 C 0.65559 0.60864 0.12512 0.0
O691 O 0.75972 0.59268 0.12184 0.0
C692 C 0.68953 0.53353 0.12416 0.0
O693 O 0.72017 0.61376 0.09536 0.0
O694 O 0.72468 0.57097 0.09377 0.0
O695 O 0.65901 0.59589 0.14401 0.0
O696 O 0.67489 0.61629 0.11314 0.0
C697 C 0.73228 0.55138 0.1703 0.0
O698 O 0.71428 0.53637 0.12427 0.0
O699 O 0.67493 0.55097 0.13271 0.0
C700 C 0.72176 0.59271 0.08359 0.0
O701 O 0.74653 0.56046 0.15407 0.0
O702 O 0.7077 0.55111 0.16828 0.0
C703 C 0.69558 0.62218 0.17399 0.0
H704 H 0.17892 0.17548 0.31477 0.0
H705 H 0.17504 0.17662 0.1741 0.0
H706 H 0.21373 0.11597 0.27086 0.0
H707 H 0.11604 0.21146 0.21854 0.0
H708 H 0.20054 0.16592 0.2094 0.0
H709 H 0.16747 0.20017 0.2792 0.0
C710 C 0.18468 0.16792 0.29769 0.0
C711 C 0.19676 0.14342 0.29563 0.0
C712 C 0.18224 0.17637 0.2113 0.0
C713 C 0.18395 0.1715 0.25518 0.0
C714 C 0.16772 0.18251 0.19123 0.0
C715 C 0.14317 0.19444 0.19353 0.0
C716 C 0.17222 0.18255 0.23367 0.0
C717 C 0.13464 0.20178 0.21609 0.0
C718 C 0.1781 0.18196 0.27746 0.0
C719 C 0.20392 0.13455 0.27313 0.0
N720 N 0.14905 0.19548 0.23536 0.0
N721 N 0.19715 0.14847 0.2537 0.0
H722 H 0.90141 0.21298 0.27194 0.0
H723 H 0.80037 0.11598 0.21932 0.0
H724 H 0.84097 0.17777 0.31458 0.0
H725 H 0.83932 0.17344 0.17609 0.0
H726 H 0.81181 0.14112 0.25437 0.0
H727 H 0.87645 0.20213 0.23655 0.0
C728 C 0.88269 0.20327 0.27383 0.0
C729 C 0.87346 0.1957 0.2961 0.0
C730 C 0.81741 0.14854 0.2372 0.0
C731 C 0.845 0.18307 0.25581 0.0
C732 C 0.81101 0.13411 0.21722 0.0
C733 C 0.81936 0.14242 0.1949 0.0
C734 C 0.83283 0.17108 0.23484 0.0
C735 C 0.83274 0.16625 0.19305 0.0
C736 C 0.86838 0.19724 0.25366 0.0
C737 C 0.84891 0.18364 0.29768 0.0
N738 N 0.8396 0.1795 0.21287 0.0
N739 N 0.83575 0.17715 0.27771 0.0
H740 H 0.90077 0.80365 0.21806 0.0
H741 H 0.80145 0.90323 0.27174 0.0
H742 H 0.84183 0.8413 0.17548 0.0
H743 H 0.8385 0.84383 0.31422 0.0
H744 H 0.81387 0.87921 0.23622 0.0
H745 H 0.87662 0.81603 0.25353 0.0
C746 C 0.88254 0.81423 0.2162 0.0
C747 C 0.87345 0.82183 0.19388 0.0
C748 C 0.81887 0.87116 0.25331 0.0
C749 C 0.84594 0.83632 0.2343 0.0
C750 C 0.81189 0.88492 0.27357 0.0
C751 C 0.81932 0.87566 0.29588 0.0
C752 C 0.83387 0.84831 0.25539 0.0
C753 C 0.83254 0.8517 0.29732 0.0
C754 C 0.8687 0.82118 0.23642 0.0
C755 C 0.84958 0.83521 0.19239 0.0
N756 N 0.83988 0.83909 0.27729 0.0
N757 N 0.83688 0.84251 0.21239 0.0
H758 H 0.17181 0.83859 0.31547 0.0
H759 H 0.17474 0.84036 0.17475 0.0
H760 H 0.11235 0.80372 0.27147 0.0
H761 H 0.21003 0.89971 0.21855 0.0
H762 H 0.16283 0.81597 0.21035 0.0
H763 H 0.19663 0.84993 0.27996 0.0
C764 C 0.16425 0.83284 0.29838 0.0
C765 C 0.13977 0.82069 0.29629 0.0
C766 C 0.1736 0.8341 0.21207 0.0
C767 C 0.16805 0.83337 0.2559 0.0
C768 C 0.18045 0.84797 0.19182 0.0
C769 C 0.19288 0.87231 0.19383 0.0
C770 C 0.17955 0.84454 0.23433 0.0
C771 C 0.19996 0.88125 0.21633 0.0
C772 C 0.17838 0.83938 0.27819 0.0
C773 C 0.13093 0.81356 0.27376 0.0
N774 N 0.19297 0.86746 0.23578 0.0
N775 N 0.14497 0.82024 0.25437 0.0
H776 H 0.89993 0.79839 0.76986 0.0
H777 H 0.78614 0.87853 0.71182 0.0
H778 H 0.83694 0.83184 0.81053 0.0
H779 H 0.83922 0.83034 0.67207 0.0
H780 H 0.79945 0.85601 0.74801 0.0
H781 H 0.87426 0.80452 0.73404 0.0
C782 C 0.88056 0.80685 0.77125 0.0
C783 C 0.87074 0.81511 0.79312 0.0
C784 C 0.80759 0.84969 0.73132 0.0
C785 C 0.84125 0.82237 0.75211 0.0
C786 C 0.79977 0.86237 0.71068 0.0
C787 C 0.81142 0.85592 0.68911 0.0
C788 C 0.82773 0.83103 0.73031 0.0
C789 C 0.82957 0.83549 0.68844 0.0
C790 C 0.86582 0.81019 0.7508 0.0
C791 C 0.84535 0.82546 0.79398 0.0
N792 N 0.83756 0.82407 0.70885 0.0
N793 N 0.83166 0.82926 0.77368 0.0
H794 H 0.17822 0.8399 0.67276 0.0
H795 H 0.18193 0.83745 0.81337 0.0
H796 H 0.12361 0.7977 0.71654 0.0
H797 H 0.21328 0.89987 0.77059 0.0
H798 H 0.17306 0.81245 0.77741 0.0
H799 H 0.2034 0.85125 0.70815 0.0
C800 C 0.1719 0.83253 0.68975 0.0
C801 C 0.14854 0.81841 0.69195 0.0
C802 C 0.18236 0.83141 0.776 0.0
C803 C 0.17711 0.83108 0.73213 0.0
C804 C 0.18744 0.84566 0.79646 0.0
C805 C 0.19772 0.871 0.79483 0.0
C806 C 0.18783 0.84256 0.75391 0.0
C807 C 0.20474 0.88063 0.77253 0.0
C808 C 0.1862 0.83904 0.70988 0.0
C809 C 0.14121 0.80918 0.71427 0.0
N810 N 0.19936 0.86651 0.75287 0.0
N811 N 0.1553 0.81593 0.73359 0.0
H812 H 0.21111 0.10971 0.71904 0.0
H813 H 0.11161 0.20956 0.77141 0.0
H814 H 0.17534 0.16957 0.67617 0.0
H815 H 0.16994 0.17203 0.81478 0.0
H816 H 0.1364 0.19729 0.73629 0.0
H817 H 0.19849 0.13389 0.75442 0.0
C818 C 0.2009 0.12814 0.7171 0.0
C819 C 0.19384 0.13748 0.69472 0.0
C820 C 0.14405 0.19216 0.7535 0.0
C821 C 0.17912 0.16501 0.73501 0.0
C822 C 0.12985 0.19904 0.77352 0.0
C823 C 0.13857 0.19142 0.79594 0.0
C824 C 0.16679 0.17706 0.75593 0.0
C825 C 0.16247 0.17812 0.79777 0.0
C826 C 0.19383 0.14199 0.73727 0.0
C827 C 0.18096 0.16161 0.69313 0.0
N828 N 0.17551 0.17087 0.77795 0.0
N829 N 0.17352 0.17431 0.71306 0.0
H830 H 0.8386 0.17217 0.81673 0.0
H831 H 0.84053 0.17303 0.67601 0.0
H832 H 0.79926 0.11523 0.77316 0.0
H833 H 0.90171 0.2057 0.71948 0.0
H834 H 0.81529 0.16346 0.71165 0.0
H835 H 0.85142 0.19602 0.78104 0.0
C836 C 0.83215 0.16505 0.7997 0.0
C837 C 0.81833 0.14147 0.79774 0.0
C838 C 0.83406 0.17312 0.71329 0.0
C839 C 0.83272 0.16856 0.75718 0.0
C840 C 0.84845 0.1786 0.69301 0.0
C841 C 0.87349 0.18959 0.6949 0.0
C842 C 0.84471 0.17894 0.73549 0.0
C843 C 0.88272 0.19665 0.71733 0.0
C844 C 0.83954 0.17858 0.7794 0.0
C845 C 0.81037 0.13309 0.77531 0.0
N846 N 0.86842 0.19095 0.73682 0.0
N847 N 0.81792 0.14651 0.75583 0.0
H848 H 0.68511 0.67913 0.67334 0.0
H849 H 0.67624 0.67843 0.81384 0.0
H850 H 0.63082 0.72583 0.71324 0.0
H851 H 0.71013 0.61706 0.7715 0.0
H852 H 0.67125 0.70507 0.77812 0.0
H853 H 0.70685 0.66653 0.71021 0.0
C854 C 0.67859 0.68765 0.68983 0.0
C855 C 0.65642 0.70363 0.69047 0.0
C856 C 0.68018 0.68593 0.77678 0.0
C857 C 0.68031 0.68869 0.73251 0.0
C858 C 0.68301 0.67073 0.79711 0.0
C859 C 0.69308 0.64529 0.7955 0.0
C860 C 0.68776 0.67567 0.75482 0.0
C861 C 0.70174 0.63636 0.77344 0.0
C862 C 0.69072 0.68023 0.71085 0.0
C863 C 0.6481 0.71364 0.7122 0.0
N864 N 0.69867 0.65143 0.75394 0.0
N865 N 0.65982 0.70569 0.73247 0.0
H866 H 0.379 0.72852 0.78138 0.0
H867 H 0.30292 0.61197 0.72353 0.0
H868 H 0.33106 0.67502 0.82096 0.0
H869 H 0.33581 0.67508 0.68263 0.0
H870 H 0.30754 0.63838 0.75909 0.0
H871 H 0.35748 0.71423 0.74499 0.0
C872 C 0.36306 0.7146 0.78243 0.0
C873 C 0.35643 0.70309 0.80401 0.0
C874 C 0.31342 0.64667 0.74232 0.0
C875 C 0.33275 0.68566 0.76263 0.0
C876 C 0.31096 0.6315 0.72202 0.0
C877 C 0.31952 0.64115 0.70019 0.0
C878 C 0.32498 0.67153 0.74088 0.0
C879 C 0.32926 0.66677 0.69917 0.0
C880 C 0.35097 0.70622 0.76168 0.0
C881 C 0.33633 0.68456 0.80456 0.0
N882 N 0.33219 0.68091 0.71932 0.0
N883 N 0.32551 0.67601 0.78408 0.0
H884 H 0.34206 0.33689 0.67817 0.0
H885 H 0.3405 0.33864 0.81916 0.0
H886 H 0.40136 0.30101 0.72163 0.0
H887 H 0.30303 0.39674 0.77552 0.0
H888 H 0.35282 0.31454 0.78345 0.0
H889 H 0.31775 0.34847 0.71392 0.0
C890 C 0.34969 0.33098 0.69519 0.0
C891 C 0.37398 0.31842 0.69703 0.0
C892 C 0.3415 0.33233 0.78179 0.0
C893 C 0.34631 0.33145 0.73776 0.0
C894 C 0.33439 0.34602 0.80211 0.0
C895 C 0.32115 0.36992 0.80019 0.0
C896 C 0.33499 0.34252 0.75954 0.0
C897 C 0.31366 0.3786 0.7777 0.0
C898 C 0.33587 0.33767 0.71554 0.0
C899 C 0.38293 0.31113 0.7195 0.0
N900 N 0.32088 0.36501 0.75821 0.0
N901 N 0.3692 0.31797 0.73904 0.0
H902 H 0.67618 0.3361 0.67481 0.0
H903 H 0.67445 0.33329 0.81545 0.0
H904 H 0.71484 0.39284 0.7191 0.0
H905 H 0.6137 0.30066 0.77148 0.0
H906 H 0.6999 0.34314 0.77997 0.0
H907 H 0.66415 0.31127 0.71017 0.0
C908 C 0.68264 0.34299 0.69192 0.0
C909 C 0.69599 0.3668 0.6942 0.0
C910 C 0.6812 0.33338 0.7782 0.0
C911 C 0.68252 0.33857 0.73437 0.0
C912 C 0.66669 0.32774 0.79838 0.0
C913 C 0.64168 0.31673 0.79629 0.0
C914 C 0.67068 0.3277 0.75591 0.0
C915 C 0.63266 0.3097 0.77379 0.0
C916 C 0.67572 0.32888 0.71203 0.0
C917 C 0.70403 0.37483 0.71671 0.0
N918 N 0.64705 0.31558 0.7544 0.0
N919 N 0.69692 0.36087 0.736 0.0
H920 H 0.29967 0.40158 0.22369 0.0
H921 H 0.38044 0.28746 0.28071 0.0
H922 H 0.33228 0.33857 0.18253 0.0
H923 H 0.33262 0.34031 0.32107 0.0
H924 H 0.35774 0.30119 0.24471 0.0
H925 H 0.30647 0.37593 0.25943 0.0
C926 C 0.30807 0.38221 0.22217 0.0
C927 C 0.3159 0.37238 0.20018 0.0
C928 C 0.35156 0.3092 0.26149 0.0
C929 C 0.32393 0.34291 0.24108 0.0
C930 C 0.36435 0.30116 0.28202 0.0
C931 C 0.35802 0.3126 0.30371 0.0
C932 C 0.3329 0.32933 0.26275 0.0
C933 C 0.33767 0.33083 0.3046 0.0
C934 C 0.31181 0.36749 0.24258 0.0
C935 C 0.32622 0.34699 0.19918 0.0
N936 N 0.32612 0.33901 0.28431 0.0
N937 N 0.3304 0.33331 0.21941 0.0
H938 H 0.61464 0.29912 0.21854 0.0
H939 H 0.70889 0.40216 0.27232 0.0
H940 H 0.67199 0.33929 0.17605 0.0
H941 H 0.67411 0.34114 0.31457 0.0
H942 H 0.69899 0.377 0.23682 0.0
H943 H 0.63906 0.31107 0.25392 0.0
C944 C 0.63264 0.31012 0.21669 0.0
C945 C 0.64111 0.3187 0.19448 0.0
C946 C 0.69398 0.36886 0.25388 0.0
C947 C 0.66887 0.33274 0.23477 0.0
C948 C 0.69946 0.38329 0.27411 0.0
C949 C 0.69175 0.37393 0.2963 0.0
C950 C 0.68023 0.34522 0.25588 0.0
C951 C 0.68007 0.34919 0.29774 0.0
C952 C 0.64663 0.31682 0.23685 0.0
C953 C 0.66471 0.33253 0.19292 0.0
N954 N 0.67414 0.3359 0.27771 0.0
N955 N 0.6775 0.33968 0.2129 0.0
H956 H 0.6759 0.67185 0.17621 0.0
H957 H 0.67192 0.67244 0.31712 0.0
H958 H 0.70789 0.6103 0.2196 0.0
H959 H 0.61589 0.71229 0.27301 0.0
H960 H 0.69594 0.65924 0.28162 0.0
H961 H 0.66473 0.69621 0.212 0.0
C962 C 0.68101 0.66368 0.19323 0.0
C963 C 0.69236 0.63881 0.19501 0.0
C964 C 0.67864 0.67128 0.27981 0.0
C965 C 0.67984 0.66658 0.2358 0.0
C966 C 0.66501 0.6789 0.30001 0.0
C967 C 0.64167 0.69309 0.29788 0.0
C968 C 0.66898 0.67824 0.25749 0.0
C969 C 0.63356 0.70097 0.27534 0.0
C970 C 0.67457 0.67755 0.21361 0.0
C971 C 0.69868 0.62921 0.2175 0.0
N972 N 0.64709 0.69326 0.25597 0.0
N973 N 0.69212 0.64302 0.23707 0.0
H974 H 0.29887 0.61806 0.27636 0.0
H975 H 0.4024 0.71193 0.2219 0.0
H976 H 0.3404 0.67448 0.31876 0.0
H977 H 0.34072 0.67766 0.1801 0.0
H978 H 0.37781 0.70158 0.25763 0.0
H979 H 0.31107 0.64229 0.24096 0.0
C980 C 0.31022 0.63582 0.2782 0.0
C981 C 0.31903 0.64409 0.3004 0.0
C982 C 0.36941 0.69677 0.24064 0.0
C983 C 0.3334 0.67165 0.26004 0.0
C984 C 0.3835 0.70253 0.22026 0.0
C985 C 0.37377 0.69515 0.1981 0.0
C986 C 0.34572 0.68306 0.23882 0.0
C987 C 0.34903 0.68342 0.19689 0.0
C988 C 0.31709 0.64971 0.25801 0.0
C989 C 0.33339 0.66738 0.30191 0.0
N990 N 0.33606 0.67723 0.21704 0.0
N991 N 0.34065 0.68008 0.2819 0.0
H992 H 0.23744 0.36571 0.17095 0.0
H993 H 0.11296 0.30649 0.10404 0.0
H994 H 0.20809 0.3989 0.10624 0.0
H995 H 0.14968 0.27348 0.16571 0.0
H996 H 0.14207 0.3448 0.1074 0.0
H997 H 0.19977 0.33679 0.17251 0.0
C998 C 0.22278 0.36711 0.15719 0.0
C999 C 0.226 0.38455 0.13834 0.0
C1000 C 0.14341 0.32932 0.12036 0.0
C1001 C 0.18282 0.35085 0.13964 0.0
C1002 C 0.12673 0.30756 0.11853 0.0
C1003 C 0.12914 0.28669 0.13449 0.0
C1004 C 0.16232 0.33016 0.13842 0.0
C1005 C 0.14739 0.28896 0.15284 0.0
C1006 C 0.20125 0.35051 0.15803 0.0
C1007 C 0.20629 0.38571 0.12109 0.0
N1008 N 0.16329 0.31011 0.15419 0.0
N1009 N 0.18569 0.36873 0.12192 0.0
H1010 H 0.6121 0.20656 0.10446 0.0
H1011 H 0.73966 0.14904 0.1675 0.0
H1012 H 0.64994 0.2395 0.16562 0.0
H1013 H 0.70762 0.1147 0.10432 0.0
H1014 H 0.70184 0.17761 0.17019 0.0
H1015 H 0.64177 0.16863 0.10691 0.0
C1016 C 0.62624 0.20554 0.11866 0.0
C1017 C 0.6288 0.2263 0.13472 0.0
C1018 C 0.70278 0.16372 0.15579 0.0
C1019 C 0.66264 0.18328 0.13759 0.0
C1020 C 0.72441 0.14734 0.1543 0.0
C1021 C 0.72689 0.12968 0.13554 0.0
C1022 C 0.68348 0.16293 0.13816 0.0
C1023 C 0.70641 0.1281 0.11906 0.0
C1024 C 0.64324 0.184 0.11998 0.0
C1025 C 0.64752 0.2241 0.15268 0.0
N1026 N 0.6857 0.14487 0.12051 0.0
N1027 N 0.66374 0.20318 0.15351 0.0
H1028 H 0.80565 0.61237 0.10456 0.0
H1029 H 0.86146 0.74238 0.16494 0.0
H1030 H 0.77146 0.65185 0.16429 0.0
H1031 H 0.89803 0.70778 0.10392 0.0
H1032 H 0.83237 0.70497 0.16776 0.0
H1033 H 0.8432 0.64259 0.10657 0.0
C1034 C 0.80628 0.62701 0.11835 0.0
C1035 C 0.78527 0.62978 0.13414 0.0
C1036 C 0.84684 0.70527 0.15381 0.0
C1037 C 0.8279 0.66432 0.13649 0.0
C1038 C 0.86352 0.72669 0.15222 0.0
C1039 C 0.88204 0.72833 0.13404 0.0
C1040 C 0.8482 0.68528 0.13685 0.0
C1041 C 0.884 0.70726 0.11821 0.0
C1042 C 0.82762 0.64433 0.11941 0.0
C1043 C 0.78702 0.64918 0.15156 0.0
N1044 N 0.86698 0.68673 0.11975 0.0
N1045 N 0.80776 0.6657 0.15214 0.0
H1046 H 0.30608 0.9004 0.10404 0.0
H1047 H 0.36399 0.77373 0.16837 0.0
H1048 H 0.27264 0.86259 0.16499 0.0
H1049 H 0.39839 0.80515 0.10496 0.0
H1050 H 0.335 0.81126 0.17045 0.0
H1051 H 0.34407 0.87082 0.10682 0.0
C1052 C 0.30699 0.88628 0.11825 0.0
C1053 C 0.28608 0.88374 0.13417 0.0
C1054 C 0.34899 0.81025 0.15613 0.0
C1055 C 0.32919 0.84999 0.13742 0.0
C1056 C 0.36562 0.78877 0.15498 0.0
C1057 C 0.38344 0.78619 0.13634 0.0
C1058 C 0.3497 0.8293 0.13827 0.0
C1059 C 0.38489 0.80643 0.11962 0.0
C1060 C 0.32856 0.86933 0.11975 0.0
C1061 C 0.28815 0.86503 0.15216 0.0
N1062 N 0.3679 0.82699 0.12075 0.0
N1063 N 0.30912 0.84887 0.15318 0.0
H1064 H 0.11063 0.70925 0.38757 0.0
H1065 H 0.23993 0.65164 0.32769 0.0
H1066 H 0.14923 0.74116 0.32634 0.0
H1067 H 0.20613 0.61734 0.39014 0.0
H1068 H 0.20216 0.68011 0.32403 0.0
H1069 H 0.14058 0.6715 0.38617 0.0
C1070 C 0.12499 0.70803 0.37357 0.0
C1071 C 0.12766 0.72847 0.35719 0.0
C1072 C 0.2027 0.66627 0.33848 0.0
C1073 C 0.16187 0.68565 0.35554 0.0
C1074 C 0.22432 0.64995 0.34054 0.0
C1075 C 0.22628 0.6323 0.35937 0.0
C1076 C 0.18287 0.66544 0.35562 0.0
C1077 C 0.20534 0.63073 0.37536 0.0
C1078 C 0.14216 0.68659 0.37286 0.0
C1079 C 0.14669 0.72602 0.33951 0.0
N1080 N 0.18462 0.64744 0.37336 0.0
N1081 N 0.16308 0.70521 0.33928 0.0
H1082 H 0.39038 0.22012 0.32554 0.0
H1083 H 0.30193 0.1145 0.39282 0.0
H1084 H 0.3781 0.22179 0.40074 0.0
H1085 H 0.28118 0.14618 0.32486 0.0
H1086 H 0.34066 0.14313 0.39345 0.0
H1087 H 0.36097 0.18202 0.32287 0.0
C1088 C 0.38214 0.21193 0.34153 0.0
C1089 C 0.38663 0.22392 0.36339 0.0
C1090 C 0.32785 0.14336 0.37822 0.0
C1091 C 0.35334 0.18062 0.36053 0.0
C1092 C 0.30591 0.12696 0.37779 0.0
C1093 C 0.28835 0.12811 0.35879 0.0
C1094 C 0.33252 0.16048 0.35928 0.0
C1095 C 0.29421 0.14486 0.33988 0.0
C1096 C 0.36525 0.19042 0.33999 0.0
C1097 C 0.3751 0.21297 0.38358 0.0
N1098 N 0.31578 0.1604 0.34059 0.0
N1099 N 0.35896 0.19194 0.38168 0.0
H1100 H 0.89947 0.30774 0.38642 0.0
H1101 H 0.76791 0.36092 0.32681 0.0
H1102 H 0.86083 0.2734 0.3263 0.0
H1103 H 0.80309 0.39931 0.38665 0.0
H1104 H 0.80563 0.33229 0.32401 0.0
H1105 H 0.8685 0.34469 0.38462 0.0
C1106 C 0.88487 0.30825 0.37258 0.0
C1107 C 0.88255 0.28734 0.35662 0.0
C1108 C 0.8054 0.34705 0.3377 0.0
C1109 C 0.84713 0.32926 0.35455 0.0
C1110 C 0.78377 0.36346 0.33929 0.0
C1111 C 0.78221 0.38239 0.35713 0.0
C1112 C 0.82571 0.3491 0.3543 0.0
C1113 C 0.80353 0.38495 0.37263 0.0
C1114 C 0.86712 0.32923 0.37165 0.0
C1115 C 0.86316 0.28889 0.33915 0.0
N1116 N 0.82428 0.36821 0.37109 0.0
N1117 N 0.84621 0.30926 0.33871 0.0
H1118 H 0.61194 0.8071 0.38776 0.0
H1119 H 0.73854 0.86676 0.32434 0.0
H1120 H 0.6516 0.77355 0.32782 0.0
H1121 H 0.70705 0.89977 0.3883 0.0
H1122 H 0.70131 0.83736 0.32203 0.0
H1123 H 0.64121 0.84537 0.38529 0.0
C1124 C 0.62643 0.80802 0.37384 0.0
C1125 C 0.62955 0.78701 0.35812 0.0
C1126 C 0.70224 0.85113 0.33652 0.0
C1127 C 0.6629 0.83048 0.35519 0.0
C1128 C 0.72353 0.86801 0.33779 0.0
C1129 C 0.72602 0.88555 0.35666 0.0
C1130 C 0.68329 0.85132 0.35447 0.0
C1131 C 0.70583 0.8865 0.37346 0.0
C1132 C 0.64319 0.82976 0.37252 0.0
C1133 C 0.6487 0.78912 0.34051 0.0
N1134 N 0.68545 0.86928 0.3722 0.0
N1135 N 0.66464 0.81028 0.33963 0.0
H1136 H 0.76815 0.6521 0.82484 0.0
H1137 H 0.89712 0.70746 0.88674 0.0
H1138 H 0.8009 0.61605 0.88693 0.0
H1139 H 0.86237 0.73799 0.82314 0.0
H1140 H 0.86644 0.67026 0.88511 0.0
H1141 H 0.80653 0.67984 0.82174 0.0
C1142 C 0.78364 0.64989 0.83774 0.0
C1143 C 0.78123 0.63193 0.85629 0.0
C1144 C 0.8659 0.6849 0.87132 0.0
C1145 C 0.8254 0.6642 0.85316 0.0
C1146 C 0.8835 0.706 0.87217 0.0
C1147 C 0.88207 0.72594 0.85517 0.0
C1148 C 0.84698 0.68382 0.85328 0.0
C1149 C 0.86394 0.72324 0.83677 0.0
C1150 C 0.80564 0.66577 0.83599 0.0
C1151 C 0.80203 0.62969 0.87236 0.0
N1152 N 0.84707 0.7028 0.83645 0.0
N1153 N 0.82313 0.64598 0.87067 0.0
H1154 H 0.38844 0.79389 0.82549 0.0
H1155 H 0.3008 0.90017 0.89283 0.0
H1156 H 0.37883 0.79443 0.90102 0.0
H1157 H 0.27946 0.86738 0.82544 0.0
H1158 H 0.33991 0.87209 0.89326 0.0
H1159 H 0.35892 0.83185 0.82274 0.0
C1160 C 0.3808 0.80258 0.84151 0.0
C1161 C 0.38606 0.79124 0.86351 0.0
C1162 C 0.32687 0.87148 0.8782 0.0
C1163 C 0.35256 0.83433 0.86055 0.0
C1164 C 0.3047 0.88756 0.87789 0.0
C1165 C 0.28687 0.88593 0.85913 0.0
C1166 C 0.33148 0.8542 0.85938 0.0
C1167 C 0.29267 0.86905 0.8403 0.0
C1168 C 0.36383 0.824 0.83993 0.0
C1169 C 0.37525 0.80277 0.88375 0.0
N1170 N 0.31445 0.85382 0.8409 0.0
N1171 N 0.35897 0.82367 0.8818 0.0
H1172 H 0.11091 0.30485 0.88606 0.0
H1173 H 0.24172 0.36089 0.82748 0.0
H1174 H 0.1514 0.27087 0.82677 0.0
H1175 H 0.20667 0.3965 0.88875 0.0
H1176 H 0.20411 0.33219 0.82382 0.0
H1177 H 0.14104 0.34246 0.88447 0.0
C1178 C 0.12576 0.30555 0.87245 0.0
C1179 C 0.12887 0.28459 0.85668 0.0
C1180 C 0.20435 0.34636 0.838 0.0
C1181 C 0.16325 0.32727 0.8548 0.0
C1182 C 0.22588 0.36281 0.84007 0.0
C1183 C 0.22744 0.38089 0.85859 0.0
C1184 C 0.1842 0.34753 0.85482 0.0
C1185 C 0.2062 0.38276 0.87423 0.0
C1186 C 0.14302 0.32691 0.87163 0.0
C1187 C 0.1485 0.28641 0.83949 0.0
N1188 N 0.18557 0.36594 0.87223 0.0
N1189 N 0.16495 0.30718 0.83913 0.0
H1190 H 0.61221 0.20744 0.88852 0.0
H1191 H 0.73731 0.14606 0.8243 0.0
H1192 H 0.65121 0.23978 0.82768 0.0
H1193 H 0.70686 0.11457 0.88929 0.0
H1194 H 0.69998 0.17531 0.82184 0.0
H1195 H 0.64101 0.16885 0.88608 0.0
C1196 C 0.62646 0.20619 0.87443 0.0
C1197 C 0.62956 0.22695 0.85843 0.0
C1198 C 0.70114 0.16188 0.83658 0.0
C1199 C 0.66234 0.18312 0.85552 0.0
C1200 C 0.72247 0.14509 0.83792 0.0
C1201 C 0.72528 0.12806 0.85712 0.0
C1202 C 0.68253 0.16215 0.85481 0.0
C1203 C 0.70536 0.12744 0.87418 0.0
C1204 C 0.64295 0.18427 0.87311 0.0
C1205 C 0.64838 0.22442 0.84058 0.0
N1206 N 0.68497 0.14462 0.87286 0.0
N1207 N 0.66405 0.20309 0.83971 0.0
H1208 H 0.80832 0.39663 0.60478 0.0
H1209 H 0.86278 0.26633 0.66517 0.0
H1210 H 0.77512 0.35885 0.66585 0.0
H1211 H 0.89947 0.30035 0.60393 0.0
H1212 H 0.83462 0.30436 0.66837 0.0
H1213 H 0.84561 0.3661 0.60666 0.0
C1214 C 0.80918 0.38234 0.61886 0.0
C1215 C 0.78851 0.38004 0.63505 0.0
C1216 C 0.84891 0.3038 0.65428 0.0
C1217 C 0.83074 0.34517 0.63723 0.0
C1218 C 0.86503 0.282 0.65246 0.0
C1219 C 0.88328 0.28004 0.63411 0.0
C1220 C 0.85057 0.32382 0.63737 0.0
C1221 C 0.88558 0.30111 0.61833 0.0
C1222 C 0.83034 0.36484 0.61984 0.0
C1223 C 0.79046 0.36109 0.65283 0.0
N1224 N 0.86908 0.32201 0.62008 0.0
N1225 N 0.811 0.34437 0.65332 0.0
H1226 H 0.72695 0.87696 0.58931 0.0
H1227 H 0.61799 0.80035 0.66305 0.0
H1228 H 0.7135 0.89204 0.66311 0.0
H1229 H 0.63874 0.78543 0.59059 0.0
H1230 H 0.64622 0.83953 0.66244 0.0
H1231 H 0.68798 0.84972 0.58826 0.0
C1232 C 0.71541 0.87483 0.60525 0.0
C1233 C 0.72344 0.88662 0.62634 0.0
C1234 C 0.64413 0.82794 0.64657 0.0
C1235 C 0.67904 0.85461 0.62557 0.0
C1236 C 0.6279 0.80574 0.64687 0.0
C1237 C 0.62623 0.78965 0.62687 0.0
C1238 C 0.65846 0.83397 0.62605 0.0
C1239 C 0.63967 0.79722 0.60644 0.0
C1240 C 0.69318 0.85917 0.6047 0.0
C1241 C 0.70781 0.88331 0.64649 0.0
N1242 N 0.65528 0.81863 0.60663 0.0
N1243 N 0.68654 0.86717 0.64574 0.0
H1244 H 0.11653 0.70529 0.60509 0.0
H1245 H 0.24424 0.65021 0.6696 0.0
H1246 H 0.15327 0.73932 0.6663 0.0
H1247 H 0.2127 0.6141 0.60702 0.0
H1248 H 0.20614 0.67846 0.67167 0.0
H1249 H 0.14652 0.66766 0.60824 0.0
C1250 C 0.13047 0.70454 0.61947 0.0
C1251 C 0.13264 0.72552 0.63533 0.0
C1252 C 0.20726 0.66426 0.65754 0.0
C1253 C 0.16688 0.6829 0.63898 0.0
C1254 C 0.22907 0.64808 0.65638 0.0
C1255 C 0.23177 0.62999 0.63798 0.0
C1256 C 0.18799 0.66284 0.6399 0.0
C1257 C 0.21135 0.62784 0.62149 0.0
C1258 C 0.14766 0.68319 0.62118 0.0
C1259 C 0.15114 0.72372 0.65352 0.0
N1260 N 0.19045 0.64442 0.6226 0.0
N1261 N 0.16756 0.70298 0.65472 0.0
H1262 H 0.40221 0.20671 0.60527 0.0
H1263 H 0.27402 0.14801 0.66668 0.0
H1264 H 0.36206 0.24025 0.66494 0.0
H1265 H 0.30722 0.11403 0.60384 0.0
H1266 H 0.31125 0.17734 0.6695 0.0
H1267 H 0.37266 0.16864 0.6073 0.0
C1268 C 0.38754 0.20584 0.61903 0.0
C1269 C 0.38437 0.22679 0.6348 0.0
C1270 C 0.31068 0.16338 0.65515 0.0
C1271 C 0.35068 0.18356 0.63723 0.0
C1272 C 0.28939 0.14655 0.65357 0.0
C1273 C 0.2874 0.12875 0.63487 0.0
C1274 C 0.33015 0.16287 0.63766 0.0
C1275 C 0.30804 0.12751 0.61854 0.0
C1276 C 0.37062 0.18421 0.62011 0.0
C1277 C 0.36499 0.22474 0.65221 0.0
N1278 N 0.32843 0.14469 0.62008 0.0
N1279 N 0.34889 0.20369 0.65285 0.0
H1280 H 0.13708 0.99047 0.12443 0.0
H1281 H 0.15504 0.14337 0.09956 0.0
H1282 H 0.21276 0.02498 0.11121 0.0
H1283 H 0.08982 0.1099 0.13722 0.0
H1284 H 0.17377 0.09937 0.09515 0.0
H1285 H 0.11706 0.03334 0.12018 0.0
C1286 C 0.14954 0.007 0.1204 0.0
C1287 C 0.17679 1.00405 0.11852 0.0
C1288 C 0.15523 0.10171 0.10413 0.0
C1289 C 0.15371 0.05347 0.11358 0.0
C1290 C 0.14443 0.12675 0.10651 0.0
C1291 C 0.12088 0.13029 0.11888 0.0
C1292 C 0.14212 0.0801 0.11384 0.0
C1293 C 0.10809 0.10809 0.1277 0.0
C1294 C 0.13802 0.03153 0.11803 0.0
C1295 C 0.19173 0.02631 0.11299 0.0
N1296 N 0.11887 0.08401 0.12504 0.0
N1297 N 0.18001 0.05014 0.11088 0.0
H1298 H 0.02311 0.13694 0.12778 0.0
H1299 H 0.87053 0.15433 0.10049 0.0
H1300 H 0.98888 0.21204 0.11182 0.0
H1301 H 0.90345 0.08951 0.13905 0.0
H1302 H 0.91462 0.17296 0.09638 0.0
H1303 H 0.98029 0.11676 0.12351 0.0
C1304 C 0.00666 0.14924 0.12316 0.0
C1305 C 0.00967 0.17639 0.12048 0.0
C1306 C 0.91215 0.15453 0.1055 0.0
C1307 C 0.96029 0.15313 0.11551 0.0
C1308 C 0.88706 0.14379 0.10771 0.0
C1309 C 0.88331 0.12038 0.12024 0.0
C1310 C 0.93363 0.14154 0.11558 0.0
C1311 C 0.9054 0.10767 0.1294 0.0
C1312 C 0.98214 0.13763 0.12077 0.0
C1313 C 0.9875 0.1911 0.11423 0.0
N1314 N 0.92954 0.11842 0.12692 0.0
N1315 N 0.96369 0.17931 0.11211 0.0
H1316 H 0.92676 0.90396 0.13585 0.0
H1317 H 0.80004 0.98958 0.11151 0.0
H1318 H 0.85918 0.87239 0.10033 0.0
H1319 H 0.87566 0.02234 0.12814 0.0
H1320 H 0.82081 0.94672 0.10623 0.0
H1321 H 0.90821 0.94768 0.13217 0.0
C1322 C 0.90813 0.9063 0.12699 0.0
C1323 C 0.89447 0.8845 0.11846 0.0
C1324 C 0.83283 0.9634 0.11077 0.0
C1325 C 0.87276 0.93458 0.11455 0.0
C1326 C 0.821 0.98788 0.1138 0.0
C1327 C 0.83603 0.00962 0.12057 0.0
C1328 C 0.85983 0.96063 0.11473 0.0
C1329 C 0.86315 1.00618 0.12318 0.0
C1330 C 0.89752 0.93129 0.12488 0.0
C1331 C 0.87041 0.88869 0.10708 0.0
N1332 N 0.87406 0.98218 0.12053 0.0
N1333 N 0.86011 0.91322 0.10577 0.0
H1334 H 0.10969 0.92552 0.13537 0.0
H1335 H 0.02484 0.79874 0.11071 0.0
H1336 H 0.14253 0.85812 0.10058 0.0
H1337 H 0.99145 0.87518 0.12233 0.0
H1338 H 0.06805 0.8192 0.1064 0.0
H1339 H 0.06612 0.90682 0.13056 0.0
C1340 C 0.10767 0.90689 0.12646 0.0
C1341 C 0.12976 0.89334 0.11841 0.0
C1342 C 0.05115 0.83145 0.10959 0.0
C1343 C 0.07986 0.87149 0.1132 0.0
C1344 C 0.02648 0.81979 0.11204 0.0
C1345 C 1.00444 0.83517 0.11721 0.0
C1346 C 0.0538 0.85861 0.11255 0.0
C1347 C 0.00782 0.8624 0.11867 0.0
C1348 C 0.08277 0.89621 0.12368 0.0
C1349 C 0.12598 0.86927 0.10694 0.0
N1350 N 0.03199 0.87314 0.11667 0.0
N1351 N 0.10153 0.85889 0.105 0.0
H1352 H 0.1363 0.02436 0.36043 0.0
H1353 H 0.15219 0.87234 0.39088 0.0
H1354 H 0.2106 0.98994 0.37899 0.0
H1355 H 0.08777 0.9049 0.35149 0.0
H1356 H 0.17095 0.9164 0.39456 0.0
H1357 H 0.11559 0.98184 0.36523 0.0
C1358 C 0.1483 0.00793 0.36573 0.0
C1359 C 0.17539 0.01077 0.36899 0.0
C1360 C 0.15257 0.91386 0.38535 0.0
C1361 C 0.15155 0.96177 0.37456 0.0
C1362 C 0.14176 0.88879 0.38339 0.0
C1363 C 0.11845 0.88494 0.37073 0.0
C1364 C 0.13977 0.93521 0.37488 0.0
C1365 C 0.10588 0.90693 0.36123 0.0
C1366 C 0.1364 0.98359 0.36841 0.0
C1367 C 0.18973 0.98867 0.37608 0.0
N1368 N 0.11671 0.93105 0.36345 0.0
N1369 N 0.17766 0.96505 0.37848 0.0
H1370 H 0.02566 0.21659 0.37846 0.0
H1371 H 0.11109 0.09046 0.35197 0.0
H1372 H 0.99264 0.14028 0.36537 0.0
H1373 H 0.14369 0.15727 0.38787 0.0
H1374 H 0.0675 0.10913 0.35663 0.0
H1375 H 0.06901 0.19628 0.38223 0.0
C1376 C 0.02741 0.19559 0.37668 0.0
C1377 C 1.00541 0.18022 0.37132 0.0
C1378 C 0.0841 0.11963 0.36376 0.0
C1379 C 0.05495 0.15695 0.37534 0.0
C1380 C 0.10902 0.10897 0.36108 0.0
C1381 C 0.13106 0.12233 0.36952 0.0
C1382 C 0.08109 0.14417 0.37456 0.0
C1383 C 0.12719 0.14625 0.38122 0.0
C1384 C 0.05217 0.18402 0.37883 0.0
C1385 C 0.00895 0.15306 0.36925 0.0
N1386 N 0.10271 0.15662 0.3831 0.0
N1387 N 0.03319 0.14241 0.37097 0.0
H1388 H 0.79878 0.02709 0.38011 0.0
H1389 H 0.92575 0.11122 0.35304 0.0
H1390 H 0.87447 0.99323 0.36577 0.0
H1391 H 0.85972 0.14405 0.38995 0.0
H1392 H 0.90662 0.06778 0.3575 0.0
H1393 H 0.81978 0.07008 0.38408 0.0
C1394 C 0.81979 0.02857 0.37809 0.0
C1395 C 0.83478 0.00646 0.37232 0.0
C1396 C 0.89641 0.08441 0.36491 0.0
C1397 C 0.85882 0.05559 0.37657 0.0
C1398 C 0.90734 0.10923 0.36234 0.0
C1399 C 0.89432 0.1313 0.37111 0.0
C1400 C 0.87196 0.08155 0.37592 0.0
C1401 C 0.87049 0.12754 0.38303 0.0
C1402 C 0.83175 0.05313 0.38035 0.0
C1403 C 0.86197 0.00966 0.36997 0.0
N1404 N 0.85987 0.10317 0.38479 0.0
N1405 N 0.87299 0.03371 0.37181 0.0
H1406 H 0.86911 0.86151 0.39113 0.0
H1407 H 0.02182 0.87803 0.36481 0.0
H1408 H 0.90261 0.92613 0.35265 0.0
H1409 H 0.98673 0.80288 0.37908 0.0
H1410 H 0.97919 0.89851 0.3693 0.0
H1411 H 0.91301 0.84261 0.39539 0.0
C1412 C 0.88573 0.87195 0.38394 0.0
C1413 C 0.88221 0.89537 0.37138 0.0
C1414 C 0.98082 0.87756 0.37163 0.0
C1415 C 0.93229 0.87392 0.37628 0.0
C1416 C 1.00521 0.86578 0.36912 0.0
C1417 C 0.00789 0.83854 0.37121 0.0
C1418 C 0.9588 0.86213 0.37643 0.0
C1419 C 0.98558 0.82388 0.37711 0.0
C1420 C 0.9107 0.86106 0.38625 0.0
C1421 C 0.9044 0.90795 0.3623 0.0
N1422 N 0.96189 0.83585 0.37935 0.0
N1423 N 0.92845 0.89706 0.36489 0.0
H1424 H 0.87504 0.02229 0.86365 0.0
H1425 H 0.85762 0.86953 0.88901 0.0
H1426 H 0.79994 0.98793 0.87959 0.0
H1427 H 0.92116 0.90259 0.84876 0.0
H1428 H 0.83931 0.91358 0.89397 0.0
H1429 H 0.8951 0.97933 0.86691 0.0
C1430 C 0.86273 1.00578 0.86809 0.0
C1431 C 0.8356 0.00878 0.87102 0.0
C1432 C 0.85738 0.91113 0.88426 0.0
C1433 C 0.85871 0.9593 0.87481 0.0
C1434 C 0.86793 0.88607 0.88154 0.0
C1435 C 0.89089 0.88239 0.86831 0.0
C1436 C 0.87013 0.93265 0.87404 0.0
C1437 C 0.90333 0.9045 0.85891 0.0
C1438 C 0.87426 0.9812 0.86987 0.0
C1439 C 0.82086 0.98655 0.87699 0.0
N1440 N 0.89279 0.92863 0.86194 0.0
N1441 N 0.83258 0.96268 0.87854 0.0
H1442 H 0.98919 0.87554 0.86071 0.0
H1443 H 0.14168 0.85752 0.88853 0.0
H1444 H 0.02265 0.80048 0.87805 0.0
H1445 H 0.10942 0.92161 0.84854 0.0
H1446 H 0.09745 0.83914 0.89256 0.0
H1447 H 0.0323 0.89531 0.86434 0.0
C1448 C 1.00553 0.86318 0.86553 0.0
C1449 C 1.00219 0.83614 0.8688 0.0
C1450 C 0.1001 0.85734 0.88311 0.0
C1451 C 0.05193 0.85893 0.87301 0.0
C1452 C 0.12528 0.86794 0.88093 0.0
C1453 C 0.12927 0.89109 0.86806 0.0
C1454 C 0.07875 0.87024 0.8727 0.0
C1455 C 0.10731 0.90364 0.85845 0.0
C1456 C 0.03022 0.87454 0.86753 0.0
C1457 C 0.02425 0.82134 0.87521 0.0
N1458 N 0.08308 0.89307 0.86095 0.0
N1459 N 0.04822 0.83289 0.87697 0.0
H1460 H 0.15029 0.1409 0.89135 0.0
H1461 H 0.13454 0.9891 0.86012 0.0
H1462 H 0.08615 0.10864 0.85137 0.0
H1463 H 0.20859 0.02348 0.8796 0.0
H1464 H 0.11373 0.03156 0.86499 0.0
H1465 H 0.16885 0.09681 0.89511 0.0
C1466 C 0.13987 0.12451 0.88374 0.0
C1467 C 0.11671 0.12846 0.87088 0.0
C1468 C 0.1345 0.0298 0.86837 0.0
C1469 C 0.13781 0.07813 0.87512 0.0
C1470 C 0.14645 1.0055 0.86564 0.0
C1471 C 0.17351 1.00268 0.86913 0.0
C1472 C 0.14958 0.05158 0.87479 0.0
C1473 C 0.18775 0.02474 0.8765 0.0
C1474 C 0.15057 0.09942 0.88575 0.0
C1475 C 0.10414 0.10653 0.86126 0.0
N1476 N 0.17564 0.04831 0.87894 0.0
N1477 N 0.11487 0.08238 0.86351 0.0
H1478 H 0.90143 0.08694 0.85588 0.0
H1479 H 0.98653 0.21385 0.87888 0.0
H1480 H 0.8691 0.15479 0.89032 0.0
H1481 H 0.01971 0.13752 0.86626 0.0
H1482 H 0.94351 0.19331 0.88412 0.0
H1483 H 0.9451 0.10547 0.86029 0.0
C1484 C 0.9036 0.10563 0.86466 0.0
C1485 C 0.88163 0.11937 0.87268 0.0
C1486 C 0.96032 0.1811 0.88051 0.0
C1487 C 0.93161 0.14106 0.87741 0.0
C1488 C 0.98488 0.1928 0.8775 0.0
C1489 C 0.00677 0.17747 0.87178 0.0
C1490 C 0.95765 0.15395 0.87755 0.0
C1491 C 1.00342 0.15025 0.87032 0.0
C1492 C 0.92854 0.11622 0.8672 0.0
C1493 C 0.88556 0.1435 0.88398 0.0
N1494 N 0.97935 0.13946 0.87288 0.0
N1495 N 0.91006 0.15381 0.88568 0.0
H1496 H 0.87163 0.98813 0.64858 0.0
H1497 H 0.8649 0.1338 0.59741 0.0
H1498 H 0.81015 0.01351 0.60173 0.0
H1499 H 0.92424 0.1051 0.64495 0.0
H1500 H 0.84681 0.08936 0.59484 0.0
H1501 H 0.8932 0.03003 0.64361 0.0
C1502 C 0.86266 1.00252 0.63713 0.0
C1503 C 0.83882 0.99733 0.62579 0.0
C1504 C 0.86396 0.0928 0.6056 0.0
C1505 C 0.86358 0.04587 0.62006 0.0
C1506 C 0.87438 0.11813 0.60699 0.0
C1507 C 0.89599 0.12328 0.62162 0.0
C1508 C 0.87532 0.07252 0.61885 0.0
C1509 C 0.90739 0.1022 0.63367 0.0
C1510 C 0.87507 0.02654 0.63426 0.0
C1511 C 0.82844 0.01671 0.6109 0.0
N1512 N 0.89684 0.07792 0.63214 0.0
N1513 N 0.84074 0.04026 0.60865 0.0
H1514 H 0.87244 0.84894 0.61146 0.0
H1515 H 0.02547 0.87495 0.62882 0.0
H1516 H 0.90447 0.92265 0.63474 0.0
H1517 H 0.99241 0.79876 0.61516 0.0
H1518 H 0.98195 0.89406 0.62543 0.0
H1519 H 0.9167 0.83188 0.6072 0.0
C1520 C 0.88876 0.86167 0.61549 0.0
C1521 C 0.88462 0.88725 0.62372 0.0
C1522 C 0.98422 0.87319 0.623 0.0
C1523 C 0.93555 0.86767 0.61889 0.0
C1524 C 0.00912 0.86222 0.62487 0.0
C1525 C 0.01266 0.83509 0.62253 0.0
C1526 C 0.96259 0.85701 0.61868 0.0
C1527 C 0.99066 0.81972 0.61727 0.0
C1528 C 0.91407 0.85184 0.61309 0.0
C1529 C 0.90665 0.90278 0.6285 0.0
N1530 N 0.96657 0.83086 0.61569 0.0
N1531 N 0.93113 0.89269 0.62617 0.0
H1532 H 0.15881 0.86787 0.59853 0.0
H1533 H 0.13999 0.02108 0.62098 0.0
H1534 H 0.09234 0.90205 0.63376 0.0
H1535 H 0.21616 0.98634 0.6111 0.0
H1536 H 0.12007 0.97827 0.61594 0.0
H1537 H 0.17759 0.91184 0.59372 0.0
C1538 C 0.14793 0.88465 0.60479 0.0
C1539 C 0.12402 0.88135 0.61665 0.0
C1540 C 0.14113 0.98001 0.61467 0.0
C1541 C 0.14531 0.93143 0.61118 0.0
C1542 C 0.15259 1.0045 0.61751 0.0
C1543 C 0.17992 0.00735 0.61687 0.0
C1544 C 0.15696 0.95802 0.611 0.0
C1545 C 0.19506 0.98507 0.61195 0.0
C1546 C 0.15875 0.90965 0.60221 0.0
C1547 C 0.11088 0.90371 0.62465 0.0
N1548 N 0.18339 0.96126 0.60941 0.0
N1549 N 0.1217 0.92774 0.62181 0.0
H1550 H 0.11187 0.08411 0.6359 0.0
H1551 H 0.02506 0.20957 0.6107 0.0
H1552 H 0.14323 0.15204 0.60079 0.0
H1553 H 0.99295 0.13334 0.62594 0.0
H1554 H 0.06829 0.18944 0.60585 0.0
H1555 H 0.06796 0.10204 0.63146 0.0
C1556 C 0.10945 0.10269 0.62699 0.0
C1557 C 0.13123 0.11664 0.61879 0.0
C1558 C 0.05167 0.17714 0.60996 0.0
C1559 C 0.08094 0.13761 0.61399 0.0
C1560 C 0.02698 0.18861 0.61274 0.0
C1561 C 1.00532 0.17322 0.61906 0.0
C1562 C 0.05472 0.15015 0.61372 0.0
C1563 C 0.00904 0.14612 0.62137 0.0
C1564 C 0.08436 0.11293 0.62443 0.0
C1565 C 0.12694 0.1406 0.6073 0.0
N1566 N 0.03324 0.13556 0.61899 0.0
N1567 N 0.1023 0.15055 0.60556 0.0
H1568 H 0.63989 0.48811 0.62817 0.0
H1569 H 0.66574 0.64135 0.61312 0.0
H1570 H 0.71633 0.52152 0.61628 0.0
H1571 H 0.5917 0.60864 0.63483 0.0
H1572 H 0.68309 0.59725 0.60855 0.0
H1573 H 0.62073 0.53158 0.62486 0.0
C1574 C 0.65268 0.50453 0.62463 0.0
C1575 C 0.67988 0.50111 0.62278 0.0
C1576 C 0.66299 0.5997 0.61416 0.0
C1577 C 0.6579 0.55111 0.61902 0.0
C1578 C 0.65301 0.62491 0.61675 0.0
C1579 C 0.62724 0.6288 0.62463 0.0
C1580 C 0.64714 0.57809 0.61943 0.0
C1581 C 0.61171 0.60665 0.62889 0.0
C1582 C 0.64167 0.52939 0.62279 0.0
C1583 C 0.69531 0.52318 0.61798 0.0
N1584 N 0.62196 0.58227 0.62638 0.0
N1585 N 0.68413 0.54725 0.61646 0.0
H1586 H 0.37842 0.64932 0.6014 0.0
H1587 H 0.52579 0.64052 0.64848 0.0
H1588 H 0.40725 0.59135 0.65022 0.0
H1589 H 0.49937 0.70276 0.60296 0.0
H1590 H 0.48336 0.6196 0.64478 0.0
H1591 H 0.42312 0.66647 0.59739 0.0
C1592 C 0.39415 0.63997 0.61101 0.0
C1593 C 0.389 0.61901 0.62638 0.0
C1594 C 0.48675 0.63775 0.63544 0.0
C1595 C 0.44006 0.63855 0.62189 0.0
C1596 C 0.51106 0.64976 0.63755 0.0
C1597 C 0.51611 0.67364 0.62625 0.0
C1598 C 0.46698 0.6497 0.62205 0.0
C1599 C 0.49631 0.68441 0.61205 0.0
C1600 C 0.41963 0.64984 0.60878 0.0
C1601 C 0.41016 0.60771 0.6384 0.0
N1602 N 0.47247 0.67251 0.61056 0.0
N1603 N 0.43461 0.6177 0.63599 0.0
H1604 H 0.30509 0.49022 0.61358 0.0
H1605 H 0.42875 0.40215 0.6428 0.0
H1606 H 0.38026 0.52164 0.63362 0.0
H1607 H 0.363 0.37235 0.60341 0.0
H1608 H 0.4111 0.44623 0.63892 0.0
H1609 H 0.32542 0.4471 0.60887 0.0
C1610 C 0.32588 0.48817 0.61673 0.0
C1611 C 0.34088 0.50962 0.62428 0.0
C1612 C 0.40063 0.43014 0.63085 0.0
C1613 C 0.36417 0.46029 0.61912 0.0
C1614 C 0.41071 0.40494 0.63309 0.0
C1615 C 0.39729 0.38353 0.6235 0.0
C1616 C 0.37664 0.43403 0.6193 0.0
C1617 C 0.37403 0.38833 0.61102 0.0
C1618 C 0.33746 0.46354 0.61402 0.0
C1619 C 0.36778 0.50573 0.628 0.0
N1620 N 0.36422 0.41304 0.60957 0.0
N1621 N 0.37843 0.48156 0.62566 0.0
H1622 H 0.64515 0.35595 0.60072 0.0
H1623 H 0.49276 0.37427 0.62806 0.0
H1624 H 0.61228 0.42168 0.63802 0.0
H1625 H 0.52684 0.29863 0.61403 0.0
H1626 H 0.53549 0.39429 0.62276 0.0
H1627 H 0.601 0.33734 0.59683 0.0
C1628 C 0.62861 0.36671 0.60766 0.0
C1629 C 0.63236 0.39035 0.61982 0.0
C1630 C 0.53362 0.37333 0.62067 0.0
C1631 C 0.58205 0.36923 0.61542 0.0
C1632 C 0.50917 0.36181 0.62366 0.0
C1633 C 0.50617 0.33458 0.62186 0.0
C1634 C 0.55542 0.35765 0.61571 0.0
C1635 C 0.52824 0.31964 0.6158 0.0
C1636 C 0.6035 0.35598 0.6056 0.0
C1637 C 0.61029 0.40333 0.62867 0.0
N1638 N 0.55202 0.33135 0.61311 0.0
N1639 N 0.58615 0.39259 0.62634 0.0
H1640 H 0.58616 0.40219 0.84967 0.0
H1641 H 0.70843 0.49222 0.87966 0.0
H1642 H 0.65223 0.37346 0.88923 0.0
H1643 H 0.63338 0.52233 0.85777 0.0
H1644 H 0.68864 0.44884 0.88423 0.0
H1645 H 0.60325 0.4465 0.85332 0.0
C1646 C 0.60416 0.40527 0.85936 0.0
C1647 C 0.61784 0.38408 0.86907 0.0
C1648 C 0.67649 0.46504 0.87869 0.0
C1649 C 0.63785 0.43489 0.87302 0.0
C1650 C 0.68778 0.48982 0.87604 0.0
C1651 C 0.67266 0.511 0.86806 0.0
C1652 C 0.64997 0.46134 0.8731 0.0
C1653 C 0.64594 0.50665 0.86377 0.0
C1654 C 0.61392 0.43061 0.86147 0.0
C1655 C 0.64102 0.38925 0.88154 0.0
N1656 N 0.63558 0.48234 0.86609 0.0
N1657 N 0.65051 0.41411 0.88287 0.0
H1658 H 0.48674 0.64177 0.84818 0.0
H1659 H 0.63482 0.65108 0.89355 0.0
H1660 H 0.51416 0.7056 0.89136 0.0
H1661 H 0.6055 0.59329 0.84481 0.0
H1662 H 0.59022 0.66843 0.89776 0.0
H1663 H 0.52918 0.6209 0.85185 0.0
C1664 C 0.50169 0.65137 0.8586 0.0
C1665 C 0.4969 0.67569 0.86923 0.0
C1666 C 0.59357 0.65179 0.88635 0.0
C1667 C 0.54608 0.65177 0.87337 0.0
C1668 C 0.619 0.6418 0.88401 0.0
C1669 C 0.62399 0.62081 0.86863 0.0
C1670 C 0.57301 0.64058 0.87335 0.0
C1671 C 0.60271 0.60964 0.85668 0.0
C1672 C 0.52602 0.63939 0.86068 0.0
C1673 C 0.517 0.68691 0.8828 0.0
N1674 N 0.57831 0.61971 0.8592 0.0
N1675 N 0.54085 0.675 0.88427 0.0
H1676 H 0.34683 0.64342 0.88128 0.0
H1677 H 0.37457 0.49017 0.86993 0.0
H1678 H 0.42183 0.61084 0.86233 0.0
H1679 H 0.29746 0.52297 0.8792 0.0
H1680 H 0.3932 0.53386 0.87322 0.0
H1681 H 0.32973 0.59928 0.88646 0.0
C1682 C 0.35982 0.62701 0.8784 0.0
C1683 C 0.3858 0.63092 0.87109 0.0
C1684 C 0.37223 0.5315 0.87473 0.0
C1685 C 0.36619 0.58018 0.87701 0.0
C1686 C 0.36152 0.50651 0.87291 0.0
C1687 C 0.3343 0.50284 0.87399 0.0
C1688 C 0.35567 0.55312 0.87769 0.0
C1689 C 0.31851 0.52482 0.8781 0.0
C1690 C 0.34998 0.60178 0.88134 0.0
C1691 C 0.40165 0.60882 0.86779 0.0
N1692 N 0.32941 0.54904 0.87959 0.0
N1693 N 0.39155 0.58442 0.87062 0.0
H1694 H 0.37094 0.35778 0.8943 0.0
H1695 H 0.52276 0.37558 0.86397 0.0
H1696 H 0.40337 0.42394 0.85725 0.0
H1697 H 0.48873 0.30043 0.88017 0.0
H1698 H 0.48031 0.39592 0.87 0.0
H1699 H 0.4151 0.33915 0.89757 0.0
C1700 C 0.38739 0.36863 0.88729 0.0
C1701 C 0.38349 0.39238 0.87535 0.0
C1702 C 0.48212 0.375 0.8724 0.0
C1703 C 0.43384 0.37122 0.87902 0.0
C1704 C 0.50641 0.3633 0.86898 0.0
C1705 C 0.50933 0.33611 0.8712 0.0
C1706 C 0.46041 0.35953 0.87819 0.0
C1707 C 0.48738 0.32141 0.87805 0.0
C1708 C 0.41251 0.35789 0.88901 0.0
C1709 C 0.40546 0.40549 0.86642 0.0
N1710 N 0.46376 0.33328 0.88113 0.0
N1711 N 0.42962 0.39471 0.86837 0.0
H1712 H 0.29741 0.49131 0.38098 0.0
H1713 H 0.42515 0.404 0.3612 0.0
H1714 H 0.3741 0.52336 0.36749 0.0
H1715 H 0.35003 0.37235 0.38109 0.0
H1716 H 0.40755 0.44807 0.36633 0.0
H1717 H 0.31697 0.44783 0.3842 0.0
C1718 C 0.31838 0.48929 0.37897 0.0
C1719 C 0.33404 0.51105 0.37369 0.0
C1720 C 0.39499 0.43147 0.36978 0.0
C1721 C 0.35656 0.46124 0.37713 0.0
C1722 C 0.40504 0.40627 0.36685 0.0
C1723 C 0.389 0.38437 0.37047 0.0
C1724 C 0.36865 0.43484 0.37625 0.0
C1725 C 0.36311 0.3886 0.3779 0.0
C1726 C 0.32954 0.46443 0.38076 0.0
C1727 C 0.36115 0.50718 0.37135 0.0
N1728 N 0.3537 0.41329 0.38032 0.0
N1729 N 0.37147 0.48277 0.37285 0.0
H1730 H 0.60718 0.42557 0.34823 0.0
H1731 H 0.51488 0.30869 0.39248 0.0
H1732 H 0.63565 0.36347 0.39285 0.0
H1733 H 0.49125 0.37057 0.34533 0.0
H1734 H 0.55773 0.33014 0.3969 0.0
H1735 H 0.56325 0.40776 0.35136 0.0
C1736 C 0.60415 0.40827 0.3589 0.0
C1737 C 0.62526 0.3959 0.37011 0.0
C1738 C 0.54303 0.33906 0.38576 0.0
C1739 C 0.57462 0.37498 0.37357 0.0
C1740 C 0.51855 0.32687 0.38328 0.0
C1741 C 0.49947 0.33766 0.3683 0.0
C1742 C 0.54835 0.36226 0.3733 0.0
C1743 C 0.50537 0.36128 0.35683 0.0
C1744 C 0.57897 0.39803 0.36066 0.0
C1745 C 0.61997 0.37364 0.38389 0.0
N1746 N 0.52919 0.37261 0.35948 0.0
N1747 N 0.59522 0.3637 0.38502 0.0
H1748 H 0.58632 0.61107 0.35498 0.0
H1749 H 0.71188 0.52488 0.38067 0.0
H1750 H 0.65349 0.64273 0.39107 0.0
H1751 H 0.63551 0.49231 0.36673 0.0
H1752 H 0.69161 0.56807 0.38539 0.0
H1753 H 0.60441 0.56725 0.35966 0.0
C1754 C 0.60476 0.60873 0.36415 0.0
C1755 C 0.61845 0.63056 0.37258 0.0
C1756 C 0.67932 0.55135 0.3816 0.0
C1757 C 0.63961 0.5804 0.37764 0.0
C1758 C 0.69087 0.52669 0.3789 0.0
C1759 C 0.67547 0.50491 0.37297 0.0
C1760 C 0.65226 0.55425 0.37811 0.0
C1761 C 0.6483 0.50849 0.37099 0.0
C1762 C 0.61509 0.5837 0.36686 0.0
C1763 C 0.64226 0.62639 0.38439 0.0
N1764 N 0.63767 0.53266 0.37325 0.0
N1765 N 0.65231 0.60181 0.38626 0.0
H1766 H 0.36997 0.65645 0.39405 0.0
H1767 H 0.52216 0.63854 0.36553 0.0
H1768 H 0.40258 0.59069 0.35662 0.0
H1769 H 0.48803 0.71404 0.38007 0.0
H1770 H 0.47949 0.61842 0.37091 0.0
H1771 H 0.41408 0.67522 0.39743 0.0
C1772 C 0.38644 0.64573 0.38696 0.0
C1773 C 0.38261 0.62202 0.37492 0.0
C1774 C 0.48133 0.63937 0.37309 0.0
C1775 C 0.43292 0.64333 0.37875 0.0
C1776 C 0.50575 0.65094 0.37005 0.0
C1777 C 0.50873 0.67817 0.37199 0.0
C1778 C 0.45953 0.65498 0.37825 0.0
C1779 C 0.48665 0.69303 0.37819 0.0
C1780 C 0.41154 0.65654 0.38874 0.0
C1781 C 0.40462 0.60908 0.36589 0.0
N1782 N 0.46291 0.68126 0.38094 0.0
N1783 N 0.42876 0.61991 0.36795 0.0
H1784 H 0.37658 0.48989 0.13187 0.0
H1785 H 0.35974 0.64211 0.10309 0.0
H1786 H 0.30174 0.52406 0.11474 0.0
H1787 H 0.42391 0.60972 0.14293 0.0
H1788 H 0.34113 0.59803 0.09927 0.0
H1789 H 0.39687 0.53267 0.12763 0.0
C1790 C 0.36437 0.50631 0.12698 0.0
C1791 C 0.33725 0.50331 0.12397 0.0
C1792 C 0.35941 0.60061 0.10863 0.0
C1793 C 0.36063 0.55262 0.11906 0.0
C1794 C 0.37014 0.6257 0.11069 0.0
C1795 C 0.39337 0.62962 0.12348 0.0
C1796 C 0.37222 0.57927 0.11909 0.0
C1797 C 0.40589 0.60766 0.13309 0.0
C1798 C 0.37604 0.5308 0.12463 0.0
C1799 C 0.32265 0.52544 0.11741 0.0
N1800 N 0.39516 0.5835 0.13073 0.0
N1801 N 0.3345 0.54921 0.11532 0.0
H1802 H 0.40262 0.42406 0.14315 0.0
H1803 H 0.48818 0.29948 0.11227 0.0
H1804 H 0.37035 0.35847 0.1052 0.0
H1805 H 0.52125 0.37513 0.12819 0.0
H1806 H 0.44493 0.31995 0.10905 0.0
H1807 H 0.44632 0.40595 0.13766 0.0
C1808 C 0.40478 0.40594 0.13345 0.0
C1809 C 0.38281 0.39271 0.1247 0.0
C1810 C 0.46176 0.33206 0.11294 0.0
C1811 C 0.43286 0.37157 0.11864 0.0
C1812 C 0.48646 0.32039 0.11479 0.0
C1813 C 0.50842 0.33551 0.12081 0.0
C1814 C 0.45899 0.35894 0.11739 0.0
C1815 C 0.50493 0.36256 0.12379 0.0
C1816 C 0.42976 0.39562 0.13027 0.0
C1817 C 0.38678 0.36934 0.11217 0.0
N1818 N 0.48072 0.37329 0.12235 0.0
N1819 N 0.41131 0.35929 0.1098 0.0
H1820 H 0.71385 0.48752 0.11103 0.0
H1821 H 0.58735 0.40259 0.13678 0.0
H1822 H 0.63763 0.52084 0.12404 0.0
H1823 H 0.65433 0.36998 0.10113 0.0
H1824 H 0.60596 0.44618 0.13195 0.0
H1825 H 0.69327 0.4444 0.10668 0.0
C1826 C 0.69282 0.48589 0.11267 0.0
C1827 C 0.67755 0.50787 0.11822 0.0
C1828 C 0.61649 0.42957 0.12489 0.0
C1829 C 0.65398 0.45861 0.11352 0.0
C1830 C 0.60586 0.40467 0.12768 0.0
C1831 C 0.61932 0.38264 0.1194 0.0
C1832 C 0.64109 0.43255 0.11416 0.0
C1833 C 0.64325 0.38648 0.10768 0.0
C1834 C 0.68109 0.46126 0.11018 0.0
C1835 C 0.65033 0.5045 0.12006 0.0
N1836 N 0.65359 0.41095 0.10572 0.0
N1837 N 0.63953 0.48037 0.11802 0.0
H1838 H 0.52451 0.71346 0.11255 0.0
H1839 H 0.60915 0.5863 0.13706 0.0
H1840 H 0.49102 0.63775 0.12742 0.0
H1841 H 0.64149 0.65347 0.10149 0.0
H1842 H 0.56557 0.60517 0.13304 0.0
H1843 H 0.56738 0.69255 0.10756 0.0
C1844 C 0.52605 0.69246 0.11448 0.0
C1845 C 0.5041 0.67744 0.12071 0.0
C1846 C 0.58211 0.61569 0.12582 0.0
C1847 C 0.55309 0.65348 0.11525 0.0
C1848 C 0.60702 0.60491 0.12814 0.0
C1849 C 0.62899 0.61835 0.11966 0.0
C1850 C 0.57907 0.64041 0.11536 0.0
C1851 C 0.62505 0.6424 0.1082 0.0
C1852 C 0.55053 0.68054 0.11163 0.0
C1853 C 0.50734 0.65026 0.1229 0.0
N1854 N 0.60061 0.65287 0.10669 0.0
N1855 N 0.53134 0.63927 0.12046 0.0
H1856 H 0.07724 0.23986 0.21322 0.0
H1857 H 0.94081 0.25652 0.28011 0.0
H1858 H 1.00377 0.24978 0.17729 0.0
H1859 H 0.0134 0.23608 0.31386 0.0
H1860 H 0.96475 0.2648 0.24319 0.0
H1861 H 0.05562 0.24929 0.25081 0.0
C1862 C 0.05663 0.24474 0.21329 0.0
C1863 C 0.0422 0.24426 0.19233 0.0
C1864 C 0.97554 0.25915 0.25882 0.0
C1865 C 0.01709 0.25429 0.23516 0.0
C1866 C 0.96192 0.25468 0.27987 0.0
C1867 C 0.97533 0.24593 0.29991 0.0
C1868 C 1.00266 0.25464 0.25794 0.0
C1869 C 1.00251 0.24309 0.29873 0.0
C1870 C 0.04424 0.24997 0.2347 0.0
C1871 C 0.01551 0.25029 0.19319 0.0
N1872 N 0.01527 0.24722 0.27804 0.0
N1873 N 1.00368 0.25476 0.21434 0.0
H1874 H 0.76934 0.01475 0.31715 0.0
H1875 H 0.75884 1.0052 0.17674 0.0
H1876 H 0.76439 0.94203 0.27921 0.0
H1877 H 0.77692 0.07549 0.21512 0.0
H1878 H 0.74928 0.98306 0.21432 0.0
H1879 H 0.76032 0.03843 0.28043 0.0
C1880 C 0.7655 1.00382 0.30114 0.0
C1881 C 0.76728 0.97654 0.30103 0.0
C1882 C 0.75475 1.00351 0.21449 0.0
C1883 C 0.7579 1.00328 0.25893 0.0
C1884 C 0.75998 0.01612 0.19309 0.0
C1885 C 0.76851 0.04213 0.19306 0.0
C1886 C 0.75824 0.01708 0.23587 0.0
C1887 C 0.77028 0.05543 0.21457 0.0
C1888 C 0.76059 0.01727 0.28017 0.0
C1889 C 0.76282 0.96312 0.27988 0.0
N1890 N 0.76542 0.04271 0.23514 0.0
N1891 N 0.75863 0.97665 0.25955 0.0
H1892 H 0.93828 0.76225 0.20961 0.0
H1893 H 0.07454 0.76889 0.27888 0.0
H1894 H 0.01273 0.77641 0.17652 0.0
H1895 H 0.99939 0.77146 0.313 0.0
H1896 H 0.05277 0.75999 0.24113 0.0
H1897 H 0.96085 0.75404 0.2472 0.0
C1898 C 0.95946 0.76271 0.21016 0.0
C1899 C 0.97381 0.76962 0.19006 0.0
C1900 C 0.04102 0.76189 0.25694 0.0
C1901 C 0.99966 0.76098 0.23285 0.0
C1902 C 0.05346 0.76674 0.27846 0.0
C1903 C 0.03865 0.77054 0.29894 0.0
C1904 C 0.01355 0.76115 0.25592 0.0
C1905 C 0.0114 0.76825 0.29754 0.0
C1906 C 0.97231 0.7583 0.2316 0.0
C1907 C 1.00111 0.77077 0.19167 0.0
N1908 N 0.99967 0.76393 0.27633 0.0
N1909 N 0.01316 0.76669 0.21274 0.0
H1910 H 0.244 0.07674 0.27703 0.0
H1911 H 0.25063 0.93914 0.21068 0.0
H1912 H 0.24649 1.00269 0.313 0.0
H1913 H 0.2375 0.01287 0.17606 0.0
H1914 H 0.25973 0.96254 0.24767 0.0
H1915 H 0.25244 0.05434 0.23957 0.0
C1916 C 0.24715 0.0558 0.27703 0.0
C1917 C 0.24488 0.04147 0.29796 0.0
C1918 C 0.25548 0.97366 0.23187 0.0
C1919 C 0.25365 0.01556 0.25528 0.0
C1920 C 0.25052 0.96032 0.21078 0.0
C1921 C 0.24366 0.97425 0.19044 0.0
C1922 C 0.25331 1.00106 0.23252 0.0
C1923 C 0.24304 1.00157 0.19143 0.0
C1924 C 0.25175 0.04298 0.25568 0.0
C1925 C 0.24851 0.01435 0.29715 0.0
N1926 N 0.24758 0.0141 0.21218 0.0
N1927 N 0.25243 1.00219 0.27608 0.0
H1928 H 0.01218 0.77748 0.81727 0.0
H1929 H 0.01668 0.7476 0.6786 0.0
H1930 H 0.94351 0.75785 0.77703 0.0
H1931 H 0.07454 0.79134 0.71722 0.0
H1932 H 0.99363 0.73868 0.71603 0.0
H1933 H 0.03922 0.76917 0.78242 0.0
C1934 C 1.00296 0.77059 0.80121 0.0
C1935 C 0.97576 0.76806 0.79991 0.0
C1936 C 0.01171 0.74969 0.7163 0.0
C1937 C 1.00629 0.75937 0.75982 0.0
C1938 C 0.02492 0.75458 0.69504 0.0
C1939 C 0.04749 0.77014 0.69501 0.0
C1940 C 0.02148 0.7602 0.73749 0.0
C1941 C 0.0572 0.77921 0.71661 0.0
C1942 C 0.0183 0.76607 0.78129 0.0
C1943 C 0.96454 0.75965 0.77866 0.0
N1944 N 0.04412 0.77421 0.73694 0.0
N1945 N 0.97985 0.75589 0.75926 0.0
H1946 H 0.25144 0.07343 0.71007 0.0
H1947 H 0.24823 0.93709 0.77894 0.0
H1948 H 0.24171 0.99859 0.67647 0.0
H1949 H 0.24131 0.01209 0.81277 0.0
H1950 H 0.25797 0.95914 0.74149 0.0
H1951 H 0.25984 0.05114 0.74772 0.0
C1952 C 0.25199 0.05226 0.71055 0.0
C1953 C 0.24624 0.03769 0.6903 0.0
C1954 C 0.25494 0.9708 0.75719 0.0
C1955 C 0.25506 0.01213 0.73312 0.0
C1956 C 0.2496 0.95822 0.77854 0.0
C1957 C 0.24429 0.97291 0.7988 0.0
C1958 C 0.25465 0.99826 0.75616 0.0
C1959 C 0.24565 1.0002 0.79746 0.0
C1960 C 0.25652 0.03955 0.73201 0.0
C1961 C 0.24641 0.01038 0.69177 0.0
N1962 N 0.25047 0.01205 0.77641 0.0
N1963 N 0.25052 0.99845 0.71289 0.0
H1964 H 0.93874 0.24923 0.7095 0.0
H1965 H 0.07487 0.24624 0.77885 0.0
H1966 H 0.01331 0.23414 0.67698 0.0
H1967 H 0.99961 0.24225 0.81269 0.0
H1968 H 0.05309 0.25468 0.741 0.0
H1969 H 0.96123 0.25942 0.74673 0.0
C1970 C 0.95992 0.24896 0.71008 0.0
C1971 C 0.97435 0.24116 0.69031 0.0
C1972 C 0.04133 0.25262 0.75679 0.0
C1973 C 1.00008 0.2521 0.73263 0.0
C1974 C 0.05376 0.24804 0.77835 0.0
C1975 C 0.0389 0.24387 0.79873 0.0
C1976 C 0.01386 0.25275 0.75569 0.0
C1977 C 0.01163 0.24571 0.79727 0.0
C1978 C 0.97273 0.25453 0.7313 0.0
C1979 C 1.00165 0.24037 0.69191 0.0
N1980 N 0.99992 0.24977 0.77603 0.0
N1981 N 0.01366 0.24556 0.71279 0.0
H1982 H 0.76105 0.99843 0.67897 0.0
H1983 H 0.7662 1.00104 0.82001 0.0
H1984 H 0.78401 0.9329 0.72223 0.0
H1985 H 0.76937 0.07006 0.77663 0.0
H1986 H 0.75909 0.97449 0.78449 0.0
H1987 H 0.75085 0.02317 0.71483 0.0
C1988 C 0.76345 0.98906 0.69598 0.0
C1989 C 0.77379 0.9637 0.69764 0.0
C1990 C 0.76065 0.99551 0.78279 0.0
C1991 C 0.76208 0.99185 0.73862 0.0
C1992 C 0.76442 0.01062 0.80303 0.0
C1993 C 0.768 0.03765 0.80105 0.0
C1994 C 0.76064 0.00761 0.76052 0.0
C1995 C 0.76632 0.04924 0.77873 0.0
C1996 C 0.75772 1.00323 0.71641 0.0
C1997 C 0.77647 0.95254 0.72015 0.0
N1998 N 0.76297 0.03411 0.75923 0.0
N1999 N 0.77087 0.96676 0.73975 0.0
H2000 H 0.49831 0.75518 0.81737 0.0
H2001 H 0.57913 0.73122 0.72219 0.0
H2002 H 0.43932 0.72374 0.7708 0.0
H2003 H 0.51162 0.74576 0.67845 0.0
H2004 H 0.55241 0.7389 0.75718 0.0
H2005 H 0.5265 0.76293 0.78325 0.0
C2006 C 0.49113 0.7502 0.79996 0.0
C2007 C 0.4666 0.73827 0.79701 0.0
C2008 C 0.54357 0.74124 0.73995 0.0
C2009 C 0.499 0.74663 0.75798 0.0
C2010 C 0.5588 0.73664 0.71996 0.0
C2011 C 0.54756 0.73779 0.69741 0.0
C2012 C 0.51678 0.74662 0.73738 0.0
C2013 C 0.52109 0.74479 0.69552 0.0
C2014 C 0.50737 0.75438 0.78052 0.0
C2015 C 0.45827 0.73251 0.77396 0.0
N2016 N 0.50645 0.74838 0.71529 0.0
N2017 N 0.47453 0.73656 0.75534 0.0
H2018 H 0.26398 0.57337 0.71507 0.0
H2019 H 0.27053 0.43511 0.78061 0.0
H2020 H 0.27928 0.50022 0.6802 0.0
H2021 H 0.26713 0.50887 0.81698 0.0
H2022 H 0.26283 0.45783 0.74313 0.0
H2023 H 0.25435 0.54946 0.75168 0.0
C2024 C 0.26442 0.5522 0.715 0.0
C2025 C 0.27204 0.5386 0.69468 0.0
C2026 C 0.26314 0.46904 0.75933 0.0
C2027 C 0.26183 0.5112 0.73641 0.0
C2028 C 0.2673 0.45604 0.78069 0.0
C2029 C 0.26908 0.47019 0.80176 0.0
C2030 C 0.26115 0.49646 0.75907 0.0
C2031 C 0.26545 0.49732 0.80104 0.0
C2032 C 0.25918 0.53857 0.73589 0.0
C2033 C 0.27311 0.51127 0.69551 0.0
N2034 N 0.26192 0.50965 0.77998 0.0
N2035 N 0.26828 0.49846 0.71609 0.0
H2036 H 0.50302 0.26101 0.81708 0.0
H2037 H 0.51184 0.26112 0.67636 0.0
H2038 H 0.57462 0.26942 0.77786 0.0
H2039 H 0.4401 0.26881 0.71548 0.0
H2040 H 0.53501 0.25133 0.71329 0.0
H2041 H 0.47988 0.25105 0.78016 0.0
C2042 C 0.51396 0.25985 0.80073 0.0
C2043 C 0.54067 0.26577 0.80031 0.0
C2044 C 0.51408 0.25451 0.71375 0.0
C2045 C 0.51447 0.25519 0.75816 0.0
C2046 C 0.50089 0.25985 0.69269 0.0
C2047 C 0.47413 0.2655 0.69308 0.0
C2048 C 0.50035 0.25513 0.73526 0.0
C2049 C 0.46077 0.2643 0.71461 0.0
C2050 C 0.50078 0.25441 0.77968 0.0
C2051 C 0.554 0.26472 0.77876 0.0
N2052 N 0.47406 0.25951 0.73492 0.0
N2053 N 0.54072 0.25981 0.75847 0.0
H2054 H 0.74497 0.43585 0.71635 0.0
H2055 H 0.73867 0.57649 0.77518 0.0
H2056 H 0.74741 0.5075 0.6766 0.0
H2057 H 0.74484 0.50531 0.81527 0.0
H2058 H 0.74891 0.55208 0.73912 0.0
H2059 H 0.75213 0.46079 0.75275 0.0
C2060 C 0.74793 0.45679 0.71529 0.0
C2061 C 0.74606 0.4697 0.69358 0.0
C2062 C 0.74866 0.54182 0.75583 0.0
C2063 C 0.75317 0.49851 0.73505 0.0
C2064 C 0.74297 0.5558 0.77639 0.0
C2065 C 0.74127 0.54285 0.79809 0.0
C2066 C 0.75208 0.51456 0.75698 0.0
C2067 C 0.74637 0.51597 0.79882 0.0
C2068 C 0.75179 0.47107 0.73605 0.0
C2069 C 0.74921 0.49688 0.69306 0.0
N2070 N 0.75122 0.50262 0.7785 0.0
N2071 N 0.75228 0.51045 0.71353 0.0
H2072 H 0.50055 0.26197 0.314 0.0
H2073 H 0.50104 0.26773 0.17289 0.0
H2074 H 0.43418 0.28414 0.27144 0.0
H2075 H 0.5709 0.26952 0.21527 0.0
H2076 H 0.47503 0.2606 0.20873 0.0
H2077 H 0.52497 0.25205 0.27784 0.0
C2078 C 0.49094 0.26425 0.29709 0.0
C2079 C 0.46543 0.27426 0.2957 0.0
C2080 C 0.49611 0.26189 0.21015 0.0
C2081 C 0.49318 0.2629 0.25439 0.0
C2082 C 0.51091 0.26566 0.18972 0.0
C2083 C 0.53803 0.26883 0.19131 0.0
C2084 C 0.50859 0.26152 0.23225 0.0
C2085 C 0.54999 0.26679 0.21345 0.0
C2086 C 0.50492 0.25869 0.27648 0.0
C2087 C 0.45394 0.27684 0.27331 0.0
N2088 N 0.53516 0.26348 0.23316 0.0
N2089 N 0.46796 0.2714 0.25355 0.0
H2090 H 0.74651 0.57489 0.21117 0.0
H2091 H 0.7498 0.43887 0.28119 0.0
H2092 H 0.74136 0.49965 0.17752 0.0
H2093 H 0.73526 0.51348 0.31374 0.0
H2094 H 0.7587 0.46121 0.24361 0.0
H2095 H 0.75447 0.55309 0.24911 0.0
C2096 C 0.74797 0.55377 0.21172 0.0
C2097 C 0.74371 0.53896 0.1913 0.0
C2098 C 0.7542 0.47276 0.2591 0.0
C2099 C 0.75202 0.51386 0.23454 0.0
C2100 C 0.7494 0.46003 0.28055 0.0
C2101 C 0.7422 0.47449 0.3005 0.0
C2102 C 0.75165 0.5001 0.25769 0.0
C2103 C 0.74113 0.50177 0.29872 0.0
C2104 C 0.75224 0.54132 0.23335 0.0
C2105 C 0.74499 0.51166 0.19291 0.0
N2106 N 0.74563 0.5137 0.27765 0.0
N2107 N 0.74884 0.49995 0.2142 0.0
H2108 H 0.5132 0.74204 0.17574 0.0
H2109 H 0.50534 0.757 0.31588 0.0
H2110 H 0.44093 0.74998 0.21402 0.0
H2111 H 0.57469 0.7359 0.27733 0.0
H2112 H 0.48305 0.76612 0.27827 0.0
H2113 H 0.53744 0.75166 0.21203 0.0
C2114 C 0.50251 0.74663 0.19173 0.0
C2115 C 0.47519 0.74553 0.19206 0.0
C2116 C 0.50335 0.76011 0.27806 0.0
C2117 C 0.50255 0.75562 0.2337 0.0
C2118 C 0.51607 0.75515 0.29947 0.0
C2119 C 0.54183 0.74588 0.29947 0.0
C2120 C 0.51659 0.75564 0.25666 0.0
C2121 C 0.55484 0.74315 0.2779 0.0
C2122 C 0.51627 0.75191 0.21245 0.0
C2123 C 0.46206 0.751 0.21317 0.0
N2124 N 0.54203 0.74779 0.25734 0.0
N2125 N 0.47588 0.75551 0.23329 0.0
H2126 H 0.26101 0.44048 0.21539 0.0
H2127 H 0.26922 0.57865 0.28098 0.0
H2128 H 0.27604 0.5136 0.18035 0.0
H2129 H 0.26587 0.50488 0.31736 0.0
H2130 H 0.26105 0.55599 0.24356 0.0
H2131 H 0.25222 0.46439 0.25217 0.0
C2132 C 0.26158 0.46165 0.21534 0.0
C2133 C 0.26885 0.47523 0.19491 0.0
C2134 C 0.26148 0.54476 0.25975 0.0
C2135 C 0.25961 0.50263 0.23682 0.0
C2136 C 0.26592 0.55773 0.28108 0.0
C2137 C 0.26785 0.54356 0.30214 0.0
C2138 C 0.25934 0.51735 0.25949 0.0
C2139 C 0.26409 0.51645 0.30143 0.0
C2140 C 0.25682 0.47528 0.23632 0.0
C2141 C 0.27011 0.50256 0.19575 0.0
N2142 N 0.26027 0.50415 0.2804 0.0
N2143 N 0.26574 0.51536 0.21641 0.0
H2144 H 0.0491 0.22532 0.93658 0.0
H2145 H 0.1353 0.21925 0.05429 0.0
H2146 H 0.13326 0.21812 0.93622 0.0
H2147 H 0.05109 0.22565 0.05347 0.0
H2148 H 0.13525 0.21912 0.01115 0.0
H2149 H 0.0498 0.22577 0.9795 0.0
C2150 C 0.06778 0.22388 0.94551 0.0
C2151 C 0.09119 0.22175 0.93272 0.0
C2152 C 0.11681 0.22058 0.02043 0.0
C2153 C 0.09208 0.22219 0.98206 0.0
C2154 C 0.11681 0.22068 0.04507 0.0
C2155 C 0.09316 0.22253 0.05756 0.0
C2156 C 0.093 0.22233 0.0082 0.0
C2157 C 0.0698 0.22425 0.04464 0.0
C2158 C 0.06814 0.22411 0.97007 0.0
C2159 C 0.11474 0.21984 0.94534 0.0
N2160 N 0.07033 0.22411 0.0207 0.0
N2161 N 0.11459 0.22012 0.96933 0.0
H2162 H 0.79353 0.1359 0.05553 0.0
H2163 H 0.78681 0.05005 0.93772 0.0
H2164 H 0.78765 0.05168 0.0545 0.0
H2165 H 0.79223 0.13432 0.93748 0.0
H2166 H 0.78702 0.05062 0.98063 0.0
H2167 H 0.79305 0.13602 0.01239 0.0
C2168 C 0.7921 0.11744 0.04626 0.0
C2169 C 0.79056 0.09374 0.05867 0.0
C2170 C 0.78814 0.06901 0.97123 0.0
C2171 C 0.79005 0.09377 0.00935 0.0
C2172 C 0.78799 0.06872 0.94668 0.0
C2173 C 0.78944 0.0922 0.93394 0.0
C2174 C 0.78977 0.09294 0.98324 0.0
C2175 C 0.79103 0.11575 0.94657 0.0
C2176 C 0.79184 0.11754 0.02163 0.0
C2177 C 0.78882 0.07043 0.04571 0.0
N2178 N 0.79115 0.11552 0.97056 0.0
N2179 N 0.78861 0.07106 0.02179 0.0
H2180 H 0.87499 0.79432 0.93434 0.0
H2181 H 0.96098 0.78652 0.05237 0.0
H2182 H 0.95912 0.78715 0.93564 0.0
H2183 H 0.87697 0.795 0.05304 0.0
H2184 H 0.96011 0.78634 0.00946 0.0
H2185 H 0.87479 0.79428 0.97759 0.0
C2186 C 0.8934 0.7927 0.94367 0.0
C2187 C 0.91711 0.79067 0.93126 0.0
C2188 C 0.94182 0.78822 0.01893 0.0
C2189 C 0.91699 0.79065 0.98075 0.0
C2190 C 0.94229 0.7883 0.04352 0.0
C2191 C 0.91899 0.79073 0.05644 0.0
C2192 C 0.91789 0.79059 0.00698 0.0
C2193 C 0.89541 0.79304 0.04385 0.0
C2194 C 0.89326 0.7927 0.96837 0.0
C2195 C 0.94035 0.7887 0.94435 0.0
N2196 N 0.89546 0.79292 0.01982 0.0
N2197 N 0.93967 0.78874 0.9683 0.0
H2198 H 0.221 0.96264 0.93597 0.0
H2199 H 0.21938 0.87718 0.05423 0.0
H2200 H 0.21829 0.87826 0.93598 0.0
H2201 H 0.22454 0.96144 0.05269 0.0
H2202 H 0.21848 0.87684 0.01108 0.0
H2203 H 0.22165 0.9622 0.97887 0.0
C2204 C 0.22055 0.94397 0.94497 0.0
C2205 C 0.21968 0.92043 0.93228 0.0
C2206 C 0.21985 0.89538 0.02021 0.0
C2207 C 0.2204 0.91982 0.98164 0.0
C2208 C 0.22038 0.8956 0.04486 0.0
C2209 C 0.22211 0.91938 0.05715 0.0
C2210 C 0.22099 0.91909 0.00778 0.0
C2211 C 0.22327 0.94262 0.04403 0.0
C2212 C 0.22092 0.94375 0.96954 0.0
C2213 C 0.21902 0.89688 0.94501 0.0
N2214 N 0.22268 0.94188 0.0201 0.0
N2215 N 0.21941 0.89717 0.96901 0.0
H2216 H 0.05144 0.78514 0.55525 0.0
H2217 H 0.13426 0.79503 0.43568 0.0
H2218 H 0.13562 0.7916 0.55335 0.0
H2219 H 0.05009 0.78843 0.43786 0.0
H2220 H 0.13521 0.79359 0.47874 0.0
H2221 H 0.05067 0.78594 0.51223 0.0
C2222 C 0.06979 0.78664 0.54581 0.0
C2223 C 0.09365 0.78825 0.55799 0.0
C2224 C 0.11654 0.79243 0.46979 0.0
C2225 C 0.09287 0.78928 0.50861 0.0
C2226 C 0.11596 0.79326 0.44518 0.0
C2227 C 0.09205 0.79179 0.43308 0.0
C2228 C 0.09304 0.79015 0.48245 0.0
C2229 C 0.06899 0.78957 0.44639 0.0
C2230 C 0.06932 0.78713 0.52121 0.0
C2231 C 0.11677 0.79025 0.54475 0.0
N2232 N 0.07007 0.78882 0.47033 0.0
N2233 N 0.1158 0.79073 0.52078 0.0
H2234 H 0.22397 0.05062 0.43581 0.0
H2235 H 0.22083 0.13536 0.55454 0.0
H2236 H 0.22038 0.13497 0.43614 0.0
H2237 H 0.22722 0.05121 0.5525 0.0
H2238 H 0.22016 0.136 0.51134 0.0
H2239 H 0.22456 0.05087 0.47873 0.0
C2240 C 0.22332 0.06924 0.44489 0.0
C2241 C 0.22221 0.09283 0.43228 0.0
C2242 C 0.22175 0.11743 0.52039 0.0
C2243 C 0.22285 0.09323 0.48166 0.0
C2244 C 0.22215 0.11704 0.54505 0.0
C2245 C 0.22416 0.0932 0.55721 0.0
C2246 C 0.22331 0.09382 0.50782 0.0
C2247 C 0.22573 0.07008 0.54395 0.0
C2248 C 0.22367 0.06936 0.46946 0.0
C2249 C 0.22131 0.11632 0.44511 0.0
N2250 N 0.22526 0.07099 0.52002 0.0
N2251 N 0.22167 0.11592 0.46911 0.0
H2252 H 0.87778 0.21266 0.55452 0.0
H2253 H 0.96258 0.22825 0.43671 0.0
H2254 H 0.96178 0.22149 0.5532 0.0
H2255 H 0.87867 0.21849 0.43639 0.0
H2256 H 0.9622 0.22616 0.47956 0.0
H2257 H 0.87731 0.21483 0.51139 0.0
C2258 C 0.89611 0.21504 0.54519 0.0
C2259 C 0.91985 0.21698 0.55753 0.0
C2260 C 0.94383 0.22452 0.47017 0.0
C2261 C 0.91942 0.21949 0.50824 0.0
C2262 C 0.94402 0.22575 0.44564 0.0
C2263 C 0.9206 0.2236 0.43288 0.0
C2264 C 0.92006 0.22107 0.48215 0.0
C2265 C 0.89719 0.2203 0.4455 0.0
C2266 C 0.89582 0.21629 0.52058 0.0
C2267 C 0.943 0.21998 0.5445 0.0
N2268 N 0.89752 0.21912 0.46946 0.0
N2269 N 0.94217 0.22117 0.5206 0.0
H2270 H 0.8039 0.88018 0.43559 0.0
H2271 H 0.7731 0.95419 0.55656 0.0
H2272 H 0.77838 0.96055 0.43887 0.0
H2273 H 0.81795 0.88282 0.55288 0.0
H2274 H 0.77173 0.95542 0.51345 0.0
H2275 H 0.80578 0.8792 0.47871 0.0
C2276 C 0.79857 0.89758 0.44536 0.0
C2277 C 0.79092 0.92046 0.43358 0.0
C2278 C 0.78193 0.93955 0.52209 0.0
C2279 C 0.79304 0.91946 0.4829 0.0
C2280 C 0.78268 0.93879 0.5467 0.0
C2281 C 0.79561 0.91834 0.55837 0.0
C2282 C 0.79396 0.91956 0.50904 0.0
C2283 C 0.80779 0.89898 0.54465 0.0
C2284 C 0.79978 0.89704 0.46997 0.0
C2285 C 0.78442 0.94248 0.44718 0.0
N2286 N 0.80654 0.89999 0.52072 0.0
N2287 N 0.78554 0.9414 0.47111 0.0
H2288 H 0.55212 0.7348 0.43846 0.0
H2289 H 0.63107 0.69343 0.55411 0.0
H2290 H 0.63247 0.70888 0.43717 0.0
H2291 H 0.56027 0.73935 0.55623 0.0
H2292 H 0.62974 0.69473 0.51106 0.0
H2293 H 0.55283 0.7327 0.48153 0.0
C2294 C 0.56993 0.7287 0.44722 0.0
C2295 C 0.59232 0.7221 0.43417 0.0
C2296 C 0.61451 0.70452 0.52096 0.0
C2297 C 0.59314 0.71946 0.48345 0.0
C2298 C 0.61518 0.70371 0.54554 0.0
C2299 C 0.5958 0.71641 0.55882 0.0
C2300 C 0.59419 0.7179 0.50952 0.0
C2301 C 0.57569 0.72942 0.54671 0.0
C2302 C 0.57031 0.72755 0.47181 0.0
C2303 C 0.61482 0.71431 0.4465 0.0
N2304 N 0.57539 0.72979 0.52273 0.0
N2305 N 0.61462 0.71311 0.47045 0.0
H2306 H 0.28646 0.55275 0.44045 0.0
H2307 H 0.29993 0.63679 0.55917 0.0
H2308 H 0.29501 0.63673 0.44085 0.0
H2309 H 0.29198 0.55278 0.55742 0.0
H2310 H 0.29816 0.63749 0.51601 0.0
H2311 H 0.28823 0.55277 0.4834 0.0
C2312 C 0.28864 0.57125 0.44955 0.0
C2313 C 0.29052 0.5948 0.43692 0.0
C2314 C 0.29681 0.61892 0.52509 0.0
C2315 C 0.29268 0.59491 0.48636 0.0
C2316 C 0.29783 0.61849 0.54975 0.0
C2317 C 0.29604 0.59469 0.56203 0.0
C2318 C 0.29399 0.59538 0.51257 0.0
C2319 C 0.29338 0.57162 0.54881 0.0
C2320 C 0.28969 0.57122 0.47414 0.0
C2321 C 0.29342 0.6181 0.4498 0.0
N2322 N 0.29242 0.57256 0.52487 0.0
N2323 N 0.29441 0.61757 0.4738 0.0
H2324 H 0.46195 0.27816 0.55542 0.0
H2325 H 0.38345 0.31876 0.43941 0.0
H2326 H 0.38209 0.30555 0.5565 0.0
H2327 H 0.45353 0.27172 0.43764 0.0
H2328 H 0.38471 0.31784 0.48241 0.0
H2329 H 0.46109 0.27924 0.51233 0.0
C2330 C 0.44421 0.2844 0.54661 0.0
C2331 C 0.42201 0.29173 0.55962 0.0
C2332 C 0.39978 0.30769 0.47262 0.0
C2333 C 0.42102 0.29313 0.51028 0.0
C2334 C 0.39917 0.30827 0.44804 0.0
C2335 C 0.4184 0.29521 0.43485 0.0
C2336 C 0.41992 0.29418 0.48418 0.0
C2337 C 0.43824 0.28195 0.44708 0.0
C2338 C 0.44374 0.28493 0.52201 0.0
C2339 C 0.3996 0.29961 0.54722 0.0
N2340 N 0.43853 0.28183 0.47107 0.0
N2341 N 0.39972 0.3002 0.52324 0.0
H2342 H 0.72888 0.46079 0.55561 0.0
H2343 H 0.71494 0.37731 0.43672 0.0
H2344 H 0.72013 0.37684 0.55467 0.0
H2345 H 0.72479 0.46114 0.43848 0.0
H2346 H 0.71666 0.37656 0.47983 0.0
H2347 H 0.72746 0.46106 0.51263 0.0
C2348 C 0.72674 0.44238 0.54639 0.0
C2349 C 0.72468 0.41874 0.55884 0.0
C2350 C 0.71846 0.3951 0.47076 0.0
C2351 C 0.72293 0.41894 0.50945 0.0
C2352 C 0.71747 0.39556 0.44613 0.0
C2353 C 0.71979 0.41932 0.43389 0.0
C2354 C 0.72176 0.41857 0.48328 0.0
C2355 C 0.72298 0.44234 0.4471 0.0
C2356 C 0.72589 0.44256 0.52179 0.0
C2357 C 0.72185 0.39552 0.54584 0.0
N2358 N 0.72388 0.44137 0.47103 0.0
N2359 N 0.72103 0.39622 0.52186 0.0
H2360 H 0.55005 0.28742 0.05449 0.0
H2361 H 0.63551 0.29581 0.93652 0.0
H2362 H 0.63428 0.29378 0.05458 0.0
H2363 H 0.55129 0.28938 0.93775 0.0
H2364 H 0.63576 0.29534 0.97966 0.0
H2365 H 0.55047 0.2882 0.01158 0.0
C2366 C 0.56868 0.28892 0.0455 0.0
C2367 C 0.59219 0.29046 0.0582 0.0
C2368 C 0.61725 0.29403 0.97046 0.0
C2369 C 0.59278 0.29145 0.0089 0.0
C2370 C 0.61708 0.29431 0.94583 0.0
C2371 C 0.59335 0.29255 0.93347 0.0
C2372 C 0.59352 0.292 0.98279 0.0
C2373 C 0.57007 0.2907 0.94649 0.0
C2374 C 0.56889 0.2894 0.02095 0.0
C2375 C 0.61569 0.29248 0.04552 0.0
N2376 N 0.57077 0.29045 0.97041 0.0
N2377 N 0.61539 0.29292 0.02154 0.0
H2378 H 0.7207 0.55195 0.93548 0.0
H2379 H 0.71703 0.63577 0.05486 0.0
H2380 H 0.71338 0.63603 0.93655 0.0
H2381 H 0.72531 0.55182 0.05252 0.0
H2382 H 0.71559 0.63655 0.0117 0.0
H2383 H 0.72216 0.55184 0.97843 0.0
C2384 C 0.7194 0.57043 0.94472 0.0
C2385 C 0.71698 0.59406 0.93228 0.0
C2386 C 0.71776 0.61798 0.02065 0.0
C2387 C 0.71865 0.59403 0.98174 0.0
C2388 C 0.71862 0.61751 0.04531 0.0
C2389 C 0.72136 0.59369 0.05742 0.0
C2390 C 0.71962 0.59447 0.00796 0.0
C2391 C 0.72324 0.57066 0.04403 0.0
C2392 C 0.72024 0.57034 0.96932 0.0
C2393 C 0.71531 0.61735 0.94535 0.0
N2394 N 0.72232 0.57164 0.02009 0.0
N2395 N 0.71619 0.61675 0.96935 0.0
H2396 H 0.45256 0.74222 0.93761 0.0
H2397 H 0.37817 0.70838 0.05776 0.0
H2398 H 0.38112 0.69727 0.94032 0.0
H2399 H 0.4585 0.7343 0.05508 0.0
H2400 H 0.37725 0.70766 0.0146 0.0
H2401 H 0.45353 0.74282 0.98073 0.0
C2402 C 0.43708 0.73249 0.94725 0.0
C2403 C 0.41671 0.71972 0.93532 0.0
C2404 C 0.39507 0.71348 0.0235 0.0
C2405 C 0.41764 0.72044 0.98463 0.0
C2406 C 0.39558 0.714 0.04811 0.0
C2407 C 0.41844 0.72144 0.06006 0.0
C2408 C 0.41749 0.72068 0.01074 0.0
C2409 C 0.44046 0.72839 0.04664 0.0
C2410 C 0.43768 0.73278 0.97186 0.0
C2411 C 0.39723 0.70733 0.94875 0.0
N2412 N 0.4394 0.72793 0.0227 0.0
N2413 N 0.39812 0.70811 0.97269 0.0
H2414 H 0.29418 0.37647 0.05925 0.0
H2415 H 0.28591 0.46073 0.9402 0.0
H2416 H 0.28741 0.46056 0.05726 0.0
H2417 H 0.294 0.37673 0.9407 0.0
H2418 H 0.28599 0.46061 0.98317 0.0
H2419 H 0.2938 0.37578 0.01603 0.0
C2420 C 0.29258 0.39479 0.04977 0.0
C2421 C 0.29077 0.41861 0.062 0.0
C2422 C 0.28772 0.44217 0.97393 0.0
C2423 C 0.29034 0.41793 0.01247 0.0
C2424 C 0.28765 0.4422 0.94931 0.0
C2425 C 0.28989 0.41868 0.9367 0.0
C2426 C 0.29007 0.41844 0.98621 0.0
C2427 C 0.29218 0.39534 0.94962 0.0
C2428 C 0.29237 0.39436 0.02508 0.0
C2429 C 0.2888 0.44171 0.04869 0.0
N2430 N 0.29221 0.39581 0.97366 0.0
N2431 N 0.28863 0.44076 0.02473 0.0
loop_
_geom_bond_atom_site_label_1
_geom_bond_atom_site_label_2
_geom_bond_distance
_geom_bond_site_symmetry_2
_ccdc_geom_bond_type
Fe0 O2 1.918 . S
Fe0 O5 1.997 . S
Fe0 O6 2.002 . S
Fe0 O11 1.976 . S
Fe0 O14 1.996 . S
Fe1 O2 1.918 . S
Fe1 O9 1.997 . S
Fe1 O12 1.996 . S
Fe1 O16 1.976 . S
Fe1 O19 2.002 . S
O2 Fe0 1.918 . S
O2 Fe1 1.918 . S
O2 Fe3 1.918 . S
Fe3 O2 1.918 . S
Fe3 O4 2.002 . S
Fe3 O13 1.976 . S
Fe3 O17 1.996 . S
Fe3 O20 1.997 . S
O4 Fe3 2.002 . S
O4 C21 1.295 . S
O5 Fe0 1.997 . S
O5 C21 1.235 . S
O6 Fe0 2.002 . S
O6 C7 1.295 . S
C7 O6 1.295 . S
C7 O9 1.235 . S
C8 O13 1.287 . S
C8 O14 1.255 . S
O9 Fe1 1.997 . S
O9 C7 1.235 . S
C10 O16 1.287 . S
C10 O17 1.255 . S
O11 Fe0 1.976 . S
O11 C18 1.287 . S
O12 Fe1 1.996 . S
O12 C18 1.255 . S
O13 Fe3 1.976 . S
O13 C8 1.287 . S
O14 Fe0 1.996 . S
O14 C8 1.255 . S
C15 O19 1.295 . S
C15 O20 1.235 . S
O16 Fe1 1.976 . S
O16 C10 1.287 . S
O17 Fe3 1.996 . S
O17 C10 1.255 . S
C18 O11 1.287 . S
C18 O12 1.255 . S
O19 Fe1 2.002 . S
O19 C15 1.295 . S
O20 Fe3 1.997 . S
O20 C15 1.235 . S
C21 O4 1.295 . S
C21 O5 1.235 . S
Fe22 O24 1.918 . S
Fe22 O27 1.997 . S
Fe22 O28 2.002 . S
Fe22 O33 1.976 . S
Fe22 O36 1.996 . S
Fe23 O24 1.918 . S
Fe23 O31 1.997 . S
Fe23 O34 1.996 . S
Fe23 O38 1.976 . S
Fe23 O41 2.002 . S
O24 Fe22 1.918 . S
O24 Fe23 1.918 . S
O24 Fe25 1.918 . S
Fe25 O24 1.918 . S
Fe25 O26 2.002 . S
Fe25 O35 1.976 . S
Fe25 O39 1.996 . S
Fe25 O42 1.997 . S
O26 Fe25 2.002 . S
O26 C43 1.295 . S
O27 Fe22 1.997 . S
O27 C43 1.235 . S
O28 Fe22 2.002 . S
O28 C29 1.295 . S
C29 O28 1.295 . S
C29 O31 1.235 . S
C30 O35 1.287 . S
C30 O36 1.255 . S
O31 Fe23 1.997 . S
O31 C29 1.235 . S
C32 O38 1.287 . S
C32 O39 1.255 . S
O33 Fe22 1.976 . S
O33 C40 1.287 . S
O34 Fe23 1.996 . S
O34 C40 1.255 . S
O35 Fe25 1.976 . S
O35 C30 1.287 . S
O36 Fe22 1.996 . S
O36 C30 1.255 . S
C37 O41 1.295 . S
C37 O42 1.235 . S
O38 Fe23 1.976 . S
O38 C32 1.287 . S
O39 Fe25 1.996 . S
O39 C32 1.255 . S
C40 O33 1.287 . S
C40 O34 1.255 . S
O41 Fe23 2.002 . S
O41 C37 1.295 . S
O42 Fe25 1.997 . S
O42 C37 1.235 . S
C43 O26 1.295 . S
C43 O27 1.235 . S
Fe44 O46 1.918 . S
Fe44 O49 1.997 . S
Fe44 O50 2.002 . S
Fe44 O55 1.976 . S
Fe44 O58 1.996 . S
Fe45 O46 1.918 . S
Fe45 O53 1.997 . S
Fe45 O56 1.996 . S
Fe45 O60 1.976 . S
Fe45 O63 2.002 . S
O46 Fe44 1.918 . S
O46 Fe45 1.918 . S
O46 Fe47 1.918 . S
Fe47 O46 1.918 . S
Fe47 O48 2.002 . S
Fe47 O57 1.976 . S
Fe47 O61 1.996 . S
Fe47 O64 1.997 . S
O48 Fe47 2.002 . S
O48 C65 1.295 . S
O49 Fe44 1.997 . S
O49 C65 1.235 . S
O50 Fe44 2.002 . S
O50 C51 1.295 . S
C51 O50 1.295 . S
C51 O53 1.235 . S
C52 O57 1.287 . S
C52 O58 1.255 . S
O53 Fe45 1.997 . S
O53 C51 1.235 . S
C54 O60 1.287 . S
C54 O61 1.255 . S
O55 Fe44 1.976 . S
O55 C62 1.287 . S
O56 Fe45 1.996 . S
O56 C62 1.255 . S
O57 Fe47 1.976 . S
O57 C52 1.287 . S
O58 Fe44 1.996 . S
O58 C52 1.255 . S
C59 O63 1.295 . S
C59 O64 1.235 . S
O60 Fe45 1.976 . S
O60 C54 1.287 . S
O61 Fe47 1.996 . S
O61 C54 1.255 . S
C62 O55 1.287 . S
C62 O56 1.255 . S
O63 Fe45 2.002 . S
O63 C59 1.295 . S
O64 Fe47 1.997 . S
O64 C59 1.235 . S
C65 O48 1.295 . S
C65 O49 1.235 . S
Fe66 O68 1.918 . S
Fe66 O71 1.997 . S
Fe66 O72 2.002 . S
Fe66 O77 1.976 . S
Fe66 O80 1.996 . S
Fe67 O68 1.918 . S
Fe67 O75 1.997 . S
Fe67 O78 1.996 . S
Fe67 O82 1.976 . S
Fe67 O85 2.002 . S
O68 Fe66 1.918 . S
O68 Fe67 1.918 . S
O68 Fe69 1.918 . S
Fe69 O68 1.918 . S
Fe69 O70 2.002 . S
Fe69 O79 1.976 . S
Fe69 O83 1.996 . S
Fe69 O86 1.997 . S
O70 Fe69 2.002 . S
O70 C87 1.295 . S
O71 Fe66 1.997 . S
O71 C87 1.235 . S
O72 Fe66 2.002 . S
O72 C73 1.295 . S
C73 O72 1.295 . S
C73 O75 1.235 . S
C74 O79 1.287 . S
C74 O80 1.255 . S
O75 Fe67 1.997 . S
O75 C73 1.235 . S
C76 O82 1.287 . S
C76 O83 1.255 . S
O77 Fe66 1.976 . S
O77 C84 1.287 . S
O78 Fe67 1.996 . S
O78 C84 1.255 . S
O79 Fe69 1.976 . S
O79 C74 1.287 . S
O80 Fe66 1.996 . S
O80 C74 1.255 . S
C81 O85 1.295 . S
C81 O86 1.235 . S
O82 Fe67 1.976 . S
O82 C76 1.287 . S
O83 Fe69 1.996 . S
O83 C76 1.255 . S
C84 O77 1.287 . S
C84 O78 1.255 . S
O85 Fe67 2.002 . S
O85 C81 1.295 . S
O86 Fe69 1.997 . S
O86 C81 1.235 . S
C87 O70 1.295 . S
C87 O71 1.235 . S
Fe88 O90 1.918 . S
Fe88 O93 1.997 . S
Fe88 O94 2.002 . S
Fe88 O99 1.976 . S
Fe88 O102 1.996 . S
Fe89 O90 1.918 . S
Fe89 O97 1.997 . S
Fe89 O100 1.996 . S
Fe89 O104 1.976 . S
Fe89 O107 2.002 . S
O90 Fe88 1.918 . S
O90 Fe89 1.918 . S
O90 Fe91 1.918 . S
Fe91 O90 1.918 . S
Fe91 O92 2.002 . S
Fe91 O101 1.976 . S
Fe91 O105 1.996 . S
Fe91 O108 1.997 . S
O92 Fe91 2.002 . S
O92 C109 1.295 . S
O93 Fe88 1.997 . S
O93 C109 1.235 . S
O94 Fe88 2.002 . S
O94 C95 1.295 . S
C95 O94 1.295 . S
C95 O97 1.235 . S
C96 O101 1.287 . S
C96 O102 1.255 . S
O97 Fe89 1.997 . S
O97 C95 1.235 . S
C98 O104 1.287 . S
C98 O105 1.255 . S
O99 Fe88 1.976 . S
O99 C106 1.287 . S
O100 Fe89 1.996 . S
O100 C106 1.255 . S
O101 Fe91 1.976 . S
O101 C96 1.287 . S
O102 Fe88 1.996 . S
O102 C96 1.255 . S
C103 O107 1.295 . S
C103 O108 1.235 . S
O104 Fe89 1.976 . S
O104 C98 1.287 . S
O105 Fe91 1.996 . S
O105 C98 1.255 . S
C106 O99 1.287 . S
C106 O100 1.255 . S
O107 Fe89 2.002 . S
O107 C103 1.295 . S
O108 Fe91 1.997 . S
O108 C103 1.235 . S
C109 O92 1.295 . S
C109 O93 1.235 . S
Fe110 O112 1.918 . S
Fe110 O115 1.997 . S
Fe110 O116 2.002 . S
Fe110 O121 1.976 . S
Fe110 O124 1.996 . S
Fe111 O112 1.918 . S
Fe111 O119 1.997 . S
Fe111 O122 1.996 . S
Fe111 O126 1.976 . S
Fe111 O129 2.002 . S
O112 Fe110 1.918 . S
O112 Fe111 1.918 . S
O112 Fe113 1.918 . S
Fe113 O112 1.918 . S
Fe113 O114 2.002 . S
Fe113 O123 1.976 . S
Fe113 O127 1.996 . S
Fe113 O130 1.997 . S
O114 Fe113 2.002 . S
O114 C131 1.295 . S
O115 Fe110 1.997 . S
O115 C131 1.235 . S
O116 Fe110 2.002 . S
O116 C117 1.295 . S
C117 O116 1.295 . S
C117 O119 1.235 . S
C118 O123 1.287 . S
C118 O124 1.255 . S
O119 Fe111 1.997 . S
O119 C117 1.235 . S
C120 O126 1.287 . S
C120 O127 1.255 . S
O121 Fe110 1.976 . S
O121 C128 1.287 . S
O122 Fe111 1.996 . S
O122 C128 1.255 . S
O123 Fe113 1.976 . S
O123 C118 1.287 . S
O124 Fe110 1.996 . S
O124 C118 1.255 . S
C125 O129 1.295 . S
C125 O130 1.235 . S
O126 Fe111 1.976 . S
O126 C120 1.287 . S
O127 Fe113 1.996 . S
O127 C120 1.255 . S
C128 O121 1.287 . S
C128 O122 1.255 . S
O129 Fe111 2.002 . S
O129 C125 1.295 . S
O130 Fe113 1.997 . S
O130 C125 1.235 . S
C131 O114 1.295 . S
C131 O115 1.235 . S
Fe132 O134 1.918 . S
Fe132 O137 1.997 . S
Fe132 O138 2.002 . S
Fe132 O143 1.976 . S
Fe132 O146 1.996 . S
Fe133 O134 1.918 . S
Fe133 O141 1.997 . S
Fe133 O144 1.996 . S
Fe133 O148 1.976 . S
Fe133 O151 2.002 . S
O134 Fe132 1.918 . S
O134 Fe133 1.918 . S
O134 Fe135 1.918 . S
Fe135 O134 1.918 . S
Fe135 O136 2.002 . S
Fe135 O145 1.976 . S
Fe135 O149 1.996 . S
Fe135 O152 1.997 . S
O136 Fe135 2.002 . S
O136 C153 1.295 . S
O137 Fe132 1.997 . S
O137 C153 1.235 . S
O138 Fe132 2.002 . S
O138 C139 1.295 . S
C139 O138 1.295 . S
C139 O141 1.235 . S
C140 O145 1.287 . S
C140 O146 1.255 . S
O141 Fe133 1.997 . S
O141 C139 1.235 . S
C142 O148 1.287 . S
C142 O149 1.255 . S
O143 Fe132 1.976 . S
O143 C150 1.287 . S
O144 Fe133 1.996 . S
O144 C150 1.255 . S
O145 Fe135 1.976 . S
O145 C140 1.287 . S
O146 Fe132 1.996 . S
O146 C140 1.255 . S
C147 O151 1.295 . S
C147 O152 1.235 . S
O148 Fe133 1.976 . S
O148 C142 1.287 . S
O149 Fe135 1.996 . S
O149 C142 1.255 . S
C150 O143 1.287 . S
C150 O144 1.255 . S
O151 Fe133 2.002 . S
O151 C147 1.295 . S
O152 Fe135 1.997 . S
O152 C147 1.235 . S
C153 O136 1.295 . S
C153 O137 1.235 . S
Fe154 O156 1.918 . S
Fe154 O159 1.997 . S
Fe154 O160 2.002 . S
Fe154 O165 1.976 . S
Fe154 O168 1.996 . S
Fe155 O156 1.918 . S
Fe155 O163 1.997 . S
Fe155 O166 1.996 . S
Fe155 O170 1.976 . S
Fe155 O173 2.002 . S
O156 Fe154 1.918 . S
O156 Fe155 1.918 . S
O156 Fe157 1.918 . S
Fe157 O156 1.918 . S
Fe157 O158 2.002 . S
Fe157 O167 1.976 . S
Fe157 O171 1.996 . S
Fe157 O174 1.997 . S
O158 Fe157 2.002 . S
O158 C175 1.295 . S
O159 Fe154 1.997 . S
O159 C175 1.235 . S
O160 Fe154 2.002 . S
O160 C161 1.295 . S
C161 O160 1.295 . S
C161 O163 1.235 . S
C162 O167 1.287 . S
C162 O168 1.255 . S
O163 Fe155 1.997 . S
O163 C161 1.235 . S
C164 O170 1.287 . S
C164 O171 1.255 . S
O165 Fe154 1.976 . S
O165 C172 1.287 . S
O166 Fe155 1.996 . S
O166 C172 1.255 . S
O167 Fe157 1.976 . S
O167 C162 1.287 . S
O168 Fe154 1.996 . S
O168 C162 1.255 . S
C169 O173 1.295 . S
C169 O174 1.235 . S
O170 Fe155 1.976 . S
O170 C164 1.287 . S
O171 Fe157 1.996 . S
O171 C164 1.255 . S
C172 O165 1.287 . S
C172 O166 1.255 . S
O173 Fe155 2.002 . S
O173 C169 1.295 . S
O174 Fe157 1.997 . S
O174 C169 1.235 . S
C175 O158 1.295 . S
C175 O159 1.235 . S
Fe176 O178 1.918 . S
Fe176 O181 1.997 . S
Fe176 O182 2.002 . S
Fe176 O187 1.976 . S
Fe176 O190 1.996 . S
Fe177 O178 1.918 . S
Fe177 O185 1.997 . S
Fe177 O188 1.996 . S
Fe177 O192 1.976 . S
Fe177 O195 2.002 . S
O178 Fe176 1.918 . S
O178 Fe177 1.918 . S
O178 Fe179 1.918 . S
Fe179 O178 1.918 . S
Fe179 O180 2.002 . S
Fe179 O189 1.976 . S
Fe179 O193 1.996 . S
Fe179 O196 1.997 . S
O180 Fe179 2.002 . S
O180 C197 1.295 . S
O181 Fe176 1.997 . S
O181 C197 1.235 . S
O182 Fe176 2.002 . S
O182 C183 1.295 . S
C183 O182 1.295 . S
C183 O185 1.235 . S
C184 O189 1.287 . S
C184 O190 1.255 . S
O185 Fe177 1.997 . S
O185 C183 1.235 . S
C186 O192 1.287 . S
C186 O193 1.255 . S
O187 Fe176 1.976 . S
O187 C194 1.287 . S
O188 Fe177 1.996 . S
O188 C194 1.255 . S
O189 Fe179 1.976 . S
O189 C184 1.287 . S
O190 Fe176 1.996 . S
O190 C184 1.255 . S
C191 O195 1.295 . S
C191 O196 1.235 . S
O192 Fe177 1.976 . S
O192 C186 1.287 . S
O193 Fe179 1.996 . S
O193 C186 1.255 . S
C194 O187 1.287 . S
C194 O188 1.255 . S
O195 Fe177 2.002 . S
O195 C191 1.295 . S
O196 Fe179 1.997 . S
O196 C191 1.235 . S
C197 O180 1.295 . S
C197 O181 1.235 . S
Fe198 O200 1.918 . S
Fe198 O203 1.997 . S
Fe198 O204 2.002 . S
Fe198 O209 1.976 . S
Fe198 O212 1.996 . S
Fe199 O200 1.918 . S
Fe199 O207 1.997 . S
Fe199 O210 1.996 . S
Fe199 O214 1.976 . S
Fe199 O217 2.002 . S
O200 Fe198 1.918 . S
O200 Fe199 1.918 . S
O200 Fe201 1.918 . S
Fe201 O200 1.918 . S
Fe201 O202 2.002 . S
Fe201 O211 1.976 . S
Fe201 O215 1.996 . S
Fe201 O218 1.997 . S
O202 Fe201 2.002 . S
O202 C219 1.295 . S
O203 Fe198 1.997 . S
O203 C219 1.235 . S
O204 Fe198 2.002 . S
O204 C205 1.295 . S
C205 O204 1.295 . S
C205 O207 1.235 . S
C206 O211 1.287 . S
C206 O212 1.255 . S
O207 Fe199 1.997 . S
O207 C205 1.235 . S
C208 O214 1.287 . S
C208 O215 1.255 . S
O209 Fe198 1.976 . S
O209 C216 1.287 . S
O210 Fe199 1.996 . S
O210 C216 1.255 . S
O211 Fe201 1.976 . S
O211 C206 1.287 . S
O212 Fe198 1.996 . S
O212 C206 1.255 . S
C213 O217 1.295 . S
C213 O218 1.235 . S
O214 Fe199 1.976 . S
O214 C208 1.287 . S
O215 Fe201 1.996 . S
O215 C208 1.255 . S
C216 O209 1.287 . S
C216 O210 1.255 . S
O217 Fe199 2.002 . S
O217 C213 1.295 . S
O218 Fe201 1.997 . S
O218 C213 1.235 . S
C219 O202 1.295 . S
C219 O203 1.235 . S
Fe220 O222 1.918 . S
Fe220 O225 1.997 . S
Fe220 O226 2.002 . S
Fe220 O231 1.976 . S
Fe220 O234 1.996 . S
Fe221 O222 1.918 . S
Fe221 O229 1.997 . S
Fe221 O232 1.996 . S
Fe221 O236 1.976 . S
Fe221 O239 2.002 . S
O222 Fe220 1.918 . S
O222 Fe221 1.918 . S
O222 Fe223 1.918 . S
Fe223 O222 1.918 . S
Fe223 O224 2.002 . S
Fe223 O233 1.976 . S
Fe223 O237 1.996 . S
Fe223 O240 1.997 . S
O224 Fe223 2.002 . S
O224 C241 1.295 . S
O225 Fe220 1.997 . S
O225 C241 1.235 . S
O226 Fe220 2.002 . S
O226 C227 1.295 . S
C227 O226 1.295 . S
C227 O229 1.235 . S
C228 O233 1.287 . S
C228 O234 1.255 . S
O229 Fe221 1.997 . S
O229 C227 1.235 . S
C230 O236 1.287 . S
C230 O237 1.255 . S
O231 Fe220 1.976 . S
O231 C238 1.287 . S
O232 Fe221 1.996 . S
O232 C238 1.255 . S
O233 Fe223 1.976 . S
O233 C228 1.287 . S
O234 Fe220 1.996 . S
O234 C228 1.255 . S
C235 O239 1.295 . S
C235 O240 1.235 . S
O236 Fe221 1.976 . S
O236 C230 1.287 . S
O237 Fe223 1.996 . S
O237 C230 1.255 . S
C238 O231 1.287 . S
C238 O232 1.255 . S
O239 Fe221 2.002 . S
O239 C235 1.295 . S
O240 Fe223 1.997 . S
O240 C235 1.235 . S
C241 O224 1.295 . S
C241 O225 1.235 . S
Fe242 O244 1.918 . S
Fe242 O247 1.997 . S
Fe242 O248 2.002 . S
Fe242 O253 1.976 . S
Fe242 O256 1.996 . S
Fe243 O244 1.918 . S
Fe243 O251 1.997 . S
Fe243 O254 1.996 . S
Fe243 O258 1.976 . S
Fe243 O261 2.002 . S
O244 Fe242 1.918 . S
O244 Fe243 1.918 . S
O244 Fe245 1.918 . S
Fe245 O244 1.918 . S
Fe245 O246 2.002 . S
Fe245 O255 1.976 . S
Fe245 O259 1.996 . S
Fe245 O262 1.997 . S
O246 Fe245 2.002 . S
O246 C263 1.295 . S
O247 Fe242 1.997 . S
O247 C263 1.235 . S
O248 Fe242 2.002 . S
O248 C249 1.295 . S
C249 O248 1.295 . S
C249 O251 1.235 . S
C250 O255 1.287 . S
C250 O256 1.255 . S
O251 Fe243 1.997 . S
O251 C249 1.235 . S
C252 O258 1.287 . S
C252 O259 1.255 . S
O253 Fe242 1.976 . S
O253 C260 1.287 . S
O254 Fe243 1.996 . S
O254 C260 1.255 . S
O255 Fe245 1.976 . S
O255 C250 1.287 . S
O256 Fe242 1.996 . S
O256 C250 1.255 . S
C257 O261 1.295 . S
C257 O262 1.235 . S
O258 Fe243 1.976 . S
O258 C252 1.287 . S
O259 Fe245 1.996 . S
O259 C252 1.255 . S
C260 O253 1.287 . S
C260 O254 1.255 . S
O261 Fe243 2.002 . S
O261 C257 1.295 . S
O262 Fe245 1.997 . S
O262 C257 1.235 . S
C263 O246 1.295 . S
C263 O247 1.235 . S
Fe264 O266 1.918 . S
Fe264 O269 1.997 . S
Fe264 O270 2.002 . S
Fe264 O275 1.976 . S
Fe264 O278 1.996 . S
Fe265 O266 1.918 . S
Fe265 O273 1.997 . S
Fe265 O276 1.996 . S
Fe265 O280 1.976 . S
Fe265 O283 2.002 . S
O266 Fe264 1.918 . S
O266 Fe265 1.918 . S
O266 Fe267 1.918 . S
Fe267 O266 1.918 . S
Fe267 O268 2.002 . S
Fe267 O277 1.976 . S
Fe267 O281 1.996 . S
Fe267 O284 1.997 . S
O268 Fe267 2.002 . S
O268 C285 1.295 . S
O269 Fe264 1.997 . S
O269 C285 1.235 . S
O270 Fe264 2.002 . S
O270 C271 1.295 . S
C271 O270 1.295 . S
C271 O273 1.235 . S
C272 O277 1.287 . S
C272 O278 1.255 . S
O273 Fe265 1.997 . S
O273 C271 1.235 . S
C274 O280 1.287 . S
C274 O281 1.255 . S
O275 Fe264 1.976 . S
O275 C282 1.287 . S
O276 Fe265 1.996 . S
O276 C282 1.255 . S
O277 Fe267 1.976 . S
O277 C272 1.287 . S
O278 Fe264 1.996 . S
O278 C272 1.255 . S
C279 O283 1.295 . S
C279 O284 1.235 . S
O280 Fe265 1.976 . S
O280 C274 1.287 . S
O281 Fe267 1.996 . S
O281 C274 1.255 . S
C282 O275 1.287 . S
C282 O276 1.255 . S
O283 Fe265 2.002 . S
O283 C279 1.295 . S
O284 Fe267 1.997 . S
O284 C279 1.235 . S
C285 O268 1.295 . S
C285 O269 1.235 . S
Fe286 O288 1.918 . S
Fe286 O291 1.997 . S
Fe286 O292 2.002 . S
Fe286 O297 1.976 . S
Fe286 O300 1.996 . S
Fe287 O288 1.918 . S
Fe287 O295 1.997 . S
Fe287 O298 1.996 . S
Fe287 O302 1.976 . S
Fe287 O305 2.002 . S
O288 Fe286 1.918 . S
O288 Fe287 1.918 . S
O288 Fe289 1.918 . S
Fe289 O288 1.918 . S
Fe289 O290 2.002 . S
Fe289 O299 1.976 . S
Fe289 O303 1.996 . S
Fe289 O306 1.997 . S
O290 Fe289 2.002 . S
O290 C307 1.295 . S
O291 Fe286 1.997 . S
O291 C307 1.235 . S
O292 Fe286 2.002 . S
O292 C293 1.295 . S
C293 O292 1.295 . S
C293 O295 1.235 . S
C294 O299 1.287 . S
C294 O300 1.255 . S
O295 Fe287 1.997 . S
O295 C293 1.235 . S
C296 O302 1.287 . S
C296 O303 1.255 . S
O297 Fe286 1.976 . S
O297 C304 1.287 . S
O298 Fe287 1.996 . S
O298 C304 1.255 . S
O299 Fe289 1.976 . S
O299 C294 1.287 . S
O300 Fe286 1.996 . S
O300 C294 1.255 . S
C301 O305 1.295 . S
C301 O306 1.235 . S
O302 Fe287 1.976 . S
O302 C296 1.287 . S
O303 Fe289 1.996 . S
O303 C296 1.255 . S
C304 O297 1.287 . S
C304 O298 1.255 . S
O305 Fe287 2.002 . S
O305 C301 1.295 . S
O306 Fe289 1.997 . S
O306 C301 1.235 . S
C307 O290 1.295 . S
C307 O291 1.235 . S
Fe308 O310 1.918 . S
Fe308 O313 1.997 . S
Fe308 O314 2.002 . S
Fe308 O319 1.976 . S
Fe308 O322 1.996 . S
Fe309 O310 1.918 . S
Fe309 O317 1.997 . S
Fe309 O320 1.996 . S
Fe309 O324 1.976 . S
Fe309 O327 2.002 . S
O310 Fe308 1.918 . S
O310 Fe309 1.918 . S
O310 Fe311 1.918 . S
Fe311 O310 1.918 . S
Fe311 O312 2.002 . S
Fe311 O321 1.976 . S
Fe311 O325 1.996 . S
Fe311 O328 1.997 . S
O312 Fe311 2.002 . S
O312 C329 1.295 . S
O313 Fe308 1.997 . S
O313 C329 1.235 . S
O314 Fe308 2.002 . S
O314 C315 1.295 . S
C315 O314 1.295 . S
C315 O317 1.235 . S
C316 O321 1.287 . S
C316 O322 1.255 . S
O317 Fe309 1.997 . S
O317 C315 1.235 . S
C318 O324 1.287 . S
C318 O325 1.255 . S
O319 Fe308 1.976 . S
O319 C326 1.287 . S
O320 Fe309 1.996 . S
O320 C326 1.255 . S
O321 Fe311 1.976 . S
O321 C316 1.287 . S
O322 Fe308 1.996 . S
O322 C316 1.255 . S
C323 O327 1.295 . S
C323 O328 1.235 . S
O324 Fe309 1.976 . S
O324 C318 1.287 . S
O325 Fe311 1.996 . S
O325 C318 1.255 . S
C326 O319 1.287 . S
C326 O320 1.255 . S
O327 Fe309 2.002 . S
O327 C323 1.295 . S
O328 Fe311 1.997 . S
O328 C323 1.235 . S
C329 O312 1.295 . S
C329 O313 1.235 . S
Fe330 O332 1.918 . S
Fe330 O335 1.997 . S
Fe330 O336 2.002 . S
Fe330 O341 1.976 . S
Fe330 O344 1.996 . S
Fe331 O332 1.918 . S
Fe331 O339 1.997 . S
Fe331 O342 1.996 . S
Fe331 O346 1.976 . S
Fe331 O349 2.002 . S
O332 Fe330 1.918 . S
O332 Fe331 1.918 . S
O332 Fe333 1.918 . S
Fe333 O332 1.918 . S
Fe333 O334 2.002 . S
Fe333 O343 1.976 . S
Fe333 O347 1.996 . S
Fe333 O350 1.997 . S
O334 Fe333 2.002 . S
O334 C351 1.295 . S
O335 Fe330 1.997 . S
O335 C351 1.235 . S
O336 Fe330 2.002 . S
O336 C337 1.295 . S
C337 O336 1.295 . S
C337 O339 1.235 . S
C338 O343 1.287 . S
C338 O344 1.255 . S
O339 Fe331 1.997 . S
O339 C337 1.235 . S
C340 O346 1.287 . S
C340 O347 1.255 . S
O341 Fe330 1.976 . S
O341 C348 1.287 . S
O342 Fe331 1.996 . S
O342 C348 1.255 . S
O343 Fe333 1.976 . S
O343 C338 1.287 . S
O344 Fe330 1.996 . S
O344 C338 1.255 . S
C345 O349 1.295 . S
C345 O350 1.235 . S
O346 Fe331 1.976 . S
O346 C340 1.287 . S
O347 Fe333 1.996 . S
O347 C340 1.255 . S
C348 O341 1.287 . S
C348 O342 1.255 . S
O349 Fe331 2.002 . S
O349 C345 1.295 . S
O350 Fe333 1.997 . S
O350 C345 1.235 . S
C351 O334 1.295 . S
C351 O335 1.235 . S
Fe352 O354 1.918 . S
Fe352 O357 1.997 . S
Fe352 O358 2.002 . S
Fe352 O363 1.976 . S
Fe352 O366 1.996 . S
Fe353 O354 1.918 . S
Fe353 O361 1.997 . S
Fe353 O364 1.996 . S
Fe353 O368 1.976 . S
Fe353 O371 2.002 . S
O354 Fe352 1.918 . S
O354 Fe353 1.918 . S
O354 Fe355 1.918 . S
Fe355 O354 1.918 . S
Fe355 O356 2.002 . S
Fe355 O365 1.976 . S
Fe355 O369 1.996 . S
Fe355 O372 1.997 . S
O356 Fe355 2.002 . S
O356 C373 1.295 . S
O357 Fe352 1.997 . S
O357 C373 1.235 . S
O358 Fe352 2.002 . S
O358 C359 1.295 . S
C359 O358 1.295 . S
C359 O361 1.235 . S
C360 O365 1.287 . S
C360 O366 1.255 . S
O361 Fe353 1.997 . S
O361 C359 1.235 . S
C362 O368 1.287 . S
C362 O369 1.255 . S
O363 Fe352 1.976 . S
O363 C370 1.287 . S
O364 Fe353 1.996 . S
O364 C370 1.255 . S
O365 Fe355 1.976 . S
O365 C360 1.287 . S
O366 Fe352 1.996 . S
O366 C360 1.255 . S
C367 O371 1.295 . S
C367 O372 1.235 . S
O368 Fe353 1.976 . S
O368 C362 1.287 . S
O369 Fe355 1.996 . S
O369 C362 1.255 . S
C370 O363 1.287 . S
C370 O364 1.255 . S
O371 Fe353 2.002 . S
O371 C367 1.295 . S
O372 Fe355 1.997 . S
O372 C367 1.235 . S
C373 O356 1.295 . S
C373 O357 1.235 . S
Fe374 O376 1.918 . S
Fe374 O379 1.997 . S
Fe374 O380 2.002 . S
Fe374 O385 1.976 . S
Fe374 O388 1.996 . S
Fe375 O376 1.918 . S
Fe375 O383 1.997 . S
Fe375 O386 1.996 . S
Fe375 O390 1.976 . S
Fe375 O393 2.002 . S
O376 Fe374 1.918 . S
O376 Fe375 1.918 . S
O376 Fe377 1.918 . S
Fe377 O376 1.918 . S
Fe377 O378 2.002 . S
Fe377 O387 1.976 . S
Fe377 O391 1.996 . S
Fe377 O394 1.997 . S
O378 Fe377 2.002 . S
O378 C395 1.295 . S
O379 Fe374 1.997 . S
O379 C395 1.235 . S
O380 Fe374 2.002 . S
O380 C381 1.295 . S
C381 O380 1.295 . S
C381 O383 1.235 . S
C382 O387 1.287 . S
C382 O388 1.255 . S
O383 Fe375 1.997 . S
O383 C381 1.235 . S
C384 O390 1.287 . S
C384 O391 1.255 . S
O385 Fe374 1.976 . S
O385 C392 1.287 . S
O386 Fe375 1.996 . S
O386 C392 1.255 . S
O387 Fe377 1.976 . S
O387 C382 1.287 . S
O388 Fe374 1.996 . S
O388 C382 1.255 . S
C389 O393 1.295 . S
C389 O394 1.235 . S
O390 Fe375 1.976 . S
O390 C384 1.287 . S
O391 Fe377 1.996 . S
O391 C384 1.255 . S
C392 O385 1.287 . S
C392 O386 1.255 . S
O393 Fe375 2.002 . S
O393 C389 1.295 . S
O394 Fe377 1.997 . S
O394 C389 1.235 . S
C395 O378 1.295 . S
C395 O379 1.235 . S
Fe396 O398 1.918 . S
Fe396 O401 1.997 . S
Fe396 O402 2.002 . S
Fe396 O407 1.976 . S
Fe396 O410 1.996 . S
Fe397 O398 1.918 . S
Fe397 O405 1.997 . S
Fe397 O408 1.996 . S
Fe397 O412 1.976 . S
Fe397 O415 2.002 . S
O398 Fe396 1.918 . S
O398 Fe397 1.918 . S
O398 Fe399 1.918 . S
Fe399 O398 1.918 . S
Fe399 O400 2.002 . S
Fe399 O409 1.976 . S
Fe399 O413 1.996 . S
Fe399 O416 1.997 . S
O400 Fe399 2.002 . S
O400 C417 1.295 . S
O401 Fe396 1.997 . S
O401 C417 1.235 . S
O402 Fe396 2.002 . S
O402 C403 1.295 . S
C403 O402 1.295 . S
C403 O405 1.235 . S
C404 O409 1.287 . S
C404 O410 1.255 . S
O405 Fe397 1.997 . S
O405 C403 1.235 . S
C406 O412 1.287 . S
C406 O413 1.255 . S
O407 Fe396 1.976 . S
O407 C414 1.287 . S
O408 Fe397 1.996 . S
O408 C414 1.255 . S
O409 Fe399 1.976 . S
O409 C404 1.287 . S
O410 Fe396 1.996 . S
O410 C404 1.255 . S
C411 O415 1.295 . S
C411 O416 1.235 . S
O412 Fe397 1.976 . S
O412 C406 1.287 . S
O413 Fe399 1.996 . S
O413 C406 1.255 . S
C414 O407 1.287 . S
C414 O408 1.255 . S
O415 Fe397 2.002 . S
O415 C411 1.295 . S
O416 Fe399 1.997 . S
O416 C411 1.235 . S
C417 O400 1.295 . S
C417 O401 1.235 . S
Fe418 O420 1.918 . S
Fe418 O423 1.997 . S
Fe418 O424 2.002 . S
Fe418 O429 1.976 . S
Fe418 O432 1.996 . S
Fe419 O420 1.918 . S
Fe419 O427 1.997 . S
Fe419 O430 1.996 . S
Fe419 O434 1.976 . S
Fe419 O437 2.002 . S
O420 Fe418 1.918 . S
O420 Fe419 1.918 . S
O420 Fe421 1.918 . S
Fe421 O420 1.918 . S
Fe421 O422 2.002 . S
Fe421 O431 1.976 . S
Fe421 O435 1.996 . S
Fe421 O438 1.997 . S
O422 Fe421 2.002 . S
O422 C439 1.295 . S
O423 Fe418 1.997 . S
O423 C439 1.235 . S
O424 Fe418 2.002 . S
O424 C425 1.295 . S
C425 O424 1.295 . S
C425 O427 1.235 . S
C426 O431 1.287 . S
C426 O432 1.255 . S
O427 Fe419 1.997 . S
O427 C425 1.235 . S
C428 O434 1.287 . S
C428 O435 1.255 . S
O429 Fe418 1.976 . S
O429 C436 1.287 . S
O430 Fe419 1.996 . S
O430 C436 1.255 . S
O431 Fe421 1.976 . S
O431 C426 1.287 . S
O432 Fe418 1.996 . S
O432 C426 1.255 . S
C433 O437 1.295 . S
C433 O438 1.235 . S
O434 Fe419 1.976 . S
O434 C428 1.287 . S
O435 Fe421 1.996 . S
O435 C428 1.255 . S
C436 O429 1.287 . S
C436 O430 1.255 . S
O437 Fe419 2.002 . S
O437 C433 1.295 . S
O438 Fe421 1.997 . S
O438 C433 1.235 . S
C439 O422 1.295 . S
C439 O423 1.235 . S
Fe440 O442 1.918 . S
Fe440 O445 1.997 . S
Fe440 O446 2.002 . S
Fe440 O451 1.976 . S
Fe440 O454 1.996 . S
Fe441 O442 1.918 . S
Fe441 O449 1.997 . S
Fe441 O452 1.996 . S
Fe441 O456 1.976 . S
Fe441 O459 2.002 . S
O442 Fe440 1.918 . S
O442 Fe441 1.918 . S
O442 Fe443 1.918 . S
Fe443 O442 1.918 . S
Fe443 O444 2.002 . S
Fe443 O453 1.976 . S
Fe443 O457 1.996 . S
Fe443 O460 1.997 . S
O444 Fe443 2.002 . S
O444 C461 1.295 . S
O445 Fe440 1.997 . S
O445 C461 1.235 . S
O446 Fe440 2.002 . S
O446 C447 1.295 . S
C447 O446 1.295 . S
C447 O449 1.235 . S
C448 O453 1.287 . S
C448 O454 1.255 . S
O449 Fe441 1.997 . S
O449 C447 1.235 . S
C450 O456 1.287 . S
C450 O457 1.255 . S
O451 Fe440 1.976 . S
O451 C458 1.287 . S
O452 Fe441 1.996 . S
O452 C458 1.255 . S
O453 Fe443 1.976 . S
O453 C448 1.287 . S
O454 Fe440 1.996 . S
O454 C448 1.255 . S
C455 O459 1.295 . S
C455 O460 1.235 . S
O456 Fe441 1.976 . S
O456 C450 1.287 . S
O457 Fe443 1.996 . S
O457 C450 1.255 . S
C458 O451 1.287 . S
C458 O452 1.255 . S
O459 Fe441 2.002 . S
O459 C455 1.295 . S
O460 Fe443 1.997 . S
O460 C455 1.235 . S
C461 O444 1.295 . S
C461 O445 1.235 . S
Fe462 O464 1.918 . S
Fe462 O467 1.997 . S
Fe462 O468 2.002 . S
Fe462 O473 1.976 . S
Fe462 O476 1.996 . S
Fe463 O464 1.918 . S
Fe463 O471 1.997 . S
Fe463 O474 1.996 . S
Fe463 O478 1.976 . S
Fe463 O481 2.002 . S
O464 Fe462 1.918 . S
O464 Fe463 1.918 . S
O464 Fe465 1.918 . S
Fe465 O464 1.918 . S
Fe465 O466 2.002 . S
Fe465 O475 1.976 . S
Fe465 O479 1.996 . S
Fe465 O482 1.997 . S
O466 Fe465 2.002 . S
O466 C483 1.295 . S
O467 Fe462 1.997 . S
O467 C483 1.235 . S
O468 Fe462 2.002 . S
O468 C469 1.295 . S
C469 O468 1.295 . S
C469 O471 1.235 . S
C470 O475 1.287 . S
C470 O476 1.255 . S
O471 Fe463 1.997 . S
O471 C469 1.235 . S
C472 O478 1.287 . S
C472 O479 1.255 . S
O473 Fe462 1.976 . S
O473 C480 1.287 . S
O474 Fe463 1.996 . S
O474 C480 1.255 . S
O475 Fe465 1.976 . S
O475 C470 1.287 . S
O476 Fe462 1.996 . S
O476 C470 1.255 . S
C477 O481 1.295 . S
C477 O482 1.235 . S
O478 Fe463 1.976 . S
O478 C472 1.287 . S
O479 Fe465 1.996 . S
O479 C472 1.255 . S
C480 O473 1.287 . S
C480 O474 1.255 . S
O481 Fe463 2.002 . S
O481 C477 1.295 . S
O482 Fe465 1.997 . S
O482 C477 1.235 . S
C483 O466 1.295 . S
C483 O467 1.235 . S
Fe484 O486 1.918 . S
Fe484 O489 1.997 . S
Fe484 O490 2.002 . S
Fe484 O495 1.976 . S
Fe484 O498 1.996 . S
Fe485 O486 1.918 . S
Fe485 O493 1.997 . S
Fe485 O496 1.996 . S
Fe485 O500 1.976 . S
Fe485 O503 2.002 . S
O486 Fe484 1.918 . S
O486 Fe485 1.918 . S
O486 Fe487 1.918 . S
Fe487 O486 1.918 . S
Fe487 O488 2.002 . S
Fe487 O497 1.976 . S
Fe487 O501 1.996 . S
Fe487 O504 1.997 . S
O488 Fe487 2.002 . S
O488 C505 1.295 . S
O489 Fe484 1.997 . S
O489 C505 1.235 . S
O490 Fe484 2.002 . S
O490 C491 1.295 . S
C491 O490 1.295 . S
C491 O493 1.235 . S
C492 O497 1.287 . S
C492 O498 1.255 . S
O493 Fe485 1.997 . S
O493 C491 1.235 . S
C494 O500 1.287 . S
C494 O501 1.255 . S
O495 Fe484 1.976 . S
O495 C502 1.287 . S
O496 Fe485 1.996 . S
O496 C502 1.255 . S
O497 Fe487 1.976 . S
O497 C492 1.287 . S
O498 Fe484 1.996 . S
O498 C492 1.255 . S
C499 O503 1.295 . S
C499 O504 1.235 . S
O500 Fe485 1.976 . S
O500 C494 1.287 . S
O501 Fe487 1.996 . S
O501 C494 1.255 . S
C502 O495 1.287 . S
C502 O496 1.255 . S
O503 Fe485 2.002 . S
O503 C499 1.295 . S
O504 Fe487 1.997 . S
O504 C499 1.235 . S
C505 O488 1.295 . S
C505 O489 1.235 . S
Fe506 O508 1.918 . S
Fe506 O511 1.997 . S
Fe506 O512 2.002 . S
Fe506 O517 1.976 . S
Fe506 O520 1.996 . S
Fe507 O508 1.918 . S
Fe507 O515 1.997 . S
Fe507 O518 1.996 . S
Fe507 O522 1.976 . S
Fe507 O525 2.002 . S
O508 Fe506 1.918 . S
O508 Fe507 1.918 . S
O508 Fe509 1.918 . S
Fe509 O508 1.918 . S
Fe509 O510 2.002 . S
Fe509 O519 1.976 . S
Fe509 O523 1.996 . S
Fe509 O526 1.997 . S
O510 Fe509 2.002 . S
O510 C527 1.295 . S
O511 Fe506 1.997 . S
O511 C527 1.235 . S
O512 Fe506 2.002 . S
O512 C513 1.295 . S
C513 O512 1.295 . S
C513 O515 1.235 . S
C514 O519 1.287 . S
C514 O520 1.255 . S
O515 Fe507 1.997 . S
O515 C513 1.235 . S
C516 O522 1.287 . S
C516 O523 1.255 . S
O517 Fe506 1.976 . S
O517 C524 1.287 . S
O518 Fe507 1.996 . S
O518 C524 1.255 . S
O519 Fe509 1.976 . S
O519 C514 1.287 . S
O520 Fe506 1.996 . S
O520 C514 1.255 . S
C521 O525 1.295 . S
C521 O526 1.235 . S
O522 Fe507 1.976 . S
O522 C516 1.287 . S
O523 Fe509 1.996 . S
O523 C516 1.255 . S
C524 O517 1.287 . S
C524 O518 1.255 . S
O525 Fe507 2.002 . S
O525 C521 1.295 . S
O526 Fe509 1.997 . S
O526 C521 1.235 . S
C527 O510 1.295 . S
C527 O511 1.235 . S
Fe528 O530 1.918 . S
Fe528 O533 1.997 . S
Fe528 O534 2.002 . S
Fe528 O539 1.976 . S
Fe528 O542 1.996 . S
Fe529 O530 1.918 . S
Fe529 O537 1.997 . S
Fe529 O540 1.996 . S
Fe529 O544 1.976 . S
Fe529 O547 2.002 . S
O530 Fe528 1.918 . S
O530 Fe529 1.918 . S
O530 Fe531 1.918 . S
Fe531 O530 1.918 . S
Fe531 O532 2.002 . S
Fe531 O541 1.976 . S
Fe531 O545 1.996 . S
Fe531 O548 1.997 . S
O532 Fe531 2.002 . S
O532 C549 1.295 . S
O533 Fe528 1.997 . S
O533 C549 1.235 . S
O534 Fe528 2.002 . S
O534 C535 1.295 . S
C535 O534 1.295 . S
C535 O537 1.235 . S
C536 O541 1.287 . S
C536 O542 1.255 . S
O537 Fe529 1.997 . S
O537 C535 1.235 . S
C538 O544 1.287 . S
C538 O545 1.255 . S
O539 Fe528 1.976 . S
O539 C546 1.287 . S
O540 Fe529 1.996 . S
O540 C546 1.255 . S
O541 Fe531 1.976 . S
O541 C536 1.287 . S
O542 Fe528 1.996 . S
O542 C536 1.255 . S
C543 O547 1.295 . S
C543 O548 1.235 . S
O544 Fe529 1.976 . S
O544 C538 1.287 . S
O545 Fe531 1.996 . S
O545 C538 1.255 . S
C546 O539 1.287 . S
C546 O540 1.255 . S
O547 Fe529 2.002 . S
O547 C543 1.295 . S
O548 Fe531 1.997 . S
O548 C543 1.235 . S
C549 O532 1.295 . S
C549 O533 1.235 . S
Fe550 O552 1.918 . S
Fe550 O555 1.997 . S
Fe550 O556 2.002 . S
Fe550 O561 1.976 . S
Fe550 O564 1.996 . S
Fe551 O552 1.918 . S
Fe551 O559 1.997 . S
Fe551 O562 1.996 . S
Fe551 O566 1.976 . S
Fe551 O569 2.002 . S
O552 Fe550 1.918 . S
O552 Fe551 1.918 . S
O552 Fe553 1.918 . S
Fe553 O552 1.918 . S
Fe553 O554 2.002 . S
Fe553 O563 1.976 . S
Fe553 O567 1.996 . S
Fe553 O570 1.997 . S
O554 Fe553 2.002 . S
O554 C571 1.295 . S
O555 Fe550 1.997 . S
O555 C571 1.235 . S
O556 Fe550 2.002 . S
O556 C557 1.295 . S
C557 O556 1.295 . S
C557 O559 1.235 . S
C558 O563 1.287 . S
C558 O564 1.255 . S
O559 Fe551 1.997 . S
O559 C557 1.235 . S
C560 O566 1.287 . S
C560 O567 1.255 . S
O561 Fe550 1.976 . S
O561 C568 1.287 . S
O562 Fe551 1.996 . S
O562 C568 1.255 . S
O563 Fe553 1.976 . S
O563 C558 1.287 . S
O564 Fe550 1.996 . S
O564 C558 1.255 . S
C565 O569 1.295 . S
C565 O570 1.235 . S
O566 Fe551 1.976 . S
O566 C560 1.287 . S
O567 Fe553 1.996 . S
O567 C560 1.255 . S
C568 O561 1.287 . S
C568 O562 1.255 . S
O569 Fe551 2.002 . S
O569 C565 1.295 . S
O570 Fe553 1.997 . S
O570 C565 1.235 . S
C571 O554 1.295 . S
C571 O555 1.235 . S
Fe572 O574 1.918 . S
Fe572 O577 1.997 . S
Fe572 O578 2.002 . S
Fe572 O583 1.976 . S
Fe572 O586 1.996 . S
Fe573 O574 1.918 . S
Fe573 O581 1.997 . S
Fe573 O584 1.996 . S
Fe573 O588 1.976 . S
Fe573 O591 2.002 . S
O574 Fe572 1.918 . S
O574 Fe573 1.918 . S
O574 Fe575 1.918 . S
Fe575 O574 1.918 . S
Fe575 O576 2.002 . S
Fe575 O585 1.976 . S
Fe575 O589 1.996 . S
Fe575 O592 1.997 . S
O576 Fe575 2.002 . S
O576 C593 1.295 . S
O577 Fe572 1.997 . S
O577 C593 1.235 . S
O578 Fe572 2.002 . S
O578 C579 1.295 . S
C579 O578 1.295 . S
C579 O581 1.235 . S
C580 O585 1.287 . S
C580 O586 1.255 . S
O581 Fe573 1.997 . S
O581 C579 1.235 . S
C582 O588 1.287 . S
C582 O589 1.255 . S
O583 Fe572 1.976 . S
O583 C590 1.287 . S
O584 Fe573 1.996 . S
O584 C590 1.255 . S
O585 Fe575 1.976 . S
O585 C580 1.287 . S
O586 Fe572 1.996 . S
O586 C580 1.255 . S
C587 O591 1.295 . S
C587 O592 1.235 . S
O588 Fe573 1.976 . S
O588 C582 1.287 . S
O589 Fe575 1.996 . S
O589 C582 1.255 . S
C590 O583 1.287 . S
C590 O584 1.255 . S
O591 Fe573 2.002 . S
O591 C587 1.295 . S
O592 Fe575 1.997 . S
O592 C587 1.235 . S
C593 O576 1.295 . S
C593 O577 1.235 . S
Fe594 O596 1.918 . S
Fe594 O599 1.997 . S
Fe594 O600 2.002 . S
Fe594 O605 1.976 . S
Fe594 O608 1.996 . S
Fe595 O596 1.918 . S
Fe595 O603 1.997 . S
Fe595 O606 1.996 . S
Fe595 O610 1.976 . S
Fe595 O613 2.002 . S
O596 Fe594 1.918 . S
O596 Fe595 1.918 . S
O596 Fe597 1.918 . S
Fe597 O596 1.918 . S
Fe597 O598 2.002 . S
Fe597 O607 1.976 . S
Fe597 O611 1.996 . S
Fe597 O614 1.997 . S
O598 Fe597 2.002 . S
O598 C615 1.295 . S
O599 Fe594 1.997 . S
O599 C615 1.235 . S
O600 Fe594 2.002 . S
O600 C601 1.295 . S
C601 O600 1.295 . S
C601 O603 1.235 . S
C602 O607 1.287 . S
C602 O608 1.255 . S
O603 Fe595 1.997 . S
O603 C601 1.235 . S
C604 O610 1.287 . S
C604 O611 1.255 . S
O605 Fe594 1.976 . S
O605 C612 1.287 . S
O606 Fe595 1.996 . S
O606 C612 1.255 . S
O607 Fe597 1.976 . S
O607 C602 1.287 . S
O608 Fe594 1.996 . S
O608 C602 1.255 . S
C609 O613 1.295 . S
C609 O614 1.235 . S
O610 Fe595 1.976 . S
O610 C604 1.287 . S
O611 Fe597 1.996 . S
O611 C604 1.255 . S
C612 O605 1.287 . S
C612 O606 1.255 . S
O613 Fe595 2.002 . S
O613 C609 1.295 . S
O614 Fe597 1.997 . S
O614 C609 1.235 . S
C615 O598 1.295 . S
C615 O599 1.235 . S
Fe616 O618 1.918 . S
Fe616 O621 1.997 . S
Fe616 O622 2.002 . S
Fe616 O627 1.976 . S
Fe616 O630 1.996 . S
Fe617 O618 1.918 . S
Fe617 O625 1.997 . S
Fe617 O628 1.996 . S
Fe617 O632 1.976 . S
Fe617 O635 2.002 . S
O618 Fe616 1.918 . S
O618 Fe617 1.918 . S
O618 Fe619 1.918 . S
Fe619 O618 1.918 . S
Fe619 O620 2.002 . S
Fe619 O629 1.976 . S
Fe619 O633 1.996 . S
Fe619 O636 1.997 . S
O620 Fe619 2.002 . S
O620 C637 1.295 . S
O621 Fe616 1.997 . S
O621 C637 1.235 . S
O622 Fe616 2.002 . S
O622 C623 1.295 . S
C623 O622 1.295 . S
C623 O625 1.235 . S
C624 O629 1.287 . S
C624 O630 1.255 . S
O625 Fe617 1.997 . S
O625 C623 1.235 . S
C626 O632 1.287 . S
C626 O633 1.255 . S
O627 Fe616 1.976 . S
O627 C634 1.287 . S
O628 Fe617 1.996 . S
O628 C634 1.255 . S
O629 Fe619 1.976 . S
O629 C624 1.287 . S
O630 Fe616 1.996 . S
O630 C624 1.255 . S
C631 O635 1.295 . S
C631 O636 1.235 . S
O632 Fe617 1.976 . S
O632 C626 1.287 . S
O633 Fe619 1.996 . S
O633 C626 1.255 . S
C634 O627 1.287 . S
C634 O628 1.255 . S
O635 Fe617 2.002 . S
O635 C631 1.295 . S
O636 Fe619 1.997 . S
O636 C631 1.235 . S
C637 O620 1.295 . S
C637 O621 1.235 . S
Fe638 O640 1.918 . S
Fe638 O643 1.997 . S
Fe638 O644 2.002 . S
Fe638 O649 1.976 . S
Fe638 O652 1.996 . S
Fe639 O640 1.918 . S
Fe639 O647 1.997 . S
Fe639 O650 1.996 . S
Fe639 O654 1.976 . S
Fe639 O657 2.002 . S
O640 Fe638 1.918 . S
O640 Fe639 1.918 . S
O640 Fe641 1.918 . S
Fe641 O640 1.918 . S
Fe641 O642 2.002 . S
Fe641 O651 1.976 . S
Fe641 O655 1.996 . S
Fe641 O658 1.997 . S
O642 Fe641 2.002 . S
O642 C659 1.295 . S
O643 Fe638 1.997 . S
O643 C659 1.235 . S
O644 Fe638 2.002 . S
O644 C645 1.295 . S
C645 O644 1.295 . S
C645 O647 1.235 . S
C646 O651 1.287 . S
C646 O652 1.255 . S
O647 Fe639 1.997 . S
O647 C645 1.235 . S
C648 O654 1.287 . S
C648 O655 1.255 . S
O649 Fe638 1.976 . S
O649 C656 1.287 . S
O650 Fe639 1.996 . S
O650 C656 1.255 . S
O651 Fe641 1.976 . S
O651 C646 1.287 . S
O652 Fe638 1.996 . S
O652 C646 1.255 . S
C653 O657 1.295 . S
C653 O658 1.235 . S
O654 Fe639 1.976 . S
O654 C648 1.287 . S
O655 Fe641 1.996 . S
O655 C648 1.255 . S
C656 O649 1.287 . S
C656 O650 1.255 . S
O657 Fe639 2.002 . S
O657 C653 1.295 . S
O658 Fe641 1.997 . S
O658 C653 1.235 . S
C659 O642 1.295 . S
C659 O643 1.235 . S
Fe660 O662 1.918 . S
Fe660 O665 1.997 . S
Fe660 O666 2.002 . S
Fe660 O671 1.976 . S
Fe660 O674 1.996 . S
Fe661 O662 1.918 . S
Fe661 O669 1.997 . S
Fe661 O672 1.996 . S
Fe661 O676 1.976 . S
Fe661 O679 2.002 . S
O662 Fe660 1.918 . S
O662 Fe661 1.918 . S
O662 Fe663 1.918 . S
Fe663 O662 1.918 . S
Fe663 O664 2.002 . S
Fe663 O673 1.976 . S
Fe663 O677 1.996 . S
Fe663 O680 1.997 . S
O664 Fe663 2.002 . S
O664 C681 1.295 . S
O665 Fe660 1.997 . S
O665 C681 1.235 . S
O666 Fe660 2.002 . S
O666 C667 1.295 . S
C667 O666 1.295 . S
C667 O669 1.235 . S
C668 O673 1.287 . S
C668 O674 1.255 . S
O669 Fe661 1.997 . S
O669 C667 1.235 . S
C670 O676 1.287 . S
C670 O677 1.255 . S
O671 Fe660 1.976 . S
O671 C678 1.287 . S
O672 Fe661 1.996 . S
O672 C678 1.255 . S
O673 Fe663 1.976 . S
O673 C668 1.287 . S
O674 Fe660 1.996 . S
O674 C668 1.255 . S
C675 O679 1.295 . S
C675 O680 1.235 . S
O676 Fe661 1.976 . S
O676 C670 1.287 . S
O677 Fe663 1.996 . S
O677 C670 1.255 . S
C678 O671 1.287 . S
C678 O672 1.255 . S
O679 Fe661 2.002 . S
O679 C675 1.295 . S
O680 Fe663 1.997 . S
O680 C675 1.235 . S
C681 O664 1.295 . S
C681 O665 1.235 . S
Fe682 O684 1.918 . S
Fe682 O687 1.997 . S
Fe682 O688 2.002 . S
Fe682 O693 1.976 . S
Fe682 O696 1.996 . S
Fe683 O684 1.918 . S
Fe683 O691 1.997 . S
Fe683 O694 1.996 . S
Fe683 O698 1.976 . S
Fe683 O701 2.002 . S
O684 Fe682 1.918 . S
O684 Fe683 1.918 . S
O684 Fe685 1.918 . S
Fe685 O684 1.918 . S
Fe685 O686 2.002 . S
Fe685 O695 1.976 . S
Fe685 O699 1.996 . S
Fe685 O702 1.997 . S
O686 Fe685 2.002 . S
O686 C703 1.295 . S
O687 Fe682 1.997 . S
O687 C703 1.235 . S
O688 Fe682 2.002 . S
O688 C689 1.295 . S
C689 O688 1.295 . S
C689 O691 1.235 . S
C690 O695 1.287 . S
C690 O696 1.255 . S
O691 Fe683 1.997 . S
O691 C689 1.235 . S
C692 O698 1.287 . S
C692 O699 1.255 . S
O693 Fe682 1.976 . S
O693 C700 1.287 . S
O694 Fe683 1.996 . S
O694 C700 1.255 . S
O695 Fe685 1.976 . S
O695 C690 1.287 . S
O696 Fe682 1.996 . S
O696 C690 1.255 . S
C697 O701 1.295 . S
C697 O702 1.235 . S
O698 Fe683 1.976 . S
O698 C692 1.287 . S
O699 Fe685 1.996 . S
O699 C692 1.255 . S
C700 O693 1.287 . S
C700 O694 1.255 . S
O701 Fe683 2.002 . S
O701 C697 1.295 . S
O702 Fe685 1.997 . S
O702 C697 1.235 . S
C703 O686 1.295 . S
C703 O687 1.235 . S
H704 C710 0.930 . S
H705 C714 0.930 . S
H706 C719 0.929 . S
H707 C717 0.929 . S
H708 C712 0.929 . S
H709 C718 0.929 . S
C710 H704 0.930 . S
C710 C711 1.367 . S
C710 C718 1.378 . S
C711 C710 1.367 . S
C711 C719 1.433 . S
C712 H708 0.929 . S
C712 C714 1.378 . S
C712 C716 1.350 . S
C713 C716 1.463 . S
C713 C718 1.350 . S
C713 N721 1.427 . S
C714 H705 0.930 . S
C714 C712 1.378 . S
C714 C715 1.367 . S
C715 C714 1.367 . S
C715 C717 1.433 . S
C716 C712 1.350 . S
C716 C713 1.463 . S
C716 N720 1.427 . S
C717 H707 0.929 . S
C717 C715 1.433 . S
C717 N720 1.384 . S
C718 H709 0.929 . S
C718 C710 1.378 . S
C718 C713 1.350 . S
C719 H706 0.929 . S
C719 C711 1.433 . S
C719 N721 1.384 . S
N720 C716 1.427 . S
N720 C717 1.384 . S
N721 C713 1.427 . S
N721 C719 1.384 . S
H722 C728 0.930 . S
H723 C732 0.930 . S
H724 C737 0.929 . S
H725 C735 0.929 . S
H726 C730 0.929 . S
H727 C736 0.929 . S
C728 H722 0.930 . S
C728 C729 1.367 . S
C728 C736 1.378 . S
C729 C728 1.367 . S
C729 C737 1.433 . S
C730 H726 0.929 . S
C730 C732 1.378 . S
C730 C734 1.350 . S
C731 C734 1.463 . S
C731 C736 1.350 . S
C731 N739 1.427 . S
C732 H723 0.930 . S
C732 C730 1.378 . S
C732 C733 1.367 . S
C733 C732 1.367 . S
C733 C735 1.433 . S
C734 C730 1.350 . S
C734 C731 1.463 . S
C734 N738 1.427 . S
C735 H725 0.929 . S
C735 C733 1.433 . S
C735 N738 1.384 . S
C736 H727 0.929 . S
C736 C728 1.378 . S
C736 C731 1.350 . S
C737 H724 0.929 . S
C737 C729 1.433 . S
C737 N739 1.384 . S
N738 C734 1.427 . S
N738 C735 1.384 . S
N739 C731 1.427 . S
N739 C737 1.384 . S
H740 C746 0.930 . S
H741 C750 0.930 . S
H742 C755 0.929 . S
H743 C753 0.929 . S
H744 C748 0.929 . S
H745 C754 0.929 . S
C746 H740 0.930 . S
C746 C747 1.367 . S
C746 C754 1.378 . S
C747 C746 1.367 . S
C747 C755 1.433 . S
C748 H744 0.929 . S
C748 C750 1.378 . S
C748 C752 1.350 . S
C749 C752 1.463 . S
C749 C754 1.350 . S
C749 N757 1.427 . S
C750 H741 0.930 . S
C750 C748 1.378 . S
C750 C751 1.367 . S
C751 C750 1.367 . S
C751 C753 1.433 . S
C752 C748 1.350 . S
C752 C749 1.463 . S
C752 N756 1.427 . S
C753 H743 0.929 . S
C753 C751 1.433 . S
C753 N756 1.384 . S
C754 H745 0.929 . S
C754 C746 1.378 . S
C754 C749 1.350 . S
C755 H742 0.929 . S
C755 C747 1.433 . S
C755 N757 1.384 . S
N756 C752 1.427 . S
N756 C753 1.384 . S
N757 C749 1.427 . S
N757 C755 1.384 . S
H758 C764 0.930 . S
H759 C768 0.930 . S
H760 C773 0.929 . S
H761 C771 0.929 . S
H762 C766 0.929 . S
H763 C772 0.929 . S
C764 H758 0.930 . S
C764 C765 1.367 . S
C764 C772 1.378 . S
C765 C764 1.367 . S
C765 C773 1.433 . S
C766 H762 0.929 . S
C766 C768 1.378 . S
C766 C770 1.350 . S
C767 C770 1.463 . S
C767 C772 1.350 . S
C767 N775 1.427 . S
C768 H759 0.930 . S
C768 C766 1.378 . S
C768 C769 1.367 . S
C769 C768 1.367 . S
C769 C771 1.433 . S
C770 C766 1.350 . S
C770 C767 1.463 . S
C770 N774 1.427 . S
C771 H761 0.929 . S
C771 C769 1.433 . S
C771 N774 1.384 . S
C772 H763 0.929 . S
C772 C764 1.378 . S
C772 C767 1.350 . S
C773 H760 0.929 . S
C773 C765 1.433 . S
C773 N775 1.384 . S
N774 C770 1.427 . S
N774 C771 1.384 . S
N775 C767 1.427 . S
N775 C773 1.384 . S
H776 C782 0.930 . S
H777 C786 0.930 . S
H778 C791 0.929 . S
H779 C789 0.929 . S
H780 C784 0.929 . S
H781 C790 0.929 . S
C782 H776 0.930 . S
C782 C783 1.367 . S
C782 C790 1.378 . S
C783 C782 1.367 . S
C783 C791 1.433 . S
C784 H780 0.929 . S
C784 C786 1.378 . S
C784 C788 1.350 . S
C785 C788 1.463 . S
C785 C790 1.350 . S
C785 N793 1.427 . S
C786 H777 0.930 . S
C786 C784 1.378 . S
C786 C787 1.367 . S
C787 C786 1.367 . S
C787 C789 1.433 . S
C788 C784 1.350 . S
C788 C785 1.463 . S
C788 N792 1.427 . S
C789 H779 0.929 . S
C789 C787 1.433 . S
C789 N792 1.384 . S
C790 H781 0.929 . S
C790 C782 1.378 . S
C790 C785 1.350 . S
C791 H778 0.929 . S
C791 C783 1.433 . S
C791 N793 1.384 . S
N792 C788 1.427 . S
N792 C789 1.384 . S
N793 C785 1.427 . S
N793 C791 1.384 . S
H794 C800 0.930 . S
H795 C804 0.930 . S
H796 C809 0.929 . S
H797 C807 0.929 . S
H798 C802 0.929 . S
H799 C808 0.929 . S
C800 H794 0.930 . S
C800 C801 1.367 . S
C800 C808 1.378 . S
C801 C800 1.367 . S
C801 C809 1.433 . S
C802 H798 0.929 . S
C802 C804 1.378 . S
C802 C806 1.350 . S
C803 C806 1.463 . S
C803 C808 1.350 . S
C803 N811 1.427 . S
C804 H795 0.930 . S
C804 C802 1.378 . S
C804 C805 1.367 . S
C805 C804 1.367 . S
C805 C807 1.433 . S
C806 C802 1.350 . S
C806 C803 1.463 . S
C806 N810 1.427 . S
C807 H797 0.929 . S
C807 C805 1.433 . S
C807 N810 1.384 . S
C808 H799 0.929 . S
C808 C800 1.378 . S
C808 C803 1.350 . S
C809 H796 0.929 . S
C809 C801 1.433 . S
C809 N811 1.384 . S
N810 C806 1.427 . S
N810 C807 1.384 . S
N811 C803 1.427 . S
N811 C809 1.384 . S
H812 C818 0.930 . S
H813 C822 0.930 . S
H814 C827 0.929 . S
H815 C825 0.929 . S
H816 C820 0.929 . S
H817 C826 0.929 . S
C818 H812 0.930 . S
C818 C819 1.367 . S
C818 C826 1.378 . S
C819 C818 1.367 . S
C819 C827 1.433 . S
C820 H816 0.929 . S
C820 C822 1.378 . S
C820 C824 1.350 . S
C821 C824 1.463 . S
C821 C826 1.350 . S
C821 N829 1.427 . S
C822 H813 0.930 . S
C822 C820 1.378 . S
C822 C823 1.367 . S
C823 C822 1.367 . S
C823 C825 1.433 . S
C824 C820 1.350 . S
C824 C821 1.463 . S
C824 N828 1.427 . S
C825 H815 0.929 . S
C825 C823 1.433 . S
C825 N828 1.384 . S
C826 H817 0.929 . S
C826 C818 1.378 . S
C826 C821 1.350 . S
C827 H814 0.929 . S
C827 C819 1.433 . S
C827 N829 1.384 . S
N828 C824 1.427 . S
N828 C825 1.384 . S
N829 C821 1.427 . S
N829 C827 1.384 . S
H830 C836 0.930 . S
H831 C840 0.930 . S
H832 C845 0.929 . S
H833 C843 0.929 . S
H834 C838 0.929 . S
H835 C844 0.929 . S
C836 H830 0.930 . S
C836 C837 1.367 . S
C836 C844 1.378 . S
C837 C836 1.367 . S
C837 C845 1.433 . S
C838 H834 0.929 . S
C838 C840 1.378 . S
C838 C842 1.350 . S
C839 C842 1.463 . S
C839 C844 1.350 . S
C839 N847 1.427 . S
C840 H831 0.930 . S
C840 C838 1.378 . S
C840 C841 1.367 . S
C841 C840 1.367 . S
C841 C843 1.433 . S
C842 C838 1.350 . S
C842 C839 1.463 . S
C842 N846 1.427 . S
C843 H833 0.929 . S
C843 C841 1.433 . S
C843 N846 1.384 . S
C844 H835 0.929 . S
C844 C836 1.378 . S
C844 C839 1.350 . S
C845 H832 0.929 . S
C845 C837 1.433 . S
C845 N847 1.384 . S
N846 C842 1.427 . S
N846 C843 1.384 . S
N847 C839 1.427 . S
N847 C845 1.384 . S
H848 C854 0.930 . S
H849 C858 0.930 . S
H850 C863 0.929 . S
H851 C861 0.929 . S
H852 C856 0.929 . S
H853 C862 0.929 . S
C854 H848 0.930 . S
C854 C855 1.367 . S
C854 C862 1.378 . S
C855 C854 1.367 . S
C855 C863 1.433 . S
C856 H852 0.929 . S
C856 C858 1.378 . S
C856 C860 1.350 . S
C857 C860 1.463 . S
C857 C862 1.350 . S
C857 N865 1.427 . S
C858 H849 0.930 . S
C858 C856 1.378 . S
C858 C859 1.367 . S
C859 C858 1.367 . S
C859 C861 1.433 . S
C860 C856 1.350 . S
C860 C857 1.463 . S
C860 N864 1.427 . S
C861 H851 0.929 . S
C861 C859 1.433 . S
C861 N864 1.384 . S
C862 H853 0.929 . S
C862 C854 1.378 . S
C862 C857 1.350 . S
C863 H850 0.929 . S
C863 C855 1.433 . S
C863 N865 1.384 . S
N864 C860 1.427 . S
N864 C861 1.384 . S
N865 C857 1.427 . S
N865 C863 1.384 . S
H866 C872 0.930 . S
H867 C876 0.930 . S
H868 C881 0.929 . S
H869 C879 0.929 . S
H870 C874 0.929 . S
H871 C880 0.929 . S
C872 H866 0.930 . S
C872 C873 1.367 . S
C872 C880 1.378 . S
C873 C872 1.367 . S
C873 C881 1.433 . S
C874 H870 0.929 . S
C874 C876 1.378 . S
C874 C878 1.350 . S
C875 C878 1.463 . S
C875 C880 1.350 . S
C875 N883 1.427 . S
C876 H867 0.930 . S
C876 C874 1.378 . S
C876 C877 1.367 . S
C877 C876 1.367 . S
C877 C879 1.433 . S
C878 C874 1.350 . S
C878 C875 1.463 . S
C878 N882 1.427 . S
C879 H869 0.929 . S
C879 C877 1.433 . S
C879 N882 1.384 . S
C880 H871 0.929 . S
C880 C872 1.378 . S
C880 C875 1.350 . S
C881 H868 0.929 . S
C881 C873 1.433 . S
C881 N883 1.384 . S
N882 C878 1.427 . S
N882 C879 1.384 . S
N883 C875 1.427 . S
N883 C881 1.384 . S
H884 C890 0.930 . S
H885 C894 0.930 . S
H886 C899 0.929 . S
H887 C897 0.929 . S
H888 C892 0.929 . S
H889 C898 0.929 . S
C890 H884 0.930 . S
C890 C891 1.367 . S
C890 C898 1.378 . S
C891 C890 1.367 . S
C891 C899 1.433 . S
C892 H888 0.929 . S
C892 C894 1.378 . S
C892 C896 1.350 . S
C893 C896 1.463 . S
C893 C898 1.350 . S
C893 N901 1.427 . S
C894 H885 0.930 . S
C894 C892 1.378 . S
C894 C895 1.367 . S
C895 C894 1.367 . S
C895 C897 1.433 . S
C896 C892 1.350 . S
C896 C893 1.463 . S
C896 N900 1.427 . S
C897 H887 0.929 . S
C897 C895 1.433 . S
C897 N900 1.384 . S
C898 H889 0.929 . S
C898 C890 1.378 . S
C898 C893 1.350 . S
C899 H886 0.929 . S
C899 C891 1.433 . S
C899 N901 1.384 . S
N900 C896 1.427 . S
N900 C897 1.384 . S
N901 C893 1.427 . S
N901 C899 1.384 . S
H902 C908 0.930 . S
H903 C912 0.930 . S
H904 C917 0.929 . S
H905 C915 0.929 . S
H906 C910 0.929 . S
H907 C916 0.929 . S
C908 H902 0.930 . S
C908 C909 1.367 . S
C908 C916 1.378 . S
C909 C908 1.367 . S
C909 C917 1.433 . S
C910 H906 0.929 . S
C910 C912 1.378 . S
C910 C914 1.350 . S
C911 C914 1.463 . S
C911 C916 1.350 . S
C911 N919 1.427 . S
C912 H903 0.930 . S
C912 C910 1.378 . S
C912 C913 1.367 . S
C913 C912 1.367 . S
C913 C915 1.433 . S
C914 C910 1.350 . S
C914 C911 1.463 . S
C914 N918 1.427 . S
C915 H905 0.929 . S
C915 C913 1.433 . S
C915 N918 1.384 . S
C916 H907 0.929 . S
C916 C908 1.378 . S
C916 C911 1.350 . S
C917 H904 0.929 . S
C917 C909 1.433 . S
C917 N919 1.384 . S
N918 C914 1.427 . S
N918 C915 1.384 . S
N919 C911 1.427 . S
N919 C917 1.384 . S
H920 C926 0.930 . S
H921 C930 0.930 . S
H922 C935 0.929 . S
H923 C933 0.929 . S
H924 C928 0.929 . S
H925 C934 0.929 . S
C926 H920 0.930 . S
C926 C927 1.367 . S
C926 C934 1.378 . S
C927 C926 1.367 . S
C927 C935 1.433 . S
C928 H924 0.929 . S
C928 C930 1.378 . S
C928 C932 1.350 . S
C929 C932 1.463 . S
C929 C934 1.350 . S
C929 N937 1.427 . S
C930 H921 0.930 . S
C930 C928 1.378 . S
C930 C931 1.367 . S
C931 C930 1.367 . S
C931 C933 1.433 . S
C932 C928 1.350 . S
C932 C929 1.463 . S
C932 N936 1.427 . S
C933 H923 0.929 . S
C933 C931 1.433 . S
C933 N936 1.384 . S
C934 H925 0.929 . S
C934 C926 1.378 . S
C934 C929 1.350 . S
C935 H922 0.929 . S
C935 C927 1.433 . S
C935 N937 1.384 . S
N936 C932 1.427 . S
N936 C933 1.384 . S
N937 C929 1.427 . S
N937 C935 1.384 . S
H938 C944 0.930 . S
H939 C948 0.930 . S
H940 C953 0.929 . S
H941 C951 0.929 . S
H942 C946 0.929 . S
H943 C952 0.929 . S
C944 H938 0.930 . S
C944 C945 1.367 . S
C944 C952 1.378 . S
C945 C944 1.367 . S
C945 C953 1.433 . S
C946 H942 0.929 . S
C946 C948 1.378 . S
C946 C950 1.350 . S
C947 C950 1.463 . S
C947 C952 1.350 . S
C947 N955 1.427 . S
C948 H939 0.930 . S
C948 C946 1.378 . S
C948 C949 1.367 . S
C949 C948 1.367 . S
C949 C951 1.433 . S
C950 C946 1.350 . S
C950 C947 1.463 . S
C950 N954 1.427 . S
C951 H941 0.929 . S
C951 C949 1.433 . S
C951 N954 1.384 . S
C952 H943 0.929 . S
C952 C944 1.378 . S
C952 C947 1.350 . S
C953 H940 0.929 . S
C953 C945 1.433 . S
C953 N955 1.384 . S
N954 C950 1.427 . S
N954 C951 1.384 . S
N955 C947 1.427 . S
N955 C953 1.384 . S
H956 C962 0.930 . S
H957 C966 0.930 . S
H958 C971 0.929 . S
H959 C969 0.929 . S
H960 C964 0.929 . S
H961 C970 0.929 . S
C962 H956 0.930 . S
C962 C963 1.367 . S
C962 C970 1.378 . S
C963 C962 1.367 . S
C963 C971 1.433 . S
C964 H960 0.929 . S
C964 C966 1.378 . S
C964 C968 1.350 . S
C965 C968 1.463 . S
C965 C970 1.350 . S
C965 N973 1.427 . S
C966 H957 0.930 . S
C966 C964 1.378 . S
C966 C967 1.367 . S
C967 C966 1.367 . S
C967 C969 1.433 . S
C968 C964 1.350 . S
C968 C965 1.463 . S
C968 N972 1.427 . S
C969 H959 0.929 . S
C969 C967 1.433 . S
C969 N972 1.384 . S
C970 H961 0.929 . S
C970 C962 1.378 . S
C970 C965 1.350 . S
C971 H958 0.929 . S
C971 C963 1.433 . S
C971 N973 1.384 . S
N972 C968 1.427 . S
N972 C969 1.384 . S
N973 C965 1.427 . S
N973 C971 1.384 . S
H974 C980 0.930 . S
H975 C984 0.930 . S
H976 C989 0.929 . S
H977 C987 0.929 . S
H978 C982 0.929 . S
H979 C988 0.929 . S
C980 H974 0.930 . S
C980 C981 1.367 . S
C980 C988 1.378 . S
C981 C980 1.367 . S
C981 C989 1.433 . S
C982 H978 0.929 . S
C982 C984 1.378 . S
C982 C986 1.350 . S
C983 C986 1.463 . S
C983 C988 1.350 . S
C983 N991 1.427 . S
C984 H975 0.930 . S
C984 C982 1.378 . S
C984 C985 1.367 . S
C985 C984 1.367 . S
C985 C987 1.433 . S
C986 C982 1.350 . S
C986 C983 1.463 . S
C986 N990 1.427 . S
C987 H977 0.929 . S
C987 C985 1.433 . S
C987 N990 1.384 . S
C988 H979 0.929 . S
C988 C980 1.378 . S
C988 C983 1.350 . S
C989 H976 0.929 . S
C989 C981 1.433 . S
C989 N991 1.384 . S
N990 C986 1.427 . S
N990 C987 1.384 . S
N991 C983 1.427 . S
N991 C989 1.384 . S
H992 C998 0.930 . S
H993 C1002 0.930 . S
H994 C1007 0.929 . S
H995 C1005 0.929 . S
H996 C1000 0.929 . S
H997 C1006 0.929 . S
C998 H992 0.930 . S
C998 C999 1.367 . S
C998 C1006 1.378 . S
C999 C998 1.367 . S
C999 C1007 1.433 . S
C1000 H996 0.929 . S
C1000 C1002 1.378 . S
C1000 C1004 1.350 . S
C1001 C1004 1.463 . S
C1001 C1006 1.350 . S
C1001 N1009 1.427 . S
C1002 H993 0.930 . S
C1002 C1000 1.378 . S
C1002 C1003 1.367 . S
C1003 C1002 1.367 . S
C1003 C1005 1.433 . S
C1004 C1000 1.350 . S
C1004 C1001 1.463 . S
C1004 N1008 1.427 . S
C1005 H995 0.929 . S
C1005 C1003 1.433 . S
C1005 N1008 1.384 . S
C1006 H997 0.929 . S
C1006 C998 1.378 . S
C1006 C1001 1.350 . S
C1007 H994 0.929 . S
C1007 C999 1.433 . S
C1007 N1009 1.384 . S
N1008 C1004 1.427 . S
N1008 C1005 1.384 . S
N1009 C1001 1.427 . S
N1009 C1007 1.384 . S
H1010 C1016 0.930 . S
H1011 C1020 0.930 . S
H1012 C1025 0.929 . S
H1013 C1023 0.929 . S
H1014 C1018 0.929 . S
H1015 C1024 0.929 . S
C1016 H1010 0.930 . S
C1016 C1017 1.367 . S
C1016 C1024 1.378 . S
C1017 C1016 1.367 . S
C1017 C1025 1.433 . S
C1018 H1014 0.929 . S
C1018 C1020 1.378 . S
C1018 C1022 1.350 . S
C1019 C1022 1.463 . S
C1019 C1024 1.350 . S
C1019 N1027 1.427 . S
C1020 H1011 0.930 . S
C1020 C1018 1.378 . S
C1020 C1021 1.367 . S
C1021 C1020 1.367 . S
C1021 C1023 1.433 . S
C1022 C1018 1.350 . S
C1022 C1019 1.463 . S
C1022 N1026 1.427 . S
C1023 H1013 0.929 . S
C1023 C1021 1.433 . S
C1023 N1026 1.384 . S
C1024 H1015 0.929 . S
C1024 C1016 1.378 . S
C1024 C1019 1.350 . S
C1025 H1012 0.929 . S
C1025 C1017 1.433 . S
C1025 N1027 1.384 . S
N1026 C1022 1.427 . S
N1026 C1023 1.384 . S
N1027 C1019 1.427 . S
N1027 C1025 1.384 . S
H1028 C1034 0.930 . S
H1029 C1038 0.930 . S
H1030 C1043 0.929 . S
H1031 C1041 0.929 . S
H1032 C1036 0.929 . S
H1033 C1042 0.929 . S
C1034 H1028 0.930 . S
C1034 C1035 1.367 . S
C1034 C1042 1.378 . S
C1035 C1034 1.367 . S
C1035 C1043 1.433 . S
C1036 H1032 0.929 . S
C1036 C1038 1.378 . S
C1036 C1040 1.350 . S
C1037 C1040 1.463 . S
C1037 C1042 1.350 . S
C1037 N1045 1.427 . S
C1038 H1029 0.930 . S
C1038 C1036 1.378 . S
C1038 C1039 1.367 . S
C1039 C1038 1.367 . S
C1039 C1041 1.433 . S
C1040 C1036 1.350 . S
C1040 C1037 1.463 . S
C1040 N1044 1.427 . S
C1041 H1031 0.929 . S
C1041 C1039 1.433 . S
C1041 N1044 1.384 . S
C1042 H1033 0.929 . S
C1042 C1034 1.378 . S
C1042 C1037 1.350 . S
C1043 H1030 0.929 . S
C1043 C1035 1.433 . S
C1043 N1045 1.384 . S
N1044 C1040 1.427 . S
N1044 C1041 1.384 . S
N1045 C1037 1.427 . S
N1045 C1043 1.384 . S
H1046 C1052 0.930 . S
H1047 C1056 0.930 . S
H1048 C1061 0.929 . S
H1049 C1059 0.929 . S
H1050 C1054 0.929 . S
H1051 C1060 0.929 . S
C1052 H1046 0.930 . S
C1052 C1053 1.367 . S
C1052 C1060 1.378 . S
C1053 C1052 1.367 . S
C1053 C1061 1.433 . S
C1054 H1050 0.929 . S
C1054 C1056 1.378 . S
C1054 C1058 1.350 . S
C1055 C1058 1.463 . S
C1055 C1060 1.350 . S
C1055 N1063 1.427 . S
C1056 H1047 0.930 . S
C1056 C1054 1.378 . S
C1056 C1057 1.367 . S
C1057 C1056 1.367 . S
C1057 C1059 1.433 . S
C1058 C1054 1.350 . S
C1058 C1055 1.463 . S
C1058 N1062 1.427 . S
C1059 H1049 0.929 . S
C1059 C1057 1.433 . S
C1059 N1062 1.384 . S
C1060 H1051 0.929 . S
C1060 C1052 1.378 . S
C1060 C1055 1.350 . S
C1061 H1048 0.929 . S
C1061 C1053 1.433 . S
C1061 N1063 1.384 . S
N1062 C1058 1.427 . S
N1062 C1059 1.384 . S
N1063 C1055 1.427 . S
N1063 C1061 1.384 . S
H1064 C1070 0.930 . S
H1065 C1074 0.930 . S
H1066 C1079 0.929 . S
H1067 C1077 0.929 . S
H1068 C1072 0.929 . S
H1069 C1078 0.929 . S
C1070 H1064 0.930 . S
C1070 C1071 1.367 . S
C1070 C1078 1.378 . S
C1071 C1070 1.367 . S
C1071 C1079 1.433 . S
C1072 H1068 0.929 . S
C1072 C1074 1.378 . S
C1072 C1076 1.350 . S
C1073 C1076 1.463 . S
C1073 C1078 1.350 . S
C1073 N1081 1.427 . S
C1074 H1065 0.930 . S
C1074 C1072 1.378 . S
C1074 C1075 1.367 . S
C1075 C1074 1.367 . S
C1075 C1077 1.433 . S
C1076 C1072 1.350 . S
C1076 C1073 1.463 . S
C1076 N1080 1.427 . S
C1077 H1067 0.929 . S
C1077 C1075 1.433 . S
C1077 N1080 1.384 . S
C1078 H1069 0.929 . S
C1078 C1070 1.378 . S
C1078 C1073 1.350 . S
C1079 H1066 0.929 . S
C1079 C1071 1.433 . S
C1079 N1081 1.384 . S
N1080 C1076 1.427 . S
N1080 C1077 1.384 . S
N1081 C1073 1.427 . S
N1081 C1079 1.384 . S
H1082 C1088 0.930 . S
H1083 C1092 0.930 . S
H1084 C1097 0.929 . S
H1085 C1095 0.929 . S
H1086 C1090 0.929 . S
H1087 C1096 0.929 . S
C1088 H1082 0.930 . S
C1088 C1089 1.367 . S
C1088 C1096 1.378 . S
C1089 C1088 1.367 . S
C1089 C1097 1.433 . S
C1090 H1086 0.929 . S
C1090 C1092 1.378 . S
C1090 C1094 1.350 . S
C1091 C1094 1.463 . S
C1091 C1096 1.350 . S
C1091 N1099 1.427 . S
C1092 H1083 0.930 . S
C1092 C1090 1.378 . S
C1092 C1093 1.367 . S
C1093 C1092 1.367 . S
C1093 C1095 1.433 . S
C1094 C1090 1.350 . S
C1094 C1091 1.463 . S
C1094 N1098 1.427 . S
C1095 H1085 0.929 . S
C1095 C1093 1.433 . S
C1095 N1098 1.384 . S
C1096 H1087 0.929 . S
C1096 C1088 1.378 . S
C1096 C1091 1.350 . S
C1097 H1084 0.929 . S
C1097 C1089 1.433 . S
C1097 N1099 1.384 . S
N1098 C1094 1.427 . S
N1098 C1095 1.384 . S
N1099 C1091 1.427 . S
N1099 C1097 1.384 . S
H1100 C1106 0.930 . S
H1101 C1110 0.930 . S
H1102 C1115 0.929 . S
H1103 C1113 0.929 . S
H1104 C1108 0.929 . S
H1105 C1114 0.929 . S
C1106 H1100 0.930 . S
C1106 C1107 1.367 . S
C1106 C1114 1.378 . S
C1107 C1106 1.367 . S
C1107 C1115 1.433 . S
C1108 H1104 0.929 . S
C1108 C1110 1.378 . S
C1108 C1112 1.350 . S
C1109 C1112 1.463 . S
C1109 C1114 1.350 . S
C1109 N1117 1.427 . S
C1110 H1101 0.930 . S
C1110 C1108 1.378 . S
C1110 C1111 1.367 . S
C1111 C1110 1.367 . S
C1111 C1113 1.433 . S
C1112 C1108 1.350 . S
C1112 C1109 1.463 . S
C1112 N1116 1.427 . S
C1113 H1103 0.929 . S
C1113 C1111 1.433 . S
C1113 N1116 1.384 . S
C1114 H1105 0.929 . S
C1114 C1106 1.378 . S
C1114 C1109 1.350 . S
C1115 H1102 0.929 . S
C1115 C1107 1.433 . S
C1115 N1117 1.384 . S
N1116 C1112 1.427 . S
N1116 C1113 1.384 . S
N1117 C1109 1.427 . S
N1117 C1115 1.384 . S
H1118 C1124 0.930 . S
H1119 C1128 0.930 . S
H1120 C1133 0.929 . S
H1121 C1131 0.929 . S
H1122 C1126 0.929 . S
H1123 C1132 0.929 . S
C1124 H1118 0.930 . S
C1124 C1125 1.367 . S
C1124 C1132 1.378 . S
C1125 C1124 1.367 . S
C1125 C1133 1.433 . S
C1126 H1122 0.929 . S
C1126 C1128 1.378 . S
C1126 C1130 1.350 . S
C1127 C1130 1.463 . S
C1127 C1132 1.350 . S
C1127 N1135 1.427 . S
C1128 H1119 0.930 . S
C1128 C1126 1.378 . S
C1128 C1129 1.367 . S
C1129 C1128 1.367 . S
C1129 C1131 1.433 . S
C1130 C1126 1.350 . S
C1130 C1127 1.463 . S
C1130 N1134 1.427 . S
C1131 H1121 0.929 . S
C1131 C1129 1.433 . S
C1131 N1134 1.384 . S
C1132 H1123 0.929 . S
C1132 C1124 1.378 . S
C1132 C1127 1.350 . S
C1133 H1120 0.929 . S
C1133 C1125 1.433 . S
C1133 N1135 1.384 . S
N1134 C1130 1.427 . S
N1134 C1131 1.384 . S
N1135 C1127 1.427 . S
N1135 C1133 1.384 . S
H1136 C1142 0.930 . S
H1137 C1146 0.930 . S
H1138 C1151 0.929 . S
H1139 C1149 0.929 . S
H1140 C1144 0.929 . S
H1141 C1150 0.929 . S
C1142 H1136 0.930 . S
C1142 C1143 1.367 . S
C1142 C1150 1.378 . S
C1143 C1142 1.367 . S
C1143 C1151 1.433 . S
C1144 H1140 0.929 . S
C1144 C1146 1.378 . S
C1144 C1148 1.350 . S
C1145 C1148 1.463 . S
C1145 C1150 1.350 . S
C1145 N1153 1.427 . S
C1146 H1137 0.930 . S
C1146 C1144 1.378 . S
C1146 C1147 1.367 . S
C1147 C1146 1.367 . S
C1147 C1149 1.433 . S
C1148 C1144 1.350 . S
C1148 C1145 1.463 . S
C1148 N1152 1.427 . S
C1149 H1139 0.929 . S
C1149 C1147 1.433 . S
C1149 N1152 1.384 . S
C1150 H1141 0.929 . S
C1150 C1142 1.378 . S
C1150 C1145 1.350 . S
C1151 H1138 0.929 . S
C1151 C1143 1.433 . S
C1151 N1153 1.384 . S
N1152 C1148 1.427 . S
N1152 C1149 1.384 . S
N1153 C1145 1.427 . S
N1153 C1151 1.384 . S
H1154 C1160 0.930 . S
H1155 C1164 0.930 . S
H1156 C1169 0.929 . S
H1157 C1167 0.929 . S
H1158 C1162 0.929 . S
H1159 C1168 0.929 . S
C1160 H1154 0.930 . S
C1160 C1161 1.367 . S
C1160 C1168 1.378 . S
C1161 C1160 1.367 . S
C1161 C1169 1.433 . S
C1162 H1158 0.929 . S
C1162 C1164 1.378 . S
C1162 C1166 1.350 . S
C1163 C1166 1.463 . S
C1163 C1168 1.350 . S
C1163 N1171 1.427 . S
C1164 H1155 0.930 . S
C1164 C1162 1.378 . S
C1164 C1165 1.367 . S
C1165 C1164 1.367 . S
C1165 C1167 1.433 . S
C1166 C1162 1.350 . S
C1166 C1163 1.463 . S
C1166 N1170 1.427 . S
C1167 H1157 0.929 . S
C1167 C1165 1.433 . S
C1167 N1170 1.384 . S
C1168 H1159 0.929 . S
C1168 C1160 1.378 . S
C1168 C1163 1.350 . S
C1169 H1156 0.929 . S
C1169 C1161 1.433 . S
C1169 N1171 1.384 . S
N1170 C1166 1.427 . S
N1170 C1167 1.384 . S
N1171 C1163 1.427 . S
N1171 C1169 1.384 . S
H1172 C1178 0.930 . S
H1173 C1182 0.930 . S
H1174 C1187 0.929 . S
H1175 C1185 0.929 . S
H1176 C1180 0.929 . S
H1177 C1186 0.929 . S
C1178 H1172 0.930 . S
C1178 C1179 1.367 . S
C1178 C1186 1.378 . S
C1179 C1178 1.367 . S
C1179 C1187 1.433 . S
C1180 H1176 0.929 . S
C1180 C1182 1.378 . S
C1180 C1184 1.350 . S
C1181 C1184 1.463 . S
C1181 C1186 1.350 . S
C1181 N1189 1.427 . S
C1182 H1173 0.930 . S
C1182 C1180 1.378 . S
C1182 C1183 1.367 . S
C1183 C1182 1.367 . S
C1183 C1185 1.433 . S
C1184 C1180 1.350 . S
C1184 C1181 1.463 . S
C1184 N1188 1.427 . S
C1185 H1175 0.929 . S
C1185 C1183 1.433 . S
C1185 N1188 1.384 . S
C1186 H1177 0.929 . S
C1186 C1178 1.378 . S
C1186 C1181 1.350 . S
C1187 H1174 0.929 . S
C1187 C1179 1.433 . S
C1187 N1189 1.384 . S
N1188 C1184 1.427 . S
N1188 C1185 1.384 . S
N1189 C1181 1.427 . S
N1189 C1187 1.384 . S
H1190 C1196 0.930 . S
H1191 C1200 0.930 . S
H1192 C1205 0.929 . S
H1193 C1203 0.929 . S
H1194 C1198 0.929 . S
H1195 C1204 0.929 . S
C1196 H1190 0.930 . S
C1196 C1197 1.367 . S
C1196 C1204 1.378 . S
C1197 C1196 1.367 . S
C1197 C1205 1.433 . S
C1198 H1194 0.929 . S
C1198 C1200 1.378 . S
C1198 C1202 1.350 . S
C1199 C1202 1.463 . S
C1199 C1204 1.350 . S
C1199 N1207 1.427 . S
C1200 H1191 0.930 . S
C1200 C1198 1.378 . S
C1200 C1201 1.367 . S
C1201 C1200 1.367 . S
C1201 C1203 1.433 . S
C1202 C1198 1.350 . S
C1202 C1199 1.463 . S
C1202 N1206 1.427 . S
C1203 H1193 0.929 . S
C1203 C1201 1.433 . S
C1203 N1206 1.384 . S
C1204 H1195 0.929 . S
C1204 C1196 1.378 . S
C1204 C1199 1.350 . S
C1205 H1192 0.929 . S
C1205 C1197 1.433 . S
C1205 N1207 1.384 . S
N1206 C1202 1.427 . S
N1206 C1203 1.384 . S
N1207 C1199 1.427 . S
N1207 C1205 1.384 . S
H1208 C1214 0.930 . S
H1209 C1218 0.930 . S
H1210 C1223 0.929 . S
H1211 C1221 0.929 . S
H1212 C1216 0.929 . S
H1213 C1222 0.929 . S
C1214 H1208 0.930 . S
C1214 C1215 1.367 . S
C1214 C1222 1.378 . S
C1215 C1214 1.367 . S
C1215 C1223 1.433 . S
C1216 H1212 0.929 . S
C1216 C1218 1.378 . S
C1216 C1220 1.350 . S
C1217 C1220 1.463 . S
C1217 C1222 1.350 . S
C1217 N1225 1.427 . S
C1218 H1209 0.930 . S
C1218 C1216 1.378 . S
C1218 C1219 1.367 . S
C1219 C1218 1.367 . S
C1219 C1221 1.433 . S
C1220 C1216 1.350 . S
C1220 C1217 1.463 . S
C1220 N1224 1.427 . S
C1221 H1211 0.929 . S
C1221 C1219 1.433 . S
C1221 N1224 1.384 . S
C1222 H1213 0.929 . S
C1222 C1214 1.378 . S
C1222 C1217 1.350 . S
C1223 H1210 0.929 . S
C1223 C1215 1.433 . S
C1223 N1225 1.384 . S
N1224 C1220 1.427 . S
N1224 C1221 1.384 . S
N1225 C1217 1.427 . S
N1225 C1223 1.384 . S
H1226 C1232 0.930 . S
H1227 C1236 0.930 . S
H1228 C1241 0.929 . S
H1229 C1239 0.929 . S
H1230 C1234 0.929 . S
H1231 C1240 0.929 . S
C1232 H1226 0.930 . S
C1232 C1233 1.367 . S
C1232 C1240 1.378 . S
C1233 C1232 1.367 . S
C1233 C1241 1.433 . S
C1234 H1230 0.929 . S
C1234 C1236 1.378 . S
C1234 C1238 1.350 . S
C1235 C1238 1.463 . S
C1235 C1240 1.350 . S
C1235 N1243 1.427 . S
C1236 H1227 0.930 . S
C1236 C1234 1.378 . S
C1236 C1237 1.367 . S
C1237 C1236 1.367 . S
C1237 C1239 1.433 . S
C1238 C1234 1.350 . S
C1238 C1235 1.463 . S
C1238 N1242 1.427 . S
C1239 H1229 0.929 . S
C1239 C1237 1.433 . S
C1239 N1242 1.384 . S
C1240 H1231 0.929 . S
C1240 C1232 1.378 . S
C1240 C1235 1.350 . S
C1241 H1228 0.929 . S
C1241 C1233 1.433 . S
C1241 N1243 1.384 . S
N1242 C1238 1.427 . S
N1242 C1239 1.384 . S
N1243 C1235 1.427 . S
N1243 C1241 1.384 . S
H1244 C1250 0.930 . S
H1245 C1254 0.930 . S
H1246 C1259 0.929 . S
H1247 C1257 0.929 . S
H1248 C1252 0.929 . S
H1249 C1258 0.929 . S
C1250 H1244 0.930 . S
C1250 C1251 1.367 . S
C1250 C1258 1.378 . S
C1251 C1250 1.367 . S
C1251 C1259 1.433 . S
C1252 H1248 0.929 . S
C1252 C1254 1.378 . S
C1252 C1256 1.350 . S
C1253 C1256 1.463 . S
C1253 C1258 1.350 . S
C1253 N1261 1.427 . S
C1254 H1245 0.930 . S
C1254 C1252 1.378 . S
C1254 C1255 1.367 . S
C1255 C1254 1.367 . S
C1255 C1257 1.433 . S
C1256 C1252 1.350 . S
C1256 C1253 1.463 . S
C1256 N1260 1.427 . S
C1257 H1247 0.929 . S
C1257 C1255 1.433 . S
C1257 N1260 1.384 . S
C1258 H1249 0.929 . S
C1258 C1250 1.378 . S
C1258 C1253 1.350 . S
C1259 H1246 0.929 . S
C1259 C1251 1.433 . S
C1259 N1261 1.384 . S
N1260 C1256 1.427 . S
N1260 C1257 1.384 . S
N1261 C1253 1.427 . S
N1261 C1259 1.384 . S
H1262 C1268 0.930 . S
H1263 C1272 0.930 . S
H1264 C1277 0.929 . S
H1265 C1275 0.929 . S
H1266 C1270 0.929 . S
H1267 C1276 0.929 . S
C1268 H1262 0.930 . S
C1268 C1269 1.367 . S
C1268 C1276 1.378 . S
C1269 C1268 1.367 . S
C1269 C1277 1.433 . S
C1270 H1266 0.929 . S
C1270 C1272 1.378 . S
C1270 C1274 1.350 . S
C1271 C1274 1.463 . S
C1271 C1276 1.350 . S
C1271 N1279 1.427 . S
C1272 H1263 0.930 . S
C1272 C1270 1.378 . S
C1272 C1273 1.367 . S
C1273 C1272 1.367 . S
C1273 C1275 1.433 . S
C1274 C1270 1.350 . S
C1274 C1271 1.463 . S
C1274 N1278 1.427 . S
C1275 H1265 0.929 . S
C1275 C1273 1.433 . S
C1275 N1278 1.384 . S
C1276 H1267 0.929 . S
C1276 C1268 1.378 . S
C1276 C1271 1.350 . S
C1277 H1264 0.929 . S
C1277 C1269 1.433 . S
C1277 N1279 1.384 . S
N1278 C1274 1.427 . S
N1278 C1275 1.384 . S
N1279 C1271 1.427 . S
N1279 C1277 1.384 . S
H1280 C1286 0.930 1_565 S
H1281 C1290 0.930 . S
H1282 C1295 0.929 . S
H1283 C1293 0.929 . S
H1284 C1288 0.929 . S
H1285 C1294 0.929 . S
C1286 H1280 0.930 1_545 S
C1286 C1287 1.367 . S
C1286 C1294 1.378 . S
C1287 C1286 1.367 . S
C1287 C1295 1.433 . S
C1288 H1284 0.929 . S
C1288 C1290 1.378 . S
C1288 C1292 1.350 . S
C1289 C1292 1.463 . S
C1289 C1294 1.350 . S
C1289 N1297 1.427 . S
C1290 H1281 0.930 . S
C1290 C1288 1.378 . S
C1290 C1291 1.367 . S
C1291 C1290 1.367 . S
C1291 C1293 1.433 . S
C1292 C1288 1.350 . S
C1292 C1289 1.463 . S
C1292 N1296 1.427 . S
C1293 H1283 0.929 . S
C1293 C1291 1.433 . S
C1293 N1296 1.384 . S
C1294 H1285 0.929 . S
C1294 C1286 1.378 . S
C1294 C1289 1.350 . S
C1295 H1282 0.929 . S
C1295 C1287 1.433 . S
C1295 N1297 1.384 . S
N1296 C1292 1.427 . S
N1296 C1293 1.384 . S
N1297 C1289 1.427 . S
N1297 C1295 1.384 . S
H1298 C1304 0.930 . S
H1299 C1308 0.930 . S
H1300 C1313 0.929 . S
H1301 C1311 0.929 . S
H1302 C1306 0.929 . S
H1303 C1312 0.929 . S
C1304 H1298 0.930 . S
C1304 C1305 1.367 . S
C1304 C1312 1.378 . S
C1305 C1304 1.367 . S
C1305 C1313 1.433 . S
C1306 H1302 0.929 . S
C1306 C1308 1.378 . S
C1306 C1310 1.350 . S
C1307 C1310 1.463 . S
C1307 C1312 1.350 . S
C1307 N1315 1.427 . S
C1308 H1299 0.930 . S
C1308 C1306 1.378 . S
C1308 C1309 1.367 . S
C1309 C1308 1.367 . S
C1309 C1311 1.433 . S
C1310 C1306 1.350 . S
C1310 C1307 1.463 . S
C1310 N1314 1.427 . S
C1311 H1301 0.929 . S
C1311 C1309 1.433 . S
C1311 N1314 1.384 . S
C1312 H1303 0.929 . S
C1312 C1304 1.378 . S
C1312 C1307 1.350 . S
C1313 H1300 0.929 . S
C1313 C1305 1.433 . S
C1313 N1315 1.384 . S
N1314 C1310 1.427 . S
N1314 C1311 1.384 . S
N1315 C1307 1.427 . S
N1315 C1313 1.384 . S
H1316 C1322 0.930 . S
H1317 C1326 0.930 . S
H1318 C1331 0.929 . S
H1319 C1329 0.929 1_545 S
H1320 C1324 0.929 . S
H1321 C1330 0.929 . S
C1322 H1316 0.930 . S
C1322 C1323 1.367 . S
C1322 C1330 1.378 . S
C1323 C1322 1.367 . S
C1323 C1331 1.433 . S
C1324 H1320 0.929 . S
C1324 C1326 1.378 . S
C1324 C1328 1.350 . S
C1325 C1328 1.463 . S
C1325 C1330 1.350 . S
C1325 N1333 1.427 . S
C1326 H1317 0.930 . S
C1326 C1324 1.378 . S
C1326 C1327 1.367 . S
C1327 C1326 1.367 . S
C1327 C1329 1.433 . S
C1328 C1324 1.350 . S
C1328 C1325 1.463 . S
C1328 N1332 1.427 . S
C1329 H1319 0.929 1_565 S
C1329 C1327 1.433 . S
C1329 N1332 1.384 . S
C1330 H1321 0.929 . S
C1330 C1322 1.378 . S
C1330 C1325 1.350 . S
C1331 H1318 0.929 . S
C1331 C1323 1.433 . S
C1331 N1333 1.384 . S
N1332 C1328 1.427 . S
N1332 C1329 1.384 . S
N1333 C1325 1.427 . S
N1333 C1331 1.384 . S
H1334 C1340 0.930 . S
H1335 C1344 0.930 . S
H1336 C1349 0.929 . S
H1337 C1347 0.929 1_655 S
H1338 C1342 0.929 . S
H1339 C1348 0.929 . S
C1340 H1334 0.930 . S
C1340 C1341 1.367 . S
C1340 C1348 1.378 . S
C1341 C1340 1.367 . S
C1341 C1349 1.433 . S
C1342 H1338 0.929 . S
C1342 C1344 1.378 . S
C1342 C1346 1.350 . S
C1343 C1346 1.463 . S
C1343 C1348 1.350 . S
C1343 N1351 1.427 . S
C1344 H1335 0.930 . S
C1344 C1342 1.378 . S
C1344 C1345 1.367 . S
C1345 C1344 1.367 . S
C1345 C1347 1.433 . S
C1346 C1342 1.350 . S
C1346 C1343 1.463 . S
C1346 N1350 1.427 . S
C1347 H1337 0.929 1_455 S
C1347 C1345 1.433 . S
C1347 N1350 1.384 . S
C1348 H1339 0.929 . S
C1348 C1340 1.378 . S
C1348 C1343 1.350 . S
C1349 H1336 0.929 . S
C1349 C1341 1.433 . S
C1349 N1351 1.384 . S
N1350 C1346 1.427 . S
N1350 C1347 1.384 . S
N1351 C1343 1.427 . S
N1351 C1349 1.384 . S
H1352 C1358 0.930 1_545 S
H1353 C1362 0.930 . S
H1354 C1367 0.929 . S
H1355 C1365 0.929 . S
H1356 C1360 0.929 . S
H1357 C1366 0.929 . S
C1358 H1352 0.930 1_565 S
C1358 C1359 1.367 . S
C1358 C1366 1.378 . S
C1359 C1358 1.367 . S
C1359 C1367 1.433 . S
C1360 H1356 0.929 . S
C1360 C1362 1.378 . S
C1360 C1364 1.350 . S
C1361 C1364 1.463 . S
C1361 C1366 1.350 . S
C1361 N1369 1.427 . S
C1362 H1353 0.930 . S
C1362 C1360 1.378 . S
C1362 C1363 1.367 . S
C1363 C1362 1.367 . S
C1363 C1365 1.433 . S
C1364 C1360 1.350 . S
C1364 C1361 1.463 . S
C1364 N1368 1.427 . S
C1365 H1355 0.929 . S
C1365 C1363 1.433 . S
C1365 N1368 1.384 . S
C1366 H1357 0.929 . S
C1366 C1358 1.378 . S
C1366 C1361 1.350 . S
C1367 H1354 0.929 . S
C1367 C1359 1.433 . S
C1367 N1369 1.384 . S
N1368 C1364 1.427 . S
N1368 C1365 1.384 . S
N1369 C1361 1.427 . S
N1369 C1367 1.384 . S
H1370 C1376 0.930 . S
H1371 C1380 0.930 . S
H1372 C1385 0.929 1_655 S
H1373 C1383 0.929 . S
H1374 C1378 0.929 . S
H1375 C1384 0.929 . S
C1376 H1370 0.930 . S
C1376 C1377 1.367 . S
C1376 C1384 1.378 . S
C1377 C1376 1.367 . S
C1377 C1385 1.433 . S
C1378 H1374 0.929 . S
C1378 C1380 1.378 . S
C1378 C1382 1.350 . S
C1379 C1382 1.463 . S
C1379 C1384 1.350 . S
C1379 N1387 1.427 . S
C1380 H1371 0.930 . S
C1380 C1378 1.378 . S
C1380 C1381 1.367 . S
C1381 C1380 1.367 . S
C1381 C1383 1.433 . S
C1382 C1378 1.350 . S
C1382 C1379 1.463 . S
C1382 N1386 1.427 . S
C1383 H1373 0.929 . S
C1383 C1381 1.433 . S
C1383 N1386 1.384 . S
C1384 H1375 0.929 . S
C1384 C1376 1.378 . S
C1384 C1379 1.350 . S
C1385 H1372 0.929 1_455 S
C1385 C1377 1.433 . S
C1385 N1387 1.384 . S
N1386 C1382 1.427 . S
N1386 C1383 1.384 . S
N1387 C1379 1.427 . S
N1387 C1385 1.384 . S
H1388 C1394 0.924 1_565 S
H1389 C1398 0.930 . S
H1390 C1403 0.929 . S
H1391 C1401 0.929 . S
H1392 C1396 0.929 . S
H1393 C1402 0.929 . S
C1394 H1388 0.924 1_545 S
C1394 C1395 1.367 . S
C1394 C1402 1.378 . S
C1395 C1394 1.367 . S
C1395 C1403 1.433 . S
C1396 H1392 0.929 . S
C1396 C1398 1.378 . S
C1396 C1400 1.350 . S
C1397 C1400 1.463 . S
C1397 C1402 1.350 . S
C1397 N1405 1.427 . S
C1398 H1389 0.930 . S
C1398 C1396 1.378 . S
C1398 C1399 1.367 . S
C1399 C1398 1.367 . S
C1399 C1401 1.433 . S
C1400 C1396 1.350 . S
C1400 C1397 1.463 . S
C1400 N1404 1.427 . S
C1401 H1391 0.929 . S
C1401 C1399 1.433 . S
C1401 N1404 1.384 . S
C1402 H1393 0.929 . S
C1402 C1394 1.378 . S
C1402 C1397 1.350 . S
C1403 H1390 0.929 . S
C1403 C1395 1.433 . S
C1403 N1405 1.384 . S
N1404 C1400 1.427 . S
N1404 C1401 1.384 . S
N1405 C1397 1.427 . S
N1405 C1403 1.384 . S
H1406 C1412 0.930 . S
H1407 C1416 0.930 1_455 S
H1408 C1421 0.929 . S
H1409 C1419 0.929 . S
H1410 C1414 0.929 . S
H1411 C1420 0.929 . S
C1412 H1406 0.930 . S
C1412 C1413 1.367 . S
C1412 C1420 1.378 . S
C1413 C1412 1.367 . S
C1413 C1421 1.433 . S
C1414 H1410 0.929 . S
C1414 C1416 1.378 . S
C1414 C1418 1.350 . S
C1415 C1418 1.463 . S
C1415 C1420 1.350 . S
C1415 N1423 1.427 . S
C1416 H1407 0.930 1_655 S
C1416 C1414 1.378 . S
C1416 C1417 1.367 . S
C1417 C1416 1.367 . S
C1417 C1419 1.433 . S
C1418 C1414 1.350 . S
C1418 C1415 1.463 . S
C1418 N1422 1.427 . S
C1419 H1409 0.929 . S
C1419 C1417 1.433 . S
C1419 N1422 1.384 . S
C1420 H1411 0.929 . S
C1420 C1412 1.378 . S
C1420 C1415 1.350 . S
C1421 H1408 0.929 . S
C1421 C1413 1.433 . S
C1421 N1423 1.384 . S
N1422 C1418 1.427 . S
N1422 C1419 1.384 . S
N1423 C1415 1.427 . S
N1423 C1421 1.384 . S
H1424 C1430 0.930 . S
H1425 C1434 0.930 . S
H1426 C1439 0.929 . S
H1427 C1437 0.929 . S
H1428 C1432 0.929 . S
H1429 C1438 0.929 . S
C1430 H1424 0.930 . S
C1430 C1431 1.367 . S
C1430 C1438 1.378 . S
C1431 C1430 1.367 . S
C1431 C1439 1.433 . S
C1432 H1428 0.929 . S
C1432 C1434 1.378 . S
C1432 C1436 1.350 . S
C1433 C1436 1.463 . S
C1433 C1438 1.350 . S
C1433 N1441 1.427 . S
C1434 H1425 0.930 . S
C1434 C1432 1.378 . S
C1434 C1435 1.367 . S
C1435 C1434 1.367 . S
C1435 C1437 1.433 . S
C1436 C1432 1.350 . S
C1436 C1433 1.463 . S
C1436 N1440 1.427 . S
C1437 H1427 0.929 . S
C1437 C1435 1.433 . S
C1437 N1440 1.384 . S
C1438 H1429 0.929 . S
C1438 C1430 1.378 . S
C1438 C1433 1.350 . S
C1439 H1426 0.929 . S
C1439 C1431 1.433 . S
C1439 N1441 1.384 . S
N1440 C1436 1.427 . S
N1440 C1437 1.384 . S
N1441 C1433 1.427 . S
N1441 C1439 1.384 . S
H1442 C1448 0.930 1_655 S
H1443 C1452 0.930 . S
H1444 C1457 0.929 . S
H1445 C1455 0.929 . S
H1446 C1450 0.929 . S
H1447 C1456 0.929 . S
C1448 H1442 0.930 1_455 S
C1448 C1449 1.367 . S
C1448 C1456 1.378 . S
C1449 C1448 1.367 . S
C1449 C1457 1.433 . S
C1450 H1446 0.929 . S
C1450 C1452 1.378 . S
C1450 C1454 1.350 . S
C1451 C1454 1.463 . S
C1451 C1456 1.350 . S
C1451 N1459 1.427 . S
C1452 H1443 0.930 . S
C1452 C1450 1.378 . S
C1452 C1453 1.367 . S
C1453 C1452 1.367 . S
C1453 C1455 1.433 . S
C1454 C1450 1.350 . S
C1454 C1451 1.463 . S
C1454 N1458 1.427 . S
C1455 H1445 0.929 . S
C1455 C1453 1.433 . S
C1455 N1458 1.384 . S
C1456 H1447 0.929 . S
C1456 C1448 1.378 . S
C1456 C1451 1.350 . S
C1457 H1444 0.929 . S
C1457 C1449 1.433 . S
C1457 N1459 1.384 . S
N1458 C1454 1.427 . S
N1458 C1455 1.384 . S
N1459 C1451 1.427 . S
N1459 C1457 1.384 . S
H1460 C1466 0.930 . S
H1461 C1470 0.911 1_565 S
H1462 C1475 0.929 . S
H1463 C1473 0.929 . S
H1464 C1468 0.929 . S
H1465 C1474 0.929 . S
C1466 H1460 0.930 . S
C1466 C1467 1.367 . S
C1466 C1474 1.378 . S
C1467 C1466 1.367 . S
C1467 C1475 1.433 . S
C1468 H1464 0.929 . S
C1468 C1470 1.378 . S
C1468 C1472 1.350 . S
C1469 C1472 1.463 . S
C1469 C1474 1.350 . S
C1469 N1477 1.427 . S
C1470 H1461 0.911 1_545 S
C1470 C1468 1.378 . S
C1470 C1471 1.367 . S
C1471 C1470 1.367 . S
C1471 C1473 1.433 . S
C1472 C1468 1.350 . S
C1472 C1469 1.463 . S
C1472 N1476 1.427 . S
C1473 H1463 0.929 . S
C1473 C1471 1.433 . S
C1473 N1476 1.384 . S
C1474 H1465 0.929 . S
C1474 C1466 1.378 . S
C1474 C1469 1.350 . S
C1475 H1462 0.929 . S
C1475 C1467 1.433 . S
C1475 N1477 1.384 . S
N1476 C1472 1.427 . S
N1476 C1473 1.384 . S
N1477 C1469 1.427 . S
N1477 C1475 1.384 . S
H1478 C1484 0.930 . S
H1479 C1488 0.930 . S
H1480 C1493 0.929 . S
H1481 C1491 0.929 1_455 S
H1482 C1486 0.929 . S
H1483 C1492 0.929 . S
C1484 H1478 0.930 . S
C1484 C1485 1.367 . S
C1484 C1492 1.378 . S
C1485 C1484 1.367 . S
C1485 C1493 1.433 . S
C1486 H1482 0.929 . S
C1486 C1488 1.378 . S
C1486 C1490 1.350 . S
C1487 C1490 1.463 . S
C1487 C1492 1.350 . S
C1487 N1495 1.427 . S
C1488 H1479 0.930 . S
C1488 C1486 1.378 . S
C1488 C1489 1.367 . S
C1489 C1488 1.367 . S
C1489 C1491 1.433 . S
C1490 C1486 1.350 . S
C1490 C1487 1.463 . S
C1490 N1494 1.427 . S
C1491 H1481 0.929 1_655 S
C1491 C1489 1.433 . S
C1491 N1494 1.384 . S
C1492 H1483 0.929 . S
C1492 C1484 1.378 . S
C1492 C1487 1.350 . S
C1493 H1480 0.929 . S
C1493 C1485 1.433 . S
C1493 N1495 1.384 . S
N1494 C1490 1.427 . S
N1494 C1491 1.384 . S
N1495 C1487 1.427 . S
N1495 C1493 1.384 . S
H1496 C1502 0.919 1_565 S
H1497 C1506 0.930 . S
H1498 C1511 0.929 . S
H1499 C1509 0.929 . S
H1500 C1504 0.929 . S
H1501 C1510 0.929 . S
C1502 H1496 0.919 1_545 S
C1502 C1503 1.367 . S
C1502 C1510 1.378 . S
C1503 C1502 1.367 . S
C1503 C1511 1.433 . S
C1504 H1500 0.929 . S
C1504 C1506 1.378 . S
C1504 C1508 1.350 . S
C1505 C1508 1.463 . S
C1505 C1510 1.350 . S
C1505 N1513 1.427 . S
C1506 H1497 0.930 . S
C1506 C1504 1.378 . S
C1506 C1507 1.367 . S
C1507 C1506 1.367 . S
C1507 C1509 1.433 . S
C1508 C1504 1.350 . S
C1508 C1505 1.463 . S
C1508 N1512 1.427 . S
C1509 H1499 0.929 . S
C1509 C1507 1.433 . S
C1509 N1512 1.384 . S
C1510 H1501 0.929 . S
C1510 C1502 1.378 . S
C1510 C1505 1.350 . S
C1511 H1498 0.929 . S
C1511 C1503 1.433 . S
C1511 N1513 1.384 . S
N1512 C1508 1.427 . S
N1512 C1509 1.384 . S
N1513 C1505 1.427 . S
N1513 C1511 1.384 . S
H1514 C1520 0.930 . S
H1515 C1524 0.930 1_455 S
H1516 C1529 0.929 . S
H1517 C1527 0.929 . S
H1518 C1522 0.929 . S
H1519 C1528 0.929 . S
C1520 H1514 0.930 . S
C1520 C1521 1.367 . S
C1520 C1528 1.378 . S
C1521 C1520 1.367 . S
C1521 C1529 1.433 . S
C1522 H1518 0.929 . S
C1522 C1524 1.378 . S
C1522 C1526 1.350 . S
C1523 C1526 1.463 . S
C1523 C1528 1.350 . S
C1523 N1531 1.427 . S
C1524 H1515 0.930 1_655 S
C1524 C1522 1.378 . S
C1524 C1525 1.367 . S
C1525 C1524 1.367 . S
C1525 C1527 1.433 . S
C1526 C1522 1.350 . S
C1526 C1523 1.463 . S
C1526 N1530 1.427 . S
C1527 H1517 0.929 . S
C1527 C1525 1.433 . S
C1527 N1530 1.384 . S
C1528 H1519 0.929 . S
C1528 C1520 1.378 . S
C1528 C1523 1.350 . S
C1529 H1516 0.929 . S
C1529 C1521 1.433 . S
C1529 N1531 1.384 . S
N1530 C1526 1.427 . S
N1530 C1527 1.384 . S
N1531 C1523 1.427 . S
N1531 C1529 1.384 . S
H1532 C1538 0.930 . S
H1533 C1542 0.930 1_545 S
H1534 C1547 0.929 . S
H1535 C1545 0.929 . S
H1536 C1540 0.929 . S
H1537 C1546 0.929 . S
C1538 H1532 0.930 . S
C1538 C1539 1.367 . S
C1538 C1546 1.378 . S
C1539 C1538 1.367 . S
C1539 C1547 1.433 . S
C1540 H1536 0.929 . S
C1540 C1542 1.378 . S
C1540 C1544 1.350 . S
C1541 C1544 1.463 . S
C1541 C1546 1.350 . S
C1541 N1549 1.427 . S
C1542 H1533 0.930 1_565 S
C1542 C1540 1.378 . S
C1542 C1543 1.367 . S
C1543 C1542 1.367 . S
C1543 C1545 1.433 . S
C1544 C1540 1.350 . S
C1544 C1541 1.463 . S
C1544 N1548 1.427 . S
C1545 H1535 0.929 . S
C1545 C1543 1.433 . S
C1545 N1548 1.384 . S
C1546 H1537 0.929 . S
C1546 C1538 1.378 . S
C1546 C1541 1.350 . S
C1547 H1534 0.929 . S
C1547 C1539 1.433 . S
C1547 N1549 1.384 . S
N1548 C1544 1.427 . S
N1548 C1545 1.384 . S
N1549 C1541 1.427 . S
N1549 C1547 1.384 . S
H1550 C1556 0.930 . S
H1551 C1560 0.930 . S
H1552 C1565 0.929 . S
H1553 C1563 0.929 . S
H1554 C1558 0.929 . S
H1555 C1564 0.929 . S
C1556 H1550 0.930 . S
C1556 C1557 1.367 . S
C1556 C1564 1.378 . S
C1557 C1556 1.367 . S
C1557 C1565 1.433 . S
C1558 H1554 0.929 . S
C1558 C1560 1.378 . S
C1558 C1562 1.350 . S
C1559 C1562 1.463 . S
C1559 C1564 1.350 . S
C1559 N1567 1.427 . S
C1560 H1551 0.930 . S
C1560 C1558 1.378 . S
C1560 C1561 1.367 . S
C1561 C1560 1.367 . S
C1561 C1563 1.433 . S
C1562 C1558 1.350 . S
C1562 C1559 1.463 . S
C1562 N1566 1.427 . S
C1563 H1553 0.929 . S
C1563 C1561 1.433 . S
C1563 N1566 1.384 . S
C1564 H1555 0.929 . S
C1564 C1556 1.378 . S
C1564 C1559 1.350 . S
C1565 H1552 0.929 . S
C1565 C1557 1.433 . S
C1565 N1567 1.384 . S
N1566 C1562 1.427 . S
N1566 C1563 1.384 . S
N1567 C1559 1.427 . S
N1567 C1565 1.384 . S
H1568 C1574 0.930 . S
H1569 C1578 0.930 . S
H1570 C1583 0.929 . S
H1571 C1581 0.929 . S
H1572 C1576 0.929 . S
H1573 C1582 0.929 . S
C1574 H1568 0.930 . S
C1574 C1575 1.367 . S
C1574 C1582 1.378 . S
C1575 C1574 1.367 . S
C1575 C1583 1.433 . S
C1576 H1572 0.929 . S
C1576 C1578 1.378 . S
C1576 C1580 1.350 . S
C1577 C1580 1.463 . S
C1577 C1582 1.350 . S
C1577 N1585 1.427 . S
C1578 H1569 0.930 . S
C1578 C1576 1.378 . S
C1578 C1579 1.367 . S
C1579 C1578 1.367 . S
C1579 C1581 1.433 . S
C1580 C1576 1.350 . S
C1580 C1577 1.463 . S
C1580 N1584 1.427 . S
C1581 H1571 0.929 . S
C1581 C1579 1.433 . S
C1581 N1584 1.384 . S
C1582 H1573 0.929 . S
C1582 C1574 1.378 . S
C1582 C1577 1.350 . S
C1583 H1570 0.929 . S
C1583 C1575 1.433 . S
C1583 N1585 1.384 . S
N1584 C1580 1.427 . S
N1584 C1581 1.384 . S
N1585 C1577 1.427 . S
N1585 C1583 1.384 . S
H1586 C1592 0.930 . S
H1587 C1596 0.930 . S
H1588 C1601 0.929 . S
H1589 C1599 0.929 . S
H1590 C1594 0.929 . S
H1591 C1600 0.929 . S
C1592 H1586 0.930 . S
C1592 C1593 1.367 . S
C1592 C1600 1.378 . S
C1593 C1592 1.367 . S
C1593 C1601 1.433 . S
C1594 H1590 0.929 . S
C1594 C1596 1.378 . S
C1594 C1598 1.350 . S
C1595 C1598 1.463 . S
C1595 C1600 1.350 . S
C1595 N1603 1.427 . S
C1596 H1587 0.930 . S
C1596 C1594 1.378 . S
C1596 C1597 1.367 . S
C1597 C1596 1.367 . S
C1597 C1599 1.433 . S
C1598 C1594 1.350 . S
C1598 C1595 1.463 . S
C1598 N1602 1.427 . S
C1599 H1589 0.929 . S
C1599 C1597 1.433 . S
C1599 N1602 1.384 . S
C1600 H1591 0.929 . S
C1600 C1592 1.378 . S
C1600 C1595 1.350 . S
C1601 H1588 0.929 . S
C1601 C1593 1.433 . S
C1601 N1603 1.384 . S
N1602 C1598 1.427 . S
N1602 C1599 1.384 . S
N1603 C1595 1.427 . S
N1603 C1601 1.384 . S
H1604 C1610 0.930 . S
H1605 C1614 0.930 . S
H1606 C1619 0.929 . S
H1607 C1617 0.929 . S
H1608 C1612 0.929 . S
H1609 C1618 0.929 . S
C1610 H1604 0.930 . S
C1610 C1611 1.367 . S
C1610 C1618 1.378 . S
C1611 C1610 1.367 . S
C1611 C1619 1.433 . S
C1612 H1608 0.929 . S
C1612 C1614 1.378 . S
C1612 C1616 1.350 . S
C1613 C1616 1.463 . S
C1613 C1618 1.350 . S
C1613 N1621 1.427 . S
C1614 H1605 0.930 . S
C1614 C1612 1.378 . S
C1614 C1615 1.367 . S
C1615 C1614 1.367 . S
C1615 C1617 1.433 . S
C1616 C1612 1.350 . S
C1616 C1613 1.463 . S
C1616 N1620 1.427 . S
C1617 H1607 0.929 . S
C1617 C1615 1.433 . S
C1617 N1620 1.384 . S
C1618 H1609 0.929 . S
C1618 C1610 1.378 . S
C1618 C1613 1.350 . S
C1619 H1606 0.929 . S
C1619 C1611 1.433 . S
C1619 N1621 1.384 . S
N1620 C1616 1.427 . S
N1620 C1617 1.384 . S
N1621 C1613 1.427 . S
N1621 C1619 1.384 . S
H1622 C1628 0.930 . S
H1623 C1632 0.930 . S
H1624 C1637 0.929 . S
H1625 C1635 0.929 . S
H1626 C1630 0.929 . S
H1627 C1636 0.929 . S
C1628 H1622 0.930 . S
C1628 C1629 1.367 . S
C1628 C1636 1.378 . S
C1629 C1628 1.367 . S
C1629 C1637 1.433 . S
C1630 H1626 0.929 . S
C1630 C1632 1.378 . S
C1630 C1634 1.350 . S
C1631 C1634 1.463 . S
C1631 C1636 1.350 . S
C1631 N1639 1.427 . S
C1632 H1623 0.930 . S
C1632 C1630 1.378 . S
C1632 C1633 1.367 . S
C1633 C1632 1.367 . S
C1633 C1635 1.433 . S
C1634 C1630 1.350 . S
C1634 C1631 1.463 . S
C1634 N1638 1.427 . S
C1635 H1625 0.929 . S
C1635 C1633 1.433 . S
C1635 N1638 1.384 . S
C1636 H1627 0.929 . S
C1636 C1628 1.378 . S
C1636 C1631 1.350 . S
C1637 H1624 0.929 . S
C1637 C1629 1.433 . S
C1637 N1639 1.384 . S
N1638 C1634 1.427 . S
N1638 C1635 1.384 . S
N1639 C1631 1.427 . S
N1639 C1637 1.384 . S
H1640 C1646 0.930 . S
H1641 C1650 0.930 . S
H1642 C1655 0.929 . S
H1643 C1653 0.929 . S
H1644 C1648 0.929 . S
H1645 C1654 0.929 . S
C1646 H1640 0.930 . S
C1646 C1647 1.367 . S
C1646 C1654 1.378 . S
C1647 C1646 1.367 . S
C1647 C1655 1.433 . S
C1648 H1644 0.929 . S
C1648 C1650 1.378 . S
C1648 C1652 1.350 . S
C1649 C1652 1.463 . S
C1649 C1654 1.350 . S
C1649 N1657 1.427 . S
C1650 H1641 0.930 . S
C1650 C1648 1.378 . S
C1650 C1651 1.367 . S
C1651 C1650 1.367 . S
C1651 C1653 1.433 . S
C1652 C1648 1.350 . S
C1652 C1649 1.463 . S
C1652 N1656 1.427 . S
C1653 H1643 0.929 . S
C1653 C1651 1.433 . S
C1653 N1656 1.384 . S
C1654 H1645 0.929 . S
C1654 C1646 1.378 . S
C1654 C1649 1.350 . S
C1655 H1642 0.929 . S
C1655 C1647 1.433 . S
C1655 N1657 1.384 . S
N1656 C1652 1.427 . S
N1656 C1653 1.384 . S
N1657 C1649 1.427 . S
N1657 C1655 1.384 . S
H1658 C1664 0.930 . S
H1659 C1668 0.930 . S
H1660 C1673 0.929 . S
H1661 C1671 0.929 . S
H1662 C1666 0.929 . S
H1663 C1672 0.929 . S
C1664 H1658 0.930 . S
C1664 C1665 1.367 . S
C1664 C1672 1.378 . S
C1665 C1664 1.367 . S
C1665 C1673 1.433 . S
C1666 H1662 0.929 . S
C1666 C1668 1.378 . S
C1666 C1670 1.350 . S
C1667 C1670 1.463 . S
C1667 C1672 1.350 . S
C1667 N1675 1.427 . S
C1668 H1659 0.930 . S
C1668 C1666 1.378 . S
C1668 C1669 1.367 . S
C1669 C1668 1.367 . S
C1669 C1671 1.433 . S
C1670 C1666 1.350 . S
C1670 C1667 1.463 . S
C1670 N1674 1.427 . S
C1671 H1661 0.929 . S
C1671 C1669 1.433 . S
C1671 N1674 1.384 . S
C1672 H1663 0.929 . S
C1672 C1664 1.378 . S
C1672 C1667 1.350 . S
C1673 H1660 0.929 . S
C1673 C1665 1.433 . S
C1673 N1675 1.384 . S
N1674 C1670 1.427 . S
N1674 C1671 1.384 . S
N1675 C1667 1.427 . S
N1675 C1673 1.384 . S
H1676 C1682 0.930 . S
H1677 C1686 0.930 . S
H1678 C1691 0.929 . S
H1679 C1689 0.929 . S
H1680 C1684 0.929 . S
H1681 C1690 0.929 . S
C1682 H1676 0.930 . S
C1682 C1683 1.367 . S
C1682 C1690 1.378 . S
C1683 C1682 1.367 . S
C1683 C1691 1.433 . S
C1684 H1680 0.929 . S
C1684 C1686 1.378 . S
C1684 C1688 1.350 . S
C1685 C1688 1.463 . S
C1685 C1690 1.350 . S
C1685 N1693 1.427 . S
C1686 H1677 0.930 . S
C1686 C1684 1.378 . S
C1686 C1687 1.367 . S
C1687 C1686 1.367 . S
C1687 C1689 1.433 . S
C1688 C1684 1.350 . S
C1688 C1685 1.463 . S
C1688 N1692 1.427 . S
C1689 H1679 0.929 . S
C1689 C1687 1.433 . S
C1689 N1692 1.384 . S
C1690 H1681 0.929 . S
C1690 C1682 1.378 . S
C1690 C1685 1.350 . S
C1691 H1678 0.929 . S
C1691 C1683 1.433 . S
C1691 N1693 1.384 . S
N1692 C1688 1.427 . S
N1692 C1689 1.384 . S
N1693 C1685 1.427 . S
N1693 C1691 1.384 . S
H1694 C1700 0.930 . S
H1695 C1704 0.930 . S
H1696 C1709 0.929 . S
H1697 C1707 0.929 . S
H1698 C1702 0.929 . S
H1699 C1708 0.929 . S
C1700 H1694 0.930 . S
C1700 C1701 1.367 . S
C1700 C1708 1.378 . S
C1701 C1700 1.367 . S
C1701 C1709 1.433 . S
C1702 H1698 0.929 . S
C1702 C1704 1.378 . S
C1702 C1706 1.350 . S
C1703 C1706 1.463 . S
C1703 C1708 1.350 . S
C1703 N1711 1.427 . S
C1704 H1695 0.930 . S
C1704 C1702 1.378 . S
C1704 C1705 1.367 . S
C1705 C1704 1.367 . S
C1705 C1707 1.433 . S
C1706 C1702 1.350 . S
C1706 C1703 1.463 . S
C1706 N1710 1.427 . S
C1707 H1697 0.929 . S
C1707 C1705 1.433 . S
C1707 N1710 1.384 . S
C1708 H1699 0.929 . S
C1708 C1700 1.378 . S
C1708 C1703 1.350 . S
C1709 H1696 0.929 . S
C1709 C1701 1.433 . S
C1709 N1711 1.384 . S
N1710 C1706 1.427 . S
N1710 C1707 1.384 . S
N1711 C1703 1.427 . S
N1711 C1709 1.384 . S
H1712 C1718 0.930 . S
H1713 C1722 0.930 . S
H1714 C1727 0.929 . S
H1715 C1725 0.929 . S
H1716 C1720 0.929 . S
H1717 C1726 0.929 . S
C1718 H1712 0.930 . S
C1718 C1719 1.367 . S
C1718 C1726 1.378 . S
C1719 C1718 1.367 . S
C1719 C1727 1.433 . S
C1720 H1716 0.929 . S
C1720 C1722 1.378 . S
C1720 C1724 1.350 . S
C1721 C1724 1.463 . S
C1721 C1726 1.350 . S
C1721 N1729 1.427 . S
C1722 H1713 0.930 . S
C1722 C1720 1.378 . S
C1722 C1723 1.367 . S
C1723 C1722 1.367 . S
C1723 C1725 1.433 . S
C1724 C1720 1.350 . S
C1724 C1721 1.463 . S
C1724 N1728 1.427 . S
C1725 H1715 0.929 . S
C1725 C1723 1.433 . S
C1725 N1728 1.384 . S
C1726 H1717 0.929 . S
C1726 C1718 1.378 . S
C1726 C1721 1.350 . S
C1727 H1714 0.929 . S
C1727 C1719 1.433 . S
C1727 N1729 1.384 . S
N1728 C1724 1.427 . S
N1728 C1725 1.384 . S
N1729 C1721 1.427 . S
N1729 C1727 1.384 . S
H1730 C1736 0.930 . S
H1731 C1740 0.930 . S
H1732 C1745 0.929 . S
H1733 C1743 0.929 . S
H1734 C1738 0.929 . S
H1735 C1744 0.929 . S
C1736 H1730 0.930 . S
C1736 C1737 1.367 . S
C1736 C1744 1.378 . S
C1737 C1736 1.367 . S
C1737 C1745 1.433 . S
C1738 H1734 0.929 . S
C1738 C1740 1.378 . S
C1738 C1742 1.350 . S
C1739 C1742 1.463 . S
C1739 C1744 1.350 . S
C1739 N1747 1.427 . S
C1740 H1731 0.930 . S
C1740 C1738 1.378 . S
C1740 C1741 1.367 . S
C1741 C1740 1.367 . S
C1741 C1743 1.433 . S
C1742 C1738 1.350 . S
C1742 C1739 1.463 . S
C1742 N1746 1.427 . S
C1743 H1733 0.929 . S
C1743 C1741 1.433 . S
C1743 N1746 1.384 . S
C1744 H1735 0.929 . S
C1744 C1736 1.378 . S
C1744 C1739 1.350 . S
C1745 H1732 0.929 . S
C1745 C1737 1.433 . S
C1745 N1747 1.384 . S
N1746 C1742 1.427 . S
N1746 C1743 1.384 . S
N1747 C1739 1.427 . S
N1747 C1745 1.384 . S
H1748 C1754 0.930 . S
H1749 C1758 0.930 . S
H1750 C1763 0.929 . S
H1751 C1761 0.929 . S
H1752 C1756 0.929 . S
H1753 C1762 0.929 . S
C1754 H1748 0.930 . S
C1754 C1755 1.367 . S
C1754 C1762 1.378 . S
C1755 C1754 1.367 . S
C1755 C1763 1.433 . S
C1756 H1752 0.929 . S
C1756 C1758 1.378 . S
C1756 C1760 1.350 . S
C1757 C1760 1.463 . S
C1757 C1762 1.350 . S
C1757 N1765 1.427 . S
C1758 H1749 0.930 . S
C1758 C1756 1.378 . S
C1758 C1759 1.367 . S
C1759 C1758 1.367 . S
C1759 C1761 1.433 . S
C1760 C1756 1.350 . S
C1760 C1757 1.463 . S
C1760 N1764 1.427 . S
C1761 H1751 0.929 . S
C1761 C1759 1.433 . S
C1761 N1764 1.384 . S
C1762 H1753 0.929 . S
C1762 C1754 1.378 . S
C1762 C1757 1.350 . S
C1763 H1750 0.929 . S
C1763 C1755 1.433 . S
C1763 N1765 1.384 . S
N1764 C1760 1.427 . S
N1764 C1761 1.384 . S
N1765 C1757 1.427 . S
N1765 C1763 1.384 . S
H1766 C1772 0.930 . S
H1767 C1776 0.930 . S
H1768 C1781 0.929 . S
H1769 C1779 0.929 . S
H1770 C1774 0.929 . S
H1771 C1780 0.929 . S
C1772 H1766 0.930 . S
C1772 C1773 1.367 . S
C1772 C1780 1.378 . S
C1773 C1772 1.367 . S
C1773 C1781 1.433 . S
C1774 H1770 0.929 . S
C1774 C1776 1.378 . S
C1774 C1778 1.350 . S
C1775 C1778 1.463 . S
C1775 C1780 1.350 . S
C1775 N1783 1.427 . S
C1776 H1767 0.930 . S
C1776 C1774 1.378 . S
C1776 C1777 1.367 . S
C1777 C1776 1.367 . S
C1777 C1779 1.433 . S
C1778 C1774 1.350 . S
C1778 C1775 1.463 . S
C1778 N1782 1.427 . S
C1779 H1769 0.929 . S
C1779 C1777 1.433 . S
C1779 N1782 1.384 . S
C1780 H1771 0.929 . S
C1780 C1772 1.378 . S
C1780 C1775 1.350 . S
C1781 H1768 0.929 . S
C1781 C1773 1.433 . S
C1781 N1783 1.384 . S
N1782 C1778 1.427 . S
N1782 C1779 1.384 . S
N1783 C1775 1.427 . S
N1783 C1781 1.384 . S
H1784 C1790 0.930 . S
H1785 C1794 0.930 . S
H1786 C1799 0.929 . S
H1787 C1797 0.929 . S
H1788 C1792 0.929 . S
H1789 C1798 0.929 . S
C1790 H1784 0.930 . S
C1790 C1791 1.367 . S
C1790 C1798 1.378 . S
C1791 C1790 1.367 . S
C1791 C1799 1.433 . S
C1792 H1788 0.929 . S
C1792 C1794 1.378 . S
C1792 C1796 1.350 . S
C1793 C1796 1.463 . S
C1793 C1798 1.350 . S
C1793 N1801 1.427 . S
C1794 H1785 0.930 . S
C1794 C1792 1.378 . S
C1794 C1795 1.367 . S
C1795 C1794 1.367 . S
C1795 C1797 1.433 . S
C1796 C1792 1.350 . S
C1796 C1793 1.463 . S
C1796 N1800 1.427 . S
C1797 H1787 0.929 . S
C1797 C1795 1.433 . S
C1797 N1800 1.384 . S
C1798 H1789 0.929 . S
C1798 C1790 1.378 . S
C1798 C1793 1.350 . S
C1799 H1786 0.929 . S
C1799 C1791 1.433 . S
C1799 N1801 1.384 . S
N1800 C1796 1.427 . S
N1800 C1797 1.384 . S
N1801 C1793 1.427 . S
N1801 C1799 1.384 . S
H1802 C1808 0.930 . S
H1803 C1812 0.930 . S
H1804 C1817 0.929 . S
H1805 C1815 0.929 . S
H1806 C1810 0.929 . S
H1807 C1816 0.929 . S
C1808 H1802 0.930 . S
C1808 C1809 1.367 . S
C1808 C1816 1.378 . S
C1809 C1808 1.367 . S
C1809 C1817 1.433 . S
C1810 H1806 0.929 . S
C1810 C1812 1.378 . S
C1810 C1814 1.350 . S
C1811 C1814 1.463 . S
C1811 C1816 1.350 . S
C1811 N1819 1.427 . S
C1812 H1803 0.930 . S
C1812 C1810 1.378 . S
C1812 C1813 1.367 . S
C1813 C1812 1.367 . S
C1813 C1815 1.433 . S
C1814 C1810 1.350 . S
C1814 C1811 1.463 . S
C1814 N1818 1.427 . S
C1815 H1805 0.929 . S
C1815 C1813 1.433 . S
C1815 N1818 1.384 . S
C1816 H1807 0.929 . S
C1816 C1808 1.378 . S
C1816 C1811 1.350 . S
C1817 H1804 0.929 . S
C1817 C1809 1.433 . S
C1817 N1819 1.384 . S
N1818 C1814 1.427 . S
N1818 C1815 1.384 . S
N1819 C1811 1.427 . S
N1819 C1817 1.384 . S
H1820 C1826 0.930 . S
H1821 C1830 0.930 . S
H1822 C1835 0.929 . S
H1823 C1833 0.929 . S
H1824 C1828 0.929 . S
H1825 C1834 0.929 . S
C1826 H1820 0.930 . S
C1826 C1827 1.367 . S
C1826 C1834 1.378 . S
C1827 C1826 1.367 . S
C1827 C1835 1.433 . S
C1828 H1824 0.929 . S
C1828 C1830 1.378 . S
C1828 C1832 1.350 . S
C1829 C1832 1.463 . S
C1829 C1834 1.350 . S
C1829 N1837 1.427 . S
C1830 H1821 0.930 . S
C1830 C1828 1.378 . S
C1830 C1831 1.367 . S
C1831 C1830 1.367 . S
C1831 C1833 1.433 . S
C1832 C1828 1.350 . S
C1832 C1829 1.463 . S
C1832 N1836 1.427 . S
C1833 H1823 0.929 . S
C1833 C1831 1.433 . S
C1833 N1836 1.384 . S
C1834 H1825 0.929 . S
C1834 C1826 1.378 . S
C1834 C1829 1.350 . S
C1835 H1822 0.929 . S
C1835 C1827 1.433 . S
C1835 N1837 1.384 . S
N1836 C1832 1.427 . S
N1836 C1833 1.384 . S
N1837 C1829 1.427 . S
N1837 C1835 1.384 . S
H1838 C1844 0.930 . S
H1839 C1848 0.930 . S
H1840 C1853 0.929 . S
H1841 C1851 0.929 . S
H1842 C1846 0.929 . S
H1843 C1852 0.929 . S
C1844 H1838 0.930 . S
C1844 C1845 1.367 . S
C1844 C1852 1.378 . S
C1845 C1844 1.367 . S
C1845 C1853 1.433 . S
C1846 H1842 0.929 . S
C1846 C1848 1.378 . S
C1846 C1850 1.350 . S
C1847 C1850 1.463 . S
C1847 C1852 1.350 . S
C1847 N1855 1.427 . S
C1848 H1839 0.930 . S
C1848 C1846 1.378 . S
C1848 C1849 1.367 . S
C1849 C1848 1.367 . S
C1849 C1851 1.433 . S
C1850 C1846 1.350 . S
C1850 C1847 1.463 . S
C1850 N1854 1.427 . S
C1851 H1841 0.929 . S
C1851 C1849 1.433 . S
C1851 N1854 1.384 . S
C1852 H1843 0.929 . S
C1852 C1844 1.378 . S
C1852 C1847 1.350 . S
C1853 H1840 0.929 . S
C1853 C1845 1.433 . S
C1853 N1855 1.384 . S
N1854 C1850 1.427 . S
N1854 C1851 1.384 . S
N1855 C1847 1.427 . S
N1855 C1853 1.384 . S
H1856 C1862 0.930 . S
H1857 C1866 0.930 . S
H1858 C1871 0.929 . S
H1859 C1869 0.929 . S
H1860 C1864 0.929 . S
H1861 C1870 0.929 . S
C1862 H1856 0.930 . S
C1862 C1863 1.367 . S
C1862 C1870 1.378 . S
C1863 C1862 1.367 . S
C1863 C1871 1.433 . S
C1864 H1860 0.929 . S
C1864 C1866 1.378 . S
C1864 C1868 1.350 . S
C1865 C1868 1.463 1_455 S
C1865 C1870 1.350 . S
C1865 N1873 1.427 . S
C1866 H1857 0.930 . S
C1866 C1864 1.378 . S
C1866 C1867 1.367 . S
C1867 C1866 1.367 . S
C1867 C1869 1.433 . S
C1868 C1864 1.350 . S
C1868 C1865 1.463 1_655 S
C1868 N1872 1.427 . S
C1869 H1859 0.929 . S
C1869 C1867 1.433 . S
C1869 N1872 1.384 . S
C1870 H1861 0.929 . S
C1870 C1862 1.378 . S
C1870 C1865 1.350 . S
C1871 H1858 0.929 . S
C1871 C1863 1.433 . S
C1871 N1873 1.384 . S
N1872 C1868 1.427 . S
N1872 C1869 1.384 . S
N1873 C1865 1.427 . S
N1873 C1871 1.384 . S
H1874 C1880 0.930 . S
H1875 C1884 0.930 . S
H1876 C1889 0.929 . S
H1877 C1887 0.929 . S
H1878 C1882 0.962 . S
H1879 C1888 0.962 . S
C1880 H1874 0.930 . S
C1880 C1881 1.367 . S
C1880 C1888 1.357 1_565 S
C1881 C1880 1.367 . S
C1881 C1889 1.433 . S
C1882 H1878 0.962 . S
C1882 C1884 1.357 1_565 S
C1882 C1886 1.338 1_565 S
C1883 C1886 1.463 1_565 S
C1883 C1888 1.338 1_565 S
C1883 N1891 1.427 . S
C1884 H1875 0.930 . S
C1884 C1882 1.357 1_545 S
C1884 C1885 1.367 . S
C1885 C1884 1.367 . S
C1885 C1887 1.433 . S
C1886 C1882 1.338 1_545 S
C1886 C1883 1.463 1_545 S
C1886 N1890 1.427 . S
C1887 H1877 0.929 . S
C1887 C1885 1.433 . S
C1887 N1890 1.384 . S
C1888 H1879 0.962 . S
C1888 C1880 1.357 1_545 S
C1888 C1883 1.338 1_545 S
C1889 H1876 0.929 . S
C1889 C1881 1.433 . S
C1889 N1891 1.384 . S
N1890 C1886 1.427 . S
N1890 C1887 1.384 . S
N1891 C1883 1.427 . S
N1891 C1889 1.384 . S
H1892 C1898 0.930 . S
H1893 C1902 0.930 . S
H1894 C1907 0.929 . S
H1895 C1905 0.929 . S
H1896 C1900 0.929 . S
H1897 C1906 0.929 . S
C1898 H1892 0.930 . S
C1898 C1899 1.367 . S
C1898 C1906 1.378 . S
C1899 C1898 1.367 . S
C1899 C1907 1.433 . S
C1900 H1896 0.929 . S
C1900 C1902 1.378 . S
C1900 C1904 1.350 . S
C1901 C1904 1.463 1_655 S
C1901 C1906 1.350 . S
C1901 N1909 1.427 . S
C1902 H1893 0.930 . S
C1902 C1900 1.378 . S
C1902 C1903 1.367 . S
C1903 C1902 1.367 . S
C1903 C1905 1.433 . S
C1904 C1900 1.350 . S
C1904 C1901 1.463 1_455 S
C1904 N1908 1.427 . S
C1905 H1895 0.929 . S
C1905 C1903 1.433 . S
C1905 N1908 1.384 . S
C1906 H1897 0.929 . S
C1906 C1898 1.378 . S
C1906 C1901 1.350 . S
C1907 H1894 0.929 . S
C1907 C1899 1.433 . S
C1907 N1909 1.384 . S
N1908 C1904 1.427 . S
N1908 C1905 1.384 . S
N1909 C1901 1.427 . S
N1909 C1907 1.384 . S
H1910 C1916 0.930 . S
H1911 C1920 0.930 . S
H1912 C1925 0.929 . S
H1913 C1923 0.929 . S
H1914 C1918 0.929 . S
H1915 C1924 0.929 . S
C1916 H1910 0.930 . S
C1916 C1917 1.367 . S
C1916 C1924 1.378 . S
C1917 C1916 1.367 . S
C1917 C1925 1.433 . S
C1918 H1914 0.929 . S
C1918 C1920 1.378 . S
C1918 C1922 1.350 . S
C1919 C1922 1.463 1_545 S
C1919 C1924 1.350 . S
C1919 N1927 1.427 . S
C1920 H1911 0.930 . S
C1920 C1918 1.378 . S
C1920 C1921 1.367 . S
C1921 C1920 1.367 . S
C1921 C1923 1.433 . S
C1922 C1918 1.350 . S
C1922 C1919 1.463 1_565 S
C1922 N1926 1.427 . S
C1923 H1913 0.929 . S
C1923 C1921 1.433 . S
C1923 N1926 1.384 . S
C1924 H1915 0.929 . S
C1924 C1916 1.378 . S
C1924 C1919 1.350 . S
C1925 H1912 0.929 . S
C1925 C1917 1.433 . S
C1925 N1927 1.384 . S
N1926 C1922 1.427 . S
N1926 C1923 1.384 . S
N1927 C1919 1.427 . S
N1927 C1925 1.384 . S
H1928 C1934 0.930 . S
H1929 C1938 0.930 . S
H1930 C1943 0.929 . S
H1931 C1941 0.929 . S
H1932 C1936 0.918 1_655 S
H1933 C1942 0.918 1_455 S
C1934 H1928 0.930 . S
C1934 C1935 1.367 . S
C1934 C1942 1.385 . S
C1935 C1934 1.367 . S
C1935 C1943 1.433 . S
C1936 H1932 0.918 1_455 S
C1936 C1938 1.385 . S
C1936 C1940 1.354 . S
C1937 C1940 1.463 1_655 S
C1937 C1942 1.354 . S
C1937 N1945 1.427 . S
C1938 H1929 0.930 . S
C1938 C1936 1.385 . S
C1938 C1939 1.367 . S
C1939 C1938 1.367 . S
C1939 C1941 1.433 . S
C1940 C1936 1.354 . S
C1940 C1937 1.463 1_455 S
C1940 N1944 1.427 . S
C1941 H1931 0.929 . S
C1941 C1939 1.433 . S
C1941 N1944 1.384 . S
C1942 H1933 0.918 1_655 S
C1942 C1934 1.385 . S
C1942 C1937 1.354 . S
C1943 H1930 0.929 . S
C1943 C1935 1.433 . S
C1943 N1945 1.384 . S
N1944 C1940 1.427 . S
N1944 C1941 1.384 . S
N1945 C1937 1.427 . S
N1945 C1943 1.384 . S
H1946 C1952 0.930 . S
H1947 C1956 0.930 . S
H1948 C1961 0.929 . S
H1949 C1959 0.929 . S
H1950 C1954 0.929 . S
H1951 C1960 0.929 . S
C1952 H1946 0.930 . S
C1952 C1953 1.367 . S
C1952 C1960 1.378 . S
C1953 C1952 1.367 . S
C1953 C1961 1.433 . S
C1954 H1950 0.929 . S
C1954 C1956 1.378 . S
C1954 C1958 1.350 . S
C1955 C1958 1.463 1_545 S
C1955 C1960 1.350 . S
C1955 N1963 1.427 1_545 S
C1956 H1947 0.930 . S
C1956 C1954 1.378 . S
C1956 C1957 1.367 . S
C1957 C1956 1.367 . S
C1957 C1959 1.433 . S
C1958 C1954 1.350 . S
C1958 C1955 1.463 1_565 S
C1958 N1962 1.427 1_565 S
C1959 H1949 0.929 . S
C1959 C1957 1.433 . S
C1959 N1962 1.384 1_565 S
C1960 H1951 0.929 . S
C1960 C1952 1.378 . S
C1960 C1955 1.350 . S
C1961 H1948 0.929 . S
C1961 C1953 1.433 . S
C1961 N1963 1.384 1_545 S
N1962 C1958 1.427 1_545 S
N1962 C1959 1.384 1_545 S
N1963 C1955 1.427 1_565 S
N1963 C1961 1.384 1_565 S
H1964 C1970 0.930 . S
H1965 C1974 0.930 . S
H1966 C1979 0.929 . S
H1967 C1977 0.929 . S
H1968 C1972 0.929 . S
H1969 C1978 0.929 . S
C1970 H1964 0.930 . S
C1970 C1971 1.367 . S
C1970 C1978 1.378 . S
C1971 C1970 1.367 . S
C1971 C1979 1.433 . S
C1972 H1968 0.929 . S
C1972 C1974 1.378 . S
C1972 C1976 1.350 . S
C1973 C1976 1.463 1_655 S
C1973 C1978 1.350 . S
C1973 N1981 1.427 . S
C1974 H1965 0.930 . S
C1974 C1972 1.378 . S
C1974 C1975 1.367 . S
C1975 C1974 1.367 . S
C1975 C1977 1.433 . S
C1976 C1972 1.350 . S
C1976 C1973 1.463 1_455 S
C1976 N1980 1.427 . S
C1977 H1967 0.929 . S
C1977 C1975 1.433 . S
C1977 N1980 1.384 . S
C1978 H1969 0.929 . S
C1978 C1970 1.378 . S
C1978 C1973 1.350 . S
C1979 H1966 0.929 . S
C1979 C1971 1.433 . S
C1979 N1981 1.384 . S
N1980 C1976 1.427 . S
N1980 C1977 1.384 . S
N1981 C1973 1.427 . S
N1981 C1979 1.384 . S
H1982 C1988 0.930 . S
H1983 C1992 0.930 . S
H1984 C1997 0.929 . S
H1985 C1995 0.929 . S
H1986 C1990 0.929 . S
H1987 C1996 0.929 . S
C1988 H1982 0.930 . S
C1988 C1989 1.367 . S
C1988 C1996 1.378 1_565 S
C1989 C1988 1.367 . S
C1989 C1997 1.433 . S
C1990 H1986 0.929 . S
C1990 C1992 1.378 1_565 S
C1990 C1994 1.350 1_565 S
C1991 C1994 1.463 1_565 S
C1991 C1996 1.350 1_565 S
C1991 N1999 1.427 . S
C1992 H1983 0.930 . S
C1992 C1990 1.378 1_545 S
C1992 C1993 1.367 . S
C1993 C1992 1.367 . S
C1993 C1995 1.433 . S
C1994 C1990 1.350 1_545 S
C1994 C1991 1.463 1_545 S
C1994 N1998 1.427 . S
C1995 H1985 0.929 . S
C1995 C1993 1.433 . S
C1995 N1998 1.384 . S
C1996 H1987 0.929 . S
C1996 C1988 1.378 1_545 S
C1996 C1991 1.350 1_545 S
C1997 H1984 0.929 . S
C1997 C1989 1.433 . S
C1997 N1999 1.384 . S
N1998 C1994 1.427 . S
N1998 C1995 1.384 . S
N1999 C1991 1.427 . S
N1999 C1997 1.384 . S
H2000 C2006 0.930 . S
H2001 C2010 0.930 . S
H2002 C2015 0.929 . S
H2003 C2013 0.929 . S
H2004 C2008 0.929 . S
H2005 C2014 0.929 . S
C2006 H2000 0.930 . S
C2006 C2007 1.367 . S
C2006 C2014 1.378 . S
C2007 C2006 1.367 . S
C2007 C2015 1.433 . S
C2008 H2004 0.929 . S
C2008 C2010 1.378 . S
C2008 C2012 1.350 . S
C2009 C2012 1.463 . S
C2009 C2014 1.350 . S
C2009 N2017 1.427 . S
C2010 H2001 0.930 . S
C2010 C2008 1.378 . S
C2010 C2011 1.367 . S
C2011 C2010 1.367 . S
C2011 C2013 1.433 . S
C2012 C2008 1.350 . S
C2012 C2009 1.463 . S
C2012 N2016 1.427 . S
C2013 H2003 0.929 . S
C2013 C2011 1.433 . S
C2013 N2016 1.384 . S
C2014 H2005 0.929 . S
C2014 C2006 1.378 . S
C2014 C2009 1.350 . S
C2015 H2002 0.929 . S
C2015 C2007 1.433 . S
C2015 N2017 1.384 . S
N2016 C2012 1.427 . S
N2016 C2013 1.384 . S
N2017 C2009 1.427 . S
N2017 C2015 1.384 . S
H2018 C2024 0.930 . S
H2019 C2028 0.930 . S
H2020 C2033 0.929 . S
H2021 C2031 0.929 . S
H2022 C2026 0.929 . S
H2023 C2032 0.929 . S
C2024 H2018 0.930 . S
C2024 C2025 1.367 . S
C2024 C2032 1.378 . S
C2025 C2024 1.367 . S
C2025 C2033 1.433 . S
C2026 H2022 0.929 . S
C2026 C2028 1.378 . S
C2026 C2030 1.350 . S
C2027 C2030 1.463 . S
C2027 C2032 1.350 . S
C2027 N2035 1.427 . S
C2028 H2019 0.930 . S
C2028 C2026 1.378 . S
C2028 C2029 1.367 . S
C2029 C2028 1.367 . S
C2029 C2031 1.433 . S
C2030 C2026 1.350 . S
C2030 C2027 1.463 . S
C2030 N2034 1.427 . S
C2031 H2021 0.929 . S
C2031 C2029 1.433 . S
C2031 N2034 1.384 . S
C2032 H2023 0.929 . S
C2032 C2024 1.378 . S
C2032 C2027 1.350 . S
C2033 H2020 0.929 . S
C2033 C2025 1.433 . S
C2033 N2035 1.384 . S
N2034 C2030 1.427 . S
N2034 C2031 1.384 . S
N2035 C2027 1.427 . S
N2035 C2033 1.384 . S
H2036 C2042 0.930 . S
H2037 C2046 0.930 . S
H2038 C2051 0.929 . S
H2039 C2049 0.929 . S
H2040 C2044 0.929 . S
H2041 C2050 0.929 . S
C2042 H2036 0.930 . S
C2042 C2043 1.367 . S
C2042 C2050 1.378 . S
C2043 C2042 1.367 . S
C2043 C2051 1.433 . S
C2044 H2040 0.929 . S
C2044 C2046 1.378 . S
C2044 C2048 1.350 . S
C2045 C2048 1.463 . S
C2045 C2050 1.350 . S
C2045 N2053 1.427 . S
C2046 H2037 0.930 . S
C2046 C2044 1.378 . S
C2046 C2047 1.367 . S
C2047 C2046 1.367 . S
C2047 C2049 1.433 . S
C2048 C2044 1.350 . S
C2048 C2045 1.463 . S
C2048 N2052 1.427 . S
C2049 H2039 0.929 . S
C2049 C2047 1.433 . S
C2049 N2052 1.384 . S
C2050 H2041 0.929 . S
C2050 C2042 1.378 . S
C2050 C2045 1.350 . S
C2051 H2038 0.929 . S
C2051 C2043 1.433 . S
C2051 N2053 1.384 . S
N2052 C2048 1.427 . S
N2052 C2049 1.384 . S
N2053 C2045 1.427 . S
N2053 C2051 1.384 . S
H2054 C2060 0.930 . S
H2055 C2064 0.930 . S
H2056 C2069 0.929 . S
H2057 C2067 0.929 . S
H2058 C2062 0.929 . S
H2059 C2068 0.929 . S
C2060 H2054 0.930 . S
C2060 C2061 1.367 . S
C2060 C2068 1.378 . S
C2061 C2060 1.367 . S
C2061 C2069 1.433 . S
C2062 H2058 0.929 . S
C2062 C2064 1.378 . S
C2062 C2066 1.350 . S
C2063 C2066 1.463 . S
C2063 C2068 1.350 . S
C2063 N2071 1.427 . S
C2064 H2055 0.930 . S
C2064 C2062 1.378 . S
C2064 C2065 1.367 . S
C2065 C2064 1.367 . S
C2065 C2067 1.433 . S
C2066 C2062 1.350 . S
C2066 C2063 1.463 . S
C2066 N2070 1.427 . S
C2067 H2057 0.929 . S
C2067 C2065 1.433 . S
C2067 N2070 1.384 . S
C2068 H2059 0.929 . S
C2068 C2060 1.378 . S
C2068 C2063 1.350 . S
C2069 H2056 0.929 . S
C2069 C2061 1.433 . S
C2069 N2071 1.384 . S
N2070 C2066 1.427 . S
N2070 C2067 1.384 . S
N2071 C2063 1.427 . S
N2071 C2069 1.384 . S
H2072 C2078 0.930 . S
H2073 C2082 0.930 . S
H2074 C2087 0.929 . S
H2075 C2085 0.929 . S
H2076 C2080 0.929 . S
H2077 C2086 0.929 . S
C2078 H2072 0.930 . S
C2078 C2079 1.367 . S
C2078 C2086 1.378 . S
C2079 C2078 1.367 . S
C2079 C2087 1.433 . S
C2080 H2076 0.929 . S
C2080 C2082 1.378 . S
C2080 C2084 1.350 . S
C2081 C2084 1.463 . S
C2081 C2086 1.350 . S
C2081 N2089 1.427 . S
C2082 H2073 0.930 . S
C2082 C2080 1.378 . S
C2082 C2083 1.367 . S
C2083 C2082 1.367 . S
C2083 C2085 1.433 . S
C2084 C2080 1.350 . S
C2084 C2081 1.463 . S
C2084 N2088 1.427 . S
C2085 H2075 0.929 . S
C2085 C2083 1.433 . S
C2085 N2088 1.384 . S
C2086 H2077 0.929 . S
C2086 C2078 1.378 . S
C2086 C2081 1.350 . S
C2087 H2074 0.929 . S
C2087 C2079 1.433 . S
C2087 N2089 1.384 . S
N2088 C2084 1.427 . S
N2088 C2085 1.384 . S
N2089 C2081 1.427 . S
N2089 C2087 1.384 . S
H2090 C2096 0.930 . S
H2091 C2100 0.930 . S
H2092 C2105 0.929 . S
H2093 C2103 0.929 . S
H2094 C2098 0.929 . S
H2095 C2104 0.929 . S
C2096 H2090 0.930 . S
C2096 C2097 1.367 . S
C2096 C2104 1.378 . S
C2097 C2096 1.367 . S
C2097 C2105 1.433 . S
C2098 H2094 0.929 . S
C2098 C2100 1.378 . S
C2098 C2102 1.350 . S
C2099 C2102 1.463 . S
C2099 C2104 1.350 . S
C2099 N2107 1.427 . S
C2100 H2091 0.930 . S
C2100 C2098 1.378 . S
C2100 C2101 1.367 . S
C2101 C2100 1.367 . S
C2101 C2103 1.433 . S
C2102 C2098 1.350 . S
C2102 C2099 1.463 . S
C2102 N2106 1.427 . S
C2103 H2093 0.929 . S
C2103 C2101 1.433 . S
C2103 N2106 1.384 . S
C2104 H2095 0.929 . S
C2104 C2096 1.378 . S
C2104 C2099 1.350 . S
C2105 H2092 0.929 . S
C2105 C2097 1.433 . S
C2105 N2107 1.384 . S
N2106 C2102 1.427 . S
N2106 C2103 1.384 . S
N2107 C2099 1.427 . S
N2107 C2105 1.384 . S
H2108 C2114 0.930 . S
H2109 C2118 0.930 . S
H2110 C2123 0.929 . S
H2111 C2121 0.929 . S
H2112 C2116 0.929 . S
H2113 C2122 0.929 . S
C2114 H2108 0.930 . S
C2114 C2115 1.367 . S
C2114 C2122 1.378 . S
C2115 C2114 1.367 . S
C2115 C2123 1.433 . S
C2116 H2112 0.929 . S
C2116 C2118 1.378 . S
C2116 C2120 1.350 . S
C2117 C2120 1.463 . S
C2117 C2122 1.350 . S
C2117 N2125 1.427 . S
C2118 H2109 0.930 . S
C2118 C2116 1.378 . S
C2118 C2119 1.367 . S
C2119 C2118 1.367 . S
C2119 C2121 1.433 . S
C2120 C2116 1.350 . S
C2120 C2117 1.463 . S
C2120 N2124 1.427 . S
C2121 H2111 0.929 . S
C2121 C2119 1.433 . S
C2121 N2124 1.384 . S
C2122 H2113 0.929 . S
C2122 C2114 1.378 . S
C2122 C2117 1.350 . S
C2123 H2110 0.929 . S
C2123 C2115 1.433 . S
C2123 N2125 1.384 . S
N2124 C2120 1.427 . S
N2124 C2121 1.384 . S
N2125 C2117 1.427 . S
N2125 C2123 1.384 . S
H2126 C2132 0.930 . S
H2127 C2136 0.930 . S
H2128 C2141 0.929 . S
H2129 C2139 0.929 . S
H2130 C2134 0.929 . S
H2131 C2140 0.929 . S
C2132 H2126 0.930 . S
C2132 C2133 1.367 . S
C2132 C2140 1.378 . S
C2133 C2132 1.367 . S
C2133 C2141 1.433 . S
C2134 H2130 0.929 . S
C2134 C2136 1.378 . S
C2134 C2138 1.350 . S
C2135 C2138 1.463 . S
C2135 C2140 1.350 . S
C2135 N2143 1.427 . S
C2136 H2127 0.930 . S
C2136 C2134 1.378 . S
C2136 C2137 1.367 . S
C2137 C2136 1.367 . S
C2137 C2139 1.433 . S
C2138 C2134 1.350 . S
C2138 C2135 1.463 . S
C2138 N2142 1.427 . S
C2139 H2129 0.929 . S
C2139 C2137 1.433 . S
C2139 N2142 1.384 . S
C2140 H2131 0.929 . S
C2140 C2132 1.378 . S
C2140 C2135 1.350 . S
C2141 H2128 0.929 . S
C2141 C2133 1.433 . S
C2141 N2143 1.384 . S
N2142 C2138 1.427 . S
N2142 C2139 1.384 . S
N2143 C2135 1.427 . S
N2143 C2141 1.384 . S
H2144 C2150 0.930 . S
H2145 C2154 0.930 . S
H2146 C2159 0.929 . S
H2147 C2157 0.929 . S
H2148 C2152 0.929 . S
H2149 C2158 0.929 . S
C2150 H2144 0.930 . S
C2150 C2151 1.367 . S
C2150 C2158 1.378 . S
C2151 C2150 1.367 . S
C2151 C2159 1.433 . S
C2152 H2148 0.929 . S
C2152 C2154 1.378 . S
C2152 C2156 1.350 . S
C2153 C2156 1.463 1_556 S
C2153 C2158 1.350 . S
C2153 N2161 1.427 . S
C2154 H2145 0.930 . S
C2154 C2152 1.378 . S
C2154 C2155 1.367 . S
C2155 C2154 1.367 . S
C2155 C2157 1.433 . S
C2156 C2152 1.350 . S
C2156 C2153 1.463 1_554 S
C2156 N2160 1.427 . S
C2157 H2147 0.929 . S
C2157 C2155 1.433 . S
C2157 N2160 1.384 . S
C2158 H2149 0.929 . S
C2158 C2150 1.378 . S
C2158 C2153 1.350 . S
C2159 H2146 0.929 . S
C2159 C2151 1.433 . S
C2159 N2161 1.384 . S
N2160 C2156 1.427 . S
N2160 C2157 1.384 . S
N2161 C2153 1.427 . S
N2161 C2159 1.384 . S
H2162 C2168 0.930 . S
H2163 C2172 0.930 . S
H2164 C2177 0.929 . S
H2165 C2175 0.929 . S
H2166 C2170 0.929 . S
H2167 C2176 0.929 . S
C2168 H2162 0.930 . S
C2168 C2169 1.367 . S
C2168 C2176 1.378 . S
C2169 C2168 1.367 . S
C2169 C2177 1.433 . S
C2170 H2166 0.929 . S
C2170 C2172 1.378 . S
C2170 C2174 1.350 . S
C2171 C2174 1.463 1_554 S
C2171 C2176 1.350 . S
C2171 N2179 1.427 . S
C2172 H2163 0.930 . S
C2172 C2170 1.378 . S
C2172 C2173 1.367 . S
C2173 C2172 1.367 . S
C2173 C2175 1.433 . S
C2174 C2170 1.350 . S
C2174 C2171 1.463 1_556 S
C2174 N2178 1.427 . S
C2175 H2165 0.929 . S
C2175 C2173 1.433 . S
C2175 N2178 1.384 . S
C2176 H2167 0.929 . S
C2176 C2168 1.378 . S
C2176 C2171 1.350 . S
C2177 H2164 0.929 . S
C2177 C2169 1.433 . S
C2177 N2179 1.384 . S
N2178 C2174 1.427 . S
N2178 C2175 1.384 . S
N2179 C2171 1.427 . S
N2179 C2177 1.384 . S
H2180 C2186 0.930 . S
H2181 C2190 0.930 . S
H2182 C2195 0.929 . S
H2183 C2193 0.929 . S
H2184 C2188 0.929 . S
H2185 C2194 0.929 . S
C2186 H2180 0.930 . S
C2186 C2187 1.367 . S
C2186 C2194 1.378 . S
C2187 C2186 1.367 . S
C2187 C2195 1.433 . S
C2188 H2184 0.929 . S
C2188 C2190 1.378 . S
C2188 C2192 1.350 . S
C2189 C2192 1.463 1_556 S
C2189 C2194 1.350 . S
C2189 N2197 1.427 . S
C2190 H2181 0.930 . S
C2190 C2188 1.378 . S
C2190 C2191 1.367 . S
C2191 C2190 1.367 . S
C2191 C2193 1.433 . S
C2192 C2188 1.350 . S
C2192 C2189 1.463 1_554 S
C2192 N2196 1.427 . S
C2193 H2183 0.929 . S
C2193 C2191 1.433 . S
C2193 N2196 1.384 . S
C2194 H2185 0.929 . S
C2194 C2186 1.378 . S
C2194 C2189 1.350 . S
C2195 H2182 0.929 . S
C2195 C2187 1.433 . S
C2195 N2197 1.384 . S
N2196 C2192 1.427 . S
N2196 C2193 1.384 . S
N2197 C2189 1.427 . S
N2197 C2195 1.384 . S
H2198 C2204 0.930 . S
H2199 C2208 0.930 . S
H2200 C2213 0.929 . S
H2201 C2211 0.929 . S
H2202 C2206 0.929 . S
H2203 C2212 0.929 . S
C2204 H2198 0.930 . S
C2204 C2205 1.367 . S
C2204 C2212 1.378 . S
C2205 C2204 1.367 . S
C2205 C2213 1.433 . S
C2206 H2202 0.929 . S
C2206 C2208 1.378 . S
C2206 C2210 1.350 . S
C2207 C2210 1.463 1_556 S
C2207 C2212 1.350 . S
C2207 N2215 1.427 . S
C2208 H2199 0.930 . S
C2208 C2206 1.378 . S
C2208 C2209 1.367 . S
C2209 C2208 1.367 . S
C2209 C2211 1.433 . S
C2210 C2206 1.350 . S
C2210 C2207 1.463 1_554 S
C2210 N2214 1.427 . S
C2211 H2201 0.929 . S
C2211 C2209 1.433 . S
C2211 N2214 1.384 . S
C2212 H2203 0.929 . S
C2212 C2204 1.378 . S
C2212 C2207 1.350 . S
C2213 H2200 0.929 . S
C2213 C2205 1.433 . S
C2213 N2215 1.384 . S
N2214 C2210 1.427 . S
N2214 C2211 1.384 . S
N2215 C2207 1.427 . S
N2215 C2213 1.384 . S
H2216 C2222 0.930 . S
H2217 C2226 0.930 . S
H2218 C2231 0.929 . S
H2219 C2229 0.929 . S
H2220 C2224 0.929 . S
H2221 C2230 0.929 . S
C2222 H2216 0.930 . S
C2222 C2223 1.367 . S
C2222 C2230 1.378 . S
C2223 C2222 1.367 . S
C2223 C2231 1.433 . S
C2224 H2220 0.929 . S
C2224 C2226 1.378 . S
C2224 C2228 1.350 . S
C2225 C2228 1.463 . S
C2225 C2230 1.350 . S
C2225 N2233 1.427 . S
C2226 H2217 0.930 . S
C2226 C2224 1.378 . S
C2226 C2227 1.367 . S
C2227 C2226 1.367 . S
C2227 C2229 1.433 . S
C2228 C2224 1.350 . S
C2228 C2225 1.463 . S
C2228 N2232 1.427 . S
C2229 H2219 0.929 . S
C2229 C2227 1.433 . S
C2229 N2232 1.384 . S
C2230 H2221 0.929 . S
C2230 C2222 1.378 . S
C2230 C2225 1.350 . S
C2231 H2218 0.929 . S
C2231 C2223 1.433 . S
C2231 N2233 1.384 . S
N2232 C2228 1.427 . S
N2232 C2229 1.384 . S
N2233 C2225 1.427 . S
N2233 C2231 1.384 . S
H2234 C2240 0.930 . S
H2235 C2244 0.930 . S
H2236 C2249 0.929 . S
H2237 C2247 0.929 . S
H2238 C2242 0.929 . S
H2239 C2248 0.929 . S
C2240 H2234 0.930 . S
C2240 C2241 1.367 . S
C2240 C2248 1.378 . S
C2241 C2240 1.367 . S
C2241 C2249 1.433 . S
C2242 H2238 0.929 . S
C2242 C2244 1.378 . S
C2242 C2246 1.350 . S
C2243 C2246 1.463 . S
C2243 C2248 1.350 . S
C2243 N2251 1.427 . S
C2244 H2235 0.930 . S
C2244 C2242 1.378 . S
C2244 C2245 1.367 . S
C2245 C2244 1.367 . S
C2245 C2247 1.433 . S
C2246 C2242 1.350 . S
C2246 C2243 1.463 . S
C2246 N2250 1.427 . S
C2247 H2237 0.929 . S
C2247 C2245 1.433 . S
C2247 N2250 1.384 . S
C2248 H2239 0.929 . S
C2248 C2240 1.378 . S
C2248 C2243 1.350 . S
C2249 H2236 0.929 . S
C2249 C2241 1.433 . S
C2249 N2251 1.384 . S
N2250 C2246 1.427 . S
N2250 C2247 1.384 . S
N2251 C2243 1.427 . S
N2251 C2249 1.384 . S
H2252 C2258 0.930 . S
H2253 C2262 0.930 . S
H2254 C2267 0.929 . S
H2255 C2265 0.929 . S
H2256 C2260 0.929 . S
H2257 C2266 0.929 . S
C2258 H2252 0.930 . S
C2258 C2259 1.367 . S
C2258 C2266 1.378 . S
C2259 C2258 1.367 . S
C2259 C2267 1.433 . S
C2260 H2256 0.929 . S
C2260 C2262 1.378 . S
C2260 C2264 1.350 . S
C2261 C2264 1.463 . S
C2261 C2266 1.350 . S
C2261 N2269 1.427 . S
C2262 H2253 0.930 . S
C2262 C2260 1.378 . S
C2262 C2263 1.367 . S
C2263 C2262 1.367 . S
C2263 C2265 1.433 . S
C2264 C2260 1.350 . S
C2264 C2261 1.463 . S
C2264 N2268 1.427 . S
C2265 H2255 0.929 . S
C2265 C2263 1.433 . S
C2265 N2268 1.384 . S
C2266 H2257 0.929 . S
C2266 C2258 1.378 . S
C2266 C2261 1.350 . S
C2267 H2254 0.929 . S
C2267 C2259 1.433 . S
C2267 N2269 1.384 . S
N2268 C2264 1.427 . S
N2268 C2265 1.384 . S
N2269 C2261 1.427 . S
N2269 C2267 1.384 . S
H2270 C2276 0.930 . S
H2271 C2280 0.930 . S
H2272 C2285 0.929 . S
H2273 C2283 0.929 . S
H2274 C2278 0.929 . S
H2275 C2284 0.929 . S
C2276 H2270 0.930 . S
C2276 C2277 1.367 . S
C2276 C2284 1.378 . S
C2277 C2276 1.367 . S
C2277 C2285 1.433 . S
C2278 H2274 0.929 . S
C2278 C2280 1.378 . S
C2278 C2282 1.350 . S
C2279 C2282 1.463 . S
C2279 C2284 1.350 . S
C2279 N2287 1.427 . S
C2280 H2271 0.930 . S
C2280 C2278 1.378 . S
C2280 C2281 1.367 . S
C2281 C2280 1.367 . S
C2281 C2283 1.433 . S
C2282 C2278 1.350 . S
C2282 C2279 1.463 . S
C2282 N2286 1.427 . S
C2283 H2273 0.929 . S
C2283 C2281 1.433 . S
C2283 N2286 1.384 . S
C2284 H2275 0.929 . S
C2284 C2276 1.378 . S
C2284 C2279 1.350 . S
C2285 H2272 0.929 . S
C2285 C2277 1.433 . S
C2285 N2287 1.384 . S
N2286 C2282 1.427 . S
N2286 C2283 1.384 . S
N2287 C2279 1.427 . S
N2287 C2285 1.384 . S
H2288 C2294 0.930 . S
H2289 C2298 0.930 . S
H2290 C2303 0.929 . S
H2291 C2301 0.929 . S
H2292 C2296 0.929 . S
H2293 C2302 0.929 . S
C2294 H2288 0.930 . S
C2294 C2295 1.367 . S
C2294 C2302 1.378 . S
C2295 C2294 1.367 . S
C2295 C2303 1.433 . S
C2296 H2292 0.929 . S
C2296 C2298 1.378 . S
C2296 C2300 1.350 . S
C2297 C2300 1.463 . S
C2297 C2302 1.350 . S
C2297 N2305 1.427 . S
C2298 H2289 0.930 . S
C2298 C2296 1.378 . S
C2298 C2299 1.367 . S
C2299 C2298 1.367 . S
C2299 C2301 1.433 . S
C2300 C2296 1.350 . S
C2300 C2297 1.463 . S
C2300 N2304 1.427 . S
C2301 H2291 0.929 . S
C2301 C2299 1.433 . S
C2301 N2304 1.384 . S
C2302 H2293 0.929 . S
C2302 C2294 1.378 . S
C2302 C2297 1.350 . S
C2303 H2290 0.929 . S
C2303 C2295 1.433 . S
C2303 N2305 1.384 . S
N2304 C2300 1.427 . S
N2304 C2301 1.384 . S
N2305 C2297 1.427 . S
N2305 C2303 1.384 . S
H2306 C2312 0.930 . S
H2307 C2316 0.930 . S
H2308 C2321 0.929 . S
H2309 C2319 0.929 . S
H2310 C2314 0.929 . S
H2311 C2320 0.929 . S
C2312 H2306 0.930 . S
C2312 C2313 1.367 . S
C2312 C2320 1.378 . S
C2313 C2312 1.367 . S
C2313 C2321 1.433 . S
C2314 H2310 0.929 . S
C2314 C2316 1.378 . S
C2314 C2318 1.350 . S
C2315 C2318 1.463 . S
C2315 C2320 1.350 . S
C2315 N2323 1.427 . S
C2316 H2307 0.930 . S
C2316 C2314 1.378 . S
C2316 C2317 1.367 . S
C2317 C2316 1.367 . S
C2317 C2319 1.433 . S
C2318 C2314 1.350 . S
C2318 C2315 1.463 . S
C2318 N2322 1.427 . S
C2319 H2309 0.929 . S
C2319 C2317 1.433 . S
C2319 N2322 1.384 . S
C2320 H2311 0.929 . S
C2320 C2312 1.378 . S
C2320 C2315 1.350 . S
C2321 H2308 0.929 . S
C2321 C2313 1.433 . S
C2321 N2323 1.384 . S
N2322 C2318 1.427 . S
N2322 C2319 1.384 . S
N2323 C2315 1.427 . S
N2323 C2321 1.384 . S
H2324 C2330 0.930 . S
H2325 C2334 0.930 . S
H2326 C2339 0.929 . S
H2327 C2337 0.929 . S
H2328 C2332 0.929 . S
H2329 C2338 0.929 . S
C2330 H2324 0.930 . S
C2330 C2331 1.367 . S
C2330 C2338 1.378 . S
C2331 C2330 1.367 . S
C2331 C2339 1.433 . S
C2332 H2328 0.929 . S
C2332 C2334 1.378 . S
C2332 C2336 1.350 . S
C2333 C2336 1.463 . S
C2333 C2338 1.350 . S
C2333 N2341 1.427 . S
C2334 H2325 0.930 . S
C2334 C2332 1.378 . S
C2334 C2335 1.367 . S
C2335 C2334 1.367 . S
C2335 C2337 1.433 . S
C2336 C2332 1.350 . S
C2336 C2333 1.463 . S
C2336 N2340 1.427 . S
C2337 H2327 0.929 . S
C2337 C2335 1.433 . S
C2337 N2340 1.384 . S
C2338 H2329 0.929 . S
C2338 C2330 1.378 . S
C2338 C2333 1.350 . S
C2339 H2326 0.929 . S
C2339 C2331 1.433 . S
C2339 N2341 1.384 . S
N2340 C2336 1.427 . S
N2340 C2337 1.384 . S
N2341 C2333 1.427 . S
N2341 C2339 1.384 . S
H2342 C2348 0.930 . S
H2343 C2352 0.930 . S
H2344 C2357 0.929 . S
H2345 C2355 0.929 . S
H2346 C2350 0.929 . S
H2347 C2356 0.929 . S
C2348 H2342 0.930 . S
C2348 C2349 1.367 . S
C2348 C2356 1.378 . S
C2349 C2348 1.367 . S
C2349 C2357 1.433 . S
C2350 H2346 0.929 . S
C2350 C2352 1.378 . S
C2350 C2354 1.350 . S
C2351 C2354 1.463 . S
C2351 C2356 1.350 . S
C2351 N2359 1.427 . S
C2352 H2343 0.930 . S
C2352 C2350 1.378 . S
C2352 C2353 1.367 . S
C2353 C2352 1.367 . S
C2353 C2355 1.433 . S
C2354 C2350 1.350 . S
C2354 C2351 1.463 . S
C2354 N2358 1.427 . S
C2355 H2345 0.929 . S
C2355 C2353 1.433 . S
C2355 N2358 1.384 . S
C2356 H2347 0.929 . S
C2356 C2348 1.378 . S
C2356 C2351 1.350 . S
C2357 H2344 0.929 . S
C2357 C2349 1.433 . S
C2357 N2359 1.384 . S
N2358 C2354 1.427 . S
N2358 C2355 1.384 . S
N2359 C2351 1.427 . S
N2359 C2357 1.384 . S
H2360 C2366 0.930 . S
H2361 C2370 0.930 . S
H2362 C2375 0.929 . S
H2363 C2373 0.929 . S
H2364 C2368 0.929 . S
H2365 C2374 0.929 . S
C2366 H2360 0.930 . S
C2366 C2367 1.367 . S
C2366 C2374 1.378 . S
C2367 C2366 1.367 . S
C2367 C2375 1.433 . S
C2368 H2364 0.929 . S
C2368 C2370 1.378 . S
C2368 C2372 1.350 . S
C2369 C2372 1.463 1_554 S
C2369 C2374 1.350 . S
C2369 N2377 1.427 . S
C2370 H2361 0.930 . S
C2370 C2368 1.378 . S
C2370 C2371 1.367 . S
C2371 C2370 1.367 . S
C2371 C2373 1.433 . S
C2372 C2368 1.350 . S
C2372 C2369 1.463 1_556 S
C2372 N2376 1.427 . S
C2373 H2363 0.929 . S
C2373 C2371 1.433 . S
C2373 N2376 1.384 . S
C2374 H2365 0.929 . S
C2374 C2366 1.378 . S
C2374 C2369 1.350 . S
C2375 H2362 0.929 . S
C2375 C2367 1.433 . S
C2375 N2377 1.384 . S
N2376 C2372 1.427 . S
N2376 C2373 1.384 . S
N2377 C2369 1.427 . S
N2377 C2375 1.384 . S
H2378 C2384 0.930 . S
H2379 C2388 0.930 . S
H2380 C2393 0.929 . S
H2381 C2391 0.929 . S
H2382 C2386 0.929 . S
H2383 C2392 0.929 . S
C2384 H2378 0.930 . S
C2384 C2385 1.367 . S
C2384 C2392 1.378 . S
C2385 C2384 1.367 . S
C2385 C2393 1.433 . S
C2386 H2382 0.929 . S
C2386 C2388 1.378 . S
C2386 C2390 1.350 . S
C2387 C2390 1.463 1_556 S
C2387 C2392 1.350 . S
C2387 N2395 1.427 . S
C2388 H2379 0.930 . S
C2388 C2386 1.378 . S
C2388 C2389 1.367 . S
C2389 C2388 1.367 . S
C2389 C2391 1.433 . S
C2390 C2386 1.350 . S
C2390 C2387 1.463 1_554 S
C2390 N2394 1.427 . S
C2391 H2381 0.929 . S
C2391 C2389 1.433 . S
C2391 N2394 1.384 . S
C2392 H2383 0.929 . S
C2392 C2384 1.378 . S
C2392 C2387 1.350 . S
C2393 H2380 0.929 . S
C2393 C2385 1.433 . S
C2393 N2395 1.384 . S
N2394 C2390 1.427 . S
N2394 C2391 1.384 . S
N2395 C2387 1.427 . S
N2395 C2393 1.384 . S
H2396 C2402 0.930 . S
H2397 C2406 0.930 . S
H2398 C2411 0.929 . S
H2399 C2409 0.929 . S
H2400 C2404 0.929 . S
H2401 C2410 0.929 . S
C2402 H2396 0.930 . S
C2402 C2403 1.367 . S
C2402 C2410 1.378 . S
C2403 C2402 1.367 . S
C2403 C2411 1.433 . S
C2404 H2400 0.929 . S
C2404 C2406 1.378 . S
C2404 C2408 1.350 . S
C2405 C2408 1.463 1_556 S
C2405 C2410 1.350 . S
C2405 N2413 1.427 . S
C2406 H2397 0.930 . S
C2406 C2404 1.378 . S
C2406 C2407 1.367 . S
C2407 C2406 1.367 . S
C2407 C2409 1.433 . S
C2408 C2404 1.350 . S
C2408 C2405 1.463 1_554 S
C2408 N2412 1.427 . S
C2409 H2399 0.929 . S
C2409 C2407 1.433 . S
C2409 N2412 1.384 . S
C2410 H2401 0.929 . S
C2410 C2402 1.378 . S
C2410 C2405 1.350 . S
C2411 H2398 0.929 . S
C2411 C2403 1.433 . S
C2411 N2413 1.384 . S
N2412 C2408 1.427 . S
N2412 C2409 1.384 . S
N2413 C2405 1.427 . S
N2413 C2411 1.384 . S
H2414 C2420 0.930 . S
H2415 C2424 0.930 . S
H2416 C2429 0.929 . S
H2417 C2427 0.929 . S
H2418 C2422 0.929 . S
H2419 C2428 0.929 . S
C2420 H2414 0.930 . S
C2420 C2421 1.367 . S
C2420 C2428 1.378 . S
C2421 C2420 1.367 . S
C2421 C2429 1.433 . S
C2422 H2418 0.929 . S
C2422 C2424 1.378 . S
C2422 C2426 1.350 . S
C2423 C2426 1.463 1_554 S
C2423 C2428 1.350 . S
C2423 N2431 1.427 . S
C2424 H2415 0.930 . S
C2424 C2422 1.378 . S
C2424 C2425 1.367 . S
C2425 C2424 1.367 . S
C2425 C2427 1.433 . S
C2426 C2422 1.350 . S
C2426 C2423 1.463 1_556 S
C2426 N2430 1.427 . S
C2427 H2417 0.929 . S
C2427 C2425 1.433 . S
C2427 N2430 1.384 . S
C2428 H2419 0.929 . S
C2428 C2420 1.378 . S
C2428 C2423 1.350 . S
C2429 H2416 0.929 . S
C2429 C2421 1.433 . S
C2429 N2431 1.384 . S
N2430 C2426 1.427 . S
N2430 C2427 1.384 . S
N2431 C2423 1.427 . S
N2431 C2429 1.384 . S
C711 C117 1.011 . S
C715 C7 1.024 . S
C729 C139 1.023 . S
C733 C29 1.018 . S
C747 C65 1.019 . S
C751 C169 1.022 . S
C765 C103 1.010 . S
C769 C73 1.028 . S
C783 C191 1.026 . S
C787 C307 1.014 . S
C801 C329 1.020 . S
C805 C205 1.014 . S
C819 C345 1.028 . S
C823 C235 1.011 . S
C837 C257 1.019 . S
C841 C285 1.015 . S
C855 C359 1.012 . S
C859 C469 1.023 . S
C873 C491 1.015 . S
C877 C381 1.025 . S
C891 C417 1.016 . S
C895 C521 1.018 . S
C909 C439 1.014 . S
C913 C455 1.020 . S
C927 C653 1.019 . S
C931 C535 1.022 . S
C945 C675 1.013 . S
C949 C557 1.027 . S
C963 C703 1.026 . S
C967 C593 1.010 . S
C981 C601 1.018 . S
C985 C631 1.023 . S
C999 C659 1.179 . S
C1003 C15 1.191 . S
C1017 C681 1.181 . S
C1021 C37 1.189 . S
C1035 C689 1.192 . S
C1039 C51 1.178 . S
C1053 C81 1.192 . S
C1057 C637 1.178 . S
C1071 C109 1.183 . S
C1075 C609 1.187 . S
C1089 C543 1.192 . S
C1093 C125 1.178 . S
C1107 C147 1.191 . S
C1111 C565 1.179 . S
C1125 C579 1.180 . S
C1129 C175 1.190 . S
C1143 C477 1.186 . S
C1147 C197 1.184 . S
C1161 C499 1.179 . S
C1165 C213 1.191 . S
C1179 C241 1.182 . S
C1183 C527 1.188 . S
C1197 C461 1.186 . S
C1201 C263 1.184 . S
C1215 C425 1.187 . S
C1219 C271 1.183 . S
C1233 C293 1.178 . S
C1237 C367 1.192 . S
C1251 C315 1.192 . S
C1255 C389 1.178 . S
C1269 C403 1.183 . S
C1273 C351 1.187 . S
C1287 C74 1.574 1_545 S
C1291 C18 1.565 . S
C1305 C8 1.568 1_655 S
C1309 C40 1.572 . S
C1323 C52 1.571 . S
C1327 C30 1.575 1_565 S
C1341 C84 1.574 . S
C1345 C54 1.571 1_455 S
C1359 C118 1.568 1_565 S
C1363 C98 1.569 . S
C1377 C140 1.571 1_455 S
C1381 C128 1.574 . S
C1395 C172 1.576 1_545 S
C1399 C150 1.565 . S
C1413 C164 1.571 . S
C1417 C106 1.567 1_655 S
C1431 C260 1.568 1_565 S
C1435 C186 1.572 . S
C1449 C194 1.567 1_455 S
C1453 C216 1.571 . S
C1467 C230 1.565 . S
C1471 C206 1.575 1_545 S
C1485 C252 1.574 . S
C1489 C238 1.569 1_655 S
C1503 C296 1.567 1_545 S
C1507 C272 1.572 . S
C1521 C294 1.565 . S
C1525 C318 1.572 1_655 S
C1539 C316 1.565 . S
C1543 C348 1.574 1_565 S
C1557 C340 1.566 . S
C1561 C274 1.576 1_455 S
C1575 C428 1.572 . S
C1579 C370 1.565 . S
C1593 C392 1.574 . S
C1597 C360 1.569 . S
C1611 C382 1.576 . S
C1615 C404 1.566 . S
C1629 C426 1.572 . S
C1633 C406 1.568 . S
C1647 C450 1.567 . S
C1651 C470 1.577 . S
C1665 C492 1.568 . S
C1669 C480 1.573 . S
C1683 C502 1.565 . S
C1687 C524 1.573 . S
C1701 C516 1.565 . S
C1705 C458 1.576 . S
C1719 C602 1.571 . S
C1723 C546 1.574 . S
C1737 C568 1.574 . S
C1741 C536 1.569 . S
C1755 C580 1.574 . S
C1759 C558 1.570 . S
C1773 C612 1.565 . S
C1777 C582 1.575 . S
C1791 C656 1.574 . S
C1795 C626 1.565 . S
C1809 C648 1.574 . S
C1813 C678 1.571 . S
C1827 C692 1.576 . S
C1831 C670 1.566 . S
C1845 C634 1.576 . S
C1849 C690 1.566 . S
C1863 C21 1.130 . S
C1867 C153 1.144 . S
C1881 C161 1.128 . S
C1885 C43 1.138 . S
C1899 C59 1.129 . S
C1903 C95 1.145 . S
C1917 C131 1.127 . S
C1921 C87 1.144 . S
C1935 C183 1.127 . S
C1939 C323 1.138 . S
C1953 C337 1.136 . S
C1957 C219 1.141 . S
C1971 C279 1.144 . S
C1975 C227 1.130 . S
C1989 C301 1.135 . S
C1993 C249 1.129 . S
C2007 C505 1.144 . S
C2011 C373 1.126 . S
C2025 C395 1.144 . S
C2029 C513 1.131 . S
C2043 C447 1.142 . S
C2047 C411 1.126 . S
C2061 C433 1.144 . S
C2065 C483 1.131 . S
C2079 C549 1.126 . S
C2083 C667 1.144 . S
C2097 C697 1.131 . S
C2101 C571 1.144 . S
C2115 C623 1.127 . S
C2119 C587 1.139 . S
C2133 C645 1.136 . S
C2137 C615 1.141 . S
C2151 C228 1.475 . S
C2155 C10 1.475 . S
C2169 C32 1.477 . S
C2173 C250 1.473 . S
C2187 C184 1.475 . S
C2191 C62 1.475 . S
C2205 C208 1.474 . S
C2209 C76 1.476 . S
C2223 C326 1.475 . S
C2227 C96 1.475 . S
C2241 C120 1.475 . S
C2245 C338 1.475 . S
C2259 C282 1.475 . S
C2263 C142 1.475 . S
C2277 C162 1.475 . S
C2281 C304 1.475 . S
C2295 C590 1.475 . S
C2299 C362 1.475 . S
C2313 C604 1.476 . S
C2317 C384 1.474 . S
C2331 C414 1.473 . S
C2335 C538 1.477 . S
C2349 C436 1.474 . S
C2353 C560 1.476 . S
C2367 C668 1.475 . S
C2371 C448 1.475 . S
C2385 C472 1.474 . S
C2389 C700 1.476 . S
C2403 C494 1.473 . S
C2407 C624 1.477 . S
C2421 C646 1.477 . S
C2425 C514 1.473 . S
