# Generated by pormake.
# Topology ske, (6)-cn, num edge types: 1
# Building blocks:
#     Node 0, Type 0, BuildingBlock: MIDCAF_clean_sbu_0, # of connection points: 6
#     Node 1, Type 0, BuildingBlock: MIDCAF_clean_sbu_0, # of connection points: 6
#     Node 2, Type 0, BuildingBlock: MIDCAF_clean_sbu_0, # of connection points: 6
#     Node 3, Type 0, BuildingBlock: MIDCAF_clean_sbu_0, # of connection points: 6
#     Node 4, Type 0, BuildingBlock: MIDCAF_clean_sbu_0, # of connection points: 6
#     Node 5, Type 0, BuildingBlock: MIDCAF_clean_sbu_0, # of connection points: 6
#     Node 6, Type 0, BuildingBlock: MIDCAF_clean_sbu_0, # of connection points: 6
#     Node 7, Type 0, BuildingBlock: MIDCAF_clean_sbu_0, # of connection points: 6
#     Edge 8, Type (0, 0), BuildingBlock: TEMPAE_clean_linker_10, # of connection points: 2
#     Edge 9, Type (0, 0), BuildingBlock: TEMPAE_clean_linker_10, # of connection points: 2
#     Edge 10, Type (0, 0), BuildingBlock: TEMPAE_clean_linker_10, # of connection points: 2
#     Edge 11, Type (0, 0), BuildingBlock: TEMPAE_clean_linker_10, # of connection points: 2
#     Edge 12, Type (0, 0), BuildingBlock: TEMPAE_clean_linker_10, # of connection points: 2
#     Edge 13, Type (0, 0), BuildingBlock: TEMPAE_clean_linker_10, # of connection points: 2
#     Edge 14, Type (0, 0), BuildingBlock: TEMPAE_clean_linker_10, # of connection points: 2
#     Edge 15, Type (0, 0), BuildingBlock: TEMPAE_clean_linker_10, # of connection points: 2
#     Edge 16, Type (0, 0), BuildingBlock: TEMPAE_clean_linker_10, # of connection points: 2
#     Edge 17, Type (0, 0), BuildingBlock: TEMPAE_clean_linker_10, # of connection points: 2
#     Edge 18, Type (0, 0), BuildingBlock: TEMPAE_clean_linker_10, # of connection points: 2
#     Edge 19, Type (0, 0), BuildingBlock: TEMPAE_clean_linker_10, # of connection points: 2
#     Edge 20, Type (0, 0), BuildingBlock: TEMPAE_clean_linker_10, # of connection points: 2
#     Edge 21, Type (0, 0), BuildingBlock: TEMPAE_clean_linker_10, # of connection points: 2
#     Edge 22, Type (0, 0), BuildingBlock: TEMPAE_clean_linker_10, # of connection points: 2
#     Edge 23, Type (0, 0), BuildingBlock: TEMPAE_clean_linker_10, # of connection points: 2
#     Edge 24, Type (0, 0), BuildingBlock: TEMPAE_clean_linker_10, # of connection points: 2
#     Edge 25, Type (0, 0), BuildingBlock: TEMPAE_clean_linker_10, # of connection points: 2
#     Edge 26, Type (0, 0), BuildingBlock: TEMPAE_clean_linker_10, # of connection points: 2
#     Edge 27, Type (0, 0), BuildingBlock: TEMPAE_clean_linker_10, # of connection points: 2
#     Edge 28, Type (0, 0), BuildingBlock: TEMPAE_clean_linker_10, # of connection points: 2
#     Edge 29, Type (0, 0), BuildingBlock: TEMPAE_clean_linker_10, # of connection points: 2
#     Edge 30, Type (0, 0), BuildingBlock: TEMPAE_clean_linker_10, # of connection points: 2
#     Edge 31, Type (0, 0), BuildingBlock: TEMPAE_clean_linker_10, # of connection points: 2
# Relax obj value: 0.101
# Max RMSD: 0.160
# Mean RMSD: 0.160
data_MOF--net-ske--node1-MIDCAF_clean_sbu_0--edge1-TEMPAE_clean_linker_10
_symmetry_space_group_name_H-M    P1
_symmetry_Int_Tables_number       1
_symmetry_cell_setting            triclinic
loop_
_symmetry_equiv_pos_as_xyz
'x, y, z'
_cell_length_a     60.449213
_cell_length_b     30.541917
_cell_length_c     15.332398
_cell_angle_alpha  90.057816
_cell_angle_beta   90.023641
_cell_angle_gamma 90.113528
loop_
_atom_site_label
_atom_site_type_symbol
_atom_site_fract_x
_atom_site_fract_y
_atom_site_fract_z
_atom_type_partial_charge
Zn0 Zn 0.16524 0.20941 0.45058 0.0
Zn1 Zn 0.12422 0.27669 0.65556 0.0
Zn2 Zn 0.14564 0.25164 0.54516 0.0
C3 C 0.09277 0.24564 0.55586 0.0
C4 C 0.14487 0.34773 0.57193 0.0
O5 O 0.17779 0.23713 0.61168 0.0
O6 O 0.19558 0.21986 0.49178 0.0
C7 C 0.13317 0.15279 0.49756 0.0
O8 O 0.11058 0.22559 0.53142 0.0
O9 O 0.09403 0.2758 0.61151 0.0
O10 O 0.13958 0.33451 0.6472 0.0
O11 O 0.14471 0.32046 0.50789 0.0
O12 O 0.15294 0.15121 0.47168 0.0
O13 O 0.12502 0.1904 0.51917 0.0
O14 O 0.15243 0.29517 0.43149 0.0
O15 O 0.15716 0.23932 0.34239 0.0
C16 C 0.155 0.27996 0.35382 0.0
O17 O 0.16208 0.25278 0.67708 0.0
O18 O 0.13241 0.23831 0.75479 0.0
C19 C 0.19614 0.22915 0.57184 0.0
C20 C 0.15304 0.24417 0.75144 0.0
Zn21 Zn 0.85617 0.33188 0.49333 0.0
Zn22 Zn 0.90409 0.2348 0.63939 0.0
Zn23 Zn 0.88229 0.27833 0.55797 0.0
C24 C 0.93338 0.27166 0.53445 0.0
C25 C 0.87655 0.17939 0.55497 0.0
O26 O 0.85388 0.29032 0.65022 0.0
O27 O 0.83152 0.33345 0.57598 0.0
C28 C 0.8968 0.37546 0.50127 0.0
O29 O 0.91772 0.30031 0.54015 0.0
O30 O 0.93018 0.23373 0.56392 0.0
O31 O 0.88391 0.18387 0.63142 0.0
O32 O 0.87797 0.21194 0.50171 0.0
O33 O 0.87653 0.38225 0.48728 0.0
O34 O 0.90347 0.33707 0.52491 0.0
O35 O 0.87048 0.24419 0.44128 0.0
O36 O 0.85065 0.29808 0.38601 0.0
C37 C 0.85835 0.25982 0.37992 0.0
O38 O 0.87187 0.27228 0.69603 0.0
O39 O 0.90503 0.26502 0.7541 0.0
C40 C 0.83518 0.31041 0.64254 0.0
C41 C 0.88449 0.27047 0.76368 0.0
Zn42 Zn 0.10681 0.70021 0.35169 0.0
Zn43 Zn 0.15225 0.81871 0.49894 0.0
Zn44 Zn 0.12821 0.75995 0.42697 0.0
C45 C 0.15522 0.74901 0.60953 0.0
C46 C 0.10955 0.85381 0.48999 0.0
O47 O 0.14217 0.74848 0.29363 0.0
O48 O 0.12334 0.69161 0.24352 0.0
C49 C 0.12323 0.66067 0.49703 0.0
O50 O 0.14157 0.73394 0.55209 0.0
O51 O 0.16362 0.78651 0.6002 0.0
O52 O 0.12862 0.86163 0.51962 0.0
O53 O 0.10551 0.81715 0.45098 0.0
O54 O 0.10963 0.65305 0.43669 0.0
O55 O 0.13217 0.69885 0.50436 0.0
O56 O 0.09228 0.77966 0.42505 0.0
O57 O 0.07764 0.72654 0.34545 0.0
C58 C 0.07531 0.76103 0.3895 0.0
O59 O 0.15629 0.7777 0.33825 0.0
O60 O 0.17389 0.83098 0.40704 0.0
C61 C 0.13839 0.71971 0.23362 0.0
C62 C 0.17241 0.80545 0.34267 0.0
Zn63 Zn 0.89192 0.82138 0.25122 0.0
Zn64 Zn 0.83388 0.72355 0.39148 0.0
Zn65 Zn 0.86392 0.77191 0.32738 0.0
C66 C 0.83727 0.79219 0.50608 0.0
C67 C 0.87261 0.67204 0.38653 0.0
O68 O 0.85317 0.78671 0.19075 0.0
O69 O 0.87778 0.83384 0.1393 0.0
C70 C 0.87652 0.86857 0.39308 0.0
O71 O 0.8517 0.80337 0.44832 0.0
O72 O 0.82635 0.75728 0.49689 0.0
O73 O 0.85223 0.67099 0.40447 0.0
O74 O 0.88131 0.70817 0.35914 0.0
O75 O 0.89135 0.87016 0.33537 0.0
O76 O 0.86426 0.83425 0.40078 0.0
O77 O 0.89761 0.74223 0.33966 0.0
O78 O 0.91818 0.78403 0.25417 0.0
C79 C 0.91659 0.75248 0.30668 0.0
O80 O 0.83613 0.76313 0.23022 0.0
O81 O 0.81167 0.72209 0.29936 0.0
C82 C 0.86023 0.81216 0.12949 0.0
C83 C 0.81714 0.74366 0.23278 0.0
Zn84 Zn 0.59585 0.76857 0.1279 0.0
Zn85 Zn 0.64286 0.66768 0.96055 0.0
Zn86 Zn 0.61806 0.71755 0.04487 0.0
C87 C 0.60736 0.68198 0.85111 0.0
C88 C 0.62915 0.61735 0.09936 0.0
O89 O 0.60663 0.68483 0.16745 0.0
O90 O 0.57941 0.72867 0.20582 0.0
C91 C 0.63622 0.8045 0.14479 0.0
O92 O 0.6025 0.70895 0.91305 0.0
O93 O 0.62414 0.6578 0.85755 0.0
O94 O 0.644 0.61777 0.04155 0.0
O95 O 0.61716 0.65176 0.11146 0.0
O96 O 0.61834 0.8051 0.18686 0.0
O97 O 0.63897 0.77576 0.08379 0.0
O98 O 0.58948 0.73922 0.96133 0.0
O99 O 0.57881 0.79753 0.0346 0.0
C100 C 0.577 0.77333 0.96836 0.0
O101 O 0.65245 0.7462 0.03666 0.0
O102 O 0.66995 0.70277 0.94478 0.0
C103 C 0.5906 0.69458 0.21959 0.0
C104 C 0.67002 0.73625 0.9929 0.0
Zn105 Zn 0.34937 0.82095 0.90635 0.0
Zn106 Zn 0.39146 0.75796 0.11574 0.0
Zn107 Zn 0.36916 0.77822 0.00344 0.0
C108 C 0.42252 0.79053 0.01885 0.0
C109 C 0.37189 0.6835 0.03403 0.0
O110 O 0.3371 0.79214 0.06941 0.0
O111 O 0.31925 0.81139 0.9508 0.0
C112 C 0.38144 0.87746 0.95292 0.0
O113 O 0.40404 0.80615 0.98961 0.0
O114 O 0.4221 0.76231 0.07856 0.0
O115 O 0.37795 0.6984 0.10721 0.0
O116 O 0.37089 0.70939 0.96804 0.0
O117 O 0.36206 0.87936 0.92285 0.0
O118 O 0.38897 0.83998 0.9782 0.0
O119 O 0.36295 0.73384 0.89019 0.0
O120 O 0.35687 0.78878 0.8001 0.0
C121 C 0.35978 0.7484 0.81238 0.0
O122 O 0.35271 0.7757 0.13595 0.0
O123 O 0.38155 0.79466 0.21496 0.0
C124 C 0.31878 0.80105 0.03034 0.0
C125 C 0.36122 0.78557 0.21079 0.0
Zn126 Zn 0.6301 0.15836 0.00436 0.0
Zn127 Zn 0.67621 0.26441 0.16692 0.0
Zn128 Zn 0.65402 0.21201 0.08059 0.0
C129 C 0.67909 0.19156 0.26427 0.0
C130 C 0.63644 0.30586 0.15827 0.0
O131 O 0.66855 0.20286 0.94752 0.0
O132 O 0.64581 0.1525 0.89461 0.0
C133 C 0.64553 0.11005 0.13845 0.0
O134 O 0.66576 0.17921 0.20308 0.0
O135 O 0.68745 0.22929 0.26241 0.0
O136 O 0.65467 0.30974 0.1974 0.0
O137 O 0.6328 0.27181 0.10992 0.0
O138 O 0.63159 0.10689 0.07782 0.0
O139 O 0.65576 0.14673 0.15114 0.0
O140 O 0.61875 0.23778 0.07726 0.0
O141 O 0.60142 0.18614 0.0025 0.0
C142 C 0.60082 0.22162 0.04411 0.0
O143 O 0.68323 0.23139 0.99584 0.0
O144 O 0.69894 0.27982 0.08285 0.0
C145 C 0.66253 0.17665 0.88567 0.0
C146 C 0.69915 0.2586 0.0124 0.0
Zn147 Zn 0.41337 0.32114 0.89086 0.0
Zn148 Zn 0.36196 0.21274 0.04399 0.0
Zn149 Zn 0.38715 0.26812 0.96955 0.0
C150 C 0.36011 0.28487 0.14957 0.0
C151 C 0.40338 0.17337 0.03831 0.0
O152 O 0.3743 0.27866 0.83526 0.0
O153 O 0.39822 0.32551 0.77796 0.0
C154 C 0.39385 0.368 0.02602 0.0
O155 O 0.37403 0.29816 0.09151 0.0
O156 O 0.35119 0.24773 0.14236 0.0
O157 O 0.38422 0.1675 0.06882 0.0
O158 O 0.40803 0.2093 -0.00199 0.0
O159 O 0.40871 0.37143 0.96875 0.0
O160 O 0.38389 0.33121 0.03808 0.0
O161 O 0.42264 0.24511 0.97777 0.0
O162 O 0.44208 0.29216 0.8991 0.0
C163 C 0.44138 0.25905 0.9479 0.0
O164 O 0.35926 0.25107 0.87874 0.0
O165 O 0.34036 0.20105 0.95145 0.0
C166 C 0.38082 0.30295 0.77145 0.0
C167 C 0.34258 0.22471 0.8847 0.0
C168 C 0.2372 0.22112 0.56672 0.0
C169 C 0.21813 0.23119 0.61539 0.0
C170 C 0.25835 0.22272 0.60391 0.0
C171 C 0.2607 0.23446 0.69253 0.0
C172 C 0.24165 0.24555 0.74199 0.0
C173 C 0.22056 0.24377 0.7028 0.0
C174 C 0.2781 0.21031 0.54879 0.0
C175 C 0.24351 0.25854 0.83669 0.0
C176 C 0.30996 0.18904 0.81602 0.0
C177 C 0.32402 0.22553 0.82164 0.0
C178 C 0.2895 0.19148 0.77329 0.0
C179 C 0.28287 0.23144 0.73479 0.0
C180 C 0.29753 0.26778 0.73584 0.0
C181 C 0.31792 0.26446 0.77974 0.0
C182 C 0.27467 0.15161 0.77193 0.0
C183 C 0.29131 0.31063 0.69361 0.0
H184 H 0.23568 0.21149 0.49892 0.0
H185 H 0.20605 0.25202 0.74066 0.0
H186 H 0.29186 0.23391 0.55823 0.0
H187 H 0.28419 0.17764 0.56917 0.0
H188 H 0.27398 0.20889 0.47821 0.0
H189 H 0.22736 0.26879 0.86461 0.0
H190 H 0.2499 0.23056 0.87524 0.0
H191 H 0.2555 0.28586 0.84401 0.0
H192 H 0.31459 0.15883 0.84827 0.0
H193 H 0.32843 0.29307 0.78554 0.0
H194 H 0.27027 0.14304 0.70377 0.0
H195 H 0.25903 0.15883 0.80689 0.0
H196 H 0.28255 0.12269 0.80289 0.0
H197 H 0.28599 0.30516 0.62519 0.0
H198 H 0.30523 0.33445 0.69381 0.0
H199 H 0.27711 0.32525 0.72897 0.0
C200 C 0.7208 0.24434 0.87362 0.0
C201 C 0.71902 0.26397 0.95576 0.0
C202 C 0.73992 0.24981 0.82215 0.0
C203 C 0.75796 0.27471 0.85483 0.0
C204 C 0.75655 0.29346 0.93887 0.0
C205 C 0.73712 0.28837 0.98748 0.0
C206 C 0.74052 0.22994 0.73208 0.0
C207 C 0.77538 0.31985 0.97717 0.0
C208 C 0.81548 0.26489 0.75479 0.0
C209 C 0.81665 0.30305 0.7043 0.0
C210 C 0.79638 0.25483 0.80335 0.0
C211 C 0.77793 0.28337 0.80042 0.0
C212 C 0.77908 0.32204 0.74993 0.0
C213 C 0.79842 0.3315 0.70308 0.0
C214 C 0.79578 0.21339 0.85674 0.0
C215 C 0.75977 0.35323 0.74451 0.0
H216 H 0.70728 0.225 0.84939 0.0
H217 H 0.7363 0.30348 0.05138 0.0
H218 H 0.73975 0.25645 0.68272 0.0
H219 H 0.75621 0.21196 0.72147 0.0
H220 H 0.72644 0.2072 0.72076 0.0
H221 H 0.77351 0.32466 0.04862 0.0
H222 H 0.79149 0.30372 0.96467 0.0
H223 H 0.77591 0.35253 0.94573 0.0
H224 H 0.82911 0.24202 0.75359 0.0
H225 H 0.79907 0.36091 0.66363 0.0
H226 H 0.78251 0.19147 0.8322 0.0
H227 H 0.79181 0.22116 0.92566 0.0
H228 H 0.81171 0.19543 0.85434 0.0
H229 H 0.7447 0.33542 0.72309 0.0
H230 H 0.76289 0.38066 0.69854 0.0
H231 H 0.75628 0.36716 0.80989 0.0
C232 C 0.27765 0.807 0.02536 0.0
C233 C 0.2969 0.79868 0.07428 0.0
C234 C 0.25661 0.80536 0.06327 0.0
C235 C 0.25457 0.79547 0.15283 0.0
C236 C 0.2738 0.78608 0.20258 0.0
C237 C 0.29476 0.78776 0.16262 0.0
C238 C 0.23663 0.81576 0.00778 0.0
C239 C 0.27225 0.77516 0.29836 0.0
C240 C 0.20477 0.84117 0.27228 0.0
C241 C 0.19124 0.80409 0.2811 0.0
C242 C 0.22529 0.83877 0.23013 0.0
C243 C 0.23247 0.7983 0.19532 0.0
C244 C 0.2184 0.7612 0.19997 0.0
C245 C 0.19801 0.76443 0.24364 0.0
C246 C 0.2396 0.87932 0.22524 0.0
C247 C 0.22518 0.71778 0.16137 0.0
H248 H 0.27895 0.81522 0.9568 0.0
H249 H 0.30941 0.78092 0.20073 0.0
H250 H 0.22299 0.79233 0.02066 0.0
H251 H 0.2305 0.84893 0.0245 0.0
H252 H 0.24053 0.81507 0.93699 0.0
H253 H 0.28857 0.76626 0.32667 0.0
H254 H 0.26561 0.8037 0.33465 0.0
H255 H 0.26059 0.74752 0.30837 0.0
H256 H 0.19965 0.87189 0.30142 0.0
H257 H 0.18801 0.73535 0.2526 0.0
H258 H 0.24368 0.88677 0.1563 0.0
H259 H 0.25543 0.87358 0.25996 0.0
H260 H 0.23143 0.90841 0.25441 0.0
H261 H 0.22989 0.72191 0.09192 0.0
H262 H 0.21176 0.69295 0.16541 0.0
H263 H 0.23992 0.70518 0.19639 0.0
C264 C 0.69724 0.77381 0.09066 0.0
C265 C 0.69147 0.75872 0.00741 0.0
C266 C 0.71951 0.78167 0.11253 0.0
C267 C 0.7363 0.77395 0.04974 0.0
C268 C 0.73021 0.76437 0.96275 0.0
C269 C 0.70787 0.75658 0.9427 0.0
C270 C 0.72518 0.7933 0.20552 0.0
C271 C 0.74741 0.75763 0.89291 0.0
C272 C 0.79549 0.79124 0.13052 0.0
C273 C 0.80009 0.74966 0.16468 0.0
C274 C 0.77532 0.79947 0.08726 0.0
C275 C 0.75943 0.76542 0.07955 0.0
C276 C 0.76498 0.7226 0.10744 0.0
C277 C 0.78521 0.71533 0.14933 0.0
C278 C 0.77054 0.84525 0.05592 0.0
C279 C 0.74889 0.68488 0.09893 0.0
H280 H 0.68475 0.7753 0.14118 0.0
H281 H 0.70348 0.74557 0.87768 0.0
H282 H 0.73152 0.76376 0.23937 0.0
H283 H 0.73837 0.81859 0.20753 0.0
H284 H 0.71054 0.80559 0.24181 0.0
H285 H 0.7403 0.76172 0.82659 0.0
H286 H 0.76133 0.78095 0.90127 0.0
H287 H 0.75418 0.72399 0.89806 0.0
H288 H 0.80678 0.81808 0.14336 0.0
H289 H 0.7888 0.68311 0.17544 0.0
H290 H 0.7616 0.86334 0.10784 0.0
H291 H 0.75998 0.84508 0.99672 0.0
H292 H 0.78609 0.8633 0.04137 0.0
H293 H 0.73408 0.69123 0.1398 0.0
H294 H 0.75625 0.65324 0.11956 0.0
H295 H 0.74323 0.68162 0.03041 0.0
C296 C 0.09109 0.91261 0.57218 0.0
C297 C 0.09385 0.89084 0.49232 0.0
C298 C 0.08859 0.95835 0.57543 0.0
C299 C 0.08915 0.9827 0.49693 0.0
C300 C 0.08748 0.95989 0.41647 0.0
C301 C 0.08992 0.91397 0.41502 0.0
C302 C 0.08934 0.98086 0.66292 0.0
C303 C 0.08687 0.98431 0.33117 0.0
C304 C 0.09752 0.10789 0.50554 0.0
C305 C 0.12069 0.11061 0.50151 0.0
C306 C 0.08665 0.06668 0.50325 0.0
C307 C 0.09933 0.02755 0.4982 0.0
C308 C 0.1227 0.03055 0.49577 0.0
C309 C 0.13292 0.0716 0.49751 0.0
C310 C 0.06175 0.06533 0.50713 0.0
C311 C 0.13723 0.99026 0.49113 0.0
H312 H 0.09397 0.89478 0.63227 0.0
H313 H 0.09195 0.89736 0.35299 0.0
H314 H 0.1066 0.99124 0.67692 0.0
H315 H 0.0788 0.01053 0.66296 0.0
H316 H 0.08383 0.95868 0.71606 0.0
H317 H 0.07996 0.9636 0.27811 0.0
H318 H 0.07688 0.01461 0.33697 0.0
H319 H 0.10397 0.99387 0.31276 0.0
H320 H 0.08789 0.13773 0.50889 0.0
H321 H 0.15083 0.07296 0.49556 0.0
H322 H 0.05651 0.06015 0.57568 0.0
H323 H 0.05495 0.03805 0.46741 0.0
H324 H 0.05439 0.09663 0.48437 0.0
H325 H 0.13417 0.96896 0.54844 0.0
H326 H 0.15514 0.99845 0.48962 0.0
H327 H 0.13329 0.97104 0.43168 0.0
C328 C 0.91194 0.44463 0.55868 0.0
C329 C 0.91156 0.41373 0.49104 0.0
C330 C 0.9138 0.48972 0.54072 0.0
C331 C 0.91519 0.50412 0.45297 0.0
C332 C 0.91875 0.47256 0.38658 0.0
C333 C 0.91662 0.42767 0.40624 0.0
C334 C 0.91067 0.52189 0.61429 0.0
C335 C 0.92136 0.48616 0.29267 0.0
C336 C 0.87268 0.591 0.39857 0.0
C337 C 0.88503 0.63 0.39589 0.0
C338 C 0.88249 0.55047 0.41541 0.0
C339 C 0.90561 0.54789 0.42915 0.0
C340 C 0.91855 0.58675 0.42281 0.0
C341 C 0.90807 0.6275 0.40665 0.0
C342 C 0.86774 0.51041 0.42057 0.0
C343 C 0.94326 0.58584 0.43572 0.0
H344 H 0.90783 0.43413 0.62428 0.0
H345 H 0.91618 0.40402 0.35343 0.0
H346 H 0.92132 0.55112 0.60505 0.0
H347 H 0.89319 0.533 0.61511 0.0
H348 H 0.91448 0.50689 0.67853 0.0
H349 H 0.92945 0.46007 0.25355 0.0
H350 H 0.90479 0.49249 0.26419 0.0
H351 H 0.93122 0.51674 0.28746 0.0
H352 H 0.85493 0.59206 0.38873 0.0
H353 H 0.91781 0.65727 0.40491 0.0
H354 H 0.86913 0.49514 0.48597 0.0
H355 H 0.87298 0.48576 0.37164 0.0
H356 H 0.85005 0.51819 0.40871 0.0
H357 H 0.94696 0.58786 0.50648 0.0
H358 H 0.95139 0.61413 0.40323 0.0
H359 H 0.95057 0.55505 0.41039 0.0
C360 C 0.88944 0.93549 0.46776 0.0
C361 C 0.87175 0.90919 0.4408 0.0
C362 C 0.88622 0.97956 0.48925 0.0
C363 C 0.86482 0.99798 0.48171 0.0
C364 C 0.84661 0.97082 0.45981 0.0
C365 C 0.85029 0.92641 0.44029 0.0
C366 C 0.90599 0.00695 0.51536 0.0
C367 C 0.82358 0.9892 0.45081 0.0
C368 C 0.86141 0.10688 0.59624 0.0
C369 C 0.8681 0.13571 0.52986 0.0
C370 C 0.85844 0.06218 0.58 0.0
C371 C 0.86203 0.0459 0.49498 0.0
C372 C 0.86652 0.07552 0.42579 0.0
C373 C 0.86956 0.1203 0.44413 0.0
C374 C 0.85358 0.03198 0.65562 0.0
C375 C 0.86988 0.05944 0.33371 0.0
H376 H 0.90604 0.92206 0.46762 0.0
H377 H 0.83667 0.90616 0.4178 0.0
H378 H 0.90928 0.03201 0.46461 0.0
H379 H 0.90259 0.0245 0.5773 0.0
H380 H 0.92116 0.98692 0.52396 0.0
H381 H 0.81087 0.96294 0.44704 0.0
H382 H 0.81955 0.01114 0.50625 0.0
H383 H 0.82264 0.00906 0.39036 0.0
H384 H 0.85978 0.11883 0.66257 0.0
H385 H 0.87457 0.14247 0.39264 0.0
H386 H 0.86885 0.01393 0.67331 0.0
H387 H 0.84086 0.00734 0.63764 0.0
H388 H 0.8478 0.05019 0.71408 0.0
H389 H 0.88606 0.04246 0.32906 0.0
H390 H 0.86974 0.08673 0.28583 0.0
H391 H 0.85683 0.03547 0.31572 0.0
C392 C 0.15377 0.61074 0.5354 0.0
C393 C 0.13152 0.62249 0.54483 0.0
C394 C 0.16038 0.56686 0.54471 0.0
C395 C 0.14432 0.53462 0.56515 0.0
C396 C 0.12235 0.54747 0.58441 0.0
C397 C 0.11619 0.59127 0.57336 0.0
C398 C 0.18399 0.55463 0.52444 0.0
C399 C 0.10484 0.51439 0.60917 0.0
C400 C 0.14531 0.41718 0.48431 0.0
C401 C 0.14977 0.39489 0.56196 0.0
C402 C 0.14521 0.46327 0.48259 0.0
C403 C 0.14967 0.48715 0.56025 0.0
C404 C 0.15616 0.46463 0.63637 0.0
C405 C 0.15618 0.41883 0.63619 0.0
C406 C 0.13867 0.4863 0.39951 0.0
C407 C 0.16121 0.48864 0.72025 0.0
H408 H 0.16554 0.63481 0.51175 0.0
H409 H 0.09894 0.60047 0.57981 0.0
H410 H 0.19019 0.52954 0.57059 0.0
H411 H 0.18477 0.54038 0.45791 0.0
H412 H 0.19515 0.58355 0.52678 0.0
H413 H 0.08921 0.53026 0.63031 0.0
H414 H 0.10117 0.49303 0.55235 0.0
H415 H 0.11084 0.49308 0.6627 0.0
H416 H 0.14049 0.39881 0.42679 0.0
H417 H 0.1601 0.40167 0.69615 0.0
H418 H 0.15015 0.51386 0.38595 0.0
H419 H 0.12184 0.50022 0.40703 0.0
H420 H 0.13861 0.46378 0.34255 0.0
H421 H 0.17199 0.5174 0.70792 0.0
H422 H 0.1694 0.46713 0.7689 0.0
H423 H 0.14557 0.50094 0.749 0.0
C424 C 0.64187 0.54479 0.15098 0.0
C425 C 0.62439 0.57448 0.14107 0.0
C426 C 0.638 0.49989 0.16249 0.0
C427 C 0.61599 0.48383 0.16499 0.0
C428 C 0.5982 0.51412 0.16289 0.0
C429 C 0.6026 0.55921 0.15067 0.0
C430 C 0.65762 0.46931 0.16588 0.0
C431 C 0.5745 0.49885 0.16753 0.0
C432 C 0.61696 0.36676 0.08299 0.0
C433 C 0.62166 0.34447 0.16055 0.0
C434 C 0.6124 0.41205 0.08388 0.0
C435 C 0.61228 0.43522 0.1643 0.0
C436 C 0.61376 0.41132 0.24311 0.0
C437 C 0.6187 0.36636 0.24027 0.0
C438 C 0.61052 0.43591 -0.00184 0.0
C439 C 0.61282 0.43404 0.33043 0.0
H440 H 0.65874 0.55642 0.14388 0.0
H441 H 0.58898 0.58185 0.14216 0.0
H442 H 0.6568 0.44862 0.22519 0.0
H443 H 0.6573 0.44712 0.10852 0.0
H444 H 0.67364 0.48717 0.16613 0.0
H445 H 0.56328 0.52576 0.18789 0.0
H446 H 0.56919 0.48737 0.10211 0.0
H447 H 0.57262 0.47109 0.21358 0.0
H448 H 0.61939 0.35014 0.02121 0.0
H449 H 0.62232 0.34922 0.30052 0.0
H450 H 0.62624 0.45351 0.98485 0.0
H451 H 0.59712 0.46062 0.00083 0.0
H452 H 0.60721 0.41311 0.94315 0.0
H453 H 0.62907 0.44954 0.34424 0.0
H454 H 0.60909 0.41063 0.38389 0.0
H455 H 0.60013 0.46024 0.3304 0.0
C456 C 0.38301 0.95862 0.94556 0.0
C457 C 0.39414 0.91912 0.96132 0.0
C458 C 0.39315 0.99919 0.95911 0.0
C459 C 0.41546 1.00102 0.98743 0.0
C460 C 0.42734 0.96135 -0.00094 0.0
C461 C 0.41642 0.92077 0.98715 0.0
C462 C 0.37943 0.04014 0.9464 0.0
C463 C 0.45131 0.96111 0.0262 0.0
C464 C 0.42724 0.12 0.95949 0.0
C465 C 0.41825 0.13497 0.03827 0.0
C466 C 0.43075 0.07485 0.94612 0.0
C467 C 0.42469 0.04476 0.01238 0.0
C468 C 0.42007 0.06087 0.097 0.0
C469 C 0.41692 0.10597 0.10895 0.0
C470 C 0.43765 0.05904 0.85715 0.0
C471 C 0.41465 0.03028 0.17114 0.0
H472 H 0.36584 0.95809 0.92519 0.0
H473 H 0.4253 0.8906 -0.00114 0.0
H474 H 0.37881 0.05928 0.00789 0.0
H475 H 0.38699 0.06119 0.89563 0.0
H476 H 0.36216 0.03275 0.92625 0.0
H477 H 0.46028 0.93399 0.99333 0.0
H478 H 0.45979 0.99247 0.01114 0.0
H479 H 0.45237 0.9552 0.09746 0.0
H480 H 0.42877 0.14238 0.90495 0.0
H481 H 0.41051 0.11772 0.17075 0.0
H482 H 0.4227 0.0522 0.81737 0.0
H483 H 0.44735 0.02829 0.86209 0.0
H484 H 0.44766 0.0842 0.8227 0.0
H485 H 0.39782 0.01647 0.16125 0.0
H486 H 0.415 0.04736 0.23514 0.0
H487 H 0.42649 1.00264 0.17299 0.0
C488 C 0.40017 0.44195 0.08528 0.0
C489 C 0.38515 0.40911 0.06167 0.0
C490 C 0.3939 0.48606 0.08496 0.0
C491 C 0.37218 0.4975 0.05882 0.0
C492 C 0.3564 0.46415 0.04256 0.0
C493 C 0.36306 0.4201 0.04499 0.0
C494 C 0.41107 0.52052 0.10587 0.0
C495 C 0.33309 0.47491 0.01483 0.0
C496 C 0.35923 0.61573 0.10641 0.0
C497 C 0.36667 0.63632 0.02986 0.0
C498 C 0.35925 0.57015 0.11458 0.0
C499 C 0.36676 0.5444 0.04415 0.0
C500 C 0.37217 0.56476 0.96357 0.0
C501 C 0.37208 0.61077 0.95729 0.0
C502 C 0.35321 0.55 0.20134 0.0
C503 C 0.37974 0.53813 0.88628 0.0
H504 H 0.4173 0.43332 0.09731 0.0
H505 H 0.35156 0.39469 0.02497 0.0
H506 H 0.41529 0.53894 0.04576 0.0
H507 H 0.40444 0.54434 0.15383 0.0
H508 H 0.42649 0.50609 0.1327 0.0
H509 H 0.32193 0.4461 0.02042 0.0
H510 H 0.32622 0.50212 0.05434 0.0
H511 H 0.33321 0.48573 0.94575 0.0
H512 H 0.3546 0.63547 0.16234 0.0
H513 H 0.37772 0.6266 0.89805 0.0
H514 H 0.36851 0.53924 0.23507 0.0
H515 H 0.34262 0.52068 0.19216 0.0
H516 H 0.34444 0.57355 0.2444 0.0
H517 H 0.39655 0.5251 0.8992 0.0
H518 H 0.38032 0.55792 0.82555 0.0
H519 H 0.36858 0.50972 0.87584 0.0
C520 C 0.67298 0.05395 0.18715 0.0
C521 C 0.6511 0.06905 0.18449 0.0
C522 C 0.67751 0.00878 0.19547 0.0
C523 C 0.6597 0.97848 0.19957 0.0
C524 C 0.63777 0.99445 0.20676 0.0
C525 C 0.63383 0.03948 0.20026 0.0
C526 C 0.70121 0.99366 0.1924 0.0
C527 C 0.61812 0.96383 0.21203 0.0
C528 C 0.65596 0.86924 0.08581 0.0
C529 C 0.65132 0.84211 0.15696 0.0
C530 C 0.66152 0.91355 0.09874 0.0
C531 C 0.66301 0.93048 0.18487 0.0
C532 C 0.66196 0.9012 0.2562 0.0
C533 C 0.65561 0.85749 0.24156 0.0
C534 C 0.66285 0.94329 0.02041 0.0
C535 C 0.665 0.91704 0.3486 0.0
H536 H 0.68641 0.07667 0.17464 0.0
H537 H 0.61691 0.05123 0.19858 0.0
H538 H 0.70351 0.96225 0.22754 0.0
H539 H 0.70621 0.98881 0.12346 0.0
H540 H 0.71242 0.01869 0.22116 0.0
H541 H 0.60224 0.98167 0.21972 0.0
H542 H 0.61716 0.94373 0.15177 0.0
H543 H 0.61999 0.94113 0.26787 0.0
H544 H 0.65266 0.85739 0.02038 0.0
H545 H 0.65226 0.83635 0.2968 0.0
H546 H 0.67733 0.96546 0.02575 0.0
H547 H 0.64778 0.96397 0.01758 0.0
H548 H 0.66412 0.92458 0.95844 0.0
H549 H 0.67781 0.94308 0.35204 0.0
H550 H 0.66977 0.88978 0.39264 0.0
H551 H 0.64923 0.93103 0.3728 0.0
C552 C 0.18037 0.30753 0.24331 0.0
C553 C 0.15875 0.30728 0.27658 0.0
C554 C 0.18422 0.30642 0.153 0.0
C555 C 0.16597 0.30623 0.09527 0.0
C556 C 0.14443 0.31382 0.12874 0.0
C557 C 0.14103 0.31373 0.21946 0.0
C558 C 0.20748 0.29886 0.12068 0.0
C559 C 0.12459 0.31601 0.06923 0.0
C560 C 0.17032 0.29923 0.84795 0.0
C561 C 0.16405 0.25553 0.83399 0.0
C562 C 0.17231 0.31618 0.93296 0.0
C563 C 0.16847 0.28833 0.00517 0.0
C564 C 0.16456 0.24304 0.99075 0.0
C565 C 0.16196 0.2274 0.90528 0.0
C566 C 0.17626 0.36463 0.94454 0.0
C567 C 0.16121 0.21166 0.06571 0.0
H568 H 0.1941 0.30204 0.28757 0.0
H569 H 0.12429 0.3131 0.24493 0.0
H570 H 0.20991 0.2633 0.10919 0.0
H571 H 0.21048 0.31601 0.05806 0.0
H572 H 0.21996 0.30993 0.16916 0.0
H573 H 0.11004 0.3305 0.10268 0.0
H574 H 0.12839 0.33563 0.01021 0.0
H575 H 0.12013 0.28244 0.04763 0.0
H576 H 0.17144 0.32128 0.7927 0.0
H577 H 0.15681 0.1938 0.89435 0.0
H578 H 0.18641 0.37157 0.00323 0.0
H579 H 0.16009 0.38125 0.9531 0.0
H580 H 0.18453 0.37905 0.88656 0.0
H581 H 0.17442 0.216 0.11526 0.0
H582 H 0.16119 0.17697 0.04381 0.0
H583 H 0.14514 0.21853 0.09785 0.0
C584 C 0.87433 0.21668 0.25845 0.0
C585 C 0.85603 0.23758 0.29548 0.0
C586 C 0.87603 0.21255 0.16757 0.0
C587 C 0.85904 0.22985 0.11406 0.0
C588 C 0.83913 0.24464 0.1522 0.0
C589 C 0.83783 0.24813 0.24293 0.0
C590 C 0.89724 0.19515 0.12918 0.0
C591 C 0.82047 0.26278 0.09789 0.0
C592 C 0.87996 0.2925 0.91783 0.0
C593 C 0.8751 0.26349 0.85025 0.0
C594 C 0.87419 0.28226 0.00388 0.0
C595 C 0.86395 0.24144 0.02228 0.0
C596 C 0.85881 0.21223 0.95366 0.0
C597 C 0.86439 0.22378 0.86799 0.0
C598 C 0.87964 0.31463 0.07535 0.0
C599 C 0.8482 0.16831 0.97112 0.0
H600 H 0.88837 0.20829 0.29913 0.0
H601 H 0.82349 0.26365 0.27203 0.0
H602 H 0.89398 0.17588 0.06916 0.0
H603 H 0.9081 0.22306 0.11121 0.0
H604 H 0.90629 0.17427 0.17652 0.0
H605 H 0.8045 0.26168 0.1337 0.0
H606 H 0.82412 0.29747 0.08182 0.0
H607 H 0.81862 0.24464 0.03573 0.0
H608 H 0.88866 0.32273 0.90345 0.0
H609 H 0.86131 0.20089 0.81519 0.0
H610 H 0.89169 0.29994 0.12139 0.0
H611 H 0.86451 0.32268 0.11299 0.0
H612 H 0.88679 0.34553 0.04945 0.0
H613 H 0.85893 0.14869 0.01482 0.0
H614 H 0.84528 0.14941 0.91023 0.0
H615 H 0.83218 0.17281 0.00515 0.0
C616 C 0.15113 0.75898 0.10114 0.0
C617 C 0.15009 0.72035 0.14966 0.0
C618 C 0.15624 0.75764 0.01188 0.0
C619 C 0.16095 0.71683 0.97166 0.0
C620 C 0.16255 0.67867 0.02326 0.0
C621 C 0.15662 0.6807 0.11153 0.0
C622 C 0.15487 0.79931 0.95935 0.0
C623 C 0.16919 0.63529 0.98412 0.0
C624 C 0.14018 0.71103 0.73915 0.0
C625 C 0.15854 0.72701 0.6938 0.0
C626 C 0.14115 0.70486 0.82976 0.0
C627 C 0.16121 0.71351 0.8749 0.0
C628 C 0.18049 0.72425 0.82727 0.0
C629 C 0.17883 0.73166 0.73728 0.0
C630 C 0.12013 0.6935 0.87798 0.0
C631 C 0.2025 0.73183 0.87125 0.0
H632 H 0.14614 0.78958 0.13111 0.0
H633 H 0.15613 0.65091 0.14992 0.0
H634 H 0.17056 0.80472 0.92348 0.0
H635 H 0.14143 0.79643 0.91029 0.0
H636 H 0.1516 0.82843 0.00084 0.0
H637 H 0.17341 0.61087 0.0351 0.0
H638 H 0.15537 0.62204 0.9444 0.0
H639 H 0.18363 0.63955 0.94022 0.0
H640 H 0.12448 0.70769 0.70552 0.0
H641 H 0.19311 0.7438 0.70189 0.0
H642 H 0.11504 0.72174 0.91891 0.0
H643 H 0.12289 0.66533 0.92215 0.0
H644 H 0.10633 0.68525 0.83295 0.0
H645 H 0.2047 0.76744 0.88255 0.0
H646 H 0.21626 0.7209 0.8285 0.0
H647 H 0.2038 0.71464 0.93477 0.0
C648 C 0.85559 0.82731 0.63262 0.0
C649 C 0.83602 0.81468 0.59082 0.0
C650 C 0.85604 0.83349 0.72328 0.0
C651 C 0.83628 0.82828 0.77211 0.0
C652 C 0.816 0.82134 0.72822 0.0
C653 C 0.81616 0.81385 0.63801 0.0
C654 C 0.87807 0.84079 0.76747 0.0
C655 C 0.79441 0.81748 0.77691 0.0
C656 C 0.84594 0.77784 0.99435 0.0
C657 C 0.8488 0.81529 0.04538 0.0
C658 C 0.8407 0.78153 0.90552 0.0
C659 C 0.83757 0.82364 0.86844 0.0
C660 C 0.8381 0.86115 0.92247 0.0
C661 C 0.84425 0.85661 0.01017 0.0
C662 C 0.84025 0.74063 0.85012 0.0
C663 C 0.83343 0.90621 0.88669 0.0
H664 H 0.87095 0.82781 0.59616 0.0
H665 H 0.80095 0.80442 0.60539 0.0
H666 H 0.87707 0.86844 0.81416 0.0
H667 H 0.88259 0.8111 0.80516 0.0
H668 H 0.8915 0.84774 0.71995 0.0
H669 H 0.7802 0.82653 0.73466 0.0
H670 H 0.79206 0.78299 0.79746 0.0
H671 H 0.7942 0.8384 0.83614 0.0
H672 H 0.84955 0.746 0.02213 0.0
H673 H 0.84631 0.88552 0.05052 0.0
H674 H 0.85363 0.74223 0.80065 0.0
H675 H 0.82432 0.73819 0.81459 0.0
H676 H 0.84248 0.71042 0.88944 0.0
H677 H 0.84774 0.91759 0.84747 0.0
H678 H 0.83047 0.93039 0.93956 0.0
H679 H 0.81878 0.90544 0.84304 0.0
C680 C 0.56808 0.67685 0.3508 0.0
C681 C 0.58839 0.6742 0.30667 0.0
C682 C 0.56696 0.67312 0.44203 0.0
C683 C 0.58669 0.66754 0.49036 0.0
C684 C 0.60694 0.66088 0.44545 0.0
C685 C 0.60749 0.66372 0.35391 0.0
C686 C 0.5449 0.67856 0.4868 0.0
C687 C 0.62839 0.65469 0.49432 0.0
C688 C 0.59401 0.71801 0.71563 0.0
C689 C 0.59528 0.68052 0.76762 0.0
C690 C 0.58998 0.71449 0.62543 0.0
C691 C 0.58667 0.67255 0.58731 0.0
C692 C 0.58567 0.6352 0.64161 0.0
C693 C 0.59032 0.63957 0.7309 0.0
C694 C 0.5912 0.75521 0.56996 0.0
C695 C 0.58138 0.59016 0.60461 0.0
H696 H 0.55324 0.68493 0.31445 0.0
H697 H 0.62325 0.66207 0.32034 0.0
H698 H 0.54304 0.65462 0.5407 0.0
H699 H 0.54388 0.71182 0.51564 0.0
H700 H 0.53088 0.67441 0.44063 0.0
H701 H 0.64239 0.64695 0.45004 0.0
H702 H 0.63245 0.6851 0.53074 0.0
H703 H 0.62676 0.62794 0.54274 0.0
H704 H 0.59818 0.74956 0.7438 0.0
H705 H 0.59143 0.6105 0.77125 0.0
H706 H 0.57655 0.75737 0.52663 0.0
H707 H 0.60607 0.75362 0.52763 0.0
H708 H 0.59215 0.78551 0.60996 0.0
H709 H 0.56779 0.59106 0.55597 0.0
H710 H 0.57704 0.56623 0.6564 0.0
H711 H 0.59644 0.57831 0.57073 0.0
C712 C 0.37444 0.7154 0.67837 0.0
C713 C 0.35658 0.72045 0.7354 0.0
C714 C 0.37109 0.71518 0.58756 0.0
C715 C 0.34944 0.72114 0.55381 0.0
C716 C 0.33118 0.71943 0.61136 0.0
C717 C 0.335 0.71852 0.70177 0.0
C718 C 0.391 0.71462 0.5283 0.0
C719 C 0.30782 0.72508 0.57874 0.0
C720 C 0.35189 0.80086 0.365 0.0
C721 C 0.35045 0.77285 0.2931 0.0
C722 C 0.34961 0.78471 0.4502 0.0
C723 C 0.34665 0.73909 0.46383 0.0
C724 C 0.34344 0.71121 0.39101 0.0
C725 C 0.3451 0.72862 0.30628 0.0
C726 C 0.35225 0.81609 0.52572 0.0
C727 C 0.3405 0.66245 0.40159 0.0
H728 H 0.39114 0.71731 0.70401 0.0
H729 H 0.32114 0.72292 0.74587 0.0
H730 H 0.38764 0.69475 0.46911 0.0
H731 H 0.39479 0.74853 0.50697 0.0
H732 H 0.40582 0.70127 0.56184 0.0
H733 H 0.29553 0.71323 0.62718 0.0
H734 H 0.3047 0.76037 0.56676 0.0
H735 H 0.30521 0.70745 0.51629 0.0
H736 H 0.3563 0.8349 0.35476 0.0
H737 H 0.34446 0.70671 0.25064 0.0
H738 H 0.36841 0.81035 0.5581 0.0
H739 H 0.33909 0.81058 0.57492 0.0
H740 H 0.35162 0.85082 0.5044 0.0
H741 H 0.35702 0.64701 0.40808 0.0
H742 H 0.33216 0.6478 0.34388 0.0
H743 H 0.33084 0.65436 0.46092 0.0
C744 C 0.66342 0.15096 0.3894 0.0
C745 C 0.68206 0.16646 0.34514 0.0
C746 C 0.66396 0.14552 0.48034 0.0
C747 C 0.6837 0.15518 0.52674 0.0
C748 C 0.70333 0.16454 0.48024 0.0
C749 C 0.70223 0.17031 0.38975 0.0
C750 C 0.64273 0.1346 0.52738 0.0
C751 C 0.72492 0.17365 0.52624 0.0
C752 C 0.67246 0.2101 0.74392 0.0
C753 C 0.67373 0.17457 0.80095 0.0
C754 C 0.67702 0.20469 0.65483 0.0
C755 C 0.68276 0.16263 0.62252 0.0
C756 C 0.68561 0.12745 0.68124 0.0
C757 C 0.68082 0.13377 0.76985 0.0
C758 C 0.67427 0.24332 0.59446 0.0
C759 C 0.69225 0.08252 0.64983 0.0
H760 H 0.64782 0.14808 0.3549 0.0
H761 H 0.71672 0.18204 0.35511 0.0
H762 H 0.64569 0.10987 0.57897 0.0
H763 H 0.63628 0.16455 0.55953 0.0
H764 H 0.62985 0.12194 0.48217 0.0
H765 H 0.73925 0.16738 0.48268 0.0
H766 H 0.72544 0.20862 0.54573 0.0
H767 H 0.72672 0.15346 0.58591 0.0
H768 H 0.66657 0.24136 0.76808 0.0
H769 H 0.68144 0.10617 0.81424 0.0
H770 H 0.66028 0.23713 0.54915 0.0
H771 H 0.68938 0.24779 0.55439 0.0
H772 H 0.671 0.27421 0.63052 0.0
H773 H 0.6781 0.06703 0.6154 0.0
H774 H 0.69723 0.06088 0.7046 0.0
H775 H 0.70614 0.08477 0.60276 0.0
C776 C 0.37631 0.32227 0.27774 0.0
C777 C 0.35746 0.30763 0.23355 0.0
C778 C 0.37605 0.32723 0.36876 0.0
C779 C 0.35626 0.31863 0.41559 0.0
C780 C 0.3365 0.30967 0.36954 0.0
C781 C 0.33741 0.3036 0.27893 0.0
C782 C 0.39754 0.33688 0.41531 0.0
C783 C 0.31481 0.30221 0.416 0.0
C784 C 0.36739 0.26739 0.63605 0.0
C785 C 0.36878 0.30467 0.68852 0.0
C786 C 0.36192 0.27113 0.54738 0.0
C787 C 0.35723 0.31302 0.51185 0.0
C788 C 0.3562 0.34989 0.56745 0.0
C789 C 0.36247 0.34543 0.65501 0.0
C790 C 0.36297 0.23085 0.4904 0.0
C791 C 0.34988 0.39447 0.53334 0.0
H792 H 0.39183 0.32511 0.24274 0.0
H793 H 0.32275 0.29245 0.24453 0.0
H794 H 0.39532 0.36376 0.46312 0.0
H795 H 0.40285 0.30741 0.45205 0.0
H796 H 0.41096 0.34618 0.36939 0.0
H797 H 0.3006 0.31074 0.37335 0.0
H798 H 0.3133 0.26704 0.43297 0.0
H799 H 0.31369 0.32156 0.47713 0.0
H800 H 0.37236 0.23599 0.66251 0.0
H801 H 0.36343 0.37418 0.69643 0.0
H802 H 0.37645 0.23461 0.44182 0.0
H803 H 0.34727 0.22682 0.45385 0.0
H804 H 0.36601 0.20059 0.52871 0.0
H805 H 0.36384 0.40843 0.49548 0.0
H806 H 0.34581 0.41751 0.58708 0.0
H807 H 0.33544 0.39197 0.48884 0.0
C808 C 0.05478 0.21586 0.56417 0.0
C809 C 0.07092 0.23816 0.51619 0.0
C810 C 0.03213 0.22328 0.54912 0.0
C811 C 0.0255 0.25447 0.4857 0.0
C812 C 0.04178 0.27454 0.43262 0.0
C813 C 0.0643 0.26611 0.44857 0.0
C814 C 0.01537 0.20024 0.6059 0.0
C815 C 0.03558 0.30774 0.36406 0.0
C816 C 0.96397 0.25101 0.43701 0.0
C817 C 0.95563 0.28052 0.49902 0.0
C818 C 0.98682 0.24454 0.42681 0.0
C819 C 1.00175 0.26809 0.48027 0.0
C820 C 0.99346 0.30117 0.53669 0.0
C821 C 0.97043 0.30696 0.54557 0.0
C822 C 0.99476 0.20938 0.36516 0.0
C823 C 0.00882 0.32767 0.5937 0.0
H824 H 0.05989 0.19521 0.61802 0.0
H825 H 0.0768 0.28445 0.41325 0.0
H826 H 0.00752 0.2243 0.6504 0.0
H827 H 1.00208 0.18562 0.56526 0.0
H828 H 0.023 0.17396 0.64589 0.0
H829 H 0.04956 0.31478 0.31917 0.0
H830 H 0.02122 0.29624 0.32518 0.0
H831 H 0.03068 0.33876 0.3964 0.0
H832 H 0.95251 0.23003 0.40189 0.0
H833 H 0.96405 0.32908 0.59484 0.0
H834 H 0.9997 0.1801 0.40324 0.0
H835 H 0.0095 0.22057 0.32823 0.0
H836 H 0.98169 0.19947 0.31811 0.0
H837 H 0.0157 0.30637 0.64564 0.0
H838 H 1.00022 0.35567 0.62509 0.0
H839 H 0.02294 0.34039 0.55502 0.0
C840 C 0.95395 0.71925 0.30014 0.0
C841 C 0.93739 0.73962 0.34907 0.0
C842 C 0.97632 0.7231 0.32431 0.0
C843 C 0.98225 0.7498 0.39653 0.0
C844 C 0.96541 0.76798 0.44938 0.0
C845 C 0.94315 0.76194 0.42579 0.0
C846 C 0.99368 0.70123 0.26868 0.0
C847 C 0.97084 0.79751 0.52547 0.0
C848 C 0.04198 0.74096 0.47022 0.0
C849 C 0.05244 0.77116 0.41492 0.0
C850 C 0.01896 0.73511 0.46866 0.0
C851 C 0.00599 0.76108 0.4121 0.0
C852 C 0.01629 0.79497 0.3632 0.0
C853 C 0.03951 0.79906 0.36383 0.0
C854 C 0.00892 0.69802 0.52041 0.0
C855 C 1.00294 0.82464 0.30486 0.0
H856 H 0.94954 0.70284 0.23982 0.0
H857 H 0.93035 0.7789 0.4621 0.0
H858 H 1.00251 0.72631 0.22955 0.0
H859 H 0.00611 0.68462 0.31032 0.0
H860 H 0.98635 0.67679 0.22333 0.0
H861 H 0.95619 0.8034 0.56761 0.0
H862 H 0.98429 0.78356 0.56593 0.0
H863 H 0.97675 0.82952 0.50033 0.0
H864 H 0.05207 0.7186 0.50809 0.0
H865 H 0.04759 0.82169 0.31962 0.0
H866 H 1.00444 0.67096 0.47531 0.0
H867 H 0.99353 0.70856 0.55357 0.0
H868 H 0.02057 0.68507 0.57013 0.0
H869 H 0.99733 0.80609 0.24664 0.0
H870 H 0.01274 0.85333 0.2825 0.0
H871 H 0.98798 0.83652 0.33944 0.0
C872 C 0.54924 0.82275 0.90169 0.0
C873 C 0.55718 0.77998 0.91339 0.0
C874 C 0.52658 0.83074 0.88945 0.0
C875 C 0.51158 0.79515 0.89087 0.0
C876 C 0.51999 0.75181 0.88802 0.0
C877 C 0.54284 0.74469 0.89869 0.0
C878 C 0.51849 0.87742 0.88781 0.0
C879 C 0.50467 0.7128 0.88684 0.0
C880 C 0.46234 0.80409 0.04204 0.0
C881 C 0.44443 0.80331 0.98418 0.0
C882 C 0.48417 0.80362 0.01186 0.0
C883 C 0.48835 0.80258 0.92089 0.0
C884 C 0.47033 0.80562 0.8618 0.0
C885 C 0.44846 0.80583 0.89427 0.0
C886 C 0.50271 0.80131 0.07799 0.0
C887 C 0.47393 0.80575 0.76453 0.0
H888 H 0.56038 0.85019 0.9117 0.0
H889 H 0.5489 0.71156 0.90707 0.0
H890 H 0.50384 0.88078 0.84471 0.0
H891 H 0.5135 0.88734 0.9546 0.0
H892 H 0.53165 0.9002 0.86526 0.0
H893 H 0.5135 0.68228 0.86855 0.0
H894 H 0.49744 0.7083 0.9528 0.0
H895 H 0.49084 0.71809 0.84049 0.0
H896 H 0.45923 0.8025 0.11165 0.0
H897 H 0.43463 0.80491 0.84928 0.0
H898 H 0.51466 0.82836 0.06717 0.0
H899 H 0.51182 0.77001 0.07041 0.0
H900 H 0.4966 0.80346 0.14619 0.0
H901 H 0.48956 0.82261 0.7467 0.0
H902 H 0.45995 0.82184 0.73016 0.0
H903 H 0.47495 0.77147 0.74092 0.0
C904 C 0.46993 0.26557 0.06152 0.0
C905 C 0.46258 0.24476 0.98528 0.0
C906 C 0.49242 0.26549 0.08494 0.0
C907 C 0.50786 0.24328 0.03157 0.0
C908 C 0.50021 0.21975 0.95746 0.0
C909 C 0.4777 0.22151 0.93423 0.0
C910 C 0.4998 0.2917 0.16328 0.0
C911 C 0.51598 0.1944 0.90032 0.0
C912 C 0.56917 0.27196 0.01556 0.0
C913 C 0.57856 0.23818 0.06461 0.0
C914 C 0.54598 0.27618 0.00954 0.0
C915 C 0.53206 0.24515 0.05166 0.0
C916 C 0.54161 0.21319 0.10658 0.0
C917 C 0.56471 0.2104 0.11288 0.0
C918 C 0.53644 0.31174 0.95274 0.0
C919 C 0.5276 0.17915 0.15197 0.0
H920 H 0.4583 0.28485 0.0993 0.0
H921 H 0.47209 0.20646 0.87405 0.0
H922 H 0.5106 0.27177 0.20609 0.0
H923 H 0.50969 0.32025 0.14114 0.0
H924 H 0.4856 0.30387 0.20228 0.0
H925 H 0.50719 0.17477 0.85001 0.0
H926 H 0.5274 0.21739 0.86697 0.0
H927 H 0.52621 0.17205 0.9406 0.0
H928 H 0.57983 0.29286 0.97679 0.0
H929 H 0.57202 0.18367 0.14942 0.0
H930 H 0.52233 0.32789 0.98593 0.0
H931 H 0.53007 0.29712 0.89137 0.0
H932 H 0.54899 0.33696 0.93584 0.0
H933 H 0.51343 0.19462 0.18595 0.0
H934 H 0.53727 0.15991 0.20015 0.0
H935 H 0.52069 0.15623 0.10271 0.0
loop_
_geom_bond_atom_site_label_1
_geom_bond_atom_site_label_2
_geom_bond_distance
_geom_bond_site_symmetry_2
_ccdc_geom_bond_type
Zn0 O6 1.920 . S
Zn0 O12 1.898 . S
Zn0 O15 1.905 . S
Zn1 O9 1.905 . S
Zn1 O10 1.898 . S
Zn1 O18 1.920 . S
Zn2 O5 2.080 . S
Zn2 O8 2.114 . S
Zn2 O11 2.120 . S
Zn2 O13 2.120 . S
Zn2 O14 2.114 . S
Zn2 O17 2.080 . S
C3 O8 1.166 . S
C3 O9 1.182 . S
C4 O10 1.167 . S
C4 O11 1.299 . S
O5 Zn2 2.080 . S
O5 C19 1.305 . S
O6 Zn0 1.920 . S
O6 C19 1.234 . S
C7 O12 1.167 . S
C7 O13 1.299 . S
O8 Zn2 2.114 . S
O8 C3 1.166 . S
O9 Zn1 1.905 . S
O9 C3 1.182 . S
O10 Zn1 1.898 . S
O10 C4 1.167 . S
O11 Zn2 2.120 . S
O11 C4 1.299 . S
O12 Zn0 1.898 . S
O12 C7 1.167 . S
O13 Zn2 2.120 . S
O13 C7 1.299 . S
O14 Zn2 2.114 . S
O14 C16 1.166 . S
O15 Zn0 1.905 . S
O15 C16 1.182 . S
C16 O14 1.166 . S
C16 O15 1.182 . S
O17 Zn2 2.080 . S
O17 C20 1.305 . S
O18 Zn1 1.920 . S
O18 C20 1.234 . S
C19 O5 1.305 . S
C19 O6 1.234 . S
C20 O17 1.305 . S
C20 O18 1.234 . S
Zn21 O27 1.920 . S
Zn21 O33 1.898 . S
Zn21 O36 1.905 . S
Zn22 O30 1.905 . S
Zn22 O31 1.898 . S
Zn22 O39 1.920 . S
Zn23 O26 2.080 . S
Zn23 O29 2.114 . S
Zn23 O32 2.120 . S
Zn23 O34 2.120 . S
Zn23 O35 2.114 . S
Zn23 O38 2.080 . S
C24 O29 1.166 . S
C24 O30 1.182 . S
C25 O31 1.167 . S
C25 O32 1.299 . S
O26 Zn23 2.080 . S
O26 C40 1.305 . S
O27 Zn21 1.920 . S
O27 C40 1.234 . S
C28 O33 1.167 . S
C28 O34 1.299 . S
O29 Zn23 2.114 . S
O29 C24 1.166 . S
O30 Zn22 1.905 . S
O30 C24 1.182 . S
O31 Zn22 1.898 . S
O31 C25 1.167 . S
O32 Zn23 2.120 . S
O32 C25 1.299 . S
O33 Zn21 1.898 . S
O33 C28 1.167 . S
O34 Zn23 2.120 . S
O34 C28 1.299 . S
O35 Zn23 2.114 . S
O35 C37 1.166 . S
O36 Zn21 1.905 . S
O36 C37 1.182 . S
C37 O35 1.166 . S
C37 O36 1.182 . S
O38 Zn23 2.080 . S
O38 C41 1.305 . S
O39 Zn22 1.920 . S
O39 C41 1.234 . S
C40 O26 1.305 . S
C40 O27 1.234 . S
C41 O38 1.305 . S
C41 O39 1.234 . S
Zn42 O48 1.920 . S
Zn42 O54 1.898 . S
Zn42 O57 1.905 . S
Zn43 O51 1.905 . S
Zn43 O52 1.898 . S
Zn43 O60 1.920 . S
Zn44 O47 2.080 . S
Zn44 O50 2.114 . S
Zn44 O53 2.120 . S
Zn44 O55 2.120 . S
Zn44 O56 2.114 . S
Zn44 O59 2.080 . S
C45 O50 1.166 . S
C45 O51 1.182 . S
C46 O52 1.167 . S
C46 O53 1.299 . S
O47 Zn44 2.080 . S
O47 C61 1.305 . S
O48 Zn42 1.920 . S
O48 C61 1.234 . S
C49 O54 1.167 . S
C49 O55 1.299 . S
O50 Zn44 2.114 . S
O50 C45 1.166 . S
O51 Zn43 1.905 . S
O51 C45 1.182 . S
O52 Zn43 1.898 . S
O52 C46 1.167 . S
O53 Zn44 2.120 . S
O53 C46 1.299 . S
O54 Zn42 1.898 . S
O54 C49 1.167 . S
O55 Zn44 2.120 . S
O55 C49 1.299 . S
O56 Zn44 2.114 . S
O56 C58 1.166 . S
O57 Zn42 1.905 . S
O57 C58 1.182 . S
C58 O56 1.166 . S
C58 O57 1.182 . S
O59 Zn44 2.080 . S
O59 C62 1.305 . S
O60 Zn43 1.920 . S
O60 C62 1.234 . S
C61 O47 1.305 . S
C61 O48 1.234 . S
C62 O59 1.305 . S
C62 O60 1.234 . S
Zn63 O69 1.920 . S
Zn63 O75 1.898 . S
Zn63 O78 1.905 . S
Zn64 O72 1.905 . S
Zn64 O73 1.898 . S
Zn64 O81 1.920 . S
Zn65 O68 2.080 . S
Zn65 O71 2.114 . S
Zn65 O74 2.120 . S
Zn65 O76 2.120 . S
Zn65 O77 2.114 . S
Zn65 O80 2.080 . S
C66 O71 1.166 . S
C66 O72 1.182 . S
C67 O73 1.167 . S
C67 O74 1.299 . S
O68 Zn65 2.080 . S
O68 C82 1.305 . S
O69 Zn63 1.920 . S
O69 C82 1.234 . S
C70 O75 1.167 . S
C70 O76 1.299 . S
O71 Zn65 2.114 . S
O71 C66 1.166 . S
O72 Zn64 1.905 . S
O72 C66 1.182 . S
O73 Zn64 1.898 . S
O73 C67 1.167 . S
O74 Zn65 2.120 . S
O74 C67 1.299 . S
O75 Zn63 1.898 . S
O75 C70 1.167 . S
O76 Zn65 2.120 . S
O76 C70 1.299 . S
O77 Zn65 2.114 . S
O77 C79 1.166 . S
O78 Zn63 1.905 . S
O78 C79 1.182 . S
C79 O77 1.166 . S
C79 O78 1.182 . S
O80 Zn65 2.080 . S
O80 C83 1.305 . S
O81 Zn64 1.920 . S
O81 C83 1.234 . S
C82 O68 1.305 . S
C82 O69 1.234 . S
C83 O80 1.305 . S
C83 O81 1.234 . S
Zn84 O90 1.920 . S
Zn84 O96 1.898 . S
Zn84 O99 1.905 . S
Zn85 O93 1.905 . S
Zn85 O94 1.898 1_556 S
Zn85 O102 1.920 1_556 S
Zn86 O89 2.080 . S
Zn86 O92 2.114 1_554 S
Zn86 O95 2.120 . S
Zn86 O97 2.120 . S
Zn86 O98 2.114 . S
Zn86 O101 2.080 . S
C87 O92 1.166 . S
C87 O93 1.182 . S
C88 O94 1.167 . S
C88 O95 1.299 . S
O89 Zn86 2.080 . S
O89 C103 1.305 . S
O90 Zn84 1.920 . S
O90 C103 1.234 . S
C91 O96 1.167 . S
C91 O97 1.299 . S
O92 Zn86 2.114 1_556 S
O92 C87 1.166 . S
O93 Zn85 1.905 . S
O93 C87 1.182 . S
O94 Zn85 1.898 1_554 S
O94 C88 1.167 . S
O95 Zn86 2.120 . S
O95 C88 1.299 . S
O96 Zn84 1.898 . S
O96 C91 1.167 . S
O97 Zn86 2.120 . S
O97 C91 1.299 . S
O98 Zn86 2.114 . S
O98 C100 1.166 . S
O99 Zn84 1.905 . S
O99 C100 1.182 . S
C100 O98 1.166 . S
C100 O99 1.182 . S
O101 Zn86 2.080 . S
O101 C104 1.305 . S
O102 Zn85 1.920 1_554 S
O102 C104 1.234 . S
C103 O89 1.305 . S
C103 O90 1.234 . S
C104 O101 1.305 . S
C104 O102 1.234 . S
Zn105 O111 1.920 1_556 S
Zn105 O117 1.898 1_556 S
Zn105 O120 1.905 . S
Zn106 O114 1.905 . S
Zn106 O115 1.898 . S
Zn106 O123 1.920 . S
Zn107 O110 2.080 . S
Zn107 O113 2.114 . S
Zn107 O116 2.120 . S
Zn107 O118 2.120 . S
Zn107 O119 2.114 1_554 S
Zn107 O122 2.080 . S
C108 O113 1.166 . S
C108 O114 1.182 . S
C109 O115 1.167 . S
C109 O116 1.299 . S
O110 Zn107 2.080 . S
O110 C124 1.305 . S
O111 Zn105 1.920 1_554 S
O111 C124 1.234 . S
C112 O117 1.167 . S
C112 O118 1.299 . S
O113 Zn107 2.114 . S
O113 C108 1.166 . S
O114 Zn106 1.905 . S
O114 C108 1.182 . S
O115 Zn106 1.898 . S
O115 C109 1.167 . S
O116 Zn107 2.120 . S
O116 C109 1.299 . S
O117 Zn105 1.898 1_554 S
O117 C112 1.167 . S
O118 Zn107 2.120 . S
O118 C112 1.299 . S
O119 Zn107 2.114 1_556 S
O119 C121 1.166 . S
O120 Zn105 1.905 . S
O120 C121 1.182 . S
C121 O119 1.166 . S
C121 O120 1.182 . S
O122 Zn107 2.080 . S
O122 C125 1.305 . S
O123 Zn106 1.920 . S
O123 C125 1.234 . S
C124 O110 1.305 . S
C124 O111 1.234 . S
C125 O122 1.305 . S
C125 O123 1.234 . S
Zn126 O132 1.920 . S
Zn126 O138 1.898 . S
Zn126 O141 1.905 . S
Zn127 O135 1.905 . S
Zn127 O136 1.898 1_554 S
Zn127 O144 1.920 1_554 S
Zn128 O131 2.080 . S
Zn128 O134 2.114 1_556 S
Zn128 O137 2.120 . S
Zn128 O139 2.120 . S
Zn128 O140 2.114 . S
Zn128 O143 2.080 . S
C129 O134 1.166 . S
C129 O135 1.182 . S
C130 O136 1.167 . S
C130 O137 1.299 . S
O131 Zn128 2.080 . S
O131 C145 1.305 . S
O132 Zn126 1.920 . S
O132 C145 1.234 . S
C133 O138 1.167 . S
C133 O139 1.299 . S
O134 Zn128 2.114 1_554 S
O134 C129 1.166 . S
O135 Zn127 1.905 . S
O135 C129 1.182 . S
O136 Zn127 1.898 1_556 S
O136 C130 1.167 . S
O137 Zn128 2.120 . S
O137 C130 1.299 . S
O138 Zn126 1.898 . S
O138 C133 1.167 . S
O139 Zn128 2.120 . S
O139 C133 1.299 . S
O140 Zn128 2.114 . S
O140 C142 1.166 . S
O141 Zn126 1.905 . S
O141 C142 1.182 . S
C142 O140 1.166 . S
C142 O141 1.182 . S
O143 Zn128 2.080 . S
O143 C146 1.305 . S
O144 Zn127 1.920 1_556 S
O144 C146 1.234 . S
C145 O131 1.305 . S
C145 O132 1.234 . S
C146 O143 1.305 . S
C146 O144 1.234 . S
Zn147 O153 1.920 . S
Zn147 O159 1.898 . S
Zn147 O162 1.905 . S
Zn148 O156 1.905 . S
Zn148 O157 1.898 1_554 S
Zn148 O165 1.920 1_554 S
Zn149 O152 2.080 . S
Zn149 O155 2.114 1_556 S
Zn149 O158 2.120 . S
Zn149 O160 2.120 . S
Zn149 O161 2.114 . S
Zn149 O164 2.080 . S
C150 O155 1.166 . S
C150 O156 1.182 . S
C151 O157 1.167 . S
C151 O158 1.299 . S
O152 Zn149 2.080 . S
O152 C166 1.305 . S
O153 Zn147 1.920 . S
O153 C166 1.234 . S
C154 O159 1.167 . S
C154 O160 1.299 . S
O155 Zn149 2.114 1_554 S
O155 C150 1.166 . S
O156 Zn148 1.905 . S
O156 C150 1.182 . S
O157 Zn148 1.898 1_556 S
O157 C151 1.167 . S
O158 Zn149 2.120 . S
O158 C151 1.299 . S
O159 Zn147 1.898 . S
O159 C154 1.167 . S
O160 Zn149 2.120 . S
O160 C154 1.299 . S
O161 Zn149 2.114 . S
O161 C163 1.166 . S
O162 Zn147 1.905 . S
O162 C163 1.182 . S
C163 O161 1.166 . S
C163 O162 1.182 . S
O164 Zn149 2.080 . S
O164 C167 1.305 . S
O165 Zn148 1.920 1_556 S
O165 C167 1.234 . S
C166 O152 1.305 . S
C166 O153 1.234 . S
C167 O164 1.305 . S
C167 O165 1.234 . S
C168 C169 1.391 . S
C168 C170 1.394 . S
C168 H184 0.931 . S
C169 C168 1.391 . S
C169 C173 1.376 . S
C170 C168 1.394 . S
C170 C171 1.369 . S
C170 C174 1.531 . S
C171 C170 1.369 . S
C171 C172 1.410 . S
C171 C179 1.503 . S
C172 C171 1.410 . S
C172 C173 1.392 . S
C172 C175 1.511 . S
C173 C169 1.376 . S
C173 C172 1.392 . S
C173 H185 0.929 . S
C174 C170 1.531 . S
C174 H186 0.960 . S
C174 H187 0.962 . S
C174 H188 0.960 . S
C175 C172 1.511 . S
C175 H189 0.961 . S
C175 H190 0.961 . S
C175 H191 0.961 . S
C176 C177 1.370 . S
C176 C178 1.363 . S
C176 H192 0.931 . S
C177 C176 1.370 . S
C177 C181 1.408 . S
C178 C176 1.363 . S
C178 C179 1.370 . S
C178 C182 1.524 . S
C179 C171 1.503 . S
C179 C178 1.370 . S
C179 C180 1.403 . S
C180 C179 1.403 . S
C180 C181 1.404 . S
C180 C183 1.539 . S
C181 C177 1.408 . S
C181 C180 1.404 . S
C181 H193 0.930 . S
C182 C178 1.524 . S
C182 H194 0.956 . S
C182 H195 0.961 . S
C182 H196 0.961 . S
C183 C180 1.539 . S
C183 H197 0.958 . S
C183 H198 0.961 . S
C183 H199 0.960 . S
H184 C168 0.931 . S
H185 C173 0.929 . S
H186 C174 0.960 . S
H187 C174 0.962 . S
H188 C174 0.960 . S
H189 C175 0.961 . S
H190 C175 0.961 . S
H191 C175 0.961 . S
H192 C176 0.931 . S
H193 C181 0.930 . S
H194 C182 0.956 . S
H195 C182 0.961 . S
H196 C182 0.961 . S
H197 C183 0.958 . S
H198 C183 0.961 . S
H199 C183 0.960 . S
C200 C201 1.391 . S
C200 C202 1.394 . S
C200 H216 0.931 . S
C201 C200 1.391 . S
C201 C205 1.376 . S
C202 C200 1.394 . S
C202 C203 1.369 . S
C202 C206 1.531 . S
C203 C202 1.369 . S
C203 C204 1.410 . S
C203 C211 1.503 . S
C204 C203 1.410 . S
C204 C205 1.392 . S
C204 C207 1.511 . S
C205 C201 1.376 . S
C205 C204 1.392 . S
C205 H217 0.929 . S
C206 C202 1.531 . S
C206 H218 0.960 . S
C206 H219 0.962 . S
C206 H220 0.960 . S
C207 C204 1.511 . S
C207 H221 0.961 . S
C207 H222 0.961 . S
C207 H223 0.961 . S
C208 C209 1.370 . S
C208 C210 1.363 . S
C208 H224 0.931 . S
C209 C208 1.370 . S
C209 C213 1.408 . S
C210 C208 1.363 . S
C210 C211 1.370 . S
C210 C214 1.524 . S
C211 C203 1.503 . S
C211 C210 1.370 . S
C211 C212 1.403 . S
C212 C211 1.403 . S
C212 C213 1.404 . S
C212 C215 1.539 . S
C213 C209 1.408 . S
C213 C212 1.404 . S
C213 H225 0.930 . S
C214 C210 1.524 . S
C214 H226 0.956 . S
C214 H227 0.961 . S
C214 H228 0.961 . S
C215 C212 1.539 . S
C215 H229 0.958 . S
C215 H230 0.961 . S
C215 H231 0.960 . S
H216 C200 0.931 . S
H217 C205 0.929 . S
H218 C206 0.960 . S
H219 C206 0.962 . S
H220 C206 0.960 . S
H221 C207 0.961 . S
H222 C207 0.961 . S
H223 C207 0.961 . S
H224 C208 0.931 . S
H225 C213 0.930 . S
H226 C214 0.956 . S
H227 C214 0.961 . S
H228 C214 0.961 . S
H229 C215 0.958 . S
H230 C215 0.961 . S
H231 C215 0.960 . S
C232 C233 1.391 . S
C232 C234 1.394 . S
C232 H248 0.931 . S
C233 C232 1.391 . S
C233 C237 1.376 . S
C234 C232 1.394 . S
C234 C235 1.369 . S
C234 C238 1.531 . S
C235 C234 1.369 . S
C235 C236 1.410 . S
C235 C243 1.503 . S
C236 C235 1.410 . S
C236 C237 1.392 . S
C236 C239 1.511 . S
C237 C233 1.376 . S
C237 C236 1.392 . S
C237 H249 0.929 . S
C238 C234 1.531 . S
C238 H250 0.960 . S
C238 H251 0.962 . S
C238 H252 0.960 . S
C239 C236 1.511 . S
C239 H253 0.961 . S
C239 H254 0.961 . S
C239 H255 0.961 . S
C240 C241 1.370 . S
C240 C242 1.363 . S
C240 H256 0.931 . S
C241 C240 1.370 . S
C241 C245 1.408 . S
C242 C240 1.363 . S
C242 C243 1.370 . S
C242 C246 1.524 . S
C243 C235 1.503 . S
C243 C242 1.370 . S
C243 C244 1.403 . S
C244 C243 1.403 . S
C244 C245 1.404 . S
C244 C247 1.539 . S
C245 C241 1.408 . S
C245 C244 1.404 . S
C245 H257 0.930 . S
C246 C242 1.524 . S
C246 H258 0.956 . S
C246 H259 0.961 . S
C246 H260 0.961 . S
C247 C244 1.539 . S
C247 H261 0.958 . S
C247 H262 0.961 . S
C247 H263 0.960 . S
H248 C232 0.931 . S
H249 C237 0.929 . S
H250 C238 0.960 . S
H251 C238 0.962 . S
H252 C238 0.960 . S
H253 C239 0.961 . S
H254 C239 0.961 . S
H255 C239 0.961 . S
H256 C240 0.931 . S
H257 C245 0.930 . S
H258 C246 0.956 . S
H259 C246 0.961 . S
H260 C246 0.961 . S
H261 C247 0.958 . S
H262 C247 0.961 . S
H263 C247 0.960 . S
C264 C265 1.391 . S
C264 C266 1.394 . S
C264 H280 0.931 . S
C265 C264 1.391 . S
C265 C269 1.376 . S
C266 C264 1.394 . S
C266 C267 1.369 . S
C266 C270 1.531 . S
C267 C266 1.369 . S
C267 C268 1.410 . S
C267 C275 1.503 . S
C268 C267 1.410 . S
C268 C269 1.392 . S
C268 C271 1.511 . S
C269 C265 1.376 . S
C269 C268 1.392 . S
C269 H281 0.929 . S
C270 C266 1.531 . S
C270 H282 0.960 . S
C270 H283 0.962 . S
C270 H284 0.960 . S
C271 C268 1.511 . S
C271 H285 0.961 . S
C271 H286 0.961 . S
C271 H287 0.961 . S
C272 C273 1.370 . S
C272 C274 1.363 . S
C272 H288 0.931 . S
C273 C272 1.370 . S
C273 C277 1.408 . S
C274 C272 1.363 . S
C274 C275 1.370 . S
C274 C278 1.524 . S
C275 C267 1.503 . S
C275 C274 1.370 . S
C275 C276 1.403 . S
C276 C275 1.403 . S
C276 C277 1.404 . S
C276 C279 1.539 . S
C277 C273 1.408 . S
C277 C276 1.404 . S
C277 H289 0.930 . S
C278 C274 1.524 . S
C278 H290 0.956 . S
C278 H291 0.961 . S
C278 H292 0.961 . S
C279 C276 1.539 . S
C279 H293 0.958 . S
C279 H294 0.961 . S
C279 H295 0.960 . S
H280 C264 0.931 . S
H281 C269 0.929 . S
H282 C270 0.960 . S
H283 C270 0.962 . S
H284 C270 0.960 . S
H285 C271 0.961 . S
H286 C271 0.961 . S
H287 C271 0.961 . S
H288 C272 0.931 . S
H289 C277 0.930 . S
H290 C278 0.956 . S
H291 C278 0.961 . S
H292 C278 0.961 . S
H293 C279 0.958 . S
H294 C279 0.961 . S
H295 C279 0.960 . S
C296 C297 1.391 . S
C296 C298 1.394 . S
C296 H312 0.931 . S
C297 C296 1.391 . S
C297 C301 1.376 . S
C298 C296 1.394 . S
C298 C299 1.369 . S
C298 C302 1.531 . S
C299 C298 1.369 . S
C299 C300 1.410 . S
C299 C307 1.503 1_565 S
C300 C299 1.410 . S
C300 C301 1.392 . S
C300 C303 1.511 . S
C301 C297 1.376 . S
C301 C300 1.392 . S
C301 H313 0.929 . S
C302 C298 1.531 . S
C302 H314 0.960 1_565 S
C302 H315 0.962 . S
C302 H316 0.960 . S
C303 C300 1.511 . S
C303 H317 0.961 . S
C303 H318 0.961 1_565 S
C303 H319 0.961 . S
C304 C305 1.370 . S
C304 C306 1.363 . S
C304 H320 0.931 . S
C305 C304 1.370 . S
C305 C309 1.408 . S
C306 C304 1.363 . S
C306 C307 1.370 . S
C306 C310 1.524 1_545 S
C307 C299 1.503 1_545 S
C307 C306 1.370 . S
C307 C308 1.403 . S
C308 C307 1.403 . S
C308 C309 1.404 . S
C308 C311 1.539 . S
C309 C305 1.408 . S
C309 C308 1.404 . S
C309 H321 0.930 . S
C310 C306 1.524 1_565 S
C310 H322 0.956 . S
C310 H323 0.961 . S
C310 H324 0.961 1_565 S
C311 C308 1.539 . S
C311 H325 0.958 . S
C311 H326 0.961 . S
C311 H327 0.960 . S
H312 C296 0.931 . S
H313 C301 0.929 . S
H314 C302 0.960 1_545 S
H315 C302 0.962 . S
H316 C302 0.960 . S
H317 C303 0.961 . S
H318 C303 0.961 1_545 S
H319 C303 0.961 . S
H320 C304 0.931 . S
H321 C309 0.930 . S
H322 C310 0.956 . S
H323 C310 0.961 . S
H324 C310 0.961 1_545 S
H325 C311 0.958 . S
H326 C311 0.961 . S
H327 C311 0.960 . S
C328 C329 1.391 . S
C328 C330 1.394 . S
C328 H344 0.931 . S
C329 C328 1.391 . S
C329 C333 1.376 . S
C330 C328 1.394 . S
C330 C331 1.369 . S
C330 C334 1.531 . S
C331 C330 1.369 . S
C331 C332 1.410 . S
C331 C339 1.503 . S
C332 C331 1.410 . S
C332 C333 1.392 . S
C332 C335 1.511 . S
C333 C329 1.376 . S
C333 C332 1.392 . S
C333 H345 0.929 . S
C334 C330 1.531 . S
C334 H346 0.960 . S
C334 H347 0.962 . S
C334 H348 0.960 . S
C335 C332 1.511 . S
C335 H349 0.961 . S
C335 H350 0.961 . S
C335 H351 0.961 . S
C336 C337 1.370 . S
C336 C338 1.363 . S
C336 H352 0.931 . S
C337 C336 1.370 . S
C337 C341 1.408 . S
C338 C336 1.363 . S
C338 C339 1.370 . S
C338 C342 1.524 . S
C339 C331 1.503 . S
C339 C338 1.370 . S
C339 C340 1.403 . S
C340 C339 1.403 . S
C340 C341 1.404 . S
C340 C343 1.539 . S
C341 C337 1.408 . S
C341 C340 1.404 . S
C341 H353 0.930 . S
C342 C338 1.524 . S
C342 H354 0.956 . S
C342 H355 0.961 . S
C342 H356 0.961 . S
C343 C340 1.539 . S
C343 H357 0.958 . S
C343 H358 0.961 . S
C343 H359 0.960 . S
H344 C328 0.931 . S
H345 C333 0.929 . S
H346 C334 0.960 . S
H347 C334 0.962 . S
H348 C334 0.960 . S
H349 C335 0.961 . S
H350 C335 0.961 . S
H351 C335 0.961 . S
H352 C336 0.931 . S
H353 C341 0.930 . S
H354 C342 0.956 . S
H355 C342 0.961 . S
H356 C342 0.961 . S
H357 C343 0.958 . S
H358 C343 0.961 . S
H359 C343 0.960 . S
C360 C361 1.391 . S
C360 C362 1.394 . S
C360 H376 0.931 . S
C361 C360 1.391 . S
C361 C365 1.376 . S
C362 C360 1.394 . S
C362 C363 1.369 . S
C362 C366 1.531 . S
C363 C362 1.369 . S
C363 C364 1.410 . S
C363 C371 1.503 1_565 S
C364 C363 1.410 . S
C364 C365 1.392 . S
C364 C367 1.511 . S
C365 C361 1.376 . S
C365 C364 1.392 . S
C365 H377 0.929 . S
C366 C362 1.531 . S
C366 H378 0.960 1_565 S
C366 H379 0.962 . S
C366 H380 0.960 . S
C367 C364 1.511 . S
C367 H381 0.961 . S
C367 H382 0.961 1_565 S
C367 H383 0.961 . S
C368 C369 1.370 . S
C368 C370 1.363 . S
C368 H384 0.931 . S
C369 C368 1.370 . S
C369 C373 1.408 . S
C370 C368 1.363 . S
C370 C371 1.370 . S
C370 C374 1.516 1_545 S
C371 C363 1.503 1_545 S
C371 C370 1.370 . S
C371 C372 1.403 . S
C372 C371 1.403 . S
C372 C373 1.404 . S
C372 C375 1.539 . S
C373 C369 1.408 . S
C373 C372 1.404 . S
C373 H385 0.930 . S
C374 C370 1.516 1_565 S
C374 H386 0.961 . S
C374 H387 0.968 . S
C374 H388 0.956 1_565 S
C375 C372 1.539 . S
C375 H389 0.958 . S
C375 H390 0.961 . S
C375 H391 0.960 . S
H376 C360 0.931 . S
H377 C365 0.929 . S
H378 C366 0.960 1_545 S
H379 C366 0.962 . S
H380 C366 0.960 . S
H381 C367 0.961 . S
H382 C367 0.961 1_545 S
H383 C367 0.961 . S
H384 C368 0.931 . S
H385 C373 0.930 . S
H386 C374 0.961 . S
H387 C374 0.968 . S
H388 C374 0.956 1_545 S
H389 C375 0.958 . S
H390 C375 0.961 . S
H391 C375 0.960 . S
C392 C393 1.391 . S
C392 C394 1.394 . S
C392 H408 0.931 . S
C393 C392 1.391 . S
C393 C397 1.376 . S
C394 C392 1.394 . S
C394 C395 1.369 . S
C394 C398 1.531 . S
C395 C394 1.369 . S
C395 C396 1.410 . S
C395 C403 1.503 . S
C396 C395 1.410 . S
C396 C397 1.392 . S
C396 C399 1.511 . S
C397 C393 1.376 . S
C397 C396 1.392 . S
C397 H409 0.929 . S
C398 C394 1.531 . S
C398 H410 0.960 . S
C398 H411 0.962 . S
C398 H412 0.960 . S
C399 C396 1.511 . S
C399 H413 0.961 . S
C399 H414 0.961 . S
C399 H415 0.961 . S
C400 C401 1.370 . S
C400 C402 1.363 . S
C400 H416 0.931 . S
C401 C400 1.370 . S
C401 C405 1.408 . S
C402 C400 1.363 . S
C402 C403 1.370 . S
C402 C406 1.524 . S
C403 C395 1.503 . S
C403 C402 1.370 . S
C403 C404 1.403 . S
C404 C403 1.403 . S
C404 C405 1.404 . S
C404 C407 1.539 . S
C405 C401 1.408 . S
C405 C404 1.404 . S
C405 H417 0.930 . S
C406 C402 1.524 . S
C406 H418 0.956 . S
C406 H419 0.961 . S
C406 H420 0.961 . S
C407 C404 1.539 . S
C407 H421 0.958 . S
C407 H422 0.961 . S
C407 H423 0.960 . S
H408 C392 0.931 . S
H409 C397 0.929 . S
H410 C398 0.960 . S
H411 C398 0.962 . S
H412 C398 0.960 . S
H413 C399 0.961 . S
H414 C399 0.961 . S
H415 C399 0.961 . S
H416 C400 0.931 . S
H417 C405 0.930 . S
H418 C406 0.956 . S
H419 C406 0.961 . S
H420 C406 0.961 . S
H421 C407 0.958 . S
H422 C407 0.961 . S
H423 C407 0.960 . S
C424 C425 1.391 . S
C424 C426 1.394 . S
C424 H440 0.931 . S
C425 C424 1.391 . S
C425 C429 1.376 . S
C426 C424 1.394 . S
C426 C427 1.369 . S
C426 C430 1.531 1_554 S
C427 C426 1.369 . S
C427 C428 1.410 . S
C427 C435 1.503 . S
C428 C427 1.410 . S
C428 C429 1.392 . S
C428 C431 1.511 . S
C429 C425 1.376 . S
C429 C428 1.392 . S
C429 H441 0.929 . S
C430 C426 1.531 1_556 S
C430 H442 0.960 1_556 S
C430 H443 0.962 . S
C430 H444 0.960 1_556 S
C431 C428 1.511 . S
C431 H445 0.961 . S
C431 H446 0.961 . S
C431 H447 0.961 . S
C432 C433 1.370 . S
C432 C434 1.363 . S
C432 H448 0.931 . S
C433 C432 1.370 . S
C433 C437 1.408 1_556 S
C434 C432 1.363 . S
C434 C435 1.370 1_556 S
C434 C438 1.524 . S
C435 C427 1.503 . S
C435 C434 1.370 1_554 S
C435 C436 1.403 . S
C436 C435 1.403 . S
C436 C437 1.404 . S
C436 C439 1.539 . S
C437 C433 1.408 1_554 S
C437 C436 1.404 . S
C437 H449 0.930 . S
C438 C434 1.524 . S
C438 H450 0.956 . S
C438 H451 0.961 . S
C438 H452 0.961 . S
C439 C436 1.539 . S
C439 H453 0.958 . S
C439 H454 0.961 . S
C439 H455 0.960 . S
H440 C424 0.931 . S
H441 C429 0.929 . S
H442 C430 0.960 1_554 S
H443 C430 0.962 . S
H444 C430 0.960 1_554 S
H445 C431 0.961 . S
H446 C431 0.961 . S
H447 C431 0.961 . S
H448 C432 0.931 . S
H449 C437 0.930 . S
H450 C438 0.956 . S
H451 C438 0.961 . S
H452 C438 0.961 . S
H453 C439 0.958 . S
H454 C439 0.961 . S
H455 C439 0.960 . S
C456 C457 1.391 . S
C456 C458 1.394 . S
C456 H472 0.931 . S
C457 C456 1.391 . S
C457 C461 1.376 . S
C458 C456 1.394 . S
C458 C459 1.369 . S
C458 C462 1.531 1_554 S
C459 C458 1.369 . S
C459 C460 1.410 . S
C459 C467 1.503 1_565 S
C460 C459 1.410 . S
C460 C461 1.392 . S
C460 C463 1.511 . S
C461 C457 1.376 . S
C461 C460 1.392 . S
C461 H473 0.929 . S
C462 C458 1.531 1_556 S
C462 H474 0.960 1_565 S
C462 H475 0.962 . S
C462 H476 0.960 . S
C463 C460 1.511 . S
C463 H477 0.961 . S
C463 H478 0.961 1_565 S
C463 H479 0.969 . S
C464 C465 1.370 . S
C464 C466 1.363 . S
C464 H480 0.931 . S
C465 C464 1.370 . S
C465 C469 1.408 1_556 S
C466 C464 1.363 . S
C466 C467 1.370 1_556 S
C466 C470 1.523 1_545 S
C467 C459 1.503 1_545 S
C467 C466 1.370 1_554 S
C467 C468 1.403 . S
C468 C467 1.403 . S
C468 C469 1.404 . S
C468 C471 1.539 . S
C469 C465 1.408 1_554 S
C469 C468 1.404 . S
C469 H481 0.930 . S
C470 C466 1.523 1_565 S
C470 H482 0.957 . S
C470 H483 0.962 . S
C470 H484 0.960 1_565 S
C471 C468 1.539 . S
C471 H485 0.958 . S
C471 H486 0.961 . S
C471 H487 0.960 . S
H472 C456 0.931 . S
H473 C461 0.929 . S
H474 C462 0.960 1_545 S
H475 C462 0.962 . S
H476 C462 0.960 . S
H477 C463 0.961 . S
H478 C463 0.961 1_545 S
H479 C463 0.969 . S
H480 C464 0.931 . S
H481 C469 0.930 . S
H482 C470 0.957 . S
H483 C470 0.962 . S
H484 C470 0.960 1_545 S
H485 C471 0.958 . S
H486 C471 0.961 . S
H487 C471 0.960 . S
C488 C489 1.391 . S
C488 C490 1.394 . S
C488 H504 0.931 . S
C489 C488 1.391 . S
C489 C493 1.376 . S
C490 C488 1.394 . S
C490 C491 1.369 . S
C490 C494 1.531 . S
C491 C490 1.369 . S
C491 C492 1.410 . S
C491 C499 1.503 . S
C492 C491 1.410 . S
C492 C493 1.392 . S
C492 C495 1.511 1_556 S
C493 C489 1.376 . S
C493 C492 1.392 . S
C493 H505 0.929 . S
C494 C490 1.531 . S
C494 H506 0.960 . S
C494 H507 0.962 . S
C494 H508 0.960 . S
C495 C492 1.511 1_554 S
C495 H509 0.961 . S
C495 H510 0.961 . S
C495 H511 0.961 1_554 S
C496 C497 1.370 . S
C496 C498 1.363 . S
C496 H512 0.931 . S
C497 C496 1.370 . S
C497 C501 1.408 1_554 S
C498 C496 1.363 . S
C498 C499 1.370 1_554 S
C498 C502 1.524 . S
C499 C491 1.503 . S
C499 C498 1.370 1_556 S
C499 C500 1.403 . S
C500 C499 1.403 . S
C500 C501 1.404 . S
C500 C503 1.539 . S
C501 C497 1.408 1_556 S
C501 C500 1.404 . S
C501 H513 0.930 . S
C502 C498 1.524 . S
C502 H514 0.956 . S
C502 H515 0.961 . S
C502 H516 0.961 . S
C503 C500 1.539 . S
C503 H517 0.958 . S
C503 H518 0.961 . S
C503 H519 0.960 . S
H504 C488 0.931 . S
H505 C493 0.929 . S
H506 C494 0.960 . S
H507 C494 0.962 . S
H508 C494 0.960 . S
H509 C495 0.961 . S
H510 C495 0.961 . S
H511 C495 0.961 1_556 S
H512 C496 0.931 . S
H513 C501 0.930 . S
H514 C502 0.956 . S
H515 C502 0.961 . S
H516 C502 0.961 . S
H517 C503 0.958 . S
H518 C503 0.961 . S
H519 C503 0.960 . S
C520 C521 1.391 . S
C520 C522 1.394 . S
C520 H536 0.931 . S
C521 C520 1.391 . S
C521 C525 1.376 1_556 S
C522 C520 1.394 . S
C522 C523 1.369 . S
C522 C526 1.531 . S
C523 C522 1.369 . S
C523 C524 1.410 1_556 S
C523 C531 1.503 1_546 S
C524 C523 1.410 1_554 S
C524 C525 1.392 . S
C524 C527 1.511 . S
C525 C521 1.376 1_554 S
C525 C524 1.392 . S
C525 H537 0.929 . S
C526 C522 1.531 . S
C526 H538 0.960 1_545 S
C526 H539 0.962 1_545 S
C526 H540 0.960 . S
C527 C524 1.511 . S
C527 H541 0.961 . S
C527 H542 0.961 . S
C527 H543 0.961 . S
C528 C529 1.370 . S
C528 C530 1.363 1_554 S
C528 H544 0.931 1_554 S
C529 C528 1.370 . S
C529 C533 1.408 . S
C530 C528 1.363 1_556 S
C530 C531 1.370 1_556 S
C530 C534 1.524 . S
C531 C523 1.503 1_564 S
C531 C530 1.370 1_554 S
C531 C532 1.403 . S
C532 C531 1.403 . S
C532 C533 1.404 . S
C532 C535 1.539 . S
C533 C529 1.408 . S
C533 C532 1.404 . S
C533 H545 0.930 . S
C534 C530 1.524 . S
C534 H546 0.956 . S
C534 H547 0.961 . S
C534 H548 0.961 . S
C535 C532 1.539 . S
C535 H549 0.958 . S
C535 H550 0.961 . S
C535 H551 0.960 1_565 S
H536 C520 0.931 . S
H537 C525 0.929 . S
H538 C526 0.960 1_565 S
H539 C526 0.962 1_565 S
H540 C526 0.960 . S
H541 C527 0.961 . S
H542 C527 0.961 . S
H543 C527 0.961 . S
H544 C528 0.931 1_556 S
H545 C533 0.930 . S
H546 C534 0.956 . S
H547 C534 0.961 . S
H548 C534 0.961 . S
H549 C535 0.958 . S
H550 C535 0.961 . S
H551 C535 0.960 1_545 S
C552 C553 1.391 . S
C552 C554 1.394 . S
C552 H568 0.931 . S
C553 C552 1.391 . S
C553 C557 1.376 . S
C554 C552 1.394 . S
C554 C555 1.369 . S
C554 C558 1.531 . S
C555 C554 1.369 . S
C555 C556 1.410 . S
C555 C563 1.503 . S
C556 C555 1.410 . S
C556 C557 1.392 . S
C556 C559 1.511 . S
C557 C553 1.376 . S
C557 C556 1.392 . S
C557 H569 0.929 . S
C558 C554 1.531 . S
C558 H570 0.960 . S
C558 H571 0.962 . S
C558 H572 0.960 . S
C559 C556 1.511 . S
C559 H573 0.961 . S
C559 H574 0.961 . S
C559 H575 0.961 . S
C560 C561 1.370 . S
C560 C562 1.363 1_556 S
C560 H576 0.931 . S
C561 C560 1.370 . S
C561 C565 1.408 . S
C562 C560 1.363 1_554 S
C562 C563 1.370 . S
C562 C566 1.524 . S
C563 C555 1.503 . S
C563 C562 1.370 . S
C563 C564 1.403 . S
C564 C563 1.403 . S
C564 C565 1.404 1_554 S
C564 C567 1.539 . S
C565 C561 1.408 . S
C565 C564 1.404 1_556 S
C565 H577 0.930 . S
C566 C562 1.524 . S
C566 H578 0.956 . S
C566 H579 0.961 . S
C566 H580 0.961 . S
C567 C564 1.539 . S
C567 H581 0.958 . S
C567 H582 0.961 . S
C567 H583 0.960 . S
H568 C552 0.931 . S
H569 C557 0.929 . S
H570 C558 0.960 . S
H571 C558 0.962 . S
H572 C558 0.960 . S
H573 C559 0.961 . S
H574 C559 0.961 . S
H575 C559 0.961 . S
H576 C560 0.931 . S
H577 C565 0.930 . S
H578 C566 0.956 . S
H579 C566 0.961 . S
H580 C566 0.961 . S
H581 C567 0.958 . S
H582 C567 0.961 . S
H583 C567 0.960 . S
C584 C585 1.391 . S
C584 C586 1.394 . S
C584 H600 0.931 . S
C585 C584 1.391 . S
C585 C589 1.376 . S
C586 C584 1.394 . S
C586 C587 1.369 . S
C586 C590 1.531 . S
C587 C586 1.369 . S
C587 C588 1.410 . S
C587 C595 1.503 . S
C588 C587 1.410 . S
C588 C589 1.392 . S
C588 C591 1.511 . S
C589 C585 1.376 . S
C589 C588 1.392 . S
C589 H601 0.929 . S
C590 C586 1.531 . S
C590 H602 0.960 . S
C590 H603 0.962 . S
C590 H604 0.960 . S
C591 C588 1.511 . S
C591 H605 0.961 . S
C591 H606 0.961 . S
C591 H607 0.961 . S
C592 C593 1.370 . S
C592 C594 1.363 1_556 S
C592 H608 0.931 . S
C593 C592 1.370 . S
C593 C597 1.408 . S
C594 C592 1.363 1_554 S
C594 C595 1.370 . S
C594 C598 1.524 . S
C595 C587 1.503 . S
C595 C594 1.370 . S
C595 C596 1.403 . S
C596 C595 1.403 . S
C596 C597 1.404 1_554 S
C596 C599 1.539 . S
C597 C593 1.408 . S
C597 C596 1.404 1_556 S
C597 H609 0.930 . S
C598 C594 1.524 . S
C598 H610 0.956 . S
C598 H611 0.961 . S
C598 H612 0.961 . S
C599 C596 1.539 . S
C599 H613 0.958 . S
C599 H614 0.961 . S
C599 H615 0.960 . S
H600 C584 0.931 . S
H601 C589 0.929 . S
H602 C590 0.960 . S
H603 C590 0.962 . S
H604 C590 0.960 . S
H605 C591 0.961 . S
H606 C591 0.961 . S
H607 C591 0.961 . S
H608 C592 0.931 . S
H609 C597 0.930 . S
H610 C598 0.956 . S
H611 C598 0.961 . S
H612 C598 0.961 . S
H613 C599 0.958 . S
H614 C599 0.961 . S
H615 C599 0.960 . S
C616 C617 1.391 . S
C616 C618 1.394 1_554 S
C616 H632 0.931 . S
C617 C616 1.391 . S
C617 C621 1.376 . S
C618 C616 1.394 1_556 S
C618 C619 1.369 . S
C618 C622 1.531 . S
C619 C618 1.369 . S
C619 C620 1.410 . S
C619 C627 1.503 . S
C620 C619 1.410 . S
C620 C621 1.392 1_556 S
C620 C623 1.511 . S
C621 C617 1.376 . S
C621 C620 1.392 1_554 S
C621 H633 0.929 . S
C622 C618 1.531 . S
C622 H634 0.960 . S
C622 H635 0.962 . S
C622 H636 0.960 . S
C623 C620 1.511 . S
C623 H637 0.961 . S
C623 H638 0.961 . S
C623 H639 0.961 . S
C624 C625 1.370 . S
C624 C626 1.363 . S
C624 H640 0.931 . S
C625 C624 1.370 . S
C625 C629 1.408 . S
C626 C624 1.363 . S
C626 C627 1.370 . S
C626 C630 1.524 . S
C627 C619 1.503 . S
C627 C626 1.370 . S
C627 C628 1.403 . S
C628 C627 1.403 . S
C628 C629 1.404 . S
C628 C631 1.539 . S
C629 C625 1.408 . S
C629 C628 1.404 . S
C629 H641 0.930 . S
C630 C626 1.524 . S
C630 H642 0.956 . S
C630 H643 0.961 . S
C630 H644 0.961 . S
C631 C628 1.539 . S
C631 H645 0.958 . S
C631 H646 0.961 . S
C631 H647 0.960 . S
H632 C616 0.931 . S
H633 C621 0.929 . S
H634 C622 0.960 . S
H635 C622 0.962 . S
H636 C622 0.960 . S
H637 C623 0.961 . S
H638 C623 0.961 . S
H639 C623 0.961 . S
H640 C624 0.931 . S
H641 C629 0.930 . S
H642 C630 0.956 . S
H643 C630 0.961 . S
H644 C630 0.961 . S
H645 C631 0.958 . S
H646 C631 0.961 . S
H647 C631 0.960 . S
C648 C649 1.391 . S
C648 C650 1.394 . S
C648 H664 0.931 . S
C649 C648 1.391 . S
C649 C653 1.376 . S
C650 C648 1.394 . S
C650 C651 1.369 . S
C650 C654 1.531 . S
C651 C650 1.369 . S
C651 C652 1.410 . S
C651 C659 1.503 . S
C652 C651 1.410 . S
C652 C653 1.392 . S
C652 C655 1.511 . S
C653 C649 1.376 . S
C653 C652 1.392 . S
C653 H665 0.929 . S
C654 C650 1.531 . S
C654 H666 0.960 . S
C654 H667 0.962 . S
C654 H668 0.960 . S
C655 C652 1.511 . S
C655 H669 0.961 . S
C655 H670 0.961 . S
C655 H671 0.961 . S
C656 C657 1.370 . S
C656 C658 1.363 1_554 S
C656 H672 0.931 . S
C657 C656 1.370 . S
C657 C661 1.408 . S
C658 C656 1.363 1_556 S
C658 C659 1.370 . S
C658 C662 1.524 . S
C659 C651 1.503 . S
C659 C658 1.370 . S
C659 C660 1.403 . S
C660 C659 1.403 . S
C660 C661 1.404 1_556 S
C660 C663 1.539 . S
C661 C657 1.408 . S
C661 C660 1.404 1_554 S
C661 H673 0.930 . S
C662 C658 1.524 . S
C662 H674 0.956 . S
C662 H675 0.961 . S
C662 H676 0.961 . S
C663 C660 1.539 . S
C663 H677 0.958 . S
C663 H678 0.961 . S
C663 H679 0.960 . S
H664 C648 0.931 . S
H665 C653 0.929 . S
H666 C654 0.960 . S
H667 C654 0.962 . S
H668 C654 0.960 . S
H669 C655 0.961 . S
H670 C655 0.961 . S
H671 C655 0.961 . S
H672 C656 0.931 . S
H673 C661 0.930 . S
H674 C662 0.956 . S
H675 C662 0.961 . S
H676 C662 0.961 . S
H677 C663 0.958 . S
H678 C663 0.961 . S
H679 C663 0.960 . S
C680 C681 1.391 . S
C680 C682 1.394 . S
C680 H696 0.931 . S
C681 C680 1.391 . S
C681 C685 1.376 . S
C682 C680 1.394 . S
C682 C683 1.369 . S
C682 C686 1.531 . S
C683 C682 1.369 . S
C683 C684 1.410 . S
C683 C691 1.503 . S
C684 C683 1.410 . S
C684 C685 1.392 . S
C684 C687 1.511 . S
C685 C681 1.376 . S
C685 C684 1.392 . S
C685 H697 0.929 . S
C686 C682 1.531 . S
C686 H698 0.960 . S
C686 H699 0.962 . S
C686 H700 0.960 . S
C687 C684 1.511 . S
C687 H701 0.961 . S
C687 H702 0.961 . S
C687 H703 0.961 . S
C688 C689 1.370 . S
C688 C690 1.363 . S
C688 H704 0.931 . S
C689 C688 1.370 . S
C689 C693 1.408 . S
C690 C688 1.363 . S
C690 C691 1.370 . S
C690 C694 1.524 . S
C691 C683 1.503 . S
C691 C690 1.370 . S
C691 C692 1.403 . S
C692 C691 1.403 . S
C692 C693 1.404 . S
C692 C695 1.539 . S
C693 C689 1.408 . S
C693 C692 1.404 . S
C693 H705 0.930 . S
C694 C690 1.524 . S
C694 H706 0.956 . S
C694 H707 0.961 . S
C694 H708 0.961 . S
C695 C692 1.539 . S
C695 H709 0.958 . S
C695 H710 0.961 . S
C695 H711 0.960 . S
H696 C680 0.931 . S
H697 C685 0.929 . S
H698 C686 0.960 . S
H699 C686 0.962 . S
H700 C686 0.960 . S
H701 C687 0.961 . S
H702 C687 0.961 . S
H703 C687 0.961 . S
H704 C688 0.931 . S
H705 C693 0.930 . S
H706 C694 0.956 . S
H707 C694 0.961 . S
H708 C694 0.961 . S
H709 C695 0.958 . S
H710 C695 0.961 . S
H711 C695 0.960 . S
C712 C713 1.391 . S
C712 C714 1.394 . S
C712 H728 0.931 . S
C713 C712 1.391 . S
C713 C717 1.376 . S
C714 C712 1.394 . S
C714 C715 1.369 . S
C714 C718 1.531 . S
C715 C714 1.369 . S
C715 C716 1.410 . S
C715 C723 1.503 . S
C716 C715 1.410 . S
C716 C717 1.392 . S
C716 C719 1.511 . S
C717 C713 1.376 . S
C717 C716 1.392 . S
C717 H729 0.929 . S
C718 C714 1.531 . S
C718 H730 0.960 . S
C718 H731 0.962 . S
C718 H732 0.960 . S
C719 C716 1.511 . S
C719 H733 0.961 . S
C719 H734 0.961 . S
C719 H735 0.961 . S
C720 C721 1.370 . S
C720 C722 1.363 . S
C720 H736 0.931 . S
C721 C720 1.370 . S
C721 C725 1.408 . S
C722 C720 1.363 . S
C722 C723 1.370 . S
C722 C726 1.524 . S
C723 C715 1.503 . S
C723 C722 1.370 . S
C723 C724 1.403 . S
C724 C723 1.403 . S
C724 C725 1.404 . S
C724 C727 1.539 . S
C725 C721 1.408 . S
C725 C724 1.404 . S
C725 H737 0.930 . S
C726 C722 1.524 . S
C726 H738 0.956 . S
C726 H739 0.961 . S
C726 H740 0.961 . S
C727 C724 1.539 . S
C727 H741 0.958 . S
C727 H742 0.961 . S
C727 H743 0.960 . S
H728 C712 0.931 . S
H729 C717 0.929 . S
H730 C718 0.960 . S
H731 C718 0.962 . S
H732 C718 0.960 . S
H733 C719 0.961 . S
H734 C719 0.961 . S
H735 C719 0.961 . S
H736 C720 0.931 . S
H737 C725 0.930 . S
H738 C726 0.956 . S
H739 C726 0.961 . S
H740 C726 0.961 . S
H741 C727 0.958 . S
H742 C727 0.961 . S
H743 C727 0.960 . S
C744 C745 1.391 . S
C744 C746 1.394 . S
C744 H760 0.931 . S
C745 C744 1.391 . S
C745 C749 1.376 . S
C746 C744 1.394 . S
C746 C747 1.369 . S
C746 C750 1.531 . S
C747 C746 1.369 . S
C747 C748 1.410 . S
C747 C755 1.503 . S
C748 C747 1.410 . S
C748 C749 1.392 . S
C748 C751 1.511 . S
C749 C745 1.376 . S
C749 C748 1.392 . S
C749 H761 0.929 . S
C750 C746 1.531 . S
C750 H762 0.960 . S
C750 H763 0.962 . S
C750 H764 0.960 . S
C751 C748 1.511 . S
C751 H765 0.961 . S
C751 H766 0.961 . S
C751 H767 0.961 . S
C752 C753 1.370 . S
C752 C754 1.363 . S
C752 H768 0.931 . S
C753 C752 1.370 . S
C753 C757 1.408 . S
C754 C752 1.363 . S
C754 C755 1.370 . S
C754 C758 1.524 . S
C755 C747 1.503 . S
C755 C754 1.370 . S
C755 C756 1.403 . S
C756 C755 1.403 . S
C756 C757 1.404 . S
C756 C759 1.539 . S
C757 C753 1.408 . S
C757 C756 1.404 . S
C757 H769 0.930 . S
C758 C754 1.524 . S
C758 H770 0.956 . S
C758 H771 0.961 . S
C758 H772 0.961 . S
C759 C756 1.539 . S
C759 H773 0.958 . S
C759 H774 0.961 . S
C759 H775 0.960 . S
H760 C744 0.931 . S
H761 C749 0.929 . S
H762 C750 0.960 . S
H763 C750 0.962 . S
H764 C750 0.960 . S
H765 C751 0.961 . S
H766 C751 0.961 . S
H767 C751 0.961 . S
H768 C752 0.931 . S
H769 C757 0.930 . S
H770 C758 0.956 . S
H771 C758 0.961 . S
H772 C758 0.961 . S
H773 C759 0.958 . S
H774 C759 0.961 . S
H775 C759 0.960 . S
C776 C777 1.391 . S
C776 C778 1.394 . S
C776 H792 0.931 . S
C777 C776 1.391 . S
C777 C781 1.376 . S
C778 C776 1.394 . S
C778 C779 1.369 . S
C778 C782 1.531 . S
C779 C778 1.369 . S
C779 C780 1.410 . S
C779 C787 1.503 . S
C780 C779 1.410 . S
C780 C781 1.392 . S
C780 C783 1.511 . S
C781 C777 1.376 . S
C781 C780 1.392 . S
C781 H793 0.929 . S
C782 C778 1.531 . S
C782 H794 0.960 . S
C782 H795 0.962 . S
C782 H796 0.960 . S
C783 C780 1.511 . S
C783 H797 0.961 . S
C783 H798 0.961 . S
C783 H799 0.961 . S
C784 C785 1.370 . S
C784 C786 1.363 . S
C784 H800 0.931 . S
C785 C784 1.370 . S
C785 C789 1.408 . S
C786 C784 1.363 . S
C786 C787 1.370 . S
C786 C790 1.524 . S
C787 C779 1.503 . S
C787 C786 1.370 . S
C787 C788 1.403 . S
C788 C787 1.403 . S
C788 C789 1.404 . S
C788 C791 1.539 . S
C789 C785 1.408 . S
C789 C788 1.404 . S
C789 H801 0.930 . S
C790 C786 1.524 . S
C790 H802 0.956 . S
C790 H803 0.961 . S
C790 H804 0.961 . S
C791 C788 1.539 . S
C791 H805 0.958 . S
C791 H806 0.961 . S
C791 H807 0.960 . S
H792 C776 0.931 . S
H793 C781 0.929 . S
H794 C782 0.960 . S
H795 C782 0.962 . S
H796 C782 0.960 . S
H797 C783 0.961 . S
H798 C783 0.961 . S
H799 C783 0.961 . S
H800 C784 0.931 . S
H801 C789 0.930 . S
H802 C790 0.956 . S
H803 C790 0.961 . S
H804 C790 0.961 . S
H805 C791 0.958 . S
H806 C791 0.961 . S
H807 C791 0.960 . S
C808 C809 1.391 . S
C808 C810 1.394 . S
C808 H824 0.931 . S
C809 C808 1.391 . S
C809 C813 1.376 . S
C810 C808 1.394 . S
C810 C811 1.369 . S
C810 C814 1.531 . S
C811 C810 1.369 . S
C811 C812 1.410 . S
C811 C819 1.503 1_455 S
C812 C811 1.410 . S
C812 C813 1.392 . S
C812 C815 1.511 . S
C813 C809 1.376 . S
C813 C812 1.392 . S
C813 H825 0.929 . S
C814 C810 1.531 . S
C814 H826 0.960 1_455 S
C814 H827 0.962 . S
C814 H828 0.960 . S
C815 C812 1.511 . S
C815 H829 0.961 . S
C815 H830 0.968 . S
C815 H831 0.961 . S
C816 C817 1.370 . S
C816 C818 1.363 . S
C816 H832 0.931 . S
C817 C816 1.370 . S
C817 C821 1.408 . S
C818 C816 1.363 . S
C818 C819 1.370 . S
C818 C822 1.524 . S
C819 C811 1.503 1_655 S
C819 C818 1.370 . S
C819 C820 1.403 . S
C820 C819 1.403 . S
C820 C821 1.404 . S
C820 C823 1.539 . S
C821 C817 1.408 . S
C821 C820 1.404 . S
C821 H833 0.930 . S
C822 C818 1.524 . S
C822 H834 0.956 . S
C822 H835 0.961 1_655 S
C822 H836 0.961 . S
C823 C820 1.539 . S
C823 H837 0.958 . S
C823 H838 0.961 . S
C823 H839 0.912 1_655 S
H824 C808 0.931 . S
H825 C813 0.929 . S
H826 C814 0.960 1_655 S
H827 C814 0.962 . S
H828 C814 0.960 . S
H829 C815 0.961 . S
H830 C815 0.968 . S
H831 C815 0.961 . S
H832 C816 0.931 . S
H833 C821 0.930 . S
H834 C822 0.956 . S
H835 C822 0.961 1_455 S
H836 C822 0.961 . S
H837 C823 0.958 . S
H838 C823 0.961 . S
H839 C823 0.912 1_455 S
C840 C841 1.391 . S
C840 C842 1.394 . S
C840 H856 0.931 . S
C841 C840 1.391 . S
C841 C845 1.376 . S
C842 C840 1.394 . S
C842 C843 1.369 . S
C842 C846 1.531 . S
C843 C842 1.369 . S
C843 C844 1.410 . S
C843 C851 1.503 1_655 S
C844 C843 1.410 . S
C844 C845 1.392 . S
C844 C847 1.511 . S
C845 C841 1.376 . S
C845 C844 1.392 . S
C845 H857 0.929 . S
C846 C842 1.531 . S
C846 H858 0.960 1_655 S
C846 H859 0.962 . S
C846 H860 0.960 . S
C847 C844 1.511 . S
C847 H861 0.961 . S
C847 H862 0.961 1_655 S
C847 H863 0.961 . S
C848 C849 1.370 . S
C848 C850 1.363 . S
C848 H864 0.931 . S
C849 C848 1.370 . S
C849 C853 1.408 . S
C850 C848 1.363 . S
C850 C851 1.370 . S
C850 C854 1.524 . S
C851 C843 1.503 1_455 S
C851 C850 1.370 . S
C851 C852 1.403 . S
C852 C851 1.403 . S
C852 C853 1.404 . S
C852 C855 1.539 . S
C853 C849 1.408 . S
C853 C852 1.404 . S
C853 H865 0.930 . S
C854 C850 1.524 . S
C854 H866 0.956 . S
C854 H867 0.979 . S
C854 H868 0.961 . S
C855 C852 1.539 . S
C855 H869 0.958 . S
C855 H870 0.961 . S
C855 H871 0.960 1_455 S
H856 C840 0.931 . S
H857 C845 0.929 . S
H858 C846 0.960 1_455 S
H859 C846 0.962 . S
H860 C846 0.960 . S
H861 C847 0.961 . S
H862 C847 0.961 1_455 S
H863 C847 0.961 . S
H864 C848 0.931 . S
H865 C853 0.930 . S
H866 C854 0.956 . S
H867 C854 0.979 . S
H868 C854 0.961 . S
H869 C855 0.958 . S
H870 C855 0.961 . S
H871 C855 0.960 1_655 S
C872 C873 1.391 . S
C872 C874 1.394 . S
C872 H888 0.931 . S
C873 C872 1.391 . S
C873 C877 1.376 . S
C874 C872 1.394 . S
C874 C875 1.369 . S
C874 C878 1.531 . S
C875 C874 1.369 . S
C875 C876 1.410 . S
C875 C883 1.503 . S
C876 C875 1.410 . S
C876 C877 1.392 . S
C876 C879 1.511 . S
C877 C873 1.376 . S
C877 C876 1.392 . S
C877 H889 0.929 . S
C878 C874 1.531 . S
C878 H890 0.960 . S
C878 H891 0.962 . S
C878 H892 0.960 . S
C879 C876 1.511 . S
C879 H893 0.961 . S
C879 H894 0.961 . S
C879 H895 0.961 . S
C880 C881 1.370 . S
C880 C882 1.363 . S
C880 H896 0.931 . S
C881 C880 1.370 . S
C881 C885 1.408 . S
C882 C880 1.363 . S
C882 C883 1.370 . S
C882 C886 1.524 . S
C883 C875 1.503 . S
C883 C882 1.370 . S
C883 C884 1.403 . S
C884 C883 1.403 . S
C884 C885 1.404 . S
C884 C887 1.539 1_554 S
C885 C881 1.408 . S
C885 C884 1.404 . S
C885 H897 0.930 1_554 S
C886 C882 1.524 . S
C886 H898 0.956 . S
C886 H899 0.961 . S
C886 H900 0.961 . S
C887 C884 1.539 1_556 S
C887 H901 0.958 . S
C887 H902 0.961 . S
C887 H903 0.960 . S
H888 C872 0.931 . S
H889 C877 0.929 . S
H890 C878 0.960 . S
H891 C878 0.962 . S
H892 C878 0.960 . S
H893 C879 0.961 . S
H894 C879 0.961 . S
H895 C879 0.961 . S
H896 C880 0.931 . S
H897 C885 0.930 1_556 S
H898 C886 0.956 . S
H899 C886 0.961 . S
H900 C886 0.961 . S
H901 C887 0.958 . S
H902 C887 0.961 . S
H903 C887 0.960 . S
C904 C905 1.391 . S
C904 C906 1.394 . S
C904 H920 0.931 . S
C905 C904 1.391 . S
C905 C909 1.376 . S
C906 C904 1.394 . S
C906 C907 1.369 . S
C906 C910 1.531 . S
C907 C906 1.369 . S
C907 C908 1.410 . S
C907 C915 1.503 . S
C908 C907 1.410 . S
C908 C909 1.392 . S
C908 C911 1.511 . S
C909 C905 1.376 . S
C909 C908 1.392 . S
C909 H921 0.929 . S
C910 C906 1.531 . S
C910 H922 0.960 . S
C910 H923 0.962 . S
C910 H924 0.960 . S
C911 C908 1.511 . S
C911 H925 0.961 . S
C911 H926 0.961 . S
C911 H927 0.961 1_556 S
C912 C913 1.370 . S
C912 C914 1.363 . S
C912 H928 0.931 . S
C913 C912 1.370 . S
C913 C917 1.408 . S
C914 C912 1.363 . S
C914 C915 1.370 . S
C914 C918 1.524 . S
C915 C907 1.503 . S
C915 C914 1.370 . S
C915 C916 1.403 . S
C916 C915 1.403 . S
C916 C917 1.404 . S
C916 C919 1.539 1_556 S
C917 C913 1.408 . S
C917 C916 1.404 . S
C917 H929 0.930 1_556 S
C918 C914 1.524 . S
C918 H930 0.956 . S
C918 H931 0.961 . S
C918 H932 0.961 . S
C919 C916 1.539 1_554 S
C919 H933 0.958 . S
C919 H934 0.961 . S
C919 H935 0.960 . S
H920 C904 0.931 . S
H921 C909 0.929 . S
H922 C910 0.960 . S
H923 C910 0.962 . S
H924 C910 0.960 . S
H925 C911 0.961 . S
H926 C911 0.961 . S
H927 C911 0.961 1_554 S
H928 C912 0.931 . S
H929 C917 0.930 1_554 S
H930 C918 0.956 . S
H931 C918 0.961 . S
H932 C918 0.961 . S
H933 C919 0.958 . S
H934 C919 0.961 . S
H935 C919 0.960 . S
C169 C19 1.415 . S
C177 C167 1.393 . S
C201 C146 1.358 . S
C209 C40 1.385 . S
C233 C124 1.406 . S
C241 C62 1.397 . S
C265 C104 1.346 . S
C273 C83 1.394 . S
C297 C46 1.600 . S
C305 C7 1.570 . S
C329 C28 1.611 . S
C337 C67 1.593 . S
C361 C70 1.151 . S
C369 C25 1.210 . S
C393 C49 1.208 . S
C401 C4 1.169 . S
C425 C88 1.584 . S
C433 C130 1.563 . S
C457 C112 1.578 . S
C465 C151 1.561 . S
C489 C154 1.155 . S
C497 C109 1.210 . S
C521 C133 1.234 . S
C529 C91 1.186 . S
C553 C16 1.210 . S
C561 C20 1.263 . S
C585 C37 1.287 . S
C593 C41 1.246 . S
C617 C61 1.310 . S
C625 C45 1.233 . S
C649 C66 1.272 . S
C657 C82 1.275 . S
C681 C103 1.296 . S
C689 C87 1.229 . S
C713 C121 1.278 . S
C721 C125 1.273 . S
C745 C129 1.285 . S
C753 C145 1.269 . S
C777 C150 1.287 . S
C785 C166 1.268 . S
C809 C3 1.282 . S
C817 C24 1.321 . S
C841 C79 1.261 . S
C849 C58 1.338 . S
C873 C100 1.357 . S
C881 C108 1.321 . S
C905 C163 1.333 . S
C913 C142 1.332 . S
