# Generated by pormake.
# Topology unr, (4)-cn, num edge types: 1
# Building blocks:
#     Node 0, Type 0, BuildingBlock: GALJAG_clean_sbu_0, # of connection points: 4
#     Node 1, Type 0, BuildingBlock: GALJAG_clean_sbu_0, # of connection points: 4
#     Node 2, Type 0, BuildingBlock: GALJAG_clean_sbu_0, # of connection points: 4
#     Node 3, Type 0, BuildingBlock: GALJAG_clean_sbu_0, # of connection points: 4
#     Node 4, Type 0, BuildingBlock: GALJAG_clean_sbu_0, # of connection points: 4
#     Node 5, Type 0, BuildingBlock: GALJAG_clean_sbu_0, # of connection points: 4
#     Node 6, Type 0, BuildingBlock: GALJAG_clean_sbu_0, # of connection points: 4
#     Node 7, Type 0, BuildingBlock: GALJAG_clean_sbu_0, # of connection points: 4
#     Node 8, Type 0, BuildingBlock: GALJAG_clean_sbu_0, # of connection points: 4
#     Node 9, Type 0, BuildingBlock: GALJAG_clean_sbu_0, # of connection points: 4
#     Node 10, Type 0, BuildingBlock: GALJAG_clean_sbu_0, # of connection points: 4
#     Node 11, Type 0, BuildingBlock: GALJAG_clean_sbu_0, # of connection points: 4
#     Node 12, Type 0, BuildingBlock: GALJAG_clean_sbu_0, # of connection points: 4
#     Node 13, Type 0, BuildingBlock: GALJAG_clean_sbu_0, # of connection points: 4
#     Node 14, Type 0, BuildingBlock: GALJAG_clean_sbu_0, # of connection points: 4
#     Node 15, Type 0, BuildingBlock: GALJAG_clean_sbu_0, # of connection points: 4
#     Node 16, Type 0, BuildingBlock: GALJAG_clean_sbu_0, # of connection points: 4
#     Node 17, Type 0, BuildingBlock: GALJAG_clean_sbu_0, # of connection points: 4
#     Node 18, Type 0, BuildingBlock: GALJAG_clean_sbu_0, # of connection points: 4
#     Node 19, Type 0, BuildingBlock: GALJAG_clean_sbu_0, # of connection points: 4
#     Node 20, Type 0, BuildingBlock: GALJAG_clean_sbu_0, # of connection points: 4
#     Node 21, Type 0, BuildingBlock: GALJAG_clean_sbu_0, # of connection points: 4
#     Node 22, Type 0, BuildingBlock: GALJAG_clean_sbu_0, # of connection points: 4
#     Node 23, Type 0, BuildingBlock: GALJAG_clean_sbu_0, # of connection points: 4
#     Node 24, Type 0, BuildingBlock: GALJAG_clean_sbu_0, # of connection points: 4
#     Node 25, Type 0, BuildingBlock: GALJAG_clean_sbu_0, # of connection points: 4
#     Node 26, Type 0, BuildingBlock: GALJAG_clean_sbu_0, # of connection points: 4
#     Node 27, Type 0, BuildingBlock: GALJAG_clean_sbu_0, # of connection points: 4
#     Node 28, Type 0, BuildingBlock: GALJAG_clean_sbu_0, # of connection points: 4
#     Node 29, Type 0, BuildingBlock: GALJAG_clean_sbu_0, # of connection points: 4
#     Node 30, Type 0, BuildingBlock: GALJAG_clean_sbu_0, # of connection points: 4
#     Node 31, Type 0, BuildingBlock: GALJAG_clean_sbu_0, # of connection points: 4
#     Node 32, Type 0, BuildingBlock: GALJAG_clean_sbu_0, # of connection points: 4
#     Node 33, Type 0, BuildingBlock: GALJAG_clean_sbu_0, # of connection points: 4
#     Node 34, Type 0, BuildingBlock: GALJAG_clean_sbu_0, # of connection points: 4
#     Node 35, Type 0, BuildingBlock: GALJAG_clean_sbu_0, # of connection points: 4
#     Edge 36, Type (0, 0), BuildingBlock: KIFKEQ_clean_linker_1, # of connection points: 2
#     Edge 37, Type (0, 0), BuildingBlock: KIFKEQ_clean_linker_1, # of connection points: 2
#     Edge 38, Type (0, 0), BuildingBlock: KIFKEQ_clean_linker_1, # of connection points: 2
#     Edge 39, Type (0, 0), BuildingBlock: KIFKEQ_clean_linker_1, # of connection points: 2
#     Edge 40, Type (0, 0), BuildingBlock: KIFKEQ_clean_linker_1, # of connection points: 2
#     Edge 41, Type (0, 0), BuildingBlock: KIFKEQ_clean_linker_1, # of connection points: 2
#     Edge 42, Type (0, 0), BuildingBlock: KIFKEQ_clean_linker_1, # of connection points: 2
#     Edge 43, Type (0, 0), BuildingBlock: KIFKEQ_clean_linker_1, # of connection points: 2
#     Edge 44, Type (0, 0), BuildingBlock: KIFKEQ_clean_linker_1, # of connection points: 2
#     Edge 45, Type (0, 0), BuildingBlock: KIFKEQ_clean_linker_1, # of connection points: 2
#     Edge 46, Type (0, 0), BuildingBlock: KIFKEQ_clean_linker_1, # of connection points: 2
#     Edge 47, Type (0, 0), BuildingBlock: KIFKEQ_clean_linker_1, # of connection points: 2
#     Edge 48, Type (0, 0), BuildingBlock: KIFKEQ_clean_linker_1, # of connection points: 2
#     Edge 49, Type (0, 0), BuildingBlock: KIFKEQ_clean_linker_1, # of connection points: 2
#     Edge 50, Type (0, 0), BuildingBlock: KIFKEQ_clean_linker_1, # of connection points: 2
#     Edge 51, Type (0, 0), BuildingBlock: KIFKEQ_clean_linker_1, # of connection points: 2
#     Edge 52, Type (0, 0), BuildingBlock: KIFKEQ_clean_linker_1, # of connection points: 2
#     Edge 53, Type (0, 0), BuildingBlock: KIFKEQ_clean_linker_1, # of connection points: 2
#     Edge 54, Type (0, 0), BuildingBlock: KIFKEQ_clean_linker_1, # of connection points: 2
#     Edge 55, Type (0, 0), BuildingBlock: KIFKEQ_clean_linker_1, # of connection points: 2
#     Edge 56, Type (0, 0), BuildingBlock: KIFKEQ_clean_linker_1, # of connection points: 2
#     Edge 57, Type (0, 0), BuildingBlock: KIFKEQ_clean_linker_1, # of connection points: 2
#     Edge 58, Type (0, 0), BuildingBlock: KIFKEQ_clean_linker_1, # of connection points: 2
#     Edge 59, Type (0, 0), BuildingBlock: KIFKEQ_clean_linker_1, # of connection points: 2
#     Edge 60, Type (0, 0), BuildingBlock: KIFKEQ_clean_linker_1, # of connection points: 2
#     Edge 61, Type (0, 0), BuildingBlock: KIFKEQ_clean_linker_1, # of connection points: 2
#     Edge 62, Type (0, 0), BuildingBlock: KIFKEQ_clean_linker_1, # of connection points: 2
#     Edge 63, Type (0, 0), BuildingBlock: KIFKEQ_clean_linker_1, # of connection points: 2
#     Edge 64, Type (0, 0), BuildingBlock: KIFKEQ_clean_linker_1, # of connection points: 2
#     Edge 65, Type (0, 0), BuildingBlock: KIFKEQ_clean_linker_1, # of connection points: 2
#     Edge 66, Type (0, 0), BuildingBlock: KIFKEQ_clean_linker_1, # of connection points: 2
#     Edge 67, Type (0, 0), BuildingBlock: KIFKEQ_clean_linker_1, # of connection points: 2
#     Edge 68, Type (0, 0), BuildingBlock: KIFKEQ_clean_linker_1, # of connection points: 2
#     Edge 69, Type (0, 0), BuildingBlock: KIFKEQ_clean_linker_1, # of connection points: 2
#     Edge 70, Type (0, 0), BuildingBlock: KIFKEQ_clean_linker_1, # of connection points: 2
#     Edge 71, Type (0, 0), BuildingBlock: KIFKEQ_clean_linker_1, # of connection points: 2
#     Edge 72, Type (0, 0), BuildingBlock: KIFKEQ_clean_linker_1, # of connection points: 2
#     Edge 73, Type (0, 0), BuildingBlock: KIFKEQ_clean_linker_1, # of connection points: 2
#     Edge 74, Type (0, 0), BuildingBlock: KIFKEQ_clean_linker_1, # of connection points: 2
#     Edge 75, Type (0, 0), BuildingBlock: KIFKEQ_clean_linker_1, # of connection points: 2
#     Edge 76, Type (0, 0), BuildingBlock: KIFKEQ_clean_linker_1, # of connection points: 2
#     Edge 77, Type (0, 0), BuildingBlock: KIFKEQ_clean_linker_1, # of connection points: 2
#     Edge 78, Type (0, 0), BuildingBlock: KIFKEQ_clean_linker_1, # of connection points: 2
#     Edge 79, Type (0, 0), BuildingBlock: KIFKEQ_clean_linker_1, # of connection points: 2
#     Edge 80, Type (0, 0), BuildingBlock: KIFKEQ_clean_linker_1, # of connection points: 2
#     Edge 81, Type (0, 0), BuildingBlock: KIFKEQ_clean_linker_1, # of connection points: 2
#     Edge 82, Type (0, 0), BuildingBlock: KIFKEQ_clean_linker_1, # of connection points: 2
#     Edge 83, Type (0, 0), BuildingBlock: KIFKEQ_clean_linker_1, # of connection points: 2
#     Edge 84, Type (0, 0), BuildingBlock: KIFKEQ_clean_linker_1, # of connection points: 2
#     Edge 85, Type (0, 0), BuildingBlock: KIFKEQ_clean_linker_1, # of connection points: 2
#     Edge 86, Type (0, 0), BuildingBlock: KIFKEQ_clean_linker_1, # of connection points: 2
#     Edge 87, Type (0, 0), BuildingBlock: KIFKEQ_clean_linker_1, # of connection points: 2
#     Edge 88, Type (0, 0), BuildingBlock: KIFKEQ_clean_linker_1, # of connection points: 2
#     Edge 89, Type (0, 0), BuildingBlock: KIFKEQ_clean_linker_1, # of connection points: 2
#     Edge 90, Type (0, 0), BuildingBlock: KIFKEQ_clean_linker_1, # of connection points: 2
#     Edge 91, Type (0, 0), BuildingBlock: KIFKEQ_clean_linker_1, # of connection points: 2
#     Edge 92, Type (0, 0), BuildingBlock: KIFKEQ_clean_linker_1, # of connection points: 2
#     Edge 93, Type (0, 0), BuildingBlock: KIFKEQ_clean_linker_1, # of connection points: 2
#     Edge 94, Type (0, 0), BuildingBlock: KIFKEQ_clean_linker_1, # of connection points: 2
#     Edge 95, Type (0, 0), BuildingBlock: KIFKEQ_clean_linker_1, # of connection points: 2
#     Edge 96, Type (0, 0), BuildingBlock: KIFKEQ_clean_linker_1, # of connection points: 2
#     Edge 97, Type (0, 0), BuildingBlock: KIFKEQ_clean_linker_1, # of connection points: 2
#     Edge 98, Type (0, 0), BuildingBlock: KIFKEQ_clean_linker_1, # of connection points: 2
#     Edge 99, Type (0, 0), BuildingBlock: KIFKEQ_clean_linker_1, # of connection points: 2
#     Edge 100, Type (0, 0), BuildingBlock: KIFKEQ_clean_linker_1, # of connection points: 2
#     Edge 101, Type (0, 0), BuildingBlock: KIFKEQ_clean_linker_1, # of connection points: 2
#     Edge 102, Type (0, 0), BuildingBlock: KIFKEQ_clean_linker_1, # of connection points: 2
#     Edge 103, Type (0, 0), BuildingBlock: KIFKEQ_clean_linker_1, # of connection points: 2
#     Edge 104, Type (0, 0), BuildingBlock: KIFKEQ_clean_linker_1, # of connection points: 2
#     Edge 105, Type (0, 0), BuildingBlock: KIFKEQ_clean_linker_1, # of connection points: 2
#     Edge 106, Type (0, 0), BuildingBlock: KIFKEQ_clean_linker_1, # of connection points: 2
#     Edge 107, Type (0, 0), BuildingBlock: KIFKEQ_clean_linker_1, # of connection points: 2
# Relax obj value: 0.387
# Max RMSD: 0.141
# Mean RMSD: 0.140
data_MOF--net-unr--node1-GALJAG_clean_sbu_0--edge1-KIFKEQ_clean_linker_1
_symmetry_space_group_name_H-M    P1
_symmetry_Int_Tables_number       1
_symmetry_cell_setting            triclinic
loop_
_symmetry_equiv_pos_as_xyz
'x, y, z'
_cell_length_a     50.687635
_cell_length_b     50.719574
_cell_length_c     79.066063
_cell_angle_alpha  89.998226
_cell_angle_beta   89.993641
_cell_angle_gamma 120.02882
loop_
_atom_site_label
_atom_site_type_symbol
_atom_site_fract_x
_atom_site_fract_y
_atom_site_fract_z
_atom_type_partial_charge
In0 In 0.14495 0.07573 0.15254 0.0
O1 O 0.18837 0.12203 0.14931 0.0
O2 O 0.19174 0.08233 0.14646 0.0
C3 C 0.11055 0.09888 0.14099 0.0
C4 C 0.13636 0.07045 0.18638 0.0
C5 C 0.12067 0.01915 0.13964 0.0
O6 O 0.11263 0.0782 0.1333 0.0
O7 O 0.12767 0.10941 0.15373 0.0
O8 O 0.12216 0.02443 0.15532 0.0
O9 O 0.13193 0.04257 0.13036 0.0
C10 C 0.20549 0.11095 0.14708 0.0
O11 O 0.11604 0.06771 0.17619 0.0
O12 O 0.16054 0.0745 0.17948 0.0
In13 In 0.8532 0.03672 0.18401 0.0
O14 O 0.81813 0.05244 0.18386 0.0
O15 O 0.86189 0.08227 0.19414 0.0
C16 C 0.81958 0.99174 0.16188 0.0
C17 C 0.85413 0.01665 0.21551 0.0
C18 C 0.90753 0.05833 0.1686 0.0
O19 O 0.83456 0.01933 0.15744 0.0
O20 O 0.82006 0.98739 0.17754 0.0
O21 O 0.89318 0.03219 0.17518 0.0
O22 O 0.89475 0.07416 0.17001 0.0
C23 C 0.83533 0.07728 0.19128 0.0
O24 O 0.87801 0.03166 0.20686 0.0
O25 O 0.82993 0.01146 0.20818 0.0
In26 In 0.89495 0.81558 0.14715 0.0
O27 O 0.88503 0.81699 0.17529 0.0
O28 O 0.93094 0.84218 0.1674 0.0
C29 C 0.86925 0.84693 0.13484 0.0
C30 C 0.86031 0.75456 0.14998 0.0
C31 C 0.94355 0.83153 0.12709 0.0
O32 O 0.85822 0.8189 0.1318 0.0
O33 O 0.89295 0.85877 0.14387 0.0
O34 O 0.92099 0.83389 0.12236 0.0
O35 O 0.94024 0.81885 0.14128 0.0
C36 C 0.91241 0.8338 0.17953 0.0
O37 O 0.88622 0.76716 0.14309 0.0
O38 O 0.85121 0.77257 0.15424 0.0
In39 In 0.15494 0.17005 0.33547 0.0
O40 O 0.12486 0.13863 0.31429 0.0
O41 O 0.17295 0.16248 0.31082 0.0
C42 C 0.10533 0.16997 0.3477 0.0
C43 C 0.19664 0.22983 0.33337 0.0
C44 C 0.16169 0.1275 0.35257 0.0
O45 O 0.10763 0.16403 0.33243 0.0
O46 O 0.12852 0.17692 0.35668 0.0
O47 O 0.14274 0.13548 0.35667 0.0
O48 O 0.1792 0.14289 0.34069 0.0
C49 C 0.14711 0.14385 0.30487 0.0
O50 O 0.19662 0.21363 0.34551 0.0
O51 O 0.17577 0.21596 0.32269 0.0
In52 In 0.85205 -0.00506 0.37443 0.0
O53 O 0.83091 0.97561 0.34865 0.0
O54 O 0.87865 0.00552 0.34964 0.0
C55 C 0.86163 0.94921 0.38387 0.0
C56 C 0.79886 0.98825 0.38604 0.0
C57 C 0.89677 0.05153 0.38247 0.0
O58 O 0.83913 0.94495 0.37503 0.0
O59 O 0.87896 0.97648 0.38832 0.0
O60 O 0.89122 0.0285 0.39125 0.0
O61 O 0.87838 0.04613 0.37047 0.0
C62 C 0.85564 0.98932 0.34062 0.0
O63 O 0.81299 0.00486 0.37363 0.0
O64 O 0.81269 0.9767 0.39345 0.0
In65 In 0.00424 0.8515 0.33114 0.0
O66 O 0.00566 0.87473 0.30616 0.0
O67 O 0.97218 0.82798 0.30905 0.0
C68 C 0.0458 0.90891 0.34028 0.0
C69 C 0.02805 0.81437 0.33006 0.0
C70 C 0.95832 0.83713 0.35323 0.0
O71 O 0.0184 0.9006 0.337 0.0
O72 O 0.05272 0.88839 0.33855 0.0
O73 O 0.98561 0.84796 0.35791 0.0
O74 O 0.95407 0.83145 0.33763 0.0
C75 C 0.98366 0.85126 0.29968 0.0
O76 O 0.01267 0.8147 0.34254 0.0
O77 O 0.03104 0.8324 0.31832 0.0
In78 In 0.79602 0.90127 0.79901 0.0
O79 O 0.82648 0.91786 0.77538 0.0
O80 O 0.80025 0.87035 0.77971 0.0
C81 C 0.83805 0.95338 0.81373 0.0
C82 C 0.74334 0.89826 0.78972 0.0
C83 C 0.79173 0.85963 0.82183 0.0
O84 O 0.84387 0.9336 0.80803 0.0
O85 O 0.81073 0.94714 0.81193 0.0
O86 O 0.7995 0.88662 0.82592 0.0
O87 O 0.78391 0.85327 0.80657 0.0
C88 C 0.81907 0.89145 0.77035 0.0
O89 O 0.7448 0.88263 0.8017 0.0
O90 O 0.76854 0.91632 0.783 0.0
In91 In 0.01488 0.85972 0.82853 0.0
O92 O 0.01221 0.88266 0.80396 0.0
O93 O 0.05557 0.89137 0.81244 0.0
C94 C 0.95442 0.82986 0.83422 0.0
C95 C 0.02843 0.81483 0.82616 0.0
C96 C 0.04017 0.90649 0.85052 0.0
O97 O 0.96591 0.8374 0.81962 0.0
O98 O 0.97351 0.83671 0.84605 0.0
O99 O 0.01459 0.8975 0.84367 0.0
O100 O 0.05237 0.89071 0.84704 0.0
C101 C 0.04067 0.89665 0.80156 0.0
O102 O 0.03046 0.82833 0.83993 0.0
O103 O 0.01858 0.82328 0.8139 0.0
In104 In 0.09061 0.14936 0.82337 0.0
O105 O 0.06807 0.11468 0.80208 0.0
O106 O 0.097 0.16094 0.79527 0.0
C107 C 0.10927 0.11465 0.83938 0.0
C108 C 0.1319 0.20893 0.82739 0.0
C109 C 0.0333 0.13152 0.8339 0.0
O110 O 0.11096 0.11823 0.82353 0.0
O111 O 0.09954 0.12978 0.84718 0.0
O112 O 0.05215 0.12833 0.8428 0.0
O113 O 0.04405 0.14557 0.82021 0.0
C114 C 0.0791 0.13411 0.79036 0.0
O115 O 0.10392 0.19803 0.83042 0.0
O116 O 0.13925 0.1896 0.82298 0.0
In117 In 0.89769 0.84235 0.62585 0.0
O118 O 0.91017 0.86582 0.65167 0.0
O119 O 0.86539 0.82863 0.64848 0.0
C120 C 0.95718 0.88087 0.62001 0.0
C121 C 0.8866 0.78512 0.62209 0.0
C122 C 0.86874 0.86216 0.60524 0.0
O123 O 0.93898 0.88964 0.62463 0.0
O124 O 0.94535 0.85245 0.61819 0.0
O125 O 0.89321 0.86305 0.60111 0.0
O126 O 0.85763 0.84866 0.61903 0.0
C127 C 0.88432 0.84913 0.65815 0.0
O128 O 0.87455 0.79613 0.61254 0.0
O129 O 0.90396 0.80292 0.63333 0.0
In130 In 0.18024 0.07839 0.67911 0.0
O131 O 0.14035 0.05745 0.69781 0.0
O132 O 0.17634 0.04784 0.70109 0.0
C133 C 0.16612 0.12143 0.67109 0.0
C134 C 0.24083 0.11092 0.6841 0.0
C135 C 0.15586 0.03601 0.65429 0.0
O136 O 0.15752 0.10655 0.68477 0.0
O137 O 0.18245 0.11512 0.66182 0.0
O138 O 0.15856 0.06196 0.65321 0.0
O139 O 0.1665 0.03161 0.66769 0.0
C140 C 0.15087 0.04353 0.70616 0.0
O141 O 0.22909 0.09274 0.67188 0.0
O142 O 0.22201 0.11234 0.69391 0.0
In143 In 0.9473 0.10712 0.65008 0.0
O144 O 0.96427 0.0849 0.66923 0.0
O145 O 0.96359 0.12485 0.67656 0.0
C146 C 0.91356 0.05516 0.63289 0.0
C147 C 0.90484 0.12364 0.65293 0.0
C148 C 0.00308 0.1427 0.63678 0.0
O149 O 0.91709 0.05599 0.64874 0.0
O150 O 0.92753 0.08071 0.62555 0.0
O151 O 0.98694 0.11473 0.63343 0.0
O152 O 0.98984 0.15335 0.64561 0.0
C153 C 0.97037 0.10486 0.68045 0.0
O154 O 0.92578 0.1354 0.64198 0.0
O155 O 0.90579 0.10413 0.66237 0.0
In156 In 0.80953 0.35276 0.47205 0.0
O157 O 0.85499 0.375 0.45796 0.0
O158 O 0.84784 0.34285 0.47713 0.0
C159 C 0.79912 0.3951 0.45794 0.0
C160 C 0.79872 0.36423 0.50393 0.0
C161 C 0.76926 0.29484 0.4634 0.0
O162 O 0.78487 0.36747 0.45352 0.0
O163 O 0.82 0.40159 0.4686 0.0
O164 O 0.77915 0.30271 0.47825 0.0
O165 O 0.78067 0.31608 0.45264 0.0
C166 C 0.86592 0.36171 0.46649 0.0
O167 O 0.77805 0.35223 0.49292 0.0
O168 O 0.82454 0.36932 0.49907 0.0
In169 In 0.596 0.42452 0.5021 0.0
O170 O 0.58371 0.45913 0.49169 0.0
O171 O 0.59176 0.45972 0.51799 0.0
C172 C 0.55861 0.37489 0.48369 0.0
C173 C 0.58642 0.39501 0.53191 0.0
C174 C 0.65185 0.44742 0.48821 0.0
O175 O 0.58659 0.38408 0.48565 0.0
O176 O 0.54952 0.39137 0.49061 0.0
O177 O 0.64668 0.44071 0.50368 0.0
O178 O 0.62897 0.44342 0.47981 0.0
C179 C 0.58469 0.47096 0.50585 0.0
O180 O 0.6124 0.41642 0.52763 0.0
O181 O 0.56562 0.38879 0.52126 0.0
In182 In 0.51278 0.13423 0.5022 0.0
O183 O 0.48225 0.08541 0.49311 0.0
O184 O 0.47049 0.09888 0.51601 0.0
C185 C 0.56017 0.1523 0.48075 0.0
C186 C 0.54513 0.14605 0.53118 0.0
C187 C 0.4876 0.16711 0.49177 0.0
O188 O 0.55117 0.16978 0.48623 0.0
O189 O 0.54488 0.12511 0.48583 0.0
O190 O 0.49474 0.16636 0.507 0.0
O191 O 0.4919 0.15006 0.48186 0.0
C192 C 0.46447 0.07777 0.50564 0.0
O193 O 0.53369 0.16188 0.52637 0.0
O194 O 0.54011 0.12437 0.52145 0.0
In195 In 0.78664 0.5033 0.63498 0.0
O196 O 0.76137 0.46321 0.61672 0.0
O197 O 0.80651 0.49769 0.61054 0.0
C198 C 0.73427 0.49733 0.64704 0.0
C199 C 0.81817 0.56353 0.62934 0.0
C200 C 0.80579 0.47428 0.65609 0.0
O201 O 0.7358 0.4866 0.63286 0.0
O202 O 0.75923 0.51143 0.6549 0.0
O203 O 0.78233 0.47617 0.65872 0.0
O204 O 0.8208 0.48861 0.64323 0.0
C205 C 0.7835 0.47266 0.60653 0.0
O206 O 0.82366 0.55155 0.64186 0.0
O207 O 0.79717 0.54513 0.61975 0.0
In208 In 0.52356 0.30312 0.68321 0.0
O209 O 0.55265 0.30819 0.65982 0.0
O210 O 0.51053 0.3067 0.65611 0.0
C211 C 0.5511 0.27708 0.69968 0.0
C212 C 0.4648 0.26113 0.68736 0.0
C213 C 0.54664 0.36172 0.69312 0.0
O214 O 0.56293 0.29454 0.68714 0.0
O215 O 0.52537 0.27289 0.70411 0.0
O216 O 0.55311 0.34359 0.7004 0.0
O217 O 0.52613 0.34932 0.6821 0.0
C218 C 0.53446 0.30965 0.6495 0.0
O219 O 0.4765 0.28681 0.6946 0.0
O220 O 0.48276 0.25699 0.67817 0.0
In221 In 0.70272 0.20084 0.66624 0.0
O222 O 0.68963 0.21545 0.64191 0.0
O223 O 0.66722 0.16808 0.64746 0.0
C224 C 0.73528 0.26169 0.67064 0.0
C225 C 0.73937 0.17692 0.66327 0.0
C226 C 0.66437 0.18293 0.69292 0.0
O227 O 0.70658 0.24687 0.67018 0.0
O228 O 0.74791 0.24591 0.66853 0.0
O229 O 0.69258 0.2012 0.69427 0.0
O230 O 0.65609 0.17159 0.67836 0.0
C231 C 0.67014 0.18879 0.63745 0.0
O232 O 0.72552 0.17523 0.67685 0.0
O233 O 0.73418 0.19001 0.65128 0.0
In234 In 0.48354 0.23348 0.18795 0.0
O235 O 0.51564 0.24912 0.16522 0.0
O236 O 0.47594 0.20506 0.16439 0.0
C237 C 0.51179 0.29072 0.20026 0.0
C238 C 0.42365 0.21332 0.18374 0.0
C239 C 0.50723 0.20805 0.20865 0.0
O240 O 0.51307 0.28501 0.18483 0.0
O241 O 0.49536 0.2677 0.20925 0.0
O242 O 0.48999 0.21747 0.21402 0.0
O243 O 0.51095 0.20987 0.19288 0.0
C244 C 0.4998 0.22478 0.15698 0.0
O245 O 0.43331 0.19775 0.19114 0.0
O246 O 0.44412 0.23947 0.1792 0.0
In247 In 0.76556 0.27057 0.2397 0.0
O248 O 0.78345 0.23923 0.2485 0.0
O249 O 0.75279 0.22564 0.22766 0.0
C250 C 0.7991 0.31506 0.26238 0.0
C251 C 0.78378 0.29577 0.20869 0.0
C252 C 0.70607 0.2512 0.24462 0.0
O253 O 0.77182 0.29492 0.26508 0.0
O254 O 0.81009 0.31083 0.24908 0.0
O255 O 0.724 0.27607 0.23742 0.0
O256 O 0.71818 0.23605 0.24961 0.0
C257 C 0.76944 0.21985 0.23696 0.0
O258 O 0.76315 0.29722 0.21684 0.0
O259 O 0.7952 0.28199 0.21622 0.0
In260 In 0.75872 0.49288 0.21319 0.0
O261 O 0.75065 0.53182 0.20681 0.0
O262 O 0.79611 0.543 0.21222 0.0
C263 C 0.70352 0.46357 0.228 0.0
C264 C 0.74857 0.46999 0.18132 0.0
C265 C 0.79643 0.48323 0.23292 0.0
O266 O 0.71544 0.49088 0.22314 0.0
O267 O 0.72028 0.4519 0.22632 0.0
O268 O 0.79381 0.47832 0.21719 0.0
O269 O 0.78067 0.49411 0.23875 0.0
C270 C 0.7783 0.5522 0.20748 0.0
O271 O 0.77202 0.49454 0.18535 0.0
O272 O 0.73133 0.45605 0.19355 0.0
In273 In 0.55537 0.17428 0.00716 0.0
O274 O 0.5408 0.14471 0.98339 0.0
O275 O 0.52003 0.12408 0.00673 0.0
C276 C 0.53635 0.2116 0.99503 0.0
C277 C 0.55102 0.18438 0.04024 0.0
C278 C 0.61322 0.18519 0.00548 0.0
O279 O 0.56178 0.21434 0.99123 0.0
O280 O 0.51972 0.18886 0.00417 0.0
O281 O 0.60378 0.19971 0.99686 0.0
O282 O 0.59333 0.16476 0.01481 0.0
C283 C 0.52221 0.12078 0.9911 0.0
O284 O 0.56794 0.20533 0.03014 0.0
O285 O 0.53677 0.15815 0.03374 0.0
In286 In 0.84609 0.36861 0.05383 0.0
O287 O 0.88558 0.37854 0.03631 0.0
O288 O 0.89545 0.40423 0.05898 0.0
C289 C 0.81767 0.31217 0.04027 0.0
C290 C 0.83709 0.36087 0.08741 0.0
C291 C 0.82092 0.40085 0.04163 0.0
O292 O 0.83081 0.33602 0.03142 0.0
O293 O 0.8204 0.31677 0.056 0.0
O294 O 0.80695 0.37222 0.04226 0.0
O295 O 0.84751 0.41351 0.0476 0.0
C296 C 0.90537 0.39969 0.04533 0.0
O297 O 0.82103 0.36731 0.07796 0.0
O298 O 0.85783 0.35848 0.07992 0.0
In299 In 0.63283 0.46309 0.03912 0.0
O300 O 0.63975 0.43558 0.0598 0.0
O301 O 0.65507 0.48234 0.06448 0.0
C302 C 0.58803 0.41093 0.02599 0.0
C303 C 0.60672 0.49798 0.03878 0.0
C304 C 0.68568 0.47885 0.02303 0.0
O305 O 0.59394 0.41429 0.04164 0.0
O306 O 0.60436 0.43415 0.01706 0.0
O307 O 0.66074 0.4557 0.01916 0.0
O308 O 0.6836 0.49538 0.03423 0.0
C309 C 0.65314 0.45794 0.06973 0.0
O310 O 0.62667 0.50125 0.02812 0.0
O311 O 0.60044 0.47755 0.04966 0.0
In312 In 0.47813 0.80032 0.75746 0.0
O313 O 0.52327 0.84485 0.75723 0.0
O314 O 0.51996 0.80897 0.74205 0.0
C315 C 0.4421 0.81681 0.74075 0.0
C316 C 0.46352 0.80258 0.79012 0.0
C317 C 0.46607 0.74218 0.75644 0.0
O318 O 0.44204 0.79238 0.73763 0.0
O319 O 0.46231 0.83398 0.75111 0.0
O320 O 0.48414 0.76136 0.76702 0.0
O321 O 0.45427 0.75239 0.74616 0.0
C322 C 0.53678 0.83543 0.74779 0.0
O323 O 0.44371 0.78843 0.77892 0.0
O324 O 0.49063 0.81488 0.78495 0.0
In325 In 0.20428 0.70967 0.80052 0.0
O326 O 0.1592 0.70716 0.79339 0.0
O327 O 0.18775 0.73948 0.81183 0.0
C328 C 0.20365 0.66208 0.78532 0.0
C329 C 0.20406 0.68996 0.8322 0.0
C330 C 0.24892 0.75493 0.78253 0.0
O331 O 0.22773 0.68539 0.79016 0.0
O332 O 0.1794 0.66299 0.78758 0.0
O333 O 0.2516 0.75092 0.7981 0.0
O334 O 0.22326 0.73659 0.77617 0.0
C335 C 0.16304 0.72781 0.80374 0.0
O336 O 0.22556 0.71517 0.82693 0.0
O337 O 0.18328 0.67531 0.82157 0.0
In338 In 0.30584 0.49628 0.81502 0.0
O339 O 0.29643 0.44827 0.80785 0.0
O340 O 0.26461 0.45288 0.82331 0.0
C341 C 0.35633 0.53535 0.79771 0.0
C342 C 0.32897 0.50694 0.84641 0.0
C343 C 0.26781 0.5149 0.80343 0.0
O344 O 0.33656 0.5103 0.79129 0.0
O345 O 0.35093 0.53959 0.81269 0.0
O346 O 0.27374 0.515 0.81894 0.0
O347 O 0.28076 0.50507 0.79378 0.0
C348 C 0.27184 0.4352 0.81621 0.0
O349 O 0.31227 0.51713 0.84106 0.0
O350 O 0.33391 0.4911 0.83588 0.0
In351 In 0.39912 0.84879 0.9395 0.0
O352 O 0.43259 0.88961 0.9547 0.0
O353 O 0.41329 0.89812 0.93299 0.0
C354 C 0.41034 0.81044 0.95757 0.0
C355 C 0.41227 0.83982 0.90764 0.0
C356 C 0.3425 0.83241 0.95032 0.0
O357 O 0.38466 0.80241 0.95109 0.0
O358 O 0.43041 0.83777 0.95486 0.0
O359 O 0.34753 0.82426 0.93616 0.0
O360 O 0.36607 0.84924 0.95884 0.0
C361 C 0.43082 0.909 0.94557 0.0
O362 O 0.38955 0.84277 0.91099 0.0
O363 O 0.42838 0.84189 0.92024 0.0
In364 In 0.15737 0.6077 0.98632 0.0
O365 O 0.1185 0.59051 0.00556 0.0
O366 O 0.11372 0.56242 0.98452 0.0
C367 C 0.17229 0.66524 0.99379 0.0
C368 C 0.16926 0.61836 0.95296 0.0
C369 C 0.19108 0.5848 0.99891 0.0
O370 O 0.18526 0.65211 1.00049 0.0
O371 O 0.15018 0.64847 0.98424 0.0
O372 O 0.19249 0.60864 0.00472 0.0
O373 O 0.17307 0.57287 0.98663 0.0
C374 C 0.10254 0.56543 0.99809 0.0
O375 O 0.18975 0.62353 0.96366 0.0
O376 O 0.14276 0.60696 0.95903 0.0
In377 In 0.42217 0.58245 0.99606 0.0
O378 O 0.43499 0.55284 0.0119 0.0
O379 O 0.47057 0.5958 0.00381 0.0
C380 C 0.36393 0.55461 0.00682 0.0
C381 C 0.41666 0.56722 0.963 0.0
C382 C 0.4366 0.64111 0.99867 0.0
O383 O 0.38603 0.57069 0.01653 0.0
O384 O 0.37147 0.55154 0.99207 0.0
O385 O 0.44921 0.63221 0.98815 0.0
O386 O 0.41779 0.62065 0.00842 0.0
C387 C 0.46315 0.57158 0.01172 0.0
O388 O 0.42253 0.59307 0.96821 0.0
O389 O 0.41433 0.54891 0.97451 0.0
In390 In 0.14582 0.50264 0.50231 0.0
O391 O 0.18602 0.53173 0.48465 0.0
O392 O 0.15956 0.48421 0.47996 0.0
C393 C 0.1449 0.55207 0.51395 0.0
C394 C 0.08717 0.46679 0.49329 0.0
C395 C 0.17609 0.48617 0.52408 0.0
O396 O 0.15343 0.55044 0.49916 0.0
O397 O 0.13616 0.52839 0.52281 0.0
O398 O 0.17871 0.5122 0.524 0.0
O399 O 0.15663 0.46759 0.51381 0.0
C400 C 0.18191 0.50943 0.47563 0.0
O401 O 0.09693 0.46458 0.50762 0.0
O402 O 0.10677 0.48721 0.48387 0.0
In403 In 0.43726 0.60951 0.52315 0.0
O404 O 0.47419 0.60054 0.53401 0.0
O405 O 0.45917 0.58723 0.50875 0.0
C406 C 0.43374 0.64687 0.5461 0.0
C407 C 0.44796 0.64656 0.49638 0.0
C408 C 0.38399 0.55791 0.52791 0.0
O409 O 0.41078 0.62486 0.53934 0.0
O410 O 0.459 0.64952 0.54185 0.0
O411 O 0.39151 0.57191 0.51394 0.0
O412 O 0.40378 0.56963 0.53949 0.0
C413 C 0.47642 0.58844 0.52052 0.0
O414 O 0.4245 0.6205 0.49734 0.0
O415 O 0.46588 0.65362 0.50877 0.0
In416 In 0.31465 0.7969 0.53143 0.0
O417 O 0.31643 0.84143 0.53975 0.0
O418 O 0.35654 0.8433 0.53044 0.0
C419 C 0.25871 0.7592 0.5444 0.0
C420 C 0.30272 0.78322 0.49828 0.0
C421 C 0.35401 0.78041 0.54314 0.0
O422 O 0.28286 0.76287 0.55113 0.0
O423 O 0.26307 0.77676 0.53212 0.0
O424 O 0.35047 0.78332 0.52757 0.0
O425 O 0.33759 0.78586 0.55295 0.0
C426 C 0.34413 0.85782 0.53574 0.0
O427 O 0.30412 0.76516 0.50873 0.0
O428 O 0.30806 0.80831 0.50449 0.0
In429 In 0.31389 0.51251 0.33937 0.0
O430 O 0.29048 0.46886 0.32379 0.0
O431 O 0.32274 0.47277 0.34213 0.0
C432 C 0.27515 0.52684 0.32405 0.0
C433 C 0.29918 0.51754 0.37159 0.0
C434 C 0.37286 0.55381 0.33329 0.0
O435 O 0.30322 0.54002 0.32061 0.0
O436 O 0.2664 0.50544 0.33462 0.0
O437 O 0.36257 0.54419 0.3479 0.0
O438 O 0.35361 0.5416 0.32155 0.0
C439 C 0.30351 0.45642 0.33113 0.0
O440 O 0.30901 0.53923 0.36118 0.0
O441 O 0.29756 0.49353 0.36591 0.0
In442 In 0.52169 0.81311 0.36461 0.0
O443 O 0.48509 0.77941 0.38271 0.0
O444 O 0.53091 0.80257 0.39125 0.0
C445 C 0.48438 0.83351 0.35444 0.0
C446 C 0.57853 0.86172 0.36602 0.0
C447 C 0.51417 0.76585 0.34523 0.0
O448 O 0.48676 0.82766 0.3697 0.0
O449 O 0.50191 0.83034 0.34433 0.0
O450 O 0.5023 0.78184 0.34163 0.0
O451 O 0.53094 0.77457 0.35816 0.0
C452 C 0.50355 0.7832 0.39442 0.0
O453 O 0.57145 0.83923 0.35647 0.0
O454 O 0.55662 0.86041 0.37423 0.0
In455 In 0.21806 0.7251 0.3445 0.0
O456 O 0.19746 0.749 0.32966 0.0
O457 O 0.16835 0.71303 0.3461 0.0
C458 C 0.2741 0.76836 0.33416 0.0
C459 C 0.23023 0.72997 0.37796 0.0
C460 C 0.20354 0.66947 0.33289 0.0
O461 O 0.26073 0.74165 0.32833 0.0
O462 O 0.25857 0.77371 0.3446 0.0
O463 O 0.20105 0.67466 0.34824 0.0
O464 O 0.21225 0.69216 0.32323 0.0
C465 C 0.17116 0.73333 0.33588 0.0
O466 O 0.24027 0.71791 0.3678 0.0
O467 O 0.21343 0.73889 0.37132 0.0
H468 H 0.09745 0.13739 0.15839 0.0
H469 H 0.06463 0.0713 0.11792 0.0
H470 H 0.04731 0.1326 0.16068 0.0
H471 H 0.01453 0.06676 0.12013 0.0
H472 H 0.93054 0.0238 0.15697 0.0
H473 H 0.98061 0.04085 0.14493 0.0
H474 H 0.00169 0.13437 0.14881 0.0
H475 H 0.95094 0.11707 0.16088 0.0
C476 C 0.0799 0.12279 0.14951 0.0
C477 C 0.08475 0.10418 0.13824 0.0
C478 C 0.05115 0.1201 0.15081 0.0
C479 C 0.02685 0.09876 0.14086 0.0
C480 C 0.03275 0.08296 0.12818 0.0
C481 C 0.0615 0.08571 0.12685 0.0
C482 C 0.94568 0.04799 0.15506 0.0
C483 C 0.93702 0.06914 0.16001 0.0
C484 C 0.97425 0.05776 0.14797 0.0
C485 C -0.00498 0.08896 0.14581 0.0
C486 C 0.98609 0.11019 0.1503 0.0
C487 C 0.95714 0.10031 0.1572 0.0
H488 H 0.7833 0.9312 0.16803 0.0
H489 H 0.83586 -0.00485 0.12869 0.0
H490 H 0.78672 0.89121 0.15307 0.0
H491 H 0.8392 0.95494 0.11362 0.0
H492 H 0.89714 0.90723 0.12845 0.0
H493 H 0.87344 0.93853 0.12692 0.0
H494 H 0.78439 0.85775 0.12891 0.0
H495 H 0.8085 0.82619 0.13021 0.0
C496 C 0.79427 0.93634 0.15575 0.0
C497 C 0.81014 0.96644 0.14978 0.0
C498 C 0.79613 0.91333 0.14711 0.0
C499 C 0.81402 0.9202 0.13242 0.0
C500 C 0.82572 0.94919 0.12509 0.0
C501 C 0.82369 0.97219 0.1337 0.0
C502 C 0.8725 0.89611 0.12797 0.0
C503 C 0.85461 0.86444 0.1297 0.0
C504 C 0.85884 0.914 0.1269 0.0
C505 C 0.82698 0.90061 0.12788 0.0
C506 C 0.80898 0.86865 0.12815 0.0
C507 C 0.82274 0.85063 0.12889 0.0
H508 H 0.09926 0.96636 0.15715 0.0
H509 H 0.10372 0.00142 0.10682 0.0
H510 H 0.06273 0.91563 0.14756 0.0
H511 H 0.06724 0.95007 0.09697 0.0
H512 H 0.96182 0.87778 0.10435 0.0
H513 H 0.01329 0.92061 0.10234 0.0
H514 H 0.04654 0.87063 0.13101 0.0
H515 H -0.00539 0.82812 0.13357 0.0
C516 C 0.09304 0.96303 0.14389 0.0
C517 C 0.10386 0.9879 0.13282 0.0
C518 C 0.07228 0.93378 0.13829 0.0
C519 C 0.06177 0.92869 0.12147 0.0
C520 C 0.07459 0.95326 0.11004 0.0
C521 C 0.09552 0.98264 0.11567 0.0
C522 C 0.98025 0.87536 0.10958 0.0
C523 C 0.97412 0.85006 0.1196 0.0
C524 C 0.00993 0.90001 0.10841 0.0
C525 C 0.03392 0.8995 0.11708 0.0
C526 C 0.02837 0.8721 0.12467 0.0
C527 C -0.00136 0.84762 0.12602 0.0
H528 H 0.1837 0.0945 0.33692 0.0
H529 H 0.12784 0.09198 0.37883 0.0
H530 H 0.1598 0.03923 0.33791 0.0
H531 H 0.10442 0.03674 0.38006 0.0
H532 H 0.03267 0.95223 0.35002 0.0
H533 H 0.06788 0.00445 0.35814 0.0
H534 H 0.14361 0.98881 0.35165 0.0
H535 H 0.10793 0.93595 0.34341 0.0
C536 C 0.1674 0.0823 0.34688 0.0
C537 C 0.15706 0.09743 0.35753 0.0
C538 C 0.15366 0.05056 0.34743 0.0
C539 C 0.12958 0.03363 0.35873 0.0
C540 C 0.12238 0.04921 0.37093 0.0
C541 C 0.13596 0.08086 0.37031 0.0
C542 C 0.05679 0.95978 0.35046 0.0
C543 C 0.06759 0.94012 0.34595 0.0
C544 C 0.07699 0.98964 0.35533 0.0
C545 C 0.10854 0.00069 0.35573 0.0
C546 C 0.1194 0.98088 0.3515 0.0
C547 C 0.09903 0.95072 0.34678 0.0
H548 H 0.94664 0.06367 0.40136 0.0
H549 H 0.91389 0.10381 0.36478 0.0
H550 H -0.00121 0.10279 0.3953 0.0
H551 H 0.96615 0.14356 0.35901 0.0
H552 H 0.05286 0.15508 0.33089 0.0
H553 H 0.00261 0.13632 0.34304 0.0
H554 H 0.04153 0.15431 0.39324 0.0
H555 H 0.09204 0.17268 0.38097 0.0
C556 C 0.9505 0.08161 0.39255 0.0
C557 C 0.92626 0.08027 0.38325 0.0
C558 C 0.98049 0.10417 0.38908 0.0
C559 C 0.9867 0.12588 0.37633 0.0
C560 C 0.96214 0.12669 0.36858 0.0
C561 C 0.93219 0.10404 0.37199 0.0
C562 C 0.05083 0.15573 0.34449 0.0
C563 C 0.07629 0.1649 0.35497 0.0
C564 C 0.02199 0.1452 0.3515 0.0
C565 C 0.01796 0.14356 0.36916 0.0
C566 C 0.04382 0.15492 0.37961 0.0
C567 C 0.07275 0.16555 0.37257 0.0
H568 H 0.91534 0.95588 0.39517 0.0
H569 H 0.82543 0.88811 0.37855 0.0
H570 H 0.93204 0.91878 0.39327 0.0
H571 H 0.84164 0.85024 0.3774 0.0
H572 H 0.90125 0.82385 0.34412 0.0
H573 H 0.87183 0.84376 0.35734 0.0
H574 H 0.9335 0.87439 0.40001 0.0
H575 H 0.96387 0.8555 0.38623 0.0
C576 C 0.89884 0.93271 0.39167 0.0
C577 C 0.86931 0.92505 0.38664 0.0
C578 C 0.90833 0.91122 0.39071 0.0
C579 C 0.88835 0.88147 0.38488 0.0
C580 C 0.85787 0.8731 0.38151 0.0
C581 C 0.84852 0.89475 0.38225 0.0
C582 C 0.908 0.83391 0.35658 0.0
C583 C 0.93533 0.83888 0.36391 0.0
C584 C 0.89097 0.84529 0.36427 0.0
C585 C 0.90074 0.86157 0.37958 0.0
C586 C 0.92585 0.86284 0.38797 0.0
C587 C 0.94311 0.85173 0.38016 0.0
H588 H 0.7767 0.80066 0.81615 0.0
H589 H 0.82711 0.87621 0.85014 0.0
H590 H 0.80777 0.77873 0.82478 0.0
H591 H 0.85878 0.85505 0.85829 0.0
H592 H 0.92608 0.82692 0.86423 0.0
H593 H 0.87506 0.82013 0.86761 0.0
H594 H 0.85877 0.80096 0.81414 0.0
H595 H 0.90908 0.80725 0.81093 0.0
C596 C 0.79357 0.81194 0.82598 0.0
C597 C 0.80022 0.84065 0.83204 0.0
C598 C 0.81152 0.79948 0.83085 0.0
C599 C 0.83659 0.81577 0.84167 0.0
C600 C 0.83989 0.84194 0.8498 0.0
C601 C 0.8217 0.85421 0.84508 0.0
C602 C 0.9111 0.82022 0.85335 0.0
C603 C 0.92169 0.81824 0.83724 0.0
C604 C 0.88193 0.81642 0.85528 0.0
C605 C 0.8629 0.81043 0.84113 0.0
C606 C 0.87253 0.8053 0.82539 0.0
C607 C 0.90161 0.80923 0.82347 0.0
H608 H 0.09198 0.09227 0.87134 0.0
H609 H 0.13239 0.08113 0.82577 0.0
H610 H 0.083 0.043 0.88155 0.0
H611 H 0.12348 0.03208 0.83595 0.0
H612 H 0.10177 0.94274 0.85341 0.0
H613 H 0.12884 -0.00199 0.85712 0.0
H614 H 0.04353 0.99408 0.86832 0.0
H615 H 0.01664 0.93915 0.86452 0.0
C616 C 0.09997 0.07984 0.86379 0.0
C617 C 0.11232 0.09019 0.8476 0.0
C618 C 0.09476 0.05162 0.86964 0.0
C619 C 0.10214 0.03351 0.85947 0.0
C620 C 0.11769 0.04554 0.84415 0.0
C621 C 0.12262 0.07359 0.83824 0.0
C622 C 0.08903 0.95357 0.85739 0.0
C623 C 0.05707 0.93683 0.85841 0.0
C624 C 0.10451 0.98522 0.85942 0.0
C625 C 0.08826 0.0004 0.86275 0.0
C626 C 0.05676 0.98308 0.86584 0.0
C627 C 0.04128 0.95158 0.86358 0.0
H628 H 0.83928 0.00776 0.81746 0.0
H629 H 0.89061 0.9626 0.82775 0.0
H630 H 0.88234 0.05604 0.82752 0.0
H631 H 0.93305 0.01019 0.83786 0.0
H632 H 0.00401 0.09241 0.85998 0.0
H633 H 0.95105 0.05133 0.8598 0.0
H634 H 0.93489 0.08835 0.81437 0.0
H635 H 0.98772 0.12954 0.81459 0.0
C636 C 0.85949 0.00806 0.82219 0.0
C637 C 0.86186 0.98164 0.82166 0.0
C638 C 0.88404 0.0356 0.82793 0.0
C639 C 0.91097 0.03685 0.83355 0.0
C640 C 0.91246 0.00992 0.83388 0.0
C641 C 0.88827 0.9827 0.8279 0.0
C642 C 0.98887 0.09247 0.85033 0.0
C643 C 0.00016 0.11375 0.83706 0.0
C644 C 0.95858 0.06887 0.8502 0.0
C645 C 0.93909 0.06628 0.83686 0.0
C646 C 0.94938 0.08974 0.82481 0.0
C647 C 0.97971 0.1133 0.8249 0.0
H648 H 0.91102 0.04517 0.59868 0.0
H649 H 0.87564 -0.00022 0.64645 0.0
H650 H 0.88724 -0.00429 0.58435 0.0
H651 H 0.85246 0.95088 0.6324 0.0
H652 H 0.81764 0.86547 0.61196 0.0
H653 H 0.8173 0.91329 0.61285 0.0
H654 H 0.90212 0.95718 0.58511 0.0
H655 H 0.90176 0.90932 0.58367 0.0
C656 C 0.89766 0.02467 0.60605 0.0
C657 C 0.89565 0.02619 0.62371 0.0
C658 C 0.88402 -0.0036 0.59784 0.0
C659 C 0.86799 0.96927 0.60718 0.0
C660 C 0.86415 0.97119 0.62469 0.0
C661 C 0.87787 -0.00072 0.63284 0.0
C662 C 0.8353 0.88494 0.60524 0.0
C663 C 0.8604 0.88406 0.59838 0.0
C664 C 0.83525 0.91243 0.60587 0.0
C665 C 0.86046 0.93934 0.59981 0.0
C666 C 0.88254 0.93704 0.59016 0.0
C667 C 0.88237 0.90945 0.58934 0.0
H668 H 0.13482 0.04134 0.62357 0.0
H669 H 0.13183 0.97494 0.65889 0.0
H670 H 0.09066 0.00133 0.60883 0.0
H671 H 0.08723 0.93509 0.64447 0.0
H672 H 0.00309 0.86745 0.61803 0.0
H673 H 0.05788 0.9035 0.6202 0.0
H674 H 0.03964 0.97814 0.62083 0.0
H675 H 0.98547 0.94241 0.61854 0.0
C676 C 0.12529 0.01804 0.62786 0.0
C677 C 0.13622 0.01129 0.64259 0.0
C678 C 0.09995 -0.00484 0.61946 0.0
C679 C 0.08498 0.96524 0.62577 0.0
C680 C 0.09821 0.95791 0.63928 0.0
C681 C 0.12374 0.98079 0.6476 0.0
C682 C 0.01099 0.89163 0.61822 0.0
C683 C 0.99012 0.9022 0.61836 0.0
C684 C 0.04228 0.91221 0.61949 0.0
C685 C 0.0531 0.94364 0.62073 0.0
C686 C 0.0322 0.95414 0.61965 0.0
C687 C 0.00106 0.93364 0.61852 0.0
H688 H 0.04491 0.19126 0.65507 0.0
H689 H 0.03657 0.12757 0.6163 0.0
H690 H 0.09587 0.2007 0.66182 0.0
H691 H 0.08737 0.13705 0.62297 0.0
H692 H 0.17347 0.14734 0.63995 0.0
H693 H 0.14346 0.1683 0.62794 0.0
H694 H 0.10096 0.15963 0.67656 0.0
H695 H 0.13087 0.13877 0.68852 0.0
C696 C 0.05453 0.18047 0.64739 0.0
C697 C 0.03655 0.15809 0.63544 0.0
C698 C 0.08365 0.18572 0.65136 0.0
C699 C 0.09525 0.16902 0.64324 0.0
C700 C 0.07907 0.15024 0.62951 0.0
C701 C 0.04987 0.14475 0.62567 0.0
C702 C 0.15841 0.15082 0.64819 0.0
C703 C 0.15402 0.14088 0.66509 0.0
C704 C 0.14127 0.16283 0.6413 0.0
C705 C 0.11969 0.16536 0.65124 0.0
C706 C 0.11761 0.15827 0.66858 0.0
C707 C 0.13456 0.14604 0.67543 0.0
H708 H 0.66464 0.45066 0.45442 0.0
H709 H 0.70453 0.45969 0.50386 0.0
H710 H 0.70834 0.45034 0.44156 0.0
H711 H 0.74776 0.45902 0.49115 0.0
H712 H 0.82151 0.45318 0.46947 0.0
H713 H 0.79216 0.479 0.47269 0.0
H714 H 0.7195 0.40875 0.44292 0.0
H715 H 0.749 0.38338 0.43945 0.0
C716 C 0.68315 0.45346 0.46249 0.0
C717 C 0.68098 0.45463 0.48017 0.0
C718 C 0.70811 0.4532 0.45512 0.0
C719 C 0.73136 0.45429 0.46532 0.0
C720 C 0.73045 0.45842 0.48286 0.0
C721 C 0.70549 0.45853 0.49021 0.0
C722 C 0.79981 0.44395 0.46303 0.0
C723 C 0.78715 0.41581 0.4546 0.0
C724 C 0.78293 0.45867 0.46495 0.0
C725 C 0.75316 0.44547 0.45848 0.0
C726 C 0.74233 0.41956 0.44811 0.0
C727 C 0.75922 0.40487 0.44617 0.0
H728 H 0.49719 0.34055 0.48872 0.0
H729 H 0.57289 0.33977 0.46417 0.0
H730 H 0.46652 0.2853 0.48537 0.0
H731 H 0.54247 0.2849 0.46083 0.0
H732 H 0.47088 0.20131 0.51047 0.0
H733 H 0.47708 0.25027 0.50233 0.0
H734 H 0.49761 0.23656 0.45115 0.0
H735 H 0.4914 0.18733 0.45937 0.0
C736 C 0.50686 0.32875 0.482 0.0
C737 C 0.53758 0.34425 0.477 0.0
C738 C 0.48933 0.29713 0.48014 0.0
C739 C 0.50222 0.2807 0.47309 0.0
C740 C 0.53176 0.29683 0.46625 0.0
C741 C 0.54933 0.32831 0.46827 0.0
C742 C 0.47553 0.20819 0.49733 0.0
C743 C 0.48132 0.19088 0.48564 0.0
C744 C 0.47889 0.23621 0.49261 0.0
C745 C 0.48837 0.24752 0.47614 0.0
C746 C 0.49065 0.22855 0.46397 0.0
C747 C 0.48699 0.20032 0.46867 0.0
H748 H 0.59792 0.12843 0.4783 0.0
H749 H 0.58705 0.20356 0.46177 0.0
H750 H 0.65073 0.15524 0.46821 0.0
H751 H 0.63934 0.23016 0.45171 0.0
H752 H 0.73291 0.27764 0.43535 0.0
H753 H 0.68111 0.2343 0.43346 0.0
H754 H 0.69286 0.20168 0.48175 0.0
H755 H 0.74445 0.2447 0.48358 0.0
C756 C 0.60649 0.15016 0.47198 0.0
C757 C 0.58868 0.16421 0.47102 0.0
C758 C 0.6367 0.16552 0.46627 0.0
C759 C 0.64928 0.19491 0.4593 0.0
C760 C 0.63034 0.20746 0.45686 0.0
C761 C 0.60042 0.19234 0.46276 0.0
C762 C 0.7248 0.26058 0.44524 0.0
C763 C 0.7424 0.26483 0.45979 0.0
C764 C 0.69512 0.23583 0.44418 0.0
C765 C 0.68274 0.21489 0.45759 0.0
C766 C 0.70171 0.21732 0.47118 0.0
C767 C 0.73125 0.24213 0.47229 0.0
H768 H 0.78382 0.44824 0.68674 0.0
H769 H 0.836 0.44643 0.64406 0.0
H770 H 0.77437 0.39813 0.69542 0.0
H771 H 0.82557 0.39589 0.65228 0.0
H772 H 0.79699 0.3005 0.6684 0.0
H773 H 0.82405 0.35622 0.67045 0.0
H774 H 0.73855 0.35281 0.6805 0.0
H775 H 0.71199 0.29781 0.67873 0.0
C776 C 0.79418 0.43757 0.67957 0.0
C777 C 0.81004 0.45081 0.66454 0.0
C778 C 0.78857 0.40879 0.68444 0.0
C779 C 0.79829 0.3926 0.67419 0.0
C780 C 0.81762 0.40764 0.66043 0.0
C781 C 0.82362 0.43667 0.65569 0.0
C782 C 0.78419 0.31179 0.6713 0.0
C783 C 0.75237 0.29493 0.6732 0.0
C784 C 0.79965 0.34362 0.67248 0.0
C785 C 0.78353 0.35899 0.67572 0.0
C786 C 0.75187 0.34181 0.67834 0.0
C787 C 0.7365 0.31021 0.67709 0.0
H788 H 0.54487 0.40462 0.67305 0.0
H789 H 0.59826 0.3934 0.71194 0.0
H790 H 0.59005 0.4507 0.66337 0.0
H791 H 0.64334 0.439 0.70217 0.0
H792 H 0.72496 0.5123 0.67879 0.0
H793 H 0.67626 0.49188 0.69354 0.0
H794 H 0.62921 0.44602 0.64771 0.0
H795 H 0.67763 0.46664 0.63302 0.0
C796 C 0.56591 0.41274 0.68005 0.0
C797 C 0.56833 0.39483 0.69286 0.0
C798 C 0.59186 0.43903 0.6744 0.0
C799 C 0.62046 0.44783 0.68157 0.0
C800 C 0.62173 0.43276 0.69623 0.0
C801 C 0.5958 0.40648 0.70186 0.0
C802 C 0.70411 0.49853 0.67176 0.0
C803 C 0.70506 0.49054 0.65484 0.0
C804 C 0.67625 0.48686 0.68023 0.0
C805 C 0.64886 0.46711 0.67188 0.0
C806 C 0.64979 0.46143 0.65452 0.0
C807 C 0.67761 0.473 0.64609 0.0
H808 H 0.67703 0.21695 0.72166 0.0
H809 H 0.60225 0.1515 0.69104 0.0
H810 H 0.64515 0.23676 0.73211 0.0
H811 H 0.57048 0.17131 0.70152 0.0
H812 H 0.52298 0.22179 0.71549 0.0
H813 H 0.54636 0.19118 0.72325 0.0
H814 H 0.6346 0.26602 0.70914 0.0
H815 H 0.61128 0.29598 0.7011 0.0
C816 C 0.65333 0.20567 0.71785 0.0
C817 C 0.64246 0.18354 0.705 0.0
C818 C 0.63511 0.21712 0.72382 0.0
C819 C 0.60576 0.20626 0.71716 0.0
C820 C 0.59313 0.18032 0.70676 0.0
C821 C 0.61141 0.16899 0.70071 0.0
C822 C 0.54748 0.23186 0.71454 0.0
C823 C 0.56539 0.26103 0.70753 0.0
C824 C 0.5608 0.21441 0.719 0.0
C825 C 0.59227 0.22626 0.7169 0.0
C826 C 0.61036 0.2564 0.71119 0.0
C827 C 0.59701 0.27349 0.7064 0.0
H828 H 0.67795 0.28472 0.24454 0.0
H829 H 0.66 0.19211 0.24662 0.0
H830 H 0.62357 0.26615 0.24146 0.0
H831 H 0.60533 0.17342 0.24312 0.0
H832 H 0.53598 0.17643 0.2012 0.0
H833 H 0.58057 0.18101 0.2157 0.0
H834 H 0.56977 0.23362 0.25519 0.0
H835 H 0.52472 0.22856 0.24082 0.0
C836 C 0.66225 0.26038 0.2447 0.0
C837 C 0.67309 0.23983 0.24568 0.0
C838 C 0.63112 0.24974 0.24308 0.0
C839 C 0.61029 0.21835 0.24208 0.0
C840 C 0.62096 0.19772 0.24392 0.0
C841 C 0.65215 0.2084 0.24593 0.0
C842 C 0.54237 0.18785 0.21334 0.0
C843 C 0.52715 0.2024 0.21982 0.0
C844 C 0.56783 0.1904 0.22167 0.0
C845 C 0.57875 0.20797 0.23645 0.0
C846 C 0.56182 0.22006 0.24377 0.0
C847 C 0.53597 0.21702 0.23559 0.0
H848 H 0.85748 0.36237 0.25914 0.0
H849 H 0.77095 0.33751 0.28223 0.0
H850 H 0.87089 0.41567 0.25932 0.0
H851 H 0.78347 0.39015 0.28165 0.0
H852 H 0.79286 0.47586 0.26736 0.0
H853 H 0.80721 0.44379 0.28346 0.0
H854 H 0.84908 0.43214 0.23855 0.0
H855 H 0.83555 0.46451 0.22288 0.0
C856 C 0.84187 0.36842 0.26494 0.0
C857 C 0.81267 0.3457 0.27002 0.0
C858 C 0.84942 0.39898 0.26489 0.0
C859 C 0.82762 0.40706 0.26963 0.0
C860 C 0.80075 0.38493 0.27762 0.0
C861 C 0.79345 0.35447 0.27793 0.0
C862 C 0.80617 0.46733 0.26117 0.0
C863 C 0.81242 0.47197 0.24377 0.0
C864 C 0.81427 0.44883 0.27037 0.0
C865 C 0.82867 0.43466 0.26227 0.0
C866 C 0.83812 0.44255 0.24536 0.0
C867 C 0.83005 0.46096 0.23623 0.0
H868 H 0.52333 0.3051 0.23368 0.0
H869 H 0.54582 0.34451 0.18365 0.0
H870 H 0.56474 0.35218 0.24552 0.0
H871 H 0.58698 0.39155 0.1955 0.0
H872 H 0.65832 0.47497 0.21894 0.0
H873 H 0.6045 0.43667 0.21572 0.0
H874 H 0.6209 0.37035 0.24052 0.0
H875 H 0.67457 0.4084 0.24354 0.0
C876 C 0.53649 0.32414 0.22528 0.0
C877 C 0.53169 0.32105 0.2077 0.0
C878 C 0.56018 0.35103 0.23208 0.0
C879 C 0.57915 0.37541 0.22143 0.0
C880 C 0.57254 0.37325 0.20405 0.0
C881 C 0.54911 0.34623 0.19722 0.0
C882 C 0.65015 0.45255 0.22432 0.0
C883 C 0.67062 0.44444 0.23127 0.0
C884 C 0.6194 0.43062 0.22237 0.0
C885 C 0.60866 0.40049 0.22765 0.0
C886 C 0.62849 0.39343 0.23639 0.0
C887 C 0.65926 0.41518 0.23808 0.0
H888 H 0.576 0.39689 0.99249 0.0
H889 H 0.55283 0.35735 0.04247 0.0
H890 H 0.5508 0.34598 0.98008 0.0
H891 H 0.52826 0.30671 0.03018 0.0
H892 H 0.49013 0.21762 0.00868 0.0
H893 H 0.49069 0.26561 0.01263 0.0
H894 H 0.57021 0.31088 0.98058 0.0
H895 H 0.56928 0.26305 0.97643 0.0
C896 C 0.56484 0.37734 1.00081 0.0
C897 C 0.56692 0.38101 0.01846 0.0
C898 C 0.55045 0.3482 0.99369 0.0
C899 C 0.53792 0.32228 0.00412 0.0
C900 C 0.53744 0.32611 0.02173 0.0
C901 C 0.55181 0.3552 0.02882 0.0
C902 C 0.50695 0.23759 0.00192 0.0
C903 C 0.53016 0.23683 0.99259 0.0
C904 C 0.50737 0.26511 0.00428 0.0
C905 C 0.53094 0.2922 0.99729 0.0
C906 C 0.5517 0.29051 0.98617 0.0
C907 C 0.55131 0.26305 0.98384 0.0
H908 H 0.80827 0.29608 0.00691 0.0
H909 H 0.77511 0.26204 0.05709 0.0
H910 H 0.76127 0.25516 0.99486 0.0
H911 H 0.72778 0.22222 0.04525 0.0
H912 H 0.63953 0.15849 0.02367 0.0
H913 H 0.69389 0.17947 0.02901 0.0
H914 H 0.7141 0.25375 0.99475 0.0
H915 H 0.66029 0.23219 0.98903 0.0
C916 C 0.79131 0.2793 0.01534 0.0
C917 C 0.79495 0.28267 0.03295 0.0
C918 C 0.76426 0.256 0.00845 0.0
C919 C 0.74024 0.236 0.01908 0.0
C920 C 0.74562 0.23714 0.0366 0.0
C921 C 0.77282 0.26017 0.04346 0.0
C922 C 0.65576 0.17886 0.01695 0.0
C923 C 0.64572 0.19408 0.00619 0.0
C924 C 0.68688 0.19093 0.02005 0.0
C925 C 0.70847 0.2186 0.01255 0.0
C926 C 0.69835 0.23227 1.00067 0.0
C927 C 0.66734 0.22008 0.99749 0.0
H928 H 0.84551 0.46272 0.03964 0.0
H929 H 0.76493 0.37734 0.02748 0.0
H930 H 0.82057 0.49031 0.02927 0.0
H931 H 0.73995 0.40451 0.01755 0.0
H932 H 0.69698 0.45053 0.99712 0.0
H933 H 0.73742 0.43783 0.99686 0.0
H934 H 0.77936 0.49681 0.03989 0.0
H935 H 0.73971 0.51037 0.03967 0.0
C936 C 0.82259 0.4499 0.03463 0.0
C937 C 0.80699 0.4179 0.03453 0.0
C938 C 0.80836 0.46567 0.02868 0.0
C939 C 0.77833 0.44968 0.02248 0.0
C940 C 0.76331 0.41768 0.02186 0.0
C941 C 0.77748 0.40201 0.02779 0.0
C942 C 0.71563 0.46182 0.00601 0.0
C943 C 0.71487 0.48084 0.01866 0.0
C944 C 0.73863 0.45434 0.00598 0.0
C945 C 0.76094 0.46541 0.01875 0.0
C946 C 0.76246 0.48771 0.02992 0.0
C947 C 0.73966 0.49552 0.0298 0.0
H948 H 0.25286 0.75841 0.74803 0.0
H949 H 0.3047 0.79868 0.79352 0.0
H950 H 0.2996 0.7844 0.73128 0.0
H951 H 0.35116 0.82427 0.77697 0.0
H952 H 0.43363 0.86404 0.7497 0.0
H953 H 0.38413 0.85931 0.75516 0.0
H954 H 0.34004 0.77151 0.73053 0.0
H955 H 0.38937 0.7765 0.72482 0.0
C956 C 0.27409 0.77353 0.75439 0.0
C957 C 0.27528 0.7761 0.77211 0.0
C958 C 0.30085 0.78835 0.7448 0.0
C959 C 0.32917 0.80614 0.75277 0.0
C960 C 0.32978 0.81101 0.77033 0.0
C961 C 0.30313 0.79608 0.7799 0.0
C962 C 0.41344 0.84439 0.74475 0.0
C963 C 0.41527 0.82016 0.73733 0.0
C964 C 0.38505 0.8416 0.74799 0.0
C965 C 0.35814 0.81458 0.74383 0.0
C966 C 0.36028 0.79257 0.73403 0.0
C967 C 0.38867 0.79539 0.73076 0.0
H968 H 0.1597 0.60331 0.79122 0.0
H969 H 0.24936 0.65856 0.7698 0.0
H970 H 0.16765 0.55948 0.7918 0.0
H971 H 0.25715 0.61491 0.77014 0.0
H972 H 0.26427 0.53114 0.77098 0.0
H973 H 0.24053 0.56027 0.76134 0.0
H974 H 0.20639 0.55708 0.81178 0.0
H975 H 0.23028 0.52832 0.82144 0.0
C976 C 0.18051 0.6057 0.78594 0.0
C977 C 0.20406 0.63425 0.7806 0.0
C978 C 0.18514 0.58073 0.78638 0.0
C979 C 0.21313 0.58394 0.78119 0.0
C980 C 0.23529 0.6117 0.77413 0.0
C981 C 0.23088 0.63672 0.77397 0.0
C982 C 0.25109 0.53608 0.7799 0.0
C983 C 0.2494 0.52786 0.79701 0.0
C984 C 0.23752 0.5527 0.77437 0.0
C985 C 0.22164 0.56089 0.78581 0.0
C986 C 0.21815 0.55075 0.80264 0.0
C987 C 0.23207 0.53454 0.80821 0.0
H988 H 0.36102 0.54449 0.76336 0.0
H989 H 0.40692 0.58329 0.81054 0.0
H990 H 0.39466 0.59273 0.74901 0.0
H991 H 0.43958 0.63123 0.79661 0.0
H992 H 0.49653 0.7173 0.77185 0.0
H993 H 0.47754 0.66354 0.77763 0.0
H994 H 0.3955 0.64021 0.74954 0.0
H995 H 0.41534 0.69381 0.74308 0.0
C996 C 0.37892 0.56299 0.77053 0.0
C997 C 0.38118 0.56035 0.78808 0.0
C998 C 0.39796 0.59074 0.76238 0.0
C999 C 0.41956 0.61615 0.77167 0.0
C1000 C 0.42352 0.6123 0.78892 0.0
C1001 C 0.40459 0.58475 0.797 0.0
C1002 C 0.47477 0.70055 0.76659 0.0
C1003 C 0.45714 0.70969 0.75729 0.0
C1004 C 0.46381 0.66974 0.76994 0.0
C1005 C 0.43465 0.64747 0.76439 0.0
C1006 C 0.41812 0.65656 0.75395 0.0
C1007 C 0.42937 0.68737 0.75034 0.0
H1008 H 0.40333 0.66137 0.0156 0.0
H1009 H 0.47539 0.68876 0.97876 0.0
H1010 H 0.39975 0.70646 0.00889 0.0
H1011 H 0.47171 0.73374 0.97204 0.0
H1012 H 0.36933 0.75332 0.96823 0.0
H1013 H 0.37989 0.71666 0.98208 0.0
H1014 H 0.4761 0.78281 0.98221 0.0
H1015 H 0.46551 0.81964 0.9683 0.0
C1016 C 0.41896 0.67743 0.0064 0.0
C1017 C 0.4394 0.67141 0.99754 0.0
C1018 C 0.41676 0.70311 0.0025 0.0
C1019 C 0.43515 0.72332 0.98979 0.0
C1020 C 0.45733 0.71861 0.98194 0.0
C1021 C 0.45937 0.69281 0.98575 0.0
C1022 C 0.3927 0.76015 0.97139 0.0
C1023 C 0.41662 0.7892 0.96708 0.0
C1024 C 0.39872 0.73927 0.97945 0.0
C1025 C 0.42882 0.74695 0.98326 0.0
C1026 C 0.45271 0.7763 0.97936 0.0
C1027 C 0.44664 0.79733 0.97143 0.0
H1028 H 0.22082 0.70609 0.01236 0.0
H1029 H 0.1583 0.70005 0.97343 0.0
H1030 H 0.25708 0.75738 0.00335 0.0
H1031 H 0.19452 0.75188 0.96452 0.0
H1032 H 0.28866 0.79349 0.93506 0.0
H1033 H 0.24006 0.76213 0.94895 0.0
H1034 H 0.27755 0.81042 0.99582 0.0
H1035 H 0.3266 0.84159 0.98187 0.0
C1036 C 0.21422 0.71626 0.00239 0.0
C1037 C 0.18722 0.69875 0.99323 0.0
C1038 C 0.23501 0.74585 0.99723 0.0
C1039 C 0.22907 0.75837 0.98284 0.0
C1040 C 0.20002 0.74252 0.97538 0.0
C1041 C 0.17919 0.71288 0.98057 0.0
C1042 C 0.2863 0.79805 0.94819 0.0
C1043 C 0.31158 0.8194 0.95748 0.0
C1044 C 0.25828 0.78025 0.95616 0.0
C1045 C 0.25502 0.78346 0.9736 0.0
C1046 C 0.27948 0.80711 0.98244 0.0
C1047 C 0.30755 0.82494 0.97444 0.0
H1048 H 0.24178 0.61402 0.01854 0.0
H1049 H 0.18366 0.52848 0.99348 0.0
H1050 H 0.278 0.59735 0.02504 0.0
H1051 H 0.21911 0.51096 1.00072 0.0
H1052 H 0.3141 0.52348 0.98692 0.0
H1053 H 0.26663 0.5236 0.98935 0.0
H1054 H 0.29398 0.56612 0.03855 0.0
H1055 H 0.34244 0.56715 0.03568 0.0
C1056 C 0.23639 0.59129 0.01484 0.0
C1057 C 0.21033 0.57279 0.0052 0.0
C1058 C 0.257 0.58153 0.01872 0.0
C1059 C 0.25171 0.55286 0.01324 0.0
C1060 C 0.22428 0.53342 0.00479 0.0
C1061 C 0.20394 0.54342 1.00067 0.0
C1062 C 0.30965 0.53206 0.99848 0.0
C1063 C 0.33225 0.54599 0.01091 0.0
C1064 C 0.28222 0.53197 0.99995 0.0
C1065 C 0.27668 0.54556 0.01399 0.0
C1066 C 0.29788 0.55624 0.02735 0.0
C1067 C 0.32552 0.55657 0.0258 0.0
H1068 H 0.21466 0.51888 0.54952 0.0
H1069 H 0.19113 0.443 0.51607 0.0
H1070 H 0.26403 0.52353 0.55472 0.0
H1071 H 0.24075 0.4476 0.5213 0.0
H1072 H 0.34173 0.52278 0.50452 0.0
H1073 H 0.28714 0.4917 0.50897 0.0
H1074 H 0.30045 0.50617 0.56288 0.0
H1075 H 0.35545 0.53741 0.55836 0.0
C1076 C 0.21953 0.50231 0.54389 0.0
C1077 C 0.19942 0.48107 0.53209 0.0
C1078 C 0.24783 0.50485 0.54692 0.0
C1079 C 0.25654 0.48635 0.5381 0.0
C1080 C 0.23477 0.46245 0.52807 0.0
C1081 C 0.20629 0.45972 0.52515 0.0
C1082 C 0.33311 0.51848 0.51736 0.0
C1083 C 0.35269 0.53292 0.53106 0.0
C1084 C 0.3018 0.50041 0.51995 0.0
C1085 C 0.28944 0.49672 0.53629 0.0
C1086 C 0.30935 0.5088 0.55015 0.0
C1087 C 0.3408 0.52662 0.54756 0.0
H1088 H 0.47553 0.70748 0.54765 0.0
H1089 H 0.38481 0.64041 0.56349 0.0
H1090 H 0.46351 0.74788 0.55276 0.0
H1091 H 0.37282 0.68053 0.56863 0.0
H1092 H 0.35357 0.75578 0.57399 0.0
H1093 H 0.38108 0.72926 0.58177 0.0
H1094 H 0.42715 0.75348 0.53349 0.0
H1095 H 0.39974 0.77964 0.52575 0.0
C1096 C 0.45355 0.70151 0.55299 0.0
C1097 C 0.43089 0.67088 0.55493 0.0
C1098 C 0.4466 0.7246 0.5558 0.0
C1099 C 0.41706 0.71729 0.56078 0.0
C1100 C 0.3958 0.68693 0.56483 0.0
C1101 C 0.40261 0.6639 0.56183 0.0
C1102 C 0.37017 0.75604 0.56525 0.0
C1103 C 0.37422 0.76928 0.54917 0.0
C1104 C 0.3859 0.74092 0.56971 0.0
C1105 C 0.40622 0.73926 0.55824 0.0
C1106 C 0.41197 0.75467 0.54271 0.0
C1107 C 0.39599 0.76936 0.53818 0.0
H1108 H 0.24621 0.71194 0.5656 0.0
H1109 H 0.20494 0.74194 0.52814 0.0
H1110 H 0.2067 0.65952 0.5609 0.0
H1111 H 0.16484 0.68937 0.52369 0.0
H1112 H 0.15872 0.60368 0.49663 0.0
H1113 H 0.17466 0.65366 0.50833 0.0
H1114 H 0.15543 0.61564 0.55875 0.0
H1115 H 0.13972 0.56532 0.54692 0.0
C1116 C 0.22787 0.7075 0.55695 0.0
C1117 C 0.2292 0.73094 0.54686 0.0
C1118 C 0.20508 0.67733 0.55425 0.0
C1119 C 0.18316 0.67018 0.5415 0.0
C1120 C 0.18193 0.69412 0.53327 0.0
C1121 C 0.20479 0.72429 0.53592 0.0
C1122 C 0.15718 0.60582 0.51018 0.0
C1123 C 0.14846 0.58072 0.52088 0.0
C1124 C 0.16603 0.63448 0.51692 0.0
C1125 C 0.1665 0.63874 0.53453 0.0
C1126 C 0.15558 0.61315 0.54516 0.0
C1127 C 0.14653 0.58435 0.53838 0.0
H1128 H 0.1884 0.61918 0.3519 0.0
H1129 H 0.21479 0.65518 0.30135 0.0
H1130 H 0.19732 0.57773 0.34489 0.0
H1131 H 0.22303 0.61303 0.29411 0.0
H1132 H 0.29112 0.57708 0.30473 0.0
H1133 H 0.26406 0.60517 0.30277 0.0
H1134 H 0.18765 0.53296 0.32952 0.0
H1135 H 0.21528 0.50519 0.33189 0.0
C1136 C 0.19517 0.61767 0.33911 0.0
C1137 C 0.20148 0.64073 0.32728 0.0
C1138 C 0.20009 0.59371 0.33501 0.0
C1139 C 0.21134 0.59225 0.31898 0.0
C1140 C 0.2149 0.61381 0.30666 0.0
C1141 C 0.21003 0.63786 0.31078 0.0
C1142 C 0.26819 0.56677 0.30976 0.0
C1143 C 0.25558 0.53927 0.31878 0.0
C1144 C 0.25252 0.58281 0.30855 0.0
C1145 C 0.22386 0.57159 0.31627 0.0
C1146 C 0.20996 0.54253 0.32375 0.0
C1147 C 0.22572 0.52654 0.32502 0.0
H1148 H 0.39605 0.58664 0.30418 0.0
H1149 H 0.41772 0.58261 0.35659 0.0
H1150 H 0.43998 0.63804 0.30204 0.0
H1151 H 0.46089 0.63383 0.35464 0.0
H1152 H 0.47108 0.73798 0.32077 0.0
H1153 H 0.44503 0.68424 0.31363 0.0
H1154 H 0.50923 0.67249 0.3441 0.0
H1155 H 0.53477 0.72633 0.35167 0.0
C1156 C 0.41069 0.59639 0.3151 0.0
C1157 C 0.40317 0.58089 0.33065 0.0
C1158 C 0.43574 0.62589 0.31391 0.0
C1159 C 0.45369 0.64032 0.32823 0.0
C1160 C 0.4478 0.62349 0.34329 0.0
C1161 C 0.42283 0.5941 0.34448 0.0
C1162 C 0.48021 0.72415 0.32553 0.0
C1163 C 0.50447 0.73616 0.3371 0.0
C1164 C 0.46538 0.69326 0.32135 0.0
C1165 C 0.47464 0.67385 0.32859 0.0
C1166 C 0.5011 0.6867 0.33863 0.0
C1167 C 0.51582 0.71757 0.3429 0.0
H1168 H 0.30969 0.82428 0.34852 0.0
H1169 H 0.31295 0.75955 0.31434 0.0
H1170 H 0.36525 0.85206 0.35012 0.0
H1171 H 0.36817 0.78671 0.31623 0.0
H1172 H 0.46706 0.83536 0.32189 0.0
H1173 H 0.41869 0.83047 0.31288 0.0
H1174 H 0.39643 0.83607 0.36505 0.0
H1175 H 0.44474 0.84153 0.37391 0.0
C1176 C 0.3223 0.81647 0.34097 0.0
C1177 C 0.307 0.78941 0.33156 0.0
C1178 C 0.35411 0.83229 0.34197 0.0
C1179 C 0.37115 0.82129 0.33358 0.0
C1180 C 0.35587 0.79598 0.32281 0.0
C1181 C 0.32411 0.78022 0.32179 0.0
C1182 C 0.45222 0.83652 0.33135 0.0
C1183 C 0.4594 0.83829 0.34863 0.0
C1184 C 0.42445 0.83356 0.3262 0.0
C1185 C 0.40345 0.83239 0.33824 0.0
C1186 C 0.41206 0.83708 0.35538 0.0
C1187 C 0.43974 0.84 0.36051 0.0
H1188 H 0.19169 0.15484 0.2822 0.0
H1189 H 0.09459 0.09968 0.29009 0.0
H1190 H 0.18644 0.13175 0.2546 0.0
H1191 H 0.08933 0.07572 0.26249 0.0
H1192 H 0.0919 0.07473 0.20342 0.0
H1193 H 0.09271 0.0887 0.23297 0.0
H1194 H 0.17562 0.08569 0.2406 0.0
H1195 H 0.17532 0.07277 0.21087 0.0
C1196 C 0.16922 0.13754 0.27808 0.0
C1197 C 0.14353 0.12917 0.28826 0.0
C1198 C 0.16622 0.12404 0.26231 0.0
C1199 C 0.13748 0.10167 0.25635 0.0
C1200 C 0.11176 0.09305 0.26664 0.0
C1201 C 0.11477 0.10671 0.28244 0.0
C1202 C 0.10998 0.0765 0.2115 0.0
C1203 C 0.13375 0.07304 0.20482 0.0
C1204 C 0.1104 0.08441 0.22846 0.0
C1205 C 0.1345 0.0888 0.2391 0.0
C1206 C 0.15712 0.08322 0.23264 0.0
C1207 C 0.15683 0.07557 0.21565 0.0
H1208 H 0.807 0.99295 0.23778 0.0
H1209 H 0.90217 0.02013 0.23312 0.0
H1210 H 0.80843 0.98269 0.26765 0.0
H1211 H 0.90341 0.00859 0.26299 0.0
H1212 H 0.90282 0.02721 0.32024 0.0
H1213 H 0.90287 0.02996 0.28951 0.0
H1214 H 0.81215 0.95129 0.28832 0.0
H1215 H 0.8117 0.94956 0.31913 0.0
C1216 C 0.82811 -0.00383 0.2431 0.0
C1217 C 0.85453 0.00755 0.23317 0.0
C1218 C 0.8289 0.99006 0.26023 0.0
C1219 C 0.85607 -0.00516 0.2678 0.0
C1220 C 0.88224 0.00513 0.25766 0.0
C1221 C 0.88151 0.01158 0.24053 0.0
C1222 C 0.88305 0.01031 0.31337 0.0
C1223 C 0.85713 0.98839 0.32204 0.0
C1224 C 0.88312 0.01174 0.29573 0.0
C1225 C 0.85738 0.99102 0.28638 0.0
C1226 C 0.83209 0.96806 0.2951 0.0
C1227 C 0.83188 0.96691 0.31275 0.0
H1228 H 0.0053 0.89805 0.27692 0.0
H1229 H 0.93648 0.8036 0.28349 0.0
H1230 H 0.98713 0.89688 0.24815 0.0
H1231 H 0.91867 0.80227 0.25471 0.0
H1232 H 0.87652 0.81545 0.20767 0.0
H1233 H 0.893 0.82215 0.23713 0.0
H1234 H 0.98695 0.87351 0.22101 0.0
H1235 H 0.97042 0.86727 0.19158 0.0
C1236 C 0.98628 0.87707 0.27222 0.0
C1237 C 0.97235 0.85089 0.28242 0.0
C1238 C 0.97596 0.87637 0.25573 0.0
C1239 C 0.95144 0.8495 0.24915 0.0
C1240 C 0.93731 0.82346 0.25948 0.0
C1241 C 0.94765 0.82415 0.27592 0.0
C1242 C 0.90067 0.82853 0.21045 0.0
C1243 C 0.9222 0.84071 0.19734 0.0
C1244 C 0.91011 0.83218 0.2273 0.0
C1245 C 0.94129 0.84811 0.2314 0.0
C1246 C 0.96276 0.86133 0.21829 0.0
C1247 C 0.95331 0.85765 0.20143 0.0
H1248 H 0.82976 0.81684 0.67428 0.0
H1249 H 0.92075 0.89328 0.68066 0.0
H1250 H 0.81548 0.82723 0.70185 0.0
H1251 H 0.90663 0.90337 0.70845 0.0
H1252 H 0.80734 0.83644 0.75826 0.0
H1253 H 0.82487 0.82574 0.73184 0.0
H1254 H 0.87426 0.92191 0.72026 0.0
H1255 H 0.85716 0.93267 0.74695 0.0
C1256 C 0.8468 0.83566 0.68167 0.0
C1257 C 0.87635 0.85426 0.67532 0.0
C1258 C 0.83867 0.84154 0.6975 0.0
C1259 C 0.85992 0.86615 0.70734 0.0
C1260 C 0.88964 0.88448 0.70108 0.0
C1261 C 0.89778 0.87857 0.68523 0.0
C1262 C 0.82206 0.85532 0.75011 0.0
C1263 C 0.83077 0.88539 0.75461 0.0
C1264 C 0.83198 0.84917 0.73494 0.0
C1265 C 0.8508 0.87294 0.7239 0.0
C1266 C 0.86001 0.90311 0.72857 0.0
C1267 C 0.8501 0.90927 0.74379 0.0
H1268 H 0.1014 0.93411 0.79722 0.0
H1269 H 0.0144 0.90843 0.77441 0.0
H1270 H 0.1273 0.97034 0.77457 0.0
H1271 H 0.04049 0.94422 0.75124 0.0
H1272 H 0.09771 0.03308 0.72113 0.0
H1273 H 0.07031 -0.00216 0.74428 0.0
H1274 H 0.13866 0.97068 0.74547 0.0
H1275 H 0.16633 0.00643 0.72287 0.0
C1276 C 0.0878 0.93603 0.78725 0.0
C1277 C 0.05587 0.91828 0.78752 0.0
C1278 C 0.10267 0.95673 0.7742 0.0
C1279 C 0.08604 0.96005 0.76096 0.0
C1280 C 0.054 0.94245 0.7613 0.0
C1281 C 0.03905 0.92181 0.7745 0.0
C1282 C 0.10688 0.01965 0.72644 0.0
C1283 C 0.13427 0.02267 0.72029 0.0
C1284 C 0.09108 -0.0007 0.7396 0.0
C1285 C 0.10232 0.98148 0.74681 0.0
C1286 C 0.12962 0.98444 0.74049 0.0
C1287 C 0.14544 0.00486 0.72746 0.0
H1288 H 0.98702 0.06447 0.69242 0.0
H1289 H 0.99077 0.1495 0.70411 0.0
H1290 H 0.01684 0.06981 0.71795 0.0
H1291 H 0.02028 0.15474 0.72939 0.0
H1292 H 0.09715 0.17308 0.7636 0.0
H1293 H 0.07238 0.16407 0.73609 0.0
H1294 H 0.0108 0.07043 0.74987 0.0
H1295 H 0.03578 0.07935 0.77742 0.0
C1296 C -0.00596 0.08415 0.70048 0.0
C1297 C 0.98654 0.10655 0.6963 0.0
C1298 C 0.0111 0.08721 0.71504 0.0
C1299 C 0.02121 0.11289 0.72551 0.0
C1300 C 0.01334 0.135 0.72138 0.0
C1301 C -0.00385 0.13184 0.70698 0.0
C1302 C 0.07875 0.1504 0.76064 0.0
C1303 C 0.06817 0.12701 0.77273 0.0
C1304 C 0.06445 0.1453 0.74494 0.0
C1305 C 0.03932 0.1167 0.74098 0.0
C1306 C 0.03012 0.09269 0.75259 0.0
C1307 C 0.0444 0.09783 0.76836 0.0
H1308 H 0.83989 0.39067 0.52941 0.0
H1309 H 0.74711 0.36261 0.51546 0.0
H1310 H 0.8345 0.41465 0.55487 0.0
H1311 H 0.74188 0.38715 0.54081 0.0
H1312 H 0.73852 0.41645 0.59594 0.0
H1313 H 0.74066 0.38674 0.57208 0.0
H1314 H 0.83078 0.46016 0.55968 0.0
H1315 H 0.82884 0.48943 0.58349 0.0
C1316 C 0.81823 0.38933 0.53189 0.0
C1317 C 0.79399 0.37494 0.52041 0.0
C1318 C 0.81521 0.40327 0.5464 0.0
C1319 C 0.78791 0.40319 0.54972 0.0
C1320 C 0.76315 0.38749 0.53865 0.0
C1321 C 0.76617 0.37349 0.52411 0.0
C1322 C 0.75869 0.42621 0.58804 0.0
C1323 C 0.78354 0.45521 0.59159 0.0
C1324 C 0.7599 0.40924 0.57439 0.0
C1325 C 0.78604 0.42096 0.56413 0.0
C1326 C 0.81059 0.45019 0.56756 0.0
C1327 C 0.80936 0.46709 0.58113 0.0
H1328 H 0.62458 0.40926 0.55914 0.0
H1329 H 0.53411 0.34455 0.54165 0.0
H1330 H 0.61218 0.38509 0.587 0.0
H1331 H 0.52199 0.31989 0.56922 0.0
H1332 H 0.49867 0.31472 0.62565 0.0
H1333 H 0.5122 0.33275 0.59675 0.0
H1334 H 0.60014 0.33977 0.60339 0.0
H1335 H 0.58672 0.3223 0.63264 0.0
C1336 C 0.60222 0.38962 0.56119 0.0
C1337 C 0.5802 0.37901 0.54831 0.0
C1338 C 0.59516 0.37563 0.57711 0.0
C1339 C 0.56598 0.35069 0.5804 0.0
C1340 C 0.54446 0.33941 0.56723 0.0
C1341 C 0.55145 0.35347 0.5514 0.0
C1342 C 0.52077 0.31975 0.6209 0.0
C1343 C 0.54166 0.31716 0.63142 0.0
C1344 C 0.52849 0.32995 0.60427 0.0
C1345 C 0.55729 0.33775 0.59773 0.0
C1346 C 0.57791 0.3343 0.60811 0.0
C1347 C 0.57015 0.32407 0.6248 0.0
H1348 H 0.57161 0.11475 0.54354 0.0
H1349 H 0.55949 0.19158 0.55412 0.0
H1350 H 0.60195 0.12522 0.56917 0.0
H1351 H 0.58946 0.20178 0.57998 0.0
H1352 H 0.62669 0.1335 0.62535 0.0
H1353 H 0.59598 0.12321 0.59982 0.0
H1354 H 0.64198 0.21955 0.58876 0.0
H1355 H 0.67229 0.22985 0.61443 0.0
C1356 C 0.57532 0.1338 0.5514 0.0
C1357 C 0.56318 0.15235 0.54684 0.0
C1358 C 0.59256 0.1397 0.56613 0.0
C1359 C 0.59807 0.16429 0.57663 0.0
C1360 C 0.58591 0.18286 0.57205 0.0
C1361 C 0.56861 0.17693 0.55731 0.0
C1362 C 0.63023 0.15246 0.61745 0.0
C1363 C 0.65188 0.18247 0.62187 0.0
C1364 C 0.61275 0.14656 0.60279 0.0
C1365 C 0.61654 0.17057 0.59226 0.0
C1366 C 0.63823 0.20059 0.59671 0.0
C1367 C 0.65573 0.20647 0.61136 0.0
H1368 H 0.57032 0.23952 0.05509 0.0
H1369 H 0.5214 0.14291 0.06528 0.0
H1370 H 0.559 0.24947 0.08354 0.0
H1371 H 0.51104 0.15281 0.09399 0.0
H1372 H 0.4656 0.1781 0.1355 0.0
H1373 H 0.47974 0.16861 0.10773 0.0
H1374 H 0.56871 0.24885 0.11293 0.0
H1375 H 0.55397 0.25893 0.14053 0.0
C1376 C 0.55757 0.22044 0.06353 0.0
C1377 C 0.5466 0.19043 0.05797 0.0
C1378 C 0.55119 0.22614 0.07988 0.0
C1379 C 0.53392 0.20194 0.09106 0.0
C1380 C 0.52385 0.17196 0.08561 0.0
C1381 C 0.52998 0.16627 0.06921 0.0
C1382 C 0.48817 0.19372 0.1307 0.0
C1383 C 0.50866 0.21928 0.14015 0.0
C1384 C 0.4964 0.18815 0.11483 0.0
C1385 C 0.52547 0.20784 0.10809 0.0
C1386 C 0.54602 0.23341 0.11762 0.0
C1387 C 0.53764 0.23914 0.13345 0.0
H1388 H 0.87409 0.35739 0.1112 0.0
H1389 H 0.78659 0.35122 0.10475 0.0
H1390 H 0.86317 0.34526 0.14111 0.0
H1391 H 0.77489 0.33761 0.13445 0.0
H1392 H 0.77018 0.33438 0.19163 0.0
H1393 H 0.78527 0.35377 0.16288 0.0
H1394 H 0.8325 0.3029 0.15808 0.0
H1395 H 0.81862 0.28487 0.18694 0.0
C1396 C 0.85248 0.35337 0.1162 0.0
C1397 C 0.83113 0.35509 0.10567 0.0
C1398 C 0.8461 0.34621 0.13332 0.0
C1399 C 0.81799 0.34013 0.14022 0.0
C1400 C 0.79692 0.34254 0.12968 0.0
C1401 C 0.80352 0.35014 0.11262 0.0
C1402 C 0.78397 0.3276 0.18441 0.0
C1403 C 0.79325 0.30817 0.19149 0.0
C1404 C 0.79249 0.33854 0.16791 0.0
C1405 C 0.81014 0.32993 0.15809 0.0
C1406 C 0.81947 0.31057 0.16531 0.0
C1407 C 0.8113 0.30001 0.18184 0.0
H1408 H 0.7786 0.50085 0.15291 0.0
H1409 H 0.69604 0.42127 0.16975 0.0
H1410 H 0.75686 0.49478 0.12469 0.0
H1411 H 0.67421 0.41543 0.14155 0.0
H1412 H 0.65071 0.40796 0.0846 0.0
H1413 H 0.67703 0.40682 0.11037 0.0
H1414 H 0.71475 0.50382 0.11618 0.0
H1415 H 0.68873 0.50499 0.09061 0.0
C1416 C 0.75614 0.4816 0.15047 0.0
C1417 C 0.73885 0.46178 0.16358 0.0
C1418 C 0.74361 0.47828 0.13436 0.0
C1419 C 0.71361 0.45503 0.13104 0.0
C1420 C 0.69737 0.43358 0.14374 0.0
C1421 C 0.70988 0.43694 0.1599 0.0
C1422 C 0.66458 0.42897 0.09145 0.0
C1423 C 0.6676 0.45655 0.08565 0.0
C1424 C 0.67966 0.42831 0.10614 0.0
C1425 C 0.69826 0.45529 0.11514 0.0
C1426 C 0.7011 0.48277 0.10932 0.0
C1427 C 0.6859 0.48338 0.09477 0.0
H1428 H 0.38285 0.8369 0.8781 0.0
H1429 H 0.45748 0.82868 0.89848 0.0
H1430 H 0.39493 0.82683 0.84975 0.0
H1431 H 0.46904 0.81783 0.87033 0.0
H1432 H 0.50249 0.83489 0.81561 0.0
H1433 H 0.48963 0.84356 0.84396 0.0
H1434 H 0.39385 0.78659 0.8326 0.0
H1435 H 0.40679 0.77858 0.80403 0.0
C1436 C 0.40174 0.83283 0.87652 0.0
C1437 C 0.41932 0.83373 0.89046 0.0
C1438 C 0.40853 0.82683 0.86032 0.0
C1439 C 0.43298 0.82155 0.85777 0.0
C1440 C 0.45037 0.82227 0.87179 0.0
C1441 C 0.44365 0.82835 0.88794 0.0
C1442 C 0.4787 0.82407 0.8192 0.0
C1443 C 0.45564 0.80606 0.80763 0.0
C1444 C 0.47131 0.82893 0.83548 0.0
C1445 C 0.4407 0.81579 0.84055 0.0
C1446 C 0.41764 0.79739 0.82901 0.0
C1447 C 0.42504 0.79259 0.8127 0.0
H1448 H 0.2249 0.6475 0.93736 0.0
H1449 H 0.12857 0.60908 0.92804 0.0
H1450 H 0.23566 0.6641 0.90784 0.0
H1451 H 0.13926 0.62603 0.8988 0.0
H1452 H 0.16376 0.63379 0.844 0.0
H1453 H 0.15734 0.61516 0.87286 0.0
H1454 H 0.23316 0.70145 0.88876 0.0
H1455 H 0.24005 0.71999 0.85955 0.0
C1456 C 0.20605 0.64245 0.92898 0.0
C1457 C 0.17589 0.62687 0.93496 0.0
C1458 C 0.21222 0.65216 0.91214 0.0
C1459 C 0.18832 0.64632 0.90097 0.0
C1460 C 0.15817 0.63046 0.90698 0.0
C1461 C 0.15204 0.62085 0.92377 0.0
C1462 C 0.17923 0.64876 0.85361 0.0
C1463 C 0.20223 0.67846 0.84956 0.0
C1464 C 0.17545 0.63812 0.87018 0.0
C1465 C 0.19446 0.65695 0.88315 0.0
C1466 C 0.21824 0.68633 0.87902 0.0
C1467 C 0.22211 0.697 0.86234 0.0
H1468 H 0.32529 0.54433 0.8697 0.0
H1469 H 0.36405 0.48647 0.86144 0.0
H1470 H 0.3496 0.5585 0.89732 0.0
H1471 H 0.38867 0.5009 0.88923 0.0
H1472 H 0.42188 0.60384 0.93667 0.0
H1473 H 0.40252 0.58852 0.90807 0.0
H1474 H 0.3744 0.49509 0.92024 0.0
H1475 H 0.39415 0.51052 0.94901 0.0
C1476 C 0.33899 0.53461 0.8738 0.0
C1477 C 0.34285 0.51437 0.8634 0.0
C1478 C 0.3531 0.5429 0.88957 0.0
C1479 C 0.37131 0.53106 0.89534 0.0
C1480 C 0.37472 0.51032 0.8851 0.0
C1481 C 0.3607 0.50214 0.86921 0.0
C1482 C 0.41199 0.58009 0.9332 0.0
C1483 C 0.40925 0.55832 0.94511 0.0
C1484 C 0.40074 0.5713 0.91685 0.0
C1485 C 0.38649 0.54055 0.91203 0.0
C1486 C 0.3853 0.51896 0.92362 0.0
C1487 C 0.39657 0.52778 0.94007 0.0
H1488 H 0.23387 0.56021 0.4648 0.0
H1489 H 0.17456 0.4647 0.45401 0.0
H1490 H 0.26646 0.5639 0.44102 0.0
H1491 H 0.2064 0.46847 0.43014 0.0
H1492 H 0.2803 0.47526 0.39679 0.0
H1493 H 0.2553 0.475 0.42319 0.0
H1494 H 0.26543 0.56247 0.41042 0.0
H1495 H 0.29129 0.56311 0.38429 0.0
C1496 C 0.22777 0.54007 0.45732 0.0
C1497 C 0.20168 0.51219 0.46124 0.0
C1498 C 0.24636 0.54218 0.44369 0.0
C1499 C 0.23916 0.51643 0.43373 0.0
C1500 C 0.21302 0.4886 0.43773 0.0
C1501 C 0.19458 0.4865 0.45134 0.0
C1502 C 0.27759 0.49463 0.39976 0.0
C1503 C 0.28752 0.51909 0.38844 0.0
C1504 C 0.26308 0.4944 0.41482 0.0
C1505 C 0.25795 0.51851 0.41881 0.0
C1506 C 0.26919 0.54364 0.40782 0.0
C1507 C 0.2839 0.54395 0.3928 0.0
H1508 H 0.44578 0.74312 0.40517 0.0
H1509 H 0.54051 0.78175 0.41887 0.0
H1510 H 0.43089 0.71105 0.4304 0.0
H1511 H 0.52586 0.74906 0.44364 0.0
H1512 H 0.41914 0.63356 0.46574 0.0
H1513 H 0.4317 0.66758 0.44147 0.0
H1514 H 0.50289 0.74074 0.47061 0.0
H1515 H 0.49108 0.70643 0.49452 0.0
C1516 C 0.46339 0.74477 0.4136 0.0
C1517 C 0.49428 0.76497 0.41009 0.0
C1518 C 0.4549 0.72624 0.42798 0.0
C1519 C 0.47716 0.72739 0.43907 0.0
C1520 C 0.50805 0.7479 0.43558 0.0
C1521 C 0.51649 0.76657 0.42131 0.0
C1522 C 0.43741 0.65695 0.46692 0.0
C1523 C 0.45431 0.6673 0.48194 0.0
C1524 C 0.44449 0.67652 0.45306 0.0
C1525 C 0.46845 0.70691 0.45403 0.0
C1526 C 0.48475 0.71735 0.46927 0.0
C1527 C 0.47788 0.69773 0.48302 0.0
H1528 H 0.28682 0.72942 0.4824 0.0
H1529 H 0.29759 0.81846 0.47404 0.0
H1530 H 0.26821 0.71492 0.45345 0.0
H1531 H 0.27949 0.80418 0.44511 0.0
H1532 H 0.21368 0.75791 0.4017 0.0
H1533 H 0.23141 0.7699 0.43086 0.0
H1534 H 0.28552 0.72663 0.42386 0.0
H1535 H 0.26738 0.71421 0.39474 0.0
C1536 C 0.28549 0.74596 0.47433 0.0
C1537 C 0.29358 0.77503 0.48047 0.0
C1538 C 0.27491 0.73769 0.45775 0.0
C1539 C 0.27215 0.75833 0.44705 0.0
C1540 C 0.28083 0.78759 0.45314 0.0
C1541 C 0.29143 0.79585 0.46967 0.0
C1542 C 0.22915 0.75073 0.40643 0.0
C1543 C 0.23921 0.73519 0.39595 0.0
C1544 C 0.23949 0.7578 0.42309 0.0
C1545 C 0.26009 0.74946 0.42961 0.0
C1546 C 0.26951 0.73319 0.41924 0.0
C1547 C 0.2592 0.72617 0.40256 0.0
H1548 H 0.24624 0.09146 0.14302 0.0
H1549 H 0.24003 0.17118 0.15529 0.0
H1550 H 0.29962 0.11808 0.15145 0.0
H1551 H 0.29341 0.19769 0.16403 0.0
H1552 H 0.39858 0.24157 0.16606 0.0
H1553 H 0.34675 0.21867 0.15498 0.0
H1554 H 0.3244 0.1336 0.17918 0.0
H1555 H 0.37627 0.15632 0.19001 0.0
C1556 C 0.25645 0.11487 0.14722 0.0
C1557 C 0.23894 0.12918 0.14861 0.0
C1558 C 0.28692 0.13 0.15224 0.0
C1559 C 0.3005 0.15972 0.15876 0.0
C1560 C 0.28356 0.17478 0.15907 0.0
C1561 C 0.25302 0.15962 0.15403 0.0
C1562 C 0.38247 0.21807 0.16915 0.0
C1563 C 0.39146 0.20068 0.17886 0.0
C1564 C 0.35282 0.20498 0.1628 0.0
C1565 C 0.33166 0.17422 0.16599 0.0
C1566 C 0.34042 0.15717 0.17618 0.0
C1567 C 0.37001 0.17026 0.18255 0.0
H1568 H 0.77671 0.06549 0.19303 0.0
H1569 H 0.86935 0.1339 0.20484 0.0
H1570 H 0.75833 0.09664 0.20632 0.0
H1571 H 0.85117 0.16562 0.21757 0.0
H1572 H 0.80991 0.20601 0.25182 0.0
H1573 H 0.82435 0.16946 0.24159 0.0
H1574 H 0.75726 0.14218 0.20174 0.0
H1575 H 0.74223 0.17758 0.2123 0.0
C1576 C 0.79316 0.08742 0.19824 0.0
C1577 C 0.82445 0.09737 0.19782 0.0
C1578 C 0.78266 0.10527 0.20588 0.0
C1579 C 0.80326 0.13359 0.21312 0.0
C1580 C 0.83462 0.14366 0.21246 0.0
C1581 C 0.84508 0.12568 0.20496 0.0
C1582 C 0.79786 0.19167 0.24112 0.0
C1583 C 0.77507 0.19473 0.23282 0.0
C1584 C 0.80634 0.171 0.23512 0.0
C1585 C 0.79224 0.15316 0.22069 0.0
C1586 C 0.76844 0.15529 0.21296 0.0
C1587 C 0.75989 0.17573 0.21899 0.0
H1588 H 0.87903 0.71289 0.14623 0.0
H1589 H 0.80686 0.72457 0.16727 0.0
H1590 H 0.85809 0.66368 0.16041 0.0
H1591 H 0.78643 0.67591 0.18175 0.0
H1592 H 0.74402 0.57431 0.1938 0.0
H1593 H 0.76196 0.62162 0.17821 0.0
H1594 H 0.85507 0.64672 0.18951 0.0
H1595 H 0.83706 0.59886 0.20476 0.0
C1596 C 0.85842 0.70471 0.15364 0.0
C1597 C 0.84463 0.72258 0.15569 0.0
C1598 C 0.84666 0.67674 0.16195 0.0
C1599 C 0.82092 0.66615 0.17245 0.0
C1600 C 0.80622 0.68333 0.17373 0.0
C1601 C 0.81793 0.71123 0.1654 0.0
C1602 C 0.76832 0.59012 0.19316 0.0
C1603 C 0.78917 0.58291 0.2005 0.0
C1604 C 0.77859 0.61723 0.1842 0.0
C1605 C 0.80995 0.63777 0.18243 0.0
C1606 C 0.83077 0.63104 0.19032 0.0
C1607 C 0.82048 0.60385 0.19926 0.0
H1608 H 0.32746 0.42426 0.34584 0.0
H1609 H 0.25739 0.4153 0.31133 0.0
H1610 H 0.30668 0.3692 0.34496 0.0
H1611 H 0.23602 0.3605 0.31089 0.0
H1612 H 0.2102 0.26403 0.30497 0.0
H1613 H 0.24174 0.31903 0.30246 0.0
H1614 H 0.26255 0.32504 0.35585 0.0
H1615 H 0.23193 0.26963 0.35812 0.0
C1616 C 0.30787 0.41055 0.33791 0.0
C1617 C 0.29396 0.42402 0.3287 0.0
C1618 C 0.2958 0.379 0.33751 0.0
C1619 C 0.26953 0.36033 0.32797 0.0
C1620 C 0.25652 0.37411 0.3182 0.0
C1621 C 0.26868 0.40558 0.31851 0.0
C1622 C 0.22186 0.27711 0.31612 0.0
C1623 C 0.21838 0.2627 0.33179 0.0
C1624 C 0.23982 0.30864 0.31471 0.0
C1625 C 0.25432 0.32657 0.32899 0.0
C1626 C 0.25195 0.31195 0.34454 0.0
C1627 C 0.23427 0.28024 0.34589 0.0
H1628 H 0.62931 0.86025 0.35679 0.0
H1629 H 0.59967 0.91577 0.38289 0.0
H1630 H 0.68173 0.89531 0.36538 0.0
H1631 H 0.6527 0.95142 0.39111 0.0
H1632 H 0.76509 0.01165 0.37292 0.0
H1633 H 0.70958 0.98415 0.36966 0.0
H1634 H 0.70326 0.91103 0.40044 0.0
H1635 H 0.75853 0.93856 0.40406 0.0
C1636 C 0.63406 0.88022 0.3641 0.0
C1637 C 0.61044 0.88529 0.36919 0.0
C1638 C 0.66396 0.90007 0.36911 0.0
C1639 C 0.67088 0.92563 0.37906 0.0
C1640 C 0.64765 0.93165 0.38354 0.0
C1641 C 0.6175 0.91138 0.37878 0.0
C1642 C 0.75174 0.99029 0.37956 0.0
C1643 C 0.76612 0.97706 0.38859 0.0
C1644 C 0.72007 0.97462 0.37767 0.0
C1645 C 0.70253 0.94549 0.38464 0.0
C1646 C 0.71655 0.93351 0.39493 0.0
C1647 C 0.74812 0.94934 0.39705 0.0
H1648 H 0.0553 0.80498 0.303 0.0
H1649 H 0.03575 0.78316 0.35598 0.0
H1650 H 0.08599 0.78035 0.30266 0.0
H1651 H 0.06727 0.75925 0.35581 0.0
H1652 H 0.11321 0.70345 0.34844 0.0
H1653 H 0.07425 0.71806 0.3456 0.0
H1654 H 0.13512 0.79381 0.31392 0.0
H1655 H 0.17358 0.77876 0.31642 0.0
C1656 C 0.0574 0.79469 0.31455 0.0
C1657 C 0.04342 0.79623 0.32957 0.0
C1658 C 0.07511 0.78072 0.31438 0.0
C1659 C 0.07944 0.7682 0.32925 0.0
C1660 C 0.06421 0.76845 0.34409 0.0
C1661 C 0.04628 0.78227 0.34423 0.0
C1662 C 0.11803 0.72294 0.34066 0.0
C1663 C 0.14645 0.74005 0.3327 0.0
C1664 C 0.0958 0.73142 0.33913 0.0
C1665 C 0.1016 0.75718 0.32961 0.0
C1666 C 0.1297 0.7736 0.32116 0.0
C1667 C 0.15185 0.76508 0.32266 0.0
H1668 H 0.68704 0.84952 0.79506 0.0
H1669 H 0.73424 0.93491 0.76805 0.0
H1670 H 0.6397 0.8378 0.78077 0.0
H1671 H 0.6864 0.92334 0.75401 0.0
H1672 H 0.57761 0.8936 0.75728 0.0
H1673 H 0.63053 0.91223 0.76565 0.0
H1674 H 0.62396 0.8289 0.74757 0.0
H1675 H 0.57134 0.81041 0.7389 0.0
C1676 C 0.68719 0.86596 0.78625 0.0
C1677 C 0.71424 0.89311 0.78266 0.0
C1678 C 0.66022 0.85911 0.77796 0.0
C1679 C 0.65971 0.8795 0.76613 0.0
C1680 C 0.68643 0.90721 0.76299 0.0
C1681 C 0.71363 0.91383 0.77106 0.0
C1682 C 0.58786 0.87979 0.75449 0.0
C1683 C 0.5703 0.85044 0.74761 0.0
C1684 C 0.61805 0.89042 0.75932 0.0
C1685 C 0.63088 0.87167 0.75752 0.0
C1686 C 0.61429 0.84355 0.74923 0.0
C1687 C 0.5843 0.83313 0.74415 0.0
H1688 H 0.10587 0.7041 0.79 0.0
H1689 H 0.16843 0.77206 0.82502 0.0
H1690 H 0.06779 0.71894 0.79652 0.0
H1691 H 0.13101 0.78713 0.83125 0.0
H1692 H 0.0537 0.79543 0.85009 0.0
H1693 H 0.08234 0.76925 0.84514 0.0
H1694 H 0.06065 0.76269 0.7919 0.0
H1695 H 0.03138 0.78807 0.79692 0.0
C1696 C 0.11149 0.72223 0.79901 0.0
C1697 C 0.1401 0.73697 0.80697 0.0
C1698 C 0.08974 0.7307 0.80276 0.0
C1699 C 0.09627 0.75396 0.81455 0.0
C1700 C 0.12495 0.76864 0.82242 0.0
C1701 C 0.14656 0.76023 0.81869 0.0
C1702 C 0.05449 0.78776 0.83741 0.0
C1703 C 0.04068 0.79414 0.82386 0.0
C1704 C 0.07105 0.77297 0.83454 0.0
C1705 C 0.07424 0.76443 0.81807 0.0
C1706 C 0.05856 0.76887 0.80473 0.0
C1707 C 0.0419 0.78355 0.80761 0.0
H1708 H 0.22613 0.40524 0.83865 0.0
H1709 H 0.27527 0.39015 0.79873 0.0
H1710 H 0.19422 0.35079 0.84253 0.0
H1711 H 0.24223 0.33503 0.80216 0.0
H1712 H 0.19361 0.23765 0.82295 0.0
H1713 H 0.22893 0.29242 0.82075 0.0
H1714 H 0.15402 0.30903 0.82841 0.0
H1715 H 0.11919 0.25465 0.83122 0.0
C1716 C 0.22995 0.3902 0.83058 0.0
C1717 C 0.25302 0.40192 0.81828 0.0
C1718 C 0.21152 0.35892 0.83277 0.0
C1719 C 0.21538 0.33846 0.82254 0.0
C1720 C 0.23882 0.35017 0.81035 0.0
C1721 C 0.2576 0.38167 0.8083 0.0
C1722 C 0.18486 0.25312 0.82437 0.0
C1723 C 0.15371 0.24195 0.82735 0.0
C1724 C 0.20501 0.28445 0.82294 0.0
C1725 C 0.19435 0.30516 0.82438 0.0
C1726 C 0.16317 0.29383 0.82753 0.0
C1727 C 0.14313 0.26261 0.82909 0.0
H1728 H 0.81833 0.5931 0.60068 0.0
H1729 H 0.85168 0.60833 0.65205 0.0
H1730 H 0.83882 0.64761 0.597 0.0
H1731 H 0.87098 0.66268 0.64872 0.0
H1732 H 0.91938 0.76156 0.63581 0.0
H1733 H 0.90712 0.70864 0.63572 0.0
H1734 H 0.82632 0.68445 0.60615 0.0
H1735 H 0.83952 0.73772 0.60562 0.0
C1736 C 0.83019 0.6082 0.61116 0.0
C1737 C 0.83333 0.59661 0.62668 0.0
C1738 C 0.84173 0.63938 0.6091 0.0
C1739 C 0.85626 0.65953 0.62261 0.0
C1740 C 0.86029 0.64791 0.63796 0.0
C1741 C 0.84911 0.61675 0.63993 0.0
C1742 C 0.89919 0.74492 0.62913 0.0
C1743 C 0.88025 0.75358 0.6208 0.0
C1744 C 0.89206 0.71458 0.62917 0.0
C1745 C 0.86558 0.6922 0.62108 0.0
C1746 C 0.84713 0.70112 0.61232 0.0
C1747 C 0.85453 0.73159 0.61208 0.0
H1748 H 0.4185 0.26761 0.70045 0.0
H1749 H 0.43841 0.20181 0.67807 0.0
H1750 H 0.36435 0.22947 0.70094 0.0
H1751 H 0.38464 0.16342 0.67913 0.0
H1752 H 0.28518 0.11802 0.66211 0.0
H1753 H 0.33964 0.15336 0.66438 0.0
H1754 H 0.32588 0.18264 0.71332 0.0
H1755 H 0.27113 0.14792 0.71072 0.0
C1756 C 0.41131 0.24487 0.69589 0.0
C1757 C 0.4325 0.23771 0.68907 0.0
C1758 C 0.38035 0.22296 0.69625 0.0
C1759 C 0.37015 0.19345 0.68995 0.0
C1760 C 0.39165 0.1861 0.68374 0.0
C1761 C 0.42246 0.20804 0.68322 0.0
C1762 C 0.29384 0.13183 0.67341 0.0
C1763 C 0.27398 0.13036 0.6862 0.0
C1764 C 0.32507 0.15198 0.67477 0.0
C1765 C 0.33713 0.17088 0.68904 0.0
C1766 C 0.31727 0.16875 0.70206 0.0
C1767 C 0.28597 0.14874 0.70062 0.0
H1768 H 0.76643 0.17283 0.63452 0.0
H1769 H 0.76285 0.15812 0.68849 0.0
H1770 H 0.80602 0.15925 0.63197 0.0
H1771 H 0.80322 0.14546 0.68605 0.0
H1772 H 0.85487 0.09615 0.67309 0.0
H1773 H 0.81367 0.1074 0.67536 0.0
H1774 H 0.85897 0.18011 0.63892 0.0
H1775 H 0.89981 0.16809 0.63625 0.0
C1776 C 0.77411 0.16663 0.64583 0.0
C1777 C 0.76163 0.16651 0.66171 0.0
C1778 C 0.79697 0.15912 0.64439 0.0
C1779 C 0.80797 0.15155 0.65882 0.0
C1780 C 0.79502 0.15088 0.67467 0.0
C1781 C 0.77197 0.15818 0.67609 0.0
C1782 C 0.85604 0.11456 0.66558 0.0
C1783 C 0.8805 0.13127 0.65448 0.0
C1784 C 0.83251 0.1211 0.66695 0.0
C1785 C 0.83303 0.14464 0.65734 0.0
C1786 C 0.85766 0.16151 0.64631 0.0
C1787 C 0.88114 0.1548 0.64485 0.0
H1788 H 0.0382 0.42788 0.51251 0.0
H1789 H 0.06453 0.46172 0.46157 0.0
H1790 H 0.98514 0.39839 0.50354 0.0
H1791 H 0.01176 0.43144 0.45242 0.0
H1792 H 0.9118 0.41105 0.45066 0.0
H1793 H 0.96613 0.43327 0.45576 0.0
H1794 H 0.94831 0.35631 0.48719 0.0
H1795 H 0.89377 0.33466 0.48254 0.0
C1796 C 0.03266 0.42864 0.49935 0.0
C1797 C 0.05536 0.44731 0.48779 0.0
C1798 C 0.00231 0.41155 0.49415 0.0
C1799 C -0.00585 0.41257 0.47723 0.0
C1800 C 0.01715 0.4305 0.46558 0.0
C1801 C 0.0474 0.44778 0.47082 0.0
C1802 C 0.91954 0.39855 0.45833 0.0
C1803 C 0.89858 0.37132 0.46635 0.0
C1804 C 0.95073 0.41124 0.46125 0.0
C1805 C 0.96158 0.3968 0.47212 0.0
C1806 C 0.94066 0.36838 0.47909 0.0
C1807 C 0.90945 0.35582 0.47629 0.0
H1808 H 0.57048 0.48821 0.53546 0.0
H1809 H 0.57828 0.50567 0.48172 0.0
H1810 H 0.54841 0.52083 0.53909 0.0
H1811 H 0.55765 0.5396 0.48539 0.0
H1812 H 0.47771 0.55519 0.49414 0.0
H1813 H 0.50859 0.5315 0.49079 0.0
H1814 H 0.55297 0.56983 0.53853 0.0
H1815 H 0.52073 0.59271 0.54219 0.0
C1816 C 0.56812 0.49964 0.52448 0.0
C1817 C 0.57563 0.49411 0.50827 0.0
C1818 C 0.55565 0.51852 0.52657 0.0
C1819 C 0.55084 0.53255 0.51251 0.0
C1820 C 0.56029 0.52852 0.49644 0.0
C1821 C 0.57228 0.50925 0.49433 0.0
C1822 C 0.49417 0.55875 0.5039 0.0
C1823 C 0.49672 0.57567 0.51847 0.0
C1824 C 0.51216 0.54539 0.50189 0.0
C1825 C 0.53349 0.54889 0.51432 0.0
C1826 C 0.53654 0.56641 0.52879 0.0
C1827 C 0.5182 0.5796 0.53088 0.0
H1828 H 0.42334 0.05633 0.53156 0.0
H1829 H 0.45378 0.02732 0.488 0.0
H1830 H 0.39156 0.00315 0.54029 0.0
H1831 H 0.42211 0.9744 0.49675 0.0
H1832 H 0.40432 0.8954 0.53051 0.0
H1833 H 0.42978 0.94899 0.52298 0.0
H1834 H 0.34591 0.94996 0.53051 0.0
H1835 H 0.32 0.89565 0.53806 0.0
C1836 C 0.42276 0.03857 0.52368 0.0
C1837 C 0.44126 0.04591 0.5092 0.0
C1838 C 0.40456 0.00822 0.52868 0.0
C1839 C 0.40488 0.98488 0.51934 0.0
C1840 C 0.42193 0.99212 0.50431 0.0
C1841 C 0.43987 0.02236 0.49925 0.0
C1842 C 0.39132 0.90706 0.53082 0.0
C1843 C 0.3601 0.8913 0.5347 0.0
C1844 C 0.40587 0.93767 0.52637 0.0
C1845 C 0.38958 0.95329 0.52576 0.0
C1846 C 0.35884 0.93823 0.53077 0.0
C1847 C 0.34412 0.90732 0.53516 0.0
H1848 H 0.52414 0.10719 0.95779 0.0
H1849 H 0.48452 0.06653 0.00603 0.0
H1850 H 0.5021 0.05632 0.94522 0.0
H1851 H 0.46264 0.01608 0.9935 0.0
H1852 H 0.46735 0.93556 0.97265 0.0
H1853 H 0.48842 0.98774 0.98238 0.0
H1854 H 0.44983 0.00805 0.93904 0.0
H1855 H 0.42856 0.95541 0.92916 0.0
C1856 C 0.51042 0.08744 0.96563 0.0
C1857 C 0.50624 0.09072 0.98291 0.0
C1858 C 0.49781 0.05843 0.95843 0.0
C1859 C 0.48111 0.03242 0.96848 0.0
C1860 C 0.4759 0.03582 0.98557 0.0
C1861 C 0.48828 0.06469 0.99271 0.0
C1862 C 0.46355 0.95116 0.96509 0.0
C1863 C 0.44611 0.94141 0.95023 0.0
C1864 C 0.47546 0.98096 0.97072 0.0
C1865 C 0.47029 0.00166 0.96158 0.0
C1866 C 0.45404 0.99241 0.9463 0.0
C1867 C 0.4419 0.96239 0.94068 0.0
H1868 H 0.92695 0.40417 0.01341 0.0
H1869 H 0.95348 0.44247 0.0635 0.0
H1870 H 0.97524 0.44392 0.00224 0.0
H1871 H 0.00263 0.48157 0.05251 0.0
H1872 H 0.06825 0.56831 0.02388 0.0
H1873 H 0.02181 0.52632 0.03585 0.0
H1874 H 0.02808 0.46405 1.00089 0.0
H1875 H 0.07342 0.50621 0.98847 0.0
C1876 C 0.9435 0.42066 0.0221 0.0
C1877 C 0.93649 0.42039 0.03928 0.0
C1878 C 0.97125 0.44345 0.01572 0.0
C1879 C -0.00724 0.46618 0.02645 0.0
C1880 C 0.9863 0.46487 0.04383 0.0
C1881 C 0.95832 0.44229 0.05017 0.0
C1882 C 0.05949 0.54564 0.01874 0.0
C1883 C 0.07418 0.5405 0.00518 0.0
C1884 C 0.03311 0.52151 0.0257 0.0
C1885 C 0.02122 0.49173 0.01937 0.0
C1886 C 0.03624 0.48672 0.00589 0.0
C1887 C 0.06228 0.51088 0.99879 0.0
H1888 H 0.52485 0.6083 0.01215 0.0
H1889 H 0.45256 0.51956 0.02762 0.0
H1890 H 0.56263 0.59506 0.02154 0.0
H1891 H 0.49023 0.50611 0.03668 0.0
H1892 H 0.5635 0.49459 0.06051 0.0
H1893 H 0.53083 0.51671 0.05682 0.0
H1894 H 0.57865 0.5601 0.01068 0.0
H1895 H 0.61169 0.5385 0.01458 0.0
C1896 C 0.51706 0.58609 0.01771 0.0
C1897 C 0.48581 0.56483 0.01904 0.0
C1898 C 0.53867 0.57848 0.02302 0.0
C1899 C 0.5294 0.54951 0.02974 0.0
C1900 C 0.49811 0.52876 0.03173 0.0
C1901 C 0.47652 0.53637 0.02644 0.0
C1902 C 0.56734 0.50927 0.04974 0.0
C1903 C 0.5899 0.51462 0.03773 0.0
C1904 C 0.54855 0.5218 0.04759 0.0
C1905 C 0.55198 0.53987 0.03338 0.0
C1906 C 0.57562 0.5465 0.02185 0.0
C1907 C 0.59445 0.534 0.02402 0.0
loop_
_geom_bond_atom_site_label_1
_geom_bond_atom_site_label_2
_geom_bond_distance
_geom_bond_site_symmetry_2
_ccdc_geom_bond_type
In0 O1 2.294 . S
In0 O2 2.326 . S
In0 O6 2.266 . S
In0 O7 2.326 . S
In0 O8 2.266 . S
In0 O9 2.326 . S
In0 O11 2.294 . S
In0 O12 2.326 . S
O1 In0 2.294 . S
O1 C10 1.240 . S
O2 In0 2.326 . S
O2 C10 1.252 . S
C3 O6 1.252 . S
C3 O7 1.260 . S
C4 O11 1.240 . S
C4 O12 1.252 . S
C5 O8 1.252 . S
C5 O9 1.260 . S
O6 In0 2.266 . S
O6 C3 1.252 . S
O7 In0 2.326 . S
O7 C3 1.260 . S
O8 In0 2.266 . S
O8 C5 1.252 . S
O9 In0 2.326 . S
O9 C5 1.260 . S
C10 O1 1.240 . S
C10 O2 1.252 . S
O11 In0 2.294 . S
O11 C4 1.240 . S
O12 In0 2.326 . S
O12 C4 1.252 . S
In13 O14 2.294 . S
In13 O15 2.326 . S
In13 O19 2.266 1_545 S
In13 O20 2.326 1_545 S
In13 O21 2.266 . S
In13 O22 2.326 . S
In13 O24 2.294 . S
In13 O25 2.326 . S
O14 In13 2.294 . S
O14 C23 1.240 . S
O15 In13 2.326 . S
O15 C23 1.252 . S
C16 O19 1.252 . S
C16 O20 1.260 . S
C17 O24 1.240 . S
C17 O25 1.252 . S
C18 O21 1.252 . S
C18 O22 1.260 . S
O19 In13 2.266 1_565 S
O19 C16 1.252 . S
O20 In13 2.326 1_565 S
O20 C16 1.260 . S
O21 In13 2.266 . S
O21 C18 1.252 . S
O22 In13 2.326 . S
O22 C18 1.260 . S
C23 O14 1.240 . S
C23 O15 1.252 . S
O24 In13 2.294 . S
O24 C17 1.240 . S
O25 In13 2.326 . S
O25 C17 1.252 . S
In26 O27 2.294 . S
In26 O28 2.326 . S
In26 O32 2.266 . S
In26 O33 2.326 . S
In26 O34 2.266 1_655 S
In26 O35 2.326 1_655 S
In26 O37 2.294 . S
In26 O38 2.326 . S
O27 In26 2.294 . S
O27 C36 1.240 . S
O28 In26 2.326 . S
O28 C36 1.252 . S
C29 O32 1.252 . S
C29 O33 1.260 . S
C30 O37 1.240 . S
C30 O38 1.252 . S
C31 O34 1.252 . S
C31 O35 1.260 . S
O32 In26 2.266 . S
O32 C29 1.252 . S
O33 In26 2.326 . S
O33 C29 1.260 . S
O34 In26 2.266 1_455 S
O34 C31 1.252 . S
O35 In26 2.326 1_455 S
O35 C31 1.260 . S
C36 O27 1.240 . S
C36 O28 1.252 . S
O37 In26 2.294 . S
O37 C30 1.240 . S
O38 In26 2.326 . S
O38 C30 1.252 . S
In39 O40 2.294 . S
In39 O41 2.326 . S
In39 O45 2.266 . S
In39 O46 2.326 . S
In39 O47 2.266 . S
In39 O48 2.326 . S
In39 O50 2.294 . S
In39 O51 2.326 . S
O40 In39 2.294 . S
O40 C49 1.240 . S
O41 In39 2.326 . S
O41 C49 1.252 . S
C42 O45 1.252 . S
C42 O46 1.260 . S
C43 O50 1.240 . S
C43 O51 1.252 . S
C44 O47 1.252 . S
C44 O48 1.260 . S
O45 In39 2.266 . S
O45 C42 1.252 . S
O46 In39 2.326 . S
O46 C42 1.260 . S
O47 In39 2.266 . S
O47 C44 1.252 . S
O48 In39 2.326 . S
O48 C44 1.260 . S
C49 O40 1.240 . S
C49 O41 1.252 . S
O50 In39 2.294 . S
O50 C43 1.240 . S
O51 In39 2.326 . S
O51 C43 1.252 . S
In52 O53 2.294 . S
In52 O54 2.326 . S
In52 O58 2.266 . S
In52 O59 2.326 . S
In52 O60 2.266 1_565 S
In52 O61 2.326 1_565 S
In52 O63 2.294 . S
In52 O64 2.326 . S
O53 In52 2.294 . S
O53 C62 1.240 . S
O54 In52 2.326 . S
O54 C62 1.252 . S
C55 O58 1.252 . S
C55 O59 1.260 . S
C56 O63 1.240 . S
C56 O64 1.252 . S
C57 O60 1.252 . S
C57 O61 1.260 . S
O58 In52 2.266 . S
O58 C55 1.252 . S
O59 In52 2.326 . S
O59 C55 1.260 . S
O60 In52 2.266 1_545 S
O60 C57 1.252 . S
O61 In52 2.326 1_545 S
O61 C57 1.260 . S
C62 O53 1.240 . S
C62 O54 1.252 . S
O63 In52 2.294 . S
O63 C56 1.240 . S
O64 In52 2.326 . S
O64 C56 1.252 . S
In65 O66 2.294 . S
In65 O67 2.326 . S
In65 O71 2.266 . S
In65 O72 2.326 . S
In65 O73 2.266 1_455 S
In65 O74 2.326 1_455 S
In65 O76 2.294 . S
In65 O77 2.326 . S
O66 In65 2.294 . S
O66 C75 1.240 . S
O67 In65 2.326 . S
O67 C75 1.252 . S
C68 O71 1.252 . S
C68 O72 1.260 . S
C69 O76 1.240 . S
C69 O77 1.252 . S
C70 O73 1.252 . S
C70 O74 1.260 . S
O71 In65 2.266 . S
O71 C68 1.252 . S
O72 In65 2.326 . S
O72 C68 1.260 . S
O73 In65 2.266 1_655 S
O73 C70 1.252 . S
O74 In65 2.326 1_655 S
O74 C70 1.260 . S
C75 O66 1.240 . S
C75 O67 1.252 . S
O76 In65 2.294 . S
O76 C69 1.240 . S
O77 In65 2.326 . S
O77 C69 1.252 . S
In78 O79 2.294 . S
In78 O80 2.326 . S
In78 O84 2.266 . S
In78 O85 2.326 . S
In78 O86 2.266 . S
In78 O87 2.326 . S
In78 O89 2.294 . S
In78 O90 2.326 . S
O79 In78 2.294 . S
O79 C88 1.240 . S
O80 In78 2.326 . S
O80 C88 1.252 . S
C81 O84 1.252 . S
C81 O85 1.260 . S
C82 O89 1.240 . S
C82 O90 1.252 . S
C83 O86 1.252 . S
C83 O87 1.260 . S
O84 In78 2.266 . S
O84 C81 1.252 . S
O85 In78 2.326 . S
O85 C81 1.260 . S
O86 In78 2.266 . S
O86 C83 1.252 . S
O87 In78 2.326 . S
O87 C83 1.260 . S
C88 O79 1.240 . S
C88 O80 1.252 . S
O89 In78 2.294 . S
O89 C82 1.240 . S
O90 In78 2.326 . S
O90 C82 1.252 . S
In91 O92 2.294 . S
In91 O93 2.326 . S
In91 O97 2.266 . S
In91 O98 2.326 . S
In91 O99 2.266 1_565 S
In91 O100 2.326 1_565 S
In91 O102 2.294 . S
In91 O103 2.326 . S
O92 In91 2.294 . S
O92 C101 1.240 . S
O93 In91 2.326 . S
O93 C101 1.252 . S
C94 O97 1.252 . S
C94 O98 1.260 . S
C95 O102 1.240 . S
C95 O103 1.252 . S
C96 O99 1.252 . S
C96 O100 1.260 . S
O97 In91 2.266 . S
O97 C94 1.252 . S
O98 In91 2.326 . S
O98 C94 1.260 . S
O99 In91 2.266 1_545 S
O99 C96 1.252 . S
O100 In91 2.326 1_545 S
O100 C96 1.260 . S
C101 O92 1.240 . S
C101 O93 1.252 . S
O102 In91 2.294 . S
O102 C95 1.240 . S
O103 In91 2.326 . S
O103 C95 1.252 . S
In104 O105 2.294 . S
In104 O106 2.326 . S
In104 O110 2.266 . S
In104 O111 2.326 . S
In104 O112 2.266 1_455 S
In104 O113 2.326 1_455 S
In104 O115 2.294 . S
In104 O116 2.326 . S
O105 In104 2.294 . S
O105 C114 1.240 . S
O106 In104 2.326 . S
O106 C114 1.252 . S
C107 O110 1.252 . S
C107 O111 1.260 . S
C108 O115 1.240 . S
C108 O116 1.252 . S
C109 O112 1.252 . S
C109 O113 1.260 . S
O110 In104 2.266 . S
O110 C107 1.252 . S
O111 In104 2.326 . S
O111 C107 1.260 . S
O112 In104 2.266 1_655 S
O112 C109 1.252 . S
O113 In104 2.326 1_655 S
O113 C109 1.260 . S
C114 O105 1.240 . S
C114 O106 1.252 . S
O115 In104 2.294 . S
O115 C108 1.240 . S
O116 In104 2.326 . S
O116 C108 1.252 . S
In117 O118 2.294 . S
In117 O119 2.326 . S
In117 O123 2.266 . S
In117 O124 2.326 . S
In117 O125 2.266 . S
In117 O126 2.326 . S
In117 O128 2.294 . S
In117 O129 2.326 . S
O118 In117 2.294 . S
O118 C127 1.240 . S
O119 In117 2.326 . S
O119 C127 1.252 . S
C120 O123 1.252 . S
C120 O124 1.260 . S
C121 O128 1.240 . S
C121 O129 1.252 . S
C122 O125 1.252 . S
C122 O126 1.260 . S
O123 In117 2.266 . S
O123 C120 1.252 . S
O124 In117 2.326 . S
O124 C120 1.260 . S
O125 In117 2.266 . S
O125 C122 1.252 . S
O126 In117 2.326 . S
O126 C122 1.260 . S
C127 O118 1.240 . S
C127 O119 1.252 . S
O128 In117 2.294 . S
O128 C121 1.240 . S
O129 In117 2.326 . S
O129 C121 1.252 . S
In130 O131 2.294 . S
In130 O132 2.326 . S
In130 O136 2.266 . S
In130 O137 2.326 . S
In130 O138 2.266 1_545 S
In130 O139 2.326 1_545 S
In130 O141 2.294 . S
In130 O142 2.326 . S
O131 In130 2.294 . S
O131 C140 1.240 . S
O132 In130 2.326 . S
O132 C140 1.252 . S
C133 O136 1.252 . S
C133 O137 1.260 . S
C134 O141 1.240 . S
C134 O142 1.252 . S
C135 O138 1.252 . S
C135 O139 1.260 . S
O136 In130 2.266 . S
O136 C133 1.252 . S
O137 In130 2.326 . S
O137 C133 1.260 . S
O138 In130 2.266 1_565 S
O138 C135 1.252 . S
O139 In130 2.326 1_565 S
O139 C135 1.260 . S
C140 O131 1.240 . S
C140 O132 1.252 . S
O141 In130 2.294 . S
O141 C134 1.240 . S
O142 In130 2.326 . S
O142 C134 1.252 . S
In143 O144 2.294 . S
In143 O145 2.326 . S
In143 O149 2.266 . S
In143 O150 2.326 . S
In143 O151 2.266 1_655 S
In143 O152 2.326 1_655 S
In143 O154 2.294 . S
In143 O155 2.326 . S
O144 In143 2.294 . S
O144 C153 1.240 . S
O145 In143 2.326 . S
O145 C153 1.252 . S
C146 O149 1.252 . S
C146 O150 1.260 . S
C147 O154 1.240 . S
C147 O155 1.252 . S
C148 O151 1.252 . S
C148 O152 1.260 . S
O149 In143 2.266 . S
O149 C146 1.252 . S
O150 In143 2.326 . S
O150 C146 1.260 . S
O151 In143 2.266 1_455 S
O151 C148 1.252 . S
O152 In143 2.326 1_455 S
O152 C148 1.260 . S
C153 O144 1.240 . S
C153 O145 1.252 . S
O154 In143 2.294 . S
O154 C147 1.240 . S
O155 In143 2.326 . S
O155 C147 1.252 . S
In156 O157 2.294 . S
In156 O158 2.326 . S
In156 O162 2.266 . S
In156 O163 2.326 . S
In156 O164 2.266 . S
In156 O165 2.326 . S
In156 O167 2.294 . S
In156 O168 2.326 . S
O157 In156 2.294 . S
O157 C166 1.240 . S
O158 In156 2.326 . S
O158 C166 1.252 . S
C159 O162 1.252 . S
C159 O163 1.260 . S
C160 O167 1.240 . S
C160 O168 1.252 . S
C161 O164 1.252 . S
C161 O165 1.260 . S
O162 In156 2.266 . S
O162 C159 1.252 . S
O163 In156 2.326 . S
O163 C159 1.260 . S
O164 In156 2.266 . S
O164 C161 1.252 . S
O165 In156 2.326 . S
O165 C161 1.260 . S
C166 O157 1.240 . S
C166 O158 1.252 . S
O167 In156 2.294 . S
O167 C160 1.240 . S
O168 In156 2.326 . S
O168 C160 1.252 . S
In169 O170 2.294 . S
In169 O171 2.326 . S
In169 O175 2.266 . S
In169 O176 2.326 . S
In169 O177 2.266 . S
In169 O178 2.326 . S
In169 O180 2.294 . S
In169 O181 2.326 . S
O170 In169 2.294 . S
O170 C179 1.240 . S
O171 In169 2.326 . S
O171 C179 1.252 . S
C172 O175 1.252 . S
C172 O176 1.260 . S
C173 O180 1.240 . S
C173 O181 1.252 . S
C174 O177 1.252 . S
C174 O178 1.260 . S
O175 In169 2.266 . S
O175 C172 1.252 . S
O176 In169 2.326 . S
O176 C172 1.260 . S
O177 In169 2.266 . S
O177 C174 1.252 . S
O178 In169 2.326 . S
O178 C174 1.260 . S
C179 O170 1.240 . S
C179 O171 1.252 . S
O180 In169 2.294 . S
O180 C173 1.240 . S
O181 In169 2.326 . S
O181 C173 1.252 . S
In182 O183 2.294 . S
In182 O184 2.326 . S
In182 O188 2.266 . S
In182 O189 2.326 . S
In182 O190 2.266 . S
In182 O191 2.326 . S
In182 O193 2.294 . S
In182 O194 2.326 . S
O183 In182 2.294 . S
O183 C192 1.240 . S
O184 In182 2.326 . S
O184 C192 1.252 . S
C185 O188 1.252 . S
C185 O189 1.260 . S
C186 O193 1.240 . S
C186 O194 1.252 . S
C187 O190 1.252 . S
C187 O191 1.260 . S
O188 In182 2.266 . S
O188 C185 1.252 . S
O189 In182 2.326 . S
O189 C185 1.260 . S
O190 In182 2.266 . S
O190 C187 1.252 . S
O191 In182 2.326 . S
O191 C187 1.260 . S
C192 O183 1.240 . S
C192 O184 1.252 . S
O193 In182 2.294 . S
O193 C186 1.240 . S
O194 In182 2.326 . S
O194 C186 1.252 . S
In195 O196 2.294 . S
In195 O197 2.326 . S
In195 O201 2.266 . S
In195 O202 2.326 . S
In195 O203 2.266 . S
In195 O204 2.326 . S
In195 O206 2.294 . S
In195 O207 2.326 . S
O196 In195 2.294 . S
O196 C205 1.240 . S
O197 In195 2.326 . S
O197 C205 1.252 . S
C198 O201 1.252 . S
C198 O202 1.260 . S
C199 O206 1.240 . S
C199 O207 1.252 . S
C200 O203 1.252 . S
C200 O204 1.260 . S
O201 In195 2.266 . S
O201 C198 1.252 . S
O202 In195 2.326 . S
O202 C198 1.260 . S
O203 In195 2.266 . S
O203 C200 1.252 . S
O204 In195 2.326 . S
O204 C200 1.260 . S
C205 O196 1.240 . S
C205 O197 1.252 . S
O206 In195 2.294 . S
O206 C199 1.240 . S
O207 In195 2.326 . S
O207 C199 1.252 . S
In208 O209 2.294 . S
In208 O210 2.326 . S
In208 O214 2.266 . S
In208 O215 2.326 . S
In208 O216 2.266 . S
In208 O217 2.326 . S
In208 O219 2.294 . S
In208 O220 2.326 . S
O209 In208 2.294 . S
O209 C218 1.240 . S
O210 In208 2.326 . S
O210 C218 1.252 . S
C211 O214 1.252 . S
C211 O215 1.260 . S
C212 O219 1.240 . S
C212 O220 1.252 . S
C213 O216 1.252 . S
C213 O217 1.260 . S
O214 In208 2.266 . S
O214 C211 1.252 . S
O215 In208 2.326 . S
O215 C211 1.260 . S
O216 In208 2.266 . S
O216 C213 1.252 . S
O217 In208 2.326 . S
O217 C213 1.260 . S
C218 O209 1.240 . S
C218 O210 1.252 . S
O219 In208 2.294 . S
O219 C212 1.240 . S
O220 In208 2.326 . S
O220 C212 1.252 . S
In221 O222 2.294 . S
In221 O223 2.326 . S
In221 O227 2.266 . S
In221 O228 2.326 . S
In221 O229 2.266 . S
In221 O230 2.326 . S
In221 O232 2.294 . S
In221 O233 2.326 . S
O222 In221 2.294 . S
O222 C231 1.240 . S
O223 In221 2.326 . S
O223 C231 1.252 . S
C224 O227 1.252 . S
C224 O228 1.260 . S
C225 O232 1.240 . S
C225 O233 1.252 . S
C226 O229 1.252 . S
C226 O230 1.260 . S
O227 In221 2.266 . S
O227 C224 1.252 . S
O228 In221 2.326 . S
O228 C224 1.260 . S
O229 In221 2.266 . S
O229 C226 1.252 . S
O230 In221 2.326 . S
O230 C226 1.260 . S
C231 O222 1.240 . S
C231 O223 1.252 . S
O232 In221 2.294 . S
O232 C225 1.240 . S
O233 In221 2.326 . S
O233 C225 1.252 . S
In234 O235 2.294 . S
In234 O236 2.326 . S
In234 O240 2.266 . S
In234 O241 2.326 . S
In234 O242 2.266 . S
In234 O243 2.326 . S
In234 O245 2.294 . S
In234 O246 2.326 . S
O235 In234 2.294 . S
O235 C244 1.240 . S
O236 In234 2.326 . S
O236 C244 1.252 . S
C237 O240 1.252 . S
C237 O241 1.260 . S
C238 O245 1.240 . S
C238 O246 1.252 . S
C239 O242 1.252 . S
C239 O243 1.260 . S
O240 In234 2.266 . S
O240 C237 1.252 . S
O241 In234 2.326 . S
O241 C237 1.260 . S
O242 In234 2.266 . S
O242 C239 1.252 . S
O243 In234 2.326 . S
O243 C239 1.260 . S
C244 O235 1.240 . S
C244 O236 1.252 . S
O245 In234 2.294 . S
O245 C238 1.240 . S
O246 In234 2.326 . S
O246 C238 1.252 . S
In247 O248 2.294 . S
In247 O249 2.326 . S
In247 O253 2.266 . S
In247 O254 2.326 . S
In247 O255 2.266 . S
In247 O256 2.326 . S
In247 O258 2.294 . S
In247 O259 2.326 . S
O248 In247 2.294 . S
O248 C257 1.240 . S
O249 In247 2.326 . S
O249 C257 1.252 . S
C250 O253 1.252 . S
C250 O254 1.260 . S
C251 O258 1.240 . S
C251 O259 1.252 . S
C252 O255 1.252 . S
C252 O256 1.260 . S
O253 In247 2.266 . S
O253 C250 1.252 . S
O254 In247 2.326 . S
O254 C250 1.260 . S
O255 In247 2.266 . S
O255 C252 1.252 . S
O256 In247 2.326 . S
O256 C252 1.260 . S
C257 O248 1.240 . S
C257 O249 1.252 . S
O258 In247 2.294 . S
O258 C251 1.240 . S
O259 In247 2.326 . S
O259 C251 1.252 . S
In260 O261 2.294 . S
In260 O262 2.326 . S
In260 O266 2.266 . S
In260 O267 2.326 . S
In260 O268 2.266 . S
In260 O269 2.326 . S
In260 O271 2.294 . S
In260 O272 2.326 . S
O261 In260 2.294 . S
O261 C270 1.240 . S
O262 In260 2.326 . S
O262 C270 1.252 . S
C263 O266 1.252 . S
C263 O267 1.260 . S
C264 O271 1.240 . S
C264 O272 1.252 . S
C265 O268 1.252 . S
C265 O269 1.260 . S
O266 In260 2.266 . S
O266 C263 1.252 . S
O267 In260 2.326 . S
O267 C263 1.260 . S
O268 In260 2.266 . S
O268 C265 1.252 . S
O269 In260 2.326 . S
O269 C265 1.260 . S
C270 O261 1.240 . S
C270 O262 1.252 . S
O271 In260 2.294 . S
O271 C264 1.240 . S
O272 In260 2.326 . S
O272 C264 1.252 . S
In273 O274 2.293 1_554 S
In273 O275 2.327 . S
In273 O279 2.265 1_554 S
In273 O280 2.326 . S
In273 O281 2.267 . S
In273 O282 2.324 1_554 S
In273 O284 2.296 . S
In273 O285 2.328 . S
O274 In273 2.293 1_556 S
O274 C283 1.240 . S
O275 In273 2.327 . S
O275 C283 1.252 1_554 S
C276 O279 1.252 . S
C276 O280 1.260 1_556 S
C277 O284 1.240 . S
C277 O285 1.252 . S
C278 O281 1.252 1_556 S
C278 O282 1.260 . S
O279 In273 2.265 1_556 S
O279 C276 1.252 . S
O280 In273 2.326 . S
O280 C276 1.260 1_554 S
O281 In273 2.267 . S
O281 C278 1.252 1_554 S
O282 In273 2.324 1_556 S
O282 C278 1.260 . S
C283 O274 1.240 . S
C283 O275 1.252 1_556 S
O284 In273 2.296 . S
O284 C277 1.240 . S
O285 In273 2.328 . S
O285 C277 1.252 . S
In286 O287 2.293 1_554 S
In286 O288 2.327 . S
In286 O292 2.265 1_554 S
In286 O293 2.326 . S
In286 O294 2.267 . S
In286 O295 2.324 1_554 S
In286 O297 2.296 . S
In286 O298 2.328 . S
O287 In286 2.293 1_556 S
O287 C296 1.240 . S
O288 In286 2.327 . S
O288 C296 1.252 1_554 S
C289 O292 1.252 . S
C289 O293 1.260 1_556 S
C290 O297 1.240 . S
C290 O298 1.252 . S
C291 O294 1.252 1_556 S
C291 O295 1.260 . S
O292 In286 2.265 1_556 S
O292 C289 1.252 . S
O293 In286 2.326 . S
O293 C289 1.260 1_554 S
O294 In286 2.267 . S
O294 C291 1.252 1_554 S
O295 In286 2.324 1_556 S
O295 C291 1.260 . S
C296 O287 1.240 . S
C296 O288 1.252 1_556 S
O297 In286 2.296 . S
O297 C290 1.240 . S
O298 In286 2.328 . S
O298 C290 1.252 . S
In299 O300 2.296 . S
In299 O301 2.328 . S
In299 O305 2.267 . S
In299 O306 2.324 1_554 S
In299 O307 2.265 1_554 S
In299 O308 2.326 . S
In299 O310 2.293 1_554 S
In299 O311 2.327 . S
O300 In299 2.296 . S
O300 C309 1.240 . S
O301 In299 2.328 . S
O301 C309 1.252 . S
C302 O305 1.252 1_556 S
C302 O306 1.260 . S
C303 O310 1.240 . S
C303 O311 1.252 1_556 S
C304 O307 1.252 . S
C304 O308 1.260 1_556 S
O305 In299 2.267 . S
O305 C302 1.252 1_554 S
O306 In299 2.324 1_556 S
O306 C302 1.260 . S
O307 In299 2.265 1_556 S
O307 C304 1.252 . S
O308 In299 2.326 . S
O308 C304 1.260 1_554 S
C309 O300 1.240 . S
C309 O301 1.252 . S
O310 In299 2.293 1_556 S
O310 C303 1.240 . S
O311 In299 2.327 . S
O311 C303 1.252 1_554 S
In312 O313 2.294 . S
In312 O314 2.326 . S
In312 O318 2.266 . S
In312 O319 2.326 . S
In312 O320 2.266 . S
In312 O321 2.326 . S
In312 O323 2.294 . S
In312 O324 2.326 . S
O313 In312 2.294 . S
O313 C322 1.240 . S
O314 In312 2.326 . S
O314 C322 1.252 . S
C315 O318 1.252 . S
C315 O319 1.260 . S
C316 O323 1.240 . S
C316 O324 1.252 . S
C317 O320 1.252 . S
C317 O321 1.260 . S
O318 In312 2.266 . S
O318 C315 1.252 . S
O319 In312 2.326 . S
O319 C315 1.260 . S
O320 In312 2.266 . S
O320 C317 1.252 . S
O321 In312 2.326 . S
O321 C317 1.260 . S
C322 O313 1.240 . S
C322 O314 1.252 . S
O323 In312 2.294 . S
O323 C316 1.240 . S
O324 In312 2.326 . S
O324 C316 1.252 . S
In325 O326 2.294 . S
In325 O327 2.326 . S
In325 O331 2.266 . S
In325 O332 2.326 . S
In325 O333 2.266 . S
In325 O334 2.326 . S
In325 O336 2.294 . S
In325 O337 2.326 . S
O326 In325 2.294 . S
O326 C335 1.240 . S
O327 In325 2.326 . S
O327 C335 1.252 . S
C328 O331 1.252 . S
C328 O332 1.260 . S
C329 O336 1.240 . S
C329 O337 1.252 . S
C330 O333 1.252 . S
C330 O334 1.260 . S
O331 In325 2.266 . S
O331 C328 1.252 . S
O332 In325 2.326 . S
O332 C328 1.260 . S
O333 In325 2.266 . S
O333 C330 1.252 . S
O334 In325 2.326 . S
O334 C330 1.260 . S
C335 O326 1.240 . S
C335 O327 1.252 . S
O336 In325 2.294 . S
O336 C329 1.240 . S
O337 In325 2.326 . S
O337 C329 1.252 . S
In338 O339 2.294 . S
In338 O340 2.326 . S
In338 O344 2.266 . S
In338 O345 2.326 . S
In338 O346 2.266 . S
In338 O347 2.326 . S
In338 O349 2.294 . S
In338 O350 2.326 . S
O339 In338 2.294 . S
O339 C348 1.240 . S
O340 In338 2.326 . S
O340 C348 1.252 . S
C341 O344 1.252 . S
C341 O345 1.260 . S
C342 O349 1.240 . S
C342 O350 1.252 . S
C343 O346 1.252 . S
C343 O347 1.260 . S
O344 In338 2.266 . S
O344 C341 1.252 . S
O345 In338 2.326 . S
O345 C341 1.260 . S
O346 In338 2.266 . S
O346 C343 1.252 . S
O347 In338 2.326 . S
O347 C343 1.260 . S
C348 O339 1.240 . S
C348 O340 1.252 . S
O349 In338 2.294 . S
O349 C342 1.240 . S
O350 In338 2.326 . S
O350 C342 1.252 . S
In351 O352 2.293 1_556 S
In351 O353 2.327 . S
In351 O357 2.265 1_556 S
In351 O358 2.326 . S
In351 O359 2.267 . S
In351 O360 2.324 1_556 S
In351 O362 2.296 . S
In351 O363 2.328 . S
O352 In351 2.293 1_554 S
O352 C361 1.240 . S
O353 In351 2.327 . S
O353 C361 1.252 1_556 S
C354 O357 1.252 . S
C354 O358 1.260 1_554 S
C355 O362 1.240 . S
C355 O363 1.252 . S
C356 O359 1.252 1_554 S
C356 O360 1.260 . S
O357 In351 2.265 1_554 S
O357 C354 1.252 . S
O358 In351 2.326 . S
O358 C354 1.260 1_556 S
O359 In351 2.267 . S
O359 C356 1.252 1_556 S
O360 In351 2.324 1_554 S
O360 C356 1.260 . S
C361 O352 1.240 . S
C361 O353 1.252 1_554 S
O362 In351 2.296 . S
O362 C355 1.240 . S
O363 In351 2.328 . S
O363 C355 1.252 . S
In364 O365 2.293 1_556 S
In364 O366 2.327 . S
In364 O370 2.265 1_556 S
In364 O371 2.326 . S
In364 O372 2.267 . S
In364 O373 2.324 1_556 S
In364 O375 2.296 . S
In364 O376 2.328 . S
O365 In364 2.293 1_554 S
O365 C374 1.240 . S
O366 In364 2.327 . S
O366 C374 1.252 1_556 S
C367 O370 1.252 . S
C367 O371 1.260 1_554 S
C368 O375 1.240 . S
C368 O376 1.252 . S
C369 O372 1.252 1_554 S
C369 O373 1.260 . S
O370 In364 2.265 1_554 S
O370 C367 1.252 . S
O371 In364 2.326 . S
O371 C367 1.260 1_556 S
O372 In364 2.267 . S
O372 C369 1.252 1_556 S
O373 In364 2.324 1_554 S
O373 C369 1.260 . S
C374 O365 1.240 . S
C374 O366 1.252 1_554 S
O375 In364 2.296 . S
O375 C368 1.240 . S
O376 In364 2.328 . S
O376 C368 1.252 . S
In377 O378 2.293 1_556 S
In377 O379 2.327 . S
In377 O383 2.265 1_556 S
In377 O384 2.326 . S
In377 O385 2.267 . S
In377 O386 2.324 1_556 S
In377 O388 2.296 . S
In377 O389 2.328 . S
O378 In377 2.293 1_554 S
O378 C387 1.240 . S
O379 In377 2.327 . S
O379 C387 1.252 1_556 S
C380 O383 1.252 . S
C380 O384 1.260 1_554 S
C381 O388 1.240 . S
C381 O389 1.252 . S
C382 O385 1.252 1_554 S
C382 O386 1.260 . S
O383 In377 2.265 1_554 S
O383 C380 1.252 . S
O384 In377 2.326 . S
O384 C380 1.260 1_556 S
O385 In377 2.267 . S
O385 C382 1.252 1_556 S
O386 In377 2.324 1_554 S
O386 C382 1.260 . S
C387 O378 1.240 . S
C387 O379 1.252 1_554 S
O388 In377 2.296 . S
O388 C381 1.240 . S
O389 In377 2.328 . S
O389 C381 1.252 . S
In390 O391 2.294 . S
In390 O392 2.326 . S
In390 O396 2.266 . S
In390 O397 2.326 . S
In390 O398 2.266 . S
In390 O399 2.326 . S
In390 O401 2.294 . S
In390 O402 2.326 . S
O391 In390 2.294 . S
O391 C400 1.240 . S
O392 In390 2.326 . S
O392 C400 1.252 . S
C393 O396 1.252 . S
C393 O397 1.260 . S
C394 O401 1.240 . S
C394 O402 1.252 . S
C395 O398 1.252 . S
C395 O399 1.260 . S
O396 In390 2.266 . S
O396 C393 1.252 . S
O397 In390 2.326 . S
O397 C393 1.260 . S
O398 In390 2.266 . S
O398 C395 1.252 . S
O399 In390 2.326 . S
O399 C395 1.260 . S
C400 O391 1.240 . S
C400 O392 1.252 . S
O401 In390 2.294 . S
O401 C394 1.240 . S
O402 In390 2.326 . S
O402 C394 1.252 . S
In403 O404 2.294 . S
In403 O405 2.326 . S
In403 O409 2.266 . S
In403 O410 2.326 . S
In403 O411 2.266 . S
In403 O412 2.326 . S
In403 O414 2.294 . S
In403 O415 2.326 . S
O404 In403 2.294 . S
O404 C413 1.240 . S
O405 In403 2.326 . S
O405 C413 1.252 . S
C406 O409 1.252 . S
C406 O410 1.260 . S
C407 O414 1.240 . S
C407 O415 1.252 . S
C408 O411 1.252 . S
C408 O412 1.260 . S
O409 In403 2.266 . S
O409 C406 1.252 . S
O410 In403 2.326 . S
O410 C406 1.260 . S
O411 In403 2.266 . S
O411 C408 1.252 . S
O412 In403 2.326 . S
O412 C408 1.260 . S
C413 O404 1.240 . S
C413 O405 1.252 . S
O414 In403 2.294 . S
O414 C407 1.240 . S
O415 In403 2.326 . S
O415 C407 1.252 . S
In416 O417 2.294 . S
In416 O418 2.326 . S
In416 O422 2.266 . S
In416 O423 2.326 . S
In416 O424 2.266 . S
In416 O425 2.326 . S
In416 O427 2.294 . S
In416 O428 2.326 . S
O417 In416 2.294 . S
O417 C426 1.240 . S
O418 In416 2.326 . S
O418 C426 1.252 . S
C419 O422 1.252 . S
C419 O423 1.260 . S
C420 O427 1.240 . S
C420 O428 1.252 . S
C421 O424 1.252 . S
C421 O425 1.260 . S
O422 In416 2.266 . S
O422 C419 1.252 . S
O423 In416 2.326 . S
O423 C419 1.260 . S
O424 In416 2.266 . S
O424 C421 1.252 . S
O425 In416 2.326 . S
O425 C421 1.260 . S
C426 O417 1.240 . S
C426 O418 1.252 . S
O427 In416 2.294 . S
O427 C420 1.240 . S
O428 In416 2.326 . S
O428 C420 1.252 . S
In429 O430 2.294 . S
In429 O431 2.326 . S
In429 O435 2.266 . S
In429 O436 2.326 . S
In429 O437 2.266 . S
In429 O438 2.326 . S
In429 O440 2.294 . S
In429 O441 2.326 . S
O430 In429 2.294 . S
O430 C439 1.240 . S
O431 In429 2.326 . S
O431 C439 1.252 . S
C432 O435 1.252 . S
C432 O436 1.260 . S
C433 O440 1.240 . S
C433 O441 1.252 . S
C434 O437 1.252 . S
C434 O438 1.260 . S
O435 In429 2.266 . S
O435 C432 1.252 . S
O436 In429 2.326 . S
O436 C432 1.260 . S
O437 In429 2.266 . S
O437 C434 1.252 . S
O438 In429 2.326 . S
O438 C434 1.260 . S
C439 O430 1.240 . S
C439 O431 1.252 . S
O440 In429 2.294 . S
O440 C433 1.240 . S
O441 In429 2.326 . S
O441 C433 1.252 . S
In442 O443 2.294 . S
In442 O444 2.326 . S
In442 O448 2.266 . S
In442 O449 2.326 . S
In442 O450 2.266 . S
In442 O451 2.326 . S
In442 O453 2.294 . S
In442 O454 2.326 . S
O443 In442 2.294 . S
O443 C452 1.240 . S
O444 In442 2.326 . S
O444 C452 1.252 . S
C445 O448 1.252 . S
C445 O449 1.260 . S
C446 O453 1.240 . S
C446 O454 1.252 . S
C447 O450 1.252 . S
C447 O451 1.260 . S
O448 In442 2.266 . S
O448 C445 1.252 . S
O449 In442 2.326 . S
O449 C445 1.260 . S
O450 In442 2.266 . S
O450 C447 1.252 . S
O451 In442 2.326 . S
O451 C447 1.260 . S
C452 O443 1.240 . S
C452 O444 1.252 . S
O453 In442 2.294 . S
O453 C446 1.240 . S
O454 In442 2.326 . S
O454 C446 1.252 . S
In455 O456 2.294 . S
In455 O457 2.326 . S
In455 O461 2.266 . S
In455 O462 2.326 . S
In455 O463 2.266 . S
In455 O464 2.326 . S
In455 O466 2.294 . S
In455 O467 2.326 . S
O456 In455 2.294 . S
O456 C465 1.240 . S
O457 In455 2.326 . S
O457 C465 1.252 . S
C458 O461 1.252 . S
C458 O462 1.260 . S
C459 O466 1.240 . S
C459 O467 1.252 . S
C460 O463 1.252 . S
C460 O464 1.260 . S
O461 In455 2.266 . S
O461 C458 1.252 . S
O462 In455 2.326 . S
O462 C458 1.260 . S
O463 In455 2.266 . S
O463 C460 1.252 . S
O464 In455 2.326 . S
O464 C460 1.260 . S
C465 O456 1.240 . S
C465 O457 1.252 . S
O466 In455 2.294 . S
O466 C459 1.240 . S
O467 In455 2.326 . S
O467 C459 1.252 . S
H468 C476 0.950 . S
H469 C481 0.950 . S
H470 C478 0.950 . S
H471 C480 0.950 . S
H472 C482 0.950 . S
H473 C484 0.950 . S
H474 C486 0.950 1_455 S
H475 C487 0.950 . S
C476 H468 0.950 . S
C476 C477 1.386 . S
C476 C478 1.391 . S
C477 C476 1.386 . S
C477 C481 1.393 . S
C478 H470 0.950 . S
C478 C476 1.391 . S
C478 C479 1.400 . S
C479 C478 1.400 . S
C479 C480 1.398 . S
C479 C485 1.491 . S
C480 H471 0.950 . S
C480 C479 1.398 . S
C480 C481 1.391 . S
C481 H469 0.950 . S
C481 C477 1.393 . S
C481 C480 1.391 . S
C482 H472 0.950 . S
C482 C483 1.386 . S
C482 C484 1.391 . S
C483 C482 1.386 . S
C483 C487 1.393 . S
C484 H473 0.950 . S
C484 C482 1.391 . S
C484 C485 1.400 1_655 S
C485 C479 1.491 . S
C485 C484 1.400 1_455 S
C485 C486 1.398 1_455 S
C486 H474 0.950 1_655 S
C486 C485 1.398 1_655 S
C486 C487 1.391 . S
C487 H475 0.950 . S
C487 C483 1.393 . S
C487 C486 1.391 . S
H488 C496 0.950 . S
H489 C501 0.950 . S
H490 C498 0.950 . S
H491 C500 0.950 . S
H492 C502 0.950 . S
H493 C504 0.950 . S
H494 C506 0.950 . S
H495 C507 0.950 . S
C496 H488 0.950 . S
C496 C497 1.386 . S
C496 C498 1.391 . S
C497 C496 1.386 . S
C497 C501 1.393 . S
C498 H490 0.950 . S
C498 C496 1.391 . S
C498 C499 1.400 . S
C499 C498 1.400 . S
C499 C500 1.398 . S
C499 C505 1.491 . S
C500 H491 0.950 . S
C500 C499 1.398 . S
C500 C501 1.391 . S
C501 H489 0.950 . S
C501 C497 1.393 . S
C501 C500 1.391 . S
C502 H492 0.950 . S
C502 C503 1.386 . S
C502 C504 1.391 . S
C503 C502 1.386 . S
C503 C507 1.393 . S
C504 H493 0.950 . S
C504 C502 1.391 . S
C504 C505 1.400 . S
C505 C499 1.491 . S
C505 C504 1.400 . S
C505 C506 1.398 . S
C506 H494 0.950 . S
C506 C505 1.398 . S
C506 C507 1.391 . S
C507 H495 0.950 . S
C507 C503 1.393 . S
C507 C506 1.391 . S
H508 C516 0.950 . S
H509 C521 0.950 . S
H510 C518 0.950 1_565 S
H511 C520 0.950 . S
H512 C522 0.950 . S
H513 C524 0.950 . S
H514 C526 0.950 . S
H515 C527 0.950 . S
C516 H508 0.950 . S
C516 C517 1.386 . S
C516 C518 1.391 . S
C517 C516 1.386 . S
C517 C521 1.393 . S
C518 H510 0.950 1_545 S
C518 C516 1.391 . S
C518 C519 1.400 1_545 S
C519 C518 1.400 1_565 S
C519 C520 1.398 1_565 S
C519 C525 1.491 . S
C520 H511 0.950 . S
C520 C519 1.398 1_545 S
C520 C521 1.391 . S
C521 H509 0.950 . S
C521 C517 1.393 . S
C521 C520 1.391 . S
C522 H512 0.950 . S
C522 C523 1.386 . S
C522 C524 1.391 . S
C523 C522 1.386 . S
C523 C527 1.393 . S
C524 H513 0.950 . S
C524 C522 1.391 . S
C524 C525 1.400 . S
C525 C519 1.491 . S
C525 C524 1.400 . S
C525 C526 1.398 . S
C526 H514 0.950 . S
C526 C525 1.398 . S
C526 C527 1.391 . S
C527 H515 0.950 . S
C527 C523 1.393 . S
C527 C526 1.391 . S
H528 C536 0.950 . S
H529 C541 0.950 . S
H530 C538 0.950 . S
H531 C540 0.950 . S
H532 C542 0.950 . S
H533 C544 0.950 . S
H534 C546 0.950 . S
H535 C547 0.950 . S
C536 H528 0.950 . S
C536 C537 1.386 . S
C536 C538 1.391 . S
C537 C536 1.386 . S
C537 C541 1.393 . S
C538 H530 0.950 . S
C538 C536 1.391 . S
C538 C539 1.400 . S
C539 C538 1.400 . S
C539 C540 1.398 . S
C539 C545 1.491 . S
C540 H531 0.950 . S
C540 C539 1.398 . S
C540 C541 1.391 . S
C541 H529 0.950 . S
C541 C537 1.393 . S
C541 C540 1.391 . S
C542 H532 0.950 . S
C542 C543 1.386 . S
C542 C544 1.391 . S
C543 C542 1.386 . S
C543 C547 1.393 . S
C544 H533 0.950 . S
C544 C542 1.391 . S
C544 C545 1.400 1_565 S
C545 C539 1.491 . S
C545 C544 1.400 1_545 S
C545 C546 1.398 1_545 S
C546 H534 0.950 . S
C546 C545 1.398 1_565 S
C546 C547 1.391 . S
C547 H535 0.950 . S
C547 C543 1.393 . S
C547 C546 1.391 . S
H548 C556 0.950 . S
H549 C561 0.950 . S
H550 C558 0.950 . S
H551 C560 0.950 . S
H552 C562 0.950 . S
H553 C564 0.950 . S
H554 C566 0.950 . S
H555 C567 0.950 . S
C556 H548 0.950 . S
C556 C557 1.386 . S
C556 C558 1.391 . S
C557 C556 1.386 . S
C557 C561 1.393 . S
C558 H550 0.950 . S
C558 C556 1.391 . S
C558 C559 1.400 . S
C559 C558 1.400 . S
C559 C560 1.398 . S
C559 C565 1.491 . S
C560 H551 0.950 . S
C560 C559 1.398 . S
C560 C561 1.391 . S
C561 H549 0.950 . S
C561 C557 1.393 . S
C561 C560 1.391 . S
C562 H552 0.950 . S
C562 C563 1.386 . S
C562 C564 1.391 . S
C563 C562 1.386 . S
C563 C567 1.393 . S
C564 H553 0.950 . S
C564 C562 1.391 . S
C564 C565 1.400 1_455 S
C565 C559 1.491 . S
C565 C564 1.400 1_655 S
C565 C566 1.398 1_655 S
C566 H554 0.950 . S
C566 C565 1.398 1_455 S
C566 C567 1.391 . S
C567 H555 0.950 . S
C567 C563 1.393 . S
C567 C566 1.391 . S
H568 C576 0.950 . S
H569 C581 0.950 . S
H570 C578 0.950 . S
H571 C580 0.950 . S
H572 C582 0.950 . S
H573 C584 0.950 . S
H574 C586 0.950 . S
H575 C587 0.950 . S
C576 H568 0.950 . S
C576 C577 1.386 . S
C576 C578 1.391 . S
C577 C576 1.386 . S
C577 C581 1.393 . S
C578 H570 0.950 . S
C578 C576 1.391 . S
C578 C579 1.400 . S
C579 C578 1.400 . S
C579 C580 1.398 . S
C579 C585 1.491 . S
C580 H571 0.950 . S
C580 C579 1.398 . S
C580 C581 1.391 . S
C581 H569 0.950 . S
C581 C577 1.393 . S
C581 C580 1.391 . S
C582 H572 0.950 . S
C582 C583 1.386 . S
C582 C584 1.391 . S
C583 C582 1.386 . S
C583 C587 1.393 . S
C584 H573 0.950 . S
C584 C582 1.391 . S
C584 C585 1.400 . S
C585 C579 1.491 . S
C585 C584 1.400 . S
C585 C586 1.398 . S
C586 H574 0.950 . S
C586 C585 1.398 . S
C586 C587 1.391 . S
C587 H575 0.950 . S
C587 C583 1.393 . S
C587 C586 1.391 . S
H588 C596 0.950 . S
H589 C601 0.950 . S
H590 C598 0.950 . S
H591 C600 0.950 . S
H592 C602 0.950 . S
H593 C604 0.950 . S
H594 C606 0.950 1_655 S
H595 C607 0.950 . S
C596 H588 0.950 . S
C596 C597 1.386 . S
C596 C598 1.391 . S
C597 C596 1.386 . S
C597 C601 1.393 . S
C598 H590 0.950 . S
C598 C596 1.391 . S
C598 C599 1.400 . S
C599 C598 1.400 . S
C599 C600 1.398 . S
C599 C605 1.491 . S
C600 H591 0.950 . S
C600 C599 1.398 . S
C600 C601 1.391 . S
C601 H589 0.950 . S
C601 C597 1.393 . S
C601 C600 1.391 . S
C602 H592 0.950 . S
C602 C603 1.386 . S
C602 C604 1.391 . S
C603 C602 1.386 . S
C603 C607 1.393 . S
C604 H593 0.950 . S
C604 C602 1.391 . S
C604 C605 1.400 1_455 S
C605 C599 1.491 . S
C605 C604 1.400 1_655 S
C605 C606 1.398 1_655 S
C606 H594 0.950 1_455 S
C606 C605 1.398 1_455 S
C606 C607 1.391 . S
C607 H595 0.950 . S
C607 C603 1.393 . S
C607 C606 1.391 . S
H608 C616 0.950 . S
H609 C621 0.950 . S
H610 C618 0.950 . S
H611 C620 0.950 . S
H612 C622 0.950 . S
H613 C624 0.950 . S
H614 C626 0.950 . S
H615 C627 0.950 . S
C616 H608 0.950 . S
C616 C617 1.386 . S
C616 C618 1.391 . S
C617 C616 1.386 . S
C617 C621 1.393 . S
C618 H610 0.950 . S
C618 C616 1.391 . S
C618 C619 1.400 . S
C619 C618 1.400 . S
C619 C620 1.398 . S
C619 C625 1.491 . S
C620 H611 0.950 . S
C620 C619 1.398 . S
C620 C621 1.391 . S
C621 H609 0.950 . S
C621 C617 1.393 . S
C621 C620 1.391 . S
C622 H612 0.950 . S
C622 C623 1.386 . S
C622 C624 1.391 . S
C623 C622 1.386 . S
C623 C627 1.393 . S
C624 H613 0.950 . S
C624 C622 1.391 . S
C624 C625 1.400 . S
C625 C619 1.491 . S
C625 C624 1.400 . S
C625 C626 1.398 . S
C626 H614 0.950 . S
C626 C625 1.398 . S
C626 C627 1.391 . S
C627 H615 0.950 . S
C627 C623 1.393 . S
C627 C626 1.391 . S
H628 C636 0.950 . S
H629 C641 0.950 . S
H630 C638 0.950 1_545 S
H631 C640 0.950 . S
H632 C642 0.950 . S
H633 C644 0.950 . S
H634 C646 0.950 . S
H635 C647 0.950 . S
C636 H628 0.950 . S
C636 C637 1.386 . S
C636 C638 1.391 . S
C637 C636 1.386 . S
C637 C641 1.393 . S
C638 H630 0.950 1_565 S
C638 C636 1.391 . S
C638 C639 1.400 1_565 S
C639 C638 1.400 1_545 S
C639 C640 1.398 1_545 S
C639 C645 1.491 . S
C640 H631 0.950 . S
C640 C639 1.398 1_565 S
C640 C641 1.391 . S
C641 H629 0.950 . S
C641 C637 1.393 . S
C641 C640 1.391 . S
C642 H632 0.950 . S
C642 C643 1.386 . S
C642 C644 1.391 . S
C643 C642 1.386 . S
C643 C647 1.393 . S
C644 H633 0.950 . S
C644 C642 1.391 . S
C644 C645 1.400 . S
C645 C639 1.491 . S
C645 C644 1.400 . S
C645 C646 1.398 . S
C646 H634 0.950 . S
C646 C645 1.398 . S
C646 C647 1.391 . S
C647 H635 0.950 . S
C647 C643 1.393 . S
C647 C646 1.391 . S
H648 C656 0.950 . S
H649 C661 0.950 . S
H650 C658 0.950 . S
H651 C660 0.950 . S
H652 C662 0.950 . S
H653 C664 0.950 . S
H654 C666 0.950 . S
H655 C667 0.950 . S
C656 H648 0.950 . S
C656 C657 1.386 . S
C656 C658 1.391 . S
C657 C656 1.386 . S
C657 C661 1.393 . S
C658 H650 0.950 . S
C658 C656 1.391 . S
C658 C659 1.400 1_545 S
C659 C658 1.400 1_565 S
C659 C660 1.398 1_565 S
C659 C665 1.491 . S
C660 H651 0.950 . S
C660 C659 1.398 1_545 S
C660 C661 1.391 . S
C661 H649 0.950 . S
C661 C657 1.393 . S
C661 C660 1.391 . S
C662 H652 0.950 . S
C662 C663 1.386 . S
C662 C664 1.391 . S
C663 C662 1.386 . S
C663 C667 1.393 . S
C664 H653 0.950 . S
C664 C662 1.391 . S
C664 C665 1.400 . S
C665 C659 1.491 . S
C665 C664 1.400 . S
C665 C666 1.398 . S
C666 H654 0.950 . S
C666 C665 1.398 . S
C666 C667 1.391 . S
C667 H655 0.950 . S
C667 C663 1.393 . S
C667 C666 1.391 . S
H668 C676 0.950 . S
H669 C681 0.950 . S
H670 C678 0.950 . S
H671 C680 0.950 . S
H672 C682 0.950 . S
H673 C684 0.950 . S
H674 C686 0.950 . S
H675 C687 0.950 . S
C676 H668 0.950 . S
C676 C677 1.386 . S
C676 C678 1.391 . S
C677 C676 1.386 . S
C677 C681 1.393 . S
C678 H670 0.950 . S
C678 C676 1.391 . S
C678 C679 1.400 . S
C679 C678 1.400 . S
C679 C680 1.398 . S
C679 C685 1.491 . S
C680 H671 0.950 . S
C680 C679 1.398 . S
C680 C681 1.391 . S
C681 H669 0.950 . S
C681 C677 1.393 . S
C681 C680 1.391 . S
C682 H672 0.950 . S
C682 C683 1.386 . S
C682 C684 1.391 . S
C683 C682 1.386 . S
C683 C687 1.393 . S
C684 H673 0.950 . S
C684 C682 1.391 . S
C684 C685 1.400 1_655 S
C685 C679 1.491 . S
C685 C684 1.400 1_455 S
C685 C686 1.398 1_455 S
C686 H674 0.950 . S
C686 C685 1.398 1_655 S
C686 C687 1.391 . S
C687 H675 0.950 . S
C687 C683 1.393 . S
C687 C686 1.391 . S
H688 C696 0.950 . S
H689 C701 0.950 . S
H690 C698 0.950 . S
H691 C700 0.950 . S
H692 C702 0.950 . S
H693 C704 0.950 . S
H694 C706 0.950 . S
H695 C707 0.950 . S
C696 H688 0.950 . S
C696 C697 1.386 . S
C696 C698 1.391 . S
C697 C696 1.386 . S
C697 C701 1.393 . S
C698 H690 0.950 . S
C698 C696 1.391 . S
C698 C699 1.400 . S
C699 C698 1.400 . S
C699 C700 1.398 . S
C699 C705 1.491 . S
C700 H691 0.950 . S
C700 C699 1.398 . S
C700 C701 1.391 . S
C701 H689 0.950 . S
C701 C697 1.393 . S
C701 C700 1.391 . S
C702 H692 0.950 . S
C702 C703 1.386 . S
C702 C704 1.391 . S
C703 C702 1.386 . S
C703 C707 1.393 . S
C704 H693 0.950 . S
C704 C702 1.391 . S
C704 C705 1.400 . S
C705 C699 1.491 . S
C705 C704 1.400 . S
C705 C706 1.398 . S
C706 H694 0.950 . S
C706 C705 1.398 . S
C706 C707 1.391 . S
C707 H695 0.950 . S
C707 C703 1.393 . S
C707 C706 1.391 . S
H708 C716 0.950 . S
H709 C721 0.950 . S
H710 C718 0.950 . S
H711 C720 0.950 . S
H712 C722 0.950 . S
H713 C724 0.950 . S
H714 C726 0.950 . S
H715 C727 0.950 . S
C716 H708 0.950 . S
C716 C717 1.386 . S
C716 C718 1.391 . S
C717 C716 1.386 . S
C717 C721 1.393 . S
C718 H710 0.950 . S
C718 C716 1.391 . S
C718 C719 1.400 . S
C719 C718 1.400 . S
C719 C720 1.398 . S
C719 C725 1.491 . S
C720 H711 0.950 . S
C720 C719 1.398 . S
C720 C721 1.391 . S
C721 H709 0.950 . S
C721 C717 1.393 . S
C721 C720 1.391 . S
C722 H712 0.950 . S
C722 C723 1.386 . S
C722 C724 1.391 . S
C723 C722 1.386 . S
C723 C727 1.393 . S
C724 H713 0.950 . S
C724 C722 1.391 . S
C724 C725 1.400 . S
C725 C719 1.491 . S
C725 C724 1.400 . S
C725 C726 1.398 . S
C726 H714 0.950 . S
C726 C725 1.398 . S
C726 C727 1.391 . S
C727 H715 0.950 . S
C727 C723 1.393 . S
C727 C726 1.391 . S
H728 C736 0.950 . S
H729 C741 0.950 . S
H730 C738 0.950 . S
H731 C740 0.950 . S
H732 C742 0.950 . S
H733 C744 0.950 . S
H734 C746 0.950 . S
H735 C747 0.950 . S
C736 H728 0.950 . S
C736 C737 1.386 . S
C736 C738 1.391 . S
C737 C736 1.386 . S
C737 C741 1.393 . S
C738 H730 0.950 . S
C738 C736 1.391 . S
C738 C739 1.400 . S
C739 C738 1.400 . S
C739 C740 1.398 . S
C739 C745 1.491 . S
C740 H731 0.950 . S
C740 C739 1.398 . S
C740 C741 1.391 . S
C741 H729 0.950 . S
C741 C737 1.393 . S
C741 C740 1.391 . S
C742 H732 0.950 . S
C742 C743 1.386 . S
C742 C744 1.391 . S
C743 C742 1.386 . S
C743 C747 1.393 . S
C744 H733 0.950 . S
C744 C742 1.391 . S
C744 C745 1.400 . S
C745 C739 1.491 . S
C745 C744 1.400 . S
C745 C746 1.398 . S
C746 H734 0.950 . S
C746 C745 1.398 . S
C746 C747 1.391 . S
C747 H735 0.950 . S
C747 C743 1.393 . S
C747 C746 1.391 . S
H748 C756 0.950 . S
H749 C761 0.950 . S
H750 C758 0.950 . S
H751 C760 0.950 . S
H752 C762 0.950 . S
H753 C764 0.950 . S
H754 C766 0.950 . S
H755 C767 0.950 . S
C756 H748 0.950 . S
C756 C757 1.386 . S
C756 C758 1.391 . S
C757 C756 1.386 . S
C757 C761 1.393 . S
C758 H750 0.950 . S
C758 C756 1.391 . S
C758 C759 1.400 . S
C759 C758 1.400 . S
C759 C760 1.398 . S
C759 C765 1.491 . S
C760 H751 0.950 . S
C760 C759 1.398 . S
C760 C761 1.391 . S
C761 H749 0.950 . S
C761 C757 1.393 . S
C761 C760 1.391 . S
C762 H752 0.950 . S
C762 C763 1.386 . S
C762 C764 1.391 . S
C763 C762 1.386 . S
C763 C767 1.393 . S
C764 H753 0.950 . S
C764 C762 1.391 . S
C764 C765 1.400 . S
C765 C759 1.491 . S
C765 C764 1.400 . S
C765 C766 1.398 . S
C766 H754 0.950 . S
C766 C765 1.398 . S
C766 C767 1.391 . S
C767 H755 0.950 . S
C767 C763 1.393 . S
C767 C766 1.391 . S
H768 C776 0.950 . S
H769 C781 0.950 . S
H770 C778 0.950 . S
H771 C780 0.950 . S
H772 C782 0.950 . S
H773 C784 0.950 . S
H774 C786 0.950 . S
H775 C787 0.950 . S
C776 H768 0.950 . S
C776 C777 1.386 . S
C776 C778 1.391 . S
C777 C776 1.386 . S
C777 C781 1.393 . S
C778 H770 0.950 . S
C778 C776 1.391 . S
C778 C779 1.400 . S
C779 C778 1.400 . S
C779 C780 1.398 . S
C779 C785 1.491 . S
C780 H771 0.950 . S
C780 C779 1.398 . S
C780 C781 1.391 . S
C781 H769 0.950 . S
C781 C777 1.393 . S
C781 C780 1.391 . S
C782 H772 0.950 . S
C782 C783 1.386 . S
C782 C784 1.391 . S
C783 C782 1.386 . S
C783 C787 1.393 . S
C784 H773 0.950 . S
C784 C782 1.391 . S
C784 C785 1.400 . S
C785 C779 1.491 . S
C785 C784 1.400 . S
C785 C786 1.398 . S
C786 H774 0.950 . S
C786 C785 1.398 . S
C786 C787 1.391 . S
C787 H775 0.950 . S
C787 C783 1.393 . S
C787 C786 1.391 . S
H788 C796 0.950 . S
H789 C801 0.950 . S
H790 C798 0.950 . S
H791 C800 0.950 . S
H792 C802 0.950 . S
H793 C804 0.950 . S
H794 C806 0.950 . S
H795 C807 0.950 . S
C796 H788 0.950 . S
C796 C797 1.386 . S
C796 C798 1.391 . S
C797 C796 1.386 . S
C797 C801 1.393 . S
C798 H790 0.950 . S
C798 C796 1.391 . S
C798 C799 1.400 . S
C799 C798 1.400 . S
C799 C800 1.398 . S
C799 C805 1.491 . S
C800 H791 0.950 . S
C800 C799 1.398 . S
C800 C801 1.391 . S
C801 H789 0.950 . S
C801 C797 1.393 . S
C801 C800 1.391 . S
C802 H792 0.950 . S
C802 C803 1.386 . S
C802 C804 1.391 . S
C803 C802 1.386 . S
C803 C807 1.393 . S
C804 H793 0.950 . S
C804 C802 1.391 . S
C804 C805 1.400 . S
C805 C799 1.491 . S
C805 C804 1.400 . S
C805 C806 1.398 . S
C806 H794 0.950 . S
C806 C805 1.398 . S
C806 C807 1.391 . S
C807 H795 0.950 . S
C807 C803 1.393 . S
C807 C806 1.391 . S
H808 C816 0.950 . S
H809 C821 0.950 . S
H810 C818 0.950 . S
H811 C820 0.950 . S
H812 C822 0.950 . S
H813 C824 0.950 . S
H814 C826 0.950 . S
H815 C827 0.950 . S
C816 H808 0.950 . S
C816 C817 1.386 . S
C816 C818 1.391 . S
C817 C816 1.386 . S
C817 C821 1.393 . S
C818 H810 0.950 . S
C818 C816 1.391 . S
C818 C819 1.400 . S
C819 C818 1.400 . S
C819 C820 1.398 . S
C819 C825 1.491 . S
C820 H811 0.950 . S
C820 C819 1.398 . S
C820 C821 1.391 . S
C821 H809 0.950 . S
C821 C817 1.393 . S
C821 C820 1.391 . S
C822 H812 0.950 . S
C822 C823 1.386 . S
C822 C824 1.391 . S
C823 C822 1.386 . S
C823 C827 1.393 . S
C824 H813 0.950 . S
C824 C822 1.391 . S
C824 C825 1.400 . S
C825 C819 1.491 . S
C825 C824 1.400 . S
C825 C826 1.398 . S
C826 H814 0.950 . S
C826 C825 1.398 . S
C826 C827 1.391 . S
C827 H815 0.950 . S
C827 C823 1.393 . S
C827 C826 1.391 . S
H828 C836 0.950 . S
H829 C841 0.950 . S
H830 C838 0.950 . S
H831 C840 0.950 . S
H832 C842 0.950 . S
H833 C844 0.950 . S
H834 C846 0.950 . S
H835 C847 0.950 . S
C836 H828 0.950 . S
C836 C837 1.386 . S
C836 C838 1.391 . S
C837 C836 1.386 . S
C837 C841 1.393 . S
C838 H830 0.950 . S
C838 C836 1.391 . S
C838 C839 1.400 . S
C839 C838 1.400 . S
C839 C840 1.398 . S
C839 C845 1.491 . S
C840 H831 0.950 . S
C840 C839 1.398 . S
C840 C841 1.391 . S
C841 H829 0.950 . S
C841 C837 1.393 . S
C841 C840 1.391 . S
C842 H832 0.950 . S
C842 C843 1.386 . S
C842 C844 1.391 . S
C843 C842 1.386 . S
C843 C847 1.393 . S
C844 H833 0.950 . S
C844 C842 1.391 . S
C844 C845 1.400 . S
C845 C839 1.491 . S
C845 C844 1.400 . S
C845 C846 1.398 . S
C846 H834 0.950 . S
C846 C845 1.398 . S
C846 C847 1.391 . S
C847 H835 0.950 . S
C847 C843 1.393 . S
C847 C846 1.391 . S
H848 C856 0.950 . S
H849 C861 0.950 . S
H850 C858 0.950 . S
H851 C860 0.950 . S
H852 C862 0.950 . S
H853 C864 0.950 . S
H854 C866 0.950 . S
H855 C867 0.950 . S
C856 H848 0.950 . S
C856 C857 1.386 . S
C856 C858 1.391 . S
C857 C856 1.386 . S
C857 C861 1.393 . S
C858 H850 0.950 . S
C858 C856 1.391 . S
C858 C859 1.400 . S
C859 C858 1.400 . S
C859 C860 1.398 . S
C859 C865 1.491 . S
C860 H851 0.950 . S
C860 C859 1.398 . S
C860 C861 1.391 . S
C861 H849 0.950 . S
C861 C857 1.393 . S
C861 C860 1.391 . S
C862 H852 0.950 . S
C862 C863 1.386 . S
C862 C864 1.391 . S
C863 C862 1.386 . S
C863 C867 1.393 . S
C864 H853 0.950 . S
C864 C862 1.391 . S
C864 C865 1.400 . S
C865 C859 1.491 . S
C865 C864 1.400 . S
C865 C866 1.398 . S
C866 H854 0.950 . S
C866 C865 1.398 . S
C866 C867 1.391 . S
C867 H855 0.950 . S
C867 C863 1.393 . S
C867 C866 1.391 . S
H868 C876 0.950 . S
H869 C881 0.950 . S
H870 C878 0.950 . S
H871 C880 0.950 . S
H872 C882 0.950 . S
H873 C884 0.950 . S
H874 C886 0.950 . S
H875 C887 0.950 . S
C876 H868 0.950 . S
C876 C877 1.386 . S
C876 C878 1.391 . S
C877 C876 1.386 . S
C877 C881 1.393 . S
C878 H870 0.950 . S
C878 C876 1.391 . S
C878 C879 1.400 . S
C879 C878 1.400 . S
C879 C880 1.398 . S
C879 C885 1.491 . S
C880 H871 0.950 . S
C880 C879 1.398 . S
C880 C881 1.391 . S
C881 H869 0.950 . S
C881 C877 1.393 . S
C881 C880 1.391 . S
C882 H872 0.950 . S
C882 C883 1.386 . S
C882 C884 1.391 . S
C883 C882 1.386 . S
C883 C887 1.393 . S
C884 H873 0.950 . S
C884 C882 1.391 . S
C884 C885 1.400 . S
C885 C879 1.491 . S
C885 C884 1.400 . S
C885 C886 1.398 . S
C886 H874 0.950 . S
C886 C885 1.398 . S
C886 C887 1.391 . S
C887 H875 0.950 . S
C887 C883 1.393 . S
C887 C886 1.391 . S
H888 C896 0.950 . S
H889 C901 0.950 1_554 S
H890 C898 0.950 . S
H891 C900 0.950 1_554 S
H892 C902 0.950 1_554 S
H893 C904 0.950 1_554 S
H894 C906 0.950 . S
H895 C907 0.950 . S
C896 H888 0.950 . S
C896 C897 1.386 . S
C896 C898 1.391 . S
C897 C896 1.386 . S
C897 C901 1.393 . S
C898 H890 0.950 . S
C898 C896 1.391 . S
C898 C899 1.400 . S
C899 C898 1.400 . S
C899 C900 1.398 . S
C899 C905 1.491 . S
C900 H891 0.950 1_556 S
C900 C899 1.398 . S
C900 C901 1.391 . S
C901 H889 0.950 1_556 S
C901 C897 1.393 . S
C901 C900 1.391 . S
C902 H892 0.950 1_556 S
C902 C903 1.386 . S
C902 C904 1.391 . S
C903 C902 1.386 . S
C903 C907 1.393 . S
C904 H893 0.950 1_556 S
C904 C902 1.391 . S
C904 C905 1.400 . S
C905 C899 1.491 . S
C905 C904 1.400 . S
C905 C906 1.398 . S
C906 H894 0.950 . S
C906 C905 1.398 . S
C906 C907 1.391 . S
C907 H895 0.950 . S
C907 C903 1.393 . S
C907 C906 1.391 . S
H908 C916 0.915 1_554 S
H909 C921 0.950 . S
H910 C918 0.950 1_554 S
H911 C920 0.950 . S
H912 C922 0.950 . S
H913 C924 0.950 . S
H914 C926 0.950 1_554 S
H915 C927 0.950 1_554 S
C916 H908 0.915 1_556 S
C916 C917 1.386 . S
C916 C918 1.391 . S
C917 C916 1.386 . S
C917 C921 1.393 . S
C918 H910 0.950 1_556 S
C918 C916 1.391 . S
C918 C919 1.400 . S
C919 C918 1.400 . S
C919 C920 1.398 . S
C919 C925 1.491 . S
C920 H911 0.950 . S
C920 C919 1.398 . S
C920 C921 1.391 . S
C921 H909 0.950 . S
C921 C917 1.393 . S
C921 C920 1.391 . S
C922 H912 0.950 . S
C922 C923 1.386 . S
C922 C924 1.391 . S
C923 C922 1.386 . S
C923 C927 1.393 . S
C924 H913 0.950 . S
C924 C922 1.391 . S
C924 C925 1.400 . S
C925 C919 1.491 . S
C925 C924 1.400 . S
C925 C926 1.398 . S
C926 H914 0.950 1_556 S
C926 C925 1.398 . S
C926 C927 1.391 . S
C927 H915 0.950 1_556 S
C927 C923 1.393 . S
C927 C926 1.391 . S
H928 C936 0.950 . S
H929 C941 0.950 . S
H930 C938 0.950 . S
H931 C940 0.950 . S
H932 C942 0.950 . S
H933 C944 0.950 . S
H934 C946 0.950 . S
H935 C947 0.950 . S
C936 H928 0.950 . S
C936 C937 1.386 . S
C936 C938 1.391 . S
C937 C936 1.386 . S
C937 C941 1.393 . S
C938 H930 0.950 . S
C938 C936 1.391 . S
C938 C939 1.400 . S
C939 C938 1.400 . S
C939 C940 1.398 . S
C939 C945 1.491 . S
C940 H931 0.950 . S
C940 C939 1.398 . S
C940 C941 1.391 . S
C941 H929 0.950 . S
C941 C937 1.393 . S
C941 C940 1.391 . S
C942 H932 0.950 . S
C942 C943 1.386 . S
C942 C944 1.391 . S
C943 C942 1.386 . S
C943 C947 1.393 . S
C944 H933 0.950 . S
C944 C942 1.391 . S
C944 C945 1.400 . S
C945 C939 1.491 . S
C945 C944 1.400 . S
C945 C946 1.398 . S
C946 H934 0.950 . S
C946 C945 1.398 . S
C946 C947 1.391 . S
C947 H935 0.950 . S
C947 C943 1.393 . S
C947 C946 1.391 . S
H948 C956 0.950 . S
H949 C961 0.950 . S
H950 C958 0.950 . S
H951 C960 0.950 . S
H952 C962 0.950 . S
H953 C964 0.950 . S
H954 C966 0.950 . S
H955 C967 0.950 . S
C956 H948 0.950 . S
C956 C957 1.386 . S
C956 C958 1.391 . S
C957 C956 1.386 . S
C957 C961 1.393 . S
C958 H950 0.950 . S
C958 C956 1.391 . S
C958 C959 1.400 . S
C959 C958 1.400 . S
C959 C960 1.398 . S
C959 C965 1.491 . S
C960 H951 0.950 . S
C960 C959 1.398 . S
C960 C961 1.391 . S
C961 H949 0.950 . S
C961 C957 1.393 . S
C961 C960 1.391 . S
C962 H952 0.950 . S
C962 C963 1.386 . S
C962 C964 1.391 . S
C963 C962 1.386 . S
C963 C967 1.393 . S
C964 H953 0.950 . S
C964 C962 1.391 . S
C964 C965 1.400 . S
C965 C959 1.491 . S
C965 C964 1.400 . S
C965 C966 1.398 . S
C966 H954 0.950 . S
C966 C965 1.398 . S
C966 C967 1.391 . S
C967 H955 0.950 . S
C967 C963 1.393 . S
C967 C966 1.391 . S
H968 C976 0.950 . S
H969 C981 0.950 . S
H970 C978 0.950 . S
H971 C980 0.950 . S
H972 C982 0.950 . S
H973 C984 0.950 . S
H974 C986 0.950 . S
H975 C987 0.950 . S
C976 H968 0.950 . S
C976 C977 1.386 . S
C976 C978 1.391 . S
C977 C976 1.386 . S
C977 C981 1.393 . S
C978 H970 0.950 . S
C978 C976 1.391 . S
C978 C979 1.400 . S
C979 C978 1.400 . S
C979 C980 1.398 . S
C979 C985 1.491 . S
C980 H971 0.950 . S
C980 C979 1.398 . S
C980 C981 1.391 . S
C981 H969 0.950 . S
C981 C977 1.393 . S
C981 C980 1.391 . S
C982 H972 0.950 . S
C982 C983 1.386 . S
C982 C984 1.391 . S
C983 C982 1.386 . S
C983 C987 1.393 . S
C984 H973 0.950 . S
C984 C982 1.391 . S
C984 C985 1.400 . S
C985 C979 1.491 . S
C985 C984 1.400 . S
C985 C986 1.398 . S
C986 H974 0.950 . S
C986 C985 1.398 . S
C986 C987 1.391 . S
C987 H975 0.950 . S
C987 C983 1.393 . S
C987 C986 1.391 . S
H988 C996 0.950 . S
H989 C1001 0.950 . S
H990 C998 0.950 . S
H991 C1000 0.950 . S
H992 C1002 0.950 . S
H993 C1004 0.950 . S
H994 C1006 0.950 . S
H995 C1007 0.950 . S
C996 H988 0.950 . S
C996 C997 1.386 . S
C996 C998 1.391 . S
C997 C996 1.386 . S
C997 C1001 1.393 . S
C998 H990 0.950 . S
C998 C996 1.391 . S
C998 C999 1.400 . S
C999 C998 1.400 . S
C999 C1000 1.398 . S
C999 C1005 1.491 . S
C1000 H991 0.950 . S
C1000 C999 1.398 . S
C1000 C1001 1.391 . S
C1001 H989 0.950 . S
C1001 C997 1.393 . S
C1001 C1000 1.391 . S
C1002 H992 0.950 . S
C1002 C1003 1.386 . S
C1002 C1004 1.391 . S
C1003 C1002 1.386 . S
C1003 C1007 1.393 . S
C1004 H993 0.950 . S
C1004 C1002 1.391 . S
C1004 C1005 1.400 . S
C1005 C999 1.491 . S
C1005 C1004 1.400 . S
C1005 C1006 1.398 . S
C1006 H994 0.950 . S
C1006 C1005 1.398 . S
C1006 C1007 1.391 . S
C1007 H995 0.950 . S
C1007 C1003 1.393 . S
C1007 C1006 1.391 . S
H1008 C1016 0.950 . S
H1009 C1021 0.950 . S
H1010 C1018 0.950 . S
H1011 C1020 0.950 . S
H1012 C1022 0.950 . S
H1013 C1024 0.950 . S
H1014 C1026 0.950 . S
H1015 C1027 0.950 . S
C1016 H1008 0.950 . S
C1016 C1017 1.386 . S
C1016 C1018 1.391 . S
C1017 C1016 1.386 . S
C1017 C1021 1.393 . S
C1018 H1010 0.950 . S
C1018 C1016 1.391 . S
C1018 C1019 1.400 . S
C1019 C1018 1.400 . S
C1019 C1020 1.398 . S
C1019 C1025 1.491 . S
C1020 H1011 0.950 . S
C1020 C1019 1.398 . S
C1020 C1021 1.391 . S
C1021 H1009 0.950 . S
C1021 C1017 1.393 . S
C1021 C1020 1.391 . S
C1022 H1012 0.950 . S
C1022 C1023 1.386 . S
C1022 C1024 1.391 . S
C1023 C1022 1.386 . S
C1023 C1027 1.393 . S
C1024 H1013 0.950 . S
C1024 C1022 1.391 . S
C1024 C1025 1.400 . S
C1025 C1019 1.491 . S
C1025 C1024 1.400 . S
C1025 C1026 1.398 . S
C1026 H1014 0.950 . S
C1026 C1025 1.398 . S
C1026 C1027 1.391 . S
C1027 H1015 0.950 . S
C1027 C1023 1.393 . S
C1027 C1026 1.391 . S
H1028 C1036 0.950 . S
H1029 C1041 0.950 1_556 S
H1030 C1038 0.950 . S
H1031 C1040 0.950 1_556 S
H1032 C1042 0.923 1_556 S
H1033 C1044 0.907 1_556 S
H1034 C1046 0.950 . S
H1035 C1047 0.950 . S
C1036 H1028 0.950 . S
C1036 C1037 1.386 . S
C1036 C1038 1.391 . S
C1037 C1036 1.386 . S
C1037 C1041 1.393 . S
C1038 H1030 0.950 . S
C1038 C1036 1.391 . S
C1038 C1039 1.400 . S
C1039 C1038 1.400 . S
C1039 C1040 1.398 . S
C1039 C1045 1.491 . S
C1040 H1031 0.950 1_554 S
C1040 C1039 1.398 . S
C1040 C1041 1.391 . S
C1041 H1029 0.950 1_554 S
C1041 C1037 1.393 . S
C1041 C1040 1.391 . S
C1042 H1032 0.923 1_554 S
C1042 C1043 1.412 . S
C1042 C1044 1.391 . S
C1043 C1042 1.412 . S
C1043 C1047 1.393 . S
C1044 H1033 0.907 1_554 S
C1044 C1042 1.391 . S
C1044 C1045 1.444 . S
C1045 C1039 1.491 . S
C1045 C1044 1.444 . S
C1045 C1046 1.398 . S
C1046 H1034 0.950 . S
C1046 C1045 1.398 . S
C1046 C1047 1.391 . S
C1047 H1035 0.950 . S
C1047 C1043 1.393 . S
C1047 C1046 1.391 . S
H1048 C1056 0.950 . S
H1049 C1061 0.950 . S
H1050 C1058 0.950 . S
H1051 C1060 0.950 . S
H1052 C1062 0.950 . S
H1053 C1064 0.950 . S
H1054 C1066 0.950 . S
H1055 C1067 0.950 . S
C1056 H1048 0.950 . S
C1056 C1057 1.386 . S
C1056 C1058 1.391 . S
C1057 C1056 1.386 . S
C1057 C1061 1.393 . S
C1058 H1050 0.950 . S
C1058 C1056 1.391 . S
C1058 C1059 1.400 . S
C1059 C1058 1.400 . S
C1059 C1060 1.398 . S
C1059 C1065 1.491 . S
C1060 H1051 0.950 . S
C1060 C1059 1.398 . S
C1060 C1061 1.391 . S
C1061 H1049 0.950 . S
C1061 C1057 1.393 . S
C1061 C1060 1.391 . S
C1062 H1052 0.950 . S
C1062 C1063 1.386 . S
C1062 C1064 1.391 . S
C1063 C1062 1.386 . S
C1063 C1067 1.393 . S
C1064 H1053 0.950 . S
C1064 C1062 1.391 . S
C1064 C1065 1.400 . S
C1065 C1059 1.491 . S
C1065 C1064 1.400 . S
C1065 C1066 1.398 . S
C1066 H1054 0.950 . S
C1066 C1065 1.398 . S
C1066 C1067 1.391 . S
C1067 H1055 0.950 . S
C1067 C1063 1.393 . S
C1067 C1066 1.391 . S
H1068 C1076 0.950 . S
H1069 C1081 0.950 . S
H1070 C1078 0.950 . S
H1071 C1080 0.950 . S
H1072 C1082 0.950 . S
H1073 C1084 0.950 . S
H1074 C1086 0.950 . S
H1075 C1087 0.950 . S
C1076 H1068 0.950 . S
C1076 C1077 1.386 . S
C1076 C1078 1.391 . S
C1077 C1076 1.386 . S
C1077 C1081 1.393 . S
C1078 H1070 0.950 . S
C1078 C1076 1.391 . S
C1078 C1079 1.400 . S
C1079 C1078 1.400 . S
C1079 C1080 1.398 . S
C1079 C1085 1.491 . S
C1080 H1071 0.950 . S
C1080 C1079 1.398 . S
C1080 C1081 1.391 . S
C1081 H1069 0.950 . S
C1081 C1077 1.393 . S
C1081 C1080 1.391 . S
C1082 H1072 0.950 . S
C1082 C1083 1.386 . S
C1082 C1084 1.391 . S
C1083 C1082 1.386 . S
C1083 C1087 1.393 . S
C1084 H1073 0.950 . S
C1084 C1082 1.391 . S
C1084 C1085 1.400 . S
C1085 C1079 1.491 . S
C1085 C1084 1.400 . S
C1085 C1086 1.398 . S
C1086 H1074 0.950 . S
C1086 C1085 1.398 . S
C1086 C1087 1.391 . S
C1087 H1075 0.950 . S
C1087 C1083 1.393 . S
C1087 C1086 1.391 . S
H1088 C1096 0.950 . S
H1089 C1101 0.950 . S
H1090 C1098 0.950 . S
H1091 C1100 0.950 . S
H1092 C1102 0.950 . S
H1093 C1104 0.950 . S
H1094 C1106 0.950 . S
H1095 C1107 0.950 . S
C1096 H1088 0.950 . S
C1096 C1097 1.386 . S
C1096 C1098 1.391 . S
C1097 C1096 1.386 . S
C1097 C1101 1.393 . S
C1098 H1090 0.950 . S
C1098 C1096 1.391 . S
C1098 C1099 1.400 . S
C1099 C1098 1.400 . S
C1099 C1100 1.398 . S
C1099 C1105 1.491 . S
C1100 H1091 0.950 . S
C1100 C1099 1.398 . S
C1100 C1101 1.391 . S
C1101 H1089 0.950 . S
C1101 C1097 1.393 . S
C1101 C1100 1.391 . S
C1102 H1092 0.950 . S
C1102 C1103 1.386 . S
C1102 C1104 1.391 . S
C1103 C1102 1.386 . S
C1103 C1107 1.393 . S
C1104 H1093 0.950 . S
C1104 C1102 1.391 . S
C1104 C1105 1.400 . S
C1105 C1099 1.491 . S
C1105 C1104 1.400 . S
C1105 C1106 1.398 . S
C1106 H1094 0.950 . S
C1106 C1105 1.398 . S
C1106 C1107 1.391 . S
C1107 H1095 0.950 . S
C1107 C1103 1.393 . S
C1107 C1106 1.391 . S
H1108 C1116 0.950 . S
H1109 C1121 0.950 . S
H1110 C1118 0.950 . S
H1111 C1120 0.950 . S
H1112 C1122 0.950 . S
H1113 C1124 0.950 . S
H1114 C1126 0.950 . S
H1115 C1127 0.950 . S
C1116 H1108 0.950 . S
C1116 C1117 1.386 . S
C1116 C1118 1.391 . S
C1117 C1116 1.386 . S
C1117 C1121 1.393 . S
C1118 H1110 0.950 . S
C1118 C1116 1.391 . S
C1118 C1119 1.400 . S
C1119 C1118 1.400 . S
C1119 C1120 1.398 . S
C1119 C1125 1.491 . S
C1120 H1111 0.950 . S
C1120 C1119 1.398 . S
C1120 C1121 1.391 . S
C1121 H1109 0.950 . S
C1121 C1117 1.393 . S
C1121 C1120 1.391 . S
C1122 H1112 0.950 . S
C1122 C1123 1.386 . S
C1122 C1124 1.391 . S
C1123 C1122 1.386 . S
C1123 C1127 1.393 . S
C1124 H1113 0.950 . S
C1124 C1122 1.391 . S
C1124 C1125 1.400 . S
C1125 C1119 1.491 . S
C1125 C1124 1.400 . S
C1125 C1126 1.398 . S
C1126 H1114 0.950 . S
C1126 C1125 1.398 . S
C1126 C1127 1.391 . S
C1127 H1115 0.950 . S
C1127 C1123 1.393 . S
C1127 C1126 1.391 . S
H1128 C1136 0.950 . S
H1129 C1141 0.950 . S
H1130 C1138 0.950 . S
H1131 C1140 0.950 . S
H1132 C1142 0.950 . S
H1133 C1144 0.950 . S
H1134 C1146 0.950 . S
H1135 C1147 0.950 . S
C1136 H1128 0.950 . S
C1136 C1137 1.386 . S
C1136 C1138 1.391 . S
C1137 C1136 1.386 . S
C1137 C1141 1.393 . S
C1138 H1130 0.950 . S
C1138 C1136 1.391 . S
C1138 C1139 1.400 . S
C1139 C1138 1.400 . S
C1139 C1140 1.398 . S
C1139 C1145 1.491 . S
C1140 H1131 0.950 . S
C1140 C1139 1.398 . S
C1140 C1141 1.391 . S
C1141 H1129 0.950 . S
C1141 C1137 1.393 . S
C1141 C1140 1.391 . S
C1142 H1132 0.950 . S
C1142 C1143 1.386 . S
C1142 C1144 1.391 . S
C1143 C1142 1.386 . S
C1143 C1147 1.393 . S
C1144 H1133 0.950 . S
C1144 C1142 1.391 . S
C1144 C1145 1.400 . S
C1145 C1139 1.491 . S
C1145 C1144 1.400 . S
C1145 C1146 1.398 . S
C1146 H1134 0.950 . S
C1146 C1145 1.398 . S
C1146 C1147 1.391 . S
C1147 H1135 0.950 . S
C1147 C1143 1.393 . S
C1147 C1146 1.391 . S
H1148 C1156 0.950 . S
H1149 C1161 0.950 . S
H1150 C1158 0.950 . S
H1151 C1160 0.950 . S
H1152 C1162 0.950 . S
H1153 C1164 0.950 . S
H1154 C1166 0.950 . S
H1155 C1167 0.950 . S
C1156 H1148 0.950 . S
C1156 C1157 1.386 . S
C1156 C1158 1.391 . S
C1157 C1156 1.386 . S
C1157 C1161 1.393 . S
C1158 H1150 0.950 . S
C1158 C1156 1.391 . S
C1158 C1159 1.400 . S
C1159 C1158 1.400 . S
C1159 C1160 1.398 . S
C1159 C1165 1.491 . S
C1160 H1151 0.950 . S
C1160 C1159 1.398 . S
C1160 C1161 1.391 . S
C1161 H1149 0.950 . S
C1161 C1157 1.393 . S
C1161 C1160 1.391 . S
C1162 H1152 0.950 . S
C1162 C1163 1.386 . S
C1162 C1164 1.391 . S
C1163 C1162 1.386 . S
C1163 C1167 1.393 . S
C1164 H1153 0.950 . S
C1164 C1162 1.391 . S
C1164 C1165 1.400 . S
C1165 C1159 1.491 . S
C1165 C1164 1.400 . S
C1165 C1166 1.398 . S
C1166 H1154 0.950 . S
C1166 C1165 1.398 . S
C1166 C1167 1.391 . S
C1167 H1155 0.950 . S
C1167 C1163 1.393 . S
C1167 C1166 1.391 . S
H1168 C1176 0.950 . S
H1169 C1181 0.950 . S
H1170 C1178 0.950 . S
H1171 C1180 0.950 . S
H1172 C1182 0.950 . S
H1173 C1184 0.950 . S
H1174 C1186 0.950 . S
H1175 C1187 0.950 . S
C1176 H1168 0.950 . S
C1176 C1177 1.386 . S
C1176 C1178 1.391 . S
C1177 C1176 1.386 . S
C1177 C1181 1.393 . S
C1178 H1170 0.950 . S
C1178 C1176 1.391 . S
C1178 C1179 1.400 . S
C1179 C1178 1.400 . S
C1179 C1180 1.398 . S
C1179 C1185 1.491 . S
C1180 H1171 0.950 . S
C1180 C1179 1.398 . S
C1180 C1181 1.391 . S
C1181 H1169 0.950 . S
C1181 C1177 1.393 . S
C1181 C1180 1.391 . S
C1182 H1172 0.950 . S
C1182 C1183 1.386 . S
C1182 C1184 1.391 . S
C1183 C1182 1.386 . S
C1183 C1187 1.393 . S
C1184 H1173 0.950 . S
C1184 C1182 1.391 . S
C1184 C1185 1.400 . S
C1185 C1179 1.491 . S
C1185 C1184 1.400 . S
C1185 C1186 1.398 . S
C1186 H1174 0.950 . S
C1186 C1185 1.398 . S
C1186 C1187 1.391 . S
C1187 H1175 0.950 . S
C1187 C1183 1.393 . S
C1187 C1186 1.391 . S
H1188 C1196 0.950 . S
H1189 C1201 0.950 . S
H1190 C1198 0.950 . S
H1191 C1200 0.950 . S
H1192 C1202 0.950 . S
H1193 C1204 0.950 . S
H1194 C1206 0.950 . S
H1195 C1207 0.950 . S
C1196 H1188 0.950 . S
C1196 C1197 1.386 . S
C1196 C1198 1.391 . S
C1197 C1196 1.386 . S
C1197 C1201 1.393 . S
C1198 H1190 0.950 . S
C1198 C1196 1.391 . S
C1198 C1199 1.400 . S
C1199 C1198 1.400 . S
C1199 C1200 1.398 . S
C1199 C1205 1.491 . S
C1200 H1191 0.950 . S
C1200 C1199 1.398 . S
C1200 C1201 1.391 . S
C1201 H1189 0.950 . S
C1201 C1197 1.393 . S
C1201 C1200 1.391 . S
C1202 H1192 0.950 . S
C1202 C1203 1.386 . S
C1202 C1204 1.391 . S
C1203 C1202 1.386 . S
C1203 C1207 1.393 . S
C1204 H1193 0.950 . S
C1204 C1202 1.391 . S
C1204 C1205 1.400 . S
C1205 C1199 1.491 . S
C1205 C1204 1.400 . S
C1205 C1206 1.398 . S
C1206 H1194 0.950 . S
C1206 C1205 1.398 . S
C1206 C1207 1.391 . S
C1207 H1195 0.950 . S
C1207 C1203 1.393 . S
C1207 C1206 1.391 . S
H1208 C1216 0.950 . S
H1209 C1221 0.950 . S
H1210 C1218 0.950 . S
H1211 C1220 0.950 . S
H1212 C1222 0.950 . S
H1213 C1224 0.950 . S
H1214 C1226 0.950 . S
H1215 C1227 0.950 . S
C1216 H1208 0.950 . S
C1216 C1217 1.386 1_565 S
C1216 C1218 1.391 . S
C1217 C1216 1.386 1_545 S
C1217 C1221 1.393 . S
C1218 H1210 0.950 . S
C1218 C1216 1.391 . S
C1218 C1219 1.400 1_565 S
C1219 C1218 1.400 1_545 S
C1219 C1220 1.398 . S
C1219 C1225 1.491 . S
C1220 H1211 0.950 . S
C1220 C1219 1.398 . S
C1220 C1221 1.391 . S
C1221 H1209 0.950 . S
C1221 C1217 1.393 . S
C1221 C1220 1.391 . S
C1222 H1212 0.950 . S
C1222 C1223 1.386 1_545 S
C1222 C1224 1.391 . S
C1223 C1222 1.386 1_565 S
C1223 C1227 1.393 . S
C1224 H1213 0.950 . S
C1224 C1222 1.391 . S
C1224 C1225 1.409 . S
C1225 C1219 1.491 . S
C1225 C1224 1.409 . S
C1225 C1226 1.389 1_545 S
C1226 H1214 0.950 . S
C1226 C1225 1.389 1_565 S
C1226 C1227 1.391 . S
C1227 H1215 0.950 . S
C1227 C1223 1.393 . S
C1227 C1226 1.391 . S
H1228 C1236 0.950 . S
H1229 C1241 0.950 . S
H1230 C1238 0.950 . S
H1231 C1240 0.950 . S
H1232 C1242 0.950 . S
H1233 C1244 0.950 . S
H1234 C1246 0.950 . S
H1235 C1247 0.950 . S
C1236 H1228 0.950 . S
C1236 C1237 1.386 . S
C1236 C1238 1.391 . S
C1237 C1236 1.386 . S
C1237 C1241 1.393 1_455 S
C1238 H1230 0.950 . S
C1238 C1236 1.391 . S
C1238 C1239 1.394 1_455 S
C1239 C1238 1.394 1_655 S
C1239 C1240 1.404 . S
C1239 C1245 1.491 . S
C1240 H1231 0.950 . S
C1240 C1239 1.404 . S
C1240 C1241 1.391 . S
C1241 H1229 0.950 . S
C1241 C1237 1.393 1_655 S
C1241 C1240 1.391 . S
C1242 H1232 0.950 . S
C1242 C1243 1.386 . S
C1242 C1244 1.391 . S
C1243 C1242 1.386 . S
C1243 C1247 1.393 1_655 S
C1244 H1233 0.950 . S
C1244 C1242 1.391 . S
C1244 C1245 1.400 . S
C1245 C1239 1.491 . S
C1245 C1244 1.400 . S
C1245 C1246 1.398 1_655 S
C1246 H1234 0.950 . S
C1246 C1245 1.398 1_455 S
C1246 C1247 1.391 . S
C1247 H1235 0.950 . S
C1247 C1243 1.393 1_455 S
C1247 C1246 1.391 . S
H1248 C1256 0.950 . S
H1249 C1261 0.950 . S
H1250 C1258 0.950 . S
H1251 C1260 0.950 . S
H1252 C1262 0.950 . S
H1253 C1264 0.950 . S
H1254 C1266 0.950 . S
H1255 C1267 0.950 . S
C1256 H1248 0.950 . S
C1256 C1257 1.386 . S
C1256 C1258 1.391 . S
C1257 C1256 1.386 . S
C1257 C1261 1.393 . S
C1258 H1250 0.950 . S
C1258 C1256 1.391 . S
C1258 C1259 1.400 . S
C1259 C1258 1.400 . S
C1259 C1260 1.398 . S
C1259 C1265 1.491 . S
C1260 H1251 0.950 . S
C1260 C1259 1.398 . S
C1260 C1261 1.391 . S
C1261 H1249 0.950 . S
C1261 C1257 1.393 . S
C1261 C1260 1.391 . S
C1262 H1252 0.950 . S
C1262 C1263 1.386 . S
C1262 C1264 1.391 . S
C1263 C1262 1.386 . S
C1263 C1267 1.393 . S
C1264 H1253 0.950 . S
C1264 C1262 1.391 . S
C1264 C1265 1.400 . S
C1265 C1259 1.491 . S
C1265 C1264 1.400 . S
C1265 C1266 1.398 . S
C1266 H1254 0.950 . S
C1266 C1265 1.398 . S
C1266 C1267 1.391 . S
C1267 H1255 0.950 . S
C1267 C1263 1.393 . S
C1267 C1266 1.391 . S
H1268 C1276 0.950 . S
H1269 C1281 0.950 . S
H1270 C1278 0.950 . S
H1271 C1280 0.950 . S
H1272 C1282 0.950 . S
H1273 C1284 0.950 . S
H1274 C1286 0.950 . S
H1275 C1287 0.950 . S
C1276 H1268 0.950 . S
C1276 C1277 1.386 . S
C1276 C1278 1.391 . S
C1277 C1276 1.386 . S
C1277 C1281 1.393 1_565 S
C1278 H1270 0.950 . S
C1278 C1276 1.391 . S
C1278 C1279 1.400 . S
C1279 C1278 1.400 . S
C1279 C1280 1.398 1_565 S
C1279 C1285 1.491 1_565 S
C1280 H1271 0.950 . S
C1280 C1279 1.398 1_545 S
C1280 C1281 1.391 . S
C1281 H1269 0.950 . S
C1281 C1277 1.393 1_545 S
C1281 C1280 1.391 . S
C1282 H1272 0.950 . S
C1282 C1283 1.386 . S
C1282 C1284 1.391 . S
C1283 C1282 1.386 . S
C1283 C1287 1.393 1_545 S
C1284 H1273 0.950 . S
C1284 C1282 1.391 . S
C1284 C1285 1.399 . S
C1285 C1279 1.491 1_545 S
C1285 C1284 1.399 . S
C1285 C1286 1.399 1_545 S
C1286 H1274 0.950 . S
C1286 C1285 1.399 1_565 S
C1286 C1287 1.391 . S
C1287 H1275 0.950 . S
C1287 C1283 1.393 1_565 S
C1287 C1286 1.391 . S
H1288 C1296 0.950 . S
H1289 C1301 0.950 . S
H1290 C1298 0.950 . S
H1291 C1300 0.950 . S
H1292 C1302 0.950 . S
H1293 C1304 0.950 . S
H1294 C1306 0.950 . S
H1295 C1307 0.950 . S
C1296 H1288 0.950 . S
C1296 C1297 1.386 . S
C1296 C1298 1.391 . S
C1297 C1296 1.386 . S
C1297 C1301 1.393 1_655 S
C1298 H1290 0.950 . S
C1298 C1296 1.391 . S
C1298 C1299 1.405 1_655 S
C1299 C1298 1.405 1_455 S
C1299 C1300 1.393 . S
C1299 C1305 1.493 . S
C1300 H1291 0.950 . S
C1300 C1299 1.393 . S
C1300 C1301 1.391 . S
C1301 H1289 0.950 . S
C1301 C1297 1.393 1_455 S
C1301 C1300 1.391 . S
C1302 H1292 0.950 . S
C1302 C1303 1.386 . S
C1302 C1304 1.391 . S
C1303 C1302 1.386 . S
C1303 C1307 1.393 1_455 S
C1304 H1293 0.950 . S
C1304 C1302 1.391 . S
C1304 C1305 1.400 . S
C1305 C1299 1.493 . S
C1305 C1304 1.400 . S
C1305 C1306 1.398 1_455 S
C1306 H1294 0.950 . S
C1306 C1305 1.398 1_655 S
C1306 C1307 1.391 . S
C1307 H1295 0.950 . S
C1307 C1303 1.393 1_655 S
C1307 C1306 1.391 . S
H1308 C1316 0.950 . S
H1309 C1321 0.950 . S
H1310 C1318 0.950 . S
H1311 C1320 0.950 . S
H1312 C1322 0.950 . S
H1313 C1324 0.950 . S
H1314 C1326 0.950 . S
H1315 C1327 0.950 . S
C1316 H1308 0.950 . S
C1316 C1317 1.386 . S
C1316 C1318 1.391 . S
C1317 C1316 1.386 . S
C1317 C1321 1.393 . S
C1318 H1310 0.950 . S
C1318 C1316 1.391 . S
C1318 C1319 1.400 . S
C1319 C1318 1.400 . S
C1319 C1320 1.398 . S
C1319 C1325 1.491 . S
C1320 H1311 0.950 . S
C1320 C1319 1.398 . S
C1320 C1321 1.391 . S
C1321 H1309 0.950 . S
C1321 C1317 1.393 . S
C1321 C1320 1.391 . S
C1322 H1312 0.950 . S
C1322 C1323 1.386 . S
C1322 C1324 1.391 . S
C1323 C1322 1.386 . S
C1323 C1327 1.393 . S
C1324 H1313 0.950 . S
C1324 C1322 1.391 . S
C1324 C1325 1.400 . S
C1325 C1319 1.491 . S
C1325 C1324 1.400 . S
C1325 C1326 1.398 . S
C1326 H1314 0.950 . S
C1326 C1325 1.398 . S
C1326 C1327 1.391 . S
C1327 H1315 0.950 . S
C1327 C1323 1.393 . S
C1327 C1326 1.391 . S
H1328 C1336 0.950 . S
H1329 C1341 0.950 . S
H1330 C1338 0.950 . S
H1331 C1340 0.950 . S
H1332 C1342 0.950 . S
H1333 C1344 0.950 . S
H1334 C1346 0.950 . S
H1335 C1347 0.950 . S
C1336 H1328 0.950 . S
C1336 C1337 1.386 . S
C1336 C1338 1.391 . S
C1337 C1336 1.386 . S
C1337 C1341 1.393 . S
C1338 H1330 0.950 . S
C1338 C1336 1.391 . S
C1338 C1339 1.400 . S
C1339 C1338 1.400 . S
C1339 C1340 1.398 . S
C1339 C1345 1.491 . S
C1340 H1331 0.950 . S
C1340 C1339 1.398 . S
C1340 C1341 1.391 . S
C1341 H1329 0.950 . S
C1341 C1337 1.393 . S
C1341 C1340 1.391 . S
C1342 H1332 0.950 . S
C1342 C1343 1.386 . S
C1342 C1344 1.391 . S
C1343 C1342 1.386 . S
C1343 C1347 1.393 . S
C1344 H1333 0.950 . S
C1344 C1342 1.391 . S
C1344 C1345 1.400 . S
C1345 C1339 1.491 . S
C1345 C1344 1.400 . S
C1345 C1346 1.398 . S
C1346 H1334 0.950 . S
C1346 C1345 1.398 . S
C1346 C1347 1.391 . S
C1347 H1335 0.950 . S
C1347 C1343 1.393 . S
C1347 C1346 1.391 . S
H1348 C1356 0.950 . S
H1349 C1361 0.950 . S
H1350 C1358 0.950 . S
H1351 C1360 0.950 . S
H1352 C1362 0.950 . S
H1353 C1364 0.950 . S
H1354 C1366 0.950 . S
H1355 C1367 0.950 . S
C1356 H1348 0.950 . S
C1356 C1357 1.386 . S
C1356 C1358 1.391 . S
C1357 C1356 1.386 . S
C1357 C1361 1.393 . S
C1358 H1350 0.950 . S
C1358 C1356 1.391 . S
C1358 C1359 1.400 . S
C1359 C1358 1.400 . S
C1359 C1360 1.398 . S
C1359 C1365 1.491 . S
C1360 H1351 0.950 . S
C1360 C1359 1.398 . S
C1360 C1361 1.391 . S
C1361 H1349 0.950 . S
C1361 C1357 1.393 . S
C1361 C1360 1.391 . S
C1362 H1352 0.950 . S
C1362 C1363 1.386 . S
C1362 C1364 1.391 . S
C1363 C1362 1.386 . S
C1363 C1367 1.393 . S
C1364 H1353 0.950 . S
C1364 C1362 1.391 . S
C1364 C1365 1.400 . S
C1365 C1359 1.491 . S
C1365 C1364 1.400 . S
C1365 C1366 1.398 . S
C1366 H1354 0.950 . S
C1366 C1365 1.398 . S
C1366 C1367 1.391 . S
C1367 H1355 0.950 . S
C1367 C1363 1.393 . S
C1367 C1366 1.391 . S
H1368 C1376 0.950 . S
H1369 C1381 0.950 . S
H1370 C1378 0.950 . S
H1371 C1380 0.950 . S
H1372 C1382 0.950 . S
H1373 C1384 0.950 . S
H1374 C1386 0.950 . S
H1375 C1387 0.950 . S
C1376 H1368 0.950 . S
C1376 C1377 1.386 . S
C1376 C1378 1.391 . S
C1377 C1376 1.386 . S
C1377 C1381 1.393 . S
C1378 H1370 0.950 . S
C1378 C1376 1.391 . S
C1378 C1379 1.400 . S
C1379 C1378 1.400 . S
C1379 C1380 1.398 . S
C1379 C1385 1.491 . S
C1380 H1371 0.950 . S
C1380 C1379 1.398 . S
C1380 C1381 1.391 . S
C1381 H1369 0.950 . S
C1381 C1377 1.393 . S
C1381 C1380 1.391 . S
C1382 H1372 0.950 . S
C1382 C1383 1.386 . S
C1382 C1384 1.391 . S
C1383 C1382 1.386 . S
C1383 C1387 1.393 . S
C1384 H1373 0.950 . S
C1384 C1382 1.391 . S
C1384 C1385 1.400 . S
C1385 C1379 1.491 . S
C1385 C1384 1.400 . S
C1385 C1386 1.398 . S
C1386 H1374 0.950 . S
C1386 C1385 1.398 . S
C1386 C1387 1.391 . S
C1387 H1375 0.950 . S
C1387 C1383 1.393 . S
C1387 C1386 1.391 . S
H1388 C1396 0.950 . S
H1389 C1401 0.950 . S
H1390 C1398 0.950 . S
H1391 C1400 0.950 . S
H1392 C1402 0.950 . S
H1393 C1404 0.950 . S
H1394 C1406 0.950 . S
H1395 C1407 0.950 . S
C1396 H1388 0.950 . S
C1396 C1397 1.386 . S
C1396 C1398 1.391 . S
C1397 C1396 1.386 . S
C1397 C1401 1.393 . S
C1398 H1390 0.950 . S
C1398 C1396 1.391 . S
C1398 C1399 1.400 . S
C1399 C1398 1.400 . S
C1399 C1400 1.398 . S
C1399 C1405 1.491 . S
C1400 H1391 0.950 . S
C1400 C1399 1.398 . S
C1400 C1401 1.391 . S
C1401 H1389 0.950 . S
C1401 C1397 1.393 . S
C1401 C1400 1.391 . S
C1402 H1392 0.950 . S
C1402 C1403 1.386 . S
C1402 C1404 1.391 . S
C1403 C1402 1.386 . S
C1403 C1407 1.393 . S
C1404 H1393 0.950 . S
C1404 C1402 1.391 . S
C1404 C1405 1.400 . S
C1405 C1399 1.491 . S
C1405 C1404 1.400 . S
C1405 C1406 1.398 . S
C1406 H1394 0.950 . S
C1406 C1405 1.398 . S
C1406 C1407 1.391 . S
C1407 H1395 0.950 . S
C1407 C1403 1.393 . S
C1407 C1406 1.391 . S
H1408 C1416 0.950 . S
H1409 C1421 0.950 . S
H1410 C1418 0.950 . S
H1411 C1420 0.950 . S
H1412 C1422 0.950 . S
H1413 C1424 0.950 . S
H1414 C1426 0.950 . S
H1415 C1427 0.950 . S
C1416 H1408 0.950 . S
C1416 C1417 1.386 . S
C1416 C1418 1.391 . S
C1417 C1416 1.386 . S
C1417 C1421 1.393 . S
C1418 H1410 0.950 . S
C1418 C1416 1.391 . S
C1418 C1419 1.400 . S
C1419 C1418 1.400 . S
C1419 C1420 1.398 . S
C1419 C1425 1.491 . S
C1420 H1411 0.950 . S
C1420 C1419 1.398 . S
C1420 C1421 1.391 . S
C1421 H1409 0.950 . S
C1421 C1417 1.393 . S
C1421 C1420 1.391 . S
C1422 H1412 0.950 . S
C1422 C1423 1.386 . S
C1422 C1424 1.391 . S
C1423 C1422 1.386 . S
C1423 C1427 1.393 . S
C1424 H1413 0.950 . S
C1424 C1422 1.391 . S
C1424 C1425 1.400 . S
C1425 C1419 1.491 . S
C1425 C1424 1.400 . S
C1425 C1426 1.398 . S
C1426 H1414 0.950 . S
C1426 C1425 1.398 . S
C1426 C1427 1.391 . S
C1427 H1415 0.950 . S
C1427 C1423 1.393 . S
C1427 C1426 1.391 . S
H1428 C1436 0.950 . S
H1429 C1441 0.950 . S
H1430 C1438 0.950 . S
H1431 C1440 0.950 . S
H1432 C1442 0.950 . S
H1433 C1444 0.950 . S
H1434 C1446 0.950 . S
H1435 C1447 0.950 . S
C1436 H1428 0.950 . S
C1436 C1437 1.386 . S
C1436 C1438 1.391 . S
C1437 C1436 1.386 . S
C1437 C1441 1.393 . S
C1438 H1430 0.950 . S
C1438 C1436 1.391 . S
C1438 C1439 1.400 . S
C1439 C1438 1.400 . S
C1439 C1440 1.398 . S
C1439 C1445 1.491 . S
C1440 H1431 0.950 . S
C1440 C1439 1.398 . S
C1440 C1441 1.391 . S
C1441 H1429 0.950 . S
C1441 C1437 1.393 . S
C1441 C1440 1.391 . S
C1442 H1432 0.950 . S
C1442 C1443 1.386 . S
C1442 C1444 1.391 . S
C1443 C1442 1.386 . S
C1443 C1447 1.393 . S
C1444 H1433 0.950 . S
C1444 C1442 1.391 . S
C1444 C1445 1.400 . S
C1445 C1439 1.491 . S
C1445 C1444 1.400 . S
C1445 C1446 1.398 . S
C1446 H1434 0.950 . S
C1446 C1445 1.398 . S
C1446 C1447 1.391 . S
C1447 H1435 0.950 . S
C1447 C1443 1.393 . S
C1447 C1446 1.391 . S
H1448 C1456 0.950 . S
H1449 C1461 0.950 . S
H1450 C1458 0.950 . S
H1451 C1460 0.950 . S
H1452 C1462 0.950 . S
H1453 C1464 0.950 . S
H1454 C1466 0.950 . S
H1455 C1467 0.950 . S
C1456 H1448 0.950 . S
C1456 C1457 1.386 . S
C1456 C1458 1.391 . S
C1457 C1456 1.386 . S
C1457 C1461 1.393 . S
C1458 H1450 0.950 . S
C1458 C1456 1.391 . S
C1458 C1459 1.400 . S
C1459 C1458 1.400 . S
C1459 C1460 1.398 . S
C1459 C1465 1.491 . S
C1460 H1451 0.950 . S
C1460 C1459 1.398 . S
C1460 C1461 1.391 . S
C1461 H1449 0.950 . S
C1461 C1457 1.393 . S
C1461 C1460 1.391 . S
C1462 H1452 0.950 . S
C1462 C1463 1.386 . S
C1462 C1464 1.391 . S
C1463 C1462 1.386 . S
C1463 C1467 1.393 . S
C1464 H1453 0.950 . S
C1464 C1462 1.391 . S
C1464 C1465 1.400 . S
C1465 C1459 1.491 . S
C1465 C1464 1.400 . S
C1465 C1466 1.398 . S
C1466 H1454 0.950 . S
C1466 C1465 1.398 . S
C1466 C1467 1.391 . S
C1467 H1455 0.950 . S
C1467 C1463 1.393 . S
C1467 C1466 1.391 . S
H1468 C1476 0.950 . S
H1469 C1481 0.950 . S
H1470 C1478 0.950 . S
H1471 C1480 0.950 . S
H1472 C1482 0.950 . S
H1473 C1484 0.950 . S
H1474 C1486 0.950 . S
H1475 C1487 0.950 . S
C1476 H1468 0.950 . S
C1476 C1477 1.386 . S
C1476 C1478 1.391 . S
C1477 C1476 1.386 . S
C1477 C1481 1.393 . S
C1478 H1470 0.950 . S
C1478 C1476 1.391 . S
C1478 C1479 1.400 . S
C1479 C1478 1.400 . S
C1479 C1480 1.398 . S
C1479 C1485 1.491 . S
C1480 H1471 0.950 . S
C1480 C1479 1.398 . S
C1480 C1481 1.391 . S
C1481 H1469 0.950 . S
C1481 C1477 1.393 . S
C1481 C1480 1.391 . S
C1482 H1472 0.950 . S
C1482 C1483 1.386 . S
C1482 C1484 1.391 . S
C1483 C1482 1.386 . S
C1483 C1487 1.393 . S
C1484 H1473 0.950 . S
C1484 C1482 1.391 . S
C1484 C1485 1.400 . S
C1485 C1479 1.491 . S
C1485 C1484 1.400 . S
C1485 C1486 1.398 . S
C1486 H1474 0.950 . S
C1486 C1485 1.398 . S
C1486 C1487 1.391 . S
C1487 H1475 0.950 . S
C1487 C1483 1.393 . S
C1487 C1486 1.391 . S
H1488 C1496 0.950 . S
H1489 C1501 0.950 . S
H1490 C1498 0.950 . S
H1491 C1500 0.950 . S
H1492 C1502 0.950 . S
H1493 C1504 0.950 . S
H1494 C1506 0.950 . S
H1495 C1507 0.950 . S
C1496 H1488 0.950 . S
C1496 C1497 1.386 . S
C1496 C1498 1.391 . S
C1497 C1496 1.386 . S
C1497 C1501 1.393 . S
C1498 H1490 0.950 . S
C1498 C1496 1.391 . S
C1498 C1499 1.400 . S
C1499 C1498 1.400 . S
C1499 C1500 1.398 . S
C1499 C1505 1.491 . S
C1500 H1491 0.950 . S
C1500 C1499 1.398 . S
C1500 C1501 1.391 . S
C1501 H1489 0.950 . S
C1501 C1497 1.393 . S
C1501 C1500 1.391 . S
C1502 H1492 0.950 . S
C1502 C1503 1.386 . S
C1502 C1504 1.391 . S
C1503 C1502 1.386 . S
C1503 C1507 1.393 . S
C1504 H1493 0.950 . S
C1504 C1502 1.391 . S
C1504 C1505 1.400 . S
C1505 C1499 1.491 . S
C1505 C1504 1.400 . S
C1505 C1506 1.398 . S
C1506 H1494 0.950 . S
C1506 C1505 1.398 . S
C1506 C1507 1.391 . S
C1507 H1495 0.950 . S
C1507 C1503 1.393 . S
C1507 C1506 1.391 . S
H1508 C1516 0.950 . S
H1509 C1521 0.950 . S
H1510 C1518 0.950 . S
H1511 C1520 0.950 . S
H1512 C1522 0.950 . S
H1513 C1524 0.950 . S
H1514 C1526 0.950 . S
H1515 C1527 0.950 . S
C1516 H1508 0.950 . S
C1516 C1517 1.386 . S
C1516 C1518 1.391 . S
C1517 C1516 1.386 . S
C1517 C1521 1.393 . S
C1518 H1510 0.950 . S
C1518 C1516 1.391 . S
C1518 C1519 1.400 . S
C1519 C1518 1.400 . S
C1519 C1520 1.398 . S
C1519 C1525 1.491 . S
C1520 H1511 0.950 . S
C1520 C1519 1.398 . S
C1520 C1521 1.391 . S
C1521 H1509 0.950 . S
C1521 C1517 1.393 . S
C1521 C1520 1.391 . S
C1522 H1512 0.950 . S
C1522 C1523 1.386 . S
C1522 C1524 1.391 . S
C1523 C1522 1.386 . S
C1523 C1527 1.393 . S
C1524 H1513 0.950 . S
C1524 C1522 1.391 . S
C1524 C1525 1.400 . S
C1525 C1519 1.491 . S
C1525 C1524 1.400 . S
C1525 C1526 1.398 . S
C1526 H1514 0.950 . S
C1526 C1525 1.398 . S
C1526 C1527 1.391 . S
C1527 H1515 0.950 . S
C1527 C1523 1.393 . S
C1527 C1526 1.391 . S
H1528 C1536 0.950 . S
H1529 C1541 0.950 . S
H1530 C1538 0.950 . S
H1531 C1540 0.950 . S
H1532 C1542 0.950 . S
H1533 C1544 0.950 . S
H1534 C1546 0.950 . S
H1535 C1547 0.950 . S
C1536 H1528 0.950 . S
C1536 C1537 1.386 . S
C1536 C1538 1.391 . S
C1537 C1536 1.386 . S
C1537 C1541 1.393 . S
C1538 H1530 0.950 . S
C1538 C1536 1.391 . S
C1538 C1539 1.400 . S
C1539 C1538 1.400 . S
C1539 C1540 1.398 . S
C1539 C1545 1.491 . S
C1540 H1531 0.950 . S
C1540 C1539 1.398 . S
C1540 C1541 1.391 . S
C1541 H1529 0.950 . S
C1541 C1537 1.393 . S
C1541 C1540 1.391 . S
C1542 H1532 0.950 . S
C1542 C1543 1.386 . S
C1542 C1544 1.391 . S
C1543 C1542 1.386 . S
C1543 C1547 1.393 . S
C1544 H1533 0.950 . S
C1544 C1542 1.391 . S
C1544 C1545 1.400 . S
C1545 C1539 1.491 . S
C1545 C1544 1.400 . S
C1545 C1546 1.398 . S
C1546 H1534 0.950 . S
C1546 C1545 1.398 . S
C1546 C1547 1.391 . S
C1547 H1535 0.950 . S
C1547 C1543 1.393 . S
C1547 C1546 1.391 . S
H1548 C1556 0.950 . S
H1549 C1561 0.950 . S
H1550 C1558 0.950 . S
H1551 C1560 0.950 . S
H1552 C1562 0.950 . S
H1553 C1564 0.950 . S
H1554 C1566 0.950 . S
H1555 C1567 0.950 . S
C1556 H1548 0.950 . S
C1556 C1557 1.386 . S
C1556 C1558 1.391 . S
C1557 C1556 1.386 . S
C1557 C1561 1.393 . S
C1558 H1550 0.950 . S
C1558 C1556 1.391 . S
C1558 C1559 1.400 . S
C1559 C1558 1.400 . S
C1559 C1560 1.398 . S
C1559 C1565 1.491 . S
C1560 H1551 0.950 . S
C1560 C1559 1.398 . S
C1560 C1561 1.391 . S
C1561 H1549 0.950 . S
C1561 C1557 1.393 . S
C1561 C1560 1.391 . S
C1562 H1552 0.950 . S
C1562 C1563 1.386 . S
C1562 C1564 1.391 . S
C1563 C1562 1.386 . S
C1563 C1567 1.393 . S
C1564 H1553 0.950 . S
C1564 C1562 1.391 . S
C1564 C1565 1.400 . S
C1565 C1559 1.491 . S
C1565 C1564 1.400 . S
C1565 C1566 1.398 . S
C1566 H1554 0.950 . S
C1566 C1565 1.398 . S
C1566 C1567 1.391 . S
C1567 H1555 0.950 . S
C1567 C1563 1.393 . S
C1567 C1566 1.391 . S
H1568 C1576 0.950 . S
H1569 C1581 0.950 . S
H1570 C1578 0.950 . S
H1571 C1580 0.950 . S
H1572 C1582 0.950 . S
H1573 C1584 0.950 . S
H1574 C1586 0.950 . S
H1575 C1587 0.950 . S
C1576 H1568 0.950 . S
C1576 C1577 1.386 . S
C1576 C1578 1.391 . S
C1577 C1576 1.386 . S
C1577 C1581 1.393 . S
C1578 H1570 0.950 . S
C1578 C1576 1.391 . S
C1578 C1579 1.400 . S
C1579 C1578 1.400 . S
C1579 C1580 1.398 . S
C1579 C1585 1.491 . S
C1580 H1571 0.950 . S
C1580 C1579 1.398 . S
C1580 C1581 1.391 . S
C1581 H1569 0.950 . S
C1581 C1577 1.393 . S
C1581 C1580 1.391 . S
C1582 H1572 0.950 . S
C1582 C1583 1.386 . S
C1582 C1584 1.391 . S
C1583 C1582 1.386 . S
C1583 C1587 1.393 . S
C1584 H1573 0.950 . S
C1584 C1582 1.391 . S
C1584 C1585 1.400 . S
C1585 C1579 1.491 . S
C1585 C1584 1.400 . S
C1585 C1586 1.398 . S
C1586 H1574 0.950 . S
C1586 C1585 1.398 . S
C1586 C1587 1.391 . S
C1587 H1575 0.950 . S
C1587 C1583 1.393 . S
C1587 C1586 1.391 . S
H1588 C1596 0.950 . S
H1589 C1601 0.950 . S
H1590 C1598 0.950 . S
H1591 C1600 0.950 . S
H1592 C1602 0.950 . S
H1593 C1604 0.950 . S
H1594 C1606 0.950 . S
H1595 C1607 0.950 . S
C1596 H1588 0.950 . S
C1596 C1597 1.386 . S
C1596 C1598 1.391 . S
C1597 C1596 1.386 . S
C1597 C1601 1.393 . S
C1598 H1590 0.950 . S
C1598 C1596 1.391 . S
C1598 C1599 1.400 . S
C1599 C1598 1.400 . S
C1599 C1600 1.398 . S
C1599 C1605 1.491 . S
C1600 H1591 0.950 . S
C1600 C1599 1.398 . S
C1600 C1601 1.391 . S
C1601 H1589 0.950 . S
C1601 C1597 1.393 . S
C1601 C1600 1.391 . S
C1602 H1592 0.950 . S
C1602 C1603 1.386 . S
C1602 C1604 1.391 . S
C1603 C1602 1.386 . S
C1603 C1607 1.393 . S
C1604 H1593 0.950 . S
C1604 C1602 1.391 . S
C1604 C1605 1.400 . S
C1605 C1599 1.491 . S
C1605 C1604 1.400 . S
C1605 C1606 1.398 . S
C1606 H1594 0.950 . S
C1606 C1605 1.398 . S
C1606 C1607 1.391 . S
C1607 H1595 0.950 . S
C1607 C1603 1.393 . S
C1607 C1606 1.391 . S
H1608 C1616 0.950 . S
H1609 C1621 0.950 . S
H1610 C1618 0.950 . S
H1611 C1620 0.950 . S
H1612 C1622 0.950 . S
H1613 C1624 0.950 . S
H1614 C1626 0.950 . S
H1615 C1627 0.950 . S
C1616 H1608 0.950 . S
C1616 C1617 1.386 . S
C1616 C1618 1.391 . S
C1617 C1616 1.386 . S
C1617 C1621 1.393 . S
C1618 H1610 0.950 . S
C1618 C1616 1.391 . S
C1618 C1619 1.400 . S
C1619 C1618 1.400 . S
C1619 C1620 1.398 . S
C1619 C1625 1.491 . S
C1620 H1611 0.950 . S
C1620 C1619 1.398 . S
C1620 C1621 1.391 . S
C1621 H1609 0.950 . S
C1621 C1617 1.393 . S
C1621 C1620 1.391 . S
C1622 H1612 0.950 . S
C1622 C1623 1.386 . S
C1622 C1624 1.391 . S
C1623 C1622 1.386 . S
C1623 C1627 1.393 . S
C1624 H1613 0.950 . S
C1624 C1622 1.391 . S
C1624 C1625 1.400 . S
C1625 C1619 1.491 . S
C1625 C1624 1.400 . S
C1625 C1626 1.398 . S
C1626 H1614 0.950 . S
C1626 C1625 1.398 . S
C1626 C1627 1.391 . S
C1627 H1615 0.950 . S
C1627 C1623 1.393 . S
C1627 C1626 1.391 . S
H1628 C1636 0.950 . S
H1629 C1641 0.950 . S
H1630 C1638 0.950 . S
H1631 C1640 0.950 . S
H1632 C1642 0.950 . S
H1633 C1644 0.950 . S
H1634 C1646 0.950 . S
H1635 C1647 0.950 . S
C1636 H1628 0.950 . S
C1636 C1637 1.386 . S
C1636 C1638 1.391 . S
C1637 C1636 1.386 . S
C1637 C1641 1.393 . S
C1638 H1630 0.950 . S
C1638 C1636 1.391 . S
C1638 C1639 1.400 . S
C1639 C1638 1.400 . S
C1639 C1640 1.398 . S
C1639 C1645 1.491 . S
C1640 H1631 0.950 . S
C1640 C1639 1.398 . S
C1640 C1641 1.391 . S
C1641 H1629 0.950 . S
C1641 C1637 1.393 . S
C1641 C1640 1.391 . S
C1642 H1632 0.950 . S
C1642 C1643 1.386 . S
C1642 C1644 1.391 . S
C1643 C1642 1.386 . S
C1643 C1647 1.393 . S
C1644 H1633 0.950 . S
C1644 C1642 1.391 . S
C1644 C1645 1.400 . S
C1645 C1639 1.491 . S
C1645 C1644 1.400 . S
C1645 C1646 1.398 . S
C1646 H1634 0.950 . S
C1646 C1645 1.398 . S
C1646 C1647 1.391 . S
C1647 H1635 0.950 . S
C1647 C1643 1.393 . S
C1647 C1646 1.391 . S
H1648 C1656 0.950 . S
H1649 C1661 0.950 . S
H1650 C1658 0.950 . S
H1651 C1660 0.950 . S
H1652 C1662 0.950 . S
H1653 C1664 0.950 . S
H1654 C1666 0.950 . S
H1655 C1667 0.950 . S
C1656 H1648 0.950 . S
C1656 C1657 1.386 . S
C1656 C1658 1.391 . S
C1657 C1656 1.386 . S
C1657 C1661 1.393 . S
C1658 H1650 0.950 . S
C1658 C1656 1.391 . S
C1658 C1659 1.400 . S
C1659 C1658 1.400 . S
C1659 C1660 1.398 . S
C1659 C1665 1.491 . S
C1660 H1651 0.950 . S
C1660 C1659 1.398 . S
C1660 C1661 1.391 . S
C1661 H1649 0.950 . S
C1661 C1657 1.393 . S
C1661 C1660 1.391 . S
C1662 H1652 0.950 . S
C1662 C1663 1.386 . S
C1662 C1664 1.391 . S
C1663 C1662 1.386 . S
C1663 C1667 1.393 . S
C1664 H1653 0.950 . S
C1664 C1662 1.391 . S
C1664 C1665 1.400 . S
C1665 C1659 1.491 . S
C1665 C1664 1.400 . S
C1665 C1666 1.398 . S
C1666 H1654 0.950 . S
C1666 C1665 1.398 . S
C1666 C1667 1.391 . S
C1667 H1655 0.950 . S
C1667 C1663 1.393 . S
C1667 C1666 1.391 . S
H1668 C1676 0.950 . S
H1669 C1681 0.950 . S
H1670 C1678 0.950 . S
H1671 C1680 0.950 . S
H1672 C1682 0.950 . S
H1673 C1684 0.950 . S
H1674 C1686 0.950 . S
H1675 C1687 0.950 . S
C1676 H1668 0.950 . S
C1676 C1677 1.386 . S
C1676 C1678 1.391 . S
C1677 C1676 1.386 . S
C1677 C1681 1.393 . S
C1678 H1670 0.950 . S
C1678 C1676 1.391 . S
C1678 C1679 1.400 . S
C1679 C1678 1.400 . S
C1679 C1680 1.398 . S
C1679 C1685 1.491 . S
C1680 H1671 0.950 . S
C1680 C1679 1.398 . S
C1680 C1681 1.391 . S
C1681 H1669 0.950 . S
C1681 C1677 1.393 . S
C1681 C1680 1.391 . S
C1682 H1672 0.950 . S
C1682 C1683 1.386 . S
C1682 C1684 1.391 . S
C1683 C1682 1.386 . S
C1683 C1687 1.393 . S
C1684 H1673 0.950 . S
C1684 C1682 1.391 . S
C1684 C1685 1.400 . S
C1685 C1679 1.491 . S
C1685 C1684 1.400 . S
C1685 C1686 1.398 . S
C1686 H1674 0.950 . S
C1686 C1685 1.398 . S
C1686 C1687 1.391 . S
C1687 H1675 0.950 . S
C1687 C1683 1.393 . S
C1687 C1686 1.391 . S
H1688 C1696 0.950 . S
H1689 C1701 0.950 . S
H1690 C1698 0.950 . S
H1691 C1700 0.950 . S
H1692 C1702 0.950 . S
H1693 C1704 0.950 . S
H1694 C1706 0.950 . S
H1695 C1707 0.950 . S
C1696 H1688 0.950 . S
C1696 C1697 1.386 . S
C1696 C1698 1.391 . S
C1697 C1696 1.386 . S
C1697 C1701 1.393 . S
C1698 H1690 0.950 . S
C1698 C1696 1.391 . S
C1698 C1699 1.400 . S
C1699 C1698 1.400 . S
C1699 C1700 1.398 . S
C1699 C1705 1.491 . S
C1700 H1691 0.950 . S
C1700 C1699 1.398 . S
C1700 C1701 1.391 . S
C1701 H1689 0.950 . S
C1701 C1697 1.393 . S
C1701 C1700 1.391 . S
C1702 H1692 0.950 . S
C1702 C1703 1.386 . S
C1702 C1704 1.391 . S
C1703 C1702 1.386 . S
C1703 C1707 1.393 . S
C1704 H1693 0.950 . S
C1704 C1702 1.391 . S
C1704 C1705 1.400 . S
C1705 C1699 1.491 . S
C1705 C1704 1.400 . S
C1705 C1706 1.398 . S
C1706 H1694 0.950 . S
C1706 C1705 1.398 . S
C1706 C1707 1.391 . S
C1707 H1695 0.950 . S
C1707 C1703 1.393 . S
C1707 C1706 1.391 . S
H1708 C1716 0.950 . S
H1709 C1721 0.950 . S
H1710 C1718 0.950 . S
H1711 C1720 0.950 . S
H1712 C1722 0.950 . S
H1713 C1724 0.950 . S
H1714 C1726 0.950 . S
H1715 C1727 0.950 . S
C1716 H1708 0.950 . S
C1716 C1717 1.386 . S
C1716 C1718 1.391 . S
C1717 C1716 1.386 . S
C1717 C1721 1.393 . S
C1718 H1710 0.950 . S
C1718 C1716 1.391 . S
C1718 C1719 1.400 . S
C1719 C1718 1.400 . S
C1719 C1720 1.398 . S
C1719 C1725 1.491 . S
C1720 H1711 0.950 . S
C1720 C1719 1.398 . S
C1720 C1721 1.391 . S
C1721 H1709 0.950 . S
C1721 C1717 1.393 . S
C1721 C1720 1.391 . S
C1722 H1712 0.950 . S
C1722 C1723 1.386 . S
C1722 C1724 1.391 . S
C1723 C1722 1.386 . S
C1723 C1727 1.393 . S
C1724 H1713 0.950 . S
C1724 C1722 1.391 . S
C1724 C1725 1.400 . S
C1725 C1719 1.491 . S
C1725 C1724 1.400 . S
C1725 C1726 1.398 . S
C1726 H1714 0.950 . S
C1726 C1725 1.398 . S
C1726 C1727 1.391 . S
C1727 H1715 0.950 . S
C1727 C1723 1.393 . S
C1727 C1726 1.391 . S
H1728 C1736 0.950 . S
H1729 C1741 0.950 . S
H1730 C1738 0.950 . S
H1731 C1740 0.950 . S
H1732 C1742 0.950 . S
H1733 C1744 0.950 . S
H1734 C1746 0.950 . S
H1735 C1747 0.950 . S
C1736 H1728 0.950 . S
C1736 C1737 1.386 . S
C1736 C1738 1.391 . S
C1737 C1736 1.386 . S
C1737 C1741 1.393 . S
C1738 H1730 0.950 . S
C1738 C1736 1.391 . S
C1738 C1739 1.400 . S
C1739 C1738 1.400 . S
C1739 C1740 1.398 . S
C1739 C1745 1.491 . S
C1740 H1731 0.950 . S
C1740 C1739 1.398 . S
C1740 C1741 1.391 . S
C1741 H1729 0.950 . S
C1741 C1737 1.393 . S
C1741 C1740 1.391 . S
C1742 H1732 0.950 . S
C1742 C1743 1.386 . S
C1742 C1744 1.391 . S
C1743 C1742 1.386 . S
C1743 C1747 1.393 . S
C1744 H1733 0.950 . S
C1744 C1742 1.391 . S
C1744 C1745 1.400 . S
C1745 C1739 1.491 . S
C1745 C1744 1.400 . S
C1745 C1746 1.398 . S
C1746 H1734 0.950 . S
C1746 C1745 1.398 . S
C1746 C1747 1.391 . S
C1747 H1735 0.950 . S
C1747 C1743 1.393 . S
C1747 C1746 1.391 . S
H1748 C1756 0.950 . S
H1749 C1761 0.950 . S
H1750 C1758 0.950 . S
H1751 C1760 0.950 . S
H1752 C1762 0.950 . S
H1753 C1764 0.950 . S
H1754 C1766 0.950 . S
H1755 C1767 0.950 . S
C1756 H1748 0.950 . S
C1756 C1757 1.386 . S
C1756 C1758 1.391 . S
C1757 C1756 1.386 . S
C1757 C1761 1.393 . S
C1758 H1750 0.950 . S
C1758 C1756 1.391 . S
C1758 C1759 1.400 . S
C1759 C1758 1.400 . S
C1759 C1760 1.398 . S
C1759 C1765 1.491 . S
C1760 H1751 0.950 . S
C1760 C1759 1.398 . S
C1760 C1761 1.391 . S
C1761 H1749 0.950 . S
C1761 C1757 1.393 . S
C1761 C1760 1.391 . S
C1762 H1752 0.950 . S
C1762 C1763 1.386 . S
C1762 C1764 1.391 . S
C1763 C1762 1.386 . S
C1763 C1767 1.393 . S
C1764 H1753 0.950 . S
C1764 C1762 1.391 . S
C1764 C1765 1.400 . S
C1765 C1759 1.491 . S
C1765 C1764 1.400 . S
C1765 C1766 1.398 . S
C1766 H1754 0.950 . S
C1766 C1765 1.398 . S
C1766 C1767 1.391 . S
C1767 H1755 0.950 . S
C1767 C1763 1.393 . S
C1767 C1766 1.391 . S
H1768 C1776 0.950 . S
H1769 C1781 0.950 . S
H1770 C1778 0.950 . S
H1771 C1780 0.950 . S
H1772 C1782 0.950 . S
H1773 C1784 0.950 . S
H1774 C1786 0.950 . S
H1775 C1787 0.950 . S
C1776 H1768 0.950 . S
C1776 C1777 1.386 . S
C1776 C1778 1.391 . S
C1777 C1776 1.386 . S
C1777 C1781 1.393 . S
C1778 H1770 0.950 . S
C1778 C1776 1.391 . S
C1778 C1779 1.400 . S
C1779 C1778 1.400 . S
C1779 C1780 1.398 . S
C1779 C1785 1.491 . S
C1780 H1771 0.950 . S
C1780 C1779 1.398 . S
C1780 C1781 1.391 . S
C1781 H1769 0.950 . S
C1781 C1777 1.393 . S
C1781 C1780 1.391 . S
C1782 H1772 0.950 . S
C1782 C1783 1.386 . S
C1782 C1784 1.391 . S
C1783 C1782 1.386 . S
C1783 C1787 1.393 . S
C1784 H1773 0.950 . S
C1784 C1782 1.391 . S
C1784 C1785 1.400 . S
C1785 C1779 1.491 . S
C1785 C1784 1.400 . S
C1785 C1786 1.398 . S
C1786 H1774 0.950 . S
C1786 C1785 1.398 . S
C1786 C1787 1.391 . S
C1787 H1775 0.950 . S
C1787 C1783 1.393 . S
C1787 C1786 1.391 . S
H1788 C1796 0.950 . S
H1789 C1801 0.950 . S
H1790 C1798 0.950 . S
H1791 C1800 0.950 . S
H1792 C1802 0.950 . S
H1793 C1804 0.950 . S
H1794 C1806 0.950 . S
H1795 C1807 0.950 . S
C1796 H1788 0.950 . S
C1796 C1797 1.386 . S
C1796 C1798 1.391 . S
C1797 C1796 1.386 . S
C1797 C1801 1.393 . S
C1798 H1790 0.950 . S
C1798 C1796 1.391 . S
C1798 C1799 1.400 . S
C1799 C1798 1.400 . S
C1799 C1800 1.398 . S
C1799 C1805 1.491 1_455 S
C1800 H1791 0.950 . S
C1800 C1799 1.398 . S
C1800 C1801 1.391 . S
C1801 H1789 0.950 . S
C1801 C1797 1.393 . S
C1801 C1800 1.391 . S
C1802 H1792 0.950 . S
C1802 C1803 1.386 . S
C1802 C1804 1.391 . S
C1803 C1802 1.386 . S
C1803 C1807 1.393 . S
C1804 H1793 0.950 . S
C1804 C1802 1.391 . S
C1804 C1805 1.400 . S
C1805 C1799 1.491 1_655 S
C1805 C1804 1.400 . S
C1805 C1806 1.398 . S
C1806 H1794 0.950 . S
C1806 C1805 1.398 . S
C1806 C1807 1.391 . S
C1807 H1795 0.950 . S
C1807 C1803 1.393 . S
C1807 C1806 1.391 . S
H1808 C1816 0.950 . S
H1809 C1821 0.950 . S
H1810 C1818 0.950 . S
H1811 C1820 0.950 . S
H1812 C1822 0.950 . S
H1813 C1824 0.950 . S
H1814 C1826 0.950 . S
H1815 C1827 0.950 . S
C1816 H1808 0.950 . S
C1816 C1817 1.386 . S
C1816 C1818 1.391 . S
C1817 C1816 1.386 . S
C1817 C1821 1.393 . S
C1818 H1810 0.950 . S
C1818 C1816 1.391 . S
C1818 C1819 1.400 . S
C1819 C1818 1.400 . S
C1819 C1820 1.398 . S
C1819 C1825 1.491 . S
C1820 H1811 0.950 . S
C1820 C1819 1.398 . S
C1820 C1821 1.391 . S
C1821 H1809 0.950 . S
C1821 C1817 1.393 . S
C1821 C1820 1.391 . S
C1822 H1812 0.950 . S
C1822 C1823 1.386 . S
C1822 C1824 1.391 . S
C1823 C1822 1.386 . S
C1823 C1827 1.393 . S
C1824 H1813 0.950 . S
C1824 C1822 1.391 . S
C1824 C1825 1.400 . S
C1825 C1819 1.491 . S
C1825 C1824 1.400 . S
C1825 C1826 1.398 . S
C1826 H1814 0.950 . S
C1826 C1825 1.398 . S
C1826 C1827 1.391 . S
C1827 H1815 0.950 . S
C1827 C1823 1.393 . S
C1827 C1826 1.391 . S
H1828 C1836 0.950 . S
H1829 C1841 0.950 . S
H1830 C1838 0.950 . S
H1831 C1840 0.950 . S
H1832 C1842 0.950 . S
H1833 C1844 0.950 . S
H1834 C1846 0.950 . S
H1835 C1847 0.950 . S
C1836 H1828 0.950 . S
C1836 C1837 1.386 . S
C1836 C1838 1.391 . S
C1837 C1836 1.386 . S
C1837 C1841 1.393 . S
C1838 H1830 0.950 . S
C1838 C1836 1.391 . S
C1838 C1839 1.400 . S
C1839 C1838 1.400 . S
C1839 C1840 1.398 . S
C1839 C1845 1.491 1_545 S
C1840 H1831 0.950 . S
C1840 C1839 1.398 . S
C1840 C1841 1.391 . S
C1841 H1829 0.950 . S
C1841 C1837 1.393 . S
C1841 C1840 1.391 . S
C1842 H1832 0.950 . S
C1842 C1843 1.386 . S
C1842 C1844 1.391 . S
C1843 C1842 1.386 . S
C1843 C1847 1.393 . S
C1844 H1833 0.950 . S
C1844 C1842 1.391 . S
C1844 C1845 1.400 . S
C1845 C1839 1.491 1_565 S
C1845 C1844 1.400 . S
C1845 C1846 1.398 . S
C1846 H1834 0.950 . S
C1846 C1845 1.398 . S
C1846 C1847 1.391 . S
C1847 H1835 0.950 . S
C1847 C1843 1.393 . S
C1847 C1846 1.391 . S
H1848 C1856 0.950 . S
H1849 C1861 0.950 . S
H1850 C1858 0.950 . S
H1851 C1860 0.950 . S
H1852 C1862 0.950 . S
H1853 C1864 0.950 . S
H1854 C1866 0.950 . S
H1855 C1867 0.950 . S
C1856 H1848 0.950 . S
C1856 C1857 1.386 . S
C1856 C1858 1.391 . S
C1857 C1856 1.386 . S
C1857 C1861 1.393 1_556 S
C1858 H1850 0.950 . S
C1858 C1856 1.391 . S
C1858 C1859 1.400 . S
C1859 C1858 1.400 . S
C1859 C1860 1.398 1_556 S
C1859 C1865 1.491 1_546 S
C1860 H1851 0.950 . S
C1860 C1859 1.398 1_554 S
C1860 C1861 1.391 . S
C1861 H1849 0.950 . S
C1861 C1857 1.393 1_554 S
C1861 C1860 1.391 . S
C1862 H1852 0.950 . S
C1862 C1863 1.386 . S
C1862 C1864 1.391 . S
C1863 C1862 1.386 . S
C1863 C1867 1.393 1_554 S
C1864 H1853 0.950 . S
C1864 C1862 1.391 . S
C1864 C1865 1.400 . S
C1865 C1859 1.491 1_564 S
C1865 C1864 1.400 . S
C1865 C1866 1.398 1_554 S
C1866 H1854 0.950 . S
C1866 C1865 1.398 1_556 S
C1866 C1867 1.391 . S
C1867 H1855 0.950 . S
C1867 C1863 1.393 1_556 S
C1867 C1866 1.391 . S
H1868 C1876 0.950 . S
H1869 C1881 0.938 1_554 S
H1870 C1878 0.950 1_455 S
H1871 C1880 0.950 . S
H1872 C1882 0.950 . S
H1873 C1884 0.950 1_655 S
H1874 C1886 0.950 . S
H1875 C1887 0.950 1_556 S
C1876 H1868 0.950 . S
C1876 C1877 1.386 . S
C1876 C1878 1.391 . S
C1877 C1876 1.386 . S
C1877 C1881 1.417 . S
C1878 H1870 0.950 1_655 S
C1878 C1876 1.391 . S
C1878 C1879 1.400 . S
C1879 C1878 1.400 . S
C1879 C1880 1.398 1_556 S
C1879 C1885 1.491 1_656 S
C1880 H1871 0.950 . S
C1880 C1879 1.398 1_554 S
C1880 C1881 1.383 1_554 S
C1881 H1869 0.938 1_556 S
C1881 C1877 1.417 . S
C1881 C1880 1.383 1_556 S
C1882 H1872 0.950 . S
C1882 C1883 1.386 . S
C1882 C1884 1.391 . S
C1883 C1882 1.386 . S
C1883 C1887 1.393 . S
C1884 H1873 0.950 1_455 S
C1884 C1882 1.391 . S
C1884 C1885 1.400 . S
C1885 C1879 1.491 1_454 S
C1885 C1884 1.400 . S
C1885 C1886 1.398 1_554 S
C1886 H1874 0.950 . S
C1886 C1885 1.398 1_556 S
C1886 C1887 1.391 1_556 S
C1887 H1875 0.950 1_554 S
C1887 C1883 1.393 . S
C1887 C1886 1.391 1_554 S
H1888 C1896 0.950 . S
H1889 C1901 0.950 . S
H1890 C1898 0.950 . S
H1891 C1900 0.950 . S
H1892 C1902 0.950 . S
H1893 C1904 0.950 . S
H1894 C1906 0.950 . S
H1895 C1907 0.950 . S
C1896 H1888 0.950 . S
C1896 C1897 1.386 . S
C1896 C1898 1.391 . S
C1897 C1896 1.386 . S
C1897 C1901 1.393 . S
C1898 H1890 0.950 . S
C1898 C1896 1.391 . S
C1898 C1899 1.400 . S
C1899 C1898 1.400 . S
C1899 C1900 1.398 . S
C1899 C1905 1.491 1_554 S
C1900 H1891 0.950 . S
C1900 C1899 1.398 . S
C1900 C1901 1.391 . S
C1901 H1889 0.950 . S
C1901 C1897 1.393 . S
C1901 C1900 1.391 . S
C1902 H1892 0.950 . S
C1902 C1903 1.386 . S
C1902 C1904 1.391 . S
C1903 C1902 1.386 . S
C1903 C1907 1.393 . S
C1904 H1893 0.950 . S
C1904 C1902 1.391 . S
C1904 C1905 1.400 . S
C1905 C1899 1.491 1_556 S
C1905 C1904 1.400 . S
C1905 C1906 1.398 . S
C1906 H1894 0.950 . S
C1906 C1905 1.398 . S
C1906 C1907 1.391 . S
C1907 H1895 0.950 . S
C1907 C1903 1.393 . S
C1907 C1906 1.391 . S
C477 C3 1.336 . S
C483 C18 1.409 . S
C497 C16 1.342 . S
C503 C29 1.408 . S
C517 C5 1.409 . S
C523 C31 1.347 . S
C537 C44 1.340 . S
C543 C68 1.421 . S
C557 C57 1.326 . S
C563 C42 1.426 . S
C577 C55 1.434 . S
C583 C70 1.319 . S
C597 C83 1.309 . S
C603 C94 1.422 . S
C617 C107 1.410 . S
C623 C96 1.347 . S
C637 C81 1.423 . S
C643 C109 1.313 . S
C657 C146 1.428 . S
C663 C122 1.345 . S
C677 C135 1.347 . S
C683 C120 1.420 . S
C697 C148 1.329 . S
C703 C133 1.425 . S
C717 C174 1.424 . S
C723 C159 1.321 . S
C737 C172 1.335 . S
C743 C187 1.419 . S
C757 C185 1.340 . S
C763 C161 1.427 . S
C777 C200 1.328 . S
C783 C224 1.429 . S
C797 C213 1.347 . S
C803 C198 1.423 . S
C817 C226 1.334 . S
C823 C211 1.428 . S
C837 C252 1.455 . S
C843 C239 1.366 . S
C857 C250 1.347 . S
C863 C265 1.464 . S
C877 C237 1.458 . S
C883 C263 1.383 . S
C897 C302 1.328 . S
C903 C276 1.255 . S
C917 C289 1.251 . S
C923 C278 1.318 . S
C937 C291 1.329 . S
C943 C304 1.251 . S
C957 C330 1.460 . S
C963 C315 1.352 . S
C977 C328 1.371 . S
C983 C343 1.463 . S
C997 C341 1.351 . S
C1003 C317 1.467 . S
C1017 C382 1.316 . S
C1023 C354 1.265 . S
C1037 C367 1.240 . S
C1043 C356 1.322 . S
C1057 C369 1.331 . S
C1063 C380 1.234 . S
C1077 C395 1.353 . S
C1083 C408 1.419 . S
C1097 C406 1.316 . S
C1103 C421 1.428 . S
C1117 C419 1.352 . S
C1123 C393 1.420 . S
C1137 C460 1.424 . S
C1143 C432 1.320 . S
C1157 C434 1.427 . S
C1163 C447 1.336 . S
C1177 C458 1.316 . S
C1183 C445 1.427 . S
C1197 C49 1.736 . S
C1203 C4 1.744 . S
C1217 C17 1.731 . S
C1223 C62 1.744 . S
C1237 C75 1.744 . S
C1243 C36 1.731 . S
C1257 C127 1.745 . S
C1263 C88 1.732 . S
C1277 C101 1.729 . S
C1283 C140 1.739 . S
C1297 C153 1.739 . S
C1303 C114 1.743 . S
C1317 C160 1.731 . S
C1323 C205 1.743 . S
C1337 C173 1.728 . S
C1343 C218 1.733 . S
C1357 C186 1.729 . S
C1363 C231 1.743 . S
C1377 C277 1.757 . S
C1383 C244 1.763 . S
C1397 C290 1.753 . S
C1403 C251 1.752 . S
C1417 C264 1.760 . S
C1423 C309 1.759 . S
C1437 C355 1.752 . S
C1443 C316 1.754 . S
C1457 C368 1.763 . S
C1463 C329 1.748 . S
C1477 C342 1.770 . S
C1483 C381 1.742 . S
C1497 C400 1.738 . S
C1503 C433 1.740 . S
C1517 C452 1.731 . S
C1523 C407 1.743 . S
C1537 C420 1.735 . S
C1543 C459 1.742 . S
C1557 C10 1.831 . S
C1563 C238 1.826 . S
C1577 C23 1.816 . S
C1583 C257 1.810 . S
C1597 C30 1.811 . S
C1603 C270 1.805 . S
C1617 C439 1.799 . S
C1623 C43 1.798 . S
C1637 C446 1.822 . S
C1643 C56 1.821 . S
C1657 C69 1.809 . S
C1663 C465 1.810 . S
C1677 C82 1.828 . S
C1683 C322 1.822 . S
C1697 C335 1.811 . S
C1703 C95 1.817 . S
C1717 C348 1.829 . S
C1723 C108 1.834 . S
C1737 C199 1.814 . S
C1743 C121 1.813 . S
C1757 C212 1.794 . S
C1763 C134 1.793 . S
C1777 C225 1.823 . S
C1783 C147 1.822 . S
C1797 C394 1.817 . S
C1803 C166 1.817 . S
C1817 C179 1.813 . S
C1823 C413 1.813 . S
C1837 C192 1.817 . S
C1843 C426 1.817 . S
C1857 C283 1.668 . S
C1863 C361 1.668 . S
C1877 C296 1.683 . S
C1883 C374 1.684 . S
C1897 C387 1.691 . S
C1903 C303 1.692 . S
