# Generated by pormake.
# Topology uof, (4)-cn, num edge types: 1
# Building blocks:
#     Node 0, Type 0, BuildingBlock: GALJAG_clean_sbu_0, # of connection points: 4
#     Node 1, Type 0, BuildingBlock: GALJAG_clean_sbu_0, # of connection points: 4
#     Node 2, Type 0, BuildingBlock: GALJAG_clean_sbu_0, # of connection points: 4
#     Node 3, Type 0, BuildingBlock: GALJAG_clean_sbu_0, # of connection points: 4
#     Node 4, Type 0, BuildingBlock: GALJAG_clean_sbu_0, # of connection points: 4
#     Node 5, Type 0, BuildingBlock: GALJAG_clean_sbu_0, # of connection points: 4
#     Node 6, Type 0, BuildingBlock: GALJAG_clean_sbu_0, # of connection points: 4
#     Node 7, Type 0, BuildingBlock: GALJAG_clean_sbu_0, # of connection points: 4
#     Node 8, Type 0, BuildingBlock: GALJAG_clean_sbu_0, # of connection points: 4
#     Node 9, Type 0, BuildingBlock: GALJAG_clean_sbu_0, # of connection points: 4
#     Node 10, Type 0, BuildingBlock: GALJAG_clean_sbu_0, # of connection points: 4
#     Node 11, Type 0, BuildingBlock: GALJAG_clean_sbu_0, # of connection points: 4
#     Edge 12, Type (0, 0), BuildingBlock: EZIPEK_clean_linker_0, # of connection points: 2
#     Edge 13, Type (0, 0), BuildingBlock: EZIPEK_clean_linker_0, # of connection points: 2
#     Edge 14, Type (0, 0), BuildingBlock: EZIPEK_clean_linker_0, # of connection points: 2
#     Edge 15, Type (0, 0), BuildingBlock: EZIPEK_clean_linker_0, # of connection points: 2
#     Edge 16, Type (0, 0), BuildingBlock: EZIPEK_clean_linker_0, # of connection points: 2
#     Edge 17, Type (0, 0), BuildingBlock: EZIPEK_clean_linker_0, # of connection points: 2
#     Edge 18, Type (0, 0), BuildingBlock: EZIPEK_clean_linker_0, # of connection points: 2
#     Edge 19, Type (0, 0), BuildingBlock: EZIPEK_clean_linker_0, # of connection points: 2
#     Edge 20, Type (0, 0), BuildingBlock: EZIPEK_clean_linker_0, # of connection points: 2
#     Edge 21, Type (0, 0), BuildingBlock: EZIPEK_clean_linker_0, # of connection points: 2
#     Edge 22, Type (0, 0), BuildingBlock: EZIPEK_clean_linker_0, # of connection points: 2
#     Edge 23, Type (0, 0), BuildingBlock: EZIPEK_clean_linker_0, # of connection points: 2
#     Edge 24, Type (0, 0), BuildingBlock: EZIPEK_clean_linker_0, # of connection points: 2
#     Edge 25, Type (0, 0), BuildingBlock: EZIPEK_clean_linker_0, # of connection points: 2
#     Edge 26, Type (0, 0), BuildingBlock: EZIPEK_clean_linker_0, # of connection points: 2
#     Edge 27, Type (0, 0), BuildingBlock: EZIPEK_clean_linker_0, # of connection points: 2
#     Edge 28, Type (0, 0), BuildingBlock: EZIPEK_clean_linker_0, # of connection points: 2
#     Edge 29, Type (0, 0), BuildingBlock: EZIPEK_clean_linker_0, # of connection points: 2
#     Edge 30, Type (0, 0), BuildingBlock: EZIPEK_clean_linker_0, # of connection points: 2
#     Edge 31, Type (0, 0), BuildingBlock: EZIPEK_clean_linker_0, # of connection points: 2
#     Edge 32, Type (0, 0), BuildingBlock: EZIPEK_clean_linker_0, # of connection points: 2
#     Edge 33, Type (0, 0), BuildingBlock: EZIPEK_clean_linker_0, # of connection points: 2
#     Edge 34, Type (0, 0), BuildingBlock: EZIPEK_clean_linker_0, # of connection points: 2
#     Edge 35, Type (0, 0), BuildingBlock: EZIPEK_clean_linker_0, # of connection points: 2
# Relax obj value: 0.137
# Max RMSD: 0.110
# Mean RMSD: 0.110
data_MOF--net-uof--node1-GALJAG_clean_sbu_0--edge1-EZIPEK_clean_linker_0
_symmetry_space_group_name_H-M    P1
_symmetry_Int_Tables_number       1
_symmetry_cell_setting            triclinic
loop_
_symmetry_equiv_pos_as_xyz
'x, y, z'
_cell_length_a     22.953456
_cell_length_b     22.984625
_cell_length_c     49.961606
_cell_angle_alpha  90.153309
_cell_angle_beta   90.031972
_cell_angle_gamma 120.03083
loop_
_atom_site_label
_atom_site_type_symbol
_atom_site_fract_x
_atom_site_fract_y
_atom_site_fract_z
_atom_type_partial_charge
In0 In 0.23061 0.31321 0.23629 0.0
O1 O 0.31846 0.42353 0.23535 0.0
O2 O 0.34028 0.34429 0.2307 0.0
C3 C 0.12215 0.3071 0.21041 0.0
C4 C 0.22399 0.2913 0.28959 0.0
C5 C 0.23693 0.21913 0.20771 0.0
O6 O 0.18051 0.35796 0.20908 0.0
O7 O 0.11722 0.26431 0.22734 0.0
O8 O 0.23261 0.21695 0.23285 0.0
O9 O 0.23825 0.26923 0.19681 0.0
C10 C 0.36271 0.40642 0.23233 0.0
O11 O 0.19849 0.24469 0.27252 0.0
O12 O 0.24492 0.34945 0.28016 0.0
In13 In 0.91979 0.22942 0.56772 0.0
O14 O 0.89792 0.31746 0.5718 0.0
O15 O 0.99317 0.33794 0.55721 0.0
C16 C 0.8166 0.11943 0.54298 0.0
C17 C 0.94311 0.22652 0.62071 0.0
C18 C 0.01185 0.22662 0.53684 0.0
O19 O 0.82277 0.1772 0.54165 0.0
O20 O 0.85619 0.11583 0.55952 0.0
O21 O 0.00921 0.21632 0.56173 0.0
O22 O 0.96769 0.23838 0.52744 0.0
C23 C 0.95612 0.36105 0.56398 0.0
O24 O 0.98181 0.2278 0.60265 0.0
O25 O 0.88852 0.22116 0.61228 0.0
In26 In 0.69582 0.91786 0.89888 0.0
O27 O 0.76209 0.99138 0.9309 0.0
O28 O 0.68197 0.89775 0.94452 0.0
C29 C 0.78936 0.00937 0.8678 0.0
C30 C 0.59332 0.94436 0.89686 0.0
C31 C 0.70167 0.81422 0.87384 0.0
O32 O 0.80354 0.99222 0.88971 0.0
O33 O 0.72788 0.98037 0.86145 0.0
O34 O 0.65354 0.82523 0.87031 0.0
O35 O 0.74053 0.84848 0.89261 0.0
C36 C 0.73023 0.95556 0.95055 0.0
O37 O 0.58513 0.89007 0.90684 0.0
O38 O 0.65058 0.98187 0.88704 0.0
In39 In 0.77786 0.69169 0.23244 0.0
O40 O 0.78293 0.76454 0.26434 0.0
O41 O 0.77693 0.67376 0.27782 0.0
C42 C 0.76904 0.7734 0.19762 0.0
C43 C 0.65035 0.58691 0.23155 0.0
C44 C 0.89455 0.70705 0.21039 0.0
O45 O 0.79308 0.79263 0.22077 0.0
O46 O 0.7486 0.71275 0.19201 0.0
O47 O 0.83689 0.66624 0.20139 0.0
O48 O 0.89314 0.733 0.23252 0.0
C49 C 0.77735 0.72763 0.28392 0.0
O50 O 0.70004 0.57747 0.2343 0.0
O51 O 0.66571 0.64732 0.2291 0.0
In52 In 0.09326 0.77871 0.56505 0.0
O53 O 0.12471 0.69716 0.56604 0.0
O54 O 0.02157 0.66749 0.56061 0.0
C55 C 0.19869 0.89035 0.54194 0.0
C56 C 0.06019 0.77765 0.61698 0.0
C57 C 0.99973 0.77763 0.53383 0.0
O58 O 0.17129 0.83267 0.53153 0.0
O59 O 0.17869 0.89064 0.56545 0.0
O60 O 0.014 0.80633 0.55637 0.0
O61 O 0.03235 0.74935 0.52698 0.0
C62 C 0.06465 0.64935 0.56302 0.0
O63 O 0.03119 0.78923 0.59804 0.0
O64 O 0.11015 0.77169 0.6101 0.0
In65 In 0.31932 0.09057 0.90088 0.0
O66 O 0.43144 0.11776 0.90261 0.0
O67 O 0.35591 0.01625 0.89548 0.0
C68 C 0.31453 0.19379 0.87502 0.0
C69 C 0.29078 0.06577 0.95369 0.0
C70 C 0.22545 0.99586 0.87034 0.0
O71 O 0.36184 0.1815 0.87162 0.0
O72 O 0.27559 0.16054 0.89382 0.0
O73 O 0.21176 0.0134 0.89227 0.0
O74 O 0.28658 0.02615 0.86359 0.0
C75 C 0.41752 0.05756 0.89867 0.0
O76 O 0.25036 0.03216 0.93532 0.0
O77 O 0.3453 0.11572 0.94575 0.0
In78 In 0.6955 0.78273 0.44356 0.0
O79 O 0.58346 0.69816 0.44397 0.0
O80 O 0.659 0.67185 0.44973 0.0
C81 C 0.70373 0.89256 0.46924 0.0
C82 C 0.71973 0.78983 0.3902 0.0
C83 C 0.78983 0.77805 0.47264 0.0
O84 O 0.65253 0.83462 0.47081 0.0
O85 O 0.7461 0.89649 0.45225 0.0
O86 O 0.79389 0.78482 0.44759 0.0
O87 O 0.73723 0.77227 0.48317 0.0
C88 C 0.59726 0.65182 0.44754 0.0
O89 O 0.76452 0.80563 0.40773 0.0
O90 O 0.66297 0.77677 0.3993 0.0
In91 In 0.92317 0.69409 0.77664 0.0
O92 O 0.89659 0.5823 0.7783 0.0
O93 O 0.9992 0.65885 0.78026 0.0
C94 C 0.82083 0.70279 0.8016 0.0
C95 C 0.94411 0.71906 0.7235 0.0
C96 C 0.01748 0.78718 0.80765 0.0
O97 O 0.82667 0.65106 0.80314 0.0
O98 O 0.86063 0.74528 0.78504 0.0
O99 O 1.00627 0.79952 0.78426 0.0
O100 O 0.98111 0.72749 0.81561 0.0
C101 C 0.95757 0.59685 0.77997 0.0
O102 O 0.97999 0.75972 0.7414 0.0
O103 O 0.89324 0.66621 0.7321 0.0
In104 In 0.23873 0.92228 0.11273 0.0
O105 O 0.319 0.88877 0.11052 0.0
O106 O 0.35035 0.99206 0.11663 0.0
C107 C 0.12406 0.82211 0.13654 0.0
C108 C 0.23624 0.95288 0.06076 0.0
C109 C 0.2481 0.01673 0.14569 0.0
O110 O 0.18253 0.8393 0.14466 0.0
O111 O 0.12353 0.84876 0.11456 0.0
O112 O 0.2215 0.0077 0.12283 0.0
O113 O 0.27073 0.97868 0.15188 0.0
C114 C 0.36752 0.9484 0.11377 0.0
O115 O 0.23046 0.98557 0.07984 0.0
O116 O 0.2387 0.90102 0.06765 0.0
In117 In 0.32178 0.23323 0.4473 0.0
O118 O 0.24845 0.22022 0.41424 0.0
O119 O 0.34717 0.24472 0.40233 0.0
C120 C 0.22369 0.22847 0.4764 0.0
C121 C 0.42016 0.36345 0.45 0.0
C122 C 0.31805 0.12343 0.4709 0.0
O123 O 0.21263 0.19931 0.45402 0.0
O124 O 0.2841 0.26029 0.48414 0.0
O125 O 0.34316 0.18022 0.48195 0.0
O126 O 0.30286 0.12384 0.44663 0.0
C127 C 0.29022 0.23617 0.39544 0.0
O128 O 0.43377 0.31742 0.44493 0.0
O129 O 0.35913 0.34346 0.45433 0.0
In130 In 0.09588 0.31707 0.7791 0.0
O131 O 0.02016 0.26002 0.74634 0.0
O132 O 0.11998 0.32886 0.73367 0.0
C133 C 1.00007 0.2181 0.80695 0.0
C134 C 0.07021 0.41989 0.78349 0.0
C135 C 0.19991 0.3098 0.80323 0.0
O136 O 0.01697 0.20865 0.78404 0.0
O137 O 0.03152 0.27754 0.81586 0.0
O138 O 0.19396 0.36147 0.80494 0.0
O139 O 0.15972 0.26711 0.78672 0.0
C140 C 0.05974 0.28717 0.72706 0.0
O141 O 0.11527 0.42308 0.76796 0.0
O142 O 0.04235 0.36803 0.79777 0.0
In143 In 0.78511 0.0907 0.11135 0.0
O144 O 0.76807 0.02024 0.07687 0.0
O145 O 0.80644 0.12299 0.06684 0.0
C146 C 0.77932 0.98674 0.13676 0.0
C147 C 0.65685 0.06579 0.11563 0.0
C148 C 0.89661 0.19227 0.13625 0.0
O149 O 0.79387 0.99759 0.11229 0.0
O150 O 0.76841 0.02898 0.14857 0.0
O151 O 0.84058 0.19029 0.13595 0.0
O152 O 0.89816 0.1485 0.12153 0.0
C153 C 0.78559 0.06338 0.05864 0.0
O154 O 0.69666 0.10544 0.09818 0.0
O155 O 0.68341 0.0448 0.13207 0.0
C156 C 0.02013 0.2713 0.14499 0.0
C157 C 0.95356 0.23505 0.15507 0.0
C158 C 0.99963 0.26682 0.20089 0.0
C159 C 0.06597 0.29222 0.19102 0.0
N160 N 0.13806 0.31048 0.15276 0.0
N161 N 0.88056 0.19136 0.19367 0.0
C162 C 0.07613 0.29333 0.16279 0.0
C163 C 0.94328 0.23176 0.18331 0.0
N164 N 0.02993 0.28518 0.11826 0.0
N165 N 0.99041 0.27672 0.22716 0.0
H166 H 0.8378 0.16348 0.18198 0.0
H167 H 0.87177 0.18081 0.21401 0.0
H168 H 0.03056 0.30302 0.24037 0.0
H169 H 0.94388 0.26531 0.23505 0.0
H170 H 0.07698 0.31714 0.10997 0.0
H171 H 0.99007 0.27043 0.10483 0.0
H172 H 0.14607 0.30389 0.13273 0.0
H173 H 0.18068 0.32577 0.16452 0.0
C174 C 0.73691 0.99616 0.53413 0.0
C175 C 0.77467 0.06246 0.52397 0.0
C176 C 0.74551 0.01551 0.47817 0.0
C177 C 0.71895 0.94942 0.4883 0.0
N178 N 0.69846 0.87833 0.52702 0.0
N179 N 0.82245 0.13404 0.48515 0.0
C180 C 0.7161 0.93989 0.5166 0.0
C181 C 0.78023 0.07204 0.49566 0.0
N182 N 0.72039 0.98684 0.56065 0.0
N183 N 0.73703 0.0244 0.45172 0.0
H184 H 0.85046 0.17706 0.49663 0.0
H185 H 0.83447 0.14178 0.46488 0.0
H186 H 0.71091 0.98417 0.43854 0.0
H187 H 0.74933 0.0709 0.44363 0.0
H188 H 0.68743 0.93997 0.56881 0.0
H189 H 0.73379 0.02687 0.57386 0.0
H190 H 0.70355 0.87084 0.54725 0.0
H191 H 0.68472 0.83569 0.51546 0.0
C192 C 0.72286 0.78574 0.82663 0.0
C193 C 0.71933 0.7743 0.8548 0.0
C194 C 0.77865 0.71064 0.84827 0.0
C195 C 0.77788 0.71815 0.81993 0.0
N196 N 0.73099 0.74649 0.78244 0.0
N197 N 0.72817 0.71034 0.89103 0.0
C198 C 0.74383 0.75023 0.80927 0.0
C199 C 0.74199 0.73152 0.8651 0.0
N200 N 0.71157 0.83426 0.81632 0.0
N201 N 0.81824 0.68853 0.85959 0.0
H202 H 0.70054 0.72367 0.90367 0.0
H203 H 0.73767 0.674 0.89896 0.0
H204 H 0.84846 0.67531 0.84868 0.0
H205 H 0.82632 0.68964 0.88016 0.0
H206 H 0.72115 0.84945 0.7964 0.0
H207 H 0.69967 0.86455 0.82788 0.0
H208 H 0.70094 0.76362 0.77386 0.0
H209 H 0.74394 0.71946 0.76928 0.0
C210 C 0.98309 0.80398 0.1834 0.0
C211 C 0.95587 0.73672 0.1927 0.0
C212 C 0.03547 0.72313 0.16347 0.0
C213 C 0.0641 0.79099 0.15496 0.0
N214 N 0.06937 0.89837 0.15868 0.0
N215 N 0.95974 0.63422 0.19384 0.0
C216 C 0.03879 0.83183 0.16539 0.0
C217 C 0.98299 0.69676 0.18324 0.0
N218 N 0.95395 0.84088 0.19095 0.0
N219 N 0.05717 0.68339 0.15192 0.0
H220 H 0.92177 0.61399 0.20822 0.0
H221 H 0.98061 0.60403 0.18994 0.0
H222 H 0.09532 0.70139 0.1376 0.0
H223 H 0.03499 0.63192 0.15504 0.0
H224 H 0.96485 0.88648 0.18246 0.0
H225 H 0.91439 0.82426 0.2044 0.0
H226 H 0.06017 0.93345 0.16801 0.0
H227 H 0.10825 0.92091 0.14493 0.0
C228 C 0.32987 0.03736 0.49908 0.0
C229 C 0.28862 0.06042 0.48737 0.0
C230 C 0.19391 0.98048 0.51522 0.0
C231 C 0.23268 0.95239 0.52494 0.0
N232 N 0.33569 0.94899 0.52377 0.0
N233 N 0.17634 0.04174 0.47997 0.0
C234 C 0.30019 0.97926 0.51608 0.0
C235 C 0.21917 0.02812 0.49408 0.0
N236 N 0.39741 0.07131 0.49413 0.0
N237 N 0.13317 0.96309 0.52657 0.0
H238 H 0.19179 0.07678 0.46462 0.0
H239 H 0.1242 0.01401 0.48198 0.0
H240 H 0.11154 0.92788 0.54179 0.0
H241 H 0.10655 0.98776 0.52241 0.0
H242 H 0.43157 0.06177 0.50412 0.0
H243 H 0.41975 0.11187 0.48097 0.0
H244 H 0.38253 0.96144 0.51594 0.0
H245 H 0.31622 0.90842 0.53694 0.0
C246 C 0.29613 0.22508 0.8279 0.0
C247 C 0.29852 0.23516 0.85618 0.0
C248 C 0.24099 0.30059 0.84992 0.0
C249 C 0.24261 0.29414 0.82153 0.0
N250 N 0.29012 0.26665 0.78399 0.0
N251 N 0.28983 0.29863 0.8928 0.0
C252 C 0.27645 0.26192 0.81075 0.0
C253 C 0.27649 0.27833 0.8667 0.0
N254 N 0.30722 0.17666 0.81724 0.0
N255 N 0.20167 0.32301 0.86128 0.0
H256 H 0.31685 0.28451 0.90541 0.0
H257 H 0.28069 0.33509 0.90094 0.0
H258 H 0.17248 0.33753 0.85039 0.0
H259 H 0.19283 0.321 0.88181 0.0
H260 H 0.29852 0.16255 0.79715 0.0
H261 H 0.31808 0.14541 0.8286 0.0
H262 H 0.3201 0.24947 0.77536 0.0
H263 H 0.27788 0.29447 0.77103 0.0
C264 C 0.54652 0.49504 0.25367 0.0
C265 C 0.57843 0.53298 0.23041 0.0
C266 C 0.46831 0.48626 0.20793 0.0
C267 C 0.43626 0.45398 0.23208 0.0
N268 N 0.44262 0.43114 0.27868 0.0
N269 N 0.57107 0.56616 0.18533 0.0
C270 C 0.47484 0.45905 0.25513 0.0
C271 C 0.53956 0.52882 0.2075 0.0
N272 N 0.5847 0.49322 0.27431 0.0
N273 N 0.4307 0.47423 0.18518 0.0
H274 H 0.62327 0.59233 0.18316 0.0
H275 H 0.54591 0.57309 0.16942 0.0
H276 H 0.37831 0.445 0.18498 0.0
H277 H 0.45118 0.48961 0.16618 0.0
H278 H 0.56497 0.46157 0.29074 0.0
H279 H 0.6371 0.51963 0.27413 0.0
H280 H 0.46709 0.43868 0.29698 0.0
H281 H 0.39032 0.40434 0.28044 0.0
C282 C 0.05848 0.54613 0.58387 0.0
C283 C 0.04357 0.57661 0.56226 0.0
C284 C 0.96425 0.46479 0.54387 0.0
C285 C 0.98255 0.43467 0.56441 0.0
N286 N 0.05547 0.44644 0.60143 0.0
N287 N 0.99435 0.5658 0.51856 0.0
C288 C 0.03241 0.47534 0.58358 0.0
C289 C 0.99969 0.53606 0.54139 0.0
N290 N 0.09442 0.5839 0.60541 0.0
N291 N 0.91303 0.42532 0.5267 0.0
H292 H 0.02202 0.6176 0.51548 0.0
H293 H 0.96829 0.53908 0.50158 0.0
H294 H 0.88748 0.37294 0.5274 0.0
H295 H 0.89234 0.44436 0.51315 0.0
H296 H 0.09919 0.56318 0.62321 0.0
H297 H 0.11531 0.63583 0.60647 0.0
H298 H 0.09724 0.47398 0.61368 0.0
H299 H 0.03581 0.39468 0.60278 0.0
C300 C 0.47349 1.00391 0.87352 0.0
C301 C 0.46792 0.03472 0.89737 0.0
C302 C 0.53225 0.9926 0.92178 0.0
C303 C 0.54249 0.96652 0.89758 0.0
N304 N 0.5291 0.95287 0.84976 0.0
N305 N 0.50462 0.07106 0.94266 0.0
C306 C 0.51486 0.97383 0.87324 0.0
C307 C 0.50119 0.03296 0.92104 0.0
N308 N 0.43894 1.00324 0.85111 0.0
N309 N 0.55127 0.97797 0.94559 0.0
H310 H 0.48371 0.10218 0.9427 0.0
H311 H 0.5337 0.077 0.95956 0.0
H312 H 0.57378 0.94837 0.94693 0.0
H313 H 0.53916 0.98981 0.96414 0.0
H314 H 0.43349 0.97434 0.83421 0.0
H315 H 0.41317 0.02979 0.84975 0.0
H316 H 0.51791 0.96412 0.83096 0.0
H317 H 0.55525 0.92659 0.84902 0.0
C318 C 0.50773 0.54439 0.42621 0.0
C319 C 0.54651 0.57881 0.44914 0.0
C320 C 0.50387 0.47081 0.47264 0.0
C321 C 0.46961 0.43648 0.449 0.0
N322 N 0.44371 0.4383 0.40243 0.0
N323 N 0.58201 0.57635 0.49432 0.0
C324 C 0.47283 0.47274 0.42556 0.0
C325 C 0.54476 0.54228 0.47238 0.0
N326 N 0.50348 0.58009 0.4052 0.0
N327 N 0.49528 0.43498 0.49557 0.0
H328 H 0.60592 0.62856 0.49603 0.0
H329 H 0.59072 0.55354 0.51059 0.0
H330 H 0.46797 0.38257 0.4961 0.0
H331 H 0.51232 0.45661 0.51433 0.0
H332 H 0.47078 0.55838 0.38909 0.0
H333 H 0.52878 0.63237 0.40468 0.0
H334 H 0.44975 0.46096 0.38385 0.0
H335 H 0.41758 0.38595 0.4013 0.0
C336 C 0.02804 0.55534 0.80227 0.0
C337 C 0.98077 0.54671 0.78197 0.0
C338 C 0.98969 0.452 0.76363 0.0
C339 C 0.04262 0.46616 0.78196 0.0
N340 N 0.11773 0.53563 0.8168 0.0
N341 N 0.92213 0.49125 0.74126 0.0
C342 C 0.06346 0.51922 0.8007 0.0
C343 C 0.9627 0.49593 0.76216 0.0
N344 N 0.0366 0.5957 0.82381 0.0
N345 N 0.96378 0.39537 0.74809 0.0
H346 H 0.89937 0.5205 0.73971 0.0
H347 H 0.91467 0.46151 0.72441 0.0
H348 H 0.9829 0.36267 0.74809 0.0
H349 H 0.92018 0.37794 0.73667 0.0
H350 H 0.06563 0.59954 0.84046 0.0
H351 H 0.00886 0.61996 0.82641 0.0
H352 H 0.14011 0.57835 0.82888 0.0
H353 H 0.14398 0.50942 0.81639 0.0
C354 C 0.47751 0.00687 0.13788 0.0
C355 C 0.43998 0.96843 0.11537 0.0
C356 C 0.54508 0.99082 0.09348 0.0
C357 C 0.5826 0.03607 0.11455 0.0
N358 N 0.58529 0.09266 0.15552 0.0
N359 N 0.43753 0.92616 0.07092 0.0
C360 C 0.54895 0.04537 0.13646 0.0
C361 C 0.47356 0.96056 0.09301 0.0
N362 N 0.44457 1.00463 0.16099 0.0
N363 N 0.57748 0.97442 0.07452 0.0
H364 H 0.38513 0.89972 0.07039 0.0
H365 H 0.45947 0.92669 0.05263 0.0
H366 H 0.62958 0.99549 0.07392 0.0
H367 H 0.55259 0.93608 0.06053 0.0
H368 H 0.46895 0.02631 0.17894 0.0
H369 H 0.39246 0.97496 0.16297 0.0
H370 H 0.56352 0.1071 0.17048 0.0
H371 H 0.63766 0.12193 0.155 0.0
C372 C 0.21115 0.05056 0.18641 0.0
C373 C 0.25291 0.06908 0.16359 0.0
C374 C 0.29354 0.18741 0.17267 0.0
C375 C 0.2428 0.16788 0.19245 0.0
N376 N 0.14405 0.07959 0.21439 0.0
N377 N 0.33218 0.15408 0.13363 0.0
C378 C 0.19928 0.09911 0.19852 0.0
C379 C 0.29351 0.13726 0.15622 0.0
N380 N 0.18259 0.98691 0.19646 0.0
N381 N 0.34372 0.25293 0.17052 0.0
H382 H 0.3375 0.11903 0.12216 0.0
H383 H 0.35611 0.20227 0.12554 0.0
H384 H 0.34794 0.29103 0.18312 0.0
H385 H 0.38536 0.26842 0.15813 0.0
H386 H 0.15685 0.9732 0.21461 0.0
H387 H 0.18956 0.94936 0.18799 0.0
H388 H 0.1074 0.02942 0.21712 0.0
H389 H 0.13052 0.11314 0.22234 0.0
C390 C 0.07893 0.17364 0.5237 0.0
C391 C 0.06403 0.22603 0.52019 0.0
C392 C 0.15002 0.27605 0.48559 0.0
C393 C 0.17 0.22859 0.49174 0.0
N394 N 0.16431 0.14191 0.52056 0.0
N395 N 0.09516 0.33535 0.50179 0.0
C396 C 0.13786 0.18029 0.51203 0.0
C397 C 0.10182 0.27946 0.50208 0.0
N398 N 0.03545 0.11631 0.5371 0.0
N399 N 0.17724 0.31798 0.46414 0.0
H400 H 0.06305 0.34208 0.51446 0.0
H401 H 0.12673 0.37835 0.49089 0.0
H402 H 0.21498 0.31889 0.45222 0.0
H403 H 0.15877 0.34823 0.45701 0.0
H404 H 0.04154 0.07436 0.53802 0.0
H405 H 0.9894 0.1076 0.54463 0.0
H406 H 0.14601 0.11039 0.53714 0.0
H407 H 0.20873 0.14686 0.5128 0.0
C408 C 0.88934 0.17031 0.82944 0.0
C409 C 0.94522 0.1638 0.8218 0.0
C410 C 0.89268 0.05116 0.8406 0.0
C411 C 0.84132 0.06137 0.85118 0.0
N412 N 0.79608 0.13453 0.85994 0.0
N413 N 1.00637 0.10356 0.8237 0.0
C414 C 0.84084 0.12193 0.84676 0.0
C415 C 0.94869 0.10563 0.82824 0.0
N416 N 0.8812 0.22107 0.81936 0.0
N417 N 0.88693 0.98904 0.84166 0.0
H418 H 0.04937 0.14325 0.8152 0.0
H419 H 0.01369 0.06503 0.83066 0.0
H420 H 0.84595 0.94751 0.85037 0.0
H421 H 0.91939 0.97719 0.83161 0.0
H422 H 0.83776 0.22393 0.82223 0.0
H423 H 0.91471 0.25656 0.80586 0.0
H424 H 0.7986 0.18105 0.85959 0.0
H425 H 0.76025 0.10072 0.87325 0.0
C426 C 0.82224 0.90838 0.14664 0.0
C427 C 0.77253 0.92717 0.15029 0.0
C428 C 0.71564 0.839 0.18351 0.0
C429 C 0.76369 0.81885 0.17887 0.0
N430 N 0.84802 0.81884 0.15014 0.0
N431 N 0.66062 0.8964 0.16547 0.0
C432 C 0.81197 0.84817 0.15835 0.0
C433 C 0.71573 0.88846 0.16679 0.0
N434 N 0.88119 0.94983 0.13372 0.0
N435 N 0.67022 0.81113 0.20388 0.0
H436 H 0.65667 0.9287 0.15196 0.0
H437 H 0.61579 0.86531 0.17546 0.0
H438 H 0.66599 0.77158 0.21553 0.0
H439 H 0.63942 0.82985 0.21012 0.0
H440 H 0.92133 0.94075 0.13301 0.0
H441 H 0.89325 0.99686 0.12628 0.0
H442 H 0.87991 0.83552 0.13361 0.0
H443 H 0.84111 0.77407 0.15827 0.0
C444 C 0.82696 0.72442 0.50686 0.0
C445 C 0.8432 0.77699 0.48832 0.0
C446 C 0.96279 0.82075 0.49607 0.0
C447 C 0.94615 0.77462 0.51726 0.0
N448 N 0.86327 0.68651 0.54518 0.0
N449 N 0.92597 0.8838 0.46952 0.0
C450 C 0.8784 0.72778 0.5235 0.0
C451 C 0.91101 0.82757 0.48397 0.0
N452 N 0.76368 0.66955 0.5075 0.0
N453 N 0.02766 0.85727 0.48727 0.0
H454 H 0.8893 0.89283 0.46148 0.0
H455 H 0.97453 0.92487 0.46805 0.0
H456 H 0.0668 0.85239 0.49545 0.0
H457 H 0.04117 0.88707 0.47018 0.0
H458 H 0.75102 0.62694 0.51887 0.0
H459 H 0.7255 0.66333 0.4945 0.0
H460 H 0.81447 0.65686 0.55236 0.0
H461 H 0.89992 0.68518 0.55711 0.0
C462 C 0.17237 0.8811 0.85084 0.0
C463 C 0.17327 0.94277 0.85398 0.0
C464 C 0.06734 0.8986 0.82981 0.0
C465 C 0.06995 0.83944 0.82432 0.0
N466 N 0.13091 0.77891 0.82502 0.0
N467 N 0.12982 0.01585 0.8426 0.0
C468 C 0.12401 0.83167 0.8336 0.0
C469 C 0.12308 0.95326 0.84238 0.0
N470 N 0.21613 0.86886 0.86497 0.0
N471 N 0.01065 0.90156 0.82401 0.0
H472 H 0.17048 0.05747 0.85154 0.0
H473 H 0.09855 0.02787 0.83175 0.0
H474 H 0.96774 0.86165 0.81543 0.0
H475 H 1.00375 0.94105 0.8301 0.0
H476 H 0.21268 0.82194 0.86565 0.0
H477 H 0.25229 0.90385 0.87797 0.0
H478 H 0.1733 0.77484 0.82894 0.0
H479 H 0.09731 0.74227 0.81184 0.0
C480 C 0.28789 0.22405 0.34516 0.0
C481 C 0.2755 0.25203 0.36824 0.0
C482 C 0.22535 0.30329 0.33998 0.0
C483 C 0.2425 0.27955 0.31683 0.0
N484 N 0.30946 0.23546 0.29762 0.0
N485 N 0.24969 0.33398 0.38671 0.0
C486 C 0.27927 0.245 0.31945 0.0
C487 C 0.24897 0.29609 0.36544 0.0
N488 N 0.30576 0.17585 0.34763 0.0
N489 N 0.18513 0.33115 0.33783 0.0
H490 H 0.27044 0.33374 0.40524 0.0
H491 H 0.23684 0.37136 0.38511 0.0
H492 H 0.1669 0.33713 0.31953 0.0
H493 H 0.16516 0.34279 0.35436 0.0
H494 H 0.30846 0.14885 0.33135 0.0
H495 H 0.31146 0.15818 0.36608 0.0
H496 H 0.342 0.2163 0.29896 0.0
H497 H 0.30887 0.25414 0.27871 0.0
C498 C 0.98101 0.19246 0.66202 0.0
C499 C 0.96558 0.23821 0.64917 0.0
C500 C 0.02231 0.32022 0.68548 0.0
C501 C 0.03421 0.27299 0.69907 0.0
N502 N 0.01893 0.16162 0.70218 0.0
N503 N 0.9619 0.34135 0.65052 0.0
C504 C 0.0117 0.20829 0.68787 0.0
C505 C 0.98314 0.30072 0.66152 0.0
N506 N 0.96694 0.13408 0.6493 0.0
N507 N 0.04947 0.38426 0.69526 0.0
H508 H 0.9348 0.33021 0.6327 0.0
H509 H 0.96638 0.38377 0.66001 0.0
H510 H 0.07735 0.40012 0.71293 0.0
H511 H 0.04923 0.42337 0.68491 0.0
H512 H 0.98434 0.10248 0.65577 0.0
H513 H 0.93986 0.11839 0.6314 0.0
H514 H 0.9965 0.11113 0.69685 0.0
H515 H 0.04498 0.17273 0.72031 0.0
C516 C 0.73816 0.05722 0.01235 0.0
C517 C 0.77758 0.04246 0.02998 0.0
C518 C 0.77949 0.96462 0.99645 0.0
C519 C 0.74475 0.98353 0.97818 0.0
N520 N 0.70339 0.05855 0.96674 0.0
N521 N 0.84765 0.99308 0.03672 0.0
C522 C 0.72825 0.0334 0.98548 0.0
C523 C 0.80156 0.99913 0.02141 0.0
N524 N 0.70628 0.09008 0.02158 0.0
N525 N 0.79136 0.91367 0.98998 0.0
H526 H 0.86698 0.01967 0.05454 0.0
H527 H 0.87187 0.96733 0.03051 0.0
H528 H 0.77794 0.88897 0.97153 0.0
H529 H 0.80989 0.89255 1.00355 0.0
H530 H 0.67038 0.09466 0.01046 0.0
H531 H 0.71058 0.10737 0.04116 0.0
H532 H 0.69785 0.10025 0.97019 0.0
H533 H 0.693 0.04121 0.94704 0.0
C534 C 0.80655 0.80672 0.32325 0.0
C535 C 0.7632 0.74312 0.31135 0.0
C536 C 0.69201 0.70968 0.35141 0.0
C537 C 0.73114 0.77557 0.36215 0.0
N538 N 0.81976 0.89016 0.35633 0.0
N539 N 0.65473 0.64128 0.3114 0.0
C540 C 0.78679 0.82512 0.34746 0.0
C541 C 0.70306 0.69661 0.32464 0.0
N542 N 0.86773 0.84859 0.31195 0.0
N543 N 0.64695 0.65825 0.36715 0.0
H544 H 0.65913 0.63112 0.29141 0.0
H545 H 0.6072 0.60957 0.31938 0.0
H546 H 0.63973 0.66423 0.38731 0.0
H547 H 0.62227 0.60816 0.36098 0.0
H548 H 0.90441 0.89259 0.32107 0.0
H549 H 0.8844 0.83622 0.29458 0.0
H550 H 0.85645 0.92991 0.34524 0.0
H551 H 0.80593 0.90537 0.37374 0.0
C552 C 0.0191 0.81003 0.65805 0.0
C553 C 0.03076 0.76261 0.64436 0.0
C554 C 0.98396 0.68541 0.6824 0.0
C555 C 0.96695 0.73024 0.69514 0.0
N556 N 0.95775 0.83 0.69307 0.0
N557 N 1.00735 0.64801 0.6406 0.0
C558 C 0.98143 0.79109 0.68232 0.0
C559 C 0.00837 0.69822 0.65568 0.0
N560 N 0.04607 0.87393 0.64837 0.0
N561 N 0.98055 0.63253 0.69619 0.0
H562 H 0.02208 0.65415 0.62061 0.0
H563 H 0.98512 0.59835 0.64705 0.0
H564 H 0.96519 0.62237 0.71606 0.0
H565 H 0.99938 0.60281 0.68876 0.0
H566 H 0.04528 0.91279 0.65882 0.0
H567 H 0.07472 0.88979 0.63091 0.0
H568 H 0.96085 0.87155 0.68341 0.0
H569 H 0.92918 0.81696 0.71056 0.0
C570 C 0.30955 0.99458 0.01984 0.0
C571 C 0.24889 0.97984 0.03299 0.0
C572 C 0.22177 0.03264 0.99592 0.0
C573 C 0.27867 0.0404 0.98165 0.0
N574 N 0.36592 0.01147 0.9774 0.0
N575 N 0.14214 0.97626 0.03193 0.0
C576 C 0.31963 0.01659 0.99287 0.0
C577 C 0.20354 0.99667 0.02059 0.0
N578 N 0.3594 0.99116 0.03343 0.0
N579 N 0.18607 0.06095 0.98615 0.0
H580 H 0.12675 0.94884 0.04967 0.0
H581 H 0.10421 0.9811 0.0226 0.0
H582 H 0.19831 0.08767 0.96822 0.0
H583 H 0.14821 0.06301 0.99684 0.0
H584 H 0.40706 0.00767 0.02542 0.0
H585 H 0.35594 0.97922 0.05367 0.0
H586 H 0.39227 0.98809 0.98391 0.0
H587 H 0.37247 0.02371 0.95715 0.0
loop_
_geom_bond_atom_site_label_1
_geom_bond_atom_site_label_2
_geom_bond_distance
_geom_bond_site_symmetry_2
_ccdc_geom_bond_type
In0 O1 2.294 . S
In0 O2 2.326 . S
In0 O6 2.266 . S
In0 O7 2.326 . S
In0 O8 2.266 . S
In0 O9 2.326 . S
In0 O11 2.294 . S
In0 O12 2.326 . S
O1 In0 2.294 . S
O1 C10 1.240 . S
O2 In0 2.326 . S
O2 C10 1.252 . S
C3 O6 1.252 . S
C3 O7 1.260 . S
C4 O11 1.240 . S
C4 O12 1.252 . S
C5 O8 1.252 . S
C5 O9 1.260 . S
O6 In0 2.266 . S
O6 C3 1.252 . S
O7 In0 2.326 . S
O7 C3 1.260 . S
O8 In0 2.266 . S
O8 C5 1.252 . S
O9 In0 2.326 . S
O9 C5 1.260 . S
C10 O1 1.240 . S
C10 O2 1.252 . S
O11 In0 2.294 . S
O11 C4 1.240 . S
O12 In0 2.326 . S
O12 C4 1.252 . S
In13 O14 2.294 . S
In13 O15 2.326 1_655 S
In13 O19 2.266 . S
In13 O20 2.326 . S
In13 O21 2.266 1_655 S
In13 O22 2.326 . S
In13 O24 2.294 . S
In13 O25 2.326 . S
O14 In13 2.294 . S
O14 C23 1.240 . S
O15 In13 2.326 1_455 S
O15 C23 1.252 1_455 S
C16 O19 1.252 . S
C16 O20 1.260 . S
C17 O24 1.240 . S
C17 O25 1.252 . S
C18 O21 1.252 . S
C18 O22 1.260 1_455 S
O19 In13 2.266 . S
O19 C16 1.252 . S
O20 In13 2.326 . S
O20 C16 1.260 . S
O21 In13 2.266 1_455 S
O21 C18 1.252 . S
O22 In13 2.326 . S
O22 C18 1.260 1_655 S
C23 O14 1.240 . S
C23 O15 1.252 1_655 S
O24 In13 2.294 . S
O24 C17 1.240 . S
O25 In13 2.326 . S
O25 C17 1.252 . S
In26 O27 2.294 . S
In26 O28 2.326 . S
In26 O32 2.266 1_565 S
In26 O33 2.326 . S
In26 O34 2.266 . S
In26 O35 2.326 . S
In26 O37 2.294 . S
In26 O38 2.326 1_565 S
O27 In26 2.294 . S
O27 C36 1.240 . S
O28 In26 2.326 . S
O28 C36 1.252 . S
C29 O32 1.252 . S
C29 O33 1.260 1_545 S
C30 O37 1.240 . S
C30 O38 1.252 1_565 S
C31 O34 1.252 . S
C31 O35 1.260 . S
O32 In26 2.266 1_545 S
O32 C29 1.252 . S
O33 In26 2.326 . S
O33 C29 1.260 1_565 S
O34 In26 2.266 . S
O34 C31 1.252 . S
O35 In26 2.326 . S
O35 C31 1.260 . S
C36 O27 1.240 . S
C36 O28 1.252 . S
O37 In26 2.294 . S
O37 C30 1.240 . S
O38 In26 2.326 1_545 S
O38 C30 1.252 1_545 S
In39 O40 2.294 . S
In39 O41 2.326 . S
In39 O45 2.266 . S
In39 O46 2.326 . S
In39 O47 2.266 . S
In39 O48 2.326 . S
In39 O50 2.294 . S
In39 O51 2.326 . S
O40 In39 2.294 . S
O40 C49 1.240 . S
O41 In39 2.326 . S
O41 C49 1.252 . S
C42 O45 1.252 . S
C42 O46 1.260 . S
C43 O50 1.240 . S
C43 O51 1.252 . S
C44 O47 1.252 . S
C44 O48 1.260 . S
O45 In39 2.266 . S
O45 C42 1.252 . S
O46 In39 2.326 . S
O46 C42 1.260 . S
O47 In39 2.266 . S
O47 C44 1.252 . S
O48 In39 2.326 . S
O48 C44 1.260 . S
C49 O40 1.240 . S
C49 O41 1.252 . S
O50 In39 2.294 . S
O50 C43 1.240 . S
O51 In39 2.326 . S
O51 C43 1.252 . S
In52 O53 2.294 . S
In52 O54 2.326 1_455 S
In52 O58 2.266 . S
In52 O59 2.326 . S
In52 O60 2.266 1_455 S
In52 O61 2.326 . S
In52 O63 2.294 . S
In52 O64 2.326 . S
O53 In52 2.294 . S
O53 C62 1.240 . S
O54 In52 2.326 1_655 S
O54 C62 1.252 1_655 S
C55 O58 1.252 . S
C55 O59 1.260 . S
C56 O63 1.240 . S
C56 O64 1.252 . S
C57 O60 1.252 . S
C57 O61 1.260 1_655 S
O58 In52 2.266 . S
O58 C55 1.252 . S
O59 In52 2.326 . S
O59 C55 1.260 . S
O60 In52 2.266 1_655 S
O60 C57 1.252 . S
O61 In52 2.326 . S
O61 C57 1.260 1_455 S
C62 O53 1.240 . S
C62 O54 1.252 1_455 S
O63 In52 2.294 . S
O63 C56 1.240 . S
O64 In52 2.326 . S
O64 C56 1.252 . S
In65 O66 2.294 . S
In65 O67 2.326 1_545 S
In65 O71 2.266 . S
In65 O72 2.326 . S
In65 O73 2.266 1_545 S
In65 O74 2.326 . S
In65 O76 2.294 . S
In65 O77 2.326 . S
O66 In65 2.294 . S
O66 C75 1.240 . S
O67 In65 2.326 1_565 S
O67 C75 1.252 1_565 S
C68 O71 1.252 . S
C68 O72 1.260 . S
C69 O76 1.240 . S
C69 O77 1.252 . S
C70 O73 1.252 . S
C70 O74 1.260 1_565 S
O71 In65 2.266 . S
O71 C68 1.252 . S
O72 In65 2.326 . S
O72 C68 1.260 . S
O73 In65 2.266 1_565 S
O73 C70 1.252 . S
O74 In65 2.326 . S
O74 C70 1.260 1_545 S
C75 O66 1.240 . S
C75 O67 1.252 1_545 S
O76 In65 2.294 . S
O76 C69 1.240 . S
O77 In65 2.326 . S
O77 C69 1.252 . S
In78 O79 2.294 . S
In78 O80 2.326 . S
In78 O84 2.266 . S
In78 O85 2.326 . S
In78 O86 2.266 . S
In78 O87 2.326 . S
In78 O89 2.294 . S
In78 O90 2.326 . S
O79 In78 2.294 . S
O79 C88 1.240 . S
O80 In78 2.326 . S
O80 C88 1.252 . S
C81 O84 1.252 . S
C81 O85 1.260 . S
C82 O89 1.240 . S
C82 O90 1.252 . S
C83 O86 1.252 . S
C83 O87 1.260 . S
O84 In78 2.266 . S
O84 C81 1.252 . S
O85 In78 2.326 . S
O85 C81 1.260 . S
O86 In78 2.266 . S
O86 C83 1.252 . S
O87 In78 2.326 . S
O87 C83 1.260 . S
C88 O79 1.240 . S
C88 O80 1.252 . S
O89 In78 2.294 . S
O89 C82 1.240 . S
O90 In78 2.326 . S
O90 C82 1.252 . S
In91 O92 2.294 . S
In91 O93 2.326 1_655 S
In91 O97 2.266 . S
In91 O98 2.326 . S
In91 O99 2.266 1_655 S
In91 O100 2.326 . S
In91 O102 2.294 . S
In91 O103 2.326 . S
O92 In91 2.294 . S
O92 C101 1.240 . S
O93 In91 2.326 1_455 S
O93 C101 1.252 1_455 S
C94 O97 1.252 . S
C94 O98 1.260 . S
C95 O102 1.240 . S
C95 O103 1.252 . S
C96 O99 1.252 . S
C96 O100 1.260 1_455 S
O97 In91 2.266 . S
O97 C94 1.252 . S
O98 In91 2.326 . S
O98 C94 1.260 . S
O99 In91 2.266 1_455 S
O99 C96 1.252 . S
O100 In91 2.326 . S
O100 C96 1.260 1_655 S
C101 O92 1.240 . S
C101 O93 1.252 1_655 S
O102 In91 2.294 . S
O102 C95 1.240 . S
O103 In91 2.326 . S
O103 C95 1.252 . S
In104 O105 2.294 . S
In104 O106 2.326 1_565 S
In104 O110 2.266 . S
In104 O111 2.326 . S
In104 O112 2.266 1_565 S
In104 O113 2.326 . S
In104 O115 2.294 . S
In104 O116 2.326 . S
O105 In104 2.294 . S
O105 C114 1.240 . S
O106 In104 2.326 1_545 S
O106 C114 1.252 1_545 S
C107 O110 1.252 . S
C107 O111 1.260 . S
C108 O115 1.240 . S
C108 O116 1.252 . S
C109 O112 1.252 . S
C109 O113 1.260 1_545 S
O110 In104 2.266 . S
O110 C107 1.252 . S
O111 In104 2.326 . S
O111 C107 1.260 . S
O112 In104 2.266 1_545 S
O112 C109 1.252 . S
O113 In104 2.326 . S
O113 C109 1.260 1_565 S
C114 O105 1.240 . S
C114 O106 1.252 1_565 S
O115 In104 2.294 . S
O115 C108 1.240 . S
O116 In104 2.326 . S
O116 C108 1.252 . S
In117 O118 2.294 . S
In117 O119 2.326 . S
In117 O123 2.266 . S
In117 O124 2.326 . S
In117 O125 2.266 . S
In117 O126 2.326 . S
In117 O128 2.294 . S
In117 O129 2.326 . S
O118 In117 2.294 . S
O118 C127 1.240 . S
O119 In117 2.326 . S
O119 C127 1.252 . S
C120 O123 1.252 . S
C120 O124 1.260 . S
C121 O128 1.240 . S
C121 O129 1.252 . S
C122 O125 1.252 . S
C122 O126 1.260 . S
O123 In117 2.266 . S
O123 C120 1.252 . S
O124 In117 2.326 . S
O124 C120 1.260 . S
O125 In117 2.266 . S
O125 C122 1.252 . S
O126 In117 2.326 . S
O126 C122 1.260 . S
C127 O118 1.240 . S
C127 O119 1.252 . S
O128 In117 2.294 . S
O128 C121 1.240 . S
O129 In117 2.326 . S
O129 C121 1.252 . S
In130 O131 2.294 . S
In130 O132 2.326 . S
In130 O136 2.266 1_455 S
In130 O137 2.326 . S
In130 O138 2.266 . S
In130 O139 2.326 . S
In130 O141 2.294 . S
In130 O142 2.326 1_455 S
O131 In130 2.294 . S
O131 C140 1.240 . S
O132 In130 2.326 . S
O132 C140 1.252 . S
C133 O136 1.252 . S
C133 O137 1.260 1_655 S
C134 O141 1.240 . S
C134 O142 1.252 1_455 S
C135 O138 1.252 . S
C135 O139 1.260 . S
O136 In130 2.266 1_655 S
O136 C133 1.252 . S
O137 In130 2.326 . S
O137 C133 1.260 1_455 S
O138 In130 2.266 . S
O138 C135 1.252 . S
O139 In130 2.326 . S
O139 C135 1.260 . S
C140 O131 1.240 . S
C140 O132 1.252 . S
O141 In130 2.294 . S
O141 C134 1.240 . S
O142 In130 2.326 1_655 S
O142 C134 1.252 1_655 S
In143 O144 2.294 . S
In143 O145 2.326 . S
In143 O149 2.266 1_545 S
In143 O150 2.326 . S
In143 O151 2.266 . S
In143 O152 2.326 . S
In143 O154 2.294 . S
In143 O155 2.326 1_545 S
O144 In143 2.294 . S
O144 C153 1.240 . S
O145 In143 2.326 . S
O145 C153 1.252 . S
C146 O149 1.252 . S
C146 O150 1.260 1_565 S
C147 O154 1.240 . S
C147 O155 1.252 1_545 S
C148 O151 1.252 . S
C148 O152 1.260 . S
O149 In143 2.266 1_565 S
O149 C146 1.252 . S
O150 In143 2.326 . S
O150 C146 1.260 1_545 S
O151 In143 2.266 . S
O151 C148 1.252 . S
O152 In143 2.326 . S
O152 C148 1.260 . S
C153 O144 1.240 . S
C153 O145 1.252 . S
O154 In143 2.294 . S
O154 C147 1.240 . S
O155 In143 2.326 1_565 S
O155 C147 1.252 1_565 S
C156 C157 1.363 1_455 S
C156 C162 1.379 . S
C156 N164 1.356 . S
C157 C156 1.363 1_655 S
C157 C163 1.363 . S
C158 C159 1.363 1_655 S
C158 C163 1.379 . S
C158 N165 1.356 . S
C159 C158 1.363 1_455 S
C159 C162 1.363 . S
N160 C162 1.356 . S
N160 H172 0.984 . S
N160 H173 0.985 . S
N161 C163 1.356 . S
N161 H166 0.984 . S
N161 H167 0.985 . S
C162 C156 1.379 . S
C162 C159 1.363 . S
C162 N160 1.356 . S
C163 C157 1.363 . S
C163 C158 1.379 . S
C163 N161 1.356 . S
N164 C156 1.356 . S
N164 H170 0.984 . S
N164 H171 0.984 1_455 S
N165 C158 1.356 . S
N165 H168 0.984 1_655 S
N165 H169 0.985 . S
H166 N161 0.984 . S
H167 N161 0.985 . S
H168 N165 0.984 1_455 S
H169 N165 0.985 . S
H170 N164 0.984 . S
H171 N164 0.984 1_655 S
H172 N160 0.984 . S
H173 N160 0.985 . S
C174 C175 1.363 1_565 S
C174 C180 1.379 . S
C174 N182 1.356 . S
C175 C174 1.363 1_545 S
C175 C181 1.363 . S
C176 C177 1.363 1_545 S
C176 C181 1.379 . S
C176 N183 1.356 . S
C177 C176 1.363 1_565 S
C177 C180 1.363 . S
N178 C180 1.356 . S
N178 H190 0.984 . S
N178 H191 0.985 . S
N179 C181 1.356 . S
N179 H184 0.984 . S
N179 H185 0.985 . S
C180 C174 1.379 . S
C180 C177 1.363 . S
C180 N178 1.356 . S
C181 C175 1.363 . S
C181 C176 1.379 . S
C181 N179 1.356 . S
N182 C174 1.356 . S
N182 H188 0.984 . S
N182 H189 0.984 1_565 S
N183 C176 1.356 . S
N183 H186 0.984 1_545 S
N183 H187 0.985 . S
H184 N179 0.984 . S
H185 N179 0.985 . S
H186 N183 0.984 1_565 S
H187 N183 0.985 . S
H188 N182 0.984 . S
H189 N182 0.984 1_545 S
H190 N178 0.984 . S
H191 N178 0.985 . S
C192 C193 1.363 . S
C192 C198 1.379 . S
C192 N200 1.356 . S
C193 C192 1.363 . S
C193 C199 1.363 . S
C194 C195 1.363 . S
C194 C199 1.379 . S
C194 N201 1.356 . S
C195 C194 1.363 . S
C195 C198 1.363 . S
N196 C198 1.356 . S
N196 H208 0.984 . S
N196 H209 0.985 . S
N197 C199 1.356 . S
N197 H202 0.984 . S
N197 H203 0.985 . S
C198 C192 1.379 . S
C198 C195 1.363 . S
C198 N196 1.356 . S
C199 C193 1.363 . S
C199 C194 1.379 . S
C199 N197 1.356 . S
N200 C192 1.356 . S
N200 H206 0.984 . S
N200 H207 0.984 . S
N201 C194 1.356 . S
N201 H204 0.984 . S
N201 H205 0.985 . S
H202 N197 0.984 . S
H203 N197 0.985 . S
H204 N201 0.984 . S
H205 N201 0.985 . S
H206 N200 0.984 . S
H207 N200 0.984 . S
H208 N196 0.984 . S
H209 N196 0.985 . S
C210 C211 1.363 . S
C210 C216 1.379 1_655 S
C210 N218 1.356 . S
C211 C210 1.363 . S
C211 C217 1.363 . S
C212 C213 1.363 . S
C212 C217 1.379 1_455 S
C212 N219 1.356 . S
C213 C212 1.363 . S
C213 C216 1.363 . S
N214 C216 1.356 . S
N214 H226 0.984 . S
N214 H227 0.985 . S
N215 C217 1.356 . S
N215 H220 0.984 . S
N215 H221 0.985 . S
C216 C210 1.379 1_455 S
C216 C213 1.363 . S
C216 N214 1.356 . S
C217 C211 1.363 . S
C217 C212 1.379 1_655 S
C217 N215 1.356 . S
N218 C210 1.356 . S
N218 H224 0.984 1_655 S
N218 H225 0.984 . S
N219 C212 1.356 . S
N219 H222 0.984 . S
N219 H223 0.985 1_455 S
H220 N215 0.984 . S
H221 N215 0.985 . S
H222 N219 0.984 . S
H223 N219 0.985 1_655 S
H224 N218 0.984 1_455 S
H225 N218 0.984 . S
H226 N214 0.984 . S
H227 N214 0.985 . S
C228 C229 1.363 . S
C228 C234 1.379 1_545 S
C228 N236 1.356 . S
C229 C228 1.363 . S
C229 C235 1.363 . S
C230 C231 1.363 . S
C230 C235 1.379 1_565 S
C230 N237 1.356 . S
C231 C230 1.363 . S
C231 C234 1.363 . S
N232 C234 1.356 . S
N232 H244 0.984 . S
N232 H245 0.985 . S
N233 C235 1.356 . S
N233 H238 0.984 . S
N233 H239 0.985 . S
C234 C228 1.379 1_565 S
C234 C231 1.363 . S
C234 N232 1.356 . S
C235 C229 1.363 . S
C235 C230 1.379 1_545 S
C235 N233 1.356 . S
N236 C228 1.356 . S
N236 H242 0.984 . S
N236 H243 0.984 . S
N237 C230 1.356 . S
N237 H240 0.984 . S
N237 H241 0.985 . S
H238 N233 0.984 . S
H239 N233 0.985 . S
H240 N237 0.984 . S
H241 N237 0.985 . S
H242 N236 0.984 . S
H243 N236 0.984 . S
H244 N232 0.984 . S
H245 N232 0.985 . S
C246 C247 1.363 . S
C246 C252 1.379 . S
C246 N254 1.356 . S
C247 C246 1.363 . S
C247 C253 1.363 . S
C248 C249 1.363 . S
C248 C253 1.379 . S
C248 N255 1.356 . S
C249 C248 1.363 . S
C249 C252 1.363 . S
N250 C252 1.356 . S
N250 H262 0.984 . S
N250 H263 0.985 . S
N251 C253 1.356 . S
N251 H256 0.984 . S
N251 H257 0.985 . S
C252 C246 1.379 . S
C252 C249 1.363 . S
C252 N250 1.356 . S
C253 C247 1.363 . S
C253 C248 1.379 . S
C253 N251 1.356 . S
N254 C246 1.356 . S
N254 H260 0.984 . S
N254 H261 0.984 . S
N255 C248 1.356 . S
N255 H258 0.984 . S
N255 H259 0.985 . S
H256 N251 0.984 . S
H257 N251 0.985 . S
H258 N255 0.984 . S
H259 N255 0.985 . S
H260 N254 0.984 . S
H261 N254 0.984 . S
H262 N250 0.984 . S
H263 N250 0.985 . S
C264 C265 1.363 . S
C264 C270 1.379 . S
C264 N272 1.356 . S
C265 C264 1.363 . S
C265 C271 1.363 . S
C266 C267 1.363 . S
C266 C271 1.379 . S
C266 N273 1.356 . S
C267 C266 1.363 . S
C267 C270 1.363 . S
N268 C270 1.356 . S
N268 H280 0.984 . S
N268 H281 0.985 . S
N269 C271 1.356 . S
N269 H274 0.984 . S
N269 H275 0.985 . S
C270 C264 1.379 . S
C270 C267 1.363 . S
C270 N268 1.356 . S
C271 C265 1.363 . S
C271 C266 1.379 . S
C271 N269 1.356 . S
N272 C264 1.356 . S
N272 H278 0.984 . S
N272 H279 0.984 . S
N273 C266 1.356 . S
N273 H276 0.984 . S
N273 H277 0.985 . S
H274 N269 0.984 . S
H275 N269 0.985 . S
H276 N273 0.984 . S
H277 N273 0.985 . S
H278 N272 0.984 . S
H279 N272 0.984 . S
H280 N268 0.984 . S
H281 N268 0.985 . S
C282 C283 1.363 . S
C282 C288 1.379 . S
C282 N290 1.356 . S
C283 C282 1.363 . S
C283 C289 1.363 1_455 S
C284 C285 1.363 . S
C284 C289 1.379 . S
C284 N291 1.356 . S
C285 C284 1.363 . S
C285 C288 1.363 1_655 S
N286 C288 1.356 . S
N286 H298 0.984 . S
N286 H299 0.985 . S
N287 C289 1.356 . S
N287 H292 0.984 . S
N287 H293 0.985 . S
C288 C282 1.379 . S
C288 C285 1.363 1_455 S
C288 N286 1.356 . S
C289 C283 1.363 1_655 S
C289 C284 1.379 . S
C289 N287 1.356 . S
N290 C282 1.356 . S
N290 H296 0.984 . S
N290 H297 0.984 . S
N291 C284 1.356 . S
N291 H294 0.984 . S
N291 H295 0.985 . S
H292 N287 0.984 . S
H293 N287 0.985 . S
H294 N291 0.984 . S
H295 N291 0.985 . S
H296 N290 0.984 . S
H297 N290 0.984 . S
H298 N286 0.984 . S
H299 N286 0.985 . S
C300 C301 1.363 1_565 S
C300 C306 1.379 . S
C300 N308 1.356 . S
C301 C300 1.363 1_545 S
C301 C307 1.363 . S
C302 C303 1.363 1_545 S
C302 C307 1.379 . S
C302 N309 1.356 . S
C303 C302 1.363 1_565 S
C303 C306 1.363 . S
N304 C306 1.356 . S
N304 H316 0.984 . S
N304 H317 0.985 . S
N305 C307 1.356 . S
N305 H310 0.984 . S
N305 H311 0.985 . S
C306 C300 1.379 . S
C306 C303 1.363 . S
C306 N304 1.356 . S
C307 C301 1.363 . S
C307 C302 1.379 . S
C307 N305 1.356 . S
N308 C300 1.356 . S
N308 H314 0.984 . S
N308 H315 0.984 . S
N309 C302 1.356 . S
N309 H312 0.984 . S
N309 H313 0.985 . S
H310 N305 0.984 . S
H311 N305 0.985 . S
H312 N309 0.984 . S
H313 N309 0.985 . S
H314 N308 0.984 . S
H315 N308 0.984 . S
H316 N304 0.984 . S
H317 N304 0.985 . S
C318 C319 1.363 . S
C318 C324 1.379 . S
C318 N326 1.356 . S
C319 C318 1.363 . S
C319 C325 1.363 . S
C320 C321 1.363 . S
C320 C325 1.379 . S
C320 N327 1.356 . S
C321 C320 1.363 . S
C321 C324 1.363 . S
N322 C324 1.356 . S
N322 H334 0.984 . S
N322 H335 0.985 . S
N323 C325 1.356 . S
N323 H328 0.984 . S
N323 H329 0.985 . S
C324 C318 1.379 . S
C324 C321 1.363 . S
C324 N322 1.356 . S
C325 C319 1.363 . S
C325 C320 1.379 . S
C325 N323 1.356 . S
N326 C318 1.356 . S
N326 H332 0.984 . S
N326 H333 0.984 . S
N327 C320 1.356 . S
N327 H330 0.984 . S
N327 H331 0.985 . S
H328 N323 0.984 . S
H329 N323 0.985 . S
H330 N327 0.984 . S
H331 N327 0.985 . S
H332 N326 0.984 . S
H333 N326 0.984 . S
H334 N322 0.984 . S
H335 N322 0.985 . S
C336 C337 1.363 1_455 S
C336 C342 1.379 . S
C336 N344 1.356 . S
C337 C336 1.363 1_655 S
C337 C343 1.363 . S
C338 C339 1.363 1_655 S
C338 C343 1.379 . S
C338 N345 1.356 . S
C339 C338 1.363 1_455 S
C339 C342 1.363 . S
N340 C342 1.356 . S
N340 H352 0.984 . S
N340 H353 0.985 . S
N341 C343 1.356 . S
N341 H346 0.984 . S
N341 H347 0.985 . S
C342 C336 1.379 . S
C342 C339 1.363 . S
C342 N340 1.356 . S
C343 C337 1.363 . S
C343 C338 1.379 . S
C343 N341 1.356 . S
N344 C336 1.356 . S
N344 H350 0.984 . S
N344 H351 0.984 . S
N345 C338 1.356 . S
N345 H348 0.984 . S
N345 H349 0.985 . S
H346 N341 0.984 . S
H347 N341 0.985 . S
H348 N345 0.984 . S
H349 N345 0.985 . S
H350 N344 0.984 . S
H351 N344 0.984 . S
H352 N340 0.984 . S
H353 N340 0.985 . S
C354 C355 1.363 1_545 S
C354 C360 1.379 . S
C354 N362 1.356 . S
C355 C354 1.363 1_565 S
C355 C361 1.363 . S
C356 C357 1.363 1_565 S
C356 C361 1.379 . S
C356 N363 1.356 . S
C357 C356 1.363 1_545 S
C357 C360 1.363 . S
N358 C360 1.356 . S
N358 H370 0.984 . S
N358 H371 0.985 . S
N359 C361 1.356 . S
N359 H364 0.984 . S
N359 H365 0.985 . S
C360 C354 1.379 . S
C360 C357 1.363 . S
C360 N358 1.356 . S
C361 C355 1.363 . S
C361 C356 1.379 . S
C361 N359 1.356 . S
N362 C354 1.356 . S
N362 H368 0.984 . S
N362 H369 0.984 . S
N363 C356 1.356 . S
N363 H366 0.984 . S
N363 H367 0.985 . S
H364 N359 0.984 . S
H365 N359 0.985 . S
H366 N363 0.984 . S
H367 N363 0.985 . S
H368 N362 0.984 . S
H369 N362 0.984 . S
H370 N358 0.984 . S
H371 N358 0.985 . S
C372 C373 1.363 . S
C372 C378 1.379 . S
C372 N380 1.356 . S
C373 C372 1.363 . S
C373 C379 1.363 . S
C374 C375 1.363 . S
C374 C379 1.379 . S
C374 N381 1.356 . S
C375 C374 1.363 . S
C375 C378 1.363 . S
N376 C378 1.356 . S
N376 H388 0.984 . S
N376 H389 0.985 . S
N377 C379 1.356 . S
N377 H382 0.984 . S
N377 H383 0.985 . S
C378 C372 1.379 . S
C378 C375 1.363 . S
C378 N376 1.356 . S
C379 C373 1.363 . S
C379 C374 1.379 . S
C379 N377 1.356 . S
N380 C372 1.356 . S
N380 H386 0.984 . S
N380 H387 0.984 1_545 S
N381 C374 1.356 . S
N381 H384 0.984 . S
N381 H385 0.985 . S
H382 N377 0.984 . S
H383 N377 0.985 . S
H384 N381 0.984 . S
H385 N381 0.985 . S
H386 N380 0.984 . S
H387 N380 0.984 1_565 S
H388 N376 0.984 . S
H389 N376 0.985 . S
C390 C391 1.363 . S
C390 C396 1.379 . S
C390 N398 1.356 . S
C391 C390 1.363 . S
C391 C397 1.363 . S
C392 C393 1.363 . S
C392 C397 1.379 . S
C392 N399 1.356 . S
C393 C392 1.363 . S
C393 C396 1.363 . S
N394 C396 1.356 . S
N394 H406 0.984 . S
N394 H407 0.985 . S
N395 C397 1.356 . S
N395 H400 0.984 . S
N395 H401 0.985 . S
C396 C390 1.379 . S
C396 C393 1.363 . S
C396 N394 1.356 . S
C397 C391 1.363 . S
C397 C392 1.379 . S
C397 N395 1.356 . S
N398 C390 1.356 . S
N398 H404 0.984 . S
N398 H405 0.984 . S
N399 C392 1.356 . S
N399 H402 0.984 . S
N399 H403 0.985 . S
H400 N395 0.984 . S
H401 N395 0.985 . S
H402 N399 0.984 . S
H403 N399 0.985 . S
H404 N398 0.984 . S
H405 N398 0.984 . S
H406 N394 0.984 . S
H407 N394 0.985 . S
C408 C409 1.363 . S
C408 C414 1.379 . S
C408 N416 1.356 . S
C409 C408 1.363 . S
C409 C415 1.363 . S
C410 C411 1.363 . S
C410 C415 1.379 . S
C410 N417 1.356 . S
C411 C410 1.363 . S
C411 C414 1.363 . S
N412 C414 1.356 . S
N412 H424 0.984 . S
N412 H425 0.985 . S
N413 C415 1.356 . S
N413 H418 0.984 1_655 S
N413 H419 0.985 1_655 S
C414 C408 1.379 . S
C414 C411 1.363 . S
C414 N412 1.356 . S
C415 C409 1.363 . S
C415 C410 1.379 . S
C415 N413 1.356 . S
N416 C408 1.356 . S
N416 H422 0.984 . S
N416 H423 0.984 . S
N417 C410 1.356 . S
N417 H420 0.984 1_545 S
N417 H421 0.985 1_545 S
H418 N413 0.984 1_455 S
H419 N413 0.985 1_455 S
H420 N417 0.984 1_565 S
H421 N417 0.985 1_565 S
H422 N416 0.984 . S
H423 N416 0.984 . S
H424 N412 0.984 . S
H425 N412 0.985 . S
C426 C427 1.363 . S
C426 C432 1.379 . S
C426 N434 1.356 . S
C427 C426 1.363 . S
C427 C433 1.363 . S
C428 C429 1.363 . S
C428 C433 1.379 . S
C428 N435 1.356 . S
C429 C428 1.363 . S
C429 C432 1.363 . S
N430 C432 1.356 . S
N430 H442 0.984 . S
N430 H443 0.985 . S
N431 C433 1.356 . S
N431 H436 0.984 . S
N431 H437 0.985 . S
C432 C426 1.379 . S
C432 C429 1.363 . S
C432 N430 1.356 . S
C433 C427 1.363 . S
C433 C428 1.379 . S
C433 N431 1.356 . S
N434 C426 1.356 . S
N434 H440 0.984 . S
N434 H441 0.984 . S
N435 C428 1.356 . S
N435 H438 0.984 . S
N435 H439 0.985 . S
H436 N431 0.984 . S
H437 N431 0.985 . S
H438 N435 0.984 . S
H439 N435 0.985 . S
H440 N434 0.984 . S
H441 N434 0.984 . S
H442 N430 0.984 . S
H443 N430 0.985 . S
C444 C445 1.363 . S
C444 C450 1.379 . S
C444 N452 1.356 . S
C445 C444 1.363 . S
C445 C451 1.363 . S
C446 C447 1.363 . S
C446 C451 1.379 . S
C446 N453 1.356 1_655 S
C447 C446 1.363 . S
C447 C450 1.363 . S
N448 C450 1.356 . S
N448 H460 0.984 . S
N448 H461 0.985 . S
N449 C451 1.356 . S
N449 H454 0.984 . S
N449 H455 0.985 . S
C450 C444 1.379 . S
C450 C447 1.363 . S
C450 N448 1.356 . S
C451 C445 1.363 . S
C451 C446 1.379 . S
C451 N449 1.356 . S
N452 C444 1.356 . S
N452 H458 0.984 . S
N452 H459 0.984 . S
N453 C446 1.356 1_455 S
N453 H456 0.984 . S
N453 H457 0.985 . S
H454 N449 0.984 . S
H455 N449 0.985 . S
H456 N453 0.984 . S
H457 N453 0.985 . S
H458 N452 0.984 . S
H459 N452 0.984 . S
H460 N448 0.984 . S
H461 N448 0.985 . S
C462 C463 1.363 . S
C462 C468 1.379 . S
C462 N470 1.356 . S
C463 C462 1.363 . S
C463 C469 1.363 . S
C464 C465 1.363 . S
C464 C469 1.379 . S
C464 N471 1.356 . S
C465 C464 1.363 . S
C465 C468 1.363 . S
N466 C468 1.356 . S
N466 H478 0.984 . S
N466 H479 0.985 . S
N467 C469 1.356 . S
N467 H472 0.984 1_565 S
N467 H473 0.985 1_565 S
C468 C462 1.379 . S
C468 C465 1.363 . S
C468 N466 1.356 . S
C469 C463 1.363 . S
C469 C464 1.379 . S
C469 N467 1.356 . S
N470 C462 1.356 . S
N470 H476 0.984 . S
N470 H477 0.984 . S
N471 C464 1.356 . S
N471 H474 0.984 . S
N471 H475 0.985 . S
H472 N467 0.984 1_545 S
H473 N467 0.985 1_545 S
H474 N471 0.984 . S
H475 N471 0.985 . S
H476 N470 0.984 . S
H477 N470 0.984 . S
H478 N466 0.984 . S
H479 N466 0.985 . S
C480 C481 1.363 . S
C480 C486 1.379 . S
C480 N488 1.356 . S
C481 C480 1.363 . S
C481 C487 1.363 . S
C482 C483 1.363 . S
C482 C487 1.379 . S
C482 N489 1.356 . S
C483 C482 1.363 . S
C483 C486 1.363 . S
N484 C486 1.356 . S
N484 H496 0.984 . S
N484 H497 0.985 . S
N485 C487 1.356 . S
N485 H490 0.984 . S
N485 H491 0.985 . S
C486 C480 1.379 . S
C486 C483 1.363 . S
C486 N484 1.356 . S
C487 C481 1.363 . S
C487 C482 1.379 . S
C487 N485 1.356 . S
N488 C480 1.356 . S
N488 H494 0.984 . S
N488 H495 0.984 . S
N489 C482 1.356 . S
N489 H492 0.984 . S
N489 H493 0.985 . S
H490 N485 0.984 . S
H491 N485 0.985 . S
H492 N489 0.984 . S
H493 N489 0.985 . S
H494 N488 0.984 . S
H495 N488 0.984 . S
H496 N484 0.984 . S
H497 N484 0.985 . S
C498 C499 1.363 . S
C498 C504 1.379 . S
C498 N506 1.356 . S
C499 C498 1.363 . S
C499 C505 1.363 1_655 S
C500 C501 1.363 . S
C500 C505 1.379 . S
C500 N507 1.356 . S
C501 C500 1.363 . S
C501 C504 1.363 1_455 S
N502 C504 1.356 . S
N502 H514 0.984 . S
N502 H515 0.985 1_655 S
N503 C505 1.356 . S
N503 H508 0.984 1_455 S
N503 H509 0.985 . S
C504 C498 1.379 . S
C504 C501 1.363 1_655 S
C504 N502 1.356 . S
C505 C499 1.363 1_455 S
C505 C500 1.379 . S
C505 N503 1.356 . S
N506 C498 1.356 . S
N506 H512 0.984 . S
N506 H513 0.984 . S
N507 C500 1.356 . S
N507 H510 0.984 . S
N507 H511 0.985 . S
H508 N503 0.984 1_655 S
H509 N503 0.985 . S
H510 N507 0.984 . S
H511 N507 0.985 . S
H512 N506 0.984 . S
H513 N506 0.984 . S
H514 N502 0.984 . S
H515 N502 0.985 1_455 S
C516 C517 1.363 . S
C516 C522 1.379 1_554 S
C516 N524 1.356 . S
C517 C516 1.363 . S
C517 C523 1.363 1_545 S
C518 C519 1.363 . S
C518 C523 1.379 1_556 S
C518 N525 1.356 . S
C519 C518 1.363 . S
C519 C522 1.363 1_565 S
N520 C522 1.356 . S
N520 H532 0.984 . S
N520 H533 0.985 1_545 S
N521 C523 1.356 . S
N521 H526 0.984 1_565 S
N521 H527 0.985 . S
C522 C516 1.379 1_556 S
C522 C519 1.363 1_545 S
C522 N520 1.356 . S
C523 C517 1.363 1_565 S
C523 C518 1.379 1_554 S
C523 N521 1.356 . S
N524 C516 1.356 . S
N524 H530 0.984 . S
N524 H531 0.984 . S
N525 C518 1.356 . S
N525 H528 0.984 . S
N525 H529 0.985 . S
H526 N521 0.984 1_545 S
H527 N521 0.985 . S
H528 N525 0.984 . S
H529 N525 0.985 . S
H530 N524 0.984 . S
H531 N524 0.984 . S
H532 N520 0.984 . S
H533 N520 0.985 1_565 S
C534 C535 1.363 . S
C534 C540 1.379 . S
C534 N542 1.356 . S
C535 C534 1.363 . S
C535 C541 1.363 . S
C536 C537 1.363 . S
C536 C541 1.379 . S
C536 N543 1.356 . S
C537 C536 1.363 . S
C537 C540 1.363 . S
N538 C540 1.356 . S
N538 H550 0.984 . S
N538 H551 0.985 . S
N539 C541 1.356 . S
N539 H544 0.984 . S
N539 H545 0.985 . S
C540 C534 1.379 . S
C540 C537 1.363 . S
C540 N538 1.356 . S
C541 C535 1.363 . S
C541 C536 1.379 . S
C541 N539 1.356 . S
N542 C534 1.356 . S
N542 H548 0.984 . S
N542 H549 0.984 . S
N543 C536 1.356 . S
N543 H546 0.984 . S
N543 H547 0.985 . S
H544 N539 0.984 . S
H545 N539 0.985 . S
H546 N543 0.984 . S
H547 N543 0.985 . S
H548 N542 0.984 . S
H549 N542 0.984 . S
H550 N538 0.984 . S
H551 N538 0.985 . S
C552 C553 1.363 . S
C552 C558 1.379 . S
C552 N560 1.356 . S
C553 C552 1.363 . S
C553 C559 1.363 1_455 S
C554 C555 1.363 . S
C554 C559 1.379 . S
C554 N561 1.356 . S
C555 C554 1.363 . S
C555 C558 1.363 1_655 S
N556 C558 1.356 . S
N556 H568 0.984 . S
N556 H569 0.985 1_455 S
N557 C559 1.356 . S
N557 H562 0.984 1_655 S
N557 H563 0.985 . S
C558 C552 1.379 . S
C558 C555 1.363 1_455 S
C558 N556 1.356 . S
C559 C553 1.363 1_655 S
C559 C554 1.379 . S
C559 N557 1.356 . S
N560 C552 1.356 . S
N560 H566 0.984 . S
N560 H567 0.984 . S
N561 C554 1.356 . S
N561 H564 0.984 . S
N561 H565 0.985 . S
H562 N557 0.984 1_455 S
H563 N557 0.985 . S
H564 N561 0.984 . S
H565 N561 0.985 . S
H566 N560 0.984 . S
H567 N560 0.984 . S
H568 N556 0.984 . S
H569 N556 0.985 1_655 S
C570 C571 1.363 . S
C570 C576 1.379 1_554 S
C570 N578 1.356 . S
C571 C570 1.363 . S
C571 C577 1.363 1_565 S
C572 C573 1.363 . S
C572 C577 1.379 1_556 S
C572 N579 1.356 . S
C573 C572 1.363 . S
C573 C576 1.363 1_545 S
N574 C576 1.356 . S
N574 H586 0.984 . S
N574 H587 0.985 . S
N575 C577 1.356 . S
N575 H580 0.984 . S
N575 H581 0.985 . S
C576 C570 1.379 1_556 S
C576 C573 1.363 1_565 S
C576 N574 1.356 . S
C577 C571 1.363 1_545 S
C577 C572 1.379 1_554 S
C577 N575 1.356 . S
N578 C570 1.356 . S
N578 H584 0.984 . S
N578 H585 0.984 . S
N579 C572 1.356 . S
N579 H582 0.984 . S
N579 H583 0.985 . S
H580 N575 0.984 . S
H581 N575 0.985 . S
H582 N579 0.984 . S
H583 N579 0.985 . S
H584 N578 0.984 . S
H585 N578 0.984 . S
H586 N574 0.984 . S
H587 N574 0.985 . S
C157 C148 1.763 . S
C159 C3 1.763 . S
C175 C16 1.763 . S
C177 C81 1.763 . S
C193 C31 1.763 . S
C195 C94 1.763 . S
C211 C44 1.763 . S
C213 C107 1.763 . S
C229 C122 1.763 . S
C231 C55 1.763 . S
C247 C68 1.763 . S
C249 C135 1.763 . S
C265 C43 1.486 . S
C267 C10 1.486 . S
C283 C62 1.486 . S
C285 C23 1.486 . S
C301 C75 1.486 . S
C303 C30 1.486 . S
C319 C88 1.486 . S
C321 C121 1.486 . S
C337 C101 1.486 . S
C339 C134 1.486 . S
C355 C114 1.486 . S
C357 C147 1.486 . S
C373 C109 0.817 . S
C375 C5 0.817 . S
C391 C18 0.817 . S
C393 C120 0.817 . S
C409 C133 0.817 . S
C411 C29 0.817 . S
C427 C146 0.817 . S
C429 C42 0.817 . S
C445 C83 0.817 . S
C447 C57 0.817 . S
C463 C70 0.817 . S
C465 C96 0.817 . S
C481 C127 1.665 . S
C483 C4 1.665 . S
C499 C17 1.665 . S
C501 C140 1.665 . S
C517 C153 1.665 . S
C519 C36 1.665 . S
C535 C49 1.665 . S
C537 C82 1.665 . S
C553 C56 1.665 . S
C555 C95 1.665 . S
C571 C108 1.665 . S
C573 C69 1.665 . S
