# Generated by pormake.
# Topology wiv, (6)-cn, num edge types: 1
# Building blocks:
#     Node 0, Type 0, BuildingBlock: BETFAJ_clean_sbu_0, # of connection points: 6
#     Node 1, Type 0, BuildingBlock: BETFAJ_clean_sbu_0, # of connection points: 6
#     Node 2, Type 0, BuildingBlock: BETFAJ_clean_sbu_0, # of connection points: 6
#     Node 3, Type 0, BuildingBlock: BETFAJ_clean_sbu_0, # of connection points: 6
#     Node 4, Type 0, BuildingBlock: BETFAJ_clean_sbu_0, # of connection points: 6
#     Node 5, Type 0, BuildingBlock: BETFAJ_clean_sbu_0, # of connection points: 6
#     Node 6, Type 0, BuildingBlock: BETFAJ_clean_sbu_0, # of connection points: 6
#     Node 7, Type 0, BuildingBlock: BETFAJ_clean_sbu_0, # of connection points: 6
#     Node 8, Type 0, BuildingBlock: BETFAJ_clean_sbu_0, # of connection points: 6
#     Node 9, Type 0, BuildingBlock: BETFAJ_clean_sbu_0, # of connection points: 6
#     Node 10, Type 0, BuildingBlock: BETFAJ_clean_sbu_0, # of connection points: 6
#     Node 11, Type 0, BuildingBlock: BETFAJ_clean_sbu_0, # of connection points: 6
#     Node 12, Type 0, BuildingBlock: BETFAJ_clean_sbu_0, # of connection points: 6
#     Node 13, Type 0, BuildingBlock: BETFAJ_clean_sbu_0, # of connection points: 6
#     Node 14, Type 0, BuildingBlock: BETFAJ_clean_sbu_0, # of connection points: 6
#     Node 15, Type 0, BuildingBlock: BETFAJ_clean_sbu_0, # of connection points: 6
#     Edge 16, Type (0, 0), BuildingBlock: UVAHIK_clean_linker_0, # of connection points: 2
#     Edge 17, Type (0, 0), BuildingBlock: UVAHIK_clean_linker_0, # of connection points: 2
#     Edge 18, Type (0, 0), BuildingBlock: UVAHIK_clean_linker_0, # of connection points: 2
#     Edge 19, Type (0, 0), BuildingBlock: UVAHIK_clean_linker_0, # of connection points: 2
#     Edge 20, Type (0, 0), BuildingBlock: UVAHIK_clean_linker_0, # of connection points: 2
#     Edge 21, Type (0, 0), BuildingBlock: UVAHIK_clean_linker_0, # of connection points: 2
#     Edge 22, Type (0, 0), BuildingBlock: UVAHIK_clean_linker_0, # of connection points: 2
#     Edge 23, Type (0, 0), BuildingBlock: UVAHIK_clean_linker_0, # of connection points: 2
#     Edge 24, Type (0, 0), BuildingBlock: UVAHIK_clean_linker_0, # of connection points: 2
#     Edge 25, Type (0, 0), BuildingBlock: UVAHIK_clean_linker_0, # of connection points: 2
#     Edge 26, Type (0, 0), BuildingBlock: UVAHIK_clean_linker_0, # of connection points: 2
#     Edge 27, Type (0, 0), BuildingBlock: UVAHIK_clean_linker_0, # of connection points: 2
#     Edge 28, Type (0, 0), BuildingBlock: UVAHIK_clean_linker_0, # of connection points: 2
#     Edge 29, Type (0, 0), BuildingBlock: UVAHIK_clean_linker_0, # of connection points: 2
#     Edge 30, Type (0, 0), BuildingBlock: UVAHIK_clean_linker_0, # of connection points: 2
#     Edge 31, Type (0, 0), BuildingBlock: UVAHIK_clean_linker_0, # of connection points: 2
#     Edge 32, Type (0, 0), BuildingBlock: UVAHIK_clean_linker_0, # of connection points: 2
#     Edge 33, Type (0, 0), BuildingBlock: UVAHIK_clean_linker_0, # of connection points: 2
#     Edge 34, Type (0, 0), BuildingBlock: UVAHIK_clean_linker_0, # of connection points: 2
#     Edge 35, Type (0, 0), BuildingBlock: UVAHIK_clean_linker_0, # of connection points: 2
#     Edge 36, Type (0, 0), BuildingBlock: UVAHIK_clean_linker_0, # of connection points: 2
#     Edge 37, Type (0, 0), BuildingBlock: UVAHIK_clean_linker_0, # of connection points: 2
#     Edge 38, Type (0, 0), BuildingBlock: UVAHIK_clean_linker_0, # of connection points: 2
#     Edge 39, Type (0, 0), BuildingBlock: UVAHIK_clean_linker_0, # of connection points: 2
#     Edge 40, Type (0, 0), BuildingBlock: UVAHIK_clean_linker_0, # of connection points: 2
#     Edge 41, Type (0, 0), BuildingBlock: UVAHIK_clean_linker_0, # of connection points: 2
#     Edge 42, Type (0, 0), BuildingBlock: UVAHIK_clean_linker_0, # of connection points: 2
#     Edge 43, Type (0, 0), BuildingBlock: UVAHIK_clean_linker_0, # of connection points: 2
#     Edge 44, Type (0, 0), BuildingBlock: UVAHIK_clean_linker_0, # of connection points: 2
#     Edge 45, Type (0, 0), BuildingBlock: UVAHIK_clean_linker_0, # of connection points: 2
#     Edge 46, Type (0, 0), BuildingBlock: UVAHIK_clean_linker_0, # of connection points: 2
#     Edge 47, Type (0, 0), BuildingBlock: UVAHIK_clean_linker_0, # of connection points: 2
#     Edge 48, Type (0, 0), BuildingBlock: UVAHIK_clean_linker_0, # of connection points: 2
#     Edge 49, Type (0, 0), BuildingBlock: UVAHIK_clean_linker_0, # of connection points: 2
#     Edge 50, Type (0, 0), BuildingBlock: UVAHIK_clean_linker_0, # of connection points: 2
#     Edge 51, Type (0, 0), BuildingBlock: UVAHIK_clean_linker_0, # of connection points: 2
#     Edge 52, Type (0, 0), BuildingBlock: UVAHIK_clean_linker_0, # of connection points: 2
#     Edge 53, Type (0, 0), BuildingBlock: UVAHIK_clean_linker_0, # of connection points: 2
#     Edge 54, Type (0, 0), BuildingBlock: UVAHIK_clean_linker_0, # of connection points: 2
#     Edge 55, Type (0, 0), BuildingBlock: UVAHIK_clean_linker_0, # of connection points: 2
#     Edge 56, Type (0, 0), BuildingBlock: UVAHIK_clean_linker_0, # of connection points: 2
#     Edge 57, Type (0, 0), BuildingBlock: UVAHIK_clean_linker_0, # of connection points: 2
#     Edge 58, Type (0, 0), BuildingBlock: UVAHIK_clean_linker_0, # of connection points: 2
#     Edge 59, Type (0, 0), BuildingBlock: UVAHIK_clean_linker_0, # of connection points: 2
#     Edge 60, Type (0, 0), BuildingBlock: UVAHIK_clean_linker_0, # of connection points: 2
#     Edge 61, Type (0, 0), BuildingBlock: UVAHIK_clean_linker_0, # of connection points: 2
#     Edge 62, Type (0, 0), BuildingBlock: UVAHIK_clean_linker_0, # of connection points: 2
#     Edge 63, Type (0, 0), BuildingBlock: UVAHIK_clean_linker_0, # of connection points: 2
# Relax obj value: 0.102
# Max RMSD: 0.164
# Mean RMSD: 0.164
data_MOF--net-wiv--node1-BETFAJ_clean_sbu_0--edge1-UVAHIK_clean_linker_0
_symmetry_space_group_name_H-M    P1
_symmetry_Int_Tables_number       1
_symmetry_cell_setting            triclinic
loop_
_symmetry_equiv_pos_as_xyz
'x, y, z'
_cell_length_a     68.40729
_cell_length_b     68.503187
_cell_length_c     29.789514
_cell_angle_alpha  90.056189
_cell_angle_beta   89.966961
_cell_angle_gamma 90.118072
loop_
_atom_site_label
_atom_site_type_symbol
_atom_site_fract_x
_atom_site_fract_y
_atom_site_fract_z
_atom_type_partial_charge
Sm0 Sm 0.35602 0.11095 0.14679 0.0
Sm1 Sm 0.38275 0.11368 0.06778 0.0
C2 C 0.33955 0.10294 0.22552 0.0
C3 C 0.34411 0.10446 0.27404 0.0
C4 C 0.36127 0.09647 0.29233 0.0
C5 C 0.36491 0.09762 0.33857 0.0
C6 C 0.35153 0.10685 0.3676 0.0
C7 C 0.33451 0.11506 0.34894 0.0
C8 C 0.33085 0.11382 0.3028 0.0
C9 C 0.35969 0.14835 0.11384 0.0
C10 C 0.40389 0.11799 0.16251 0.0
C11 C 0.39948 0.12099 0.98906 0.0
C12 C 0.39471 0.11938 0.94065 0.0
C13 C 0.37738 0.12717 0.92275 0.0
C14 C 0.37347 0.12582 0.87665 0.0
C15 C 0.38677 0.11661 0.84738 0.0
C16 C 0.40395 0.1086 0.86568 0.0
C17 C 0.40787 0.11002 0.91168 0.0
C18 C 0.38034 0.07702 0.10535 0.0
C19 C 0.33531 0.10741 0.04999 0.0
O20 O 0.34929 0.09013 0.20185 0.0
O21 O 0.3367 0.11928 0.20394 0.0
O22 O 0.37363 0.13647 0.11889 0.0
O23 O 0.34322 0.14051 0.12591 0.0
O24 O 0.38716 0.11134 0.17908 0.0
O25 O 0.4054 0.12289 0.11986 0.0
O26 O 0.39016 0.13418 1.01256 0.0
O27 O 0.40187 0.10463 1.0109 0.0
O28 O 0.366 0.08816 0.09798 0.0
O29 O 0.3965 0.08477 0.091 0.0
O30 O 0.35226 0.11377 0.03469 0.0
O31 O 0.33306 0.10288 0.09284 0.0
H32 H 0.37182 0.08917 0.27103 0.0
H33 H 0.37806 0.09094 0.35163 0.0
H34 H 0.32404 0.1226 0.36995 0.0
H35 H 0.31756 0.12017 0.28953 0.0
H36 H 0.3669 0.13444 0.94426 0.0
H37 H 0.36019 0.13234 0.86388 0.0
H38 H 0.41437 0.10107 0.8445 0.0
H39 H 0.42128 0.1038 0.92467 0.0
Sm40 Sm 0.11725 0.62679 0.9635 0.0
Sm41 Sm 0.10918 0.65375 0.87802 0.0
C42 C 0.12777 0.61231 0.04239 0.0
C43 C 0.12564 0.61729 0.09072 0.0
C44 C 0.13527 0.63344 0.10991 0.0
C45 C 0.13331 0.63756 0.15581 0.0
C46 C 0.12165 0.62568 0.18368 0.0
C47 C 0.1119 0.60966 0.16417 0.0
C48 C 0.11396 0.60548 0.11842 0.0
C49 C 0.07996 0.62654 0.9287 0.0
C50 C 0.10774 0.67431 0.97774 0.0
C51 C 0.09177 0.66684 0.8047 0.0
C52 C 0.09445 0.66497 0.75533 0.0
C53 C 0.08204 0.65259 0.73063 0.0
C54 C 0.08465 0.65007 0.68441 0.0
C55 C 0.09961 0.66003 0.66147 0.0
C56 C 0.11179 0.67275 0.68595 0.0
C57 C 0.10927 0.67517 0.73236 0.0
C58 C 0.14906 0.65071 0.89036 0.0
C59 C 0.1223 0.60684 0.86686 0.0
O60 O 0.13928 0.62326 0.01775 0.0
O61 O 0.11186 0.60699 0.02125 0.0
O62 O 0.09078 0.64134 0.93336 0.0
O63 O 0.08849 0.61104 0.94438 0.0
O64 O 0.11306 0.65728 0.99477 0.0
O65 O 0.10434 0.67677 0.93418 0.0
O66 O 0.08632 0.65095 0.82581 0.0
O67 O 0.1046 0.67719 0.82737 0.0
O68 O 0.13594 0.64283 0.91404 0.0
O69 O 0.14103 0.66135 0.85944 0.0
O70 O 0.11273 0.62209 0.85032 0.0
O71 O 0.12852 0.60633 0.90885 0.0
H72 H 0.14443 0.64284 0.0896 0.0
H73 H 0.14125 0.64988 0.16956 0.0
H74 H 0.10249 0.60037 0.18414 0.0
H75 H 0.10636 0.59294 0.10466 0.0
H76 H 0.07033 0.64471 0.74716 0.0
H77 H 0.0748 0.64042 0.66651 0.0
H78 H 0.12353 0.68056 0.66937 0.0
H79 H 0.11906 0.68488 0.75023 0.0
Sm80 Sm 0.65163 0.89372 0.1476 0.0
Sm81 Sm 0.62476 0.89121 0.06851 0.0
C82 C 0.66812 0.9018 0.22629 0.0
C83 C 0.66362 0.90021 0.27479 0.0
C84 C 0.64519 0.90527 0.29213 0.0
C85 C 0.64149 0.90406 0.33835 0.0
C86 C 0.65612 0.89774 0.36829 0.0
C87 C 0.67446 0.89248 0.35056 0.0
C88 C 0.67815 0.89373 0.30441 0.0
C89 C 0.64808 0.85646 0.11368 0.0
C90 C 0.6038 0.88615 0.16342 0.0
C91 C 0.60784 0.88401 0.9899 0.0
C92 C 0.61246 0.88543 0.94143 0.0
C93 C 0.63067 0.87959 0.92419 0.0
C94 C 0.63456 0.88083 0.87804 0.0
C95 C 0.62029 0.88788 0.84808 0.0
C96 C 0.60215 0.89386 0.86567 0.0
C97 C 0.5983 0.89264 0.91176 0.0
C98 C 0.62721 0.92772 0.10715 0.0
C99 C 0.67218 0.89772 0.05058 0.0
O100 O 0.65814 0.9145 0.20294 0.0
O101 O 0.67108 0.8855 0.20456 0.0
O102 O 0.63411 0.86829 0.119 0.0
O103 O 0.66452 0.86426 0.12615 0.0
O104 O 0.62053 0.8927 0.18017 0.0
O105 O 0.6022 0.8817 0.12051 0.0
O106 O 0.61715 0.87078 1.01324 0.0
O107 O 0.60573 0.90045 1.01167 0.0
O108 O 0.64151 0.91659 0.0993 0.0
O109 O 0.61102 0.92004 0.09282 0.0
O110 O 0.65523 0.8914 0.03519 0.0
O111 O 0.67446 0.90203 0.09356 0.0
H112 H 0.6337 0.91031 0.27004 0.0
H113 H 0.62726 0.90843 0.35067 0.0
H114 H 0.68598 0.88722 0.3723 0.0
H115 H 0.69244 0.88966 0.29181 0.0
H116 H 0.64187 0.87393 0.94629 0.0
H117 H 0.64861 0.87591 0.86578 0.0
H118 H 0.59092 0.89966 0.84385 0.0
H119 H 0.58419 0.8973 0.92427 0.0
Sm120 Sm 0.8896 0.38009 0.96671 0.0
Sm121 Sm 0.8938 0.35375 0.88642 0.0
C122 C 0.8802 0.39619 0.04499 0.0
C123 C 0.88187 0.39173 0.09334 0.0
C124 C 0.86943 0.40106 0.12393 0.0
C125 C 0.8709 0.39729 0.16999 0.0
C126 C 0.88489 0.38407 0.18656 0.0
C127 C 0.89721 0.37455 0.15557 0.0
C128 C 0.89571 0.37835 0.10943 0.0
C129 C 0.92684 0.37839 0.93181 0.0
C130 C 0.89706 0.33271 0.98314 0.0
C131 C 0.90368 0.33794 0.80804 0.0
C132 C 0.90201 0.34229 0.75966 0.0
C133 C 0.91428 0.33267 0.72916 0.0
C134 C 0.91282 0.33633 0.68306 0.0
C135 C 0.89902 0.34971 0.66634 0.0
C136 C 0.88688 0.35952 0.69725 0.0
C137 C 0.88838 0.35585 0.74345 0.0
C138 C 0.85592 0.35676 0.91731 0.0
C139 C 0.88576 0.40147 0.87177 0.0
O140 O 0.86817 0.38531 0.02171 0.0
O141 O 0.89647 0.39995 0.02355 0.0
O142 O 0.91561 0.36393 0.93737 0.0
O143 O 0.91892 0.39428 0.947 0.0
O144 O 0.89038 0.34942 0.99898 0.0
O145 O 0.90181 0.33082 0.94028 0.0
O146 O 0.91534 0.34917 0.83135 0.0
O147 O 0.88749 0.33379 0.82936 0.0
O148 O 0.86781 0.37079 0.91347 0.0
O149 O 0.86389 0.34053 0.9043 0.0
O150 O 0.89274 0.38496 0.85495 0.0
O151 O 0.88064 0.40274 0.91437 0.0
H152 H 0.85855 0.41133 0.11217 0.0
H153 H 0.86092 0.40463 0.19259 0.0
H154 H 0.90827 0.36442 0.167 0.0
H155 H 0.90546 0.37095 0.08635 0.0
H156 H 0.92501 0.32227 0.74103 0.0
H157 H 0.92269 0.32879 0.66055 0.0
H158 H 0.87596 0.36978 0.68573 0.0
H159 H 0.87881 0.36351 0.76649 0.0
Sm160 Sm 0.35129 0.3975 0.1275 0.0
Sm161 Sm 0.37799 0.38918 0.21377 0.0
C162 C 0.33797 0.41472 0.05408 0.0
C163 C 0.33972 0.41109 1.00538 0.0
C164 C 0.33109 0.42394 0.97467 0.0
C165 C 0.33352 0.42115 0.92837 0.0
C166 C 0.34469 0.40544 0.91181 0.0
C167 C 0.35316 0.39249 0.94294 0.0
C168 C 0.35071 0.3953 0.98921 0.0
C169 C 0.35463 0.35761 0.13924 0.0
C170 C 0.39841 0.38497 0.11725 0.0
C171 C 0.39229 0.37777 0.29233 0.0
C172 C 0.38709 0.37948 0.34036 0.0
C173 C 0.39477 0.36615 0.3713 0.0
C174 C 0.39057 0.36793 0.41716 0.0
C175 C 0.37857 0.38312 0.43315 0.0
C176 C 0.37063 0.39629 0.40177 0.0
C177 C 0.37486 0.39449 0.35587 0.0
C178 C 0.37837 0.42651 0.17945 0.0
C179 C 0.33036 0.3988 0.22705 0.0
O180 O 0.35419 0.4199 0.07427 0.0
O181 O 0.32768 0.40206 0.07724 0.0
O182 O 0.36226 0.37074 0.16328 0.0
O183 O 0.34407 0.36564 0.10819 0.0
O184 O 0.38315 0.39452 0.10066 0.0
O185 O 0.39877 0.37845 0.15903 0.0
O186 O 0.381 0.36673 0.26745 0.0
O187 O 0.39758 0.39389 0.27211 0.0
O188 O 0.36355 0.41565 0.18351 0.0
O189 O 0.39376 0.41806 0.19601 0.0
O190 O 0.34735 0.3935 0.24441 0.0
O191 O 0.32805 0.40221 0.18343 0.0
H192 H 0.32269 0.43632 0.98651 0.0
H193 H 0.327 0.43158 0.90559 0.0
H194 H 0.36164 0.38011 0.93157 0.0
H195 H 0.35755 0.38525 1.01242 0.0
H196 H 0.40416 0.35441 0.36002 0.0
H197 H 0.39668 0.35731 0.44008 0.0
H198 H 0.3615 0.40828 0.41272 0.0
H199 H 0.36878 0.40497 0.33255 0.0
Sm200 Sm 0.3928 0.62513 0.82032 0.0
Sm201 Sm 0.39669 0.65121 0.90024 0.0
C202 C 0.38477 0.60847 0.74178 0.0
C203 C 0.38602 0.61297 0.69328 0.0
C204 C 0.38142 0.63154 0.67643 0.0
C205 C 0.38262 0.63537 0.63028 0.0
C206 C 0.38842 0.62068 0.59997 0.0
C207 C 0.39313 0.60214 0.61716 0.0
C208 C 0.39194 0.59835 0.66325 0.0
C209 C 0.43006 0.62735 0.85529 0.0
C210 C 0.39883 0.67255 0.80431 0.0
C211 C 0.40586 0.6673 0.97871 0.0
C212 C 0.4039 0.66305 0.02721 0.0
C213 C 0.40769 0.64438 0.04468 0.0
C214 C 0.40612 0.64085 0.09088 0.0
C215 C 0.40072 0.6559 0.12067 0.0
C216 C 0.39675 0.6745 0.10284 0.0
C217 C 0.39834 0.67802 0.05669 0.0
C218 C 0.35881 0.64783 0.86947 0.0
C219 C 0.38914 0.60341 0.91463 0.0
O220 O 0.37189 0.6181 0.76553 0.0
O221 O 0.40131 0.60608 0.76292 0.0
O222 O 0.41876 0.64167 0.84937 0.0
O223 O 0.42208 0.6113 0.84113 0.0
O224 O 0.39145 0.65599 0.78917 0.0
O225 O 0.40496 0.67404 0.84627 0.0
O226 O 0.41785 0.65637 0.95551 0.0
O227 O 0.38981 0.67135 0.95691 0.0
O228 O 0.37073 0.63388 0.87341 0.0
O229 O 0.36678 0.66416 0.88196 0.0
O230 O 0.39615 0.61992 0.93155 0.0
O231 O 0.38384 0.60229 0.87216 0.0
H232 H 0.37677 0.64306 0.69888 0.0
H233 H 0.37868 0.64976 0.61831 0.0
H234 H 0.39795 0.59055 0.59503 0.0
H235 H 0.39565 0.58393 0.6755 0.0
H236 H 0.41203 0.63256 0.02271 0.0
H237 H 0.4095 0.6264 0.10332 0.0
H238 H 0.39223 0.68637 0.12451 0.0
H239 H 0.39527 0.69251 0.04398 0.0
Sm240 Sm 0.65672 0.60735 0.12103 0.0
Sm241 Sm 0.63007 0.61481 0.20769 0.0
C242 C 0.67025 0.59056 0.04718 0.0
C243 C 0.6688 0.59426 0.99853 0.0
C244 C 0.67888 0.58232 0.96816 0.0
C245 C 0.67665 0.58495 0.92181 0.0
C246 C 0.66423 0.59959 0.90487 0.0
C247 C 0.65435 0.6117 0.93564 0.0
C248 C 0.6566 0.60905 0.98199 0.0
C249 C 0.65303 0.64711 0.13404 0.0
C250 C 0.60955 0.61967 0.11144 0.0
C251 C 0.61557 0.62584 0.28643 0.0
C252 C 0.62073 0.62401 0.33436 0.0
C253 C 0.61232 0.63668 0.36585 0.0
C254 C 0.61678 0.63495 0.41156 0.0
C255 C 0.6298 0.6205 0.42679 0.0
C256 C 0.63832 0.60789 0.3949 0.0
C257 C 0.63381 0.60963 0.34918 0.0
C258 C 0.63037 0.57747 0.17291 0.0
C259 C 0.67782 0.60594 0.2204 0.0
O260 O 0.65388 0.58542 0.06679 0.0
O261 O 0.68049 0.60309 0.07087 0.0
O262 O 0.64552 0.63381 0.15777 0.0
O263 O 0.66364 0.63934 0.10268 0.0
O264 O 0.62486 0.61036 0.09427 0.0
O265 O 0.60914 0.6257 0.1536 0.0
O266 O 0.62687 0.637 0.2619 0.0
O267 O 0.61042 0.60975 0.26584 0.0
O268 O 0.64494 0.58867 0.17663 0.0
O269 O 0.61489 0.58554 0.19015 0.0
O270 O 0.66077 0.6109 0.23808 0.0
O271 O 0.68011 0.60277 0.17665 0.0
H272 H 0.68833 0.5708 0.9803 0.0
H273 H 0.6847 0.57553 0.89923 0.0
H274 H 0.64448 0.62295 0.92395 0.0
H275 H 0.64856 0.61833 1.00495 0.0
H276 H 0.60215 0.64784 0.35512 0.0
H277 H 0.60972 0.64474 0.43505 0.0
H278 H 0.6486 0.59677 0.4052 0.0
H279 H 0.64046 0.59969 0.32538 0.0
Sm280 Sm 0.6147 0.37757 0.8227 0.0
Sm281 Sm 0.60613 0.35063 0.90844 0.0
C282 C 0.62615 0.39201 0.74418 0.0
C283 C 0.62404 0.38714 0.69602 0.0
C284 C 0.6372 0.395 0.66477 0.0
C285 C 0.6352 0.39092 0.61889 0.0
C286 C 0.61997 0.37883 0.60316 0.0
C287 C 0.60694 0.37076 0.63482 0.0
C288 C 0.60894 0.37491 0.68074 0.0
C289 C 0.57719 0.37761 0.85662 0.0
C290 C 0.60488 0.33004 0.80856 0.0
C291 C 0.58887 0.33728 0.98199 0.0
C292 C 0.59247 0.3391 0.03072 0.0
C293 C 0.57984 0.33011 0.06149 0.0
C294 C 0.58257 0.33261 0.1078 0.0
C295 C 0.59801 0.34423 0.12435 0.0
C296 C 0.61076 0.35305 0.09317 0.0
C297 C 0.60801 0.35052 0.04688 0.0
C298 C 0.64611 0.354 0.89685 0.0
C299 C 0.61901 0.39753 0.91924 0.0
O300 O 0.63694 0.38025 0.76833 0.0
O301 O 0.61031 0.39765 0.76513 0.0
O302 O 0.58809 0.36289 0.85242 0.0
O303 O 0.58572 0.39313 0.84076 0.0
O304 O 0.61029 0.34708 0.79161 0.0
O305 O 0.6014 0.32754 0.85212 0.0
O306 O 0.58364 0.3534 0.96169 0.0
O307 O 0.60158 0.32707 0.95884 0.0
O308 O 0.63301 0.36171 0.87299 0.0
O309 O 0.63799 0.34342 0.92778 0.0
O310 O 0.60864 0.3826 0.93493 0.0
O311 O 0.62619 0.39768 0.87802 0.0
H312 H 0.64901 0.4044 0.67584 0.0
H313 H 0.64571 0.39715 0.59575 0.0
H314 H 0.59494 0.36156 0.62407 0.0
H315 H 0.59857 0.36872 0.70428 0.0
H316 H 0.56766 0.32136 0.04969 0.0
H317 H 0.5723 0.3258 0.13061 0.0
H318 H 0.62295 0.36188 0.1045 0.0
H319 H 0.61792 0.35764 0.02365 0.0
Sm320 Sm 0.85608 0.61133 0.64385 0.0
Sm321 Sm 0.88299 0.6139 0.56484 0.0
C322 C 0.83952 0.60343 0.72257 0.0
C323 C 0.84405 0.60493 0.77109 0.0
C324 C 0.86204 0.59866 0.7887 0.0
C325 C 0.86573 0.5998 0.83493 0.0
C326 C 0.85154 0.60728 0.86462 0.0
C327 C 0.83366 0.61376 0.84663 0.0
C328 C 0.82997 0.61256 0.80048 0.0
C329 C 0.85974 0.64862 0.61028 0.0
C330 C 0.90394 0.61851 0.65973 0.0
C331 C 0.89983 0.62115 0.48619 0.0
C332 C 0.89514 0.61965 0.43775 0.0
C333 C 0.87719 0.62618 0.42037 0.0
C334 C 0.87328 0.62488 0.37425 0.0
C335 C 0.88723 0.61705 0.34444 0.0
C336 C 0.90507 0.61035 0.36219 0.0
C337 C 0.90896 0.61166 0.40824 0.0
C338 C 0.88058 0.57735 0.60306 0.0
C339 C 0.83557 0.60746 0.54684 0.0
O340 O 0.84927 0.59059 0.69902 0.0
O341 O 0.83679 0.61979 0.70099 0.0
O342 O 0.87369 0.63677 0.6156 0.0
O343 O 0.84327 0.64081 0.62245 0.0
O344 O 0.88719 0.61191 0.67629 0.0
O345 O 0.90553 0.62325 0.617 0.0
O346 O 0.89052 0.63437 0.50965 0.0
O347 O 0.90207 0.60475 0.50794 0.0
O348 O 0.86624 0.58847 0.59542 0.0
O349 O 0.89674 0.58505 0.58858 0.0
O350 O 0.85254 0.61378 0.53157 0.0
O351 O 0.83323 0.60311 0.58977 0.0
H352 H 0.87321 0.59273 0.76683 0.0
H353 H 0.87958 0.59448 0.84746 0.0
H354 H 0.82251 0.61994 0.86816 0.0
H355 H 0.81603 0.61757 0.7877 0.0
H356 H 0.86623 0.6324 0.44233 0.0
H357 H 0.85947 0.63037 0.36189 0.0
H358 H 0.91603 0.60391 0.34054 0.0
H359 H 0.92286 0.60644 0.42085 0.0
Sm360 Sm 0.61756 0.12568 0.4658 0.0
Sm361 Sm 0.60962 0.15278 0.38006 0.0
C362 C 0.62843 0.11106 0.54447 0.0
C363 C 0.62682 0.11625 0.59253 0.0
C364 C 0.63979 0.10802 0.62356 0.0
C365 C 0.63809 0.11222 0.66944 0.0
C366 C 0.62336 0.1248 0.68535 0.0
C367 C 0.61055 0.13328 0.65389 0.0
C368 C 0.61224 0.12901 0.60799 0.0
C369 C 0.58037 0.1254 0.43039 0.0
C370 C 0.60774 0.17317 0.48004 0.0
C371 C 0.59265 0.16612 0.30632 0.0
C372 C 0.59639 0.16434 0.25766 0.0
C373 C 0.58424 0.17387 0.22684 0.0
C374 C 0.58704 0.1714 0.18055 0.0
C375 C 0.60205 0.15927 0.16409 0.0
C376 C 0.61434 0.14991 0.19532 0.0
C377 C 0.61153 0.15242 0.24158 0.0
C378 C 0.64947 0.14988 0.39344 0.0
C379 C 0.62271 0.10584 0.36891 0.0
O380 O 0.63985 0.12201 0.51971 0.0
O381 O 0.61216 0.10629 0.52411 0.0
O382 O 0.59116 0.14021 0.43515 0.0
O383 O 0.58882 0.10993 0.44646 0.0
O384 O 0.61321 0.15617 0.49697 0.0
O385 O 0.60434 0.17565 0.43646 0.0
O386 O 0.58735 0.14996 0.32647 0.0
O387 O 0.60531 0.17636 0.32967 0.0
O388 O 0.63624 0.14191 0.41663 0.0
O389 O 0.64155 0.16053 0.36242 0.0
O390 O 0.61326 0.12115 0.35232 0.0
O391 O 0.62878 0.10521 0.41103 0.0
H392 H 0.65119 0.09819 0.61234 0.0
H393 H 0.64842 0.10566 0.69244 0.0
H394 H 0.59891 0.14287 0.66481 0.0
H395 H 0.60201 0.13548 0.58462 0.0
H396 H 0.57238 0.18301 0.23858 0.0
H397 H 0.57713 0.17864 0.15768 0.0
H398 H 0.6262 0.14068 0.18404 0.0
H399 H 0.62105 0.14489 0.26486 0.0
Sm400 Sm 0.15129 0.39424 0.64924 0.0
Sm401 Sm 0.12456 0.39144 0.56983 0.0
C402 C 0.16762 0.4026 0.72795 0.0
C403 C 0.16306 0.40095 0.77638 0.0
C404 C 0.14435 0.40514 0.79331 0.0
C405 C 0.14052 0.40375 0.83945 0.0
C406 C 0.1553 0.39808 0.86964 0.0
C407 C 0.17397 0.39377 0.85238 0.0
C408 C 0.17778 0.39521 0.80631 0.0
C409 C 0.14789 0.35689 0.61577 0.0
C410 C 0.10343 0.38655 0.66465 0.0
C411 C 0.10788 0.38387 0.49116 0.0
C412 C 0.11261 0.38541 0.44278 0.0
C413 C 0.13121 0.3806 0.42609 0.0
C414 C 0.13527 0.38205 0.38007 0.0
C415 C 0.12081 0.38833 0.3497 0.0
C416 C 0.10223 0.39319 0.36671 0.0
C417 C 0.09821 0.39175 0.41269 0.0
C418 C 0.1269 0.42805 0.60786 0.0
C419 C 0.17203 0.39816 0.55239 0.0
O420 O 0.15746 0.41514 0.70453 0.0
O421 O 0.17081 0.38633 0.70628 0.0
O422 O 0.13388 0.36872 0.62078 0.0
O423 O 0.16428 0.36473 0.62841 0.0
O424 O 0.12013 0.39314 0.68151 0.0
O425 O 0.10192 0.38203 0.62176 0.0
O426 O 0.11743 0.37084 0.51456 0.0
O427 O 0.1054 0.40026 0.5129 0.0
O428 O 0.14122 0.41691 0.60038 0.0
O429 O 0.11074 0.42033 0.59342 0.0
O430 O 0.1551 0.39187 0.53679 0.0
O431 O 0.17426 0.40243 0.59541 0.0
H432 H 0.13269 0.40954 0.77094 0.0
H433 H 0.12591 0.40693 0.8514 0.0
H434 H 0.18577 0.38962 0.87458 0.0
H435 H 0.19233 0.39195 0.79405 0.0
H436 H 0.14261 0.37568 0.44857 0.0
H437 H 0.14981 0.37842 0.36837 0.0
H438 H 0.09064 0.39781 0.34439 0.0
H439 H 0.08374 0.39549 0.42475 0.0
Sm440 Sm 0.3901 0.87891 0.46567 0.0
Sm441 Sm 0.39464 0.85278 0.38573 0.0
C442 C 0.38153 0.8953 0.54415 0.0
C443 C 0.3829 0.89084 0.59267 0.0
C444 C 0.37731 0.8726 0.61003 0.0
C445 C 0.37865 0.86882 0.65618 0.0
C446 C 0.38554 0.88325 0.68601 0.0
C447 C 0.39121 0.90146 0.66834 0.0
C448 C 0.3899 0.90519 0.62224 0.0
C449 C 0.42742 0.87748 0.43085 0.0
C450 C 0.39732 0.83165 0.48193 0.0
C451 C 0.40428 0.83703 0.30722 0.0
C452 C 0.40218 0.8413 0.25873 0.0
C453 C 0.40638 0.85986 0.24103 0.0
C454 C 0.40471 0.86337 0.19484 0.0
C455 C 0.39876 0.84842 0.16529 0.0
C456 C 0.39437 0.82993 0.18335 0.0
C457 C 0.39609 0.82643 0.22948 0.0
C458 C 0.35667 0.85515 0.41635 0.0
C459 C 0.3861 0.90037 0.37108 0.0
O460 O 0.36893 0.88529 0.52033 0.0
O461 O 0.398 0.89829 0.52298 0.0
O462 O 0.41635 0.86294 0.43675 0.0
O463 O 0.41919 0.89337 0.44504 0.0
O464 O 0.38969 0.84807 0.49707 0.0
O465 O 0.40329 0.8302 0.43982 0.0
O466 O 0.41597 0.84829 0.33048 0.0
O467 O 0.38836 0.83243 0.32906 0.0
O468 O 0.36829 0.86942 0.41266 0.0
O469 O 0.36501 0.83909 0.4035 0.0
O470 O 0.39339 0.884 0.3543 0.0
O471 O 0.38082 0.9015 0.41359 0.0
H472 H 0.37178 0.86129 0.58802 0.0
H473 H 0.37396 0.85471 0.66856 0.0
H474 H 0.39687 0.91281 0.69009 0.0
H475 H 0.39437 0.91935 0.60964 0.0
H476 H 0.41112 0.87162 0.26278 0.0
H477 H 0.40843 0.87772 0.18224 0.0
H478 H 0.38942 0.81815 0.1619 0.0
H479 H 0.39269 0.81202 0.24234 0.0
Sm480 Sm 0.85037 0.89794 0.62275 0.0
Sm481 Sm 0.87695 0.88917 0.70921 0.0
C482 C 0.83712 0.91516 0.54917 0.0
C483 C 0.83848 0.91149 0.50041 0.0
C484 C 0.82943 0.92423 0.47009 0.0
C485 C 0.83167 0.92159 0.4237 0.0
C486 C 0.84305 0.90614 0.40663 0.0
C487 C 0.85189 0.89325 0.43734 0.0
C488 C 0.84965 0.89592 0.48373 0.0
C489 C 0.85404 0.85797 0.63334 0.0
C490 C 0.8974 0.88571 0.61295 0.0
C491 C 0.89094 0.87705 0.78752 0.0
C492 C 0.88608 0.87937 0.83558 0.0
C493 C 0.89372 0.86626 0.86709 0.0
C494 C 0.88941 0.86833 0.91284 0.0
C495 C 0.8773 0.88357 0.92814 0.0
C496 C 0.86958 0.89664 0.89624 0.0
C497 C 0.87393 0.89456 0.85046 0.0
C498 C 0.87705 0.92691 0.67691 0.0
C499 C 0.82936 0.89899 0.72232 0.0
O500 O 0.85357 0.91994 0.56878 0.0
O501 O 0.82665 0.9028 0.57279 0.0
O502 O 0.86147 0.87107 0.65772 0.0
O503 O 0.84352 0.86608 0.60236 0.0
O504 O 0.88251 0.89608 0.59733 0.0
O505 O 0.89738 0.87822 0.65385 0.0
O506 O 0.87867 0.86681 0.76329 0.0
O507 O 0.89732 0.89263 0.76669 0.0
O508 O 0.86238 0.91578 0.67965 0.0
O509 O 0.89238 0.91856 0.69407 0.0
O510 O 0.84632 0.89356 0.73963 0.0
O511 O 0.82706 0.90252 0.67873 0.0
H512 H 0.8208 0.93637 0.48231 0.0
H513 H 0.82442 0.93164 0.4012 0.0
H514 H 0.86096 0.88135 0.4256 0.0
H515 H 0.85691 0.88602 0.50663 0.0
H516 H 0.90316 0.85446 0.85633 0.0
H517 H 0.89585 0.85815 0.93632 0.0
H518 H 0.86001 0.90839 0.90656 0.0
H519 H 0.86785 0.90483 0.82667 0.0
Sm520 Sm 0.89258 0.12631 0.32268 0.0
Sm521 Sm 0.89748 0.15251 0.40285 0.0
C522 C 0.8828 0.11029 0.24452 0.0
C523 C 0.88486 0.11456 0.19613 0.0
C524 C 0.87192 0.10593 0.16551 0.0
C525 C 0.87363 0.10964 0.11946 0.0
C526 C 0.88838 0.12209 0.1029 0.0
C527 C 0.90123 0.1309 0.13393 0.0
C528 C 0.89948 0.12718 0.18007 0.0
C529 C 0.93013 0.12817 0.35596 0.0
C530 C 0.89988 0.17373 0.30622 0.0
C531 C 0.90768 0.16819 0.48121 0.0
C532 C 0.90623 0.16368 0.5296 0.0
C533 C 0.91952 0.17223 0.55958 0.0
C534 C 0.91819 0.16855 0.60572 0.0
C535 C 0.9035 0.15623 0.62299 0.0
C536 C 0.89034 0.14747 0.59259 0.0
C537 C 0.89171 0.15113 0.54637 0.0
C538 C 0.85932 0.14941 0.37369 0.0
C539 C 0.88928 0.10491 0.41723 0.0
O540 O 0.87118 0.12174 0.26735 0.0
O541 O 0.89877 0.10592 0.26641 0.0
O542 O 0.91885 0.14256 0.3508 0.0
O543 O 0.92204 0.11222 0.3414 0.0
O544 O 0.89306 0.157 0.29066 0.0
O545 O 0.90502 0.17562 0.34884 0.0
O546 O 0.91932 0.15719 0.45736 0.0
O547 O 0.89138 0.17225 0.46037 0.0
O548 O 0.87123 0.13543 0.37693 0.0
O549 O 0.8674 0.16563 0.3865 0.0
O550 O 0.89748 0.12102 0.43328 0.0
O551 O 0.88286 0.10414 0.37553 0.0
H552 H 0.86043 0.09628 0.17724 0.0
H553 H 0.86323 0.10288 0.09686 0.0
H554 H 0.91287 0.14041 0.12254 0.0
H555 H 0.90959 0.13406 0.20317 0.0
H556 H 0.93093 0.18184 0.54729 0.0
H557 H 0.92882 0.17527 0.62782 0.0
H558 H 0.87872 0.13805 0.60455 0.0
H559 H 0.88134 0.14431 0.52378 0.0
Sm560 Sm 0.15581 0.10781 0.62603 0.0
Sm561 Sm 0.12908 0.11592 0.7124 0.0
C562 C 0.16909 0.09065 0.55239 0.0
C563 C 0.16726 0.0943 0.50375 0.0
C564 C 0.17665 0.08203 0.4729 0.0
C565 C 0.17418 0.08481 0.42663 0.0
C566 C 0.16218 0.09992 0.41026 0.0
C567 C 0.15295 0.11231 0.44152 0.0
C568 C 0.15546 0.10952 0.48776 0.0
C569 C 0.15262 0.14764 0.63859 0.0
C570 C 0.10881 0.12077 0.61583 0.0
C571 C 0.11461 0.12711 0.79106 0.0
C572 C 0.11971 0.12539 0.8391 0.0
C573 C 0.11146 0.13832 0.87025 0.0
C574 C 0.11559 0.13652 0.91612 0.0
C575 C 0.12811 0.12173 0.93188 0.0
C576 C 0.1366 0.10896 0.9003 0.0
C577 C 0.13241 0.11076 0.8544 0.0
C578 C 0.12864 0.07869 0.6773 0.0
C579 C 0.17673 0.10634 0.72547 0.0
O580 O 0.15293 0.0854 0.57273 0.0
O581 O 0.17938 0.10334 0.57551 0.0
O582 O 0.14491 0.13448 0.66236 0.0
O583 O 0.16317 0.13968 0.60738 0.0
O584 O 0.12404 0.11123 0.59897 0.0
O585 O 0.10839 0.12697 0.65789 0.0
O586 O 0.12589 0.13825 0.76639 0.0
O587 O 0.10948 0.11097 0.77065 0.0
O588 O 0.14348 0.08949 0.68165 0.0
O589 O 0.11324 0.08715 0.69387 0.0
O590 O 0.15972 0.11151 0.74302 0.0
O591 O 0.17906 0.10308 0.68178 0.0
H592 H 0.1857 0.07011 0.48459 0.0
H593 H 0.18131 0.07482 0.40371 0.0
H594 H 0.14382 0.12424 0.43029 0.0
H595 H 0.14804 0.11913 0.51108 0.0
H596 H 0.10168 0.14976 0.85913 0.0
H597 H 0.10904 0.14682 0.93922 0.0
H598 H 0.14614 0.09729 0.9111 0.0
H599 H 0.13889 0.10057 0.83091 0.0
Sm600 Sm 0.11362 0.87953 0.3197 0.0
Sm601 Sm 0.10973 0.85339 0.39955 0.0
C602 C 0.12248 0.89572 0.24126 0.0
C603 C 0.12076 0.89124 0.19281 0.0
C604 C 0.12469 0.87251 0.17578 0.0
C605 C 0.12323 0.86875 0.12964 0.0
C606 C 0.11786 0.88364 0.09952 0.0
C607 C 0.11377 0.90232 0.11691 0.0
C608 C 0.11522 0.90605 0.16299 0.0
C609 C 0.07638 0.87775 0.35486 0.0
C610 C 0.10605 0.8323 0.30298 0.0
C611 C 0.10094 0.83725 0.47821 0.0
C612 C 0.1029 0.84154 0.52668 0.0
C613 C 0.09934 0.86027 0.54408 0.0
C614 C 0.10086 0.86383 0.59029 0.0
C615 C 0.10597 0.84872 0.62012 0.0
C616 C 0.10973 0.83005 0.60234 0.0
C617 C 0.10819 0.82652 0.55618 0.0
C618 C 0.14747 0.85594 0.36757 0.0
C619 C 0.11781 0.9011 0.41415 0.0
O620 O 0.13478 0.88525 0.26469 0.0
O621 O 0.10623 0.89929 0.26281 0.0
O622 O 0.08759 0.86332 0.34933 0.0
O623 O 0.08434 0.89365 0.33972 0.0
O624 O 0.11282 0.84898 0.28721 0.0
O625 O 0.10137 0.83039 0.34586 0.0
O626 O 0.0888 0.84804 0.4552 0.0
O627 O 0.11702 0.83345 0.45624 0.0
O628 O 0.13589 0.87019 0.3719 0.0
O629 O 0.1391 0.83982 0.38004 0.0
O630 O 0.11078 0.88463 0.43114 0.0
O631 O 0.12288 0.90225 0.37155 0.0
H632 H 0.12904 0.86082 0.19804 0.0
H633 H 0.12667 0.85425 0.11751 0.0
H634 H 0.10928 0.91406 0.09493 0.0
H635 H 0.11203 0.92058 0.17538 0.0
H636 H 0.09521 0.87213 0.52206 0.0
H637 H 0.09765 0.87833 0.60271 0.0
H638 H 0.11402 0.81814 0.62407 0.0
H639 H 0.11109 0.81197 0.5435 0.0
C640 C 0.38699 0.91655 0.29514 0.0
C641 C 0.3838 0.91779 0.3417 0.0
C642 C 0.38524 0.93311 0.2678 0.0
C643 C 0.39238 0.97207 0.22169 0.0
H644 H 0.35433 0.01226 0.24887 0.0
C645 C 0.39681 0.04845 0.14092 0.0
C646 C 0.37943 0.05823 0.12999 0.0
C647 C 0.39637 0.03097 0.1651 0.0
C648 C 0.36491 1.00111 0.24039 0.0
H649 H 0.3762 0.93756 0.39587 0.0
H650 H 0.3736 0.96638 0.34863 0.0
H651 H 0.35479 0.98233 0.29296 0.0
H652 H 0.34789 0.05728 0.13568 0.0
H653 H 0.34702 0.02648 0.17736 0.0
H654 H 0.4022 0.99061 0.1685 0.0
C655 C 0.37705 0.95256 0.33288 0.0
C656 C 0.36536 0.984 0.26616 0.0
C657 C 0.37868 0.93599 0.36013 0.0
C658 C 0.36153 0.05008 0.14365 0.0
C659 C 0.36107 0.03248 0.16779 0.0
C660 C 0.39186 0.98912 0.19582 0.0
C661 C 0.38037 0.95141 0.28631 0.0
C662 C 0.37924 0.96929 0.2575 0.0
C663 C 0.37851 0.02266 0.17887 0.0
C664 C 0.37828 0.00401 0.20508 0.0
H665 H 0.39081 0.90276 0.27967 0.0
H666 H 0.3876 0.9315 0.23205 0.0
H667 H 0.40341 0.96125 0.21412 0.0
H668 H 0.41086 0.05443 0.13123 0.0
H669 H 0.41014 0.02415 0.17367 0.0
C670 C 0.9396 0.62576 0.67148 0.0
C671 C 0.92133 0.62044 0.68945 0.0
C672 C 0.95615 0.62708 0.69893 0.0
C673 C 0.98717 0.63864 0.7668 0.0
H674 H 0.99452 0.6007 0.86168 0.0
C675 C 0.05201 0.6439 0.89158 0.0
C676 C 0.06115 0.62638 0.90402 0.0
C677 C 0.03454 0.64366 0.86704 0.0
C678 C 0.9928 0.61134 0.83514 0.0
H679 H 0.90619 0.61259 0.75084 0.0
H680 H 0.93497 0.61521 0.79886 0.0
H681 H 0.96519 0.5993 0.81548 0.0
H682 H 0.05905 0.59486 0.90087 0.0
H683 H 0.02877 0.59437 0.8577 0.0
H684 H 0.01508 0.65027 0.78545 0.0
C685 C 0.93659 0.61804 0.7633 0.0
C686 C 0.9758 0.6107 0.80896 0.0
C687 C 0.92002 0.61665 0.73576 0.0
C688 C 0.05232 0.60861 0.89193 0.0
C689 C 0.03487 0.60835 0.86734 0.0
C690 C 0.0042 0.63924 0.79289 0.0
C691 C 0.95493 0.6232 0.74524 0.0
C692 C 0.97277 0.62428 0.77422 0.0
C693 C 0.02574 0.62587 0.85438 0.0
C694 C 0.00732 0.62554 0.82732 0.0
H695 H 0.94123 0.62869 0.63595 0.0
H696 H 0.97001 0.63077 0.68354 0.0
H697 H 0.9853 0.64951 0.74081 0.0
H698 H 0.05843 0.65783 0.90066 0.0
H699 H 0.02784 0.65745 0.85832 0.0
C700 C 0.6463 0.95478 0.14434 0.0
C701 C 0.62829 0.94653 0.13182 0.0
C702 C 0.64698 0.97246 0.16821 0.0
C703 C 0.61628 0.01582 0.19749 0.0
H704 H 0.65498 0.02366 0.29072 0.0
C705 C 0.62166 0.08915 0.29352 0.0
C706 C 0.62566 0.08838 0.3398 0.0
C707 C 0.62342 0.07243 0.26664 0.0
C708 C 0.64395 0.0217 0.26504 0.0
H709 H 0.59687 0.95021 0.13499 0.0
H710 H 0.59796 0.98062 0.17711 0.0
H711 H 0.65488 0.99337 0.24779 0.0
H712 H 0.6349 0.06931 0.39383 0.0
H713 H 0.63749 0.04019 0.34744 0.0
H714 H 0.60482 0.04372 0.21586 0.0
C715 C 0.61165 0.97383 0.16775 0.0
C716 C 0.64407 0.00437 0.2399 0.0
C717 C 0.611 0.95627 0.14377 0.0
C718 C 0.63178 0.07052 0.35831 0.0
C719 C 0.63338 0.05377 0.33152 0.0
C720 C 0.61608 0.03306 0.22277 0.0
C721 C 0.62963 0.98227 0.18025 0.0
C722 C 0.63012 1.00109 0.20596 0.0
C723 C 0.62906 0.0544 0.28531 0.0
C724 C 0.62983 0.03625 0.25716 0.0
H725 H 0.65988 0.9476 0.13558 0.0
H726 H 0.66111 0.97855 0.17673 0.0
H727 H 0.60548 0.01406 0.17121 0.0
H728 H 0.61705 0.10266 0.27796 0.0
H729 H 0.62033 0.07368 0.23112 0.0
C730 C 0.95566 0.39538 0.89798 0.0
C731 C 0.94579 0.37788 0.90761 0.0
C732 C 0.97321 0.39527 0.87382 0.0
C733 C 1.00276 0.36478 0.79597 0.0
H734 H 0.04305 0.40276 0.82395 0.0
C735 C 0.06767 0.37959 0.67592 0.0
C736 C 0.08605 0.38421 0.69429 0.0
C737 C 0.05114 0.37785 0.70339 0.0
C738 C 0.0321 0.39188 0.81589 0.0
H739 H 0.9467 0.34646 0.89988 0.0
H740 H 0.97756 0.34616 0.85824 0.0
H741 H 0.01373 0.40113 0.87 0.0
H742 H 0.10142 0.39023 0.75643 0.0
H743 H 0.07272 0.38686 0.80444 0.0
H744 H 0.02134 0.35525 0.74243 0.0
C745 C 0.97159 0.36006 0.86874 0.0
C746 C 0.01508 0.39113 0.84202 0.0
C747 C 0.95396 0.36019 0.89287 0.0
C748 C 0.0875 0.3868 0.74102 0.0
C749 C 0.07097 0.38496 0.76857 0.0
C750 C 0.01982 0.36548 0.76993 0.0
C751 C 0.98146 0.37763 0.85875 0.0
C752 C 1.00005 0.37771 0.83218 0.0
C753 C 0.05251 0.38055 0.75014 0.0
C754 C 0.03468 0.37918 0.77921 0.0
H755 H 0.94968 0.40927 0.90859 0.0
H756 H 0.98009 0.40912 0.86617 0.0
H757 H 0.99149 0.35436 0.787 0.0
H758 H 0.06593 0.37759 0.64008 0.0
H759 H 0.0372 0.37478 0.68771 0.0
C760 C 0.39663 0.45423 0.1441 0.0
C761 C 0.37873 0.44532 0.15485 0.0
C762 C 0.39714 0.47172 0.1198 0.0
C763 C 0.36704 0.50268 0.04412 0.0
H764 H 0.40694 0.54137 0.06978 0.0
C765 C 0.38181 0.56774 0.92505 0.0
C766 C 0.3871 0.58586 0.94373 0.0
C767 C 0.38022 0.55107 0.95197 0.0
C768 C 0.39554 0.53086 0.06239 0.0
H769 H 0.34728 0.44789 0.14928 0.0
H770 H 0.34809 0.47859 0.10751 0.0
H771 H 0.40493 0.51194 0.11526 0.0
H772 H 0.3946 0.60061 1.00583 0.0
H773 H 0.39151 0.57165 0.05292 0.0
H774 H 0.35735 0.5218 0.99193 0.0
C775 C 0.3618 0.47193 0.11706 0.0
C776 C 0.39456 0.51378 0.08816 0.0
C777 C 0.36131 0.45438 0.14126 0.0
C778 C 0.39061 0.5869 0.99019 0.0
C779 C 0.38893 0.57022 0.01721 0.0
C780 C 0.36797 0.51978 0.01845 0.0
C781 C 0.37975 0.48083 0.10583 0.0
C782 C 0.38038 0.49936 0.07923 0.0
C783 C 0.38377 0.55203 0.99847 0.0
C784 C 0.38233 0.53408 0.02696 0.0
H785 H 0.41031 0.44754 0.1539 0.0
H786 H 0.41125 0.47788 0.11124 0.0
H787 H 0.35603 0.49188 0.03581 0.0
H788 H 0.3791 0.56632 0.88938 0.0
H789 H 0.37655 0.53733 0.93605 0.0
C790 C 0.59256 0.61911 0.03643 0.0
C791 C 0.59195 0.6227 0.0829 0.0
C792 C 0.57575 0.62119 1.00998 0.0
C793 C 0.53617 0.61464 0.96637 0.0
H794 H 0.49674 0.6533 0.99472 0.0
C795 C 0.45891 0.61073 0.88941 0.0
C796 C 0.44911 0.62813 0.87898 0.0
C797 C 0.47665 0.61107 0.91272 0.0
C798 C 0.50767 0.64255 0.98589 0.0
H799 H 0.57305 0.63147 0.1378 0.0
H800 H 0.54376 0.63458 0.09217 0.0
H801 H 0.52721 0.65277 0.03692 0.0
H802 H 0.45027 0.65963 0.88466 0.0
H803 H 0.48155 0.66034 0.9246 0.0
H804 H 0.51691 0.60475 0.91458 0.0
C805 C 0.5573 0.63058 0.07575 0.0
C806 C 0.5251 0.64205 1.01062 0.0
C807 C 0.57414 0.62867 0.1021 0.0
C808 C 0.4575 0.64597 0.89224 0.0
C809 C 0.47537 0.64634 0.91542 0.0
C810 C 0.51883 0.61522 0.94148 0.0
C811 C 0.55779 0.62675 0.02931 0.0
C812 C 0.53955 0.62795 1.00155 0.0
C813 C 0.48522 0.62887 0.92602 0.0
C814 C 0.50418 0.62902 0.95118 0.0
H815 H 0.60605 0.61464 0.02037 0.0
H816 H 0.57689 0.61846 0.97427 0.0
H817 H 0.54675 0.60341 0.95852 0.0
H818 H 0.45275 0.59673 0.88003 0.0
H819 H 0.48346 0.59729 0.92099 0.0
C820 C 0.64759 0.55095 0.12984 0.0
C821 C 0.63048 0.55822 0.14991 0.0
C822 C 0.6473 0.53324 0.10614 0.0
C823 C 0.6219 0.48643 0.09697 0.0
H824 H 0.63976 0.48561 0.97352 0.0
C825 C 0.60856 0.41911 0.98308 0.0
C826 C 0.6217 0.41509 0.94801 0.0
C827 C 0.6104 0.4362 1.00868 0.0
C828 C 0.63506 0.48533 1.0082 0.0
H829 H 0.59985 0.55219 0.1625 0.0
H830 H 0.59954 0.52094 0.12259 0.0
H831 H 0.64208 0.51567 0.01701 0.0
H832 H 0.64748 0.42558 0.91332 0.0
H833 H 0.65133 0.4548 0.95914 0.0
H834 H 0.61545 0.45608 0.08922 0.0
C835 C 0.61307 0.52914 0.12444 0.0
C836 C 0.6363 0.50269 0.03304 0.0
C837 C 0.61326 0.54705 0.14722 0.0
C838 C 0.637 0.42834 0.93984 0.0
C839 C 0.63908 0.44524 0.96602 0.0
C840 C 0.62102 0.46895 0.0725 0.0
C841 C 0.63002 0.52215 0.10318 0.0
C842 C 0.62954 0.50348 0.07752 0.0
C843 C 0.62567 0.44961 1.00059 0.0
C844 C 0.62738 0.46813 0.02747 0.0
H845 H 0.66116 0.55907 0.13195 0.0
H846 H 0.66062 0.52812 0.09043 0.0
H847 H 0.61676 0.48656 0.13138 0.0
H848 H 0.59648 0.40932 0.99002 0.0
H849 H 0.59948 0.43903 0.03414 0.0
C850 C 0.43383 0.37599 0.10734 0.0
C851 C 0.4161 0.38244 0.08864 0.0
C852 C 0.45077 0.37468 0.08106 0.0
C853 C 0.48293 0.3643 1.01474 0.0
H854 H 0.49184 0.40346 0.92314 0.0
C855 C 0.54916 0.36007 0.89332 0.0
C856 C 0.55832 0.37767 0.88119 0.0
C857 C 0.53155 0.36017 0.91741 0.0
C858 C 0.48972 0.39248 0.94882 0.0
H859 H 0.40228 0.39204 0.02699 0.0
H860 H 0.43162 0.38928 0.981 0.0
H861 H 0.46208 0.40451 0.96771 0.0
H862 H 0.55625 0.40916 0.88484 0.0
H863 H 0.52581 0.40942 0.92748 0.0
H864 H 0.51093 0.35272 0.99702 0.0
C865 C 0.4326 0.38569 0.01631 0.0
C866 C 0.47243 0.39291 0.97404 0.0
C867 C 0.41568 0.38715 0.04269 0.0
C868 C 0.54947 0.39536 0.89345 0.0
C869 C 0.53192 0.39548 0.91774 0.0
C870 C 0.50028 0.36394 0.9897 0.0
C871 C 0.45047 0.37963 0.03518 0.0
C872 C 0.46877 0.37886 1.0075 0.0
C873 C 0.52267 0.37789 0.93014 0.0
C874 C 0.50398 0.37806 0.95642 0.0
H875 H 0.43478 0.37235 0.14263 0.0
H876 H 0.46423 0.37024 0.09713 0.0
H877 H 0.48061 0.35306 0.03971 0.0
H878 H 0.55562 0.3462 0.88417 0.0
H879 H 0.5248 0.34632 0.92563 0.0
C880 C 0.87859 0.43712 0.86041 0.0
C881 C 0.88356 0.41884 0.84219 0.0
C882 C 0.87704 0.45363 0.83294 0.0
C883 C 0.86545 0.48496 0.76578 0.0
H884 H 0.90224 0.49109 0.66783 0.0
C885 C 0.86173 0.55058 0.64192 0.0
C886 C 0.87964 0.55865 0.62807 0.0
C887 C 0.86124 0.53308 0.66643 0.0
C888 C 0.89191 0.48973 0.69522 0.0
H889 H 0.89041 0.4036 0.78031 0.0
H890 H 0.88732 0.43224 0.73233 0.0
H891 H 0.90334 0.46186 0.71393 0.0
H892 H 0.91107 0.55479 0.62933 0.0
H893 H 0.91029 0.52466 0.67237 0.0
H894 H 0.85453 0.51321 0.74803 0.0
C895 C 0.88501 0.43395 0.76807 0.0
C896 C 0.89236 0.47276 0.72137 0.0
C897 C 0.88668 0.41745 0.79562 0.0
C898 C 0.89701 0.54888 0.63917 0.0
C899 C 0.89654 0.53148 0.6637 0.0
C900 C 0.86505 0.50199 0.7397 0.0
C901 C 0.88029 0.45234 0.78635 0.0
C902 C 0.87924 0.47016 0.75729 0.0
C903 C 0.87867 0.52327 0.67768 0.0
C904 C 0.8784 0.50471 0.70427 0.0
H905 H 0.87617 0.4388 0.89614 0.0
H906 H 0.8737 0.46752 0.84851 0.0
H907 H 0.8549 0.48343 0.79266 0.0
H908 H 0.8481 0.55778 0.63381 0.0
H909 H 0.84719 0.52715 0.67615 0.0
C910 C 0.5526 0.1075 0.39394 0.0
C911 C 0.56156 0.12525 0.40564 0.0
C912 C 0.53513 0.10727 0.36943 0.0
C913 C 0.49306 0.11036 0.33719 0.0
H914 H 0.48551 0.14857 0.24297 0.0
C915 C 0.42011 0.11586 0.23836 0.0
C916 C 0.42134 0.11979 0.1921 0.0
C917 C 0.43674 0.11715 0.26576 0.0
C918 C 0.48739 0.13768 0.26891 0.0
H919 H 0.55907 0.15671 0.40159 0.0
H920 H 0.52843 0.15639 0.3595 0.0
H921 H 0.51537 0.14922 0.28726 0.0
H922 H 0.44115 0.12817 0.13854 0.0
H923 H 0.47003 0.13006 0.18584 0.0
H924 H 0.46538 0.0984 0.31777 0.0
C925 C 0.53504 0.14258 0.36843 0.0
C926 C 0.50447 0.13822 0.29483 0.0
C927 C 0.55255 0.14279 0.39283 0.0
C928 C 0.43958 0.12514 0.17403 0.0
C929 C 0.45619 0.12635 0.20133 0.0
C930 C 0.47601 0.10977 0.31115 0.0
C931 C 0.52609 0.12481 0.35618 0.0
C932 C 0.50762 0.12452 0.32924 0.0
C933 C 0.45505 0.12235 0.2476 0.0
C934 C 0.47296 0.12336 0.27644 0.0
H935 H 0.55924 0.09374 0.40316 0.0
H936 H 0.52892 0.09329 0.36011 0.0
H937 H 0.49478 0.09971 0.36373 0.0
H938 H 0.4063 0.11176 0.25351 0.0
H939 H 0.43518 0.11423 0.30129 0.0
C940 C 0.12094 0.58993 0.79178 0.0
C941 C 0.1252 0.58933 0.83795 0.0
C942 C 0.12269 0.57315 0.76512 0.0
C943 C 0.11548 0.53363 0.722 0.0
H944 H 0.15461 0.49426 0.74693 0.0
C945 C 0.11062 0.45662 0.64418 0.0
C946 C 0.12793 0.44692 0.63223 0.0
C947 C 0.11123 0.47424 0.66789 0.0
C948 C 0.14371 0.50516 0.73905 0.0
H949 H 0.13485 0.57049 0.89203 0.0
H950 H 0.13739 0.54125 0.84606 0.0
H951 H 0.1547 0.52467 0.7893 0.0
H952 H 0.15952 0.44814 0.63565 0.0
H953 H 0.16069 0.47922 0.67624 0.0
H954 H 0.10482 0.51441 0.67094 0.0
C955 C 0.13312 0.55476 0.83002 0.0
C956 C 0.14359 0.52257 0.76389 0.0
C957 C 0.13154 0.57157 0.85657 0.0
C958 C 0.14593 0.45528 0.64444 0.0
C959 C 0.14657 0.47304 0.66798 0.0
C960 C 0.11569 0.51631 0.69699 0.0
C961 C 0.12857 0.55522 0.78393 0.0
C962 C 0.12934 0.537 0.75605 0.0
C963 C 0.1292 0.4828 0.68005 0.0
C964 C 0.12966 0.5017 0.70544 0.0
H965 H 0.11615 0.60336 0.77615 0.0
H966 H 0.11942 0.57427 0.72967 0.0
H967 H 0.10412 0.54419 0.71514 0.0
H968 H 0.0965 0.45046 0.63564 0.0
H969 H 0.09753 0.48099 0.67729 0.0
C970 C 0.58798 0.8865 0.23989 0.0
C971 C 0.58648 0.88377 0.19321 0.0
C972 C 0.5715 0.8846 0.26758 0.0
C973 C 0.53261 0.89138 0.31493 0.0
H974 H 0.4923 0.85343 0.28681 0.0
C975 C 0.4561 0.8946 0.39671 0.0
C976 C 0.44639 0.87705 0.40674 0.0
C977 C 0.47366 0.89453 0.37262 0.0
C978 C 0.50348 0.86397 0.29557 0.0
H979 H 0.56634 0.87687 0.13922 0.0
H980 H 0.5377 0.87397 0.18708 0.0
H981 H 0.52212 0.85439 0.2422 0.0
H982 H 0.44759 0.84561 0.39981 0.0
H983 H 0.47849 0.84539 0.35831 0.0
H984 H 0.51416 0.90069 0.36887 0.0
C985 C 0.55164 0.87718 0.20262 0.0
C986 C 0.52053 0.86471 0.2695 0.0
C987 C 0.56811 0.87898 0.17502 0.0
C988 C 0.45473 0.85937 0.39249 0.0
C989 C 0.47238 0.85928 0.36845 0.0
C990 C 0.5156 0.89059 0.34109 0.0
C991 C 0.55305 0.88001 0.24932 0.0
C992 C 0.53527 0.87857 0.27849 0.0
C993 C 0.48208 0.87689 0.35805 0.0
C994 C 0.50068 0.87702 0.33152 0.0
H995 H 0.60189 0.89008 0.25516 0.0
H996 H 0.57327 0.88661 0.30341 0.0
H997 H 0.54347 0.90238 0.32276 0.0
H998 H 0.44998 0.90848 0.40694 0.0
H999 H 0.48042 0.90841 0.36464 0.0
C1000 C 0.89471 0.95707 0.6515 0.0
C1001 C 0.87732 0.94613 0.65393 0.0
C1002 C 0.89527 0.97485 0.6283 0.0
C1003 C 0.87353 1.00046 0.53465 0.0
H1004 H 0.89273 0.04797 0.59009 0.0
C1005 C 0.87248 0.07357 0.43768 0.0
C1006 C 0.88707 0.08751 0.4465 0.0
C1007 C 0.87059 0.0569 0.46453 0.0
C1008 C 0.88765 0.03483 0.57359 0.0
H1009 H 0.84671 0.94565 0.6353 0.0
H1010 H 0.84794 0.97631 0.59292 0.0
H1011 H 0.89114 0.0179 0.63373 0.0
H1012 H 0.91123 0.09481 0.49034 0.0
H1013 H 0.90871 0.06536 0.53572 0.0
H1014 H 0.87092 0.01678 0.47396 0.0
C1015 C 0.86109 0.97111 0.6092 0.0
C1016 C 0.8866 0.01761 0.5989 0.0
C1017 C 0.86041 0.95356 0.63335 0.0
C1018 C 0.89974 0.08441 0.48288 0.0
C1019 C 0.89815 0.06749 0.50916 0.0
C1020 C 0.87499 0.01753 0.50901 0.0
C1021 C 0.87855 0.98191 0.60634 0.0
C1022 C 0.87946 1.00027 0.57974 0.0
C1023 C 0.88356 0.0534 0.50042 0.0
C1024 C 0.88201 0.03508 0.52803 0.0
H1025 H 0.90796 0.9518 0.66721 0.0
H1026 H 0.90892 0.98285 0.62655 0.0
H1027 H 0.86819 0.98722 0.51887 0.0
H1028 H 0.86232 0.07565 0.41021 0.0
H1029 H 0.85881 0.04684 0.45712 0.0
C1030 C 0.09194 0.11985 0.5407 0.0
C1031 C 0.09126 0.12374 0.58706 0.0
C1032 C 0.07516 0.12176 0.51405 0.0
C1033 C 0.03567 0.11496 0.47019 0.0
H1034 H 0.99628 0.1539 0.49665 0.0
C1035 C 0.95875 0.1113 0.39074 0.0
C1036 C 0.94914 0.12877 0.37992 0.0
C1037 C 0.97637 0.11155 0.41458 0.0
C1038 C 0.00719 0.14306 0.48833 0.0
H1039 H 0.07229 0.13288 0.64149 0.0
H1040 H 0.04306 0.1357 0.5955 0.0
H1041 H 0.02657 0.15348 0.5395 0.0
H1042 H 0.95055 0.16026 0.38533 0.0
H1043 H 0.98159 0.16081 0.42613 0.0
H1044 H 0.01659 0.10488 0.41823 0.0
C1045 C 0.05662 0.13159 0.57934 0.0
C1046 C 0.02452 0.14264 0.51345 0.0
C1047 C 0.07343 0.12986 0.6059 0.0
C1048 C 0.95762 0.14655 0.39323 0.0
C1049 C 0.97536 0.14683 0.41692 0.0
C1050 C 0.01842 0.11547 0.44491 0.0
C1051 C 0.05717 0.12743 0.53303 0.0
C1052 C 0.03898 0.12847 0.50504 0.0
C1053 C 0.985 0.1293 0.42804 0.0
C1054 C 0.00381 0.12939 0.45385 0.0
H1055 H 0.10543 0.11527 0.52489 0.0
H1056 H 0.07636 0.11879 0.47846 0.0
H1057 H 0.04625 0.10366 0.46286 0.0
H1058 H 0.95251 0.09734 0.38132 0.0
H1059 H 0.98303 0.09773 0.42317 0.0
C1060 C 0.12532 0.93675 0.42446 0.0
C1061 C 0.12 0.91866 0.44324 0.0
C1062 C 0.12695 0.95346 0.45129 0.0
C1063 C 0.13922 0.98489 0.51747 0.0
H1064 H 0.10222 0.99302 0.61421 0.0
C1065 C 0.14574 0.05074 0.63936 0.0
C1066 C 0.12831 0.05983 0.65284 0.0
C1067 C 0.14528 0.03311 0.6154 0.0
C1068 C 0.1126 0.99109 0.58713 0.0
H1069 H 0.11253 0.90404 0.50546 0.0
H1070 H 0.11571 0.93308 0.55241 0.0
H1071 H 0.10027 0.96343 0.56911 0.0
H1072 H 0.09673 0.05755 0.65195 0.0
H1073 H 0.09585 0.02706 0.60971 0.0
H1074 H 0.15112 0.01287 0.53445 0.0
C1075 C 0.11826 0.93444 0.51668 0.0
C1076 C 0.11165 0.97393 0.56157 0.0
C1077 C 0.11654 0.91771 0.48974 0.0
C1078 C 0.11042 0.05085 0.64221 0.0
C1079 C 0.10994 0.03328 0.61817 0.0
C1080 C 0.14013 1.00209 0.54291 0.0
C1081 C 0.12343 0.95259 0.49781 0.0
C1082 C 0.12487 0.97061 0.52616 0.0
C1083 C 0.12736 0.02414 0.60431 0.0
C1084 C 0.12677 0.00551 0.57798 0.0
H1085 H 0.12799 0.93812 0.38876 0.0
H1086 H 0.13062 0.96717 0.43527 0.0
H1087 H 0.14985 0.9828 0.49095 0.0
H1088 H 0.15976 0.05727 0.64729 0.0
H1089 H 0.15902 0.02643 0.60594 0.0
C1090 C 0.05051 0.86014 0.39948 0.0
C1091 C 0.05719 0.87715 0.37808 0.0
C1092 C 0.03304 0.86026 0.4242 0.0
C1093 C 0.99725 0.89515 0.4764 0.0
H1094 H 0.96514 0.84873 0.48821 0.0
C1095 C 0.91881 0.89656 0.5492 0.0
C1096 C 0.91507 0.88339 0.58439 0.0
C1097 C 0.93595 0.89512 0.52371 0.0
C1098 C 0.97403 0.86177 0.48532 0.0
H1099 H 0.05027 0.90734 0.36376 0.0
H1100 H 0.01946 0.90734 0.40429 0.0
H1101 H 0.995 0.84753 0.44324 0.0
H1102 H 0.92618 0.85799 0.61941 0.0
H1103 H 0.95592 0.85518 0.57387 0.0
H1104 H 0.97579 0.90948 0.51722 0.0
C1105 C 0.02802 0.89407 0.40417 0.0
C1106 C 0.99125 0.8611 0.45973 0.0
C1107 C 0.04565 0.89404 0.38034 0.0
C1108 C 0.92865 0.86842 0.59268 0.0
C1109 C 0.94563 0.86675 0.56652 0.0
C1110 C 0.97987 0.89589 0.50115 0.0
C1111 C 0.02157 0.87731 0.42729 0.0
C1112 C 1.00315 0.87781 0.45477 0.0
C1113 C 0.94958 0.88025 0.53216 0.0
C1114 C 0.96807 0.87923 0.5059 0.0
H1115 H 0.05898 0.84682 0.39788 0.0
H1116 H 0.02881 0.84706 0.44166 0.0
H1117 H 0.00613 0.90822 0.47476 0.0
H1118 H 0.9087 0.90829 0.54196 0.0
H1119 H 0.93855 0.90565 0.49725 0.0
C1120 C 0.38007 0.17874 0.12266 0.0
C1121 C 0.36218 0.1698 0.11155 0.0
C1122 C 0.38152 0.19915 0.12559 0.0
C1123 C 0.3583 0.24449 0.08703 0.0
H1124 H 0.37835 0.26827 0.19597 0.0
C1125 C 0.34205 0.32431 0.12497 0.0
C1126 C 0.35659 0.33621 0.1439 0.0
C1127 C 0.34436 0.30413 0.12282 0.0
C1128 C 0.37298 0.26191 0.16504 0.0
H1129 H 0.33202 0.17516 0.09341 0.0
H1130 H 0.33466 0.21067 0.09717 0.0
H1131 H 0.38013 0.23277 0.18608 0.0
H1132 H 0.38476 0.33629 0.17692 0.0
H1133 H 0.38912 0.30066 0.17236 0.0
H1134 H 0.35128 0.27332 0.06545 0.0
C1135 C 0.34753 0.20198 0.10403 0.0
C1136 C 0.374 0.24157 0.15941 0.0
C1137 C 0.346 0.18164 0.10191 0.0
C1138 C 0.37328 0.3274 0.16237 0.0
C1139 C 0.37574 0.30702 0.15966 0.0
C1140 C 0.35749 0.26472 0.09237 0.0
C1141 C 0.36521 0.21098 0.11652 0.0
C1142 C 0.36623 0.23262 0.12076 0.0
C1143 C 0.36148 0.29519 0.13874 0.0
C1144 C 0.3643 0.27372 0.13196 0.0
H1145 H 0.39276 0.16995 0.13057 0.0
H1146 H 0.39535 0.20568 0.13501 0.0
H1147 H 0.35253 0.23807 0.05653 0.0
H1148 H 0.32892 0.33067 0.1109 0.0
H1149 H 0.33273 0.29555 0.10794 0.0
C1150 C 0.32844 0.62731 0.87692 0.0
C1151 C 0.33733 0.64536 0.86725 0.0
C1152 C 0.30801 0.62574 0.87948 0.0
C1153 C 0.26267 0.64905 0.84147 0.0
H1154 H 0.23847 0.6276 0.94847 0.0
C1155 C 0.1823 0.66385 0.87759 0.0
C1156 C 0.17049 0.64901 0.89549 0.0
C1157 C 0.20255 0.66184 0.87597 0.0
C1158 C 0.24495 0.63336 0.91806 0.0
H1159 H 0.33187 0.6757 0.85138 0.0
H1160 H 0.29631 0.67285 0.8545 0.0
H1161 H 0.27409 0.62627 0.93953 0.0
H1162 H 0.17061 0.62061 0.92721 0.0
H1163 H 0.20636 0.61677 0.9235 0.0
H1164 H 0.23385 0.65599 0.8194 0.0
C1165 C 0.30507 0.65996 0.86052 0.0
C1166 C 0.26536 0.63261 0.91299 0.0
C1167 C 0.32542 0.66161 0.85878 0.0
C1168 C 0.17943 0.63231 0.91345 0.0
C1169 C 0.19988 0.63015 0.91124 0.0
C1170 C 0.24237 0.64959 0.84623 0.0
C1171 C 0.29611 0.64209 0.87147 0.0
C1172 C 0.27444 0.64087 0.87507 0.0
C1173 C 0.21165 0.64473 0.89136 0.0
C1174 C 0.23321 0.64226 0.88512 0.0
H1175 H 0.33728 0.61456 0.88386 0.0
H1176 H 0.3015 0.61176 0.8877 0.0
H1177 H 0.26921 0.65521 0.81152 0.0
H1178 H 0.17583 0.67699 0.86395 0.0
H1179 H 0.21106 0.67371 0.86193 0.0
C1180 C 0.66182 0.82319 0.10138 0.0
C1181 C 0.6456 0.83501 0.11093 0.0
C1182 C 0.66028 0.80285 0.10309 0.0
C1183 C 0.6335 0.76307 0.15703 0.0
H1184 H 0.65679 0.73164 0.06304 0.0
C1185 C 0.63422 0.67718 0.15772 0.0
C1186 C 0.65105 0.66848 0.13955 0.0
C1187 C 0.63176 0.69757 0.15557 0.0
C1188 C 0.65041 0.74014 0.08996 0.0
H1189 H 0.61494 0.8348 0.12938 0.0
H1190 H 0.61233 0.79906 0.13307 0.0
H1191 H 0.65558 0.76691 0.05485 0.0
H1192 H 0.67895 0.67421 0.10778 0.0
H1193 H 0.67515 0.70934 0.1058 0.0
H1194 H 0.62892 0.73624 0.19285 0.0
C1195 C 0.62621 0.80562 0.12405 0.0
C1196 C 0.64963 0.76039 0.08504 0.0
C1197 C 0.62766 0.82604 0.12155 0.0
C1198 C 0.66572 0.68049 0.12158 0.0
C1199 C 0.66342 0.70067 0.11999 0.0
C1200 C 0.63448 0.7427 0.16223 0.0
C1201 C 0.64255 0.79381 0.11506 0.0
C1202 C 0.6415 0.77215 0.11881 0.0
C1203 C 0.64616 0.70952 0.13551 0.0
C1204 C 0.64337 0.73101 0.12915 0.0
H1205 H 0.67583 0.82969 0.09326 0.0
H1206 H 0.67317 0.79417 0.0963 0.0
H1207 H 0.6272 0.77178 0.18372 0.0
H1208 H 0.62264 0.6682 0.17152 0.0
H1209 H 0.61829 0.70386 0.16797 0.0
C1210 C 0.8225 0.34283 0.92756 0.0
C1211 C 0.83444 0.35915 0.91956 0.0
C1212 C 0.80214 0.34445 0.92585 0.0
C1213 C 0.76251 0.372 0.87418 0.0
H1214 H 0.73092 0.34828 0.96741 0.0
C1215 C 0.67659 0.37243 0.874 0.0
C1216 C 0.66754 0.35571 0.89176 0.0
C1217 C 0.69705 0.37456 0.8762 0.0
C1218 C 0.73946 0.35477 0.94067 0.0
H1219 H 0.83445 0.39004 0.90378 0.0
H1220 H 0.79869 0.39277 0.89998 0.0
H1221 H 0.76628 0.34896 0.97511 0.0
H1222 H 0.6727 0.32764 0.9229 0.0
H1223 H 0.70795 0.33083 0.92485 0.0
H1224 H 0.73564 0.3772 0.83895 0.0
C1225 C 0.80516 0.37877 0.90783 0.0
C1226 C 0.75976 0.35525 0.94533 0.0
C1227 C 0.82559 0.37723 0.91037 0.0
C1228 C 0.67926 0.34081 0.90944 0.0
C1229 C 0.69952 0.34276 0.91101 0.0
C1230 C 0.74209 0.3713 0.86919 0.0
C1231 C 0.79323 0.36235 0.91539 0.0
C1232 C 0.77156 0.36357 0.91186 0.0
C1233 C 0.70873 0.35989 0.89583 0.0
C1234 C 0.73032 0.36228 0.90199 0.0
H1235 H 0.82892 0.32872 0.93458 0.0
H1236 H 0.79335 0.33151 0.93153 0.0
H1237 H 0.77126 0.37845 0.84774 0.0
H1238 H 0.66784 0.38419 0.86043 0.0
H1239 H 0.70361 0.38795 0.86411 0.0
C1240 C 0.84608 0.68187 0.59736 0.0
C1241 C 0.86222 0.67007 0.60764 0.0
C1242 C 0.84758 0.70221 0.59915 0.0
C1243 C 0.87361 0.74199 0.65472 0.0
H1244 H 0.85167 0.77344 0.55925 0.0
C1245 C 0.87266 0.82781 0.65697 0.0
C1246 C 0.85613 0.83656 0.63762 0.0
C1247 C 0.87523 0.80744 0.65436 0.0
C1248 C 0.85765 0.76494 0.58659 0.0
H1249 H 0.8927 0.67032 0.62749 0.0
H1250 H 0.89523 0.70607 0.63139 0.0
H1251 H 0.85299 0.73816 0.55099 0.0
H1252 H 0.82885 0.83093 0.60304 0.0
H1253 H 0.83281 0.79583 0.60024 0.0
H1254 H 0.87763 0.7688 0.69104 0.0
C1255 C 0.88146 0.69949 0.62169 0.0
C1256 C 0.85851 0.74468 0.58162 0.0
C1257 C 0.88005 0.67906 0.61908 0.0
C1258 C 0.84186 0.82462 0.61779 0.0
C1259 C 0.84426 0.80444 0.61574 0.0
C1260 C 0.87254 0.76235 0.65997 0.0
C1261 C 0.86518 0.71127 0.61197 0.0
C1262 C 0.86617 0.73293 0.61588 0.0
C1263 C 0.86123 0.79555 0.63268 0.0
C1264 C 0.86413 0.77406 0.62632 0.0
H1265 H 0.83216 0.67534 0.58861 0.0
H1266 H 0.83475 0.71087 0.59177 0.0
H1267 H 0.87953 0.73328 0.68179 0.0
H1268 H 0.88393 0.83673 0.67224 0.0
H1269 H 0.88848 0.80113 0.66785 0.0
C1270 C 0.82903 0.12871 0.38022 0.0
C1271 C 0.83783 0.14693 0.37189 0.0
C1272 C 0.80861 0.127 0.38288 0.0
C1273 C 0.76314 0.15069 0.34699 0.0
H1274 H 0.73904 0.12702 0.45161 0.0
C1275 C 0.68253 0.16381 0.3834 0.0
C1276 C 0.67087 0.14847 0.39945 0.0
C1277 C 0.70282 0.16214 0.38212 0.0
C1278 C 0.7455 0.13342 0.42185 0.0
H1279 H 0.83221 0.17748 0.35861 0.0
H1280 H 0.79666 0.17443 0.36195 0.0
H1281 H 0.77468 0.12621 0.44279 0.0
H1282 H 0.67126 0.11951 0.42833 0.0
H1283 H 0.70709 0.11627 0.42519 0.0
H1284 H 0.73428 0.15774 0.32543 0.0
C1285 C 0.80548 0.16149 0.36683 0.0
C1286 C 0.76592 0.13297 0.41685 0.0
C1287 C 0.82583 0.16325 0.36496 0.0
C1288 C 0.67997 0.1316 0.41605 0.0
C1289 C 0.70047 0.12977 0.41414 0.0
C1290 C 0.74284 0.15094 0.35167 0.0
C1291 C 0.79663 0.14341 0.37634 0.0
C1292 C 0.77496 0.142 0.37982 0.0
C1293 C 0.7121 0.14488 0.39597 0.0
C1294 C 0.73371 0.1428 0.38974 0.0
H1295 H 0.83794 0.11589 0.38596 0.0
H1296 H 0.80219 0.11287 0.38997 0.0
H1297 H 0.76965 0.15745 0.31769 0.0
H1298 H 0.67592 0.17709 0.37085 0.0
H1299 H 0.71121 0.17438 0.36946 0.0
C1300 C 0.16167 0.32363 0.60381 0.0
C1301 C 0.14543 0.33545 0.61313 0.0
C1302 C 0.16014 0.30329 0.60567 0.0
C1303 C 0.13338 0.26365 0.65994 0.0
H1304 H 0.15659 0.23199 0.56625 0.0
C1305 C 0.13396 0.17783 0.66184 0.0
C1306 C 0.15072 0.16903 0.64367 0.0
C1307 C 0.13155 0.19822 0.65938 0.0
C1308 C 0.15024 0.24056 0.5931 0.0
H1309 H 0.11474 0.33526 0.6313 0.0
H1310 H 0.11215 0.29952 0.63527 0.0
H1311 H 0.15541 0.26725 0.55765 0.0
H1312 H 0.17859 0.17457 0.61155 0.0
H1313 H 0.17489 0.2097 0.60905 0.0
H1314 H 0.12881 0.23692 0.69611 0.0
C1315 C 0.12603 0.30608 0.62631 0.0
C1316 C 0.14947 0.2608 0.58793 0.0
C1317 C 0.12748 0.32649 0.62365 0.0
C1318 C 0.1654 0.18093 0.62536 0.0
C1319 C 0.16316 0.20112 0.62347 0.0
C1320 C 0.13435 0.24331 0.66539 0.0
C1321 C 0.1424 0.29427 0.61757 0.0
C1322 C 0.14135 0.27263 0.62157 0.0
C1323 C 0.14596 0.21006 0.63903 0.0
C1324 C 0.14321 0.23153 0.63241 0.0
H1325 H 0.17569 0.33013 0.59577 0.0
H1326 H 0.17305 0.29461 0.59907 0.0
H1327 H 0.1271 0.27243 0.68653 0.0
H1328 H 0.12237 0.16894 0.67591 0.0
H1329 H 0.11812 0.20458 0.67179 0.0
C1330 C 0.32607 0.87552 0.41703 0.0
C1331 C 0.33511 0.85711 0.41806 0.0
C1332 C 0.30566 0.87703 0.4137 0.0
C1333 C 0.2598 0.84829 0.42804 0.0
H1334 H 0.23778 0.8854 0.3439 0.0
C1335 C 0.18064 0.84094 0.36787 0.0
C1336 C 0.16906 0.85784 0.36703 0.0
C1337 C 0.20085 0.84223 0.37373 0.0
C1338 C 0.24368 0.8751 0.36787 0.0
H1339 H 0.32986 0.82591 0.41781 0.0
H1340 H 0.29451 0.82848 0.41189 0.0
H1341 H 0.27304 0.88531 0.35789 0.0
H1342 H 0.16972 0.88945 0.36945 0.0
H1343 H 0.20525 0.89174 0.37955 0.0
H1344 H 0.2306 0.83787 0.43758 0.0
C1345 C 0.30302 0.8418 0.41398 0.0
C1346 C 0.26389 0.87508 0.37602 0.0
C1347 C 0.32333 0.8403 0.41717 0.0
C1348 C 0.17828 0.87617 0.36994 0.0
C1349 C 0.19862 0.87747 0.37574 0.0
C1350 C 0.23969 0.84827 0.4198 0.0
C1351 C 0.29388 0.86016 0.41164 0.0
C1352 C 0.27224 0.86145 0.40569 0.0
C1353 C 0.21007 0.86046 0.37886 0.0
C1354 C 0.2314 0.86144 0.38906 0.0
H1355 H 0.33478 0.88874 0.41763 0.0
H1356 H 0.29912 0.8914 0.41252 0.0
H1357 H 0.26561 0.83788 0.45186 0.0
H1358 H 0.17401 0.82661 0.3653 0.0
H1359 H 0.20927 0.82886 0.37488 0.0
C1360 C 0.19005 0.10373 0.80386 0.0
C1361 C 0.19353 0.10418 0.75722 0.0
C1362 C 0.2055 0.1027 0.83456 0.0
C1363 C 0.25806 0.1138 0.84696 0.0
H1364 H 0.25388 0.08183 0.95392 0.0
C1365 C 0.32271 0.10678 0.97086 0.0
C1366 C 0.31886 0.10548 0.01723 0.0
C1367 C 0.30759 0.1057 0.93932 0.0
C1368 C 0.25524 0.09106 0.92461 0.0
H1369 H 0.21629 0.10368 0.70664 0.0
H1370 H 0.2434 0.102 0.76044 0.0
H1371 H 0.22775 0.08124 0.89822 0.0
H1372 H 0.29585 0.10181 0.06646 0.0
H1373 H 0.2693 0.10034 1.01141 0.0
H1374 H 0.28528 0.12399 0.87354 0.0
C1375 C 0.22856 0.1025 0.77311 0.0
C1376 C 0.24024 0.09066 0.89246 0.0
C1377 C 0.21302 0.10333 0.7422 0.0
C1378 C 0.29938 0.10281 0.0311 0.0
C1379 C 0.28415 0.10188 0.99937 0.0
C1380 C 0.27299 0.11433 0.87923 0.0
C1381 C 0.225 0.10224 0.81977 0.0
C1382 C 0.24141 0.10204 0.85317 0.0
C1383 C 0.28801 0.10346 0.95291 0.0
C1384 C 0.27186 0.10295 0.91863 0.0
H1385 H 0.17531 0.10433 0.81698 0.0
H1386 H 0.20212 0.10277 0.87009 0.0
H1387 H 0.25936 0.12303 0.81761 0.0
H1388 H 0.33751 0.10859 0.95863 0.0
H1389 H 0.31137 0.1065 0.90407 0.0
C1390 C 0.10319 0.7103 0.99533 0.0
C1391 C 0.10549 0.69091 1.00995 0.0
C1392 C 0.10198 0.7257 0.02653 0.0
C1393 C 0.09162 0.73638 0.14716 0.0
H1394 H 0.12123 0.78366 0.12514 0.0
C1395 C 0.10271 0.79625 0.28474 0.0
C1396 C 0.10377 0.8158 0.27062 0.0
C1397 C 0.10196 0.78098 0.25309 0.0
C1398 C 0.11259 0.77071 0.13173 0.0
H1399 H 0.10796 0.67269 0.06939 0.0
H1400 H 0.10583 0.69927 0.12297 0.0
H1401 H 0.12109 0.75776 0.06914 0.0
H1402 H 0.10386 0.83455 0.21194 0.0
H1403 H 0.10214 0.80831 0.15751 0.0
H1404 H 0.08303 0.74935 0.20965 0.0
C1405 C 0.10485 0.70266 0.08754 0.0
C1406 C 0.11254 0.7558 0.09942 0.0
C1407 C 0.10621 0.68737 0.05654 0.0
C1408 C 0.10344 0.81968 0.22422 0.0
C1409 C 0.10255 0.80453 0.19278 0.0
C1410 C 0.09157 0.75136 0.17939 0.0
C1411 C 0.10283 0.72208 0.07311 0.0
C1412 C 0.10214 0.73837 0.10672 0.0
C1413 C 0.10211 0.7849 0.20653 0.0
C1414 C 0.10209 0.76877 0.17226 0.0
H1415 H 0.10259 0.71362 0.95983 0.0
H1416 H 0.10027 0.74045 1.01415 0.0
H1417 H 0.08324 0.72327 0.15379 0.0
H1418 H 0.10298 0.79271 0.32016 0.0
H1419 H 0.10178 0.76608 0.26519 0.0
C1420 C 0.68472 0.89894 0.97137 0.0
C1421 C 0.68859 0.89989 0.01779 0.0
C1422 C 0.69982 0.90018 0.93978 0.0
C1423 C 0.75309 0.89288 0.92662 0.0
H1424 H 0.74578 0.92111 0.81509 0.0
C1425 C 0.81658 0.9022 0.80092 0.0
C1426 C 0.81272 0.90127 0.75451 0.0
C1427 C 0.80141 0.90308 0.83231 0.0
C1428 C 0.74803 0.91293 0.84573 0.0
H1429 H 0.71162 0.90324 0.06705 0.0
H1430 H 0.73814 0.90542 1.01176 0.0
H1431 H 0.71992 0.92106 0.87159 0.0
H1432 H 0.78956 0.90094 0.705 0.0
H1433 H 0.76288 0.90212 0.76 0.0
H1434 H 0.78099 0.88444 0.90072 0.0
C1435 C 0.72329 0.90354 0.99991 0.0
C1436 C 0.73317 0.91296 0.87833 0.0
C1437 C 0.70808 0.90242 0.03167 0.0
C1438 C 0.79311 0.90169 0.74038 0.0
C1439 C 0.7778 0.90243 0.77205 0.0
C1440 C 0.76788 0.89276 0.89399 0.0
C1441 C 0.71937 0.90237 0.95347 0.0
C1442 C 0.73548 0.90292 0.91928 0.0
C1443 C 0.78174 0.90287 0.8186 0.0
C1444 C 0.76565 0.90283 0.85302 0.0
H1445 H 0.66993 0.89714 0.95915 0.0
H1446 H 0.69617 0.89899 0.90452 0.0
H1447 H 0.75531 0.88468 0.95725 0.0
H1448 H 0.83144 0.90219 0.81334 0.0
H1449 H 0.80519 0.90396 0.86754 0.0
C1450 C 0.90205 0.29678 1.00045 0.0
C1451 C 0.89925 0.31609 0.01526 0.0
C1452 C 0.90323 0.28132 0.03145 0.0
C1453 C 0.91321 0.27029 0.15177 0.0
H1454 H 0.88365 0.22305 0.12895 0.0
C1455 C 0.90335 0.20981 0.28826 0.0
C1456 C 0.90172 0.19031 0.2739 0.0
C1457 C 0.90387 0.22518 0.25687 0.0
C1458 C 0.89231 0.23595 0.13578 0.0
H1459 H 0.8959 0.33413 0.07474 0.0
H1460 H 0.89817 0.30744 0.12815 0.0
H1461 H 0.88374 0.24912 0.07351 0.0
H1462 H 0.90016 0.17178 0.21486 0.0
H1463 H 0.90175 0.19813 0.16086 0.0
H1464 H 0.92201 0.25711 0.21375 0.0
C1465 C 0.89946 0.30416 0.09269 0.0
C1466 C 0.8923 0.25098 0.10379 0.0
C1467 C 0.89804 0.31951 0.06185 0.0
C1468 C 0.90117 0.18659 0.22741 0.0
C1469 C 0.90192 0.20184 0.1962 0.0
C1470 C 0.91339 0.25517 0.18361 0.0
C1471 C 0.90193 0.28481 0.07804 0.0
C1472 C 0.90266 0.26842 0.11137 0.0
C1473 C 0.90298 0.22144 0.21024 0.0
C1474 C 0.9029 0.23773 0.17625 0.0
H1475 H 0.90303 0.29356 0.96492 0.0
H1476 H 0.90528 0.26662 0.01892 0.0
H1477 H 0.92153 0.28342 0.15862 0.0
H1478 H 0.90373 0.21324 0.32374 0.0
H1479 H 0.90449 0.24001 0.26933 0.0
C1480 C 0.31709 0.40066 0.30563 0.0
C1481 C 0.31361 0.40098 0.25898 0.0
C1482 C 0.3017 0.40179 0.33646 0.0
C1483 C 0.24866 0.39268 0.34816 0.0
H1484 H 0.25438 0.42247 0.45819 0.0
C1485 C 0.18453 0.40046 0.47337 0.0
C1486 C 0.18848 0.40037 0.51975 0.0
C1487 C 0.19964 0.40154 0.44178 0.0
C1488 C 0.25258 0.41386 0.42798 0.0
H1489 H 0.29088 0.40296 0.20858 0.0
H1490 H 0.26386 0.40488 0.26262 0.0
H1491 H 0.28045 0.42291 0.40228 0.0
H1492 H 0.21169 0.40172 0.56907 0.0
H1493 H 0.23823 0.40328 0.51389 0.0
H1494 H 0.221 0.38332 0.374 0.0
C1495 C 0.27866 0.40366 0.27518 0.0
C1496 C 0.26755 0.41417 0.39571 0.0
C1497 C 0.29417 0.40269 0.24414 0.0
C1498 C 0.20808 0.40179 0.53368 0.0
C1499 C 0.22331 0.40276 0.5019 0.0
C1500 C 0.23374 0.39228 0.3805 0.0
C1501 C 0.28222 0.40316 0.32183 0.0
C1502 C 0.26584 0.40354 0.35535 0.0
C1503 C 0.21932 0.40245 0.45538 0.0
C1504 C 0.23543 0.40286 0.42099 0.0
H1505 H 0.3318 0.39938 0.31866 0.0
H1506 H 0.30508 0.4011 0.37194 0.0
H1507 H 0.24692 0.38405 0.31796 0.0
H1508 H 0.16964 0.39975 0.46118 0.0
H1509 H 0.1958 0.40178 0.40653 0.0
C1510 C 0.38988 0.68869 0.73158 0.0
C1511 C 0.40008 0.6894 0.7726 0.0
C1512 C 0.39119 0.70393 0.70051 0.0
C1513 C 0.40496 0.75637 0.6889 0.0
H1514 H 0.40258 0.7441 0.5619 0.0
C1515 C 0.40956 0.79789 0.50309 0.0
C1516 C 0.39905 0.8149 0.51384 0.0
C1517 C 0.41125 0.78257 0.53435 0.0
C1518 C 0.4035 0.74787 0.59713 0.0
H1519 H 0.4196 0.70708 0.81299 0.0
H1520 H 0.42213 0.73372 0.7584 0.0
H1521 H 0.40331 0.71781 0.61674 0.0
H1522 H 0.38173 0.82873 0.56595 0.0
H1523 H 0.38431 0.80226 0.61929 0.0
H1524 H 0.4056 0.78642 0.66926 0.0
C1525 C 0.41289 0.72135 0.75049 0.0
C1526 C 0.40363 0.73272 0.62883 0.0
C1527 C 0.4115 0.70603 0.78185 0.0
C1528 C 0.39015 0.81604 0.55641 0.0
C1529 C 0.39176 0.8008 0.58739 0.0
C1530 C 0.40491 0.77152 0.6572 0.0
C1531 C 0.40282 0.72047 0.70915 0.0
C1532 C 0.40405 0.73671 0.67529 0.0
C1533 C 0.40241 0.78382 0.57712 0.0
C1534 C 0.40387 0.76754 0.61078 0.0
H1535 H 0.38066 0.67634 0.72342 0.0
H1536 H 0.38277 0.70281 0.66984 0.0
H1537 H 0.40518 0.76016 0.72419 0.0
H1538 H 0.41666 0.79648 0.47075 0.0
H1539 H 0.41973 0.76985 0.52514 0.0
C1540 C 0.69112 0.60347 0.29877 0.0
C1541 C 0.69463 0.60386 0.25214 0.0
C1542 C 0.70652 0.60245 0.32954 0.0
C1543 C 0.75913 0.61328 0.34229 0.0
H1544 H 0.75438 0.58175 0.44983 0.0
C1545 C 0.82326 0.60621 0.46755 0.0
C1546 C 0.81923 0.60536 0.51389 0.0
C1547 C 0.80826 0.60508 0.43574 0.0
C1548 C 0.7559 0.59086 0.42035 0.0
H1549 H 0.71743 0.60325 0.20166 0.0
H1550 H 0.74449 0.60155 0.25563 0.0
H1551 H 0.72846 0.58108 0.39364 0.0
H1552 H 0.79599 0.60235 0.5628 0.0
H1553 H 0.76963 0.60071 0.50723 0.0
H1554 H 0.78633 0.62339 0.36918 0.0
C1555 C 0.72965 0.60211 0.26821 0.0
C1556 C 0.74102 0.59041 0.38791 0.0
C1557 C 0.71413 0.60295 0.23721 0.0
C1558 C 0.79967 0.60301 0.52747 0.0
C1559 C 0.78455 0.60199 0.49546 0.0
C1560 C 0.77396 0.61383 0.37482 0.0
C1561 C 0.72604 0.6019 0.31487 0.0
C1562 C 0.74238 0.60166 0.34843 0.0
C1563 C 0.78861 0.60318 0.44903 0.0
C1564 C 0.7726 0.60263 0.41444 0.0
H1565 H 0.67638 0.60412 0.31186 0.0
H1566 H 0.7031 0.60258 0.36504 0.0
H1567 H 0.76058 0.6224 0.31279 0.0
H1568 H 0.83813 0.60772 0.45554 0.0
H1569 H 0.81217 0.60556 0.40053 0.0
C1570 C 0.60256 0.20908 0.49824 0.0
C1571 C 0.60532 0.1897 0.51248 0.0
C1572 C 0.60118 0.22436 0.52975 0.0
C1573 C 0.59133 0.23435 0.65113 0.0
H1574 H 0.61963 0.28241 0.62911 0.0
C1575 C 0.60224 0.29391 0.78979 0.0
C1576 C 0.60265 0.31354 0.77604 0.0
C1577 C 0.60157 0.27873 0.75784 0.0
C1578 C 0.61137 0.26923 0.63573 0.0
H1579 H 0.60846 0.1714 0.57162 0.0
H1580 H 0.60603 0.19772 0.62562 0.0
H1581 H 0.61964 0.25679 0.57242 0.0
H1582 H 0.60179 0.33243 0.71754 0.0
H1583 H 0.60013 0.30639 0.66284 0.0
H1584 H 0.58301 0.24679 0.71439 0.0
C1585 C 0.60479 0.20121 0.59029 0.0
C1586 C 0.61139 0.25449 0.60301 0.0
C1587 C 0.60632 0.18605 0.55901 0.0
C1588 C 0.60178 0.31754 0.72969 0.0
C1589 C 0.60096 0.30249 0.69801 0.0
C1590 C 0.59122 0.24915 0.68379 0.0
C1591 C 0.60232 0.22062 0.57627 0.0
C1592 C 0.60146 0.23678 0.61026 0.0
C1593 C 0.60117 0.28281 0.71136 0.0
C1594 C 0.60127 0.26684 0.67668 0.0
H1595 H 0.60174 0.21249 0.46281 0.0
H1596 H 0.59912 0.23912 0.51766 0.0
H1597 H 0.58331 0.22102 0.65778 0.0
H1598 H 0.60296 0.29025 0.8251 0.0
H1599 H 0.60189 0.26379 0.76962 0.0
C1600 C 0.37411 0.11067 0.43418 0.0
C1601 C 0.35514 0.10777 0.4171 0.0
C1602 C 0.37744 0.11153 0.48056 0.0
C1603 C 0.35224 0.12026 0.58921 0.0
H1604 H 0.39799 0.09526 0.63974 0.0
C1605 C 0.36388 0.11249 0.78138 0.0
C1606 C 0.38291 0.11554 0.79799 0.0
C1607 C 0.36037 0.11148 0.73508 0.0
C1608 C 0.38525 0.10251 0.62617 0.0
H1609 H 0.32486 0.10311 0.43608 0.0
H1610 H 0.33063 0.10474 0.51664 0.0
H1611 H 0.39222 0.09368 0.55905 0.0
H1612 H 0.41309 0.12035 0.77825 0.0
H1613 H 0.40698 0.11844 0.69789 0.0
H1614 H 0.34528 0.12909 0.65636 0.0
C1615 C 0.34293 0.10664 0.49413 0.0
C1616 C 0.38194 0.10161 0.57981 0.0
C1617 C 0.33961 0.10573 0.44779 0.0
C1618 C 0.3983 0.1176 0.76692 0.0
C1619 C 0.39479 0.11653 0.72069 0.0
C1620 C 0.35555 0.12115 0.63558 0.0
C1621 C 0.36188 0.10955 0.51119 0.0
C1622 C 0.3654 0.11049 0.56066 0.0
C1623 C 0.37579 0.11344 0.70409 0.0
C1624 C 0.37212 0.11232 0.6547 0.0
H1625 H 0.38641 0.11261 0.4117 0.0
H1626 H 0.39219 0.11407 0.49239 0.0
H1627 H 0.3395 0.12752 0.57563 0.0
H1628 H 0.35169 0.11054 0.80416 0.0
H1629 H 0.34558 0.10884 0.72358 0.0
C1630 C 0.10136 0.63813 0.59374 0.0
C1631 C 0.10252 0.65697 0.61231 0.0
C1632 C 0.1037 0.63518 0.54756 0.0
C1633 C 0.1225 0.65885 0.44329 0.0
H1634 H 0.09086 0.61924 0.38499 0.0
C1635 C 0.11915 0.64907 0.24928 0.0
C1636 C 0.11977 0.62978 0.23288 0.0
C1637 C 0.11723 0.65279 0.29537 0.0
C1638 C 0.09993 0.63025 0.4008 0.0
H1639 H 0.10705 0.68753 0.5966 0.0
H1640 H 0.11084 0.68248 0.51593 0.0
H1641 H 0.0871 0.62505 0.46517 0.0
H1642 H 0.11935 0.59932 0.25297 0.0
H1643 H 0.11564 0.60584 0.33284 0.0
H1644 H 0.1351 0.66416 0.37845 0.0
C1645 C 0.10847 0.66987 0.53716 0.0
C1646 C 0.09783 0.63356 0.44692 0.0
C1647 C 0.10626 0.6728 0.58348 0.0
C1648 C 0.1185 0.61436 0.26399 0.0
C1649 C 0.11642 0.61809 0.30994 0.0
C1650 C 0.12449 0.65562 0.39702 0.0
C1651 C 0.10714 0.65102 0.51848 0.0
C1652 C 0.10917 0.64782 0.46897 0.0
C1653 C 0.11573 0.63733 0.32625 0.0
C1654 C 0.11333 0.64118 0.37526 0.0
H1655 H 0.09884 0.62557 0.61504 0.0
H1656 H 0.10301 0.6204 0.53476 0.0
H1657 H 0.1317 0.66976 0.45903 0.0
H1658 H 0.11979 0.66135 0.22647 0.0
H1659 H 0.11654 0.66779 0.30676 0.0
C1660 C 0.63415 0.89064 0.4346 0.0
C1661 C 0.65238 0.89679 0.41775 0.0
C1662 C 0.63073 0.88972 0.48096 0.0
C1663 C 0.6564 0.88702 0.59064 0.0
H1664 H 0.60654 0.90385 0.63875 0.0
C1665 C 0.64258 0.89461 0.78214 0.0
C1666 C 0.62418 0.88883 0.79871 0.0
C1667 C 0.6461 0.8956 0.73583 0.0
C1668 C 0.62047 0.89886 0.62591 0.0
H1669 H 0.68115 0.9072 0.43707 0.0
H1670 H 0.67523 0.90549 0.5176 0.0
H1671 H 0.6124 0.90545 0.55812 0.0
H1672 H 0.59521 0.87914 0.77902 0.0
H1673 H 0.60134 0.88086 0.6986 0.0
H1674 H 0.66445 0.88038 0.6584 0.0
C1675 C 0.66365 0.90107 0.49495 0.0
C1676 C 0.62384 0.89979 0.57956 0.0
C1677 C 0.66706 0.90204 0.44864 0.0
C1678 C 0.60945 0.884 0.76763 0.0
C1679 C 0.61297 0.88498 0.72137 0.0
C1680 C 0.65302 0.88606 0.63699 0.0
C1681 C 0.64545 0.89489 0.51179 0.0
C1682 C 0.64184 0.89387 0.56125 0.0
C1683 C 0.63133 0.89084 0.70476 0.0
C1684 C 0.635 0.89196 0.65531 0.0
H1685 H 0.62258 0.88619 0.41199 0.0
H1686 H 0.61662 0.88462 0.49264 0.0
H1687 H 0.67033 0.88206 0.57775 0.0
H1688 H 0.6542 0.8987 0.80498 0.0
H1689 H 0.66033 0.90044 0.72439 0.0
C1690 C 0.89036 0.36156 0.25258 0.0
C1691 C 0.88666 0.38042 0.23591 0.0
C1692 C 0.89178 0.35819 0.29888 0.0
C1693 C 0.90027 0.38358 0.4077 0.0
H1694 H 0.87718 0.33686 0.45864 0.0
C1695 C 0.89375 0.37212 0.60005 0.0
C1696 C 0.89729 0.35327 0.61693 0.0
C1697 C 0.89239 0.37541 0.55371 0.0
C1698 C 0.88392 0.34988 0.44499 0.0
H1699 H 0.88193 0.41057 0.25542 0.0
H1700 H 0.88398 0.40463 0.33583 0.0
H1701 H 0.87523 0.3425 0.378 0.0
H1702 H 0.90179 0.32305 0.59772 0.0
H1703 H 0.89987 0.32885 0.51726 0.0
H1704 H 0.90897 0.39096 0.47466 0.0
C1705 C 0.88597 0.39244 0.31313 0.0
C1706 C 0.8828 0.35312 0.39861 0.0
C1707 C 0.88454 0.3958 0.26688 0.0
C1708 C 0.89931 0.33781 0.58611 0.0
C1709 C 0.89795 0.3411 0.53982 0.0
C1710 C 0.90139 0.38034 0.45406 0.0
C1711 C 0.88958 0.37358 0.32984 0.0
C1712 C 0.89094 0.37002 0.37929 0.0
C1713 C 0.89451 0.35995 0.52291 0.0
C1714 C 0.89322 0.36345 0.47341 0.0
H1715 H 0.89191 0.34931 0.22987 0.0
H1716 H 0.89478 0.34351 0.3104 0.0
H1717 H 0.90699 0.39661 0.39403 0.0
H1718 H 0.89229 0.38444 0.62261 0.0
H1719 H 0.88949 0.39009 0.54206 0.0
C1720 C 0.35618 0.39112 0.49824 0.0
C1721 C 0.37469 0.38539 0.48236 0.0
C1722 C 0.35267 0.39329 0.54437 0.0
C1723 C 0.37834 0.40036 0.65336 0.0
H1724 H 0.32911 0.3833 0.70468 0.0
C1725 C 0.36607 0.39688 0.84554 0.0
C1726 C 0.34779 0.40281 0.86243 0.0
C1727 C 0.36911 0.39474 0.79928 0.0
C1728 C 0.34286 0.38835 0.69088 0.0
H1729 H 0.40408 0.37772 0.50314 0.0
H1730 H 0.39786 0.38106 0.58321 0.0
H1731 H 0.33478 0.37973 0.62423 0.0
H1732 H 0.31828 0.4108 0.84332 0.0
H1733 H 0.32368 0.4074 0.76275 0.0
H1734 H 0.38644 0.40896 0.71993 0.0
C1735 C 0.38607 0.38409 0.56002 0.0
C1736 C 0.34612 0.38631 0.64463 0.0
C1737 C 0.38957 0.38191 0.51397 0.0
C1738 C 0.33261 0.40642 0.83165 0.0
C1739 C 0.33564 0.40424 0.78536 0.0
C1740 C 0.37509 0.40239 0.69956 0.0
C1741 C 0.36758 0.38984 0.57594 0.0
C1742 C 0.36394 0.39223 0.6252 0.0
C1743 C 0.35396 0.39844 0.76848 0.0
C1744 C 0.35733 0.39637 0.71905 0.0
H1745 H 0.3443 0.39376 0.47503 0.0
H1746 H 0.3383 0.39792 0.55523 0.0
H1747 H 0.3921 0.40543 0.63962 0.0
H1748 H 0.37818 0.39417 0.86805 0.0
H1749 H 0.38334 0.39002 0.78769 0.0
C1750 C 0.39181 0.63462 0.18683 0.0
C1751 C 0.39938 0.65229 0.17008 0.0
C1752 C 0.39057 0.63129 0.23315 0.0
C1753 C 0.38982 0.657 0.34295 0.0
H1754 H 0.40283 0.60602 0.3906 0.0
C1755 C 0.39664 0.64245 0.53419 0.0
C1756 C 0.38945 0.62457 0.55065 0.0
C1757 C 0.39779 0.64595 0.48791 0.0
C1758 C 0.39891 0.62029 0.37788 0.0
H1759 H 0.41192 0.68017 0.18947 0.0
H1760 H 0.40969 0.6744 0.26999 0.0
H1761 H 0.40487 0.6118 0.31002 0.0
H1762 H 0.3774 0.59654 0.53089 0.0
H1763 H 0.37939 0.60262 0.45049 0.0
H1764 H 0.38383 0.66548 0.41081 0.0
C1765 C 0.40442 0.66321 0.24729 0.0
C1766 C 0.40009 0.62361 0.33157 0.0
C1767 C 0.40568 0.66652 0.201 0.0
C1768 C 0.38334 0.61034 0.51954 0.0
C1769 C 0.38449 0.61383 0.47331 0.0
C1770 C 0.38863 0.65368 0.38928 0.0
C1771 C 0.39685 0.64554 0.26403 0.0
C1772 C 0.39556 0.64201 0.31344 0.0
C1773 C 0.39178 0.63166 0.4568 0.0
C1774 C 0.39314 0.63527 0.4074 0.0
H1775 H 0.38652 0.62343 0.16416 0.0
H1776 H 0.3844 0.61763 0.24477 0.0
H1777 H 0.38594 0.67127 0.33019 0.0
H1778 H 0.40173 0.65366 0.55706 0.0
H1779 H 0.40374 0.65974 0.47651 0.0
C1780 C 0.65982 0.58551 0.82723 0.0
C1781 C 0.66131 0.60194 0.85543 0.0
C1782 C 0.65687 0.58766 0.78098 0.0
C1783 C 0.63935 0.62303 0.6956 0.0
H1784 H 0.66578 0.58853 0.61217 0.0
C1785 C 0.63638 0.63506 0.50322 0.0
C1786 C 0.63425 0.61846 0.47572 0.0
C1787 C 0.64008 0.63316 0.54926 0.0
C1788 C 0.65811 0.59817 0.63498 0.0
H1789 H 0.66114 0.6336 0.85649 0.0
H1790 H 0.65603 0.63734 0.77593 0.0
H1791 H 0.67146 0.58508 0.69256 0.0
H1792 H 0.63426 0.5868 0.47568 0.0
H1793 H 0.64074 0.5835 0.55577 0.0
H1794 H 0.62598 0.6361 0.63803 0.0
C1795 C 0.65685 0.62275 0.78971 0.0
C1796 C 0.66137 0.59618 0.68118 0.0
C1797 C 0.65979 0.6206 0.836 0.0
C1798 C 0.6361 0.59992 0.49555 0.0
C1799 C 0.63982 0.59802 0.5416 0.0
C1800 C 0.6361 0.62502 0.6494 0.0
C1801 C 0.65532 0.6063 0.76153 0.0
C1802 C 0.65201 0.60856 0.71218 0.0
C1803 C 0.64178 0.61462 0.56915 0.0
C1804 C 0.64541 0.6126 0.61842 0.0
H1805 H 0.66057 0.57091 0.84101 0.0
H1806 H 0.65544 0.57464 0.76056 0.0
H1807 H 0.63163 0.63263 0.7184 0.0
H1808 H 0.6354 0.64958 0.48909 0.0
H1809 H 0.64183 0.64628 0.56919 0.0
C1810 C 0.61207 0.35634 0.53817 0.0
C1811 C 0.6176 0.37492 0.55397 0.0
C1812 C 0.60991 0.35276 0.49204 0.0
C1813 C 0.60243 0.37815 0.38291 0.0
H1814 H 0.62034 0.32931 0.33168 0.0
C1815 C 0.60605 0.36584 0.19063 0.0
C1816 C 0.60055 0.34742 0.17376 0.0
C1817 C 0.60812 0.36896 0.23689 0.0
C1818 C 0.61504 0.34295 0.34544 0.0
H1819 H 0.62487 0.40438 0.53306 0.0
H1820 H 0.62148 0.39807 0.453 0.0
H1821 H 0.62378 0.33511 0.41211 0.0
H1822 H 0.59324 0.31776 0.19296 0.0
H1823 H 0.59651 0.32327 0.27352 0.0
H1824 H 0.59368 0.386 0.31634 0.0
C1825 C 0.61864 0.38626 0.47624 0.0
C1826 C 0.61702 0.34628 0.3917 0.0
C1827 C 0.62084 0.38982 0.52229 0.0
C1828 C 0.59729 0.33219 0.2046 0.0
C1829 C 0.5994 0.3353 0.25089 0.0
C1830 C 0.60045 0.37482 0.33671 0.0
C1831 C 0.61314 0.36768 0.46039 0.0
C1832 C 0.61079 0.36396 0.41111 0.0
C1833 C 0.60477 0.35376 0.26775 0.0
C1834 C 0.60677 0.3572 0.31722 0.0
H1835 H 0.60962 0.34444 0.56143 0.0
H1836 H 0.60547 0.33832 0.48125 0.0
H1837 H 0.59713 0.39179 0.39663 0.0
H1838 H 0.60849 0.378 0.1681 0.0
H1839 H 0.61251 0.3833 0.24843 0.0
C1840 C 0.84015 0.60419 0.94496 0.0
C1841 C 0.85524 0.60818 0.91411 0.0
C1842 C 0.84352 0.60511 0.99129 0.0
C1843 C 0.88318 0.60388 0.07622 0.0
H1844 H 0.84393 0.62651 0.15437 0.0
C1845 C 0.89836 0.61983 0.26391 0.0
C1846 C 0.88334 0.61605 0.29506 0.0
C1847 C 0.89483 0.6188 0.21767 0.0
C1848 C 0.85496 0.61992 0.13315 0.0
H1849 H 0.88576 0.61651 0.90843 0.0
H1850 H 0.89165 0.618 0.98909 0.0
H1851 H 0.83808 0.62488 0.07369 0.0
H1852 H 0.85277 0.60802 0.30139 0.0
H1853 H 0.84662 0.60629 0.22082 0.0
H1854 H 0.90006 0.5989 0.13564 0.0
C1855 C 0.87722 0.61392 0.97738 0.0
C1856 C 0.8516 0.61899 0.08679 0.0
C1857 C 0.87384 0.61304 0.93102 0.0
C1858 C 0.86464 0.6113 0.27854 0.0
C1859 C 0.86111 0.6103 0.23223 0.0
C1860 C 0.88653 0.60479 0.12257 0.0
C1861 C 0.8621 0.61 1.00818 0.0
C1862 C 0.86568 0.61098 0.05765 0.0
C1863 C 0.87617 0.61399 0.20113 0.0
C1864 C 0.87249 0.61286 0.15171 0.0
H1865 H 0.82573 0.60003 0.93336 0.0
H1866 H 0.83161 0.60168 1.0139 0.0
H1867 H 0.89422 0.59731 0.05499 0.0
H1868 H 0.91285 0.6239 0.27521 0.0
H1869 H 0.90671 0.62209 0.19484 0.0
C1870 C 0.6164 0.14749 0.75047 0.0
C1871 C 0.62118 0.12874 0.73454 0.0
C1872 C 0.61435 0.15107 0.79661 0.0
C1873 C 0.60561 0.1258 0.90533 0.0
H1874 H 0.6256 0.17375 0.95726 0.0
C1875 C 0.60937 0.13753 0.09769 0.0
C1876 C 0.60462 0.1561 0.1147 0.0
C1877 C 0.61143 0.13444 0.05142 0.0
C1878 C 0.61972 0.16037 0.94329 0.0
H1879 H 0.62727 0.099 0.75519 0.0
H1880 H 0.62406 0.1053 0.8353 0.0
H1881 H 0.62895 0.16799 0.87678 0.0
H1882 H 0.59865 0.18607 0.0958 0.0
H1883 H 0.60189 0.18061 0.01522 0.0
H1884 H 0.59637 0.11817 0.97173 0.0
C1885 C 0.62172 0.11725 0.81214 0.0
C1886 C 0.62164 0.15706 0.89703 0.0
C1887 C 0.62381 0.11368 0.76608 0.0
C1888 C 0.60211 0.17152 0.08403 0.0
C1889 C 0.60419 0.16843 0.03774 0.0
C1890 C 0.60369 0.12911 0.95154 0.0
C1891 C 0.61695 0.13598 0.82812 0.0
C1892 C 0.61467 0.1397 0.87739 0.0
C1893 C 0.60881 0.14982 0.02072 0.0
C1894 C 0.61076 0.14641 0.97126 0.0
H1895 H 0.61443 0.15949 0.7273 0.0
H1896 H 0.61048 0.16564 0.80754 0.0
H1897 H 0.59974 0.11241 0.89141 0.0
H1898 H 0.61122 0.12523 0.1201 0.0
H1899 H 0.61523 0.11996 0.03975 0.0
C1900 C 0.11742 0.40507 0.27466 0.0
C1901 C 0.12495 0.38962 0.30049 0.0
C1902 C 0.12087 0.40603 0.22836 0.0
C1903 C 0.13489 0.37535 0.13067 0.0
H1904 H 0.14492 0.42521 0.07357 0.0
C1905 C 0.15929 0.38159 0.94477 0.0
C1906 C 0.15139 0.39684 0.91893 0.0
C1907 C 0.15599 0.38064 0.99113 0.0
C1908 C 0.14191 0.41118 0.08885 0.0
H1909 H 0.14208 0.36305 0.29735 0.0
H1910 H 0.14842 0.36493 0.21691 0.0
H1911 H 0.13969 0.42379 0.15447 0.0
H1912 H 0.13381 0.42312 0.92205 0.0
H1913 H 0.12781 0.42131 1.00269 0.0
H1914 H 0.13715 0.36274 0.06504 0.0
C1915 C 0.13963 0.37621 0.23239 0.0
C1916 C 0.13891 0.41036 0.13534 0.0
C1917 C 0.13619 0.37526 0.27872 0.0
C1918 C 0.13999 0.41106 0.94073 0.0
C1919 C 0.13674 0.41015 0.98714 0.0
C1920 C 0.13791 0.37616 0.08418 0.0
C1921 C 0.13196 0.39157 0.2065 0.0
C1922 C 0.13534 0.39244 0.15693 0.0
C1923 C 0.14473 0.39496 1.01302 0.0
C1924 C 0.14145 0.39409 0.0626 0.0
H1925 H 0.1089 0.41653 0.29026 0.0
H1926 H 0.11457 0.41799 0.20958 0.0
H1927 H 0.13185 0.36132 0.1459 0.0
H1928 H 0.16797 0.37026 0.92912 0.0
H1929 H 0.16253 0.36882 1.00995 0.0
C1930 C 0.40295 0.83752 0.08488 0.0
C1931 C 0.39732 0.852 0.11586 0.0
C1932 C 0.40159 0.84081 0.0386 0.0
C1933 C 0.39853 0.88036 0.9541 0.0
H1934 H 0.37993 0.83908 0.87578 0.0
C1935 C 0.38157 0.89401 0.76645 0.0
C1936 C 0.38671 0.87943 0.73532 0.0
C1937 C 0.38281 0.89057 0.81267 0.0
C1938 C 0.38539 0.8507 0.89704 0.0
H1939 H 0.38557 0.88128 0.12186 0.0
H1940 H 0.38333 0.88704 0.04125 0.0
H1941 H 0.3822 0.83334 0.95639 0.0
H1942 H 0.39735 0.84976 0.72886 0.0
H1943 H 0.39956 0.84377 0.80941 0.0
H1944 H 0.40182 0.8977 0.89481 0.0
C1945 C 0.38903 0.87319 0.05284 0.0
C1946 C 0.38667 0.84741 0.94335 0.0
C1947 C 0.39034 0.86989 0.09915 0.0
C1948 C 0.39302 0.86125 0.75177 0.0
C1949 C 0.39428 0.85781 0.79805 0.0
C1950 C 0.39729 0.88364 0.90778 0.0
C1951 C 0.39462 0.85869 0.02192 0.0
C1952 C 0.39324 0.8622 0.97253 0.0
C1953 C 0.38923 0.87245 0.82917 0.0
C1954 C 0.39067 0.86887 0.87858 0.0
H1955 H 0.40874 0.8237 0.09635 0.0
H1956 H 0.40632 0.82942 0.01585 0.0
H1957 H 0.40396 0.89198 0.9754 0.0
H1958 H 0.37631 0.90807 0.7551 0.0
H1959 H 0.37844 0.90208 0.83551 0.0
C1960 C 0.84865 0.92006 0.32919 0.0
C1961 C 0.84597 0.9037 0.35712 0.0
C1962 C 0.85161 0.91782 0.28292 0.0
C1963 C 0.86699 0.88148 0.19712 0.0
H1964 H 0.84331 0.91786 0.11381 0.0
C1965 C 0.86977 0.86946 1.00456 0.0
C1966 C 0.87294 0.88588 0.97712 0.0
C1967 C 0.86612 0.87157 0.0506 0.0
C1968 C 0.85022 0.90768 0.13657 0.0
H1969 H 0.84403 0.8721 0.3576 0.0
H1970 H 0.84917 0.86819 0.27707 0.0
H1971 H 0.83765 0.92159 0.19418 0.0
H1972 H 0.87483 0.91749 0.97724 0.0
H1973 H 0.86846 0.92118 0.05734 0.0
H1974 H 0.8796 0.86759 0.13954 0.0
C1975 C 0.84928 0.88279 0.29107 0.0
C1976 C 0.84697 0.90982 0.18279 0.0
C1977 C 0.84632 0.88503 0.33737 0.0
C1978 C 0.87218 0.90451 0.99705 0.0
C1979 C 0.86852 0.90663 0.04312 0.0
C1980 C 0.87024 0.87934 0.15092 0.0
C1981 C 0.852 0.89915 0.26316 0.0
C1982 C 0.85533 0.89677 0.21377 0.0
C1983 C 0.86552 0.89019 0.07062 0.0
C1984 C 0.86192 0.89242 0.11994 0.0
H1985 H 0.84883 0.93465 0.34319 0.0
H1986 H 0.85397 0.93075 0.26275 0.0
H1987 H 0.87395 0.87132 0.21987 0.0
H1988 H 0.8699 0.8549 0.99038 0.0
H1989 H 0.86354 0.85858 0.07044 0.0
C1990 C 0.88715 0.11055 0.02243 0.0
C1991 C 0.89035 0.12571 0.05354 0.0
C1992 C 0.88873 0.11391 0.9762 0.0
C1993 C 0.88828 0.15358 0.8911 0.0
H1994 H 0.91122 0.11407 0.81426 0.0
C1995 C 0.90531 0.16792 0.7033 0.0
C1996 C 0.90186 0.15272 0.67245 0.0
C1997 C 0.90393 0.16467 0.74962 0.0
C1998 C 0.90455 0.12518 0.83509 0.0
H1999 H 0.8977 0.15641 0.05978 0.0
H2000 H 0.90089 0.16216 0.97931 0.0
H2001 H 0.90905 0.10844 0.89486 0.0
H2002 H 0.89431 0.12204 0.66675 0.0
H2003 H 0.8915 0.11649 0.74735 0.0
H2004 H 0.88379 0.17032 0.83131 0.0
C2005 C 0.89689 0.14768 0.9907 0.0
C2006 C 0.90331 0.12195 0.88145 0.0
C2007 C 0.8953 0.14432 0.03699 0.0
C2008 C 0.8969 0.13417 0.68934 0.0
C2009 C 0.89552 0.13092 0.7357 0.0
C2010 C 0.88953 0.15681 0.84474 0.0
C2011 C 0.8936 0.13253 0.95961 0.0
C2012 C 0.89513 0.13609 0.91015 0.0
C2013 C 0.89904 0.14612 0.76652 0.0
C2014 C 0.89767 0.14265 0.81603 0.0
H2015 H 0.88356 0.09597 0.03376 0.0
H2016 H 0.88586 0.10192 0.95342 0.0
H2017 H 0.8816 0.16469 0.91192 0.0
H2018 H 0.90892 0.18247 0.6917 0.0
H2019 H 0.90695 0.1767 0.77221 0.0
C2020 C 0.15072 0.11458 0.99694 0.0
C2021 C 0.13198 0.11947 0.98103 0.0
C2022 C 0.15425 0.11247 0.04305 0.0
C2023 C 0.12881 0.10378 0.15165 0.0
H2024 H 0.17689 0.12347 0.20372 0.0
C2025 C 0.14048 0.1074 0.34398 0.0
C2026 C 0.15904 0.1025 0.36091 0.0
C2027 C 0.13741 0.10949 0.29774 0.0
C2028 C 0.16348 0.11768 0.18971 0.0
H2029 H 0.10221 0.12566 1.00168 0.0
H2030 H 0.10843 0.12235 0.08177 0.0
H2031 H 0.17119 0.12691 0.12328 0.0
H2032 H 0.189 0.09629 0.34193 0.0
H2033 H 0.18358 0.0996 0.26138 0.0
H2034 H 0.12108 0.09454 0.21798 0.0
C2035 C 0.1204 0.11998 0.05861 0.0
C2036 C 0.1602 0.11965 0.14347 0.0
C2037 C 0.11689 0.12213 1.01257 0.0
C2038 C 0.17447 0.09987 0.33021 0.0
C2039 C 0.1714 0.10199 0.28394 0.0
C2040 C 0.13208 0.10181 0.19783 0.0
C2041 C 0.13913 0.11511 0.07456 0.0
C2042 C 0.14279 0.11278 0.12379 0.0
C2043 C 0.15281 0.10676 0.26701 0.0
C2044 C 0.14943 0.10877 0.21759 0.0
H2045 H 0.16276 0.11259 0.97377 0.0
H2046 H 0.16881 0.10852 0.05396 0.0
H2047 H 0.11539 0.09799 0.13767 0.0
H2048 H 0.12818 0.10934 0.36643 0.0
H2049 H 0.12295 0.11341 0.28611 0.0
C2050 C 0.10051 0.83824 0.7003 0.0
C2051 C 0.1072 0.85233 0.66953 0.0
C2052 C 0.10168 0.84155 0.74661 0.0
C2053 C 0.10656 0.88108 0.83106 0.0
H2054 H 0.12166 0.83887 0.91034 0.0
C2055 C 0.12325 0.8939 0.01921 0.0
C2056 C 0.1167 0.87984 0.05019 0.0
C2057 C 0.12208 0.89047 0.97296 0.0
C2058 C 0.11719 0.85077 0.88878 0.0
H2059 H 0.12062 0.88094 0.66384 0.0
H2060 H 0.1226 0.88673 0.74451 0.0
H2061 H 0.11969 0.83312 0.82966 0.0
H2062 H 0.10358 0.85111 0.05634 0.0
H2063 H 0.10154 0.84511 0.97573 0.0
H2064 H 0.10403 0.89873 0.89014 0.0
C2065 C 0.1162 0.87319 0.73276 0.0
C2066 C 0.11607 0.84747 0.84244 0.0
C2067 C 0.11505 0.86987 0.68642 0.0
C2068 C 0.10902 0.86218 0.03357 0.0
C2069 C 0.10785 0.85873 0.98727 0.0
C2070 C 0.10767 0.88438 0.87739 0.0
C2071 C 0.10954 0.85907 0.7635 0.0
C2072 C 0.11075 0.86259 0.81292 0.0
C2073 C 0.11433 0.87285 0.95631 0.0
C2074 C 0.11302 0.86927 0.90691 0.0
H2075 H 0.09405 0.82471 0.68863 0.0
H2076 H 0.09611 0.83048 0.76919 0.0
H2077 H 0.1021 0.89298 0.8095 0.0
H2078 H 0.12959 0.90752 0.03068 0.0
H2079 H 0.12754 0.90154 0.95023 0.0
loop_
_geom_bond_atom_site_label_1
_geom_bond_atom_site_label_2
_geom_bond_distance
_geom_bond_site_symmetry_2
_ccdc_geom_bond_type
Sm0 C2 2.846 . S
Sm0 O20 2.543 . S
Sm0 O21 2.450 . S
Sm0 O22 2.681 . S
Sm0 O23 2.464 . S
Sm0 O24 2.396 . S
Sm0 O28 2.386 . S
Sm0 O31 2.408 . S
Sm1 C11 2.846 1_554 S
Sm1 O22 2.386 . S
Sm1 O25 2.408 . S
Sm1 O26 2.543 . S
Sm1 O27 2.450 . S
Sm1 O28 2.681 . S
Sm1 O29 2.464 . S
Sm1 O30 2.396 . S
C2 Sm0 2.846 . S
C2 C3 1.506 . S
C2 O20 1.261 . S
C2 O21 1.242 . S
C3 C2 1.506 . S
C3 C4 1.358 . S
C3 C8 1.382 . S
C4 C3 1.358 . S
C4 C5 1.385 . S
C4 H32 0.930 . S
C5 C4 1.385 . S
C5 C6 1.395 . S
C5 H33 0.929 . S
C6 C5 1.395 . S
C6 C7 1.335 . S
C7 C6 1.335 . S
C7 C8 1.398 . S
C7 H34 0.930 . S
C8 C3 1.382 . S
C8 C7 1.398 . S
C8 H35 0.929 . S
C9 O22 1.271 . S
C9 O23 1.251 . S
C10 O24 1.252 . S
C10 O25 1.272 . S
C11 Sm1 2.846 1_556 S
C11 C12 1.506 . S
C11 O26 1.261 1_556 S
C11 O27 1.242 1_556 S
C12 C11 1.506 . S
C12 C13 1.358 . S
C12 C17 1.382 . S
C13 C12 1.358 . S
C13 C14 1.385 . S
C13 H36 0.930 . S
C14 C13 1.385 . S
C14 C15 1.395 . S
C14 H37 0.929 . S
C15 C14 1.395 . S
C15 C16 1.335 . S
C16 C15 1.335 . S
C16 C17 1.398 . S
C16 H38 0.930 . S
C17 C12 1.382 . S
C17 C16 1.398 . S
C17 H39 0.929 . S
C18 O28 1.271 . S
C18 O29 1.251 . S
C19 O30 1.252 . S
C19 O31 1.272 . S
O20 Sm0 2.543 . S
O20 C2 1.261 . S
O21 Sm0 2.450 . S
O21 C2 1.242 . S
O22 Sm0 2.681 . S
O22 Sm1 2.386 . S
O22 C9 1.271 . S
O23 Sm0 2.464 . S
O23 C9 1.251 . S
O24 Sm0 2.396 . S
O24 C10 1.252 . S
O25 Sm1 2.408 . S
O25 C10 1.272 . S
O26 Sm1 2.543 . S
O26 C11 1.261 1_554 S
O27 Sm1 2.450 . S
O27 C11 1.242 1_554 S
O28 Sm0 2.386 . S
O28 Sm1 2.681 . S
O28 C18 1.271 . S
O29 Sm1 2.464 . S
O29 C18 1.251 . S
O30 Sm1 2.396 . S
O30 C19 1.252 . S
O31 Sm0 2.408 . S
O31 C19 1.272 . S
H32 C4 0.930 . S
H33 C5 0.929 . S
H34 C7 0.930 . S
H35 C8 0.929 . S
H36 C13 0.930 . S
H37 C14 0.929 . S
H38 C16 0.930 . S
H39 C17 0.929 . S
Sm40 C42 2.846 1_556 S
Sm40 O60 2.543 . S
Sm40 O61 2.450 . S
Sm40 O62 2.681 . S
Sm40 O63 2.464 . S
Sm40 O64 2.396 . S
Sm40 O68 2.386 . S
Sm40 O71 2.408 . S
Sm41 C51 2.846 . S
Sm41 O62 2.386 . S
Sm41 O65 2.408 . S
Sm41 O66 2.543 . S
Sm41 O67 2.450 . S
Sm41 O68 2.681 . S
Sm41 O69 2.464 . S
Sm41 O70 2.396 . S
C42 Sm40 2.846 1_554 S
C42 C43 1.506 . S
C42 O60 1.261 1_554 S
C42 O61 1.242 1_554 S
C43 C42 1.506 . S
C43 C44 1.358 . S
C43 C48 1.382 . S
C44 C43 1.358 . S
C44 C45 1.385 . S
C44 H72 0.930 . S
C45 C44 1.385 . S
C45 C46 1.395 . S
C45 H73 0.929 . S
C46 C45 1.395 . S
C46 C47 1.335 . S
C47 C46 1.335 . S
C47 C48 1.398 . S
C47 H74 0.930 . S
C48 C43 1.382 . S
C48 C47 1.398 . S
C48 H75 0.929 . S
C49 O62 1.271 . S
C49 O63 1.251 . S
C50 O64 1.252 . S
C50 O65 1.272 . S
C51 Sm41 2.846 . S
C51 C52 1.506 . S
C51 O66 1.261 . S
C51 O67 1.242 . S
C52 C51 1.506 . S
C52 C53 1.358 . S
C52 C57 1.382 . S
C53 C52 1.358 . S
C53 C54 1.385 . S
C53 H76 0.930 . S
C54 C53 1.385 . S
C54 C55 1.395 . S
C54 H77 0.929 . S
C55 C54 1.395 . S
C55 C56 1.335 . S
C56 C55 1.335 . S
C56 C57 1.398 . S
C56 H78 0.930 . S
C57 C52 1.382 . S
C57 C56 1.398 . S
C57 H79 0.929 . S
C58 O68 1.271 . S
C58 O69 1.251 . S
C59 O70 1.252 . S
C59 O71 1.272 . S
O60 Sm40 2.543 . S
O60 C42 1.261 1_556 S
O61 Sm40 2.450 . S
O61 C42 1.242 1_556 S
O62 Sm40 2.681 . S
O62 Sm41 2.386 . S
O62 C49 1.271 . S
O63 Sm40 2.464 . S
O63 C49 1.251 . S
O64 Sm40 2.396 . S
O64 C50 1.252 . S
O65 Sm41 2.408 . S
O65 C50 1.272 . S
O66 Sm41 2.543 . S
O66 C51 1.261 . S
O67 Sm41 2.450 . S
O67 C51 1.242 . S
O68 Sm40 2.386 . S
O68 Sm41 2.681 . S
O68 C58 1.271 . S
O69 Sm41 2.464 . S
O69 C58 1.251 . S
O70 Sm41 2.396 . S
O70 C59 1.252 . S
O71 Sm40 2.408 . S
O71 C59 1.272 . S
H72 C44 0.930 . S
H73 C45 0.929 . S
H74 C47 0.930 . S
H75 C48 0.929 . S
H76 C53 0.930 . S
H77 C54 0.929 . S
H78 C56 0.930 . S
H79 C57 0.929 . S
Sm80 C82 2.846 . S
Sm80 O100 2.543 . S
Sm80 O101 2.450 . S
Sm80 O102 2.681 . S
Sm80 O103 2.464 . S
Sm80 O104 2.396 . S
Sm80 O108 2.386 . S
Sm80 O111 2.408 . S
Sm81 C91 2.846 1_554 S
Sm81 O102 2.386 . S
Sm81 O105 2.408 . S
Sm81 O106 2.543 . S
Sm81 O107 2.450 . S
Sm81 O108 2.681 . S
Sm81 O109 2.464 . S
Sm81 O110 2.396 . S
C82 Sm80 2.846 . S
C82 C83 1.506 . S
C82 O100 1.261 . S
C82 O101 1.242 . S
C83 C82 1.506 . S
C83 C84 1.358 . S
C83 C88 1.382 . S
C84 C83 1.358 . S
C84 C85 1.385 . S
C84 H112 0.930 . S
C85 C84 1.385 . S
C85 C86 1.395 . S
C85 H113 0.929 . S
C86 C85 1.395 . S
C86 C87 1.335 . S
C87 C86 1.335 . S
C87 C88 1.398 . S
C87 H114 0.930 . S
C88 C83 1.382 . S
C88 C87 1.398 . S
C88 H115 0.929 . S
C89 O102 1.271 . S
C89 O103 1.251 . S
C90 O104 1.252 . S
C90 O105 1.272 . S
C91 Sm81 2.846 1_556 S
C91 C92 1.506 . S
C91 O106 1.261 1_556 S
C91 O107 1.242 1_556 S
C92 C91 1.506 . S
C92 C93 1.358 . S
C92 C97 1.382 . S
C93 C92 1.358 . S
C93 C94 1.385 . S
C93 H116 0.930 . S
C94 C93 1.385 . S
C94 C95 1.395 . S
C94 H117 0.929 . S
C95 C94 1.395 . S
C95 C96 1.335 . S
C96 C95 1.335 . S
C96 C97 1.398 . S
C96 H118 0.930 . S
C97 C92 1.382 . S
C97 C96 1.398 . S
C97 H119 0.929 . S
C98 O108 1.271 . S
C98 O109 1.251 . S
C99 O110 1.252 . S
C99 O111 1.272 . S
O100 Sm80 2.543 . S
O100 C82 1.261 . S
O101 Sm80 2.450 . S
O101 C82 1.242 . S
O102 Sm80 2.681 . S
O102 Sm81 2.386 . S
O102 C89 1.271 . S
O103 Sm80 2.464 . S
O103 C89 1.251 . S
O104 Sm80 2.396 . S
O104 C90 1.252 . S
O105 Sm81 2.408 . S
O105 C90 1.272 . S
O106 Sm81 2.543 . S
O106 C91 1.261 1_554 S
O107 Sm81 2.450 . S
O107 C91 1.242 1_554 S
O108 Sm80 2.386 . S
O108 Sm81 2.681 . S
O108 C98 1.271 . S
O109 Sm81 2.464 . S
O109 C98 1.251 . S
O110 Sm81 2.396 . S
O110 C99 1.252 . S
O111 Sm80 2.408 . S
O111 C99 1.272 . S
H112 C84 0.930 . S
H113 C85 0.929 . S
H114 C87 0.930 . S
H115 C88 0.929 . S
H116 C93 0.930 . S
H117 C94 0.929 . S
H118 C96 0.930 . S
H119 C97 0.929 . S
Sm120 C122 2.846 1_556 S
Sm120 O140 2.543 . S
Sm120 O141 2.450 . S
Sm120 O142 2.681 . S
Sm120 O143 2.464 . S
Sm120 O144 2.396 . S
Sm120 O148 2.386 . S
Sm120 O151 2.408 . S
Sm121 C131 2.846 . S
Sm121 O142 2.386 . S
Sm121 O145 2.408 . S
Sm121 O146 2.543 . S
Sm121 O147 2.450 . S
Sm121 O148 2.681 . S
Sm121 O149 2.464 . S
Sm121 O150 2.396 . S
C122 Sm120 2.846 1_554 S
C122 C123 1.506 . S
C122 O140 1.261 1_554 S
C122 O141 1.242 1_554 S
C123 C122 1.506 . S
C123 C124 1.358 . S
C123 C128 1.382 . S
C124 C123 1.358 . S
C124 C125 1.385 . S
C124 H152 0.930 . S
C125 C124 1.385 . S
C125 C126 1.395 . S
C125 H153 0.929 . S
C126 C125 1.395 . S
C126 C127 1.335 . S
C127 C126 1.335 . S
C127 C128 1.398 . S
C127 H154 0.930 . S
C128 C123 1.382 . S
C128 C127 1.398 . S
C128 H155 0.929 . S
C129 O142 1.271 . S
C129 O143 1.251 . S
C130 O144 1.252 . S
C130 O145 1.272 . S
C131 Sm121 2.846 . S
C131 C132 1.506 . S
C131 O146 1.261 . S
C131 O147 1.242 . S
C132 C131 1.506 . S
C132 C133 1.358 . S
C132 C137 1.382 . S
C133 C132 1.358 . S
C133 C134 1.385 . S
C133 H156 0.930 . S
C134 C133 1.385 . S
C134 C135 1.395 . S
C134 H157 0.929 . S
C135 C134 1.395 . S
C135 C136 1.335 . S
C136 C135 1.335 . S
C136 C137 1.398 . S
C136 H158 0.930 . S
C137 C132 1.382 . S
C137 C136 1.398 . S
C137 H159 0.929 . S
C138 O148 1.271 . S
C138 O149 1.251 . S
C139 O150 1.252 . S
C139 O151 1.272 . S
O140 Sm120 2.543 . S
O140 C122 1.261 1_556 S
O141 Sm120 2.450 . S
O141 C122 1.242 1_556 S
O142 Sm120 2.681 . S
O142 Sm121 2.386 . S
O142 C129 1.271 . S
O143 Sm120 2.464 . S
O143 C129 1.251 . S
O144 Sm120 2.396 . S
O144 C130 1.252 . S
O145 Sm121 2.408 . S
O145 C130 1.272 . S
O146 Sm121 2.543 . S
O146 C131 1.261 . S
O147 Sm121 2.450 . S
O147 C131 1.242 . S
O148 Sm120 2.386 . S
O148 Sm121 2.681 . S
O148 C138 1.271 . S
O149 Sm121 2.464 . S
O149 C138 1.251 . S
O150 Sm121 2.396 . S
O150 C139 1.252 . S
O151 Sm120 2.408 . S
O151 C139 1.272 . S
H152 C124 0.930 . S
H153 C125 0.929 . S
H154 C127 0.930 . S
H155 C128 0.929 . S
H156 C133 0.930 . S
H157 C134 0.929 . S
H158 C136 0.930 . S
H159 C137 0.929 . S
Sm160 C162 2.846 1_554 S
Sm160 O180 2.543 1_554 S
Sm160 O181 2.450 1_554 S
Sm160 O182 2.681 . S
Sm160 O183 2.464 . S
Sm160 O184 2.396 . S
Sm160 O188 2.386 . S
Sm160 O191 2.408 . S
Sm161 C171 2.846 . S
Sm161 O182 2.386 . S
Sm161 O185 2.408 . S
Sm161 O186 2.543 . S
Sm161 O187 2.450 . S
Sm161 O188 2.681 . S
Sm161 O189 2.464 . S
Sm161 O190 2.396 . S
C162 Sm160 2.846 1_556 S
C162 C163 1.506 . S
C162 O180 1.261 . S
C162 O181 1.242 . S
C163 C162 1.506 . S
C163 C164 1.358 . S
C163 C168 1.382 . S
C164 C163 1.358 . S
C164 C165 1.385 . S
C164 H192 0.930 . S
C165 C164 1.385 . S
C165 C166 1.395 . S
C165 H193 0.929 . S
C166 C165 1.395 . S
C166 C167 1.335 . S
C167 C166 1.335 . S
C167 C168 1.398 . S
C167 H194 0.930 . S
C168 C163 1.382 . S
C168 C167 1.398 . S
C168 H195 0.929 . S
C169 O182 1.271 . S
C169 O183 1.251 . S
C170 O184 1.252 . S
C170 O185 1.272 . S
C171 Sm161 2.846 . S
C171 C172 1.506 . S
C171 O186 1.261 . S
C171 O187 1.242 . S
C172 C171 1.506 . S
C172 C173 1.358 . S
C172 C177 1.382 . S
C173 C172 1.358 . S
C173 C174 1.385 . S
C173 H196 0.930 . S
C174 C173 1.385 . S
C174 C175 1.395 . S
C174 H197 0.929 . S
C175 C174 1.395 . S
C175 C176 1.335 . S
C176 C175 1.335 . S
C176 C177 1.398 . S
C176 H198 0.930 . S
C177 C172 1.382 . S
C177 C176 1.398 . S
C177 H199 0.929 . S
C178 O188 1.271 . S
C178 O189 1.251 . S
C179 O190 1.252 . S
C179 O191 1.272 . S
O180 Sm160 2.543 1_556 S
O180 C162 1.261 . S
O181 Sm160 2.450 1_556 S
O181 C162 1.242 . S
O182 Sm160 2.681 . S
O182 Sm161 2.386 . S
O182 C169 1.271 . S
O183 Sm160 2.464 . S
O183 C169 1.251 . S
O184 Sm160 2.396 . S
O184 C170 1.252 . S
O185 Sm161 2.408 . S
O185 C170 1.272 . S
O186 Sm161 2.543 . S
O186 C171 1.261 . S
O187 Sm161 2.450 . S
O187 C171 1.242 . S
O188 Sm160 2.386 . S
O188 Sm161 2.681 . S
O188 C178 1.271 . S
O189 Sm161 2.464 . S
O189 C178 1.251 . S
O190 Sm161 2.396 . S
O190 C179 1.252 . S
O191 Sm160 2.408 . S
O191 C179 1.272 . S
H192 C164 0.930 . S
H193 C165 0.929 . S
H194 C167 0.930 . S
H195 C168 0.929 . S
H196 C173 0.930 . S
H197 C174 0.929 . S
H198 C176 0.930 . S
H199 C177 0.929 . S
Sm200 C202 2.846 . S
Sm200 O220 2.543 . S
Sm200 O221 2.450 . S
Sm200 O222 2.681 . S
Sm200 O223 2.464 . S
Sm200 O224 2.396 . S
Sm200 O228 2.386 . S
Sm200 O231 2.408 . S
Sm201 C211 2.846 1_556 S
Sm201 O222 2.386 . S
Sm201 O225 2.408 . S
Sm201 O226 2.543 1_556 S
Sm201 O227 2.450 1_556 S
Sm201 O228 2.681 . S
Sm201 O229 2.464 . S
Sm201 O230 2.396 . S
C202 Sm200 2.846 . S
C202 C203 1.506 . S
C202 O220 1.261 . S
C202 O221 1.242 . S
C203 C202 1.506 . S
C203 C204 1.358 . S
C203 C208 1.382 . S
C204 C203 1.358 . S
C204 C205 1.385 . S
C204 H232 0.930 . S
C205 C204 1.385 . S
C205 C206 1.395 . S
C205 H233 0.929 . S
C206 C205 1.395 . S
C206 C207 1.335 . S
C207 C206 1.335 . S
C207 C208 1.398 . S
C207 H234 0.930 . S
C208 C203 1.382 . S
C208 C207 1.398 . S
C208 H235 0.929 . S
C209 O222 1.271 . S
C209 O223 1.251 . S
C210 O224 1.252 . S
C210 O225 1.272 . S
C211 Sm201 2.846 1_554 S
C211 C212 1.506 . S
C211 O226 1.261 . S
C211 O227 1.242 . S
C212 C211 1.506 . S
C212 C213 1.358 . S
C212 C217 1.382 . S
C213 C212 1.358 . S
C213 C214 1.385 . S
C213 H236 0.930 . S
C214 C213 1.385 . S
C214 C215 1.395 . S
C214 H237 0.929 . S
C215 C214 1.395 . S
C215 C216 1.335 . S
C216 C215 1.335 . S
C216 C217 1.398 . S
C216 H238 0.930 . S
C217 C212 1.382 . S
C217 C216 1.398 . S
C217 H239 0.929 . S
C218 O228 1.271 . S
C218 O229 1.251 . S
C219 O230 1.252 . S
C219 O231 1.272 . S
O220 Sm200 2.543 . S
O220 C202 1.261 . S
O221 Sm200 2.450 . S
O221 C202 1.242 . S
O222 Sm200 2.681 . S
O222 Sm201 2.386 . S
O222 C209 1.271 . S
O223 Sm200 2.464 . S
O223 C209 1.251 . S
O224 Sm200 2.396 . S
O224 C210 1.252 . S
O225 Sm201 2.408 . S
O225 C210 1.272 . S
O226 Sm201 2.543 1_554 S
O226 C211 1.261 . S
O227 Sm201 2.450 1_554 S
O227 C211 1.242 . S
O228 Sm200 2.386 . S
O228 Sm201 2.681 . S
O228 C218 1.271 . S
O229 Sm201 2.464 . S
O229 C218 1.251 . S
O230 Sm201 2.396 . S
O230 C219 1.252 . S
O231 Sm200 2.408 . S
O231 C219 1.272 . S
H232 C204 0.930 . S
H233 C205 0.929 . S
H234 C207 0.930 . S
H235 C208 0.929 . S
H236 C213 0.930 . S
H237 C214 0.929 . S
H238 C216 0.930 . S
H239 C217 0.929 . S
Sm240 C242 2.846 1_554 S
Sm240 O260 2.543 1_554 S
Sm240 O261 2.450 1_554 S
Sm240 O262 2.681 . S
Sm240 O263 2.464 . S
Sm240 O264 2.396 . S
Sm240 O268 2.386 . S
Sm240 O271 2.408 . S
Sm241 C251 2.846 . S
Sm241 O262 2.386 . S
Sm241 O265 2.408 . S
Sm241 O266 2.543 . S
Sm241 O267 2.450 . S
Sm241 O268 2.681 . S
Sm241 O269 2.464 . S
Sm241 O270 2.396 . S
C242 Sm240 2.846 1_556 S
C242 C243 1.506 . S
C242 O260 1.261 . S
C242 O261 1.242 . S
C243 C242 1.506 . S
C243 C244 1.358 . S
C243 C248 1.382 . S
C244 C243 1.358 . S
C244 C245 1.385 . S
C244 H272 0.930 . S
C245 C244 1.385 . S
C245 C246 1.395 . S
C245 H273 0.929 . S
C246 C245 1.395 . S
C246 C247 1.335 . S
C247 C246 1.335 . S
C247 C248 1.398 . S
C247 H274 0.930 . S
C248 C243 1.382 . S
C248 C247 1.398 . S
C248 H275 0.929 . S
C249 O262 1.271 . S
C249 O263 1.251 . S
C250 O264 1.252 . S
C250 O265 1.272 . S
C251 Sm241 2.846 . S
C251 C252 1.506 . S
C251 O266 1.261 . S
C251 O267 1.242 . S
C252 C251 1.506 . S
C252 C253 1.358 . S
C252 C257 1.382 . S
C253 C252 1.358 . S
C253 C254 1.385 . S
C253 H276 0.930 . S
C254 C253 1.385 . S
C254 C255 1.395 . S
C254 H277 0.929 . S
C255 C254 1.395 . S
C255 C256 1.335 . S
C256 C255 1.335 . S
C256 C257 1.398 . S
C256 H278 0.930 . S
C257 C252 1.382 . S
C257 C256 1.398 . S
C257 H279 0.929 . S
C258 O268 1.271 . S
C258 O269 1.251 . S
C259 O270 1.252 . S
C259 O271 1.272 . S
O260 Sm240 2.543 1_556 S
O260 C242 1.261 . S
O261 Sm240 2.450 1_556 S
O261 C242 1.242 . S
O262 Sm240 2.681 . S
O262 Sm241 2.386 . S
O262 C249 1.271 . S
O263 Sm240 2.464 . S
O263 C249 1.251 . S
O264 Sm240 2.396 . S
O264 C250 1.252 . S
O265 Sm241 2.408 . S
O265 C250 1.272 . S
O266 Sm241 2.543 . S
O266 C251 1.261 . S
O267 Sm241 2.450 . S
O267 C251 1.242 . S
O268 Sm240 2.386 . S
O268 Sm241 2.681 . S
O268 C258 1.271 . S
O269 Sm241 2.464 . S
O269 C258 1.251 . S
O270 Sm241 2.396 . S
O270 C259 1.252 . S
O271 Sm240 2.408 . S
O271 C259 1.272 . S
H272 C244 0.930 . S
H273 C245 0.929 . S
H274 C247 0.930 . S
H275 C248 0.929 . S
H276 C253 0.930 . S
H277 C254 0.929 . S
H278 C256 0.930 . S
H279 C257 0.929 . S
Sm280 C282 2.846 . S
Sm280 O300 2.543 . S
Sm280 O301 2.450 . S
Sm280 O302 2.681 . S
Sm280 O303 2.464 . S
Sm280 O304 2.396 . S
Sm280 O308 2.386 . S
Sm280 O311 2.408 . S
Sm281 C291 2.846 1_556 S
Sm281 O302 2.386 . S
Sm281 O305 2.408 . S
Sm281 O306 2.543 1_556 S
Sm281 O307 2.450 1_556 S
Sm281 O308 2.681 . S
Sm281 O309 2.464 . S
Sm281 O310 2.396 . S
C282 Sm280 2.846 . S
C282 C283 1.506 . S
C282 O300 1.261 . S
C282 O301 1.242 . S
C283 C282 1.506 . S
C283 C284 1.358 . S
C283 C288 1.382 . S
C284 C283 1.358 . S
C284 C285 1.385 . S
C284 H312 0.930 . S
C285 C284 1.385 . S
C285 C286 1.395 . S
C285 H313 0.929 . S
C286 C285 1.395 . S
C286 C287 1.335 . S
C287 C286 1.335 . S
C287 C288 1.398 . S
C287 H314 0.930 . S
C288 C283 1.382 . S
C288 C287 1.398 . S
C288 H315 0.929 . S
C289 O302 1.271 . S
C289 O303 1.251 . S
C290 O304 1.252 . S
C290 O305 1.272 . S
C291 Sm281 2.846 1_554 S
C291 C292 1.506 . S
C291 O306 1.261 . S
C291 O307 1.242 . S
C292 C291 1.506 . S
C292 C293 1.358 . S
C292 C297 1.382 . S
C293 C292 1.358 . S
C293 C294 1.385 . S
C293 H316 0.930 . S
C294 C293 1.385 . S
C294 C295 1.395 . S
C294 H317 0.929 . S
C295 C294 1.395 . S
C295 C296 1.335 . S
C296 C295 1.335 . S
C296 C297 1.398 . S
C296 H318 0.930 . S
C297 C292 1.382 . S
C297 C296 1.398 . S
C297 H319 0.929 . S
C298 O308 1.271 . S
C298 O309 1.251 . S
C299 O310 1.252 . S
C299 O311 1.272 . S
O300 Sm280 2.543 . S
O300 C282 1.261 . S
O301 Sm280 2.450 . S
O301 C282 1.242 . S
O302 Sm280 2.681 . S
O302 Sm281 2.386 . S
O302 C289 1.271 . S
O303 Sm280 2.464 . S
O303 C289 1.251 . S
O304 Sm280 2.396 . S
O304 C290 1.252 . S
O305 Sm281 2.408 . S
O305 C290 1.272 . S
O306 Sm281 2.543 1_554 S
O306 C291 1.261 . S
O307 Sm281 2.450 1_554 S
O307 C291 1.242 . S
O308 Sm280 2.386 . S
O308 Sm281 2.681 . S
O308 C298 1.271 . S
O309 Sm281 2.464 . S
O309 C298 1.251 . S
O310 Sm281 2.396 . S
O310 C299 1.252 . S
O311 Sm280 2.408 . S
O311 C299 1.272 . S
H312 C284 0.930 . S
H313 C285 0.929 . S
H314 C287 0.930 . S
H315 C288 0.929 . S
H316 C293 0.930 . S
H317 C294 0.929 . S
H318 C296 0.930 . S
H319 C297 0.929 . S
Sm320 C322 2.846 . S
Sm320 O340 2.543 . S
Sm320 O341 2.450 . S
Sm320 O342 2.681 . S
Sm320 O343 2.464 . S
Sm320 O344 2.396 . S
Sm320 O348 2.386 . S
Sm320 O351 2.408 . S
Sm321 C331 2.846 . S
Sm321 O342 2.386 . S
Sm321 O345 2.408 . S
Sm321 O346 2.543 . S
Sm321 O347 2.450 . S
Sm321 O348 2.681 . S
Sm321 O349 2.464 . S
Sm321 O350 2.396 . S
C322 Sm320 2.846 . S
C322 C323 1.506 . S
C322 O340 1.261 . S
C322 O341 1.242 . S
C323 C322 1.506 . S
C323 C324 1.358 . S
C323 C328 1.382 . S
C324 C323 1.358 . S
C324 C325 1.385 . S
C324 H352 0.930 . S
C325 C324 1.385 . S
C325 C326 1.395 . S
C325 H353 0.929 . S
C326 C325 1.395 . S
C326 C327 1.335 . S
C327 C326 1.335 . S
C327 C328 1.398 . S
C327 H354 0.930 . S
C328 C323 1.382 . S
C328 C327 1.398 . S
C328 H355 0.929 . S
C329 O342 1.271 . S
C329 O343 1.251 . S
C330 O344 1.252 . S
C330 O345 1.272 . S
C331 Sm321 2.846 . S
C331 C332 1.506 . S
C331 O346 1.261 . S
C331 O347 1.242 . S
C332 C331 1.506 . S
C332 C333 1.358 . S
C332 C337 1.382 . S
C333 C332 1.358 . S
C333 C334 1.385 . S
C333 H356 0.930 . S
C334 C333 1.385 . S
C334 C335 1.395 . S
C334 H357 0.929 . S
C335 C334 1.395 . S
C335 C336 1.335 . S
C336 C335 1.335 . S
C336 C337 1.398 . S
C336 H358 0.930 . S
C337 C332 1.382 . S
C337 C336 1.398 . S
C337 H359 0.929 . S
C338 O348 1.271 . S
C338 O349 1.251 . S
C339 O350 1.252 . S
C339 O351 1.272 . S
O340 Sm320 2.543 . S
O340 C322 1.261 . S
O341 Sm320 2.450 . S
O341 C322 1.242 . S
O342 Sm320 2.681 . S
O342 Sm321 2.386 . S
O342 C329 1.271 . S
O343 Sm320 2.464 . S
O343 C329 1.251 . S
O344 Sm320 2.396 . S
O344 C330 1.252 . S
O345 Sm321 2.408 . S
O345 C330 1.272 . S
O346 Sm321 2.543 . S
O346 C331 1.261 . S
O347 Sm321 2.450 . S
O347 C331 1.242 . S
O348 Sm320 2.386 . S
O348 Sm321 2.681 . S
O348 C338 1.271 . S
O349 Sm321 2.464 . S
O349 C338 1.251 . S
O350 Sm321 2.396 . S
O350 C339 1.252 . S
O351 Sm320 2.408 . S
O351 C339 1.272 . S
H352 C324 0.930 . S
H353 C325 0.929 . S
H354 C327 0.930 . S
H355 C328 0.929 . S
H356 C333 0.930 . S
H357 C334 0.929 . S
H358 C336 0.930 . S
H359 C337 0.929 . S
Sm360 C362 2.846 . S
Sm360 O380 2.543 . S
Sm360 O381 2.450 . S
Sm360 O382 2.681 . S
Sm360 O383 2.464 . S
Sm360 O384 2.396 . S
Sm360 O388 2.386 . S
Sm360 O391 2.408 . S
Sm361 C371 2.846 . S
Sm361 O382 2.386 . S
Sm361 O385 2.408 . S
Sm361 O386 2.543 . S
Sm361 O387 2.450 . S
Sm361 O388 2.681 . S
Sm361 O389 2.464 . S
Sm361 O390 2.396 . S
C362 Sm360 2.846 . S
C362 C363 1.506 . S
C362 O380 1.261 . S
C362 O381 1.242 . S
C363 C362 1.506 . S
C363 C364 1.358 . S
C363 C368 1.382 . S
C364 C363 1.358 . S
C364 C365 1.385 . S
C364 H392 0.930 . S
C365 C364 1.385 . S
C365 C366 1.395 . S
C365 H393 0.929 . S
C366 C365 1.395 . S
C366 C367 1.335 . S
C367 C366 1.335 . S
C367 C368 1.398 . S
C367 H394 0.930 . S
C368 C363 1.382 . S
C368 C367 1.398 . S
C368 H395 0.929 . S
C369 O382 1.271 . S
C369 O383 1.251 . S
C370 O384 1.252 . S
C370 O385 1.272 . S
C371 Sm361 2.846 . S
C371 C372 1.506 . S
C371 O386 1.261 . S
C371 O387 1.242 . S
C372 C371 1.506 . S
C372 C373 1.358 . S
C372 C377 1.382 . S
C373 C372 1.358 . S
C373 C374 1.385 . S
C373 H396 0.930 . S
C374 C373 1.385 . S
C374 C375 1.395 . S
C374 H397 0.929 . S
C375 C374 1.395 . S
C375 C376 1.335 . S
C376 C375 1.335 . S
C376 C377 1.398 . S
C376 H398 0.930 . S
C377 C372 1.382 . S
C377 C376 1.398 . S
C377 H399 0.929 . S
C378 O388 1.271 . S
C378 O389 1.251 . S
C379 O390 1.252 . S
C379 O391 1.272 . S
O380 Sm360 2.543 . S
O380 C362 1.261 . S
O381 Sm360 2.450 . S
O381 C362 1.242 . S
O382 Sm360 2.681 . S
O382 Sm361 2.386 . S
O382 C369 1.271 . S
O383 Sm360 2.464 . S
O383 C369 1.251 . S
O384 Sm360 2.396 . S
O384 C370 1.252 . S
O385 Sm361 2.408 . S
O385 C370 1.272 . S
O386 Sm361 2.543 . S
O386 C371 1.261 . S
O387 Sm361 2.450 . S
O387 C371 1.242 . S
O388 Sm360 2.386 . S
O388 Sm361 2.681 . S
O388 C378 1.271 . S
O389 Sm361 2.464 . S
O389 C378 1.251 . S
O390 Sm361 2.396 . S
O390 C379 1.252 . S
O391 Sm360 2.408 . S
O391 C379 1.272 . S
H392 C364 0.930 . S
H393 C365 0.929 . S
H394 C367 0.930 . S
H395 C368 0.929 . S
H396 C373 0.930 . S
H397 C374 0.929 . S
H398 C376 0.930 . S
H399 C377 0.929 . S
Sm400 C402 2.846 . S
Sm400 O420 2.543 . S
Sm400 O421 2.450 . S
Sm400 O422 2.681 . S
Sm400 O423 2.464 . S
Sm400 O424 2.396 . S
Sm400 O428 2.386 . S
Sm400 O431 2.408 . S
Sm401 C411 2.846 . S
Sm401 O422 2.386 . S
Sm401 O425 2.408 . S
Sm401 O426 2.543 . S
Sm401 O427 2.450 . S
Sm401 O428 2.681 . S
Sm401 O429 2.464 . S
Sm401 O430 2.396 . S
C402 Sm400 2.846 . S
C402 C403 1.506 . S
C402 O420 1.261 . S
C402 O421 1.242 . S
C403 C402 1.506 . S
C403 C404 1.358 . S
C403 C408 1.382 . S
C404 C403 1.358 . S
C404 C405 1.385 . S
C404 H432 0.930 . S
C405 C404 1.385 . S
C405 C406 1.395 . S
C405 H433 0.929 . S
C406 C405 1.395 . S
C406 C407 1.335 . S
C407 C406 1.335 . S
C407 C408 1.398 . S
C407 H434 0.930 . S
C408 C403 1.382 . S
C408 C407 1.398 . S
C408 H435 0.929 . S
C409 O422 1.271 . S
C409 O423 1.251 . S
C410 O424 1.252 . S
C410 O425 1.272 . S
C411 Sm401 2.846 . S
C411 C412 1.506 . S
C411 O426 1.261 . S
C411 O427 1.242 . S
C412 C411 1.506 . S
C412 C413 1.358 . S
C412 C417 1.382 . S
C413 C412 1.358 . S
C413 C414 1.385 . S
C413 H436 0.930 . S
C414 C413 1.385 . S
C414 C415 1.395 . S
C414 H437 0.929 . S
C415 C414 1.395 . S
C415 C416 1.335 . S
C416 C415 1.335 . S
C416 C417 1.398 . S
C416 H438 0.930 . S
C417 C412 1.382 . S
C417 C416 1.398 . S
C417 H439 0.929 . S
C418 O428 1.271 . S
C418 O429 1.251 . S
C419 O430 1.252 . S
C419 O431 1.272 . S
O420 Sm400 2.543 . S
O420 C402 1.261 . S
O421 Sm400 2.450 . S
O421 C402 1.242 . S
O422 Sm400 2.681 . S
O422 Sm401 2.386 . S
O422 C409 1.271 . S
O423 Sm400 2.464 . S
O423 C409 1.251 . S
O424 Sm400 2.396 . S
O424 C410 1.252 . S
O425 Sm401 2.408 . S
O425 C410 1.272 . S
O426 Sm401 2.543 . S
O426 C411 1.261 . S
O427 Sm401 2.450 . S
O427 C411 1.242 . S
O428 Sm400 2.386 . S
O428 Sm401 2.681 . S
O428 C418 1.271 . S
O429 Sm401 2.464 . S
O429 C418 1.251 . S
O430 Sm401 2.396 . S
O430 C419 1.252 . S
O431 Sm400 2.408 . S
O431 C419 1.272 . S
H432 C404 0.930 . S
H433 C405 0.929 . S
H434 C407 0.930 . S
H435 C408 0.929 . S
H436 C413 0.930 . S
H437 C414 0.929 . S
H438 C416 0.930 . S
H439 C417 0.929 . S
Sm440 C442 2.846 . S
Sm440 O460 2.543 . S
Sm440 O461 2.450 . S
Sm440 O462 2.681 . S
Sm440 O463 2.464 . S
Sm440 O464 2.396 . S
Sm440 O468 2.386 . S
Sm440 O471 2.408 . S
Sm441 C451 2.846 . S
Sm441 O462 2.386 . S
Sm441 O465 2.408 . S
Sm441 O466 2.543 . S
Sm441 O467 2.450 . S
Sm441 O468 2.681 . S
Sm441 O469 2.464 . S
Sm441 O470 2.396 . S
C442 Sm440 2.846 . S
C442 C443 1.506 . S
C442 O460 1.261 . S
C442 O461 1.242 . S
C443 C442 1.506 . S
C443 C444 1.358 . S
C443 C448 1.382 . S
C444 C443 1.358 . S
C444 C445 1.385 . S
C444 H472 0.930 . S
C445 C444 1.385 . S
C445 C446 1.395 . S
C445 H473 0.929 . S
C446 C445 1.395 . S
C446 C447 1.335 . S
C447 C446 1.335 . S
C447 C448 1.398 . S
C447 H474 0.930 . S
C448 C443 1.382 . S
C448 C447 1.398 . S
C448 H475 0.929 . S
C449 O462 1.271 . S
C449 O463 1.251 . S
C450 O464 1.252 . S
C450 O465 1.272 . S
C451 Sm441 2.846 . S
C451 C452 1.506 . S
C451 O466 1.261 . S
C451 O467 1.242 . S
C452 C451 1.506 . S
C452 C453 1.358 . S
C452 C457 1.382 . S
C453 C452 1.358 . S
C453 C454 1.385 . S
C453 H476 0.930 . S
C454 C453 1.385 . S
C454 C455 1.395 . S
C454 H477 0.929 . S
C455 C454 1.395 . S
C455 C456 1.335 . S
C456 C455 1.335 . S
C456 C457 1.398 . S
C456 H478 0.930 . S
C457 C452 1.382 . S
C457 C456 1.398 . S
C457 H479 0.929 . S
C458 O468 1.271 . S
C458 O469 1.251 . S
C459 O470 1.252 . S
C459 O471 1.272 . S
O460 Sm440 2.543 . S
O460 C442 1.261 . S
O461 Sm440 2.450 . S
O461 C442 1.242 . S
O462 Sm440 2.681 . S
O462 Sm441 2.386 . S
O462 C449 1.271 . S
O463 Sm440 2.464 . S
O463 C449 1.251 . S
O464 Sm440 2.396 . S
O464 C450 1.252 . S
O465 Sm441 2.408 . S
O465 C450 1.272 . S
O466 Sm441 2.543 . S
O466 C451 1.261 . S
O467 Sm441 2.450 . S
O467 C451 1.242 . S
O468 Sm440 2.386 . S
O468 Sm441 2.681 . S
O468 C458 1.271 . S
O469 Sm441 2.464 . S
O469 C458 1.251 . S
O470 Sm441 2.396 . S
O470 C459 1.252 . S
O471 Sm440 2.408 . S
O471 C459 1.272 . S
H472 C444 0.930 . S
H473 C445 0.929 . S
H474 C447 0.930 . S
H475 C448 0.929 . S
H476 C453 0.930 . S
H477 C454 0.929 . S
H478 C456 0.930 . S
H479 C457 0.929 . S
Sm480 C482 2.846 . S
Sm480 O500 2.543 . S
Sm480 O501 2.450 . S
Sm480 O502 2.681 . S
Sm480 O503 2.464 . S
Sm480 O504 2.396 . S
Sm480 O508 2.386 . S
Sm480 O511 2.408 . S
Sm481 C491 2.846 . S
Sm481 O502 2.386 . S
Sm481 O505 2.408 . S
Sm481 O506 2.543 . S
Sm481 O507 2.450 . S
Sm481 O508 2.681 . S
Sm481 O509 2.464 . S
Sm481 O510 2.396 . S
C482 Sm480 2.846 . S
C482 C483 1.506 . S
C482 O500 1.261 . S
C482 O501 1.242 . S
C483 C482 1.506 . S
C483 C484 1.358 . S
C483 C488 1.382 . S
C484 C483 1.358 . S
C484 C485 1.385 . S
C484 H512 0.930 . S
C485 C484 1.385 . S
C485 C486 1.395 . S
C485 H513 0.929 . S
C486 C485 1.395 . S
C486 C487 1.335 . S
C487 C486 1.335 . S
C487 C488 1.398 . S
C487 H514 0.930 . S
C488 C483 1.382 . S
C488 C487 1.398 . S
C488 H515 0.929 . S
C489 O502 1.271 . S
C489 O503 1.251 . S
C490 O504 1.252 . S
C490 O505 1.272 . S
C491 Sm481 2.846 . S
C491 C492 1.506 . S
C491 O506 1.261 . S
C491 O507 1.242 . S
C492 C491 1.506 . S
C492 C493 1.358 . S
C492 C497 1.382 . S
C493 C492 1.358 . S
C493 C494 1.385 . S
C493 H516 0.930 . S
C494 C493 1.385 . S
C494 C495 1.395 . S
C494 H517 0.929 . S
C495 C494 1.395 . S
C495 C496 1.335 . S
C496 C495 1.335 . S
C496 C497 1.398 . S
C496 H518 0.930 . S
C497 C492 1.382 . S
C497 C496 1.398 . S
C497 H519 0.929 . S
C498 O508 1.271 . S
C498 O509 1.251 . S
C499 O510 1.252 . S
C499 O511 1.272 . S
O500 Sm480 2.543 . S
O500 C482 1.261 . S
O501 Sm480 2.450 . S
O501 C482 1.242 . S
O502 Sm480 2.681 . S
O502 Sm481 2.386 . S
O502 C489 1.271 . S
O503 Sm480 2.464 . S
O503 C489 1.251 . S
O504 Sm480 2.396 . S
O504 C490 1.252 . S
O505 Sm481 2.408 . S
O505 C490 1.272 . S
O506 Sm481 2.543 . S
O506 C491 1.261 . S
O507 Sm481 2.450 . S
O507 C491 1.242 . S
O508 Sm480 2.386 . S
O508 Sm481 2.681 . S
O508 C498 1.271 . S
O509 Sm481 2.464 . S
O509 C498 1.251 . S
O510 Sm481 2.396 . S
O510 C499 1.252 . S
O511 Sm480 2.408 . S
O511 C499 1.272 . S
H512 C484 0.930 . S
H513 C485 0.929 . S
H514 C487 0.930 . S
H515 C488 0.929 . S
H516 C493 0.930 . S
H517 C494 0.929 . S
H518 C496 0.930 . S
H519 C497 0.929 . S
Sm520 C522 2.846 . S
Sm520 O540 2.543 . S
Sm520 O541 2.450 . S
Sm520 O542 2.681 . S
Sm520 O543 2.464 . S
Sm520 O544 2.396 . S
Sm520 O548 2.386 . S
Sm520 O551 2.408 . S
Sm521 C531 2.846 . S
Sm521 O542 2.386 . S
Sm521 O545 2.408 . S
Sm521 O546 2.543 . S
Sm521 O547 2.450 . S
Sm521 O548 2.681 . S
Sm521 O549 2.464 . S
Sm521 O550 2.396 . S
C522 Sm520 2.846 . S
C522 C523 1.506 . S
C522 O540 1.261 . S
C522 O541 1.242 . S
C523 C522 1.506 . S
C523 C524 1.358 . S
C523 C528 1.382 . S
C524 C523 1.358 . S
C524 C525 1.385 . S
C524 H552 0.930 . S
C525 C524 1.385 . S
C525 C526 1.395 . S
C525 H553 0.929 . S
C526 C525 1.395 . S
C526 C527 1.335 . S
C527 C526 1.335 . S
C527 C528 1.398 . S
C527 H554 0.930 . S
C528 C523 1.382 . S
C528 C527 1.398 . S
C528 H555 0.929 . S
C529 O542 1.271 . S
C529 O543 1.251 . S
C530 O544 1.252 . S
C530 O545 1.272 . S
C531 Sm521 2.846 . S
C531 C532 1.506 . S
C531 O546 1.261 . S
C531 O547 1.242 . S
C532 C531 1.506 . S
C532 C533 1.358 . S
C532 C537 1.382 . S
C533 C532 1.358 . S
C533 C534 1.385 . S
C533 H556 0.930 . S
C534 C533 1.385 . S
C534 C535 1.395 . S
C534 H557 0.929 . S
C535 C534 1.395 . S
C535 C536 1.335 . S
C536 C535 1.335 . S
C536 C537 1.398 . S
C536 H558 0.930 . S
C537 C532 1.382 . S
C537 C536 1.398 . S
C537 H559 0.929 . S
C538 O548 1.271 . S
C538 O549 1.251 . S
C539 O550 1.252 . S
C539 O551 1.272 . S
O540 Sm520 2.543 . S
O540 C522 1.261 . S
O541 Sm520 2.450 . S
O541 C522 1.242 . S
O542 Sm520 2.681 . S
O542 Sm521 2.386 . S
O542 C529 1.271 . S
O543 Sm520 2.464 . S
O543 C529 1.251 . S
O544 Sm520 2.396 . S
O544 C530 1.252 . S
O545 Sm521 2.408 . S
O545 C530 1.272 . S
O546 Sm521 2.543 . S
O546 C531 1.261 . S
O547 Sm521 2.450 . S
O547 C531 1.242 . S
O548 Sm520 2.386 . S
O548 Sm521 2.681 . S
O548 C538 1.271 . S
O549 Sm521 2.464 . S
O549 C538 1.251 . S
O550 Sm521 2.396 . S
O550 C539 1.252 . S
O551 Sm520 2.408 . S
O551 C539 1.272 . S
H552 C524 0.930 . S
H553 C525 0.929 . S
H554 C527 0.930 . S
H555 C528 0.929 . S
H556 C533 0.930 . S
H557 C534 0.929 . S
H558 C536 0.930 . S
H559 C537 0.929 . S
Sm560 C562 2.846 . S
Sm560 O580 2.543 . S
Sm560 O581 2.450 . S
Sm560 O582 2.681 . S
Sm560 O583 2.464 . S
Sm560 O584 2.396 . S
Sm560 O588 2.386 . S
Sm560 O591 2.408 . S
Sm561 C571 2.846 . S
Sm561 O582 2.386 . S
Sm561 O585 2.408 . S
Sm561 O586 2.543 . S
Sm561 O587 2.450 . S
Sm561 O588 2.681 . S
Sm561 O589 2.464 . S
Sm561 O590 2.396 . S
C562 Sm560 2.846 . S
C562 C563 1.506 . S
C562 O580 1.261 . S
C562 O581 1.242 . S
C563 C562 1.506 . S
C563 C564 1.358 . S
C563 C568 1.382 . S
C564 C563 1.358 . S
C564 C565 1.385 . S
C564 H592 0.930 . S
C565 C564 1.385 . S
C565 C566 1.395 . S
C565 H593 0.929 . S
C566 C565 1.395 . S
C566 C567 1.335 . S
C567 C566 1.335 . S
C567 C568 1.398 . S
C567 H594 0.930 . S
C568 C563 1.382 . S
C568 C567 1.398 . S
C568 H595 0.929 . S
C569 O582 1.271 . S
C569 O583 1.251 . S
C570 O584 1.252 . S
C570 O585 1.272 . S
C571 Sm561 2.846 . S
C571 C572 1.506 . S
C571 O586 1.261 . S
C571 O587 1.242 . S
C572 C571 1.506 . S
C572 C573 1.358 . S
C572 C577 1.382 . S
C573 C572 1.358 . S
C573 C574 1.385 . S
C573 H596 0.930 . S
C574 C573 1.385 . S
C574 C575 1.395 . S
C574 H597 0.929 . S
C575 C574 1.395 . S
C575 C576 1.335 . S
C576 C575 1.335 . S
C576 C577 1.398 . S
C576 H598 0.930 . S
C577 C572 1.382 . S
C577 C576 1.398 . S
C577 H599 0.929 . S
C578 O588 1.271 . S
C578 O589 1.251 . S
C579 O590 1.252 . S
C579 O591 1.272 . S
O580 Sm560 2.543 . S
O580 C562 1.261 . S
O581 Sm560 2.450 . S
O581 C562 1.242 . S
O582 Sm560 2.681 . S
O582 Sm561 2.386 . S
O582 C569 1.271 . S
O583 Sm560 2.464 . S
O583 C569 1.251 . S
O584 Sm560 2.396 . S
O584 C570 1.252 . S
O585 Sm561 2.408 . S
O585 C570 1.272 . S
O586 Sm561 2.543 . S
O586 C571 1.261 . S
O587 Sm561 2.450 . S
O587 C571 1.242 . S
O588 Sm560 2.386 . S
O588 Sm561 2.681 . S
O588 C578 1.271 . S
O589 Sm561 2.464 . S
O589 C578 1.251 . S
O590 Sm561 2.396 . S
O590 C579 1.252 . S
O591 Sm560 2.408 . S
O591 C579 1.272 . S
H592 C564 0.930 . S
H593 C565 0.929 . S
H594 C567 0.930 . S
H595 C568 0.929 . S
H596 C573 0.930 . S
H597 C574 0.929 . S
H598 C576 0.930 . S
H599 C577 0.929 . S
Sm600 C602 2.846 . S
Sm600 O620 2.543 . S
Sm600 O621 2.450 . S
Sm600 O622 2.681 . S
Sm600 O623 2.464 . S
Sm600 O624 2.396 . S
Sm600 O628 2.386 . S
Sm600 O631 2.408 . S
Sm601 C611 2.846 . S
Sm601 O622 2.386 . S
Sm601 O625 2.408 . S
Sm601 O626 2.543 . S
Sm601 O627 2.450 . S
Sm601 O628 2.681 . S
Sm601 O629 2.464 . S
Sm601 O630 2.396 . S
C602 Sm600 2.846 . S
C602 C603 1.506 . S
C602 O620 1.261 . S
C602 O621 1.242 . S
C603 C602 1.506 . S
C603 C604 1.358 . S
C603 C608 1.382 . S
C604 C603 1.358 . S
C604 C605 1.385 . S
C604 H632 0.930 . S
C605 C604 1.385 . S
C605 C606 1.395 . S
C605 H633 0.929 . S
C606 C605 1.395 . S
C606 C607 1.335 . S
C607 C606 1.335 . S
C607 C608 1.398 . S
C607 H634 0.930 . S
C608 C603 1.382 . S
C608 C607 1.398 . S
C608 H635 0.929 . S
C609 O622 1.271 . S
C609 O623 1.251 . S
C610 O624 1.252 . S
C610 O625 1.272 . S
C611 Sm601 2.846 . S
C611 C612 1.506 . S
C611 O626 1.261 . S
C611 O627 1.242 . S
C612 C611 1.506 . S
C612 C613 1.358 . S
C612 C617 1.382 . S
C613 C612 1.358 . S
C613 C614 1.385 . S
C613 H636 0.930 . S
C614 C613 1.385 . S
C614 C615 1.395 . S
C614 H637 0.929 . S
C615 C614 1.395 . S
C615 C616 1.335 . S
C616 C615 1.335 . S
C616 C617 1.398 . S
C616 H638 0.930 . S
C617 C612 1.382 . S
C617 C616 1.398 . S
C617 H639 0.929 . S
C618 O628 1.271 . S
C618 O629 1.251 . S
C619 O630 1.252 . S
C619 O631 1.272 . S
O620 Sm600 2.543 . S
O620 C602 1.261 . S
O621 Sm600 2.450 . S
O621 C602 1.242 . S
O622 Sm600 2.681 . S
O622 Sm601 2.386 . S
O622 C609 1.271 . S
O623 Sm600 2.464 . S
O623 C609 1.251 . S
O624 Sm600 2.396 . S
O624 C610 1.252 . S
O625 Sm601 2.408 . S
O625 C610 1.272 . S
O626 Sm601 2.543 . S
O626 C611 1.261 . S
O627 Sm601 2.450 . S
O627 C611 1.242 . S
O628 Sm600 2.386 . S
O628 Sm601 2.681 . S
O628 C618 1.271 . S
O629 Sm601 2.464 . S
O629 C618 1.251 . S
O630 Sm601 2.396 . S
O630 C619 1.252 . S
O631 Sm600 2.408 . S
O631 C619 1.272 . S
H632 C604 0.930 . S
H633 C605 0.929 . S
H634 C607 0.930 . S
H635 C608 0.929 . S
H636 C613 0.930 . S
H637 C614 0.929 . S
H638 C616 0.930 . S
H639 C617 0.929 . S
C640 C641 1.349 . S
C640 C642 1.327 . S
C640 H665 0.950 . S
C641 C640 1.349 . S
C641 C657 1.349 . S
C642 C640 1.327 . S
C642 C661 1.429 . S
C642 H666 0.950 . S
C643 C660 1.574 . S
C643 C662 1.368 . S
C643 H667 0.949 . S
H644 C648 0.949 . S
C645 C646 1.349 . S
C645 C647 1.327 . S
C645 H668 0.950 . S
C646 C645 1.349 . S
C646 C658 1.349 . S
C647 C645 1.327 . S
C647 C663 1.429 . S
C647 H669 0.950 . S
C648 H644 0.949 . S
C648 C656 1.574 . S
C648 C664 1.368 . S
H649 C657 0.950 . S
H650 C655 0.950 . S
H651 C656 0.949 . S
H652 C658 0.950 . S
H653 C659 0.950 . S
H654 C660 0.949 1_545 S
C655 H650 0.950 . S
C655 C657 1.327 . S
C655 C661 1.429 . S
C656 C648 1.574 . S
C656 H651 0.949 . S
C656 C662 1.368 . S
C657 C641 1.349 . S
C657 H649 0.950 . S
C657 C655 1.327 . S
C658 C646 1.349 . S
C658 H652 0.950 . S
C658 C659 1.327 . S
C659 H653 0.950 . S
C659 C658 1.327 . S
C659 C663 1.429 . S
C660 C643 1.574 . S
C660 H654 0.949 1_565 S
C660 C664 1.368 . S
C661 C642 1.429 . S
C661 C655 1.429 . S
C661 C662 1.523 . S
C662 C643 1.368 . S
C662 C656 1.368 . S
C662 C661 1.523 . S
C663 C647 1.429 . S
C663 C659 1.429 . S
C663 C664 1.523 1_545 S
C664 C648 1.368 . S
C664 C660 1.368 . S
C664 C663 1.523 1_565 S
H665 C640 0.950 . S
H666 C642 0.950 . S
H667 C643 0.949 . S
H668 C645 0.950 . S
H669 C647 0.950 . S
C670 C671 1.349 . S
C670 C672 1.327 . S
C670 H695 0.950 . S
C671 C670 1.349 . S
C671 C687 1.349 . S
C672 C670 1.327 . S
C672 C691 1.429 . S
C672 H696 0.950 . S
C673 C690 1.574 . S
C673 C692 1.368 . S
C673 H697 0.949 . S
H674 C678 0.949 1_455 S
C675 C676 1.349 . S
C675 C677 1.327 . S
C675 H698 0.950 . S
C676 C675 1.349 . S
C676 C688 1.349 . S
C677 C675 1.327 . S
C677 C693 1.429 . S
C677 H699 0.950 . S
C678 H674 0.949 1_655 S
C678 C686 1.574 . S
C678 C694 1.368 . S
H679 C687 0.950 . S
H680 C685 0.950 . S
H681 C686 0.949 . S
H682 C688 0.950 . S
H683 C689 0.950 . S
H684 C690 0.949 . S
C685 H680 0.950 . S
C685 C687 1.327 . S
C685 C691 1.429 . S
C686 C678 1.574 . S
C686 H681 0.949 . S
C686 C692 1.368 . S
C687 C671 1.349 . S
C687 H679 0.950 . S
C687 C685 1.327 . S
C688 C676 1.349 . S
C688 H682 0.950 . S
C688 C689 1.327 . S
C689 H683 0.950 . S
C689 C688 1.327 . S
C689 C693 1.429 . S
C690 C673 1.574 . S
C690 H684 0.949 . S
C690 C694 1.368 . S
C691 C672 1.429 . S
C691 C685 1.429 . S
C691 C692 1.523 . S
C692 C673 1.368 . S
C692 C686 1.368 . S
C692 C691 1.523 . S
C693 C677 1.429 . S
C693 C689 1.429 . S
C693 C694 1.523 1_455 S
C694 C678 1.368 . S
C694 C690 1.368 . S
C694 C693 1.523 1_655 S
H695 C670 0.950 . S
H696 C672 0.950 . S
H697 C673 0.949 . S
H698 C675 0.950 . S
H699 C677 0.950 . S
C700 C701 1.349 . S
C700 C702 1.327 . S
C700 H725 0.950 . S
C701 C700 1.349 . S
C701 C717 1.349 . S
C702 C700 1.327 . S
C702 C721 1.429 . S
C702 H726 0.950 . S
C703 C720 1.574 . S
C703 C722 1.368 . S
C703 H727 0.949 . S
H704 C708 0.949 . S
C705 C706 1.349 . S
C705 C707 1.327 . S
C705 H728 0.950 . S
C706 C705 1.349 . S
C706 C718 1.349 . S
C707 C705 1.327 . S
C707 C723 1.429 . S
C707 H729 0.950 . S
C708 H704 0.949 . S
C708 C716 1.574 . S
C708 C724 1.368 . S
H709 C717 0.950 . S
H710 C715 0.950 . S
H711 C716 0.952 1_565 S
H712 C718 0.950 . S
H713 C719 0.950 . S
H714 C720 0.949 . S
C715 H710 0.950 . S
C715 C717 1.327 . S
C715 C721 1.429 . S
C716 C708 1.574 . S
C716 H711 0.952 1_545 S
C716 C722 1.368 . S
C717 C701 1.349 . S
C717 H709 0.950 . S
C717 C715 1.327 . S
C718 C706 1.349 . S
C718 H712 0.950 . S
C718 C719 1.327 . S
C719 H713 0.950 . S
C719 C718 1.327 . S
C719 C723 1.429 . S
C720 C703 1.574 . S
C720 H714 0.949 . S
C720 C724 1.368 . S
C721 C702 1.429 . S
C721 C715 1.429 . S
C721 C722 1.523 1_565 S
C722 C703 1.368 . S
C722 C716 1.368 . S
C722 C721 1.523 1_545 S
C723 C707 1.429 . S
C723 C719 1.429 . S
C723 C724 1.523 . S
C724 C708 1.368 . S
C724 C720 1.368 . S
C724 C723 1.523 . S
H725 C700 0.950 . S
H726 C702 0.950 . S
H727 C703 0.949 . S
H728 C705 0.950 . S
H729 C707 0.950 . S
C730 C731 1.349 . S
C730 C732 1.327 . S
C730 H755 0.950 . S
C731 C730 1.349 . S
C731 C747 1.349 . S
C732 C730 1.327 . S
C732 C751 1.429 . S
C732 H756 0.950 . S
C733 C750 1.574 . S
C733 C752 1.368 . S
C733 H757 0.949 1_455 S
H734 C738 0.949 . S
C735 C736 1.349 . S
C735 C737 1.327 . S
C735 H758 0.950 . S
C736 C735 1.349 . S
C736 C748 1.349 . S
C737 C735 1.327 . S
C737 C753 1.429 . S
C737 H759 0.950 . S
C738 H734 0.949 . S
C738 C746 1.574 . S
C738 C754 1.368 . S
H739 C747 0.950 . S
H740 C745 0.950 . S
H741 C746 0.949 . S
H742 C748 0.950 . S
H743 C749 0.950 . S
H744 C750 0.949 . S
C745 H740 0.950 . S
C745 C747 1.327 . S
C745 C751 1.429 . S
C746 C738 1.574 . S
C746 H741 0.949 . S
C746 C752 1.368 . S
C747 C731 1.349 . S
C747 H739 0.950 . S
C747 C745 1.327 . S
C748 C736 1.349 . S
C748 H742 0.950 . S
C748 C749 1.327 . S
C749 H743 0.950 . S
C749 C748 1.327 . S
C749 C753 1.429 . S
C750 C733 1.574 . S
C750 H744 0.949 . S
C750 C754 1.368 . S
C751 C732 1.429 . S
C751 C745 1.429 . S
C751 C752 1.523 1_655 S
C752 C733 1.368 . S
C752 C746 1.368 . S
C752 C751 1.523 1_455 S
C753 C737 1.429 . S
C753 C749 1.429 . S
C753 C754 1.523 . S
C754 C738 1.368 . S
C754 C750 1.368 . S
C754 C753 1.523 . S
H755 C730 0.950 . S
H756 C732 0.950 . S
H757 C733 0.949 1_655 S
H758 C735 0.950 . S
H759 C737 0.950 . S
C760 C761 1.349 . S
C760 C762 1.327 . S
C760 H785 0.950 . S
C761 C760 1.349 . S
C761 C777 1.349 . S
C762 C760 1.327 . S
C762 C781 1.429 . S
C762 H786 0.950 . S
C763 C780 1.584 . S
C763 C782 1.344 1_556 S
C763 H787 0.963 . S
H764 C768 0.949 . S
C765 C766 1.349 . S
C765 C767 1.327 . S
C765 H788 0.950 . S
C766 C765 1.349 . S
C766 C778 1.349 . S
C767 C765 1.327 . S
C767 C783 1.429 . S
C767 H789 0.950 . S
C768 H764 0.949 . S
C768 C776 1.574 . S
C768 C784 1.368 . S
H769 C777 0.950 . S
H770 C775 0.950 . S
H771 C776 0.949 . S
H772 C778 0.950 1_554 S
H773 C779 0.950 . S
H774 C780 0.949 . S
C775 H770 0.950 . S
C775 C777 1.327 . S
C775 C781 1.429 . S
C776 C768 1.574 . S
C776 H771 0.949 . S
C776 C782 1.368 . S
C777 C761 1.349 . S
C777 H769 0.950 . S
C777 C775 1.327 . S
C778 C766 1.349 . S
C778 H772 0.950 1_556 S
C778 C779 1.327 1_556 S
C779 H773 0.950 . S
C779 C778 1.327 1_554 S
C779 C783 1.429 1_554 S
C780 C763 1.584 . S
C780 H774 0.949 . S
C780 C784 1.368 1_556 S
C781 C762 1.429 . S
C781 C775 1.429 . S
C781 C782 1.523 . S
C782 C763 1.344 1_554 S
C782 C776 1.368 . S
C782 C781 1.523 . S
C783 C767 1.429 . S
C783 C779 1.429 1_556 S
C783 C784 1.523 1_556 S
C784 C768 1.368 . S
C784 C780 1.368 1_554 S
C784 C783 1.523 1_554 S
H785 C760 0.950 . S
H786 C762 0.950 . S
H787 C763 0.963 . S
H788 C765 0.950 . S
H789 C767 0.950 . S
C790 C791 1.349 . S
C790 C792 1.327 . S
C790 H815 0.950 . S
C791 C790 1.349 . S
C791 C807 1.349 . S
C792 C790 1.327 . S
C792 C811 1.429 . S
C792 H816 0.950 1_554 S
C793 C810 1.574 . S
C793 C812 1.368 . S
C793 H817 0.949 1_556 S
H794 C798 0.949 . S
C795 C796 1.349 . S
C795 C797 1.327 . S
C795 H818 0.950 . S
C796 C795 1.349 . S
C796 C808 1.349 . S
C797 C795 1.327 . S
C797 C813 1.429 . S
C797 H819 0.950 . S
C798 H794 0.949 . S
C798 C806 1.574 . S
C798 C814 1.368 . S
H799 C807 0.950 . S
H800 C805 0.950 . S
H801 C806 0.949 . S
H802 C808 0.950 . S
H803 C809 0.950 . S
H804 C810 0.949 . S
C805 H800 0.950 . S
C805 C807 1.327 . S
C805 C811 1.429 . S
C806 C798 1.574 . S
C806 H801 0.949 . S
C806 C812 1.368 . S
C807 C791 1.349 . S
C807 H799 0.950 . S
C807 C805 1.327 . S
C808 C796 1.349 . S
C808 H802 0.950 . S
C808 C809 1.327 . S
C809 H803 0.950 . S
C809 C808 1.327 . S
C809 C813 1.429 . S
C810 C793 1.574 . S
C810 H804 0.949 . S
C810 C814 1.368 . S
C811 C792 1.429 . S
C811 C805 1.429 . S
C811 C812 1.523 1_554 S
C812 C793 1.368 . S
C812 C806 1.368 . S
C812 C811 1.523 1_556 S
C813 C797 1.429 . S
C813 C809 1.429 . S
C813 C814 1.523 . S
C814 C798 1.368 . S
C814 C810 1.368 . S
C814 C813 1.523 . S
H815 C790 0.950 . S
H816 C792 0.950 1_556 S
H817 C793 0.949 1_554 S
H818 C795 0.950 . S
H819 C797 0.950 . S
C820 C821 1.349 . S
C820 C822 1.327 . S
C820 H845 0.950 . S
C821 C820 1.349 . S
C821 C837 1.349 . S
C822 C820 1.327 . S
C822 C841 1.429 . S
C822 H846 0.950 . S
C823 C840 1.574 . S
C823 C842 1.368 . S
C823 H847 0.949 . S
H824 C828 0.949 . S
C825 C826 1.349 . S
C825 C827 1.327 1_556 S
C825 H848 0.950 1_556 S
C826 C825 1.349 . S
C826 C838 1.349 . S
C827 C825 1.327 1_554 S
C827 C843 1.429 1_554 S
C827 H849 0.950 . S
C828 H824 0.949 . S
C828 C836 1.574 1_556 S
C828 C844 1.368 1_556 S
H829 C837 0.950 . S
H830 C835 0.950 . S
H831 C836 0.949 1_556 S
H832 C838 0.950 . S
H833 C839 0.950 . S
H834 C840 0.949 . S
C835 H830 0.950 . S
C835 C837 1.327 . S
C835 C841 1.429 . S
C836 C828 1.574 1_554 S
C836 H831 0.949 1_554 S
C836 C842 1.368 . S
C837 C821 1.349 . S
C837 H829 0.950 . S
C837 C835 1.327 . S
C838 C826 1.349 . S
C838 H832 0.950 . S
C838 C839 1.327 . S
C839 H833 0.950 . S
C839 C838 1.327 . S
C839 C843 1.429 . S
C840 C823 1.574 . S
C840 H834 0.949 . S
C840 C844 1.368 . S
C841 C822 1.429 . S
C841 C835 1.429 . S
C841 C842 1.523 . S
C842 C823 1.368 . S
C842 C836 1.368 . S
C842 C841 1.523 . S
C843 C827 1.429 1_556 S
C843 C839 1.429 . S
C843 C844 1.523 1_556 S
C844 C828 1.368 1_554 S
C844 C840 1.368 . S
C844 C843 1.523 1_554 S
H845 C820 0.950 . S
H846 C822 0.950 . S
H847 C823 0.949 . S
H848 C825 0.950 1_554 S
H849 C827 0.950 . S
C850 C851 1.349 . S
C850 C852 1.327 . S
C850 H875 0.950 . S
C851 C850 1.349 . S
C851 C867 1.349 . S
C852 C850 1.327 . S
C852 C871 1.429 . S
C852 H876 0.950 . S
C853 C870 1.574 . S
C853 C872 1.368 . S
C853 H877 0.949 . S
H854 C858 0.949 . S
C855 C856 1.349 . S
C855 C857 1.327 . S
C855 H878 0.950 . S
C856 C855 1.349 . S
C856 C868 1.349 . S
C857 C855 1.327 . S
C857 C873 1.429 . S
C857 H879 0.950 . S
C858 H854 0.949 . S
C858 C866 1.574 1_556 S
C858 C874 1.368 . S
H859 C867 0.950 . S
H860 C865 0.966 . S
H861 C866 0.949 . S
H862 C868 0.950 . S
H863 C869 0.950 . S
H864 C870 0.949 . S
C865 H860 0.966 . S
C865 C867 1.318 1_556 S
C865 C871 1.423 1_556 S
C866 C858 1.574 1_554 S
C866 H861 0.949 . S
C866 C872 1.368 1_554 S
C867 C851 1.349 . S
C867 H859 0.950 . S
C867 C865 1.318 1_554 S
C868 C856 1.349 . S
C868 H862 0.950 . S
C868 C869 1.327 . S
C869 H863 0.950 . S
C869 C868 1.327 . S
C869 C873 1.429 . S
C870 C853 1.574 . S
C870 H864 0.949 . S
C870 C874 1.368 . S
C871 C852 1.429 . S
C871 C865 1.423 1_554 S
C871 C872 1.523 1_554 S
C872 C853 1.368 . S
C872 C866 1.368 1_556 S
C872 C871 1.523 1_556 S
C873 C857 1.429 . S
C873 C869 1.429 . S
C873 C874 1.523 . S
C874 C858 1.368 . S
C874 C870 1.368 . S
C874 C873 1.523 . S
H875 C850 0.950 . S
H876 C852 0.950 . S
H877 C853 0.949 . S
H878 C855 0.950 . S
H879 C857 0.950 . S
C880 C881 1.349 . S
C880 C882 1.327 . S
C880 H905 0.950 . S
C881 C880 1.349 . S
C881 C897 1.349 . S
C882 C880 1.327 . S
C882 C901 1.429 . S
C882 H906 0.950 . S
C883 C900 1.574 . S
C883 C902 1.368 . S
C883 H907 0.949 . S
H884 C888 0.949 . S
C885 C886 1.349 . S
C885 C887 1.327 . S
C885 H908 0.950 . S
C886 C885 1.349 . S
C886 C898 1.349 . S
C887 C885 1.327 . S
C887 C903 1.429 . S
C887 H909 0.950 . S
C888 H884 0.949 . S
C888 C896 1.574 . S
C888 C904 1.368 . S
H889 C897 0.950 . S
H890 C895 0.950 . S
H891 C896 0.949 . S
H892 C898 0.950 . S
H893 C899 0.950 . S
H894 C900 0.949 . S
C895 H890 0.950 . S
C895 C897 1.327 . S
C895 C901 1.429 . S
C896 C888 1.574 . S
C896 H891 0.949 . S
C896 C902 1.368 . S
C897 C881 1.349 . S
C897 H889 0.950 . S
C897 C895 1.327 . S
C898 C886 1.349 . S
C898 H892 0.950 . S
C898 C899 1.327 . S
C899 H893 0.950 . S
C899 C898 1.327 . S
C899 C903 1.429 . S
C900 C883 1.574 . S
C900 H894 0.949 . S
C900 C904 1.368 . S
C901 C882 1.429 . S
C901 C895 1.429 . S
C901 C902 1.523 . S
C902 C883 1.368 . S
C902 C896 1.368 . S
C902 C901 1.523 . S
C903 C887 1.429 . S
C903 C899 1.429 . S
C903 C904 1.523 . S
C904 C888 1.368 . S
C904 C900 1.368 . S
C904 C903 1.523 . S
H905 C880 0.950 . S
H906 C882 0.950 . S
H907 C883 0.949 . S
H908 C885 0.950 . S
H909 C887 0.950 . S
C910 C911 1.349 . S
C910 C912 1.327 . S
C910 H935 0.950 . S
C911 C910 1.349 . S
C911 C927 1.349 . S
C912 C910 1.327 . S
C912 C931 1.429 . S
C912 H936 0.950 . S
C913 C930 1.574 . S
C913 C932 1.368 . S
C913 H937 0.949 . S
H914 C918 0.949 . S
C915 C916 1.349 . S
C915 C917 1.327 . S
C915 H938 0.950 . S
C916 C915 1.349 . S
C916 C928 1.349 . S
C917 C915 1.327 . S
C917 C933 1.429 . S
C917 H939 0.950 . S
C918 H914 0.949 . S
C918 C926 1.574 . S
C918 C934 1.368 . S
H919 C927 0.950 . S
H920 C925 0.950 . S
H921 C926 0.949 . S
H922 C928 0.950 . S
H923 C929 0.950 . S
H924 C930 0.949 . S
C925 H920 0.950 . S
C925 C927 1.327 . S
C925 C931 1.429 . S
C926 C918 1.574 . S
C926 H921 0.949 . S
C926 C932 1.368 . S
C927 C911 1.349 . S
C927 H919 0.950 . S
C927 C925 1.327 . S
C928 C916 1.349 . S
C928 H922 0.950 . S
C928 C929 1.327 . S
C929 H923 0.950 . S
C929 C928 1.327 . S
C929 C933 1.429 . S
C930 C913 1.574 . S
C930 H924 0.949 . S
C930 C934 1.368 . S
C931 C912 1.429 . S
C931 C925 1.429 . S
C931 C932 1.523 . S
C932 C913 1.368 . S
C932 C926 1.368 . S
C932 C931 1.523 . S
C933 C917 1.429 . S
C933 C929 1.429 . S
C933 C934 1.523 . S
C934 C918 1.368 . S
C934 C930 1.368 . S
C934 C933 1.523 . S
H935 C910 0.950 . S
H936 C912 0.950 . S
H937 C913 0.949 . S
H938 C915 0.950 . S
H939 C917 0.950 . S
C940 C941 1.349 . S
C940 C942 1.327 . S
C940 H965 0.950 . S
C941 C940 1.349 . S
C941 C957 1.349 . S
C942 C940 1.327 . S
C942 C961 1.429 . S
C942 H966 0.950 . S
C943 C960 1.574 . S
C943 C962 1.368 . S
C943 H967 0.949 . S
H944 C948 0.949 . S
C945 C946 1.349 . S
C945 C947 1.327 . S
C945 H968 0.950 . S
C946 C945 1.349 . S
C946 C958 1.349 . S
C947 C945 1.327 . S
C947 C963 1.429 . S
C947 H969 0.950 . S
C948 H944 0.949 . S
C948 C956 1.574 . S
C948 C964 1.368 . S
H949 C957 0.950 . S
H950 C955 0.950 . S
H951 C956 0.949 . S
H952 C958 0.950 . S
H953 C959 0.950 . S
H954 C960 0.949 . S
C955 H950 0.950 . S
C955 C957 1.327 . S
C955 C961 1.429 . S
C956 C948 1.574 . S
C956 H951 0.949 . S
C956 C962 1.368 . S
C957 C941 1.349 . S
C957 H949 0.950 . S
C957 C955 1.327 . S
C958 C946 1.349 . S
C958 H952 0.950 . S
C958 C959 1.327 . S
C959 H953 0.950 . S
C959 C958 1.327 . S
C959 C963 1.429 . S
C960 C943 1.574 . S
C960 H954 0.949 . S
C960 C964 1.368 . S
C961 C942 1.429 . S
C961 C955 1.429 . S
C961 C962 1.523 . S
C962 C943 1.368 . S
C962 C956 1.368 . S
C962 C961 1.523 . S
C963 C947 1.429 . S
C963 C959 1.429 . S
C963 C964 1.523 . S
C964 C948 1.368 . S
C964 C960 1.368 . S
C964 C963 1.523 . S
H965 C940 0.950 . S
H966 C942 0.950 . S
H967 C943 0.949 . S
H968 C945 0.950 . S
H969 C947 0.950 . S
C970 C971 1.349 . S
C970 C972 1.327 . S
C970 H995 0.950 . S
C971 C970 1.349 . S
C971 C987 1.349 . S
C972 C970 1.327 . S
C972 C991 1.429 . S
C972 H996 0.950 . S
C973 C990 1.574 . S
C973 C992 1.368 . S
C973 H997 0.949 . S
H974 C978 0.949 . S
C975 C976 1.349 . S
C975 C977 1.327 . S
C975 H998 0.950 . S
C976 C975 1.349 . S
C976 C988 1.349 . S
C977 C975 1.327 . S
C977 C993 1.429 . S
C977 H999 0.950 . S
C978 H974 0.949 . S
C978 C986 1.574 . S
C978 C994 1.368 . S
H979 C987 0.950 . S
H980 C985 0.950 . S
H981 C986 0.949 . S
H982 C988 0.950 . S
H983 C989 0.950 . S
H984 C990 0.949 . S
C985 H980 0.950 . S
C985 C987 1.327 . S
C985 C991 1.429 . S
C986 C978 1.574 . S
C986 H981 0.949 . S
C986 C992 1.368 . S
C987 C971 1.349 . S
C987 H979 0.950 . S
C987 C985 1.327 . S
C988 C976 1.349 . S
C988 H982 0.950 . S
C988 C989 1.327 . S
C989 H983 0.950 . S
C989 C988 1.327 . S
C989 C993 1.429 . S
C990 C973 1.574 . S
C990 H984 0.949 . S
C990 C994 1.368 . S
C991 C972 1.429 . S
C991 C985 1.429 . S
C991 C992 1.523 . S
C992 C973 1.368 . S
C992 C986 1.368 . S
C992 C991 1.523 . S
C993 C977 1.429 . S
C993 C989 1.429 . S
C993 C994 1.523 . S
C994 C978 1.368 . S
C994 C990 1.368 . S
C994 C993 1.523 . S
H995 C970 0.950 . S
H996 C972 0.950 . S
H997 C973 0.949 . S
H998 C975 0.950 . S
H999 C977 0.950 . S
C1000 C1001 1.349 . S
C1000 C1002 1.327 . S
C1000 H1025 0.950 . S
C1001 C1000 1.349 . S
C1001 C1017 1.349 . S
C1002 C1000 1.327 . S
C1002 C1021 1.429 . S
C1002 H1026 0.950 . S
C1003 C1020 1.574 . S
C1003 C1022 1.368 . S
C1003 H1027 0.949 1_545 S
H1004 C1008 0.949 . S
C1005 C1006 1.349 . S
C1005 C1007 1.327 . S
C1005 H1028 0.950 . S
C1006 C1005 1.349 . S
C1006 C1018 1.349 . S
C1007 C1005 1.327 . S
C1007 C1023 1.429 . S
C1007 H1029 0.950 . S
C1008 H1004 0.949 . S
C1008 C1016 1.574 . S
C1008 C1024 1.368 . S
H1009 C1017 0.950 . S
H1010 C1015 0.950 . S
H1011 C1016 0.949 . S
H1012 C1018 0.950 . S
H1013 C1019 0.950 . S
H1014 C1020 0.949 . S
C1015 H1010 0.950 . S
C1015 C1017 1.327 . S
C1015 C1021 1.429 . S
C1016 C1008 1.574 . S
C1016 H1011 0.949 . S
C1016 C1022 1.368 . S
C1017 C1001 1.349 . S
C1017 H1009 0.950 . S
C1017 C1015 1.327 . S
C1018 C1006 1.349 . S
C1018 H1012 0.950 . S
C1018 C1019 1.327 . S
C1019 H1013 0.950 . S
C1019 C1018 1.327 . S
C1019 C1023 1.429 . S
C1020 C1003 1.574 . S
C1020 H1014 0.949 . S
C1020 C1024 1.368 . S
C1021 C1002 1.429 . S
C1021 C1015 1.429 . S
C1021 C1022 1.523 1_565 S
C1022 C1003 1.368 . S
C1022 C1016 1.368 . S
C1022 C1021 1.523 1_545 S
C1023 C1007 1.429 . S
C1023 C1019 1.429 . S
C1023 C1024 1.523 . S
C1024 C1008 1.368 . S
C1024 C1020 1.368 . S
C1024 C1023 1.523 . S
H1025 C1000 0.950 . S
H1026 C1002 0.950 . S
H1027 C1003 0.949 1_565 S
H1028 C1005 0.950 . S
H1029 C1007 0.950 . S
C1030 C1031 1.349 . S
C1030 C1032 1.327 . S
C1030 H1055 0.950 . S
C1031 C1030 1.349 . S
C1031 C1047 1.349 . S
C1032 C1030 1.327 . S
C1032 C1051 1.429 . S
C1032 H1056 0.950 . S
C1033 C1050 1.574 . S
C1033 C1052 1.368 . S
C1033 H1057 0.949 . S
H1034 C1038 0.949 . S
C1035 C1036 1.349 . S
C1035 C1037 1.327 . S
C1035 H1058 0.950 . S
C1036 C1035 1.349 . S
C1036 C1048 1.349 . S
C1037 C1035 1.327 . S
C1037 C1053 1.429 . S
C1037 H1059 0.950 . S
C1038 H1034 0.949 . S
C1038 C1046 1.574 . S
C1038 C1054 1.368 . S
H1039 C1047 0.950 . S
H1040 C1045 0.950 . S
H1041 C1046 0.949 . S
H1042 C1048 0.950 . S
H1043 C1049 0.950 . S
H1044 C1050 0.949 1_655 S
C1045 H1040 0.950 . S
C1045 C1047 1.327 . S
C1045 C1051 1.429 . S
C1046 C1038 1.574 . S
C1046 H1041 0.949 . S
C1046 C1052 1.368 . S
C1047 C1031 1.349 . S
C1047 H1039 0.950 . S
C1047 C1045 1.327 . S
C1048 C1036 1.349 . S
C1048 H1042 0.950 . S
C1048 C1049 1.327 . S
C1049 H1043 0.950 . S
C1049 C1048 1.327 . S
C1049 C1053 1.429 . S
C1050 C1033 1.574 . S
C1050 H1044 0.949 1_455 S
C1050 C1054 1.368 . S
C1051 C1032 1.429 . S
C1051 C1045 1.429 . S
C1051 C1052 1.523 . S
C1052 C1033 1.368 . S
C1052 C1046 1.368 . S
C1052 C1051 1.523 . S
C1053 C1037 1.429 . S
C1053 C1049 1.429 . S
C1053 C1054 1.523 1_655 S
C1054 C1038 1.368 . S
C1054 C1050 1.368 . S
C1054 C1053 1.523 1_455 S
H1055 C1030 0.950 . S
H1056 C1032 0.950 . S
H1057 C1033 0.949 . S
H1058 C1035 0.950 . S
H1059 C1037 0.950 . S
C1060 C1061 1.349 . S
C1060 C1062 1.327 . S
C1060 H1085 0.950 . S
C1061 C1060 1.349 . S
C1061 C1077 1.349 . S
C1062 C1060 1.327 . S
C1062 C1081 1.429 . S
C1062 H1086 0.950 . S
C1063 C1080 1.574 . S
C1063 C1082 1.368 . S
C1063 H1087 0.949 . S
H1064 C1068 0.949 1_545 S
C1065 C1066 1.349 . S
C1065 C1067 1.327 . S
C1065 H1088 0.950 . S
C1066 C1065 1.349 . S
C1066 C1078 1.349 . S
C1067 C1065 1.327 . S
C1067 C1083 1.429 . S
C1067 H1089 0.950 . S
C1068 H1064 0.949 1_565 S
C1068 C1076 1.574 . S
C1068 C1084 1.368 . S
H1069 C1077 0.950 . S
H1070 C1075 0.950 . S
H1071 C1076 0.949 . S
H1072 C1078 0.950 . S
H1073 C1079 0.950 . S
H1074 C1080 0.949 . S
C1075 H1070 0.950 . S
C1075 C1077 1.327 . S
C1075 C1081 1.429 . S
C1076 C1068 1.574 . S
C1076 H1071 0.949 . S
C1076 C1082 1.368 . S
C1077 C1061 1.349 . S
C1077 H1069 0.950 . S
C1077 C1075 1.327 . S
C1078 C1066 1.349 . S
C1078 H1072 0.950 . S
C1078 C1079 1.327 . S
C1079 H1073 0.950 . S
C1079 C1078 1.327 . S
C1079 C1083 1.429 . S
C1080 C1063 1.574 . S
C1080 H1074 0.949 . S
C1080 C1084 1.368 . S
C1081 C1062 1.429 . S
C1081 C1075 1.429 . S
C1081 C1082 1.523 . S
C1082 C1063 1.368 . S
C1082 C1076 1.368 . S
C1082 C1081 1.523 . S
C1083 C1067 1.429 . S
C1083 C1079 1.429 . S
C1083 C1084 1.523 1_545 S
C1084 C1068 1.368 . S
C1084 C1080 1.368 . S
C1084 C1083 1.523 1_565 S
H1085 C1060 0.950 . S
H1086 C1062 0.950 . S
H1087 C1063 0.949 . S
H1088 C1065 0.950 . S
H1089 C1067 0.950 . S
C1090 C1091 1.349 . S
C1090 C1092 1.327 . S
C1090 H1115 0.950 . S
C1091 C1090 1.349 . S
C1091 C1107 1.349 . S
C1092 C1090 1.327 . S
C1092 C1111 1.429 . S
C1092 H1116 0.950 . S
C1093 C1110 1.574 . S
C1093 C1112 1.368 . S
C1093 H1117 0.949 . S
H1094 C1098 0.949 . S
C1095 C1096 1.349 . S
C1095 C1097 1.327 . S
C1095 H1118 0.950 . S
C1096 C1095 1.349 . S
C1096 C1108 1.349 . S
C1097 C1095 1.327 . S
C1097 C1113 1.429 . S
C1097 H1119 0.950 . S
C1098 H1094 0.949 . S
C1098 C1106 1.574 . S
C1098 C1114 1.368 . S
H1099 C1107 0.950 . S
H1100 C1105 0.950 . S
H1101 C1106 0.949 1_455 S
H1102 C1108 0.950 . S
H1103 C1109 0.950 . S
H1104 C1110 0.949 . S
C1105 H1100 0.950 . S
C1105 C1107 1.327 . S
C1105 C1111 1.429 . S
C1106 C1098 1.574 . S
C1106 H1101 0.949 1_655 S
C1106 C1112 1.368 . S
C1107 C1091 1.349 . S
C1107 H1099 0.950 . S
C1107 C1105 1.327 . S
C1108 C1096 1.349 . S
C1108 H1102 0.950 . S
C1108 C1109 1.327 . S
C1109 H1103 0.950 . S
C1109 C1108 1.327 . S
C1109 C1113 1.429 . S
C1110 C1093 1.574 . S
C1110 H1104 0.949 . S
C1110 C1114 1.368 . S
C1111 C1092 1.429 . S
C1111 C1105 1.429 . S
C1111 C1112 1.523 1_455 S
C1112 C1093 1.368 . S
C1112 C1106 1.368 . S
C1112 C1111 1.523 1_655 S
C1113 C1097 1.429 . S
C1113 C1109 1.429 . S
C1113 C1114 1.523 . S
C1114 C1098 1.368 . S
C1114 C1110 1.368 . S
C1114 C1113 1.523 . S
H1115 C1090 0.950 . S
H1116 C1092 0.950 . S
H1117 C1093 0.949 . S
H1118 C1095 0.950 . S
H1119 C1097 0.950 . S
C1120 C1121 1.349 . S
C1120 C1122 1.327 . S
C1120 H1145 0.950 . S
C1121 C1120 1.349 . S
C1121 C1137 1.349 . S
C1122 C1120 1.327 . S
C1122 C1141 1.429 . S
C1122 H1146 0.950 . S
C1123 C1140 1.574 . S
C1123 C1142 1.368 . S
C1123 H1147 0.949 . S
H1124 C1128 0.949 . S
C1125 C1126 1.349 . S
C1125 C1127 1.327 . S
C1125 H1148 0.950 . S
C1126 C1125 1.349 . S
C1126 C1138 1.349 . S
C1127 C1125 1.327 . S
C1127 C1143 1.429 . S
C1127 H1149 0.950 . S
C1128 H1124 0.949 . S
C1128 C1136 1.574 . S
C1128 C1144 1.368 . S
H1129 C1137 0.950 . S
H1130 C1135 0.950 . S
H1131 C1136 0.949 . S
H1132 C1138 0.950 . S
H1133 C1139 0.950 . S
H1134 C1140 0.949 . S
C1135 H1130 0.950 . S
C1135 C1137 1.327 . S
C1135 C1141 1.429 . S
C1136 C1128 1.574 . S
C1136 H1131 0.949 . S
C1136 C1142 1.368 . S
C1137 C1121 1.349 . S
C1137 H1129 0.950 . S
C1137 C1135 1.327 . S
C1138 C1126 1.349 . S
C1138 H1132 0.950 . S
C1138 C1139 1.327 . S
C1139 H1133 0.950 . S
C1139 C1138 1.327 . S
C1139 C1143 1.429 . S
C1140 C1123 1.574 . S
C1140 H1134 0.949 . S
C1140 C1144 1.368 . S
C1141 C1122 1.429 . S
C1141 C1135 1.429 . S
C1141 C1142 1.523 . S
C1142 C1123 1.368 . S
C1142 C1136 1.368 . S
C1142 C1141 1.523 . S
C1143 C1127 1.429 . S
C1143 C1139 1.429 . S
C1143 C1144 1.523 . S
C1144 C1128 1.368 . S
C1144 C1140 1.368 . S
C1144 C1143 1.523 . S
H1145 C1120 0.950 . S
H1146 C1122 0.950 . S
H1147 C1123 0.949 . S
H1148 C1125 0.950 . S
H1149 C1127 0.950 . S
C1150 C1151 1.349 . S
C1150 C1152 1.327 . S
C1150 H1175 0.950 . S
C1151 C1150 1.349 . S
C1151 C1167 1.349 . S
C1152 C1150 1.327 . S
C1152 C1171 1.429 . S
C1152 H1176 0.950 . S
C1153 C1170 1.574 . S
C1153 C1172 1.368 . S
C1153 H1177 0.949 . S
H1154 C1158 0.949 . S
C1155 C1156 1.349 . S
C1155 C1157 1.327 . S
C1155 H1178 0.950 . S
C1156 C1155 1.349 . S
C1156 C1168 1.349 . S
C1157 C1155 1.327 . S
C1157 C1173 1.429 . S
C1157 H1179 0.950 . S
C1158 H1154 0.949 . S
C1158 C1166 1.574 . S
C1158 C1174 1.368 . S
H1159 C1167 0.950 . S
H1160 C1165 0.950 . S
H1161 C1166 0.949 . S
H1162 C1168 0.950 . S
H1163 C1169 0.950 . S
H1164 C1170 0.949 . S
C1165 H1160 0.950 . S
C1165 C1167 1.327 . S
C1165 C1171 1.429 . S
C1166 C1158 1.574 . S
C1166 H1161 0.949 . S
C1166 C1172 1.368 . S
C1167 C1151 1.349 . S
C1167 H1159 0.950 . S
C1167 C1165 1.327 . S
C1168 C1156 1.349 . S
C1168 H1162 0.950 . S
C1168 C1169 1.327 . S
C1169 H1163 0.950 . S
C1169 C1168 1.327 . S
C1169 C1173 1.429 . S
C1170 C1153 1.574 . S
C1170 H1164 0.949 . S
C1170 C1174 1.368 . S
C1171 C1152 1.429 . S
C1171 C1165 1.429 . S
C1171 C1172 1.523 . S
C1172 C1153 1.368 . S
C1172 C1166 1.368 . S
C1172 C1171 1.523 . S
C1173 C1157 1.429 . S
C1173 C1169 1.429 . S
C1173 C1174 1.523 . S
C1174 C1158 1.368 . S
C1174 C1170 1.368 . S
C1174 C1173 1.523 . S
H1175 C1150 0.950 . S
H1176 C1152 0.950 . S
H1177 C1153 0.949 . S
H1178 C1155 0.950 . S
H1179 C1157 0.950 . S
C1180 C1181 1.349 . S
C1180 C1182 1.327 . S
C1180 H1205 0.950 . S
C1181 C1180 1.349 . S
C1181 C1197 1.349 . S
C1182 C1180 1.327 . S
C1182 C1201 1.429 . S
C1182 H1206 0.950 . S
C1183 C1200 1.574 . S
C1183 C1202 1.368 . S
C1183 H1207 0.949 . S
H1184 C1188 0.949 . S
C1185 C1186 1.349 . S
C1185 C1187 1.327 . S
C1185 H1208 0.950 . S
C1186 C1185 1.349 . S
C1186 C1198 1.349 . S
C1187 C1185 1.327 . S
C1187 C1203 1.429 . S
C1187 H1209 0.950 . S
C1188 H1184 0.949 . S
C1188 C1196 1.574 . S
C1188 C1204 1.368 . S
H1189 C1197 0.950 . S
H1190 C1195 0.950 . S
H1191 C1196 0.949 . S
H1192 C1198 0.950 . S
H1193 C1199 0.950 . S
H1194 C1200 0.949 . S
C1195 H1190 0.950 . S
C1195 C1197 1.327 . S
C1195 C1201 1.429 . S
C1196 C1188 1.574 . S
C1196 H1191 0.949 . S
C1196 C1202 1.368 . S
C1197 C1181 1.349 . S
C1197 H1189 0.950 . S
C1197 C1195 1.327 . S
C1198 C1186 1.349 . S
C1198 H1192 0.950 . S
C1198 C1199 1.327 . S
C1199 H1193 0.950 . S
C1199 C1198 1.327 . S
C1199 C1203 1.429 . S
C1200 C1183 1.574 . S
C1200 H1194 0.949 . S
C1200 C1204 1.368 . S
C1201 C1182 1.429 . S
C1201 C1195 1.429 . S
C1201 C1202 1.523 . S
C1202 C1183 1.368 . S
C1202 C1196 1.368 . S
C1202 C1201 1.523 . S
C1203 C1187 1.429 . S
C1203 C1199 1.429 . S
C1203 C1204 1.523 . S
C1204 C1188 1.368 . S
C1204 C1200 1.368 . S
C1204 C1203 1.523 . S
H1205 C1180 0.950 . S
H1206 C1182 0.950 . S
H1207 C1183 0.949 . S
H1208 C1185 0.950 . S
H1209 C1187 0.950 . S
C1210 C1211 1.349 . S
C1210 C1212 1.327 . S
C1210 H1235 0.950 . S
C1211 C1210 1.349 . S
C1211 C1227 1.349 . S
C1212 C1210 1.327 . S
C1212 C1231 1.429 . S
C1212 H1236 0.950 . S
C1213 C1230 1.574 . S
C1213 C1232 1.368 . S
C1213 H1237 0.949 . S
H1214 C1218 0.949 . S
C1215 C1216 1.349 . S
C1215 C1217 1.327 . S
C1215 H1238 0.950 . S
C1216 C1215 1.349 . S
C1216 C1228 1.349 . S
C1217 C1215 1.327 . S
C1217 C1233 1.429 . S
C1217 H1239 0.950 . S
C1218 H1214 0.949 . S
C1218 C1226 1.574 . S
C1218 C1234 1.368 . S
H1219 C1227 0.950 . S
H1220 C1225 0.950 . S
H1221 C1226 0.949 . S
H1222 C1228 0.950 . S
H1223 C1229 0.950 . S
H1224 C1230 0.949 . S
C1225 H1220 0.950 . S
C1225 C1227 1.327 . S
C1225 C1231 1.429 . S
C1226 C1218 1.574 . S
C1226 H1221 0.949 . S
C1226 C1232 1.368 . S
C1227 C1211 1.349 . S
C1227 H1219 0.950 . S
C1227 C1225 1.327 . S
C1228 C1216 1.349 . S
C1228 H1222 0.950 . S
C1228 C1229 1.327 . S
C1229 H1223 0.950 . S
C1229 C1228 1.327 . S
C1229 C1233 1.429 . S
C1230 C1213 1.574 . S
C1230 H1224 0.949 . S
C1230 C1234 1.368 . S
C1231 C1212 1.429 . S
C1231 C1225 1.429 . S
C1231 C1232 1.523 . S
C1232 C1213 1.368 . S
C1232 C1226 1.368 . S
C1232 C1231 1.523 . S
C1233 C1217 1.429 . S
C1233 C1229 1.429 . S
C1233 C1234 1.523 . S
C1234 C1218 1.368 . S
C1234 C1230 1.368 . S
C1234 C1233 1.523 . S
H1235 C1210 0.950 . S
H1236 C1212 0.950 . S
H1237 C1213 0.949 . S
H1238 C1215 0.950 . S
H1239 C1217 0.950 . S
C1240 C1241 1.349 . S
C1240 C1242 1.327 . S
C1240 H1265 0.950 . S
C1241 C1240 1.349 . S
C1241 C1257 1.349 . S
C1242 C1240 1.327 . S
C1242 C1261 1.429 . S
C1242 H1266 0.950 . S
C1243 C1260 1.574 . S
C1243 C1262 1.368 . S
C1243 H1267 0.949 . S
H1244 C1248 0.949 . S
C1245 C1246 1.349 . S
C1245 C1247 1.327 . S
C1245 H1268 0.950 . S
C1246 C1245 1.349 . S
C1246 C1258 1.349 . S
C1247 C1245 1.327 . S
C1247 C1263 1.429 . S
C1247 H1269 0.950 . S
C1248 H1244 0.949 . S
C1248 C1256 1.574 . S
C1248 C1264 1.368 . S
H1249 C1257 0.950 . S
H1250 C1255 0.950 . S
H1251 C1256 0.949 . S
H1252 C1258 0.950 . S
H1253 C1259 0.950 . S
H1254 C1260 0.949 . S
C1255 H1250 0.950 . S
C1255 C1257 1.327 . S
C1255 C1261 1.429 . S
C1256 C1248 1.574 . S
C1256 H1251 0.949 . S
C1256 C1262 1.368 . S
C1257 C1241 1.349 . S
C1257 H1249 0.950 . S
C1257 C1255 1.327 . S
C1258 C1246 1.349 . S
C1258 H1252 0.950 . S
C1258 C1259 1.327 . S
C1259 H1253 0.950 . S
C1259 C1258 1.327 . S
C1259 C1263 1.429 . S
C1260 C1243 1.574 . S
C1260 H1254 0.949 . S
C1260 C1264 1.368 . S
C1261 C1242 1.429 . S
C1261 C1255 1.429 . S
C1261 C1262 1.523 . S
C1262 C1243 1.368 . S
C1262 C1256 1.368 . S
C1262 C1261 1.523 . S
C1263 C1247 1.429 . S
C1263 C1259 1.429 . S
C1263 C1264 1.523 . S
C1264 C1248 1.368 . S
C1264 C1260 1.368 . S
C1264 C1263 1.523 . S
H1265 C1240 0.950 . S
H1266 C1242 0.950 . S
H1267 C1243 0.949 . S
H1268 C1245 0.950 . S
H1269 C1247 0.950 . S
C1270 C1271 1.349 . S
C1270 C1272 1.327 . S
C1270 H1295 0.950 . S
C1271 C1270 1.349 . S
C1271 C1287 1.349 . S
C1272 C1270 1.327 . S
C1272 C1291 1.429 . S
C1272 H1296 0.950 . S
C1273 C1290 1.574 . S
C1273 C1292 1.368 . S
C1273 H1297 0.949 . S
H1274 C1278 0.949 . S
C1275 C1276 1.349 . S
C1275 C1277 1.327 . S
C1275 H1298 0.950 . S
C1276 C1275 1.349 . S
C1276 C1288 1.349 . S
C1277 C1275 1.327 . S
C1277 C1293 1.429 . S
C1277 H1299 0.950 . S
C1278 H1274 0.949 . S
C1278 C1286 1.574 . S
C1278 C1294 1.368 . S
H1279 C1287 0.950 . S
H1280 C1285 0.950 . S
H1281 C1286 0.949 . S
H1282 C1288 0.950 . S
H1283 C1289 0.950 . S
H1284 C1290 0.949 . S
C1285 H1280 0.950 . S
C1285 C1287 1.327 . S
C1285 C1291 1.429 . S
C1286 C1278 1.574 . S
C1286 H1281 0.949 . S
C1286 C1292 1.368 . S
C1287 C1271 1.349 . S
C1287 H1279 0.950 . S
C1287 C1285 1.327 . S
C1288 C1276 1.349 . S
C1288 H1282 0.950 . S
C1288 C1289 1.327 . S
C1289 H1283 0.950 . S
C1289 C1288 1.327 . S
C1289 C1293 1.429 . S
C1290 C1273 1.574 . S
C1290 H1284 0.949 . S
C1290 C1294 1.368 . S
C1291 C1272 1.429 . S
C1291 C1285 1.429 . S
C1291 C1292 1.523 . S
C1292 C1273 1.368 . S
C1292 C1286 1.368 . S
C1292 C1291 1.523 . S
C1293 C1277 1.429 . S
C1293 C1289 1.429 . S
C1293 C1294 1.523 . S
C1294 C1278 1.368 . S
C1294 C1290 1.368 . S
C1294 C1293 1.523 . S
H1295 C1270 0.950 . S
H1296 C1272 0.950 . S
H1297 C1273 0.949 . S
H1298 C1275 0.950 . S
H1299 C1277 0.950 . S
C1300 C1301 1.349 . S
C1300 C1302 1.327 . S
C1300 H1325 0.950 . S
C1301 C1300 1.349 . S
C1301 C1317 1.349 . S
C1302 C1300 1.327 . S
C1302 C1321 1.429 . S
C1302 H1326 0.950 . S
C1303 C1320 1.574 . S
C1303 C1322 1.368 . S
C1303 H1327 0.949 . S
H1304 C1308 0.949 . S
C1305 C1306 1.349 . S
C1305 C1307 1.327 . S
C1305 H1328 0.950 . S
C1306 C1305 1.349 . S
C1306 C1318 1.349 . S
C1307 C1305 1.327 . S
C1307 C1323 1.429 . S
C1307 H1329 0.950 . S
C1308 H1304 0.949 . S
C1308 C1316 1.574 . S
C1308 C1324 1.368 . S
H1309 C1317 0.950 . S
H1310 C1315 0.950 . S
H1311 C1316 0.949 . S
H1312 C1318 0.950 . S
H1313 C1319 0.950 . S
H1314 C1320 0.949 . S
C1315 H1310 0.950 . S
C1315 C1317 1.327 . S
C1315 C1321 1.429 . S
C1316 C1308 1.574 . S
C1316 H1311 0.949 . S
C1316 C1322 1.368 . S
C1317 C1301 1.349 . S
C1317 H1309 0.950 . S
C1317 C1315 1.327 . S
C1318 C1306 1.349 . S
C1318 H1312 0.950 . S
C1318 C1319 1.327 . S
C1319 H1313 0.950 . S
C1319 C1318 1.327 . S
C1319 C1323 1.429 . S
C1320 C1303 1.574 . S
C1320 H1314 0.949 . S
C1320 C1324 1.368 . S
C1321 C1302 1.429 . S
C1321 C1315 1.429 . S
C1321 C1322 1.523 . S
C1322 C1303 1.368 . S
C1322 C1316 1.368 . S
C1322 C1321 1.523 . S
C1323 C1307 1.429 . S
C1323 C1319 1.429 . S
C1323 C1324 1.523 . S
C1324 C1308 1.368 . S
C1324 C1320 1.368 . S
C1324 C1323 1.523 . S
H1325 C1300 0.950 . S
H1326 C1302 0.950 . S
H1327 C1303 0.949 . S
H1328 C1305 0.950 . S
H1329 C1307 0.950 . S
C1330 C1331 1.349 . S
C1330 C1332 1.327 . S
C1330 H1355 0.950 . S
C1331 C1330 1.349 . S
C1331 C1347 1.349 . S
C1332 C1330 1.327 . S
C1332 C1351 1.429 . S
C1332 H1356 0.950 . S
C1333 C1350 1.574 . S
C1333 C1352 1.368 . S
C1333 H1357 0.949 . S
H1334 C1338 0.949 . S
C1335 C1336 1.349 . S
C1335 C1337 1.327 . S
C1335 H1358 0.950 . S
C1336 C1335 1.349 . S
C1336 C1348 1.349 . S
C1337 C1335 1.327 . S
C1337 C1353 1.429 . S
C1337 H1359 0.950 . S
C1338 H1334 0.949 . S
C1338 C1346 1.574 . S
C1338 C1354 1.368 . S
H1339 C1347 0.950 . S
H1340 C1345 0.950 . S
H1341 C1346 0.949 . S
H1342 C1348 0.950 . S
H1343 C1349 0.950 . S
H1344 C1350 0.949 . S
C1345 H1340 0.950 . S
C1345 C1347 1.327 . S
C1345 C1351 1.429 . S
C1346 C1338 1.574 . S
C1346 H1341 0.949 . S
C1346 C1352 1.368 . S
C1347 C1331 1.349 . S
C1347 H1339 0.950 . S
C1347 C1345 1.327 . S
C1348 C1336 1.349 . S
C1348 H1342 0.950 . S
C1348 C1349 1.327 . S
C1349 H1343 0.950 . S
C1349 C1348 1.327 . S
C1349 C1353 1.429 . S
C1350 C1333 1.574 . S
C1350 H1344 0.949 . S
C1350 C1354 1.368 . S
C1351 C1332 1.429 . S
C1351 C1345 1.429 . S
C1351 C1352 1.523 . S
C1352 C1333 1.368 . S
C1352 C1346 1.368 . S
C1352 C1351 1.523 . S
C1353 C1337 1.429 . S
C1353 C1349 1.429 . S
C1353 C1354 1.523 . S
C1354 C1338 1.368 . S
C1354 C1350 1.368 . S
C1354 C1353 1.523 . S
H1355 C1330 0.950 . S
H1356 C1332 0.950 . S
H1357 C1333 0.949 . S
H1358 C1335 0.950 . S
H1359 C1337 0.950 . S
C1360 C1361 1.349 . S
C1360 C1362 1.327 . S
C1360 H1385 0.950 . S
C1361 C1360 1.349 . S
C1361 C1377 1.349 . S
C1362 C1360 1.327 . S
C1362 C1381 1.429 . S
C1362 H1386 0.950 . S
C1363 C1380 1.574 . S
C1363 C1382 1.368 . S
C1363 H1387 0.949 . S
H1364 C1368 0.949 . S
C1365 C1366 1.349 1_556 S
C1365 C1367 1.327 . S
C1365 H1388 0.950 . S
C1366 C1365 1.349 1_554 S
C1366 C1378 1.349 . S
C1367 C1365 1.327 . S
C1367 C1383 1.429 . S
C1367 H1389 0.950 . S
C1368 H1364 0.949 . S
C1368 C1376 1.574 . S
C1368 C1384 1.368 . S
H1369 C1377 0.950 . S
H1370 C1375 0.950 . S
H1371 C1376 0.949 . S
H1372 C1378 0.950 . S
H1373 C1379 0.950 . S
H1374 C1380 0.949 . S
C1375 H1370 0.950 . S
C1375 C1377 1.327 . S
C1375 C1381 1.429 . S
C1376 C1368 1.574 . S
C1376 H1371 0.949 . S
C1376 C1382 1.368 . S
C1377 C1361 1.349 . S
C1377 H1369 0.950 . S
C1377 C1375 1.327 . S
C1378 C1366 1.349 . S
C1378 H1372 0.950 . S
C1378 C1379 1.327 1_554 S
C1379 H1373 0.950 . S
C1379 C1378 1.327 1_556 S
C1379 C1383 1.429 . S
C1380 C1363 1.574 . S
C1380 H1374 0.949 . S
C1380 C1384 1.368 . S
C1381 C1362 1.429 . S
C1381 C1375 1.429 . S
C1381 C1382 1.523 . S
C1382 C1363 1.368 . S
C1382 C1376 1.368 . S
C1382 C1381 1.523 . S
C1383 C1367 1.429 . S
C1383 C1379 1.429 . S
C1383 C1384 1.523 . S
C1384 C1368 1.368 . S
C1384 C1380 1.368 . S
C1384 C1383 1.523 . S
H1385 C1360 0.950 . S
H1386 C1362 0.950 . S
H1387 C1363 0.949 . S
H1388 C1365 0.950 . S
H1389 C1367 0.950 . S
C1390 C1391 1.349 . S
C1390 C1392 1.327 1_556 S
C1390 H1415 0.950 . S
C1391 C1390 1.349 . S
C1391 C1407 1.349 1_556 S
C1392 C1390 1.327 1_554 S
C1392 C1411 1.429 . S
C1392 H1416 0.950 . S
C1393 C1410 1.574 . S
C1393 C1412 1.368 . S
C1393 H1417 0.949 . S
H1394 C1398 0.949 . S
C1395 C1396 1.349 . S
C1395 C1397 1.327 . S
C1395 H1418 0.950 . S
C1396 C1395 1.349 . S
C1396 C1408 1.349 . S
C1397 C1395 1.327 . S
C1397 C1413 1.429 . S
C1397 H1419 0.950 . S
C1398 H1394 0.949 . S
C1398 C1406 1.574 . S
C1398 C1414 1.368 . S
H1399 C1407 0.950 . S
H1400 C1405 0.950 . S
H1401 C1406 0.949 . S
H1402 C1408 0.950 . S
H1403 C1409 0.950 . S
H1404 C1410 0.949 . S
C1405 H1400 0.950 . S
C1405 C1407 1.327 . S
C1405 C1411 1.429 . S
C1406 C1398 1.574 . S
C1406 H1401 0.949 . S
C1406 C1412 1.368 . S
C1407 C1391 1.349 1_554 S
C1407 H1399 0.950 . S
C1407 C1405 1.327 . S
C1408 C1396 1.349 . S
C1408 H1402 0.950 . S
C1408 C1409 1.327 . S
C1409 H1403 0.950 . S
C1409 C1408 1.327 . S
C1409 C1413 1.429 . S
C1410 C1393 1.574 . S
C1410 H1404 0.949 . S
C1410 C1414 1.368 . S
C1411 C1392 1.429 . S
C1411 C1405 1.429 . S
C1411 C1412 1.523 . S
C1412 C1393 1.368 . S
C1412 C1406 1.368 . S
C1412 C1411 1.523 . S
C1413 C1397 1.429 . S
C1413 C1409 1.429 . S
C1413 C1414 1.523 . S
C1414 C1398 1.368 . S
C1414 C1410 1.368 . S
C1414 C1413 1.523 . S
H1415 C1390 0.950 . S
H1416 C1392 0.950 . S
H1417 C1393 0.949 . S
H1418 C1395 0.950 . S
H1419 C1397 0.950 . S
C1420 C1421 1.349 1_556 S
C1420 C1422 1.327 . S
C1420 H1445 0.950 . S
C1421 C1420 1.349 1_554 S
C1421 C1437 1.349 . S
C1422 C1420 1.327 . S
C1422 C1441 1.429 . S
C1422 H1446 0.950 . S
C1423 C1440 1.574 . S
C1423 C1442 1.368 . S
C1423 H1447 0.949 . S
H1424 C1428 0.949 . S
C1425 C1426 1.349 . S
C1425 C1427 1.327 . S
C1425 H1448 0.950 . S
C1426 C1425 1.349 . S
C1426 C1438 1.349 . S
C1427 C1425 1.327 . S
C1427 C1443 1.429 . S
C1427 H1449 0.950 . S
C1428 H1424 0.949 . S
C1428 C1436 1.574 . S
C1428 C1444 1.368 . S
H1429 C1437 0.950 . S
H1430 C1435 0.950 . S
H1431 C1436 0.949 . S
H1432 C1438 0.950 . S
H1433 C1439 0.950 . S
H1434 C1440 0.949 . S
C1435 H1430 0.950 . S
C1435 C1437 1.327 1_556 S
C1435 C1441 1.429 . S
C1436 C1428 1.574 . S
C1436 H1431 0.949 . S
C1436 C1442 1.368 . S
C1437 C1421 1.349 . S
C1437 H1429 0.950 . S
C1437 C1435 1.327 1_554 S
C1438 C1426 1.349 . S
C1438 H1432 0.950 . S
C1438 C1439 1.327 . S
C1439 H1433 0.950 . S
C1439 C1438 1.327 . S
C1439 C1443 1.429 . S
C1440 C1423 1.574 . S
C1440 H1434 0.949 . S
C1440 C1444 1.368 . S
C1441 C1422 1.429 . S
C1441 C1435 1.429 . S
C1441 C1442 1.523 . S
C1442 C1423 1.368 . S
C1442 C1436 1.368 . S
C1442 C1441 1.523 . S
C1443 C1427 1.429 . S
C1443 C1439 1.429 . S
C1443 C1444 1.523 . S
C1444 C1428 1.368 . S
C1444 C1440 1.368 . S
C1444 C1443 1.523 . S
H1445 C1420 0.950 . S
H1446 C1422 0.950 . S
H1447 C1423 0.949 . S
H1448 C1425 0.950 . S
H1449 C1427 0.950 . S
C1450 C1451 1.349 . S
C1450 C1452 1.327 1_556 S
C1450 H1475 0.950 . S
C1451 C1450 1.349 . S
C1451 C1467 1.349 1_556 S
C1452 C1450 1.327 1_554 S
C1452 C1471 1.429 . S
C1452 H1476 0.950 . S
C1453 C1470 1.574 . S
C1453 C1472 1.368 . S
C1453 H1477 0.949 . S
H1454 C1458 0.949 . S
C1455 C1456 1.349 . S
C1455 C1457 1.327 . S
C1455 H1478 0.950 . S
C1456 C1455 1.349 . S
C1456 C1468 1.349 . S
C1457 C1455 1.327 . S
C1457 C1473 1.429 . S
C1457 H1479 0.950 . S
C1458 H1454 0.949 . S
C1458 C1466 1.574 . S
C1458 C1474 1.368 . S
H1459 C1467 0.950 . S
H1460 C1465 0.950 . S
H1461 C1466 0.949 . S
H1462 C1468 0.950 . S
H1463 C1469 0.950 . S
H1464 C1470 0.949 . S
C1465 H1460 0.950 . S
C1465 C1467 1.327 . S
C1465 C1471 1.429 . S
C1466 C1458 1.574 . S
C1466 H1461 0.949 . S
C1466 C1472 1.368 . S
C1467 C1451 1.349 1_554 S
C1467 H1459 0.950 . S
C1467 C1465 1.327 . S
C1468 C1456 1.349 . S
C1468 H1462 0.950 . S
C1468 C1469 1.327 . S
C1469 H1463 0.950 . S
C1469 C1468 1.327 . S
C1469 C1473 1.429 . S
C1470 C1453 1.574 . S
C1470 H1464 0.949 . S
C1470 C1474 1.368 . S
C1471 C1452 1.429 . S
C1471 C1465 1.429 . S
C1471 C1472 1.523 . S
C1472 C1453 1.368 . S
C1472 C1466 1.368 . S
C1472 C1471 1.523 . S
C1473 C1457 1.429 . S
C1473 C1469 1.429 . S
C1473 C1474 1.523 . S
C1474 C1458 1.368 . S
C1474 C1470 1.368 . S
C1474 C1473 1.523 . S
H1475 C1450 0.950 . S
H1476 C1452 0.950 . S
H1477 C1453 0.949 . S
H1478 C1455 0.950 . S
H1479 C1457 0.950 . S
C1480 C1481 1.349 . S
C1480 C1482 1.327 . S
C1480 H1505 0.950 . S
C1481 C1480 1.349 . S
C1481 C1497 1.349 . S
C1482 C1480 1.327 . S
C1482 C1501 1.429 . S
C1482 H1506 0.950 . S
C1483 C1500 1.574 . S
C1483 C1502 1.368 . S
C1483 H1507 0.949 . S
H1484 C1488 0.949 . S
C1485 C1486 1.349 . S
C1485 C1487 1.327 . S
C1485 H1508 0.950 . S
C1486 C1485 1.349 . S
C1486 C1498 1.349 . S
C1487 C1485 1.327 . S
C1487 C1503 1.429 . S
C1487 H1509 0.950 . S
C1488 H1484 0.949 . S
C1488 C1496 1.574 . S
C1488 C1504 1.368 . S
H1489 C1497 0.950 . S
H1490 C1495 0.950 . S
H1491 C1496 0.949 . S
H1492 C1498 0.950 . S
H1493 C1499 0.950 . S
H1494 C1500 0.949 . S
C1495 H1490 0.950 . S
C1495 C1497 1.327 . S
C1495 C1501 1.429 . S
C1496 C1488 1.574 . S
C1496 H1491 0.949 . S
C1496 C1502 1.368 . S
C1497 C1481 1.349 . S
C1497 H1489 0.950 . S
C1497 C1495 1.327 . S
C1498 C1486 1.349 . S
C1498 H1492 0.950 . S
C1498 C1499 1.327 . S
C1499 H1493 0.950 . S
C1499 C1498 1.327 . S
C1499 C1503 1.429 . S
C1500 C1483 1.574 . S
C1500 H1494 0.949 . S
C1500 C1504 1.368 . S
C1501 C1482 1.429 . S
C1501 C1495 1.429 . S
C1501 C1502 1.523 . S
C1502 C1483 1.368 . S
C1502 C1496 1.368 . S
C1502 C1501 1.523 . S
C1503 C1487 1.429 . S
C1503 C1499 1.429 . S
C1503 C1504 1.523 . S
C1504 C1488 1.368 . S
C1504 C1500 1.368 . S
C1504 C1503 1.523 . S
H1505 C1480 0.950 . S
H1506 C1482 0.950 . S
H1507 C1483 0.949 . S
H1508 C1485 0.950 . S
H1509 C1487 0.950 . S
C1510 C1511 1.349 . S
C1510 C1512 1.327 . S
C1510 H1535 0.950 . S
C1511 C1510 1.349 . S
C1511 C1527 1.349 . S
C1512 C1510 1.327 . S
C1512 C1531 1.429 . S
C1512 H1536 0.950 . S
C1513 C1530 1.574 . S
C1513 C1532 1.368 . S
C1513 H1537 0.949 . S
H1514 C1518 0.949 . S
C1515 C1516 1.349 . S
C1515 C1517 1.327 . S
C1515 H1538 0.950 . S
C1516 C1515 1.349 . S
C1516 C1528 1.349 . S
C1517 C1515 1.327 . S
C1517 C1533 1.429 . S
C1517 H1539 0.950 . S
C1518 H1514 0.949 . S
C1518 C1526 1.574 . S
C1518 C1534 1.368 . S
H1519 C1527 0.950 . S
H1520 C1525 0.950 . S
H1521 C1526 0.949 . S
H1522 C1528 0.950 . S
H1523 C1529 0.950 . S
H1524 C1530 0.949 . S
C1525 H1520 0.950 . S
C1525 C1527 1.327 . S
C1525 C1531 1.429 . S
C1526 C1518 1.574 . S
C1526 H1521 0.949 . S
C1526 C1532 1.368 . S
C1527 C1511 1.349 . S
C1527 H1519 0.950 . S
C1527 C1525 1.327 . S
C1528 C1516 1.349 . S
C1528 H1522 0.950 . S
C1528 C1529 1.327 . S
C1529 H1523 0.950 . S
C1529 C1528 1.327 . S
C1529 C1533 1.429 . S
C1530 C1513 1.574 . S
C1530 H1524 0.949 . S
C1530 C1534 1.368 . S
C1531 C1512 1.429 . S
C1531 C1525 1.429 . S
C1531 C1532 1.523 . S
C1532 C1513 1.368 . S
C1532 C1526 1.368 . S
C1532 C1531 1.523 . S
C1533 C1517 1.429 . S
C1533 C1529 1.429 . S
C1533 C1534 1.523 . S
C1534 C1518 1.368 . S
C1534 C1530 1.368 . S
C1534 C1533 1.523 . S
H1535 C1510 0.950 . S
H1536 C1512 0.950 . S
H1537 C1513 0.949 . S
H1538 C1515 0.950 . S
H1539 C1517 0.950 . S
C1540 C1541 1.349 . S
C1540 C1542 1.327 . S
C1540 H1565 0.950 . S
C1541 C1540 1.349 . S
C1541 C1557 1.349 . S
C1542 C1540 1.327 . S
C1542 C1561 1.429 . S
C1542 H1566 0.950 . S
C1543 C1560 1.574 . S
C1543 C1562 1.368 . S
C1543 H1567 0.949 . S
H1544 C1548 0.949 . S
C1545 C1546 1.349 . S
C1545 C1547 1.327 . S
C1545 H1568 0.950 . S
C1546 C1545 1.349 . S
C1546 C1558 1.349 . S
C1547 C1545 1.327 . S
C1547 C1563 1.429 . S
C1547 H1569 0.950 . S
C1548 H1544 0.949 . S
C1548 C1556 1.574 . S
C1548 C1564 1.368 . S
H1549 C1557 0.950 . S
H1550 C1555 0.950 . S
H1551 C1556 0.949 . S
H1552 C1558 0.950 . S
H1553 C1559 0.950 . S
H1554 C1560 0.949 . S
C1555 H1550 0.950 . S
C1555 C1557 1.327 . S
C1555 C1561 1.429 . S
C1556 C1548 1.574 . S
C1556 H1551 0.949 . S
C1556 C1562 1.368 . S
C1557 C1541 1.349 . S
C1557 H1549 0.950 . S
C1557 C1555 1.327 . S
C1558 C1546 1.349 . S
C1558 H1552 0.950 . S
C1558 C1559 1.327 . S
C1559 H1553 0.950 . S
C1559 C1558 1.327 . S
C1559 C1563 1.429 . S
C1560 C1543 1.574 . S
C1560 H1554 0.949 . S
C1560 C1564 1.368 . S
C1561 C1542 1.429 . S
C1561 C1555 1.429 . S
C1561 C1562 1.523 . S
C1562 C1543 1.368 . S
C1562 C1556 1.368 . S
C1562 C1561 1.523 . S
C1563 C1547 1.429 . S
C1563 C1559 1.429 . S
C1563 C1564 1.523 . S
C1564 C1548 1.368 . S
C1564 C1560 1.368 . S
C1564 C1563 1.523 . S
H1565 C1540 0.950 . S
H1566 C1542 0.950 . S
H1567 C1543 0.949 . S
H1568 C1545 0.950 . S
H1569 C1547 0.950 . S
C1570 C1571 1.349 . S
C1570 C1572 1.327 . S
C1570 H1595 0.950 . S
C1571 C1570 1.349 . S
C1571 C1587 1.349 . S
C1572 C1570 1.327 . S
C1572 C1591 1.429 . S
C1572 H1596 0.950 . S
C1573 C1590 1.574 . S
C1573 C1592 1.368 . S
C1573 H1597 0.949 . S
H1574 C1578 0.949 . S
C1575 C1576 1.349 . S
C1575 C1577 1.327 . S
C1575 H1598 0.950 . S
C1576 C1575 1.349 . S
C1576 C1588 1.349 . S
C1577 C1575 1.327 . S
C1577 C1593 1.429 . S
C1577 H1599 0.950 . S
C1578 H1574 0.949 . S
C1578 C1586 1.574 . S
C1578 C1594 1.368 . S
H1579 C1587 0.950 . S
H1580 C1585 0.950 . S
H1581 C1586 0.949 . S
H1582 C1588 0.950 . S
H1583 C1589 0.950 . S
H1584 C1590 0.949 . S
C1585 H1580 0.950 . S
C1585 C1587 1.327 . S
C1585 C1591 1.429 . S
C1586 C1578 1.574 . S
C1586 H1581 0.949 . S
C1586 C1592 1.368 . S
C1587 C1571 1.349 . S
C1587 H1579 0.950 . S
C1587 C1585 1.327 . S
C1588 C1576 1.349 . S
C1588 H1582 0.950 . S
C1588 C1589 1.327 . S
C1589 H1583 0.950 . S
C1589 C1588 1.327 . S
C1589 C1593 1.429 . S
C1590 C1573 1.574 . S
C1590 H1584 0.949 . S
C1590 C1594 1.368 . S
C1591 C1572 1.429 . S
C1591 C1585 1.429 . S
C1591 C1592 1.523 . S
C1592 C1573 1.368 . S
C1592 C1586 1.368 . S
C1592 C1591 1.523 . S
C1593 C1577 1.429 . S
C1593 C1589 1.429 . S
C1593 C1594 1.523 . S
C1594 C1578 1.368 . S
C1594 C1590 1.368 . S
C1594 C1593 1.523 . S
H1595 C1570 0.950 . S
H1596 C1572 0.950 . S
H1597 C1573 0.949 . S
H1598 C1575 0.950 . S
H1599 C1577 0.950 . S
C1600 C1601 1.349 . S
C1600 C1602 1.327 . S
C1600 H1625 0.950 . S
C1601 C1600 1.349 . S
C1601 C1617 1.349 . S
C1602 C1600 1.327 . S
C1602 C1621 1.429 . S
C1602 H1626 0.950 . S
C1603 C1620 1.574 . S
C1603 C1622 1.368 . S
C1603 H1627 0.949 . S
H1604 C1608 0.949 . S
C1605 C1606 1.349 . S
C1605 C1607 1.327 . S
C1605 H1628 0.950 . S
C1606 C1605 1.349 . S
C1606 C1618 1.349 . S
C1607 C1605 1.327 . S
C1607 C1623 1.429 . S
C1607 H1629 0.950 . S
C1608 H1604 0.949 . S
C1608 C1616 1.574 . S
C1608 C1624 1.368 . S
H1609 C1617 0.950 . S
H1610 C1615 0.950 . S
H1611 C1616 0.949 . S
H1612 C1618 0.950 . S
H1613 C1619 0.950 . S
H1614 C1620 0.949 . S
C1615 H1610 0.950 . S
C1615 C1617 1.327 . S
C1615 C1621 1.429 . S
C1616 C1608 1.574 . S
C1616 H1611 0.949 . S
C1616 C1622 1.368 . S
C1617 C1601 1.349 . S
C1617 H1609 0.950 . S
C1617 C1615 1.327 . S
C1618 C1606 1.349 . S
C1618 H1612 0.950 . S
C1618 C1619 1.327 . S
C1619 H1613 0.950 . S
C1619 C1618 1.327 . S
C1619 C1623 1.429 . S
C1620 C1603 1.574 . S
C1620 H1614 0.949 . S
C1620 C1624 1.368 . S
C1621 C1602 1.429 . S
C1621 C1615 1.429 . S
C1621 C1622 1.523 . S
C1622 C1603 1.368 . S
C1622 C1616 1.368 . S
C1622 C1621 1.523 . S
C1623 C1607 1.429 . S
C1623 C1619 1.429 . S
C1623 C1624 1.523 . S
C1624 C1608 1.368 . S
C1624 C1620 1.368 . S
C1624 C1623 1.523 . S
H1625 C1600 0.950 . S
H1626 C1602 0.950 . S
H1627 C1603 0.949 . S
H1628 C1605 0.950 . S
H1629 C1607 0.950 . S
C1630 C1631 1.349 . S
C1630 C1632 1.327 . S
C1630 H1655 0.950 . S
C1631 C1630 1.349 . S
C1631 C1647 1.349 . S
C1632 C1630 1.327 . S
C1632 C1651 1.429 . S
C1632 H1656 0.950 . S
C1633 C1650 1.574 . S
C1633 C1652 1.368 . S
C1633 H1657 0.949 . S
H1634 C1638 0.949 . S
C1635 C1636 1.349 . S
C1635 C1637 1.327 . S
C1635 H1658 0.950 . S
C1636 C1635 1.349 . S
C1636 C1648 1.349 . S
C1637 C1635 1.327 . S
C1637 C1653 1.429 . S
C1637 H1659 0.950 . S
C1638 H1634 0.949 . S
C1638 C1646 1.574 . S
C1638 C1654 1.368 . S
H1639 C1647 0.950 . S
H1640 C1645 0.950 . S
H1641 C1646 0.949 . S
H1642 C1648 0.950 . S
H1643 C1649 0.950 . S
H1644 C1650 0.949 . S
C1645 H1640 0.950 . S
C1645 C1647 1.327 . S
C1645 C1651 1.429 . S
C1646 C1638 1.574 . S
C1646 H1641 0.949 . S
C1646 C1652 1.368 . S
C1647 C1631 1.349 . S
C1647 H1639 0.950 . S
C1647 C1645 1.327 . S
C1648 C1636 1.349 . S
C1648 H1642 0.950 . S
C1648 C1649 1.327 . S
C1649 H1643 0.950 . S
C1649 C1648 1.327 . S
C1649 C1653 1.429 . S
C1650 C1633 1.574 . S
C1650 H1644 0.949 . S
C1650 C1654 1.368 . S
C1651 C1632 1.429 . S
C1651 C1645 1.429 . S
C1651 C1652 1.523 . S
C1652 C1633 1.368 . S
C1652 C1646 1.368 . S
C1652 C1651 1.523 . S
C1653 C1637 1.429 . S
C1653 C1649 1.429 . S
C1653 C1654 1.523 . S
C1654 C1638 1.368 . S
C1654 C1650 1.368 . S
C1654 C1653 1.523 . S
H1655 C1630 0.950 . S
H1656 C1632 0.950 . S
H1657 C1633 0.949 . S
H1658 C1635 0.950 . S
H1659 C1637 0.950 . S
C1660 C1661 1.349 . S
C1660 C1662 1.327 . S
C1660 H1685 0.950 . S
C1661 C1660 1.349 . S
C1661 C1677 1.349 . S
C1662 C1660 1.327 . S
C1662 C1681 1.429 . S
C1662 H1686 0.950 . S
C1663 C1680 1.574 . S
C1663 C1682 1.368 . S
C1663 H1687 0.949 . S
H1664 C1668 0.949 . S
C1665 C1666 1.349 . S
C1665 C1667 1.327 . S
C1665 H1688 0.950 . S
C1666 C1665 1.349 . S
C1666 C1678 1.349 . S
C1667 C1665 1.327 . S
C1667 C1683 1.429 . S
C1667 H1689 0.950 . S
C1668 H1664 0.949 . S
C1668 C1676 1.574 . S
C1668 C1684 1.368 . S
H1669 C1677 0.950 . S
H1670 C1675 0.950 . S
H1671 C1676 0.949 . S
H1672 C1678 0.950 . S
H1673 C1679 0.950 . S
H1674 C1680 0.949 . S
C1675 H1670 0.950 . S
C1675 C1677 1.327 . S
C1675 C1681 1.429 . S
C1676 C1668 1.574 . S
C1676 H1671 0.949 . S
C1676 C1682 1.368 . S
C1677 C1661 1.349 . S
C1677 H1669 0.950 . S
C1677 C1675 1.327 . S
C1678 C1666 1.349 . S
C1678 H1672 0.950 . S
C1678 C1679 1.327 . S
C1679 H1673 0.950 . S
C1679 C1678 1.327 . S
C1679 C1683 1.429 . S
C1680 C1663 1.574 . S
C1680 H1674 0.949 . S
C1680 C1684 1.368 . S
C1681 C1662 1.429 . S
C1681 C1675 1.429 . S
C1681 C1682 1.523 . S
C1682 C1663 1.368 . S
C1682 C1676 1.368 . S
C1682 C1681 1.523 . S
C1683 C1667 1.429 . S
C1683 C1679 1.429 . S
C1683 C1684 1.523 . S
C1684 C1668 1.368 . S
C1684 C1680 1.368 . S
C1684 C1683 1.523 . S
H1685 C1660 0.950 . S
H1686 C1662 0.950 . S
H1687 C1663 0.949 . S
H1688 C1665 0.950 . S
H1689 C1667 0.950 . S
C1690 C1691 1.349 . S
C1690 C1692 1.327 . S
C1690 H1715 0.950 . S
C1691 C1690 1.349 . S
C1691 C1707 1.349 . S
C1692 C1690 1.327 . S
C1692 C1711 1.429 . S
C1692 H1716 0.950 . S
C1693 C1710 1.574 . S
C1693 C1712 1.368 . S
C1693 H1717 0.949 . S
H1694 C1698 0.949 . S
C1695 C1696 1.349 . S
C1695 C1697 1.327 . S
C1695 H1718 0.950 . S
C1696 C1695 1.349 . S
C1696 C1708 1.349 . S
C1697 C1695 1.327 . S
C1697 C1713 1.429 . S
C1697 H1719 0.950 . S
C1698 H1694 0.949 . S
C1698 C1706 1.574 . S
C1698 C1714 1.368 . S
H1699 C1707 0.950 . S
H1700 C1705 0.950 . S
H1701 C1706 0.949 . S
H1702 C1708 0.950 . S
H1703 C1709 0.950 . S
H1704 C1710 0.949 . S
C1705 H1700 0.950 . S
C1705 C1707 1.327 . S
C1705 C1711 1.429 . S
C1706 C1698 1.574 . S
C1706 H1701 0.949 . S
C1706 C1712 1.368 . S
C1707 C1691 1.349 . S
C1707 H1699 0.950 . S
C1707 C1705 1.327 . S
C1708 C1696 1.349 . S
C1708 H1702 0.950 . S
C1708 C1709 1.327 . S
C1709 H1703 0.950 . S
C1709 C1708 1.327 . S
C1709 C1713 1.429 . S
C1710 C1693 1.574 . S
C1710 H1704 0.949 . S
C1710 C1714 1.368 . S
C1711 C1692 1.429 . S
C1711 C1705 1.429 . S
C1711 C1712 1.523 . S
C1712 C1693 1.368 . S
C1712 C1706 1.368 . S
C1712 C1711 1.523 . S
C1713 C1697 1.429 . S
C1713 C1709 1.429 . S
C1713 C1714 1.523 . S
C1714 C1698 1.368 . S
C1714 C1710 1.368 . S
C1714 C1713 1.523 . S
H1715 C1690 0.950 . S
H1716 C1692 0.950 . S
H1717 C1693 0.949 . S
H1718 C1695 0.950 . S
H1719 C1697 0.950 . S
C1720 C1721 1.349 . S
C1720 C1722 1.327 . S
C1720 H1745 0.950 . S
C1721 C1720 1.349 . S
C1721 C1737 1.349 . S
C1722 C1720 1.327 . S
C1722 C1741 1.429 . S
C1722 H1746 0.950 . S
C1723 C1740 1.574 . S
C1723 C1742 1.368 . S
C1723 H1747 0.949 . S
H1724 C1728 0.949 . S
C1725 C1726 1.349 . S
C1725 C1727 1.327 . S
C1725 H1748 0.950 . S
C1726 C1725 1.349 . S
C1726 C1738 1.349 . S
C1727 C1725 1.327 . S
C1727 C1743 1.429 . S
C1727 H1749 0.950 . S
C1728 H1724 0.949 . S
C1728 C1736 1.574 . S
C1728 C1744 1.368 . S
H1729 C1737 0.950 . S
H1730 C1735 0.950 . S
H1731 C1736 0.949 . S
H1732 C1738 0.950 . S
H1733 C1739 0.950 . S
H1734 C1740 0.949 . S
C1735 H1730 0.950 . S
C1735 C1737 1.327 . S
C1735 C1741 1.429 . S
C1736 C1728 1.574 . S
C1736 H1731 0.949 . S
C1736 C1742 1.368 . S
C1737 C1721 1.349 . S
C1737 H1729 0.950 . S
C1737 C1735 1.327 . S
C1738 C1726 1.349 . S
C1738 H1732 0.950 . S
C1738 C1739 1.327 . S
C1739 H1733 0.950 . S
C1739 C1738 1.327 . S
C1739 C1743 1.429 . S
C1740 C1723 1.574 . S
C1740 H1734 0.949 . S
C1740 C1744 1.368 . S
C1741 C1722 1.429 . S
C1741 C1735 1.429 . S
C1741 C1742 1.523 . S
C1742 C1723 1.368 . S
C1742 C1736 1.368 . S
C1742 C1741 1.523 . S
C1743 C1727 1.429 . S
C1743 C1739 1.429 . S
C1743 C1744 1.523 . S
C1744 C1728 1.368 . S
C1744 C1740 1.368 . S
C1744 C1743 1.523 . S
H1745 C1720 0.950 . S
H1746 C1722 0.950 . S
H1747 C1723 0.949 . S
H1748 C1725 0.950 . S
H1749 C1727 0.950 . S
C1750 C1751 1.349 . S
C1750 C1752 1.327 . S
C1750 H1775 0.950 . S
C1751 C1750 1.349 . S
C1751 C1767 1.349 . S
C1752 C1750 1.327 . S
C1752 C1771 1.429 . S
C1752 H1776 0.950 . S
C1753 C1770 1.574 . S
C1753 C1772 1.368 . S
C1753 H1777 0.949 . S
H1754 C1758 0.949 . S
C1755 C1756 1.349 . S
C1755 C1757 1.327 . S
C1755 H1778 0.950 . S
C1756 C1755 1.349 . S
C1756 C1768 1.349 . S
C1757 C1755 1.327 . S
C1757 C1773 1.429 . S
C1757 H1779 0.950 . S
C1758 H1754 0.949 . S
C1758 C1766 1.574 . S
C1758 C1774 1.368 . S
H1759 C1767 0.950 . S
H1760 C1765 0.950 . S
H1761 C1766 0.949 . S
H1762 C1768 0.950 . S
H1763 C1769 0.950 . S
H1764 C1770 0.949 . S
C1765 H1760 0.950 . S
C1765 C1767 1.327 . S
C1765 C1771 1.429 . S
C1766 C1758 1.574 . S
C1766 H1761 0.949 . S
C1766 C1772 1.368 . S
C1767 C1751 1.349 . S
C1767 H1759 0.950 . S
C1767 C1765 1.327 . S
C1768 C1756 1.349 . S
C1768 H1762 0.950 . S
C1768 C1769 1.327 . S
C1769 H1763 0.950 . S
C1769 C1768 1.327 . S
C1769 C1773 1.429 . S
C1770 C1753 1.574 . S
C1770 H1764 0.949 . S
C1770 C1774 1.368 . S
C1771 C1752 1.429 . S
C1771 C1765 1.429 . S
C1771 C1772 1.523 . S
C1772 C1753 1.368 . S
C1772 C1766 1.368 . S
C1772 C1771 1.523 . S
C1773 C1757 1.429 . S
C1773 C1769 1.429 . S
C1773 C1774 1.523 . S
C1774 C1758 1.368 . S
C1774 C1770 1.368 . S
C1774 C1773 1.523 . S
H1775 C1750 0.950 . S
H1776 C1752 0.950 . S
H1777 C1753 0.949 . S
H1778 C1755 0.950 . S
H1779 C1757 0.950 . S
C1780 C1781 1.349 . S
C1780 C1782 1.327 . S
C1780 H1805 0.950 . S
C1781 C1780 1.349 . S
C1781 C1797 1.349 . S
C1782 C1780 1.327 . S
C1782 C1801 1.429 . S
C1782 H1806 0.950 . S
C1783 C1800 1.574 . S
C1783 C1802 1.368 . S
C1783 H1807 0.949 . S
H1784 C1788 0.949 . S
C1785 C1786 1.349 . S
C1785 C1787 1.327 . S
C1785 H1808 0.950 . S
C1786 C1785 1.349 . S
C1786 C1798 1.349 . S
C1787 C1785 1.327 . S
C1787 C1803 1.429 . S
C1787 H1809 0.950 . S
C1788 H1784 0.949 . S
C1788 C1796 1.574 . S
C1788 C1804 1.368 . S
H1789 C1797 0.950 . S
H1790 C1795 0.950 . S
H1791 C1796 0.949 . S
H1792 C1798 0.950 . S
H1793 C1799 0.950 . S
H1794 C1800 0.949 . S
C1795 H1790 0.950 . S
C1795 C1797 1.327 . S
C1795 C1801 1.429 . S
C1796 C1788 1.574 . S
C1796 H1791 0.949 . S
C1796 C1802 1.368 . S
C1797 C1781 1.349 . S
C1797 H1789 0.950 . S
C1797 C1795 1.327 . S
C1798 C1786 1.349 . S
C1798 H1792 0.950 . S
C1798 C1799 1.327 . S
C1799 H1793 0.950 . S
C1799 C1798 1.327 . S
C1799 C1803 1.429 . S
C1800 C1783 1.574 . S
C1800 H1794 0.949 . S
C1800 C1804 1.368 . S
C1801 C1782 1.429 . S
C1801 C1795 1.429 . S
C1801 C1802 1.523 . S
C1802 C1783 1.368 . S
C1802 C1796 1.368 . S
C1802 C1801 1.523 . S
C1803 C1787 1.429 . S
C1803 C1799 1.429 . S
C1803 C1804 1.523 . S
C1804 C1788 1.368 . S
C1804 C1800 1.368 . S
C1804 C1803 1.523 . S
H1805 C1780 0.950 . S
H1806 C1782 0.950 . S
H1807 C1783 0.949 . S
H1808 C1785 0.950 . S
H1809 C1787 0.950 . S
C1810 C1811 1.349 . S
C1810 C1812 1.327 . S
C1810 H1835 0.950 . S
C1811 C1810 1.349 . S
C1811 C1827 1.349 . S
C1812 C1810 1.327 . S
C1812 C1831 1.429 . S
C1812 H1836 0.950 . S
C1813 C1830 1.574 . S
C1813 C1832 1.368 . S
C1813 H1837 0.949 . S
H1814 C1818 0.949 . S
C1815 C1816 1.349 . S
C1815 C1817 1.327 . S
C1815 H1838 0.950 . S
C1816 C1815 1.349 . S
C1816 C1828 1.349 . S
C1817 C1815 1.327 . S
C1817 C1833 1.429 . S
C1817 H1839 0.950 . S
C1818 H1814 0.949 . S
C1818 C1826 1.574 . S
C1818 C1834 1.368 . S
H1819 C1827 0.950 . S
H1820 C1825 0.950 . S
H1821 C1826 0.949 . S
H1822 C1828 0.950 . S
H1823 C1829 0.950 . S
H1824 C1830 0.949 . S
C1825 H1820 0.950 . S
C1825 C1827 1.327 . S
C1825 C1831 1.429 . S
C1826 C1818 1.574 . S
C1826 H1821 0.949 . S
C1826 C1832 1.368 . S
C1827 C1811 1.349 . S
C1827 H1819 0.950 . S
C1827 C1825 1.327 . S
C1828 C1816 1.349 . S
C1828 H1822 0.950 . S
C1828 C1829 1.327 . S
C1829 H1823 0.950 . S
C1829 C1828 1.327 . S
C1829 C1833 1.429 . S
C1830 C1813 1.574 . S
C1830 H1824 0.949 . S
C1830 C1834 1.368 . S
C1831 C1812 1.429 . S
C1831 C1825 1.429 . S
C1831 C1832 1.523 . S
C1832 C1813 1.368 . S
C1832 C1826 1.368 . S
C1832 C1831 1.523 . S
C1833 C1817 1.429 . S
C1833 C1829 1.429 . S
C1833 C1834 1.523 . S
C1834 C1818 1.368 . S
C1834 C1830 1.368 . S
C1834 C1833 1.523 . S
H1835 C1810 0.950 . S
H1836 C1812 0.950 . S
H1837 C1813 0.949 . S
H1838 C1815 0.950 . S
H1839 C1817 0.950 . S
C1840 C1841 1.349 . S
C1840 C1842 1.327 1_556 S
C1840 H1865 0.950 . S
C1841 C1840 1.349 . S
C1841 C1857 1.349 . S
C1842 C1840 1.327 1_554 S
C1842 C1861 1.429 . S
C1842 H1866 0.950 . S
C1843 C1860 1.574 . S
C1843 C1862 1.368 . S
C1843 H1867 0.949 . S
H1844 C1848 0.949 . S
C1845 C1846 1.349 . S
C1845 C1847 1.327 . S
C1845 H1868 0.950 . S
C1846 C1845 1.349 . S
C1846 C1858 1.349 . S
C1847 C1845 1.327 . S
C1847 C1863 1.429 . S
C1847 H1869 0.950 . S
C1848 H1844 0.949 . S
C1848 C1856 1.574 . S
C1848 C1864 1.368 . S
H1849 C1857 0.950 . S
H1850 C1855 0.950 . S
H1851 C1856 0.949 . S
H1852 C1858 0.950 . S
H1853 C1859 0.950 . S
H1854 C1860 0.949 . S
C1855 H1850 0.950 . S
C1855 C1857 1.327 1_554 S
C1855 C1861 1.429 . S
C1856 C1848 1.574 . S
C1856 H1851 0.949 . S
C1856 C1862 1.368 . S
C1857 C1841 1.349 . S
C1857 H1849 0.950 . S
C1857 C1855 1.327 1_556 S
C1858 C1846 1.349 . S
C1858 H1852 0.950 . S
C1858 C1859 1.327 . S
C1859 H1853 0.950 . S
C1859 C1858 1.327 . S
C1859 C1863 1.429 . S
C1860 C1843 1.574 . S
C1860 H1854 0.949 . S
C1860 C1864 1.368 . S
C1861 C1842 1.429 . S
C1861 C1855 1.429 . S
C1861 C1862 1.523 . S
C1862 C1843 1.368 . S
C1862 C1856 1.368 . S
C1862 C1861 1.523 . S
C1863 C1847 1.429 . S
C1863 C1859 1.429 . S
C1863 C1864 1.523 . S
C1864 C1848 1.368 . S
C1864 C1860 1.368 . S
C1864 C1863 1.523 . S
H1865 C1840 0.950 . S
H1866 C1842 0.950 . S
H1867 C1843 0.949 . S
H1868 C1845 0.950 . S
H1869 C1847 0.950 . S
C1870 C1871 1.349 . S
C1870 C1872 1.327 . S
C1870 H1895 0.950 . S
C1871 C1870 1.349 . S
C1871 C1887 1.349 . S
C1872 C1870 1.327 . S
C1872 C1891 1.429 . S
C1872 H1896 0.950 . S
C1873 C1890 1.574 . S
C1873 C1892 1.368 . S
C1873 H1897 0.949 . S
H1874 C1878 0.949 . S
C1875 C1876 1.349 . S
C1875 C1877 1.327 1_554 S
C1875 H1898 0.950 . S
C1876 C1875 1.349 . S
C1876 C1888 1.349 . S
C1877 C1875 1.327 1_556 S
C1877 C1893 1.429 . S
C1877 H1899 0.950 . S
C1878 H1874 0.949 . S
C1878 C1886 1.574 . S
C1878 C1894 1.368 . S
H1879 C1887 0.950 . S
H1880 C1885 0.950 . S
H1881 C1886 0.949 . S
H1882 C1888 0.950 . S
H1883 C1889 0.950 . S
H1884 C1890 0.949 . S
C1885 H1880 0.950 . S
C1885 C1887 1.327 . S
C1885 C1891 1.429 . S
C1886 C1878 1.574 . S
C1886 H1881 0.949 . S
C1886 C1892 1.368 . S
C1887 C1871 1.349 . S
C1887 H1879 0.950 . S
C1887 C1885 1.327 . S
C1888 C1876 1.349 . S
C1888 H1882 0.950 . S
C1888 C1889 1.327 1_554 S
C1889 H1883 0.950 . S
C1889 C1888 1.327 1_556 S
C1889 C1893 1.429 . S
C1890 C1873 1.574 . S
C1890 H1884 0.949 . S
C1890 C1894 1.368 . S
C1891 C1872 1.429 . S
C1891 C1885 1.429 . S
C1891 C1892 1.523 . S
C1892 C1873 1.368 . S
C1892 C1886 1.368 . S
C1892 C1891 1.523 . S
C1893 C1877 1.429 . S
C1893 C1889 1.429 . S
C1893 C1894 1.523 . S
C1894 C1878 1.368 . S
C1894 C1890 1.368 . S
C1894 C1893 1.523 . S
H1895 C1870 0.950 . S
H1896 C1872 0.950 . S
H1897 C1873 0.949 . S
H1898 C1875 0.950 . S
H1899 C1877 0.950 . S
C1900 C1901 1.349 . S
C1900 C1902 1.327 . S
C1900 H1925 0.950 . S
C1901 C1900 1.349 . S
C1901 C1917 1.349 . S
C1902 C1900 1.327 . S
C1902 C1921 1.429 . S
C1902 H1926 0.950 . S
C1903 C1920 1.574 . S
C1903 C1922 1.368 . S
C1903 H1927 0.949 . S
H1904 C1908 0.949 . S
C1905 C1906 1.349 . S
C1905 C1907 1.327 1_556 S
C1905 H1928 0.950 . S
C1906 C1905 1.349 . S
C1906 C1918 1.349 . S
C1907 C1905 1.327 1_554 S
C1907 C1923 1.429 . S
C1907 H1929 0.950 . S
C1908 H1904 0.949 . S
C1908 C1916 1.574 . S
C1908 C1924 1.368 . S
H1909 C1917 0.950 . S
H1910 C1915 0.950 . S
H1911 C1916 0.949 . S
H1912 C1918 0.950 . S
H1913 C1919 0.950 . S
H1914 C1920 0.949 . S
C1915 H1910 0.950 . S
C1915 C1917 1.327 . S
C1915 C1921 1.429 . S
C1916 C1908 1.574 . S
C1916 H1911 0.949 . S
C1916 C1922 1.368 . S
C1917 C1901 1.349 . S
C1917 H1909 0.950 . S
C1917 C1915 1.327 . S
C1918 C1906 1.349 . S
C1918 H1912 0.950 . S
C1918 C1919 1.327 1_556 S
C1919 H1913 0.950 . S
C1919 C1918 1.327 1_554 S
C1919 C1923 1.429 . S
C1920 C1903 1.574 . S
C1920 H1914 0.949 . S
C1920 C1924 1.368 . S
C1921 C1902 1.429 . S
C1921 C1915 1.429 . S
C1921 C1922 1.523 . S
C1922 C1903 1.368 . S
C1922 C1916 1.368 . S
C1922 C1921 1.523 . S
C1923 C1907 1.429 . S
C1923 C1919 1.429 . S
C1923 C1924 1.523 . S
C1924 C1908 1.368 . S
C1924 C1920 1.368 . S
C1924 C1923 1.523 . S
H1925 C1900 0.950 . S
H1926 C1902 0.950 . S
H1927 C1903 0.949 . S
H1928 C1905 0.950 . S
H1929 C1907 0.950 . S
C1930 C1931 1.349 . S
C1930 C1932 1.327 1_554 S
C1930 H1955 0.950 . S
C1931 C1930 1.349 . S
C1931 C1947 1.349 . S
C1932 C1930 1.327 1_556 S
C1932 C1951 1.429 . S
C1932 H1956 0.950 . S
C1933 C1950 1.574 . S
C1933 C1952 1.368 . S
C1933 H1957 0.949 . S
H1934 C1938 0.949 . S
C1935 C1936 1.349 . S
C1935 C1937 1.327 . S
C1935 H1958 0.950 . S
C1936 C1935 1.349 . S
C1936 C1948 1.349 . S
C1937 C1935 1.327 . S
C1937 C1953 1.429 . S
C1937 H1959 0.950 . S
C1938 H1934 0.949 . S
C1938 C1946 1.574 . S
C1938 C1954 1.368 . S
H1939 C1947 0.950 . S
H1940 C1945 0.950 . S
H1941 C1946 0.949 . S
H1942 C1948 0.950 . S
H1943 C1949 0.950 . S
H1944 C1950 0.949 . S
C1945 H1940 0.950 . S
C1945 C1947 1.327 1_556 S
C1945 C1951 1.429 . S
C1946 C1938 1.574 . S
C1946 H1941 0.949 . S
C1946 C1952 1.368 . S
C1947 C1931 1.349 . S
C1947 H1939 0.950 . S
C1947 C1945 1.327 1_554 S
C1948 C1936 1.349 . S
C1948 H1942 0.950 . S
C1948 C1949 1.327 . S
C1949 H1943 0.950 . S
C1949 C1948 1.327 . S
C1949 C1953 1.429 . S
C1950 C1933 1.574 . S
C1950 H1944 0.949 . S
C1950 C1954 1.368 . S
C1951 C1932 1.429 . S
C1951 C1945 1.429 . S
C1951 C1952 1.523 . S
C1952 C1933 1.368 . S
C1952 C1946 1.368 . S
C1952 C1951 1.523 . S
C1953 C1937 1.429 . S
C1953 C1949 1.429 . S
C1953 C1954 1.523 . S
C1954 C1938 1.368 . S
C1954 C1950 1.368 . S
C1954 C1953 1.523 . S
H1955 C1930 0.950 . S
H1956 C1932 0.950 . S
H1957 C1933 0.949 . S
H1958 C1935 0.950 . S
H1959 C1937 0.950 . S
C1960 C1961 1.349 . S
C1960 C1962 1.327 . S
C1960 H1985 0.950 . S
C1961 C1960 1.349 . S
C1961 C1977 1.349 . S
C1962 C1960 1.327 . S
C1962 C1981 1.429 . S
C1962 H1986 0.950 . S
C1963 C1980 1.574 . S
C1963 C1982 1.368 . S
C1963 H1987 0.949 . S
H1964 C1968 0.949 . S
C1965 C1966 1.349 . S
C1965 C1967 1.327 1_556 S
C1965 H1988 0.950 . S
C1966 C1965 1.349 . S
C1966 C1978 1.349 . S
C1967 C1965 1.327 1_554 S
C1967 C1983 1.429 . S
C1967 H1989 0.950 . S
C1968 H1964 0.949 . S
C1968 C1976 1.574 . S
C1968 C1984 1.368 . S
H1969 C1977 0.950 . S
H1970 C1975 0.950 . S
H1971 C1976 0.949 . S
H1972 C1978 0.950 . S
H1973 C1979 0.950 . S
H1974 C1980 0.949 . S
C1975 H1970 0.950 . S
C1975 C1977 1.327 . S
C1975 C1981 1.429 . S
C1976 C1968 1.574 . S
C1976 H1971 0.949 . S
C1976 C1982 1.368 . S
C1977 C1961 1.349 . S
C1977 H1969 0.950 . S
C1977 C1975 1.327 . S
C1978 C1966 1.349 . S
C1978 H1972 0.950 . S
C1978 C1979 1.327 1_556 S
C1979 H1973 0.950 . S
C1979 C1978 1.327 1_554 S
C1979 C1983 1.429 . S
C1980 C1963 1.574 . S
C1980 H1974 0.949 . S
C1980 C1984 1.368 . S
C1981 C1962 1.429 . S
C1981 C1975 1.429 . S
C1981 C1982 1.523 . S
C1982 C1963 1.368 . S
C1982 C1976 1.368 . S
C1982 C1981 1.523 . S
C1983 C1967 1.429 . S
C1983 C1979 1.429 . S
C1983 C1984 1.523 . S
C1984 C1968 1.368 . S
C1984 C1980 1.368 . S
C1984 C1983 1.523 . S
H1985 C1960 0.950 . S
H1986 C1962 0.950 . S
H1987 C1963 0.949 . S
H1988 C1965 0.950 . S
H1989 C1967 0.950 . S
C1990 C1991 1.349 . S
C1990 C1992 1.327 1_554 S
C1990 H2015 0.950 . S
C1991 C1990 1.349 . S
C1991 C2007 1.349 . S
C1992 C1990 1.327 1_556 S
C1992 C2011 1.429 . S
C1992 H2016 0.950 . S
C1993 C2010 1.574 . S
C1993 C2012 1.368 . S
C1993 H2017 0.949 . S
H1994 C1998 0.949 . S
C1995 C1996 1.349 . S
C1995 C1997 1.327 . S
C1995 H2018 0.950 . S
C1996 C1995 1.349 . S
C1996 C2008 1.349 . S
C1997 C1995 1.327 . S
C1997 C2013 1.429 . S
C1997 H2019 0.950 . S
C1998 H1994 0.949 . S
C1998 C2006 1.574 . S
C1998 C2014 1.368 . S
H1999 C2007 0.950 . S
H2000 C2005 0.950 . S
H2001 C2006 0.949 . S
H2002 C2008 0.950 . S
H2003 C2009 0.950 . S
H2004 C2010 0.949 . S
C2005 H2000 0.950 . S
C2005 C2007 1.327 1_556 S
C2005 C2011 1.429 . S
C2006 C1998 1.574 . S
C2006 H2001 0.949 . S
C2006 C2012 1.368 . S
C2007 C1991 1.349 . S
C2007 H1999 0.950 . S
C2007 C2005 1.327 1_554 S
C2008 C1996 1.349 . S
C2008 H2002 0.950 . S
C2008 C2009 1.327 . S
C2009 H2003 0.950 . S
C2009 C2008 1.327 . S
C2009 C2013 1.429 . S
C2010 C1993 1.574 . S
C2010 H2004 0.949 . S
C2010 C2014 1.368 . S
C2011 C1992 1.429 . S
C2011 C2005 1.429 . S
C2011 C2012 1.523 . S
C2012 C1993 1.368 . S
C2012 C2006 1.368 . S
C2012 C2011 1.523 . S
C2013 C1997 1.429 . S
C2013 C2009 1.429 . S
C2013 C2014 1.523 . S
C2014 C1998 1.368 . S
C2014 C2010 1.368 . S
C2014 C2013 1.523 . S
H2015 C1990 0.950 . S
H2016 C1992 0.950 . S
H2017 C1993 0.949 . S
H2018 C1995 0.950 . S
H2019 C1997 0.950 . S
C2020 C2021 1.349 . S
C2020 C2022 1.327 1_556 S
C2020 H2045 0.950 . S
C2021 C2020 1.349 . S
C2021 C2037 1.349 . S
C2022 C2020 1.327 1_554 S
C2022 C2041 1.429 . S
C2022 H2046 0.950 . S
C2023 C2040 1.574 . S
C2023 C2042 1.368 . S
C2023 H2047 0.949 . S
H2024 C2028 0.949 . S
C2025 C2026 1.349 . S
C2025 C2027 1.327 . S
C2025 H2048 0.950 . S
C2026 C2025 1.349 . S
C2026 C2038 1.349 . S
C2027 C2025 1.327 . S
C2027 C2043 1.429 . S
C2027 H2049 0.950 . S
C2028 H2024 0.949 . S
C2028 C2036 1.574 . S
C2028 C2044 1.368 . S
H2029 C2037 0.950 . S
H2030 C2035 0.950 . S
H2031 C2036 0.949 . S
H2032 C2038 0.950 . S
H2033 C2039 0.950 . S
H2034 C2040 0.949 . S
C2035 H2030 0.950 . S
C2035 C2037 1.327 1_554 S
C2035 C2041 1.429 . S
C2036 C2028 1.574 . S
C2036 H2031 0.949 . S
C2036 C2042 1.368 . S
C2037 C2021 1.349 . S
C2037 H2029 0.950 . S
C2037 C2035 1.327 1_556 S
C2038 C2026 1.349 . S
C2038 H2032 0.950 . S
C2038 C2039 1.327 . S
C2039 H2033 0.950 . S
C2039 C2038 1.327 . S
C2039 C2043 1.429 . S
C2040 C2023 1.574 . S
C2040 H2034 0.949 . S
C2040 C2044 1.368 . S
C2041 C2022 1.429 . S
C2041 C2035 1.429 . S
C2041 C2042 1.523 . S
C2042 C2023 1.368 . S
C2042 C2036 1.368 . S
C2042 C2041 1.523 . S
C2043 C2027 1.429 . S
C2043 C2039 1.429 . S
C2043 C2044 1.523 . S
C2044 C2028 1.368 . S
C2044 C2040 1.368 . S
C2044 C2043 1.523 . S
H2045 C2020 0.950 . S
H2046 C2022 0.950 . S
H2047 C2023 0.949 . S
H2048 C2025 0.950 . S
H2049 C2027 0.950 . S
C2050 C2051 1.349 . S
C2050 C2052 1.327 . S
C2050 H2075 0.950 . S
C2051 C2050 1.349 . S
C2051 C2067 1.349 . S
C2052 C2050 1.327 . S
C2052 C2071 1.429 . S
C2052 H2076 0.950 . S
C2053 C2070 1.574 . S
C2053 C2072 1.368 . S
C2053 H2077 0.949 . S
H2054 C2058 0.949 . S
C2055 C2056 1.349 . S
C2055 C2057 1.327 1_554 S
C2055 H2078 0.950 . S
C2056 C2055 1.349 . S
C2056 C2068 1.349 . S
C2057 C2055 1.327 1_556 S
C2057 C2073 1.429 . S
C2057 H2079 0.950 . S
C2058 H2054 0.949 . S
C2058 C2066 1.574 . S
C2058 C2074 1.368 . S
H2059 C2067 0.950 . S
H2060 C2065 0.950 . S
H2061 C2066 0.949 . S
H2062 C2068 0.950 . S
H2063 C2069 0.950 . S
H2064 C2070 0.949 . S
C2065 H2060 0.950 . S
C2065 C2067 1.327 . S
C2065 C2071 1.429 . S
C2066 C2058 1.574 . S
C2066 H2061 0.949 . S
C2066 C2072 1.368 . S
C2067 C2051 1.349 . S
C2067 H2059 0.950 . S
C2067 C2065 1.327 . S
C2068 C2056 1.349 . S
C2068 H2062 0.950 . S
C2068 C2069 1.327 1_554 S
C2069 H2063 0.950 . S
C2069 C2068 1.327 1_556 S
C2069 C2073 1.429 . S
C2070 C2053 1.574 . S
C2070 H2064 0.949 . S
C2070 C2074 1.368 . S
C2071 C2052 1.429 . S
C2071 C2065 1.429 . S
C2071 C2072 1.523 . S
C2072 C2053 1.368 . S
C2072 C2066 1.368 . S
C2072 C2071 1.523 . S
C2073 C2057 1.429 . S
C2073 C2069 1.429 . S
C2073 C2074 1.523 . S
C2074 C2058 1.368 . S
C2074 C2070 1.368 . S
C2074 C2073 1.523 . S
H2075 C2050 0.950 . S
H2076 C2052 0.950 . S
H2077 C2053 0.949 . S
H2078 C2055 0.950 . S
H2079 C2057 0.950 . S
C641 C459 1.709 . S
C646 C18 1.715 . S
C671 C330 1.709 . S
C676 C49 1.715 . S
C701 C98 1.715 . S
C706 C379 1.709 . S
C731 C129 1.715 . S
C736 C410 1.709 . S
C761 C178 1.715 . S
C766 C219 1.709 . S
C791 C250 1.709 . S
C796 C209 1.715 . S
C821 C258 1.715 . S
C826 C299 1.709 . S
C851 C170 1.709 . S
C856 C289 1.715 . S
C881 C139 1.709 . S
C886 C338 1.715 . S
C911 C369 1.715 . S
C916 C10 1.709 . S
C941 C59 1.709 . S
C946 C418 1.715 . S
C971 C90 1.709 . S
C976 C449 1.715 . S
C1001 C498 1.715 . S
C1006 C539 1.709 . S
C1031 C570 1.709 . S
C1036 C529 1.715 . S
C1061 C619 1.709 . S
C1066 C578 1.715 . S
C1091 C609 1.715 . S
C1096 C490 1.709 . S
C1121 C9 1.137 . S
C1126 C169 1.137 . S
C1151 C218 1.137 . S
C1156 C58 1.137 . S
C1181 C89 1.137 . S
C1186 C249 1.137 . S
C1211 C138 1.137 . S
C1216 C298 1.137 . S
C1241 C329 1.137 . S
C1246 C489 1.137 . S
C1271 C538 1.137 . S
C1276 C378 1.137 . S
C1301 C409 1.137 . S
C1306 C569 1.137 . S
C1331 C458 1.137 . S
C1336 C618 1.137 . S
C1361 C579 2.241 . S
C1366 C19 2.241 . S
C1391 C50 2.241 . S
C1396 C610 2.241 . S
C1421 C99 2.241 . S
C1426 C499 2.241 . S
C1451 C130 2.241 . S
C1456 C530 2.241 . S
C1481 C179 2.241 . S
C1486 C419 2.241 . S
C1511 C210 2.241 . S
C1516 C450 2.241 . S
C1541 C259 2.241 . S
C1546 C339 2.241 . S
C1571 C370 2.241 . S
C1576 C290 2.241 . S
C1601 C6 1.098 . S
C1606 C15 1.098 . S
C1631 C55 1.098 . S
C1636 C46 1.098 . S
C1661 C86 1.098 . S
C1666 C95 1.098 . S
C1691 C126 1.098 . S
C1696 C135 1.098 . S
C1721 C175 1.098 . S
C1726 C166 1.098 . S
C1751 C215 1.098 . S
C1756 C206 1.098 . S
C1781 C246 1.098 . S
C1786 C255 1.098 . S
C1811 C286 1.098 . S
C1816 C295 1.098 . S
C1841 C326 1.098 . S
C1846 C335 1.098 . S
C1871 C366 1.098 . S
C1876 C375 1.098 . S
C1901 C415 1.098 . S
C1906 C406 1.098 . S
C1931 C455 1.098 . S
C1936 C446 1.098 . S
C1961 C486 1.098 . S
C1966 C495 1.098 . S
C1991 C526 1.098 . S
C1996 C535 1.098 . S
C2021 C575 1.098 . S
C2026 C566 1.098 . S
C2051 C615 1.098 . S
C2056 C606 1.098 . S
