# Generated by pormake.
# Topology ukk, (4)-cn, num edge types: 1
# Building blocks:
#     Node 0, Type 0, BuildingBlock: GALJAG_clean_sbu_0, # of connection points: 4
#     Node 1, Type 0, BuildingBlock: GALJAG_clean_sbu_0, # of connection points: 4
#     Node 2, Type 0, BuildingBlock: GALJAG_clean_sbu_0, # of connection points: 4
#     Node 3, Type 0, BuildingBlock: GALJAG_clean_sbu_0, # of connection points: 4
#     Node 4, Type 0, BuildingBlock: GALJAG_clean_sbu_0, # of connection points: 4
#     Node 5, Type 0, BuildingBlock: GALJAG_clean_sbu_0, # of connection points: 4
#     Node 6, Type 0, BuildingBlock: GALJAG_clean_sbu_0, # of connection points: 4
#     Node 7, Type 0, BuildingBlock: GALJAG_clean_sbu_0, # of connection points: 4
#     Node 8, Type 0, BuildingBlock: GALJAG_clean_sbu_0, # of connection points: 4
#     Node 9, Type 0, BuildingBlock: GALJAG_clean_sbu_0, # of connection points: 4
#     Node 10, Type 0, BuildingBlock: GALJAG_clean_sbu_0, # of connection points: 4
#     Node 11, Type 0, BuildingBlock: GALJAG_clean_sbu_0, # of connection points: 4
#     Node 12, Type 0, BuildingBlock: GALJAG_clean_sbu_0, # of connection points: 4
#     Node 13, Type 0, BuildingBlock: GALJAG_clean_sbu_0, # of connection points: 4
#     Node 14, Type 0, BuildingBlock: GALJAG_clean_sbu_0, # of connection points: 4
#     Node 15, Type 0, BuildingBlock: GALJAG_clean_sbu_0, # of connection points: 4
#     Edge 16, Type (0, 0), BuildingBlock: EZIPEK_clean_linker_0, # of connection points: 2
#     Edge 17, Type (0, 0), BuildingBlock: EZIPEK_clean_linker_0, # of connection points: 2
#     Edge 18, Type (0, 0), BuildingBlock: EZIPEK_clean_linker_0, # of connection points: 2
#     Edge 19, Type (0, 0), BuildingBlock: EZIPEK_clean_linker_0, # of connection points: 2
#     Edge 20, Type (0, 0), BuildingBlock: EZIPEK_clean_linker_0, # of connection points: 2
#     Edge 21, Type (0, 0), BuildingBlock: EZIPEK_clean_linker_0, # of connection points: 2
#     Edge 22, Type (0, 0), BuildingBlock: EZIPEK_clean_linker_0, # of connection points: 2
#     Edge 23, Type (0, 0), BuildingBlock: EZIPEK_clean_linker_0, # of connection points: 2
#     Edge 24, Type (0, 0), BuildingBlock: EZIPEK_clean_linker_0, # of connection points: 2
#     Edge 25, Type (0, 0), BuildingBlock: EZIPEK_clean_linker_0, # of connection points: 2
#     Edge 26, Type (0, 0), BuildingBlock: EZIPEK_clean_linker_0, # of connection points: 2
#     Edge 27, Type (0, 0), BuildingBlock: EZIPEK_clean_linker_0, # of connection points: 2
#     Edge 28, Type (0, 0), BuildingBlock: EZIPEK_clean_linker_0, # of connection points: 2
#     Edge 29, Type (0, 0), BuildingBlock: EZIPEK_clean_linker_0, # of connection points: 2
#     Edge 30, Type (0, 0), BuildingBlock: EZIPEK_clean_linker_0, # of connection points: 2
#     Edge 31, Type (0, 0), BuildingBlock: EZIPEK_clean_linker_0, # of connection points: 2
#     Edge 32, Type (0, 0), BuildingBlock: EZIPEK_clean_linker_0, # of connection points: 2
#     Edge 33, Type (0, 0), BuildingBlock: EZIPEK_clean_linker_0, # of connection points: 2
#     Edge 34, Type (0, 0), BuildingBlock: EZIPEK_clean_linker_0, # of connection points: 2
#     Edge 35, Type (0, 0), BuildingBlock: EZIPEK_clean_linker_0, # of connection points: 2
#     Edge 36, Type (0, 0), BuildingBlock: EZIPEK_clean_linker_0, # of connection points: 2
#     Edge 37, Type (0, 0), BuildingBlock: EZIPEK_clean_linker_0, # of connection points: 2
#     Edge 38, Type (0, 0), BuildingBlock: EZIPEK_clean_linker_0, # of connection points: 2
#     Edge 39, Type (0, 0), BuildingBlock: EZIPEK_clean_linker_0, # of connection points: 2
#     Edge 40, Type (0, 0), BuildingBlock: EZIPEK_clean_linker_0, # of connection points: 2
#     Edge 41, Type (0, 0), BuildingBlock: EZIPEK_clean_linker_0, # of connection points: 2
#     Edge 42, Type (0, 0), BuildingBlock: EZIPEK_clean_linker_0, # of connection points: 2
#     Edge 43, Type (0, 0), BuildingBlock: EZIPEK_clean_linker_0, # of connection points: 2
#     Edge 44, Type (0, 0), BuildingBlock: EZIPEK_clean_linker_0, # of connection points: 2
#     Edge 45, Type (0, 0), BuildingBlock: EZIPEK_clean_linker_0, # of connection points: 2
#     Edge 46, Type (0, 0), BuildingBlock: EZIPEK_clean_linker_0, # of connection points: 2
#     Edge 47, Type (0, 0), BuildingBlock: EZIPEK_clean_linker_0, # of connection points: 2
# Relax obj value: 0.105
# Max RMSD: 0.246
# Mean RMSD: 0.246
data_MOF--net-ukk--node1-GALJAG_clean_sbu_0--edge1-EZIPEK_clean_linker_0
_symmetry_space_group_name_H-M    P1
_symmetry_Int_Tables_number       1
_symmetry_cell_setting            triclinic
loop_
_symmetry_equiv_pos_as_xyz
'x, y, z'
_cell_length_a     39.244822
_cell_length_b     39.29578
_cell_length_c     13.564448
_cell_angle_alpha  89.983628
_cell_angle_beta   89.997972
_cell_angle_gamma 89.985252
loop_
_atom_site_label
_atom_site_type_symbol
_atom_site_fract_x
_atom_site_fract_y
_atom_site_fract_z
_atom_type_partial_charge
In0 In 0.34093 0.10507 0.13946 0.0
O1 O 0.32904 0.0943 0.9793 0.0
O2 O 0.28771 0.09603 0.08323 0.0
C3 C 0.40809 0.11611 0.15017 0.0
C4 C 0.31886 0.16866 0.16509 0.0
C5 C 0.3452 0.04518 0.23257 0.0
O6 O 0.39426 0.10603 0.07089 0.0
O7 O 0.38806 0.1213 0.22128 0.0
O8 O 0.34169 0.0727 0.28024 0.0
O9 O 0.34277 0.04802 0.14034 0.0
C10 C 0.29715 0.09275 0.99447 0.0
O11 O 0.30956 0.14505 0.22321 0.0
O12 O 0.33875 0.15974 0.09669 0.0
In13 In 0.10723 0.63041 0.90254 0.0
O14 O 0.09575 0.65187 0.05503 0.0
O15 O 0.10238 0.68655 0.93513 0.0
C16 C 0.11663 0.56357 0.929 0.0
C17 C 0.1725 0.64434 0.86418 0.0
C18 C 0.05037 0.62975 0.79283 0.0
O19 O 0.1061 0.5823 0.9985 0.0
O20 O 0.12162 0.57835 0.84781 0.0
O21 O 0.07901 0.63728 0.75625 0.0
O22 O 0.05054 0.62269 0.88353 0.0
C23 C 0.09726 0.68243 0.0261 0.0
O24 O 0.14947 0.64942 0.80044 0.0
O25 O 0.16243 0.63303 0.94608 0.0
In26 In 0.65535 0.88912 0.15891 0.0
O27 O 0.6619 0.84029 0.07714 0.0
O28 O 0.6789 0.84135 0.22611 0.0
C29 C 0.64942 0.94237 0.27897 0.0
C30 C 0.70737 0.9099 0.04755 0.0
C31 C 0.58892 0.87514 0.15782 0.0
O32 O 0.66241 0.91464 0.30908 0.0
O33 O 0.64024 0.94304 0.18968 0.0
O34 O 0.60294 0.8901 0.08531 0.0
O35 O 0.60841 0.8672 0.22828 0.0
C36 C 0.67639 0.82446 0.14655 0.0
O37 O 0.6775 0.90703 0.01243 0.0
O38 O 0.7101 0.90457 0.13914 0.0
In39 In 0.88969 0.36959 0.84926 0.0
O40 O 0.84446 0.35725 0.74882 0.0
O41 O 0.83605 0.36379 0.90377 0.0
C42 C 0.94717 0.37455 0.74443 0.0
C43 C 0.90229 0.31334 0.95286 0.0
C44 C 0.87879 0.43517 0.88702 0.0
O45 O 0.91974 0.36423 0.70535 0.0
O46 O 0.94531 0.38231 0.83452 0.0
O47 O 0.88841 0.41509 0.95466 0.0
O48 O 0.87584 0.42236 0.80221 0.0
C49 C 0.82348 0.35798 0.81998 0.0
O50 O 0.90439 0.34263 0.99133 0.0
O51 O 0.895 0.31266 0.86228 0.0
In52 In 0.35361 0.37405 0.14417 0.0
O53 O 0.35344 0.31967 0.19687 0.0
O54 O 0.31592 0.33361 0.0907 0.0
C55 C 0.34933 0.42794 0.02443 0.0
C56 C 0.31868 0.39503 0.30186 0.0
C57 C 0.41972 0.363 0.10888 0.0
O58 O 0.33845 0.39908 0.99744 0.0
O59 O 0.3609 0.4295 0.11092 0.0
O60 O 0.40949 0.37382 0.1917 0.0
O61 O 0.39672 0.35706 0.04621 0.0
C62 C 0.32828 0.31057 0.1453 0.0
O63 O 0.35076 0.39163 0.30447 0.0
O64 O 0.30495 0.38929 0.21949 0.0
In65 In 0.38405 0.62951 0.89726 0.0
O66 O 0.33149 0.64443 0.95339 0.0
O67 O 0.33843 0.63604 0.79868 0.0
C68 C 0.43218 0.63355 0.03634 0.0
C69 C 0.40849 0.67897 0.78101 0.0
C70 C 0.37247 0.56237 0.89876 0.0
O71 O 0.40302 0.64679 0.04951 0.0
O72 O 0.43644 0.61855 0.95496 0.0
O73 O 0.38461 0.577 0.82298 0.0
O74 O 0.36716 0.58149 0.97189 0.0
C75 C 0.31808 0.64262 0.86825 0.0
O76 O 0.41605 0.64795 0.76669 0.0
O77 O 0.38945 0.6843 0.85464 0.0
In78 In 0.63263 0.61959 0.14012 0.0
O79 O 0.66214 0.66084 0.05715 0.0
O80 O 0.63713 0.67384 0.19151 0.0
C81 C 0.62609 0.56844 0.01157 0.0
C82 C 0.68451 0.60065 0.25673 0.0
C83 C 0.56532 0.62702 0.16886 0.0
O84 O 0.63299 0.59832 0.98261 0.0
O85 O 0.62289 0.56489 0.10372 0.0
O86 O 0.58411 0.61286 0.23285 0.0
O87 O 0.58071 0.63809 0.09372 0.0
C88 C 0.65583 0.68337 0.12128 0.0
O89 O 0.65678 0.61178 0.29175 0.0
O90 O 0.68478 0.5965 0.16464 0.0
In91 In 0.60977 0.36917 0.82303 0.0
O92 O 0.65876 0.35053 0.89567 0.0
O93 O 0.66103 0.37395 0.75249 0.0
C94 C 0.55151 0.36233 0.92305 0.0
C95 C 0.59955 0.31898 0.69641 0.0
C96 C 0.61249 0.43651 0.84655 0.0
O97 O 0.58023 0.35813 0.96462 0.0
O98 O 0.55264 0.36817 0.83154 0.0
O99 O 0.60239 0.42358 0.76576 0.0
O100 O 0.62103 0.41559 0.91276 0.0
C101 C 0.67694 0.36034 0.82336 0.0
O102 O 0.59728 0.34996 0.66992 0.0
O103 O 0.60647 0.31369 0.78633 0.0
In104 In 0.84604 0.61767 0.65597 0.0
O105 O 0.83127 0.59989 0.5018 0.0
O106 O 0.79174 0.60867 0.60708 0.0
C107 C 0.91392 0.62292 0.65635 0.0
C108 C 0.83045 0.68387 0.66281 0.0
C109 C 0.84555 0.56581 0.78293 0.0
O110 O 0.89808 0.61147 0.58205 0.0
O111 O 0.89557 0.63256 0.72739 0.0
O112 O 0.83709 0.59543 0.81022 0.0
O113 O 0.85253 0.56251 0.6928 0.0
C114 C 0.79964 0.6009 0.51977 0.0
O115 O 0.81921 0.66322 0.72674 0.0
O116 O 0.84904 0.67089 0.59687 0.0
In117 In 0.60764 0.14193 0.34963 0.0
O118 O 0.64749 0.15984 0.23855 0.0
O119 O 0.66315 0.14675 0.38483 0.0
C120 C 0.54797 0.13437 0.258 0.0
C121 C 0.59703 0.19876 0.45373 0.0
C122 C 0.61927 0.07575 0.38255 0.0
O123 O 0.5747 0.14219 0.2107 0.0
O124 O 0.55171 0.13045 0.3499 0.0
O125 O 0.60915 0.0951 0.45147 0.0
O126 O 0.6228 0.08968 0.2994 0.0
C127 C 0.67171 0.15616 0.29954 0.0
O128 O 0.60444 0.17078 0.49496 0.0
O129 O 0.59322 0.1974 0.36149 0.0
In130 In 0.15393 0.38483 0.67775 0.0
O131 O 0.17761 0.3364 0.74295 0.0
O132 O 0.15286 0.3341 0.60308 0.0
C133 C 0.14819 0.43315 0.8137 0.0
C134 C 0.20918 0.40261 0.57509 0.0
C135 C 0.08673 0.38279 0.64906 0.0
O136 O 0.1545 0.40264 0.83839 0.0
O137 O 0.14595 0.4389 0.72234 0.0
O138 O 0.10617 0.39827 0.5892 0.0
O139 O 0.10133 0.3679 0.71997 0.0
C140 C 0.16931 0.3185 0.66893 0.0
O141 O 0.18066 0.39774 0.53368 0.0
O142 O 0.20885 0.4015 0.66802 0.0
In143 In 0.39809 0.84775 0.41132 0.0
O144 O 0.34797 0.82671 0.35425 0.0
O145 O 0.34901 0.85296 0.49422 0.0
C146 C 0.45544 0.84988 0.30605 0.0
C147 C 0.41393 0.79685 0.53254 0.0
C148 C 0.38623 0.91308 0.37628 0.0
O149 O 0.42773 0.83927 0.26806 0.0
O150 O 0.4541 0.85708 0.39683 0.0
O151 O 0.39945 0.9036 0.45766 0.0
O152 O 0.37924 0.88959 0.31578 0.0
C153 C 0.33152 0.83801 0.42846 0.0
O154 O 0.41943 0.82776 0.55537 0.0
O155 O 0.40114 0.79223 0.44768 0.0
In156 In 0.85887 0.89266 0.62487 0.0
O157 O 0.85015 0.91404 0.77964 0.0
O158 O 0.80698 0.90368 0.68914 0.0
C159 C 0.92629 0.88304 0.6149 0.0
C160 C 0.8382 0.82777 0.63058 0.0
C161 C 0.85505 0.94093 0.48648 0.0
O162 O 0.91276 0.8986 0.68665 0.0
O163 O 0.90597 0.8722 0.55008 0.0
O164 O 0.84639 0.91061 0.46823 0.0
O165 O 0.86437 0.9468 0.57366 0.0
C166 C 0.81804 0.91304 0.77202 0.0
O167 O 0.82537 0.84898 0.57094 0.0
O168 O 0.86128 0.83947 0.68576 0.0
In169 In 0.88336 0.13488 0.28613 0.0
O170 O 0.89868 0.15788 0.13865 0.0
O171 O 0.89004 0.19072 0.26354 0.0
C172 C 0.87285 0.06868 0.30825 0.0
C173 C 0.81692 0.14687 0.27609 0.0
C174 C 0.94196 0.13673 0.384 0.0
O175 O 0.88313 0.08068 0.22622 0.0
O176 O 0.86831 0.09006 0.37677 0.0
O177 O 0.91515 0.15 0.42019 0.0
O178 O 0.93858 0.12285 0.30023 0.0
C179 C 0.89733 0.18804 0.17284 0.0
O180 O 0.83319 0.14978 0.35698 0.0
O181 O 0.83468 0.13899 0.20172 0.0
In182 In 0.14577 0.11263 0.56412 0.0
O183 O 0.16047 0.10058 0.7229 0.0
O184 O 0.19725 0.09314 0.60794 0.0
C185 C 0.08023 0.12614 0.52745 0.0
C186 C 0.16608 0.1768 0.58598 0.0
C187 C 0.14587 0.0591 0.44463 0.0
O188 O 0.08898 0.10555 0.59527 0.0
O189 O 0.10467 0.14066 0.48373 0.0
O190 O 0.15954 0.087 0.41787 0.0
O191 O 0.13281 0.05875 0.52984 0.0
C192 C 0.19105 0.09361 0.69928 0.0
O193 O 0.17687 0.15862 0.51474 0.0
O194 O 0.14493 0.16235 0.64268 0.0
In195 In 0.12042 0.85646 0.38073 0.0
O196 O 0.16262 0.84024 0.48776 0.0
O197 O 0.17541 0.85064 0.33743 0.0
C198 C 0.06274 0.86225 0.48506 0.0
C199 C 0.10652 0.80226 0.26846 0.0
C200 C 0.13052 0.92271 0.34559 0.0
O201 O 0.08993 0.85141 0.52415 0.0
O202 O 0.06475 0.86968 0.39484 0.0
O203 O 0.12162 0.90265 0.27726 0.0
O204 O 0.13402 0.90942 0.42957 0.0
C205 C 0.18545 0.84182 0.42194 0.0
O206 O 0.10729 0.83202 0.23298 0.0
O207 O 0.11219 0.80005 0.35976 0.0
C208 C 0.3928 0.96189 0.25977 0.0
C209 C 0.3794 0.94903 0.34965 0.0
C210 C 0.34258 -0.0006 0.36388 0.0
C211 C 0.35773 0.01308 0.27752 0.0
N212 N 0.40484 0.01139 0.16152 0.0
N213 N 0.34609 0.95848 0.49722 0.0
C214 C 0.38509 0.99557 0.23098 0.0
C215 C 0.35608 0.96893 0.4056 0.0
N216 N 0.4124 0.94188 0.19971 0.0
N217 N 0.31392 0.01409 0.40228 0.0
H218 H 0.35377 0.93556 0.52869 0.0
H219 H 0.33209 0.97376 0.54514 0.0
H220 H 0.3026 0.03571 0.37216 0.0
H221 H 0.29947 0.00304 0.45817 0.0
H222 H 0.41852 0.9486 0.12751 0.0
H223 H 0.42063 0.91754 0.21799 0.0
H224 H 0.42751 0.00104 0.13494 0.0
H225 H 0.40128 0.03638 0.13839 0.0
C226 C 0.00293 0.59502 0.72322 0.0
C227 C 0.01876 0.6273 0.73399 0.0
C228 C 0.96813 0.65577 0.66795 0.0
C229 C 0.95143 0.62378 0.6641 0.0
N230 N 0.95349 0.56253 0.66975 0.0
N231 N 0.02024 0.68744 0.69957 0.0
C232 C 0.96921 0.59317 0.68495 0.0
C233 C 0.00265 0.65738 0.69982 0.0
N234 N 0.02004 0.56635 0.75226 0.0
N235 N 0.95031 0.68461 0.64462 0.0
H236 H 0.04514 0.68963 0.72549 0.0
H237 H 0.01123 0.70989 0.66849 0.0
H238 H 0.92569 0.68391 0.6156 0.0
H239 H 0.95921 0.70922 0.65591 0.0
H240 H 0.00926 0.54225 0.75711 0.0
H241 H 0.04558 0.56672 0.77366 0.0
H242 H 0.96529 0.539 0.67749 0.0
H243 H 0.92858 0.56041 0.6438 0.0
C244 C 0.67108 0.99674 0.35013 0.0
C245 C 0.6445 0.97255 0.34213 0.0
C246 C 0.6027 0.01449 0.39918 0.0
C247 C 0.62858 0.03958 0.39594 0.0
N248 N 0.68804 0.05398 0.39795 0.0
N249 N 0.58766 0.9546 0.38215 0.0
C250 C 0.66314 0.0303 0.38188 0.0
C251 C 0.61113 0.98021 0.37538 0.0
N252 N 0.70335 0.98802 0.3218 0.0
N253 N 0.56994 0.02395 0.41952 0.0
H254 H 0.59368 0.92937 0.36537 0.0
H255 H 0.56321 0.95759 0.41041 0.0
H256 H 0.56363 0.04859 0.44158 0.0
H257 H 0.54896 0.00795 0.41298 0.0
H258 H 0.72337 0.00521 0.31513 0.0
H259 H 0.70993 0.9632 0.30205 0.0
H260 H 0.71401 0.04878 0.39511 0.0
H261 H 0.68248 0.07854 0.42242 0.0
C262 C 0.0307 0.41273 0.66638 0.0
C263 C 0.04918 0.38287 0.64189 0.0
C264 C 0.99786 0.34809 0.66192 0.0
C265 C 0.97975 0.37771 0.69064 0.0
N266 N 0.9754 0.43877 0.69468 0.0
N267 N 0.04933 0.32446 0.58955 0.0
C268 C 0.99508 0.41028 0.6839 0.0
C269 C 0.03225 0.3513 0.63032 0.0
N270 N 0.04751 0.44287 0.67935 0.0
N271 N 0.98304 0.31677 0.67134 0.0
H272 H 0.07454 0.32643 0.56557 0.0
H273 H 0.0378 0.30147 0.57111 0.0
H274 H 0.95775 0.31343 0.69273 0.0
H275 H 0.99627 0.29397 0.66343 0.0
H276 H 0.0363 0.46448 0.70965 0.0
H277 H 0.07342 0.44585 0.66487 0.0
H278 H 0.98427 0.46338 0.68256 0.0
H279 H 0.94917 0.43753 0.70708 0.0
C280 C 0.32432 0.48338 0.97436 0.0
C281 C 0.34969 0.45834 0.96087 0.0
C282 C 0.38789 0.50008 0.8853 0.0
C283 C 0.36317 0.52579 0.90331 0.0
N284 N 0.30472 0.54056 0.9396 0.0
N285 N 0.40042 0.43953 0.87848 0.0
C286 C 0.33025 0.51689 0.93918 0.0
C287 C 0.37965 0.46563 0.90695 0.0
N288 N 0.29534 0.47541 0.02535 0.0
N289 N 0.42004 0.5087 0.85558 0.0
H290 H 0.39482 0.41416 0.89465 0.0
H291 H 0.42123 0.44263 0.83172 0.0
H292 H 0.42741 0.53357 0.83989 0.0
H293 H 0.44021 0.49151 0.85307 0.0
H294 H 0.27766 0.49336 0.04926 0.0
H295 H 0.28967 0.45058 0.04727 0.0
H296 H 0.27938 0.53488 0.95515 0.0
H297 H 0.30834 0.56557 0.91648 0.0
C298 C 0.4723 0.6031 0.14658 0.0
C299 C 0.46014 0.63449 0.10945 0.0
C300 C 0.51286 0.6624 0.16135 0.0
C301 C 0.5277 0.6299 0.17626 0.0
N302 N 0.52112 0.56916 0.19541 0.0
N303 N 0.46611 0.69507 0.0917 0.0
C304 C 0.50705 0.60022 0.17548 0.0
C305 C 0.47928 0.66469 0.12241 0.0
N306 N 0.45044 0.5761 0.15238 0.0
N307 N 0.53127 0.69086 0.18402 0.0
H308 H 0.44098 0.69757 0.06787 0.0
H309 H 0.4801 0.71751 0.08736 0.0
H310 H 0.55575 0.68941 0.21392 0.0
H311 H 0.52147 0.71546 0.18176 0.0
H312 H 0.45651 0.55295 0.18522 0.0
H313 H 0.42488 0.5781 0.13171 0.0
H314 H 0.50862 0.54614 0.18433 0.0
H315 H 0.54605 0.56611 0.22002 0.0
C316 C 0.58789 0.48597 0.93743 0.0
C317 C 0.61182 0.47336 0.86811 0.0
C318 C 0.64329 0.5272 0.87648 0.0
C319 C 0.61879 0.53958 0.94468 0.0
N320 N 0.56154 0.53602 0.00715 0.0
N321 N 0.65746 0.48443 0.75357 0.0
C322 C 0.58891 0.52068 0.96364 0.0
C323 C 0.63773 0.495 0.83063 0.0
N324 N 0.56549 0.46457 0.98318 0.0
N325 N 0.67273 0.5449 0.8605 0.0
H326 H 0.65426 0.46076 0.72002 0.0
H327 H 0.67489 0.50014 0.71777 0.0
H328 H 0.67754 0.56857 0.89214 0.0
H329 H 0.69324 0.53519 0.82068 0.0
H330 H 0.54983 0.47222 0.04115 0.0
H331 H 0.56497 0.43849 0.97031 0.0
H332 H 0.53802 0.52403 0.01544 0.0
H333 H 0.56135 0.56195 0.02394 0.0
C334 C 0.47554 0.33351 0.07881 0.0
C335 C 0.45582 0.36368 0.07888 0.0
C336 C 0.49742 0.39198 0.97342 0.0
C337 C 0.51872 0.36262 0.97784 0.0
N338 N 0.52957 0.30621 0.04194 0.0
N339 N 0.45198 0.424 0.05011 0.0
C340 C 0.50843 0.33372 0.03387 0.0
C341 C 0.46815 0.39366 0.03405 0.0
N342 N 0.46224 0.30445 0.11865 0.0
N343 N 0.50404 0.41792 0.90892 0.0
H344 H 0.43035 0.42623 0.09422 0.0
H345 H 0.46195 0.44736 0.02801 0.0
H346 H 0.52525 0.41904 0.86322 0.0
H347 H 0.4868 0.43749 0.89472 0.0
H348 H 0.47334 0.28052 0.1113 0.0
H349 H 0.43889 0.30407 0.15554 0.0
H350 H 0.52529 0.28613 0.09044 0.0
H351 H 0.55238 0.30397 0.00312 0.0
C352 C 0.83484 0.48003 0.89966 0.0
C353 C 0.86976 0.47103 0.9036 0.0
C354 C 0.88587 0.5303 0.87737 0.0
C355 C 0.85166 0.5374 0.85127 0.0
N356 N 0.7927 0.52119 0.84445 0.0
N357 N 0.92893 0.48686 0.90417 0.0
C358 C 0.82566 0.51311 0.86692 0.0
C359 C 0.89546 0.49616 0.89753 0.0
N360 N 0.81078 0.45652 0.92524 0.0
N361 N 0.90908 0.55619 0.87988 0.0
H362 H 0.93641 0.46214 0.92226 0.0
H363 H 0.94919 0.50307 0.88839 0.0
H364 H 0.9022 0.58138 0.86567 0.0
H365 H 0.9341 0.55335 0.90393 0.0
H366 H 0.78484 0.4618 0.92991 0.0
H367 H 0.81736 0.4322 0.94978 0.0
H368 H 0.77289 0.50359 0.84305 0.0
H369 H 0.78547 0.54577 0.82393 0.0
C370 C 0.49775 0.15251 0.1532 0.0
C371 C 0.51471 0.12748 0.21072 0.0
C372 C 0.46219 0.09475 0.22484 0.0
C373 C 0.44534 0.11871 0.16357 0.0
N374 N 0.44824 0.167 0.05411 0.0
N375 N 0.51619 0.06977 0.27028 0.0
C376 C 0.46365 0.14631 0.1217 0.0
C377 C 0.49787 0.09695 0.23637 0.0
N378 N 0.51322 0.18298 0.13424 0.0
N379 N 0.44415 0.07074 0.27572 0.0
H380 H 0.54272 0.07019 0.27517 0.0
H381 H 0.50552 0.04582 0.28208 0.0
H382 H 0.41776 0.06859 0.2722 0.0
H383 H 0.45512 0.055 0.32882 0.0
H384 H 0.50068 0.20364 0.10267 0.0
H385 H 0.53801 0.18857 0.15639 0.0
H386 H 0.46126 0.18548 0.01398 0.0
H387 H 0.42289 0.16397 0.03266 0.0
C388 C 0.159 0.51696 0.9409 0.0
C389 C 0.12434 0.52708 0.94015 0.0
C390 C 0.10677 0.46874 0.90428 0.0
C391 C 0.14124 0.46067 0.88447 0.0
N392 N 0.2008 0.47421 0.8936 0.0
N393 N 0.06474 0.51324 0.93102 0.0
C394 C 0.16767 0.48372 0.90813 0.0
C395 C 0.09797 0.5029 0.92742 0.0
N396 N 0.18332 0.53956 0.97103 0.0
N397 N 0.08266 0.44375 0.89804 0.0
H398 H 0.05778 0.53789 0.95145 0.0
H399 H 0.04418 0.49801 0.91106 0.0
H400 H 0.08895 0.41862 0.88092 0.0
H401 H 0.05719 0.4471 0.91692 0.0
H402 H 0.209 0.53359 0.97882 0.0
H403 H 0.17714 0.56394 0.99587 0.0
H404 H 0.22149 0.49064 0.89925 0.0
H405 H 0.20746 0.44943 0.87351 0.0
C406 C 0.50058 0.89079 0.24948 0.0
C407 C 0.48677 0.85719 0.24816 0.0
C408 C 0.53826 0.8365 0.16445 0.0
C409 C 0.55178 0.86995 0.16698 0.0
N410 N 0.54279 0.93013 0.18586 0.0
N411 N 0.48955 0.79929 0.189 0.0
C412 C 0.53175 0.89749 0.20024 0.0
C413 C 0.5045 0.8305 0.19942 0.0
N414 N 0.48487 0.91613 0.30165 0.0
N415 N 0.55839 0.81034 0.1324 0.0
H416 H 0.46583 0.79328 0.21877 0.0
H417 H 0.49962 0.77989 0.14568 0.0
H418 H 0.58245 0.81436 0.10166 0.0
H419 H 0.55203 0.78475 0.13954 0.0
H420 H 0.49617 0.93954 0.31658 0.0
H421 H 0.46136 0.91338 0.3361 0.0
H422 H 0.52778 0.9515 0.19916 0.0
H423 H 0.56587 0.9359 0.15166 0.0
C424 C 0.88623 0.97477 0.36125 0.0
C425 C 0.85545 0.96815 0.41208 0.0
C426 C 0.83262 0.0232 0.36108 0.0
C427 C 0.86549 0.03226 0.32558 0.0
N428 N 0.92397 0.01725 0.29126 0.0
N429 N 0.79828 0.98364 0.45657 0.0
C430 C 0.89223 0.00792 0.3229 0.0
C431 C 0.82802 0.99141 0.40902 0.0
N432 N 0.90986 0.94941 0.35184 0.0
N433 N 0.80601 0.04528 0.34957 0.0
H434 H 0.79382 0.9598 0.48796 0.0
H435 H 0.7785 0.00083 0.46792 0.0
H436 H 0.80892 0.06922 0.31785 0.0
H437 H 0.78076 0.03927 0.365 0.0
H438 H 0.93174 0.95143 0.30887 0.0
H439 H 0.90601 0.92506 0.38054 0.0
H440 H 0.94553 0.00206 0.2988 0.0
H441 H 0.92938 0.04117 0.26209 0.0
C442 C 0.00369 0.14817 0.36759 0.0
C443 C 0.97618 0.13938 0.42966 0.0
C444 C 0.01679 0.13002 0.5642 0.0
C445 C 0.04423 0.13144 0.49546 0.0
N446 N 0.06077 0.13347 0.32218 0.0
N447 N 0.95678 0.11782 0.58679 0.0
C448 C 0.03699 0.13839 0.39446 0.0
C449 C 0.98265 0.12932 0.52836 0.0
N450 N 0.9981 0.16618 0.28297 0.0
N451 N 0.02298 0.13081 0.66323 0.0
H452 H 0.93154 0.11656 0.56325 0.0
H453 H 0.96096 0.10687 0.65574 0.0
H454 H 0.04729 0.13391 0.69277 0.0
H455 H 0.0036 0.13262 0.71551 0.0
H456 H 0.01787 0.1754 0.2391 0.0
H457 H 0.97405 0.17545 0.26407 0.0
H458 H 0.05497 0.13576 0.24744 0.0
H459 H 0.08463 0.12272 0.33416 0.0
C460 C 0.10601 0.98111 0.33764 0.0
C461 C 0.13494 0.95969 0.33227 0.0
C462 C 0.17278 0.00775 0.36734 0.0
C463 C 0.14361 0.02845 0.38186 0.0
N464 N 0.08395 0.03856 0.3547 0.0
N465 N 0.1954 0.95315 0.31325 0.0
C466 C 0.11068 0.0163 0.35731 0.0
C467 C 0.16828 0.97339 0.33683 0.0
N468 N 0.07411 0.96733 0.33053 0.0
N469 N 0.20437 0.02026 0.38928 0.0
H470 H 0.1923 0.92795 0.29049 0.0
H471 H 0.22039 0.96182 0.30832 0.0
H472 H 0.20843 0.04559 0.40895 0.0
H473 H 0.22637 0.00549 0.39147 0.0
H474 H 0.05179 0.98057 0.34616 0.0
H475 H 0.06999 0.94186 0.31242 0.0
H476 H 0.05965 0.03226 0.33002 0.0
H477 H 0.08697 0.06439 0.36989 0.0
C478 C 0.98361 0.90692 0.57383 0.0
C479 C 0.96344 0.8788 0.60352 0.0
C480 C 0.01082 0.83971 0.57104 0.0
C481 C 0.03082 0.86783 0.54033 0.0
N482 N 0.04008 0.92837 0.53594 0.0
N483 N 0.95926 0.82006 0.65232 0.0
C484 C 0.01839 0.90155 0.54958 0.0
C485 C 0.97762 0.84567 0.60947 0.0
N486 N 0.96905 0.93834 0.56317 0.0
N487 N 0.0228 0.80733 0.5583 0.0
H488 H 0.93489 0.82384 0.68115 0.0
H489 H 0.96911 0.796 0.66709 0.0
H490 H 0.04724 0.8021 0.5322 0.0
H491 H 0.00799 0.78562 0.56817 0.0
H492 H 0.98127 0.95884 0.52985 0.0
H493 H 0.94378 0.94346 0.58182 0.0
H494 H 0.03349 0.95356 0.55017 0.0
H495 H 0.06584 0.92513 0.51914 0.0
C496 C 0.30602 0.2558 0.0693 0.0
C497 C 0.31422 0.27558 0.15361 0.0
C498 C 0.31381 0.22439 0.25695 0.0
C499 C 0.30773 0.2046 0.1716 0.0
N500 N 0.28283 0.2024 0.01014 0.0
N501 N 0.31038 0.28046 0.33037 0.0
C502 C 0.29849 0.2208 0.08236 0.0
C503 C 0.31294 0.26039 0.2486 0.0
N504 N 0.30783 0.26925 0.97659 0.0
N505 N 0.32241 0.20928 0.34408 0.0
H506 H 0.30767 0.30681 0.32513 0.0
H507 H 0.30675 0.27078 0.40113 0.0
H508 H 0.32247 0.18303 0.35428 0.0
H509 H 0.33116 0.22293 0.40488 0.0
H510 H 0.30574 0.25446 0.9131 0.0
H511 H 0.31396 0.29449 0.96202 0.0
H512 H 0.27309 0.2133 0.94598 0.0
H513 H 0.27617 0.17693 0.02078 0.0
C514 C 0.2266 0.62584 0.7847 0.0
C515 C 0.20914 0.64939 0.84529 0.0
C516 C 0.2635 0.67419 0.89724 0.0
C517 C 0.2809 0.64673 0.85158 0.0
N518 N 0.2785 0.59452 0.75573 0.0
N519 N 0.20995 0.69633 0.95935 0.0
C520 C 0.26247 0.62239 0.79455 0.0
C521 C 0.22733 0.67382 0.90122 0.0
N522 N 0.20886 0.60622 0.71914 0.0
N523 N 0.28152 0.70123 0.93333 0.0
H524 H 0.18344 0.69847 0.95801 0.0
H525 H 0.22163 0.71176 0.0118 0.0
H526 H 0.30796 0.70306 0.92744 0.0
H527 H 0.27017 0.7234 0.95963 0.0
H528 H 0.22051 0.5915 0.6649 0.0
H529 H 0.18243 0.60693 0.71254 0.0
H530 H 0.26554 0.5738 0.72604 0.0
H531 H 0.30456 0.59009 0.76009 0.0
C532 C 0.68121 0.77258 0.04142 0.0
C533 C 0.68546 0.78766 0.13545 0.0
C534 C 0.68599 0.73069 0.20838 0.0
C535 C 0.67092 0.71789 0.12039 0.0
N536 N 0.65415 0.72735 0.95066 0.0
N537 N 0.70325 0.77991 0.30421 0.0
C538 C 0.6692 0.73872 0.03526 0.0
C539 C 0.69169 0.76635 0.21789 0.0
N540 N 0.68945 0.79042 0.95842 0.0
N541 N 0.69593 0.70858 0.28077 0.0
H542 H 0.71435 0.80396 0.30784 0.0
H543 H 0.70296 0.767 0.37122 0.0
H544 H 0.69328 0.68228 0.27418 0.0
H545 H 0.70961 0.71573 0.3431 0.0
H546 H 0.68909 0.7797 0.88814 0.0
H547 H 0.70101 0.81432 0.96197 0.0
H548 H 0.64926 0.74321 0.8907 0.0
H549 H 0.64389 0.70307 0.94294 0.0
C550 C 0.73187 0.32726 0.83615 0.0
C551 C 0.71462 0.35869 0.82276 0.0
C552 C 0.76865 0.38659 0.78257 0.0
C553 C 0.78624 0.35634 0.80735 0.0
N554 N 0.78561 0.29883 0.86908 0.0
N555 N 0.71753 0.41985 0.80617 0.0
C556 C 0.76814 0.3269 0.8376 0.0
C557 C 0.73324 0.38881 0.80169 0.0
N558 N 0.71375 0.29766 0.84333 0.0
N559 N 0.78579 0.41335 0.74152 0.0
H560 H 0.69208 0.4228 0.82646 0.0
H561 H 0.73057 0.44287 0.80103 0.0
H562 H 0.81189 0.41282 0.72745 0.0
H563 H 0.77364 0.43483 0.71332 0.0
H564 H 0.72506 0.27368 0.84316 0.0
H565 H 0.68721 0.29684 0.84096 0.0
H566 H 0.77394 0.27812 0.90309 0.0
H567 H 0.81214 0.29715 0.86638 0.0
C568 C 0.82721 0.74154 0.74564 0.0
C569 C 0.82261 0.72073 0.66127 0.0
C570 C 0.82231 0.77097 0.55491 0.0
C571 C 0.82705 0.79186 0.6392 0.0
N572 N 0.81963 0.79775 0.81498 0.0
N573 N 0.80155 0.71683 0.49493 0.0
C574 C 0.82471 0.77734 0.73482 0.0
C575 C 0.81534 0.73594 0.5689 0.0
N576 N 0.83611 0.72776 0.83443 0.0
N577 N 0.82674 0.78354 0.46187 0.0
H578 H 0.79456 0.69148 0.50568 0.0
H579 H 0.79328 0.7272 0.42834 0.0
H580 H 0.83323 0.80867 0.44677 0.0
H581 H 0.827 0.76805 0.39951 0.0
H582 H 0.84343 0.74254 0.8946 0.0
H583 H 0.83888 0.70176 0.84641 0.0
H584 H 0.81505 0.78822 0.88547 0.0
H585 H 0.81585 0.82394 0.80848 0.0
C586 C 0.75867 0.12993 0.21312 0.0
C587 C 0.77965 0.1527 0.26818 0.0
C588 C 0.72888 0.18204 0.32951 0.0
C589 C 0.70809 0.1596 0.27396 0.0
N590 N 0.70319 0.1181 0.14336 0.0
N591 N 0.78478 0.20683 0.35129 0.0
C592 C 0.72301 0.13581 0.20848 0.0
C593 C 0.76478 0.18074 0.31809 0.0
N594 N 0.77205 0.10125 0.17097 0.0
N595 N 0.71438 0.20414 0.395 0.0
H596 H 0.81107 0.20763 0.34057 0.0
H597 H 0.77495 0.22942 0.37963 0.0
H598 H 0.68811 0.20719 0.4016 0.0
H599 H 0.72835 0.21795 0.44659 0.0
H600 H 0.75712 0.08156 0.14311 0.0
H601 H 0.79778 0.09507 0.17076 0.0
H602 H 0.71322 0.10358 0.08603 0.0
H603 H 0.67679 0.12023 0.14 0.0
C604 C 0.18698 0.27133 0.55782 0.0
C605 C 0.17866 0.28219 0.6547 0.0
C606 C 0.17936 0.22276 0.70676 0.0
C607 C 0.17718 0.21231 0.60656 0.0
N608 N 0.17746 0.22856 0.43369 0.0
N609 N 0.16542 0.26683 0.82361 0.0
C610 C 0.18128 0.23693 0.53078 0.0
C611 C 0.17508 0.25764 0.73062 0.0
N612 N 0.20051 0.29388 0.49189 0.0
N613 N 0.1858 0.1994 0.77903 0.0
H614 H 0.16122 0.29185 0.84534 0.0
H615 H 0.15887 0.24908 0.8775 0.0
H616 H 0.19056 0.17384 0.76361 0.0
H617 H 0.19046 0.2062 0.85208 0.0
H618 H 0.20962 0.28656 0.42287 0.0
H619 H 0.20638 0.31892 0.51111 0.0
H620 H 0.17659 0.24679 0.37789 0.0
H621 H 0.17226 0.20413 0.40863 0.0
C622 C 0.24069 0.86976 0.45319 0.0
C623 C 0.22216 0.83917 0.44331 0.0
C624 C 0.27553 0.80672 0.43731 0.0
C625 C 0.29383 0.83786 0.43326 0.0
N626 N 0.29317 0.89918 0.41889 0.0
N627 N 0.22061 0.77835 0.42447 0.0
C628 C 0.27627 0.86946 0.43718 0.0
C629 C 0.2392 0.80748 0.43552 0.0
N630 N 0.22419 0.89915 0.47824 0.0
N631 N 0.29283 0.77667 0.44566 0.0
H632 H 0.19408 0.77807 0.42973 0.0
H633 H 0.23124 0.75489 0.40647 0.0
H634 H 0.31938 0.77535 0.44719 0.0
H635 H 0.28103 0.75336 0.45831 0.0
H636 H 0.23681 0.92168 0.49572 0.0
H637 H 0.19803 0.90006 0.49149 0.0
H638 H 0.28102 0.92256 0.41017 0.0
H639 H 0.31893 0.89999 0.40163 0.0
C640 C 0.21866 0.06706 0.84825 0.0
C641 C 0.21907 0.09194 0.77242 0.0
C642 C 0.27164 0.11655 0.84025 0.0
C643 C 0.27202 0.09077 0.91346 0.0
N644 N 0.25003 0.03808 0.97797 0.0
N645 N 0.24829 0.13801 0.68818 0.0
C646 C 0.24659 0.06509 0.9151 0.0
C647 C 0.24643 0.11568 0.76544 0.0
N648 N 0.19163 0.04527 0.85619 0.0
N649 N 0.29378 0.14341 0.84597 0.0
H650 H 0.22856 0.14241 0.63877 0.0
H651 H 0.2703 0.15145 0.6702 0.0
H652 H 0.31278 0.14562 0.8991 0.0
H653 H 0.29157 0.16537 0.80348 0.0
H654 H 0.18767 0.02937 0.91648 0.0
H655 H 0.17199 0.04423 0.80452 0.0
H656 H 0.23429 0.01678 0.97693 0.0
H657 H 0.27063 0.03549 0.02601 0.0
C658 C 0.13167 0.74929 0.19916 0.0
C659 C 0.1034 0.77162 0.20637 0.0
C660 C 0.07048 0.73517 0.09504 0.0
C661 C 0.09784 0.71155 0.09451 0.0
N662 N 0.15252 0.69323 0.15708 0.0
N663 N 0.04444 0.78432 0.1733 0.0
C664 C 0.12773 0.71761 0.15061 0.0
C665 C 0.07236 0.76423 0.15742 0.0
N666 N 0.16287 0.75928 0.23357 0.0
N667 N 0.04295 0.72996 0.03516 0.0
H668 H 0.04507 0.8059 0.21808 0.0
H669 H 0.02011 0.77836 0.14816 0.0
H670 H 0.03993 0.70803 0.99267 0.0
H671 H 0.02402 0.74807 0.02338 0.0
H672 H 0.18528 0.74578 0.221 0.0
H673 H 0.16711 0.78291 0.2662 0.0
H674 H 0.17293 0.69468 0.20597 0.0
H675 H 0.15156 0.6702 0.11917 0.0
C676 C 0.76445 0.88938 0.98999 0.0
C677 C 0.73791 0.91395 0.98431 0.0
C678 C 0.76742 0.942 0.84721 0.0
C679 C 0.79438 0.91805 0.85574 0.0
N680 N 0.82285 0.87496 0.95301 0.0
N681 N 0.71748 0.9677 0.92258 0.0
C682 C 0.79448 0.89403 0.93367 0.0
C683 C 0.74038 0.94155 0.91732 0.0
N684 N 0.76001 0.86 0.04265 0.0
N685 N 0.76749 0.96481 0.77114 0.0
H686 H 0.69775 0.9683 0.97409 0.0
H687 H 0.71972 0.99009 0.88205 0.0
H688 H 0.78811 0.96747 0.72313 0.0
H689 H 0.7467 0.98008 0.75323 0.0
H690 H 0.77677 0.83947 0.03903 0.0
H691 H 0.73789 0.85424 0.08146 0.0
H692 H 0.82528 0.85989 0.01583 0.0
H693 H 0.84523 0.87642 0.91221 0.0
C694 C 0.87048 0.24122 0.11122 0.0
C695 C 0.89876 0.21873 0.10979 0.0
C696 C 0.92937 0.25786 0.00024 0.0
C697 C 0.90259 0.28184 0.01174 0.0
N698 N 0.84938 0.29836 0.08787 0.0
N699 N 0.95626 0.20602 0.05925 0.0
C700 C 0.8738 0.27421 0.07073 0.0
C701 C 0.92851 0.227 0.0554 0.0
N702 N 0.83967 0.23024 0.14592 0.0
N703 N 0.95542 0.26455 0.93614 0.0
H704 H 0.95607 0.18273 0.096 0.0
H705 H 0.98005 0.21246 0.03091 0.0
H706 H 0.95774 0.28765 0.89871 0.0
H707 H 0.97367 0.24665 0.9158 0.0
H708 H 0.81719 0.24415 0.13951 0.0
H709 H 0.83565 0.20552 0.1708 0.0
H710 H 0.83014 0.29545 0.14007 0.0
H711 H 0.84966 0.32246 0.05601 0.0
C712 C 0.24503 0.43063 0.44528 0.0
C713 C 0.24134 0.40504 0.51836 0.0
C714 C 0.2953 0.37867 0.46684 0.0
C715 C 0.29744 0.40271 0.38907 0.0
N716 N 0.28051 0.45597 0.31758 0.0
N717 N 0.2652 0.35771 0.61019 0.0
C718 C 0.27416 0.43018 0.38282 0.0
C719 C 0.26746 0.38037 0.53376 0.0
N720 N 0.22038 0.455 0.43509 0.0
N721 N 0.31828 0.35251 0.47188 0.0
H722 H 0.24341 0.35402 0.65245 0.0
H723 H 0.28552 0.34302 0.635 0.0
H724 H 0.33991 0.35099 0.42778 0.0
H725 H 0.31549 0.33121 0.51665 0.0
H726 H 0.21922 0.47216 0.37681 0.0
H727 H 0.20019 0.45764 0.48452 0.0
H728 H 0.26612 0.47812 0.31237 0.0
H729 H 0.30223 0.45639 0.27313 0.0
C730 C 0.42872 0.73534 0.55741 0.0
C731 C 0.42082 0.76752 0.59956 0.0
C732 C 0.4224 0.74045 0.76155 0.0
C733 C 0.41959 0.70788 0.71716 0.0
N734 N 0.41761 0.67516 0.56477 0.0
N735 N 0.40526 0.79892 0.74781 0.0
C736 C 0.42256 0.70529 0.61283 0.0
C737 C 0.41679 0.76989 0.70357 0.0
N738 N 0.44272 0.7334 0.46539 0.0
N739 N 0.43051 0.74332 0.85906 0.0
H740 H 0.39776 0.82064 0.70994 0.0
H741 H 0.39935 0.79993 0.82272 0.0
H742 H 0.43693 0.72222 0.90188 0.0
H743 H 0.43512 0.76671 0.89285 0.0
H744 H 0.4512 0.71057 0.43484 0.0
H745 H 0.44994 0.75496 0.42558 0.0
H746 H 0.41601 0.67363 0.48816 0.0
H747 H 0.4122 0.65225 0.59953 0.0
C748 C 0.71648 0.57503 0.39926 0.0
C749 C 0.71585 0.59736 0.317 0.0
C750 C 0.77239 0.61936 0.3613 0.0
C751 C 0.77318 0.59674 0.44292 0.0
N752 N 0.75006 0.54831 0.52847 0.0
N753 N 0.74551 0.6368 0.20937 0.0
C754 C 0.74636 0.57316 0.45861 0.0
C755 C 0.74468 0.61792 0.29416 0.0
N756 N 0.68844 0.55577 0.42086 0.0
N757 N 0.79667 0.64417 0.35187 0.0
H758 H 0.72469 0.64043 0.16314 0.0
H759 H 0.76769 0.64773 0.18157 0.0
H760 H 0.81774 0.64642 0.39797 0.0
H761 H 0.79468 0.66451 0.30303 0.0
H762 H 0.68551 0.54221 0.48624 0.0
H763 H 0.66715 0.55448 0.37498 0.0
H764 H 0.73297 0.52836 0.53831 0.0
H765 H 0.77202 0.54586 0.57132 0.0
C766 C 0.57153 0.23458 0.58812 0.0
C767 C 0.59494 0.23124 0.50885 0.0
C768 C 0.62021 0.28658 0.54961 0.0
C769 C 0.59616 0.29038 0.62667 0.0
N770 N 0.54503 0.27184 0.70878 0.0
N771 N 0.63687 0.25719 0.40101 0.0
C772 C 0.57067 0.26543 0.64301 0.0
C773 C 0.61757 0.25833 0.48492 0.0
N774 N 0.55008 0.20829 0.61077 0.0
N775 N 0.6471 0.30862 0.54225 0.0
H776 H 0.63793 0.23637 0.35385 0.0
H777 H 0.6502 0.27811 0.37386 0.0
H778 H 0.65032 0.32959 0.58833 0.0
H779 H 0.66792 0.30455 0.49613 0.0
H780 H 0.53559 0.20724 0.67497 0.0
H781 H 0.54771 0.18658 0.56709 0.0
H782 H 0.52379 0.2563 0.71773 0.0
H783 H 0.54343 0.29442 0.74899 0.0
loop_
_geom_bond_atom_site_label_1
_geom_bond_atom_site_label_2
_geom_bond_distance
_geom_bond_site_symmetry_2
_ccdc_geom_bond_type
In0 O1 2.294 1_554 S
In0 O2 2.326 . S
In0 O6 2.266 . S
In0 O7 2.326 . S
In0 O8 2.266 . S
In0 O9 2.326 . S
In0 O11 2.294 . S
In0 O12 2.326 . S
O1 In0 2.294 1_556 S
O1 C10 1.240 1_556 S
O2 In0 2.326 . S
O2 C10 1.252 . S
C3 O6 1.252 . S
C3 O7 1.260 . S
C4 O11 1.240 . S
C4 O12 1.252 . S
C5 O8 1.252 . S
C5 O9 1.260 . S
O6 In0 2.266 . S
O6 C3 1.252 . S
O7 In0 2.326 . S
O7 C3 1.260 . S
O8 In0 2.266 . S
O8 C5 1.252 . S
O9 In0 2.326 . S
O9 C5 1.260 . S
C10 O1 1.240 1_554 S
C10 O2 1.252 . S
O11 In0 2.294 . S
O11 C4 1.240 . S
O12 In0 2.326 . S
O12 C4 1.252 . S
In13 O14 2.294 1_556 S
In13 O15 2.326 . S
In13 O19 2.266 . S
In13 O20 2.326 . S
In13 O21 2.266 . S
In13 O22 2.326 . S
In13 O24 2.294 . S
In13 O25 2.326 . S
O14 In13 2.294 1_554 S
O14 C23 1.240 1_554 S
O15 In13 2.326 . S
O15 C23 1.252 . S
C16 O19 1.252 . S
C16 O20 1.260 . S
C17 O24 1.240 . S
C17 O25 1.252 . S
C18 O21 1.252 . S
C18 O22 1.260 . S
O19 In13 2.266 . S
O19 C16 1.252 . S
O20 In13 2.326 . S
O20 C16 1.260 . S
O21 In13 2.266 . S
O21 C18 1.252 . S
O22 In13 2.326 . S
O22 C18 1.260 . S
C23 O14 1.240 1_556 S
C23 O15 1.252 . S
O24 In13 2.294 . S
O24 C17 1.240 . S
O25 In13 2.326 . S
O25 C17 1.252 . S
In26 O27 2.294 . S
In26 O28 2.326 . S
In26 O32 2.266 . S
In26 O33 2.326 . S
In26 O34 2.266 . S
In26 O35 2.326 . S
In26 O37 2.294 1_554 S
In26 O38 2.326 . S
O27 In26 2.294 . S
O27 C36 1.240 . S
O28 In26 2.326 . S
O28 C36 1.252 . S
C29 O32 1.252 . S
C29 O33 1.260 . S
C30 O37 1.240 1_554 S
C30 O38 1.252 . S
C31 O34 1.252 . S
C31 O35 1.260 . S
O32 In26 2.266 . S
O32 C29 1.252 . S
O33 In26 2.326 . S
O33 C29 1.260 . S
O34 In26 2.266 . S
O34 C31 1.252 . S
O35 In26 2.326 . S
O35 C31 1.260 . S
C36 O27 1.240 . S
C36 O28 1.252 . S
O37 In26 2.294 1_556 S
O37 C30 1.240 1_556 S
O38 In26 2.326 . S
O38 C30 1.252 . S
In39 O40 2.294 . S
In39 O41 2.326 . S
In39 O45 2.266 . S
In39 O46 2.326 . S
In39 O47 2.266 . S
In39 O48 2.326 . S
In39 O50 2.294 1_556 S
In39 O51 2.326 . S
O40 In39 2.294 . S
O40 C49 1.240 . S
O41 In39 2.326 . S
O41 C49 1.252 . S
C42 O45 1.252 . S
C42 O46 1.260 . S
C43 O50 1.240 1_556 S
C43 O51 1.252 . S
C44 O47 1.252 . S
C44 O48 1.260 . S
O45 In39 2.266 . S
O45 C42 1.252 . S
O46 In39 2.326 . S
O46 C42 1.260 . S
O47 In39 2.266 . S
O47 C44 1.252 . S
O48 In39 2.326 . S
O48 C44 1.260 . S
C49 O40 1.240 . S
C49 O41 1.252 . S
O50 In39 2.294 1_554 S
O50 C43 1.240 1_554 S
O51 In39 2.326 . S
O51 C43 1.252 . S
In52 O53 2.294 . S
In52 O54 2.326 . S
In52 O58 2.266 1_554 S
In52 O59 2.326 . S
In52 O60 2.266 . S
In52 O61 2.321 1_554 S
In52 O63 2.294 . S
In52 O64 2.326 . S
O53 In52 2.294 . S
O53 C62 1.240 . S
O54 In52 2.326 . S
O54 C62 1.252 . S
C55 O58 1.252 1_554 S
C55 O59 1.260 . S
C56 O63 1.240 . S
C56 O64 1.252 . S
C57 O60 1.252 . S
C57 O61 1.254 1_554 S
O58 In52 2.266 1_556 S
O58 C55 1.252 1_556 S
O59 In52 2.326 . S
O59 C55 1.260 . S
O60 In52 2.266 . S
O60 C57 1.252 . S
O61 In52 2.321 1_556 S
O61 C57 1.254 1_556 S
C62 O53 1.240 . S
C62 O54 1.252 . S
O63 In52 2.294 . S
O63 C56 1.240 . S
O64 In52 2.326 . S
O64 C56 1.252 . S
In65 O66 2.294 . S
In65 O67 2.326 . S
In65 O71 2.266 1_556 S
In65 O72 2.326 . S
In65 O73 2.266 . S
In65 O74 2.321 1_556 S
In65 O76 2.294 . S
In65 O77 2.326 . S
O66 In65 2.294 . S
O66 C75 1.240 . S
O67 In65 2.326 . S
O67 C75 1.252 . S
C68 O71 1.252 1_556 S
C68 O72 1.260 . S
C69 O76 1.240 . S
C69 O77 1.252 . S
C70 O73 1.252 . S
C70 O74 1.254 1_556 S
O71 In65 2.266 1_554 S
O71 C68 1.252 1_554 S
O72 In65 2.326 . S
O72 C68 1.260 . S
O73 In65 2.266 . S
O73 C70 1.252 . S
O74 In65 2.321 1_554 S
O74 C70 1.254 1_554 S
C75 O66 1.240 . S
C75 O67 1.252 . S
O76 In65 2.294 . S
O76 C69 1.240 . S
O77 In65 2.326 . S
O77 C69 1.252 . S
In78 O79 2.294 . S
In78 O80 2.326 . S
In78 O84 2.266 1_554 S
In78 O85 2.326 . S
In78 O86 2.266 . S
In78 O87 2.321 1_554 S
In78 O89 2.294 . S
In78 O90 2.326 . S
O79 In78 2.294 . S
O79 C88 1.240 . S
O80 In78 2.326 . S
O80 C88 1.252 . S
C81 O84 1.252 1_554 S
C81 O85 1.260 . S
C82 O89 1.240 . S
C82 O90 1.252 . S
C83 O86 1.252 . S
C83 O87 1.254 1_554 S
O84 In78 2.266 1_556 S
O84 C81 1.252 1_556 S
O85 In78 2.326 . S
O85 C81 1.260 . S
O86 In78 2.266 . S
O86 C83 1.252 . S
O87 In78 2.321 1_556 S
O87 C83 1.254 1_556 S
C88 O79 1.240 . S
C88 O80 1.252 . S
O89 In78 2.294 . S
O89 C82 1.240 . S
O90 In78 2.326 . S
O90 C82 1.252 . S
In91 O92 2.294 . S
In91 O93 2.326 . S
In91 O97 2.266 1_556 S
In91 O98 2.326 . S
In91 O99 2.266 . S
In91 O100 2.321 1_556 S
In91 O102 2.294 . S
In91 O103 2.326 . S
O92 In91 2.294 . S
O92 C101 1.240 . S
O93 In91 2.326 . S
O93 C101 1.252 . S
C94 O97 1.252 1_556 S
C94 O98 1.260 . S
C95 O102 1.240 . S
C95 O103 1.252 . S
C96 O99 1.252 . S
C96 O100 1.254 1_556 S
O97 In91 2.266 1_554 S
O97 C94 1.252 1_554 S
O98 In91 2.326 . S
O98 C94 1.260 . S
O99 In91 2.266 . S
O99 C96 1.252 . S
O100 In91 2.321 1_554 S
O100 C96 1.254 1_554 S
C101 O92 1.240 . S
C101 O93 1.252 . S
O102 In91 2.294 . S
O102 C95 1.240 . S
O103 In91 2.326 . S
O103 C95 1.252 . S
In104 O105 2.294 . S
In104 O106 2.326 . S
In104 O110 2.266 . S
In104 O111 2.326 . S
In104 O112 2.266 . S
In104 O113 2.326 . S
In104 O115 2.294 . S
In104 O116 2.326 . S
O105 In104 2.294 . S
O105 C114 1.240 . S
O106 In104 2.326 . S
O106 C114 1.252 . S
C107 O110 1.252 . S
C107 O111 1.260 . S
C108 O115 1.240 . S
C108 O116 1.252 . S
C109 O112 1.252 . S
C109 O113 1.260 . S
O110 In104 2.266 . S
O110 C107 1.252 . S
O111 In104 2.326 . S
O111 C107 1.260 . S
O112 In104 2.266 . S
O112 C109 1.252 . S
O113 In104 2.326 . S
O113 C109 1.260 . S
C114 O105 1.240 . S
C114 O106 1.252 . S
O115 In104 2.294 . S
O115 C108 1.240 . S
O116 In104 2.326 . S
O116 C108 1.252 . S
In117 O118 2.294 . S
In117 O119 2.326 . S
In117 O123 2.266 . S
In117 O124 2.326 . S
In117 O125 2.266 . S
In117 O126 2.326 . S
In117 O128 2.294 . S
In117 O129 2.326 . S
O118 In117 2.294 . S
O118 C127 1.240 . S
O119 In117 2.326 . S
O119 C127 1.252 . S
C120 O123 1.252 . S
C120 O124 1.260 . S
C121 O128 1.240 . S
C121 O129 1.252 . S
C122 O125 1.252 . S
C122 O126 1.260 . S
O123 In117 2.266 . S
O123 C120 1.252 . S
O124 In117 2.326 . S
O124 C120 1.260 . S
O125 In117 2.266 . S
O125 C122 1.252 . S
O126 In117 2.326 . S
O126 C122 1.260 . S
C127 O118 1.240 . S
C127 O119 1.252 . S
O128 In117 2.294 . S
O128 C121 1.240 . S
O129 In117 2.326 . S
O129 C121 1.252 . S
In130 O131 2.294 . S
In130 O132 2.326 . S
In130 O136 2.266 . S
In130 O137 2.326 . S
In130 O138 2.266 . S
In130 O139 2.326 . S
In130 O141 2.294 . S
In130 O142 2.326 . S
O131 In130 2.294 . S
O131 C140 1.240 . S
O132 In130 2.326 . S
O132 C140 1.252 . S
C133 O136 1.252 . S
C133 O137 1.260 . S
C134 O141 1.240 . S
C134 O142 1.252 . S
C135 O138 1.252 . S
C135 O139 1.260 . S
O136 In130 2.266 . S
O136 C133 1.252 . S
O137 In130 2.326 . S
O137 C133 1.260 . S
O138 In130 2.266 . S
O138 C135 1.252 . S
O139 In130 2.326 . S
O139 C135 1.260 . S
C140 O131 1.240 . S
C140 O132 1.252 . S
O141 In130 2.294 . S
O141 C134 1.240 . S
O142 In130 2.326 . S
O142 C134 1.252 . S
In143 O144 2.294 . S
In143 O145 2.326 . S
In143 O149 2.266 . S
In143 O150 2.326 . S
In143 O151 2.266 . S
In143 O152 2.326 . S
In143 O154 2.294 . S
In143 O155 2.326 . S
O144 In143 2.294 . S
O144 C153 1.240 . S
O145 In143 2.326 . S
O145 C153 1.252 . S
C146 O149 1.252 . S
C146 O150 1.260 . S
C147 O154 1.240 . S
C147 O155 1.252 . S
C148 O151 1.252 . S
C148 O152 1.260 . S
O149 In143 2.266 . S
O149 C146 1.252 . S
O150 In143 2.326 . S
O150 C146 1.260 . S
O151 In143 2.266 . S
O151 C148 1.252 . S
O152 In143 2.326 . S
O152 C148 1.260 . S
C153 O144 1.240 . S
C153 O145 1.252 . S
O154 In143 2.294 . S
O154 C147 1.240 . S
O155 In143 2.326 . S
O155 C147 1.252 . S
In156 O157 2.294 . S
In156 O158 2.326 . S
In156 O162 2.266 . S
In156 O163 2.326 . S
In156 O164 2.266 . S
In156 O165 2.326 . S
In156 O167 2.294 . S
In156 O168 2.326 . S
O157 In156 2.294 . S
O157 C166 1.240 . S
O158 In156 2.326 . S
O158 C166 1.252 . S
C159 O162 1.252 . S
C159 O163 1.260 . S
C160 O167 1.240 . S
C160 O168 1.252 . S
C161 O164 1.252 . S
C161 O165 1.260 . S
O162 In156 2.266 . S
O162 C159 1.252 . S
O163 In156 2.326 . S
O163 C159 1.260 . S
O164 In156 2.266 . S
O164 C161 1.252 . S
O165 In156 2.326 . S
O165 C161 1.260 . S
C166 O157 1.240 . S
C166 O158 1.252 . S
O167 In156 2.294 . S
O167 C160 1.240 . S
O168 In156 2.326 . S
O168 C160 1.252 . S
In169 O170 2.294 . S
In169 O171 2.326 . S
In169 O175 2.266 . S
In169 O176 2.326 . S
In169 O177 2.266 . S
In169 O178 2.326 . S
In169 O180 2.294 . S
In169 O181 2.326 . S
O170 In169 2.294 . S
O170 C179 1.240 . S
O171 In169 2.326 . S
O171 C179 1.252 . S
C172 O175 1.252 . S
C172 O176 1.260 . S
C173 O180 1.240 . S
C173 O181 1.252 . S
C174 O177 1.252 . S
C174 O178 1.260 . S
O175 In169 2.266 . S
O175 C172 1.252 . S
O176 In169 2.326 . S
O176 C172 1.260 . S
O177 In169 2.266 . S
O177 C174 1.252 . S
O178 In169 2.326 . S
O178 C174 1.260 . S
C179 O170 1.240 . S
C179 O171 1.252 . S
O180 In169 2.294 . S
O180 C173 1.240 . S
O181 In169 2.326 . S
O181 C173 1.252 . S
In182 O183 2.294 . S
In182 O184 2.326 . S
In182 O188 2.266 . S
In182 O189 2.326 . S
In182 O190 2.266 . S
In182 O191 2.326 . S
In182 O193 2.294 . S
In182 O194 2.326 . S
O183 In182 2.294 . S
O183 C192 1.240 . S
O184 In182 2.326 . S
O184 C192 1.252 . S
C185 O188 1.252 . S
C185 O189 1.260 . S
C186 O193 1.240 . S
C186 O194 1.252 . S
C187 O190 1.252 . S
C187 O191 1.260 . S
O188 In182 2.266 . S
O188 C185 1.252 . S
O189 In182 2.326 . S
O189 C185 1.260 . S
O190 In182 2.266 . S
O190 C187 1.252 . S
O191 In182 2.326 . S
O191 C187 1.260 . S
C192 O183 1.240 . S
C192 O184 1.252 . S
O193 In182 2.294 . S
O193 C186 1.240 . S
O194 In182 2.326 . S
O194 C186 1.252 . S
In195 O196 2.294 . S
In195 O197 2.326 . S
In195 O201 2.266 . S
In195 O202 2.326 . S
In195 O203 2.266 . S
In195 O204 2.326 . S
In195 O206 2.294 . S
In195 O207 2.326 . S
O196 In195 2.294 . S
O196 C205 1.240 . S
O197 In195 2.326 . S
O197 C205 1.252 . S
C198 O201 1.252 . S
C198 O202 1.260 . S
C199 O206 1.240 . S
C199 O207 1.252 . S
C200 O203 1.252 . S
C200 O204 1.260 . S
O201 In195 2.266 . S
O201 C198 1.252 . S
O202 In195 2.326 . S
O202 C198 1.260 . S
O203 In195 2.266 . S
O203 C200 1.252 . S
O204 In195 2.326 . S
O204 C200 1.260 . S
C205 O196 1.240 . S
C205 O197 1.252 . S
O206 In195 2.294 . S
O206 C199 1.240 . S
O207 In195 2.326 . S
O207 C199 1.252 . S
C208 C209 1.363 . S
C208 C214 1.379 1_565 S
C208 N216 1.356 . S
C209 C208 1.363 . S
C209 C215 1.363 . S
C210 C211 1.363 . S
C210 C215 1.379 1_545 S
C210 N217 1.356 . S
C211 C210 1.363 . S
C211 C214 1.363 . S
N212 C214 1.356 . S
N212 H224 0.984 . S
N212 H225 0.985 . S
N213 C215 1.356 . S
N213 H218 0.984 . S
N213 H219 0.985 . S
C214 C208 1.379 1_545 S
C214 C211 1.363 . S
C214 N212 1.356 . S
C215 C209 1.363 . S
C215 C210 1.379 1_565 S
C215 N213 1.356 . S
N216 C208 1.356 . S
N216 H222 0.984 . S
N216 H223 0.984 . S
N217 C210 1.356 . S
N217 H220 0.984 . S
N217 H221 0.985 . S
H218 N213 0.984 . S
H219 N213 0.985 . S
H220 N217 0.984 . S
H221 N217 0.985 . S
H222 N216 0.984 . S
H223 N216 0.984 . S
H224 N212 0.984 . S
H225 N212 0.985 . S
C226 C227 1.363 . S
C226 C232 1.379 1_455 S
C226 N234 1.356 . S
C227 C226 1.363 . S
C227 C233 1.363 . S
C228 C229 1.363 . S
C228 C233 1.379 1_655 S
C228 N235 1.356 . S
C229 C228 1.363 . S
C229 C232 1.363 . S
N230 C232 1.356 . S
N230 H242 0.984 . S
N230 H243 0.985 . S
N231 C233 1.356 . S
N231 H236 0.984 . S
N231 H237 0.985 . S
C232 C226 1.379 1_655 S
C232 C229 1.363 . S
C232 N230 1.356 . S
C233 C227 1.363 . S
C233 C228 1.379 1_455 S
C233 N231 1.356 . S
N234 C226 1.356 . S
N234 H240 0.984 . S
N234 H241 0.984 . S
N235 C228 1.356 . S
N235 H238 0.984 . S
N235 H239 0.985 . S
H236 N231 0.984 . S
H237 N231 0.985 . S
H238 N235 0.984 . S
H239 N235 0.985 . S
H240 N234 0.984 . S
H241 N234 0.984 . S
H242 N230 0.984 . S
H243 N230 0.985 . S
C244 C245 1.363 . S
C244 C250 1.379 1_565 S
C244 N252 1.356 . S
C245 C244 1.363 . S
C245 C251 1.363 . S
C246 C247 1.363 . S
C246 C251 1.379 1_545 S
C246 N253 1.356 . S
C247 C246 1.363 . S
C247 C250 1.363 . S
N248 C250 1.356 . S
N248 H260 0.984 . S
N248 H261 0.985 . S
N249 C251 1.356 . S
N249 H254 0.984 . S
N249 H255 0.985 . S
C250 C244 1.379 1_545 S
C250 C247 1.363 . S
C250 N248 1.356 . S
C251 C245 1.363 . S
C251 C246 1.379 1_565 S
C251 N249 1.356 . S
N252 C244 1.356 . S
N252 H258 0.984 . S
N252 H259 0.984 . S
N253 C246 1.356 . S
N253 H256 0.984 . S
N253 H257 0.985 . S
H254 N249 0.984 . S
H255 N249 0.985 . S
H256 N253 0.984 . S
H257 N253 0.985 . S
H258 N252 0.984 . S
H259 N252 0.984 . S
H260 N248 0.984 . S
H261 N248 0.985 . S
C262 C263 1.363 . S
C262 C268 1.379 1_455 S
C262 N270 1.356 . S
C263 C262 1.363 . S
C263 C269 1.363 . S
C264 C265 1.363 . S
C264 C269 1.379 1_655 S
C264 N271 1.356 . S
C265 C264 1.363 . S
C265 C268 1.363 . S
N266 C268 1.356 . S
N266 H278 0.984 . S
N266 H279 0.985 . S
N267 C269 1.356 . S
N267 H272 0.984 . S
N267 H273 0.985 . S
C268 C262 1.379 1_655 S
C268 C265 1.363 . S
C268 N266 1.356 . S
C269 C263 1.363 . S
C269 C264 1.379 1_455 S
C269 N267 1.356 . S
N270 C262 1.356 . S
N270 H276 0.984 . S
N270 H277 0.984 . S
N271 C264 1.356 . S
N271 H274 0.984 . S
N271 H275 0.985 . S
H272 N267 0.984 . S
H273 N267 0.985 . S
H274 N271 0.984 . S
H275 N271 0.985 . S
H276 N270 0.984 . S
H277 N270 0.984 . S
H278 N266 0.984 . S
H279 N266 0.985 . S
C280 C281 1.363 1_554 S
C280 C286 1.379 . S
C280 N288 1.356 . S
C281 C280 1.363 1_556 S
C281 C287 1.363 . S
C282 C283 1.363 . S
C282 C287 1.379 . S
C282 N289 1.356 . S
C283 C282 1.363 . S
C283 C286 1.363 1_556 S
N284 C286 1.356 . S
N284 H296 0.984 . S
N284 H297 0.985 . S
N285 C287 1.356 . S
N285 H290 0.984 . S
N285 H291 0.985 . S
C286 C280 1.379 . S
C286 C283 1.363 1_554 S
C286 N284 1.356 . S
C287 C281 1.363 . S
C287 C282 1.379 . S
C287 N285 1.356 . S
N288 C280 1.356 . S
N288 H294 0.984 . S
N288 H295 0.984 . S
N289 C282 1.356 . S
N289 H292 0.984 . S
N289 H293 0.985 . S
H290 N285 0.984 . S
H291 N285 0.985 . S
H292 N289 0.984 . S
H293 N289 0.985 . S
H294 N288 0.984 . S
H295 N288 0.984 . S
H296 N284 0.984 . S
H297 N284 0.985 . S
C298 C299 1.363 . S
C298 C304 1.379 . S
C298 N306 1.356 . S
C299 C298 1.363 . S
C299 C305 1.363 . S
C300 C301 1.363 . S
C300 C305 1.379 . S
C300 N307 1.356 . S
C301 C300 1.363 . S
C301 C304 1.363 . S
N302 C304 1.356 . S
N302 H314 0.984 . S
N302 H315 0.985 . S
N303 C305 1.356 1_556 S
N303 H308 0.984 . S
N303 H309 0.985 . S
C304 C298 1.379 . S
C304 C301 1.363 . S
C304 N302 1.356 . S
C305 C299 1.363 . S
C305 C300 1.379 . S
C305 N303 1.356 1_554 S
N306 C298 1.356 . S
N306 H312 0.984 . S
N306 H313 0.984 . S
N307 C300 1.356 . S
N307 H310 0.984 . S
N307 H311 0.985 1_554 S
H308 N303 0.984 . S
H309 N303 0.985 . S
H310 N307 0.984 . S
H311 N307 0.985 1_556 S
H312 N306 0.984 . S
H313 N306 0.984 . S
H314 N302 0.984 . S
H315 N302 0.985 . S
C316 C317 1.363 1_554 S
C316 C322 1.379 . S
C316 N324 1.356 . S
C317 C316 1.363 1_556 S
C317 C323 1.363 . S
C318 C319 1.363 . S
C318 C323 1.379 . S
C318 N325 1.356 . S
C319 C318 1.363 . S
C319 C322 1.363 1_556 S
N320 C322 1.356 . S
N320 H332 0.984 . S
N320 H333 0.985 . S
N321 C323 1.356 . S
N321 H326 0.984 . S
N321 H327 0.985 . S
C322 C316 1.379 . S
C322 C319 1.363 1_554 S
C322 N320 1.356 . S
C323 C317 1.363 . S
C323 C318 1.379 . S
C323 N321 1.356 . S
N324 C316 1.356 . S
N324 H330 0.984 . S
N324 H331 0.984 . S
N325 C318 1.356 . S
N325 H328 0.984 . S
N325 H329 0.985 . S
H326 N321 0.984 . S
H327 N321 0.985 . S
H328 N325 0.984 . S
H329 N325 0.985 . S
H330 N324 0.984 . S
H331 N324 0.984 . S
H332 N320 0.984 . S
H333 N320 0.985 . S
C334 C335 1.363 . S
C334 C340 1.379 . S
C334 N342 1.356 . S
C335 C334 1.363 . S
C335 C341 1.363 . S
C336 C337 1.363 . S
C336 C341 1.379 . S
C336 N343 1.356 . S
C337 C336 1.363 . S
C337 C340 1.363 . S
N338 C340 1.356 . S
N338 H350 0.984 . S
N338 H351 0.985 . S
N339 C341 1.356 . S
N339 H344 0.984 . S
N339 H345 0.985 . S
C340 C334 1.379 . S
C340 C337 1.363 . S
C340 N338 1.356 . S
C341 C335 1.363 . S
C341 C336 1.379 . S
C341 N339 1.356 . S
N342 C334 1.356 . S
N342 H348 0.984 . S
N342 H349 0.984 . S
N343 C336 1.356 . S
N343 H346 0.984 1_554 S
N343 H347 0.985 1_554 S
H344 N339 0.984 . S
H345 N339 0.985 . S
H346 N343 0.984 1_556 S
H347 N343 0.985 1_556 S
H348 N342 0.984 . S
H349 N342 0.984 . S
H350 N338 0.984 . S
H351 N338 0.985 . S
C352 C353 1.363 . S
C352 C358 1.379 . S
C352 N360 1.356 . S
C353 C352 1.363 . S
C353 C359 1.363 . S
C354 C355 1.363 . S
C354 C359 1.379 . S
C354 N361 1.356 . S
C355 C354 1.363 . S
C355 C358 1.363 . S
N356 C358 1.356 . S
N356 H368 0.984 . S
N356 H369 0.985 . S
N357 C359 1.356 . S
N357 H362 0.984 . S
N357 H363 0.985 . S
C358 C352 1.379 . S
C358 C355 1.363 . S
C358 N356 1.356 . S
C359 C353 1.363 . S
C359 C354 1.379 . S
C359 N357 1.356 . S
N360 C352 1.356 . S
N360 H366 0.984 . S
N360 H367 0.984 . S
N361 C354 1.356 . S
N361 H364 0.984 . S
N361 H365 0.985 . S
H362 N357 0.984 . S
H363 N357 0.985 . S
H364 N361 0.984 . S
H365 N361 0.985 . S
H366 N360 0.984 . S
H367 N360 0.984 . S
H368 N356 0.984 . S
H369 N356 0.985 . S
C370 C371 1.363 . S
C370 C376 1.379 . S
C370 N378 1.356 . S
C371 C370 1.363 . S
C371 C377 1.363 . S
C372 C373 1.363 . S
C372 C377 1.379 . S
C372 N379 1.356 . S
C373 C372 1.363 . S
C373 C376 1.363 . S
N374 C376 1.356 . S
N374 H386 0.984 . S
N374 H387 0.985 . S
N375 C377 1.356 . S
N375 H380 0.984 . S
N375 H381 0.985 . S
C376 C370 1.379 . S
C376 C373 1.363 . S
C376 N374 1.356 . S
C377 C371 1.363 . S
C377 C372 1.379 . S
C377 N375 1.356 . S
N378 C370 1.356 . S
N378 H384 0.984 . S
N378 H385 0.984 . S
N379 C372 1.356 . S
N379 H382 0.984 . S
N379 H383 0.985 . S
H380 N375 0.984 . S
H381 N375 0.985 . S
H382 N379 0.984 . S
H383 N379 0.985 . S
H384 N378 0.984 . S
H385 N378 0.984 . S
H386 N374 0.984 . S
H387 N374 0.985 . S
C388 C389 1.363 . S
C388 C394 1.379 . S
C388 N396 1.356 . S
C389 C388 1.363 . S
C389 C395 1.363 . S
C390 C391 1.363 . S
C390 C395 1.379 . S
C390 N397 1.356 . S
C391 C390 1.363 . S
C391 C394 1.363 . S
N392 C394 1.356 . S
N392 H404 0.984 . S
N392 H405 0.985 . S
N393 C395 1.356 . S
N393 H398 0.984 . S
N393 H399 0.985 . S
C394 C388 1.379 . S
C394 C391 1.363 . S
C394 N392 1.356 . S
C395 C389 1.363 . S
C395 C390 1.379 . S
C395 N393 1.356 . S
N396 C388 1.356 . S
N396 H402 0.984 . S
N396 H403 0.984 . S
N397 C390 1.356 . S
N397 H400 0.984 . S
N397 H401 0.985 . S
H398 N393 0.984 . S
H399 N393 0.985 . S
H400 N397 0.984 . S
H401 N397 0.985 . S
H402 N396 0.984 . S
H403 N396 0.984 . S
H404 N392 0.984 . S
H405 N392 0.985 . S
C406 C407 1.363 . S
C406 C412 1.379 . S
C406 N414 1.356 . S
C407 C406 1.363 . S
C407 C413 1.363 . S
C408 C409 1.363 . S
C408 C413 1.379 . S
C408 N415 1.356 . S
C409 C408 1.363 . S
C409 C412 1.363 . S
N410 C412 1.356 . S
N410 H422 0.984 . S
N410 H423 0.985 . S
N411 C413 1.356 . S
N411 H416 0.984 . S
N411 H417 0.985 . S
C412 C406 1.379 . S
C412 C409 1.363 . S
C412 N410 1.356 . S
C413 C407 1.363 . S
C413 C408 1.379 . S
C413 N411 1.356 . S
N414 C406 1.356 . S
N414 H420 0.984 . S
N414 H421 0.984 . S
N415 C408 1.356 . S
N415 H418 0.984 . S
N415 H419 0.985 . S
H416 N411 0.984 . S
H417 N411 0.985 . S
H418 N415 0.984 . S
H419 N415 0.985 . S
H420 N414 0.984 . S
H421 N414 0.984 . S
H422 N410 0.984 . S
H423 N410 0.985 . S
C424 C425 1.363 . S
C424 C430 1.379 1_565 S
C424 N432 1.356 . S
C425 C424 1.363 . S
C425 C431 1.378 . S
C426 C427 1.363 . S
C426 C431 1.360 1_545 S
C426 N433 1.356 . S
C427 C426 1.363 . S
C427 C430 1.363 . S
N428 C430 1.356 . S
N428 H440 0.984 . S
N428 H441 0.985 . S
N429 C431 1.366 . S
N429 H434 0.984 . S
N429 H435 0.985 . S
C430 C424 1.379 1_545 S
C430 C427 1.363 . S
C430 N428 1.356 . S
C431 C425 1.378 . S
C431 C426 1.360 1_565 S
C431 N429 1.366 . S
N432 C424 1.356 . S
N432 H438 0.984 . S
N432 H439 0.984 . S
N433 C426 1.356 . S
N433 H436 0.984 . S
N433 H437 0.985 . S
H434 N429 0.984 . S
H435 N429 0.985 . S
H436 N433 0.984 . S
H437 N433 0.985 . S
H438 N432 0.984 . S
H439 N432 0.984 . S
H440 N428 0.984 . S
H441 N428 0.985 . S
C442 C443 1.363 . S
C442 C448 1.379 1_655 S
C442 N450 1.356 . S
C443 C442 1.363 . S
C443 C449 1.363 . S
C444 C445 1.363 . S
C444 C449 1.379 1_455 S
C444 N451 1.356 . S
C445 C444 1.363 . S
C445 C448 1.363 . S
N446 C448 1.356 . S
N446 H458 0.984 . S
N446 H459 0.985 . S
N447 C449 1.356 . S
N447 H452 0.984 . S
N447 H453 0.985 . S
C448 C442 1.379 1_455 S
C448 C445 1.363 . S
C448 N446 1.356 . S
C449 C443 1.363 . S
C449 C444 1.379 1_655 S
C449 N447 1.356 . S
N450 C442 1.356 . S
N450 H456 0.984 . S
N450 H457 0.984 . S
N451 C444 1.356 . S
N451 H454 0.984 . S
N451 H455 0.985 . S
H452 N447 0.984 . S
H453 N447 0.985 . S
H454 N451 0.984 . S
H455 N451 0.985 . S
H456 N450 0.984 . S
H457 N450 0.984 . S
H458 N446 0.984 . S
H459 N446 0.985 . S
C460 C461 1.363 . S
C460 C466 1.379 1_565 S
C460 N468 1.356 . S
C461 C460 1.363 . S
C461 C467 1.363 . S
C462 C463 1.363 . S
C462 C467 1.379 1_545 S
C462 N469 1.356 . S
C463 C462 1.363 . S
C463 C466 1.363 . S
N464 C466 1.356 . S
N464 H476 0.984 . S
N464 H477 0.985 . S
N465 C467 1.356 . S
N465 H470 0.984 . S
N465 H471 0.985 . S
C466 C460 1.379 1_545 S
C466 C463 1.363 . S
C466 N464 1.356 . S
C467 C461 1.363 . S
C467 C462 1.379 1_565 S
C467 N465 1.356 . S
N468 C460 1.356 . S
N468 H474 0.984 . S
N468 H475 0.984 . S
N469 C462 1.356 . S
N469 H472 0.984 . S
N469 H473 0.985 . S
H470 N465 0.984 . S
H471 N465 0.985 . S
H472 N469 0.984 . S
H473 N469 0.985 . S
H474 N468 0.984 . S
H475 N468 0.984 . S
H476 N464 0.984 . S
H477 N464 0.985 . S
C478 C479 1.363 . S
C478 C484 1.379 1_655 S
C478 N486 1.356 . S
C479 C478 1.363 . S
C479 C485 1.363 . S
C480 C481 1.355 1_655 S
C480 C485 1.388 . S
C480 N487 1.351 1_655 S
C481 C480 1.355 1_455 S
C481 C484 1.363 . S
N482 C484 1.356 . S
N482 H494 0.984 . S
N482 H495 0.985 . S
N483 C485 1.356 . S
N483 H488 0.984 . S
N483 H489 0.985 . S
C484 C478 1.379 1_455 S
C484 C481 1.363 . S
C484 N482 1.356 . S
C485 C479 1.363 . S
C485 C480 1.388 . S
C485 N483 1.356 . S
N486 C478 1.356 . S
N486 H492 0.984 . S
N486 H493 0.984 . S
N487 C480 1.351 1_455 S
N487 H490 0.984 . S
N487 H491 0.985 . S
H488 N483 0.984 . S
H489 N483 0.985 . S
H490 N487 0.984 . S
H491 N487 0.985 . S
H492 N486 0.984 . S
H493 N486 0.984 . S
H494 N482 0.984 . S
H495 N482 0.985 . S
C496 C497 1.363 . S
C496 C502 1.379 . S
C496 N504 1.356 1_554 S
C497 C496 1.363 . S
C497 C503 1.363 . S
C498 C499 1.363 . S
C498 C503 1.379 . S
C498 N505 1.356 . S
C499 C498 1.363 . S
C499 C502 1.363 . S
N500 C502 1.356 . S
N500 H512 0.984 . S
N500 H513 0.985 . S
N501 C503 1.356 . S
N501 H506 0.984 . S
N501 H507 0.985 . S
C502 C496 1.379 . S
C502 C499 1.363 . S
C502 N500 1.356 . S
C503 C497 1.363 . S
C503 C498 1.379 . S
C503 N501 1.356 . S
N504 C496 1.356 1_556 S
N504 H510 0.984 . S
N504 H511 0.984 . S
N505 C498 1.356 . S
N505 H508 0.984 . S
N505 H509 0.985 . S
H506 N501 0.984 . S
H507 N501 0.985 . S
H508 N505 0.984 . S
H509 N505 0.985 . S
H510 N504 0.984 . S
H511 N504 0.984 . S
H512 N500 0.984 . S
H513 N500 0.985 . S
C514 C515 1.363 . S
C514 C520 1.379 . S
C514 N522 1.356 . S
C515 C514 1.363 . S
C515 C521 1.363 . S
C516 C517 1.363 . S
C516 C521 1.379 . S
C516 N523 1.356 . S
C517 C516 1.363 . S
C517 C520 1.363 . S
N518 C520 1.356 1_554 S
N518 H530 0.984 . S
N518 H531 0.985 . S
N519 C521 1.356 . S
N519 H524 0.984 . S
N519 H525 0.985 . S
C520 C514 1.379 . S
C520 C517 1.363 . S
C520 N518 1.356 1_556 S
C521 C515 1.363 . S
C521 C516 1.379 . S
C521 N519 1.356 . S
N522 C514 1.356 . S
N522 H528 0.984 . S
N522 H529 0.984 . S
N523 C516 1.356 . S
N523 H526 0.984 . S
N523 H527 0.985 . S
H524 N519 0.984 . S
H525 N519 0.985 . S
H526 N523 0.984 . S
H527 N523 0.985 . S
H528 N522 0.984 . S
H529 N522 0.984 . S
H530 N518 0.984 . S
H531 N518 0.985 . S
C532 C533 1.363 . S
C532 C538 1.379 . S
C532 N540 1.356 . S
C533 C532 1.363 . S
C533 C539 1.363 . S
C534 C535 1.363 . S
C534 C539 1.379 . S
C534 N541 1.356 . S
C535 C534 1.363 . S
C535 C538 1.363 . S
N536 C538 1.356 1_556 S
N536 H548 0.984 . S
N536 H549 0.985 . S
N537 C539 1.356 . S
N537 H542 0.984 . S
N537 H543 0.985 . S
C538 C532 1.379 . S
C538 C535 1.363 . S
C538 N536 1.356 1_554 S
C539 C533 1.363 . S
C539 C534 1.379 . S
C539 N537 1.356 . S
N540 C532 1.356 . S
N540 H546 0.984 . S
N540 H547 0.984 . S
N541 C534 1.356 . S
N541 H544 0.984 . S
N541 H545 0.985 . S
H542 N537 0.984 . S
H543 N537 0.985 . S
H544 N541 0.984 . S
H545 N541 0.985 . S
H546 N540 0.984 . S
H547 N540 0.984 . S
H548 N536 0.984 . S
H549 N536 0.985 . S
C550 C551 1.363 . S
C550 C556 1.379 . S
C550 N558 1.356 1_556 S
C551 C550 1.363 . S
C551 C557 1.363 . S
C552 C553 1.363 . S
C552 C557 1.379 . S
C552 N559 1.356 . S
C553 C552 1.363 . S
C553 C556 1.363 . S
N554 C556 1.356 . S
N554 H566 0.984 . S
N554 H567 0.985 . S
N555 C557 1.356 . S
N555 H560 0.984 . S
N555 H561 0.985 . S
C556 C550 1.379 . S
C556 C553 1.363 . S
C556 N554 1.356 . S
C557 C551 1.363 . S
C557 C552 1.379 . S
C557 N555 1.356 . S
N558 C550 1.356 1_554 S
N558 H564 0.984 . S
N558 H565 0.984 . S
N559 C552 1.356 . S
N559 H562 0.984 . S
N559 H563 0.985 . S
H560 N555 0.984 . S
H561 N555 0.985 . S
H562 N559 0.984 . S
H563 N559 0.985 . S
H564 N558 0.984 . S
H565 N558 0.984 . S
H566 N554 0.984 . S
H567 N554 0.985 . S
C568 C569 1.363 . S
C568 C574 1.379 . S
C568 N576 1.356 . S
C569 C568 1.363 . S
C569 C575 1.363 . S
C570 C571 1.363 . S
C570 C575 1.379 . S
C570 N577 1.356 . S
C571 C570 1.363 . S
C571 C574 1.363 . S
N572 C574 1.356 . S
N572 H584 0.984 . S
N572 H585 0.985 . S
N573 C575 1.356 . S
N573 H578 0.984 . S
N573 H579 0.985 . S
C574 C568 1.379 . S
C574 C571 1.363 . S
C574 N572 1.356 . S
C575 C569 1.363 . S
C575 C570 1.379 . S
C575 N573 1.356 . S
N576 C568 1.356 . S
N576 H582 0.984 . S
N576 H583 0.984 . S
N577 C570 1.356 . S
N577 H580 0.984 . S
N577 H581 0.985 . S
H578 N573 0.984 . S
H579 N573 0.985 . S
H580 N577 0.984 . S
H581 N577 0.985 . S
H582 N576 0.984 . S
H583 N576 0.984 . S
H584 N572 0.984 . S
H585 N572 0.985 . S
C586 C587 1.363 . S
C586 C592 1.379 . S
C586 N594 1.356 . S
C587 C586 1.363 . S
C587 C593 1.363 . S
C588 C589 1.363 . S
C588 C593 1.379 . S
C588 N595 1.356 . S
C589 C588 1.363 . S
C589 C592 1.363 . S
N590 C592 1.356 . S
N590 H602 0.984 . S
N590 H603 0.985 . S
N591 C593 1.356 . S
N591 H596 0.984 . S
N591 H597 0.985 . S
C592 C586 1.379 . S
C592 C589 1.363 . S
C592 N590 1.356 . S
C593 C587 1.363 . S
C593 C588 1.379 . S
C593 N591 1.356 . S
N594 C586 1.356 . S
N594 H600 0.984 . S
N594 H601 0.984 . S
N595 C588 1.356 . S
N595 H598 0.984 . S
N595 H599 0.985 . S
H596 N591 0.984 . S
H597 N591 0.985 . S
H598 N595 0.984 . S
H599 N595 0.985 . S
H600 N594 0.984 . S
H601 N594 0.984 . S
H602 N590 0.984 . S
H603 N590 0.985 . S
C604 C605 1.363 . S
C604 C610 1.379 . S
C604 N612 1.356 . S
C605 C604 1.363 . S
C605 C611 1.363 . S
C606 C607 1.363 . S
C606 C611 1.379 . S
C606 N613 1.356 . S
C607 C606 1.363 . S
C607 C610 1.363 . S
N608 C610 1.356 . S
N608 H620 0.984 . S
N608 H621 0.985 . S
N609 C611 1.356 . S
N609 H614 0.984 . S
N609 H615 0.985 . S
C610 C604 1.379 . S
C610 C607 1.363 . S
C610 N608 1.356 . S
C611 C605 1.363 . S
C611 C606 1.379 . S
C611 N609 1.356 . S
N612 C604 1.356 . S
N612 H618 0.984 . S
N612 H619 0.984 . S
N613 C606 1.356 . S
N613 H616 0.984 . S
N613 H617 0.985 . S
H614 N609 0.984 . S
H615 N609 0.985 . S
H616 N613 0.984 . S
H617 N613 0.985 . S
H618 N612 0.984 . S
H619 N612 0.984 . S
H620 N608 0.984 . S
H621 N608 0.985 . S
C622 C623 1.363 . S
C622 C628 1.379 . S
C622 N630 1.356 . S
C623 C622 1.363 . S
C623 C629 1.363 . S
C624 C625 1.363 . S
C624 C629 1.379 . S
C624 N631 1.356 . S
C625 C624 1.363 . S
C625 C628 1.363 . S
N626 C628 1.356 . S
N626 H638 0.984 . S
N626 H639 0.985 . S
N627 C629 1.356 . S
N627 H632 0.984 . S
N627 H633 0.985 . S
C628 C622 1.379 . S
C628 C625 1.363 . S
C628 N626 1.356 . S
C629 C623 1.363 . S
C629 C624 1.379 . S
C629 N627 1.356 . S
N630 C622 1.356 . S
N630 H636 0.984 . S
N630 H637 0.984 . S
N631 C624 1.356 . S
N631 H634 0.984 . S
N631 H635 0.985 . S
H632 N627 0.984 . S
H633 N627 0.985 . S
H634 N631 0.984 . S
H635 N631 0.985 . S
H636 N630 0.984 . S
H637 N630 0.984 . S
H638 N626 0.984 . S
H639 N626 0.985 . S
C640 C641 1.363 . S
C640 C646 1.379 . S
C640 N648 1.356 . S
C641 C640 1.363 . S
C641 C647 1.363 . S
C642 C643 1.363 . S
C642 C647 1.379 . S
C642 N649 1.356 . S
C643 C642 1.363 . S
C643 C646 1.363 . S
N644 C646 1.356 1_554 S
N644 H656 0.984 . S
N644 H657 0.985 . S
N645 C647 1.356 . S
N645 H650 0.984 . S
N645 H651 0.985 . S
C646 C640 1.379 . S
C646 C643 1.363 . S
C646 N644 1.356 1_556 S
C647 C641 1.363 . S
C647 C642 1.379 . S
C647 N645 1.356 . S
N648 C640 1.356 . S
N648 H654 0.984 . S
N648 H655 0.984 . S
N649 C642 1.356 . S
N649 H652 0.984 . S
N649 H653 0.985 . S
H650 N645 0.984 . S
H651 N645 0.985 . S
H652 N649 0.984 . S
H653 N649 0.985 . S
H654 N648 0.984 . S
H655 N648 0.984 . S
H656 N644 0.984 . S
H657 N644 0.985 . S
C658 C659 1.363 . S
C658 C664 1.379 . S
C658 N666 1.356 . S
C659 C658 1.363 . S
C659 C665 1.363 . S
C660 C661 1.363 . S
C660 C665 1.379 . S
C660 N667 1.356 1_554 S
C661 C660 1.363 . S
C661 C664 1.363 . S
N662 C664 1.356 . S
N662 H674 0.984 . S
N662 H675 0.985 . S
N663 C665 1.356 . S
N663 H668 0.984 . S
N663 H669 0.985 . S
C664 C658 1.379 . S
C664 C661 1.363 . S
C664 N662 1.356 . S
C665 C659 1.363 . S
C665 C660 1.379 . S
C665 N663 1.356 . S
N666 C658 1.356 . S
N666 H672 0.984 . S
N666 H673 0.984 . S
N667 C660 1.356 1_556 S
N667 H670 0.984 . S
N667 H671 0.985 . S
H668 N663 0.984 . S
H669 N663 0.985 . S
H670 N667 0.984 . S
H671 N667 0.985 . S
H672 N666 0.984 . S
H673 N666 0.984 . S
H674 N662 0.984 . S
H675 N662 0.985 . S
C676 C677 1.363 . S
C676 C682 1.379 . S
C676 N684 1.356 1_556 S
C677 C676 1.363 . S
C677 C683 1.363 . S
C678 C679 1.363 . S
C678 C683 1.379 . S
C678 N685 1.356 . S
C679 C678 1.363 . S
C679 C682 1.363 . S
N680 C682 1.356 . S
N680 H692 0.984 . S
N680 H693 0.985 . S
N681 C683 1.356 . S
N681 H686 0.984 . S
N681 H687 0.985 . S
C682 C676 1.379 . S
C682 C679 1.363 . S
C682 N680 1.356 . S
C683 C677 1.363 . S
C683 C678 1.379 . S
C683 N681 1.356 . S
N684 C676 1.356 1_554 S
N684 H690 0.984 . S
N684 H691 0.984 . S
N685 C678 1.356 . S
N685 H688 0.984 . S
N685 H689 0.985 . S
H686 N681 0.984 . S
H687 N681 0.985 . S
H688 N685 0.984 . S
H689 N685 0.985 . S
H690 N684 0.984 . S
H691 N684 0.984 . S
H692 N680 0.984 . S
H693 N680 0.985 . S
C694 C695 1.363 . S
C694 C700 1.379 . S
C694 N702 1.356 . S
C695 C694 1.363 . S
C695 C701 1.363 . S
C696 C697 1.363 . S
C696 C701 1.379 . S
C696 N703 1.356 1_554 S
C697 C696 1.363 . S
C697 C700 1.363 . S
N698 C700 1.356 . S
N698 H710 0.984 . S
N698 H711 0.985 . S
N699 C701 1.356 . S
N699 H704 0.984 . S
N699 H705 0.981 1_554 S
C700 C694 1.379 . S
C700 C697 1.363 . S
C700 N698 1.356 . S
C701 C695 1.363 . S
C701 C696 1.379 . S
C701 N699 1.356 . S
N702 C694 1.356 . S
N702 H708 0.984 . S
N702 H709 0.984 . S
N703 C696 1.356 1_556 S
N703 H706 0.984 . S
N703 H707 0.985 . S
H704 N699 0.984 . S
H705 N699 0.981 1_556 S
H706 N703 0.984 . S
H707 N703 0.985 . S
H708 N702 0.984 . S
H709 N702 0.984 . S
H710 N698 0.984 . S
H711 N698 0.985 . S
C712 C713 1.363 . S
C712 C718 1.379 . S
C712 N720 1.356 . S
C713 C712 1.363 . S
C713 C719 1.363 . S
C714 C715 1.363 . S
C714 C719 1.379 . S
C714 N721 1.356 . S
C715 C714 1.363 . S
C715 C718 1.363 . S
N716 C718 1.356 . S
N716 H728 0.984 . S
N716 H729 0.985 . S
N717 C719 1.356 . S
N717 H722 0.984 . S
N717 H723 0.985 . S
C718 C712 1.379 . S
C718 C715 1.363 . S
C718 N716 1.356 . S
C719 C713 1.363 . S
C719 C714 1.379 . S
C719 N717 1.356 . S
N720 C712 1.356 . S
N720 H726 0.984 . S
N720 H727 0.984 . S
N721 C714 1.356 . S
N721 H724 0.984 . S
N721 H725 0.985 . S
H722 N717 0.984 . S
H723 N717 0.985 . S
H724 N721 0.984 . S
H725 N721 0.985 . S
H726 N720 0.984 . S
H727 N720 0.984 . S
H728 N716 0.984 . S
H729 N716 0.985 . S
C730 C731 1.363 . S
C730 C736 1.379 . S
C730 N738 1.356 . S
C731 C730 1.363 . S
C731 C737 1.363 . S
C732 C733 1.363 . S
C732 C737 1.379 . S
C732 N739 1.356 . S
C733 C732 1.363 . S
C733 C736 1.363 . S
N734 C736 1.356 . S
N734 H746 0.984 . S
N734 H747 0.985 . S
N735 C737 1.356 . S
N735 H740 0.984 . S
N735 H741 0.985 . S
C736 C730 1.379 . S
C736 C733 1.363 . S
C736 N734 1.356 . S
C737 C731 1.363 . S
C737 C732 1.379 . S
C737 N735 1.356 . S
N738 C730 1.356 . S
N738 H744 0.984 . S
N738 H745 0.984 . S
N739 C732 1.356 . S
N739 H742 0.984 . S
N739 H743 0.985 . S
H740 N735 0.984 . S
H741 N735 0.985 . S
H742 N739 0.984 . S
H743 N739 0.985 . S
H744 N738 0.984 . S
H745 N738 0.984 . S
H746 N734 0.984 . S
H747 N734 0.985 . S
C748 C749 1.363 . S
C748 C754 1.379 . S
C748 N756 1.356 . S
C749 C748 1.363 . S
C749 C755 1.363 . S
C750 C751 1.363 . S
C750 C755 1.379 . S
C750 N757 1.356 . S
C751 C750 1.363 . S
C751 C754 1.363 . S
N752 C754 1.356 . S
N752 H764 0.984 . S
N752 H765 0.985 . S
N753 C755 1.356 . S
N753 H758 0.984 . S
N753 H759 0.985 . S
C754 C748 1.379 . S
C754 C751 1.363 . S
C754 N752 1.356 . S
C755 C749 1.363 . S
C755 C750 1.379 . S
C755 N753 1.356 . S
N756 C748 1.356 . S
N756 H762 0.984 . S
N756 H763 0.984 . S
N757 C750 1.356 . S
N757 H760 0.984 . S
N757 H761 0.985 . S
H758 N753 0.984 . S
H759 N753 0.985 . S
H760 N757 0.984 . S
H761 N757 0.985 . S
H762 N756 0.984 . S
H763 N756 0.984 . S
H764 N752 0.984 . S
H765 N752 0.985 . S
C766 C767 1.363 . S
C766 C772 1.379 . S
C766 N774 1.356 . S
C767 C766 1.363 . S
C767 C773 1.363 . S
C768 C769 1.363 . S
C768 C773 1.379 . S
C768 N775 1.356 . S
C769 C768 1.363 . S
C769 C772 1.363 . S
N770 C772 1.356 . S
N770 H782 0.984 . S
N770 H783 0.985 . S
N771 C773 1.356 . S
N771 H776 0.984 . S
N771 H777 0.985 . S
C772 C766 1.379 . S
C772 C769 1.363 . S
C772 N770 1.356 . S
C773 C767 1.363 . S
C773 C768 1.379 . S
C773 N771 1.356 . S
N774 C766 1.356 . S
N774 H780 0.984 . S
N774 H781 0.984 . S
N775 C768 1.356 . S
N775 H778 0.984 . S
N775 H779 0.985 . S
H776 N771 0.984 . S
H777 N771 0.985 . S
H778 N775 0.984 . S
H779 N775 0.985 . S
H780 N774 0.984 . S
H781 N774 0.984 . S
H782 N770 0.984 . S
H783 N770 0.985 . S
C209 C148 1.481 . S
C211 C5 1.447 . S
C227 C18 1.447 . S
C229 C107 1.481 . S
C245 C29 1.447 . S
C247 C122 1.481 . S
C263 C135 1.481 . S
C265 C42 1.447 . S
C281 C55 1.447 1_556 S
C283 C70 1.481 . S
C299 C68 1.447 1_554 S
C301 C83 1.481 . S
C317 C96 1.481 . S
C319 C81 1.447 1_556 S
C335 C57 1.481 . S
C337 C94 1.447 1_554 S
C353 C44 1.481 . S
C355 C109 1.447 . S
C371 C120 1.447 . S
C373 C3 1.481 . S
C389 C16 1.481 . S
C391 C133 1.447 . S
C407 C146 1.447 . S
C409 C31 1.481 . S
C425 C161 1.447 . S
C427 C172 1.481 . S
C443 C174 1.447 . S
C445 C185 1.481 . S
C461 C200 1.481 . S
C463 C187 1.447 . S
C479 C159 1.481 . S
C481 C198 1.447 . S
C497 C62 1.343 . S
C499 C4 1.343 . S
C515 C17 1.343 . S
C517 C75 1.343 . S
C533 C36 1.343 . S
C535 C88 1.343 . S
C551 C101 1.343 . S
C553 C49 1.343 . S
C569 C108 1.343 . S
C571 C160 1.343 . S
C587 C173 1.343 . S
C589 C127 1.343 . S
C605 C140 1.343 . S
C607 C186 1.343 . S
C623 C205 1.343 . S
C625 C153 1.343 . S
C641 C192 1.568 . S
C643 C10 1.568 1_556 S
C659 C199 1.568 . S
C661 C23 1.568 1_554 S
C677 C30 1.568 1_556 S
C679 C166 1.568 . S
C695 C179 1.568 . S
C697 C43 1.568 1_554 S
C713 C134 1.568 . S
C715 C56 1.568 . S
C731 C147 1.568 . S
C733 C69 1.568 . S
C749 C82 1.568 . S
C751 C114 1.568 . S
C767 C121 1.568 . S
C769 C95 1.568 . S
