# Generated by pormake.
# Topology sqp, (5)-cn, num edge types: 1
# Building blocks:
#     Node 0, Type 0, BuildingBlock: BEQFEK_clean_sbu_0, # of connection points: 5
#     Node 1, Type 0, BuildingBlock: BEQFEK_clean_sbu_0, # of connection points: 5
#     Node 2, Type 0, BuildingBlock: BEQFEK_clean_sbu_0, # of connection points: 5
#     Node 3, Type 0, BuildingBlock: BEQFEK_clean_sbu_0, # of connection points: 5
#     Edge 4, Type (0, 0), BuildingBlock: UVAHIK_clean_linker_0, # of connection points: 2
#     Edge 5, Type (0, 0), BuildingBlock: UVAHIK_clean_linker_0, # of connection points: 2
#     Edge 6, Type (0, 0), BuildingBlock: UVAHIK_clean_linker_0, # of connection points: 2
#     Edge 7, Type (0, 0), BuildingBlock: UVAHIK_clean_linker_0, # of connection points: 2
#     Edge 8, Type (0, 0), BuildingBlock: UVAHIK_clean_linker_0, # of connection points: 2
#     Edge 9, Type (0, 0), BuildingBlock: UVAHIK_clean_linker_0, # of connection points: 2
#     Edge 10, Type (0, 0), BuildingBlock: UVAHIK_clean_linker_0, # of connection points: 2
#     Edge 11, Type (0, 0), BuildingBlock: UVAHIK_clean_linker_0, # of connection points: 2
#     Edge 12, Type (0, 0), BuildingBlock: UVAHIK_clean_linker_0, # of connection points: 2
#     Edge 13, Type (0, 0), BuildingBlock: UVAHIK_clean_linker_0, # of connection points: 2
# Relax obj value: 0.030
# Max RMSD: 0.085
# Mean RMSD: 0.085
data_MOF--net-sqp--node1-BEQFEK_clean_sbu_0--edge1-UVAHIK_clean_linker_0
_symmetry_space_group_name_H-M    P1
_symmetry_Int_Tables_number       1
_symmetry_cell_setting            triclinic
loop_
_symmetry_equiv_pos_as_xyz
'x, y, z'
_cell_length_a     30.801481
_cell_length_b     30.822141
_cell_length_c     49.143432
_cell_angle_alpha  98.098326
_cell_angle_beta   98.103595
_cell_angle_gamma 99.551322
loop_
_atom_site_label
_atom_site_type_symbol
_atom_site_fract_x
_atom_site_fract_y
_atom_site_fract_z
_atom_type_partial_charge
Co0 Co 0.03655 0.95621 0.29479 0.0
Co1 Co 0.97499 0.0276 0.30147 0.0
C2 C 0.93774 0.93568 0.27123 0.0
O3 O 0.97598 0.92498 0.27595 0.0
O4 O 0.93221 0.97525 0.27921 0.0
C5 C 0.07611 0.89574 0.2615 0.0
O6 O 0.04541 0.90207 0.24179 0.0
C7 C 0.91714 0.09183 0.28804 0.0
C8 C 0.92863 0.13728 0.32843 0.0
C9 C 0.90546 0.13013 0.30138 0.0
N10 N 0.9458 0.07745 0.30643 0.0
N11 N 0.95226 0.10461 0.33055 0.0
C12 C 0.90419 0.07069 0.25803 0.0
H13 H 0.92916 0.05079 0.25176 0.0
H14 H 0.90129 0.0965 0.24458 0.0
H15 H 0.87138 0.04786 0.25505 0.0
C16 C 0.09127 0.03042 0.27533 0.0
N17 N 0.05335 0.01201 0.28334 0.0
N18 N 0.0274 0.04179 0.28566 0.0
C19 C 0.04797 0.08009 0.27902 0.0
C20 C 0.0891 0.07411 0.27225 0.0
C21 C 0.12933 0.00686 0.27158 0.0
H22 H 0.13875 0.9922 0.29042 0.0
H23 H 0.11848 0.97927 0.25358 0.0
H24 H 0.15882 0.02937 0.26749 0.0
O25 O 0.03681 0.9649 0.33547 0.0
O26 O 0.99158 0.01373 0.33921 0.0
H27 H 0.02436 0.13089 0.30397 0.0
H28 H 0.05525 0.15123 0.27835 0.0
C29 C 0.03104 0.123 0.28243 0.0
H30 H -0.00076 0.11921 0.26782 0.0
H31 H 0.97323 0.10112 0.34841 0.0
O32 O 0.07888 0.91621 0.2862 0.0
C33 C 0.01596 0.98904 0.35012 0.0
Co34 Co 0.04575 0.96544 0.69602 0.0
Co35 Co 0.97273 0.02573 0.68915 0.0
C36 C 0.0675 0.06568 0.71363 0.0
O37 O 0.07823 0.02732 0.71055 0.0
O38 O 0.02725 0.07029 0.70684 0.0
C39 C 0.11988 0.9341 0.72398 0.0
O40 O 0.12892 0.97464 0.7385 0.0
C41 C 0.90918 0.08586 0.70188 0.0
C42 C 0.86072 0.06864 0.66255 0.0
C43 C 0.8701 0.09598 0.68839 0.0
N44 N 0.92183 0.05393 0.68474 0.0
N45 N 0.89261 0.04386 0.66133 0.0
C46 C 0.93527 0.10732 0.72994 0.0
H47 H 0.97012 0.10189 0.73186 0.0
H48 H 0.91977 0.09208 0.74625 0.0
H49 H 0.93501 0.14364 0.73361 0.0
C50 C 0.97713 0.91641 0.72245 0.0
N51 N 0.99305 0.95212 0.7114 0.0
N52 N 0.96245 0.97711 0.70876 0.0
C53 C 0.92592 0.95788 0.71796 0.0
C54 C 0.93401 0.91869 0.72691 0.0
C55 C 0.00217 0.87976 0.72731 0.0
H56 H 0.00807 0.86292 0.70703 0.0
H57 H 0.03516 0.89428 0.74038 0.0
H58 H 0.98386 0.85491 0.73794 0.0
O59 O 0.03112 0.95919 0.65496 0.0
O60 O 0.98114 0.00317 0.65093 0.0
H61 H 0.87177 0.97559 0.69233 0.0
H62 H 0.85556 0.95082 0.72134 0.0
C63 C 0.88226 0.97349 0.71455 0.0
H64 H 0.88655 0.00734 0.72692 0.0
H65 H 0.89461 0.02018 0.64437 0.0
O66 O 0.08592 0.92308 0.70474 0.0
C67 C 0.00459 0.97739 0.64 0.0
Co68 Co 0.53587 0.45579 0.79446 0.0
Co69 Co 0.47402 0.5269 0.80081 0.0
C70 C 0.43671 0.43507 0.77098 0.0
O71 O 0.47503 0.42448 0.77568 0.0
O72 O 0.43112 0.47463 0.77885 0.0
C73 C 0.57883 0.39919 0.76067 0.0
O74 O 0.55191 0.4098 0.7405 0.0
C75 C 0.41436 0.59019 0.78853 0.0
C76 C 0.43224 0.63941 0.82752 0.0
C77 C 0.40516 0.63 0.80157 0.0
N78 N 0.44547 0.57717 0.80603 0.0
N79 N 0.45568 0.60655 0.82935 0.0
C80 C 0.39713 0.56664 0.75928 0.0
H81 H 0.42072 0.54577 0.75203 0.0
H82 H 0.39213 0.59102 0.74507 0.0
H83 H 0.3646 0.54444 0.75867 0.0
C84 C 0.59119 0.53082 0.77585 0.0
N85 N 0.55284 0.51168 0.78311 0.0
N86 N 0.52616 0.54085 0.78474 0.0
C87 C 0.5464 0.57922 0.77807 0.0
C88 C 0.5884 0.57429 0.77239 0.0
C89 C 0.63176 0.50994 0.77599 0.0
H90 H 0.63415 0.48954 0.79281 0.0
H91 H 0.62892 0.48778 0.75571 0.0
H92 H 0.66274 0.53551 0.77908 0.0
O93 O 0.53641 0.46462 0.83509 0.0
O94 O 0.4911 0.51339 0.83866 0.0
H95 H 0.52556 0.63536 0.79959 0.0
H96 H 0.54553 0.64516 0.76769 0.0
C97 C 0.52635 0.62022 0.77786 0.0
H98 H 0.49167 0.61105 0.76636 0.0
H99 H 0.47922 0.60451 0.84638 0.0
O100 O 0.57792 0.41553 0.78577 0.0
C101 C 0.51564 0.48892 0.84968 0.0
Co102 Co 0.54573 0.46537 0.19576 0.0
Co103 Co 0.47475 0.52803 0.18948 0.0
C104 C 0.56944 0.56562 0.21447 0.0
O105 O 0.57934 0.5269 0.21099 0.0
O106 O 0.52953 0.57119 0.20772 0.0
C107 C 0.61535 0.43139 0.22611 0.0
O108 O 0.6207 0.46991 0.24269 0.0
C109 C 0.41274 0.59062 0.20117 0.0
C110 C 0.36149 0.56908 0.16324 0.0
C111 C 0.3726 0.59908 0.18806 0.0
N112 N 0.42427 0.55687 0.18488 0.0
N113 N 0.39345 0.54435 0.16226 0.0
C114 C 0.44046 0.61498 0.22817 0.0
H115 H 0.4278 0.60051 0.24562 0.0
H116 H 0.43836 0.65089 0.23098 0.0
H117 H 0.47575 0.61146 0.22905 0.0
C118 C 0.4745 0.41601 0.22028 0.0
N119 N 0.49223 0.4524 0.21042 0.0
N120 N 0.46307 0.47904 0.20856 0.0
C121 C 0.426 0.46065 0.21751 0.0
C122 C 0.4318 0.41994 0.22505 0.0
C123 C 0.49586 0.37589 0.2213 0.0
H124 H 0.50881 0.36767 0.20163 0.0
H125 H 0.52462 0.38378 0.23869 0.0
H126 H 0.47218 0.34639 0.22432 0.0
O127 O 0.5321 0.46025 0.1548 0.0
O128 O 0.48365 0.50591 0.15124 0.0
H129 H 0.36818 0.47875 0.19596 0.0
H130 H 0.3614 0.46354 0.22956 0.0
C131 C 0.38505 0.48081 0.21772 0.0
H132 H 0.39471 0.51644 0.22743 0.0
H133 H 0.39426 0.51877 0.14608 0.0
O134 O 0.58501 0.42233 0.20465 0.0
C135 C 0.50649 0.47968 0.14008 0.0
C136 C 0.04448 0.96027 0.39327 0.0
C137 C 0.0184 0.9873 0.38023 0.0
C138 C 0.04499 0.95753 0.42149 0.0
C139 C 0.01889 0.01694 0.48624 0.0
H140 H 0.01176 0.90206 0.51072 0.0
C141 C 0.97556 0.99336 0.59308 0.0
C142 C 0.0033 0.97159 0.60946 0.0
C143 C 0.97779 0.99249 0.56489 0.0
C144 C 0.01414 0.93437 0.50418 0.0
H145 H 0.97253 0.03277 0.3867 0.0
H146 H 0.97298 0.02749 0.43549 0.0
H147 H 0.0168 0.90718 0.46199 0.0
H148 H 0.05357 0.9299 0.60865 0.0
H149 H 0.05727 0.92834 0.55916 0.0
H150 H 0.01554 0.04404 0.52821 0.0
C151 C 0.99364 0.00896 0.42414 0.0
C152 C 0.01718 0.93737 0.47635 0.0
C153 C 0.99321 0.01178 0.39606 0.0
C154 C 0.03183 0.94713 0.59665 0.0
C155 C 0.03391 0.94612 0.56831 0.0
C156 C 0.0156 0.0139 0.51392 0.0
C157 C 0.01945 0.98178 0.43719 0.0
C158 C 0.01904 0.97865 0.46702 0.0
C159 C 0.00767 0.96972 0.55237 0.0
C160 C 0.01265 0.97254 0.52311 0.0
H161 H 0.06431 0.941 0.38169 0.0
H162 H 0.06558 0.93666 0.43104 0.0
H163 H 0.02127 0.04939 0.47989 0.0
H164 H 0.95287 0.01219 0.60216 0.0
H165 H 0.95654 0.01025 0.55295 0.0
C166 C 0.53305 0.44905 0.09656 0.0
C167 C 0.50553 0.47457 0.10959 0.0
C168 C 0.53526 0.44822 0.06826 0.0
C169 C 0.51905 0.51683 0.01396 0.0
H170 H 0.5163 0.40898 0.96198 0.0
C171 C 0.49442 0.51331 0.89587 0.0
C172 C 0.51857 0.48778 0.87987 0.0
C173 C 0.49541 0.51109 0.92407 0.0
C174 C 0.5178 0.43946 0.97635 0.0
H175 H 0.45718 0.51752 0.10272 0.0
H176 H 0.46105 0.51586 0.05355 0.0
H177 H 0.51177 0.40456 0.01084 0.0
H178 H 0.56327 0.44028 0.88115 0.0
H179 H 0.56544 0.43692 0.93067 0.0
H180 H 0.52518 0.55186 0.97975 0.0
C181 C 0.48142 0.4971 0.06531 0.0
C182 C 0.51507 0.43688 0.00426 0.0
C183 C 0.47904 0.4978 0.09347 0.0
C184 C 0.54422 0.46034 0.89287 0.0
C185 C 0.54525 0.45818 0.92118 0.0
C186 C 0.52198 0.51944 0.98618 0.0
C187 C 0.51018 0.47306 0.05255 0.0
C188 C 0.51499 0.47549 0.02322 0.0
C189 C 0.52071 0.48344 0.93705 0.0
C190 C 0.52072 0.48074 0.96696 0.0
H191 H 0.55382 0.43071 0.10836 0.0
H192 H 0.55777 0.42946 0.05893 0.0
H193 H 0.52008 0.54727 0.02826 0.0
H194 H 0.47416 0.53469 0.88656 0.0
H195 H 0.47556 0.53045 0.93558 0.0
C196 C 0.16613 0.11958 0.28551 0.0
C197 C 0.12509 0.10861 0.26731 0.0
C198 C 0.19997 0.15287 0.28124 0.0
C199 C 0.23842 0.21408 0.22719 0.0
H200 H 0.30593 0.30076 0.29014 0.0
C201 C 0.3562 0.37143 0.2126 0.0
C202 C 0.39714 0.38477 0.23083 0.0
C203 C 0.32362 0.33752 0.21744 0.0
C204 C 0.28778 0.27648 0.27239 0.0
H205 H 0.08656 0.12357 0.23068 0.0
H206 H 0.1457 0.18213 0.22311 0.0
H207 H 0.24774 0.24177 0.29772 0.0
H208 H 0.43653 0.37338 0.26829 0.0
H209 H 0.37967 0.31333 0.27672 0.0
H210 H 0.27841 0.24862 0.20185 0.0
C211 C 0.15205 0.16468 0.24048 0.0
C212 C 0.25441 0.24272 0.27673 0.0
C213 C 0.11818 0.13145 0.24484 0.0
C214 C 0.40507 0.36361 0.25401 0.0
C215 C 0.37245 0.32954 0.25888 0.0
C216 C 0.27182 0.24775 0.22286 0.0
C217 C 0.19332 0.17579 0.25866 0.0
C218 C 0.22922 0.21128 0.25415 0.0
C219 C 0.33139 0.316 0.24057 0.0
C220 C 0.29672 0.27951 0.24538 0.0
H221 H 0.17188 0.10258 0.30317 0.0
H222 H 0.23149 0.16038 0.29546 0.0
H223 H 0.22011 0.18991 0.20943 0.0
H224 H 0.34956 0.38692 0.19437 0.0
H225 H 0.29219 0.32835 0.20313 0.0
C226 C 0.83784 0.14259 0.27001 0.0
C227 C 0.87597 0.15947 0.29046 0.0
C228 C 0.80901 0.1707 0.26156 0.0
C229 C 0.77405 0.27522 0.2871 0.0
H230 H 0.72715 0.27435 0.20951 0.0
C231 C 0.68141 0.41143 0.25396 0.0
C232 C 0.64425 0.39896 0.23246 0.0
C233 C 0.70873 0.38101 0.26016 0.0
C234 C 0.73946 0.27459 0.2313 0.0
H235 H 0.91387 0.21916 0.31784 0.0
H236 H 0.86372 0.26787 0.30322 0.0
H237 H 0.77658 0.22302 0.22157 0.0
H238 H 0.60654 0.34464 0.20062 0.0
H239 H 0.65382 0.2912 0.2118 0.0
H240 H 0.73688 0.32627 0.29702 0.0
C241 C 0.85592 0.23294 0.2938 0.0
C242 C 0.76784 0.24524 0.23817 0.0
C243 C 0.88473 0.20502 0.3021 0.0
C244 C 0.63506 0.35535 0.21724 0.0
C245 C 0.6623 0.32478 0.22356 0.0
C246 C 0.74556 0.30429 0.28027 0.0
C247 C 0.81747 0.21605 0.27367 0.0
C248 C 0.78585 0.24566 0.26614 0.0
C249 C 0.69942 0.3372 0.24517 0.0
C250 C 0.72831 0.30478 0.25228 0.0
H251 H 0.82918 0.10748 0.26124 0.0
H252 H 0.77931 0.15663 0.24625 0.0
H253 H 0.78666 0.27571 0.30888 0.0
H254 H 0.68965 0.44485 0.26595 0.0
H255 H 0.73749 0.39205 0.27658 0.0
C256 C 0.65064 0.59997 0.22777 0.0
C257 C 0.60581 0.60518 0.22386 0.0
C258 C 0.68523 0.63715 0.23324 0.0
C259 C 0.70881 0.75549 0.22455 0.0
H260 H 0.81972 0.75663 0.27324 0.0
C261 C 0.85475 0.90886 0.25813 0.0
C262 C 0.89831 0.89992 0.25968 0.0
C263 C 0.81772 0.87385 0.25198 0.0
C264 C 0.7891 0.75658 0.25934 0.0
H265 H 0.5623 0.65384 0.2239 0.0
H266 H 0.62281 0.71879 0.23408 0.0
H267 H 0.75749 0.69461 0.26871 0.0
H268 H 0.93676 0.84727 0.25395 0.0
H269 H 0.8723 0.78658 0.24317 0.0
H270 H 0.74066 0.81797 0.21553 0.0
C271 C 0.63113 0.68583 0.23226 0.0
C272 C 0.7534 0.72105 0.25676 0.0
C273 C 0.59644 0.64858 0.22667 0.0
C274 C 0.90379 0.85544 0.25322 0.0
C275 C 0.86687 0.82056 0.24723 0.0
C276 C 0.74453 0.79128 0.22731 0.0
C277 C 0.67594 0.68053 0.23512 0.0
C278 C 0.71295 0.71978 0.23912 0.0
C279 C 0.82358 0.8293 0.24738 0.0
C280 C 0.7852 0.7919 0.24449 0.0
H281 H 0.65915 0.56708 0.22568 0.0
H282 H 0.71929 0.63172 0.235 0.0
H283 H 0.67836 0.75531 0.21048 0.0
H284 H 0.84929 0.94272 0.26291 0.0
H285 H 0.78471 0.88157 0.25221 0.0
C286 C 0.13711 0.85487 0.27617 0.0
C287 C 0.10784 0.86623 0.25483 0.0
C288 C 0.16671 0.82659 0.26977 0.0
C289 C 0.18531 0.74251 0.2128 0.0
H290 H 0.30525 0.76352 0.25507 0.0
C291 C 0.32011 0.65006 0.17693 0.0
C292 C 0.34567 0.63242 0.19714 0.0
C293 C 0.29228 0.67935 0.18469 0.0
C294 C 0.27172 0.75707 0.24325 0.0
H295 H 0.0873 0.85749 0.21004 0.0
H296 H 0.13947 0.80916 0.19885 0.0
H297 H 0.2544 0.81339 0.2671 0.0
H298 H 0.36054 0.63073 0.24144 0.0
H299 H 0.31289 0.68294 0.25504 0.0
H300 H 0.2029 0.68663 0.1887 0.0
C301 C 0.13891 0.82113 0.22058 0.0
C302 C 0.24252 0.78553 0.25016 0.0
C303 C 0.10913 0.84909 0.22698 0.0
C304 C 0.3428 0.64491 0.22538 0.0
C305 C 0.31513 0.67455 0.23319 0.0
C306 C 0.21458 0.71434 0.20578 0.0
C307 C 0.16791 0.80926 0.24188 0.0
C308 C 0.19898 0.77871 0.23493 0.0
C309 C 0.28924 0.69171 0.21288 0.0
C310 C 0.25815 0.7214 0.22083 0.0
H311 H 0.13686 0.86743 0.29786 0.0
H312 H 0.18811 0.81774 0.28673 0.0
H313 H 0.15176 0.73558 0.20101 0.0
H314 H 0.3215 0.64109 0.15499 0.0
H315 H 0.27311 0.6924 0.16859 0.0
C316 C 0.38646 0.7054 0.80047 0.0
C317 C 0.37525 0.65914 0.79093 0.0
C318 C 0.35791 0.73352 0.7921 0.0
C319 C 0.26511 0.74253 0.73855 0.0
H320 H 0.24533 0.83415 0.79566 0.0
C321 C 0.13585 0.85634 0.71775 0.0
C322 C 0.14836 0.9014 0.73046 0.0
C323 C 0.16249 0.82545 0.72442 0.0
C324 C 0.25087 0.80913 0.77937 0.0
H325 H 0.32431 0.60609 0.76563 0.0
H326 H 0.27476 0.65546 0.75052 0.0
H327 H 0.29373 0.78271 0.80823 0.0
H328 H 0.19905 0.94947 0.75978 0.0
H329 H 0.24574 0.89596 0.77102 0.0
H330 H 0.22256 0.76938 0.70962 0.0
C331 C 0.30617 0.6699 0.76416 0.0
C332 C 0.27856 0.77958 0.7866 0.0
C333 C 0.33476 0.64164 0.77266 0.0
C334 C 0.18826 0.91497 0.74975 0.0
C335 C 0.21493 0.88419 0.75632 0.0
C336 C 0.23748 0.7723 0.73126 0.0
C337 C 0.31727 0.7161 0.77405 0.0
C338 C 0.28635 0.74622 0.76626 0.0
C339 C 0.20226 0.83898 0.74391 0.0
C340 C 0.23037 0.80624 0.75157 0.0
H341 H 0.41745 0.72001 0.8145 0.0
H342 H 0.36773 0.76904 0.79977 0.0
H343 H 0.27074 0.71735 0.72239 0.0
H344 H 0.10519 0.84477 0.70288 0.0
H345 H 0.15149 0.79083 0.71469 0.0
C346 C 0.14828 0.10098 0.72781 0.0
C347 C 0.10337 0.10573 0.72281 0.0
C348 C 0.18264 0.13833 0.7334 0.0
C349 C 0.20703 0.2559 0.7234 0.0
H350 H 0.31568 0.25827 0.77461 0.0
C351 C 0.35376 0.40874 0.75704 0.0
C352 C 0.3972 0.39932 0.75956 0.0
C353 C 0.31644 0.37405 0.7509 0.0
C354 C 0.28571 0.25788 0.76003 0.0
H355 H 0.05942 0.15385 0.72087 0.0
H356 H 0.11961 0.21926 0.73123 0.0
H357 H 0.25291 0.19674 0.76981 0.0
H358 H 0.4352 0.34603 0.75567 0.0
H359 H 0.37022 0.28587 0.74492 0.0
H360 H 0.2401 0.31757 0.71394 0.0
C361 C 0.12815 0.18644 0.73023 0.0
C362 C 0.24969 0.22263 0.75729 0.0
C363 C 0.09364 0.14895 0.72453 0.0
C364 C 0.40233 0.35458 0.75414 0.0
C365 C 0.3651 0.32003 0.74818 0.0
C366 C 0.24307 0.29143 0.72631 0.0
C367 C 0.17308 0.18151 0.73433 0.0
C368 C 0.2101 0.22084 0.73867 0.0
C369 C 0.32185 0.32934 0.74731 0.0
C370 C 0.28299 0.29242 0.74438 0.0
H371 H 0.15712 0.06827 0.72657 0.0
H372 H 0.21681 0.13316 0.73607 0.0
H373 H 0.17725 0.25532 0.70861 0.0
H374 H 0.34856 0.44281 0.76099 0.0
H375 H 0.28348 0.38221 0.75033 0.0
C376 C 0.81984 0.14916 0.67768 0.0
C377 C 0.84326 0.12932 0.69768 0.0
C378 C 0.79235 0.17878 0.68546 0.0
C379 C 0.76975 0.25352 0.74483 0.0
H380 H 0.65331 0.23932 0.69906 0.0
C381 C 0.6361 0.35435 0.77575 0.0
C382 C 0.61007 0.36897 0.75425 0.0
C383 C 0.66505 0.32525 0.76958 0.0
C384 C 0.68591 0.24419 0.71188 0.0
H385 H 0.85467 0.12419 0.74161 0.0
H386 H 0.8075 0.17688 0.7553 0.0
H387 H 0.70324 0.18881 0.68715 0.0
H388 H 0.59469 0.36509 0.70942 0.0
H389 H 0.64568 0.31513 0.6987 0.0
H390 H 0.75263 0.30931 0.76938 0.0
C391 C 0.81117 0.16992 0.7336 0.0
C392 C 0.71449 0.21513 0.70508 0.0
C393 C 0.83857 0.13997 0.72576 0.0
C394 C 0.614 0.35423 0.72648 0.0
C395 C 0.64308 0.32533 0.72033 0.0
C396 C 0.74122 0.28283 0.75157 0.0
C397 C 0.78745 0.1893 0.71347 0.0
C398 C 0.75683 0.21962 0.72135 0.0
C399 C 0.66879 0.31023 0.74178 0.0
C400 C 0.69902 0.27868 0.73506 0.0
H401 H 0.8227 0.14174 0.65586 0.0
H402 H 0.77497 0.19359 0.6695 0.0
H403 H 0.80234 0.25803 0.75762 0.0
H404 H 0.63381 0.36501 0.79738 0.0
H405 H 0.68392 0.31392 0.78661 0.0
C406 C 0.64876 0.60199 0.74644 0.0
C407 C 0.62466 0.60944 0.76828 0.0
C408 C 0.68334 0.63518 0.74282 0.0
C409 C 0.72527 0.75665 0.75988 0.0
H410 H 0.83617 0.72588 0.74195 0.0
C411 C 0.87762 0.8913 0.75557 0.0
C412 C 0.90097 0.88289 0.7335 0.0
C413 C 0.84509 0.85768 0.76097 0.0
C414 C 0.80525 0.73498 0.74669 0.0
H415 H 0.61847 0.65648 0.80401 0.0
H416 H 0.67854 0.71465 0.79761 0.0
H417 H 0.77665 0.66747 0.74863 0.0
H418 H 0.90887 0.83342 0.69959 0.0
H419 H 0.85193 0.77468 0.70877 0.0
H420 H 0.75357 0.82404 0.75767 0.0
C421 C 0.67033 0.68358 0.78297 0.0
C422 C 0.77116 0.7015 0.7505 0.0
C423 C 0.63594 0.65035 0.78662 0.0
C424 C 0.89163 0.84039 0.71699 0.0
C425 C 0.85912 0.80681 0.72231 0.0
C426 C 0.75929 0.79011 0.75599 0.0
C427 C 0.69439 0.67642 0.761 0.0
C428 C 0.73075 0.71195 0.75708 0.0
C429 C 0.83528 0.81508 0.74428 0.0
C430 C 0.79965 0.77967 0.74927 0.0
H431 H 0.64058 0.57063 0.73206 0.0
H432 H 0.70099 0.62882 0.72555 0.0
H433 H 0.69429 0.76569 0.76457 0.0
H434 H 0.8845 0.92392 0.76858 0.0
H435 H 0.82774 0.86499 0.77826 0.0
loop_
_geom_bond_atom_site_label_1
_geom_bond_atom_site_label_2
_geom_bond_distance
_geom_bond_site_symmetry_2
_ccdc_geom_bond_type
Co0 O3 1.970 1_455 S
Co0 N17 1.989 1_565 S
Co0 O25 1.967 . S
Co0 O32 1.920 . S
Co1 O4 1.966 1_545 S
Co1 N10 2.022 . S
Co1 N18 1.993 1_655 S
Co1 O26 1.941 . S
C2 O3 1.258 . S
C2 O4 1.263 . S
O3 Co0 1.970 1_655 S
O3 C2 1.258 . S
O4 Co1 1.966 1_565 S
O4 C2 1.263 . S
C5 O6 1.235 . S
C5 O32 1.289 . S
O6 C5 1.235 . S
C7 C9 1.400 . S
C7 N10 1.351 . S
C7 C12 1.501 . S
C8 C9 1.387 . S
C8 N11 1.341 . S
C9 C7 1.400 . S
C9 C8 1.387 . S
N10 Co1 2.022 . S
N10 C7 1.351 . S
N10 N11 1.365 . S
N11 C8 1.341 . S
N11 N10 1.365 . S
N11 H31 0.862 . S
C12 C7 1.501 . S
C12 H13 0.961 . S
C12 H14 0.961 . S
C12 H15 0.960 . S
H13 C12 0.961 . S
H14 C12 0.961 . S
H15 C12 0.960 . S
C16 N17 1.342 . S
C16 C20 1.401 . S
C16 C21 1.499 . S
N17 Co0 1.989 1_545 S
N17 C16 1.342 . S
N17 N18 1.388 . S
N18 Co1 1.993 1_455 S
N18 N17 1.388 . S
N18 C19 1.346 . S
C19 N18 1.346 . S
C19 C20 1.396 . S
C19 C29 1.510 . S
C20 C16 1.401 . S
C20 C19 1.396 . S
C21 C16 1.499 . S
C21 H22 0.959 1_545 S
C21 H23 0.960 . S
C21 H24 0.961 . S
H22 C21 0.959 1_565 S
H23 C21 0.960 . S
H24 C21 0.961 . S
O25 Co0 1.967 . S
O25 C33 1.258 1_565 S
O26 Co1 1.941 . S
O26 C33 1.266 1_655 S
H27 C29 0.959 . S
H28 C29 0.961 . S
C29 C19 1.510 . S
C29 H27 0.959 . S
C29 H28 0.961 . S
C29 H30 0.960 1_455 S
H30 C29 0.960 1_655 S
H31 N11 0.862 . S
O32 Co0 1.920 . S
O32 C5 1.289 . S
C33 O25 1.258 1_545 S
C33 O26 1.266 1_455 S
Co34 O37 1.970 1_565 S
Co34 N51 1.989 1_455 S
Co34 O59 1.967 . S
Co34 O66 1.920 . S
Co35 O38 1.966 1_655 S
Co35 N44 2.022 . S
Co35 N52 1.993 1_545 S
Co35 O60 1.941 . S
C36 O37 1.258 . S
C36 O38 1.263 . S
O37 Co34 1.970 1_545 S
O37 C36 1.258 . S
O38 Co35 1.966 1_455 S
O38 C36 1.263 . S
C39 O40 1.235 . S
C39 O66 1.289 . S
O40 C39 1.235 . S
C41 C43 1.400 . S
C41 N44 1.351 . S
C41 C46 1.501 . S
C42 C43 1.387 . S
C42 N45 1.341 . S
C43 C41 1.400 . S
C43 C42 1.387 . S
N44 Co35 2.022 . S
N44 C41 1.351 . S
N44 N45 1.365 . S
N45 C42 1.341 . S
N45 N44 1.365 . S
N45 H65 0.862 . S
C46 C41 1.501 . S
C46 H47 0.961 . S
C46 H48 0.961 . S
C46 H49 0.960 . S
H47 C46 0.961 . S
H48 C46 0.961 . S
H49 C46 0.960 . S
C50 N51 1.342 . S
C50 C54 1.401 . S
C50 C55 1.499 . S
N51 Co34 1.989 1_655 S
N51 C50 1.342 . S
N51 N52 1.388 . S
N52 Co35 1.993 1_565 S
N52 N51 1.388 . S
N52 C53 1.346 . S
C53 N52 1.346 . S
C53 C54 1.396 . S
C53 C63 1.510 . S
C54 C50 1.401 . S
C54 C53 1.396 . S
C55 C50 1.499 . S
C55 H56 0.959 1_655 S
C55 H57 0.960 . S
C55 H58 0.961 . S
H56 C55 0.959 1_455 S
H57 C55 0.960 . S
H58 C55 0.961 . S
O59 Co34 1.967 . S
O59 C67 1.258 . S
O60 Co35 1.941 . S
O60 C67 1.266 1_645 S
H61 C63 0.959 . S
H62 C63 0.961 . S
C63 C53 1.510 . S
C63 H61 0.959 . S
C63 H62 0.961 . S
C63 H64 0.960 1_565 S
H64 C63 0.960 1_545 S
H65 N45 0.862 . S
O66 Co34 1.920 . S
O66 C39 1.289 . S
C67 O59 1.258 . S
C67 O60 1.266 1_465 S
Co68 O71 1.970 . S
Co68 N85 1.989 . S
Co68 O93 1.967 . S
Co68 O100 1.920 . S
Co69 O72 1.966 . S
Co69 N78 2.022 . S
Co69 N86 1.993 . S
Co69 O94 1.941 . S
C70 O71 1.258 . S
C70 O72 1.263 . S
O71 Co68 1.970 . S
O71 C70 1.258 . S
O72 Co69 1.966 . S
O72 C70 1.263 . S
C73 O74 1.235 . S
C73 O100 1.289 . S
O74 C73 1.235 . S
C75 C77 1.400 . S
C75 N78 1.351 . S
C75 C80 1.501 . S
C76 C77 1.387 . S
C76 N79 1.341 . S
C77 C75 1.400 . S
C77 C76 1.387 . S
N78 Co69 2.022 . S
N78 C75 1.351 . S
N78 N79 1.365 . S
N79 C76 1.341 . S
N79 N78 1.365 . S
N79 H99 0.862 . S
C80 C75 1.501 . S
C80 H81 0.961 . S
C80 H82 0.961 . S
C80 H83 0.960 . S
H81 C80 0.961 . S
H82 C80 0.961 . S
H83 C80 0.960 . S
C84 N85 1.342 . S
C84 C88 1.401 . S
C84 C89 1.499 . S
N85 Co68 1.989 . S
N85 C84 1.342 . S
N85 N86 1.388 . S
N86 Co69 1.993 . S
N86 N85 1.388 . S
N86 C87 1.346 . S
C87 N86 1.346 . S
C87 C88 1.396 . S
C87 C97 1.510 . S
C88 C84 1.401 . S
C88 C87 1.396 . S
C89 C84 1.499 . S
C89 H90 0.959 . S
C89 H91 0.960 . S
C89 H92 0.961 . S
H90 C89 0.959 . S
H91 C89 0.960 . S
H92 C89 0.961 . S
O93 Co68 1.967 . S
O93 C101 1.258 . S
O94 Co69 1.941 . S
O94 C101 1.266 . S
H95 C97 0.959 . S
H96 C97 0.961 . S
C97 C87 1.510 . S
C97 H95 0.959 . S
C97 H96 0.961 . S
C97 H98 0.960 . S
H98 C97 0.960 . S
H99 N79 0.862 . S
O100 Co68 1.920 . S
O100 C73 1.289 . S
C101 O93 1.258 . S
C101 O94 1.266 . S
Co102 O105 1.970 . S
Co102 N119 1.989 . S
Co102 O127 1.967 . S
Co102 O134 1.920 . S
Co103 O106 1.966 . S
Co103 N112 2.022 . S
Co103 N120 1.993 . S
Co103 O128 1.941 . S
C104 O105 1.258 . S
C104 O106 1.263 . S
O105 Co102 1.970 . S
O105 C104 1.258 . S
O106 Co103 1.966 . S
O106 C104 1.263 . S
C107 O108 1.235 . S
C107 O134 1.289 . S
O108 C107 1.235 . S
C109 C111 1.400 . S
C109 N112 1.351 . S
C109 C114 1.501 . S
C110 C111 1.387 . S
C110 N113 1.341 . S
C111 C109 1.400 . S
C111 C110 1.387 . S
N112 Co103 2.022 . S
N112 C109 1.351 . S
N112 N113 1.365 . S
N113 C110 1.341 . S
N113 N112 1.365 . S
N113 H133 0.862 . S
C114 C109 1.501 . S
C114 H115 0.961 . S
C114 H116 0.961 . S
C114 H117 0.960 . S
H115 C114 0.961 . S
H116 C114 0.961 . S
H117 C114 0.960 . S
C118 N119 1.342 . S
C118 C122 1.401 . S
C118 C123 1.499 . S
N119 Co102 1.989 . S
N119 C118 1.342 . S
N119 N120 1.388 . S
N120 Co103 1.993 . S
N120 N119 1.388 . S
N120 C121 1.346 . S
C121 N120 1.346 . S
C121 C122 1.396 . S
C121 C131 1.510 . S
C122 C118 1.401 . S
C122 C121 1.396 . S
C123 C118 1.499 . S
C123 H124 0.959 . S
C123 H125 0.960 . S
C123 H126 0.961 . S
H124 C123 0.959 . S
H125 C123 0.960 . S
H126 C123 0.961 . S
O127 Co102 1.967 . S
O127 C135 1.258 . S
O128 Co103 1.941 . S
O128 C135 1.266 . S
H129 C131 0.959 . S
H130 C131 0.961 . S
C131 C121 1.510 . S
C131 H129 0.959 . S
C131 H130 0.961 . S
C131 H132 0.960 . S
H132 C131 0.960 . S
H133 N113 0.862 . S
O134 Co102 1.920 . S
O134 C107 1.289 . S
C135 O127 1.258 . S
C135 O128 1.266 . S
C136 C137 1.357 . S
C136 C138 1.327 . S
C136 H161 0.950 . S
C137 C136 1.357 . S
C137 C153 1.343 1_465 S
C138 C136 1.327 . S
C138 C157 1.429 . S
C138 H162 0.950 . S
C139 C156 1.574 . S
C139 C158 1.368 1_645 S
C139 H163 0.949 . S
H140 C144 0.949 . S
C141 C142 1.349 1_645 S
C141 C143 1.327 . S
C141 H164 0.950 . S
C142 C141 1.349 1_465 S
C142 C154 1.349 . S
C143 C141 1.327 . S
C143 C159 1.429 1_645 S
C143 H165 0.950 . S
C144 H140 0.949 . S
C144 C152 1.574 . S
C144 C160 1.368 . S
H145 C153 0.950 . S
H146 C151 0.950 . S
H147 C152 0.949 . S
H148 C154 0.950 . S
H149 C155 0.950 . S
H150 C156 0.949 . S
C151 H146 0.950 . S
C151 C153 1.327 . S
C151 C157 1.429 1_645 S
C152 C144 1.574 . S
C152 H147 0.949 . S
C152 C158 1.368 . S
C153 C137 1.343 1_645 S
C153 H145 0.950 . S
C153 C151 1.327 . S
C154 C142 1.349 . S
C154 H148 0.950 . S
C154 C155 1.327 . S
C155 H149 0.950 . S
C155 C154 1.327 . S
C155 C159 1.429 . S
C156 C139 1.574 . S
C156 H150 0.949 . S
C156 C160 1.368 1_645 S
C157 C138 1.429 . S
C157 C151 1.429 1_465 S
C157 C158 1.523 . S
C158 C139 1.368 1_465 S
C158 C152 1.368 . S
C158 C157 1.523 . S
C159 C143 1.429 1_465 S
C159 C155 1.429 . S
C159 C160 1.523 . S
C160 C144 1.368 . S
C160 C156 1.368 1_465 S
C160 C159 1.523 . S
H161 C136 0.950 . S
H162 C138 0.950 . S
H163 C139 0.949 . S
H164 C141 0.950 . S
H165 C143 0.950 . S
C166 C167 1.349 . S
C166 C168 1.327 . S
C166 H191 0.950 . S
C167 C166 1.349 . S
C167 C183 1.349 . S
C168 C166 1.327 . S
C168 C187 1.429 . S
C168 H192 0.950 . S
C169 C186 1.574 1_554 S
C169 C188 1.368 . S
C169 H193 0.949 . S
H170 C174 0.949 . S
C171 C172 1.349 . S
C171 C173 1.327 . S
C171 H194 0.950 . S
C172 C171 1.349 . S
C172 C184 1.349 . S
C173 C171 1.327 . S
C173 C189 1.429 . S
C173 H195 0.950 . S
C174 H170 0.949 . S
C174 C182 1.574 1_556 S
C174 C190 1.368 . S
H175 C183 0.950 . S
H176 C181 0.950 . S
H177 C182 0.949 . S
H178 C184 0.950 . S
H179 C185 0.950 . S
H180 C186 0.949 . S
C181 H176 0.950 . S
C181 C183 1.327 . S
C181 C187 1.429 . S
C182 C174 1.574 1_554 S
C182 H177 0.949 . S
C182 C188 1.368 . S
C183 C167 1.349 . S
C183 H175 0.950 . S
C183 C181 1.327 . S
C184 C172 1.349 . S
C184 H178 0.950 . S
C184 C185 1.327 . S
C185 H179 0.950 . S
C185 C184 1.327 . S
C185 C189 1.429 . S
C186 C169 1.574 1_556 S
C186 H180 0.949 . S
C186 C190 1.368 . S
C187 C168 1.429 . S
C187 C181 1.429 . S
C187 C188 1.523 . S
C188 C169 1.368 . S
C188 C182 1.368 . S
C188 C187 1.523 . S
C189 C173 1.429 . S
C189 C185 1.429 . S
C189 C190 1.523 . S
C190 C174 1.368 . S
C190 C186 1.368 . S
C190 C189 1.523 . S
H191 C166 0.950 . S
H192 C168 0.950 . S
H193 C169 0.949 . S
H194 C171 0.950 . S
H195 C173 0.950 . S
C196 C197 1.349 . S
C196 C198 1.327 . S
C196 H221 0.950 . S
C197 C196 1.349 . S
C197 C213 1.349 . S
C198 C196 1.327 . S
C198 C217 1.429 . S
C198 H222 0.950 . S
C199 C216 1.574 . S
C199 C218 1.368 . S
C199 H223 0.949 . S
H200 C204 0.949 . S
C201 C202 1.349 . S
C201 C203 1.327 . S
C201 H224 0.950 . S
C202 C201 1.349 . S
C202 C214 1.349 . S
C203 C201 1.327 . S
C203 C219 1.429 . S
C203 H225 0.950 . S
C204 H200 0.949 . S
C204 C212 1.574 . S
C204 C220 1.368 . S
H205 C213 0.950 . S
H206 C211 0.950 . S
H207 C212 0.949 . S
H208 C214 0.950 . S
H209 C215 0.950 . S
H210 C216 0.949 . S
C211 H206 0.950 . S
C211 C213 1.327 . S
C211 C217 1.429 . S
C212 C204 1.574 . S
C212 H207 0.949 . S
C212 C218 1.368 . S
C213 C197 1.349 . S
C213 H205 0.950 . S
C213 C211 1.327 . S
C214 C202 1.349 . S
C214 H208 0.950 . S
C214 C215 1.327 . S
C215 H209 0.950 . S
C215 C214 1.327 . S
C215 C219 1.429 . S
C216 C199 1.574 . S
C216 H210 0.949 . S
C216 C220 1.368 . S
C217 C198 1.429 . S
C217 C211 1.429 . S
C217 C218 1.523 . S
C218 C199 1.368 . S
C218 C212 1.368 . S
C218 C217 1.523 . S
C219 C203 1.429 . S
C219 C215 1.429 . S
C219 C220 1.523 . S
C220 C204 1.368 . S
C220 C216 1.368 . S
C220 C219 1.523 . S
H221 C196 0.950 . S
H222 C198 0.950 . S
H223 C199 0.949 . S
H224 C201 0.950 . S
H225 C203 0.950 . S
C226 C227 1.349 . S
C226 C228 1.327 . S
C226 H251 0.950 . S
C227 C226 1.349 . S
C227 C243 1.349 . S
C228 C226 1.327 . S
C228 C247 1.429 . S
C228 H252 0.950 . S
C229 C246 1.574 . S
C229 C248 1.368 . S
C229 H253 0.949 . S
H230 C234 0.949 . S
C231 C232 1.349 . S
C231 C233 1.327 . S
C231 H254 0.950 . S
C232 C231 1.349 . S
C232 C244 1.349 . S
C233 C231 1.327 . S
C233 C249 1.429 . S
C233 H255 0.950 . S
C234 H230 0.949 . S
C234 C242 1.574 . S
C234 C250 1.368 . S
H235 C243 0.950 . S
H236 C241 0.950 . S
H237 C242 0.949 . S
H238 C244 0.950 . S
H239 C245 0.950 . S
H240 C246 0.949 . S
C241 H236 0.950 . S
C241 C243 1.327 . S
C241 C247 1.429 . S
C242 C234 1.574 . S
C242 H237 0.949 . S
C242 C248 1.368 . S
C243 C227 1.349 . S
C243 H235 0.950 . S
C243 C241 1.327 . S
C244 C232 1.349 . S
C244 H238 0.950 . S
C244 C245 1.327 . S
C245 H239 0.950 . S
C245 C244 1.327 . S
C245 C249 1.429 . S
C246 C229 1.574 . S
C246 H240 0.949 . S
C246 C250 1.368 . S
C247 C228 1.429 . S
C247 C241 1.429 . S
C247 C248 1.523 . S
C248 C229 1.368 . S
C248 C242 1.368 . S
C248 C247 1.523 . S
C249 C233 1.429 . S
C249 C245 1.429 . S
C249 C250 1.523 . S
C250 C234 1.368 . S
C250 C246 1.368 . S
C250 C249 1.523 . S
H251 C226 0.950 . S
H252 C228 0.950 . S
H253 C229 0.949 . S
H254 C231 0.950 . S
H255 C233 0.950 . S
C256 C257 1.349 . S
C256 C258 1.327 . S
C256 H281 0.950 . S
C257 C256 1.349 . S
C257 C273 1.349 . S
C258 C256 1.327 . S
C258 C277 1.429 . S
C258 H282 0.950 . S
C259 C276 1.574 . S
C259 C278 1.368 . S
C259 H283 0.949 . S
H260 C264 0.949 . S
C261 C262 1.349 . S
C261 C263 1.327 . S
C261 H284 0.950 . S
C262 C261 1.349 . S
C262 C274 1.349 . S
C263 C261 1.327 . S
C263 C279 1.429 . S
C263 H285 0.950 . S
C264 H260 0.949 . S
C264 C272 1.574 . S
C264 C280 1.368 . S
H265 C273 0.950 . S
H266 C271 0.950 . S
H267 C272 0.949 . S
H268 C274 0.950 . S
H269 C275 0.950 . S
H270 C276 0.949 . S
C271 H266 0.950 . S
C271 C273 1.327 . S
C271 C277 1.429 . S
C272 C264 1.574 . S
C272 H267 0.949 . S
C272 C278 1.368 . S
C273 C257 1.349 . S
C273 H265 0.950 . S
C273 C271 1.327 . S
C274 C262 1.349 . S
C274 H268 0.950 . S
C274 C275 1.327 . S
C275 H269 0.950 . S
C275 C274 1.327 . S
C275 C279 1.429 . S
C276 C259 1.574 . S
C276 H270 0.949 . S
C276 C280 1.368 . S
C277 C258 1.429 . S
C277 C271 1.429 . S
C277 C278 1.523 . S
C278 C259 1.368 . S
C278 C272 1.368 . S
C278 C277 1.523 . S
C279 C263 1.429 . S
C279 C275 1.429 . S
C279 C280 1.523 . S
C280 C264 1.368 . S
C280 C276 1.368 . S
C280 C279 1.523 . S
H281 C256 0.950 . S
H282 C258 0.950 . S
H283 C259 0.949 . S
H284 C261 0.950 . S
H285 C263 0.950 . S
C286 C287 1.349 . S
C286 C288 1.327 . S
C286 H311 0.950 . S
C287 C286 1.349 . S
C287 C303 1.349 . S
C288 C286 1.327 . S
C288 C307 1.429 . S
C288 H312 0.950 . S
C289 C306 1.574 . S
C289 C308 1.368 . S
C289 H313 0.949 . S
H290 C294 0.949 . S
C291 C292 1.349 . S
C291 C293 1.327 . S
C291 H314 0.950 . S
C292 C291 1.349 . S
C292 C304 1.349 . S
C293 C291 1.327 . S
C293 C309 1.429 . S
C293 H315 0.950 . S
C294 H290 0.949 . S
C294 C302 1.574 . S
C294 C310 1.368 . S
H295 C303 0.950 . S
H296 C301 0.950 . S
H297 C302 0.949 . S
H298 C304 0.950 . S
H299 C305 0.950 . S
H300 C306 0.949 . S
C301 H296 0.950 . S
C301 C303 1.327 . S
C301 C307 1.429 . S
C302 C294 1.574 . S
C302 H297 0.949 . S
C302 C308 1.368 . S
C303 C287 1.349 . S
C303 H295 0.950 . S
C303 C301 1.327 . S
C304 C292 1.349 . S
C304 H298 0.950 . S
C304 C305 1.327 . S
C305 H299 0.950 . S
C305 C304 1.327 . S
C305 C309 1.429 . S
C306 C289 1.574 . S
C306 H300 0.949 . S
C306 C310 1.368 . S
C307 C288 1.429 . S
C307 C301 1.429 . S
C307 C308 1.523 . S
C308 C289 1.368 . S
C308 C302 1.368 . S
C308 C307 1.523 . S
C309 C293 1.429 . S
C309 C305 1.429 . S
C309 C310 1.523 . S
C310 C294 1.368 . S
C310 C306 1.368 . S
C310 C309 1.523 . S
H311 C286 0.950 . S
H312 C288 0.950 . S
H313 C289 0.949 . S
H314 C291 0.950 . S
H315 C293 0.950 . S
C316 C317 1.349 . S
C316 C318 1.327 . S
C316 H341 0.950 . S
C317 C316 1.349 . S
C317 C333 1.349 . S
C318 C316 1.327 . S
C318 C337 1.429 . S
C318 H342 0.950 . S
C319 C336 1.574 . S
C319 C338 1.368 . S
C319 H343 0.949 . S
H320 C324 0.949 . S
C321 C322 1.349 . S
C321 C323 1.327 . S
C321 H344 0.950 . S
C322 C321 1.349 . S
C322 C334 1.349 . S
C323 C321 1.327 . S
C323 C339 1.429 . S
C323 H345 0.950 . S
C324 H320 0.949 . S
C324 C332 1.574 . S
C324 C340 1.368 . S
H325 C333 0.950 . S
H326 C331 0.950 . S
H327 C332 0.949 . S
H328 C334 0.950 . S
H329 C335 0.950 . S
H330 C336 0.949 . S
C331 H326 0.950 . S
C331 C333 1.327 . S
C331 C337 1.429 . S
C332 C324 1.574 . S
C332 H327 0.949 . S
C332 C338 1.368 . S
C333 C317 1.349 . S
C333 H325 0.950 . S
C333 C331 1.327 . S
C334 C322 1.349 . S
C334 H328 0.950 . S
C334 C335 1.327 . S
C335 H329 0.950 . S
C335 C334 1.327 . S
C335 C339 1.429 . S
C336 C319 1.574 . S
C336 H330 0.949 . S
C336 C340 1.368 . S
C337 C318 1.429 . S
C337 C331 1.429 . S
C337 C338 1.523 . S
C338 C319 1.368 . S
C338 C332 1.368 . S
C338 C337 1.523 . S
C339 C323 1.429 . S
C339 C335 1.429 . S
C339 C340 1.523 . S
C340 C324 1.368 . S
C340 C336 1.368 . S
C340 C339 1.523 . S
H341 C316 0.950 . S
H342 C318 0.950 . S
H343 C319 0.949 . S
H344 C321 0.950 . S
H345 C323 0.950 . S
C346 C347 1.349 . S
C346 C348 1.327 . S
C346 H371 0.950 . S
C347 C346 1.349 . S
C347 C363 1.349 . S
C348 C346 1.327 . S
C348 C367 1.429 . S
C348 H372 0.950 . S
C349 C366 1.574 . S
C349 C368 1.368 . S
C349 H373 0.949 . S
H350 C354 0.949 . S
C351 C352 1.349 . S
C351 C353 1.327 . S
C351 H374 0.950 . S
C352 C351 1.349 . S
C352 C364 1.349 . S
C353 C351 1.327 . S
C353 C369 1.429 . S
C353 H375 0.950 . S
C354 H350 0.949 . S
C354 C362 1.574 . S
C354 C370 1.368 . S
H355 C363 0.950 . S
H356 C361 0.950 . S
H357 C362 0.949 . S
H358 C364 0.950 . S
H359 C365 0.950 . S
H360 C366 0.949 . S
C361 H356 0.950 . S
C361 C363 1.327 . S
C361 C367 1.429 . S
C362 C354 1.574 . S
C362 H357 0.949 . S
C362 C368 1.368 . S
C363 C347 1.349 . S
C363 H355 0.950 . S
C363 C361 1.327 . S
C364 C352 1.349 . S
C364 H358 0.950 . S
C364 C365 1.327 . S
C365 H359 0.950 . S
C365 C364 1.327 . S
C365 C369 1.429 . S
C366 C349 1.574 . S
C366 H360 0.949 . S
C366 C370 1.368 . S
C367 C348 1.429 . S
C367 C361 1.429 . S
C367 C368 1.523 . S
C368 C349 1.368 . S
C368 C362 1.368 . S
C368 C367 1.523 . S
C369 C353 1.429 . S
C369 C365 1.429 . S
C369 C370 1.523 . S
C370 C354 1.368 . S
C370 C366 1.368 . S
C370 C369 1.523 . S
H371 C346 0.950 . S
H372 C348 0.950 . S
H373 C349 0.949 . S
H374 C351 0.950 . S
H375 C353 0.950 . S
C376 C377 1.349 . S
C376 C378 1.327 . S
C376 H401 0.950 . S
C377 C376 1.349 . S
C377 C393 1.349 . S
C378 C376 1.327 . S
C378 C397 1.429 . S
C378 H402 0.950 . S
C379 C396 1.574 . S
C379 C398 1.368 . S
C379 H403 0.949 . S
H380 C384 0.949 . S
C381 C382 1.349 . S
C381 C383 1.327 . S
C381 H404 0.950 . S
C382 C381 1.349 . S
C382 C394 1.349 . S
C383 C381 1.327 . S
C383 C399 1.429 . S
C383 H405 0.950 . S
C384 H380 0.949 . S
C384 C392 1.574 . S
C384 C400 1.368 . S
H385 C393 0.950 . S
H386 C391 0.950 . S
H387 C392 0.949 . S
H388 C394 0.950 . S
H389 C395 0.950 . S
H390 C396 0.949 . S
C391 H386 0.950 . S
C391 C393 1.327 . S
C391 C397 1.429 . S
C392 C384 1.574 . S
C392 H387 0.949 . S
C392 C398 1.368 . S
C393 C377 1.349 . S
C393 H385 0.950 . S
C393 C391 1.327 . S
C394 C382 1.349 . S
C394 H388 0.950 . S
C394 C395 1.327 . S
C395 H389 0.950 . S
C395 C394 1.327 . S
C395 C399 1.429 . S
C396 C379 1.574 . S
C396 H390 0.949 . S
C396 C400 1.368 . S
C397 C378 1.429 . S
C397 C391 1.429 . S
C397 C398 1.523 . S
C398 C379 1.368 . S
C398 C392 1.368 . S
C398 C397 1.523 . S
C399 C383 1.429 . S
C399 C395 1.429 . S
C399 C400 1.523 . S
C400 C384 1.368 . S
C400 C396 1.368 . S
C400 C399 1.523 . S
H401 C376 0.950 . S
H402 C378 0.950 . S
H403 C379 0.949 . S
H404 C381 0.950 . S
H405 C383 0.950 . S
C406 C407 1.349 . S
C406 C408 1.327 . S
C406 H431 0.950 . S
C407 C406 1.349 . S
C407 C423 1.349 . S
C408 C406 1.327 . S
C408 C427 1.429 . S
C408 H432 0.950 . S
C409 C426 1.574 . S
C409 C428 1.368 . S
C409 H433 0.949 . S
H410 C414 0.949 . S
C411 C412 1.349 . S
C411 C413 1.327 . S
C411 H434 0.950 . S
C412 C411 1.349 . S
C412 C424 1.349 . S
C413 C411 1.327 . S
C413 C429 1.429 . S
C413 H435 0.950 . S
C414 H410 0.949 . S
C414 C422 1.574 . S
C414 C430 1.368 . S
H415 C423 0.950 . S
H416 C421 0.950 . S
H417 C422 0.949 . S
H418 C424 0.950 . S
H419 C425 0.950 . S
H420 C426 0.949 . S
C421 H416 0.950 . S
C421 C423 1.327 . S
C421 C427 1.429 . S
C422 C414 1.574 . S
C422 H417 0.949 . S
C422 C428 1.368 . S
C423 C407 1.349 . S
C423 H415 0.950 . S
C423 C421 1.327 . S
C424 C412 1.349 . S
C424 H418 0.950 . S
C424 C425 1.327 . S
C425 H419 0.950 . S
C425 C424 1.327 . S
C425 C429 1.429 . S
C426 C409 1.574 . S
C426 H420 0.949 . S
C426 C430 1.368 . S
C427 C408 1.429 . S
C427 C421 1.429 . S
C427 C428 1.523 . S
C428 C409 1.368 . S
C428 C422 1.368 . S
C428 C427 1.523 . S
C429 C413 1.429 . S
C429 C425 1.429 . S
C429 C430 1.523 . S
C430 C414 1.368 . S
C430 C426 1.368 . S
C430 C429 1.523 . S
H431 C406 0.950 . S
H432 C408 0.950 . S
H433 C409 0.949 . S
H434 C411 0.950 . S
H435 C413 0.950 . S
C137 C33 1.508 1_565 S
C142 C67 1.509 . S
C167 C135 1.510 . S
C172 C101 1.510 . S
C197 C20 1.250 . S
C202 C122 1.250 . S
C227 C9 1.532 . S
C232 C107 1.552 . S
C257 C104 1.551 . S
C262 C2 1.551 . S
C287 C5 1.553 . S
C292 C111 1.532 . S
C317 C77 1.532 . S
C322 C39 1.553 . S
C347 C36 1.551 . S
C352 C70 1.547 . S
C377 C43 1.532 . S
C382 C73 1.553 . S
C407 C88 1.250 . S
C412 C54 1.254 . S
