# Generated by pormake.
# Topology unf, (4)-cn, num edge types: 1
# Building blocks:
#     Node 0, Type 0, BuildingBlock: NAHDIM_clean_sbu_0, # of connection points: 4
#     Node 1, Type 0, BuildingBlock: NAHDIM_clean_sbu_0, # of connection points: 4
#     Node 2, Type 0, BuildingBlock: NAHDIM_clean_sbu_0, # of connection points: 4
#     Node 3, Type 0, BuildingBlock: NAHDIM_clean_sbu_0, # of connection points: 4
#     Node 4, Type 0, BuildingBlock: NAHDIM_clean_sbu_0, # of connection points: 4
#     Node 5, Type 0, BuildingBlock: NAHDIM_clean_sbu_0, # of connection points: 4
#     Node 6, Type 0, BuildingBlock: NAHDIM_clean_sbu_0, # of connection points: 4
#     Node 7, Type 0, BuildingBlock: NAHDIM_clean_sbu_0, # of connection points: 4
#     Node 8, Type 0, BuildingBlock: NAHDIM_clean_sbu_0, # of connection points: 4
#     Node 9, Type 0, BuildingBlock: NAHDIM_clean_sbu_0, # of connection points: 4
#     Node 10, Type 0, BuildingBlock: NAHDIM_clean_sbu_0, # of connection points: 4
#     Node 11, Type 0, BuildingBlock: NAHDIM_clean_sbu_0, # of connection points: 4
#     Edge 12, Type (0, 0), BuildingBlock: XUDNAN_clean_linker_2, # of connection points: 2
#     Edge 13, Type (0, 0), BuildingBlock: XUDNAN_clean_linker_2, # of connection points: 2
#     Edge 14, Type (0, 0), BuildingBlock: XUDNAN_clean_linker_2, # of connection points: 2
#     Edge 15, Type (0, 0), BuildingBlock: XUDNAN_clean_linker_2, # of connection points: 2
#     Edge 16, Type (0, 0), BuildingBlock: XUDNAN_clean_linker_2, # of connection points: 2
#     Edge 17, Type (0, 0), BuildingBlock: XUDNAN_clean_linker_2, # of connection points: 2
#     Edge 18, Type (0, 0), BuildingBlock: XUDNAN_clean_linker_2, # of connection points: 2
#     Edge 19, Type (0, 0), BuildingBlock: XUDNAN_clean_linker_2, # of connection points: 2
#     Edge 20, Type (0, 0), BuildingBlock: XUDNAN_clean_linker_2, # of connection points: 2
#     Edge 21, Type (0, 0), BuildingBlock: XUDNAN_clean_linker_2, # of connection points: 2
#     Edge 22, Type (0, 0), BuildingBlock: XUDNAN_clean_linker_2, # of connection points: 2
#     Edge 23, Type (0, 0), BuildingBlock: XUDNAN_clean_linker_2, # of connection points: 2
#     Edge 24, Type (0, 0), BuildingBlock: XUDNAN_clean_linker_2, # of connection points: 2
#     Edge 25, Type (0, 0), BuildingBlock: XUDNAN_clean_linker_2, # of connection points: 2
#     Edge 26, Type (0, 0), BuildingBlock: XUDNAN_clean_linker_2, # of connection points: 2
#     Edge 27, Type (0, 0), BuildingBlock: XUDNAN_clean_linker_2, # of connection points: 2
#     Edge 28, Type (0, 0), BuildingBlock: XUDNAN_clean_linker_2, # of connection points: 2
#     Edge 29, Type (0, 0), BuildingBlock: XUDNAN_clean_linker_2, # of connection points: 2
#     Edge 30, Type (0, 0), BuildingBlock: XUDNAN_clean_linker_2, # of connection points: 2
#     Edge 31, Type (0, 0), BuildingBlock: XUDNAN_clean_linker_2, # of connection points: 2
#     Edge 32, Type (0, 0), BuildingBlock: XUDNAN_clean_linker_2, # of connection points: 2
#     Edge 33, Type (0, 0), BuildingBlock: XUDNAN_clean_linker_2, # of connection points: 2
#     Edge 34, Type (0, 0), BuildingBlock: XUDNAN_clean_linker_2, # of connection points: 2
#     Edge 35, Type (0, 0), BuildingBlock: XUDNAN_clean_linker_2, # of connection points: 2
# Relax obj value: 0.235
# Max RMSD: 0.177
# Mean RMSD: 0.177
data_MOF--net-unf--node1-NAHDIM_clean_sbu_0--edge1-XUDNAN_clean_linker_2
_symmetry_space_group_name_H-M    P1
_symmetry_Int_Tables_number       1
_symmetry_cell_setting            triclinic
loop_
_symmetry_equiv_pos_as_xyz
'x, y, z'
_cell_length_a     37.179878
_cell_length_b     37.171527
_cell_length_c     37.925915
_cell_angle_alpha  90.054574
_cell_angle_beta   89.924053
_cell_angle_gamma 119.98221
loop_
_atom_site_label
_atom_site_type_symbol
_atom_site_fract_x
_atom_site_fract_y
_atom_site_fract_z
_atom_type_partial_charge
C0 C 0.08446 0.34872 0.15652 0.0
O1 O 0.0903 0.32458 0.13476 0.0
O2 O -0.00102 0.36709 0.08613 0.0
Zn3 Zn 0.02887 0.33785 0.10243 0.0
O4 O 0.07056 0.34391 0.06595 0.0
C5 C 0.9529 0.26726 0.12349 0.0
O6 O 0.95022 0.29543 0.14247 0.0
O7 O 0.05781 0.35927 0.14866 0.0
C8 C 0.06022 0.33074 0.03459 0.0
O9 O 0.02094 0.31278 0.0254 0.0
C10 C 0.014 0.3958 0.0632 0.0
O11 O 0.05225 0.41006 0.05212 0.0
O12 O 0.98576 0.27791 0.10583 0.0
C13 C 0.64689 0.73448 0.16009 0.0
O14 O 0.67691 0.76014 0.13906 0.0
O15 O 0.61218 0.62223 0.09254 0.0
Zn16 Zn 0.646 0.68199 0.10744 0.0
O17 O 0.64344 0.71776 0.06926 0.0
C18 C 0.71659 0.67427 0.12821 0.0
O19 O 0.68943 0.64407 0.1483 0.0
O20 O 0.62751 0.69597 0.15265 0.0
C21 C 0.6636 0.72448 0.04062 0.0
O22 O 0.68619 0.70682 0.03539 0.0
C23 C 0.58159 0.61064 0.07174 0.0
O24 O 0.56939 0.6371 0.06316 0.0
O25 O 0.70505 0.69565 0.11048 0.0
C26 C 0.24628 0.86487 0.12649 0.0
O27 O 0.28484 0.87262 0.12602 0.0
O28 O 0.32568 0.92919 0.05858 0.0
Zn29 Zn 0.26626 0.9156 0.06153 0.0
O30 O 0.23873 0.88244 0.01806 0.0
C31 C 0.29321 0.00388 0.06571 0.0
O32 O 0.32854 0.0081 0.0769 0.0
O33 O 0.23403 0.88068 0.10304 0.0
C34 C 0.21285 0.887 -0.00041 0.0
O35 O 0.20252 0.91466 0.00902 0.0
C36 C 0.33229 0.90184 0.04484 0.0
O37 O 0.30056 0.86459 0.03892 0.0
O38 O 0.26309 0.96781 0.05919 0.0
C39 C 0.61947 0.89552 0.35281 0.0
O40 O 0.59649 0.88314 0.38145 0.0
O41 O 0.61119 0.98153 0.4011 0.0
Zn42 Zn 0.6572 0.96883 0.39319 0.0
O43 O 0.66265 0.93914 0.43552 0.0
C44 C 0.71176 0.04657 0.41761 0.0
O45 O 0.68101 0.03112 0.4404 0.0
O46 O 0.64813 0.93326 0.35052 0.0
C47 C 0.69834 0.94708 0.44603 0.0
O48 O 0.73144 0.97407 0.42857 0.0
C49 C 0.58741 0.96816 0.42782 0.0
O50 O 0.58699 0.93867 0.44718 0.0
O51 O 0.70966 0.02465 0.39107 0.0
C52 C 0.09483 0.70036 0.33297 0.0
O53 O 0.12215 0.70403 0.35672 0.0
O54 O 0.0341 0.62287 0.41231 0.0
Zn55 Zn 0.04269 0.67751 0.39401 0.0
O56 O 0.0906 0.72245 0.42091 0.0
C57 C 0.97164 0.66589 0.43204 0.0
O58 O 0.98615 0.64964 0.45477 0.0
O59 O 0.05744 0.687 0.34244 0.0
C60 C 0.091 0.74933 0.44183 0.0
O61 O 0.05674 0.75051 0.44748 0.0
C62 C 0.06466 0.62149 0.42584 0.0
O63 O 0.10193 0.65427 0.42352 0.0
O64 O 0.99098 0.68044 0.40323 0.0
C65 C 0.25427 0.39403 0.36658 0.0
O66 O 0.2504 0.40599 0.39826 0.0
O67 O 0.35592 0.41429 0.41887 0.0
Zn68 Zn 0.3015 0.36519 0.40453 0.0
O69 O 0.26301 0.35135 0.44592 0.0
C70 C 0.34271 0.3187 0.3857 0.0
O71 O 0.37456 0.35516 0.37773 0.0
O72 O 0.27603 0.37666 0.36246 0.0
C73 C 0.2488 0.31846 0.46431 0.0
O74 O 0.25827 0.28988 0.45599 0.0
C75 C 0.35545 0.44219 0.43791 0.0
O76 O 0.31973 0.43977 0.44504 0.0
O77 O 0.309 0.31634 0.39571 0.0
C78 C 0.85562 0.584 0.84877 0.0
O79 O 0.87916 0.56924 0.83755 0.0
O80 O 0.91364 0.55865 0.9164 0.0
Zn81 Zn 0.9083 0.60915 0.91112 0.0
O82 O 0.89513 0.62125 0.95933 0.0
C83 C 0.9931 0.65596 0.88461 0.0
O84 O 0.98901 0.6194 0.87796 0.0
O85 O 0.8626 0.60131 0.87878 0.0
C86 C 0.90118 0.65688 0.96783 0.0
O87 O 0.91618 0.68683 0.94431 0.0
C88 C 0.88496 0.52793 0.93282 0.0
O89 O 0.85087 0.52848 0.94092 0.0
O90 O 0.96239 0.65806 0.89684 0.0
C91 C 0.37367 0.27007 0.84254 0.0
O92 O 0.38621 0.25918 0.87086 0.0
O93 O 0.4011 0.36119 0.91325 0.0
Zn94 Zn 0.35037 0.31075 0.89428 0.0
O95 O 0.33163 0.26177 0.92677 0.0
C96 C 0.29963 0.33887 0.9226 0.0
O97 O 0.32731 0.34835 0.94767 0.0
O98 O 0.35845 0.29387 0.84578 0.0
C99 C 0.3452 0.26173 0.9575 0.0
O100 O 0.3754 0.29616 0.97094 0.0
C101 C 0.43525 0.36369 0.92196 0.0
O102 O 0.44082 0.33195 0.91621 0.0
O103 O 0.30343 0.32274 0.8943 0.0
C104 C 0.71138 0.09057 0.85139 0.0
O105 O 0.67338 0.06577 0.84016 0.0
O106 O 0.62643 0.02716 0.91774 0.0
Zn107 Zn 0.68646 0.04258 0.91799 0.0
O108 O 0.71114 0.06545 0.96542 0.0
C109 C 0.66406 0.96223 0.93494 0.0
O110 O 0.64183 0.97124 0.95631 0.0
O111 O 0.72184 0.08529 0.88196 0.0
C112 C 0.74458 0.06604 0.97346 0.0
O113 O 0.76116 0.0519 0.95065 0.0
C114 C 0.61128 0.03984 0.94149 0.0
O115 O 0.63648 0.06933 0.96311 0.0
O116 O 0.68773 0.98941 0.91274 0.0
C117 C 0.38148 0.10728 0.64152 0.0
O118 O 0.40818 0.09456 0.64725 0.0
O119 O 0.42429 0.06849 0.57397 0.0
Zn120 Zn 0.37092 0.06953 0.57156 0.0
O121 O 0.37453 0.10142 0.5279 0.0
C122 C 0.33283 0.98842 0.54514 0.0
O123 O 0.37077 0.004 0.53287 0.0
O124 O 0.36209 0.09874 0.6124 0.0
C125 C 0.34284 0.0966 0.51126 0.0
O126 O 0.30562 0.06962 0.52286 0.0
C127 C 0.45632 0.09809 0.5597 0.0
O128 O 0.45625 0.13253 0.55208 0.0
O129 O 0.32403 0.011 0.56441 0.0
C130 C 0.88978 0.27081 0.66236 0.0
O131 O 0.86886 0.26136 0.63266 0.0
O132 O 0.98161 0.36751 0.60124 0.0
Zn133 Zn 0.95963 0.30793 0.61497 0.0
O134 O 0.92227 0.27255 0.57613 0.0
C135 C 0.04455 0.32639 0.61619 0.0
O136 O 0.05197 0.36462 0.62002 0.0
O137 O 0.92922 0.29215 0.66143 0.0
C138 C 0.93697 0.27243 0.54588 0.0
O139 O 0.97707 0.29567 0.54029 0.0
C140 C 0.96188 0.37836 0.58056 0.0
O141 O 0.92375 0.35095 0.57138 0.0
O142 O 0.00721 0.29674 0.61574 0.0
C143 C 0.70589 0.61696 0.65325 0.0
O144 O 0.70982 0.59967 0.62437 0.0
O145 O 0.63192 0.62934 0.58447 0.0
Zn146 Zn 0.69005 0.66345 0.60259 0.0
O147 O 0.73006 0.65941 0.56954 0.0
C148 C 0.67642 0.73309 0.60238 0.0
O149 O 0.63744 0.7039 0.60604 0.0
O150 O 0.69618 0.64514 0.65078 0.0
C151 C 0.73547 0.67407 0.53851 0.0
O152 O 0.71372 0.69106 0.52789 0.0
C153 C 0.6205 0.6003 0.56202 0.0
O154 O 0.64714 0.58927 0.55107 0.0
O155 O 0.70454 0.72318 0.60256 0.0
H156 H 0.14327 0.36474 0.04666 0.0
H157 H 0.04935 0.30463 0.96563 0.0
H158 H 0.10272 0.30718 0.92505 0.0
H159 H 0.22969 0.43239 0.98751 0.0
H160 H 0.26686 0.42626 0.01345 0.0
H161 H 0.22222 0.42396 0.0344 0.0
H162 H 0.20172 0.35162 0.0602 0.0
H163 H 0.24621 0.35371 0.03942 0.0
H164 H 0.19504 0.31054 0.03085 0.0
H165 H 0.16538 0.31061 0.89544 0.0
H166 H 0.2312 0.31298 0.88007 0.0
H167 H 0.28302 0.37092 0.98095 0.0
C168 C 0.13393 0.35271 0.02019 0.0
C169 C 0.09217 0.33456 0.00927 0.0
C170 C 0.08123 0.31879 0.97453 0.0
C171 C 0.11133 0.32024 0.95126 0.0
C172 C 0.15217 0.33781 0.96312 0.0
C173 C 0.16345 0.3539 0.99676 0.0
C174 C 0.20859 0.36835 0.00413 0.0
C175 C 0.23329 0.41555 0.01022 0.0
C176 C 0.21312 0.34462 0.03549 0.0
C177 C 0.22072 0.35669 0.96977 0.0
C178 C 0.18802 0.33966 0.94621 0.0
C179 C 0.19136 0.32439 0.91351 0.0
C180 C 0.22885 0.32587 0.90501 0.0
C181 C 0.26225 0.34218 0.9293 0.0
C182 C 0.25821 0.35853 0.9617 0.0
H183 H 0.61654 0.76183 0.04238 0.0
H184 H 0.71231 0.75582 0.98146 0.0
H185 H 0.71758 0.81166 0.94256 0.0
H186 H 0.56769 0.78611 0.96801 0.0
H187 H 0.55814 0.82048 0.9949 0.0
H188 H 0.55824 0.77644 0.01461 0.0
H189 H 0.61418 0.82534 0.05931 0.0
H190 H 0.61434 0.86942 0.03973 0.0
H191 H 0.66209 0.86823 0.04315 0.0
H192 H 0.71793 0.874 0.91491 0.0
H193 H 0.71294 0.93648 0.90113 0.0
H194 H 0.61645 0.89974 0.98033 0.0
C195 C 0.63807 0.7716 0.02044 0.0
C196 C 0.66399 0.75449 0.01492 0.0
C197 C 0.69198 0.7684 0.98608 0.0
C198 C 0.69515 0.80003 0.96381 0.0
C199 C 0.66976 0.81696 0.97057 0.0
C200 C 0.64151 0.80289 -0.00195 0.0
C201 C 0.62003 0.82808 0.00163 0.0
C202 C 0.57325 0.80117 0.99434 0.0
C203 C 0.62818 0.849 0.0381 0.0
C204 C 0.64162 0.85953 0.97267 0.0
C205 C 0.66985 0.85245 0.95469 0.0
C206 C 0.69542 0.87942 0.92843 0.0
C207 C 0.69241 0.91482 0.9208 0.0
C208 C 0.66425 0.9229 0.9396 0.0
C209 C 0.63808 0.89433 0.96528 0.0
H210 H 0.14098 0.87181 0.96746 0.0
H211 H 0.23536 0.83578 0.96665 0.0
H212 H 0.19376 0.7799 0.92427 0.0
H213 H 0.05986 0.77592 0.97304 0.0
H214 H 0.02466 0.78351 0.94558 0.0
H215 H 0.06614 0.82698 0.96787 0.0
H216 H 0.09273 0.8654 0.90822 0.0
H217 H 0.05106 0.82179 0.88564 0.0
H218 H 0.10413 0.84058 0.87253 0.0
H219 H 0.13694 0.72044 0.89222 0.0
H220 H 0.06882 0.66107 0.87589 0.0
H221 H 0.01102 0.7353 0.8976 0.0
C222 C 0.1536 0.85319 0.95729 0.0
C223 C 0.1914 0.85819 0.97015 0.0
C224 C 0.20645 0.83249 0.95704 0.0
C225 C 0.18319 0.80088 0.93273 0.0
C226 C 0.14513 0.79559 0.92161 0.0
C227 C 0.13056 0.82126 0.93331 0.0
C228 C 0.08611 0.80521 0.92196 0.0
C229 C 0.05755 0.79742 0.95401 0.0
C230 C 0.08336 0.83502 0.89551 0.0
C231 C 0.07705 0.76505 0.90427 0.0
C232 C 0.11182 0.76065 0.9033 0.0
C233 C 0.10974 0.72393 0.89199 0.0
C234 C 0.07087 0.69032 0.88279 0.0
C235 C 0.03463 0.69356 0.88553 0.0
C236 C 0.03824 0.73201 0.89489 0.0
H237 H 0.6233 0.75714 0.57633 0.0
H238 H 0.75326 0.80274 0.59967 0.0
H239 H 0.77202 0.86819 0.56876 0.0
H240 H 0.63766 0.78977 0.49198 0.0
H241 H 0.59813 0.80431 0.49048 0.0
H242 H 0.59346 0.76538 0.52112 0.0
H243 H 0.5879 0.80757 0.57316 0.0
H244 H 0.59194 0.84652 0.54255 0.0
H245 H 0.62754 0.86109 0.57906 0.0
H246 H 0.77782 0.92241 0.52703 0.0
H247 H 0.7701 0.96263 0.47893 0.0
H248 H 0.63637 0.88135 0.48192 0.0
C249 C 0.65553 0.78154 0.57619 0.0
C250 C 0.68681 0.77503 0.59061 0.0
C251 C 0.72878 0.80722 0.58897 0.0
C252 C 0.73972 0.84454 0.57154 0.0
C253 C 0.7083 0.8492 0.55612 0.0
C254 C 0.66697 0.81878 0.55862 0.0
C255 C 0.63977 0.82912 0.53606 0.0
C256 C 0.61589 0.79514 0.50828 0.0
C257 C 0.61003 0.83653 0.55909 0.0
C258 C 0.67247 0.86905 0.51918 0.0
C259 C 0.7117 0.8805 0.53157 0.0
C260 C 0.7472 0.91429 0.51766 0.0
C261 C 0.7425 0.93677 0.49018 0.0
C262 C 0.70262 0.92515 0.47675 0.0
C263 C 0.6672 0.89129 0.49194 0.0
H264 H 0.10654 0.81613 0.48378 0.0
H265 H 0.16464 0.75005 0.4389 0.0
H266 H 0.23126 0.80079 0.46552 0.0
H267 H 0.19004 0.91663 0.46866 0.0
H268 H 0.18411 0.93863 0.50913 0.0
H269 H 0.13979 0.89496 0.4894 0.0
H270 H 0.12592 0.85353 0.54759 0.0
H271 H 0.17032 0.89713 0.56751 0.0
H272 H 0.16664 0.84691 0.56664 0.0
H273 H 0.29237 0.86086 0.49234 0.0
H274 H 0.34501 0.92782 0.51752 0.0
H275 H 0.24815 0.95536 0.54603 0.0
C276 C 0.13314 0.81203 0.47997 0.0
C277 C 0.13031 0.77907 0.45928 0.0
C278 C 0.16597 0.77503 0.45462 0.0
C279 C 0.20397 0.80359 0.46976 0.0
C280 C 0.20583 0.83592 0.48968 0.0
C281 C 0.17145 0.84034 0.49493 0.0
C282 C 0.18266 0.87935 0.5158 0.0
C283 C 0.17362 0.90915 0.49446 0.0
C284 C 0.16004 0.86857 0.55151 0.0
C285 C 0.2289 0.89666 0.52054 0.0
C286 C 0.24144 0.87081 0.50555 0.0
C287 C 0.28293 0.88115 0.5046 0.0
C288 C 0.31259 0.91928 0.51889 0.0
C289 C 0.30059 0.9466 0.53389 0.0
C290 C 0.25811 0.93475 0.53527 0.0
H291 H 0.11918 0.38249 0.58805 0.0
H292 H 0.04409 0.25244 0.61617 0.0
H293 H 0.09461 0.2377 0.58658 0.0
H294 H 0.13826 0.36543 0.50423 0.0
H295 H 0.19059 0.40855 0.50137 0.0
H296 H 0.1543 0.41086 0.53128 0.0
H297 H 0.20442 0.42471 0.58357 0.0
H298 H 0.24129 0.42303 0.55367 0.0
H299 H 0.22358 0.3895 0.59171 0.0
H300 H 0.14789 0.23562 0.54699 0.0
H301 H 0.19852 0.24619 0.50005 0.0
H302 H 0.23602 0.377 0.49592 0.0
C303 C 0.11417 0.3512 0.58922 0.0
C304 C 0.07804 0.31868 0.60476 0.0
C305 C 0.07184 0.27787 0.60466 0.0
C306 C 0.1004 0.26924 0.588 0.0
C307 C 0.13489 0.30177 0.57159 0.0
C308 C 0.14196 0.34201 0.57226 0.0
C309 C 0.17808 0.37038 0.54885 0.0
C310 C 0.16446 0.38991 0.51972 0.0
C311 C 0.21397 0.40388 0.57077 0.0
C312 C 0.18919 0.33954 0.53382 0.0
C313 C 0.16462 0.30032 0.54778 0.0
C314 C 0.16773 0.26633 0.53627 0.0
C315 C 0.19646 0.27259 0.50955 0.0
C316 C 0.22103 0.31236 0.49431 0.0
C317 C 0.21765 0.34622 0.50708 0.0
H318 H 0.77619 0.72952 0.08374 0.0
H319 H 0.7462 0.62398 0.1512 0.0
H320 H 0.80332 0.61782 0.12439 0.0
H321 H 0.78658 0.6887 0.0106 0.0
H322 H 0.8291 0.73467 0.99137 0.0
H323 H 0.7955 0.73948 0.02259 0.0
H324 H 0.85848 0.78694 0.06204 0.0
H325 H 0.89265 0.78286 0.03053 0.0
H326 H 0.8935 0.76945 0.07606 0.0
H327 H 0.84962 0.61159 0.0809 0.0
H328 H 0.8839 0.6081 0.02634 0.0
H329 H 0.88446 0.71784 0.98688 0.0
C330 C 0.78278 0.70624 0.09399 0.0
C331 C 0.75671 0.67717 0.11949 0.0
C332 C 0.76588 0.64673 0.1318 0.0
C333 C 0.79838 0.64307 0.11676 0.0
C334 C 0.82174 0.6705 0.0899 0.0
C335 C 0.81488 0.70209 0.0791 0.0
C336 C 0.83954 0.72328 0.04622 0.0
C337 C 0.81097 0.72136 0.01594 0.0
C338 C 0.87305 0.76831 0.0542 0.0
C339 C 0.85878 0.69661 0.03862 0.0
C340 C 0.84902 0.667 0.06459 0.0
C341 C 0.85858 0.6354 0.06097 0.0
C342 C 0.87777 0.63348 0.02978 0.0
C343 C 0.88701 0.66288 0.00255 0.0
C344 C 0.87858 0.69553 0.0076 0.0
H345 H 0.3845 0.2379 0.00505 0.0
H346 H 0.2661 0.197 0.95371 0.0
H347 H 0.23703 0.12909 0.98353 0.0
H348 H 0.38438 0.14548 0.99309 0.0
H349 H 0.40893 0.14677 0.0344 0.0
H350 H 0.41838 0.19445 0.01418 0.0
H351 H 0.39394 0.21444 0.07118 0.0
H352 H 0.38438 0.16667 0.09162 0.0
H353 H 0.34342 0.17915 0.08916 0.0
H354 H 0.22275 0.06428 0.01387 0.0
H355 H 0.22541 0.00462 0.03892 0.0
H356 H 0.35414 0.08603 0.06869 0.0
C357 C 0.35216 0.21496 0.00091 0.0
C358 C 0.3273 0.22263 0.97749 0.0
C359 C 0.28551 0.1916 0.97172 0.0
C360 C 0.26868 0.15312 0.98871 0.0
C361 C 0.29417 0.14614 0.01118 0.0
C362 C 0.33509 0.17606 0.01719 0.0
C363 C 0.35713 0.15888 0.0391 0.0
C364 C 0.39439 0.16154 0.01898 0.0
C365 C 0.3705 0.18111 0.0749 0.0
C366 C 0.3226 0.11431 0.04344 0.0
C367 C 0.28631 0.10795 0.02782 0.0
C368 C 0.25081 0.06891 0.02655 0.0
C369 C 0.25269 0.03519 0.04083 0.0
C370 C 0.29001 0.04062 0.05576 0.0
C371 C 0.32506 0.08093 0.05778 0.0
H372 H 0.94714 0.20522 0.08117 0.0
H373 H 0.87353 0.23968 0.14691 0.0
H374 H 0.8095 0.1814 0.12233 0.0
H375 H 0.89303 0.18921 0.00797 0.0
H376 H 0.89621 0.1454 0.99142 0.0
H377 H 0.93559 0.18173 0.0206 0.0
H378 H 0.92209 0.1223 0.0638 0.0
H379 H 0.8829 0.08542 0.03438 0.0
H380 H 0.8702 0.08824 0.07981 0.0
H381 H 0.75533 0.13122 0.08129 0.0
H382 H 0.71529 0.09029 0.02969 0.0
H383 H 0.82402 0.08801 0.99104 0.0
C384 C 0.91757 0.19949 0.0915 0.0
C385 C 0.91533 0.22702 0.1159 0.0
C386 C 0.87604 0.21889 0.12834 0.0
C387 C 0.83945 0.18577 0.11455 0.0
C388 C 0.84275 0.16074 0.08885 0.0
C389 C 0.88087 0.1667 0.07796 0.0
C390 C 0.87643 0.13943 0.04671 0.0
C391 C 0.90179 0.16551 0.01482 0.0
C392 C 0.88862 0.10691 0.05679 0.0
C393 C 0.83027 0.11934 0.0402 0.0
C394 C 0.81119 0.13131 0.06519 0.0
C395 C 0.76965 0.12065 0.06217 0.0
C396 C 0.74723 0.09765 0.03265 0.0
C397 C 0.76654 0.08582 0.00649 0.0
C398 C 0.80822 0.09595 0.01092 0.0
H399 H 0.28389 0.11029 0.48143 0.0
H400 H 0.41429 0.14688 0.47501 0.0
H401 H 0.42543 0.2006 0.43134 0.0
H402 H 0.2716 0.135 0.38665 0.0
H403 H 0.23785 0.15435 0.40007 0.0
H404 H 0.23805 0.11276 0.42435 0.0
H405 H 0.25373 0.15566 0.48197 0.0
H406 H 0.25362 0.19717 0.45796 0.0
H407 H 0.2984 0.20718 0.48371 0.0
H408 H 0.4252 0.25772 0.39727 0.0
H409 H 0.41392 0.31454 0.37742 0.0
H410 H 0.28372 0.24076 0.40582 0.0
C411 C 0.31446 0.12862 0.46989 0.0
C412 C 0.34815 0.12433 0.48145 0.0
C413 C 0.38797 0.14961 0.46644 0.0
C414 C 0.39456 0.18002 0.44142 0.0
C415 C 0.36096 0.18453 0.43149 0.0
C416 C 0.32159 0.1593 0.4451 0.0
C417 C 0.29207 0.1741 0.43402 0.0
C418 C 0.25787 0.14215 0.40983 0.0
C419 C 0.27341 0.18414 0.46633 0.0
C420 C 0.32155 0.21294 0.41387 0.0
C421 C 0.3609 0.21789 0.41189 0.0
C422 C 0.39432 0.25374 0.39789 0.0
C423 C 0.38764 0.2859 0.38672 0.0
C424 C 0.34795 0.28209 0.39006 0.0
C425 C 0.31433 0.24446 0.40254 0.0
H426 H 0.85244 0.22911 0.54673 0.0
H427 H 0.95873 0.25381 0.48202 0.0
H428 H 0.91156 0.20365 0.43759 0.0
H429 H 0.79696 0.12316 0.53359 0.0
H430 H 0.74669 0.11932 0.53265 0.0
H431 H 0.7885 0.16068 0.55675 0.0
H432 H 0.77904 0.21484 0.521 0.0
H433 H 0.73708 0.17351 0.49671 0.0
H434 H 0.78083 0.21423 0.47351 0.0
H435 H 0.8526 0.14462 0.40365 0.0
H436 H 0.78764 0.08267 0.38379 0.0
H437 H 0.72146 0.09941 0.47081 0.0
C438 C 0.86586 0.22453 0.52297 0.0
C439 C 0.9092 0.24526 0.51782 0.0
C440 C 0.92552 0.2383 0.48642 0.0
C441 C 0.89899 0.20996 0.46102 0.0
C442 C 0.85633 0.18941 0.46727 0.0
C443 C 0.83995 0.19671 0.4974 0.0
C444 C 0.79345 0.16887 0.49929 0.0
C445 C 0.78069 0.14139 0.53252 0.0
C446 C 0.7713 0.1944 0.49751 0.0
C447 C 0.78627 0.14362 0.46616 0.0
C448 C 0.82269 0.15608 0.44771 0.0
C449 C 0.82379 0.13506 0.41757 0.0
C450 C 0.7868 0.09996 0.40647 0.0
C451 C 0.74954 0.08631 0.42572 0.0
C452 C 0.74936 0.10916 0.45537 0.0
H453 H 0.92494 0.6397 0.49229 0.0
H454 H 0.9336 0.69788 0.39099 0.0
H455 H 0.87198 0.7036 0.40608 0.0
H456 H 0.81232 0.58058 0.49692 0.0
H457 H 0.81124 0.58824 0.54376 0.0
H458 H 0.85483 0.58706 0.52421 0.0
H459 H 0.90484 0.65932 0.55112 0.0
H460 H 0.86143 0.6607 0.57072 0.0
H461 H 0.89655 0.70225 0.54213 0.0
H462 H 0.81095 0.70535 0.43334 0.0
H463 H 0.75558 0.70341 0.47083 0.0
H464 H 0.78743 0.64399 0.55397 0.0
C465 C 0.91377 0.65338 0.47312 0.0
C466 C 0.93407 0.6683 0.44044 0.0
C467 C 0.91851 0.68619 0.41619 0.0
C468 C 0.88351 0.68952 0.42449 0.0
C469 C 0.86441 0.67472 0.45706 0.0
C470 C 0.87896 0.65695 0.48096 0.0
C471 C 0.85364 0.64457 0.51457 0.0
C472 C 0.83171 0.5973 0.52017 0.0
C473 C 0.88074 0.66813 0.54651 0.0
C474 C 0.82287 0.65864 0.50605 0.0
C475 C 0.8294 0.67575 0.47271 0.0
C476 C 0.80539 0.69181 0.45942 0.0
C477 C 0.77404 0.69059 0.48091 0.0
C478 C 0.76715 0.67352 0.5153 0.0
C479 C 0.79177 0.65709 0.52776 0.0
H480 H 0.24566 0.36133 0.30035 0.0
H481 H 0.20782 0.4325 0.36589 0.0
H482 H 0.16281 0.43204 0.31786 0.0
H483 H 0.24525 0.40932 0.21589 0.0
H484 H 0.22511 0.36098 0.19223 0.0
H485 H 0.25716 0.37034 0.23058 0.0
H486 H 0.19926 0.30249 0.25889 0.0
H487 H 0.16695 0.29307 0.2208 0.0
H488 H 0.14787 0.29535 0.26398 0.0
H489 H 0.11832 0.41962 0.26415 0.0
H490 H 0.07842 0.39684 0.20856 0.0
H491 H 0.1452 0.33325 0.17902 0.0
C492 C 0.2285 0.37747 0.30443 0.0
C493 C 0.23035 0.39707 0.33682 0.0
C494 C 0.20695 0.41735 0.34124 0.0
C495 C 0.18134 0.4173 0.31412 0.0
C496 C 0.17959 0.39694 0.28277 0.0
C497 C 0.20271 0.37758 0.27775 0.0
C498 C 0.19366 0.35601 0.24236 0.0
C499 C 0.23261 0.37533 0.21888 0.0
C500 C 0.17587 0.30895 0.2468 0.0
C501 C 0.16125 0.36559 0.22853 0.0
C502 C 0.15376 0.3895 0.25205 0.0
C503 C 0.12415 0.40118 0.24538 0.0
C504 C 0.1016 0.38802 0.2138 0.0
C505 C 0.10869 0.36328 0.18947 0.0
C506 C 0.13907 0.3522 0.19701 0.0
H507 H 0.68306 0.81518 0.18208 0.0
H508 H 0.58435 0.69074 0.20789 0.0
H509 H 0.56465 0.71886 0.25882 0.0
H510 H 0.71323 0.84978 0.27054 0.0
H511 H 0.72393 0.90188 0.26183 0.0
H512 H 0.72938 0.87186 0.22714 0.0
H513 H 0.67858 0.88307 0.18818 0.0
H514 H 0.67279 0.91297 0.22283 0.0
H515 H 0.62763 0.86842 0.20484 0.0
H516 H 0.55652 0.76075 0.30735 0.0
H517 H 0.56189 0.8126 0.3509 0.0
H518 H 0.66601 0.90941 0.29282 0.0
C519 C 0.65725 0.79374 0.19837 0.0
C520 C 0.63521 0.75073 0.191 0.0
C521 C 0.60169 0.7238 0.21305 0.0
C522 C 0.59021 0.7395 0.24197 0.0
C523 C 0.61254 0.78213 0.24836 0.0
C524 C 0.64542 0.80884 0.22723 0.0
C525 C 0.6649 0.85323 0.24009 0.0
C526 C 0.71056 0.87017 0.25053 0.0
C527 C 0.66071 0.88105 0.21233 0.0
C528 C 0.63807 0.84736 0.272 0.0
C529 C 0.60791 0.80618 0.27623 0.0
C530 C 0.57993 0.79309 0.30424 0.0
C531 C 0.58323 0.82281 0.32882 0.0
C532 C 0.61434 0.8651 0.32527 0.0
C533 C 0.64176 0.87741 0.29621 0.0
H534 H 0.26262 0.83337 0.18616 0.0
H535 H 0.16217 0.83241 0.12705 0.0
H536 H 0.11186 0.78533 0.17101 0.0
H537 H 0.20512 0.72523 0.21539 0.0
H538 H 0.2289 0.73686 0.25839 0.0
H539 H 0.25704 0.76838 0.22104 0.0
H540 H 0.2681 0.83434 0.2539 0.0
H541 H 0.24026 0.80307 0.29136 0.0
H542 H 0.22371 0.83612 0.2709 0.0
H543 H 0.07259 0.74052 0.22226 0.0
H544 H 0.04774 0.70465 0.27935 0.0
H545 H 0.17359 0.73536 0.3057 0.0
C546 C 0.23001 0.82298 0.18231 0.0
C547 C 0.21638 0.83652 0.15309 0.0
C548 C 0.17344 0.82254 0.14923 0.0
C549 C 0.14453 0.79559 0.17396 0.0
C550 C 0.15898 0.78287 0.20247 0.0
C551 C 0.20069 0.79623 0.2069 0.0
C552 C 0.20821 0.77969 0.24092 0.0
C553 C 0.22586 0.75082 0.23347 0.0
C554 C 0.23675 0.81544 0.26573 0.0
C555 C 0.16431 0.75562 0.25517 0.0
C556 C 0.13633 0.7574 0.23235 0.0
C557 C 0.09416 0.73868 0.24028 0.0
C558 C 0.08033 0.71832 0.27276 0.0
C559 C 0.10868 0.71714 0.29703 0.0
C560 C 0.15107 0.73546 0.28768 0.0
H561 H 0.83821 0.55845 0.77984 0.0
H562 H 0.80093 0.61018 0.8657 0.0
H563 H 0.75217 0.61682 0.82606 0.0
H564 H 0.84007 0.62455 0.71499 0.0
H565 H 0.81998 0.58649 0.68014 0.0
H566 H 0.84774 0.58035 0.71625 0.0
H567 H 0.78502 0.50735 0.72924 0.0
H568 H 0.75703 0.51322 0.69301 0.0
H569 H 0.73445 0.50155 0.73651 0.0
H570 H 0.71445 0.62626 0.77592 0.0
H571 H 0.68913 0.63623 0.71863 0.0
H572 H 0.74946 0.57697 0.66562 0.0
C573 C 0.81911 0.57029 0.79051 0.0
C574 C 0.82338 0.58375 0.82586 0.0
C575 C 0.79822 0.59962 0.8387 0.0
C576 C 0.77028 0.60339 0.81643 0.0
C577 C 0.76755 0.59078 0.7815 0.0
C578 C 0.79099 0.5742 0.76864 0.0
C579 C 0.78443 0.56596 0.72942 0.0
C580 C 0.82549 0.59084 0.70902 0.0
C581 C 0.76401 0.51924 0.72159 0.0
C582 C 0.7549 0.58196 0.72206 0.0
C583 C 0.74519 0.59573 0.75251 0.0
C584 C 0.72114 0.61486 0.75196 0.0
C585 C 0.70704 0.62053 0.71932 0.0
C586 C 0.71707 0.60708 0.68777 0.0
C587 C 0.74064 0.58688 0.68936 0.0
H588 H 0.408 0.22184 0.82599 0.0
H589 H 0.3383 0.2758 0.78102 0.0
H590 H 0.33312 0.24023 0.72468 0.0
H591 H 0.46608 0.22878 0.7463 0.0
H592 H 0.46442 0.18023 0.7546 0.0
H593 H 0.46385 0.21117 0.79095 0.0
H594 H 0.39585 0.14822 0.81401 0.0
H595 H 0.39601 0.1172 0.77758 0.0
H596 H 0.35141 0.12316 0.78527 0.0
H597 H 0.33204 0.19578 0.67454 0.0
H598 H 0.33932 0.14934 0.63234 0.0
H599 H 0.41121 0.12551 0.70943 0.0
C600 C 0.39197 0.22652 0.80421 0.0
C601 C 0.3735 0.25158 0.80794 0.0
C602 C 0.3528 0.25686 0.77878 0.0
C603 C 0.34959 0.23669 0.7467 0.0
C604 C 0.36752 0.21164 0.74413 0.0
C605 C 0.3887 0.20684 0.77195 0.0
C606 C 0.40494 0.17796 0.76234 0.0
C607 C 0.45265 0.20092 0.76362 0.0
C608 C 0.3859 0.13935 0.78622 0.0
C609 C 0.38915 0.16689 0.72487 0.0
C610 C 0.36754 0.18656 0.71496 0.0
C611 C 0.34916 0.18045 0.6819 0.0
C612 C 0.35335 0.15385 0.65817 0.0
C613 C 0.37594 0.13383 0.66753 0.0
C614 C 0.39393 0.14047 0.70141 0.0
H615 H 0.70351 0.1067 0.78183 0.0
H616 H 0.78981 0.15052 0.86978 0.0
H617 H 0.84294 0.20513 0.83204 0.0
H618 H 0.77664 0.11971 0.7167 0.0
H619 H 0.75462 0.13666 0.6827 0.0
H620 H 0.72204 0.10312 0.71735 0.0
H621 H 0.69875 0.15636 0.73285 0.0
H622 H 0.73138 0.19012 0.69822 0.0
H623 H 0.73738 0.20928 0.74275 0.0
H624 H 0.88827 0.25193 0.78416 0.0
H625 H 0.92307 0.28694 0.7288 0.0
H626 H 0.80754 0.21322 0.67191 0.0
C627 C 0.73339 0.1281 0.79327 0.0
C628 C 0.74241 0.12431 0.8288 0.0
C629 C 0.78209 0.15272 0.84264 0.0
C630 C 0.81249 0.184 0.82146 0.0
C631 C 0.80276 0.18664 0.78649 0.0
C632 C 0.76419 0.15954 0.77245 0.0
C633 C 0.76255 0.16782 0.73355 0.0
C634 C 0.75344 0.12956 0.71127 0.0
C635 C 0.73062 0.18173 0.72644 0.0
C636 C 0.80648 0.20314 0.72781 0.0
C637 C 0.82902 0.21378 0.75877 0.0
C638 C 0.87085 0.2442 0.75979 0.0
C639 C 0.89035 0.26388 0.72821 0.0
C640 C 0.86803 0.25296 0.69604 0.0
C641 C 0.82538 0.22263 0.6961 0.0
H642 H 0.03498 0.45422 0.01128 0.0
H643 H 0.93172 0.36748 0.07649 0.0
H644 H 0.88558 0.38709 0.04582 0.0
H645 H 0.00824 0.53368 0.01027 0.0
H646 H 0.0245 0.54862 0.96527 0.0
H647 H 0.04866 0.52627 0.9915 0.0
H648 H 0.02968 0.46937 0.94396 0.0
H649 H 0.00491 0.49127 0.91782 0.0
H650 H 0.97626 0.43744 0.93074 0.0
H651 H 0.85116 0.4175 0.00932 0.0
H652 H 0.83242 0.46076 0.97302 0.0
H653 H 0.95805 0.52691 0.9314 0.0
C654 C 0.00268 0.43932 0.01915 0.0
C655 C 0.98698 0.40932 0.04627 0.0
C656 C 0.9445 0.39063 0.05581 0.0
C657 C 0.91796 0.40134 0.0384 0.0
C658 C 0.93434 0.43066 0.01148 0.0
C659 C 0.97576 0.4496 0.00206 0.0
C660 C 0.98597 0.48142 0.97327 0.0
C661 C 0.01877 0.52507 0.98585 0.0
C662 C 3e-05 0.46912 0.93945 0.0
C663 C 0.94397 0.47796 0.96844 0.0
C664 C 0.91448 0.44816 0.99041 0.0
C665 C 0.87388 0.44073 0.99181 0.0
C666 C 0.86351 0.46538 0.97102 0.0
C667 C 0.89372 0.49716 0.94934 0.0
C668 C 0.9341 0.5026 0.9474 0.0
H669 H 0.51528 0.57589 0.02659 0.0
H670 H 0.6082 0.55393 0.07534 0.0
H671 H 0.58257 0.48941 0.0407 0.0
H672 H 0.43335 0.46822 0.02416 0.0
H673 H 0.41373 0.47374 0.98229 0.0
H674 H 0.43908 0.51758 0.01158 0.0
H675 H 0.49067 0.56025 0.96173 0.0
H676 H 0.46582 0.51635 0.93245 0.0
H677 H 0.52078 0.54043 0.94075 0.0
H678 H 0.54815 0.42834 -0.00106 0.0
H679 H 0.50362 0.37246 0.9573 0.0
H680 H 0.43338 0.43479 0.93662 0.0
C681 C 0.53005 0.55737 0.03027 0.0
C682 C 0.56376 0.57 0.05368 0.0
C683 C 0.5822 0.54483 0.05766 0.0
C684 C 0.56802 0.50822 0.03797 0.0
C685 C 0.53526 0.49715 0.01457 0.0
C686 C 0.51621 0.52074 0.01096 0.0
C687 C 0.48142 0.50192 0.98423 0.0
C688 C 0.43941 0.48963 0.00161 0.0
C689 C 0.49022 0.53151 0.95294 0.0
C690 C 0.48393 0.4641 0.97328 0.0
C691 C 0.51531 0.46197 0.99088 0.0
C692 C 0.52341 0.42963 0.98507 0.0
C693 C 0.4981 0.39816 0.96123 0.0
C694 C 0.46502 0.39922 0.94368 0.0
C695 C 0.45842 0.43304 0.94955 0.0
H696 H 0.40525 0.97604 0.05217 0.0
H697 H 0.35119 0.85586 0.00038 0.0
H698 H 0.41575 0.8796 0.96652 0.0
H699 H 0.45937 0.03744 0.97834 0.0
H700 H 0.50472 0.07396 0.00264 0.0
H701 H 0.4549 0.04743 0.0242 0.0
H702 H 0.48451 0.01954 0.07196 0.0
H703 H 0.53463 0.04667 0.05095 0.0
H704 H 0.51033 0.99157 0.0587 0.0
H705 H 0.48361 0.91761 0.93515 0.0
H706 H 0.55511 0.96398 0.91462 0.0
H707 H 0.56661 0.05885 0.98816 0.0
C708 C 0.40721 0.9545 0.03411 0.0
C709 C 0.37309 0.91412 0.02886 0.0
C710 C 0.37691 0.88689 0.00495 0.0
C711 C 0.41336 0.90017 0.98539 0.0
C712 C 0.44585 0.94058 0.99032 0.0
C713 C 0.44354 0.9671 0.01459 0.0
C714 C 0.48326 0.0088 0.01505 0.0
C715 C 0.47505 0.04397 0.00442 0.0
C716 C 0.50444 0.01712 0.05132 0.0
C717 C 0.50808 0.0016 0.98705 0.0
C718 C 0.48566 0.9622 0.97286 0.0
C719 C 0.50165 0.94844 0.94623 0.0
C720 C 0.54222 0.97518 0.93455 0.0
C721 C 0.56652 0.01506 0.94982 0.0
C722 C 0.54883 0.02859 0.97597 0.0
H723 H 0.52987 0.94702 0.48081 0.0
H724 H 0.60616 0.04621 0.40773 0.0
H725 H 0.58545 0.09207 0.43728 0.0
H726 H 0.44568 0.97047 0.48475 0.0
H727 H 0.43541 0.957 0.53073 0.0
H728 H 0.45613 0.93203 0.50338 0.0
H729 H 0.51743 0.95517 0.54708 0.0
H730 H 0.49738 0.98107 0.57409 0.0
H731 H 0.5497 0.00954 0.55731 0.0
H732 H 0.5593 0.12829 0.4762 0.0
H733 H 0.51997 0.1489 0.51565 0.0
H734 H 0.45933 0.02585 0.56262 0.0
C735 C 0.54178 0.9782 0.47075 0.0
C736 C 0.56967 0.99299 0.44199 0.0
C737 C 0.58453 0.03401 0.42956 0.0
C738 C 0.57329 0.0605 0.44639 0.0
C739 C 0.54683 0.04538 0.47535 0.0
C740 C 0.53048 0.00495 0.48697 0.0
C741 C 0.50144 0.99611 0.51791 0.0
C742 C 0.45704 0.96189 0.50863 0.0
C743 C 0.51747 0.98481 0.55105 0.0
C744 C 0.50422 0.03797 0.5219 0.0
C745 C 0.53098 0.06608 0.49738 0.0
C746 C 0.53811 0.10654 0.49547 0.0
C747 C 0.51582 0.11804 0.51818 0.0
C748 C 0.48645 0.089 0.54219 0.0
C749 C 0.48169 0.04889 0.54474 0.0
H750 H 0.92997 0.41148 0.53377 0.0
H751 H 0.04432 0.43659 0.58568 0.0
H752 H 0.08309 0.50033 0.55037 0.0
H753 H 0.97252 0.44516 0.44842 0.0
H754 H 0.94159 0.46867 0.438 0.0
H755 H 0.92207 0.42569 0.46831 0.0
H756 H 0.91165 0.46957 0.51609 0.0
H757 H 0.93053 0.51248 0.48575 0.0
H758 H 0.95473 0.51946 0.52828 0.0
H759 H 0.11006 0.55915 0.50745 0.0
H760 H 0.12256 0.61338 0.46391 0.0
H761 H 0.9906 0.55076 0.44043 0.0
C762 C 0.96307 0.43064 0.53806 0.0
C763 C 0.98407 0.41899 0.56251 0.0
C764 C 0.02747 0.4449 0.56723 0.0
C765 C 0.04984 0.48108 0.54716 0.0
C766 C 0.02835 0.49107 0.52267 0.0
C767 C 0.98588 0.46699 0.51838 0.0
C768 C 0.97035 0.48482 0.49027 0.0
C769 C 0.95047 0.45426 0.45943 0.0
C770 C 0.94003 0.49734 0.50605 0.0
C771 C 0.0108 0.52253 0.47929 0.0
C772 C 0.04388 0.52539 0.49817 0.0
C773 C 0.08439 0.55741 0.49262 0.0
C774 C 0.09118 0.58796 0.46768 0.0
C775 C 0.05758 0.58638 0.44875 0.0
C776 C 0.01697 0.55282 0.45437 0.0
H777 H 0.43188 0.44775 0.4383 0.0
H778 H 0.36481 0.50689 0.47877 0.0
H779 H 0.42602 0.55468 0.51397 0.0
H780 H 0.48161 0.44992 0.5177 0.0
H781 H 0.52993 0.46066 0.49759 0.0
H782 H 0.4822 0.43315 0.47319 0.0
H783 H 0.51301 0.48783 0.42317 0.0
H784 H 0.56106 0.51528 0.44722 0.0
H785 H 0.53422 0.54205 0.43357 0.0
H786 H 0.49229 0.59272 0.54763 0.0
H787 H 0.56112 0.62141 0.57536 0.0
H788 H 0.58521 0.53746 0.51314 0.0
C789 C 0.43029 0.47123 0.45406 0.0
C790 C 0.39359 0.47366 0.45573 0.0
C791 C 0.39262 0.50449 0.47702 0.0
C792 C 0.4272 0.53176 0.49715 0.0
C793 C 0.46249 0.52783 0.49558 0.0
C794 C 0.46448 0.49863 0.47438 0.0
C795 C 0.50566 0.49999 0.47847 0.0
C796 C 0.49945 0.45846 0.49258 0.0
C797 C 0.52992 0.51202 0.44353 0.0
C798 C 0.52628 0.53418 0.50564 0.0
C799 C 0.50084 0.54983 0.51509 0.0
C800 C 0.51265 0.58097 0.54028 0.0
C801 C 0.55175 0.59691 0.55598 0.0
C802 C 0.57859 0.58169 0.54642 0.0
C803 C 0.56546 0.54979 0.52099 0.0
loop_
_geom_bond_atom_site_label_1
_geom_bond_atom_site_label_2
_geom_bond_distance
_geom_bond_site_symmetry_2
_ccdc_geom_bond_type
C0 O1 1.160 . S
C0 O7 1.185 . S
O1 C0 1.160 . S
O2 Zn3 1.899 . S
O2 C10 1.284 . S
Zn3 O2 1.899 . S
Zn3 O4 2.032 . S
Zn3 O7 2.086 . S
Zn3 O12 1.977 1_455 S
O4 Zn3 2.032 . S
O4 C8 1.278 . S
C5 O6 1.203 . S
C5 O12 1.267 . S
O6 C5 1.203 . S
O7 C0 1.185 . S
O7 Zn3 2.086 . S
C8 O4 1.278 . S
C8 O9 1.211 . S
O9 C8 1.211 . S
C10 O2 1.284 . S
C10 O11 1.273 . S
O11 C10 1.273 . S
O12 Zn3 1.977 1_655 S
O12 C5 1.267 . S
C13 O14 1.160 . S
C13 O20 1.185 . S
O14 C13 1.160 . S
O15 Zn16 1.899 . S
O15 C23 1.284 . S
Zn16 O15 1.899 . S
Zn16 O17 2.032 . S
Zn16 O20 2.086 . S
Zn16 O25 1.977 . S
O17 Zn16 2.032 . S
O17 C21 1.278 . S
C18 O19 1.203 . S
C18 O25 1.267 . S
O19 C18 1.203 . S
O20 C13 1.185 . S
O20 Zn16 2.086 . S
C21 O17 1.278 . S
C21 O22 1.211 . S
O22 C21 1.211 . S
C23 O15 1.284 . S
C23 O24 1.273 . S
O24 C23 1.273 . S
O25 Zn16 1.977 . S
O25 C18 1.267 . S
C26 O27 1.160 . S
C26 O33 1.185 . S
O27 C26 1.160 . S
O28 Zn29 1.899 . S
O28 C36 1.284 . S
Zn29 O28 1.899 . S
Zn29 O30 2.032 . S
Zn29 O33 2.086 . S
Zn29 O38 1.977 1_565 S
O30 Zn29 2.032 . S
O30 C34 1.278 . S
C31 O32 1.203 . S
C31 O38 1.267 . S
O32 C31 1.203 . S
O33 C26 1.185 . S
O33 Zn29 2.086 . S
C34 O30 1.278 . S
C34 O35 1.211 . S
O35 C34 1.211 . S
C36 O28 1.284 . S
C36 O37 1.273 . S
O37 C36 1.273 . S
O38 Zn29 1.977 1_545 S
O38 C31 1.267 . S
C39 O40 1.160 . S
C39 O46 1.185 . S
O40 C39 1.160 . S
O41 Zn42 1.899 . S
O41 C49 1.284 . S
Zn42 O41 1.899 . S
Zn42 O43 2.032 . S
Zn42 O46 2.086 . S
Zn42 O51 1.977 1_565 S
O43 Zn42 2.032 . S
O43 C47 1.278 . S
C44 O45 1.203 . S
C44 O51 1.267 . S
O45 C44 1.203 . S
O46 C39 1.185 . S
O46 Zn42 2.086 . S
C47 O43 1.278 . S
C47 O48 1.211 . S
O48 C47 1.211 . S
C49 O41 1.284 . S
C49 O50 1.273 . S
O50 C49 1.273 . S
O51 Zn42 1.977 1_545 S
O51 C44 1.267 . S
C52 O53 1.160 . S
C52 O59 1.185 . S
O53 C52 1.160 . S
O54 Zn55 1.899 . S
O54 C62 1.284 . S
Zn55 O54 1.899 . S
Zn55 O56 2.032 . S
Zn55 O59 2.086 . S
Zn55 O64 1.977 1_455 S
O56 Zn55 2.032 . S
O56 C60 1.278 . S
C57 O58 1.203 . S
C57 O64 1.267 . S
O58 C57 1.203 . S
O59 C52 1.185 . S
O59 Zn55 2.086 . S
C60 O56 1.278 . S
C60 O61 1.211 . S
O61 C60 1.211 . S
C62 O54 1.284 . S
C62 O63 1.273 . S
O63 C62 1.273 . S
O64 Zn55 1.977 1_655 S
O64 C57 1.267 . S
C65 O66 1.160 . S
C65 O72 1.185 . S
O66 C65 1.160 . S
O67 Zn68 1.899 . S
O67 C75 1.284 . S
Zn68 O67 1.899 . S
Zn68 O69 2.032 . S
Zn68 O72 2.086 . S
Zn68 O77 1.977 . S
O69 Zn68 2.032 . S
O69 C73 1.278 . S
C70 O71 1.203 . S
C70 O77 1.267 . S
O71 C70 1.203 . S
O72 C65 1.185 . S
O72 Zn68 2.086 . S
C73 O69 1.278 . S
C73 O74 1.211 . S
O74 C73 1.211 . S
C75 O67 1.284 . S
C75 O76 1.273 . S
O76 C75 1.273 . S
O77 Zn68 1.977 . S
O77 C70 1.267 . S
C78 O79 1.160 . S
C78 O85 1.185 . S
O79 C78 1.160 . S
O80 Zn81 1.899 . S
O80 C88 1.284 . S
Zn81 O80 1.899 . S
Zn81 O82 2.032 . S
Zn81 O85 2.086 . S
Zn81 O90 1.977 1_655 S
O82 Zn81 2.032 . S
O82 C86 1.278 . S
C83 O84 1.203 . S
C83 O90 1.267 . S
O84 C83 1.203 . S
O85 C78 1.185 . S
O85 Zn81 2.086 . S
C86 O82 1.278 . S
C86 O87 1.211 . S
O87 C86 1.211 . S
C88 O80 1.284 . S
C88 O89 1.273 . S
O89 C88 1.273 . S
O90 Zn81 1.977 1_455 S
O90 C83 1.267 . S
C91 O92 1.160 . S
C91 O98 1.185 . S
O92 C91 1.160 . S
O93 Zn94 1.899 . S
O93 C101 1.284 . S
Zn94 O93 1.899 . S
Zn94 O95 2.032 . S
Zn94 O98 2.086 . S
Zn94 O103 1.977 . S
O95 Zn94 2.032 . S
O95 C99 1.278 . S
C96 O97 1.203 . S
C96 O103 1.267 . S
O97 C96 1.203 . S
O98 C91 1.185 . S
O98 Zn94 2.086 . S
C99 O95 1.278 . S
C99 O100 1.211 . S
O100 C99 1.211 . S
C101 O93 1.284 . S
C101 O102 1.273 . S
O102 C101 1.273 . S
O103 Zn94 1.977 . S
O103 C96 1.267 . S
C104 O105 1.160 . S
C104 O111 1.185 . S
O105 C104 1.160 . S
O106 Zn107 1.899 . S
O106 C114 1.284 . S
Zn107 O106 1.899 . S
Zn107 O108 2.032 . S
Zn107 O111 2.086 . S
Zn107 O116 1.977 1_545 S
O108 Zn107 2.032 . S
O108 C112 1.278 . S
C109 O110 1.203 . S
C109 O116 1.267 . S
O110 C109 1.203 . S
O111 C104 1.185 . S
O111 Zn107 2.086 . S
C112 O108 1.278 . S
C112 O113 1.211 . S
O113 C112 1.211 . S
C114 O106 1.284 . S
C114 O115 1.273 . S
O115 C114 1.273 . S
O116 Zn107 1.977 1_565 S
O116 C109 1.267 . S
C117 O118 1.160 . S
C117 O124 1.185 . S
O118 C117 1.160 . S
O119 Zn120 1.899 . S
O119 C127 1.284 . S
Zn120 O119 1.899 . S
Zn120 O121 2.032 . S
Zn120 O124 2.086 . S
Zn120 O129 1.977 1_545 S
O121 Zn120 2.032 . S
O121 C125 1.278 . S
C122 O123 1.203 . S
C122 O129 1.267 . S
O123 C122 1.203 . S
O124 C117 1.185 . S
O124 Zn120 2.086 . S
C125 O121 1.278 . S
C125 O126 1.211 . S
O126 C125 1.211 . S
C127 O119 1.284 . S
C127 O128 1.273 . S
O128 C127 1.273 . S
O129 Zn120 1.977 1_565 S
O129 C122 1.267 . S
C130 O131 1.160 . S
C130 O137 1.185 . S
O131 C130 1.160 . S
O132 Zn133 1.899 . S
O132 C140 1.284 . S
Zn133 O132 1.899 . S
Zn133 O134 2.032 . S
Zn133 O137 2.086 . S
Zn133 O142 1.977 1_655 S
O134 Zn133 2.032 . S
O134 C138 1.278 . S
C135 O136 1.203 . S
C135 O142 1.267 . S
O136 C135 1.203 . S
O137 C130 1.185 . S
O137 Zn133 2.086 . S
C138 O134 1.278 . S
C138 O139 1.211 . S
O139 C138 1.211 . S
C140 O132 1.284 . S
C140 O141 1.273 . S
O141 C140 1.273 . S
O142 Zn133 1.977 1_455 S
O142 C135 1.267 . S
C143 O144 1.160 . S
C143 O150 1.185 . S
O144 C143 1.160 . S
O145 Zn146 1.899 . S
O145 C153 1.284 . S
Zn146 O145 1.899 . S
Zn146 O147 2.032 . S
Zn146 O150 2.086 . S
Zn146 O155 1.977 . S
O147 Zn146 2.032 . S
O147 C151 1.278 . S
C148 O149 1.203 . S
C148 O155 1.267 . S
O149 C148 1.203 . S
O150 C143 1.185 . S
O150 Zn146 2.086 . S
C151 O147 1.278 . S
C151 O152 1.211 . S
O152 C151 1.211 . S
C153 O145 1.284 . S
C153 O154 1.273 . S
O154 C153 1.273 . S
O155 Zn146 1.977 . S
O155 C148 1.267 . S
H156 C168 0.930 . S
H157 C170 0.930 . S
H158 C171 0.930 . S
H159 C175 0.959 . S
H160 C175 0.959 . S
H161 C175 0.961 . S
H162 C176 0.960 . S
H163 C176 0.961 . S
H164 C176 0.959 . S
H165 C179 0.929 . S
H166 C180 0.931 . S
H167 C182 0.930 . S
C168 H156 0.930 . S
C168 C169 1.399 . S
C168 C173 1.399 . S
C169 C168 1.399 . S
C169 C170 1.376 . S
C170 H157 0.930 . S
C170 C169 1.376 . S
C170 C171 1.388 . S
C171 H158 0.930 . S
C171 C170 1.388 . S
C171 C172 1.390 . S
C172 C171 1.390 . S
C172 C173 1.394 . S
C172 C178 1.465 1_554 S
C173 C168 1.399 . S
C173 C172 1.394 . S
C173 C174 1.516 1_554 S
C174 C173 1.516 1_556 S
C174 C175 1.502 . S
C174 C176 1.561 1_556 S
C174 C177 1.526 . S
C175 H159 0.959 . S
C175 H160 0.959 . S
C175 H161 0.961 . S
C175 C174 1.502 . S
C176 H162 0.960 . S
C176 H163 0.961 . S
C176 H164 0.959 . S
C176 C174 1.561 1_554 S
C177 C174 1.526 . S
C177 C178 1.396 . S
C177 C182 1.390 . S
C178 C172 1.465 1_556 S
C178 C177 1.396 . S
C178 C179 1.399 . S
C179 H165 0.929 . S
C179 C178 1.399 . S
C179 C180 1.385 . S
C180 H166 0.931 . S
C180 C179 1.385 . S
C180 C181 1.389 . S
C181 C180 1.389 . S
C181 C182 1.387 . S
C182 H167 0.930 . S
C182 C177 1.390 . S
C182 C181 1.387 . S
H183 C195 0.930 . S
H184 C197 0.930 . S
H185 C198 0.930 . S
H186 C202 0.959 . S
H187 C202 0.959 . S
H188 C202 0.961 . S
H189 C203 0.960 . S
H190 C203 0.961 . S
H191 C203 0.959 . S
H192 C206 0.929 . S
H193 C207 0.931 . S
H194 C209 0.930 . S
C195 H183 0.930 . S
C195 C196 1.399 . S
C195 C200 1.399 . S
C196 C195 1.399 . S
C196 C197 1.376 1_554 S
C197 H184 0.930 . S
C197 C196 1.376 1_556 S
C197 C198 1.388 . S
C198 H185 0.930 . S
C198 C197 1.388 . S
C198 C199 1.390 . S
C199 C198 1.390 . S
C199 C200 1.394 1_556 S
C199 C205 1.465 . S
C200 C195 1.399 . S
C200 C199 1.394 1_554 S
C200 C201 1.516 . S
C201 C200 1.516 . S
C201 C202 1.502 . S
C201 C203 1.561 . S
C201 C204 1.526 1_554 S
C202 H186 0.959 . S
C202 H187 0.959 . S
C202 H188 0.961 . S
C202 C201 1.502 . S
C203 H189 0.960 . S
C203 H190 0.961 . S
C203 H191 0.959 . S
C203 C201 1.561 . S
C204 C201 1.526 1_556 S
C204 C205 1.396 . S
C204 C209 1.390 . S
C205 C199 1.465 . S
C205 C204 1.396 . S
C205 C206 1.399 . S
C206 H192 0.929 . S
C206 C205 1.399 . S
C206 C207 1.385 . S
C207 H193 0.931 . S
C207 C206 1.385 . S
C207 C208 1.389 . S
C208 C207 1.389 . S
C208 C209 1.387 . S
C209 H194 0.930 . S
C209 C204 1.390 . S
C209 C208 1.387 . S
H210 C222 0.930 . S
H211 C224 0.930 . S
H212 C225 0.930 . S
H213 C229 0.959 . S
H214 C229 0.959 . S
H215 C229 0.961 . S
H216 C230 0.960 . S
H217 C230 0.961 . S
H218 C230 0.959 . S
H219 C233 0.929 1_554 S
H220 C234 0.931 . S
H221 C236 0.930 . S
C222 H210 0.930 . S
C222 C223 1.399 . S
C222 C227 1.399 1_554 S
C223 C222 1.399 . S
C223 C224 1.376 . S
C224 H211 0.930 . S
C224 C223 1.376 . S
C224 C225 1.388 . S
C225 H212 0.930 . S
C225 C224 1.388 . S
C225 C226 1.390 . S
C226 C225 1.390 . S
C226 C227 1.394 1_554 S
C226 C232 1.465 1_554 S
C227 C222 1.399 1_556 S
C227 C226 1.394 1_556 S
C227 C228 1.516 . S
C228 C227 1.516 . S
C228 C229 1.502 . S
C228 C230 1.561 . S
C228 C231 1.526 . S
C229 H213 0.959 . S
C229 H214 0.959 . S
C229 H215 0.961 . S
C229 C228 1.502 . S
C230 H216 0.960 . S
C230 H217 0.961 . S
C230 H218 0.959 . S
C230 C228 1.561 . S
C231 C228 1.526 . S
C231 C232 1.396 . S
C231 C236 1.390 . S
C232 C226 1.465 1_556 S
C232 C231 1.396 . S
C232 C233 1.399 . S
C233 H219 0.929 1_556 S
C233 C232 1.399 . S
C233 C234 1.385 . S
C234 H220 0.931 . S
C234 C233 1.385 . S
C234 C235 1.389 . S
C235 C234 1.389 . S
C235 C236 1.387 . S
C236 H221 0.930 . S
C236 C231 1.390 . S
C236 C235 1.387 . S
H237 C249 0.930 . S
H238 C251 0.930 . S
H239 C252 0.930 . S
H240 C256 0.959 . S
H241 C256 0.959 . S
H242 C256 0.961 . S
H243 C257 0.960 . S
H244 C257 0.961 . S
H245 C257 0.959 . S
H246 C260 0.929 . S
H247 C261 0.931 . S
H248 C263 0.930 . S
C249 H237 0.930 . S
C249 C250 1.399 . S
C249 C254 1.399 . S
C250 C249 1.399 . S
C250 C251 1.376 . S
C251 H238 0.930 . S
C251 C250 1.376 . S
C251 C252 1.388 . S
C252 H239 0.930 . S
C252 C251 1.388 . S
C252 C253 1.390 . S
C253 C252 1.390 . S
C253 C254 1.394 . S
C253 C259 1.465 . S
C254 C249 1.399 . S
C254 C253 1.394 . S
C254 C255 1.516 . S
C255 C254 1.516 . S
C255 C256 1.502 . S
C255 C257 1.561 . S
C255 C258 1.526 . S
C256 H240 0.959 . S
C256 H241 0.959 . S
C256 H242 0.961 . S
C256 C255 1.502 . S
C257 H243 0.960 . S
C257 H244 0.961 . S
C257 H245 0.959 . S
C257 C255 1.561 . S
C258 C255 1.526 . S
C258 C259 1.396 . S
C258 C263 1.390 . S
C259 C253 1.465 . S
C259 C258 1.396 . S
C259 C260 1.399 . S
C260 H246 0.929 . S
C260 C259 1.399 . S
C260 C261 1.385 . S
C261 H247 0.931 . S
C261 C260 1.385 . S
C261 C262 1.389 . S
C262 C261 1.389 . S
C262 C263 1.387 . S
C263 H248 0.930 . S
C263 C258 1.390 . S
C263 C262 1.387 . S
H264 C276 0.930 . S
H265 C278 0.930 . S
H266 C279 0.930 . S
H267 C283 0.959 . S
H268 C283 0.959 . S
H269 C283 0.961 . S
H270 C284 0.960 . S
H271 C284 0.961 . S
H272 C284 0.959 . S
H273 C287 0.929 . S
H274 C288 0.931 . S
H275 C290 0.930 . S
C276 H264 0.930 . S
C276 C277 1.399 . S
C276 C281 1.399 . S
C277 C276 1.399 . S
C277 C278 1.376 . S
C278 H265 0.930 . S
C278 C277 1.376 . S
C278 C279 1.388 . S
C279 H266 0.930 . S
C279 C278 1.388 . S
C279 C280 1.390 . S
C280 C279 1.390 . S
C280 C281 1.394 . S
C280 C286 1.465 . S
C281 C276 1.399 . S
C281 C280 1.394 . S
C281 C282 1.516 . S
C282 C281 1.516 . S
C282 C283 1.502 . S
C282 C284 1.561 . S
C282 C285 1.526 . S
C283 H267 0.959 . S
C283 H268 0.959 . S
C283 H269 0.961 . S
C283 C282 1.502 . S
C284 H270 0.960 . S
C284 H271 0.961 . S
C284 H272 0.959 . S
C284 C282 1.561 . S
C285 C282 1.526 . S
C285 C286 1.396 . S
C285 C290 1.390 . S
C286 C280 1.465 . S
C286 C285 1.396 . S
C286 C287 1.399 . S
C287 H273 0.929 . S
C287 C286 1.399 . S
C287 C288 1.385 . S
C288 H274 0.931 . S
C288 C287 1.385 . S
C288 C289 1.389 . S
C289 C288 1.389 . S
C289 C290 1.387 . S
C290 H275 0.930 . S
C290 C285 1.390 . S
C290 C289 1.387 . S
H291 C303 0.930 . S
H292 C305 0.930 . S
H293 C306 0.930 . S
H294 C310 0.959 . S
H295 C310 0.959 . S
H296 C310 0.961 . S
H297 C311 0.960 . S
H298 C311 0.961 . S
H299 C311 0.959 . S
H300 C314 0.929 . S
H301 C315 0.931 . S
H302 C317 0.930 . S
C303 H291 0.930 . S
C303 C304 1.399 . S
C303 C308 1.399 . S
C304 C303 1.399 . S
C304 C305 1.376 . S
C305 H292 0.930 . S
C305 C304 1.376 . S
C305 C306 1.388 . S
C306 H293 0.930 . S
C306 C305 1.388 . S
C306 C307 1.390 . S
C307 C306 1.390 . S
C307 C308 1.394 . S
C307 C313 1.465 . S
C308 C303 1.399 . S
C308 C307 1.394 . S
C308 C309 1.516 . S
C309 C308 1.516 . S
C309 C310 1.502 . S
C309 C311 1.561 . S
C309 C312 1.526 . S
C310 H294 0.959 . S
C310 H295 0.959 . S
C310 H296 0.961 . S
C310 C309 1.502 . S
C311 H297 0.960 . S
C311 H298 0.961 . S
C311 H299 0.959 . S
C311 C309 1.561 . S
C312 C309 1.526 . S
C312 C313 1.396 . S
C312 C317 1.390 . S
C313 C307 1.465 . S
C313 C312 1.396 . S
C313 C314 1.399 . S
C314 H300 0.929 . S
C314 C313 1.399 . S
C314 C315 1.385 . S
C315 H301 0.931 . S
C315 C314 1.385 . S
C315 C316 1.389 . S
C316 C315 1.389 . S
C316 C317 1.387 . S
C317 H302 0.930 . S
C317 C312 1.390 . S
C317 C316 1.387 . S
H318 C330 0.930 . S
H319 C332 0.930 . S
H320 C333 0.930 . S
H321 C337 0.959 . S
H322 C337 0.959 . S
H323 C337 0.961 . S
H324 C338 0.960 . S
H325 C338 0.961 1_556 S
H326 C338 0.959 . S
H327 C341 0.929 . S
H328 C342 0.931 . S
H329 C344 0.930 . S
C330 H318 0.930 . S
C330 C331 1.399 . S
C330 C335 1.399 . S
C331 C330 1.399 . S
C331 C332 1.376 . S
C332 H319 0.930 . S
C332 C331 1.376 . S
C332 C333 1.388 . S
C333 H320 0.930 . S
C333 C332 1.388 . S
C333 C334 1.390 . S
C334 C333 1.390 . S
C334 C335 1.394 . S
C334 C340 1.465 . S
C335 C330 1.399 . S
C335 C334 1.394 . S
C335 C336 1.516 1_554 S
C336 C335 1.516 1_556 S
C336 C337 1.502 . S
C336 C338 1.561 1_556 S
C336 C339 1.526 . S
C337 H321 0.959 . S
C337 H322 0.959 . S
C337 H323 0.961 . S
C337 C336 1.502 . S
C338 H324 0.960 . S
C338 H325 0.961 1_554 S
C338 H326 0.959 . S
C338 C336 1.561 1_554 S
C339 C336 1.526 . S
C339 C340 1.396 1_556 S
C339 C344 1.390 . S
C340 C334 1.465 . S
C340 C339 1.396 1_554 S
C340 C341 1.399 . S
C341 H327 0.929 . S
C341 C340 1.399 . S
C341 C342 1.385 1_554 S
C342 H328 0.931 . S
C342 C341 1.385 1_556 S
C342 C343 1.389 . S
C343 C342 1.389 . S
C343 C344 1.387 . S
C344 H329 0.930 . S
C344 C339 1.390 . S
C344 C343 1.387 . S
H345 C357 0.930 1_554 S
H346 C359 0.930 . S
H347 C360 0.930 . S
H348 C364 0.959 . S
H349 C364 0.959 . S
H350 C364 0.961 . S
H351 C365 0.960 . S
H352 C365 0.961 . S
H353 C365 0.959 . S
H354 C368 0.929 1_556 S
H355 C369 0.931 . S
H356 C371 0.930 . S
C357 H345 0.930 1_556 S
C357 C358 1.399 . S
C357 C362 1.399 1_556 S
C358 C357 1.399 . S
C358 C359 1.376 . S
C359 H346 0.930 . S
C359 C358 1.376 . S
C359 C360 1.388 . S
C360 H347 0.930 . S
C360 C359 1.388 . S
C360 C361 1.390 . S
C361 C360 1.390 . S
C361 C362 1.394 1_556 S
C361 C367 1.465 1_556 S
C362 C357 1.399 1_554 S
C362 C361 1.394 1_554 S
C362 C363 1.516 . S
C363 C362 1.516 . S
C363 C364 1.502 . S
C363 C365 1.561 . S
C363 C366 1.526 . S
C364 H348 0.959 . S
C364 H349 0.959 . S
C364 H350 0.961 . S
C364 C363 1.502 . S
C365 H351 0.960 . S
C365 H352 0.961 . S
C365 H353 0.959 . S
C365 C363 1.561 . S
C366 C363 1.526 . S
C366 C367 1.396 . S
C366 C371 1.390 . S
C367 C361 1.465 1_554 S
C367 C366 1.396 . S
C367 C368 1.399 . S
C368 H354 0.929 1_554 S
C368 C367 1.399 . S
C368 C369 1.385 . S
C369 H355 0.931 . S
C369 C368 1.385 . S
C369 C370 1.389 . S
C370 C369 1.389 . S
C370 C371 1.387 . S
C371 H356 0.930 . S
C371 C366 1.390 . S
C371 C370 1.387 . S
H372 C384 0.930 . S
H373 C386 0.930 . S
H374 C387 0.930 . S
H375 C391 0.959 . S
H376 C391 0.959 . S
H377 C391 0.961 . S
H378 C392 0.960 . S
H379 C392 0.961 . S
H380 C392 0.959 . S
H381 C395 0.929 . S
H382 C396 0.931 . S
H383 C398 0.930 1_554 S
C384 H372 0.930 . S
C384 C385 1.399 . S
C384 C389 1.399 . S
C385 C384 1.399 . S
C385 C386 1.376 . S
C386 H373 0.930 . S
C386 C385 1.376 . S
C386 C387 1.388 1_554 S
C387 H374 0.930 . S
C387 C386 1.388 1_556 S
C387 C388 1.390 1_556 S
C388 C387 1.390 1_554 S
C388 C389 1.394 . S
C388 C394 1.465 1_554 S
C389 C384 1.399 . S
C389 C388 1.394 . S
C389 C390 1.516 . S
C390 C389 1.516 . S
C390 C391 1.502 . S
C390 C392 1.561 . S
C390 C393 1.526 . S
C391 H375 0.959 . S
C391 H376 0.959 . S
C391 H377 0.961 . S
C391 C390 1.502 . S
C392 H378 0.960 . S
C392 H379 0.961 . S
C392 H380 0.959 . S
C392 C390 1.561 . S
C393 C390 1.526 . S
C393 C394 1.396 1_554 S
C393 C398 1.390 1_554 S
C394 C388 1.465 1_556 S
C394 C393 1.396 1_556 S
C394 C395 1.399 . S
C395 H381 0.929 . S
C395 C394 1.399 . S
C395 C396 1.385 . S
C396 H382 0.931 . S
C396 C395 1.385 . S
C396 C397 1.389 . S
C397 C396 1.389 . S
C397 C398 1.387 . S
C398 H383 0.930 1_556 S
C398 C393 1.390 1_556 S
C398 C397 1.387 . S
H399 C411 0.930 . S
H400 C413 0.930 . S
H401 C414 0.930 . S
H402 C418 0.959 . S
H403 C418 0.959 . S
H404 C418 0.961 . S
H405 C419 0.960 . S
H406 C419 0.961 . S
H407 C419 0.959 . S
H408 C422 0.929 . S
H409 C423 0.931 . S
H410 C425 0.930 . S
C411 H399 0.930 . S
C411 C412 1.399 . S
C411 C416 1.399 . S
C412 C411 1.399 . S
C412 C413 1.376 . S
C413 H400 0.930 . S
C413 C412 1.376 . S
C413 C414 1.388 . S
C414 H401 0.930 . S
C414 C413 1.388 . S
C414 C415 1.390 . S
C415 C414 1.390 . S
C415 C416 1.394 . S
C415 C421 1.465 . S
C416 C411 1.399 . S
C416 C415 1.394 . S
C416 C417 1.516 . S
C417 C416 1.516 . S
C417 C418 1.502 . S
C417 C419 1.561 . S
C417 C420 1.526 . S
C418 H402 0.959 . S
C418 H403 0.959 . S
C418 H404 0.961 . S
C418 C417 1.502 . S
C419 H405 0.960 . S
C419 H406 0.961 . S
C419 H407 0.959 . S
C419 C417 1.561 . S
C420 C417 1.526 . S
C420 C421 1.396 . S
C420 C425 1.390 . S
C421 C415 1.465 . S
C421 C420 1.396 . S
C421 C422 1.399 . S
C422 H408 0.929 . S
C422 C421 1.399 . S
C422 C423 1.385 . S
C423 H409 0.931 . S
C423 C422 1.385 . S
C423 C424 1.389 . S
C424 C423 1.389 . S
C424 C425 1.387 . S
C425 H410 0.930 . S
C425 C420 1.390 . S
C425 C424 1.387 . S
H426 C438 0.930 . S
H427 C440 0.930 . S
H428 C441 0.930 . S
H429 C445 0.959 . S
H430 C445 0.959 . S
H431 C445 0.961 . S
H432 C446 0.960 . S
H433 C446 0.961 . S
H434 C446 0.959 . S
H435 C449 0.929 . S
H436 C450 0.931 . S
H437 C452 0.930 . S
C438 H426 0.930 . S
C438 C439 1.399 . S
C438 C443 1.399 . S
C439 C438 1.399 . S
C439 C440 1.376 . S
C440 H427 0.930 . S
C440 C439 1.376 . S
C440 C441 1.388 . S
C441 H428 0.930 . S
C441 C440 1.388 . S
C441 C442 1.390 . S
C442 C441 1.390 . S
C442 C443 1.394 . S
C442 C448 1.465 . S
C443 C438 1.399 . S
C443 C442 1.394 . S
C443 C444 1.516 . S
C444 C443 1.516 . S
C444 C445 1.502 . S
C444 C446 1.561 . S
C444 C447 1.526 . S
C445 H429 0.959 . S
C445 H430 0.959 . S
C445 H431 0.961 . S
C445 C444 1.502 . S
C446 H432 0.960 . S
C446 H433 0.961 . S
C446 H434 0.959 . S
C446 C444 1.561 . S
C447 C444 1.526 . S
C447 C448 1.396 . S
C447 C452 1.390 . S
C448 C442 1.465 . S
C448 C447 1.396 . S
C448 C449 1.399 . S
C449 H435 0.929 . S
C449 C448 1.399 . S
C449 C450 1.385 . S
C450 H436 0.931 . S
C450 C449 1.385 . S
C450 C451 1.389 . S
C451 C450 1.389 . S
C451 C452 1.387 . S
C452 H437 0.930 . S
C452 C447 1.390 . S
C452 C451 1.387 . S
H453 C465 0.930 . S
H454 C467 0.930 . S
H455 C468 0.930 . S
H456 C472 0.959 . S
H457 C472 0.959 . S
H458 C472 0.961 . S
H459 C473 0.960 . S
H460 C473 0.961 . S
H461 C473 0.959 . S
H462 C476 0.929 . S
H463 C477 0.931 . S
H464 C479 0.930 . S
C465 H453 0.930 . S
C465 C466 1.399 . S
C465 C470 1.399 . S
C466 C465 1.399 . S
C466 C467 1.376 . S
C467 H454 0.930 . S
C467 C466 1.376 . S
C467 C468 1.388 . S
C468 H455 0.930 . S
C468 C467 1.388 . S
C468 C469 1.390 . S
C469 C468 1.390 . S
C469 C470 1.394 . S
C469 C475 1.465 . S
C470 C465 1.399 . S
C470 C469 1.394 . S
C470 C471 1.516 . S
C471 C470 1.516 . S
C471 C472 1.502 . S
C471 C473 1.561 . S
C471 C474 1.526 . S
C472 H456 0.959 . S
C472 H457 0.959 . S
C472 H458 0.961 . S
C472 C471 1.502 . S
C473 H459 0.960 . S
C473 H460 0.961 . S
C473 H461 0.959 . S
C473 C471 1.561 . S
C474 C471 1.526 . S
C474 C475 1.396 . S
C474 C479 1.390 . S
C475 C469 1.465 . S
C475 C474 1.396 . S
C475 C476 1.399 . S
C476 H462 0.929 . S
C476 C475 1.399 . S
C476 C477 1.385 . S
C477 H463 0.931 . S
C477 C476 1.385 . S
C477 C478 1.389 . S
C478 C477 1.389 . S
C478 C479 1.387 . S
C479 H464 0.930 . S
C479 C474 1.390 . S
C479 C478 1.387 . S
H480 C492 0.930 . S
H481 C494 0.930 . S
H482 C495 0.930 . S
H483 C499 0.959 . S
H484 C499 0.959 . S
H485 C499 0.961 . S
H486 C500 0.960 . S
H487 C500 0.961 . S
H488 C500 0.959 . S
H489 C503 0.929 . S
H490 C504 0.931 . S
H491 C506 0.930 . S
C492 H480 0.930 . S
C492 C493 1.399 . S
C492 C497 1.399 . S
C493 C492 1.399 . S
C493 C494 1.376 . S
C494 H481 0.930 . S
C494 C493 1.376 . S
C494 C495 1.388 . S
C495 H482 0.930 . S
C495 C494 1.388 . S
C495 C496 1.390 . S
C496 C495 1.390 . S
C496 C497 1.394 . S
C496 C502 1.465 . S
C497 C492 1.399 . S
C497 C496 1.394 . S
C497 C498 1.516 . S
C498 C497 1.516 . S
C498 C499 1.502 . S
C498 C500 1.561 . S
C498 C501 1.526 . S
C499 H483 0.959 . S
C499 H484 0.959 . S
C499 H485 0.961 . S
C499 C498 1.502 . S
C500 H486 0.960 . S
C500 H487 0.961 . S
C500 H488 0.959 . S
C500 C498 1.561 . S
C501 C498 1.526 . S
C501 C502 1.396 . S
C501 C506 1.390 . S
C502 C496 1.465 . S
C502 C501 1.396 . S
C502 C503 1.399 . S
C503 H489 0.929 . S
C503 C502 1.399 . S
C503 C504 1.385 . S
C504 H490 0.931 . S
C504 C503 1.385 . S
C504 C505 1.389 . S
C505 C504 1.389 . S
C505 C506 1.387 . S
C506 H491 0.930 . S
C506 C501 1.390 . S
C506 C505 1.387 . S
H507 C519 0.930 . S
H508 C521 0.930 . S
H509 C522 0.930 . S
H510 C526 0.959 . S
H511 C526 0.959 . S
H512 C526 0.961 . S
H513 C527 0.960 . S
H514 C527 0.961 . S
H515 C527 0.959 . S
H516 C530 0.929 . S
H517 C531 0.931 . S
H518 C533 0.930 . S
C519 H507 0.930 . S
C519 C520 1.399 . S
C519 C524 1.399 . S
C520 C519 1.399 . S
C520 C521 1.376 . S
C521 H508 0.930 . S
C521 C520 1.376 . S
C521 C522 1.388 . S
C522 H509 0.930 . S
C522 C521 1.388 . S
C522 C523 1.390 . S
C523 C522 1.390 . S
C523 C524 1.394 . S
C523 C529 1.465 . S
C524 C519 1.399 . S
C524 C523 1.394 . S
C524 C525 1.516 . S
C525 C524 1.516 . S
C525 C526 1.502 . S
C525 C527 1.561 . S
C525 C528 1.526 . S
C526 H510 0.959 . S
C526 H511 0.959 . S
C526 H512 0.961 . S
C526 C525 1.502 . S
C527 H513 0.960 . S
C527 H514 0.961 . S
C527 H515 0.959 . S
C527 C525 1.561 . S
C528 C525 1.526 . S
C528 C529 1.396 . S
C528 C533 1.390 . S
C529 C523 1.465 . S
C529 C528 1.396 . S
C529 C530 1.399 . S
C530 H516 0.929 . S
C530 C529 1.399 . S
C530 C531 1.385 . S
C531 H517 0.931 . S
C531 C530 1.385 . S
C531 C532 1.389 . S
C532 C531 1.389 . S
C532 C533 1.387 . S
C533 H518 0.930 . S
C533 C528 1.390 . S
C533 C532 1.387 . S
H534 C546 0.930 . S
H535 C548 0.930 . S
H536 C549 0.930 . S
H537 C553 0.959 . S
H538 C553 0.959 . S
H539 C553 0.961 . S
H540 C554 0.960 . S
H541 C554 0.961 . S
H542 C554 0.959 . S
H543 C557 0.929 . S
H544 C558 0.931 . S
H545 C560 0.930 . S
C546 H534 0.930 . S
C546 C547 1.399 . S
C546 C551 1.399 . S
C547 C546 1.399 . S
C547 C548 1.376 . S
C548 H535 0.930 . S
C548 C547 1.376 . S
C548 C549 1.388 . S
C549 H536 0.930 . S
C549 C548 1.388 . S
C549 C550 1.390 . S
C550 C549 1.390 . S
C550 C551 1.394 . S
C550 C556 1.465 . S
C551 C546 1.399 . S
C551 C550 1.394 . S
C551 C552 1.516 . S
C552 C551 1.516 . S
C552 C553 1.502 . S
C552 C554 1.561 . S
C552 C555 1.526 . S
C553 H537 0.959 . S
C553 H538 0.959 . S
C553 H539 0.961 . S
C553 C552 1.502 . S
C554 H540 0.960 . S
C554 H541 0.961 . S
C554 H542 0.959 . S
C554 C552 1.561 . S
C555 C552 1.526 . S
C555 C556 1.396 . S
C555 C560 1.390 . S
C556 C550 1.465 . S
C556 C555 1.396 . S
C556 C557 1.399 . S
C557 H543 0.929 . S
C557 C556 1.399 . S
C557 C558 1.385 . S
C558 H544 0.931 . S
C558 C557 1.385 . S
C558 C559 1.389 . S
C559 C558 1.389 . S
C559 C560 1.387 . S
C560 H545 0.930 . S
C560 C555 1.390 . S
C560 C559 1.387 . S
H561 C573 0.930 . S
H562 C575 0.930 . S
H563 C576 0.930 . S
H564 C580 0.959 . S
H565 C580 0.959 . S
H566 C580 0.961 . S
H567 C581 0.960 . S
H568 C581 0.961 . S
H569 C581 0.959 . S
H570 C584 0.929 . S
H571 C585 0.931 . S
H572 C587 0.930 . S
C573 H561 0.930 . S
C573 C574 1.399 . S
C573 C578 1.399 . S
C574 C573 1.399 . S
C574 C575 1.376 . S
C575 H562 0.930 . S
C575 C574 1.376 . S
C575 C576 1.388 . S
C576 H563 0.930 . S
C576 C575 1.388 . S
C576 C577 1.390 . S
C577 C576 1.390 . S
C577 C578 1.394 . S
C577 C583 1.465 . S
C578 C573 1.399 . S
C578 C577 1.394 . S
C578 C579 1.516 . S
C579 C578 1.516 . S
C579 C580 1.502 . S
C579 C581 1.561 . S
C579 C582 1.526 . S
C580 H564 0.959 . S
C580 H565 0.959 . S
C580 H566 0.961 . S
C580 C579 1.502 . S
C581 H567 0.960 . S
C581 H568 0.961 . S
C581 H569 0.959 . S
C581 C579 1.561 . S
C582 C579 1.526 . S
C582 C583 1.396 . S
C582 C587 1.390 . S
C583 C577 1.465 . S
C583 C582 1.396 . S
C583 C584 1.399 . S
C584 H570 0.929 . S
C584 C583 1.399 . S
C584 C585 1.385 . S
C585 H571 0.931 . S
C585 C584 1.385 . S
C585 C586 1.389 . S
C586 C585 1.389 . S
C586 C587 1.387 . S
C587 H572 0.930 . S
C587 C582 1.390 . S
C587 C586 1.387 . S
H588 C600 0.930 . S
H589 C602 0.930 . S
H590 C603 0.930 . S
H591 C607 0.959 . S
H592 C607 0.959 . S
H593 C607 0.961 . S
H594 C608 0.960 . S
H595 C608 0.961 . S
H596 C608 0.959 . S
H597 C611 0.929 . S
H598 C612 0.931 . S
H599 C614 0.930 . S
C600 H588 0.930 . S
C600 C601 1.399 . S
C600 C605 1.399 . S
C601 C600 1.399 . S
C601 C602 1.376 . S
C602 H589 0.930 . S
C602 C601 1.376 . S
C602 C603 1.388 . S
C603 H590 0.930 . S
C603 C602 1.388 . S
C603 C604 1.390 . S
C604 C603 1.390 . S
C604 C605 1.394 . S
C604 C610 1.465 . S
C605 C600 1.399 . S
C605 C604 1.394 . S
C605 C606 1.516 . S
C606 C605 1.516 . S
C606 C607 1.502 . S
C606 C608 1.561 . S
C606 C609 1.526 . S
C607 H591 0.959 . S
C607 H592 0.959 . S
C607 H593 0.961 . S
C607 C606 1.502 . S
C608 H594 0.960 . S
C608 H595 0.961 . S
C608 H596 0.959 . S
C608 C606 1.561 . S
C609 C606 1.526 . S
C609 C610 1.396 . S
C609 C614 1.390 . S
C610 C604 1.465 . S
C610 C609 1.396 . S
C610 C611 1.399 . S
C611 H597 0.929 . S
C611 C610 1.399 . S
C611 C612 1.385 . S
C612 H598 0.931 . S
C612 C611 1.385 . S
C612 C613 1.389 . S
C613 C612 1.389 . S
C613 C614 1.387 . S
C614 H599 0.930 . S
C614 C609 1.390 . S
C614 C613 1.387 . S
H615 C627 0.930 . S
H616 C629 0.930 . S
H617 C630 0.930 . S
H618 C634 0.959 . S
H619 C634 0.959 . S
H620 C634 0.961 . S
H621 C635 0.960 . S
H622 C635 0.961 . S
H623 C635 0.959 . S
H624 C638 0.929 . S
H625 C639 0.931 . S
H626 C641 0.930 . S
C627 H615 0.930 . S
C627 C628 1.399 . S
C627 C632 1.399 . S
C628 C627 1.399 . S
C628 C629 1.376 . S
C629 H616 0.930 . S
C629 C628 1.376 . S
C629 C630 1.388 . S
C630 H617 0.930 . S
C630 C629 1.388 . S
C630 C631 1.390 . S
C631 C630 1.390 . S
C631 C632 1.394 . S
C631 C637 1.465 . S
C632 C627 1.399 . S
C632 C631 1.394 . S
C632 C633 1.516 . S
C633 C632 1.516 . S
C633 C634 1.502 . S
C633 C635 1.561 . S
C633 C636 1.526 . S
C634 H618 0.959 . S
C634 H619 0.959 . S
C634 H620 0.961 . S
C634 C633 1.502 . S
C635 H621 0.960 . S
C635 H622 0.961 . S
C635 H623 0.959 . S
C635 C633 1.561 . S
C636 C633 1.526 . S
C636 C637 1.396 . S
C636 C641 1.390 . S
C637 C631 1.465 . S
C637 C636 1.396 . S
C637 C638 1.399 . S
C638 H624 0.929 . S
C638 C637 1.399 . S
C638 C639 1.385 . S
C639 H625 0.931 . S
C639 C638 1.385 . S
C639 C640 1.389 . S
C640 C639 1.389 . S
C640 C641 1.387 . S
C641 H626 0.930 . S
C641 C636 1.390 . S
C641 C640 1.387 . S
H642 C654 0.930 . S
H643 C656 0.930 . S
H644 C657 0.930 . S
H645 C661 0.959 . S
H646 C661 0.959 1_655 S
H647 C661 0.961 . S
H648 C662 0.960 . S
H649 C662 0.961 . S
H650 C662 0.959 . S
H651 C665 0.929 1_455 S
H652 C666 0.931 . S
H653 C668 0.930 . S
C654 H642 0.930 . S
C654 C655 1.399 . S
C654 C659 1.399 . S
C655 C654 1.399 . S
C655 C656 1.376 . S
C656 H643 0.930 . S
C656 C655 1.376 . S
C656 C657 1.388 . S
C657 H644 0.930 . S
C657 C656 1.388 . S
C657 C658 1.390 . S
C658 C657 1.390 . S
C658 C659 1.394 . S
C658 C664 1.465 1_455 S
C659 C654 1.399 . S
C659 C658 1.394 . S
C659 C660 1.516 1_454 S
C660 C659 1.516 1_656 S
C660 C661 1.502 1_655 S
C660 C662 1.561 . S
C660 C663 1.526 . S
C661 H645 0.959 . S
C661 H646 0.959 1_455 S
C661 H647 0.961 . S
C661 C660 1.502 1_455 S
C662 H648 0.960 . S
C662 H649 0.961 . S
C662 H650 0.959 . S
C662 C660 1.561 . S
C663 C660 1.526 . S
C663 C664 1.396 1_556 S
C663 C668 1.390 . S
C664 C658 1.465 1_655 S
C664 C663 1.396 1_554 S
C664 C665 1.399 . S
C665 H651 0.929 1_655 S
C665 C664 1.399 . S
C665 C666 1.385 1_554 S
C666 H652 0.931 . S
C666 C665 1.385 1_556 S
C666 C667 1.389 . S
C667 C666 1.389 . S
C667 C668 1.387 . S
C668 H653 0.930 . S
C668 C663 1.390 . S
C668 C667 1.387 . S
H669 C681 0.930 . S
H670 C683 0.930 . S
H671 C684 0.930 . S
H672 C688 0.959 . S
H673 C688 0.959 . S
H674 C688 0.961 . S
H675 C689 0.960 . S
H676 C689 0.961 . S
H677 C689 0.959 . S
H678 C692 0.929 . S
H679 C693 0.931 . S
H680 C695 0.930 . S
C681 H669 0.930 . S
C681 C682 1.399 . S
C681 C686 1.399 . S
C682 C681 1.399 . S
C682 C683 1.376 . S
C683 H670 0.930 . S
C683 C682 1.376 . S
C683 C684 1.388 . S
C684 H671 0.930 . S
C684 C683 1.388 . S
C684 C685 1.390 . S
C685 C684 1.390 . S
C685 C686 1.394 . S
C685 C691 1.465 . S
C686 C681 1.399 . S
C686 C685 1.394 . S
C686 C687 1.516 1_554 S
C687 C686 1.516 1_556 S
C687 C688 1.502 . S
C687 C689 1.561 . S
C687 C690 1.526 . S
C688 H672 0.959 . S
C688 H673 0.959 . S
C688 H674 0.961 . S
C688 C687 1.502 . S
C689 H675 0.960 . S
C689 H676 0.961 . S
C689 H677 0.959 . S
C689 C687 1.561 . S
C690 C687 1.526 . S
C690 C691 1.396 1_556 S
C690 C695 1.390 . S
C691 C685 1.465 . S
C691 C690 1.396 1_554 S
C691 C692 1.399 . S
C692 H678 0.929 . S
C692 C691 1.399 . S
C692 C693 1.385 1_554 S
C693 H679 0.931 . S
C693 C692 1.385 1_556 S
C693 C694 1.389 . S
C694 C693 1.389 . S
C694 C695 1.387 . S
C695 H680 0.930 . S
C695 C690 1.390 . S
C695 C694 1.387 . S
H696 C708 0.930 . S
H697 C710 0.930 . S
H698 C711 0.930 . S
H699 C715 0.959 . S
H700 C715 0.959 . S
H701 C715 0.961 . S
H702 C716 0.960 . S
H703 C716 0.961 . S
H704 C716 0.959 . S
H705 C719 0.929 . S
H706 C720 0.931 . S
H707 C722 0.930 . S
C708 H696 0.930 . S
C708 C709 1.399 . S
C708 C713 1.399 . S
C709 C708 1.399 . S
C709 C710 1.376 . S
C710 H697 0.930 . S
C710 C709 1.376 . S
C710 C711 1.388 1_554 S
C711 H698 0.930 . S
C711 C710 1.388 1_556 S
C711 C712 1.390 . S
C712 C711 1.390 . S
C712 C713 1.394 1_556 S
C712 C718 1.465 1_565 S
C713 C708 1.399 . S
C713 C712 1.394 1_554 S
C713 C714 1.516 . S
C714 C713 1.516 . S
C714 C715 1.502 1_565 S
C714 C716 1.561 . S
C714 C717 1.526 1_564 S
C715 H699 0.959 . S
C715 H700 0.959 . S
C715 H701 0.961 . S
C715 C714 1.502 1_545 S
C716 H702 0.960 . S
C716 H703 0.961 . S
C716 H704 0.959 . S
C716 C714 1.561 . S
C717 C714 1.526 1_546 S
C717 C718 1.396 . S
C717 C722 1.390 . S
C718 C712 1.465 1_545 S
C718 C717 1.396 . S
C718 C719 1.399 . S
C719 H705 0.929 . S
C719 C718 1.399 . S
C719 C720 1.385 . S
C720 H706 0.931 . S
C720 C719 1.385 . S
C720 C721 1.389 . S
C721 C720 1.389 . S
C721 C722 1.387 . S
C722 H707 0.930 . S
C722 C717 1.390 . S
C722 C721 1.387 . S
H723 C735 0.930 . S
H724 C737 0.930 . S
H725 C738 0.930 . S
H726 C742 0.959 . S
H727 C742 0.959 . S
H728 C742 0.961 . S
H729 C743 0.960 . S
H730 C743 0.961 . S
H731 C743 0.959 . S
H732 C746 0.929 . S
H733 C747 0.931 . S
H734 C749 0.930 . S
C735 H723 0.930 . S
C735 C736 1.399 . S
C735 C740 1.399 . S
C736 C735 1.399 . S
C736 C737 1.376 . S
C737 H724 0.930 . S
C737 C736 1.376 . S
C737 C738 1.388 . S
C738 H725 0.930 . S
C738 C737 1.388 . S
C738 C739 1.390 . S
C739 C738 1.390 . S
C739 C740 1.394 . S
C739 C745 1.465 1_565 S
C740 C735 1.399 . S
C740 C739 1.394 . S
C740 C741 1.516 1_565 S
C741 C740 1.516 1_545 S
C741 C742 1.502 1_545 S
C741 C743 1.561 . S
C741 C744 1.526 . S
C742 H726 0.959 . S
C742 H727 0.959 . S
C742 H728 0.961 . S
C742 C741 1.502 1_565 S
C743 H729 0.960 . S
C743 H730 0.961 . S
C743 H731 0.959 . S
C743 C741 1.561 . S
C744 C741 1.526 . S
C744 C745 1.396 . S
C744 C749 1.390 . S
C745 C739 1.465 1_545 S
C745 C744 1.396 . S
C745 C746 1.399 . S
C746 H732 0.929 . S
C746 C745 1.399 . S
C746 C747 1.385 . S
C747 H733 0.931 . S
C747 C746 1.385 . S
C747 C748 1.389 . S
C748 C747 1.389 . S
C748 C749 1.387 . S
C749 H734 0.930 . S
C749 C744 1.390 . S
C749 C748 1.387 . S
H750 C762 0.930 . S
H751 C764 0.930 . S
H752 C765 0.930 1_455 S
H753 C769 0.959 1_455 S
H754 C769 0.959 . S
H755 C769 0.961 . S
H756 C770 0.960 . S
H757 C770 0.961 . S
H758 C770 0.959 . S
H759 C773 0.929 . S
H760 C774 0.931 . S
H761 C776 0.930 . S
C762 H750 0.930 . S
C762 C763 1.399 . S
C762 C767 1.399 . S
C763 C762 1.399 . S
C763 C764 1.376 . S
C764 H751 0.930 . S
C764 C763 1.376 . S
C764 C765 1.388 . S
C765 H752 0.930 1_655 S
C765 C764 1.388 . S
C765 C766 1.390 . S
C766 C765 1.390 . S
C766 C767 1.394 . S
C766 C772 1.465 1_655 S
C767 C762 1.399 . S
C767 C766 1.394 . S
C767 C768 1.516 . S
C768 C767 1.516 . S
C768 C769 1.502 . S
C768 C770 1.561 . S
C768 C771 1.526 1_655 S
C769 H753 0.959 1_655 S
C769 H754 0.959 . S
C769 H755 0.961 . S
C769 C768 1.502 . S
C770 H756 0.960 . S
C770 H757 0.961 . S
C770 H758 0.959 . S
C770 C768 1.561 . S
C771 C768 1.526 1_455 S
C771 C772 1.396 . S
C771 C776 1.390 . S
C772 C766 1.465 1_455 S
C772 C771 1.396 . S
C772 C773 1.399 . S
C773 H759 0.929 . S
C773 C772 1.399 . S
C773 C774 1.385 . S
C774 H760 0.931 . S
C774 C773 1.385 . S
C774 C775 1.389 . S
C775 C774 1.389 . S
C775 C776 1.387 . S
C776 H761 0.930 . S
C776 C771 1.390 . S
C776 C775 1.387 . S
H777 C789 0.930 . S
H778 C791 0.930 . S
H779 C792 0.930 . S
H780 C796 0.959 . S
H781 C796 0.959 . S
H782 C796 0.961 . S
H783 C797 0.960 . S
H784 C797 0.961 . S
H785 C797 0.959 . S
H786 C800 0.929 . S
H787 C801 0.931 . S
H788 C803 0.930 . S
C789 H777 0.930 . S
C789 C790 1.399 . S
C789 C794 1.399 . S
C790 C789 1.399 . S
C790 C791 1.376 . S
C791 H778 0.930 . S
C791 C790 1.376 . S
C791 C792 1.388 . S
C792 H779 0.930 . S
C792 C791 1.388 . S
C792 C793 1.390 . S
C793 C792 1.390 . S
C793 C794 1.394 . S
C793 C799 1.465 . S
C794 C789 1.399 . S
C794 C793 1.394 . S
C794 C795 1.516 . S
C795 C794 1.516 . S
C795 C796 1.502 . S
C795 C797 1.561 . S
C795 C798 1.526 . S
C796 H780 0.959 . S
C796 H781 0.959 . S
C796 H782 0.961 . S
C796 C795 1.502 . S
C797 H783 0.960 . S
C797 H784 0.961 . S
C797 H785 0.959 . S
C797 C795 1.561 . S
C798 C795 1.526 . S
C798 C799 1.396 . S
C798 C803 1.390 . S
C799 C793 1.465 . S
C799 C798 1.396 . S
C799 C800 1.399 . S
C800 H786 0.929 . S
C800 C799 1.399 . S
C800 C801 1.385 . S
C801 H787 0.931 . S
C801 C800 1.385 . S
C801 C802 1.389 . S
C802 C801 1.389 . S
C802 C803 1.387 . S
C803 H788 0.930 . S
C803 C798 1.390 . S
C803 C802 1.387 . S
C169 C8 0.649 . S
C181 C96 0.733 . S
C196 C21 0.643 . S
C208 C109 0.773 . S
C223 C34 0.758 . S
C235 C83 0.619 . S
C250 C148 0.764 . S
C262 C47 0.658 . S
C277 C60 0.755 . S
C289 C122 0.607 . S
C304 C135 0.760 . S
C316 C73 0.632 . S
C331 C18 0.748 . S
C343 C86 0.715 . S
C358 C99 0.647 . S
C370 C31 0.683 . S
C385 C5 0.610 . S
C397 C112 0.748 . S
C412 C125 0.758 . S
C424 C70 0.665 . S
C439 C138 0.732 . S
C451 C44 0.725 . S
C466 C57 0.744 . S
C478 C151 0.719 . S
C493 C65 1.704 . S
C505 C0 1.741 . S
C520 C13 1.712 . S
C532 C39 1.693 . S
C547 C26 1.738 . S
C559 C52 1.742 . S
C574 C78 1.715 . S
C586 C143 1.745 . S
C601 C91 1.744 . S
C613 C117 1.718 . S
C628 C104 1.711 . S
C640 C130 1.747 . S
C655 C10 1.539 . S
C667 C88 1.471 . S
C682 C23 1.522 . S
C694 C101 1.481 . S
C709 C36 1.471 . S
C721 C114 1.540 . S
C736 C49 1.539 . S
C748 C127 1.471 . S
C763 C140 1.540 . S
C775 C62 1.472 . S
C790 C75 1.538 . S
C802 C153 1.478 . S
