# Generated by pormake.
# Topology snk, (6)-cn, num edge types: 1
# Building blocks:
#     Node 0, Type 0, BuildingBlock: JUFBIX_clean_sbu_0, # of connection points: 6
#     Node 1, Type 0, BuildingBlock: JUFBIX_clean_sbu_0, # of connection points: 6
#     Node 2, Type 0, BuildingBlock: JUFBIX_clean_sbu_0, # of connection points: 6
#     Node 3, Type 0, BuildingBlock: JUFBIX_clean_sbu_0, # of connection points: 6
#     Node 4, Type 0, BuildingBlock: JUFBIX_clean_sbu_0, # of connection points: 6
#     Node 5, Type 0, BuildingBlock: JUFBIX_clean_sbu_0, # of connection points: 6
#     Node 6, Type 0, BuildingBlock: JUFBIX_clean_sbu_0, # of connection points: 6
#     Node 7, Type 0, BuildingBlock: JUFBIX_clean_sbu_0, # of connection points: 6
#     Edge 8, Type (0, 0), BuildingBlock: EZIPEK_clean_linker_0, # of connection points: 2
#     Edge 9, Type (0, 0), BuildingBlock: EZIPEK_clean_linker_0, # of connection points: 2
#     Edge 10, Type (0, 0), BuildingBlock: EZIPEK_clean_linker_0, # of connection points: 2
#     Edge 11, Type (0, 0), BuildingBlock: EZIPEK_clean_linker_0, # of connection points: 2
#     Edge 12, Type (0, 0), BuildingBlock: EZIPEK_clean_linker_0, # of connection points: 2
#     Edge 13, Type (0, 0), BuildingBlock: EZIPEK_clean_linker_0, # of connection points: 2
#     Edge 14, Type (0, 0), BuildingBlock: EZIPEK_clean_linker_0, # of connection points: 2
#     Edge 15, Type (0, 0), BuildingBlock: EZIPEK_clean_linker_0, # of connection points: 2
#     Edge 16, Type (0, 0), BuildingBlock: EZIPEK_clean_linker_0, # of connection points: 2
#     Edge 17, Type (0, 0), BuildingBlock: EZIPEK_clean_linker_0, # of connection points: 2
#     Edge 18, Type (0, 0), BuildingBlock: EZIPEK_clean_linker_0, # of connection points: 2
#     Edge 19, Type (0, 0), BuildingBlock: EZIPEK_clean_linker_0, # of connection points: 2
#     Edge 20, Type (0, 0), BuildingBlock: EZIPEK_clean_linker_0, # of connection points: 2
#     Edge 21, Type (0, 0), BuildingBlock: EZIPEK_clean_linker_0, # of connection points: 2
#     Edge 22, Type (0, 0), BuildingBlock: EZIPEK_clean_linker_0, # of connection points: 2
#     Edge 23, Type (0, 0), BuildingBlock: EZIPEK_clean_linker_0, # of connection points: 2
#     Edge 24, Type (0, 0), BuildingBlock: EZIPEK_clean_linker_0, # of connection points: 2
#     Edge 25, Type (0, 0), BuildingBlock: EZIPEK_clean_linker_0, # of connection points: 2
#     Edge 26, Type (0, 0), BuildingBlock: EZIPEK_clean_linker_0, # of connection points: 2
#     Edge 27, Type (0, 0), BuildingBlock: EZIPEK_clean_linker_0, # of connection points: 2
#     Edge 28, Type (0, 0), BuildingBlock: EZIPEK_clean_linker_0, # of connection points: 2
#     Edge 29, Type (0, 0), BuildingBlock: EZIPEK_clean_linker_0, # of connection points: 2
#     Edge 30, Type (0, 0), BuildingBlock: EZIPEK_clean_linker_0, # of connection points: 2
#     Edge 31, Type (0, 0), BuildingBlock: EZIPEK_clean_linker_0, # of connection points: 2
# Relax obj value: 0.204
# Max RMSD: 0.117
# Mean RMSD: 0.081
data_MOF--net-snk--node1-JUFBIX_clean_sbu_0--edge1-EZIPEK_clean_linker_0
_symmetry_space_group_name_H-M    P1
_symmetry_Int_Tables_number       1
_symmetry_cell_setting            triclinic
loop_
_symmetry_equiv_pos_as_xyz
'x, y, z'
_cell_length_a     35.803047
_cell_length_b     36.332182
_cell_length_c     10.955073
_cell_angle_alpha  101.35674
_cell_angle_beta   101.60281
_cell_angle_gamma 93.890033
loop_
_atom_site_label
_atom_site_type_symbol
_atom_site_fract_x
_atom_site_fract_y
_atom_site_fract_z
_atom_type_partial_charge
Co0 Co 1.00583 1.00508 0.4441 0.0
C1 C 0.9988 0.08373 0.46748 0.0
Co2 Co 0.05972 0.04172 0.51808 0.0
C3 C 0.93657 0.96247 0.44263 0.0
C4 C 0.93207 0.98725 0.28033 0.0
N5 N 0.95795 0.97749 0.37357 0.0
N6 N 0.89926 0.96737 0.40844 0.0
C7 C 0.89594 0.98181 0.3035 0.0
H8 H 0.94863 0.95548 0.53248 0.0
H9 H 0.93937 1.00418 0.21576 0.0
C10 C 0.06862 0.96408 0.49402 0.0
N11 N 0.10599 0.06959 0.58464 0.0
C12 C 0.12067 0.0959 0.53268 0.0
C13 C 0.13552 0.06263 0.67236 0.0
N14 N 0.15855 0.10408 0.57824 0.0
C15 C 0.1684 0.08372 0.66731 0.0
C16 C 1.02491 1.02568 0.71162 0.0
O17 O 1.03202 0.95907 0.45543 0.0
O18 O 0.08521 0.99747 0.52242 0.0
O19 O 0.05375 0.04304 0.68817 0.0
O20 O 0.99867 1.00846 0.61734 0.0
O21 O 1.03476 0.08735 0.51298 0.0
H22 H 0.13405 0.04086 0.72641 0.0
H23 H 0.10486 0.10563 0.45222 0.0
O24 O 0.98098 0.05068 0.43468 0.0
O25 O 1.01285 1.00243 0.27615 0.0
O26 O 0.06605 0.03968 0.34432 0.0
C27 C 1.04108 1.01999 0.25061 0.0
H28 H 0.87075 0.99339 0.26032 0.0
H29 H 0.19746 0.08141 0.71476 0.0
Co30 Co 0.31782 0.76691 0.73265 0.0
C31 C 0.23691 0.72971 0.66863 0.0
Co32 Co 0.27437 0.80817 0.72573 0.0
C33 C 0.3825 0.72412 0.82482 0.0
C34 C 0.35264 0.70201 0.63145 0.0
N35 N 0.35333 0.7303 0.7327 0.0
N36 N 0.39977 0.69328 0.78356 0.0
C37 C 0.38098 0.6795 0.66209 0.0
H38 H 0.39046 0.74135 0.92061 0.0
H39 H 0.33221 0.69745 0.54113 0.0
C40 C 0.35578 0.84524 0.79262 0.0
N41 N 0.23864 0.84445 0.72169 0.0
C42 C 0.20483 0.84512 0.63886 0.0
C43 C 0.2442 0.87833 0.80343 0.0
N44 N 0.18963 0.87832 0.66572 0.0
C45 C 0.21445 0.89899 0.76959 0.0
C46 C 0.29723 0.7897 0.96521 0.0
O47 O 0.36187 0.81027 0.78384 0.0
O48 O 0.31994 0.85088 0.77138 0.0
O49 O 0.27647 0.81033 0.90459 0.0
O50 O 0.31814 0.76843 0.90836 0.0
O51 O 0.2305 0.7647 0.68157 0.0
H52 H 0.26865 0.88765 0.88243 0.0
H53 H 0.19182 0.82195 0.5599 0.0
O54 O 0.27268 0.7242 0.68228 0.0
O55 O 0.31676 0.76639 0.55474 0.0
O56 O 0.27264 0.80553 0.54875 0.0
C57 C 0.29468 0.7857 0.49288 0.0
H58 H 0.38684 0.65433 0.60079 0.0
H59 H 0.21111 0.92718 0.81804 0.0
Co60 Co 0.56835 1.01513 0.98014 0.0
C61 C 0.60579 0.09493 0.04682 0.0
Co62 Co 0.52564 0.05667 0.98705 0.0
C63 C 0.63155 0.97041 0.91242 0.0
C64 C 0.6032 0.95115 0.0463 0.0
N65 N 0.60392 0.97865 0.9796 0.0
N66 N 0.64766 0.93893 0.93549 0.0
C67 C 0.62993 0.92706 0.02011 0.0
H68 H 0.63929 0.9867 0.8467 0.0
H69 H 0.58374 0.94819 0.10843 0.0
C70 C 0.48827 0.97719 0.92081 0.0
N71 N 0.48839 0.09128 0.98682 0.0
C72 C 0.48093 0.11811 0.08187 0.0
C73 C 0.45973 0.09107 0.88545 0.0
N74 N 0.44881 0.13426 0.04266 0.0
C75 C 0.43566 0.11739 0.91913 0.0
C76 C 0.54498 1.03465 0.74733 0.0
O77 O 0.52405 0.97184 0.93751 0.0
O78 O 0.48204 1.01221 0.93356 0.0
O79 O 0.52561 0.05629 0.81002 0.0
O80 O 0.56513 1.01261 0.80233 0.0
O81 O 0.57011 0.10009 0.04148 0.0
H82 H 0.45582 0.07214 0.79325 0.0
H83 H 0.49806 0.12504 0.17842 0.0
O84 O 0.61171 0.05969 0.02207 0.0
O85 O 0.57107 1.01827 0.16058 0.0
O86 O 0.52637 0.05672 0.16128 0.0
C87 C 0.54919 1.03748 0.21992 0.0
H88 H 0.63576 0.90239 0.05935 0.0
H89 H 0.40993 0.12323 0.85833 0.0
Co90 Co 0.32487 0.31051 0.31383 0.0
C91 C 0.24976 0.33263 0.30049 0.0
Co92 Co 0.27902 0.26435 0.24116 0.0
C93 C 0.35872 0.38037 0.30732 0.0
C94 C 0.39832 0.35355 0.42549 0.0
N95 N 0.36125 0.35109 0.36466 0.0
N96 N 0.39321 0.39875 0.31741 0.0
C97 C 0.41833 0.38296 0.39505 0.0
H98 H 0.33343 0.38371 0.23925 0.0
H99 H 0.41082 0.33224 0.47198 0.0
C100 C 0.35383 0.24186 0.251 0.0
N101 N 0.24283 0.22389 0.19103 0.0
C102 C 0.24479 0.19474 0.24913 0.0
C103 C 0.20634 0.22075 0.12416 0.0
N104 N 0.21039 0.17524 0.23064 0.0
C105 C 0.18599 0.1907 0.14984 0.0
C106 C 0.29846 0.2905 0.04345 0.0
O107 O 0.36412 0.27677 0.29934 0.0
O108 O 0.3182 0.23036 0.22379 0.0
O109 O 0.27475 0.2671 0.06835 0.0
O110 O 0.3219 0.31249 0.13604 0.0
O111 O 0.23985 0.29756 0.25627 0.0
H112 H 0.19431 0.24163 0.07445 0.0
H113 H 0.26935 0.19167 0.32089 0.0
O114 O 0.28534 0.34451 0.32785 0.0
O115 O 0.32857 0.30852 0.48663 0.0
O116 O 0.2826 0.26188 0.4194 0.0
C117 C 0.30549 0.28458 0.51161 0.0
H118 H 0.44925 0.38824 0.41125 0.0
H119 H 0.15509 0.18413 0.12587 0.0
Co120 Co 0.82001 0.26606 0.24266 0.0
C121 C 0.73825 0.2292 0.17248 0.0
Co122 Co 0.77712 0.30782 0.23441 0.0
C123 C 0.88336 0.22051 0.32981 0.0
C124 C 0.85033 0.19862 0.14035 0.0
N125 N 0.8543 0.22817 0.24017 0.0
N126 N 0.8971 0.1873 0.28885 0.0
C127 C 0.87633 0.17379 0.16959 0.0
H128 H 0.89354 0.23829 0.42414 0.0
H129 H 0.82899 0.19469 0.0523 0.0
C130 C 0.8586 0.34467 0.30461 0.0
N131 N 0.74207 0.34519 0.2359 0.0
C132 C 0.71532 0.35407 0.14174 0.0
C133 C 0.74174 0.37207 0.3401 0.0
N134 N 0.69862 0.3852 0.18447 0.0
C135 C 0.7152 0.39632 0.30917 0.0
C136 C 0.79969 0.28789 0.47385 0.0
O137 O 0.86475 0.30945 0.28879 0.0
O138 O 0.82279 0.35021 0.2898 0.0
O139 O 0.77772 0.3072 0.41145 0.0
O140 O 0.82199 0.26813 0.41893 0.0
O141 O 0.73252 0.26425 0.17838 0.0
H142 H 0.76046 0.37467 0.43281 0.0
H143 H 0.70881 0.33864 0.04347 0.0
O144 O 0.77412 0.22405 0.19787 0.0
O145 O 0.81751 0.26456 0.0634 0.0
O146 O 0.77725 0.30757 0.05994 0.0
C147 C 0.79753 0.28567 0.00287 0.0
H148 H 0.87941 0.14737 0.10851 0.0
H149 H 0.70913 0.42089 0.3728 0.0
Co150 Co 0.84212 0.83279 0.79109 0.0
C151 C 0.76411 0.84827 0.77885 0.0
Co152 Co 0.79876 0.78373 0.71846 0.0
C153 C 0.88407 0.90017 0.78082 0.0
C154 C 0.86834 0.90336 0.9595 0.0
N155 N 0.87397 0.87834 0.85708 0.0
N156 N 0.87919 0.93662 0.82117 0.0
C157 C 0.8704 0.93913 0.93564 0.0
H158 H 0.88749 0.88907 0.6852 0.0
H159 H 0.85578 0.89583 0.03424 0.0
C160 C 0.87648 0.7674 0.73193 0.0
N161 N 0.76651 0.73987 0.65626 0.0
C162 C 0.74267 0.72586 0.71977 0.0
C163 C 0.77307 0.70985 0.57176 0.0
N164 N 0.73716 0.68792 0.68769 0.0
C165 C 0.7556 0.67761 0.59298 0.0
C166 C 0.81644 0.81511 0.52296 0.0
O167 O 0.88535 0.80312 0.77126 0.0
O168 O 0.84143 0.75436 0.70994 0.0
O169 O 0.79679 0.78818 0.54712 0.0
O170 O 0.83689 0.83923 0.61664 0.0
O171 O 0.75566 0.81319 0.7284 0.0
H172 H 0.79383 0.71071 0.51266 0.0
H173 H 0.73503 0.74233 0.80303 0.0
O174 O 0.79928 0.8614 0.80886 0.0
O175 O 0.84608 0.82618 0.96078 0.0
O176 O 0.80084 0.77901 0.89337 0.0
C177 C 0.82327 0.80198 0.98592 0.0
H178 H 0.86041 0.96356 0.98822 0.0
H179 H 0.76006 0.64889 0.5537 0.0
Co180 Co 0.52765 0.52171 0.94644 0.0
C181 C 0.5121 0.59847 0.9663 0.0
Co182 Co 0.57788 0.56335 0.01679 0.0
C183 C 0.47085 0.46702 0.95963 0.0
C184 C 0.45123 0.4948 0.80758 0.0
N185 N 0.48282 0.49078 0.89323 0.0
N186 N 0.43281 0.4579 0.92508 0.0
C187 C 0.41996 0.47473 0.8284 0.0
H188 H 0.48864 0.46063 0.0435 0.0
H189 H 0.45024 0.51452 0.74508 0.0
C190 C 0.59302 0.48608 -0.00239 0.0
N191 N 0.62299 0.59435 0.0699 0.0
C192 C 0.63615 0.61731 0.00254 0.0
C193 C 0.65427 0.58823 0.15233 0.0
N194 N 0.67467 0.62311 0.03161 0.0
C195 C 0.68635 0.6054 0.12702 0.0
C196 C 0.55045 0.54615 0.21682 0.0
O197 O 0.55693 0.47885 0.95412 0.0
O198 O 0.6073 0.52048 0.02504 0.0
O199 O 0.57609 0.56694 0.19025 0.0
O200 O 0.52544 0.52529 0.12577 0.0
O201 O 0.54823 0.6062 0.00947 0.0
H202 H 0.65428 0.56833 0.21396 0.0
H203 H 0.61853 0.6246 0.92002 0.0
O204 O 0.49827 0.56398 0.93786 0.0
O205 O 0.52956 0.51804 0.77305 0.0
O206 O 0.58 0.55995 0.83795 0.0
C207 C 0.55517 0.53895 0.74679 0.0
H208 H 0.39008 0.47573 0.78633 0.0
H209 H 0.71583 0.6016 0.16506 0.0
Co210 Co 0.07006 0.51739 0.4986 0.0
C211 C 0.1055 0.59796 0.56022 0.0
Co212 Co 1.02678 0.55863 0.50116 0.0
C213 C 0.11737 0.4558 0.41898 0.0
C214 C 0.1382 0.48853 0.60885 0.0
N215 N 0.10902 0.48456 0.50592 0.0
N216 N 0.15044 0.44202 0.46511 0.0
C217 C 0.16336 0.46253 0.58442 0.0
H218 H 0.10008 0.44565 0.32342 0.0
H219 H 0.14158 0.50974 0.69592 0.0
C220 C 0.99115 0.47757 0.4368 0.0
N221 N 0.98903 0.59266 0.49992 0.0
C222 C 0.98927 0.62731 0.5754 0.0
C223 C 0.95346 0.58541 0.42462 0.0
N224 N 0.95503 0.64147 0.55076 0.0
C225 C 0.93266 0.61504 0.45565 0.0
C226 C 1.04703 0.53596 0.26371 0.0
O227 O 1.02706 0.47249 0.44949 0.0
O228 O 0.98457 0.51262 0.45423 0.0
O229 O 1.02565 0.55626 0.32235 0.0
O230 O 0.0688 0.51582 0.32261 0.0
O231 O 0.06971 0.6031 0.54775 0.0
H232 H 0.94308 0.55997 0.3521 0.0
H233 H 1.01383 0.6417 0.64797 0.0
O234 O 0.11213 0.56304 0.54579 0.0
O235 O 0.07044 0.51954 0.67695 0.0
O236 O 1.02828 0.56063 0.67755 0.0
C237 C 0.04954 0.54016 0.7361 0.0
H238 H 0.18961 0.45928 0.64855 0.0
H239 H 0.90324 0.61719 0.41116 0.0
C240 C 0.19163 0.1594 0.54075 0.0
C241 C 0.18268 0.12003 0.50931 0.0
C242 C 0.19749 0.11672 0.29975 0.0
C243 C 0.20037 0.15645 0.32388 0.0
N244 N 0.19905 0.21669 0.4632 0.0
N245 N 0.17776 0.05986 0.36511 0.0
C246 C 0.19764 0.17824 0.44413 0.0
C247 C 0.18666 0.09815 0.39126 0.0
N248 N 0.19309 0.17839 0.66257 0.0
N249 N 0.20522 0.09715 0.18943 0.0
H250 H 0.17137 0.04552 0.43329 0.0
H251 H 0.17537 0.04248 0.27558 0.0
H252 H 0.21211 0.11055 0.11958 0.0
H253 H 0.20698 0.06818 0.17016 0.0
H254 H 0.20242 0.20703 0.69642 0.0
H255 H 0.18808 0.16429 0.73312 0.0
H256 H 0.19423 0.23393 0.54506 0.0
H257 H 0.2023 0.23151 0.39314 0.0
C258 C 0.11601 0.91802 0.43796 0.0
C259 C 0.09285 0.93312 0.5229 0.0
C260 C 0.12645 0.89979 0.68076 0.0
C261 C 0.15367 0.89032 0.60582 0.0
N262 N 0.17586 0.89219 0.41395 0.0
N263 N 0.08225 0.94397 0.73683 0.0
C264 C 0.14849 0.89932 0.48332 0.0
C265 C 0.09935 0.92499 0.64686 0.0
N266 N 0.1073 0.92225 0.31468 0.0
N267 N 0.12716 0.88513 0.78657 0.0
H268 H 0.06456 0.96454 0.7179 0.0
H269 H 0.08885 0.94231 0.83253 0.0
H270 H 0.14667 0.86641 0.81229 0.0
H271 H 0.10611 0.88836 0.83996 0.0
H272 H 0.1208 0.90937 0.24438 0.0
H273 H 0.08417 0.93619 0.28052 0.0
H274 H 0.17625 0.90162 0.33039 0.0
H275 H 0.19971 0.87876 0.44468 0.0
C276 C 0.39176 0.91265 0.9236 0.0
C277 C 0.39001 0.87916 0.82584 0.0
C278 C 0.45279 0.90924 0.79223 0.0
C279 C 0.45439 0.94295 0.88906 0.0
N280 N 0.42202 0.97569 0.04304 0.0
N281 N 0.42413 0.84529 0.67923 0.0
C282 C 0.42269 0.94411 0.95251 0.0
C283 C 0.42217 0.87765 0.76458 0.0
N284 N 0.36522 0.91324 -0.00227 0.0
N285 N 0.47943 0.90819 0.71845 0.0
H286 H 0.40174 0.82357 0.64548 0.0
H287 H 0.44872 0.83877 0.6464 0.0
H288 H 0.50208 0.92926 0.73431 0.0
H289 H 0.47766 0.88813 0.63483 0.0
H290 H 0.36616 0.93367 0.07968 0.0
H291 H 0.34353 0.89128 0.98404 0.0
H292 H 0.39806 0.98236 0.07937 0.0
H293 H 0.44537 0.99633 0.07985 0.0
C294 C 0.43213 0.19961 0.08942 0.0
C295 C 0.43042 0.16287 0.11406 0.0
C296 C 0.38414 0.18027 0.24868 0.0
C297 C 0.3822 0.21559 0.21103 0.0
N298 N 0.3996 0.25515 0.07297 0.0
N299 N 0.40226 0.11636 0.20649 0.0
C300 C 0.40533 0.22452 0.12659 0.0
C301 C 0.40592 0.15279 0.19179 0.0
N302 N 0.45948 0.2105 0.02906 0.0
N303 N 0.36578 0.17327 0.34084 0.0
H304 H 0.4183 0.09601 0.16782 0.0
H305 H 0.38171 0.10571 0.24939 0.0
H306 H 0.34991 0.19275 0.38429 0.0
H307 H 0.36897 0.14982 0.38184 0.0
H308 H 0.46501 0.23812 0.01883 0.0
H309 H 0.47908 0.1925 0.00022 0.0
H310 H 0.41253 0.26069 0.00044 0.0
H311 H 0.37878 0.27285 0.09047 0.0
C312 C 0.89382 1.00185 0.61718 0.0
C313 C 0.87679 0.97523 0.50296 0.0
C314 C 0.83941 0.94403 0.62104 0.0
C315 C 0.86767 0.96022 0.73295 0.0
N316 N 0.91735 1.00968 0.84564 0.0
N317 N 0.82808 0.92488 0.39039 0.0
C318 C 0.89255 0.99195 0.73483 0.0
C319 C 0.84666 0.94834 0.50228 0.0
N320 N 0.91405 1.03421 0.61099 0.0
N321 N 0.80804 0.92227 0.62997 0.0
H322 H 0.83379 0.92824 0.30318 0.0
H323 H 0.80839 0.90185 0.38523 0.0
H324 H 0.80311 0.9201 0.71908 0.0
H325 H 0.78586 0.91009 0.55208 0.0
H326 H 0.92598 0.05531 0.69128 0.0
H327 H 0.91538 0.04084 0.52335 0.0
H328 H 0.93933 1.0306 0.8506 0.0
H329 H 0.91632 1.00223 0.93228 0.0
C330 C 0.98338 0.13347 0.33659 0.0
C331 C 0.97793 0.11681 0.4398 0.0
C332 C 0.9216 0.15152 0.45624 0.0
C333 C 0.92711 0.16826 0.35358 0.0
N334 N 0.96832 0.18255 0.2178 0.0
N335 N 0.9494 0.11914 0.62119 0.0
C336 C 0.9598 0.16156 0.30116 0.0
C337 C 0.94933 0.12875 0.50691 0.0
N338 N 1.00985 0.12123 0.26837 0.0
N339 N 0.88879 0.1555 0.50058 0.0
H340 H 0.97019 0.10365 0.6617 0.0
H341 H 0.93153 0.12962 0.68087 0.0
H342 H 0.86787 0.17161 0.46516 0.0
H343 H 0.88105 0.14059 0.56541 0.0
H344 H 1.01199 0.12866 0.18277 0.0
H345 H 1.02836 0.10174 0.29351 0.0
H346 H 0.99346 0.18177 0.18377 0.0
H347 H 0.95173 0.20354 0.19244 0.0
C348 C 0.71012 0.15525 0.11321 0.0
C349 C 0.7039 0.19475 0.13871 0.0
C350 C 0.63312 0.16847 0.08006 0.0
C351 C 0.63982 0.12957 0.07918 0.0
N352 N 0.6913 0.09212 0.1395 0.0
N353 N 0.65404 0.23459 0.18014 0.0
C354 C 0.68022 0.12496 0.10905 0.0
C355 C 0.66386 0.19992 0.13214 0.0
N356 N 0.74404 0.14534 0.08578 0.0
N357 N 0.5977 0.1764 0.02559 0.0
H358 H 0.67397 0.25741 0.22981 0.0
H359 H 0.62596 0.239 0.18668 0.0
H360 H 0.5756 0.15574 0.9743 0.0
H361 H 0.59221 0.20356 0.01499 0.0
H362 H 0.74886 0.11725 0.05771 0.0
H363 H 0.76477 0.16444 0.07124 0.0
H364 H 0.72003 0.08854 0.17122 0.0
H365 H 0.67231 0.07088 0.15152 0.0
C366 C 0.74069 0.8969 0.9395 0.0
C367 C 0.73427 0.87347 0.81434 0.0
C368 C 0.67036 0.89597 0.765 0.0
C369 C 0.6782 0.92086 0.88647 0.0
N370 N 0.72359 0.95106 0.07788 0.0
N371 N 0.69562 0.85731 0.5998 0.0
C372 C 0.71442 0.92328 0.96943 0.0
C373 C 0.69977 0.87487 0.72466 0.0
N374 N 0.77034 0.89225 0.03342 0.0
N375 N 0.6343 0.89153 0.68995 0.0
H376 H 0.7168 0.84265 0.56649 0.0
H377 H 0.67294 0.86031 0.52758 0.0
H378 H 0.61267 0.90715 0.71615 0.0
H379 H 0.62519 0.87076 0.60661 0.0
H380 H 0.77368 0.90545 0.12895 0.0
H381 H 0.78912 0.87201 0.01984 0.0
H382 H 0.75096 0.95709 0.13677 0.0
H383 H 0.70465 0.9705 0.10163 0.0
C384 C 0.6868 0.61568 0.81588 0.0
C385 C 0.69719 0.63347 0.94726 0.0
C386 C 0.746 0.67506 0.90273 0.0
C387 C 0.72775 0.66486 0.77139 0.0
N388 N 0.67974 0.62545 0.60105 0.0
N389 N 0.73626 0.68154 0.11724 0.0
C390 C 0.6982 0.63465 0.72654 0.0
C391 C 0.72719 0.66325 0.99199 0.0
N392 N 0.66658 0.58066 0.77774 0.0
N393 N 0.78127 0.69553 0.94085 0.0
H394 H 0.72224 0.67403 0.18491 0.0
H395 H 0.75553 0.706 0.15115 0.0
H396 H 0.7968 0.70198 0.87528 0.0
H397 H 0.79671 0.70191 0.03525 0.0
H398 H 0.66057 0.56548 0.68353 0.0
H399 H 0.6601 0.56521 0.84308 0.0
H400 H 0.65538 0.60585 0.56671 0.0
H401 H 0.68702 0.6395 0.53339 0.0
C402 C 0.68223 0.43231 0.05062 0.0
C403 C 0.6704 0.40503 0.11539 0.0
C404 C 0.60738 0.42945 0.10011 0.0
C405 C 0.61828 0.4558 0.02878 0.0
N406 N 0.66443 0.47687 0.91652 0.0
N407 N 0.61985 0.37232 0.17901 0.0
C408 C 0.65524 0.45551 -0.00191 0.0
C409 C 0.63219 0.40184 0.13159 0.0
N410 N 0.7199 0.43717 0.04445 0.0
N411 N 0.57501 0.43264 0.14793 0.0
H412 H 0.63778 0.35227 0.20419 0.0
H413 H 0.59129 0.36576 0.18177 0.0
H414 H 0.55717 0.45368 0.13611 0.0
H415 H 0.56797 0.41697 0.21173 0.0
H416 H 0.73183 0.45954 0.01301 0.0
H417 H 0.7399 0.42004 0.07912 0.0
H418 H 0.68906 0.47494 0.87983 0.0
H419 H 0.64587 0.49421 0.87633 0.0
C420 C 0.92287 0.44126 0.3055 0.0
C421 C 0.95709 0.44324 0.40318 0.0
C422 C 0.92686 0.38104 0.43699 0.0
C423 C 0.89276 0.37894 0.33859 0.0
N424 N 0.85797 0.41291 0.19254 0.0
N425 N 0.9914 0.41027 0.55291 0.0
C426 C 0.89095 0.41085 0.27765 0.0
C427 C 0.95876 0.41159 0.46524 0.0
N428 N 0.92182 0.46721 0.23026 0.0
N429 N 0.92757 0.35531 0.51297 0.0
H430 H 1.01299 0.43275 0.58742 0.0
H431 H 0.9982 0.38629 0.5873 0.0
H432 H 0.90524 0.33408 0.50065 0.0
H433 H 0.94824 0.35689 0.59599 0.0
H434 H 0.90136 0.46528 0.14642 0.0
H435 H 0.94357 0.48909 0.24427 0.0
H436 H 0.85121 0.43731 0.16079 0.0
H437 H 0.83595 0.39087 0.15819 0.0
C438 C 0.92453 0.72081 0.78133 0.0
C439 C 0.90466 0.74063 0.69328 0.0
C440 C 0.92989 0.7017 0.52353 0.0
C441 C 0.94361 0.67772 0.60568 0.0
N442 N 0.95105 0.6626 0.81286 0.0
N443 N 0.88374 0.74477 0.47332 0.0
C444 C 0.94068 0.68706 0.73544 0.0
C445 C 0.90641 0.72988 0.5625 0.0
N446 N 0.92774 0.73415 0.90868 0.0
N447 N 0.93939 0.69738 0.40736 0.0
H448 H 0.86532 0.76439 0.4976 0.0
H449 H 0.8806 0.73509 0.37533 0.0
H450 H 0.95728 0.67747 0.3782 0.0
H451 H 0.93308 0.71606 0.347 0.0
H452 H 0.94442 0.72303 0.97906 0.0
H453 H 0.91669 0.75891 0.94308 0.0
H454 H 0.94587 0.66568 0.90432 0.0
H455 H 0.96222 0.63755 0.78192 0.0
C456 C 0.40014 0.38987 0.09485 0.0
C457 C 0.40143 0.41437 0.21486 0.0
C458 C 0.41161 0.46921 0.12596 0.0
C459 C 0.41168 0.44483 0.00782 0.0
N460 N 0.39688 0.38404 0.86792 0.0
N461 N 0.4055 0.47682 0.34376 0.0
C462 C 0.40242 0.40571 0.98836 0.0
C463 C 0.40584 0.45383 0.22947 0.0
N464 N 0.39884 0.35174 0.08503 0.0
N465 N 0.41823 0.50738 0.14285 0.0
H466 H 0.40187 0.46622 0.4231 0.0
H467 H 0.40895 0.50624 0.35818 0.0
H468 H 0.42235 0.521 0.0704 0.0
H469 H 0.42235 0.521 0.0704 0.0
H470 H 0.40069 0.33262 0.00282 0.0
H471 H 0.39913 0.33917 0.16264 0.0
H472 H 0.38688 0.35542 0.84333 0.0
H473 H 0.39908 0.39592 0.78985 0.0
C474 C 0.49458 0.65483 0.86593 0.0
C475 C 0.48574 0.62814 0.93889 0.0
C476 C 0.42046 0.64835 0.92089 0.0
C477 C 0.42996 0.67559 0.85271 0.0
N478 N 0.47754 0.71022 0.78185 0.0
N479 N 0.44195 0.60504 0.05563 0.0
C480 C 0.4677 0.68067 0.83337 0.0
C481 C 0.44918 0.62671 0.97252 0.0
N482 N 0.52701 0.65357 0.81795 0.0
N483 N 0.38328 0.64193 0.93093 0.0
H484 H 0.46163 0.58837 0.09408 0.0
H485 H 0.41775 0.60589 0.09484 0.0
H486 H 0.36207 0.65809 0.89756 0.0
H487 H 0.37292 0.61928 0.96459 0.0
H488 H 0.53266 0.66927 0.75252 0.0
H489 H 0.54669 0.63424 0.83267 0.0
H490 H 0.50552 0.71823 0.77624 0.0
H491 H 0.45802 0.72886 0.75552 0.0
C492 C 0.16875 0.69263 0.54291 0.0
C493 C 0.20302 0.69581 0.6411 0.0
C494 C 0.17362 0.63512 0.68622 0.0
C495 C 0.13924 0.63205 0.58837 0.0
N496 N 0.10401 0.66284 0.43326 0.0
N497 N 0.23786 0.66579 0.79907 0.0
C498 C 0.13703 0.6624 0.52051 0.0
C499 C 0.20513 0.66566 0.70975 0.0
N500 N 0.16752 0.71708 0.46233 0.0
N501 N 0.17512 0.6102 0.76524 0.0
H502 H 0.25906 0.68867 0.83118 0.0
H503 H 0.24511 0.64269 0.83813 0.0
H504 H 0.15352 0.58837 0.75421 0.0
H505 H 0.19592 0.61267 0.84853 0.0
H506 H 0.14678 0.71425 0.37863 0.0
H507 H 0.18938 0.73857 0.47209 0.0
H508 H 0.09701 0.6862 0.3953 0.0
H509 H 0.08229 0.64042 0.40275 0.0
C510 C 0.19575 0.35154 0.41119 0.0
C511 C 0.22053 0.35904 0.32983 0.0
C512 C 0.19557 0.42069 0.32748 0.0
C513 C 0.16995 0.41237 0.40393 0.0
N514 N 0.14004 0.36761 0.49806 0.0
N515 N 0.23785 0.39735 0.18919 0.0
C516 C 0.1682 0.37687 0.43836 0.0
C517 C 0.2186 0.39269 0.28173 0.0
N518 N 0.20019 0.32172 0.46995 0.0
N519 N 0.19891 0.45602 0.30285 0.0
H520 H 0.2539 0.37696 0.15135 0.0
H521 H 0.23497 0.41947 0.14153 0.0
H522 H 0.18174 0.47659 0.33248 0.0
H523 H 0.22013 0.46567 0.26055 0.0
H524 H 0.18597 0.31725 0.54071 0.0
H525 H 0.22075 0.30323 0.45749 0.0
H526 H 0.1344 0.34082 0.51519 0.0
H527 H 0.12 0.38601 0.51986 0.0
C528 C 1.01506 0.98895 0.88371 0.0
C529 C 1.02476 1.02363 0.84806 0.0
C530 C 0.05546 0.05147 0.07266 0.0
C531 C 1.04178 1.01897 0.11191 0.0
N532 N 1.01121 0.95474 0.05057 0.0
N533 N 1.04308 0.09075 0.91812 0.0
C534 C 1.02195 0.98734 0.01588 0.0
C535 C 1.04147 0.05568 0.9457 0.0
N536 N 1.00175 0.95666 0.79257 0.0
N537 N 0.08349 0.07756 0.15253 0.0
H538 H 1.03114 0.09537 0.82809 0.0
H539 H 0.05184 0.11546 0.9882 0.0
H540 H 0.09895 0.07335 0.23854 0.0
H541 H 0.09587 0.10033 0.1239 0.0
H542 H 0.99823 0.9299 0.8119 0.0
H543 H 0.99759 0.95512 0.69539 0.0
H544 H 0.98996 0.93395 0.99358 0.0
H545 H 1.0236 0.94853 0.13772 0.0
C546 C 0.32224 0.81289 0.33063 0.0
C547 C 0.2956 0.78645 0.35766 0.0
C548 C 0.26727 0.7654 0.12795 0.0
C549 C 0.29618 0.78932 0.10054 0.0
N550 N 0.35425 0.8323 0.1741 0.0
N551 N 0.2461 0.73395 0.28267 0.0
C552 C 0.32462 0.812 0.20155 0.0
C553 C 0.26904 0.76166 0.25631 0.0
N554 N 0.34439 0.83975 0.42824 0.0
N555 N 0.23765 0.74683 0.0315 0.0
H556 H 0.24658 0.73062 0.37539 0.0
H557 H 0.22892 0.71245 0.21291 0.0
H558 H 0.23554 0.74877 0.93676 0.0
H559 H 0.21362 0.73199 0.04617 0.0
H560 H 0.36153 0.86225 0.41465 0.0
H561 H 0.3432 0.84137 0.52336 0.0
H562 H 0.37818 0.84609 0.24267 0.0
H563 H 0.3563 0.83316 0.08102 0.0
C564 C 0.52606 1.00557 0.51174 0.0
C565 C 0.54526 1.03598 0.61198 0.0
C566 C 0.56544 0.06843 0.45438 0.0
C567 C 0.54902 1.03653 0.35548 0.0
N568 N 0.51704 0.97296 0.29016 0.0
N569 N 0.58694 0.09454 0.682 0.0
C570 C 0.53047 1.00449 0.38445 0.0
C571 C 0.56583 0.06703 0.58409 0.0
N572 N 0.50204 0.97867 0.53757 0.0
N573 N 0.58037 0.10024 0.4241 0.0
H574 H 0.58739 0.09487 0.77762 0.0
H575 H 0.60611 0.11563 0.66966 0.0
H576 H 0.58248 0.10165 0.33149 0.0
H577 H 0.58857 0.12599 0.48898 0.0
H578 H 0.48415 0.95767 0.46782 0.0
H579 H 0.49724 0.97951 0.62878 0.0
H580 H 0.50716 0.94724 0.30713 0.0
H581 H 0.51814 0.97162 0.19505 0.0
C582 C 0.30513 0.25427 0.82789 0.0
C583 C 0.3012 0.28926 0.90792 0.0
C584 C 0.29716 0.31993 0.72503 0.0
C585 C 0.30321 0.28559 0.64705 0.0
N586 N 0.31753 0.22121 0.6273 0.0
N587 N 0.29971 0.35678 0.93636 0.0
C588 C 0.308 0.25295 0.69902 0.0
C589 C 0.29938 0.32249 0.85775 0.0
N590 N 0.30697 0.22219 0.87554 0.0
N591 N 0.28678 0.34961 0.67079 0.0
H592 H 0.29776 0.35998 0.03101 0.0
H593 H 0.3045 0.38241 0.90994 0.0
H594 H 0.28374 0.34892 0.57389 0.0
H595 H 0.27731 0.37361 0.7189 0.0
H596 H 0.30328 0.19507 0.81875 0.0
H597 H 0.31126 0.22229 0.97237 0.0
H598 H 0.32619 0.1979 0.66282 0.0
H599 H 0.3195 0.21909 0.5329 0.0
C600 C 0.82288 0.31381 0.83871 0.0
C601 C 0.79864 0.28555 0.86723 0.0
C602 C 0.77696 0.25732 0.63778 0.0
C603 C 0.7987 0.2875 0.60916 0.0
N604 N 0.83881 0.34694 0.68035 0.0
N605 N 0.74968 0.23251 0.79548 0.0
C606 C 0.82056 0.31653 0.70921 0.0
C607 C 0.77491 0.25781 0.76704 0.0
N608 N 0.84931 0.33706 0.93544 0.0
N609 N 0.75875 0.22785 0.54137 0.0
H610 H 0.74819 0.23142 0.88887 0.0
H611 H 0.72852 0.21424 0.72717 0.0
H612 H 0.75839 0.2272 0.44557 0.0
H613 H 0.74608 0.20296 0.55626 0.0
H614 H 0.87042 0.35588 0.9211 0.0
H615 H 0.85241 0.33509 0.0305 0.0
H616 H 0.85172 0.37106 0.74813 0.0
H617 H 0.83871 0.3493 0.5869 0.0
C618 C 0.78345 0.80784 0.29009 0.0
C619 C 0.818 0.81538 0.38656 0.0
C620 C 0.85507 0.80877 0.2179 0.0
C621 C 0.82079 0.80382 0.12229 0.0
N622 N 0.75226 0.80718 0.07202 0.0
N623 N 0.88747 0.83007 0.43848 0.0
C624 C 0.7849 0.80536 0.15939 0.0
C625 C 0.85391 0.81856 0.34946 0.0
N626 N 0.74882 0.80357 0.32293 0.0
N627 N 0.88892 0.80161 0.1834 0.0
H628 H 0.89028 0.83254 0.53591 0.0
H629 H 0.91294 0.83882 0.41497 0.0
H630 H 0.89094 0.79324 0.08886 0.0
H631 H 0.91405 0.79988 0.24816 0.0
H632 H 0.72349 0.7919 0.25722 0.0
H633 H 0.74548 0.81029 0.41658 0.0
H634 H 0.72637 0.81325 0.09648 0.0
H635 H 0.75146 0.80665 0.97635 0.0
C636 C 0.58025 0.52214 0.54584 0.0
C637 C 0.55407 0.54073 0.61106 0.0
C638 C 0.5258 0.56331 0.41857 0.0
C639 C 0.55172 0.54445 0.35283 0.0
N640 N 0.60831 0.51174 0.35959 0.0
N641 N 0.49742 0.57336 0.60397 0.0
C642 C 0.58029 0.52549 0.4182 0.0
C643 C 0.52553 0.55968 0.54568 0.0
N644 N 0.6034 0.49922 0.60341 0.0
N645 N 0.50339 0.58701 0.36252 0.0
H646 H 0.49674 0.57234 0.69773 0.0
H647 H 0.47315 0.58327 0.55718 0.0
H648 H 0.50484 0.59196 0.27312 0.0
H649 H 0.48654 0.60475 0.4087 0.0
H650 H 0.62035 0.48149 0.55775 0.0
H651 H 0.60309 0.49538 0.69491 0.0
H652 H 0.63257 0.50173 0.40591 0.0
H653 H 0.60889 0.51274 0.26576 0.0
C654 C 0.07498 0.56449 0.9725 0.0
C655 C 1.0488 0.53922 0.87131 0.0
C656 C 1.02156 0.51154 0.02718 0.0
C657 C 1.04776 0.53683 0.12837 0.0
N658 N 0.10354 0.58286 0.19961 0.0
N659 N 0.99371 0.49237 0.79949 0.0
C660 C 0.07556 0.56215 0.10155 0.0
C661 C 1.02118 0.51365 0.89799 0.0
N662 N 0.09821 0.59175 0.94491 0.0
N663 N 0.99825 0.48439 0.05503 0.0
H664 H 0.99276 0.49306 0.70432 0.0
H665 H 0.97033 0.47586 0.81107 0.0
H666 H 0.99816 0.48197 0.14824 0.0
H667 H 0.98098 0.46256 0.98713 0.0
H668 H 0.11521 0.61371 0.01313 0.0
H669 H 0.09843 0.59418 0.85177 0.0
H670 H 0.12707 0.59903 0.18738 0.0
H671 H 0.10488 0.58177 0.29467 0.0
loop_
_geom_bond_atom_site_label_1
_geom_bond_atom_site_label_2
_geom_bond_distance
_geom_bond_site_symmetry_2
_ccdc_geom_bond_type
Co0 N5 2.057 . S
Co0 O17 2.021 1_655 S
Co0 O20 2.062 . S
Co0 O24 2.117 1_565 S
Co0 O25 2.020 . S
C1 O21 1.259 . S
C1 O24 1.258 . S
Co2 N11 2.057 . S
Co2 O18 2.117 1_545 S
Co2 O19 2.020 . S
Co2 O21 2.021 1_455 S
Co2 O26 2.062 . S
C3 N5 1.316 . S
C3 N6 1.347 . S
C3 H8 0.931 . S
C4 N5 1.375 . S
C4 C7 1.350 . S
C4 H9 0.930 . S
N5 Co0 2.057 . S
N5 C3 1.316 . S
N5 C4 1.375 . S
N6 C3 1.347 . S
N6 C7 1.373 . S
C7 C4 1.350 . S
C7 N6 1.373 . S
C7 H28 0.931 . S
H8 C3 0.931 . S
H9 C4 0.930 . S
C10 O17 1.259 . S
C10 O18 1.258 . S
N11 Co2 2.057 . S
N11 C12 1.316 . S
N11 C13 1.375 . S
C12 N11 1.316 . S
C12 N14 1.347 . S
C12 H23 0.931 . S
C13 N11 1.375 . S
C13 C15 1.350 . S
C13 H22 0.930 . S
N14 C12 1.347 . S
N14 C15 1.373 . S
C15 C13 1.350 . S
C15 N14 1.373 . S
C15 H29 0.931 . S
C16 O19 1.256 . S
C16 O20 1.255 1_445 S
O17 Co0 2.021 1_455 S
O17 C10 1.259 . S
O18 Co2 2.117 1_565 S
O18 C10 1.258 . S
O19 Co2 2.020 . S
O19 C16 1.256 . S
O20 Co0 2.062 . S
O20 C16 1.255 1_665 S
O21 C1 1.259 . S
O21 Co2 2.021 1_655 S
H22 C13 0.930 . S
H23 C12 0.931 . S
O24 Co0 2.117 1_545 S
O24 C1 1.258 . S
O25 Co0 2.020 . S
O25 C27 1.256 . S
O26 Co2 2.062 . S
O26 C27 1.255 1_445 S
C27 O25 1.256 . S
C27 O26 1.255 1_665 S
H28 C7 0.931 . S
H29 C15 0.931 . S
Co30 N35 2.057 . S
Co30 O47 2.021 . S
Co30 O50 2.062 . S
Co30 O54 2.117 . S
Co30 O55 2.020 . S
C31 O51 1.259 . S
C31 O54 1.258 . S
Co32 N41 2.057 . S
Co32 O48 2.117 . S
Co32 O49 2.020 . S
Co32 O51 2.021 . S
Co32 O56 2.062 . S
C33 N35 1.316 . S
C33 N36 1.347 . S
C33 H38 0.931 . S
C34 N35 1.375 . S
C34 C37 1.350 . S
C34 H39 0.930 . S
N35 Co30 2.057 . S
N35 C33 1.316 . S
N35 C34 1.375 . S
N36 C33 1.347 . S
N36 C37 1.373 . S
C37 C34 1.350 . S
C37 N36 1.373 . S
C37 H58 0.931 . S
H38 C33 0.931 . S
H39 C34 0.930 . S
C40 O47 1.259 . S
C40 O48 1.258 . S
N41 Co32 2.057 . S
N41 C42 1.316 . S
N41 C43 1.375 . S
C42 N41 1.316 . S
C42 N44 1.347 . S
C42 H53 0.931 . S
C43 N41 1.375 . S
C43 C45 1.350 . S
C43 H52 0.930 . S
N44 C42 1.347 . S
N44 C45 1.373 . S
C45 C43 1.350 . S
C45 N44 1.373 . S
C45 H59 0.931 . S
C46 O49 1.256 . S
C46 O50 1.255 . S
O47 Co30 2.021 . S
O47 C40 1.259 . S
O48 Co32 2.117 . S
O48 C40 1.258 . S
O49 Co32 2.020 . S
O49 C46 1.256 . S
O50 Co30 2.062 . S
O50 C46 1.255 . S
O51 C31 1.259 . S
O51 Co32 2.021 . S
H52 C43 0.930 . S
H53 C42 0.931 . S
O54 Co30 2.117 . S
O54 C31 1.258 . S
O55 Co30 2.020 . S
O55 C57 1.256 . S
O56 Co32 2.062 . S
O56 C57 1.255 . S
C57 O55 1.256 . S
C57 O56 1.255 . S
H58 C37 0.931 . S
H59 C45 0.931 . S
Co60 N65 2.057 . S
Co60 O77 2.021 . S
Co60 O80 2.062 . S
Co60 O84 2.117 1_566 S
Co60 O85 2.020 1_556 S
C61 O81 1.259 . S
C61 O84 1.258 . S
Co62 N71 2.057 . S
Co62 O78 2.117 1_544 S
Co62 O79 2.020 1_554 S
Co62 O81 2.021 . S
Co62 O86 2.062 . S
C63 N65 1.316 . S
C63 N66 1.347 . S
C63 H68 0.931 . S
C64 N65 1.375 1_554 S
C64 C67 1.350 1_554 S
C64 H69 0.930 . S
N65 Co60 2.057 . S
N65 C63 1.316 . S
N65 C64 1.375 1_556 S
N66 C63 1.347 . S
N66 C67 1.373 . S
C67 C64 1.350 1_556 S
C67 N66 1.373 . S
C67 H88 0.931 . S
H68 C63 0.931 . S
H69 C64 0.930 . S
C70 O77 1.259 . S
C70 O78 1.258 . S
N71 Co62 2.057 . S
N71 C72 1.316 . S
N71 C73 1.375 1_554 S
C72 N71 1.316 . S
C72 N74 1.347 . S
C72 H83 0.931 . S
C73 N71 1.375 1_556 S
C73 C75 1.350 1_556 S
C73 H82 0.930 . S
N74 C72 1.347 . S
N74 C75 1.373 . S
C75 C73 1.350 1_554 S
C75 N74 1.373 . S
C75 H89 0.931 . S
C76 O79 1.256 1_565 S
C76 O80 1.255 . S
O77 Co60 2.021 . S
O77 C70 1.259 . S
O78 Co62 2.117 1_566 S
O78 C70 1.258 . S
O79 Co62 2.020 1_556 S
O79 C76 1.256 1_545 S
O80 Co60 2.062 . S
O80 C76 1.255 . S
O81 C61 1.259 . S
O81 Co62 2.021 . S
H82 C73 0.930 . S
H83 C72 0.931 . S
O84 Co60 2.117 1_544 S
O84 C61 1.258 . S
O85 Co60 2.020 1_554 S
O85 C87 1.256 1_565 S
O86 Co62 2.062 . S
O86 C87 1.255 . S
C87 O85 1.256 1_545 S
C87 O86 1.255 . S
H88 C67 0.931 . S
H89 C75 0.931 . S
Co90 N95 2.057 . S
Co90 O107 2.021 . S
Co90 O110 2.062 . S
Co90 O114 2.117 . S
Co90 O115 2.020 . S
C91 O111 1.259 . S
C91 O114 1.258 . S
Co92 N101 2.057 . S
Co92 O108 2.117 . S
Co92 O109 2.020 . S
Co92 O111 2.021 . S
Co92 O116 2.062 . S
C93 N95 1.316 . S
C93 N96 1.347 . S
C93 H98 0.931 . S
C94 N95 1.375 . S
C94 C97 1.350 . S
C94 H99 0.930 . S
N95 Co90 2.057 . S
N95 C93 1.316 . S
N95 C94 1.375 . S
N96 C93 1.347 . S
N96 C97 1.373 . S
C97 C94 1.350 . S
C97 N96 1.373 . S
C97 H118 0.931 . S
H98 C93 0.931 . S
H99 C94 0.930 . S
C100 O107 1.259 . S
C100 O108 1.258 . S
N101 Co92 2.057 . S
N101 C102 1.316 . S
N101 C103 1.375 . S
C102 N101 1.316 . S
C102 N104 1.347 . S
C102 H113 0.931 . S
C103 N101 1.375 . S
C103 C105 1.350 . S
C103 H112 0.930 . S
N104 C102 1.347 . S
N104 C105 1.373 . S
C105 C103 1.350 . S
C105 N104 1.373 . S
C105 H119 0.931 . S
C106 O109 1.256 . S
C106 O110 1.255 . S
O107 Co90 2.021 . S
O107 C100 1.259 . S
O108 Co92 2.117 . S
O108 C100 1.258 . S
O109 Co92 2.020 . S
O109 C106 1.256 . S
O110 Co90 2.062 . S
O110 C106 1.255 . S
O111 C91 1.259 . S
O111 Co92 2.021 . S
H112 C103 0.930 . S
H113 C102 0.931 . S
O114 Co90 2.117 . S
O114 C91 1.258 . S
O115 Co90 2.020 . S
O115 C117 1.256 . S
O116 Co92 2.062 . S
O116 C117 1.255 . S
C117 O115 1.256 . S
C117 O116 1.255 . S
H118 C97 0.931 . S
H119 C105 0.931 . S
Co120 N125 2.057 . S
Co120 O137 2.021 . S
Co120 O140 2.062 . S
Co120 O144 2.117 . S
Co120 O145 2.020 . S
C121 O141 1.259 . S
C121 O144 1.258 . S
Co122 N131 2.057 . S
Co122 O138 2.117 . S
Co122 O139 2.020 . S
Co122 O141 2.021 . S
Co122 O146 2.062 . S
C123 N125 1.316 . S
C123 N126 1.347 . S
C123 H128 0.931 . S
C124 N125 1.375 . S
C124 C127 1.350 . S
C124 H129 0.930 . S
N125 Co120 2.057 . S
N125 C123 1.316 . S
N125 C124 1.375 . S
N126 C123 1.347 . S
N126 C127 1.373 . S
C127 C124 1.350 . S
C127 N126 1.373 . S
C127 H148 0.931 . S
H128 C123 0.931 . S
H129 C124 0.930 . S
C130 O137 1.259 . S
C130 O138 1.258 . S
N131 Co122 2.057 . S
N131 C132 1.316 . S
N131 C133 1.375 . S
C132 N131 1.316 . S
C132 N134 1.347 . S
C132 H143 0.931 . S
C133 N131 1.375 . S
C133 C135 1.350 . S
C133 H142 0.930 . S
N134 C132 1.347 . S
N134 C135 1.373 . S
C135 C133 1.350 . S
C135 N134 1.373 . S
C135 H149 0.931 . S
C136 O139 1.256 . S
C136 O140 1.255 . S
O137 Co120 2.021 . S
O137 C130 1.259 . S
O138 Co122 2.117 . S
O138 C130 1.258 . S
O139 Co122 2.020 . S
O139 C136 1.256 . S
O140 Co120 2.062 . S
O140 C136 1.255 . S
O141 C121 1.259 . S
O141 Co122 2.021 . S
H142 C133 0.930 . S
H143 C132 0.931 . S
O144 Co120 2.117 . S
O144 C121 1.258 . S
O145 Co120 2.020 . S
O145 C147 1.256 . S
O146 Co122 2.062 . S
O146 C147 1.255 . S
C147 O145 1.256 . S
C147 O146 1.255 . S
H148 C127 0.931 . S
H149 C135 0.931 . S
Co150 N155 2.057 . S
Co150 O167 2.021 . S
Co150 O170 2.062 . S
Co150 O174 2.117 . S
Co150 O175 2.020 . S
C151 O171 1.259 . S
C151 O174 1.258 . S
Co152 N161 2.057 . S
Co152 O168 2.117 . S
Co152 O169 2.020 . S
Co152 O171 2.021 . S
Co152 O176 2.062 . S
C153 N155 1.316 . S
C153 N156 1.347 . S
C153 H158 0.931 . S
C154 N155 1.375 . S
C154 C157 1.350 . S
C154 H159 0.930 . S
N155 Co150 2.057 . S
N155 C153 1.316 . S
N155 C154 1.375 . S
N156 C153 1.347 . S
N156 C157 1.373 . S
C157 C154 1.350 . S
C157 N156 1.373 . S
C157 H178 0.931 . S
H158 C153 0.931 . S
H159 C154 0.930 . S
C160 O167 1.259 . S
C160 O168 1.258 . S
N161 Co152 2.057 . S
N161 C162 1.316 . S
N161 C163 1.375 . S
C162 N161 1.316 . S
C162 N164 1.347 . S
C162 H173 0.931 . S
C163 N161 1.375 . S
C163 C165 1.350 . S
C163 H172 0.930 . S
N164 C162 1.347 . S
N164 C165 1.373 . S
C165 C163 1.350 . S
C165 N164 1.373 . S
C165 H179 0.931 . S
C166 O169 1.256 . S
C166 O170 1.255 . S
O167 Co150 2.021 . S
O167 C160 1.259 . S
O168 Co152 2.117 . S
O168 C160 1.258 . S
O169 Co152 2.020 . S
O169 C166 1.256 . S
O170 Co150 2.062 . S
O170 C166 1.255 . S
O171 C151 1.259 . S
O171 Co152 2.021 . S
H172 C163 0.930 . S
H173 C162 0.931 . S
O174 Co150 2.117 . S
O174 C151 1.258 . S
O175 Co150 2.020 . S
O175 C177 1.256 . S
O176 Co152 2.062 . S
O176 C177 1.255 . S
C177 O175 1.256 . S
C177 O176 1.255 . S
H178 C157 0.931 . S
H179 C165 0.931 . S
Co180 N185 2.057 . S
Co180 O197 2.021 1_556 S
Co180 O200 2.062 1_556 S
Co180 O204 2.117 . S
Co180 O205 2.020 . S
C181 O201 1.259 . S
C181 O204 1.258 . S
Co182 N191 2.057 . S
Co182 O198 2.117 . S
Co182 O199 2.020 . S
Co182 O201 2.021 1_554 S
Co182 O206 2.062 1_554 S
C183 N185 1.316 1_554 S
C183 N186 1.347 . S
C183 H188 0.931 . S
C184 N185 1.375 . S
C184 C187 1.350 . S
C184 H189 0.930 . S
N185 Co180 2.057 . S
N185 C183 1.316 1_556 S
N185 C184 1.375 . S
N186 C183 1.347 . S
N186 C187 1.373 1_554 S
C187 C184 1.350 . S
C187 N186 1.373 1_556 S
C187 H208 0.931 . S
H188 C183 0.931 . S
H189 C184 0.930 . S
C190 O197 1.259 . S
C190 O198 1.258 . S
N191 Co182 2.057 . S
N191 C192 1.316 1_554 S
N191 C193 1.375 . S
C192 N191 1.316 1_556 S
C192 N194 1.347 . S
C192 H203 0.931 . S
C193 N191 1.375 . S
C193 C195 1.350 . S
C193 H202 0.930 . S
N194 C192 1.347 . S
N194 C195 1.373 1_556 S
C195 C193 1.350 . S
C195 N194 1.373 1_554 S
C195 H209 0.931 . S
C196 O199 1.256 . S
C196 O200 1.255 . S
O197 Co180 2.021 1_554 S
O197 C190 1.259 . S
O198 Co182 2.117 . S
O198 C190 1.258 . S
O199 Co182 2.020 . S
O199 C196 1.256 . S
O200 Co180 2.062 1_554 S
O200 C196 1.255 . S
O201 C181 1.259 . S
O201 Co182 2.021 1_556 S
H202 C193 0.930 . S
H203 C192 0.931 . S
O204 Co180 2.117 . S
O204 C181 1.258 . S
O205 Co180 2.020 . S
O205 C207 1.256 . S
O206 Co182 2.062 1_556 S
O206 C207 1.255 . S
C207 O205 1.256 . S
C207 O206 1.255 . S
H208 C187 0.931 . S
H209 C195 0.931 . S
Co210 N215 2.057 . S
Co210 O227 2.021 1_455 S
Co210 O230 2.062 . S
Co210 O234 2.117 . S
Co210 O235 2.020 . S
C211 O231 1.259 . S
C211 O234 1.258 . S
Co212 N221 2.057 . S
Co212 O228 2.117 . S
Co212 O229 2.020 . S
Co212 O231 2.021 1_655 S
Co212 O236 2.062 . S
C213 N215 1.316 . S
C213 N216 1.347 . S
C213 H218 0.931 . S
C214 N215 1.375 . S
C214 C217 1.350 . S
C214 H219 0.930 . S
N215 Co210 2.057 . S
N215 C213 1.316 . S
N215 C214 1.375 . S
N216 C213 1.347 . S
N216 C217 1.373 . S
C217 C214 1.350 . S
C217 N216 1.373 . S
C217 H238 0.931 . S
H218 C213 0.931 . S
H219 C214 0.930 . S
C220 O227 1.259 . S
C220 O228 1.258 . S
N221 Co212 2.057 . S
N221 C222 1.316 . S
N221 C223 1.375 . S
C222 N221 1.316 . S
C222 N224 1.347 . S
C222 H233 0.931 . S
C223 N221 1.375 . S
C223 C225 1.350 . S
C223 H232 0.930 . S
N224 C222 1.347 . S
N224 C225 1.373 . S
C225 C223 1.350 . S
C225 N224 1.373 . S
C225 H239 0.931 . S
C226 O229 1.256 . S
C226 O230 1.255 1_655 S
O227 Co210 2.021 1_655 S
O227 C220 1.259 . S
O228 Co212 2.117 . S
O228 C220 1.258 . S
O229 Co212 2.020 . S
O229 C226 1.256 . S
O230 Co210 2.062 . S
O230 C226 1.255 1_455 S
O231 C211 1.259 . S
O231 Co212 2.021 1_455 S
H232 C223 0.930 . S
H233 C222 0.931 . S
O234 Co210 2.117 . S
O234 C211 1.258 . S
O235 Co210 2.020 . S
O235 C237 1.256 . S
O236 Co212 2.062 . S
O236 C237 1.255 1_655 S
C237 O235 1.256 . S
C237 O236 1.255 1_455 S
H238 C217 0.931 . S
H239 C225 0.931 . S
C240 C241 1.363 . S
C240 C246 1.379 . S
C240 N248 1.356 . S
C241 C240 1.363 . S
C241 C247 1.363 . S
C242 C243 1.363 . S
C242 C247 1.379 . S
C242 N249 1.356 . S
C243 C242 1.363 . S
C243 C246 1.363 . S
N244 C246 1.356 . S
N244 H256 0.984 . S
N244 H257 0.985 . S
N245 C247 1.356 . S
N245 H250 0.984 . S
N245 H251 0.985 . S
C246 C240 1.379 . S
C246 C243 1.363 . S
C246 N244 1.356 . S
C247 C241 1.363 . S
C247 C242 1.379 . S
C247 N245 1.356 . S
N248 C240 1.356 . S
N248 H254 0.984 . S
N248 H255 0.984 . S
N249 C242 1.356 . S
N249 H252 0.984 . S
N249 H253 0.985 . S
H250 N245 0.984 . S
H251 N245 0.985 . S
H252 N249 0.984 . S
H253 N249 0.985 . S
H254 N248 0.984 . S
H255 N248 0.984 . S
H256 N244 0.984 . S
H257 N244 0.985 . S
C258 C259 1.363 . S
C258 C264 1.379 . S
C258 N266 1.356 . S
C259 C258 1.363 . S
C259 C265 1.363 . S
C260 C261 1.363 . S
C260 C265 1.379 . S
C260 N267 1.356 . S
C261 C260 1.363 . S
C261 C264 1.363 . S
N262 C264 1.356 . S
N262 H274 0.984 . S
N262 H275 0.985 . S
N263 C265 1.356 . S
N263 H268 0.984 . S
N263 H269 0.985 . S
C264 C258 1.379 . S
C264 C261 1.363 . S
C264 N262 1.356 . S
C265 C259 1.363 . S
C265 C260 1.379 . S
C265 N263 1.356 . S
N266 C258 1.356 . S
N266 H272 0.984 . S
N266 H273 0.984 . S
N267 C260 1.356 . S
N267 H270 0.984 . S
N267 H271 0.985 . S
H268 N263 0.984 . S
H269 N263 0.985 . S
H270 N267 0.984 . S
H271 N267 0.985 . S
H272 N266 0.984 . S
H273 N266 0.984 . S
H274 N262 0.984 . S
H275 N262 0.985 . S
C276 C277 1.363 . S
C276 C282 1.379 . S
C276 N284 1.356 1_556 S
C277 C276 1.363 . S
C277 C283 1.363 . S
C278 C279 1.363 . S
C278 C283 1.379 . S
C278 N285 1.356 . S
C279 C278 1.363 . S
C279 C282 1.363 . S
N280 C282 1.356 1_554 S
N280 H292 0.984 . S
N280 H293 0.985 . S
N281 C283 1.356 . S
N281 H286 0.984 . S
N281 H287 0.985 . S
C282 C276 1.379 . S
C282 C279 1.363 . S
C282 N280 1.356 1_556 S
C283 C277 1.363 . S
C283 C278 1.379 . S
C283 N281 1.356 . S
N284 C276 1.356 1_554 S
N284 H290 0.984 . S
N284 H291 0.984 1_554 S
N285 C278 1.356 . S
N285 H288 0.984 . S
N285 H289 0.985 . S
H286 N281 0.984 . S
H287 N281 0.985 . S
H288 N285 0.984 . S
H289 N285 0.985 . S
H290 N284 0.984 . S
H291 N284 0.984 1_556 S
H292 N280 0.984 . S
H293 N280 0.985 . S
C294 C295 1.363 . S
C294 C300 1.379 . S
C294 N302 1.356 1_554 S
C295 C294 1.363 . S
C295 C301 1.363 . S
C296 C297 1.363 . S
C296 C301 1.379 . S
C296 N303 1.356 . S
C297 C296 1.363 . S
C297 C300 1.363 . S
N298 C300 1.356 . S
N298 H310 0.984 1_554 S
N298 H311 0.985 . S
N299 C301 1.356 . S
N299 H304 0.984 . S
N299 H305 0.985 . S
C300 C294 1.379 . S
C300 C297 1.363 . S
C300 N298 1.356 . S
C301 C295 1.363 . S
C301 C296 1.379 . S
C301 N299 1.356 . S
N302 C294 1.356 1_556 S
N302 H308 0.984 . S
N302 H309 0.984 . S
N303 C296 1.356 . S
N303 H306 0.984 . S
N303 H307 0.985 . S
H304 N299 0.984 . S
H305 N299 0.985 . S
H306 N303 0.984 . S
H307 N303 0.985 . S
H308 N302 0.984 . S
H309 N302 0.984 . S
H310 N298 0.984 1_556 S
H311 N298 0.985 . S
C312 C313 1.363 . S
C312 C318 1.379 . S
C312 N320 1.356 . S
C313 C312 1.363 . S
C313 C319 1.363 . S
C314 C315 1.363 . S
C314 C319 1.379 . S
C314 N321 1.356 . S
C315 C314 1.363 . S
C315 C318 1.363 . S
N316 C318 1.356 . S
N316 H328 0.984 . S
N316 H329 0.985 . S
N317 C319 1.356 . S
N317 H322 0.984 . S
N317 H323 0.985 . S
C318 C312 1.379 . S
C318 C315 1.363 . S
C318 N316 1.356 . S
C319 C313 1.363 . S
C319 C314 1.379 . S
C319 N317 1.356 . S
N320 C312 1.356 . S
N320 H326 0.984 . S
N320 H327 0.984 . S
N321 C314 1.356 . S
N321 H324 0.984 . S
N321 H325 0.985 . S
H322 N317 0.984 . S
H323 N317 0.985 . S
H324 N321 0.984 . S
H325 N321 0.985 . S
H326 N320 0.984 . S
H327 N320 0.984 . S
H328 N316 0.984 . S
H329 N316 0.985 . S
C330 C331 1.363 . S
C330 C336 1.379 . S
C330 N338 1.356 . S
C331 C330 1.363 . S
C331 C337 1.363 . S
C332 C333 1.363 . S
C332 C337 1.379 . S
C332 N339 1.356 . S
C333 C332 1.363 . S
C333 C336 1.363 . S
N334 C336 1.356 . S
N334 H346 0.984 . S
N334 H347 0.985 . S
N335 C337 1.356 . S
N335 H340 0.984 . S
N335 H341 0.985 . S
C336 C330 1.379 . S
C336 C333 1.363 . S
C336 N334 1.356 . S
C337 C331 1.363 . S
C337 C332 1.379 . S
C337 N335 1.356 . S
N338 C330 1.356 . S
N338 H344 0.984 . S
N338 H345 0.984 . S
N339 C332 1.356 . S
N339 H342 0.984 . S
N339 H343 0.985 . S
H340 N335 0.984 . S
H341 N335 0.985 . S
H342 N339 0.984 . S
H343 N339 0.985 . S
H344 N338 0.984 . S
H345 N338 0.984 . S
H346 N334 0.984 . S
H347 N334 0.985 . S
C348 C349 1.363 . S
C348 C354 1.379 . S
C348 N356 1.356 . S
C349 C348 1.363 . S
C349 C355 1.363 . S
C350 C351 1.363 . S
C350 C355 1.379 . S
C350 N357 1.356 1_554 S
C351 C350 1.363 . S
C351 C354 1.363 . S
N352 C354 1.356 . S
N352 H364 0.984 . S
N352 H365 0.985 . S
N353 C355 1.356 1_556 S
N353 H358 0.983 1_556 S
N353 H359 0.985 . S
C354 C348 1.379 . S
C354 C351 1.363 . S
C354 N352 1.356 . S
C355 C349 1.363 . S
C355 C350 1.379 . S
C355 N353 1.356 1_554 S
N356 C348 1.356 . S
N356 H362 0.984 . S
N356 H363 0.984 . S
N357 C350 1.356 1_556 S
N357 H360 0.984 . S
N357 H361 0.985 . S
H358 N353 0.983 1_554 S
H359 N353 0.985 . S
H360 N357 0.984 . S
H361 N357 0.985 . S
H362 N356 0.984 . S
H363 N356 0.984 . S
H364 N352 0.984 . S
H365 N352 0.985 . S
C366 C367 1.363 . S
C366 C372 1.379 . S
C366 N374 1.356 . S
C367 C366 1.363 . S
C367 C373 1.363 . S
C368 C369 1.363 . S
C368 C373 1.379 . S
C368 N375 1.356 . S
C369 C368 1.363 . S
C369 C372 1.363 . S
N370 C372 1.356 . S
N370 H382 0.984 . S
N370 H383 0.985 . S
N371 C373 1.356 . S
N371 H376 0.984 . S
N371 H377 0.985 . S
C372 C366 1.379 . S
C372 C369 1.363 . S
C372 N370 1.356 . S
C373 C367 1.363 . S
C373 C368 1.379 . S
C373 N371 1.356 . S
N374 C366 1.356 . S
N374 H380 0.984 . S
N374 H381 0.984 . S
N375 C368 1.356 . S
N375 H378 0.984 . S
N375 H379 0.985 . S
H376 N371 0.984 . S
H377 N371 0.985 . S
H378 N375 0.984 . S
H379 N375 0.985 . S
H380 N374 0.984 . S
H381 N374 0.984 . S
H382 N370 0.984 . S
H383 N370 0.985 . S
C384 C385 1.363 . S
C384 C390 1.379 . S
C384 N392 1.356 . S
C385 C384 1.363 . S
C385 C391 1.363 . S
C386 C387 1.363 . S
C386 C391 1.379 . S
C386 N393 1.356 . S
C387 C386 1.363 . S
C387 C390 1.363 . S
N388 C390 1.356 . S
N388 H400 0.984 . S
N388 H401 0.985 . S
N389 C391 1.356 1_554 S
N389 H394 0.984 . S
N389 H395 0.985 . S
C390 C384 1.379 . S
C390 C387 1.363 . S
C390 N388 1.356 . S
C391 C385 1.363 . S
C391 C386 1.379 . S
C391 N389 1.356 1_556 S
N392 C384 1.356 . S
N392 H398 0.984 . S
N392 H399 0.984 1_556 S
N393 C386 1.356 . S
N393 H396 0.984 . S
N393 H397 0.985 . S
H394 N389 0.984 . S
H395 N389 0.985 . S
H396 N393 0.984 . S
H397 N393 0.985 . S
H398 N392 0.984 . S
H399 N392 0.984 1_554 S
H400 N388 0.984 . S
H401 N388 0.985 . S
C402 C403 1.363 . S
C402 C408 1.379 1_554 S
C402 N410 1.356 1_554 S
C403 C402 1.363 . S
C403 C409 1.363 . S
C404 C405 1.363 . S
C404 C409 1.379 . S
C404 N411 1.356 . S
C405 C404 1.363 . S
C405 C408 1.363 1_554 S
N406 C408 1.356 . S
N406 H418 0.984 . S
N406 H419 0.985 . S
N407 C409 1.356 . S
N407 H412 0.984 . S
N407 H413 0.985 . S
C408 C402 1.379 1_556 S
C408 C405 1.363 1_556 S
C408 N406 1.356 . S
C409 C403 1.363 . S
C409 C404 1.379 . S
C409 N407 1.356 . S
N410 C402 1.356 1_556 S
N410 H416 0.984 . S
N410 H417 0.984 1_556 S
N411 C404 1.356 . S
N411 H414 0.984 . S
N411 H415 0.985 . S
H412 N407 0.984 . S
H413 N407 0.985 . S
H414 N411 0.984 . S
H415 N411 0.985 . S
H416 N410 0.984 . S
H417 N410 0.984 1_554 S
H418 N406 0.984 . S
H419 N406 0.985 . S
C420 C421 1.363 . S
C420 C426 1.379 . S
C420 N428 1.356 . S
C421 C420 1.363 . S
C421 C427 1.363 . S
C422 C423 1.363 . S
C422 C427 1.379 . S
C422 N429 1.356 . S
C423 C422 1.363 . S
C423 C426 1.363 . S
N424 C426 1.356 . S
N424 H436 0.984 . S
N424 H437 0.985 . S
N425 C427 1.356 . S
N425 H430 0.984 . S
N425 H431 0.985 . S
C426 C420 1.379 . S
C426 C423 1.363 . S
C426 N424 1.356 . S
C427 C421 1.363 . S
C427 C422 1.379 . S
C427 N425 1.356 . S
N428 C420 1.356 . S
N428 H434 0.984 . S
N428 H435 0.984 . S
N429 C422 1.356 . S
N429 H432 0.984 . S
N429 H433 0.985 . S
H430 N425 0.984 . S
H431 N425 0.985 . S
H432 N429 0.984 . S
H433 N429 0.985 . S
H434 N428 0.984 . S
H435 N428 0.984 . S
H436 N424 0.984 . S
H437 N424 0.985 . S
C438 C439 1.363 . S
C438 C444 1.379 . S
C438 N446 1.356 . S
C439 C438 1.363 . S
C439 C445 1.363 . S
C440 C441 1.363 . S
C440 C445 1.379 . S
C440 N447 1.356 . S
C441 C440 1.363 . S
C441 C444 1.363 . S
N442 C444 1.356 . S
N442 H454 0.984 . S
N442 H455 0.985 . S
N443 C445 1.356 . S
N443 H448 0.984 . S
N443 H449 0.985 . S
C444 C438 1.379 . S
C444 C441 1.363 . S
C444 N442 1.356 . S
C445 C439 1.363 . S
C445 C440 1.379 . S
C445 N443 1.356 . S
N446 C438 1.356 . S
N446 H452 0.984 . S
N446 H453 0.984 . S
N447 C440 1.356 . S
N447 H450 0.984 . S
N447 H451 0.985 . S
H448 N443 0.984 . S
H449 N443 0.985 . S
H450 N447 0.984 . S
H451 N447 0.985 . S
H452 N446 0.984 . S
H453 N446 0.984 . S
H454 N442 0.984 . S
H455 N442 0.985 . S
C456 C457 1.363 . S
C456 C462 1.379 . S
C456 N464 1.356 . S
C457 C456 1.363 . S
C457 C463 1.363 . S
C458 C459 1.363 . S
C458 C463 1.379 . S
C458 N465 1.356 . S
C459 C458 1.363 . S
C459 C462 1.363 . S
N460 C462 1.356 1_556 S
N460 H472 0.984 . S
N460 H473 0.985 . S
N461 C463 1.356 . S
N461 H466 0.984 . S
N461 H467 0.985 . S
C462 C456 1.379 . S
C462 C459 1.363 . S
C462 N460 1.356 1_554 S
C463 C457 1.363 . S
C463 C458 1.379 . S
C463 N461 1.356 . S
N464 C456 1.356 . S
N464 H470 0.984 . S
N464 H471 0.984 . S
N465 C458 1.356 . S
N465 H468 0.984 1_554 S
N465 H469 0.985 . S
H466 N461 0.984 . S
H467 N461 0.985 . S
H468 N465 0.984 1_556 S
H469 N465 0.985 . S
H470 N464 0.984 . S
H471 N464 0.984 . S
H472 N460 0.984 . S
H473 N460 0.985 . S
C474 C475 1.363 . S
C474 C480 1.379 . S
C474 N482 1.356 . S
C475 C474 1.363 . S
C475 C481 1.359 1_556 S
C476 C477 1.363 . S
C476 C481 1.377 1_556 S
C476 N483 1.356 1_556 S
C477 C476 1.363 . S
C477 C480 1.363 . S
N478 C480 1.356 . S
N478 H490 0.984 . S
N478 H491 0.985 . S
N479 C481 1.361 . S
N479 H484 0.984 . S
N479 H485 0.985 . S
C480 C474 1.379 . S
C480 C477 1.363 . S
C480 N478 1.356 . S
C481 C475 1.359 1_554 S
C481 C476 1.377 1_554 S
C481 N479 1.361 . S
N482 C474 1.356 . S
N482 H488 0.984 . S
N482 H489 0.984 . S
N483 C476 1.356 1_554 S
N483 H486 0.984 1_554 S
N483 H487 0.985 . S
H484 N479 0.984 . S
H485 N479 0.985 . S
H486 N483 0.984 1_556 S
H487 N483 0.985 . S
H488 N482 0.984 . S
H489 N482 0.984 . S
H490 N478 0.984 . S
H491 N478 0.985 . S
C492 C493 1.363 . S
C492 C498 1.379 . S
C492 N500 1.356 . S
C493 C492 1.363 . S
C493 C499 1.363 . S
C494 C495 1.363 . S
C494 C499 1.379 . S
C494 N501 1.356 . S
C495 C494 1.363 . S
C495 C498 1.363 . S
N496 C498 1.356 . S
N496 H508 0.984 . S
N496 H509 0.985 . S
N497 C499 1.356 . S
N497 H502 0.984 . S
N497 H503 0.985 . S
C498 C492 1.379 . S
C498 C495 1.363 . S
C498 N496 1.356 . S
C499 C493 1.363 . S
C499 C494 1.379 . S
C499 N497 1.356 . S
N500 C492 1.356 . S
N500 H506 0.984 . S
N500 H507 0.984 . S
N501 C494 1.356 . S
N501 H504 0.984 . S
N501 H505 0.985 . S
H502 N497 0.984 . S
H503 N497 0.985 . S
H504 N501 0.984 . S
H505 N501 0.985 . S
H506 N500 0.984 . S
H507 N500 0.984 . S
H508 N496 0.984 . S
H509 N496 0.985 . S
C510 C511 1.363 . S
C510 C516 1.379 . S
C510 N518 1.356 . S
C511 C510 1.363 . S
C511 C517 1.363 . S
C512 C513 1.363 . S
C512 C517 1.379 . S
C512 N519 1.356 . S
C513 C512 1.363 . S
C513 C516 1.363 . S
N514 C516 1.356 . S
N514 H526 0.984 . S
N514 H527 0.985 . S
N515 C517 1.356 . S
N515 H520 0.984 . S
N515 H521 0.985 . S
C516 C510 1.379 . S
C516 C513 1.363 . S
C516 N514 1.356 . S
C517 C511 1.363 . S
C517 C512 1.379 . S
C517 N515 1.356 . S
N518 C510 1.356 . S
N518 H524 0.984 . S
N518 H525 0.984 . S
N519 C512 1.356 . S
N519 H522 0.984 . S
N519 H523 0.985 . S
H520 N515 0.984 . S
H521 N515 0.985 . S
H522 N519 0.984 . S
H523 N519 0.985 . S
H524 N518 0.984 . S
H525 N518 0.984 . S
H526 N514 0.984 . S
H527 N514 0.985 . S
C528 C529 1.363 1_665 S
C528 C534 1.379 1_556 S
C528 N536 1.356 . S
C529 C528 1.363 1_445 S
C529 C535 1.363 . S
C530 C531 1.363 1_445 S
C530 C535 1.379 1_554 S
C530 N537 1.356 . S
C531 C530 1.363 1_665 S
C531 C534 1.363 . S
N532 C534 1.356 . S
N532 H544 0.984 . S
N532 H545 0.985 . S
N533 C535 1.356 . S
N533 H538 0.984 . S
N533 H539 0.985 . S
C534 C528 1.379 1_554 S
C534 C531 1.363 . S
C534 N532 1.356 . S
C535 C529 1.363 . S
C535 C530 1.379 1_556 S
C535 N533 1.356 . S
N536 C528 1.356 . S
N536 H542 0.984 . S
N536 H543 0.984 . S
N537 C530 1.356 . S
N537 H540 0.984 . S
N537 H541 0.985 . S
H538 N533 0.984 . S
H539 N533 0.985 . S
H540 N537 0.984 . S
H541 N537 0.985 . S
H542 N536 0.984 . S
H543 N536 0.984 . S
H544 N532 0.984 . S
H545 N532 0.985 . S
C546 C547 1.363 . S
C546 C552 1.379 . S
C546 N554 1.356 . S
C547 C546 1.363 . S
C547 C553 1.363 . S
C548 C549 1.363 . S
C548 C553 1.379 . S
C548 N555 1.356 . S
C549 C548 1.363 . S
C549 C552 1.363 . S
N550 C552 1.356 . S
N550 H562 0.984 . S
N550 H563 0.985 . S
N551 C553 1.356 . S
N551 H556 0.984 . S
N551 H557 0.985 . S
C552 C546 1.379 . S
C552 C549 1.363 . S
C552 N550 1.356 . S
C553 C547 1.363 . S
C553 C548 1.379 . S
C553 N551 1.356 . S
N554 C546 1.356 . S
N554 H560 0.984 . S
N554 H561 0.984 . S
N555 C548 1.356 . S
N555 H558 0.984 1_554 S
N555 H559 0.985 . S
H556 N551 0.984 . S
H557 N551 0.985 . S
H558 N555 0.984 1_556 S
H559 N555 0.985 . S
H560 N554 0.984 . S
H561 N554 0.984 . S
H562 N550 0.984 . S
H563 N550 0.985 . S
C564 C565 1.381 . S
C564 C570 1.379 . S
C564 N572 1.356 . S
C565 C564 1.381 . S
C565 C571 1.339 1_565 S
C566 C567 1.363 . S
C566 C571 1.379 . S
C566 N573 1.356 . S
C567 C566 1.363 . S
C567 C570 1.363 1_545 S
N568 C570 1.356 . S
N568 H580 0.984 . S
N568 H581 0.985 . S
N569 C571 1.356 . S
N569 H574 0.984 . S
N569 H575 0.985 . S
C570 C564 1.379 . S
C570 C567 1.363 1_565 S
C570 N568 1.356 . S
C571 C565 1.339 1_545 S
C571 C566 1.379 . S
C571 N569 1.356 . S
N572 C564 1.356 . S
N572 H578 0.984 . S
N572 H579 0.984 . S
N573 C566 1.356 . S
N573 H576 0.984 . S
N573 H577 0.985 . S
H574 N569 0.984 . S
H575 N569 0.985 . S
H576 N573 0.984 . S
H577 N573 0.985 . S
H578 N572 0.984 . S
H579 N572 0.984 . S
H580 N568 0.984 . S
H581 N568 0.985 . S
C582 C583 1.363 . S
C582 C588 1.379 . S
C582 N590 1.356 . S
C583 C582 1.363 . S
C583 C589 1.363 . S
C584 C585 1.363 . S
C584 C589 1.379 . S
C584 N591 1.356 . S
C585 C584 1.363 . S
C585 C588 1.363 . S
N586 C588 1.356 . S
N586 H598 0.984 . S
N586 H599 0.985 . S
N587 C589 1.356 . S
N587 H592 0.984 . S
N587 H593 0.985 . S
C588 C582 1.379 . S
C588 C585 1.363 . S
C588 N586 1.356 . S
C589 C583 1.363 . S
C589 C584 1.379 . S
C589 N587 1.356 . S
N590 C582 1.356 . S
N590 H596 0.984 . S
N590 H597 0.984 . S
N591 C584 1.356 . S
N591 H594 0.984 . S
N591 H595 0.985 . S
H592 N587 0.984 . S
H593 N587 0.985 . S
H594 N591 0.984 . S
H595 N591 0.985 . S
H596 N590 0.984 . S
H597 N590 0.984 . S
H598 N586 0.984 . S
H599 N586 0.985 . S
C600 C601 1.363 . S
C600 C606 1.379 . S
C600 N608 1.356 . S
C601 C600 1.363 . S
C601 C607 1.363 . S
C602 C603 1.363 . S
C602 C607 1.379 . S
C602 N609 1.356 . S
C603 C602 1.363 . S
C603 C606 1.363 . S
N604 C606 1.356 . S
N604 H616 0.984 . S
N604 H617 0.985 . S
N605 C607 1.356 . S
N605 H610 0.984 . S
N605 H611 0.985 . S
C606 C600 1.379 . S
C606 C603 1.363 . S
C606 N604 1.356 . S
C607 C601 1.363 . S
C607 C602 1.379 . S
C607 N605 1.356 . S
N608 C600 1.356 . S
N608 H614 0.984 . S
N608 H615 0.984 1_556 S
N609 C602 1.356 . S
N609 H612 0.984 . S
N609 H613 0.985 . S
H610 N605 0.984 . S
H611 N605 0.985 . S
H612 N609 0.984 . S
H613 N609 0.985 . S
H614 N608 0.984 . S
H615 N608 0.984 1_554 S
H616 N604 0.984 . S
H617 N604 0.985 . S
C618 C619 1.363 . S
C618 C624 1.379 . S
C618 N626 1.356 . S
C619 C618 1.363 . S
C619 C625 1.363 . S
C620 C621 1.363 . S
C620 C625 1.379 . S
C620 N627 1.356 . S
C621 C620 1.363 . S
C621 C624 1.363 . S
N622 C624 1.356 . S
N622 H634 0.984 . S
N622 H635 0.985 . S
N623 C625 1.356 . S
N623 H628 0.984 . S
N623 H629 0.985 . S
C624 C618 1.379 . S
C624 C621 1.363 . S
C624 N622 1.356 . S
C625 C619 1.363 . S
C625 C620 1.379 . S
C625 N623 1.356 . S
N626 C618 1.356 . S
N626 H632 0.984 . S
N626 H633 0.984 . S
N627 C620 1.356 . S
N627 H630 0.984 . S
N627 H631 0.985 . S
H628 N623 0.984 . S
H629 N623 0.985 . S
H630 N627 0.984 . S
H631 N627 0.985 . S
H632 N626 0.984 . S
H633 N626 0.984 . S
H634 N622 0.984 . S
H635 N622 0.985 . S
C636 C637 1.363 . S
C636 C642 1.379 . S
C636 N644 1.356 . S
C637 C636 1.363 . S
C637 C643 1.363 . S
C638 C639 1.363 . S
C638 C643 1.379 . S
C638 N645 1.356 . S
C639 C638 1.363 . S
C639 C642 1.363 . S
N640 C642 1.356 . S
N640 H652 0.984 . S
N640 H653 0.985 . S
N641 C643 1.356 . S
N641 H646 0.984 . S
N641 H647 0.985 . S
C642 C636 1.379 . S
C642 C639 1.363 . S
C642 N640 1.356 . S
C643 C637 1.363 . S
C643 C638 1.379 . S
C643 N641 1.356 . S
N644 C636 1.356 . S
N644 H650 0.984 . S
N644 H651 0.984 . S
N645 C638 1.356 . S
N645 H648 0.984 . S
N645 H649 0.985 . S
H646 N641 0.984 . S
H647 N641 0.985 . S
H648 N645 0.984 . S
H649 N645 0.985 . S
H650 N644 0.984 . S
H651 N644 0.984 . S
H652 N640 0.984 . S
H653 N640 0.985 . S
C654 C655 1.363 . S
C654 C660 1.379 1_556 S
C654 N662 1.356 . S
C655 C654 1.363 . S
C655 C661 1.363 1_455 S
C656 C657 1.363 . S
C656 C661 1.379 1_554 S
C656 N663 1.356 . S
C657 C656 1.363 . S
C657 C660 1.363 1_655 S
N658 C660 1.356 . S
N658 H670 0.984 . S
N658 H671 0.985 . S
N659 C661 1.356 . S
N659 H664 0.984 . S
N659 H665 0.985 . S
C660 C654 1.379 1_554 S
C660 C657 1.363 1_455 S
C660 N658 1.356 . S
C661 C655 1.363 1_655 S
C661 C656 1.379 1_556 S
C661 N659 1.356 . S
N662 C654 1.356 . S
N662 H668 0.984 . S
N662 H669 0.984 . S
N663 C656 1.356 . S
N663 H666 0.984 . S
N663 H667 0.985 . S
H664 N659 0.984 . S
H665 N659 0.985 . S
H666 N663 0.984 . S
H667 N663 0.985 . S
H668 N662 0.984 . S
H669 N662 0.984 . S
H670 N658 0.984 . S
H671 N658 0.985 . S
C241 N14 0.758 . S
C243 N104 0.753 . S
C259 C10 1.506 . S
C261 N44 1.476 . S
C277 C40 2.817 . S
C279 C70 2.820 . S
C295 N74 1.477 . S
C297 C100 1.503 . S
C313 N6 0.758 . S
C315 N156 0.762 . S
C331 C1 1.506 . S
C333 N126 1.477 . S
C349 C121 2.817 . S
C351 C61 2.815 . S
C367 C151 1.506 . S
C369 N66 1.480 . S
C385 N194 0.758 . S
C387 N164 0.758 . S
C403 N134 1.477 . S
C405 C190 1.506 . S
C421 C220 2.817 . S
C423 C130 2.820 . S
C439 C160 1.506 . S
C441 N224 1.479 . S
C457 N96 0.758 . S
C459 N186 0.757 . S
C475 C181 1.506 . S
C477 N36 1.477 . S
C493 C31 2.817 . S
C495 C211 2.814 . S
C511 C91 1.506 . S
C513 N216 1.475 . S
C529 C16 1.387 . S
C531 C27 1.387 . S
C547 C57 1.329 . S
C549 C46 1.329 1_554 S
C565 C76 1.335 . S
C567 C87 1.329 . S
C583 C106 1.387 1_556 S
C585 C117 1.387 . S
C601 C147 1.329 1_556 S
C603 C136 1.329 . S
C619 C166 1.387 . S
C621 C177 1.387 1_554 S
C637 C207 1.387 . S
C639 C196 1.387 . S
C655 C237 1.329 . S
C657 C226 1.329 . S
