# Generated by pormake.
# Topology sml, (6)-cn, num edge types: 1
# Building blocks:
#     Node 0, Type 0, BuildingBlock: PAMTUU_clean_sbu_0, # of connection points: 6
#     Node 1, Type 0, BuildingBlock: PAMTUU_clean_sbu_0, # of connection points: 6
#     Node 2, Type 0, BuildingBlock: PAMTUU_clean_sbu_0, # of connection points: 6
#     Node 3, Type 0, BuildingBlock: PAMTUU_clean_sbu_0, # of connection points: 6
#     Node 4, Type 0, BuildingBlock: PAMTUU_clean_sbu_0, # of connection points: 6
#     Node 5, Type 0, BuildingBlock: PAMTUU_clean_sbu_0, # of connection points: 6
#     Edge 6, Type (0, 0), BuildingBlock: OJICUG_clean_linker_0, # of connection points: 2
#     Edge 7, Type (0, 0), BuildingBlock: OJICUG_clean_linker_0, # of connection points: 2
#     Edge 8, Type (0, 0), BuildingBlock: OJICUG_clean_linker_0, # of connection points: 2
#     Edge 9, Type (0, 0), BuildingBlock: OJICUG_clean_linker_0, # of connection points: 2
#     Edge 10, Type (0, 0), BuildingBlock: OJICUG_clean_linker_0, # of connection points: 2
#     Edge 11, Type (0, 0), BuildingBlock: OJICUG_clean_linker_0, # of connection points: 2
#     Edge 12, Type (0, 0), BuildingBlock: OJICUG_clean_linker_0, # of connection points: 2
#     Edge 13, Type (0, 0), BuildingBlock: OJICUG_clean_linker_0, # of connection points: 2
#     Edge 14, Type (0, 0), BuildingBlock: OJICUG_clean_linker_0, # of connection points: 2
#     Edge 15, Type (0, 0), BuildingBlock: OJICUG_clean_linker_0, # of connection points: 2
#     Edge 16, Type (0, 0), BuildingBlock: OJICUG_clean_linker_0, # of connection points: 2
#     Edge 17, Type (0, 0), BuildingBlock: OJICUG_clean_linker_0, # of connection points: 2
#     Edge 18, Type (0, 0), BuildingBlock: OJICUG_clean_linker_0, # of connection points: 2
#     Edge 19, Type (0, 0), BuildingBlock: OJICUG_clean_linker_0, # of connection points: 2
#     Edge 20, Type (0, 0), BuildingBlock: OJICUG_clean_linker_0, # of connection points: 2
#     Edge 21, Type (0, 0), BuildingBlock: OJICUG_clean_linker_0, # of connection points: 2
#     Edge 22, Type (0, 0), BuildingBlock: OJICUG_clean_linker_0, # of connection points: 2
#     Edge 23, Type (0, 0), BuildingBlock: OJICUG_clean_linker_0, # of connection points: 2
# Relax obj value: 0.274
# Max RMSD: 0.281
# Mean RMSD: 0.281
data_MOF--net-sml--node1-PAMTUU_clean_sbu_0--edge1-OJICUG_clean_linker_0
_symmetry_space_group_name_H-M    P1
_symmetry_Int_Tables_number       1
_symmetry_cell_setting            triclinic
loop_
_symmetry_equiv_pos_as_xyz
'x, y, z'
_cell_length_a     23.234977
_cell_length_b     23.557232
_cell_length_c     19.832726
_cell_angle_alpha  89.898706
_cell_angle_beta   90.151386
_cell_angle_gamma 119.94704
loop_
_atom_site_label
_atom_site_type_symbol
_atom_site_fract_x
_atom_site_fract_y
_atom_site_fract_z
_atom_type_partial_charge
Tb0 Tb 0.19203 0.35774 0.11538 0.0
Tb1 Tb 0.09822 0.35994 0.9912 0.0
C2 C 0.25171 0.44536 0.98764 0.0
C3 C 0.2344 0.35246 0.28742 0.0
C4 C 0.189 0.34643 0.41997 0.0
C5 C 0.25071 0.35035 0.40796 0.0
C6 C 0.27337 0.35342 0.34185 0.0
C7 C 0.17284 0.34783 0.29954 0.0
C8 C 0.15041 0.34507 0.36487 0.0
C9 C 0.25676 0.35837 0.21744 0.0
O10 O 0.13722 0.40254 0.15389 0.0
O11 O 0.12408 0.44487 0.0551 0.0
O12 O 0.02973 0.30961 0.073 0.0
O13 O 0.09219 0.27743 0.13572 0.0
O14 O 0.08165 0.41626 0.91999 0.0
O15 O 0.01708 0.31156 0.92506 0.0
O16 O 0.11333 0.27761 0.97044 0.0
O17 O 0.20813 0.30742 1.03258 0.0
O18 O 0.25358 0.44416 0.05376 0.0
O19 O 0.19893 0.40374 0.95414 0.0
C20 C 0.12668 0.44466 0.12124 0.0
O21 O 0.22181 0.3065 0.18036 0.0
O22 O 0.26605 0.41145 0.18712 0.0
C23 C 0.03552 0.27449 0.12133 0.0
C24 C 0.0538 0.35876 0.81888 0.0
C25 C 0.09481 0.35347 0.68712 0.0
C26 C 0.03801 0.35919 0.69804 0.0
C27 C 0.01766 0.36206 0.76386 0.0
C28 C 0.10955 0.35193 0.80762 0.0
C29 C 0.12992 0.3493 0.74259 0.0
C30 C 0.03667 0.36424 0.88867 0.0
C31 C 0.16615 0.27302 0.98443 0.0
H32 H 0.28132 0.35104 0.44956 0.0
H33 H 0.32113 0.35707 0.33331 0.0
H34 H 0.14225 0.34727 0.25826 0.0
H35 H 0.10342 0.34348 0.37205 0.0
H36 H 0.01044 0.36284 0.65578 0.0
H37 H -0.02543 0.36753 0.77172 0.0
H38 H 0.13783 0.34906 0.84937 0.0
H39 H 0.17311 0.34375 0.73574 0.0
Tb40 Tb 0.76114 0.2152 0.42993 0.0
Tb41 Tb 0.65624 0.11078 0.31339 0.0
C42 C 0.74126 0.26714 0.29277 0.0
C43 C 0.7912 0.25886 0.60627 0.0
C44 C 0.7405 0.21457 0.73808 0.0
C45 C 0.80897 0.25755 0.72739 0.0
C46 C 0.83398 0.27947 0.66219 0.0
C47 C 0.72291 0.21661 0.6169 0.0
C48 C 0.69779 0.19506 0.68183 0.0
C49 C 0.81741 0.27614 0.53647 0.0
O50 O 0.66809 0.21506 0.42264 0.0
O51 O 0.59623 0.10874 0.39839 0.0
O52 O 0.66823 0.04854 0.388 0.0
O53 O 0.70157 0.12105 0.47635 0.0
O54 O 0.57266 0.08398 0.25179 0.0
O55 O 0.63014 0.03532 0.24242 0.0
O56 O 0.7551 0.14935 0.27401 0.0
O57 O 0.82471 0.19406 0.36607 0.0
O58 O 0.78313 0.27782 0.34258 0.0
O59 O 0.68559 0.21103 0.28405 0.0
C60 C 0.61081 0.16208 0.43202 0.0
O61 O 0.8305 0.23417 0.50754 0.0
O62 O 0.78513 0.29408 0.49572 0.0
C63 C 0.67938 0.06198 0.45294 0.0
C64 C 0.59754 0.06447 0.14026 0.0
C65 C 0.63585 0.10805 1.00524 0.0
C66 C 0.60919 0.1375 0.0469 0.0
C67 C 0.59058 0.11624 0.11355 0.0
C68 C 0.62093 0.03286 0.09749 0.0
C69 C 0.64008 0.0545 1.03103 0.0
C70 C 0.58677 0.04744 0.21351 0.0
C71 C 0.81377 0.17483 0.30254 0.0
H72 H 0.84334 0.27415 0.76946 0.0
H73 H 0.88682 0.31157 0.65533 0.0
H74 H 0.68905 0.19876 0.57457 0.0
H75 H 0.64509 0.16129 0.68758 0.0
H76 H 0.60521 0.17887 1.02895 0.0
H77 H 0.57266 0.14188 0.14467 0.0
H78 H 0.62637 -0.00748 0.11611 0.0
H79 H 0.65905 0.02972 1.00002 0.0
Tb80 Tb 0.51053 0.80978 0.79762 0.0
Tb81 Tb 0.50802 0.70503 0.68071 0.0
C82 C 0.41223 0.75864 0.68015 0.0
C83 C 0.50109 0.85166 0.96966 0.0
C84 C 0.48975 0.80587 0.10412 0.0
C85 C 0.48272 0.86079 0.08919 0.0
C86 C 0.48823 0.88342 1.02241 0.0
C87 C 0.50851 0.79748 0.9847 0.0
C88 C 0.50333 0.77512 0.05076 0.0
C89 C 0.50515 0.87203 0.89837 0.0
O90 O 0.44032 0.70906 0.82808 0.0
O91 O 0.47081 0.64334 0.76905 0.0
O92 O 0.5946 0.7263 0.74186 0.0
O93 O 0.57627 0.77628 0.83311 0.0
O94 O 0.44894 0.62602 0.61623 0.0
O95 O 0.55492 0.68298 0.60267 0.0
O96 O 0.54569 0.79943 0.63374 0.0
O97 O 0.58212 0.87316 0.7215 0.0
O98 O 0.45188 0.81218 0.71327 0.0
O99 O 0.41568 0.70575 0.69092 0.0
C100 C 0.44015 0.65342 0.81938 0.0
O101 O 0.56044 0.88613 0.86768 0.0
O102 O 0.45351 0.83365 0.8615 0.0
C103 C 0.60721 0.74913 0.80404 0.0
C104 C 0.48887 0.65983 0.50554 0.0
C105 C 0.48224 0.70497 0.37467 0.0
C106 C 0.49944 0.65583 0.38376 0.0
C107 C 0.50304 0.63371 0.44866 0.0
C108 C 0.47033 0.70772 0.49637 0.0
C109 C 0.46712 0.73011 0.43189 0.0
C110 C 0.49824 0.64202 0.57473 0.0
C111 C 0.58064 0.85911 0.65685 0.0
H112 H 0.472 0.88566 0.12885 0.0
H113 H 0.48203 0.92522 1.01201 0.0
H114 H 0.51793 0.77185 0.94499 0.0
H115 H 0.51059 0.73378 0.05987 0.0
H116 H 0.51195 0.63578 0.34081 0.0
H117 H 0.51806 0.59722 0.45445 0.0
H118 H 0.45961 0.72896 0.53939 0.0
H119 H 0.45292 0.76729 0.42693 0.0
Tb120 Tb 0.69713 0.5615 0.1147 0.0
Tb121 Tb 0.78964 0.55657 0.99108 0.0
C122 C 0.6359 0.47485 0.98676 0.0
C123 C 0.65714 0.56882 0.28635 0.0
C124 C 0.70379 0.57276 0.41802 0.0
C125 C 0.64149 0.56791 0.40723 0.0
C126 C 0.61809 0.56569 0.34147 0.0
C127 C 0.71962 0.57504 0.29744 0.0
C128 C 0.74283 0.57712 0.36241 0.0
C129 C 0.63383 0.56287 0.21665 0.0
O130 O 0.74965 0.51426 0.1536 0.0
O131 O 0.76186 0.47119 0.05505 0.0
O132 O 0.85813 0.60526 0.0735 0.0
O133 O 0.79777 0.64062 0.13457 0.0
O134 O 0.80452 0.49946 0.91976 0.0
O135 O 0.87133 0.60375 0.92568 0.0
O136 O 0.7774 0.64058 0.97019 0.0
O137 O 0.68295 0.61311 1.03166 0.0
O138 O 0.6339 0.47588 0.05285 0.0
O139 O 0.68921 0.51553 0.9536 0.0
C140 C 0.75905 0.47136 0.12117 0.0
O141 O 0.66906 0.61428 0.17905 0.0
O142 O 0.62308 0.50922 0.18667 0.0
C143 C 0.85358 0.64156 0.12115 0.0
C144 C 0.83518 0.55783 0.81885 0.0
C145 C 0.79968 0.56924 0.68593 0.0
C146 C 0.85769 0.56596 0.69884 0.0
C147 C 0.8754 0.5603 0.76516 0.0
C148 C 0.77787 0.56153 0.80577 0.0
C149 C 0.7601 0.5669 0.74026 0.0
C150 C 0.85077 0.55113 0.88906 0.0
C151 C 0.72557 0.64685 0.98386 0.0
H152 H 0.61038 0.56422 0.4495 0.0
H153 H 0.56956 0.56059 0.33372 0.0
H154 H 0.75035 0.57751 0.25558 0.0
H155 H 0.79144 0.58206 0.36908 0.0
H156 H 0.88936 0.56805 0.65783 0.0
H157 H 0.91998 0.55769 0.77442 0.0
H158 H 0.74629 0.55981 0.84637 0.0
H159 H 0.71449 0.56793 0.73224 0.0
Tb160 Tb 0.12862 0.70055 0.43105 0.0
Tb161 Tb 0.23342 0.80547 0.31467 0.0
C162 C 0.14769 0.6492 0.29387 0.0
C163 C 0.10088 0.65471 0.6063 0.0
C164 C 0.15138 0.69892 0.73805 0.0
C165 C 0.08512 0.64838 0.72796 0.0
C166 C 0.06013 0.62662 0.66272 0.0
C167 C 0.16725 0.70388 0.61629 0.0
C168 C 0.19228 0.72567 0.68115 0.0
C169 C 0.07417 0.63717 0.53683 0.0
O170 O 0.22283 0.70323 0.42373 0.0
O171 O 0.29362 0.80973 0.40068 0.0
O172 O 0.22456 0.86922 0.38916 0.0
O173 O 0.18373 0.79575 0.47726 0.0
O174 O 0.315 0.82852 0.25153 0.0
O175 O 0.26162 0.88131 0.24374 0.0
O176 O 0.13393 0.77012 0.27724 0.0
O177 O 0.06294 0.71861 0.36694 0.0
O178 O 0.10563 0.6387 0.34311 0.0
O179 O 0.20403 0.70487 0.28652 0.0
C180 C 0.2791 0.75676 0.43495 0.0
O181 O 0.05881 0.67797 0.50865 0.0
O182 O 0.10792 0.62167 0.4957 0.0
C183 C 0.21016 0.8554 0.45363 0.0
C184 C 0.28561 0.84516 0.14268 0.0
C185 C 0.24741 0.80063 1.00839 0.0
C186 C 0.31101 0.85436 1.02251 0.0
C187 C 0.32988 0.87654 0.08926 0.0
C188 C 0.22331 0.79076 0.12853 0.0
C189 C 0.20433 0.76883 0.0626 0.0
C190 C 0.30246 0.86654 0.21372 0.0
C191 C 0.07464 0.74116 0.30459 0.0
H192 H 0.05235 0.62578 0.77049 0.0
H193 H 0.0088 0.58868 0.65635 0.0
H194 H 0.19944 0.72686 0.57358 0.0
H195 H 0.2431 0.76513 0.68635 0.0
H196 H 0.34558 0.87989 0.98197 0.0
H197 H 0.37868 0.91799 0.09914 0.0
H198 H 0.18918 0.7647 0.16894 0.0
H199 H 0.15582 0.72631 0.05425 0.0
Tb200 Tb 0.38272 0.1121 0.79537 0.0
Tb201 Tb 0.38113 0.21487 0.67804 0.0
C202 C 0.47791 0.16251 0.67568 0.0
C203 C 0.39888 0.07411 0.96748 0.0
C204 C 0.41131 0.12045 0.10169 0.0
C205 C 0.42253 0.06823 0.08635 0.0
C206 C 0.41687 0.04561 1.01961 0.0
C207 C 0.38786 0.12596 0.98289 0.0
C208 C 0.39374 0.14872 0.04883 0.0
C209 C 0.39316 0.05279 0.8964 0.0
O210 O 0.45236 0.21344 0.82387 0.0
O211 O 0.41866 0.27729 0.76585 0.0
O212 O 0.29629 0.19466 0.74128 0.0
O213 O 0.31571 0.14379 0.83151 0.0
O214 O 0.43859 0.29447 0.61363 0.0
O215 O 0.33293 0.23468 0.59912 0.0
O216 O 0.34217 0.11969 0.63237 0.0
O217 O 0.31073 0.0465 0.72062 0.0
O218 O 0.43961 0.10934 0.70993 0.0
O219 O 0.47418 0.21522 0.6863 0.0
C220 C 0.45053 0.26812 0.81582 0.0
O221 O 0.33656 0.03673 0.86715 0.0
O222 O 0.44324 0.09144 0.85807 0.0
C223 C 0.28468 0.17153 0.80344 0.0
C224 C 0.40006 0.25972 0.50273 0.0
C225 C 0.41166 0.21727 0.37221 0.0
C226 C 0.39447 0.2665 0.38056 0.0
C227 C 0.38859 0.28739 0.44524 0.0
C228 C 0.41831 0.21158 0.49442 0.0
C229 C 0.42413 0.19065 0.43018 0.0
C230 C 0.38925 0.27691 0.57156 0.0
C231 C 0.30986 0.05995 0.65606 0.0
H232 H 0.43668 0.0456 0.12567 0.0
H233 H 0.42687 0.00634 1.00868 0.0
H234 H 0.37507 0.14944 0.94349 0.0
H235 H 0.38364 0.18816 0.05837 0.0
H236 H 0.38383 0.28769 0.33714 0.0
H237 H 0.37409 0.32429 0.45034 0.0
H238 H 0.42701 0.18921 0.53791 0.0
H239 H 0.43835 0.15345 0.42604 0.0
C240 C 0.25184 0.18485 0.9193 0.0
C241 C 0.24342 0.18635 0.84902 0.0
H242 H 0.23439 0.2115 1.01691 0.0
C243 C 0.20124 0.20841 0.82449 0.0
H244 H 0.28353 0.16794 0.94052 0.0
C245 C 0.1711 0.23163 0.8693 0.0
C246 C 0.18457 0.23522 0.93891 0.0
H247 H 0.1933 0.20975 0.77081 0.0
H248 H 0.14053 0.25025 0.84901 0.0
C249 C 0.2236 0.20984 0.96352 0.0
C250 C 0.91402 0.21543 0.14237 0.0
C251 C -0.0216 0.23802 0.16679 0.0
H252 H 0.81195 0.17657 0.16558 0.0
C253 C -0.01217 0.23301 0.23626 0.0
H254 H 0.90522 0.21835 0.08911 0.0
C255 C 0.93425 0.21052 0.28112 0.0
C256 C 0.8702 0.19086 0.25677 0.0
H257 H 0.03697 0.24972 0.25644 0.0
H258 H 0.94327 0.21026 0.3347 0.0
C259 C 0.86052 0.19144 0.1866 0.0
C260 C 0.62794 0.94337 0.48615 0.0
C261 C 0.65915 0.00955 0.50426 0.0
H262 H 0.57993 0.84436 0.51992 0.0
C263 C 0.66833 0.02614 0.57351 0.0
H264 H 0.62018 0.92883 0.43363 0.0
C265 C 0.64466 -0.02223 0.62335 0.0
C266 C 0.61165 0.91155 0.60529 0.0
H267 H 0.69261 0.07676 0.58972 0.0
H268 H 0.65101 -0.00766 0.67585 0.0
C269 C 0.60474 0.89499 0.53605 0.0
C270 C 0.6869 0.70734 0.82326 0.0
C271 C 0.6498 0.73485 0.84844 0.0
H272 H 0.74277 0.66007 0.84727 0.0
C273 C 0.64713 0.74187 0.91879 0.0
H274 H 0.69037 0.70162 0.7695 0.0
C275 C 0.67526 0.71647 0.96289 0.0
C276 C 0.70861 0.68538 0.93785 0.0
H277 H 0.61974 0.7634 0.94045 0.0
H278 H 0.66861 0.71884 1.01668 0.0
C279 C 0.71693 0.68362 0.86778 0.0
C280 C 0.02767 0.71816 0.18864 0.0
C281 C 0.01859 0.7243 0.25788 0.0
H282 H -0.01706 0.68747 0.09154 0.0
C283 C -0.04448 0.70973 0.28064 0.0
H284 H 0.07527 0.7284 0.16905 0.0
C285 C 0.90231 0.68751 0.23505 0.0
C286 C 0.911 0.67737 0.1667 0.0
H287 H -0.0529 0.71431 0.33354 0.0
H288 H 0.85393 0.6754 0.254 0.0
C289 C -0.02545 0.69445 0.14385 0.0
C290 C 0.28618 0.023 0.53552 0.0
C291 C 0.27911 0.00699 0.60493 0.0
H292 H 0.27056 -0.01156 0.43346 0.0
C293 C 0.24596 0.94086 0.62355 0.0
H294 H 0.31127 0.0735 0.51888 0.0
C295 C 0.22193 0.89208 0.57411 0.0
C296 C 0.231 0.90814 0.50472 0.0
H297 H 0.23954 0.92669 0.67619 0.0
H298 H 0.19744 0.84159 0.59074 0.0
C299 C 0.26275 -0.02577 0.48608 0.0
C300 C 0.07415 0.31077 0.56906 0.0
C301 C 0.11843 0.35209 0.61845 0.0
H302 H 0.06216 0.27453 0.46832 0.0
C303 C 0.1863 0.39031 0.60289 0.0
H304 H 0.0218 0.28008 0.58021 0.0
C305 C 0.20948 0.38751 0.53891 0.0
C306 C 0.16527 0.34624 0.48928 0.0
H307 H 0.22139 0.42303 0.64007 0.0
H308 H 0.26175 0.41882 0.5279 0.0
C309 C 0.09739 0.30755 0.5052 0.0
C310 C 0.62748 0.15496 0.89299 0.0
C311 C 0.66198 0.13493 0.93649 0.0
H312 H 0.62486 0.19574 0.79693 0.0
C313 C 0.72285 0.14221 0.91439 0.0
H314 H 0.58041 0.14996 0.90816 0.0
C315 C 0.74852 0.1687 0.85075 0.0
C316 C 0.71387 0.18828 0.80695 0.0
H317 H 0.75131 0.1282 0.94676 0.0
H318 H 0.79519 0.17288 0.83546 0.0
C319 C 0.65284 0.18089 0.82897 0.0
C320 C 0.5084 0.79856 0.2949 0.0
C321 C 0.48127 0.73084 0.30606 0.0
H322 H 0.53312 0.87547 0.22295 0.0
C323 C 0.4538 0.6881 0.25099 0.0
H324 H 0.53041 0.83298 0.33612 0.0
C325 C 0.45463 0.71238 0.1863 0.0
C326 C 0.48375 0.78026 0.17448 0.0
H327 H 0.43127 0.63566 0.25793 0.0
H328 H 0.43249 0.67767 0.14536 0.0
C329 C 0.50975 0.82297 0.22994 0.0
C330 C 0.74981 0.61197 0.60182 0.0
C331 C 0.77839 0.57283 0.61636 0.0
H332 H 0.70333 0.64224 0.52772 0.0
C333 C 0.78246 0.53405 0.56506 0.0
H334 H 0.74678 0.64311 0.64011 0.0
C335 C 0.75773 0.53378 0.50084 0.0
C336 C 0.72842 0.57225 0.48665 0.0
H337 H 0.80306 0.50253 0.57496 0.0
H338 H 0.7606 0.50261 0.46247 0.0
C339 C 0.72473 0.6114 0.53767 0.0
C340 C 0.24297 0.74584 0.82624 0.0
C341 C 0.17694 0.72555 0.80708 0.0
H342 H 0.31703 0.78521 0.90443 0.0
C343 C 0.13564 0.73247 0.85409 0.0
H344 H 0.27625 0.74087 0.79175 0.0
C345 C 0.1591 0.75788 0.91843 0.0
C346 C 0.22465 0.77725 0.93802 0.0
H347 H 0.08516 0.71911 0.84094 0.0
H348 H 0.12572 0.76273 0.95289 0.0
C349 C 0.26655 0.77148 0.89085 0.0
C350 C 0.44227 0.23613 0.24895 0.0
C351 C 0.41517 0.1927 0.30364 0.0
H352 H 0.46437 0.24794 0.14346 0.0
C353 C 0.39058 0.12541 0.29203 0.0
H354 H 0.46301 0.28833 0.25612 0.0
C355 C 0.39127 0.10207 0.22714 0.0
C356 C 0.41647 0.14538 0.17209 0.0
H357 H 0.3688 0.09033 0.33273 0.0
H358 H 0.3698 0.04981 0.21975 0.0
C359 C 0.44311 0.21286 0.18424 0.0
C360 C 0.15404 0.56016 0.13825 0.0
C361 C 0.12279 0.49524 0.16103 0.0
H362 H 0.18789 0.66002 0.16356 0.0
C363 C 0.09474 0.48032 0.22591 0.0
H364 H 0.17666 0.5729 0.08874 0.0
C365 C 0.09969 0.52999 0.26821 0.0
C366 C 0.13458 0.59551 0.24695 0.0
H367 H 0.07045 0.4304 0.24454 0.0
H368 H 0.07918 0.51747 0.31859 0.0
C369 C 0.16075 0.60998 0.18125 0.0
C370 C 0.52809 0.10094 0.52324 0.0
C371 C 0.57183 0.16032 0.49116 0.0
H372 H 0.46483 0.05485 0.60841 0.0
C373 C 0.58575 0.21962 0.52153 0.0
H374 H 0.51737 0.05452 0.50146 0.0
C375 C 0.5577 0.21986 0.58319 0.0
C376 C 0.51401 0.16078 0.61555 0.0
H377 H 0.61963 0.26622 0.49832 0.0
H378 H 0.56955 0.26662 0.60498 0.0
C379 C 0.4993 0.10116 0.58511 0.0
C380 C 0.31996 0.48345 0.88314 0.0
C381 C 0.30745 0.49672 0.94891 0.0
H382 H 0.3732 0.52265 0.7909 0.0
C383 C 0.34327 0.56089 0.97377 0.0
H384 H 0.29281 0.43421 0.86285 0.0
C385 C 0.38786 0.61166 0.93198 0.0
C386 C 0.39873 0.59879 0.86538 0.0
H387 H 0.33407 0.57243 1.02405 0.0
H388 H 0.41262 0.6612 0.9513 0.0
C389 C 0.36594 0.53393 0.84203 0.0
C390 C 0.78484 0.38586 0.26928 0.0
C391 C 0.75393 0.32096 0.24631 0.0
H392 H 0.81011 0.48463 0.24718 0.0
C393 C 0.73074 0.30699 0.17941 0.0
H394 H 0.80298 0.39783 0.32062 0.0
C395 C 0.7361 0.35677 0.1369 0.0
C396 C 0.76329 0.42094 0.16126 0.0
H397 H 0.70718 0.25726 0.16038 0.0
H398 H 0.71586 0.34443 0.08633 0.0
C399 C 0.78871 0.43533 0.22735 0.0
C400 C 0.36194 0.8188 0.52619 0.0
C401 C 0.31711 0.75903 0.49539 0.0
H402 H 0.42652 0.86584 0.61048 0.0
C403 C 0.3019 0.70008 0.5276 0.0
H404 H 0.37367 0.865 0.50298 0.0
C405 C 0.33016 0.70057 0.58951 0.0
C406 C 0.37534 0.76001 0.62033 0.0
H407 H 0.26711 0.65319 0.50551 0.0
H408 H 0.31749 0.65405 0.6126 0.0
C409 C 0.39094 0.81929 0.58834 0.0
C410 C 0.54518 0.35948 0.9716 0.0
C411 C 0.58009 0.42402 0.94769 0.0
H412 H 0.47778 0.25924 0.94749 0.0
C413 C 0.56738 0.43797 0.88215 0.0
H414 H 0.55466 0.34745 1.02165 0.0
C415 C 0.5222 0.38769 0.8402 0.0
C416 C 0.49065 0.3225 0.86253 0.0
H417 H 0.59397 0.48755 0.86263 0.0
H418 H 0.51481 0.39942 0.78922 0.0
C419 C 0.50155 0.30903 0.92898 0.0
loop_
_geom_bond_atom_site_label_1
_geom_bond_atom_site_label_2
_geom_bond_distance
_geom_bond_site_symmetry_2
_ccdc_geom_bond_type
Tb0 C9 2.764 . S
Tb0 O10 2.325 . S
Tb0 O13 2.303 . S
Tb0 O17 2.322 1_554 S
Tb0 O18 2.349 . S
Tb0 O21 2.415 . S
Tb0 O22 2.399 . S
Tb1 O11 2.322 1_556 S
Tb1 O12 2.349 . S
Tb1 O14 2.415 . S
Tb1 O15 2.399 . S
Tb1 O16 2.325 . S
Tb1 O19 2.303 . S
Tb1 C30 2.764 . S
C2 O18 1.261 1_556 S
C2 O19 1.257 . S
C3 C6 1.358 . S
C3 C7 1.332 . S
C3 C9 1.504 . S
C4 C5 1.373 . S
C4 C8 1.308 . S
C5 C4 1.373 . S
C5 C6 1.429 . S
C5 H32 0.932 . S
C6 C3 1.358 . S
C6 C5 1.429 . S
C6 H33 0.930 . S
C7 C3 1.332 . S
C7 C8 1.394 . S
C7 H34 0.932 . S
C8 C4 1.308 . S
C8 C7 1.394 . S
C8 H35 0.929 . S
C9 Tb0 2.764 . S
C9 C3 1.504 . S
C9 O21 1.239 . S
C9 O22 1.263 . S
O10 Tb0 2.325 . S
O10 C20 1.236 . S
O11 Tb1 2.322 1_554 S
O11 C20 1.257 . S
O12 Tb1 2.349 . S
O12 C23 1.261 1_556 S
O13 Tb0 2.303 . S
O13 C23 1.257 . S
O14 Tb1 2.415 . S
O14 C30 1.239 . S
O15 Tb1 2.399 . S
O15 C30 1.263 . S
O16 Tb1 2.325 . S
O16 C31 1.236 . S
O17 Tb0 2.322 1_556 S
O17 C31 1.257 . S
O18 Tb0 2.349 . S
O18 C2 1.261 1_554 S
O19 Tb1 2.303 . S
O19 C2 1.257 . S
C20 O10 1.236 . S
C20 O11 1.257 . S
O21 Tb0 2.415 . S
O21 C9 1.239 . S
O22 Tb0 2.399 . S
O22 C9 1.263 . S
C23 O12 1.261 1_554 S
C23 O13 1.257 . S
C24 C27 1.358 . S
C24 C28 1.332 . S
C24 C30 1.504 . S
C25 C26 1.373 . S
C25 C29 1.308 . S
C26 C25 1.373 . S
C26 C27 1.429 . S
C26 H36 0.932 1_455 S
C27 C24 1.358 . S
C27 C26 1.429 . S
C27 H37 0.930 1_455 S
C28 C24 1.332 . S
C28 C29 1.394 . S
C28 H38 0.932 . S
C29 C25 1.308 . S
C29 C28 1.394 . S
C29 H39 0.929 . S
C30 Tb1 2.764 . S
C30 O14 1.239 . S
C30 O15 1.263 . S
C30 C24 1.504 . S
C31 O16 1.236 . S
C31 O17 1.257 . S
H32 C5 0.932 . S
H33 C6 0.930 . S
H34 C7 0.932 . S
H35 C8 0.929 . S
H36 C26 0.932 1_655 S
H37 C27 0.930 1_655 S
H38 C28 0.932 . S
H39 C29 0.929 . S
Tb40 C49 2.764 . S
Tb40 O50 2.325 . S
Tb40 O53 2.303 . S
Tb40 O57 2.322 . S
Tb40 O58 2.349 . S
Tb40 O61 2.415 . S
Tb40 O62 2.399 . S
Tb41 O51 2.322 . S
Tb41 O52 2.349 . S
Tb41 O54 2.415 . S
Tb41 O55 2.399 . S
Tb41 O56 2.325 . S
Tb41 O59 2.303 . S
Tb41 C70 2.764 . S
C42 O58 1.261 . S
C42 O59 1.257 . S
C43 C46 1.358 . S
C43 C47 1.332 . S
C43 C49 1.504 . S
C44 C45 1.373 . S
C44 C48 1.308 . S
C45 C44 1.373 . S
C45 C46 1.429 . S
C45 H72 0.932 . S
C46 C43 1.358 . S
C46 C45 1.429 . S
C46 H73 0.930 . S
C47 C43 1.332 . S
C47 C48 1.394 . S
C47 H74 0.932 . S
C48 C44 1.308 . S
C48 C47 1.394 . S
C48 H75 0.929 . S
C49 Tb40 2.764 . S
C49 C43 1.504 . S
C49 O61 1.239 . S
C49 O62 1.263 . S
O50 Tb40 2.325 . S
O50 C60 1.236 . S
O51 Tb41 2.322 . S
O51 C60 1.257 . S
O52 Tb41 2.349 . S
O52 C63 1.261 . S
O53 Tb40 2.303 . S
O53 C63 1.257 . S
O54 Tb41 2.415 . S
O54 C70 1.239 . S
O55 Tb41 2.399 . S
O55 C70 1.263 . S
O56 Tb41 2.325 . S
O56 C71 1.236 . S
O57 Tb40 2.322 . S
O57 C71 1.257 . S
O58 Tb40 2.349 . S
O58 C42 1.261 . S
O59 Tb41 2.303 . S
O59 C42 1.257 . S
C60 O50 1.236 . S
C60 O51 1.257 . S
O61 Tb40 2.415 . S
O61 C49 1.239 . S
O62 Tb40 2.399 . S
O62 C49 1.263 . S
C63 O52 1.261 . S
C63 O53 1.257 . S
C64 C67 1.358 . S
C64 C68 1.332 . S
C64 C70 1.504 . S
C65 C66 1.373 . S
C65 C69 1.308 . S
C66 C65 1.373 . S
C66 C67 1.429 1_556 S
C66 H76 0.932 1_545 S
C67 C64 1.358 . S
C67 C66 1.429 1_554 S
C67 H77 0.930 1_545 S
C68 C64 1.332 . S
C68 C69 1.394 1_554 S
C68 H78 0.932 . S
C69 C65 1.308 . S
C69 C68 1.394 1_556 S
C69 H79 0.929 . S
C70 Tb41 2.764 . S
C70 O54 1.239 . S
C70 O55 1.263 . S
C70 C64 1.504 . S
C71 O56 1.236 . S
C71 O57 1.257 . S
H72 C45 0.932 . S
H73 C46 0.930 . S
H74 C47 0.932 . S
H75 C48 0.929 . S
H76 C66 0.932 1_565 S
H77 C67 0.930 1_565 S
H78 C68 0.932 . S
H79 C69 0.929 . S
Tb80 C89 2.764 . S
Tb80 O90 2.325 . S
Tb80 O93 2.303 . S
Tb80 O97 2.322 . S
Tb80 O98 2.349 . S
Tb80 O101 2.415 . S
Tb80 O102 2.399 . S
Tb81 O91 2.322 . S
Tb81 O92 2.349 . S
Tb81 O94 2.415 . S
Tb81 O95 2.399 . S
Tb81 O96 2.325 . S
Tb81 O99 2.303 . S
Tb81 C110 2.764 . S
C82 O98 1.261 . S
C82 O99 1.257 . S
C83 C86 1.358 . S
C83 C87 1.332 . S
C83 C89 1.504 . S
C84 C85 1.373 . S
C84 C88 1.308 . S
C85 C84 1.373 . S
C85 C86 1.429 1_554 S
C85 H112 0.932 . S
C86 C83 1.358 . S
C86 C85 1.429 1_556 S
C86 H113 0.930 . S
C87 C83 1.332 . S
C87 C88 1.394 1_556 S
C87 H114 0.932 . S
C88 C84 1.308 . S
C88 C87 1.394 1_554 S
C88 H115 0.929 . S
C89 Tb80 2.764 . S
C89 C83 1.504 . S
C89 O101 1.239 . S
C89 O102 1.263 . S
O90 Tb80 2.325 . S
O90 C100 1.236 . S
O91 Tb81 2.322 . S
O91 C100 1.257 . S
O92 Tb81 2.349 . S
O92 C103 1.261 . S
O93 Tb80 2.303 . S
O93 C103 1.257 . S
O94 Tb81 2.415 . S
O94 C110 1.239 . S
O95 Tb81 2.399 . S
O95 C110 1.263 . S
O96 Tb81 2.325 . S
O96 C111 1.236 . S
O97 Tb80 2.322 . S
O97 C111 1.257 . S
O98 Tb80 2.349 . S
O98 C82 1.261 . S
O99 Tb81 2.303 . S
O99 C82 1.257 . S
C100 O90 1.236 . S
C100 O91 1.257 . S
O101 Tb80 2.415 . S
O101 C89 1.239 . S
O102 Tb80 2.399 . S
O102 C89 1.263 . S
C103 O92 1.261 . S
C103 O93 1.257 . S
C104 C107 1.358 . S
C104 C108 1.332 . S
C104 C110 1.504 . S
C105 C106 1.373 . S
C105 C109 1.308 . S
C106 C105 1.373 . S
C106 C107 1.429 . S
C106 H116 0.932 . S
C107 C104 1.358 . S
C107 C106 1.429 . S
C107 H117 0.930 . S
C108 C104 1.332 . S
C108 C109 1.394 . S
C108 H118 0.932 . S
C109 C105 1.308 . S
C109 C108 1.394 . S
C109 H119 0.929 . S
C110 Tb81 2.764 . S
C110 O94 1.239 . S
C110 O95 1.263 . S
C110 C104 1.504 . S
C111 O96 1.236 . S
C111 O97 1.257 . S
H112 C85 0.932 . S
H113 C86 0.930 . S
H114 C87 0.932 . S
H115 C88 0.929 . S
H116 C106 0.932 . S
H117 C107 0.930 . S
H118 C108 0.932 . S
H119 C109 0.929 . S
Tb120 C129 2.764 . S
Tb120 O130 2.325 . S
Tb120 O133 2.303 . S
Tb120 O137 2.322 1_554 S
Tb120 O138 2.349 . S
Tb120 O141 2.415 . S
Tb120 O142 2.399 . S
Tb121 O131 2.322 1_556 S
Tb121 O132 2.349 . S
Tb121 O134 2.415 . S
Tb121 O135 2.399 . S
Tb121 O136 2.325 . S
Tb121 O139 2.303 . S
Tb121 C150 2.764 . S
C122 O138 1.261 1_556 S
C122 O139 1.257 . S
C123 C126 1.358 . S
C123 C127 1.332 . S
C123 C129 1.504 . S
C124 C125 1.373 . S
C124 C128 1.308 . S
C125 C124 1.373 . S
C125 C126 1.429 . S
C125 H152 0.932 . S
C126 C123 1.358 . S
C126 C125 1.429 . S
C126 H153 0.930 . S
C127 C123 1.332 . S
C127 C128 1.394 . S
C127 H154 0.932 . S
C128 C124 1.308 . S
C128 C127 1.394 . S
C128 H155 0.929 . S
C129 Tb120 2.764 . S
C129 C123 1.504 . S
C129 O141 1.239 . S
C129 O142 1.263 . S
O130 Tb120 2.325 . S
O130 C140 1.236 . S
O131 Tb121 2.322 1_554 S
O131 C140 1.257 . S
O132 Tb121 2.349 . S
O132 C143 1.261 1_556 S
O133 Tb120 2.303 . S
O133 C143 1.257 . S
O134 Tb121 2.415 . S
O134 C150 1.239 . S
O135 Tb121 2.399 . S
O135 C150 1.263 . S
O136 Tb121 2.325 . S
O136 C151 1.236 . S
O137 Tb120 2.322 1_556 S
O137 C151 1.257 . S
O138 Tb120 2.349 . S
O138 C122 1.261 1_554 S
O139 Tb121 2.303 . S
O139 C122 1.257 . S
C140 O130 1.236 . S
C140 O131 1.257 . S
O141 Tb120 2.415 . S
O141 C129 1.239 . S
O142 Tb120 2.399 . S
O142 C129 1.263 . S
C143 O132 1.261 1_554 S
C143 O133 1.257 . S
C144 C147 1.358 . S
C144 C148 1.332 . S
C144 C150 1.504 . S
C145 C146 1.373 . S
C145 C149 1.308 . S
C146 C145 1.373 . S
C146 C147 1.429 . S
C146 H156 0.932 1_655 S
C147 C144 1.358 . S
C147 C146 1.429 . S
C147 H157 0.930 1_655 S
C148 C144 1.332 . S
C148 C149 1.394 . S
C148 H158 0.932 . S
C149 C145 1.308 . S
C149 C148 1.394 . S
C149 H159 0.929 . S
C150 Tb121 2.764 . S
C150 O134 1.239 . S
C150 O135 1.263 . S
C150 C144 1.504 . S
C151 O136 1.236 . S
C151 O137 1.257 . S
H152 C125 0.932 . S
H153 C126 0.930 . S
H154 C127 0.932 . S
H155 C128 0.929 . S
H156 C146 0.932 1_455 S
H157 C147 0.930 1_455 S
H158 C148 0.932 . S
H159 C149 0.929 . S
Tb160 C169 2.764 . S
Tb160 O170 2.325 . S
Tb160 O173 2.303 . S
Tb160 O177 2.322 . S
Tb160 O178 2.349 . S
Tb160 O181 2.415 . S
Tb160 O182 2.399 . S
Tb161 O171 2.322 . S
Tb161 O172 2.349 . S
Tb161 O174 2.415 . S
Tb161 O175 2.399 . S
Tb161 O176 2.325 . S
Tb161 O179 2.303 . S
Tb161 C190 2.764 . S
C162 O178 1.261 . S
C162 O179 1.257 . S
C163 C166 1.358 . S
C163 C167 1.332 . S
C163 C169 1.504 . S
C164 C165 1.373 . S
C164 C168 1.308 . S
C165 C164 1.373 . S
C165 C166 1.429 . S
C165 H192 0.932 . S
C166 C163 1.358 . S
C166 C165 1.429 . S
C166 H193 0.930 . S
C167 C163 1.332 . S
C167 C168 1.394 . S
C167 H194 0.932 . S
C168 C164 1.308 . S
C168 C167 1.394 . S
C168 H195 0.929 . S
C169 Tb160 2.764 . S
C169 C163 1.504 . S
C169 O181 1.239 . S
C169 O182 1.263 . S
O170 Tb160 2.325 . S
O170 C180 1.236 . S
O171 Tb161 2.322 . S
O171 C180 1.257 . S
O172 Tb161 2.349 . S
O172 C183 1.261 . S
O173 Tb160 2.303 . S
O173 C183 1.257 . S
O174 Tb161 2.415 . S
O174 C190 1.239 . S
O175 Tb161 2.399 . S
O175 C190 1.263 . S
O176 Tb161 2.325 . S
O176 C191 1.236 . S
O177 Tb160 2.322 . S
O177 C191 1.257 . S
O178 Tb160 2.349 . S
O178 C162 1.261 . S
O179 Tb161 2.303 . S
O179 C162 1.257 . S
C180 O170 1.236 . S
C180 O171 1.257 . S
O181 Tb160 2.415 . S
O181 C169 1.239 . S
O182 Tb160 2.399 . S
O182 C169 1.263 . S
C183 O172 1.261 . S
C183 O173 1.257 . S
C184 C187 1.358 . S
C184 C188 1.332 . S
C184 C190 1.504 . S
C185 C186 1.373 . S
C185 C189 1.308 . S
C186 C185 1.373 . S
C186 C187 1.429 1_556 S
C186 H196 0.932 1_565 S
C187 C184 1.358 . S
C187 C186 1.429 1_554 S
C187 H197 0.930 1_565 S
C188 C184 1.332 . S
C188 C189 1.394 1_554 S
C188 H198 0.932 . S
C189 C185 1.308 . S
C189 C188 1.394 1_556 S
C189 H199 0.929 . S
C190 Tb161 2.764 . S
C190 O174 1.239 . S
C190 O175 1.263 . S
C190 C184 1.504 . S
C191 O176 1.236 . S
C191 O177 1.257 . S
H192 C165 0.932 . S
H193 C166 0.930 . S
H194 C167 0.932 . S
H195 C168 0.929 . S
H196 C186 0.932 1_545 S
H197 C187 0.930 1_545 S
H198 C188 0.932 . S
H199 C189 0.929 . S
Tb200 C209 2.764 . S
Tb200 O210 2.325 . S
Tb200 O213 2.303 . S
Tb200 O217 2.322 . S
Tb200 O218 2.349 . S
Tb200 O221 2.415 . S
Tb200 O222 2.399 . S
Tb201 O211 2.322 . S
Tb201 O212 2.349 . S
Tb201 O214 2.415 . S
Tb201 O215 2.399 . S
Tb201 O216 2.325 . S
Tb201 O219 2.303 . S
Tb201 C230 2.764 . S
C202 O218 1.261 . S
C202 O219 1.257 . S
C203 C206 1.358 . S
C203 C207 1.332 . S
C203 C209 1.504 . S
C204 C205 1.373 . S
C204 C208 1.308 . S
C205 C204 1.373 . S
C205 C206 1.429 1_554 S
C205 H232 0.932 . S
C206 C203 1.358 . S
C206 C205 1.429 1_556 S
C206 H233 0.930 . S
C207 C203 1.332 . S
C207 C208 1.394 1_556 S
C207 H234 0.932 . S
C208 C204 1.308 . S
C208 C207 1.394 1_554 S
C208 H235 0.929 . S
C209 Tb200 2.764 . S
C209 C203 1.504 . S
C209 O221 1.239 . S
C209 O222 1.263 . S
O210 Tb200 2.325 . S
O210 C220 1.236 . S
O211 Tb201 2.322 . S
O211 C220 1.257 . S
O212 Tb201 2.349 . S
O212 C223 1.261 . S
O213 Tb200 2.303 . S
O213 C223 1.257 . S
O214 Tb201 2.415 . S
O214 C230 1.239 . S
O215 Tb201 2.399 . S
O215 C230 1.263 . S
O216 Tb201 2.325 . S
O216 C231 1.236 . S
O217 Tb200 2.322 . S
O217 C231 1.257 . S
O218 Tb200 2.349 . S
O218 C202 1.261 . S
O219 Tb201 2.303 . S
O219 C202 1.257 . S
C220 O210 1.236 . S
C220 O211 1.257 . S
O221 Tb200 2.415 . S
O221 C209 1.239 . S
O222 Tb200 2.399 . S
O222 C209 1.263 . S
C223 O212 1.261 . S
C223 O213 1.257 . S
C224 C227 1.358 . S
C224 C228 1.332 . S
C224 C230 1.504 . S
C225 C226 1.373 . S
C225 C229 1.308 . S
C226 C225 1.373 . S
C226 C227 1.429 . S
C226 H236 0.932 . S
C227 C224 1.358 . S
C227 C226 1.429 . S
C227 H237 0.930 . S
C228 C224 1.332 . S
C228 C229 1.394 . S
C228 H238 0.932 . S
C229 C225 1.308 . S
C229 C228 1.394 . S
C229 H239 0.929 . S
C230 Tb201 2.764 . S
C230 O214 1.239 . S
C230 O215 1.263 . S
C230 C224 1.504 . S
C231 O216 1.236 . S
C231 O217 1.257 . S
H232 C205 0.932 . S
H233 C206 0.930 . S
H234 C207 0.932 . S
H235 C208 0.929 . S
H236 C226 0.932 . S
H237 C227 0.930 . S
H238 C228 0.932 . S
H239 C229 0.929 . S
C240 C241 1.387 . S
C240 H244 0.950 . S
C240 C249 1.390 . S
C241 C240 1.387 . S
C241 C243 1.387 . S
H242 C249 0.950 . S
C243 C241 1.387 . S
C243 C245 1.390 . S
C243 H247 0.950 . S
H244 C240 0.950 . S
C245 C243 1.390 . S
C245 C246 1.387 . S
C245 H248 0.950 . S
C246 C245 1.387 . S
C246 C249 1.387 . S
H247 C243 0.950 . S
H248 C245 0.950 . S
C249 C240 1.390 . S
C249 H242 0.950 . S
C249 C246 1.387 . S
C250 C251 1.387 . S
C250 H254 0.950 . S
C250 C259 1.390 . S
C251 C250 1.387 . S
C251 C253 1.387 1_455 S
H252 C259 0.950 . S
C253 C251 1.387 1_655 S
C253 C255 1.390 . S
C253 H257 0.950 . S
H254 C250 0.950 . S
C255 C253 1.390 . S
C255 C256 1.387 . S
C255 H258 0.950 . S
C256 C255 1.387 . S
C256 C259 1.387 1_655 S
H257 C253 0.950 . S
H258 C255 0.950 . S
C259 C250 1.390 . S
C259 H252 0.950 . S
C259 C256 1.387 1_455 S
C260 C261 1.387 . S
C260 H264 0.950 . S
C260 C269 1.390 1_545 S
C261 C260 1.387 . S
C261 C263 1.387 . S
H262 C269 0.950 . S
C263 C261 1.387 . S
C263 C265 1.390 1_545 S
C263 H267 0.950 . S
H264 C260 0.950 . S
C265 C263 1.390 1_565 S
C265 C266 1.387 . S
C265 H268 0.950 . S
C266 C265 1.387 . S
C266 C269 1.387 . S
H267 C263 0.950 . S
H268 C265 0.950 . S
C269 C260 1.390 1_565 S
C269 H262 0.950 . S
C269 C266 1.387 . S
C270 C271 1.387 . S
C270 H274 0.950 . S
C270 C279 1.390 . S
C271 C270 1.387 . S
C271 C273 1.387 . S
H272 C279 0.950 . S
C273 C271 1.387 . S
C273 C275 1.390 . S
C273 H277 0.950 . S
H274 C270 0.950 . S
C275 C273 1.390 . S
C275 C276 1.387 . S
C275 H278 0.950 . S
C276 C275 1.387 . S
C276 C279 1.387 . S
H277 C273 0.950 . S
H278 C275 0.950 . S
C279 C270 1.390 . S
C279 H272 0.950 . S
C279 C276 1.387 . S
C280 C281 1.387 . S
C280 H284 0.950 . S
C280 C289 1.390 1_455 S
C281 C280 1.387 . S
C281 C283 1.387 . S
H282 C289 0.950 . S
C283 C281 1.387 . S
C283 C285 1.398 . S
C283 H287 0.950 . S
H284 C280 0.950 . S
C285 C283 1.398 . S
C285 C286 1.388 1_455 S
C285 H288 0.942 1_455 S
C286 C285 1.388 1_655 S
C286 C289 1.387 . S
H287 C283 0.950 . S
H288 C285 0.942 1_655 S
C289 C280 1.390 1_655 S
C289 H282 0.950 . S
C289 C286 1.387 . S
C290 C291 1.387 . S
C290 H294 0.950 . S
C290 C299 1.390 1_545 S
C291 C290 1.387 . S
C291 C293 1.387 . S
H292 C299 0.950 . S
C293 C291 1.387 . S
C293 C295 1.390 1_545 S
C293 H297 0.950 . S
H294 C290 0.950 . S
C295 C293 1.390 1_565 S
C295 C296 1.387 . S
C295 H298 0.950 . S
C296 C295 1.387 . S
C296 C299 1.387 . S
H297 C293 0.950 . S
H298 C295 0.950 . S
C299 C290 1.390 1_565 S
C299 H292 0.950 . S
C299 C296 1.387 . S
C300 C301 1.387 . S
C300 H304 0.950 . S
C300 C309 1.390 . S
C301 C300 1.387 . S
C301 C303 1.387 . S
H302 C309 0.950 . S
C303 C301 1.387 . S
C303 C305 1.390 . S
C303 H307 0.950 . S
H304 C300 0.950 . S
C305 C303 1.390 . S
C305 C306 1.387 . S
C305 H308 0.950 . S
C306 C305 1.387 . S
C306 C309 1.387 . S
H307 C303 0.950 . S
H308 C305 0.950 . S
C309 C300 1.390 . S
C309 H302 0.950 . S
C309 C306 1.387 . S
C310 C311 1.387 . S
C310 H314 0.950 . S
C310 C319 1.390 . S
C311 C310 1.387 . S
C311 C313 1.387 . S
H312 C319 0.950 . S
C313 C311 1.387 . S
C313 C315 1.390 . S
C313 H317 0.950 . S
H314 C310 0.950 . S
C315 C313 1.390 . S
C315 C316 1.387 . S
C315 H318 0.950 . S
C316 C315 1.387 . S
C316 C319 1.387 . S
H317 C313 0.950 . S
H318 C315 0.950 . S
C319 C310 1.390 . S
C319 H312 0.950 . S
C319 C316 1.387 . S
C320 C321 1.387 . S
C320 H324 0.950 . S
C320 C329 1.390 . S
C321 C320 1.387 . S
C321 C323 1.387 . S
H322 C329 0.950 . S
C323 C321 1.387 . S
C323 C325 1.390 . S
C323 H327 0.950 . S
H324 C320 0.950 . S
C325 C323 1.390 . S
C325 C326 1.387 . S
C325 H328 0.950 . S
C326 C325 1.387 . S
C326 C329 1.387 . S
H327 C323 0.950 . S
H328 C325 0.950 . S
C329 C320 1.390 . S
C329 H322 0.950 . S
C329 C326 1.387 . S
C330 C331 1.387 . S
C330 H334 0.950 . S
C330 C339 1.390 . S
C331 C330 1.387 . S
C331 C333 1.387 . S
H332 C339 0.950 . S
C333 C331 1.387 . S
C333 C335 1.390 . S
C333 H337 0.950 . S
H334 C330 0.950 . S
C335 C333 1.390 . S
C335 C336 1.387 . S
C335 H338 0.950 . S
C336 C335 1.387 . S
C336 C339 1.387 . S
H337 C333 0.950 . S
H338 C335 0.950 . S
C339 C330 1.390 . S
C339 H332 0.950 . S
C339 C336 1.387 . S
C340 C341 1.387 . S
C340 H344 0.950 . S
C340 C349 1.390 . S
C341 C340 1.387 . S
C341 C343 1.387 . S
H342 C349 0.950 . S
C343 C341 1.387 . S
C343 C345 1.390 . S
C343 H347 0.950 . S
H344 C340 0.950 . S
C345 C343 1.390 . S
C345 C346 1.387 . S
C345 H348 0.950 . S
C346 C345 1.387 . S
C346 C349 1.387 . S
H347 C343 0.950 . S
H348 C345 0.950 . S
C349 C340 1.390 . S
C349 H342 0.950 . S
C349 C346 1.387 . S
C350 C351 1.387 . S
C350 H354 0.950 . S
C350 C359 1.390 . S
C351 C350 1.387 . S
C351 C353 1.387 . S
H352 C359 0.950 . S
C353 C351 1.387 . S
C353 C355 1.390 . S
C353 H357 0.950 . S
H354 C350 0.950 . S
C355 C353 1.390 . S
C355 C356 1.387 . S
C355 H358 0.950 . S
C356 C355 1.387 . S
C356 C359 1.387 . S
H357 C353 0.950 . S
H358 C355 0.950 . S
C359 C350 1.390 . S
C359 H352 0.950 . S
C359 C356 1.387 . S
C360 C361 1.387 . S
C360 H364 0.950 . S
C360 C369 1.390 . S
C361 C360 1.387 . S
C361 C363 1.387 . S
H362 C369 0.950 . S
C363 C361 1.387 . S
C363 C365 1.390 . S
C363 H367 0.950 . S
H364 C360 0.950 . S
C365 C363 1.390 . S
C365 C366 1.387 . S
C365 H368 0.950 . S
C366 C365 1.387 . S
C366 C369 1.387 . S
H367 C363 0.950 . S
H368 C365 0.950 . S
C369 C360 1.390 . S
C369 H362 0.950 . S
C369 C366 1.387 . S
C370 C371 1.387 . S
C370 H374 0.950 . S
C370 C379 1.390 . S
C371 C370 1.387 . S
C371 C373 1.387 . S
H372 C379 0.950 . S
C373 C371 1.387 . S
C373 C375 1.390 . S
C373 H377 0.950 . S
H374 C370 0.950 . S
C375 C373 1.390 . S
C375 C376 1.387 . S
C375 H378 0.950 . S
C376 C375 1.387 . S
C376 C379 1.387 . S
H377 C373 0.950 . S
H378 C375 0.950 . S
C379 C370 1.390 . S
C379 H372 0.950 . S
C379 C376 1.387 . S
C380 C381 1.387 . S
C380 H384 0.950 . S
C380 C389 1.390 . S
C381 C380 1.387 . S
C381 C383 1.387 . S
H382 C389 0.950 . S
C383 C381 1.387 . S
C383 C385 1.390 . S
C383 H387 0.950 . S
H384 C380 0.950 . S
C385 C383 1.390 . S
C385 C386 1.387 . S
C385 H388 0.950 . S
C386 C385 1.387 . S
C386 C389 1.387 . S
H387 C383 0.950 . S
H388 C385 0.950 . S
C389 C380 1.390 . S
C389 H382 0.950 . S
C389 C386 1.387 . S
C390 C391 1.387 . S
C390 H394 0.950 . S
C390 C399 1.390 . S
C391 C390 1.387 . S
C391 C393 1.387 . S
H392 C399 0.950 . S
C393 C391 1.387 . S
C393 C395 1.390 . S
C393 H397 0.950 . S
H394 C390 0.950 . S
C395 C393 1.390 . S
C395 C396 1.387 . S
C395 H398 0.950 . S
C396 C395 1.387 . S
C396 C399 1.387 . S
H397 C393 0.950 . S
H398 C395 0.950 . S
C399 C390 1.390 . S
C399 H392 0.950 . S
C399 C396 1.387 . S
C400 C401 1.387 . S
C400 H404 0.950 . S
C400 C409 1.390 . S
C401 C400 1.387 . S
C401 C403 1.387 . S
H402 C409 0.950 . S
C403 C401 1.387 . S
C403 C405 1.390 . S
C403 H407 0.950 . S
H404 C400 0.950 . S
C405 C403 1.390 . S
C405 C406 1.387 . S
C405 H408 0.950 . S
C406 C405 1.387 . S
C406 C409 1.387 . S
H407 C403 0.950 . S
H408 C405 0.950 . S
C409 C400 1.390 . S
C409 H402 0.950 . S
C409 C406 1.387 . S
C410 C411 1.387 . S
C410 H414 0.950 . S
C410 C419 1.390 . S
C411 C410 1.387 . S
C411 C413 1.387 . S
H412 C419 0.950 . S
C413 C411 1.387 . S
C413 C415 1.390 . S
C413 H417 0.950 . S
H414 C410 0.950 . S
C415 C413 1.390 . S
C415 C416 1.387 . S
C415 H418 0.950 . S
C416 C415 1.387 . S
C416 C419 1.387 . S
H417 C413 0.950 . S
H418 C415 0.950 . S
C419 C410 1.390 . S
C419 H412 0.950 . S
C419 C416 1.387 . S
C241 C223 1.547 . S
C246 C31 1.547 . S
C251 C23 1.548 . S
C256 C71 1.546 . S
C261 C63 1.548 . S
C266 C111 1.547 . S
C271 C103 1.549 . S
C276 C151 1.548 . S
C281 C191 1.546 . S
C286 C143 1.547 . S
C291 C231 1.547 . S
C296 C183 1.547 . S
C301 C25 2.164 . S
C306 C4 2.164 . S
C311 C65 2.166 . S
C316 C44 2.166 . S
C321 C105 2.164 . S
C326 C84 2.164 . S
C331 C145 2.163 . S
C336 C124 2.163 . S
C341 C164 2.166 . S
C346 C185 2.166 . S
C351 C225 2.166 . S
C356 C204 2.166 . S
C361 C20 1.751 . S
C366 C162 1.772 . S
C371 C60 1.752 . S
C376 C202 1.772 . S
C381 C2 1.773 . S
C386 C100 1.752 . S
C391 C42 1.773 . S
C396 C140 1.753 . S
C401 C180 1.752 . S
C406 C82 1.772 . S
C411 C122 1.772 . S
C416 C220 1.752 . S
