# Generated by pormake.
# Topology zfo, (5)-cn, num edge types: 1
# Building blocks:
#     Node 0, Type 0, BuildingBlock: BEQFEK_clean_sbu_0, # of connection points: 5
#     Node 1, Type 0, BuildingBlock: BEQFEK_clean_sbu_0, # of connection points: 5
#     Node 2, Type 0, BuildingBlock: BEQFEK_clean_sbu_0, # of connection points: 5
#     Node 3, Type 0, BuildingBlock: BEQFEK_clean_sbu_0, # of connection points: 5
#     Node 4, Type 0, BuildingBlock: BEQFEK_clean_sbu_0, # of connection points: 5
#     Node 5, Type 0, BuildingBlock: BEQFEK_clean_sbu_0, # of connection points: 5
#     Node 6, Type 0, BuildingBlock: BEQFEK_clean_sbu_0, # of connection points: 5
#     Node 7, Type 0, BuildingBlock: BEQFEK_clean_sbu_0, # of connection points: 5
#     Node 8, Type 0, BuildingBlock: BEQFEK_clean_sbu_0, # of connection points: 5
#     Node 9, Type 0, BuildingBlock: BEQFEK_clean_sbu_0, # of connection points: 5
#     Node 10, Type 0, BuildingBlock: BEQFEK_clean_sbu_0, # of connection points: 5
#     Node 11, Type 0, BuildingBlock: BEQFEK_clean_sbu_0, # of connection points: 5
#     Node 12, Type 0, BuildingBlock: BEQFEK_clean_sbu_0, # of connection points: 5
#     Node 13, Type 0, BuildingBlock: BEQFEK_clean_sbu_0, # of connection points: 5
#     Node 14, Type 0, BuildingBlock: BEQFEK_clean_sbu_0, # of connection points: 5
#     Node 15, Type 0, BuildingBlock: BEQFEK_clean_sbu_0, # of connection points: 5
#     Edge 16, Type (0, 0), BuildingBlock: OJICUG_clean_linker_0, # of connection points: 2
#     Edge 17, Type (0, 0), BuildingBlock: OJICUG_clean_linker_0, # of connection points: 2
#     Edge 18, Type (0, 0), BuildingBlock: OJICUG_clean_linker_0, # of connection points: 2
#     Edge 19, Type (0, 0), BuildingBlock: OJICUG_clean_linker_0, # of connection points: 2
#     Edge 20, Type (0, 0), BuildingBlock: OJICUG_clean_linker_0, # of connection points: 2
#     Edge 21, Type (0, 0), BuildingBlock: OJICUG_clean_linker_0, # of connection points: 2
#     Edge 22, Type (0, 0), BuildingBlock: OJICUG_clean_linker_0, # of connection points: 2
#     Edge 23, Type (0, 0), BuildingBlock: OJICUG_clean_linker_0, # of connection points: 2
#     Edge 24, Type (0, 0), BuildingBlock: OJICUG_clean_linker_0, # of connection points: 2
#     Edge 25, Type (0, 0), BuildingBlock: OJICUG_clean_linker_0, # of connection points: 2
#     Edge 26, Type (0, 0), BuildingBlock: OJICUG_clean_linker_0, # of connection points: 2
#     Edge 27, Type (0, 0), BuildingBlock: OJICUG_clean_linker_0, # of connection points: 2
#     Edge 28, Type (0, 0), BuildingBlock: OJICUG_clean_linker_0, # of connection points: 2
#     Edge 29, Type (0, 0), BuildingBlock: OJICUG_clean_linker_0, # of connection points: 2
#     Edge 30, Type (0, 0), BuildingBlock: OJICUG_clean_linker_0, # of connection points: 2
#     Edge 31, Type (0, 0), BuildingBlock: OJICUG_clean_linker_0, # of connection points: 2
#     Edge 32, Type (0, 0), BuildingBlock: OJICUG_clean_linker_0, # of connection points: 2
#     Edge 33, Type (0, 0), BuildingBlock: OJICUG_clean_linker_0, # of connection points: 2
#     Edge 34, Type (0, 0), BuildingBlock: OJICUG_clean_linker_0, # of connection points: 2
#     Edge 35, Type (0, 0), BuildingBlock: OJICUG_clean_linker_0, # of connection points: 2
#     Edge 36, Type (0, 0), BuildingBlock: OJICUG_clean_linker_0, # of connection points: 2
#     Edge 37, Type (0, 0), BuildingBlock: OJICUG_clean_linker_0, # of connection points: 2
#     Edge 38, Type (0, 0), BuildingBlock: OJICUG_clean_linker_0, # of connection points: 2
#     Edge 39, Type (0, 0), BuildingBlock: OJICUG_clean_linker_0, # of connection points: 2
#     Edge 40, Type (0, 0), BuildingBlock: OJICUG_clean_linker_0, # of connection points: 2
#     Edge 41, Type (0, 0), BuildingBlock: OJICUG_clean_linker_0, # of connection points: 2
#     Edge 42, Type (0, 0), BuildingBlock: OJICUG_clean_linker_0, # of connection points: 2
#     Edge 43, Type (0, 0), BuildingBlock: OJICUG_clean_linker_0, # of connection points: 2
#     Edge 44, Type (0, 0), BuildingBlock: OJICUG_clean_linker_0, # of connection points: 2
#     Edge 45, Type (0, 0), BuildingBlock: OJICUG_clean_linker_0, # of connection points: 2
#     Edge 46, Type (0, 0), BuildingBlock: OJICUG_clean_linker_0, # of connection points: 2
#     Edge 47, Type (0, 0), BuildingBlock: OJICUG_clean_linker_0, # of connection points: 2
#     Edge 48, Type (0, 0), BuildingBlock: OJICUG_clean_linker_0, # of connection points: 2
#     Edge 49, Type (0, 0), BuildingBlock: OJICUG_clean_linker_0, # of connection points: 2
#     Edge 50, Type (0, 0), BuildingBlock: OJICUG_clean_linker_0, # of connection points: 2
#     Edge 51, Type (0, 0), BuildingBlock: OJICUG_clean_linker_0, # of connection points: 2
#     Edge 52, Type (0, 0), BuildingBlock: OJICUG_clean_linker_0, # of connection points: 2
#     Edge 53, Type (0, 0), BuildingBlock: OJICUG_clean_linker_0, # of connection points: 2
#     Edge 54, Type (0, 0), BuildingBlock: OJICUG_clean_linker_0, # of connection points: 2
#     Edge 55, Type (0, 0), BuildingBlock: OJICUG_clean_linker_0, # of connection points: 2
# Relax obj value: 0.187
# Max RMSD: 0.173
# Mean RMSD: 0.165
data_MOF--net-zfo--node1-BEQFEK_clean_sbu_0--edge1-OJICUG_clean_linker_0
_symmetry_space_group_name_H-M    P1
_symmetry_Int_Tables_number       1
_symmetry_cell_setting            triclinic
loop_
_symmetry_equiv_pos_as_xyz
'x, y, z'
_cell_length_a     25.033863
_cell_length_b     25.032397
_cell_length_c     50.603288
_cell_angle_alpha  90.010771
_cell_angle_beta   89.985276
_cell_angle_gamma 89.936385
loop_
_atom_site_label
_atom_site_type_symbol
_atom_site_fract_x
_atom_site_fract_y
_atom_site_fract_z
_atom_type_partial_charge
Co0 Co 0.0922 0.19678 0.09091 0.0
Co1 Co 0.08664 0.19751 0.15316 0.0
C2 C 0.02091 0.27211 0.11976 0.0
O3 O 0.03827 0.2537 0.09794 0.0
O4 O 0.0368 0.25362 0.14174 0.0
C5 C 0.09907 0.235 0.03737 0.0
O6 O 0.07884 0.27864 0.04776 0.0
C7 C 0.11834 0.2524 0.20065 0.0
C8 C 0.11541 0.18962 0.23123 0.0
C9 C 0.13185 0.24184 0.22675 0.0
N10 N 0.09724 0.20799 0.19004 0.0
N11 N 0.09439 0.17089 0.20854 0.0
C12 C 0.12641 0.30318 0.18548 0.0
H13 H 0.09513 0.30797 0.17026 0.0
H14 H 0.16553 0.30178 0.17519 0.0
H15 H 0.12533 0.33835 0.19883 0.0
C16 C 0.2082 0.20884 0.10332 0.0
N17 N 0.1563 0.20654 0.11049 0.0
N18 N 0.15349 0.20211 0.13634 0.0
C19 C 0.20316 0.19888 0.14633 0.0
C20 C 0.23948 0.2044 0.12594 0.0
C21 C 0.22701 0.21426 0.0754 0.0
H22 H 0.22253 0.17528 0.06519 0.0
H23 H 0.20194 0.24398 0.06488 0.0
H24 H 0.26944 0.22685 0.07451 0.0
O25 O 0.05976 0.1265 0.10119 0.0
O26 O 0.05541 0.12735 0.14522 0.0
H27 H 0.18468 0.15422 0.18146 0.0
H28 H 0.2548 0.15984 0.17465 0.0
C29 C 0.21605 0.18138 0.17394 0.0
H30 H 0.21919 0.21681 0.18697 0.0
H31 H 0.08091 0.132 0.2053 0.0
O32 O 0.10844 0.19505 0.05222 0.0
C33 C 0.0473 0.10427 0.1231 0.0
Co34 Co 0.79969 0.09617 0.59067 0.0
Co35 Co 0.79884 0.08942 0.65281 0.0
C36 C 0.72421 0.02462 0.61928 0.0
O37 O 0.74295 0.04205 0.59756 0.0
O38 O 0.74245 0.04022 0.64135 0.0
C39 C 0.76084 0.10303 0.53734 0.0
O40 O 0.71727 0.08318 0.54794 0.0
C41 C 0.74519 0.11897 0.70098 0.0
C42 C 0.80935 0.11638 0.73088 0.0
C43 C 0.75671 0.13213 0.72701 0.0
N44 N 0.78949 0.0988 0.6898 0.0
N45 N 0.82741 0.09605 0.70789 0.0
C46 C 0.6936 0.12656 0.68643 0.0
H47 H 0.688 0.0946 0.67162 0.0
H48 H 0.69444 0.16522 0.67571 0.0
H49 H 0.65913 0.12607 0.70021 0.0
C50 C 0.78701 0.21207 0.60366 0.0
N51 N 0.78983 0.16003 0.61056 0.0
N52 N 0.79399 0.15673 0.63642 0.0
C53 C 0.79643 0.20624 0.64668 0.0
C54 C 0.79073 0.24293 0.62646 0.0
C55 C 0.78164 0.23138 0.57583 0.0
H56 H 0.82074 0.22734 0.56568 0.0
H57 H 0.75224 0.20632 0.56512 0.0
H58 H 0.7687 0.27376 0.57513 0.0
O59 O 0.87016 0.06347 0.60051 0.0
O60 O 0.86866 0.05804 0.64448 0.0
H61 H 0.84087 0.18778 0.68187 0.0
H62 H 0.83383 0.25792 0.6755 0.0
C63 C 0.81316 0.21878 0.67444 0.0
H64 H 0.77744 0.22089 0.68733 0.0
H65 H 0.86638 0.08324 0.70417 0.0
O66 O 0.80094 0.11256 0.55205 0.0
C67 C 0.89203 0.05036 0.6224 0.0
Co68 Co 0.90542 0.8016 0.09145 0.0
Co69 Co 0.91299 0.80054 0.15368 0.0
C70 C 0.97831 0.72669 0.11956 0.0
O71 O 0.96018 0.74504 0.09788 0.0
O72 O 0.96288 0.74494 0.14168 0.0
C73 C 0.89722 0.76424 0.03777 0.0
O74 O 0.91739 0.72034 0.04792 0.0
C75 C 0.8841 0.74522 0.20156 0.0
C76 C 0.88703 0.80826 0.23202 0.0
C77 C 0.87139 0.75573 0.22777 0.0
N78 N 0.90397 0.78994 0.19068 0.0
N79 N 0.90687 0.82719 0.20911 0.0
C80 C 0.87642 0.69416 0.18656 0.0
H81 H 0.90765 0.68955 0.17129 0.0
H82 H 0.83722 0.69503 0.17635 0.0
H83 H 0.87801 0.65916 0.19999 0.0
C84 C 0.7899 0.78786 0.10485 0.0
N85 N 0.842 0.79105 0.11158 0.0
N86 N 0.84558 0.79522 0.13743 0.0
C87 C 0.79617 0.79727 0.14785 0.0
C88 C 0.75929 0.79133 0.12774 0.0
C89 C 0.77028 0.78238 0.07707 0.0
H90 H 0.77377 0.82153 0.06694 0.0
H91 H 0.79552 0.75321 0.06627 0.0
H92 H 0.72804 0.76907 0.0765 0.0
O93 O 0.93765 0.872 0.1016 0.0
O94 O 0.94333 0.87104 0.14558 0.0
H95 H 0.81484 0.84147 0.18309 0.0
H96 H 0.74464 0.83443 0.17683 0.0
C97 C 0.78384 0.81381 0.17567 0.0
H98 H 0.78192 0.778 0.18849 0.0
H99 H 0.91952 0.8663 0.2057 0.0
O100 O 0.88815 0.80392 0.05285 0.0
C101 C 0.95061 0.89425 0.12343 0.0
Co102 Co 0.1977 0.91071 0.59277 0.0
Co103 Co 0.19292 0.91337 0.65491 0.0
C104 C 0.26892 0.98225 0.62362 0.0
O105 O 0.25402 0.96475 0.60118 0.0
O106 O 0.24791 0.96525 0.64483 0.0
C107 C 0.23444 0.91226 0.53853 0.0
O108 O 0.2737 0.94097 0.54822 0.0
C109 C 0.24636 0.88085 0.70243 0.0
C110 C 0.18251 0.88085 0.73253 0.0
C111 C 0.23522 0.86576 0.72823 0.0
N112 N 0.20184 0.90155 0.69174 0.0
N113 N 0.16405 0.90267 0.70995 0.0
C114 C 0.29781 0.87442 0.6876 0.0
H115 H 0.30276 0.90683 0.67299 0.0
H116 H 0.29733 0.83607 0.67661 0.0
H117 H 0.33246 0.87488 0.70126 0.0
C118 C 0.21141 0.79411 0.60425 0.0
N119 N 0.20704 0.84569 0.61184 0.0
N120 N 0.20046 0.8473 0.6376 0.0
C121 C 0.19792 0.79716 0.64707 0.0
C122 C 0.20616 0.76176 0.62649 0.0
C123 C 0.21947 0.77655 0.57629 0.0
H124 H 0.2479 0.8038 0.56626 0.0
H125 H 0.23486 0.73501 0.57534 0.0
H126 H 0.18075 0.7787 0.56567 0.0
O127 O 0.12616 0.94226 0.60222 0.0
O128 O 0.12289 0.94324 0.64626 0.0
H129 H 0.15041 0.81336 0.68158 0.0
H130 H 0.15783 0.74365 0.67411 0.0
C131 C 0.17866 0.78277 0.67421 0.0
H132 H 0.21318 0.77958 0.68781 0.0
H133 H 0.12496 0.91545 0.70655 0.0
O134 O 0.19805 0.89539 0.55398 0.0
C135 C 0.10175 0.95278 0.62383 0.0
Co136 Co 0.59122 0.30134 0.93725 0.0
Co137 Co 0.59057 0.30345 0.87522 0.0
C138 C 0.52179 0.22788 0.90649 0.0
O139 O 0.53876 0.24359 0.92888 0.0
O140 O 0.53898 0.24845 0.88525 0.0
C141 C 0.61465 0.26212 0.99013 0.0
O142 O 0.62831 0.21738 0.97837 0.0
C143 C 0.62241 0.24881 0.82763 0.0
C144 C 0.62081 0.31213 0.79728 0.0
C145 C 0.63587 0.2594 0.80154 0.0
N146 N 0.60257 0.29364 0.83845 0.0
N147 N 0.60055 0.33111 0.8201 0.0
C148 C 0.62916 0.19748 0.84253 0.0
H149 H 0.59833 0.19352 0.85801 0.0
H150 H 0.66864 0.19721 0.85249 0.0
H151 H 0.62643 0.16263 0.82905 0.0
C152 C 0.71014 0.29198 0.92658 0.0
N153 N 0.65825 0.29368 0.919 0.0
N154 N 0.65655 0.29761 0.89305 0.0
C155 C 0.70662 0.30022 0.88347 0.0
C156 C 0.74222 0.29529 0.90414 0.0
C157 C 0.72848 0.28809 0.95464 0.0
H158 H 0.70531 0.3162 0.96713 0.0
H159 H 0.72135 0.24695 0.96188 0.0
H160 H 0.77168 0.29667 0.95665 0.0
O161 O 0.55855 0.37168 0.92697 0.0
O162 O 0.55928 0.37343 0.88294 0.0
H163 H 0.6907 0.34406 0.84779 0.0
H164 H 0.76037 0.33595 0.85504 0.0
C165 C 0.72082 0.316 0.85576 0.0
H166 H 0.72302 0.27992 0.84313 0.0
H167 H 0.58783 0.37023 0.82348 0.0
O168 O 0.59943 0.30193 0.97643 0.0
C169 C 0.54844 0.39516 0.90509 0.0
Co170 Co 0.70096 0.58645 0.43767 0.0
Co171 Co 0.69968 0.58652 0.37548 0.0
C172 C 0.77486 0.51728 0.40689 0.0
O173 O 0.75892 0.53398 0.42932 0.0
O174 O 0.75455 0.53483 0.38565 0.0
C175 C 0.73786 0.61066 0.49109 0.0
O176 O 0.78299 0.62472 0.47987 0.0
C177 C 0.75521 0.61963 0.32825 0.0
C178 C 0.69281 0.61726 0.29747 0.0
C179 C 0.7452 0.63298 0.30207 0.0
N180 N 0.71037 0.59917 0.33875 0.0
N181 N 0.67347 0.59675 0.32015 0.0
C182 C 0.80596 0.62692 0.34354 0.0
H183 H 0.80935 0.59671 0.35936 0.0
H184 H 0.80583 0.6668 0.35311 0.0
H185 H 0.84126 0.62366 0.33037 0.0
C186 C 0.70917 0.70543 0.42731 0.0
N187 N 0.70846 0.6536 0.41958 0.0
N188 N 0.70483 0.65213 0.39362 0.0
C189 C 0.70145 0.70223 0.38417 0.0
C190 C 0.70555 0.73765 0.40494 0.0
C191 C 0.71216 0.72362 0.45542 0.0
H192 H 0.68394 0.70019 0.46768 0.0
H193 H 0.75318 0.71678 0.46291 0.0
H194 H 0.70313 0.76674 0.45746 0.0
O195 O 0.63101 0.55396 0.42688 0.0
O196 O 0.62957 0.55512 0.38283 0.0
H197 H 0.65796 0.68601 0.34842 0.0
H198 H 0.66484 0.75572 0.35586 0.0
C199 C 0.68548 0.71648 0.35649 0.0
H200 H 0.72154 0.71934 0.34388 0.0
H201 H 0.63446 0.58349 0.32324 0.0
O202 O 0.69904 0.59468 0.47693 0.0
C203 C 0.6077 0.54412 0.40494 0.0
Co204 Co 0.40855 0.70032 0.93564 0.0
Co205 Co 0.41014 0.69583 0.87345 0.0
C206 C 0.47936 0.7717 0.90447 0.0
O207 O 0.4622 0.75665 0.92694 0.0
O208 O 0.46214 0.75081 0.88329 0.0
C209 C 0.41632 0.73381 0.99035 0.0
O210 O 0.4497 0.76951 0.98095 0.0
C211 C 0.37703 0.74941 0.82603 0.0
C212 C 0.37675 0.68563 0.7959 0.0
C213 C 0.36179 0.73836 0.80025 0.0
N214 N 0.39773 0.70483 0.83668 0.0
N215 N 0.39865 0.66707 0.81844 0.0
C216 C 0.3708 0.80086 0.84089 0.0
H217 H 0.40318 0.80564 0.85553 0.0
H218 H 0.33241 0.80053 0.85185 0.0
H219 H 0.37146 0.83554 0.82725 0.0
C220 C 0.2917 0.71427 0.92461 0.0
N221 N 0.34316 0.7097 0.91686 0.0
N222 N 0.34441 0.70332 0.89108 0.0
C223 C 0.29415 0.70109 0.88176 0.0
C224 C 0.25906 0.70941 0.90245 0.0
C225 C 0.27451 0.7221 0.95264 0.0
H226 H 0.27603 0.68313 0.96306 0.0
H227 H 0.30234 0.74983 0.96277 0.0
H228 H 0.23324 0.73816 0.95373 0.0
O229 O 0.43993 0.62881 0.92598 0.0
O230 O 0.44027 0.62583 0.88193 0.0
H231 H 0.30965 0.65371 0.84712 0.0
H232 H 0.24009 0.66141 0.85485 0.0
C233 C 0.27929 0.68206 0.85464 0.0
H234 H 0.27605 0.71667 0.8411 0.0
H235 H 0.41144 0.62796 0.82179 0.0
O236 O 0.39441 0.70083 0.97456 0.0
C237 C 0.45016 0.60456 0.90429 0.0
Co238 Co 0.30307 0.40491 0.43595 0.0
Co239 Co 0.30553 0.40898 0.37369 0.0
C240 C 0.23056 0.47697 0.40619 0.0
O241 O 0.24624 0.45903 0.42842 0.0
O242 O 0.25103 0.46052 0.38474 0.0
C243 C 0.26475 0.40052 0.48965 0.0
O244 O 0.22174 0.42203 0.47925 0.0
C245 C 0.24996 0.37837 0.32626 0.0
C246 C 0.31266 0.37959 0.2956 0.0
C247 C 0.26001 0.36469 0.30013 0.0
N248 N 0.295 0.39818 0.33683 0.0
N249 N 0.3321 0.39997 0.31829 0.0
C250 C 0.19902 0.37167 0.34147 0.0
H251 H 0.19531 0.40272 0.35687 0.0
H252 H 0.19917 0.33231 0.35154 0.0
H253 H 0.16385 0.37418 0.32818 0.0
C254 C 0.28886 0.28867 0.42385 0.0
N255 N 0.29311 0.34041 0.41657 0.0
N256 N 0.29859 0.34267 0.39075 0.0
C257 C 0.30041 0.2928 0.38092 0.0
C258 C 0.29292 0.25696 0.40134 0.0
C259 C 0.2819 0.27039 0.45177 0.0
H260 H 0.32067 0.27377 0.46226 0.0
H261 H 0.25269 0.29654 0.462 0.0
H262 H 0.268 0.22836 0.45264 0.0
O263 O 0.37412 0.43654 0.4259 0.0
O264 O 0.37592 0.43851 0.38183 0.0
H265 H 0.34617 0.30941 0.34589 0.0
H266 H 0.33836 0.23957 0.35296 0.0
C267 C 0.318 0.27896 0.35342 0.0
H268 H 0.28271 0.27663 0.34026 0.0
H269 H 0.37135 0.4124 0.32148 0.0
O270 O 0.30418 0.38938 0.47474 0.0
C271 C 0.3978 0.44748 0.40415 0.0
Co272 Co 0.942 0.7827 0.87449 0.0
Co273 Co 0.83567 0.84745 0.87692 0.0
C274 C 0.88096 0.79004 0.92455 0.0
O275 O 0.91859 0.76979 0.91108 0.0
O276 O 0.84737 0.8215 0.91391 0.0
C277 C 0.03047 0.71597 0.88834 0.0
O278 O 0.99917 0.69957 0.9075 0.0
C279 C 0.72344 0.84649 0.88838 0.0
C280 C 0.69269 0.92268 0.87251 0.0
C281 C 0.67749 0.87683 0.88594 0.0
N282 N 0.76414 0.87328 0.87743 0.0
N283 N 0.7458 0.91913 0.86814 0.0
C284 C 0.7282 0.79087 0.89901 0.0
H285 H 0.73261 0.79268 0.92081 0.0
H286 H 0.76385 0.77063 0.89063 0.0
H287 H 0.69188 0.7673 0.89434 0.0
C288 C 0.88702 0.73195 0.82827 0.0
N289 N 0.88826 0.76476 0.84943 0.0
N290 N 0.84391 0.79302 0.85016 0.0
C291 C 0.81349 0.77985 0.82911 0.0
C292 C 0.83943 0.74025 0.81444 0.0
C293 C 0.93103 0.69391 0.82149 0.0
H294 H 0.96119 0.71498 0.80927 0.0
H295 H 0.95096 0.67973 0.83977 0.0
H296 H 0.9155 0.65925 0.81018 0.0
O297 O 0.96137 0.85938 0.87063 0.0
O298 O 0.88639 0.90678 0.87036 0.0
H299 H 0.76885 0.85268 0.8259 0.0
H300 H 0.75469 0.80515 0.8002 0.0
C301 C 0.76389 0.80962 0.82152 0.0
H302 H 0.72979 0.79436 0.83331 0.0
H303 H 0.76928 0.94759 0.85856 0.0
O304 O 0.01129 0.74539 0.87013 0.0
C305 C 0.93719 0.90406 0.86896 0.0
Co306 Co 0.21458 0.94229 0.37355 0.0
Co307 Co 0.15626 0.83314 0.37979 0.0
C308 C 0.21091 0.88516 0.42561 0.0
O309 O 0.22822 0.92236 0.41088 0.0
O310 O 0.18165 0.84841 0.41621 0.0
C311 C 0.28445 0.02923 0.38513 0.0
O312 O 0.30441 0.99684 0.40299 0.0
C313 C 0.15227 0.7215 0.39483 0.0
C314 C 0.08325 0.69003 0.37263 0.0
C315 C 0.12353 0.67518 0.38999 0.0
N316 N 0.12991 0.76172 0.38116 0.0
N317 N 0.08809 0.74294 0.36825 0.0
C318 C 0.20438 0.72639 0.40921 0.0
H319 H 0.22726 0.76128 0.40186 0.0
H320 H 0.22896 0.68985 0.40663 0.0
H321 H 0.19641 0.73197 0.43061 0.0
C322 C 0.25942 0.88748 0.32591 0.0
N323 N 0.23229 0.8876 0.34898 0.0
N324 N 0.21125 0.84015 0.35294 0.0
C325 C 0.22715 0.80729 0.33325 0.0
C326 C 0.25742 0.83624 0.31483 0.0
C327 C 0.28051 0.93735 0.31339 0.0
H328 H 0.25945 0.9729 0.32128 0.0
H329 H 0.32365 0.94126 0.318 0.0
H330 H 0.27539 0.93613 0.29162 0.0
O331 O 0.13868 0.95998 0.36983 0.0
O332 O 0.095 0.88309 0.37238 0.0
H333 H 0.17429 0.74182 0.32574 0.0
H334 H 0.24441 0.72638 0.32052 0.0
C335 C 0.21556 0.74861 0.33299 0.0
H336 H 0.21865 0.73246 0.35323 0.0
H337 H 0.06393 0.76583 0.35582 0.0
O338 O 0.25135 0.01122 0.36826 0.0
C339 C 0.09523 0.93378 0.36944 0.0
Co340 Co 0.05778 0.2193 0.87373 0.0
Co341 Co 0.16459 0.15504 0.87673 0.0
C342 C 0.11761 0.21208 0.9241 0.0
O343 O 0.08012 0.2322 0.91049 0.0
O344 O 0.15171 0.18101 0.91357 0.0
C345 C 0.96996 0.28789 0.88667 0.0
O346 O 0.00227 0.3069 0.90481 0.0
C347 C 0.27674 0.15596 0.88898 0.0
C348 C 0.30764 0.07962 0.87335 0.0
C349 C 0.32267 0.1254 0.8869 0.0
N350 N 0.23625 0.12934 0.87771 0.0
N351 N 0.25471 0.08342 0.86856 0.0
C352 C 0.27181 0.21156 0.89962 0.0
H353 H 0.26662 0.2097 0.92138 0.0
H354 H 0.2365 0.23193 0.89098 0.0
H355 H 0.30836 0.23502 0.89526 0.0
C356 C 0.11376 0.27025 0.82783 0.0
N357 N 0.11213 0.23743 0.84897 0.0
N358 N 0.1567 0.20952 0.85 0.0
C359 C 0.1877 0.22306 0.82921 0.0
C360 C 0.16187 0.26243 0.81437 0.0
C361 C 0.06958 0.30779 0.82066 0.0
H362 H 0.04903 0.32199 0.83878 0.0
H363 H 0.08508 0.34246 0.80935 0.0
H364 H 0.03995 0.28629 0.80831 0.0
O365 O 0.03897 0.14256 0.86988 0.0
O366 O 0.11414 0.09544 0.87001 0.0
H367 H 0.24809 0.19893 0.80084 0.0
H368 H 0.27134 0.20936 0.83426 0.0
C369 C 0.23796 0.19396 0.82203 0.0
H370 H 0.23325 0.15076 0.82618 0.0
H371 H 0.2314 0.05503 0.85882 0.0
O372 O 0.98826 0.25621 0.86917 0.0
C373 C 0.06335 0.09795 0.86841 0.0
Co374 Co 0.77789 0.0528 0.37432 0.0
Co375 Co 0.8427 0.15909 0.37627 0.0
C376 C 0.78491 0.11467 0.42399 0.0
O377 O 0.76461 0.07669 0.4108 0.0
O378 O 0.81635 0.14788 0.41312 0.0
C379 C 0.70963 0.9653 0.38779 0.0
O380 O 0.6913 0.9974 0.4062 0.0
C381 C 0.8428 0.27146 0.38805 0.0
C382 C 0.91972 0.30116 0.37265 0.0
C383 C 0.87405 0.31689 0.38612 0.0
N384 N 0.86893 0.23057 0.37679 0.0
N385 N 0.91517 0.24833 0.36774 0.0
C386 C 0.78715 0.26733 0.39869 0.0
H387 H 0.76621 0.23257 0.38987 0.0
H388 H 0.76426 0.3044 0.39453 0.0
H389 H 0.78894 0.26167 0.42042 0.0
C390 C 0.72744 0.10726 0.32788 0.0
N391 N 0.76025 0.10627 0.34903 0.0
N392 N 0.78842 0.15063 0.3496 0.0
C393 C 0.7752 0.1808 0.32848 0.0
C394 C 0.73567 0.15466 0.31391 0.0
C395 C 0.68939 0.06324 0.32127 0.0
H396 H 0.67498 0.04382 0.33963 0.0
H397 H 0.65486 0.07862 0.30979 0.0
H398 H 0.71052 0.0327 0.30928 0.0
O399 O 0.85453 0.03275 0.37078 0.0
O400 O 0.90172 0.10775 0.36997 0.0
H401 H 0.80041 0.23934 0.29945 0.0
H402 H 0.78923 0.26459 0.33247 0.0
C403 C 0.80477 0.2304 0.3208 0.0
H404 H 0.84782 0.22565 0.32529 0.0
H405 H 0.94341 0.22455 0.35813 0.0
O406 O 0.74059 0.98374 0.37003 0.0
C407 C 0.89913 0.0569 0.36896 0.0
Co408 Co 0.44591 0.71174 0.15585 0.0
Co409 Co 0.33593 0.65404 0.14867 0.0
C410 C 0.38916 0.70887 0.10332 0.0
O411 O 0.42676 0.72475 0.11823 0.0
O412 O 0.35127 0.68075 0.11251 0.0
C413 C 0.53183 0.7831 0.14492 0.0
O414 O 0.49929 0.803 0.12711 0.0
C415 C 0.22715 0.63287 0.12974 0.0
C416 C 0.1864 0.60775 0.16623 0.0
C417 C 0.17669 0.6232 0.1403 0.0
N418 N 0.26396 0.62681 0.1489 0.0
N419 N 0.23952 0.6094 0.17035 0.0
C420 C 0.24123 0.64194 0.10138 0.0
H421 H 0.27816 0.61946 0.0966 0.0
H422 H 0.24847 0.68511 0.09795 0.0
H423 H 0.20913 0.62756 0.08805 0.0
C424 C 0.38917 0.75718 0.20281 0.0
N425 N 0.39046 0.72926 0.18 0.0
N426 N 0.34255 0.71057 0.17487 0.0
C427 C 0.3081 0.73044 0.19294 0.0
C428 C 0.33644 0.75923 0.21218 0.0
C429 C 0.43878 0.77596 0.21642 0.0
H430 H 0.47423 0.75435 0.20876 0.0
H431 H 0.44428 0.81925 0.21261 0.0
H432 H 0.43594 0.7693 0.23805 0.0
O433 O 0.46422 0.6365 0.15966 0.0
O434 O 0.38725 0.59323 0.15619 0.0
H435 H 0.23193 0.69431 0.20039 0.0
H436 H 0.23005 0.76583 0.1973 0.0
C437 C 0.24869 0.72878 0.1895 0.0
H438 H 0.23836 0.72473 0.16828 0.0
H439 H 0.25862 0.60247 0.18836 0.0
O440 O 0.51415 0.7494 0.16157 0.0
C441 C 0.43789 0.5932 0.15958 0.0
Co442 Co 0.2796 0.445 0.65348 0.0
Co443 Co 0.34471 0.33878 0.65066 0.0
C444 C 0.28798 0.38495 0.60309 0.0
O445 O 0.26742 0.42232 0.61664 0.0
O446 O 0.31924 0.35118 0.61371 0.0
C447 C 0.21195 0.533 0.64014 0.0
O448 O 0.19605 0.50204 0.62075 0.0
C449 C 0.34521 0.22676 0.63827 0.0
C450 C 0.419 0.19544 0.65642 0.0
C451 C 0.37479 0.18051 0.64162 0.0
N452 N 0.37088 0.26727 0.65007 0.0
N453 N 0.41536 0.24857 0.66069 0.0
C454 C 0.29051 0.23175 0.62653 0.0
H455 H 0.29413 0.23671 0.60482 0.0
H456 H 0.26954 0.26715 0.63472 0.0
H457 H 0.26651 0.19537 0.63052 0.0
C458 C 0.22975 0.38929 0.69968 0.0
N459 N 0.26186 0.3906 0.67824 0.0
N460 N 0.28996 0.34614 0.67721 0.0
C461 C 0.27712 0.31553 0.69825 0.0
C462 C 0.23842 0.34164 0.71323 0.0
C463 C 0.19591 0.43529 0.70836 0.0
H464 H 0.22224 0.46801 0.71534 0.0
H465 H 0.17277 0.45071 0.69127 0.0
H466 H 0.16834 0.42369 0.72454 0.0
O467 O 0.35597 0.46516 0.65755 0.0
O468 O 0.4035 0.39022 0.65769 0.0
H469 H 0.34728 0.26882 0.70533 0.0
H470 H 0.28911 0.24651 0.72355 0.0
C471 C 0.30336 0.2633 0.70454 0.0
H472 H 0.29445 0.23431 0.68858 0.0
H473 H 0.4426 0.27176 0.67126 0.0
O474 O 0.24139 0.51363 0.6583 0.0
C475 C 0.40066 0.44104 0.65925 0.0
Co476 Co 0.55361 0.27701 0.15422 0.0
Co477 Co 0.66317 0.3377 0.15033 0.0
C478 C 0.61368 0.28219 0.10352 0.0
O479 O 0.57307 0.26789 0.11668 0.0
O480 O 0.65147 0.30796 0.11428 0.0
C481 C 0.46734 0.20757 0.14154 0.0
O482 O 0.49894 0.19062 0.12259 0.0
C483 C 0.77118 0.36096 0.13106 0.0
C484 C 0.81161 0.3907 0.16677 0.0
C485 C 0.82147 0.37318 0.14115 0.0
N486 N 0.73454 0.36702 0.15033 0.0
N487 N 0.75864 0.3876 0.17118 0.0
C488 C 0.75684 0.35152 0.10272 0.0
H489 H 0.71854 0.37169 0.09804 0.0
H490 H 0.75246 0.30803 0.09913 0.0
H491 H 0.78767 0.36813 0.08928 0.0
C492 C 0.60832 0.22502 0.19962 0.0
N493 N 0.60866 0.25756 0.17835 0.0
N494 N 0.65522 0.28203 0.17683 0.0
C495 C 0.68627 0.26424 0.19691 0.0
C496 C 0.65749 0.22833 0.21221 0.0
C497 C 0.56012 0.19516 0.20885 0.0
H498 H 0.52763 0.22402 0.21327 0.0
H499 H 0.54583 0.16873 0.19273 0.0
H500 H 0.56885 0.17096 0.22671 0.0
O501 O 0.53396 0.35209 0.15929 0.0
O502 O 0.61011 0.39703 0.15655 0.0
H503 H 0.74386 0.31786 0.21303 0.0
H504 H 0.76419 0.24922 0.21341 0.0
C505 C 0.74299 0.28007 0.20163 0.0
H506 H 0.76402 0.28524 0.18255 0.0
H507 H 0.73942 0.39668 0.18891 0.0
O508 O 0.4859 0.23841 0.15929 0.0
C509 C 0.55942 0.39594 0.15957 0.0
Co510 Co 0.71504 0.55697 0.65549 0.0
Co511 Co 0.65598 0.66735 0.65053 0.0
C512 C 0.71139 0.61552 0.60425 0.0
O513 O 0.7247 0.57515 0.61785 0.0
O514 O 0.68619 0.65427 0.61458 0.0
C515 C 0.7848 0.4705 0.64347 0.0
O516 O 0.80327 0.50272 0.62515 0.0
C517 C 0.63457 0.77543 0.63076 0.0
C518 C 0.60405 0.81663 0.66612 0.0
C519 C 0.62233 0.82595 0.64059 0.0
N520 N 0.62771 0.73913 0.6501 0.0
N521 N 0.60673 0.76371 0.67073 0.0
C522 C 0.64492 0.76062 0.60254 0.0
H523 H 0.62438 0.72261 0.59777 0.0
H524 H 0.68847 0.75545 0.59939 0.0
H525 H 0.6293 0.79156 0.58886 0.0
C526 C 0.76746 0.61208 0.70061 0.0
N527 N 0.73513 0.61234 0.67925 0.0
N528 N 0.71113 0.65916 0.67741 0.0
C529 C 0.72902 0.69042 0.69739 0.0
C530 C 0.76454 0.66157 0.71294 0.0
C531 C 0.79674 0.56372 0.71015 0.0
H532 H 0.82299 0.5486 0.69412 0.0
H533 H 0.82104 0.5726 0.72795 0.0
H534 H 0.76749 0.53177 0.71479 0.0
O535 O 0.63963 0.53918 0.66058 0.0
O536 O 0.59544 0.61565 0.65671 0.0
H537 H 0.74432 0.76846 0.71371 0.0
H538 H 0.70904 0.76817 0.68263 0.0
C539 C 0.71358 0.7474 0.70182 0.0
H540 H 0.67551 0.74885 0.71297 0.0
H541 H 0.597 0.74482 0.68846 0.0
O542 O 0.75269 0.4886 0.6608 0.0
C543 C 0.59598 0.56513 0.66033 0.0
C544 C 0.01028 0.02464 0.09907 0.0
C545 C 0.02259 0.05052 0.12297 0.0
H546 H 0.97778 0.95515 0.08041 0.0
C547 C 0.01084 0.02461 0.14692 0.0
H548 H 0.01873 0.04346 0.08026 0.0
C549 C 0.98743 0.97405 0.147 0.0
C550 C 0.97507 0.94811 0.12314 0.0
H551 H 0.01976 0.04329 0.16572 0.0
H552 H 0.97904 0.95538 0.16586 0.0
C553 C 0.98671 0.974 0.09916 0.0
C554 C 0.02338 0.99071 0.59898 0.0
C555 C 0.04789 0.97726 0.62309 0.0
H556 H 0.95497 0.02447 0.57977 0.0
C557 C 0.02062 0.988 0.64679 0.0
H558 H 0.0433 0.98303 0.58036 0.0
C559 C 0.97023 0.01169 0.64646 0.0
C560 C 0.94567 0.02532 0.62241 0.0
H561 H 0.03818 0.97821 0.66575 0.0
H562 H 0.9506 0.01934 0.66516 0.0
C563 C 0.97277 0.01454 0.59864 0.0
C564 C 0.48698 0.52536 0.92891 0.0
C565 C 0.47479 0.55075 0.90486 0.0
H566 H 0.51985 0.45631 0.94793 0.0
C567 C 0.48695 0.52443 0.88106 0.0
H568 H 0.47816 0.54452 0.9476 0.0
C569 C 0.51084 0.47413 0.88124 0.0
C570 C 0.52319 0.44868 0.90523 0.0
H571 H 0.47818 0.5427 0.86214 0.0
H572 H 0.51961 0.45524 0.86247 0.0
C573 C 0.51092 0.47481 0.92909 0.0
C574 C 0.52831 0.50764 0.381 0.0
C575 C 0.55409 0.51919 0.405 0.0
H576 H 0.45925 0.47603 0.36192 0.0
C577 C 0.52816 0.50658 0.42886 0.0
H578 H 0.54705 0.51673 0.36224 0.0
C579 C 0.47748 0.48309 0.42868 0.0
C580 C 0.45172 0.47171 0.40464 0.0
H581 H 0.5469 0.5149 0.4477 0.0
H582 H 0.45851 0.474 0.44738 0.0
C583 C 0.47782 0.48421 0.38083 0.0
C584 C 0.97512 0.05068 0.86574 0.0
C585 C 0.03133 0.04824 0.8663 0.0
H586 H 0.90138 0.00744 0.86604 0.0
C587 C 0.05617 0.99789 0.86618 0.0
H588 H 0.95452 0.08876 0.86573 0.0
C589 C 0.02556 0.95118 0.86634 0.0
C590 C 0.96935 0.95365 0.86664 0.0
H591 H 0.0993 0.99446 0.86654 0.0
H592 H 0.04613 0.91309 0.86678 0.0
C593 C 0.94452 0.00398 0.86592 0.0
C594 C 0.99466 0.93865 0.3688 0.0
C595 C 0.04448 0.96416 0.367 0.0
H596 H 0.90971 0.94778 0.3707 0.0
C597 C 0.04574 0.02017 0.36427 0.0
H598 H 0.99218 0.89566 0.37087 0.0
C599 C 0.99862 0.05008 0.36426 0.0
C600 C 0.94888 0.02482 0.3669 0.0
H601 H 0.08332 0.04134 0.36269 0.0
H602 H 0.00135 0.09314 0.36267 0.0
C603 C 0.94738 0.96864 0.36871 0.0
C604 C 0.55419 0.49594 0.16307 0.0
C605 C 0.52835 0.44633 0.16182 0.0
H606 H 0.5461 0.58079 0.16365 0.0
C607 C 0.47199 0.44528 0.16144 0.0
H608 H 0.59739 0.49831 0.16349 0.0
C609 C 0.44231 0.49272 0.16138 0.0
C610 C 0.46826 0.54236 0.16186 0.0
H611 H 0.45059 0.40774 0.16052 0.0
H612 H 0.39915 0.49044 0.16043 0.0
C613 C 0.52456 0.5433 0.16317 0.0
C614 C 0.50003 0.44823 0.66467 0.0
C615 C 0.45019 0.47327 0.66177 0.0
H616 H 0.58463 0.45739 0.66682 0.0
C617 C 0.44836 0.52948 0.66014 0.0
H618 H 0.50301 0.40516 0.66613 0.0
C619 C 0.49542 0.55971 0.66045 0.0
C620 C 0.54537 0.53445 0.6625 0.0
H621 H 0.41061 0.55019 0.65796 0.0
H622 H 0.49267 0.60271 0.65846 0.0
C623 C 0.54694 0.4784 0.66509 0.0
C624 C 0.08387 0.26879 0.99145 0.0
C625 C 0.10806 0.2316 1.00847 0.0
H626 H 0.06801 0.29187 0.95151 0.0
C627 C 0.13917 0.19036 0.99752 0.0
H628 H 0.05977 0.30113 0.99924 0.0
C629 C 0.14458 0.18552 0.97007 0.0
C630 C 0.11825 0.2213 0.95304 0.0
H631 H 0.15872 0.16137 1.01014 0.0
H632 H 0.16767 0.15252 0.9622 0.0
C633 C 0.08856 0.26347 0.96406 0.0
C634 C 0.81095 0.1444 0.46958 0.0
C635 C 0.77534 0.11712 0.45286 0.0
H636 H 0.83467 0.16093 0.50948 0.0
C637 C 0.73291 0.08841 0.46419 0.0
H638 H 0.84411 0.16682 0.46147 0.0
C639 C 0.72721 0.08552 0.49162 0.0
C640 C 0.7643 0.11057 0.50837 0.0
H641 H 0.70461 0.06721 0.45187 0.0
H642 H 0.69473 0.06206 0.49968 0.0
C643 C 0.80574 0.14079 0.49708 0.0
C644 C 0.90795 0.73711 0.96434 0.0
C645 C 0.8795 0.78023 0.95344 0.0
H646 H 0.93528 0.69797 0.99938 0.0
C647 C 0.85368 0.8162 0.97058 0.0
H648 H 0.92802 0.7085 0.95171 0.0
C649 C 0.8585 0.81058 0.99803 0.0
C650 C 0.88849 0.76839 1.00887 0.0
H651 H 0.83153 0.84991 0.96281 0.0
H652 H 0.83946 0.83976 1.01075 0.0
C653 C 0.91206 0.73104 0.99171 0.0
C654 C 0.25817 0.92417 0.4648 0.0
C655 C 0.2209 0.88774 0.45448 0.0
H656 H 0.29192 0.96013 0.49932 0.0
C657 C 0.19031 0.85698 0.47216 0.0
H658 H 0.28253 0.94835 0.4518 0.0
C659 C 0.19525 0.86424 0.49949 0.0
C660 C 0.23136 0.9019 0.50973 0.0
H661 H 0.16121 0.82855 0.4649 0.0
H662 H 0.17023 0.84086 0.51257 0.0
C663 C 0.26356 0.93094 0.49209 0.0
C664 C 0.65956 0.25532 0.06149 0.0
C665 C 0.61394 0.27429 0.07466 0.0
H666 H 0.69491 0.23502 0.02405 0.0
C667 C 0.56863 0.28847 0.05989 0.0
H668 H 0.69493 0.24419 0.07252 0.0
C669 C 0.56932 0.28511 0.03234 0.0
C670 C 0.61463 0.26567 0.01916 0.0
H671 H 0.53316 0.30366 0.06963 0.0
H672 H 0.53421 0.29718 0.02132 0.0
C673 C 0.65952 0.25002 0.0339 0.0
C674 C 0.74002 0.65941 0.56196 0.0
C675 C 0.72025 0.61454 0.57544 0.0
H676 H 0.76271 0.69266 0.5244 0.0
C677 C 0.70687 0.56851 0.56102 0.0
H678 H 0.75059 0.69529 0.5727 0.0
C679 C 0.71195 0.5677 0.53353 0.0
C680 C 0.73236 0.61219 0.52007 0.0
H681 H 0.69115 0.53358 0.57098 0.0
H682 H 0.70054 0.53204 0.52279 0.0
C683 C 0.74704 0.65785 0.53447 0.0
C684 C 0.35992 0.69082 0.05663 0.0
C685 C 0.39234 0.71926 0.07445 0.0
H686 H 0.34207 0.67287 0.01619 0.0
C687 C 0.43071 0.75469 0.06425 0.0
H688 H 0.33024 0.66294 0.06367 0.0
C689 C 0.43749 0.76041 0.03696 0.0
C690 C 0.40639 0.73049 0.01919 0.0
H691 H 0.45634 0.77733 0.07734 0.0
H692 H 0.46812 0.78733 0.02984 0.0
C693 C 0.36697 0.69623 0.02933 0.0
C694 C 0.23692 0.41368 0.56295 0.0
C695 C 0.2788 0.38384 0.57413 0.0
H696 H 0.19937 0.44182 0.52763 0.0
C697 C 0.31416 0.35658 0.55723 0.0
H698 H 0.20879 0.4349 0.57538 0.0
C699 C 0.30918 0.36115 0.52974 0.0
C700 C 0.26824 0.39239 0.51862 0.0
H701 H 0.3469 0.3333 0.5652 0.0
H702 H 0.33785 0.34085 0.51722 0.0
C703 C 0.23148 0.41759 0.53553 0.0
C704 C 0.20275 0.31069 0.23634 0.0
C705 C 0.16357 0.27477 0.24537 0.0
H706 H 0.26248 0.36822 0.24654 0.0
C707 C 0.15758 0.26735 0.27268 0.0
H708 H 0.21168 0.31483 0.21558 0.0
C709 C 0.18885 0.29617 0.29051 0.0
C710 C 0.22587 0.33432 0.28149 0.0
H711 H 0.12917 0.23861 0.28032 0.0
H712 H 0.18482 0.28697 0.31124 0.0
C713 C 0.23297 0.34061 0.25417 0.0
C714 C 0.73235 0.15705 0.77319 0.0
C715 C 0.7243 0.16355 0.74596 0.0
H716 H 0.7136 0.18372 0.81197 0.0
C717 C 0.68833 0.20306 0.73727 0.0
H718 H 0.76119 0.12837 0.78053 0.0
C719 C 0.65889 0.23311 0.75538 0.0
C720 C 0.66578 0.2255 0.78262 0.0
H721 H 0.68377 0.21231 0.71656 0.0
H722 H 0.63119 0.26287 0.74802 0.0
C723 C 0.704 0.18815 0.7913 0.0
C724 C 0.77155 0.6566 0.25596 0.0
C725 C 0.77921 0.66308 0.28324 0.0
H726 H 0.79185 0.68221 0.21721 0.0
C727 C 0.81654 0.70119 0.29199 0.0
H728 H 0.74188 0.62894 0.24852 0.0
C729 C 0.84731 0.73001 0.27392 0.0
C730 C 0.84057 0.72254 0.24666 0.0
H731 H 0.82113 0.71047 0.31268 0.0
H732 H 0.87586 0.75884 0.28134 0.0
C733 C 0.80129 0.68646 0.23791 0.0
C734 C 0.33536 0.76488 0.75458 0.0
C735 C 0.3299 0.77175 0.78194 0.0
H736 H 0.30816 0.78651 0.71625 0.0
C737 C 0.2914 0.80805 0.7914 0.0
H738 H 0.36321 0.73584 0.74666 0.0
C739 C 0.26153 0.83915 0.77391 0.0
C740 C 0.26842 0.83369 0.74655 0.0
H741 H 0.28294 0.81176 0.81224 0.0
H742 H 0.23266 0.86717 0.78182 0.0
C743 C 0.30448 0.79496 0.73709 0.0
C744 C 0.76792 0.70136 0.78522 0.0
C745 C 0.82166 0.71599 0.78887 0.0
H746 H 0.70791 0.67324 0.75825 0.0
C747 C 0.85731 0.70945 0.76755 0.0
H748 H 0.73957 0.70499 0.80128 0.0
C749 C 0.83932 0.68993 0.74307 0.0
C750 C 0.78524 0.67726 0.73934 0.0
H751 H 0.89875 0.72105 0.76947 0.0
H752 H 0.86725 0.68637 0.72681 0.0
C753 C 0.74983 0.68282 0.76067 0.0
C754 C 0.32384 0.8398 0.27668 0.0
C755 C 0.27751 0.81803 0.28824 0.0
H756 H 0.3757 0.8428 0.24317 0.0
C757 C 0.25002 0.77857 0.27392 0.0
H758 H 0.3469 0.86981 0.28693 0.0
C759 C 0.26996 0.75888 0.25001 0.0
C760 C 0.31568 0.78104 0.23807 0.0
H761 H 0.21279 0.76228 0.28108 0.0
H762 H 0.24933 0.72549 0.24131 0.0
C763 C 0.34157 0.82285 0.25165 0.0
C764 C 0.2336 0.3027 0.78571 0.0
C765 C 0.18011 0.28672 0.78891 0.0
H766 H 0.29385 0.33228 0.75924 0.0
C767 C 0.14517 0.29197 0.76725 0.0
H768 H 0.26137 0.30001 0.80206 0.0
C769 C 0.16363 0.31146 0.74286 0.0
C770 C 0.21751 0.32547 0.73955 0.0
H771 H 0.10395 0.27939 0.76885 0.0
H772 H 0.13623 0.314 0.72635 0.0
C773 C 0.25216 0.32144 0.76127 0.0
C774 C 0.69653 0.22572 0.28453 0.0
C775 C 0.71141 0.17206 0.28831 0.0
H776 H 0.66831 0.28538 0.25739 0.0
C777 C 0.70513 0.13615 0.26709 0.0
H778 H 0.69998 0.25425 0.30053 0.0
C779 C 0.68567 0.15384 0.24255 0.0
C780 C 0.67279 0.20785 0.23869 0.0
H781 H 0.71693 0.09476 0.26913 0.0
H782 H 0.68237 0.12575 0.22635 0.0
C783 C 0.67803 0.24351 0.25993 0.0
C784 C 0.3865 0.17167 0.11818 0.0
C785 C 0.40887 0.20284 0.13852 0.0
H786 H 0.31477 0.14761 0.09812 0.0
C787 C 0.37507 0.2347 0.15411 0.0
H788 H 0.41159 0.147 0.10571 0.0
C789 C 0.32045 0.23618 0.14921 0.0
C790 C 0.29807 0.20515 0.12897 0.0
H791 H 0.39088 0.2598 0.16969 0.0
H792 H 0.29554 0.26181 0.16131 0.0
C793 C 0.33137 0.17265 0.11351 0.0
C794 C 0.82166 0.33542 0.61479 0.0
C795 C 0.78911 0.30147 0.62981 0.0
H796 H 0.84679 0.416 0.60769 0.0
C797 C 0.75726 0.32312 0.64997 0.0
H798 H 0.84731 0.3194 0.59947 0.0
C799 C 0.758 0.37767 0.65521 0.0
C800 C 0.79 0.4121 0.64008 0.0
H801 H 0.73161 0.29769 0.66176 0.0
H802 H 0.73232 0.39292 0.67071 0.0
C803 C 0.82198 0.39044 0.61982 0.0
C804 C 0.62504 0.75728 0.15664 0.0
C805 C 0.59018 0.78899 0.14157 0.0
H806 H 0.70538 0.73172 0.16312 0.0
C807 C 0.61142 0.82138 0.12138 0.0
H808 H 0.61014 0.73137 0.17211 0.0
C809 C 0.66642 0.82164 0.11631 0.0
C810 C 0.7008 0.7893 0.13125 0.0
H811 H 0.58554 0.846 0.1093 0.0
H812 H 0.68208 0.8475 0.10101 0.0
C813 C 0.6796 0.75717 0.15139 0.0
C814 C 0.23691 0.62531 0.654 0.0
C815 C 0.20693 0.59164 0.6375 0.0
H816 H 0.2618 0.70507 0.66251 0.0
C817 C 0.17716 0.61441 0.61673 0.0
H818 H 0.26093 0.60921 0.66993 0.0
C819 C 0.17757 0.66973 0.61256 0.0
C820 C 0.20802 0.70298 0.62899 0.0
H821 H 0.15394 0.58948 0.60355 0.0
H822 H 0.15355 0.68651 0.59682 0.0
C823 C 0.23774 0.68022 0.64965 0.0
C824 C 0.88982 0.32817 0.9091 0.0
C825 C 0.91149 0.29261 0.89036 0.0
H826 H 0.81877 0.35739 0.92814 0.0
C827 C 0.87711 0.25738 0.87706 0.0
H828 H 0.91534 0.35569 0.91973 0.0
C829 C 0.8226 0.2572 0.88258 0.0
C830 C 0.80092 0.29265 0.90122 0.0
H831 H 0.89238 0.22897 0.86278 0.0
H832 H 0.79709 0.22945 0.87205 0.0
C833 C 0.83483 0.3285 0.91432 0.0
C834 C 0.67077 0.8297 0.41524 0.0
C835 C 0.70728 0.79635 0.40217 0.0
H836 H 0.64233 0.90986 0.42069 0.0
C837 C 0.74258 0.81853 0.38366 0.0
H838 H 0.64199 0.81319 0.42897 0.0
C839 C 0.74155 0.87301 0.37818 0.0
C840 C 0.70566 0.90685 0.39143 0.0
H841 H 0.77085 0.79345 0.37318 0.0
H842 H 0.76986 0.88867 0.36398 0.0
C843 C 0.6703 0.88471 0.41009 0.0
C844 C 0.12293 0.74147 0.87502 0.0
C845 C 0.08906 0.71115 0.89126 0.0
H846 H 0.20281 0.76632 0.86679 0.0
C847 C 0.11156 0.68105 0.91199 0.0
H848 H 0.10704 0.76578 0.85914 0.0
C849 C 0.16684 0.68129 0.9163 0.0
C850 C 0.2003 0.71189 0.90005 0.0
H851 H 0.08646 0.6576 0.92499 0.0
H852 H 0.18344 0.65693 0.93197 0.0
C853 C 0.17779 0.74212 0.87951 0.0
C854 C 0.32191 0.1642 0.41371 0.0
C855 C 0.29015 0.19839 0.39838 0.0
H856 H 0.34601 0.08339 0.42115 0.0
C857 C 0.25838 0.17692 0.37817 0.0
H858 H 0.34746 0.18008 0.42908 0.0
C859 C 0.2585 0.12228 0.37314 0.0
C860 C 0.28989 0.08763 0.38849 0.0
H861 H 0.2334 0.2026 0.36614 0.0
H862 H 0.233 0.10718 0.35755 0.0
C863 C 0.3217 0.10912 0.40883 0.0
C864 C 0.56344 0.8115 0.92239 0.0
C865 C 0.52464 0.8092 0.9024 0.0
H866 H 0.64296 0.83535 0.93276 0.0
C867 C 0.53362 0.83678 0.87858 0.0
H868 H 0.5576 0.79068 0.94093 0.0
C869 C 0.58218 0.86257 0.87402 0.0
C870 C 0.62281 0.86034 0.89301 0.0
H871 H 0.50417 0.83605 0.8629 0.0
H872 H 0.5893 0.88088 0.85494 0.0
C873 C 0.61237 0.83661 0.91764 0.0
C874 C 0.16619 0.53252 0.3806 0.0
C875 C 0.19229 0.52184 0.40465 0.0
H876 H 0.12324 0.58949 0.35733 0.0
C877 C 0.18739 0.55856 0.42549 0.0
H878 H 0.1686 0.50462 0.36427 0.0
C879 C 0.16139 0.60742 0.42142 0.0
C880 C 0.13987 0.62 0.39652 0.0
H881 H 0.20676 0.55126 0.44429 0.0
H882 H 0.16055 0.63641 0.4373 0.0
C883 C 0.13996 0.58103 0.37663 0.0
C884 C 0.43642 0.1901 0.92403 0.0
C885 C 0.47627 0.19062 0.9045 0.0
H886 H 0.3559 0.16846 0.9337 0.0
C887 C 0.46782 0.16214 0.88089 0.0
H888 H 0.44179 0.21171 0.94238 0.0
C889 C 0.41889 0.1373 0.876 0.0
C890 C 0.37732 0.14137 0.89444 0.0
H891 H 0.49802 0.16158 0.86555 0.0
H892 H 0.41235 0.11827 0.85704 0.0
C893 C 0.38714 0.1659 0.91894 0.0
C894 C 0.83464 0.38132 0.4186 0.0
C895 C 0.85913 0.37167 0.39405 0.0
H896 H 0.78962 0.4362 0.44235 0.0
C897 C 0.86425 0.41373 0.37596 0.0
H898 H 0.83136 0.34972 0.43312 0.0
C899 C 0.84034 0.46306 0.38119 0.0
C900 C 0.81174 0.47138 0.40479 0.0
H901 H 0.88332 0.40735 0.357 0.0
H902 H 0.84159 0.49369 0.36607 0.0
C903 C 0.81135 0.43096 0.42401 0.0
C904 C 0.06931 0.70281 0.1045 0.0
C905 C 0.02431 0.69012 0.11964 0.0
H906 H 0.15277 0.6951 0.09995 0.0
C907 C 0.02798 0.64955 0.13869 0.0
H908 H 0.06771 0.73495 0.09018 0.0
C909 C 0.07682 0.62417 0.14354 0.0
C910 C 0.12338 0.64013 0.13008 0.0
H911 H 0.99373 0.63946 0.15078 0.0
H912 H 0.07875 0.59461 0.15914 0.0
C913 C 0.11851 0.67903 0.11004 0.0
C914 C 0.35936 0.08558 0.65404 0.0
C915 C 0.35813 0.12569 0.63474 0.0
H916 H 0.33199 0.00809 0.66551 0.0
C917 C 0.33522 0.1146 0.60998 0.0
H918 H 0.37703 0.0931 0.67322 0.0
C919 C 0.30985 0.0657 0.60539 0.0
C920 C 0.30655 0.02751 0.62564 0.0
H921 H 0.33478 0.14468 0.59461 0.0
H922 H 0.28966 0.05942 0.58672 0.0
C923 C 0.33341 0.03705 0.64961 0.0
C924 C 0.88071 0.31933 0.1104 0.0
C925 C 0.87514 0.35717 0.13091 0.0
H926 H 0.93216 0.26496 0.08997 0.0
C927 C 0.92143 0.3729 0.14468 0.0
H928 H 0.84694 0.3034 0.09993 0.0
C929 C 0.97054 0.34812 0.13968 0.0
C930 C 0.97478 0.30851 0.12016 0.0
H931 H 0.9191 0.40169 0.16061 0.0
H932 H 0.00455 0.35784 0.15202 0.0
C933 C 0.93015 0.29633 0.10471 0.0
C934 C 0.64727 0.97493 0.63857 0.0
C935 C 0.68776 0.97864 0.61947 0.0
H936 H 0.5928 0.92404 0.65918 0.0
C937 C 0.70076 0.93362 0.60444 0.0
H938 H 0.63696 0.00924 0.65059 0.0
C939 C 0.67756 0.88433 0.61016 0.0
C940 C 0.63876 0.87933 0.63024 0.0
H941 H 0.73284 0.93525 0.59007 0.0
H942 H 0.69408 0.85025 0.60011 0.0
C943 C 0.62232 0.92596 0.64356 0.0
loop_
_geom_bond_atom_site_label_1
_geom_bond_atom_site_label_2
_geom_bond_distance
_geom_bond_site_symmetry_2
_ccdc_geom_bond_type
Co0 O3 1.970 . S
Co0 N17 1.989 . S
Co0 O25 1.967 . S
Co0 O32 1.920 . S
Co1 O4 1.966 . S
Co1 N10 2.022 . S
Co1 N18 1.993 . S
Co1 O26 1.941 . S
C2 O3 1.258 1_655 S
C2 O4 1.263 1_655 S
O3 Co0 1.970 . S
O3 C2 1.258 1_455 S
O4 Co1 1.966 . S
O4 C2 1.263 1_455 S
C5 O6 1.235 . S
C5 O32 1.289 . S
O6 C5 1.235 . S
C7 C9 1.400 . S
C7 N10 1.351 . S
C7 C12 1.501 . S
C8 C9 1.387 . S
C8 N11 1.341 . S
C9 C7 1.400 . S
C9 C8 1.387 . S
N10 Co1 2.022 . S
N10 C7 1.351 . S
N10 N11 1.365 . S
N11 C8 1.341 . S
N11 N10 1.365 . S
N11 H31 0.862 . S
C12 C7 1.501 . S
C12 H13 0.961 . S
C12 H14 0.961 . S
C12 H15 0.960 . S
H13 C12 0.961 . S
H14 C12 0.961 . S
H15 C12 0.960 . S
C16 N17 1.342 . S
C16 C20 1.401 . S
C16 C21 1.499 . S
N17 Co0 1.989 . S
N17 C16 1.342 . S
N17 N18 1.388 . S
N18 Co1 1.993 . S
N18 N17 1.388 . S
N18 C19 1.346 . S
C19 N18 1.346 . S
C19 C20 1.396 . S
C19 C29 1.510 . S
C20 C16 1.401 . S
C20 C19 1.396 . S
C21 C16 1.499 . S
C21 H22 0.959 . S
C21 H23 0.960 . S
C21 H24 0.961 . S
H22 C21 0.959 . S
H23 C21 0.960 . S
H24 C21 0.961 . S
O25 Co0 1.967 . S
O25 C33 1.258 . S
O26 Co1 1.941 . S
O26 C33 1.266 . S
H27 C29 0.959 . S
H28 C29 0.961 . S
C29 C19 1.510 . S
C29 H27 0.959 . S
C29 H28 0.961 . S
C29 H30 0.960 . S
H30 C29 0.960 . S
H31 N11 0.862 . S
O32 Co0 1.920 . S
O32 C5 1.289 . S
C33 O25 1.258 . S
C33 O26 1.266 . S
Co34 O37 1.970 . S
Co34 N51 1.989 . S
Co34 O59 1.967 . S
Co34 O66 1.920 . S
Co35 O38 1.966 . S
Co35 N44 2.022 . S
Co35 N52 1.993 . S
Co35 O60 1.941 . S
C36 O37 1.258 1_565 S
C36 O38 1.263 1_565 S
O37 Co34 1.970 . S
O37 C36 1.258 1_545 S
O38 Co35 1.966 . S
O38 C36 1.263 1_545 S
C39 O40 1.235 . S
C39 O66 1.289 . S
O40 C39 1.235 . S
C41 C43 1.400 . S
C41 N44 1.351 . S
C41 C46 1.501 . S
C42 C43 1.387 . S
C42 N45 1.341 . S
C43 C41 1.400 . S
C43 C42 1.387 . S
N44 Co35 2.022 . S
N44 C41 1.351 . S
N44 N45 1.365 . S
N45 C42 1.341 . S
N45 N44 1.365 . S
N45 H65 0.862 . S
C46 C41 1.501 . S
C46 H47 0.961 . S
C46 H48 0.961 . S
C46 H49 0.960 . S
H47 C46 0.961 . S
H48 C46 0.961 . S
H49 C46 0.960 . S
C50 N51 1.342 . S
C50 C54 1.401 . S
C50 C55 1.499 . S
N51 Co34 1.989 . S
N51 C50 1.342 . S
N51 N52 1.388 . S
N52 Co35 1.993 . S
N52 N51 1.388 . S
N52 C53 1.346 . S
C53 N52 1.346 . S
C53 C54 1.396 . S
C53 C63 1.510 . S
C54 C50 1.401 . S
C54 C53 1.396 . S
C55 C50 1.499 . S
C55 H56 0.959 . S
C55 H57 0.960 . S
C55 H58 0.961 . S
H56 C55 0.959 . S
H57 C55 0.960 . S
H58 C55 0.961 . S
O59 Co34 1.967 . S
O59 C67 1.258 . S
O60 Co35 1.941 . S
O60 C67 1.266 . S
H61 C63 0.959 . S
H62 C63 0.961 . S
C63 C53 1.510 . S
C63 H61 0.959 . S
C63 H62 0.961 . S
C63 H64 0.960 . S
H64 C63 0.960 . S
H65 N45 0.862 . S
O66 Co34 1.920 . S
O66 C39 1.289 . S
C67 O59 1.258 . S
C67 O60 1.266 . S
Co68 O71 1.970 . S
Co68 N85 1.989 . S
Co68 O93 1.967 . S
Co68 O100 1.920 . S
Co69 O72 1.966 . S
Co69 N78 2.022 . S
Co69 N86 1.993 . S
Co69 O94 1.941 . S
C70 O71 1.258 1_455 S
C70 O72 1.263 1_455 S
O71 Co68 1.970 . S
O71 C70 1.258 1_655 S
O72 Co69 1.966 . S
O72 C70 1.263 1_655 S
C73 O74 1.235 . S
C73 O100 1.289 . S
O74 C73 1.235 . S
C75 C77 1.400 . S
C75 N78 1.351 . S
C75 C80 1.501 . S
C76 C77 1.387 . S
C76 N79 1.341 . S
C77 C75 1.400 . S
C77 C76 1.387 . S
N78 Co69 2.022 . S
N78 C75 1.351 . S
N78 N79 1.365 . S
N79 C76 1.341 . S
N79 N78 1.365 . S
N79 H99 0.862 . S
C80 C75 1.501 . S
C80 H81 0.961 . S
C80 H82 0.961 . S
C80 H83 0.960 . S
H81 C80 0.961 . S
H82 C80 0.961 . S
H83 C80 0.960 . S
C84 N85 1.342 . S
C84 C88 1.401 . S
C84 C89 1.499 . S
N85 Co68 1.989 . S
N85 C84 1.342 . S
N85 N86 1.388 . S
N86 Co69 1.993 . S
N86 N85 1.388 . S
N86 C87 1.346 . S
C87 N86 1.346 . S
C87 C88 1.396 . S
C87 C97 1.510 . S
C88 C84 1.401 . S
C88 C87 1.396 . S
C89 C84 1.499 . S
C89 H90 0.959 . S
C89 H91 0.960 . S
C89 H92 0.961 . S
H90 C89 0.959 . S
H91 C89 0.960 . S
H92 C89 0.961 . S
O93 Co68 1.967 . S
O93 C101 1.258 . S
O94 Co69 1.941 . S
O94 C101 1.266 . S
H95 C97 0.959 . S
H96 C97 0.961 . S
C97 C87 1.510 . S
C97 H95 0.959 . S
C97 H96 0.961 . S
C97 H98 0.960 . S
H98 C97 0.960 . S
H99 N79 0.862 . S
O100 Co68 1.920 . S
O100 C73 1.289 . S
C101 O93 1.258 . S
C101 O94 1.266 . S
Co102 O105 1.970 . S
Co102 N119 1.989 . S
Co102 O127 1.967 . S
Co102 O134 1.920 . S
Co103 O106 1.966 . S
Co103 N112 2.022 . S
Co103 N120 1.993 . S
Co103 O128 1.941 . S
C104 O105 1.258 1_545 S
C104 O106 1.263 1_545 S
O105 Co102 1.970 . S
O105 C104 1.258 1_565 S
O106 Co103 1.966 . S
O106 C104 1.263 1_565 S
C107 O108 1.235 . S
C107 O134 1.289 . S
O108 C107 1.235 . S
C109 C111 1.400 . S
C109 N112 1.351 . S
C109 C114 1.501 . S
C110 C111 1.387 . S
C110 N113 1.341 . S
C111 C109 1.400 . S
C111 C110 1.387 . S
N112 Co103 2.022 . S
N112 C109 1.351 . S
N112 N113 1.365 . S
N113 C110 1.341 . S
N113 N112 1.365 . S
N113 H133 0.862 . S
C114 C109 1.501 . S
C114 H115 0.961 . S
C114 H116 0.961 . S
C114 H117 0.960 . S
H115 C114 0.961 . S
H116 C114 0.961 . S
H117 C114 0.960 . S
C118 N119 1.342 . S
C118 C122 1.401 . S
C118 C123 1.499 . S
N119 Co102 1.989 . S
N119 C118 1.342 . S
N119 N120 1.388 . S
N120 Co103 1.993 . S
N120 N119 1.388 . S
N120 C121 1.346 . S
C121 N120 1.346 . S
C121 C122 1.396 . S
C121 C131 1.510 . S
C122 C118 1.401 . S
C122 C121 1.396 . S
C123 C118 1.499 . S
C123 H124 0.959 . S
C123 H125 0.960 . S
C123 H126 0.961 . S
H124 C123 0.959 . S
H125 C123 0.960 . S
H126 C123 0.961 . S
O127 Co102 1.967 . S
O127 C135 1.258 . S
O128 Co103 1.941 . S
O128 C135 1.266 . S
H129 C131 0.959 . S
H130 C131 0.961 . S
C131 C121 1.510 . S
C131 H129 0.959 . S
C131 H130 0.961 . S
C131 H132 0.960 . S
H132 C131 0.960 . S
H133 N113 0.862 . S
O134 Co102 1.920 . S
O134 C107 1.289 . S
C135 O127 1.258 . S
C135 O128 1.266 . S
Co136 O139 1.970 . S
Co136 N153 1.989 . S
Co136 O161 1.967 . S
Co136 O168 1.920 . S
Co137 O140 1.966 . S
Co137 N146 2.022 . S
Co137 N154 1.993 . S
Co137 O162 1.941 . S
C138 O139 1.258 . S
C138 O140 1.263 . S
O139 Co136 1.970 . S
O139 C138 1.258 . S
O140 Co137 1.966 . S
O140 C138 1.263 . S
C141 O142 1.235 . S
C141 O168 1.289 . S
O142 C141 1.235 . S
C143 C145 1.400 . S
C143 N146 1.351 . S
C143 C148 1.501 . S
C144 C145 1.387 . S
C144 N147 1.341 . S
C145 C143 1.400 . S
C145 C144 1.387 . S
N146 Co137 2.022 . S
N146 C143 1.351 . S
N146 N147 1.365 . S
N147 C144 1.341 . S
N147 N146 1.365 . S
N147 H167 0.862 . S
C148 C143 1.501 . S
C148 H149 0.961 . S
C148 H150 0.961 . S
C148 H151 0.960 . S
H149 C148 0.961 . S
H150 C148 0.961 . S
H151 C148 0.960 . S
C152 N153 1.342 . S
C152 C156 1.401 . S
C152 C157 1.499 . S
N153 Co136 1.989 . S
N153 C152 1.342 . S
N153 N154 1.388 . S
N154 Co137 1.993 . S
N154 N153 1.388 . S
N154 C155 1.346 . S
C155 N154 1.346 . S
C155 C156 1.396 . S
C155 C165 1.510 . S
C156 C152 1.401 . S
C156 C155 1.396 . S
C157 C152 1.499 . S
C157 H158 0.959 . S
C157 H159 0.960 . S
C157 H160 0.961 . S
H158 C157 0.959 . S
H159 C157 0.960 . S
H160 C157 0.961 . S
O161 Co136 1.967 . S
O161 C169 1.258 . S
O162 Co137 1.941 . S
O162 C169 1.266 . S
H163 C165 0.959 . S
H164 C165 0.961 . S
C165 C155 1.510 . S
C165 H163 0.959 . S
C165 H164 0.961 . S
C165 H166 0.960 . S
H166 C165 0.960 . S
H167 N147 0.862 . S
O168 Co136 1.920 . S
O168 C141 1.289 . S
C169 O161 1.258 . S
C169 O162 1.266 . S
Co170 O173 1.970 . S
Co170 N187 1.989 . S
Co170 O195 1.967 . S
Co170 O202 1.920 . S
Co171 O174 1.966 . S
Co171 N180 2.022 . S
Co171 N188 1.993 . S
Co171 O196 1.941 . S
C172 O173 1.258 . S
C172 O174 1.263 . S
O173 Co170 1.970 . S
O173 C172 1.258 . S
O174 Co171 1.966 . S
O174 C172 1.263 . S
C175 O176 1.235 . S
C175 O202 1.289 . S
O176 C175 1.235 . S
C177 C179 1.400 . S
C177 N180 1.351 . S
C177 C182 1.501 . S
C178 C179 1.387 . S
C178 N181 1.341 . S
C179 C177 1.400 . S
C179 C178 1.387 . S
N180 Co171 2.022 . S
N180 C177 1.351 . S
N180 N181 1.365 . S
N181 C178 1.341 . S
N181 N180 1.365 . S
N181 H201 0.862 . S
C182 C177 1.501 . S
C182 H183 0.961 . S
C182 H184 0.961 . S
C182 H185 0.960 . S
H183 C182 0.961 . S
H184 C182 0.961 . S
H185 C182 0.960 . S
C186 N187 1.342 . S
C186 C190 1.401 . S
C186 C191 1.499 . S
N187 Co170 1.989 . S
N187 C186 1.342 . S
N187 N188 1.388 . S
N188 Co171 1.993 . S
N188 N187 1.388 . S
N188 C189 1.346 . S
C189 N188 1.346 . S
C189 C190 1.396 . S
C189 C199 1.510 . S
C190 C186 1.401 . S
C190 C189 1.396 . S
C191 C186 1.499 . S
C191 H192 0.959 . S
C191 H193 0.960 . S
C191 H194 0.961 . S
H192 C191 0.959 . S
H193 C191 0.960 . S
H194 C191 0.961 . S
O195 Co170 1.967 . S
O195 C203 1.258 . S
O196 Co171 1.941 . S
O196 C203 1.266 . S
H197 C199 0.959 . S
H198 C199 0.961 . S
C199 C189 1.510 . S
C199 H197 0.959 . S
C199 H198 0.961 . S
C199 H200 0.960 . S
H200 C199 0.960 . S
H201 N181 0.862 . S
O202 Co170 1.920 . S
O202 C175 1.289 . S
C203 O195 1.258 . S
C203 O196 1.266 . S
Co204 O207 1.970 . S
Co204 N221 1.989 . S
Co204 O229 1.967 . S
Co204 O236 1.920 . S
Co205 O208 1.966 . S
Co205 N214 2.022 . S
Co205 N222 1.993 . S
Co205 O230 1.941 . S
C206 O207 1.258 . S
C206 O208 1.263 . S
O207 Co204 1.970 . S
O207 C206 1.258 . S
O208 Co205 1.966 . S
O208 C206 1.263 . S
C209 O210 1.235 . S
C209 O236 1.289 . S
O210 C209 1.235 . S
C211 C213 1.400 . S
C211 N214 1.351 . S
C211 C216 1.501 . S
C212 C213 1.387 . S
C212 N215 1.341 . S
C213 C211 1.400 . S
C213 C212 1.387 . S
N214 Co205 2.022 . S
N214 C211 1.351 . S
N214 N215 1.365 . S
N215 C212 1.341 . S
N215 N214 1.365 . S
N215 H235 0.862 . S
C216 C211 1.501 . S
C216 H217 0.961 . S
C216 H218 0.961 . S
C216 H219 0.960 . S
H217 C216 0.961 . S
H218 C216 0.961 . S
H219 C216 0.960 . S
C220 N221 1.342 . S
C220 C224 1.401 . S
C220 C225 1.499 . S
N221 Co204 1.989 . S
N221 C220 1.342 . S
N221 N222 1.388 . S
N222 Co205 1.993 . S
N222 N221 1.388 . S
N222 C223 1.346 . S
C223 N222 1.346 . S
C223 C224 1.396 . S
C223 C233 1.510 . S
C224 C220 1.401 . S
C224 C223 1.396 . S
C225 C220 1.499 . S
C225 H226 0.959 . S
C225 H227 0.960 . S
C225 H228 0.961 . S
H226 C225 0.959 . S
H227 C225 0.960 . S
H228 C225 0.961 . S
O229 Co204 1.967 . S
O229 C237 1.258 . S
O230 Co205 1.941 . S
O230 C237 1.266 . S
H231 C233 0.959 . S
H232 C233 0.961 . S
C233 C223 1.510 . S
C233 H231 0.959 . S
C233 H232 0.961 . S
C233 H234 0.960 . S
H234 C233 0.960 . S
H235 N215 0.862 . S
O236 Co204 1.920 . S
O236 C209 1.289 . S
C237 O229 1.258 . S
C237 O230 1.266 . S
Co238 O241 1.970 . S
Co238 N255 1.989 . S
Co238 O263 1.967 . S
Co238 O270 1.920 . S
Co239 O242 1.966 . S
Co239 N248 2.022 . S
Co239 N256 1.993 . S
Co239 O264 1.941 . S
C240 O241 1.258 . S
C240 O242 1.263 . S
O241 Co238 1.970 . S
O241 C240 1.258 . S
O242 Co239 1.966 . S
O242 C240 1.263 . S
C243 O244 1.235 . S
C243 O270 1.289 . S
O244 C243 1.235 . S
C245 C247 1.400 . S
C245 N248 1.351 . S
C245 C250 1.501 . S
C246 C247 1.387 . S
C246 N249 1.341 . S
C247 C245 1.400 . S
C247 C246 1.387 . S
N248 Co239 2.022 . S
N248 C245 1.351 . S
N248 N249 1.365 . S
N249 C246 1.341 . S
N249 N248 1.365 . S
N249 H269 0.862 . S
C250 C245 1.501 . S
C250 H251 0.961 . S
C250 H252 0.961 . S
C250 H253 0.960 . S
H251 C250 0.961 . S
H252 C250 0.961 . S
H253 C250 0.960 . S
C254 N255 1.342 . S
C254 C258 1.401 . S
C254 C259 1.499 . S
N255 Co238 1.989 . S
N255 C254 1.342 . S
N255 N256 1.388 . S
N256 Co239 1.993 . S
N256 N255 1.388 . S
N256 C257 1.346 . S
C257 N256 1.346 . S
C257 C258 1.396 . S
C257 C267 1.510 . S
C258 C254 1.401 . S
C258 C257 1.396 . S
C259 C254 1.499 . S
C259 H260 0.959 . S
C259 H261 0.960 . S
C259 H262 0.961 . S
H260 C259 0.959 . S
H261 C259 0.960 . S
H262 C259 0.961 . S
O263 Co238 1.967 . S
O263 C271 1.258 . S
O264 Co239 1.941 . S
O264 C271 1.266 . S
H265 C267 0.959 . S
H266 C267 0.961 . S
C267 C257 1.510 . S
C267 H265 0.959 . S
C267 H266 0.961 . S
C267 H268 0.960 . S
H268 C267 0.960 . S
H269 N249 0.862 . S
O270 Co238 1.920 . S
O270 C243 1.289 . S
C271 O263 1.258 . S
C271 O264 1.266 . S
Co272 O275 1.970 . S
Co272 N289 1.989 . S
Co272 O297 1.967 . S
Co272 O304 1.920 1_655 S
Co273 O276 1.966 . S
Co273 N282 2.022 . S
Co273 N290 1.993 . S
Co273 O298 1.941 . S
C274 O275 1.258 . S
C274 O276 1.263 . S
O275 Co272 1.970 . S
O275 C274 1.258 . S
O276 Co273 1.966 . S
O276 C274 1.263 . S
C277 O278 1.235 . S
C277 O304 1.289 . S
O278 C277 1.235 . S
C279 C281 1.400 . S
C279 N282 1.351 . S
C279 C284 1.501 . S
C280 C281 1.387 . S
C280 N283 1.341 . S
C281 C279 1.400 . S
C281 C280 1.387 . S
N282 Co273 2.022 . S
N282 C279 1.351 . S
N282 N283 1.365 . S
N283 C280 1.341 . S
N283 N282 1.365 . S
N283 H303 0.862 . S
C284 C279 1.501 . S
C284 H285 0.961 . S
C284 H286 0.961 . S
C284 H287 0.960 . S
H285 C284 0.961 . S
H286 C284 0.961 . S
H287 C284 0.960 . S
C288 N289 1.342 . S
C288 C292 1.401 . S
C288 C293 1.499 1_655 S
N289 Co272 1.989 . S
N289 C288 1.342 . S
N289 N290 1.388 . S
N290 Co273 1.993 . S
N290 N289 1.388 . S
N290 C291 1.346 . S
C291 N290 1.346 . S
C291 C292 1.396 . S
C291 C301 1.510 . S
C292 C288 1.401 . S
C292 C291 1.396 . S
C293 C288 1.499 1_455 S
C293 H294 0.959 . S
C293 H295 0.960 . S
C293 H296 0.961 . S
H294 C293 0.959 . S
H295 C293 0.960 . S
H296 C293 0.961 . S
O297 Co272 1.967 . S
O297 C305 1.258 . S
O298 Co273 1.941 . S
O298 C305 1.266 . S
H299 C301 0.959 . S
H300 C301 0.961 . S
C301 C291 1.510 . S
C301 H299 0.959 . S
C301 H300 0.961 . S
C301 H302 0.960 . S
H302 C301 0.960 . S
H303 N283 0.862 . S
O304 Co272 1.920 1_455 S
O304 C277 1.289 . S
C305 O297 1.258 . S
C305 O298 1.266 . S
Co306 O309 1.970 . S
Co306 N323 1.989 . S
Co306 O331 1.967 . S
Co306 O338 1.920 1_565 S
Co307 O310 1.966 . S
Co307 N316 2.022 . S
Co307 N324 1.993 . S
Co307 O332 1.941 . S
C308 O309 1.258 . S
C308 O310 1.263 . S
O309 Co306 1.970 . S
O309 C308 1.258 . S
O310 Co307 1.966 . S
O310 C308 1.263 . S
C311 O312 1.235 . S
C311 O338 1.289 . S
O312 C311 1.235 . S
C313 C315 1.400 . S
C313 N316 1.351 . S
C313 C318 1.501 . S
C314 C315 1.387 . S
C314 N317 1.341 . S
C315 C313 1.400 . S
C315 C314 1.387 . S
N316 Co307 2.022 . S
N316 C313 1.351 . S
N316 N317 1.365 . S
N317 C314 1.341 . S
N317 N316 1.365 . S
N317 H337 0.862 . S
C318 C313 1.501 . S
C318 H319 0.961 . S
C318 H320 0.961 . S
C318 H321 0.960 . S
H319 C318 0.961 . S
H320 C318 0.961 . S
H321 C318 0.960 . S
C322 N323 1.342 . S
C322 C326 1.401 . S
C322 C327 1.499 1_565 S
N323 Co306 1.989 . S
N323 C322 1.342 . S
N323 N324 1.388 . S
N324 Co307 1.993 . S
N324 N323 1.388 . S
N324 C325 1.346 . S
C325 N324 1.346 . S
C325 C326 1.396 . S
C325 C335 1.510 . S
C326 C322 1.401 . S
C326 C325 1.396 . S
C327 C322 1.499 1_545 S
C327 H328 0.959 . S
C327 H329 0.960 . S
C327 H330 0.961 . S
H328 C327 0.959 . S
H329 C327 0.960 . S
H330 C327 0.961 . S
O331 Co306 1.967 . S
O331 C339 1.258 . S
O332 Co307 1.941 . S
O332 C339 1.266 . S
H333 C335 0.959 . S
H334 C335 0.961 . S
C335 C325 1.510 . S
C335 H333 0.959 . S
C335 H334 0.961 . S
C335 H336 0.960 . S
H336 C335 0.960 . S
H337 N317 0.862 . S
O338 Co306 1.920 1_545 S
O338 C311 1.289 . S
C339 O331 1.258 . S
C339 O332 1.266 . S
Co340 O343 1.970 . S
Co340 N357 1.989 . S
Co340 O365 1.967 . S
Co340 O372 1.920 1_455 S
Co341 O344 1.966 . S
Co341 N350 2.022 . S
Co341 N358 1.993 . S
Co341 O366 1.941 . S
C342 O343 1.258 . S
C342 O344 1.263 . S
O343 Co340 1.970 . S
O343 C342 1.258 . S
O344 Co341 1.966 . S
O344 C342 1.263 . S
C345 O346 1.235 . S
C345 O372 1.289 . S
O346 C345 1.235 . S
C347 C349 1.400 . S
C347 N350 1.351 . S
C347 C352 1.501 . S
C348 C349 1.387 . S
C348 N351 1.341 . S
C349 C347 1.400 . S
C349 C348 1.387 . S
N350 Co341 2.022 . S
N350 C347 1.351 . S
N350 N351 1.365 . S
N351 C348 1.341 . S
N351 N350 1.365 . S
N351 H371 0.862 . S
C352 C347 1.501 . S
C352 H353 0.961 . S
C352 H354 0.961 . S
C352 H355 0.960 . S
H353 C352 0.961 . S
H354 C352 0.961 . S
H355 C352 0.960 . S
C356 N357 1.342 . S
C356 C360 1.401 . S
C356 C361 1.499 1_455 S
N357 Co340 1.989 . S
N357 C356 1.342 . S
N357 N358 1.388 . S
N358 Co341 1.993 . S
N358 N357 1.388 . S
N358 C359 1.346 . S
C359 N358 1.346 . S
C359 C360 1.396 . S
C359 C369 1.510 . S
C360 C356 1.401 . S
C360 C359 1.396 . S
C361 C356 1.499 1_655 S
C361 H362 0.959 . S
C361 H363 0.960 . S
C361 H364 0.961 . S
H362 C361 0.959 . S
H363 C361 0.960 . S
H364 C361 0.961 . S
O365 Co340 1.967 . S
O365 C373 1.258 . S
O366 Co341 1.941 . S
O366 C373 1.266 . S
H367 C369 0.959 . S
H368 C369 0.961 . S
C369 C359 1.510 . S
C369 H367 0.959 . S
C369 H368 0.961 . S
C369 H370 0.960 . S
H370 C369 0.960 . S
H371 N351 0.862 . S
O372 Co340 1.920 1_655 S
O372 C345 1.289 . S
C373 O365 1.258 . S
C373 O366 1.266 . S
Co374 O377 1.970 . S
Co374 N391 1.989 . S
Co374 O399 1.967 . S
Co374 O406 1.920 1_545 S
Co375 O378 1.966 . S
Co375 N384 2.022 . S
Co375 N392 1.993 . S
Co375 O400 1.941 . S
C376 O377 1.258 . S
C376 O378 1.263 . S
O377 Co374 1.970 . S
O377 C376 1.258 . S
O378 Co375 1.966 . S
O378 C376 1.263 . S
C379 O380 1.235 . S
C379 O406 1.289 . S
O380 C379 1.235 . S
C381 C383 1.400 . S
C381 N384 1.351 . S
C381 C386 1.501 . S
C382 C383 1.387 . S
C382 N385 1.341 . S
C383 C381 1.400 . S
C383 C382 1.387 . S
N384 Co375 2.022 . S
N384 C381 1.351 . S
N384 N385 1.365 . S
N385 C382 1.341 . S
N385 N384 1.365 . S
N385 H405 0.862 . S
C386 C381 1.501 . S
C386 H387 0.961 . S
C386 H388 0.961 . S
C386 H389 0.960 . S
H387 C386 0.961 . S
H388 C386 0.961 . S
H389 C386 0.960 . S
C390 N391 1.342 . S
C390 C394 1.401 . S
C390 C395 1.499 1_545 S
N391 Co374 1.989 . S
N391 C390 1.342 . S
N391 N392 1.388 . S
N392 Co375 1.993 . S
N392 N391 1.388 . S
N392 C393 1.346 . S
C393 N392 1.346 . S
C393 C394 1.396 . S
C393 C403 1.510 . S
C394 C390 1.401 . S
C394 C393 1.396 . S
C395 C390 1.499 1_565 S
C395 H396 0.959 . S
C395 H397 0.960 . S
C395 H398 0.961 . S
H396 C395 0.959 . S
H397 C395 0.960 . S
H398 C395 0.961 . S
O399 Co374 1.967 . S
O399 C407 1.258 . S
O400 Co375 1.941 . S
O400 C407 1.266 . S
H401 C403 0.959 . S
H402 C403 0.961 . S
C403 C393 1.510 . S
C403 H401 0.959 . S
C403 H402 0.961 . S
C403 H404 0.960 . S
H404 C403 0.960 . S
H405 N385 0.862 . S
O406 Co374 1.920 1_565 S
O406 C379 1.289 . S
C407 O399 1.258 . S
C407 O400 1.266 . S
Co408 O411 1.970 . S
Co408 N425 1.989 . S
Co408 O433 1.967 . S
Co408 O440 1.920 . S
Co409 O412 1.966 . S
Co409 N418 2.022 . S
Co409 N426 1.993 . S
Co409 O434 1.941 . S
C410 O411 1.258 . S
C410 O412 1.263 . S
O411 Co408 1.970 . S
O411 C410 1.258 . S
O412 Co409 1.966 . S
O412 C410 1.263 . S
C413 O414 1.235 . S
C413 O440 1.289 . S
O414 C413 1.235 . S
C415 C417 1.400 . S
C415 N418 1.351 . S
C415 C420 1.501 . S
C416 C417 1.387 . S
C416 N419 1.341 . S
C417 C415 1.400 . S
C417 C416 1.387 . S
N418 Co409 2.022 . S
N418 C415 1.351 . S
N418 N419 1.365 . S
N419 C416 1.341 . S
N419 N418 1.365 . S
N419 H439 0.862 . S
C420 C415 1.501 . S
C420 H421 0.961 . S
C420 H422 0.961 . S
C420 H423 0.960 . S
H421 C420 0.961 . S
H422 C420 0.961 . S
H423 C420 0.960 . S
C424 N425 1.342 . S
C424 C428 1.401 . S
C424 C429 1.499 . S
N425 Co408 1.989 . S
N425 C424 1.342 . S
N425 N426 1.388 . S
N426 Co409 1.993 . S
N426 N425 1.388 . S
N426 C427 1.346 . S
C427 N426 1.346 . S
C427 C428 1.396 . S
C427 C437 1.510 . S
C428 C424 1.401 . S
C428 C427 1.396 . S
C429 C424 1.499 . S
C429 H430 0.959 . S
C429 H431 0.960 . S
C429 H432 0.961 . S
H430 C429 0.959 . S
H431 C429 0.960 . S
H432 C429 0.961 . S
O433 Co408 1.967 . S
O433 C441 1.258 . S
O434 Co409 1.941 . S
O434 C441 1.266 . S
H435 C437 0.959 . S
H436 C437 0.961 . S
C437 C427 1.510 . S
C437 H435 0.959 . S
C437 H436 0.961 . S
C437 H438 0.960 . S
H438 C437 0.960 . S
H439 N419 0.862 . S
O440 Co408 1.920 . S
O440 C413 1.289 . S
C441 O433 1.258 . S
C441 O434 1.266 . S
Co442 O445 1.970 . S
Co442 N459 1.989 . S
Co442 O467 1.967 . S
Co442 O474 1.920 . S
Co443 O446 1.966 . S
Co443 N452 2.022 . S
Co443 N460 1.993 . S
Co443 O468 1.941 . S
C444 O445 1.258 . S
C444 O446 1.263 . S
O445 Co442 1.970 . S
O445 C444 1.258 . S
O446 Co443 1.966 . S
O446 C444 1.263 . S
C447 O448 1.235 . S
C447 O474 1.289 . S
O448 C447 1.235 . S
C449 C451 1.400 . S
C449 N452 1.351 . S
C449 C454 1.501 . S
C450 C451 1.387 . S
C450 N453 1.341 . S
C451 C449 1.400 . S
C451 C450 1.387 . S
N452 Co443 2.022 . S
N452 C449 1.351 . S
N452 N453 1.365 . S
N453 C450 1.341 . S
N453 N452 1.365 . S
N453 H473 0.862 . S
C454 C449 1.501 . S
C454 H455 0.961 . S
C454 H456 0.961 . S
C454 H457 0.960 . S
H455 C454 0.961 . S
H456 C454 0.961 . S
H457 C454 0.960 . S
C458 N459 1.342 . S
C458 C462 1.401 . S
C458 C463 1.499 . S
N459 Co442 1.989 . S
N459 C458 1.342 . S
N459 N460 1.388 . S
N460 Co443 1.993 . S
N460 N459 1.388 . S
N460 C461 1.346 . S
C461 N460 1.346 . S
C461 C462 1.396 . S
C461 C471 1.510 . S
C462 C458 1.401 . S
C462 C461 1.396 . S
C463 C458 1.499 . S
C463 H464 0.959 . S
C463 H465 0.960 . S
C463 H466 0.961 . S
H464 C463 0.959 . S
H465 C463 0.960 . S
H466 C463 0.961 . S
O467 Co442 1.967 . S
O467 C475 1.258 . S
O468 Co443 1.941 . S
O468 C475 1.266 . S
H469 C471 0.959 . S
H470 C471 0.961 . S
C471 C461 1.510 . S
C471 H469 0.959 . S
C471 H470 0.961 . S
C471 H472 0.960 . S
H472 C471 0.960 . S
H473 N453 0.862 . S
O474 Co442 1.920 . S
O474 C447 1.289 . S
C475 O467 1.258 . S
C475 O468 1.266 . S
Co476 O479 1.970 . S
Co476 N493 1.989 . S
Co476 O501 1.967 . S
Co476 O508 1.920 . S
Co477 O480 1.966 . S
Co477 N486 2.022 . S
Co477 N494 1.993 . S
Co477 O502 1.941 . S
C478 O479 1.258 . S
C478 O480 1.263 . S
O479 Co476 1.970 . S
O479 C478 1.258 . S
O480 Co477 1.966 . S
O480 C478 1.263 . S
C481 O482 1.235 . S
C481 O508 1.289 . S
O482 C481 1.235 . S
C483 C485 1.400 . S
C483 N486 1.351 . S
C483 C488 1.501 . S
C484 C485 1.387 . S
C484 N487 1.341 . S
C485 C483 1.400 . S
C485 C484 1.387 . S
N486 Co477 2.022 . S
N486 C483 1.351 . S
N486 N487 1.365 . S
N487 C484 1.341 . S
N487 N486 1.365 . S
N487 H507 0.862 . S
C488 C483 1.501 . S
C488 H489 0.961 . S
C488 H490 0.961 . S
C488 H491 0.960 . S
H489 C488 0.961 . S
H490 C488 0.961 . S
H491 C488 0.960 . S
C492 N493 1.342 . S
C492 C496 1.401 . S
C492 C497 1.499 . S
N493 Co476 1.989 . S
N493 C492 1.342 . S
N493 N494 1.388 . S
N494 Co477 1.993 . S
N494 N493 1.388 . S
N494 C495 1.346 . S
C495 N494 1.346 . S
C495 C496 1.396 . S
C495 C505 1.510 . S
C496 C492 1.401 . S
C496 C495 1.396 . S
C497 C492 1.499 . S
C497 H498 0.959 . S
C497 H499 0.960 . S
C497 H500 0.961 . S
H498 C497 0.959 . S
H499 C497 0.960 . S
H500 C497 0.961 . S
O501 Co476 1.967 . S
O501 C509 1.258 . S
O502 Co477 1.941 . S
O502 C509 1.266 . S
H503 C505 0.959 . S
H504 C505 0.961 . S
C505 C495 1.510 . S
C505 H503 0.959 . S
C505 H504 0.961 . S
C505 H506 0.960 . S
H506 C505 0.960 . S
H507 N487 0.862 . S
O508 Co476 1.920 . S
O508 C481 1.289 . S
C509 O501 1.258 . S
C509 O502 1.266 . S
Co510 O513 1.970 . S
Co510 N527 1.989 . S
Co510 O535 1.967 . S
Co510 O542 1.920 . S
Co511 O514 1.966 . S
Co511 N520 2.022 . S
Co511 N528 1.993 . S
Co511 O536 1.941 . S
C512 O513 1.258 . S
C512 O514 1.263 . S
O513 Co510 1.970 . S
O513 C512 1.258 . S
O514 Co511 1.966 . S
O514 C512 1.263 . S
C515 O516 1.235 . S
C515 O542 1.289 . S
O516 C515 1.235 . S
C517 C519 1.400 . S
C517 N520 1.351 . S
C517 C522 1.501 . S
C518 C519 1.387 . S
C518 N521 1.341 . S
C519 C517 1.400 . S
C519 C518 1.387 . S
N520 Co511 2.022 . S
N520 C517 1.351 . S
N520 N521 1.365 . S
N521 C518 1.341 . S
N521 N520 1.365 . S
N521 H541 0.862 . S
C522 C517 1.501 . S
C522 H523 0.961 . S
C522 H524 0.961 . S
C522 H525 0.960 . S
H523 C522 0.961 . S
H524 C522 0.961 . S
H525 C522 0.960 . S
C526 N527 1.342 . S
C526 C530 1.401 . S
C526 C531 1.499 . S
N527 Co510 1.989 . S
N527 C526 1.342 . S
N527 N528 1.388 . S
N528 Co511 1.993 . S
N528 N527 1.388 . S
N528 C529 1.346 . S
C529 N528 1.346 . S
C529 C530 1.396 . S
C529 C539 1.510 . S
C530 C526 1.401 . S
C530 C529 1.396 . S
C531 C526 1.499 . S
C531 H532 0.959 . S
C531 H533 0.960 . S
C531 H534 0.961 . S
H532 C531 0.959 . S
H533 C531 0.960 . S
H534 C531 0.961 . S
O535 Co510 1.967 . S
O535 C543 1.258 . S
O536 Co511 1.941 . S
O536 C543 1.266 . S
H537 C539 0.959 . S
H538 C539 0.961 . S
C539 C529 1.510 . S
C539 H537 0.959 . S
C539 H538 0.961 . S
C539 H540 0.960 . S
H540 C539 0.960 . S
H541 N521 0.862 . S
O542 Co510 1.920 . S
O542 C515 1.289 . S
C543 O535 1.258 . S
C543 O536 1.266 . S
C544 C545 1.387 . S
C544 H548 0.950 . S
C544 C553 1.390 1_445 S
C545 C544 1.387 . S
C545 C547 1.387 . S
H546 C553 0.950 . S
C547 C545 1.387 . S
C547 C549 1.390 1_445 S
C547 H551 0.950 . S
H548 C544 0.950 . S
C549 C547 1.390 1_665 S
C549 C550 1.387 . S
C549 H552 0.950 . S
C550 C549 1.387 . S
C550 C553 1.387 . S
H551 C547 0.950 . S
H552 C549 0.950 . S
C553 C544 1.390 1_665 S
C553 H546 0.950 . S
C553 C550 1.387 . S
C554 C555 1.387 . S
C554 H558 0.950 . S
C554 C563 1.390 1_465 S
C555 C554 1.387 . S
C555 C557 1.387 . S
H556 C563 0.950 . S
C557 C555 1.387 . S
C557 C559 1.390 1_465 S
C557 H561 0.950 . S
H558 C554 0.950 . S
C559 C557 1.390 1_645 S
C559 C560 1.387 . S
C559 H562 0.950 . S
C560 C559 1.387 . S
C560 C563 1.387 . S
H561 C557 0.950 . S
H562 C559 0.950 . S
C563 C554 1.390 1_645 S
C563 H556 0.950 . S
C563 C560 1.387 . S
C564 C565 1.387 . S
C564 H568 0.950 . S
C564 C573 1.390 . S
C565 C564 1.387 . S
C565 C567 1.387 . S
H566 C573 0.950 . S
C567 C565 1.387 . S
C567 C569 1.390 . S
C567 H571 0.950 . S
H568 C564 0.950 . S
C569 C567 1.390 . S
C569 C570 1.387 . S
C569 H572 0.950 . S
C570 C569 1.387 . S
C570 C573 1.387 . S
H571 C567 0.950 . S
H572 C569 0.950 . S
C573 C564 1.390 . S
C573 H566 0.950 . S
C573 C570 1.387 . S
C574 C575 1.387 . S
C574 H578 0.950 . S
C574 C583 1.390 . S
C575 C574 1.387 . S
C575 C577 1.387 . S
H576 C583 0.950 . S
C577 C575 1.387 . S
C577 C579 1.390 . S
C577 H581 0.950 . S
H578 C574 0.950 . S
C579 C577 1.390 . S
C579 C580 1.387 . S
C579 H582 0.950 . S
C580 C579 1.387 . S
C580 C583 1.387 . S
H581 C577 0.950 . S
H582 C579 0.950 . S
C583 C574 1.390 . S
C583 H576 0.950 . S
C583 C580 1.387 . S
C584 C585 1.387 . S
C584 H588 0.950 . S
C584 C593 1.390 1_445 S
C585 C584 1.387 . S
C585 C587 1.387 . S
H586 C593 0.950 . S
C587 C585 1.387 . S
C587 C589 1.390 1_445 S
C587 H591 0.950 . S
H588 C584 0.950 . S
C589 C587 1.390 1_665 S
C589 C590 1.387 . S
C589 H592 0.950 . S
C590 C589 1.387 . S
C590 C593 1.387 . S
H591 C587 0.950 . S
H592 C589 0.950 . S
C593 C584 1.390 1_665 S
C593 H586 0.950 . S
C593 C590 1.387 . S
C594 C595 1.387 . S
C594 H598 0.950 . S
C594 C603 1.390 1_465 S
C595 C594 1.387 . S
C595 C597 1.387 . S
H596 C603 0.950 . S
C597 C595 1.387 . S
C597 C599 1.390 1_465 S
C597 H601 0.950 . S
H598 C594 0.950 . S
C599 C597 1.390 1_645 S
C599 C600 1.387 . S
C599 H602 0.950 . S
C600 C599 1.387 . S
C600 C603 1.387 . S
H601 C597 0.950 . S
H602 C599 0.950 . S
C603 C594 1.390 1_645 S
C603 H596 0.950 . S
C603 C600 1.387 . S
C604 C605 1.387 . S
C604 H608 0.950 . S
C604 C613 1.390 . S
C605 C604 1.387 . S
C605 C607 1.387 . S
H606 C613 0.950 . S
C607 C605 1.387 . S
C607 C609 1.390 . S
C607 H611 0.950 . S
H608 C604 0.950 . S
C609 C607 1.390 . S
C609 C610 1.387 . S
C609 H612 0.950 . S
C610 C609 1.387 . S
C610 C613 1.387 . S
H611 C607 0.950 . S
H612 C609 0.950 . S
C613 C604 1.390 . S
C613 H606 0.950 . S
C613 C610 1.387 . S
C614 C615 1.387 . S
C614 H618 0.950 . S
C614 C623 1.390 . S
C615 C614 1.387 . S
C615 C617 1.387 . S
H616 C623 0.950 . S
C617 C615 1.387 . S
C617 C619 1.390 . S
C617 H621 0.950 . S
H618 C614 0.950 . S
C619 C617 1.390 . S
C619 C620 1.387 . S
C619 H622 0.950 . S
C620 C619 1.387 . S
C620 C623 1.387 . S
H621 C617 0.950 . S
H622 C619 0.950 . S
C623 C614 1.390 . S
C623 H616 0.950 . S
C623 C620 1.387 . S
C624 C625 1.387 . S
C624 H628 0.950 . S
C624 C633 1.390 . S
C625 C624 1.387 . S
C625 C627 1.387 . S
H626 C633 0.950 . S
C627 C625 1.387 . S
C627 C629 1.390 . S
C627 H631 0.950 . S
H628 C624 0.950 . S
C629 C627 1.390 . S
C629 C630 1.387 . S
C629 H632 0.950 . S
C630 C629 1.387 . S
C630 C633 1.387 . S
H631 C627 0.950 . S
H632 C629 0.950 . S
C633 C624 1.390 . S
C633 H626 0.950 . S
C633 C630 1.387 . S
C634 C635 1.387 . S
C634 H638 0.950 . S
C634 C643 1.390 . S
C635 C634 1.387 . S
C635 C637 1.387 . S
H636 C643 0.950 . S
C637 C635 1.387 . S
C637 C639 1.390 . S
C637 H641 0.950 1_545 S
H638 C634 0.950 . S
C639 C637 1.390 . S
C639 C640 1.387 . S
C639 H642 0.950 1_545 S
C640 C639 1.387 . S
C640 C643 1.387 . S
H641 C637 0.950 1_565 S
H642 C639 0.950 1_565 S
C643 C634 1.390 . S
C643 H636 0.950 . S
C643 C640 1.387 . S
C644 C645 1.387 . S
C644 H648 0.950 1_655 S
C644 C653 1.390 . S
C645 C644 1.387 . S
C645 C647 1.387 . S
H646 C653 0.950 1_455 S
C647 C645 1.387 . S
C647 C649 1.390 . S
C647 H651 0.950 . S
H648 C644 0.950 1_455 S
C649 C647 1.390 . S
C649 C650 1.387 . S
C649 H652 0.950 . S
C650 C649 1.387 . S
C650 C653 1.387 . S
H651 C647 0.950 . S
H652 C649 0.950 . S
C653 C644 1.390 . S
C653 H646 0.950 1_655 S
C653 C650 1.387 . S
C654 C655 1.387 . S
C654 H658 0.950 1_565 S
C654 C663 1.390 . S
C655 C654 1.387 . S
C655 C657 1.387 . S
H656 C663 0.950 1_545 S
C657 C655 1.387 . S
C657 C659 1.390 . S
C657 H661 0.950 . S
H658 C654 0.950 1_545 S
C659 C657 1.390 . S
C659 C660 1.387 . S
C659 H662 0.950 . S
C660 C659 1.387 . S
C660 C663 1.387 . S
H661 C657 0.950 . S
H662 C659 0.950 . S
C663 C654 1.390 . S
C663 H656 0.950 1_565 S
C663 C660 1.387 . S
C664 C665 1.387 . S
C664 H668 0.950 . S
C664 C673 1.390 . S
C665 C664 1.387 . S
C665 C667 1.387 . S
H666 C673 0.950 . S
C667 C665 1.387 . S
C667 C669 1.390 . S
C667 H671 0.950 . S
H668 C664 0.950 . S
C669 C667 1.390 . S
C669 C670 1.387 . S
C669 H672 0.950 . S
C670 C669 1.387 . S
C670 C673 1.387 . S
H671 C667 0.950 . S
H672 C669 0.950 . S
C673 C664 1.390 . S
C673 H666 0.950 . S
C673 C670 1.387 . S
C674 C675 1.387 . S
C674 H678 0.950 . S
C674 C683 1.390 . S
C675 C674 1.387 . S
C675 C677 1.387 . S
H676 C683 0.950 . S
C677 C675 1.387 . S
C677 C679 1.390 . S
C677 H681 0.950 . S
H678 C674 0.950 . S
C679 C677 1.390 . S
C679 C680 1.387 . S
C679 H682 0.950 . S
C680 C679 1.387 . S
C680 C683 1.387 . S
H681 C677 0.950 . S
H682 C679 0.950 . S
C683 C674 1.390 . S
C683 H676 0.950 . S
C683 C680 1.387 . S
C684 C685 1.387 . S
C684 H688 0.950 . S
C684 C693 1.390 . S
C685 C684 1.387 . S
C685 C687 1.387 . S
H686 C693 0.950 . S
C687 C685 1.387 . S
C687 C689 1.390 . S
C687 H691 0.950 . S
H688 C684 0.950 . S
C689 C687 1.390 . S
C689 C690 1.387 . S
C689 H692 0.950 . S
C690 C689 1.387 . S
C690 C693 1.387 . S
H691 C687 0.950 . S
H692 C689 0.950 . S
C693 C684 1.390 . S
C693 H686 0.950 . S
C693 C690 1.387 . S
C694 C695 1.387 . S
C694 H698 0.950 . S
C694 C703 1.390 . S
C695 C694 1.387 . S
C695 C697 1.387 . S
H696 C703 0.950 . S
C697 C695 1.387 . S
C697 C699 1.390 . S
C697 H701 0.950 . S
H698 C694 0.950 . S
C699 C697 1.390 . S
C699 C700 1.387 . S
C699 H702 0.950 . S
C700 C699 1.387 . S
C700 C703 1.387 . S
H701 C697 0.950 . S
H702 C699 0.950 . S
C703 C694 1.390 . S
C703 H696 0.950 . S
C703 C700 1.387 . S
C704 C705 1.387 . S
C704 H708 0.950 . S
C704 C713 1.390 . S
C705 C704 1.387 . S
C705 C707 1.387 . S
H706 C713 0.950 . S
C707 C705 1.387 . S
C707 C709 1.390 . S
C707 H711 0.950 . S
H708 C704 0.950 . S
C709 C707 1.390 . S
C709 C710 1.387 . S
C709 H712 0.950 . S
C710 C709 1.387 . S
C710 C713 1.387 . S
H711 C707 0.950 . S
H712 C709 0.950 . S
C713 C704 1.390 . S
C713 H706 0.950 . S
C713 C710 1.387 . S
C714 C715 1.387 . S
C714 H718 0.950 . S
C714 C723 1.390 . S
C715 C714 1.387 . S
C715 C717 1.387 . S
H716 C723 0.950 . S
C717 C715 1.387 . S
C717 C719 1.390 . S
C717 H721 0.950 . S
H718 C714 0.950 . S
C719 C717 1.390 . S
C719 C720 1.387 . S
C719 H722 0.950 . S
C720 C719 1.387 . S
C720 C723 1.387 . S
H721 C717 0.950 . S
H722 C719 0.950 . S
C723 C714 1.390 . S
C723 H716 0.950 . S
C723 C720 1.387 . S
C724 C725 1.387 . S
C724 H728 0.950 . S
C724 C733 1.390 . S
C725 C724 1.387 . S
C725 C727 1.387 . S
H726 C733 0.950 . S
C727 C725 1.387 . S
C727 C729 1.390 . S
C727 H731 0.950 . S
H728 C724 0.950 . S
C729 C727 1.390 . S
C729 C730 1.387 . S
C729 H732 0.950 . S
C730 C729 1.387 . S
C730 C733 1.387 . S
H731 C727 0.950 . S
H732 C729 0.950 . S
C733 C724 1.390 . S
C733 H726 0.950 . S
C733 C730 1.387 . S
C734 C735 1.387 . S
C734 H738 0.950 . S
C734 C743 1.390 . S
C735 C734 1.387 . S
C735 C737 1.387 . S
H736 C743 0.950 . S
C737 C735 1.387 . S
C737 C739 1.390 . S
C737 H741 0.950 . S
H738 C734 0.950 . S
C739 C737 1.390 . S
C739 C740 1.387 . S
C739 H742 0.950 . S
C740 C739 1.387 . S
C740 C743 1.387 . S
H741 C737 0.950 . S
H742 C739 0.950 . S
C743 C734 1.390 . S
C743 H736 0.950 . S
C743 C740 1.387 . S
C744 C745 1.387 . S
C744 H748 0.950 . S
C744 C753 1.390 . S
C745 C744 1.387 . S
C745 C747 1.387 . S
H746 C753 0.950 . S
C747 C745 1.387 . S
C747 C749 1.390 . S
C747 H751 0.950 . S
H748 C744 0.950 . S
C749 C747 1.390 . S
C749 C750 1.387 . S
C749 H752 0.950 . S
C750 C749 1.387 . S
C750 C753 1.387 . S
H751 C747 0.950 . S
H752 C749 0.950 . S
C753 C744 1.390 . S
C753 H746 0.950 . S
C753 C750 1.387 . S
C754 C755 1.387 . S
C754 H758 0.950 . S
C754 C763 1.390 . S
C755 C754 1.387 . S
C755 C757 1.387 . S
H756 C763 0.950 . S
C757 C755 1.387 . S
C757 C759 1.390 . S
C757 H761 0.950 . S
H758 C754 0.950 . S
C759 C757 1.390 . S
C759 C760 1.387 . S
C759 H762 0.950 . S
C760 C759 1.387 . S
C760 C763 1.387 . S
H761 C757 0.950 . S
H762 C759 0.950 . S
C763 C754 1.390 . S
C763 H756 0.950 . S
C763 C760 1.387 . S
C764 C765 1.387 . S
C764 H768 0.950 . S
C764 C773 1.390 . S
C765 C764 1.387 . S
C765 C767 1.387 . S
H766 C773 0.950 . S
C767 C765 1.387 . S
C767 C769 1.390 . S
C767 H771 0.950 . S
H768 C764 0.950 . S
C769 C767 1.390 . S
C769 C770 1.387 . S
C769 H772 0.950 . S
C770 C769 1.387 . S
C770 C773 1.387 . S
H771 C767 0.950 . S
H772 C769 0.950 . S
C773 C764 1.390 . S
C773 H766 0.950 . S
C773 C770 1.387 . S
C774 C775 1.387 . S
C774 H778 0.950 . S
C774 C783 1.390 . S
C775 C774 1.387 . S
C775 C777 1.387 . S
H776 C783 0.950 . S
C777 C775 1.387 . S
C777 C779 1.390 . S
C777 H781 0.950 . S
H778 C774 0.950 . S
C779 C777 1.390 . S
C779 C780 1.387 . S
C779 H782 0.950 . S
C780 C779 1.387 . S
C780 C783 1.387 . S
H781 C777 0.950 . S
H782 C779 0.950 . S
C783 C774 1.390 . S
C783 H776 0.950 . S
C783 C780 1.387 . S
C784 C785 1.387 . S
C784 H788 0.950 . S
C784 C793 1.390 . S
C785 C784 1.387 . S
C785 C787 1.387 . S
H786 C793 0.950 . S
C787 C785 1.387 . S
C787 C789 1.390 . S
C787 H791 0.950 . S
H788 C784 0.950 . S
C789 C787 1.390 . S
C789 C790 1.387 . S
C789 H792 0.950 . S
C790 C789 1.387 . S
C790 C793 1.387 . S
H791 C787 0.950 . S
H792 C789 0.950 . S
C793 C784 1.390 . S
C793 H786 0.950 . S
C793 C790 1.387 . S
C794 C795 1.387 . S
C794 H798 0.950 . S
C794 C803 1.390 . S
C795 C794 1.387 . S
C795 C797 1.387 . S
H796 C803 0.950 . S
C797 C795 1.387 . S
C797 C799 1.390 . S
C797 H801 0.950 . S
H798 C794 0.950 . S
C799 C797 1.390 . S
C799 C800 1.387 . S
C799 H802 0.950 . S
C800 C799 1.387 . S
C800 C803 1.387 . S
H801 C797 0.950 . S
H802 C799 0.950 . S
C803 C794 1.390 . S
C803 H796 0.950 . S
C803 C800 1.387 . S
C804 C805 1.387 . S
C804 H808 0.950 . S
C804 C813 1.390 . S
C805 C804 1.387 . S
C805 C807 1.387 . S
H806 C813 0.950 . S
C807 C805 1.387 . S
C807 C809 1.390 . S
C807 H811 0.950 . S
H808 C804 0.950 . S
C809 C807 1.390 . S
C809 C810 1.387 . S
C809 H812 0.950 . S
C810 C809 1.387 . S
C810 C813 1.387 . S
H811 C807 0.950 . S
H812 C809 0.950 . S
C813 C804 1.390 . S
C813 H806 0.950 . S
C813 C810 1.387 . S
C814 C815 1.387 . S
C814 H818 0.950 . S
C814 C823 1.390 . S
C815 C814 1.387 . S
C815 C817 1.387 . S
H816 C823 0.950 . S
C817 C815 1.387 . S
C817 C819 1.390 . S
C817 H821 0.950 . S
H818 C814 0.950 . S
C819 C817 1.390 . S
C819 C820 1.387 . S
C819 H822 0.950 . S
C820 C819 1.387 . S
C820 C823 1.387 . S
H821 C817 0.950 . S
H822 C819 0.950 . S
C823 C814 1.390 . S
C823 H816 0.950 . S
C823 C820 1.387 . S
C824 C825 1.387 . S
C824 H828 0.950 . S
C824 C833 1.390 . S
C825 C824 1.387 . S
C825 C827 1.387 . S
H826 C833 0.950 . S
C827 C825 1.387 . S
C827 C829 1.390 . S
C827 H831 0.950 . S
H828 C824 0.950 . S
C829 C827 1.390 . S
C829 C830 1.387 . S
C829 H832 0.950 . S
C830 C829 1.387 . S
C830 C833 1.387 . S
H831 C827 0.950 . S
H832 C829 0.950 . S
C833 C824 1.390 . S
C833 H826 0.950 . S
C833 C830 1.387 . S
C834 C835 1.387 . S
C834 H838 0.950 . S
C834 C843 1.390 . S
C835 C834 1.387 . S
C835 C837 1.387 . S
H836 C843 0.950 . S
C837 C835 1.387 . S
C837 C839 1.390 . S
C837 H841 0.950 . S
H838 C834 0.950 . S
C839 C837 1.390 . S
C839 C840 1.387 . S
C839 H842 0.950 . S
C840 C839 1.387 . S
C840 C843 1.387 . S
H841 C837 0.950 . S
H842 C839 0.950 . S
C843 C834 1.390 . S
C843 H836 0.950 . S
C843 C840 1.387 . S
C844 C845 1.387 . S
C844 H848 0.950 . S
C844 C853 1.390 . S
C845 C844 1.387 . S
C845 C847 1.387 . S
H846 C853 0.950 . S
C847 C845 1.387 . S
C847 C849 1.390 . S
C847 H851 0.950 . S
H848 C844 0.950 . S
C849 C847 1.390 . S
C849 C850 1.387 . S
C849 H852 0.950 . S
C850 C849 1.387 . S
C850 C853 1.387 . S
H851 C847 0.950 . S
H852 C849 0.950 . S
C853 C844 1.390 . S
C853 H846 0.950 . S
C853 C850 1.387 . S
C854 C855 1.387 . S
C854 H858 0.950 . S
C854 C863 1.390 . S
C855 C854 1.387 . S
C855 C857 1.387 . S
H856 C863 0.950 . S
C857 C855 1.387 . S
C857 C859 1.390 . S
C857 H861 0.950 . S
H858 C854 0.950 . S
C859 C857 1.390 . S
C859 C860 1.387 . S
C859 H862 0.950 . S
C860 C859 1.387 . S
C860 C863 1.387 . S
H861 C857 0.950 . S
H862 C859 0.950 . S
C863 C854 1.390 . S
C863 H856 0.950 . S
C863 C860 1.387 . S
C864 C865 1.387 . S
C864 H868 0.950 . S
C864 C873 1.390 . S
C865 C864 1.387 . S
C865 C867 1.387 . S
H866 C873 0.950 . S
C867 C865 1.387 . S
C867 C869 1.390 . S
C867 H871 0.950 . S
H868 C864 0.950 . S
C869 C867 1.390 . S
C869 C870 1.387 . S
C869 H872 0.950 . S
C870 C869 1.387 . S
C870 C873 1.387 . S
H871 C867 0.950 . S
H872 C869 0.950 . S
C873 C864 1.390 . S
C873 H866 0.950 . S
C873 C870 1.387 . S
C874 C875 1.387 . S
C874 H878 0.950 . S
C874 C883 1.390 . S
C875 C874 1.387 . S
C875 C877 1.387 . S
H876 C883 0.950 . S
C877 C875 1.387 . S
C877 C879 1.390 . S
C877 H881 0.950 . S
H878 C874 0.950 . S
C879 C877 1.390 . S
C879 C880 1.387 . S
C879 H882 0.950 . S
C880 C879 1.387 . S
C880 C883 1.387 . S
H881 C877 0.950 . S
H882 C879 0.950 . S
C883 C874 1.390 . S
C883 H876 0.950 . S
C883 C880 1.387 . S
C884 C885 1.387 . S
C884 H888 0.950 . S
C884 C893 1.390 . S
C885 C884 1.387 . S
C885 C887 1.387 . S
H886 C893 0.950 . S
C887 C885 1.387 . S
C887 C889 1.390 . S
C887 H891 0.950 . S
H888 C884 0.950 . S
C889 C887 1.390 . S
C889 C890 1.387 . S
C889 H892 0.950 . S
C890 C889 1.387 . S
C890 C893 1.387 . S
H891 C887 0.950 . S
H892 C889 0.950 . S
C893 C884 1.390 . S
C893 H886 0.950 . S
C893 C890 1.387 . S
C894 C895 1.387 . S
C894 H898 0.950 . S
C894 C903 1.390 . S
C895 C894 1.387 . S
C895 C897 1.387 . S
H896 C903 0.950 . S
C897 C895 1.387 . S
C897 C899 1.390 . S
C897 H901 0.950 . S
H898 C894 0.950 . S
C899 C897 1.390 . S
C899 C900 1.387 . S
C899 H902 0.950 . S
C900 C899 1.387 . S
C900 C903 1.387 . S
H901 C897 0.950 . S
H902 C899 0.950 . S
C903 C894 1.390 . S
C903 H896 0.950 . S
C903 C900 1.387 . S
C904 C905 1.387 . S
C904 H908 0.950 . S
C904 C913 1.390 . S
C905 C904 1.387 . S
C905 C907 1.387 . S
H906 C913 0.950 . S
C907 C905 1.387 . S
C907 C909 1.390 . S
C907 H911 0.950 . S
H908 C904 0.950 . S
C909 C907 1.390 . S
C909 C910 1.387 . S
C909 H912 0.950 . S
C910 C909 1.387 . S
C910 C913 1.387 . S
H911 C907 0.950 . S
H912 C909 0.950 . S
C913 C904 1.390 . S
C913 H906 0.950 . S
C913 C910 1.387 . S
C914 C915 1.387 . S
C914 H918 0.950 . S
C914 C923 1.390 . S
C915 C914 1.387 . S
C915 C917 1.387 . S
H916 C923 0.950 . S
C917 C915 1.387 . S
C917 C919 1.390 . S
C917 H921 0.950 . S
H918 C914 0.950 . S
C919 C917 1.390 . S
C919 C920 1.387 . S
C919 H922 0.950 . S
C920 C919 1.387 . S
C920 C923 1.387 . S
H921 C917 0.950 . S
H922 C919 0.950 . S
C923 C914 1.390 . S
C923 H916 0.950 . S
C923 C920 1.387 . S
C924 C925 1.387 . S
C924 H928 0.950 . S
C924 C933 1.390 . S
C925 C924 1.387 . S
C925 C927 1.387 . S
H926 C933 0.950 . S
C927 C925 1.387 . S
C927 C929 1.390 . S
C927 H931 0.950 . S
H928 C924 0.950 . S
C929 C927 1.390 . S
C929 C930 1.387 . S
C929 H932 0.950 . S
C930 C929 1.387 . S
C930 C933 1.387 . S
H931 C927 0.950 . S
H932 C929 0.950 . S
C933 C924 1.390 . S
C933 H926 0.950 . S
C933 C930 1.387 . S
C934 C935 1.387 . S
C934 H938 0.950 . S
C934 C943 1.390 . S
C935 C934 1.387 . S
C935 C937 1.387 . S
H936 C943 0.950 . S
C937 C935 1.387 . S
C937 C939 1.390 . S
C937 H941 0.950 . S
H938 C934 0.950 . S
C939 C937 1.390 . S
C939 C940 1.387 . S
C939 H942 0.950 . S
C940 C939 1.387 . S
C940 C943 1.387 . S
H941 C937 0.950 . S
H942 C939 0.950 . S
C943 C934 1.390 . S
C943 H936 0.950 . S
C943 C940 1.387 . S
C545 C33 1.749 . S
C550 C101 1.749 . S
C555 C135 1.749 . S
C560 C67 1.749 . S
C565 C237 1.749 . S
C570 C169 1.749 . S
C575 C203 1.750 . S
C580 C271 1.750 . S
C585 C373 1.854 . S
C590 C305 1.854 . S
C595 C339 1.853 . S
C600 C407 1.853 . S
C605 C509 1.854 . S
C610 C441 1.854 . S
C615 C475 1.853 . S
C620 C543 1.853 . S
C625 C5 1.515 1_556 S
C630 C342 1.528 . S
C635 C376 1.527 . S
C640 C39 1.514 . S
C645 C274 1.528 . S
C650 C73 1.515 1_556 S
C655 C308 1.528 . S
C660 C107 1.516 . S
C665 C478 1.527 . S
C670 C141 1.514 1_554 S
C675 C512 1.527 . S
C680 C175 1.514 . S
C685 C410 1.527 . S
C690 C209 1.514 1_554 S
C695 C444 1.528 . S
C700 C243 1.515 . S
C705 C9 1.547 . S
C710 C247 1.550 . S
C715 C43 1.551 . S
C720 C145 1.548 . S
C725 C179 1.549 . S
C730 C77 1.547 . S
C735 C213 1.551 . S
C740 C111 1.548 . S
C745 C292 2.101 . S
C750 C530 2.100 . S
C755 C326 2.101 . S
C760 C428 2.101 . S
C765 C360 2.101 . S
C770 C462 2.100 . S
C775 C394 2.101 . S
C780 C496 2.100 . S
C785 C481 1.229 . S
C790 C20 1.228 . S
C795 C54 1.226 . S
C800 C515 1.227 . S
C805 C413 1.231 . S
C810 C88 1.229 . S
C815 C447 1.230 . S
C820 C122 1.229 . S
C825 C345 1.226 . S
C830 C156 1.225 . S
C835 C190 1.227 . S
C840 C379 1.228 . S
C845 C277 1.231 . S
C850 C224 1.229 . S
C855 C258 1.227 . S
C860 C311 1.228 . S
C865 C206 1.049 . S
C870 C281 1.040 . S
C875 C240 1.050 . S
C880 C315 1.039 . S
C885 C138 1.049 . S
C890 C349 1.040 . S
C895 C383 1.041 . S
C900 C172 1.050 . S
C905 C70 1.050 . S
C910 C417 1.039 . S
C915 C451 1.039 . S
C920 C104 1.050 . S
C925 C485 1.039 . S
C930 C2 1.050 . S
C935 C36 1.049 . S
C940 C519 1.040 . S
