# Generated by pormake.
# Topology zfg, (5)-cn, num edge types: 1
# Building blocks:
#     Node 0, Type 0, BuildingBlock: XOMCOT_clean_sbu_1, # of connection points: 5
#     Node 1, Type 0, BuildingBlock: XOMCOT_clean_sbu_1, # of connection points: 5
#     Node 2, Type 0, BuildingBlock: XOMCOT_clean_sbu_1, # of connection points: 5
#     Node 3, Type 0, BuildingBlock: XOMCOT_clean_sbu_1, # of connection points: 5
#     Node 4, Type 0, BuildingBlock: XOMCOT_clean_sbu_1, # of connection points: 5
#     Node 5, Type 0, BuildingBlock: XOMCOT_clean_sbu_1, # of connection points: 5
#     Node 6, Type 0, BuildingBlock: XOMCOT_clean_sbu_1, # of connection points: 5
#     Node 7, Type 0, BuildingBlock: XOMCOT_clean_sbu_1, # of connection points: 5
#     Node 8, Type 0, BuildingBlock: XOMCOT_clean_sbu_1, # of connection points: 5
#     Node 9, Type 0, BuildingBlock: XOMCOT_clean_sbu_1, # of connection points: 5
#     Node 10, Type 0, BuildingBlock: XOMCOT_clean_sbu_1, # of connection points: 5
#     Node 11, Type 0, BuildingBlock: XOMCOT_clean_sbu_1, # of connection points: 5
#     Node 12, Type 0, BuildingBlock: XOMCOT_clean_sbu_1, # of connection points: 5
#     Node 13, Type 0, BuildingBlock: XOMCOT_clean_sbu_1, # of connection points: 5
#     Node 14, Type 0, BuildingBlock: XOMCOT_clean_sbu_1, # of connection points: 5
#     Node 15, Type 0, BuildingBlock: XOMCOT_clean_sbu_1, # of connection points: 5
#     Edge 16, Type (0, 0), BuildingBlock: EZIPEK_clean_linker_0, # of connection points: 2
#     Edge 17, Type (0, 0), BuildingBlock: EZIPEK_clean_linker_0, # of connection points: 2
#     Edge 18, Type (0, 0), BuildingBlock: EZIPEK_clean_linker_0, # of connection points: 2
#     Edge 19, Type (0, 0), BuildingBlock: EZIPEK_clean_linker_0, # of connection points: 2
#     Edge 20, Type (0, 0), BuildingBlock: EZIPEK_clean_linker_0, # of connection points: 2
#     Edge 21, Type (0, 0), BuildingBlock: EZIPEK_clean_linker_0, # of connection points: 2
#     Edge 22, Type (0, 0), BuildingBlock: EZIPEK_clean_linker_0, # of connection points: 2
#     Edge 23, Type (0, 0), BuildingBlock: EZIPEK_clean_linker_0, # of connection points: 2
#     Edge 24, Type (0, 0), BuildingBlock: EZIPEK_clean_linker_0, # of connection points: 2
#     Edge 25, Type (0, 0), BuildingBlock: EZIPEK_clean_linker_0, # of connection points: 2
#     Edge 26, Type (0, 0), BuildingBlock: EZIPEK_clean_linker_0, # of connection points: 2
#     Edge 27, Type (0, 0), BuildingBlock: EZIPEK_clean_linker_0, # of connection points: 2
#     Edge 28, Type (0, 0), BuildingBlock: EZIPEK_clean_linker_0, # of connection points: 2
#     Edge 29, Type (0, 0), BuildingBlock: EZIPEK_clean_linker_0, # of connection points: 2
#     Edge 30, Type (0, 0), BuildingBlock: EZIPEK_clean_linker_0, # of connection points: 2
#     Edge 31, Type (0, 0), BuildingBlock: EZIPEK_clean_linker_0, # of connection points: 2
#     Edge 32, Type (0, 0), BuildingBlock: EZIPEK_clean_linker_0, # of connection points: 2
#     Edge 33, Type (0, 0), BuildingBlock: EZIPEK_clean_linker_0, # of connection points: 2
#     Edge 34, Type (0, 0), BuildingBlock: EZIPEK_clean_linker_0, # of connection points: 2
#     Edge 35, Type (0, 0), BuildingBlock: EZIPEK_clean_linker_0, # of connection points: 2
#     Edge 36, Type (0, 0), BuildingBlock: EZIPEK_clean_linker_0, # of connection points: 2
#     Edge 37, Type (0, 0), BuildingBlock: EZIPEK_clean_linker_0, # of connection points: 2
#     Edge 38, Type (0, 0), BuildingBlock: EZIPEK_clean_linker_0, # of connection points: 2
#     Edge 39, Type (0, 0), BuildingBlock: EZIPEK_clean_linker_0, # of connection points: 2
#     Edge 40, Type (0, 0), BuildingBlock: EZIPEK_clean_linker_0, # of connection points: 2
#     Edge 41, Type (0, 0), BuildingBlock: EZIPEK_clean_linker_0, # of connection points: 2
#     Edge 42, Type (0, 0), BuildingBlock: EZIPEK_clean_linker_0, # of connection points: 2
#     Edge 43, Type (0, 0), BuildingBlock: EZIPEK_clean_linker_0, # of connection points: 2
#     Edge 44, Type (0, 0), BuildingBlock: EZIPEK_clean_linker_0, # of connection points: 2
#     Edge 45, Type (0, 0), BuildingBlock: EZIPEK_clean_linker_0, # of connection points: 2
#     Edge 46, Type (0, 0), BuildingBlock: EZIPEK_clean_linker_0, # of connection points: 2
#     Edge 47, Type (0, 0), BuildingBlock: EZIPEK_clean_linker_0, # of connection points: 2
#     Edge 48, Type (0, 0), BuildingBlock: EZIPEK_clean_linker_0, # of connection points: 2
#     Edge 49, Type (0, 0), BuildingBlock: EZIPEK_clean_linker_0, # of connection points: 2
#     Edge 50, Type (0, 0), BuildingBlock: EZIPEK_clean_linker_0, # of connection points: 2
#     Edge 51, Type (0, 0), BuildingBlock: EZIPEK_clean_linker_0, # of connection points: 2
#     Edge 52, Type (0, 0), BuildingBlock: EZIPEK_clean_linker_0, # of connection points: 2
#     Edge 53, Type (0, 0), BuildingBlock: EZIPEK_clean_linker_0, # of connection points: 2
#     Edge 54, Type (0, 0), BuildingBlock: EZIPEK_clean_linker_0, # of connection points: 2
#     Edge 55, Type (0, 0), BuildingBlock: EZIPEK_clean_linker_0, # of connection points: 2
# Relax obj value: 0.095
# Max RMSD: 0.132
# Mean RMSD: 0.132
data_MOF--net-zfg--node1-XOMCOT_clean_sbu_1--edge1-EZIPEK_clean_linker_0
_symmetry_space_group_name_H-M    P1
_symmetry_Int_Tables_number       1
_symmetry_cell_setting            triclinic
loop_
_symmetry_equiv_pos_as_xyz
'x, y, z'
_cell_length_a     33.064105
_cell_length_b     33.193705
_cell_length_c     38.382848
_cell_angle_alpha  90.116375
_cell_angle_beta   89.894362
_cell_angle_gamma 90.081374
loop_
_atom_site_label
_atom_site_type_symbol
_atom_site_fract_x
_atom_site_fract_y
_atom_site_fract_z
_atom_type_partial_charge
C0 C 0.04598 0.227 0.21059 0.0
C1 C 0.06776 0.19166 0.21161 0.0
N2 N 0.09394 0.19173 0.18467 0.0
N3 N 0.05866 0.24908 0.18324 0.0
C4 C 0.08774 0.22678 0.16789 0.0
H5 H 0.02397 0.23703 0.22959 0.0
Co6 Co 0.04629 0.30246 0.1754 0.0
C7 C 0.0518 0.31443 0.09906 0.0
O8 O 0.01709 0.33331 0.10226 0.0
N9 N 0.03615 0.35782 0.16851 0.0
C10 C 0.05625 0.42062 0.15736 0.0
C11 C 0.06643 0.38089 0.1556 0.0
C12 C 0.00791 0.38493 0.17893 0.0
N13 N 0.0196 0.42304 0.17202 0.0
O14 O 0.09728 0.31684 0.1963 0.0
H15 H 0.09525 0.3695 0.14666 0.0
H16 H 0.98059 0.37788 0.193 0.0
O17 O 0.06886 0.2997 0.1264 0.0
C18 C 0.08915 0.32725 0.22765 0.0
O19 O 0.05096 0.32665 0.2373 0.0
N20 N 0.99441 0.28642 0.1602 0.0
C21 C 0.92205 0.24282 0.15883 0.0
C22 C 0.95323 0.23402 0.13525 0.0
C23 C 0.98915 0.25626 0.13626 0.0
C24 C 0.96382 0.29584 0.18265 0.0
C25 C 0.92669 0.27583 0.18125 0.0
H26 H 0.01411 0.24607 0.12048 0.0
H27 H 0.96953 0.31541 0.20451 0.0
H28 H 0.10626 0.23717 0.14648 0.0
H29 H 0.06568 0.16841 0.23128 0.0
H30 H 0.07493 0.44601 0.14988 0.0
H31 H 0.95103 0.20826 0.11798 0.0
H32 H 0.90359 0.28289 0.20036 0.0
C33 C 0.79203 0.05325 0.19035 0.0
C34 C 0.82231 0.08133 0.1882 0.0
N35 N 0.80701 0.11501 0.17399 0.0
N36 N 0.75765 0.06863 0.17691 0.0
C37 C 0.76762 0.10673 0.16754 0.0
H38 H 0.79501 0.02359 0.20155 0.0
Co39 Co 0.70814 0.04086 0.17409 0.0
C40 C 0.68716 0.04719 0.09803 0.0
O41 O 0.67796 0.00886 0.09742 0.0
N42 N 0.65758 0.01224 0.17181 0.0
C43 C 0.60971 0.96766 0.15772 0.0
C44 C 0.65023 0.97571 0.15723 0.0
C45 C 0.62051 0.02424 0.18303 0.0
N46 N 0.59082 0.99804 0.17414 0.0
O47 O 0.68156 0.08542 0.19636 0.0
H48 H 0.67239 0.95637 0.14507 0.0
H49 H 0.61489 0.05212 0.1968 0.0
O50 O 0.6995 0.06375 0.12638 0.0
C51 C 0.68795 0.08191 0.22911 0.0
O52 O 0.71236 0.0533 0.23983 0.0
N53 N 0.7359 0.99588 0.15786 0.0
C54 C 0.78689 0.92992 0.153 0.0
C55 C 0.78378 0.95699 0.12511 0.0
C56 C 0.75875 0.99075 0.1285 0.0
C57 C 0.73779 0.96891 0.18451 0.0
C58 C 0.76297 0.93571 0.1826 0.0
H59 H 0.75949 0.0134 0.10854 0.0
H60 H 0.72084 0.97447 0.20817 0.0
H61 H 0.74642 0.12808 0.15668 0.0
H62 H 0.85307 0.07782 0.19735 0.0
H63 H 0.59506 0.94158 0.14635 0.0
H64 H 0.80237 0.95336 0.10206 0.0
H65 H 0.76496 0.91551 0.20468 0.0
C66 C 0.9447 0.77953 0.22208 0.0
C67 C 0.9207 0.81303 0.2183 0.0
N68 N 0.89637 0.80683 0.19073 0.0
N69 N 0.93524 0.75255 0.19703 0.0
C70 C 0.90551 0.77002 0.17844 0.0
H71 H 0.96856 0.77566 0.24102 0.0
Co72 Co 0.96083 0.70374 0.18876 0.0
C73 C 0.95559 0.70215 0.1107 0.0
O74 O 0.99509 0.70378 0.10852 0.0
N75 N 0.98599 0.65287 0.18034 0.0
C76 C 0.02467 0.6028 0.16014 0.0
C77 C 0.01895 0.64371 0.16075 0.0
C78 C 0.97245 0.61637 0.19127 0.0
N79 N 0.99533 0.58592 0.17928 0.0
O80 O 0.91473 0.67677 0.20868 0.0
H81 H 0.03815 0.66505 0.14749 0.0
H82 H 0.94596 0.61146 0.20718 0.0
O83 O 0.93798 0.70154 0.14055 0.0
C84 C 0.9202 0.6787 0.2417 0.0
O85 O 0.9522 0.69808 0.25323 0.0
N86 N 0.0075 0.73244 0.17517 0.0
C87 C 0.07271 0.78576 0.17626 0.0
C88 C 0.03811 0.79448 0.15664 0.0
C89 C 0.00603 0.76714 0.15604 0.0
C90 C 0.04093 0.72391 0.19461 0.0
C91 C 0.07467 0.74903 0.19402 0.0
H92 H 0.97881 0.7754 0.14236 0.0
H93 H 0.0408 0.69837 0.21205 0.0
H94 H 0.89141 0.75676 0.15576 0.0
H95 H 0.92198 0.84041 0.23363 0.0
H96 H 0.04833 0.58657 0.14656 0.0
H97 H 0.03521 0.82294 0.14312 0.0
H98 H 0.10074 0.74153 0.20977 0.0
C99 C 0.2253 0.96229 0.21318 0.0
C100 C 0.19052 0.9399 0.21588 0.0
N101 N 0.19491 0.90693 0.19584 0.0
N102 N 0.25104 0.9439 0.19094 0.0
C103 C 0.23193 0.90979 0.18118 0.0
H104 H 0.23129 0.99056 0.22624 0.0
Co105 Co 0.30077 0.96518 0.17847 0.0
C106 C 0.30465 0.94759 0.10085 0.0
O107 O 0.30978 0.98578 0.0938 0.0
N108 N 0.35218 0.98815 0.16727 0.0
C109 C 0.40114 0.0254 0.14347 0.0
C110 C 0.36042 0.01816 0.14449 0.0
C111 C 0.38875 0.98 0.18162 0.0
N112 N 0.41908 0.00171 0.16716 0.0
O113 O 0.32594 0.91913 0.19942 0.0
H114 H 0.33837 0.0354 0.13022 0.0
H115 H 0.39342 0.9589 0.20257 0.0
O116 O 0.29951 0.93597 0.13248 0.0
C117 C 0.33033 0.92282 0.23228 0.0
O118 O 0.32141 0.95777 0.24652 0.0
N119 N 0.27378 0.01074 0.16184 0.0
C120 C 0.2185 0.07385 0.16046 0.0
C121 C 0.21558 0.04213 0.13637 0.0
C122 C 0.24276 0.01 0.13835 0.0
C123 C 0.27868 0.0428 0.18365 0.0
C124 C 0.25118 0.07454 0.18361 0.0
H125 H 0.23659 0.98326 0.12323 0.0
H126 H 0.30193 0.04191 0.20343 0.0
H127 H 0.24466 0.88756 0.16368 0.0
H128 H 0.16402 0.94713 0.23126 0.0
H129 H 0.41635 0.04741 0.12728 0.0
H130 H 0.19039 0.0405 0.11842 0.0
H131 H 0.25413 0.09831 0.20283 0.0
C132 C 0.56575 0.27007 0.34253 0.0
C133 C 0.59014 0.30364 0.34308 0.0
N134 N 0.61374 0.30147 0.37152 0.0
N135 N 0.57407 0.24706 0.37054 0.0
C136 C 0.60369 0.26687 0.38766 0.0
H137 H 0.54279 0.26318 0.32338 0.0
Co138 Co 0.548 0.19909 0.38123 0.0
C139 C 0.55518 0.20841 0.46005 0.0
O140 O 0.51813 0.22186 0.46313 0.0
N141 N 0.52264 0.14945 0.39138 0.0
C142 C 0.49084 0.09927 0.41856 0.0
C143 C 0.49909 0.13981 0.41903 0.0
C144 C 0.5271 0.11423 0.37396 0.0
N145 N 0.50865 0.08341 0.39026 0.0
O146 O 0.59539 0.17076 0.36493 0.0
H147 H 0.48887 0.16054 0.43875 0.0
H148 H 0.54404 0.11071 0.35014 0.0
O149 O 0.56979 0.1995 0.42995 0.0
C150 C 0.59521 0.16854 0.33165 0.0
O151 O 0.56411 0.18341 0.31478 0.0
N152 N 0.50005 0.22846 0.39262 0.0
C153 C 0.43104 0.27716 0.39155 0.0
C154 C 0.46727 0.29146 0.40576 0.0
C155 C 0.5013 0.26665 0.40623 0.0
C156 C 0.46473 0.21433 0.37862 0.0
C157 C 0.42955 0.23751 0.37916 0.0
H158 H 0.52909 0.27881 0.41661 0.0
H159 H 0.46393 0.18572 0.36519 0.0
H160 H 0.61708 0.25681 0.41181 0.0
H161 H 0.5899 0.3283 0.32466 0.0
H162 H 0.47411 0.08244 0.43796 0.0
H163 H 0.46964 0.3221 0.41535 0.0
H164 H 0.40214 0.22566 0.36755 0.0
C165 C 0.72414 0.55987 0.36133 0.0
C166 C 0.69335 0.58729 0.35835 0.0
N167 N 0.70105 0.61816 0.38009 0.0
N168 N 0.75117 0.57299 0.38514 0.0
C169 C 0.73676 0.60936 0.39534 0.0
H170 H 0.72671 0.53223 0.34663 0.0
Co171 Co 0.79968 0.54582 0.39499 0.0
C172 C 0.77655 0.57733 0.46864 0.0
O173 O 0.73744 0.57786 0.4627 0.0
N174 N 0.84879 0.51806 0.40367 0.0
C175 C 0.89477 0.47836 0.42858 0.0
C176 C 0.85474 0.48904 0.4278 0.0
C177 C 0.88574 0.52285 0.38887 0.0
N178 N 0.91434 0.4996 0.40403 0.0
O179 O 0.82897 0.59246 0.37889 0.0
H180 H 0.83151 0.47565 0.44369 0.0
H181 H 0.892 0.54335 0.36777 0.0
O182 O 0.80113 0.56563 0.44462 0.0
C183 C 0.82912 0.59236 0.34554 0.0
O184 O 0.81174 0.56207 0.32932 0.0
N185 N 0.77049 0.49885 0.40568 0.0
C186 C 0.72316 0.42959 0.40377 0.0
C187 C 0.72474 0.45322 0.43403 0.0
C188 C 0.74854 0.4881 0.43441 0.0
C189 C 0.77136 0.47442 0.37711 0.0
C190 C 0.74761 0.43986 0.37542 0.0
H191 H 0.74862 0.50597 0.45764 0.0
H192 H 0.78923 0.4831 0.35471 0.0
H193 H 0.75191 0.62901 0.41367 0.0
H194 H 0.6667 0.58439 0.34218 0.0
H195 H 0.90858 0.45673 0.44595 0.0
H196 H 0.70654 0.44557 0.45657 0.0
H197 H 0.74731 0.42201 0.35176 0.0
C198 C 0.46052 0.72591 0.3452 0.0
C199 C 0.44005 0.68977 0.34286 0.0
N200 N 0.41319 0.68813 0.36923 0.0
N201 N 0.44642 0.74672 0.37288 0.0
C202 C 0.41764 0.7229 0.38691 0.0
H203 H 0.48257 0.73725 0.32682 0.0
Co204 Co 0.45659 0.80016 0.38348 0.0
C205 C 0.44172 0.80804 0.46041 0.0
O206 O 0.47211 0.83348 0.46231 0.0
N207 N 0.46507 0.85488 0.39319 0.0
C208 C 0.44589 0.91735 0.40604 0.0
C209 C 0.43514 0.87769 0.40691 0.0
C210 C 0.49353 0.88184 0.38306 0.0
N211 N 0.48243 0.91996 0.39102 0.0
O212 O 0.40541 0.81404 0.3629 0.0
H213 H 0.40619 0.86626 0.41545 0.0
H214 H 0.52044 0.87418 0.36845 0.0
O215 O 0.4322 0.79243 0.4309 0.0
C216 C 0.41311 0.82665 0.33216 0.0
O217 O 0.4512 0.8275 0.32225 0.0
N218 N 0.509 0.7856 0.39848 0.0
C219 C 0.58106 0.74174 0.39963 0.0
C220 C 0.55584 0.74305 0.42899 0.0
C221 C 0.51927 0.76402 0.42745 0.0
C222 C 0.53545 0.78809 0.37123 0.0
C223 C 0.57141 0.76597 0.37102 0.0
H224 H 0.49842 0.75942 0.44838 0.0
H225 H 0.52652 0.8038 0.34783 0.0
H226 H 0.39795 0.73191 0.40804 0.0
H227 H 0.4434 0.6672 0.32266 0.0
H228 H 0.4275 0.94268 0.41413 0.0
H229 H 0.56226 0.72445 0.45148 0.0
H230 H 0.58998 0.76552 0.34775 0.0
C231 C 0.27869 0.44912 0.34838 0.0
C232 C 0.31208 0.42466 0.34754 0.0
N233 N 0.30632 0.39475 0.37062 0.0
N234 N 0.25231 0.43507 0.37231 0.0
C235 C 0.26972 0.40147 0.38518 0.0
H236 H 0.27401 0.47576 0.33274 0.0
Co237 Co 0.2039 0.46051 0.38277 0.0
C238 C 0.19971 0.45347 0.46084 0.0
O239 O 0.1982 0.49272 0.4636 0.0
N240 N 0.1536 0.48722 0.39249 0.0
C241 C 0.10733 0.5286 0.41514 0.0
C242 C 0.14778 0.52111 0.41155 0.0
C243 C 0.11551 0.47647 0.38294 0.0
N244 N 0.08683 0.50076 0.39686 0.0
O245 O 0.17608 0.41436 0.36439 0.0
H246 H 0.17122 0.5399 0.42245 0.0
H247 H 0.10847 0.45121 0.36628 0.0
O248 O 0.20323 0.43664 0.4308 0.0
C249 C 0.1715 0.41881 0.33159 0.0
O250 O 0.18112 0.4539 0.31804 0.0
N251 N 0.2338 0.50604 0.39583 0.0
C252 C 0.29067 0.56795 0.39341 0.0
C253 C 0.29327 0.53788 0.41894 0.0
C254 C 0.26532 0.50622 0.41885 0.0
C255 C 0.23007 0.53596 0.37179 0.0
C256 C 0.25824 0.56709 0.37002 0.0
H257 H 0.27075 0.48064 0.43551 0.0
H258 H 0.20668 0.53398 0.35219 0.0
H259 H 0.2561 0.38243 0.40483 0.0
H260 H 0.33851 0.42826 0.33114 0.0
H261 H 0.09391 0.55314 0.42974 0.0
H262 H 0.31838 0.53732 0.43701 0.0
H263 H 0.25566 0.58943 0.34961 0.0
C264 C 0.95695 0.76897 0.85886 0.0
C265 C 0.93577 0.80468 0.85872 0.0
N266 N 0.90608 0.80189 0.88263 0.0
N267 N 0.94059 0.74413 0.88284 0.0
C268 C 0.90953 0.765 0.89677 0.0
H269 H 0.98215 0.76131 0.84213 0.0
Co270 Co 0.95525 0.69148 0.89221 0.0
C271 C 0.94739 0.68284 0.96927 0.0
O272 O 0.98179 0.66309 0.96834 0.0
N273 N 0.96844 0.63739 0.90126 0.0
C274 C 0.95369 0.5746 0.91701 0.0
C275 C 0.94034 0.61337 0.91616 0.0
C276 C 0.99906 0.61193 0.8929 0.0
N277 N 0.99042 0.57354 0.90223 0.0
O278 O 0.90443 0.67319 0.87232 0.0
H279 H 0.91087 0.62333 0.92474 0.0
H280 H 0.02614 0.62063 0.879 0.0
O281 O 0.93222 0.69637 0.94076 0.0
C282 C 0.90923 0.66826 0.83944 0.0
O283 O 0.94442 0.67766 0.82572 0.0
N284 N 0.00661 0.71035 0.90614 0.0
C285 C 0.07589 0.75867 0.90417 0.0
C286 C 0.04901 0.76093 0.9324 0.0
C287 C 0.01382 0.73748 0.9323 0.0
C288 C 0.03414 0.70572 0.87994 0.0
C289 C 0.0689 0.72965 0.87835 0.0
H290 H 0.99106 0.74433 0.9514 0.0
H291 H 0.02688 0.68665 0.85796 0.0
H292 H 0.88888 0.75304 0.91606 0.0
H293 H 0.94122 0.83043 0.8421 0.0
H294 H 0.9371 0.54869 0.92651 0.0
H295 H 0.05317 0.7835 0.95251 0.0
H296 H 0.08862 0.72749 0.85586 0.0
C297 C 0.2246 0.93231 0.84951 0.0
C298 C 0.1925 0.90591 0.84836 0.0
N299 N 0.1968 0.87921 0.87444 0.0
N300 N 0.24929 0.92213 0.87606 0.0
C301 C 0.23151 0.88948 0.8907 0.0
H302 H 0.22906 0.95801 0.83267 0.0
Co303 Co 0.29721 0.949 0.88931 0.0
C304 C 0.28533 0.93156 0.96608 0.0
O305 O 0.26853 0.96682 0.97091 0.0
N306 N 0.34655 0.97401 0.90309 0.0
C307 C 0.39586 0.99782 0.93691 0.0
C308 C 0.35517 0.9904 0.93451 0.0
C309 C 0.38269 0.97359 0.88638 0.0
N310 N 0.41327 0.98722 0.90659 0.0
O311 O 0.32792 0.90669 0.86693 0.0
H312 H 0.3337 0.99596 0.95503 0.0
H313 H 0.38724 0.96134 0.86067 0.0
O314 O 0.29723 0.92068 0.93557 0.0
C315 C 0.327 0.91461 0.83419 0.0
O316 O 0.30617 0.94612 0.82404 0.0
N317 N 0.26608 0.99423 0.90502 0.0
C318 C 0.21657 0.06247 0.90604 0.0
C319 C 0.20121 0.02492 0.91597 0.0
C320 C 0.22645 0.9912 0.9154 0.0
C321 C 0.28122 0.03114 0.89587 0.0
C322 C 0.25755 0.06574 0.89764 0.0
H323 H 0.21346 0.96236 0.92207 0.0
H324 H 0.31094 0.03404 0.8845 0.0
H325 H 0.24312 0.87388 0.91326 0.0
H326 H 0.16715 0.90701 0.83057 0.0
H327 H 0.41168 0.00935 0.95951 0.0
H328 H 0.1695 0.02131 0.92241 0.0
H329 H 0.27016 0.09427 0.88923 0.0
C330 C 0.05218 0.21563 0.84886 0.0
C331 C 0.07538 0.18163 0.85156 0.0
N332 N 0.10244 0.18761 0.87713 0.0
N333 N 0.06404 0.24269 0.87307 0.0
C334 C 0.09536 0.22499 0.88961 0.0
H335 H 0.02849 0.22048 0.83 0.0
Co336 Co 0.03975 0.2925 0.87876 0.0
C337 C 0.04701 0.31262 0.9547 0.0
O338 O 0.01156 0.33034 0.9534 0.0
N339 N 0.01487 0.34332 0.88264 0.0
C340 C 0.97409 0.39556 0.87346 0.0
C341 C 0.97813 0.35457 0.87065 0.0
C342 C 0.03255 0.37837 0.89242 0.0
N343 N 0.00842 0.41042 0.88699 0.0
O344 O 0.08742 0.31825 0.86008 0.0
H345 H 0.95604 0.3351 0.85876 0.0
H346 H 0.06269 0.38044 0.9029 0.0
O347 O 0.06174 0.29636 0.92713 0.0
C348 C 0.08627 0.3213 0.82692 0.0
O349 O 0.05492 0.30626 0.81039 0.0
N350 N 0.99199 0.2659 0.89311 0.0
C351 C 0.92422 0.21634 0.8991 0.0
C352 C 0.94869 0.22395 0.9281 0.0
C353 C 0.9831 0.24818 0.92436 0.0
C354 C 0.96779 0.25904 0.86498 0.0
C355 C 0.93368 0.23464 0.8674 0.0
H356 H 0.00298 0.25066 0.94622 0.0
H357 H 0.97614 0.27138 0.83991 0.0
H358 H 0.11293 0.23918 0.90999 0.0
H359 H 0.07337 0.15489 0.83543 0.0
H360 H 0.94868 0.41341 0.86471 0.0
H361 H 0.94242 0.20956 0.95284 0.0
H362 H 0.91566 0.22891 0.84437 0.0
C363 C 0.7707 0.05466 0.84406 0.0
C364 C 0.80289 0.08073 0.8459 0.0
N365 N 0.79854 0.1031 0.87486 0.0
N366 N 0.74637 0.06036 0.87193 0.0
C367 C 0.76406 0.09051 0.89013 0.0
H368 H 0.76565 0.03262 0.82378 0.0
Co369 Co 0.69949 0.03076 0.8804 0.0
C370 C 0.67751 0.04471 0.95637 0.0
O371 O 0.65402 0.01287 0.95651 0.0
N372 N 0.65139 0.00013 0.88757 0.0
C373 C 0.60747 0.95118 0.90033 0.0
C374 C 0.64766 0.9609 0.8968 0.0
C375 C 0.61259 0.01294 0.88469 0.0
N376 N 0.58539 0.98386 0.89242 0.0
O377 O 0.6686 0.07375 0.86062 0.0
H378 H 0.67231 0.94041 0.90172 0.0
H379 H 0.60403 0.0433 0.87772 0.0
O380 O 0.69613 0.05477 0.92833 0.0
C381 C 0.66738 0.06898 0.82757 0.0
O382 O 0.68547 0.03764 0.81364 0.0
N383 N 0.73161 0.9877 0.89487 0.0
C384 C 0.78636 0.92453 0.90022 0.0
C385 C 0.77485 0.94637 0.92998 0.0
C386 C 0.74744 0.97834 0.92669 0.0
C387 C 0.74121 0.96538 0.86623 0.0
C388 C 0.76876 0.93395 0.86822 0.0
H389 H 0.73952 0.99527 0.94955 0.0
H390 H 0.72789 0.9728 0.84136 0.0
H391 H 0.75217 0.10323 0.91396 0.0
H392 H 0.82798 0.08271 0.82782 0.0
H393 H 0.5953 0.9223 0.90822 0.0
H394 H 0.78763 0.93933 0.9552 0.0
H395 H 0.77666 0.91739 0.84483 0.0
C396 C 0.45456 0.72954 0.71966 0.0
C397 C 0.43223 0.69459 0.72293 0.0
N398 N 0.40532 0.69343 0.69665 0.0
N399 N 0.44135 0.75013 0.69164 0.0
C400 C 0.41131 0.72735 0.67828 0.0
H401 H 0.47858 0.73953 0.73672 0.0
Co402 Co 0.4587 0.80024 0.67596 0.0
C403 C 0.44864 0.7906 0.59913 0.0
O404 O 0.48672 0.80124 0.59579 0.0
N405 N 0.47433 0.85252 0.66106 0.0
C406 C 0.46666 0.91288 0.63651 0.0
C407 C 0.45448 0.87365 0.63632 0.0
C408 C 0.49743 0.88087 0.67713 0.0
N409 N 0.49351 0.91753 0.66223 0.0
O410 O 0.41056 0.82347 0.69519 0.0
H411 H 0.42966 0.86285 0.62109 0.0
H412 H 0.51418 0.87582 0.70087 0.0
O413 O 0.4324 0.78976 0.62954 0.0
C414 C 0.41705 0.83031 0.72749 0.0
O415 O 0.45262 0.82139 0.74053 0.0
N416 N 0.50827 0.77641 0.66126 0.0
C417 C 0.57852 0.72987 0.65981 0.0
C418 C 0.54298 0.7157 0.6444 0.0
C419 C 0.50819 0.73938 0.64551 0.0
C420 C 0.5434 0.79115 0.67497 0.0
C421 C 0.57915 0.76884 0.67368 0.0
H422 H 0.4803 0.72624 0.63665 0.0
H423 H 0.5435 0.8184 0.68997 0.0
H424 H 0.3935 0.73547 0.65577 0.0
H425 H 0.43539 0.67185 0.74291 0.0
H426 H 0.45481 0.93692 0.62047 0.0
H427 H 0.54132 0.68541 0.63393 0.0
H428 H 0.60605 0.78032 0.6864 0.0
C429 C 0.2801 0.45567 0.70991 0.0
C430 C 0.31599 0.43529 0.70916 0.0
N431 N 0.3127 0.40524 0.68584 0.0
N432 N 0.25424 0.43901 0.6868 0.0
C433 C 0.27486 0.40772 0.67272 0.0
H434 H 0.27346 0.48162 0.72596 0.0
Co435 Co 0.2038 0.46211 0.67807 0.0
C436 C 0.19541 0.45439 0.6006 0.0
O437 O 0.18816 0.49307 0.59868 0.0
N438 N 0.15208 0.48664 0.67035 0.0
C439 C 0.10301 0.52865 0.6539 0.0
C440 C 0.14385 0.52204 0.6543 0.0
C441 C 0.11508 0.47338 0.68075 0.0
N442 N 0.08487 0.49813 0.67067 0.0
O443 O 0.17757 0.41539 0.69733 0.0
H444 H 0.16588 0.54239 0.64324 0.0
H445 H 0.1099 0.4461 0.69541 0.0
O446 O 0.20287 0.43803 0.63018 0.0
C447 C 0.17924 0.41767 0.73056 0.0
O448 O 0.19944 0.4477 0.74458 0.0
N449 N 0.23096 0.50886 0.6643 0.0
C450 C 0.28554 0.57256 0.66713 0.0
C451 C 0.28778 0.54413 0.64007 0.0
C452 C 0.26079 0.51161 0.63971 0.0
C453 C 0.22729 0.53749 0.68961 0.0
C454 C 0.25426 0.56954 0.69155 0.0
H455 H 0.26601 0.48731 0.62159 0.0
H456 H 0.20518 0.53355 0.71014 0.0
H457 H 0.26275 0.38759 0.65313 0.0
H458 H 0.34258 0.4418 0.72462 0.0
H459 H 0.0877 0.55428 0.64258 0.0
H460 H 0.31205 0.5454 0.6211 0.0
H461 H 0.25199 0.59066 0.71302 0.0
C462 C 0.575 0.2665 0.71647 0.0
C463 C 0.59792 0.30089 0.71341 0.0
N464 N 0.60719 0.30572 0.6796 0.0
N465 N 0.57035 0.24941 0.68475 0.0
C466 C 0.58956 0.27476 0.66271 0.0
H467 H 0.56277 0.25482 0.74049 0.0
Co468 Co 0.54368 0.20074 0.6759 0.0
C469 C 0.5527 0.18589 0.59986 0.0
O470 O 0.51372 0.17851 0.59951 0.0
N471 N 0.5168 0.15024 0.66778 0.0
C472 C 0.47281 0.10079 0.65611 0.0
C473 C 0.47834 0.14181 0.65782 0.0
C474 C 0.53369 0.11327 0.67179 0.0
N475 N 0.50765 0.08303 0.66522 0.0
O476 O 0.58739 0.1725 0.69795 0.0
H477 H 0.45544 0.1637 0.65146 0.0
H478 H 0.56451 0.10794 0.67981 0.0
O479 O 0.56954 0.19661 0.62858 0.0
C480 C 0.57819 0.16757 0.73011 0.0
O481 O 0.544 0.18264 0.74172 0.0
N482 N 0.49936 0.2304 0.66016 0.0
C483 C 0.44144 0.29217 0.66315 0.0
C484 C 0.46818 0.28844 0.63441 0.0
C485 C 0.49793 0.25826 0.63412 0.0
C486 C 0.4703 0.23003 0.68521 0.0
C487 C 0.43994 0.25881 0.68582 0.0
H488 H 0.52107 0.25914 0.61426 0.0
H489 H 0.4718 0.20811 0.70598 0.0
H490 H 0.59046 0.27112 0.63489 0.0
H491 H 0.60733 0.32072 0.73432 0.0
H492 H 0.4451 0.08513 0.64958 0.0
H493 H 0.4676 0.3083 0.61234 0.0
H494 H 0.4169 0.25578 0.70566 0.0
C495 C 0.7173 0.54782 0.70202 0.0
C496 C 0.68484 0.57353 0.70107 0.0
N497 N 0.69653 0.60737 0.68469 0.0
N498 N 0.74913 0.56525 0.68588 0.0
C499 C 0.73572 0.60195 0.67617 0.0
H500 H 0.71743 0.51789 0.71308 0.0
Co501 Co 0.79862 0.54036 0.67701 0.0
C502 C 0.813 0.59671 0.61528 0.0
O503 O 0.83007 0.62605 0.63293 0.0
N504 N 0.84802 0.51516 0.66739 0.0
C505 C 0.8969 0.48598 0.63666 0.0
C506 C 0.85668 0.49594 0.63727 0.0
C507 C 0.88326 0.51523 0.68524 0.0
N508 N 0.9137 0.49828 0.66676 0.0
O509 O 0.82677 0.58429 0.70009 0.0
H510 H 0.8355 0.49123 0.61621 0.0
H511 H 0.88724 0.52939 0.71036 0.0
O512 O 0.80099 0.56482 0.63071 0.0
C513 C 0.82121 0.58111 0.73306 0.0
O514 O 0.79673 0.55273 0.74432 0.0
N515 N 0.77084 0.49606 0.65898 0.0
C516 C 0.71785 0.43204 0.64991 0.0
C517 C 0.71759 0.46444 0.62649 0.0
C518 C 0.74431 0.49668 0.63171 0.0
C519 C 0.77323 0.4635 0.68036 0.0
C520 C 0.74698 0.43106 0.67626 0.0
H521 H 0.74164 0.5231 0.61548 0.0
H522 H 0.79378 0.46405 0.70226 0.0
H523 H 0.75389 0.62405 0.66268 0.0
H524 H 0.65485 0.56785 0.71134 0.0
H525 H 0.913 0.47202 0.61522 0.0
H526 H 0.69529 0.46593 0.6059 0.0
H527 H 0.7479 0.40643 0.69472 0.0
C528 C 0.07586 0.34655 1.00679 0.0
C529 C 0.0673 0.31004 0.98941 0.0
C530 C 0.07108 0.27407 0.0454 0.0
C531 C 0.06944 0.31171 0.06309 0.0
N532 N 0.07631 0.38393 0.06096 0.0
N533 N 0.0657 0.23769 0.99036 0.0
C534 C 0.07454 0.34794 0.0438 0.0
C535 C 0.06852 0.27321 1.00815 0.0
N536 N 0.08555 0.37973 0.98752 0.0
N537 N 0.07442 0.23942 0.06424 0.0
H538 H 0.06782 0.23638 0.96333 0.0
H539 H 0.0614 0.20972 1.00194 0.0
H540 H 0.07706 0.23954 0.09121 0.0
H541 H 0.07792 0.21091 0.0534 0.0
H542 H 0.09505 0.40702 0.99812 0.0
H543 H 0.08791 0.3784 0.96043 0.0
H544 H 0.07429 0.41185 0.04881 0.0
H545 H 0.07896 0.38562 0.08788 0.0
C546 C 0.7216 0.06684 1.0074 0.0
C547 C 0.68336 0.06608 0.99044 0.0
C548 C 0.64914 0.07351 0.04686 0.0
C549 C 0.68669 0.0684 0.0639 0.0
N550 N 0.75867 0.07591 0.06164 0.0
N551 N 0.61379 0.08603 0.99244 0.0
C552 C 0.72301 0.07075 0.04444 0.0
C553 C 0.64812 0.07553 1.00983 0.0
N554 N 0.75622 0.06138 0.98862 0.0
N555 N 0.61443 0.0742 0.06616 0.0
H556 H 0.61364 0.0892 0.96538 0.0
H557 H 0.58735 0.09554 1.0047 0.0
H558 H 0.61497 0.07467 0.09336 0.0
H559 H 0.58556 0.0731 0.05542 0.0
H560 H 0.78439 0.05608 0.99975 0.0
H561 H 0.75667 0.06126 0.96158 0.0
H562 H 0.78631 0.08085 0.04934 0.0
H563 H 0.75955 0.07918 0.08862 0.0
C564 C 0.92272 0.65601 1.0261 0.0
C565 C 0.92889 0.69 1.00436 0.0
C566 C 0.92923 0.73351 0.05627 0.0
C567 C 0.93304 0.69878 0.07736 0.0
N568 N 0.92757 0.62728 0.08417 0.0
N569 N 0.92963 0.76215 0.99795 0.0
C570 C 0.92688 0.66011 0.06284 0.0
C571 C 0.92852 0.72926 1.01921 0.0
N572 N 0.91325 0.61985 1.01122 0.0
N573 N 0.92694 0.77035 0.07205 0.0
H574 H 0.92585 0.75991 0.97113 0.0
H575 H 0.93422 0.79151 1.00659 0.0
H576 H 0.92664 0.77329 0.09911 0.0
H577 H 0.9221 0.7973 0.05894 0.0
H578 H 0.9059 0.59405 1.02522 0.0
H579 H 0.90902 0.61693 0.98446 0.0
H580 H 0.92822 0.59762 0.07538 0.0
H581 H 0.92844 0.63024 0.11122 0.0
C582 C 0.33418 0.9125 1.01249 0.0
C583 C 0.2949 0.90876 0.99827 0.0
C584 C 0.26552 0.90744 0.05682 0.0
C585 C 0.30341 0.91964 0.07045 0.0
N586 N 0.37553 0.92114 0.06466 0.0
N587 N 0.22667 0.88685 1.00577 0.0
C588 C 0.33852 0.9172 0.04929 0.0
C589 C 0.26188 0.90006 1.02039 0.0
N590 N 0.36657 0.91422 0.99046 0.0
N591 N 0.23266 0.90629 0.07823 0.0
H592 H 0.22433 0.8821 0.97893 0.0
H593 H 0.20143 0.87777 1.01997 0.0
H594 H 0.23535 0.91023 0.10502 0.0
H595 H 0.20317 0.90217 0.06956 0.0
H596 H 0.39603 0.92049 0.9982 0.0
H597 H 0.36354 0.90864 0.96383 0.0
H598 H 0.40295 0.91897 0.05148 0.0
H599 H 0.37849 0.92429 0.09163 0.0
C600 C 0.58998 0.22729 0.51581 0.0
C601 C 0.57577 0.19688 0.49293 0.0
C602 C 0.56493 0.15178 0.54234 0.0
C603 C 0.57434 0.18393 0.5655 0.0
N604 N 0.61659 0.24208 0.57336 0.0
N605 N 0.56659 0.12612 0.48294 0.0
C606 C 0.59375 0.21857 0.552 0.0
C607 C 0.56935 0.15751 0.50578 0.0
N608 N 0.5984 0.26472 0.50313 0.0
N609 N 0.54996 0.11657 0.55538 0.0
H610 H 0.5714 0.13009 0.45631 0.0
H611 H 0.56409 0.09612 0.49053 0.0
H612 H 0.54827 0.11125 0.5821 0.0
H613 H 0.53804 0.09359 0.54001 0.0
H614 H 0.60473 0.28935 0.5191 0.0
H615 H 0.59738 0.27109 0.47651 0.0
H616 H 0.63284 0.26705 0.5647 0.0
H617 H 0.62405 0.23243 0.59835 0.0
C618 C 0.81705 0.55952 0.52283 0.0
C619 C 0.79099 0.5865 0.50495 0.0
C620 C 0.7823 0.6247 0.55971 0.0
C621 C 0.80992 0.59849 0.57652 0.0
N622 N 0.86472 0.55164 0.56998 0.0
N623 N 0.75733 0.65102 0.50481 0.0
C624 C 0.83103 0.5695 0.55664 0.0
C625 C 0.77623 0.62112 0.52294 0.0
N626 N 0.82545 0.52254 0.50928 0.0
N627 N 0.76088 0.65203 0.57889 0.0
H628 H 0.75369 0.65008 0.47784 0.0
H629 H 0.74907 0.67846 0.51593 0.0
H630 H 0.76551 0.65625 0.60551 0.0
H631 H 0.73694 0.66869 0.56883 0.0
H632 H 0.84177 0.50065 0.52268 0.0
H633 H 0.81103 0.51188 0.48716 0.0
H634 H 0.88299 0.53225 0.55549 0.0
H635 H 0.87675 0.5602 0.59402 0.0
C636 C 0.4027 0.81545 0.55253 0.0
C637 C 0.42535 0.78339 0.5665 0.0
C638 C 0.43393 0.7561 0.50753 0.0
C639 C 0.4234 0.79436 0.49388 0.0
N640 N 0.39176 0.85884 0.50269 0.0
N641 N 0.45448 0.71801 0.5585 0.0
C642 C 0.40514 0.8233 0.51616 0.0
C643 C 0.43771 0.75164 0.54427 0.0
N644 N 0.37876 0.8378 0.57403 0.0
N645 N 0.44056 0.72447 0.48555 0.0
H646 H 0.45347 0.71288 0.58524 0.0
H647 H 0.46924 0.6958 0.54414 0.0
H648 H 0.43677 0.7269 0.45877 0.0
H649 H 0.44582 0.69514 0.49392 0.0
H650 H 0.35958 0.86046 0.56525 0.0
H651 H 0.37482 0.82993 0.60014 0.0
H652 H 0.38252 0.88308 0.51802 0.0
H653 H 0.39117 0.8642 0.47593 0.0
C654 C 0.23218 0.42402 0.54962 0.0
C655 C 0.19517 0.43155 0.56716 0.0
C656 C 0.15893 0.43069 0.51148 0.0
C657 C 0.19661 0.43045 0.49389 0.0
N658 N 0.267 0.41406 0.49411 0.0
N659 N 0.1228 0.42887 0.56694 0.0
C660 C 0.23257 0.42216 0.51244 0.0
C661 C 0.15823 0.42982 0.54861 0.0
N662 N 0.26692 0.42122 0.56854 0.0
N663 N 0.1243 0.43453 0.49242 0.0
H664 H 0.12245 0.42803 0.59414 0.0
H665 H 0.09435 0.42608 0.55566 0.0
H666 H 0.12468 0.4338 0.46521 0.0
H667 H 0.09569 0.43874 0.5031 0.0
H668 H 0.29577 0.41951 0.55781 0.0
H669 H 0.26643 0.42055 0.59567 0.0
H670 H 0.29452 0.40637 0.50534 0.0
H671 H 0.26677 0.41227 0.46698 0.0
C672 C 0.19504 0.14592 0.16275 0.0
C673 C 0.18561 0.10424 0.16415 0.0
C674 C 0.11432 0.12123 0.17339 0.0
C675 C 0.12489 0.16231 0.17734 0.0
N676 N 0.17762 0.21198 0.18453 0.0
N677 N 0.13694 0.05261 0.17987 0.0
C678 C 0.16593 0.1743 0.17434 0.0
C679 C 0.14537 0.09185 0.1719 0.0
N680 N 0.23144 0.15851 0.14986 0.0
N681 N 0.07469 0.11034 0.17015 0.0
H682 H 0.15903 0.03034 0.18153 0.0
H683 H 0.10865 0.0432 0.18871 0.0
H684 H 0.05131 0.13138 0.16957 0.0
H685 H 0.06565 0.08103 0.16418 0.0
H686 H 0.23824 0.18878 0.14561 0.0
H687 H 0.25302 0.13859 0.14001 0.0
H688 H 0.20782 0.22092 0.18557 0.0
H689 H 0.15775 0.23253 0.19589 0.0
C690 C 0.84803 0.16859 0.20033 0.0
C691 C 0.82877 0.15256 0.17056 0.0
C692 C 0.86257 0.20374 0.13478 0.0
C693 C 0.88771 0.21399 0.16345 0.0
N694 N 0.90932 0.19834 0.2223 0.0
N695 N 0.82112 0.15202 0.1082 0.0
C696 C 0.88158 0.19466 0.19612 0.0
C697 C 0.83652 0.16967 0.13739 0.0
N698 N 0.83437 0.15836 0.23269 0.0
N699 N 0.86333 0.22665 0.10528 0.0
H700 H 0.80289 0.12654 0.10928 0.0
H701 H 0.82923 0.1606 0.08304 0.0
H702 H 0.88145 0.25226 0.10288 0.0
H703 H 0.84314 0.22254 0.08475 0.0
H704 H 0.84533 0.17164 0.25544 0.0
H705 H 0.80901 0.14002 0.23626 0.0
H706 H 0.9076 0.18175 0.24529 0.0
H707 H 0.93647 0.21402 0.21965 0.0
C708 C 0.85861 0.90505 0.1567 0.0
C709 C 0.81664 0.89665 0.15344 0.0
C710 C 0.82782 0.82736 0.17248 0.0
C711 C 0.8697 0.83562 0.17506 0.0
N712 N 0.92618 0.87708 0.1585 0.0
N713 N 0.76341 0.84744 0.14806 0.0
C714 C 0.8855 0.87283 0.16343 0.0
C715 C 0.80205 0.85678 0.1577 0.0
N716 N 0.87263 0.94379 0.15588 0.0
N717 N 0.81236 0.79268 0.18619 0.0
H718 H 0.74411 0.86862 0.13684 0.0
H719 H 0.7521 0.81813 0.14796 0.0
H720 H 0.83025 0.7712 0.19851 0.0
H721 H 0.78146 0.78693 0.18814 0.0
H722 H 0.90232 0.95147 0.16209 0.0
H723 H 0.85412 0.96869 0.15182 0.0
H724 H 0.93914 0.90255 0.1472 0.0
H725 H 0.94635 0.85332 0.16217 0.0
C726 C 0.14935 0.86853 0.15714 0.0
C727 C 0.1653 0.87578 0.1907 0.0
C728 C 0.11622 0.82892 0.2153 0.0
C729 C 0.10495 0.81661 0.18111 0.0
N730 N 0.1183 0.81951 0.11912 0.0
N731 N 0.16966 0.85666 0.251 0.0
C732 C 0.12376 0.83483 0.15181 0.0
C733 C 0.15055 0.85396 0.21961 0.0
N734 N 0.15653 0.89517 0.13088 0.0
N735 N 0.09297 0.81893 0.24346 0.0
H736 H 0.1958 0.87382 0.25458 0.0
H737 H 0.16199 0.83861 0.27221 0.0
H738 H 0.06555 0.80358 0.24133 0.0
H739 H 0.09846 0.83017 0.26839 0.0
H740 H 0.14224 0.89315 0.10675 0.0
H741 H 0.17285 0.92172 0.13475 0.0
H742 H 0.13416 0.83018 0.09751 0.0
H743 H 0.10136 0.79358 0.11426 0.0
C744 C 0.65222 0.40303 0.39802 0.0
C745 C 0.69441 0.39543 0.40043 0.0
C746 C 0.68309 0.3248 0.38449 0.0
C747 C 0.64096 0.3321 0.38382 0.0
N748 N 0.58473 0.3745 0.39878 0.0
N749 N 0.74908 0.3476 0.40379 0.0
C750 C 0.62533 0.37015 0.39345 0.0
C751 C 0.70956 0.35572 0.3962 0.0
N752 N 0.63795 0.44167 0.39806 0.0
N753 N 0.69783 0.28904 0.37228 0.0
H754 H 0.76906 0.3696 0.41284 0.0
H755 H 0.76096 0.31857 0.40424 0.0
H756 H 0.67912 0.26611 0.363 0.0
H757 H 0.72854 0.2834 0.36869 0.0
H758 H 0.60799 0.44889 0.39255 0.0
H759 H 0.65654 0.46689 0.40053 0.0
H760 H 0.57181 0.40059 0.40899 0.0
H761 H 0.5645 0.3505 0.39636 0.0
C762 C 0.65435 0.72158 0.39035 0.0
C763 C 0.61343 0.71051 0.39675 0.0
C764 C 0.63394 0.63984 0.40045 0.0
C765 C 0.67316 0.6501 0.38868 0.0
N766 N 0.71965 0.70039 0.36781 0.0
N767 N 0.56326 0.65722 0.39886 0.0
C768 C 0.68326 0.69097 0.38254 0.0
C769 C 0.60288 0.66909 0.39945 0.0
N770 N 0.66574 0.76106 0.39246 0.0
N771 N 0.62657 0.60217 0.41319 0.0
H772 H 0.53927 0.67717 0.39552 0.0
H773 H 0.55452 0.62706 0.39759 0.0
H774 H 0.64932 0.58063 0.41575 0.0
H775 H 0.59923 0.59412 0.42484 0.0
H776 H 0.69579 0.77044 0.39116 0.0
H777 H 0.64551 0.78405 0.39876 0.0
H778 H 0.72712 0.7293 0.35945 0.0
H779 H 0.74103 0.67858 0.36128 0.0
C780 C 0.31274 0.6403 0.38931 0.0
C781 C 0.32306 0.59882 0.38914 0.0
C782 C 0.39416 0.61709 0.38013 0.0
C783 C 0.38277 0.65778 0.37534 0.0
N784 N 0.32933 0.70603 0.36646 0.0
N785 N 0.37296 0.54763 0.37573 0.0
C786 C 0.34147 0.66889 0.37746 0.0
C787 C 0.36366 0.58704 0.3822 0.0
N788 N 0.2759 0.65255 0.4015 0.0
N789 N 0.43399 0.60726 0.38382 0.0
H790 H 0.35133 0.52478 0.37488 0.0
H791 H 0.40152 0.53839 0.36746 0.0
H792 H 0.45697 0.62881 0.3838 0.0
H793 H 0.44361 0.57842 0.39054 0.0
H794 H 0.26843 0.68281 0.4049 0.0
H795 H 0.25457 0.63257 0.41166 0.0
H796 H 0.299 0.71431 0.36476 0.0
H797 H 0.34914 0.72668 0.35512 0.0
C798 C 0.34608 0.33724 0.34921 0.0
C799 C 0.33398 0.3622 0.37719 0.0
C800 C 0.37913 0.32519 0.41608 0.0
C801 C 0.39604 0.30488 0.38687 0.0
N802 N 0.40092 0.29924 0.32401 0.0
N803 N 0.34474 0.38534 0.43593 0.0
C804 C 0.38085 0.31275 0.35291 0.0
C805 C 0.35184 0.35753 0.41043 0.0
N806 N 0.32406 0.33678 0.31917 0.0
N807 N 0.38856 0.31325 0.4491 0.0
H808 H 0.3269 0.41075 0.43185 0.0
H809 H 0.35991 0.3854 0.4597 0.0
H810 H 0.40753 0.28888 0.45419 0.0
H811 H 0.37431 0.32488 0.47117 0.0
H812 H 0.32954 0.31653 0.29893 0.0
H813 H 0.29766 0.35365 0.31624 0.0
H814 H 0.39284 0.30751 0.29878 0.0
H815 H 0.4282 0.28363 0.32514 0.0
C816 C 0.83453 0.82325 0.88329 0.0
C817 C 0.8757 0.8316 0.89035 0.0
C818 C 0.85843 0.90082 0.90669 0.0
C819 C 0.81685 0.89172 0.90153 0.0
N820 N 0.76467 0.84178 0.89348 0.0
N821 N 0.92585 0.87444 0.91648 0.0
C822 C 0.80471 0.852 0.89268 0.0
C823 C 0.88733 0.86926 0.90451 0.0
N824 N 0.82417 0.7889 0.86579 0.0
N825 N 0.87061 0.93975 0.91179 0.0
H826 H 0.94734 0.85146 0.91572 0.0
H827 H 0.93523 0.89997 0.93009 0.0
H828 H 0.85056 0.9639 0.91324 0.0
H829 H 0.90087 0.94852 0.91184 0.0
H830 H 0.79502 0.78309 0.85684 0.0
H831 H 0.84548 0.76799 0.85718 0.0
H832 H 0.75433 0.81234 0.8903 0.0
H833 H 0.74213 0.8621 0.90079 0.0
C834 C 0.17834 0.80764 0.88513 0.0
C835 C 0.16773 0.849 0.88486 0.0
C836 C 0.09695 0.83112 0.89544 0.0
C837 C 0.10797 0.78992 0.89907 0.0
N838 N 0.16085 0.74031 0.90449 0.0
N839 N 0.11938 0.90036 0.89959 0.0
C840 C 0.14927 0.77856 0.89611 0.0
C841 C 0.12774 0.86079 0.8931 0.0
N842 N 0.21548 0.79598 0.87332 0.0
N843 N 0.05725 0.84193 0.89214 0.0
H844 H 0.14175 0.92257 0.89962 0.0
H845 H 0.09139 0.91022 0.90876 0.0
H846 H 0.03359 0.82117 0.89151 0.0
H847 H 0.04821 0.87117 0.88616 0.0
H848 H 0.22356 0.76594 0.86963 0.0
H849 H 0.2369 0.81644 0.86414 0.0
H850 H 0.191 0.73142 0.90591 0.0
H851 H 0.14048 0.71852 0.91326 0.0
C852 C 0.18534 0.11304 0.86566 0.0
C853 C 0.18891 0.09699 0.89983 0.0
C854 C 0.13483 0.14192 0.91974 0.0
C855 C 0.13423 0.16019 0.88644 0.0
N856 N 0.16631 0.17073 0.83102 0.0
N857 N 0.17302 0.10217 0.9611 0.0
C858 C 0.16205 0.1482 0.86051 0.0
C859 C 0.16552 0.11335 0.92751 0.0
N860 N 0.20194 0.09346 0.83772 0.0
N861 N 0.10489 0.15019 0.94319 0.0
H862 H 0.19574 0.0818 0.96771 0.0
H863 H 0.15931 0.11591 0.9825 0.0
H864 H 0.08121 0.16984 0.93769 0.0
H865 H 0.10156 0.13486 0.96668 0.0
H866 H 0.19682 0.1022 0.81204 0.0
H867 H 0.21697 0.06598 0.83973 0.0
H868 H 0.18872 0.1653 0.81246 0.0
H869 H 0.15029 0.19742 0.82714 0.0
C870 C 0.86571 0.11754 0.89884 0.0
C871 C 0.82748 0.13163 0.88797 0.0
C872 C 0.85015 0.20123 0.89572 0.0
C873 C 0.89025 0.18711 0.90046 0.0
N874 N 0.93729 0.13146 0.90361 0.0
N875 N 0.7828 0.18632 0.87423 0.0
C876 C 0.89835 0.14511 0.90181 0.0
C877 C 0.8193 0.17339 0.88642 0.0
N878 N 0.8705 0.07763 0.90631 0.0
N879 N 0.84176 0.24121 0.90021 0.0
H880 H 0.75966 0.16649 0.86738 0.0
H881 H 0.7764 0.21634 0.86873 0.0
H882 H 0.86386 0.26216 0.90729 0.0
H883 H 0.81256 0.2529 0.90007 0.0
H884 H 0.89663 0.0658 0.9174 0.0
H885 H 0.84668 0.05705 0.90454 0.0
H886 H 0.94511 0.10127 0.90066 0.0
H887 H 0.96229 0.15049 0.90537 0.0
C888 C 0.33433 0.67353 0.68659 0.0
C889 C 0.37565 0.66282 0.68926 0.0
C890 C 0.35802 0.59222 0.6791 0.0
C891 C 0.31738 0.60371 0.6722 0.0
N892 N 0.26923 0.65694 0.66176 0.0
N893 N 0.42798 0.61365 0.6795 0.0
C894 C 0.30626 0.64495 0.67356 0.0
C895 C 0.3879 0.62261 0.683 0.0
N896 N 0.32165 0.7104 0.69799 0.0
N897 N 0.36789 0.55262 0.68374 0.0
H898 H 0.45058 0.63554 0.68071 0.0
H899 H 0.43829 0.58537 0.67171 0.0
H900 H 0.34676 0.52932 0.68283 0.0
H901 H 0.39637 0.54338 0.6921 0.0
H902 H 0.29125 0.71846 0.69951 0.0
H903 H 0.34117 0.73119 0.70955 0.0
H904 H 0.26108 0.68712 0.65935 0.0
H905 H 0.24831 0.63691 0.65103 0.0
C906 C 0.36792 0.38022 0.64798 0.0
C907 C 0.34415 0.37651 0.67859 0.0
C908 C 0.39536 0.33252 0.70346 0.0
C909 C 0.41409 0.32837 0.6703 0.0
N910 N 0.4353 0.37349 0.62474 0.0
N911 N 0.33367 0.34645 0.73479 0.0
C912 C 0.40516 0.35873 0.64536 0.0
C913 C 0.35744 0.35172 0.70606 0.0
N914 N 0.35588 0.40565 0.62215 0.0
N915 N 0.4164 0.32338 0.73296 0.0
H916 H 0.30512 0.35959 0.73709 0.0
H917 H 0.34082 0.32601 0.75444 0.0
H918 H 0.44684 0.31507 0.73206 0.0
H919 H 0.40544 0.32926 0.75794 0.0
H920 H 0.36954 0.40629 0.59766 0.0
H921 H 0.33074 0.42432 0.62466 0.0
H922 H 0.4314 0.39708 0.60722 0.0
H923 H 0.46558 0.36794 0.63056 0.0
C924 C 0.6714 0.32821 0.65265 0.0
C925 C 0.6321 0.33715 0.66523 0.0
C926 C 0.64661 0.40934 0.66246 0.0
C927 C 0.68595 0.40047 0.64955 0.0
N928 N 0.73199 0.35278 0.62386 0.0
N929 N 0.5785 0.38482 0.67324 0.0
C930 C 0.69697 0.36022 0.64167 0.0
C931 C 0.61848 0.37741 0.66708 0.0
N932 N 0.68518 0.28945 0.65338 0.0
N933 N 0.63692 0.4477 0.67245 0.0
H934 H 0.55746 0.36161 0.67641 0.0
H935 H 0.56568 0.41341 0.67183 0.0
H936 H 0.65656 0.47208 0.66979 0.0
H937 H 0.61041 0.45492 0.68575 0.0
H938 H 0.71504 0.28156 0.64809 0.0
H939 H 0.66756 0.26538 0.66196 0.0
H940 H 0.74003 0.32438 0.61461 0.0
H941 H 0.75113 0.37585 0.61546 0.0
C942 C 0.62127 0.68898 0.70063 0.0
C943 C 0.61258 0.70165 0.66608 0.0
C944 C 0.66086 0.65217 0.64332 0.0
C945 C 0.67144 0.64182 0.67793 0.0
N946 N 0.66979 0.65736 0.73899 0.0
N947 N 0.63012 0.70144 0.60507 0.0
C948 C 0.65423 0.66265 0.70641 0.0
C949 C 0.63441 0.68522 0.63753 0.0
N950 N 0.59664 0.69988 0.7277 0.0
N951 N 0.67413 0.62902 0.61618 0.0
H952 H 0.6111 0.72581 0.60009 0.0
H953 H 0.64811 0.69319 0.58393 0.0
H954 H 0.69264 0.60395 0.61957 0.0
H955 H 0.66407 0.63263 0.59068 0.0
H956 H 0.59945 0.68796 0.75267 0.0
H957 H 0.57087 0.71756 0.72469 0.0
H958 H 0.66089 0.67451 0.76044 0.0
H959 H 0.69461 0.63874 0.74368 0.0
C960 C 0.12564 0.35912 0.31587 0.0
C961 C 0.15779 0.38588 0.30761 0.0
C962 C 0.15286 0.36637 0.24586 0.0
C963 C 0.11983 0.34059 0.25399 0.0
N964 N 0.08944 0.29899 0.29837 0.0
N965 N 0.21307 0.39903 0.26804 0.0
C966 C 0.11117 0.3325 0.28962 0.0
C967 C 0.175 0.38431 0.27362 0.0
N968 N 0.10709 0.36018 0.34767 0.0
N969 N 0.16235 0.37571 0.21221 0.0
H970 H 0.23113 0.40985 0.28829 0.0
H971 H 0.22835 0.39568 0.24443 0.0
H972 H 0.14873 0.36259 0.19065 0.0
H973 H 0.18273 0.39851 0.20577 0.0
H974 H 0.08048 0.34442 0.35291 0.0
H975 H 0.11609 0.37874 0.36805 0.0
H976 H 0.0849 0.28997 0.32409 0.0
H977 H 0.08045 0.27776 0.27981 0.0
C978 C 0.66795 0.1482 0.25692 0.0
C979 C 0.66543 0.10554 0.25581 0.0
C980 C 0.63114 0.10584 0.31268 0.0
C981 C 0.6273 0.14819 0.31086 0.0
N982 N 0.64255 0.21062 0.28172 0.0
N983 N 0.63753 0.04411 0.27978 0.0
C984 C 0.64601 0.16964 0.28308 0.0
C985 C 0.64525 0.08443 0.28302 0.0
N986 N 0.69249 0.16809 0.23397 0.0
N987 N 0.62176 0.08596 0.34273 0.0
H988 H 0.64542 0.02743 0.25775 0.0
H989 H 0.61931 0.02823 0.29717 0.0
H990 H 0.61352 0.10092 0.36553 0.0
H991 H 0.627 0.0553 0.34627 0.0
H992 H 0.69893 0.19873 0.23573 0.0
H993 H 0.70909 0.15337 0.21467 0.0
H994 H 0.65075 0.22771 0.26011 0.0
H995 H 0.63008 0.22742 0.30208 0.0
C996 C 0.82947 0.64066 0.29506 0.0
C997 C 0.85014 0.62317 0.32381 0.0
C998 C 0.91461 0.63681 0.29543 0.0
C999 C 0.89471 0.65693 0.26767 0.0
N1000 N 0.83295 0.68566 0.24527 0.0
N1001 N 0.91214 0.6207 0.35651 0.0
C1002 C 0.85194 0.66105 0.26854 0.0
C1003 C 0.89259 0.62647 0.32574 0.0
N1004 N 0.7883 0.63792 0.29326 0.0
N1005 N 0.95423 0.62563 0.29237 0.0
H1006 H 0.89674 0.61587 0.37981 0.0
H1007 H 0.94296 0.62645 0.35942 0.0
H1008 H 0.97094 0.6297 0.26957 0.0
H1009 H 0.96879 0.6079 0.31091 0.0
H1010 H 0.77179 0.64551 0.27115 0.0
H1011 H 0.77083 0.62663 0.31372 0.0
H1012 H 0.8024 0.69302 0.24692 0.0
H1013 H 0.84834 0.70152 0.22596 0.0
C1014 C 0.39007 0.83438 0.27087 0.0
C1015 C 0.38197 0.84098 0.30678 0.0
C1016 C 0.3274 0.8865 0.28942 0.0
C1017 C 0.34415 0.88919 0.25532 0.0
N1018 N 0.39421 0.86468 0.21399 0.0
N1019 N 0.34051 0.87437 0.35033 0.0
C1020 C 0.37577 0.86235 0.24579 0.0
C1021 C 0.34949 0.86679 0.31623 0.0
N1022 N 0.41137 0.80111 0.26075 0.0
N1023 N 0.28979 0.90175 0.29598 0.0
H1024 H 0.35389 0.85954 0.37109 0.0
H1025 H 0.32072 0.89717 0.35798 0.0
H1026 H 0.27167 0.91386 0.27638 0.0
H1027 H 0.27477 0.89769 0.31962 0.0
H1028 H 0.41545 0.7931 0.23471 0.0
H1029 H 0.42054 0.77916 0.27852 0.0
H1030 H 0.42048 0.84874 0.208 0.0
H1031 H 0.38571 0.88452 0.19447 0.0
C1032 C 0.871 0.60748 0.8191 0.0
C1033 C 0.87847 0.64924 0.81606 0.0
C1034 C 0.84481 0.64822 0.75862 0.0
C1035 C 0.84373 0.6054 0.75963 0.0
N1036 N 0.86577 0.54436 0.78838 0.0
N1037 N 0.87392 0.70993 0.78201 0.0
C1038 C 0.85966 0.58508 0.7892 0.0
C1039 C 0.86581 0.66977 0.78544 0.0
N1040 N 0.87392 0.58908 0.85069 0.0
N1041 N 0.82442 0.66842 0.73316 0.0
H1042 H 0.88618 0.72711 0.80222 0.0
H1043 H 0.87005 0.72564 0.7588 0.0
H1044 H 0.80824 0.65388 0.71354 0.0
H1045 H 0.82071 0.69957 0.73315 0.0
H1046 H 0.86613 0.55902 0.85478 0.0
H1047 H 0.87803 0.60542 0.87347 0.0
H1048 H 0.88109 0.52898 0.80798 0.0
H1049 H 0.85993 0.52663 0.76654 0.0
C1050 C 0.37065 0.82787 0.77934 0.0
C1051 C 0.38705 0.84976 0.75083 0.0
C1052 C 0.36886 0.913 0.77935 0.0
C1053 C 0.34976 0.8914 0.80706 0.0
N1054 N 0.32432 0.82769 0.82838 0.0
N1055 N 0.39183 0.91215 0.7194 0.0
C1056 C 0.34842 0.84859 0.80576 0.0
C1057 C 0.38258 0.89196 0.74936 0.0
N1058 N 0.3765 0.78719 0.78121 0.0
N1059 N 0.37622 0.95343 0.78235 0.0
H1060 H 0.40242 0.89769 0.69706 0.0
H1061 H 0.3852 0.9425 0.71561 0.0
H1062 H 0.36942 0.97021 0.8045 0.0
H1063 H 0.39316 0.9697 0.76431 0.0
H1064 H 0.36984 0.77025 0.80331 0.0
H1065 H 0.38985 0.77073 0.76107 0.0
H1066 H 0.31899 0.79686 0.82625 0.0
H1067 H 0.30649 0.84154 0.84729 0.0
C1068 C 0.13562 0.32465 0.77676 0.0
C1069 C 0.11737 0.3435 0.80618 0.0
C1070 C 0.13364 0.4094 0.78188 0.0
C1071 C 0.15525 0.39109 0.75407 0.0
N1072 N 0.18343 0.33061 0.72886 0.0
N1073 N 0.11402 0.40307 0.84201 0.0
C1074 C 0.15807 0.34841 0.75241 0.0
C1075 C 0.12106 0.38564 0.81044 0.0
N1076 N 0.13175 0.28399 0.77227 0.0
N1077 N 0.12379 0.44936 0.78061 0.0
H1078 H 0.11084 0.38587 0.86438 0.0
H1079 H 0.11828 0.43371 0.84681 0.0
H1080 H 0.12993 0.46745 0.75905 0.0
H1081 H 0.10532 0.46317 0.79913 0.0
H1082 H 0.14001 0.26912 0.74943 0.0
H1083 H 0.11877 0.26536 0.79112 0.0
H1084 H 0.18984 0.2999 0.72883 0.0
H1085 H 0.20074 0.34694 0.71107 0.0
C1086 C 0.58448 0.10577 0.76722 0.0
C1087 C 0.60219 0.14168 0.75386 0.0
C1088 C 0.65984 0.13314 0.79359 0.0
C1089 C 0.64358 0.09561 0.80451 0.0
N1090 N 0.59458 0.04232 0.79663 0.0
N1091 N 0.65813 0.18826 0.75188 0.0
C1092 C 0.60713 0.08082 0.78984 0.0
C1093 C 0.64044 0.15493 0.76625 0.0
N1094 N 0.54551 0.09572 0.75906 0.0
N1095 N 0.69372 0.14794 0.80954 0.0
H1096 H 0.64416 0.20565 0.73279 0.0
H1097 H 0.68761 0.19738 0.75712 0.0
H1098 H 0.70909 0.13218 0.82889 0.0
H1099 H 0.70514 0.17676 0.80544 0.0
H1100 H 0.52944 0.07307 0.77177 0.0
H1101 H 0.52784 0.11188 0.74164 0.0
H1102 H 0.57122 0.02816 0.78313 0.0
H1103 H 0.60952 0.02308 0.81369 0.0
C1104 C 0.96777 0.52094 0.16002 0.0
C1105 C 0.98986 0.54354 0.18477 0.0
C1106 C 0.01606 0.48166 0.21043 0.0
C1107 C 1.00061 0.46018 0.18152 0.0
N1108 N 0.95971 0.45679 0.13018 0.0
N1109 N 0.03071 0.54718 0.23615 0.0
C1110 C 0.97484 0.47894 0.1572 0.0
C1111 C 0.01203 0.52425 0.21135 0.0
N1112 N 0.94081 0.54017 0.13902 0.0
N1113 N 0.03586 0.46099 0.23593 0.0
H1114 H 0.02704 0.57838 0.23737 0.0
H1115 H 0.05012 0.53583 0.25501 0.0
H1116 H 0.03902 0.42971 0.23504 0.0
H1117 H 0.04681 0.47399 0.25872 0.0
H1118 H 0.92182 0.52556 0.12147 0.0
H1119 H 0.93513 0.57088 0.14157 0.0
H1120 H 0.94413 0.46904 0.10921 0.0
H1121 H 0.96405 0.42571 0.12839 0.0
C1122 C 0.48371 0.03805 0.17631 0.0
C1123 C 0.46185 0.00126 0.17522 0.0
C1124 C 0.52499 0.96611 0.18749 0.0
C1125 C 0.54747 0.00119 0.17894 0.0
N1126 N 0.54524 0.06987 0.15732 0.0
N1127 N 0.46534 0.92838 0.17242 0.0
C1128 C 0.5262 0.03734 0.17155 0.0
C1129 C 0.48328 0.96456 0.17923 0.0
N1130 N 0.46411 0.07354 0.18214 0.0
N1131 N 0.54338 0.93438 0.2034 0.0
H1132 H 0.43651 0.92585 0.1618 0.0
H1133 H 0.48125 0.90128 0.17294 0.0
H1134 H 0.57338 0.93577 0.21172 0.0
H1135 H 0.52737 0.90914 0.21195 0.0
H1136 H 0.47948 0.10078 0.1852 0.0
H1137 H 0.43337 0.07464 0.18826 0.0
H1138 H 0.52953 0.0955 0.14941 0.0
H1139 H 0.57523 0.06947 0.14918 0.0
C1140 C 0.48626 0.02369 0.35718 0.0
C1141 C 0.51185 0.04118 0.38251 0.0
C1142 C 0.52962 0.97466 0.40492 0.0
C1143 C 0.50118 0.95748 0.38185 0.0
N1144 N 0.46089 0.96214 0.3303 0.0
N1145 N 0.56652 0.03453 0.423 0.0
C1146 C 0.4828 0.98104 0.35563 0.0
C1147 C 0.53672 0.01683 0.40374 0.0
N1148 N 0.46354 0.04805 0.33637 0.0
N1149 N 0.5474 0.95088 0.42946 0.0
H1150 H 0.57204 0.06547 0.42197 0.0
H1151 H 0.58768 0.01855 0.43747 0.0
H1152 H 0.54304 0.91974 0.43005 0.0
H1153 H 0.56511 0.9619 0.44975 0.0
H1154 H 0.44134 0.03761 0.31942 0.0
H1155 H 0.46603 0.07938 0.33709 0.0
H1156 H 0.44827 0.97679 0.309 0.0
H1157 H 0.45813 0.9308 0.32943 0.0
C1158 C 0.97969 0.53594 0.3979 0.0
C1159 C 0.95753 0.49946 0.39791 0.0
C1160 C 0.02149 0.46222 0.39805 0.0
C1161 C 0.0432 0.49887 0.3934 0.0
N1162 N 0.03961 0.5687 0.37612 0.0
N1163 N 0.95797 0.42775 0.38795 0.0
C1164 C 0.02117 0.53512 0.38903 0.0
C1165 C 0.97865 0.46247 0.39459 0.0
N1166 N 0.96249 0.57084 0.40929 0.0
N1167 N 0.04078 0.42796 0.40834 0.0
H1168 H 0.92681 0.42742 0.38368 0.0
H1169 H 0.97242 0.40047 0.3828 0.0
H1170 H 0.07132 0.42717 0.41481 0.0
H1171 H 0.0253 0.40156 0.41458 0.0
H1172 H 0.97908 0.59737 0.41229 0.0
H1173 H 0.93344 0.57194 0.41982 0.0
H1174 H 0.02369 0.59508 0.37075 0.0
H1175 H 0.06933 0.56827 0.3669 0.0
C1176 C 0.01098 0.51861 0.86259 0.0
C1177 C 0.012 0.53663 0.89606 0.0
C1178 C 0.0219 0.47076 0.92317 0.0
C1179 C 0.01821 0.45254 0.88997 0.0
N1180 N 0.02315 0.45857 0.82785 0.0
N1181 N 0.03079 0.53281 0.95608 0.0
C1182 C 0.01783 0.47653 0.85954 0.0
C1183 C 0.02252 0.51346 0.92553 0.0
N1184 N 1.0001 0.54093 0.83431 0.0
N1185 N 0.02127 0.44744 0.95241 0.0
H1186 H 0.03052 0.56423 0.95781 0.0
H1187 H 0.04127 0.51825 0.97829 0.0
H1188 H 0.01953 0.41613 0.95139 0.0
H1189 H 0.01987 0.45908 0.97758 0.0
H1190 H 0.99392 0.52846 0.80997 0.0
H1191 H 0.99529 0.57188 0.83561 0.0
H1192 H 0.02612 0.47457 0.80467 0.0
H1193 H 0.02858 0.42771 0.82545 0.0
C1194 C 0.52206 0.0188 0.91058 0.0
C1195 C 0.5417 0.98675 0.8929 0.0
C1196 C 0.4762 0.9535 0.88523 0.0
C1197 C 0.45622 0.98782 0.89918 0.0
N1198 N 0.46084 0.05816 0.91455 0.0
N1199 N 0.53503 0.93038 0.85357 0.0
C1200 C 0.47941 0.02217 0.9084 0.0
C1201 C 0.51798 0.95623 0.877 0.0
N1202 N 0.54342 0.04436 0.93144 0.0
N1203 N 0.45656 0.9175 0.88211 0.0
H1204 H 0.56499 0.93328 0.84533 0.0
H1205 H 0.5181 0.90951 0.83942 0.0
H1206 H 0.42733 0.9127 0.89139 0.0
H1207 H 0.47121 0.89115 0.87443 0.0
H1208 H 0.52964 0.06625 0.94692 0.0
H1209 H 0.57402 0.04026 0.93667 0.0
H1210 H 0.47692 0.08471 0.91899 0.0
H1211 H 0.42982 0.06219 0.91099 0.0
C1212 C 0.49235 0.97797 0.69935 0.0
C1213 C 0.51026 0.95596 0.67185 0.0
C1214 C 0.53895 0.01817 0.64795 0.0
C1215 C 0.51383 0.04054 0.67087 0.0
N1216 N 0.46959 0.04297 0.72066 0.0
N1217 N 0.55453 0.95268 0.62266 0.0
C1218 C 0.49199 0.02074 0.69772 0.0
C1219 C 0.53567 0.97546 0.64749 0.0
N1220 N 0.47538 0.95782 0.72666 0.0
N1221 N 0.56506 0.0378 0.62624 0.0
H1222 H 0.55366 0.92123 0.62325 0.0
H1223 H 0.56994 0.96443 0.60132 0.0
H1224 H 0.56765 0.069 0.62576 0.0
H1225 H 0.58626 0.02341 0.61053 0.0
H1226 H 0.4652 0.97183 0.74929 0.0
H1227 H 0.47511 0.92652 0.72813 0.0
H1228 H 0.44912 0.03062 0.73829 0.0
H1229 H 0.47047 0.07435 0.7212 0.0
C1230 C 0.97843 0.53156 0.68397 0.0
C1231 C 0.95635 0.49639 0.67483 0.0
C1232 C 0.01999 0.46012 0.66568 0.0
C1233 C 0.04187 0.49462 0.67675 0.0
N1234 N 0.04085 0.55739 0.70815 0.0
N1235 N 0.95623 0.42427 0.66848 0.0
C1236 C 0.0206 0.52835 0.69 0.0
C1237 C 0.97728 0.45961 0.66964 0.0
N1238 N 0.96038 0.56852 0.68405 0.0
N1239 N 0.03917 0.42916 0.64909 0.0
H1240 H 0.92502 0.4231 0.67262 0.0
H1241 H 0.97027 0.3962 0.66737 0.0
H1242 H 0.07001 0.42927 0.64361 0.0
H1243 H 0.02366 0.40521 0.63764 0.0
H1244 H 0.97651 0.59519 0.68768 0.0
H1245 H 0.93055 0.57317 0.67647 0.0
H1246 H 0.02621 0.5812 0.72063 0.0
H1247 H 0.07157 0.55482 0.71399 0.0
loop_
_geom_bond_atom_site_label_1
_geom_bond_atom_site_label_2
_geom_bond_distance
_geom_bond_site_symmetry_2
_ccdc_geom_bond_type
C0 C1 1.351 . S
C0 N3 1.368 . S
C0 H5 0.931 . S
C1 C0 1.351 . S
C1 N2 1.373 . S
C1 H29 0.930 . S
N2 C1 1.373 . S
N2 C4 1.340 . S
N3 C0 1.368 . S
N3 C4 1.321 . S
N3 Co6 2.135 . S
C4 N2 1.340 . S
C4 N3 1.321 . S
C4 H28 0.930 . S
H5 C0 0.931 . S
Co6 N3 2.135 . S
Co6 N9 2.121 . S
Co6 O14 2.055 . S
Co6 O17 2.039 . S
Co6 N20 2.140 . S
C7 O8 1.227 . S
C7 O17 1.265 . S
O8 C7 1.227 . S
N9 Co6 2.121 . S
N9 C11 1.375 . S
N9 C12 1.313 . S
C10 C11 1.338 . S
C10 N13 1.377 . S
C10 H30 0.930 1_455 S
C11 N9 1.375 . S
C11 C10 1.338 . S
C11 H15 0.931 . S
C12 N9 1.313 . S
C12 N13 1.344 . S
C12 H16 0.930 . S
N13 C10 1.377 . S
N13 C12 1.344 . S
O14 Co6 2.055 . S
O14 C18 1.253 . S
H15 C11 0.931 . S
H16 C12 0.930 . S
O17 Co6 2.039 . S
O17 C7 1.265 . S
C18 O14 1.253 . S
C18 O19 1.227 . S
O19 C18 1.227 . S
N20 Co6 2.140 . S
N20 C23 1.346 . S
N20 C24 1.345 . S
C21 C22 1.387 . S
C21 C25 1.391 . S
C22 C21 1.387 . S
C22 C23 1.369 1_655 S
C22 H31 0.929 . S
C23 N20 1.346 . S
C23 C22 1.369 1_455 S
C23 H26 0.928 . S
C24 N20 1.345 . S
C24 C25 1.371 1_455 S
C24 H27 0.931 . S
C25 C21 1.391 . S
C25 C24 1.371 1_655 S
C25 H32 0.930 . S
H26 C23 0.928 . S
H27 C24 0.931 . S
H28 C4 0.930 . S
H29 C1 0.930 . S
H30 C10 0.930 1_655 S
H31 C22 0.929 . S
H32 C25 0.930 . S
C33 C34 1.351 . S
C33 N36 1.368 . S
C33 H38 0.931 . S
C34 C33 1.351 . S
C34 N35 1.373 . S
C34 H62 0.930 . S
N35 C34 1.373 . S
N35 C37 1.340 . S
N36 C33 1.368 . S
N36 C37 1.321 . S
N36 Co39 2.135 . S
C37 N35 1.340 . S
C37 N36 1.321 . S
C37 H61 0.930 . S
H38 C33 0.931 . S
Co39 N36 2.135 . S
Co39 N42 2.121 . S
Co39 O47 2.055 . S
Co39 O50 2.039 . S
Co39 N53 2.140 . S
C40 O41 1.227 . S
C40 O50 1.265 . S
O41 C40 1.227 . S
N42 Co39 2.121 . S
N42 C44 1.375 . S
N42 C45 1.313 . S
C43 C44 1.338 . S
C43 N46 1.377 . S
C43 H63 0.930 1_545 S
C44 N42 1.375 . S
C44 C43 1.338 . S
C44 H48 0.931 . S
C45 N42 1.313 . S
C45 N46 1.344 . S
C45 H49 0.930 . S
N46 C43 1.377 . S
N46 C45 1.344 . S
O47 Co39 2.055 . S
O47 C51 1.253 . S
H48 C44 0.931 . S
H49 C45 0.930 . S
O50 Co39 2.039 . S
O50 C40 1.265 . S
C51 O47 1.253 . S
C51 O52 1.227 . S
O52 C51 1.227 . S
N53 Co39 2.140 . S
N53 C56 1.346 . S
N53 C57 1.345 . S
C54 C55 1.387 . S
C54 C58 1.391 . S
C55 C54 1.387 . S
C55 C56 1.369 1_565 S
C55 H64 0.929 . S
C56 N53 1.346 . S
C56 C55 1.369 1_545 S
C56 H59 0.928 . S
C57 N53 1.345 . S
C57 C58 1.371 1_545 S
C57 H60 0.931 . S
C58 C54 1.391 . S
C58 C57 1.371 1_565 S
C58 H65 0.930 . S
H59 C56 0.928 . S
H60 C57 0.931 . S
H61 C37 0.930 . S
H62 C34 0.930 . S
H63 C43 0.930 1_565 S
H64 C55 0.929 . S
H65 C58 0.930 . S
C66 C67 1.351 . S
C66 N69 1.368 . S
C66 H71 0.931 . S
C67 C66 1.351 . S
C67 N68 1.373 . S
C67 H95 0.930 . S
N68 C67 1.373 . S
N68 C70 1.340 . S
N69 C66 1.368 . S
N69 C70 1.321 . S
N69 Co72 2.135 . S
C70 N68 1.340 . S
C70 N69 1.321 . S
C70 H94 0.930 . S
H71 C66 0.931 . S
Co72 N69 2.135 . S
Co72 N75 2.121 . S
Co72 O80 2.055 . S
Co72 O83 2.039 . S
Co72 N86 2.140 . S
C73 O74 1.227 . S
C73 O83 1.265 . S
O74 C73 1.227 . S
N75 Co72 2.121 . S
N75 C77 1.375 . S
N75 C78 1.313 . S
C76 C77 1.338 . S
C76 N79 1.377 . S
C76 H96 0.930 1_655 S
C77 N75 1.375 . S
C77 C76 1.338 . S
C77 H81 0.931 . S
C78 N75 1.313 . S
C78 N79 1.344 . S
C78 H82 0.930 . S
N79 C76 1.377 . S
N79 C78 1.344 . S
O80 Co72 2.055 . S
O80 C84 1.253 . S
H81 C77 0.931 . S
H82 C78 0.930 . S
O83 Co72 2.039 . S
O83 C73 1.265 . S
C84 O80 1.253 . S
C84 O85 1.227 . S
O85 C84 1.227 . S
N86 Co72 2.140 . S
N86 C89 1.346 . S
N86 C90 1.345 . S
C87 C88 1.387 . S
C87 C91 1.391 . S
C88 C87 1.387 . S
C88 C89 1.369 1_455 S
C88 H97 0.929 . S
C89 N86 1.346 . S
C89 C88 1.369 1_655 S
C89 H92 0.928 . S
C90 N86 1.345 . S
C90 C91 1.371 1_655 S
C90 H93 0.931 . S
C91 C87 1.391 . S
C91 C90 1.371 1_455 S
C91 H98 0.930 . S
H92 C89 0.928 . S
H93 C90 0.931 . S
H94 C70 0.930 . S
H95 C67 0.930 . S
H96 C76 0.930 1_455 S
H97 C88 0.929 . S
H98 C91 0.930 . S
C99 C100 1.351 . S
C99 N102 1.368 . S
C99 H104 0.931 . S
C100 C99 1.351 . S
C100 N101 1.373 . S
C100 H128 0.930 . S
N101 C100 1.373 . S
N101 C103 1.340 . S
N102 C99 1.368 . S
N102 C103 1.321 . S
N102 Co105 2.135 . S
C103 N101 1.340 . S
C103 N102 1.321 . S
C103 H127 0.930 . S
H104 C99 0.931 . S
Co105 N102 2.135 . S
Co105 N108 2.121 . S
Co105 O113 2.055 . S
Co105 O116 2.039 . S
Co105 N119 2.140 . S
C106 O107 1.227 . S
C106 O116 1.265 . S
O107 C106 1.227 . S
N108 Co105 2.121 . S
N108 C110 1.375 . S
N108 C111 1.313 . S
C109 C110 1.338 . S
C109 N112 1.377 . S
C109 H129 0.930 1_565 S
C110 N108 1.375 . S
C110 C109 1.338 . S
C110 H114 0.931 . S
C111 N108 1.313 . S
C111 N112 1.344 . S
C111 H115 0.930 . S
N112 C109 1.377 . S
N112 C111 1.344 . S
O113 Co105 2.055 . S
O113 C117 1.253 . S
H114 C110 0.931 . S
H115 C111 0.930 . S
O116 Co105 2.039 . S
O116 C106 1.265 . S
C117 O113 1.253 . S
C117 O118 1.227 . S
O118 C117 1.227 . S
N119 Co105 2.140 . S
N119 C122 1.346 . S
N119 C123 1.345 . S
C120 C121 1.387 . S
C120 C124 1.391 . S
C121 C120 1.387 . S
C121 C122 1.369 1_545 S
C121 H130 0.929 . S
C122 N119 1.346 . S
C122 C121 1.369 1_565 S
C122 H125 0.928 . S
C123 N119 1.345 . S
C123 C124 1.371 1_565 S
C123 H126 0.931 . S
C124 C120 1.391 . S
C124 C123 1.371 1_545 S
C124 H131 0.930 . S
H125 C122 0.928 . S
H126 C123 0.931 . S
H127 C103 0.930 . S
H128 C100 0.930 . S
H129 C109 0.930 1_545 S
H130 C121 0.929 . S
H131 C124 0.930 . S
C132 C133 1.351 . S
C132 N135 1.368 . S
C132 H137 0.931 . S
C133 C132 1.351 . S
C133 N134 1.373 . S
C133 H161 0.930 . S
N134 C133 1.373 . S
N134 C136 1.340 . S
N135 C132 1.368 . S
N135 C136 1.321 . S
N135 Co138 2.135 . S
C136 N134 1.340 . S
C136 N135 1.321 . S
C136 H160 0.930 . S
H137 C132 0.931 . S
Co138 N135 2.135 . S
Co138 N141 2.121 . S
Co138 O146 2.055 . S
Co138 O149 2.039 . S
Co138 N152 2.140 . S
C139 O140 1.227 . S
C139 O149 1.265 . S
O140 C139 1.227 . S
N141 Co138 2.121 . S
N141 C143 1.375 . S
N141 C144 1.313 . S
C142 C143 1.338 . S
C142 N145 1.377 . S
C142 H162 0.930 . S
C143 N141 1.375 . S
C143 C142 1.338 . S
C143 H147 0.931 . S
C144 N141 1.313 . S
C144 N145 1.344 . S
C144 H148 0.930 . S
N145 C142 1.377 . S
N145 C144 1.344 . S
O146 Co138 2.055 . S
O146 C150 1.253 . S
H147 C143 0.931 . S
H148 C144 0.930 . S
O149 Co138 2.039 . S
O149 C139 1.265 . S
C150 O146 1.253 . S
C150 O151 1.227 . S
O151 C150 1.227 . S
N152 Co138 2.140 . S
N152 C155 1.346 . S
N152 C156 1.345 . S
C153 C154 1.387 . S
C153 C157 1.391 . S
C154 C153 1.387 . S
C154 C155 1.369 . S
C154 H163 0.929 . S
C155 N152 1.346 . S
C155 C154 1.369 . S
C155 H158 0.928 . S
C156 N152 1.345 . S
C156 C157 1.371 . S
C156 H159 0.931 . S
C157 C153 1.391 . S
C157 C156 1.371 . S
C157 H164 0.930 . S
H158 C155 0.928 . S
H159 C156 0.931 . S
H160 C136 0.930 . S
H161 C133 0.930 . S
H162 C142 0.930 . S
H163 C154 0.929 . S
H164 C157 0.930 . S
C165 C166 1.351 . S
C165 N168 1.368 . S
C165 H170 0.931 . S
C166 C165 1.351 . S
C166 N167 1.373 . S
C166 H194 0.930 . S
N167 C166 1.373 . S
N167 C169 1.340 . S
N168 C165 1.368 . S
N168 C169 1.321 . S
N168 Co171 2.135 . S
C169 N167 1.340 . S
C169 N168 1.321 . S
C169 H193 0.930 . S
H170 C165 0.931 . S
Co171 N168 2.135 . S
Co171 N174 2.121 . S
Co171 O179 2.055 . S
Co171 O182 2.039 . S
Co171 N185 2.140 . S
C172 O173 1.227 . S
C172 O182 1.265 . S
O173 C172 1.227 . S
N174 Co171 2.121 . S
N174 C176 1.375 . S
N174 C177 1.313 . S
C175 C176 1.338 . S
C175 N178 1.377 . S
C175 H195 0.930 . S
C176 N174 1.375 . S
C176 C175 1.338 . S
C176 H180 0.931 . S
C177 N174 1.313 . S
C177 N178 1.344 . S
C177 H181 0.930 . S
N178 C175 1.377 . S
N178 C177 1.344 . S
O179 Co171 2.055 . S
O179 C183 1.253 . S
H180 C176 0.931 . S
H181 C177 0.930 . S
O182 Co171 2.039 . S
O182 C172 1.265 . S
C183 O179 1.253 . S
C183 O184 1.227 . S
O184 C183 1.227 . S
N185 Co171 2.140 . S
N185 C188 1.346 . S
N185 C189 1.345 . S
C186 C187 1.387 . S
C186 C190 1.391 . S
C187 C186 1.387 . S
C187 C188 1.369 . S
C187 H196 0.929 . S
C188 N185 1.346 . S
C188 C187 1.369 . S
C188 H191 0.928 . S
C189 N185 1.345 . S
C189 C190 1.371 . S
C189 H192 0.931 . S
C190 C186 1.391 . S
C190 C189 1.371 . S
C190 H197 0.930 . S
H191 C188 0.928 . S
H192 C189 0.931 . S
H193 C169 0.930 . S
H194 C166 0.930 . S
H195 C175 0.930 . S
H196 C187 0.929 . S
H197 C190 0.930 . S
C198 C199 1.351 . S
C198 N201 1.368 . S
C198 H203 0.931 . S
C199 C198 1.351 . S
C199 N200 1.373 . S
C199 H227 0.930 . S
N200 C199 1.373 . S
N200 C202 1.340 . S
N201 C198 1.368 . S
N201 C202 1.321 . S
N201 Co204 2.135 . S
C202 N200 1.340 . S
C202 N201 1.321 . S
C202 H226 0.930 . S
H203 C198 0.931 . S
Co204 N201 2.135 . S
Co204 N207 2.121 . S
Co204 O212 2.055 . S
Co204 O215 2.039 . S
Co204 N218 2.140 . S
C205 O206 1.227 . S
C205 O215 1.265 . S
O206 C205 1.227 . S
N207 Co204 2.121 . S
N207 C209 1.375 . S
N207 C210 1.313 . S
C208 C209 1.338 . S
C208 N211 1.377 . S
C208 H228 0.930 . S
C209 N207 1.375 . S
C209 C208 1.338 . S
C209 H213 0.931 . S
C210 N207 1.313 . S
C210 N211 1.344 . S
C210 H214 0.930 . S
N211 C208 1.377 . S
N211 C210 1.344 . S
O212 Co204 2.055 . S
O212 C216 1.253 . S
H213 C209 0.931 . S
H214 C210 0.930 . S
O215 Co204 2.039 . S
O215 C205 1.265 . S
C216 O212 1.253 . S
C216 O217 1.227 . S
O217 C216 1.227 . S
N218 Co204 2.140 . S
N218 C221 1.346 . S
N218 C222 1.345 . S
C219 C220 1.387 . S
C219 C223 1.391 . S
C220 C219 1.387 . S
C220 C221 1.369 . S
C220 H229 0.929 . S
C221 N218 1.346 . S
C221 C220 1.369 . S
C221 H224 0.928 . S
C222 N218 1.345 . S
C222 C223 1.371 . S
C222 H225 0.931 . S
C223 C219 1.391 . S
C223 C222 1.371 . S
C223 H230 0.930 . S
H224 C221 0.928 . S
H225 C222 0.931 . S
H226 C202 0.930 . S
H227 C199 0.930 . S
H228 C208 0.930 . S
H229 C220 0.929 . S
H230 C223 0.930 . S
C231 C232 1.351 . S
C231 N234 1.368 . S
C231 H236 0.931 . S
C232 C231 1.351 . S
C232 N233 1.373 . S
C232 H260 0.930 . S
N233 C232 1.373 . S
N233 C235 1.340 . S
N234 C231 1.368 . S
N234 C235 1.321 . S
N234 Co237 2.135 . S
C235 N233 1.340 . S
C235 N234 1.321 . S
C235 H259 0.930 . S
H236 C231 0.931 . S
Co237 N234 2.135 . S
Co237 N240 2.121 . S
Co237 O245 2.055 . S
Co237 O248 2.039 . S
Co237 N251 2.140 . S
C238 O239 1.227 . S
C238 O248 1.265 . S
O239 C238 1.227 . S
N240 Co237 2.121 . S
N240 C242 1.375 . S
N240 C243 1.313 . S
C241 C242 1.338 . S
C241 N244 1.377 . S
C241 H261 0.930 . S
C242 N240 1.375 . S
C242 C241 1.338 . S
C242 H246 0.931 . S
C243 N240 1.313 . S
C243 N244 1.344 . S
C243 H247 0.930 . S
N244 C241 1.377 . S
N244 C243 1.344 . S
O245 Co237 2.055 . S
O245 C249 1.253 . S
H246 C242 0.931 . S
H247 C243 0.930 . S
O248 Co237 2.039 . S
O248 C238 1.265 . S
C249 O245 1.253 . S
C249 O250 1.227 . S
O250 C249 1.227 . S
N251 Co237 2.140 . S
N251 C254 1.346 . S
N251 C255 1.345 . S
C252 C253 1.387 . S
C252 C256 1.391 . S
C253 C252 1.387 . S
C253 C254 1.369 . S
C253 H262 0.929 . S
C254 N251 1.346 . S
C254 C253 1.369 . S
C254 H257 0.928 . S
C255 N251 1.345 . S
C255 C256 1.371 . S
C255 H258 0.931 . S
C256 C252 1.391 . S
C256 C255 1.371 . S
C256 H263 0.930 . S
H257 C254 0.928 . S
H258 C255 0.931 . S
H259 C235 0.930 . S
H260 C232 0.930 . S
H261 C241 0.930 . S
H262 C253 0.929 . S
H263 C256 0.930 . S
C264 C265 1.351 . S
C264 N267 1.368 . S
C264 H269 0.931 . S
C265 C264 1.351 . S
C265 N266 1.373 . S
C265 H293 0.930 . S
N266 C265 1.373 . S
N266 C268 1.340 . S
N267 C264 1.368 . S
N267 C268 1.321 . S
N267 Co270 2.135 . S
C268 N266 1.340 . S
C268 N267 1.321 . S
C268 H292 0.930 . S
H269 C264 0.931 . S
Co270 N267 2.135 . S
Co270 N273 2.121 . S
Co270 O278 2.055 . S
Co270 O281 2.039 . S
Co270 N284 2.140 . S
C271 O272 1.227 . S
C271 O281 1.265 . S
O272 C271 1.227 . S
N273 Co270 2.121 . S
N273 C275 1.375 . S
N273 C276 1.313 . S
C274 C275 1.338 . S
C274 N277 1.377 . S
C274 H294 0.930 1_655 S
C275 N273 1.375 . S
C275 C274 1.338 . S
C275 H279 0.931 . S
C276 N273 1.313 . S
C276 N277 1.344 . S
C276 H280 0.930 . S
N277 C274 1.377 . S
N277 C276 1.344 . S
O278 Co270 2.055 . S
O278 C282 1.253 . S
H279 C275 0.931 . S
H280 C276 0.930 . S
O281 Co270 2.039 . S
O281 C271 1.265 . S
C282 O278 1.253 . S
C282 O283 1.227 . S
O283 C282 1.227 . S
N284 Co270 2.140 . S
N284 C287 1.346 . S
N284 C288 1.345 . S
C285 C286 1.387 . S
C285 C289 1.391 . S
C286 C285 1.387 . S
C286 C287 1.369 1_455 S
C286 H295 0.929 . S
C287 N284 1.346 . S
C287 C286 1.369 1_655 S
C287 H290 0.928 . S
C288 N284 1.345 . S
C288 C289 1.371 1_655 S
C288 H291 0.931 . S
C289 C285 1.391 . S
C289 C288 1.371 1_455 S
C289 H296 0.930 . S
H290 C287 0.928 . S
H291 C288 0.931 . S
H292 C268 0.930 . S
H293 C265 0.930 . S
H294 C274 0.930 1_455 S
H295 C286 0.929 . S
H296 C289 0.930 . S
C297 C298 1.351 . S
C297 N300 1.368 . S
C297 H302 0.931 . S
C298 C297 1.351 . S
C298 N299 1.373 . S
C298 H326 0.930 . S
N299 C298 1.373 . S
N299 C301 1.340 . S
N300 C297 1.368 . S
N300 C301 1.321 . S
N300 Co303 2.135 . S
C301 N299 1.340 . S
C301 N300 1.321 . S
C301 H325 0.930 . S
H302 C297 0.931 . S
Co303 N300 2.135 . S
Co303 N306 2.121 . S
Co303 O311 2.055 . S
Co303 O314 2.039 . S
Co303 N317 2.140 . S
C304 O305 1.227 . S
C304 O314 1.265 . S
O305 C304 1.227 . S
N306 Co303 2.121 . S
N306 C308 1.375 . S
N306 C309 1.313 . S
C307 C308 1.338 . S
C307 N310 1.377 . S
C307 H327 0.930 1_565 S
C308 N306 1.375 . S
C308 C307 1.338 . S
C308 H312 0.931 . S
C309 N306 1.313 . S
C309 N310 1.344 . S
C309 H313 0.930 . S
N310 C307 1.377 . S
N310 C309 1.344 . S
O311 Co303 2.055 . S
O311 C315 1.253 . S
H312 C308 0.931 . S
H313 C309 0.930 . S
O314 Co303 2.039 . S
O314 C304 1.265 . S
C315 O311 1.253 . S
C315 O316 1.227 . S
O316 C315 1.227 . S
N317 Co303 2.140 . S
N317 C320 1.346 . S
N317 C321 1.345 . S
C318 C319 1.387 . S
C318 C322 1.391 . S
C319 C318 1.387 . S
C319 C320 1.369 1_545 S
C319 H328 0.929 . S
C320 N317 1.346 . S
C320 C319 1.369 1_565 S
C320 H323 0.928 . S
C321 N317 1.345 . S
C321 C322 1.371 1_565 S
C321 H324 0.931 . S
C322 C318 1.391 . S
C322 C321 1.371 1_545 S
C322 H329 0.930 . S
H323 C320 0.928 . S
H324 C321 0.931 . S
H325 C301 0.930 . S
H326 C298 0.930 . S
H327 C307 0.930 1_545 S
H328 C319 0.929 . S
H329 C322 0.930 . S
C330 C331 1.351 . S
C330 N333 1.368 . S
C330 H335 0.931 . S
C331 C330 1.351 . S
C331 N332 1.373 . S
C331 H359 0.930 . S
N332 C331 1.373 . S
N332 C334 1.340 . S
N333 C330 1.368 . S
N333 C334 1.321 . S
N333 Co336 2.135 . S
C334 N332 1.340 . S
C334 N333 1.321 . S
C334 H358 0.930 . S
H335 C330 0.931 . S
Co336 N333 2.135 . S
Co336 N339 2.121 . S
Co336 O344 2.055 . S
Co336 O347 2.039 . S
Co336 N350 2.140 . S
C337 O338 1.227 . S
C337 O347 1.265 . S
O338 C337 1.227 . S
N339 Co336 2.121 . S
N339 C341 1.375 . S
N339 C342 1.313 . S
C340 C341 1.338 . S
C340 N343 1.377 . S
C340 H360 0.930 1_455 S
C341 N339 1.375 . S
C341 C340 1.338 . S
C341 H345 0.931 . S
C342 N339 1.313 . S
C342 N343 1.344 . S
C342 H346 0.930 . S
N343 C340 1.377 . S
N343 C342 1.344 . S
O344 Co336 2.055 . S
O344 C348 1.253 . S
H345 C341 0.931 . S
H346 C342 0.930 . S
O347 Co336 2.039 . S
O347 C337 1.265 . S
C348 O344 1.253 . S
C348 O349 1.227 . S
O349 C348 1.227 . S
N350 Co336 2.140 . S
N350 C353 1.346 . S
N350 C354 1.345 . S
C351 C352 1.387 . S
C351 C355 1.391 . S
C352 C351 1.387 . S
C352 C353 1.369 1_655 S
C352 H361 0.929 . S
C353 N350 1.346 . S
C353 C352 1.369 1_455 S
C353 H356 0.928 . S
C354 N350 1.345 . S
C354 C355 1.371 1_455 S
C354 H357 0.931 . S
C355 C351 1.391 . S
C355 C354 1.371 1_655 S
C355 H362 0.930 . S
H356 C353 0.928 . S
H357 C354 0.931 . S
H358 C334 0.930 . S
H359 C331 0.930 . S
H360 C340 0.930 1_655 S
H361 C352 0.929 . S
H362 C355 0.930 . S
C363 C364 1.351 . S
C363 N366 1.368 . S
C363 H368 0.931 . S
C364 C363 1.351 . S
C364 N365 1.373 . S
C364 H392 0.930 . S
N365 C364 1.373 . S
N365 C367 1.340 . S
N366 C363 1.368 . S
N366 C367 1.321 . S
N366 Co369 2.135 . S
C367 N365 1.340 . S
C367 N366 1.321 . S
C367 H391 0.930 . S
H368 C363 0.931 . S
Co369 N366 2.135 . S
Co369 N372 2.121 . S
Co369 O377 2.055 . S
Co369 O380 2.039 . S
Co369 N383 2.140 . S
C370 O371 1.227 . S
C370 O380 1.265 . S
O371 C370 1.227 . S
N372 Co369 2.121 . S
N372 C374 1.375 . S
N372 C375 1.313 . S
C373 C374 1.338 . S
C373 N376 1.377 . S
C373 H393 0.930 1_545 S
C374 N372 1.375 . S
C374 C373 1.338 . S
C374 H378 0.931 . S
C375 N372 1.313 . S
C375 N376 1.344 . S
C375 H379 0.930 . S
N376 C373 1.377 . S
N376 C375 1.344 . S
O377 Co369 2.055 . S
O377 C381 1.253 . S
H378 C374 0.931 . S
H379 C375 0.930 . S
O380 Co369 2.039 . S
O380 C370 1.265 . S
C381 O377 1.253 . S
C381 O382 1.227 . S
O382 C381 1.227 . S
N383 Co369 2.140 . S
N383 C386 1.346 . S
N383 C387 1.345 . S
C384 C385 1.387 . S
C384 C388 1.391 . S
C385 C384 1.387 . S
C385 C386 1.369 1_565 S
C385 H394 0.929 . S
C386 N383 1.346 . S
C386 C385 1.369 1_545 S
C386 H389 0.928 . S
C387 N383 1.345 . S
C387 C388 1.371 1_545 S
C387 H390 0.931 . S
C388 C384 1.391 . S
C388 C387 1.371 1_565 S
C388 H395 0.930 . S
H389 C386 0.928 . S
H390 C387 0.931 . S
H391 C367 0.930 . S
H392 C364 0.930 . S
H393 C373 0.930 1_565 S
H394 C385 0.929 . S
H395 C388 0.930 . S
C396 C397 1.351 . S
C396 N399 1.368 . S
C396 H401 0.931 . S
C397 C396 1.351 . S
C397 N398 1.373 . S
C397 H425 0.930 . S
N398 C397 1.373 . S
N398 C400 1.340 . S
N399 C396 1.368 . S
N399 C400 1.321 . S
N399 Co402 2.135 . S
C400 N398 1.340 . S
C400 N399 1.321 . S
C400 H424 0.930 . S
H401 C396 0.931 . S
Co402 N399 2.135 . S
Co402 N405 2.121 . S
Co402 O410 2.055 . S
Co402 O413 2.039 . S
Co402 N416 2.140 . S
C403 O404 1.227 . S
C403 O413 1.265 . S
O404 C403 1.227 . S
N405 Co402 2.121 . S
N405 C407 1.375 . S
N405 C408 1.313 . S
C406 C407 1.338 . S
C406 N409 1.377 . S
C406 H426 0.930 . S
C407 N405 1.375 . S
C407 C406 1.338 . S
C407 H411 0.931 . S
C408 N405 1.313 . S
C408 N409 1.344 . S
C408 H412 0.930 . S
N409 C406 1.377 . S
N409 C408 1.344 . S
O410 Co402 2.055 . S
O410 C414 1.253 . S
H411 C407 0.931 . S
H412 C408 0.930 . S
O413 Co402 2.039 . S
O413 C403 1.265 . S
C414 O410 1.253 . S
C414 O415 1.227 . S
O415 C414 1.227 . S
N416 Co402 2.140 . S
N416 C419 1.346 . S
N416 C420 1.345 . S
C417 C418 1.387 . S
C417 C421 1.391 . S
C418 C417 1.387 . S
C418 C419 1.369 . S
C418 H427 0.929 . S
C419 N416 1.346 . S
C419 C418 1.369 . S
C419 H422 0.928 . S
C420 N416 1.345 . S
C420 C421 1.371 . S
C420 H423 0.931 . S
C421 C417 1.391 . S
C421 C420 1.371 . S
C421 H428 0.930 . S
H422 C419 0.928 . S
H423 C420 0.931 . S
H424 C400 0.930 . S
H425 C397 0.930 . S
H426 C406 0.930 . S
H427 C418 0.929 . S
H428 C421 0.930 . S
C429 C430 1.351 . S
C429 N432 1.368 . S
C429 H434 0.931 . S
C430 C429 1.351 . S
C430 N431 1.373 . S
C430 H458 0.930 . S
N431 C430 1.373 . S
N431 C433 1.340 . S
N432 C429 1.368 . S
N432 C433 1.321 . S
N432 Co435 2.135 . S
C433 N431 1.340 . S
C433 N432 1.321 . S
C433 H457 0.930 . S
H434 C429 0.931 . S
Co435 N432 2.135 . S
Co435 N438 2.121 . S
Co435 O443 2.055 . S
Co435 O446 2.039 . S
Co435 N449 2.140 . S
C436 O437 1.227 . S
C436 O446 1.265 . S
O437 C436 1.227 . S
N438 Co435 2.121 . S
N438 C440 1.375 . S
N438 C441 1.313 . S
C439 C440 1.338 . S
C439 N442 1.377 . S
C439 H459 0.930 . S
C440 N438 1.375 . S
C440 C439 1.338 . S
C440 H444 0.931 . S
C441 N438 1.313 . S
C441 N442 1.344 . S
C441 H445 0.930 . S
N442 C439 1.377 . S
N442 C441 1.344 . S
O443 Co435 2.055 . S
O443 C447 1.253 . S
H444 C440 0.931 . S
H445 C441 0.930 . S
O446 Co435 2.039 . S
O446 C436 1.265 . S
C447 O443 1.253 . S
C447 O448 1.227 . S
O448 C447 1.227 . S
N449 Co435 2.140 . S
N449 C452 1.346 . S
N449 C453 1.345 . S
C450 C451 1.387 . S
C450 C454 1.391 . S
C451 C450 1.387 . S
C451 C452 1.369 . S
C451 H460 0.929 . S
C452 N449 1.346 . S
C452 C451 1.369 . S
C452 H455 0.928 . S
C453 N449 1.345 . S
C453 C454 1.371 . S
C453 H456 0.931 . S
C454 C450 1.391 . S
C454 C453 1.371 . S
C454 H461 0.930 . S
H455 C452 0.928 . S
H456 C453 0.931 . S
H457 C433 0.930 . S
H458 C430 0.930 . S
H459 C439 0.930 . S
H460 C451 0.929 . S
H461 C454 0.930 . S
C462 C463 1.351 . S
C462 N465 1.368 . S
C462 H467 0.931 . S
C463 C462 1.351 . S
C463 N464 1.373 . S
C463 H491 0.930 . S
N464 C463 1.373 . S
N464 C466 1.340 . S
N465 C462 1.368 . S
N465 C466 1.321 . S
N465 Co468 2.135 . S
C466 N464 1.340 . S
C466 N465 1.321 . S
C466 H490 0.930 . S
H467 C462 0.931 . S
Co468 N465 2.135 . S
Co468 N471 2.121 . S
Co468 O476 2.055 . S
Co468 O479 2.039 . S
Co468 N482 2.140 . S
C469 O470 1.227 . S
C469 O479 1.265 . S
O470 C469 1.227 . S
N471 Co468 2.121 . S
N471 C473 1.375 . S
N471 C474 1.313 . S
C472 C473 1.338 . S
C472 N475 1.377 . S
C472 H492 0.930 . S
C473 N471 1.375 . S
C473 C472 1.338 . S
C473 H477 0.931 . S
C474 N471 1.313 . S
C474 N475 1.344 . S
C474 H478 0.930 . S
N475 C472 1.377 . S
N475 C474 1.344 . S
O476 Co468 2.055 . S
O476 C480 1.253 . S
H477 C473 0.931 . S
H478 C474 0.930 . S
O479 Co468 2.039 . S
O479 C469 1.265 . S
C480 O476 1.253 . S
C480 O481 1.227 . S
O481 C480 1.227 . S
N482 Co468 2.140 . S
N482 C485 1.346 . S
N482 C486 1.345 . S
C483 C484 1.387 . S
C483 C487 1.391 . S
C484 C483 1.387 . S
C484 C485 1.369 . S
C484 H493 0.929 . S
C485 N482 1.346 . S
C485 C484 1.369 . S
C485 H488 0.928 . S
C486 N482 1.345 . S
C486 C487 1.371 . S
C486 H489 0.931 . S
C487 C483 1.391 . S
C487 C486 1.371 . S
C487 H494 0.930 . S
H488 C485 0.928 . S
H489 C486 0.931 . S
H490 C466 0.930 . S
H491 C463 0.930 . S
H492 C472 0.930 . S
H493 C484 0.929 . S
H494 C487 0.930 . S
C495 C496 1.351 . S
C495 N498 1.368 . S
C495 H500 0.931 . S
C496 C495 1.351 . S
C496 N497 1.373 . S
C496 H524 0.930 . S
N497 C496 1.373 . S
N497 C499 1.340 . S
N498 C495 1.368 . S
N498 C499 1.321 . S
N498 Co501 2.135 . S
C499 N497 1.340 . S
C499 N498 1.321 . S
C499 H523 0.930 . S
H500 C495 0.931 . S
Co501 N498 2.135 . S
Co501 N504 2.121 . S
Co501 O509 2.055 . S
Co501 O512 2.039 . S
Co501 N515 2.140 . S
C502 O503 1.227 . S
C502 O512 1.265 . S
O503 C502 1.227 . S
N504 Co501 2.121 . S
N504 C506 1.375 . S
N504 C507 1.313 . S
C505 C506 1.338 . S
C505 N508 1.377 . S
C505 H525 0.930 . S
C506 N504 1.375 . S
C506 C505 1.338 . S
C506 H510 0.931 . S
C507 N504 1.313 . S
C507 N508 1.344 . S
C507 H511 0.930 . S
N508 C505 1.377 . S
N508 C507 1.344 . S
O509 Co501 2.055 . S
O509 C513 1.253 . S
H510 C506 0.931 . S
H511 C507 0.930 . S
O512 Co501 2.039 . S
O512 C502 1.265 . S
C513 O509 1.253 . S
C513 O514 1.227 . S
O514 C513 1.227 . S
N515 Co501 2.140 . S
N515 C518 1.346 . S
N515 C519 1.345 . S
C516 C517 1.387 . S
C516 C520 1.391 . S
C517 C516 1.387 . S
C517 C518 1.369 . S
C517 H526 0.929 . S
C518 N515 1.346 . S
C518 C517 1.369 . S
C518 H521 0.928 . S
C519 N515 1.345 . S
C519 C520 1.371 . S
C519 H522 0.931 . S
C520 C516 1.391 . S
C520 C519 1.371 . S
C520 H527 0.930 . S
H521 C518 0.928 . S
H522 C519 0.931 . S
H523 C499 0.930 . S
H524 C496 0.930 . S
H525 C505 0.930 . S
H526 C517 0.929 . S
H527 C520 0.930 . S
C528 C529 1.363 . S
C528 C534 1.379 1_556 S
C528 N536 1.356 . S
C529 C528 1.363 . S
C529 C535 1.363 . S
C530 C531 1.363 . S
C530 C535 1.379 1_554 S
C530 N537 1.356 . S
C531 C530 1.363 . S
C531 C534 1.363 . S
N532 C534 1.356 . S
N532 H544 0.984 . S
N532 H545 0.985 . S
N533 C535 1.356 . S
N533 H538 0.984 . S
N533 H539 0.985 . S
C534 C528 1.379 1_554 S
C534 C531 1.363 . S
C534 N532 1.356 . S
C535 C529 1.363 . S
C535 C530 1.379 1_556 S
C535 N533 1.356 . S
N536 C528 1.356 . S
N536 H542 0.984 . S
N536 H543 0.984 . S
N537 C530 1.356 . S
N537 H540 0.984 . S
N537 H541 0.985 . S
H538 N533 0.984 . S
H539 N533 0.985 . S
H540 N537 0.984 . S
H541 N537 0.985 . S
H542 N536 0.984 . S
H543 N536 0.984 . S
H544 N532 0.984 . S
H545 N532 0.985 . S
C546 C547 1.363 . S
C546 C552 1.379 1_556 S
C546 N554 1.356 . S
C547 C546 1.363 . S
C547 C553 1.363 . S
C548 C549 1.363 . S
C548 C553 1.379 1_554 S
C548 N555 1.356 . S
C549 C548 1.363 . S
C549 C552 1.363 . S
N550 C552 1.356 . S
N550 H562 0.984 . S
N550 H563 0.985 . S
N551 C553 1.356 . S
N551 H556 0.984 . S
N551 H557 0.985 . S
C552 C546 1.379 1_554 S
C552 C549 1.363 . S
C552 N550 1.356 . S
C553 C547 1.363 . S
C553 C548 1.379 1_556 S
C553 N551 1.356 . S
N554 C546 1.356 . S
N554 H560 0.984 . S
N554 H561 0.984 . S
N555 C548 1.356 . S
N555 H558 0.984 . S
N555 H559 0.985 . S
H556 N551 0.984 . S
H557 N551 0.985 . S
H558 N555 0.984 . S
H559 N555 0.985 . S
H560 N554 0.984 . S
H561 N554 0.984 . S
H562 N550 0.984 . S
H563 N550 0.985 . S
C564 C565 1.363 . S
C564 C570 1.379 1_556 S
C564 N572 1.356 . S
C565 C564 1.363 . S
C565 C571 1.363 . S
C566 C567 1.363 . S
C566 C571 1.379 1_554 S
C566 N573 1.356 . S
C567 C566 1.363 . S
C567 C570 1.363 . S
N568 C570 1.356 . S
N568 H580 0.984 . S
N568 H581 0.985 . S
N569 C571 1.356 . S
N569 H574 0.984 . S
N569 H575 0.985 . S
C570 C564 1.379 1_554 S
C570 C567 1.363 . S
C570 N568 1.356 . S
C571 C565 1.363 . S
C571 C566 1.379 1_556 S
C571 N569 1.356 . S
N572 C564 1.356 . S
N572 H578 0.984 . S
N572 H579 0.984 . S
N573 C566 1.356 . S
N573 H576 0.984 . S
N573 H577 0.985 . S
H574 N569 0.984 . S
H575 N569 0.985 . S
H576 N573 0.984 . S
H577 N573 0.985 . S
H578 N572 0.984 . S
H579 N572 0.984 . S
H580 N568 0.984 . S
H581 N568 0.985 . S
C582 C583 1.363 . S
C582 C588 1.379 1_556 S
C582 N590 1.356 . S
C583 C582 1.363 . S
C583 C589 1.363 . S
C584 C585 1.363 . S
C584 C589 1.379 1_554 S
C584 N591 1.356 . S
C585 C584 1.363 . S
C585 C588 1.363 . S
N586 C588 1.356 . S
N586 H598 0.984 . S
N586 H599 0.985 . S
N587 C589 1.356 . S
N587 H592 0.984 . S
N587 H593 0.985 . S
C588 C582 1.379 1_554 S
C588 C585 1.363 . S
C588 N586 1.356 . S
C589 C583 1.363 . S
C589 C584 1.379 1_556 S
C589 N587 1.356 . S
N590 C582 1.356 . S
N590 H596 0.984 . S
N590 H597 0.984 . S
N591 C584 1.356 . S
N591 H594 0.984 . S
N591 H595 0.985 . S
H592 N587 0.984 . S
H593 N587 0.985 . S
H594 N591 0.984 . S
H595 N591 0.985 . S
H596 N590 0.984 . S
H597 N590 0.984 . S
H598 N586 0.984 . S
H599 N586 0.985 . S
C600 C601 1.363 . S
C600 C606 1.379 . S
C600 N608 1.356 . S
C601 C600 1.363 . S
C601 C607 1.363 . S
C602 C603 1.363 . S
C602 C607 1.379 . S
C602 N609 1.356 . S
C603 C602 1.363 . S
C603 C606 1.363 . S
N604 C606 1.356 . S
N604 H616 0.984 . S
N604 H617 0.985 . S
N605 C607 1.356 . S
N605 H610 0.984 . S
N605 H611 0.985 . S
C606 C600 1.379 . S
C606 C603 1.363 . S
C606 N604 1.356 . S
C607 C601 1.363 . S
C607 C602 1.379 . S
C607 N605 1.356 . S
N608 C600 1.356 . S
N608 H614 0.984 . S
N608 H615 0.984 . S
N609 C602 1.356 . S
N609 H612 0.984 . S
N609 H613 0.985 . S
H610 N605 0.984 . S
H611 N605 0.985 . S
H612 N609 0.984 . S
H613 N609 0.985 . S
H614 N608 0.984 . S
H615 N608 0.984 . S
H616 N604 0.984 . S
H617 N604 0.985 . S
C618 C619 1.363 . S
C618 C624 1.379 . S
C618 N626 1.356 . S
C619 C618 1.363 . S
C619 C625 1.363 . S
C620 C621 1.363 . S
C620 C625 1.379 . S
C620 N627 1.356 . S
C621 C620 1.363 . S
C621 C624 1.363 . S
N622 C624 1.356 . S
N622 H634 0.984 . S
N622 H635 0.985 . S
N623 C625 1.356 . S
N623 H628 0.984 . S
N623 H629 0.985 . S
C624 C618 1.379 . S
C624 C621 1.363 . S
C624 N622 1.356 . S
C625 C619 1.363 . S
C625 C620 1.379 . S
C625 N623 1.356 . S
N626 C618 1.356 . S
N626 H632 0.984 . S
N626 H633 0.984 . S
N627 C620 1.356 . S
N627 H630 0.984 . S
N627 H631 0.985 . S
H628 N623 0.984 . S
H629 N623 0.985 . S
H630 N627 0.984 . S
H631 N627 0.985 . S
H632 N626 0.984 . S
H633 N626 0.984 . S
H634 N622 0.984 . S
H635 N622 0.985 . S
C636 C637 1.363 . S
C636 C642 1.379 . S
C636 N644 1.356 . S
C637 C636 1.363 . S
C637 C643 1.363 . S
C638 C639 1.363 . S
C638 C643 1.379 . S
C638 N645 1.356 . S
C639 C638 1.363 . S
C639 C642 1.363 . S
N640 C642 1.356 . S
N640 H652 0.984 . S
N640 H653 0.985 . S
N641 C643 1.356 . S
N641 H646 0.984 . S
N641 H647 0.985 . S
C642 C636 1.379 . S
C642 C639 1.363 . S
C642 N640 1.356 . S
C643 C637 1.363 . S
C643 C638 1.379 . S
C643 N641 1.356 . S
N644 C636 1.356 . S
N644 H650 0.984 . S
N644 H651 0.984 . S
N645 C638 1.356 . S
N645 H648 0.984 . S
N645 H649 0.985 . S
H646 N641 0.984 . S
H647 N641 0.985 . S
H648 N645 0.984 . S
H649 N645 0.985 . S
H650 N644 0.984 . S
H651 N644 0.984 . S
H652 N640 0.984 . S
H653 N640 0.985 . S
C654 C655 1.363 . S
C654 C660 1.379 . S
C654 N662 1.356 . S
C655 C654 1.363 . S
C655 C661 1.363 . S
C656 C657 1.363 . S
C656 C661 1.379 . S
C656 N663 1.356 . S
C657 C656 1.363 . S
C657 C660 1.363 . S
N658 C660 1.356 . S
N658 H670 0.984 . S
N658 H671 0.985 . S
N659 C661 1.356 . S
N659 H664 0.984 . S
N659 H665 0.985 . S
C660 C654 1.379 . S
C660 C657 1.363 . S
C660 N658 1.356 . S
C661 C655 1.363 . S
C661 C656 1.379 . S
C661 N659 1.356 . S
N662 C654 1.356 . S
N662 H668 0.984 . S
N662 H669 0.984 . S
N663 C656 1.356 . S
N663 H666 0.984 . S
N663 H667 0.985 . S
H664 N659 0.984 . S
H665 N659 0.985 . S
H666 N663 0.984 . S
H667 N663 0.985 . S
H668 N662 0.984 . S
H669 N662 0.984 . S
H670 N658 0.984 . S
H671 N658 0.985 . S
C672 C673 1.363 . S
C672 C678 1.379 . S
C672 N680 1.356 . S
C673 C672 1.363 . S
C673 C679 1.363 . S
C674 C675 1.363 . S
C674 C679 1.379 . S
C674 N681 1.356 . S
C675 C674 1.363 . S
C675 C678 1.363 . S
N676 C678 1.356 . S
N676 H688 0.984 . S
N676 H689 0.985 . S
N677 C679 1.356 . S
N677 H682 0.984 . S
N677 H683 0.985 . S
C678 C672 1.379 . S
C678 C675 1.363 . S
C678 N676 1.356 . S
C679 C673 1.363 . S
C679 C674 1.379 . S
C679 N677 1.356 . S
N680 C672 1.356 . S
N680 H686 0.984 . S
N680 H687 0.984 . S
N681 C674 1.356 . S
N681 H684 0.984 . S
N681 H685 0.985 . S
H682 N677 0.984 . S
H683 N677 0.985 . S
H684 N681 0.984 . S
H685 N681 0.985 . S
H686 N680 0.984 . S
H687 N680 0.984 . S
H688 N676 0.984 . S
H689 N676 0.985 . S
C690 C691 1.363 . S
C690 C696 1.379 . S
C690 N698 1.356 . S
C691 C690 1.363 . S
C691 C697 1.363 . S
C692 C693 1.363 . S
C692 C697 1.379 . S
C692 N699 1.356 . S
C693 C692 1.363 . S
C693 C696 1.363 . S
N694 C696 1.356 . S
N694 H706 0.984 . S
N694 H707 0.985 . S
N695 C697 1.356 . S
N695 H700 0.984 . S
N695 H701 0.985 . S
C696 C690 1.379 . S
C696 C693 1.363 . S
C696 N694 1.356 . S
C697 C691 1.363 . S
C697 C692 1.379 . S
C697 N695 1.356 . S
N698 C690 1.356 . S
N698 H704 0.984 . S
N698 H705 0.984 . S
N699 C692 1.356 . S
N699 H702 0.984 . S
N699 H703 0.985 . S
H700 N695 0.984 . S
H701 N695 0.985 . S
H702 N699 0.984 . S
H703 N699 0.985 . S
H704 N698 0.984 . S
H705 N698 0.984 . S
H706 N694 0.984 . S
H707 N694 0.985 . S
C708 C709 1.363 . S
C708 C714 1.379 . S
C708 N716 1.356 . S
C709 C708 1.363 . S
C709 C715 1.363 . S
C710 C711 1.363 . S
C710 C715 1.379 . S
C710 N717 1.356 . S
C711 C710 1.363 . S
C711 C714 1.363 . S
N712 C714 1.356 . S
N712 H724 0.984 . S
N712 H725 0.985 . S
N713 C715 1.356 . S
N713 H718 0.984 . S
N713 H719 0.985 . S
C714 C708 1.379 . S
C714 C711 1.363 . S
C714 N712 1.356 . S
C715 C709 1.363 . S
C715 C710 1.379 . S
C715 N713 1.356 . S
N716 C708 1.356 . S
N716 H722 0.984 . S
N716 H723 0.984 . S
N717 C710 1.356 . S
N717 H720 0.984 . S
N717 H721 0.985 . S
H718 N713 0.984 . S
H719 N713 0.985 . S
H720 N717 0.984 . S
H721 N717 0.985 . S
H722 N716 0.984 . S
H723 N716 0.984 . S
H724 N712 0.984 . S
H725 N712 0.985 . S
C726 C727 1.363 . S
C726 C732 1.379 . S
C726 N734 1.356 . S
C727 C726 1.363 . S
C727 C733 1.363 . S
C728 C729 1.363 . S
C728 C733 1.379 . S
C728 N735 1.356 . S
C729 C728 1.363 . S
C729 C732 1.363 . S
N730 C732 1.356 . S
N730 H742 0.984 . S
N730 H743 0.985 . S
N731 C733 1.356 . S
N731 H736 0.984 . S
N731 H737 0.985 . S
C732 C726 1.379 . S
C732 C729 1.363 . S
C732 N730 1.356 . S
C733 C727 1.363 . S
C733 C728 1.379 . S
C733 N731 1.356 . S
N734 C726 1.356 . S
N734 H740 0.984 . S
N734 H741 0.984 . S
N735 C728 1.356 . S
N735 H738 0.984 . S
N735 H739 0.985 . S
H736 N731 0.984 . S
H737 N731 0.985 . S
H738 N735 0.984 . S
H739 N735 0.985 . S
H740 N734 0.984 . S
H741 N734 0.984 . S
H742 N730 0.984 . S
H743 N730 0.985 . S
C744 C745 1.363 . S
C744 C750 1.379 . S
C744 N752 1.356 . S
C745 C744 1.363 . S
C745 C751 1.363 . S
C746 C747 1.363 . S
C746 C751 1.379 . S
C746 N753 1.356 . S
C747 C746 1.363 . S
C747 C750 1.363 . S
N748 C750 1.356 . S
N748 H760 0.984 . S
N748 H761 0.985 . S
N749 C751 1.356 . S
N749 H754 0.984 . S
N749 H755 0.985 . S
C750 C744 1.379 . S
C750 C747 1.363 . S
C750 N748 1.356 . S
C751 C745 1.363 . S
C751 C746 1.379 . S
C751 N749 1.356 . S
N752 C744 1.356 . S
N752 H758 0.984 . S
N752 H759 0.984 . S
N753 C746 1.356 . S
N753 H756 0.984 . S
N753 H757 0.985 . S
H754 N749 0.984 . S
H755 N749 0.985 . S
H756 N753 0.984 . S
H757 N753 0.985 . S
H758 N752 0.984 . S
H759 N752 0.984 . S
H760 N748 0.984 . S
H761 N748 0.985 . S
C762 C763 1.363 . S
C762 C768 1.379 . S
C762 N770 1.356 . S
C763 C762 1.363 . S
C763 C769 1.363 . S
C764 C765 1.363 . S
C764 C769 1.379 . S
C764 N771 1.356 . S
C765 C764 1.363 . S
C765 C768 1.363 . S
N766 C768 1.356 . S
N766 H778 0.984 . S
N766 H779 0.985 . S
N767 C769 1.356 . S
N767 H772 0.984 . S
N767 H773 0.985 . S
C768 C762 1.379 . S
C768 C765 1.363 . S
C768 N766 1.356 . S
C769 C763 1.363 . S
C769 C764 1.379 . S
C769 N767 1.356 . S
N770 C762 1.356 . S
N770 H776 0.984 . S
N770 H777 0.984 . S
N771 C764 1.356 . S
N771 H774 0.984 . S
N771 H775 0.985 . S
H772 N767 0.984 . S
H773 N767 0.985 . S
H774 N771 0.984 . S
H775 N771 0.985 . S
H776 N770 0.984 . S
H777 N770 0.984 . S
H778 N766 0.984 . S
H779 N766 0.985 . S
C780 C781 1.363 . S
C780 C786 1.379 . S
C780 N788 1.356 . S
C781 C780 1.363 . S
C781 C787 1.363 . S
C782 C783 1.363 . S
C782 C787 1.379 . S
C782 N789 1.356 . S
C783 C782 1.363 . S
C783 C786 1.363 . S
N784 C786 1.356 . S
N784 H796 0.984 . S
N784 H797 0.985 . S
N785 C787 1.356 . S
N785 H790 0.984 . S
N785 H791 0.985 . S
C786 C780 1.379 . S
C786 C783 1.363 . S
C786 N784 1.356 . S
C787 C781 1.363 . S
C787 C782 1.379 . S
C787 N785 1.356 . S
N788 C780 1.356 . S
N788 H794 0.984 . S
N788 H795 0.984 . S
N789 C782 1.356 . S
N789 H792 0.984 . S
N789 H793 0.985 . S
H790 N785 0.984 . S
H791 N785 0.985 . S
H792 N789 0.984 . S
H793 N789 0.985 . S
H794 N788 0.984 . S
H795 N788 0.984 . S
H796 N784 0.984 . S
H797 N784 0.985 . S
C798 C799 1.363 . S
C798 C804 1.379 . S
C798 N806 1.356 . S
C799 C798 1.363 . S
C799 C805 1.363 . S
C800 C801 1.363 . S
C800 C805 1.379 . S
C800 N807 1.356 . S
C801 C800 1.363 . S
C801 C804 1.363 . S
N802 C804 1.356 . S
N802 H814 0.984 . S
N802 H815 0.985 . S
N803 C805 1.356 . S
N803 H808 0.984 . S
N803 H809 0.985 . S
C804 C798 1.379 . S
C804 C801 1.363 . S
C804 N802 1.356 . S
C805 C799 1.363 . S
C805 C800 1.379 . S
C805 N803 1.356 . S
N806 C798 1.356 . S
N806 H812 0.984 . S
N806 H813 0.984 . S
N807 C800 1.356 . S
N807 H810 0.984 . S
N807 H811 0.985 . S
H808 N803 0.984 . S
H809 N803 0.985 . S
H810 N807 0.984 . S
H811 N807 0.985 . S
H812 N806 0.984 . S
H813 N806 0.984 . S
H814 N802 0.984 . S
H815 N802 0.985 . S
C816 C817 1.363 . S
C816 C822 1.379 . S
C816 N824 1.356 . S
C817 C816 1.363 . S
C817 C823 1.363 . S
C818 C819 1.363 . S
C818 C823 1.379 . S
C818 N825 1.356 . S
C819 C818 1.363 . S
C819 C822 1.363 . S
N820 C822 1.356 . S
N820 H832 0.984 . S
N820 H833 0.985 . S
N821 C823 1.356 . S
N821 H826 0.984 . S
N821 H827 0.985 . S
C822 C816 1.379 . S
C822 C819 1.363 . S
C822 N820 1.356 . S
C823 C817 1.363 . S
C823 C818 1.379 . S
C823 N821 1.356 . S
N824 C816 1.356 . S
N824 H830 0.984 . S
N824 H831 0.984 . S
N825 C818 1.356 . S
N825 H828 0.984 . S
N825 H829 0.985 . S
H826 N821 0.984 . S
H827 N821 0.985 . S
H828 N825 0.984 . S
H829 N825 0.985 . S
H830 N824 0.984 . S
H831 N824 0.984 . S
H832 N820 0.984 . S
H833 N820 0.985 . S
C834 C835 1.363 . S
C834 C840 1.379 . S
C834 N842 1.356 . S
C835 C834 1.363 . S
C835 C841 1.363 . S
C836 C837 1.363 . S
C836 C841 1.379 . S
C836 N843 1.356 . S
C837 C836 1.363 . S
C837 C840 1.363 . S
N838 C840 1.356 . S
N838 H850 0.984 . S
N838 H851 0.985 . S
N839 C841 1.356 . S
N839 H844 0.984 . S
N839 H845 0.985 . S
C840 C834 1.379 . S
C840 C837 1.363 . S
C840 N838 1.356 . S
C841 C835 1.363 . S
C841 C836 1.379 . S
C841 N839 1.356 . S
N842 C834 1.356 . S
N842 H848 0.984 . S
N842 H849 0.984 . S
N843 C836 1.356 . S
N843 H846 0.984 . S
N843 H847 0.985 . S
H844 N839 0.984 . S
H845 N839 0.985 . S
H846 N843 0.984 . S
H847 N843 0.985 . S
H848 N842 0.984 . S
H849 N842 0.984 . S
H850 N838 0.984 . S
H851 N838 0.985 . S
C852 C853 1.363 . S
C852 C858 1.379 . S
C852 N860 1.356 . S
C853 C852 1.363 . S
C853 C859 1.363 . S
C854 C855 1.363 . S
C854 C859 1.379 . S
C854 N861 1.356 . S
C855 C854 1.363 . S
C855 C858 1.363 . S
N856 C858 1.356 . S
N856 H868 0.984 . S
N856 H869 0.985 . S
N857 C859 1.356 . S
N857 H862 0.984 . S
N857 H863 0.985 . S
C858 C852 1.379 . S
C858 C855 1.363 . S
C858 N856 1.356 . S
C859 C853 1.363 . S
C859 C854 1.379 . S
C859 N857 1.356 . S
N860 C852 1.356 . S
N860 H866 0.984 . S
N860 H867 0.984 . S
N861 C854 1.356 . S
N861 H864 0.984 . S
N861 H865 0.985 . S
H862 N857 0.984 . S
H863 N857 0.985 . S
H864 N861 0.984 . S
H865 N861 0.985 . S
H866 N860 0.984 . S
H867 N860 0.984 . S
H868 N856 0.984 . S
H869 N856 0.985 . S
C870 C871 1.363 . S
C870 C876 1.379 . S
C870 N878 1.356 . S
C871 C870 1.363 . S
C871 C877 1.363 . S
C872 C873 1.363 . S
C872 C877 1.379 . S
C872 N879 1.356 . S
C873 C872 1.363 . S
C873 C876 1.363 . S
N874 C876 1.356 . S
N874 H886 0.984 . S
N874 H887 0.985 . S
N875 C877 1.356 . S
N875 H880 0.984 . S
N875 H881 0.985 . S
C876 C870 1.379 . S
C876 C873 1.363 . S
C876 N874 1.356 . S
C877 C871 1.363 . S
C877 C872 1.379 . S
C877 N875 1.356 . S
N878 C870 1.356 . S
N878 H884 0.984 . S
N878 H885 0.984 . S
N879 C872 1.356 . S
N879 H882 0.984 . S
N879 H883 0.985 . S
H880 N875 0.984 . S
H881 N875 0.985 . S
H882 N879 0.984 . S
H883 N879 0.985 . S
H884 N878 0.984 . S
H885 N878 0.984 . S
H886 N874 0.984 . S
H887 N874 0.985 . S
C888 C889 1.363 . S
C888 C894 1.379 . S
C888 N896 1.356 . S
C889 C888 1.363 . S
C889 C895 1.363 . S
C890 C891 1.363 . S
C890 C895 1.379 . S
C890 N897 1.356 . S
C891 C890 1.363 . S
C891 C894 1.363 . S
N892 C894 1.356 . S
N892 H904 0.984 . S
N892 H905 0.985 . S
N893 C895 1.356 . S
N893 H898 0.984 . S
N893 H899 0.985 . S
C894 C888 1.379 . S
C894 C891 1.363 . S
C894 N892 1.356 . S
C895 C889 1.363 . S
C895 C890 1.379 . S
C895 N893 1.356 . S
N896 C888 1.356 . S
N896 H902 0.984 . S
N896 H903 0.984 . S
N897 C890 1.356 . S
N897 H900 0.984 . S
N897 H901 0.985 . S
H898 N893 0.984 . S
H899 N893 0.985 . S
H900 N897 0.984 . S
H901 N897 0.985 . S
H902 N896 0.984 . S
H903 N896 0.984 . S
H904 N892 0.984 . S
H905 N892 0.985 . S
C906 C907 1.363 . S
C906 C912 1.379 . S
C906 N914 1.356 . S
C907 C906 1.363 . S
C907 C913 1.363 . S
C908 C909 1.363 . S
C908 C913 1.379 . S
C908 N915 1.356 . S
C909 C908 1.363 . S
C909 C912 1.363 . S
N910 C912 1.356 . S
N910 H922 0.984 . S
N910 H923 0.985 . S
N911 C913 1.356 . S
N911 H916 0.984 . S
N911 H917 0.985 . S
C912 C906 1.379 . S
C912 C909 1.363 . S
C912 N910 1.356 . S
C913 C907 1.363 . S
C913 C908 1.379 . S
C913 N911 1.356 . S
N914 C906 1.356 . S
N914 H920 0.984 . S
N914 H921 0.984 . S
N915 C908 1.356 . S
N915 H918 0.984 . S
N915 H919 0.985 . S
H916 N911 0.984 . S
H917 N911 0.985 . S
H918 N915 0.984 . S
H919 N915 0.985 . S
H920 N914 0.984 . S
H921 N914 0.984 . S
H922 N910 0.984 . S
H923 N910 0.985 . S
C924 C925 1.363 . S
C924 C930 1.379 . S
C924 N932 1.356 . S
C925 C924 1.363 . S
C925 C931 1.363 . S
C926 C927 1.363 . S
C926 C931 1.379 . S
C926 N933 1.356 . S
C927 C926 1.363 . S
C927 C930 1.363 . S
N928 C930 1.356 . S
N928 H940 0.984 . S
N928 H941 0.985 . S
N929 C931 1.356 . S
N929 H934 0.984 . S
N929 H935 0.985 . S
C930 C924 1.379 . S
C930 C927 1.363 . S
C930 N928 1.356 . S
C931 C925 1.363 . S
C931 C926 1.379 . S
C931 N929 1.356 . S
N932 C924 1.356 . S
N932 H938 0.984 . S
N932 H939 0.984 . S
N933 C926 1.356 . S
N933 H936 0.984 . S
N933 H937 0.985 . S
H934 N929 0.984 . S
H935 N929 0.985 . S
H936 N933 0.984 . S
H937 N933 0.985 . S
H938 N932 0.984 . S
H939 N932 0.984 . S
H940 N928 0.984 . S
H941 N928 0.985 . S
C942 C943 1.363 . S
C942 C948 1.379 . S
C942 N950 1.356 . S
C943 C942 1.363 . S
C943 C949 1.363 . S
C944 C945 1.363 . S
C944 C949 1.379 . S
C944 N951 1.356 . S
C945 C944 1.363 . S
C945 C948 1.363 . S
N946 C948 1.356 . S
N946 H958 0.984 . S
N946 H959 0.985 . S
N947 C949 1.356 . S
N947 H952 0.984 . S
N947 H953 0.985 . S
C948 C942 1.379 . S
C948 C945 1.363 . S
C948 N946 1.356 . S
C949 C943 1.363 . S
C949 C944 1.379 . S
C949 N947 1.356 . S
N950 C942 1.356 . S
N950 H956 0.984 . S
N950 H957 0.984 . S
N951 C944 1.356 . S
N951 H954 0.984 . S
N951 H955 0.985 . S
H952 N947 0.984 . S
H953 N947 0.985 . S
H954 N951 0.984 . S
H955 N951 0.985 . S
H956 N950 0.984 . S
H957 N950 0.984 . S
H958 N946 0.984 . S
H959 N946 0.985 . S
C960 C961 1.363 . S
C960 C966 1.379 . S
C960 N968 1.356 . S
C961 C960 1.363 . S
C961 C967 1.363 . S
C962 C963 1.363 . S
C962 C967 1.379 . S
C962 N969 1.356 . S
C963 C962 1.363 . S
C963 C966 1.363 . S
N964 C966 1.356 . S
N964 H976 0.984 . S
N964 H977 0.985 . S
N965 C967 1.356 . S
N965 H970 0.984 . S
N965 H971 0.985 . S
C966 C960 1.379 . S
C966 C963 1.363 . S
C966 N964 1.356 . S
C967 C961 1.363 . S
C967 C962 1.379 . S
C967 N965 1.356 . S
N968 C960 1.356 . S
N968 H974 0.984 . S
N968 H975 0.984 . S
N969 C962 1.356 . S
N969 H972 0.984 . S
N969 H973 0.985 . S
H970 N965 0.984 . S
H971 N965 0.985 . S
H972 N969 0.984 . S
H973 N969 0.985 . S
H974 N968 0.984 . S
H975 N968 0.984 . S
H976 N964 0.984 . S
H977 N964 0.985 . S
C978 C979 1.363 . S
C978 C984 1.379 . S
C978 N986 1.356 . S
C979 C978 1.363 . S
C979 C985 1.363 . S
C980 C981 1.363 . S
C980 C985 1.379 . S
C980 N987 1.356 . S
C981 C980 1.363 . S
C981 C984 1.363 . S
N982 C984 1.356 . S
N982 H994 0.984 . S
N982 H995 0.985 . S
N983 C985 1.356 . S
N983 H988 0.984 . S
N983 H989 0.985 . S
C984 C978 1.379 . S
C984 C981 1.363 . S
C984 N982 1.356 . S
C985 C979 1.363 . S
C985 C980 1.379 . S
C985 N983 1.356 . S
N986 C978 1.356 . S
N986 H992 0.984 . S
N986 H993 0.984 . S
N987 C980 1.356 . S
N987 H990 0.984 . S
N987 H991 0.985 . S
H988 N983 0.984 . S
H989 N983 0.985 . S
H990 N987 0.984 . S
H991 N987 0.985 . S
H992 N986 0.984 . S
H993 N986 0.984 . S
H994 N982 0.984 . S
H995 N982 0.985 . S
C996 C997 1.363 . S
C996 C1002 1.379 . S
C996 N1004 1.356 . S
C997 C996 1.363 . S
C997 C1003 1.363 . S
C998 C999 1.363 . S
C998 C1003 1.379 . S
C998 N1005 1.356 . S
C999 C998 1.363 . S
C999 C1002 1.363 . S
N1000 C1002 1.356 . S
N1000 H1012 0.984 . S
N1000 H1013 0.985 . S
N1001 C1003 1.356 . S
N1001 H1006 0.984 . S
N1001 H1007 0.985 . S
C1002 C996 1.379 . S
C1002 C999 1.363 . S
C1002 N1000 1.356 . S
C1003 C997 1.363 . S
C1003 C998 1.379 . S
C1003 N1001 1.356 . S
N1004 C996 1.356 . S
N1004 H1010 0.984 . S
N1004 H1011 0.984 . S
N1005 C998 1.356 . S
N1005 H1008 0.984 . S
N1005 H1009 0.985 . S
H1006 N1001 0.984 . S
H1007 N1001 0.985 . S
H1008 N1005 0.984 . S
H1009 N1005 0.985 . S
H1010 N1004 0.984 . S
H1011 N1004 0.984 . S
H1012 N1000 0.984 . S
H1013 N1000 0.985 . S
C1014 C1015 1.363 . S
C1014 C1020 1.379 . S
C1014 N1022 1.356 . S
C1015 C1014 1.363 . S
C1015 C1021 1.363 . S
C1016 C1017 1.363 . S
C1016 C1021 1.379 . S
C1016 N1023 1.356 . S
C1017 C1016 1.363 . S
C1017 C1020 1.363 . S
N1018 C1020 1.356 . S
N1018 H1030 0.984 . S
N1018 H1031 0.985 . S
N1019 C1021 1.356 . S
N1019 H1024 0.984 . S
N1019 H1025 0.985 . S
C1020 C1014 1.379 . S
C1020 C1017 1.363 . S
C1020 N1018 1.356 . S
C1021 C1015 1.363 . S
C1021 C1016 1.379 . S
C1021 N1019 1.356 . S
N1022 C1014 1.356 . S
N1022 H1028 0.984 . S
N1022 H1029 0.984 . S
N1023 C1016 1.356 . S
N1023 H1026 0.984 . S
N1023 H1027 0.985 . S
H1024 N1019 0.984 . S
H1025 N1019 0.985 . S
H1026 N1023 0.984 . S
H1027 N1023 0.985 . S
H1028 N1022 0.984 . S
H1029 N1022 0.984 . S
H1030 N1018 0.984 . S
H1031 N1018 0.985 . S
C1032 C1033 1.363 . S
C1032 C1038 1.379 . S
C1032 N1040 1.356 . S
C1033 C1032 1.363 . S
C1033 C1039 1.363 . S
C1034 C1035 1.363 . S
C1034 C1039 1.379 . S
C1034 N1041 1.356 . S
C1035 C1034 1.363 . S
C1035 C1038 1.363 . S
N1036 C1038 1.356 . S
N1036 H1048 0.984 . S
N1036 H1049 0.985 . S
N1037 C1039 1.356 . S
N1037 H1042 0.984 . S
N1037 H1043 0.985 . S
C1038 C1032 1.379 . S
C1038 C1035 1.363 . S
C1038 N1036 1.356 . S
C1039 C1033 1.363 . S
C1039 C1034 1.379 . S
C1039 N1037 1.356 . S
N1040 C1032 1.356 . S
N1040 H1046 0.984 . S
N1040 H1047 0.984 . S
N1041 C1034 1.356 . S
N1041 H1044 0.984 . S
N1041 H1045 0.985 . S
H1042 N1037 0.984 . S
H1043 N1037 0.985 . S
H1044 N1041 0.984 . S
H1045 N1041 0.985 . S
H1046 N1040 0.984 . S
H1047 N1040 0.984 . S
H1048 N1036 0.984 . S
H1049 N1036 0.985 . S
C1050 C1051 1.363 . S
C1050 C1056 1.379 . S
C1050 N1058 1.356 . S
C1051 C1050 1.363 . S
C1051 C1057 1.363 . S
C1052 C1053 1.363 . S
C1052 C1057 1.379 . S
C1052 N1059 1.356 . S
C1053 C1052 1.363 . S
C1053 C1056 1.363 . S
N1054 C1056 1.356 . S
N1054 H1066 0.984 . S
N1054 H1067 0.985 . S
N1055 C1057 1.356 . S
N1055 H1060 0.984 . S
N1055 H1061 0.985 . S
C1056 C1050 1.379 . S
C1056 C1053 1.363 . S
C1056 N1054 1.356 . S
C1057 C1051 1.363 . S
C1057 C1052 1.379 . S
C1057 N1055 1.356 . S
N1058 C1050 1.356 . S
N1058 H1064 0.984 . S
N1058 H1065 0.984 . S
N1059 C1052 1.356 . S
N1059 H1062 0.984 . S
N1059 H1063 0.985 . S
H1060 N1055 0.984 . S
H1061 N1055 0.985 . S
H1062 N1059 0.984 . S
H1063 N1059 0.985 . S
H1064 N1058 0.984 . S
H1065 N1058 0.984 . S
H1066 N1054 0.984 . S
H1067 N1054 0.985 . S
C1068 C1069 1.363 . S
C1068 C1074 1.379 . S
C1068 N1076 1.356 . S
C1069 C1068 1.363 . S
C1069 C1075 1.363 . S
C1070 C1071 1.363 . S
C1070 C1075 1.379 . S
C1070 N1077 1.356 . S
C1071 C1070 1.363 . S
C1071 C1074 1.363 . S
N1072 C1074 1.356 . S
N1072 H1084 0.984 . S
N1072 H1085 0.985 . S
N1073 C1075 1.356 . S
N1073 H1078 0.984 . S
N1073 H1079 0.985 . S
C1074 C1068 1.379 . S
C1074 C1071 1.363 . S
C1074 N1072 1.356 . S
C1075 C1069 1.363 . S
C1075 C1070 1.379 . S
C1075 N1073 1.356 . S
N1076 C1068 1.356 . S
N1076 H1082 0.984 . S
N1076 H1083 0.984 . S
N1077 C1070 1.356 . S
N1077 H1080 0.984 . S
N1077 H1081 0.985 . S
H1078 N1073 0.984 . S
H1079 N1073 0.985 . S
H1080 N1077 0.984 . S
H1081 N1077 0.985 . S
H1082 N1076 0.984 . S
H1083 N1076 0.984 . S
H1084 N1072 0.984 . S
H1085 N1072 0.985 . S
C1086 C1087 1.363 . S
C1086 C1092 1.379 . S
C1086 N1094 1.356 . S
C1087 C1086 1.363 . S
C1087 C1093 1.363 . S
C1088 C1089 1.363 . S
C1088 C1093 1.379 . S
C1088 N1095 1.356 . S
C1089 C1088 1.363 . S
C1089 C1092 1.363 . S
N1090 C1092 1.356 . S
N1090 H1102 0.984 . S
N1090 H1103 0.985 . S
N1091 C1093 1.356 . S
N1091 H1096 0.984 . S
N1091 H1097 0.985 . S
C1092 C1086 1.379 . S
C1092 C1089 1.363 . S
C1092 N1090 1.356 . S
C1093 C1087 1.363 . S
C1093 C1088 1.379 . S
C1093 N1091 1.356 . S
N1094 C1086 1.356 . S
N1094 H1100 0.984 . S
N1094 H1101 0.984 . S
N1095 C1088 1.356 . S
N1095 H1098 0.984 . S
N1095 H1099 0.985 . S
H1096 N1091 0.984 . S
H1097 N1091 0.985 . S
H1098 N1095 0.984 . S
H1099 N1095 0.985 . S
H1100 N1094 0.984 . S
H1101 N1094 0.984 . S
H1102 N1090 0.984 . S
H1103 N1090 0.985 . S
C1104 C1105 1.363 . S
C1104 C1110 1.379 . S
C1104 N1112 1.356 . S
C1105 C1104 1.363 . S
C1105 C1111 1.363 1_655 S
C1106 C1107 1.363 . S
C1106 C1111 1.379 . S
C1106 N1113 1.356 . S
C1107 C1106 1.363 . S
C1107 C1110 1.363 1_455 S
N1108 C1110 1.356 . S
N1108 H1120 0.984 . S
N1108 H1121 0.985 . S
N1109 C1111 1.356 . S
N1109 H1114 0.984 . S
N1109 H1115 0.985 . S
C1110 C1104 1.379 . S
C1110 C1107 1.363 1_655 S
C1110 N1108 1.356 . S
C1111 C1105 1.363 1_455 S
C1111 C1106 1.379 . S
C1111 N1109 1.356 . S
N1112 C1104 1.356 . S
N1112 H1118 0.984 . S
N1112 H1119 0.984 . S
N1113 C1106 1.356 . S
N1113 H1116 0.984 . S
N1113 H1117 0.985 . S
H1114 N1109 0.984 . S
H1115 N1109 0.985 . S
H1116 N1113 0.984 . S
H1117 N1113 0.985 . S
H1118 N1112 0.984 . S
H1119 N1112 0.984 . S
H1120 N1108 0.984 . S
H1121 N1108 0.985 . S
C1122 C1123 1.363 1_545 S
C1122 C1128 1.379 . S
C1122 N1130 1.356 . S
C1123 C1122 1.363 1_565 S
C1123 C1129 1.363 . S
C1124 C1125 1.363 1_565 S
C1124 C1129 1.379 . S
C1124 N1131 1.356 . S
C1125 C1124 1.363 1_545 S
C1125 C1128 1.363 . S
N1126 C1128 1.356 . S
N1126 H1138 0.984 . S
N1126 H1139 0.985 . S
N1127 C1129 1.356 . S
N1127 H1132 0.984 . S
N1127 H1133 0.985 . S
C1128 C1122 1.379 . S
C1128 C1125 1.363 . S
C1128 N1126 1.356 . S
C1129 C1123 1.363 . S
C1129 C1124 1.379 . S
C1129 N1127 1.356 . S
N1130 C1122 1.356 . S
N1130 H1136 0.984 . S
N1130 H1137 0.984 . S
N1131 C1124 1.356 . S
N1131 H1134 0.984 . S
N1131 H1135 0.985 . S
H1132 N1127 0.984 . S
H1133 N1127 0.985 . S
H1134 N1131 0.984 . S
H1135 N1131 0.985 . S
H1136 N1130 0.984 . S
H1137 N1130 0.984 . S
H1138 N1126 0.984 . S
H1139 N1126 0.985 . S
C1140 C1141 1.363 . S
C1140 C1146 1.379 1_545 S
C1140 N1148 1.356 . S
C1141 C1140 1.363 . S
C1141 C1147 1.363 . S
C1142 C1143 1.363 . S
C1142 C1147 1.379 1_565 S
C1142 N1149 1.356 . S
C1143 C1142 1.363 . S
C1143 C1146 1.363 . S
N1144 C1146 1.356 . S
N1144 H1156 0.984 . S
N1144 H1157 0.985 . S
N1145 C1147 1.356 . S
N1145 H1150 0.984 . S
N1145 H1151 0.985 . S
C1146 C1140 1.379 1_565 S
C1146 C1143 1.363 . S
C1146 N1144 1.356 . S
C1147 C1141 1.363 . S
C1147 C1142 1.379 1_545 S
C1147 N1145 1.356 . S
N1148 C1140 1.356 . S
N1148 H1154 0.984 . S
N1148 H1155 0.984 . S
N1149 C1142 1.356 . S
N1149 H1152 0.984 . S
N1149 H1153 0.985 . S
H1150 N1145 0.984 . S
H1151 N1145 0.985 . S
H1152 N1149 0.984 . S
H1153 N1149 0.985 . S
H1154 N1148 0.984 . S
H1155 N1148 0.984 . S
H1156 N1144 0.984 . S
H1157 N1144 0.985 . S
C1158 C1159 1.363 . S
C1158 C1164 1.379 1_655 S
C1158 N1166 1.356 . S
C1159 C1158 1.363 . S
C1159 C1165 1.363 . S
C1160 C1161 1.363 . S
C1160 C1165 1.379 1_455 S
C1160 N1167 1.356 . S
C1161 C1160 1.363 . S
C1161 C1164 1.363 . S
N1162 C1164 1.356 . S
N1162 H1174 0.984 . S
N1162 H1175 0.985 . S
N1163 C1165 1.356 . S
N1163 H1168 0.984 . S
N1163 H1169 0.985 . S
C1164 C1158 1.379 1_455 S
C1164 C1161 1.363 . S
C1164 N1162 1.356 . S
C1165 C1159 1.363 . S
C1165 C1160 1.379 1_655 S
C1165 N1163 1.356 . S
N1166 C1158 1.356 . S
N1166 H1172 0.984 . S
N1166 H1173 0.984 . S
N1167 C1160 1.356 . S
N1167 H1170 0.984 . S
N1167 H1171 0.985 . S
H1168 N1163 0.984 . S
H1169 N1163 0.985 . S
H1170 N1167 0.984 . S
H1171 N1167 0.985 . S
H1172 N1166 0.984 . S
H1173 N1166 0.984 . S
H1174 N1162 0.984 . S
H1175 N1162 0.985 . S
C1176 C1177 1.363 . S
C1176 C1182 1.379 . S
C1176 N1184 1.356 . S
C1177 C1176 1.363 . S
C1177 C1183 1.363 1_655 S
C1178 C1179 1.363 . S
C1178 C1183 1.379 . S
C1178 N1185 1.356 . S
C1179 C1178 1.363 . S
C1179 C1182 1.363 1_455 S
N1180 C1182 1.356 . S
N1180 H1192 0.984 . S
N1180 H1193 0.985 . S
N1181 C1183 1.356 . S
N1181 H1186 0.984 . S
N1181 H1187 0.985 . S
C1182 C1176 1.379 . S
C1182 C1179 1.363 1_655 S
C1182 N1180 1.356 . S
C1183 C1177 1.363 1_455 S
C1183 C1178 1.379 . S
C1183 N1181 1.356 . S
N1184 C1176 1.356 . S
N1184 H1190 0.984 . S
N1184 H1191 0.984 . S
N1185 C1178 1.356 . S
N1185 H1188 0.984 . S
N1185 H1189 0.985 . S
H1186 N1181 0.984 . S
H1187 N1181 0.985 . S
H1188 N1185 0.984 . S
H1189 N1185 0.985 . S
H1190 N1184 0.984 . S
H1191 N1184 0.984 . S
H1192 N1180 0.984 . S
H1193 N1180 0.985 . S
C1194 C1195 1.363 . S
C1194 C1200 1.379 . S
C1194 N1202 1.356 . S
C1195 C1194 1.363 . S
C1195 C1201 1.363 1_545 S
C1196 C1197 1.363 . S
C1196 C1201 1.379 . S
C1196 N1203 1.356 . S
C1197 C1196 1.363 . S
C1197 C1200 1.363 1_565 S
N1198 C1200 1.356 . S
N1198 H1210 0.984 . S
N1198 H1211 0.985 . S
N1199 C1201 1.356 . S
N1199 H1204 0.984 . S
N1199 H1205 0.985 . S
C1200 C1194 1.379 . S
C1200 C1197 1.363 1_545 S
C1200 N1198 1.356 . S
C1201 C1195 1.363 1_565 S
C1201 C1196 1.379 . S
C1201 N1199 1.356 . S
N1202 C1194 1.356 . S
N1202 H1208 0.984 . S
N1202 H1209 0.984 . S
N1203 C1196 1.356 . S
N1203 H1206 0.984 . S
N1203 H1207 0.985 . S
H1204 N1199 0.984 . S
H1205 N1199 0.985 . S
H1206 N1203 0.984 . S
H1207 N1203 0.985 . S
H1208 N1202 0.984 . S
H1209 N1202 0.984 . S
H1210 N1198 0.984 . S
H1211 N1198 0.985 . S
C1212 C1213 1.363 . S
C1212 C1218 1.379 1_565 S
C1212 N1220 1.356 . S
C1213 C1212 1.363 . S
C1213 C1219 1.363 . S
C1214 C1215 1.363 . S
C1214 C1219 1.379 1_545 S
C1214 N1221 1.356 . S
C1215 C1214 1.363 . S
C1215 C1218 1.363 . S
N1216 C1218 1.356 . S
N1216 H1228 0.984 . S
N1216 H1229 0.985 . S
N1217 C1219 1.356 . S
N1217 H1222 0.984 . S
N1217 H1223 0.985 . S
C1218 C1212 1.379 1_545 S
C1218 C1215 1.363 . S
C1218 N1216 1.356 . S
C1219 C1213 1.363 . S
C1219 C1214 1.379 1_565 S
C1219 N1217 1.356 . S
N1220 C1212 1.356 . S
N1220 H1226 0.984 . S
N1220 H1227 0.984 . S
N1221 C1214 1.356 . S
N1221 H1224 0.984 . S
N1221 H1225 0.985 . S
H1222 N1217 0.984 . S
H1223 N1217 0.985 . S
H1224 N1221 0.984 . S
H1225 N1221 0.985 . S
H1226 N1220 0.984 . S
H1227 N1220 0.984 . S
H1228 N1216 0.984 . S
H1229 N1216 0.985 . S
C1230 C1231 1.363 . S
C1230 C1236 1.379 1_655 S
C1230 N1238 1.356 . S
C1231 C1230 1.363 . S
C1231 C1237 1.363 . S
C1232 C1233 1.363 . S
C1232 C1237 1.379 1_455 S
C1232 N1239 1.356 . S
C1233 C1232 1.363 . S
C1233 C1236 1.363 . S
N1234 C1236 1.356 . S
N1234 H1246 0.984 . S
N1234 H1247 0.985 . S
N1235 C1237 1.356 . S
N1235 H1240 0.984 . S
N1235 H1241 0.985 . S
C1236 C1230 1.379 1_455 S
C1236 C1233 1.363 . S
C1236 N1234 1.356 . S
C1237 C1231 1.363 . S
C1237 C1232 1.379 1_655 S
C1237 N1235 1.356 . S
N1238 C1230 1.356 . S
N1238 H1244 0.984 . S
N1238 H1245 0.984 . S
N1239 C1232 1.356 . S
N1239 H1242 0.984 . S
N1239 H1243 0.985 . S
H1240 N1235 0.984 . S
H1241 N1235 0.985 . S
H1242 N1239 0.984 . S
H1243 N1239 0.985 . S
H1244 N1238 0.984 . S
H1245 N1238 0.984 . S
H1246 N1234 0.984 . S
H1247 N1234 0.985 . S
C529 C337 1.405 . S
C531 C7 1.405 . S
C547 C370 1.405 . S
C549 C40 1.405 . S
C565 C271 1.405 . S
C567 C73 1.405 . S
C583 C304 1.405 . S
C585 C106 1.405 . S
C601 C139 1.405 . S
C603 C469 1.405 . S
C619 C172 1.405 . S
C621 C502 1.405 . S
C637 C403 1.405 . S
C639 C205 1.405 . S
C655 C436 1.405 . S
C657 C238 1.405 . S
C673 C120 1.540 . S
C675 N2 1.472 . S
C691 N35 1.472 . S
C693 C21 1.540 . S
C709 C54 1.540 . S
C711 N68 1.472 . S
C727 N101 1.472 . S
C729 C87 1.540 . S
C745 C186 1.540 . S
C747 N134 1.472 . S
C763 C219 1.540 . S
C765 N167 1.472 . S
C781 C252 1.540 . S
C783 N200 1.472 . S
C799 N233 1.472 . S
C801 C153 1.540 . S
C817 N266 1.472 . S
C819 C384 1.540 . S
C835 N299 1.472 . S
C837 C285 1.540 . S
C853 C318 1.540 . S
C855 N332 1.472 . S
C871 N365 1.472 . S
C873 C351 1.540 . S
C889 N398 1.472 . S
C891 C450 1.540 . S
C907 N431 1.472 . S
C909 C483 1.540 . S
C925 N464 1.472 . S
C927 C516 1.540 . S
C943 C417 1.540 . S
C945 N497 1.472 . S
C961 C249 1.193 . S
C963 C18 1.193 . S
C979 C51 1.193 . S
C981 C150 1.193 . S
C997 C183 1.193 . S
C999 C84 1.193 . S
C1015 C216 1.193 . S
C1017 C117 1.193 . S
C1033 C282 1.193 . S
C1035 C513 1.193 . S
C1051 C414 1.193 . S
C1053 C315 1.193 . S
C1069 C348 1.193 . S
C1071 C447 1.193 . S
C1087 C480 1.193 . S
C1089 C381 1.193 . S
C1105 N79 1.508 . S
C1107 N13 1.508 . S
C1123 N112 1.508 . S
C1125 N46 1.508 . S
C1141 N145 1.508 . S
C1143 N211 1.508 . S
C1159 N178 1.508 . S
C1161 N244 1.508 . S
C1177 N277 1.508 . S
C1179 N343 1.508 . S
C1195 N376 1.508 . S
C1197 N310 1.508 . S
C1213 N409 1.508 . S
C1215 N475 1.508 . S
C1231 N508 1.508 . S
C1233 N442 1.508 . S
