# Generated by pormake.
# Topology snp, (6)-cn, num edge types: 1
# Building blocks:
#     Node 0, Type 0, BuildingBlock: INOVEN_clean_sbu_0, # of connection points: 6
#     Node 1, Type 0, BuildingBlock: INOVEN_clean_sbu_0, # of connection points: 6
#     Node 2, Type 0, BuildingBlock: INOVEN_clean_sbu_0, # of connection points: 6
#     Node 3, Type 0, BuildingBlock: INOVEN_clean_sbu_0, # of connection points: 6
#     Edge 4, Type (0, 0), BuildingBlock: FUNLAD_clean_linker_1, # of connection points: 2
#     Edge 5, Type (0, 0), BuildingBlock: FUNLAD_clean_linker_1, # of connection points: 2
#     Edge 6, Type (0, 0), BuildingBlock: FUNLAD_clean_linker_1, # of connection points: 2
#     Edge 7, Type (0, 0), BuildingBlock: FUNLAD_clean_linker_1, # of connection points: 2
#     Edge 8, Type (0, 0), BuildingBlock: FUNLAD_clean_linker_1, # of connection points: 2
#     Edge 9, Type (0, 0), BuildingBlock: FUNLAD_clean_linker_1, # of connection points: 2
#     Edge 10, Type (0, 0), BuildingBlock: FUNLAD_clean_linker_1, # of connection points: 2
#     Edge 11, Type (0, 0), BuildingBlock: FUNLAD_clean_linker_1, # of connection points: 2
#     Edge 12, Type (0, 0), BuildingBlock: FUNLAD_clean_linker_1, # of connection points: 2
#     Edge 13, Type (0, 0), BuildingBlock: FUNLAD_clean_linker_1, # of connection points: 2
#     Edge 14, Type (0, 0), BuildingBlock: FUNLAD_clean_linker_1, # of connection points: 2
#     Edge 15, Type (0, 0), BuildingBlock: FUNLAD_clean_linker_1, # of connection points: 2
# Relax obj value: 0.199
# Max RMSD: 0.219
# Mean RMSD: 0.210
data_MOF--net-snp--node1-INOVEN_clean_sbu_0--edge1-FUNLAD_clean_linker_1
_symmetry_space_group_name_H-M    P1
_symmetry_Int_Tables_number       1
_symmetry_cell_setting            triclinic
loop_
_symmetry_equiv_pos_as_xyz
'x, y, z'
_cell_length_a     26.794146
_cell_length_b     26.263647
_cell_length_c     36.868779
_cell_angle_alpha  86.493459
_cell_angle_beta   104.36553
_cell_angle_gamma 96.857601
loop_
_atom_site_label
_atom_site_type_symbol
_atom_site_fract_x
_atom_site_fract_y
_atom_site_fract_z
_atom_type_partial_charge
Gd0 Gd 0.25993 0.14628 0.13283 0.0
Gd1 Gd 0.25426 0.05181 0.08086 0.0
C2 C 0.23521 0.02869 0.16415 0.0
C3 C 0.2372 0.21331 0.17324 0.0
C4 C 0.23132 0.22059 0.2116 0.0
C5 C 0.26935 0.25195 0.23622 0.0
C6 C 0.1863 0.20034 0.22299 0.0
C7 C 0.218 0.24264 0.28287 0.0
C8 C 0.17961 0.21134 0.25817 0.0
C9 C 0.26277 0.26275 0.27133 0.0
C10 C 0.34897 0.10724 0.13638 0.0
C11 C 0.27901 0.16953 0.05071 0.0
C12 C 0.27377 0.9848 0.03918 0.0
C13 C 0.25626 0.97523 0.99882 0.0
C14 C 0.22207 0.00642 0.97512 0.0
C15 C 0.27033 0.93253 0.98428 0.0
C16 C 0.21485 0.95136 0.92274 0.0
C17 C 0.24986 0.92058 0.94659 0.0
C18 C 0.20147 -0.00552 0.93751 0.0
C19 C 0.16398 0.09397 0.06949 0.0
O20 O 0.24062 0.07864 0.16963 0.0
O21 O 0.24194 0.00896 0.13364 0.0
O22 O 0.28421 0.21122 0.16916 0.0
O23 O 0.20231 0.18167 0.15178 0.0
O24 O 0.3469 0.15545 0.14168 0.0
O25 O 0.30536 0.08192 0.13282 0.0
O26 O 0.28429 0.12026 0.0489 0.0
O27 O 0.26364 0.18792 0.07837 0.0
O28 O 0.2374 0.97642 0.05752 0.0
O29 O 0.30437 0.02715 0.04872 0.0
O30 O 0.16711 0.04847 0.05912 0.0
O31 O 0.20922 0.1152 0.08106 0.0
H32 H 0.30401 0.26893 0.2281 0.0
H33 H 0.15571 0.17673 0.20451 0.0
H34 H 0.144 0.1959 0.26548 0.0
H35 H 0.29286 0.28725 0.28951 0.0
H36 H 0.21037 0.03934 0.98597 0.0
H37 H 0.29613 0.90763 1.00231 0.0
H38 H 0.26024 0.88626 0.93683 0.0
H39 H 0.17442 0.0187 0.92 0.0
Gd40 Gd 0.01795 0.27185 0.73654 0.0
Gd41 Gd 0.11262 0.30905 0.70433 0.0
C42 C 0.13246 0.30631 0.79171 0.0
C43 C 0.95583 0.22437 0.77434 0.0
C44 C 0.94678 0.21903 0.81244 0.0
C45 C 0.89601 0.21843 0.81633 0.0
C46 C 0.9868 0.21192 0.84458 0.0
C47 C 0.9245 0.20195 0.88368 0.0
C48 C 0.97578 0.20326 0.8799 0.0
C49 C 0.88502 0.20996 0.85145 0.0
C50 C 0.03075 0.37262 0.71983 0.0
C51 C -0.00082 0.2745 0.64807 0.0
C52 C 0.17006 0.34795 0.66074 0.0
C53 C 0.1719 0.33116 0.62352 0.0
C54 C 0.15817 0.27941 0.61421 0.0
C55 C 0.18578 0.36653 0.59668 0.0
C56 C 0.17343 0.29821 0.55201 0.0
C57 C 0.18665 0.35029 0.56125 0.0
C58 C 0.15947 0.26313 0.57906 0.0
C59 C 0.09845 0.20731 0.72005 0.0
O60 O 0.08724 0.27741 0.78685 0.0
O61 O 0.14768 0.33161 0.76353 0.0
O62 O 0.94759 0.26816 0.75618 0.0
O63 O 0.99609 0.20498 0.76883 0.0
O64 O 0.98546 0.34673 0.71597 0.0
O65 O 0.06608 0.34521 0.73432 0.0
O66 O 0.04454 0.30271 0.65335 0.0
O67 O 0.9822 0.25166 0.67641 0.0
O68 O 0.18618 0.3164 0.68905 0.0
O69 O 0.12739 0.36659 0.6622 0.0
O70 O 0.14364 0.23284 0.72314 0.0
O71 O 0.06418 0.23626 0.70618 0.0
H72 H 0.86449 0.2236 0.79197 0.0
H73 H 0.02637 0.21204 0.84235 0.0
H74 H 0.00727 0.19616 0.90373 0.0
H75 H 0.84519 0.20898 0.85333 0.0
H76 H 0.14649 0.2514 0.63418 0.0
H77 H 0.19612 0.40667 0.60316 0.0
H78 H 0.19865 0.37849 0.54161 0.0
H79 H 0.1493 0.22286 0.57295 0.0
Gd80 Gd 0.80936 0.06221 0.21735 0.0
Gd81 Gd 0.80471 0.96948 0.16504 0.0
C82 C 0.79338 0.94282 0.24835 0.0
C83 C 0.78709 0.12498 0.26088 0.0
C84 C 0.79861 0.13216 0.30192 0.0
C85 C 0.83329 0.17397 0.31774 0.0
C86 C 0.77542 0.09833 0.3256 0.0
C87 C 0.82251 0.14734 0.38013 0.0
C88 C 0.78707 0.10608 0.36422 0.0
C89 C 0.84518 0.1815 0.35631 0.0
C90 C 0.90193 0.02805 0.22397 0.0
C91 C 0.82709 0.08771 0.13428 0.0
C92 C 0.82076 0.9037 0.12061 0.0
C93 C 0.82705 0.90112 0.08185 0.0
C94 C 0.78638 0.87739 0.05432 0.0
C95 C 0.87396 0.91918 0.07231 0.0
C96 C 0.83941 0.88836 1.0088 0.0
C97 C 0.88007 0.91293 0.03616 0.0
C98 C 0.79236 0.8715 1.01826 0.0
C99 C 0.71488 0.00531 0.16477 0.0
O100 O 0.78742 -0.00827 0.2514 0.0
O101 O 0.80653 0.92595 0.21933 0.0
O102 O 0.82651 0.13441 0.24551 0.0
O103 O 0.75551 0.08482 0.24716 0.0
O104 O 0.89651 0.07304 0.23404 0.0
O105 O 0.85831 0.00193 0.21562 0.0
O106 O 0.82597 0.03789 0.13001 0.0
O107 O 0.81659 0.10664 0.16383 0.0
O108 O 0.77461 0.91041 0.12429 0.0
O109 O 0.85809 0.92875 0.14505 0.0
O110 O 0.71854 0.9571 0.16104 0.0
O111 O 0.75733 0.0318 0.16612 0.0
H112 H 0.85118 0.20114 0.30018 0.0
H113 H 0.74834 0.06581 0.31441 0.0
H114 H 0.76864 0.07941 0.38178 0.0
H115 H 0.87124 0.21482 0.36708 0.0
H116 H 0.74994 0.86265 0.06079 0.0
H117 H 0.90617 0.93768 0.0928 0.0
H118 H 0.91656 0.92754 1.02988 0.0
H119 H 0.76025 0.85267 0.99784 0.0
Gd120 Gd 0.95659 0.7899 0.5959 0.0
Gd121 Gd 0.04743 0.81977 0.55885 0.0
C122 C 0.07321 0.82858 0.64716 0.0
C123 C 0.90133 0.75287 0.64156 0.0
C124 C 0.90386 0.76357 0.68105 0.0
C125 C 0.85974 0.7768 0.69074 0.0
C126 C 0.95074 0.76476 0.70865 0.0
C127 C 0.90959 0.79329 0.7548 0.0
C128 C 0.95355 0.77955 0.74501 0.0
C129 C 0.86247 0.79162 0.72712 0.0
C130 C 0.96966 0.88938 0.57459 0.0
C131 C 0.92877 0.79186 0.50807 0.0
C132 C 0.10962 0.85964 0.51855 0.0
C133 C 0.11777 0.86363 0.48028 0.0
C134 C 0.16607 0.85431 0.47541 0.0
C135 C 0.08013 0.8795 0.44914 0.0
C136 C 0.1409 0.88011 0.40942 0.0
C137 C 0.09151 0.88757 0.41395 0.0
C138 C 0.1774 0.86221 0.4404 0.0
C139 C 0.03314 0.72089 0.58058 0.0
O140 O 0.02649 0.80401 0.6454 0.0
O141 O 0.08897 0.84406 0.61674 0.0
O142 O 0.88827 0.79041 0.61732 0.0
O143 O 0.93892 0.72965 0.6352 0.0
O144 O 0.92479 0.86398 0.57347 0.0
O145 O 0.00497 0.86144 0.58896 0.0
O146 O 0.97609 0.81546 0.51057 0.0
O147 O 0.91387 0.77018 0.5375 0.0
O148 O 0.114 0.81505 0.5362 0.0
O149 O 0.07276 0.88351 0.52523 0.0
O150 O 0.0786 0.74556 0.58272 0.0
O151 O -0.00184 0.74842 0.56536 0.0
H152 H 0.82329 0.77685 0.66985 0.0
H153 H 0.98555 0.75515 0.70202 0.0
H154 H 0.99043 0.78066 0.76551 0.0
H155 H 0.8278 0.80296 0.73284 0.0
H156 H 0.19571 0.84208 0.49901 0.0
H157 H 0.04232 0.88654 0.45208 0.0
H158 H 0.06167 0.9 0.39072 0.0
H159 H 0.21557 0.85579 0.43785 0.0
H160 H 0.9854 0.03114 0.23062 0.0
C161 C 0.94801 0.01961 0.21188 0.0
H162 H 0.90785 0.01112 0.15569 0.0
H163 H 0.08163 0.18125 0.12027 0.0
H164 H 0.0248 0.23853 0.13458 0.0
H165 H 0.95075 0.20433 0.16076 0.0
H166 H 0.93335 0.11306 0.17279 0.0
C167 C 0.94471 0.01711 0.17536 0.0
C168 C 0.98871 0.03731 0.15976 0.0
C169 C -0.00189 0.09101 0.15308 0.0
C170 C 0.04045 0.11076 0.13803 0.0
C171 C 0.04966 0.16439 0.13166 0.0
C172 C 0.0174 0.19764 0.13973 0.0
C173 C 0.97576 0.17839 0.15448 0.0
C174 C 0.96615 0.1258 0.16122 0.0
H175 H 0.08194 0.10312 0.06124 0.0
C176 C 0.11882 0.10456 0.08181 0.0
H177 H 0.15576 0.0925 0.13808 0.0
H178 H 0.97762 0.93249 0.16673 0.0
H179 H 0.0325 0.87503 0.15011 0.0
H180 H 0.10662 0.90933 0.12403 0.0
H181 H 0.12615 0.00092 0.11447 0.0
C182 C 0.1198 0.09684 0.11799 0.0
C183 C 0.07284 0.07674 0.12999 0.0
C184 C 0.06241 0.02295 0.13546 0.0
C185 C 0.01992 0.00317 0.15032 0.0
C186 C 0.0097 0.9494 0.15548 0.0
C187 C 0.04081 0.91605 0.14603 0.0
C188 C 0.08249 0.93534 0.13134 0.0
C189 C 0.09335 -0.0119 0.12606 0.0
H190 H 0.94299 0.9646 0.57587 0.0
C191 C 0.97724 0.94459 0.57983 0.0
H192 H 0.05714 0.94507 0.60523 0.0
H193 H 0.04642 0.18405 0.63791 0.0
H194 H 0.05054 0.20126 0.57334 0.0
H195 H 0.04486 0.13018 0.53118 0.0
H196 H 0.03393 0.04142 0.55344 0.0
C197 C 0.02315 0.96588 0.59932 0.0
C198 C 0.02488 0.00859 0.62364 0.0
C199 C 0.03299 0.05968 0.6104 0.0
C200 C 0.03684 0.10033 0.63475 0.0
C201 C 0.04363 0.1515 0.62072 0.0
C202 C 0.04615 0.16192 0.58368 0.0
C203 C 0.04287 0.12192 0.55995 0.0
C204 C 0.03667 0.07124 0.57306 0.0
H205 H 0.12259 0.13212 0.71345 0.0
C206 C 0.08947 0.1524 0.71338 0.0
H207 H 0.00803 0.15222 0.69672 0.0
H208 H 0.00204 0.91408 0.656 0.0
H209 H 0.99065 0.89756 0.71904 0.0
H210 H 0.00147 0.96841 0.76217 0.0
H211 H 0.02148 0.05668 0.74181 0.0
C212 C 0.04129 0.1316 0.69799 0.0
C213 C 0.03368 0.08919 0.67234 0.0
C214 C 0.02329 0.03824 0.68507 0.0
C215 C 0.0183 -0.00239 0.66049 0.0
C216 C 0.00644 0.9467 0.67345 0.0
C217 C 2e-05 0.93659 0.70967 0.0
C218 C 0.00602 0.9765 0.73395 0.0
C219 C 0.01758 0.02688 0.72196 0.0
H220 H 0.66985 0.06921 0.16593 0.0
C221 C 0.66715 0.02792 0.1631 0.0
H222 H 0.61727 0.95872 0.1542 0.0
H223 H 0.45119 0.06733 0.21251 0.0
H224 H 0.48075 0.00982 0.26555 0.0
H225 H 0.55319 0.95893 0.26769 0.0
H226 H 0.59648 0.96531 0.21675 0.0
C227 C 0.62086 0.00013 0.15646 0.0
C228 C 0.57375 0.02605 0.15305 0.0
C229 C 0.54841 0.021 0.18268 0.0
C230 C 0.50639 0.04985 0.18124 0.0
C231 C 0.48263 0.04542 0.21177 0.0
C232 C 0.49942 0.01279 0.2425 0.0
C233 C 0.54024 0.98419 0.24373 0.0
C234 C 0.56473 -0.01179 0.21431 0.0
H235 H 0.39237 0.04208 0.13495 0.0
C236 C 0.39614 0.08321 0.1388 0.0
H237 H 0.44769 0.15105 0.14993 0.0
H238 H 0.61118 0.04072 0.08993 0.0
H239 H 0.5816 0.09819 0.03688 0.0
H240 H 0.50959 0.14956 0.03497 0.0
H241 H 0.46669 0.14361 0.08609 0.0
C242 C 0.44306 0.10977 0.14675 0.0
C243 C 0.48947 0.0829 0.14982 0.0
C244 C 0.51464 0.08777 0.1201 0.0
C245 C 0.55655 0.05881 0.12149 0.0
C246 C 0.57999 0.06289 0.0908 0.0
C247 C 0.56315 0.09547 0.06004 0.0
C248 C 0.52256 0.12432 0.05893 0.0
C249 C 0.4983 0.12055 0.08847 0.0
H250 H 0.08094 0.44046 0.7082 0.0
C251 C 0.04077 0.42427 0.70463 0.0
H252 H 0.96217 0.43508 0.68084 0.0
H253 H 0.04281 0.6767 0.67703 0.0
H254 H 0.01023 0.67252 0.73319 0.0
H255 H 0.97827 0.58957 0.7588 0.0
H256 H 0.9798 0.50995 0.72898 0.0
C257 C 0.00262 0.45021 0.68468 0.0
C258 C 0.01592 0.50005 0.66679 0.0
C259 C 0.013 0.54603 0.68388 0.0
C260 C 0.03037 0.5938 0.66866 0.0
C261 C 0.02899 0.63933 0.68698 0.0
C262 C 0.01051 0.63752 0.71925 0.0
C263 C 0.99272 0.59075 0.73379 0.0
C264 C 0.99386 0.54538 0.71644 0.0
H265 H 0.9831 0.65497 0.59572 0.0
C266 C 0.02317 0.67062 0.59801 0.0
H267 H 0.10209 0.65937 0.61976 0.0
H268 H 0.02541 0.41827 0.62694 0.0
H269 H 0.06195 0.42202 0.57273 0.0
H270 H 0.09293 0.5052 0.54663 0.0
H271 H 0.08772 0.58508 0.57478 0.0
C272 C 0.06177 0.64487 0.6176 0.0
C273 C 0.04947 0.59514 0.63601 0.0
C274 C 0.05331 0.54911 0.61934 0.0
C275 C 0.03599 0.50134 0.63457 0.0
C276 C 0.03902 0.45569 0.61696 0.0
C277 C 0.0596 0.4573 0.58567 0.0
C278 C 0.077 0.50412 0.57096 0.0
C279 C 0.07375 0.54965 0.58736 0.0
H280 H 0.17678 0.23727 0.51385 0.0
C281 C 0.17548 0.27832 0.51533 0.0
H282 H 0.16944 0.34793 0.48319 0.0
H283 H 0.27062 0.20926 0.38011 0.0
H284 H 0.34695 0.2143 0.4319 0.0
H285 H 0.34656 0.25339 0.49097 0.0
H286 H 0.2695 0.28662 0.49891 0.0
C287 C 0.1745 0.3075 0.48383 0.0
C288 C 0.17565 0.28475 0.44781 0.0
C289 C 0.22175 0.26739 0.44305 0.0
C290 C 0.22283 0.24723 0.40823 0.0
C291 C 0.26841 0.22729 0.40518 0.0
C292 C 0.31239 0.2295 0.43483 0.0
C293 C 0.3121 0.25133 0.46814 0.0
C294 C 0.26747 0.27009 0.47237 0.0
H295 H 0.23813 0.28935 0.33349 0.0
C296 C 0.21282 0.25658 0.32037 0.0
H297 H 0.15508 0.19717 0.32802 0.0
H298 H 0.07999 0.31052 0.4483 0.0
H299 H 0.00345 0.30499 0.39654 0.0
H300 H 0.00636 0.27366 0.33546 0.0
H301 H 0.08565 0.24726 0.32576 0.0
C302 C 0.18088 0.2303 0.33974 0.0
C303 C 0.17864 0.24679 0.37748 0.0
C304 C 0.13213 0.26267 0.38264 0.0
C305 C 0.13063 0.28151 0.41778 0.0
C306 C 0.08346 0.29655 0.42212 0.0
C307 C 0.03921 0.29349 0.39267 0.0
C308 C 0.04084 0.27579 0.35828 0.0
C309 C 0.08664 0.26068 0.35312 0.0
H310 H 0.8684 0.17883 0.91818 0.0
C311 C 0.90939 0.18951 0.91981 0.0
H312 H 0.98352 0.20063 0.95751 0.0
H313 H 0.79987 0.18913 0.0549 0.0
H314 H 0.77937 0.27049 1.0237 0.0
H315 H 0.8261 0.30976 0.97738 0.0
H316 H 0.89281 0.26697 0.9613 0.0
C317 C 0.94223 0.19044 0.95407 0.0
C318 C 0.9229 0.17327 0.98808 0.0
C319 C 0.88642 0.20024 0.99906 0.0
C320 C 0.86156 0.17897 1.02742 0.0
C321 C 0.82193 0.20457 0.03513 0.0
C322 C 0.80944 0.25122 1.01716 0.0
C323 C 0.83559 0.27324 0.99096 0.0
C324 C 0.87356 0.24816 0.98184 0.0
H325 H 0.85925 0.16208 0.11282 0.0
C326 C 0.84399 0.12285 0.10555 0.0
H327 H 0.83079 0.06527 0.06597 0.0
H328 H 0.9939 0.11354 0.976 0.0
H329 H 0.0191 0.03513 1.01022 0.0
H330 H 0.9816 0.00203 0.06279 0.0
H331 H 0.91753 0.04611 0.08079 0.0
C332 C 0.84591 0.10482 0.07248 0.0
C333 C 0.87565 0.13222 0.04643 0.0
C334 C 0.91542 0.10762 0.03758 0.0
C335 C 0.93843 0.12768 1.00807 0.0
C336 C 0.97569 0.10047 0.99849 0.0
C337 C 0.99049 0.05535 1.01787 0.0
C338 C 0.96936 0.03668 0.04746 0.0
C339 C 0.93238 0.06232 0.05737 0.0
H340 H 0.84882 0.78754 0.4726 0.0
C341 C 0.88942 0.79676 0.4725 0.0
H342 H 0.94308 0.83129 0.44278 0.0
H343 H 0.73206 0.82813 0.30422 0.0
H344 H 0.7232 0.73498 0.31116 0.0
H345 H 0.78002 0.69129 0.36392 0.0
H346 H 0.84517 0.74035 0.41046 0.0
C347 C 0.90248 0.82049 0.44234 0.0
C348 C 0.86423 0.84508 0.4123 0.0
C349 C 0.82732 0.81561 0.38508 0.0
C350 C 0.79613 0.84068 0.35379 0.0
C351 C 0.75809 0.8107 0.32766 0.0
C352 C 0.7524 0.75735 0.33149 0.0
C353 C 0.78429 0.73276 0.36126 0.0
C354 C 0.82146 0.76136 0.38782 0.0
H355 H 0.81597 0.87408 0.2822 0.0
C356 C 0.79597 0.90796 0.28138 0.0
H357 H 0.76261 0.95446 0.31133 0.0
H358 H 0.9238 0.91271 0.46361 0.0
H359 H 0.93131 0.00552 0.4574 0.0
H360 H 0.8816 0.04904 0.40121 0.0
H361 H 0.82351 0.0002 0.35131 0.0
C362 C 0.78228 0.92043 0.31209 0.0
C363 C 0.80385 0.89485 0.34893 0.0
C364 C 0.83777 0.92445 0.37781 0.0
C365 C 0.86759 0.89944 0.4097 0.0
C366 C 0.90104 0.92971 0.43834 0.0
C367 C 0.90562 0.98307 0.43524 0.0
C368 C 0.87752 0.00755 0.40364 0.0
C369 C 0.84415 0.97886 0.37514 0.0
H370 H 0.14738 0.85702 0.68569 0.0
C371 C 0.10689 0.8437 0.68394 0.0
H372 H 0.04743 0.83171 0.71266 0.0
H373 H 0.181 0.81299 0.87678 0.0
H374 H 0.14305 0.72506 0.86594 0.0
H375 H 0.09498 0.69815 0.8027 0.0
H376 H 0.08461 0.75895 0.74996 0.0
C377 C 0.08785 0.84479 0.71432 0.0
C378 C 0.12058 0.86109 0.75158 0.0
C379 C 0.12705 0.82492 0.7821 0.0
C380 C 0.15535 0.84031 0.81848 0.0
C381 C 0.16047 0.80336 0.84846 0.0
C382 C 0.13876 0.75272 0.84266 0.0
C383 C 0.11165 0.73758 0.80709 0.0
C384 C 0.10586 0.773 0.77706 0.0
H385 H 0.15347 0.95509 0.87009 0.0
C386 C 0.18903 0.93824 0.8832 0.0
H387 H 0.24257 0.88981 0.87452 0.0
H388 H 0.11323 0.94136 0.69988 0.0
H389 H 0.14942 0.02944 0.71093 0.0
H390 H 0.20105 0.05544 0.77349 0.0
H391 H 0.21588 -0.00656 0.82546 0.0
C392 C 0.20709 0.90721 0.86277 0.0
C393 C 0.17712 0.89197 0.82444 0.0
C394 C 0.17069 0.92827 0.7939 0.0
C395 C 0.14207 0.91293 0.75751 0.0
C396 C 0.13495 0.95045 0.72794 0.0
C397 C 0.15566 0.00131 0.73388 0.0
C398 C 0.18458 0.01596 0.76911 0.0
C399 C 0.1925 0.97998 0.79879 0.0
H400 H 0.80799 0.86926 0.94922 0.0
C401 C 0.84379 0.87945 0.97016 0.0
H402 H 0.92567 0.88647 0.98038 0.0
H403 H 0.91875 0.73882 0.84868 0.0
H404 H 0.9561 0.68778 0.90344 0.0
H405 H 0.96362 0.71719 0.96702 0.0
H406 H 0.93352 0.79777 0.9762 0.0
C407 C 0.88883 0.87994 0.95998 0.0
C408 C 0.88933 0.86523 0.92149 0.0
C409 C 0.90835 0.81862 0.91652 0.0
C410 C 0.9047 0.80199 0.87976 0.0
C411 C 0.92177 0.75408 0.8758 0.0
C412 C 0.94303 0.72416 0.90705 0.0
C413 C 0.94721 0.74069 0.94284 0.0
C414 C 0.92986 0.78714 0.9477 0.0
H415 H 0.95426 0.82005 0.81072 0.0
C416 C 0.91519 0.8106 0.79365 0.0
H417 H 0.83549 0.80477 0.79349 0.0
H418 H 0.85667 0.96013 0.92106 0.0
H419 H 0.82157 0.01259 0.86632 0.0
H420 H 0.81404 0.98333 0.80267 0.0
H421 H 0.84193 0.90159 0.79336 0.0
C422 C 0.87517 0.81391 0.80919 0.0
C423 C 0.88293 0.83252 0.84794 0.0
C424 C 0.86577 0.88007 0.853 0.0
C425 C 0.86938 0.89664 0.88974 0.0
C426 C 0.85345 0.94503 0.89382 0.0
C427 C 0.83357 0.97572 0.86264 0.0
C428 C 0.82939 0.95927 0.82681 0.0
C429 C 0.84537 0.91215 0.82186 0.0
H430 H 0.18501 0.96604 0.18362 0.0
C431 C 0.21806 -0.00566 0.1928 0.0
H432 H 0.27201 0.03019 0.2374 0.0
H433 H 0.15164 0.01552 0.3622 0.0
H434 H 0.18452 0.10523 0.35982 0.0
H435 H 0.22856 0.13939 0.31093 0.0
H436 H 0.23808 0.08527 0.26319 0.0
C437 C 0.23825 0.00219 0.22949 0.0
C438 C 0.21202 0.98028 0.25936 0.0
C439 C 0.20295 0.01393 0.28537 0.0
C440 C 0.17685 -0.00563 0.31339 0.0
C441 C 0.17048 0.02834 0.33998 0.0
C442 C 0.18914 0.08002 0.33899 0.0
C443 C 0.21368 0.09933 0.31133 0.0
C444 C 0.21969 0.06726 0.28436 0.0
H445 H 0.1942 0.88027 0.3722 0.0
C446 C 0.15734 0.89229 0.37381 0.0
H447 H 0.09771 0.93755 0.34651 0.0
H448 H 0.23411 0.90234 0.22123 0.0
H449 H 0.20031 0.8128 0.22348 0.0
H450 H 0.14472 0.78155 0.26619 0.0
H451 H 0.1241 0.83962 0.3078 0.0
C452 C 0.13279 0.92169 0.34531 0.0
C453 C 0.15842 0.94161 0.31488 0.0
C454 C 0.16716 0.90803 0.28895 0.0
C455 C 0.19588 0.92688 0.26226 0.0
C456 C 0.2089 0.89116 0.23977 0.0
C457 C 0.19044 0.83938 0.24123 0.0
C458 C 0.1594 0.82173 0.26543 0.0
C459 C 0.14802 0.85542 0.28924 0.0
H460 H 0.19556 0.34371 0.83588 0.0
C461 C 0.16579 0.31136 0.82989 0.0
H462 H 0.13006 0.24382 0.85053 0.0
H463 H 0.34543 0.27237 0.9852 0.0
H464 H 0.394 0.27398 0.93736 0.0
H465 H 0.34911 0.27561 0.87028 0.0
H466 H 0.25618 0.27712 0.85059 0.0
C467 C 0.16016 0.2759 0.85681 0.0
C468 C 0.18968 0.28027 0.89655 0.0
C469 C 0.24405 0.2777 0.90722 0.0
C470 C 0.26967 0.27372 0.94583 0.0
C471 C 0.32413 0.27335 0.95612 0.0
C472 C 0.35237 0.27451 0.92901 0.0
C473 C 0.32711 0.27564 0.89125 0.0
C474 C 0.2736 0.27694 0.88032 0.0
H475 H 0.28217 0.18167 0.99209 0.0
C476 C 0.27872 0.20123 1.01638 0.0
H477 H 0.25872 0.26795 0.03578 0.0
H478 H 0.08707 0.29341 0.88578 0.0
H479 H 0.03889 0.29016 0.93369 0.0
H480 H 0.08201 0.27612 1.00026 0.0
H481 H 0.17357 0.26667 1.01944 0.0
C482 C 0.26353 0.24865 1.01185 0.0
C483 C 0.24056 0.26866 0.97337 0.0
C484 C 0.18688 0.2747 0.96287 0.0
C485 C 0.16163 0.28115 0.92441 0.0
C486 C 0.10797 0.28716 0.91455 0.0
C487 C 0.07985 0.28558 0.94176 0.0
C488 C 0.10415 0.2778 0.97923 0.0
C489 C 0.15695 0.2724 0.98984 0.0
H490 H 0.80395 0.13863 0.43579 0.0
C491 C 0.83307 0.15506 0.42123 0.0
H492 H 0.90713 0.19694 0.42763 0.0
H493 H 0.89917 0.31931 0.56705 0.0
H494 H 0.88318 0.38521 0.51784 0.0
H495 H 0.86773 0.36381 0.45147 0.0
H496 H 0.86751 0.27631 0.43391 0.0
C497 C 0.87691 0.18074 0.44115 0.0
C498 C 0.88428 0.19247 0.48141 0.0
C499 C 0.88537 0.244 0.49133 0.0
C500 C 0.89585 0.25664 0.52969 0.0
C501 C 0.89396 0.308 0.53852 0.0
C502 C 0.8842 0.34612 0.51051 0.0
C503 C 0.87539 0.33406 0.47315 0.0
C504 C 0.87561 0.28365 0.46348 0.0
H505 H 0.99064 0.28102 0.58735 0.0
C506 C 0.97179 0.26401 0.60883 0.0
H507 H 0.90951 0.2135 0.61966 0.0
H508 H 0.88478 0.08977 0.47242 0.0
H509 H 0.89689 0.0235 0.52152 0.0
H510 H 0.91284 0.04526 0.58794 0.0
H511 H 0.91877 0.13323 0.60563 0.0
C512 C 0.92785 0.23226 0.59849 0.0
C513 C 0.90726 0.21805 0.55832 0.0
C514 C 0.90294 0.16603 0.54833 0.0
C515 C 0.89219 0.15331 0.50989 0.0
C516 C 0.89112 0.10144 0.50096 0.0
C517 C 0.89829 0.06299 0.52892 0.0
C518 C 0.90739 0.07522 0.56628 0.0
C519 C 0.91048 0.12606 0.57607 0.0
loop_
_geom_bond_atom_site_label_1
_geom_bond_atom_site_label_2
_geom_bond_distance
_geom_bond_site_symmetry_2
_ccdc_geom_bond_type
Gd0 C3 2.818 . S
Gd0 O20 2.377 . S
Gd0 O22 2.448 . S
Gd0 O23 2.506 . S
Gd0 O24 2.435 . S
Gd0 O25 2.717 . S
Gd0 O27 2.395 . S
Gd0 O31 2.327 . S
Gd1 C12 2.818 1_554 S
Gd1 O21 2.395 . S
Gd1 O25 2.327 . S
Gd1 O26 2.377 . S
Gd1 O28 2.448 . S
Gd1 O29 2.506 . S
Gd1 O30 2.435 . S
Gd1 O31 2.717 . S
C2 O20 1.240 . S
C2 O21 1.240 . S
C3 Gd0 2.818 . S
C3 C4 1.510 . S
C3 O22 1.249 . S
C3 O23 1.252 . S
C4 C3 1.510 . S
C4 C5 1.404 . S
C4 C6 1.352 . S
C5 C4 1.404 . S
C5 C9 1.389 . S
C5 H32 0.930 . S
C6 C4 1.352 . S
C6 C8 1.374 . S
C6 H33 0.931 . S
C7 C8 1.359 . S
C7 C9 1.364 . S
C8 C6 1.374 . S
C8 C7 1.359 . S
C8 H34 0.931 . S
C9 C5 1.389 . S
C9 C7 1.364 . S
C9 H35 0.931 . S
C10 O24 1.256 . S
C10 O25 1.257 . S
C11 O26 1.240 . S
C11 O27 1.240 . S
C12 Gd1 2.818 1_556 S
C12 C13 1.510 1_545 S
C12 O28 1.249 1_556 S
C12 O29 1.252 1_556 S
C13 C12 1.510 1_565 S
C13 C14 1.404 . S
C13 C15 1.352 1_565 S
C14 C13 1.404 . S
C14 C18 1.389 . S
C14 H36 0.930 . S
C15 C13 1.352 1_545 S
C15 C17 1.374 1_545 S
C15 H37 0.931 . S
C16 C17 1.359 . S
C16 C18 1.364 . S
C17 C15 1.374 1_565 S
C17 C16 1.359 . S
C17 H38 0.931 1_565 S
C18 C14 1.389 . S
C18 C16 1.364 . S
C18 H39 0.931 . S
C19 O30 1.256 . S
C19 O31 1.257 . S
O20 Gd0 2.377 . S
O20 C2 1.240 . S
O21 Gd1 2.395 . S
O21 C2 1.240 . S
O22 Gd0 2.448 . S
O22 C3 1.249 . S
O23 Gd0 2.506 . S
O23 C3 1.252 . S
O24 Gd0 2.435 . S
O24 C10 1.256 . S
O25 Gd0 2.717 . S
O25 Gd1 2.327 . S
O25 C10 1.257 . S
O26 Gd1 2.377 . S
O26 C11 1.240 . S
O27 Gd0 2.395 . S
O27 C11 1.240 . S
O28 Gd1 2.448 . S
O28 C12 1.249 1_554 S
O29 Gd1 2.506 . S
O29 C12 1.252 1_554 S
O30 Gd1 2.435 . S
O30 C19 1.256 . S
O31 Gd0 2.327 . S
O31 Gd1 2.717 . S
O31 C19 1.257 . S
H32 C5 0.930 . S
H33 C6 0.931 . S
H34 C8 0.931 . S
H35 C9 0.931 . S
H36 C14 0.930 . S
H37 C15 0.931 . S
H38 C17 0.931 1_545 S
H39 C18 0.931 . S
Gd40 C43 2.818 . S
Gd40 O60 2.377 1_655 S
Gd40 O62 2.448 . S
Gd40 O63 2.506 . S
Gd40 O64 2.435 . S
Gd40 O65 2.717 1_655 S
Gd40 O67 2.395 . S
Gd40 O71 2.327 1_655 S
Gd41 C52 2.818 . S
Gd41 O61 2.395 . S
Gd41 O65 2.327 . S
Gd41 O66 2.377 . S
Gd41 O68 2.448 . S
Gd41 O69 2.506 . S
Gd41 O70 2.435 . S
Gd41 O71 2.717 . S
C42 O60 1.240 . S
C42 O61 1.240 . S
C43 Gd40 2.818 . S
C43 C44 1.510 . S
C43 O62 1.249 . S
C43 O63 1.252 . S
C44 C43 1.510 . S
C44 C45 1.404 . S
C44 C46 1.352 . S
C45 C44 1.404 . S
C45 C49 1.389 . S
C45 H72 0.930 . S
C46 C44 1.352 . S
C46 C48 1.374 . S
C46 H73 0.931 . S
C47 C48 1.359 . S
C47 C49 1.364 . S
C48 C46 1.374 . S
C48 C47 1.359 . S
C48 H74 0.931 . S
C49 C45 1.389 . S
C49 C47 1.364 . S
C49 H75 0.931 . S
C50 O64 1.256 1_455 S
C50 O65 1.257 . S
C51 O66 1.240 1_655 S
C51 O67 1.240 . S
C52 Gd41 2.818 . S
C52 C53 1.510 . S
C52 O68 1.249 . S
C52 O69 1.252 . S
C53 C52 1.510 . S
C53 C54 1.404 . S
C53 C55 1.352 . S
C54 C53 1.404 . S
C54 C58 1.389 . S
C54 H76 0.930 . S
C55 C53 1.352 . S
C55 C57 1.374 . S
C55 H77 0.931 . S
C56 C57 1.359 . S
C56 C58 1.364 . S
C57 C55 1.374 . S
C57 C56 1.359 . S
C57 H78 0.931 . S
C58 C54 1.389 . S
C58 C56 1.364 . S
C58 H79 0.931 . S
C59 O70 1.256 . S
C59 O71 1.257 . S
O60 Gd40 2.377 1_455 S
O60 C42 1.240 . S
O61 Gd41 2.395 . S
O61 C42 1.240 . S
O62 Gd40 2.448 . S
O62 C43 1.249 . S
O63 Gd40 2.506 . S
O63 C43 1.252 . S
O64 Gd40 2.435 . S
O64 C50 1.256 1_655 S
O65 Gd40 2.717 1_455 S
O65 Gd41 2.327 . S
O65 C50 1.257 . S
O66 Gd41 2.377 . S
O66 C51 1.240 1_455 S
O67 Gd40 2.395 . S
O67 C51 1.240 . S
O68 Gd41 2.448 . S
O68 C52 1.249 . S
O69 Gd41 2.506 . S
O69 C52 1.252 . S
O70 Gd41 2.435 . S
O70 C59 1.256 . S
O71 Gd40 2.327 1_455 S
O71 Gd41 2.717 . S
O71 C59 1.257 . S
H72 C45 0.930 . S
H73 C46 0.931 . S
H74 C48 0.931 . S
H75 C49 0.931 . S
H76 C54 0.930 . S
H77 C55 0.931 . S
H78 C57 0.931 . S
H79 C58 0.931 . S
Gd80 C83 2.818 . S
Gd80 O100 2.377 . S
Gd80 O102 2.448 . S
Gd80 O103 2.506 . S
Gd80 O104 2.435 . S
Gd80 O105 2.717 . S
Gd80 O107 2.395 . S
Gd80 O111 2.327 . S
Gd81 C92 2.818 . S
Gd81 O101 2.395 . S
Gd81 O105 2.327 1_565 S
Gd81 O106 2.377 1_565 S
Gd81 O108 2.448 . S
Gd81 O109 2.506 . S
Gd81 O110 2.435 . S
Gd81 O111 2.717 1_565 S
C82 O100 1.240 1_565 S
C82 O101 1.240 . S
C83 Gd80 2.818 . S
C83 C84 1.510 . S
C83 O102 1.249 . S
C83 O103 1.252 . S
C84 C83 1.510 . S
C84 C85 1.404 . S
C84 C86 1.352 . S
C85 C84 1.404 . S
C85 C89 1.389 . S
C85 H112 0.930 . S
C86 C84 1.352 . S
C86 C88 1.374 . S
C86 H113 0.931 . S
C87 C88 1.359 . S
C87 C89 1.364 . S
C88 C86 1.374 . S
C88 C87 1.359 . S
C88 H114 0.931 . S
C89 C85 1.389 . S
C89 C87 1.364 . S
C89 H115 0.931 . S
C90 O104 1.256 . S
C90 O105 1.257 . S
C91 O106 1.240 . S
C91 O107 1.240 . S
C92 Gd81 2.818 . S
C92 C93 1.510 . S
C92 O108 1.249 . S
C92 O109 1.252 . S
C93 C92 1.510 . S
C93 C94 1.403 1_554 S
C93 C95 1.352 . S
C94 C93 1.403 1_556 S
C94 C98 1.392 . S
C94 H116 0.928 1_556 S
C95 C93 1.352 . S
C95 C97 1.374 1_554 S
C95 H117 0.931 . S
C96 C97 1.359 . S
C96 C98 1.364 . S
C97 C95 1.374 1_556 S
C97 C96 1.359 . S
C97 H118 0.931 . S
C98 C94 1.392 . S
C98 C96 1.364 . S
C98 H119 0.931 . S
C99 O110 1.256 1_545 S
C99 O111 1.257 . S
O100 Gd80 2.377 . S
O100 C82 1.240 1_545 S
O101 Gd81 2.395 . S
O101 C82 1.240 . S
O102 Gd80 2.448 . S
O102 C83 1.249 . S
O103 Gd80 2.506 . S
O103 C83 1.252 . S
O104 Gd80 2.435 . S
O104 C90 1.256 . S
O105 Gd80 2.717 . S
O105 Gd81 2.327 1_545 S
O105 C90 1.257 . S
O106 Gd81 2.377 1_545 S
O106 C91 1.240 . S
O107 Gd80 2.395 . S
O107 C91 1.240 . S
O108 Gd81 2.448 . S
O108 C92 1.249 . S
O109 Gd81 2.506 . S
O109 C92 1.252 . S
O110 Gd81 2.435 . S
O110 C99 1.256 1_565 S
O111 Gd80 2.327 . S
O111 Gd81 2.717 1_545 S
O111 C99 1.257 . S
H112 C85 0.930 . S
H113 C86 0.931 . S
H114 C88 0.931 . S
H115 C89 0.931 . S
H116 C94 0.928 1_554 S
H117 C95 0.931 . S
H118 C97 0.931 . S
H119 C98 0.931 . S
Gd120 C123 2.818 . S
Gd120 O140 2.377 1_655 S
Gd120 O142 2.448 . S
Gd120 O143 2.506 . S
Gd120 O144 2.435 . S
Gd120 O145 2.717 1_655 S
Gd120 O147 2.395 . S
Gd120 O151 2.327 1_655 S
Gd121 C132 2.818 . S
Gd121 O141 2.395 . S
Gd121 O145 2.327 . S
Gd121 O146 2.377 . S
Gd121 O148 2.448 . S
Gd121 O149 2.506 . S
Gd121 O150 2.435 . S
Gd121 O151 2.717 . S
C122 O140 1.240 . S
C122 O141 1.240 . S
C123 Gd120 2.818 . S
C123 C124 1.510 . S
C123 O142 1.249 . S
C123 O143 1.252 . S
C124 C123 1.510 . S
C124 C125 1.404 . S
C124 C126 1.352 . S
C125 C124 1.404 . S
C125 C129 1.389 . S
C125 H152 0.930 . S
C126 C124 1.352 . S
C126 C128 1.374 . S
C126 H153 0.931 . S
C127 C128 1.359 . S
C127 C129 1.364 . S
C128 C126 1.374 . S
C128 C127 1.359 . S
C128 H154 0.931 . S
C129 C125 1.389 . S
C129 C127 1.364 . S
C129 H155 0.931 . S
C130 O144 1.256 1_455 S
C130 O145 1.257 . S
C131 O146 1.240 1_655 S
C131 O147 1.240 . S
C132 Gd121 2.818 . S
C132 C133 1.510 . S
C132 O148 1.249 . S
C132 O149 1.252 . S
C133 C132 1.510 . S
C133 C134 1.404 . S
C133 C135 1.352 . S
C134 C133 1.404 . S
C134 C138 1.389 . S
C134 H156 0.930 . S
C135 C133 1.352 . S
C135 C137 1.374 . S
C135 H157 0.931 . S
C136 C137 1.359 . S
C136 C138 1.364 . S
C137 C135 1.374 . S
C137 C136 1.359 . S
C137 H158 0.931 . S
C138 C134 1.389 . S
C138 C136 1.364 . S
C138 H159 0.931 . S
C139 O150 1.256 . S
C139 O151 1.257 . S
O140 Gd120 2.377 1_455 S
O140 C122 1.240 . S
O141 Gd121 2.395 . S
O141 C122 1.240 . S
O142 Gd120 2.448 . S
O142 C123 1.249 . S
O143 Gd120 2.506 . S
O143 C123 1.252 . S
O144 Gd120 2.435 . S
O144 C130 1.256 1_655 S
O145 Gd120 2.717 1_455 S
O145 Gd121 2.327 . S
O145 C130 1.257 . S
O146 Gd121 2.377 . S
O146 C131 1.240 1_455 S
O147 Gd120 2.395 . S
O147 C131 1.240 . S
O148 Gd121 2.448 . S
O148 C132 1.249 . S
O149 Gd121 2.506 . S
O149 C132 1.252 . S
O150 Gd121 2.435 . S
O150 C139 1.256 . S
O151 Gd120 2.327 1_455 S
O151 Gd121 2.717 . S
O151 C139 1.257 . S
H152 C125 0.930 . S
H153 C126 0.931 . S
H154 C128 0.931 . S
H155 C129 0.931 . S
H156 C134 0.930 . S
H157 C135 0.931 . S
H158 C137 0.931 . S
H159 C138 0.931 . S
H160 C161 0.951 . S
C161 H160 0.951 . S
C161 C167 1.265 . S
H162 C167 0.950 . S
H163 C171 0.949 . S
H164 C172 0.950 . S
H165 C173 0.951 . S
H166 C174 0.951 . S
C167 C161 1.265 . S
C167 H162 0.950 . S
C167 C168 1.478 . S
C168 C167 1.478 . S
C168 C169 1.397 . S
C168 C185 1.394 1_655 S
C169 C168 1.397 . S
C169 C170 1.438 1_655 S
C169 C174 1.429 . S
C170 C169 1.438 1_455 S
C170 C171 1.428 . S
C170 C183 1.394 . S
C171 H163 0.949 . S
C171 C170 1.428 . S
C171 C172 1.345 . S
C172 H164 0.950 . S
C172 C171 1.345 . S
C172 C173 1.424 1_455 S
C173 H165 0.951 . S
C173 C172 1.424 1_655 S
C173 C174 1.347 . S
C174 H166 0.951 . S
C174 C169 1.429 . S
C174 C173 1.347 . S
H175 C176 0.951 . S
C176 H175 0.951 . S
C176 C182 1.265 . S
H177 C182 0.950 . S
H178 C186 0.949 1_655 S
H179 C187 0.950 . S
H180 C188 0.951 . S
H181 C189 0.951 1_545 S
C182 C176 1.265 . S
C182 H177 0.950 . S
C182 C183 1.478 . S
C183 C170 1.394 . S
C183 C182 1.478 . S
C183 C184 1.397 . S
C184 C183 1.397 . S
C184 C185 1.438 . S
C184 C189 1.429 1_545 S
C185 C168 1.394 1_455 S
C185 C184 1.438 . S
C185 C186 1.428 1_545 S
C186 H178 0.949 1_455 S
C186 C185 1.428 1_565 S
C186 C187 1.345 . S
C187 H179 0.950 . S
C187 C186 1.345 . S
C187 C188 1.424 . S
C188 H180 0.951 . S
C188 C187 1.424 . S
C188 C189 1.347 . S
C189 H181 0.951 1_565 S
C189 C184 1.429 1_565 S
C189 C188 1.347 . S
H190 C191 0.951 1_655 S
C191 H190 0.951 1_455 S
C191 C197 1.265 . S
H192 C197 0.950 1_545 S
H193 C201 0.949 . S
H194 C202 0.950 . S
H195 C203 0.951 . S
H196 C204 0.951 . S
C197 C191 1.265 . S
C197 H192 0.950 1_565 S
C197 C198 1.478 1_565 S
C198 C197 1.478 1_545 S
C198 C199 1.397 . S
C198 C215 1.394 . S
C199 C198 1.397 . S
C199 C200 1.438 . S
C199 C204 1.429 . S
C200 C199 1.438 . S
C200 C201 1.428 . S
C200 C213 1.394 . S
C201 H193 0.949 . S
C201 C200 1.428 . S
C201 C202 1.345 . S
C202 H194 0.950 . S
C202 C201 1.345 . S
C202 C203 1.424 . S
C203 H195 0.951 . S
C203 C202 1.424 . S
C203 C204 1.347 . S
C204 H196 0.951 . S
C204 C199 1.429 . S
C204 C203 1.347 . S
H205 C206 0.951 . S
C206 H205 0.951 . S
C206 C212 1.265 . S
H207 C212 0.950 1_655 S
H208 C216 0.949 . S
H209 C217 0.950 . S
H210 C218 0.951 . S
H211 C219 0.951 . S
C212 C206 1.265 . S
C212 H207 0.950 1_455 S
C212 C213 1.478 . S
C213 C200 1.394 . S
C213 C212 1.478 . S
C213 C214 1.397 . S
C214 C213 1.397 . S
C214 C215 1.438 . S
C214 C219 1.429 . S
C215 C198 1.394 . S
C215 C214 1.438 . S
C215 C216 1.428 1_545 S
C216 H208 0.949 . S
C216 C215 1.428 1_565 S
C216 C217 1.345 . S
C217 H209 0.950 . S
C217 C216 1.345 . S
C217 C218 1.424 . S
C218 H210 0.951 . S
C218 C217 1.424 . S
C218 C219 1.347 1_565 S
C219 H211 0.951 . S
C219 C214 1.429 . S
C219 C218 1.347 1_545 S
H220 C221 0.951 . S
C221 H220 0.951 . S
C221 C227 1.265 . S
H222 C227 0.950 1_565 S
H223 C231 0.949 . S
H224 C232 0.950 . S
H225 C233 0.951 . S
H226 C234 0.951 . S
C227 C221 1.265 . S
C227 H222 0.950 1_545 S
C227 C228 1.478 . S
C228 C227 1.478 . S
C228 C229 1.397 . S
C228 C245 1.394 . S
C229 C228 1.397 . S
C229 C230 1.438 . S
C229 C234 1.429 1_545 S
C230 C229 1.438 . S
C230 C231 1.428 . S
C230 C243 1.394 . S
C231 H223 0.949 . S
C231 C230 1.428 . S
C231 C232 1.345 . S
C232 H224 0.950 . S
C232 C231 1.345 . S
C232 C233 1.424 1_545 S
C233 H225 0.951 . S
C233 C232 1.424 1_565 S
C233 C234 1.347 . S
C234 H226 0.951 . S
C234 C229 1.429 1_565 S
C234 C233 1.347 . S
H235 C236 0.951 . S
C236 H235 0.951 . S
C236 C242 1.265 . S
H237 C242 0.950 . S
H238 C246 0.949 . S
H239 C247 0.950 . S
H240 C248 0.951 . S
H241 C249 0.951 . S
C242 C236 1.265 . S
C242 H237 0.950 . S
C242 C243 1.478 . S
C243 C230 1.394 . S
C243 C242 1.478 . S
C243 C244 1.397 . S
C244 C243 1.397 . S
C244 C245 1.438 . S
C244 C249 1.429 . S
C245 C228 1.394 . S
C245 C244 1.438 . S
C245 C246 1.428 . S
C246 H238 0.949 . S
C246 C245 1.428 . S
C246 C247 1.345 . S
C247 H239 0.950 . S
C247 C246 1.345 . S
C247 C248 1.424 . S
C248 H240 0.951 . S
C248 C247 1.424 . S
C248 C249 1.347 . S
C249 H241 0.951 . S
C249 C244 1.429 . S
C249 C248 1.347 . S
H250 C251 0.951 . S
C251 H250 0.951 . S
C251 C257 1.265 . S
H252 C257 0.950 1_655 S
H253 C261 0.949 . S
H254 C262 0.950 . S
H255 C263 0.951 . S
H256 C264 0.951 . S
C257 C251 1.265 . S
C257 H252 0.950 1_455 S
C257 C258 1.478 . S
C258 C257 1.478 . S
C258 C259 1.397 . S
C258 C275 1.394 . S
C259 C258 1.397 . S
C259 C260 1.438 . S
C259 C264 1.429 . S
C260 C259 1.438 . S
C260 C261 1.428 . S
C260 C273 1.394 . S
C261 H253 0.949 . S
C261 C260 1.428 . S
C261 C262 1.345 . S
C262 H254 0.950 . S
C262 C261 1.345 . S
C262 C263 1.424 . S
C263 H255 0.951 . S
C263 C262 1.424 . S
C263 C264 1.347 . S
C264 H256 0.951 . S
C264 C259 1.429 . S
C264 C263 1.347 . S
H265 C266 0.951 1_655 S
C266 H265 0.951 1_455 S
C266 C272 1.265 . S
H267 C272 0.950 . S
H268 C276 0.949 . S
H269 C277 0.950 . S
H270 C278 0.951 . S
H271 C279 0.951 . S
C272 C266 1.265 . S
C272 H267 0.950 . S
C272 C273 1.478 . S
C273 C260 1.394 . S
C273 C272 1.478 . S
C273 C274 1.397 . S
C274 C273 1.397 . S
C274 C275 1.438 . S
C274 C279 1.429 . S
C275 C258 1.394 . S
C275 C274 1.438 . S
C275 C276 1.428 . S
C276 H268 0.949 . S
C276 C275 1.428 . S
C276 C277 1.345 . S
C277 H269 0.950 . S
C277 C276 1.345 . S
C277 C278 1.424 . S
C278 H270 0.951 . S
C278 C277 1.424 . S
C278 C279 1.347 . S
C279 H271 0.951 . S
C279 C274 1.429 . S
C279 C278 1.347 . S
H280 C281 0.951 . S
C281 H280 0.951 . S
C281 C287 1.265 . S
H282 C287 0.950 . S
H283 C291 0.949 . S
H284 C292 0.950 . S
H285 C293 0.951 . S
H286 C294 0.951 . S
C287 C281 1.265 . S
C287 H282 0.950 . S
C287 C288 1.478 . S
C288 C287 1.478 . S
C288 C289 1.397 . S
C288 C305 1.394 . S
C289 C288 1.397 . S
C289 C290 1.438 . S
C289 C294 1.429 . S
C290 C289 1.438 . S
C290 C291 1.428 . S
C290 C303 1.394 . S
C291 H283 0.949 . S
C291 C290 1.428 . S
C291 C292 1.345 . S
C292 H284 0.950 . S
C292 C291 1.345 . S
C292 C293 1.424 . S
C293 H285 0.951 . S
C293 C292 1.424 . S
C293 C294 1.347 . S
C294 H286 0.951 . S
C294 C289 1.429 . S
C294 C293 1.347 . S
H295 C296 0.951 . S
C296 H295 0.951 . S
C296 C302 1.265 . S
H297 C302 0.950 . S
H298 C306 0.949 . S
H299 C307 0.950 . S
H300 C308 0.951 . S
H301 C309 0.951 . S
C302 C296 1.265 . S
C302 H297 0.950 . S
C302 C303 1.478 . S
C303 C290 1.394 . S
C303 C302 1.478 . S
C303 C304 1.397 . S
C304 C303 1.397 . S
C304 C305 1.438 . S
C304 C309 1.429 . S
C305 C288 1.394 . S
C305 C304 1.438 . S
C305 C306 1.428 . S
C306 H298 0.949 . S
C306 C305 1.428 . S
C306 C307 1.345 . S
C307 H299 0.950 . S
C307 C306 1.345 . S
C307 C308 1.424 . S
C308 H300 0.951 . S
C308 C307 1.424 . S
C308 C309 1.347 . S
C309 H301 0.951 . S
C309 C304 1.429 . S
C309 C308 1.347 . S
H310 C311 0.951 . S
C311 H310 0.951 . S
C311 C317 1.265 . S
H312 C317 0.950 . S
H313 C321 0.949 . S
H314 C322 0.950 . S
H315 C323 0.951 . S
H316 C324 0.951 . S
C317 C311 1.265 . S
C317 H312 0.950 . S
C317 C318 1.478 . S
C318 C317 1.478 . S
C318 C319 1.397 . S
C318 C335 1.394 . S
C319 C318 1.397 . S
C319 C320 1.438 . S
C319 C324 1.429 . S
C320 C319 1.438 . S
C320 C321 1.428 1_556 S
C320 C333 1.394 . S
C321 H313 0.949 . S
C321 C320 1.428 1_554 S
C321 C322 1.345 . S
C322 H314 0.950 . S
C322 C321 1.345 . S
C322 C323 1.424 1_554 S
C323 H315 0.951 . S
C323 C322 1.424 1_556 S
C323 C324 1.347 . S
C324 H316 0.951 . S
C324 C319 1.429 . S
C324 C323 1.347 . S
H325 C326 0.951 . S
C326 H325 0.951 . S
C326 C332 1.265 . S
H327 C332 0.950 . S
H328 C336 0.949 . S
H329 C337 0.950 . S
H330 C338 0.951 1_565 S
H331 C339 0.951 . S
C332 C326 1.265 . S
C332 H327 0.950 . S
C332 C333 1.478 1_554 S
C333 C320 1.394 . S
C333 C332 1.478 1_556 S
C333 C334 1.397 . S
C334 C333 1.397 . S
C334 C335 1.438 . S
C334 C339 1.429 . S
C335 C318 1.394 . S
C335 C334 1.438 . S
C335 C336 1.428 . S
C336 H328 0.949 . S
C336 C335 1.428 . S
C336 C337 1.345 . S
C337 H329 0.950 . S
C337 C336 1.345 . S
C337 C338 1.424 . S
C338 H330 0.951 1_545 S
C338 C337 1.424 . S
C338 C339 1.347 . S
C339 H331 0.951 . S
C339 C334 1.429 . S
C339 C338 1.347 . S
H340 C341 0.951 . S
C341 H340 0.951 . S
C341 C347 1.265 . S
H342 C347 0.950 . S
H343 C351 0.949 . S
H344 C352 0.950 . S
H345 C353 0.951 . S
H346 C354 0.951 . S
C347 C341 1.265 . S
C347 H342 0.950 . S
C347 C348 1.478 . S
C348 C347 1.478 . S
C348 C349 1.397 . S
C348 C365 1.394 . S
C349 C348 1.397 . S
C349 C350 1.438 . S
C349 C354 1.429 . S
C350 C349 1.438 . S
C350 C351 1.428 . S
C350 C363 1.394 . S
C351 H343 0.949 . S
C351 C350 1.428 . S
C351 C352 1.345 . S
C352 H344 0.950 . S
C352 C351 1.345 . S
C352 C353 1.424 . S
C353 H345 0.951 . S
C353 C352 1.424 . S
C353 C354 1.347 . S
C354 H346 0.951 . S
C354 C349 1.429 . S
C354 C353 1.347 . S
H355 C356 0.951 . S
C356 H355 0.951 . S
C356 C362 1.265 . S
H357 C362 0.950 . S
H358 C366 0.949 . S
H359 C367 0.950 . S
H360 C368 0.951 . S
H361 C369 0.951 . S
C362 C356 1.265 . S
C362 H357 0.950 . S
C362 C363 1.478 . S
C363 C350 1.394 . S
C363 C362 1.478 . S
C363 C364 1.397 . S
C364 C363 1.397 . S
C364 C365 1.438 . S
C364 C369 1.429 . S
C365 C348 1.394 . S
C365 C364 1.438 . S
C365 C366 1.428 . S
C366 H358 0.949 . S
C366 C365 1.428 . S
C366 C367 1.345 1_565 S
C367 H359 0.950 . S
C367 C366 1.345 1_545 S
C367 C368 1.424 . S
C368 H360 0.951 . S
C368 C367 1.424 . S
C368 C369 1.347 1_545 S
C369 H361 0.951 . S
C369 C364 1.429 . S
C369 C368 1.347 1_565 S
H370 C371 0.951 . S
C371 H370 0.951 . S
C371 C377 1.265 . S
H372 C377 0.950 . S
H373 C381 0.949 . S
H374 C382 0.950 . S
H375 C383 0.951 . S
H376 C384 0.951 . S
C377 C371 1.265 . S
C377 H372 0.950 . S
C377 C378 1.478 . S
C378 C377 1.478 . S
C378 C379 1.397 . S
C378 C395 1.394 . S
C379 C378 1.397 . S
C379 C380 1.438 . S
C379 C384 1.429 . S
C380 C379 1.438 . S
C380 C381 1.428 . S
C380 C393 1.394 . S
C381 H373 0.949 . S
C381 C380 1.428 . S
C381 C382 1.345 . S
C382 H374 0.950 . S
C382 C381 1.345 . S
C382 C383 1.424 . S
C383 H375 0.951 . S
C383 C382 1.424 . S
C383 C384 1.347 . S
C384 H376 0.951 . S
C384 C379 1.429 . S
C384 C383 1.347 . S
H385 C386 0.951 . S
C386 H385 0.951 . S
C386 C392 1.265 . S
H387 C392 0.950 . S
H388 C396 0.949 . S
H389 C397 0.950 . S
H390 C398 0.951 . S
H391 C399 0.951 . S
C392 C386 1.265 . S
C392 H387 0.950 . S
C392 C393 1.478 . S
C393 C380 1.394 . S
C393 C392 1.478 . S
C393 C394 1.397 . S
C394 C393 1.397 . S
C394 C395 1.438 . S
C394 C399 1.429 . S
C395 C378 1.394 . S
C395 C394 1.438 . S
C395 C396 1.428 . S
C396 H388 0.949 . S
C396 C395 1.428 . S
C396 C397 1.345 . S
C397 H389 0.950 . S
C397 C396 1.345 . S
C397 C398 1.424 . S
C398 H390 0.951 . S
C398 C397 1.424 . S
C398 C399 1.347 . S
C399 H391 0.951 . S
C399 C394 1.429 . S
C399 C398 1.347 . S
H400 C401 0.951 . S
C401 H400 0.951 . S
C401 C407 1.265 . S
H402 C407 0.950 . S
H403 C411 0.949 . S
H404 C412 0.950 . S
H405 C413 0.951 . S
H406 C414 0.951 . S
C407 C401 1.265 . S
C407 H402 0.950 . S
C407 C408 1.478 . S
C408 C407 1.478 . S
C408 C409 1.397 . S
C408 C425 1.394 . S
C409 C408 1.397 . S
C409 C410 1.438 . S
C409 C414 1.429 . S
C410 C409 1.438 . S
C410 C411 1.428 . S
C410 C423 1.394 . S
C411 H403 0.949 . S
C411 C410 1.428 . S
C411 C412 1.345 . S
C412 H404 0.950 . S
C412 C411 1.345 . S
C412 C413 1.424 . S
C413 H405 0.951 . S
C413 C412 1.424 . S
C413 C414 1.347 . S
C414 H406 0.951 . S
C414 C409 1.429 . S
C414 C413 1.347 . S
H415 C416 0.951 . S
C416 H415 0.951 . S
C416 C422 1.265 . S
H417 C422 0.950 . S
H418 C426 0.949 . S
H419 C427 0.950 . S
H420 C428 0.951 . S
H421 C429 0.951 . S
C422 C416 1.265 . S
C422 H417 0.950 . S
C422 C423 1.478 . S
C423 C410 1.394 . S
C423 C422 1.478 . S
C423 C424 1.397 . S
C424 C423 1.397 . S
C424 C425 1.438 . S
C424 C429 1.429 . S
C425 C408 1.394 . S
C425 C424 1.438 . S
C425 C426 1.428 . S
C426 H418 0.949 . S
C426 C425 1.428 . S
C426 C427 1.345 . S
C427 H419 0.950 . S
C427 C426 1.345 . S
C427 C428 1.424 . S
C428 H420 0.951 . S
C428 C427 1.424 . S
C428 C429 1.347 . S
C429 H421 0.951 . S
C429 C424 1.429 . S
C429 C428 1.347 . S
H430 C431 0.951 . S
C431 H430 0.951 . S
C431 C437 1.265 . S
H432 C437 0.950 . S
H433 C441 0.949 . S
H434 C442 0.950 . S
H435 C443 0.951 . S
H436 C444 0.951 . S
C437 C431 1.265 . S
C437 H432 0.950 . S
C437 C438 1.476 1_545 S
C438 C437 1.476 1_565 S
C438 C439 1.393 1_565 S
C438 C455 1.400 . S
C439 C438 1.393 1_545 S
C439 C440 1.438 . S
C439 C444 1.429 . S
C440 C439 1.438 . S
C440 C441 1.428 . S
C440 C453 1.394 1_545 S
C441 H433 0.949 . S
C441 C440 1.428 . S
C441 C442 1.345 . S
C442 H434 0.950 . S
C442 C441 1.345 . S
C442 C443 1.424 . S
C443 H435 0.951 . S
C443 C442 1.424 . S
C443 C444 1.347 . S
C444 H436 0.951 . S
C444 C439 1.429 . S
C444 C443 1.347 . S
H445 C446 0.951 . S
C446 H445 0.951 . S
C446 C452 1.265 . S
H447 C452 0.950 . S
H448 C456 0.949 . S
H449 C457 0.950 . S
H450 C458 0.951 . S
H451 C459 0.951 . S
C452 C446 1.265 . S
C452 H447 0.950 . S
C452 C453 1.478 . S
C453 C440 1.394 1_565 S
C453 C452 1.478 . S
C453 C454 1.397 . S
C454 C453 1.397 . S
C454 C455 1.438 . S
C454 C459 1.429 . S
C455 C438 1.400 . S
C455 C454 1.438 . S
C455 C456 1.428 . S
C456 H448 0.949 . S
C456 C455 1.428 . S
C456 C457 1.345 . S
C457 H449 0.950 . S
C457 C456 1.345 . S
C457 C458 1.424 . S
C458 H450 0.951 . S
C458 C457 1.424 . S
C458 C459 1.347 . S
C459 H451 0.951 . S
C459 C454 1.429 . S
C459 C458 1.347 . S
H460 C461 0.951 . S
C461 H460 0.951 . S
C461 C467 1.265 . S
H462 C467 0.950 . S
H463 C471 0.949 . S
H464 C472 0.950 . S
H465 C473 0.951 . S
H466 C474 0.951 . S
C467 C461 1.265 . S
C467 H462 0.950 . S
C467 C468 1.478 . S
C468 C467 1.478 . S
C468 C469 1.397 . S
C468 C485 1.394 . S
C469 C468 1.397 . S
C469 C470 1.438 . S
C469 C474 1.429 . S
C470 C469 1.438 . S
C470 C471 1.428 . S
C470 C483 1.394 . S
C471 H463 0.949 . S
C471 C470 1.428 . S
C471 C472 1.345 . S
C472 H464 0.950 . S
C472 C471 1.345 . S
C472 C473 1.424 . S
C473 H465 0.951 . S
C473 C472 1.424 . S
C473 C474 1.347 . S
C474 H466 0.951 . S
C474 C469 1.429 . S
C474 C473 1.347 . S
H475 C476 0.951 . S
C476 H475 0.951 . S
C476 C482 1.265 . S
H477 C482 0.950 . S
H478 C486 0.949 . S
H479 C487 0.950 1_655 S
H480 C488 0.951 . S
H481 C489 0.951 . S
C482 C476 1.265 . S
C482 H477 0.950 . S
C482 C483 1.478 . S
C483 C470 1.394 . S
C483 C482 1.478 . S
C483 C484 1.397 . S
C484 C483 1.397 . S
C484 C485 1.438 . S
C484 C489 1.429 . S
C485 C468 1.394 . S
C485 C484 1.438 . S
C485 C486 1.428 . S
C486 H478 0.949 . S
C486 C485 1.428 . S
C486 C487 1.345 . S
C487 H479 0.950 1_455 S
C487 C486 1.345 . S
C487 C488 1.424 . S
C488 H480 0.951 . S
C488 C487 1.424 . S
C488 C489 1.347 . S
C489 H481 0.951 . S
C489 C484 1.429 . S
C489 C488 1.347 . S
H490 C491 0.951 . S
C491 H490 0.951 . S
C491 C497 1.265 . S
H492 C497 0.950 . S
H493 C501 0.949 . S
H494 C502 0.950 . S
H495 C503 0.951 . S
H496 C504 0.951 . S
C497 C491 1.265 . S
C497 H492 0.950 . S
C497 C498 1.478 . S
C498 C497 1.478 . S
C498 C499 1.397 . S
C498 C515 1.394 . S
C499 C498 1.397 . S
C499 C500 1.438 . S
C499 C504 1.429 . S
C500 C499 1.438 . S
C500 C501 1.428 . S
C500 C513 1.394 . S
C501 H493 0.949 . S
C501 C500 1.428 . S
C501 C502 1.345 . S
C502 H494 0.950 . S
C502 C501 1.345 . S
C502 C503 1.424 . S
C503 H495 0.951 . S
C503 C502 1.424 . S
C503 C504 1.347 . S
C504 H496 0.951 . S
C504 C499 1.429 . S
C504 C503 1.347 . S
H505 C506 0.951 . S
C506 H505 0.951 . S
C506 C512 1.265 . S
H507 C512 0.950 . S
H508 C516 0.949 . S
H509 C517 0.950 . S
H510 C518 0.951 . S
H511 C519 0.951 . S
C512 C506 1.265 . S
C512 H507 0.950 . S
C512 C513 1.478 . S
C513 C500 1.394 . S
C513 C512 1.478 . S
C513 C514 1.397 . S
C514 C513 1.397 . S
C514 C515 1.438 . S
C514 C519 1.429 . S
C515 C498 1.394 . S
C515 C514 1.438 . S
C515 C516 1.428 . S
C516 H508 0.949 . S
C516 C515 1.428 . S
C516 C517 1.345 . S
C517 H509 0.950 . S
C517 C516 1.345 . S
C517 C518 1.424 . S
C518 H510 0.951 . S
C518 C517 1.424 . S
C518 C519 1.347 . S
C519 H511 0.951 . S
C519 C514 1.429 . S
C519 C518 1.347 . S
C161 C90 0.578 . S
C176 C19 0.578 . S
C191 C130 0.582 . S
C206 C59 0.582 . S
C221 C99 1.106 . S
C236 C10 1.106 . S
C251 C50 1.079 . S
C266 C139 1.079 . S
C281 C56 1.005 . S
C296 C7 1.079 . S
C311 C47 1.724 . S
C326 C91 1.731 . S
C341 C131 2.136 . S
C356 C82 2.055 . S
C371 C122 1.344 . S
C386 C16 1.306 . S
C401 C96 1.082 . S
C416 C127 1.026 . S
C431 C2 1.731 . S
C446 C136 1.721 . S
C461 C42 2.139 . S
C476 C11 2.096 1_556 S
C491 C87 1.357 . S
C506 C51 1.314 . S
