# Generated by pormake.
# Topology gme, (4)-cn, num edge types: 1
# Building blocks:
#     Node 0, Type 0, BuildingBlock: ICAMEG_clean_sbu_1, # of connection points: 4
#     Node 1, Type 0, BuildingBlock: ICAMEG_clean_sbu_1, # of connection points: 4
#     Node 2, Type 0, BuildingBlock: ICAMEG_clean_sbu_1, # of connection points: 4
#     Node 3, Type 0, BuildingBlock: ICAMEG_clean_sbu_1, # of connection points: 4
#     Node 4, Type 0, BuildingBlock: ICAMEG_clean_sbu_1, # of connection points: 4
#     Node 5, Type 0, BuildingBlock: ICAMEG_clean_sbu_1, # of connection points: 4
#     Node 6, Type 0, BuildingBlock: ICAMEG_clean_sbu_1, # of connection points: 4
#     Node 7, Type 0, BuildingBlock: ICAMEG_clean_sbu_1, # of connection points: 4
#     Node 8, Type 0, BuildingBlock: ICAMEG_clean_sbu_1, # of connection points: 4
#     Node 9, Type 0, BuildingBlock: ICAMEG_clean_sbu_1, # of connection points: 4
#     Node 10, Type 0, BuildingBlock: ICAMEG_clean_sbu_1, # of connection points: 4
#     Node 11, Type 0, BuildingBlock: ICAMEG_clean_sbu_1, # of connection points: 4
#     Node 12, Type 0, BuildingBlock: ICAMEG_clean_sbu_1, # of connection points: 4
#     Node 13, Type 0, BuildingBlock: ICAMEG_clean_sbu_1, # of connection points: 4
#     Node 14, Type 0, BuildingBlock: ICAMEG_clean_sbu_1, # of connection points: 4
#     Node 15, Type 0, BuildingBlock: ICAMEG_clean_sbu_1, # of connection points: 4
#     Node 16, Type 0, BuildingBlock: ICAMEG_clean_sbu_1, # of connection points: 4
#     Node 17, Type 0, BuildingBlock: ICAMEG_clean_sbu_1, # of connection points: 4
#     Node 18, Type 0, BuildingBlock: ICAMEG_clean_sbu_1, # of connection points: 4
#     Node 19, Type 0, BuildingBlock: ICAMEG_clean_sbu_1, # of connection points: 4
#     Node 20, Type 0, BuildingBlock: ICAMEG_clean_sbu_1, # of connection points: 4
#     Node 21, Type 0, BuildingBlock: ICAMEG_clean_sbu_1, # of connection points: 4
#     Node 22, Type 0, BuildingBlock: ICAMEG_clean_sbu_1, # of connection points: 4
#     Node 23, Type 0, BuildingBlock: ICAMEG_clean_sbu_1, # of connection points: 4
#     Edge 24, Type (0, 0), BuildingBlock: UVAHIK_clean_linker_0, # of connection points: 2
#     Edge 25, Type (0, 0), BuildingBlock: UVAHIK_clean_linker_0, # of connection points: 2
#     Edge 26, Type (0, 0), BuildingBlock: UVAHIK_clean_linker_0, # of connection points: 2
#     Edge 27, Type (0, 0), BuildingBlock: UVAHIK_clean_linker_0, # of connection points: 2
#     Edge 28, Type (0, 0), BuildingBlock: UVAHIK_clean_linker_0, # of connection points: 2
#     Edge 29, Type (0, 0), BuildingBlock: UVAHIK_clean_linker_0, # of connection points: 2
#     Edge 30, Type (0, 0), BuildingBlock: UVAHIK_clean_linker_0, # of connection points: 2
#     Edge 31, Type (0, 0), BuildingBlock: UVAHIK_clean_linker_0, # of connection points: 2
#     Edge 32, Type (0, 0), BuildingBlock: UVAHIK_clean_linker_0, # of connection points: 2
#     Edge 33, Type (0, 0), BuildingBlock: UVAHIK_clean_linker_0, # of connection points: 2
#     Edge 34, Type (0, 0), BuildingBlock: UVAHIK_clean_linker_0, # of connection points: 2
#     Edge 35, Type (0, 0), BuildingBlock: UVAHIK_clean_linker_0, # of connection points: 2
#     Edge 36, Type (0, 0), BuildingBlock: UVAHIK_clean_linker_0, # of connection points: 2
#     Edge 37, Type (0, 0), BuildingBlock: UVAHIK_clean_linker_0, # of connection points: 2
#     Edge 38, Type (0, 0), BuildingBlock: UVAHIK_clean_linker_0, # of connection points: 2
#     Edge 39, Type (0, 0), BuildingBlock: UVAHIK_clean_linker_0, # of connection points: 2
#     Edge 40, Type (0, 0), BuildingBlock: UVAHIK_clean_linker_0, # of connection points: 2
#     Edge 41, Type (0, 0), BuildingBlock: UVAHIK_clean_linker_0, # of connection points: 2
#     Edge 42, Type (0, 0), BuildingBlock: UVAHIK_clean_linker_0, # of connection points: 2
#     Edge 43, Type (0, 0), BuildingBlock: UVAHIK_clean_linker_0, # of connection points: 2
#     Edge 44, Type (0, 0), BuildingBlock: UVAHIK_clean_linker_0, # of connection points: 2
#     Edge 45, Type (0, 0), BuildingBlock: UVAHIK_clean_linker_0, # of connection points: 2
#     Edge 46, Type (0, 0), BuildingBlock: UVAHIK_clean_linker_0, # of connection points: 2
#     Edge 47, Type (0, 0), BuildingBlock: UVAHIK_clean_linker_0, # of connection points: 2
#     Edge 48, Type (0, 0), BuildingBlock: UVAHIK_clean_linker_0, # of connection points: 2
#     Edge 49, Type (0, 0), BuildingBlock: UVAHIK_clean_linker_0, # of connection points: 2
#     Edge 50, Type (0, 0), BuildingBlock: UVAHIK_clean_linker_0, # of connection points: 2
#     Edge 51, Type (0, 0), BuildingBlock: UVAHIK_clean_linker_0, # of connection points: 2
#     Edge 52, Type (0, 0), BuildingBlock: UVAHIK_clean_linker_0, # of connection points: 2
#     Edge 53, Type (0, 0), BuildingBlock: UVAHIK_clean_linker_0, # of connection points: 2
#     Edge 54, Type (0, 0), BuildingBlock: UVAHIK_clean_linker_0, # of connection points: 2
#     Edge 55, Type (0, 0), BuildingBlock: UVAHIK_clean_linker_0, # of connection points: 2
#     Edge 56, Type (0, 0), BuildingBlock: UVAHIK_clean_linker_0, # of connection points: 2
#     Edge 57, Type (0, 0), BuildingBlock: UVAHIK_clean_linker_0, # of connection points: 2
#     Edge 58, Type (0, 0), BuildingBlock: UVAHIK_clean_linker_0, # of connection points: 2
#     Edge 59, Type (0, 0), BuildingBlock: UVAHIK_clean_linker_0, # of connection points: 2
#     Edge 60, Type (0, 0), BuildingBlock: UVAHIK_clean_linker_0, # of connection points: 2
#     Edge 61, Type (0, 0), BuildingBlock: UVAHIK_clean_linker_0, # of connection points: 2
#     Edge 62, Type (0, 0), BuildingBlock: UVAHIK_clean_linker_0, # of connection points: 2
#     Edge 63, Type (0, 0), BuildingBlock: UVAHIK_clean_linker_0, # of connection points: 2
#     Edge 64, Type (0, 0), BuildingBlock: UVAHIK_clean_linker_0, # of connection points: 2
#     Edge 65, Type (0, 0), BuildingBlock: UVAHIK_clean_linker_0, # of connection points: 2
#     Edge 66, Type (0, 0), BuildingBlock: UVAHIK_clean_linker_0, # of connection points: 2
#     Edge 67, Type (0, 0), BuildingBlock: UVAHIK_clean_linker_0, # of connection points: 2
#     Edge 68, Type (0, 0), BuildingBlock: UVAHIK_clean_linker_0, # of connection points: 2
#     Edge 69, Type (0, 0), BuildingBlock: UVAHIK_clean_linker_0, # of connection points: 2
#     Edge 70, Type (0, 0), BuildingBlock: UVAHIK_clean_linker_0, # of connection points: 2
#     Edge 71, Type (0, 0), BuildingBlock: UVAHIK_clean_linker_0, # of connection points: 2
# Relax obj value: 0.062
# Max RMSD: 0.068
# Mean RMSD: 0.068
data_MOF--net-gme--node1-ICAMEG_clean_sbu_1--edge1-UVAHIK_clean_linker_0
_symmetry_space_group_name_H-M    P1
_symmetry_Int_Tables_number       1
_symmetry_cell_setting            triclinic
loop_
_symmetry_equiv_pos_as_xyz
'x, y, z'
_cell_length_a     74.811643
_cell_length_b     74.813175
_cell_length_c     77.306652
_cell_angle_alpha  90.002413
_cell_angle_beta   90.006048
_cell_angle_gamma 119.99899
loop_
_atom_site_label
_atom_site_type_symbol
_atom_site_fract_x
_atom_site_fract_y
_atom_site_fract_z
_atom_type_partial_charge
Co0 Co 0.4206 0.08732 0.12434 0.0
Co1 Co 0.38527 0.03511 0.12252 0.0
O2 O 0.39636 0.06356 0.11458 0.0
C3 C 0.38837 0.09919 0.12765 0.0
O4 O 0.37584 0.08086 0.13413 0.0
C5 C 0.39499 0.03495 0.08584 0.0
O6 O 0.41265 0.05153 0.08939 0.0
O7 O 0.41312 0.0377 0.12274 0.0
O8 O 0.4354 0.07151 0.12621 0.0
H9 H 0.38191 0.97863 0.15998 0.0
H10 H 0.40307 0.09211 0.09145 0.0
O11 O 0.40646 0.10388 0.12278 0.0
H12 H 0.47443 0.10996 0.07753 0.0
H13 H 0.47344 0.16287 0.12896 0.0
H14 H 0.44908 0.09355 0.15334 0.0
H15 H 0.46106 0.10025 0.10725 0.0
H16 H 0.44326 0.13239 0.11644 0.0
O17 O 0.38176 0.02576 0.09779 0.0
H18 H 0.39597 0.01458 0.15016 0.0
H19 H 0.35035 0.99476 0.11081 0.0
H20 H 0.47942 0.12358 0.16617 0.0
H21 H 0.41589 0.10194 0.06159 0.0
H22 H 0.49179 0.15855 0.15396 0.0
H23 H 0.45178 0.11087 0.05446 0.0
O24 O 0.40968 0.07871 0.14811 0.0
H25 H 0.32748 0.04245 0.09701 0.0
H26 H 0.3505 0.01931 0.14773 0.0
H27 H 0.31621 0.01648 0.14807 0.0
H28 H 0.30449 0.02807 0.12256 0.0
H29 H 0.36172 0.04516 0.09727 0.0
H30 H 0.3359 0.95856 0.1201 0.0
H31 H 0.35166 0.95033 0.1449 0.0
O32 O 0.38887 0.04422 0.14729 0.0
C33 C 0.43131 0.05286 0.12502 0.0
C34 C 0.37487 0.98203 0.1492 0.0
C35 C 0.34906 0.97076 0.1268 0.0
N36 N 0.37388 0.00676 0.13003 0.0
C37 C 0.38272 0.00236 0.14362 0.0
C38 C 0.35733 0.99127 0.12158 0.0
C39 C 0.35791 0.96616 0.14072 0.0
C40 C 0.41878 0.09621 0.08849 0.0
N41 N 0.43133 0.09571 0.10109 0.0
C42 C 0.42593 0.10167 0.07154 0.0
C43 C 0.44606 0.10664 0.06754 0.0
C44 C 0.45877 0.10612 0.08048 0.0
C45 C 0.45109 0.10056 0.09728 0.0
C46 C 0.46823 0.1477 0.13436 0.0
C47 C 0.45445 0.1087 0.14789 0.0
C48 C 0.45113 0.1304 0.12735 0.0
N49 N 0.44453 0.11119 0.13406 0.0
C50 C 0.4716 0.12565 0.15524 0.0
C51 C 0.47852 0.14527 0.14839 0.0
C52 C 0.39814 0.06138 0.15543 0.0
C53 C 0.33239 0.0373 0.10818 0.0
C54 C 0.34553 0.02443 0.1366 0.0
C55 C 0.32608 0.02275 0.13685 0.0
C56 C 0.31951 0.02925 0.12253 0.0
N57 N 0.35805 0.03229 0.12246 0.0
C58 C 0.35173 0.03872 0.10838 0.0
Co59 Co 0.3291 0.42103 0.62348 0.0
Co60 Co 0.34864 0.38788 0.62207 0.0
O61 O 0.33037 0.39767 0.61378 0.0
C62 C 0.28571 0.387 0.62585 0.0
O63 O 0.29233 0.37577 0.63357 0.0
C64 C 0.35891 0.39781 0.58547 0.0
O65 O 0.35918 0.41513 0.58884 0.0
O66 O 0.37292 0.41636 0.62241 0.0
O67 O 0.35969 0.43723 0.62605 0.0
H68 H 0.40289 0.38779 0.66033 0.0
H69 H 0.30839 0.40317 0.59005 0.0
O70 O 0.2984 0.40536 0.62103 0.0
H71 H 0.35944 0.47578 0.57734 0.0
H72 H 0.30208 0.47049 0.62741 0.0
H73 H 0.34949 0.44977 0.65277 0.0
H74 H 0.35544 0.46215 0.60699 0.0
H75 H 0.30464 0.44143 0.61508 0.0
O76 O 0.35518 0.38474 0.59749 0.0
H77 H 0.37974 0.40015 0.65004 0.0
H78 H 0.35639 0.35428 0.6108 0.0
H79 H 0.34753 0.479 0.66543 0.0
H80 H 0.31174 0.41622 0.56024 0.0
H81 H 0.32369 0.48954 0.65273 0.0
H82 H 0.33747 0.45275 0.55372 0.0
O83 O 0.32669 0.41004 0.64729 0.0
H84 H 0.28534 0.32811 0.59618 0.0
H85 H 0.33082 0.35307 0.64729 0.0
H86 H 0.30044 0.31801 0.64749 0.0
H87 H 0.27747 0.30531 0.62178 0.0
H88 H 0.31579 0.36312 0.59658 0.0
H89 H 0.37941 0.34153 0.62055 0.0
H90 H 0.40282 0.35827 0.64554 0.0
O91 O 0.34243 0.3911 0.64668 0.0
C92 C 0.37493 0.43413 0.62487 0.0
C93 C 0.39272 0.38032 0.64946 0.0
C94 C 0.37956 0.35438 0.62712 0.0
N95 N 0.36662 0.37783 0.62994 0.0
C96 C 0.37953 0.38721 0.64362 0.0
C97 C 0.36659 0.36169 0.62163 0.0
C98 C 0.39268 0.36377 0.64115 0.0
C99 C 0.31946 0.41914 0.58735 0.0
N100 N 0.33163 0.4319 0.60027 0.0
C101 C 0.32135 0.42643 0.57043 0.0
C102 C 0.33582 0.44691 0.56678 0.0
C103 C 0.34816 0.45984 0.58002 0.0
C104 C 0.34586 0.45202 0.59678 0.0
C105 C 0.31256 0.46608 0.63304 0.0
C106 C 0.33918 0.45435 0.6471 0.0
C107 C 0.31405 0.44962 0.62613 0.0
N108 N 0.32734 0.44404 0.63311 0.0
C109 C 0.33809 0.47087 0.65436 0.0
C110 C 0.32469 0.47676 0.64724 0.0
C111 C 0.33347 0.39936 0.65471 0.0
C112 C 0.29526 0.33344 0.60744 0.0
C113 C 0.32088 0.34767 0.63607 0.0
C114 C 0.30372 0.32779 0.63624 0.0
C115 C 0.29084 0.32067 0.62182 0.0
N116 N 0.32513 0.36008 0.6219 0.0
C117 C 0.31257 0.35322 0.60771 0.0
Co118 Co 0.91172 0.33297 0.12418 0.0
Co119 Co 0.96411 0.35086 0.12218 0.0
O120 O 0.93569 0.33287 0.11446 0.0
C121 C 0.90021 0.2889 0.12808 0.0
O122 O 0.91802 0.29468 0.1356 0.0
C123 C 0.96382 0.35999 0.08542 0.0
O124 O 0.94703 0.36069 0.08891 0.0
O125 O 0.96087 0.37576 0.12195 0.0
O126 O 0.92699 0.36361 0.12564 0.0
H127 H 0.02022 0.40545 0.15898 0.0
H128 H 0.9074 0.31043 0.09149 0.0
O129 O 0.89567 0.30225 0.12279 0.0
H130 H 0.88752 0.36233 0.07701 0.0
H131 H 0.83584 0.3087 0.12908 0.0
H132 H 0.90513 0.35546 0.15276 0.0
H133 H 0.89759 0.35939 0.10678 0.0
H134 H 0.86656 0.30947 0.11661 0.0
O135 O 0.97326 0.35637 0.09742 0.0
H136 H 0.98431 0.38276 0.14939 0.0
H137 H 0.00474 0.357 0.11051 0.0
H138 H 0.87483 0.35531 0.16553 0.0
H139 H 0.89721 0.31269 0.06158 0.0
H140 H 0.83988 0.3318 0.15368 0.0
H141 H 0.88727 0.33885 0.05417 0.0
O142 O 0.92063 0.33125 0.14801 0.0
H143 H 0.95797 0.28579 0.09772 0.0
H144 H 0.98085 0.33309 0.1477 0.0
H145 H 0.98447 0.30209 0.14854 0.0
H146 H 0.97302 0.27821 0.1234 0.0
H147 H 0.95448 0.31688 0.09748 0.0
H148 H 0.0409 0.37953 0.11957 0.0
H149 H 0.04881 0.40392 0.14402 0.0
O150 O 0.95521 0.34569 0.14694 0.0
C151 C 0.94547 0.37843 0.12411 0.0
C152 C 0.01697 0.39484 0.14835 0.0
C153 C 0.02858 0.38032 0.12621 0.0
N154 N 0.99245 0.36847 0.12951 0.0
C155 C 0.99666 0.38192 0.1429 0.0
C156 C 0.00809 0.36763 0.12111 0.0
C157 C 0.033 0.39399 0.13994 0.0
C158 C 0.90287 0.3217 0.08841 0.0
N159 N 0.90303 0.33472 0.10089 0.0
C160 C 0.8972 0.32297 0.07143 0.0
C161 C 0.89166 0.33768 0.06727 0.0
C162 C 0.89182 0.35087 0.08008 0.0
C163 C 0.8976 0.34917 0.09691 0.0
C164 C 0.85099 0.31904 0.13433 0.0
C165 C 0.88998 0.34528 0.14746 0.0
C166 C 0.86844 0.31952 0.12735 0.0
N167 N 0.88763 0.33263 0.13386 0.0
C168 C 0.87288 0.34522 0.15478 0.0
C169 C 0.85327 0.33201 0.14813 0.0
C170 C 0.93814 0.33757 0.15521 0.0
C171 C 0.96307 0.29611 0.10873 0.0
C172 C 0.97578 0.32274 0.13673 0.0
C173 C 0.97791 0.30524 0.13726 0.0
C174 C 0.97149 0.29185 0.12315 0.0
N175 N 0.96756 0.32684 0.12251 0.0
C176 C 0.9612 0.31378 0.10864 0.0
Co177 Co 0.57989 0.90867 0.62331 0.0
Co178 Co 0.61284 0.96141 0.62233 0.0
O179 O 0.60318 0.93348 0.61376 0.0
C180 C 0.61403 0.89946 0.62542 0.0
O181 O 0.6252 0.91724 0.63328 0.0
C182 C 0.60295 0.96222 0.58577 0.0
O183 O 0.58568 0.94506 0.58899 0.0
O184 O 0.58431 0.95706 0.62275 0.0
O185 O 0.56357 0.92291 0.62613 0.0
H186 H 0.61258 0.01509 0.66122 0.0
H187 H 0.59781 0.90634 0.58974 0.0
O188 O 0.59568 0.89379 0.6206 0.0
H189 H 0.52512 0.88464 0.57719 0.0
H190 H 0.53069 0.83209 0.62662 0.0
H191 H 0.55114 0.89983 0.65266 0.0
H192 H 0.53874 0.89393 0.60688 0.0
H193 H 0.55966 0.86393 0.61449 0.0
O194 O 0.61598 0.97142 0.59785 0.0
H195 H 0.6004 0.97975 0.65058 0.0
H196 H 0.64633 0.00298 0.61139 0.0
H197 H 0.52199 0.8684 0.66513 0.0
H198 H 0.58477 0.89699 0.55989 0.0
H199 H 0.5116 0.83423 0.65208 0.0
H200 H 0.5482 0.88613 0.55345 0.0
O201 O 0.59087 0.91697 0.64715 0.0
H202 H 0.67283 0.95857 0.5961 0.0
H203 H 0.64764 0.97822 0.64758 0.0
H204 H 0.68277 0.98308 0.64765 0.0
H205 H 0.69558 0.97326 0.62176 0.0
H206 H 0.63774 0.95382 0.59663 0.0
H207 H 0.65891 0.03859 0.6215 0.0
H208 H 0.64204 0.04481 0.64664 0.0
O209 O 0.60966 0.95168 0.64684 0.0
C210 C 0.56658 0.94122 0.62513 0.0
C211 C 0.6201 0.01258 0.65029 0.0
C212 C 0.64608 0.02577 0.62798 0.0
N213 N 0.62276 0.98931 0.63048 0.0
C214 C 0.61331 0.9926 0.64424 0.0
C215 C 0.63887 0.00558 0.62229 0.0
C216 C 0.63662 0.02924 0.64209 0.0
C217 C 0.58181 0.9014 0.58708 0.0
N218 N 0.56903 0.90059 0.60006 0.0
C219 C 0.57454 0.89621 0.57014 0.0
C220 C 0.55403 0.89016 0.56653 0.0
C221 C 0.54108 0.88934 0.57984 0.0
C222 C 0.54889 0.89466 0.59662 0.0
C223 C 0.53505 0.8469 0.63239 0.0
C224 C 0.54662 0.88502 0.64685 0.0
C225 C 0.55145 0.86497 0.6256 0.0
N226 N 0.55695 0.88373 0.63277 0.0
C227 C 0.53014 0.86728 0.65399 0.0
C228 C 0.52433 0.84811 0.64668 0.0
C229 C 0.60149 0.93434 0.65471 0.0
C230 C 0.66744 0.96297 0.60743 0.0
C231 C 0.65309 0.97386 0.63628 0.0
C232 C 0.67301 0.97669 0.63638 0.0
C233 C 0.68019 0.97118 0.62185 0.0
N234 N 0.6407 0.96585 0.62207 0.0
C235 C 0.64762 0.96039 0.60779 0.0
Co236 Co 0.6708 0.58005 0.12501 0.0
Co237 Co 0.65311 0.61475 0.12201 0.0
O238 O 0.67161 0.60449 0.11524 0.0
C239 C 0.7141 0.61324 0.13101 0.0
O240 O 0.70737 0.62589 0.13506 0.0
C241 C 0.646 0.60575 0.08492 0.0
O242 O 0.64587 0.58854 0.08845 0.0
O243 O 0.62827 0.58657 0.12124 0.0
O244 O 0.64015 0.56453 0.12419 0.0
H245 H 0.59672 0.61577 0.15652 0.0
H246 H 0.69666 0.60004 0.09418 0.0
O247 O 0.70156 0.59483 0.12624 0.0
H248 H 0.64677 0.52907 0.07584 0.0
H249 H 0.69469 0.52833 0.13178 0.0
H250 H 0.64557 0.54962 0.15194 0.0
H251 H 0.64652 0.54042 0.10574 0.0
H252 H 0.69505 0.55881 0.1192 0.0
O253 O 0.64863 0.61846 0.09698 0.0
H254 H 0.61998 0.60278 0.1481 0.0
H255 H 0.64731 0.64918 0.10951 0.0
H256 H 0.64456 0.51893 0.16478 0.0
H257 H 0.69758 0.58928 0.06418 0.0
H258 H 0.66926 0.50812 0.1547 0.0
H259 H 0.67244 0.55359 0.05482 0.0
O260 O 0.67005 0.58949 0.14886 0.0
H261 H 0.71893 0.67409 0.09904 0.0
H262 H 0.66967 0.64911 0.14766 0.0
H263 H 0.70048 0.68382 0.14912 0.0
H264 H 0.72535 0.69653 0.12467 0.0
H265 H 0.68801 0.63941 0.09819 0.0
H266 H 0.62423 0.66258 0.11741 0.0
H267 H 0.59877 0.64588 0.14112 0.0
O268 O 0.6572 0.61095 0.14703 0.0
C269 C 0.62546 0.56836 0.1226 0.0
C270 C 0.6078 0.62322 0.14621 0.0
C271 C 0.62322 0.64947 0.12424 0.0
N272 N 0.63508 0.62532 0.12843 0.0
C273 C 0.62104 0.61597 0.14142 0.0
C274 C 0.63621 0.6418 0.1198 0.0
C275 C 0.60894 0.6401 0.13755 0.0
C276 C 0.68583 0.58442 0.09025 0.0
N277 N 0.67161 0.57086 0.10171 0.0
C278 C 0.68636 0.57844 0.07323 0.0
C279 C 0.67223 0.55842 0.06798 0.0
C280 C 0.65781 0.54466 0.07976 0.0
C281 C 0.65771 0.55119 0.09667 0.0
C282 C 0.68383 0.53286 0.13626 0.0
C283 C 0.65628 0.54492 0.14741 0.0
C284 C 0.68398 0.55013 0.12921 0.0
N285 N 0.67024 0.55588 0.13474 0.0
C286 C 0.65567 0.52757 0.15477 0.0
C287 C 0.66955 0.52153 0.14912 0.0
C288 C 0.66408 0.60114 0.1557 0.0
C289 C 0.70818 0.66875 0.10975 0.0
C290 C 0.68045 0.65451 0.137 0.0
C291 C 0.69784 0.6742 0.13788 0.0
C292 C 0.71178 0.68132 0.12415 0.0
N293 N 0.67701 0.64229 0.12282 0.0
C294 C 0.6906 0.64916 0.10931 0.0
Co295 Co 0.09122 0.6706 0.62445 0.0
Co296 Co 0.03856 0.65126 0.62311 0.0
O297 O 0.0666 0.66929 0.61466 0.0
C298 C 0.1007 0.71403 0.62631 0.0
O299 O 0.08286 0.70754 0.63401 0.0
C300 C 0.03784 0.64036 0.58661 0.0
O301 O 0.05492 0.64013 0.58991 0.0
O302 O 0.04264 0.62691 0.62372 0.0
O303 O 0.07672 0.64004 0.62734 0.0
H304 H 0.98433 0.59775 0.66191 0.0
H305 H 0.09401 0.69082 0.59077 0.0
O306 O 0.10633 0.70126 0.62168 0.0
H307 H 0.11518 0.63933 0.57875 0.0
H308 H 0.16766 0.69738 0.62828 0.0
H309 H 0.09959 0.65057 0.654 0.0
H310 H 0.10575 0.64386 0.60833 0.0
H311 H 0.13605 0.69478 0.61589 0.0
O312 O 0.02869 0.64435 0.59861 0.0
H313 H 0.0198 0.62062 0.65141 0.0
H314 H 0.9972 0.64353 0.61187 0.0
H315 H 0.13078 0.65258 0.66672 0.0
H316 H 0.1035 0.68692 0.56103 0.0
H317 H 0.16513 0.67612 0.65384 0.0
H318 H 0.1141 0.66096 0.55486 0.0
O319 O 0.08281 0.67344 0.64821 0.0
H320 H 0.04228 0.7143 0.59646 0.0
H321 H 0.02181 0.6696 0.64806 0.0
H322 H 0.01731 0.70008 0.64788 0.0
H323 H 0.02755 0.72266 0.62193 0.0
H324 H 0.04666 0.68374 0.59725 0.0
H325 H 0.96146 0.62079 0.62184 0.0
H326 H 0.95487 0.59775 0.64708 0.0
O327 O 0.04813 0.65783 0.64763 0.0
C328 C 0.05835 0.62485 0.62625 0.0
C329 C 0.98701 0.60777 0.65093 0.0
C330 C 0.97417 0.62068 0.62843 0.0
N331 N 0.01056 0.6335 0.63114 0.0
C332 C 0.00706 0.62079 0.64496 0.0
C333 C 0.99443 0.63349 0.62282 0.0
C334 C 0.97048 0.60776 0.64259 0.0
C335 C 0.09883 0.67966 0.58822 0.0
N336 N 0.09942 0.66766 0.60129 0.0
C337 C 0.1041 0.67746 0.57134 0.0
C338 C 0.11001 0.66286 0.56788 0.0
C339 C 0.1106 0.6507 0.58128 0.0
C340 C 0.1052 0.65331 0.598 0.0
C341 C 0.15278 0.68703 0.63398 0.0
C342 C 0.11447 0.66075 0.64825 0.0
C343 C 0.13484 0.68552 0.62704 0.0
N344 N 0.11599 0.67239 0.63412 0.0
C345 C 0.13208 0.66187 0.65555 0.0
C346 C 0.15135 0.67509 0.64832 0.0
C347 C 0.06538 0.66686 0.65562 0.0
C348 C 0.03771 0.70455 0.60783 0.0
C349 C 0.02635 0.67937 0.63674 0.0
C350 C 0.02373 0.69659 0.6367 0.0
C351 C 0.02947 0.70924 0.62213 0.0
N352 N 0.0344 0.67484 0.62264 0.0
C353 C 0.04008 0.68719 0.60832 0.0
Co354 Co 0.90986 0.5793 0.37228 0.0
Co355 Co 0.96236 0.61355 0.37532 0.0
O356 O 0.93366 0.60348 0.3822 0.0
C357 C 0.90004 0.6128 0.36683 0.0
O358 O 0.91943 0.62544 0.36281 0.0
C359 C 0.96063 0.60413 0.4123 0.0
O360 O 0.94341 0.58705 0.40878 0.0
O361 O 0.95872 0.58524 0.37578 0.0
O362 O 0.92474 0.56352 0.37275 0.0
H363 H 0.01931 0.61429 0.34031 0.0
H364 H 0.90433 0.59904 0.40344 0.0
O365 O 0.89409 0.59432 0.37141 0.0
H366 H 0.88266 0.52767 0.42098 0.0
H367 H 0.83409 0.52817 0.36548 0.0
H368 H 0.90429 0.54915 0.34496 0.0
H369 H 0.89422 0.53936 0.39113 0.0
H370 H 0.8644 0.55831 0.37823 0.0
O371 O 0.97067 0.61693 0.40029 0.0
H372 H 0.98315 0.60155 0.34891 0.0
H373 H 0.00281 0.64761 0.38786 0.0
H374 H 0.87442 0.51879 0.33194 0.0
H375 H 0.89271 0.58795 0.4334 0.0
H376 H 0.83901 0.50814 0.34221 0.0
H377 H 0.88185 0.55205 0.44235 0.0
O378 O 0.92003 0.58901 0.34847 0.0
H379 H 0.95665 0.67303 0.39907 0.0
H380 H 0.98037 0.6482 0.34993 0.0
H381 H 0.98463 0.68308 0.34887 0.0
H382 H 0.97275 0.69571 0.37358 0.0
H383 H 0.95253 0.63819 0.39953 0.0
H384 H 0.03919 0.66076 0.37979 0.0
H385 H 0.04762 0.64411 0.3558 0.0
O386 O 0.9544 0.61011 0.35034 0.0
C387 C 0.9432 0.56713 0.37428 0.0
C388 C 0.01583 0.62172 0.35074 0.0
C389 C 0.02699 0.64778 0.37292 0.0
N390 N 0.99089 0.62393 0.36877 0.0
C391 C 0.99539 0.61461 0.35563 0.0
C392 C 0.00637 0.64024 0.37745 0.0
C393 C 0.03171 0.63843 0.35945 0.0
C394 C 0.89942 0.58333 0.4072 0.0
N395 N 0.89988 0.56985 0.39554 0.0
C396 C 0.89293 0.57717 0.4242 0.0
C397 C 0.88688 0.55703 0.42922 0.0
C398 C 0.88735 0.54335 0.41724 0.0
C399 C 0.89395 0.55007 0.40036 0.0
C400 C 0.84944 0.53264 0.36092 0.0
C401 C 0.88893 0.54452 0.34956 0.0
C402 C 0.86666 0.54971 0.36806 0.0
N403 N 0.8861 0.55539 0.36242 0.0
C404 C 0.87208 0.52736 0.34211 0.0
C405 C 0.85221 0.5214 0.34787 0.0
C406 C 0.93768 0.60059 0.34166 0.0
C407 C 0.96194 0.66772 0.38825 0.0
C408 C 0.97511 0.65357 0.36071 0.0
C409 C 0.9776 0.67334 0.36006 0.0
C410 C 0.97095 0.68043 0.37393 0.0
N411 N 0.96629 0.64121 0.37481 0.0
C412 C 0.95972 0.64804 0.38846 0.0
Co413 Co 0.32832 0.90927 0.87232 0.0
Co414 Co 0.34759 0.96193 0.87363 0.0
O415 O 0.3295 0.93386 0.88199 0.0
C416 C 0.28496 0.8999 0.86994 0.0
O417 O 0.29162 0.91779 0.86226 0.0
C418 C 0.35824 0.96217 0.91011 0.0
O419 O 0.35857 0.94521 0.90651 0.0
O420 O 0.37194 0.95786 0.87301 0.0
O421 O 0.35892 0.92375 0.86973 0.0
H422 H 0.40125 0.01638 0.83507 0.0
H423 H 0.30758 0.90636 0.90575 0.0
O424 O 0.29761 0.8942 0.87477 0.0
H425 H 0.35881 0.88504 0.91849 0.0
H426 H 0.30148 0.83282 0.86846 0.0
H427 H 0.34873 0.90095 0.84305 0.0
H428 H 0.35479 0.89466 0.88883 0.0
H429 H 0.30396 0.86442 0.88076 0.0
O430 O 0.35439 0.9716 0.89824 0.0
H431 H 0.37833 0.98085 0.84541 0.0
H432 H 0.35533 0.00322 0.88506 0.0
H433 H 0.34685 0.86978 0.83042 0.0
H434 H 0.31094 0.89665 0.93555 0.0
H435 H 0.3231 0.83541 0.84315 0.0
H436 H 0.33677 0.88598 0.94209 0.0
O437 O 0.32584 0.91779 0.84853 0.0
H438 H 0.28449 0.95819 0.90017 0.0
H439 H 0.32936 0.97875 0.84867 0.0
H440 H 0.29889 0.9833 0.84881 0.0
H441 H 0.27624 0.97301 0.87471 0.0
H442 H 0.31503 0.95377 0.89943 0.0
H443 H 0.37813 0.03902 0.87525 0.0
H444 H 0.40123 0.04576 0.85004 0.0
O445 O 0.34111 0.95245 0.84902 0.0
C446 C 0.37407 0.94215 0.87067 0.0
C447 C 0.3912 0.01364 0.84604 0.0
C448 C 0.37824 0.02634 0.8686 0.0
N449 N 0.3654 0.98997 0.86572 0.0
C450 C 0.37815 0.99355 0.85191 0.0
C451 C 0.3654 0.00605 0.87412 0.0
C452 C 0.3912 0.03011 0.85445 0.0
C453 C 0.31868 0.9015 0.90845 0.0
N454 N 0.33089 0.90098 0.89554 0.0
C455 C 0.32058 0.89611 0.92537 0.0
C456 C 0.3351 0.89016 0.92903 0.0
C457 C 0.34749 0.88965 0.9158 0.0
C458 C 0.34517 0.89516 0.89903 0.0
C459 C 0.31193 0.84772 0.86283 0.0
C460 C 0.33846 0.88606 0.84872 0.0
C461 C 0.31337 0.86565 0.86972 0.0
N462 N 0.32662 0.88452 0.86272 0.0
C463 C 0.33741 0.86846 0.84149 0.0
C464 C 0.32407 0.84918 0.84863 0.0
C465 C 0.33229 0.93516 0.84106 0.0
C466 C 0.29428 0.96279 0.88883 0.0
C467 C 0.31955 0.9742 0.85998 0.0
C468 C 0.30234 0.97685 0.85999 0.0
C469 C 0.28964 0.97108 0.87453 0.0
N470 N 0.32402 0.96611 0.87407 0.0
C471 C 0.31163 0.9604 0.88836 0.0
Co472 Co 0.41901 0.32787 0.37275 0.0
Co473 Co 0.38637 0.34804 0.37427 0.0
O474 O 0.39542 0.329 0.38212 0.0
C475 C 0.38477 0.28478 0.36823 0.0
O476 O 0.3741 0.29192 0.36032 0.0
C477 C 0.39517 0.35656 0.41123 0.0
O478 O 0.41225 0.35627 0.40809 0.0
O479 O 0.41503 0.37201 0.37492 0.0
O480 O 0.43573 0.35856 0.37162 0.0
H481 H 0.38863 0.40453 0.33753 0.0
H482 H 0.39927 0.30532 0.40511 0.0
O483 O 0.40285 0.29708 0.37387 0.0
H484 H 0.4715 0.3544 0.42082 0.0
H485 H 0.46768 0.29991 0.3686 0.0
H486 H 0.44931 0.34977 0.34477 0.0
H487 H 0.45942 0.35248 0.39083 0.0
H488 H 0.43835 0.30226 0.38055 0.0
O489 O 0.38259 0.35365 0.39898 0.0
H490 H 0.40005 0.38043 0.34728 0.0
H491 H 0.35289 0.35603 0.38543 0.0
H492 H 0.47885 0.34804 0.33252 0.0
H493 H 0.41076 0.30659 0.43521 0.0
H494 H 0.48821 0.32297 0.34445 0.0
H495 H 0.44709 0.33133 0.44325 0.0
O496 O 0.40924 0.32712 0.3487 0.0
H497 H 0.32513 0.28419 0.39785 0.0
H498 H 0.35239 0.33191 0.34827 0.0
H499 H 0.31711 0.30197 0.34691 0.0
H500 H 0.30325 0.27788 0.37185 0.0
H501 H 0.36039 0.31424 0.3986 0.0
H502 H 0.34106 0.37998 0.37619 0.0
H503 H 0.35893 0.40439 0.35203 0.0
O504 O 0.39025 0.34281 0.34957 0.0
C505 C 0.43282 0.37388 0.37308 0.0
C506 C 0.38067 0.39392 0.34803 0.0
C507 C 0.35399 0.38016 0.36975 0.0
N508 N 0.37703 0.36674 0.3668 0.0
C509 C 0.38703 0.3802 0.35358 0.0
C510 C 0.36078 0.36667 0.37495 0.0
C511 C 0.36402 0.39385 0.35619 0.0
C512 C 0.41516 0.31596 0.40846 0.0
N513 N 0.42867 0.32875 0.39621 0.0
C514 C 0.42155 0.31667 0.42555 0.0
C515 C 0.44193 0.33059 0.43005 0.0
C516 C 0.45563 0.34355 0.41748 0.0
C517 C 0.44869 0.34243 0.40052 0.0
C518 C 0.46378 0.31093 0.36331 0.0
C519 C 0.45337 0.33891 0.3501 0.0
C520 C 0.44717 0.3123 0.37 0.0
N521 N 0.44224 0.32626 0.36345 0.0
C522 C 0.47007 0.33796 0.34308 0.0
C523 C 0.4753 0.32388 0.34977 0.0
C524 C 0.39883 0.33426 0.34138 0.0
C525 C 0.33098 0.2946 0.38692 0.0
C526 C 0.34649 0.32147 0.35915 0.0
C527 C 0.32648 0.30456 0.35832 0.0
C528 C 0.31872 0.29106 0.37232 0.0
N529 N 0.35839 0.32487 0.37353 0.0
C530 C 0.3509 0.31168 0.3873 0.0
Co531 Co 0.09069 0.42019 0.87156 0.0
Co532 Co 0.03797 0.38707 0.8737 0.0
O533 O 0.06628 0.39658 0.88133 0.0
C534 C 0.09981 0.38608 0.86747 0.0
O535 O 0.08092 0.37425 0.86176 0.0
C536 C 0.03878 0.39676 0.9105 0.0
O537 O 0.05606 0.41382 0.90709 0.0
O538 O 0.0423 0.41564 0.87378 0.0
O539 O 0.07641 0.43654 0.87057 0.0
H540 H 0.98283 0.38758 0.83694 0.0
H541 H 0.09454 0.40105 0.90385 0.0
O542 O 0.1058 0.40452 0.87227 0.0
H543 H 0.11694 0.47321 0.91923 0.0
H544 H 0.16702 0.46986 0.86633 0.0
H545 H 0.09805 0.44977 0.84322 0.0
H546 H 0.10633 0.46075 0.88938 0.0
H547 H 0.13584 0.44047 0.87886 0.0
O548 O 0.02895 0.38391 0.89846 0.0
H549 H 0.01857 0.39963 0.84644 0.0
H550 H 0.99681 0.35365 0.88557 0.0
H551 H 0.1288 0.47937 0.8304 0.0
H552 H 0.10521 0.41291 0.93383 0.0
H553 H 0.16359 0.48958 0.84197 0.0
H554 H 0.11643 0.44921 0.94169 0.0
O555 O 0.08129 0.40996 0.84771 0.0
H556 H 0.04152 0.32685 0.89855 0.0
H557 H 0.02004 0.35234 0.84838 0.0
H558 H 0.01502 0.31716 0.84775 0.0
H559 H 0.02577 0.30419 0.87298 0.0
H560 H 0.04641 0.362 0.89857 0.0
H561 H 0.96082 0.3412 0.8766 0.0
H562 H 0.95367 0.35816 0.85207 0.0
O563 O 0.04669 0.39026 0.84892 0.0
C564 C 0.05813 0.43349 0.87189 0.0
C565 C 0.98575 0.38002 0.84761 0.0
C566 C 0.9734 0.35401 0.86989 0.0
N567 N 0.00976 0.37725 0.86645 0.0
C568 C 0.00595 0.38674 0.85301 0.0
C569 C 0.9938 0.36115 0.87493 0.0
C570 C 0.9694 0.36353 0.85612 0.0
C571 C 0.09963 0.41693 0.90713 0.0
N572 N 0.09989 0.43021 0.89487 0.0
C573 C 0.10556 0.42353 0.92414 0.0
C574 C 0.11182 0.44389 0.92855 0.0
C575 C 0.1121 0.45736 0.91596 0.0
C576 C 0.10602 0.4502 0.89909 0.0
C577 C 0.15194 0.46558 0.8612 0.0
C578 C 0.11313 0.4542 0.84839 0.0
C579 C 0.13424 0.44893 0.86821 0.0
N580 N 0.11514 0.44351 0.86185 0.0
C581 C 0.13049 0.47094 0.84104 0.0
C582 C 0.15001 0.47665 0.84753 0.0
C583 C 0.06371 0.39895 0.84059 0.0
C584 C 0.03672 0.3323 0.8875 0.0
C585 C 0.02481 0.34683 0.85939 0.0
C586 C 0.02189 0.32688 0.85897 0.0
C587 C 0.02791 0.31961 0.87314 0.0
N588 N 0.03342 0.35917 0.87353 0.0
C589 C 0.03938 0.35216 0.88746 0.0
Co590 Co 0.67058 0.09108 0.37208 0.0
Co591 Co 0.65096 0.03836 0.37447 0.0
O592 O 0.66996 0.06674 0.38184 0.0
C593 C 0.71384 0.10037 0.36742 0.0
O594 O 0.70682 0.08149 0.3617 0.0
C595 C 0.64281 0.0395 0.41142 0.0
O596 O 0.64305 0.05679 0.408 0.0
O597 O 0.62674 0.04272 0.37494 0.0
O598 O 0.63993 0.07679 0.37148 0.0
H599 H 0.59446 0.98291 0.33856 0.0
H600 H 0.69415 0.0952 0.40406 0.0
O601 O 0.70138 0.10625 0.37241 0.0
H602 H 0.64469 0.11774 0.4201 0.0
H603 H 0.69704 0.16734 0.36655 0.0
H604 H 0.64784 0.09816 0.344 0.0
H605 H 0.64599 0.10688 0.39023 0.0
H606 H 0.69551 0.13629 0.3791 0.0
O607 O 0.64561 0.02957 0.39933 0.0
H608 H 0.61837 0.01872 0.34772 0.0
H609 H 0.64345 0.99731 0.38641 0.0
H610 H 0.64873 0.12879 0.33117 0.0
H611 H 0.69351 0.10613 0.43405 0.0
H612 H 0.67347 0.16369 0.34245 0.0
H613 H 0.66858 0.11742 0.44225 0.0
O614 O 0.67096 0.08145 0.34822 0.0
H615 H 0.71521 0.04203 0.3983 0.0
H616 H 0.66718 0.02019 0.34885 0.0
H617 H 0.6973 0.01513 0.34773 0.0
H618 H 0.72155 0.02605 0.3726 0.0
H619 H 0.68498 0.04697 0.39882 0.0
H620 H 0.61968 0.96124 0.37777 0.0
H621 H 0.59502 0.95387 0.35364 0.0
O622 O 0.65593 0.04684 0.34959 0.0
C623 C 0.6247 0.05854 0.37304 0.0
C624 C 0.60518 0.98592 0.34906 0.0
C625 C 0.61932 0.97376 0.37108 0.0
N626 N 0.63239 0.01008 0.36748 0.0
C627 C 0.61879 0.00617 0.35426 0.0
C628 C 0.6327 0.9942 0.37594 0.0
C629 C 0.60549 0.96964 0.35753 0.0
C630 C 0.68342 0.10031 0.40749 0.0
N631 N 0.67019 0.10048 0.39539 0.0
C632 C 0.68307 0.1064 0.42451 0.0
C633 C 0.66905 0.11269 0.4291 0.0
C634 C 0.65563 0.11286 0.41669 0.0
C635 C 0.6564 0.10665 0.3998 0.0
C636 C 0.68617 0.15222 0.36154 0.0
C637 C 0.65857 0.11329 0.34905 0.0
C638 C 0.68527 0.13459 0.36856 0.0
N639 N 0.6715 0.11543 0.36236 0.0
C640 C 0.65904 0.13058 0.3417 0.0
C641 C 0.67294 0.15016 0.34803 0.0
C642 C 0.66414 0.06379 0.34116 0.0
C643 C 0.70472 0.03716 0.3874 0.0
C644 C 0.67769 0.02504 0.3597 0.0
C645 C 0.6947 0.02209 0.35901 0.0
C646 C 0.70829 0.02821 0.37297 0.0
N647 N 0.67428 0.03378 0.37392 0.0
C648 C 0.68754 0.03984 0.38765 0.0
Co649 Co 0.57975 0.66803 0.87312 0.0
Co650 Co 0.61322 0.64886 0.87316 0.0
O651 O 0.60364 0.66712 0.88195 0.0
C652 C 0.61284 0.71195 0.86964 0.0
O653 O 0.62383 0.70616 0.86047 0.0
C654 C 0.6045 0.63884 0.90987 0.0
O655 O 0.58699 0.63829 0.90679 0.0
O656 O 0.5848 0.62442 0.87348 0.0
O657 O 0.56368 0.63745 0.87079 0.0
H658 H 0.6123 0.59456 0.83432 0.0
H659 H 0.5989 0.689 0.90617 0.0
O660 O 0.5952 0.6987 0.87549 0.0
H661 H 0.5269 0.63786 0.92077 0.0
H662 H 0.52964 0.69438 0.87119 0.0
H663 H 0.5499 0.6472 0.84462 0.0
H664 H 0.53934 0.64167 0.89071 0.0
H665 H 0.55934 0.69223 0.88251 0.0
O666 O 0.61729 0.64257 0.89761 0.0
H667 H 0.60014 0.61764 0.84521 0.0
H668 H 0.64731 0.64136 0.88337 0.0
H669 H 0.51999 0.64875 0.83298 0.0
H670 H 0.58702 0.68588 0.93636 0.0
H671 H 0.50969 0.67247 0.8463 0.0
H672 H 0.55081 0.66009 0.94383 0.0
O673 O 0.58983 0.67038 0.849 0.0
H674 H 0.67375 0.71252 0.89782 0.0
H675 H 0.64708 0.66661 0.84706 0.0
H676 H 0.68206 0.69706 0.84609 0.0
H677 H 0.69562 0.72025 0.87161 0.0
H678 H 0.6388 0.68198 0.89819 0.0
H679 H 0.65987 0.61841 0.87299 0.0
H680 H 0.64237 0.59486 0.84824 0.0
O681 O 0.60905 0.6549 0.84873 0.0
C682 C 0.5669 0.62228 0.8717 0.0
C683 C 0.62009 0.6048 0.84507 0.0
C684 C 0.64678 0.61817 0.86679 0.0
N685 N 0.62312 0.63094 0.86481 0.0
C686 C 0.61332 0.61794 0.85126 0.0
C687 C 0.63957 0.63109 0.87263 0.0
C688 C 0.63696 0.60496 0.8529 0.0
C689 C 0.58305 0.67791 0.90929 0.0
N690 N 0.56981 0.66559 0.89667 0.0
C691 C 0.57644 0.67615 0.92641 0.0
C692 C 0.55613 0.66165 0.9306 0.0
C693 C 0.54271 0.64916 0.91767 0.0
C694 C 0.54986 0.65134 0.90068 0.0
C695 C 0.53395 0.68395 0.86531 0.0
C696 C 0.54542 0.65747 0.85055 0.0
C697 C 0.55077 0.68269 0.87164 0.0
N698 N 0.55622 0.66947 0.86432 0.0
C699 C 0.52852 0.65832 0.84387 0.0
C700 C 0.52276 0.67165 0.85134 0.0
C701 C 0.60039 0.66377 0.84113 0.0
C702 C 0.66804 0.7025 0.88663 0.0
C703 C 0.65285 0.67665 0.8582 0.0
C704 C 0.67269 0.69385 0.85759 0.0
C705 C 0.68029 0.70684 0.87192 0.0
N706 N 0.64096 0.67246 0.8727 0.0
C707 C 0.64829 0.68515 0.88679 0.0
Co708 Co 0.57899 0.91104 0.87209 0.0
Co709 Co 0.61234 0.96368 0.8728 0.0
O710 O 0.60244 0.93576 0.88152 0.0
C711 C 0.6123 0.90047 0.86982 0.0
O712 O 0.62357 0.91745 0.86095 0.0
C713 C 0.60235 0.96463 0.90927 0.0
O714 O 0.58492 0.94771 0.90587 0.0
O715 O 0.58392 0.95965 0.87227 0.0
O716 O 0.563 0.92554 0.86893 0.0
H717 H 0.61283 0.01745 0.83356 0.0
H718 H 0.59659 0.90875 0.90584 0.0
O719 O 0.5944 0.89586 0.87517 0.0
H720 H 0.52405 0.88799 0.91797 0.0
H721 H 0.52909 0.83459 0.86922 0.0
H722 H 0.55047 0.90223 0.84255 0.0
H723 H 0.53786 0.89697 0.88831 0.0
H724 H 0.55822 0.86636 0.88125 0.0
O725 O 0.61552 0.97379 0.89728 0.0
H726 H 0.60029 0.98211 0.84435 0.0
H727 H 0.64603 0.00516 0.8837 0.0
H728 H 0.52116 0.87086 0.83017 0.0
H729 H 0.58334 0.89966 0.93565 0.0
H730 H 0.51029 0.83673 0.84353 0.0
H731 H 0.54685 0.88927 0.94188 0.0
O732 O 0.59012 0.91904 0.84828 0.0
H733 H 0.67196 0.96034 0.89928 0.0
H734 H 0.64715 0.98007 0.84761 0.0
H735 H 0.68216 0.98463 0.84765 0.0
H736 H 0.69479 0.97477 0.87364 0.0
H737 H 0.63699 0.95589 0.89864 0.0
H738 H 0.65898 0.04078 0.87343 0.0
H739 H 0.64239 0.04708 0.84814 0.0
O740 O 0.60909 0.95375 0.84832 0.0
C741 C 0.56614 0.9439 0.86984 0.0
C742 C 0.62023 0.0149 0.84455 0.0
C743 C 0.64611 0.02799 0.86695 0.0
N744 N 0.62253 0.99158 0.86454 0.0
C745 C 0.61324 0.99492 0.85069 0.0
C746 C 0.63869 0.0078 0.87273 0.0
C747 C 0.6368 0.03152 0.85275 0.0
C748 C 0.58063 0.90401 0.90841 0.0
N749 N 0.56799 0.9033 0.89533 0.0
C750 C 0.57323 0.89896 0.92533 0.0
C751 C 0.55277 0.89318 0.92882 0.0
C752 C 0.53997 0.89247 0.91541 0.0
C753 C 0.5479 0.89763 0.89865 0.0
C754 C 0.53364 0.84937 0.86331 0.0
C755 C 0.54574 0.88744 0.8485 0.0
C756 C 0.55014 0.86741 0.87005 0.0
N757 N 0.5559 0.88615 0.86271 0.0
C758 C 0.52918 0.86973 0.84141 0.0
C759 C 0.5231 0.85059 0.8489 0.0
C760 C 0.60084 0.9363 0.8406 0.0
C761 C 0.66665 0.96475 0.8879 0.0
C762 C 0.65252 0.97569 0.85895 0.0
C763 C 0.67237 0.97835 0.85891 0.0
C764 C 0.67945 0.97282 0.8735 0.0
N765 N 0.64009 0.96783 0.87315 0.0
C766 C 0.6469 0.96234 0.88748 0.0
Co767 Co 0.67062 0.57812 0.37205 0.0
Co768 Co 0.65159 0.6117 0.37532 0.0
O769 O 0.67057 0.60202 0.38212 0.0
C770 C 0.71383 0.612 0.3668 0.0
O771 O 0.7069 0.62448 0.36272 0.0
C772 C 0.64419 0.60237 0.41237 0.0
O773 O 0.64448 0.58535 0.40888 0.0
O774 O 0.62719 0.58321 0.37587 0.0
O775 O 0.63998 0.562 0.37234 0.0
H776 H 0.59468 0.61142 0.34058 0.0
H777 H 0.69556 0.59775 0.40339 0.0
O778 O 0.70141 0.59347 0.37136 0.0
H779 H 0.64636 0.52603 0.42039 0.0
H780 H 0.69622 0.52777 0.36506 0.0
H781 H 0.64656 0.54814 0.34445 0.0
H782 H 0.64655 0.53794 0.39061 0.0
H783 H 0.6955 0.55755 0.37798 0.0
O784 O 0.64674 0.61505 0.40032 0.0
H785 H 0.61854 0.59918 0.34906 0.0
H786 H 0.64467 0.64541 0.38791 0.0
H787 H 0.64662 0.51815 0.33126 0.0
H788 H 0.69602 0.58644 0.43329 0.0
H789 H 0.67159 0.5078 0.34156 0.0
H790 H 0.67123 0.55037 0.44197 0.0
O791 O 0.67019 0.58799 0.3483 0.0
H792 H 0.71648 0.6718 0.3988 0.0
H793 H 0.66762 0.64628 0.34989 0.0
H794 H 0.69789 0.68137 0.34871 0.0
H795 H 0.72255 0.69435 0.37331 0.0
H796 H 0.6861 0.63675 0.39937 0.0
H797 H 0.62098 0.65804 0.37995 0.0
H798 H 0.59582 0.64105 0.35608 0.0
O799 O 0.65604 0.60831 0.35031 0.0
C800 C 0.62492 0.56525 0.37409 0.0
C801 C 0.60562 0.61899 0.35097 0.0
C802 C 0.62036 0.64514 0.37308 0.0
N803 N 0.63308 0.62167 0.36886 0.0
C804 C 0.6192 0.61217 0.35579 0.0
C805 C 0.63371 0.63789 0.37755 0.0
C806 C 0.60625 0.6356 0.35968 0.0
C807 C 0.68488 0.58197 0.40703 0.0
N808 N 0.6711 0.56851 0.39526 0.0
C809 C 0.68515 0.57568 0.42399 0.0
C810 C 0.67121 0.55544 0.42886 0.0
C811 C 0.65724 0.54179 0.41677 0.0
C812 C 0.65739 0.54863 0.39993 0.0
C813 C 0.68524 0.53211 0.36048 0.0
C814 C 0.65738 0.54365 0.34907 0.0
C815 C 0.68478 0.54898 0.36772 0.0
N816 N 0.6709 0.55448 0.36206 0.0
C817 C 0.65739 0.52669 0.34153 0.0
C818 C 0.67141 0.5209 0.3473 0.0
C819 C 0.66364 0.59922 0.34156 0.0
C820 C 0.70581 0.66634 0.38802 0.0
C821 C 0.67831 0.6518 0.36062 0.0
C822 C 0.6954 0.6717 0.3599 0.0
C823 C 0.70923 0.67897 0.37371 0.0
N824 N 0.67505 0.63951 0.37472 0.0
C825 C 0.68854 0.64654 0.38831 0.0
Co826 Co 0.09079 0.67144 0.87292 0.0
Co827 Co 0.03802 0.6515 0.87392 0.0
O828 O 0.06598 0.6701 0.88229 0.0
C829 C 0.09984 0.71469 0.86984 0.0
O830 O 0.08206 0.70789 0.86195 0.0
C831 C 0.03748 0.64178 0.91068 0.0
O832 O 0.05471 0.64176 0.90759 0.0
O833 O 0.0425 0.62738 0.87408 0.0
O834 O 0.07666 0.64082 0.87085 0.0
H835 H 0.98431 0.59647 0.83578 0.0
H836 H 0.09313 0.69266 0.90595 0.0
O837 O 0.10557 0.70216 0.87496 0.0
H838 H 0.11542 0.64251 0.9201 0.0
H839 H 0.16741 0.69904 0.86955 0.0
H840 H 0.09956 0.65061 0.84426 0.0
H841 H 0.10593 0.64581 0.89021 0.0
H842 H 0.13559 0.69642 0.88146 0.0
O843 O 0.02814 0.6452 0.89846 0.0
H844 H 0.01967 0.62003 0.84619 0.0
H845 H 0.99643 0.64346 0.88476 0.0
H846 H 0.13097 0.65262 0.83203 0.0
H847 H 0.10269 0.69001 0.93599 0.0
H848 H 0.1652 0.67697 0.8447 0.0
H849 H 0.11384 0.66472 0.94323 0.0
O850 O 0.08232 0.67332 0.84894 0.0
H851 H 0.04072 0.71485 0.89883 0.0
H852 H 0.02086 0.66867 0.84821 0.0
H853 H 0.01584 0.69882 0.84747 0.0
H854 H 0.02577 0.72214 0.87292 0.0
H855 H 0.04563 0.6846 0.89897 0.0
H856 H 0.96079 0.62004 0.87487 0.0
H857 H 0.95457 0.59639 0.85017 0.0
O858 O 0.04763 0.65749 0.84938 0.0
C859 C 0.05839 0.62549 0.87204 0.0
C860 C 0.98682 0.60675 0.84652 0.0
C861 C 0.97362 0.61996 0.86848 0.0
N862 N 0.0101 0.6332 0.86596 0.0
C863 C 0.00681 0.62016 0.85243 0.0
C864 C 0.99382 0.63315 0.87404 0.0
C865 C 0.97015 0.6067 0.85461 0.0
C866 C 0.09819 0.68179 0.90897 0.0
N867 N 0.09905 0.66947 0.89632 0.0
C868 C 0.1035 0.68029 0.92601 0.0
C869 C 0.10972 0.66607 0.93007 0.0
C870 C 0.11059 0.65359 0.9171 0.0
C871 C 0.10515 0.6555 0.9002 0.0
C872 C 0.15258 0.68834 0.86394 0.0
C873 C 0.11439 0.66115 0.84991 0.0
C874 C 0.13452 0.68681 0.87061 0.0
N875 N 0.11573 0.67325 0.86365 0.0
C876 C 0.13212 0.66226 0.8429 0.0
C877 C 0.15133 0.67594 0.85 0.0
C878 C 0.0649 0.66643 0.84142 0.0
C879 C 0.03628 0.70477 0.88768 0.0
C880 C 0.02527 0.67877 0.85932 0.0
C881 C 0.02235 0.6958 0.85884 0.0
C882 C 0.02791 0.70887 0.87313 0.0
N883 N 0.03344 0.67483 0.87366 0.0
C884 C 0.03895 0.68758 0.88771 0.0
Co885 Co 0.41891 0.09076 0.37283 0.0
Co886 Co 0.38642 0.03794 0.37457 0.0
O887 O 0.39546 0.06606 0.38235 0.0
C888 C 0.38457 0.0995 0.3685 0.0
O889 O 0.37386 0.08165 0.36064 0.0
C890 C 0.39571 0.03855 0.41143 0.0
O891 O 0.41275 0.05587 0.40807 0.0
O892 O 0.41511 0.04272 0.37497 0.0
O893 O 0.43569 0.07687 0.37156 0.0
H894 H 0.38843 0.98359 0.33781 0.0
H895 H 0.39945 0.09368 0.40532 0.0
O896 O 0.40269 0.10532 0.37406 0.0
H897 H 0.47188 0.11709 0.42052 0.0
H898 H 0.46737 0.1674 0.36835 0.0
H899 H 0.44893 0.09911 0.34462 0.0
H900 H 0.45951 0.10674 0.39063 0.0
H901 H 0.43821 0.13573 0.3805 0.0
O902 O 0.38295 0.02872 0.39933 0.0
H903 H 0.39986 0.01914 0.34747 0.0
H904 H 0.35317 0.9965 0.386 0.0
H905 H 0.4783 0.13037 0.33216 0.0
H906 H 0.41124 0.1041 0.43534 0.0
H907 H 0.48768 0.16482 0.34405 0.0
H908 H 0.44767 0.11582 0.44312 0.0
O909 O 0.40891 0.0816 0.34887 0.0
H910 H 0.32532 0.04046 0.39862 0.0
H911 H 0.35217 0.01988 0.34882 0.0
H912 H 0.31682 0.01441 0.34773 0.0
H913 H 0.30317 0.02471 0.37278 0.0
H914 H 0.36063 0.04578 0.3991 0.0
H915 H 0.34133 0.96068 0.37687 0.0
H916 H 0.35896 0.95406 0.35256 0.0
O917 O 0.39 0.04691 0.34981 0.0
C918 C 0.43286 0.05866 0.37301 0.0
C919 C 0.38058 0.98627 0.34838 0.0
C920 C 0.35416 0.97342 0.37032 0.0
N921 N 0.37708 0.00987 0.36718 0.0
C922 C 0.38694 0.00637 0.35387 0.0
C923 C 0.36095 0.99372 0.37546 0.0
C924 C 0.36406 0.96971 0.35667 0.0
C925 C 0.41539 0.09899 0.40856 0.0
N926 N 0.42879 0.09968 0.39621 0.0
C927 C 0.42195 0.10478 0.4256 0.0
C928 C 0.44239 0.11132 0.42996 0.0
C929 C 0.45597 0.11202 0.41729 0.0
C930 C 0.44886 0.10609 0.40039 0.0
C931 C 0.46346 0.15247 0.36308 0.0
C932 C 0.45301 0.11404 0.34993 0.0
C933 C 0.44695 0.13449 0.36989 0.0
N934 N 0.442 0.11559 0.36337 0.0
C935 C 0.46961 0.13169 0.34279 0.0
C936 C 0.47485 0.15101 0.34945 0.0
C937 C 0.39845 0.06401 0.34158 0.0
C938 C 0.33107 0.03585 0.38764 0.0
C939 C 0.34635 0.02444 0.35975 0.0
C940 C 0.32631 0.02127 0.35907 0.0
C941 C 0.31866 0.02704 0.37313 0.0
N942 N 0.3584 0.03304 0.37405 0.0
C943 C 0.35102 0.03876 0.38787 0.0
Co944 Co 0.32901 0.41926 0.87239 0.0
Co945 Co 0.34754 0.38518 0.87359 0.0
O946 O 0.32902 0.39495 0.88146 0.0
C947 C 0.28563 0.38586 0.86724 0.0
O948 O 0.29242 0.37367 0.8619 0.0
C949 C 0.35604 0.39387 0.91055 0.0
O950 O 0.35614 0.41113 0.90733 0.0
O951 O 0.37216 0.41352 0.87417 0.0
O952 O 0.35966 0.43513 0.87208 0.0
H953 H 0.403 0.38549 0.83672 0.0
H954 H 0.30485 0.39891 0.9039 0.0
O955 O 0.29822 0.40412 0.87234 0.0
H956 H 0.35508 0.46998 0.92177 0.0
H957 H 0.30395 0.47032 0.86844 0.0
H958 H 0.35247 0.44991 0.84504 0.0
H959 H 0.35394 0.45884 0.89157 0.0
H960 H 0.3047 0.44002 0.88013 0.0
O961 O 0.353 0.38122 0.89833 0.0
H962 H 0.37972 0.39791 0.84651 0.0
H963 H 0.35438 0.35096 0.8848 0.0
H964 H 0.35238 0.48043 0.83307 0.0
H965 H 0.30532 0.40946 0.93422 0.0
H966 H 0.32798 0.4908 0.84479 0.0
H967 H 0.33063 0.4452 0.94333 0.0
O968 O 0.32869 0.41002 0.84827 0.0
H969 H 0.28297 0.32496 0.89738 0.0
H970 H 0.33045 0.3512 0.84758 0.0
H971 H 0.29989 0.3163 0.8463 0.0
H972 H 0.27592 0.30296 0.87134 0.0
H973 H 0.31362 0.35983 0.89805 0.0
H974 H 0.37751 0.33813 0.87553 0.0
H975 H 0.40198 0.35539 0.85128 0.0
O976 O 0.34243 0.38924 0.84887 0.0
C977 C 0.37461 0.43161 0.87301 0.0
C978 C 0.39236 0.3778 0.84727 0.0
C979 C 0.37807 0.35124 0.86906 0.0
N980 N 0.36561 0.37506 0.86611 0.0
C981 C 0.3791 0.38472 0.85283 0.0
C982 C 0.36505 0.35859 0.87428 0.0
C983 C 0.3918 0.36092 0.85545 0.0
C984 C 0.31574 0.41456 0.90773 0.0
N985 N 0.32928 0.42827 0.89597 0.0
C986 C 0.316 0.42041 0.92493 0.0
C987 C 0.33024 0.44046 0.93004 0.0
C988 C 0.34397 0.45437 0.91795 0.0
C989 C 0.34329 0.44796 0.90088 0.0
C990 C 0.31468 0.46598 0.86325 0.0
C991 C 0.3419 0.45441 0.85027 0.0
C992 C 0.31514 0.44881 0.86979 0.0
N993 N 0.32871 0.44329 0.86335 0.0
C994 C 0.34188 0.47167 0.84341 0.0
C995 C 0.32817 0.47747 0.84998 0.0
C996 C 0.3348 0.3988 0.84081 0.0
C997 C 0.29333 0.33058 0.88641 0.0
C998 C 0.32006 0.34552 0.85851 0.0
C999 C 0.3028 0.32573 0.85773 0.0
C1000 C 0.28937 0.31825 0.87179 0.0
N1001 N 0.32386 0.3575 0.87292 0.0
C1002 C 0.31075 0.35028 0.88674 0.0
Co1003 Co 0.90965 0.3304 0.37193 0.0
Co1004 Co 0.96216 0.34856 0.37438 0.0
O1005 O 0.93358 0.33006 0.3816 0.0
C1006 C 0.89952 0.28697 0.36659 0.0
O1007 O 0.91871 0.29366 0.3619 0.0
C1008 C 0.96108 0.35665 0.41135 0.0
O1009 O 0.94387 0.35658 0.40798 0.0
O1010 O 0.95861 0.37328 0.37489 0.0
O1011 O 0.92462 0.36106 0.37207 0.0
H1012 H 0.0186 0.40437 0.3387 0.0
H1013 H 0.90462 0.30558 0.40329 0.0
O1014 O 0.8938 0.2996 0.37144 0.0
H1015 H 0.88355 0.35576 0.42077 0.0
H1016 H 0.83381 0.30591 0.3661 0.0
H1017 H 0.90365 0.35458 0.3445 0.0
H1018 H 0.8945 0.3551 0.3908 0.0
H1019 H 0.86431 0.30618 0.37853 0.0
O1020 O 0.97088 0.35368 0.39925 0.0
H1021 H 0.98258 0.38112 0.34773 0.0
H1022 H 0.00278 0.35495 0.38645 0.0
H1023 H 0.87359 0.35496 0.3318 0.0
H1024 H 0.89359 0.30557 0.43337 0.0
H1025 H 0.83836 0.33049 0.3426 0.0
H1026 H 0.88304 0.33085 0.44229 0.0
O1027 O 0.91936 0.33046 0.34801 0.0
H1028 H 0.95663 0.28348 0.39818 0.0
H1029 H 0.97969 0.33164 0.3488 0.0
H1030 H 0.98384 0.30096 0.34768 0.0
H1031 H 0.97229 0.27665 0.37252 0.0
H1032 H 0.95261 0.31426 0.39869 0.0
H1033 H 0.03904 0.37804 0.37795 0.0
H1034 H 0.04712 0.40291 0.35387 0.0
O1035 O 0.95378 0.34384 0.34952 0.0
C1036 C 0.9431 0.3759 0.37346 0.0
C1037 C 0.01527 0.39355 0.34918 0.0
C1038 C 0.02674 0.37879 0.37122 0.0
N1039 N 0.99059 0.36659 0.3675 0.0
C1040 C 0.99491 0.38031 0.35431 0.0
C1041 C 0.00619 0.36579 0.376 0.0
C1042 C 0.03127 0.39274 0.35771 0.0
C1043 C 0.89983 0.31647 0.40704 0.0
N1044 N 0.90013 0.33027 0.39529 0.0
C1045 C 0.89369 0.31646 0.4241 0.0
C1046 C 0.88781 0.33067 0.4291 0.0
C1047 C 0.8881 0.34466 0.41704 0.0
C1048 C 0.89437 0.34425 0.4001 0.0
C1049 C 0.84908 0.31667 0.3613 0.0
C1050 C 0.88837 0.34397 0.34934 0.0
C1051 C 0.8664 0.31687 0.36826 0.0
N1052 N 0.88574 0.33048 0.36232 0.0
C1053 C 0.87141 0.34422 0.34206 0.0
C1054 C 0.85165 0.33047 0.34812 0.0
C1055 C 0.93692 0.33652 0.34101 0.0
C1056 C 0.96177 0.29399 0.3873 0.0
C1057 C 0.97457 0.3211 0.35963 0.0
C1058 C 0.977 0.30378 0.35894 0.0
C1059 C 0.97053 0.29015 0.37289 0.0
N1060 N 0.966 0.32477 0.37383 0.0
C1061 C 0.95961 0.31148 0.38755 0.0
Co1062 Co 0.09053 0.42023 0.62422 0.0
Co1063 Co 0.03786 0.38714 0.62219 0.0
O1064 O 0.06602 0.39713 0.61407 0.0
C1065 C 0.09991 0.38618 0.62599 0.0
O1066 O 0.08199 0.37475 0.63356 0.0
C1067 C 0.03783 0.39786 0.58576 0.0
O1068 O 0.05489 0.41509 0.58931 0.0
O1069 O 0.04207 0.41561 0.623 0.0
O1070 O 0.0761 0.43635 0.62709 0.0
H1071 H 0.9831 0.38616 0.66047 0.0
H1072 H 0.0938 0.40327 0.59044 0.0
O1073 O 0.10559 0.40462 0.62145 0.0
H1074 H 0.1155 0.47621 0.57912 0.0
H1075 H 0.16695 0.46956 0.62906 0.0
H1076 H 0.0985 0.44816 0.65403 0.0
H1077 H 0.10551 0.46178 0.60852 0.0
H1078 H 0.1355 0.44085 0.61618 0.0
O1079 O 0.02843 0.38456 0.5976 0.0
H1080 H 0.01872 0.39875 0.65037 0.0
H1081 H 0.99663 0.3538 0.61038 0.0
H1082 H 0.12953 0.47705 0.66724 0.0
H1083 H 0.10386 0.41713 0.56088 0.0
H1084 H 0.16407 0.48792 0.65474 0.0
H1085 H 0.11472 0.45382 0.55506 0.0
O1086 O 0.08167 0.4086 0.64781 0.0
H1087 H 0.04172 0.32801 0.59529 0.0
H1088 H 0.02053 0.35169 0.6468 0.0
H1089 H 0.01585 0.31664 0.6464 0.0
H1090 H 0.02645 0.30458 0.62049 0.0
H1091 H 0.04627 0.363 0.5963 0.0
H1092 H 0.96075 0.34083 0.61995 0.0
H1093 H 0.95382 0.35699 0.64521 0.0
O1094 O 0.04699 0.38974 0.64682 0.0
C1095 C 0.05779 0.4333 0.62581 0.0
C1096 C 0.98593 0.37894 0.64948 0.0
C1097 C 0.97338 0.35352 0.62672 0.0
N1098 N 0.00974 0.3769 0.6299 0.0
C1099 C 0.00606 0.38596 0.64374 0.0
C1100 C 0.99372 0.36095 0.62135 0.0
C1101 C 0.96951 0.36259 0.6409 0.0
C1102 C 0.09874 0.41932 0.58805 0.0
N1103 N 0.09915 0.43172 0.60121 0.0
C1104 C 0.10433 0.42705 0.57127 0.0
C1105 C 0.11038 0.44763 0.56801 0.0
C1106 C 0.11081 0.46019 0.5815 0.0
C1107 C 0.10509 0.45192 0.59811 0.0
C1108 C 0.15199 0.465 0.6346 0.0
C1109 C 0.11346 0.4529 0.64845 0.0
C1110 C 0.13413 0.44873 0.62738 0.0
N1111 N 0.11517 0.44297 0.63426 0.0
C1112 C 0.13098 0.46922 0.65602 0.0
C1113 C 0.15036 0.4753 0.64901 0.0
C1114 C 0.0641 0.39774 0.65501 0.0
C1115 C 0.03698 0.33306 0.60663 0.0
C1116 C 0.02523 0.34658 0.6355 0.0
C1117 C 0.0225 0.3267 0.63533 0.0
C1118 C 0.02844 0.31994 0.62078 0.0
N1119 N 0.03357 0.35934 0.62155 0.0
C1120 C 0.03945 0.35283 0.60725 0.0
Co1121 Co 0.66671 0.08726 0.1243 0.0
Co1122 Co 0.64978 0.03509 0.12199 0.0
O1123 O 0.66707 0.0636 0.11423 0.0
C1124 C 0.71094 0.09936 0.12724 0.0
O1125 O 0.70542 0.08144 0.13444 0.0
C1126 C 0.63961 0.03543 0.08549 0.0
O1127 O 0.6384 0.05184 0.08942 0.0
O1128 O 0.62453 0.03769 0.12253 0.0
O1129 O 0.63611 0.07144 0.12649 0.0
H1130 H 0.5969 0.97818 0.15928 0.0
H1131 H 0.68851 0.0923 0.09107 0.0
O1132 O 0.69738 0.10379 0.12233 0.0
H1133 H 0.63486 0.11037 0.07841 0.0
H1134 H 0.68967 0.1628 0.12962 0.0
H1135 H 0.64484 0.0933 0.15372 0.0
H1136 H 0.63894 0.10035 0.1079 0.0
H1137 H 0.68915 0.1324 0.1167 0.0
O1138 O 0.64379 0.02605 0.09718 0.0
H1139 H 0.61873 0.01424 0.14971 0.0
H1140 H 0.64424 0.99488 0.10978 0.0
H1141 H 0.64476 0.12325 0.16695 0.0
H1142 H 0.68512 0.10246 0.06143 0.0
H1143 H 0.66729 0.15831 0.15489 0.0
H1144 H 0.65808 0.1115 0.05493 0.0
O1145 O 0.66933 0.07845 0.14789 0.0
H1146 H 0.71475 0.04273 0.09588 0.0
H1147 H 0.66888 0.01899 0.14678 0.0
H1148 H 0.70033 0.01613 0.14674 0.0
H1149 H 0.72349 0.02802 0.12114 0.0
H1150 H 0.68323 0.04545 0.09652 0.0
H1151 H 0.62257 0.95857 0.11882 0.0
H1152 H 0.59875 0.95005 0.14378 0.0
O1153 O 0.65543 0.04394 0.14682 0.0
C1154 C 0.62153 0.05281 0.12516 0.0
C1155 C 0.60727 0.9817 0.14842 0.0
C1156 C 0.62165 0.97069 0.12569 0.0
N1157 N 0.63285 0.00665 0.1293 0.0
C1158 C 0.61971 0.00209 0.14298 0.0
C1159 C 0.63385 0.99126 0.12061 0.0
C1160 C 0.6083 0.96593 0.13971 0.0
C1161 C 0.67687 0.09644 0.08838 0.0
N1162 N 0.66401 0.09583 0.10122 0.0
C1163 C 0.67496 0.1021 0.07156 0.0
C1164 C 0.65976 0.10713 0.06792 0.0
C1165 C 0.64671 0.10648 0.08108 0.0
C1166 C 0.64906 0.10074 0.09775 0.0
C1167 C 0.67974 0.1476 0.13496 0.0
C1168 C 0.65458 0.10849 0.14832 0.0
C1169 C 0.67941 0.13033 0.12772 0.0
N1170 N 0.66682 0.11107 0.13435 0.0
C1171 C 0.65452 0.1254 0.15591 0.0
C1172 C 0.66718 0.14507 0.14914 0.0
C1173 C 0.66349 0.06103 0.15507 0.0
C1174 C 0.70475 0.03744 0.10709 0.0
C1175 C 0.67891 0.02424 0.13561 0.0
C1176 C 0.69667 0.02254 0.13564 0.0
C1177 C 0.70966 0.02921 0.12127 0.0
N1178 N 0.67417 0.03227 0.12162 0.0
C1179 C 0.68684 0.03887 0.1075 0.0
Co1180 Co 0.5802 0.67087 0.62346 0.0
Co1181 Co 0.61314 0.65105 0.62298 0.0
O1182 O 0.60362 0.66935 0.61419 0.0
C1183 C 0.61431 0.71425 0.6257 0.0
O1184 O 0.6254 0.70768 0.63373 0.0
C1185 C 0.60376 0.64036 0.58636 0.0
O1186 O 0.58646 0.64026 0.58935 0.0
O1187 O 0.58459 0.62688 0.62316 0.0
O1188 O 0.56386 0.64033 0.62628 0.0
H1189 H 0.61229 0.59705 0.66216 0.0
H1190 H 0.59855 0.6911 0.58998 0.0
O1191 O 0.59602 0.70153 0.62074 0.0
H1192 H 0.52602 0.64011 0.57687 0.0
H1193 H 0.53096 0.69825 0.626 0.0
H1194 H 0.55109 0.65098 0.65259 0.0
H1195 H 0.53926 0.64446 0.6067 0.0
H1196 H 0.56008 0.69537 0.61423 0.0
O1197 O 0.61662 0.64419 0.59858 0.0
H1198 H 0.60028 0.62023 0.65123 0.0
H1199 H 0.64677 0.64296 0.61251 0.0
H1200 H 0.52178 0.65327 0.66469 0.0
H1201 H 0.58589 0.68739 0.56 0.0
H1202 H 0.51155 0.67703 0.65136 0.0
H1203 H 0.54941 0.66168 0.55328 0.0
O1204 O 0.59089 0.67356 0.64741 0.0
H1205 H 0.67351 0.71389 0.59717 0.0
H1206 H 0.64757 0.66899 0.64857 0.0
H1207 H 0.68271 0.69925 0.64893 0.0
H1208 H 0.6959 0.72192 0.62308 0.0
H1209 H 0.63842 0.68356 0.59742 0.0
H1210 H 0.65918 0.6199 0.62292 0.0
H1211 H 0.64195 0.59679 0.64796 0.0
O1212 O 0.6096 0.65757 0.6474 0.0
C1213 C 0.56685 0.62501 0.62537 0.0
C1214 C 0.61997 0.60709 0.65127 0.0
C1215 C 0.64627 0.6199 0.62923 0.0
N1216 N 0.62293 0.63304 0.63135 0.0
C1217 C 0.61327 0.62029 0.64506 0.0
C1218 C 0.63915 0.63289 0.62338 0.0
C1219 C 0.6366 0.60694 0.64329 0.0
C1220 C 0.58259 0.68005 0.58719 0.0
N1221 N 0.56964 0.66808 0.60009 0.0
C1222 C 0.57553 0.67795 0.57018 0.0
C1223 C 0.55507 0.6635 0.56641 0.0
C1224 C 0.54195 0.65137 0.57964 0.0
C1225 C 0.54955 0.65387 0.5965 0.0
C1226 C 0.53524 0.6878 0.63189 0.0
C1227 C 0.54664 0.66126 0.64666 0.0
C1228 C 0.55174 0.68613 0.62531 0.0
N1229 N 0.55715 0.67288 0.63263 0.0
C1230 C 0.53007 0.66253 0.65359 0.0
C1231 C 0.52435 0.67589 0.64612 0.0
C1232 C 0.60136 0.66675 0.65514 0.0
C1233 C 0.66796 0.70409 0.60849 0.0
C1234 C 0.65319 0.67881 0.63729 0.0
C1235 C 0.67311 0.6959 0.63755 0.0
C1236 C 0.6805 0.70861 0.62304 0.0
N1237 N 0.641 0.67446 0.62295 0.0
C1238 C 0.64813 0.68686 0.60868 0.0
Co1239 Co 0.91064 0.58061 0.12515 0.0
Co1240 Co 0.96305 0.61526 0.12225 0.0
O1241 O 0.93432 0.60496 0.11534 0.0
C1242 C 0.90042 0.61378 0.13078 0.0
O1243 O 0.91975 0.62646 0.13495 0.0
C1244 C 0.96139 0.60599 0.08526 0.0
O1245 O 0.94433 0.58876 0.08881 0.0
O1246 O 0.95971 0.58708 0.1217 0.0
O1247 O 0.92578 0.5651 0.12466 0.0
H1248 H 0.02027 0.61649 0.15722 0.0
H1249 H 0.90493 0.6003 0.09404 0.0
O1250 O 0.89463 0.59537 0.12605 0.0
H1251 H 0.88405 0.52919 0.07628 0.0
H1252 H 0.835 0.52889 0.13172 0.0
H1253 H 0.90528 0.55044 0.15239 0.0
H1254 H 0.89546 0.54082 0.10617 0.0
H1255 H 0.86518 0.55926 0.11909 0.0
O1256 O 0.97136 0.61882 0.09727 0.0
H1257 H 0.98406 0.60345 0.14861 0.0
H1258 H 0.00334 0.64962 0.10979 0.0
H1259 H 0.87554 0.51986 0.16528 0.0
H1260 H 0.89344 0.58927 0.06404 0.0
H1261 H 0.84009 0.50891 0.15494 0.0
H1262 H 0.88299 0.55351 0.05498 0.0
O1263 O 0.92069 0.59026 0.14899 0.0
H1264 H 0.95667 0.67445 0.09874 0.0
H1265 H 0.98072 0.64979 0.14776 0.0
H1266 H 0.98461 0.6845 0.14896 0.0
H1267 H 0.97256 0.69705 0.12431 0.0
H1268 H 0.95292 0.63977 0.09815 0.0
H1269 H 0.03978 0.66307 0.11788 0.0
H1270 H 0.04842 0.64651 0.1418 0.0
O1271 O 0.95503 0.61162 0.14723 0.0
C1272 C 0.9443 0.56889 0.12316 0.0
C1273 C 0.0167 0.62388 0.14681 0.0
C1274 C 0.02765 0.65 0.12471 0.0
N1275 N 0.99161 0.62587 0.12882 0.0
C1276 C 0.99623 0.6166 0.14192 0.0
C1277 C 0.007 0.6423 0.12017 0.0
C1278 C 0.03248 0.64071 0.13814 0.0
C1279 C 0.90018 0.58465 0.09024 0.0
N1280 N 0.90078 0.5712 0.10186 0.0
C1281 C 0.89378 0.57852 0.07322 0.0
C1282 C 0.88795 0.55846 0.06814 0.0
C1283 C 0.88856 0.54481 0.08008 0.0
C1284 C 0.89507 0.5515 0.09698 0.0
C1285 C 0.85037 0.53348 0.13631 0.0
C1286 C 0.88991 0.54569 0.14776 0.0
C1287 C 0.86751 0.55069 0.12924 0.0
N1288 N 0.88698 0.55652 0.13492 0.0
C1289 C 0.87313 0.5284 0.15513 0.0
C1290 C 0.85324 0.52228 0.14933 0.0
C1291 C 0.9383 0.60191 0.15586 0.0
C1292 C 0.96203 0.66918 0.10954 0.0
C1293 C 0.97539 0.65511 0.13701 0.0
C1294 C 0.97767 0.6748 0.13774 0.0
C1295 C 0.97092 0.68184 0.12391 0.0
N1296 N 0.96668 0.6428 0.12286 0.0
C1297 C 0.96002 0.64959 0.10925 0.0
Co1298 Co 0.32932 0.90869 0.62376 0.0
Co1299 Co 0.34905 0.96141 0.62262 0.0
O1300 O 0.33079 0.93343 0.61412 0.0
C1301 C 0.28595 0.89942 0.62578 0.0
O1302 O 0.29251 0.91723 0.63356 0.0
C1303 C 0.35965 0.96204 0.58605 0.0
O1304 O 0.35984 0.94494 0.58935 0.0
O1305 O 0.37326 0.9571 0.62306 0.0
O1306 O 0.35988 0.92298 0.6266 0.0
H1307 H 0.40302 0.01531 0.66134 0.0
H1308 H 0.30907 0.90619 0.59016 0.0
O1309 O 0.29866 0.89376 0.62104 0.0
H1310 H 0.36013 0.88454 0.57781 0.0
H1311 H 0.30206 0.83214 0.62732 0.0
H1312 H 0.34926 0.90001 0.6532 0.0
H1313 H 0.35579 0.89394 0.60746 0.0
H1314 H 0.30488 0.86391 0.61507 0.0
O1315 O 0.35585 0.9713 0.5981 0.0
H1316 H 0.37988 0.97991 0.65082 0.0
H1317 H 0.35706 0.0029 0.61152 0.0
H1318 H 0.34704 0.86866 0.66579 0.0
H1319 H 0.31277 0.89671 0.56036 0.0
H1320 H 0.32331 0.83442 0.65282 0.0
H1321 H 0.33852 0.88588 0.55402 0.0
O1322 O 0.32662 0.91708 0.64756 0.0
H1323 H 0.28612 0.95835 0.59637 0.0
H1324 H 0.33108 0.9783 0.64779 0.0
H1325 H 0.30078 0.98311 0.64784 0.0
H1326 H 0.27808 0.97313 0.62198 0.0
H1327 H 0.31649 0.95365 0.59693 0.0
H1328 H 0.38008 0.03858 0.62152 0.0
H1329 H 0.40321 0.04494 0.64665 0.0
O1330 O 0.34255 0.95178 0.64717 0.0
C1331 C 0.37517 0.94128 0.62552 0.0
C1332 C 0.39296 0.01273 0.65042 0.0
C1333 C 0.38011 0.02579 0.62805 0.0
N1334 N 0.36702 0.98936 0.63067 0.0
C1335 C 0.37979 0.99272 0.64443 0.0
C1336 C 0.36714 0.00557 0.62243 0.0
C1337 C 0.39308 0.02935 0.64216 0.0
C1338 C 0.32014 0.90126 0.58754 0.0
N1339 N 0.33213 0.90053 0.60055 0.0
C1340 C 0.32223 0.896 0.57063 0.0
C1341 C 0.33671 0.88996 0.56708 0.0
C1342 C 0.34885 0.88922 0.58042 0.0
C1343 C 0.34636 0.89461 0.59717 0.0
C1344 C 0.31249 0.84698 0.63305 0.0
C1345 C 0.339 0.88518 0.64742 0.0
C1346 C 0.31413 0.86501 0.62619 0.0
N1347 N 0.32736 0.8838 0.63332 0.0
C1348 C 0.33776 0.86748 0.65463 0.0
C1349 C 0.32442 0.84827 0.64736 0.0
C1350 C 0.33337 0.93448 0.65508 0.0
C1351 C 0.29593 0.96281 0.6077 0.0
C1352 C 0.32125 0.97388 0.6365 0.0
C1353 C 0.30414 0.97668 0.63659 0.0
C1354 C 0.29141 0.97108 0.62208 0.0
N1355 N 0.32561 0.96581 0.62233 0.0
C1356 C 0.31319 0.96026 0.60806 0.0
Co1357 Co 0.42277 0.33241 0.12412 0.0
Co1358 Co 0.38797 0.34997 0.12225 0.0
O1359 O 0.39835 0.33187 0.11466 0.0
C1360 C 0.39023 0.28854 0.12884 0.0
O1361 O 0.37798 0.29469 0.13533 0.0
C1362 C 0.39627 0.358 0.08517 0.0
O1363 O 0.41386 0.35876 0.08833 0.0
O1364 O 0.41604 0.37496 0.12137 0.0
O1365 O 0.43802 0.36308 0.1248 0.0
H1366 H 0.38706 0.40539 0.15829 0.0
H1367 H 0.40363 0.30866 0.09213 0.0
O1368 O 0.40824 0.30166 0.1236 0.0
H1369 H 0.47482 0.3603 0.07574 0.0
H1370 H 0.47497 0.30888 0.12885 0.0
H1371 H 0.45257 0.35597 0.15198 0.0
H1372 H 0.46273 0.35835 0.10573 0.0
H1373 H 0.44455 0.30901 0.11669 0.0
O1374 O 0.38364 0.35477 0.09746 0.0
H1375 H 0.4002 0.38257 0.14888 0.0
H1376 H 0.35304 0.35557 0.11087 0.0
H1377 H 0.48318 0.35648 0.16443 0.0
H1378 H 0.41514 0.30993 0.06202 0.0
H1379 H 0.49456 0.3328 0.15286 0.0
H1380 H 0.45094 0.33595 0.05365 0.0
O1381 O 0.41281 0.33144 0.1481 0.0
H1382 H 0.32865 0.28413 0.09927 0.0
H1383 H 0.3541 0.33272 0.14836 0.0
H1384 H 0.3196 0.30165 0.14999 0.0
H1385 H 0.30665 0.27711 0.1253 0.0
H1386 H 0.36313 0.31532 0.09825 0.0
H1387 H 0.33948 0.37821 0.11977 0.0
H1388 H 0.35648 0.40328 0.14369 0.0
O1389 O 0.39234 0.34549 0.14705 0.0
C1390 C 0.43421 0.37778 0.12317 0.0
C1391 C 0.37948 0.39448 0.14789 0.0
C1392 C 0.35279 0.37924 0.12625 0.0
N1393 N 0.37729 0.36766 0.12944 0.0
C1394 C 0.38681 0.38149 0.14254 0.0
C1395 C 0.36056 0.3665 0.12125 0.0
C1396 C 0.36233 0.39331 0.13968 0.0
C1397 C 0.4193 0.31987 0.08862 0.0
N1398 N 0.43251 0.33337 0.10069 0.0
C1399 C 0.42571 0.32058 0.07154 0.0
C1400 C 0.44578 0.33521 0.06685 0.0
C1401 C 0.45918 0.34889 0.07923 0.0
C1402 C 0.45223 0.34775 0.09618 0.0
C1403 C 0.47019 0.31929 0.13399 0.0
C1404 C 0.4575 0.34571 0.14681 0.0
C1405 C 0.45295 0.3194 0.12718 0.0
N1406 N 0.44689 0.33259 0.13354 0.0
C1407 C 0.47481 0.34603 0.15394 0.0
C1408 C 0.48118 0.33273 0.14745 0.0
C1409 C 0.40163 0.33774 0.15533 0.0
C1410 C 0.3341 0.29474 0.11009 0.0
C1411 C 0.3486 0.3221 0.13759 0.0
C1412 C 0.32903 0.30455 0.13857 0.0
C1413 C 0.32177 0.29079 0.12471 0.0
N1414 N 0.36057 0.32588 0.12319 0.0
C1415 C 0.35357 0.31246 0.10956 0.0
C1416 C 0.38542 0.04451 0.31366 0.0
C1417 C 0.39637 0.06343 0.32249 0.0
C1418 C 0.3843 0.044 0.2956 0.0
C1419 C 0.41187 0.07486 0.2574 0.0
H1420 H 0.36145 0.03787 0.23288 0.0
C1421 C 0.40548 0.07988 0.18381 0.0
C1422 C 0.39588 0.06124 0.17448 0.0
C1423 C 0.40441 0.07985 0.20183 0.0
C1424 C 0.37569 0.04813 0.23955 0.0
H1425 H 0.4143 0.0967 0.31916 0.0
H1426 H 0.41216 0.09575 0.28776 0.0
H1427 H 0.3616 0.03839 0.2645 0.0
H1428 H 0.37719 0.02793 0.17688 0.0
H1429 H 0.37552 0.02792 0.2084 0.0
H1430 H 0.42603 0.08455 0.23257 0.0
C1431 C 0.4047 0.0813 0.2948 0.0
C1432 C 0.37578 0.04844 0.25765 0.0
C1433 C 0.40582 0.08183 0.31283 0.0
C1434 C 0.38477 0.04258 0.18363 0.0
C1435 C 0.38372 0.04256 0.2017 0.0
C1436 C 0.41179 0.07455 0.23936 0.0
C1437 C 0.39412 0.06238 0.28597 0.0
C1438 C 0.39386 0.06188 0.26677 0.0
C1439 C 0.39376 0.06119 0.211 0.0
C1440 C 0.39369 0.06126 0.23021 0.0
H1441 H 0.37795 0.03003 0.32066 0.0
H1442 H 0.37618 0.02917 0.28917 0.0
H1443 H 0.42617 0.08509 0.26403 0.0
H1444 H 0.41405 0.09458 0.17724 0.0
H1445 H 0.41198 0.09449 0.20859 0.0
C1446 C 0.33908 0.38588 0.68272 0.0
C1447 C 0.33139 0.39698 0.67375 0.0
C1448 C 0.33823 0.38474 0.70077 0.0
C1449 C 0.33512 0.41272 0.7387 0.0
H1450 H 0.32149 0.36243 0.76353 0.0
C1451 C 0.32429 0.40688 0.81242 0.0
C1452 C 0.3331 0.39703 0.82172 0.0
C1453 C 0.32326 0.40587 0.79441 0.0
C1454 C 0.32553 0.37664 0.75677 0.0
H1455 H 0.3162 0.41509 0.67681 0.0
H1456 H 0.31458 0.41291 0.70821 0.0
H1457 H 0.32088 0.36228 0.73192 0.0
H1458 H 0.34747 0.37811 0.81925 0.0
H1459 H 0.34584 0.37657 0.78774 0.0
H1460 H 0.33993 0.42716 0.76345 0.0
C1461 C 0.32155 0.40535 0.70128 0.0
C1462 C 0.32516 0.37654 0.73868 0.0
C1463 C 0.32238 0.40649 0.68325 0.0
C1464 C 0.34057 0.38587 0.81253 0.0
C1465 C 0.33954 0.38489 0.79446 0.0
C1466 C 0.33551 0.41282 0.75674 0.0
C1467 C 0.3297 0.39469 0.71026 0.0
C1468 C 0.3299 0.39458 0.72946 0.0
C1469 C 0.33104 0.39504 0.7852 0.0
C1470 C 0.33066 0.39478 0.766 0.0
H1471 H 0.34614 0.37837 0.67585 0.0
H1472 H 0.34479 0.37655 0.70732 0.0
H1473 H 0.33926 0.42698 0.73198 0.0
H1474 H 0.31826 0.41551 0.81903 0.0
H1475 H 0.31629 0.41357 0.78768 0.0
C1476 C 0.92038 0.32725 0.18398 0.0
C1477 C 0.9387 0.33562 0.17425 0.0
C1478 C 0.92093 0.32603 0.20197 0.0
C1479 C 0.95562 0.34955 0.23913 0.0
H1480 H 0.91331 0.30202 0.26379 0.0
C1481 C 0.95672 0.34195 0.31343 0.0
C1482 C 0.93777 0.33506 0.32195 0.0
C1483 C 0.95749 0.34097 0.29542 0.0
C1484 C 0.92515 0.31546 0.25708 0.0
H1485 H 0.97196 0.34898 0.17587 0.0
H1486 H 0.97283 0.34668 0.20726 0.0
H1487 H 0.91351 0.30206 0.23224 0.0
H1488 H 0.90473 0.32156 0.31812 0.0
H1489 H 0.90616 0.32003 0.28678 0.0
H1490 H 0.96711 0.36304 0.26397 0.0
C1491 C 0.95808 0.34129 0.20095 0.0
C1492 C 0.92526 0.31548 0.23902 0.0
C1493 C 0.95755 0.3425 0.18294 0.0
C1494 C 0.9196 0.32697 0.31203 0.0
C1495 C 0.92039 0.32596 0.29404 0.0
C1496 C 0.95551 0.34952 0.2572 0.0
C1497 C 0.93979 0.33315 0.21067 0.0
C1498 C 0.94036 0.33262 0.22984 0.0
C1499 C 0.93934 0.33303 0.28553 0.0
C1500 C 0.94014 0.33257 0.26637 0.0
H1501 H 0.90558 0.32184 0.17776 0.0
H1502 H 0.9066 0.31995 0.2091 0.0
H1503 H 0.96729 0.3631 0.23244 0.0
H1504 H 0.97103 0.34823 0.32064 0.0
H1505 H 0.97231 0.34633 0.28923 0.0
C1506 C 0.61472 0.95311 0.68289 0.0
C1507 C 0.604 0.93441 0.67373 0.0
C1508 C 0.61601 0.95315 0.70093 0.0
C1509 C 0.58892 0.92101 0.73868 0.0
H1510 H 0.63863 0.95915 0.7635 0.0
C1511 C 0.59457 0.91721 0.81258 0.0
C1512 C 0.60342 0.93605 0.82161 0.0
C1513 C 0.59599 0.9169 0.79459 0.0
C1514 C 0.62459 0.94853 0.75674 0.0
H1515 H 0.58676 0.90104 0.67643 0.0
H1516 H 0.58922 0.90117 0.7078 0.0
H1517 H 0.63879 0.95874 0.73189 0.0
H1518 H 0.62117 0.96937 0.81872 0.0
H1519 H 0.62343 0.96878 0.7873 0.0
H1520 H 0.57464 0.91091 0.76343 0.0
C1521 C 0.59634 0.91581 0.70104 0.0
C1522 C 0.62468 0.94829 0.73865 0.0
C1523 C 0.59504 0.91575 0.68302 0.0
C1524 C 0.61415 0.95457 0.81221 0.0
C1525 C 0.61556 0.95424 0.79419 0.0
C1526 C 0.58883 0.92125 0.75673 0.0
C1527 C 0.60661 0.9345 0.71022 0.0
C1528 C 0.60682 0.93454 0.72942 0.0
C1529 C 0.60627 0.93541 0.78517 0.0
C1530 C 0.60665 0.93501 0.76597 0.0
H1531 H 0.62181 0.96779 0.67618 0.0
H1532 H 0.62386 0.96783 0.70762 0.0
H1533 H 0.57479 0.91051 0.73197 0.0
H1534 H 0.58629 0.90262 0.81936 0.0
H1535 H 0.58896 0.90212 0.78805 0.0
C1536 C 0.65755 0.61357 0.31422 0.0
C1537 C 0.66487 0.60172 0.3225 0.0
C1538 C 0.65844 0.61558 0.29621 0.0
C1539 C 0.68454 0.61001 0.25767 0.0
H1540 H 0.63671 0.60396 0.23295 0.0
C1541 C 0.6733 0.59325 0.18476 0.0
C1542 C 0.66518 0.60327 0.17479 0.0
C1543 C 0.67414 0.59495 0.20274 0.0
C1544 C 0.6503 0.60599 0.23967 0.0
H1545 H 0.67893 0.58275 0.31824 0.0
H1546 H 0.68028 0.58613 0.28695 0.0
H1547 H 0.63663 0.60357 0.26451 0.0
H1548 H 0.65168 0.62306 0.17603 0.0
H1549 H 0.65324 0.62604 0.2075 0.0
H1550 H 0.6981 0.61212 0.23285 0.0
C1551 C 0.67411 0.5941 0.29438 0.0
C1552 C 0.65026 0.60576 0.25775 0.0
C1553 C 0.67321 0.59206 0.31235 0.0
C1554 C 0.65801 0.61511 0.18329 0.0
C1555 C 0.6588 0.61675 0.20132 0.0
C1556 C 0.68458 0.61022 0.23962 0.0
C1557 C 0.66671 0.60584 0.2861 0.0
C1558 C 0.66726 0.60748 0.26694 0.0
C1559 C 0.66687 0.60667 0.21124 0.0
C1560 C 0.66735 0.60792 0.23041 0.0
H1561 H 0.65106 0.62126 0.32161 0.0
H1562 H 0.65279 0.62489 0.29021 0.0
H1563 H 0.69803 0.61176 0.26438 0.0
H1564 H 0.67893 0.58395 0.1787 0.0
H1565 H 0.68015 0.58673 0.21002 0.0
C1566 C 0.0463 0.66232 0.68344 0.0
C1567 C 0.06509 0.66936 0.67462 0.0
C1568 C 0.04592 0.66365 0.70144 0.0
C1569 C 0.0787 0.68951 0.73955 0.0
H1570 H 0.03719 0.64133 0.76409 0.0
C1571 C 0.08317 0.67754 0.81287 0.0
C1572 C 0.06468 0.66867 0.82239 0.0
C1573 C 0.08288 0.67894 0.79486 0.0
C1574 C 0.0487 0.65503 0.75744 0.0
H1575 H 0.0983 0.68373 0.67788 0.0
H1576 H 0.09756 0.68585 0.70926 0.0
H1577 H 0.03727 0.64158 0.7326 0.0
H1578 H 0.03137 0.65468 0.82038 0.0
H1579 H 0.03094 0.65732 0.78902 0.0
H1580 H 0.09025 0.70284 0.76445 0.0
C1581 C 0.08314 0.67951 0.70222 0.0
C1582 C 0.04874 0.65517 0.73939 0.0
C1583 C 0.08353 0.67818 0.68422 0.0
C1584 C 0.04592 0.66153 0.81349 0.0
C1585 C 0.04564 0.66294 0.79549 0.0
C1586 C 0.07865 0.68936 0.75763 0.0
C1587 C 0.06432 0.67205 0.71105 0.0
C1588 C 0.06381 0.67235 0.73023 0.0
C1589 C 0.0641 0.67149 0.78596 0.0
C1590 C 0.06372 0.67206 0.76677 0.0
H1591 H 0.03179 0.65552 0.67649 0.0
H1592 H 0.0312 0.65804 0.70785 0.0
H1593 H 0.09034 0.70309 0.73287 0.0
H1594 H 0.09791 0.68317 0.81927 0.0
H1595 H 0.09735 0.68538 0.78789 0.0
C1596 C 0.92118 0.59402 0.18491 0.0
C1597 C 0.9393 0.60415 0.17493 0.0
C1598 C 0.92205 0.59576 0.20289 0.0
C1599 C 0.95715 0.60724 0.23974 0.0
H1600 H 0.9149 0.61237 0.2646 0.0
C1601 C 0.95784 0.61512 0.31424 0.0
C1602 C 0.93879 0.60301 0.32261 0.0
C1603 C 0.95881 0.61706 0.29623 0.0
C1604 C 0.92673 0.6108 0.25784 0.0
H1605 H 0.97256 0.62423 0.17615 0.0
H1606 H 0.97398 0.62731 0.2076 0.0
H1607 H 0.91503 0.61266 0.23306 0.0
H1608 H 0.90578 0.58353 0.3185 0.0
H1609 H 0.90756 0.58681 0.2872 0.0
H1610 H 0.96867 0.60509 0.26454 0.0
C1611 C 0.95915 0.61788 0.20144 0.0
C1612 C 0.9268 0.61097 0.23979 0.0
C1613 C 0.9583 0.61618 0.18341 0.0
C1614 C 0.92073 0.59303 0.31254 0.0
C1615 C 0.92171 0.59501 0.29457 0.0
C1616 C 0.95707 0.60707 0.25781 0.0
C1617 C 0.94103 0.60765 0.21137 0.0
C1618 C 0.94184 0.6089 0.23053 0.0
C1619 C 0.94075 0.607 0.28621 0.0
C1620 C 0.94169 0.60856 0.26706 0.0
H1621 H 0.90627 0.58457 0.17886 0.0
H1622 H 0.90785 0.58743 0.21019 0.0
H1623 H 0.9688 0.60539 0.23298 0.0
H1624 H 0.97206 0.62305 0.32156 0.0
H1625 H 0.97369 0.62656 0.29016 0.0
C1626 C 0.32019 0.9165 0.81279 0.0
C1627 C 0.32988 0.9352 0.82203 0.0
C1628 C 0.31899 0.91646 0.79478 0.0
C1629 C 0.32309 0.94855 0.75694 0.0
H1630 H 0.33554 0.91077 0.73256 0.0
C1631 C 0.33874 0.95331 0.68322 0.0
C1632 C 0.33084 0.93459 0.67409 0.0
C1633 C 0.33732 0.95337 0.70124 0.0
C1634 C 0.33174 0.92122 0.73916 0.0
H1635 H 0.34545 0.96856 0.81948 0.0
H1636 H 0.34349 0.96843 0.78799 0.0
H1637 H 0.33534 0.91095 0.76402 0.0
H1638 H 0.3147 0.90122 0.67682 0.0
H1639 H 0.31206 0.90139 0.70816 0.0
H1640 H 0.31967 0.95893 0.73197 0.0
C1641 C 0.33667 0.9538 0.79475 0.0
C1642 C 0.33163 0.92132 0.7572 0.0
C1643 C 0.33787 0.95386 0.8128 0.0
C1644 C 0.32107 0.91594 0.6834 0.0
C1645 C 0.31965 0.91603 0.7014 0.0
C1646 C 0.3232 0.94845 0.73884 0.0
C1647 C 0.32746 0.9351 0.78553 0.0
C1648 C 0.32729 0.93497 0.76631 0.0
C1649 C 0.32798 0.93473 0.71055 0.0
C1650 C 0.32752 0.93477 0.72976 0.0
H1651 H 0.31373 0.90181 0.81943 0.0
H1652 H 0.31147 0.90178 0.78808 0.0
H1653 H 0.31947 0.9591 0.76359 0.0
H1654 H 0.34638 0.96797 0.67649 0.0
H1655 H 0.34405 0.96805 0.70792 0.0
C1656 C 0.38548 0.34039 0.31352 0.0
C1657 C 0.39684 0.33284 0.32228 0.0
C1658 C 0.38428 0.33976 0.29547 0.0
C1659 C 0.39172 0.31467 0.25706 0.0
H1660 H 0.39854 0.36316 0.23297 0.0
C1661 C 0.40926 0.32751 0.18409 0.0
C1662 C 0.39941 0.33603 0.1744 0.0
C1663 C 0.40749 0.32621 0.20208 0.0
C1664 C 0.39632 0.34939 0.2395 0.0
H1665 H 0.41566 0.31848 0.31883 0.0
H1666 H 0.4137 0.3176 0.28741 0.0
H1667 H 0.39794 0.3624 0.26449 0.0
H1668 H 0.37978 0.3497 0.17616 0.0
H1669 H 0.37665 0.34729 0.20756 0.0
H1670 H 0.39035 0.30177 0.23205 0.0
C1671 C 0.4055 0.32377 0.29452 0.0
C1672 C 0.39597 0.34895 0.25757 0.0
C1673 C 0.40672 0.32439 0.31255 0.0
C1674 C 0.38763 0.34309 0.18317 0.0
C1675 C 0.3859 0.34181 0.20119 0.0
C1676 C 0.39208 0.31512 0.239 0.0
C1677 C 0.39439 0.33157 0.28576 0.0
C1678 C 0.39383 0.33164 0.26656 0.0
C1679 C 0.39587 0.33341 0.21084 0.0
C1680 C 0.39456 0.33255 0.23002 0.0
H1681 H 0.37762 0.34696 0.32056 0.0
H1682 H 0.37537 0.34566 0.28913 0.0
H1683 H 0.3897 0.30097 0.2636 0.0
H1684 H 0.4185 0.32196 0.17781 0.0
H1685 H 0.41559 0.31992 0.20916 0.0
C1686 C 0.04451 0.38298 0.68258 0.0
C1687 C 0.06347 0.39468 0.67398 0.0
C1688 C 0.04384 0.38107 0.70057 0.0
C1689 C 0.07603 0.3874 0.73897 0.0
H1690 H 0.03484 0.39485 0.76322 0.0
C1691 C 0.08137 0.40558 0.81182 0.0
C1692 C 0.06305 0.39621 0.82158 0.0
C1693 C 0.08075 0.40344 0.79386 0.0
C1694 C 0.04624 0.39242 0.75665 0.0
H1695 H 0.09665 0.4132 0.6776 0.0
H1696 H 0.0954 0.41 0.70895 0.0
H1697 H 0.03496 0.39439 0.73171 0.0
H1698 H 0.0297 0.37694 0.82003 0.0
H1699 H 0.02871 0.37314 0.78869 0.0
H1700 H 0.08749 0.38574 0.76394 0.0
C1701 C 0.08108 0.40211 0.70176 0.0
C1702 C 0.04631 0.39215 0.73859 0.0
C1703 C 0.08177 0.40404 0.68377 0.0
C1704 C 0.04411 0.38444 0.81295 0.0
C1705 C 0.04352 0.38232 0.79497 0.0
C1706 C 0.07597 0.38767 0.75704 0.0
C1707 C 0.0621 0.39079 0.71037 0.0
C1708 C 0.06133 0.38985 0.72955 0.0
C1709 C 0.06182 0.39189 0.78522 0.0
C1710 C 0.0612 0.3904 0.76607 0.0
H1711 H 0.03011 0.37548 0.67547 0.0
H1712 H 0.029 0.37201 0.70682 0.0
H1713 H 0.08761 0.38527 0.73237 0.0
H1714 H 0.09623 0.41479 0.818 0.0
H1715 H 0.0951 0.41124 0.7867 0.0
C1716 C 0.67445 0.08124 0.31227 0.0
C1717 C 0.66555 0.06296 0.32208 0.0
C1718 C 0.67508 0.08052 0.29426 0.0
C1719 C 0.67146 0.04739 0.25744 0.0
H1720 H 0.6577 0.0835 0.23189 0.0
C1721 C 0.65779 0.04194 0.18316 0.0
C1722 C 0.66558 0.0607 0.17412 0.0
C1723 C 0.65857 0.04176 0.20124 0.0
C1724 C 0.66183 0.0735 0.23882 0.0
H1725 H 0.65067 0.02955 0.32053 0.0
H1726 H 0.65165 0.02835 0.28904 0.0
H1727 H 0.65758 0.08402 0.26334 0.0
H1728 H 0.681 0.09403 0.17706 0.0
H1729 H 0.68253 0.09366 0.20841 0.0
H1730 H 0.67562 0.03684 0.23279 0.0
C1731 C 0.65829 0.04324 0.29536 0.0
C1732 C 0.66175 0.07379 0.25685 0.0
C1733 C 0.65764 0.04395 0.31341 0.0
C1734 C 0.67469 0.07927 0.18355 0.0
C1735 C 0.67547 0.07907 0.20157 0.0
C1736 C 0.67153 0.0471 0.23934 0.0
C1737 C 0.66682 0.06152 0.28558 0.0
C1738 C 0.66669 0.06085 0.26639 0.0
C1739 C 0.66714 0.06033 0.21064 0.0
C1740 C 0.66684 0.06026 0.22984 0.0
H1741 H 0.68081 0.09619 0.31847 0.0
H1742 H 0.68208 0.0949 0.28712 0.0
H1743 H 0.6755 0.03736 0.26443 0.0
H1744 H 0.65068 0.02735 0.17633 0.0
H1745 H 0.65192 0.02706 0.20787 0.0
C1746 C 0.61443 0.66133 0.68344 0.0
C1747 C 0.60358 0.6691 0.67418 0.0
C1748 C 0.6155 0.66249 0.70148 0.0
C1749 C 0.58776 0.66682 0.73908 0.0
H1750 H 0.63759 0.67916 0.76408 0.0
C1751 C 0.59312 0.67584 0.81314 0.0
C1752 C 0.60246 0.66628 0.82209 0.0
C1753 C 0.59435 0.67753 0.79514 0.0
C1754 C 0.62351 0.67552 0.75727 0.0
H1755 H 0.58582 0.68471 0.67672 0.0
H1756 H 0.58789 0.68688 0.70813 0.0
H1757 H 0.63794 0.67993 0.73249 0.0
H1758 H 0.62073 0.65128 0.81904 0.0
H1759 H 0.62269 0.65407 0.78763 0.0
H1760 H 0.57326 0.66221 0.76379 0.0
C1761 C 0.5953 0.67962 0.70142 0.0
C1762 C 0.62371 0.67597 0.73919 0.0
C1763 C 0.59423 0.67847 0.68339 0.0
C1764 C 0.61336 0.65876 0.8126 0.0
C1765 C 0.61459 0.66046 0.79458 0.0
C1766 C 0.58756 0.66637 0.75713 0.0
C1767 C 0.60574 0.67143 0.71069 0.0
C1768 C 0.60581 0.67157 0.7299 0.0
C1769 C 0.60494 0.6697 0.78564 0.0
C1770 C 0.60541 0.67066 0.76644 0.0
H1771 H 0.62181 0.65399 0.6768 0.0
H1772 H 0.62348 0.65585 0.70824 0.0
H1773 H 0.57361 0.66298 0.73231 0.0
H1774 H 0.58467 0.68191 0.81999 0.0
H1775 H 0.58702 0.68501 0.78865 0.0
C1776 C 0.36413 0.11238 0.13493 0.0
C1777 C 0.38265 0.11548 0.12747 0.0
C1778 C 0.36028 0.12886 0.13637 0.0
C1779 C 0.38905 0.18429 0.14147 0.0
H1780 H 0.34334 0.18783 0.12149 0.0
C1781 C 0.39797 0.26065 0.12191 0.0
C1782 C 0.38421 0.26645 0.12876 0.0
C1783 C 0.39385 0.24042 0.12328 0.0
C1784 C 0.35593 0.18685 0.12743 0.0
H1785 H 0.41097 0.13797 0.11474 0.0
H1786 H 0.40432 0.16639 0.11745 0.0
H1787 H 0.34301 0.1547 0.12106 0.0
H1788 H 0.35466 0.25518 0.14154 0.0
H1789 H 0.34733 0.21929 0.14374 0.0
H1790 H 0.40248 0.2164 0.14717 0.0
C1791 C 0.39292 0.15137 0.12233 0.0
C1792 C 0.35575 0.16799 0.12718 0.0
C1793 C 0.39668 0.13503 0.12077 0.0
C1794 C 0.36562 0.2512 0.13624 0.0
C1795 C 0.3614 0.23072 0.13748 0.0
C1796 C 0.38923 0.20296 0.14172 0.0
C1797 C 0.37498 0.1486 0.13052 0.0
C1798 C 0.37273 0.16686 0.13361 0.0
C1799 C 0.3758 0.22538 0.13142 0.0
C1800 C 0.3731 0.20462 0.13411 0.0
H1801 H 0.35297 0.09746 0.14013 0.0
H1802 H 0.34629 0.1264 0.14267 0.0
H1803 H 0.40216 0.18368 0.14674 0.0
H1804 H 0.41231 0.27185 0.11585 0.0
H1805 H 0.40503 0.23657 0.11824 0.0
C1806 C 0.11218 0.36118 0.63262 0.0
C1807 C 0.11429 0.37828 0.62333 0.0
C1808 C 0.12719 0.35527 0.63122 0.0
C1809 C 0.17143 0.36237 0.60438 0.0
H1810 H 0.19554 0.35928 0.64789 0.0
C1811 C 0.25687 0.38928 0.61196 0.0
C1812 C 0.2634 0.37899 0.62328 0.0
C1813 C 0.23601 0.3831 0.61045 0.0
C1814 C 0.18873 0.35959 0.63561 0.0
H1815 H 0.13312 0.40189 0.60461 0.0
H1816 H 0.15905 0.39159 0.60215 0.0
H1817 H 0.16282 0.3591 0.64788 0.0
H1818 H 0.2531 0.35366 0.64147 0.0
H1819 H 0.21641 0.34296 0.63897 0.0
H1820 H 0.19782 0.36388 0.59216 0.0
C1821 C 0.14589 0.38269 0.61049 0.0
C1822 C 0.16998 0.35949 0.6356 0.0
C1823 C 0.1311 0.38872 0.61203 0.0
C1824 C 0.24852 0.3619 0.63265 0.0
C1825 C 0.22755 0.35582 0.63127 0.0
C1826 C 0.19014 0.36247 0.60438 0.0
C1827 C 0.14433 0.36615 0.62029 0.0
C1828 C 0.16159 0.36173 0.62003 0.0
C1829 C 0.22114 0.36655 0.6203 0.0
C1830 C 0.1994 0.36193 0.62004 0.0
H1831 H 0.09937 0.35284 0.64142 0.0
H1832 H 0.12556 0.34241 0.63887 0.0
H1833 H 0.16512 0.36372 0.59215 0.0
H1834 H 0.26793 0.40244 0.60448 0.0
H1835 H 0.23164 0.39189 0.60208 0.0
C1836 C 0.86659 0.26124 0.11671 0.0
C1837 C 0.88421 0.26686 0.12685 0.0
C1838 C 0.84996 0.24121 0.11716 0.0
C1839 C 0.83122 0.18731 0.12724 0.0
H1840 H 0.78006 0.18735 0.13545 0.0
C1841 C 0.74833 0.11421 0.13547 0.0
C1842 C 0.73291 0.11556 0.1261 0.0
C1843 C 0.76852 0.13107 0.13604 0.0
C1844 C 0.79421 0.18706 0.13312 0.0
H1845 H 0.89878 0.25545 0.14449 0.0
H1846 H 0.8693 0.21998 0.14522 0.0
H1847 H 0.8126 0.21978 0.13564 0.0
H1848 H 0.72696 0.13496 0.10891 0.0
H1849 H 0.76187 0.16402 0.1099 0.0
H1850 H 0.81241 0.15437 0.12436 0.0
C1851 C 0.86855 0.23133 0.13702 0.0
C1852 C 0.81281 0.20561 0.13324 0.0
C1853 C 0.88535 0.25158 0.13661 0.0
C1854 C 0.73834 0.13351 0.11651 0.0
C1855 C 0.75834 0.1502 0.11709 0.0
C1856 C 0.81241 0.16857 0.1271 0.0
C1857 C 0.85048 0.22623 0.12772 0.0
C1858 C 0.83142 0.20602 0.12977 0.0
C1859 C 0.77347 0.14943 0.12729 0.0
C1860 C 0.79372 0.16844 0.1295 0.0
H1861 H 0.86532 0.27251 0.1088 0.0
H1862 H 0.83636 0.23755 0.10958 0.0
H1863 H 0.84542 0.18727 0.1246 0.0
H1864 H 0.74461 0.10053 0.14293 0.0
H1865 H 0.77997 0.1301 0.14394 0.0
C1866 C 0.6122 0.74303 0.61151 0.0
C1867 C 0.62233 0.73655 0.62304 0.0
C1868 C 0.61829 0.76387 0.60998 0.0
C1869 C 0.64111 0.81102 0.63535 0.0
H1870 H 0.63738 0.83474 0.59182 0.0
C1871 C 0.63906 0.8873 0.63232 0.0
C1872 C 0.62207 0.88519 0.62283 0.0
C1873 C 0.6451 0.87239 0.63097 0.0
C1874 C 0.63861 0.82839 0.60407 0.0
H1875 H 0.64735 0.74692 0.64156 0.0
H1876 H 0.65792 0.78357 0.63901 0.0
H1877 H 0.63747 0.80217 0.59187 0.0
H1878 H 0.59882 0.86645 0.60383 0.0
H1879 H 0.60932 0.84066 0.60147 0.0
H1880 H 0.64124 0.83676 0.64759 0.0
C1881 C 0.64523 0.7724 0.63117 0.0
C1882 C 0.63866 0.80976 0.60409 0.0
C1883 C 0.63923 0.75147 0.63258 0.0
C1884 C 0.61189 0.86847 0.6114 0.0
C1885 C 0.61804 0.85376 0.60992 0.0
C1886 C 0.64107 0.8297 0.63532 0.0
C1887 C 0.63461 0.77877 0.62002 0.0
C1888 C 0.63906 0.80045 0.61977 0.0
C1889 C 0.63445 0.85532 0.61991 0.0
C1890 C 0.63897 0.83813 0.61972 0.0
H1891 H 0.59919 0.73195 0.6039 0.0
H1892 H 0.60959 0.76819 0.60146 0.0
H1893 H 0.64131 0.80418 0.64764 0.0
H1894 H 0.64721 0.90005 0.64122 0.0
H1895 H 0.65785 0.87401 0.63877 0.0
C1896 C 0.74161 0.60411 0.13432 0.0
C1897 C 0.73608 0.61947 0.13319 0.0
C1898 C 0.76206 0.60937 0.13685 0.0
C1899 C 0.81455 0.64706 0.12859 0.0
H1900 H 0.82461 0.61537 0.16302 0.0
C1901 C 0.88985 0.64075 0.13433 0.0
C1902 C 0.88459 0.61993 0.13287 0.0
C1903 C 0.87439 0.64597 0.13662 0.0
C1904 C 0.82217 0.62461 0.15354 0.0
H1905 H 0.74778 0.65248 0.13356 0.0
H1906 H 0.78411 0.66175 0.13758 0.0
H1907 H 0.79195 0.61526 0.16315 0.0
H1908 H 0.85907 0.58833 0.13275 0.0
H1909 H 0.8325 0.5974 0.13697 0.0
H1910 H 0.8444 0.65525 0.11832 0.0
C1911 C 0.77231 0.64564 0.1367 0.0
C1912 C 0.80352 0.62454 0.15361 0.0
C1913 C 0.75161 0.64033 0.13444 0.0
C1914 C 0.86371 0.60452 0.13376 0.0
C1915 C 0.84846 0.60968 0.13632 0.0
C1916 C 0.83333 0.64713 0.12852 0.0
C1917 C 0.7776 0.63012 0.13814 0.0
C1918 C 0.79915 0.63492 0.14064 0.0
C1919 C 0.8536 0.63039 0.13786 0.0
C1920 C 0.8368 0.63507 0.14051 0.0
H1921 H 0.73008 0.5879 0.13348 0.0
H1922 H 0.76577 0.59713 0.13764 0.0
H1923 H 0.81146 0.65513 0.11843 0.0
H1924 H 0.90583 0.65294 0.13363 0.0
H1925 H 0.87866 0.66206 0.13769 0.0
C1926 C 0.25719 0.86833 0.61179 0.0
C1927 C 0.26365 0.88513 0.62313 0.0
C1928 C 0.23635 0.85359 0.61027 0.0
C1929 C 0.18912 0.82969 0.63551 0.0
H1930 H 0.16555 0.80163 0.59216 0.0
C1931 C 0.11286 0.7513 0.63283 0.0
C1932 C 0.11503 0.7363 0.62359 0.0
C1933 C 0.12777 0.77223 0.63134 0.0
C1934 C 0.17185 0.80938 0.60436 0.0
H1935 H 0.25326 0.90009 0.6413 0.0
H1936 H 0.2166 0.87401 0.63877 0.0
H1937 H 0.19812 0.83429 0.59205 0.0
H1938 H 0.13389 0.73154 0.6049 0.0
H1939 H 0.15969 0.7678 0.6023 0.0
H1940 H 0.16334 0.80424 0.64788 0.0
C1941 C 0.22778 0.87234 0.63108 0.0
C1942 C 0.19048 0.82806 0.60429 0.0
C1943 C 0.24872 0.88728 0.63247 0.0
C1944 C 0.13183 0.7427 0.61228 0.0
C1945 C 0.14654 0.76353 0.61066 0.0
C1946 C 0.17045 0.81097 0.63557 0.0
C1947 C 0.22143 0.8552 0.62012 0.0
C1948 C 0.19974 0.83798 0.61992 0.0
C1949 C 0.1449 0.77851 0.62039 0.0
C1950 C 0.16207 0.80022 0.62005 0.0
H1951 H 0.26829 0.86627 0.60433 0.0
H1952 H 0.23204 0.84044 0.60191 0.0
H1953 H 0.19592 0.8369 0.64777 0.0
H1954 H 0.10005 0.74682 0.64163 0.0
H1955 H 0.1261 0.78347 0.63894 0.0
C1956 C 0.88969 0.64 0.36374 0.0
C1957 C 0.88432 0.61911 0.36475 0.0
C1958 C 0.87433 0.64537 0.36154 0.0
C1959 C 0.82235 0.62474 0.34418 0.0
H1960 H 0.81121 0.65407 0.38011 0.0
C1961 C 0.74166 0.60331 0.3636 0.0
C1962 C 0.73591 0.6185 0.36478 0.0
C1963 C 0.76218 0.6088 0.36113 0.0
C1964 C 0.81443 0.64635 0.36973 0.0
H1965 H 0.85872 0.58757 0.36412 0.0
H1966 H 0.83233 0.59691 0.36004 0.0
H1967 H 0.84414 0.65418 0.3801 0.0
H1968 H 0.74728 0.65145 0.36461 0.0
H1969 H 0.78376 0.66114 0.36072 0.0
H1970 H 0.79224 0.6157 0.33448 0.0
C1971 C 0.84829 0.60913 0.36099 0.0
C1972 C 0.83321 0.64642 0.36973 0.0
C1973 C 0.86344 0.6038 0.36346 0.0
C1974 C 0.75129 0.63943 0.36368 0.0
C1975 C 0.77207 0.64497 0.36149 0.0
C1976 C 0.80371 0.62468 0.34419 0.0
C1977 C 0.85354 0.6299 0.35993 0.0
C1978 C 0.83682 0.63475 0.35742 0.0
C1979 C 0.77757 0.62962 0.35997 0.0
C1980 C 0.79917 0.63463 0.35743 0.0
H1981 H 0.90567 0.65211 0.36475 0.0
H1982 H 0.87867 0.66151 0.36084 0.0
H1983 H 0.8249 0.61581 0.33446 0.0
H1984 H 0.73026 0.58705 0.36431 0.0
H1985 H 0.76607 0.59668 0.36025 0.0
C1986 C 0.11196 0.75178 0.86255 0.0
C1987 C 0.11401 0.73705 0.8723 0.0
C1988 C 0.1268 0.77277 0.86384 0.0
C1989 C 0.17043 0.81056 0.89094 0.0
H1990 H 0.1952 0.83713 0.8474 0.0
C1991 C 0.25598 0.86889 0.88382 0.0
C1992 C 0.26263 0.88563 0.87239 0.0
C1993 C 0.2351 0.85424 0.88522 0.0
C1994 C 0.1882 0.83018 0.85968 0.0
H1995 H 0.13255 0.73281 0.8917 0.0
H1996 H 0.1582 0.76913 0.89394 0.0
H1997 H 0.16255 0.80453 0.84737 0.0
H1998 H 0.25253 0.90055 0.8539 0.0
H1999 H 0.21581 0.87457 0.8562 0.0
H2000 H 0.19661 0.83564 0.90321 0.0
C2001 C 0.1452 0.76464 0.88533 0.0
C2002 C 0.16949 0.8115 0.85966 0.0
C2003 C 0.13058 0.74376 0.88391 0.0
C2004 C 0.24785 0.88779 0.86281 0.0
C2005 C 0.22687 0.87292 0.86407 0.0
C2006 C 0.18911 0.82918 0.89096 0.0
C2007 C 0.14372 0.77936 0.8751 0.0
C2008 C 0.16086 0.80108 0.87527 0.0
C2009 C 0.22034 0.85586 0.87515 0.0
C2010 C 0.19861 0.83875 0.8753 0.0
H2011 H 0.09932 0.74705 0.8535 0.0
H2012 H 0.12523 0.7838 0.85584 0.0
H2013 H 0.16393 0.80308 0.90319 0.0
H2014 H 0.26697 0.86684 0.89146 0.0
H2015 H 0.23063 0.84114 0.89369 0.0
C2016 C 0.3601 0.1118 0.35989 0.0
C2017 C 0.37624 0.11362 0.37043 0.0
C2018 C 0.3539 0.12663 0.36074 0.0
C2019 C 0.35778 0.16942 0.38782 0.0
H2020 H 0.35928 0.19573 0.3442 0.0
C2021 C 0.38556 0.25516 0.38213 0.0
C2022 C 0.37644 0.26234 0.37018 0.0
C2023 C 0.37919 0.23423 0.38317 0.0
C2024 C 0.35829 0.18829 0.35647 0.0
H2025 H 0.3978 0.13173 0.39071 0.0
H2026 H 0.387 0.15734 0.39223 0.0
H2027 H 0.35923 0.16306 0.34426 0.0
H2028 H 0.35299 0.2531 0.35032 0.0
H2029 H 0.34198 0.21625 0.35198 0.0
H2030 H 0.3579 0.19514 0.40005 0.0
C2031 C 0.37906 0.14454 0.38333 0.0
C2032 C 0.35827 0.16957 0.35651 0.0
C2033 C 0.38539 0.12995 0.38234 0.0
C2034 C 0.36029 0.248 0.35965 0.0
C2035 C 0.35406 0.22696 0.36055 0.0
C2036 C 0.35781 0.18809 0.38779 0.0
C2037 C 0.36351 0.14329 0.37235 0.0
C2038 C 0.35888 0.16041 0.3722 0.0
C2039 C 0.36363 0.21992 0.3722 0.0
C2040 C 0.35894 0.19815 0.37213 0.0
H2041 H 0.35277 0.09937 0.35059 0.0
H2042 H 0.34183 0.12527 0.35216 0.0
H2043 H 0.35785 0.1625 0.40011 0.0
H2044 H 0.39796 0.2658 0.3905 0.0
H2045 H 0.3871 0.22938 0.3921 0.0
C2046 C 0.2483 0.35891 0.86238 0.0
C2047 C 0.26349 0.37944 0.866 0.0
C2048 C 0.22755 0.35359 0.86045 0.0
C2049 C 0.19674 0.37638 0.84747 0.0
H2050 H 0.15394 0.34058 0.87968 0.0
C2051 C 0.13576 0.39302 0.87129 0.0
C2052 C 0.11512 0.37906 0.86692 0.0
C2053 C 0.1509 0.38759 0.86928 0.0
C2054 C 0.16557 0.35014 0.87029 0.0
H2055 H 0.26869 0.41034 0.87066 0.0
H2056 H 0.23295 0.40112 0.86708 0.0
H2057 H 0.18705 0.34096 0.87915 0.0
H2058 H 0.09405 0.34801 0.85783 0.0
H2059 H 0.12093 0.33839 0.85458 0.0
H2060 H 0.17605 0.38673 0.83949 0.0
C2061 C 0.23701 0.38917 0.86571 0.0
C2062 C 0.18443 0.35037 0.86999 0.0
C2063 C 0.25749 0.39439 0.86787 0.0
C2064 C 0.10983 0.35913 0.86122 0.0
C2065 C 0.12512 0.3536 0.85938 0.0
C2066 C 0.17802 0.37616 0.84777 0.0
C2067 C 0.22189 0.36883 0.8618 0.0
C2068 C 0.20045 0.36422 0.85912 0.0
C2069 C 0.1458 0.36802 0.86305 0.0
C2070 C 0.16267 0.36372 0.85969 0.0
H2071 H 0.25246 0.34705 0.86093 0.0
H2072 H 0.21606 0.33777 0.85753 0.0
H2073 H 0.20884 0.38708 0.8389 0.0
H2074 H 0.14044 0.40844 0.87582 0.0
H2075 H 0.16677 0.39887 0.87231 0.0
C2076 C 0.75083 0.11067 0.36083 0.0
C2077 C 0.73614 0.11579 0.36674 0.0
C2078 C 0.7716 0.12605 0.35892 0.0
C2079 C 0.80164 0.17873 0.34711 0.0
H2080 H 0.84591 0.18889 0.37887 0.0
C2081 C 0.86275 0.2591 0.3657 0.0
C2082 C 0.88373 0.26488 0.36504 0.0
C2083 C 0.84749 0.23861 0.36354 0.0
C2084 C 0.83388 0.18597 0.36961 0.0
H2085 H 0.73198 0.14097 0.37589 0.0
H2086 H 0.7678 0.16747 0.37225 0.0
H2087 H 0.8134 0.1556 0.37965 0.0
H2088 H 0.90513 0.2535 0.36197 0.0
H2089 H 0.878 0.21712 0.35855 0.0
H2090 H 0.82131 0.20939 0.33782 0.0
C2091 C 0.76327 0.15164 0.36913 0.0
C2092 C 0.81537 0.167 0.37006 0.0
C2093 C 0.74275 0.1364 0.37121 0.0
C2094 C 0.88908 0.24951 0.36248 0.0
C2095 C 0.87364 0.22876 0.36055 0.0
C2096 C 0.82001 0.19755 0.34665 0.0
C2097 C 0.77777 0.14668 0.36272 0.0
C2098 C 0.79887 0.16367 0.35929 0.0
C2099 C 0.85272 0.22326 0.3608 0.0
C2100 C 0.83591 0.20171 0.35843 0.0
H2101 H 0.74622 0.09492 0.35735 0.0
H2102 H 0.78265 0.12199 0.35396 0.0
H2103 H 0.78906 0.17642 0.33871 0.0
H2104 H 0.85801 0.27047 0.36764 0.0
H2105 H 0.83147 0.23473 0.36408 0.0
C2106 C 0.61119 0.73974 0.88585 0.0
C2107 C 0.61974 0.734 0.87227 0.0
C2108 C 0.61478 0.75983 0.88703 0.0
C2109 C 0.64564 0.81345 0.87121 0.0
H2110 H 0.59421 0.81307 0.87877 0.0
C2111 C 0.63296 0.88388 0.861 0.0
C2112 C 0.61922 0.88534 0.87252 0.0
C2113 C 0.6365 0.8672 0.86207 0.0
C2114 C 0.60879 0.81355 0.87692 0.0
H2115 H 0.63995 0.74512 0.84995 0.0
H2116 H 0.64597 0.78047 0.85184 0.0
H2117 H 0.59438 0.78081 0.8787 0.0
H2118 H 0.59996 0.87173 0.89514 0.0
H2119 H 0.60652 0.84312 0.89727 0.0
H2120 H 0.65991 0.84645 0.86923 0.0
C2121 C 0.63661 0.76935 0.86163 0.0
C2122 C 0.60888 0.79501 0.87686 0.0
C2123 C 0.63313 0.74914 0.86053 0.0
C2124 C 0.61035 0.8708 0.88588 0.0
C2125 C 0.61404 0.85436 0.88706 0.0
C2126 C 0.64556 0.83217 0.87128 0.0
C2127 C 0.62683 0.77465 0.87455 0.0
C2128 C 0.6273 0.79471 0.87424 0.0
C2129 C 0.62645 0.85188 0.87475 0.0
C2130 C 0.62712 0.83238 0.87437 0.0
H2131 H 0.60109 0.72849 0.89528 0.0
H2132 H 0.60747 0.76359 0.8974 0.0
H2133 H 0.66006 0.81366 0.8691 0.0
H2134 H 0.64001 0.89492 0.85058 0.0
H2135 H 0.64615 0.8657 0.85241 0.0
C2136 C 0.35775 0.95607 0.94184 0.0
C2137 C 0.36153 0.96976 0.92808 0.0
C2138 C 0.36064 0.96302 0.95891 0.0
C2139 C 0.368 0.00754 0.98607 0.0
H2140 H 0.38658 0.98207 0.01988 0.0
C2141 C 0.40043 0.04089 0.05405 0.0
C2142 C 0.39036 0.02735 0.06789 0.0
C2143 C 0.39613 0.03381 0.03701 0.0
C2144 C 0.38127 0.9892 0.01056 0.0
H2145 H 0.37147 0.00146 0.92131 0.0
H2146 H 0.37758 0.01392 0.95106 0.0
H2147 H 0.38142 0.9703 0.98996 0.0
H2148 H 0.36802 0.99583 0.07482 0.0
H2149 H 0.36106 0.98328 0.04489 0.0
H2150 H 0.3689 0.0271 0.00676 0.0
C2151 C 0.37168 0.99764 0.94879 0.0
C2152 C 0.37816 0.98241 0.99342 0.0
C2153 C 0.36834 0.99057 0.9317 0.0
C2154 C 0.37597 0.00658 0.06438 0.0
C2155 C 0.37203 0.9994 0.04733 0.0
C2156 C 0.37155 0.01462 0.00315 0.0
C2157 C 0.36783 0.98395 0.96266 0.0
C2158 C 0.37136 0.9914 0.98092 0.0
C2159 C 0.38205 0.01299 0.03353 0.0
C2160 C 0.37811 0.00543 0.01552 0.0
H2161 H 0.35223 0.93987 0.93943 0.0
H2162 H 0.35698 0.95186 0.96916 0.0
H2163 H 0.36238 0.01461 0.97698 0.0
H2164 H 0.41151 0.057 0.05638 0.0
H2165 H 0.40409 0.04452 0.02654 0.0
C2166 C 0.39975 0.35597 0.44315 0.0
C2167 C 0.39054 0.36008 0.42902 0.0
C2168 C 0.39552 0.35939 0.46003 0.0
C2169 C 0.38216 0.3913 0.48544 0.0
H2170 H 0.36189 0.34766 0.51973 0.0
C2171 C 0.35878 0.40307 0.55362 0.0
C2172 C 0.36227 0.39324 0.56761 0.0
C2173 C 0.36163 0.39859 0.53666 0.0
C2174 C 0.36789 0.36016 0.51044 0.0
H2175 H 0.36979 0.37103 0.42138 0.0
H2176 H 0.3629 0.37762 0.45101 0.0
H2177 H 0.36827 0.34071 0.49022 0.0
H2178 H 0.37172 0.37124 0.57491 0.0
H2179 H 0.37771 0.36413 0.54538 0.0
H2180 H 0.38274 0.41108 0.50558 0.0
C2181 C 0.37318 0.37154 0.44894 0.0
C2182 C 0.37137 0.35608 0.49351 0.0
C2183 C 0.37705 0.3677 0.43206 0.0
C2184 C 0.3688 0.37895 0.56434 0.0
C2185 C 0.37207 0.37477 0.54738 0.0
C2186 C 0.37908 0.39552 0.50243 0.0
C2187 C 0.38235 0.36736 0.46305 0.0
C2188 C 0.37846 0.37159 0.48089 0.0
C2189 C 0.36845 0.38448 0.53328 0.0
C2190 C 0.37183 0.37999 0.51517 0.0
H2191 H 0.41013 0.34999 0.44118 0.0
H2192 H 0.40282 0.35615 0.47073 0.0
H2193 H 0.38786 0.40356 0.47592 0.0
H2194 H 0.3535 0.41399 0.55576 0.0
H2195 H 0.35821 0.40605 0.52621 0.0
C2196 C 0.0445 0.40172 0.94235 0.0
C2197 C 0.03096 0.39232 0.92839 0.0
C2198 C 0.03718 0.39747 0.95933 0.0
C2199 C 0.99231 0.38362 0.98538 0.0
H2200 H 0.01631 0.3632 0.01895 0.0
C2201 C 0.95796 0.35944 0.05365 0.0
C2202 C 0.97148 0.36303 0.06749 0.0
C2203 C 0.96509 0.36232 0.03663 0.0
C2204 C 0.00964 0.36923 0.00986 0.0
H2205 H 0.99917 0.37127 0.92113 0.0
H2206 H 0.98626 0.36437 0.95092 0.0
H2207 H 0.0293 0.37 0.98933 0.0
H2208 H 0.00305 0.37262 0.07452 0.0
H2209 H 0.0158 0.37867 0.04487 0.0
H2210 H 0.97326 0.38381 0.00583 0.0
C2211 C 0.00255 0.37479 0.94865 0.0
C2212 C 0.01701 0.37296 0.99288 0.0
C2213 C 0.00994 0.37869 0.93168 0.0
C2214 C 0.99228 0.36962 0.06404 0.0
C2215 C 0.99952 0.37293 0.04702 0.0
C2216 C 0.98521 0.3803 0.00242 0.0
C2217 C 0.01613 0.3841 0.96259 0.0
C2218 C 0.00833 0.38009 0.98051 0.0
C2219 C 0.98602 0.36931 0.03306 0.0
C2220 C 0.9937 0.37296 0.0149 0.0
H2221 H 0.0608 0.4122 0.94018 0.0
H2222 H 0.04789 0.40487 0.96991 0.0
H2223 H 0.98556 0.38935 0.97606 0.0
H2224 H 0.94178 0.35411 0.05594 0.0
H2225 H 0.95409 0.35887 0.02628 0.0
C2226 C 0.64375 0.04532 0.44325 0.0
C2227 C 0.63949 0.03173 0.42933 0.0
C2228 C 0.64056 0.03805 0.46025 0.0
C2229 C 0.63134 0.99244 0.48673 0.0
H2230 H 0.61321 0.01798 0.52087 0.0
C2231 C 0.59775 0.95735 0.55386 0.0
C2232 C 0.60754 0.97046 0.568 0.0
C2233 C 0.60227 0.96499 0.53699 0.0
C2234 C 0.61839 0.01082 0.51145 0.0
H2235 H 0.62838 0.99989 0.42217 0.0
H2236 H 0.62184 0.98696 0.45174 0.0
H2237 H 0.6194 0.03068 0.49119 0.0
H2238 H 0.62953 0.00183 0.57565 0.0
H2239 H 0.63693 0.01533 0.54604 0.0
H2240 H 0.62937 0.972 0.50704 0.0
C2241 C 0.62833 0.00337 0.44968 0.0
C2242 C 0.62207 0.01814 0.49446 0.0
C2243 C 0.63193 0.01073 0.43269 0.0
C2244 C 0.62179 0.99139 0.56498 0.0
C2245 C 0.62598 0.99912 0.5481 0.0
C2246 C 0.62724 0.98487 0.50364 0.0
C2247 C 0.63262 0.01693 0.46372 0.0
C2248 C 0.62868 0.0091 0.48185 0.0
C2249 C 0.61633 0.98595 0.53398 0.0
C2250 C 0.6208 0.99404 0.51614 0.0
H2251 H 0.64982 0.06166 0.44104 0.0
H2252 H 0.64453 0.04909 0.47066 0.0
H2253 H 0.63681 0.98533 0.47755 0.0
H2254 H 0.58677 0.94113 0.55581 0.0
H2255 H 0.59459 0.95459 0.52628 0.0
C2256 C 0.63553 0.62375 0.06341 0.0
C2257 C 0.64301 0.61025 0.06694 0.0
C2258 C 0.63194 0.62733 0.04636 0.0
C2259 C 0.64742 0.62806 0.00195 0.0
H2260 H 0.59226 0.61605 0.9897 0.0
C2261 C 0.59987 0.63955 0.94172 0.0
C2262 C 0.60957 0.63595 0.9277 0.0
C2263 C 0.6046 0.63699 0.95866 0.0
C2264 C 0.60786 0.61989 0.9929 0.0
H2265 H 0.65321 0.5904 0.05548 0.0
H2266 H 0.64748 0.59718 0.02561 0.0
H2267 H 0.59991 0.61158 0.01948 0.0
H2268 H 0.6317 0.6267 0.92033 0.0
H2269 H 0.63928 0.62121 0.9499 0.0
H2270 H 0.65573 0.63709 0.97562 0.0
C2271 C 0.64416 0.60472 0.03606 0.0
C2272 C 0.61216 0.61718 0.00995 0.0
C2273 C 0.64732 0.60079 0.05312 0.0
C2274 C 0.62407 0.62968 0.93093 0.0
C2275 C 0.6285 0.62668 0.9479 0.0
C2276 C 0.64326 0.63119 0.98493 0.0
C2277 C 0.63623 0.61783 0.03257 0.0
C2278 C 0.63193 0.62117 0.01459 0.0
C2279 C 0.61883 0.63032 0.96202 0.0
C2280 C 0.62339 0.62708 0.98015 0.0
H2281 H 0.63204 0.63121 0.07383 0.0
H2282 H 0.62589 0.63756 0.04392 0.0
H2283 H 0.66283 0.63133 0.0053 0.0
H2284 H 0.5888 0.64466 0.93962 0.0
H2285 H 0.5972 0.64047 0.96912 0.0
C2286 C 0.00871 0.63009 0.56581 0.0
C2287 C 0.02962 0.63667 0.56884 0.0
C2288 C 0.00099 0.62659 0.54893 0.0
C2289 C 0.01527 0.64231 0.50459 0.0
H2290 H 0.96933 0.58883 0.49191 0.0
C2291 C 0.98936 0.6218 0.43362 0.0
C2292 C 0.96834 0.60844 0.43023 0.0
C2293 C 0.99671 0.6254 0.45061 0.0
C2294 C 0.9819 0.604 0.49525 0.0
H2295 H 0.05893 0.64508 0.55668 0.0
H2296 H 0.04547 0.63951 0.52712 0.0
H2297 H 0.98208 0.59505 0.52158 0.0
H2298 H 0.93839 0.58885 0.44186 0.0
H2299 H 0.95095 0.59584 0.47151 0.0
H2300 H 0.01479 0.65167 0.47859 0.0
C2301 C 0.03508 0.63683 0.53783 0.0
C2302 C 0.98926 0.60746 0.51223 0.0
C2303 C 0.04272 0.6399 0.55471 0.0
C2304 C 0.95473 0.59905 0.44412 0.0
C2305 C 0.96199 0.60296 0.46112 0.0
C2306 C 0.00766 0.63901 0.48769 0.0
C2307 C 0.01415 0.63007 0.53483 0.0
C2308 C 0.00608 0.62658 0.51699 0.0
C2309 C 0.98312 0.61604 0.46461 0.0
C2310 C 0.99096 0.61975 0.48274 0.0
H2311 H 0.99829 0.62745 0.57648 0.0
H2312 H 0.9848 0.62144 0.54687 0.0
H2313 H 0.02816 0.65726 0.50806 0.0
H2314 H 0.00022 0.62913 0.42312 0.0
H2315 H 0.01312 0.63523 0.45269 0.0
C2316 C 0.62135 0.99319 0.9306 0.0
C2317 C 0.607 0.97238 0.92718 0.0
C2318 C 0.62554 0.0004 0.94764 0.0
C2319 C 0.62717 0.9852 0.99155 0.0
H2320 H 0.61663 0.02877 0.00578 0.0
C2321 C 0.6304 0.00771 0.0634 0.0
C2322 C 0.63673 0.02833 0.06739 0.0
C2323 C 0.62724 0.00105 0.0462 0.0
C2324 C 0.62009 0.01689 0.00203 0.0
H2325 H 0.5861 0.94273 0.93883 0.0
H2326 H 0.59396 0.95527 0.96862 0.0
H2327 H 0.61114 0.01737 0.97575 0.0
H2328 H 0.64542 0.05833 0.05659 0.0
H2329 H 0.641 0.04708 0.02665 0.0
H2330 H 0.63684 0.98505 0.01752 0.0
C2331 C 0.6017 0.96598 0.9581 0.0
C2332 C 0.61679 0.01031 0.98482 0.0
C2333 C 0.59715 0.95887 0.94108 0.0
C2334 C 0.64027 0.04226 0.05389 0.0
C2335 C 0.63757 0.03573 0.0367 0.0
C2336 C 0.63091 0.99207 0.00868 0.0
C2337 C 0.61582 0.9868 0.9615 0.0
C2338 C 0.62015 0.99432 0.97951 0.0
C2339 C 0.63079 0.01498 0.03258 0.0
C2340 C 0.62727 0.00791 0.01422 0.0
H2341 H 0.62913 0.00392 0.92011 0.0
H2342 H 0.63652 0.01653 0.95003 0.0
H2343 H 0.62997 0.97291 0.98765 0.0
H2344 H 0.62745 0.99663 0.07359 0.0
H2345 H 0.62165 0.98488 0.04364 0.0
C2346 C 0.63337 0.62023 0.4337 0.0
C2347 C 0.64095 0.6068 0.43031 0.0
C2348 C 0.62987 0.62405 0.4507 0.0
C2349 C 0.62386 0.60327 0.49553 0.0
H2350 H 0.63103 0.65672 0.50786 0.0
C2351 C 0.62285 0.62995 0.56589 0.0
C2352 C 0.60856 0.63664 0.56868 0.0
C2353 C 0.62724 0.62634 0.5491 0.0
C2354 C 0.62895 0.64172 0.50453 0.0
H2355 H 0.65137 0.58726 0.44197 0.0
H2356 H 0.64622 0.59462 0.47163 0.0
H2357 H 0.63858 0.65073 0.47844 0.0
H2358 H 0.58795 0.64516 0.55616 0.0
H2359 H 0.5961 0.63939 0.52677 0.0
H2360 H 0.61489 0.59467 0.52194 0.0
C2361 C 0.64219 0.60165 0.46124 0.0
C2362 C 0.63311 0.63819 0.48766 0.0
C2363 C 0.64529 0.59752 0.44422 0.0
C2364 C 0.59894 0.6399 0.55439 0.0
C2365 C 0.60366 0.63672 0.5376 0.0
C2366 C 0.6201 0.60697 0.51249 0.0
C2367 C 0.63428 0.61485 0.46472 0.0
C2368 C 0.63044 0.61884 0.48286 0.0
C2369 C 0.61776 0.62982 0.53484 0.0
C2370 C 0.62244 0.62615 0.51707 0.0
H2371 H 0.62974 0.62748 0.4232 0.0
H2372 H 0.62337 0.63395 0.45278 0.0
H2373 H 0.62121 0.58805 0.49232 0.0
H2374 H 0.63046 0.62729 0.57669 0.0
H2375 H 0.63822 0.62108 0.54723 0.0
C2376 C 0.98983 0.62411 0.06376 0.0
C2377 C 0.96891 0.61045 0.06729 0.0
C2378 C 0.99699 0.62781 0.04671 0.0
C2379 C 0.982 0.60618 0.00217 0.0
H2380 H 0.02759 0.65972 0.98907 0.0
C2381 C 0.00833 0.63165 0.93144 0.0
C2382 C 0.02929 0.63846 0.92845 0.0
C2383 C 0.00064 0.62837 0.94832 0.0
C2384 C 0.01487 0.6447 0.99262 0.0
H2385 H 0.93892 0.59047 0.05584 0.0
H2386 H 0.95114 0.59764 0.02611 0.0
H2387 H 0.01442 0.65411 0.01862 0.0
H2388 H 0.05873 0.64757 0.94068 0.0
H2389 H 0.04532 0.64236 0.97022 0.0
H2390 H 0.98217 0.59715 0.97587 0.0
C2391 C 0.96226 0.60492 0.03643 0.0
C2392 C 0.00739 0.64139 0.00956 0.0
C2393 C 0.9552 0.60089 0.05348 0.0
C2394 C 0.04248 0.6422 0.94261 0.0
C2395 C 0.03487 0.63935 0.95948 0.0
C2396 C 0.98923 0.60965 0.98516 0.0
C2397 C 0.9833 0.61827 0.0328 0.0
C2398 C 0.99095 0.62202 0.01462 0.0
C2399 C 0.01388 0.63229 0.96245 0.0
C2400 C 0.00581 0.62887 0.9803 0.0
H2401 H 0.00076 0.63158 0.07419 0.0
H2402 H 0.01335 0.63788 0.04452 0.0
H2403 H 0.96963 0.59094 0.00559 0.0
H2404 H 0.99783 0.62862 0.92074 0.0
H2405 H 0.98439 0.62298 0.95035 0.0
C2406 C 0.35972 0.95687 0.55416 0.0
C2407 C 0.36312 0.9701 0.56822 0.0
C2408 C 0.36266 0.96434 0.53723 0.0
C2409 C 0.39206 0.00996 0.51141 0.0
H2410 H 0.34795 0.98416 0.4777 0.0
C2411 C 0.40064 0.04429 0.44326 0.0
C2412 C 0.39129 0.03072 0.42933 0.0
C2413 C 0.39666 0.03701 0.46025 0.0
C2414 C 0.36058 0.99136 0.48682 0.0
H2415 H 0.37242 0.00151 0.57568 0.0
H2416 H 0.37821 0.01472 0.54598 0.0
H2417 H 0.3423 0.971 0.50725 0.0
H2418 H 0.37058 0.99888 0.42216 0.0
H2419 H 0.36436 0.98591 0.45174 0.0
H2420 H 0.41074 0.02975 0.49105 0.0
C2421 C 0.37303 0.99854 0.54813 0.0
C2422 C 0.35725 0.98388 0.50377 0.0
C2423 C 0.36967 0.99098 0.56506 0.0
C2424 C 0.37789 0.0097 0.43269 0.0
C2425 C 0.37423 0.00232 0.44968 0.0
C2426 C 0.39556 0.01719 0.49439 0.0
C2427 C 0.36945 0.98525 0.5341 0.0
C2428 C 0.37293 0.99319 0.5162 0.0
C2429 C 0.38356 0.01588 0.46371 0.0
C2430 C 0.37984 0.00806 0.48185 0.0
H2431 H 0.35456 0.94068 0.55621 0.0
H2432 H 0.3599 0.95385 0.52658 0.0
H2433 H 0.40446 0.01722 0.52076 0.0
H2434 H 0.41086 0.06064 0.44105 0.0
H2435 H 0.40375 0.04805 0.47065 0.0
C2436 C 0.40063 0.35686 0.05326 0.0
C2437 C 0.39108 0.36066 0.06732 0.0
C2438 C 0.39584 0.35945 0.03632 0.0
C2439 C 0.37994 0.38904 0.01049 0.0
H2440 H 0.36137 0.34499 0.9767 0.0
C2441 C 0.36643 0.37544 0.93173 0.0
C2442 C 0.3591 0.38909 0.92842 0.0
C2443 C 0.36989 0.37151 0.94872 0.0
C2444 C 0.36687 0.35759 0.98586 0.0
H2445 H 0.36913 0.37016 0.07475 0.0
H2446 H 0.36127 0.37533 0.04502 0.0
H2447 H 0.36868 0.33914 0.00628 0.0
H2448 H 0.34891 0.40876 0.9402 0.0
H2449 H 0.35394 0.40119 0.96977 0.0
H2450 H 0.37914 0.40789 0.99016 0.0
C2451 C 0.37224 0.37012 0.04719 0.0
C2452 C 0.37089 0.35414 0.00282 0.0
C2453 C 0.37668 0.36711 0.06414 0.0
C2454 C 0.35484 0.39837 0.94238 0.0
C2455 C 0.35788 0.39412 0.95935 0.0
C2456 C 0.37634 0.39264 0.99348 0.0
C2457 C 0.38176 0.36628 0.03317 0.0
C2458 C 0.37737 0.36981 0.01527 0.0
C2459 C 0.36569 0.38082 0.96278 0.0
C2460 C 0.36964 0.37694 0.98092 0.0
H2461 H 0.4117 0.35176 0.05534 0.0
H2462 H 0.40344 0.3565 0.02567 0.0
H2463 H 0.38518 0.40143 0.01987 0.0
H2464 H 0.36994 0.36817 0.92117 0.0
H2465 H 0.37624 0.36147 0.95077 0.0
C2466 C 0.04329 0.40351 0.55394 0.0
C2467 C 0.02995 0.39358 0.56788 0.0
C2468 C 0.03598 0.39915 0.53697 0.0
C2469 C 0.99139 0.36067 0.51071 0.0
H2470 H 0.01479 0.40403 0.47615 0.0
C2471 C 0.95564 0.35622 0.44322 0.0
C2472 C 0.96906 0.36021 0.42919 0.0
C2473 C 0.96317 0.35975 0.46014 0.0
C2474 C 0.00824 0.39178 0.48569 0.0
H2475 H 0.99845 0.37159 0.57512 0.0
H2476 H 0.98541 0.36469 0.54558 0.0
H2477 H 0.02736 0.41163 0.50585 0.0
H2478 H 0.00082 0.37108 0.42177 0.0
H2479 H 0.01408 0.37786 0.45145 0.0
H2480 H 0.97166 0.34115 0.49048 0.0
C2481 C 0.00169 0.3753 0.54761 0.0
C2482 C 0.01549 0.39605 0.50269 0.0
C2483 C 0.00911 0.37936 0.56458 0.0
C2484 C 0.99014 0.36783 0.43236 0.0
C2485 C 0.99774 0.37178 0.44928 0.0
C2486 C 0.98387 0.35654 0.49378 0.0
C2487 C 0.01505 0.38505 0.53355 0.0
C2488 C 0.00722 0.38053 0.51544 0.0
C2489 C 0.98429 0.36772 0.46328 0.0
C2490 C 0.9923 0.37204 0.48115 0.0
H2491 H 0.0595 0.41438 0.55612 0.0
H2492 H 0.04687 0.40664 0.52654 0.0
H2493 H 0.98491 0.34819 0.52001 0.0
H2494 H 0.9393 0.35025 0.44113 0.0
H2495 H 0.95256 0.3566 0.47077 0.0
C2496 C 0.46845 0.06503 0.13108 0.0
C2497 C 0.44879 0.0489 0.12637 0.0
C2498 C 0.48508 0.06165 0.13249 0.0
C2499 C 0.50527 0.0292 0.11708 0.0
H2500 H 0.54374 0.05507 0.15499 0.0
C2501 C 0.58302 0.02924 0.12313 0.0
C2502 C 0.6001 0.04884 0.12663 0.0
C2503 C 0.56289 0.02591 0.12439 0.0
C2504 C 0.53314 0.04774 0.14433 0.0
H2505 H 0.43129 0.01648 0.11936 0.0
H2506 H 0.46068 0.01067 0.12167 0.0
H2507 H 0.51119 0.05509 0.15489 0.0
H2508 H 0.60929 0.08023 0.13429 0.0
H2509 H 0.57448 0.0744 0.13645 0.0
H2510 H 0.52766 0.02246 0.10626 0.0
C2511 C 0.46302 0.02591 0.1243 0.0
C2512 C 0.51452 0.04775 0.14428 0.0
C2513 C 0.44622 0.02925 0.12303 0.0
C2514 C 0.59658 0.06492 0.13152 0.0
C2515 C 0.57657 0.06156 0.13289 0.0
C2516 C 0.52399 0.0292 0.11713 0.0
C2517 C 0.48258 0.04209 0.12915 0.0
C2518 C 0.50069 0.03908 0.13039 0.0
C2519 C 0.5595 0.04205 0.12936 0.0
C2520 C 0.53838 0.03907 0.13049 0.0
H2521 H 0.47109 0.08038 0.13373 0.0
H2522 H 0.50004 0.07452 0.13594 0.0
H2523 H 0.49491 0.02246 0.10618 0.0
H2524 H 0.58518 0.01651 0.11932 0.0
H2525 H 0.54999 0.01071 0.12162 0.0
C2526 C 0.55026 0.58628 0.62441 0.0
C2527 C 0.54857 0.60403 0.62678 0.0
C2528 C 0.53279 0.56658 0.62557 0.0
C2529 C 0.47976 0.53925 0.64317 0.0
H2530 H 0.46894 0.49873 0.60739 0.0
C2531 C 0.39857 0.47184 0.63009 0.0
C2532 C 0.39598 0.45229 0.62631 0.0
C2533 C 0.41825 0.48908 0.63141 0.0
C2534 C 0.4719 0.50975 0.61764 0.0
H2535 H 0.5271 0.61487 0.63233 0.0
H2536 H 0.4969 0.58076 0.63426 0.0
H2537 H 0.50173 0.53132 0.60751 0.0
H2538 H 0.41221 0.43561 0.62101 0.0
H2539 H 0.44672 0.46591 0.62332 0.0
H2540 H 0.44984 0.51796 0.6531 0.0
C2541 C 0.51171 0.582 0.63169 0.0
C2542 C 0.49067 0.5284 0.61771 0.0
C2543 C 0.52907 0.60161 0.63045 0.0
C2544 C 0.41363 0.45043 0.62392 0.0
C2545 C 0.4334 0.46778 0.62517 0.0
C2546 C 0.46106 0.52066 0.6431 0.0
C2547 C 0.51334 0.56426 0.62926 0.0
C2548 C 0.49457 0.54354 0.63024 0.0
C2549 C 0.43589 0.48728 0.62898 0.0
C2550 C 0.4567 0.50591 0.6301 0.0
H2551 H 0.56504 0.58756 0.62158 0.0
H2552 H 0.53452 0.55317 0.62372 0.0
H2553 H 0.4825 0.55043 0.65322 0.0
H2554 H 0.38539 0.47394 0.632 0.0
H2555 H 0.41963 0.50393 0.63407 0.0
C2556 C 0.93173 0.40271 0.12569 0.0
C2557 C 0.94875 0.39968 0.124 0.0
C2558 C 0.93424 0.42239 0.12453 0.0
C2559 C 0.97063 0.47739 0.1292 0.0
H2560 H 0.93025 0.48215 0.10109 0.0
C2561 C 0.9676 0.55362 0.12082 0.0
C2562 C 0.9477 0.551 0.12263 0.0
C2563 C 0.97034 0.53641 0.11989 0.0
C2564 C 0.94162 0.48108 0.10901 0.0
H2565 H 0.98197 0.41527 0.1204 0.0
H2566 H 0.98632 0.44996 0.11851 0.0
H2567 H 0.93046 0.44973 0.10163 0.0
H2568 H 0.91517 0.52814 0.12532 0.0
H2569 H 0.91998 0.49854 0.12372 0.0
H2570 H 0.98137 0.50872 0.13693 0.0
C2571 C 0.97103 0.43688 0.12063 0.0
C2572 C 0.94175 0.46253 0.10931 0.0
C2573 C 0.96851 0.41703 0.12167 0.0
C2574 C 0.93071 0.53086 0.12374 0.0
C2575 C 0.93344 0.5138 0.12273 0.0
C2576 C 0.97048 0.49605 0.12892 0.0
C2577 C 0.95382 0.43965 0.12173 0.0
C2578 C 0.95582 0.46028 0.11979 0.0
C2579 C 0.95322 0.51634 0.12062 0.0
C2580 C 0.95554 0.49783 0.11922 0.0
H2581 H 0.9163 0.38983 0.12771 0.0
H2582 H 0.92075 0.42412 0.1258 0.0
H2583 H 0.98164 0.47604 0.13739 0.0
H2584 H 0.98104 0.56891 0.12 0.0
H2585 H 0.98576 0.5388 0.11828 0.0
C2586 C 0.39866 0.92704 0.63082 0.0
C2587 C 0.39618 0.94406 0.62701 0.0
C2588 C 0.41829 0.92936 0.63209 0.0
C2589 C 0.47187 0.962 0.61799 0.0
H2590 H 0.48251 0.93181 0.65345 0.0
C2591 C 0.55008 0.96344 0.62426 0.0
C2592 C 0.54835 0.94399 0.62665 0.0
C2593 C 0.53265 0.96574 0.62553 0.0
C2594 C 0.47976 0.94028 0.64343 0.0
H2595 H 0.41256 0.97695 0.62162 0.0
H2596 H 0.44699 0.98093 0.62383 0.0
H2597 H 0.44996 0.93184 0.65355 0.0
H2598 H 0.52685 0.91172 0.63235 0.0
H2599 H 0.49672 0.91575 0.63445 0.0
H2600 H 0.50158 0.97006 0.60769 0.0
C2601 C 0.43362 0.96579 0.62575 0.0
C2602 C 0.46112 0.9403 0.64349 0.0
C2603 C 0.4139 0.9635 0.62455 0.0
C2604 C 0.52885 0.92696 0.63044 0.0
C2605 C 0.51154 0.92928 0.63178 0.0
C2606 C 0.49058 0.96198 0.61794 0.0
C2607 C 0.436 0.94872 0.62956 0.0
C2608 C 0.45675 0.95074 0.63054 0.0
C2609 C 0.51321 0.94867 0.62934 0.0
C2610 C 0.49449 0.9507 0.63043 0.0
H2611 H 0.38543 0.91182 0.63278 0.0
H2612 H 0.41958 0.91583 0.63475 0.0
H2613 H 0.4689 0.97008 0.60778 0.0
H2614 H 0.56485 0.9769 0.62134 0.0
H2615 H 0.53442 0.98089 0.62367 0.0
C2616 C 0.58689 0.55319 0.12019 0.0
C2617 C 0.60415 0.5505 0.12182 0.0
C2618 C 0.56694 0.53604 0.11908 0.0
C2619 C 0.54021 0.48097 0.10729 0.0
H2620 H 0.49536 0.47524 0.13634 0.0
C2621 C 0.47224 0.40223 0.12382 0.0
C2622 C 0.4521 0.39909 0.12267 0.0
C2623 C 0.48931 0.42197 0.1225 0.0
C2624 C 0.50765 0.47679 0.12794 0.0
H2625 H 0.61377 0.52755 0.12396 0.0
H2626 H 0.57932 0.49802 0.12199 0.0
H2627 H 0.52827 0.50796 0.13607 0.0
H2628 H 0.43421 0.41451 0.1198 0.0
H2629 H 0.46438 0.4493 0.11765 0.0
H2630 H 0.52 0.44977 0.09952 0.0
C2631 C 0.58117 0.51332 0.12131 0.0
C2632 C 0.52645 0.49548 0.12779 0.0
C2633 C 0.60096 0.53032 0.12253 0.0
C2634 C 0.4495 0.41636 0.12065 0.0
C2635 C 0.46673 0.43627 0.11946 0.0
C2636 C 0.52155 0.46241 0.10746 0.0
C2637 C 0.56395 0.51594 0.11941 0.0
C2638 C 0.5431 0.49748 0.11785 0.0
C2639 C 0.48678 0.43917 0.12009 0.0
C2640 C 0.5053 0.45989 0.11819 0.0
H2641 H 0.58878 0.56851 0.11969 0.0
H2642 H 0.55392 0.53848 0.11764 0.0
H2643 H 0.55261 0.48223 0.09919 0.0
H2644 H 0.47495 0.38942 0.12558 0.0
H2645 H 0.50458 0.42378 0.12341 0.0
C2646 C 0.03552 0.44973 0.62474 0.0
C2647 C 0.05491 0.45145 0.62747 0.0
C2648 C 0.03315 0.46711 0.62608 0.0
C2649 C 0.0581 0.51972 0.64461 0.0
H2650 H 0.0294 0.53119 0.60836 0.0
C2651 C 0.07222 0.60112 0.63193 0.0
C2652 C 0.05538 0.60377 0.62782 0.0
C2653 C 0.06971 0.58141 0.63326 0.0
C2654 C 0.03717 0.52804 0.61874 0.0
H2655 H 0.08698 0.47284 0.63391 0.0
H2656 H 0.08283 0.50288 0.63613 0.0
H2657 H 0.0293 0.49846 0.60829 0.0
H2658 H 0.0226 0.58763 0.62196 0.0
H2659 H 0.01829 0.55308 0.62426 0.0
H2660 H 0.06638 0.54943 0.65485 0.0
C2661 C 0.0694 0.48812 0.63313 0.0
C2662 C 0.03711 0.5093 0.6187 0.0
C2663 C 0.07179 0.47086 0.63172 0.0
C2664 C 0.03591 0.58616 0.62513 0.0
C2665 C 0.03344 0.56637 0.62638 0.0
C2666 C 0.05817 0.5384 0.64465 0.0
C2667 C 0.05009 0.48648 0.63031 0.0
C2668 C 0.04801 0.50518 0.6314 0.0
C2669 C 0.05033 0.56381 0.63048 0.0
C2670 C 0.04814 0.54299 0.63149 0.0
H2671 H 0.02217 0.43502 0.62146 0.0
H2672 H 0.01805 0.46536 0.62392 0.0
H2673 H 0.06627 0.5168 0.65479 0.0
H2674 H 0.08745 0.61427 0.63408 0.0
H2675 H 0.08311 0.57998 0.63616 0.0
C2676 C 0.96623 0.55153 0.3765 0.0
C2677 C 0.94639 0.5491 0.37485 0.0
C2678 C 0.96878 0.53422 0.37749 0.0
C2679 C 0.93989 0.4791 0.38898 0.0
H2680 H 0.97905 0.47316 0.36017 0.0
C2681 C 0.92922 0.40012 0.37315 0.0
C2682 C 0.94632 0.39713 0.37404 0.0
C2683 C 0.93178 0.41983 0.37439 0.0
C2684 C 0.96829 0.47475 0.36849 0.0
H2685 H 0.91375 0.52644 0.37248 0.0
H2686 H 0.91824 0.49664 0.37423 0.0
H2687 H 0.97907 0.50596 0.36038 0.0
H2688 H 0.97969 0.41279 0.37645 0.0
H2689 H 0.98412 0.44749 0.37852 0.0
H2690 H 0.92873 0.44789 0.39679 0.0
C2691 C 0.9318 0.51185 0.37503 0.0
C2692 C 0.9683 0.49349 0.36862 0.0
C2693 C 0.92926 0.52902 0.37394 0.0
C2694 C 0.96617 0.41451 0.3758 0.0
C2695 C 0.96874 0.43437 0.37693 0.0
C2696 C 0.93988 0.46047 0.38885 0.0
C2697 C 0.95152 0.51421 0.37699 0.0
C2698 C 0.95366 0.4956 0.37848 0.0
C2699 C 0.9515 0.43715 0.37648 0.0
C2700 C 0.95364 0.45788 0.37822 0.0
H2701 H 0.97977 0.56677 0.37716 0.0
H2702 H 0.98417 0.53646 0.37898 0.0
H2703 H 0.92875 0.48043 0.39702 0.0
H2704 H 0.91371 0.38721 0.37162 0.0
H2705 H 0.91823 0.42151 0.37363 0.0
C2706 C 0.54972 0.96621 0.87075 0.0
C2707 C 0.54799 0.94677 0.86822 0.0
C2708 C 0.5323 0.96852 0.86951 0.0
C2709 C 0.47935 0.94308 0.85162 0.0
H2710 H 0.46824 0.97209 0.88783 0.0
C2711 C 0.39794 0.9284 0.86521 0.0
C2712 C 0.39518 0.94523 0.86911 0.0
C2713 C 0.41769 0.93105 0.86375 0.0
C2714 C 0.47128 0.96423 0.87747 0.0
H2715 H 0.52651 0.91458 0.86224 0.0
H2716 H 0.49642 0.91863 0.86019 0.0
H2717 H 0.50114 0.97251 0.88755 0.0
H2718 H 0.41119 0.97812 0.87451 0.0
H2719 H 0.44582 0.98267 0.872 0.0
H2720 H 0.44937 0.93437 0.84176 0.0
C2721 C 0.51122 0.93214 0.86295 0.0
C2722 C 0.49011 0.96448 0.87731 0.0
C2723 C 0.52851 0.9298 0.86426 0.0
C2724 C 0.41273 0.96481 0.87151 0.0
C2725 C 0.43257 0.96743 0.87014 0.0
C2726 C 0.46058 0.94282 0.85179 0.0
C2727 C 0.51287 0.95148 0.86557 0.0
C2728 C 0.49411 0.95346 0.86462 0.0
C2729 C 0.43523 0.95056 0.86619 0.0
C2730 C 0.45612 0.95295 0.86496 0.0
H2731 H 0.56448 0.97961 0.8738 0.0
H2732 H 0.53405 0.98364 0.87152 0.0
H2733 H 0.48216 0.93482 0.84146 0.0
H2734 H 0.38483 0.91308 0.8633 0.0
H2735 H 0.41921 0.91768 0.86099 0.0
C2736 C 0.44946 0.41257 0.37534 0.0
C2737 C 0.45127 0.39484 0.37329 0.0
C2738 C 0.4671 0.43218 0.37622 0.0
C2739 C 0.52245 0.45711 0.38672 0.0
H2740 H 0.52803 0.50367 0.36023 0.0
C2741 C 0.60126 0.52707 0.37289 0.0
C2742 C 0.60386 0.54696 0.37446 0.0
C2743 C 0.5817 0.50964 0.37369 0.0
C2744 C 0.52656 0.49089 0.3679 0.0
H2745 H 0.47317 0.38403 0.37005 0.0
H2746 H 0.50364 0.41798 0.37156 0.0
H2747 H 0.49526 0.4709 0.3598 0.0
H2748 H 0.58766 0.56404 0.37774 0.0
H2749 H 0.55323 0.53331 0.37912 0.0
H2750 H 0.5537 0.4768 0.39461 0.0
C2751 C 0.48863 0.41674 0.37277 0.0
C2752 C 0.50783 0.47215 0.36765 0.0
C2753 C 0.47109 0.39724 0.37181 0.0
C2754 C 0.58624 0.54895 0.37655 0.0
C2755 C 0.56653 0.53139 0.37728 0.0
C2756 C 0.54106 0.47574 0.38698 0.0
C2757 C 0.48687 0.4344 0.37518 0.0
C2758 C 0.5058 0.45493 0.37672 0.0
C2759 C 0.56413 0.51155 0.37606 0.0
C2760 C 0.54352 0.49268 0.37723 0.0
H2761 H 0.43443 0.41131 0.37646 0.0
H2762 H 0.4653 0.44554 0.3781 0.0
H2763 H 0.52119 0.44427 0.39418 0.0
H2764 H 0.61437 0.52483 0.37108 0.0
H2765 H 0.58033 0.49459 0.37233 0.0
C2766 C 0.03604 0.45014 0.87398 0.0
C2767 C 0.05554 0.4519 0.87178 0.0
C2768 C 0.0341 0.46783 0.87452 0.0
C2769 C 0.06491 0.52351 0.88374 0.0
H2770 H 0.02338 0.52847 0.85755 0.0
C2771 C 0.0732 0.60212 0.86971 0.0
C2772 C 0.05583 0.60452 0.87171 0.0
C2773 C 0.07123 0.58261 0.87025 0.0
C2774 C 0.03488 0.52719 0.86511 0.0
H2775 H 0.08816 0.4737 0.86786 0.0
H2776 H 0.08472 0.50417 0.86876 0.0
H2777 H 0.02326 0.49563 0.85765 0.0
H2778 H 0.02259 0.58803 0.87534 0.0
H2779 H 0.01922 0.55376 0.87628 0.0
H2780 H 0.07676 0.55499 0.89102 0.0
C2781 C 0.07098 0.48922 0.87037 0.0
C2782 C 0.0348 0.50841 0.86518 0.0
C2783 C 0.07291 0.47166 0.86978 0.0
C2784 C 0.03631 0.58677 0.87382 0.0
C2785 C 0.03435 0.56714 0.8743 0.0
C2786 C 0.06499 0.54217 0.88367 0.0
C2787 C 0.05163 0.48756 0.87296 0.0
C2788 C 0.05014 0.50657 0.87418 0.0
C2789 C 0.05186 0.56492 0.87278 0.0
C2790 C 0.0503 0.54439 0.87404 0.0
H2791 H 0.02232 0.43516 0.8755 0.0
H2792 H 0.01899 0.46611 0.87654 0.0
H2793 H 0.07663 0.52241 0.89113 0.0
H2794 H 0.08846 0.61535 0.86788 0.0
H2795 H 0.08496 0.58137 0.86867 0.0
C2796 C 0.60135 0.07339 0.37134 0.0
C2797 C 0.60373 0.05599 0.37317 0.0
C2798 C 0.58187 0.07148 0.37207 0.0
C2799 C 0.52652 0.03535 0.3668 0.0
H2800 H 0.52183 0.07718 0.39277 0.0
C2801 C 0.44962 0.03672 0.37508 0.0
C2802 C 0.45135 0.05622 0.373 0.0
C2803 C 0.46731 0.03481 0.37573 0.0
C2804 C 0.5229 0.06545 0.38538 0.0
H2805 H 0.58724 0.02276 0.37679 0.0
H2806 H 0.55299 0.01947 0.37806 0.0
H2807 H 0.55428 0.07704 0.3929 0.0
H2808 H 0.47313 0.08891 0.36948 0.0
H2809 H 0.50367 0.08551 0.37056 0.0
H2810 H 0.49509 0.02398 0.35909 0.0
C2811 C 0.56637 0.03458 0.37606 0.0
C2812 C 0.54149 0.06536 0.38547 0.0
C2813 C 0.58598 0.0365 0.3754 0.0
C2814 C 0.47112 0.07365 0.37127 0.0
C2815 C 0.4887 0.07174 0.37198 0.0
C2816 C 0.50783 0.03543 0.36672 0.0
C2817 C 0.56418 0.05213 0.37462 0.0
C2818 C 0.54367 0.05063 0.37586 0.0
C2819 C 0.48704 0.05236 0.37441 0.0
C2820 C 0.50602 0.0508 0.37569 0.0
H2821 H 0.61456 0.08864 0.36942 0.0
H2822 H 0.58066 0.08523 0.37055 0.0
H2823 H 0.52778 0.02384 0.35923 0.0
H2824 H 0.43464 0.02295 0.37641 0.0
H2825 H 0.46557 0.01967 0.37765 0.0
C2826 C 0.55063 0.58356 0.87329 0.0
C2827 C 0.54862 0.60121 0.87154 0.0
C2828 C 0.53308 0.56386 0.8741 0.0
C2829 C 0.47814 0.53872 0.88558 0.0
H2830 H 0.47137 0.49256 0.8578 0.0
C2831 C 0.39864 0.46973 0.87227 0.0
C2832 C 0.3958 0.4497 0.87323 0.0
C2833 C 0.41834 0.48696 0.87295 0.0
C2834 C 0.47319 0.50522 0.86584 0.0
H2835 H 0.52648 0.61178 0.86862 0.0
H2836 H 0.49622 0.57771 0.87007 0.0
H2837 H 0.50429 0.52521 0.85724 0.0
H2838 H 0.41169 0.43218 0.87527 0.0
H2839 H 0.44635 0.46258 0.87647 0.0
H2840 H 0.44711 0.51907 0.89399 0.0
C2841 C 0.5113 0.57908 0.87109 0.0
C2842 C 0.49199 0.52388 0.86551 0.0
C2843 C 0.52872 0.59864 0.87018 0.0
C2844 C 0.4133 0.44738 0.87457 0.0
C2845 C 0.43314 0.46475 0.87519 0.0
C2846 C 0.45946 0.52017 0.88593 0.0
C2847 C 0.51325 0.56151 0.87331 0.0
C2848 C 0.49441 0.54097 0.87502 0.0
C2849 C 0.4358 0.48472 0.8746 0.0
C2850 C 0.45656 0.5034 0.87571 0.0
H2851 H 0.56572 0.58496 0.8743 0.0
H2852 H 0.535 0.55055 0.87579 0.0
H2853 H 0.47973 0.55148 0.89337 0.0
H2854 H 0.38562 0.47222 0.87104 0.0
H2855 H 0.41989 0.50213 0.87208 0.0
loop_
_geom_bond_atom_site_label_1
_geom_bond_atom_site_label_2
_geom_bond_distance
_geom_bond_site_symmetry_2
_ccdc_geom_bond_type
Co0 O2 2.143 . S
Co0 O8 2.074 . S
Co0 O11 2.093 . S
Co0 O24 2.097 . S
Co0 N41 2.151 . S
Co0 N49 2.214 . S
Co1 O2 2.160 . S
Co1 O7 2.058 . S
Co1 O17 2.057 . S
Co1 O32 2.037 . S
Co1 N36 2.145 1_545 S
Co1 N57 2.257 . S
O2 Co0 2.143 . S
O2 Co1 2.160 . S
C3 O4 1.278 . S
C3 O11 1.224 . S
O4 C3 1.278 . S
C5 O6 1.245 . S
C5 O17 1.232 . S
O6 C5 1.245 . S
O7 Co1 2.058 . S
O7 C33 1.269 . S
O8 Co0 2.074 . S
O8 C33 1.257 . S
H9 C34 0.930 . S
H10 C40 0.930 . S
O11 Co0 2.093 . S
O11 C3 1.224 . S
H12 C44 0.929 . S
H13 C46 0.930 . S
H14 C47 0.930 . S
H15 C45 0.929 . S
H16 C48 0.928 . S
O17 Co1 2.057 . S
O17 C5 1.232 . S
H18 C37 0.929 . S
H19 C38 0.929 . S
H20 C50 0.931 . S
H21 C42 0.929 . S
H22 C51 0.930 . S
H23 C43 0.931 . S
O24 Co0 2.097 . S
O24 C52 1.214 . S
H25 C53 0.929 . S
H26 C54 0.929 . S
H27 C55 0.919 1_565 S
H28 C56 0.929 . S
H29 C58 0.930 . S
H30 C35 0.930 . S
H31 C39 0.930 . S
O32 Co1 2.037 . S
O32 C52 1.234 . S
C33 O7 1.269 . S
C33 O8 1.257 . S
C34 H9 0.930 . S
C34 C37 1.388 . S
C34 C39 1.418 . S
C35 H30 0.930 . S
C35 C38 1.404 . S
C35 C39 1.353 . S
N36 Co1 2.145 1_565 S
N36 C37 1.397 . S
N36 C38 1.334 . S
C37 H18 0.929 . S
C37 C34 1.388 . S
C37 N36 1.397 . S
C38 H19 0.929 . S
C38 C35 1.404 . S
C38 N36 1.334 . S
C39 H31 0.930 . S
C39 C34 1.418 . S
C39 C35 1.353 . S
C40 H10 0.930 . S
C40 N41 1.330 . S
C40 C42 1.446 . S
N41 Co0 2.151 . S
N41 C40 1.330 . S
N41 C45 1.418 . S
C42 H21 0.929 . S
C42 C40 1.446 . S
C42 C43 1.332 . S
C43 H23 0.931 . S
C43 C42 1.332 . S
C43 C44 1.267 . S
C44 H12 0.929 . S
C44 C43 1.267 . S
C44 C45 1.251 . S
C45 H15 0.929 . S
C45 N41 1.418 . S
C45 C44 1.251 . S
C46 H13 0.930 . S
C46 C48 1.406 . S
C46 C51 1.261 . S
C47 H14 0.930 . S
C47 N49 1.325 . S
C47 C50 1.357 . S
C48 H16 0.928 . S
C48 C46 1.406 . S
C48 N49 1.261 . S
N49 Co0 2.214 . S
N49 C47 1.325 . S
N49 C48 1.261 . S
C50 H20 0.931 . S
C50 C47 1.357 . S
C50 C51 1.312 . S
C51 H22 0.930 . S
C51 C46 1.261 . S
C51 C50 1.312 . S
C52 O24 1.214 . S
C52 O32 1.234 . S
C53 H25 0.929 . S
C53 C56 1.391 . S
C53 C58 1.391 . S
C54 H26 0.929 . S
C54 C55 1.390 . S
C54 N57 1.391 . S
C55 H27 0.919 1_545 S
C55 C54 1.390 . S
C55 C56 1.392 . S
C56 H28 0.929 . S
C56 C53 1.391 . S
C56 C55 1.392 . S
N57 Co1 2.257 . S
N57 C54 1.391 . S
N57 C58 1.388 . S
C58 H29 0.930 . S
C58 C53 1.391 . S
C58 N57 1.388 . S
Co59 O61 2.143 . S
Co59 O67 2.074 . S
Co59 O70 2.093 . S
Co59 O83 2.097 . S
Co59 N100 2.151 . S
Co59 N108 2.214 . S
Co60 O61 2.160 . S
Co60 O66 2.058 . S
Co60 O76 2.057 . S
Co60 O91 2.037 . S
Co60 N95 2.145 . S
Co60 N116 2.257 . S
O61 Co59 2.143 . S
O61 Co60 2.160 . S
C62 O63 1.278 . S
C62 O70 1.224 . S
O63 C62 1.278 . S
C64 O65 1.245 . S
C64 O76 1.232 . S
O65 C64 1.245 . S
O66 Co60 2.058 . S
O66 C92 1.269 . S
O67 Co59 2.074 . S
O67 C92 1.257 . S
H68 C93 0.930 . S
H69 C99 0.930 . S
O70 Co59 2.093 . S
O70 C62 1.224 . S
H71 C103 0.929 . S
H72 C105 0.930 . S
H73 C106 0.930 . S
H74 C104 0.929 . S
H75 C107 0.928 . S
O76 Co60 2.057 . S
O76 C64 1.232 . S
H77 C96 0.929 . S
H78 C97 0.929 . S
H79 C109 0.931 . S
H80 C101 0.929 . S
H81 C110 0.930 . S
H82 C102 0.931 . S
O83 Co59 2.097 . S
O83 C111 1.214 . S
H84 C112 0.929 . S
H85 C113 0.929 . S
H86 C114 0.930 . S
H87 C115 0.929 . S
H88 C117 0.930 . S
H89 C94 0.930 . S
H90 C98 0.930 . S
O91 Co60 2.037 . S
O91 C111 1.234 . S
C92 O66 1.269 . S
C92 O67 1.257 . S
C93 H68 0.930 . S
C93 C96 1.388 . S
C93 C98 1.418 . S
C94 H89 0.930 . S
C94 C97 1.404 . S
C94 C98 1.353 . S
N95 Co60 2.145 . S
N95 C96 1.397 . S
N95 C97 1.334 . S
C96 H77 0.929 . S
C96 C93 1.388 . S
C96 N95 1.397 . S
C97 H78 0.929 . S
C97 C94 1.404 . S
C97 N95 1.334 . S
C98 H90 0.930 . S
C98 C93 1.418 . S
C98 C94 1.353 . S
C99 H69 0.930 . S
C99 N100 1.330 . S
C99 C101 1.446 . S
N100 Co59 2.151 . S
N100 C99 1.330 . S
N100 C104 1.418 . S
C101 H80 0.929 . S
C101 C99 1.446 . S
C101 C102 1.332 . S
C102 H82 0.931 . S
C102 C101 1.332 . S
C102 C103 1.267 . S
C103 H71 0.929 . S
C103 C102 1.267 . S
C103 C104 1.251 . S
C104 H74 0.929 . S
C104 N100 1.418 . S
C104 C103 1.251 . S
C105 H72 0.930 . S
C105 C107 1.406 . S
C105 C110 1.261 . S
C106 H73 0.930 . S
C106 N108 1.325 . S
C106 C109 1.357 . S
C107 H75 0.928 . S
C107 C105 1.406 . S
C107 N108 1.261 . S
N108 Co59 2.214 . S
N108 C106 1.325 . S
N108 C107 1.261 . S
C109 H79 0.931 . S
C109 C106 1.357 . S
C109 C110 1.312 . S
C110 H81 0.930 . S
C110 C105 1.261 . S
C110 C109 1.312 . S
C111 O83 1.214 . S
C111 O91 1.234 . S
C112 H84 0.929 . S
C112 C115 1.391 . S
C112 C117 1.391 . S
C113 H85 0.929 . S
C113 C114 1.390 . S
C113 N116 1.391 . S
C114 H86 0.930 . S
C114 C113 1.390 . S
C114 C115 1.392 . S
C115 H87 0.929 . S
C115 C112 1.391 . S
C115 C114 1.392 . S
N116 Co60 2.257 . S
N116 C113 1.391 . S
N116 C117 1.388 . S
C117 H88 0.930 . S
C117 C112 1.391 . S
C117 N116 1.388 . S
Co118 O120 2.143 . S
Co118 O126 2.074 . S
Co118 O129 2.093 . S
Co118 O142 2.097 . S
Co118 N159 2.151 . S
Co118 N167 2.214 . S
Co119 O120 2.160 . S
Co119 O125 2.058 . S
Co119 O135 2.057 . S
Co119 O150 2.037 . S
Co119 N154 2.145 1_655 S
Co119 N175 2.257 . S
O120 Co118 2.143 . S
O120 Co119 2.160 . S
C121 O122 1.278 . S
C121 O129 1.224 . S
O122 C121 1.278 . S
C123 O124 1.245 . S
C123 O135 1.232 . S
O124 C123 1.245 . S
O125 Co119 2.058 . S
O125 C151 1.269 . S
O126 Co118 2.074 . S
O126 C151 1.257 . S
H127 C152 0.930 . S
H128 C158 0.930 . S
O129 Co118 2.093 . S
O129 C121 1.224 . S
H130 C162 0.929 . S
H131 C164 0.930 . S
H132 C165 0.930 . S
H133 C163 0.929 . S
H134 C166 0.928 . S
O135 Co119 2.057 . S
O135 C123 1.232 . S
H136 C155 0.929 . S
H137 C156 0.929 . S
H138 C168 0.931 . S
H139 C160 0.929 . S
H140 C169 0.930 . S
H141 C161 0.931 . S
O142 Co118 2.097 . S
O142 C170 1.214 . S
H143 C171 0.929 . S
H144 C172 0.929 . S
H145 C173 0.901 1_455 S
H146 C174 0.929 . S
H147 C176 0.930 . S
H148 C153 0.930 . S
H149 C157 0.930 . S
O150 Co119 2.037 . S
O150 C170 1.234 . S
C151 O125 1.269 . S
C151 O126 1.257 . S
C152 H127 0.930 . S
C152 C155 1.388 . S
C152 C157 1.418 . S
C153 H148 0.930 . S
C153 C156 1.404 . S
C153 C157 1.353 . S
N154 Co119 2.145 1_455 S
N154 C155 1.397 . S
N154 C156 1.334 . S
C155 H136 0.929 . S
C155 C152 1.388 . S
C155 N154 1.397 . S
C156 H137 0.929 . S
C156 C153 1.404 . S
C156 N154 1.334 . S
C157 H149 0.930 . S
C157 C152 1.418 . S
C157 C153 1.353 . S
C158 H128 0.930 . S
C158 N159 1.330 . S
C158 C160 1.446 . S
N159 Co118 2.151 . S
N159 C158 1.330 . S
N159 C163 1.418 . S
C160 H139 0.929 . S
C160 C158 1.446 . S
C160 C161 1.332 . S
C161 H141 0.931 . S
C161 C160 1.332 . S
C161 C162 1.267 . S
C162 H130 0.929 . S
C162 C161 1.267 . S
C162 C163 1.251 . S
C163 H133 0.929 . S
C163 N159 1.418 . S
C163 C162 1.251 . S
C164 H131 0.930 . S
C164 C166 1.406 . S
C164 C169 1.261 . S
C165 H132 0.930 . S
C165 N167 1.325 . S
C165 C168 1.357 . S
C166 H134 0.928 . S
C166 C164 1.406 . S
C166 N167 1.261 . S
N167 Co118 2.214 . S
N167 C165 1.325 . S
N167 C166 1.261 . S
C168 H138 0.931 . S
C168 C165 1.357 . S
C168 C169 1.312 . S
C169 H140 0.930 . S
C169 C164 1.261 . S
C169 C168 1.312 . S
C170 O142 1.214 . S
C170 O150 1.234 . S
C171 H143 0.929 . S
C171 C174 1.391 . S
C171 C176 1.391 . S
C172 H144 0.929 . S
C172 C173 1.390 . S
C172 N175 1.391 . S
C173 H145 0.901 1_655 S
C173 C172 1.390 . S
C173 C174 1.392 . S
C174 H146 0.929 . S
C174 C171 1.391 . S
C174 C173 1.392 . S
N175 Co119 2.257 . S
N175 C172 1.391 . S
N175 C176 1.388 . S
C176 H147 0.930 . S
C176 C171 1.391 . S
C176 N175 1.388 . S
Co177 O179 2.143 . S
Co177 O185 2.074 . S
Co177 O188 2.093 . S
Co177 O201 2.097 . S
Co177 N218 2.151 . S
Co177 N226 2.214 . S
Co178 O179 2.160 . S
Co178 O184 2.058 . S
Co178 O194 2.057 . S
Co178 O209 2.037 . S
Co178 N213 2.145 1_565 S
Co178 N234 2.257 . S
O179 Co177 2.143 . S
O179 Co178 2.160 . S
C180 O181 1.278 . S
C180 O188 1.224 . S
O181 C180 1.278 . S
C182 O183 1.245 . S
C182 O194 1.232 . S
O183 C182 1.245 . S
O184 Co178 2.058 . S
O184 C210 1.269 . S
O185 Co177 2.074 . S
O185 C210 1.257 . S
H186 C211 0.930 . S
H187 C217 0.930 . S
O188 Co177 2.093 . S
O188 C180 1.224 . S
H189 C221 0.929 . S
H190 C223 0.930 . S
H191 C224 0.930 . S
H192 C222 0.929 . S
H193 C225 0.928 . S
O194 Co178 2.057 . S
O194 C182 1.232 . S
H195 C214 0.929 . S
H196 C215 0.929 . S
H197 C227 0.931 . S
H198 C219 0.929 . S
H199 C228 0.930 . S
H200 C220 0.931 . S
O201 Co177 2.097 . S
O201 C229 1.214 . S
H202 C230 0.929 . S
H203 C231 0.929 . S
H204 C232 0.919 1_545 S
H205 C233 0.929 . S
H206 C235 0.930 . S
H207 C212 0.930 . S
H208 C216 0.930 . S
O209 Co178 2.037 . S
O209 C229 1.234 . S
C210 O184 1.269 . S
C210 O185 1.257 . S
C211 H186 0.930 . S
C211 C214 1.388 . S
C211 C216 1.418 . S
C212 H207 0.930 . S
C212 C215 1.404 . S
C212 C216 1.353 . S
N213 Co178 2.145 1_545 S
N213 C214 1.397 . S
N213 C215 1.334 . S
C214 H195 0.929 . S
C214 C211 1.388 . S
C214 N213 1.397 . S
C215 H196 0.929 . S
C215 C212 1.404 . S
C215 N213 1.334 . S
C216 H208 0.930 . S
C216 C211 1.418 . S
C216 C212 1.353 . S
C217 H187 0.930 . S
C217 N218 1.330 . S
C217 C219 1.446 . S
N218 Co177 2.151 . S
N218 C217 1.330 . S
N218 C222 1.418 . S
C219 H198 0.929 . S
C219 C217 1.446 . S
C219 C220 1.332 . S
C220 H200 0.931 . S
C220 C219 1.332 . S
C220 C221 1.267 . S
C221 H189 0.929 . S
C221 C220 1.267 . S
C221 C222 1.251 . S
C222 H192 0.929 . S
C222 N218 1.418 . S
C222 C221 1.251 . S
C223 H190 0.930 . S
C223 C225 1.406 . S
C223 C228 1.261 . S
C224 H191 0.930 . S
C224 N226 1.325 . S
C224 C227 1.357 . S
C225 H193 0.928 . S
C225 C223 1.406 . S
C225 N226 1.261 . S
N226 Co177 2.214 . S
N226 C224 1.325 . S
N226 C225 1.261 . S
C227 H197 0.931 . S
C227 C224 1.357 . S
C227 C228 1.312 . S
C228 H199 0.930 . S
C228 C223 1.261 . S
C228 C227 1.312 . S
C229 O201 1.214 . S
C229 O209 1.234 . S
C230 H202 0.929 . S
C230 C233 1.391 . S
C230 C235 1.391 . S
C231 H203 0.929 . S
C231 C232 1.390 . S
C231 N234 1.391 . S
C232 H204 0.919 1_565 S
C232 C231 1.390 . S
C232 C233 1.392 . S
C233 H205 0.929 . S
C233 C230 1.391 . S
C233 C232 1.392 . S
N234 Co178 2.257 . S
N234 C231 1.391 . S
N234 C235 1.388 . S
C235 H206 0.930 . S
C235 C230 1.391 . S
C235 N234 1.388 . S
Co236 O238 2.143 . S
Co236 O244 2.074 . S
Co236 O247 2.093 . S
Co236 O260 2.097 . S
Co236 N277 2.151 . S
Co236 N285 2.214 . S
Co237 O238 2.160 . S
Co237 O243 2.058 . S
Co237 O253 2.057 . S
Co237 O268 2.037 . S
Co237 N272 2.145 . S
Co237 N293 2.257 . S
O238 Co236 2.143 . S
O238 Co237 2.160 . S
C239 O240 1.278 . S
C239 O247 1.224 . S
O240 C239 1.278 . S
C241 O242 1.245 . S
C241 O253 1.232 . S
O242 C241 1.245 . S
O243 Co237 2.058 . S
O243 C269 1.269 . S
O244 Co236 2.074 . S
O244 C269 1.257 . S
H245 C270 0.930 . S
H246 C276 0.930 . S
O247 Co236 2.093 . S
O247 C239 1.224 . S
H248 C280 0.929 . S
H249 C282 0.930 . S
H250 C283 0.930 . S
H251 C281 0.929 . S
H252 C284 0.928 . S
O253 Co237 2.057 . S
O253 C241 1.232 . S
H254 C273 0.929 . S
H255 C274 0.929 . S
H256 C286 0.931 . S
H257 C278 0.929 . S
H258 C287 0.930 . S
H259 C279 0.931 . S
O260 Co236 2.097 . S
O260 C288 1.214 . S
H261 C289 0.929 . S
H262 C290 0.929 . S
H263 C291 0.930 . S
H264 C292 0.929 . S
H265 C294 0.930 . S
H266 C271 0.930 . S
H267 C275 0.930 . S
O268 Co237 2.037 . S
O268 C288 1.234 . S
C269 O243 1.269 . S
C269 O244 1.257 . S
C270 H245 0.930 . S
C270 C273 1.388 . S
C270 C275 1.418 . S
C271 H266 0.930 . S
C271 C274 1.404 . S
C271 C275 1.353 . S
N272 Co237 2.145 . S
N272 C273 1.397 . S
N272 C274 1.334 . S
C273 H254 0.929 . S
C273 C270 1.388 . S
C273 N272 1.397 . S
C274 H255 0.929 . S
C274 C271 1.404 . S
C274 N272 1.334 . S
C275 H267 0.930 . S
C275 C270 1.418 . S
C275 C271 1.353 . S
C276 H246 0.930 . S
C276 N277 1.330 . S
C276 C278 1.446 . S
N277 Co236 2.151 . S
N277 C276 1.330 . S
N277 C281 1.418 . S
C278 H257 0.929 . S
C278 C276 1.446 . S
C278 C279 1.332 . S
C279 H259 0.931 . S
C279 C278 1.332 . S
C279 C280 1.267 . S
C280 H248 0.929 . S
C280 C279 1.267 . S
C280 C281 1.251 . S
C281 H251 0.929 . S
C281 N277 1.418 . S
C281 C280 1.251 . S
C282 H249 0.930 . S
C282 C284 1.406 . S
C282 C287 1.261 . S
C283 H250 0.930 . S
C283 N285 1.325 . S
C283 C286 1.357 . S
C284 H252 0.928 . S
C284 C282 1.406 . S
C284 N285 1.261 . S
N285 Co236 2.214 . S
N285 C283 1.325 . S
N285 C284 1.261 . S
C286 H256 0.931 . S
C286 C283 1.357 . S
C286 C287 1.312 . S
C287 H258 0.930 . S
C287 C282 1.261 . S
C287 C286 1.312 . S
C288 O260 1.214 . S
C288 O268 1.234 . S
C289 H261 0.929 . S
C289 C292 1.391 . S
C289 C294 1.391 . S
C290 H262 0.929 . S
C290 C291 1.390 . S
C290 N293 1.391 . S
C291 H263 0.930 . S
C291 C290 1.390 . S
C291 C292 1.392 . S
C292 H264 0.929 . S
C292 C289 1.391 . S
C292 C291 1.392 . S
N293 Co237 2.257 . S
N293 C290 1.391 . S
N293 C294 1.388 . S
C294 H265 0.930 . S
C294 C289 1.391 . S
C294 N293 1.388 . S
Co295 O297 2.143 . S
Co295 O303 2.074 . S
Co295 O306 2.093 . S
Co295 O319 2.097 . S
Co295 N336 2.151 . S
Co295 N344 2.214 . S
Co296 O297 2.160 . S
Co296 O302 2.058 . S
Co296 O312 2.057 . S
Co296 O327 2.037 . S
Co296 N331 2.145 1_455 S
Co296 N352 2.257 . S
O297 Co295 2.143 . S
O297 Co296 2.160 . S
C298 O299 1.278 . S
C298 O306 1.224 . S
O299 C298 1.278 . S
C300 O301 1.245 . S
C300 O312 1.232 . S
O301 C300 1.245 . S
O302 Co296 2.058 . S
O302 C328 1.269 . S
O303 Co295 2.074 . S
O303 C328 1.257 . S
H304 C329 0.930 . S
H305 C335 0.930 . S
O306 Co295 2.093 . S
O306 C298 1.224 . S
H307 C339 0.929 . S
H308 C341 0.930 . S
H309 C342 0.930 . S
H310 C340 0.929 . S
H311 C343 0.928 . S
O312 Co296 2.057 . S
O312 C300 1.232 . S
H313 C332 0.929 . S
H314 C333 0.929 . S
H315 C345 0.931 . S
H316 C337 0.929 . S
H317 C346 0.930 . S
H318 C338 0.931 . S
O319 Co295 2.097 . S
O319 C347 1.214 . S
H320 C348 0.929 . S
H321 C349 0.929 . S
H322 C350 0.901 1_655 S
H323 C351 0.929 . S
H324 C353 0.930 . S
H325 C330 0.930 . S
H326 C334 0.930 . S
O327 Co296 2.037 . S
O327 C347 1.234 . S
C328 O302 1.269 . S
C328 O303 1.257 . S
C329 H304 0.930 . S
C329 C332 1.388 . S
C329 C334 1.418 . S
C330 H325 0.930 . S
C330 C333 1.404 . S
C330 C334 1.353 . S
N331 Co296 2.145 1_655 S
N331 C332 1.397 . S
N331 C333 1.334 . S
C332 H313 0.929 . S
C332 C329 1.388 . S
C332 N331 1.397 . S
C333 H314 0.929 . S
C333 C330 1.404 . S
C333 N331 1.334 . S
C334 H326 0.930 . S
C334 C329 1.418 . S
C334 C330 1.353 . S
C335 H305 0.930 . S
C335 N336 1.330 . S
C335 C337 1.446 . S
N336 Co295 2.151 . S
N336 C335 1.330 . S
N336 C340 1.418 . S
C337 H316 0.929 . S
C337 C335 1.446 . S
C337 C338 1.332 . S
C338 H318 0.931 . S
C338 C337 1.332 . S
C338 C339 1.267 . S
C339 H307 0.929 . S
C339 C338 1.267 . S
C339 C340 1.251 . S
C340 H310 0.929 . S
C340 N336 1.418 . S
C340 C339 1.251 . S
C341 H308 0.930 . S
C341 C343 1.406 . S
C341 C346 1.261 . S
C342 H309 0.930 . S
C342 N344 1.325 . S
C342 C345 1.357 . S
C343 H311 0.928 . S
C343 C341 1.406 . S
C343 N344 1.261 . S
N344 Co295 2.214 . S
N344 C342 1.325 . S
N344 C343 1.261 . S
C345 H315 0.931 . S
C345 C342 1.357 . S
C345 C346 1.312 . S
C346 H317 0.930 . S
C346 C341 1.261 . S
C346 C345 1.312 . S
C347 O319 1.214 . S
C347 O327 1.234 . S
C348 H320 0.929 . S
C348 C351 1.391 . S
C348 C353 1.391 . S
C349 H321 0.929 . S
C349 C350 1.390 . S
C349 N352 1.391 . S
C350 H322 0.901 1_455 S
C350 C349 1.390 . S
C350 C351 1.392 . S
C351 H323 0.929 . S
C351 C348 1.391 . S
C351 C350 1.392 . S
N352 Co296 2.257 . S
N352 C349 1.391 . S
N352 C353 1.388 . S
C353 H324 0.930 . S
C353 C348 1.391 . S
C353 N352 1.388 . S
Co354 O356 2.143 . S
Co354 O362 2.074 . S
Co354 O365 2.093 . S
Co354 O378 2.097 . S
Co354 N395 2.151 . S
Co354 N403 2.214 . S
Co355 O356 2.160 . S
Co355 O361 2.058 . S
Co355 O371 2.057 . S
Co355 O386 2.037 . S
Co355 N390 2.145 1_655 S
Co355 N411 2.257 . S
O356 Co354 2.143 . S
O356 Co355 2.160 . S
C357 O358 1.278 . S
C357 O365 1.224 . S
O358 C357 1.278 . S
C359 O360 1.245 . S
C359 O371 1.232 . S
O360 C359 1.245 . S
O361 Co355 2.058 . S
O361 C387 1.269 . S
O362 Co354 2.074 . S
O362 C387 1.257 . S
H363 C388 0.930 . S
H364 C394 0.930 . S
O365 Co354 2.093 . S
O365 C357 1.224 . S
H366 C398 0.929 . S
H367 C400 0.930 . S
H368 C401 0.930 . S
H369 C399 0.929 . S
H370 C402 0.928 . S
O371 Co355 2.057 . S
O371 C359 1.232 . S
H372 C391 0.929 . S
H373 C392 0.929 . S
H374 C404 0.931 . S
H375 C396 0.929 . S
H376 C405 0.930 . S
H377 C397 0.931 . S
O378 Co354 2.097 . S
O378 C406 1.214 . S
H379 C407 0.929 . S
H380 C408 0.929 . S
H381 C409 0.919 1_455 S
H382 C410 0.929 . S
H383 C412 0.930 . S
H384 C389 0.930 . S
H385 C393 0.930 . S
O386 Co355 2.037 . S
O386 C406 1.234 . S
C387 O361 1.269 . S
C387 O362 1.257 . S
C388 H363 0.930 . S
C388 C391 1.388 . S
C388 C393 1.418 . S
C389 H384 0.930 . S
C389 C392 1.404 . S
C389 C393 1.353 . S
N390 Co355 2.145 1_455 S
N390 C391 1.397 . S
N390 C392 1.334 . S
C391 H372 0.929 . S
C391 C388 1.388 . S
C391 N390 1.397 . S
C392 H373 0.929 . S
C392 C389 1.404 . S
C392 N390 1.334 . S
C393 H385 0.930 . S
C393 C388 1.418 . S
C393 C389 1.353 . S
C394 H364 0.930 . S
C394 N395 1.330 . S
C394 C396 1.446 . S
N395 Co354 2.151 . S
N395 C394 1.330 . S
N395 C399 1.418 . S
C396 H375 0.929 . S
C396 C394 1.446 . S
C396 C397 1.332 . S
C397 H377 0.931 . S
C397 C396 1.332 . S
C397 C398 1.267 . S
C398 H366 0.929 . S
C398 C397 1.267 . S
C398 C399 1.251 . S
C399 H369 0.929 . S
C399 N395 1.418 . S
C399 C398 1.251 . S
C400 H367 0.930 . S
C400 C402 1.406 . S
C400 C405 1.261 . S
C401 H368 0.930 . S
C401 N403 1.325 . S
C401 C404 1.357 . S
C402 H370 0.928 . S
C402 C400 1.406 . S
C402 N403 1.261 . S
N403 Co354 2.214 . S
N403 C401 1.325 . S
N403 C402 1.261 . S
C404 H374 0.931 . S
C404 C401 1.357 . S
C404 C405 1.312 . S
C405 H376 0.930 . S
C405 C400 1.261 . S
C405 C404 1.312 . S
C406 O378 1.214 . S
C406 O386 1.234 . S
C407 H379 0.929 . S
C407 C410 1.391 . S
C407 C412 1.391 . S
C408 H380 0.929 . S
C408 C409 1.390 . S
C408 N411 1.391 . S
C409 H381 0.919 1_655 S
C409 C408 1.390 . S
C409 C410 1.392 . S
C410 H382 0.929 . S
C410 C407 1.391 . S
C410 C409 1.392 . S
N411 Co355 2.257 . S
N411 C408 1.391 . S
N411 C412 1.388 . S
C412 H383 0.930 . S
C412 C407 1.391 . S
C412 N411 1.388 . S
Co413 O415 2.143 . S
Co413 O421 2.074 . S
Co413 O424 2.093 . S
Co413 O437 2.097 . S
Co413 N454 2.151 . S
Co413 N462 2.214 . S
Co414 O415 2.160 . S
Co414 O420 2.058 . S
Co414 O430 2.057 . S
Co414 O445 2.037 . S
Co414 N449 2.145 1_565 S
Co414 N470 2.257 . S
O415 Co413 2.143 . S
O415 Co414 2.160 . S
C416 O417 1.278 . S
C416 O424 1.224 . S
O417 C416 1.278 . S
C418 O419 1.245 . S
C418 O430 1.232 . S
O419 C418 1.245 . S
O420 Co414 2.058 . S
O420 C446 1.269 . S
O421 Co413 2.074 . S
O421 C446 1.257 . S
H422 C447 0.930 . S
H423 C453 0.930 . S
O424 Co413 2.093 . S
O424 C416 1.224 . S
H425 C457 0.929 . S
H426 C459 0.930 . S
H427 C460 0.930 . S
H428 C458 0.929 . S
H429 C461 0.928 . S
O430 Co414 2.057 . S
O430 C418 1.232 . S
H431 C450 0.929 . S
H432 C451 0.929 . S
H433 C463 0.931 . S
H434 C455 0.929 . S
H435 C464 0.930 . S
H436 C456 0.931 . S
O437 Co413 2.097 . S
O437 C465 1.214 . S
H438 C466 0.929 . S
H439 C467 0.929 . S
H440 C468 0.901 1_545 S
H441 C469 0.929 . S
H442 C471 0.930 . S
H443 C448 0.930 . S
H444 C452 0.930 . S
O445 Co414 2.037 . S
O445 C465 1.234 . S
C446 O420 1.269 . S
C446 O421 1.257 . S
C447 H422 0.930 . S
C447 C450 1.388 . S
C447 C452 1.418 . S
C448 H443 0.930 . S
C448 C451 1.404 . S
C448 C452 1.353 . S
N449 Co414 2.145 1_545 S
N449 C450 1.397 . S
N449 C451 1.334 . S
C450 H431 0.929 . S
C450 C447 1.388 . S
C450 N449 1.397 . S
C451 H432 0.929 . S
C451 C448 1.404 . S
C451 N449 1.334 . S
C452 H444 0.930 . S
C452 C447 1.418 . S
C452 C448 1.353 . S
C453 H423 0.930 . S
C453 N454 1.330 . S
C453 C455 1.446 . S
N454 Co413 2.151 . S
N454 C453 1.330 . S
N454 C458 1.418 . S
C455 H434 0.929 . S
C455 C453 1.446 . S
C455 C456 1.332 . S
C456 H436 0.931 . S
C456 C455 1.332 . S
C456 C457 1.267 . S
C457 H425 0.929 . S
C457 C456 1.267 . S
C457 C458 1.251 . S
C458 H428 0.929 . S
C458 N454 1.418 . S
C458 C457 1.251 . S
C459 H426 0.930 . S
C459 C461 1.406 . S
C459 C464 1.261 . S
C460 H427 0.930 . S
C460 N462 1.325 . S
C460 C463 1.357 . S
C461 H429 0.928 . S
C461 C459 1.406 . S
C461 N462 1.261 . S
N462 Co413 2.214 . S
N462 C460 1.325 . S
N462 C461 1.261 . S
C463 H433 0.931 . S
C463 C460 1.357 . S
C463 C464 1.312 . S
C464 H435 0.930 . S
C464 C459 1.261 . S
C464 C463 1.312 . S
C465 O437 1.214 . S
C465 O445 1.234 . S
C466 H438 0.929 . S
C466 C469 1.391 . S
C466 C471 1.391 . S
C467 H439 0.929 . S
C467 C468 1.390 . S
C467 N470 1.391 . S
C468 H440 0.901 1_565 S
C468 C467 1.390 . S
C468 C469 1.392 . S
C469 H441 0.929 . S
C469 C466 1.391 . S
C469 C468 1.392 . S
N470 Co414 2.257 . S
N470 C467 1.391 . S
N470 C471 1.388 . S
C471 H442 0.930 . S
C471 C466 1.391 . S
C471 N470 1.388 . S
Co472 O474 2.143 . S
Co472 O480 2.074 . S
Co472 O483 2.093 . S
Co472 O496 2.097 . S
Co472 N513 2.151 . S
Co472 N521 2.214 . S
Co473 O474 2.160 . S
Co473 O479 2.058 . S
Co473 O489 2.057 . S
Co473 O504 2.037 . S
Co473 N508 2.145 . S
Co473 N529 2.257 . S
O474 Co472 2.143 . S
O474 Co473 2.160 . S
C475 O476 1.278 . S
C475 O483 1.224 . S
O476 C475 1.278 . S
C477 O478 1.245 . S
C477 O489 1.232 . S
O478 C477 1.245 . S
O479 Co473 2.058 . S
O479 C505 1.269 . S
O480 Co472 2.074 . S
O480 C505 1.257 . S
H481 C506 0.930 . S
H482 C512 0.930 . S
O483 Co472 2.093 . S
O483 C475 1.224 . S
H484 C516 0.929 . S
H485 C518 0.930 . S
H486 C519 0.930 . S
H487 C517 0.929 . S
H488 C520 0.928 . S
O489 Co473 2.057 . S
O489 C477 1.232 . S
H490 C509 0.929 . S
H491 C510 0.929 . S
H492 C522 0.931 . S
H493 C514 0.929 . S
H494 C523 0.930 . S
H495 C515 0.931 . S
O496 Co472 2.097 . S
O496 C524 1.214 . S
H497 C525 0.929 . S
H498 C526 0.929 . S
H499 C527 0.930 . S
H500 C528 0.929 . S
H501 C530 0.930 . S
H502 C507 0.930 . S
H503 C511 0.930 . S
O504 Co473 2.037 . S
O504 C524 1.234 . S
C505 O479 1.269 . S
C505 O480 1.257 . S
C506 H481 0.930 . S
C506 C509 1.388 . S
C506 C511 1.418 . S
C507 H502 0.930 . S
C507 C510 1.404 . S
C507 C511 1.353 . S
N508 Co473 2.145 . S
N508 C509 1.397 . S
N508 C510 1.334 . S
C509 H490 0.929 . S
C509 C506 1.388 . S
C509 N508 1.397 . S
C510 H491 0.929 . S
C510 C507 1.404 . S
C510 N508 1.334 . S
C511 H503 0.930 . S
C511 C506 1.418 . S
C511 C507 1.353 . S
C512 H482 0.930 . S
C512 N513 1.330 . S
C512 C514 1.446 . S
N513 Co472 2.151 . S
N513 C512 1.330 . S
N513 C517 1.418 . S
C514 H493 0.929 . S
C514 C512 1.446 . S
C514 C515 1.332 . S
C515 H495 0.931 . S
C515 C514 1.332 . S
C515 C516 1.267 . S
C516 H484 0.929 . S
C516 C515 1.267 . S
C516 C517 1.251 . S
C517 H487 0.929 . S
C517 N513 1.418 . S
C517 C516 1.251 . S
C518 H485 0.930 . S
C518 C520 1.406 . S
C518 C523 1.261 . S
C519 H486 0.930 . S
C519 N521 1.325 . S
C519 C522 1.357 . S
C520 H488 0.928 . S
C520 C518 1.406 . S
C520 N521 1.261 . S
N521 Co472 2.214 . S
N521 C519 1.325 . S
N521 C520 1.261 . S
C522 H492 0.931 . S
C522 C519 1.357 . S
C522 C523 1.312 . S
C523 H494 0.930 . S
C523 C518 1.261 . S
C523 C522 1.312 . S
C524 O496 1.214 . S
C524 O504 1.234 . S
C525 H497 0.929 . S
C525 C528 1.391 . S
C525 C530 1.391 . S
C526 H498 0.929 . S
C526 C527 1.390 . S
C526 N529 1.391 . S
C527 H499 0.930 . S
C527 C526 1.390 . S
C527 C528 1.392 . S
C528 H500 0.929 . S
C528 C525 1.391 . S
C528 C527 1.392 . S
N529 Co473 2.257 . S
N529 C526 1.391 . S
N529 C530 1.388 . S
C530 H501 0.930 . S
C530 C525 1.391 . S
C530 N529 1.388 . S
Co531 O533 2.143 . S
Co531 O539 2.074 . S
Co531 O542 2.093 . S
Co531 O555 2.097 . S
Co531 N572 2.151 . S
Co531 N580 2.214 . S
Co532 O533 2.160 . S
Co532 O538 2.058 . S
Co532 O548 2.057 . S
Co532 O563 2.037 . S
Co532 N567 2.145 1_455 S
Co532 N588 2.257 . S
O533 Co531 2.143 . S
O533 Co532 2.160 . S
C534 O535 1.278 . S
C534 O542 1.224 . S
O535 C534 1.278 . S
C536 O537 1.245 . S
C536 O548 1.232 . S
O537 C536 1.245 . S
O538 Co532 2.058 . S
O538 C564 1.269 . S
O539 Co531 2.074 . S
O539 C564 1.257 . S
H540 C565 0.930 . S
H541 C571 0.930 . S
O542 Co531 2.093 . S
O542 C534 1.224 . S
H543 C575 0.929 . S
H544 C577 0.930 . S
H545 C578 0.930 . S
H546 C576 0.929 . S
H547 C579 0.928 . S
O548 Co532 2.057 . S
O548 C536 1.232 . S
H549 C568 0.929 . S
H550 C569 0.929 . S
H551 C581 0.931 . S
H552 C573 0.929 . S
H553 C582 0.930 . S
H554 C574 0.931 . S
O555 Co531 2.097 . S
O555 C583 1.214 . S
H556 C584 0.929 . S
H557 C585 0.929 . S
H558 C586 0.919 1_655 S
H559 C587 0.929 . S
H560 C589 0.930 . S
H561 C566 0.930 . S
H562 C570 0.930 . S
O563 Co532 2.037 . S
O563 C583 1.234 . S
C564 O538 1.269 . S
C564 O539 1.257 . S
C565 H540 0.930 . S
C565 C568 1.388 . S
C565 C570 1.418 . S
C566 H561 0.930 . S
C566 C569 1.404 . S
C566 C570 1.353 . S
N567 Co532 2.145 1_655 S
N567 C568 1.397 . S
N567 C569 1.334 . S
C568 H549 0.929 . S
C568 C565 1.388 . S
C568 N567 1.397 . S
C569 H550 0.929 . S
C569 C566 1.404 . S
C569 N567 1.334 . S
C570 H562 0.930 . S
C570 C565 1.418 . S
C570 C566 1.353 . S
C571 H541 0.930 . S
C571 N572 1.330 . S
C571 C573 1.446 . S
N572 Co531 2.151 . S
N572 C571 1.330 . S
N572 C576 1.418 . S
C573 H552 0.929 . S
C573 C571 1.446 . S
C573 C574 1.332 . S
C574 H554 0.931 . S
C574 C573 1.332 . S
C574 C575 1.267 . S
C575 H543 0.929 . S
C575 C574 1.267 . S
C575 C576 1.251 . S
C576 H546 0.929 . S
C576 N572 1.418 . S
C576 C575 1.251 . S
C577 H544 0.930 . S
C577 C579 1.406 . S
C577 C582 1.261 . S
C578 H545 0.930 . S
C578 N580 1.325 . S
C578 C581 1.357 . S
C579 H547 0.928 . S
C579 C577 1.406 . S
C579 N580 1.261 . S
N580 Co531 2.214 . S
N580 C578 1.325 . S
N580 C579 1.261 . S
C581 H551 0.931 . S
C581 C578 1.357 . S
C581 C582 1.312 . S
C582 H553 0.930 . S
C582 C577 1.261 . S
C582 C581 1.312 . S
C583 O555 1.214 . S
C583 O563 1.234 . S
C584 H556 0.929 . S
C584 C587 1.391 . S
C584 C589 1.391 . S
C585 H557 0.929 . S
C585 C586 1.390 . S
C585 N588 1.391 . S
C586 H558 0.919 1_455 S
C586 C585 1.390 . S
C586 C587 1.392 . S
C587 H559 0.929 . S
C587 C584 1.391 . S
C587 C586 1.392 . S
N588 Co532 2.257 . S
N588 C585 1.391 . S
N588 C589 1.388 . S
C589 H560 0.930 . S
C589 C584 1.391 . S
C589 N588 1.388 . S
Co590 O592 2.143 . S
Co590 O598 2.074 . S
Co590 O601 2.093 . S
Co590 O614 2.097 . S
Co590 N631 2.151 . S
Co590 N639 2.214 . S
Co591 O592 2.160 . S
Co591 O597 2.058 . S
Co591 O607 2.057 . S
Co591 O622 2.037 . S
Co591 N626 2.145 1_545 S
Co591 N647 2.257 . S
O592 Co590 2.143 . S
O592 Co591 2.160 . S
C593 O594 1.278 . S
C593 O601 1.224 . S
O594 C593 1.278 . S
C595 O596 1.245 . S
C595 O607 1.232 . S
O596 C595 1.245 . S
O597 Co591 2.058 . S
O597 C623 1.269 . S
O598 Co590 2.074 . S
O598 C623 1.257 . S
H599 C624 0.930 . S
H600 C630 0.930 . S
O601 Co590 2.093 . S
O601 C593 1.224 . S
H602 C634 0.929 . S
H603 C636 0.930 . S
H604 C637 0.930 . S
H605 C635 0.929 . S
H606 C638 0.928 . S
O607 Co591 2.057 . S
O607 C595 1.232 . S
H608 C627 0.929 . S
H609 C628 0.929 . S
H610 C640 0.931 . S
H611 C632 0.929 . S
H612 C641 0.930 . S
H613 C633 0.931 . S
O614 Co590 2.097 . S
O614 C642 1.214 . S
H615 C643 0.929 . S
H616 C644 0.929 . S
H617 C645 0.901 1_565 S
H618 C646 0.929 . S
H619 C648 0.930 . S
H620 C625 0.930 . S
H621 C629 0.930 . S
O622 Co591 2.037 . S
O622 C642 1.234 . S
C623 O597 1.269 . S
C623 O598 1.257 . S
C624 H599 0.930 . S
C624 C627 1.388 . S
C624 C629 1.418 . S
C625 H620 0.930 . S
C625 C628 1.404 . S
C625 C629 1.353 . S
N626 Co591 2.145 1_565 S
N626 C627 1.397 . S
N626 C628 1.334 . S
C627 H608 0.929 . S
C627 C624 1.388 . S
C627 N626 1.397 . S
C628 H609 0.929 . S
C628 C625 1.404 . S
C628 N626 1.334 . S
C629 H621 0.930 . S
C629 C624 1.418 . S
C629 C625 1.353 . S
C630 H600 0.930 . S
C630 N631 1.330 . S
C630 C632 1.446 . S
N631 Co590 2.151 . S
N631 C630 1.330 . S
N631 C635 1.418 . S
C632 H611 0.929 . S
C632 C630 1.446 . S
C632 C633 1.332 . S
C633 H613 0.931 . S
C633 C632 1.332 . S
C633 C634 1.267 . S
C634 H602 0.929 . S
C634 C633 1.267 . S
C634 C635 1.251 . S
C635 H605 0.929 . S
C635 N631 1.418 . S
C635 C634 1.251 . S
C636 H603 0.930 . S
C636 C638 1.406 . S
C636 C641 1.261 . S
C637 H604 0.930 . S
C637 N639 1.325 . S
C637 C640 1.357 . S
C638 H606 0.928 . S
C638 C636 1.406 . S
C638 N639 1.261 . S
N639 Co590 2.214 . S
N639 C637 1.325 . S
N639 C638 1.261 . S
C640 H610 0.931 . S
C640 C637 1.357 . S
C640 C641 1.312 . S
C641 H612 0.930 . S
C641 C636 1.261 . S
C641 C640 1.312 . S
C642 O614 1.214 . S
C642 O622 1.234 . S
C643 H615 0.929 . S
C643 C646 1.391 . S
C643 C648 1.391 . S
C644 H616 0.929 . S
C644 C645 1.390 . S
C644 N647 1.391 . S
C645 H617 0.901 1_545 S
C645 C644 1.390 . S
C645 C646 1.392 . S
C646 H618 0.929 . S
C646 C643 1.391 . S
C646 C645 1.392 . S
N647 Co591 2.257 . S
N647 C644 1.391 . S
N647 C648 1.388 . S
C648 H619 0.930 . S
C648 C643 1.391 . S
C648 N647 1.388 . S
Co649 O651 2.143 . S
Co649 O657 2.074 . S
Co649 O660 2.093 . S
Co649 O673 2.097 . S
Co649 N690 2.151 . S
Co649 N698 2.214 . S
Co650 O651 2.160 . S
Co650 O656 2.058 . S
Co650 O666 2.057 . S
Co650 O681 2.037 . S
Co650 N685 2.145 . S
Co650 N706 2.257 . S
O651 Co649 2.143 . S
O651 Co650 2.160 . S
C652 O653 1.278 . S
C652 O660 1.224 . S
O653 C652 1.278 . S
C654 O655 1.245 . S
C654 O666 1.232 . S
O655 C654 1.245 . S
O656 Co650 2.058 . S
O656 C682 1.269 . S
O657 Co649 2.074 . S
O657 C682 1.257 . S
H658 C683 0.930 . S
H659 C689 0.930 . S
O660 Co649 2.093 . S
O660 C652 1.224 . S
H661 C693 0.929 . S
H662 C695 0.930 . S
H663 C696 0.930 . S
H664 C694 0.929 . S
H665 C697 0.928 . S
O666 Co650 2.057 . S
O666 C654 1.232 . S
H667 C686 0.929 . S
H668 C687 0.929 . S
H669 C699 0.931 . S
H670 C691 0.929 . S
H671 C700 0.930 . S
H672 C692 0.931 . S
O673 Co649 2.097 . S
O673 C701 1.214 . S
H674 C702 0.929 . S
H675 C703 0.929 . S
H676 C704 0.930 . S
H677 C705 0.929 . S
H678 C707 0.930 . S
H679 C684 0.930 . S
H680 C688 0.930 . S
O681 Co650 2.037 . S
O681 C701 1.234 . S
C682 O656 1.269 . S
C682 O657 1.257 . S
C683 H658 0.930 . S
C683 C686 1.388 . S
C683 C688 1.418 . S
C684 H679 0.930 . S
C684 C687 1.404 . S
C684 C688 1.353 . S
N685 Co650 2.145 . S
N685 C686 1.397 . S
N685 C687 1.334 . S
C686 H667 0.929 . S
C686 C683 1.388 . S
C686 N685 1.397 . S
C687 H668 0.929 . S
C687 C684 1.404 . S
C687 N685 1.334 . S
C688 H680 0.930 . S
C688 C683 1.418 . S
C688 C684 1.353 . S
C689 H659 0.930 . S
C689 N690 1.330 . S
C689 C691 1.446 . S
N690 Co649 2.151 . S
N690 C689 1.330 . S
N690 C694 1.418 . S
C691 H670 0.929 . S
C691 C689 1.446 . S
C691 C692 1.332 . S
C692 H672 0.931 . S
C692 C691 1.332 . S
C692 C693 1.267 . S
C693 H661 0.929 . S
C693 C692 1.267 . S
C693 C694 1.251 . S
C694 H664 0.929 . S
C694 N690 1.418 . S
C694 C693 1.251 . S
C695 H662 0.930 . S
C695 C697 1.406 . S
C695 C700 1.261 . S
C696 H663 0.930 . S
C696 N698 1.325 . S
C696 C699 1.357 . S
C697 H665 0.928 . S
C697 C695 1.406 . S
C697 N698 1.261 . S
N698 Co649 2.214 . S
N698 C696 1.325 . S
N698 C697 1.261 . S
C699 H669 0.931 . S
C699 C696 1.357 . S
C699 C700 1.312 . S
C700 H671 0.930 . S
C700 C695 1.261 . S
C700 C699 1.312 . S
C701 O673 1.214 . S
C701 O681 1.234 . S
C702 H674 0.929 . S
C702 C705 1.391 . S
C702 C707 1.391 . S
C703 H675 0.929 . S
C703 C704 1.390 . S
C703 N706 1.391 . S
C704 H676 0.930 . S
C704 C703 1.390 . S
C704 C705 1.392 . S
C705 H677 0.929 . S
C705 C702 1.391 . S
C705 C704 1.392 . S
N706 Co650 2.257 . S
N706 C703 1.391 . S
N706 C707 1.388 . S
C707 H678 0.930 . S
C707 C702 1.391 . S
C707 N706 1.388 . S
Co708 O710 2.143 . S
Co708 O716 2.074 . S
Co708 O719 2.093 . S
Co708 O732 2.097 . S
Co708 N749 2.151 . S
Co708 N757 2.214 . S
Co709 O710 2.160 . S
Co709 O715 2.058 . S
Co709 O725 2.057 . S
Co709 O740 2.037 . S
Co709 N744 2.145 1_565 S
Co709 N765 2.257 . S
O710 Co708 2.143 . S
O710 Co709 2.160 . S
C711 O712 1.278 . S
C711 O719 1.224 . S
O712 C711 1.278 . S
C713 O714 1.245 . S
C713 O725 1.232 . S
O714 C713 1.245 . S
O715 Co709 2.058 . S
O715 C741 1.269 . S
O716 Co708 2.074 . S
O716 C741 1.257 . S
H717 C742 0.930 . S
H718 C748 0.930 . S
O719 Co708 2.093 . S
O719 C711 1.224 . S
H720 C752 0.929 . S
H721 C754 0.930 . S
H722 C755 0.930 . S
H723 C753 0.929 . S
H724 C756 0.928 . S
O725 Co709 2.057 . S
O725 C713 1.232 . S
H726 C745 0.929 . S
H727 C746 0.929 . S
H728 C758 0.931 . S
H729 C750 0.929 . S
H730 C759 0.930 . S
H731 C751 0.931 . S
O732 Co708 2.097 . S
O732 C760 1.214 . S
H733 C761 0.929 . S
H734 C762 0.929 . S
H735 C763 0.919 1_545 S
H736 C764 0.929 . S
H737 C766 0.930 . S
H738 C743 0.930 . S
H739 C747 0.930 . S
O740 Co709 2.037 . S
O740 C760 1.234 . S
C741 O715 1.269 . S
C741 O716 1.257 . S
C742 H717 0.930 . S
C742 C745 1.388 . S
C742 C747 1.418 . S
C743 H738 0.930 . S
C743 C746 1.404 . S
C743 C747 1.353 . S
N744 Co709 2.145 1_545 S
N744 C745 1.397 . S
N744 C746 1.334 . S
C745 H726 0.929 . S
C745 C742 1.388 . S
C745 N744 1.397 . S
C746 H727 0.929 . S
C746 C743 1.404 . S
C746 N744 1.334 . S
C747 H739 0.930 . S
C747 C742 1.418 . S
C747 C743 1.353 . S
C748 H718 0.930 . S
C748 N749 1.330 . S
C748 C750 1.446 . S
N749 Co708 2.151 . S
N749 C748 1.330 . S
N749 C753 1.418 . S
C750 H729 0.929 . S
C750 C748 1.446 . S
C750 C751 1.332 . S
C751 H731 0.931 . S
C751 C750 1.332 . S
C751 C752 1.267 . S
C752 H720 0.929 . S
C752 C751 1.267 . S
C752 C753 1.251 . S
C753 H723 0.929 . S
C753 N749 1.418 . S
C753 C752 1.251 . S
C754 H721 0.930 . S
C754 C756 1.406 . S
C754 C759 1.261 . S
C755 H722 0.930 . S
C755 N757 1.325 . S
C755 C758 1.357 . S
C756 H724 0.928 . S
C756 C754 1.406 . S
C756 N757 1.261 . S
N757 Co708 2.214 . S
N757 C755 1.325 . S
N757 C756 1.261 . S
C758 H728 0.931 . S
C758 C755 1.357 . S
C758 C759 1.312 . S
C759 H730 0.930 . S
C759 C754 1.261 . S
C759 C758 1.312 . S
C760 O732 1.214 . S
C760 O740 1.234 . S
C761 H733 0.929 . S
C761 C764 1.391 . S
C761 C766 1.391 . S
C762 H734 0.929 . S
C762 C763 1.390 . S
C762 N765 1.391 . S
C763 H735 0.919 1_565 S
C763 C762 1.390 . S
C763 C764 1.392 . S
C764 H736 0.929 . S
C764 C761 1.391 . S
C764 C763 1.392 . S
N765 Co709 2.257 . S
N765 C762 1.391 . S
N765 C766 1.388 . S
C766 H737 0.930 . S
C766 C761 1.391 . S
C766 N765 1.388 . S
Co767 O769 2.143 . S
Co767 O775 2.074 . S
Co767 O778 2.093 . S
Co767 O791 2.097 . S
Co767 N808 2.151 . S
Co767 N816 2.214 . S
Co768 O769 2.160 . S
Co768 O774 2.058 . S
Co768 O784 2.057 . S
Co768 O799 2.037 . S
Co768 N803 2.145 . S
Co768 N824 2.257 . S
O769 Co767 2.143 . S
O769 Co768 2.160 . S
C770 O771 1.278 . S
C770 O778 1.224 . S
O771 C770 1.278 . S
C772 O773 1.245 . S
C772 O784 1.232 . S
O773 C772 1.245 . S
O774 Co768 2.058 . S
O774 C800 1.269 . S
O775 Co767 2.074 . S
O775 C800 1.257 . S
H776 C801 0.930 . S
H777 C807 0.930 . S
O778 Co767 2.093 . S
O778 C770 1.224 . S
H779 C811 0.929 . S
H780 C813 0.930 . S
H781 C814 0.930 . S
H782 C812 0.929 . S
H783 C815 0.928 . S
O784 Co768 2.057 . S
O784 C772 1.232 . S
H785 C804 0.929 . S
H786 C805 0.929 . S
H787 C817 0.931 . S
H788 C809 0.929 . S
H789 C818 0.930 . S
H790 C810 0.931 . S
O791 Co767 2.097 . S
O791 C819 1.214 . S
H792 C820 0.929 . S
H793 C821 0.929 . S
H794 C822 0.930 . S
H795 C823 0.929 . S
H796 C825 0.930 . S
H797 C802 0.930 . S
H798 C806 0.930 . S
O799 Co768 2.037 . S
O799 C819 1.234 . S
C800 O774 1.269 . S
C800 O775 1.257 . S
C801 H776 0.930 . S
C801 C804 1.388 . S
C801 C806 1.418 . S
C802 H797 0.930 . S
C802 C805 1.404 . S
C802 C806 1.353 . S
N803 Co768 2.145 . S
N803 C804 1.397 . S
N803 C805 1.334 . S
C804 H785 0.929 . S
C804 C801 1.388 . S
C804 N803 1.397 . S
C805 H786 0.929 . S
C805 C802 1.404 . S
C805 N803 1.334 . S
C806 H798 0.930 . S
C806 C801 1.418 . S
C806 C802 1.353 . S
C807 H777 0.930 . S
C807 N808 1.330 . S
C807 C809 1.446 . S
N808 Co767 2.151 . S
N808 C807 1.330 . S
N808 C812 1.418 . S
C809 H788 0.929 . S
C809 C807 1.446 . S
C809 C810 1.332 . S
C810 H790 0.931 . S
C810 C809 1.332 . S
C810 C811 1.267 . S
C811 H779 0.929 . S
C811 C810 1.267 . S
C811 C812 1.251 . S
C812 H782 0.929 . S
C812 N808 1.418 . S
C812 C811 1.251 . S
C813 H780 0.930 . S
C813 C815 1.406 . S
C813 C818 1.261 . S
C814 H781 0.930 . S
C814 N816 1.325 . S
C814 C817 1.357 . S
C815 H783 0.928 . S
C815 C813 1.406 . S
C815 N816 1.261 . S
N816 Co767 2.214 . S
N816 C814 1.325 . S
N816 C815 1.261 . S
C817 H787 0.931 . S
C817 C814 1.357 . S
C817 C818 1.312 . S
C818 H789 0.930 . S
C818 C813 1.261 . S
C818 C817 1.312 . S
C819 O791 1.214 . S
C819 O799 1.234 . S
C820 H792 0.929 . S
C820 C823 1.391 . S
C820 C825 1.391 . S
C821 H793 0.929 . S
C821 C822 1.390 . S
C821 N824 1.391 . S
C822 H794 0.930 . S
C822 C821 1.390 . S
C822 C823 1.392 . S
C823 H795 0.929 . S
C823 C820 1.391 . S
C823 C822 1.392 . S
N824 Co768 2.257 . S
N824 C821 1.391 . S
N824 C825 1.388 . S
C825 H796 0.930 . S
C825 C820 1.391 . S
C825 N824 1.388 . S
Co826 O828 2.143 . S
Co826 O834 2.074 . S
Co826 O837 2.093 . S
Co826 O850 2.097 . S
Co826 N867 2.151 . S
Co826 N875 2.214 . S
Co827 O828 2.160 . S
Co827 O833 2.058 . S
Co827 O843 2.057 . S
Co827 O858 2.037 . S
Co827 N862 2.145 1_455 S
Co827 N883 2.257 . S
O828 Co826 2.143 . S
O828 Co827 2.160 . S
C829 O830 1.278 . S
C829 O837 1.224 . S
O830 C829 1.278 . S
C831 O832 1.245 . S
C831 O843 1.232 . S
O832 C831 1.245 . S
O833 Co827 2.058 . S
O833 C859 1.269 . S
O834 Co826 2.074 . S
O834 C859 1.257 . S
H835 C860 0.930 . S
H836 C866 0.930 . S
O837 Co826 2.093 . S
O837 C829 1.224 . S
H838 C870 0.929 . S
H839 C872 0.930 . S
H840 C873 0.930 . S
H841 C871 0.929 . S
H842 C874 0.928 . S
O843 Co827 2.057 . S
O843 C831 1.232 . S
H844 C863 0.929 . S
H845 C864 0.929 . S
H846 C876 0.931 . S
H847 C868 0.929 . S
H848 C877 0.930 . S
H849 C869 0.931 . S
O850 Co826 2.097 . S
O850 C878 1.214 . S
H851 C879 0.929 . S
H852 C880 0.929 . S
H853 C881 0.901 1_655 S
H854 C882 0.929 . S
H855 C884 0.930 . S
H856 C861 0.930 . S
H857 C865 0.930 . S
O858 Co827 2.037 . S
O858 C878 1.234 . S
C859 O833 1.269 . S
C859 O834 1.257 . S
C860 H835 0.930 . S
C860 C863 1.388 . S
C860 C865 1.418 . S
C861 H856 0.930 . S
C861 C864 1.404 . S
C861 C865 1.353 . S
N862 Co827 2.145 1_655 S
N862 C863 1.397 . S
N862 C864 1.334 . S
C863 H844 0.929 . S
C863 C860 1.388 . S
C863 N862 1.397 . S
C864 H845 0.929 . S
C864 C861 1.404 . S
C864 N862 1.334 . S
C865 H857 0.930 . S
C865 C860 1.418 . S
C865 C861 1.353 . S
C866 H836 0.930 . S
C866 N867 1.330 . S
C866 C868 1.446 . S
N867 Co826 2.151 . S
N867 C866 1.330 . S
N867 C871 1.418 . S
C868 H847 0.929 . S
C868 C866 1.446 . S
C868 C869 1.332 . S
C869 H849 0.931 . S
C869 C868 1.332 . S
C869 C870 1.267 . S
C870 H838 0.929 . S
C870 C869 1.267 . S
C870 C871 1.251 . S
C871 H841 0.929 . S
C871 N867 1.418 . S
C871 C870 1.251 . S
C872 H839 0.930 . S
C872 C874 1.406 . S
C872 C877 1.261 . S
C873 H840 0.930 . S
C873 N875 1.325 . S
C873 C876 1.357 . S
C874 H842 0.928 . S
C874 C872 1.406 . S
C874 N875 1.261 . S
N875 Co826 2.214 . S
N875 C873 1.325 . S
N875 C874 1.261 . S
C876 H846 0.931 . S
C876 C873 1.357 . S
C876 C877 1.312 . S
C877 H848 0.930 . S
C877 C872 1.261 . S
C877 C876 1.312 . S
C878 O850 1.214 . S
C878 O858 1.234 . S
C879 H851 0.929 . S
C879 C882 1.391 . S
C879 C884 1.391 . S
C880 H852 0.929 . S
C880 C881 1.390 . S
C880 N883 1.391 . S
C881 H853 0.901 1_455 S
C881 C880 1.390 . S
C881 C882 1.392 . S
C882 H854 0.929 . S
C882 C879 1.391 . S
C882 C881 1.392 . S
N883 Co827 2.257 . S
N883 C880 1.391 . S
N883 C884 1.388 . S
C884 H855 0.930 . S
C884 C879 1.391 . S
C884 N883 1.388 . S
Co885 O887 2.143 . S
Co885 O893 2.074 . S
Co885 O896 2.093 . S
Co885 O909 2.097 . S
Co885 N926 2.151 . S
Co885 N934 2.214 . S
Co886 O887 2.160 . S
Co886 O892 2.058 . S
Co886 O902 2.057 . S
Co886 O917 2.037 . S
Co886 N921 2.145 1_545 S
Co886 N942 2.257 . S
O887 Co885 2.143 . S
O887 Co886 2.160 . S
C888 O889 1.278 . S
C888 O896 1.224 . S
O889 C888 1.278 . S
C890 O891 1.245 . S
C890 O902 1.232 . S
O891 C890 1.245 . S
O892 Co886 2.058 . S
O892 C918 1.269 . S
O893 Co885 2.074 . S
O893 C918 1.257 . S
H894 C919 0.930 . S
H895 C925 0.930 . S
O896 Co885 2.093 . S
O896 C888 1.224 . S
H897 C929 0.929 . S
H898 C931 0.930 . S
H899 C932 0.930 . S
H900 C930 0.929 . S
H901 C933 0.928 . S
O902 Co886 2.057 . S
O902 C890 1.232 . S
H903 C922 0.929 . S
H904 C923 0.929 . S
H905 C935 0.931 . S
H906 C927 0.929 . S
H907 C936 0.930 . S
H908 C928 0.931 . S
O909 Co885 2.097 . S
O909 C937 1.214 . S
H910 C938 0.929 . S
H911 C939 0.929 . S
H912 C940 0.919 1_565 S
H913 C941 0.929 . S
H914 C943 0.930 . S
H915 C920 0.930 . S
H916 C924 0.930 . S
O917 Co886 2.037 . S
O917 C937 1.234 . S
C918 O892 1.269 . S
C918 O893 1.257 . S
C919 H894 0.930 . S
C919 C922 1.388 . S
C919 C924 1.418 . S
C920 H915 0.930 . S
C920 C923 1.404 . S
C920 C924 1.353 . S
N921 Co886 2.145 1_565 S
N921 C922 1.397 . S
N921 C923 1.334 . S
C922 H903 0.929 . S
C922 C919 1.388 . S
C922 N921 1.397 . S
C923 H904 0.929 . S
C923 C920 1.404 . S
C923 N921 1.334 . S
C924 H916 0.930 . S
C924 C919 1.418 . S
C924 C920 1.353 . S
C925 H895 0.930 . S
C925 N926 1.330 . S
C925 C927 1.446 . S
N926 Co885 2.151 . S
N926 C925 1.330 . S
N926 C930 1.418 . S
C927 H906 0.929 . S
C927 C925 1.446 . S
C927 C928 1.332 . S
C928 H908 0.931 . S
C928 C927 1.332 . S
C928 C929 1.267 . S
C929 H897 0.929 . S
C929 C928 1.267 . S
C929 C930 1.251 . S
C930 H900 0.929 . S
C930 N926 1.418 . S
C930 C929 1.251 . S
C931 H898 0.930 . S
C931 C933 1.406 . S
C931 C936 1.261 . S
C932 H899 0.930 . S
C932 N934 1.325 . S
C932 C935 1.357 . S
C933 H901 0.928 . S
C933 C931 1.406 . S
C933 N934 1.261 . S
N934 Co885 2.214 . S
N934 C932 1.325 . S
N934 C933 1.261 . S
C935 H905 0.931 . S
C935 C932 1.357 . S
C935 C936 1.312 . S
C936 H907 0.930 . S
C936 C931 1.261 . S
C936 C935 1.312 . S
C937 O909 1.214 . S
C937 O917 1.234 . S
C938 H910 0.929 . S
C938 C941 1.391 . S
C938 C943 1.391 . S
C939 H911 0.929 . S
C939 C940 1.390 . S
C939 N942 1.391 . S
C940 H912 0.919 1_545 S
C940 C939 1.390 . S
C940 C941 1.392 . S
C941 H913 0.929 . S
C941 C938 1.391 . S
C941 C940 1.392 . S
N942 Co886 2.257 . S
N942 C939 1.391 . S
N942 C943 1.388 . S
C943 H914 0.930 . S
C943 C938 1.391 . S
C943 N942 1.388 . S
Co944 O946 2.143 . S
Co944 O952 2.074 . S
Co944 O955 2.093 . S
Co944 O968 2.097 . S
Co944 N985 2.151 . S
Co944 N993 2.214 . S
Co945 O946 2.160 . S
Co945 O951 2.058 . S
Co945 O961 2.057 . S
Co945 O976 2.037 . S
Co945 N980 2.145 . S
Co945 N1001 2.257 . S
O946 Co944 2.143 . S
O946 Co945 2.160 . S
C947 O948 1.278 . S
C947 O955 1.224 . S
O948 C947 1.278 . S
C949 O950 1.245 . S
C949 O961 1.232 . S
O950 C949 1.245 . S
O951 Co945 2.058 . S
O951 C977 1.269 . S
O952 Co944 2.074 . S
O952 C977 1.257 . S
H953 C978 0.930 . S
H954 C984 0.930 . S
O955 Co944 2.093 . S
O955 C947 1.224 . S
H956 C988 0.929 . S
H957 C990 0.930 . S
H958 C991 0.930 . S
H959 C989 0.929 . S
H960 C992 0.928 . S
O961 Co945 2.057 . S
O961 C949 1.232 . S
H962 C981 0.929 . S
H963 C982 0.929 . S
H964 C994 0.931 . S
H965 C986 0.929 . S
H966 C995 0.930 . S
H967 C987 0.931 . S
O968 Co944 2.097 . S
O968 C996 1.214 . S
H969 C997 0.929 . S
H970 C998 0.929 . S
H971 C999 0.930 . S
H972 C1000 0.929 . S
H973 C1002 0.930 . S
H974 C979 0.930 . S
H975 C983 0.930 . S
O976 Co945 2.037 . S
O976 C996 1.234 . S
C977 O951 1.269 . S
C977 O952 1.257 . S
C978 H953 0.930 . S
C978 C981 1.388 . S
C978 C983 1.418 . S
C979 H974 0.930 . S
C979 C982 1.404 . S
C979 C983 1.353 . S
N980 Co945 2.145 . S
N980 C981 1.397 . S
N980 C982 1.334 . S
C981 H962 0.929 . S
C981 C978 1.388 . S
C981 N980 1.397 . S
C982 H963 0.929 . S
C982 C979 1.404 . S
C982 N980 1.334 . S
C983 H975 0.930 . S
C983 C978 1.418 . S
C983 C979 1.353 . S
C984 H954 0.930 . S
C984 N985 1.330 . S
C984 C986 1.446 . S
N985 Co944 2.151 . S
N985 C984 1.330 . S
N985 C989 1.418 . S
C986 H965 0.929 . S
C986 C984 1.446 . S
C986 C987 1.332 . S
C987 H967 0.931 . S
C987 C986 1.332 . S
C987 C988 1.267 . S
C988 H956 0.929 . S
C988 C987 1.267 . S
C988 C989 1.251 . S
C989 H959 0.929 . S
C989 N985 1.418 . S
C989 C988 1.251 . S
C990 H957 0.930 . S
C990 C992 1.406 . S
C990 C995 1.261 . S
C991 H958 0.930 . S
C991 N993 1.325 . S
C991 C994 1.357 . S
C992 H960 0.928 . S
C992 C990 1.406 . S
C992 N993 1.261 . S
N993 Co944 2.214 . S
N993 C991 1.325 . S
N993 C992 1.261 . S
C994 H964 0.931 . S
C994 C991 1.357 . S
C994 C995 1.312 . S
C995 H966 0.930 . S
C995 C990 1.261 . S
C995 C994 1.312 . S
C996 O968 1.214 . S
C996 O976 1.234 . S
C997 H969 0.929 . S
C997 C1000 1.391 . S
C997 C1002 1.391 . S
C998 H970 0.929 . S
C998 C999 1.390 . S
C998 N1001 1.391 . S
C999 H971 0.930 . S
C999 C998 1.390 . S
C999 C1000 1.392 . S
C1000 H972 0.929 . S
C1000 C997 1.391 . S
C1000 C999 1.392 . S
N1001 Co945 2.257 . S
N1001 C998 1.391 . S
N1001 C1002 1.388 . S
C1002 H973 0.930 . S
C1002 C997 1.391 . S
C1002 N1001 1.388 . S
Co1003 O1005 2.143 . S
Co1003 O1011 2.074 . S
Co1003 O1014 2.093 . S
Co1003 O1027 2.097 . S
Co1003 N1044 2.151 . S
Co1003 N1052 2.214 . S
Co1004 O1005 2.160 . S
Co1004 O1010 2.058 . S
Co1004 O1020 2.057 . S
Co1004 O1035 2.037 . S
Co1004 N1039 2.145 1_655 S
Co1004 N1060 2.257 . S
O1005 Co1003 2.143 . S
O1005 Co1004 2.160 . S
C1006 O1007 1.278 . S
C1006 O1014 1.224 . S
O1007 C1006 1.278 . S
C1008 O1009 1.245 . S
C1008 O1020 1.232 . S
O1009 C1008 1.245 . S
O1010 Co1004 2.058 . S
O1010 C1036 1.269 . S
O1011 Co1003 2.074 . S
O1011 C1036 1.257 . S
H1012 C1037 0.930 . S
H1013 C1043 0.930 . S
O1014 Co1003 2.093 . S
O1014 C1006 1.224 . S
H1015 C1047 0.929 . S
H1016 C1049 0.930 . S
H1017 C1050 0.930 . S
H1018 C1048 0.929 . S
H1019 C1051 0.928 . S
O1020 Co1004 2.057 . S
O1020 C1008 1.232 . S
H1021 C1040 0.929 . S
H1022 C1041 0.929 . S
H1023 C1053 0.931 . S
H1024 C1045 0.929 . S
H1025 C1054 0.930 . S
H1026 C1046 0.931 . S
O1027 Co1003 2.097 . S
O1027 C1055 1.214 . S
H1028 C1056 0.929 . S
H1029 C1057 0.929 . S
H1030 C1058 0.901 1_455 S
H1031 C1059 0.929 . S
H1032 C1061 0.930 . S
H1033 C1038 0.930 . S
H1034 C1042 0.930 . S
O1035 Co1004 2.037 . S
O1035 C1055 1.234 . S
C1036 O1010 1.269 . S
C1036 O1011 1.257 . S
C1037 H1012 0.930 . S
C1037 C1040 1.388 . S
C1037 C1042 1.418 . S
C1038 H1033 0.930 . S
C1038 C1041 1.404 . S
C1038 C1042 1.353 . S
N1039 Co1004 2.145 1_455 S
N1039 C1040 1.397 . S
N1039 C1041 1.334 . S
C1040 H1021 0.929 . S
C1040 C1037 1.388 . S
C1040 N1039 1.397 . S
C1041 H1022 0.929 . S
C1041 C1038 1.404 . S
C1041 N1039 1.334 . S
C1042 H1034 0.930 . S
C1042 C1037 1.418 . S
C1042 C1038 1.353 . S
C1043 H1013 0.930 . S
C1043 N1044 1.330 . S
C1043 C1045 1.446 . S
N1044 Co1003 2.151 . S
N1044 C1043 1.330 . S
N1044 C1048 1.418 . S
C1045 H1024 0.929 . S
C1045 C1043 1.446 . S
C1045 C1046 1.332 . S
C1046 H1026 0.931 . S
C1046 C1045 1.332 . S
C1046 C1047 1.267 . S
C1047 H1015 0.929 . S
C1047 C1046 1.267 . S
C1047 C1048 1.251 . S
C1048 H1018 0.929 . S
C1048 N1044 1.418 . S
C1048 C1047 1.251 . S
C1049 H1016 0.930 . S
C1049 C1051 1.406 . S
C1049 C1054 1.261 . S
C1050 H1017 0.930 . S
C1050 N1052 1.325 . S
C1050 C1053 1.357 . S
C1051 H1019 0.928 . S
C1051 C1049 1.406 . S
C1051 N1052 1.261 . S
N1052 Co1003 2.214 . S
N1052 C1050 1.325 . S
N1052 C1051 1.261 . S
C1053 H1023 0.931 . S
C1053 C1050 1.357 . S
C1053 C1054 1.312 . S
C1054 H1025 0.930 . S
C1054 C1049 1.261 . S
C1054 C1053 1.312 . S
C1055 O1027 1.214 . S
C1055 O1035 1.234 . S
C1056 H1028 0.929 . S
C1056 C1059 1.391 . S
C1056 C1061 1.391 . S
C1057 H1029 0.929 . S
C1057 C1058 1.390 . S
C1057 N1060 1.391 . S
C1058 H1030 0.901 1_655 S
C1058 C1057 1.390 . S
C1058 C1059 1.392 . S
C1059 H1031 0.929 . S
C1059 C1056 1.391 . S
C1059 C1058 1.392 . S
N1060 Co1004 2.257 . S
N1060 C1057 1.391 . S
N1060 C1061 1.388 . S
C1061 H1032 0.930 . S
C1061 C1056 1.391 . S
C1061 N1060 1.388 . S
Co1062 O1064 2.143 . S
Co1062 O1070 2.074 . S
Co1062 O1073 2.093 . S
Co1062 O1086 2.097 . S
Co1062 N1103 2.151 . S
Co1062 N1111 2.214 . S
Co1063 O1064 2.160 . S
Co1063 O1069 2.058 . S
Co1063 O1079 2.057 . S
Co1063 O1094 2.037 . S
Co1063 N1098 2.145 1_455 S
Co1063 N1119 2.257 . S
O1064 Co1062 2.143 . S
O1064 Co1063 2.160 . S
C1065 O1066 1.278 . S
C1065 O1073 1.224 . S
O1066 C1065 1.278 . S
C1067 O1068 1.245 . S
C1067 O1079 1.232 . S
O1068 C1067 1.245 . S
O1069 Co1063 2.058 . S
O1069 C1095 1.269 . S
O1070 Co1062 2.074 . S
O1070 C1095 1.257 . S
H1071 C1096 0.930 . S
H1072 C1102 0.930 . S
O1073 Co1062 2.093 . S
O1073 C1065 1.224 . S
H1074 C1106 0.929 . S
H1075 C1108 0.930 . S
H1076 C1109 0.930 . S
H1077 C1107 0.929 . S
H1078 C1110 0.928 . S
O1079 Co1063 2.057 . S
O1079 C1067 1.232 . S
H1080 C1099 0.929 . S
H1081 C1100 0.929 . S
H1082 C1112 0.931 . S
H1083 C1104 0.929 . S
H1084 C1113 0.930 . S
H1085 C1105 0.931 . S
O1086 Co1062 2.097 . S
O1086 C1114 1.214 . S
H1087 C1115 0.929 . S
H1088 C1116 0.929 . S
H1089 C1117 0.919 1_655 S
H1090 C1118 0.929 . S
H1091 C1120 0.930 . S
H1092 C1097 0.930 . S
H1093 C1101 0.930 . S
O1094 Co1063 2.037 . S
O1094 C1114 1.234 . S
C1095 O1069 1.269 . S
C1095 O1070 1.257 . S
C1096 H1071 0.930 . S
C1096 C1099 1.388 . S
C1096 C1101 1.418 . S
C1097 H1092 0.930 . S
C1097 C1100 1.404 . S
C1097 C1101 1.353 . S
N1098 Co1063 2.145 1_655 S
N1098 C1099 1.397 . S
N1098 C1100 1.334 . S
C1099 H1080 0.929 . S
C1099 C1096 1.388 . S
C1099 N1098 1.397 . S
C1100 H1081 0.929 . S
C1100 C1097 1.404 . S
C1100 N1098 1.334 . S
C1101 H1093 0.930 . S
C1101 C1096 1.418 . S
C1101 C1097 1.353 . S
C1102 H1072 0.930 . S
C1102 N1103 1.330 . S
C1102 C1104 1.446 . S
N1103 Co1062 2.151 . S
N1103 C1102 1.330 . S
N1103 C1107 1.418 . S
C1104 H1083 0.929 . S
C1104 C1102 1.446 . S
C1104 C1105 1.332 . S
C1105 H1085 0.931 . S
C1105 C1104 1.332 . S
C1105 C1106 1.267 . S
C1106 H1074 0.929 . S
C1106 C1105 1.267 . S
C1106 C1107 1.251 . S
C1107 H1077 0.929 . S
C1107 N1103 1.418 . S
C1107 C1106 1.251 . S
C1108 H1075 0.930 . S
C1108 C1110 1.406 . S
C1108 C1113 1.261 . S
C1109 H1076 0.930 . S
C1109 N1111 1.325 . S
C1109 C1112 1.357 . S
C1110 H1078 0.928 . S
C1110 C1108 1.406 . S
C1110 N1111 1.261 . S
N1111 Co1062 2.214 . S
N1111 C1109 1.325 . S
N1111 C1110 1.261 . S
C1112 H1082 0.931 . S
C1112 C1109 1.357 . S
C1112 C1113 1.312 . S
C1113 H1084 0.930 . S
C1113 C1108 1.261 . S
C1113 C1112 1.312 . S
C1114 O1086 1.214 . S
C1114 O1094 1.234 . S
C1115 H1087 0.929 . S
C1115 C1118 1.391 . S
C1115 C1120 1.391 . S
C1116 H1088 0.929 . S
C1116 C1117 1.390 . S
C1116 N1119 1.391 . S
C1117 H1089 0.919 1_455 S
C1117 C1116 1.390 . S
C1117 C1118 1.392 . S
C1118 H1090 0.929 . S
C1118 C1115 1.391 . S
C1118 C1117 1.392 . S
N1119 Co1063 2.257 . S
N1119 C1116 1.391 . S
N1119 C1120 1.388 . S
C1120 H1091 0.930 . S
C1120 C1115 1.391 . S
C1120 N1119 1.388 . S
Co1121 O1123 2.143 . S
Co1121 O1129 2.074 . S
Co1121 O1132 2.093 . S
Co1121 O1145 2.097 . S
Co1121 N1162 2.151 . S
Co1121 N1170 2.214 . S
Co1122 O1123 2.160 . S
Co1122 O1128 2.058 . S
Co1122 O1138 2.057 . S
Co1122 O1153 2.037 . S
Co1122 N1157 2.145 1_545 S
Co1122 N1178 2.257 . S
O1123 Co1121 2.143 . S
O1123 Co1122 2.160 . S
C1124 O1125 1.278 . S
C1124 O1132 1.224 . S
O1125 C1124 1.278 . S
C1126 O1127 1.245 . S
C1126 O1138 1.232 . S
O1127 C1126 1.245 . S
O1128 Co1122 2.058 . S
O1128 C1154 1.269 . S
O1129 Co1121 2.074 . S
O1129 C1154 1.257 . S
H1130 C1155 0.930 . S
H1131 C1161 0.930 . S
O1132 Co1121 2.093 . S
O1132 C1124 1.224 . S
H1133 C1165 0.929 . S
H1134 C1167 0.930 . S
H1135 C1168 0.930 . S
H1136 C1166 0.929 . S
H1137 C1169 0.928 . S
O1138 Co1122 2.057 . S
O1138 C1126 1.232 . S
H1139 C1158 0.929 . S
H1140 C1159 0.929 . S
H1141 C1171 0.931 . S
H1142 C1163 0.929 . S
H1143 C1172 0.930 . S
H1144 C1164 0.931 . S
O1145 Co1121 2.097 . S
O1145 C1173 1.214 . S
H1146 C1174 0.929 . S
H1147 C1175 0.929 . S
H1148 C1176 0.901 1_565 S
H1149 C1177 0.929 . S
H1150 C1179 0.930 . S
H1151 C1156 0.930 . S
H1152 C1160 0.930 . S
O1153 Co1122 2.037 . S
O1153 C1173 1.234 . S
C1154 O1128 1.269 . S
C1154 O1129 1.257 . S
C1155 H1130 0.930 . S
C1155 C1158 1.388 . S
C1155 C1160 1.418 . S
C1156 H1151 0.930 . S
C1156 C1159 1.404 . S
C1156 C1160 1.353 . S
N1157 Co1122 2.145 1_565 S
N1157 C1158 1.397 . S
N1157 C1159 1.334 . S
C1158 H1139 0.929 . S
C1158 C1155 1.388 . S
C1158 N1157 1.397 . S
C1159 H1140 0.929 . S
C1159 C1156 1.404 . S
C1159 N1157 1.334 . S
C1160 H1152 0.930 . S
C1160 C1155 1.418 . S
C1160 C1156 1.353 . S
C1161 H1131 0.930 . S
C1161 N1162 1.330 . S
C1161 C1163 1.446 . S
N1162 Co1121 2.151 . S
N1162 C1161 1.330 . S
N1162 C1166 1.418 . S
C1163 H1142 0.929 . S
C1163 C1161 1.446 . S
C1163 C1164 1.332 . S
C1164 H1144 0.931 . S
C1164 C1163 1.332 . S
C1164 C1165 1.267 . S
C1165 H1133 0.929 . S
C1165 C1164 1.267 . S
C1165 C1166 1.251 . S
C1166 H1136 0.929 . S
C1166 N1162 1.418 . S
C1166 C1165 1.251 . S
C1167 H1134 0.930 . S
C1167 C1169 1.406 . S
C1167 C1172 1.261 . S
C1168 H1135 0.930 . S
C1168 N1170 1.325 . S
C1168 C1171 1.357 . S
C1169 H1137 0.928 . S
C1169 C1167 1.406 . S
C1169 N1170 1.261 . S
N1170 Co1121 2.214 . S
N1170 C1168 1.325 . S
N1170 C1169 1.261 . S
C1171 H1141 0.931 . S
C1171 C1168 1.357 . S
C1171 C1172 1.312 . S
C1172 H1143 0.930 . S
C1172 C1167 1.261 . S
C1172 C1171 1.312 . S
C1173 O1145 1.214 . S
C1173 O1153 1.234 . S
C1174 H1146 0.929 . S
C1174 C1177 1.391 . S
C1174 C1179 1.391 . S
C1175 H1147 0.929 . S
C1175 C1176 1.390 . S
C1175 N1178 1.391 . S
C1176 H1148 0.901 1_545 S
C1176 C1175 1.390 . S
C1176 C1177 1.392 . S
C1177 H1149 0.929 . S
C1177 C1174 1.391 . S
C1177 C1176 1.392 . S
N1178 Co1122 2.257 . S
N1178 C1175 1.391 . S
N1178 C1179 1.388 . S
C1179 H1150 0.930 . S
C1179 C1174 1.391 . S
C1179 N1178 1.388 . S
Co1180 O1182 2.143 . S
Co1180 O1188 2.074 . S
Co1180 O1191 2.093 . S
Co1180 O1204 2.097 . S
Co1180 N1221 2.151 . S
Co1180 N1229 2.214 . S
Co1181 O1182 2.160 . S
Co1181 O1187 2.058 . S
Co1181 O1197 2.057 . S
Co1181 O1212 2.037 . S
Co1181 N1216 2.145 . S
Co1181 N1237 2.257 . S
O1182 Co1180 2.143 . S
O1182 Co1181 2.160 . S
C1183 O1184 1.278 . S
C1183 O1191 1.224 . S
O1184 C1183 1.278 . S
C1185 O1186 1.245 . S
C1185 O1197 1.232 . S
O1186 C1185 1.245 . S
O1187 Co1181 2.058 . S
O1187 C1213 1.269 . S
O1188 Co1180 2.074 . S
O1188 C1213 1.257 . S
H1189 C1214 0.930 . S
H1190 C1220 0.930 . S
O1191 Co1180 2.093 . S
O1191 C1183 1.224 . S
H1192 C1224 0.929 . S
H1193 C1226 0.930 . S
H1194 C1227 0.930 . S
H1195 C1225 0.929 . S
H1196 C1228 0.928 . S
O1197 Co1181 2.057 . S
O1197 C1185 1.232 . S
H1198 C1217 0.929 . S
H1199 C1218 0.929 . S
H1200 C1230 0.931 . S
H1201 C1222 0.929 . S
H1202 C1231 0.930 . S
H1203 C1223 0.931 . S
O1204 Co1180 2.097 . S
O1204 C1232 1.214 . S
H1205 C1233 0.929 . S
H1206 C1234 0.929 . S
H1207 C1235 0.930 . S
H1208 C1236 0.929 . S
H1209 C1238 0.930 . S
H1210 C1215 0.930 . S
H1211 C1219 0.930 . S
O1212 Co1181 2.037 . S
O1212 C1232 1.234 . S
C1213 O1187 1.269 . S
C1213 O1188 1.257 . S
C1214 H1189 0.930 . S
C1214 C1217 1.388 . S
C1214 C1219 1.418 . S
C1215 H1210 0.930 . S
C1215 C1218 1.404 . S
C1215 C1219 1.353 . S
N1216 Co1181 2.145 . S
N1216 C1217 1.397 . S
N1216 C1218 1.334 . S
C1217 H1198 0.929 . S
C1217 C1214 1.388 . S
C1217 N1216 1.397 . S
C1218 H1199 0.929 . S
C1218 C1215 1.404 . S
C1218 N1216 1.334 . S
C1219 H1211 0.930 . S
C1219 C1214 1.418 . S
C1219 C1215 1.353 . S
C1220 H1190 0.930 . S
C1220 N1221 1.330 . S
C1220 C1222 1.446 . S
N1221 Co1180 2.151 . S
N1221 C1220 1.330 . S
N1221 C1225 1.418 . S
C1222 H1201 0.929 . S
C1222 C1220 1.446 . S
C1222 C1223 1.332 . S
C1223 H1203 0.931 . S
C1223 C1222 1.332 . S
C1223 C1224 1.267 . S
C1224 H1192 0.929 . S
C1224 C1223 1.267 . S
C1224 C1225 1.251 . S
C1225 H1195 0.929 . S
C1225 N1221 1.418 . S
C1225 C1224 1.251 . S
C1226 H1193 0.930 . S
C1226 C1228 1.406 . S
C1226 C1231 1.261 . S
C1227 H1194 0.930 . S
C1227 N1229 1.325 . S
C1227 C1230 1.357 . S
C1228 H1196 0.928 . S
C1228 C1226 1.406 . S
C1228 N1229 1.261 . S
N1229 Co1180 2.214 . S
N1229 C1227 1.325 . S
N1229 C1228 1.261 . S
C1230 H1200 0.931 . S
C1230 C1227 1.357 . S
C1230 C1231 1.312 . S
C1231 H1202 0.930 . S
C1231 C1226 1.261 . S
C1231 C1230 1.312 . S
C1232 O1204 1.214 . S
C1232 O1212 1.234 . S
C1233 H1205 0.929 . S
C1233 C1236 1.391 . S
C1233 C1238 1.391 . S
C1234 H1206 0.929 . S
C1234 C1235 1.390 . S
C1234 N1237 1.391 . S
C1235 H1207 0.930 . S
C1235 C1234 1.390 . S
C1235 C1236 1.392 . S
C1236 H1208 0.929 . S
C1236 C1233 1.391 . S
C1236 C1235 1.392 . S
N1237 Co1181 2.257 . S
N1237 C1234 1.391 . S
N1237 C1238 1.388 . S
C1238 H1209 0.930 . S
C1238 C1233 1.391 . S
C1238 N1237 1.388 . S
Co1239 O1241 2.143 . S
Co1239 O1247 2.074 . S
Co1239 O1250 2.093 . S
Co1239 O1263 2.097 . S
Co1239 N1280 2.151 . S
Co1239 N1288 2.214 . S
Co1240 O1241 2.160 . S
Co1240 O1246 2.058 . S
Co1240 O1256 2.057 . S
Co1240 O1271 2.037 . S
Co1240 N1275 2.145 1_655 S
Co1240 N1296 2.257 . S
O1241 Co1239 2.143 . S
O1241 Co1240 2.160 . S
C1242 O1243 1.278 . S
C1242 O1250 1.224 . S
O1243 C1242 1.278 . S
C1244 O1245 1.245 . S
C1244 O1256 1.232 . S
O1245 C1244 1.245 . S
O1246 Co1240 2.058 . S
O1246 C1272 1.269 . S
O1247 Co1239 2.074 . S
O1247 C1272 1.257 . S
H1248 C1273 0.930 . S
H1249 C1279 0.930 . S
O1250 Co1239 2.093 . S
O1250 C1242 1.224 . S
H1251 C1283 0.929 . S
H1252 C1285 0.930 . S
H1253 C1286 0.930 . S
H1254 C1284 0.929 . S
H1255 C1287 0.928 . S
O1256 Co1240 2.057 . S
O1256 C1244 1.232 . S
H1257 C1276 0.929 . S
H1258 C1277 0.929 . S
H1259 C1289 0.931 . S
H1260 C1281 0.929 . S
H1261 C1290 0.930 . S
H1262 C1282 0.931 . S
O1263 Co1239 2.097 . S
O1263 C1291 1.214 . S
H1264 C1292 0.929 . S
H1265 C1293 0.929 . S
H1266 C1294 0.919 1_455 S
H1267 C1295 0.929 . S
H1268 C1297 0.930 . S
H1269 C1274 0.930 . S
H1270 C1278 0.930 . S
O1271 Co1240 2.037 . S
O1271 C1291 1.234 . S
C1272 O1246 1.269 . S
C1272 O1247 1.257 . S
C1273 H1248 0.930 . S
C1273 C1276 1.388 . S
C1273 C1278 1.418 . S
C1274 H1269 0.930 . S
C1274 C1277 1.404 . S
C1274 C1278 1.353 . S
N1275 Co1240 2.145 1_455 S
N1275 C1276 1.397 . S
N1275 C1277 1.334 . S
C1276 H1257 0.929 . S
C1276 C1273 1.388 . S
C1276 N1275 1.397 . S
C1277 H1258 0.929 . S
C1277 C1274 1.404 . S
C1277 N1275 1.334 . S
C1278 H1270 0.930 . S
C1278 C1273 1.418 . S
C1278 C1274 1.353 . S
C1279 H1249 0.930 . S
C1279 N1280 1.330 . S
C1279 C1281 1.446 . S
N1280 Co1239 2.151 . S
N1280 C1279 1.330 . S
N1280 C1284 1.418 . S
C1281 H1260 0.929 . S
C1281 C1279 1.446 . S
C1281 C1282 1.332 . S
C1282 H1262 0.931 . S
C1282 C1281 1.332 . S
C1282 C1283 1.267 . S
C1283 H1251 0.929 . S
C1283 C1282 1.267 . S
C1283 C1284 1.251 . S
C1284 H1254 0.929 . S
C1284 N1280 1.418 . S
C1284 C1283 1.251 . S
C1285 H1252 0.930 . S
C1285 C1287 1.406 . S
C1285 C1290 1.261 . S
C1286 H1253 0.930 . S
C1286 N1288 1.325 . S
C1286 C1289 1.357 . S
C1287 H1255 0.928 . S
C1287 C1285 1.406 . S
C1287 N1288 1.261 . S
N1288 Co1239 2.214 . S
N1288 C1286 1.325 . S
N1288 C1287 1.261 . S
C1289 H1259 0.931 . S
C1289 C1286 1.357 . S
C1289 C1290 1.312 . S
C1290 H1261 0.930 . S
C1290 C1285 1.261 . S
C1290 C1289 1.312 . S
C1291 O1263 1.214 . S
C1291 O1271 1.234 . S
C1292 H1264 0.929 . S
C1292 C1295 1.391 . S
C1292 C1297 1.391 . S
C1293 H1265 0.929 . S
C1293 C1294 1.390 . S
C1293 N1296 1.391 . S
C1294 H1266 0.919 1_655 S
C1294 C1293 1.390 . S
C1294 C1295 1.392 . S
C1295 H1267 0.929 . S
C1295 C1292 1.391 . S
C1295 C1294 1.392 . S
N1296 Co1240 2.257 . S
N1296 C1293 1.391 . S
N1296 C1297 1.388 . S
C1297 H1268 0.930 . S
C1297 C1292 1.391 . S
C1297 N1296 1.388 . S
Co1298 O1300 2.143 . S
Co1298 O1306 2.074 . S
Co1298 O1309 2.093 . S
Co1298 O1322 2.097 . S
Co1298 N1339 2.151 . S
Co1298 N1347 2.214 . S
Co1299 O1300 2.160 . S
Co1299 O1305 2.058 . S
Co1299 O1315 2.057 . S
Co1299 O1330 2.037 . S
Co1299 N1334 2.145 1_565 S
Co1299 N1355 2.257 . S
O1300 Co1298 2.143 . S
O1300 Co1299 2.160 . S
C1301 O1302 1.278 . S
C1301 O1309 1.224 . S
O1302 C1301 1.278 . S
C1303 O1304 1.245 . S
C1303 O1315 1.232 . S
O1304 C1303 1.245 . S
O1305 Co1299 2.058 . S
O1305 C1331 1.269 . S
O1306 Co1298 2.074 . S
O1306 C1331 1.257 . S
H1307 C1332 0.930 . S
H1308 C1338 0.930 . S
O1309 Co1298 2.093 . S
O1309 C1301 1.224 . S
H1310 C1342 0.929 . S
H1311 C1344 0.930 . S
H1312 C1345 0.930 . S
H1313 C1343 0.929 . S
H1314 C1346 0.928 . S
O1315 Co1299 2.057 . S
O1315 C1303 1.232 . S
H1316 C1335 0.929 . S
H1317 C1336 0.929 . S
H1318 C1348 0.931 . S
H1319 C1340 0.929 . S
H1320 C1349 0.930 . S
H1321 C1341 0.931 . S
O1322 Co1298 2.097 . S
O1322 C1350 1.214 . S
H1323 C1351 0.929 . S
H1324 C1352 0.929 . S
H1325 C1353 0.901 1_545 S
H1326 C1354 0.929 . S
H1327 C1356 0.930 . S
H1328 C1333 0.930 . S
H1329 C1337 0.930 . S
O1330 Co1299 2.037 . S
O1330 C1350 1.234 . S
C1331 O1305 1.269 . S
C1331 O1306 1.257 . S
C1332 H1307 0.930 . S
C1332 C1335 1.388 . S
C1332 C1337 1.418 . S
C1333 H1328 0.930 . S
C1333 C1336 1.404 . S
C1333 C1337 1.353 . S
N1334 Co1299 2.145 1_545 S
N1334 C1335 1.397 . S
N1334 C1336 1.334 . S
C1335 H1316 0.929 . S
C1335 C1332 1.388 . S
C1335 N1334 1.397 . S
C1336 H1317 0.929 . S
C1336 C1333 1.404 . S
C1336 N1334 1.334 . S
C1337 H1329 0.930 . S
C1337 C1332 1.418 . S
C1337 C1333 1.353 . S
C1338 H1308 0.930 . S
C1338 N1339 1.330 . S
C1338 C1340 1.446 . S
N1339 Co1298 2.151 . S
N1339 C1338 1.330 . S
N1339 C1343 1.418 . S
C1340 H1319 0.929 . S
C1340 C1338 1.446 . S
C1340 C1341 1.332 . S
C1341 H1321 0.931 . S
C1341 C1340 1.332 . S
C1341 C1342 1.267 . S
C1342 H1310 0.929 . S
C1342 C1341 1.267 . S
C1342 C1343 1.251 . S
C1343 H1313 0.929 . S
C1343 N1339 1.418 . S
C1343 C1342 1.251 . S
C1344 H1311 0.930 . S
C1344 C1346 1.406 . S
C1344 C1349 1.261 . S
C1345 H1312 0.930 . S
C1345 N1347 1.325 . S
C1345 C1348 1.357 . S
C1346 H1314 0.928 . S
C1346 C1344 1.406 . S
C1346 N1347 1.261 . S
N1347 Co1298 2.214 . S
N1347 C1345 1.325 . S
N1347 C1346 1.261 . S
C1348 H1318 0.931 . S
C1348 C1345 1.357 . S
C1348 C1349 1.312 . S
C1349 H1320 0.930 . S
C1349 C1344 1.261 . S
C1349 C1348 1.312 . S
C1350 O1322 1.214 . S
C1350 O1330 1.234 . S
C1351 H1323 0.929 . S
C1351 C1354 1.391 . S
C1351 C1356 1.391 . S
C1352 H1324 0.929 . S
C1352 C1353 1.390 . S
C1352 N1355 1.391 . S
C1353 H1325 0.901 1_565 S
C1353 C1352 1.390 . S
C1353 C1354 1.392 . S
C1354 H1326 0.929 . S
C1354 C1351 1.391 . S
C1354 C1353 1.392 . S
N1355 Co1299 2.257 . S
N1355 C1352 1.391 . S
N1355 C1356 1.388 . S
C1356 H1327 0.930 . S
C1356 C1351 1.391 . S
C1356 N1355 1.388 . S
Co1357 O1359 2.143 . S
Co1357 O1365 2.074 . S
Co1357 O1368 2.093 . S
Co1357 O1381 2.097 . S
Co1357 N1398 2.151 . S
Co1357 N1406 2.214 . S
Co1358 O1359 2.160 . S
Co1358 O1364 2.058 . S
Co1358 O1374 2.057 . S
Co1358 O1389 2.037 . S
Co1358 N1393 2.145 . S
Co1358 N1414 2.257 . S
O1359 Co1357 2.143 . S
O1359 Co1358 2.160 . S
C1360 O1361 1.278 . S
C1360 O1368 1.224 . S
O1361 C1360 1.278 . S
C1362 O1363 1.245 . S
C1362 O1374 1.232 . S
O1363 C1362 1.245 . S
O1364 Co1358 2.058 . S
O1364 C1390 1.269 . S
O1365 Co1357 2.074 . S
O1365 C1390 1.257 . S
H1366 C1391 0.930 . S
H1367 C1397 0.930 . S
O1368 Co1357 2.093 . S
O1368 C1360 1.224 . S
H1369 C1401 0.929 . S
H1370 C1403 0.930 . S
H1371 C1404 0.930 . S
H1372 C1402 0.929 . S
H1373 C1405 0.928 . S
O1374 Co1358 2.057 . S
O1374 C1362 1.232 . S
H1375 C1394 0.929 . S
H1376 C1395 0.929 . S
H1377 C1407 0.931 . S
H1378 C1399 0.929 . S
H1379 C1408 0.930 . S
H1380 C1400 0.931 . S
O1381 Co1357 2.097 . S
O1381 C1409 1.214 . S
H1382 C1410 0.929 . S
H1383 C1411 0.929 . S
H1384 C1412 0.930 . S
H1385 C1413 0.929 . S
H1386 C1415 0.930 . S
H1387 C1392 0.930 . S
H1388 C1396 0.930 . S
O1389 Co1358 2.037 . S
O1389 C1409 1.234 . S
C1390 O1364 1.269 . S
C1390 O1365 1.257 . S
C1391 H1366 0.930 . S
C1391 C1394 1.388 . S
C1391 C1396 1.418 . S
C1392 H1387 0.930 . S
C1392 C1395 1.404 . S
C1392 C1396 1.353 . S
N1393 Co1358 2.145 . S
N1393 C1394 1.397 . S
N1393 C1395 1.334 . S
C1394 H1375 0.929 . S
C1394 C1391 1.388 . S
C1394 N1393 1.397 . S
C1395 H1376 0.929 . S
C1395 C1392 1.404 . S
C1395 N1393 1.334 . S
C1396 H1388 0.930 . S
C1396 C1391 1.418 . S
C1396 C1392 1.353 . S
C1397 H1367 0.930 . S
C1397 N1398 1.330 . S
C1397 C1399 1.446 . S
N1398 Co1357 2.151 . S
N1398 C1397 1.330 . S
N1398 C1402 1.418 . S
C1399 H1378 0.929 . S
C1399 C1397 1.446 . S
C1399 C1400 1.332 . S
C1400 H1380 0.931 . S
C1400 C1399 1.332 . S
C1400 C1401 1.267 . S
C1401 H1369 0.929 . S
C1401 C1400 1.267 . S
C1401 C1402 1.251 . S
C1402 H1372 0.929 . S
C1402 N1398 1.418 . S
C1402 C1401 1.251 . S
C1403 H1370 0.930 . S
C1403 C1405 1.406 . S
C1403 C1408 1.261 . S
C1404 H1371 0.930 . S
C1404 N1406 1.325 . S
C1404 C1407 1.357 . S
C1405 H1373 0.928 . S
C1405 C1403 1.406 . S
C1405 N1406 1.261 . S
N1406 Co1357 2.214 . S
N1406 C1404 1.325 . S
N1406 C1405 1.261 . S
C1407 H1377 0.931 . S
C1407 C1404 1.357 . S
C1407 C1408 1.312 . S
C1408 H1379 0.930 . S
C1408 C1403 1.261 . S
C1408 C1407 1.312 . S
C1409 O1381 1.214 . S
C1409 O1389 1.234 . S
C1410 H1382 0.929 . S
C1410 C1413 1.391 . S
C1410 C1415 1.391 . S
C1411 H1383 0.929 . S
C1411 C1412 1.390 . S
C1411 N1414 1.391 . S
C1412 H1384 0.930 . S
C1412 C1411 1.390 . S
C1412 C1413 1.392 . S
C1413 H1385 0.929 . S
C1413 C1410 1.391 . S
C1413 C1412 1.392 . S
N1414 Co1358 2.257 . S
N1414 C1411 1.391 . S
N1414 C1415 1.388 . S
C1415 H1386 0.930 . S
C1415 C1410 1.391 . S
C1415 N1414 1.388 . S
C1416 C1417 1.349 . S
C1416 C1418 1.327 . S
C1416 H1441 0.950 . S
C1417 C1416 1.349 . S
C1417 C1433 1.349 . S
C1418 C1416 1.327 . S
C1418 C1437 1.429 . S
C1418 H1442 0.950 . S
C1419 C1436 1.574 . S
C1419 C1438 1.368 . S
C1419 H1443 0.949 . S
H1420 C1424 0.949 . S
C1421 C1422 1.349 . S
C1421 C1423 1.327 . S
C1421 H1444 0.950 . S
C1422 C1421 1.349 . S
C1422 C1434 1.349 . S
C1423 C1421 1.327 . S
C1423 C1439 1.429 . S
C1423 H1445 0.950 . S
C1424 H1420 0.949 . S
C1424 C1432 1.574 . S
C1424 C1440 1.368 . S
H1425 C1433 0.950 . S
H1426 C1431 0.950 . S
H1427 C1432 0.949 . S
H1428 C1434 0.950 . S
H1429 C1435 0.950 . S
H1430 C1436 0.949 . S
C1431 H1426 0.950 . S
C1431 C1433 1.327 . S
C1431 C1437 1.429 . S
C1432 C1424 1.574 . S
C1432 H1427 0.949 . S
C1432 C1438 1.368 . S
C1433 C1417 1.349 . S
C1433 H1425 0.950 . S
C1433 C1431 1.327 . S
C1434 C1422 1.349 . S
C1434 H1428 0.950 . S
C1434 C1435 1.327 . S
C1435 H1429 0.950 . S
C1435 C1434 1.327 . S
C1435 C1439 1.429 . S
C1436 C1419 1.574 . S
C1436 H1430 0.949 . S
C1436 C1440 1.368 . S
C1437 C1418 1.429 . S
C1437 C1431 1.429 . S
C1437 C1438 1.523 . S
C1438 C1419 1.368 . S
C1438 C1432 1.368 . S
C1438 C1437 1.523 . S
C1439 C1423 1.429 . S
C1439 C1435 1.429 . S
C1439 C1440 1.523 . S
C1440 C1424 1.368 . S
C1440 C1436 1.368 . S
C1440 C1439 1.523 . S
H1441 C1416 0.950 . S
H1442 C1418 0.950 . S
H1443 C1419 0.949 . S
H1444 C1421 0.950 . S
H1445 C1423 0.950 . S
C1446 C1447 1.349 . S
C1446 C1448 1.327 . S
C1446 H1471 0.950 . S
C1447 C1446 1.349 . S
C1447 C1463 1.349 . S
C1448 C1446 1.327 . S
C1448 C1467 1.429 . S
C1448 H1472 0.950 . S
C1449 C1466 1.574 . S
C1449 C1468 1.368 . S
C1449 H1473 0.949 . S
H1450 C1454 0.949 . S
C1451 C1452 1.349 . S
C1451 C1453 1.327 . S
C1451 H1474 0.950 . S
C1452 C1451 1.349 . S
C1452 C1464 1.349 . S
C1453 C1451 1.327 . S
C1453 C1469 1.429 . S
C1453 H1475 0.950 . S
C1454 H1450 0.949 . S
C1454 C1462 1.574 . S
C1454 C1470 1.368 . S
H1455 C1463 0.950 . S
H1456 C1461 0.950 . S
H1457 C1462 0.949 . S
H1458 C1464 0.950 . S
H1459 C1465 0.950 . S
H1460 C1466 0.949 . S
C1461 H1456 0.950 . S
C1461 C1463 1.327 . S
C1461 C1467 1.429 . S
C1462 C1454 1.574 . S
C1462 H1457 0.949 . S
C1462 C1468 1.368 . S
C1463 C1447 1.349 . S
C1463 H1455 0.950 . S
C1463 C1461 1.327 . S
C1464 C1452 1.349 . S
C1464 H1458 0.950 . S
C1464 C1465 1.327 . S
C1465 H1459 0.950 . S
C1465 C1464 1.327 . S
C1465 C1469 1.429 . S
C1466 C1449 1.574 . S
C1466 H1460 0.949 . S
C1466 C1470 1.368 . S
C1467 C1448 1.429 . S
C1467 C1461 1.429 . S
C1467 C1468 1.523 . S
C1468 C1449 1.368 . S
C1468 C1462 1.368 . S
C1468 C1467 1.523 . S
C1469 C1453 1.429 . S
C1469 C1465 1.429 . S
C1469 C1470 1.523 . S
C1470 C1454 1.368 . S
C1470 C1466 1.368 . S
C1470 C1469 1.523 . S
H1471 C1446 0.950 . S
H1472 C1448 0.950 . S
H1473 C1449 0.949 . S
H1474 C1451 0.950 . S
H1475 C1453 0.950 . S
C1476 C1477 1.349 . S
C1476 C1478 1.327 . S
C1476 H1501 0.950 . S
C1477 C1476 1.349 . S
C1477 C1493 1.349 . S
C1478 C1476 1.327 . S
C1478 C1497 1.429 . S
C1478 H1502 0.950 . S
C1479 C1496 1.574 . S
C1479 C1498 1.368 . S
C1479 H1503 0.949 . S
H1480 C1484 0.949 . S
C1481 C1482 1.349 . S
C1481 C1483 1.327 . S
C1481 H1504 0.950 . S
C1482 C1481 1.349 . S
C1482 C1494 1.349 . S
C1483 C1481 1.327 . S
C1483 C1499 1.429 . S
C1483 H1505 0.950 . S
C1484 H1480 0.949 . S
C1484 C1492 1.574 . S
C1484 C1500 1.368 . S
H1485 C1493 0.950 . S
H1486 C1491 0.950 . S
H1487 C1492 0.949 . S
H1488 C1494 0.950 . S
H1489 C1495 0.950 . S
H1490 C1496 0.949 . S
C1491 H1486 0.950 . S
C1491 C1493 1.327 . S
C1491 C1497 1.429 . S
C1492 C1484 1.574 . S
C1492 H1487 0.949 . S
C1492 C1498 1.368 . S
C1493 C1477 1.349 . S
C1493 H1485 0.950 . S
C1493 C1491 1.327 . S
C1494 C1482 1.349 . S
C1494 H1488 0.950 . S
C1494 C1495 1.327 . S
C1495 H1489 0.950 . S
C1495 C1494 1.327 . S
C1495 C1499 1.429 . S
C1496 C1479 1.574 . S
C1496 H1490 0.949 . S
C1496 C1500 1.368 . S
C1497 C1478 1.429 . S
C1497 C1491 1.429 . S
C1497 C1498 1.523 . S
C1498 C1479 1.368 . S
C1498 C1492 1.368 . S
C1498 C1497 1.523 . S
C1499 C1483 1.429 . S
C1499 C1495 1.429 . S
C1499 C1500 1.523 . S
C1500 C1484 1.368 . S
C1500 C1496 1.368 . S
C1500 C1499 1.523 . S
H1501 C1476 0.950 . S
H1502 C1478 0.950 . S
H1503 C1479 0.949 . S
H1504 C1481 0.950 . S
H1505 C1483 0.950 . S
C1506 C1507 1.349 . S
C1506 C1508 1.327 . S
C1506 H1531 0.950 . S
C1507 C1506 1.349 . S
C1507 C1523 1.349 . S
C1508 C1506 1.327 . S
C1508 C1527 1.429 . S
C1508 H1532 0.950 . S
C1509 C1526 1.574 . S
C1509 C1528 1.368 . S
C1509 H1533 0.949 . S
H1510 C1514 0.949 . S
C1511 C1512 1.349 . S
C1511 C1513 1.327 . S
C1511 H1534 0.950 . S
C1512 C1511 1.349 . S
C1512 C1524 1.349 . S
C1513 C1511 1.327 . S
C1513 C1529 1.429 . S
C1513 H1535 0.950 . S
C1514 H1510 0.949 . S
C1514 C1522 1.574 . S
C1514 C1530 1.368 . S
H1515 C1523 0.950 . S
H1516 C1521 0.950 . S
H1517 C1522 0.949 . S
H1518 C1524 0.950 . S
H1519 C1525 0.950 . S
H1520 C1526 0.949 . S
C1521 H1516 0.950 . S
C1521 C1523 1.327 . S
C1521 C1527 1.429 . S
C1522 C1514 1.574 . S
C1522 H1517 0.949 . S
C1522 C1528 1.368 . S
C1523 C1507 1.349 . S
C1523 H1515 0.950 . S
C1523 C1521 1.327 . S
C1524 C1512 1.349 . S
C1524 H1518 0.950 . S
C1524 C1525 1.327 . S
C1525 H1519 0.950 . S
C1525 C1524 1.327 . S
C1525 C1529 1.429 . S
C1526 C1509 1.574 . S
C1526 H1520 0.949 . S
C1526 C1530 1.368 . S
C1527 C1508 1.429 . S
C1527 C1521 1.429 . S
C1527 C1528 1.523 . S
C1528 C1509 1.368 . S
C1528 C1522 1.368 . S
C1528 C1527 1.523 . S
C1529 C1513 1.429 . S
C1529 C1525 1.429 . S
C1529 C1530 1.523 . S
C1530 C1514 1.368 . S
C1530 C1526 1.368 . S
C1530 C1529 1.523 . S
H1531 C1506 0.950 . S
H1532 C1508 0.950 . S
H1533 C1509 0.949 . S
H1534 C1511 0.950 . S
H1535 C1513 0.950 . S
C1536 C1537 1.349 . S
C1536 C1538 1.327 . S
C1536 H1561 0.950 . S
C1537 C1536 1.349 . S
C1537 C1553 1.349 . S
C1538 C1536 1.327 . S
C1538 C1557 1.429 . S
C1538 H1562 0.950 . S
C1539 C1556 1.574 . S
C1539 C1558 1.368 . S
C1539 H1563 0.949 . S
H1540 C1544 0.949 . S
C1541 C1542 1.349 . S
C1541 C1543 1.327 . S
C1541 H1564 0.950 . S
C1542 C1541 1.349 . S
C1542 C1554 1.349 . S
C1543 C1541 1.327 . S
C1543 C1559 1.429 . S
C1543 H1565 0.950 . S
C1544 H1540 0.949 . S
C1544 C1552 1.574 . S
C1544 C1560 1.368 . S
H1545 C1553 0.950 . S
H1546 C1551 0.950 . S
H1547 C1552 0.949 . S
H1548 C1554 0.950 . S
H1549 C1555 0.950 . S
H1550 C1556 0.949 . S
C1551 H1546 0.950 . S
C1551 C1553 1.327 . S
C1551 C1557 1.429 . S
C1552 C1544 1.574 . S
C1552 H1547 0.949 . S
C1552 C1558 1.368 . S
C1553 C1537 1.349 . S
C1553 H1545 0.950 . S
C1553 C1551 1.327 . S
C1554 C1542 1.349 . S
C1554 H1548 0.950 . S
C1554 C1555 1.327 . S
C1555 H1549 0.950 . S
C1555 C1554 1.327 . S
C1555 C1559 1.429 . S
C1556 C1539 1.574 . S
C1556 H1550 0.949 . S
C1556 C1560 1.368 . S
C1557 C1538 1.429 . S
C1557 C1551 1.429 . S
C1557 C1558 1.523 . S
C1558 C1539 1.368 . S
C1558 C1552 1.368 . S
C1558 C1557 1.523 . S
C1559 C1543 1.429 . S
C1559 C1555 1.429 . S
C1559 C1560 1.523 . S
C1560 C1544 1.368 . S
C1560 C1556 1.368 . S
C1560 C1559 1.523 . S
H1561 C1536 0.950 . S
H1562 C1538 0.950 . S
H1563 C1539 0.949 . S
H1564 C1541 0.950 . S
H1565 C1543 0.950 . S
C1566 C1567 1.349 . S
C1566 C1568 1.327 . S
C1566 H1591 0.950 . S
C1567 C1566 1.349 . S
C1567 C1583 1.349 . S
C1568 C1566 1.327 . S
C1568 C1587 1.429 . S
C1568 H1592 0.950 . S
C1569 C1586 1.574 . S
C1569 C1588 1.368 . S
C1569 H1593 0.949 . S
H1570 C1574 0.949 . S
C1571 C1572 1.349 . S
C1571 C1573 1.327 . S
C1571 H1594 0.950 . S
C1572 C1571 1.349 . S
C1572 C1584 1.349 . S
C1573 C1571 1.327 . S
C1573 C1589 1.429 . S
C1573 H1595 0.950 . S
C1574 H1570 0.949 . S
C1574 C1582 1.574 . S
C1574 C1590 1.368 . S
H1575 C1583 0.950 . S
H1576 C1581 0.950 . S
H1577 C1582 0.949 . S
H1578 C1584 0.950 . S
H1579 C1585 0.950 . S
H1580 C1586 0.949 . S
C1581 H1576 0.950 . S
C1581 C1583 1.327 . S
C1581 C1587 1.429 . S
C1582 C1574 1.574 . S
C1582 H1577 0.949 . S
C1582 C1588 1.368 . S
C1583 C1567 1.349 . S
C1583 H1575 0.950 . S
C1583 C1581 1.327 . S
C1584 C1572 1.349 . S
C1584 H1578 0.950 . S
C1584 C1585 1.327 . S
C1585 H1579 0.950 . S
C1585 C1584 1.327 . S
C1585 C1589 1.429 . S
C1586 C1569 1.574 . S
C1586 H1580 0.949 . S
C1586 C1590 1.368 . S
C1587 C1568 1.429 . S
C1587 C1581 1.429 . S
C1587 C1588 1.523 . S
C1588 C1569 1.368 . S
C1588 C1582 1.368 . S
C1588 C1587 1.523 . S
C1589 C1573 1.429 . S
C1589 C1585 1.429 . S
C1589 C1590 1.523 . S
C1590 C1574 1.368 . S
C1590 C1586 1.368 . S
C1590 C1589 1.523 . S
H1591 C1566 0.950 . S
H1592 C1568 0.950 . S
H1593 C1569 0.949 . S
H1594 C1571 0.950 . S
H1595 C1573 0.950 . S
C1596 C1597 1.349 . S
C1596 C1598 1.327 . S
C1596 H1621 0.950 . S
C1597 C1596 1.349 . S
C1597 C1613 1.349 . S
C1598 C1596 1.327 . S
C1598 C1617 1.429 . S
C1598 H1622 0.950 . S
C1599 C1616 1.574 . S
C1599 C1618 1.368 . S
C1599 H1623 0.949 . S
H1600 C1604 0.949 . S
C1601 C1602 1.349 . S
C1601 C1603 1.327 . S
C1601 H1624 0.950 . S
C1602 C1601 1.349 . S
C1602 C1614 1.349 . S
C1603 C1601 1.327 . S
C1603 C1619 1.429 . S
C1603 H1625 0.950 . S
C1604 H1600 0.949 . S
C1604 C1612 1.574 . S
C1604 C1620 1.368 . S
H1605 C1613 0.950 . S
H1606 C1611 0.950 . S
H1607 C1612 0.949 . S
H1608 C1614 0.950 . S
H1609 C1615 0.950 . S
H1610 C1616 0.949 . S
C1611 H1606 0.950 . S
C1611 C1613 1.327 . S
C1611 C1617 1.429 . S
C1612 C1604 1.574 . S
C1612 H1607 0.949 . S
C1612 C1618 1.368 . S
C1613 C1597 1.349 . S
C1613 H1605 0.950 . S
C1613 C1611 1.327 . S
C1614 C1602 1.349 . S
C1614 H1608 0.950 . S
C1614 C1615 1.327 . S
C1615 H1609 0.950 . S
C1615 C1614 1.327 . S
C1615 C1619 1.429 . S
C1616 C1599 1.574 . S
C1616 H1610 0.949 . S
C1616 C1620 1.368 . S
C1617 C1598 1.429 . S
C1617 C1611 1.429 . S
C1617 C1618 1.523 . S
C1618 C1599 1.368 . S
C1618 C1612 1.368 . S
C1618 C1617 1.523 . S
C1619 C1603 1.429 . S
C1619 C1615 1.429 . S
C1619 C1620 1.523 . S
C1620 C1604 1.368 . S
C1620 C1616 1.368 . S
C1620 C1619 1.523 . S
H1621 C1596 0.950 . S
H1622 C1598 0.950 . S
H1623 C1599 0.949 . S
H1624 C1601 0.950 . S
H1625 C1603 0.950 . S
C1626 C1627 1.349 . S
C1626 C1628 1.327 . S
C1626 H1651 0.950 . S
C1627 C1626 1.349 . S
C1627 C1643 1.349 . S
C1628 C1626 1.327 . S
C1628 C1647 1.429 . S
C1628 H1652 0.950 . S
C1629 C1646 1.574 . S
C1629 C1648 1.368 . S
C1629 H1653 0.949 . S
H1630 C1634 0.949 . S
C1631 C1632 1.349 . S
C1631 C1633 1.327 . S
C1631 H1654 0.950 . S
C1632 C1631 1.349 . S
C1632 C1644 1.349 . S
C1633 C1631 1.327 . S
C1633 C1649 1.429 . S
C1633 H1655 0.950 . S
C1634 H1630 0.949 . S
C1634 C1642 1.574 . S
C1634 C1650 1.368 . S
H1635 C1643 0.950 . S
H1636 C1641 0.950 . S
H1637 C1642 0.949 . S
H1638 C1644 0.950 . S
H1639 C1645 0.950 . S
H1640 C1646 0.949 . S
C1641 H1636 0.950 . S
C1641 C1643 1.327 . S
C1641 C1647 1.429 . S
C1642 C1634 1.574 . S
C1642 H1637 0.949 . S
C1642 C1648 1.368 . S
C1643 C1627 1.349 . S
C1643 H1635 0.950 . S
C1643 C1641 1.327 . S
C1644 C1632 1.349 . S
C1644 H1638 0.950 . S
C1644 C1645 1.327 . S
C1645 H1639 0.950 . S
C1645 C1644 1.327 . S
C1645 C1649 1.429 . S
C1646 C1629 1.574 . S
C1646 H1640 0.949 . S
C1646 C1650 1.368 . S
C1647 C1628 1.429 . S
C1647 C1641 1.429 . S
C1647 C1648 1.523 . S
C1648 C1629 1.368 . S
C1648 C1642 1.368 . S
C1648 C1647 1.523 . S
C1649 C1633 1.429 . S
C1649 C1645 1.429 . S
C1649 C1650 1.523 . S
C1650 C1634 1.368 . S
C1650 C1646 1.368 . S
C1650 C1649 1.523 . S
H1651 C1626 0.950 . S
H1652 C1628 0.950 . S
H1653 C1629 0.949 . S
H1654 C1631 0.950 . S
H1655 C1633 0.950 . S
C1656 C1657 1.349 . S
C1656 C1658 1.327 . S
C1656 H1681 0.950 . S
C1657 C1656 1.349 . S
C1657 C1673 1.349 . S
C1658 C1656 1.327 . S
C1658 C1677 1.429 . S
C1658 H1682 0.950 . S
C1659 C1676 1.574 . S
C1659 C1678 1.368 . S
C1659 H1683 0.949 . S
H1660 C1664 0.949 . S
C1661 C1662 1.349 . S
C1661 C1663 1.327 . S
C1661 H1684 0.950 . S
C1662 C1661 1.349 . S
C1662 C1674 1.349 . S
C1663 C1661 1.327 . S
C1663 C1679 1.429 . S
C1663 H1685 0.950 . S
C1664 H1660 0.949 . S
C1664 C1672 1.574 . S
C1664 C1680 1.368 . S
H1665 C1673 0.950 . S
H1666 C1671 0.950 . S
H1667 C1672 0.949 . S
H1668 C1674 0.950 . S
H1669 C1675 0.950 . S
H1670 C1676 0.949 . S
C1671 H1666 0.950 . S
C1671 C1673 1.327 . S
C1671 C1677 1.429 . S
C1672 C1664 1.574 . S
C1672 H1667 0.949 . S
C1672 C1678 1.368 . S
C1673 C1657 1.349 . S
C1673 H1665 0.950 . S
C1673 C1671 1.327 . S
C1674 C1662 1.349 . S
C1674 H1668 0.950 . S
C1674 C1675 1.327 . S
C1675 H1669 0.950 . S
C1675 C1674 1.327 . S
C1675 C1679 1.429 . S
C1676 C1659 1.574 . S
C1676 H1670 0.949 . S
C1676 C1680 1.368 . S
C1677 C1658 1.429 . S
C1677 C1671 1.429 . S
C1677 C1678 1.523 . S
C1678 C1659 1.368 . S
C1678 C1672 1.368 . S
C1678 C1677 1.523 . S
C1679 C1663 1.429 . S
C1679 C1675 1.429 . S
C1679 C1680 1.523 . S
C1680 C1664 1.368 . S
C1680 C1676 1.368 . S
C1680 C1679 1.523 . S
H1681 C1656 0.950 . S
H1682 C1658 0.950 . S
H1683 C1659 0.949 . S
H1684 C1661 0.950 . S
H1685 C1663 0.950 . S
C1686 C1687 1.349 . S
C1686 C1688 1.327 . S
C1686 H1711 0.950 . S
C1687 C1686 1.349 . S
C1687 C1703 1.349 . S
C1688 C1686 1.327 . S
C1688 C1707 1.429 . S
C1688 H1712 0.950 . S
C1689 C1706 1.574 . S
C1689 C1708 1.368 . S
C1689 H1713 0.949 . S
H1690 C1694 0.949 . S
C1691 C1692 1.349 . S
C1691 C1693 1.327 . S
C1691 H1714 0.950 . S
C1692 C1691 1.349 . S
C1692 C1704 1.349 . S
C1693 C1691 1.327 . S
C1693 C1709 1.429 . S
C1693 H1715 0.950 . S
C1694 H1690 0.949 . S
C1694 C1702 1.574 . S
C1694 C1710 1.368 . S
H1695 C1703 0.950 . S
H1696 C1701 0.950 . S
H1697 C1702 0.949 . S
H1698 C1704 0.950 . S
H1699 C1705 0.950 . S
H1700 C1706 0.949 . S
C1701 H1696 0.950 . S
C1701 C1703 1.327 . S
C1701 C1707 1.429 . S
C1702 C1694 1.574 . S
C1702 H1697 0.949 . S
C1702 C1708 1.368 . S
C1703 C1687 1.349 . S
C1703 H1695 0.950 . S
C1703 C1701 1.327 . S
C1704 C1692 1.349 . S
C1704 H1698 0.950 . S
C1704 C1705 1.327 . S
C1705 H1699 0.950 . S
C1705 C1704 1.327 . S
C1705 C1709 1.429 . S
C1706 C1689 1.574 . S
C1706 H1700 0.949 . S
C1706 C1710 1.368 . S
C1707 C1688 1.429 . S
C1707 C1701 1.429 . S
C1707 C1708 1.523 . S
C1708 C1689 1.368 . S
C1708 C1702 1.368 . S
C1708 C1707 1.523 . S
C1709 C1693 1.429 . S
C1709 C1705 1.429 . S
C1709 C1710 1.523 . S
C1710 C1694 1.368 . S
C1710 C1706 1.368 . S
C1710 C1709 1.523 . S
H1711 C1686 0.950 . S
H1712 C1688 0.950 . S
H1713 C1689 0.949 . S
H1714 C1691 0.950 . S
H1715 C1693 0.950 . S
C1716 C1717 1.349 . S
C1716 C1718 1.327 . S
C1716 H1741 0.950 . S
C1717 C1716 1.349 . S
C1717 C1733 1.349 . S
C1718 C1716 1.327 . S
C1718 C1737 1.429 . S
C1718 H1742 0.950 . S
C1719 C1736 1.574 . S
C1719 C1738 1.368 . S
C1719 H1743 0.949 . S
H1720 C1724 0.949 . S
C1721 C1722 1.349 . S
C1721 C1723 1.327 . S
C1721 H1744 0.950 . S
C1722 C1721 1.349 . S
C1722 C1734 1.349 . S
C1723 C1721 1.327 . S
C1723 C1739 1.429 . S
C1723 H1745 0.950 . S
C1724 H1720 0.949 . S
C1724 C1732 1.574 . S
C1724 C1740 1.368 . S
H1725 C1733 0.950 . S
H1726 C1731 0.950 . S
H1727 C1732 0.949 . S
H1728 C1734 0.950 . S
H1729 C1735 0.950 . S
H1730 C1736 0.949 . S
C1731 H1726 0.950 . S
C1731 C1733 1.327 . S
C1731 C1737 1.429 . S
C1732 C1724 1.574 . S
C1732 H1727 0.949 . S
C1732 C1738 1.368 . S
C1733 C1717 1.349 . S
C1733 H1725 0.950 . S
C1733 C1731 1.327 . S
C1734 C1722 1.349 . S
C1734 H1728 0.950 . S
C1734 C1735 1.327 . S
C1735 H1729 0.950 . S
C1735 C1734 1.327 . S
C1735 C1739 1.429 . S
C1736 C1719 1.574 . S
C1736 H1730 0.949 . S
C1736 C1740 1.368 . S
C1737 C1718 1.429 . S
C1737 C1731 1.429 . S
C1737 C1738 1.523 . S
C1738 C1719 1.368 . S
C1738 C1732 1.368 . S
C1738 C1737 1.523 . S
C1739 C1723 1.429 . S
C1739 C1735 1.429 . S
C1739 C1740 1.523 . S
C1740 C1724 1.368 . S
C1740 C1736 1.368 . S
C1740 C1739 1.523 . S
H1741 C1716 0.950 . S
H1742 C1718 0.950 . S
H1743 C1719 0.949 . S
H1744 C1721 0.950 . S
H1745 C1723 0.950 . S
C1746 C1747 1.349 . S
C1746 C1748 1.327 . S
C1746 H1771 0.950 . S
C1747 C1746 1.349 . S
C1747 C1763 1.349 . S
C1748 C1746 1.327 . S
C1748 C1767 1.429 . S
C1748 H1772 0.950 . S
C1749 C1766 1.574 . S
C1749 C1768 1.368 . S
C1749 H1773 0.949 . S
H1750 C1754 0.949 . S
C1751 C1752 1.349 . S
C1751 C1753 1.327 . S
C1751 H1774 0.950 . S
C1752 C1751 1.349 . S
C1752 C1764 1.349 . S
C1753 C1751 1.327 . S
C1753 C1769 1.429 . S
C1753 H1775 0.950 . S
C1754 H1750 0.949 . S
C1754 C1762 1.574 . S
C1754 C1770 1.368 . S
H1755 C1763 0.950 . S
H1756 C1761 0.950 . S
H1757 C1762 0.949 . S
H1758 C1764 0.950 . S
H1759 C1765 0.950 . S
H1760 C1766 0.949 . S
C1761 H1756 0.950 . S
C1761 C1763 1.327 . S
C1761 C1767 1.429 . S
C1762 C1754 1.574 . S
C1762 H1757 0.949 . S
C1762 C1768 1.368 . S
C1763 C1747 1.349 . S
C1763 H1755 0.950 . S
C1763 C1761 1.327 . S
C1764 C1752 1.349 . S
C1764 H1758 0.950 . S
C1764 C1765 1.327 . S
C1765 H1759 0.950 . S
C1765 C1764 1.327 . S
C1765 C1769 1.429 . S
C1766 C1749 1.574 . S
C1766 H1760 0.949 . S
C1766 C1770 1.368 . S
C1767 C1748 1.429 . S
C1767 C1761 1.429 . S
C1767 C1768 1.523 . S
C1768 C1749 1.368 . S
C1768 C1762 1.368 . S
C1768 C1767 1.523 . S
C1769 C1753 1.429 . S
C1769 C1765 1.429 . S
C1769 C1770 1.523 . S
C1770 C1754 1.368 . S
C1770 C1766 1.368 . S
C1770 C1769 1.523 . S
H1771 C1746 0.950 . S
H1772 C1748 0.950 . S
H1773 C1749 0.949 . S
H1774 C1751 0.950 . S
H1775 C1753 0.950 . S
C1776 C1777 1.349 . S
C1776 C1778 1.327 . S
C1776 H1801 0.950 . S
C1777 C1776 1.349 . S
C1777 C1793 1.349 . S
C1778 C1776 1.327 . S
C1778 C1797 1.429 . S
C1778 H1802 0.950 . S
C1779 C1796 1.574 . S
C1779 C1798 1.368 . S
C1779 H1803 0.949 . S
H1780 C1784 0.949 . S
C1781 C1782 1.349 . S
C1781 C1783 1.327 . S
C1781 H1804 0.950 . S
C1782 C1781 1.349 . S
C1782 C1794 1.349 . S
C1783 C1781 1.327 . S
C1783 C1799 1.429 . S
C1783 H1805 0.950 . S
C1784 H1780 0.949 . S
C1784 C1792 1.574 . S
C1784 C1800 1.368 . S
H1785 C1793 0.950 . S
H1786 C1791 0.950 . S
H1787 C1792 0.949 . S
H1788 C1794 0.950 . S
H1789 C1795 0.950 . S
H1790 C1796 0.949 . S
C1791 H1786 0.950 . S
C1791 C1793 1.327 . S
C1791 C1797 1.429 . S
C1792 C1784 1.574 . S
C1792 H1787 0.949 . S
C1792 C1798 1.368 . S
C1793 C1777 1.349 . S
C1793 H1785 0.950 . S
C1793 C1791 1.327 . S
C1794 C1782 1.349 . S
C1794 H1788 0.950 . S
C1794 C1795 1.327 . S
C1795 H1789 0.950 . S
C1795 C1794 1.327 . S
C1795 C1799 1.429 . S
C1796 C1779 1.574 . S
C1796 H1790 0.949 . S
C1796 C1800 1.368 . S
C1797 C1778 1.429 . S
C1797 C1791 1.429 . S
C1797 C1798 1.523 . S
C1798 C1779 1.368 . S
C1798 C1792 1.368 . S
C1798 C1797 1.523 . S
C1799 C1783 1.429 . S
C1799 C1795 1.429 . S
C1799 C1800 1.523 . S
C1800 C1784 1.368 . S
C1800 C1796 1.368 . S
C1800 C1799 1.523 . S
H1801 C1776 0.950 . S
H1802 C1778 0.950 . S
H1803 C1779 0.949 . S
H1804 C1781 0.950 . S
H1805 C1783 0.950 . S
C1806 C1807 1.349 . S
C1806 C1808 1.327 . S
C1806 H1831 0.950 . S
C1807 C1806 1.349 . S
C1807 C1823 1.349 . S
C1808 C1806 1.327 . S
C1808 C1827 1.429 . S
C1808 H1832 0.950 . S
C1809 C1826 1.574 . S
C1809 C1828 1.368 . S
C1809 H1833 0.949 . S
H1810 C1814 0.949 . S
C1811 C1812 1.349 . S
C1811 C1813 1.327 . S
C1811 H1834 0.950 . S
C1812 C1811 1.349 . S
C1812 C1824 1.349 . S
C1813 C1811 1.327 . S
C1813 C1829 1.429 . S
C1813 H1835 0.950 . S
C1814 H1810 0.949 . S
C1814 C1822 1.574 . S
C1814 C1830 1.368 . S
H1815 C1823 0.950 . S
H1816 C1821 0.950 . S
H1817 C1822 0.949 . S
H1818 C1824 0.950 . S
H1819 C1825 0.950 . S
H1820 C1826 0.949 . S
C1821 H1816 0.950 . S
C1821 C1823 1.327 . S
C1821 C1827 1.429 . S
C1822 C1814 1.574 . S
C1822 H1817 0.949 . S
C1822 C1828 1.368 . S
C1823 C1807 1.349 . S
C1823 H1815 0.950 . S
C1823 C1821 1.327 . S
C1824 C1812 1.349 . S
C1824 H1818 0.950 . S
C1824 C1825 1.327 . S
C1825 H1819 0.950 . S
C1825 C1824 1.327 . S
C1825 C1829 1.429 . S
C1826 C1809 1.574 . S
C1826 H1820 0.949 . S
C1826 C1830 1.368 . S
C1827 C1808 1.429 . S
C1827 C1821 1.429 . S
C1827 C1828 1.523 . S
C1828 C1809 1.368 . S
C1828 C1822 1.368 . S
C1828 C1827 1.523 . S
C1829 C1813 1.429 . S
C1829 C1825 1.429 . S
C1829 C1830 1.523 . S
C1830 C1814 1.368 . S
C1830 C1826 1.368 . S
C1830 C1829 1.523 . S
H1831 C1806 0.950 . S
H1832 C1808 0.950 . S
H1833 C1809 0.949 . S
H1834 C1811 0.950 . S
H1835 C1813 0.950 . S
C1836 C1837 1.349 . S
C1836 C1838 1.327 . S
C1836 H1861 0.950 . S
C1837 C1836 1.349 . S
C1837 C1853 1.349 . S
C1838 C1836 1.327 . S
C1838 C1857 1.429 . S
C1838 H1862 0.950 . S
C1839 C1856 1.574 . S
C1839 C1858 1.368 . S
C1839 H1863 0.949 . S
H1840 C1844 0.949 . S
C1841 C1842 1.349 . S
C1841 C1843 1.327 . S
C1841 H1864 0.950 . S
C1842 C1841 1.349 . S
C1842 C1854 1.349 . S
C1843 C1841 1.327 . S
C1843 C1859 1.429 . S
C1843 H1865 0.950 . S
C1844 H1840 0.949 . S
C1844 C1852 1.574 . S
C1844 C1860 1.368 . S
H1845 C1853 0.950 . S
H1846 C1851 0.950 . S
H1847 C1852 0.949 . S
H1848 C1854 0.950 . S
H1849 C1855 0.950 . S
H1850 C1856 0.949 . S
C1851 H1846 0.950 . S
C1851 C1853 1.327 . S
C1851 C1857 1.429 . S
C1852 C1844 1.574 . S
C1852 H1847 0.949 . S
C1852 C1858 1.368 . S
C1853 C1837 1.349 . S
C1853 H1845 0.950 . S
C1853 C1851 1.327 . S
C1854 C1842 1.349 . S
C1854 H1848 0.950 . S
C1854 C1855 1.327 . S
C1855 H1849 0.950 . S
C1855 C1854 1.327 . S
C1855 C1859 1.429 . S
C1856 C1839 1.574 . S
C1856 H1850 0.949 . S
C1856 C1860 1.368 . S
C1857 C1838 1.429 . S
C1857 C1851 1.429 . S
C1857 C1858 1.523 . S
C1858 C1839 1.368 . S
C1858 C1852 1.368 . S
C1858 C1857 1.523 . S
C1859 C1843 1.429 . S
C1859 C1855 1.429 . S
C1859 C1860 1.523 . S
C1860 C1844 1.368 . S
C1860 C1856 1.368 . S
C1860 C1859 1.523 . S
H1861 C1836 0.950 . S
H1862 C1838 0.950 . S
H1863 C1839 0.949 . S
H1864 C1841 0.950 . S
H1865 C1843 0.950 . S
C1866 C1867 1.349 . S
C1866 C1868 1.327 . S
C1866 H1891 0.950 . S
C1867 C1866 1.349 . S
C1867 C1883 1.349 . S
C1868 C1866 1.327 . S
C1868 C1887 1.429 . S
C1868 H1892 0.950 . S
C1869 C1886 1.574 . S
C1869 C1888 1.368 . S
C1869 H1893 0.949 . S
H1870 C1874 0.949 . S
C1871 C1872 1.349 . S
C1871 C1873 1.327 . S
C1871 H1894 0.950 . S
C1872 C1871 1.349 . S
C1872 C1884 1.349 . S
C1873 C1871 1.327 . S
C1873 C1889 1.429 . S
C1873 H1895 0.950 . S
C1874 H1870 0.949 . S
C1874 C1882 1.574 . S
C1874 C1890 1.368 . S
H1875 C1883 0.950 . S
H1876 C1881 0.950 . S
H1877 C1882 0.949 . S
H1878 C1884 0.950 . S
H1879 C1885 0.950 . S
H1880 C1886 0.949 . S
C1881 H1876 0.950 . S
C1881 C1883 1.327 . S
C1881 C1887 1.429 . S
C1882 C1874 1.574 . S
C1882 H1877 0.949 . S
C1882 C1888 1.368 . S
C1883 C1867 1.349 . S
C1883 H1875 0.950 . S
C1883 C1881 1.327 . S
C1884 C1872 1.349 . S
C1884 H1878 0.950 . S
C1884 C1885 1.327 . S
C1885 H1879 0.950 . S
C1885 C1884 1.327 . S
C1885 C1889 1.429 . S
C1886 C1869 1.574 . S
C1886 H1880 0.949 . S
C1886 C1890 1.368 . S
C1887 C1868 1.429 . S
C1887 C1881 1.429 . S
C1887 C1888 1.523 . S
C1888 C1869 1.368 . S
C1888 C1882 1.368 . S
C1888 C1887 1.523 . S
C1889 C1873 1.429 . S
C1889 C1885 1.429 . S
C1889 C1890 1.523 . S
C1890 C1874 1.368 . S
C1890 C1886 1.368 . S
C1890 C1889 1.523 . S
H1891 C1866 0.950 . S
H1892 C1868 0.950 . S
H1893 C1869 0.949 . S
H1894 C1871 0.950 . S
H1895 C1873 0.950 . S
C1896 C1897 1.349 . S
C1896 C1898 1.327 . S
C1896 H1921 0.950 . S
C1897 C1896 1.349 . S
C1897 C1913 1.349 . S
C1898 C1896 1.327 . S
C1898 C1917 1.429 . S
C1898 H1922 0.950 . S
C1899 C1916 1.574 . S
C1899 C1918 1.368 . S
C1899 H1923 0.949 . S
H1900 C1904 0.949 . S
C1901 C1902 1.349 . S
C1901 C1903 1.327 . S
C1901 H1924 0.950 . S
C1902 C1901 1.349 . S
C1902 C1914 1.349 . S
C1903 C1901 1.327 . S
C1903 C1919 1.429 . S
C1903 H1925 0.950 . S
C1904 H1900 0.949 . S
C1904 C1912 1.574 . S
C1904 C1920 1.368 . S
H1905 C1913 0.950 . S
H1906 C1911 0.950 . S
H1907 C1912 0.949 . S
H1908 C1914 0.950 . S
H1909 C1915 0.950 . S
H1910 C1916 0.949 . S
C1911 H1906 0.950 . S
C1911 C1913 1.327 . S
C1911 C1917 1.429 . S
C1912 C1904 1.574 . S
C1912 H1907 0.949 . S
C1912 C1918 1.368 . S
C1913 C1897 1.349 . S
C1913 H1905 0.950 . S
C1913 C1911 1.327 . S
C1914 C1902 1.349 . S
C1914 H1908 0.950 . S
C1914 C1915 1.327 . S
C1915 H1909 0.950 . S
C1915 C1914 1.327 . S
C1915 C1919 1.429 . S
C1916 C1899 1.574 . S
C1916 H1910 0.949 . S
C1916 C1920 1.368 . S
C1917 C1898 1.429 . S
C1917 C1911 1.429 . S
C1917 C1918 1.523 . S
C1918 C1899 1.368 . S
C1918 C1912 1.368 . S
C1918 C1917 1.523 . S
C1919 C1903 1.429 . S
C1919 C1915 1.429 . S
C1919 C1920 1.523 . S
C1920 C1904 1.368 . S
C1920 C1916 1.368 . S
C1920 C1919 1.523 . S
H1921 C1896 0.950 . S
H1922 C1898 0.950 . S
H1923 C1899 0.949 . S
H1924 C1901 0.950 . S
H1925 C1903 0.950 . S
C1926 C1927 1.349 . S
C1926 C1928 1.327 . S
C1926 H1951 0.950 . S
C1927 C1926 1.349 . S
C1927 C1943 1.349 . S
C1928 C1926 1.327 . S
C1928 C1947 1.429 . S
C1928 H1952 0.950 . S
C1929 C1946 1.574 . S
C1929 C1948 1.368 . S
C1929 H1953 0.949 . S
H1930 C1934 0.949 . S
C1931 C1932 1.349 . S
C1931 C1933 1.327 . S
C1931 H1954 0.950 . S
C1932 C1931 1.349 . S
C1932 C1944 1.349 . S
C1933 C1931 1.327 . S
C1933 C1949 1.429 . S
C1933 H1955 0.950 . S
C1934 H1930 0.949 . S
C1934 C1942 1.574 . S
C1934 C1950 1.368 . S
H1935 C1943 0.950 . S
H1936 C1941 0.950 . S
H1937 C1942 0.949 . S
H1938 C1944 0.950 . S
H1939 C1945 0.950 . S
H1940 C1946 0.949 . S
C1941 H1936 0.950 . S
C1941 C1943 1.327 . S
C1941 C1947 1.429 . S
C1942 C1934 1.574 . S
C1942 H1937 0.949 . S
C1942 C1948 1.368 . S
C1943 C1927 1.349 . S
C1943 H1935 0.950 . S
C1943 C1941 1.327 . S
C1944 C1932 1.349 . S
C1944 H1938 0.950 . S
C1944 C1945 1.327 . S
C1945 H1939 0.950 . S
C1945 C1944 1.327 . S
C1945 C1949 1.429 . S
C1946 C1929 1.574 . S
C1946 H1940 0.949 . S
C1946 C1950 1.368 . S
C1947 C1928 1.429 . S
C1947 C1941 1.429 . S
C1947 C1948 1.523 . S
C1948 C1929 1.368 . S
C1948 C1942 1.368 . S
C1948 C1947 1.523 . S
C1949 C1933 1.429 . S
C1949 C1945 1.429 . S
C1949 C1950 1.523 . S
C1950 C1934 1.368 . S
C1950 C1946 1.368 . S
C1950 C1949 1.523 . S
H1951 C1926 0.950 . S
H1952 C1928 0.950 . S
H1953 C1929 0.949 . S
H1954 C1931 0.950 . S
H1955 C1933 0.950 . S
C1956 C1957 1.349 . S
C1956 C1958 1.327 . S
C1956 H1981 0.950 . S
C1957 C1956 1.349 . S
C1957 C1973 1.349 . S
C1958 C1956 1.327 . S
C1958 C1977 1.429 . S
C1958 H1982 0.950 . S
C1959 C1976 1.574 . S
C1959 C1978 1.368 . S
C1959 H1983 0.949 . S
H1960 C1964 0.949 . S
C1961 C1962 1.349 . S
C1961 C1963 1.327 . S
C1961 H1984 0.950 . S
C1962 C1961 1.349 . S
C1962 C1974 1.349 . S
C1963 C1961 1.327 . S
C1963 C1979 1.429 . S
C1963 H1985 0.950 . S
C1964 H1960 0.949 . S
C1964 C1972 1.574 . S
C1964 C1980 1.368 . S
H1965 C1973 0.950 . S
H1966 C1971 0.950 . S
H1967 C1972 0.949 . S
H1968 C1974 0.950 . S
H1969 C1975 0.950 . S
H1970 C1976 0.949 . S
C1971 H1966 0.950 . S
C1971 C1973 1.327 . S
C1971 C1977 1.429 . S
C1972 C1964 1.574 . S
C1972 H1967 0.949 . S
C1972 C1978 1.368 . S
C1973 C1957 1.349 . S
C1973 H1965 0.950 . S
C1973 C1971 1.327 . S
C1974 C1962 1.349 . S
C1974 H1968 0.950 . S
C1974 C1975 1.327 . S
C1975 H1969 0.950 . S
C1975 C1974 1.327 . S
C1975 C1979 1.429 . S
C1976 C1959 1.574 . S
C1976 H1970 0.949 . S
C1976 C1980 1.368 . S
C1977 C1958 1.429 . S
C1977 C1971 1.429 . S
C1977 C1978 1.523 . S
C1978 C1959 1.368 . S
C1978 C1972 1.368 . S
C1978 C1977 1.523 . S
C1979 C1963 1.429 . S
C1979 C1975 1.429 . S
C1979 C1980 1.523 . S
C1980 C1964 1.368 . S
C1980 C1976 1.368 . S
C1980 C1979 1.523 . S
H1981 C1956 0.950 . S
H1982 C1958 0.950 . S
H1983 C1959 0.949 . S
H1984 C1961 0.950 . S
H1985 C1963 0.950 . S
C1986 C1987 1.349 . S
C1986 C1988 1.327 . S
C1986 H2011 0.950 . S
C1987 C1986 1.349 . S
C1987 C2003 1.349 . S
C1988 C1986 1.327 . S
C1988 C2007 1.429 . S
C1988 H2012 0.950 . S
C1989 C2006 1.574 . S
C1989 C2008 1.368 . S
C1989 H2013 0.949 . S
H1990 C1994 0.949 . S
C1991 C1992 1.349 . S
C1991 C1993 1.327 . S
C1991 H2014 0.950 . S
C1992 C1991 1.349 . S
C1992 C2004 1.349 . S
C1993 C1991 1.327 . S
C1993 C2009 1.429 . S
C1993 H2015 0.950 . S
C1994 H1990 0.949 . S
C1994 C2002 1.574 . S
C1994 C2010 1.368 . S
H1995 C2003 0.950 . S
H1996 C2001 0.950 . S
H1997 C2002 0.949 . S
H1998 C2004 0.950 . S
H1999 C2005 0.950 . S
H2000 C2006 0.949 . S
C2001 H1996 0.950 . S
C2001 C2003 1.327 . S
C2001 C2007 1.429 . S
C2002 C1994 1.574 . S
C2002 H1997 0.949 . S
C2002 C2008 1.368 . S
C2003 C1987 1.349 . S
C2003 H1995 0.950 . S
C2003 C2001 1.327 . S
C2004 C1992 1.349 . S
C2004 H1998 0.950 . S
C2004 C2005 1.327 . S
C2005 H1999 0.950 . S
C2005 C2004 1.327 . S
C2005 C2009 1.429 . S
C2006 C1989 1.574 . S
C2006 H2000 0.949 . S
C2006 C2010 1.368 . S
C2007 C1988 1.429 . S
C2007 C2001 1.429 . S
C2007 C2008 1.523 . S
C2008 C1989 1.368 . S
C2008 C2002 1.368 . S
C2008 C2007 1.523 . S
C2009 C1993 1.429 . S
C2009 C2005 1.429 . S
C2009 C2010 1.523 . S
C2010 C1994 1.368 . S
C2010 C2006 1.368 . S
C2010 C2009 1.523 . S
H2011 C1986 0.950 . S
H2012 C1988 0.950 . S
H2013 C1989 0.949 . S
H2014 C1991 0.950 . S
H2015 C1993 0.950 . S
C2016 C2017 1.349 . S
C2016 C2018 1.327 . S
C2016 H2041 0.950 . S
C2017 C2016 1.349 . S
C2017 C2033 1.349 . S
C2018 C2016 1.327 . S
C2018 C2037 1.429 . S
C2018 H2042 0.950 . S
C2019 C2036 1.574 . S
C2019 C2038 1.368 . S
C2019 H2043 0.949 . S
H2020 C2024 0.949 . S
C2021 C2022 1.349 . S
C2021 C2023 1.327 . S
C2021 H2044 0.950 . S
C2022 C2021 1.349 . S
C2022 C2034 1.349 . S
C2023 C2021 1.327 . S
C2023 C2039 1.429 . S
C2023 H2045 0.950 . S
C2024 H2020 0.949 . S
C2024 C2032 1.574 . S
C2024 C2040 1.368 . S
H2025 C2033 0.950 . S
H2026 C2031 0.950 . S
H2027 C2032 0.949 . S
H2028 C2034 0.950 . S
H2029 C2035 0.950 . S
H2030 C2036 0.949 . S
C2031 H2026 0.950 . S
C2031 C2033 1.327 . S
C2031 C2037 1.429 . S
C2032 C2024 1.574 . S
C2032 H2027 0.949 . S
C2032 C2038 1.368 . S
C2033 C2017 1.349 . S
C2033 H2025 0.950 . S
C2033 C2031 1.327 . S
C2034 C2022 1.349 . S
C2034 H2028 0.950 . S
C2034 C2035 1.327 . S
C2035 H2029 0.950 . S
C2035 C2034 1.327 . S
C2035 C2039 1.429 . S
C2036 C2019 1.574 . S
C2036 H2030 0.949 . S
C2036 C2040 1.368 . S
C2037 C2018 1.429 . S
C2037 C2031 1.429 . S
C2037 C2038 1.523 . S
C2038 C2019 1.368 . S
C2038 C2032 1.368 . S
C2038 C2037 1.523 . S
C2039 C2023 1.429 . S
C2039 C2035 1.429 . S
C2039 C2040 1.523 . S
C2040 C2024 1.368 . S
C2040 C2036 1.368 . S
C2040 C2039 1.523 . S
H2041 C2016 0.950 . S
H2042 C2018 0.950 . S
H2043 C2019 0.949 . S
H2044 C2021 0.950 . S
H2045 C2023 0.950 . S
C2046 C2047 1.349 . S
C2046 C2048 1.327 . S
C2046 H2071 0.950 . S
C2047 C2046 1.349 . S
C2047 C2063 1.349 . S
C2048 C2046 1.327 . S
C2048 C2067 1.429 . S
C2048 H2072 0.950 . S
C2049 C2066 1.574 . S
C2049 C2068 1.368 . S
C2049 H2073 0.949 . S
H2050 C2054 0.949 . S
C2051 C2052 1.349 . S
C2051 C2053 1.327 . S
C2051 H2074 0.950 . S
C2052 C2051 1.349 . S
C2052 C2064 1.349 . S
C2053 C2051 1.327 . S
C2053 C2069 1.429 . S
C2053 H2075 0.950 . S
C2054 H2050 0.949 . S
C2054 C2062 1.574 . S
C2054 C2070 1.368 . S
H2055 C2063 0.950 . S
H2056 C2061 0.950 . S
H2057 C2062 0.949 . S
H2058 C2064 0.950 . S
H2059 C2065 0.950 . S
H2060 C2066 0.949 . S
C2061 H2056 0.950 . S
C2061 C2063 1.327 . S
C2061 C2067 1.429 . S
C2062 C2054 1.574 . S
C2062 H2057 0.949 . S
C2062 C2068 1.368 . S
C2063 C2047 1.349 . S
C2063 H2055 0.950 . S
C2063 C2061 1.327 . S
C2064 C2052 1.349 . S
C2064 H2058 0.950 . S
C2064 C2065 1.327 . S
C2065 H2059 0.950 . S
C2065 C2064 1.327 . S
C2065 C2069 1.429 . S
C2066 C2049 1.574 . S
C2066 H2060 0.949 . S
C2066 C2070 1.368 . S
C2067 C2048 1.429 . S
C2067 C2061 1.429 . S
C2067 C2068 1.523 . S
C2068 C2049 1.368 . S
C2068 C2062 1.368 . S
C2068 C2067 1.523 . S
C2069 C2053 1.429 . S
C2069 C2065 1.429 . S
C2069 C2070 1.523 . S
C2070 C2054 1.368 . S
C2070 C2066 1.368 . S
C2070 C2069 1.523 . S
H2071 C2046 0.950 . S
H2072 C2048 0.950 . S
H2073 C2049 0.949 . S
H2074 C2051 0.950 . S
H2075 C2053 0.950 . S
C2076 C2077 1.349 . S
C2076 C2078 1.327 . S
C2076 H2101 0.950 . S
C2077 C2076 1.349 . S
C2077 C2093 1.349 . S
C2078 C2076 1.327 . S
C2078 C2097 1.429 . S
C2078 H2102 0.950 . S
C2079 C2096 1.574 . S
C2079 C2098 1.368 . S
C2079 H2103 0.949 . S
H2080 C2084 0.949 . S
C2081 C2082 1.349 . S
C2081 C2083 1.327 . S
C2081 H2104 0.950 . S
C2082 C2081 1.349 . S
C2082 C2094 1.349 . S
C2083 C2081 1.327 . S
C2083 C2099 1.429 . S
C2083 H2105 0.950 . S
C2084 H2080 0.949 . S
C2084 C2092 1.574 . S
C2084 C2100 1.368 . S
H2085 C2093 0.950 . S
H2086 C2091 0.950 . S
H2087 C2092 0.949 . S
H2088 C2094 0.950 . S
H2089 C2095 0.950 . S
H2090 C2096 0.949 . S
C2091 H2086 0.950 . S
C2091 C2093 1.327 . S
C2091 C2097 1.429 . S
C2092 C2084 1.574 . S
C2092 H2087 0.949 . S
C2092 C2098 1.368 . S
C2093 C2077 1.349 . S
C2093 H2085 0.950 . S
C2093 C2091 1.327 . S
C2094 C2082 1.349 . S
C2094 H2088 0.950 . S
C2094 C2095 1.327 . S
C2095 H2089 0.950 . S
C2095 C2094 1.327 . S
C2095 C2099 1.429 . S
C2096 C2079 1.574 . S
C2096 H2090 0.949 . S
C2096 C2100 1.368 . S
C2097 C2078 1.429 . S
C2097 C2091 1.429 . S
C2097 C2098 1.523 . S
C2098 C2079 1.368 . S
C2098 C2092 1.368 . S
C2098 C2097 1.523 . S
C2099 C2083 1.429 . S
C2099 C2095 1.429 . S
C2099 C2100 1.523 . S
C2100 C2084 1.368 . S
C2100 C2096 1.368 . S
C2100 C2099 1.523 . S
H2101 C2076 0.950 . S
H2102 C2078 0.950 . S
H2103 C2079 0.949 . S
H2104 C2081 0.950 . S
H2105 C2083 0.950 . S
C2106 C2107 1.349 . S
C2106 C2108 1.327 . S
C2106 H2131 0.950 . S
C2107 C2106 1.349 . S
C2107 C2123 1.349 . S
C2108 C2106 1.327 . S
C2108 C2127 1.429 . S
C2108 H2132 0.950 . S
C2109 C2126 1.574 . S
C2109 C2128 1.368 . S
C2109 H2133 0.949 . S
H2110 C2114 0.949 . S
C2111 C2112 1.349 . S
C2111 C2113 1.327 . S
C2111 H2134 0.950 . S
C2112 C2111 1.349 . S
C2112 C2124 1.349 . S
C2113 C2111 1.327 . S
C2113 C2129 1.429 . S
C2113 H2135 0.950 . S
C2114 H2110 0.949 . S
C2114 C2122 1.574 . S
C2114 C2130 1.368 . S
H2115 C2123 0.950 . S
H2116 C2121 0.950 . S
H2117 C2122 0.949 . S
H2118 C2124 0.950 . S
H2119 C2125 0.950 . S
H2120 C2126 0.949 . S
C2121 H2116 0.950 . S
C2121 C2123 1.327 . S
C2121 C2127 1.429 . S
C2122 C2114 1.574 . S
C2122 H2117 0.949 . S
C2122 C2128 1.368 . S
C2123 C2107 1.349 . S
C2123 H2115 0.950 . S
C2123 C2121 1.327 . S
C2124 C2112 1.349 . S
C2124 H2118 0.950 . S
C2124 C2125 1.327 . S
C2125 H2119 0.950 . S
C2125 C2124 1.327 . S
C2125 C2129 1.429 . S
C2126 C2109 1.574 . S
C2126 H2120 0.949 . S
C2126 C2130 1.368 . S
C2127 C2108 1.429 . S
C2127 C2121 1.429 . S
C2127 C2128 1.523 . S
C2128 C2109 1.368 . S
C2128 C2122 1.368 . S
C2128 C2127 1.523 . S
C2129 C2113 1.429 . S
C2129 C2125 1.429 . S
C2129 C2130 1.523 . S
C2130 C2114 1.368 . S
C2130 C2126 1.368 . S
C2130 C2129 1.523 . S
H2131 C2106 0.950 . S
H2132 C2108 0.950 . S
H2133 C2109 0.949 . S
H2134 C2111 0.950 . S
H2135 C2113 0.950 . S
C2136 C2137 1.349 . S
C2136 C2138 1.327 . S
C2136 H2161 0.950 . S
C2137 C2136 1.349 . S
C2137 C2153 1.353 . S
C2138 C2136 1.327 . S
C2138 C2157 1.429 . S
C2138 H2162 0.950 . S
C2139 C2156 1.574 1_556 S
C2139 C2158 1.368 1_545 S
C2139 H2163 0.949 . S
H2140 C2144 0.949 . S
C2141 C2142 1.349 . S
C2141 C2143 1.327 . S
C2141 H2164 0.950 . S
C2142 C2141 1.349 . S
C2142 C2154 1.353 . S
C2143 C2141 1.327 . S
C2143 C2159 1.429 . S
C2143 H2165 0.950 . S
C2144 H2140 0.949 . S
C2144 C2152 1.574 1_554 S
C2144 C2160 1.368 1_565 S
H2145 C2153 0.946 1_545 S
H2146 C2151 0.950 . S
H2147 C2152 0.949 . S
H2148 C2154 0.946 1_565 S
H2149 C2155 0.950 . S
H2150 C2156 0.949 . S
C2151 H2146 0.950 . S
C2151 C2153 1.326 1_545 S
C2151 C2157 1.429 1_545 S
C2152 C2144 1.574 1_556 S
C2152 H2147 0.949 . S
C2152 C2158 1.368 . S
C2153 C2137 1.353 . S
C2153 H2145 0.946 1_565 S
C2153 C2151 1.326 1_565 S
C2154 C2142 1.353 . S
C2154 H2148 0.946 1_545 S
C2154 C2155 1.326 1_545 S
C2155 H2149 0.950 . S
C2155 C2154 1.326 1_565 S
C2155 C2159 1.429 1_565 S
C2156 C2139 1.574 1_554 S
C2156 H2150 0.949 . S
C2156 C2160 1.368 . S
C2157 C2138 1.429 . S
C2157 C2151 1.429 1_565 S
C2157 C2158 1.523 . S
C2158 C2139 1.368 1_565 S
C2158 C2152 1.368 . S
C2158 C2157 1.523 . S
C2159 C2143 1.429 . S
C2159 C2155 1.429 1_545 S
C2159 C2160 1.523 . S
C2160 C2144 1.368 1_545 S
C2160 C2156 1.368 . S
C2160 C2159 1.523 . S
H2161 C2136 0.950 . S
H2162 C2138 0.950 . S
H2163 C2139 0.949 . S
H2164 C2141 0.950 . S
H2165 C2143 0.950 . S
C2166 C2167 1.349 . S
C2166 C2168 1.327 . S
C2166 H2191 0.950 . S
C2167 C2166 1.349 . S
C2167 C2183 1.349 . S
C2168 C2166 1.327 . S
C2168 C2187 1.429 . S
C2168 H2192 0.950 . S
C2169 C2186 1.574 . S
C2169 C2188 1.368 . S
C2169 H2193 0.949 . S
H2170 C2174 0.949 . S
C2171 C2172 1.349 . S
C2171 C2173 1.327 . S
C2171 H2194 0.950 . S
C2172 C2171 1.349 . S
C2172 C2184 1.349 . S
C2173 C2171 1.327 . S
C2173 C2189 1.429 . S
C2173 H2195 0.950 . S
C2174 H2170 0.949 . S
C2174 C2182 1.574 . S
C2174 C2190 1.368 . S
H2175 C2183 0.950 . S
H2176 C2181 0.950 . S
H2177 C2182 0.949 . S
H2178 C2184 0.950 . S
H2179 C2185 0.950 . S
H2180 C2186 0.949 . S
C2181 H2176 0.950 . S
C2181 C2183 1.327 . S
C2181 C2187 1.429 . S
C2182 C2174 1.574 . S
C2182 H2177 0.949 . S
C2182 C2188 1.368 . S
C2183 C2167 1.349 . S
C2183 H2175 0.950 . S
C2183 C2181 1.327 . S
C2184 C2172 1.349 . S
C2184 H2178 0.950 . S
C2184 C2185 1.327 . S
C2185 H2179 0.950 . S
C2185 C2184 1.327 . S
C2185 C2189 1.429 . S
C2186 C2169 1.574 . S
C2186 H2180 0.949 . S
C2186 C2190 1.368 . S
C2187 C2168 1.429 . S
C2187 C2181 1.429 . S
C2187 C2188 1.523 . S
C2188 C2169 1.368 . S
C2188 C2182 1.368 . S
C2188 C2187 1.523 . S
C2189 C2173 1.429 . S
C2189 C2185 1.429 . S
C2189 C2190 1.523 . S
C2190 C2174 1.368 . S
C2190 C2186 1.368 . S
C2190 C2189 1.523 . S
H2191 C2166 0.950 . S
H2192 C2168 0.950 . S
H2193 C2169 0.949 . S
H2194 C2171 0.950 . S
H2195 C2173 0.950 . S
C2196 C2197 1.349 . S
C2196 C2198 1.327 . S
C2196 H2221 0.950 . S
C2197 C2196 1.349 . S
C2197 C2213 1.349 . S
C2198 C2196 1.327 . S
C2198 C2217 1.429 . S
C2198 H2222 0.950 . S
C2199 C2216 1.574 1_556 S
C2199 C2218 1.368 1_655 S
C2199 H2223 0.949 . S
H2200 C2204 0.949 . S
C2201 C2202 1.349 . S
C2201 C2203 1.327 . S
C2201 H2224 0.950 . S
C2202 C2201 1.349 . S
C2202 C2214 1.349 . S
C2203 C2201 1.327 . S
C2203 C2219 1.429 . S
C2203 H2225 0.950 . S
C2204 H2200 0.949 . S
C2204 C2212 1.574 1_554 S
C2204 C2220 1.368 1_455 S
H2205 C2213 0.950 . S
H2206 C2211 0.950 . S
H2207 C2212 0.949 . S
H2208 C2214 0.950 . S
H2209 C2215 0.950 . S
H2210 C2216 0.949 . S
C2211 H2206 0.950 . S
C2211 C2213 1.327 . S
C2211 C2217 1.429 . S
C2212 C2204 1.574 1_556 S
C2212 H2207 0.949 . S
C2212 C2218 1.368 . S
C2213 C2197 1.349 . S
C2213 H2205 0.950 . S
C2213 C2211 1.327 . S
C2214 C2202 1.349 . S
C2214 H2208 0.950 . S
C2214 C2215 1.327 . S
C2215 H2209 0.950 . S
C2215 C2214 1.327 . S
C2215 C2219 1.429 . S
C2216 C2199 1.574 1_554 S
C2216 H2210 0.949 . S
C2216 C2220 1.368 . S
C2217 C2198 1.429 . S
C2217 C2211 1.429 . S
C2217 C2218 1.523 . S
C2218 C2199 1.368 1_455 S
C2218 C2212 1.368 . S
C2218 C2217 1.523 . S
C2219 C2203 1.429 . S
C2219 C2215 1.429 . S
C2219 C2220 1.523 . S
C2220 C2204 1.368 1_655 S
C2220 C2216 1.368 . S
C2220 C2219 1.523 . S
H2221 C2196 0.950 . S
H2222 C2198 0.950 . S
H2223 C2199 0.949 . S
H2224 C2201 0.950 . S
H2225 C2203 0.950 . S
C2226 C2227 1.349 . S
C2226 C2228 1.327 . S
C2226 H2251 0.950 . S
C2227 C2226 1.349 . S
C2227 C2243 1.349 . S
C2228 C2226 1.327 . S
C2228 C2247 1.429 . S
C2228 H2252 0.950 . S
C2229 C2246 1.574 . S
C2229 C2248 1.368 1_565 S
C2229 H2253 0.949 . S
H2230 C2234 0.949 . S
C2231 C2232 1.349 . S
C2231 C2233 1.327 . S
C2231 H2254 0.950 . S
C2232 C2231 1.349 . S
C2232 C2244 1.349 . S
C2233 C2231 1.327 . S
C2233 C2249 1.429 . S
C2233 H2255 0.950 . S
C2234 H2230 0.949 . S
C2234 C2242 1.574 . S
C2234 C2250 1.368 1_545 S
H2235 C2243 0.950 1_565 S
H2236 C2241 0.950 . S
H2237 C2242 0.949 . S
H2238 C2244 0.950 1_545 S
H2239 C2245 0.950 . S
H2240 C2246 0.949 . S
C2241 H2236 0.950 . S
C2241 C2243 1.327 1_565 S
C2241 C2247 1.429 1_565 S
C2242 C2234 1.574 . S
C2242 H2237 0.949 . S
C2242 C2248 1.368 . S
C2243 C2227 1.349 . S
C2243 H2235 0.950 1_545 S
C2243 C2241 1.327 1_545 S
C2244 C2232 1.349 . S
C2244 H2238 0.950 1_565 S
C2244 C2245 1.327 1_565 S
C2245 H2239 0.950 . S
C2245 C2244 1.327 1_545 S
C2245 C2249 1.429 1_545 S
C2246 C2229 1.574 . S
C2246 H2240 0.949 . S
C2246 C2250 1.368 . S
C2247 C2228 1.429 . S
C2247 C2241 1.429 1_545 S
C2247 C2248 1.523 . S
C2248 C2229 1.368 1_545 S
C2248 C2242 1.368 . S
C2248 C2247 1.523 . S
C2249 C2233 1.429 . S
C2249 C2245 1.429 1_565 S
C2249 C2250 1.523 . S
C2250 C2234 1.368 1_565 S
C2250 C2246 1.368 . S
C2250 C2249 1.523 . S
H2251 C2226 0.950 . S
H2252 C2228 0.950 . S
H2253 C2229 0.949 . S
H2254 C2231 0.950 . S
H2255 C2233 0.950 . S
C2256 C2257 1.349 . S
C2256 C2258 1.327 . S
C2256 H2281 0.950 . S
C2257 C2256 1.349 . S
C2257 C2273 1.349 . S
C2258 C2256 1.327 . S
C2258 C2277 1.429 . S
C2258 H2282 0.950 . S
C2259 C2276 1.574 1_554 S
C2259 C2278 1.368 . S
C2259 H2283 0.949 . S
H2260 C2264 0.949 . S
C2261 C2262 1.349 . S
C2261 C2263 1.327 . S
C2261 H2284 0.950 . S
C2262 C2261 1.349 . S
C2262 C2274 1.349 . S
C2263 C2261 1.327 . S
C2263 C2279 1.429 . S
C2263 H2285 0.950 . S
C2264 H2260 0.949 . S
C2264 C2272 1.574 1_556 S
C2264 C2280 1.368 . S
H2265 C2273 0.950 . S
H2266 C2271 0.950 . S
H2267 C2272 0.949 . S
H2268 C2274 0.950 . S
H2269 C2275 0.950 . S
H2270 C2276 0.949 . S
C2271 H2266 0.950 . S
C2271 C2273 1.327 . S
C2271 C2277 1.429 . S
C2272 C2264 1.574 1_554 S
C2272 H2267 0.949 . S
C2272 C2278 1.368 . S
C2273 C2257 1.349 . S
C2273 H2265 0.950 . S
C2273 C2271 1.327 . S
C2274 C2262 1.349 . S
C2274 H2268 0.950 . S
C2274 C2275 1.327 . S
C2275 H2269 0.950 . S
C2275 C2274 1.327 . S
C2275 C2279 1.429 . S
C2276 C2259 1.574 1_556 S
C2276 H2270 0.949 . S
C2276 C2280 1.368 . S
C2277 C2258 1.429 . S
C2277 C2271 1.429 . S
C2277 C2278 1.523 . S
C2278 C2259 1.368 . S
C2278 C2272 1.368 . S
C2278 C2277 1.523 . S
C2279 C2263 1.429 . S
C2279 C2275 1.429 . S
C2279 C2280 1.523 . S
C2280 C2264 1.368 . S
C2280 C2276 1.368 . S
C2280 C2279 1.523 . S
H2281 C2256 0.950 . S
H2282 C2258 0.950 . S
H2283 C2259 0.949 . S
H2284 C2261 0.950 . S
H2285 C2263 0.950 . S
C2286 C2287 1.349 . S
C2286 C2288 1.327 1_455 S
C2286 H2311 0.950 1_455 S
C2287 C2286 1.349 . S
C2287 C2303 1.349 . S
C2288 C2286 1.327 1_655 S
C2288 C2307 1.429 1_655 S
C2288 H2312 0.950 . S
C2289 C2306 1.574 . S
C2289 C2308 1.368 . S
C2289 H2313 0.949 . S
H2290 C2294 0.949 . S
C2291 C2292 1.349 . S
C2291 C2293 1.327 1_655 S
C2291 H2314 0.950 1_655 S
C2292 C2291 1.349 . S
C2292 C2304 1.349 . S
C2293 C2291 1.327 1_455 S
C2293 C2309 1.429 1_455 S
C2293 H2315 0.950 . S
C2294 H2290 0.949 . S
C2294 C2302 1.574 . S
C2294 C2310 1.368 . S
H2295 C2303 0.950 . S
H2296 C2301 0.950 . S
H2297 C2302 0.949 . S
H2298 C2304 0.950 . S
H2299 C2305 0.950 . S
H2300 C2306 0.949 . S
C2301 H2296 0.950 . S
C2301 C2303 1.327 . S
C2301 C2307 1.429 . S
C2302 C2294 1.574 . S
C2302 H2297 0.949 . S
C2302 C2308 1.368 1_655 S
C2303 C2287 1.349 . S
C2303 H2295 0.950 . S
C2303 C2301 1.327 . S
C2304 C2292 1.349 . S
C2304 H2298 0.950 . S
C2304 C2305 1.327 . S
C2305 H2299 0.950 . S
C2305 C2304 1.327 . S
C2305 C2309 1.429 . S
C2306 C2289 1.574 . S
C2306 H2300 0.949 . S
C2306 C2310 1.368 1_455 S
C2307 C2288 1.429 1_455 S
C2307 C2301 1.429 . S
C2307 C2308 1.523 . S
C2308 C2289 1.368 . S
C2308 C2302 1.368 1_455 S
C2308 C2307 1.523 . S
C2309 C2293 1.429 1_655 S
C2309 C2305 1.429 . S
C2309 C2310 1.523 . S
C2310 C2294 1.368 . S
C2310 C2306 1.368 1_655 S
C2310 C2309 1.523 . S
H2311 C2286 0.950 1_655 S
H2312 C2288 0.950 . S
H2313 C2289 0.949 . S
H2314 C2291 0.950 1_455 S
H2315 C2293 0.950 . S
C2316 C2317 1.349 . S
C2316 C2318 1.327 . S
C2316 H2341 0.950 1_565 S
C2317 C2316 1.349 . S
C2317 C2333 1.349 . S
C2318 C2316 1.327 . S
C2318 C2337 1.427 . S
C2318 H2342 0.951 1_565 S
C2319 C2336 1.574 1_556 S
C2319 C2338 1.368 . S
C2319 H2343 0.949 . S
H2320 C2324 0.949 . S
C2321 C2322 1.349 . S
C2321 C2323 1.327 . S
C2321 H2344 0.950 1_545 S
C2322 C2321 1.349 . S
C2322 C2334 1.349 . S
C2323 C2321 1.327 . S
C2323 C2339 1.427 . S
C2323 H2345 0.951 1_545 S
C2324 H2320 0.949 . S
C2324 C2332 1.574 1_554 S
C2324 C2340 1.368 . S
H2325 C2333 0.950 . S
H2326 C2331 0.950 . S
H2327 C2332 0.949 . S
H2328 C2334 0.950 . S
H2329 C2335 0.950 . S
H2330 C2336 0.949 . S
C2331 H2326 0.950 . S
C2331 C2333 1.327 . S
C2331 C2337 1.429 . S
C2332 C2324 1.574 1_556 S
C2332 H2327 0.949 . S
C2332 C2338 1.368 1_545 S
C2333 C2317 1.349 . S
C2333 H2325 0.950 . S
C2333 C2331 1.327 . S
C2334 C2322 1.349 . S
C2334 H2328 0.950 . S
C2334 C2335 1.327 . S
C2335 H2329 0.950 . S
C2335 C2334 1.327 . S
C2335 C2339 1.429 . S
C2336 C2319 1.574 1_554 S
C2336 H2330 0.949 . S
C2336 C2340 1.368 1_565 S
C2337 C2318 1.427 . S
C2337 C2331 1.429 . S
C2337 C2338 1.523 . S
C2338 C2319 1.368 . S
C2338 C2332 1.368 1_565 S
C2338 C2337 1.523 . S
C2339 C2323 1.427 . S
C2339 C2335 1.429 . S
C2339 C2340 1.523 . S
C2340 C2324 1.368 . S
C2340 C2336 1.368 1_545 S
C2340 C2339 1.523 . S
H2341 C2316 0.950 1_545 S
H2342 C2318 0.951 1_545 S
H2343 C2319 0.949 . S
H2344 C2321 0.950 1_565 S
H2345 C2323 0.951 1_565 S
C2346 C2347 1.349 . S
C2346 C2348 1.327 . S
C2346 H2371 0.950 . S
C2347 C2346 1.349 . S
C2347 C2363 1.349 . S
C2348 C2346 1.327 . S
C2348 C2367 1.429 . S
C2348 H2372 0.950 . S
C2349 C2366 1.574 . S
C2349 C2368 1.368 . S
C2349 H2373 0.949 . S
H2350 C2354 0.949 . S
C2351 C2352 1.349 . S
C2351 C2353 1.327 . S
C2351 H2374 0.950 . S
C2352 C2351 1.349 . S
C2352 C2364 1.349 . S
C2353 C2351 1.327 . S
C2353 C2369 1.429 . S
C2353 H2375 0.950 . S
C2354 H2350 0.949 . S
C2354 C2362 1.574 . S
C2354 C2370 1.368 . S
H2355 C2363 0.950 . S
H2356 C2361 0.950 . S
H2357 C2362 0.949 . S
H2358 C2364 0.950 . S
H2359 C2365 0.950 . S
H2360 C2366 0.949 . S
C2361 H2356 0.950 . S
C2361 C2363 1.327 . S
C2361 C2367 1.429 . S
C2362 C2354 1.574 . S
C2362 H2357 0.949 . S
C2362 C2368 1.368 . S
C2363 C2347 1.349 . S
C2363 H2355 0.950 . S
C2363 C2361 1.327 . S
C2364 C2352 1.349 . S
C2364 H2358 0.950 . S
C2364 C2365 1.327 . S
C2365 H2359 0.950 . S
C2365 C2364 1.327 . S
C2365 C2369 1.429 . S
C2366 C2349 1.574 . S
C2366 H2360 0.949 . S
C2366 C2370 1.368 . S
C2367 C2348 1.429 . S
C2367 C2361 1.429 . S
C2367 C2368 1.523 . S
C2368 C2349 1.368 . S
C2368 C2362 1.368 . S
C2368 C2367 1.523 . S
C2369 C2353 1.429 . S
C2369 C2365 1.429 . S
C2369 C2370 1.523 . S
C2370 C2354 1.368 . S
C2370 C2366 1.368 . S
C2370 C2369 1.523 . S
H2371 C2346 0.950 . S
H2372 C2348 0.950 . S
H2373 C2349 0.949 . S
H2374 C2351 0.950 . S
H2375 C2353 0.950 . S
C2376 C2377 1.349 . S
C2376 C2378 1.327 1_655 S
C2376 H2401 0.950 1_655 S
C2377 C2376 1.349 . S
C2377 C2393 1.349 . S
C2378 C2376 1.327 1_455 S
C2378 C2397 1.429 1_455 S
C2378 H2402 0.950 . S
C2379 C2396 1.574 1_554 S
C2379 C2398 1.368 . S
C2379 H2403 0.949 . S
H2380 C2384 0.949 . S
C2381 C2382 1.349 . S
C2381 C2383 1.327 1_455 S
C2381 H2404 0.950 1_455 S
C2382 C2381 1.349 . S
C2382 C2394 1.349 . S
C2383 C2381 1.327 1_655 S
C2383 C2399 1.429 1_655 S
C2383 H2405 0.950 . S
C2384 H2380 0.949 . S
C2384 C2392 1.574 1_556 S
C2384 C2400 1.368 . S
H2385 C2393 0.950 . S
H2386 C2391 0.950 . S
H2387 C2392 0.949 . S
H2388 C2394 0.950 . S
H2389 C2395 0.950 . S
H2390 C2396 0.949 . S
C2391 H2386 0.950 . S
C2391 C2393 1.327 . S
C2391 C2397 1.429 . S
C2392 C2384 1.574 1_554 S
C2392 H2387 0.949 . S
C2392 C2398 1.368 1_455 S
C2393 C2377 1.349 . S
C2393 H2385 0.950 . S
C2393 C2391 1.327 . S
C2394 C2382 1.349 . S
C2394 H2388 0.950 . S
C2394 C2395 1.327 . S
C2395 H2389 0.950 . S
C2395 C2394 1.327 . S
C2395 C2399 1.429 . S
C2396 C2379 1.574 1_556 S
C2396 H2390 0.949 . S
C2396 C2400 1.368 1_655 S
C2397 C2378 1.429 1_655 S
C2397 C2391 1.429 . S
C2397 C2398 1.523 . S
C2398 C2379 1.368 . S
C2398 C2392 1.368 1_655 S
C2398 C2397 1.523 . S
C2399 C2383 1.429 1_455 S
C2399 C2395 1.429 . S
C2399 C2400 1.523 . S
C2400 C2384 1.368 . S
C2400 C2396 1.368 1_455 S
C2400 C2399 1.523 . S
H2401 C2376 0.950 1_455 S
H2402 C2378 0.950 . S
H2403 C2379 0.949 . S
H2404 C2381 0.950 1_655 S
H2405 C2383 0.950 . S
C2406 C2407 1.349 . S
C2406 C2408 1.327 . S
C2406 H2431 0.950 . S
C2407 C2406 1.349 . S
C2407 C2423 1.349 . S
C2408 C2406 1.327 . S
C2408 C2427 1.429 . S
C2408 H2432 0.950 . S
C2409 C2426 1.574 . S
C2409 C2428 1.368 1_545 S
C2409 H2433 0.949 . S
H2410 C2414 0.949 . S
C2411 C2412 1.349 . S
C2411 C2413 1.327 . S
C2411 H2434 0.950 . S
C2412 C2411 1.349 . S
C2412 C2424 1.349 . S
C2413 C2411 1.327 . S
C2413 C2429 1.429 . S
C2413 H2435 0.950 . S
C2414 H2410 0.949 . S
C2414 C2422 1.574 . S
C2414 C2430 1.368 1_565 S
H2415 C2423 0.950 1_545 S
H2416 C2421 0.950 . S
H2417 C2422 0.949 . S
H2418 C2424 0.950 1_565 S
H2419 C2425 0.950 . S
H2420 C2426 0.949 . S
C2421 H2416 0.950 . S
C2421 C2423 1.327 1_545 S
C2421 C2427 1.429 1_545 S
C2422 C2414 1.574 . S
C2422 H2417 0.949 . S
C2422 C2428 1.368 . S
C2423 C2407 1.349 . S
C2423 H2415 0.950 1_565 S
C2423 C2421 1.327 1_565 S
C2424 C2412 1.349 . S
C2424 H2418 0.950 1_545 S
C2424 C2425 1.327 1_545 S
C2425 H2419 0.950 . S
C2425 C2424 1.327 1_565 S
C2425 C2429 1.429 1_565 S
C2426 C2409 1.574 . S
C2426 H2420 0.949 . S
C2426 C2430 1.368 . S
C2427 C2408 1.429 . S
C2427 C2421 1.429 1_565 S
C2427 C2428 1.523 . S
C2428 C2409 1.368 1_565 S
C2428 C2422 1.368 . S
C2428 C2427 1.523 . S
C2429 C2413 1.429 . S
C2429 C2425 1.429 1_545 S
C2429 C2430 1.523 . S
C2430 C2414 1.368 1_545 S
C2430 C2426 1.368 . S
C2430 C2429 1.523 . S
H2431 C2406 0.950 . S
H2432 C2408 0.950 . S
H2433 C2409 0.949 . S
H2434 C2411 0.950 . S
H2435 C2413 0.950 . S
C2436 C2437 1.349 . S
C2436 C2438 1.327 . S
C2436 H2461 0.950 . S
C2437 C2436 1.349 . S
C2437 C2453 1.349 . S
C2438 C2436 1.327 . S
C2438 C2457 1.429 . S
C2438 H2462 0.950 . S
C2439 C2456 1.574 1_554 S
C2439 C2458 1.368 . S
C2439 H2463 0.949 . S
H2440 C2444 0.949 . S
C2441 C2442 1.349 . S
C2441 C2443 1.327 . S
C2441 H2464 0.950 . S
C2442 C2441 1.349 . S
C2442 C2454 1.349 . S
C2443 C2441 1.327 . S
C2443 C2459 1.429 . S
C2443 H2465 0.950 . S
C2444 H2440 0.949 . S
C2444 C2452 1.574 1_556 S
C2444 C2460 1.368 . S
H2445 C2453 0.950 . S
H2446 C2451 0.950 . S
H2447 C2452 0.949 . S
H2448 C2454 0.950 . S
H2449 C2455 0.950 . S
H2450 C2456 0.949 . S
C2451 H2446 0.950 . S
C2451 C2453 1.327 . S
C2451 C2457 1.429 . S
C2452 C2444 1.574 1_554 S
C2452 H2447 0.949 . S
C2452 C2458 1.368 . S
C2453 C2437 1.349 . S
C2453 H2445 0.950 . S
C2453 C2451 1.327 . S
C2454 C2442 1.349 . S
C2454 H2448 0.950 . S
C2454 C2455 1.327 . S
C2455 H2449 0.950 . S
C2455 C2454 1.327 . S
C2455 C2459 1.429 . S
C2456 C2439 1.574 1_556 S
C2456 H2450 0.949 . S
C2456 C2460 1.368 . S
C2457 C2438 1.429 . S
C2457 C2451 1.429 . S
C2457 C2458 1.523 . S
C2458 C2439 1.368 . S
C2458 C2452 1.368 . S
C2458 C2457 1.523 . S
C2459 C2443 1.429 . S
C2459 C2455 1.429 . S
C2459 C2460 1.523 . S
C2460 C2444 1.368 . S
C2460 C2456 1.368 . S
C2460 C2459 1.523 . S
H2461 C2436 0.950 . S
H2462 C2438 0.950 . S
H2463 C2439 0.949 . S
H2464 C2441 0.950 . S
H2465 C2443 0.950 . S
C2466 C2467 1.349 . S
C2466 C2468 1.327 . S
C2466 H2491 0.950 . S
C2467 C2466 1.349 . S
C2467 C2483 1.349 . S
C2468 C2466 1.327 . S
C2468 C2487 1.429 . S
C2468 H2492 0.950 . S
C2469 C2486 1.574 . S
C2469 C2488 1.368 1_655 S
C2469 H2493 0.949 . S
H2470 C2474 0.949 . S
C2471 C2472 1.349 . S
C2471 C2473 1.327 . S
C2471 H2494 0.950 . S
C2472 C2471 1.349 . S
C2472 C2484 1.349 . S
C2473 C2471 1.327 . S
C2473 C2489 1.429 . S
C2473 H2495 0.950 . S
C2474 H2470 0.949 . S
C2474 C2482 1.574 . S
C2474 C2490 1.368 1_455 S
H2475 C2483 0.950 1_655 S
H2476 C2481 0.950 . S
H2477 C2482 0.949 . S
H2478 C2484 0.950 1_455 S
H2479 C2485 0.950 . S
H2480 C2486 0.949 . S
C2481 H2476 0.950 . S
C2481 C2483 1.327 1_655 S
C2481 C2487 1.429 1_655 S
C2482 C2474 1.574 . S
C2482 H2477 0.949 . S
C2482 C2488 1.368 . S
C2483 C2467 1.349 . S
C2483 H2475 0.950 1_455 S
C2483 C2481 1.327 1_455 S
C2484 C2472 1.349 . S
C2484 H2478 0.950 1_655 S
C2484 C2485 1.327 1_655 S
C2485 H2479 0.950 . S
C2485 C2484 1.327 1_455 S
C2485 C2489 1.429 1_455 S
C2486 C2469 1.574 . S
C2486 H2480 0.949 . S
C2486 C2490 1.368 . S
C2487 C2468 1.429 . S
C2487 C2481 1.429 1_455 S
C2487 C2488 1.523 . S
C2488 C2469 1.368 1_455 S
C2488 C2482 1.368 . S
C2488 C2487 1.523 . S
C2489 C2473 1.429 . S
C2489 C2485 1.429 1_655 S
C2489 C2490 1.523 . S
C2490 C2474 1.368 1_655 S
C2490 C2486 1.368 . S
C2490 C2489 1.523 . S
H2491 C2466 0.950 . S
H2492 C2468 0.950 . S
H2493 C2469 0.949 . S
H2494 C2471 0.950 . S
H2495 C2473 0.950 . S
C2496 C2497 1.349 . S
C2496 C2498 1.327 . S
C2496 H2521 0.950 . S
C2497 C2496 1.349 . S
C2497 C2513 1.349 . S
C2498 C2496 1.327 . S
C2498 C2517 1.429 . S
C2498 H2522 0.950 . S
C2499 C2516 1.574 . S
C2499 C2518 1.368 . S
C2499 H2523 0.949 . S
H2500 C2504 0.949 . S
C2501 C2502 1.349 . S
C2501 C2503 1.327 . S
C2501 H2524 0.950 . S
C2502 C2501 1.349 . S
C2502 C2514 1.349 . S
C2503 C2501 1.327 . S
C2503 C2519 1.429 . S
C2503 H2525 0.950 . S
C2504 H2500 0.949 . S
C2504 C2512 1.574 . S
C2504 C2520 1.368 . S
H2505 C2513 0.950 . S
H2506 C2511 0.950 . S
H2507 C2512 0.949 . S
H2508 C2514 0.950 . S
H2509 C2515 0.950 . S
H2510 C2516 0.949 . S
C2511 H2506 0.950 . S
C2511 C2513 1.327 . S
C2511 C2517 1.429 . S
C2512 C2504 1.574 . S
C2512 H2507 0.949 . S
C2512 C2518 1.368 . S
C2513 C2497 1.349 . S
C2513 H2505 0.950 . S
C2513 C2511 1.327 . S
C2514 C2502 1.349 . S
C2514 H2508 0.950 . S
C2514 C2515 1.327 . S
C2515 H2509 0.950 . S
C2515 C2514 1.327 . S
C2515 C2519 1.429 . S
C2516 C2499 1.574 . S
C2516 H2510 0.949 . S
C2516 C2520 1.368 . S
C2517 C2498 1.429 . S
C2517 C2511 1.429 . S
C2517 C2518 1.523 . S
C2518 C2499 1.368 . S
C2518 C2512 1.368 . S
C2518 C2517 1.523 . S
C2519 C2503 1.429 . S
C2519 C2515 1.429 . S
C2519 C2520 1.523 . S
C2520 C2504 1.368 . S
C2520 C2516 1.368 . S
C2520 C2519 1.523 . S
H2521 C2496 0.950 . S
H2522 C2498 0.950 . S
H2523 C2499 0.949 . S
H2524 C2501 0.950 . S
H2525 C2503 0.950 . S
C2526 C2527 1.349 . S
C2526 C2528 1.327 . S
C2526 H2551 0.950 . S
C2527 C2526 1.349 . S
C2527 C2543 1.349 . S
C2528 C2526 1.327 . S
C2528 C2547 1.429 . S
C2528 H2552 0.950 . S
C2529 C2546 1.574 . S
C2529 C2548 1.368 . S
C2529 H2553 0.949 . S
H2530 C2534 0.949 . S
C2531 C2532 1.349 . S
C2531 C2533 1.327 . S
C2531 H2554 0.950 . S
C2532 C2531 1.349 . S
C2532 C2544 1.349 . S
C2533 C2531 1.327 . S
C2533 C2549 1.429 . S
C2533 H2555 0.950 . S
C2534 H2530 0.949 . S
C2534 C2542 1.574 . S
C2534 C2550 1.368 . S
H2535 C2543 0.950 . S
H2536 C2541 0.950 . S
H2537 C2542 0.949 . S
H2538 C2544 0.950 . S
H2539 C2545 0.950 . S
H2540 C2546 0.949 . S
C2541 H2536 0.950 . S
C2541 C2543 1.327 . S
C2541 C2547 1.429 . S
C2542 C2534 1.574 . S
C2542 H2537 0.949 . S
C2542 C2548 1.368 . S
C2543 C2527 1.349 . S
C2543 H2535 0.950 . S
C2543 C2541 1.327 . S
C2544 C2532 1.349 . S
C2544 H2538 0.950 . S
C2544 C2545 1.327 . S
C2545 H2539 0.950 . S
C2545 C2544 1.327 . S
C2545 C2549 1.429 . S
C2546 C2529 1.574 . S
C2546 H2540 0.949 . S
C2546 C2550 1.368 . S
C2547 C2528 1.429 . S
C2547 C2541 1.429 . S
C2547 C2548 1.523 . S
C2548 C2529 1.368 . S
C2548 C2542 1.368 . S
C2548 C2547 1.523 . S
C2549 C2533 1.429 . S
C2549 C2545 1.429 . S
C2549 C2550 1.523 . S
C2550 C2534 1.368 . S
C2550 C2546 1.368 . S
C2550 C2549 1.523 . S
H2551 C2526 0.950 . S
H2552 C2528 0.950 . S
H2553 C2529 0.949 . S
H2554 C2531 0.950 . S
H2555 C2533 0.950 . S
C2556 C2557 1.349 . S
C2556 C2558 1.327 . S
C2556 H2581 0.950 . S
C2557 C2556 1.349 . S
C2557 C2573 1.349 . S
C2558 C2556 1.327 . S
C2558 C2577 1.429 . S
C2558 H2582 0.950 . S
C2559 C2576 1.574 . S
C2559 C2578 1.368 . S
C2559 H2583 0.949 . S
H2560 C2564 0.949 . S
C2561 C2562 1.349 . S
C2561 C2563 1.327 . S
C2561 H2584 0.950 . S
C2562 C2561 1.349 . S
C2562 C2574 1.349 . S
C2563 C2561 1.327 . S
C2563 C2579 1.429 . S
C2563 H2585 0.950 . S
C2564 H2560 0.949 . S
C2564 C2572 1.574 . S
C2564 C2580 1.368 . S
H2565 C2573 0.950 . S
H2566 C2571 0.950 . S
H2567 C2572 0.949 . S
H2568 C2574 0.950 . S
H2569 C2575 0.950 . S
H2570 C2576 0.949 . S
C2571 H2566 0.950 . S
C2571 C2573 1.327 . S
C2571 C2577 1.429 . S
C2572 C2564 1.574 . S
C2572 H2567 0.949 . S
C2572 C2578 1.368 . S
C2573 C2557 1.349 . S
C2573 H2565 0.950 . S
C2573 C2571 1.327 . S
C2574 C2562 1.349 . S
C2574 H2568 0.950 . S
C2574 C2575 1.327 . S
C2575 H2569 0.950 . S
C2575 C2574 1.327 . S
C2575 C2579 1.429 . S
C2576 C2559 1.574 . S
C2576 H2570 0.949 . S
C2576 C2580 1.368 . S
C2577 C2558 1.429 . S
C2577 C2571 1.429 . S
C2577 C2578 1.523 . S
C2578 C2559 1.368 . S
C2578 C2572 1.368 . S
C2578 C2577 1.523 . S
C2579 C2563 1.429 . S
C2579 C2575 1.429 . S
C2579 C2580 1.523 . S
C2580 C2564 1.368 . S
C2580 C2576 1.368 . S
C2580 C2579 1.523 . S
H2581 C2556 0.950 . S
H2582 C2558 0.950 . S
H2583 C2559 0.949 . S
H2584 C2561 0.950 . S
H2585 C2563 0.950 . S
C2586 C2587 1.349 . S
C2586 C2588 1.327 . S
C2586 H2611 0.950 . S
C2587 C2586 1.349 . S
C2587 C2603 1.349 . S
C2588 C2586 1.327 . S
C2588 C2607 1.429 . S
C2588 H2612 0.950 . S
C2589 C2606 1.574 . S
C2589 C2608 1.368 . S
C2589 H2613 0.949 . S
H2590 C2594 0.949 . S
C2591 C2592 1.349 . S
C2591 C2593 1.327 . S
C2591 H2614 0.950 . S
C2592 C2591 1.349 . S
C2592 C2604 1.349 . S
C2593 C2591 1.327 . S
C2593 C2609 1.429 . S
C2593 H2615 0.950 . S
C2594 H2590 0.949 . S
C2594 C2602 1.574 . S
C2594 C2610 1.368 . S
H2595 C2603 0.950 . S
H2596 C2601 0.950 . S
H2597 C2602 0.949 . S
H2598 C2604 0.950 . S
H2599 C2605 0.950 . S
H2600 C2606 0.949 . S
C2601 H2596 0.950 . S
C2601 C2603 1.327 . S
C2601 C2607 1.429 . S
C2602 C2594 1.574 . S
C2602 H2597 0.949 . S
C2602 C2608 1.368 . S
C2603 C2587 1.349 . S
C2603 H2595 0.950 . S
C2603 C2601 1.327 . S
C2604 C2592 1.349 . S
C2604 H2598 0.950 . S
C2604 C2605 1.327 . S
C2605 H2599 0.950 . S
C2605 C2604 1.327 . S
C2605 C2609 1.429 . S
C2606 C2589 1.574 . S
C2606 H2600 0.949 . S
C2606 C2610 1.368 . S
C2607 C2588 1.429 . S
C2607 C2601 1.429 . S
C2607 C2608 1.523 . S
C2608 C2589 1.368 . S
C2608 C2602 1.368 . S
C2608 C2607 1.523 . S
C2609 C2593 1.429 . S
C2609 C2605 1.429 . S
C2609 C2610 1.523 . S
C2610 C2594 1.368 . S
C2610 C2606 1.368 . S
C2610 C2609 1.523 . S
H2611 C2586 0.950 . S
H2612 C2588 0.950 . S
H2613 C2589 0.949 . S
H2614 C2591 0.950 . S
H2615 C2593 0.950 . S
C2616 C2617 1.349 . S
C2616 C2618 1.327 . S
C2616 H2641 0.950 . S
C2617 C2616 1.349 . S
C2617 C2633 1.349 . S
C2618 C2616 1.327 . S
C2618 C2637 1.429 . S
C2618 H2642 0.950 . S
C2619 C2636 1.574 . S
C2619 C2638 1.368 . S
C2619 H2643 0.949 . S
H2620 C2624 0.949 . S
C2621 C2622 1.349 . S
C2621 C2623 1.327 . S
C2621 H2644 0.950 . S
C2622 C2621 1.349 . S
C2622 C2634 1.349 . S
C2623 C2621 1.327 . S
C2623 C2639 1.429 . S
C2623 H2645 0.950 . S
C2624 H2620 0.949 . S
C2624 C2632 1.574 . S
C2624 C2640 1.368 . S
H2625 C2633 0.950 . S
H2626 C2631 0.950 . S
H2627 C2632 0.949 . S
H2628 C2634 0.950 . S
H2629 C2635 0.950 . S
H2630 C2636 0.949 . S
C2631 H2626 0.950 . S
C2631 C2633 1.327 . S
C2631 C2637 1.429 . S
C2632 C2624 1.574 . S
C2632 H2627 0.949 . S
C2632 C2638 1.368 . S
C2633 C2617 1.349 . S
C2633 H2625 0.950 . S
C2633 C2631 1.327 . S
C2634 C2622 1.349 . S
C2634 H2628 0.950 . S
C2634 C2635 1.327 . S
C2635 H2629 0.950 . S
C2635 C2634 1.327 . S
C2635 C2639 1.429 . S
C2636 C2619 1.574 . S
C2636 H2630 0.949 . S
C2636 C2640 1.368 . S
C2637 C2618 1.429 . S
C2637 C2631 1.429 . S
C2637 C2638 1.523 . S
C2638 C2619 1.368 . S
C2638 C2632 1.368 . S
C2638 C2637 1.523 . S
C2639 C2623 1.429 . S
C2639 C2635 1.429 . S
C2639 C2640 1.523 . S
C2640 C2624 1.368 . S
C2640 C2636 1.368 . S
C2640 C2639 1.523 . S
H2641 C2616 0.950 . S
H2642 C2618 0.950 . S
H2643 C2619 0.949 . S
H2644 C2621 0.950 . S
H2645 C2623 0.950 . S
C2646 C2647 1.349 . S
C2646 C2648 1.327 . S
C2646 H2671 0.950 . S
C2647 C2646 1.349 . S
C2647 C2663 1.349 . S
C2648 C2646 1.327 . S
C2648 C2667 1.429 . S
C2648 H2672 0.950 . S
C2649 C2666 1.574 . S
C2649 C2668 1.368 . S
C2649 H2673 0.949 . S
H2650 C2654 0.949 . S
C2651 C2652 1.349 . S
C2651 C2653 1.327 . S
C2651 H2674 0.950 . S
C2652 C2651 1.349 . S
C2652 C2664 1.349 . S
C2653 C2651 1.327 . S
C2653 C2669 1.429 . S
C2653 H2675 0.950 . S
C2654 H2650 0.949 . S
C2654 C2662 1.574 . S
C2654 C2670 1.368 . S
H2655 C2663 0.950 . S
H2656 C2661 0.950 . S
H2657 C2662 0.949 . S
H2658 C2664 0.950 . S
H2659 C2665 0.950 . S
H2660 C2666 0.949 . S
C2661 H2656 0.950 . S
C2661 C2663 1.327 . S
C2661 C2667 1.429 . S
C2662 C2654 1.574 . S
C2662 H2657 0.949 . S
C2662 C2668 1.368 . S
C2663 C2647 1.349 . S
C2663 H2655 0.950 . S
C2663 C2661 1.327 . S
C2664 C2652 1.349 . S
C2664 H2658 0.950 . S
C2664 C2665 1.327 . S
C2665 H2659 0.950 . S
C2665 C2664 1.327 . S
C2665 C2669 1.429 . S
C2666 C2649 1.574 . S
C2666 H2660 0.949 . S
C2666 C2670 1.368 . S
C2667 C2648 1.429 . S
C2667 C2661 1.429 . S
C2667 C2668 1.523 . S
C2668 C2649 1.368 . S
C2668 C2662 1.368 . S
C2668 C2667 1.523 . S
C2669 C2653 1.429 . S
C2669 C2665 1.429 . S
C2669 C2670 1.523 . S
C2670 C2654 1.368 . S
C2670 C2666 1.368 . S
C2670 C2669 1.523 . S
H2671 C2646 0.950 . S
H2672 C2648 0.950 . S
H2673 C2649 0.949 . S
H2674 C2651 0.950 . S
H2675 C2653 0.950 . S
C2676 C2677 1.349 . S
C2676 C2678 1.327 . S
C2676 H2701 0.950 . S
C2677 C2676 1.349 . S
C2677 C2693 1.349 . S
C2678 C2676 1.327 . S
C2678 C2697 1.429 . S
C2678 H2702 0.950 . S
C2679 C2696 1.574 . S
C2679 C2698 1.368 . S
C2679 H2703 0.949 . S
H2680 C2684 0.949 . S
C2681 C2682 1.349 . S
C2681 C2683 1.327 . S
C2681 H2704 0.950 . S
C2682 C2681 1.349 . S
C2682 C2694 1.349 . S
C2683 C2681 1.327 . S
C2683 C2699 1.429 . S
C2683 H2705 0.950 . S
C2684 H2680 0.949 . S
C2684 C2692 1.574 . S
C2684 C2700 1.368 . S
H2685 C2693 0.950 . S
H2686 C2691 0.950 . S
H2687 C2692 0.949 . S
H2688 C2694 0.950 . S
H2689 C2695 0.950 . S
H2690 C2696 0.949 . S
C2691 H2686 0.950 . S
C2691 C2693 1.327 . S
C2691 C2697 1.429 . S
C2692 C2684 1.574 . S
C2692 H2687 0.949 . S
C2692 C2698 1.368 . S
C2693 C2677 1.349 . S
C2693 H2685 0.950 . S
C2693 C2691 1.327 . S
C2694 C2682 1.349 . S
C2694 H2688 0.950 . S
C2694 C2695 1.327 . S
C2695 H2689 0.950 . S
C2695 C2694 1.327 . S
C2695 C2699 1.429 . S
C2696 C2679 1.574 . S
C2696 H2690 0.949 . S
C2696 C2700 1.368 . S
C2697 C2678 1.429 . S
C2697 C2691 1.429 . S
C2697 C2698 1.523 . S
C2698 C2679 1.368 . S
C2698 C2692 1.368 . S
C2698 C2697 1.523 . S
C2699 C2683 1.429 . S
C2699 C2695 1.429 . S
C2699 C2700 1.523 . S
C2700 C2684 1.368 . S
C2700 C2696 1.368 . S
C2700 C2699 1.523 . S
H2701 C2676 0.950 . S
H2702 C2678 0.950 . S
H2703 C2679 0.949 . S
H2704 C2681 0.950 . S
H2705 C2683 0.950 . S
C2706 C2707 1.349 . S
C2706 C2708 1.327 . S
C2706 H2731 0.950 . S
C2707 C2706 1.349 . S
C2707 C2723 1.349 . S
C2708 C2706 1.327 . S
C2708 C2727 1.429 . S
C2708 H2732 0.950 . S
C2709 C2726 1.574 . S
C2709 C2728 1.368 . S
C2709 H2733 0.949 . S
H2710 C2714 0.949 . S
C2711 C2712 1.349 . S
C2711 C2713 1.327 . S
C2711 H2734 0.950 . S
C2712 C2711 1.349 . S
C2712 C2724 1.349 . S
C2713 C2711 1.327 . S
C2713 C2729 1.429 . S
C2713 H2735 0.950 . S
C2714 H2710 0.949 . S
C2714 C2722 1.574 . S
C2714 C2730 1.368 . S
H2715 C2723 0.950 . S
H2716 C2721 0.950 . S
H2717 C2722 0.949 . S
H2718 C2724 0.950 . S
H2719 C2725 0.950 . S
H2720 C2726 0.949 . S
C2721 H2716 0.950 . S
C2721 C2723 1.327 . S
C2721 C2727 1.429 . S
C2722 C2714 1.574 . S
C2722 H2717 0.949 . S
C2722 C2728 1.368 . S
C2723 C2707 1.349 . S
C2723 H2715 0.950 . S
C2723 C2721 1.327 . S
C2724 C2712 1.349 . S
C2724 H2718 0.950 . S
C2724 C2725 1.327 . S
C2725 H2719 0.950 . S
C2725 C2724 1.327 . S
C2725 C2729 1.429 . S
C2726 C2709 1.574 . S
C2726 H2720 0.949 . S
C2726 C2730 1.368 . S
C2727 C2708 1.429 . S
C2727 C2721 1.429 . S
C2727 C2728 1.523 . S
C2728 C2709 1.368 . S
C2728 C2722 1.368 . S
C2728 C2727 1.523 . S
C2729 C2713 1.429 . S
C2729 C2725 1.429 . S
C2729 C2730 1.523 . S
C2730 C2714 1.368 . S
C2730 C2726 1.368 . S
C2730 C2729 1.523 . S
H2731 C2706 0.950 . S
H2732 C2708 0.950 . S
H2733 C2709 0.949 . S
H2734 C2711 0.950 . S
H2735 C2713 0.950 . S
C2736 C2737 1.349 . S
C2736 C2738 1.327 . S
C2736 H2761 0.950 . S
C2737 C2736 1.349 . S
C2737 C2753 1.349 . S
C2738 C2736 1.327 . S
C2738 C2757 1.429 . S
C2738 H2762 0.950 . S
C2739 C2756 1.574 . S
C2739 C2758 1.368 . S
C2739 H2763 0.949 . S
H2740 C2744 0.949 . S
C2741 C2742 1.349 . S
C2741 C2743 1.327 . S
C2741 H2764 0.950 . S
C2742 C2741 1.349 . S
C2742 C2754 1.349 . S
C2743 C2741 1.327 . S
C2743 C2759 1.429 . S
C2743 H2765 0.950 . S
C2744 H2740 0.949 . S
C2744 C2752 1.574 . S
C2744 C2760 1.368 . S
H2745 C2753 0.950 . S
H2746 C2751 0.950 . S
H2747 C2752 0.949 . S
H2748 C2754 0.950 . S
H2749 C2755 0.950 . S
H2750 C2756 0.949 . S
C2751 H2746 0.950 . S
C2751 C2753 1.327 . S
C2751 C2757 1.429 . S
C2752 C2744 1.574 . S
C2752 H2747 0.949 . S
C2752 C2758 1.368 . S
C2753 C2737 1.349 . S
C2753 H2745 0.950 . S
C2753 C2751 1.327 . S
C2754 C2742 1.349 . S
C2754 H2748 0.950 . S
C2754 C2755 1.327 . S
C2755 H2749 0.950 . S
C2755 C2754 1.327 . S
C2755 C2759 1.429 . S
C2756 C2739 1.574 . S
C2756 H2750 0.949 . S
C2756 C2760 1.368 . S
C2757 C2738 1.429 . S
C2757 C2751 1.429 . S
C2757 C2758 1.523 . S
C2758 C2739 1.368 . S
C2758 C2752 1.368 . S
C2758 C2757 1.523 . S
C2759 C2743 1.429 . S
C2759 C2755 1.429 . S
C2759 C2760 1.523 . S
C2760 C2744 1.368 . S
C2760 C2756 1.368 . S
C2760 C2759 1.523 . S
H2761 C2736 0.950 . S
H2762 C2738 0.950 . S
H2763 C2739 0.949 . S
H2764 C2741 0.950 . S
H2765 C2743 0.950 . S
C2766 C2767 1.349 . S
C2766 C2768 1.327 . S
C2766 H2791 0.950 . S
C2767 C2766 1.349 . S
C2767 C2783 1.349 . S
C2768 C2766 1.327 . S
C2768 C2787 1.429 . S
C2768 H2792 0.950 . S
C2769 C2786 1.574 . S
C2769 C2788 1.368 . S
C2769 H2793 0.949 . S
H2770 C2774 0.949 . S
C2771 C2772 1.349 . S
C2771 C2773 1.327 . S
C2771 H2794 0.950 . S
C2772 C2771 1.349 . S
C2772 C2784 1.349 . S
C2773 C2771 1.327 . S
C2773 C2789 1.429 . S
C2773 H2795 0.950 . S
C2774 H2770 0.949 . S
C2774 C2782 1.574 . S
C2774 C2790 1.368 . S
H2775 C2783 0.950 . S
H2776 C2781 0.950 . S
H2777 C2782 0.949 . S
H2778 C2784 0.950 . S
H2779 C2785 0.950 . S
H2780 C2786 0.949 . S
C2781 H2776 0.950 . S
C2781 C2783 1.327 . S
C2781 C2787 1.429 . S
C2782 C2774 1.574 . S
C2782 H2777 0.949 . S
C2782 C2788 1.368 . S
C2783 C2767 1.349 . S
C2783 H2775 0.950 . S
C2783 C2781 1.327 . S
C2784 C2772 1.349 . S
C2784 H2778 0.950 . S
C2784 C2785 1.327 . S
C2785 H2779 0.950 . S
C2785 C2784 1.327 . S
C2785 C2789 1.429 . S
C2786 C2769 1.574 . S
C2786 H2780 0.949 . S
C2786 C2790 1.368 . S
C2787 C2768 1.429 . S
C2787 C2781 1.429 . S
C2787 C2788 1.523 . S
C2788 C2769 1.368 . S
C2788 C2782 1.368 . S
C2788 C2787 1.523 . S
C2789 C2773 1.429 . S
C2789 C2785 1.429 . S
C2789 C2790 1.523 . S
C2790 C2774 1.368 . S
C2790 C2786 1.368 . S
C2790 C2789 1.523 . S
H2791 C2766 0.950 . S
H2792 C2768 0.950 . S
H2793 C2769 0.949 . S
H2794 C2771 0.950 . S
H2795 C2773 0.950 . S
C2796 C2797 1.349 . S
C2796 C2798 1.327 . S
C2796 H2821 0.950 . S
C2797 C2796 1.349 . S
C2797 C2813 1.349 . S
C2798 C2796 1.327 . S
C2798 C2817 1.429 . S
C2798 H2822 0.950 . S
C2799 C2816 1.574 . S
C2799 C2818 1.368 . S
C2799 H2823 0.949 . S
H2800 C2804 0.949 . S
C2801 C2802 1.349 . S
C2801 C2803 1.327 . S
C2801 H2824 0.950 . S
C2802 C2801 1.349 . S
C2802 C2814 1.349 . S
C2803 C2801 1.327 . S
C2803 C2819 1.429 . S
C2803 H2825 0.950 . S
C2804 H2800 0.949 . S
C2804 C2812 1.574 . S
C2804 C2820 1.368 . S
H2805 C2813 0.950 . S
H2806 C2811 0.950 . S
H2807 C2812 0.949 . S
H2808 C2814 0.950 . S
H2809 C2815 0.950 . S
H2810 C2816 0.949 . S
C2811 H2806 0.950 . S
C2811 C2813 1.327 . S
C2811 C2817 1.429 . S
C2812 C2804 1.574 . S
C2812 H2807 0.949 . S
C2812 C2818 1.368 . S
C2813 C2797 1.349 . S
C2813 H2805 0.950 . S
C2813 C2811 1.327 . S
C2814 C2802 1.349 . S
C2814 H2808 0.950 . S
C2814 C2815 1.327 . S
C2815 H2809 0.950 . S
C2815 C2814 1.327 . S
C2815 C2819 1.429 . S
C2816 C2799 1.574 . S
C2816 H2810 0.949 . S
C2816 C2820 1.368 . S
C2817 C2798 1.429 . S
C2817 C2811 1.429 . S
C2817 C2818 1.523 . S
C2818 C2799 1.368 . S
C2818 C2812 1.368 . S
C2818 C2817 1.523 . S
C2819 C2803 1.429 . S
C2819 C2815 1.429 . S
C2819 C2820 1.523 . S
C2820 C2804 1.368 . S
C2820 C2816 1.368 . S
C2820 C2819 1.523 . S
H2821 C2796 0.950 . S
H2822 C2798 0.950 . S
H2823 C2799 0.949 . S
H2824 C2801 0.950 . S
H2825 C2803 0.950 . S
C2826 C2827 1.349 . S
C2826 C2828 1.327 . S
C2826 H2851 0.950 . S
C2827 C2826 1.349 . S
C2827 C2843 1.349 . S
C2828 C2826 1.327 . S
C2828 C2847 1.429 . S
C2828 H2852 0.950 . S
C2829 C2846 1.574 . S
C2829 C2848 1.368 . S
C2829 H2853 0.949 . S
H2830 C2834 0.949 . S
C2831 C2832 1.349 . S
C2831 C2833 1.327 . S
C2831 H2854 0.950 . S
C2832 C2831 1.349 . S
C2832 C2844 1.349 . S
C2833 C2831 1.327 . S
C2833 C2849 1.429 . S
C2833 H2855 0.950 . S
C2834 H2830 0.949 . S
C2834 C2842 1.574 . S
C2834 C2850 1.368 . S
H2835 C2843 0.950 . S
H2836 C2841 0.950 . S
H2837 C2842 0.949 . S
H2838 C2844 0.950 . S
H2839 C2845 0.950 . S
H2840 C2846 0.949 . S
C2841 H2836 0.950 . S
C2841 C2843 1.327 . S
C2841 C2847 1.429 . S
C2842 C2834 1.574 . S
C2842 H2837 0.949 . S
C2842 C2848 1.368 . S
C2843 C2827 1.349 . S
C2843 H2835 0.950 . S
C2843 C2841 1.327 . S
C2844 C2832 1.349 . S
C2844 H2838 0.950 . S
C2844 C2845 1.327 . S
C2845 H2839 0.950 . S
C2845 C2844 1.327 . S
C2845 C2849 1.429 . S
C2846 C2829 1.574 . S
C2846 H2840 0.949 . S
C2846 C2850 1.368 . S
C2847 C2828 1.429 . S
C2847 C2841 1.429 . S
C2847 C2848 1.523 . S
C2848 C2829 1.368 . S
C2848 C2842 1.368 . S
C2848 C2847 1.523 . S
C2849 C2833 1.429 . S
C2849 C2845 1.429 . S
C2849 C2850 1.523 . S
C2850 C2834 1.368 . S
C2850 C2846 1.368 . S
C2850 C2849 1.523 . S
H2851 C2826 0.950 . S
H2852 C2828 0.950 . S
H2853 C2829 0.949 . S
H2854 C2831 0.950 . S
H2855 C2833 0.950 . S
C1417 C937 1.235 . S
C1422 C52 1.235 . S
C1447 C111 1.235 . S
C1452 C996 1.235 . S
C1477 C170 1.235 . S
C1482 C1055 1.235 . S
C1507 C229 1.235 . S
C1512 C760 1.235 . S
C1537 C819 1.235 . S
C1542 C288 1.235 . S
C1567 C347 1.235 . S
C1572 C878 1.235 . S
C1597 C1291 1.235 . S
C1602 C406 1.235 . S
C1627 C465 1.235 . S
C1632 C1350 1.235 . S
C1657 C524 1.235 . S
C1662 C1409 1.235 . S
C1687 C1114 1.235 . S
C1692 C583 1.235 . S
C1717 C642 1.235 . S
C1722 C1173 1.235 . S
C1747 C1232 1.235 . S
C1752 C701 1.235 . S
C1777 C3 1.795 . S
C1782 C1360 1.795 . S
C1807 C1065 1.795 . S
C1812 C62 1.795 . S
C1837 C121 1.795 . S
C1842 C1124 1.795 . S
C1867 C1183 1.795 . S
C1872 C180 1.795 . S
C1897 C239 1.795 . S
C1902 C1242 1.795 . S
C1927 C1301 1.795 . S
C1932 C298 1.795 . S
C1957 C357 1.795 . S
C1962 C770 1.795 . S
C1987 C829 1.795 . S
C1992 C416 1.795 . S
C2017 C888 1.795 . S
C2022 C475 1.795 . S
C2047 C947 1.795 . S
C2052 C534 1.795 . S
C2077 C593 1.795 . S
C2082 C1006 1.795 . S
C2107 C652 1.795 . S
C2112 C711 1.795 . S
C2137 C418 1.300 . S
C2142 C5 1.300 . S
C2167 C477 1.300 . S
C2172 C64 1.300 . S
C2197 C536 1.300 . S
C2202 C123 1.300 . S
C2227 C595 1.300 . S
C2232 C182 1.300 . S
C2257 C241 1.300 . S
C2262 C654 1.300 . S
C2287 C300 1.300 . S
C2292 C359 1.300 . S
C2317 C713 1.300 . S
C2322 C1126 1.300 . S
C2347 C772 1.300 . S
C2352 C1185 1.300 . S
C2377 C1244 1.300 . S
C2382 C831 1.300 . S
C2407 C1303 1.300 . S
C2412 C890 1.300 . S
C2437 C1362 1.300 . S
C2442 C949 1.300 . S
C2467 C1067 1.300 . S
C2472 C1008 1.300 . S
C2497 C33 1.894 . S
C2502 C1154 1.894 . S
C2527 C1213 1.894 . S
C2532 C92 1.894 . S
C2557 C151 1.894 . S
C2562 C1272 1.894 . S
C2587 C1331 1.894 . S
C2592 C210 1.894 . S
C2617 C269 1.894 . S
C2622 C1390 1.894 . S
C2647 C1095 1.894 . S
C2652 C328 1.894 . S
C2677 C387 1.894 . S
C2682 C1036 1.894 . S
C2707 C741 1.894 . S
C2712 C446 1.894 . S
C2737 C505 1.894 . S
C2742 C800 1.894 . S
C2767 C564 1.894 . S
C2772 C859 1.894 . S
C2797 C623 1.894 . S
C2802 C918 1.894 . S
C2827 C682 1.894 . S
C2832 C977 1.894 . S
