# Generated by pormake.
# Topology wgt, (5)-cn, num edge types: 1
# Building blocks:
#     Node 0, Type 0, BuildingBlock: BEQFEK_clean_sbu_0, # of connection points: 5
#     Node 1, Type 0, BuildingBlock: BEQFEK_clean_sbu_0, # of connection points: 5
#     Node 2, Type 0, BuildingBlock: BEQFEK_clean_sbu_0, # of connection points: 5
#     Node 3, Type 0, BuildingBlock: BEQFEK_clean_sbu_0, # of connection points: 5
#     Node 4, Type 0, BuildingBlock: BEQFEK_clean_sbu_0, # of connection points: 5
#     Node 5, Type 0, BuildingBlock: BEQFEK_clean_sbu_0, # of connection points: 5
#     Node 6, Type 0, BuildingBlock: BEQFEK_clean_sbu_0, # of connection points: 5
#     Node 7, Type 0, BuildingBlock: BEQFEK_clean_sbu_0, # of connection points: 5
#     Node 8, Type 0, BuildingBlock: BEQFEK_clean_sbu_0, # of connection points: 5
#     Node 9, Type 0, BuildingBlock: BEQFEK_clean_sbu_0, # of connection points: 5
#     Node 10, Type 0, BuildingBlock: BEQFEK_clean_sbu_0, # of connection points: 5
#     Node 11, Type 0, BuildingBlock: BEQFEK_clean_sbu_0, # of connection points: 5
#     Node 12, Type 0, BuildingBlock: BEQFEK_clean_sbu_0, # of connection points: 5
#     Node 13, Type 0, BuildingBlock: BEQFEK_clean_sbu_0, # of connection points: 5
#     Node 14, Type 0, BuildingBlock: BEQFEK_clean_sbu_0, # of connection points: 5
#     Node 15, Type 0, BuildingBlock: BEQFEK_clean_sbu_0, # of connection points: 5
#     Edge 16, Type (0, 0), None
#     Edge 17, Type (0, 0), None
#     Edge 18, Type (0, 0), None
#     Edge 19, Type (0, 0), None
#     Edge 20, Type (0, 0), None
#     Edge 21, Type (0, 0), None
#     Edge 22, Type (0, 0), None
#     Edge 23, Type (0, 0), None
#     Edge 24, Type (0, 0), None
#     Edge 25, Type (0, 0), None
#     Edge 26, Type (0, 0), None
#     Edge 27, Type (0, 0), None
#     Edge 28, Type (0, 0), None
#     Edge 29, Type (0, 0), None
#     Edge 30, Type (0, 0), None
#     Edge 31, Type (0, 0), None
#     Edge 32, Type (0, 0), None
#     Edge 33, Type (0, 0), None
#     Edge 34, Type (0, 0), None
#     Edge 35, Type (0, 0), None
#     Edge 36, Type (0, 0), None
#     Edge 37, Type (0, 0), None
#     Edge 38, Type (0, 0), None
#     Edge 39, Type (0, 0), None
#     Edge 40, Type (0, 0), None
#     Edge 41, Type (0, 0), None
#     Edge 42, Type (0, 0), None
#     Edge 43, Type (0, 0), None
#     Edge 44, Type (0, 0), None
#     Edge 45, Type (0, 0), None
#     Edge 46, Type (0, 0), None
#     Edge 47, Type (0, 0), None
#     Edge 48, Type (0, 0), None
#     Edge 49, Type (0, 0), None
#     Edge 50, Type (0, 0), None
#     Edge 51, Type (0, 0), None
#     Edge 52, Type (0, 0), None
#     Edge 53, Type (0, 0), None
#     Edge 54, Type (0, 0), None
#     Edge 55, Type (0, 0), None
# Relax obj value: 0.089
# Max RMSD: 0.169
# Mean RMSD: 0.169
data_MOF--net-wgt--node1-BEQFEK_clean_sbu_0--edge1-none
_symmetry_space_group_name_H-M    P1
_symmetry_Int_Tables_number       1
_symmetry_cell_setting            triclinic
loop_
_symmetry_equiv_pos_as_xyz
'x, y, z'
_cell_length_a     13.793425
_cell_length_b     13.79292
_cell_length_c     43.587214
_cell_angle_alpha  90.000133
_cell_angle_beta   90.00002
_cell_angle_gamma 90.000029
loop_
_atom_site_label
_atom_site_type_symbol
_atom_site_fract_x
_atom_site_fract_y
_atom_site_fract_z
_atom_type_partial_charge
Co0 Co 0.16334 0.33914 0.06498 0.0
Co1 Co 0.16091 0.31837 0.99272 0.0
C2 C 0.04179 0.19154 0.02891 0.0
O3 O 0.0694 0.23446 0.05334 0.0
O4 O 0.08757 0.20191 1.00382 0.0
C5 C 0.24065 0.26962 0.121 0.0
O6 O 0.26871 0.19933 0.10271 0.0
C7 C 0.18039 0.25331 0.92766 0.0
C8 C 0.25194 0.38193 0.90766 0.0
C9 C 0.22292 0.28826 0.901 0.0
N10 N 0.18542 0.32313 0.9493 0.0
N11 N 0.22709 0.40008 0.93694 0.0
C12 C 0.14614 0.15205 0.93341 0.0
H13 H 0.17014 0.12751 0.9564 0.0
H14 H 0.17389 0.10128 0.91572 0.0
H15 H 0.06588 0.15081 0.93285 0.0
C16 C 0.37682 0.35792 0.05197 0.0
N17 N 0.28353 0.34594 0.04309 0.0
N18 N 0.28204 0.32802 0.01354 0.0
C19 C 0.37398 0.32086 1.00318 0.0
C20 C 0.43817 0.34168 0.02716 0.0
C21 C 0.40872 0.38114 0.0839 0.0
H22 H 0.42337 0.31271 0.09633 0.0
H23 H 0.47764 0.42232 0.08345 0.0
H24 H 0.35254 0.42377 0.09609 0.0
O25 O 0.08195 0.44854 0.05439 0.0
O26 O 0.06856 0.42639 1.00373 0.0
H27 H 0.40885 0.33671 0.95566 0.0
H28 H 0.46451 0.23243 0.9732 0.0
C29 C 0.39837 0.27761 0.97256 0.0
H30 H 0.3389 0.22983 0.96479 0.0
H31 H 0.24223 0.46369 0.94897 0.0
O32 O 0.18926 0.33788 0.11009 0.0
C33 C 0.04259 0.46779 0.02865 0.0
Co34 Co 0.66507 0.66334 0.31498 0.0
Co35 Co 0.68585 0.66091 0.24272 0.0
C36 C 0.81268 0.5418 0.27891 0.0
O37 O 0.76976 0.5694 0.30334 0.0
O38 O 0.80231 0.58758 0.25382 0.0
C39 C 0.73458 0.74064 0.371 0.0
O40 O 0.80488 0.7687 0.35271 0.0
C41 C 0.75091 0.68039 0.17765 0.0
C42 C 0.6223 0.75195 0.15765 0.0
C43 C 0.71597 0.72292 0.151 0.0
N44 N 0.6811 0.68542 0.1993 0.0
N45 N 0.60415 0.72709 0.18694 0.0
C46 C 0.85217 0.64614 0.18341 0.0
H47 H 0.87671 0.67014 0.2064 0.0
H48 H 0.90295 0.67389 0.16572 0.0
H49 H 0.85341 0.56588 0.18284 0.0
C50 C 0.6463 0.87683 0.30197 0.0
N51 N 0.65827 0.78353 0.29309 0.0
N52 N 0.6762 0.78204 0.26354 0.0
C53 C 0.68336 0.87399 0.25318 0.0
C54 C 0.66254 0.93818 0.27716 0.0
C55 C 0.62309 0.90872 0.3339 0.0
H56 H 0.69152 0.92336 0.34633 0.0
H57 H 0.58192 0.97766 0.33345 0.0
H58 H 0.58045 0.85255 0.34609 0.0
O59 O 0.55568 0.58194 0.30439 0.0
O60 O 0.57784 0.56855 0.25372 0.0
H61 H 0.66753 0.90885 0.20566 0.0
H62 H 0.77179 0.96451 0.22321 0.0
C63 C 0.72662 0.89837 0.22256 0.0
H64 H 0.7744 0.8389 0.2148 0.0
H65 H 0.54054 0.74223 0.19897 0.0
O66 O 0.66633 0.68925 0.36009 0.0
C67 C 0.53644 0.54257 0.27864 0.0
Co68 Co 0.3409 0.16507 0.56498 0.0
Co69 Co 0.34333 0.18584 0.49272 0.0
C70 C 0.46246 0.31267 0.5289 0.0
O71 O 0.43485 0.26975 0.55334 0.0
O72 O 0.41667 0.3023 0.50382 0.0
C73 C 0.26359 0.23459 0.621 0.0
O74 O 0.23553 0.30488 0.60271 0.0
C75 C 0.32386 0.2509 0.42765 0.0
C76 C 0.25231 0.12228 0.40766 0.0
C77 C 0.28133 0.21595 0.401 0.0
N78 N 0.31883 0.18108 0.4493 0.0
N79 N 0.27716 0.10413 0.43694 0.0
C80 C 0.35811 0.35216 0.43341 0.0
H81 H 0.33411 0.3767 0.4564 0.0
H82 H 0.33036 0.40293 0.41572 0.0
H83 H 0.43837 0.3534 0.43285 0.0
C84 C 0.12743 0.14629 0.55197 0.0
N85 N 0.22072 0.15827 0.54309 0.0
N86 N 0.22221 0.17619 0.51354 0.0
C87 C 0.13026 0.18335 0.50318 0.0
C88 C 0.06607 0.16253 0.52716 0.0
C89 C 0.09553 0.12307 0.58389 0.0
H90 H 0.08088 0.1915 0.59633 0.0
H91 H 0.0266 0.08189 0.58345 0.0
H92 H 0.1517 0.08044 0.59609 0.0
O93 O 0.42229 0.05567 0.55439 0.0
O94 O 0.43569 0.07782 0.50373 0.0
H95 H 0.09539 0.1675 0.45566 0.0
H96 H 0.03974 0.27178 0.4732 0.0
C97 C 0.10588 0.2266 0.47256 0.0
H98 H 0.16535 0.27438 0.46479 0.0
H99 H 0.26202 0.04052 0.44897 0.0
O100 O 0.31498 0.16633 0.61009 0.0
C101 C 0.46166 0.03642 0.52865 0.0
Co102 Co 0.83918 0.84088 0.81498 0.0
Co103 Co 0.8184 0.8433 0.74272 0.0
C104 C 0.69157 0.96242 0.77891 0.0
O105 O 0.73449 0.93481 0.80334 0.0
O106 O 0.70193 0.91663 0.75382 0.0
C107 C 0.76967 0.76357 0.871 0.0
O108 O 0.69937 0.73551 0.85271 0.0
C109 C 0.75333 0.82382 0.67766 0.0
C110 C 0.88194 0.75227 0.65765 0.0
C111 C 0.78828 0.78129 0.651 0.0
N112 N 0.82315 0.81879 0.6993 0.0
N113 N 0.9001 0.77713 0.68694 0.0
C114 C 0.65207 0.85807 0.68341 0.0
H115 H 0.62753 0.83407 0.7064 0.0
H116 H 0.6013 0.83032 0.66572 0.0
H117 H 0.65083 0.93833 0.68285 0.0
C118 C 0.85795 0.62739 0.80197 0.0
N119 N 0.84598 0.72068 0.79309 0.0
N120 N 0.82805 0.72217 0.76354 0.0
C121 C 0.82089 0.63023 0.75318 0.0
C122 C 0.84171 0.56603 0.77716 0.0
C123 C 0.88116 0.59549 0.8339 0.0
H124 H 0.81273 0.58085 0.84633 0.0
H125 H 0.92234 0.52656 0.83345 0.0
H126 H 0.9238 0.65166 0.84609 0.0
O127 O 0.94857 0.92227 0.80439 0.0
O128 O 0.92641 0.93567 0.75372 0.0
H129 H 0.83672 0.59536 0.70566 0.0
H130 H 0.73246 0.5397 0.7232 0.0
C131 C 0.77763 0.60585 0.72256 0.0
H132 H 0.72985 0.66531 0.7148 0.0
H133 H 0.96371 0.76199 0.69897 0.0
O134 O 0.83792 0.81496 0.86009 0.0
C135 C 0.96781 0.96164 0.77864 0.0
Co136 Co 0.841 0.33911 0.56495 0.0
Co137 Co 0.84334 0.3183 0.49269 0.0
C138 C 0.96243 0.19143 0.52888 0.0
O139 O 0.93494 0.23443 0.55331 0.0
O140 O 0.9167 0.20184 0.50378 0.0
C141 C 0.76372 0.26957 0.62098 0.0
O142 O 0.73566 0.19928 0.60268 0.0
C143 C 0.82382 0.25322 0.42763 0.0
C144 C 0.75216 0.38178 0.40764 0.0
C145 C 0.78124 0.28813 0.40098 0.0
N146 N 0.81876 0.32303 0.44928 0.0
N147 N 0.77703 0.39995 0.43692 0.0
C148 C 0.85816 0.15198 0.43338 0.0
H149 H 0.83421 0.12742 0.45638 0.0
H150 H 0.83042 0.10118 0.41569 0.0
H151 H 0.93842 0.1508 0.4328 0.0
C152 C 0.62751 0.35777 0.55198 0.0
N153 N 0.72079 0.34586 0.54308 0.0
N154 N 0.72224 0.32791 0.51353 0.0
C155 C 0.63029 0.32065 0.50318 0.0
C156 C 0.56617 0.3413 0.52719 0.0
C157 C 0.59564 0.38109 0.5839 0.0
H158 H 0.58091 0.3127 0.59635 0.0
H159 H 0.52675 0.42234 0.58344 0.0
H160 H 0.65184 0.42371 0.59608 0.0
O161 O 0.92233 0.44852 0.55435 0.0
O162 O 0.9357 0.42636 0.50369 0.0
H163 H 0.59539 0.33651 0.45567 0.0
H164 H 0.5397 0.23226 0.47322 0.0
C165 C 0.60587 0.27741 0.47256 0.0
H166 H 0.66532 0.22961 0.46479 0.0
H167 H 0.76186 0.46355 0.44895 0.0
O168 O 0.81511 0.33783 0.61007 0.0
C169 C 0.96167 0.46778 0.5286 0.0
Co170 Co 0.6651 0.34097 0.81495 0.0
Co171 Co 0.68591 0.34331 0.74269 0.0
C172 C 0.8128 0.46239 0.77888 0.0
O173 O 0.76979 0.43491 0.80331 0.0
O174 O 0.80238 0.41665 0.75378 0.0
C175 C 0.73464 0.2637 0.87098 0.0
O176 O 0.80493 0.23564 0.85268 0.0
C177 C 0.75101 0.3238 0.67763 0.0
C178 C 0.62245 0.25214 0.65763 0.0
C179 C 0.71609 0.28124 0.65098 0.0
N180 N 0.68119 0.31873 0.69928 0.0
N181 N 0.60428 0.277 0.68692 0.0
C182 C 0.85224 0.35813 0.68338 0.0
H183 H 0.8768 0.33418 0.70638 0.0
H184 H 0.90303 0.33039 0.6657 0.0
H185 H 0.85342 0.43839 0.68281 0.0
C186 C 0.64645 0.12747 0.80198 0.0
N187 N 0.65835 0.22076 0.79308 0.0
N188 N 0.6763 0.22221 0.76353 0.0
C189 C 0.68357 0.13025 0.75318 0.0
C190 C 0.66293 0.06613 0.77719 0.0
C191 C 0.62314 0.09559 0.8339 0.0
H192 H 0.69153 0.08088 0.84635 0.0
H193 H 0.5819 0.0267 0.83345 0.0
H194 H 0.58052 0.1518 0.84609 0.0
O195 O 0.5557 0.42231 0.80435 0.0
O196 O 0.57787 0.43568 0.75368 0.0
H197 H 0.66772 0.09536 0.70567 0.0
H198 H 0.77197 0.03967 0.72322 0.0
C199 C 0.72682 0.10583 0.72256 0.0
H200 H 0.77461 0.16529 0.7148 0.0
H201 H 0.54068 0.26182 0.69895 0.0
O202 O 0.66638 0.31509 0.86007 0.0
C203 C 0.53645 0.46165 0.7786 0.0
Co204 Co 0.66324 0.16509 0.06495 0.0
Co205 Co 0.66091 0.1859 0.99269 0.0
C206 C 0.54182 0.31278 0.02888 0.0
O207 O 0.56931 0.26978 0.05331 0.0
O208 O 0.58755 0.30237 1.00378 0.0
C209 C 0.74052 0.23464 0.12098 0.0
O210 O 0.76858 0.30492 0.10268 0.0
C211 C 0.68041 0.25099 0.92763 0.0
C212 C 0.75207 0.12243 0.90764 0.0
C213 C 0.72297 0.21607 0.90098 0.0
N214 N 0.68548 0.18118 0.94928 0.0
N215 N 0.72721 0.10426 0.93692 0.0
C216 C 0.64608 0.35223 0.93338 0.0
H217 H 0.67003 0.37679 0.95638 0.0
H218 H 0.67381 0.40302 0.9157 0.0
H219 H 0.56582 0.35341 0.93281 0.0
C220 C 0.87674 0.14644 0.05198 0.0
N221 N 0.78346 0.15835 0.04308 0.0
N222 N 0.782 0.1763 0.01353 0.0
C223 C 0.87396 0.18356 1.00318 0.0
C224 C 0.93808 0.16291 0.02719 0.0
C225 C 0.90861 0.12312 0.0839 0.0
H226 H 0.92333 0.19151 0.09635 0.0
H227 H 0.9775 0.08187 0.08344 0.0
H228 H 0.8524 0.0805 0.09609 0.0
O229 O 0.58192 0.05568 0.05435 0.0
O230 O 0.56855 0.07785 1.00369 0.0
H231 H 0.90886 0.1677 0.95567 0.0
H232 H 0.96454 0.27195 0.97322 0.0
C233 C 0.89838 0.2268 0.97256 0.0
H234 H 0.83893 0.2746 0.96479 0.0
H235 H 0.7424 0.04066 0.94895 0.0
O236 O 0.68914 0.16637 0.11007 0.0
C237 C 0.54258 0.03643 0.0286 0.0
Co238 Co 0.83915 0.16324 0.31495 0.0
Co239 Co 0.81834 0.1609 0.24269 0.0
C240 C 0.69146 0.04182 0.27888 0.0
O241 O 0.73446 0.06931 0.30331 0.0
O242 O 0.70187 0.08756 0.25378 0.0
C243 C 0.76959 0.24052 0.37097 0.0
O244 O 0.6993 0.26857 0.35269 0.0
C245 C 0.75324 0.18041 0.17763 0.0
C246 C 0.8818 0.25207 0.15764 0.0
C247 C 0.78816 0.22297 0.15098 0.0
N248 N 0.82306 0.18548 0.19928 0.0
N249 N 0.89997 0.22721 0.18692 0.0
C250 C 0.65201 0.14609 0.18338 0.0
H251 H 0.62745 0.17004 0.20638 0.0
H252 H 0.60121 0.17382 0.1657 0.0
H253 H 0.65082 0.06582 0.18281 0.0
C254 C 0.85779 0.37674 0.30198 0.0
N255 N 0.8459 0.28346 0.29308 0.0
N256 N 0.82795 0.282 0.26353 0.0
C257 C 0.82068 0.37396 0.25318 0.0
C258 C 0.84132 0.43809 0.27719 0.0
C259 C 0.8811 0.40862 0.3339 0.0
H260 H 0.81271 0.42333 0.34635 0.0
H261 H 0.92234 0.47752 0.33345 0.0
H262 H 0.92373 0.35242 0.34609 0.0
O263 O 0.94855 0.08191 0.30435 0.0
O264 O 0.92638 0.06854 0.25369 0.0
H265 H 0.83653 0.40886 0.20567 0.0
H266 H 0.73229 0.46455 0.22322 0.0
C267 C 0.77743 0.39838 0.22256 0.0
H268 H 0.72964 0.33892 0.2148 0.0
H269 H 0.96357 0.24239 0.19895 0.0
O270 O 0.83787 0.18913 0.36007 0.0
C271 C 0.9678 0.04256 0.2786 0.0
Co272 Co 0.66334 0.83915 0.56498 0.0
Co273 Co 0.66092 0.81837 0.49272 0.0
C274 C 0.54179 0.69155 0.52891 0.0
O275 O 0.5694 0.73447 0.55334 0.0
O276 O 0.58757 0.70191 0.50382 0.0
C277 C 0.74066 0.76961 0.621 0.0
O278 O 0.76872 0.69931 0.60271 0.0
C279 C 0.68038 0.75332 0.42766 0.0
C280 C 0.75194 0.88193 0.40766 0.0
C281 C 0.72289 0.78827 0.401 0.0
N282 N 0.68542 0.82313 0.44931 0.0
N283 N 0.72709 0.90008 0.43695 0.0
C284 C 0.64613 0.65205 0.43341 0.0
H285 H 0.67013 0.62751 0.4564 0.0
H286 H 0.67388 0.60128 0.41572 0.0
H287 H 0.56587 0.65081 0.43285 0.0
C288 C 0.87682 0.85792 0.55197 0.0
N289 N 0.78353 0.84594 0.54309 0.0
N290 N 0.78204 0.82802 0.51354 0.0
C291 C 0.87398 0.82085 0.50318 0.0
C292 C 0.93818 0.84168 0.52716 0.0
C293 C 0.90872 0.88114 0.5839 0.0
H294 H 0.92337 0.8127 0.59633 0.0
H295 H 0.97765 0.92232 0.58346 0.0
H296 H 0.85255 0.92377 0.59609 0.0
O297 O 0.58196 0.94855 0.55439 0.0
O298 O 0.56857 0.9264 0.50373 0.0
H299 H 0.90886 0.8367 0.45567 0.0
H300 H 0.96451 0.73242 0.47321 0.0
C301 C 0.89837 0.7776 0.47256 0.0
H302 H 0.8389 0.72982 0.4648 0.0
H303 H 0.74225 0.96368 0.44897 0.0
O304 O 0.68927 0.83788 0.61009 0.0
C305 C 0.5426 0.96781 0.52865 0.0
Co306 Co 0.16506 0.16334 0.81498 0.0
Co307 Co 0.18585 0.16092 0.74272 0.0
C308 C 0.31267 0.0418 0.77891 0.0
O309 O 0.26975 0.0694 0.80334 0.0
O310 O 0.30231 0.08758 0.75382 0.0
C311 C 0.23459 0.24064 0.871 0.0
O312 O 0.3049 0.2687 0.85271 0.0
C313 C 0.25091 0.18038 0.67766 0.0
C314 C 0.1223 0.25194 0.65766 0.0
C315 C 0.21596 0.22289 0.651 0.0
N316 N 0.18109 0.18542 0.6993 0.0
N317 N 0.10415 0.22709 0.68694 0.0
C318 C 0.35217 0.14614 0.68341 0.0
H319 H 0.37671 0.17013 0.70641 0.0
H320 H 0.40294 0.17389 0.66572 0.0
H321 H 0.35341 0.06587 0.68285 0.0
C322 C 0.1463 0.37683 0.80197 0.0
N323 N 0.15827 0.28353 0.79309 0.0
N324 N 0.1762 0.28204 0.76354 0.0
C325 C 0.18337 0.37399 0.75318 0.0
C326 C 0.16255 0.43818 0.77716 0.0
C327 C 0.12309 0.40873 0.8339 0.0
H328 H 0.19153 0.42337 0.84633 0.0
H329 H 0.08192 0.47766 0.83346 0.0
H330 H 0.08045 0.35256 0.84609 0.0
O331 O 0.05567 0.08195 0.80439 0.0
O332 O 0.07783 0.06856 0.75372 0.0
H333 H 0.16753 0.40885 0.70567 0.0
H334 H 0.2718 0.46451 0.72321 0.0
C335 C 0.22662 0.39837 0.72256 0.0
H336 H 0.2744 0.3389 0.7148 0.0
H337 H 0.04055 0.24225 0.69897 0.0
O338 O 0.16633 0.18926 0.86009 0.0
C339 C 0.03642 0.04259 0.77864 0.0
Co340 Co 0.8409 0.66506 0.06498 0.0
Co341 Co 0.84333 0.68583 0.99272 0.0
C342 C 0.96246 0.81266 0.02891 0.0
O343 O 0.93485 0.76974 0.05334 0.0
O344 O 0.91667 0.8023 1.00382 0.0
C345 C 0.76359 0.7346 0.121 0.0
O346 O 0.73553 0.80491 0.10271 0.0
C347 C 0.82387 0.75089 0.92766 0.0
C348 C 0.75231 0.62228 0.90766 0.0
C349 C 0.78136 0.71594 0.901 0.0
N350 N 0.81883 0.68108 0.94931 0.0
N351 N 0.77716 0.60413 0.93695 0.0
C352 C 0.85811 0.85216 0.93341 0.0
H353 H 0.83411 0.8767 0.9564 0.0
H354 H 0.83037 0.90293 0.91572 0.0
H355 H 0.93837 0.8534 0.93285 0.0
C356 C 0.62742 0.64629 0.05197 0.0
N357 N 0.72071 0.65827 0.04309 0.0
N358 N 0.7222 0.67619 0.01354 0.0
C359 C 0.63026 0.68335 1.00318 0.0
C360 C 0.56607 0.66253 0.02716 0.0
C361 C 0.59552 0.62307 0.0839 0.0
H362 H 0.58088 0.69151 0.09633 0.0
H363 H 0.5266 0.58189 0.08346 0.0
H364 H 0.6517 0.58044 0.09609 0.0
O365 O 0.92228 0.55566 0.05439 0.0
O366 O 0.93568 0.57781 1.00373 0.0
H367 H 0.59539 0.6675 0.95567 0.0
H368 H 0.53974 0.77179 0.97321 0.0
C369 C 0.60588 0.7266 0.97256 0.0
H370 H 0.66535 0.77438 0.96479 0.0
H371 H 0.762 0.54053 0.94897 0.0
O372 O 0.81498 0.66634 0.11009 0.0
C373 C 0.96165 0.5364 0.02865 0.0
Co374 Co 0.33919 0.34087 0.31498 0.0
Co375 Co 0.3184 0.3433 0.24272 0.0
C376 C 0.19158 0.46242 0.27891 0.0
O377 O 0.2345 0.43482 0.30334 0.0
O378 O 0.20194 0.41663 0.25382 0.0
C379 C 0.26965 0.26357 0.371 0.0
O380 O 0.19934 0.23551 0.35271 0.0
C381 C 0.25334 0.32383 0.17766 0.0
C382 C 0.38194 0.25227 0.15766 0.0
C383 C 0.28829 0.28132 0.151 0.0
N384 N 0.32315 0.31879 0.1993 0.0
N385 N 0.4001 0.27712 0.18694 0.0
C386 C 0.15208 0.35808 0.18341 0.0
H387 H 0.12754 0.33408 0.20641 0.0
H388 H 0.10131 0.33033 0.16572 0.0
H389 H 0.15084 0.43834 0.18285 0.0
C390 C 0.35795 0.12739 0.30197 0.0
N391 N 0.34598 0.22068 0.29309 0.0
N392 N 0.32805 0.22217 0.26354 0.0
C393 C 0.32088 0.13023 0.25318 0.0
C394 C 0.3417 0.06603 0.27716 0.0
C395 C 0.38116 0.09549 0.3339 0.0
H396 H 0.31273 0.08085 0.34633 0.0
H397 H 0.42233 0.02655 0.33346 0.0
H398 H 0.4238 0.15166 0.34609 0.0
O399 O 0.44858 0.42226 0.30439 0.0
O400 O 0.42642 0.43566 0.25372 0.0
H401 H 0.33672 0.09536 0.20566 0.0
H402 H 0.23245 0.0397 0.22321 0.0
C403 C 0.27762 0.10585 0.22256 0.0
H404 H 0.22984 0.16532 0.2148 0.0
H405 H 0.4637 0.26196 0.19897 0.0
O406 O 0.33792 0.31495 0.36009 0.0
C407 C 0.46783 0.46163 0.27864 0.0
Co408 Co 0.341 0.83912 0.06495 0.0
Co409 Co 0.34334 0.81831 0.99269 0.0
C410 C 0.46243 0.69143 0.02888 0.0
O411 O 0.43494 0.73443 0.05331 0.0
O412 O 0.4167 0.70185 1.00378 0.0
C413 C 0.26372 0.76957 0.12098 0.0
O414 O 0.23567 0.69928 0.10268 0.0
C415 C 0.32382 0.75322 0.92763 0.0
C416 C 0.25216 0.88178 0.90764 0.0
C417 C 0.28124 0.78813 0.90098 0.0
N418 N 0.31876 0.82303 0.94928 0.0
N419 N 0.27703 0.89995 0.93692 0.0
C420 C 0.35816 0.65198 0.93338 0.0
H421 H 0.33422 0.62742 0.95638 0.0
H422 H 0.33042 0.60118 0.9157 0.0
H423 H 0.43842 0.65081 0.9328 0.0
C424 C 0.12751 0.85776 0.05198 0.0
N425 N 0.22079 0.84586 0.04308 0.0
N426 N 0.22224 0.82791 0.01353 0.0
C427 C 0.13029 0.82065 1.00318 0.0
C428 C 0.06617 0.84129 0.02719 0.0
C429 C 0.09563 0.88109 0.0839 0.0
H430 H 0.08091 0.8127 0.09635 0.0
H431 H 0.02675 0.92233 0.08345 0.0
H432 H 0.15184 0.92371 0.09609 0.0
O433 O 0.42232 0.94853 0.05435 0.0
O434 O 0.43569 0.92636 1.00369 0.0
H435 H 0.09539 0.8365 0.95567 0.0
H436 H 0.0397 0.73225 0.97322 0.0
C437 C 0.10587 0.7774 0.97257 0.0
H438 H 0.16532 0.7296 0.9648 0.0
H439 H 0.26185 0.96355 0.94895 0.0
O440 O 0.31511 0.83784 0.11007 0.0
C441 C 0.46166 0.96779 0.0286 0.0
Co442 Co 0.16509 0.84097 0.31495 0.0
Co443 Co 0.18591 0.84331 0.2427 0.0
C444 C 0.31279 0.96239 0.27888 0.0
O445 O 0.26978 0.93491 0.30331 0.0
O446 O 0.30237 0.91665 0.25379 0.0
C447 C 0.23464 0.7637 0.37098 0.0
O448 O 0.30493 0.73565 0.35269 0.0
C449 C 0.25101 0.8238 0.17763 0.0
C450 C 0.12245 0.75214 0.15764 0.0
C451 C 0.21609 0.78124 0.15098 0.0
N452 N 0.18119 0.81873 0.19928 0.0
N453 N 0.10428 0.777 0.18692 0.0
C454 C 0.35224 0.85813 0.18338 0.0
H455 H 0.3768 0.83417 0.20638 0.0
H456 H 0.40303 0.83039 0.1657 0.0
H457 H 0.35342 0.93839 0.18281 0.0
C458 C 0.14646 0.62747 0.30198 0.0
N459 N 0.15835 0.72075 0.29308 0.0
N460 N 0.1763 0.72221 0.26353 0.0
C461 C 0.18357 0.63025 0.25318 0.0
C462 C 0.16293 0.56612 0.27719 0.0
C463 C 0.12314 0.59559 0.3339 0.0
H464 H 0.19153 0.58088 0.34635 0.0
H465 H 0.08191 0.5267 0.33345 0.0
H466 H 0.08052 0.6518 0.34609 0.0
O467 O 0.05569 0.9223 0.30435 0.0
O468 O 0.07786 0.93567 0.25369 0.0
H469 H 0.16773 0.59536 0.20567 0.0
H470 H 0.27197 0.53967 0.22322 0.0
C471 C 0.22682 0.60583 0.22257 0.0
H472 H 0.27462 0.66529 0.2148 0.0
H473 H 0.04068 0.76181 0.19895 0.0
O474 O 0.16637 0.81508 0.36007 0.0
C475 C 0.03643 0.96164 0.2786 0.0
Co476 Co 0.16325 0.66509 0.56496 0.0
Co477 Co 0.16091 0.6859 0.4927 0.0
C478 C 0.04182 0.81277 0.52888 0.0
O479 O 0.06931 0.76977 0.55331 0.0
O480 O 0.08755 0.80236 0.50379 0.0
C481 C 0.24052 0.73464 0.62098 0.0
O482 O 0.26858 0.80492 0.60268 0.0
C483 C 0.18042 0.75099 0.42763 0.0
C484 C 0.25208 0.62243 0.40764 0.0
C485 C 0.22297 0.71607 0.40098 0.0
N486 N 0.18548 0.68117 0.44928 0.0
N487 N 0.22722 0.60426 0.43692 0.0
C488 C 0.14608 0.85223 0.43338 0.0
H489 H 0.17003 0.87679 0.45638 0.0
H490 H 0.17381 0.90302 0.4157 0.0
H491 H 0.06582 0.8534 0.43281 0.0
C492 C 0.37674 0.64644 0.55198 0.0
N493 N 0.28346 0.65834 0.54308 0.0
N494 N 0.28201 0.67629 0.51353 0.0
C495 C 0.37396 0.68356 0.50319 0.0
C496 C 0.43808 0.66292 0.52719 0.0
C497 C 0.40862 0.62312 0.5839 0.0
H498 H 0.42333 0.69151 0.59635 0.0
H499 H 0.4775 0.58188 0.58345 0.0
H500 H 0.35241 0.5805 0.59609 0.0
O501 O 0.08192 0.55568 0.55435 0.0
O502 O 0.06856 0.57784 0.50369 0.0
H503 H 0.40886 0.66771 0.45567 0.0
H504 H 0.46454 0.77195 0.47322 0.0
C505 C 0.39838 0.72681 0.47257 0.0
H506 H 0.33893 0.7746 0.4648 0.0
H507 H 0.2424 0.54066 0.44895 0.0
O508 O 0.18914 0.66637 0.61007 0.0
C509 C 0.04259 0.53641 0.5286 0.0
Co510 Co 0.33916 0.66324 0.81496 0.0
Co511 Co 0.31834 0.66091 0.7427 0.0
C512 C 0.19146 0.54182 0.77888 0.0
O513 O 0.23447 0.56931 0.80331 0.0
O514 O 0.20188 0.58756 0.75379 0.0
C515 C 0.2696 0.74051 0.87098 0.0
O516 O 0.1993 0.76857 0.85269 0.0
C517 C 0.25324 0.68042 0.67763 0.0
C518 C 0.3818 0.75207 0.65764 0.0
C519 C 0.28816 0.72297 0.65098 0.0
N520 N 0.32306 0.68548 0.69928 0.0
N521 N 0.39997 0.72721 0.68692 0.0
C522 C 0.15201 0.64608 0.68338 0.0
H523 H 0.12745 0.67004 0.70638 0.0
H524 H 0.10121 0.67382 0.6657 0.0
H525 H 0.15083 0.56582 0.68281 0.0
C526 C 0.35779 0.87675 0.80198 0.0
N527 N 0.3459 0.78346 0.79308 0.0
N528 N 0.32795 0.78201 0.76353 0.0
C529 C 0.32068 0.87396 0.75319 0.0
C530 C 0.34132 0.93809 0.77719 0.0
C531 C 0.3811 0.90862 0.8339 0.0
H532 H 0.31271 0.92333 0.84635 0.0
H533 H 0.42234 0.97752 0.83345 0.0
H534 H 0.42373 0.85242 0.84609 0.0
O535 O 0.44856 0.58192 0.80435 0.0
O536 O 0.42639 0.56855 0.75369 0.0
H537 H 0.33652 0.90886 0.70567 0.0
H538 H 0.23228 0.96455 0.72322 0.0
C539 C 0.27743 0.89838 0.72257 0.0
H540 H 0.22963 0.83892 0.7148 0.0
H541 H 0.46357 0.7424 0.69895 0.0
O542 O 0.33787 0.68913 0.86007 0.0
C543 C 0.46782 0.54258 0.7786 0.0
loop_
_geom_bond_atom_site_label_1
_geom_bond_atom_site_label_2
_geom_bond_distance
_geom_bond_site_symmetry_2
_ccdc_geom_bond_type
Co0 O3 1.962 1_455 S
Co0 N17 1.989 . S
Co0 O25 1.967 . S
Co0 O32 1.920 . S
Co1 O4 1.966 1_455 S
Co1 N10 2.022 . S
Co1 N18 1.993 1_556 S
Co1 O26 1.941 . S
C2 O3 1.263 . S
C2 O4 1.263 1_554 S
O3 Co0 1.962 1_655 S
O3 C2 1.263 . S
O4 Co1 1.966 1_655 S
O4 C2 1.263 1_556 S
C5 O6 1.235 . S
C5 O32 1.289 . S
O6 C5 1.235 . S
C7 C9 1.400 . S
C7 N10 1.351 . S
C7 C12 1.501 . S
C8 C9 1.387 . S
C8 N11 1.341 . S
C9 C7 1.400 . S
C9 C8 1.387 . S
N10 Co1 2.022 . S
N10 C7 1.351 . S
N10 N11 1.365 . S
N11 C8 1.341 . S
N11 N10 1.365 . S
N11 H31 0.862 . S
C12 C7 1.501 . S
C12 H13 0.959 1_455 S
C12 H14 0.961 . S
C12 H15 0.960 1_455 S
H13 C12 0.959 1_655 S
H14 C12 0.961 . S
H15 C12 0.960 1_655 S
C16 N17 1.342 . S
C16 C20 1.401 . S
C16 C21 1.499 . S
N17 Co0 1.989 . S
N17 C16 1.342 . S
N17 N18 1.388 . S
N18 Co1 1.993 1_554 S
N18 N17 1.388 . S
N18 C19 1.346 1_554 S
C19 N18 1.346 1_556 S
C19 C20 1.396 1_556 S
C19 C29 1.510 . S
C20 C16 1.401 . S
C20 C19 1.396 1_554 S
C21 C16 1.499 . S
C21 H22 0.959 . S
C21 H23 0.960 . S
C21 H24 0.961 . S
H22 C21 0.959 . S
H23 C21 0.960 . S
H24 C21 0.961 . S
O25 Co0 1.967 . S
O25 C33 1.258 . S
O26 Co1 1.941 . S
O26 C33 1.266 1_556 S
H27 C29 0.959 . S
H28 C29 0.961 . S
C29 C19 1.510 . S
C29 H27 0.959 . S
C29 H28 0.961 . S
C29 H30 0.960 . S
H30 C29 0.960 . S
H31 N11 0.862 . S
O32 Co0 1.920 . S
O32 C5 1.289 . S
C33 O25 1.258 . S
C33 O26 1.266 1_554 S
Co34 O37 1.970 . S
Co34 N51 1.989 . S
Co34 O59 1.967 . S
Co34 O66 1.920 . S
Co35 O38 1.966 . S
Co35 N44 2.022 . S
Co35 N52 1.993 . S
Co35 O60 1.941 . S
C36 O37 1.258 . S
C36 O38 1.263 . S
O37 Co34 1.970 . S
O37 C36 1.258 . S
O38 Co35 1.966 . S
O38 C36 1.263 . S
C39 O40 1.235 . S
C39 O66 1.289 . S
O40 C39 1.235 . S
C41 C43 1.400 . S
C41 N44 1.351 . S
C41 C46 1.501 . S
C42 C43 1.387 . S
C42 N45 1.341 . S
C43 C41 1.400 . S
C43 C42 1.387 . S
N44 Co35 2.022 . S
N44 C41 1.351 . S
N44 N45 1.365 . S
N45 C42 1.341 . S
N45 N44 1.365 . S
N45 H65 0.862 . S
C46 C41 1.501 . S
C46 H47 0.961 . S
C46 H48 0.961 . S
C46 H49 0.960 . S
H47 C46 0.961 . S
H48 C46 0.961 . S
H49 C46 0.960 . S
C50 N51 1.342 . S
C50 C54 1.401 . S
C50 C55 1.499 . S
N51 Co34 1.989 . S
N51 C50 1.342 . S
N51 N52 1.388 . S
N52 Co35 1.993 . S
N52 N51 1.388 . S
N52 C53 1.346 . S
C53 N52 1.346 . S
C53 C54 1.396 . S
C53 C63 1.510 . S
C54 C50 1.401 . S
C54 C53 1.396 . S
C55 C50 1.499 . S
C55 H56 0.959 . S
C55 H57 0.960 . S
C55 H58 0.961 . S
H56 C55 0.959 . S
H57 C55 0.960 . S
H58 C55 0.961 . S
O59 Co34 1.967 . S
O59 C67 1.258 . S
O60 Co35 1.941 . S
O60 C67 1.266 . S
H61 C63 0.959 . S
H62 C63 0.961 . S
C63 C53 1.510 . S
C63 H61 0.959 . S
C63 H62 0.961 . S
C63 H64 0.960 . S
H64 C63 0.960 . S
H65 N45 0.862 . S
O66 Co34 1.920 . S
O66 C39 1.289 . S
C67 O59 1.258 . S
C67 O60 1.266 . S
Co68 O71 1.970 . S
Co68 N85 1.989 . S
Co68 O93 1.967 . S
Co68 O100 1.920 . S
Co69 O72 1.966 . S
Co69 N78 2.022 . S
Co69 N86 1.993 . S
Co69 O94 1.941 . S
C70 O71 1.258 . S
C70 O72 1.263 . S
O71 Co68 1.970 . S
O71 C70 1.258 . S
O72 Co69 1.966 . S
O72 C70 1.263 . S
C73 O74 1.235 . S
C73 O100 1.289 . S
O74 C73 1.235 . S
C75 C77 1.400 . S
C75 N78 1.351 . S
C75 C80 1.501 . S
C76 C77 1.387 . S
C76 N79 1.341 . S
C77 C75 1.400 . S
C77 C76 1.387 . S
N78 Co69 2.022 . S
N78 C75 1.351 . S
N78 N79 1.365 . S
N79 C76 1.341 . S
N79 N78 1.365 . S
N79 H99 0.862 . S
C80 C75 1.501 . S
C80 H81 0.961 . S
C80 H82 0.961 . S
C80 H83 0.960 . S
H81 C80 0.961 . S
H82 C80 0.961 . S
H83 C80 0.960 . S
C84 N85 1.342 . S
C84 C88 1.401 . S
C84 C89 1.499 . S
N85 Co68 1.989 . S
N85 C84 1.342 . S
N85 N86 1.388 . S
N86 Co69 1.993 . S
N86 N85 1.388 . S
N86 C87 1.346 . S
C87 N86 1.346 . S
C87 C88 1.396 . S
C87 C97 1.510 . S
C88 C84 1.401 . S
C88 C87 1.396 . S
C89 C84 1.499 . S
C89 H90 0.959 . S
C89 H91 0.960 . S
C89 H92 0.961 . S
H90 C89 0.959 . S
H91 C89 0.960 . S
H92 C89 0.961 . S
O93 Co68 1.967 . S
O93 C101 1.258 . S
O94 Co69 1.941 . S
O94 C101 1.266 . S
H95 C97 0.959 . S
H96 C97 0.961 . S
C97 C87 1.510 . S
C97 H95 0.959 . S
C97 H96 0.961 . S
C97 H98 0.960 . S
H98 C97 0.960 . S
H99 N79 0.862 . S
O100 Co68 1.920 . S
O100 C73 1.289 . S
C101 O93 1.258 . S
C101 O94 1.266 . S
Co102 O105 1.962 1_565 S
Co102 N119 1.989 . S
Co102 O127 1.967 . S
Co102 O134 1.920 . S
Co103 O106 1.966 1_565 S
Co103 N112 2.022 . S
Co103 N120 1.993 . S
Co103 O128 1.941 . S
C104 O105 1.263 . S
C104 O106 1.263 . S
O105 Co102 1.962 1_545 S
O105 C104 1.263 . S
O106 Co103 1.966 1_545 S
O106 C104 1.263 . S
C107 O108 1.235 . S
C107 O134 1.289 . S
O108 C107 1.235 . S
C109 C111 1.400 . S
C109 N112 1.351 . S
C109 C114 1.501 . S
C110 C111 1.387 . S
C110 N113 1.341 . S
C111 C109 1.400 . S
C111 C110 1.387 . S
N112 Co103 2.022 . S
N112 C109 1.351 . S
N112 N113 1.365 . S
N113 C110 1.341 . S
N113 N112 1.365 . S
N113 H133 0.862 . S
C114 C109 1.501 . S
C114 H115 0.959 1_565 S
C114 H116 0.961 . S
C114 H117 0.960 1_565 S
H115 C114 0.959 1_545 S
H116 C114 0.961 . S
H117 C114 0.960 1_545 S
C118 N119 1.342 . S
C118 C122 1.401 . S
C118 C123 1.499 . S
N119 Co102 1.989 . S
N119 C118 1.342 . S
N119 N120 1.388 . S
N120 Co103 1.993 . S
N120 N119 1.388 . S
N120 C121 1.346 . S
C121 N120 1.346 . S
C121 C122 1.396 . S
C121 C131 1.510 . S
C122 C118 1.401 . S
C122 C121 1.396 . S
C123 C118 1.499 . S
C123 H124 0.959 . S
C123 H125 0.960 . S
C123 H126 0.961 . S
H124 C123 0.959 . S
H125 C123 0.960 . S
H126 C123 0.961 . S
O127 Co102 1.967 . S
O127 C135 1.258 . S
O128 Co103 1.941 . S
O128 C135 1.266 . S
H129 C131 0.959 . S
H130 C131 0.961 . S
C131 C121 1.510 . S
C131 H129 0.959 . S
C131 H130 0.961 . S
C131 H132 0.960 . S
H132 C131 0.960 . S
H133 N113 0.862 . S
O134 Co102 1.920 . S
O134 C107 1.289 . S
C135 O127 1.258 . S
C135 O128 1.266 . S
Co136 O139 1.962 1_655 S
Co136 N153 1.989 . S
Co136 O161 1.967 . S
Co136 O168 1.920 . S
Co137 O140 1.966 1_655 S
Co137 N146 2.022 . S
Co137 N154 1.993 . S
Co137 O162 1.941 . S
C138 O139 1.263 . S
C138 O140 1.263 . S
O139 Co136 1.962 1_455 S
O139 C138 1.263 . S
O140 Co137 1.966 1_455 S
O140 C138 1.263 . S
C141 O142 1.235 . S
C141 O168 1.289 . S
O142 C141 1.235 . S
C143 C145 1.400 . S
C143 N146 1.351 . S
C143 C148 1.501 . S
C144 C145 1.387 . S
C144 N147 1.341 . S
C145 C143 1.400 . S
C145 C144 1.387 . S
N146 Co137 2.022 . S
N146 C143 1.351 . S
N146 N147 1.365 . S
N147 C144 1.341 . S
N147 N146 1.365 . S
N147 H167 0.862 . S
C148 C143 1.501 . S
C148 H149 0.959 1_655 S
C148 H150 0.961 . S
C148 H151 0.960 1_655 S
H149 C148 0.959 1_455 S
H150 C148 0.961 . S
H151 C148 0.960 1_455 S
C152 N153 1.342 . S
C152 C156 1.401 . S
C152 C157 1.499 . S
N153 Co136 1.989 . S
N153 C152 1.342 . S
N153 N154 1.388 . S
N154 Co137 1.993 . S
N154 N153 1.388 . S
N154 C155 1.346 . S
C155 N154 1.346 . S
C155 C156 1.396 . S
C155 C165 1.510 . S
C156 C152 1.401 . S
C156 C155 1.396 . S
C157 C152 1.499 . S
C157 H158 0.959 . S
C157 H159 0.960 . S
C157 H160 0.961 . S
H158 C157 0.959 . S
H159 C157 0.960 . S
H160 C157 0.961 . S
O161 Co136 1.967 . S
O161 C169 1.258 . S
O162 Co137 1.941 . S
O162 C169 1.266 . S
H163 C165 0.959 . S
H164 C165 0.961 . S
C165 C155 1.510 . S
C165 H163 0.959 . S
C165 H164 0.961 . S
C165 H166 0.960 . S
H166 C165 0.960 . S
H167 N147 0.862 . S
O168 Co136 1.920 . S
O168 C141 1.289 . S
C169 O161 1.258 . S
C169 O162 1.266 . S
Co170 O173 1.970 . S
Co170 N187 1.989 . S
Co170 O195 1.967 . S
Co170 O202 1.920 . S
Co171 O174 1.966 . S
Co171 N180 2.022 . S
Co171 N188 1.993 . S
Co171 O196 1.941 . S
C172 O173 1.258 . S
C172 O174 1.263 . S
O173 Co170 1.970 . S
O173 C172 1.258 . S
O174 Co171 1.966 . S
O174 C172 1.263 . S
C175 O176 1.235 . S
C175 O202 1.289 . S
O176 C175 1.235 . S
C177 C179 1.400 . S
C177 N180 1.351 . S
C177 C182 1.501 . S
C178 C179 1.387 . S
C178 N181 1.341 . S
C179 C177 1.400 . S
C179 C178 1.387 . S
N180 Co171 2.022 . S
N180 C177 1.351 . S
N180 N181 1.365 . S
N181 C178 1.341 . S
N181 N180 1.365 . S
N181 H201 0.862 . S
C182 C177 1.501 . S
C182 H183 0.961 . S
C182 H184 0.961 . S
C182 H185 0.960 . S
H183 C182 0.961 . S
H184 C182 0.961 . S
H185 C182 0.960 . S
C186 N187 1.342 . S
C186 C190 1.401 . S
C186 C191 1.499 . S
N187 Co170 1.989 . S
N187 C186 1.342 . S
N187 N188 1.388 . S
N188 Co171 1.993 . S
N188 N187 1.388 . S
N188 C189 1.346 . S
C189 N188 1.346 . S
C189 C190 1.396 . S
C189 C199 1.510 . S
C190 C186 1.401 . S
C190 C189 1.396 . S
C191 C186 1.499 . S
C191 H192 0.959 . S
C191 H193 0.960 . S
C191 H194 0.961 . S
H192 C191 0.959 . S
H193 C191 0.960 . S
H194 C191 0.961 . S
O195 Co170 1.967 . S
O195 C203 1.258 . S
O196 Co171 1.941 . S
O196 C203 1.266 . S
H197 C199 0.959 . S
H198 C199 0.961 . S
C199 C189 1.510 . S
C199 H197 0.959 . S
C199 H198 0.961 . S
C199 H200 0.960 . S
H200 C199 0.960 . S
H201 N181 0.862 . S
O202 Co170 1.920 . S
O202 C175 1.289 . S
C203 O195 1.258 . S
C203 O196 1.266 . S
Co204 O207 1.970 . S
Co204 N221 1.989 . S
Co204 O229 1.967 . S
Co204 O236 1.920 . S
Co205 O208 1.966 . S
Co205 N214 2.022 . S
Co205 N222 1.993 1_556 S
Co205 O230 1.941 . S
C206 O207 1.258 . S
C206 O208 1.263 1_554 S
O207 Co204 1.970 . S
O207 C206 1.258 . S
O208 Co205 1.966 . S
O208 C206 1.263 1_556 S
C209 O210 1.235 . S
C209 O236 1.289 . S
O210 C209 1.235 . S
C211 C213 1.400 . S
C211 N214 1.351 . S
C211 C216 1.501 . S
C212 C213 1.387 . S
C212 N215 1.341 . S
C213 C211 1.400 . S
C213 C212 1.387 . S
N214 Co205 2.022 . S
N214 C211 1.351 . S
N214 N215 1.365 . S
N215 C212 1.341 . S
N215 N214 1.365 . S
N215 H235 0.862 . S
C216 C211 1.501 . S
C216 H217 0.961 . S
C216 H218 0.961 . S
C216 H219 0.960 . S
H217 C216 0.961 . S
H218 C216 0.961 . S
H219 C216 0.960 . S
C220 N221 1.342 . S
C220 C224 1.401 . S
C220 C225 1.499 . S
N221 Co204 1.989 . S
N221 C220 1.342 . S
N221 N222 1.388 . S
N222 Co205 1.993 1_554 S
N222 N221 1.388 . S
N222 C223 1.346 1_554 S
C223 N222 1.346 1_556 S
C223 C224 1.396 1_556 S
C223 C233 1.510 . S
C224 C220 1.401 . S
C224 C223 1.396 1_554 S
C225 C220 1.499 . S
C225 H226 0.959 . S
C225 H227 0.960 . S
C225 H228 0.961 . S
H226 C225 0.959 . S
H227 C225 0.960 . S
H228 C225 0.961 . S
O229 Co204 1.967 . S
O229 C237 1.258 . S
O230 Co205 1.941 . S
O230 C237 1.266 1_556 S
H231 C233 0.959 . S
H232 C233 0.961 . S
C233 C223 1.510 . S
C233 H231 0.959 . S
C233 H232 0.961 . S
C233 H234 0.960 . S
H234 C233 0.960 . S
H235 N215 0.862 . S
O236 Co204 1.920 . S
O236 C209 1.289 . S
C237 O229 1.258 . S
C237 O230 1.266 1_554 S
Co238 O241 1.961 1_545 S
Co238 N255 1.989 . S
Co238 O263 1.967 . S
Co238 O270 1.920 . S
Co239 O242 1.966 1_545 S
Co239 N248 2.022 . S
Co239 N256 1.993 . S
Co239 O264 1.941 . S
C240 O241 1.263 . S
C240 O242 1.263 . S
O241 Co238 1.961 1_565 S
O241 C240 1.263 . S
O242 Co239 1.966 1_565 S
O242 C240 1.263 . S
C243 O244 1.235 . S
C243 O270 1.289 . S
O244 C243 1.235 . S
C245 C247 1.400 . S
C245 N248 1.351 . S
C245 C250 1.501 . S
C246 C247 1.387 . S
C246 N249 1.341 . S
C247 C245 1.400 . S
C247 C246 1.387 . S
N248 Co239 2.022 . S
N248 C245 1.351 . S
N248 N249 1.365 . S
N249 C246 1.341 . S
N249 N248 1.365 . S
N249 H269 0.862 . S
C250 C245 1.501 . S
C250 H251 0.959 1_545 S
C250 H252 0.961 . S
C250 H253 0.960 1_545 S
H251 C250 0.959 1_565 S
H252 C250 0.961 . S
H253 C250 0.960 1_565 S
C254 N255 1.342 . S
C254 C258 1.401 . S
C254 C259 1.499 . S
N255 Co238 1.989 . S
N255 C254 1.342 . S
N255 N256 1.388 . S
N256 Co239 1.993 . S
N256 N255 1.388 . S
N256 C257 1.346 . S
C257 N256 1.346 . S
C257 C258 1.396 . S
C257 C267 1.510 . S
C258 C254 1.401 . S
C258 C257 1.396 . S
C259 C254 1.499 . S
C259 H260 0.959 . S
C259 H261 0.960 . S
C259 H262 0.961 . S
H260 C259 0.959 . S
H261 C259 0.960 . S
H262 C259 0.961 . S
O263 Co238 1.967 . S
O263 C271 1.258 . S
O264 Co239 1.941 . S
O264 C271 1.266 . S
H265 C267 0.959 . S
H266 C267 0.961 . S
C267 C257 1.510 . S
C267 H265 0.959 . S
C267 H266 0.961 . S
C267 H268 0.960 . S
H268 C267 0.960 . S
H269 N249 0.862 . S
O270 Co238 1.920 . S
O270 C243 1.289 . S
C271 O263 1.258 . S
C271 O264 1.266 . S
Co272 O275 1.970 . S
Co272 N289 1.989 . S
Co272 O297 1.967 . S
Co272 O304 1.920 . S
Co273 O276 1.966 . S
Co273 N282 2.022 . S
Co273 N290 1.993 . S
Co273 O298 1.941 . S
C274 O275 1.258 . S
C274 O276 1.263 . S
O275 Co272 1.970 . S
O275 C274 1.258 . S
O276 Co273 1.966 . S
O276 C274 1.263 . S
C277 O278 1.235 . S
C277 O304 1.289 . S
O278 C277 1.235 . S
C279 C281 1.400 . S
C279 N282 1.351 . S
C279 C284 1.501 . S
C280 C281 1.387 . S
C280 N283 1.341 . S
C281 C279 1.400 . S
C281 C280 1.387 . S
N282 Co273 2.022 . S
N282 C279 1.351 . S
N282 N283 1.365 . S
N283 C280 1.341 . S
N283 N282 1.365 . S
N283 H303 0.862 . S
C284 C279 1.501 . S
C284 H285 0.961 . S
C284 H286 0.961 . S
C284 H287 0.960 . S
H285 C284 0.961 . S
H286 C284 0.961 . S
H287 C284 0.960 . S
C288 N289 1.342 . S
C288 C292 1.401 . S
C288 C293 1.499 . S
N289 Co272 1.989 . S
N289 C288 1.342 . S
N289 N290 1.388 . S
N290 Co273 1.993 . S
N290 N289 1.388 . S
N290 C291 1.346 . S
C291 N290 1.346 . S
C291 C292 1.396 . S
C291 C301 1.510 . S
C292 C288 1.401 . S
C292 C291 1.396 . S
C293 C288 1.499 . S
C293 H294 0.959 . S
C293 H295 0.960 . S
C293 H296 0.961 . S
H294 C293 0.959 . S
H295 C293 0.960 . S
H296 C293 0.961 . S
O297 Co272 1.967 . S
O297 C305 1.258 . S
O298 Co273 1.941 . S
O298 C305 1.266 . S
H299 C301 0.959 . S
H300 C301 0.961 . S
C301 C291 1.510 . S
C301 H299 0.959 . S
C301 H300 0.961 . S
C301 H302 0.960 . S
H302 C301 0.960 . S
H303 N283 0.862 . S
O304 Co272 1.920 . S
O304 C277 1.289 . S
C305 O297 1.258 . S
C305 O298 1.266 . S
Co306 O309 1.962 1_545 S
Co306 N323 1.989 . S
Co306 O331 1.967 . S
Co306 O338 1.920 . S
Co307 O310 1.966 1_545 S
Co307 N316 2.022 . S
Co307 N324 1.993 . S
Co307 O332 1.941 . S
C308 O309 1.263 . S
C308 O310 1.263 . S
O309 Co306 1.962 1_565 S
O309 C308 1.263 . S
O310 Co307 1.966 1_565 S
O310 C308 1.263 . S
C311 O312 1.235 . S
C311 O338 1.289 . S
O312 C311 1.235 . S
C313 C315 1.400 . S
C313 N316 1.351 . S
C313 C318 1.501 . S
C314 C315 1.387 . S
C314 N317 1.341 . S
C315 C313 1.400 . S
C315 C314 1.387 . S
N316 Co307 2.022 . S
N316 C313 1.351 . S
N316 N317 1.365 . S
N317 C314 1.341 . S
N317 N316 1.365 . S
N317 H337 0.862 . S
C318 C313 1.501 . S
C318 H319 0.959 1_545 S
C318 H320 0.961 . S
C318 H321 0.960 1_545 S
H319 C318 0.959 1_565 S
H320 C318 0.961 . S
H321 C318 0.960 1_565 S
C322 N323 1.342 . S
C322 C326 1.401 . S
C322 C327 1.499 . S
N323 Co306 1.989 . S
N323 C322 1.342 . S
N323 N324 1.388 . S
N324 Co307 1.993 . S
N324 N323 1.388 . S
N324 C325 1.346 . S
C325 N324 1.346 . S
C325 C326 1.396 . S
C325 C335 1.510 . S
C326 C322 1.401 . S
C326 C325 1.396 . S
C327 C322 1.499 . S
C327 H328 0.959 . S
C327 H329 0.960 . S
C327 H330 0.961 . S
H328 C327 0.959 . S
H329 C327 0.960 . S
H330 C327 0.961 . S
O331 Co306 1.967 . S
O331 C339 1.258 . S
O332 Co307 1.941 . S
O332 C339 1.266 . S
H333 C335 0.959 . S
H334 C335 0.961 . S
C335 C325 1.510 . S
C335 H333 0.959 . S
C335 H334 0.961 . S
C335 H336 0.960 . S
H336 C335 0.960 . S
H337 N317 0.862 . S
O338 Co306 1.920 . S
O338 C311 1.289 . S
C339 O331 1.258 . S
C339 O332 1.266 . S
Co340 O343 1.962 1_655 S
Co340 N357 1.989 . S
Co340 O365 1.967 . S
Co340 O372 1.920 . S
Co341 O344 1.966 1_655 S
Co341 N350 2.022 . S
Co341 N358 1.993 1_556 S
Co341 O366 1.941 . S
C342 O343 1.263 . S
C342 O344 1.263 1_554 S
O343 Co340 1.962 1_455 S
O343 C342 1.263 . S
O344 Co341 1.966 1_455 S
O344 C342 1.263 1_556 S
C345 O346 1.235 . S
C345 O372 1.289 . S
O346 C345 1.235 . S
C347 C349 1.400 . S
C347 N350 1.351 . S
C347 C352 1.501 . S
C348 C349 1.387 . S
C348 N351 1.341 . S
C349 C347 1.400 . S
C349 C348 1.387 . S
N350 Co341 2.022 . S
N350 C347 1.351 . S
N350 N351 1.365 . S
N351 C348 1.341 . S
N351 N350 1.365 . S
N351 H371 0.862 . S
C352 C347 1.501 . S
C352 H353 0.959 1_655 S
C352 H354 0.961 . S
C352 H355 0.960 1_655 S
H353 C352 0.959 1_455 S
H354 C352 0.961 . S
H355 C352 0.960 1_455 S
C356 N357 1.342 . S
C356 C360 1.401 . S
C356 C361 1.499 . S
N357 Co340 1.989 . S
N357 C356 1.342 . S
N357 N358 1.388 . S
N358 Co341 1.993 1_554 S
N358 N357 1.388 . S
N358 C359 1.346 1_554 S
C359 N358 1.346 1_556 S
C359 C360 1.396 1_556 S
C359 C369 1.510 . S
C360 C356 1.401 . S
C360 C359 1.396 1_554 S
C361 C356 1.499 . S
C361 H362 0.959 . S
C361 H363 0.960 . S
C361 H364 0.961 . S
H362 C361 0.959 . S
H363 C361 0.960 . S
H364 C361 0.961 . S
O365 Co340 1.967 . S
O365 C373 1.258 . S
O366 Co341 1.941 . S
O366 C373 1.266 1_556 S
H367 C369 0.959 . S
H368 C369 0.961 . S
C369 C359 1.510 . S
C369 H367 0.959 . S
C369 H368 0.961 . S
C369 H370 0.960 . S
H370 C369 0.960 . S
H371 N351 0.862 . S
O372 Co340 1.920 . S
O372 C345 1.289 . S
C373 O365 1.258 . S
C373 O366 1.266 1_554 S
Co374 O377 1.970 . S
Co374 N391 1.989 . S
Co374 O399 1.967 . S
Co374 O406 1.920 . S
Co375 O378 1.966 . S
Co375 N384 2.022 . S
Co375 N392 1.993 . S
Co375 O400 1.941 . S
C376 O377 1.258 . S
C376 O378 1.263 . S
O377 Co374 1.970 . S
O377 C376 1.258 . S
O378 Co375 1.966 . S
O378 C376 1.263 . S
C379 O380 1.235 . S
C379 O406 1.289 . S
O380 C379 1.235 . S
C381 C383 1.400 . S
C381 N384 1.351 . S
C381 C386 1.501 . S
C382 C383 1.387 . S
C382 N385 1.341 . S
C383 C381 1.400 . S
C383 C382 1.387 . S
N384 Co375 2.022 . S
N384 C381 1.351 . S
N384 N385 1.365 . S
N385 C382 1.341 . S
N385 N384 1.365 . S
N385 H405 0.862 . S
C386 C381 1.501 . S
C386 H387 0.961 . S
C386 H388 0.961 . S
C386 H389 0.960 . S
H387 C386 0.961 . S
H388 C386 0.961 . S
H389 C386 0.960 . S
C390 N391 1.342 . S
C390 C394 1.401 . S
C390 C395 1.499 . S
N391 Co374 1.989 . S
N391 C390 1.342 . S
N391 N392 1.388 . S
N392 Co375 1.993 . S
N392 N391 1.388 . S
N392 C393 1.346 . S
C393 N392 1.346 . S
C393 C394 1.396 . S
C393 C403 1.510 . S
C394 C390 1.401 . S
C394 C393 1.396 . S
C395 C390 1.499 . S
C395 H396 0.959 . S
C395 H397 0.960 . S
C395 H398 0.961 . S
H396 C395 0.959 . S
H397 C395 0.960 . S
H398 C395 0.961 . S
O399 Co374 1.967 . S
O399 C407 1.258 . S
O400 Co375 1.941 . S
O400 C407 1.266 . S
H401 C403 0.959 . S
H402 C403 0.961 . S
C403 C393 1.510 . S
C403 H401 0.959 . S
C403 H402 0.961 . S
C403 H404 0.960 . S
H404 C403 0.960 . S
H405 N385 0.862 . S
O406 Co374 1.920 . S
O406 C379 1.289 . S
C407 O399 1.258 . S
C407 O400 1.266 . S
Co408 O411 1.970 . S
Co408 N425 1.989 . S
Co408 O433 1.967 . S
Co408 O440 1.920 . S
Co409 O412 1.966 . S
Co409 N418 2.022 . S
Co409 N426 1.993 1_556 S
Co409 O434 1.941 . S
C410 O411 1.258 . S
C410 O412 1.263 1_554 S
O411 Co408 1.970 . S
O411 C410 1.258 . S
O412 Co409 1.966 . S
O412 C410 1.263 1_556 S
C413 O414 1.235 . S
C413 O440 1.289 . S
O414 C413 1.235 . S
C415 C417 1.400 . S
C415 N418 1.351 . S
C415 C420 1.501 . S
C416 C417 1.387 . S
C416 N419 1.341 . S
C417 C415 1.400 . S
C417 C416 1.387 . S
N418 Co409 2.022 . S
N418 C415 1.351 . S
N418 N419 1.365 . S
N419 C416 1.341 . S
N419 N418 1.365 . S
N419 H439 0.862 . S
C420 C415 1.501 . S
C420 H421 0.961 . S
C420 H422 0.961 . S
C420 H423 0.960 . S
H421 C420 0.961 . S
H422 C420 0.961 . S
H423 C420 0.960 . S
C424 N425 1.342 . S
C424 C428 1.401 . S
C424 C429 1.499 . S
N425 Co408 1.989 . S
N425 C424 1.342 . S
N425 N426 1.388 . S
N426 Co409 1.993 1_554 S
N426 N425 1.388 . S
N426 C427 1.346 1_554 S
C427 N426 1.346 1_556 S
C427 C428 1.396 1_556 S
C427 C437 1.510 . S
C428 C424 1.401 . S
C428 C427 1.396 1_554 S
C429 C424 1.499 . S
C429 H430 0.959 . S
C429 H431 0.960 . S
C429 H432 0.961 . S
H430 C429 0.959 . S
H431 C429 0.960 . S
H432 C429 0.961 . S
O433 Co408 1.967 . S
O433 C441 1.258 . S
O434 Co409 1.941 . S
O434 C441 1.266 1_556 S
H435 C437 0.959 . S
H436 C437 0.961 . S
C437 C427 1.510 . S
C437 H435 0.959 . S
C437 H436 0.961 . S
C437 H438 0.960 . S
H438 C437 0.960 . S
H439 N419 0.862 . S
O440 Co408 1.920 . S
O440 C413 1.289 . S
C441 O433 1.258 . S
C441 O434 1.266 1_554 S
Co442 O445 1.961 1_565 S
Co442 N459 1.989 . S
Co442 O467 1.967 . S
Co442 O474 1.920 . S
Co443 O446 1.966 1_565 S
Co443 N452 2.022 . S
Co443 N460 1.993 . S
Co443 O468 1.941 . S
C444 O445 1.263 . S
C444 O446 1.263 . S
O445 Co442 1.961 1_545 S
O445 C444 1.263 . S
O446 Co443 1.966 1_545 S
O446 C444 1.263 . S
C447 O448 1.235 . S
C447 O474 1.289 . S
O448 C447 1.235 . S
C449 C451 1.400 . S
C449 N452 1.351 . S
C449 C454 1.501 . S
C450 C451 1.387 . S
C450 N453 1.341 . S
C451 C449 1.400 . S
C451 C450 1.387 . S
N452 Co443 2.022 . S
N452 C449 1.351 . S
N452 N453 1.365 . S
N453 C450 1.341 . S
N453 N452 1.365 . S
N453 H473 0.862 . S
C454 C449 1.501 . S
C454 H455 0.959 1_565 S
C454 H456 0.961 . S
C454 H457 0.960 1_565 S
H455 C454 0.959 1_545 S
H456 C454 0.961 . S
H457 C454 0.960 1_545 S
C458 N459 1.342 . S
C458 C462 1.401 . S
C458 C463 1.499 . S
N459 Co442 1.989 . S
N459 C458 1.342 . S
N459 N460 1.388 . S
N460 Co443 1.993 . S
N460 N459 1.388 . S
N460 C461 1.346 . S
C461 N460 1.346 . S
C461 C462 1.396 . S
C461 C471 1.510 . S
C462 C458 1.401 . S
C462 C461 1.396 . S
C463 C458 1.499 . S
C463 H464 0.959 . S
C463 H465 0.960 . S
C463 H466 0.961 . S
H464 C463 0.959 . S
H465 C463 0.960 . S
H466 C463 0.961 . S
O467 Co442 1.967 . S
O467 C475 1.258 . S
O468 Co443 1.941 . S
O468 C475 1.266 . S
H469 C471 0.959 . S
H470 C471 0.961 . S
C471 C461 1.510 . S
C471 H469 0.959 . S
C471 H470 0.961 . S
C471 H472 0.960 . S
H472 C471 0.960 . S
H473 N453 0.862 . S
O474 Co442 1.920 . S
O474 C447 1.289 . S
C475 O467 1.258 . S
C475 O468 1.266 . S
Co476 O479 1.962 1_455 S
Co476 N493 1.989 . S
Co476 O501 1.967 . S
Co476 O508 1.920 . S
Co477 O480 1.966 1_455 S
Co477 N486 2.022 . S
Co477 N494 1.993 . S
Co477 O502 1.941 . S
C478 O479 1.263 . S
C478 O480 1.263 . S
O479 Co476 1.962 1_655 S
O479 C478 1.263 . S
O480 Co477 1.966 1_655 S
O480 C478 1.263 . S
C481 O482 1.235 . S
C481 O508 1.289 . S
O482 C481 1.235 . S
C483 C485 1.400 . S
C483 N486 1.351 . S
C483 C488 1.501 . S
C484 C485 1.387 . S
C484 N487 1.341 . S
C485 C483 1.400 . S
C485 C484 1.387 . S
N486 Co477 2.022 . S
N486 C483 1.351 . S
N486 N487 1.365 . S
N487 C484 1.341 . S
N487 N486 1.365 . S
N487 H507 0.862 . S
C488 C483 1.501 . S
C488 H489 0.959 1_455 S
C488 H490 0.961 . S
C488 H491 0.960 1_455 S
H489 C488 0.959 1_655 S
H490 C488 0.961 . S
H491 C488 0.960 1_655 S
C492 N493 1.342 . S
C492 C496 1.401 . S
C492 C497 1.499 . S
N493 Co476 1.989 . S
N493 C492 1.342 . S
N493 N494 1.388 . S
N494 Co477 1.993 . S
N494 N493 1.388 . S
N494 C495 1.346 . S
C495 N494 1.346 . S
C495 C496 1.396 . S
C495 C505 1.510 . S
C496 C492 1.401 . S
C496 C495 1.396 . S
C497 C492 1.499 . S
C497 H498 0.959 . S
C497 H499 0.960 . S
C497 H500 0.961 . S
H498 C497 0.959 . S
H499 C497 0.960 . S
H500 C497 0.961 . S
O501 Co476 1.967 . S
O501 C509 1.258 . S
O502 Co477 1.941 . S
O502 C509 1.266 . S
H503 C505 0.959 . S
H504 C505 0.961 . S
C505 C495 1.510 . S
C505 H503 0.959 . S
C505 H504 0.961 . S
C505 H506 0.960 . S
H506 C505 0.960 . S
H507 N487 0.862 . S
O508 Co476 1.920 . S
O508 C481 1.289 . S
C509 O501 1.258 . S
C509 O502 1.266 . S
Co510 O513 1.970 . S
Co510 N527 1.989 . S
Co510 O535 1.967 . S
Co510 O542 1.920 . S
Co511 O514 1.966 . S
Co511 N520 2.022 . S
Co511 N528 1.993 . S
Co511 O536 1.941 . S
C512 O513 1.258 . S
C512 O514 1.263 . S
O513 Co510 1.970 . S
O513 C512 1.258 . S
O514 Co511 1.966 . S
O514 C512 1.263 . S
C515 O516 1.235 . S
C515 O542 1.289 . S
O516 C515 1.235 . S
C517 C519 1.400 . S
C517 N520 1.351 . S
C517 C522 1.501 . S
C518 C519 1.387 . S
C518 N521 1.341 . S
C519 C517 1.400 . S
C519 C518 1.387 . S
N520 Co511 2.022 . S
N520 C517 1.351 . S
N520 N521 1.365 . S
N521 C518 1.341 . S
N521 N520 1.365 . S
N521 H541 0.862 . S
C522 C517 1.501 . S
C522 H523 0.961 . S
C522 H524 0.961 . S
C522 H525 0.960 . S
H523 C522 0.961 . S
H524 C522 0.961 . S
H525 C522 0.960 . S
C526 N527 1.342 . S
C526 C530 1.401 . S
C526 C531 1.499 . S
N527 Co510 1.989 . S
N527 C526 1.342 . S
N527 N528 1.388 . S
N528 Co511 1.993 . S
N528 N527 1.388 . S
N528 C529 1.346 . S
C529 N528 1.346 . S
C529 C530 1.396 . S
C529 C539 1.510 . S
C530 C526 1.401 . S
C530 C529 1.396 . S
C531 C526 1.499 . S
C531 H532 0.959 . S
C531 H533 0.960 . S
C531 H534 0.961 . S
H532 C531 0.959 . S
H533 C531 0.960 . S
H534 C531 0.961 . S
O535 Co510 1.967 . S
O535 C543 1.258 . S
O536 Co511 1.941 . S
O536 C543 1.266 . S
H537 C539 0.959 . S
H538 C539 0.961 . S
C539 C529 1.510 . S
C539 H537 0.959 . S
C539 H538 0.961 . S
C539 H540 0.960 . S
H540 C539 0.960 . S
H541 N521 0.862 . S
O542 Co510 1.920 . S
O542 C515 1.289 . S
C543 O535 1.258 . S
C543 O536 1.266 . S
C9 C311 2.015 . S
C43 C345 2.015 . S
C379 C77 2.015 . S
C277 C111 2.015 . S
C145 C243 2.015 . S
C141 C179 2.015 . S
C213 C175 2.015 . S
C247 C209 2.015 . S
C39 C281 2.015 . S
C73 C315 2.015 . S
C349 C107 2.015 . S
C383 C5 2.015 . S
C515 C417 2.015 . S
C413 C451 2.015 . S
C485 C447 2.015 . S
C519 C481 2.015 . S
C33 C373 1.614 1_455 S
C407 C67 1.613 . S
C305 C101 1.613 1_565 S
C339 C135 1.614 1_445 S
C169 C509 1.614 1_655 S
C203 C543 1.613 . S
C237 C441 1.614 1_545 S
C475 C271 1.614 1_465 S
C206 C20 1.351 . S
C54 C240 1.350 . S
C138 C88 1.351 . S
C172 C122 1.350 . S
C156 C70 1.350 . S
C190 C104 1.350 . S
C2 C224 1.351 . S
C258 C36 1.350 . S
C478 C292 1.351 . S
C326 C512 1.350 . S
C360 C410 1.351 . S
C394 C444 1.350 . S
C342 C428 1.351 . S
C462 C376 1.350 . S
C274 C496 1.350 . S
C308 C530 1.350 . S
