# Generated by pormake.
# Topology snz, (6)-cn, num edge types: 1
# Building blocks:
#     Node 0, Type 0, BuildingBlock: JUFBIX_clean_sbu_0, # of connection points: 6
#     Node 1, Type 0, BuildingBlock: JUFBIX_clean_sbu_0, # of connection points: 6
#     Node 2, Type 0, BuildingBlock: JUFBIX_clean_sbu_0, # of connection points: 6
#     Node 3, Type 0, BuildingBlock: JUFBIX_clean_sbu_0, # of connection points: 6
#     Node 4, Type 0, BuildingBlock: JUFBIX_clean_sbu_0, # of connection points: 6
#     Node 5, Type 0, BuildingBlock: JUFBIX_clean_sbu_0, # of connection points: 6
#     Node 6, Type 0, BuildingBlock: JUFBIX_clean_sbu_0, # of connection points: 6
#     Node 7, Type 0, BuildingBlock: JUFBIX_clean_sbu_0, # of connection points: 6
#     Node 8, Type 0, BuildingBlock: JUFBIX_clean_sbu_0, # of connection points: 6
#     Edge 9, Type (0, 0), BuildingBlock: OJICUG_clean_linker_0, # of connection points: 2
#     Edge 10, Type (0, 0), BuildingBlock: OJICUG_clean_linker_0, # of connection points: 2
#     Edge 11, Type (0, 0), BuildingBlock: OJICUG_clean_linker_0, # of connection points: 2
#     Edge 12, Type (0, 0), BuildingBlock: OJICUG_clean_linker_0, # of connection points: 2
#     Edge 13, Type (0, 0), BuildingBlock: OJICUG_clean_linker_0, # of connection points: 2
#     Edge 14, Type (0, 0), BuildingBlock: OJICUG_clean_linker_0, # of connection points: 2
#     Edge 15, Type (0, 0), BuildingBlock: OJICUG_clean_linker_0, # of connection points: 2
#     Edge 16, Type (0, 0), BuildingBlock: OJICUG_clean_linker_0, # of connection points: 2
#     Edge 17, Type (0, 0), BuildingBlock: OJICUG_clean_linker_0, # of connection points: 2
#     Edge 18, Type (0, 0), BuildingBlock: OJICUG_clean_linker_0, # of connection points: 2
#     Edge 19, Type (0, 0), BuildingBlock: OJICUG_clean_linker_0, # of connection points: 2
#     Edge 20, Type (0, 0), BuildingBlock: OJICUG_clean_linker_0, # of connection points: 2
#     Edge 21, Type (0, 0), BuildingBlock: OJICUG_clean_linker_0, # of connection points: 2
#     Edge 22, Type (0, 0), BuildingBlock: OJICUG_clean_linker_0, # of connection points: 2
#     Edge 23, Type (0, 0), BuildingBlock: OJICUG_clean_linker_0, # of connection points: 2
#     Edge 24, Type (0, 0), BuildingBlock: OJICUG_clean_linker_0, # of connection points: 2
#     Edge 25, Type (0, 0), BuildingBlock: OJICUG_clean_linker_0, # of connection points: 2
#     Edge 26, Type (0, 0), BuildingBlock: OJICUG_clean_linker_0, # of connection points: 2
#     Edge 27, Type (0, 0), BuildingBlock: OJICUG_clean_linker_0, # of connection points: 2
#     Edge 28, Type (0, 0), BuildingBlock: OJICUG_clean_linker_0, # of connection points: 2
#     Edge 29, Type (0, 0), BuildingBlock: OJICUG_clean_linker_0, # of connection points: 2
#     Edge 30, Type (0, 0), BuildingBlock: OJICUG_clean_linker_0, # of connection points: 2
#     Edge 31, Type (0, 0), BuildingBlock: OJICUG_clean_linker_0, # of connection points: 2
#     Edge 32, Type (0, 0), BuildingBlock: OJICUG_clean_linker_0, # of connection points: 2
#     Edge 33, Type (0, 0), BuildingBlock: OJICUG_clean_linker_0, # of connection points: 2
#     Edge 34, Type (0, 0), BuildingBlock: OJICUG_clean_linker_0, # of connection points: 2
#     Edge 35, Type (0, 0), BuildingBlock: OJICUG_clean_linker_0, # of connection points: 2
# Relax obj value: 0.373
# Max RMSD: 0.288
# Mean RMSD: 0.227
data_MOF--net-snz--node1-JUFBIX_clean_sbu_0--edge1-OJICUG_clean_linker_0
_symmetry_space_group_name_H-M    P1
_symmetry_Int_Tables_number       1
_symmetry_cell_setting            triclinic
loop_
_symmetry_equiv_pos_as_xyz
'x, y, z'
_cell_length_a     40.196169
_cell_length_b     43.74195
_cell_length_c     10.823954
_cell_angle_alpha  89.981033
_cell_angle_beta   88.688594
_cell_angle_gamma 119.6452
loop_
_atom_site_label
_atom_site_type_symbol
_atom_site_fract_x
_atom_site_fract_y
_atom_site_fract_z
_atom_type_partial_charge
Co0 Co 0.16772 0.62608 0.82176 0.0
C1 C 0.13672 0.59969 0.05907 0.0
Co2 Co 0.11567 0.57347 0.8279 0.0
C3 C 0.22147 0.69254 0.92428 0.0
C4 C 0.24317 0.68266 0.75593 0.0
N5 N 0.21121 0.67028 0.82818 0.0
N6 N 0.25878 0.71744 0.91772 0.0
C7 C 0.27247 0.71159 0.81085 0.0
H8 H 0.20279 0.68877 0.00321 0.0
H9 H 0.24589 0.66982 0.67403 0.0
C10 C 0.14617 0.59928 0.59091 0.0
N11 N 0.07403 0.52715 0.82294 0.0
C12 C 0.07567 0.49912 0.77626 0.0
C13 C 0.03863 0.51319 0.87472 0.0
N14 N 0.04315 0.46811 0.79831 0.0
C15 C 1.01963 0.47707 0.85959 0.0
C16 C 0.10049 0.62953 0.80313 0.0
O17 O 0.17067 0.62647 0.64674 0.0
O18 O 0.12123 0.57302 0.65365 0.0
O19 O 0.08317 0.59568 0.80645 0.0
O20 O 0.13661 0.64642 0.81361 0.0
O21 O 0.11022 0.57404 0.00251 0.0
H22 H 1.02789 0.52806 0.92473 0.0
H23 H 0.10084 0.50146 0.72901 0.0
O24 O 0.16368 0.6245 -0.00314 0.0
O25 O 0.19938 0.60649 0.83035 0.0
O26 O 0.14966 0.55399 0.85142 0.0
C27 C 0.18587 0.57399 0.85028 0.0
H28 H 0.30194 0.72601 0.77771 0.0
H29 H 0.99132 0.45877 0.89622 0.0
Co30 Co 0.6403 0.56533 -0.00435 0.0
C31 C 0.63917 0.59223 0.76134 0.0
Co32 Co 0.64507 0.6177 -0.00642 0.0
C33 C 0.61425 0.49486 0.91084 0.0
C34 C 0.65652 0.5102 0.0497 0.0
N35 N 0.63574 0.52135 -0.01257 0.0
N36 N 0.62118 0.4678 0.92178 0.0
C37 C 0.64765 0.4773 0.00948 0.0
H38 H 0.59489 0.49595 0.84537 0.0
H39 H 0.67747 0.52541 0.11785 0.0
C40 C 0.64614 0.59087 0.22825 0.0
N41 N 0.6519 0.66265 0.00856 0.0
C42 C 0.68033 0.68733 0.07572 0.0
C43 C 0.62857 0.6759 -0.0131 0.0
N44 N 0.67565 0.71514 0.09951 0.0
C45 C 0.64303 0.70822 0.04368 0.0
C46 C 0.56982 0.56334 0.01734 0.0
O47 O 0.64259 0.56425 0.17033 0.0
O48 O 0.64858 0.61666 0.16751 0.0
O49 O 0.59009 0.59681 0.01297 0.0
O50 O 0.58648 0.54508 0.00991 0.0
O51 O 0.64143 0.61848 0.81952 0.0
H52 H 0.60148 0.66195 0.9412 0.0
H53 H 0.70216 0.68336 0.11742 0.0
O54 O 0.63797 0.56674 0.82152 0.0
O55 O 0.694 0.58547 -0.02005 0.0
O56 O 0.69976 0.63773 0.97182 0.0
C57 C 0.71517 0.61844 0.96662 0.0
H58 H 0.65972 0.46158 0.04234 0.0
H59 H 0.62963 0.72441 0.0488 0.0
Co60 Co 0.69012 0.05974 0.25177 0.0
C61 C 0.6931 0.08814 0.48673 0.0
Co62 Co 0.6808 0.10521 0.25532 0.0
C63 C 0.73149 1.02547 0.32088 0.0
C64 C 0.68165 0.99032 0.22145 0.0
N65 N 0.70152 1.02372 0.26067 0.0
N66 N 0.73098 0.99445 0.32242 0.0
C67 C 0.69964 0.9722 0.25972 0.0
H68 H 0.75239 0.04872 0.36771 0.0
H69 H 0.6553 0.97965 0.1714 0.0
C70 C 0.67789 0.07637 0.02045 0.0
N71 N 0.67104 0.14226 0.25079 0.0
C72 C 0.67584 0.16329 0.15299 0.0
C73 C 0.65508 0.15254 0.34063 0.0
N74 N 0.66276 0.18577 0.17686 0.0
C75 C 0.64999 0.17928 0.29557 0.0
C76 C 0.75547 0.12536 0.2012 0.0
O77 O 0.68327 0.054 0.0787 0.0
O78 O 0.67453 0.09963 0.08101 0.0
O79 O 0.73268 0.13682 0.22563 0.0
O80 O 0.74358 0.09261 0.21542 0.0
O81 O 0.68711 0.11012 0.42891 0.0
H82 H 0.64623 0.14047 0.43144 0.0
H83 H 0.68675 0.16081 0.06356 0.0
O84 O 0.69697 0.06532 0.42563 0.0
O85 O 0.63573 0.02736 0.28366 0.0
O86 O 0.62858 0.0739 0.2828 0.0
C87 C 0.61394 0.04081 0.2941 0.0
H88 H 0.69016 0.94469 0.24387 0.0
H89 H 0.63653 0.19193 0.34525 0.0
Co90 Co 0.90405 0.95637 0.56457 0.0
C91 C 0.87344 0.93059 0.80142 0.0
Co92 Co 0.85185 0.90379 0.5704 0.0
C93 C 0.94456 0.03074 0.61747 0.0
C94 C 0.98117 1.01653 0.51709 0.0
N95 N 0.94589 1.00265 0.56967 0.0
N96 N 0.97719 0.0617 0.59546 0.0
C97 C 1.00041 0.05262 0.53288 0.0
H98 H 0.91953 0.02845 0.66552 0.0
H99 H 0.99167 1.00161 0.46617 0.0
C100 C 0.88296 0.93011 0.33326 0.0
N101 N 0.80818 0.85964 0.56385 0.0
C102 C 0.79781 0.83722 0.46813 0.0
C103 C 0.7763 0.84736 0.63641 0.0
N104 N 0.76051 0.81227 0.47542 0.0
C105 C 0.74696 0.81831 0.5822 0.0
C106 C 0.83407 0.95615 0.54179 0.0
O107 O 0.90948 0.95574 0.38988 0.0
O108 O 0.85595 0.90531 0.3954 0.0
O109 O 0.82044 0.92362 0.56152 0.0
O110 O 0.87029 0.97607 0.54095 0.0
O111 O 0.84887 0.90344 0.74552 0.0
H112 H 0.77369 0.86028 0.71825 0.0
H113 H 0.81641 0.84083 0.38911 0.0
O114 O 0.89846 0.95682 0.73875 0.0
O115 O 0.93631 0.9339 0.58622 0.0
O116 O 0.88275 0.88325 0.57887 0.0
C117 C 0.91887 0.90004 0.58961 0.0
H118 H 1.0287 0.07081 0.49589 0.0
H119 H 0.71755 0.80386 0.61591 0.0
Co120 Co 0.37368 0.91 0.40438 0.0
C121 C 0.37266 0.9367 0.16968 0.0
Co122 Co 0.37872 0.96245 0.40227 0.0
C123 C 0.33821 0.84036 0.3233 0.0
C124 C 0.39009 0.85177 0.41133 0.0
N125 N 0.3667 0.86501 0.39026 0.0
N126 N 0.34293 0.81261 0.29886 0.0
C127 C 0.3756 0.81951 0.35421 0.0
H128 H 0.31641 0.84438 0.28175 0.0
H129 H 0.41727 0.86576 0.45646 0.0
C130 C 0.37982 0.9357 0.63658 0.0
N131 N 0.38346 1.00653 0.40942 0.0
C132 C 0.40529 0.03339 0.48424 0.0
C133 C 0.36253 1.01744 0.34674 0.0
N134 N 0.39842 0.06046 0.4717 0.0
C135 C 0.37164 0.05056 0.38489 0.0
C136 C 0.30377 0.90959 0.43155 0.0
O137 O 0.37745 0.90941 0.57838 0.0
O138 O 0.38111 0.96124 0.57645 0.0
O139 O 0.32508 0.94253 0.41809 0.0
O140 O 0.31901 0.89017 0.42651 0.0
O141 O 0.37639 0.96337 0.22763 0.0
H142 H 0.34138 1.00195 0.27952 0.0
H143 H 0.4249 0.03261 0.5494 0.0
O144 O 0.37007 0.91084 0.23038 0.0
O145 O 0.42859 0.93062 0.38449 0.0
O146 O 0.43248 0.98245 0.38783 0.0
C147 C 0.44898 0.96406 0.38005 0.0
H148 H 0.3891 0.8034 0.3482 0.0
H149 H 0.35958 0.06618 0.35108 0.0
Co150 Co 0.3362 0.4226 0.13352 0.0
C151 C 0.34015 0.45191 0.36802 0.0
Co152 Co 0.32904 0.46933 0.1363 0.0
C153 C 0.34125 0.3645 0.23636 0.0
C154 C 0.35991 0.37395 0.04662 0.0
N155 N 0.34513 0.385 0.13781 0.0
N156 N 0.35378 0.34165 0.21153 0.0
C157 C 0.3652 0.34732 0.09151 0.0
H158 H 0.33149 0.36764 0.32686 0.0
H159 H 0.36794 0.38549 0.95484 0.0
C160 C 0.32494 0.44046 0.90173 0.0
N161 N 0.31849 0.5059 0.12729 0.0
C162 C 0.28863 0.50446 0.06728 0.0
C163 C 0.3386 0.53925 0.16685 0.0
N164 N 0.28937 0.53557 0.06636 0.0
C165 C 0.32081 0.55762 0.12908 0.0
C166 C 0.40443 0.48676 0.09535 0.0
O167 O 0.32957 0.4177 0.95984 0.0
O168 O 0.32245 0.46405 0.96251 0.0
O169 O 0.3833 0.50087 0.10595 0.0
O170 O 0.38899 0.45352 0.10523 0.0
O171 O 0.3356 0.47476 0.30963 0.0
H172 H 0.36488 0.54969 0.21711 0.0
H173 H 0.26756 0.48129 0.02046 0.0
O174 O 0.34276 0.42824 0.30762 0.0
O175 O 0.28373 0.39149 0.16462 0.0
O176 O 0.2757 0.43741 0.1712 0.0
C177 C 0.26226 0.4045 0.18749 0.0
H178 H 0.37795 0.33422 0.04072 0.0
H179 H 0.33043 0.58512 0.14562 0.0
Co180 Co 0.53774 0.26474 0.68635 0.0
C181 C 0.47303 0.19842 0.67255 0.0
Co182 Co 0.48307 0.26495 0.69562 0.0
C183 C 0.58564 0.24136 0.78095 0.0
C184 C 0.61833 0.28451 0.65661 0.0
N185 N 0.58228 0.26266 0.69883 0.0
N186 N 0.62224 0.24973 0.79659 0.0
C187 C 0.64312 0.27652 0.71688 0.0
H188 H 0.5617 0.22155 0.83529 0.0
H189 H 0.62635 0.30648 0.59396 0.0
C190 C 0.54775 0.33124 0.70989 0.0
N191 N 0.43848 0.26695 0.68347 0.0
C192 C 0.43449 0.28758 0.59998 0.0
C193 C 0.40281 0.24568 0.72989 0.0
N194 N 0.39779 0.27935 0.58786 0.0
C195 C 0.37757 0.25336 0.67101 0.0
C196 C 0.50536 0.26138 0.92519 0.0
O197 O 0.56567 0.31425 0.69853 0.0
O198 O 0.51142 0.31472 0.70748 0.0
O199 O 0.47801 0.2618 0.87014 0.0
O200 O 0.53245 0.26176 0.86156 0.0
O201 O 0.45512 0.21543 0.68399 0.0
H202 H 0.3953 0.22439 0.7952 0.0
H203 H 0.45799 0.30694 0.54297 0.0
O204 O 0.50936 0.21497 0.67413 0.0
O205 O 0.54289 0.26801 0.51185 0.0
O206 O 0.48832 0.26783 0.52042 0.0
C207 C 0.51548 0.26834 0.4568 0.0
H208 H 0.67409 0.29103 0.71002 0.0
H209 H 0.34667 0.23921 0.68169 0.0
Co210 Co 0.04225 0.27632 0.69633 0.0
C211 C 1.01786 0.32691 0.71581 0.0
Co212 Co 0.97942 0.25384 0.70221 0.0
C213 C 0.11556 0.30268 0.56898 0.0
C214 C 0.12061 0.32396 0.74999 0.0
N215 N 0.0955 0.29862 0.67588 0.0
N216 N 0.15127 0.33051 0.57153 0.0
C217 C 0.15474 0.34372 0.68585 0.0
H218 H 0.10307 0.28817 0.48596 0.0
H219 H 0.11331 0.33036 0.83942 0.0
C220 C 1.00383 0.20329 0.68236 0.0
N221 N 0.92682 0.23294 0.7261 0.0
C222 C 0.90634 0.2085 0.81451 0.0
C223 C 0.90289 0.24368 0.68444 0.0
N224 N 0.87113 0.20443 0.83302 0.0
C225 C 0.86865 0.2263 0.75054 0.0
C226 C 1.00705 0.26671 0.46592 0.0
O227 O 1.03742 0.23013 0.68253 0.0
O228 O 0.97508 0.20809 0.69249 0.0
O229 O 0.97554 0.2543 0.5272 0.0
O230 O 1.03797 0.27786 0.5234 0.0
O231 O 0.98443 0.30016 0.71201 0.0
H232 H 0.9108 0.26465 0.61739 0.0
H233 H 0.91827 0.1963 0.87226 0.0
O234 O 0.04653 0.32202 0.70956 0.0
O235 O 0.04551 0.27453 0.87164 0.0
O236 O 0.98355 0.25358 0.87511 0.0
C237 C 1.01418 0.26352 0.93276 0.0
H238 H 0.17906 0.36772 0.71711 0.0
H239 H 0.84456 0.23074 0.74292 0.0
Co240 Co 0.97972 0.74232 0.70061 0.0
C241 C 0.98528 0.80928 0.67836 0.0
Co242 Co 0.039 0.78684 0.69443 0.0
C243 C 0.89976 0.70342 0.77803 0.0
C244 C 0.91506 0.67505 0.64892 0.0
N245 N 0.92937 0.70594 0.70813 0.0
N246 N 0.86767 0.67198 0.76576 0.0
C247 C 0.87724 0.65413 0.68427 0.0
H248 H 0.90204 0.72387 0.83938 0.0
H249 H 0.93128 0.66802 0.5854 0.0
C250 C 1.03349 0.71991 0.71655 0.0
N251 N 0.08935 0.82318 0.68697 0.0
C252 C 0.119 0.82552 0.61778 0.0
C253 C 0.10369 0.85414 0.74575 0.0
N254 N 0.15115 0.85691 0.63009 0.0
C255 C 0.14157 0.87492 0.71084 0.0
C256 C 1.00859 0.76752 0.93131 0.0
O257 O 0.99764 0.70866 0.71359 0.0
O258 O 0.05628 0.753 0.7073 0.0
O259 O 1.03824 0.7893 0.86945 0.0
O260 O 0.97937 0.74509 0.87465 0.0
O261 O 1.02112 0.82048 0.68141 0.0
H262 H 0.08746 0.86129 0.80876 0.0
H263 H 0.11671 0.80496 0.55698 0.0
O264 O 0.96244 0.77619 0.68771 0.0
O265 O 0.98049 0.73987 0.5256 0.0
O266 O 0.03937 0.78407 0.5204 0.0
C267 C 1.01014 0.76164 0.46374 0.0
H268 H 0.85822 0.62783 0.65206 0.0
H269 H 0.16065 0.90122 0.74292 0.0
C270 C 0.11497 0.57008 0.39434 0.0
C271 C 0.14444 0.59898 0.4546 0.0
H272 H 0.08904 0.54777 0.22237 0.0
C273 C 0.17079 0.62829 0.38388 0.0
H274 H 0.09404 0.54714 0.44627 0.0
C275 C 0.16777 0.62868 0.25573 0.0
C276 C 0.13827 0.59981 0.19541 0.0
H277 H 0.19366 0.65105 0.42746 0.0
H278 H 0.18874 0.65163 0.20399 0.0
C279 C 0.11188 0.57051 0.26609 0.0
C280 C 0.64558 0.62105 0.5555 0.0
C281 C 0.64012 0.59176 0.62491 0.0
H282 H 0.65224 0.6439 0.37574 0.0
C283 C 0.63724 0.5623 0.56282 0.0
H284 H 0.64816 0.64421 0.60058 0.0
C285 C 0.63976 0.56214 0.43402 0.0
C286 C 0.64521 0.59143 0.36462 0.0
H287 H 0.63315 0.5393 0.61366 0.0
H288 H 0.6372 0.53899 0.38896 0.0
C289 C 0.64813 0.62091 0.42666 0.0
C290 C 0.68968 0.05624 0.8152 0.0
C291 C 0.68022 0.07832 0.88353 0.0
H292 H 0.70192 0.04246 0.63688 0.0
C293 C 0.67624 0.10441 0.82034 0.0
H294 H 0.6934 0.03615 0.86098 0.0
C295 C 0.68154 0.10831 0.69198 0.0
C296 C 0.69094 0.08621 0.62363 0.0
H297 H 0.66925 0.12207 0.87003 0.0
H298 H 0.67782 0.12841 0.64627 0.0
C299 C 0.69498 0.06014 0.68677 0.0
C300 C 0.90467 0.95976 -0.00199 0.0
C301 C 0.87517 0.93087 0.93773 0.0
H302 H 0.93065 0.98204 0.16996 0.0
C303 C 0.84883 0.90157 0.00844 0.0
H304 H 0.92561 0.9827 0.9461 0.0
C305 C 0.85188 0.90115 0.13658 0.0
C306 C 0.88141 0.93 0.19691 0.0
H307 H 0.82594 0.87882 0.96486 0.0
H308 H 0.83091 0.8782 0.18831 0.0
C309 C 0.90779 0.9593 0.12624 0.0
C310 C 0.37327 0.90672 0.84217 0.0
C311 C 0.37883 0.9361 0.77301 0.0
H312 H 0.36646 0.88371 0.02174 0.0
C313 C 0.38176 0.96553 0.83536 0.0
H314 H 0.37065 0.88357 0.7969 0.0
C315 C 0.37918 0.96559 0.96415 0.0
C316 C 0.37362 0.93622 0.0333 0.0
H317 H 0.38594 0.98859 0.78471 0.0
H318 H 0.38178 0.98873 0.00942 0.0
C319 C 0.37065 0.90676 0.97102 0.0
C320 C 0.32893 0.47249 0.57313 0.0
C321 C 0.33775 0.44998 0.50493 0.0
H322 H 0.31721 0.48671 0.75138 0.0
C323 C 0.34105 0.42353 0.56823 0.0
H324 H 0.32571 0.49285 0.52726 0.0
C325 C 0.33573 0.41971 0.69659 0.0
C326 C 0.32703 0.44229 0.76484 0.0
H327 H 0.34755 0.40554 0.51865 0.0
H328 H 0.33894 0.39933 0.7424 0.0
C329 C 0.32364 0.4687 0.70157 0.0
C330 C 0.48003 0.26236 0.26346 0.0
C331 C 0.51339 0.2672 0.32068 0.0
H332 H 0.45113 0.25652 0.0939 0.0
C333 C 0.54376 0.26965 0.24686 0.0
H334 H 0.45587 0.25987 0.31794 0.0
C335 C 0.54087 0.26747 0.1185 0.0
C336 C 0.50749 0.26259 0.0613 0.0
H337 H 0.56977 0.2733 0.28806 0.0
H338 H 0.56505 0.27004 0.064 0.0
C339 C 0.47713 0.26017 0.13511 0.0
C340 C 0.97492 0.24979 0.2618 0.0
C341 C 1.00855 0.26666 0.32931 0.0
H342 H 0.9504 0.23519 0.08369 0.0
C343 C 0.04421 0.28223 0.26523 0.0
H344 H 0.94708 0.23741 0.30828 0.0
C345 C 0.04623 0.28067 0.13664 0.0
C346 C 1.01262 0.26374 0.06921 0.0
H347 H 0.07075 0.29569 0.31423 0.0
H348 H 0.07407 0.2931 0.09012 0.0
C349 C 0.97693 0.24837 0.13309 0.0
C350 C 0.97687 0.73966 0.2638 0.0
C351 C 1.00999 0.76253 0.32741 0.0
H352 H 0.95031 0.72357 0.0889 0.0
C353 C 0.04248 0.78747 0.25981 0.0
H354 H 0.9513 0.72029 0.31326 0.0
C355 C 0.04186 0.78951 0.13125 0.0
C356 C 1.00874 0.76663 0.06764 0.0
H357 H 0.06842 0.8056 0.30615 0.0
H358 H 0.06743 0.80887 0.08179 0.0
C359 C 0.97625 0.74169 0.13524 0.0
C360 C 0.27691 0.57749 0.95245 0.0
C361 C 0.26346 0.5439 0.004 0.0
H362 H 0.26339 0.61277 0.85982 0.0
C363 C 0.22441 0.51872 -0.0063 0.0
H364 H 0.3069 0.59718 0.95645 0.0
C365 C 0.19906 0.52761 0.93804 0.0
C366 C 0.21245 0.56174 0.89045 0.0
H367 H 0.21325 0.49255 0.03263 0.0
H368 H 0.1689 0.50822 0.93625 0.0
C369 C 0.25187 0.58622 0.89577 0.0
C370 C 0.67946 0.75471 0.26883 0.0
C371 C 0.69744 0.74212 0.18713 0.0
H372 H 0.68533 0.7867 0.42562 0.0
C373 C 0.73654 0.75352 0.20058 0.0
H374 H 0.64927 0.74607 0.26164 0.0
C375 C 0.75704 0.77629 0.29521 0.0
C376 C 0.73896 0.78826 0.37907 0.0
H377 H 0.75118 0.74435 0.13862 0.0
H378 H 0.78693 0.78401 0.30402 0.0
C379 C 0.69998 0.77746 0.36415 0.0
C380 C 0.55158 0.03741 0.34671 0.0
C381 C 0.57197 1.01959 0.32068 0.0
H382 H 0.49786 0.0342 0.38624 0.0
C383 C 0.55162 0.98256 0.31887 0.0
H384 H 0.56606 0.06586 0.35032 0.0
C385 C 0.51158 0.96401 0.33996 0.0
C386 C 0.49139 0.98225 0.36338 0.0
H387 H 0.56644 0.96802 0.29943 0.0
H388 H 0.49644 0.93556 0.33619 0.0
C389 C 0.51213 1.01912 0.36765 0.0
C390 C 0.67781 0.21731 -0.02502 0.0
C391 C 0.65613 0.20626 0.08666 0.0
H392 H 0.68386 0.24002 0.79386 0.0
C393 C 0.6254 0.21261 0.10391 0.0
H394 H 0.70205 0.21329 0.95954 0.0
C395 C 0.61525 0.22779 0.00992 0.0
C396 C 0.63552 0.23712 0.89606 0.0
H397 H 0.60787 0.20438 0.18776 0.0
H398 H 0.59089 0.23157 0.02588 0.0
C399 C 0.66763 0.23276 0.88048 0.0
C400 C 0.0612 0.39239 0.73511 0.0
C401 C 1.02387 0.36333 0.73182 0.0
H402 H 0.09664 0.44776 0.75964 0.0
C403 C 0.99287 0.36956 0.74789 0.0
H404 H 0.08589 0.38879 0.72367 0.0
C405 C 0.99909 0.40378 0.76825 0.0
C406 C 1.0365 0.43284 0.77278 0.0
H407 H 0.96372 0.34793 0.74598 0.0
H408 H 0.97449 0.40743 0.78019 0.0
C409 C 0.06741 0.4265 0.75513 0.0
C410 C 0.80761 0.62342 0.85486 0.0
C411 C 0.83092 0.65942 0.82755 0.0
H412 H 0.75339 0.58246 0.92253 0.0
C413 C 0.81711 0.68252 0.85722 0.0
H414 H 0.8177 0.60507 0.83534 0.0
C415 C 0.77999 0.66955 0.90743 0.0
C416 C 0.75616 0.63327 0.93013 0.0
H417 H 0.83442 0.71039 0.83701 0.0
H418 H 0.76958 0.68778 0.92484 0.0
C419 C 0.77082 0.61053 0.90596 0.0
C420 C 1.02547 0.65851 0.7476 0.0
C421 C 0.04909 0.69544 0.73616 0.0
H422 H 1.02258 0.60831 0.77756 0.0
C423 C 0.08869 0.70952 0.74746 0.0
H424 H 0.99475 0.64665 0.73978 0.0
C425 C 0.10433 0.68786 0.76998 0.0
C426 C 0.08118 0.65097 0.78163 0.0
H427 H 0.10798 0.73764 0.73974 0.0
H428 H 0.13512 0.70049 0.77779 0.0
C429 C 0.04136 0.63648 0.76968 0.0
C430 C 0.62467 0.41777 0.8308 0.0
C431 C 0.6041 0.43549 0.85422 0.0
H432 H 0.62326 0.37122 0.76375 0.0
C433 C 0.56614 0.42042 0.81562 0.0
H434 H 0.65423 0.42914 0.85713 0.0
C435 C 0.54835 0.38725 0.76163 0.0
C436 C 0.56831 0.36867 0.7445 0.0
H437 H 0.54962 0.4335 0.83256 0.0
H438 H 0.51848 0.37557 0.73815 0.0
C439 C 0.60702 0.38476 0.77603 0.0
C440 C 0.83943 0.15309 -0.02386 0.0
C441 C 0.84496 0.1858 0.93461 0.0
H442 H 0.80695 0.10816 0.09519 0.0
C443 C 0.8249 0.20037 -0.00517 0.0
H444 H 0.85487 0.14146 0.93187 0.0
C445 C 0.79842 0.18194 0.09012 0.0
C446 C 0.79073 0.14808 0.12632 0.0
H447 H 0.82937 0.22595 0.96715 0.0
H448 H 0.78244 0.19356 0.13068 0.0
C449 C 0.81232 0.13424 0.0705 0.0
C450 C 0.7432 0.95283 0.43917 0.0
C451 C 0.7568 0.98627 0.38605 0.0
H452 H 0.75652 0.9177 0.53377 0.0
C453 C 0.79588 1.01139 0.39586 0.0
H454 H 0.71318 0.93322 0.43562 0.0
C455 C 0.82115 1.00253 0.45236 0.0
C456 C 0.80762 0.96851 0.5013 0.0
H457 H 0.80712 0.03743 0.3558 0.0
H458 H 0.85135 1.02182 0.4536 0.0
C459 C 0.76815 0.94414 0.49671 0.0
C460 C 0.28224 0.77464 0.19649 0.0
C461 C 0.32131 0.78596 0.21012 0.0
H462 H 0.2321 0.74486 0.09138 0.0
C463 C 0.33947 0.77386 0.12716 0.0
H464 H 0.26749 0.78346 0.25938 0.0
C465 C 0.31914 0.75167 0.0304 0.0
C466 C 0.28021 0.74099 0.01523 0.0
H467 H 0.36964 0.78248 0.13449 0.0
H468 H 0.3339 0.74276 0.96801 0.0
C469 C 0.26196 0.75248 0.10032 0.0
C470 C 0.50671 0.50805 0.03187 0.0
C471 C 0.52735 0.54499 0.03312 0.0
H472 H 0.45267 0.46129 0.04964 0.0
C473 C 0.50699 0.56325 0.05201 0.0
H474 H 0.52115 0.49295 0.01704 0.0
C475 C 0.4669 0.54473 0.07105 0.0
C476 C 0.44658 0.50768 0.07164 0.0
H477 H 0.52202 0.59172 0.05342 0.0
H478 H 0.45197 0.55934 0.08663 0.0
C479 C 0.46713 0.48976 0.0508 0.0
C480 C 0.99353 0.87073 0.64679 0.0
C481 C 0.9698 0.83382 0.65831 0.0
H482 H 0.99667 0.92102 0.61624 0.0
C483 C 0.93023 0.81984 0.64647 0.0
H484 H 1.02423 0.88251 0.655 0.0
C485 C 0.91474 0.8416 0.62336 0.0
C486 C 0.93802 0.87849 0.61163 0.0
H487 H 0.91086 0.79175 0.6542 0.0
H488 H 0.88396 0.82906 0.61515 0.0
C489 C 0.97779 0.89286 0.62414 0.0
C490 C 0.41344 0.14449 0.61098 0.0
C491 C 0.45235 0.16083 0.64011 0.0
H492 H 0.36573 0.0995 0.53476 0.0
C493 C 0.47226 0.14217 0.62361 0.0
H494 H 0.39724 0.15809 0.62295 0.0
C495 C 0.45413 0.10859 0.5727 0.0
C496 C 0.41591 0.09321 0.53656 0.0
H497 H 0.50227 0.15404 0.64536 0.0
H498 H 0.47055 0.0954 0.55616 0.0
C499 C 0.39547 0.11108 0.55928 0.0
C500 C 0.19038 0.38439 0.44729 0.0
C501 C 0.17569 0.34813 0.46554 0.0
H502 H 0.22782 0.43039 0.34091 0.0
C503 C 0.18502 0.32952 0.37892 0.0
H504 H 0.18284 0.39915 0.51128 0.0
C505 C 0.21107 0.34742 0.28109 0.0
C506 C 0.2274 0.38411 0.26651 0.0
H507 H 0.17357 0.30146 0.39054 0.0
H508 H 0.21981 0.33282 0.22043 0.0
C509 C 0.21559 0.40212 0.3482 0.0
C510 C 0.35185 0.2963 0.50873 0.0
C511 C 0.38363 0.29158 0.48978 0.0
H512 H 0.31686 0.31564 0.43325 0.0
C513 C 0.40267 0.30015 0.37381 0.0
H514 H 0.33657 0.28964 0.59706 0.0
C515 C 0.39165 0.31492 0.28083 0.0
C516 C 0.36126 0.32161 0.30125 0.0
H517 H 0.42671 0.29605 0.35535 0.0
H518 H 0.40826 0.32257 0.19509 0.0
C519 C 0.34081 0.31134 0.41526 0.0
C520 C 1.02177 0.1261 0.62354 0.0
C521 C 0.98424 0.09707 0.62245 0.0
H522 H 0.05754 0.182 0.64382 0.0
C523 C 0.95362 0.10355 0.64497 0.0
H524 H 0.04622 0.12241 0.60795 0.0
C525 C 0.96018 0.13773 0.66618 0.0
C526 C 0.99759 0.16678 0.66571 0.0
H527 H 0.92429 0.08236 0.64344 0.0
H528 H 0.93565 0.14139 0.68142 0.0
C529 C 1.02834 0.16041 0.64493 0.0
C530 C 0.20162 0.84598 0.54039 0.0
C531 C 0.18796 0.86924 0.56907 0.0
H532 H 0.24907 0.84038 0.47407 0.0
C533 C 0.21147 0.9052 0.54147 0.0
H534 H 0.18416 0.81814 0.56088 0.0
C535 C 0.2483 0.91787 0.49098 0.0
C536 C 0.26279 0.89496 0.46771 0.0
H537 H 0.20151 0.92368 0.56024 0.0
H538 H 0.26586 0.94592 0.47408 0.0
C539 C 0.23878 0.85873 0.49079 0.0
loop_
_geom_bond_atom_site_label_1
_geom_bond_atom_site_label_2
_geom_bond_distance
_geom_bond_site_symmetry_2
_ccdc_geom_bond_type
Co0 N5 2.057 . S
Co0 O17 2.021 1_554 S
Co0 O20 2.062 1_554 S
Co0 O24 2.117 . S
Co0 O25 2.020 . S
C1 O21 1.259 . S
C1 O24 1.258 . S
Co2 N11 2.057 1_554 S
Co2 O18 2.117 1_554 S
Co2 O19 2.020 1_554 S
Co2 O21 2.021 . S
Co2 O26 2.062 . S
C3 N5 1.316 . S
C3 N6 1.347 . S
C3 H8 0.931 1_554 S
C4 N5 1.375 . S
C4 C7 1.350 . S
C4 H9 0.930 . S
N5 Co0 2.057 . S
N5 C3 1.316 . S
N5 C4 1.375 . S
N6 C3 1.347 . S
N6 C7 1.373 . S
C7 C4 1.350 . S
C7 N6 1.373 . S
C7 H28 0.931 . S
H8 C3 0.931 1_556 S
H9 C4 0.930 . S
C10 O17 1.259 . S
C10 O18 1.258 . S
N11 Co2 2.057 1_556 S
N11 C12 1.316 1_456 S
N11 C13 1.375 . S
C12 N11 1.316 1_654 S
C12 N14 1.347 1_554 S
C12 H23 0.931 . S
C13 N11 1.375 . S
C13 C15 1.350 1_455 S
C13 H22 0.930 . S
N14 C12 1.347 1_556 S
N14 C15 1.373 . S
C15 C13 1.350 1_655 S
C15 N14 1.373 . S
C15 H29 0.931 . S
C16 O19 1.256 . S
C16 O20 1.255 . S
O17 Co0 2.021 1_556 S
O17 C10 1.259 . S
O18 Co2 2.117 1_556 S
O18 C10 1.258 . S
O19 Co2 2.020 1_556 S
O19 C16 1.256 . S
O20 Co0 2.062 1_556 S
O20 C16 1.255 . S
O21 C1 1.259 . S
O21 Co2 2.021 . S
H22 C13 0.930 . S
H23 C12 0.931 . S
O24 Co0 2.117 . S
O24 C1 1.258 . S
O25 Co0 2.020 . S
O25 C27 1.256 . S
O26 Co2 2.062 . S
O26 C27 1.255 . S
C27 O25 1.256 . S
C27 O26 1.255 . S
H28 C7 0.931 . S
H29 C15 0.931 . S
Co30 N35 2.057 . S
Co30 O47 2.021 . S
Co30 O50 2.062 . S
Co30 O54 2.117 1_554 S
Co30 O55 2.020 . S
C31 O51 1.259 . S
C31 O54 1.258 . S
Co32 N41 2.057 . S
Co32 O48 2.117 . S
Co32 O49 2.020 . S
Co32 O51 2.021 1_554 S
Co32 O56 2.062 . S
C33 N35 1.316 . S
C33 N36 1.347 . S
C33 H38 0.931 . S
C34 N35 1.375 1_556 S
C34 C37 1.350 . S
C34 H39 0.930 . S
N35 Co30 2.057 . S
N35 C33 1.316 . S
N35 C34 1.375 1_554 S
N36 C33 1.347 . S
N36 C37 1.373 1_554 S
C37 C34 1.350 . S
C37 N36 1.373 1_556 S
C37 H58 0.931 . S
H38 C33 0.931 . S
H39 C34 0.930 . S
C40 O47 1.259 . S
C40 O48 1.258 . S
N41 Co32 2.057 . S
N41 C42 1.316 . S
N41 C43 1.375 . S
C42 N41 1.316 . S
C42 N44 1.347 . S
C42 H53 0.931 . S
C43 N41 1.375 . S
C43 C45 1.350 . S
C43 H52 0.930 . S
N44 C42 1.347 . S
N44 C45 1.373 . S
C45 C43 1.350 . S
C45 N44 1.373 . S
C45 H59 0.931 . S
C46 O49 1.256 . S
C46 O50 1.255 . S
O47 Co30 2.021 . S
O47 C40 1.259 . S
O48 Co32 2.117 . S
O48 C40 1.258 . S
O49 Co32 2.020 . S
O49 C46 1.256 . S
O50 Co30 2.062 . S
O50 C46 1.255 . S
O51 C31 1.259 . S
O51 Co32 2.021 1_556 S
H52 C43 0.930 . S
H53 C42 0.931 . S
O54 Co30 2.117 1_556 S
O54 C31 1.258 . S
O55 Co30 2.020 . S
O55 C57 1.256 . S
O56 Co32 2.062 . S
O56 C57 1.255 . S
C57 O55 1.256 . S
C57 O56 1.255 . S
H58 C37 0.931 . S
H59 C45 0.931 . S
Co60 N65 2.057 1_545 S
Co60 O77 2.021 . S
Co60 O80 2.062 . S
Co60 O84 2.117 . S
Co60 O85 2.020 1_545 S
C61 O81 1.259 . S
C61 O84 1.258 . S
Co62 N71 2.057 . S
Co62 O78 2.117 . S
Co62 O79 2.020 . S
Co62 O81 2.021 . S
Co62 O86 2.062 . S
C63 N65 1.316 . S
C63 N66 1.347 . S
C63 H68 0.931 . S
C64 N65 1.375 . S
C64 C67 1.350 . S
C64 H69 0.930 . S
N65 Co60 2.057 1_565 S
N65 C63 1.316 . S
N65 C64 1.375 . S
N66 C63 1.347 . S
N66 C67 1.373 . S
C67 C64 1.350 . S
C67 N66 1.373 . S
C67 H88 0.931 . S
H68 C63 0.931 . S
H69 C64 0.930 . S
C70 O77 1.259 1_556 S
C70 O78 1.258 1_556 S
N71 Co62 2.057 . S
N71 C72 1.316 . S
N71 C73 1.375 1_554 S
C72 N71 1.316 . S
C72 N74 1.347 . S
C72 H83 0.931 . S
C73 N71 1.375 1_556 S
C73 C75 1.350 . S
C73 H82 0.930 . S
N74 C72 1.347 . S
N74 C75 1.373 1_554 S
C75 C73 1.350 . S
C75 N74 1.373 1_556 S
C75 H89 0.931 . S
C76 O79 1.256 . S
C76 O80 1.255 . S
O77 Co60 2.021 . S
O77 C70 1.259 1_554 S
O78 Co62 2.117 . S
O78 C70 1.258 1_554 S
O79 Co62 2.020 . S
O79 C76 1.256 . S
O80 Co60 2.062 . S
O80 C76 1.255 . S
O81 C61 1.259 . S
O81 Co62 2.021 . S
H82 C73 0.930 . S
H83 C72 0.931 . S
O84 Co60 2.117 . S
O84 C61 1.258 . S
O85 Co60 2.020 1_565 S
O85 C87 1.256 1_565 S
O86 Co62 2.062 . S
O86 C87 1.255 . S
C87 O85 1.256 1_545 S
C87 O86 1.255 . S
H88 C67 0.931 . S
H89 C75 0.931 . S
Co90 N95 2.057 1_565 S
Co90 O107 2.021 . S
Co90 O110 2.062 . S
Co90 O114 2.117 . S
Co90 O115 2.020 . S
C91 O111 1.259 . S
C91 O114 1.258 . S
Co92 N101 2.057 . S
Co92 O108 2.117 . S
Co92 O109 2.020 . S
Co92 O111 2.021 . S
Co92 O116 2.062 . S
C93 N95 1.316 . S
C93 N96 1.347 . S
C93 H98 0.931 . S
C94 N95 1.375 . S
C94 C97 1.350 . S
C94 H99 0.922 1_545 S
N95 Co90 2.057 1_545 S
N95 C93 1.316 . S
N95 C94 1.375 . S
N96 C93 1.347 . S
N96 C97 1.373 . S
C97 C94 1.350 . S
C97 N96 1.373 . S
C97 H118 0.931 . S
H98 C93 0.931 . S
H99 C94 0.922 1_565 S
C100 O107 1.259 . S
C100 O108 1.258 . S
N101 Co92 2.057 . S
N101 C102 1.316 . S
N101 C103 1.375 . S
C102 N101 1.316 . S
C102 N104 1.347 . S
C102 H113 0.931 . S
C103 N101 1.375 . S
C103 C105 1.350 . S
C103 H112 0.930 . S
N104 C102 1.347 . S
N104 C105 1.373 . S
C105 C103 1.350 . S
C105 N104 1.373 . S
C105 H119 0.931 . S
C106 O109 1.256 . S
C106 O110 1.255 . S
O107 Co90 2.021 . S
O107 C100 1.259 . S
O108 Co92 2.117 . S
O108 C100 1.258 . S
O109 Co92 2.020 . S
O109 C106 1.256 . S
O110 Co90 2.062 . S
O110 C106 1.255 . S
O111 C91 1.259 . S
O111 Co92 2.021 . S
H112 C103 0.930 . S
H113 C102 0.931 . S
O114 Co90 2.117 . S
O114 C91 1.258 . S
O115 Co90 2.020 . S
O115 C117 1.256 . S
O116 Co92 2.062 . S
O116 C117 1.255 . S
C117 O115 1.256 . S
C117 O116 1.255 . S
H118 C97 0.931 . S
H119 C105 0.931 . S
Co120 N125 2.057 . S
Co120 O137 2.021 . S
Co120 O140 2.062 . S
Co120 O144 2.117 . S
Co120 O145 2.020 . S
C121 O141 1.259 . S
C121 O144 1.258 . S
Co122 N131 2.057 1_565 S
Co122 O138 2.117 . S
Co122 O139 2.020 . S
Co122 O141 2.021 . S
Co122 O146 2.062 . S
C123 N125 1.316 . S
C123 N126 1.347 . S
C123 H128 0.931 . S
C124 N125 1.375 . S
C124 C127 1.350 . S
C124 H129 0.930 . S
N125 Co120 2.057 . S
N125 C123 1.316 . S
N125 C124 1.375 . S
N126 C123 1.347 . S
N126 C127 1.373 . S
C127 C124 1.350 . S
C127 N126 1.373 . S
C127 H148 0.931 . S
H128 C123 0.931 . S
H129 C124 0.930 . S
C130 O137 1.259 . S
C130 O138 1.258 . S
N131 Co122 2.057 1_545 S
N131 C132 1.316 . S
N131 C133 1.375 . S
C132 N131 1.316 . S
C132 N134 1.347 . S
C132 H143 0.931 . S
C133 N131 1.375 . S
C133 C135 1.350 . S
C133 H142 0.930 . S
N134 C132 1.347 . S
N134 C135 1.373 . S
C135 C133 1.350 . S
C135 N134 1.373 . S
C135 H149 0.931 . S
C136 O139 1.256 . S
C136 O140 1.255 . S
O137 Co120 2.021 . S
O137 C130 1.259 . S
O138 Co122 2.117 . S
O138 C130 1.258 . S
O139 Co122 2.020 . S
O139 C136 1.256 . S
O140 Co120 2.062 . S
O140 C136 1.255 . S
O141 C121 1.259 . S
O141 Co122 2.021 . S
H142 C133 0.930 . S
H143 C132 0.931 . S
O144 Co120 2.117 . S
O144 C121 1.258 . S
O145 Co120 2.020 . S
O145 C147 1.256 . S
O146 Co122 2.062 . S
O146 C147 1.255 . S
C147 O145 1.256 . S
C147 O146 1.255 . S
H148 C127 0.931 . S
H149 C135 0.931 . S
Co150 N155 2.057 . S
Co150 O167 2.021 . S
Co150 O170 2.062 . S
Co150 O174 2.117 . S
Co150 O175 2.020 . S
C151 O171 1.259 . S
C151 O174 1.258 . S
Co152 N161 2.057 . S
Co152 O168 2.117 . S
Co152 O169 2.020 . S
Co152 O171 2.021 . S
Co152 O176 2.062 . S
C153 N155 1.316 . S
C153 N156 1.347 . S
C153 H158 0.931 . S
C154 N155 1.375 . S
C154 C157 1.350 . S
C154 H159 0.930 . S
N155 Co150 2.057 . S
N155 C153 1.316 . S
N155 C154 1.375 . S
N156 C153 1.347 . S
N156 C157 1.373 . S
C157 C154 1.350 . S
C157 N156 1.373 . S
C157 H178 0.931 . S
H158 C153 0.931 . S
H159 C154 0.930 . S
C160 O167 1.259 1_556 S
C160 O168 1.258 1_556 S
N161 Co152 2.057 . S
N161 C162 1.316 . S
N161 C163 1.375 . S
C162 N161 1.316 . S
C162 N164 1.347 . S
C162 H173 0.931 . S
C163 N161 1.375 . S
C163 C165 1.350 . S
C163 H172 0.930 1_554 S
N164 C162 1.347 . S
N164 C165 1.373 . S
C165 C163 1.350 . S
C165 N164 1.373 . S
C165 H179 0.931 1_554 S
C166 O169 1.256 . S
C166 O170 1.255 . S
O167 Co150 2.021 . S
O167 C160 1.259 1_554 S
O168 Co152 2.117 . S
O168 C160 1.258 1_554 S
O169 Co152 2.020 . S
O169 C166 1.256 . S
O170 Co150 2.062 . S
O170 C166 1.255 . S
O171 C151 1.259 . S
O171 Co152 2.021 . S
H172 C163 0.930 1_556 S
H173 C162 0.931 . S
O174 Co150 2.117 . S
O174 C151 1.258 . S
O175 Co150 2.020 . S
O175 C177 1.256 . S
O176 Co152 2.062 . S
O176 C177 1.255 . S
C177 O175 1.256 . S
C177 O176 1.255 . S
H178 C157 0.931 . S
H179 C165 0.931 1_556 S
Co180 N185 2.057 . S
Co180 O197 2.021 . S
Co180 O200 2.062 . S
Co180 O204 2.117 . S
Co180 O205 2.020 . S
C181 O201 1.259 . S
C181 O204 1.258 . S
Co182 N191 2.057 . S
Co182 O198 2.117 . S
Co182 O199 2.020 . S
Co182 O201 2.021 . S
Co182 O206 2.062 . S
C183 N185 1.316 . S
C183 N186 1.347 . S
C183 H188 0.931 . S
C184 N185 1.375 . S
C184 C187 1.350 . S
C184 H189 0.930 . S
N185 Co180 2.057 . S
N185 C183 1.316 . S
N185 C184 1.375 . S
N186 C183 1.347 . S
N186 C187 1.373 . S
C187 C184 1.350 . S
C187 N186 1.373 . S
C187 H208 0.931 . S
H188 C183 0.931 . S
H189 C184 0.930 . S
C190 O197 1.259 . S
C190 O198 1.258 . S
N191 Co182 2.057 . S
N191 C192 1.316 . S
N191 C193 1.375 . S
C192 N191 1.316 . S
C192 N194 1.347 . S
C192 H203 0.931 . S
C193 N191 1.375 . S
C193 C195 1.350 . S
C193 H202 0.930 . S
N194 C192 1.347 . S
N194 C195 1.373 . S
C195 C193 1.350 . S
C195 N194 1.373 . S
C195 H209 0.931 . S
C196 O199 1.256 . S
C196 O200 1.255 . S
O197 Co180 2.021 . S
O197 C190 1.259 . S
O198 Co182 2.117 . S
O198 C190 1.258 . S
O199 Co182 2.020 . S
O199 C196 1.256 . S
O200 Co180 2.062 . S
O200 C196 1.255 . S
O201 C181 1.259 . S
O201 Co182 2.021 . S
H202 C193 0.930 . S
H203 C192 0.931 . S
O204 Co180 2.117 . S
O204 C181 1.258 . S
O205 Co180 2.020 . S
O205 C207 1.256 . S
O206 Co182 2.062 . S
O206 C207 1.255 . S
C207 O205 1.256 . S
C207 O206 1.255 . S
H208 C187 0.931 . S
H209 C195 0.931 . S
Co210 N215 2.057 . S
Co210 O227 2.021 . S
Co210 O230 2.062 1_455 S
Co210 O234 2.115 1_455 S
Co210 O235 2.020 . S
C211 O231 1.259 . S
C211 O234 1.260 . S
Co212 N221 2.057 . S
Co212 O228 2.117 . S
Co212 O229 2.020 . S
Co212 O231 2.021 . S
Co212 O236 2.062 . S
C213 N215 1.316 . S
C213 N216 1.347 . S
C213 H218 0.931 . S
C214 N215 1.375 . S
C214 C217 1.350 . S
C214 H219 0.930 . S
N215 Co210 2.057 . S
N215 C213 1.316 . S
N215 C214 1.375 . S
N216 C213 1.347 . S
N216 C217 1.373 . S
C217 C214 1.350 . S
C217 N216 1.373 . S
C217 H238 0.931 . S
H218 C213 0.931 . S
H219 C214 0.930 . S
C220 O227 1.259 1_655 S
C220 O228 1.258 . S
N221 Co212 2.057 . S
N221 C222 1.316 . S
N221 C223 1.375 . S
C222 N221 1.316 . S
C222 N224 1.347 . S
C222 H233 0.931 . S
C223 N221 1.375 . S
C223 C225 1.350 . S
C223 H232 0.930 . S
N224 C222 1.347 . S
N224 C225 1.373 . S
C225 C223 1.350 . S
C225 N224 1.373 . S
C225 H239 0.931 . S
C226 O229 1.256 . S
C226 O230 1.255 . S
O227 Co210 2.021 . S
O227 C220 1.259 1_455 S
O228 Co212 2.117 . S
O228 C220 1.258 . S
O229 Co212 2.020 . S
O229 C226 1.256 . S
O230 Co210 2.062 1_655 S
O230 C226 1.255 . S
O231 C211 1.259 . S
O231 Co212 2.021 . S
H232 C223 0.930 . S
H233 C222 0.931 . S
O234 Co210 2.115 1_655 S
O234 C211 1.260 . S
O235 Co210 2.020 . S
O235 C237 1.256 1_455 S
O236 Co212 2.062 . S
O236 C237 1.255 . S
C237 O235 1.256 1_655 S
C237 O236 1.255 . S
H238 C217 0.931 . S
H239 C225 0.931 . S
Co240 N245 2.057 . S
Co240 O257 2.021 . S
Co240 O260 2.062 . S
Co240 O264 2.117 . S
Co240 O265 2.020 . S
C241 O261 1.259 . S
C241 O264 1.258 . S
Co242 N251 2.057 . S
Co242 O258 2.117 . S
Co242 O259 2.020 . S
Co242 O261 2.021 1_455 S
Co242 O266 2.062 1_455 S
C243 N245 1.316 . S
C243 N246 1.347 . S
C243 H248 0.931 . S
C244 N245 1.375 . S
C244 C247 1.350 . S
C244 H249 0.930 . S
N245 Co240 2.057 . S
N245 C243 1.316 . S
N245 C244 1.375 . S
N246 C243 1.347 . S
N246 C247 1.373 . S
C247 C244 1.350 . S
C247 N246 1.373 . S
C247 H268 0.931 . S
H248 C243 0.931 . S
H249 C244 0.930 . S
C250 O257 1.259 . S
C250 O258 1.258 1_655 S
N251 Co242 2.057 . S
N251 C252 1.316 . S
N251 C253 1.375 . S
C252 N251 1.316 . S
C252 N254 1.347 . S
C252 H263 0.931 . S
C253 N251 1.375 . S
C253 C255 1.350 . S
C253 H262 0.930 . S
N254 C252 1.347 . S
N254 C255 1.373 . S
C255 C253 1.350 . S
C255 N254 1.373 . S
C255 H269 0.931 . S
C256 O259 1.256 1_655 S
C256 O260 1.255 . S
O257 Co240 2.021 . S
O257 C250 1.259 . S
O258 Co242 2.117 . S
O258 C250 1.258 1_455 S
O259 Co242 2.020 . S
O259 C256 1.256 1_455 S
O260 Co240 2.062 . S
O260 C256 1.255 . S
O261 C241 1.259 . S
O261 Co242 2.021 1_655 S
H262 C253 0.930 . S
H263 C252 0.931 . S
O264 Co240 2.117 . S
O264 C241 1.258 . S
O265 Co240 2.020 . S
O265 C267 1.256 . S
O266 Co242 2.062 1_655 S
O266 C267 1.255 . S
C267 O265 1.256 . S
C267 O266 1.255 . S
H268 C247 0.931 . S
H269 C255 0.931 . S
C270 C271 1.387 . S
C270 H274 0.950 . S
C270 C279 1.390 . S
C271 C270 1.387 . S
C271 C273 1.387 . S
H272 C279 0.950 . S
C273 C271 1.387 . S
C273 C275 1.390 . S
C273 H277 0.950 . S
H274 C270 0.950 . S
C275 C273 1.390 . S
C275 C276 1.387 . S
C275 H278 0.950 . S
C276 C275 1.387 . S
C276 C279 1.387 . S
H277 C273 0.950 . S
H278 C275 0.950 . S
C279 C270 1.390 . S
C279 H272 0.950 . S
C279 C276 1.387 . S
C280 C281 1.387 . S
C280 H284 0.950 . S
C280 C289 1.390 . S
C281 C280 1.387 . S
C281 C283 1.387 . S
H282 C289 0.950 . S
C283 C281 1.387 . S
C283 C285 1.390 . S
C283 H287 0.950 . S
H284 C280 0.950 . S
C285 C283 1.390 . S
C285 C286 1.387 . S
C285 H288 0.950 . S
C286 C285 1.387 . S
C286 C289 1.387 . S
H287 C283 0.950 . S
H288 C285 0.950 . S
C289 C280 1.390 . S
C289 H282 0.950 . S
C289 C286 1.387 . S
C290 C291 1.387 . S
C290 H294 0.950 . S
C290 C299 1.390 . S
C291 C290 1.387 . S
C291 C293 1.387 . S
H292 C299 0.950 . S
C293 C291 1.387 . S
C293 C295 1.390 . S
C293 H297 0.950 . S
H294 C290 0.950 . S
C295 C293 1.390 . S
C295 C296 1.387 . S
C295 H298 0.950 . S
C296 C295 1.387 . S
C296 C299 1.387 . S
H297 C293 0.950 . S
H298 C295 0.950 . S
C299 C290 1.390 . S
C299 H292 0.950 . S
C299 C296 1.387 . S
C300 C301 1.387 . S
C300 H304 0.950 . S
C300 C309 1.390 1_556 S
C301 C300 1.387 . S
C301 C303 1.387 . S
H302 C309 0.950 . S
C303 C301 1.387 . S
C303 C305 1.390 . S
C303 H307 0.950 . S
H304 C300 0.950 . S
C305 C303 1.390 . S
C305 C306 1.387 1_556 S
C305 H308 0.950 1_556 S
C306 C305 1.387 1_554 S
C306 C309 1.387 . S
H307 C303 0.950 . S
H308 C305 0.950 1_554 S
C309 C300 1.390 1_554 S
C309 H302 0.950 . S
C309 C306 1.387 . S
C310 C311 1.387 . S
C310 H314 0.950 . S
C310 C319 1.390 . S
C311 C310 1.387 . S
C311 C313 1.387 . S
H312 C319 0.950 . S
C313 C311 1.387 . S
C313 C315 1.390 . S
C313 H317 0.950 . S
H314 C310 0.950 . S
C315 C313 1.390 . S
C315 C316 1.387 . S
C315 H318 0.950 . S
C316 C315 1.387 . S
C316 C319 1.387 . S
H317 C313 0.950 . S
H318 C315 0.950 . S
C319 C310 1.390 . S
C319 H312 0.950 . S
C319 C316 1.387 . S
C320 C321 1.387 . S
C320 H324 0.950 . S
C320 C329 1.390 . S
C321 C320 1.387 . S
C321 C323 1.387 . S
H322 C329 0.950 . S
C323 C321 1.387 . S
C323 C325 1.390 . S
C323 H327 0.950 . S
H324 C320 0.950 . S
C325 C323 1.390 . S
C325 C326 1.387 . S
C325 H328 0.950 . S
C326 C325 1.387 . S
C326 C329 1.387 . S
H327 C323 0.950 . S
H328 C325 0.950 . S
C329 C320 1.390 . S
C329 H322 0.950 . S
C329 C326 1.387 . S
C330 C331 1.387 . S
C330 H334 0.950 . S
C330 C339 1.390 . S
C331 C330 1.387 . S
C331 C333 1.387 . S
H332 C339 0.950 . S
C333 C331 1.387 . S
C333 C335 1.390 . S
C333 H337 0.950 . S
H334 C330 0.950 . S
C335 C333 1.390 . S
C335 C336 1.387 . S
C335 H338 0.950 . S
C336 C335 1.387 . S
C336 C339 1.387 . S
H337 C333 0.950 . S
H338 C335 0.950 . S
C339 C330 1.390 . S
C339 H332 0.950 . S
C339 C336 1.387 . S
C340 C341 1.387 . S
C340 H344 0.950 . S
C340 C349 1.390 . S
C341 C340 1.387 . S
C341 C343 1.387 . S
H342 C349 0.950 . S
C343 C341 1.387 . S
C343 C345 1.390 . S
C343 H347 0.950 . S
H344 C340 0.950 . S
C345 C343 1.390 . S
C345 C346 1.387 . S
C345 H348 0.950 1_655 S
C346 C345 1.387 . S
C346 C349 1.387 . S
H347 C343 0.950 . S
H348 C345 0.950 1_455 S
C349 C340 1.390 . S
C349 H342 0.950 . S
C349 C346 1.387 . S
C350 C351 1.387 . S
C350 H354 0.950 . S
C350 C359 1.390 . S
C351 C350 1.387 . S
C351 C353 1.387 . S
H352 C359 0.950 . S
C353 C351 1.387 . S
C353 C355 1.390 . S
C353 H357 0.975 . S
H354 C350 0.950 . S
C355 C353 1.390 . S
C355 C356 1.387 . S
C355 H358 0.950 1_655 S
C356 C355 1.387 . S
C356 C359 1.387 . S
H357 C353 0.975 . S
H358 C355 0.950 1_455 S
C359 C350 1.390 . S
C359 H352 0.950 . S
C359 C356 1.387 . S
C360 C361 1.387 . S
C360 H364 0.950 . S
C360 C369 1.390 . S
C361 C360 1.387 . S
C361 C363 1.387 . S
H362 C369 0.950 . S
C363 C361 1.387 . S
C363 C365 1.390 . S
C363 H367 0.950 . S
H364 C360 0.950 . S
C365 C363 1.390 . S
C365 C366 1.387 . S
C365 H368 0.950 . S
C366 C365 1.387 . S
C366 C369 1.387 . S
H367 C363 0.950 . S
H368 C365 0.950 . S
C369 C360 1.390 . S
C369 H362 0.950 . S
C369 C366 1.387 . S
C370 C371 1.387 . S
C370 H374 0.950 . S
C370 C379 1.390 . S
C371 C370 1.387 . S
C371 C373 1.387 . S
H372 C379 0.950 . S
C373 C371 1.387 . S
C373 C375 1.390 . S
C373 H377 0.950 . S
H374 C370 0.950 . S
C375 C373 1.390 . S
C375 C376 1.387 . S
C375 H378 0.950 . S
C376 C375 1.387 . S
C376 C379 1.387 . S
H377 C373 0.950 . S
H378 C375 0.950 . S
C379 C370 1.390 . S
C379 H372 0.950 . S
C379 C376 1.387 . S
C380 C381 1.387 . S
C380 H384 0.950 . S
C380 C389 1.390 . S
C381 C380 1.387 . S
C381 C383 1.387 . S
H382 C389 0.950 . S
C383 C381 1.387 . S
C383 C385 1.390 . S
C383 H387 0.950 . S
H384 C380 0.950 . S
C385 C383 1.390 . S
C385 C386 1.387 . S
C385 H388 0.950 . S
C386 C385 1.387 . S
C386 C389 1.387 . S
H387 C383 0.950 . S
H388 C385 0.950 . S
C389 C380 1.390 . S
C389 H382 0.950 . S
C389 C386 1.387 . S
C390 C391 1.387 1_556 S
C390 H394 0.950 . S
C390 C399 1.390 . S
C391 C390 1.387 1_554 S
C391 C393 1.387 . S
H392 C399 0.950 . S
C393 C391 1.387 . S
C393 C395 1.390 . S
C393 H397 0.950 . S
H394 C390 0.950 . S
C395 C393 1.390 . S
C395 C396 1.387 1_554 S
C395 H398 0.950 . S
C396 C395 1.387 1_556 S
C396 C399 1.387 . S
H397 C393 0.950 . S
H398 C395 0.950 . S
C399 C390 1.390 . S
C399 H392 0.950 . S
C399 C396 1.387 . S
C400 C401 1.387 . S
C400 H404 0.950 1_655 S
C400 C409 1.390 . S
C401 C400 1.387 . S
C401 C403 1.387 . S
H402 C409 0.950 1_455 S
C403 C401 1.387 . S
C403 C405 1.390 . S
C403 H407 0.950 . S
H404 C400 0.950 1_455 S
C405 C403 1.390 . S
C405 C406 1.387 . S
C405 H408 0.950 1_556 S
C406 C405 1.387 . S
C406 C409 1.387 . S
H407 C403 0.950 . S
H408 C405 0.950 1_554 S
C409 C400 1.390 . S
C409 H402 0.950 1_655 S
C409 C406 1.387 . S
C410 C411 1.387 . S
C410 H414 0.950 . S
C410 C419 1.390 . S
C411 C410 1.387 . S
C411 C413 1.387 . S
H412 C419 0.950 . S
C413 C411 1.387 . S
C413 C415 1.390 1_556 S
C413 H417 0.950 . S
H414 C410 0.950 . S
C415 C413 1.390 1_554 S
C415 C416 1.387 . S
C415 H418 0.950 . S
C416 C415 1.387 . S
C416 C419 1.387 1_554 S
H417 C413 0.950 . S
H418 C415 0.950 . S
C419 C410 1.390 . S
C419 H412 0.950 . S
C419 C416 1.387 1_556 S
C420 C421 1.387 1_455 S
C420 H424 0.950 . S
C420 C429 1.390 . S
C421 C420 1.387 1_655 S
C421 C423 1.387 . S
H422 C429 0.950 . S
C423 C421 1.387 . S
C423 C425 1.390 1_656 S
C423 H427 0.950 1_556 S
H424 C420 0.950 . S
C425 C423 1.390 1_454 S
C425 C426 1.387 1_554 S
C425 H428 0.950 . S
C426 C425 1.387 1_556 S
C426 C429 1.387 . S
H427 C423 0.950 1_554 S
H428 C425 0.950 . S
C429 C420 1.390 . S
C429 H422 0.950 . S
C429 C426 1.387 . S
C430 C431 1.387 1_556 S
C430 H434 0.950 1_556 S
C430 C439 1.390 . S
C431 C430 1.387 1_554 S
C431 C433 1.387 1_554 S
H432 C439 0.950 . S
C433 C431 1.387 1_556 S
C433 C435 1.390 . S
C433 H437 0.950 . S
H434 C430 0.950 1_554 S
C435 C433 1.390 . S
C435 C436 1.387 . S
C435 H438 0.950 . S
C436 C435 1.387 . S
C436 C439 1.387 . S
H437 C433 0.950 . S
H438 C435 0.950 . S
C439 C430 1.390 . S
C439 H432 0.950 . S
C439 C436 1.387 . S
C440 C441 1.387 1_554 S
C440 H444 0.950 . S
C440 C449 1.390 . S
C441 C440 1.387 1_556 S
C441 C443 1.387 . S
H442 C449 0.950 . S
C443 C441 1.387 . S
C443 C445 1.390 1_556 S
C443 H447 0.950 . S
H444 C440 0.950 . S
C445 C443 1.390 1_554 S
C445 C446 1.387 . S
C445 H448 0.950 . S
C446 C445 1.387 . S
C446 C449 1.387 . S
H447 C443 0.950 . S
H448 C445 0.950 . S
C449 C440 1.390 . S
C449 H442 0.950 . S
C449 C446 1.387 . S
C450 C451 1.387 . S
C450 H454 0.950 . S
C450 C459 1.390 . S
C451 C450 1.387 . S
C451 C453 1.387 . S
H452 C459 0.950 . S
C453 C451 1.387 . S
C453 C455 1.390 . S
C453 H457 0.950 . S
H454 C450 0.950 . S
C455 C453 1.390 . S
C455 C456 1.387 . S
C455 H458 0.950 . S
C456 C455 1.387 . S
C456 C459 1.387 . S
H457 C453 0.950 . S
H458 C455 0.950 . S
C459 C450 1.390 . S
C459 H452 0.950 . S
C459 C456 1.387 . S
C460 C461 1.387 . S
C460 H464 0.950 . S
C460 C469 1.390 . S
C461 C460 1.387 . S
C461 C463 1.387 . S
H462 C469 0.950 . S
C463 C461 1.387 . S
C463 C465 1.390 . S
C463 H467 0.950 . S
H464 C460 0.950 . S
C465 C463 1.390 . S
C465 C466 1.387 . S
C465 H468 0.950 1_554 S
C466 C465 1.387 . S
C466 C469 1.387 . S
H467 C463 0.950 . S
H468 C465 0.950 1_556 S
C469 C460 1.390 . S
C469 H462 0.950 . S
C469 C466 1.387 . S
C470 C471 1.387 . S
C470 H474 0.950 1_554 S
C470 C479 1.390 . S
C471 C470 1.387 . S
C471 C473 1.387 . S
H472 C479 0.950 1_556 S
C473 C471 1.387 . S
C473 C475 1.390 . S
C473 H477 0.950 . S
H474 C470 0.950 1_556 S
C475 C473 1.390 . S
C475 C476 1.387 . S
C475 H478 0.950 . S
C476 C475 1.387 . S
C476 C479 1.387 . S
H477 C473 0.950 . S
H478 C475 0.950 . S
C479 C470 1.390 . S
C479 H472 0.950 1_554 S
C479 C476 1.387 . S
C480 C481 1.387 . S
C480 H484 0.950 . S
C480 C489 1.390 . S
C481 C480 1.387 . S
C481 C483 1.387 . S
H482 C489 0.950 . S
C483 C481 1.387 . S
C483 C485 1.390 . S
C483 H487 0.950 . S
H484 C480 0.950 . S
C485 C483 1.390 . S
C485 C486 1.387 . S
C485 H488 0.950 . S
C486 C485 1.387 . S
C486 C489 1.387 . S
H487 C483 0.950 . S
H488 C485 0.950 . S
C489 C480 1.390 . S
C489 H482 0.950 . S
C489 C486 1.387 . S
C490 C491 1.387 . S
C490 H494 0.950 . S
C490 C499 1.390 . S
C491 C490 1.387 . S
C491 C493 1.387 . S
H492 C499 0.950 . S
C493 C491 1.387 . S
C493 C495 1.390 . S
C493 H497 0.950 . S
H494 C490 0.950 . S
C495 C493 1.390 . S
C495 C496 1.387 . S
C495 H498 0.950 . S
C496 C495 1.387 . S
C496 C499 1.387 . S
H497 C493 0.950 . S
H498 C495 0.950 . S
C499 C490 1.390 . S
C499 H492 0.950 . S
C499 C496 1.387 . S
C500 C501 1.387 . S
C500 H504 0.950 . S
C500 C509 1.390 . S
C501 C500 1.387 . S
C501 C503 1.387 . S
H502 C509 0.950 . S
C503 C501 1.387 . S
C503 C505 1.390 . S
C503 H507 0.950 . S
H504 C500 0.950 . S
C505 C503 1.390 . S
C505 C506 1.387 . S
C505 H508 0.950 . S
C506 C505 1.387 . S
C506 C509 1.387 . S
H507 C503 0.950 . S
H508 C505 0.950 . S
C509 C500 1.390 . S
C509 H502 0.950 . S
C509 C506 1.387 . S
C510 C511 1.387 . S
C510 H514 0.950 . S
C510 C519 1.390 . S
C511 C510 1.387 . S
C511 C513 1.387 . S
H512 C519 0.950 . S
C513 C511 1.387 . S
C513 C515 1.390 . S
C513 H517 0.950 . S
H514 C510 0.950 . S
C515 C513 1.390 . S
C515 C516 1.387 . S
C515 H518 0.950 . S
C516 C515 1.387 . S
C516 C519 1.387 . S
H517 C513 0.950 . S
H518 C515 0.950 . S
C519 C510 1.390 . S
C519 H512 0.950 . S
C519 C516 1.387 . S
C520 C521 1.387 . S
C520 H524 0.950 . S
C520 C529 1.390 . S
C521 C520 1.387 . S
C521 C523 1.387 . S
H522 C529 0.950 . S
C523 C521 1.387 . S
C523 C525 1.390 . S
C523 H527 0.950 . S
H524 C520 0.950 . S
C525 C523 1.390 . S
C525 C526 1.387 . S
C525 H528 0.950 . S
C526 C525 1.387 . S
C526 C529 1.387 . S
H527 C523 0.950 . S
H528 C525 0.950 . S
C529 C520 1.390 . S
C529 H522 0.950 . S
C529 C526 1.387 . S
C530 C531 1.387 . S
C530 H534 0.950 . S
C530 C539 1.390 . S
C531 C530 1.387 . S
C531 C533 1.387 . S
H532 C539 0.950 . S
C533 C531 1.387 . S
C533 C535 1.390 . S
C533 H537 0.950 . S
H534 C530 0.950 . S
C535 C533 1.390 . S
C535 C536 1.387 . S
C535 H538 0.950 . S
C536 C535 1.387 . S
C536 C539 1.387 . S
H537 C533 0.950 . S
H538 C535 0.950 . S
C539 C530 1.390 . S
C539 H532 0.950 . S
C539 C536 1.387 . S
C271 C10 1.272 . S
C276 C1 1.272 . S
C281 C31 1.287 . S
C286 C40 1.287 . S
C291 C70 1.314 . S
C296 C61 1.314 . S
C301 C91 1.271 . S
C306 C100 1.271 . S
C311 C130 1.285 . S
C316 C121 1.285 1_556 S
C321 C151 1.316 . S
C326 C160 1.316 . S
C331 C207 1.318 . S
C336 C196 1.318 1_554 S
C341 C226 1.263 . S
C346 C237 1.263 1_554 S
C351 C267 1.220 . S
C356 C256 1.220 1_554 S
C361 N164 1.512 . S
C366 C27 1.591 . S
C371 N44 1.201 . S
C376 N104 1.193 . S
C381 C87 1.952 1_565 S
C386 C147 2.011 . S
C391 N74 0.962 . S
C396 N186 1.021 . S
C401 C211 1.739 . S
C406 N14 1.589 . S
C411 N246 1.496 . S
C416 C57 1.466 . S
C421 C250 2.075 . S
C426 C16 2.008 . S
C431 N36 1.067 . S
C436 C190 1.183 . S
C441 N224 1.264 . S
C446 C76 1.316 . S
C451 N66 1.509 . S
C456 C106 1.590 . S
C461 N126 1.201 . S
C466 N6 1.193 . S
C471 C46 2.010 . S
C476 C166 1.949 . S
C481 C241 2.075 . S
C486 C117 2.010 . S
C491 C181 1.187 . S
C496 N134 1.074 . S
C501 N216 1.265 . S
C506 C177 1.314 . S
C511 N194 1.027 . S
C516 N156 0.967 . S
C521 N96 1.590 . S
C526 C220 1.740 . S
C531 N254 1.496 . S
C536 C136 1.466 . S
