# Generated by pormake.
# Topology wkj, (6)-cn, num edge types: 1
# Building blocks:
#     Node 0, Type 0, BuildingBlock: UKALOJ_clean_sbu_0, # of connection points: 6
#     Node 1, Type 0, BuildingBlock: UKALOJ_clean_sbu_0, # of connection points: 6
#     Node 2, Type 0, BuildingBlock: UKALOJ_clean_sbu_0, # of connection points: 6
#     Node 3, Type 0, BuildingBlock: UKALOJ_clean_sbu_0, # of connection points: 6
#     Node 4, Type 0, BuildingBlock: UKALOJ_clean_sbu_0, # of connection points: 6
#     Node 5, Type 0, BuildingBlock: UKALOJ_clean_sbu_0, # of connection points: 6
#     Node 6, Type 0, BuildingBlock: UKALOJ_clean_sbu_0, # of connection points: 6
#     Node 7, Type 0, BuildingBlock: UKALOJ_clean_sbu_0, # of connection points: 6
#     Node 8, Type 0, BuildingBlock: UKALOJ_clean_sbu_0, # of connection points: 6
#     Node 9, Type 0, BuildingBlock: UKALOJ_clean_sbu_0, # of connection points: 6
#     Node 10, Type 0, BuildingBlock: UKALOJ_clean_sbu_0, # of connection points: 6
#     Node 11, Type 0, BuildingBlock: UKALOJ_clean_sbu_0, # of connection points: 6
#     Edge 12, Type (0, 0), BuildingBlock: CIFDUS_clean_linker_0, # of connection points: 2
#     Edge 13, Type (0, 0), BuildingBlock: CIFDUS_clean_linker_0, # of connection points: 2
#     Edge 14, Type (0, 0), BuildingBlock: CIFDUS_clean_linker_0, # of connection points: 2
#     Edge 15, Type (0, 0), BuildingBlock: CIFDUS_clean_linker_0, # of connection points: 2
#     Edge 16, Type (0, 0), BuildingBlock: CIFDUS_clean_linker_0, # of connection points: 2
#     Edge 17, Type (0, 0), BuildingBlock: CIFDUS_clean_linker_0, # of connection points: 2
#     Edge 18, Type (0, 0), BuildingBlock: CIFDUS_clean_linker_0, # of connection points: 2
#     Edge 19, Type (0, 0), BuildingBlock: CIFDUS_clean_linker_0, # of connection points: 2
#     Edge 20, Type (0, 0), BuildingBlock: CIFDUS_clean_linker_0, # of connection points: 2
#     Edge 21, Type (0, 0), BuildingBlock: CIFDUS_clean_linker_0, # of connection points: 2
#     Edge 22, Type (0, 0), BuildingBlock: CIFDUS_clean_linker_0, # of connection points: 2
#     Edge 23, Type (0, 0), BuildingBlock: CIFDUS_clean_linker_0, # of connection points: 2
#     Edge 24, Type (0, 0), BuildingBlock: CIFDUS_clean_linker_0, # of connection points: 2
#     Edge 25, Type (0, 0), BuildingBlock: CIFDUS_clean_linker_0, # of connection points: 2
#     Edge 26, Type (0, 0), BuildingBlock: CIFDUS_clean_linker_0, # of connection points: 2
#     Edge 27, Type (0, 0), BuildingBlock: CIFDUS_clean_linker_0, # of connection points: 2
#     Edge 28, Type (0, 0), BuildingBlock: CIFDUS_clean_linker_0, # of connection points: 2
#     Edge 29, Type (0, 0), BuildingBlock: CIFDUS_clean_linker_0, # of connection points: 2
#     Edge 30, Type (0, 0), BuildingBlock: CIFDUS_clean_linker_0, # of connection points: 2
#     Edge 31, Type (0, 0), BuildingBlock: CIFDUS_clean_linker_0, # of connection points: 2
#     Edge 32, Type (0, 0), BuildingBlock: CIFDUS_clean_linker_0, # of connection points: 2
#     Edge 33, Type (0, 0), BuildingBlock: CIFDUS_clean_linker_0, # of connection points: 2
#     Edge 34, Type (0, 0), BuildingBlock: CIFDUS_clean_linker_0, # of connection points: 2
#     Edge 35, Type (0, 0), BuildingBlock: CIFDUS_clean_linker_0, # of connection points: 2
#     Edge 36, Type (0, 0), BuildingBlock: CIFDUS_clean_linker_0, # of connection points: 2
#     Edge 37, Type (0, 0), BuildingBlock: CIFDUS_clean_linker_0, # of connection points: 2
#     Edge 38, Type (0, 0), BuildingBlock: CIFDUS_clean_linker_0, # of connection points: 2
#     Edge 39, Type (0, 0), BuildingBlock: CIFDUS_clean_linker_0, # of connection points: 2
#     Edge 40, Type (0, 0), BuildingBlock: CIFDUS_clean_linker_0, # of connection points: 2
#     Edge 41, Type (0, 0), BuildingBlock: CIFDUS_clean_linker_0, # of connection points: 2
#     Edge 42, Type (0, 0), BuildingBlock: CIFDUS_clean_linker_0, # of connection points: 2
#     Edge 43, Type (0, 0), BuildingBlock: CIFDUS_clean_linker_0, # of connection points: 2
#     Edge 44, Type (0, 0), BuildingBlock: CIFDUS_clean_linker_0, # of connection points: 2
#     Edge 45, Type (0, 0), BuildingBlock: CIFDUS_clean_linker_0, # of connection points: 2
#     Edge 46, Type (0, 0), BuildingBlock: CIFDUS_clean_linker_0, # of connection points: 2
#     Edge 47, Type (0, 0), BuildingBlock: CIFDUS_clean_linker_0, # of connection points: 2
# Relax obj value: 0.939
# Max RMSD: 0.240
# Mean RMSD: 0.240
data_MOF--net-wkj--node1-UKALOJ_clean_sbu_0--edge1-CIFDUS_clean_linker_0
_symmetry_space_group_name_H-M    P1
_symmetry_Int_Tables_number       1
_symmetry_cell_setting            triclinic
loop_
_symmetry_equiv_pos_as_xyz
'x, y, z'
_cell_length_a     58.006556
_cell_length_b     57.55628
_cell_length_c     19.202458
_cell_angle_alpha  89.785821
_cell_angle_beta   90.319358
_cell_angle_gamma 119.8379
loop_
_atom_site_label
_atom_site_type_symbol
_atom_site_fract_x
_atom_site_fract_y
_atom_site_fract_z
_atom_type_partial_charge
Zn0 Zn 0.48682 0.0665 0.28076 0.0
O1 O 0.45398 0.05797 0.33844 0.0
C2 C 0.52771 0.11145 0.37602 0.0
Zn3 Zn 0.49104 0.10725 0.2619 0.0
C4 C 0.44696 0.07397 0.36115 0.0
O5 O 0.46044 0.09857 0.34334 0.0
C6 C 0.52819 0.09498 0.17298 0.0
O7 O 0.45903 0.08451 0.1843 0.0
O8 O 0.45982 0.04684 0.20229 0.0
N9 N 0.49306 0.14505 0.24291 0.0
C10 C 0.48935 0.15909 0.19092 0.0
C11 C 0.4996 0.18323 0.28185 0.0
N12 N 0.49937 0.16042 0.29887 0.0
N13 N 0.49334 0.18334 0.21419 0.0
C14 C 0.48541 0.02788 0.3951 0.0
C15 C 0.49215 0.99943 0.34301 0.0
N16 N 0.48471 0.03215 0.32562 0.0
N17 N 0.48836 1.01399 0.29345 0.0
N18 N 0.49086 1.00782 0.40806 0.0
H19 H 0.46778 0.03068 0.49108 0.0
H20 H 0.50137 0.05802 0.47536 0.0
H21 H 0.47492 0.05756 0.43438 0.0
C22 C 0.48195 0.04421 0.45128 0.0
C23 C 0.48308 0.14925 0.11751 0.0
H24 H 0.48926 0.13413 0.1078 0.0
H25 H 0.46131 0.13956 0.10895 0.0
H26 H 0.49321 0.16618 0.08041 0.0
O27 O 0.52111 0.11275 0.181 0.0
O28 O 0.51824 0.07436 0.21247 0.0
C29 C 0.45018 0.05958 0.17054 0.0
O30 O 0.51495 0.08684 0.36122 0.0
O31 O 0.52284 0.12739 0.34113 0.0
Zn32 Zn 0.39669 0.47493 0.59185 0.0
O33 O 0.38206 0.44185 0.51459 0.0
C34 C 0.44464 0.50992 0.49165 0.0
Zn35 Zn 0.43284 0.47104 0.60246 0.0
C36 C 0.39687 0.43181 0.50068 0.0
O37 O 0.41933 0.44131 0.53003 0.0
C38 C 0.43556 0.51465 0.69574 0.0
O39 O 0.4101 0.44212 0.67168 0.0
O40 O 0.37492 0.44614 0.6785 0.0
N41 N 0.4609 0.46163 0.63231 0.0
C42 C 0.46827 0.45913 0.69765 0.0
C43 C 0.48689 0.44517 0.62765 0.0
N44 N 0.47189 0.45221 0.58908 0.0
N45 N 0.48528 0.44929 0.69656 0.0
C46 C 0.33908 0.46682 0.55508 0.0
C47 C 0.34705 0.50705 0.56163 0.0
N48 N 0.36514 0.48217 0.57205 0.0
N49 N 0.36985 0.50712 0.576 0.0
N50 N 0.3272 0.48202 0.54802 0.0
H51 H 0.33565 0.42892 0.5821 0.0
H52 H 0.30429 0.42786 0.56616 0.0
H53 H 0.32585 0.43132 0.49471 0.0
C54 C 0.32532 0.43694 0.54963 0.0
C55 C 0.45762 0.46482 0.76325 0.0
H56 H 0.43931 0.46566 0.75671 0.0
H57 H 0.45407 0.44959 0.80369 0.0
H58 H 0.47182 0.48489 0.78295 0.0
O59 O 0.44798 0.50274 0.67744 0.0
O60 O 0.4128 0.50734 0.66889 0.0
C61 C 0.38794 0.43482 0.69884 0.0
O62 O 0.42081 0.50394 0.50736 0.0
O63 O 0.45576 0.49909 0.52578 0.0
Zn64 Zn 0.93915 0.39222 0.91075 0.0
O65 O 0.95405 0.37363 0.83874 0.0
C66 C 0.93596 0.42646 0.79085 0.0
Zn67 Zn 0.97542 0.43244 0.8984 0.0
C68 C 0.97755 0.38902 0.81705 0.0
O69 O 0.98937 0.41341 0.83424 0.0
C70 C 0.9387 0.43752 0.99785 0.0
O71 O 0.99254 0.42358 0.98429 0.0
O72 O 0.95915 0.38291 0.9995 0.0
N73 N 1.01021 0.46618 0.87542 0.0
C74 C 0.03523 0.47433 0.89608 0.0
C75 C 0.03678 0.50451 0.83142 0.0
N76 N 1.01146 0.48441 0.83144 0.0
N77 N 0.05221 0.49986 0.87655 0.0
C78 C 0.88878 0.33581 0.87581 0.0
C79 C 0.8681 0.32427 0.97214 0.0
N80 N 0.90335 0.35555 0.92216 0.0
N81 N 0.89032 0.34821 0.9819 0.0
N82 N 0.86655 0.31579 0.90595 0.0
H83 H 0.90774 0.35792 0.78219 0.0
H84 H 0.9074 0.32685 0.79254 0.0
H85 H 0.87734 0.3268 0.76781 0.0
C86 C 0.89561 0.33701 0.80018 0.0
C87 C 0.04433 0.45623 0.92579 0.0
H88 H 0.03268 0.43599 0.90305 0.0
H89 H 0.0657 0.46411 0.91447 0.0
H90 H 0.04171 0.45509 0.98298 0.0
O91 O 0.9608 0.45222 0.96701 0.0
O92 O 0.92594 0.41235 0.9848 0.0
C93 C 0.98257 0.40144 0.0167 0.0
O94 O 0.92177 0.40386 0.82101 0.0
O95 O 0.95918 0.44176 0.81322 0.0
Zn96 Zn 0.56307 0.93222 0.25623 0.0
O97 O 0.59282 0.94683 0.17264 0.0
C98 C 0.52496 0.94118 0.16138 0.0
Zn99 Zn 0.56804 0.97407 0.26134 0.0
C100 C 0.60382 0.97161 0.1556 0.0
O101 O 0.5964 0.98655 0.18444 0.0
C102 C 0.52719 0.93664 0.36557 0.0
O103 O 0.59755 0.98342 0.33523 0.0
O104 O 0.59547 0.94441 0.33546 0.0
N105 N 0.57455 1.01298 0.27019 0.0
C106 C 0.59579 0.03286 0.30306 0.0
C107 C 0.56319 0.03746 0.32782 0.0
N108 N 0.55438 1.01681 0.28292 0.0
N109 N 0.58886 0.04662 0.34727 0.0
C110 C 0.56227 0.87664 0.21088 0.0
C111 C 0.54411 0.8535 0.30152 0.0
N112 N 0.5574 0.89242 0.25424 0.0
N113 N 0.54619 0.87769 0.31031 0.0
N114 N 0.55413 0.85202 0.23963 0.0
H115 H 0.56687 0.89821 0.1158 0.0
H116 H 0.59564 0.89645 0.14341 0.0
H117 H 0.56771 0.8673 0.10567 0.0
C118 C 0.57364 0.885 0.13948 0.0
C119 C 0.62407 0.04055 0.28901 0.0
H120 H 0.62587 0.02389 0.26658 0.0
H121 H 0.63214 0.05703 0.2502 0.0
H122 H 0.63632 0.04852 0.3368 0.0
O123 O 0.53834 0.96036 0.34114 0.0
O124 O 0.53382 0.92015 0.34147 0.0
C125 C 0.60627 0.96857 0.35748 0.0
O126 O 0.53047 0.92279 0.17789 0.0
O127 O 0.53855 0.96434 0.18801 0.0
Zn128 Zn 0.65762 0.56657 0.60635 0.0
O129 O 0.67334 0.59425 0.51544 0.0
C130 C 0.61 0.52971 0.52109 0.0
Zn131 Zn 0.62757 0.57989 0.60825 0.0
C132 C 0.66124 0.60622 0.49244 0.0
O133 O 0.64041 0.60257 0.52237 0.0
C134 C 0.62105 0.54012 0.72577 0.0
O135 O 0.65055 0.61282 0.66486 0.0
O136 O 0.67947 0.5996 0.68364 0.0
N137 N 0.59796 0.58902 0.61386 0.0
C138 C 0.58606 0.58781 0.67442 0.0
C139 C 0.55596 0.57024 0.59891 0.0
N140 N 0.57925 0.57959 0.56552 0.0
N141 N 0.55952 0.57264 0.66885 0.0
C142 C 0.71475 0.57369 0.57902 0.0
C143 C 0.70831 0.53437 0.59584 0.0
N144 N 0.6891 0.55835 0.59903 0.0
N145 N 0.6853 0.53395 0.60964 0.0
N146 N 0.72731 0.55906 0.57591 0.0
H147 H 0.71748 0.61191 0.59687 0.0
H148 H 0.74891 0.61345 0.58096 0.0
H149 H 0.72572 0.60692 0.5105 0.0
C150 C 0.72754 0.60324 0.56648 0.0
C151 C 0.60025 0.60017 0.74155 0.0
H152 H 0.61257 0.62213 0.73402 0.0
H153 H 0.58585 0.59622 0.78401 0.0
H154 H 0.61382 0.59288 0.75744 0.0
O155 O 0.61378 0.55593 0.70077 0.0
O156 O 0.6398 0.5386 0.6954 0.0
C157 C 0.67111 0.61604 0.6959 0.0
O158 O 0.63332 0.53359 0.53367 0.0
O159 O 0.60332 0.54575 0.5472 0.0
Zn160 Zn 0.08233 0.61407 0.9348 0.0
O161 O 0.06496 0.62824 1.00113 0.0
C162 C 0.11886 0.61691 0.04971 0.0
Zn163 Zn 0.1175 0.6545 0.93827 0.0
C164 C 0.07336 0.65144 0.02454 0.0
O165 O 0.09697 0.6695 1.00918 0.0
C166 C 0.1222 0.61389 0.8424 0.0
O167 O 0.10056 0.66447 0.84698 0.0
O168 O 0.0654 0.62429 0.85466 0.0
N169 N 0.15184 0.69252 0.93973 0.0
C170 C 0.16975 0.70916 0.89214 0.0
C171 C 0.1804 0.7295 0.98942 0.0
N172 N 0.15877 0.70535 0.99997 0.0
N173 N 0.18798 0.73265 0.92216 0.0
C174 C 0.03782 0.56903 0.02883 0.0
C175 C 1.00526 0.53092 0.923 0.0
N176 N 0.04924 0.57932 0.94793 0.0
N177 N 0.03146 0.55856 0.89 0.0
N178 N 1.009 0.53805 1.01297 0.0
H179 H 0.03328 0.59415 0.10216 0.0
H180 H 0.0416 0.57053 0.1393 0.0
H181 H 0.0666 0.60013 0.09724 0.0
C182 C 0.04552 0.58445 0.09561 0.0
C183 C 0.1685 0.70276 0.81628 0.0
H184 H 0.14844 0.68647 0.80143 0.0
H185 H 0.17388 0.72087 0.7844 0.0
H186 H 0.18296 0.69597 0.80525 0.0
O187 O 0.13584 0.63804 0.8647 0.0
O188 O 0.09868 0.59942 0.86407 0.0
C189 C 0.07737 0.64701 0.82545 0.0
O190 O 0.09832 0.60166 1.01509 0.0
O191 O 0.13203 0.64167 0.03234 0.0
Zn192 Zn 0.93545 0.56795 0.40423 0.0
O193 O 0.9568 0.59515 0.4926 0.0
C194 C 0.93697 0.52263 0.49203 0.0
Zn195 Zn 0.97186 0.56463 0.39541 0.0
C196 C 0.98043 0.60074 0.50985 0.0
O197 O 0.99182 0.59035 0.47628 0.0
C198 C 0.92902 0.52998 0.28869 0.0
O199 O 0.98502 0.59802 0.33531 0.0
O200 O 0.95028 0.60296 0.33167 0.0
N201 N 1.00496 0.56528 0.35962 0.0
C202 C 1.01074 0.56544 0.29137 0.0
C203 C 0.03219 0.55089 0.34719 0.0
N204 N 1.01936 0.55734 0.39485 0.0
N205 N 1.02579 0.55406 0.28128 0.0
C206 C 0.88397 0.56565 0.4742 0.0
C207 C 0.86809 0.57533 0.38583 0.0
N208 N 0.90057 0.56976 0.42019 0.0
N209 N 0.89049 0.57577 0.36565 0.0
N210 N 0.8632 0.56896 0.45389 0.0
H211 H 0.91057 0.56684 0.55457 0.0
H212 H 0.88241 0.56933 0.58543 0.0
H213 H 0.87809 0.53774 0.55521 0.0
C214 C 0.88913 0.55972 0.54675 0.0
C215 C 1.00045 0.57485 0.23134 0.0
H216 H 1.01371 0.59675 0.22508 0.0
H217 H 1.00081 0.56523 0.18196 0.0
H218 H 0.98002 0.57097 0.23775 0.0
O219 O 0.95166 0.53701 0.31406 0.0
O220 O 0.91583 0.5402 0.31441 0.0
C221 C 0.97423 0.61096 0.31411 0.0
O222 O 0.92298 0.53367 0.47724 0.0
O223 O 0.95941 0.53116 0.46243 0.0
Zn224 Zn 0.42218 0.97389 0.76818 0.0
O225 O 0.41011 0.99007 0.69285 0.0
C226 C 0.4319 0.94281 0.65676 0.0
Zn227 Zn 0.38713 0.93345 0.7563 0.0
C228 C 0.38795 0.97731 0.66244 0.0
O229 O 0.37242 0.95267 0.67876 0.0
C230 C 0.42558 0.93362 0.86201 0.0
O231 O 0.36849 0.94208 0.84565 0.0
O232 O 0.40176 0.98278 0.83814 0.0
N233 N 0.35317 0.89551 0.74206 0.0
C234 C 0.33521 0.87722 0.7868 0.0
C235 C 0.3245 0.86046 0.68522 0.0
N236 N 0.34631 0.8849 0.67905 0.0
N237 N 0.31688 0.85503 0.75232 0.0
C238 C 0.47342 0.02731 0.75649 0.0
C239 C 0.48167 0.0388 0.862 0.0
N240 N 0.45184 1.0108 0.79258 0.0
N241 N 0.45625 1.01904 0.85795 0.0
N242 N 0.4939 0.04271 0.7998 0.0
H243 H 0.45675 1.01677 0.65272 0.0
H244 H 0.4904 0.04438 0.65737 0.0
H245 H 0.48368 1.01059 0.67039 0.0
C246 C 0.4761 0.02457 0.67974 0.0
C247 C 0.33668 0.88047 0.86432 0.0
H248 H 0.35745 0.89367 0.88165 0.0
H249 H 0.32472 0.88976 0.88004 0.0
H250 H 0.32853 0.86075 0.89062 0.0
O251 O 0.40459 0.91675 0.8296 0.0
O252 O 0.4357 0.95832 0.84798 0.0
C253 C 0.38044 0.96624 0.86708 0.0
O254 O 0.44418 0.96445 0.69199 0.0
O255 O 0.40748 0.92649 0.67037 0.0
Zn256 Zn 0.48422 0.38986 0.10802 0.0
O257 O 0.45298 0.36777 0.18553 0.0
C258 C 0.51893 0.42786 0.22456 0.0
Zn259 Zn 0.47983 0.42654 0.12229 0.0
C260 C 0.44172 0.38016 0.20976 0.0
O261 O 0.44974 0.40393 0.19055 0.0
C262 C 0.52279 0.4385 0.01804 0.0
O263 O 0.45371 0.41427 0.03936 0.0
O264 O 0.45373 0.37672 0.02182 0.0
N265 N 0.47041 0.45617 0.13987 0.0
C266 C 0.44629 0.45451 0.13697 0.0
C267 C 0.47492 0.49543 0.14767 0.0
N268 N 0.48816 0.48169 0.14897 0.0
N269 N 0.44842 0.47891 0.13862 0.0
C270 C 0.49262 0.33929 0.14017 0.0
C271 C 0.48723 0.32142 0.04037 0.0
N272 N 0.48872 0.3552 0.09454 0.0
N273 N 0.48537 0.34381 0.03269 0.0
N274 N 0.49181 0.31784 0.10748 0.0
H275 H 0.48619 0.35585 0.23388 0.0
H276 H 0.48622 0.32469 0.24588 0.0
H277 H 0.51686 0.3555 0.23085 0.0
C278 C 0.49543 0.34399 0.2172 0.0
C279 C 0.41979 0.42917 0.1354 0.0
H280 H 0.42068 0.41154 0.1173 0.0
H281 H 0.41181 0.42529 0.18909 0.0
H282 H 0.40524 0.43154 0.10289 0.0
O283 O 0.5118 0.44976 0.0507 0.0
O284 O 0.51521 0.41382 0.03098 0.0
C285 C 0.44508 0.39271 1.00572 0.0
O286 O 0.51474 0.40649 0.19293 0.0
O287 O 0.50636 0.4396 0.20528 0.0
Zn288 Zn 0.11462 0.47287 0.44037 0.0
O289 O 0.10158 0.44055 0.51782 0.0
C290 C 0.11559 0.51334 0.55441 0.0
Zn291 Zn 0.07767 0.4751 0.45921 0.0
C292 C 0.07994 0.43429 0.54907 0.0
O293 O 0.06784 0.44686 0.5353 0.0
C294 C 0.11063 0.514 0.34576 0.0
O295 O 0.06274 0.44468 0.38484 0.0
O296 O 0.09754 0.44234 0.35434 0.0
N297 N 0.03899 0.46703 0.46704 0.0
C298 C 0.03216 0.4739 0.40731 0.0
C299 C 1.00833 0.4316 0.41493 0.0
N300 N 1.02269 0.44084 0.47411 0.0
N301 N 1.01454 0.45212 0.37132 0.0
C302 C 0.17017 0.47766 0.48081 0.0
C303 C 0.18358 0.47174 0.3831 0.0
N304 N 0.15166 0.4746 0.43267 0.0
N305 N 0.16016 0.4709 0.37212 0.0
N306 N 0.19053 0.47601 0.45099 0.0
H307 H 0.14615 0.47139 0.57202 0.0
H308 H 0.1768 0.47121 0.58807 0.0
H309 H 0.17718 0.5022 0.57046 0.0
C310 C 0.16732 0.48059 0.55731 0.0
C311 C 0.037 0.50152 0.39398 0.0
H312 H 0.05011 0.51055 0.34857 0.0
H313 H 1.01767 0.50026 0.38217 0.0
H314 H 0.04635 0.51455 0.44003 0.0
O315 O 0.08886 0.50528 0.37871 0.0
O316 O 0.12586 0.50452 0.36103 0.0
C317 C 0.07275 0.43411 0.34721 0.0
O318 O 0.12921 0.50369 0.52688 0.0
O319 O 0.09186 0.50487 0.5342 0.0
Zn320 Zn 0.62943 0.06541 0.75219 0.0
O321 O 0.64542 0.05415 0.67565 0.0
C322 C 0.62398 0.10261 0.6539 0.0
Zn323 Zn 0.66632 0.10513 0.75677 0.0
C324 C 0.66821 0.06729 0.64974 0.0
O325 O 0.68355 0.09115 0.6718 0.0
C326 C 0.62349 0.09912 0.86116 0.0
O327 O 0.68324 0.09118 0.83853 0.0
O328 O 0.64706 0.05278 0.82372 0.0
N329 N 0.70067 0.14317 0.75696 0.0
C330 C 0.71443 0.16142 0.80734 0.0
C331 C 0.7359 0.17657 0.71295 0.0
N332 N 0.71416 0.15281 0.69852 0.0
N333 N 0.7367 0.18266 0.78099 0.0
C334 C 0.58682 1.00784 0.70728 0.0
C335 C 0.57193 0.9902 0.8052 0.0
N336 N 0.59987 0.02686 0.75567 0.0
N337 N 0.59152 1.01532 0.81692 0.0
N338 N 0.56717 0.985 0.73613 0.0
H339 H 0.61241 1.01263 0.62256 0.0
H340 H 0.57858 0.99358 0.60081 0.0
H341 H 0.59405 0.02994 0.61135 0.0
C342 C 0.59306 1.01131 0.63097 0.0
C343 C 0.70679 0.15751 0.88263 0.0
H344 H 0.69479 0.13595 0.89548 0.0
H345 H 0.72472 0.16697 0.91644 0.0
H346 H 0.69459 0.16702 0.89342 0.0
O347 O 0.64672 0.11647 0.83968 0.0
O348 O 0.61206 0.07606 0.83312 0.0
C349 C 0.66899 0.06651 0.85438 0.0
O350 O 0.61063 0.07869 0.67717 0.0
O351 O 0.64774 0.11768 0.67606 0.0
Zn352 Zn 0.56983 0.65357 0.08422 0.0
O353 O 0.59967 0.66211 0.16614 0.0
C354 C 0.52922 0.61026 0.17978 0.0
Zn355 Zn 0.56907 0.61406 0.07304 0.0
C356 C 0.60729 0.64521 0.18096 0.0
O357 O 0.59682 0.6228 0.14982 0.0
C358 C 0.53162 0.61989 0.97292 0.0
O359 O 0.59943 0.62958 1.00428 0.0
O360 O 0.60234 0.669 1.00468 0.0
N361 N 0.56469 0.57689 0.05616 0.0
C362 C 0.55436 0.56261 0.99733 0.0
C363 C 0.54133 0.53514 0.08067 0.0
N364 N 0.55755 0.55952 0.10786 0.0
N365 N 0.53762 0.53656 1.01152 0.0
C366 C 0.56899 0.70803 0.13487 0.0
C367 C 0.5867 0.73177 0.04477 0.0
N368 N 0.57401 0.69269 0.09029 0.0
N369 N 0.58489 0.70779 0.03458 0.0
N370 N 0.5768 0.73277 0.10729 0.0
H371 H 0.56305 0.68439 0.22686 0.0
H372 H 0.56501 0.71651 0.24185 0.0
H373 H 0.53573 0.68929 0.20291 0.0
C374 C 0.55771 0.69912 0.20612 0.0
C375 C 0.55782 0.57407 0.92521 0.0
H376 H 0.57319 0.59539 0.92254 0.0
H377 H 0.56362 0.56269 0.88993 0.0
H378 H 0.53869 0.57144 0.90535 0.0
O379 O 0.54086 0.60552 0.99506 0.0
O380 O 0.53998 0.64295 0.99993 0.0
C381 C 0.61082 0.65353 0.98356 0.0
O382 O 0.53772 0.63503 0.16499 0.0
O383 O 0.53878 0.5979 0.14691 0.0
H384 H 0.52029 0.2357 0.25035 0.0
H385 H 0.46059 0.18123 0.10666 0.0
H386 H 0.45535 0.21799 0.06043 0.0
H387 H 0.46648 0.26592 0.06347 0.0
H388 H 0.52587 0.31968 0.20882 0.0
H389 H 0.53179 0.28311 0.25239 0.0
C390 C 0.5062 0.23175 0.20852 0.0
C391 C 0.49137 0.20537 0.1814 0.0
C392 C 0.50275 0.25302 0.18324 0.0
C393 C 0.4731 0.20107 0.12745 0.0
C394 C 0.46977 0.22222 0.10154 0.0
C395 C 0.48068 0.26964 0.10486 0.0
C396 C 0.49504 0.29573 0.13414 0.0
C397 C 0.48433 0.2483 0.12933 0.0
C398 C 0.51362 0.29994 0.18706 0.0
C399 C 0.51732 0.27895 0.21142 0.0
H400 H 0.29988 0.50532 0.59474 0.0
H401 H 0.29425 0.44474 0.45333 0.0
H402 H 0.25066 0.43646 0.414 0.0
H403 H 0.21484 0.44816 0.41499 0.0
H404 H 0.22209 0.51076 0.55135 0.0
H405 H 0.26394 0.51647 0.59716 0.0
C406 C 0.28899 0.49009 0.5558 0.0
C407 C 0.30029 0.47524 0.52853 0.0
C408 C 0.26408 0.48587 0.53219 0.0
C409 C 0.2859 0.45582 0.47743 0.0
C410 C 0.26101 0.45134 0.45407 0.0
C411 C 0.22549 0.46289 0.45518 0.0
C412 C 0.21475 0.47849 0.48086 0.0
C413 C 0.24999 0.46643 0.48053 0.0
C414 C 0.22911 0.49774 0.53234 0.0
C415 C 0.25333 0.50126 0.558 0.0
H416 H 0.81405 0.29111 0.93583 0.0
H417 H 0.87173 0.28256 0.8148 0.0
H418 H 0.83659 0.24085 0.76537 0.0
H419 H 0.78918 0.20646 0.75568 0.0
H420 H 0.73131 0.21386 0.87861 0.0
H421 H 0.76652 0.25564 0.92909 0.0
C422 C 0.81889 0.28011 0.89856 0.0
C423 C 0.84557 0.29073 0.87722 0.0
C424 C 0.79846 0.25558 0.8713 0.0
C425 C 0.85144 0.27582 0.8298 0.0
C426 C 0.83129 0.25163 0.80218 0.0
C427 C 0.78431 0.21716 0.79382 0.0
C428 C 0.75758 0.20662 0.81419 0.0
C429 C 0.80471 0.24137 0.82218 0.0
C430 C 0.75166 0.22091 0.86343 0.0
C431 C 0.77183 0.24505 0.89174 0.0
H432 H 0.53685 0.73638 0.17315 0.0
H433 H 0.61695 0.78353 0.09806 0.0
H434 H 0.61703 0.82479 0.12813 0.0
H435 H 0.59425 0.84823 0.17555 0.0
H436 H 0.51415 0.80117 0.2507 0.0
H437 H 0.51413 0.75986 0.22127 0.0
C438 C 0.55447 0.75565 0.16469 0.0
C439 C 0.57704 0.7566 0.13417 0.0
C440 C 0.55426 0.77966 0.1813 0.0
C441 C 0.59938 0.78202 0.12191 0.0
C442 C 0.5994 0.80575 0.13882 0.0
C443 C 0.57664 0.82897 0.18423 0.0
C444 C 0.55403 0.82806 0.21433 0.0
C445 C 0.57688 0.80496 0.16794 0.0
C446 C 0.53174 0.80264 0.22706 0.0
C447 C 0.53175 0.77889 0.21049 0.0
H448 H 0.75742 0.53778 0.61903 0.0
H449 H 0.75626 0.59419 0.47262 0.0
H450 H 0.79934 0.60405 0.42825 0.0
H451 H 0.83654 0.59508 0.42556 0.0
H452 H 0.83568 0.53492 0.56173 0.0
H453 H 0.79482 0.52837 0.61528 0.0
C454 C 0.76673 0.55245 0.5779 0.0
C455 C 0.75373 0.56597 0.55158 0.0
C456 C 0.79137 0.55737 0.55041 0.0
C457 C 0.76602 0.58446 0.49705 0.0
C458 C 0.79065 0.5898 0.47054 0.0
C459 C 0.8276 0.58067 0.46744 0.0
C460 C 0.83999 0.56616 0.4905 0.0
C461 C 0.80343 0.57626 0.49639 0.0
C462 C 0.82766 0.54733 0.54436 0.0
C463 C 0.80386 0.54322 0.57444 0.0
H464 H 0.28002 0.84919 0.84799 0.0
H465 H 0.30263 0.80493 0.71122 0.0
H466 H 0.2642 0.76278 0.74895 0.0
H467 H 0.22428 0.73813 0.82339 0.0
H468 H 0.20157 0.78289 0.95852 0.0
H469 H 0.23975 0.82478 0.92006 0.0
C470 C 0.27677 0.8303 0.82735 0.0
C471 C 0.29458 0.83027 0.77779 0.0
C472 C 0.25436 0.80606 0.84886 0.0
C473 C 0.28941 0.80555 0.74981 0.0
C474 C 0.26737 0.7814 0.77136 0.0
C475 C 0.22732 0.75703 0.84324 0.0
C476 C 0.20964 0.75718 0.89329 0.0
C477 C 0.2496 0.78132 0.82088 0.0
C478 C 0.21468 0.78206 0.91992 0.0
C479 C 0.23659 0.80611 0.89798 0.0
H480 H 0.57409 0.06545 0.9113 0.0
H481 H 0.64058 0.14494 0.94208 0.0
H482 H 0.61692 0.15192 0.03856 0.0
H483 H 0.57712 0.13434 0.11814 0.0
H484 H 0.51269 0.05374 0.08586 0.0
H485 H 0.5355 0.04857 0.98643 0.0
C486 C 0.58361 0.08444 0.93872 0.0
C487 C 0.60932 0.10459 0.91889 0.0
C488 C 0.57004 0.08814 0.99451 0.0
C489 C 0.62091 0.12898 0.95569 0.0
C490 C 0.60731 0.13297 1.01114 0.0
C491 C 0.56809 0.11579 0.08891 0.0
C492 C 0.54309 0.0944 0.10999 0.0
C493 C 0.58184 0.11259 0.03162 0.0
C494 C 0.53187 0.07044 0.07152 0.0
C495 C 0.54494 0.06742 1.01441 0.0
H496 H 0.51029 0.55845 0.2165 0.0
H497 H 0.50481 0.62782 0.27503 0.0
H498 H 0.47645 0.60264 0.37429 0.0
H499 H 0.45502 0.56083 0.44898 0.0
H500 H 0.46523 0.49423 0.39028 0.0
H501 H 0.48997 0.51844 0.28757 0.0
C502 C 0.50293 0.56832 0.25043 0.0
C503 C 0.50993 0.59526 0.23757 0.0
C504 C 0.48742 0.55404 0.30816 0.0
C505 C 0.49984 0.6072 0.28292 0.0
C506 C 0.48367 0.59276 0.34004 0.0
C507 C 0.46244 0.55162 0.41312 0.0
C508 C 0.45812 0.52556 0.42749 0.0
C509 C 0.47754 0.56616 0.3539 0.0
C510 C 0.46824 0.51413 0.38085 0.0
C511 C 0.48238 0.52798 0.32179 0.0
H512 H 0.9125 0.45738 0.77497 0.0
H513 H 0.9456 0.41687 0.66015 0.0
H514 H 0.94784 0.44218 0.55525 0.0
H515 H 0.9457 0.48005 0.50003 0.0
H516 H 0.91048 0.51919 0.61235 0.0
H517 H 0.90353 0.49031 0.71335 0.0
C518 C 0.91906 0.45327 0.72613 0.0
C519 C 0.9282 0.43465 0.7251 0.0
C520 C 0.92047 0.46818 0.66568 0.0
C521 C 0.93767 0.43039 0.66194 0.0
C522 C 0.93934 0.44522 0.6021 0.0
C523 C 0.93603 0.48191 0.54615 0.0
C524 C 0.92879 0.50198 0.54848 0.0
C525 C 0.93162 0.4648 0.60387 0.0
C526 C 0.91615 0.50392 0.6087 0.0
C527 C 0.91228 0.48744 0.66679 0.0
H528 H 0.43877 0.95364 0.99089 0.0
H529 H 0.44362 0.89749 0.8532 0.0
H530 H 0.4737 0.89267 0.93568 0.0
H531 H 0.5024 0.90839 0.04381 0.0
H532 H 0.49526 0.96435 0.17876 0.0
H533 H 0.46236 0.96491 0.1018 0.0
C534 C 0.44591 0.93983 0.97971 0.0
C535 C 0.4388 0.92578 0.91642 0.0
C536 C 0.46315 0.93732 0.02704 0.0
C537 C 0.4484 0.90816 0.90224 0.0
C538 C 0.46585 0.90565 0.94919 0.0
C539 C 0.49322 0.92024 0.05685 0.0
C540 C 0.5018 0.93664 0.11689 0.0
C541 C 0.47392 0.92063 1.0114 0.0
C542 C 0.48957 0.95189 0.1326 0.0
C543 C 0.47061 0.95225 0.08855 0.0
H544 H 0.51152 0.44922 0.34006 0.0
H545 H 0.56974 0.43533 0.23978 0.0
H546 H 0.60344 0.46444 0.32576 0.0
H547 H 0.61724 0.49796 0.42337 0.0
H548 H 0.557 0.51021 0.51995 0.0
H549 H 0.52354 0.47776 0.44237 0.0
C550 C 0.53149 0.45212 0.33771 0.0
C551 C 0.53809 0.44014 0.28347 0.0
C552 C 0.55062 0.46903 0.38649 0.0
C553 C 0.56402 0.44407 0.28137 0.0
C554 C 0.58336 0.46098 0.3302 0.0
C555 C 0.59674 0.49323 0.42792 0.0
C556 C 0.58998 0.50712 0.47711 0.0
C557 C 0.57709 0.47422 0.38211 0.0
C558 C 0.56315 0.50046 0.48217 0.0
C559 C 0.54381 0.48174 0.43775 0.0
H560 H 0.11904 0.56533 0.8432 0.0
H561 H 0.14437 0.63561 0.71607 0.0
H562 H 0.14759 0.61142 0.61479 0.0
H563 H 0.13672 0.5679 0.55905 0.0
H564 H 0.11274 0.49841 0.68857 0.0
H565 H 0.11556 0.52446 0.79197 0.0
C566 C 0.12608 0.57561 0.79379 0.0
C567 C 0.1316 0.60234 0.78739 0.0
C568 C 0.12782 0.56149 0.73588 0.0
C569 C 0.14046 0.61527 0.72284 0.0
C570 C 0.14197 0.60127 0.66466 0.0
C571 C 0.13316 0.55882 0.61031 0.0
C572 C 0.125 0.53131 0.61625 0.0
C573 C 0.13487 0.57408 0.66997 0.0
C574 C 0.11966 0.51962 0.68279 0.0
C575 C 0.12101 0.53448 0.74189 0.0
H576 H 0.3841 1.01365 0.89615 0.0
H577 H 0.36964 0.93969 0.99098 0.0
H578 H 0.38804 0.96303 0.10107 0.0
H579 H 0.41769 1.0058 0.15969 0.0
H580 H 0.43546 0.08037 0.06118 0.0
H581 H 0.40659 0.05561 0.96293 0.0
C582 C 0.38368 1.0024 0.9421 0.0
C583 C 0.3757 0.97498 0.93521 0.0
C584 C 0.39607 1.01638 1.00354 0.0
C585 C 0.37534 0.96065 0.99487 0.0
C586 C 0.38658 0.97421 0.0574 0.0
C587 C 0.41494 1.01668 0.11724 0.0
C588 C 0.42926 0.04499 0.117 0.0
C589 C 0.39859 1.00229 0.06063 0.0
C590 C 0.42496 0.05868 0.06238 0.0
C591 C 0.40844 0.04449 1.00618 0.0
H592 H 0.39518 0.37985 0.21773 0.0
H593 H 0.44718 0.36091 0.33472 0.0
H594 H 0.43129 0.36991 0.44346 0.0
H595 H 0.41315 0.39546 0.49985 0.0
H596 H 0.36717 0.42182 0.38056 0.0
H597 H 0.37007 0.39799 0.27824 0.0
C598 C 0.40231 0.37688 0.26737 0.0
C599 C 0.42281 0.37044 0.26833 0.0
C600 C 0.39481 0.38446 0.32898 0.0
C601 C 0.43136 0.36575 0.33257 0.0
C602 C 0.4227 0.37154 0.39469 0.0
C603 C 0.40307 0.39535 0.45194 0.0
C604 C 0.39042 0.41087 0.44723 0.0
C605 C 0.40606 0.38284 0.39284 0.0
C606 C 0.37708 0.41016 0.38544 0.0
C607 C 0.379 0.39672 0.3268 0.0
H608 H 0.03164 0.39097 0.54431 0.0
H609 H 0.10036 0.43344 0.67629 0.0
H610 H 0.07238 0.41547 0.77963 0.0
H611 H 0.02785 0.39926 0.82836 0.0
H612 H 0.95894 0.3616 0.69494 0.0
H613 H 0.98719 0.3653 0.59621 0.0
C614 C 0.04061 0.39495 0.59582 0.0
C615 C 0.06795 0.41349 0.60304 0.0
C616 C 1.0241 0.38598 0.65457 0.0
C617 C 0.07946 0.41894 0.6696 0.0
C618 C 0.06332 0.4091 0.72864 0.0
C619 C 1.01897 0.39086 0.77821 0.0
C620 C 0.99148 0.38051 0.76832 0.0
C621 C 0.0355 0.39431 0.72139 0.0
C622 C 0.98002 0.36951 0.70364 0.0
C623 C 0.99626 0.372 0.64707 0.0
H624 H 0.6442 0.02259 0.14992 0.0
H625 H 0.60836 0.94826 0.03589 0.0
H626 H 0.63329 0.97216 0.93171 0.0
H627 H 0.65655 1.01501 0.86856 0.0
H628 H 0.68878 0.08944 0.98115 0.0
H629 H 0.67505 0.06475 0.0912 0.0
C630 C 0.6424 1.0115 0.10274 0.0
C631 C 0.62404 0.98376 0.10001 0.0
C632 C 0.65617 0.02551 0.04289 0.0
C633 C 0.62224 0.96956 0.03914 0.0
C634 C 0.63636 0.98331 0.97951 0.0
C635 C 0.66165 0.02584 0.91754 0.0
C636 C 0.67337 0.05402 0.91677 0.0
C637 C 0.65222 1.01142 0.97998 0.0
C638 C 0.67997 0.06785 0.9803 0.0
C639 C 0.67159 0.05365 0.04314 0.0
H640 H 0.65993 0.65142 0.46811 0.0
H641 H 0.67444 0.59305 0.36818 0.0
H642 H 0.66306 0.60458 0.2551 0.0
H643 H 0.63846 0.62278 0.19226 0.0
H644 H 0.61989 0.67794 0.29512 0.0
H645 H 0.64353 0.6764 0.3996 0.0
C646 C 0.66175 0.64212 0.42097 0.0
C647 C 0.66768 0.6212 0.42627 0.0
C648 C 0.65356 0.64768 0.35725 0.0
C649 C 0.6701 0.60929 0.36529 0.0
C650 C 0.66304 0.61553 0.30088 0.0
C651 C 0.64009 0.63494 0.23707 0.0
C652 C 0.62687 0.64995 0.23677 0.0
C653 C 0.65303 0.63332 0.29731 0.0
C654 C 0.62966 0.66607 0.29436 0.0
C655 C 0.64307 0.66506 0.35416 0.0
H656 H 1.02572 0.63273 0.81111 0.0
H657 H 0.09973 0.66796 0.69923 0.0
H658 H 0.07557 0.66015 0.5887 0.0
H659 H 0.03305 0.63569 0.52438 0.0
H660 H 0.95906 0.60045 0.63649 0.0
H661 H 0.98347 0.61627 0.74669 0.0
C662 C 0.03659 0.63956 0.76258 0.0
C663 C 0.06447 0.65084 0.76312 0.0
C664 C 1.0225 0.63461 0.69942 0.0
C665 C 0.07836 0.65954 0.70016 0.0
C666 C 0.06448 0.65473 0.63695 0.0
C667 C 1.02228 0.63221 0.57285 0.0
C668 C 0.99428 0.61672 0.57247 0.0
C669 C 0.03651 0.64117 0.6359 0.0
C670 C 0.98054 0.61244 0.63539 0.0
C671 C 0.99454 0.62126 0.69843 0.0
H672 H 0.51628 0.97864 0.42227 0.0
H673 H 0.49839 0.02723 0.55066 0.0
H674 H 0.54549 0.06224 0.54879 0.0
H675 H 0.58503 0.07652 0.45959 0.0
H676 H 0.60721 1.01773 0.42909 0.0
H677 H 0.56251 0.98197 0.45866 0.0
C678 C 0.52137 0.99411 0.45989 0.0
C679 C 0.50431 1.00473 0.46925 0.0
C680 C 0.5483 1.00988 0.4785 0.0
C681 C 0.51239 0.02371 0.52309 0.0
C682 C 0.53928 0.04305 0.5256 0.0
C683 C 0.58163 0.05647 0.46611 0.0
C684 C 0.59455 0.04713 0.42155 0.0
C685 C 0.55735 0.03694 0.49512 0.0
C686 C 0.59296 0.02322 0.44614 0.0
C687 C 0.56746 1.00263 0.46314 0.0
H688 H 0.49657 0.46778 0.84118 0.0
H689 H 0.52949 0.44114 0.6885 0.0
H690 H 0.56313 0.4872 0.65987 0.0
H691 H 0.56757 0.53195 0.64373 0.0
H692 H 0.52795 0.55925 0.78197 0.0
H693 H 0.50846 0.51651 0.84384 0.0
C694 C 0.51067 0.47271 0.79947 0.0
C695 C 0.50588 0.45368 0.74727 0.0
C696 C 0.5268 0.49948 0.77903 0.0
C697 C 0.52952 0.45732 0.71716 0.0
C698 C 0.54826 0.48363 0.69878 0.0
C699 C 0.55522 0.52875 0.68874 0.0
C700 C 0.54839 0.5482 0.70766 0.0
C701 C 0.54456 0.50454 0.72361 0.0
C702 C 0.53267 0.54412 0.76605 0.0
C703 C 0.52225 0.51997 0.80258 0.0
H704 H 0.07034 0.55392 0.88157 0.0
H705 H 0.07907 0.49891 1.00454 0.0
H706 H 0.04297 0.49227 0.0837 0.0
H707 H 0.99999 0.499 0.09615 0.0
H708 H 0.97195 0.55561 0.02602 0.0
H709 H 1.00852 0.58403 0.92446 0.0
C710 C 0.06501 0.54234 0.92871 0.0
C711 C 0.06859 0.51996 0.92829 0.0
C712 C 0.04331 0.53984 0.96963 0.0
C713 C 0.06905 0.51027 0.99578 0.0
C714 C 0.04846 0.5062 0.04108 0.0
C715 C 1.00796 0.51545 0.05954 0.0
C716 C 0.9893 0.52871 0.05455 0.0
C717 C 0.03421 0.51914 0.02528 0.0
C718 C 0.98766 0.55136 1.01415 0.0
C719 C 1.00797 0.56835 0.95762 0.0
H720 H 0.97239 0.44252 0.29277 0.0
H721 H 0.05308 0.46073 0.27647 0.0
H722 H 0.06429 0.499 0.20607 0.0
H723 H 0.05603 0.53712 0.2175 0.0
H724 H 0.97519 0.51988 0.23788 0.0
H725 H 0.95974 0.47298 0.24286 0.0
C726 C 0.99183 0.45369 0.26886 0.0
C727 C 1.01262 0.45118 0.29686 0.0
C728 C 0.99855 0.47743 0.23315 0.0
C729 C 0.03688 0.46343 0.26021 0.0
C730 C 0.04373 0.48626 0.22101 0.0
C731 C 0.03485 0.52303 0.21648 0.0
C732 C 1.01717 0.53191 0.23396 0.0
C733 C 1.0256 0.49543 0.21715 0.0
C734 C 0.9896 0.51363 0.22904 0.0
C735 C 0.98034 0.48637 0.23067 0.0
H736 H 0.49858 1.00388 0.86609 0.0
H737 H 0.53781 0.0691 0.72034 0.0
H738 H 0.55276 0.04259 0.65431 0.0
H739 H 0.54275 0.99677 0.62228 0.0
H740 H 0.51939 0.93918 0.78299 0.0
H741 H 0.49777 0.96079 0.84438 0.0
C742 C 0.5109 1.01267 0.82054 0.0
C743 C 0.51569 0.03781 0.79494 0.0
C744 C 0.51647 0.99642 0.77874 0.0
C745 C 0.53318 0.04951 0.73911 0.0
C746 C 0.5399 0.03377 0.69852 0.0
C747 C 0.5343 0.98974 0.6731 0.0
C748 C 0.53997 0.97217 0.71067 0.0
C749 C 0.52955 1.00664 0.71488 0.0
C750 C 0.52028 0.95687 0.76042 0.0
C751 C 0.50925 0.96996 0.79784 0.0
H752 H 0.50614 0.55722 1.01408 0.0
H753 H 0.50857 0.48611 0.96059 0.0
H754 H 0.45991 0.46052 0.95673 0.0
H755 H 0.41355 0.47305 0.99558 0.0
H756 H 0.43411 0.51971 0.14825 0.0
H757 H 0.46582 0.55228 0.06593 0.0
C758 C 0.49595 0.53667 0.99637 0.0
C759 C 0.51077 0.52363 0.9859 0.0
C760 C 0.46864 0.52161 1.00605 0.0
C761 C 0.49751 0.49641 0.96839 0.0
C762 C 0.46973 0.48193 0.96588 0.0
C763 C 0.43139 0.47788 0.02486 0.0
C764 C 0.43237 0.48588 0.0946 0.0
C765 C 0.45521 0.49384 0.98974 0.0
C766 C 0.43769 0.51248 0.09983 0.0
C767 C 0.45664 0.53116 0.05349 0.0
H768 H 0.40412 0.03 0.65299 0.0
H769 H 0.36476 0.95654 0.53561 0.0
H770 H 0.37462 0.98235 0.42721 0.0
H771 H 0.40347 0.02493 0.36666 0.0
H772 H 0.4469 0.09784 0.48455 0.0
H773 H 0.42594 0.07338 0.59183 0.0
C774 C 0.39676 0.01962 0.60379 0.0
C775 C 0.38379 0.99128 0.60244 0.0
C776 C 0.40371 0.03464 0.54169 0.0
C777 C 0.37445 0.97817 0.53841 0.0
C778 C 0.38051 0.99302 0.47629 0.0
C779 C 0.40745 0.0357 0.41554 0.0
C780 C 0.42681 0.06325 0.41756 0.0
C781 C 0.3964 0.02116 0.47727 0.0
C782 C 0.43189 0.07687 0.48118 0.0
C783 C 0.42023 0.0627 0.54275 0.0
H784 H 0.41063 0.41149 0.99542 0.0
H785 H 0.43856 0.36607 0.88113 0.0
H786 H 0.41618 0.36968 0.776 0.0
H787 H 0.39591 0.39275 0.71345 0.0
H788 H 0.37142 0.44111 0.82745 0.0
H789 H 0.38398 0.4282 0.93687 0.0
C790 C 0.41127 0.40167 0.94823 0.0
C791 C 0.42648 0.38857 0.94657 0.0
C792 C 0.3988 0.40434 0.88798 0.0
C793 C 0.42696 0.37606 0.88443 0.0
C794 C 0.41429 0.37834 0.82415 0.0
C795 C 0.39212 0.39946 0.76262 0.0
C796 C 0.38248 0.4178 0.76201 0.0
C797 C 0.401 0.39327 0.82482 0.0
C798 C 0.37817 0.42662 0.82606 0.0
C799 C 0.38603 0.41974 0.88857 0.0
H800 H 0.9732 0.3844 0.15579 0.0
H801 H 0.03223 0.41002 0.99505 0.0
H802 H 0.06708 0.42134 0.08157 0.0
H803 H 0.08166 0.43063 0.20605 0.0
H804 H 1.02186 0.3951 0.36485 0.0
H805 H 0.98678 0.37999 0.27711 0.0
C806 C 0.99348 0.39154 0.13939 0.0
C807 C 1.00025 0.3981 0.06874 0.0
C808 C 1.01353 0.39634 0.18974 0.0
C809 C 0.02669 0.40674 0.04924 0.0
C810 C 0.04671 0.41283 0.09885 0.0
C811 C 0.06105 0.4184 0.22135 0.0
C812 C 0.05458 0.41493 0.29275 0.0
C813 C 0.04061 0.40882 0.16986 0.0
C814 C 0.02753 0.39885 0.31059 0.0
C815 C 1.0073 0.39025 0.26026 0.0
H816 H 0.65645 1.01592 0.64407 0.0
H817 H 0.68962 0.08801 0.52093 0.0
H818 H 0.67908 0.06115 0.41427 0.0
H819 H 0.65087 1.01729 0.35734 0.0
H820 H 0.60815 0.94652 0.48307 0.0
H821 H 0.63227 0.97199 0.5867 0.0
C822 C 0.6623 0.02582 0.59382 0.0
C823 C 0.67371 0.05402 0.59064 0.0
C824 C 0.65369 1.01009 0.53293 0.0
C825 C 0.68115 0.06652 0.52529 0.0
C826 C 0.67456 0.05101 0.46418 0.0
C827 C 0.64717 1.0074 0.40734 0.0
C828 C 0.62727 0.98012 0.41255 0.0
C829 C 0.65935 0.02281 0.46745 0.0
C830 C 0.62335 0.96732 0.47723 0.0
C831 C 0.63689 0.98209 0.53672 0.0
H832 H 0.64688 0.63731 0.98597 0.0
H833 H 0.62349 0.68606 0.86775 0.0
H834 H 0.64996 0.68568 0.76886 0.0
H835 H 0.66964 0.66198 0.70886 0.0
H836 H 0.68686 0.60791 0.82381 0.0
H837 H 0.67428 0.62086 0.93196 0.0
C838 C 0.64828 0.6486 0.93924 0.0
C839 C 0.63296 0.66143 0.9337 0.0
C840 C 0.66245 0.64715 0.88193 0.0
C841 C 0.63511 0.67614 0.87337 0.0
C842 C 0.65006 0.67566 0.81666 0.0
C843 C 0.67191 0.65405 0.75817 0.0
C844 C 0.67875 0.63361 0.75804 0.0
C845 C 0.6625 0.65995 0.81917 0.0
C846 C 0.68176 0.62363 0.82215 0.0
C847 C 0.67392 0.63061 0.88391 0.0
H848 H 0.07721 0.67372 0.15526 0.0
H849 H 1.02385 0.63597 0.98241 0.0
H850 H 0.98575 0.62457 0.05615 0.0
H851 H 0.96753 0.61589 0.17519 0.0
H852 H 1.02021 0.65486 0.3479 0.0
H853 H 0.05811 0.67597 0.26938 0.0
C854 C 0.05738 0.66431 0.13301 0.0
C855 C 0.05351 0.65559 0.06333 0.0
C856 C 0.03513 0.65763 0.17623 0.0
C857 C 0.02747 0.64292 0.03588 0.0
C858 C 1.00551 0.63614 0.07824 0.0
C859 C 0.98698 0.63044 0.19509 0.0
C860 C 0.99087 0.63381 0.26749 0.0
C861 C 1.00898 0.64211 0.14939 0.0
C862 C 1.01652 0.65218 0.29231 0.0
C863 C 0.0384 0.66385 0.24741 0.0
H864 H 0.58159 0.13065 0.37986 0.0
H865 H 0.51353 0.10751 0.51079 0.0
H866 H 0.53814 0.10486 0.61141 0.0
H867 H 0.57642 0.10154 0.65746 0.0
H868 H 0.64537 0.12642 0.52916 0.0
H869 H 0.62363 0.13669 0.43339 0.0
C870 C 0.57261 0.12627 0.43109 0.0
C871 C 0.54576 0.11961 0.43781 0.0
C872 C 0.587 0.12464 0.48919 0.0
C873 C 0.53425 0.11323 0.50434 0.0
C874 C 0.54828 0.11146 0.56192 0.0
C875 C 0.58676 0.10954 0.60882 0.0
C876 C 0.61218 0.11246 0.59985 0.0
C877 C 0.57423 0.11583 0.55428 0.0
C878 C 0.62568 0.12363 0.53719 0.0
C879 C 0.61322 0.12957 0.48236 0.0
H880 H 0.48351 0.56053 0.69246 0.0
H881 H 0.41481 0.5158 0.82187 0.0
H882 H 0.43715 0.54707 0.91835 0.0
H883 H 0.47839 0.58456 0.96951 0.0
H884 H 0.54628 0.62993 0.8383 0.0
H885 H 0.52199 0.60192 0.73849 0.0
C886 C 0.47323 0.55804 0.74132 0.0
C887 C 0.44747 0.53593 0.74994 0.0
C888 C 0.48605 0.57648 0.79611 0.0
C889 C 0.43447 0.53281 0.81368 0.0
C890 C 0.44733 0.55064 0.86896 0.0
C891 C 0.48739 0.58895 0.91836 0.0
C892 C 0.5139 0.60982 0.911 0.0
C893 C 0.47334 0.5723 0.86127 0.0
C894 C 0.52564 0.61469 0.84485 0.0
C895 C 0.51187 0.59833 0.78798 0.0
H896 H 0.93718 0.48489 0.99868 0.0
H897 H 0.91838 0.4155 0.12402 0.0
H898 H 0.90862 0.43569 0.22323 0.0
H899 H 0.91346 0.4767 0.28045 0.0
H900 H 0.92884 0.54475 0.15385 0.0
H901 H 0.93019 0.52094 0.04951 0.0
C902 C 0.9307 0.4741 0.04756 0.0
C903 C 0.92929 0.44893 0.05413 0.0
C904 C 0.92463 0.48575 0.10478 0.0
C905 C 0.92001 0.43496 0.11736 0.0
C906 C 0.91436 0.44653 0.17433 0.0
C907 C 0.91627 0.48602 0.22968 0.0
C908 C 0.92084 0.51252 0.22531 0.0
C909 C 0.91779 0.47247 0.16972 0.0
C910 C 0.92491 0.52435 0.15902 0.0
C911 C 0.92644 0.511 0.09945 0.0
H912 H 0.47594 0.92731 0.36786 0.0
H913 H 0.53836 0.93279 0.5012 0.0
H914 H 0.51444 0.93458 0.60378 0.0
H915 H 0.47824 0.94054 0.6553 0.0
H916 H 0.41499 0.93327 0.52241 0.0
H917 H 0.43684 0.92717 0.42087 0.0
C918 C 0.48384 0.92802 0.41961 0.0
C919 C 0.509 0.92989 0.42666 0.0
C920 C 0.47021 0.92981 0.47874 0.0
C921 C 0.51908 0.93119 0.49414 0.0
C922 C 0.50558 0.93275 0.55292 0.0
C923 C 0.46923 0.93744 0.60414 0.0
C924 C 0.44509 0.93766 0.59653 0.0
C925 C 0.48162 0.93313 0.54586 0.0
C926 C 0.4335 0.93322 0.52988 0.0
C927 C 0.446 0.92967 0.47169 0.0
H928 H 0.60171 0.48635 0.7581 0.0
H929 H 0.60904 0.55945 0.83933 0.0
H930 H 0.58123 0.53516 0.93818 0.0
H931 H 0.55141 0.49286 0.99734 0.0
H932 H 0.5413 0.4188 0.91506 0.0
H933 H 0.57291 0.44343 0.82183 0.0
C934 C 0.5976 0.497 0.79816 0.0
C935 C 0.60762 0.52487 0.79075 0.0
C936 C 0.58037 0.48256 0.85431 0.0
C937 C 0.60156 0.53811 0.84286 0.0
C938 C 0.58541 0.52416 0.89943 0.0
C939 C 0.55599 0.482 0.95902 0.0
C940 C 0.54353 0.45382 0.96345 0.0
C941 C 0.57405 0.49631 0.90483 0.0
C942 C 0.55041 0.44041 0.91356 0.0
C943 C 0.56855 0.45455 0.85987 0.0
H944 H 0.10642 0.55967 0.34042 0.0
H945 H 0.12839 0.5115 0.21661 0.0
H946 H 0.13478 0.53999 0.11511 0.0
H947 H 0.13149 0.57721 0.05896 0.0
H948 H 0.11374 0.62804 0.18457 0.0
H949 H 0.10882 0.60052 0.28742 0.0
C950 C 0.11303 0.55569 0.29148 0.0
C951 C 0.11695 0.53336 0.28648 0.0
C952 C 0.11769 0.57291 0.23352 0.0
C953 C 0.12547 0.52858 0.22243 0.0
C954 C 0.12906 0.54488 0.16414 0.0
C955 C 0.12762 0.5829 0.10947 0.0
C956 C 0.12389 0.60534 0.11417 0.0
C957 C 0.1251 0.56704 0.16879 0.0
C958 C 0.11778 0.61166 0.1797 0.0
C959 C 0.11453 0.59558 0.23844 0.0
loop_
_geom_bond_atom_site_label_1
_geom_bond_atom_site_label_2
_geom_bond_distance
_geom_bond_site_symmetry_2
_ccdc_geom_bond_type
Zn0 O1 2.055 . S
Zn0 O8 2.046 . S
Zn0 N16 2.036 . S
Zn0 O28 2.053 . S
Zn0 O30 2.066 . S
O1 Zn0 2.055 . S
O1 C4 1.259 . S
C2 O30 1.256 . S
C2 O31 1.244 . S
Zn3 O5 2.046 . S
Zn3 O7 2.055 . S
Zn3 N9 2.036 . S
Zn3 O27 2.066 . S
Zn3 O31 2.053 . S
C4 O1 1.259 . S
C4 O5 1.254 . S
O5 Zn3 2.046 . S
O5 C4 1.254 . S
C6 O27 1.256 . S
C6 O28 1.244 . S
O7 Zn3 2.055 . S
O7 C29 1.259 . S
O8 Zn0 2.046 . S
O8 C29 1.254 . S
N9 Zn3 2.036 . S
N9 C10 1.298 . S
N9 N12 1.398 . S
C10 N9 1.298 . S
C10 N13 1.367 . S
C10 C23 1.481 . S
C11 N12 1.299 . S
C11 N13 1.379 . S
N12 N9 1.398 . S
N12 C11 1.299 . S
N13 C10 1.367 . S
N13 C11 1.379 . S
C14 N16 1.298 . S
C14 N18 1.367 . S
C14 C22 1.481 . S
C15 N17 1.299 . S
C15 N18 1.379 . S
N16 Zn0 2.036 . S
N16 C14 1.298 . S
N16 N17 1.398 . S
N17 C15 1.299 . S
N17 N16 1.398 . S
N18 C14 1.367 . S
N18 C15 1.379 . S
H19 C22 0.980 . S
H20 C22 0.981 1_565 S
H21 C22 0.981 . S
C22 C14 1.481 . S
C22 H19 0.980 . S
C22 H20 0.981 1_545 S
C22 H21 0.981 . S
C23 C10 1.481 . S
C23 H24 0.980 . S
C23 H25 0.981 . S
C23 H26 0.981 . S
H24 C23 0.980 . S
H25 C23 0.981 . S
H26 C23 0.981 . S
O27 Zn3 2.066 . S
O27 C6 1.256 . S
O28 Zn0 2.053 . S
O28 C6 1.244 . S
C29 O7 1.259 . S
C29 O8 1.254 . S
O30 Zn0 2.066 . S
O30 C2 1.256 . S
O31 C2 1.244 . S
O31 Zn3 2.053 . S
Zn32 O33 2.055 . S
Zn32 O40 2.046 . S
Zn32 N48 2.036 . S
Zn32 O60 2.053 . S
Zn32 O62 2.066 . S
O33 Zn32 2.055 . S
O33 C36 1.259 . S
C34 O62 1.256 . S
C34 O63 1.244 . S
Zn35 O37 2.046 . S
Zn35 O39 2.055 . S
Zn35 N41 2.036 . S
Zn35 O59 2.066 . S
Zn35 O63 2.053 . S
C36 O33 1.259 . S
C36 O37 1.254 . S
O37 Zn35 2.046 . S
O37 C36 1.254 . S
C38 O59 1.256 . S
C38 O60 1.244 . S
O39 Zn35 2.055 . S
O39 C61 1.259 . S
O40 Zn32 2.046 . S
O40 C61 1.254 . S
N41 Zn35 2.036 . S
N41 C42 1.298 . S
N41 N44 1.398 . S
C42 N41 1.298 . S
C42 N45 1.367 . S
C42 C55 1.481 . S
C43 N44 1.299 . S
C43 N45 1.379 . S
N44 N41 1.398 . S
N44 C43 1.299 . S
N45 C42 1.367 . S
N45 C43 1.379 . S
C46 N48 1.298 . S
C46 N50 1.367 . S
C46 C54 1.481 . S
C47 N49 1.299 . S
C47 N50 1.379 . S
N48 Zn32 2.036 . S
N48 C46 1.298 . S
N48 N49 1.398 . S
N49 C47 1.299 . S
N49 N48 1.398 . S
N50 C46 1.367 . S
N50 C47 1.379 . S
H51 C54 0.980 . S
H52 C54 0.981 . S
H53 C54 0.981 . S
C54 C46 1.481 . S
C54 H51 0.980 . S
C54 H52 0.981 . S
C54 H53 0.981 . S
C55 C42 1.481 . S
C55 H56 0.980 . S
C55 H57 0.981 . S
C55 H58 0.981 . S
H56 C55 0.980 . S
H57 C55 0.981 . S
H58 C55 0.981 . S
O59 Zn35 2.066 . S
O59 C38 1.256 . S
O60 Zn32 2.053 . S
O60 C38 1.244 . S
C61 O39 1.259 . S
C61 O40 1.254 . S
O62 Zn32 2.066 . S
O62 C34 1.256 . S
O63 C34 1.244 . S
O63 Zn35 2.053 . S
Zn64 O65 2.055 . S
Zn64 O72 2.046 1_556 S
Zn64 N80 2.036 . S
Zn64 O92 2.053 1_556 S
Zn64 O94 2.066 . S
O65 Zn64 2.055 . S
O65 C68 1.259 . S
C66 O94 1.256 . S
C66 O95 1.244 . S
Zn67 O69 2.046 . S
Zn67 O71 2.055 1_556 S
Zn67 N73 2.036 . S
Zn67 O91 2.066 1_556 S
Zn67 O95 2.053 . S
C68 O65 1.259 . S
C68 O69 1.254 . S
O69 Zn67 2.046 . S
O69 C68 1.254 . S
C70 O91 1.256 . S
C70 O92 1.244 . S
O71 Zn67 2.055 1_554 S
O71 C93 1.259 . S
O72 Zn64 2.046 1_554 S
O72 C93 1.254 . S
N73 Zn67 2.036 . S
N73 C74 1.298 . S
N73 N76 1.398 . S
C74 N73 1.298 . S
C74 N77 1.367 . S
C74 C87 1.481 1_556 S
C75 N76 1.299 . S
C75 N77 1.379 . S
N76 N73 1.398 . S
N76 C75 1.299 . S
N77 C74 1.367 . S
N77 C75 1.379 . S
C78 N80 1.298 . S
C78 N82 1.367 . S
C78 C86 1.481 . S
C79 N81 1.299 . S
C79 N82 1.379 . S
N80 Zn64 2.036 . S
N80 C78 1.298 . S
N80 N81 1.398 . S
N81 C79 1.299 . S
N81 N80 1.398 . S
N82 C78 1.367 . S
N82 C79 1.379 . S
H83 C86 0.980 . S
H84 C86 0.981 . S
H85 C86 0.981 . S
C86 C78 1.481 . S
C86 H83 0.980 . S
C86 H84 0.981 . S
C86 H85 0.981 . S
C87 C74 1.481 1_554 S
C87 H88 0.980 . S
C87 H89 0.981 1_655 S
C87 H90 0.981 . S
H88 C87 0.980 . S
H89 C87 0.981 1_455 S
H90 C87 0.981 . S
O91 Zn67 2.066 1_554 S
O91 C70 1.256 . S
O92 Zn64 2.053 1_554 S
O92 C70 1.244 . S
C93 O71 1.259 . S
C93 O72 1.254 . S
O94 Zn64 2.066 . S
O94 C66 1.256 . S
O95 C66 1.244 . S
O95 Zn67 2.053 . S
Zn96 O97 2.055 . S
Zn96 O104 2.046 . S
Zn96 N112 2.036 . S
Zn96 O124 2.053 . S
Zn96 O126 2.066 . S
O97 Zn96 2.055 . S
O97 C100 1.259 . S
C98 O126 1.256 . S
C98 O127 1.244 . S
Zn99 O101 2.046 . S
Zn99 O103 2.055 . S
Zn99 N105 2.036 . S
Zn99 O123 2.066 . S
Zn99 O127 2.053 . S
C100 O97 1.259 . S
C100 O101 1.254 . S
O101 Zn99 2.046 . S
O101 C100 1.254 . S
C102 O123 1.256 . S
C102 O124 1.244 . S
O103 Zn99 2.055 . S
O103 C125 1.259 . S
O104 Zn96 2.046 . S
O104 C125 1.254 . S
N105 Zn99 2.036 . S
N105 C106 1.298 . S
N105 N108 1.398 . S
C106 N105 1.298 . S
C106 N109 1.367 . S
C106 C119 1.481 . S
C107 N108 1.299 . S
C107 N109 1.379 . S
N108 N105 1.398 . S
N108 C107 1.299 . S
N109 C106 1.367 . S
N109 C107 1.379 . S
C110 N112 1.298 . S
C110 N114 1.367 . S
C110 C118 1.481 . S
C111 N113 1.299 . S
C111 N114 1.379 . S
N112 Zn96 2.036 . S
N112 C110 1.298 . S
N112 N113 1.398 . S
N113 C111 1.299 . S
N113 N112 1.398 . S
N114 C110 1.367 . S
N114 C111 1.379 . S
H115 C118 0.980 . S
H116 C118 0.981 . S
H117 C118 0.981 . S
C118 C110 1.481 . S
C118 H115 0.980 . S
C118 H116 0.981 . S
C118 H117 0.981 . S
C119 C106 1.481 . S
C119 H120 0.980 . S
C119 H121 0.981 1_565 S
C119 H122 0.981 . S
H120 C119 0.980 . S
H121 C119 0.981 1_545 S
H122 C119 0.981 . S
O123 Zn99 2.066 . S
O123 C102 1.256 . S
O124 Zn96 2.053 . S
O124 C102 1.244 . S
C125 O103 1.259 . S
C125 O104 1.254 . S
O126 Zn96 2.066 . S
O126 C98 1.256 . S
O127 C98 1.244 . S
O127 Zn99 2.053 . S
Zn128 O129 2.055 . S
Zn128 O136 2.046 . S
Zn128 N144 2.036 . S
Zn128 O156 2.053 . S
Zn128 O158 2.066 . S
O129 Zn128 2.055 . S
O129 C132 1.259 . S
C130 O158 1.256 . S
C130 O159 1.244 . S
Zn131 O133 2.046 . S
Zn131 O135 2.055 . S
Zn131 N137 2.036 . S
Zn131 O155 2.066 . S
Zn131 O159 2.053 . S
C132 O129 1.259 . S
C132 O133 1.254 . S
O133 Zn131 2.046 . S
O133 C132 1.254 . S
C134 O155 1.256 . S
C134 O156 1.244 . S
O135 Zn131 2.055 . S
O135 C157 1.259 . S
O136 Zn128 2.046 . S
O136 C157 1.254 . S
N137 Zn131 2.036 . S
N137 C138 1.298 . S
N137 N140 1.398 . S
C138 N137 1.298 . S
C138 N141 1.367 . S
C138 C151 1.481 . S
C139 N140 1.299 . S
C139 N141 1.379 . S
N140 N137 1.398 . S
N140 C139 1.299 . S
N141 C138 1.367 . S
N141 C139 1.379 . S
C142 N144 1.298 . S
C142 N146 1.367 . S
C142 C150 1.481 . S
C143 N145 1.299 . S
C143 N146 1.379 . S
N144 Zn128 2.036 . S
N144 C142 1.298 . S
N144 N145 1.398 . S
N145 C143 1.299 . S
N145 N144 1.398 . S
N146 C142 1.367 . S
N146 C143 1.379 . S
H147 C150 0.980 . S
H148 C150 0.981 . S
H149 C150 0.981 . S
C150 C142 1.481 . S
C150 H147 0.980 . S
C150 H148 0.981 . S
C150 H149 0.981 . S
C151 C138 1.481 . S
C151 H152 0.980 . S
C151 H153 0.981 . S
C151 H154 0.981 . S
H152 C151 0.980 . S
H153 C151 0.981 . S
H154 C151 0.981 . S
O155 Zn131 2.066 . S
O155 C134 1.256 . S
O156 Zn128 2.053 . S
O156 C134 1.244 . S
C157 O135 1.259 . S
C157 O136 1.254 . S
O158 Zn128 2.066 . S
O158 C130 1.256 . S
O159 C130 1.244 . S
O159 Zn131 2.053 . S
Zn160 O161 2.055 1_556 S
Zn160 O168 2.046 . S
Zn160 N176 2.036 . S
Zn160 O188 2.053 . S
Zn160 O190 2.066 1_556 S
O161 Zn160 2.055 1_554 S
O161 C164 1.259 . S
C162 O190 1.256 . S
C162 O191 1.244 . S
Zn163 O165 2.046 1_556 S
Zn163 O167 2.055 . S
Zn163 N169 2.036 . S
Zn163 O187 2.066 . S
Zn163 O191 2.053 1_556 S
C164 O161 1.259 . S
C164 O165 1.254 . S
O165 Zn163 2.046 1_554 S
O165 C164 1.254 . S
C166 O187 1.256 . S
C166 O188 1.244 . S
O167 Zn163 2.055 . S
O167 C189 1.259 . S
O168 Zn160 2.046 . S
O168 C189 1.254 . S
N169 Zn163 2.036 . S
N169 C170 1.298 . S
N169 N172 1.398 . S
C170 N169 1.298 . S
C170 N173 1.367 . S
C170 C183 1.481 . S
C171 N172 1.299 . S
C171 N173 1.379 . S
N172 N169 1.398 . S
N172 C171 1.299 . S
N173 C170 1.367 . S
N173 C171 1.379 . S
C174 N176 1.298 . S
C174 N178 1.367 . S
C174 C182 1.481 1_556 S
C175 N177 1.299 . S
C175 N178 1.379 . S
N176 Zn160 2.036 . S
N176 C174 1.298 . S
N176 N177 1.398 . S
N177 C175 1.299 . S
N177 N176 1.398 . S
N178 C174 1.367 . S
N178 C175 1.379 . S
H179 C182 0.980 . S
H180 C182 0.981 1_655 S
H181 C182 0.981 . S
C182 C174 1.481 1_554 S
C182 H179 0.980 . S
C182 H180 0.981 1_455 S
C182 H181 0.981 . S
C183 C170 1.481 . S
C183 H184 0.980 . S
C183 H185 0.981 . S
C183 H186 0.981 . S
H184 C183 0.980 . S
H185 C183 0.981 . S
H186 C183 0.981 . S
O187 Zn163 2.066 . S
O187 C166 1.256 . S
O188 Zn160 2.053 . S
O188 C166 1.244 . S
C189 O167 1.259 . S
C189 O168 1.254 . S
O190 Zn160 2.066 1_554 S
O190 C162 1.256 . S
O191 C162 1.244 . S
O191 Zn163 2.053 1_554 S
Zn192 O193 2.055 . S
Zn192 O200 2.046 . S
Zn192 N208 2.036 . S
Zn192 O220 2.053 . S
Zn192 O222 2.066 . S
O193 Zn192 2.055 . S
O193 C196 1.259 . S
C194 O222 1.256 . S
C194 O223 1.244 . S
Zn195 O197 2.046 . S
Zn195 O199 2.055 . S
Zn195 N201 2.036 . S
Zn195 O219 2.066 . S
Zn195 O223 2.053 . S
C196 O193 1.259 . S
C196 O197 1.254 . S
O197 Zn195 2.046 . S
O197 C196 1.254 . S
C198 O219 1.256 . S
C198 O220 1.244 . S
O199 Zn195 2.055 . S
O199 C221 1.259 . S
O200 Zn192 2.046 . S
O200 C221 1.254 . S
N201 Zn195 2.036 . S
N201 C202 1.298 . S
N201 N204 1.398 . S
C202 N201 1.298 . S
C202 N205 1.367 . S
C202 C215 1.481 . S
C203 N204 1.299 . S
C203 N205 1.379 . S
N204 N201 1.398 . S
N204 C203 1.299 . S
N205 C202 1.367 . S
N205 C203 1.379 . S
C206 N208 1.298 . S
C206 N210 1.367 . S
C206 C214 1.481 . S
C207 N209 1.299 . S
C207 N210 1.379 . S
N208 Zn192 2.036 . S
N208 C206 1.298 . S
N208 N209 1.398 . S
N209 C207 1.299 . S
N209 N208 1.398 . S
N210 C206 1.367 . S
N210 C207 1.379 . S
H211 C214 0.980 . S
H212 C214 0.981 . S
H213 C214 0.981 . S
C214 C206 1.481 . S
C214 H211 0.980 . S
C214 H212 0.981 . S
C214 H213 0.981 . S
C215 C202 1.481 . S
C215 H216 0.980 . S
C215 H217 0.981 1_655 S
C215 H218 0.981 . S
H216 C215 0.980 . S
H217 C215 0.981 1_455 S
H218 C215 0.981 . S
O219 Zn195 2.066 . S
O219 C198 1.256 . S
O220 Zn192 2.053 . S
O220 C198 1.244 . S
C221 O199 1.259 . S
C221 O200 1.254 . S
O222 Zn192 2.066 . S
O222 C194 1.256 . S
O223 C194 1.244 . S
O223 Zn195 2.053 . S
Zn224 O225 2.055 . S
Zn224 O232 2.046 . S
Zn224 N240 2.036 . S
Zn224 O252 2.053 . S
Zn224 O254 2.066 . S
O225 Zn224 2.055 . S
O225 C228 1.259 . S
C226 O254 1.256 . S
C226 O255 1.244 . S
Zn227 O229 2.046 . S
Zn227 O231 2.055 . S
Zn227 N233 2.036 . S
Zn227 O251 2.066 . S
Zn227 O255 2.053 . S
C228 O225 1.259 . S
C228 O229 1.254 . S
O229 Zn227 2.046 . S
O229 C228 1.254 . S
C230 O251 1.256 . S
C230 O252 1.244 . S
O231 Zn227 2.055 . S
O231 C253 1.259 . S
O232 Zn224 2.046 . S
O232 C253 1.254 . S
N233 Zn227 2.036 . S
N233 C234 1.298 . S
N233 N236 1.398 . S
C234 N233 1.298 . S
C234 N237 1.367 . S
C234 C247 1.481 . S
C235 N236 1.299 . S
C235 N237 1.379 . S
N236 N233 1.398 . S
N236 C235 1.299 . S
N237 C234 1.367 . S
N237 C235 1.379 . S
C238 N240 1.298 . S
C238 N242 1.367 . S
C238 C246 1.481 . S
C239 N241 1.299 . S
C239 N242 1.379 . S
N240 Zn224 2.036 . S
N240 C238 1.298 . S
N240 N241 1.398 . S
N241 C239 1.299 . S
N241 N240 1.398 . S
N242 C238 1.367 . S
N242 C239 1.379 . S
H243 C246 0.980 . S
H244 C246 0.981 1_545 S
H245 C246 0.981 . S
C246 C238 1.481 . S
C246 H243 0.980 . S
C246 H244 0.981 1_565 S
C246 H245 0.981 . S
C247 C234 1.481 . S
C247 H248 0.980 . S
C247 H249 0.981 . S
C247 H250 0.981 . S
H248 C247 0.980 . S
H249 C247 0.981 . S
H250 C247 0.981 . S
O251 Zn227 2.066 . S
O251 C230 1.256 . S
O252 Zn224 2.053 . S
O252 C230 1.244 . S
C253 O231 1.259 . S
C253 O232 1.254 . S
O254 Zn224 2.066 . S
O254 C226 1.256 . S
O255 C226 1.244 . S
O255 Zn227 2.053 . S
Zn256 O257 2.055 . S
Zn256 O264 2.046 1_554 S
Zn256 N272 2.036 . S
Zn256 O284 2.053 1_554 S
Zn256 O286 2.066 . S
O257 Zn256 2.055 . S
O257 C260 1.259 . S
C258 O286 1.256 . S
C258 O287 1.244 . S
Zn259 O261 2.046 . S
Zn259 O263 2.055 1_554 S
Zn259 N265 2.036 . S
Zn259 O283 2.066 1_554 S
Zn259 O287 2.053 . S
C260 O257 1.259 . S
C260 O261 1.254 . S
O261 Zn259 2.046 . S
O261 C260 1.254 . S
C262 O283 1.256 . S
C262 O284 1.244 . S
O263 Zn259 2.055 1_556 S
O263 C285 1.259 . S
O264 Zn256 2.046 1_556 S
O264 C285 1.254 . S
N265 Zn259 2.036 . S
N265 C266 1.298 . S
N265 N268 1.398 . S
C266 N265 1.298 . S
C266 N269 1.367 . S
C266 C279 1.481 1_554 S
C267 N268 1.299 . S
C267 N269 1.379 . S
N268 N265 1.398 . S
N268 C267 1.299 . S
N269 C266 1.367 . S
N269 C267 1.379 . S
C270 N272 1.298 . S
C270 N274 1.367 . S
C270 C278 1.481 . S
C271 N273 1.299 . S
C271 N274 1.379 . S
N272 Zn256 2.036 . S
N272 C270 1.298 . S
N272 N273 1.398 . S
N273 C271 1.299 . S
N273 N272 1.398 . S
N274 C270 1.367 . S
N274 C271 1.379 . S
H275 C278 0.980 . S
H276 C278 0.981 . S
H277 C278 0.981 . S
C278 C270 1.481 . S
C278 H275 0.980 . S
C278 H276 0.981 . S
C278 H277 0.981 . S
C279 C266 1.481 1_556 S
C279 H280 0.980 . S
C279 H281 0.981 . S
C279 H282 0.981 . S
H280 C279 0.980 . S
H281 C279 0.981 . S
H282 C279 0.981 . S
O283 Zn259 2.066 1_556 S
O283 C262 1.256 . S
O284 Zn256 2.053 1_556 S
O284 C262 1.244 . S
C285 O263 1.259 . S
C285 O264 1.254 . S
O286 Zn256 2.066 . S
O286 C258 1.256 . S
O287 C258 1.244 . S
O287 Zn259 2.053 . S
Zn288 O289 2.055 . S
Zn288 O296 2.046 . S
Zn288 N304 2.036 . S
Zn288 O316 2.053 . S
Zn288 O318 2.066 . S
O289 Zn288 2.055 . S
O289 C292 1.259 . S
C290 O318 1.256 . S
C290 O319 1.244 . S
Zn291 O293 2.046 . S
Zn291 O295 2.055 . S
Zn291 N297 2.036 . S
Zn291 O315 2.066 . S
Zn291 O319 2.053 . S
C292 O289 1.259 . S
C292 O293 1.254 . S
O293 Zn291 2.046 . S
O293 C292 1.254 . S
C294 O315 1.256 . S
C294 O316 1.244 . S
O295 Zn291 2.055 . S
O295 C317 1.259 . S
O296 Zn288 2.046 . S
O296 C317 1.254 . S
N297 Zn291 2.036 . S
N297 C298 1.298 . S
N297 N300 1.398 . S
C298 N297 1.298 . S
C298 N301 1.367 . S
C298 C311 1.481 . S
C299 N300 1.299 . S
C299 N301 1.379 . S
N300 N297 1.398 . S
N300 C299 1.299 . S
N301 C298 1.367 . S
N301 C299 1.379 . S
C302 N304 1.298 . S
C302 N306 1.367 . S
C302 C310 1.481 . S
C303 N305 1.299 . S
C303 N306 1.379 . S
N304 Zn288 2.036 . S
N304 C302 1.298 . S
N304 N305 1.398 . S
N305 C303 1.299 . S
N305 N304 1.398 . S
N306 C302 1.367 . S
N306 C303 1.379 . S
H307 C310 0.980 . S
H308 C310 0.981 . S
H309 C310 0.981 . S
C310 C302 1.481 . S
C310 H307 0.980 . S
C310 H308 0.981 . S
C310 H309 0.981 . S
C311 C298 1.481 . S
C311 H312 0.980 . S
C311 H313 0.981 1_455 S
C311 H314 0.981 . S
H312 C311 0.980 . S
H313 C311 0.981 1_655 S
H314 C311 0.981 . S
O315 Zn291 2.066 . S
O315 C294 1.256 . S
O316 Zn288 2.053 . S
O316 C294 1.244 . S
C317 O295 1.259 . S
C317 O296 1.254 . S
O318 Zn288 2.066 . S
O318 C290 1.256 . S
O319 C290 1.244 . S
O319 Zn291 2.053 . S
Zn320 O321 2.055 . S
Zn320 O328 2.046 . S
Zn320 N336 2.036 . S
Zn320 O348 2.053 . S
Zn320 O350 2.066 . S
O321 Zn320 2.055 . S
O321 C324 1.259 . S
C322 O350 1.256 . S
C322 O351 1.244 . S
Zn323 O325 2.046 . S
Zn323 O327 2.055 . S
Zn323 N329 2.036 . S
Zn323 O347 2.066 . S
Zn323 O351 2.053 . S
C324 O321 1.259 . S
C324 O325 1.254 . S
O325 Zn323 2.046 . S
O325 C324 1.254 . S
C326 O347 1.256 . S
C326 O348 1.244 . S
O327 Zn323 2.055 . S
O327 C349 1.259 . S
O328 Zn320 2.046 . S
O328 C349 1.254 . S
N329 Zn323 2.036 . S
N329 C330 1.298 . S
N329 N332 1.398 . S
C330 N329 1.298 . S
C330 N333 1.367 . S
C330 C343 1.481 . S
C331 N332 1.299 . S
C331 N333 1.379 . S
N332 N329 1.398 . S
N332 C331 1.299 . S
N333 C330 1.367 . S
N333 C331 1.379 . S
C334 N336 1.298 . S
C334 N338 1.367 . S
C334 C342 1.481 . S
C335 N337 1.299 . S
C335 N338 1.379 . S
N336 Zn320 2.036 . S
N336 C334 1.298 . S
N336 N337 1.398 . S
N337 C335 1.299 . S
N337 N336 1.398 . S
N338 C334 1.367 . S
N338 C335 1.379 . S
H339 C342 0.980 . S
H340 C342 0.981 1_565 S
H341 C342 0.981 . S
C342 C334 1.481 . S
C342 H339 0.980 . S
C342 H340 0.981 1_545 S
C342 H341 0.981 . S
C343 C330 1.481 . S
C343 H344 0.980 . S
C343 H345 0.981 . S
C343 H346 0.981 . S
H344 C343 0.980 . S
H345 C343 0.981 . S
H346 C343 0.981 . S
O347 Zn323 2.066 . S
O347 C326 1.256 . S
O348 Zn320 2.053 . S
O348 C326 1.244 . S
C349 O327 1.259 . S
C349 O328 1.254 . S
O350 Zn320 2.066 . S
O350 C322 1.256 . S
O351 C322 1.244 . S
O351 Zn323 2.053 . S
Zn352 O353 2.055 . S
Zn352 O360 2.046 1_554 S
Zn352 N368 2.036 . S
Zn352 O380 2.053 1_554 S
Zn352 O382 2.066 . S
O353 Zn352 2.055 . S
O353 C356 1.259 . S
C354 O382 1.256 . S
C354 O383 1.244 . S
Zn355 O357 2.046 . S
Zn355 O359 2.055 1_554 S
Zn355 N361 2.036 . S
Zn355 O379 2.066 1_554 S
Zn355 O383 2.053 . S
C356 O353 1.259 . S
C356 O357 1.254 . S
O357 Zn355 2.046 . S
O357 C356 1.254 . S
C358 O379 1.256 . S
C358 O380 1.244 . S
O359 Zn355 2.055 1_556 S
O359 C381 1.259 . S
O360 Zn352 2.046 1_556 S
O360 C381 1.254 . S
N361 Zn355 2.036 . S
N361 C362 1.298 . S
N361 N364 1.398 . S
C362 N361 1.298 . S
C362 N365 1.367 . S
C362 C375 1.481 1_554 S
C363 N364 1.299 . S
C363 N365 1.379 . S
N364 N361 1.398 . S
N364 C363 1.299 . S
N365 C362 1.367 . S
N365 C363 1.379 . S
C366 N368 1.298 . S
C366 N370 1.367 . S
C366 C374 1.481 . S
C367 N369 1.299 . S
C367 N370 1.379 . S
N368 Zn352 2.036 . S
N368 C366 1.298 . S
N368 N369 1.398 . S
N369 C367 1.299 . S
N369 N368 1.398 . S
N370 C366 1.367 . S
N370 C367 1.379 . S
H371 C374 0.980 . S
H372 C374 0.981 . S
H373 C374 0.981 . S
C374 C366 1.481 . S
C374 H371 0.980 . S
C374 H372 0.981 . S
C374 H373 0.981 . S
C375 C362 1.481 1_556 S
C375 H376 0.980 . S
C375 H377 0.981 . S
C375 H378 0.981 . S
H376 C375 0.980 . S
H377 C375 0.981 . S
H378 C375 0.981 . S
O379 Zn355 2.066 1_556 S
O379 C358 1.256 . S
O380 Zn352 2.053 1_556 S
O380 C358 1.244 . S
C381 O359 1.259 . S
C381 O360 1.254 . S
O382 Zn352 2.066 . S
O382 C354 1.256 . S
O383 C354 1.244 . S
O383 Zn355 2.053 . S
H384 C390 0.930 . S
H385 C393 0.930 . S
H386 C394 0.930 . S
H387 C395 0.930 . S
H388 C398 0.930 . S
H389 C399 0.930 . S
C390 H384 0.930 . S
C390 C391 1.355 . S
C390 C392 1.415 . S
C391 C390 1.355 . S
C391 C393 1.419 . S
C392 C390 1.415 . S
C392 C397 1.425 . S
C392 C399 1.409 . S
C393 H385 0.930 . S
C393 C391 1.419 . S
C393 C394 1.362 . S
C394 H386 0.930 . S
C394 C393 1.362 . S
C394 C397 1.409 . S
C395 H387 0.930 . S
C395 C396 1.355 . S
C395 C397 1.415 . S
C396 C395 1.355 . S
C396 C398 1.419 . S
C397 C392 1.425 . S
C397 C394 1.409 . S
C397 C395 1.415 . S
C398 H388 0.930 . S
C398 C396 1.419 . S
C398 C399 1.362 . S
C399 H389 0.930 . S
C399 C392 1.409 . S
C399 C398 1.362 . S
H400 C406 0.930 . S
H401 C409 0.930 . S
H402 C410 0.930 . S
H403 C411 0.930 . S
H404 C414 0.930 . S
H405 C415 0.930 . S
C406 H400 0.930 . S
C406 C407 1.355 . S
C406 C408 1.415 . S
C407 C406 1.355 . S
C407 C409 1.419 . S
C408 C406 1.415 . S
C408 C413 1.425 . S
C408 C415 1.409 . S
C409 H401 0.930 . S
C409 C407 1.419 . S
C409 C410 1.362 . S
C410 H402 0.930 . S
C410 C409 1.362 . S
C410 C413 1.409 . S
C411 H403 0.930 . S
C411 C412 1.355 . S
C411 C413 1.415 . S
C412 C411 1.355 . S
C412 C414 1.419 . S
C413 C408 1.425 . S
C413 C410 1.409 . S
C413 C411 1.415 . S
C414 H404 0.930 . S
C414 C412 1.419 . S
C414 C415 1.362 . S
C415 H405 0.930 . S
C415 C408 1.409 . S
C415 C414 1.362 . S
H416 C422 0.930 . S
H417 C425 0.930 . S
H418 C426 0.930 . S
H419 C427 0.930 . S
H420 C430 0.930 . S
H421 C431 0.930 . S
C422 H416 0.930 . S
C422 C423 1.355 . S
C422 C424 1.415 . S
C423 C422 1.355 . S
C423 C425 1.419 . S
C424 C422 1.415 . S
C424 C429 1.425 . S
C424 C431 1.409 . S
C425 H417 0.930 . S
C425 C423 1.419 . S
C425 C426 1.362 . S
C426 H418 0.930 . S
C426 C425 1.362 . S
C426 C429 1.409 . S
C427 H419 0.930 . S
C427 C428 1.355 . S
C427 C429 1.415 . S
C428 C427 1.355 . S
C428 C430 1.419 . S
C429 C424 1.425 . S
C429 C426 1.409 . S
C429 C427 1.415 . S
C430 H420 0.930 . S
C430 C428 1.419 . S
C430 C431 1.362 . S
C431 H421 0.930 . S
C431 C424 1.409 . S
C431 C430 1.362 . S
H432 C438 0.930 . S
H433 C441 0.930 . S
H434 C442 0.930 . S
H435 C443 0.930 . S
H436 C446 0.930 . S
H437 C447 0.930 . S
C438 H432 0.930 . S
C438 C439 1.355 . S
C438 C440 1.415 . S
C439 C438 1.355 . S
C439 C441 1.419 . S
C440 C438 1.415 . S
C440 C445 1.425 . S
C440 C447 1.409 . S
C441 H433 0.930 . S
C441 C439 1.419 . S
C441 C442 1.362 . S
C442 H434 0.930 . S
C442 C441 1.362 . S
C442 C445 1.409 . S
C443 H435 0.930 . S
C443 C444 1.355 . S
C443 C445 1.415 . S
C444 C443 1.355 . S
C444 C446 1.419 . S
C445 C440 1.425 . S
C445 C442 1.409 . S
C445 C443 1.415 . S
C446 H436 0.930 . S
C446 C444 1.419 . S
C446 C447 1.362 . S
C447 H437 0.930 . S
C447 C440 1.409 . S
C447 C446 1.362 . S
H448 C454 0.930 . S
H449 C457 0.930 . S
H450 C458 0.930 . S
H451 C459 0.930 . S
H452 C462 0.930 . S
H453 C463 0.930 . S
C454 H448 0.930 . S
C454 C455 1.355 . S
C454 C456 1.415 . S
C455 C454 1.355 . S
C455 C457 1.419 . S
C456 C454 1.415 . S
C456 C461 1.425 . S
C456 C463 1.409 . S
C457 H449 0.930 . S
C457 C455 1.419 . S
C457 C458 1.362 . S
C458 H450 0.930 . S
C458 C457 1.362 . S
C458 C461 1.409 . S
C459 H451 0.930 . S
C459 C460 1.355 . S
C459 C461 1.415 . S
C460 C459 1.355 . S
C460 C462 1.419 . S
C461 C456 1.425 . S
C461 C458 1.409 . S
C461 C459 1.415 . S
C462 H452 0.930 . S
C462 C460 1.419 . S
C462 C463 1.362 . S
C463 H453 0.930 . S
C463 C456 1.409 . S
C463 C462 1.362 . S
H464 C470 0.930 . S
H465 C473 0.930 . S
H466 C474 0.930 . S
H467 C475 0.930 . S
H468 C478 0.930 . S
H469 C479 0.930 . S
C470 H464 0.930 . S
C470 C471 1.355 . S
C470 C472 1.415 . S
C471 C470 1.355 . S
C471 C473 1.419 . S
C472 C470 1.415 . S
C472 C477 1.425 . S
C472 C479 1.409 . S
C473 H465 0.930 . S
C473 C471 1.419 . S
C473 C474 1.362 . S
C474 H466 0.930 . S
C474 C473 1.362 . S
C474 C477 1.409 . S
C475 H467 0.930 . S
C475 C476 1.355 . S
C475 C477 1.415 . S
C476 C475 1.355 . S
C476 C478 1.419 . S
C477 C472 1.425 . S
C477 C474 1.409 . S
C477 C475 1.415 . S
C478 H468 0.930 . S
C478 C476 1.419 . S
C478 C479 1.362 . S
C479 H469 0.930 . S
C479 C472 1.409 . S
C479 C478 1.362 . S
H480 C486 0.930 . S
H481 C489 0.930 . S
H482 C490 0.930 . S
H483 C491 0.930 . S
H484 C494 0.930 . S
H485 C495 0.930 . S
C486 H480 0.930 . S
C486 C487 1.355 . S
C486 C488 1.415 1_556 S
C487 C486 1.355 . S
C487 C489 1.419 . S
C488 C486 1.415 1_554 S
C488 C493 1.425 1_554 S
C488 C495 1.409 . S
C489 H481 0.930 . S
C489 C487 1.419 . S
C489 C490 1.362 . S
C490 H482 0.930 . S
C490 C489 1.362 . S
C490 C493 1.409 . S
C491 H483 0.930 . S
C491 C492 1.355 . S
C491 C493 1.415 1_554 S
C492 C491 1.355 . S
C492 C494 1.419 . S
C493 C488 1.425 1_556 S
C493 C490 1.409 . S
C493 C491 1.415 1_556 S
C494 H484 0.930 . S
C494 C492 1.419 . S
C494 C495 1.362 . S
C495 H485 0.930 . S
C495 C488 1.409 . S
C495 C494 1.362 . S
H496 C502 0.930 . S
H497 C505 0.930 . S
H498 C506 0.930 . S
H499 C507 0.930 . S
H500 C510 0.930 . S
H501 C511 0.930 . S
C502 H496 0.930 . S
C502 C503 1.355 . S
C502 C504 1.415 . S
C503 C502 1.355 . S
C503 C505 1.419 . S
C504 C502 1.415 . S
C504 C509 1.425 . S
C504 C511 1.409 . S
C505 H497 0.930 . S
C505 C503 1.419 . S
C505 C506 1.362 . S
C506 H498 0.930 . S
C506 C505 1.362 . S
C506 C509 1.409 . S
C507 H499 0.930 . S
C507 C508 1.355 . S
C507 C509 1.415 . S
C508 C507 1.355 . S
C508 C510 1.419 . S
C509 C504 1.425 . S
C509 C506 1.409 . S
C509 C507 1.415 . S
C510 H500 0.930 . S
C510 C508 1.419 . S
C510 C511 1.362 . S
C511 H501 0.930 . S
C511 C504 1.409 . S
C511 C510 1.362 . S
H512 C518 0.930 . S
H513 C521 0.930 . S
H514 C522 0.930 . S
H515 C523 0.930 . S
H516 C526 0.930 . S
H517 C527 0.930 . S
C518 H512 0.930 . S
C518 C519 1.355 . S
C518 C520 1.415 . S
C519 C518 1.355 . S
C519 C521 1.419 . S
C520 C518 1.415 . S
C520 C525 1.425 . S
C520 C527 1.409 . S
C521 H513 0.930 . S
C521 C519 1.419 . S
C521 C522 1.362 . S
C522 H514 0.930 . S
C522 C521 1.362 . S
C522 C525 1.409 . S
C523 H515 0.930 . S
C523 C524 1.355 . S
C523 C525 1.415 . S
C524 C523 1.355 . S
C524 C526 1.419 . S
C525 C520 1.425 . S
C525 C522 1.409 . S
C525 C523 1.415 . S
C526 H516 0.930 . S
C526 C524 1.419 . S
C526 C527 1.362 . S
C527 H517 0.930 . S
C527 C520 1.409 . S
C527 C526 1.362 . S
H528 C534 0.930 . S
H529 C537 0.930 . S
H530 C538 0.930 . S
H531 C539 0.930 . S
H532 C542 0.930 . S
H533 C543 0.930 . S
C534 H528 0.930 . S
C534 C535 1.355 . S
C534 C536 1.415 1_556 S
C535 C534 1.355 . S
C535 C537 1.419 . S
C536 C534 1.415 1_554 S
C536 C541 1.425 1_554 S
C536 C543 1.409 . S
C537 H529 0.930 . S
C537 C535 1.419 . S
C537 C538 1.362 . S
C538 H530 0.930 . S
C538 C537 1.362 . S
C538 C541 1.409 . S
C539 H531 0.930 . S
C539 C540 1.355 . S
C539 C541 1.415 1_554 S
C540 C539 1.355 . S
C540 C542 1.419 . S
C541 C536 1.425 1_556 S
C541 C538 1.409 . S
C541 C539 1.415 1_556 S
C542 H532 0.930 . S
C542 C540 1.419 . S
C542 C543 1.362 . S
C543 H533 0.930 . S
C543 C536 1.409 . S
C543 C542 1.362 . S
H544 C550 0.930 . S
H545 C553 0.930 . S
H546 C554 0.930 . S
H547 C555 0.930 . S
H548 C558 0.930 . S
H549 C559 0.930 . S
C550 H544 0.930 . S
C550 C551 1.355 . S
C550 C552 1.415 . S
C551 C550 1.355 . S
C551 C553 1.419 . S
C552 C550 1.415 . S
C552 C557 1.425 . S
C552 C559 1.409 . S
C553 H545 0.930 . S
C553 C551 1.419 . S
C553 C554 1.362 . S
C554 H546 0.930 . S
C554 C553 1.362 . S
C554 C557 1.409 . S
C555 H547 0.930 . S
C555 C556 1.355 . S
C555 C557 1.415 . S
C556 C555 1.355 . S
C556 C558 1.419 . S
C557 C552 1.425 . S
C557 C554 1.409 . S
C557 C555 1.415 . S
C558 H548 0.930 . S
C558 C556 1.419 . S
C558 C559 1.362 . S
C559 H549 0.930 . S
C559 C552 1.409 . S
C559 C558 1.362 . S
H560 C566 0.930 . S
H561 C569 0.930 . S
H562 C570 0.930 . S
H563 C571 0.930 . S
H564 C574 0.930 . S
H565 C575 0.930 . S
C566 H560 0.930 . S
C566 C567 1.355 . S
C566 C568 1.415 . S
C567 C566 1.355 . S
C567 C569 1.419 . S
C568 C566 1.415 . S
C568 C573 1.425 . S
C568 C575 1.409 . S
C569 H561 0.930 . S
C569 C567 1.419 . S
C569 C570 1.362 . S
C570 H562 0.930 . S
C570 C569 1.362 . S
C570 C573 1.409 . S
C571 H563 0.930 . S
C571 C572 1.355 . S
C571 C573 1.415 . S
C572 C571 1.355 . S
C572 C574 1.419 . S
C573 C568 1.425 . S
C573 C570 1.409 . S
C573 C571 1.415 . S
C574 H564 0.930 . S
C574 C572 1.419 . S
C574 C575 1.362 . S
C575 H565 0.930 . S
C575 C568 1.409 . S
C575 C574 1.362 . S
H576 C582 0.930 . S
H577 C585 0.930 . S
H578 C586 0.930 1_554 S
H579 C587 0.930 . S
H580 C590 0.930 . S
H581 C591 0.930 1_556 S
C582 H576 0.930 . S
C582 C583 1.355 . S
C582 C584 1.415 . S
C583 C582 1.355 . S
C583 C585 1.419 . S
C584 C582 1.415 . S
C584 C589 1.425 1_566 S
C584 C591 1.409 1_566 S
C585 H577 0.930 . S
C585 C583 1.419 . S
C585 C586 1.362 . S
C586 H578 0.930 1_556 S
C586 C585 1.362 . S
C586 C589 1.409 1_566 S
C587 H579 0.930 . S
C587 C588 1.355 . S
C587 C589 1.415 . S
C588 C587 1.355 . S
C588 C590 1.419 . S
C589 C584 1.425 1_544 S
C589 C586 1.409 1_544 S
C589 C587 1.415 . S
C590 H580 0.930 . S
C590 C588 1.419 . S
C590 C591 1.362 . S
C591 H581 0.930 1_554 S
C591 C584 1.409 1_544 S
C591 C590 1.362 . S
H592 C598 0.930 . S
H593 C601 0.930 . S
H594 C602 0.930 . S
H595 C603 0.930 . S
H596 C606 0.930 . S
H597 C607 0.930 . S
C598 H592 0.930 . S
C598 C599 1.355 . S
C598 C600 1.415 . S
C599 C598 1.355 . S
C599 C601 1.419 . S
C600 C598 1.415 . S
C600 C605 1.425 . S
C600 C607 1.409 . S
C601 H593 0.930 . S
C601 C599 1.419 . S
C601 C602 1.362 . S
C602 H594 0.930 . S
C602 C601 1.362 . S
C602 C605 1.409 . S
C603 H595 0.930 . S
C603 C604 1.355 . S
C603 C605 1.415 . S
C604 C603 1.355 . S
C604 C606 1.419 . S
C605 C600 1.425 . S
C605 C602 1.409 . S
C605 C603 1.415 . S
C606 H596 0.930 . S
C606 C604 1.419 . S
C606 C607 1.362 . S
C607 H597 0.930 . S
C607 C600 1.409 . S
C607 C606 1.362 . S
H608 C614 0.930 . S
H609 C617 0.930 . S
H610 C618 0.930 1_655 S
H611 C619 0.930 . S
H612 C622 0.930 . S
H613 C623 0.930 1_455 S
C614 H608 0.930 . S
C614 C615 1.355 . S
C614 C616 1.415 . S
C615 C614 1.355 . S
C615 C617 1.419 . S
C616 C614 1.415 . S
C616 C621 1.425 1_455 S
C616 C623 1.409 1_455 S
C617 H609 0.930 . S
C617 C615 1.419 . S
C617 C618 1.362 . S
C618 H610 0.930 1_455 S
C618 C617 1.362 . S
C618 C621 1.409 1_455 S
C619 H611 0.930 . S
C619 C620 1.355 . S
C619 C621 1.415 . S
C620 C619 1.355 . S
C620 C622 1.419 . S
C621 C616 1.425 1_655 S
C621 C618 1.409 1_655 S
C621 C619 1.415 . S
C622 H612 0.930 . S
C622 C620 1.419 . S
C622 C623 1.362 . S
C623 H613 0.930 1_655 S
C623 C616 1.409 1_655 S
C623 C622 1.362 . S
H624 C630 0.930 . S
H625 C633 0.930 . S
H626 C634 0.930 . S
H627 C635 0.930 . S
H628 C638 0.930 . S
H629 C639 0.930 . S
C630 H624 0.930 . S
C630 C631 1.355 . S
C630 C632 1.415 1_565 S
C631 C630 1.355 . S
C631 C633 1.419 . S
C632 C630 1.415 1_545 S
C632 C637 1.425 1_544 S
C632 C639 1.409 . S
C633 H625 0.930 . S
C633 C631 1.419 . S
C633 C634 1.362 1_554 S
C634 H626 0.930 . S
C634 C633 1.362 1_556 S
C634 C637 1.409 . S
C635 H627 0.930 . S
C635 C636 1.355 . S
C635 C637 1.415 1_545 S
C636 C635 1.355 . S
C636 C638 1.419 . S
C637 C632 1.425 1_566 S
C637 C634 1.409 . S
C637 C635 1.415 1_565 S
C638 H628 0.930 . S
C638 C636 1.419 . S
C638 C639 1.362 1_556 S
C639 H629 0.930 . S
C639 C632 1.409 . S
C639 C638 1.362 1_554 S
H640 C646 0.930 . S
H641 C649 0.930 . S
H642 C650 0.930 . S
H643 C651 0.930 . S
H644 C654 0.930 . S
H645 C655 0.930 . S
C646 H640 0.930 . S
C646 C647 1.355 . S
C646 C648 1.415 . S
C647 C646 1.355 . S
C647 C649 1.419 . S
C648 C646 1.415 . S
C648 C653 1.425 . S
C648 C655 1.409 . S
C649 H641 0.930 . S
C649 C647 1.419 . S
C649 C650 1.362 . S
C650 H642 0.930 . S
C650 C649 1.362 . S
C650 C653 1.409 . S
C651 H643 0.930 . S
C651 C652 1.355 . S
C651 C653 1.415 . S
C652 C651 1.355 . S
C652 C654 1.419 . S
C653 C648 1.425 . S
C653 C650 1.409 . S
C653 C651 1.415 . S
C654 H644 0.930 . S
C654 C652 1.419 . S
C654 C655 1.362 . S
C655 H645 0.930 . S
C655 C648 1.409 . S
C655 C654 1.362 . S
H656 C662 0.930 . S
H657 C665 0.930 . S
H658 C666 0.930 . S
H659 C667 0.930 . S
H660 C670 0.930 . S
H661 C671 0.930 . S
C662 H656 0.930 . S
C662 C663 1.355 . S
C662 C664 1.415 . S
C663 C662 1.355 . S
C663 C665 1.419 . S
C664 C662 1.415 . S
C664 C669 1.425 1_455 S
C664 C671 1.411 . S
C665 H657 0.930 . S
C665 C663 1.419 . S
C665 C666 1.361 1_455 S
C666 H658 0.930 . S
C666 C665 1.361 1_655 S
C666 C669 1.411 . S
C667 H659 0.930 . S
C667 C668 1.355 . S
C667 C669 1.415 . S
C668 C667 1.355 . S
C668 C670 1.419 . S
C669 C664 1.425 1_655 S
C669 C666 1.411 . S
C669 C667 1.415 . S
C670 H660 0.930 . S
C670 C668 1.419 . S
C670 C671 1.361 1_655 S
C671 H661 0.930 . S
C671 C664 1.411 . S
C671 C670 1.361 1_455 S
H672 C678 0.930 . S
H673 C681 0.930 . S
H674 C682 0.930 . S
H675 C683 0.930 . S
H676 C686 0.930 . S
H677 C687 0.930 . S
C678 H672 0.930 . S
C678 C679 1.355 . S
C678 C680 1.415 . S
C679 C678 1.355 . S
C679 C681 1.419 . S
C680 C678 1.415 . S
C680 C685 1.425 1_565 S
C680 C687 1.409 . S
C681 H673 0.930 . S
C681 C679 1.419 . S
C681 C682 1.362 1_565 S
C682 H674 0.930 . S
C682 C681 1.362 1_545 S
C682 C685 1.409 . S
C683 H675 0.930 . S
C683 C684 1.355 . S
C683 C685 1.415 . S
C684 C683 1.355 . S
C684 C686 1.419 . S
C685 C680 1.425 1_545 S
C685 C682 1.409 . S
C685 C683 1.415 . S
C686 H676 0.930 . S
C686 C684 1.419 . S
C686 C687 1.362 1_545 S
C687 H677 0.930 . S
C687 C680 1.409 . S
C687 C686 1.362 1_565 S
H688 C694 0.930 . S
H689 C697 0.930 . S
H690 C698 0.930 . S
H691 C699 0.930 . S
H692 C702 0.930 . S
H693 C703 0.930 . S
C694 H688 0.930 . S
C694 C695 1.355 . S
C694 C696 1.415 . S
C695 C694 1.355 . S
C695 C697 1.419 . S
C696 C694 1.415 . S
C696 C701 1.425 . S
C696 C703 1.409 . S
C697 H689 0.930 . S
C697 C695 1.419 . S
C697 C698 1.362 . S
C698 H690 0.930 . S
C698 C697 1.362 . S
C698 C701 1.409 . S
C699 H691 0.930 . S
C699 C700 1.355 . S
C699 C701 1.415 . S
C700 C699 1.355 . S
C700 C702 1.419 . S
C701 C696 1.425 . S
C701 C698 1.409 . S
C701 C699 1.415 . S
C702 H692 0.930 . S
C702 C700 1.419 . S
C702 C703 1.362 . S
C703 H693 0.930 . S
C703 C696 1.409 . S
C703 C702 1.362 . S
H704 C710 0.930 . S
H705 C713 0.930 . S
H706 C714 0.930 . S
H707 C715 0.930 . S
H708 C718 0.930 . S
H709 C719 0.930 . S
C710 H704 0.930 . S
C710 C711 1.355 . S
C710 C712 1.415 . S
C711 C710 1.355 . S
C711 C713 1.419 1_556 S
C712 C710 1.415 . S
C712 C717 1.423 1_456 S
C712 C719 1.409 . S
C713 H705 0.930 . S
C713 C711 1.419 1_554 S
C713 C714 1.362 1_455 S
C714 H706 0.930 . S
C714 C713 1.362 1_655 S
C714 C717 1.411 . S
C715 H707 0.930 . S
C715 C716 1.355 1_554 S
C715 C717 1.415 . S
C716 C715 1.355 1_556 S
C716 C718 1.419 . S
C717 C712 1.423 1_654 S
C717 C714 1.411 . S
C717 C715 1.415 . S
C718 H708 0.930 . S
C718 C716 1.419 . S
C718 C719 1.362 1_655 S
C719 H709 0.930 . S
C719 C712 1.409 . S
C719 C718 1.362 1_455 S
H720 C726 0.930 . S
H721 C729 0.930 . S
H722 C730 0.930 . S
H723 C731 0.930 . S
H724 C734 0.930 . S
H725 C735 0.930 . S
C726 H720 0.930 . S
C726 C727 1.355 . S
C726 C728 1.415 . S
C727 C726 1.355 . S
C727 C729 1.419 . S
C728 C726 1.415 . S
C728 C733 1.425 1_655 S
C728 C735 1.409 . S
C729 H721 0.930 . S
C729 C727 1.419 . S
C729 C730 1.362 1_655 S
C730 H722 0.930 . S
C730 C729 1.362 1_455 S
C730 C733 1.409 . S
C731 H723 0.930 . S
C731 C732 1.355 . S
C731 C733 1.415 . S
C732 C731 1.355 . S
C732 C734 1.419 . S
C733 C728 1.425 1_455 S
C733 C730 1.409 . S
C733 C731 1.415 . S
C734 H724 0.930 . S
C734 C732 1.419 . S
C734 C735 1.362 1_455 S
C735 H725 0.930 . S
C735 C728 1.409 . S
C735 C734 1.362 1_655 S
H736 C742 0.930 . S
H737 C745 0.930 . S
H738 C746 0.930 . S
H739 C747 0.930 . S
H740 C750 0.930 . S
H741 C751 0.930 . S
C742 H736 0.930 . S
C742 C743 1.355 . S
C742 C744 1.373 1_545 S
C743 C742 1.355 . S
C743 C745 1.419 . S
C744 C742 1.373 1_565 S
C744 C749 1.453 1_565 S
C744 C751 1.439 . S
C745 H737 0.930 . S
C745 C743 1.419 . S
C745 C746 1.362 . S
C746 H738 0.930 . S
C746 C745 1.362 . S
C746 C749 1.439 . S
C747 H739 0.930 . S
C747 C748 1.355 . S
C747 C749 1.373 1_565 S
C748 C747 1.355 . S
C748 C750 1.419 . S
C749 C744 1.453 1_545 S
C749 C746 1.439 . S
C749 C747 1.373 1_545 S
C750 H740 0.930 . S
C750 C748 1.419 . S
C750 C751 1.362 . S
C751 H741 0.930 . S
C751 C744 1.439 . S
C751 C750 1.362 . S
H752 C758 0.930 . S
H753 C761 0.928 1_556 S
H754 C762 0.930 . S
H755 C763 0.930 1_556 S
H756 C766 0.930 . S
H757 C767 0.930 . S
C758 H752 0.930 . S
C758 C759 1.355 . S
C758 C760 1.415 . S
C759 C758 1.355 . S
C759 C761 1.422 . S
C760 C758 1.415 . S
C760 C765 1.425 . S
C760 C767 1.409 . S
C761 H753 0.928 1_554 S
C761 C759 1.422 . S
C761 C762 1.362 1_554 S
C762 H754 0.930 . S
C762 C761 1.362 1_556 S
C762 C765 1.409 1_556 S
C763 H755 0.930 1_554 S
C763 C764 1.355 . S
C763 C765 1.415 . S
C764 C763 1.355 . S
C764 C766 1.419 . S
C765 C760 1.425 . S
C765 C762 1.409 1_554 S
C765 C763 1.415 . S
C766 H756 0.930 . S
C766 C764 1.419 . S
C766 C767 1.362 . S
C767 H757 0.930 . S
C767 C760 1.409 . S
C767 C766 1.362 . S
H768 C774 0.930 . S
H769 C777 0.930 . S
H770 C778 0.930 . S
H771 C779 0.930 . S
H772 C782 0.930 . S
H773 C783 0.930 . S
C774 H768 0.930 . S
C774 C775 1.355 . S
C774 C776 1.415 1_565 S
C775 C774 1.355 . S
C775 C777 1.419 . S
C776 C774 1.415 1_545 S
C776 C781 1.425 1_545 S
C776 C783 1.409 . S
C777 H769 0.930 . S
C777 C775 1.419 . S
C777 C778 1.362 . S
C778 H770 0.930 . S
C778 C777 1.362 . S
C778 C781 1.409 . S
C779 H771 0.930 . S
C779 C780 1.355 . S
C779 C781 1.415 1_545 S
C780 C779 1.355 . S
C780 C782 1.419 . S
C781 C776 1.425 1_565 S
C781 C778 1.409 . S
C781 C779 1.415 1_565 S
C782 H772 0.930 . S
C782 C780 1.419 . S
C782 C783 1.362 . S
C783 H773 0.930 . S
C783 C776 1.409 . S
C783 C782 1.362 . S
H784 C790 0.930 . S
H785 C793 0.930 . S
H786 C794 0.930 . S
H787 C795 0.930 . S
H788 C798 0.930 . S
H789 C799 0.930 . S
C790 H784 0.930 . S
C790 C791 1.355 . S
C790 C792 1.415 . S
C791 C790 1.355 . S
C791 C793 1.419 . S
C792 C790 1.415 . S
C792 C797 1.425 . S
C792 C799 1.409 . S
C793 H785 0.930 . S
C793 C791 1.419 . S
C793 C794 1.362 . S
C794 H786 0.930 . S
C794 C793 1.362 . S
C794 C797 1.409 . S
C795 H787 0.930 . S
C795 C796 1.355 . S
C795 C797 1.415 . S
C796 C795 1.355 . S
C796 C798 1.419 . S
C797 C792 1.425 . S
C797 C794 1.409 . S
C797 C795 1.415 . S
C798 H788 0.930 . S
C798 C796 1.419 . S
C798 C799 1.362 . S
C799 H789 0.930 . S
C799 C792 1.409 . S
C799 C798 1.362 . S
H800 C806 0.930 . S
H801 C809 0.930 . S
H802 C810 0.930 . S
H803 C811 0.930 . S
H804 C814 0.930 . S
H805 C815 0.930 . S
C806 H800 0.930 . S
C806 C807 1.355 . S
C806 C808 1.415 . S
C807 C806 1.355 . S
C807 C809 1.419 . S
C808 C806 1.415 . S
C808 C813 1.425 1_655 S
C808 C815 1.409 . S
C809 H801 0.930 . S
C809 C807 1.419 . S
C809 C810 1.362 1_655 S
C810 H802 0.930 . S
C810 C809 1.362 1_455 S
C810 C813 1.409 . S
C811 H803 0.930 . S
C811 C812 1.355 . S
C811 C813 1.415 . S
C812 C811 1.355 . S
C812 C814 1.419 . S
C813 C808 1.425 1_455 S
C813 C810 1.409 . S
C813 C811 1.415 . S
C814 H804 0.930 . S
C814 C812 1.419 . S
C814 C815 1.362 1_455 S
C815 H805 0.930 . S
C815 C808 1.409 . S
C815 C814 1.362 1_655 S
H816 C822 0.930 . S
H817 C825 0.930 . S
H818 C826 0.930 . S
H819 C827 0.930 . S
H820 C830 0.930 . S
H821 C831 0.930 . S
C822 H816 0.930 . S
C822 C823 1.355 . S
C822 C824 1.415 . S
C823 C822 1.355 . S
C823 C825 1.419 . S
C824 C822 1.415 . S
C824 C829 1.425 1_545 S
C824 C831 1.409 1_545 S
C825 H817 0.930 . S
C825 C823 1.419 . S
C825 C826 1.362 . S
C826 H818 0.930 . S
C826 C825 1.362 . S
C826 C829 1.409 1_545 S
C827 H819 0.930 . S
C827 C828 1.355 . S
C827 C829 1.415 . S
C828 C827 1.355 . S
C828 C830 1.419 . S
C829 C824 1.425 1_565 S
C829 C826 1.409 1_565 S
C829 C827 1.415 . S
C830 H820 0.930 . S
C830 C828 1.419 . S
C830 C831 1.362 . S
C831 H821 0.930 . S
C831 C824 1.409 1_565 S
C831 C830 1.362 . S
H832 C838 0.930 . S
H833 C841 0.930 . S
H834 C842 0.930 . S
H835 C843 0.930 . S
H836 C846 0.930 . S
H837 C847 0.930 . S
C838 H832 0.930 . S
C838 C839 1.355 . S
C838 C840 1.415 . S
C839 C838 1.355 . S
C839 C841 1.419 . S
C840 C838 1.415 . S
C840 C845 1.425 . S
C840 C847 1.409 . S
C841 H833 0.930 . S
C841 C839 1.419 . S
C841 C842 1.362 . S
C842 H834 0.930 . S
C842 C841 1.362 . S
C842 C845 1.409 . S
C843 H835 0.930 . S
C843 C844 1.355 . S
C843 C845 1.415 . S
C844 C843 1.355 . S
C844 C846 1.419 . S
C845 C840 1.425 . S
C845 C842 1.409 . S
C845 C843 1.415 . S
C846 H836 0.930 . S
C846 C844 1.419 . S
C846 C847 1.362 . S
C847 H837 0.930 . S
C847 C840 1.409 . S
C847 C846 1.362 . S
H848 C854 0.930 . S
H849 C857 0.930 . S
H850 C858 0.930 1_655 S
H851 C859 0.930 . S
H852 C862 0.930 . S
H853 C863 0.930 1_455 S
C854 H848 0.930 . S
C854 C855 1.355 . S
C854 C856 1.415 . S
C855 C854 1.355 . S
C855 C857 1.419 . S
C856 C854 1.415 . S
C856 C861 1.425 1_455 S
C856 C863 1.409 1_455 S
C857 H849 0.930 . S
C857 C855 1.419 . S
C857 C858 1.362 . S
C858 H850 0.930 1_455 S
C858 C857 1.362 . S
C858 C861 1.409 1_455 S
C859 H851 0.930 . S
C859 C860 1.355 . S
C859 C861 1.415 . S
C860 C859 1.355 . S
C860 C862 1.419 . S
C861 C856 1.425 1_655 S
C861 C858 1.409 1_655 S
C861 C859 1.415 . S
C862 H852 0.930 . S
C862 C860 1.419 . S
C862 C863 1.362 . S
C863 H853 0.930 1_655 S
C863 C856 1.409 1_655 S
C863 C862 1.362 . S
H864 C870 0.930 . S
H865 C873 0.930 . S
H866 C874 0.930 . S
H867 C875 0.930 . S
H868 C878 0.930 . S
H869 C879 0.930 . S
C870 H864 0.930 . S
C870 C871 1.355 . S
C870 C872 1.415 . S
C871 C870 1.355 . S
C871 C873 1.419 . S
C872 C870 1.415 . S
C872 C877 1.425 . S
C872 C879 1.409 . S
C873 H865 0.930 . S
C873 C871 1.419 . S
C873 C874 1.362 . S
C874 H866 0.930 . S
C874 C873 1.362 . S
C874 C877 1.409 . S
C875 H867 0.930 . S
C875 C876 1.355 . S
C875 C877 1.415 . S
C876 C875 1.355 . S
C876 C878 1.419 . S
C877 C872 1.425 . S
C877 C874 1.409 . S
C877 C875 1.415 . S
C878 H868 0.930 . S
C878 C876 1.419 . S
C878 C879 1.362 . S
C879 H869 0.930 . S
C879 C872 1.409 . S
C879 C878 1.362 . S
H880 C886 0.930 . S
H881 C889 0.930 . S
H882 C890 0.930 . S
H883 C891 0.930 . S
H884 C894 0.930 . S
H885 C895 0.930 . S
C886 H880 0.930 . S
C886 C887 1.355 . S
C886 C888 1.415 . S
C887 C886 1.355 . S
C887 C889 1.419 . S
C888 C886 1.415 . S
C888 C893 1.425 . S
C888 C895 1.409 . S
C889 H881 0.930 . S
C889 C887 1.419 . S
C889 C890 1.362 . S
C890 H882 0.930 . S
C890 C889 1.362 . S
C890 C893 1.409 . S
C891 H883 0.930 . S
C891 C892 1.355 . S
C891 C893 1.415 . S
C892 C891 1.355 . S
C892 C894 1.419 . S
C893 C888 1.425 . S
C893 C890 1.409 . S
C893 C891 1.415 . S
C894 H884 0.930 . S
C894 C892 1.419 . S
C894 C895 1.362 . S
C895 H885 0.930 . S
C895 C888 1.409 . S
C895 C894 1.362 . S
H896 C902 0.930 . S
H897 C905 0.930 . S
H898 C906 0.930 . S
H899 C907 0.930 . S
H900 C910 0.930 . S
H901 C911 0.930 . S
C902 H896 0.930 . S
C902 C903 1.355 . S
C902 C904 1.415 . S
C903 C902 1.355 . S
C903 C905 1.419 . S
C904 C902 1.415 . S
C904 C909 1.425 . S
C904 C911 1.409 . S
C905 H897 0.930 . S
C905 C903 1.419 . S
C905 C906 1.362 . S
C906 H898 0.930 . S
C906 C905 1.362 . S
C906 C909 1.409 . S
C907 H899 0.930 . S
C907 C908 1.355 . S
C907 C909 1.415 . S
C908 C907 1.355 . S
C908 C910 1.419 . S
C909 C904 1.425 . S
C909 C906 1.409 . S
C909 C907 1.415 . S
C910 H900 0.930 . S
C910 C908 1.419 . S
C910 C911 1.362 . S
C911 H901 0.930 . S
C911 C904 1.409 . S
C911 C910 1.362 . S
H912 C918 0.930 . S
H913 C921 0.930 . S
H914 C922 0.930 . S
H915 C923 0.930 . S
H916 C926 0.930 . S
H917 C927 0.930 . S
C918 H912 0.930 . S
C918 C919 1.355 . S
C918 C920 1.415 . S
C919 C918 1.355 . S
C919 C921 1.419 . S
C920 C918 1.415 . S
C920 C925 1.425 . S
C920 C927 1.409 . S
C921 H913 0.930 . S
C921 C919 1.419 . S
C921 C922 1.362 . S
C922 H914 0.930 . S
C922 C921 1.362 . S
C922 C925 1.409 . S
C923 H915 0.930 . S
C923 C924 1.355 . S
C923 C925 1.415 . S
C924 C923 1.355 . S
C924 C926 1.419 . S
C925 C920 1.425 . S
C925 C922 1.409 . S
C925 C923 1.415 . S
C926 H916 0.930 . S
C926 C924 1.419 . S
C926 C927 1.362 . S
C927 H917 0.930 . S
C927 C920 1.409 . S
C927 C926 1.362 . S
H928 C934 0.930 . S
H929 C937 0.930 . S
H930 C938 0.930 . S
H931 C939 0.930 . S
H932 C942 0.930 . S
H933 C943 0.930 . S
C934 H928 0.930 . S
C934 C935 1.355 . S
C934 C936 1.415 . S
C935 C934 1.355 . S
C935 C937 1.419 . S
C936 C934 1.415 . S
C936 C941 1.425 . S
C936 C943 1.409 . S
C937 H929 0.930 . S
C937 C935 1.419 . S
C937 C938 1.362 . S
C938 H930 0.930 . S
C938 C937 1.362 . S
C938 C941 1.409 . S
C939 H931 0.930 . S
C939 C940 1.355 . S
C939 C941 1.415 . S
C940 C939 1.355 . S
C940 C942 1.419 . S
C941 C936 1.425 . S
C941 C938 1.409 . S
C941 C939 1.415 . S
C942 H932 0.930 . S
C942 C940 1.419 . S
C942 C943 1.362 . S
C943 H933 0.930 . S
C943 C936 1.409 . S
C943 C942 1.362 . S
H944 C950 0.930 . S
H945 C953 0.930 . S
H946 C954 0.930 . S
H947 C955 0.930 . S
H948 C958 0.930 . S
H949 C959 0.930 . S
C950 H944 0.930 . S
C950 C951 1.355 . S
C950 C952 1.415 . S
C951 C950 1.355 . S
C951 C953 1.419 . S
C952 C950 1.415 . S
C952 C957 1.425 . S
C952 C959 1.409 . S
C953 H945 0.930 . S
C953 C951 1.419 . S
C953 C954 1.362 . S
C954 H946 0.930 . S
C954 C953 1.362 . S
C954 C957 1.409 . S
C955 H947 0.930 . S
C955 C956 1.355 . S
C955 C957 1.415 . S
C956 C955 1.355 . S
C956 C958 1.419 . S
C957 C952 1.425 . S
C957 C954 1.409 . S
C957 C955 1.415 . S
C958 H948 0.930 . S
C958 C956 1.419 . S
C958 C959 1.362 . S
C959 H949 0.930 . S
C959 C952 1.409 . S
C959 C958 1.362 . S
C391 N13 1.284 . S
C396 N274 1.278 . S
C407 N50 1.289 . S
C412 N306 1.285 . S
C423 N82 1.278 . S
C428 N333 1.270 . S
C439 N370 1.253 . S
C444 N114 1.248 . S
C455 N146 1.288 . S
C460 N210 1.283 . S
C471 N237 1.248 . S
C476 N173 1.253 . S
C487 C326 2.351 . S
C492 C6 2.337 . S
C503 C354 2.364 . S
C508 C34 2.335 . S
C519 C66 2.341 . S
C524 C194 2.373 . S
C535 C230 2.353 . S
C540 C98 2.336 . S
C551 C258 2.335 . S
C556 C130 2.355 . S
C567 C166 2.360 . S
C572 C290 2.371 . S
C583 C253 1.948 . S
C588 C29 1.911 . S
C599 C260 1.923 . S
C604 C36 1.948 . S
C615 C292 1.892 . S
C620 C68 1.927 . S
C631 C100 1.947 . S
C636 C349 1.928 . S
C647 C132 1.891 . S
C652 C356 1.924 . S
C663 C189 1.892 . S
C668 C196 1.923 . S
C679 N18 2.374 1_565 S
C684 N109 2.369 1_545 S
C695 N45 2.377 . S
C700 N141 2.424 . S
C711 N77 2.407 1_455 S
C716 N178 2.367 1_655 S
C727 N301 2.386 1_655 S
C732 N205 2.364 1_455 S
C743 N242 2.447 1_545 S
C748 N338 2.424 1_565 S
C759 N365 2.439 . S
C764 N269 2.441 . S
C775 C228 1.645 . S
C780 C4 1.601 . S
C791 C285 1.627 . S
C796 C61 1.577 . S
C807 C93 1.581 . S
C812 C317 1.578 . S
C823 C324 1.596 . S
C828 C125 1.643 . S
C839 C381 1.579 . S
C844 C157 1.630 . S
C855 C164 1.605 . S
C860 C221 1.570 . S
C871 C2 1.833 . S
C876 C322 1.870 . S
C887 C38 1.838 . S
C892 C358 1.870 . S
C903 C70 1.824 . S
C908 C198 1.867 . S
C919 C102 1.857 . S
C924 C226 1.862 . S
C935 C134 1.811 . S
C940 C262 1.855 . S
C951 C294 1.867 . S
C956 C162 1.850 . S
