# Generated by pormake.
# Topology lcy-e, (6)-cn, num edge types: 1
# Building blocks:
#     Node 0, Type 0, BuildingBlock: HISSIN_clean_sbu_0, # of connection points: 6
#     Node 1, Type 0, BuildingBlock: HISSIN_clean_sbu_0, # of connection points: 6
#     Node 2, Type 0, BuildingBlock: HISSIN_clean_sbu_0, # of connection points: 6
#     Node 3, Type 0, BuildingBlock: HISSIN_clean_sbu_0, # of connection points: 6
#     Node 4, Type 0, BuildingBlock: HISSIN_clean_sbu_0, # of connection points: 6
#     Node 5, Type 0, BuildingBlock: HISSIN_clean_sbu_0, # of connection points: 6
#     Node 6, Type 0, BuildingBlock: HISSIN_clean_sbu_0, # of connection points: 6
#     Node 7, Type 0, BuildingBlock: HISSIN_clean_sbu_0, # of connection points: 6
#     Node 8, Type 0, BuildingBlock: HISSIN_clean_sbu_0, # of connection points: 6
#     Node 9, Type 0, BuildingBlock: HISSIN_clean_sbu_0, # of connection points: 6
#     Node 10, Type 0, BuildingBlock: HISSIN_clean_sbu_0, # of connection points: 6
#     Node 11, Type 0, BuildingBlock: HISSIN_clean_sbu_0, # of connection points: 6
#     Edge 12, Type (0, 0), BuildingBlock: KIFKEQ_clean_linker_1, # of connection points: 2
#     Edge 13, Type (0, 0), BuildingBlock: KIFKEQ_clean_linker_1, # of connection points: 2
#     Edge 14, Type (0, 0), BuildingBlock: KIFKEQ_clean_linker_1, # of connection points: 2
#     Edge 15, Type (0, 0), BuildingBlock: KIFKEQ_clean_linker_1, # of connection points: 2
#     Edge 16, Type (0, 0), BuildingBlock: KIFKEQ_clean_linker_1, # of connection points: 2
#     Edge 17, Type (0, 0), BuildingBlock: KIFKEQ_clean_linker_1, # of connection points: 2
#     Edge 18, Type (0, 0), BuildingBlock: KIFKEQ_clean_linker_1, # of connection points: 2
#     Edge 19, Type (0, 0), BuildingBlock: KIFKEQ_clean_linker_1, # of connection points: 2
#     Edge 20, Type (0, 0), BuildingBlock: KIFKEQ_clean_linker_1, # of connection points: 2
#     Edge 21, Type (0, 0), BuildingBlock: KIFKEQ_clean_linker_1, # of connection points: 2
#     Edge 22, Type (0, 0), BuildingBlock: KIFKEQ_clean_linker_1, # of connection points: 2
#     Edge 23, Type (0, 0), BuildingBlock: KIFKEQ_clean_linker_1, # of connection points: 2
#     Edge 24, Type (0, 0), BuildingBlock: KIFKEQ_clean_linker_1, # of connection points: 2
#     Edge 25, Type (0, 0), BuildingBlock: KIFKEQ_clean_linker_1, # of connection points: 2
#     Edge 26, Type (0, 0), BuildingBlock: KIFKEQ_clean_linker_1, # of connection points: 2
#     Edge 27, Type (0, 0), BuildingBlock: KIFKEQ_clean_linker_1, # of connection points: 2
#     Edge 28, Type (0, 0), BuildingBlock: KIFKEQ_clean_linker_1, # of connection points: 2
#     Edge 29, Type (0, 0), BuildingBlock: KIFKEQ_clean_linker_1, # of connection points: 2
#     Edge 30, Type (0, 0), BuildingBlock: KIFKEQ_clean_linker_1, # of connection points: 2
#     Edge 31, Type (0, 0), BuildingBlock: KIFKEQ_clean_linker_1, # of connection points: 2
#     Edge 32, Type (0, 0), BuildingBlock: KIFKEQ_clean_linker_1, # of connection points: 2
#     Edge 33, Type (0, 0), BuildingBlock: KIFKEQ_clean_linker_1, # of connection points: 2
#     Edge 34, Type (0, 0), BuildingBlock: KIFKEQ_clean_linker_1, # of connection points: 2
#     Edge 35, Type (0, 0), BuildingBlock: KIFKEQ_clean_linker_1, # of connection points: 2
#     Edge 36, Type (0, 0), BuildingBlock: KIFKEQ_clean_linker_1, # of connection points: 2
#     Edge 37, Type (0, 0), BuildingBlock: KIFKEQ_clean_linker_1, # of connection points: 2
#     Edge 38, Type (0, 0), BuildingBlock: KIFKEQ_clean_linker_1, # of connection points: 2
#     Edge 39, Type (0, 0), BuildingBlock: KIFKEQ_clean_linker_1, # of connection points: 2
#     Edge 40, Type (0, 0), BuildingBlock: KIFKEQ_clean_linker_1, # of connection points: 2
#     Edge 41, Type (0, 0), BuildingBlock: KIFKEQ_clean_linker_1, # of connection points: 2
#     Edge 42, Type (0, 0), BuildingBlock: KIFKEQ_clean_linker_1, # of connection points: 2
#     Edge 43, Type (0, 0), BuildingBlock: KIFKEQ_clean_linker_1, # of connection points: 2
#     Edge 44, Type (0, 0), BuildingBlock: KIFKEQ_clean_linker_1, # of connection points: 2
#     Edge 45, Type (0, 0), BuildingBlock: KIFKEQ_clean_linker_1, # of connection points: 2
#     Edge 46, Type (0, 0), BuildingBlock: KIFKEQ_clean_linker_1, # of connection points: 2
#     Edge 47, Type (0, 0), BuildingBlock: KIFKEQ_clean_linker_1, # of connection points: 2
# Relax obj value: 0.189
# Max RMSD: 0.287
# Mean RMSD: 0.273
data_MOF--net-lcy-e--node1-HISSIN_clean_sbu_0--edge1-KIFKEQ_clean_linker_1
_symmetry_space_group_name_H-M    P1
_symmetry_Int_Tables_number       1
_symmetry_cell_setting            triclinic
loop_
_symmetry_equiv_pos_as_xyz
'x, y, z'
_cell_length_a     44.525086
_cell_length_b     46.486954
_cell_length_c     45.539095
_cell_angle_alpha  89.818946
_cell_angle_beta   90.02115
_cell_angle_gamma 88.953173
loop_
_atom_site_label
_atom_site_type_symbol
_atom_site_fract_x
_atom_site_fract_y
_atom_site_fract_z
_atom_type_partial_charge
Eu0 Eu 0.117 0.22854 0.5271 0.0
Eu1 Eu 0.09846 0.27829 0.47813 0.0
C2 C 0.06708 0.27386 0.54207 0.0
C3 C 0.11617 0.16181 0.57759 0.0
C4 C 0.0852 0.16072 0.58333 0.0
C5 C 0.12171 0.11238 0.59487 0.0
C6 C 0.07265 0.13569 0.59502 0.0
C7 C 0.13423 0.13741 0.58337 0.0
C8 C 0.09077 0.11118 0.60096 0.0
C9 C 0.13014 0.18777 0.56513 0.0
O10 O 0.14355 0.28969 0.49575 0.0
O11 O 0.13668 0.2715 0.54176 0.0
C12 C 0.14854 0.29077 0.52403 0.0
O13 O 0.1556 0.23005 0.49558 0.0
O14 O 0.09498 0.32355 0.46513 0.0
O15 O 0.08067 0.29048 0.43512 0.0
O16 O 0.13033 0.247 0.45507 0.0
C17 C 0.15351 0.23343 0.46704 0.0
O18 O 0.08586 0.20724 0.4944 0.0
O19 O 0.06014 0.24748 0.47843 0.0
O20 O 0.07882 0.29156 0.52267 0.0
O21 O 0.13726 0.18655 0.53739 0.0
O22 O 0.1187 0.21282 0.5724 0.0
O23 O 0.07186 0.24612 0.53981 0.0
C24 C 0.1014 0.33217 0.41426 0.0
C25 C 0.13145 0.32537 0.4074 0.0
C26 C 0.09985 0.36606 0.37355 0.0
C27 C 0.14563 0.33889 0.38369 0.0
C28 C 0.08576 0.35257 0.39718 0.0
C29 C 0.13 0.35948 0.36646 0.0
C30 C 0.0858 0.31778 0.43861 0.0
C31 C 0.06258 0.2194 0.48108 0.0
H32 H 0.07071 0.17917 0.57875 0.0
H33 H 0.13642 0.09411 0.59951 0.0
H34 H 0.04871 0.13544 0.59916 0.0
H35 H 0.15815 0.13775 0.57904 0.0
H36 H 0.14388 0.30958 0.42033 0.0
H37 H 0.08689 0.38135 0.36051 0.0
H38 H 0.16889 0.33344 0.37907 0.0
H39 H 0.0625 0.35793 0.402 0.0
Eu40 Eu 0.97846 0.87866 0.71729 0.0
Eu41 Eu 0.02817 0.89627 0.76737 0.0
C42 C 0.96145 0.92507 0.76437 0.0
C43 C 0.92676 0.8801 0.64959 0.0
C44 C 0.89714 0.87386 0.64185 0.0
C45 C 0.93068 0.91 0.60576 0.0
C46 C 0.88444 0.88532 0.61618 0.0
C47 C 0.94334 0.89859 0.63157 0.0
C48 C 0.90117 0.90319 0.59752 0.0
C49 C 0.9402 0.8662 0.67579 0.0
O50 O 0.0105 0.85375 0.78138 0.0
O51 O 0.96382 0.85834 0.7608 0.0
C52 C 0.98176 0.84828 0.78173 0.0
O53 O 0.01123 0.84168 0.7195 0.0
O54 O 0.04208 0.90072 0.81305 0.0
O55 O 0.07215 0.91346 0.77812 0.0
O56 O 0.05237 0.86562 0.73599 0.0
C57 C 0.04037 0.8435 0.72266 0.0
O58 O 0.01009 0.91028 0.69561 0.0
O59 O 0.02397 0.93427 0.73704 0.0
O60 O 0.98235 0.91413 0.78189 0.0
O61 O 0.96889 0.86009 0.67457 0.0
O62 O 0.93211 0.87629 0.70136 0.0
O63 O 0.96259 0.9206 0.73604 0.0
C64 C 0.09434 0.8939 0.82091 0.0
C65 C 0.09421 0.864 0.82543 0.0
C66 C 0.1437 0.89565 0.84355 0.0
C67 C 0.11857 0.85007 0.8392 0.0
C68 C 0.11927 0.90956 0.82996 0.0
C69 C 0.14362 0.86574 0.84844 0.0
C70 C 0.06907 0.90898 0.80624 0.0
C71 C 0.0212 0.93313 0.70841 0.0
H72 H 0.8839 0.8598 0.65552 0.0
H73 H 0.94429 0.92353 0.59191 0.0
H74 H 0.86144 0.88013 0.61095 0.0
H75 H 0.96625 0.90384 0.63716 0.0
H76 H 0.07531 0.85144 0.81828 0.0
H77 H 0.16245 0.90839 0.8507 0.0
H78 H 0.11795 0.82699 0.84236 0.0
H79 H 0.11982 0.93263 0.82655 0.0
Eu80 Eu 0.3534 0.78821 0.02656 0.0
Eu81 Eu 0.37226 0.73855 0.97769 0.0
C82 C 0.40297 0.7421 0.04198 0.0
C83 C 0.35508 0.85433 0.07768 0.0
C84 C 0.37297 0.87293 0.06101 0.0
C85 C 0.36226 0.88505 0.12022 0.0
C86 C 0.3851 0.89758 0.0738 0.0
C87 C 0.35 0.86057 0.10739 0.0
C88 C 0.37983 0.904 0.10358 0.0
C89 C 0.34064 0.82901 0.06441 0.0
O90 O 0.32741 0.72658 0.99561 0.0
O91 O 0.33365 0.74542 0.04142 0.0
C92 C 0.32215 0.72591 0.02387 0.0
O93 O 0.31451 0.78572 0.99539 0.0
O94 O 0.37526 0.69357 0.96382 0.0
O95 O 0.39054 0.72714 0.93471 0.0
O96 O 0.34081 0.77056 0.95497 0.0
C97 C 0.31685 0.78279 0.96685 0.0
O98 O 0.3844 0.80914 0.99351 0.0
O99 O 0.41097 0.76886 0.97955 0.0
O100 O 0.39163 0.72467 0.02219 0.0
O101 O 0.33422 0.83053 0.03648 0.0
O102 O 0.35106 0.80363 0.072 0.0
O103 O 0.39809 0.7699 0.04013 0.0
C104 C 0.3702 0.68592 0.91256 0.0
C105 C 0.33996 0.69186 0.90564 0.0
C106 C 0.3736 0.65428 0.87023 0.0
C107 C 0.32664 0.67909 0.88106 0.0
C108 C 0.38681 0.66695 0.89477 0.0
C109 C 0.3434 0.6603 0.86286 0.0
C110 C 0.38511 0.69981 0.93762 0.0
C111 C 0.40836 0.79696 0.98159 0.0
H112 H 0.3774 0.86856 0.03805 0.0
H113 H 0.3574 0.88946 0.14308 0.0
H114 H 0.39878 0.91149 0.06043 0.0
H115 H 0.33619 0.84664 0.12065 0.0
H116 H 0.32678 0.70657 0.91906 0.0
H117 H 0.38708 0.63956 0.8571 0.0
H118 H 0.30344 0.68439 0.87596 0.0
H119 H 0.41015 0.66205 0.89976 0.0
Eu120 Eu 0.49141 0.13844 0.21649 0.0
Eu121 Eu 0.44311 0.12016 0.26819 0.0
C122 C 0.51047 0.09262 0.26352 0.0
C123 C 0.54227 0.13566 0.14854 0.0
C124 C 0.57344 0.13643 0.14431 0.0
C125 C 0.53782 0.10778 0.10353 0.0
C126 C 0.58672 0.123 0.11999 0.0
C127 C 0.52456 0.12102 0.12801 0.0
C128 C 0.56907 0.10863 0.09922 0.0
C129 C 0.52872 0.15064 0.17408 0.0
O130 O 0.46037 0.16333 0.28025 0.0
O131 O 0.50687 0.15867 0.25964 0.0
C132 C 0.48912 0.16867 0.28063 0.0
O133 O 0.45775 0.17467 0.21875 0.0
O134 O 0.43032 0.11758 0.31454 0.0
O135 O 0.40033 0.10188 0.28095 0.0
O136 O 0.41764 0.14994 0.23668 0.0
C137 C 0.42877 0.17218 0.22266 0.0
O138 O 0.46015 0.10588 0.19589 0.0
O139 O 0.44603 0.08235 0.23781 0.0
O140 O 0.48947 0.10239 0.28157 0.0
O141 O 0.49989 0.15614 0.17301 0.0
O142 O 0.53744 0.14205 0.20008 0.0
O143 O 0.50802 0.09675 0.2352 0.0
C144 C 0.37803 0.12245 0.32332 0.0
C145 C 0.36066 0.14366 0.30881 0.0
C146 C 0.34565 0.12738 0.36601 0.0
C147 C 0.33568 0.15637 0.3227 0.0
C148 C 0.37048 0.11463 0.35207 0.0
C149 C 0.32766 0.14819 0.35142 0.0
C150 C 0.40366 0.10788 0.30872 0.0
C151 C 0.44855 0.08339 0.20913 0.0
H152 H 0.58754 0.14762 0.15976 0.0
H153 H 0.52365 0.09664 0.08811 0.0
H154 H 0.61081 0.12435 0.11716 0.0
H155 H 0.50045 0.11987 0.13078 0.0
H156 H 0.36618 0.15014 0.28661 0.0
H157 H 0.34064 0.12098 0.38833 0.0
H158 H 0.32231 0.17213 0.31068 0.0
H159 H 0.38373 0.09848 0.36372 0.0
Eu160 Eu 0.59937 0.24149 0.53778 0.0
Eu161 Eu 0.62133 0.29041 0.49 0.0
C162 C 0.65004 0.22557 0.4924 0.0
C163 C 0.59806 0.19093 0.60434 0.0
C164 C 0.62924 0.18595 0.6058 0.0
C165 C 0.59308 0.17081 0.65343 0.0
C166 C 0.64219 0.1732 0.63081 0.0
C167 C 0.58015 0.18338 0.62837 0.0
C168 C 0.62426 0.16545 0.65495 0.0
C169 C 0.58392 0.20463 0.5784 0.0
O170 O 0.57837 0.27334 0.47228 0.0
O171 O 0.5806 0.2284 0.49307 0.0
C172 C 0.57216 0.24589 0.47154 0.0
O173 O 0.56099 0.2728 0.53291 0.0
O174 O 0.62629 0.30699 0.44518 0.0
O175 O 0.64148 0.33209 0.48213 0.0
O176 O 0.58838 0.31229 0.52143 0.0
C177 C 0.5638 0.30075 0.5319 0.0
O178 O 0.63129 0.27131 0.56151 0.0
O179 O 0.65932 0.28458 0.52191 0.0
O180 O 0.64137 0.2471 0.47516 0.0
O181 O 0.5788 0.23228 0.58024 0.0
O182 O 0.59429 0.19714 0.55267 0.0
O183 O 0.64347 0.22565 0.52043 0.0
C184 C 0.62207 0.35784 0.44106 0.0
C185 C 0.60144 0.37485 0.45706 0.0
C186 C 0.61701 0.39119 0.40002 0.0
C187 C 0.58893 0.40002 0.44471 0.0
C188 C 0.62964 0.36619 0.41245 0.0
C189 C 0.59657 0.40851 0.416 0.0
C190 C 0.63634 0.33172 0.45393 0.0
C191 C 0.65611 0.2818 0.55037 0.0
H192 H 0.64356 0.19194 0.58763 0.0
H193 H 0.57856 0.1648 0.67143 0.0
H194 H 0.6663 0.16966 0.63137 0.0
H195 H 0.55607 0.18718 0.62773 0.0
H196 H 0.59506 0.36876 0.47915 0.0
H197 H 0.62369 0.39724 0.37802 0.0
H198 H 0.57303 0.41266 0.45749 0.0
H199 H 0.64554 0.35345 0.39974 0.0
Eu200 Eu 0.94569 0.38349 0.7562 0.0
Eu201 Eu 0.99763 0.36829 0.80652 0.0
C202 C 0.99522 0.33694 0.74304 0.0
C203 C 0.87914 0.37808 0.70192 0.0
C204 C 0.87813 0.37737 0.67113 0.0
C205 C 0.83187 0.35234 0.70329 0.0
C206 C 0.85429 0.36435 0.65654 0.0
C207 C 0.85586 0.36523 0.7179 0.0
C208 C 0.83071 0.35183 0.6724 0.0
C209 C 0.90392 0.39333 0.71668 0.0
O210 O 0.01098 0.40996 0.78603 0.0
O211 O 0.99023 0.40199 0.74091 0.0
C212 C 0.01123 0.41339 0.75748 0.0
O213 O 0.94687 0.42213 0.78552 0.0
O214 O 0.04456 0.36474 0.82062 0.0
O215 O 0.00903 0.35278 0.85046 0.0
O216 O 0.96518 0.40061 0.82743 0.0
C217 C 0.95099 0.42208 0.81406 0.0
O218 O 0.92411 0.35367 0.78923 0.0
O219 O 0.96678 0.33048 0.80548 0.0
O220 O 0.01287 0.34873 0.76276 0.0
O221 O 0.90077 0.39917 0.74454 0.0
O222 O 0.93133 0.38521 0.71018 0.0
O223 O 0.96607 0.34072 0.74456 0.0
C224 C 0.05338 0.37081 0.8716 0.0
C225 C 0.0453 0.39874 0.88066 0.0
C226 C 0.09084 0.36836 0.91044 0.0
C227 C 0.0599 0.41138 0.90457 0.0
C228 C 0.07626 0.3558 0.88661 0.0
C229 C 0.08288 0.39632 0.91982 0.0
C230 C 0.03779 0.35656 0.8472 0.0
C231 C 0.9375 0.33153 0.80211 0.0
H232 H 0.89565 0.38726 0.65828 0.0
H233 H 0.81429 0.34264 0.71619 0.0
H234 H 0.85398 0.36472 0.63276 0.0
H235 H 0.856 0.36531 0.74168 0.0
H236 H 0.02765 0.41068 0.86933 0.0
H237 H 0.10801 0.35589 0.92186 0.0
H238 H 0.05337 0.43302 0.91095 0.0
H239 H 0.08267 0.33415 0.88007 0.0
Eu240 Eu 0.87264 0.76874 0.03747 0.0
Eu241 Eu 0.84988 0.72083 0.98921 0.0
C242 C 0.82163 0.78574 0.99253 0.0
C243 C 0.87443 0.81904 0.10422 0.0
C244 C 0.84376 0.8267 0.1046 0.0
C245 C 0.87941 0.83816 0.15365 0.0
C246 C 0.8311 0.84028 0.12924 0.0
C247 C 0.89206 0.82476 0.12897 0.0
C248 C 0.84879 0.84624 0.15407 0.0
C249 C 0.88841 0.80485 0.0785 0.0
O250 O 0.89251 0.73832 0.97098 0.0
O251 O 0.8911 0.78268 0.99287 0.0
C252 C 0.89908 0.76571 0.97087 0.0
O253 O 0.91097 0.73755 0.03131 0.0
O254 O 0.84501 0.70452 0.94436 0.0
O255 O 0.82919 0.67946 0.98121 0.0
O256 O 0.88271 0.69856 0.02056 0.0
C257 C 0.9079 0.70964 0.03002 0.0
O258 O 0.84072 0.73846 0.06077 0.0
O259 O 0.81201 0.72673 0.02119 0.0
O260 O 0.82985 0.76439 0.975 0.0
O261 O 0.89259 0.77706 0.08043 0.0
O262 O 0.87876 0.81278 0.05257 0.0
O263 O 0.82858 0.78527 0.02048 0.0
C264 C 0.84824 0.65361 0.94027 0.0
C265 C 0.87027 0.63745 0.9555 0.0
C266 C 0.85038 0.61854 0.90076 0.0
C267 C 0.88197 0.6118 0.94358 0.0
C268 C 0.83864 0.64407 0.91273 0.0
C269 C 0.87197 0.60182 0.91614 0.0
C270 C 0.83444 0.67992 0.95303 0.0
C271 C 0.81553 0.7288 0.04966 0.0
H272 H 0.82961 0.82222 0.08587 0.0
H273 H 0.89378 0.84272 0.17219 0.0
H274 H 0.80739 0.84589 0.12893 0.0
H275 H 0.91575 0.81896 0.12917 0.0
H276 H 0.87814 0.64444 0.97679 0.0
H277 H 0.84256 0.61199 0.87932 0.0
H278 H 0.89836 0.5995 0.9562 0.0
H279 H 0.82181 0.65627 0.90053 0.0
Eu280 Eu 0.52639 0.6274 0.25405 0.0
Eu281 Eu 0.47589 0.64406 0.3051 0.0
C282 C 0.47739 0.67455 0.24094 0.0
C283 C 0.59286 0.62992 0.19983 0.0
C284 C 0.59256 0.65968 0.19431 0.0
C285 C 0.64252 0.62618 0.17771 0.0
C286 C 0.61699 0.67253 0.18032 0.0
C287 C 0.61807 0.61336 0.19153 0.0
C288 C 0.6423 0.65592 0.1718 0.0
C289 C 0.56746 0.61567 0.21443 0.0
O290 O 0.46251 0.60185 0.28645 0.0
O291 O 0.48137 0.60836 0.24034 0.0
C292 C 0.46093 0.59759 0.25811 0.0
O293 O 0.52563 0.58959 0.28468 0.0
O294 O 0.42919 0.648 0.31973 0.0
O295 O 0.46519 0.66023 0.34886 0.0
O296 O 0.50851 0.61199 0.3264 0.0
C297 C 0.5222 0.59019 0.31328 0.0
O298 O 0.54917 0.65804 0.28549 0.0
O299 O 0.50716 0.68139 0.30307 0.0
O300 O 0.46 0.66312 0.26118 0.0
O301 O 0.57074 0.61009 0.24235 0.0
O302 O 0.54037 0.62501 0.20812 0.0
O303 O 0.50648 0.67021 0.24173 0.0
C304 C 0.42122 0.64232 0.37091 0.0
C305 C 0.42895 0.61416 0.37972 0.0
C306 C 0.38486 0.64514 0.41065 0.0
C307 C 0.4147 0.60159 0.40395 0.0
C308 C 0.39909 0.65763 0.38652 0.0
C309 C 0.39242 0.61693 0.41975 0.0
C310 C 0.43638 0.65642 0.34608 0.0
C311 C 0.53631 0.68015 0.29884 0.0
H312 H 0.57346 0.67297 0.20079 0.0
H313 H 0.66139 0.61265 0.17113 0.0
H314 H 0.61619 0.69552 0.1764 0.0
H315 H 0.61879 0.59039 0.19563 0.0
H316 H 0.44604 0.60199 0.36793 0.0
H317 H 0.36824 0.65783 0.4225 0.0
H318 H 0.42092 0.57977 0.41011 0.0
H319 H 0.39296 0.67945 0.38018 0.0
Eu320 Eu 0.2538 0.47453 0.13267 0.0
Eu321 Eu 0.19857 0.51974 0.15094 0.0
C322 C 0.26626 0.52766 0.17349 0.0
C323 C 0.30228 0.40537 0.12942 0.0
C324 C 0.28534 0.39073 0.15056 0.0
C325 C 0.33547 0.36352 0.12529 0.0
C326 C 0.29368 0.36273 0.15927 0.0
C327 C 0.32713 0.39144 0.11664 0.0
C328 C 0.3191 0.34887 0.14699 0.0
C329 C 0.29599 0.43587 0.12237 0.0
O330 O 0.22173 0.54374 0.11527 0.0
O331 O 0.26059 0.5126 0.1016 0.0
C332 C 0.24555 0.53739 0.09942 0.0
O333 O 0.21173 0.45925 0.1103 0.0
O334 O 0.18012 0.5622 0.16232 0.0
O335 O 0.15184 0.52494 0.16448 0.0
O336 O 0.18602 0.50215 0.10655 0.0
C337 C 0.19113 0.47567 0.09765 0.0
O338 O 0.23724 0.46092 0.17767 0.0
O339 O 0.18916 0.47728 0.17218 0.0
O340 O 0.23802 0.52688 0.18225 0.0
O341 O 0.27412 0.44168 0.10403 0.0
O342 O 0.29596 0.45333 0.1447 0.0
O343 O 0.27536 0.5138 0.15017 0.0
C344 C 0.12874 0.56843 0.14983 0.0
C345 C 0.12952 0.57117 0.11914 0.0
C346 C 0.07988 0.59258 0.15032 0.0
C347 C 0.10563 0.58461 0.10412 0.0
C348 C 0.10381 0.57923 0.16529 0.0
C349 C 0.08041 0.59536 0.11953 0.0
C350 C 0.15286 0.55289 0.16574 0.0
C351 C 0.209 0.46108 0.18586 0.0
H352 H 0.2661 0.4012 0.16079 0.0
H353 H 0.35545 0.35383 0.11567 0.0
H354 H 0.28035 0.35205 0.17578 0.0
H355 H 0.34066 0.40249 0.10052 0.0
H356 H 0.14845 0.56262 0.10678 0.0
H357 H 0.06105 0.60095 0.16291 0.0
H358 H 0.10665 0.58612 0.08041 0.0
H359 H 0.10275 0.57715 0.18897 0.0
Eu360 Eu 0.69248 0.99233 0.8659 0.0
Eu361 Eu 0.7431 0.03973 0.88585 0.0
C362 C 0.74019 0.9754 0.91373 0.0
C363 C 0.62617 0.94083 0.86751 0.0
C364 C 0.62781 0.93419 0.8976 0.0
C365 C 0.5766 0.91974 0.86565 0.0
C366 C 0.60409 0.92018 0.91153 0.0
C367 C 0.60037 0.93359 0.85172 0.0
C368 C 0.57818 0.91274 0.89572 0.0
C369 C 0.65087 0.95556 0.85232 0.0
O370 O 0.75797 0.02281 0.84226 0.0
O371 O 0.73782 0.97811 0.84663 0.0
C372 C 0.75867 0.99527 0.83632 0.0
O373 O 0.696 0.02334 0.82837 0.0
O374 O 0.78937 0.0541 0.88999 0.0
O375 O 0.75273 0.08124 0.9058 0.0
O376 O 0.71049 0.06258 0.85466 0.0
C377 C 0.69886 0.05124 0.83083 0.0
O378 O 0.66968 0.02307 0.89808 0.0
O379 O 0.71152 0.03558 0.92375 0.0
O380 O 0.75805 0.99585 0.90428 0.0
O381 O 0.64765 0.98333 0.84903 0.0
O382 O 0.67823 0.94807 0.85979 0.0
O383 O 0.71127 0.97682 0.90861 0.0
C384 C 0.79572 0.10502 0.88808 0.0
C385 C 0.79713 0.13002 0.90516 0.0
C386 C 0.82179 0.12994 0.84873 0.0
C387 C 0.81072 0.15475 0.89422 0.0
C388 C 0.808 0.10521 0.85965 0.0
C389 C 0.82337 0.15502 0.86592 0.0
C390 C 0.7815 0.0792 0.90062 0.0
C391 C 0.68228 0.03374 0.92172 0.0
H392 H 0.64739 0.93984 0.91031 0.0
H393 H 0.55719 0.91405 0.85272 0.0
H394 H 0.60591 0.91542 0.93477 0.0
H395 H 0.59863 0.93858 0.82852 0.0
H396 H 0.78785 0.13037 0.92716 0.0
H397 H 0.83101 0.12949 0.82673 0.0
H398 H 0.81186 0.17349 0.90822 0.0
H399 H 0.80702 0.08628 0.8459 0.0
Eu400 Eu 0.72911 0.97328 0.38292 0.0
Eu401 Eu 0.77957 0.02171 0.36337 0.0
C402 C 0.71296 0.01861 0.33453 0.0
C403 C 0.67582 0.90828 0.38374 0.0
C404 C 0.64604 0.90238 0.39129 0.0
C405 C 0.67782 0.864 0.35515 0.0
C406 C 0.63234 0.87742 0.38119 0.0
C407 C 0.69151 0.88908 0.36523 0.0
C408 C 0.64816 0.85761 0.36335 0.0
C409 C 0.69034 0.93368 0.39668 0.0
O410 O 0.76064 0.03589 0.40643 0.0
O411 O 0.71394 0.01676 0.40191 0.0
C412 C 0.73172 0.03715 0.41153 0.0
O413 O 0.76091 0.97655 0.4207 0.0
O414 O 0.7932 0.06653 0.35842 0.0
O415 O 0.82406 0.03187 0.34667 0.0
O416 O 0.8026 0.99082 0.39551 0.0
C417 C 0.79011 0.979 0.41873 0.0
O418 O 0.76202 0.95109 0.35175 0.0
O419 O 0.77704 0.99065 0.32584 0.0
O420 O 0.73401 0.03585 0.34424 0.0
O421 O 0.7191 0.93152 0.402 0.0
O422 O 0.68257 0.95894 0.38628 0.0
O423 O 0.71489 0.9909 0.33942 0.0
C424 C 0.84524 0.0746 0.3658 0.0
C425 C 0.8644 0.06037 0.3859 0.0
C426 C 0.87379 0.11826 0.37261 0.0
C427 C 0.88829 0.07491 0.39895 0.0
C428 C 0.85005 0.10369 0.35949 0.0
C429 C 0.8935 0.10404 0.39232 0.0
C430 C 0.82059 0.05952 0.35072 0.0
C431 C 0.77412 0.96269 0.3282 0.0
H432 H 0.63346 0.91692 0.40542 0.0
H433 H 0.69078 0.84925 0.3416 0.0
H434 H 0.60929 0.87364 0.38746 0.0
H435 H 0.71453 0.89317 0.359 0.0
H436 H 0.86113 0.03793 0.39129 0.0
H437 H 0.87656 0.14079 0.36737 0.0
H438 H 0.90303 0.06311 0.41379 0.0
H439 H 0.83548 0.11517 0.34421 0.0
Eu440 Eu 0.22037 0.54164 0.63156 0.0
Eu441 Eu 0.273 0.49354 0.65071 0.0
C442 C 0.20384 0.48676 0.66962 0.0
C443 C 0.17159 0.61139 0.62778 0.0
C444 C 0.18667 0.62612 0.65013 0.0
C445 C 0.13564 0.65117 0.6241 0.0
C446 C 0.17593 0.65309 0.65973 0.0
C447 C 0.14644 0.6244 0.61445 0.0
C448 C 0.14977 0.66553 0.64734 0.0
C449 C 0.17925 0.58125 0.62049 0.0
O450 O 0.25079 0.47192 0.61306 0.0
O451 O 0.21288 0.50429 0.59972 0.0
C452 C 0.22735 0.47924 0.59706 0.0
O453 O 0.26347 0.55582 0.61049 0.0
O454 O 0.28993 0.44973 0.65959 0.0
O455 O 0.31851 0.48613 0.66695 0.0
O456 O 0.28813 0.51229 0.60739 0.0
C457 C 0.28404 0.539 0.5985 0.0
O458 O 0.23607 0.55403 0.67714 0.0
O459 O 0.2833 0.53467 0.6741 0.0
O460 O 0.23173 0.4853 0.67958 0.0
O461 O 0.20223 0.57619 0.6033 0.0
O462 O 0.17811 0.56312 0.64232 0.0
O463 O 0.1968 0.50275 0.64694 0.0
C464 C 0.34192 0.44345 0.64901 0.0
C465 C 0.36045 0.45847 0.62942 0.0
C466 C 0.37103 0.39975 0.63901 0.0
C467 C 0.38426 0.44432 0.61507 0.0
C468 C 0.34741 0.41397 0.65359 0.0
C469 C 0.38983 0.41479 0.61969 0.0
C470 C 0.31714 0.45822 0.66498 0.0
C471 C 0.26389 0.55221 0.68657 0.0
H472 H 0.20601 0.61628 0.66088 0.0
H473 H 0.11572 0.66035 0.61379 0.0
H474 H 0.18724 0.66354 0.67774 0.0
H475 H 0.13443 0.61335 0.59727 0.0
H476 H 0.35663 0.48119 0.62519 0.0
H477 H 0.37489 0.37704 0.64325 0.0
H478 H 0.39811 0.45643 0.60008 0.0
H479 H 0.33349 0.40194 0.66859 0.0
H480 H 0.18977 0.32355 0.49625 0.0
H481 H 0.13856 0.31844 0.57648 0.0
H482 H 0.20745 0.37089 0.51038 0.0
H483 H 0.15627 0.36615 0.59068 0.0
H484 H 0.16836 0.46474 0.59043 0.0
H485 H 0.14982 0.41831 0.57317 0.0
H486 H 0.23999 0.39312 0.54811 0.0
H487 H 0.25838 0.43909 0.56565 0.0
C488 C 0.18269 0.33235 0.51719 0.0
C489 C 0.16304 0.31704 0.53541 0.0
C490 C 0.19274 0.35957 0.52523 0.0
C491 C 0.18305 0.3725 0.55152 0.0
C492 C 0.16384 0.35697 0.57009 0.0
C493 C 0.15411 0.32943 0.56222 0.0
C494 C 0.184 0.44961 0.58039 0.0
C495 C 0.21479 0.45569 0.57917 0.0
C496 C 0.17349 0.42283 0.57098 0.0
C497 C 0.1935 0.40181 0.55964 0.0
C498 C 0.22395 0.40875 0.55668 0.0
C499 C 0.23447 0.4352 0.56654 0.0
H500 H 0.78311 0.9407 0.84057 0.0
H501 H 0.79755 0.02405 0.80146 0.0
H502 H 0.83308 0.92469 0.824 0.0
H503 H 0.84723 1.00832 0.78537 0.0
H504 H 0.92185 0.96017 0.73546 0.0
H505 H 0.87199 0.97566 0.75124 0.0
H506 H 0.88686 0.93492 0.83549 0.0
H507 H 0.93701 0.91896 0.81942 0.0
C508 C 0.79665 0.95538 0.82793 0.0
C509 C 0.78626 0.98357 0.82215 0.0
C510 C 0.82546 0.94639 0.81887 0.0
C511 C 0.8443 0.96531 0.80359 0.0
C512 C 0.83333 0.99311 0.79692 0.0
C513 C 0.80477 1.00213 0.80613 0.0
C514 C 0.91473 0.95485 0.75753 0.0
C515 C 0.93352 0.93847 0.77624 0.0
C516 C 0.88607 0.96373 0.76658 0.0
C517 C 0.87527 0.95636 0.79455 0.0
C518 C 0.89434 0.94061 0.81364 0.0
C519 C 0.92325 0.93187 0.80462 0.0
H520 H 0.33144 0.69963 0.07721 0.0
H521 H 0.2816 0.69231 0.99633 0.0
H522 H 0.31399 0.6521 0.09249 0.0
H523 H 0.26419 0.6451 0.01155 0.0
H524 H 0.21382 0.57705 0.06786 0.0
H525 H 0.23143 0.62323 0.04974 0.0
H526 H 0.32184 0.59993 0.07601 0.0
H527 H 0.30409 0.55339 0.094 0.0
C528 C 0.31623 0.68819 0.06302 0.0
C529 C 0.30764 0.69985 0.0357 0.0
C530 C 0.30666 0.66078 0.07153 0.0
C531 C 0.28796 0.64469 0.05308 0.0
C532 C 0.27852 0.65691 0.02629 0.0
C533 C 0.28841 0.68403 0.01763 0.0
C534 C 0.23761 0.58144 0.06894 0.0
C535 C 0.25765 0.56145 0.08196 0.0
C536 C 0.24768 0.60797 0.05874 0.0
C537 C 0.27797 0.61542 0.06177 0.0
C538 C 0.29829 0.59495 0.07371 0.0
C539 C 0.28826 0.56811 0.08349 0.0
H540 H 0.56382 0.09152 0.23459 0.0
H541 H 0.52386 0.06901 0.31784 0.0
H542 H 0.61286 0.07569 0.25252 0.0
H543 H 0.57345 0.05226 0.33552 0.0
H544 H 0.65975 0.99096 0.33192 0.0
H545 H 0.61092 0.00991 0.31682 0.0
H546 H 0.65049 0.09143 0.29588 0.0
H547 H 0.69991 0.0727 0.31196 0.0
C548 C 0.56537 0.0829 0.25668 0.0
C549 C 0.53972 0.08123 0.27471 0.0
C550 C 0.59363 0.07415 0.26699 0.0
C551 C 0.59697 0.06293 0.2954 0.0
C552 C 0.57141 0.0609 0.31347 0.0
C553 C 0.54308 0.07036 0.30336 0.0
C554 C 0.65832 0.01293 0.32398 0.0
C555 C 0.68397 0.03026 0.32291 0.0
C556 C 0.63015 0.02382 0.31564 0.0
C557 C 0.62688 0.05214 0.30543 0.0
C558 C 0.65246 0.06947 0.30378 0.0
C559 C 0.68071 0.05875 0.31283 0.0
H560 H 0.65309 0.17299 0.51874 0.0
H561 H 0.67615 0.21654 0.43804 0.0
H562 H 0.67113 0.12758 0.49848 0.0
H563 H 0.69505 0.17059 0.41798 0.0
H564 H 0.75936 0.08871 0.41503 0.0
H565 H 0.73916 0.13433 0.43286 0.0
H566 H 0.65573 0.09364 0.45456 0.0
H567 H 0.67574 0.04753 0.43591 0.0
C568 C 0.66233 0.17303 0.49674 0.0
C569 C 0.6634 0.19863 0.48009 0.0
C570 C 0.67236 0.14682 0.48507 0.0
C571 C 0.68427 0.14549 0.45663 0.0
C572 C 0.68591 0.17105 0.44002 0.0
C573 C 0.67521 0.19733 0.4515 0.0
C574 C 0.73672 0.08924 0.42372 0.0
C575 C 0.71925 0.06424 0.42431 0.0
C576 C 0.72509 0.11557 0.43363 0.0
C577 C 0.69587 0.11759 0.44493 0.0
C578 C 0.67839 0.09264 0.44594 0.0
C579 C 0.68983 0.06626 0.43537 0.0
H580 H 0.05285 0.44833 0.78251 0.0
H581 H 0.03326 0.40255 0.70264 0.0
H582 H 0.1012 0.46244 0.76231 0.0
H583 H 0.08198 0.41529 0.683 0.0
H584 H 0.15278 0.47146 0.64261 0.0
H585 H 0.1073 0.45384 0.66389 0.0
H586 H 0.15091 0.4475 0.74858 0.0
H587 H 0.19701 0.46691 0.72694 0.0
C588 C 0.05881 0.44143 0.76053 0.0
C589 C 0.03891 0.4248 0.74395 0.0
C590 C 0.08679 0.44912 0.74912 0.0
C591 C 0.09579 0.44005 0.72096 0.0
C592 C 0.07578 0.42328 0.7045 0.0
C593 C 0.04766 0.41602 0.71571 0.0
C594 C 0.153 0.46613 0.66578 0.0
C595 C 0.17861 0.47091 0.68311 0.0
C596 C 0.12673 0.45568 0.67802 0.0
C597 C 0.12508 0.44921 0.70808 0.0
C598 C 0.15114 0.45269 0.72539 0.0
C599 C 0.17772 0.46342 0.71299 0.0
H600 H 0.71202 0.92411 0.91758 0.0
H601 H 0.7964 0.96436 0.93733 0.0
H602 H 0.7321 0.87815 0.93494 0.0
H603 H 0.81628 0.91792 0.95551 0.0
H604 H 0.81917 0.83793 0.0193 0.0
H605 H 0.80108 0.88366 0.99957 0.0
H606 H 0.77584 0.84182 0.91908 0.0
H607 H 0.79477 0.79553 0.9386 0.0
C608 C 0.73481 0.9233 0.92592 0.0
C609 C 0.75254 0.94812 0.92632 0.0
C610 C 0.74635 0.89679 0.93556 0.0
C611 C 0.77574 0.89442 0.94639 0.0
C612 C 0.79348 0.9192 0.94724 0.0
C613 C 0.78211 0.94576 0.93694 0.0
C614 C 0.80962 0.83822 0.99742 0.0
C615 C 0.8082 0.81286 0.9806 0.0
C616 C 0.79956 0.8646 0.98606 0.0
C617 C 0.78728 0.86634 0.95778 0.0
C618 C 0.78527 0.84103 0.941 0.0
C619 C 0.79598 0.81456 0.95218 0.0
H620 H 0.44549 0.58682 0.20055 0.0
H621 H 0.41183 0.58096 0.28929 0.0
H622 H 0.39691 0.57147 0.18202 0.0
H623 H 0.36319 0.5673 0.27093 0.0
H624 H 0.28623 0.5169 0.22912 0.0
H625 H 0.33398 0.53222 0.24983 0.0
H626 H 0.34758 0.58713 0.17428 0.0
H627 H 0.30072 0.5704 0.15324 0.0
C628 C 0.42785 0.5821 0.21612 0.0
C629 C 0.4328 0.58505 0.24641 0.0
C630 C 0.39973 0.5737 0.2055 0.0
C631 C 0.37566 0.56841 0.22489 0.0
C632 C 0.38099 0.57076 0.2552 0.0
C633 C 0.40911 0.57875 0.26578 0.0
C634 C 0.29907 0.53294 0.21754 0.0
C635 C 0.28961 0.54291 0.18991 0.0
C636 C 0.32663 0.54163 0.22923 0.0
C637 C 0.34519 0.56069 0.2136 0.0
C638 C 0.33457 0.57185 0.18668 0.0
C639 C 0.30735 0.56278 0.17485 0.0
H640 H 0.46093 0.1755 0.33328 0.0
H641 H 0.54564 0.1906 0.29005 0.0
H642 H 0.48145 0.19285 0.37926 0.0
H643 H 0.56597 0.20882 0.33652 0.0
H644 H 0.57139 0.27159 0.41776 0.0
H645 H 0.55279 0.25284 0.37147 0.0
H646 H 0.52457 0.17572 0.41567 0.0
H647 H 0.54398 0.19423 0.46238 0.0
C648 C 0.48388 0.18285 0.3334 0.0
C649 C 0.50157 0.18182 0.30773 0.0
C650 C 0.49568 0.19253 0.35996 0.0
C651 C 0.52533 0.20198 0.36157 0.0
C652 C 0.54298 0.20162 0.33588 0.0
C653 C 0.53134 0.1913 0.30928 0.0
C654 C 0.56109 0.25067 0.41782 0.0
C655 C 0.55892 0.23452 0.44398 0.0
C656 C 0.55073 0.23984 0.39114 0.0
C657 C 0.53736 0.21281 0.3899 0.0
C658 C 0.53477 0.1967 0.41602 0.0
C659 C 0.5458 0.20728 0.44275 0.0
H660 H 0.03242 0.24405 0.58026 0.0
H661 H 0.07221 0.3272 0.56762 0.0
H662 H 0.01691 0.25782 0.62944 0.0
H663 H 0.05601 0.34134 0.61707 0.0
H664 H 0.05104 0.34445 0.71848 0.0
H665 H 0.06738 0.33023 0.66912 0.0
H666 H 0.98252 0.2888 0.65524 0.0
H667 H 0.96658 0.30244 0.70434 0.0
C668 C 0.03737 0.26554 0.58778 0.0
C669 C 0.05339 0.28458 0.56983 0.0
C670 C 0.02844 0.27346 0.61608 0.0
C671 C 0.03531 0.30066 0.62741 0.0
C672 C 0.05069 0.32007 0.60922 0.0
C673 C 0.05954 0.31215 0.58069 0.0
C674 C 0.03621 0.3317 0.70511 0.0
C675 C 0.00759 0.32437 0.7155 0.0
C676 C 0.04536 0.32397 0.67663 0.0
C677 C 0.0262 0.30853 0.65802 0.0
C678 C 0.99802 0.30045 0.66891 0.0
C679 C 0.98886 0.30828 0.69717 0.0
H680 H 0.01003 0.8406 0.83429 0.0
H681 H 0.92553 0.82555 0.7907 0.0
H682 H 0.98977 0.82179 0.8799 0.0
H683 H 0.90546 0.80593 0.83675 0.0
H684 H 0.90006 0.74135 0.91657 0.0
H685 H 0.91874 0.76135 0.87075 0.0
H686 H 0.94681 0.83729 0.91666 0.0
H687 H 0.92738 0.81753 0.96289 0.0
C688 C 0.98719 0.83296 0.83425 0.0
C689 C 0.96947 0.83443 0.80859 0.0
C690 C 0.97554 0.82244 0.86059 0.0
C691 C 0.94602 0.81257 0.86198 0.0
C692 C 0.92835 0.8134 0.83629 0.0
C693 C 0.93984 0.82455 0.80993 0.0
C694 C 0.91036 0.76227 0.91711 0.0
C695 C 0.91246 0.77773 0.94361 0.0
C696 C 0.92077 0.77381 0.8907 0.0
C697 C 0.9341 0.80089 0.89007 0.0
C698 C 0.93666 0.81629 0.91653 0.0
C699 C 0.92561 0.80498 0.94299 0.0
H700 H 0.42101 0.66812 0.21728 0.0
H701 H 0.50572 0.70947 0.20227 0.0
H702 H 0.40388 0.68358 0.16841 0.0
H703 H 0.48899 0.72434 0.15368 0.0
H704 H 0.43807 0.77113 0.08026 0.0
H705 H 0.45416 0.75631 0.12908 0.0
H706 H 0.41461 0.67318 0.11594 0.0
H707 H 0.39788 0.68835 0.06687 0.0
C708 C 0.43572 0.68098 0.20384 0.0
C709 C 0.46463 0.68777 0.21381 0.0
C710 C 0.42612 0.68942 0.17564 0.0
C711 C 0.44513 0.70504 0.15694 0.0
C712 C 0.47361 0.71257 0.16745 0.0
C713 C 0.48322 0.70403 0.19541 0.0
C714 C 0.43313 0.74951 0.08754 0.0
C715 C 0.41687 0.73086 0.0695 0.0
C716 C 0.44238 0.741 0.11563 0.0
C717 C 0.43558 0.71359 0.12662 0.0
C718 C 0.4199 0.6946 0.10833 0.0
C719 C 0.41074 0.7031 0.08002 0.0
H720 H 0.12446 0.41594 0.34975 0.0
H721 H 0.16913 0.33618 0.32565 0.0
H722 H 0.14512 0.43913 0.30648 0.0
H723 H 0.19018 0.35969 0.2823 0.0
H724 H 0.2422 0.42365 0.22088 0.0
H725 H 0.22529 0.39854 0.26525 0.0
H726 H 0.13631 0.4352 0.25341 0.0
H727 H 0.15294 0.46018 0.20972 0.0
C728 C 0.13861 0.40327 0.33518 0.0
C729 C 0.14471 0.37403 0.34107 0.0
C730 C 0.15053 0.41662 0.31036 0.0
C731 C 0.16901 0.40118 0.29069 0.0
C732 C 0.17614 0.37223 0.29707 0.0
C733 C 0.16407 0.35878 0.32195 0.0
C734 C 0.21901 0.42621 0.22772 0.0
C735 C 0.19903 0.44412 0.21175 0.0
C736 C 0.20931 0.41177 0.25308 0.0
C737 C 0.17953 0.41516 0.2631 0.0
C738 C 0.15953 0.43254 0.2467 0.0
C739 C 0.16909 0.44674 0.22142 0.0
H740 H 0.90704 0.95664 0.5719 0.0
H741 H 0.86549 0.87434 0.55906 0.0
H742 H 0.88287 0.97478 0.52706 0.0
H743 H 0.84117 0.89259 0.51478 0.0
H744 H 0.77161 0.94637 0.46466 0.0
H745 H 0.80061 0.92846 0.50604 0.0
H746 H 0.87992 0.96847 0.47145 0.0
H747 H 0.85053 0.98688 0.42948 0.0
C748 C 0.89306 0.94231 0.55941 0.0
C749 C 0.88788 0.91413 0.56942 0.0
C750 C 0.87924 0.95273 0.5337 0.0
C751 C 0.85985 0.93523 0.51755 0.0
C752 C 0.85552 0.90681 0.52704 0.0
C753 C 0.86937 0.89639 0.55255 0.0
C754 C 0.79523 0.95145 0.46566 0.0
C755 C 0.80871 0.96808 0.44361 0.0
C756 C 0.81193 0.94095 0.4894 0.0
C757 C 0.84263 0.94681 0.49195 0.0
C758 C 0.85625 0.96367 0.47011 0.0
C759 C 0.83948 0.97406 0.44603 0.0
H760 H 0.31993 0.55308 0.71072 0.0
H761 H 0.2312 0.59117 0.72005 0.0
H762 H 0.33725 0.58048 0.75238 0.0
H763 H 0.24892 0.61924 0.76194 0.0
H764 H 0.28685 0.638 0.85616 0.0
H765 H 0.26631 0.61379 0.81315 0.0
H766 H 0.34867 0.62895 0.76599 0.0
H767 H 0.3691 0.65293 0.80876 0.0
C768 C 0.30406 0.56747 0.72151 0.0
C769 C 0.27409 0.56986 0.71185 0.0
C770 C 0.31413 0.5834 0.74542 0.0
C771 C 0.29461 0.60231 0.76051 0.0
C772 C 0.26455 0.60474 0.75098 0.0
C773 C 0.25442 0.58875 0.72686 0.0
C774 C 0.30042 0.63646 0.83649 0.0
C775 C 0.32983 0.64711 0.83615 0.0
C776 C 0.28862 0.62259 0.81179 0.0
C777 C 0.30592 0.61906 0.78613 0.0
C778 C 0.33491 0.63062 0.78554 0.0
C779 C 0.34667 0.6444 0.81014 0.0
H780 H 0.54999 0.11051 0.04188 0.0
H781 H 0.62039 0.07558 0.09741 0.0
H782 H 0.57559 0.09084 0.99867 0.0
H783 H 0.64571 0.05564 0.05448 0.0
H784 H 0.7021 0.05864 0.97194 0.0
H785 H 0.67324 0.07479 0.01393 0.0
H786 H 0.59161 0.04722 0.97212 0.0
H787 H 0.62077 0.03132 0.92925 0.0
C788 C 0.57069 0.09827 0.0449 0.0
C789 C 0.58335 0.09491 0.07306 0.0
C790 C 0.58534 0.08694 0.02014 0.0
C791 C 0.61291 0.07193 0.023 0.0
C792 C 0.62489 0.06767 0.05133 0.0
C793 C 0.61036 0.07908 0.07599 0.0
C794 C 0.67801 0.05588 0.97152 0.0
C795 C 0.66382 0.04354 0.94712 0.0
C796 C 0.66142 0.06501 0.99584 0.0
C797 C 0.6301 0.06204 0.99665 0.0
C798 C 0.61571 0.04995 0.97217 0.0
C799 C 0.63242 0.04074 0.94765 0.0
H800 H 0.66728 0.12267 0.65645 0.0
H801 H 0.61175 0.17563 0.71309 0.0
H802 H 0.68736 0.09719 0.69927 0.0
H803 H 0.63142 0.14965 0.75596 0.0
H804 H 0.69414 0.11049 0.82799 0.0
H805 H 0.67812 0.13996 0.7858 0.0
H806 H 0.66628 0.06294 0.73468 0.0
H807 H 0.68223 0.03374 0.77627 0.0
C808 C 0.65958 0.12909 0.67806 0.0
C809 C 0.63777 0.1511 0.68129 0.0
C810 C 0.6709 0.11431 0.7026 0.0
C811 C 0.66084 0.12124 0.73104 0.0
C812 C 0.63975 0.14387 0.73439 0.0
C813 C 0.62826 0.15855 0.70979 0.0
C814 C 0.68818 0.09991 0.80771 0.0
C815 C 0.68946 0.06972 0.80561 0.0
C816 C 0.6789 0.11677 0.78359 0.0
C817 C 0.67109 0.1038 0.75681 0.0
C818 C 0.67257 0.07367 0.75479 0.0
C819 C 0.68152 0.05689 0.77882 0.0
H820 H 0.19686 0.42261 0.07209 0.0
H821 H 0.14646 0.5027 0.06561 0.0
H822 H 0.17026 0.40432 0.02956 0.0
H823 H 0.12013 0.48447 0.02264 0.0
H824 H 0.05836 0.42951 0.964 0.0
H825 H 0.08359 0.44896 0.00704 0.0
H826 H 0.16779 0.41209 0.97702 0.0
H827 H 0.1427 0.3928 0.93406 0.0
C828 C 0.18008 0.43635 0.06165 0.0
C829 C 0.1739 0.46419 0.07235 0.0
C830 C 0.16495 0.42591 0.03705 0.0
C831 C 0.14316 0.44296 0.02245 0.0
C832 C 0.13658 0.47063 0.03344 0.0
C833 C 0.1518 0.48114 0.05804 0.0
C834 C 0.08232 0.42583 0.96638 0.0
C835 C 0.0984 0.40938 0.94555 0.0
C836 C 0.0968 0.43697 0.99112 0.0
C837 C 0.12772 0.43192 0.9957 0.0
C838 C 0.14385 0.41591 0.97459 0.0
C839 C 0.12942 0.40483 0.94989 0.0
H840 H 0.79457 0.9803 0.27471 0.0
H841 H 0.77617 0.90343 0.3247 0.0
H842 H 0.8109 0.95103 0.23345 0.0
H843 H 0.79253 0.87396 0.28292 0.0
H844 H 0.85836 0.83483 0.21261 0.0
H845 H 0.83922 0.86176 0.2549 0.0
H846 H 0.78992 0.91877 0.19655 0.0
H847 H 0.80956 0.89233 0.15433 0.0
C848 C 0.79393 0.95712 0.27696 0.0
C849 C 0.78404 0.94428 0.30318 0.0
C850 C 0.80314 0.94031 0.25311 0.0
C851 C 0.80289 0.91013 0.25474 0.0
C852 C 0.79317 0.89717 0.28099 0.0
C853 C 0.7837 0.91406 0.3049 0.0
C854 C 0.84347 0.85314 0.20881 0.0
C855 C 0.83566 0.86149 0.18001 0.0
C856 C 0.83225 0.8684 0.23308 0.0
C857 C 0.81314 0.89253 0.22915 0.0
C858 C 0.80487 0.9005 0.20038 0.0
C859 C 0.8159 0.88515 0.17615 0.0
H860 H 0.28044 0.59252 0.57343 0.0
H861 H 0.32817 0.51103 0.56661 0.0
H862 H 0.30733 0.6103 0.53083 0.0
H863 H 0.35482 0.52881 0.52347 0.0
H864 H 0.41706 0.58276 0.46339 0.0
H865 H 0.39219 0.56352 0.50689 0.0
H866 H 0.30829 0.60239 0.47834 0.0
H867 H 0.33298 0.62143 0.43498 0.0
C868 C 0.29673 0.57835 0.56292 0.0
C869 C 0.30198 0.55024 0.5735 0.0
C870 C 0.31202 0.58852 0.53827 0.0
C871 C 0.33305 0.57092 0.52343 0.0
C872 C 0.33891 0.54303 0.53441 0.0
C873 C 0.32352 0.53279 0.55912 0.0
C874 C 0.39323 0.58692 0.46622 0.0
C875 C 0.37713 0.6039 0.4457 0.0
C876 C 0.37897 0.57591 0.49121 0.0
C877 C 0.34826 0.58163 0.49636 0.0
C878 C 0.33209 0.59808 0.47551 0.0
C879 C 0.34629 0.60902 0.45057 0.0
H880 H 0.16482 0.24368 0.40839 0.0
H881 H 0.19823 0.19616 0.4837 0.0
H882 H 0.20591 0.22334 0.3786 0.0
H883 H 0.23887 0.17621 0.45419 0.0
H884 H 0.28729 0.12102 0.38685 0.0
H885 H 0.24459 0.14192 0.413 0.0
H886 H 0.26288 0.22497 0.37505 0.0
H887 H 0.30619 0.20418 0.34915 0.0
C888 C 0.18082 0.22892 0.41857 0.0
C889 C 0.17814 0.22153 0.44844 0.0
C890 C 0.20442 0.21741 0.40156 0.0
C891 C 0.22553 0.19801 0.41399 0.0
C892 C 0.22277 0.19074 0.44382 0.0
C893 C 0.19951 0.20239 0.4608 0.0
C894 C 0.28248 0.1438 0.38421 0.0
C895 C 0.30056 0.16093 0.36613 0.0
C896 C 0.25787 0.15576 0.39914 0.0
C897 C 0.25047 0.18516 0.39629 0.0
C898 C 0.26787 0.2022 0.37752 0.0
C899 C 0.29269 0.19025 0.36268 0.0
H900 H 0.04928 0.10764 0.64519 0.0
H901 H 0.10295 0.05471 0.58688 0.0
H902 H 0.03039 0.06451 0.66898 0.0
H903 H 0.08452 0.0115 0.61118 0.0
H904 H 0.02418 0.93922 0.6481 0.0
H905 H 0.03883 0.98202 0.62025 0.0
H906 H 0.05249 0.02762 0.70147 0.0
H907 H 0.03791 0.98542 0.72906 0.0
C908 C 0.05682 0.08681 0.63722 0.0
C909 C 0.07779 0.08472 0.6142 0.0
C910 C 0.0462 0.06205 0.65105 0.0
C911 C 0.05611 0.0345 0.64216 0.0
C912 C 0.0763 0.03234 0.6185 0.0
C913 C 0.0871 0.05714 0.60478 0.0
C914 C 0.03028 0.9584 0.65996 0.0
C915 C 0.02989 0.95875 0.69086 0.0
C916 C 0.03877 0.98289 0.64401 0.0
C917 C 0.04668 1.00834 0.65862 0.0
C918 C 0.0461 1.0086 0.68946 0.0
C919 C 0.03792 0.9842 0.70531 0.0
H920 H 0.14148 0.82475 0.89158 0.0
H921 H 0.20383 0.87386 0.83993 0.0
H922 H 0.18341 0.80262 0.91841 0.0
H923 H 0.24578 0.85213 0.86723 0.0
H924 H 0.31479 0.78717 0.90659 0.0
H925 H 0.27298 0.80526 0.87635 0.0
H926 H 0.2202 0.81996 0.95457 0.0
H927 H 0.26155 0.80191 0.98463 0.0
C928 C 0.16415 0.83062 0.88575 0.0
C929 C 0.16929 0.85117 0.8637 0.0
C930 C 0.18816 0.81813 0.90131 0.0
C931 C 0.21792 0.82574 0.89506 0.0
C932 C 0.22314 0.84567 0.87244 0.0
C933 C 0.19909 0.85834 0.85702 0.0
C934 C 0.29422 0.79418 0.91729 0.0
C935 C 0.2916 0.79314 0.94806 0.0
C936 C 0.27033 0.80465 0.89998 0.0
C937 C 0.24324 0.81397 0.91306 0.0
C938 C 0.24059 0.8126 0.94377 0.0
C939 C 0.26445 0.80242 0.96103 0.0
H940 H 0.4572 0.07162 0.15022 0.0
H941 H 0.41734 0.03746 0.22916 0.0
H942 H 0.44236 0.02843 0.12347 0.0
H943 H 0.4021 0.99512 0.20258 0.0
H944 H 0.40559 0.90922 0.15783 0.0
H945 H 0.42319 0.95256 0.18162 0.0
H946 H 0.39956 1.00237 0.1045 0.0
H947 H 0.38223 0.9587 0.0805 0.0
C948 C 0.44513 0.05506 0.16182 0.0
C949 C 0.4387 0.05802 0.19193 0.0
C950 C 0.43653 0.03032 0.14647 0.0
C951 C 0.42129 1.00801 0.16089 0.0
C952 C 0.41442 0.0114 0.19083 0.0
C953 C 0.42304 0.03592 0.20609 0.0
C954 C 0.40405 0.9294 0.14593 0.0
C955 C 0.39219 0.93044 0.11733 0.0
C956 C 0.41412 0.95435 0.15961 0.0
C957 C 0.41248 0.98119 0.1452 0.0
C958 C 0.40141 0.98212 0.11624 0.0
C959 C 0.39143 0.95706 0.10247 0.0
H960 H 0.83223 0.31786 0.62337 0.0
H961 H 0.77056 0.35637 0.68564 0.0
H962 H 0.79007 0.29926 0.59564 0.0
H963 H 0.72823 0.33788 0.65771 0.0
H964 H 0.65946 0.2802 0.61093 0.0
H965 H 0.70143 0.29498 0.64193 0.0
H966 H 0.75122 0.31861 0.56441 0.0
H967 H 0.70997 0.30356 0.53371 0.0
C968 C 0.80965 0.32245 0.63111 0.0
C969 C 0.80485 0.33887 0.65662 0.0
C970 C 0.78542 0.31178 0.61518 0.0
C971 C 0.75563 0.31729 0.6242 0.0
C972 C 0.75082 0.33296 0.65023 0.0
C973 C 0.77513 0.3436 0.66624 0.0
C974 C 0.67942 0.28849 0.60055 0.0
C975 C 0.68125 0.2906 0.56977 0.0
C976 C 0.70344 0.29708 0.61833 0.0
C977 C 0.72988 0.30785 0.60571 0.0
C978 C 0.73154 0.30994 0.57495 0.0
C979 C 0.70766 0.30145 0.55729 0.0
H980 H 0.91176 0.46384 0.79527 0.0
H981 H 0.96397 0.43768 0.8711 0.0
H982 H 0.89317 0.50581 0.82161 0.0
H983 H 0.94497 0.4801 0.89775 0.0
H984 H 0.92954 0.57883 0.91847 0.0
H985 H 0.94844 0.53427 0.89614 0.0
H986 H 0.8597 0.5173 0.86302 0.0
H987 H 0.84069 0.56135 0.88561 0.0
C988 C 0.91927 0.46696 0.81764 0.0
C989 C 0.9394 0.44726 0.83103 0.0
C990 C 0.90838 0.49102 0.83284 0.0
C991 C 0.91741 0.4963 0.86187 0.0
C992 C 0.93768 0.47673 0.87535 0.0
C993 C 0.94841 0.45234 0.86016 0.0
C994 C 0.91394 0.56542 0.90678 0.0
C995 C 0.88359 0.57403 0.90361 0.0
C996 C 0.92481 0.53985 0.89398 0.0
C997 C 0.90566 0.52232 0.87756 0.0
C998 C 0.87521 0.53055 0.87504 0.0
C999 C 0.86433 0.55595 0.88793 0.0
H1000 H 0.75912 0.71342 0.03329 0.0
H1001 H 0.81479 0.7242 0.11007 0.0
H1002 H 0.71802 0.6979 0.06419 0.0
H1003 H 0.77316 0.70875 0.14123 0.0
H1004 H 0.70266 0.64545 0.17999 0.0
H1005 H 0.74455 0.66467 0.1519 0.0
H1006 H 0.68228 0.71628 0.10048 0.0
H1007 H 0.64039 0.69652 0.128 0.0
C1008 C 0.76262 0.71262 0.05682 0.0
C1009 C 0.79041 0.72004 0.06913 0.0
C1010 C 0.73886 0.70389 0.07459 0.0
C1011 C 0.74216 0.70217 0.10524 0.0
C1012 C 0.76992 0.70964 0.11768 0.0
C1013 C 0.79374 0.71862 0.09983 0.0
C1014 C 0.6979 0.66088 0.16267 0.0
C1015 C 0.66807 0.66926 0.15615 0.0
C1016 C 0.72197 0.67214 0.14677 0.0
C1017 C 0.71683 0.69193 0.1238 0.0
C1018 C 0.68706 0.70083 0.11778 0.0
C1019 C 0.66302 0.6897 0.13377 0.0
H1020 H 0.58819 0.46161 0.44154 0.0
H1021 H 0.57514 0.41604 0.36021 0.0
H1022 H 0.56963 0.50606 0.41837 0.0
H1023 H 0.55633 0.4601 0.33723 0.0
H1024 H 0.55967 0.54726 0.2944 0.0
H1025 H 0.57634 0.50437 0.32041 0.0
H1026 H 0.52635 0.53167 0.39701 0.0
H1027 H 0.50998 0.57545 0.37087 0.0
C1028 C 0.581 0.46099 0.41883 0.0
C1029 C 0.5835 0.4353 0.40264 0.0
C1030 C 0.57032 0.48648 0.40555 0.0
C1031 C 0.56181 0.48686 0.37577 0.0
C1032 C 0.56339 0.46089 0.35997 0.0
C1033 C 0.57416 0.43554 0.37316 0.0
C1034 C 0.55214 0.54428 0.31681 0.0
C1035 C 0.53326 0.56482 0.33043 0.0
C1036 C 0.5616 0.51946 0.33172 0.0
C1037 C 0.55235 0.51419 0.36071 0.0
C1038 C 0.53401 0.53504 0.37472 0.0
C1039 C 0.52457 0.56012 0.35973 0.0
H1040 H 0.31968 0.3277 0.20352 0.0
H1041 H 0.34239 0.30421 0.11442 0.0
H1042 H 0.34212 0.28247 0.22115 0.0
H1043 H 0.36516 0.25937 0.13215 0.0
H1044 H 0.44198 0.21024 0.17953 0.0
H1045 H 0.41159 0.25017 0.16108 0.0
H1046 H 0.33994 0.22753 0.22017 0.0
H1047 H 0.37071 0.18697 0.23891 0.0
C1048 C 0.3289 0.31271 0.18761 0.0
C1049 C 0.32955 0.31988 0.15753 0.0
C1050 C 0.34178 0.28676 0.19776 0.0
C1051 C 0.35573 0.26747 0.1781 0.0
C1052 C 0.35507 0.27401 0.14793 0.0
C1053 C 0.3421 0.2998 0.13778 0.0
C1054 C 0.4197 0.21356 0.1886 0.0
C1055 C 0.40883 0.19541 0.2108 0.0
C1056 C 0.40215 0.23639 0.1778 0.0
C1057 C 0.37327 0.24199 0.18902 0.0
C1058 C 0.36216 0.22379 0.21113 0.0
C1059 C 0.37968 0.20051 0.22174 0.0
H1060 H 0.95825 0.28167 0.82752 0.0
H1061 H 0.87641 0.324 0.79797 0.0
H1062 H 0.92992 0.23967 0.84173 0.0
H1063 H 0.848 0.28156 0.81204 0.0
H1064 H 0.80544 0.21158 0.87145 0.0
H1065 H 0.83219 0.25442 0.85584 0.0
H1066 H 0.90258 0.20052 0.81908 0.0
H1067 H 0.87627 0.15775 0.83536 0.0
C1068 C 0.93419 0.28208 0.82402 0.0
C1069 C 0.91967 0.30634 0.81156 0.0
C1070 C 0.91794 0.25782 0.83201 0.0
C1071 C 0.88668 0.25709 0.82786 0.0
C1072 C 0.87203 0.28146 0.81574 0.0
C1073 C 0.88834 0.30578 0.80759 0.0
C1074 C 0.82667 0.20887 0.86011 0.0
C1075 C 0.83875 0.18117 0.85481 0.0
C1076 C 0.84186 0.23345 0.8509 0.0
C1077 C 0.86963 0.23097 0.83633 0.0
C1078 C 0.88144 0.20326 0.83058 0.0
C1079 C 0.86617 0.1787 0.83963 0.0
H1080 H 0.08298 0.6336 0.07374 0.0
H1081 H 0.02002 0.58957 0.1294 0.0
H1082 H 0.04138 0.65871 0.04925 0.0
H1083 H 0.97842 0.61533 0.10543 0.0
H1084 H 0.90883 0.65098 0.03916 0.0
H1085 H 0.95051 0.62129 0.05841 0.0
H1086 H 0.00561 0.69661 0.0634 0.0
H1087 H 0.96452 0.72598 0.04412 0.0
C1088 C 0.06026 0.62908 0.08059 0.0
C1089 C 0.0549 0.60969 0.10368 0.0
C1090 C 0.0364 0.64367 0.06672 0.0
C1091 C 0.00654 0.63917 0.07549 0.0
C1092 C 1.0011 0.61916 0.09799 0.0
C1093 C 0.02499 0.60466 0.11197 0.0
C1094 C 0.92992 0.66111 0.04419 0.0
C1095 C 0.93323 0.69089 0.04019 0.0
C1096 C 0.95374 0.64414 0.05535 0.0
C1097 C 0.98143 0.65657 0.06242 0.0
C1098 C 0.98479 0.68623 0.05784 0.0
C1099 C 0.96105 0.70314 0.04695 0.0
H1100 H 0.61163 0.82291 0.39573 0.0
H1101 H 0.65245 0.82979 0.31002 0.0
H1102 H 0.58655 0.77941 0.38046 0.0
H1103 H 0.6274 0.78587 0.29479 0.0
H1104 H 0.59594 0.6912 0.28749 0.0
H1105 H 0.62463 0.73301 0.30314 0.0
H1106 H 0.54603 0.76718 0.34735 0.0
H1107 H 0.51771 0.72569 0.33222 0.0
C1108 C 0.61512 0.8153 0.37353 0.0
C1109 C 0.63383 0.83022 0.35403 0.0
C1110 C 0.60077 0.79023 0.36478 0.0
C1111 C 0.60471 0.7792 0.33629 0.0
C1112 C 0.62404 0.7936 0.31697 0.0
C1113 C 0.6384 0.81882 0.32572 0.0
C1114 C 0.58488 0.70757 0.3007 0.0
C1115 C 0.5545 0.70494 0.30863 0.0
C1116 C 0.60126 0.73164 0.3095 0.0
C1117 C 0.58771 0.75345 0.32664 0.0
C1118 C 0.55739 0.75065 0.33458 0.0
C1119 C 0.54105 0.72683 0.3257 0.0
H1120 H 0.5549 0.35955 0.52681 0.0
H1121 H 0.51585 0.28308 0.56368 0.0
H1122 H 0.51262 0.38836 0.54593 0.0
H1123 H 0.47465 0.31159 0.58333 0.0
H1124 H 0.38913 0.36275 0.59209 0.0
H1125 H 0.43081 0.33692 0.56894 0.0
H1126 H 0.48993 0.40653 0.59036 0.0
H1127 H 0.4478 0.4327 0.61287 0.0
C1128 C 0.53743 0.34891 0.53906 0.0
C1129 C 0.53872 0.31896 0.54349 0.0
C1130 C 0.51324 0.36542 0.55014 0.0
C1131 C 0.48993 0.35233 0.56599 0.0
C1132 C 0.49163 0.32244 0.57063 0.0
C1133 C 0.51552 0.30603 0.55946 0.0
C1134 C 0.41103 0.37252 0.59187 0.0
C1135 C 0.41519 0.39965 0.60455 0.0
C1136 C 0.43502 0.35769 0.57865 0.0
C1137 C 0.46397 0.3694 0.57804 0.0
C1138 C 0.46797 0.39691 0.59012 0.0
C1139 C 0.44383 0.41189 0.60313 0.0
H1140 H 0.17704 0.71617 0.66273 0.0
H1141 H 0.09093 0.67511 0.66053 0.0
H1142 H 0.15276 0.76048 0.68092 0.0
H1143 H 0.06693 0.7186 0.67919 0.0
H1144 H 0.02565 0.80633 0.67957 0.0
H1145 H 0.05384 0.76495 0.66179 0.0
H1146 H 0.12617 0.7839 0.72157 0.0
H1147 H 0.09792 0.82648 0.73887 0.0
C1148 C 0.153 0.71655 0.66635 0.0
C1149 C 0.13583 0.6923 0.65965 0.0
C1150 C 0.13908 0.74189 0.67686 0.0
C1151 C 0.10775 0.7434 0.68108 0.0
C1152 C 0.09093 0.71868 0.67537 0.0
C1153 C 0.10472 0.69362 0.6647 0.0
C1154 C 0.0476 0.80183 0.68897 0.0
C1155 C 0.05935 0.81956 0.71093 0.0
C1156 C 0.06377 0.77788 0.67885 0.0
C1157 C 0.09209 0.77055 0.69064 0.0
C1158 C 0.10445 0.78886 0.71194 0.0
C1159 C 0.08826 0.81322 0.72192 0.0
H1160 H 0.4104 0.85599 0.97759 0.0
H1161 H 0.46275 0.77873 0.96016 0.0
H1162 H 0.45135 0.88505 0.95848 0.0
H1163 H 0.50329 0.80765 0.94099 0.0
H1164 H 0.58208 0.86812 0.93508 0.0
H1165 H 0.54118 0.84158 0.95747 0.0
H1166 H 0.47656 0.89522 0.91115 0.0
H1167 H 0.51749 0.92225 0.88928 0.0
C1168 C 0.43058 0.84518 0.96973 0.0
C1169 C 0.43318 0.81498 0.9704 0.0
C1170 C 0.45401 0.86184 0.95865 0.0
C1171 C 0.48067 0.8487 0.94825 0.0
C1172 C 0.48328 0.81853 0.94917 0.0
C1173 C 0.45987 0.80191 0.96002 0.0
C1174 C 0.55916 0.87452 0.92995 0.0
C1175 C 0.55312 0.89728 0.91028 0.0
C1176 C 0.53569 0.8591 0.94257 0.0
C1177 C 0.50555 0.86614 0.936 0.0
C1178 C 0.49948 0.88933 0.91685 0.0
C1179 C 0.52297 0.90463 0.90408 0.0
H1180 H 0.92949 0.14405 0.36619 0.0
H1181 H 0.91682 0.09913 0.44835 0.0
H1182 H 0.97045 0.17066 0.38784 0.0
H1183 H 0.95835 0.12555 0.46983 0.0
H1184 H 0.05398 0.16113 0.48796 0.0
H1185 H 0.01398 0.13218 0.46675 0.0
H1186 H 0.97629 0.20817 0.42508 0.0
H1187 H 0.01601 0.2369 0.44591 0.0
C1188 C 0.93523 0.13994 0.38894 0.0
C1189 C 0.91944 0.11954 0.40551 0.0
C1190 C 0.95887 0.15519 0.40134 0.0
C1191 C 0.96763 0.15042 0.43066 0.0
C1192 C 0.95239 0.12958 0.44711 0.0
C1193 C 0.92855 0.1144 0.43474 0.0
C1194 C 0.03717 0.17163 0.47424 0.0
C1195 C 0.03835 0.20139 0.46864 0.0
C1196 C 0.01414 0.15506 0.46222 0.0
C1197 C 0.99197 0.1678 0.44406 0.0
C1198 C 0.99319 0.19754 0.43859 0.0
C1199 C 0.01595 0.21408 0.45075 0.0
loop_
_geom_bond_atom_site_label_1
_geom_bond_atom_site_label_2
_geom_bond_distance
_geom_bond_site_symmetry_2
_ccdc_geom_bond_type
Eu0 C9 2.828 . S
Eu0 O11 2.392 . S
Eu0 O13 2.418 . S
Eu0 O18 2.373 . S
Eu0 O21 2.488 . S
Eu0 O22 2.471 . S
Eu0 O23 2.349 . S
Eu1 O10 2.373 . S
Eu1 O14 2.488 . S
Eu1 O15 2.471 . S
Eu1 O16 2.349 . S
Eu1 O19 2.392 . S
Eu1 O20 2.418 . S
Eu1 C30 2.828 . S
C2 O20 1.244 . S
C2 O23 1.265 . S
C3 C4 1.379 . S
C3 C7 1.373 . S
C3 C9 1.505 . S
C4 C3 1.379 . S
C4 C6 1.369 . S
C4 H32 0.930 . S
C5 C7 1.383 . S
C5 C8 1.382 . S
C5 H33 0.930 . S
C6 C4 1.369 . S
C6 C8 1.392 . S
C6 H34 0.930 . S
C7 C3 1.373 . S
C7 C5 1.383 . S
C7 H35 0.931 . S
C8 C5 1.382 . S
C8 C6 1.392 . S
C9 Eu0 2.828 . S
C9 C3 1.505 . S
C9 O21 1.249 . S
C9 O22 1.244 . S
O10 Eu1 2.373 . S
O10 C12 1.258 . S
O11 Eu0 2.392 . S
O11 C12 1.242 . S
C12 O10 1.258 . S
C12 O11 1.242 . S
O13 Eu0 2.418 . S
O13 C17 1.244 . S
O14 Eu1 2.488 . S
O14 C30 1.249 . S
O15 Eu1 2.471 . S
O15 C30 1.244 . S
O16 Eu1 2.349 . S
O16 C17 1.265 . S
C17 O13 1.244 . S
C17 O16 1.265 . S
O18 Eu0 2.373 . S
O18 C31 1.258 . S
O19 Eu1 2.392 . S
O19 C31 1.242 . S
O20 Eu1 2.418 . S
O20 C2 1.244 . S
O21 Eu0 2.488 . S
O21 C9 1.249 . S
O22 Eu0 2.471 . S
O22 C9 1.244 . S
O23 Eu0 2.349 . S
O23 C2 1.265 . S
C24 C25 1.379 . S
C24 C28 1.373 . S
C24 C30 1.505 . S
C25 C24 1.379 . S
C25 C27 1.369 . S
C25 H36 0.930 . S
C26 C28 1.383 . S
C26 C29 1.382 . S
C26 H37 0.930 . S
C27 C25 1.369 . S
C27 C29 1.392 . S
C27 H38 0.930 . S
C28 C24 1.373 . S
C28 C26 1.383 . S
C28 H39 0.931 . S
C29 C26 1.382 . S
C29 C27 1.392 . S
C30 Eu1 2.828 . S
C30 O14 1.249 . S
C30 O15 1.244 . S
C30 C24 1.505 . S
C31 O18 1.258 . S
C31 O19 1.242 . S
H32 C4 0.930 . S
H33 C5 0.930 . S
H34 C6 0.930 . S
H35 C7 0.931 . S
H36 C25 0.930 . S
H37 C26 0.930 . S
H38 C27 0.930 . S
H39 C28 0.931 . S
Eu40 C49 2.828 . S
Eu40 O51 2.392 . S
Eu40 O53 2.418 1_655 S
Eu40 O58 2.392 . S
Eu40 O61 2.488 . S
Eu40 O62 2.471 . S
Eu40 O63 2.349 . S
Eu41 O50 2.397 . S
Eu41 O54 2.488 . S
Eu41 O55 2.471 . S
Eu41 O56 2.349 . S
Eu41 O59 2.392 . S
Eu41 O60 2.418 1_455 S
Eu41 C70 2.828 . S
C42 O60 1.244 . S
C42 O63 1.265 . S
C43 C44 1.379 . S
C43 C47 1.373 . S
C43 C49 1.505 . S
C44 C43 1.379 . S
C44 C46 1.369 . S
C44 H72 0.930 . S
C45 C47 1.383 . S
C45 C48 1.382 . S
C45 H73 0.930 . S
C46 C44 1.369 . S
C46 C48 1.392 . S
C46 H74 0.930 . S
C47 C43 1.373 . S
C47 C45 1.383 . S
C47 H75 0.931 . S
C48 C45 1.382 . S
C48 C46 1.392 . S
C49 Eu40 2.828 . S
C49 C43 1.505 . S
C49 O61 1.249 . S
C49 O62 1.244 . S
O50 Eu41 2.397 . S
O50 C52 1.233 1_455 S
O51 Eu40 2.392 . S
O51 C52 1.242 . S
C52 O50 1.233 1_655 S
C52 O51 1.242 . S
O53 Eu40 2.418 1_455 S
O53 C57 1.244 . S
O54 Eu41 2.488 . S
O54 C70 1.249 . S
O55 Eu41 2.471 . S
O55 C70 1.244 . S
O56 Eu41 2.349 . S
O56 C57 1.265 . S
C57 O53 1.244 . S
C57 O56 1.265 . S
O58 Eu40 2.392 . S
O58 C71 1.239 1_655 S
O59 Eu41 2.392 . S
O59 C71 1.242 . S
O60 Eu41 2.418 1_655 S
O60 C42 1.244 . S
O61 Eu40 2.488 . S
O61 C49 1.249 . S
O62 Eu40 2.471 . S
O62 C49 1.244 . S
O63 Eu40 2.349 . S
O63 C42 1.265 . S
C64 C65 1.379 . S
C64 C68 1.373 . S
C64 C70 1.505 . S
C65 C64 1.379 . S
C65 C67 1.369 . S
C65 H76 0.930 . S
C66 C68 1.383 . S
C66 C69 1.382 . S
C66 H77 0.930 . S
C67 C65 1.369 . S
C67 C69 1.392 . S
C67 H78 0.930 . S
C68 C64 1.373 . S
C68 C66 1.383 . S
C68 H79 0.931 . S
C69 C66 1.382 . S
C69 C67 1.392 . S
C70 Eu41 2.828 . S
C70 O54 1.249 . S
C70 O55 1.244 . S
C70 C64 1.505 . S
C71 O58 1.239 1_455 S
C71 O59 1.242 . S
H72 C44 0.930 . S
H73 C45 0.930 . S
H74 C46 0.930 . S
H75 C47 0.931 . S
H76 C65 0.930 . S
H77 C66 0.930 . S
H78 C67 0.930 . S
H79 C68 0.931 . S
Eu80 C89 2.828 . S
Eu80 O91 2.392 . S
Eu80 O93 2.418 1_554 S
Eu80 O98 2.369 1_554 S
Eu80 O101 2.488 . S
Eu80 O102 2.471 . S
Eu80 O103 2.349 . S
Eu81 O90 2.373 . S
Eu81 O94 2.488 . S
Eu81 O95 2.471 . S
Eu81 O96 2.349 . S
Eu81 O99 2.392 . S
Eu81 O100 2.418 1_556 S
Eu81 C110 2.828 . S
C82 O100 1.244 . S
C82 O103 1.265 . S
C83 C84 1.379 . S
C83 C87 1.373 . S
C83 C89 1.505 . S
C84 C83 1.379 . S
C84 C86 1.369 . S
C84 H112 0.930 . S
C85 C87 1.383 . S
C85 C88 1.382 . S
C85 H113 0.930 . S
C86 C84 1.369 . S
C86 C88 1.392 . S
C86 H114 0.930 . S
C87 C83 1.373 . S
C87 C85 1.383 . S
C87 H115 0.931 . S
C88 C85 1.382 . S
C88 C86 1.392 . S
C89 Eu80 2.828 . S
C89 C83 1.505 . S
C89 O101 1.249 . S
C89 O102 1.244 . S
O90 Eu81 2.373 . S
O90 C92 1.258 1_556 S
O91 Eu80 2.392 . S
O91 C92 1.242 . S
C92 O90 1.258 1_554 S
C92 O91 1.242 . S
O93 Eu80 2.418 1_556 S
O93 C97 1.244 . S
O94 Eu81 2.488 . S
O94 C110 1.249 . S
O95 Eu81 2.471 . S
O95 C110 1.244 . S
O96 Eu81 2.349 . S
O96 C97 1.265 . S
C97 O93 1.244 . S
C97 O96 1.265 . S
O98 Eu80 2.369 1_556 S
O98 C111 1.262 . S
O99 Eu81 2.392 . S
O99 C111 1.242 . S
O100 Eu81 2.418 1_554 S
O100 C82 1.244 . S
O101 Eu80 2.488 . S
O101 C89 1.249 . S
O102 Eu80 2.471 . S
O102 C89 1.244 . S
O103 Eu80 2.349 . S
O103 C82 1.265 . S
C104 C105 1.379 . S
C104 C108 1.373 . S
C104 C110 1.505 . S
C105 C104 1.379 . S
C105 C107 1.369 . S
C105 H116 0.930 . S
C106 C108 1.383 . S
C106 C109 1.382 . S
C106 H117 0.930 . S
C107 C105 1.369 . S
C107 C109 1.392 . S
C107 H118 0.930 . S
C108 C104 1.373 . S
C108 C106 1.383 . S
C108 H119 0.931 . S
C109 C106 1.382 . S
C109 C107 1.392 . S
C110 Eu81 2.828 . S
C110 O94 1.249 . S
C110 O95 1.244 . S
C110 C104 1.505 . S
C111 O98 1.262 . S
C111 O99 1.242 . S
H112 C84 0.930 . S
H113 C85 0.930 . S
H114 C86 0.930 . S
H115 C87 0.931 . S
H116 C105 0.930 . S
H117 C106 0.930 . S
H118 C107 0.930 . S
H119 C108 0.931 . S
Eu120 C129 2.828 . S
Eu120 O131 2.392 . S
Eu120 O133 2.418 . S
Eu120 O138 2.373 . S
Eu120 O141 2.488 . S
Eu120 O142 2.471 . S
Eu120 O143 2.349 . S
Eu121 O130 2.373 . S
Eu121 O134 2.488 . S
Eu121 O135 2.471 . S
Eu121 O136 2.349 . S
Eu121 O139 2.392 . S
Eu121 O140 2.418 . S
Eu121 C150 2.828 . S
C122 O140 1.244 . S
C122 O143 1.265 . S
C123 C124 1.379 . S
C123 C127 1.373 . S
C123 C129 1.505 . S
C124 C123 1.379 . S
C124 C126 1.369 . S
C124 H152 0.930 . S
C125 C127 1.383 . S
C125 C128 1.382 . S
C125 H153 0.930 . S
C126 C124 1.369 . S
C126 C128 1.392 . S
C126 H154 0.930 . S
C127 C123 1.373 . S
C127 C125 1.383 . S
C127 H155 0.931 . S
C128 C125 1.382 . S
C128 C126 1.392 . S
C129 Eu120 2.828 . S
C129 C123 1.505 . S
C129 O141 1.249 . S
C129 O142 1.244 . S
O130 Eu121 2.373 . S
O130 C132 1.258 . S
O131 Eu120 2.392 . S
O131 C132 1.242 . S
C132 O130 1.258 . S
C132 O131 1.242 . S
O133 Eu120 2.418 . S
O133 C137 1.244 . S
O134 Eu121 2.488 . S
O134 C150 1.249 . S
O135 Eu121 2.471 . S
O135 C150 1.244 . S
O136 Eu121 2.349 . S
O136 C137 1.265 . S
C137 O133 1.244 . S
C137 O136 1.265 . S
O138 Eu120 2.373 . S
O138 C151 1.258 . S
O139 Eu121 2.392 . S
O139 C151 1.242 . S
O140 Eu121 2.418 . S
O140 C122 1.244 . S
O141 Eu120 2.488 . S
O141 C129 1.249 . S
O142 Eu120 2.471 . S
O142 C129 1.244 . S
O143 Eu120 2.349 . S
O143 C122 1.265 . S
C144 C145 1.379 . S
C144 C148 1.373 . S
C144 C150 1.505 . S
C145 C144 1.379 . S
C145 C147 1.369 . S
C145 H156 0.930 . S
C146 C148 1.383 . S
C146 C149 1.382 . S
C146 H157 0.930 . S
C147 C145 1.369 . S
C147 C149 1.392 . S
C147 H158 0.930 . S
C148 C144 1.373 . S
C148 C146 1.383 . S
C148 H159 0.931 . S
C149 C146 1.382 . S
C149 C147 1.392 . S
C150 Eu121 2.828 . S
C150 O134 1.249 . S
C150 O135 1.244 . S
C150 C144 1.505 . S
C151 O138 1.258 . S
C151 O139 1.242 . S
H152 C124 0.930 . S
H153 C125 0.930 . S
H154 C126 0.930 . S
H155 C127 0.931 . S
H156 C145 0.930 . S
H157 C146 0.930 . S
H158 C147 0.930 . S
H159 C148 0.931 . S
Eu160 C169 2.828 . S
Eu160 O171 2.392 . S
Eu160 O173 2.418 . S
Eu160 O178 2.373 . S
Eu160 O181 2.488 . S
Eu160 O182 2.471 . S
Eu160 O183 2.349 . S
Eu161 O170 2.373 . S
Eu161 O174 2.488 . S
Eu161 O175 2.471 . S
Eu161 O176 2.349 . S
Eu161 O179 2.392 . S
Eu161 O180 2.418 . S
Eu161 C190 2.828 . S
C162 O180 1.244 . S
C162 O183 1.265 . S
C163 C164 1.379 . S
C163 C167 1.373 . S
C163 C169 1.505 . S
C164 C163 1.379 . S
C164 C166 1.369 . S
C164 H192 0.930 . S
C165 C167 1.383 . S
C165 C168 1.382 . S
C165 H193 0.930 . S
C166 C164 1.369 . S
C166 C168 1.392 . S
C166 H194 0.930 . S
C167 C163 1.373 . S
C167 C165 1.383 . S
C167 H195 0.931 . S
C168 C165 1.382 . S
C168 C166 1.392 . S
C169 Eu160 2.828 . S
C169 C163 1.505 . S
C169 O181 1.249 . S
C169 O182 1.244 . S
O170 Eu161 2.373 . S
O170 C172 1.258 . S
O171 Eu160 2.392 . S
O171 C172 1.242 . S
C172 O170 1.258 . S
C172 O171 1.242 . S
O173 Eu160 2.418 . S
O173 C177 1.244 . S
O174 Eu161 2.488 . S
O174 C190 1.249 . S
O175 Eu161 2.471 . S
O175 C190 1.244 . S
O176 Eu161 2.349 . S
O176 C177 1.265 . S
C177 O173 1.244 . S
C177 O176 1.265 . S
O178 Eu160 2.373 . S
O178 C191 1.258 . S
O179 Eu161 2.392 . S
O179 C191 1.242 . S
O180 Eu161 2.418 . S
O180 C162 1.244 . S
O181 Eu160 2.488 . S
O181 C169 1.249 . S
O182 Eu160 2.471 . S
O182 C169 1.244 . S
O183 Eu160 2.349 . S
O183 C162 1.265 . S
C184 C185 1.379 . S
C184 C188 1.373 . S
C184 C190 1.505 . S
C185 C184 1.379 . S
C185 C187 1.369 . S
C185 H196 0.930 . S
C186 C188 1.383 . S
C186 C189 1.382 . S
C186 H197 0.930 . S
C187 C185 1.369 . S
C187 C189 1.392 . S
C187 H198 0.930 . S
C188 C184 1.373 . S
C188 C186 1.383 . S
C188 H199 0.931 . S
C189 C186 1.382 . S
C189 C187 1.392 . S
C190 Eu161 2.828 . S
C190 O174 1.249 . S
C190 O175 1.244 . S
C190 C184 1.505 . S
C191 O178 1.258 . S
C191 O179 1.242 . S
H192 C164 0.930 . S
H193 C165 0.930 . S
H194 C166 0.930 . S
H195 C167 0.931 . S
H196 C185 0.930 . S
H197 C186 0.930 . S
H198 C187 0.930 . S
H199 C188 0.931 . S
Eu200 C209 2.828 . S
Eu200 O211 2.392 1_655 S
Eu200 O213 2.418 . S
Eu200 O218 2.373 . S
Eu200 O221 2.488 . S
Eu200 O222 2.471 . S
Eu200 O223 2.349 1_655 S
Eu201 O210 2.373 . S
Eu201 O214 2.488 . S
Eu201 O215 2.471 . S
Eu201 O216 2.349 1_455 S
Eu201 O219 2.392 1_455 S
Eu201 O220 2.418 . S
Eu201 C230 2.828 . S
C202 O220 1.244 . S
C202 O223 1.265 . S
C203 C204 1.379 . S
C203 C207 1.373 . S
C203 C209 1.505 . S
C204 C203 1.379 . S
C204 C206 1.369 . S
C204 H232 0.930 . S
C205 C207 1.383 . S
C205 C208 1.382 . S
C205 H233 0.930 . S
C206 C204 1.369 . S
C206 C208 1.392 . S
C206 H234 0.930 . S
C207 C203 1.373 . S
C207 C205 1.383 . S
C207 H235 0.931 . S
C208 C205 1.382 . S
C208 C206 1.392 . S
C209 Eu200 2.828 . S
C209 C203 1.505 . S
C209 O221 1.249 . S
C209 O222 1.244 . S
O210 Eu201 2.373 . S
O210 C212 1.258 . S
O211 Eu200 2.392 1_455 S
O211 C212 1.242 . S
C212 O210 1.258 . S
C212 O211 1.242 . S
O213 Eu200 2.418 . S
O213 C217 1.244 . S
O214 Eu201 2.488 . S
O214 C230 1.249 . S
O215 Eu201 2.471 . S
O215 C230 1.244 . S
O216 Eu201 2.349 1_655 S
O216 C217 1.265 . S
C217 O213 1.244 . S
C217 O216 1.265 . S
O218 Eu200 2.373 . S
O218 C231 1.258 . S
O219 Eu201 2.392 1_655 S
O219 C231 1.242 . S
O220 Eu201 2.418 . S
O220 C202 1.244 . S
O221 Eu200 2.488 . S
O221 C209 1.249 . S
O222 Eu200 2.471 . S
O222 C209 1.244 . S
O223 Eu200 2.349 1_455 S
O223 C202 1.265 . S
C224 C225 1.379 . S
C224 C228 1.373 . S
C224 C230 1.505 . S
C225 C224 1.379 . S
C225 C227 1.369 . S
C225 H236 0.930 . S
C226 C228 1.383 . S
C226 C229 1.382 . S
C226 H237 0.930 . S
C227 C225 1.369 . S
C227 C229 1.392 . S
C227 H238 0.930 . S
C228 C224 1.373 . S
C228 C226 1.383 . S
C228 H239 0.931 . S
C229 C226 1.382 . S
C229 C227 1.392 . S
C230 Eu201 2.828 . S
C230 O214 1.249 . S
C230 O215 1.244 . S
C230 C224 1.505 . S
C231 O218 1.258 . S
C231 O219 1.242 . S
H232 C204 0.930 . S
H233 C205 0.930 . S
H234 C206 0.930 . S
H235 C207 0.931 . S
H236 C225 0.930 . S
H237 C226 0.930 . S
H238 C227 0.930 . S
H239 C228 0.931 . S
Eu240 C249 2.828 . S
Eu240 O251 2.392 1_554 S
Eu240 O253 2.418 . S
Eu240 O258 2.373 . S
Eu240 O261 2.488 . S
Eu240 O262 2.471 . S
Eu240 O263 2.349 1_554 S
Eu241 O250 2.373 . S
Eu241 O254 2.488 . S
Eu241 O255 2.471 . S
Eu241 O256 2.349 1_556 S
Eu241 O259 2.392 1_556 S
Eu241 O260 2.418 . S
Eu241 C270 2.828 . S
C242 O260 1.244 . S
C242 O263 1.265 . S
C243 C244 1.379 . S
C243 C247 1.373 . S
C243 C249 1.505 . S
C244 C243 1.379 . S
C244 C246 1.369 . S
C244 H272 0.930 . S
C245 C247 1.383 . S
C245 C248 1.382 . S
C245 H273 0.930 . S
C246 C244 1.369 . S
C246 C248 1.392 . S
C246 H274 0.930 . S
C247 C243 1.373 . S
C247 C245 1.383 . S
C247 H275 0.931 . S
C248 C245 1.382 . S
C248 C246 1.392 . S
C249 Eu240 2.828 . S
C249 C243 1.505 . S
C249 O261 1.249 . S
C249 O262 1.244 . S
O250 Eu241 2.373 . S
O250 C252 1.258 . S
O251 Eu240 2.392 1_556 S
O251 C252 1.242 . S
C252 O250 1.258 . S
C252 O251 1.242 . S
O253 Eu240 2.418 . S
O253 C257 1.244 . S
O254 Eu241 2.488 . S
O254 C270 1.249 . S
O255 Eu241 2.471 . S
O255 C270 1.244 . S
O256 Eu241 2.349 1_554 S
O256 C257 1.265 . S
C257 O253 1.244 . S
C257 O256 1.265 . S
O258 Eu240 2.373 . S
O258 C271 1.258 . S
O259 Eu241 2.392 1_554 S
O259 C271 1.242 . S
O260 Eu241 2.418 . S
O260 C242 1.244 . S
O261 Eu240 2.488 . S
O261 C249 1.249 . S
O262 Eu240 2.471 . S
O262 C249 1.244 . S
O263 Eu240 2.349 1_556 S
O263 C242 1.265 . S
C264 C265 1.379 . S
C264 C268 1.373 . S
C264 C270 1.505 . S
C265 C264 1.379 . S
C265 C267 1.369 . S
C265 H276 0.930 . S
C266 C268 1.383 . S
C266 C269 1.382 . S
C266 H277 0.930 . S
C267 C265 1.369 . S
C267 C269 1.392 . S
C267 H278 0.930 . S
C268 C264 1.373 . S
C268 C266 1.383 . S
C268 H279 0.931 . S
C269 C266 1.382 . S
C269 C267 1.392 . S
C270 Eu241 2.828 . S
C270 O254 1.249 . S
C270 O255 1.244 . S
C270 C264 1.505 . S
C271 O258 1.258 . S
C271 O259 1.242 . S
H272 C244 0.930 . S
H273 C245 0.930 . S
H274 C246 0.930 . S
H275 C247 0.931 . S
H276 C265 0.930 . S
H277 C266 0.930 . S
H278 C267 0.930 . S
H279 C268 0.931 . S
Eu280 C289 2.828 . S
Eu280 O291 2.392 . S
Eu280 O293 2.418 . S
Eu280 O298 2.373 . S
Eu280 O301 2.488 . S
Eu280 O302 2.471 . S
Eu280 O303 2.349 . S
Eu281 O290 2.373 . S
Eu281 O294 2.488 . S
Eu281 O295 2.471 . S
Eu281 O296 2.349 . S
Eu281 O299 2.392 . S
Eu281 O300 2.418 . S
Eu281 C310 2.828 . S
C282 O300 1.244 . S
C282 O303 1.265 . S
C283 C284 1.379 . S
C283 C287 1.373 . S
C283 C289 1.505 . S
C284 C283 1.379 . S
C284 C286 1.369 . S
C284 H312 0.930 . S
C285 C287 1.383 . S
C285 C288 1.382 . S
C285 H313 0.930 . S
C286 C284 1.369 . S
C286 C288 1.392 . S
C286 H314 0.930 . S
C287 C283 1.373 . S
C287 C285 1.383 . S
C287 H315 0.931 . S
C288 C285 1.382 . S
C288 C286 1.392 . S
C289 Eu280 2.828 . S
C289 C283 1.505 . S
C289 O301 1.249 . S
C289 O302 1.244 . S
O290 Eu281 2.373 . S
O290 C292 1.258 . S
O291 Eu280 2.392 . S
O291 C292 1.242 . S
C292 O290 1.258 . S
C292 O291 1.242 . S
O293 Eu280 2.418 . S
O293 C297 1.244 . S
O294 Eu281 2.488 . S
O294 C310 1.249 . S
O295 Eu281 2.471 . S
O295 C310 1.244 . S
O296 Eu281 2.349 . S
O296 C297 1.265 . S
C297 O293 1.244 . S
C297 O296 1.265 . S
O298 Eu280 2.373 . S
O298 C311 1.258 . S
O299 Eu281 2.392 . S
O299 C311 1.242 . S
O300 Eu281 2.418 . S
O300 C282 1.244 . S
O301 Eu280 2.488 . S
O301 C289 1.249 . S
O302 Eu280 2.471 . S
O302 C289 1.244 . S
O303 Eu280 2.349 . S
O303 C282 1.265 . S
C304 C305 1.379 . S
C304 C308 1.373 . S
C304 C310 1.505 . S
C305 C304 1.379 . S
C305 C307 1.369 . S
C305 H316 0.930 . S
C306 C308 1.383 . S
C306 C309 1.382 . S
C306 H317 0.930 . S
C307 C305 1.369 . S
C307 C309 1.392 . S
C307 H318 0.930 . S
C308 C304 1.373 . S
C308 C306 1.383 . S
C308 H319 0.931 . S
C309 C306 1.382 . S
C309 C307 1.392 . S
C310 Eu281 2.828 . S
C310 O294 1.249 . S
C310 O295 1.244 . S
C310 C304 1.505 . S
C311 O298 1.258 . S
C311 O299 1.242 . S
H312 C284 0.930 . S
H313 C285 0.930 . S
H314 C286 0.930 . S
H315 C287 0.931 . S
H316 C305 0.930 . S
H317 C306 0.930 . S
H318 C307 0.930 . S
H319 C308 0.931 . S
Eu320 C329 2.828 . S
Eu320 O331 2.392 . S
Eu320 O333 2.418 . S
Eu320 O338 2.373 . S
Eu320 O341 2.488 . S
Eu320 O342 2.471 . S
Eu320 O343 2.349 . S
Eu321 O330 2.373 . S
Eu321 O334 2.488 . S
Eu321 O335 2.471 . S
Eu321 O336 2.349 . S
Eu321 O339 2.392 . S
Eu321 O340 2.418 . S
Eu321 C350 2.828 . S
C322 O340 1.244 . S
C322 O343 1.265 . S
C323 C324 1.379 . S
C323 C327 1.373 . S
C323 C329 1.505 . S
C324 C323 1.379 . S
C324 C326 1.369 . S
C324 H352 0.930 . S
C325 C327 1.383 . S
C325 C328 1.382 . S
C325 H353 0.930 . S
C326 C324 1.369 . S
C326 C328 1.392 . S
C326 H354 0.930 . S
C327 C323 1.373 . S
C327 C325 1.383 . S
C327 H355 0.931 . S
C328 C325 1.382 . S
C328 C326 1.392 . S
C329 Eu320 2.828 . S
C329 C323 1.505 . S
C329 O341 1.249 . S
C329 O342 1.244 . S
O330 Eu321 2.373 . S
O330 C332 1.258 . S
O331 Eu320 2.392 . S
O331 C332 1.242 . S
C332 O330 1.258 . S
C332 O331 1.242 . S
O333 Eu320 2.418 . S
O333 C337 1.244 . S
O334 Eu321 2.488 . S
O334 C350 1.249 . S
O335 Eu321 2.471 . S
O335 C350 1.244 . S
O336 Eu321 2.349 . S
O336 C337 1.265 . S
C337 O333 1.244 . S
C337 O336 1.265 . S
O338 Eu320 2.373 . S
O338 C351 1.258 . S
O339 Eu321 2.392 . S
O339 C351 1.242 . S
O340 Eu321 2.418 . S
O340 C322 1.244 . S
O341 Eu320 2.488 . S
O341 C329 1.249 . S
O342 Eu320 2.471 . S
O342 C329 1.244 . S
O343 Eu320 2.349 . S
O343 C322 1.265 . S
C344 C345 1.379 . S
C344 C348 1.373 . S
C344 C350 1.505 . S
C345 C344 1.379 . S
C345 C347 1.369 . S
C345 H356 0.930 . S
C346 C348 1.383 . S
C346 C349 1.382 . S
C346 H357 0.930 . S
C347 C345 1.369 . S
C347 C349 1.392 . S
C347 H358 0.930 . S
C348 C344 1.373 . S
C348 C346 1.383 . S
C348 H359 0.931 . S
C349 C346 1.382 . S
C349 C347 1.392 . S
C350 Eu321 2.828 . S
C350 O334 1.249 . S
C350 O335 1.244 . S
C350 C344 1.505 . S
C351 O338 1.258 . S
C351 O339 1.242 . S
H352 C324 0.930 . S
H353 C325 0.930 . S
H354 C326 0.930 . S
H355 C327 0.931 . S
H356 C345 0.930 . S
H357 C346 0.930 . S
H358 C347 0.930 . S
H359 C348 0.931 . S
Eu360 C369 2.828 . S
Eu360 O371 2.392 . S
Eu360 O373 2.418 1_565 S
Eu360 O378 2.373 1_565 S
Eu360 O381 2.488 . S
Eu360 O382 2.471 . S
Eu360 O383 2.349 . S
Eu361 O370 2.373 . S
Eu361 O374 2.488 . S
Eu361 O375 2.471 . S
Eu361 O376 2.349 . S
Eu361 O379 2.392 . S
Eu361 O380 2.396 1_545 S
Eu361 C390 2.828 . S
C362 O380 1.265 . S
C362 O383 1.265 . S
C363 C364 1.379 . S
C363 C367 1.373 . S
C363 C369 1.505 . S
C364 C363 1.379 . S
C364 C366 1.369 . S
C364 H392 0.930 . S
C365 C367 1.383 . S
C365 C368 1.382 . S
C365 H393 0.930 . S
C366 C364 1.369 . S
C366 C368 1.392 . S
C366 H394 0.930 . S
C367 C363 1.373 . S
C367 C365 1.383 . S
C367 H395 0.931 . S
C368 C365 1.382 . S
C368 C366 1.392 . S
C369 Eu360 2.828 . S
C369 C363 1.505 . S
C369 O381 1.249 . S
C369 O382 1.244 . S
O370 Eu361 2.373 . S
O370 C372 1.258 1_545 S
O371 Eu360 2.392 . S
O371 C372 1.242 . S
C372 O370 1.258 1_565 S
C372 O371 1.242 . S
O373 Eu360 2.418 1_545 S
O373 C377 1.244 . S
O374 Eu361 2.488 . S
O374 C390 1.249 . S
O375 Eu361 2.471 . S
O375 C390 1.244 . S
O376 Eu361 2.349 . S
O376 C377 1.265 . S
C377 O373 1.244 . S
C377 O376 1.265 . S
O378 Eu360 2.373 1_545 S
O378 C391 1.258 . S
O379 Eu361 2.392 . S
O379 C391 1.242 . S
O380 Eu361 2.396 1_565 S
O380 C362 1.265 . S
O381 Eu360 2.488 . S
O381 C369 1.249 . S
O382 Eu360 2.471 . S
O382 C369 1.244 . S
O383 Eu360 2.349 . S
O383 C362 1.265 . S
C384 C385 1.379 . S
C384 C388 1.373 . S
C384 C390 1.505 . S
C385 C384 1.379 . S
C385 C387 1.369 . S
C385 H396 0.930 . S
C386 C388 1.383 . S
C386 C389 1.382 . S
C386 H397 0.930 . S
C387 C385 1.369 . S
C387 C389 1.392 . S
C387 H398 0.930 . S
C388 C384 1.373 . S
C388 C386 1.383 . S
C388 H399 0.931 . S
C389 C386 1.382 . S
C389 C387 1.392 . S
C390 Eu361 2.828 . S
C390 O374 1.249 . S
C390 O375 1.244 . S
C390 C384 1.505 . S
C391 O378 1.258 . S
C391 O379 1.242 . S
H392 C364 0.930 . S
H393 C365 0.930 . S
H394 C366 0.930 . S
H395 C367 0.931 . S
H396 C385 0.930 . S
H397 C386 0.930 . S
H398 C387 0.930 . S
H399 C388 0.931 . S
Eu400 C409 2.828 . S
Eu400 O411 2.392 1_565 S
Eu400 O413 2.418 . S
Eu400 O418 2.373 . S
Eu400 O421 2.488 . S
Eu400 O422 2.471 . S
Eu400 O423 2.349 . S
Eu401 O410 2.373 . S
Eu401 O414 2.488 . S
Eu401 O415 2.471 . S
Eu401 O416 2.349 1_545 S
Eu401 O419 2.392 1_545 S
Eu401 O420 2.418 . S
Eu401 C430 2.828 . S
C402 O420 1.244 . S
C402 O423 1.265 1_545 S
C403 C404 1.379 . S
C403 C407 1.373 . S
C403 C409 1.505 . S
C404 C403 1.379 . S
C404 C406 1.369 . S
C404 H432 0.930 . S
C405 C407 1.383 . S
C405 C408 1.382 . S
C405 H433 0.930 . S
C406 C404 1.369 . S
C406 C408 1.392 . S
C406 H434 0.930 . S
C407 C403 1.373 . S
C407 C405 1.383 . S
C407 H435 0.931 . S
C408 C405 1.382 . S
C408 C406 1.392 . S
C409 Eu400 2.828 . S
C409 C403 1.505 . S
C409 O421 1.249 . S
C409 O422 1.244 . S
O410 Eu401 2.373 . S
O410 C412 1.258 . S
O411 Eu400 2.392 1_545 S
O411 C412 1.242 . S
C412 O410 1.258 . S
C412 O411 1.242 . S
O413 Eu400 2.418 . S
O413 C417 1.244 . S
O414 Eu401 2.488 . S
O414 C430 1.249 . S
O415 Eu401 2.471 . S
O415 C430 1.244 . S
O416 Eu401 2.349 1_565 S
O416 C417 1.265 . S
C417 O413 1.244 . S
C417 O416 1.265 . S
O418 Eu400 2.373 . S
O418 C431 1.258 . S
O419 Eu401 2.392 1_565 S
O419 C431 1.242 . S
O420 Eu401 2.418 . S
O420 C402 1.244 . S
O421 Eu400 2.488 . S
O421 C409 1.249 . S
O422 Eu400 2.471 . S
O422 C409 1.244 . S
O423 Eu400 2.349 . S
O423 C402 1.265 1_565 S
C424 C425 1.379 . S
C424 C428 1.373 . S
C424 C430 1.505 . S
C425 C424 1.379 . S
C425 C427 1.369 . S
C425 H436 0.930 . S
C426 C428 1.383 . S
C426 C429 1.382 . S
C426 H437 0.930 . S
C427 C425 1.369 . S
C427 C429 1.392 . S
C427 H438 0.930 . S
C428 C424 1.373 . S
C428 C426 1.383 . S
C428 H439 0.931 . S
C429 C426 1.382 . S
C429 C427 1.392 . S
C430 Eu401 2.828 . S
C430 O414 1.249 . S
C430 O415 1.244 . S
C430 C424 1.505 . S
C431 O418 1.258 . S
C431 O419 1.242 . S
H432 C404 0.930 . S
H433 C405 0.930 . S
H434 C406 0.930 . S
H435 C407 0.931 . S
H436 C425 0.930 . S
H437 C426 0.930 . S
H438 C427 0.930 . S
H439 C428 0.931 . S
Eu440 C449 2.828 . S
Eu440 O451 2.392 . S
Eu440 O453 2.418 . S
Eu440 O458 2.373 . S
Eu440 O461 2.488 . S
Eu440 O462 2.471 . S
Eu440 O463 2.349 . S
Eu441 O450 2.373 . S
Eu441 O454 2.488 . S
Eu441 O455 2.471 . S
Eu441 O456 2.349 . S
Eu441 O459 2.392 . S
Eu441 O460 2.418 . S
Eu441 C470 2.828 . S
C442 O460 1.244 . S
C442 O463 1.265 . S
C443 C444 1.379 . S
C443 C447 1.373 . S
C443 C449 1.505 . S
C444 C443 1.379 . S
C444 C446 1.369 . S
C444 H472 0.930 . S
C445 C447 1.383 . S
C445 C448 1.382 . S
C445 H473 0.930 . S
C446 C444 1.369 . S
C446 C448 1.392 . S
C446 H474 0.930 . S
C447 C443 1.373 . S
C447 C445 1.383 . S
C447 H475 0.931 . S
C448 C445 1.382 . S
C448 C446 1.392 . S
C449 Eu440 2.828 . S
C449 C443 1.505 . S
C449 O461 1.249 . S
C449 O462 1.244 . S
O450 Eu441 2.373 . S
O450 C452 1.258 . S
O451 Eu440 2.392 . S
O451 C452 1.242 . S
C452 O450 1.258 . S
C452 O451 1.242 . S
O453 Eu440 2.418 . S
O453 C457 1.244 . S
O454 Eu441 2.488 . S
O454 C470 1.249 . S
O455 Eu441 2.471 . S
O455 C470 1.244 . S
O456 Eu441 2.349 . S
O456 C457 1.265 . S
C457 O453 1.244 . S
C457 O456 1.265 . S
O458 Eu440 2.373 . S
O458 C471 1.258 . S
O459 Eu441 2.392 . S
O459 C471 1.242 . S
O460 Eu441 2.418 . S
O460 C442 1.244 . S
O461 Eu440 2.488 . S
O461 C449 1.249 . S
O462 Eu440 2.471 . S
O462 C449 1.244 . S
O463 Eu440 2.349 . S
O463 C442 1.265 . S
C464 C465 1.379 . S
C464 C468 1.373 . S
C464 C470 1.505 . S
C465 C464 1.379 . S
C465 C467 1.369 . S
C465 H476 0.930 . S
C466 C468 1.383 . S
C466 C469 1.382 . S
C466 H477 0.930 . S
C467 C465 1.369 . S
C467 C469 1.392 . S
C467 H478 0.930 . S
C468 C464 1.373 . S
C468 C466 1.383 . S
C468 H479 0.931 . S
C469 C466 1.382 . S
C469 C467 1.392 . S
C470 Eu441 2.828 . S
C470 O454 1.249 . S
C470 O455 1.244 . S
C470 C464 1.505 . S
C471 O458 1.258 . S
C471 O459 1.242 . S
H472 C444 0.930 . S
H473 C445 0.930 . S
H474 C446 0.930 . S
H475 C447 0.931 . S
H476 C465 0.930 . S
H477 C466 0.930 . S
H478 C467 0.930 . S
H479 C468 0.931 . S
H480 C488 0.950 . S
H481 C493 0.950 . S
H482 C490 0.950 . S
H483 C492 0.950 . S
H484 C494 0.950 . S
H485 C496 0.950 . S
H486 C498 0.950 . S
H487 C499 0.950 . S
C488 H480 0.950 . S
C488 C489 1.386 . S
C488 C490 1.391 . S
C489 C488 1.386 . S
C489 C493 1.393 . S
C490 H482 0.950 . S
C490 C488 1.391 . S
C490 C491 1.400 . S
C491 C490 1.400 . S
C491 C492 1.398 . S
C491 C497 1.491 . S
C492 H483 0.950 . S
C492 C491 1.398 . S
C492 C493 1.391 . S
C493 H481 0.950 . S
C493 C489 1.393 . S
C493 C492 1.391 . S
C494 H484 0.950 . S
C494 C495 1.386 . S
C494 C496 1.391 . S
C495 C494 1.386 . S
C495 C499 1.393 . S
C496 H485 0.950 . S
C496 C494 1.391 . S
C496 C497 1.400 . S
C497 C491 1.491 . S
C497 C496 1.400 . S
C497 C498 1.398 . S
C498 H486 0.950 . S
C498 C497 1.398 . S
C498 C499 1.391 . S
C499 H487 0.950 . S
C499 C495 1.393 . S
C499 C498 1.391 . S
H500 C508 0.950 . S
H501 C513 0.936 1_545 S
H502 C510 0.950 . S
H503 C512 0.950 . S
H504 C514 0.950 . S
H505 C516 0.950 . S
H506 C518 0.950 . S
H507 C519 0.950 . S
C508 H500 0.950 . S
C508 C509 1.386 . S
C508 C510 1.391 . S
C509 C508 1.386 . S
C509 C513 1.401 . S
C510 H502 0.950 . S
C510 C508 1.391 . S
C510 C511 1.400 . S
C511 C510 1.400 . S
C511 C512 1.398 . S
C511 C517 1.491 . S
C512 H503 0.950 . S
C512 C511 1.398 . S
C512 C513 1.396 . S
C513 H501 0.936 1_565 S
C513 C509 1.401 . S
C513 C512 1.396 . S
C514 H504 0.950 . S
C514 C515 1.386 . S
C514 C516 1.391 . S
C515 C514 1.386 . S
C515 C519 1.393 . S
C516 H505 0.950 . S
C516 C514 1.391 . S
C516 C517 1.400 . S
C517 C511 1.491 . S
C517 C516 1.400 . S
C517 C518 1.398 . S
C518 H506 0.950 . S
C518 C517 1.398 . S
C518 C519 1.391 . S
C519 H507 0.950 . S
C519 C515 1.393 . S
C519 C518 1.391 . S
H520 C528 0.950 . S
H521 C533 0.950 . S
H522 C530 0.950 . S
H523 C532 0.950 . S
H524 C534 0.950 . S
H525 C536 0.950 . S
H526 C538 0.950 . S
H527 C539 0.950 . S
C528 H520 0.950 . S
C528 C529 1.386 . S
C528 C530 1.391 . S
C529 C528 1.386 . S
C529 C533 1.393 . S
C530 H522 0.950 . S
C530 C528 1.391 . S
C530 C531 1.400 . S
C531 C530 1.400 . S
C531 C532 1.398 . S
C531 C537 1.491 . S
C532 H523 0.950 . S
C532 C531 1.398 . S
C532 C533 1.391 . S
C533 H521 0.950 . S
C533 C529 1.393 . S
C533 C532 1.391 . S
C534 H524 0.950 . S
C534 C535 1.386 . S
C534 C536 1.391 . S
C535 C534 1.386 . S
C535 C539 1.393 . S
C536 H525 0.950 . S
C536 C534 1.391 . S
C536 C537 1.400 . S
C537 C531 1.491 . S
C537 C536 1.400 . S
C537 C538 1.398 . S
C538 H526 0.950 . S
C538 C537 1.398 . S
C538 C539 1.391 . S
C539 H527 0.950 . S
C539 C535 1.393 . S
C539 C538 1.391 . S
H540 C548 0.950 . S
H541 C553 0.950 . S
H542 C550 0.950 . S
H543 C552 0.950 . S
H544 C554 0.950 1_565 S
H545 C556 0.950 . S
H546 C558 0.950 . S
H547 C559 0.950 . S
C548 H540 0.950 . S
C548 C549 1.386 . S
C548 C550 1.391 . S
C549 C548 1.386 . S
C549 C553 1.393 . S
C550 H542 0.950 . S
C550 C548 1.391 . S
C550 C551 1.400 . S
C551 C550 1.400 . S
C551 C552 1.398 . S
C551 C557 1.491 . S
C552 H543 0.950 . S
C552 C551 1.398 . S
C552 C553 1.391 . S
C553 H541 0.950 . S
C553 C549 1.393 . S
C553 C552 1.391 . S
C554 H544 0.950 1_545 S
C554 C555 1.386 . S
C554 C556 1.391 . S
C555 C554 1.386 . S
C555 C559 1.393 . S
C556 H545 0.950 . S
C556 C554 1.391 . S
C556 C557 1.400 . S
C557 C551 1.491 . S
C557 C556 1.400 . S
C557 C558 1.398 . S
C558 H546 0.950 . S
C558 C557 1.398 . S
C558 C559 1.391 . S
C559 H547 0.950 . S
C559 C555 1.393 . S
C559 C558 1.391 . S
H560 C568 0.950 . S
H561 C573 0.950 . S
H562 C570 0.950 . S
H563 C572 0.950 . S
H564 C574 0.950 . S
H565 C576 0.950 . S
H566 C578 0.950 . S
H567 C579 0.950 . S
C568 H560 0.950 . S
C568 C569 1.386 . S
C568 C570 1.391 . S
C569 C568 1.386 . S
C569 C573 1.393 . S
C570 H562 0.950 . S
C570 C568 1.391 . S
C570 C571 1.400 . S
C571 C570 1.400 . S
C571 C572 1.398 . S
C571 C577 1.491 . S
C572 H563 0.950 . S
C572 C571 1.398 . S
C572 C573 1.391 . S
C573 H561 0.950 . S
C573 C569 1.393 . S
C573 C572 1.391 . S
C574 H564 0.950 . S
C574 C575 1.386 . S
C574 C576 1.391 . S
C575 C574 1.386 . S
C575 C579 1.393 . S
C576 H565 0.950 . S
C576 C574 1.391 . S
C576 C577 1.400 . S
C577 C571 1.491 . S
C577 C576 1.400 . S
C577 C578 1.398 . S
C578 H566 0.950 . S
C578 C577 1.398 . S
C578 C579 1.391 . S
C579 H567 0.950 . S
C579 C575 1.393 . S
C579 C578 1.391 . S
H580 C588 0.950 . S
H581 C593 0.950 . S
H582 C590 0.950 . S
H583 C592 0.950 . S
H584 C594 0.950 . S
H585 C596 0.950 . S
H586 C598 0.950 . S
H587 C599 0.950 . S
C588 H580 0.950 . S
C588 C589 1.386 . S
C588 C590 1.391 . S
C589 C588 1.386 . S
C589 C593 1.393 . S
C590 H582 0.950 . S
C590 C588 1.391 . S
C590 C591 1.400 . S
C591 C590 1.400 . S
C591 C592 1.398 . S
C591 C597 1.491 . S
C592 H583 0.950 . S
C592 C591 1.398 . S
C592 C593 1.391 . S
C593 H581 0.950 . S
C593 C589 1.393 . S
C593 C592 1.391 . S
C594 H584 0.950 . S
C594 C595 1.386 . S
C594 C596 1.391 . S
C595 C594 1.386 . S
C595 C599 1.393 . S
C596 H585 0.950 . S
C596 C594 1.391 . S
C596 C597 1.400 . S
C597 C591 1.491 . S
C597 C596 1.400 . S
C597 C598 1.398 . S
C598 H586 0.950 . S
C598 C597 1.398 . S
C598 C599 1.391 . S
C599 H587 0.950 . S
C599 C595 1.393 . S
C599 C598 1.391 . S
H600 C608 0.950 . S
H601 C613 0.950 . S
H602 C610 0.950 . S
H603 C612 0.950 . S
H604 C614 0.950 . S
H605 C616 0.950 . S
H606 C618 0.950 . S
H607 C619 0.950 . S
C608 H600 0.950 . S
C608 C609 1.386 . S
C608 C610 1.391 . S
C609 C608 1.386 . S
C609 C613 1.393 . S
C610 H602 0.950 . S
C610 C608 1.391 . S
C610 C611 1.400 . S
C611 C610 1.400 . S
C611 C612 1.398 . S
C611 C617 1.491 . S
C612 H603 0.950 . S
C612 C611 1.398 . S
C612 C613 1.391 . S
C613 H601 0.950 . S
C613 C609 1.393 . S
C613 C612 1.391 . S
C614 H604 0.950 . S
C614 C615 1.386 . S
C614 C616 1.391 . S
C615 C614 1.386 . S
C615 C619 1.393 . S
C616 H605 0.950 . S
C616 C614 1.391 . S
C616 C617 1.400 . S
C617 C611 1.491 . S
C617 C616 1.400 . S
C617 C618 1.398 . S
C618 H606 0.950 . S
C618 C617 1.398 . S
C618 C619 1.391 . S
C619 H607 0.950 . S
C619 C615 1.393 . S
C619 C618 1.391 . S
H620 C628 0.950 . S
H621 C633 0.950 . S
H622 C630 0.950 . S
H623 C632 0.950 . S
H624 C634 0.950 . S
H625 C636 0.950 . S
H626 C638 0.950 . S
H627 C639 0.950 . S
C628 H620 0.950 . S
C628 C629 1.386 . S
C628 C630 1.391 . S
C629 C628 1.386 . S
C629 C633 1.393 . S
C630 H622 0.950 . S
C630 C628 1.391 . S
C630 C631 1.400 . S
C631 C630 1.400 . S
C631 C632 1.398 . S
C631 C637 1.491 . S
C632 H623 0.950 . S
C632 C631 1.398 . S
C632 C633 1.391 . S
C633 H621 0.950 . S
C633 C629 1.393 . S
C633 C632 1.391 . S
C634 H624 0.950 . S
C634 C635 1.386 . S
C634 C636 1.391 . S
C635 C634 1.386 . S
C635 C639 1.393 . S
C636 H625 0.950 . S
C636 C634 1.391 . S
C636 C637 1.400 . S
C637 C631 1.491 . S
C637 C636 1.400 . S
C637 C638 1.398 . S
C638 H626 0.950 . S
C638 C637 1.398 . S
C638 C639 1.391 . S
C639 H627 0.950 . S
C639 C635 1.393 . S
C639 C638 1.391 . S
H640 C648 0.950 . S
H641 C653 0.950 . S
H642 C650 0.950 . S
H643 C652 0.950 . S
H644 C654 0.950 . S
H645 C656 0.950 . S
H646 C658 0.950 . S
H647 C659 0.950 . S
C648 H640 0.950 . S
C648 C649 1.386 . S
C648 C650 1.391 . S
C649 C648 1.386 . S
C649 C653 1.393 . S
C650 H642 0.950 . S
C650 C648 1.391 . S
C650 C651 1.400 . S
C651 C650 1.400 . S
C651 C652 1.398 . S
C651 C657 1.491 . S
C652 H643 0.950 . S
C652 C651 1.398 . S
C652 C653 1.391 . S
C653 H641 0.950 . S
C653 C649 1.393 . S
C653 C652 1.391 . S
C654 H644 0.950 . S
C654 C655 1.386 . S
C654 C656 1.391 . S
C655 C654 1.386 . S
C655 C659 1.393 . S
C656 H645 0.950 . S
C656 C654 1.391 . S
C656 C657 1.400 . S
C657 C651 1.491 . S
C657 C656 1.400 . S
C657 C658 1.398 . S
C658 H646 0.950 . S
C658 C657 1.398 . S
C658 C659 1.391 . S
C659 H647 0.950 . S
C659 C655 1.393 . S
C659 C658 1.391 . S
H660 C668 0.950 . S
H661 C673 0.950 . S
H662 C670 0.950 . S
H663 C672 0.950 . S
H664 C674 0.950 . S
H665 C676 0.950 . S
H666 C678 0.950 . S
H667 C679 0.950 . S
C668 H660 0.950 . S
C668 C669 1.386 . S
C668 C670 1.391 . S
C669 C668 1.386 . S
C669 C673 1.393 . S
C670 H662 0.950 . S
C670 C668 1.391 . S
C670 C671 1.400 . S
C671 C670 1.400 . S
C671 C672 1.398 . S
C671 C677 1.491 . S
C672 H663 0.950 . S
C672 C671 1.398 . S
C672 C673 1.391 . S
C673 H661 0.950 . S
C673 C669 1.393 . S
C673 C672 1.391 . S
C674 H664 0.950 . S
C674 C675 1.386 . S
C674 C676 1.391 . S
C675 C674 1.386 . S
C675 C679 1.393 . S
C676 H665 0.950 . S
C676 C674 1.391 . S
C676 C677 1.400 . S
C677 C671 1.491 . S
C677 C676 1.400 . S
C677 C678 1.398 . S
C678 H666 0.950 . S
C678 C677 1.398 . S
C678 C679 1.391 . S
C679 H667 0.950 . S
C679 C675 1.393 . S
C679 C678 1.391 . S
H680 C688 0.950 . S
H681 C693 0.950 . S
H682 C690 0.950 . S
H683 C692 0.950 . S
H684 C694 0.950 . S
H685 C696 0.950 . S
H686 C698 0.950 . S
H687 C699 0.950 . S
C688 H680 0.950 . S
C688 C689 1.386 . S
C688 C690 1.391 . S
C689 C688 1.386 . S
C689 C693 1.393 . S
C690 H682 0.950 . S
C690 C688 1.391 . S
C690 C691 1.400 . S
C691 C690 1.400 . S
C691 C692 1.398 . S
C691 C697 1.491 . S
C692 H683 0.950 . S
C692 C691 1.398 . S
C692 C693 1.391 . S
C693 H681 0.950 . S
C693 C689 1.393 . S
C693 C692 1.391 . S
C694 H684 0.950 . S
C694 C695 1.386 . S
C694 C696 1.391 . S
C695 C694 1.386 . S
C695 C699 1.393 . S
C696 H685 0.950 . S
C696 C694 1.391 . S
C696 C697 1.400 . S
C697 C691 1.491 . S
C697 C696 1.400 . S
C697 C698 1.398 . S
C698 H686 0.950 . S
C698 C697 1.398 . S
C698 C699 1.391 . S
C699 H687 0.950 . S
C699 C695 1.393 . S
C699 C698 1.391 . S
H700 C708 0.950 . S
H701 C713 0.950 . S
H702 C710 0.950 . S
H703 C712 0.950 . S
H704 C714 0.950 . S
H705 C716 0.950 . S
H706 C718 0.950 . S
H707 C719 0.950 . S
C708 H700 0.950 . S
C708 C709 1.386 . S
C708 C710 1.391 . S
C709 C708 1.386 . S
C709 C713 1.393 . S
C710 H702 0.950 . S
C710 C708 1.391 . S
C710 C711 1.400 . S
C711 C710 1.400 . S
C711 C712 1.398 . S
C711 C717 1.491 . S
C712 H703 0.950 . S
C712 C711 1.398 . S
C712 C713 1.391 . S
C713 H701 0.950 . S
C713 C709 1.393 . S
C713 C712 1.391 . S
C714 H704 0.950 . S
C714 C715 1.386 . S
C714 C716 1.391 . S
C715 C714 1.386 . S
C715 C719 1.393 . S
C716 H705 0.950 . S
C716 C714 1.391 . S
C716 C717 1.400 . S
C717 C711 1.491 . S
C717 C716 1.400 . S
C717 C718 1.398 . S
C718 H706 0.950 . S
C718 C717 1.398 . S
C718 C719 1.391 . S
C719 H707 0.950 . S
C719 C715 1.393 . S
C719 C718 1.391 . S
H720 C728 0.950 . S
H721 C733 0.950 . S
H722 C730 0.950 . S
H723 C732 0.950 . S
H724 C734 0.950 . S
H725 C736 0.950 . S
H726 C738 0.950 . S
H727 C739 0.950 . S
C728 H720 0.950 . S
C728 C729 1.386 . S
C728 C730 1.391 . S
C729 C728 1.386 . S
C729 C733 1.393 . S
C730 H722 0.950 . S
C730 C728 1.391 . S
C730 C731 1.400 . S
C731 C730 1.400 . S
C731 C732 1.398 . S
C731 C737 1.491 . S
C732 H723 0.950 . S
C732 C731 1.398 . S
C732 C733 1.391 . S
C733 H721 0.950 . S
C733 C729 1.393 . S
C733 C732 1.391 . S
C734 H724 0.950 . S
C734 C735 1.386 . S
C734 C736 1.391 . S
C735 C734 1.386 . S
C735 C739 1.393 . S
C736 H725 0.950 . S
C736 C734 1.391 . S
C736 C737 1.400 . S
C737 C731 1.491 . S
C737 C736 1.400 . S
C737 C738 1.398 . S
C738 H726 0.950 . S
C738 C737 1.398 . S
C738 C739 1.391 . S
C739 H727 0.950 . S
C739 C735 1.393 . S
C739 C738 1.391 . S
H740 C748 0.950 . S
H741 C753 0.950 . S
H742 C750 0.950 . S
H743 C752 0.950 . S
H744 C754 0.950 . S
H745 C756 0.950 . S
H746 C758 0.950 . S
H747 C759 0.950 . S
C748 H740 0.950 . S
C748 C749 1.386 . S
C748 C750 1.391 . S
C749 C748 1.386 . S
C749 C753 1.393 . S
C750 H742 0.950 . S
C750 C748 1.391 . S
C750 C751 1.400 . S
C751 C750 1.400 . S
C751 C752 1.398 . S
C751 C757 1.491 . S
C752 H743 0.950 . S
C752 C751 1.398 . S
C752 C753 1.391 . S
C753 H741 0.950 . S
C753 C749 1.393 . S
C753 C752 1.391 . S
C754 H744 0.950 . S
C754 C755 1.386 . S
C754 C756 1.391 . S
C755 C754 1.386 . S
C755 C759 1.393 . S
C756 H745 0.950 . S
C756 C754 1.391 . S
C756 C757 1.400 . S
C757 C751 1.491 . S
C757 C756 1.400 . S
C757 C758 1.398 . S
C758 H746 0.950 . S
C758 C757 1.398 . S
C758 C759 1.391 . S
C759 H747 0.950 . S
C759 C755 1.393 . S
C759 C758 1.391 . S
H760 C768 0.950 . S
H761 C773 0.950 . S
H762 C770 0.950 . S
H763 C772 0.950 . S
H764 C774 0.950 . S
H765 C776 0.950 . S
H766 C778 0.950 . S
H767 C779 0.950 . S
C768 H760 0.950 . S
C768 C769 1.386 . S
C768 C770 1.391 . S
C769 C768 1.386 . S
C769 C773 1.393 . S
C770 H762 0.950 . S
C770 C768 1.391 . S
C770 C771 1.400 . S
C771 C770 1.400 . S
C771 C772 1.398 . S
C771 C777 1.491 . S
C772 H763 0.950 . S
C772 C771 1.398 . S
C772 C773 1.391 . S
C773 H761 0.950 . S
C773 C769 1.393 . S
C773 C772 1.391 . S
C774 H764 0.950 . S
C774 C775 1.386 . S
C774 C776 1.391 . S
C775 C774 1.386 . S
C775 C779 1.393 . S
C776 H765 0.950 . S
C776 C774 1.391 . S
C776 C777 1.400 . S
C777 C771 1.491 . S
C777 C776 1.400 . S
C777 C778 1.398 . S
C778 H766 0.950 . S
C778 C777 1.398 . S
C778 C779 1.391 . S
C779 H767 0.950 . S
C779 C775 1.393 . S
C779 C778 1.391 . S
H780 C788 0.950 . S
H781 C793 0.950 . S
H782 C790 0.950 . S
H783 C792 0.950 . S
H784 C794 0.950 1_565 S
H785 C796 0.950 . S
H786 C798 0.950 . S
H787 C799 0.950 . S
C788 H780 0.950 . S
C788 C789 1.386 . S
C788 C790 1.391 . S
C789 C788 1.386 . S
C789 C793 1.393 . S
C790 H782 0.950 . S
C790 C788 1.391 . S
C790 C791 1.400 . S
C791 C790 1.400 . S
C791 C792 1.398 . S
C791 C797 1.491 1_554 S
C792 H783 0.950 . S
C792 C791 1.398 . S
C792 C793 1.391 . S
C793 H781 0.950 . S
C793 C789 1.393 . S
C793 C792 1.391 . S
C794 H784 0.950 1_545 S
C794 C795 1.386 . S
C794 C796 1.391 . S
C795 C794 1.386 . S
C795 C799 1.393 . S
C796 H785 0.950 . S
C796 C794 1.391 . S
C796 C797 1.400 . S
C797 C791 1.491 1_556 S
C797 C796 1.400 . S
C797 C798 1.398 . S
C798 H786 0.950 . S
C798 C797 1.398 . S
C798 C799 1.391 . S
C799 H787 0.950 . S
C799 C795 1.393 . S
C799 C798 1.391 . S
H800 C808 0.950 . S
H801 C813 0.950 . S
H802 C810 0.950 . S
H803 C812 0.950 . S
H804 C814 0.950 . S
H805 C816 0.950 . S
H806 C818 0.950 . S
H807 C819 0.950 . S
C808 H800 0.950 . S
C808 C809 1.386 . S
C808 C810 1.391 . S
C809 C808 1.386 . S
C809 C813 1.393 . S
C810 H802 0.950 . S
C810 C808 1.391 . S
C810 C811 1.400 . S
C811 C810 1.400 . S
C811 C812 1.398 . S
C811 C817 1.491 . S
C812 H803 0.950 . S
C812 C811 1.398 . S
C812 C813 1.391 . S
C813 H801 0.950 . S
C813 C809 1.393 . S
C813 C812 1.391 . S
C814 H804 0.950 . S
C814 C815 1.386 . S
C814 C816 1.391 . S
C815 C814 1.386 . S
C815 C819 1.393 . S
C816 H805 0.950 . S
C816 C814 1.391 . S
C816 C817 1.400 . S
C817 C811 1.491 . S
C817 C816 1.400 . S
C817 C818 1.398 . S
C818 H806 0.950 . S
C818 C817 1.398 . S
C818 C819 1.391 . S
C819 H807 0.950 . S
C819 C815 1.393 . S
C819 C818 1.391 . S
H820 C828 0.950 . S
H821 C833 0.950 . S
H822 C830 0.970 . S
H823 C832 0.950 . S
H824 C834 0.950 . S
H825 C836 0.950 . S
H826 C838 0.950 . S
H827 C839 0.950 . S
C828 H820 0.950 . S
C828 C829 1.386 . S
C828 C830 1.391 . S
C829 C828 1.386 . S
C829 C833 1.393 . S
C830 H822 0.970 . S
C830 C828 1.391 . S
C830 C831 1.400 1_554 S
C831 C830 1.400 1_556 S
C831 C832 1.398 1_556 S
C831 C837 1.491 . S
C832 H823 0.950 . S
C832 C831 1.398 1_554 S
C832 C833 1.391 . S
C833 H821 0.950 . S
C833 C829 1.393 . S
C833 C832 1.391 . S
C834 H824 0.950 . S
C834 C835 1.386 . S
C834 C836 1.391 . S
C835 C834 1.386 . S
C835 C839 1.393 . S
C836 H825 0.950 . S
C836 C834 1.391 . S
C836 C837 1.400 . S
C837 C831 1.491 . S
C837 C836 1.400 . S
C837 C838 1.398 . S
C838 H826 0.950 . S
C838 C837 1.398 . S
C838 C839 1.391 . S
C839 H827 0.950 . S
C839 C835 1.393 . S
C839 C838 1.391 . S
H840 C848 0.950 . S
H841 C853 0.950 . S
H842 C850 0.950 . S
H843 C852 0.950 . S
H844 C854 0.950 . S
H845 C856 0.950 . S
H846 C858 0.950 . S
H847 C859 0.950 . S
C848 H840 0.950 . S
C848 C849 1.386 . S
C848 C850 1.391 . S
C849 C848 1.386 . S
C849 C853 1.393 . S
C850 H842 0.950 . S
C850 C848 1.391 . S
C850 C851 1.400 . S
C851 C850 1.400 . S
C851 C852 1.398 . S
C851 C857 1.491 . S
C852 H843 0.950 . S
C852 C851 1.398 . S
C852 C853 1.391 . S
C853 H841 0.950 . S
C853 C849 1.393 . S
C853 C852 1.391 . S
C854 H844 0.950 . S
C854 C855 1.386 . S
C854 C856 1.391 . S
C855 C854 1.386 . S
C855 C859 1.393 . S
C856 H845 0.950 . S
C856 C854 1.391 . S
C856 C857 1.400 . S
C857 C851 1.491 . S
C857 C856 1.400 . S
C857 C858 1.398 . S
C858 H846 0.950 . S
C858 C857 1.398 . S
C858 C859 1.391 . S
C859 H847 0.950 . S
C859 C855 1.393 . S
C859 C858 1.391 . S
H860 C868 0.950 . S
H861 C873 0.950 . S
H862 C870 0.950 . S
H863 C872 0.950 . S
H864 C874 0.950 . S
H865 C876 0.950 . S
H866 C878 0.950 . S
H867 C879 0.950 . S
C868 H860 0.950 . S
C868 C869 1.386 . S
C868 C870 1.391 . S
C869 C868 1.386 . S
C869 C873 1.393 . S
C870 H862 0.950 . S
C870 C868 1.391 . S
C870 C871 1.400 . S
C871 C870 1.400 . S
C871 C872 1.398 . S
C871 C877 1.491 . S
C872 H863 0.950 . S
C872 C871 1.398 . S
C872 C873 1.391 . S
C873 H861 0.950 . S
C873 C869 1.393 . S
C873 C872 1.391 . S
C874 H864 0.950 . S
C874 C875 1.386 . S
C874 C876 1.391 . S
C875 C874 1.386 . S
C875 C879 1.393 . S
C876 H865 0.950 . S
C876 C874 1.391 . S
C876 C877 1.400 . S
C877 C871 1.491 . S
C877 C876 1.400 . S
C877 C878 1.398 . S
C878 H866 0.950 . S
C878 C877 1.398 . S
C878 C879 1.391 . S
C879 H867 0.950 . S
C879 C875 1.393 . S
C879 C878 1.391 . S
H880 C888 0.950 . S
H881 C893 0.950 . S
H882 C890 0.950 . S
H883 C892 0.950 . S
H884 C894 0.950 . S
H885 C896 0.950 . S
H886 C898 0.950 . S
H887 C899 0.950 . S
C888 H880 0.950 . S
C888 C889 1.386 . S
C888 C890 1.391 . S
C889 C888 1.386 . S
C889 C893 1.393 . S
C890 H882 0.950 . S
C890 C888 1.391 . S
C890 C891 1.400 . S
C891 C890 1.400 . S
C891 C892 1.398 . S
C891 C897 1.491 . S
C892 H883 0.950 . S
C892 C891 1.398 . S
C892 C893 1.391 . S
C893 H881 0.950 . S
C893 C889 1.393 . S
C893 C892 1.391 . S
C894 H884 0.950 . S
C894 C895 1.386 . S
C894 C896 1.391 . S
C895 C894 1.386 . S
C895 C899 1.393 . S
C896 H885 0.950 . S
C896 C894 1.391 . S
C896 C897 1.400 . S
C897 C891 1.491 . S
C897 C896 1.400 . S
C897 C898 1.398 . S
C898 H886 0.950 . S
C898 C897 1.398 . S
C898 C899 1.391 . S
C899 H887 0.950 . S
C899 C895 1.393 . S
C899 C898 1.391 . S
H900 C908 0.950 . S
H901 C913 0.950 . S
H902 C910 0.950 . S
H903 C912 0.953 . S
H904 C914 0.950 . S
H905 C916 0.950 . S
H906 C918 0.950 . S
H907 C919 0.950 . S
C908 H900 0.950 . S
C908 C909 1.386 . S
C908 C910 1.391 . S
C909 C908 1.386 . S
C909 C913 1.393 . S
C910 H902 0.950 . S
C910 C908 1.391 . S
C910 C911 1.400 . S
C911 C910 1.400 . S
C911 C912 1.398 . S
C911 C917 1.491 1_545 S
C912 H903 0.953 . S
C912 C911 1.398 . S
C912 C913 1.391 . S
C913 H901 0.950 . S
C913 C909 1.393 . S
C913 C912 1.391 . S
C914 H904 0.950 . S
C914 C915 1.386 . S
C914 C916 1.391 . S
C915 C914 1.386 . S
C915 C919 1.393 . S
C916 H905 0.950 . S
C916 C914 1.391 . S
C916 C917 1.400 . S
C917 C911 1.491 1_565 S
C917 C916 1.400 . S
C917 C918 1.398 . S
C918 H906 0.950 . S
C918 C917 1.398 . S
C918 C919 1.391 . S
C919 H907 0.950 . S
C919 C915 1.393 . S
C919 C918 1.391 . S
H920 C928 0.950 . S
H921 C933 0.950 . S
H922 C930 0.950 . S
H923 C932 0.950 . S
H924 C934 0.950 . S
H925 C936 0.950 . S
H926 C938 0.950 . S
H927 C939 0.950 . S
C928 H920 0.950 . S
C928 C929 1.386 . S
C928 C930 1.391 . S
C929 C928 1.386 . S
C929 C933 1.393 . S
C930 H922 0.950 . S
C930 C928 1.391 . S
C930 C931 1.400 . S
C931 C930 1.400 . S
C931 C932 1.398 . S
C931 C937 1.491 . S
C932 H923 0.950 . S
C932 C931 1.398 . S
C932 C933 1.391 . S
C933 H921 0.950 . S
C933 C929 1.393 . S
C933 C932 1.391 . S
C934 H924 0.950 . S
C934 C935 1.386 . S
C934 C936 1.391 . S
C935 C934 1.386 . S
C935 C939 1.393 . S
C936 H925 0.950 . S
C936 C934 1.391 . S
C936 C937 1.400 . S
C937 C931 1.491 . S
C937 C936 1.400 . S
C937 C938 1.398 . S
C938 H926 0.950 . S
C938 C937 1.398 . S
C938 C939 1.391 . S
C939 H927 0.950 . S
C939 C935 1.393 . S
C939 C938 1.391 . S
H940 C948 0.950 . S
H941 C953 0.950 . S
H942 C950 0.950 . S
H943 C952 0.950 . S
H944 C954 0.950 . S
H945 C956 0.950 1_545 S
H946 C958 0.950 . S
H947 C959 0.950 . S
C948 H940 0.950 . S
C948 C949 1.386 . S
C948 C950 1.391 . S
C949 C948 1.386 . S
C949 C953 1.393 . S
C950 H942 0.950 . S
C950 C948 1.391 . S
C950 C951 1.400 . S
C951 C950 1.400 . S
C951 C952 1.398 . S
C951 C957 1.491 1_545 S
C952 H943 0.950 . S
C952 C951 1.398 . S
C952 C953 1.391 . S
C953 H941 0.950 . S
C953 C949 1.393 . S
C953 C952 1.391 . S
C954 H944 0.950 . S
C954 C955 1.386 . S
C954 C956 1.391 . S
C955 C954 1.386 . S
C955 C959 1.393 . S
C956 H945 0.950 1_565 S
C956 C954 1.391 . S
C956 C957 1.400 . S
C957 C951 1.491 1_565 S
C957 C956 1.400 . S
C957 C958 1.398 . S
C958 H946 0.950 . S
C958 C957 1.398 . S
C958 C959 1.391 . S
C959 H947 0.950 . S
C959 C955 1.393 . S
C959 C958 1.391 . S
H960 C968 0.950 . S
H961 C973 0.950 . S
H962 C970 0.950 . S
H963 C972 0.950 . S
H964 C974 0.950 . S
H965 C976 0.950 . S
H966 C978 0.950 . S
H967 C979 0.950 . S
C968 H960 0.950 . S
C968 C969 1.386 . S
C968 C970 1.391 . S
C969 C968 1.386 . S
C969 C973 1.393 . S
C970 H962 0.950 . S
C970 C968 1.391 . S
C970 C971 1.400 . S
C971 C970 1.400 . S
C971 C972 1.398 . S
C971 C977 1.491 . S
C972 H963 0.950 . S
C972 C971 1.398 . S
C972 C973 1.391 . S
C973 H961 0.950 . S
C973 C969 1.393 . S
C973 C972 1.391 . S
C974 H964 0.950 . S
C974 C975 1.386 . S
C974 C976 1.391 . S
C975 C974 1.386 . S
C975 C979 1.393 . S
C976 H965 0.950 . S
C976 C974 1.391 . S
C976 C977 1.400 . S
C977 C971 1.491 . S
C977 C976 1.400 . S
C977 C978 1.398 . S
C978 H966 0.950 . S
C978 C977 1.398 . S
C978 C979 1.391 . S
C979 H967 0.950 . S
C979 C975 1.393 . S
C979 C978 1.391 . S
H980 C988 0.950 . S
H981 C993 0.950 . S
H982 C990 0.950 . S
H983 C992 0.950 . S
H984 C994 0.950 . S
H985 C996 0.950 . S
H986 C998 0.950 . S
H987 C999 0.950 . S
C988 H980 0.950 . S
C988 C989 1.386 . S
C988 C990 1.391 . S
C989 C988 1.386 . S
C989 C993 1.393 . S
C990 H982 0.950 . S
C990 C988 1.391 . S
C990 C991 1.400 . S
C991 C990 1.400 . S
C991 C992 1.398 . S
C991 C997 1.491 . S
C992 H983 0.950 . S
C992 C991 1.398 . S
C992 C993 1.391 . S
C993 H981 0.950 . S
C993 C989 1.393 . S
C993 C992 1.391 . S
C994 H984 0.950 . S
C994 C995 1.386 . S
C994 C996 1.391 . S
C995 C994 1.386 . S
C995 C999 1.393 . S
C996 H985 0.950 . S
C996 C994 1.391 . S
C996 C997 1.400 . S
C997 C991 1.491 . S
C997 C996 1.400 . S
C997 C998 1.398 . S
C998 H986 0.950 . S
C998 C997 1.398 . S
C998 C999 1.391 . S
C999 H987 0.950 . S
C999 C995 1.393 . S
C999 C998 1.391 . S
H1000 C1008 0.950 . S
H1001 C1013 0.950 . S
H1002 C1010 0.950 . S
H1003 C1012 0.950 . S
H1004 C1014 0.950 . S
H1005 C1016 0.950 . S
H1006 C1018 0.950 . S
H1007 C1019 0.950 . S
C1008 H1000 0.950 . S
C1008 C1009 1.386 . S
C1008 C1010 1.391 . S
C1009 C1008 1.386 . S
C1009 C1013 1.393 . S
C1010 H1002 0.950 . S
C1010 C1008 1.391 . S
C1010 C1011 1.400 . S
C1011 C1010 1.400 . S
C1011 C1012 1.398 . S
C1011 C1017 1.491 . S
C1012 H1003 0.950 . S
C1012 C1011 1.398 . S
C1012 C1013 1.391 . S
C1013 H1001 0.950 . S
C1013 C1009 1.393 . S
C1013 C1012 1.391 . S
C1014 H1004 0.950 . S
C1014 C1015 1.386 . S
C1014 C1016 1.391 . S
C1015 C1014 1.386 . S
C1015 C1019 1.393 . S
C1016 H1005 0.950 . S
C1016 C1014 1.391 . S
C1016 C1017 1.400 . S
C1017 C1011 1.491 . S
C1017 C1016 1.400 . S
C1017 C1018 1.398 . S
C1018 H1006 0.950 . S
C1018 C1017 1.398 . S
C1018 C1019 1.391 . S
C1019 H1007 0.950 . S
C1019 C1015 1.393 . S
C1019 C1018 1.391 . S
H1020 C1028 0.950 . S
H1021 C1033 0.950 . S
H1022 C1030 0.950 . S
H1023 C1032 0.950 . S
H1024 C1034 0.950 . S
H1025 C1036 0.950 . S
H1026 C1038 0.950 . S
H1027 C1039 0.950 . S
C1028 H1020 0.950 . S
C1028 C1029 1.386 . S
C1028 C1030 1.391 . S
C1029 C1028 1.386 . S
C1029 C1033 1.393 . S
C1030 H1022 0.950 . S
C1030 C1028 1.391 . S
C1030 C1031 1.400 . S
C1031 C1030 1.400 . S
C1031 C1032 1.398 . S
C1031 C1037 1.491 . S
C1032 H1023 0.950 . S
C1032 C1031 1.398 . S
C1032 C1033 1.391 . S
C1033 H1021 0.950 . S
C1033 C1029 1.393 . S
C1033 C1032 1.391 . S
C1034 H1024 0.950 . S
C1034 C1035 1.386 . S
C1034 C1036 1.391 . S
C1035 C1034 1.386 . S
C1035 C1039 1.393 . S
C1036 H1025 0.950 . S
C1036 C1034 1.391 . S
C1036 C1037 1.400 . S
C1037 C1031 1.491 . S
C1037 C1036 1.400 . S
C1037 C1038 1.398 . S
C1038 H1026 0.950 . S
C1038 C1037 1.398 . S
C1038 C1039 1.391 . S
C1039 H1027 0.950 . S
C1039 C1035 1.393 . S
C1039 C1038 1.391 . S
H1040 C1048 0.950 . S
H1041 C1053 0.950 . S
H1042 C1050 0.950 . S
H1043 C1052 0.950 . S
H1044 C1054 0.950 . S
H1045 C1056 0.950 . S
H1046 C1058 0.950 . S
H1047 C1059 0.950 . S
C1048 H1040 0.950 . S
C1048 C1049 1.386 . S
C1048 C1050 1.391 . S
C1049 C1048 1.386 . S
C1049 C1053 1.393 . S
C1050 H1042 0.950 . S
C1050 C1048 1.391 . S
C1050 C1051 1.400 . S
C1051 C1050 1.400 . S
C1051 C1052 1.398 . S
C1051 C1057 1.491 . S
C1052 H1043 0.950 . S
C1052 C1051 1.398 . S
C1052 C1053 1.391 . S
C1053 H1041 0.950 . S
C1053 C1049 1.393 . S
C1053 C1052 1.391 . S
C1054 H1044 0.950 . S
C1054 C1055 1.386 . S
C1054 C1056 1.391 . S
C1055 C1054 1.386 . S
C1055 C1059 1.393 . S
C1056 H1045 0.950 . S
C1056 C1054 1.391 . S
C1056 C1057 1.400 . S
C1057 C1051 1.491 . S
C1057 C1056 1.400 . S
C1057 C1058 1.398 . S
C1058 H1046 0.950 . S
C1058 C1057 1.398 . S
C1058 C1059 1.391 . S
C1059 H1047 0.950 . S
C1059 C1055 1.393 . S
C1059 C1058 1.391 . S
H1060 C1068 0.950 . S
H1061 C1073 0.950 . S
H1062 C1070 0.950 . S
H1063 C1072 0.950 . S
H1064 C1074 0.950 . S
H1065 C1076 0.950 . S
H1066 C1078 0.950 . S
H1067 C1079 0.950 . S
C1068 H1060 0.950 . S
C1068 C1069 1.386 . S
C1068 C1070 1.391 . S
C1069 C1068 1.386 . S
C1069 C1073 1.393 . S
C1070 H1062 0.950 . S
C1070 C1068 1.391 . S
C1070 C1071 1.400 . S
C1071 C1070 1.400 . S
C1071 C1072 1.398 . S
C1071 C1077 1.491 . S
C1072 H1063 0.950 . S
C1072 C1071 1.398 . S
C1072 C1073 1.391 . S
C1073 H1061 0.950 . S
C1073 C1069 1.393 . S
C1073 C1072 1.391 . S
C1074 H1064 0.950 . S
C1074 C1075 1.386 . S
C1074 C1076 1.391 . S
C1075 C1074 1.386 . S
C1075 C1079 1.393 . S
C1076 H1065 0.950 . S
C1076 C1074 1.391 . S
C1076 C1077 1.400 . S
C1077 C1071 1.491 . S
C1077 C1076 1.400 . S
C1077 C1078 1.398 . S
C1078 H1066 0.950 . S
C1078 C1077 1.398 . S
C1078 C1079 1.391 . S
C1079 H1067 0.950 . S
C1079 C1075 1.393 . S
C1079 C1078 1.391 . S
H1080 C1088 0.950 . S
H1081 C1093 0.950 . S
H1082 C1090 0.950 . S
H1083 C1092 0.950 . S
H1084 C1094 0.950 . S
H1085 C1096 0.950 . S
H1086 C1098 0.950 . S
H1087 C1099 0.950 . S
C1088 H1080 0.950 . S
C1088 C1089 1.386 . S
C1088 C1090 1.391 . S
C1089 C1088 1.386 . S
C1089 C1093 1.393 . S
C1090 H1082 0.950 . S
C1090 C1088 1.391 . S
C1090 C1091 1.400 . S
C1091 C1090 1.400 . S
C1091 C1092 1.398 . S
C1091 C1097 1.491 1_455 S
C1092 H1083 0.950 . S
C1092 C1091 1.398 . S
C1092 C1093 1.391 . S
C1093 H1081 0.950 . S
C1093 C1089 1.393 . S
C1093 C1092 1.391 . S
C1094 H1084 0.950 . S
C1094 C1095 1.386 . S
C1094 C1096 1.391 . S
C1095 C1094 1.386 . S
C1095 C1099 1.393 . S
C1096 H1085 0.950 . S
C1096 C1094 1.391 . S
C1096 C1097 1.400 . S
C1097 C1091 1.491 1_655 S
C1097 C1096 1.400 . S
C1097 C1098 1.398 . S
C1098 H1086 0.950 . S
C1098 C1097 1.398 . S
C1098 C1099 1.391 . S
C1099 H1087 0.950 . S
C1099 C1095 1.393 . S
C1099 C1098 1.391 . S
H1100 C1108 0.950 . S
H1101 C1113 0.950 . S
H1102 C1110 0.950 . S
H1103 C1112 0.950 . S
H1104 C1114 0.950 . S
H1105 C1116 0.950 . S
H1106 C1118 0.950 . S
H1107 C1119 0.950 . S
C1108 H1100 0.950 . S
C1108 C1109 1.386 . S
C1108 C1110 1.391 . S
C1109 C1108 1.386 . S
C1109 C1113 1.393 . S
C1110 H1102 0.950 . S
C1110 C1108 1.391 . S
C1110 C1111 1.400 . S
C1111 C1110 1.400 . S
C1111 C1112 1.398 . S
C1111 C1117 1.491 . S
C1112 H1103 0.950 . S
C1112 C1111 1.398 . S
C1112 C1113 1.391 . S
C1113 H1101 0.950 . S
C1113 C1109 1.393 . S
C1113 C1112 1.391 . S
C1114 H1104 0.950 . S
C1114 C1115 1.386 . S
C1114 C1116 1.391 . S
C1115 C1114 1.386 . S
C1115 C1119 1.393 . S
C1116 H1105 0.950 . S
C1116 C1114 1.391 . S
C1116 C1117 1.400 . S
C1117 C1111 1.491 . S
C1117 C1116 1.400 . S
C1117 C1118 1.398 . S
C1118 H1106 0.950 . S
C1118 C1117 1.398 . S
C1118 C1119 1.391 . S
C1119 H1107 0.950 . S
C1119 C1115 1.393 . S
C1119 C1118 1.391 . S
H1120 C1128 0.950 . S
H1121 C1133 0.950 . S
H1122 C1130 0.950 . S
H1123 C1132 0.950 . S
H1124 C1134 0.950 . S
H1125 C1136 0.950 . S
H1126 C1138 0.950 . S
H1127 C1139 0.950 . S
C1128 H1120 0.950 . S
C1128 C1129 1.386 . S
C1128 C1130 1.391 . S
C1129 C1128 1.386 . S
C1129 C1133 1.393 . S
C1130 H1122 0.950 . S
C1130 C1128 1.391 . S
C1130 C1131 1.400 . S
C1131 C1130 1.400 . S
C1131 C1132 1.398 . S
C1131 C1137 1.491 . S
C1132 H1123 0.950 . S
C1132 C1131 1.398 . S
C1132 C1133 1.391 . S
C1133 H1121 0.950 . S
C1133 C1129 1.393 . S
C1133 C1132 1.391 . S
C1134 H1124 0.950 . S
C1134 C1135 1.386 . S
C1134 C1136 1.391 . S
C1135 C1134 1.386 . S
C1135 C1139 1.393 . S
C1136 H1125 0.950 . S
C1136 C1134 1.391 . S
C1136 C1137 1.400 . S
C1137 C1131 1.491 . S
C1137 C1136 1.400 . S
C1137 C1138 1.398 . S
C1138 H1126 0.950 . S
C1138 C1137 1.398 . S
C1138 C1139 1.391 . S
C1139 H1127 0.950 . S
C1139 C1135 1.393 . S
C1139 C1138 1.391 . S
H1140 C1148 0.950 . S
H1141 C1153 0.950 . S
H1142 C1150 0.950 . S
H1143 C1152 0.950 . S
H1144 C1154 0.950 . S
H1145 C1156 0.950 . S
H1146 C1158 0.950 . S
H1147 C1159 0.950 . S
C1148 H1140 0.950 . S
C1148 C1149 1.386 . S
C1148 C1150 1.391 . S
C1149 C1148 1.386 . S
C1149 C1153 1.393 . S
C1150 H1142 0.950 . S
C1150 C1148 1.391 . S
C1150 C1151 1.400 . S
C1151 C1150 1.400 . S
C1151 C1152 1.398 . S
C1151 C1157 1.491 . S
C1152 H1143 0.950 . S
C1152 C1151 1.398 . S
C1152 C1153 1.391 . S
C1153 H1141 0.950 . S
C1153 C1149 1.393 . S
C1153 C1152 1.391 . S
C1154 H1144 0.950 . S
C1154 C1155 1.386 . S
C1154 C1156 1.391 . S
C1155 C1154 1.386 . S
C1155 C1159 1.393 . S
C1156 H1145 0.950 . S
C1156 C1154 1.391 . S
C1156 C1157 1.400 . S
C1157 C1151 1.491 . S
C1157 C1156 1.400 . S
C1157 C1158 1.398 . S
C1158 H1146 0.950 . S
C1158 C1157 1.398 . S
C1158 C1159 1.391 . S
C1159 H1147 0.950 . S
C1159 C1155 1.393 . S
C1159 C1158 1.391 . S
H1160 C1168 0.950 . S
H1161 C1173 0.950 . S
H1162 C1170 0.950 . S
H1163 C1172 0.950 . S
H1164 C1174 0.950 . S
H1165 C1176 0.950 . S
H1166 C1178 0.950 . S
H1167 C1179 0.950 . S
C1168 H1160 0.950 . S
C1168 C1169 1.386 . S
C1168 C1170 1.391 . S
C1169 C1168 1.386 . S
C1169 C1173 1.393 . S
C1170 H1162 0.950 . S
C1170 C1168 1.391 . S
C1170 C1171 1.400 . S
C1171 C1170 1.400 . S
C1171 C1172 1.398 . S
C1171 C1177 1.491 . S
C1172 H1163 0.950 . S
C1172 C1171 1.398 . S
C1172 C1173 1.391 . S
C1173 H1161 0.950 . S
C1173 C1169 1.393 . S
C1173 C1172 1.391 . S
C1174 H1164 0.950 . S
C1174 C1175 1.386 . S
C1174 C1176 1.391 . S
C1175 C1174 1.386 . S
C1175 C1179 1.393 . S
C1176 H1165 0.950 . S
C1176 C1174 1.391 . S
C1176 C1177 1.400 . S
C1177 C1171 1.491 . S
C1177 C1176 1.400 . S
C1177 C1178 1.398 . S
C1178 H1166 0.950 . S
C1178 C1177 1.398 . S
C1178 C1179 1.391 . S
C1179 H1167 0.950 . S
C1179 C1175 1.393 . S
C1179 C1178 1.391 . S
H1180 C1188 0.950 . S
H1181 C1193 0.950 . S
H1182 C1190 0.950 . S
H1183 C1192 0.950 . S
H1184 C1194 0.950 . S
H1185 C1196 0.950 . S
H1186 C1198 0.950 . S
H1187 C1199 0.950 . S
C1188 H1180 0.950 . S
C1188 C1189 1.386 . S
C1188 C1190 1.391 . S
C1189 C1188 1.386 . S
C1189 C1193 1.393 . S
C1190 H1182 0.950 . S
C1190 C1188 1.391 . S
C1190 C1191 1.400 . S
C1191 C1190 1.400 . S
C1191 C1192 1.398 . S
C1191 C1197 1.491 . S
C1192 H1183 0.950 . S
C1192 C1191 1.398 . S
C1192 C1193 1.391 . S
C1193 H1181 0.950 . S
C1193 C1189 1.393 . S
C1193 C1192 1.391 . S
C1194 H1184 0.950 . S
C1194 C1195 1.386 . S
C1194 C1196 1.391 1_455 S
C1195 C1194 1.386 . S
C1195 C1199 1.393 . S
C1196 H1185 0.950 . S
C1196 C1194 1.391 1_655 S
C1196 C1197 1.400 . S
C1197 C1191 1.491 . S
C1197 C1196 1.400 . S
C1197 C1198 1.398 1_655 S
C1198 H1186 0.950 . S
C1198 C1197 1.398 1_455 S
C1198 C1199 1.391 . S
C1199 H1187 0.950 . S
C1199 C1195 1.393 . S
C1199 C1198 1.391 . S
C489 C12 1.507 . S
C495 C452 1.512 . S
C509 C372 1.773 . S
C515 C42 1.789 . S
C529 C92 1.587 . S
C535 C332 1.614 . S
C549 C122 1.883 . S
C555 C402 1.890 . S
C569 C162 1.863 . S
C575 C412 1.845 . S
C589 C212 1.287 . S
C595 C442 1.301 . S
C609 C362 1.960 . S
C615 C242 1.974 . S
C629 C292 1.334 . S
C635 C322 1.339 . S
C649 C132 1.630 . S
C655 C172 1.633 . S
C669 C2 1.569 . S
C675 C202 1.574 . S
C689 C52 1.642 . S
C695 C252 1.641 . S
C709 C282 1.801 . S
C715 C82 1.795 . S
C729 C29 1.997 . S
C735 C351 2.065 . S
C749 C48 1.155 . S
C755 C417 1.138 . S
C769 C471 2.098 . S
C775 C109 2.033 . S
C789 C128 1.421 . S
C795 C391 1.417 . S
C809 C168 1.280 . S
C815 C377 1.236 . S
C829 C337 1.878 . S
C835 C229 1.904 . S
C849 C431 1.512 . S
C855 C248 1.535 . S
C869 C457 1.877 . S
C875 C309 1.896 . S
C889 C17 1.271 . S
C895 C149 1.284 . S
C909 C8 1.514 . S
C915 C71 1.475 . S
C929 C69 1.089 . S
C935 C97 1.084 . S
C949 C151 1.379 . S
C955 C88 1.414 . S
C969 C208 1.723 . S
C975 C191 1.694 . S
C989 C217 2.319 . S
C995 C269 2.335 . S
C1009 C271 1.582 . S
C1015 C288 1.600 . S
C1029 C189 2.104 . S
C1035 C297 2.104 . S
C1049 C328 1.407 . S
C1055 C137 1.324 . S
C1069 C231 1.969 . S
C1075 C389 1.904 . S
C1089 C349 1.462 . S
C1095 C257 1.431 . S
C1109 C408 1.633 . S
C1115 C311 1.610 . S
C1129 C177 1.374 . S
C1135 C469 1.392 . S
C1149 C448 1.346 . S
C1155 C57 1.280 . S
C1169 C111 1.747 . S
C1175 C368 1.772 . S
C1189 C429 2.020 . S
C1195 C31 2.071 . S
