# Generated by pormake.
# Topology vbm, (6)-cn, num edge types: 1
# Building blocks:
#     Node 0, Type 0, BuildingBlock: BETDAH_clean_sbu_0, # of connection points: 6
#     Node 1, Type 0, BuildingBlock: BETDAH_clean_sbu_0, # of connection points: 6
#     Node 2, Type 0, BuildingBlock: BETDAH_clean_sbu_0, # of connection points: 6
#     Node 3, Type 0, BuildingBlock: BETDAH_clean_sbu_0, # of connection points: 6
#     Node 4, Type 0, BuildingBlock: BETDAH_clean_sbu_0, # of connection points: 6
#     Node 5, Type 0, BuildingBlock: BETDAH_clean_sbu_0, # of connection points: 6
#     Node 6, Type 0, BuildingBlock: BETDAH_clean_sbu_0, # of connection points: 6
#     Node 7, Type 0, BuildingBlock: BETDAH_clean_sbu_0, # of connection points: 6
#     Node 8, Type 0, BuildingBlock: BETDAH_clean_sbu_0, # of connection points: 6
#     Node 9, Type 0, BuildingBlock: BETDAH_clean_sbu_0, # of connection points: 6
#     Node 10, Type 0, BuildingBlock: BETDAH_clean_sbu_0, # of connection points: 6
#     Node 11, Type 0, BuildingBlock: BETDAH_clean_sbu_0, # of connection points: 6
#     Node 12, Type 0, BuildingBlock: BETDAH_clean_sbu_0, # of connection points: 6
#     Node 13, Type 0, BuildingBlock: BETDAH_clean_sbu_0, # of connection points: 6
#     Node 14, Type 0, BuildingBlock: BETDAH_clean_sbu_0, # of connection points: 6
#     Node 15, Type 0, BuildingBlock: BETDAH_clean_sbu_0, # of connection points: 6
#     Edge 16, Type (0, 0), None
#     Edge 17, Type (0, 0), None
#     Edge 18, Type (0, 0), None
#     Edge 19, Type (0, 0), None
#     Edge 20, Type (0, 0), None
#     Edge 21, Type (0, 0), None
#     Edge 22, Type (0, 0), None
#     Edge 23, Type (0, 0), None
#     Edge 24, Type (0, 0), None
#     Edge 25, Type (0, 0), None
#     Edge 26, Type (0, 0), None
#     Edge 27, Type (0, 0), None
#     Edge 28, Type (0, 0), None
#     Edge 29, Type (0, 0), None
#     Edge 30, Type (0, 0), None
#     Edge 31, Type (0, 0), None
#     Edge 32, Type (0, 0), None
#     Edge 33, Type (0, 0), None
#     Edge 34, Type (0, 0), None
#     Edge 35, Type (0, 0), None
#     Edge 36, Type (0, 0), None
#     Edge 37, Type (0, 0), None
#     Edge 38, Type (0, 0), None
#     Edge 39, Type (0, 0), None
#     Edge 40, Type (0, 0), None
#     Edge 41, Type (0, 0), None
#     Edge 42, Type (0, 0), None
#     Edge 43, Type (0, 0), None
#     Edge 44, Type (0, 0), None
#     Edge 45, Type (0, 0), None
#     Edge 46, Type (0, 0), None
#     Edge 47, Type (0, 0), None
#     Edge 48, Type (0, 0), None
#     Edge 49, Type (0, 0), None
#     Edge 50, Type (0, 0), None
#     Edge 51, Type (0, 0), None
#     Edge 52, Type (0, 0), None
#     Edge 53, Type (0, 0), None
#     Edge 54, Type (0, 0), None
#     Edge 55, Type (0, 0), None
#     Edge 56, Type (0, 0), None
#     Edge 57, Type (0, 0), None
#     Edge 58, Type (0, 0), None
#     Edge 59, Type (0, 0), None
#     Edge 60, Type (0, 0), None
#     Edge 61, Type (0, 0), None
#     Edge 62, Type (0, 0), None
#     Edge 63, Type (0, 0), None
# Relax obj value: 0.098
# Max RMSD: 0.209
# Mean RMSD: 0.209
data_MOF--net-vbm--node1-BETDAH_clean_sbu_0--edge1-none
_symmetry_space_group_name_H-M    P1
_symmetry_Int_Tables_number       1
_symmetry_cell_setting            triclinic
loop_
_symmetry_equiv_pos_as_xyz
'x, y, z'
_cell_length_a     23.16836
_cell_length_b     15.83259
_cell_length_c     22.895121
_cell_angle_alpha  90.124062
_cell_angle_beta   89.279124
_cell_angle_gamma 89.980573
loop_
_atom_site_label
_atom_site_type_symbol
_atom_site_fract_x
_atom_site_fract_y
_atom_site_fract_z
_atom_type_partial_charge
Ho0 Ho 0.09375 0.1105 0.15422 0.0
Ho1 Ho 0.01977 0.23793 0.19153 0.0
C2 C -0.04761 0.09737 0.13628 0.0
C3 C 0.13468 0.96169 0.13275 0.0
C4 C 0.10585 0.87912 0.13842 0.0
C5 C 0.06067 0.86838 0.1788 0.0
C6 C 0.03461 0.78973 0.18597 0.0
C7 C 0.05366 0.71871 0.15367 0.0
C8 C 0.09587 0.73207 0.10972 0.0
C9 C 0.12142 0.81147 0.10231 0.0
C10 C 0.08875 0.22771 0.06911 0.0
C11 C 0.15434 0.28288 0.1915 0.0
C12 C -0.02493 0.38208 0.21752 0.0
C13 C -0.00557 0.46713 0.19993 0.0
C14 C 0.01692 0.48289 0.14363 0.0
C15 C 0.03585 0.56396 0.12803 0.0
C16 C 0.03236 0.63147 0.16834 0.0
C17 C 0.00923 0.61413 0.22427 0.0
C18 C -0.00786 0.53296 0.24029 0.0
C19 C 0.02397 0.10162 0.26788 0.0
O20 O 0.00199 1.05776 0.14529 0.0
O21 O -0.05096 0.17884 0.14324 0.0
O22 O 0.11424 1.01072 0.09239 0.0
O23 O 0.14339 1.00228 0.18162 0.0
O24 O 0.13548 0.19487 0.08962 0.0
O25 O 0.04563 0.20178 0.09933 0.0
O26 O 0.10206 0.31242 0.18537 0.0
O27 O 0.16331 0.20012 0.18769 0.0
O28 O 0.00931 0.34163 0.25269 0.0
O29 O -0.0444 0.33401 0.17574 0.0
O30 O -0.02182 0.14332 0.25432 0.0
O31 O 0.0664 0.1377 0.24326 0.0
H32 H 0.04568 0.92077 0.20522 0.0
H33 H -0.00023 0.78572 0.21745 0.0
H34 H 0.11162 0.68102 0.08252 0.0
H35 H 0.15432 0.81948 0.06927 0.0
H36 H 0.01992 0.43257 0.11161 0.0
H37 H 0.05165 0.5733 0.08389 0.0
H38 H 0.00407 0.66302 0.25632 0.0
H39 H -0.02273 0.52159 0.2845 0.0
Ho40 Ho 0.75896 1.0226 0.16384 0.0
Ho41 Ho 0.83714 0.89503 0.18424 0.0
C42 C 0.89881 1.048 0.13608 0.0
C43 C 0.71112 0.16847 0.16554 0.0
C44 C 0.73713 0.25287 0.16968 0.0
C45 C 0.72427 0.30486 0.2176 0.0
C46 C 0.74899 0.38495 0.22176 0.0
C47 C 0.78523 0.41613 0.1767 0.0
C48 C 0.79824 0.36282 0.12908 0.0
C49 C 0.77577 0.2815 0.1265 0.0
C50 C 0.76681 0.92496 0.06685 0.0
C51 C 0.70337 0.84417 0.19184 0.0
C52 C 0.88418 0.74995 0.19718 0.0
C53 C 0.85754 0.6662 0.19007 0.0
C54 C 0.88409 0.60568 0.1544 0.0
C55 C 0.8612 0.5245 0.15022 0.0
C56 C 0.80914 0.50345 0.17929 0.0
C57 C 0.78001 0.56722 0.21081 0.0
C58 C 0.80395 0.64736 0.21618 0.0
C59 C 0.83344 1.01924 0.27013 0.0
O60 O 0.84862 0.08403 0.15046 0.0
O61 O 0.90403 0.96602 0.13708 0.0
O62 O 0.72119 0.12646 0.11733 0.0
O63 O 0.71493 0.12167 0.2121 0.0
O64 O 0.71918 0.94736 0.09297 0.0
O65 O 0.80907 0.9483 0.098 0.0
O66 O 0.75546 0.81841 0.17859 0.0
O67 O 0.6932 0.92623 0.19573 0.0
O68 O 0.86551 0.79543 0.24126 0.0
O69 O 0.89017 0.79376 0.14925 0.0
O70 O 0.87989 0.98428 0.24943 0.0
O71 O 0.79113 0.98226 0.24687 0.0
H72 H 0.6952 0.28337 0.25187 0.0
H73 H 0.73943 0.42187 0.26049 0.0
H74 H 0.82506 0.38347 0.09289 0.0
H75 H 0.78798 0.24165 0.08989 0.0
H76 H 0.92281 0.62107 0.13001 0.0
H77 H 0.88538 0.4785 0.12502 0.0
H78 H 0.7389 0.55588 0.23216 0.0
H79 H 0.78109 0.6936 0.24257 0.0
Ho80 Ho 0.09848 1.02513 0.40973 0.0
Ho81 Ho 0.01952 0.89594 0.38792 0.0
C82 C -0.0419 1.05025 0.43553 0.0
C83 C 0.14725 0.17089 0.41366 0.0
C84 C 0.12219 0.2564 0.4097 0.0
C85 C 0.12361 0.30029 0.35654 0.0
C86 C 0.09923 0.38058 0.35243 0.0
C87 C 0.07262 0.41865 0.40142 0.0
C88 C 0.07048 0.37402 0.45434 0.0
C89 C 0.09476 0.29372 0.45833 0.0
C90 C 0.09009 0.92412 0.50455 0.0
C91 C 0.15368 0.84634 0.37901 0.0
C92 C -0.02786 0.75044 0.37757 0.0
C93 C -0.0013 0.66662 0.38509 0.0
C94 C -0.02649 0.60763 0.42302 0.0
C95 C -0.00268 0.52702 0.42863 0.0
C96 C 0.04788 0.50488 0.39744 0.0
C97 C 0.07498 0.56622 0.36241 0.0
C98 C 0.05119 0.6464 0.35708 0.0
C99 C 0.02362 1.02024 0.30272 0.0
O100 O 0.00837 0.08622 0.42137 0.0
O101 O -0.04708 0.96825 0.43484 0.0
O102 O 0.13392 0.1275 0.46029 0.0
O103 O 0.14568 0.12519 0.36615 0.0
O104 O 0.13782 0.94634 0.47875 0.0
O105 O 0.04814 0.94919 0.47382 0.0
O106 O 0.10149 0.8199 0.39115 0.0
O107 O 0.16397 0.92858 0.37667 0.0
O108 O -0.0101 0.79468 0.33262 0.0
O109 O -0.03271 0.79567 0.42512 0.0
O110 O -0.02286 0.98377 0.32201 0.0
O111 O 0.06605 0.98436 0.3265 0.0
H112 H 0.14397 0.27275 0.31818 0.0
H113 H 0.10099 0.41244 0.31065 0.0
H114 H 0.05067 0.4014 0.49301 0.0
H115 H 0.0917 0.26071 0.49953 0.0
H116 H -0.06458 0.62392 0.4483 0.0
H117 H -0.02462 0.48183 0.4565 0.0
H118 H 0.11442 0.55254 0.33847 0.0
H119 H 0.07316 0.69151 0.32916 0.0
Ho120 Ho 0.76264 0.11185 0.41738 0.0
Ho121 Ho 0.83677 0.2396 0.37974 0.0
C122 C 0.90437 0.09952 0.43511 0.0
C123 C 0.7212 0.96349 0.43941 0.0
C124 C 0.74981 0.88065 0.4343 0.0
C125 C 0.79625 0.87014 0.39535 0.0
C126 C 0.82259 0.79163 0.38853 0.0
C127 C 0.80281 0.72049 0.41994 0.0
C128 C 0.75911 0.73337 0.46253 0.0
C129 C 0.73287 0.81265 0.46941 0.0
C130 C 0.76786 0.2298 0.5022 0.0
C131 C 0.70215 0.28465 0.38023 0.0
C132 C 0.88136 0.38397 0.35434 0.0
C133 C 0.86276 0.46926 0.37277 0.0
C134 C 0.8407 0.485 0.42934 0.0
C135 C 0.82172 0.56609 0.44536 0.0
C136 C 0.82478 0.63354 0.40521 0.0
C137 C 0.84768 0.61637 0.34913 0.0
C138 C 0.86493 0.5353 0.33276 0.0
C139 C 0.83279 0.10193 0.30393 0.0
O140 O 0.8547 1.05969 0.42651 0.0
O141 O 0.90763 0.18094 0.42794 0.0
O142 O 0.74178 1.01308 0.47951 0.0
O143 O 0.71297 1.00332 0.39026 0.0
O144 O 0.72104 0.19709 0.48175 0.0
O145 O 0.81088 0.20361 0.47185 0.0
O146 O 0.75446 0.31412 0.38609 0.0
O147 O 0.69315 0.20187 0.38407 0.0
O148 O 0.84643 0.34415 0.31934 0.0
O149 O 0.90123 0.33533 0.39547 0.0
O150 O 0.87839 0.14463 0.31679 0.0
O151 O 0.79033 0.13826 0.32849 0.0
H152 H 0.81196 0.92264 0.36961 0.0
H153 H 0.85815 0.78766 0.35786 0.0
H154 H 0.74287 0.68189 0.4889 0.0
H155 H 0.6984 0.8203 0.50118 0.0
H156 H 0.83784 0.43457 0.46115 0.0
H157 H 0.80593 0.57558 0.48953 0.0
H158 H 0.85199 0.66527 0.31707 0.0
H159 H 0.87948 0.52407 0.2884 0.0
Ho160 Ho 0.83559 0.92149 0.8791 0.0
Ho161 Ho 0.76116 1.04827 0.91614 0.0
C162 C 0.70135 0.87506 0.87881 0.0
C163 C 0.8792 0.77659 0.85213 0.0
C164 C 0.85687 0.69169 0.86655 0.0
C165 C 0.82313 0.67821 0.91719 0.0
C166 C 0.80035 0.59816 0.92951 0.0
C167 C 0.8126 0.52893 0.8926 0.0
C168 C 0.84773 0.54305 0.84291 0.0
C169 C 0.86735 0.62396 0.82881 0.0
C170 C 0.83243 1.05884 0.80293 0.0
C171 C 0.90302 1.06254 0.93357 0.0
C172 C 0.71674 0.19533 0.93627 0.0
C173 C 0.7397 0.28108 0.92519 0.0
C174 C 0.75288 0.30761 0.86828 0.0
C175 C 0.77619 0.38732 0.85828 0.0
C176 C 0.78807 0.44304 0.90458 0.0
C177 C 0.77531 0.41584 0.96184 0.0
C178 C 0.75106 0.33605 0.97175 0.0
C179 C 0.76661 0.9322 1.0021 0.0
O180 O 0.75367 0.84621 0.88495 0.0
O181 O 0.69215 0.9577 0.88251 0.0
O182 O 0.84793 0.8205 0.81614 0.0
O183 O 0.89685 0.82167 0.89631 0.0
O184 O 0.87792 1.01636 0.81661 0.0
O185 O 0.78969 1.02272 0.82717 0.0
O186 O 0.85314 0.10204 0.92465 0.0
O187 O 0.9065 0.98099 0.92678 0.0
O188 O 0.7435 0.15183 0.97591 0.0
O189 O 0.70447 0.14967 0.89043 0.0
O190 O 0.71978 0.96387 0.98118 0.0
O191 O 0.80956 0.95802 0.97153 0.0
H192 H 0.81349 0.72991 0.94678 0.0
H193 H 0.77265 0.59125 0.96762 0.0
H194 H 0.86083 0.49145 0.81495 0.0
H195 H 0.8905 0.63351 0.78823 0.0
H196 H 0.7445 0.2674 0.83111 0.0
H197 H 0.784 0.40483 0.81377 0.0
H198 H 0.78441 0.45545 0.99915 0.0
H199 H 0.74158 0.3169 1.01586 0.0
Ho200 Ho 0.01882 0.26606 0.88758 0.0
Ho201 Ho 0.0978 0.13616 0.90976 0.0
C202 C 0.15353 0.31502 0.87928 0.0
C203 C -0.03025 0.41093 0.87726 0.0
C204 C -0.00455 0.49544 0.88485 0.0
C205 C -0.03221 0.5566 0.91959 0.0
C206 C -0.00795 0.63701 0.92594 0.0
C207 C 0.04509 0.65687 0.8985 0.0
C208 C 0.07395 0.59374 0.86645 0.0
C209 C 0.04979 0.514 0.86033 0.0
C210 C 0.02417 0.1414 0.80183 0.0
C211 C -0.04316 0.11182 0.93413 0.0
C212 C 0.14628 0.98997 0.91454 0.0
C213 C 0.12135 0.90424 0.91115 0.0
C214 C 0.12551 0.85794 0.85896 0.0
C215 C 0.1002 0.77827 0.85466 0.0
C216 C 0.07047 0.74275 0.90268 0.0
C217 C 0.06618 0.78931 0.95482 0.0
C218 C 0.09114 0.86926 0.95893 0.0
C219 C 0.08854 0.23692 1.00468 0.0
O220 O 0.10124 0.34155 0.89134 0.0
O221 O 0.16374 0.2326 0.87708 0.0
O222 O -0.01164 0.36686 0.8324 0.0
O223 O -0.03413 0.36589 0.92481 0.0
O224 O -0.02252 0.17767 0.82088 0.0
O225 O 0.06609 0.17733 0.82647 0.0
O226 O 0.00727 1.07567 0.92044 0.0
O227 O -0.04826 0.19379 0.93357 0.0
O228 O 0.133 1.03434 0.96087 0.0
O229 O 0.14449 1.0347 0.86673 0.0
O230 O 0.13651 0.21563 0.9789 0.0
O231 O 0.04676 0.212 0.97351 0.0
H232 H 0.92723 0.54247 0.9414 0.0
H233 H -0.03137 0.6839 0.95127 0.0
H234 H 0.11502 0.60577 0.8452 0.0
H235 H 0.07311 0.46792 0.83429 0.0
H236 H 0.14829 0.88344 0.82137 0.0
H237 H 0.1037 0.74484 0.81346 0.0
H238 H 0.04411 0.76369 0.99278 0.0
H239 H 0.08641 0.90375 0.99953 0.0
Ho240 Ho 0.83856 0.26598 0.68316 0.0
Ho241 Ho 0.75952 0.13669 0.66085 0.0
C242 C 0.70385 0.3146 0.69317 0.0
C243 C 0.88781 0.41107 0.69031 0.0
C244 C 0.86281 0.49589 0.68204 0.0
C245 C 0.88939 0.55435 0.64459 0.0
C246 C 0.86661 0.63578 0.63867 0.0
C247 C 0.81596 0.65906 0.66932 0.0
C248 C 0.78744 0.59809 0.70326 0.0
C249 C 0.81004 0.51748 0.70855 0.0
C250 C 0.8334 0.14142 0.76895 0.0
C251 C 0.89991 0.11118 0.63629 0.0
C252 C 0.7126 0.99022 0.65474 0.0
C253 C 0.73956 0.90596 0.65826 0.0
C254 C 0.73938 0.86198 0.71134 0.0
C255 C 0.76482 0.7825 0.71498 0.0
C256 C 0.79179 0.74555 0.66579 0.0
C257 C 0.79352 0.79071 0.61312 0.0
C258 C 0.7677 0.87009 0.60943 0.0
C259 C 0.76831 0.23822 0.56662 0.0
O260 O 0.75612 0.34139 0.68171 0.0
O261 O 0.6935 0.23223 0.69433 0.0
O262 O 0.87012 0.36872 0.73623 0.0
O263 O 0.89066 0.36435 0.64337 0.0
O264 O 0.88005 0.17808 0.7501 0.0
O265 O 0.79152 0.17727 0.74427 0.0
O266 O 0.84962 1.07542 0.65038 0.0
O267 O 0.90514 0.19308 0.6368 0.0
O268 O 0.72553 1.035 0.60865 0.0
O269 O 0.71245 1.03508 0.70271 0.0
O270 O 0.72044 0.21691 0.59249 0.0
O271 O 0.81016 0.21256 0.59729 0.0
H272 H 0.92741 0.53677 0.61969 0.0
H273 H 0.88919 0.68057 0.611 0.0
H274 H 0.7475 0.61215 0.7261 0.0
H275 H 0.78592 0.47267 0.734 0.0
H276 H 0.71884 0.8885 0.74997 0.0
H277 H 0.76317 0.75 0.75653 0.0
H278 H 0.81377 0.76416 0.57439 0.0
H279 H 0.76997 0.9034 0.56831 0.0
Ho280 Ho 0.02173 0.92204 0.6913 0.0
Ho281 Ho 0.09526 1.04948 0.6538 0.0
C282 C 0.1566 0.8783 0.69201 0.0
C283 C -0.02205 0.77718 0.71595 0.0
C284 C -0.00198 0.69254 0.69783 0.0
C285 C 0.01861 0.67639 0.64074 0.0
C286 C 0.03802 0.5955 0.62483 0.0
C287 C 0.03655 0.52876 0.66557 0.0
C288 C 0.01614 0.54664 0.7224 0.0
C289 C -0.00126 0.62759 0.73868 0.0
C290 C 0.02511 1.059 0.76777 0.0
C291 C -0.0464 1.06194 0.63674 0.0
C292 C 0.13647 0.19743 0.63059 0.0
C293 C 0.10818 0.28039 0.63556 0.0
C294 C 0.06243 0.29186 0.67523 0.0
C295 C 0.03708 0.37096 0.68238 0.0
C296 C 0.05724 0.44149 0.65057 0.0
C297 C 0.10007 0.42772 0.60732 0.0
C298 C 0.12533 0.34792 0.60016 0.0
C299 C 0.0903 0.93164 0.56903 0.0
O300 O 0.10446 0.84829 0.68571 0.0
O301 O 0.16517 0.96108 0.68799 0.0
O302 O 0.0116 0.8178 0.75177 0.0
O303 O -0.04176 0.82537 0.6745 0.0
O304 O -0.02036 1.01615 0.7546 0.0
O305 O 0.06773 1.02345 0.74295 0.0
O306 O 0.00324 0.10178 0.64531 0.0
O307 O -0.04959 0.98054 0.64377 0.0
O308 O 0.11547 0.14757 0.59089 0.0
O309 O 0.14499 0.15816 0.67987 0.0
O310 O 0.13714 0.96361 0.58988 0.0
O311 O 0.04724 0.95802 0.59919 0.0
H312 H 0.01965 0.72615 0.60835 0.0
H313 H 0.05234 0.58529 0.58022 0.0
H314 H 0.01383 0.49815 0.75493 0.0
H315 H -0.01399 0.63959 0.78349 0.0
H316 H 0.04674 0.2398 0.70145 0.0
H317 H 0.00213 0.37606 0.71376 0.0
H318 H 0.11647 0.47893 0.58076 0.0
H319 H 0.15935 0.33955 0.56807 0.0
Ho320 Ho 0.59413 0.60985 0.15383 0.0
Ho321 Ho 0.52074 0.73684 0.19159 0.0
C322 C 0.45224 0.59804 0.13627 0.0
C323 C 0.63591 0.46172 0.13138 0.0
C324 C 0.6082 0.37847 0.13707 0.0
C325 C 0.56263 0.36705 0.17693 0.0
C326 C 0.53769 0.28772 0.18442 0.0
C327 C 0.55807 0.21705 0.15264 0.0
C328 C 0.60031 0.23094 0.1089 0.0
C329 C 0.62537 0.31077 0.10166 0.0
C330 C 0.58977 0.72734 0.06894 0.0
C331 C 0.65491 0.78197 0.19144 0.0
C332 C 0.47848 0.88201 0.21831 0.0
C333 C 0.49926 0.96628 0.20038 0.0
C334 C 0.52021 0.98175 0.14338 0.0
C335 C 0.53974 1.06244 0.1274 0.0
C336 C 0.53813 0.12964 0.168 0.0
C337 C 0.51794 0.11222 0.22494 0.0
C338 C 0.50016 1.03152 0.2412 0.0
C339 C 0.52406 0.59972 0.26739 0.0
O340 O 0.50192 0.55802 0.14462 0.0
O341 O 0.44914 0.67943 0.14378 0.0
O342 O 0.61423 0.51053 0.09157 0.0
O343 O 0.6447 0.50209 0.1803 0.0
O344 O 0.63635 0.69461 0.08978 0.0
O345 O 0.54648 0.70164 0.09907 0.0
O346 O 0.60275 0.81141 0.185 0.0
O347 O 0.66381 0.6992 0.18769 0.0
O348 O 0.51234 0.84035 0.25324 0.0
O349 O 0.45751 0.8346 0.17691 0.0
O350 O 0.47857 0.64238 0.25415 0.0
O351 O 0.56677 0.63558 0.24305 0.0
H352 H 0.54667 0.41936 0.20291 0.0
H353 H 0.50279 0.28255 0.21587 0.0
H354 H 0.61657 0.17977 0.08206 0.0
H355 H 0.65914 0.31909 0.06932 0.0
H356 H 0.52119 0.93171 0.11105 0.0
H357 H 0.55405 1.07214 0.08278 0.0
H358 H 0.51585 0.16098 0.25744 0.0
H359 H 0.48687 1.02008 0.28588 0.0
Ho360 Ho 0.25836 0.52332 0.16351 0.0
Ho361 Ho 0.33761 0.39335 0.18201 0.0
C362 C 0.39846 0.5489 0.13589 0.0
C363 C 0.21041 0.66906 0.16468 0.0
C364 C 0.2371 0.75301 0.1672 0.0
C365 C 0.22529 0.80621 0.21468 0.0
C366 C 0.25163 0.8851 0.21821 0.0
C367 C 0.28873 0.91374 0.17307 0.0
C368 C 0.301 0.85925 0.12599 0.0
C369 C 0.27643 0.77916 0.12377 0.0
C370 C 0.266 0.42649 0.06646 0.0
C371 C 0.20295 0.3449 0.19177 0.0
C372 C 0.38667 0.24832 0.18998 0.0
C373 C 0.36112 0.16369 0.18366 0.0
C374 C 0.38935 0.10151 0.15072 0.0
C375 C 0.3665 1.02 0.14723 0.0
C376 C 0.31336 1.00042 0.17473 0.0
C377 C 0.28306 1.06546 0.2034 0.0
C378 C 0.30662 0.14563 0.20766 0.0
C379 C 0.3335 0.51546 0.26944 0.0
O380 O 0.34829 0.58466 0.15087 0.0
O381 O 0.40368 0.46692 0.13557 0.0
O382 O 0.21917 0.62588 0.11674 0.0
O383 O 0.21541 0.62337 0.21168 0.0
O384 O 0.21837 0.44806 0.09284 0.0
O385 O 0.30828 0.44985 0.09749 0.0
O386 O 0.25488 0.31873 0.17788 0.0
O387 O 0.19296 0.42698 0.19606 0.0
O388 O 0.36993 0.29223 0.23561 0.0
O389 O 0.38855 0.2933 0.14232 0.0
O390 O 0.38005 0.48049 0.24883 0.0
O391 O 0.29138 0.47943 0.24524 0.0
H392 H 0.1959 0.78649 0.24921 0.0
H393 H 0.24271 0.9232 0.25656 0.0
H394 H 0.32866 0.87834 0.09 0.0
H395 H 0.28767 0.73837 0.08734 0.0
H396 H 0.42887 0.11619 0.12758 0.0
H397 H 0.39114 0.9727 0.12367 0.0
H398 H 0.241 1.05527 0.22301 0.0
H399 H 0.28193 0.19277 0.23056 0.0
Ho400 Ho 0.59803 0.52589 0.40796 0.0
Ho401 Ho 0.51907 0.39612 0.38922 0.0
C402 C 0.45805 0.55135 0.43557 0.0
C403 C 0.64494 0.67246 0.40715 0.0
C404 C 0.61816 0.75657 0.40463 0.0
C405 C 0.62939 0.80912 0.35677 0.0
C406 C 0.60365 0.88854 0.35363 0.0
C407 C 0.56763 0.91826 0.39939 0.0
C408 C 0.55601 0.86468 0.44694 0.0
C409 C 0.58012 0.78418 0.44896 0.0
C410 C 0.59137 0.42974 0.50506 0.0
C411 C 0.65353 0.34688 0.38011 0.0
C412 C 0.46904 0.25187 0.37949 0.0
C413 C 0.49441 0.16729 0.38645 0.0
C414 C 0.46542 0.10498 0.41862 0.0
C415 C 0.4889 1.02392 0.42322 0.0
C416 C 0.54307 1.00496 0.39761 0.0
C417 C 0.5737 1.06992 0.36937 0.0
C418 C 0.5496 0.14965 0.3637 0.0
C419 C 0.52318 0.51806 0.30206 0.0
O420 O 0.50807 0.58702 0.42034 0.0
O421 O 0.45315 0.46939 0.43634 0.0
O422 O 0.63604 0.6294 0.45499 0.0
O423 O 0.6406 0.62641 0.3601 0.0
O424 O 0.63873 0.45194 0.47855 0.0
O425 O 0.54865 0.45228 0.47423 0.0
O426 O 0.60157 0.32095 0.39405 0.0
O427 O 0.66352 0.429 0.37565 0.0
O428 O 0.48741 0.29542 0.33446 0.0
O429 O 0.46624 0.29703 0.42717 0.0
O430 O 0.47665 0.48363 0.32287 0.0
O431 O 0.56536 0.48181 0.32592 0.0
H432 H 0.65795 0.78858 0.32171 0.0
H433 H 0.61214 0.9263 0.31512 0.0
H434 H 0.52901 0.88491 0.48324 0.0
H435 H 0.56941 0.74404 0.48575 0.0
H436 H 0.42429 0.11857 0.43945 0.0
H437 H 0.46381 0.97613 0.4457 0.0
H438 H 0.61601 1.05942 0.35034 0.0
H439 H 0.57359 0.19629 0.33903 0.0
Ho440 Ho 0.26255 0.61171 0.41642 0.0
Ho441 Ho 0.33607 0.73793 0.3772 0.0
C442 C 0.40418 0.60014 0.43421 0.0
C443 C 0.2193 0.4642 0.4375 0.0
C444 C 0.24224 0.37857 0.42563 0.0
C445 C 0.25591 0.35312 0.36852 0.0
C446 C 0.2787 0.27327 0.35762 0.0
C447 C 0.28971 0.21633 0.40325 0.0
C448 C 0.27662 0.24252 0.46078 0.0
C449 C 0.25266 0.3224 0.47151 0.0
C450 C 0.26821 0.72995 0.50126 0.0
C451 C 0.20199 0.78386 0.37894 0.0
C452 C 0.37807 0.88219 0.34686 0.0
C453 C 0.3565 0.96719 0.36226 0.0
C454 C 0.32327 0.98046 0.41329 0.0
C455 C 0.30099 1.06059 0.4265 0.0
C456 C 0.31344 0.13017 0.39018 0.0
C457 C 0.34824 0.11623 0.34016 0.0
C458 C 0.36727 1.03526 0.32515 0.0
C459 C 0.3327 0.5983 0.3031 0.0
O460 O 0.35469 0.55966 0.42557 0.0
O461 O 0.40726 0.68146 0.42609 0.0
O462 O 0.24673 0.5081 0.47656 0.0
O463 O 0.20617 0.50955 0.39199 0.0
O464 O 0.2214 0.69666 0.48137 0.0
O465 O 0.31099 0.70428 0.47032 0.0
O466 O 0.2543 0.81292 0.3845 0.0
O467 O 0.19293 0.70132 0.3831 0.0
O468 O 0.34462 0.83782 0.31307 0.0
O469 O 0.39832 0.83783 0.39009 0.0
O470 O 0.37822 0.64119 0.31594 0.0
O471 O 0.29001 0.63508 0.32701 0.0
H472 H 0.24792 0.39412 0.33183 0.0
H473 H 0.28663 0.25651 0.31291 0.0
H474 H 0.28503 0.20198 0.49767 0.0
H475 H 0.24242 0.34059 0.51569 0.0
H476 H 0.31374 0.92857 0.44259 0.0
H477 H 0.27363 1.0673 0.46489 0.0
H478 H 0.3617 0.168 0.31271 0.0
H479 H 0.39033 1.02596 0.28446 0.0
Ho480 Ho 0.33642 0.42503 0.88121 0.0
Ho481 Ho 0.26144 0.55224 0.91648 0.0
C482 C 0.202 0.37782 0.87914 0.0
C483 C 0.38252 0.28067 0.86045 0.0
C484 C 0.35963 0.19591 0.87561 0.0
C485 C 0.37218 0.15686 0.92932 0.0
C486 C 0.34985 1.07668 0.94258 0.0
C487 C 0.31351 1.03532 0.90297 0.0
C488 C 0.29832 1.07705 0.85145 0.0
C489 C 0.32226 0.15501 0.83731 0.0
C490 C 0.33436 0.56184 0.80431 0.0
C491 C 0.40262 0.56492 0.93712 0.0
C492 C 0.21878 0.70053 0.93599 0.0
C493 C 0.24412 0.78551 0.92797 0.0
C494 C 0.26596 0.81091 0.87339 0.0
C495 C 0.29 0.89084 0.8663 0.0
C496 C 0.29234 0.94803 0.91322 0.0
C497 C 0.27228 0.92184 0.96837 0.0
C498 C 0.24853 0.84117 0.97545 0.0
C499 C 0.26578 0.43595 1.00213 0.0
O500 O 0.25455 0.34901 0.88428 0.0
O501 O 0.19257 0.4605 0.88349 0.0
O502 O 0.35449 0.32306 0.8207 0.0
O503 O 0.3977 0.32801 0.90439 0.0
O504 O 0.37966 0.51957 0.81901 0.0
O505 O 0.29131 0.52576 0.82802 0.0
O506 O 0.35336 0.60499 0.92661 0.0
O507 O 0.40565 0.48349 0.93114 0.0
O508 O 0.24173 0.65456 0.97676 0.0
O509 O 0.20904 0.65702 0.88857 0.0
O510 O 0.21908 0.46823 0.98121 0.0
O511 O 0.30896 0.46251 0.97243 0.0
H512 H 0.40054 0.18705 0.96028 0.0
H513 H 0.36221 1.04636 0.98291 0.0
H514 H 0.26771 1.04906 0.82193 0.0
H515 H 0.31129 0.18381 0.79643 0.0
H516 H 0.2641 0.7695 0.83591 0.0
H517 H 0.30665 0.9081 0.82381 0.0
H518 H 0.27338 0.96428 1.0055 0.0
H519 H 0.2333 0.82231 1.01791 0.0
Ho520 Ho 0.51839 0.76461 0.88827 0.0
Ho521 Ho 0.59722 0.63326 0.90992 0.0
C522 C 0.65284 0.81274 0.87893 0.0
C523 C 0.46762 0.90839 0.8807 0.0
C524 C 0.49057 0.99304 0.89281 0.0
C525 C 0.53506 1.00606 0.93322 0.0
C526 C 0.5606 0.08585 0.93874 0.0
C527 C 0.5427 0.15269 0.90306 0.0
C528 C 0.49752 0.13964 0.8642 0.0
C529 C 0.47092 1.06074 0.86009 0.0
C530 C 0.52225 0.63924 0.80278 0.0
C531 C 0.45673 0.61262 0.93726 0.0
C532 C 0.64409 0.48561 0.91369 0.0
C533 C 0.61884 0.3997 0.9111 0.0
C534 C 0.61825 0.35452 0.85819 0.0
C535 C 0.59399 0.27379 0.85568 0.0
C536 C 0.5702 0.2366 0.90615 0.0
C537 C 0.57017 0.28166 0.95879 0.0
C538 C 0.59393 0.36265 0.96118 0.0
C539 C 0.58976 0.73517 1.00444 0.0
O540 O 0.60055 0.8403 0.88972 0.0
O541 O 0.66299 0.73014 0.87751 0.0
O542 O 0.49061 0.86991 0.83546 0.0
O543 O 0.46175 0.85899 0.92591 0.0
O544 O 0.47593 0.67642 0.82196 0.0
O545 O 0.56443 0.67468 0.82715 0.0
O546 O 0.50639 0.57527 0.92246 0.0
O547 O 0.45236 0.69447 0.93668 0.0
O548 O 0.63205 0.53028 0.96023 0.0
O549 O 0.64184 0.53045 0.86593 0.0
O550 O 0.63738 0.71184 0.97875 0.0
O551 O 0.54759 0.71075 0.9737 0.0
H552 H 0.55063 0.95453 0.95976 0.0
H553 H 0.59522 0.09475 0.96953 0.0
H554 H 0.48252 0.19132 0.83767 0.0
H555 H 0.43488 1.0515 0.83129 0.0
H556 H 0.63685 0.38143 0.81883 0.0
H557 H 0.59413 0.24009 0.81442 0.0
H558 H 0.55032 0.255 0.99762 0.0
H559 H 0.59203 0.39674 1.00208 0.0
Ho560 Ho 0.33998 0.76744 0.68245 0.0
Ho561 Ho 0.26192 0.63936 0.66152 0.0
C562 C 0.2055 0.81664 0.6922 0.0
C563 C 0.38905 0.91204 0.69004 0.0
C564 C 0.36238 0.99533 0.68086 0.0
C565 C 0.38714 1.05336 0.64194 0.0
C566 C 0.36343 0.13414 0.63621 0.0
C567 C 0.31185 0.15637 0.66617 0.0
C568 C 0.28366 0.09311 0.6988 0.0
C569 C 0.30938 1.01503 0.70744 0.0
C570 C 0.33558 0.64345 0.76902 0.0
C571 C 0.40224 0.61545 0.63467 0.0
C572 C 0.21469 0.4932 0.65945 0.0
C573 C 0.241 0.40898 0.6618 0.0
C574 C 0.22529 0.35377 0.70666 0.0
C575 C 0.24903 0.27311 0.70879 0.0
C576 C 0.28816 0.24447 0.66505 0.0
C577 C 0.30469 0.30178 0.62095 0.0
C578 C 0.28238 0.38348 0.62016 0.0
C579 C 0.26928 0.73845 0.56583 0.0
O580 O 0.2576 0.84335 0.67962 0.0
O581 O 0.19572 0.73439 0.69476 0.0
O582 O 0.37145 0.86973 0.73598 0.0
O583 O 0.39309 0.86506 0.64335 0.0
O584 O 0.38209 0.6788 0.74877 0.0
O585 O 0.29363 0.67988 0.7449 0.0
O586 O 0.35216 0.57913 0.64898 0.0
O587 O 0.40705 0.69718 0.63544 0.0
O588 O 0.22488 0.53721 0.6123 0.0
O589 O 0.21813 0.53796 0.70715 0.0
O590 O 0.22176 0.7171 0.5924 0.0
O591 O 0.31162 0.71395 0.59635 0.0
H592 H 0.42652 1.03784 0.61824 0.0
H593 H 0.38723 0.17888 0.60982 0.0
H594 H 0.24227 0.10345 0.71967 0.0
H595 H 0.28727 0.97019 0.73516 0.0
H596 H 0.19419 0.37282 0.73993 0.0
H597 H 0.23553 0.23401 0.74495 0.0
H598 H 0.3339 0.28426 0.58587 0.0
H599 H 0.29656 0.42586 0.58579 0.0
Ho600 Ho 0.52047 0.4229 0.6897 0.0
Ho601 Ho 0.59698 0.55204 0.6576 0.0
C602 C 0.65551 0.37722 0.69334 0.0
C603 C 0.47264 0.27897 0.70838 0.0
C604 C 0.49541 0.19463 0.69462 0.0
C605 C 0.53967 0.18317 0.6528 0.0
C606 C 0.56449 0.1035 0.64428 0.0
C607 C 0.5455 1.03418 0.67763 0.0
C608 C 0.50048 1.04609 0.71844 0.0
C609 C 0.47487 0.12538 0.72563 0.0
C610 C 0.52286 0.557 0.76846 0.0
C611 C 0.45597 0.56678 0.63543 0.0
C612 C 0.6422 0.70007 0.64524 0.0
C613 C 0.61852 0.78605 0.65404 0.0
C614 C 0.60515 0.81675 0.71029 0.0
C615 C 0.58234 0.89767 0.71784 0.0
C616 C 0.57131 0.94919 0.66934 0.0
C617 C 0.58468 0.91857 0.61313 0.0
C618 C 0.60838 0.83806 0.60573 0.0
C619 C 0.59202 0.43839 0.56959 0.0
O620 O 0.60305 0.34852 0.68774 0.0
O621 O 0.66523 0.45972 0.68975 0.0
O622 O 0.50048 0.32019 0.74877 0.0
O623 O 0.46068 0.32586 0.66333 0.0
O624 O 0.47722 0.51615 0.75295 0.0
O625 O 0.56569 0.52087 0.74444 0.0
O626 O 0.50551 0.60609 0.64632 0.0
O627 O 0.45208 0.48527 0.64083 0.0
O628 O 0.62116 0.65704 0.60174 0.0
O629 O 0.64817 0.65397 0.692 0.0
O630 O 0.63885 0.47011 0.5908 0.0
O631 O 0.54905 0.46445 0.59986 0.0
H632 H 0.55519 0.23564 0.6268 0.0
H633 H 0.59913 0.0966 0.61242 0.0
H634 H 0.48363 0.99333 0.74324 0.0
H635 H 0.43774 0.13306 0.75414 0.0
H636 H 0.61326 0.77906 0.74866 0.0
H637 H 0.5741 0.92042 0.76179 0.0
H638 H 0.57645 0.95652 0.57482 0.0
H639 H 0.6186 0.81618 0.56222 0.0
loop_
_geom_bond_atom_site_label_1
_geom_bond_atom_site_label_2
_geom_bond_distance
_geom_bond_site_symmetry_2
_ccdc_geom_bond_type
Ho0 C3 2.811 1_545 S
Ho0 O20 2.322 1_545 S
Ho0 O22 2.378 1_545 S
Ho0 O23 2.524 1_545 S
Ho0 O24 2.381 . S
Ho0 O25 2.669 . S
Ho0 O27 2.346 . S
Ho0 O31 2.305 . S
Ho1 C12 2.811 . S
Ho1 O21 2.346 . S
Ho1 O25 2.305 . S
Ho1 O26 2.322 . S
Ho1 O28 2.378 . S
Ho1 O29 2.524 . S
Ho1 O30 2.381 . S
Ho1 O31 2.669 . S
C2 O20 1.259 1_545 S
C2 O21 1.268 . S
C3 Ho0 2.811 1_565 S
C3 C4 1.488 . S
C3 O22 1.215 . S
C3 O23 1.289 . S
C4 C3 1.488 . S
C4 C5 1.348 . S
C4 C9 1.413 . S
C5 C4 1.348 . S
C5 C6 1.442 . S
C5 H32 0.930 . S
C6 C5 1.442 . S
C6 C7 1.381 . S
C6 H33 0.931 . S
C7 C6 1.381 . S
C7 C8 1.321 . S
C8 C7 1.321 . S
C8 C9 1.403 . S
C8 H34 0.934 . S
C9 C4 1.413 . S
C9 C8 1.403 . S
C9 H35 0.930 . S
C10 O24 1.275 . S
C10 O25 1.256 . S
C11 O26 1.259 . S
C11 O27 1.268 . S
C12 Ho1 2.811 . S
C12 C13 1.488 . S
C12 O28 1.215 . S
C12 O29 1.289 . S
C13 C12 1.488 . S
C13 C14 1.348 . S
C13 C18 1.413 . S
C14 C13 1.348 . S
C14 C15 1.442 . S
C14 H36 0.930 . S
C15 C14 1.442 . S
C15 C16 1.381 . S
C15 H37 0.931 . S
C16 C15 1.381 . S
C16 C17 1.321 . S
C17 C16 1.321 . S
C17 C18 1.403 . S
C17 H38 0.934 . S
C18 C13 1.413 . S
C18 C17 1.403 . S
C18 H39 0.930 . S
C19 O30 1.275 . S
C19 O31 1.256 . S
O20 Ho0 2.322 1_565 S
O20 C2 1.259 1_565 S
O21 Ho1 2.346 . S
O21 C2 1.268 . S
O22 Ho0 2.378 1_565 S
O22 C3 1.215 . S
O23 Ho0 2.524 1_565 S
O23 C3 1.289 . S
O24 Ho0 2.381 . S
O24 C10 1.275 . S
O25 Ho0 2.669 . S
O25 Ho1 2.305 . S
O25 C10 1.256 . S
O26 Ho1 2.322 . S
O26 C11 1.259 . S
O27 Ho0 2.346 . S
O27 C11 1.268 . S
O28 Ho1 2.378 . S
O28 C12 1.215 . S
O29 Ho1 2.524 . S
O29 C12 1.289 . S
O30 Ho1 2.381 . S
O30 C19 1.275 . S
O31 Ho0 2.305 . S
O31 Ho1 2.669 . S
O31 C19 1.256 . S
H32 C5 0.930 . S
H33 C6 0.931 . S
H34 C8 0.934 . S
H35 C9 0.930 . S
H36 C14 0.930 . S
H37 C15 0.931 . S
H38 C17 0.934 . S
H39 C18 0.930 . S
Ho40 C43 2.811 1_565 S
Ho40 O60 2.322 1_565 S
Ho40 O62 2.378 1_565 S
Ho40 O63 2.524 1_565 S
Ho40 O64 2.381 . S
Ho40 O65 2.669 . S
Ho40 O67 2.346 . S
Ho40 O71 2.305 . S
Ho41 C52 2.811 . S
Ho41 O61 2.346 . S
Ho41 O65 2.305 . S
Ho41 O66 2.322 . S
Ho41 O68 2.378 . S
Ho41 O69 2.524 . S
Ho41 O70 2.381 . S
Ho41 O71 2.669 . S
C42 O60 1.259 1_565 S
C42 O61 1.268 . S
C43 Ho40 2.811 1_545 S
C43 C44 1.488 . S
C43 O62 1.215 . S
C43 O63 1.289 . S
C44 C43 1.488 . S
C44 C45 1.348 . S
C44 C49 1.413 . S
C45 C44 1.348 . S
C45 C46 1.442 . S
C45 H72 0.930 . S
C46 C45 1.442 . S
C46 C47 1.381 . S
C46 H73 0.931 . S
C47 C46 1.381 . S
C47 C48 1.321 . S
C48 C47 1.321 . S
C48 C49 1.403 . S
C48 H74 0.934 . S
C49 C44 1.413 . S
C49 C48 1.403 . S
C49 H75 0.930 . S
C50 O64 1.275 . S
C50 O65 1.256 . S
C51 O66 1.259 . S
C51 O67 1.268 . S
C52 Ho41 2.811 . S
C52 C53 1.488 . S
C52 O68 1.215 . S
C52 O69 1.289 . S
C53 C52 1.488 . S
C53 C54 1.348 . S
C53 C58 1.413 . S
C54 C53 1.348 . S
C54 C55 1.442 . S
C54 H76 0.930 . S
C55 C54 1.442 . S
C55 C56 1.381 . S
C55 H77 0.931 . S
C56 C55 1.381 . S
C56 C57 1.321 . S
C57 C56 1.321 . S
C57 C58 1.403 . S
C57 H78 0.934 . S
C58 C53 1.413 . S
C58 C57 1.403 . S
C58 H79 0.930 . S
C59 O70 1.275 . S
C59 O71 1.256 . S
O60 Ho40 2.322 1_545 S
O60 C42 1.259 1_545 S
O61 Ho41 2.346 . S
O61 C42 1.268 . S
O62 Ho40 2.378 1_545 S
O62 C43 1.215 . S
O63 Ho40 2.524 1_545 S
O63 C43 1.289 . S
O64 Ho40 2.381 . S
O64 C50 1.275 . S
O65 Ho40 2.669 . S
O65 Ho41 2.305 . S
O65 C50 1.256 . S
O66 Ho41 2.322 . S
O66 C51 1.259 . S
O67 Ho40 2.346 . S
O67 C51 1.268 . S
O68 Ho41 2.378 . S
O68 C52 1.215 . S
O69 Ho41 2.524 . S
O69 C52 1.289 . S
O70 Ho41 2.381 . S
O70 C59 1.275 . S
O71 Ho40 2.305 . S
O71 Ho41 2.669 . S
O71 C59 1.256 . S
H72 C45 0.930 . S
H73 C46 0.931 . S
H74 C48 0.934 . S
H75 C49 0.930 . S
H76 C54 0.930 . S
H77 C55 0.931 . S
H78 C57 0.934 . S
H79 C58 0.930 . S
Ho80 C83 2.811 1_565 S
Ho80 O100 2.322 1_565 S
Ho80 O102 2.378 1_565 S
Ho80 O103 2.524 1_565 S
Ho80 O104 2.381 . S
Ho80 O105 2.669 . S
Ho80 O107 2.346 . S
Ho80 O111 2.305 . S
Ho81 C92 2.811 . S
Ho81 O101 2.346 . S
Ho81 O105 2.305 . S
Ho81 O106 2.322 . S
Ho81 O108 2.378 . S
Ho81 O109 2.524 . S
Ho81 O110 2.381 . S
Ho81 O111 2.669 . S
C82 O100 1.259 1_565 S
C82 O101 1.268 . S
C83 Ho80 2.811 1_545 S
C83 C84 1.488 . S
C83 O102 1.215 . S
C83 O103 1.289 . S
C84 C83 1.488 . S
C84 C85 1.348 . S
C84 C89 1.413 . S
C85 C84 1.348 . S
C85 C86 1.442 . S
C85 H112 0.930 . S
C86 C85 1.442 . S
C86 C87 1.381 . S
C86 H113 0.931 . S
C87 C86 1.381 . S
C87 C88 1.321 . S
C88 C87 1.321 . S
C88 C89 1.403 . S
C88 H114 0.934 . S
C89 C84 1.413 . S
C89 C88 1.403 . S
C89 H115 0.930 . S
C90 O104 1.275 . S
C90 O105 1.256 . S
C91 O106 1.259 . S
C91 O107 1.268 . S
C92 Ho81 2.811 . S
C92 C93 1.488 . S
C92 O108 1.215 . S
C92 O109 1.289 . S
C93 C92 1.488 . S
C93 C94 1.348 . S
C93 C98 1.413 . S
C94 C93 1.348 . S
C94 C95 1.442 . S
C94 H116 0.930 . S
C95 C94 1.442 . S
C95 C96 1.381 . S
C95 H117 0.931 . S
C96 C95 1.381 . S
C96 C97 1.321 . S
C97 C96 1.321 . S
C97 C98 1.403 . S
C97 H118 0.934 . S
C98 C93 1.413 . S
C98 C97 1.403 . S
C98 H119 0.930 . S
C99 O110 1.275 . S
C99 O111 1.256 . S
O100 Ho80 2.322 1_545 S
O100 C82 1.259 1_545 S
O101 Ho81 2.346 . S
O101 C82 1.268 . S
O102 Ho80 2.378 1_545 S
O102 C83 1.215 . S
O103 Ho80 2.524 1_545 S
O103 C83 1.289 . S
O104 Ho80 2.381 . S
O104 C90 1.275 . S
O105 Ho80 2.669 . S
O105 Ho81 2.305 . S
O105 C90 1.256 . S
O106 Ho81 2.322 . S
O106 C91 1.259 . S
O107 Ho80 2.346 . S
O107 C91 1.268 . S
O108 Ho81 2.378 . S
O108 C92 1.215 . S
O109 Ho81 2.524 . S
O109 C92 1.289 . S
O110 Ho81 2.381 . S
O110 C99 1.275 . S
O111 Ho80 2.305 . S
O111 Ho81 2.669 . S
O111 C99 1.256 . S
H112 C85 0.930 . S
H113 C86 0.931 . S
H114 C88 0.934 . S
H115 C89 0.930 . S
H116 C94 0.930 . S
H117 C95 0.931 . S
H118 C97 0.934 . S
H119 C98 0.930 . S
Ho120 C123 2.811 1_545 S
Ho120 O140 2.322 1_545 S
Ho120 O142 2.378 1_545 S
Ho120 O143 2.524 1_545 S
Ho120 O144 2.381 . S
Ho120 O145 2.669 . S
Ho120 O147 2.346 . S
Ho120 O151 2.305 . S
Ho121 C132 2.811 . S
Ho121 O141 2.346 . S
Ho121 O145 2.305 . S
Ho121 O146 2.322 . S
Ho121 O148 2.378 . S
Ho121 O149 2.524 . S
Ho121 O150 2.381 . S
Ho121 O151 2.669 . S
C122 O140 1.259 1_545 S
C122 O141 1.268 . S
C123 Ho120 2.811 1_565 S
C123 C124 1.488 . S
C123 O142 1.215 . S
C123 O143 1.289 . S
C124 C123 1.488 . S
C124 C125 1.348 . S
C124 C129 1.413 . S
C125 C124 1.348 . S
C125 C126 1.442 . S
C125 H152 0.930 . S
C126 C125 1.442 . S
C126 C127 1.381 . S
C126 H153 0.931 . S
C127 C126 1.381 . S
C127 C128 1.321 . S
C128 C127 1.321 . S
C128 C129 1.403 . S
C128 H154 0.934 . S
C129 C124 1.413 . S
C129 C128 1.403 . S
C129 H155 0.930 . S
C130 O144 1.275 . S
C130 O145 1.256 . S
C131 O146 1.259 . S
C131 O147 1.268 . S
C132 Ho121 2.811 . S
C132 C133 1.488 . S
C132 O148 1.215 . S
C132 O149 1.289 . S
C133 C132 1.488 . S
C133 C134 1.348 . S
C133 C138 1.413 . S
C134 C133 1.348 . S
C134 C135 1.442 . S
C134 H156 0.930 . S
C135 C134 1.442 . S
C135 C136 1.381 . S
C135 H157 0.931 . S
C136 C135 1.381 . S
C136 C137 1.321 . S
C137 C136 1.321 . S
C137 C138 1.403 . S
C137 H158 0.934 . S
C138 C133 1.413 . S
C138 C137 1.403 . S
C138 H159 0.930 . S
C139 O150 1.275 . S
C139 O151 1.256 . S
O140 Ho120 2.322 1_565 S
O140 C122 1.259 1_565 S
O141 Ho121 2.346 . S
O141 C122 1.268 . S
O142 Ho120 2.378 1_565 S
O142 C123 1.215 . S
O143 Ho120 2.524 1_565 S
O143 C123 1.289 . S
O144 Ho120 2.381 . S
O144 C130 1.275 . S
O145 Ho120 2.669 . S
O145 Ho121 2.305 . S
O145 C130 1.256 . S
O146 Ho121 2.322 . S
O146 C131 1.259 . S
O147 Ho120 2.346 . S
O147 C131 1.268 . S
O148 Ho121 2.378 . S
O148 C132 1.215 . S
O149 Ho121 2.524 . S
O149 C132 1.289 . S
O150 Ho121 2.381 . S
O150 C139 1.275 . S
O151 Ho120 2.305 . S
O151 Ho121 2.669 . S
O151 C139 1.256 . S
H152 C125 0.930 . S
H153 C126 0.931 . S
H154 C128 0.934 . S
H155 C129 0.930 . S
H156 C134 0.930 . S
H157 C135 0.931 . S
H158 C137 0.934 . S
H159 C138 0.930 . S
Ho160 C163 2.811 . S
Ho160 O180 2.322 . S
Ho160 O182 2.378 . S
Ho160 O183 2.524 . S
Ho160 O184 2.381 . S
Ho160 O185 2.669 . S
Ho160 O187 2.346 . S
Ho160 O191 2.305 . S
Ho161 C172 2.811 1_565 S
Ho161 O181 2.346 . S
Ho161 O185 2.305 . S
Ho161 O186 2.322 1_565 S
Ho161 O188 2.378 1_565 S
Ho161 O189 2.524 1_565 S
Ho161 O190 2.381 . S
Ho161 O191 2.669 . S
C162 O180 1.259 . S
C162 O181 1.268 . S
C163 Ho160 2.811 . S
C163 C164 1.488 . S
C163 O182 1.215 . S
C163 O183 1.289 . S
C164 C163 1.488 . S
C164 C165 1.348 . S
C164 C169 1.413 . S
C165 C164 1.348 . S
C165 C166 1.442 . S
C165 H192 0.930 . S
C166 C165 1.442 . S
C166 C167 1.381 . S
C166 H193 0.931 . S
C167 C166 1.381 . S
C167 C168 1.321 . S
C168 C167 1.321 . S
C168 C169 1.403 . S
C168 H194 0.934 . S
C169 C164 1.413 . S
C169 C168 1.403 . S
C169 H195 0.930 . S
C170 O184 1.275 . S
C170 O185 1.256 . S
C171 O186 1.259 1_565 S
C171 O187 1.268 . S
C172 Ho161 2.811 1_545 S
C172 C173 1.488 . S
C172 O188 1.215 . S
C172 O189 1.289 . S
C173 C172 1.488 . S
C173 C174 1.348 . S
C173 C178 1.413 . S
C174 C173 1.348 . S
C174 C175 1.442 . S
C174 H196 0.930 . S
C175 C174 1.442 . S
C175 C176 1.381 . S
C175 H197 0.931 . S
C176 C175 1.381 . S
C176 C177 1.321 . S
C177 C176 1.321 . S
C177 C178 1.403 . S
C177 H198 0.934 . S
C178 C173 1.413 . S
C178 C177 1.403 . S
C178 H199 0.930 . S
C179 O190 1.275 . S
C179 O191 1.256 . S
O180 Ho160 2.322 . S
O180 C162 1.259 . S
O181 Ho161 2.346 . S
O181 C162 1.268 . S
O182 Ho160 2.378 . S
O182 C163 1.215 . S
O183 Ho160 2.524 . S
O183 C163 1.289 . S
O184 Ho160 2.381 . S
O184 C170 1.275 . S
O185 Ho160 2.669 . S
O185 Ho161 2.305 . S
O185 C170 1.256 . S
O186 Ho161 2.322 1_545 S
O186 C171 1.259 1_545 S
O187 Ho160 2.346 . S
O187 C171 1.268 . S
O188 Ho161 2.378 1_545 S
O188 C172 1.215 . S
O189 Ho161 2.524 1_545 S
O189 C172 1.289 . S
O190 Ho161 2.381 . S
O190 C179 1.275 . S
O191 Ho160 2.305 . S
O191 Ho161 2.669 . S
O191 C179 1.256 . S
H192 C165 0.930 . S
H193 C166 0.931 . S
H194 C168 0.934 . S
H195 C169 0.930 . S
H196 C174 0.930 . S
H197 C175 0.931 . S
H198 C177 0.934 . S
H199 C178 0.930 . S
Ho200 C203 2.811 . S
Ho200 O220 2.322 . S
Ho200 O222 2.378 . S
Ho200 O223 2.524 . S
Ho200 O224 2.381 . S
Ho200 O225 2.669 . S
Ho200 O227 2.346 . S
Ho200 O231 2.305 . S
Ho201 C212 2.811 1_545 S
Ho201 O221 2.346 . S
Ho201 O225 2.305 . S
Ho201 O226 2.322 1_545 S
Ho201 O228 2.378 1_545 S
Ho201 O229 2.524 1_545 S
Ho201 O230 2.381 . S
Ho201 O231 2.669 . S
C202 O220 1.259 . S
C202 O221 1.268 . S
C203 Ho200 2.811 . S
C203 C204 1.488 . S
C203 O222 1.215 . S
C203 O223 1.289 . S
C204 C203 1.488 . S
C204 C205 1.348 . S
C204 C209 1.413 . S
C205 C204 1.348 . S
C205 C206 1.442 . S
C205 H232 0.930 . S
C206 C205 1.442 . S
C206 C207 1.381 . S
C206 H233 0.931 . S
C207 C206 1.381 . S
C207 C208 1.321 . S
C208 C207 1.321 . S
C208 C209 1.403 . S
C208 H234 0.934 . S
C209 C204 1.413 . S
C209 C208 1.403 . S
C209 H235 0.930 . S
C210 O224 1.275 . S
C210 O225 1.256 . S
C211 O226 1.259 1_545 S
C211 O227 1.268 . S
C212 Ho201 2.811 1_565 S
C212 C213 1.488 . S
C212 O228 1.215 . S
C212 O229 1.289 . S
C213 C212 1.488 . S
C213 C214 1.348 . S
C213 C218 1.413 . S
C214 C213 1.348 . S
C214 C215 1.442 . S
C214 H236 0.930 . S
C215 C214 1.442 . S
C215 C216 1.381 . S
C215 H237 0.931 . S
C216 C215 1.381 . S
C216 C217 1.321 . S
C217 C216 1.321 . S
C217 C218 1.403 . S
C217 H238 0.934 . S
C218 C213 1.413 . S
C218 C217 1.403 . S
C218 H239 0.930 . S
C219 O230 1.275 . S
C219 O231 1.256 . S
O220 Ho200 2.322 . S
O220 C202 1.259 . S
O221 Ho201 2.346 . S
O221 C202 1.268 . S
O222 Ho200 2.378 . S
O222 C203 1.215 . S
O223 Ho200 2.524 . S
O223 C203 1.289 . S
O224 Ho200 2.381 . S
O224 C210 1.275 . S
O225 Ho200 2.669 . S
O225 Ho201 2.305 . S
O225 C210 1.256 . S
O226 Ho201 2.322 1_565 S
O226 C211 1.259 1_565 S
O227 Ho200 2.346 . S
O227 C211 1.268 . S
O228 Ho201 2.378 1_565 S
O228 C212 1.215 . S
O229 Ho201 2.524 1_565 S
O229 C212 1.289 . S
O230 Ho201 2.381 . S
O230 C219 1.275 . S
O231 Ho200 2.305 . S
O231 Ho201 2.669 . S
O231 C219 1.256 . S
H232 C205 0.930 . S
H233 C206 0.931 . S
H234 C208 0.934 . S
H235 C209 0.930 . S
H236 C214 0.930 . S
H237 C215 0.931 . S
H238 C217 0.934 . S
H239 C218 0.930 . S
Ho240 C243 2.811 . S
Ho240 O260 2.322 . S
Ho240 O262 2.378 . S
Ho240 O263 2.524 . S
Ho240 O264 2.381 . S
Ho240 O265 2.669 . S
Ho240 O267 2.346 . S
Ho240 O271 2.305 . S
Ho241 C252 2.811 1_545 S
Ho241 O261 2.346 . S
Ho241 O265 2.305 . S
Ho241 O266 2.322 1_545 S
Ho241 O268 2.378 1_545 S
Ho241 O269 2.524 1_545 S
Ho241 O270 2.381 . S
Ho241 O271 2.669 . S
C242 O260 1.259 . S
C242 O261 1.268 . S
C243 Ho240 2.811 . S
C243 C244 1.488 . S
C243 O262 1.215 . S
C243 O263 1.289 . S
C244 C243 1.488 . S
C244 C245 1.348 . S
C244 C249 1.413 . S
C245 C244 1.348 . S
C245 C246 1.442 . S
C245 H272 0.930 . S
C246 C245 1.442 . S
C246 C247 1.381 . S
C246 H273 0.931 . S
C247 C246 1.381 . S
C247 C248 1.321 . S
C248 C247 1.321 . S
C248 C249 1.403 . S
C248 H274 0.934 . S
C249 C244 1.413 . S
C249 C248 1.403 . S
C249 H275 0.930 . S
C250 O264 1.275 . S
C250 O265 1.256 . S
C251 O266 1.259 1_545 S
C251 O267 1.268 . S
C252 Ho241 2.811 1_565 S
C252 C253 1.488 . S
C252 O268 1.215 . S
C252 O269 1.289 . S
C253 C252 1.488 . S
C253 C254 1.348 . S
C253 C258 1.413 . S
C254 C253 1.348 . S
C254 C255 1.442 . S
C254 H276 0.930 . S
C255 C254 1.442 . S
C255 C256 1.381 . S
C255 H277 0.931 . S
C256 C255 1.381 . S
C256 C257 1.321 . S
C257 C256 1.321 . S
C257 C258 1.403 . S
C257 H278 0.934 . S
C258 C253 1.413 . S
C258 C257 1.403 . S
C258 H279 0.930 . S
C259 O270 1.275 . S
C259 O271 1.256 . S
O260 Ho240 2.322 . S
O260 C242 1.259 . S
O261 Ho241 2.346 . S
O261 C242 1.268 . S
O262 Ho240 2.378 . S
O262 C243 1.215 . S
O263 Ho240 2.524 . S
O263 C243 1.289 . S
O264 Ho240 2.381 . S
O264 C250 1.275 . S
O265 Ho240 2.669 . S
O265 Ho241 2.305 . S
O265 C250 1.256 . S
O266 Ho241 2.322 1_565 S
O266 C251 1.259 1_565 S
O267 Ho240 2.346 . S
O267 C251 1.268 . S
O268 Ho241 2.378 1_565 S
O268 C252 1.215 . S
O269 Ho241 2.524 1_565 S
O269 C252 1.289 . S
O270 Ho241 2.381 . S
O270 C259 1.275 . S
O271 Ho240 2.305 . S
O271 Ho241 2.669 . S
O271 C259 1.256 . S
H272 C245 0.930 . S
H273 C246 0.931 . S
H274 C248 0.934 . S
H275 C249 0.930 . S
H276 C254 0.930 . S
H277 C255 0.931 . S
H278 C257 0.934 . S
H279 C258 0.930 . S
Ho280 C283 2.811 . S
Ho280 O300 2.322 . S
Ho280 O302 2.378 . S
Ho280 O303 2.524 . S
Ho280 O304 2.381 . S
Ho280 O305 2.669 . S
Ho280 O307 2.346 . S
Ho280 O311 2.305 . S
Ho281 C292 2.811 1_565 S
Ho281 O301 2.346 . S
Ho281 O305 2.305 . S
Ho281 O306 2.322 1_565 S
Ho281 O308 2.378 1_565 S
Ho281 O309 2.524 1_565 S
Ho281 O310 2.381 . S
Ho281 O311 2.669 . S
C282 O300 1.259 . S
C282 O301 1.268 . S
C283 Ho280 2.811 . S
C283 C284 1.488 . S
C283 O302 1.215 . S
C283 O303 1.289 . S
C284 C283 1.488 . S
C284 C285 1.348 . S
C284 C289 1.413 . S
C285 C284 1.348 . S
C285 C286 1.442 . S
C285 H312 0.930 . S
C286 C285 1.442 . S
C286 C287 1.381 . S
C286 H313 0.931 . S
C287 C286 1.381 . S
C287 C288 1.321 . S
C288 C287 1.321 . S
C288 C289 1.403 . S
C288 H314 0.934 . S
C289 C284 1.413 . S
C289 C288 1.403 . S
C289 H315 0.930 . S
C290 O304 1.275 . S
C290 O305 1.256 . S
C291 O306 1.259 1_565 S
C291 O307 1.268 . S
C292 Ho281 2.811 1_545 S
C292 C293 1.488 . S
C292 O308 1.215 . S
C292 O309 1.289 . S
C293 C292 1.488 . S
C293 C294 1.348 . S
C293 C298 1.413 . S
C294 C293 1.348 . S
C294 C295 1.442 . S
C294 H316 0.930 . S
C295 C294 1.442 . S
C295 C296 1.381 . S
C295 H317 0.931 . S
C296 C295 1.381 . S
C296 C297 1.321 . S
C297 C296 1.321 . S
C297 C298 1.403 . S
C297 H318 0.934 . S
C298 C293 1.413 . S
C298 C297 1.403 . S
C298 H319 0.930 . S
C299 O310 1.275 . S
C299 O311 1.256 . S
O300 Ho280 2.322 . S
O300 C282 1.259 . S
O301 Ho281 2.346 . S
O301 C282 1.268 . S
O302 Ho280 2.378 . S
O302 C283 1.215 . S
O303 Ho280 2.524 . S
O303 C283 1.289 . S
O304 Ho280 2.381 . S
O304 C290 1.275 . S
O305 Ho280 2.669 . S
O305 Ho281 2.305 . S
O305 C290 1.256 . S
O306 Ho281 2.322 1_545 S
O306 C291 1.259 1_545 S
O307 Ho280 2.346 . S
O307 C291 1.268 . S
O308 Ho281 2.378 1_545 S
O308 C292 1.215 . S
O309 Ho281 2.524 1_545 S
O309 C292 1.289 . S
O310 Ho281 2.381 . S
O310 C299 1.275 . S
O311 Ho280 2.305 . S
O311 Ho281 2.669 . S
O311 C299 1.256 . S
H312 C285 0.930 . S
H313 C286 0.931 . S
H314 C288 0.934 . S
H315 C289 0.930 . S
H316 C294 0.930 . S
H317 C295 0.931 . S
H318 C297 0.934 . S
H319 C298 0.930 . S
Ho320 C323 2.811 . S
Ho320 O340 2.322 . S
Ho320 O342 2.378 . S
Ho320 O343 2.524 . S
Ho320 O344 2.381 . S
Ho320 O345 2.669 . S
Ho320 O347 2.346 . S
Ho320 O351 2.305 . S
Ho321 C332 2.811 . S
Ho321 O341 2.346 . S
Ho321 O345 2.305 . S
Ho321 O346 2.322 . S
Ho321 O348 2.378 . S
Ho321 O349 2.524 . S
Ho321 O350 2.381 . S
Ho321 O351 2.669 . S
C322 O340 1.259 . S
C322 O341 1.268 . S
C323 Ho320 2.811 . S
C323 C324 1.488 . S
C323 O342 1.215 . S
C323 O343 1.289 . S
C324 C323 1.488 . S
C324 C325 1.348 . S
C324 C329 1.413 . S
C325 C324 1.348 . S
C325 C326 1.442 . S
C325 H352 0.930 . S
C326 C325 1.442 . S
C326 C327 1.381 . S
C326 H353 0.931 . S
C327 C326 1.381 . S
C327 C328 1.321 . S
C328 C327 1.321 . S
C328 C329 1.403 . S
C328 H354 0.934 . S
C329 C324 1.413 . S
C329 C328 1.403 . S
C329 H355 0.930 . S
C330 O344 1.275 . S
C330 O345 1.256 . S
C331 O346 1.259 . S
C331 O347 1.268 . S
C332 Ho321 2.811 . S
C332 C333 1.488 . S
C332 O348 1.215 . S
C332 O349 1.289 . S
C333 C332 1.488 . S
C333 C334 1.348 . S
C333 C338 1.413 . S
C334 C333 1.348 . S
C334 C335 1.442 1_565 S
C334 H356 0.930 . S
C335 C334 1.442 1_545 S
C335 C336 1.381 . S
C335 H357 0.931 . S
C336 C335 1.381 . S
C336 C337 1.321 . S
C337 C336 1.321 . S
C337 C338 1.403 1_545 S
C337 H358 0.934 . S
C338 C333 1.413 . S
C338 C337 1.403 1_565 S
C338 H359 0.930 . S
C339 O350 1.275 . S
C339 O351 1.256 . S
O340 Ho320 2.322 . S
O340 C322 1.259 . S
O341 Ho321 2.346 . S
O341 C322 1.268 . S
O342 Ho320 2.378 . S
O342 C323 1.215 . S
O343 Ho320 2.524 . S
O343 C323 1.289 . S
O344 Ho320 2.381 . S
O344 C330 1.275 . S
O345 Ho320 2.669 . S
O345 Ho321 2.305 . S
O345 C330 1.256 . S
O346 Ho321 2.322 . S
O346 C331 1.259 . S
O347 Ho320 2.346 . S
O347 C331 1.268 . S
O348 Ho321 2.378 . S
O348 C332 1.215 . S
O349 Ho321 2.524 . S
O349 C332 1.289 . S
O350 Ho321 2.381 . S
O350 C339 1.275 . S
O351 Ho320 2.305 . S
O351 Ho321 2.669 . S
O351 C339 1.256 . S
H352 C325 0.930 . S
H353 C326 0.931 . S
H354 C328 0.934 . S
H355 C329 0.930 . S
H356 C334 0.930 . S
H357 C335 0.931 . S
H358 C337 0.934 . S
H359 C338 0.930 . S
Ho360 C363 2.811 . S
Ho360 O380 2.322 . S
Ho360 O382 2.378 . S
Ho360 O383 2.524 . S
Ho360 O384 2.381 . S
Ho360 O385 2.669 . S
Ho360 O387 2.346 . S
Ho360 O391 2.305 . S
Ho361 C372 2.811 . S
Ho361 O381 2.346 . S
Ho361 O385 2.305 . S
Ho361 O386 2.322 . S
Ho361 O388 2.378 . S
Ho361 O389 2.524 . S
Ho361 O390 2.381 . S
Ho361 O391 2.669 . S
C362 O380 1.259 . S
C362 O381 1.268 . S
C363 Ho360 2.811 . S
C363 C364 1.488 . S
C363 O382 1.215 . S
C363 O383 1.289 . S
C364 C363 1.488 . S
C364 C365 1.348 . S
C364 C369 1.413 . S
C365 C364 1.348 . S
C365 C366 1.442 . S
C365 H392 0.930 . S
C366 C365 1.442 . S
C366 C367 1.381 . S
C366 H393 0.931 . S
C367 C366 1.381 . S
C367 C368 1.321 . S
C368 C367 1.321 . S
C368 C369 1.403 . S
C368 H394 0.934 . S
C369 C364 1.413 . S
C369 C368 1.403 . S
C369 H395 0.930 . S
C370 O384 1.275 . S
C370 O385 1.256 . S
C371 O386 1.259 . S
C371 O387 1.268 . S
C372 Ho361 2.811 . S
C372 C373 1.488 . S
C372 O388 1.215 . S
C372 O389 1.289 . S
C373 C372 1.488 . S
C373 C374 1.348 . S
C373 C378 1.413 . S
C374 C373 1.348 . S
C374 C375 1.442 1_545 S
C374 H396 0.930 . S
C375 C374 1.442 1_565 S
C375 C376 1.381 . S
C375 H397 0.931 . S
C376 C375 1.381 . S
C376 C377 1.321 . S
C377 C376 1.321 . S
C377 C378 1.403 1_565 S
C377 H398 0.934 . S
C378 C373 1.413 . S
C378 C377 1.403 1_545 S
C378 H399 0.930 . S
C379 O390 1.275 . S
C379 O391 1.256 . S
O380 Ho360 2.322 . S
O380 C362 1.259 . S
O381 Ho361 2.346 . S
O381 C362 1.268 . S
O382 Ho360 2.378 . S
O382 C363 1.215 . S
O383 Ho360 2.524 . S
O383 C363 1.289 . S
O384 Ho360 2.381 . S
O384 C370 1.275 . S
O385 Ho360 2.669 . S
O385 Ho361 2.305 . S
O385 C370 1.256 . S
O386 Ho361 2.322 . S
O386 C371 1.259 . S
O387 Ho360 2.346 . S
O387 C371 1.268 . S
O388 Ho361 2.378 . S
O388 C372 1.215 . S
O389 Ho361 2.524 . S
O389 C372 1.289 . S
O390 Ho361 2.381 . S
O390 C379 1.275 . S
O391 Ho360 2.305 . S
O391 Ho361 2.669 . S
O391 C379 1.256 . S
H392 C365 0.930 . S
H393 C366 0.931 . S
H394 C368 0.934 . S
H395 C369 0.930 . S
H396 C374 0.930 . S
H397 C375 0.931 . S
H398 C377 0.934 . S
H399 C378 0.930 . S
Ho400 C403 2.811 . S
Ho400 O420 2.322 . S
Ho400 O422 2.378 . S
Ho400 O423 2.524 . S
Ho400 O424 2.381 . S
Ho400 O425 2.669 . S
Ho400 O427 2.346 . S
Ho400 O431 2.305 . S
Ho401 C412 2.811 . S
Ho401 O421 2.346 . S
Ho401 O425 2.305 . S
Ho401 O426 2.322 . S
Ho401 O428 2.378 . S
Ho401 O429 2.524 . S
Ho401 O430 2.381 . S
Ho401 O431 2.669 . S
C402 O420 1.259 . S
C402 O421 1.268 . S
C403 Ho400 2.811 . S
C403 C404 1.488 . S
C403 O422 1.215 . S
C403 O423 1.289 . S
C404 C403 1.488 . S
C404 C405 1.348 . S
C404 C409 1.413 . S
C405 C404 1.348 . S
C405 C406 1.442 . S
C405 H432 0.930 . S
C406 C405 1.442 . S
C406 C407 1.381 . S
C406 H433 0.931 . S
C407 C406 1.381 . S
C407 C408 1.321 . S
C408 C407 1.321 . S
C408 C409 1.403 . S
C408 H434 0.934 . S
C409 C404 1.413 . S
C409 C408 1.403 . S
C409 H435 0.930 . S
C410 O424 1.275 . S
C410 O425 1.256 . S
C411 O426 1.259 . S
C411 O427 1.268 . S
C412 Ho401 2.811 . S
C412 C413 1.488 . S
C412 O428 1.215 . S
C412 O429 1.289 . S
C413 C412 1.488 . S
C413 C414 1.348 . S
C413 C418 1.413 . S
C414 C413 1.348 . S
C414 C415 1.442 1_545 S
C414 H436 0.930 . S
C415 C414 1.442 1_565 S
C415 C416 1.381 . S
C415 H437 0.931 . S
C416 C415 1.381 . S
C416 C417 1.321 . S
C417 C416 1.321 . S
C417 C418 1.403 1_565 S
C417 H438 0.934 . S
C418 C413 1.413 . S
C418 C417 1.403 1_545 S
C418 H439 0.930 . S
C419 O430 1.275 . S
C419 O431 1.256 . S
O420 Ho400 2.322 . S
O420 C402 1.259 . S
O421 Ho401 2.346 . S
O421 C402 1.268 . S
O422 Ho400 2.378 . S
O422 C403 1.215 . S
O423 Ho400 2.524 . S
O423 C403 1.289 . S
O424 Ho400 2.381 . S
O424 C410 1.275 . S
O425 Ho400 2.669 . S
O425 Ho401 2.305 . S
O425 C410 1.256 . S
O426 Ho401 2.322 . S
O426 C411 1.259 . S
O427 Ho400 2.346 . S
O427 C411 1.268 . S
O428 Ho401 2.378 . S
O428 C412 1.215 . S
O429 Ho401 2.524 . S
O429 C412 1.289 . S
O430 Ho401 2.381 . S
O430 C419 1.275 . S
O431 Ho400 2.305 . S
O431 Ho401 2.669 . S
O431 C419 1.256 . S
H432 C405 0.930 . S
H433 C406 0.931 . S
H434 C408 0.934 . S
H435 C409 0.930 . S
H436 C414 0.930 . S
H437 C415 0.931 . S
H438 C417 0.934 . S
H439 C418 0.930 . S
Ho440 C443 2.811 . S
Ho440 O460 2.322 . S
Ho440 O462 2.378 . S
Ho440 O463 2.524 . S
Ho440 O464 2.381 . S
Ho440 O465 2.669 . S
Ho440 O467 2.346 . S
Ho440 O471 2.305 . S
Ho441 C452 2.811 . S
Ho441 O461 2.346 . S
Ho441 O465 2.305 . S
Ho441 O466 2.322 . S
Ho441 O468 2.378 . S
Ho441 O469 2.524 . S
Ho441 O470 2.381 . S
Ho441 O471 2.669 . S
C442 O460 1.259 . S
C442 O461 1.268 . S
C443 Ho440 2.811 . S
C443 C444 1.488 . S
C443 O462 1.215 . S
C443 O463 1.289 . S
C444 C443 1.488 . S
C444 C445 1.348 . S
C444 C449 1.413 . S
C445 C444 1.348 . S
C445 C446 1.442 . S
C445 H472 0.930 . S
C446 C445 1.442 . S
C446 C447 1.381 . S
C446 H473 0.931 . S
C447 C446 1.381 . S
C447 C448 1.321 . S
C448 C447 1.321 . S
C448 C449 1.403 . S
C448 H474 0.934 . S
C449 C444 1.413 . S
C449 C448 1.403 . S
C449 H475 0.930 . S
C450 O464 1.275 . S
C450 O465 1.256 . S
C451 O466 1.259 . S
C451 O467 1.268 . S
C452 Ho441 2.811 . S
C452 C453 1.488 . S
C452 O468 1.215 . S
C452 O469 1.289 . S
C453 C452 1.488 . S
C453 C454 1.348 . S
C453 C458 1.413 . S
C454 C453 1.348 . S
C454 C455 1.442 1_565 S
C454 H476 0.930 . S
C455 C454 1.442 1_545 S
C455 C456 1.381 . S
C455 H477 0.931 . S
C456 C455 1.381 . S
C456 C457 1.321 . S
C457 C456 1.321 . S
C457 C458 1.403 1_545 S
C457 H478 0.934 . S
C458 C453 1.413 . S
C458 C457 1.403 1_565 S
C458 H479 0.930 . S
C459 O470 1.275 . S
C459 O471 1.256 . S
O460 Ho440 2.322 . S
O460 C442 1.259 . S
O461 Ho441 2.346 . S
O461 C442 1.268 . S
O462 Ho440 2.378 . S
O462 C443 1.215 . S
O463 Ho440 2.524 . S
O463 C443 1.289 . S
O464 Ho440 2.381 . S
O464 C450 1.275 . S
O465 Ho440 2.669 . S
O465 Ho441 2.305 . S
O465 C450 1.256 . S
O466 Ho441 2.322 . S
O466 C451 1.259 . S
O467 Ho440 2.346 . S
O467 C451 1.268 . S
O468 Ho441 2.378 . S
O468 C452 1.215 . S
O469 Ho441 2.524 . S
O469 C452 1.289 . S
O470 Ho441 2.381 . S
O470 C459 1.275 . S
O471 Ho440 2.305 . S
O471 Ho441 2.669 . S
O471 C459 1.256 . S
H472 C445 0.930 . S
H473 C446 0.931 . S
H474 C448 0.934 . S
H475 C449 0.930 . S
H476 C454 0.930 . S
H477 C455 0.931 . S
H478 C457 0.934 . S
H479 C458 0.930 . S
Ho480 C483 2.811 . S
Ho480 O500 2.322 . S
Ho480 O502 2.378 . S
Ho480 O503 2.524 . S
Ho480 O504 2.381 . S
Ho480 O505 2.669 . S
Ho480 O507 2.346 . S
Ho480 O511 2.305 . S
Ho481 C492 2.811 . S
Ho481 O501 2.346 . S
Ho481 O505 2.305 . S
Ho481 O506 2.322 . S
Ho481 O508 2.378 . S
Ho481 O509 2.524 . S
Ho481 O510 2.381 . S
Ho481 O511 2.669 . S
C482 O500 1.259 . S
C482 O501 1.268 . S
C483 Ho480 2.811 . S
C483 C484 1.488 . S
C483 O502 1.215 . S
C483 O503 1.289 . S
C484 C483 1.488 . S
C484 C485 1.348 . S
C484 C489 1.413 . S
C485 C484 1.348 . S
C485 C486 1.442 1_545 S
C485 H512 0.930 . S
C486 C485 1.442 1_565 S
C486 C487 1.381 . S
C486 H513 0.931 . S
C487 C486 1.381 . S
C487 C488 1.321 . S
C488 C487 1.321 . S
C488 C489 1.403 1_565 S
C488 H514 0.934 . S
C489 C484 1.413 . S
C489 C488 1.403 1_545 S
C489 H515 0.930 . S
C490 O504 1.275 . S
C490 O505 1.256 . S
C491 O506 1.259 . S
C491 O507 1.268 . S
C492 Ho481 2.811 . S
C492 C493 1.488 . S
C492 O508 1.215 . S
C492 O509 1.289 . S
C493 C492 1.488 . S
C493 C494 1.348 . S
C493 C498 1.413 . S
C494 C493 1.348 . S
C494 C495 1.442 . S
C494 H516 0.930 . S
C495 C494 1.442 . S
C495 C496 1.381 . S
C495 H517 0.931 . S
C496 C495 1.381 . S
C496 C497 1.321 . S
C497 C496 1.321 . S
C497 C498 1.403 . S
C497 H518 0.934 . S
C498 C493 1.413 . S
C498 C497 1.403 . S
C498 H519 0.930 . S
C499 O510 1.275 . S
C499 O511 1.256 . S
O500 Ho480 2.322 . S
O500 C482 1.259 . S
O501 Ho481 2.346 . S
O501 C482 1.268 . S
O502 Ho480 2.378 . S
O502 C483 1.215 . S
O503 Ho480 2.524 . S
O503 C483 1.289 . S
O504 Ho480 2.381 . S
O504 C490 1.275 . S
O505 Ho480 2.669 . S
O505 Ho481 2.305 . S
O505 C490 1.256 . S
O506 Ho481 2.322 . S
O506 C491 1.259 . S
O507 Ho480 2.346 . S
O507 C491 1.268 . S
O508 Ho481 2.378 . S
O508 C492 1.215 . S
O509 Ho481 2.524 . S
O509 C492 1.289 . S
O510 Ho481 2.381 . S
O510 C499 1.275 . S
O511 Ho480 2.305 . S
O511 Ho481 2.669 . S
O511 C499 1.256 . S
H512 C485 0.930 . S
H513 C486 0.931 . S
H514 C488 0.934 . S
H515 C489 0.930 . S
H516 C494 0.930 . S
H517 C495 0.931 . S
H518 C497 0.934 . S
H519 C498 0.930 . S
Ho520 C523 2.811 . S
Ho520 O540 2.322 . S
Ho520 O542 2.378 . S
Ho520 O543 2.524 . S
Ho520 O544 2.381 . S
Ho520 O545 2.669 . S
Ho520 O547 2.346 . S
Ho520 O551 2.305 . S
Ho521 C532 2.811 . S
Ho521 O541 2.346 . S
Ho521 O545 2.305 . S
Ho521 O546 2.322 . S
Ho521 O548 2.378 . S
Ho521 O549 2.524 . S
Ho521 O550 2.381 . S
Ho521 O551 2.669 . S
C522 O540 1.259 . S
C522 O541 1.268 . S
C523 Ho520 2.811 . S
C523 C524 1.488 . S
C523 O542 1.215 . S
C523 O543 1.289 . S
C524 C523 1.488 . S
C524 C525 1.348 . S
C524 C529 1.413 . S
C525 C524 1.348 . S
C525 C526 1.442 1_565 S
C525 H552 0.930 . S
C526 C525 1.442 1_545 S
C526 C527 1.381 . S
C526 H553 0.931 . S
C527 C526 1.381 . S
C527 C528 1.321 . S
C528 C527 1.321 . S
C528 C529 1.403 1_545 S
C528 H554 0.934 . S
C529 C524 1.413 . S
C529 C528 1.403 1_565 S
C529 H555 0.930 . S
C530 O544 1.275 . S
C530 O545 1.256 . S
C531 O546 1.259 . S
C531 O547 1.268 . S
C532 Ho521 2.811 . S
C532 C533 1.488 . S
C532 O548 1.215 . S
C532 O549 1.289 . S
C533 C532 1.488 . S
C533 C534 1.348 . S
C533 C538 1.413 . S
C534 C533 1.348 . S
C534 C535 1.442 . S
C534 H556 0.930 . S
C535 C534 1.442 . S
C535 C536 1.381 . S
C535 H557 0.931 . S
C536 C535 1.381 . S
C536 C537 1.321 . S
C537 C536 1.321 . S
C537 C538 1.403 . S
C537 H558 0.934 . S
C538 C533 1.413 . S
C538 C537 1.403 . S
C538 H559 0.930 . S
C539 O550 1.275 . S
C539 O551 1.256 . S
O540 Ho520 2.322 . S
O540 C522 1.259 . S
O541 Ho521 2.346 . S
O541 C522 1.268 . S
O542 Ho520 2.378 . S
O542 C523 1.215 . S
O543 Ho520 2.524 . S
O543 C523 1.289 . S
O544 Ho520 2.381 . S
O544 C530 1.275 . S
O545 Ho520 2.669 . S
O545 Ho521 2.305 . S
O545 C530 1.256 . S
O546 Ho521 2.322 . S
O546 C531 1.259 . S
O547 Ho520 2.346 . S
O547 C531 1.268 . S
O548 Ho521 2.378 . S
O548 C532 1.215 . S
O549 Ho521 2.524 . S
O549 C532 1.289 . S
O550 Ho521 2.381 . S
O550 C539 1.275 . S
O551 Ho520 2.305 . S
O551 Ho521 2.669 . S
O551 C539 1.256 . S
H552 C525 0.930 . S
H553 C526 0.931 . S
H554 C528 0.934 . S
H555 C529 0.930 . S
H556 C534 0.930 . S
H557 C535 0.931 . S
H558 C537 0.934 . S
H559 C538 0.930 . S
Ho560 C563 2.811 . S
Ho560 O580 2.322 . S
Ho560 O582 2.378 . S
Ho560 O583 2.524 . S
Ho560 O584 2.381 . S
Ho560 O585 2.669 . S
Ho560 O587 2.346 . S
Ho560 O591 2.305 . S
Ho561 C572 2.811 . S
Ho561 O581 2.346 . S
Ho561 O585 2.305 . S
Ho561 O586 2.322 . S
Ho561 O588 2.378 . S
Ho561 O589 2.524 . S
Ho561 O590 2.381 . S
Ho561 O591 2.669 . S
C562 O580 1.259 . S
C562 O581 1.268 . S
C563 Ho560 2.811 . S
C563 C564 1.488 . S
C563 O582 1.215 . S
C563 O583 1.289 . S
C564 C563 1.488 . S
C564 C565 1.348 . S
C564 C569 1.413 . S
C565 C564 1.348 . S
C565 C566 1.442 1_565 S
C565 H592 0.930 . S
C566 C565 1.442 1_545 S
C566 C567 1.381 . S
C566 H593 0.931 . S
C567 C566 1.381 . S
C567 C568 1.321 . S
C568 C567 1.321 . S
C568 C569 1.403 1_545 S
C568 H594 0.934 . S
C569 C564 1.413 . S
C569 C568 1.403 1_565 S
C569 H595 0.930 . S
C570 O584 1.275 . S
C570 O585 1.256 . S
C571 O586 1.259 . S
C571 O587 1.268 . S
C572 Ho561 2.811 . S
C572 C573 1.488 . S
C572 O588 1.215 . S
C572 O589 1.289 . S
C573 C572 1.488 . S
C573 C574 1.348 . S
C573 C578 1.413 . S
C574 C573 1.348 . S
C574 C575 1.442 . S
C574 H596 0.930 . S
C575 C574 1.442 . S
C575 C576 1.381 . S
C575 H597 0.931 . S
C576 C575 1.381 . S
C576 C577 1.321 . S
C577 C576 1.321 . S
C577 C578 1.403 . S
C577 H598 0.934 . S
C578 C573 1.413 . S
C578 C577 1.403 . S
C578 H599 0.930 . S
C579 O590 1.275 . S
C579 O591 1.256 . S
O580 Ho560 2.322 . S
O580 C562 1.259 . S
O581 Ho561 2.346 . S
O581 C562 1.268 . S
O582 Ho560 2.378 . S
O582 C563 1.215 . S
O583 Ho560 2.524 . S
O583 C563 1.289 . S
O584 Ho560 2.381 . S
O584 C570 1.275 . S
O585 Ho560 2.669 . S
O585 Ho561 2.305 . S
O585 C570 1.256 . S
O586 Ho561 2.322 . S
O586 C571 1.259 . S
O587 Ho560 2.346 . S
O587 C571 1.268 . S
O588 Ho561 2.378 . S
O588 C572 1.215 . S
O589 Ho561 2.524 . S
O589 C572 1.289 . S
O590 Ho561 2.381 . S
O590 C579 1.275 . S
O591 Ho560 2.305 . S
O591 Ho561 2.669 . S
O591 C579 1.256 . S
H592 C565 0.930 . S
H593 C566 0.931 . S
H594 C568 0.934 . S
H595 C569 0.930 . S
H596 C574 0.930 . S
H597 C575 0.931 . S
H598 C577 0.934 . S
H599 C578 0.930 . S
Ho600 C603 2.811 . S
Ho600 O620 2.322 . S
Ho600 O622 2.378 . S
Ho600 O623 2.524 . S
Ho600 O624 2.381 . S
Ho600 O625 2.669 . S
Ho600 O627 2.346 . S
Ho600 O631 2.305 . S
Ho601 C612 2.811 . S
Ho601 O621 2.346 . S
Ho601 O625 2.305 . S
Ho601 O626 2.322 . S
Ho601 O628 2.378 . S
Ho601 O629 2.524 . S
Ho601 O630 2.381 . S
Ho601 O631 2.669 . S
C602 O620 1.259 . S
C602 O621 1.268 . S
C603 Ho600 2.811 . S
C603 C604 1.488 . S
C603 O622 1.215 . S
C603 O623 1.289 . S
C604 C603 1.488 . S
C604 C605 1.348 . S
C604 C609 1.413 . S
C605 C604 1.348 . S
C605 C606 1.442 1_545 S
C605 H632 0.930 . S
C606 C605 1.442 1_565 S
C606 C607 1.381 . S
C606 H633 0.931 . S
C607 C606 1.381 . S
C607 C608 1.321 . S
C608 C607 1.321 . S
C608 C609 1.403 1_565 S
C608 H634 0.934 . S
C609 C604 1.413 . S
C609 C608 1.403 1_545 S
C609 H635 0.930 . S
C610 O624 1.275 . S
C610 O625 1.256 . S
C611 O626 1.259 . S
C611 O627 1.268 . S
C612 Ho601 2.811 . S
C612 C613 1.488 . S
C612 O628 1.215 . S
C612 O629 1.289 . S
C613 C612 1.488 . S
C613 C614 1.348 . S
C613 C618 1.413 . S
C614 C613 1.348 . S
C614 C615 1.442 . S
C614 H636 0.930 . S
C615 C614 1.442 . S
C615 C616 1.381 . S
C615 H637 0.931 . S
C616 C615 1.381 . S
C616 C617 1.321 . S
C617 C616 1.321 . S
C617 C618 1.403 . S
C617 H638 0.934 . S
C618 C613 1.413 . S
C618 C617 1.403 . S
C618 H639 0.930 . S
C619 O630 1.275 . S
C619 O631 1.256 . S
O620 Ho600 2.322 . S
O620 C602 1.259 . S
O621 Ho601 2.346 . S
O621 C602 1.268 . S
O622 Ho600 2.378 . S
O622 C603 1.215 . S
O623 Ho600 2.524 . S
O623 C603 1.289 . S
O624 Ho600 2.381 . S
O624 C610 1.275 . S
O625 Ho600 2.669 . S
O625 Ho601 2.305 . S
O625 C610 1.256 . S
O626 Ho601 2.322 . S
O626 C611 1.259 . S
O627 Ho600 2.346 . S
O627 C611 1.268 . S
O628 Ho601 2.378 . S
O628 C612 1.215 . S
O629 Ho601 2.524 . S
O629 C612 1.289 . S
O630 Ho601 2.381 . S
O630 C619 1.275 . S
O631 Ho600 2.305 . S
O631 Ho601 2.669 . S
O631 C619 1.256 . S
H632 C605 0.930 . S
H633 C606 0.931 . S
H634 C608 0.934 . S
H635 C609 0.930 . S
H636 C614 0.930 . S
H637 C615 0.931 . S
H638 C617 0.934 . S
H639 C618 0.930 . S
C11 C371 2.724 . S
C51 C331 2.724 . S
C451 C91 2.724 . S
C131 C411 2.724 . S
C522 C162 2.724 . S
C482 C202 2.724 . S
C602 C242 2.724 . S
C282 C562 2.724 . S
C99 C19 2.994 1_565 S
C139 C59 2.994 1_545 S
C250 C170 2.994 1_545 S
C210 C290 2.994 1_545 S
C419 C339 2.994 . S
C459 C379 2.994 . S
C490 C570 2.994 . S
C530 C610 2.994 . S
C219 C10 1.447 1_556 S
C179 C50 1.447 1_556 S
C90 C299 1.447 . S
C259 C130 1.447 . S
C330 C539 1.447 1_554 S
C499 C370 1.447 1_556 S
C410 C619 1.447 . S
C579 C450 1.447 . S
C42 C2 1.844 1_665 S
C122 C82 1.844 1_645 S
C211 C171 1.844 1_445 S
C251 C291 1.844 1_645 S
C362 C322 1.844 . S
C442 C402 1.844 . S
C491 C531 1.844 . S
C571 C611 1.844 . S
C7 C16 1.957 . S
C47 C56 1.957 . S
C87 C96 1.957 . S
C136 C127 1.957 . S
C176 C167 1.957 . S
C207 C216 1.957 . S
C256 C247 1.957 . S
C296 C287 1.957 . S
C336 C327 1.957 . S
C367 C376 1.957 . S
C416 C407 1.957 . S
C456 C447 1.957 . S
C496 C487 1.957 . S
C536 C527 1.957 . S
C567 C576 1.957 . S
C616 C607 1.957 . S
