# Generated by pormake.
# Topology wlb, (5)-cn, num edge types: 1
# Building blocks:
#     Node 0, Type 0, BuildingBlock: XOMCOT_clean_sbu_0, # of connection points: 5
#     Node 1, Type 0, BuildingBlock: XOMCOT_clean_sbu_0, # of connection points: 5
#     Node 2, Type 0, BuildingBlock: XOMCOT_clean_sbu_0, # of connection points: 5
#     Node 3, Type 0, BuildingBlock: XOMCOT_clean_sbu_0, # of connection points: 5
#     Node 4, Type 0, BuildingBlock: XOMCOT_clean_sbu_0, # of connection points: 5
#     Node 5, Type 0, BuildingBlock: XOMCOT_clean_sbu_0, # of connection points: 5
#     Node 6, Type 0, BuildingBlock: XOMCOT_clean_sbu_0, # of connection points: 5
#     Node 7, Type 0, BuildingBlock: XOMCOT_clean_sbu_0, # of connection points: 5
#     Node 8, Type 0, BuildingBlock: XOMCOT_clean_sbu_0, # of connection points: 5
#     Node 9, Type 0, BuildingBlock: XOMCOT_clean_sbu_0, # of connection points: 5
#     Node 10, Type 0, BuildingBlock: XOMCOT_clean_sbu_0, # of connection points: 5
#     Node 11, Type 0, BuildingBlock: XOMCOT_clean_sbu_0, # of connection points: 5
#     Node 12, Type 0, BuildingBlock: XOMCOT_clean_sbu_0, # of connection points: 5
#     Node 13, Type 0, BuildingBlock: XOMCOT_clean_sbu_0, # of connection points: 5
#     Node 14, Type 0, BuildingBlock: XOMCOT_clean_sbu_0, # of connection points: 5
#     Node 15, Type 0, BuildingBlock: XOMCOT_clean_sbu_0, # of connection points: 5
#     Node 16, Type 0, BuildingBlock: XOMCOT_clean_sbu_0, # of connection points: 5
#     Node 17, Type 0, BuildingBlock: XOMCOT_clean_sbu_0, # of connection points: 5
#     Edge 18, Type (0, 0), BuildingBlock: MIFKUJ_clean_linker_0, # of connection points: 2
#     Edge 19, Type (0, 0), BuildingBlock: MIFKUJ_clean_linker_0, # of connection points: 2
#     Edge 20, Type (0, 0), BuildingBlock: MIFKUJ_clean_linker_0, # of connection points: 2
#     Edge 21, Type (0, 0), BuildingBlock: MIFKUJ_clean_linker_0, # of connection points: 2
#     Edge 22, Type (0, 0), BuildingBlock: MIFKUJ_clean_linker_0, # of connection points: 2
#     Edge 23, Type (0, 0), BuildingBlock: MIFKUJ_clean_linker_0, # of connection points: 2
#     Edge 24, Type (0, 0), BuildingBlock: MIFKUJ_clean_linker_0, # of connection points: 2
#     Edge 25, Type (0, 0), BuildingBlock: MIFKUJ_clean_linker_0, # of connection points: 2
#     Edge 26, Type (0, 0), BuildingBlock: MIFKUJ_clean_linker_0, # of connection points: 2
#     Edge 27, Type (0, 0), BuildingBlock: MIFKUJ_clean_linker_0, # of connection points: 2
#     Edge 28, Type (0, 0), BuildingBlock: MIFKUJ_clean_linker_0, # of connection points: 2
#     Edge 29, Type (0, 0), BuildingBlock: MIFKUJ_clean_linker_0, # of connection points: 2
#     Edge 30, Type (0, 0), BuildingBlock: MIFKUJ_clean_linker_0, # of connection points: 2
#     Edge 31, Type (0, 0), BuildingBlock: MIFKUJ_clean_linker_0, # of connection points: 2
#     Edge 32, Type (0, 0), BuildingBlock: MIFKUJ_clean_linker_0, # of connection points: 2
#     Edge 33, Type (0, 0), BuildingBlock: MIFKUJ_clean_linker_0, # of connection points: 2
#     Edge 34, Type (0, 0), BuildingBlock: MIFKUJ_clean_linker_0, # of connection points: 2
#     Edge 35, Type (0, 0), BuildingBlock: MIFKUJ_clean_linker_0, # of connection points: 2
#     Edge 36, Type (0, 0), BuildingBlock: MIFKUJ_clean_linker_0, # of connection points: 2
#     Edge 37, Type (0, 0), BuildingBlock: MIFKUJ_clean_linker_0, # of connection points: 2
#     Edge 38, Type (0, 0), BuildingBlock: MIFKUJ_clean_linker_0, # of connection points: 2
#     Edge 39, Type (0, 0), BuildingBlock: MIFKUJ_clean_linker_0, # of connection points: 2
#     Edge 40, Type (0, 0), BuildingBlock: MIFKUJ_clean_linker_0, # of connection points: 2
#     Edge 41, Type (0, 0), BuildingBlock: MIFKUJ_clean_linker_0, # of connection points: 2
#     Edge 42, Type (0, 0), BuildingBlock: MIFKUJ_clean_linker_0, # of connection points: 2
#     Edge 43, Type (0, 0), BuildingBlock: MIFKUJ_clean_linker_0, # of connection points: 2
#     Edge 44, Type (0, 0), BuildingBlock: MIFKUJ_clean_linker_0, # of connection points: 2
#     Edge 45, Type (0, 0), BuildingBlock: MIFKUJ_clean_linker_0, # of connection points: 2
#     Edge 46, Type (0, 0), BuildingBlock: MIFKUJ_clean_linker_0, # of connection points: 2
#     Edge 47, Type (0, 0), BuildingBlock: MIFKUJ_clean_linker_0, # of connection points: 2
#     Edge 48, Type (0, 0), BuildingBlock: MIFKUJ_clean_linker_0, # of connection points: 2
#     Edge 49, Type (0, 0), BuildingBlock: MIFKUJ_clean_linker_0, # of connection points: 2
#     Edge 50, Type (0, 0), BuildingBlock: MIFKUJ_clean_linker_0, # of connection points: 2
#     Edge 51, Type (0, 0), BuildingBlock: MIFKUJ_clean_linker_0, # of connection points: 2
#     Edge 52, Type (0, 0), BuildingBlock: MIFKUJ_clean_linker_0, # of connection points: 2
#     Edge 53, Type (0, 0), BuildingBlock: MIFKUJ_clean_linker_0, # of connection points: 2
#     Edge 54, Type (0, 0), BuildingBlock: MIFKUJ_clean_linker_0, # of connection points: 2
#     Edge 55, Type (0, 0), BuildingBlock: MIFKUJ_clean_linker_0, # of connection points: 2
#     Edge 56, Type (0, 0), BuildingBlock: MIFKUJ_clean_linker_0, # of connection points: 2
#     Edge 57, Type (0, 0), BuildingBlock: MIFKUJ_clean_linker_0, # of connection points: 2
#     Edge 58, Type (0, 0), BuildingBlock: MIFKUJ_clean_linker_0, # of connection points: 2
#     Edge 59, Type (0, 0), BuildingBlock: MIFKUJ_clean_linker_0, # of connection points: 2
#     Edge 60, Type (0, 0), BuildingBlock: MIFKUJ_clean_linker_0, # of connection points: 2
#     Edge 61, Type (0, 0), BuildingBlock: MIFKUJ_clean_linker_0, # of connection points: 2
#     Edge 62, Type (0, 0), BuildingBlock: MIFKUJ_clean_linker_0, # of connection points: 2
# Relax obj value: 0.313
# Max RMSD: 0.198
# Mean RMSD: 0.198
data_MOF--net-wlb--node1-XOMCOT_clean_sbu_0--edge1-MIFKUJ_clean_linker_0
_symmetry_space_group_name_H-M    P1
_symmetry_Int_Tables_number       1
_symmetry_cell_setting            triclinic
loop_
_symmetry_equiv_pos_as_xyz
'x, y, z'
_cell_length_a     66.396264
_cell_length_b     66.373372
_cell_length_c     50.618548
_cell_angle_alpha  90.005078
_cell_angle_beta   89.996655
_cell_angle_gamma 120.00514
loop_
_atom_site_label
_atom_site_type_symbol
_atom_site_fract_x
_atom_site_fract_y
_atom_site_fract_z
_atom_type_partial_charge
Co0 Co 0.04319 0.19883 0.23276 0.0
C1 C 0.01644 0.22392 0.22643 0.0
C2 C 0.00755 0.20356 0.26182 0.0
C3 C 0.99408 0.21395 0.26046 0.0
N4 N 0.02115 0.2093 0.2401 0.0
N5 N -0.00015 0.22678 0.23825 0.0
H6 H 0.02453 0.23228 0.20815 0.0
H7 H 0.00721 0.19224 0.27741 0.0
C8 C 0.99701 0.15568 0.23628 0.0
O9 O 0.98883 0.16638 0.22173 0.0
N10 N 0.06517 0.1885 0.22627 0.0
C11 C 0.08385 0.19877 0.21027 0.0
C12 C 0.09412 0.18519 0.20946 0.0
C13 C 0.06421 0.16882 0.23491 0.0
N14 N 0.08167 0.16634 0.22486 0.0
C15 C 0.04236 0.21282 0.17929 0.0
C16 C 0.02102 0.16894 0.15716 0.0
C17 C 0.02646 0.1881 0.1409 0.0
C18 C 0.03762 0.21031 0.15228 0.0
C19 C 0.02601 0.17226 0.18415 0.0
N20 N 0.03517 0.19387 0.19528 0.0
H21 H 0.05213 0.23018 0.18722 0.0
H22 H 0.02299 0.15743 0.19585 0.0
H23 H 0.08927 0.2147 0.19941 0.0
H24 H 0.05101 0.15653 0.24817 0.0
O25 O 0.06788 0.23072 0.23106 0.0
O26 O 0.05625 0.20958 0.26763 0.0
O27 O 0.01862 0.16598 0.24222 0.0
C28 C 0.07001 0.22951 0.25642 0.0
H29 H 0.98115 0.21231 0.27467 0.0
H30 H 0.10914 0.18854 0.19779 0.0
H31 H 0.01351 0.15156 0.14902 0.0
H32 H 0.04267 0.22573 0.1405 0.0
Co33 Co 0.80003 0.84483 0.23162 0.0
C34 C 0.77469 0.79314 0.22303 0.0
C35 C 0.79191 0.80304 0.26046 0.0
C36 C 0.78097 0.77915 0.25831 0.0
N37 N 0.78831 0.81188 0.2381 0.0
N38 N 0.77012 0.77305 0.23475 0.0
H39 H 0.76843 0.79377 0.20371 0.0
H40 H 0.80208 0.81333 0.27709 0.0
C41 C 0.84173 0.83952 0.23466 0.0
O42 O 0.83007 0.8207 0.22023 0.0
N43 N 0.81145 0.87747 0.22603 0.0
C44 C 0.80294 0.88662 0.20861 0.0
C45 C 0.81639 0.91046 0.20959 0.0
C46 C 0.82991 0.89573 0.23742 0.0
N47 N 0.83335 0.91618 0.22769 0.0
C48 C 0.78641 0.83114 0.17763 0.0
C49 C 0.83062 0.85272 0.1565 0.0
C50 C 0.81171 0.83896 0.13989 0.0
C51 C 0.78928 0.82847 0.1508 0.0
C52 C 0.82692 0.85445 0.18335 0.0
N53 N 0.80513 0.8423 0.19403 0.0
H54 H 0.76897 0.82391 0.18526 0.0
H55 H 0.84166 0.86602 0.19534 0.0
H56 H 0.78823 0.87663 0.19575 0.0
H57 H 0.84051 0.89406 0.25254 0.0
O58 O 0.76852 0.83883 0.22998 0.0
O59 O 0.78949 0.84699 0.2666 0.0
O60 O 0.83247 0.85174 0.24094 0.0
C61 C 0.76974 0.84165 0.25546 0.0
H62 H 0.78097 0.76725 0.27292 0.0
H63 H 0.81413 0.92258 0.19741 0.0
H64 H 0.84816 0.86245 0.14883 0.0
H65 H 0.77397 0.81808 0.13891 0.0
Co66 Co 0.15198 0.95266 0.22634 0.0
C67 C 0.20339 0.98462 0.21797 0.0
C68 C 0.19134 0.98885 0.25567 0.0
C69 C 0.21477 0.00454 0.25386 0.0
N70 N 0.18408 0.97648 0.23305 0.0
N71 N 0.22224 0.00191 0.23006 0.0
H72 H 0.20407 0.97823 0.19872 0.0
H73 H 0.18018 0.98692 0.27218 0.0
C74 C 0.15244 0.99759 0.22706 0.0
O75 O 0.17163 0.00618 0.21304 0.0
N76 N 0.12007 0.92909 0.22091 0.0
C77 C 0.11181 0.91112 0.2039 0.0
C78 C 0.08787 0.89944 0.20506 0.0
C79 C 0.10127 0.92811 0.23228 0.0
N80 N 0.08129 0.91022 0.22284 0.0
C81 C 0.16724 0.95301 0.173 0.0
C82 C 0.14175 0.97063 0.14961 0.0
C83 C 0.15698 0.96694 0.13382 0.0
C84 C 0.16949 0.95752 0.14589 0.0
C85 C 0.14042 0.96629 0.17673 0.0
N86 N 0.15428 0.95908 0.18846 0.0
H87 H 0.1763 0.94492 0.18164 0.0
H88 H 0.12779 0.9683 0.18811 0.0
H89 H 0.12244 0.90718 0.1911 0.0
H90 H 0.10226 0.94034 0.24706 0.0
O91 O 0.16104 0.92921 0.22649 0.0
O92 O 0.15059 0.94138 0.26193 0.0
O93 O 0.14185 0.97617 0.23386 0.0
C94 C 0.15785 0.92806 0.25191 0.0
H95 H 0.2253 0.01727 0.26863 0.0
H96 H 0.07626 0.88463 0.19307 0.0
H97 H 0.1306 0.9765 0.14111 0.0
H98 H 0.18118 0.95387 0.13469 0.0
Co99 Co 0.20187 0.0485 0.76709 0.0
C100 C 0.22477 0.01949 0.77511 0.0
C101 C 0.2104 0.01621 0.73644 0.0
C102 C 0.22011 0.00215 0.73787 0.0
N103 N 0.21313 0.02699 0.75987 0.0
N104 N 0.22913 0.00427 0.76223 0.0
H105 H 0.22949 0.02424 0.79537 0.0
H106 H 0.20162 0.0182 0.71951 0.0
C107 C 0.15973 0.00171 0.76358 0.0
O108 O 0.17119 0.99406 0.7776 0.0
N109 N 0.19065 0.06981 0.77305 0.0
C110 C 0.19877 0.08738 0.7906 0.0
C111 C 0.18457 0.097 0.79001 0.0
C112 C 0.17184 0.069 0.76192 0.0
N113 N 0.16758 0.08532 0.77205 0.0
C114 C 0.21563 0.04746 0.82075 0.0
C115 C 0.17151 0.02578 0.84233 0.0
C116 C 0.19047 0.03052 0.85853 0.0
C117 C 0.2128 0.0419 0.84759 0.0
C118 C 0.17511 0.03122 0.81546 0.0
N119 N 0.19682 0.0405 0.80458 0.0
H120 H 0.23304 0.05703 0.81285 0.0
H121 H 0.16038 0.02826 0.80358 0.0
H122 H 0.21352 0.09234 0.80349 0.0
H123 H 0.16135 0.05654 0.74692 0.0
O124 O 0.2335 0.07378 0.76892 0.0
O125 O 0.2125 0.06165 0.73227 0.0
O126 O 0.16932 0.02329 0.75765 0.0
C127 C 0.23232 0.07572 0.7435 0.0
H128 H 0.22048 0.99125 0.7222 0.0
H129 H 0.18613 0.11088 0.8026 0.0
H130 H 0.15404 0.01773 0.8503 0.0
H131 H 0.22798 0.04675 0.85976 0.0
Co132 Co 0.95069 0.1504 0.7727 0.0
C133 C 0.97883 0.20089 0.78129 0.0
C134 C 0.99233 0.18975 0.74943 0.0
C135 C 0.00661 0.21335 0.75291 0.0
N136 N 0.97512 0.18204 0.76741 0.0
N137 N 0.99807 0.22027 0.77295 0.0
H138 H 0.9681 0.20023 0.79775 0.0
H139 H 0.99448 0.17894 0.73502 0.0
C140 C 0.97756 0.12544 0.77759 0.0
O141 O 0.96542 0.11505 0.79883 0.0
N142 N 0.92558 0.1183 0.77699 0.0
C143 C 0.90436 0.11052 0.78793 0.0
C144 C 0.89183 0.08659 0.78633 0.0
C145 C 0.92482 0.09897 0.76729 0.0
N146 N 0.90498 0.07948 0.7737 0.0
C147 C 0.94209 0.15028 0.8285 0.0
C148 C 0.98721 0.16553 0.84468 0.0
C149 C 0.97019 0.16096 0.8638 0.0
C150 C 0.94742 0.15348 0.85537 0.0
C151 C 0.9811 0.16206 0.818 0.0
N152 N 0.95854 0.15358 0.81019 0.0
H153 H 0.9249 0.146 0.82248 0.0
H154 H 0.99466 0.16652 0.80355 0.0
H155 H 0.89796 0.12129 0.79605 0.0
H156 H 0.93827 0.09889 0.75538 0.0
O157 O 0.92844 0.16086 0.77362 0.0
O158 O 0.93952 0.15022 0.73736 0.0
O159 O 0.97373 0.13969 0.76455 0.0
C160 C 0.92691 0.15803 0.74814 0.0
H161 H 0.02208 0.22453 0.74159 0.0
H162 H 0.87466 0.07528 0.79436 0.0
H163 H 0.0051 0.17165 0.85023 0.0
H164 H 0.93394 0.15071 0.86937 0.0
Co165 Co 0.85049 0.79897 0.77302 0.0
C166 C 0.79883 0.77567 0.78224 0.0
C167 C 0.80912 0.79133 0.74401 0.0
C168 C 0.78537 0.78144 0.74619 0.0
N169 N 0.81766 0.78799 0.76676 0.0
N170 N 0.77899 0.77175 0.77034 0.0
H171 H 0.79918 0.7694 0.80165 0.0
H172 H 0.81956 0.80076 0.72712 0.0
C173 C 0.84575 0.84109 0.77115 0.0
O174 O 0.82633 0.82923 0.78452 0.0
N175 N 0.883 0.8097 0.77811 0.0
C176 C 0.89234 0.80111 0.79517 0.0
C177 C 0.91618 0.81441 0.79354 0.0
C178 C 0.90108 0.82795 0.76626 0.0
N179 N 0.92166 0.8313 0.77539 0.0
C180 C 0.83668 0.78403 0.82662 0.0
C181 C 0.85891 0.82776 0.84924 0.0
C182 C 0.84502 0.80843 0.86508 0.0
C183 C 0.83418 0.78629 0.85365 0.0
C184 C 0.86049 0.82471 0.82218 0.0
N185 N 0.84814 0.80317 0.81084 0.0
H186 H 0.82898 0.76677 0.81829 0.0
H187 H 0.872 0.83973 0.81055 0.0
H188 H 0.8825 0.78651 0.80822 0.0
H189 H 0.89916 0.8385 0.7513 0.0
O190 O 0.84386 0.76718 0.7733 0.0
O191 O 0.85228 0.78925 0.73753 0.0
O192 O 0.8581 0.83192 0.76517 0.0
C193 C 0.84639 0.76904 0.7478 0.0
H194 H 0.77384 0.78192 0.73141 0.0
H195 H 0.92848 0.81217 0.8054 0.0
H196 H 0.86824 0.84508 0.85763 0.0
H197 H 0.82408 0.77088 0.86556 0.0
Co198 Co 0.71405 0.53487 0.55882 0.0
C199 C 0.68501 0.55568 0.5475 0.0
C200 C 0.6683 0.52745 0.57512 0.0
C201 C 0.65323 0.53542 0.56919 0.0
N202 N 0.68805 0.54003 0.56126 0.0
N203 N 0.66383 0.55313 0.55187 0.0
H204 H 0.69759 0.56788 0.5336 0.0
H205 H 0.66484 0.5131 0.58804 0.0
C206 C 0.69204 0.48358 0.55155 0.0
O207 O 0.70736 0.48776 0.53281 0.0
N208 N 0.74039 0.52964 0.55748 0.0
C209 C 0.7608 0.54135 0.54444 0.0
C210 C 0.77392 0.53098 0.54955 0.0
C211 C 0.74218 0.51335 0.5716 0.0
N212 N 0.76198 0.51314 0.56637 0.0
C213 C 0.72586 0.54797 0.50417 0.0
C214 C 0.68358 0.5148 0.48356 0.0
C215 C 0.70085 0.53034 0.46632 0.0
C216 C 0.72221 0.54716 0.47691 0.0
C217 C 0.68806 0.51607 0.5106 0.0
N218 N 0.70938 0.53184 0.52061 0.0
H219 H 0.74146 0.56236 0.51207 0.0
H220 H 0.67397 0.50479 0.52354 0.0
H221 H 0.7663 0.55656 0.53237 0.0
H222 H 0.729 0.50159 0.58526 0.0
O223 O 0.73493 0.56793 0.56083 0.0
O224 O 0.72167 0.54415 0.59534 0.0
O225 O 0.69218 0.5004 0.56408 0.0
C226 C 0.7343 0.56526 0.58633 0.0
H227 H 0.63575 0.52856 0.57675 0.0
H228 H 0.79065 0.53584 0.54091 0.0
H229 H 0.66663 0.50188 0.47626 0.0
H230 H 0.73561 0.56018 0.46436 0.0
Co231 Co 0.47059 0.17946 0.56686 0.0
C232 C 0.44692 0.12773 0.55942 0.0
C233 C 0.46356 0.13872 0.59706 0.0
C234 C 0.45301 0.11482 0.59568 0.0
N235 N 0.46002 0.14687 0.57414 0.0
N236 N 0.44252 0.10801 0.57197 0.0
H237 H 0.44083 0.12783 0.53983 0.0
H238 H 0.47326 0.14947 0.61365 0.0
C239 C 0.51357 0.17615 0.57038 0.0
O240 O 0.50221 0.15647 0.55733 0.0
N241 N 0.48082 0.21178 0.56056 0.0
C242 C 0.47035 0.22039 0.54516 0.0
C243 C 0.48376 0.2443 0.54503 0.0
C244 C 0.50036 0.23038 0.56954 0.0
N245 N 0.50264 0.25046 0.56025 0.0
C246 C 0.45701 0.16468 0.51305 0.0
C247 C 0.5013 0.18624 0.49203 0.0
C248 C 0.48251 0.17175 0.47568 0.0
C249 C 0.46003 0.16139 0.4864 0.0
C250 C 0.49745 0.18877 0.51862 0.0
N251 N 0.47568 0.17653 0.52936 0.0
H252 H 0.43953 0.1572 0.52067 0.0
H253 H 0.51208 0.20093 0.53034 0.0
H254 H 0.45438 0.21 0.53432 0.0
H255 H 0.51276 0.22933 0.58248 0.0
O256 O 0.43861 0.17219 0.56541 0.0
O257 O 0.46011 0.1819 0.60173 0.0
O258 O 0.50353 0.18778 0.57601 0.0
C259 C 0.44009 0.1757 0.59078 0.0
H260 H 0.4529 0.10339 0.61099 0.0
H261 H 0.48037 0.25618 0.53383 0.0
H262 H 0.51885 0.19585 0.48433 0.0
H263 H 0.44483 0.15054 0.47452 0.0
Co264 Co 0.82764 0.29679 0.57049 0.0
C265 C 0.87959 0.32286 0.56657 0.0
C266 C 0.86725 0.33245 0.60073 0.0
C267 C 0.89119 0.34554 0.60039 0.0
N268 N 0.85993 0.31871 0.57907 0.0
N269 N 0.89877 0.33926 0.57899 0.0
H270 H 0.88026 0.31449 0.54867 0.0
H271 H 0.85589 0.33316 0.61554 0.0
C272 C 0.83121 0.34313 0.5727 0.0
O273 O 0.85053 0.35087 0.55907 0.0
N274 N 0.79558 0.27472 0.56272 0.0
C275 C 0.78815 0.25693 0.54555 0.0
C276 C 0.76431 0.24586 0.54421 0.0
C277 C 0.77623 0.27432 0.57163 0.0
N278 N 0.75679 0.25678 0.56059 0.0
C279 C 0.8439 0.29746 0.51755 0.0
C280 C 0.8219 0.31883 0.49412 0.0
C281 C 0.83551 0.31288 0.47832 0.0
C282 C 0.84628 0.3017 0.49038 0.0
C283 C 0.81979 0.31401 0.52113 0.0
N284 N 0.83193 0.30481 0.53295 0.0
H285 H 0.85118 0.28759 0.526 0.0
H286 H 0.80782 0.31719 0.53227 0.0
H287 H 0.79936 0.25263 0.53434 0.0
H288 H 0.7764 0.2866 0.58582 0.0
O289 O 0.83483 0.27205 0.57002 0.0
O290 O 0.82411 0.28381 0.60558 0.0
O291 O 0.81919 0.32152 0.57862 0.0
C292 C 0.83071 0.27006 0.59525 0.0
H293 H 0.90217 0.35857 0.61468 0.0
H294 H 0.75344 0.2313 0.5315 0.0
H295 H 0.8128 0.32706 0.4858 0.0
H296 H 0.85595 0.29563 0.47888 0.0
Co297 Co 0.86688 0.38384 0.10846 0.0
C298 C 0.8917 0.35701 0.11722 0.0
C299 C 0.87262 0.34834 0.08087 0.0
C300 C 0.88257 0.33456 0.08332 0.0
N301 N 0.87792 0.36209 0.1024 0.0
N302 N 0.89455 0.34013 0.10615 0.0
H303 H 0.8991 0.36476 0.13599 0.0
H304 H 0.86171 0.34796 0.06478 0.0
C305 C 0.82485 0.33691 0.10913 0.0
O306 O 0.83691 0.33055 0.12404 0.0
N307 N 0.85602 0.40553 0.11354 0.0
C308 C 0.86627 0.42492 0.12844 0.0
C309 C 0.85286 0.43535 0.12755 0.0
C310 C 0.83654 0.40431 0.10381 0.0
N311 N 0.83419 0.42235 0.11211 0.0
C312 C 0.88319 0.38693 0.16173 0.0
C313 C 0.84008 0.36399 0.18561 0.0
C314 C 0.85994 0.37091 0.20125 0.0
C315 C 0.88177 0.38326 0.18897 0.0
C316 C 0.84238 0.36854 0.15853 0.0
N317 N 0.86364 0.37812 0.1465 0.0
H318 H 0.90019 0.3968 0.15287 0.0
H319 H 0.82694 0.36436 0.14738 0.0
H320 H 0.88218 0.43083 0.13951 0.0
H321 H 0.8244 0.39058 0.09094 0.0
O322 O 0.89851 0.40915 0.10783 0.0
O323 O 0.87587 0.39484 0.07261 0.0
O324 O 0.83397 0.35802 0.10132 0.0
C325 C 0.89614 0.40959 0.08241 0.0
H326 H 0.881 0.32136 0.06955 0.0
H327 H 0.85625 0.45094 0.13806 0.0
H328 H 0.82277 0.35492 0.19398 0.0
H329 H 0.89772 0.39027 0.20024 0.0
Co330 Co 0.6176 0.48872 0.10099 0.0
C331 C 0.64456 0.54073 0.10501 0.0
C332 C 0.65234 0.52813 0.06976 0.0
C333 C 0.66598 0.55204 0.07022 0.0
N334 N 0.63933 0.52098 0.09198 0.0
N335 N 0.6609 0.5598 0.09238 0.0
H336 H 0.63719 0.54158 0.12356 0.0
H337 H 0.65231 0.51665 0.05458 0.0
C338 C 0.664 0.49225 0.09863 0.0
O339 O 0.67222 0.51231 0.11085 0.0
N340 N 0.59588 0.45662 0.10894 0.0
C341 C 0.57764 0.44856 0.1255 0.0
C342 C 0.56739 0.42472 0.12683 0.0
C343 C 0.59651 0.43773 0.10033 0.0
N344 N 0.57935 0.4179 0.1111 0.0
C345 C 0.61923 0.50621 0.15357 0.0
C346 C 0.64311 0.48677 0.17679 0.0
C347 C 0.63896 0.50216 0.19167 0.0
C348 C 0.62618 0.51136 0.17992 0.0
C349 C 0.63598 0.48229 0.15045 0.0
N350 N 0.62595 0.49356 0.13846 0.0
H351 H 0.60871 0.51281 0.14523 0.0
H352 H 0.63842 0.46956 0.13989 0.0
H353 H 0.5724 0.4593 0.13619 0.0
H354 H 0.60962 0.43857 0.08701 0.0
O355 O 0.59277 0.49574 0.10149 0.0
O356 O 0.60434 0.48479 0.06597 0.0
O357 O 0.64233 0.48028 0.09309 0.0
C358 C 0.59063 0.49144 0.0763 0.0
H359 H 0.67872 0.56283 0.05559 0.0
H360 H 0.5523 0.41339 0.13858 0.0
H361 H 0.65154 0.47799 0.18549 0.0
H362 H 0.62182 0.52273 0.19075 0.0
Co363 Co 0.51695 0.13474 0.10796 0.0
C364 C 0.46645 0.11676 0.12125 0.0
C365 C 0.47681 0.13446 0.08409 0.0
C366 C 0.45375 0.12747 0.08816 0.0
N367 N 0.48491 0.12793 0.10493 0.0
N368 N 0.44738 0.1165 0.11163 0.0
H369 H 0.46643 0.10876 0.13966 0.0
H370 H 0.48718 0.14409 0.06725 0.0
C371 C 0.51859 0.17982 0.11423 0.0
O372 O 0.50114 0.16869 0.13069 0.0
N373 N 0.54873 0.14166 0.10974 0.0
C374 C 0.55667 0.12892 0.12176 0.0
C375 C 0.58053 0.14053 0.11968 0.0
C376 C 0.56769 0.16073 0.10045 0.0
N377 N 0.58746 0.16061 0.10638 0.0
C378 C 0.50422 0.11816 0.16129 0.0
C379 C 0.53267 0.16002 0.18618 0.0
C380 C 0.51676 0.14101 0.20124 0.0
C381 C 0.5029 0.11968 0.18866 0.0
C382 C 0.53299 0.15781 0.15874 0.0
N383 N 0.51742 0.13755 0.14642 0.0
H384 H 0.49405 0.10139 0.15198 0.0
H385 H 0.54566 0.1725 0.14744 0.0
H386 H 0.54591 0.11256 0.13176 0.0
H387 H 0.56705 0.17474 0.09032 0.0
O388 O 0.50653 0.10203 0.10568 0.0
O389 O 0.51544 0.12556 0.07124 0.0
O390 O 0.52766 0.16897 0.10298 0.0
C391 C 0.50809 0.1046 0.0802 0.0
H392 H 0.44272 0.13072 0.0752 0.0
H393 H 0.59183 0.13462 0.12755 0.0
H394 H 0.54431 0.17657 0.19543 0.0
H395 H 0.49115 0.10434 0.19989 0.0
Co396 Co 0.38085 0.86648 0.89536 0.0
C397 C 0.35144 0.88696 0.88436 0.0
C398 C 0.33857 0.86357 0.91741 0.0
C399 C 0.3235 0.87173 0.91252 0.0
N400 N 0.35589 0.87301 0.89956 0.0
N401 N 0.3316 0.88636 0.89166 0.0
H402 H 0.36201 0.89651 0.86757 0.0
H403 H 0.33682 0.8513 0.93255 0.0
C404 C 0.35589 0.81485 0.89007 0.0
O405 O 0.36978 0.8177 0.87015 0.0
N406 N 0.40635 0.86 0.89228 0.0
C407 C 0.42689 0.87233 0.87964 0.0
C408 C 0.43967 0.86134 0.88284 0.0
C409 C 0.40783 0.8427 0.90456 0.0
N410 N 0.42746 0.84248 0.89823 0.0
C411 C 0.38988 0.87623 0.83964 0.0
C412 C 0.34553 0.84459 0.8227 0.0
C413 C 0.36226 0.85838 0.80388 0.0
C414 C 0.38467 0.87449 0.81271 0.0
C415 C 0.35152 0.84684 0.84939 0.0
N416 N 0.37376 0.86183 0.8576 0.0
H417 H 0.40659 0.88993 0.84601 0.0
H418 H 0.33791 0.83702 0.86355 0.0
H419 H 0.43276 0.8885 0.8693 0.0
H420 H 0.39474 0.83036 0.91787 0.0
O421 O 0.4027 0.89936 0.89489 0.0
O422 O 0.39108 0.87753 0.931 0.0
O423 O 0.35811 0.83249 0.90287 0.0
C424 C 0.40361 0.89807 0.92044 0.0
H425 H 0.30772 0.86709 0.92337 0.0
H426 H 0.45639 0.86656 0.87394 0.0
H427 H 0.32772 0.83264 0.81701 0.0
H428 H 0.39808 0.88587 0.799 0.0
Co429 Co 0.12874 0.51415 0.89353 0.0
C430 C 0.10497 0.46207 0.88623 0.0
C431 C 0.12825 0.4745 0.91923 0.0
C432 C 0.11909 0.45082 0.91741 0.0
N433 N 0.11995 0.48173 0.89923 0.0
N434 N 0.10445 0.44313 0.89669 0.0
H435 H 0.09475 0.46117 0.86936 0.0
H436 H 0.14057 0.48583 0.9339 0.0
C437 C 0.17264 0.51297 0.88957 0.0
O438 O 0.16111 0.49489 0.874 0.0
N439 N 0.13766 0.54641 0.88915 0.0
C440 C 0.12595 0.55507 0.87614 0.0
C441 C 0.13903 0.57903 0.87661 0.0
C442 C 0.15758 0.56505 0.89733 0.0
N443 N 0.15894 0.58518 0.8898 0.0
C444 C 0.11209 0.4987 0.84076 0.0
C445 C 0.15433 0.52436 0.81552 0.0
C446 C 0.13506 0.50815 0.80101 0.0
C447 C 0.11359 0.49567 0.81372 0.0
C448 C 0.15211 0.5264 0.84269 0.0
N449 N 0.13157 0.51223 0.85535 0.0
H450 H 0.09516 0.49015 0.84991 0.0
H451 H 0.16702 0.5393 0.85352 0.0
H452 H 0.10936 0.5447 0.86643 0.0
H453 H 0.17096 0.56396 0.90836 0.0
O454 O 0.09658 0.50574 0.89487 0.0
O455 O 0.11977 0.51513 0.92976 0.0
O456 O 0.16243 0.52328 0.89936 0.0
C457 C 0.0991 0.50845 0.92029 0.0
H458 H 0.12289 0.44009 0.93023 0.0
H459 H 0.13466 0.59096 0.86712 0.0
H460 H 0.17103 0.53498 0.80606 0.0
H461 H 0.09806 0.4839 0.80277 0.0
Co462 Co 0.48202 0.61675 0.89019 0.0
C463 C 0.53335 0.64459 0.87918 0.0
C464 C 0.52415 0.65201 0.917 0.0
C465 C 0.54784 0.66571 0.9138 0.0
N466 N 0.51496 0.63896 0.89511 0.0
N467 N 0.55352 0.66108 0.8899 0.0
H468 H 0.53248 0.63685 0.86031 0.0
H469 H 0.51418 0.65185 0.93398 0.0
C470 C 0.48658 0.66351 0.89038 0.0
O471 O 0.50496 0.67013 0.87535 0.0
N472 N 0.44944 0.59448 0.88616 0.0
C473 C 0.44053 0.57457 0.87227 0.0
C474 C 0.4167 0.56379 0.87324 0.0
C475 C 0.43101 0.59564 0.8954 0.0
N476 N 0.41066 0.57709 0.88766 0.0
C477 C 0.49437 0.61431 0.83622 0.0
C478 C 0.4715 0.63525 0.81389 0.0
C479 C 0.4853 0.62986 0.79783 0.0
C480 C 0.49638 0.61874 0.80912 0.0
C481 C 0.47041 0.63095 0.841 0.0
N482 N 0.48325 0.62224 0.85218 0.0
H483 H 0.50222 0.60486 0.84446 0.0
H484 H 0.45905 0.63451 0.85285 0.0
H485 H 0.45068 0.56843 0.86189 0.0
H486 H 0.43248 0.61001 0.90698 0.0
O487 O 0.48902 0.59182 0.8904 0.0
O488 O 0.48113 0.6061 0.92598 0.0
O489 O 0.47455 0.64229 0.89779 0.0
C490 C 0.48675 0.59151 0.91592 0.0
H491 H 0.55982 0.67846 0.92771 0.0
H492 H 0.40482 0.54736 0.86401 0.0
H493 H 0.46196 0.64308 0.80565 0.0
H494 H 0.50634 0.61336 0.79705 0.0
Co495 Co 0.53102 0.71322 0.43184 0.0
C496 C 0.55582 0.68591 0.43778 0.0
C497 C 0.53509 0.67736 0.40271 0.0
C498 C 0.54525 0.66369 0.40359 0.0
N499 N 0.54118 0.69089 0.42451 0.0
N500 N 0.55829 0.6692 0.42562 0.0
H501 H 0.56446 0.69388 0.45597 0.0
H502 H 0.5237 0.67724 0.38735 0.0
C503 C 0.48774 0.66737 0.42951 0.0
O504 O 0.49871 0.65944 0.44396 0.0
N505 N 0.52091 0.7354 0.43793 0.0
C506 C 0.52918 0.75242 0.45616 0.0
C507 C 0.51577 0.76288 0.45565 0.0
C508 C 0.50281 0.73577 0.42644 0.0
N509 N 0.49913 0.75236 0.43699 0.0
C510 C 0.54447 0.71112 0.48548 0.0
C511 C 0.50053 0.69192 0.50711 0.0
C512 C 0.51905 0.69543 0.5235 0.0
C513 C 0.54138 0.70563 0.51235 0.0
C514 C 0.50438 0.69729 0.48027 0.0
N515 N 0.5259 0.70528 0.46934 0.0
H516 H 0.56194 0.72042 0.47779 0.0
H517 H 0.49003 0.69546 0.46847 0.0
H518 H 0.54344 0.75639 0.46946 0.0
H519 H 0.49245 0.72396 0.41088 0.0
O520 O 0.56301 0.73777 0.43342 0.0
O521 O 0.54164 0.72601 0.39697 0.0
O522 O 0.49803 0.68881 0.42277 0.0
C523 C 0.56166 0.73971 0.40801 0.0
H524 H 0.54331 0.65079 0.38917 0.0
H525 H 0.51768 0.77662 0.46874 0.0
H526 H 0.4832 0.68549 0.51496 0.0
H527 H 0.55645 0.70935 0.52414 0.0
Co528 Co 0.28452 0.82014 0.43658 0.0
C529 C 0.31946 0.87048 0.44699 0.0
C530 C 0.31153 0.86367 0.4059 0.0
C531 C 0.3263 0.88721 0.40913 0.0
N532 N 0.30683 0.85305 0.42975 0.0
N533 N 0.3313 0.89131 0.43499 0.0
H534 H 0.32049 0.86837 0.46792 0.0
H535 H 0.30446 0.85513 0.38725 0.0
C536 C 0.33062 0.82264 0.43512 0.0
O537 O 0.33872 0.84141 0.44976 0.0
N538 N 0.26233 0.7878 0.4428 0.0
C539 C 0.24309 0.77951 0.45779 0.0
C540 C 0.23245 0.75565 0.45833 0.0
C541 C 0.26322 0.76897 0.43441 0.0
N542 N 0.24518 0.74897 0.44375 0.0
C543 C 0.28523 0.83647 0.48923 0.0
C544 C 0.30438 0.81255 0.51328 0.0
C545 C 0.30053 0.82801 0.52831 0.0
C546 C 0.29042 0.83974 0.51615 0.0
C547 C 0.29942 0.81022 0.48628 0.0
N548 N 0.29138 0.82326 0.47426 0.0
H549 H 0.27748 0.84567 0.48007 0.0
H550 H 0.30199 0.79782 0.47513 0.0
H551 H 0.23737 0.7901 0.46793 0.0
H552 H 0.27705 0.76998 0.42223 0.0
O553 O 0.25975 0.82732 0.43691 0.0
O554 O 0.27208 0.81727 0.4013 0.0
O555 O 0.30922 0.81175 0.42836 0.0
C556 C 0.2581 0.82359 0.41159 0.0
H557 H 0.33281 0.90028 0.39374 0.0
H558 H 0.21652 0.74423 0.46873 0.0
H559 H 0.31154 0.80266 0.52222 0.0
H560 H 0.28655 0.8513 0.52735 0.0
Co561 Co 0.17852 0.46575 0.43615 0.0
C562 C 0.12653 0.4396 0.44127 0.0
C563 C 0.13844 0.46265 0.40807 0.0
C564 C 0.11461 0.45256 0.40957 0.0
N565 N 0.14602 0.45514 0.42853 0.0
N566 N 0.10731 0.43803 0.43039 0.0
H567 H 0.12595 0.4299 0.45851 0.0
H568 H 0.14962 0.47533 0.3936 0.0
C569 C 0.1749 0.50851 0.43737 0.0
O570 O 0.15599 0.49646 0.45157 0.0
N571 N 0.21084 0.4764 0.44249 0.0
C572 C 0.21989 0.46781 0.45996 0.0
C573 C 0.24376 0.48143 0.45922 0.0
C574 C 0.2291 0.4949 0.43127 0.0
N575 N 0.2495 0.49849 0.44121 0.0
C576 C 0.16188 0.44926 0.48881 0.0
C577 C 0.18327 0.49221 0.51307 0.0
C578 C 0.16743 0.4727 0.52771 0.0
C579 C 0.15727 0.45086 0.5154 0.0
C580 C 0.18707 0.48977 0.48644 0.0
N581 N 0.17477 0.46876 0.474 0.0
H582 H 0.15491 0.43222 0.48015 0.0
H583 H 0.19994 0.50489 0.47587 0.0
H584 H 0.20981 0.45305 0.47273 0.0
H585 H 0.22741 0.5055 0.41618 0.0
O586 O 0.17192 0.43405 0.43581 0.0
O587 O 0.18152 0.45686 0.40055 0.0
O588 O 0.18637 0.49893 0.42924 0.0
C589 C 0.1755 0.43649 0.41048 0.0
H590 H 0.10357 0.45596 0.3968 0.0
H591 H 0.25586 0.47929 0.47156 0.0
H592 H 0.19284 0.50924 0.52212 0.0
H593 H 0.1456 0.43509 0.52598 0.0
H594 H 0.9345 0.36072 0.13403 0.0
H595 H 0.95291 0.34129 0.15653 0.0
H596 H 0.89868 0.27493 0.12804 0.0
H597 H 0.88049 0.29433 0.10505 0.0
H598 H 0.91811 0.29255 0.19354 0.0
H599 H 0.93024 0.2727 0.10188 0.0
H600 H 0.94392 0.28434 0.05611 0.0
H601 H 0.01104 0.33596 0.08485 0.0
H602 H 0.99757 0.32481 0.13082 0.0
H603 H 0.9544 0.21402 0.23875 0.0
H604 H 0.93649 0.23414 0.21702 0.0
H605 H 0.00447 0.28917 0.19336 0.0
H606 H 0.02216 0.26847 0.21415 0.0
H607 H 0.97791 0.27801 0.15363 0.0
H608 H 0.96993 0.29496 0.24358 0.0
H609 H 0.95855 0.28712 0.29046 0.0
H610 H 0.88677 0.24608 0.26807 0.0
H611 H 0.89774 0.25342 0.22102 0.0
C612 C 0.92668 0.34202 0.13242 0.0
C613 C 0.90618 0.32898 0.11779 0.0
C614 C 0.93718 0.331 0.14517 0.0
C615 C 0.92716 0.30678 0.1437 0.0
C616 C 0.90675 0.29369 0.12905 0.0
C617 C 0.89647 0.30476 0.1159 0.0
C618 C 0.93754 0.29512 0.15849 0.0
C619 C 0.93096 0.289 0.18487 0.0
C620 C 0.9548 0.29138 0.14724 0.0
C621 C 0.9628 0.29819 0.11971 0.0
C622 C 0.9478 0.28674 0.09842 0.0
C623 C 0.95555 0.29319 0.07245 0.0
C624 C 0.97831 0.31095 0.06757 0.0
C625 C 0.99339 0.32226 0.08866 0.0
C626 C 0.98571 0.31589 0.11466 0.0
C627 C 0.96544 0.23059 0.22924 0.0
C628 C 0.98959 0.23975 0.22802 0.0
C629 C 0.95525 0.24212 0.21688 0.0
C630 C 0.96913 0.26332 0.20371 0.0
C631 C 0.99336 0.27279 0.20326 0.0
C632 C 0.00348 0.26104 0.21514 0.0
C633 C 0.95839 0.27496 0.18904 0.0
C634 C 0.96499 0.2813 0.16258 0.0
C635 C 0.94133 0.27916 0.20045 0.0
C636 C 0.9347 0.27452 0.22874 0.0
C637 C 0.95174 0.28408 0.24863 0.0
C638 C 0.94536 0.27976 0.27524 0.0
C639 C 0.92196 0.26604 0.28223 0.0
C640 C 0.90489 0.25665 0.26262 0.0
C641 C 0.91118 0.2609 0.23598 0.0
H642 H 0.91705 0.26276 0.30284 0.0
H643 H 0.98429 0.3159 0.04746 0.0
H644 H 0.70639 0.59247 0.08815 0.0
H645 H 0.72631 0.62967 0.11192 0.0
H646 H 0.66053 0.61682 0.1434 0.0
H647 H 0.64071 0.57966 0.11997 0.0
H648 H 0.72323 0.6696 0.11427 0.0
H649 H 0.66625 0.62996 0.20628 0.0
H650 H 0.64197 0.59096 0.22571 0.0
H651 H 0.68697 0.56846 0.19261 0.0
H652 H 0.71154 0.60734 0.17299 0.0
H653 H 0.73484 0.7577 0.19955 0.0
H654 H 0.71709 0.72094 0.17548 0.0
H655 H 0.75868 0.69944 0.21962 0.0
H656 H 0.77689 0.73652 0.24361 0.0
H657 H 0.71228 0.66339 0.21164 0.0
H658 H 0.77689 0.72075 0.16135 0.0
H659 H 0.80041 0.75919 0.14044 0.0
H660 H 0.7431 0.74591 0.08997 0.0
H661 H 0.71908 0.70754 0.11091 0.0
C662 C 0.69619 0.59788 0.09969 0.0
C663 C 0.67208 0.58312 0.10257 0.0
C664 C 0.70756 0.61905 0.11329 0.0
C665 C 0.69493 0.62569 0.12985 0.0
C666 C 0.67065 0.61173 0.13119 0.0
C667 C 0.65935 0.59056 0.11783 0.0
C668 C 0.70711 0.64636 0.14711 0.0
C669 C 0.72092 0.66827 0.13554 0.0
C670 C 0.70441 0.64448 0.17492 0.0
C671 C 0.69067 0.62154 0.1881 0.0
C672 C 0.67108 0.61675 0.20334 0.0
C673 C 0.65717 0.59462 0.21421 0.0
C674 C 0.66286 0.57722 0.21026 0.0
C675 C 0.68254 0.58194 0.19555 0.0
C676 C 0.69644 0.604 0.18452 0.0
C677 C 0.74023 0.74518 0.20418 0.0
C678 C 0.75758 0.7502 0.22316 0.0
C679 C 0.72998 0.72414 0.19051 0.0
C680 C 0.73687 0.7077 0.1955 0.0
C681 C 0.7532 0.712 0.21546 0.0
C682 C 0.76353 0.73313 0.22918 0.0
C683 C 0.72794 0.68671 0.17871 0.0
C684 C 0.71476 0.66472 0.19039 0.0
C685 C 0.7315 0.6885 0.15101 0.0
C686 C 0.74612 0.71132 0.13785 0.0
C687 C 0.76925 0.72607 0.14589 0.0
C688 C 0.78268 0.74785 0.13403 0.0
C689 C 0.77324 0.75501 0.11393 0.0
C690 C 0.75038 0.74035 0.10556 0.0
C691 C 0.73686 0.71857 0.1174 0.0
H692 H 0.78365 0.77191 0.10482 0.0
H693 H 0.65212 0.56015 0.21879 0.0
H694 H 0.40527 0.09809 0.088 0.0
H695 H 0.36739 0.08118 0.10985 0.0
H696 H 0.40122 0.09679 0.18594 0.0
H697 H 0.43905 0.11362 0.1642 0.0
H698 H 0.36581 0.0536 0.18488 0.0
H699 H 0.37765 0.12852 0.16157 0.0
H700 H 0.38644 0.16148 0.13207 0.0
H701 H 0.32672 0.11739 0.08468 0.0
H702 H 0.31775 0.08406 0.11367 0.0
H703 H 0.2629 0.02412 0.25717 0.0
H704 H 0.30202 0.04646 0.23855 0.0
H705 H 0.27311 0.03192 0.1599 0.0
H706 H 0.23402 0.01041 0.17833 0.0
H707 H 0.30692 0.07652 0.16451 0.0
H708 H 0.29679 0.0012 0.18684 0.0
H709 H 0.28828 0.96849 0.21664 0.0
H710 H 0.34538 0.01418 0.2665 0.0
H711 H 0.35402 0.04724 0.23717 0.0
C712 C 0.40461 0.09812 0.10936 0.0
C713 C 0.4251 0.10707 0.12437 0.0
C714 C 0.38299 0.08849 0.12184 0.0
C715 C 0.38151 0.08792 0.14953 0.0
C716 C 0.40196 0.097 0.16455 0.0
C717 C 0.42355 0.1065 0.1521 0.0
C718 C 0.35859 0.07707 0.16287 0.0
C719 C 0.35308 0.05888 0.18075 0.0
C720 C 0.34185 0.0837 0.15712 0.0
C721 C 0.34715 0.10373 0.13967 0.0
C722 C 0.36649 0.1258 0.14474 0.0
C723 C 0.37149 0.14456 0.12812 0.0
C724 C 0.35718 0.14152 0.10648 0.0
C725 C 0.33781 0.11971 0.10144 0.0
C726 C 0.33274 0.10089 0.11797 0.0
C727 C 0.26486 0.02588 0.23593 0.0
C728 C 0.24533 0.01526 0.21925 0.0
C729 C 0.28723 0.0385 0.22531 0.0
C730 C 0.29046 0.04058 0.19783 0.0
C731 C 0.271 0.03044 0.18116 0.0
C732 C 0.24866 0.0179 0.19174 0.0
C733 C 0.31412 0.05294 0.18628 0.0
C734 C 0.31975 0.0714 0.16874 0.0
C735 C 0.33101 0.04662 0.1924 0.0
C736 C 0.32589 0.02673 0.20997 0.0
C737 C 0.30741 0.0043 0.20427 0.0
C738 C 0.30259 0.98569 0.22106 0.0
C739 C 0.31624 0.98927 0.24349 0.0
C740 C 0.33479 0.01145 0.24914 0.0
C741 C 0.33967 0.03012 0.23244 0.0
H742 H 0.31248 0.97484 0.25646 0.0
H743 H 0.36108 0.15607 0.09364 0.0
H744 H 0.22218 0.96199 0.74717 0.0
H745 H 0.23873 0.9401 0.76761 0.0
H746 H 0.277 0.99646 0.82227 0.0
H747 H 0.26085 0.01855 0.80177 0.0
H748 H 0.28311 0.94857 0.77496 0.0
H749 H 0.27477 0.9732 0.88296 0.0
H750 H 0.24959 0.98311 0.9092 0.0
H751 H 0.19364 0.94588 0.85436 0.0
H752 H 0.21833 0.93544 0.82803 0.0
H753 H 0.35254 0.92581 0.86237 0.0
H754 H 0.33363 0.94376 0.83842 0.0
H755 H 0.2668 0.89045 0.86704 0.0
H756 H 0.28555 0.87225 0.89085 0.0
H757 H 0.2711 0.93256 0.87118 0.0
H758 H 0.28285 0.8887 0.80466 0.0
H759 H 0.30489 0.8752 0.77796 0.0
H760 H 0.34824 0.94441 0.74826 0.0
H761 H 0.32677 0.95845 0.77517 0.0
C762 C 0.23438 0.96988 0.76327 0.0
C763 C 0.23998 0.99194 0.77301 0.0
C764 C 0.24377 0.95732 0.77497 0.0
C765 C 0.2588 0.96654 0.79667 0.0
C766 C 0.26507 0.98886 0.80584 0.0
C767 C 0.25574 0.00142 0.79416 0.0
C768 C 0.26747 0.95265 0.81033 0.0
C769 C 0.28051 0.94504 0.79598 0.0
C770 C 0.26354 0.94759 0.83763 0.0
C771 C 0.2485 0.95372 0.8534 0.0
C772 C 0.25707 0.96706 0.87655 0.0
C773 C 0.24288 0.97278 0.89143 0.0
C774 C 0.22005 0.96515 0.88342 0.0
C775 C 0.21135 0.95182 0.8605 0.0
C776 C 0.22545 0.94603 0.84557 0.0
C777 C 0.33381 0.91779 0.86343 0.0
C778 C 0.32056 0.89753 0.87847 0.0
C779 C 0.32304 0.92808 0.84974 0.0
C780 C 0.2988 0.91826 0.8507 0.0
C781 C 0.28554 0.89829 0.86605 0.0
C782 C 0.29631 0.88798 0.87975 0.0
C783 C 0.28733 0.92903 0.83599 0.0
C784 C 0.27372 0.93605 0.85014 0.0
C785 C 0.29034 0.93308 0.80842 0.0
C786 C 0.3033 0.92468 0.79214 0.0
C787 C 0.29721 0.9011 0.79262 0.0
C788 C 0.30959 0.89333 0.77742 0.0
C789 C 0.32797 0.90894 0.76145 0.0
C790 C 0.33401 0.93235 0.76065 0.0
C791 C 0.32173 0.94022 0.77587 0.0
H792 H 0.33748 0.9029 0.74964 0.0
H793 H 0.20906 0.96948 0.89504 0.0
H794 H 0.12059 0.4132 0.89292 0.0
H795 H 0.10093 0.37465 0.872 0.0
H796 H 0.04108 0.38197 0.85641 0.0
H797 H 0.06094 0.42082 0.87674 0.0
H798 H 0.04011 0.33419 0.88331 0.0
H799 H 0.05866 0.38841 0.80775 0.0
H800 H 0.08648 0.42347 0.78306 0.0
H801 H 0.13328 0.39671 0.77649 0.0
H802 H 0.10587 0.36167 0.80156 0.0
H803 H 0.97534 0.23948 0.79713 0.0
H804 H 0.99273 0.27752 0.81867 0.0
H805 H 0.06106 0.29091 0.79634 0.0
H806 H 0.04374 0.25293 0.77473 0.0
H807 H 0.058 0.32873 0.78922 0.0
H808 H 0.04147 0.27454 0.85877 0.0
H809 H 0.01783 0.23946 0.88561 0.0
H810 H 0.97206 0.26509 0.90667 0.0
H811 H 0.99528 0.30023 0.87964 0.0
C812 C 0.10314 0.40642 0.88531 0.0
C813 C 0.09223 0.41988 0.88634 0.0
C814 C 0.092 0.38452 0.87334 0.0
C815 C 0.06966 0.37566 0.86269 0.0
C816 C 0.05837 0.38866 0.86452 0.0
C817 C 0.0697 0.41077 0.87599 0.0
C818 C 0.05858 0.35319 0.84865 0.0
C819 C 0.04361 0.33292 0.86262 0.0
C820 C 0.06404 0.35168 0.82204 0.0
C821 C 0.08037 0.3726 0.80679 0.0
C822 C 0.075 0.39014 0.80129 0.0
C823 C 0.09066 0.40998 0.78717 0.0
C824 C 0.11167 0.41235 0.77828 0.0
C825 C 0.11702 0.39487 0.78343 0.0
C826 C 0.10143 0.37502 0.79758 0.0
C827 C 0.99406 0.2505 0.7969 0.0
C828 C 0.00818 0.24315 0.7844 0.0
C829 C 0.00398 0.27223 0.80918 0.0
C830 C 0.02823 0.28691 0.80943 0.0
C831 C 0.04232 0.27987 0.79637 0.0
C832 C 0.0324 0.25819 0.78397 0.0
C833 C 0.03891 0.30946 0.82363 0.0
C834 C 0.0541 0.32984 0.8098 0.0
C835 C 0.03398 0.31097 0.85057 0.0
C836 C 0.01997 0.2899 0.86693 0.0
C837 C 0.02625 0.27261 0.86894 0.0
C838 C 0.01295 0.25272 0.88422 0.0
C839 C 0.99341 0.25 0.89777 0.0
C840 C 0.98718 0.2672 0.89612 0.0
C841 C 0.00042 0.28712 0.88084 0.0
H842 H 0.98313 0.23459 0.90959 0.0
H843 H 0.12377 0.42769 0.76733 0.0
H844 H 0.59547 0.68092 0.91443 0.0
H845 H 0.63378 0.6999 0.89336 0.0
H846 H 0.60124 0.68496 0.81661 0.0
H847 H 0.56301 0.6663 0.83742 0.0
H848 H 0.63644 0.67527 0.81847 0.0
H849 H 0.62453 0.73867 0.84167 0.0
H850 H 0.61559 0.76255 0.87148 0.0
H851 H 0.67461 0.77706 0.91959 0.0
H852 H 0.68371 0.75298 0.89026 0.0
H853 H 0.73768 0.75003 0.74436 0.0
H854 H 0.69886 0.73162 0.76401 0.0
H855 H 0.72937 0.74892 0.84185 0.0
H856 H 0.76806 0.76834 0.82239 0.0
H857 H 0.69467 0.7574 0.83857 0.0
H858 H 0.70644 0.69364 0.81544 0.0
H859 H 0.71592 0.67065 0.78485 0.0
H860 H 0.65739 0.65704 0.73634 0.0
H861 H 0.64779 0.68029 0.76642 0.0
C862 C 0.59647 0.68182 0.89309 0.0
C863 C 0.57615 0.67204 0.87765 0.0
C864 C 0.61836 0.69261 0.88107 0.0
C865 C 0.62032 0.69394 0.85342 0.0
C866 C 0.6001 0.68401 0.83797 0.0
C867 C 0.57824 0.67325 0.84994 0.0
C868 C 0.64345 0.70586 0.84054 0.0
C869 C 0.6491 0.6933 0.82262 0.0
C870 C 0.66004 0.72927 0.8463 0.0
C871 C 0.65465 0.74382 0.86392 0.0
C872 C 0.63549 0.74679 0.85873 0.0
C873 C 0.63041 0.76039 0.87552 0.0
C874 C 0.64448 0.77126 0.89745 0.0
C875 C 0.6637 0.7686 0.90261 0.0
C876 C 0.66884 0.75499 0.8859 0.0
C877 C 0.73613 0.75011 0.76563 0.0
C878 C 0.75603 0.76053 0.78176 0.0
C879 C 0.71392 0.73938 0.77686 0.0
C880 C 0.71122 0.73861 0.80443 0.0
C881 C 0.73103 0.74921 0.82054 0.0
C882 C 0.75319 0.76008 0.80935 0.0
C883 C 0.68779 0.72677 0.81666 0.0
C884 C 0.68205 0.73935 0.83443 0.0
C885 C 0.67114 0.70338 0.81078 0.0
C886 C 0.67652 0.68888 0.79306 0.0
C887 C 0.69566 0.68584 0.79818 0.0
C888 C 0.70106 0.67277 0.78093 0.0
C889 C 0.68731 0.66244 0.75863 0.0
C890 C 0.66805 0.66508 0.7536 0.0
C891 C 0.66261 0.67819 0.77075 0.0
H892 H 0.69154 0.65236 0.74527 0.0
H893 H 0.64053 0.78179 0.91042 0.0
H894 H 0.68602 0.59866 0.53896 0.0
H895 H 0.66939 0.61956 0.51595 0.0
H896 H 0.60307 0.5562 0.51186 0.0
H897 H 0.61955 0.53536 0.5352 0.0
H898 H 0.62123 0.58355 0.4621 0.0
H899 H 0.60581 0.59094 0.55435 0.0
H900 H 0.61728 0.6016 0.60085 0.0
H901 H 0.66406 0.67227 0.57782 0.0
H902 H 0.65311 0.66193 0.5311 0.0
H903 H 0.54503 0.62366 0.42352 0.0
H904 H 0.56499 0.60484 0.4433 0.0
H905 H 0.62054 0.67182 0.46897 0.0
H906 H 0.59996 0.69045 0.4501 0.0
H907 H 0.61021 0.64375 0.5071 0.0
H908 H 0.62616 0.63913 0.41637 0.0
H909 H 0.61809 0.63034 0.36894 0.0
H910 H 0.57512 0.55771 0.38671 0.0
H911 H 0.58267 0.56609 0.4343 0.0
C912 C 0.66791 0.58927 0.53313 0.0
C913 C 0.654 0.56548 0.53891 0.0
C914 C 0.65845 0.60118 0.52008 0.0
C915 C 0.63505 0.58936 0.51227 0.0
C916 C 0.62118 0.56556 0.51777 0.0
C917 C 0.63052 0.55376 0.53124 0.0
C918 C 0.62496 0.60186 0.49846 0.0
C919 C 0.61854 0.59656 0.4719 0.0
C920 C 0.62236 0.61937 0.51113 0.0
C921 C 0.62884 0.6256 0.53922 0.0
C922 C 0.61871 0.6087 0.55918 0.0
C923 C 0.62508 0.61469 0.58557 0.0
C924 C 0.64144 0.63758 0.59228 0.0
C925 C 0.65142 0.65454 0.57259 0.0
C926 C 0.64513 0.64863 0.54616 0.0
C927 C 0.56165 0.63432 0.43307 0.0
C928 C 0.57101 0.65846 0.43531 0.0
C929 C 0.57312 0.62361 0.44431 0.0
C930 C 0.59449 0.63692 0.45736 0.0
C931 C 0.60407 0.66114 0.45907 0.0
C932 C 0.59236 0.67179 0.4483 0.0
C933 C 0.60617 0.62545 0.47046 0.0
C934 C 0.61295 0.6309 0.49701 0.0
C935 C 0.60955 0.6084 0.45755 0.0
C936 C 0.60482 0.60328 0.42894 0.0
C937 C 0.61483 0.62131 0.41019 0.0
C938 C 0.61038 0.61639 0.38327 0.0
C939 C 0.59607 0.59349 0.37482 0.0
C940 C 0.58619 0.57544 0.39328 0.0
C941 C 0.59057 0.58027 0.42023 0.0
H942 H 0.59266 0.58972 0.35396 0.0
H943 H 0.64635 0.64219 0.61273 0.0
H944 H 0.35953 0.90044 0.47703 0.0
H945 H 0.3799 0.93706 0.50153 0.0
H946 H 0.35344 0.96837 0.44715 0.0
H947 H 0.33354 0.93187 0.42226 0.0
H948 H 0.39653 0.99825 0.45872 0.0
H949 H 0.32871 0.94694 0.50901 0.0
H950 H 0.30183 0.91098 0.53287 0.0
H951 H 0.35594 0.92274 0.58773 0.0
H952 H 0.38333 0.95859 0.56389 0.0
H953 H 0.40832 0.0917 0.53518 0.0
H954 H 0.3905 0.05392 0.51337 0.0
H955 H 0.42996 0.03333 0.56284 0.0
H956 H 0.44839 0.07147 0.5845 0.0
H957 H 0.38231 0.99804 0.55503 0.0
H958 H 0.44953 0.05093 0.50426 0.0
H959 H 0.47459 0.0878 0.48091 0.0
H960 H 0.41902 0.07339 0.42705 0.0
H961 H 0.39348 0.03661 0.45037 0.0
C962 C 0.3582 0.91522 0.47029 0.0
C963 C 0.3449 0.91337 0.44788 0.0
C964 C 0.36976 0.93608 0.48432 0.0
C965 C 0.3678 0.95533 0.47652 0.0
C966 C 0.35515 0.95373 0.45359 0.0
C967 C 0.34386 0.93295 0.43933 0.0
C968 C 0.37857 0.977 0.49247 0.0
C969 C 0.39321 0.99818 0.47971 0.0
C970 C 0.37462 0.97689 0.52003 0.0
C971 C 0.35816 0.95534 0.53446 0.0
C972 C 0.33495 0.94177 0.52602 0.0
C973 C 0.31962 0.92142 0.53956 0.0
C974 C 0.32719 0.91457 0.56176 0.0
C975 C 0.35012 0.92807 0.5705 0.0
C976 C 0.36556 0.9484 0.55697 0.0
C977 C 0.41332 0.07922 0.54142 0.0
C978 C 0.43012 0.08479 0.56128 0.0
C979 C 0.403 0.05758 0.52903 0.0
C980 C 0.40921 0.04103 0.53625 0.0
C981 C 0.42503 0.04596 0.55698 0.0
C982 C 0.43548 0.06772 0.56937 0.0
C983 C 0.39995 0.0191 0.52115 0.0
C984 C 0.38567 0.99796 0.53406 0.0
C985 C 0.404 0.01922 0.49369 0.0
C986 C 0.41952 0.04108 0.47922 0.0
C987 C 0.4426 0.05568 0.48754 0.0
C988 C 0.4569 0.07657 0.4743 0.0
C989 C 0.44838 0.08297 0.45255 0.0
C990 C 0.42558 0.06843 0.44393 0.0
C991 C 0.41119 0.04755 0.45713 0.0
H992 H 0.45947 0.09917 0.44236 0.0
H993 H 0.31529 0.89881 0.57219 0.0
H994 H 0.07914 0.45573 0.43835 0.0
H995 H 0.04339 0.43807 0.46497 0.0
H996 H 0.04885 0.37651 0.47548 0.0
H997 H 0.08494 0.39441 0.44945 0.0
H998 H 0.00029 0.37331 0.46124 0.0
H999 H 0.06612 0.40309 0.5233 0.0
H1000 H 0.1046 0.43487 0.5374 0.0
H1001 H 0.07649 0.48031 0.54671 0.0
H1002 H 0.03789 0.44884 0.53238 0.0
H1003 H 0.91901 0.31601 0.55974 0.0
H1004 H 0.95659 0.33287 0.53713 0.0
H1005 H 0.9683 0.40182 0.55301 0.0
H1006 H 0.93106 0.38482 0.57668 0.0
H1007 H 0.00882 0.40238 0.55337 0.0
H1008 H 0.94317 0.37389 0.49604 0.0
H1009 H 0.9046 0.34467 0.47947 0.0
H1010 H 0.93153 0.3003 0.45683 0.0
H1011 H 0.97017 0.32901 0.47412 0.0
C1012 C 0.07233 0.43822 0.44584 0.0
C1013 C 0.08457 0.4263 0.44192 0.0
C1014 C 0.0521 0.42826 0.4611 0.0
C1015 C 0.04371 0.40611 0.47214 0.0
C1016 C 0.05517 0.39363 0.46702 0.0
C1017 C 0.07566 0.4038 0.45225 0.0
C1018 C 0.02387 0.39662 0.49053 0.0
C1019 C 0.00211 0.37936 0.48149 0.0
C1020 C 0.02637 0.40519 0.51658 0.0
C1021 C 0.0492 0.4237 0.52658 0.0
C1022 C 0.06818 0.4199 0.52826 0.0
C1023 C 0.09002 0.43785 0.53624 0.0
C1024 C 0.09303 0.45965 0.54274 0.0
C1025 C 0.07415 0.46346 0.54153 0.0
C1026 C 0.05228 0.44555 0.53357 0.0
C1027 C 0.92991 0.33475 0.55883 0.0
C1028 C 0.9222 0.34918 0.56957 0.0
C1029 C 0.9513 0.34438 0.54593 0.0
C1030 C 0.96496 0.3686 0.54278 0.0
C1031 C 0.958 0.3831 0.55511 0.0
C1032 C 0.93677 0.37342 0.56856 0.0
C1033 C 0.98502 0.3785 0.52435 0.0
C1034 C 0.00687 0.39607 0.53324 0.0
C1035 C 0.98252 0.37047 0.4979 0.0
C1036 C 0.95952 0.35351 0.48661 0.0
C1037 C 0.94085 0.35785 0.48765 0.0
C1038 C 0.91895 0.34135 0.47815 0.0
C1039 C 0.91559 0.32061 0.46707 0.0
C1040 C 0.93415 0.31636 0.46544 0.0
C1041 C 0.95605 0.33273 0.47514 0.0
H1042 H 0.89862 0.30782 0.45974 0.0
H1043 H 0.10991 0.47351 0.54894 0.0
H1044 H 0.18239 0.43576 0.35716 0.0
H1045 H 0.17045 0.40137 0.32936 0.0
H1046 H 0.14521 0.35741 0.39835 0.0
H1047 H 0.15772 0.39158 0.42617 0.0
H1048 H 0.16422 0.3409 0.36584 0.0
H1049 H 0.1089 0.36751 0.35807 0.0
H1050 H 0.09646 0.39612 0.34864 0.0
H1051 H 0.12095 0.4027 0.26884 0.0
H1052 H 0.13385 0.37437 0.27793 0.0
H1053 H 0.07513 0.23418 0.31018 0.0
H1054 H 0.09876 0.27018 0.33504 0.0
H1055 H 0.12455 0.30801 0.26198 0.0
H1056 H 0.1009 0.27228 0.23709 0.0
H1057 H 0.10831 0.32873 0.29414 0.0
H1058 H 0.15987 0.298 0.30205 0.0
H1059 H 0.17063 0.26836 0.31275 0.0
H1060 H 0.15106 0.26807 0.39366 0.0
H1061 H 0.13987 0.29748 0.38337 0.0
C1062 C 0.17461 0.41878 0.36639 0.0
C1063 C 0.17081 0.41635 0.39379 0.0
C1064 C 0.16771 0.39914 0.3505 0.0
C1065 C 0.15653 0.37676 0.36172 0.0
C1066 C 0.15375 0.37446 0.38922 0.0
C1067 C 0.16085 0.39405 0.4051 0.0
C1068 C 0.14633 0.35559 0.3449 0.0
C1069 C 0.1519 0.33817 0.35025 0.0
C1070 C 0.13048 0.35214 0.32431 0.0
C1071 C 0.12257 0.36903 0.31876 0.0
C1072 C 0.11177 0.37518 0.33857 0.0
C1073 C 0.10463 0.39133 0.33328 0.0
C1074 C 0.10797 0.40127 0.30818 0.0
C1075 C 0.11841 0.39502 0.28829 0.0
C1076 C 0.12564 0.37892 0.29349 0.0
C1077 C 0.08612 0.25011 0.29945 0.0
C1078 C 0.08609 0.25042 0.2717 0.0
C1079 C 0.09966 0.27065 0.31367 0.0
C1080 C 0.11349 0.29177 0.30034 0.0
C1081 C 0.11399 0.29193 0.27265 0.0
C1082 C 0.10048 0.27146 0.25847 0.0
C1083 C 0.12611 0.31398 0.31514 0.0
C1084 C 0.12087 0.33156 0.30948 0.0
C1085 C 0.14202 0.31742 0.33561 0.0
C1086 C 0.14886 0.29982 0.34188 0.0
C1087 C 0.1577 0.29149 0.32208 0.0
C1088 C 0.16391 0.27475 0.32808 0.0
C1089 C 0.16149 0.2663 0.35385 0.0
C1090 C 0.15291 0.27462 0.3737 0.0
C1091 C 0.14666 0.29134 0.3678 0.0
H1092 H 0.1663 0.25334 0.35846 0.0
H1093 H 0.10243 0.41377 0.30412 0.0
H1094 H 0.56419 0.74837 0.35493 0.0
H1095 H 0.59939 0.77078 0.32848 0.0
H1096 H 0.6413 0.78794 0.39901 0.0
H1097 H 0.60621 0.7661 0.42559 0.0
H1098 H 0.6589 0.82425 0.36608 0.0
H1099 H 0.63279 0.74265 0.35997 0.0
H1100 H 0.60448 0.70137 0.35133 0.0
H1101 H 0.59836 0.71762 0.27066 0.0
H1102 H 0.62638 0.75909 0.27895 0.0
H1103 H 0.76575 0.8426 0.30923 0.0
H1104 H 0.73007 0.83013 0.3347 0.0
H1105 H 0.69121 0.81719 0.2623 0.0
H1106 H 0.72667 0.82944 0.23677 0.0
H1107 H 0.6716 0.7802 0.29514 0.0
H1108 H 0.70111 0.8625 0.30187 0.0
H1109 H 0.7304 0.90316 0.312 0.0
H1110 H 0.7317 0.88484 0.39309 0.0
H1111 H 0.70264 0.84398 0.38337 0.0
C1112 C 0.58088 0.75721 0.36483 0.0
C1113 C 0.58246 0.7553 0.39229 0.0
C1114 C 0.60098 0.76994 0.3497 0.0
C1115 C 0.62301 0.78069 0.36173 0.0
C1116 C 0.62451 0.77976 0.3893 0.0
C1117 C 0.60442 0.76719 0.40445 0.0
C1118 C 0.64452 0.79151 0.34552 0.0
C1119 C 0.66177 0.81459 0.35068 0.0
C1120 C 0.64816 0.77897 0.32527 0.0
C1121 C 0.63149 0.75401 0.32016 0.0
C1122 C 0.62528 0.73745 0.34044 0.0
C1123 C 0.60931 0.71401 0.3356 0.0
C1124 C 0.59959 0.70689 0.31048 0.0
C1125 C 0.60588 0.72317 0.29012 0.0
C1126 C 0.62181 0.74664 0.29488 0.0
C1127 C 0.74967 0.83745 0.29876 0.0
C1128 C 0.749 0.83692 0.27101 0.0
C1129 C 0.72931 0.83039 0.31333 0.0
C1130 C 0.70799 0.82279 0.30037 0.0
C1131 C 0.70746 0.82296 0.27268 0.0
C1132 C 0.72777 0.83002 0.25813 0.0
C1133 C 0.68597 0.81301 0.31555 0.0
C1134 C 0.66865 0.78999 0.31032 0.0
C1135 C 0.68245 0.82554 0.33591 0.0
C1136 C 0.69984 0.85013 0.34183 0.0
C1137 C 0.70777 0.8671 0.32182 0.0
C1138 C 0.72431 0.89019 0.3275 0.0
C1139 C 0.73295 0.89657 0.35316 0.0
C1140 C 0.72501 0.87987 0.37322 0.0
C1141 C 0.70849 0.85675 0.36764 0.0
H1142 H 0.74575 0.91446 0.35751 0.0
H1143 H 0.58722 0.68873 0.30676 0.0
H1144 H 0.17382 0.89935 0.23588 0.0
H1145 H 0.1869 0.87799 0.26357 0.0
H1146 H 0.16871 0.90263 0.33344 0.0
H1147 H 0.15587 0.92437 0.30579 0.0
H1148 H 0.21159 0.90841 0.3374 0.0
H1149 H 0.13618 0.84596 0.31352 0.0
H1150 H 0.10437 0.82087 0.28316 0.0
H1151 H 0.14851 0.79947 0.24534 0.0
H1152 H 0.18071 0.82469 0.27525 0.0
H1153 H 0.22905 0.83884 0.42829 0.0
H1154 H 0.20804 0.85261 0.40107 0.0
H1155 H 0.2319 0.83443 0.33061 0.0
H1156 H 0.25306 0.82053 0.35778 0.0
H1157 H 0.18506 0.82436 0.32756 0.0
H1158 H 0.26064 0.88763 0.35008 0.0
H1159 H 0.29245 0.912 0.38082 0.0
H1160 H 0.24805 0.9319 0.42085 0.0
H1161 H 0.21579 0.90724 0.39068 0.0
C1162 C 0.17235 0.90003 0.25714 0.0
C1163 C 0.1638 0.91354 0.26867 0.0
C1164 C 0.17976 0.88773 0.27294 0.0
C1165 C 0.17861 0.88855 0.30058 0.0
C1166 C 0.16973 0.90173 0.31214 0.0
C1167 C 0.16231 0.91407 0.29633 0.0
C1168 C 0.18778 0.8766 0.31737 0.0
C1169 C 0.20548 0.88995 0.33555 0.0
C1170 C 0.18029 0.85264 0.31444 0.0
C1171 C 0.16093 0.83738 0.29649 0.0
C1172 C 0.13917 0.83605 0.2986 0.0
C1173 C 0.12105 0.82177 0.28149 0.0
C1174 C 0.12443 0.80863 0.26229 0.0
C1175 C 0.14592 0.80968 0.2602 0.0
C1176 C 0.16411 0.82394 0.27725 0.0
C1177 C 0.22956 0.83741 0.40701 0.0
C1178 C 0.24288 0.82879 0.39515 0.0
C1179 C 0.21756 0.84532 0.3915 0.0
C1180 C 0.21868 0.84481 0.36386 0.0
C1181 C 0.23086 0.83499 0.35193 0.0
C1182 C 0.24297 0.82712 0.36747 0.0
C1183 C 0.20867 0.85618 0.34756 0.0
C1184 C 0.19098 0.84278 0.32946 0.0
C1185 C 0.21619 0.88012 0.35047 0.0
C1186 C 0.23572 0.89539 0.36828 0.0
C1187 C 0.2576 0.89707 0.36556 0.0
C1188 C 0.27572 0.91094 0.38287 0.0
C1189 C 0.27226 0.92345 0.40281 0.0
C1190 C 0.25069 0.92217 0.40541 0.0
C1191 C 0.23248 0.90824 0.38821 0.0
H1192 H 0.2863 0.93417 0.4162 0.0
H1193 H 0.11039 0.79759 0.24906 0.0
H1194 H 0.43783 0.18155 0.64395 0.0
H1195 H 0.40288 0.16997 0.67043 0.0
H1196 H 0.36088 0.14729 0.59983 0.0
H1197 H 0.39576 0.15927 0.57321 0.0
H1198 H 0.34494 0.16753 0.63352 0.0
H1199 H 0.36693 0.10883 0.63779 0.0
H1200 H 0.39365 0.09377 0.64567 0.0
H1201 H 0.40091 0.11519 0.72682 0.0
H1202 H 0.37452 0.13075 0.71929 0.0
H1203 H 0.23629 0.08155 0.68981 0.0
H1204 H 0.27215 0.10403 0.66438 0.0
H1205 H 0.31141 0.12768 0.7368 0.0
H1206 H 0.27576 0.10526 0.7623 0.0
H1207 H 0.32929 0.10889 0.70318 0.0
H1208 H 0.30411 0.16512 0.69854 0.0
H1209 H 0.27662 0.179 0.68939 0.0
H1210 H 0.27389 0.16033 0.60771 0.0
H1211 H 0.30113 0.14602 0.61645 0.0
C1212 C 0.42119 0.1744 0.63404 0.0
C1213 C 0.4195 0.1711 0.60654 0.0
C1214 C 0.40123 0.16774 0.64919 0.0
C1215 C 0.37923 0.15741 0.63713 0.0
C1216 C 0.37766 0.15518 0.60955 0.0
C1217 C 0.39761 0.16195 0.59438 0.0
C1218 C 0.35775 0.14745 0.65335 0.0
C1219 C 0.34141 0.15459 0.64864 0.0
C1220 C 0.35327 0.13074 0.67325 0.0
C1221 C 0.36895 0.12118 0.67791 0.0
C1222 C 0.37436 0.11048 0.65727 0.0
C1223 C 0.38943 0.10184 0.66167 0.0
C1224 C 0.39902 0.10357 0.68672 0.0
C1225 C 0.3935 0.1139 0.70742 0.0
C1226 C 0.37849 0.12263 0.7031 0.0
C1227 C 0.2525 0.09187 0.7003 0.0
C1228 C 0.25322 0.09156 0.72804 0.0
C1229 C 0.27297 0.10475 0.68575 0.0
C1230 C 0.29444 0.11756 0.69872 0.0
C1231 C 0.29503 0.1179 0.72642 0.0
C1232 C 0.27462 0.1051 0.74095 0.0
C1233 C 0.31648 0.12905 0.68351 0.0
C1234 C 0.33289 0.12203 0.68829 0.0
C1235 C 0.32084 0.14565 0.66353 0.0
C1236 C 0.3045 0.1543 0.65821 0.0
C1237 C 0.2975 0.16379 0.67867 0.0
C1238 C 0.28199 0.17177 0.67355 0.0
C1239 C 0.27347 0.1705 0.648 0.0
C1240 C 0.28049 0.16129 0.6275 0.0
C1241 C 0.29598 0.15326 0.63252 0.0
H1242 H 0.26146 0.17669 0.64407 0.0
H1243 H 0.41068 0.09687 0.69009 0.0
H1244 H 0.84643 0.24145 0.5784 0.0
H1245 H 0.85814 0.21863 0.60534 0.0
H1246 H 0.83736 0.24014 0.67577 0.0
H1247 H 0.82601 0.26353 0.64883 0.0
H1248 H 0.87957 0.24574 0.68147 0.0
H1249 H 0.80608 0.18377 0.6523 0.0
H1250 H 0.77554 0.15983 0.62005 0.0
H1251 H 0.82199 0.14169 0.58172 0.0
H1252 H 0.85293 0.16579 0.61352 0.0
H1253 H 0.89809 0.17292 0.7665 0.0
H1254 H 0.87726 0.18786 0.74086 0.0
H1255 H 0.90239 0.17372 0.66862 0.0
H1256 H 0.92323 0.15847 0.69423 0.0
H1257 H 0.85603 0.16307 0.6653 0.0
H1258 H 0.92993 0.22675 0.69299 0.0
H1259 H 0.96025 0.24995 0.7258 0.0
H1260 H 0.91255 0.26467 0.76706 0.0
H1261 H 0.8818 0.24118 0.73474 0.0
C1262 C 0.84404 0.24111 0.5996 0.0
C1263 C 0.8353 0.25431 0.61151 0.0
C1264 C 0.85065 0.22794 0.61498 0.0
C1265 C 0.84843 0.22747 0.64258 0.0
C1266 C 0.83919 0.24022 0.6545 0.0
C1267 C 0.83263 0.25349 0.63909 0.0
C1268 C 0.8572 0.21493 0.65896 0.0
C1269 C 0.87406 0.22754 0.67825 0.0
C1270 C 0.85049 0.19134 0.6543 0.0
C1271 C 0.83189 0.17675 0.63519 0.0
C1272 C 0.80984 0.17482 0.63688 0.0
C1273 C 0.79245 0.16119 0.61869 0.0
C1274 C 0.79684 0.14929 0.59881 0.0
C1275 C 0.81862 0.15094 0.59712 0.0
C1276 C 0.83608 0.16455 0.61524 0.0
C1277 C 0.89901 0.17274 0.74514 0.0
C1278 C 0.91249 0.16474 0.73236 0.0
C1279 C 0.8871 0.1813 0.73054 0.0
C1280 C 0.88858 0.1822 0.70289 0.0
C1281 C 0.9011 0.1732 0.68997 0.0
C1282 C 0.91303 0.16457 0.70461 0.0
C1283 C 0.87829 0.19391 0.68767 0.0
C1284 C 0.86129 0.1812 0.66859 0.0
C1285 C 0.88485 0.21741 0.69249 0.0
C1286 C 0.90349 0.23201 0.71159 0.0
C1287 C 0.92586 0.23481 0.70915 0.0
C1288 C 0.94313 0.24802 0.72766 0.0
C1289 C 0.93831 0.25873 0.74854 0.0
C1290 C 0.91624 0.25633 0.75089 0.0
C1291 C 0.89889 0.24308 0.73248 0.0
H1292 H 0.9517 0.26892 0.76287 0.0
H1293 H 0.78335 0.13875 0.58475 0.0
H1294 H 0.83905 0.76498 0.6946 0.0
H1295 H 0.82161 0.72911 0.66861 0.0
H1296 H 0.82064 0.69042 0.73751 0.0
H1297 H 0.83797 0.72624 0.76374 0.0
H1298 H 0.83294 0.67603 0.69032 0.0
H1299 H 0.77331 0.68856 0.72432 0.0
H1300 H 0.75394 0.71114 0.73428 0.0
H1301 H 0.74753 0.72026 0.65132 0.0
H1302 H 0.76722 0.69804 0.64087 0.0
H1303 H 0.74443 0.56529 0.63878 0.0
H1304 H 0.76517 0.59928 0.66779 0.0
H1305 H 0.77256 0.64457 0.6029 0.0
H1306 H 0.75224 0.61088 0.57379 0.0
H1307 H 0.75603 0.65391 0.6512 0.0
H1308 H 0.81736 0.64099 0.61874 0.0
H1309 H 0.83609 0.61744 0.61112 0.0
H1310 H 0.83751 0.60713 0.69469 0.0
H1311 H 0.81846 0.63035 0.70279 0.0
C1312 C 0.83559 0.74894 0.7041 0.0
C1313 C 0.83973 0.74837 0.73122 0.0
C1314 C 0.82553 0.72846 0.68927 0.0
C1315 C 0.8196 0.70713 0.70127 0.0
C1316 C 0.82506 0.70673 0.72794 0.0
C1317 C 0.83491 0.72718 0.74287 0.0
C1318 C 0.80619 0.68515 0.68639 0.0
C1319 C 0.816 0.67101 0.68203 0.0
C1320 C 0.78408 0.67867 0.67568 0.0
C1321 C 0.77198 0.69184 0.68181 0.0
C1322 C 0.76795 0.69555 0.7082 0.0
C1323 C 0.75689 0.70826 0.71394 0.0
C1324 C 0.74958 0.71719 0.69345 0.0
C1325 C 0.75325 0.71336 0.66718 0.0
C1326 C 0.76434 0.70069 0.66133 0.0
C1327 C 0.75052 0.58251 0.63074 0.0
C1328 C 0.74682 0.58547 0.60403 0.0
C1329 C 0.76236 0.60186 0.64729 0.0
C1330 C 0.77039 0.62438 0.63741 0.0
C1331 C 0.76646 0.62732 0.61085 0.0
C1332 C 0.75496 0.60806 0.59425 0.0
C1333 C 0.78299 0.64502 0.65463 0.0
C1334 C 0.77294 0.65889 0.65954 0.0
C1335 C 0.80468 0.65101 0.66619 0.0
C1336 C 0.81624 0.63717 0.66134 0.0
C1337 C 0.82147 0.63352 0.63548 0.0
C1338 C 0.83219 0.62027 0.63107 0.0
C1339 C 0.83792 0.61073 0.6524 0.0
C1340 C 0.83302 0.61449 0.67819 0.0
C1341 C 0.82228 0.6277 0.68269 0.0
H1342 H 0.84622 0.60049 0.64895 0.0
H1343 H 0.74103 0.72704 0.69793 0.0
H1344 H 0.89768 0.41223 0.02844 0.0
H1345 H 0.93235 0.43326 0.00079 0.0
H1346 H 0.97473 0.46116 0.07059 0.0
H1347 H 0.94018 0.44061 0.09827 0.0
H1348 H 0.98999 0.49314 0.03177 0.0
H1349 H 0.96969 0.41351 0.04162 0.0
H1350 H 0.94373 0.37097 0.0402 0.0
H1351 H 0.93509 0.37429 0.95653 0.0
H1352 H 0.9607 0.41693 0.95754 0.0
H1353 H 0.09813 0.51299 0.97414 0.0
H1354 H 0.06354 0.50005 0.00205 0.0
H1355 H 0.01994 0.47729 0.93273 0.0
H1356 H 0.05416 0.4902 0.90486 0.0
H1357 H 0.00579 0.44346 0.97187 0.0
H1358 H 0.02819 0.52441 0.9633 0.0
H1359 H 0.05517 0.56667 0.96654 0.0
H1360 H 0.06172 0.56029 0.05009 0.0
H1361 H 0.03502 0.51791 0.04728 0.0
C1362 C 0.91432 0.42317 0.03786 0.0
C1363 C 0.91626 0.42458 0.06551 0.0
C1364 C 0.93412 0.4351 0.02206 0.0
C1365 C 0.95616 0.44844 0.03369 0.0
C1366 C 0.95791 0.45092 0.06122 0.0
C1367 C 0.93814 0.43908 0.07701 0.0
C1368 C 0.97752 0.45833 0.01734 0.0
C1369 C 0.99356 0.48227 0.01883 0.0
C1370 C 0.98214 0.44412 0.00045 0.0
C1371 C 0.96692 0.41845 0.9997 0.0
C1372 C 0.96212 0.40519 0.02295 0.0
C1373 C 0.94748 0.38106 0.02222 0.0
C1374 C 0.93772 0.36994 0.9983 0.0
C1375 C 0.94263 0.38293 0.97505 0.0
C1376 C 0.95721 0.40709 0.97569 0.0
C1377 C 0.08119 0.50547 0.96489 0.0
C1378 C 0.07885 0.50257 0.93734 0.0
C1379 C 0.06148 0.49814 0.98081 0.0
C1380 C 0.03923 0.48774 0.96939 0.0
C1381 C 0.03696 0.48524 0.9419 0.0
C1382 C 0.05657 0.4927 0.92602 0.0
C1383 C 0.01809 0.47831 0.986 0.0
C1384 C 0.00216 0.45436 0.9847 0.0
C1385 C 0.0138 0.49247 0.00329 0.0
C1386 C 0.02979 0.51795 0.00502 0.0
C1387 C 0.03554 0.53198 0.98232 0.0
C1388 C 0.05075 0.55597 0.98409 0.0
C1389 C 0.06021 0.56615 0.0085 0.0
C1390 C 0.05441 0.55238 0.0312 0.0
C1391 C 0.03923 0.52837 0.02953 0.0
H1392 H 0.07198 0.58473 0.00983 0.0
H1393 H 0.92639 0.35126 0.99777 0.0
H1394 H 0.48442 0.58767 0.96977 0.0
H1395 H 0.49746 0.56616 0.99745 0.0
H1396 H 0.51493 0.54075 0.92769 0.0
H1397 H 0.50151 0.56181 0.89992 0.0
H1398 H 0.49661 0.5074 0.96501 0.0
H1399 H 0.55621 0.58754 0.96012 0.0
H1400 H 0.57249 0.62994 0.96369 0.0
H1401 H 0.55657 0.62298 0.04656 0.0
H1402 H 0.53981 0.58045 0.04338 0.0
H1403 H 0.58362 0.48635 0.02274 0.0
H1404 H 0.56124 0.49898 0.99579 0.0
H1405 H 0.54052 0.52047 0.06623 0.0
H1406 H 0.56271 0.50794 0.09319 0.0
H1407 H 0.55944 0.55482 0.02885 0.0
H1408 H 0.5014 0.47376 0.03301 0.0
H1409 H 0.48622 0.43163 0.02803 0.0
H1410 H 0.50122 0.44078 0.94496 0.0
H1411 H 0.51681 0.48304 0.94951 0.0
C1412 C 0.49073 0.57724 0.96033 0.0
C1413 C 0.49214 0.5766 0.93268 0.0
C1414 C 0.49824 0.56502 0.97616 0.0
C1415 C 0.50753 0.55216 0.96462 0.0
C1416 C 0.50788 0.55059 0.93701 0.0
C1417 C 0.50028 0.56272 0.92117 0.0
C1418 C 0.51828 0.54165 0.98124 0.0
C1419 C 0.51048 0.51779 0.97882 0.0
C1420 C 0.53625 0.55518 0.99941 0.0
C1421 C 0.54653 0.58078 0.00145 0.0
C1422 C 0.55602 0.59503 0.97906 0.0
C1423 C 0.56535 0.61909 0.98102 0.0
C1424 C 0.56551 0.62914 0.00533 0.0
C1425 C 0.5564 0.61516 0.02774 0.0
C1426 C 0.54698 0.59107 0.02587 0.0
C1427 C 0.57397 0.49341 0.03249 0.0
C1428 C 0.57499 0.49622 0.06007 0.0
C1429 C 0.56117 0.50057 0.01709 0.0
C1430 C 0.54923 0.51066 0.02905 0.0
C1431 C 0.54965 0.51278 0.05662 0.0
C1432 C 0.56231 0.50554 0.07199 0.0
C1433 C 0.53764 0.52052 0.01283 0.0
C1434 C 0.54543 0.54437 0.01521 0.0
C1435 C 0.51989 0.50701 0.99445 0.0
C1436 C 0.51049 0.4816 0.99166 0.0
C1437 C 0.50165 0.46682 0.01372 0.0
C1438 C 0.49294 0.44291 0.01097 0.0
C1439 C 0.49281 0.43355 0.98621 0.0
C1440 C 0.50135 0.44807 0.96414 0.0
C1441 C 0.51011 0.472 0.96679 0.0
H1442 H 0.48605 0.41503 0.98412 0.0
H1443 H 0.57275 0.64777 0.00681 0.0
H1444 H 0.50946 0.10374 0.026 0.0
H1445 H 0.49485 0.06934 0.99752 0.0
H1446 H 0.47459 0.02522 0.06645 0.0
H1447 H 0.48962 0.05935 0.09484 0.0
H1448 H 0.49278 0.00988 0.03138 0.0
H1449 H 0.43511 0.03356 0.03003 0.0
H1450 H 0.42054 0.06083 0.02326 0.0
H1451 H 0.44066 0.06831 0.94163 0.0
H1452 H 0.45566 0.04132 0.94802 0.0
H1453 H 0.40786 0.90175 0.97439 0.0
H1454 H 0.42856 0.93753 0.0005 0.0
H1455 H 0.45071 0.97803 0.9288 0.0
H1456 H 0.42999 0.94251 0.90268 0.0
H1457 H 0.43317 0.99592 0.96367 0.0
H1458 H 0.48884 0.9698 0.96537 0.0
H1459 H 0.50225 0.94172 0.97305 0.0
H1460 H 0.4844 0.9378 0.05516 0.0
H1461 H 0.47056 0.96563 0.04789 0.0
C1462 C 0.50206 0.08671 0.03503 0.0
C1463 C 0.50061 0.08426 0.06264 0.0
C1464 C 0.49362 0.06705 0.01875 0.0
C1465 C 0.48331 0.04463 0.02983 0.0
C1466 C 0.48245 0.04229 0.05741 0.0
C1467 C 0.491 0.06187 0.07363 0.0
C1468 C 0.47279 0.02347 0.01292 0.0
C1469 C 0.4796 0.00675 0.01673 0.0
C1470 C 0.45585 0.01949 0.99348 0.0
C1471 C 0.44674 0.03562 0.98958 0.0
C1472 C 0.43658 0.04116 0.01069 0.0
C1473 C 0.42823 0.05654 0.00691 0.0
C1474 C 0.42973 0.06635 0.98205 0.0
C1475 C 0.43954 0.06073 0.96089 0.0
C1476 C 0.44797 0.04539 0.96457 0.0
C1477 C 0.41732 0.91826 0.96421 0.0
C1478 C 0.41729 0.91929 0.93648 0.0
C1479 C 0.42919 0.93869 0.97914 0.0
C1480 C 0.44129 0.96047 0.96658 0.0
C1481 C 0.44147 0.96145 0.9389 0.0
C1482 C 0.42967 0.94109 0.92401 0.0
C1483 C 0.45309 0.98232 0.98221 0.0
C1484 C 0.44647 0.99914 0.97819 0.0
C1485 C 0.47004 0.98628 0.00159 0.0
C1486 C 0.47847 0.96964 0.00603 0.0
C1487 C 0.4876 0.96282 0.98502 0.0
C1488 C 0.49531 0.94697 0.98931 0.0
C1489 C 0.49413 0.93794 0.01457 0.0
C1490 C 0.48528 0.94479 0.0356 0.0
C1491 C 0.47753 0.96062 0.03141 0.0
H1492 H 0.5001 0.92567 0.01784 0.0
H1493 H 0.42325 0.07826 0.97917 0.0
H1494 H 0.05306 0.21556 0.09991 0.0
H1495 H 0.0432 0.2113 0.053 0.0
H1496 H 0.97792 0.1493 0.06975 0.0
H1497 H 0.98741 0.15367 0.11685 0.0
H1498 H 0.00037 0.14381 0.02732 0.0
H1499 H 0.97866 0.19889 0.0571 0.0
H1500 H 0.98426 0.23467 0.07863 0.0
H1501 H 0.03899 0.2762 0.02398 0.0
H1502 H 0.03394 0.24064 0.00234 0.0
H1503 H 0.94492 0.13287 0.90476 0.0
H1504 H 0.95468 0.13806 0.95172 0.0
H1505 H 0.01876 0.20124 0.9344 0.0
H1506 H 0.00877 0.19652 0.88739 0.0
H1507 H 0.99722 0.20639 0.97709 0.0
H1508 H 0.01894 0.1513 0.94731 0.0
H1509 H 0.01302 0.11551 0.9255 0.0
H1510 H 0.95825 0.07403 0.98013 0.0
H1511 H 0.96362 0.1096 0.00205 0.0
C1512 C 0.03648 0.20115 0.0937 0.0
C1513 C 0.02094 0.18505 0.11221 0.0
C1514 C 0.03092 0.19871 0.06686 0.0
C1515 C 0.00972 0.18014 0.05796 0.0
C1516 C 0.99437 0.16377 0.07624 0.0
C1517 C -0.00013 0.16624 0.10313 0.0
C1518 C 0.00365 0.17772 0.02954 0.0
C1519 C 0.99937 0.15735 0.0164 0.0
C1520 C 0.00292 0.19566 0.01521 0.0
C1521 C 0.00608 0.21708 0.02828 0.0
C1522 C 0.99204 0.21565 0.04983 0.0
C1523 C 0.99508 0.23589 0.06202 0.0
C1524 C 0.01201 0.25769 0.05272 0.0
C1525 C 0.02591 0.25929 0.03119 0.0
C1526 C 0.02295 0.2391 0.01894 0.0
C1527 C 0.96099 0.14799 0.91096 0.0
C1528 C 0.97612 0.16424 0.89234 0.0
C1529 C 0.96664 0.15082 0.93777 0.0
C1530 C 0.9876 0.16986 0.9465 0.0
C1531 C 0.00256 0.18635 0.92805 0.0
C1532 C 0.99692 0.18353 0.90119 0.0
C1533 C 0.99391 0.17245 0.97488 0.0
C1534 C 0.99825 0.19286 0.98801 0.0
C1535 C 0.99472 0.15455 0.98921 0.0
C1536 C 0.99154 0.13312 0.97617 0.0
C1537 C 0.00552 0.13455 0.95455 0.0
C1538 C 0.00228 0.11431 0.94219 0.0
C1539 C 0.98523 0.09252 0.95138 0.0
C1540 C 0.97143 0.09093 0.97301 0.0
C1541 C 0.97458 0.11112 0.98543 0.0
H1542 H 0.98275 0.07686 0.94178 0.0
H1543 H 0.01431 0.27334 0.06217 0.0
H1544 H 0.87859 0.82993 0.90262 0.0
H1545 H 0.87293 0.83468 0.94975 0.0
H1546 H 0.79868 0.79892 0.93794 0.0
H1547 H 0.80422 0.79352 0.89102 0.0
H1548 H 0.82406 0.84717 0.96705 0.0
H1549 H 0.81127 0.76817 0.96502 0.0
H1550 H 0.82264 0.73906 0.95392 0.0
H1551 H 0.88479 0.77646 0.00025 0.0
H1552 H 0.87393 0.80601 0.01127 0.0
H1553 H 0.78336 0.83394 0.09762 0.0
H1554 H 0.78898 0.82792 0.05149 0.0
H1555 H 0.85468 0.83299 0.07066 0.0
H1556 H 0.84821 0.83685 0.11727 0.0
H1557 H 0.83463 0.80084 0.03693 0.0
H1558 H 0.84944 0.87889 0.04081 0.0
H1559 H 0.84182 0.91075 0.05133 0.0
H1560 H 0.78143 0.87977 0.00145 0.0
H1561 H 0.7885 0.84754 0.9909 0.0
C1562 C 0.8611 0.82307 0.91019 0.0
C1563 C 0.84181 0.81131 0.8934 0.0
C1564 C 0.8579 0.82575 0.93698 0.0
C1565 C 0.83541 0.81711 0.94714 0.0
C1566 C 0.81615 0.80565 0.93034 0.0
C1567 C 0.81931 0.80251 0.9037 0.0
C1568 C 0.83199 0.82013 0.97535 0.0
C1569 C 0.82606 0.83691 0.98241 0.0
C1570 C 0.83547 0.80725 0.9952 0.0
C1571 C 0.84193 0.78944 0.98869 0.0
C1572 C 0.82748 0.77032 0.97259 0.0
C1573 C 0.8338 0.75371 0.96638 0.0
C1574 C 0.85446 0.75595 0.9763 0.0
C1575 C 0.86881 0.77477 0.99253 0.0
C1576 C 0.86257 0.79145 0.99878 0.0
C1577 C 0.79884 0.83337 0.09225 0.0
C1578 C 0.81535 0.83597 0.11141 0.0
C1579 C 0.80223 0.83033 0.06565 0.0
C1580 C 0.82252 0.83052 0.0574 0.0
C1581 C 0.83895 0.83293 0.07644 0.0
C1582 C 0.83535 0.83548 0.10313 0.0
C1583 C 0.82648 0.82792 0.029 0.0
C1584 C 0.83259 0.81123 0.02177 0.0
C1585 C 0.82368 0.8413 0.00901 0.0
C1586 C 0.81938 0.86068 0.01527 0.0
C1587 C 0.83444 0.87878 0.03223 0.0
C1588 C 0.83023 0.89692 0.03818 0.0
C1589 C 0.81112 0.89725 0.02712 0.0
C1590 C 0.79621 0.87948 0.01003 0.0
C1591 C 0.80032 0.86128 0.00404 0.0
H1592 H 0.8079 0.91132 0.03175 0.0
H1593 H 0.85933 0.74306 0.97147 0.0
H1594 H 0.16653 0.04009 0.89555 0.0
H1595 H 0.16108 0.02893 0.94241 0.0
H1596 H 0.20067 0.99419 0.93159 0.0
H1597 H 0.20668 0.00583 0.88488 0.0
H1598 H 0.15327 0.96826 0.9598 0.0
H1599 H 0.2284 0.03913 0.95972 0.0
H1600 H 0.25502 0.08041 0.94908 0.0
H1601 H 0.21226 0.09983 0.99351 0.0
H1602 H 0.18517 0.05858 0.00406 0.0
H1603 H 0.16562 0.94469 0.09303 0.0
H1604 H 0.17177 0.95551 0.04659 0.0
H1605 H 0.15891 0.01202 0.06221 0.0
H1606 H 0.15477 0.00262 0.10907 0.0
H1607 H 0.19281 0.02686 0.03052 0.0
H1608 H 0.11778 0.95839 0.03148 0.0
H1609 H 0.08854 0.91764 0.04133 0.0
H1610 H 0.12682 0.89398 0.9949 0.0
H1611 H 0.15646 0.93461 0.98506 0.0
C1612 C 0.17402 0.03006 0.90323 0.0
C1613 C 0.18703 0.0238 0.88674 0.0
C1614 C 0.17095 0.02375 0.9299 0.0
C1615 C 0.18048 0.01075 0.94031 0.0
C1616 C 0.19318 0.00419 0.92381 0.0
C1617 C 0.19668 0.01092 0.89728 0.0
C1618 C 0.17731 0.00419 0.96854 0.0
C1619 C 0.16209 0.98093 0.97535 0.0
C1620 C 0.18829 0.02095 0.98863 0.0
C1621 C 0.20462 0.04575 0.98241 0.0
C1622 C 0.22455 0.05217 0.96699 0.0
C1623 C 0.23975 0.07557 0.96103 0.0
C1624 C 0.2353 0.09273 0.97054 0.0
C1625 C 0.21566 0.08652 0.98611 0.0
C1626 C 0.20039 0.06313 0.9921 0.0
C1627 C 0.16443 0.95965 0.08678 0.0
C1628 C 0.15967 0.97273 0.10506 0.0
C1629 C 0.16757 0.96559 0.06001 0.0
C1630 C 0.16539 0.98435 0.05068 0.0
C1631 C 0.16059 0.9974 0.06882 0.0
C1632 C 0.1579 0.99177 0.09566 0.0
C1633 C 0.16862 0.99072 0.02216 0.0
C1634 C 0.18387 0.01402 0.01517 0.0
C1635 C 0.15727 0.97402 0.00191 0.0
C1636 C 0.13946 0.94956 0.00775 0.0
C1637 C 0.12005 0.9445 0.02354 0.0
C1638 C 0.10339 0.92142 0.02909 0.0
C1639 C 0.10585 0.90323 0.01881 0.0
C1640 C 0.12495 0.90808 0.00289 0.0
C1641 C 0.14168 0.93114 0.99729 0.0
H1642 H 0.09294 0.88538 0.02313 0.0
H1643 H 0.2471 0.11084 0.96592 0.0
H1644 H 0.61702 0.50846 0.2343 0.0
H1645 H 0.63089 0.5173 0.27981 0.0
H1646 H 0.69375 0.51762 0.25762 0.0
H1647 H 0.68035 0.50944 0.21184 0.0
H1648 H 0.67331 0.49055 0.3007 0.0
H1649 H 0.69839 0.56872 0.27476 0.0
H1650 H 0.69628 0.60194 0.2561 0.0
H1651 H 0.64093 0.58904 0.30966 0.0
H1652 H 0.64292 0.55589 0.32888 0.0
H1653 H 0.72877 0.53223 0.42563 0.0
H1654 H 0.72048 0.52999 0.37816 0.0
H1655 H 0.65428 0.52466 0.3949 0.0
H1656 H 0.6625 0.52698 0.4423 0.0
H1657 H 0.67894 0.55593 0.35397 0.0
H1658 H 0.65514 0.47723 0.37993 0.0
H1659 H 0.66062 0.44643 0.39994 0.0
H1660 H 0.71591 0.46155 0.34533 0.0
H1661 H 0.71098 0.4927 0.32524 0.0
C1662 C 0.63398 0.51081 0.23892 0.0
C1663 C 0.6475 0.50811 0.21935 0.0
C1664 C 0.64188 0.51586 0.26499 0.0
C1665 C 0.6634 0.51823 0.27206 0.0
C1666 C 0.67706 0.5158 0.25258 0.0
C1667 C 0.66927 0.51095 0.22646 0.0
C1668 C 0.6709 0.52174 0.30008 0.0
C1669 C 0.67493 0.50507 0.31222 0.0
C1670 C 0.6726 0.54044 0.31523 0.0
C1671 C 0.67065 0.55971 0.30307 0.0
C1672 C 0.68562 0.57284 0.28239 0.0
C1673 C 0.68455 0.59174 0.27184 0.0
C1674 C 0.66842 0.59753 0.28161 0.0
C1675 C 0.6534 0.5845 0.30207 0.0
C1676 C 0.65457 0.56573 0.3129 0.0
C1677 C 0.71253 0.53074 0.41913 0.0
C1678 C 0.6962 0.52961 0.43761 0.0
C1679 C 0.70778 0.52935 0.39208 0.0
C1680 C 0.6867 0.52699 0.38309 0.0
C1681 C 0.67062 0.52642 0.40147 0.0
C1682 C 0.67526 0.52757 0.4285 0.0
C1683 C 0.68117 0.52468 0.35453 0.0
C1684 C 0.67744 0.54151 0.34234 0.0
C1685 C 0.67993 0.50623 0.33929 0.0
C1686 C 0.68287 0.48746 0.35129 0.0
C1687 C 0.66861 0.47413 0.37235 0.0
C1688 C 0.67158 0.45658 0.38367 0.0
C1689 C 0.68865 0.45208 0.37397 0.0
C1690 C 0.70273 0.46508 0.35286 0.0
C1691 C 0.69984 0.48268 0.34149 0.0
H1692 H 0.69092 0.43849 0.38275 0.0
H1693 H 0.66759 0.61215 0.27337 0.0
H1694 H 0.51848 0.16755 0.45518 0.0
H1695 H 0.52512 0.16162 0.40908 0.0
H1696 H 0.46172 0.16003 0.38662 0.0
H1697 H 0.4553 0.16684 0.43246 0.0
H1698 H 0.4675 0.1235 0.36453 0.0
H1699 H 0.5103 0.20741 0.37514 0.0
H1700 H 0.53915 0.24367 0.39708 0.0
H1701 H 0.59299 0.22768 0.38007 0.0
H1702 H 0.56437 0.19116 0.35832 0.0
H1703 H 0.47778 0.13372 0.22646 0.0
H1704 H 0.47288 0.13839 0.27349 0.0
H1705 H 0.54447 0.15754 0.28743 0.0
H1706 H 0.54967 0.15422 0.2399 0.0
H1707 H 0.53578 0.18385 0.31539 0.0
H1708 H 0.49547 0.10153 0.30359 0.0
H1709 H 0.46773 0.06387 0.2834 0.0
H1710 H 0.41091 0.07423 0.30447 0.0
H1711 H 0.43834 0.11211 0.32449 0.0
C1712 C 0.50606 0.16624 0.44045 0.0
C1713 C 0.48638 0.16779 0.44763 0.0
C1714 C 0.50983 0.16268 0.41413 0.0
C1715 C 0.49394 0.16047 0.39451 0.0
C1716 C 0.47412 0.1616 0.40156 0.0
C1717 C 0.47044 0.16539 0.42782 0.0
C1718 C 0.49816 0.15733 0.36649 0.0
C1719 C 0.48227 0.13674 0.35362 0.0
C1720 C 0.51789 0.17431 0.35269 0.0
C1721 C 0.53516 0.19646 0.36532 0.0
C1722 C 0.52826 0.21156 0.37623 0.0
C1723 C 0.54457 0.23217 0.38861 0.0
C1724 C 0.56787 0.23795 0.39003 0.0
C1725 C 0.57493 0.22317 0.37898 0.0
C1726 C 0.55868 0.20253 0.3666 0.0
C1727 C 0.49241 0.13887 0.23966 0.0
C1728 C 0.51403 0.14346 0.22979 0.0
C1729 C 0.48958 0.14137 0.26655 0.0
C1730 C 0.50813 0.14775 0.28425 0.0
C1731 C 0.52985 0.1525 0.27426 0.0
C1732 C 0.53283 0.15055 0.24719 0.0
C1733 C 0.50494 0.14997 0.31301 0.0
C1734 C 0.52104 0.17042 0.32615 0.0
C1735 C 0.48558 0.13263 0.32721 0.0
C1736 C 0.469 0.10976 0.31536 0.0
C1737 C 0.47707 0.09584 0.30378 0.0
C1738 C 0.4614 0.07445 0.29238 0.0
C1739 C 0.43758 0.06668 0.2926 0.0
C1740 C 0.42937 0.08027 0.30429 0.0
C1741 C 0.44497 0.1017 0.3157 0.0
H1742 H 0.42547 0.05012 0.28376 0.0
H1743 H 0.58047 0.25389 0.39965 0.0
H1744 H 0.88893 0.36202 0.23173 0.0
H1745 H 0.88575 0.35296 0.27855 0.0
H1746 H 0.82226 0.35574 0.2827 0.0
H1747 H 0.82659 0.36724 0.23653 0.0
H1748 H 0.84528 0.37445 0.32396 0.0
H1749 H 0.82519 0.30248 0.27987 0.0
H1750 H 0.83115 0.277 0.24926 0.0
H1751 H 0.89255 0.29031 0.29183 0.0
H1752 H 0.88709 0.31606 0.32251 0.0
H1753 H 0.8027 0.31114 0.44372 0.0
H1754 H 0.80757 0.32104 0.39683 0.0
H1755 H 0.87816 0.3346 0.40001 0.0
H1756 H 0.87379 0.32558 0.4471 0.0
H1757 H 0.8521 0.30741 0.3558 0.0
H1758 H 0.87093 0.379 0.40012 0.0
H1759 H 0.8636 0.40333 0.43104 0.0
H1760 H 0.8022 0.38884 0.38769 0.0
H1761 H 0.80898 0.36412 0.35672 0.0
C1762 C 0.87451 0.36122 0.2426 0.0
C1763 C 0.85797 0.36533 0.23003 0.0
C1764 C 0.87247 0.35554 0.2694 0.0
C1765 C 0.85342 0.35302 0.28412 0.0
C1766 C 0.83703 0.35736 0.27177 0.0
C1767 C 0.83937 0.36364 0.24514 0.0
C1768 C 0.85069 0.34621 0.31245 0.0
C1769 C 0.84642 0.35956 0.33076 0.0
C1770 C 0.85271 0.32709 0.32161 0.0
C1771 C 0.85584 0.31137 0.30334 0.0
C1772 C 0.84003 0.30007 0.28261 0.0
C1773 C 0.84331 0.28556 0.26526 0.0
C1774 C 0.86225 0.28208 0.26855 0.0
C1775 C 0.87789 0.29302 0.28928 0.0
C1776 C 0.8747 0.30755 0.30667 0.0
C1777 C 0.81939 0.31651 0.43463 0.0
C1778 C 0.83797 0.31781 0.44943 0.0
C1779 C 0.82206 0.32197 0.40775 0.0
C1780 C 0.84327 0.32869 0.39507 0.0
C1781 C 0.86163 0.3294 0.40947 0.0
C1782 C 0.85906 0.32416 0.43641 0.0
C1783 C 0.84644 0.33548 0.3669 0.0
C1784 C 0.85087 0.3222 0.34877 0.0
C1785 C 0.8443 0.35446 0.35783 0.0
C1786 C 0.84034 0.36953 0.37626 0.0
C1787 C 0.85576 0.38085 0.3973 0.0
C1788 C 0.85173 0.39474 0.41482 0.0
C1789 C 0.83241 0.39758 0.41138 0.0
C1790 C 0.81714 0.3866 0.39035 0.0
C1791 C 0.82108 0.37266 0.3728 0.0
H1792 H 0.82931 0.40833 0.42496 0.0
H1793 H 0.86478 0.27087 0.25507 0.0
H1794 H 0.3344 0.81871 0.77592 0.0
H1795 H 0.32442 0.81523 0.72914 0.0
H1796 H 0.36688 0.88962 0.72013 0.0
H1797 H 0.37602 0.89339 0.76728 0.0
H1798 H 0.3275 0.87404 0.69342 0.0
H1799 H 0.38636 0.85283 0.69989 0.0
H1800 H 0.40508 0.83153 0.71731 0.0
H1801 H 0.34663 0.76683 0.69228 0.0
H1802 H 0.32741 0.78773 0.67502 0.0
H1803 H 0.32757 0.86949 0.55269 0.0
H1804 H 0.33926 0.8763 0.5992 0.0
H1805 H 0.29978 0.80233 0.6138 0.0
H1806 H 0.28878 0.79554 0.56708 0.0
H1807 H 0.33985 0.81987 0.6373 0.0
H1808 H 0.28052 0.842 0.63227 0.0
H1809 H 0.26291 0.8642 0.61434 0.0
H1810 H 0.32388 0.9283 0.63576 0.0
H1811 H 0.34194 0.90648 0.65361 0.0
C1812 C 0.34142 0.83438 0.76409 0.0
C1813 C 0.35617 0.85632 0.77536 0.0
C1814 C 0.33589 0.83233 0.73726 0.0
C1815 C 0.34525 0.85212 0.72101 0.0
C1816 C 0.35961 0.87409 0.73225 0.0
C1817 C 0.36503 0.87618 0.75916 0.0
C1818 C 0.34011 0.84979 0.69227 0.0
C1819 C 0.33048 0.86242 0.68106 0.0
C1820 C 0.34376 0.83445 0.67619 0.0
C1821 C 0.35536 0.82184 0.68636 0.0
C1822 C 0.37743 0.83405 0.69825 0.0
C1823 C 0.38814 0.82205 0.70808 0.0
C1824 C 0.37703 0.79784 0.70596 0.0
C1825 C 0.35521 0.78558 0.69393 0.0
C1826 C 0.34441 0.7975 0.6841 0.0
C1827 C 0.32129 0.85477 0.56597 0.0
C1828 C 0.30715 0.83203 0.5565 0.0
C1829 C 0.32791 0.85864 0.59251 0.0
C1830 C 0.32007 0.83985 0.61016 0.0
C1831 C 0.30602 0.81711 0.6006 0.0
C1832 C 0.29971 0.81322 0.57397 0.0
C1833 C 0.32677 0.84373 0.6385 0.0
C1834 C 0.33684 0.83147 0.64963 0.0
C1835 C 0.32365 0.85951 0.65443 0.0
C1836 C 0.31262 0.87261 0.64412 0.0
C1837 C 0.29019 0.86083 0.63308 0.0
C1838 C 0.28013 0.87335 0.62295 0.0
C1839 C 0.29226 0.89764 0.62394 0.0
C1840 C 0.31447 0.90948 0.63509 0.0
C1841 C 0.32462 0.89705 0.64523 0.0
H1842 H 0.28447 0.9073 0.61601 0.0
H1843 H 0.38535 0.78858 0.71358 0.0
H1844 H 0.15883 0.44269 0.56932 0.0
H1845 H 0.15041 0.44741 0.61513 0.0
H1846 H 0.15584 0.51316 0.59561 0.0
H1847 H 0.16334 0.50826 0.54951 0.0
H1848 H 0.1837 0.51421 0.63928 0.0
H1849 H 0.10218 0.4701 0.61035 0.0
H1850 H 0.06787 0.43645 0.59039 0.0
H1851 H 0.07647 0.39005 0.64201 0.0
H1852 H 0.11035 0.42341 0.66285 0.0
H1853 H 0.15035 0.53988 0.76106 0.0
H1854 H 0.15395 0.53293 0.71424 0.0
H1855 H 0.1295 0.46052 0.73121 0.0
H1856 H 0.12461 0.46731 0.77773 0.0
H1857 H 0.11127 0.46205 0.68825 0.0
H1858 H 0.18925 0.5029 0.71987 0.0
H1859 H 0.22386 0.53423 0.74199 0.0
H1860 H 0.22588 0.5838 0.686 0.0
H1861 H 0.19107 0.55281 0.66374 0.0
C1862 C 0.15779 0.45796 0.57455 0.0
C1863 C 0.16192 0.47517 0.55562 0.0
C1864 C 0.15303 0.46063 0.6008 0.0
C1865 C 0.15245 0.48059 0.60866 0.0
C1866 C 0.15629 0.49766 0.58988 0.0
C1867 C 0.16081 0.49491 0.5636 0.0
C1868 C 0.1493 0.48439 0.63678 0.0
C1869 C 0.16776 0.50305 0.64998 0.0
C1870 C 0.1289 0.46921 0.65086 0.0
C1871 C 0.10887 0.44919 0.63797 0.0
C1872 C 0.09682 0.4527 0.61731 0.0
C1873 C 0.07743 0.43371 0.6059 0.0
C1874 C 0.07019 0.41115 0.61468 0.0
C1875 C 0.08214 0.40753 0.63515 0.0
C1876 C 0.10132 0.42646 0.6469 0.0
C1877 C 0.14574 0.52252 0.75465 0.0
C1878 C 0.1373 0.50412 0.77279 0.0
C1879 C 0.14793 0.51855 0.72798 0.0
C1880 C 0.14248 0.49628 0.71918 0.0
C1881 C 0.13385 0.47785 0.73742 0.0
C1882 C 0.13111 0.48171 0.76396 0.0
C1883 C 0.14566 0.49215 0.691 0.0
C1884 C 0.12726 0.47334 0.67773 0.0
C1885 C 0.16643 0.50687 0.67702 0.0
C1886 C 0.18741 0.52556 0.6903 0.0
C1887 C 0.19698 0.52051 0.71239 0.0
C1888 C 0.21664 0.5382 0.72494 0.0
C1889 C 0.22703 0.561 0.71545 0.0
C1890 C 0.2178 0.56614 0.69335 0.0
C1891 C 0.19811 0.54851 0.68074 0.0
H1892 H 0.24225 0.57468 0.72519 0.0
H1893 H 0.05524 0.39649 0.60572 0.0
H1894 H 0.45147 0.61857 0.76074 0.0
H1895 H 0.45686 0.62943 0.71375 0.0
H1896 H 0.53124 0.66652 0.72465 0.0
H1897 H 0.52596 0.6552 0.77142 0.0
H1898 H 0.50814 0.69099 0.69679 0.0
H1899 H 0.51541 0.62161 0.69676 0.0
H1900 H 0.50176 0.58045 0.70702 0.0
H1901 H 0.43984 0.55968 0.66152 0.0
H1902 H 0.45298 0.6008 0.65133 0.0
H1903 H 0.54825 0.7173 0.56564 0.0
H1904 H 0.54209 0.70559 0.6118 0.0
H1905 H 0.4741 0.64815 0.59284 0.0
H1906 H 0.48091 0.65852 0.54626 0.0
H1907 H 0.49275 0.63362 0.62564 0.0
H1908 H 0.48346 0.70032 0.62388 0.0
H1909 H 0.49367 0.74076 0.61426 0.0
H1910 H 0.55431 0.76607 0.66334 0.0
H1911 H 0.54462 0.72577 0.67298 0.0
C1912 C 0.46893 0.62898 0.753 0.0
C1913 C 0.48833 0.63601 0.7695 0.0
C1914 C 0.47198 0.63513 0.72628 0.0
C1915 C 0.49444 0.64874 0.7159 0.0
C1916 C 0.5138 0.656 0.73241 0.0
C1917 C 0.51078 0.64945 0.75897 0.0
C1918 C 0.49773 0.65545 0.68775 0.0
C1919 C 0.50507 0.6786 0.68115 0.0
C1920 C 0.49288 0.63898 0.66754 0.0
C1921 C 0.48505 0.61428 0.67355 0.0
C1922 C 0.49877 0.60829 0.68917 0.0
C1923 C 0.49115 0.58496 0.69493 0.0
C1924 C 0.46991 0.56746 0.685 0.0
C1925 C 0.45627 0.57326 0.66924 0.0
C1926 C 0.4638 0.59656 0.66345 0.0
C1927 C 0.53211 0.70195 0.5711 0.0
C1928 C 0.51509 0.6889 0.552 0.0
C1929 C 0.52844 0.69549 0.59769 0.0
C1930 C 0.50743 0.67623 0.60598 0.0
C1931 C 0.49042 0.66316 0.58701 0.0
C1932 C 0.49425 0.66932 0.56034 0.0
C1933 C 0.50337 0.66942 0.63432 0.0
C1934 C 0.49582 0.64617 0.64108 0.0
C1935 C 0.50754 0.68574 0.65467 0.0
C1936 C 0.51343 0.71002 0.64895 0.0
C1937 C 0.49907 0.71451 0.63247 0.0
C1938 C 0.50474 0.73741 0.62704 0.0
C1939 C 0.52466 0.75597 0.63813 0.0
C1940 C 0.5389 0.75167 0.65474 0.0
C1941 C 0.53332 0.72881 0.66021 0.0
H1942 H 0.52902 0.77369 0.63391 0.0
H1943 H 0.46404 0.54941 0.68947 0.0
H1944 H 0.17455 0.04478 0.22666 0.0
H1945 H 0.15753 0.06959 0.23292 0.0
H1946 H 0.09024 0.009 0.24608 0.0
H1947 H 0.10726 0.98389 0.23996 0.0
H1948 H 0.0902 0.04028 0.20855 0.0
H1949 H 0.11547 0.04228 0.29683 0.0
H1950 H 0.1427 0.04621 0.33222 0.0
H1951 H 0.18958 0.11664 0.30846 0.0
H1952 H 0.1628 0.11304 0.27265 0.0
H1953 H 0.04941 0.12102 0.23327 0.0
H1954 H 0.05677 0.08854 0.23896 0.0
H1955 H 0.13043 0.1359 0.23056 0.0
H1956 H 0.12324 0.16833 0.22527 0.0
H1957 H 0.12079 0.10617 0.27178 0.0
H1958 H 0.09862 0.10272 0.18054 0.0
H1959 H 0.07355 0.09834 0.14254 0.0
H1960 H 0.02238 0.03049 0.16986 0.0
H1961 H 0.04691 0.03469 0.20841 0.0
C1962 C 0.15616 0.03671 0.23112 0.0
C1963 C 0.14223 0.01241 0.2328 0.0
C1964 C 0.1465 0.05092 0.23483 0.0
C1965 C 0.12268 0.04112 0.24016 0.0
C1966 C 0.10869 0.01686 0.24211 0.0
C1967 C 0.11844 0.00258 0.23872 0.0
C1968 C 0.11249 0.05645 0.24205 0.0
C1969 C 0.09636 0.05435 0.2228 0.0
C1970 C 0.12099 0.07501 0.26034 0.0
C1971 C 0.13715 0.07733 0.28194 0.0
C1972 C 0.13166 0.05856 0.29902 0.0
C1973 C 0.14701 0.06073 0.31918 0.0
C1974 C 0.16787 0.08165 0.32257 0.0
C1975 C 0.17341 0.10045 0.30582 0.0
C1976 C 0.15813 0.09836 0.2856 0.0
C1977 C 0.06717 0.1245 0.23291 0.0
C1978 C 0.08579 0.14722 0.2288 0.0
C1979 C 0.07132 0.10592 0.23595 0.0
C1980 C 0.09412 0.10981 0.23503 0.0
C1981 C 0.1127 0.13252 0.23133 0.0
C1982 C 0.10857 0.15101 0.22811 0.0
C1983 C 0.09896 0.09041 0.23778 0.0
C1984 C 0.11413 0.09177 0.25793 0.0
C1985 C 0.08966 0.07124 0.22019 0.0
C1986 C 0.07445 0.06919 0.19764 0.0
C1987 C 0.08185 0.08703 0.17872 0.0
C1988 C 0.06778 0.08453 0.15699 0.0
C1989 C 0.04639 0.06415 0.15377 0.0
C1990 C 0.03898 0.04625 0.17234 0.0
C1991 C 0.05292 0.04872 0.19419 0.0
H1992 H 0.03555 0.06224 0.13692 0.0
H1993 H 0.17973 0.08329 0.33819 0.0
H1994 H 0.0086 0.12621 0.26142 0.0
H1995 H 0.98324 0.08458 0.26989 0.0
H1996 H 0.92541 0.08778 0.23569 0.0
H1997 H 0.95039 0.12927 0.22754 0.0
H1998 H 0.91282 0.05973 0.28014 0.0
H1999 H 0.95785 0.07152 0.19838 0.0
H2000 H 0.99654 0.08962 0.17733 0.0
H2001 H 0.01665 0.05147 0.22909 0.0
H2002 H 0.97816 0.03339 0.25067 0.0
H2003 H 0.83147 0.95583 0.22359 0.0
H2004 H 0.86222 0.99517 0.23339 0.0
H2005 H 0.90703 0.96901 0.2582 0.0
H2006 H 0.8764 0.92933 0.24731 0.0
H2007 H 0.93069 0.00698 0.2285 0.0
H2008 H 0.88317 0.98854 0.30413 0.0
H2009 H 0.84703 0.97341 0.33005 0.0
H2010 H 0.83351 0.02449 0.29532 0.0
H2011 H 0.86939 0.03973 0.26888 0.0
C2012 C 0.99042 0.1181 0.256 0.0
C2013 C 0.98157 0.13101 0.24352 0.0
C2014 C 0.97597 0.09432 0.26085 0.0
C2015 C 0.95251 0.08306 0.25316 0.0
C2016 C 0.94345 0.09613 0.2418 0.0
C2017 C 0.95783 0.11984 0.23699 0.0
C2018 C 0.9376 0.05743 0.25481 0.0
C2019 C 0.91665 0.04814 0.26888 0.0
C2020 C 0.94312 0.04228 0.24097 0.0
C2021 C 0.96525 0.05126 0.22624 0.0
C2022 C 0.97049 0.0669 0.20514 0.0
C2023 C 0.9924 0.07721 0.19319 0.0
C2024 C 0.00909 0.07182 0.202 0.0
C2025 C 0.00374 0.0557 0.22237 0.0
C2026 C 0.98187 0.04538 0.23443 0.0
C2027 C 0.84787 0.95834 0.23096 0.0
C2028 C 0.85141 0.93936 0.23464 0.0
C2029 C 0.86539 0.98089 0.23689 0.0
C2030 C 0.88682 0.98505 0.24701 0.0
C2031 C 0.89056 0.96619 0.25064 0.0
C2032 C 0.87296 0.94351 0.24461 0.0
C2033 C 0.90527 0.00929 0.25293 0.0
C2034 C 0.92694 0.01836 0.24029 0.0
C2035 C 0.90055 0.02421 0.26846 0.0
C2036 C 0.87895 0.01521 0.28441 0.0
C2037 C 0.87242 0.99646 0.30188 0.0
C2038 C 0.85198 0.98787 0.31669 0.0
C2039 C 0.83797 0.99796 0.31431 0.0
C2040 C 0.84439 0.01669 0.29715 0.0
C2041 C 0.8648 0.02534 0.28228 0.0
H2042 H 0.82215 0.99128 0.32579 0.0
H2043 H 0.02619 0.08023 0.19313 0.0
H2044 H 0.87389 0.8813 0.2565 0.0
H2045 H 0.91557 0.89591 0.26254 0.0
H2046 H 0.90703 0.83139 0.23203 0.0
H2047 H 0.86554 0.81657 0.22637 0.0
H2048 H 0.93663 0.84686 0.2737 0.0
H2049 H 0.92474 0.87918 0.19237 0.0
H2050 H 0.91055 0.9017 0.16771 0.0
H2051 H 0.95405 0.96214 0.21446 0.0
H2052 H 0.96828 0.93985 0.23961 0.0
H2053 H 0.04205 0.86824 0.21818 0.0
H2054 H 0.00231 0.85908 0.22728 0.0
H2055 H 0.02739 0.92991 0.25201 0.0
H2056 H 0.06716 0.93947 0.24188 0.0
H2057 H 0.99089 0.91586 0.2208 0.0
H2058 H 0.00754 0.88575 0.29751 0.0
H2059 H 0.0214 0.8636 0.32339 0.0
H2060 H 0.96927 0.8 0.28779 0.0
H2061 H 0.9553 0.8218 0.26138 0.0
C2062 C 0.88085 0.87012 0.25142 0.0
C2063 C 0.86645 0.84785 0.24072 0.0
C2064 C 0.90467 0.87853 0.25481 0.0
C2065 C 0.91442 0.86482 0.24743 0.0
C2066 C 0.89987 0.84226 0.23784 0.0
C2067 C 0.87615 0.83386 0.23447 0.0
C2068 C 0.93989 0.8742 0.24804 0.0
C2069 C 0.94852 0.8619 0.2621 0.0
C2070 C 0.95548 0.89429 0.2336 0.0
C2071 C 0.94738 0.90781 0.21803 0.0
C2072 C 0.9312 0.89724 0.19745 0.0
C2073 C 0.92315 0.90996 0.18339 0.0
C2074 C 0.93135 0.93332 0.18957 0.0
C2075 C 0.9477 0.94403 0.20973 0.0
C2076 C 0.95576 0.93138 0.22388 0.0
C2077 C 0.03916 0.88192 0.22543 0.0
C2078 C 0.05788 0.90458 0.22931 0.0
C2079 C 0.01642 0.87659 0.23095 0.0
C2080 C 0.01188 0.89372 0.24073 0.0
C2081 C 0.03049 0.91637 0.24465 0.0
C2082 C 0.05327 0.92175 0.23905 0.0
C2083 C 0.98758 0.88806 0.2458 0.0
C2084 C 0.97916 0.90106 0.23283 0.0
C2085 C 0.97221 0.8687 0.2614 0.0
C2086 C 0.98047 0.85545 0.27733 0.0
C2087 C 0.99913 0.86706 0.29506 0.0
C2088 C 0.00699 0.85456 0.30984 0.0
C2089 C 0.99625 0.83042 0.3072 0.0
C2090 C 0.97758 0.81871 0.28981 0.0
C2091 C 0.96966 0.83113 0.27495 0.0
H2092 H 0.00236 0.82077 0.31867 0.0
H2093 H 0.92507 0.94312 0.17869 0.0
H2094 H 0.97207 0.0848 0.75847 0.0
H2095 H 0.00282 0.0758 0.74828 0.0
H2096 H 0.05468 0.14608 0.76923 0.0
H2097 H 0.02386 0.15533 0.7777 0.0
H2098 H 0.07015 0.13278 0.73021 0.0
H2099 H 0.03199 0.09595 0.81378 0.0
H2100 H 0.99757 0.06939 0.84022 0.0
H2101 H 0.98644 0.01207 0.79089 0.0
H2102 H 0.02069 0.03834 0.76405 0.0
H2103 H 0.16532 0.12472 0.77802 0.0
H2104 H 0.13142 0.12926 0.77126 0.0
H2105 H 0.09146 0.0577 0.74615 0.0
H2106 H 0.12505 0.05278 0.75382 0.0
H2107 H 0.06749 0.06729 0.78038 0.0
H2108 H 0.10891 0.10222 0.70151 0.0
H2109 H 0.14262 0.12807 0.67382 0.0
H2110 H 0.14712 0.18788 0.71219 0.0
H2111 H 0.11363 0.16238 0.7404 0.0
C2112 C 0.99008 0.09831 0.76051 0.0
C2113 C 0.99581 0.12065 0.76903 0.0
C2114 C 0.00763 0.09317 0.75484 0.0
C2115 C 0.03112 0.11007 0.7587 0.0
C2116 C 0.03673 0.1327 0.7662 0.0
C2117 C 0.01919 0.13799 0.77112 0.0
C2118 C 0.04987 0.10411 0.75649 0.0
C2119 C 0.06964 0.11856 0.74134 0.0
C2120 C 0.04888 0.08499 0.77015 0.0
C2121 C 0.02875 0.06913 0.7868 0.0
C2122 C 0.02217 0.07769 0.80857 0.0
C2123 C 0.00269 0.06269 0.82361 0.0
C2124 C 0.98979 0.03907 0.81719 0.0
C2125 C 0.99643 0.03037 0.79582 0.0
C2126 C 0.01589 0.04529 0.78072 0.0
C2127 C 0.14934 0.10994 0.77109 0.0
C2128 C 0.14797 0.0884 0.76649 0.0
C2129 C 0.13002 0.11263 0.76693 0.0
C2130 C 0.10896 0.0939 0.75786 0.0
C2131 C 0.10757 0.07243 0.753 0.0
C2132 C 0.12688 0.06971 0.7572 0.0
C2133 C 0.08813 0.0965 0.7549 0.0
C2134 C 0.06794 0.08136 0.769 0.0
C2135 C 0.08871 0.11491 0.74018 0.0
C2136 C 0.10883 0.13036 0.72321 0.0
C2137 C 0.11718 0.12088 0.70419 0.0
C2138 C 0.13624 0.13547 0.68837 0.0
C2139 C 0.14703 0.1596 0.69128 0.0
C2140 C 0.13875 0.16918 0.70997 0.0
C2141 C 0.11971 0.15467 0.72585 0.0
H2142 H 0.16179 0.17086 0.67902 0.0
H2143 H 0.97467 0.0275 0.82881 0.0
H2144 H 0.93525 0.06462 0.78281 0.0
H2145 H 0.9276 0.02461 0.78067 0.0
H2146 H 0.85687 0.00142 0.75683 0.0
H2147 H 0.86447 0.04156 0.75996 0.0
H2148 H 0.85798 0.97421 0.79383 0.0
H2149 H 0.90245 0.00725 0.71234 0.0
H2150 H 0.93739 0.03685 0.6889 0.0
H2151 H 0.98014 0.01829 0.73464 0.0
H2152 H 0.9455 0.98876 0.75855 0.0
H2153 H 0.82007 0.86062 0.75722 0.0
H2154 H 0.83286 0.90201 0.75427 0.0
H2155 H 0.90313 0.91887 0.77252 0.0
H2156 H 0.8905 0.87722 0.77381 0.0
H2157 H 0.90506 0.95008 0.74049 0.0
H2158 H 0.86515 0.91826 0.82093 0.0
H2159 H 0.83354 0.89071 0.85004 0.0
H2160 H 0.78639 0.90896 0.81372 0.0
H2161 H 0.81764 0.93638 0.78411 0.0
C2162 C 0.91823 0.05098 0.77667 0.0
C2163 C 0.90052 0.05607 0.77111 0.0
C2164 C 0.91385 0.02814 0.77545 0.0
C2165 C 0.89179 0.01003 0.76801 0.0
C2166 C 0.87406 0.01513 0.76247 0.0
C2167 C 0.87835 0.03797 0.76419 0.0
C2168 C 0.88683 0.98561 0.76702 0.0
C2169 C 0.86802 0.96887 0.78179 0.0
C2170 C 0.90076 0.97886 0.75252 0.0
C2171 C 0.9214 0.99587 0.73728 0.0
C2172 C 0.91931 0.00949 0.71738 0.0
C2173 C 0.93906 0.02628 0.70405 0.0
C2174 C 0.96098 0.02949 0.71034 0.0
C2175 C 0.96317 0.0158 0.72983 0.0
C2176 C 0.94347 0.999 0.74322 0.0
C2177 C 0.83832 0.8732 0.76014 0.0
C2178 C 0.85429 0.86587 0.76598 0.0
C2179 C 0.8456 0.89683 0.75864 0.0
C2180 C 0.86882 0.91359 0.76406 0.0
C2181 C 0.88509 0.90628 0.76849 0.0
C2182 C 0.87789 0.88253 0.76923 0.0
C2183 C 0.87559 0.93852 0.76651 0.0
C2184 C 0.89488 0.95537 0.75234 0.0
C2185 C 0.86253 0.94557 0.78222 0.0
C2186 C 0.8437 0.92924 0.80015 0.0
C2187 C 0.848 0.9163 0.81904 0.0
C2188 C 0.83015 0.90071 0.83564 0.0
C2189 C 0.80796 0.89806 0.83369 0.0
C2190 C 0.80359 0.91103 0.81519 0.0
C2191 C 0.82137 0.92661 0.79851 0.0
H2192 H 0.79416 0.88598 0.84655 0.0
H2193 H 0.97626 0.04257 0.70008 0.0
H2194 H 0.13536 0.95478 0.77045 0.0
H2195 H 0.09394 0.92857 0.76382 0.0
H2196 H 0.0862 0.98585 0.7363 0.0
H2197 H 0.12788 0.01246 0.74326 0.0
H2198 H 0.05355 0.96027 0.77221 0.0
H2199 H 0.08076 0.94442 0.69297 0.0
H2200 H 0.10555 0.93572 0.66445 0.0
H2201 H 0.08188 0.87075 0.70469 0.0
H2202 H 0.0572 0.8792 0.73373 0.0
H2203 H 0.93378 0.87375 0.75469 0.0
H2204 H 0.973 0.905 0.74401 0.0
H2205 H 0.00101 0.86208 0.77004 0.0
H2206 H 0.96191 0.83049 0.77961 0.0
H2207 H 0.02188 0.88456 0.72586 0.0
H2208 H 8e-05 0.90494 0.80969 0.0
H2209 H 0.97566 0.91436 0.83798 0.0
H2210 H 0.98934 0.9718 0.78743 0.0
H2211 H 0.01361 0.96251 0.75865 0.0
C2212 C 0.12496 0.96184 0.76275 0.0
C2213 C 0.13494 0.98572 0.7574 0.0
C2214 C 0.10126 0.94678 0.7588 0.0
C2215 C 0.087 0.95519 0.74924 0.0
C2216 C 0.09692 0.97898 0.74355 0.0
C2217 C 0.12073 0.99413 0.74746 0.0
C2218 C 0.06158 0.93912 0.74691 0.0
C2219 C 0.04653 0.94395 0.76155 0.0
C2220 C 0.05244 0.91777 0.73313 0.0
C2221 C 0.06719 0.91252 0.71563 0.0
C2222 C 0.08095 0.92834 0.69587 0.0
C2223 C 0.09497 0.92345 0.67959 0.0
C2224 C 0.09531 0.90271 0.68278 0.0
C2225 C 0.0816 0.88681 0.70223 0.0
C2226 C 0.06755 0.89162 0.71859 0.0
C2227 C 0.94822 0.8708 0.75776 0.0
C2228 C 0.94465 0.84958 0.7682 0.0
C2229 C 0.97068 0.8888 0.75186 0.0
C2230 C 0.98998 0.886 0.75654 0.0
C2231 C 0.98639 0.86467 0.76633 0.0
C2232 C 0.964 0.84667 0.77208 0.0
C2233 C 0.01408 0.9053 0.75207 0.0
C2234 C 0.02885 0.90109 0.73605 0.0
C2235 C 0.02292 0.92725 0.76447 0.0
C2236 C 0.0084 0.93285 0.78185 0.0
C2237 C 0.99773 0.91946 0.8045 0.0
C2238 C 0.98394 0.9248 0.82064 0.0
C2239 C 0.98088 0.94361 0.81445 0.0
C2240 C 0.99167 0.95719 0.79216 0.0
C2241 C 0.00544 0.9519 0.77594 0.0
H2242 H 0.9702 0.94772 0.82697 0.0
H2243 H 0.10618 0.89895 0.67015 0.0
H2244 H 0.78734 0.33242 0.5883 0.0
H2245 H 0.7729 0.35962 0.59485 0.0
H2246 H 0.84119 0.41726 0.57759 0.0
H2247 H 0.85572 0.39037 0.57114 0.0
H2248 H 0.82015 0.42672 0.61911 0.0
H2249 H 0.80144 0.39556 0.53002 0.0
H2250 H 0.78358 0.36363 0.49756 0.0
H2251 H 0.7163 0.34074 0.53161 0.0
H2252 H 0.73385 0.37239 0.56451 0.0
H2253 H 0.80489 0.51786 0.57013 0.0
H2254 H 0.81394 0.487 0.5785 0.0
H2255 H 0.74091 0.43769 0.5886 0.0
H2256 H 0.73169 0.46824 0.57936 0.0
H2257 H 0.76012 0.42083 0.55621 0.0
H2258 H 0.77809 0.45555 0.64146 0.0
H2259 H 0.79596 0.48725 0.67416 0.0
H2260 H 0.864 0.5032 0.64851 0.0
H2261 H 0.84655 0.4718 0.61537 0.0
C2262 C 0.79933 0.35091 0.58625 0.0
C2263 C 0.82262 0.35926 0.57897 0.0
C2264 C 0.79105 0.3664 0.58994 0.0
C2265 C 0.80596 0.39043 0.5865 0.0
C2266 C 0.82941 0.3988 0.58036 0.0
C2267 C 0.83764 0.38338 0.57651 0.0
C2268 C 0.79705 0.4069 0.58745 0.0
C2269 C 0.80707 0.42552 0.60535 0.0
C2270 C 0.77958 0.40494 0.56991 0.0
C2271 C 0.76898 0.38616 0.5499 0.0
C2272 C 0.78286 0.38362 0.53069 0.0
C2273 C 0.7728 0.36559 0.5122 0.0
C2274 C 0.74883 0.35012 0.51257 0.0
C2275 C 0.73487 0.35271 0.53137 0.0
C2276 C 0.74486 0.37069 0.54994 0.0
C2277 C 0.79077 0.50049 0.57426 0.0
C2278 C 0.76758 0.49559 0.57407 0.0
C2279 C 0.79597 0.48289 0.5793 0.0
C2280 C 0.77811 0.46005 0.58443 0.0
C2281 C 0.75498 0.4552 0.58481 0.0
C2282 C 0.74977 0.47278 0.57976 0.0
C2283 C 0.7835 0.44102 0.58761 0.0
C2284 C 0.77287 0.4219 0.57039 0.0
C2285 C 0.80038 0.44252 0.60583 0.0
C2286 C 0.81099 0.46141 0.62578 0.0
C2287 C 0.79686 0.46593 0.64264 0.0
C2288 C 0.80692 0.48383 0.66129 0.0
C2289 C 0.8311 0.49726 0.66338 0.0
C2290 C 0.84527 0.49278 0.64686 0.0
C2291 C 0.83531 0.47492 0.62816 0.0
H2292 H 0.83885 0.51111 0.67782 0.0
H2293 H 0.74107 0.33616 0.49825 0.0
H2294 H 0.64831 0.46836 0.57032 0.0
H2295 H 0.6172 0.42809 0.5758 0.0
H2296 H 0.664 0.4041 0.55142 0.0
H2297 H 0.69476 0.44439 0.54459 0.0
H2298 H 0.62603 0.37992 0.52761 0.0
H2299 H 0.6443 0.40106 0.61793 0.0
H2300 H 0.65182 0.42467 0.6582 0.0
H2301 H 0.58235 0.41356 0.65545 0.0
H2302 H 0.57451 0.39013 0.61493 0.0
H2303 H 0.54784 0.26244 0.56455 0.0
H2304 H 0.5813 0.30192 0.56751 0.0
H2305 H 0.53513 0.33001 0.56676 0.0
H2306 H 0.50156 0.2905 0.56366 0.0
H2307 H 0.57365 0.3507 0.60541 0.0
H2308 H 0.55799 0.33082 0.51222 0.0
H2309 H 0.55171 0.30561 0.47367 0.0
H2310 H 0.61913 0.31287 0.48503 0.0
H2311 H 0.62566 0.33788 0.5239 0.0
C2312 C 0.65199 0.45447 0.56642 0.0
C2313 C 0.67388 0.45942 0.55701 0.0
C2314 C 0.63424 0.43144 0.5697 0.0
C2315 C 0.63828 0.41295 0.5644 0.0
C2316 C 0.66039 0.418 0.55559 0.0
C2317 C 0.67797 0.44101 0.55174 0.0
C2318 C 0.61911 0.38841 0.5665 0.0
C2319 C 0.61491 0.37351 0.54489 0.0
C2320 C 0.60427 0.37995 0.58884 0.0
C2321 C 0.60889 0.394 0.61325 0.0
C2322 C 0.63068 0.40379 0.6258 0.0
C2323 C 0.63499 0.41712 0.64869 0.0
C2324 C 0.61759 0.42066 0.65934 0.0
C2325 C 0.59582 0.41082 0.64716 0.0
C2326 C 0.59142 0.39749 0.62424 0.0
C2327 C 0.54483 0.27701 0.56543 0.0
C2328 C 0.52215 0.27348 0.5638 0.0
C2329 C 0.56392 0.29951 0.56702 0.0
C2330 C 0.5606 0.31878 0.56728 0.0
C2331 C 0.53796 0.3153 0.56663 0.0
C2332 C 0.51888 0.29281 0.56466 0.0
C2333 C 0.5808 0.34264 0.56661 0.0
C2334 C 0.58506 0.35727 0.58838 0.0
C2335 C 0.59599 0.35075 0.5447 0.0
C2336 C 0.59221 0.33602 0.52111 0.0
C2337 C 0.5714 0.3269 0.50661 0.0
C2338 C 0.56781 0.31267 0.48469 0.0
C2339 C 0.58498 0.30759 0.47695 0.0
C2340 C 0.60582 0.31679 0.49107 0.0
C2341 C 0.60948 0.33101 0.51303 0.0
H2342 H 0.58217 0.29656 0.45998 0.0
H2343 H 0.62096 0.43098 0.67707 0.0
H2344 H 0.74117 0.28588 0.57612 0.0
H2345 H 0.70052 0.27622 0.58037 0.0
H2346 H 0.67784 0.20547 0.55743 0.0
H2347 H 0.71815 0.21478 0.55364 0.0
H2348 H 0.65548 0.22422 0.52976 0.0
H2349 H 0.67544 0.2189 0.62099 0.0
H2350 H 0.6985 0.23446 0.66174 0.0
H2351 H 0.68044 0.28816 0.66478 0.0
H2352 H 0.65751 0.27308 0.62383 0.0
H2353 H 0.53947 0.15527 0.56286 0.0
H2354 H 0.58167 0.1733 0.56397 0.0
H2355 H 0.58764 0.2385 0.58756 0.0
H2356 H 0.54516 0.22049 0.58671 0.0
H2357 H 0.61941 0.22907 0.61365 0.0
H2358 H 0.59622 0.23268 0.5259 0.0
H2359 H 0.57249 0.2175 0.48556 0.0
H2360 H 0.59695 0.16915 0.47501 0.0
H2361 H 0.62048 0.18371 0.5156 0.0
C2362 C 0.72754 0.2682 0.57234 0.0
C2363 C 0.73298 0.25113 0.56439 0.0
C2364 C 0.70432 0.26274 0.57467 0.0
C2365 C 0.68617 0.24013 0.56915 0.0
C2366 C 0.69157 0.22307 0.56155 0.0
C2367 C 0.71467 0.22846 0.55931 0.0
C2368 C 0.66144 0.23399 0.57082 0.0
C2369 C 0.64757 0.22517 0.54813 0.0
C2370 C 0.65132 0.23607 0.59454 0.0
C2371 C 0.665 0.24504 0.6192 0.0
C2372 C 0.67655 0.23414 0.63023 0.0
C2373 C 0.68956 0.24285 0.65339 0.0
C2374 C 0.69099 0.26233 0.6658 0.0
C2375 C 0.67935 0.2731 0.65512 0.0
C2376 C 0.66634 0.26448 0.63195 0.0
C2377 C 0.54967 0.17338 0.56858 0.0
C2378 C 0.53893 0.1865 0.5744 0.0
C2379 C 0.57382 0.18367 0.56916 0.0
C2380 C 0.58777 0.20733 0.57539 0.0
C2381 C 0.57716 0.22024 0.58259 0.0
C2382 C 0.55289 0.20991 0.58206 0.0
C2383 C 0.61339 0.21856 0.57283 0.0
C2384 C 0.6274 0.22843 0.59521 0.0
C2385 C 0.62375 0.21771 0.54873 0.0
C2386 C 0.61002 0.2092 0.52393 0.0
C2387 C 0.59644 0.21871 0.51508 0.0
C2388 C 0.58302 0.21022 0.49216 0.0
C2389 C 0.58318 0.19235 0.47775 0.0
C2390 C 0.59683 0.18298 0.4862 0.0
C2391 C 0.61023 0.19137 0.50916 0.0
H2392 H 0.57276 0.18578 0.46003 0.0
H2393 H 0.70107 0.26905 0.68372 0.0
H2394 H 0.83653 0.46403 0.10895 0.0
H2395 H 0.80411 0.47121 0.10397 0.0
H2396 H 0.75638 0.39736 0.09843 0.0
H2397 H 0.78895 0.39006 0.10331 0.0
H2398 H 0.74488 0.42207 0.06391 0.0
H2399 H 0.76067 0.42336 0.15556 0.0
H2400 H 0.78474 0.43411 0.19583 0.0
H2401 H 0.80574 0.50599 0.18358 0.0
H2402 H 0.78206 0.49572 0.14299 0.0
H2403 H 0.65142 0.44648 0.09072 0.0
H2404 H 0.67721 0.42995 0.09041 0.0
H2405 H 0.73672 0.49891 0.09814 0.0
H2406 H 0.71116 0.5154 0.099 0.0
H2407 H 0.73731 0.4699 0.13431 0.0
H2408 H 0.72238 0.46711 0.0397 0.0
H2409 H 0.69685 0.45459 0.00055 0.0
H2410 H 0.67184 0.38302 0.02038 0.0
H2411 H 0.69713 0.39514 0.05976 0.0
C2412 C 0.81915 0.44932 0.10666 0.0
C2413 C 0.81525 0.42649 0.10689 0.0
C2414 C 0.80065 0.45343 0.10374 0.0
C2415 C 0.7778 0.43479 0.10134 0.0
C2416 C 0.77388 0.41198 0.10035 0.0
C2417 C 0.79249 0.40785 0.10311 0.0
C2418 C 0.75814 0.43939 0.10118 0.0
C2419 C 0.74295 0.43223 0.07947 0.0
C2420 C 0.75556 0.4525 0.12157 0.0
C2421 C 0.7697 0.45878 0.14611 0.0
C2422 C 0.77054 0.44148 0.16135 0.0
C2423 C 0.7841 0.44749 0.18424 0.0
C2424 C 0.79679 0.47072 0.19223 0.0
C2425 C 0.7959 0.488 0.17736 0.0
C2426 C 0.78239 0.48209 0.15442 0.0
C2427 C 0.67003 0.45812 0.09192 0.0
C2428 C 0.67929 0.48224 0.09502 0.0
C2429 C 0.68473 0.44865 0.09173 0.0
C2430 C 0.70889 0.46322 0.09426 0.0
C2431 C 0.71812 0.48734 0.09633 0.0
C2432 C 0.70349 0.49675 0.09677 0.0
C2433 C 0.72475 0.45363 0.09641 0.0
C2434 C 0.73909 0.45963 0.11878 0.0
C2435 C 0.72626 0.43924 0.07679 0.0
C2436 C 0.71138 0.43203 0.05288 0.0
C2437 C 0.71131 0.44871 0.03581 0.0
C2438 C 0.69692 0.44168 0.01355 0.0
C2439 C 0.68266 0.41803 0.00804 0.0
C2440 C 0.68285 0.40134 0.02471 0.0
C2441 C 0.69722 0.40828 0.04698 0.0
H2442 H 0.67152 0.41262 0.9908 0.0
H2443 H 0.80728 0.47534 0.20996 0.0
H2444 H 0.5102 0.20863 0.14427 0.0
H2445 H 0.52406 0.24972 0.13759 0.0
H2446 H 0.56275 0.24991 0.06902 0.0
H2447 H 0.54925 0.20835 0.07605 0.0
H2448 H 0.58705 0.29004 0.09849 0.0
H2449 H 0.51199 0.24812 0.05994 0.0
H2450 H 0.47053 0.21812 0.05727 0.0
H2451 H 0.45545 0.24876 0.12357 0.0
H2452 H 0.49688 0.27874 0.12691 0.0
H2453 H 0.59463 0.40152 0.07087 0.0
H2454 H 0.58777 0.36194 0.06558 0.0
H2455 H 0.54799 0.34153 0.13776 0.0
H2456 H 0.55513 0.3809 0.14363 0.0
H2457 H 0.52554 0.31172 0.09591 0.0
H2458 H 0.60261 0.3518 0.13573 0.0
H2459 H 0.64412 0.38185 0.13663 0.0
H2460 H 0.65552 0.35477 0.06467 0.0
H2461 H 0.61395 0.32485 0.06302 0.0
C2462 C 0.52168 0.2173 0.12774 0.0
C2463 C 0.5283 0.20511 0.1104 0.0
C2464 C 0.5296 0.24085 0.12395 0.0
C2465 C 0.54397 0.25276 0.10243 0.0
C2466 C 0.55148 0.24098 0.08562 0.0
C2467 C 0.5437 0.21727 0.08959 0.0
C2468 C 0.55015 0.27724 0.09747 0.0
C2469 C 0.57364 0.2948 0.09735 0.0
C2470 C 0.53265 0.28344 0.09589 0.0
C2471 C 0.50759 0.26564 0.09373 0.0
C2472 C 0.49986 0.2484 0.07404 0.0
C2473 C 0.47635 0.2314 0.0724 0.0
C2474 C 0.46037 0.23152 0.09026 0.0
C2475 C 0.46785 0.24869 0.10975 0.0
C2476 C 0.49134 0.26572 0.11149 0.0
C2477 C 0.58462 0.38873 0.0858 0.0
C2478 C 0.57535 0.39456 0.10766 0.0
C2479 C 0.58069 0.36608 0.08267 0.0
C2480 C 0.5674 0.34883 0.10129 0.0
C2481 C 0.55819 0.35457 0.12307 0.0
C2482 C 0.5622 0.37714 0.1263 0.0
C2483 C 0.56236 0.32454 0.09815 0.0
C2484 C 0.53899 0.30697 0.09655 0.0
C2485 C 0.58 0.31847 0.09779 0.0
C2486 C 0.60506 0.3363 0.09903 0.0
C2487 C 0.6139 0.3524 0.11993 0.0
C2488 C 0.63745 0.3694 0.1206 0.0
C2489 C 0.65243 0.37031 0.10065 0.0
C2490 C 0.64389 0.35413 0.08005 0.0
C2491 C 0.62033 0.33715 0.07923 0.0
H2492 H 0.67065 0.38349 0.10123 0.0
H2493 H 0.44218 0.21833 0.08897 0.0
H2494 H 0.79884 0.29378 0.1303 0.0
H2495 H 0.75823 0.26575 0.12203 0.0
H2496 H 0.75399 0.31308 0.0669 0.0
H2497 H 0.79489 0.34184 0.07578 0.0
H2498 H 0.71626 0.29327 0.09702 0.0
H2499 H 0.75556 0.26496 0.04446 0.0
H2500 H 0.78467 0.25362 0.03326 0.0
H2501 H 0.75622 0.20004 0.09231 0.0
H2502 H 0.72715 0.21126 0.10416 0.0
H2503 H 0.60229 0.19468 0.06903 0.0
H2504 H 0.64211 0.2264 0.062 0.0
H2505 H 0.66603 0.19963 0.12472 0.0
H2506 H 0.62647 0.16833 0.13234 0.0
H2507 H 0.69319 0.21093 0.07952 0.0
H2508 H 0.65706 0.24466 0.13478 0.0
H2509 H 0.62787 0.25642 0.14372 0.0
H2510 H 0.65026 0.30028 0.07507 0.0
H2511 H 0.67934 0.28845 0.06545 0.0
C2512 C 0.7894 0.29829 0.1163 0.0
C2513 C 0.80018 0.31998 0.10352 0.0
C2514 C 0.76614 0.28215 0.11149 0.0
C2515 C 0.75317 0.28707 0.09337 0.0
C2516 C 0.76373 0.30885 0.08079 0.0
C2517 C 0.78708 0.32521 0.08583 0.0
C2518 C 0.72849 0.26939 0.08835 0.0
C2519 C 0.71121 0.27536 0.09259 0.0
C2520 C 0.72186 0.24603 0.08245 0.0
C2521 C 0.73921 0.23904 0.07527 0.0
C2522 C 0.75558 0.25084 0.05517 0.0
C2523 C 0.77208 0.24443 0.04869 0.0
C2524 C 0.77231 0.22614 0.06208 0.0
C2525 C 0.75602 0.21419 0.08194 0.0
C2526 C 0.73949 0.22055 0.08852 0.0
C2527 C 0.61595 0.19559 0.08148 0.0
C2528 C 0.61103 0.17885 0.10133 0.0
C2529 C 0.63872 0.21371 0.07734 0.0
C2530 C 0.65695 0.21538 0.09292 0.0
C2531 C 0.65219 0.19856 0.11239 0.0
C2532 C 0.6295 0.18056 0.11664 0.0
C2533 C 0.68113 0.23464 0.08941 0.0
C2534 C 0.69829 0.22894 0.0834 0.0
C2535 C 0.68755 0.25824 0.09324 0.0
C2536 C 0.67017 0.26543 0.0992 0.0
C2537 C 0.65562 0.25664 0.12145 0.0
C2538 C 0.63911 0.26334 0.12666 0.0
C2539 C 0.63714 0.27901 0.10991 0.0
C2540 C 0.65175 0.28808 0.08797 0.0
C2541 C 0.66824 0.28138 0.08263 0.0
H2542 H 0.62436 0.28418 0.11398 0.0
H2543 H 0.7851 0.22121 0.05704 0.0
H2544 H 0.39657 0.7969 0.90743 0.0
H2545 H 0.40505 0.76523 0.91095 0.0
H2546 H 0.47838 0.8144 0.90354 0.0
H2547 H 0.47003 0.84625 0.90015 0.0
H2548 H 0.46405 0.77886 0.86893 0.0
H2549 H 0.45437 0.78686 0.96234 0.0
H2550 H 0.43325 0.78831 0.00171 0.0
H2551 H 0.37771 0.71907 0.98558 0.0
H2552 H 0.39836 0.71731 0.9459 0.0
H2553 H 0.51373 0.71037 0.89208 0.0
H2554 H 0.50161 0.73918 0.89804 0.0
H2555 H 0.43047 0.68428 0.90793 0.0
H2556 H 0.44274 0.65515 0.90276 0.0
H2557 H 0.44048 0.72038 0.94067 0.0
H2558 H 0.44871 0.71109 0.84878 0.0
H2559 H 0.46805 0.70835 0.80847 0.0
H2560 H 0.52351 0.77856 0.81979 0.0
H2561 H 0.50468 0.7816 0.86043 0.0
C2562 C 0.41455 0.8011 0.9072 0.0
C2563 C 0.43264 0.82418 0.90344 0.0
C2564 C 0.41936 0.78291 0.90915 0.0
C2565 C 0.44235 0.78744 0.90758 0.0
C2566 C 0.46049 0.81051 0.90471 0.0
C2567 C 0.4557 0.82869 0.90271 0.0
C2568 C 0.44746 0.76808 0.90693 0.0
C2569 C 0.4592 0.7663 0.88482 0.0
C2570 C 0.44016 0.75104 0.92708 0.0
C2571 C 0.42781 0.75205 0.95101 0.0
C2572 C 0.43757 0.77201 0.96707 0.0
C2573 C 0.4257 0.77288 0.98947 0.0
C2574 C 0.40413 0.75382 0.99611 0.0
C2575 C 0.39441 0.73383 0.9804 0.0
C2576 C 0.4062 0.73288 0.95797 0.0
C2577 C 0.49552 0.7044 0.89575 0.0
C2578 C 0.47913 0.68053 0.89664 0.0
C2579 C 0.48861 0.72088 0.8991 0.0
C2580 C 0.46506 0.7139 0.90279 0.0
C2581 C 0.44872 0.69005 0.90495 0.0
C2582 C 0.45573 0.67345 0.90198 0.0
C2583 C 0.45767 0.73164 0.90303 0.0
C2584 C 0.44533 0.73299 0.92483 0.0
C2585 C 0.4641 0.74815 0.8824 0.0
C2586 C 0.47536 0.7465 0.85778 0.0
C2587 C 0.4651 0.7259 0.84277 0.0
C2588 C 0.47597 0.7243 0.81985 0.0
C2589 C 0.49701 0.74326 0.8116 0.0
C2590 C 0.50721 0.76388 0.82622 0.0
C2591 C 0.49644 0.76556 0.84918 0.0
H2592 H 0.5054 0.74198 0.79385 0.0
H2593 H 0.39496 0.75452 0.01345 0.0
H2594 H 0.35477 0.77377 0.88305 0.0
H2595 H 0.32119 0.73466 0.88733 0.0
H2596 H 0.27903 0.76388 0.91244 0.0
H2597 H 0.31302 0.80307 0.90948 0.0
H2598 H 0.2657 0.72535 0.93791 0.0
H2599 H 0.27954 0.74688 0.84702 0.0
H2600 H 0.30247 0.76119 0.80601 0.0
H2601 H 0.31472 0.7035 0.80673 0.0
H2602 H 0.29214 0.68902 0.84798 0.0
H2603 H 0.15783 0.62506 0.89664 0.0
H2604 H 0.19141 0.66455 0.90047 0.0
H2605 H 0.23777 0.63693 0.89357 0.0
H2606 H 0.20437 0.59756 0.88982 0.0
H2607 H 0.24766 0.67485 0.85894 0.0
H2608 H 0.23177 0.65383 0.95128 0.0
H2609 H 0.20685 0.64041 0.99091 0.0
H2610 H 0.19538 0.69843 0.9848 0.0
H2611 H 0.21998 0.71202 0.94489 0.0
C2612 C 0.3384 0.7718 0.88985 0.0
C2613 C 0.33638 0.79137 0.89572 0.0
C2614 C 0.31919 0.74947 0.89214 0.0
C2615 C 0.29738 0.74633 0.89945 0.0
C2616 C 0.29562 0.76585 0.90659 0.0
C2617 C 0.31502 0.78822 0.9049 0.0
C2618 C 0.27631 0.72282 0.89837 0.0
C2619 C 0.26163 0.71444 0.92051 0.0
C2620 C 0.27093 0.70848 0.87569 0.0
C2621 C 0.28432 0.71698 0.85072 0.0
C2622 C 0.28724 0.73732 0.83851 0.0
C2623 C 0.30017 0.74546 0.81522 0.0
C2624 C 0.31008 0.73329 0.8038 0.0
C2625 C 0.30704 0.71292 0.81561 0.0
C2626 C 0.29417 0.70473 0.83894 0.0
C2627 C 0.1752 0.62747 0.89601 0.0
C2628 C 0.17851 0.60827 0.89301 0.0
C2629 C 0.19432 0.64995 0.89834 0.0
C2630 C 0.21702 0.65357 0.89741 0.0
C2631 C 0.22036 0.63444 0.89443 0.0
C2632 C 0.20129 0.61198 0.89246 0.0
C2633 C 0.23738 0.67737 0.89855 0.0
C2634 C 0.25182 0.68581 0.87631 0.0
C2635 C 0.24219 0.6919 0.92087 0.0
C2636 C 0.22752 0.68381 0.94495 0.0
C2637 C 0.22377 0.66361 0.95825 0.0
C2638 C 0.20974 0.656 0.98079 0.0
C2639 C 0.19949 0.66852 0.99033 0.0
C2640 C 0.2033 0.68873 0.97738 0.0
C2641 C 0.21731 0.6964 0.95481 0.0
H2642 H 0.18863 0.66259 0.00778 0.0
H2643 H 0.32009 0.73961 0.78577 0.0
H2644 H 0.20019 0.49915 0.86531 0.0
H2645 H 0.24115 0.51296 0.8729 0.0
H2646 H 0.24317 0.56053 0.93235 0.0
H2647 H 0.20185 0.54709 0.92428 0.0
H2648 H 0.28159 0.58103 0.9019 0.0
H2649 H 0.24304 0.51129 0.95113 0.0
H2650 H 0.21428 0.47027 0.96035 0.0
H2651 H 0.24357 0.44831 0.89885 0.0
H2652 H 0.27229 0.48921 0.88896 0.0
H2653 H 0.39646 0.59564 0.92665 0.0
H2654 H 0.35678 0.58772 0.93471 0.0
H2655 H 0.3323 0.54046 0.8686 0.0
H2656 H 0.37161 0.54863 0.8599 0.0
H2657 H 0.30591 0.52212 0.91476 0.0
H2658 H 0.34036 0.59384 0.86234 0.0
H2659 H 0.36949 0.63514 0.85519 0.0
H2660 H 0.34827 0.65353 0.92709 0.0
H2661 H 0.31921 0.61225 0.93485 0.0
C2662 C 0.20922 0.51251 0.88007 0.0
C2663 C 0.19766 0.52183 0.89441 0.0
C2664 C 0.23269 0.52035 0.88447 0.0
C2665 C 0.24512 0.5374 0.90364 0.0
C2666 C 0.23385 0.54721 0.91763 0.0
C2667 C 0.21025 0.53947 0.91305 0.0
C2668 C 0.2699 0.54473 0.90856 0.0
C2669 C 0.28691 0.56823 0.90533 0.0
C2670 C 0.27689 0.52807 0.91322 0.0
C2671 C 0.25979 0.50337 0.91925 0.0
C2672 C 0.24328 0.49773 0.93947 0.0
C2673 C 0.22698 0.47449 0.94482 0.0
C2674 C 0.22709 0.45669 0.93018 0.0
C2675 C 0.24352 0.46211 0.91019 0.0
C2676 C 0.25985 0.48532 0.90473 0.0
C2677 C 0.38271 0.58373 0.91366 0.0
C2678 C 0.38738 0.57268 0.89268 0.0
C2679 C 0.36002 0.57917 0.91839 0.0
C2680 C 0.34164 0.56346 0.90229 0.0
C2681 C 0.34623 0.55248 0.88141 0.0
C2682 C 0.3688 0.55712 0.87656 0.0
C2683 C 0.31743 0.55812 0.90678 0.0
C2684 C 0.30054 0.53496 0.91195 0.0
C2685 C 0.31066 0.57513 0.9043 0.0
C2686 C 0.32782 0.59994 0.89933 0.0
C2687 C 0.34202 0.60667 0.87672 0.0
C2688 C 0.3585 0.63008 0.87254 0.0
C2689 C 0.36079 0.64694 0.89072 0.0
C2690 C 0.34652 0.64044 0.91306 0.0
C2691 C 0.33004 0.61705 0.91734 0.0
H2692 H 0.37358 0.66505 0.88748 0.0
H2693 H 0.21445 0.43871 0.93435 0.0
H2694 H 0.37675 0.84208 0.44601 0.0
H2695 H 0.40198 0.82606 0.43755 0.0
H2696 H 0.34498 0.76562 0.40122 0.0
H2697 H 0.31926 0.78149 0.41005 0.0
H2698 H 0.36852 0.75326 0.43434 0.0
H2699 H 0.38855 0.80516 0.36278 0.0
H2700 H 0.39877 0.8416 0.33935 0.0
H2701 H 0.4619 0.87768 0.38427 0.0
H2702 H 0.45191 0.84154 0.40827 0.0
H2703 H 0.45768 0.72337 0.41298 0.0
H2704 H 0.42628 0.73137 0.40363 0.0
H2705 H 0.46642 0.79938 0.43879 0.0
H2706 H 0.49828 0.79208 0.44685 0.0
H2707 H 0.44669 0.80207 0.39485 0.0
H2708 H 0.42038 0.74908 0.47166 0.0
H2709 H 0.40879 0.71147 0.49322 0.0
H2710 H 0.3562 0.67591 0.43422 0.0
H2711 H 0.36758 0.71327 0.41225 0.0
C2712 C 0.36951 0.82544 0.43607 0.0
C2713 C 0.34597 0.8131 0.42866 0.0
C2714 C 0.38404 0.81635 0.4311 0.0
C2715 C 0.37548 0.79481 0.41836 0.0
C2716 C 0.35197 0.78235 0.41092 0.0
C2717 C 0.33733 0.79147 0.41591 0.0
C2718 C 0.39121 0.78527 0.41399 0.0
C2719 C 0.38544 0.7637 0.4252 0.0
C2720 C 0.4132 0.79877 0.40186 0.0
C2721 C 0.41941 0.82061 0.38742 0.0
C2722 C 0.40454 0.82089 0.36779 0.0
C2723 C 0.41031 0.8415 0.35439 0.0
C2724 C 0.43096 0.86195 0.36034 0.0
C2725 C 0.44591 0.86182 0.37968 0.0
C2726 C 0.44022 0.84127 0.39316 0.0
C2727 C 0.46003 0.74017 0.41839 0.0
C2728 C 0.48062 0.75705 0.43084 0.0
C2729 C 0.44188 0.7446 0.41328 0.0
C2730 C 0.44383 0.76585 0.42083 0.0
C2731 C 0.46446 0.78281 0.43283 0.0
C2732 C 0.48264 0.7785 0.4377 0.0
C2733 C 0.42457 0.7708 0.41667 0.0
C2734 C 0.42963 0.79145 0.40358 0.0
C2735 C 0.40186 0.75628 0.42675 0.0
C2736 C 0.39501 0.73392 0.44016 0.0
C2737 C 0.40643 0.73321 0.46322 0.0
C2738 C 0.39987 0.71194 0.47554 0.0
C2739 C 0.3818 0.69129 0.46506 0.0
C2740 C 0.37021 0.69189 0.4423 0.0
C2741 C 0.3767 0.7131 0.42993 0.0
H2742 H 0.37674 0.67484 0.4746 0.0
H2743 H 0.4354 0.87789 0.34994 0.0
H2744 H 0.15945 0.5352 0.46049 0.0
H2745 H 0.1746 0.57669 0.45537 0.0
H2746 H 0.226 0.58071 0.40014 0.0
H2747 H 0.21129 0.53888 0.40591 0.0
H2748 H 0.24505 0.61681 0.4328 0.0
H2749 H 0.17814 0.58329 0.37828 0.0
H2750 H 0.13737 0.55644 0.36582 0.0
H2751 H 0.11402 0.58453 0.42725 0.0
H2752 H 0.15464 0.61132 0.44035 0.0
H2753 H 0.26433 0.73365 0.40654 0.0
H2754 H 0.25608 0.69374 0.39998 0.0
H2755 H 0.20746 0.67083 0.46473 0.0
H2756 H 0.216 0.71043 0.47215 0.0
H2757 H 0.18976 0.64529 0.41713 0.0
H2758 H 0.25849 0.6762 0.4734 0.0
H2759 H 0.29976 0.70284 0.48401 0.0
H2760 H 0.32035 0.67985 0.41514 0.0
H2761 H 0.27916 0.65334 0.40387 0.0
C2762 C 0.17389 0.54479 0.4471 0.0
C2763 C 0.18399 0.53367 0.43337 0.0
C2764 C 0.1825 0.56857 0.44412 0.0
C2765 C 0.2011 0.58176 0.42689 0.0
C2766 C 0.21151 0.57083 0.41337 0.0
C2767 C 0.20303 0.54694 0.4166 0.0
C2768 C 0.20959 0.60698 0.42363 0.0
C2769 C 0.23308 0.62307 0.42878 0.0
C2770 C 0.19399 0.61519 0.41833 0.0
C2771 C 0.16948 0.59926 0.41036 0.0
C2772 C 0.16432 0.58366 0.38923 0.0
C2773 C 0.14122 0.56846 0.38204 0.0
C2774 C 0.12311 0.56876 0.39575 0.0
C2775 C 0.12806 0.58432 0.41664 0.0
C2776 C 0.15113 0.59955 0.42392 0.0
C2777 C 0.25209 0.72027 0.41966 0.0
C2778 C 0.24073 0.7255 0.43981 0.0
C2779 C 0.24738 0.69742 0.41578 0.0
C2780 C 0.23114 0.6794 0.43185 0.0
C2781 C 0.21995 0.68452 0.45202 0.0
C2782 C 0.22479 0.70727 0.45609 0.0
C2783 C 0.2249 0.65492 0.42739 0.0
C2784 C 0.20181 0.63901 0.42061 0.0
C2785 C 0.24096 0.64701 0.43076 0.0
C2786 C 0.26571 0.66306 0.43755 0.0
C2787 C 0.27179 0.67703 0.46033 0.0
C2788 C 0.29519 0.69206 0.46651 0.0
C2789 C 0.31267 0.69312 0.4502 0.0
C2790 C 0.3068 0.67908 0.42772 0.0
C2791 C 0.28343 0.66405 0.42143 0.0
H2792 H 0.33076 0.70478 0.45504 0.0
H2793 H 0.10524 0.55697 0.39017 0.0
H2794 H 0.46236 0.62059 0.43678 0.0
H2795 H 0.42081 0.5952 0.43023 0.0
H2796 H 0.4148 0.65339 0.40227 0.0
H2797 H 0.45667 0.67921 0.40917 0.0
H2798 H 0.38164 0.62825 0.43803 0.0
H2799 H 0.40822 0.61171 0.35904 0.0
H2800 H 0.43261 0.60265 0.33031 0.0
H2801 H 0.40844 0.53757 0.37045 0.0
H2802 H 0.38415 0.54637 0.39972 0.0
H2803 H 0.26141 0.54101 0.42091 0.0
H2804 H 0.30057 0.57258 0.41065 0.0
H2805 H 0.32906 0.5303 0.43751 0.0
H2806 H 0.29002 0.4984 0.44675 0.0
H2807 H 0.34917 0.55209 0.39248 0.0
H2808 H 0.32801 0.57362 0.47621 0.0
H2809 H 0.30404 0.58377 0.50434 0.0
H2810 H 0.31801 0.64074 0.45287 0.0
H2811 H 0.34189 0.63076 0.42427 0.0
C2812 C 0.45231 0.62803 0.42902 0.0
C2813 C 0.46283 0.65192 0.42349 0.0
C2814 C 0.42854 0.61343 0.42511 0.0
C2815 C 0.41475 0.62233 0.41541 0.0
C2816 C 0.42518 0.64616 0.40961 0.0
C2817 C 0.44909 0.66084 0.41347 0.0
C2818 C 0.38927 0.60668 0.41295 0.0
C2819 C 0.37443 0.61182 0.42755 0.0
C2820 C 0.3799 0.58526 0.39929 0.0
C2821 C 0.39441 0.57977 0.38168 0.0
C2822 C 0.40821 0.59553 0.36187 0.0
C2823 C 0.42201 0.59043 0.34547 0.0
C2824 C 0.42209 0.56956 0.34857 0.0
C2825 C 0.40835 0.55373 0.36807 0.0
C2826 C 0.39452 0.55875 0.38454 0.0
C2827 C 0.27596 0.53828 0.4243 0.0
C2828 C 0.27252 0.51711 0.43476 0.0
C2829 C 0.29837 0.55647 0.41866 0.0
C2830 C 0.31776 0.55389 0.42356 0.0
C2831 C 0.31435 0.5327 0.4336 0.0
C2832 C 0.292 0.51452 0.43914 0.0
C2833 C 0.34178 0.57316 0.41866 0.0
C2834 C 0.35631 0.56872 0.40251 0.0
C2835 C 0.35079 0.59529 0.43069 0.0
C2836 C 0.33645 0.60124 0.44792 0.0
C2837 C 0.32581 0.58819 0.47078 0.0
C2838 C 0.31228 0.59394 0.48683 0.0
C2839 C 0.30944 0.61284 0.48034 0.0
C2840 C 0.32019 0.62608 0.45784 0.0
C2841 C 0.33373 0.62039 0.44171 0.0
H2842 H 0.29896 0.61726 0.49279 0.0
H2843 H 0.43279 0.56564 0.33585 0.0
loop_
_geom_bond_atom_site_label_1
_geom_bond_atom_site_label_2
_geom_bond_distance
_geom_bond_site_symmetry_2
_ccdc_geom_bond_type
Co0 N4 2.148 1_455 S
Co0 N10 2.128 . S
Co0 N20 2.194 . S
Co0 O25 2.351 . S
Co0 O26 2.155 . S
Co0 O27 2.094 1_455 S
C1 N4 1.301 . S
C1 N5 1.328 . S
C1 H6 0.930 1_655 S
C2 C3 1.333 . S
C2 N4 1.317 . S
C2 H7 0.930 . S
C3 C2 1.333 . S
C3 N5 1.350 . S
C3 H29 0.931 . S
N4 Co0 2.148 1_655 S
N4 C1 1.301 . S
N4 C2 1.317 . S
N5 C1 1.328 . S
N5 C3 1.350 . S
H6 C1 0.930 1_455 S
H7 C2 0.930 . S
C8 O9 1.224 . S
C8 O27 1.248 . S
O9 C8 1.224 . S
N10 Co0 2.128 . S
N10 C11 1.355 . S
N10 C13 1.311 . S
C11 N10 1.355 . S
C11 C12 1.363 . S
C11 H23 0.929 . S
C12 C11 1.363 . S
C12 N14 1.375 . S
C12 H30 0.931 . S
C13 N10 1.311 . S
C13 N14 1.347 . S
C13 H24 0.929 . S
N14 C12 1.375 . S
N14 C13 1.347 . S
C15 C18 1.365 . S
C15 N20 1.328 . S
C15 H21 0.929 . S
C16 C17 1.362 . S
C16 C19 1.378 . S
C16 H31 0.929 . S
C17 C16 1.362 . S
C17 C18 1.366 . S
C18 C15 1.365 . S
C18 C17 1.366 . S
C18 H32 0.930 . S
C19 C16 1.378 . S
C19 N20 1.315 . S
C19 H22 0.930 . S
N20 Co0 2.194 . S
N20 C15 1.328 . S
N20 C19 1.315 . S
H21 C15 0.929 . S
H22 C19 0.930 . S
H23 C11 0.929 . S
H24 C13 0.929 . S
O25 Co0 2.351 . S
O25 C28 1.244 . S
O26 Co0 2.155 . S
O26 C28 1.240 . S
O27 Co0 2.094 1_655 S
O27 C8 1.248 . S
C28 O25 1.244 . S
C28 O26 1.240 . S
H29 C3 0.931 . S
H30 C12 0.931 . S
H31 C16 0.929 . S
H32 C18 0.930 . S
Co33 N37 2.148 . S
Co33 N43 2.128 . S
Co33 N53 2.194 . S
Co33 O58 2.351 . S
Co33 O59 2.155 . S
Co33 O60 2.096 . S
C34 N37 1.301 . S
C34 N38 1.328 . S
C34 H39 0.930 . S
C35 C36 1.333 . S
C35 N37 1.317 . S
C35 H40 0.930 . S
C36 C35 1.333 . S
C36 N38 1.350 . S
C36 H62 0.931 . S
N37 Co33 2.148 . S
N37 C34 1.301 . S
N37 C35 1.317 . S
N38 C34 1.328 . S
N38 C36 1.350 . S
H39 C34 0.930 . S
H40 C35 0.930 . S
C41 O42 1.224 . S
C41 O60 1.247 . S
O42 C41 1.224 . S
N43 Co33 2.128 . S
N43 C44 1.355 . S
N43 C46 1.311 . S
C44 N43 1.355 . S
C44 C45 1.363 . S
C44 H56 0.929 . S
C45 C44 1.363 . S
C45 N47 1.375 . S
C45 H63 0.931 . S
C46 N43 1.311 . S
C46 N47 1.347 . S
C46 H57 0.929 . S
N47 C45 1.375 . S
N47 C46 1.347 . S
C48 C51 1.365 . S
C48 N53 1.328 . S
C48 H54 0.929 . S
C49 C50 1.362 . S
C49 C52 1.378 . S
C49 H64 0.929 . S
C50 C49 1.362 . S
C50 C51 1.366 . S
C51 C48 1.365 . S
C51 C50 1.366 . S
C51 H65 0.930 . S
C52 C49 1.378 . S
C52 N53 1.315 . S
C52 H55 0.930 . S
N53 Co33 2.194 . S
N53 C48 1.328 . S
N53 C52 1.315 . S
H54 C48 0.929 . S
H55 C52 0.930 . S
H56 C44 0.929 . S
H57 C46 0.929 . S
O58 Co33 2.351 . S
O58 C61 1.244 . S
O59 Co33 2.155 . S
O59 C61 1.240 . S
O60 Co33 2.096 . S
O60 C41 1.247 . S
C61 O58 1.244 . S
C61 O59 1.240 . S
H62 C36 0.931 . S
H63 C45 0.931 . S
H64 C49 0.929 . S
H65 C51 0.930 . S
Co66 N70 2.148 1_565 S
Co66 N76 2.128 . S
Co66 N86 2.194 . S
Co66 O91 2.351 . S
Co66 O92 2.155 . S
Co66 O93 2.096 1_565 S
C67 N70 1.301 . S
C67 N71 1.328 . S
C67 H72 0.930 1_545 S
C68 C69 1.333 . S
C68 N70 1.317 . S
C68 H73 0.930 . S
C69 C68 1.333 . S
C69 N71 1.350 . S
C69 H95 0.931 . S
N70 Co66 2.148 1_545 S
N70 C67 1.301 . S
N70 C68 1.317 . S
N71 C67 1.328 . S
N71 C69 1.350 . S
H72 C67 0.930 1_565 S
H73 C68 0.930 . S
C74 O75 1.224 . S
C74 O93 1.247 . S
O75 C74 1.224 . S
N76 Co66 2.128 . S
N76 C77 1.355 . S
N76 C79 1.311 . S
C77 N76 1.355 . S
C77 C78 1.363 . S
C77 H89 0.929 . S
C78 C77 1.363 . S
C78 N80 1.375 . S
C78 H96 0.931 . S
C79 N76 1.311 . S
C79 N80 1.347 . S
C79 H90 0.929 . S
N80 C78 1.375 . S
N80 C79 1.347 . S
C81 C84 1.365 . S
C81 N86 1.328 . S
C81 H87 0.929 . S
C82 C83 1.362 . S
C82 C85 1.378 . S
C82 H97 0.929 . S
C83 C82 1.362 . S
C83 C84 1.366 . S
C84 C81 1.365 . S
C84 C83 1.366 . S
C84 H98 0.930 . S
C85 C82 1.378 . S
C85 N86 1.315 . S
C85 H88 0.930 . S
N86 Co66 2.194 . S
N86 C81 1.328 . S
N86 C85 1.315 . S
H87 C81 0.929 . S
H88 C85 0.930 . S
H89 C77 0.929 . S
H90 C79 0.929 . S
O91 Co66 2.351 . S
O91 C94 1.244 . S
O92 Co66 2.155 . S
O92 C94 1.240 . S
O93 Co66 2.096 1_545 S
O93 C74 1.247 . S
C94 O91 1.244 . S
C94 O92 1.240 . S
H95 C69 0.931 . S
H96 C78 0.931 . S
H97 C82 0.929 . S
H98 C84 0.930 . S
Co99 N103 2.148 1_545 S
Co99 N109 2.128 . S
Co99 N119 2.194 . S
Co99 O124 2.351 . S
Co99 O125 2.155 . S
Co99 O126 2.094 1_545 S
C100 N103 1.301 . S
C100 N104 1.328 . S
C100 H105 0.930 1_565 S
C101 C102 1.333 . S
C101 N103 1.317 . S
C101 H106 0.930 . S
C102 C101 1.333 . S
C102 N104 1.350 . S
C102 H128 0.931 . S
N103 Co99 2.148 1_565 S
N103 C100 1.301 . S
N103 C101 1.317 . S
N104 C100 1.328 . S
N104 C102 1.350 . S
H105 C100 0.930 1_545 S
H106 C101 0.930 . S
C107 O108 1.224 . S
C107 O126 1.248 . S
O108 C107 1.224 . S
N109 Co99 2.128 . S
N109 C110 1.355 . S
N109 C112 1.311 . S
C110 N109 1.355 . S
C110 C111 1.363 . S
C110 H122 0.929 . S
C111 C110 1.363 . S
C111 N113 1.375 . S
C111 H129 0.931 . S
C112 N109 1.311 . S
C112 N113 1.347 . S
C112 H123 0.929 . S
N113 C111 1.375 . S
N113 C112 1.347 . S
C114 C117 1.365 . S
C114 N119 1.328 . S
C114 H120 0.929 . S
C115 C116 1.362 . S
C115 C118 1.378 . S
C115 H130 0.929 . S
C116 C115 1.362 . S
C116 C117 1.366 . S
C117 C114 1.365 . S
C117 C116 1.366 . S
C117 H131 0.930 . S
C118 C115 1.378 . S
C118 N119 1.315 . S
C118 H121 0.930 . S
N119 Co99 2.194 . S
N119 C114 1.328 . S
N119 C118 1.315 . S
H120 C114 0.929 . S
H121 C118 0.930 . S
H122 C110 0.929 . S
H123 C112 0.929 . S
O124 Co99 2.351 . S
O124 C127 1.244 . S
O125 Co99 2.155 . S
O125 C127 1.240 . S
O126 Co99 2.094 1_565 S
O126 C107 1.248 . S
C127 O124 1.244 . S
C127 O125 1.240 . S
H128 C102 0.931 . S
H129 C111 0.931 . S
H130 C115 0.929 . S
H131 C117 0.930 . S
Co132 N136 2.148 1_655 S
Co132 N142 2.128 . S
Co132 N152 2.194 . S
Co132 O157 2.351 . S
Co132 O158 2.155 . S
Co132 O159 2.096 1_655 S
C133 N136 1.301 . S
C133 N137 1.328 . S
C133 H138 0.930 1_455 S
C134 C135 1.333 . S
C134 N136 1.317 . S
C134 H139 0.930 . S
C135 C134 1.333 . S
C135 N137 1.350 . S
C135 H161 0.931 . S
N136 Co132 2.148 1_455 S
N136 C133 1.301 . S
N136 C134 1.317 . S
N137 C133 1.328 . S
N137 C135 1.350 . S
H138 C133 0.930 1_655 S
H139 C134 0.930 . S
C140 O141 1.224 . S
C140 O159 1.247 . S
O141 C140 1.224 . S
N142 Co132 2.128 . S
N142 C143 1.355 . S
N142 C145 1.311 . S
C143 N142 1.355 . S
C143 C144 1.363 . S
C143 H155 0.929 . S
C144 C143 1.363 . S
C144 N146 1.375 . S
C144 H162 0.931 . S
C145 N142 1.311 . S
C145 N146 1.347 . S
C145 H156 0.929 . S
N146 C144 1.375 . S
N146 C145 1.347 . S
C147 C150 1.365 . S
C147 N152 1.328 . S
C147 H153 0.929 . S
C148 C149 1.362 . S
C148 C151 1.378 . S
C148 H163 0.929 . S
C149 C148 1.362 . S
C149 C150 1.366 . S
C150 C147 1.365 . S
C150 C149 1.366 . S
C150 H164 0.930 . S
C151 C148 1.378 . S
C151 N152 1.315 . S
C151 H154 0.930 . S
N152 Co132 2.194 . S
N152 C147 1.328 . S
N152 C151 1.315 . S
H153 C147 0.929 . S
H154 C151 0.930 . S
H155 C143 0.929 . S
H156 C145 0.929 . S
O157 Co132 2.351 . S
O157 C160 1.244 . S
O158 Co132 2.155 . S
O158 C160 1.240 . S
O159 Co132 2.096 1_455 S
O159 C140 1.247 . S
C160 O157 1.244 . S
C160 O158 1.240 . S
H161 C135 0.931 . S
H162 C144 0.931 . S
H163 C148 0.929 . S
H164 C150 0.930 . S
Co165 N169 2.148 . S
Co165 N175 2.128 . S
Co165 N185 2.194 . S
Co165 O190 2.351 . S
Co165 O191 2.155 . S
Co165 O192 2.096 . S
C166 N169 1.301 . S
C166 N170 1.328 . S
C166 H171 0.930 . S
C167 C168 1.333 . S
C167 N169 1.317 . S
C167 H172 0.930 . S
C168 C167 1.333 . S
C168 N170 1.350 . S
C168 H194 0.931 . S
N169 Co165 2.148 . S
N169 C166 1.301 . S
N169 C167 1.317 . S
N170 C166 1.328 . S
N170 C168 1.350 . S
H171 C166 0.930 . S
H172 C167 0.930 . S
C173 O174 1.224 . S
C173 O192 1.247 . S
O174 C173 1.224 . S
N175 Co165 2.128 . S
N175 C176 1.355 . S
N175 C178 1.311 . S
C176 N175 1.355 . S
C176 C177 1.363 . S
C176 H188 0.929 . S
C177 C176 1.363 . S
C177 N179 1.375 . S
C177 H195 0.931 . S
C178 N175 1.311 . S
C178 N179 1.347 . S
C178 H189 0.929 . S
N179 C177 1.375 . S
N179 C178 1.347 . S
C180 C183 1.365 . S
C180 N185 1.328 . S
C180 H186 0.929 . S
C181 C182 1.362 . S
C181 C184 1.378 . S
C181 H196 0.929 . S
C182 C181 1.362 . S
C182 C183 1.366 . S
C183 C180 1.365 . S
C183 C182 1.366 . S
C183 H197 0.930 . S
C184 C181 1.378 . S
C184 N185 1.315 . S
C184 H187 0.930 . S
N185 Co165 2.194 . S
N185 C180 1.328 . S
N185 C184 1.315 . S
H186 C180 0.929 . S
H187 C184 0.930 . S
H188 C176 0.929 . S
H189 C178 0.929 . S
O190 Co165 2.351 . S
O190 C193 1.244 . S
O191 Co165 2.155 . S
O191 C193 1.240 . S
O192 Co165 2.096 . S
O192 C173 1.247 . S
C193 O190 1.244 . S
C193 O191 1.240 . S
H194 C168 0.931 . S
H195 C177 0.931 . S
H196 C181 0.929 . S
H197 C183 0.930 . S
Co198 N202 2.148 . S
Co198 N208 2.128 . S
Co198 N218 2.194 . S
Co198 O223 2.351 . S
Co198 O224 2.155 . S
Co198 O225 2.096 . S
C199 N202 1.301 . S
C199 N203 1.328 . S
C199 H204 0.930 . S
C200 C201 1.333 . S
C200 N202 1.317 . S
C200 H205 0.930 . S
C201 C200 1.333 . S
C201 N203 1.350 . S
C201 H227 0.931 . S
N202 Co198 2.148 . S
N202 C199 1.301 . S
N202 C200 1.317 . S
N203 C199 1.328 . S
N203 C201 1.350 . S
H204 C199 0.930 . S
H205 C200 0.930 . S
C206 O207 1.224 . S
C206 O225 1.247 . S
O207 C206 1.224 . S
N208 Co198 2.128 . S
N208 C209 1.355 . S
N208 C211 1.311 . S
C209 N208 1.355 . S
C209 C210 1.363 . S
C209 H221 0.929 . S
C210 C209 1.363 . S
C210 N212 1.375 . S
C210 H228 0.931 . S
C211 N208 1.311 . S
C211 N212 1.347 . S
C211 H222 0.929 . S
N212 C210 1.375 . S
N212 C211 1.347 . S
C213 C216 1.365 . S
C213 N218 1.328 . S
C213 H219 0.929 . S
C214 C215 1.362 . S
C214 C217 1.378 . S
C214 H229 0.929 . S
C215 C214 1.362 . S
C215 C216 1.366 . S
C216 C213 1.365 . S
C216 C215 1.366 . S
C216 H230 0.930 . S
C217 C214 1.378 . S
C217 N218 1.315 . S
C217 H220 0.930 . S
N218 Co198 2.194 . S
N218 C213 1.328 . S
N218 C217 1.315 . S
H219 C213 0.929 . S
H220 C217 0.930 . S
H221 C209 0.929 . S
H222 C211 0.929 . S
O223 Co198 2.351 . S
O223 C226 1.244 . S
O224 Co198 2.155 . S
O224 C226 1.240 . S
O225 Co198 2.096 . S
O225 C206 1.247 . S
C226 O223 1.244 . S
C226 O224 1.240 . S
H227 C201 0.931 . S
H228 C210 0.931 . S
H229 C214 0.929 . S
H230 C216 0.930 . S
Co231 N235 2.148 . S
Co231 N241 2.128 . S
Co231 N251 2.194 . S
Co231 O256 2.351 . S
Co231 O257 2.155 . S
Co231 O258 2.096 . S
C232 N235 1.301 . S
C232 N236 1.328 . S
C232 H237 0.930 . S
C233 C234 1.333 . S
C233 N235 1.317 . S
C233 H238 0.930 . S
C234 C233 1.333 . S
C234 N236 1.350 . S
C234 H260 0.931 . S
N235 Co231 2.148 . S
N235 C232 1.301 . S
N235 C233 1.317 . S
N236 C232 1.328 . S
N236 C234 1.350 . S
H237 C232 0.930 . S
H238 C233 0.930 . S
C239 O240 1.224 . S
C239 O258 1.247 . S
O240 C239 1.224 . S
N241 Co231 2.128 . S
N241 C242 1.355 . S
N241 C244 1.311 . S
C242 N241 1.355 . S
C242 C243 1.363 . S
C242 H254 0.929 . S
C243 C242 1.363 . S
C243 N245 1.375 . S
C243 H261 0.931 . S
C244 N241 1.311 . S
C244 N245 1.347 . S
C244 H255 0.929 . S
N245 C243 1.375 . S
N245 C244 1.347 . S
C246 C249 1.365 . S
C246 N251 1.328 . S
C246 H252 0.929 . S
C247 C248 1.362 . S
C247 C250 1.378 . S
C247 H262 0.929 . S
C248 C247 1.362 . S
C248 C249 1.366 . S
C249 C246 1.365 . S
C249 C248 1.366 . S
C249 H263 0.930 . S
C250 C247 1.378 . S
C250 N251 1.315 . S
C250 H253 0.930 . S
N251 Co231 2.194 . S
N251 C246 1.328 . S
N251 C250 1.315 . S
H252 C246 0.929 . S
H253 C250 0.930 . S
H254 C242 0.929 . S
H255 C244 0.929 . S
O256 Co231 2.351 . S
O256 C259 1.244 . S
O257 Co231 2.155 . S
O257 C259 1.240 . S
O258 Co231 2.096 . S
O258 C239 1.247 . S
C259 O256 1.244 . S
C259 O257 1.240 . S
H260 C234 0.931 . S
H261 C243 0.931 . S
H262 C247 0.929 . S
H263 C249 0.930 . S
Co264 N268 2.148 . S
Co264 N274 2.128 . S
Co264 N284 2.194 . S
Co264 O289 2.351 . S
Co264 O290 2.155 . S
Co264 O291 2.096 . S
C265 N268 1.301 . S
C265 N269 1.328 . S
C265 H270 0.930 . S
C266 C267 1.333 . S
C266 N268 1.317 . S
C266 H271 0.930 . S
C267 C266 1.333 . S
C267 N269 1.350 . S
C267 H293 0.931 . S
N268 Co264 2.148 . S
N268 C265 1.301 . S
N268 C266 1.317 . S
N269 C265 1.328 . S
N269 C267 1.350 . S
H270 C265 0.930 . S
H271 C266 0.930 . S
C272 O273 1.224 . S
C272 O291 1.247 . S
O273 C272 1.224 . S
N274 Co264 2.128 . S
N274 C275 1.355 . S
N274 C277 1.311 . S
C275 N274 1.355 . S
C275 C276 1.363 . S
C275 H287 0.929 . S
C276 C275 1.363 . S
C276 N278 1.375 . S
C276 H294 0.931 . S
C277 N274 1.311 . S
C277 N278 1.347 . S
C277 H288 0.929 . S
N278 C276 1.375 . S
N278 C277 1.347 . S
C279 C282 1.365 . S
C279 N284 1.328 . S
C279 H285 0.929 . S
C280 C281 1.362 . S
C280 C283 1.378 . S
C280 H295 0.929 . S
C281 C280 1.362 . S
C281 C282 1.366 . S
C282 C279 1.365 . S
C282 C281 1.366 . S
C282 H296 0.930 . S
C283 C280 1.378 . S
C283 N284 1.315 . S
C283 H286 0.930 . S
N284 Co264 2.194 . S
N284 C279 1.328 . S
N284 C283 1.315 . S
H285 C279 0.929 . S
H286 C283 0.930 . S
H287 C275 0.929 . S
H288 C277 0.929 . S
O289 Co264 2.351 . S
O289 C292 1.244 . S
O290 Co264 2.155 . S
O290 C292 1.240 . S
O291 Co264 2.096 . S
O291 C272 1.247 . S
C292 O289 1.244 . S
C292 O290 1.240 . S
H293 C267 0.931 . S
H294 C276 0.931 . S
H295 C280 0.929 . S
H296 C282 0.930 . S
Co297 N301 2.148 . S
Co297 N307 2.128 . S
Co297 N317 2.194 . S
Co297 O322 2.351 . S
Co297 O323 2.155 . S
Co297 O324 2.096 . S
C298 N301 1.301 . S
C298 N302 1.328 . S
C298 H303 0.930 . S
C299 C300 1.333 . S
C299 N301 1.317 . S
C299 H304 0.930 . S
C300 C299 1.333 . S
C300 N302 1.350 . S
C300 H326 0.931 . S
N301 Co297 2.148 . S
N301 C298 1.301 . S
N301 C299 1.317 . S
N302 C298 1.328 . S
N302 C300 1.350 . S
H303 C298 0.930 . S
H304 C299 0.930 . S
C305 O306 1.224 . S
C305 O324 1.247 . S
O306 C305 1.224 . S
N307 Co297 2.128 . S
N307 C308 1.355 . S
N307 C310 1.311 . S
C308 N307 1.355 . S
C308 C309 1.363 . S
C308 H320 0.929 . S
C309 C308 1.363 . S
C309 N311 1.375 . S
C309 H327 0.931 . S
C310 N307 1.311 . S
C310 N311 1.347 . S
C310 H321 0.929 . S
N311 C309 1.375 . S
N311 C310 1.347 . S
C312 C315 1.365 . S
C312 N317 1.328 . S
C312 H318 0.929 . S
C313 C314 1.362 . S
C313 C316 1.378 . S
C313 H328 0.929 . S
C314 C313 1.362 . S
C314 C315 1.366 . S
C315 C312 1.365 . S
C315 C314 1.366 . S
C315 H329 0.930 . S
C316 C313 1.378 . S
C316 N317 1.315 . S
C316 H319 0.930 . S
N317 Co297 2.194 . S
N317 C312 1.328 . S
N317 C316 1.315 . S
H318 C312 0.929 . S
H319 C316 0.930 . S
H320 C308 0.929 . S
H321 C310 0.929 . S
O322 Co297 2.351 . S
O322 C325 1.244 . S
O323 Co297 2.155 . S
O323 C325 1.240 . S
O324 Co297 2.096 . S
O324 C305 1.247 . S
C325 O322 1.244 . S
C325 O323 1.240 . S
H326 C300 0.931 . S
H327 C309 0.931 . S
H328 C313 0.929 . S
H329 C315 0.930 . S
Co330 N334 2.148 . S
Co330 N340 2.128 . S
Co330 N350 2.194 . S
Co330 O355 2.351 . S
Co330 O356 2.155 . S
Co330 O357 2.096 . S
C331 N334 1.301 . S
C331 N335 1.328 . S
C331 H336 0.930 . S
C332 C333 1.333 . S
C332 N334 1.317 . S
C332 H337 0.930 . S
C333 C332 1.333 . S
C333 N335 1.350 . S
C333 H359 0.931 . S
N334 Co330 2.148 . S
N334 C331 1.301 . S
N334 C332 1.317 . S
N335 C331 1.328 . S
N335 C333 1.350 . S
H336 C331 0.930 . S
H337 C332 0.930 . S
C338 O339 1.224 . S
C338 O357 1.247 . S
O339 C338 1.224 . S
N340 Co330 2.128 . S
N340 C341 1.355 . S
N340 C343 1.311 . S
C341 N340 1.355 . S
C341 C342 1.363 . S
C341 H353 0.929 . S
C342 C341 1.363 . S
C342 N344 1.375 . S
C342 H360 0.931 . S
C343 N340 1.311 . S
C343 N344 1.347 . S
C343 H354 0.929 . S
N344 C342 1.375 . S
N344 C343 1.347 . S
C345 C348 1.365 . S
C345 N350 1.328 . S
C345 H351 0.929 . S
C346 C347 1.362 . S
C346 C349 1.378 . S
C346 H361 0.929 . S
C347 C346 1.362 . S
C347 C348 1.366 . S
C348 C345 1.365 . S
C348 C347 1.366 . S
C348 H362 0.930 . S
C349 C346 1.378 . S
C349 N350 1.315 . S
C349 H352 0.930 . S
N350 Co330 2.194 . S
N350 C345 1.328 . S
N350 C349 1.315 . S
H351 C345 0.929 . S
H352 C349 0.930 . S
H353 C341 0.929 . S
H354 C343 0.929 . S
O355 Co330 2.351 . S
O355 C358 1.244 . S
O356 Co330 2.155 . S
O356 C358 1.240 . S
O357 Co330 2.096 . S
O357 C338 1.247 . S
C358 O355 1.244 . S
C358 O356 1.240 . S
H359 C333 0.931 . S
H360 C342 0.931 . S
H361 C346 0.929 . S
H362 C348 0.930 . S
Co363 N367 2.148 . S
Co363 N373 2.128 . S
Co363 N383 2.194 . S
Co363 O388 2.351 . S
Co363 O389 2.155 . S
Co363 O390 2.096 . S
C364 N367 1.301 . S
C364 N368 1.328 . S
C364 H369 0.930 . S
C365 C366 1.333 . S
C365 N367 1.317 . S
C365 H370 0.930 . S
C366 C365 1.333 . S
C366 N368 1.350 . S
C366 H392 0.931 . S
N367 Co363 2.148 . S
N367 C364 1.301 . S
N367 C365 1.317 . S
N368 C364 1.328 . S
N368 C366 1.350 . S
H369 C364 0.930 . S
H370 C365 0.930 . S
C371 O372 1.224 . S
C371 O390 1.247 . S
O372 C371 1.224 . S
N373 Co363 2.128 . S
N373 C374 1.355 . S
N373 C376 1.311 . S
C374 N373 1.355 . S
C374 C375 1.363 . S
C374 H386 0.929 . S
C375 C374 1.363 . S
C375 N377 1.375 . S
C375 H393 0.931 . S
C376 N373 1.311 . S
C376 N377 1.347 . S
C376 H387 0.929 . S
N377 C375 1.375 . S
N377 C376 1.347 . S
C378 C381 1.365 . S
C378 N383 1.328 . S
C378 H384 0.929 . S
C379 C380 1.362 . S
C379 C382 1.378 . S
C379 H394 0.929 . S
C380 C379 1.362 . S
C380 C381 1.366 . S
C381 C378 1.365 . S
C381 C380 1.366 . S
C381 H395 0.930 . S
C382 C379 1.378 . S
C382 N383 1.315 . S
C382 H385 0.930 . S
N383 Co363 2.194 . S
N383 C378 1.328 . S
N383 C382 1.315 . S
H384 C378 0.929 . S
H385 C382 0.930 . S
H386 C374 0.929 . S
H387 C376 0.929 . S
O388 Co363 2.351 . S
O388 C391 1.244 . S
O389 Co363 2.155 . S
O389 C391 1.240 . S
O390 Co363 2.096 . S
O390 C371 1.247 . S
C391 O388 1.244 . S
C391 O389 1.240 . S
H392 C366 0.931 . S
H393 C375 0.931 . S
H394 C379 0.929 . S
H395 C381 0.930 . S
Co396 N400 2.148 . S
Co396 N406 2.128 . S
Co396 N416 2.194 . S
Co396 O421 2.351 . S
Co396 O422 2.155 . S
Co396 O423 2.096 . S
C397 N400 1.301 . S
C397 N401 1.328 . S
C397 H402 0.930 . S
C398 C399 1.333 . S
C398 N400 1.317 . S
C398 H403 0.930 . S
C399 C398 1.333 . S
C399 N401 1.350 . S
C399 H425 0.931 . S
N400 Co396 2.148 . S
N400 C397 1.301 . S
N400 C398 1.317 . S
N401 C397 1.328 . S
N401 C399 1.350 . S
H402 C397 0.930 . S
H403 C398 0.930 . S
C404 O405 1.224 . S
C404 O423 1.247 . S
O405 C404 1.224 . S
N406 Co396 2.128 . S
N406 C407 1.355 . S
N406 C409 1.311 . S
C407 N406 1.355 . S
C407 C408 1.363 . S
C407 H419 0.929 . S
C408 C407 1.363 . S
C408 N410 1.375 . S
C408 H426 0.931 . S
C409 N406 1.311 . S
C409 N410 1.347 . S
C409 H420 0.929 . S
N410 C408 1.375 . S
N410 C409 1.347 . S
C411 C414 1.365 . S
C411 N416 1.328 . S
C411 H417 0.929 . S
C412 C413 1.362 . S
C412 C415 1.378 . S
C412 H427 0.929 . S
C413 C412 1.362 . S
C413 C414 1.366 . S
C414 C411 1.365 . S
C414 C413 1.366 . S
C414 H428 0.930 . S
C415 C412 1.378 . S
C415 N416 1.315 . S
C415 H418 0.930 . S
N416 Co396 2.194 . S
N416 C411 1.328 . S
N416 C415 1.315 . S
H417 C411 0.929 . S
H418 C415 0.930 . S
H419 C407 0.929 . S
H420 C409 0.929 . S
O421 Co396 2.351 . S
O421 C424 1.244 . S
O422 Co396 2.155 . S
O422 C424 1.240 . S
O423 Co396 2.096 . S
O423 C404 1.247 . S
C424 O421 1.244 . S
C424 O422 1.240 . S
H425 C399 0.931 . S
H426 C408 0.931 . S
H427 C412 0.929 . S
H428 C414 0.930 . S
Co429 N433 2.148 . S
Co429 N439 2.128 . S
Co429 N449 2.194 . S
Co429 O454 2.351 . S
Co429 O455 2.155 . S
Co429 O456 2.096 . S
C430 N433 1.301 . S
C430 N434 1.328 . S
C430 H435 0.930 . S
C431 C432 1.333 . S
C431 N433 1.317 . S
C431 H436 0.930 . S
C432 C431 1.333 . S
C432 N434 1.350 . S
C432 H458 0.931 . S
N433 Co429 2.148 . S
N433 C430 1.301 . S
N433 C431 1.317 . S
N434 C430 1.328 . S
N434 C432 1.350 . S
H435 C430 0.930 . S
H436 C431 0.930 . S
C437 O438 1.224 . S
C437 O456 1.247 . S
O438 C437 1.224 . S
N439 Co429 2.128 . S
N439 C440 1.355 . S
N439 C442 1.311 . S
C440 N439 1.355 . S
C440 C441 1.363 . S
C440 H452 0.929 . S
C441 C440 1.363 . S
C441 N443 1.375 . S
C441 H459 0.931 . S
C442 N439 1.311 . S
C442 N443 1.347 . S
C442 H453 0.929 . S
N443 C441 1.375 . S
N443 C442 1.347 . S
C444 C447 1.365 . S
C444 N449 1.328 . S
C444 H450 0.929 . S
C445 C446 1.362 . S
C445 C448 1.378 . S
C445 H460 0.929 . S
C446 C445 1.362 . S
C446 C447 1.366 . S
C447 C444 1.365 . S
C447 C446 1.366 . S
C447 H461 0.930 . S
C448 C445 1.378 . S
C448 N449 1.315 . S
C448 H451 0.930 . S
N449 Co429 2.194 . S
N449 C444 1.328 . S
N449 C448 1.315 . S
H450 C444 0.929 . S
H451 C448 0.930 . S
H452 C440 0.929 . S
H453 C442 0.929 . S
O454 Co429 2.351 . S
O454 C457 1.244 . S
O455 Co429 2.155 . S
O455 C457 1.240 . S
O456 Co429 2.096 . S
O456 C437 1.247 . S
C457 O454 1.244 . S
C457 O455 1.240 . S
H458 C432 0.931 . S
H459 C441 0.931 . S
H460 C445 0.929 . S
H461 C447 0.930 . S
Co462 N466 2.148 . S
Co462 N472 2.128 . S
Co462 N482 2.194 . S
Co462 O487 2.351 . S
Co462 O488 2.155 . S
Co462 O489 2.096 . S
C463 N466 1.301 . S
C463 N467 1.328 . S
C463 H468 0.930 . S
C464 C465 1.333 . S
C464 N466 1.317 . S
C464 H469 0.930 . S
C465 C464 1.333 . S
C465 N467 1.350 . S
C465 H491 0.931 . S
N466 Co462 2.148 . S
N466 C463 1.301 . S
N466 C464 1.317 . S
N467 C463 1.328 . S
N467 C465 1.350 . S
H468 C463 0.930 . S
H469 C464 0.930 . S
C470 O471 1.224 . S
C470 O489 1.247 . S
O471 C470 1.224 . S
N472 Co462 2.128 . S
N472 C473 1.355 . S
N472 C475 1.311 . S
C473 N472 1.355 . S
C473 C474 1.363 . S
C473 H485 0.929 . S
C474 C473 1.363 . S
C474 N476 1.375 . S
C474 H492 0.931 . S
C475 N472 1.311 . S
C475 N476 1.347 . S
C475 H486 0.929 . S
N476 C474 1.375 . S
N476 C475 1.347 . S
C477 C480 1.365 . S
C477 N482 1.328 . S
C477 H483 0.929 . S
C478 C479 1.362 . S
C478 C481 1.378 . S
C478 H493 0.929 . S
C479 C478 1.362 . S
C479 C480 1.366 . S
C480 C477 1.365 . S
C480 C479 1.366 . S
C480 H494 0.930 . S
C481 C478 1.378 . S
C481 N482 1.315 . S
C481 H484 0.930 . S
N482 Co462 2.194 . S
N482 C477 1.328 . S
N482 C481 1.315 . S
H483 C477 0.929 . S
H484 C481 0.930 . S
H485 C473 0.929 . S
H486 C475 0.929 . S
O487 Co462 2.351 . S
O487 C490 1.244 . S
O488 Co462 2.155 . S
O488 C490 1.240 . S
O489 Co462 2.096 . S
O489 C470 1.247 . S
C490 O487 1.244 . S
C490 O488 1.240 . S
H491 C465 0.931 . S
H492 C474 0.931 . S
H493 C478 0.929 . S
H494 C480 0.930 . S
Co495 N499 2.148 . S
Co495 N505 2.128 . S
Co495 N515 2.194 . S
Co495 O520 2.351 . S
Co495 O521 2.155 . S
Co495 O522 2.096 . S
C496 N499 1.301 . S
C496 N500 1.328 . S
C496 H501 0.930 . S
C497 C498 1.333 . S
C497 N499 1.317 . S
C497 H502 0.930 . S
C498 C497 1.333 . S
C498 N500 1.350 . S
C498 H524 0.931 . S
N499 Co495 2.148 . S
N499 C496 1.301 . S
N499 C497 1.317 . S
N500 C496 1.328 . S
N500 C498 1.350 . S
H501 C496 0.930 . S
H502 C497 0.930 . S
C503 O504 1.224 . S
C503 O522 1.247 . S
O504 C503 1.224 . S
N505 Co495 2.128 . S
N505 C506 1.355 . S
N505 C508 1.311 . S
C506 N505 1.355 . S
C506 C507 1.363 . S
C506 H518 0.929 . S
C507 C506 1.363 . S
C507 N509 1.375 . S
C507 H525 0.931 . S
C508 N505 1.311 . S
C508 N509 1.347 . S
C508 H519 0.929 . S
N509 C507 1.375 . S
N509 C508 1.347 . S
C510 C513 1.365 . S
C510 N515 1.328 . S
C510 H516 0.929 . S
C511 C512 1.362 . S
C511 C514 1.378 . S
C511 H526 0.929 . S
C512 C511 1.362 . S
C512 C513 1.366 . S
C513 C510 1.365 . S
C513 C512 1.366 . S
C513 H527 0.930 . S
C514 C511 1.378 . S
C514 N515 1.315 . S
C514 H517 0.930 . S
N515 Co495 2.194 . S
N515 C510 1.328 . S
N515 C514 1.315 . S
H516 C510 0.929 . S
H517 C514 0.930 . S
H518 C506 0.929 . S
H519 C508 0.929 . S
O520 Co495 2.351 . S
O520 C523 1.244 . S
O521 Co495 2.155 . S
O521 C523 1.240 . S
O522 Co495 2.096 . S
O522 C503 1.247 . S
C523 O520 1.244 . S
C523 O521 1.240 . S
H524 C498 0.931 . S
H525 C507 0.931 . S
H526 C511 0.929 . S
H527 C513 0.930 . S
Co528 N532 2.148 . S
Co528 N538 2.128 . S
Co528 N548 2.194 . S
Co528 O553 2.351 . S
Co528 O554 2.155 . S
Co528 O555 2.096 . S
C529 N532 1.301 . S
C529 N533 1.328 . S
C529 H534 0.930 . S
C530 C531 1.333 . S
C530 N532 1.317 . S
C530 H535 0.930 . S
C531 C530 1.333 . S
C531 N533 1.350 . S
C531 H557 0.931 . S
N532 Co528 2.148 . S
N532 C529 1.301 . S
N532 C530 1.317 . S
N533 C529 1.328 . S
N533 C531 1.350 . S
H534 C529 0.930 . S
H535 C530 0.930 . S
C536 O537 1.224 . S
C536 O555 1.247 . S
O537 C536 1.224 . S
N538 Co528 2.128 . S
N538 C539 1.355 . S
N538 C541 1.311 . S
C539 N538 1.355 . S
C539 C540 1.363 . S
C539 H551 0.929 . S
C540 C539 1.363 . S
C540 N542 1.375 . S
C540 H558 0.931 . S
C541 N538 1.311 . S
C541 N542 1.347 . S
C541 H552 0.929 . S
N542 C540 1.375 . S
N542 C541 1.347 . S
C543 C546 1.365 . S
C543 N548 1.328 . S
C543 H549 0.929 . S
C544 C545 1.362 . S
C544 C547 1.378 . S
C544 H559 0.929 . S
C545 C544 1.362 . S
C545 C546 1.366 . S
C546 C543 1.365 . S
C546 C545 1.366 . S
C546 H560 0.930 . S
C547 C544 1.378 . S
C547 N548 1.315 . S
C547 H550 0.930 . S
N548 Co528 2.194 . S
N548 C543 1.328 . S
N548 C547 1.315 . S
H549 C543 0.929 . S
H550 C547 0.930 . S
H551 C539 0.929 . S
H552 C541 0.929 . S
O553 Co528 2.351 . S
O553 C556 1.244 . S
O554 Co528 2.155 . S
O554 C556 1.240 . S
O555 Co528 2.096 . S
O555 C536 1.247 . S
C556 O553 1.244 . S
C556 O554 1.240 . S
H557 C531 0.931 . S
H558 C540 0.931 . S
H559 C544 0.929 . S
H560 C546 0.930 . S
Co561 N565 2.148 . S
Co561 N571 2.128 . S
Co561 N581 2.194 . S
Co561 O586 2.351 . S
Co561 O587 2.155 . S
Co561 O588 2.096 . S
C562 N565 1.301 . S
C562 N566 1.328 . S
C562 H567 0.930 . S
C563 C564 1.333 . S
C563 N565 1.317 . S
C563 H568 0.930 . S
C564 C563 1.333 . S
C564 N566 1.350 . S
C564 H590 0.931 . S
N565 Co561 2.148 . S
N565 C562 1.301 . S
N565 C563 1.317 . S
N566 C562 1.328 . S
N566 C564 1.350 . S
H567 C562 0.930 . S
H568 C563 0.930 . S
C569 O570 1.224 . S
C569 O588 1.247 . S
O570 C569 1.224 . S
N571 Co561 2.128 . S
N571 C572 1.355 . S
N571 C574 1.311 . S
C572 N571 1.355 . S
C572 C573 1.363 . S
C572 H584 0.929 . S
C573 C572 1.363 . S
C573 N575 1.375 . S
C573 H591 0.931 . S
C574 N571 1.311 . S
C574 N575 1.347 . S
C574 H585 0.929 . S
N575 C573 1.375 . S
N575 C574 1.347 . S
C576 C579 1.365 . S
C576 N581 1.328 . S
C576 H582 0.929 . S
C577 C578 1.362 . S
C577 C580 1.378 . S
C577 H592 0.929 . S
C578 C577 1.362 . S
C578 C579 1.366 . S
C579 C576 1.365 . S
C579 C578 1.366 . S
C579 H593 0.930 . S
C580 C577 1.378 . S
C580 N581 1.315 . S
C580 H583 0.930 . S
N581 Co561 2.194 . S
N581 C576 1.328 . S
N581 C580 1.315 . S
H582 C576 0.929 . S
H583 C580 0.930 . S
H584 C572 0.929 . S
H585 C574 0.929 . S
O586 Co561 2.351 . S
O586 C589 1.244 . S
O587 Co561 2.155 . S
O587 C589 1.240 . S
O588 Co561 2.096 . S
O588 C569 1.247 . S
C589 O586 1.244 . S
C589 O587 1.240 . S
H590 C564 0.931 . S
H591 C573 0.931 . S
H592 C577 0.929 . S
H593 C579 0.930 . S
H594 C612 0.951 . S
H595 C614 0.951 . S
H596 C616 0.950 . S
H597 C617 0.950 . S
H598 C619 0.950 . S
H599 C622 0.950 . S
H600 C623 0.950 . S
H601 C625 0.950 1_455 S
H602 C626 0.950 . S
H603 C627 0.951 . S
H604 C629 0.951 . S
H605 C631 0.950 . S
H606 C632 0.950 . S
H607 C634 0.950 . S
H608 C637 0.950 . S
H609 C638 0.950 . S
H610 C640 0.950 . S
H611 C641 0.950 . S
C612 H594 0.951 . S
C612 C613 1.366 . S
C612 C614 1.388 . S
C613 C612 1.366 . S
C613 C617 1.385 . S
C614 H595 0.951 . S
C614 C612 1.388 . S
C614 C615 1.366 . S
C615 C614 1.366 . S
C615 C616 1.414 . S
C615 C618 1.499 . S
C616 H596 0.950 . S
C616 C615 1.414 . S
C616 C617 1.374 . S
C617 H597 0.950 . S
C617 C613 1.385 . S
C617 C616 1.374 . S
C618 C615 1.499 . S
C618 C619 1.373 . S
C618 C620 1.389 . S
C619 H598 0.950 . S
C619 C618 1.373 . S
C619 C635 1.377 . S
C620 C618 1.389 . S
C620 C621 1.524 . S
C620 C634 1.377 . S
C621 C620 1.524 . S
C621 C622 1.397 . S
C621 C626 1.363 . S
C622 H599 0.950 . S
C622 C621 1.397 . S
C622 C623 1.334 . S
C623 H600 0.950 . S
C623 C622 1.334 . S
C623 C624 1.287 . S
C624 C623 1.287 . S
C624 C625 1.524 . S
C624 H643 0.913 . S
C625 H601 0.950 1_655 S
C625 C624 1.524 . S
C625 C626 1.415 . S
C626 H602 0.950 . S
C626 C621 1.363 . S
C626 C625 1.415 . S
C627 H603 0.951 . S
C627 C628 1.366 . S
C627 C629 1.388 . S
C628 C627 1.366 . S
C628 C632 1.385 . S
C629 H604 0.951 . S
C629 C627 1.388 . S
C629 C630 1.366 . S
C630 C629 1.366 . S
C630 C631 1.414 . S
C630 C633 1.499 . S
C631 H605 0.950 . S
C631 C630 1.414 . S
C631 C632 1.374 . S
C632 H606 0.950 . S
C632 C628 1.385 . S
C632 C631 1.374 . S
C633 C630 1.499 . S
C633 C634 1.373 . S
C633 C635 1.389 . S
C634 H607 0.950 . S
C634 C620 1.377 . S
C634 C633 1.373 . S
C635 C619 1.377 . S
C635 C633 1.389 . S
C635 C636 1.524 . S
C636 C635 1.524 . S
C636 C637 1.397 . S
C636 C641 1.363 . S
C637 H608 0.950 . S
C637 C636 1.397 . S
C637 C638 1.334 . S
C638 H609 0.950 . S
C638 C637 1.334 . S
C638 C639 1.287 . S
C639 C638 1.287 . S
C639 C640 1.524 . S
C639 H642 0.999 . S
C640 H610 0.950 . S
C640 C639 1.524 . S
C640 C641 1.415 . S
C641 H611 0.950 . S
C641 C636 1.363 . S
C641 C640 1.415 . S
H642 C639 0.999 . S
H643 C624 0.913 . S
H644 C662 0.951 . S
H645 C664 0.951 . S
H646 C666 0.950 . S
H647 C667 0.950 . S
H648 C669 0.950 . S
H649 C672 0.950 . S
H650 C673 0.950 . S
H651 C675 0.950 . S
H652 C676 0.950 . S
H653 C677 0.951 . S
H654 C679 0.951 . S
H655 C681 0.950 . S
H656 C682 0.950 . S
H657 C684 0.950 . S
H658 C687 0.950 . S
H659 C688 0.950 . S
H660 C690 0.950 . S
H661 C691 0.950 . S
C662 H644 0.951 . S
C662 C663 1.366 . S
C662 C664 1.388 . S
C663 C662 1.366 . S
C663 C667 1.385 . S
C664 H645 0.951 . S
C664 C662 1.388 . S
C664 C665 1.366 . S
C665 C664 1.366 . S
C665 C666 1.414 . S
C665 C668 1.499 . S
C666 H646 0.950 . S
C666 C665 1.414 . S
C666 C667 1.374 . S
C667 H647 0.950 . S
C667 C663 1.385 . S
C667 C666 1.374 . S
C668 C665 1.499 . S
C668 C669 1.373 . S
C668 C670 1.389 . S
C669 H648 0.950 . S
C669 C668 1.373 . S
C669 C685 1.377 . S
C670 C668 1.389 . S
C670 C671 1.524 . S
C670 C684 1.377 . S
C671 C670 1.524 . S
C671 C672 1.397 . S
C671 C676 1.363 . S
C672 H649 0.950 . S
C672 C671 1.397 . S
C672 C673 1.334 . S
C673 H650 0.950 . S
C673 C672 1.334 . S
C673 C674 1.287 . S
C674 C673 1.287 . S
C674 C675 1.524 . S
C674 H693 0.913 . S
C675 H651 0.950 . S
C675 C674 1.524 . S
C675 C676 1.415 . S
C676 H652 0.950 . S
C676 C671 1.363 . S
C676 C675 1.415 . S
C677 H653 0.951 . S
C677 C678 1.366 . S
C677 C679 1.388 . S
C678 C677 1.366 . S
C678 C682 1.385 . S
C679 H654 0.951 . S
C679 C677 1.388 . S
C679 C680 1.366 . S
C680 C679 1.366 . S
C680 C681 1.414 . S
C680 C683 1.499 . S
C681 H655 0.950 . S
C681 C680 1.414 . S
C681 C682 1.374 . S
C682 H656 0.950 . S
C682 C678 1.385 . S
C682 C681 1.374 . S
C683 C680 1.499 . S
C683 C684 1.373 . S
C683 C685 1.389 . S
C684 H657 0.950 . S
C684 C670 1.377 . S
C684 C683 1.373 . S
C685 C669 1.377 . S
C685 C683 1.389 . S
C685 C686 1.524 . S
C686 C685 1.524 . S
C686 C687 1.397 . S
C686 C691 1.363 . S
C687 H658 0.950 . S
C687 C686 1.397 . S
C687 C688 1.334 . S
C688 H659 0.950 . S
C688 C687 1.334 . S
C688 C689 1.287 . S
C689 C688 1.287 . S
C689 C690 1.524 . S
C689 H692 0.999 . S
C690 H660 0.950 . S
C690 C689 1.524 . S
C690 C691 1.415 . S
C691 H661 0.950 . S
C691 C686 1.363 . S
C691 C690 1.415 . S
H692 C689 0.999 . S
H693 C674 0.913 . S
H694 C712 0.951 . S
H695 C714 0.951 . S
H696 C716 0.950 . S
H697 C717 0.950 . S
H698 C719 0.950 . S
H699 C722 0.950 . S
H700 C723 0.950 . S
H701 C725 0.950 . S
H702 C726 0.950 . S
H703 C727 0.951 . S
H704 C729 0.951 . S
H705 C731 0.950 . S
H706 C732 0.950 . S
H707 C734 0.950 . S
H708 C737 0.950 . S
H709 C738 0.950 . S
H710 C740 0.950 . S
H711 C741 0.950 . S
C712 H694 0.951 . S
C712 C713 1.366 . S
C712 C714 1.388 . S
C713 C712 1.366 . S
C713 C717 1.385 . S
C714 H695 0.951 . S
C714 C712 1.388 . S
C714 C715 1.366 . S
C715 C714 1.366 . S
C715 C716 1.414 . S
C715 C718 1.499 . S
C716 H696 0.950 . S
C716 C715 1.414 . S
C716 C717 1.374 . S
C717 H697 0.950 . S
C717 C713 1.385 . S
C717 C716 1.374 . S
C718 C715 1.499 . S
C718 C719 1.373 . S
C718 C720 1.389 . S
C719 H698 0.950 . S
C719 C718 1.373 . S
C719 C735 1.377 . S
C720 C718 1.389 . S
C720 C721 1.524 . S
C720 C734 1.377 . S
C721 C720 1.524 . S
C721 C722 1.397 . S
C721 C726 1.363 . S
C722 H699 0.950 . S
C722 C721 1.397 . S
C722 C723 1.334 . S
C723 H700 0.950 . S
C723 C722 1.334 . S
C723 C724 1.287 . S
C724 C723 1.287 . S
C724 C725 1.524 . S
C724 H743 0.913 . S
C725 H701 0.950 . S
C725 C724 1.524 . S
C725 C726 1.415 . S
C726 H702 0.950 . S
C726 C721 1.363 . S
C726 C725 1.415 . S
C727 H703 0.951 . S
C727 C728 1.366 . S
C727 C729 1.388 . S
C728 C727 1.366 . S
C728 C732 1.385 . S
C729 H704 0.951 . S
C729 C727 1.388 . S
C729 C730 1.366 . S
C730 C729 1.366 . S
C730 C731 1.414 . S
C730 C733 1.499 . S
C731 H705 0.950 . S
C731 C730 1.414 . S
C731 C732 1.374 . S
C732 H706 0.950 . S
C732 C728 1.385 . S
C732 C731 1.374 . S
C733 C730 1.499 . S
C733 C734 1.373 . S
C733 C735 1.389 . S
C734 H707 0.950 . S
C734 C720 1.377 . S
C734 C733 1.373 . S
C735 C719 1.377 . S
C735 C733 1.389 . S
C735 C736 1.524 . S
C736 C735 1.524 . S
C736 C737 1.397 . S
C736 C741 1.363 . S
C737 H708 0.950 . S
C737 C736 1.397 . S
C737 C738 1.334 1_545 S
C738 H709 0.950 . S
C738 C737 1.334 1_565 S
C738 C739 1.288 1_565 S
C739 C738 1.288 1_545 S
C739 C740 1.527 . S
C739 H742 0.995 1_545 S
C740 H710 0.950 . S
C740 C739 1.527 . S
C740 C741 1.415 . S
C741 H711 0.950 . S
C741 C736 1.363 . S
C741 C740 1.415 . S
H742 C739 0.995 1_565 S
H743 C724 0.913 . S
H744 C762 0.951 . S
H745 C764 0.951 . S
H746 C766 0.950 . S
H747 C767 0.950 . S
H748 C769 0.950 . S
H749 C772 0.950 . S
H750 C773 0.950 . S
H751 C775 0.950 . S
H752 C776 0.950 . S
H753 C777 0.951 . S
H754 C779 0.951 . S
H755 C781 0.950 . S
H756 C782 0.950 . S
H757 C784 0.950 . S
H758 C787 0.950 . S
H759 C788 0.950 . S
H760 C790 0.950 . S
H761 C791 0.950 . S
C762 H744 0.951 . S
C762 C763 1.366 . S
C762 C764 1.388 . S
C763 C762 1.366 . S
C763 C767 1.385 . S
C764 H745 0.951 . S
C764 C762 1.388 . S
C764 C765 1.366 . S
C765 C764 1.366 . S
C765 C766 1.414 . S
C765 C768 1.499 . S
C766 H746 0.950 . S
C766 C765 1.414 . S
C766 C767 1.374 . S
C767 H747 0.950 . S
C767 C763 1.385 . S
C767 C766 1.374 . S
C768 C765 1.499 . S
C768 C769 1.373 . S
C768 C770 1.389 . S
C769 H748 0.950 . S
C769 C768 1.373 . S
C769 C785 1.377 . S
C770 C768 1.389 . S
C770 C771 1.524 . S
C770 C784 1.377 . S
C771 C770 1.524 . S
C771 C772 1.397 . S
C771 C776 1.363 . S
C772 H749 0.950 . S
C772 C771 1.397 . S
C772 C773 1.334 . S
C773 H750 0.950 . S
C773 C772 1.334 . S
C773 C774 1.287 . S
C774 C773 1.287 . S
C774 C775 1.524 . S
C774 H793 0.913 . S
C775 H751 0.950 . S
C775 C774 1.524 . S
C775 C776 1.415 . S
C776 H752 0.950 . S
C776 C771 1.363 . S
C776 C775 1.415 . S
C777 H753 0.951 . S
C777 C778 1.366 . S
C777 C779 1.388 . S
C778 C777 1.366 . S
C778 C782 1.385 . S
C779 H754 0.951 . S
C779 C777 1.388 . S
C779 C780 1.366 . S
C780 C779 1.366 . S
C780 C781 1.414 . S
C780 C783 1.499 . S
C781 H755 0.950 . S
C781 C780 1.414 . S
C781 C782 1.374 . S
C782 H756 0.950 . S
C782 C778 1.385 . S
C782 C781 1.374 . S
C783 C780 1.499 . S
C783 C784 1.373 . S
C783 C785 1.389 . S
C784 H757 0.950 . S
C784 C770 1.377 . S
C784 C783 1.373 . S
C785 C769 1.377 . S
C785 C783 1.389 . S
C785 C786 1.524 . S
C786 C785 1.524 . S
C786 C787 1.397 . S
C786 C791 1.363 . S
C787 H758 0.950 . S
C787 C786 1.397 . S
C787 C788 1.334 . S
C788 H759 0.950 . S
C788 C787 1.334 . S
C788 C789 1.287 . S
C789 C788 1.287 . S
C789 C790 1.524 . S
C789 H792 0.999 . S
C790 H760 0.950 . S
C790 C789 1.524 . S
C790 C791 1.415 . S
C791 H761 0.950 . S
C791 C786 1.363 . S
C791 C790 1.415 . S
H792 C789 0.999 . S
H793 C774 0.913 . S
H794 C812 0.951 . S
H795 C814 0.951 . S
H796 C816 0.950 . S
H797 C817 0.950 . S
H798 C819 0.950 . S
H799 C822 0.950 . S
H800 C823 0.950 . S
H801 C825 0.950 . S
H802 C826 0.950 . S
H803 C827 0.968 . S
H804 C829 0.951 . S
H805 C831 0.950 . S
H806 C832 0.950 . S
H807 C834 0.950 . S
H808 C837 0.950 . S
H809 C838 0.950 . S
H810 C840 0.950 . S
H811 C841 0.950 . S
C812 H794 0.951 . S
C812 C813 1.366 . S
C812 C814 1.388 . S
C813 C812 1.366 . S
C813 C817 1.385 . S
C814 H795 0.951 . S
C814 C812 1.388 . S
C814 C815 1.366 . S
C815 C814 1.366 . S
C815 C816 1.414 . S
C815 C818 1.499 . S
C816 H796 0.950 . S
C816 C815 1.414 . S
C816 C817 1.374 . S
C817 H797 0.950 . S
C817 C813 1.385 . S
C817 C816 1.374 . S
C818 C815 1.499 . S
C818 C819 1.373 . S
C818 C820 1.389 . S
C819 H798 0.950 . S
C819 C818 1.373 . S
C819 C835 1.377 . S
C820 C818 1.389 . S
C820 C821 1.524 . S
C820 C834 1.377 . S
C821 C820 1.524 . S
C821 C822 1.397 . S
C821 C826 1.363 . S
C822 H799 0.950 . S
C822 C821 1.397 . S
C822 C823 1.334 . S
C823 H800 0.950 . S
C823 C822 1.334 . S
C823 C824 1.287 . S
C824 C823 1.287 . S
C824 C825 1.524 . S
C824 H843 0.913 . S
C825 H801 0.950 . S
C825 C824 1.524 . S
C825 C826 1.415 . S
C826 H802 0.950 . S
C826 C821 1.363 . S
C826 C825 1.415 . S
C827 H803 0.968 . S
C827 C828 1.366 . S
C827 C829 1.388 . S
C828 C827 1.366 . S
C828 C832 1.385 . S
C829 H804 0.951 . S
C829 C827 1.388 . S
C829 C830 1.366 . S
C830 C829 1.366 . S
C830 C831 1.414 . S
C830 C833 1.499 . S
C831 H805 0.950 . S
C831 C830 1.414 . S
C831 C832 1.374 . S
C832 H806 0.950 . S
C832 C828 1.385 . S
C832 C831 1.374 . S
C833 C830 1.499 . S
C833 C834 1.373 . S
C833 C835 1.389 . S
C834 H807 0.950 . S
C834 C820 1.377 . S
C834 C833 1.373 . S
C835 C819 1.377 . S
C835 C833 1.389 . S
C835 C836 1.524 . S
C836 C835 1.524 . S
C836 C837 1.397 . S
C836 C841 1.363 . S
C837 H808 0.950 . S
C837 C836 1.397 . S
C837 C838 1.334 . S
C838 H809 0.950 . S
C838 C837 1.334 . S
C838 C839 1.287 . S
C839 C838 1.287 . S
C839 C840 1.524 . S
C839 H842 0.999 . S
C840 H810 0.950 . S
C840 C839 1.524 . S
C840 C841 1.415 . S
C841 H811 0.950 . S
C841 C836 1.363 . S
C841 C840 1.415 . S
H842 C839 0.999 . S
H843 C824 0.913 . S
H844 C862 0.951 . S
H845 C864 0.951 . S
H846 C866 0.950 . S
H847 C867 0.950 . S
H848 C869 0.950 . S
H849 C872 0.950 . S
H850 C873 0.950 . S
H851 C875 0.950 . S
H852 C876 0.950 . S
H853 C877 0.951 . S
H854 C879 0.951 . S
H855 C881 0.950 . S
H856 C882 0.950 . S
H857 C884 0.950 . S
H858 C887 0.950 . S
H859 C888 0.950 . S
H860 C890 0.950 . S
H861 C891 0.950 . S
C862 H844 0.951 . S
C862 C863 1.366 . S
C862 C864 1.388 . S
C863 C862 1.366 . S
C863 C867 1.385 . S
C864 H845 0.951 . S
C864 C862 1.388 . S
C864 C865 1.366 . S
C865 C864 1.366 . S
C865 C866 1.414 . S
C865 C868 1.499 . S
C866 H846 0.950 . S
C866 C865 1.414 . S
C866 C867 1.374 . S
C867 H847 0.950 . S
C867 C863 1.385 . S
C867 C866 1.374 . S
C868 C865 1.499 . S
C868 C869 1.373 . S
C868 C870 1.389 . S
C869 H848 0.950 . S
C869 C868 1.373 . S
C869 C885 1.377 . S
C870 C868 1.389 . S
C870 C871 1.524 . S
C870 C884 1.377 . S
C871 C870 1.524 . S
C871 C872 1.397 . S
C871 C876 1.363 . S
C872 H849 0.950 . S
C872 C871 1.397 . S
C872 C873 1.334 . S
C873 H850 0.950 . S
C873 C872 1.334 . S
C873 C874 1.287 . S
C874 C873 1.287 . S
C874 C875 1.524 . S
C874 H893 0.913 . S
C875 H851 0.950 . S
C875 C874 1.524 . S
C875 C876 1.415 . S
C876 H852 0.950 . S
C876 C871 1.363 . S
C876 C875 1.415 . S
C877 H853 0.951 . S
C877 C878 1.366 . S
C877 C879 1.388 . S
C878 C877 1.366 . S
C878 C882 1.385 . S
C879 H854 0.951 . S
C879 C877 1.388 . S
C879 C880 1.366 . S
C880 C879 1.366 . S
C880 C881 1.414 . S
C880 C883 1.499 . S
C881 H855 0.950 . S
C881 C880 1.414 . S
C881 C882 1.374 . S
C882 H856 0.950 . S
C882 C878 1.385 . S
C882 C881 1.374 . S
C883 C880 1.499 . S
C883 C884 1.373 . S
C883 C885 1.389 . S
C884 H857 0.950 . S
C884 C870 1.377 . S
C884 C883 1.373 . S
C885 C869 1.377 . S
C885 C883 1.389 . S
C885 C886 1.524 . S
C886 C885 1.524 . S
C886 C887 1.397 . S
C886 C891 1.363 . S
C887 H858 0.950 . S
C887 C886 1.397 . S
C887 C888 1.334 . S
C888 H859 0.950 . S
C888 C887 1.334 . S
C888 C889 1.287 . S
C889 C888 1.287 . S
C889 C890 1.524 . S
C889 H892 0.999 . S
C890 H860 0.950 . S
C890 C889 1.524 . S
C890 C891 1.415 . S
C891 H861 0.950 . S
C891 C886 1.363 . S
C891 C890 1.415 . S
H892 C889 0.999 . S
H893 C874 0.913 . S
H894 C912 0.951 . S
H895 C914 0.951 . S
H896 C916 0.950 . S
H897 C917 0.950 . S
H898 C919 0.950 . S
H899 C922 0.950 . S
H900 C923 0.950 . S
H901 C925 0.950 . S
H902 C926 0.950 . S
H903 C927 0.951 . S
H904 C929 0.951 . S
H905 C931 0.950 . S
H906 C932 0.950 . S
H907 C934 0.950 . S
H908 C937 0.950 . S
H909 C938 0.950 . S
H910 C940 0.950 . S
H911 C941 0.950 . S
C912 H894 0.951 . S
C912 C913 1.366 . S
C912 C914 1.388 . S
C913 C912 1.366 . S
C913 C917 1.385 . S
C914 H895 0.951 . S
C914 C912 1.388 . S
C914 C915 1.366 . S
C915 C914 1.366 . S
C915 C916 1.414 . S
C915 C918 1.499 . S
C916 H896 0.950 . S
C916 C915 1.414 . S
C916 C917 1.374 . S
C917 H897 0.950 . S
C917 C913 1.385 . S
C917 C916 1.374 . S
C918 C915 1.499 . S
C918 C919 1.373 . S
C918 C920 1.389 . S
C919 H898 0.950 . S
C919 C918 1.373 . S
C919 C935 1.377 . S
C920 C918 1.389 . S
C920 C921 1.524 . S
C920 C934 1.377 . S
C921 C920 1.524 . S
C921 C922 1.397 . S
C921 C926 1.363 . S
C922 H899 0.950 . S
C922 C921 1.397 . S
C922 C923 1.334 . S
C923 H900 0.950 . S
C923 C922 1.334 . S
C923 C924 1.287 . S
C924 C923 1.287 . S
C924 C925 1.524 . S
C924 H943 0.913 . S
C925 H901 0.950 . S
C925 C924 1.524 . S
C925 C926 1.415 . S
C926 H902 0.950 . S
C926 C921 1.363 . S
C926 C925 1.415 . S
C927 H903 0.951 . S
C927 C928 1.366 . S
C927 C929 1.388 . S
C928 C927 1.366 . S
C928 C932 1.385 . S
C929 H904 0.951 . S
C929 C927 1.388 . S
C929 C930 1.366 . S
C930 C929 1.366 . S
C930 C931 1.414 . S
C930 C933 1.499 . S
C931 H905 0.950 . S
C931 C930 1.414 . S
C931 C932 1.374 . S
C932 H906 0.950 . S
C932 C928 1.385 . S
C932 C931 1.374 . S
C933 C930 1.499 . S
C933 C934 1.373 . S
C933 C935 1.389 . S
C934 H907 0.950 . S
C934 C920 1.377 . S
C934 C933 1.373 . S
C935 C919 1.377 . S
C935 C933 1.389 . S
C935 C936 1.524 . S
C936 C935 1.524 . S
C936 C937 1.397 . S
C936 C941 1.363 . S
C937 H908 0.950 . S
C937 C936 1.397 . S
C937 C938 1.334 . S
C938 H909 0.950 . S
C938 C937 1.334 . S
C938 C939 1.287 . S
C939 C938 1.287 . S
C939 C940 1.524 . S
C939 H942 0.999 . S
C940 H910 0.950 . S
C940 C939 1.524 . S
C940 C941 1.415 . S
C941 H911 0.950 . S
C941 C936 1.363 . S
C941 C940 1.415 . S
H942 C939 0.999 . S
H943 C924 0.913 . S
H944 C962 0.951 . S
H945 C964 0.951 . S
H946 C966 0.950 . S
H947 C967 0.950 . S
H948 C969 0.950 . S
H949 C972 0.950 . S
H950 C973 0.950 . S
H951 C975 0.950 . S
H952 C976 0.950 . S
H953 C977 0.951 . S
H954 C979 0.951 . S
H955 C981 0.950 . S
H956 C982 0.950 . S
H957 C984 0.950 . S
H958 C987 0.950 . S
H959 C988 0.950 . S
H960 C990 0.950 . S
H961 C991 0.950 . S
C962 H944 0.951 . S
C962 C963 1.366 . S
C962 C964 1.388 . S
C963 C962 1.366 . S
C963 C967 1.385 . S
C964 H945 0.951 . S
C964 C962 1.388 . S
C964 C965 1.366 . S
C965 C964 1.366 . S
C965 C966 1.414 . S
C965 C968 1.499 . S
C966 H946 0.950 . S
C966 C965 1.414 . S
C966 C967 1.374 . S
C967 H947 0.950 . S
C967 C963 1.385 . S
C967 C966 1.374 . S
C968 C965 1.499 . S
C968 C969 1.373 . S
C968 C970 1.389 . S
C969 H948 0.950 . S
C969 C968 1.373 . S
C969 C985 1.377 1_565 S
C970 C968 1.389 . S
C970 C971 1.524 . S
C970 C984 1.377 1_565 S
C971 C970 1.524 . S
C971 C972 1.397 . S
C971 C976 1.363 . S
C972 H949 0.950 . S
C972 C971 1.397 . S
C972 C973 1.334 . S
C973 H950 0.950 . S
C973 C972 1.334 . S
C973 C974 1.287 . S
C974 C973 1.287 . S
C974 C975 1.524 . S
C974 H993 0.913 . S
C975 H951 0.950 . S
C975 C974 1.524 . S
C975 C976 1.415 . S
C976 H952 0.950 . S
C976 C971 1.363 . S
C976 C975 1.415 . S
C977 H953 0.951 . S
C977 C978 1.366 . S
C977 C979 1.388 . S
C978 C977 1.366 . S
C978 C982 1.385 . S
C979 H954 0.951 . S
C979 C977 1.388 . S
C979 C980 1.366 . S
C980 C979 1.366 . S
C980 C981 1.414 . S
C980 C983 1.499 . S
C981 H955 0.950 . S
C981 C980 1.414 . S
C981 C982 1.374 . S
C982 H956 0.950 . S
C982 C978 1.385 . S
C982 C981 1.374 . S
C983 C980 1.499 . S
C983 C984 1.373 . S
C983 C985 1.389 . S
C984 H957 0.950 . S
C984 C970 1.377 1_545 S
C984 C983 1.373 . S
C985 C969 1.377 1_545 S
C985 C983 1.389 . S
C985 C986 1.524 . S
C986 C985 1.524 . S
C986 C987 1.397 . S
C986 C991 1.363 . S
C987 H958 0.950 . S
C987 C986 1.397 . S
C987 C988 1.334 . S
C988 H959 0.950 . S
C988 C987 1.334 . S
C988 C989 1.287 . S
C989 C988 1.287 . S
C989 C990 1.524 . S
C989 H992 0.999 . S
C990 H960 0.950 . S
C990 C989 1.524 . S
C990 C991 1.415 . S
C991 H961 0.950 . S
C991 C986 1.363 . S
C991 C990 1.415 . S
H992 C989 0.999 . S
H993 C974 0.913 . S
H994 C1012 0.951 . S
H995 C1014 0.951 . S
H996 C1016 0.950 . S
H997 C1017 0.950 . S
H998 C1019 0.950 . S
H999 C1022 0.950 . S
H1000 C1023 0.950 . S
H1001 C1025 0.950 . S
H1002 C1026 0.950 . S
H1003 C1027 0.951 . S
H1004 C1029 0.951 . S
H1005 C1031 0.950 . S
H1006 C1032 0.950 . S
H1007 C1034 0.950 . S
H1008 C1037 0.950 . S
H1009 C1038 0.950 . S
H1010 C1040 0.950 . S
H1011 C1041 0.950 . S
C1012 H994 0.951 . S
C1012 C1013 1.366 . S
C1012 C1014 1.388 . S
C1013 C1012 1.366 . S
C1013 C1017 1.385 . S
C1014 H995 0.951 . S
C1014 C1012 1.388 . S
C1014 C1015 1.366 . S
C1015 C1014 1.366 . S
C1015 C1016 1.414 . S
C1015 C1018 1.499 . S
C1016 H996 0.950 . S
C1016 C1015 1.414 . S
C1016 C1017 1.374 . S
C1017 H997 0.950 . S
C1017 C1013 1.385 . S
C1017 C1016 1.374 . S
C1018 C1015 1.499 . S
C1018 C1019 1.373 . S
C1018 C1020 1.389 . S
C1019 H998 0.950 . S
C1019 C1018 1.373 . S
C1019 C1035 1.377 1_455 S
C1020 C1018 1.389 . S
C1020 C1021 1.524 . S
C1020 C1034 1.377 1_455 S
C1021 C1020 1.524 . S
C1021 C1022 1.397 . S
C1021 C1026 1.363 . S
C1022 H999 0.950 . S
C1022 C1021 1.397 . S
C1022 C1023 1.334 . S
C1023 H1000 0.950 . S
C1023 C1022 1.334 . S
C1023 C1024 1.287 . S
C1024 C1023 1.287 . S
C1024 C1025 1.524 . S
C1024 H1043 0.913 . S
C1025 H1001 0.950 . S
C1025 C1024 1.524 . S
C1025 C1026 1.415 . S
C1026 H1002 0.950 . S
C1026 C1021 1.363 . S
C1026 C1025 1.415 . S
C1027 H1003 0.951 . S
C1027 C1028 1.366 . S
C1027 C1029 1.388 . S
C1028 C1027 1.366 . S
C1028 C1032 1.385 . S
C1029 H1004 0.951 . S
C1029 C1027 1.388 . S
C1029 C1030 1.366 . S
C1030 C1029 1.366 . S
C1030 C1031 1.414 . S
C1030 C1033 1.499 . S
C1031 H1005 0.950 . S
C1031 C1030 1.414 . S
C1031 C1032 1.374 . S
C1032 H1006 0.950 . S
C1032 C1028 1.385 . S
C1032 C1031 1.374 . S
C1033 C1030 1.499 . S
C1033 C1034 1.373 . S
C1033 C1035 1.389 . S
C1034 H1007 0.950 . S
C1034 C1020 1.377 1_655 S
C1034 C1033 1.373 . S
C1035 C1019 1.377 1_655 S
C1035 C1033 1.389 . S
C1035 C1036 1.524 . S
C1036 C1035 1.524 . S
C1036 C1037 1.397 . S
C1036 C1041 1.363 . S
C1037 H1008 0.950 . S
C1037 C1036 1.397 . S
C1037 C1038 1.334 . S
C1038 H1009 0.950 . S
C1038 C1037 1.334 . S
C1038 C1039 1.287 . S
C1039 C1038 1.287 . S
C1039 C1040 1.524 . S
C1039 H1042 0.999 . S
C1040 H1010 0.950 . S
C1040 C1039 1.524 . S
C1040 C1041 1.415 . S
C1041 H1011 0.950 . S
C1041 C1036 1.363 . S
C1041 C1040 1.415 . S
H1042 C1039 0.999 . S
H1043 C1024 0.913 . S
H1044 C1062 0.951 . S
H1045 C1064 0.951 . S
H1046 C1066 0.950 . S
H1047 C1067 0.950 . S
H1048 C1069 0.950 . S
H1049 C1072 0.950 . S
H1050 C1073 0.950 . S
H1051 C1075 0.950 . S
H1052 C1076 0.950 . S
H1053 C1077 0.951 . S
H1054 C1079 0.951 . S
H1055 C1081 0.950 . S
H1056 C1082 0.950 . S
H1057 C1084 0.950 . S
H1058 C1087 0.950 . S
H1059 C1088 0.950 . S
H1060 C1090 0.950 . S
H1061 C1091 0.950 . S
C1062 H1044 0.951 . S
C1062 C1063 1.366 . S
C1062 C1064 1.388 . S
C1063 C1062 1.366 . S
C1063 C1067 1.385 . S
C1064 H1045 0.951 . S
C1064 C1062 1.388 . S
C1064 C1065 1.366 . S
C1065 C1064 1.366 . S
C1065 C1066 1.414 . S
C1065 C1068 1.499 . S
C1066 H1046 0.950 . S
C1066 C1065 1.414 . S
C1066 C1067 1.374 . S
C1067 H1047 0.950 . S
C1067 C1063 1.385 . S
C1067 C1066 1.374 . S
C1068 C1065 1.499 . S
C1068 C1069 1.373 . S
C1068 C1070 1.389 . S
C1069 H1048 0.950 . S
C1069 C1068 1.373 . S
C1069 C1085 1.377 . S
C1070 C1068 1.389 . S
C1070 C1071 1.524 . S
C1070 C1084 1.377 . S
C1071 C1070 1.524 . S
C1071 C1072 1.397 . S
C1071 C1076 1.363 . S
C1072 H1049 0.950 . S
C1072 C1071 1.397 . S
C1072 C1073 1.334 . S
C1073 H1050 0.950 . S
C1073 C1072 1.334 . S
C1073 C1074 1.287 . S
C1074 C1073 1.287 . S
C1074 C1075 1.524 . S
C1074 H1093 0.913 . S
C1075 H1051 0.950 . S
C1075 C1074 1.524 . S
C1075 C1076 1.415 . S
C1076 H1052 0.950 . S
C1076 C1071 1.363 . S
C1076 C1075 1.415 . S
C1077 H1053 0.951 . S
C1077 C1078 1.366 . S
C1077 C1079 1.388 . S
C1078 C1077 1.366 . S
C1078 C1082 1.385 . S
C1079 H1054 0.951 . S
C1079 C1077 1.388 . S
C1079 C1080 1.366 . S
C1080 C1079 1.366 . S
C1080 C1081 1.414 . S
C1080 C1083 1.499 . S
C1081 H1055 0.950 . S
C1081 C1080 1.414 . S
C1081 C1082 1.374 . S
C1082 H1056 0.950 . S
C1082 C1078 1.385 . S
C1082 C1081 1.374 . S
C1083 C1080 1.499 . S
C1083 C1084 1.373 . S
C1083 C1085 1.389 . S
C1084 H1057 0.950 . S
C1084 C1070 1.377 . S
C1084 C1083 1.373 . S
C1085 C1069 1.377 . S
C1085 C1083 1.389 . S
C1085 C1086 1.524 . S
C1086 C1085 1.524 . S
C1086 C1087 1.397 . S
C1086 C1091 1.363 . S
C1087 H1058 0.950 . S
C1087 C1086 1.397 . S
C1087 C1088 1.334 . S
C1088 H1059 0.950 . S
C1088 C1087 1.334 . S
C1088 C1089 1.287 . S
C1089 C1088 1.287 . S
C1089 C1090 1.524 . S
C1089 H1092 0.999 . S
C1090 H1060 0.950 . S
C1090 C1089 1.524 . S
C1090 C1091 1.415 . S
C1091 H1061 0.950 . S
C1091 C1086 1.363 . S
C1091 C1090 1.415 . S
H1092 C1089 0.999 . S
H1093 C1074 0.913 . S
H1094 C1112 0.951 . S
H1095 C1114 0.951 . S
H1096 C1116 0.950 . S
H1097 C1117 0.950 . S
H1098 C1119 0.950 . S
H1099 C1122 0.950 . S
H1100 C1123 0.950 . S
H1101 C1125 0.950 . S
H1102 C1126 0.950 . S
H1103 C1127 0.951 . S
H1104 C1129 0.951 . S
H1105 C1131 0.950 . S
H1106 C1132 0.950 . S
H1107 C1134 0.950 . S
H1108 C1137 0.950 . S
H1109 C1138 0.950 . S
H1110 C1140 0.950 . S
H1111 C1141 0.950 . S
C1112 H1094 0.951 . S
C1112 C1113 1.366 . S
C1112 C1114 1.388 . S
C1113 C1112 1.366 . S
C1113 C1117 1.385 . S
C1114 H1095 0.951 . S
C1114 C1112 1.388 . S
C1114 C1115 1.366 . S
C1115 C1114 1.366 . S
C1115 C1116 1.414 . S
C1115 C1118 1.499 . S
C1116 H1096 0.950 . S
C1116 C1115 1.414 . S
C1116 C1117 1.374 . S
C1117 H1097 0.950 . S
C1117 C1113 1.385 . S
C1117 C1116 1.374 . S
C1118 C1115 1.499 . S
C1118 C1119 1.373 . S
C1118 C1120 1.389 . S
C1119 H1098 0.950 . S
C1119 C1118 1.373 . S
C1119 C1135 1.377 . S
C1120 C1118 1.389 . S
C1120 C1121 1.524 . S
C1120 C1134 1.377 . S
C1121 C1120 1.524 . S
C1121 C1122 1.397 . S
C1121 C1126 1.363 . S
C1122 H1099 0.950 . S
C1122 C1121 1.397 . S
C1122 C1123 1.334 . S
C1123 H1100 0.950 . S
C1123 C1122 1.334 . S
C1123 C1124 1.287 . S
C1124 C1123 1.287 . S
C1124 C1125 1.524 . S
C1124 H1143 0.913 . S
C1125 H1101 0.950 . S
C1125 C1124 1.524 . S
C1125 C1126 1.415 . S
C1126 H1102 0.950 . S
C1126 C1121 1.363 . S
C1126 C1125 1.415 . S
C1127 H1103 0.951 . S
C1127 C1128 1.366 . S
C1127 C1129 1.388 . S
C1128 C1127 1.366 . S
C1128 C1132 1.385 . S
C1129 H1104 0.951 . S
C1129 C1127 1.388 . S
C1129 C1130 1.366 . S
C1130 C1129 1.366 . S
C1130 C1131 1.414 . S
C1130 C1133 1.499 . S
C1131 H1105 0.950 . S
C1131 C1130 1.414 . S
C1131 C1132 1.374 . S
C1132 H1106 0.950 . S
C1132 C1128 1.385 . S
C1132 C1131 1.374 . S
C1133 C1130 1.499 . S
C1133 C1134 1.373 . S
C1133 C1135 1.389 . S
C1134 H1107 0.950 . S
C1134 C1120 1.377 . S
C1134 C1133 1.373 . S
C1135 C1119 1.377 . S
C1135 C1133 1.389 . S
C1135 C1136 1.524 . S
C1136 C1135 1.524 . S
C1136 C1137 1.397 . S
C1136 C1141 1.363 . S
C1137 H1108 0.950 . S
C1137 C1136 1.397 . S
C1137 C1138 1.334 . S
C1138 H1109 0.950 . S
C1138 C1137 1.334 . S
C1138 C1139 1.287 . S
C1139 C1138 1.287 . S
C1139 C1140 1.524 . S
C1139 H1142 0.999 . S
C1140 H1110 0.950 . S
C1140 C1139 1.524 . S
C1140 C1141 1.415 . S
C1141 H1111 0.950 . S
C1141 C1136 1.363 . S
C1141 C1140 1.415 . S
H1142 C1139 0.999 . S
H1143 C1124 0.913 . S
H1144 C1162 0.951 . S
H1145 C1164 0.951 . S
H1146 C1166 0.950 . S
H1147 C1167 0.950 . S
H1148 C1169 0.950 . S
H1149 C1172 0.950 . S
H1150 C1173 0.950 . S
H1151 C1175 0.950 . S
H1152 C1176 0.950 . S
H1153 C1177 0.951 . S
H1154 C1179 0.951 . S
H1155 C1181 0.950 . S
H1156 C1182 0.950 . S
H1157 C1184 0.950 . S
H1158 C1187 0.950 . S
H1159 C1188 0.950 . S
H1160 C1190 0.950 . S
H1161 C1191 0.950 . S
C1162 H1144 0.951 . S
C1162 C1163 1.366 . S
C1162 C1164 1.388 . S
C1163 C1162 1.366 . S
C1163 C1167 1.385 . S
C1164 H1145 0.951 . S
C1164 C1162 1.388 . S
C1164 C1165 1.366 . S
C1165 C1164 1.366 . S
C1165 C1166 1.414 . S
C1165 C1168 1.499 . S
C1166 H1146 0.950 . S
C1166 C1165 1.414 . S
C1166 C1167 1.374 . S
C1167 H1147 0.950 . S
C1167 C1163 1.385 . S
C1167 C1166 1.374 . S
C1168 C1165 1.499 . S
C1168 C1169 1.373 . S
C1168 C1170 1.389 . S
C1169 H1148 0.950 . S
C1169 C1168 1.373 . S
C1169 C1185 1.377 . S
C1170 C1168 1.389 . S
C1170 C1171 1.524 . S
C1170 C1184 1.377 . S
C1171 C1170 1.524 . S
C1171 C1172 1.397 . S
C1171 C1176 1.363 . S
C1172 H1149 0.950 . S
C1172 C1171 1.397 . S
C1172 C1173 1.334 . S
C1173 H1150 0.950 . S
C1173 C1172 1.334 . S
C1173 C1174 1.287 . S
C1174 C1173 1.287 . S
C1174 C1175 1.524 . S
C1174 H1193 0.913 . S
C1175 H1151 0.950 . S
C1175 C1174 1.524 . S
C1175 C1176 1.415 . S
C1176 H1152 0.950 . S
C1176 C1171 1.363 . S
C1176 C1175 1.415 . S
C1177 H1153 0.951 . S
C1177 C1178 1.366 . S
C1177 C1179 1.388 . S
C1178 C1177 1.366 . S
C1178 C1182 1.385 . S
C1179 H1154 0.951 . S
C1179 C1177 1.388 . S
C1179 C1180 1.366 . S
C1180 C1179 1.366 . S
C1180 C1181 1.414 . S
C1180 C1183 1.499 . S
C1181 H1155 0.950 . S
C1181 C1180 1.414 . S
C1181 C1182 1.374 . S
C1182 H1156 0.950 . S
C1182 C1178 1.385 . S
C1182 C1181 1.374 . S
C1183 C1180 1.499 . S
C1183 C1184 1.373 . S
C1183 C1185 1.389 . S
C1184 H1157 0.950 . S
C1184 C1170 1.377 . S
C1184 C1183 1.373 . S
C1185 C1169 1.377 . S
C1185 C1183 1.389 . S
C1185 C1186 1.524 . S
C1186 C1185 1.524 . S
C1186 C1187 1.397 . S
C1186 C1191 1.363 . S
C1187 H1158 0.950 . S
C1187 C1186 1.397 . S
C1187 C1188 1.334 . S
C1188 H1159 0.950 . S
C1188 C1187 1.334 . S
C1188 C1189 1.287 . S
C1189 C1188 1.287 . S
C1189 C1190 1.524 . S
C1189 H1192 0.999 . S
C1190 H1160 0.950 . S
C1190 C1189 1.524 . S
C1190 C1191 1.415 . S
C1191 H1161 0.950 . S
C1191 C1186 1.363 . S
C1191 C1190 1.415 . S
H1192 C1189 0.999 . S
H1193 C1174 0.913 . S
H1194 C1212 0.951 . S
H1195 C1214 0.951 . S
H1196 C1216 0.950 . S
H1197 C1217 0.950 . S
H1198 C1219 0.950 . S
H1199 C1222 0.950 . S
H1200 C1223 0.950 . S
H1201 C1225 0.950 . S
H1202 C1226 0.950 . S
H1203 C1227 0.951 . S
H1204 C1229 0.951 . S
H1205 C1231 0.950 . S
H1206 C1232 0.950 . S
H1207 C1234 0.950 . S
H1208 C1237 0.950 . S
H1209 C1238 0.950 . S
H1210 C1240 0.950 . S
H1211 C1241 0.950 . S
C1212 H1194 0.951 . S
C1212 C1213 1.366 . S
C1212 C1214 1.388 . S
C1213 C1212 1.366 . S
C1213 C1217 1.385 . S
C1214 H1195 0.951 . S
C1214 C1212 1.388 . S
C1214 C1215 1.366 . S
C1215 C1214 1.366 . S
C1215 C1216 1.414 . S
C1215 C1218 1.499 . S
C1216 H1196 0.950 . S
C1216 C1215 1.414 . S
C1216 C1217 1.374 . S
C1217 H1197 0.950 . S
C1217 C1213 1.385 . S
C1217 C1216 1.374 . S
C1218 C1215 1.499 . S
C1218 C1219 1.373 . S
C1218 C1220 1.389 . S
C1219 H1198 0.950 . S
C1219 C1218 1.373 . S
C1219 C1235 1.377 . S
C1220 C1218 1.389 . S
C1220 C1221 1.524 . S
C1220 C1234 1.377 . S
C1221 C1220 1.524 . S
C1221 C1222 1.397 . S
C1221 C1226 1.363 . S
C1222 H1199 0.950 . S
C1222 C1221 1.397 . S
C1222 C1223 1.334 . S
C1223 H1200 0.950 . S
C1223 C1222 1.334 . S
C1223 C1224 1.287 . S
C1224 C1223 1.287 . S
C1224 C1225 1.524 . S
C1224 H1243 0.913 . S
C1225 H1201 0.950 . S
C1225 C1224 1.524 . S
C1225 C1226 1.415 . S
C1226 H1202 0.950 . S
C1226 C1221 1.363 . S
C1226 C1225 1.415 . S
C1227 H1203 0.951 . S
C1227 C1228 1.366 . S
C1227 C1229 1.388 . S
C1228 C1227 1.366 . S
C1228 C1232 1.385 . S
C1229 H1204 0.951 . S
C1229 C1227 1.388 . S
C1229 C1230 1.366 . S
C1230 C1229 1.366 . S
C1230 C1231 1.414 . S
C1230 C1233 1.499 . S
C1231 H1205 0.950 . S
C1231 C1230 1.414 . S
C1231 C1232 1.374 . S
C1232 H1206 0.950 . S
C1232 C1228 1.385 . S
C1232 C1231 1.374 . S
C1233 C1230 1.499 . S
C1233 C1234 1.373 . S
C1233 C1235 1.389 . S
C1234 H1207 0.950 . S
C1234 C1220 1.377 . S
C1234 C1233 1.373 . S
C1235 C1219 1.377 . S
C1235 C1233 1.389 . S
C1235 C1236 1.524 . S
C1236 C1235 1.524 . S
C1236 C1237 1.397 . S
C1236 C1241 1.363 . S
C1237 H1208 0.950 . S
C1237 C1236 1.397 . S
C1237 C1238 1.334 . S
C1238 H1209 0.950 . S
C1238 C1237 1.334 . S
C1238 C1239 1.287 . S
C1239 C1238 1.287 . S
C1239 C1240 1.524 . S
C1239 H1242 0.999 . S
C1240 H1210 0.950 . S
C1240 C1239 1.524 . S
C1240 C1241 1.415 . S
C1241 H1211 0.950 . S
C1241 C1236 1.363 . S
C1241 C1240 1.415 . S
H1242 C1239 0.999 . S
H1243 C1224 0.913 . S
H1244 C1262 0.951 . S
H1245 C1264 0.951 . S
H1246 C1266 0.950 . S
H1247 C1267 0.950 . S
H1248 C1269 0.950 . S
H1249 C1272 0.950 . S
H1250 C1273 0.950 . S
H1251 C1275 0.950 . S
H1252 C1276 0.950 . S
H1253 C1277 0.951 . S
H1254 C1279 0.951 . S
H1255 C1281 0.950 . S
H1256 C1282 0.950 . S
H1257 C1284 0.950 . S
H1258 C1287 0.950 . S
H1259 C1288 0.950 . S
H1260 C1290 0.950 . S
H1261 C1291 0.950 . S
C1262 H1244 0.951 . S
C1262 C1263 1.366 . S
C1262 C1264 1.388 . S
C1263 C1262 1.366 . S
C1263 C1267 1.385 . S
C1264 H1245 0.951 . S
C1264 C1262 1.388 . S
C1264 C1265 1.366 . S
C1265 C1264 1.366 . S
C1265 C1266 1.414 . S
C1265 C1268 1.499 . S
C1266 H1246 0.950 . S
C1266 C1265 1.414 . S
C1266 C1267 1.374 . S
C1267 H1247 0.950 . S
C1267 C1263 1.385 . S
C1267 C1266 1.374 . S
C1268 C1265 1.499 . S
C1268 C1269 1.373 . S
C1268 C1270 1.389 . S
C1269 H1248 0.950 . S
C1269 C1268 1.373 . S
C1269 C1285 1.377 . S
C1270 C1268 1.389 . S
C1270 C1271 1.524 . S
C1270 C1284 1.377 . S
C1271 C1270 1.524 . S
C1271 C1272 1.397 . S
C1271 C1276 1.363 . S
C1272 H1249 0.950 . S
C1272 C1271 1.397 . S
C1272 C1273 1.334 . S
C1273 H1250 0.950 . S
C1273 C1272 1.334 . S
C1273 C1274 1.287 . S
C1274 C1273 1.287 . S
C1274 C1275 1.524 . S
C1274 H1293 0.913 . S
C1275 H1251 0.950 . S
C1275 C1274 1.524 . S
C1275 C1276 1.415 . S
C1276 H1252 0.950 . S
C1276 C1271 1.363 . S
C1276 C1275 1.415 . S
C1277 H1253 0.951 . S
C1277 C1278 1.366 . S
C1277 C1279 1.388 . S
C1278 C1277 1.366 . S
C1278 C1282 1.385 . S
C1279 H1254 0.951 . S
C1279 C1277 1.388 . S
C1279 C1280 1.366 . S
C1280 C1279 1.366 . S
C1280 C1281 1.414 . S
C1280 C1283 1.499 . S
C1281 H1255 0.950 . S
C1281 C1280 1.414 . S
C1281 C1282 1.374 . S
C1282 H1256 0.950 . S
C1282 C1278 1.385 . S
C1282 C1281 1.374 . S
C1283 C1280 1.499 . S
C1283 C1284 1.373 . S
C1283 C1285 1.389 . S
C1284 H1257 0.950 . S
C1284 C1270 1.377 . S
C1284 C1283 1.373 . S
C1285 C1269 1.377 . S
C1285 C1283 1.389 . S
C1285 C1286 1.524 . S
C1286 C1285 1.524 . S
C1286 C1287 1.397 . S
C1286 C1291 1.363 . S
C1287 H1258 0.950 . S
C1287 C1286 1.397 . S
C1287 C1288 1.334 . S
C1288 H1259 0.950 . S
C1288 C1287 1.334 . S
C1288 C1289 1.287 . S
C1289 C1288 1.287 . S
C1289 C1290 1.524 . S
C1289 H1292 0.999 . S
C1290 H1260 0.950 . S
C1290 C1289 1.524 . S
C1290 C1291 1.415 . S
C1291 H1261 0.950 . S
C1291 C1286 1.363 . S
C1291 C1290 1.415 . S
H1292 C1289 0.999 . S
H1293 C1274 0.913 . S
H1294 C1312 0.951 . S
H1295 C1314 0.951 . S
H1296 C1316 0.950 . S
H1297 C1317 0.950 . S
H1298 C1319 0.950 . S
H1299 C1322 0.950 . S
H1300 C1323 0.950 . S
H1301 C1325 0.950 . S
H1302 C1326 0.950 . S
H1303 C1327 0.951 . S
H1304 C1329 0.951 . S
H1305 C1331 0.950 . S
H1306 C1332 0.950 . S
H1307 C1334 0.950 . S
H1308 C1337 0.950 . S
H1309 C1338 0.950 . S
H1310 C1340 0.950 . S
H1311 C1341 0.950 . S
C1312 H1294 0.951 . S
C1312 C1313 1.366 . S
C1312 C1314 1.388 . S
C1313 C1312 1.366 . S
C1313 C1317 1.385 . S
C1314 H1295 0.951 . S
C1314 C1312 1.388 . S
C1314 C1315 1.366 . S
C1315 C1314 1.366 . S
C1315 C1316 1.414 . S
C1315 C1318 1.499 . S
C1316 H1296 0.950 . S
C1316 C1315 1.414 . S
C1316 C1317 1.374 . S
C1317 H1297 0.950 . S
C1317 C1313 1.385 . S
C1317 C1316 1.374 . S
C1318 C1315 1.499 . S
C1318 C1319 1.373 . S
C1318 C1320 1.389 . S
C1319 H1298 0.950 . S
C1319 C1318 1.373 . S
C1319 C1335 1.377 . S
C1320 C1318 1.389 . S
C1320 C1321 1.524 . S
C1320 C1334 1.377 . S
C1321 C1320 1.524 . S
C1321 C1322 1.397 . S
C1321 C1326 1.363 . S
C1322 H1299 0.950 . S
C1322 C1321 1.397 . S
C1322 C1323 1.334 . S
C1323 H1300 0.950 . S
C1323 C1322 1.334 . S
C1323 C1324 1.287 . S
C1324 C1323 1.287 . S
C1324 C1325 1.524 . S
C1324 H1343 0.913 . S
C1325 H1301 0.950 . S
C1325 C1324 1.524 . S
C1325 C1326 1.415 . S
C1326 H1302 0.950 . S
C1326 C1321 1.363 . S
C1326 C1325 1.415 . S
C1327 H1303 0.951 . S
C1327 C1328 1.366 . S
C1327 C1329 1.388 . S
C1328 C1327 1.366 . S
C1328 C1332 1.385 . S
C1329 H1304 0.951 . S
C1329 C1327 1.388 . S
C1329 C1330 1.366 . S
C1330 C1329 1.366 . S
C1330 C1331 1.414 . S
C1330 C1333 1.499 . S
C1331 H1305 0.950 . S
C1331 C1330 1.414 . S
C1331 C1332 1.374 . S
C1332 H1306 0.950 . S
C1332 C1328 1.385 . S
C1332 C1331 1.374 . S
C1333 C1330 1.499 . S
C1333 C1334 1.373 . S
C1333 C1335 1.389 . S
C1334 H1307 0.950 . S
C1334 C1320 1.377 . S
C1334 C1333 1.373 . S
C1335 C1319 1.377 . S
C1335 C1333 1.389 . S
C1335 C1336 1.524 . S
C1336 C1335 1.524 . S
C1336 C1337 1.397 . S
C1336 C1341 1.363 . S
C1337 H1308 0.950 . S
C1337 C1336 1.397 . S
C1337 C1338 1.334 . S
C1338 H1309 0.950 . S
C1338 C1337 1.334 . S
C1338 C1339 1.287 . S
C1339 C1338 1.287 . S
C1339 C1340 1.524 . S
C1339 H1342 0.999 . S
C1340 H1310 0.950 . S
C1340 C1339 1.524 . S
C1340 C1341 1.415 . S
C1341 H1311 0.950 . S
C1341 C1336 1.363 . S
C1341 C1340 1.415 . S
H1342 C1339 0.999 . S
H1343 C1324 0.913 . S
H1344 C1362 0.951 . S
H1345 C1364 0.951 1_556 S
H1346 C1366 0.950 . S
H1347 C1367 0.950 . S
H1348 C1369 0.950 . S
H1349 C1372 0.950 . S
H1350 C1373 0.967 . S
H1351 C1375 0.950 . S
H1352 C1376 0.950 . S
H1353 C1377 0.951 . S
H1354 C1379 0.951 1_554 S
H1355 C1381 0.950 . S
H1356 C1382 0.950 . S
H1357 C1384 0.950 . S
H1358 C1387 0.950 . S
H1359 C1388 0.968 . S
H1360 C1390 0.950 . S
H1361 C1391 0.950 . S
C1362 H1344 0.951 . S
C1362 C1363 1.366 . S
C1362 C1364 1.388 . S
C1363 C1362 1.366 . S
C1363 C1367 1.385 . S
C1364 H1345 0.951 1_554 S
C1364 C1362 1.388 . S
C1364 C1365 1.366 . S
C1365 C1364 1.366 . S
C1365 C1366 1.414 . S
C1365 C1368 1.499 . S
C1366 H1346 0.950 . S
C1366 C1365 1.414 . S
C1366 C1367 1.374 . S
C1367 H1347 0.950 . S
C1367 C1363 1.385 . S
C1367 C1366 1.374 . S
C1368 C1365 1.499 . S
C1368 C1369 1.373 . S
C1368 C1370 1.389 1_554 S
C1369 H1348 0.950 . S
C1369 C1368 1.373 . S
C1369 C1385 1.377 1_655 S
C1370 C1368 1.389 1_556 S
C1370 C1371 1.524 . S
C1370 C1384 1.377 1_655 S
C1371 C1370 1.524 . S
C1371 C1372 1.397 1_556 S
C1371 C1376 1.363 . S
C1372 H1349 0.950 . S
C1372 C1371 1.397 1_554 S
C1372 C1373 1.338 . S
C1373 H1350 0.967 . S
C1373 C1372 1.338 . S
C1373 C1374 1.265 1_554 S
C1374 C1373 1.265 1_556 S
C1374 C1375 1.524 . S
C1374 H1393 0.913 . S
C1375 H1351 0.950 . S
C1375 C1374 1.524 . S
C1375 C1376 1.415 . S
C1376 H1352 0.950 . S
C1376 C1371 1.363 . S
C1376 C1375 1.415 . S
C1377 H1353 0.951 . S
C1377 C1378 1.366 . S
C1377 C1379 1.388 . S
C1378 C1377 1.366 . S
C1378 C1382 1.385 . S
C1379 H1354 0.951 1_556 S
C1379 C1377 1.388 . S
C1379 C1380 1.366 . S
C1380 C1379 1.366 . S
C1380 C1381 1.414 . S
C1380 C1383 1.499 . S
C1381 H1355 0.950 . S
C1381 C1380 1.414 . S
C1381 C1382 1.374 . S
C1382 H1356 0.950 . S
C1382 C1378 1.385 . S
C1382 C1381 1.374 . S
C1383 C1380 1.499 . S
C1383 C1384 1.373 . S
C1383 C1385 1.389 1_556 S
C1384 H1357 0.950 . S
C1384 C1370 1.377 1_455 S
C1384 C1383 1.373 . S
C1385 C1369 1.377 1_455 S
C1385 C1383 1.389 1_554 S
C1385 C1386 1.524 . S
C1386 C1385 1.524 . S
C1386 C1387 1.397 1_554 S
C1386 C1391 1.363 . S
C1387 H1358 0.950 . S
C1387 C1386 1.397 1_556 S
C1387 C1388 1.339 . S
C1388 H1359 0.968 . S
C1388 C1387 1.339 . S
C1388 C1389 1.264 1_556 S
C1389 C1388 1.264 1_554 S
C1389 C1390 1.524 . S
C1389 H1392 0.999 . S
C1390 H1360 0.950 . S
C1390 C1389 1.524 . S
C1390 C1391 1.415 . S
C1391 H1361 0.950 . S
C1391 C1386 1.363 . S
C1391 C1390 1.415 . S
H1392 C1389 0.999 . S
H1393 C1374 0.913 . S
H1394 C1412 0.951 . S
H1395 C1414 0.968 . S
H1396 C1416 0.950 . S
H1397 C1417 0.950 . S
H1398 C1419 0.950 . S
H1399 C1422 0.950 . S
H1400 C1423 0.950 . S
H1401 C1425 0.950 . S
H1402 C1426 0.950 . S
H1403 C1427 0.951 . S
H1404 C1429 0.968 . S
H1405 C1431 0.950 . S
H1406 C1432 0.950 . S
H1407 C1434 0.950 . S
H1408 C1437 0.950 . S
H1409 C1438 0.950 . S
H1410 C1440 0.950 . S
H1411 C1441 0.950 . S
C1412 H1394 0.951 . S
C1412 C1413 1.366 . S
C1412 C1414 1.388 . S
C1413 C1412 1.366 . S
C1413 C1417 1.385 . S
C1414 H1395 0.968 . S
C1414 C1412 1.388 . S
C1414 C1415 1.366 . S
C1415 C1414 1.366 . S
C1415 C1416 1.414 . S
C1415 C1418 1.499 . S
C1416 H1396 0.950 . S
C1416 C1415 1.414 . S
C1416 C1417 1.374 . S
C1417 H1397 0.950 . S
C1417 C1413 1.385 . S
C1417 C1416 1.374 . S
C1418 C1415 1.499 . S
C1418 C1419 1.373 . S
C1418 C1420 1.389 1_556 S
C1419 H1398 0.950 . S
C1419 C1418 1.373 . S
C1419 C1435 1.377 . S
C1420 C1418 1.389 1_554 S
C1420 C1421 1.524 . S
C1420 C1434 1.377 . S
C1421 C1420 1.524 . S
C1421 C1422 1.397 1_554 S
C1421 C1426 1.363 . S
C1422 H1399 0.950 . S
C1422 C1421 1.397 1_556 S
C1422 C1423 1.334 . S
C1423 H1400 0.950 . S
C1423 C1422 1.334 . S
C1423 C1424 1.287 . S
C1424 C1423 1.287 . S
C1424 C1425 1.524 1_556 S
C1424 H1443 0.913 . S
C1425 H1401 0.950 . S
C1425 C1424 1.524 1_554 S
C1425 C1426 1.415 . S
C1426 H1402 0.950 . S
C1426 C1421 1.363 . S
C1426 C1425 1.415 . S
C1427 H1403 0.951 . S
C1427 C1428 1.366 . S
C1427 C1429 1.388 . S
C1428 C1427 1.366 . S
C1428 C1432 1.385 . S
C1429 H1404 0.968 . S
C1429 C1427 1.388 . S
C1429 C1430 1.366 . S
C1430 C1429 1.366 . S
C1430 C1431 1.414 . S
C1430 C1433 1.499 . S
C1431 H1405 0.950 . S
C1431 C1430 1.414 . S
C1431 C1432 1.374 . S
C1432 H1406 0.950 . S
C1432 C1428 1.385 . S
C1432 C1431 1.374 . S
C1433 C1430 1.499 . S
C1433 C1434 1.373 . S
C1433 C1435 1.389 1_554 S
C1434 H1407 0.950 . S
C1434 C1420 1.377 . S
C1434 C1433 1.373 . S
C1435 C1419 1.377 . S
C1435 C1433 1.389 1_556 S
C1435 C1436 1.524 . S
C1436 C1435 1.524 . S
C1436 C1437 1.397 1_556 S
C1436 C1441 1.363 . S
C1437 H1408 0.950 . S
C1437 C1436 1.397 1_554 S
C1437 C1438 1.334 . S
C1438 H1409 0.950 . S
C1438 C1437 1.334 . S
C1438 C1439 1.287 . S
C1439 C1438 1.287 . S
C1439 C1440 1.524 1_554 S
C1439 H1442 1.000 . S
C1440 H1410 0.950 . S
C1440 C1439 1.524 1_556 S
C1440 C1441 1.415 . S
C1441 H1411 0.950 . S
C1441 C1436 1.363 . S
C1441 C1440 1.415 . S
H1442 C1439 1.000 . S
H1443 C1424 0.913 . S
H1444 C1462 0.951 . S
H1445 C1464 0.951 . S
H1446 C1466 0.950 . S
H1447 C1467 0.950 . S
H1448 C1469 0.950 . S
H1449 C1472 0.950 . S
H1450 C1473 0.950 . S
H1451 C1475 0.950 . S
H1452 C1476 0.950 . S
H1453 C1477 0.951 . S
H1454 C1479 0.951 . S
H1455 C1481 0.950 . S
H1456 C1482 0.950 . S
H1457 C1484 0.950 . S
H1458 C1487 0.950 . S
H1459 C1488 0.950 . S
H1460 C1490 0.950 . S
H1461 C1491 0.950 . S
C1462 H1444 0.951 . S
C1462 C1463 1.366 . S
C1462 C1464 1.388 . S
C1463 C1462 1.366 . S
C1463 C1467 1.385 . S
C1464 H1445 0.951 . S
C1464 C1462 1.388 . S
C1464 C1465 1.366 . S
C1465 C1464 1.366 . S
C1465 C1466 1.414 . S
C1465 C1468 1.499 . S
C1466 H1446 0.950 . S
C1466 C1465 1.414 . S
C1466 C1467 1.374 . S
C1467 H1447 0.950 . S
C1467 C1463 1.385 . S
C1467 C1466 1.374 . S
C1468 C1465 1.499 . S
C1468 C1469 1.400 . S
C1468 C1470 1.389 1_554 S
C1469 H1448 0.950 . S
C1469 C1468 1.400 . S
C1469 C1485 1.351 1_545 S
C1470 C1468 1.389 1_556 S
C1470 C1471 1.524 . S
C1470 C1484 1.393 . S
C1471 C1470 1.524 . S
C1471 C1472 1.397 . S
C1471 C1476 1.363 . S
C1472 H1449 0.950 . S
C1472 C1471 1.397 . S
C1472 C1473 1.334 . S
C1473 H1450 0.950 . S
C1473 C1472 1.334 . S
C1473 C1474 1.287 . S
C1474 C1473 1.287 . S
C1474 C1475 1.524 . S
C1474 H1493 0.913 . S
C1475 H1451 0.950 . S
C1475 C1474 1.524 . S
C1475 C1476 1.415 . S
C1476 H1452 0.950 . S
C1476 C1471 1.363 . S
C1476 C1475 1.415 . S
C1477 H1453 0.951 . S
C1477 C1478 1.366 . S
C1477 C1479 1.388 . S
C1478 C1477 1.366 . S
C1478 C1482 1.385 . S
C1479 H1454 0.951 . S
C1479 C1477 1.388 . S
C1479 C1480 1.366 . S
C1480 C1479 1.366 . S
C1480 C1481 1.414 . S
C1480 C1483 1.499 . S
C1481 H1455 0.950 . S
C1481 C1480 1.414 . S
C1481 C1482 1.374 . S
C1482 H1456 0.950 . S
C1482 C1478 1.385 . S
C1482 C1481 1.374 . S
C1483 C1480 1.499 . S
C1483 C1484 1.356 1_565 S
C1483 C1485 1.389 1_556 S
C1484 H1457 0.950 . S
C1484 C1470 1.393 . S
C1484 C1483 1.356 1_545 S
C1485 C1469 1.351 1_565 S
C1485 C1483 1.389 1_554 S
C1485 C1486 1.524 . S
C1486 C1485 1.524 . S
C1486 C1487 1.397 . S
C1486 C1491 1.363 . S
C1487 H1458 0.950 . S
C1487 C1486 1.397 . S
C1487 C1488 1.334 . S
C1488 H1459 0.950 . S
C1488 C1487 1.334 . S
C1488 C1489 1.287 . S
C1489 C1488 1.287 . S
C1489 C1490 1.524 . S
C1489 H1492 0.999 . S
C1490 H1460 0.950 . S
C1490 C1489 1.524 . S
C1490 C1491 1.415 . S
C1491 H1461 0.950 . S
C1491 C1486 1.363 . S
C1491 C1490 1.415 . S
H1492 C1489 0.999 . S
H1493 C1474 0.913 . S
H1494 C1512 0.951 . S
H1495 C1514 0.951 . S
H1496 C1516 0.950 1_655 S
H1497 C1517 0.919 1_655 S
H1498 C1519 0.950 . S
H1499 C1522 0.950 . S
H1500 C1523 0.950 . S
H1501 C1525 0.949 . S
H1502 C1526 0.950 . S
H1503 C1527 0.951 . S
H1504 C1529 0.951 . S
H1505 C1531 0.919 1_455 S
H1506 C1532 0.950 1_455 S
H1507 C1534 0.950 . S
H1508 C1537 0.950 . S
H1509 C1538 0.950 . S
H1510 C1540 0.949 . S
H1511 C1541 0.950 . S
C1512 H1494 0.951 . S
C1512 C1513 1.366 . S
C1512 C1514 1.388 . S
C1513 C1512 1.366 . S
C1513 C1517 1.385 . S
C1514 H1495 0.951 . S
C1514 C1512 1.388 . S
C1514 C1515 1.366 . S
C1515 C1514 1.366 . S
C1515 C1516 1.414 . S
C1515 C1518 1.499 . S
C1516 H1496 0.950 1_455 S
C1516 C1515 1.414 . S
C1516 C1517 1.374 . S
C1517 H1497 0.919 1_455 S
C1517 C1513 1.385 . S
C1517 C1516 1.374 . S
C1518 C1515 1.499 . S
C1518 C1519 1.373 1_455 S
C1518 C1520 1.389 . S
C1519 H1498 0.950 . S
C1519 C1518 1.373 1_655 S
C1519 C1535 1.377 1_554 S
C1520 C1518 1.389 . S
C1520 C1521 1.524 . S
C1520 C1534 1.377 1_554 S
C1521 C1520 1.524 . S
C1521 C1522 1.397 . S
C1521 C1526 1.363 1_554 S
C1522 H1499 0.950 . S
C1522 C1521 1.397 . S
C1522 C1523 1.334 . S
C1523 H1500 0.950 . S
C1523 C1522 1.334 . S
C1523 C1524 1.287 . S
C1524 C1523 1.287 . S
C1524 C1525 1.525 1_554 S
C1524 H1543 0.913 . S
C1525 H1501 0.949 . S
C1525 C1524 1.525 1_556 S
C1525 C1526 1.415 . S
C1526 H1502 0.950 . S
C1526 C1521 1.363 1_556 S
C1526 C1525 1.415 . S
C1527 H1503 0.951 . S
C1527 C1528 1.366 . S
C1527 C1529 1.388 . S
C1528 C1527 1.366 . S
C1528 C1532 1.385 . S
C1529 H1504 0.951 . S
C1529 C1527 1.388 . S
C1529 C1530 1.366 . S
C1530 C1529 1.366 . S
C1530 C1531 1.436 . S
C1530 C1533 1.499 . S
C1531 H1505 0.919 1_655 S
C1531 C1530 1.436 . S
C1531 C1532 1.384 . S
C1532 H1506 0.950 1_655 S
C1532 C1528 1.385 . S
C1532 C1531 1.384 . S
C1533 C1530 1.499 . S
C1533 C1534 1.373 1_655 S
C1533 C1535 1.389 . S
C1534 H1507 0.950 . S
C1534 C1520 1.377 1_556 S
C1534 C1533 1.373 1_455 S
C1535 C1519 1.377 1_556 S
C1535 C1533 1.389 . S
C1535 C1536 1.524 . S
C1536 C1535 1.524 . S
C1536 C1537 1.397 . S
C1536 C1541 1.363 1_556 S
C1537 H1508 0.950 . S
C1537 C1536 1.397 . S
C1537 C1538 1.334 . S
C1538 H1509 0.950 . S
C1538 C1537 1.334 . S
C1538 C1539 1.287 . S
C1539 C1538 1.287 . S
C1539 C1540 1.525 1_556 S
C1539 H1542 0.999 . S
C1540 H1510 0.949 . S
C1540 C1539 1.525 1_554 S
C1540 C1541 1.415 . S
C1541 H1511 0.950 . S
C1541 C1536 1.363 1_554 S
C1541 C1540 1.415 . S
H1542 C1539 0.999 . S
H1543 C1524 0.913 . S
H1544 C1562 0.951 . S
H1545 C1564 0.951 . S
H1546 C1566 0.950 . S
H1547 C1567 0.950 . S
H1548 C1569 0.950 . S
H1549 C1572 0.950 . S
H1550 C1573 0.950 . S
H1551 C1575 0.950 . S
H1552 C1576 0.950 . S
H1553 C1577 0.951 . S
H1554 C1579 0.951 . S
H1555 C1581 0.950 . S
H1556 C1582 0.950 . S
H1557 C1584 0.950 . S
H1558 C1587 0.950 . S
H1559 C1588 0.950 . S
H1560 C1590 0.950 . S
H1561 C1591 0.950 . S
C1562 H1544 0.951 . S
C1562 C1563 1.366 . S
C1562 C1564 1.388 . S
C1563 C1562 1.366 . S
C1563 C1567 1.385 . S
C1564 H1545 0.951 . S
C1564 C1562 1.388 . S
C1564 C1565 1.366 . S
C1565 C1564 1.366 . S
C1565 C1566 1.414 . S
C1565 C1568 1.499 . S
C1566 H1546 0.950 . S
C1566 C1565 1.414 . S
C1566 C1567 1.374 . S
C1567 H1547 0.950 . S
C1567 C1563 1.385 . S
C1567 C1566 1.374 . S
C1568 C1565 1.499 . S
C1568 C1569 1.373 . S
C1568 C1570 1.389 . S
C1569 H1548 0.950 . S
C1569 C1568 1.373 . S
C1569 C1585 1.377 1_556 S
C1570 C1568 1.389 . S
C1570 C1571 1.524 . S
C1570 C1584 1.377 1_556 S
C1571 C1570 1.524 . S
C1571 C1572 1.397 . S
C1571 C1576 1.363 1_556 S
C1572 H1549 0.950 . S
C1572 C1571 1.397 . S
C1572 C1573 1.334 . S
C1573 H1550 0.950 . S
C1573 C1572 1.334 . S
C1573 C1574 1.287 . S
C1574 C1573 1.287 . S
C1574 C1575 1.524 1_556 S
C1574 H1593 0.913 . S
C1575 H1551 0.950 . S
C1575 C1574 1.524 1_554 S
C1575 C1576 1.415 . S
C1576 H1552 0.950 . S
C1576 C1571 1.363 1_554 S
C1576 C1575 1.415 . S
C1577 H1553 0.951 . S
C1577 C1578 1.366 . S
C1577 C1579 1.388 . S
C1578 C1577 1.366 . S
C1578 C1582 1.385 . S
C1579 H1554 0.951 . S
C1579 C1577 1.388 . S
C1579 C1580 1.366 . S
C1580 C1579 1.366 . S
C1580 C1581 1.414 . S
C1580 C1583 1.499 . S
C1581 H1555 0.950 . S
C1581 C1580 1.414 . S
C1581 C1582 1.374 . S
C1582 H1556 0.950 . S
C1582 C1578 1.385 . S
C1582 C1581 1.374 . S
C1583 C1580 1.499 . S
C1583 C1584 1.373 . S
C1583 C1585 1.389 . S
C1584 H1557 0.950 . S
C1584 C1570 1.377 1_554 S
C1584 C1583 1.373 . S
C1585 C1569 1.377 1_554 S
C1585 C1583 1.389 . S
C1585 C1586 1.524 . S
C1586 C1585 1.524 . S
C1586 C1587 1.397 . S
C1586 C1591 1.363 1_554 S
C1587 H1558 0.950 . S
C1587 C1586 1.397 . S
C1587 C1588 1.334 . S
C1588 H1559 0.950 . S
C1588 C1587 1.334 . S
C1588 C1589 1.287 . S
C1589 C1588 1.287 . S
C1589 C1590 1.524 1_554 S
C1589 H1592 0.999 . S
C1590 H1560 0.950 . S
C1590 C1589 1.524 1_556 S
C1590 C1591 1.415 . S
C1591 H1561 0.950 . S
C1591 C1586 1.363 1_556 S
C1591 C1590 1.415 . S
H1592 C1589 0.999 . S
H1593 C1574 0.913 . S
H1594 C1612 0.951 . S
H1595 C1614 0.951 . S
H1596 C1616 0.950 1_565 S
H1597 C1617 0.950 . S
H1598 C1619 0.950 . S
H1599 C1622 0.950 . S
H1600 C1623 0.950 . S
H1601 C1625 0.950 . S
H1602 C1626 0.950 . S
H1603 C1627 0.951 . S
H1604 C1629 0.951 . S
H1605 C1631 0.950 1_545 S
H1606 C1632 0.950 . S
H1607 C1634 0.950 . S
H1608 C1637 0.950 . S
H1609 C1638 0.950 . S
H1610 C1640 0.950 . S
H1611 C1641 0.950 . S
C1612 H1594 0.951 . S
C1612 C1613 1.366 . S
C1612 C1614 1.388 . S
C1613 C1612 1.366 . S
C1613 C1617 1.385 . S
C1614 H1595 0.951 . S
C1614 C1612 1.388 . S
C1614 C1615 1.366 . S
C1615 C1614 1.366 . S
C1615 C1616 1.414 . S
C1615 C1618 1.499 . S
C1616 H1596 0.950 1_545 S
C1616 C1615 1.414 . S
C1616 C1617 1.374 . S
C1617 H1597 0.950 . S
C1617 C1613 1.385 . S
C1617 C1616 1.374 . S
C1618 C1615 1.499 . S
C1618 C1619 1.373 1_545 S
C1618 C1620 1.389 . S
C1619 H1598 0.950 . S
C1619 C1618 1.373 1_565 S
C1619 C1635 1.377 1_556 S
C1620 C1618 1.389 . S
C1620 C1621 1.524 . S
C1620 C1634 1.377 1_556 S
C1621 C1620 1.524 . S
C1621 C1622 1.397 . S
C1621 C1626 1.363 1_556 S
C1622 H1599 0.950 . S
C1622 C1621 1.397 . S
C1622 C1623 1.334 . S
C1623 H1600 0.950 . S
C1623 C1622 1.334 . S
C1623 C1624 1.287 . S
C1624 C1623 1.287 . S
C1624 C1625 1.524 1_556 S
C1624 H1643 0.913 . S
C1625 H1601 0.950 . S
C1625 C1624 1.524 1_554 S
C1625 C1626 1.415 . S
C1626 H1602 0.950 . S
C1626 C1621 1.363 1_554 S
C1626 C1625 1.415 . S
C1627 H1603 0.951 . S
C1627 C1628 1.366 . S
C1627 C1629 1.388 . S
C1628 C1627 1.366 . S
C1628 C1632 1.385 . S
C1629 H1604 0.951 . S
C1629 C1627 1.388 . S
C1629 C1630 1.366 . S
C1630 C1629 1.366 . S
C1630 C1631 1.414 . S
C1630 C1633 1.499 . S
C1631 H1605 0.950 1_565 S
C1631 C1630 1.414 . S
C1631 C1632 1.374 . S
C1632 H1606 0.950 . S
C1632 C1628 1.385 . S
C1632 C1631 1.374 . S
C1633 C1630 1.499 . S
C1633 C1634 1.373 1_565 S
C1633 C1635 1.389 . S
C1634 H1607 0.950 . S
C1634 C1620 1.377 1_554 S
C1634 C1633 1.373 1_545 S
C1635 C1619 1.377 1_554 S
C1635 C1633 1.389 . S
C1635 C1636 1.524 . S
C1636 C1635 1.524 . S
C1636 C1637 1.397 . S
C1636 C1641 1.363 1_554 S
C1637 H1608 0.950 . S
C1637 C1636 1.397 . S
C1637 C1638 1.334 . S
C1638 H1609 0.950 . S
C1638 C1637 1.334 . S
C1638 C1639 1.287 . S
C1639 C1638 1.287 . S
C1639 C1640 1.524 1_554 S
C1639 H1642 0.999 . S
C1640 H1610 0.950 . S
C1640 C1639 1.524 1_556 S
C1640 C1641 1.415 . S
C1641 H1611 0.950 . S
C1641 C1636 1.363 1_556 S
C1641 C1640 1.415 . S
H1642 C1639 0.999 . S
H1643 C1624 0.913 . S
H1644 C1662 0.951 . S
H1645 C1664 0.951 . S
H1646 C1666 0.950 . S
H1647 C1667 0.950 . S
H1648 C1669 0.950 . S
H1649 C1672 0.950 . S
H1650 C1673 0.950 . S
H1651 C1675 0.950 . S
H1652 C1676 0.950 . S
H1653 C1677 0.951 . S
H1654 C1679 0.951 . S
H1655 C1681 0.950 . S
H1656 C1682 0.950 . S
H1657 C1684 0.950 . S
H1658 C1687 0.950 . S
H1659 C1688 0.950 . S
H1660 C1690 0.950 . S
H1661 C1691 0.950 . S
C1662 H1644 0.951 . S
C1662 C1663 1.366 . S
C1662 C1664 1.388 . S
C1663 C1662 1.366 . S
C1663 C1667 1.385 . S
C1664 H1645 0.951 . S
C1664 C1662 1.388 . S
C1664 C1665 1.366 . S
C1665 C1664 1.366 . S
C1665 C1666 1.414 . S
C1665 C1668 1.499 . S
C1666 H1646 0.950 . S
C1666 C1665 1.414 . S
C1666 C1667 1.374 . S
C1667 H1647 0.950 . S
C1667 C1663 1.385 . S
C1667 C1666 1.374 . S
C1668 C1665 1.499 . S
C1668 C1669 1.373 . S
C1668 C1670 1.389 . S
C1669 H1648 0.950 . S
C1669 C1668 1.373 . S
C1669 C1685 1.377 . S
C1670 C1668 1.389 . S
C1670 C1671 1.524 . S
C1670 C1684 1.377 . S
C1671 C1670 1.524 . S
C1671 C1672 1.397 . S
C1671 C1676 1.363 . S
C1672 H1649 0.950 . S
C1672 C1671 1.397 . S
C1672 C1673 1.334 . S
C1673 H1650 0.950 . S
C1673 C1672 1.334 . S
C1673 C1674 1.287 . S
C1674 C1673 1.287 . S
C1674 C1675 1.524 . S
C1674 H1693 0.913 . S
C1675 H1651 0.950 . S
C1675 C1674 1.524 . S
C1675 C1676 1.415 . S
C1676 H1652 0.950 . S
C1676 C1671 1.363 . S
C1676 C1675 1.415 . S
C1677 H1653 0.951 . S
C1677 C1678 1.366 . S
C1677 C1679 1.388 . S
C1678 C1677 1.366 . S
C1678 C1682 1.385 . S
C1679 H1654 0.951 . S
C1679 C1677 1.388 . S
C1679 C1680 1.366 . S
C1680 C1679 1.366 . S
C1680 C1681 1.414 . S
C1680 C1683 1.499 . S
C1681 H1655 0.950 . S
C1681 C1680 1.414 . S
C1681 C1682 1.374 . S
C1682 H1656 0.950 . S
C1682 C1678 1.385 . S
C1682 C1681 1.374 . S
C1683 C1680 1.499 . S
C1683 C1684 1.373 . S
C1683 C1685 1.389 . S
C1684 H1657 0.950 . S
C1684 C1670 1.377 . S
C1684 C1683 1.373 . S
C1685 C1669 1.377 . S
C1685 C1683 1.389 . S
C1685 C1686 1.524 . S
C1686 C1685 1.524 . S
C1686 C1687 1.397 . S
C1686 C1691 1.363 . S
C1687 H1658 0.950 . S
C1687 C1686 1.397 . S
C1687 C1688 1.334 . S
C1688 H1659 0.950 . S
C1688 C1687 1.334 . S
C1688 C1689 1.287 . S
C1689 C1688 1.287 . S
C1689 C1690 1.524 . S
C1689 H1692 0.999 . S
C1690 H1660 0.950 . S
C1690 C1689 1.524 . S
C1690 C1691 1.415 . S
C1691 H1661 0.950 . S
C1691 C1686 1.363 . S
C1691 C1690 1.415 . S
H1692 C1689 0.999 . S
H1693 C1674 0.913 . S
H1694 C1712 0.951 . S
H1695 C1714 0.951 . S
H1696 C1716 0.950 . S
H1697 C1717 0.950 . S
H1698 C1719 0.950 . S
H1699 C1722 0.950 . S
H1700 C1723 0.950 . S
H1701 C1725 0.950 . S
H1702 C1726 0.950 . S
H1703 C1727 0.951 . S
H1704 C1729 0.951 . S
H1705 C1731 0.950 . S
H1706 C1732 0.950 . S
H1707 C1734 0.950 . S
H1708 C1737 0.950 . S
H1709 C1738 0.950 . S
H1710 C1740 0.950 . S
H1711 C1741 0.950 . S
C1712 H1694 0.951 . S
C1712 C1713 1.366 . S
C1712 C1714 1.388 . S
C1713 C1712 1.366 . S
C1713 C1717 1.385 . S
C1714 H1695 0.951 . S
C1714 C1712 1.388 . S
C1714 C1715 1.366 . S
C1715 C1714 1.366 . S
C1715 C1716 1.414 . S
C1715 C1718 1.499 . S
C1716 H1696 0.950 . S
C1716 C1715 1.414 . S
C1716 C1717 1.374 . S
C1717 H1697 0.950 . S
C1717 C1713 1.385 . S
C1717 C1716 1.374 . S
C1718 C1715 1.499 . S
C1718 C1719 1.373 . S
C1718 C1720 1.389 . S
C1719 H1698 0.950 . S
C1719 C1718 1.373 . S
C1719 C1735 1.377 . S
C1720 C1718 1.389 . S
C1720 C1721 1.524 . S
C1720 C1734 1.377 . S
C1721 C1720 1.524 . S
C1721 C1722 1.397 . S
C1721 C1726 1.363 . S
C1722 H1699 0.950 . S
C1722 C1721 1.397 . S
C1722 C1723 1.334 . S
C1723 H1700 0.950 . S
C1723 C1722 1.334 . S
C1723 C1724 1.287 . S
C1724 C1723 1.287 . S
C1724 C1725 1.524 . S
C1724 H1743 0.913 . S
C1725 H1701 0.950 . S
C1725 C1724 1.524 . S
C1725 C1726 1.415 . S
C1726 H1702 0.950 . S
C1726 C1721 1.363 . S
C1726 C1725 1.415 . S
C1727 H1703 0.951 . S
C1727 C1728 1.366 . S
C1727 C1729 1.388 . S
C1728 C1727 1.366 . S
C1728 C1732 1.385 . S
C1729 H1704 0.951 . S
C1729 C1727 1.388 . S
C1729 C1730 1.366 . S
C1730 C1729 1.366 . S
C1730 C1731 1.414 . S
C1730 C1733 1.499 . S
C1731 H1705 0.950 . S
C1731 C1730 1.414 . S
C1731 C1732 1.374 . S
C1732 H1706 0.950 . S
C1732 C1728 1.385 . S
C1732 C1731 1.374 . S
C1733 C1730 1.499 . S
C1733 C1734 1.373 . S
C1733 C1735 1.389 . S
C1734 H1707 0.950 . S
C1734 C1720 1.377 . S
C1734 C1733 1.373 . S
C1735 C1719 1.377 . S
C1735 C1733 1.389 . S
C1735 C1736 1.524 . S
C1736 C1735 1.524 . S
C1736 C1737 1.397 . S
C1736 C1741 1.363 . S
C1737 H1708 0.950 . S
C1737 C1736 1.397 . S
C1737 C1738 1.334 . S
C1738 H1709 0.950 . S
C1738 C1737 1.334 . S
C1738 C1739 1.287 . S
C1739 C1738 1.287 . S
C1739 C1740 1.524 . S
C1739 H1742 0.999 . S
C1740 H1710 0.950 . S
C1740 C1739 1.524 . S
C1740 C1741 1.415 . S
C1741 H1711 0.950 . S
C1741 C1736 1.363 . S
C1741 C1740 1.415 . S
H1742 C1739 0.999 . S
H1743 C1724 0.913 . S
H1744 C1762 0.951 . S
H1745 C1764 0.951 . S
H1746 C1766 0.950 . S
H1747 C1767 0.950 . S
H1748 C1769 0.950 . S
H1749 C1772 0.950 . S
H1750 C1773 0.950 . S
H1751 C1775 0.950 . S
H1752 C1776 0.950 . S
H1753 C1777 0.951 . S
H1754 C1779 0.951 . S
H1755 C1781 0.950 . S
H1756 C1782 0.950 . S
H1757 C1784 0.950 . S
H1758 C1787 0.950 . S
H1759 C1788 0.950 . S
H1760 C1790 0.950 . S
H1761 C1791 0.950 . S
C1762 H1744 0.951 . S
C1762 C1763 1.366 . S
C1762 C1764 1.388 . S
C1763 C1762 1.366 . S
C1763 C1767 1.385 . S
C1764 H1745 0.951 . S
C1764 C1762 1.388 . S
C1764 C1765 1.366 . S
C1765 C1764 1.366 . S
C1765 C1766 1.414 . S
C1765 C1768 1.499 . S
C1766 H1746 0.950 . S
C1766 C1765 1.414 . S
C1766 C1767 1.374 . S
C1767 H1747 0.950 . S
C1767 C1763 1.385 . S
C1767 C1766 1.374 . S
C1768 C1765 1.499 . S
C1768 C1769 1.373 . S
C1768 C1770 1.389 . S
C1769 H1748 0.950 . S
C1769 C1768 1.373 . S
C1769 C1785 1.377 . S
C1770 C1768 1.389 . S
C1770 C1771 1.524 . S
C1770 C1784 1.377 . S
C1771 C1770 1.524 . S
C1771 C1772 1.397 . S
C1771 C1776 1.363 . S
C1772 H1749 0.950 . S
C1772 C1771 1.397 . S
C1772 C1773 1.334 . S
C1773 H1750 0.950 . S
C1773 C1772 1.334 . S
C1773 C1774 1.287 . S
C1774 C1773 1.287 . S
C1774 C1775 1.524 . S
C1774 H1793 0.913 . S
C1775 H1751 0.950 . S
C1775 C1774 1.524 . S
C1775 C1776 1.415 . S
C1776 H1752 0.950 . S
C1776 C1771 1.363 . S
C1776 C1775 1.415 . S
C1777 H1753 0.951 . S
C1777 C1778 1.366 . S
C1777 C1779 1.388 . S
C1778 C1777 1.366 . S
C1778 C1782 1.385 . S
C1779 H1754 0.951 . S
C1779 C1777 1.388 . S
C1779 C1780 1.366 . S
C1780 C1779 1.366 . S
C1780 C1781 1.414 . S
C1780 C1783 1.499 . S
C1781 H1755 0.950 . S
C1781 C1780 1.414 . S
C1781 C1782 1.374 . S
C1782 H1756 0.950 . S
C1782 C1778 1.385 . S
C1782 C1781 1.374 . S
C1783 C1780 1.499 . S
C1783 C1784 1.373 . S
C1783 C1785 1.389 . S
C1784 H1757 0.950 . S
C1784 C1770 1.377 . S
C1784 C1783 1.373 . S
C1785 C1769 1.377 . S
C1785 C1783 1.389 . S
C1785 C1786 1.524 . S
C1786 C1785 1.524 . S
C1786 C1787 1.397 . S
C1786 C1791 1.363 . S
C1787 H1758 0.950 . S
C1787 C1786 1.397 . S
C1787 C1788 1.334 . S
C1788 H1759 0.950 . S
C1788 C1787 1.334 . S
C1788 C1789 1.287 . S
C1789 C1788 1.287 . S
C1789 C1790 1.524 . S
C1789 H1792 0.999 . S
C1790 H1760 0.950 . S
C1790 C1789 1.524 . S
C1790 C1791 1.415 . S
C1791 H1761 0.950 . S
C1791 C1786 1.363 . S
C1791 C1790 1.415 . S
H1792 C1789 0.999 . S
H1793 C1774 0.913 . S
H1794 C1812 0.951 . S
H1795 C1814 0.951 . S
H1796 C1816 0.950 . S
H1797 C1817 0.950 . S
H1798 C1819 0.950 . S
H1799 C1822 0.950 . S
H1800 C1823 0.950 . S
H1801 C1825 0.950 . S
H1802 C1826 0.950 . S
H1803 C1827 0.951 . S
H1804 C1829 0.951 . S
H1805 C1831 0.950 . S
H1806 C1832 0.950 . S
H1807 C1834 0.950 . S
H1808 C1837 0.950 . S
H1809 C1838 0.950 . S
H1810 C1840 0.950 . S
H1811 C1841 0.950 . S
C1812 H1794 0.951 . S
C1812 C1813 1.366 . S
C1812 C1814 1.388 . S
C1813 C1812 1.366 . S
C1813 C1817 1.385 . S
C1814 H1795 0.951 . S
C1814 C1812 1.388 . S
C1814 C1815 1.366 . S
C1815 C1814 1.366 . S
C1815 C1816 1.414 . S
C1815 C1818 1.499 . S
C1816 H1796 0.950 . S
C1816 C1815 1.414 . S
C1816 C1817 1.374 . S
C1817 H1797 0.950 . S
C1817 C1813 1.385 . S
C1817 C1816 1.374 . S
C1818 C1815 1.499 . S
C1818 C1819 1.373 . S
C1818 C1820 1.389 . S
C1819 H1798 0.950 . S
C1819 C1818 1.373 . S
C1819 C1835 1.377 . S
C1820 C1818 1.389 . S
C1820 C1821 1.524 . S
C1820 C1834 1.377 . S
C1821 C1820 1.524 . S
C1821 C1822 1.397 . S
C1821 C1826 1.363 . S
C1822 H1799 0.950 . S
C1822 C1821 1.397 . S
C1822 C1823 1.334 . S
C1823 H1800 0.950 . S
C1823 C1822 1.334 . S
C1823 C1824 1.287 . S
C1824 C1823 1.287 . S
C1824 C1825 1.524 . S
C1824 H1843 0.913 . S
C1825 H1801 0.950 . S
C1825 C1824 1.524 . S
C1825 C1826 1.415 . S
C1826 H1802 0.950 . S
C1826 C1821 1.363 . S
C1826 C1825 1.415 . S
C1827 H1803 0.951 . S
C1827 C1828 1.366 . S
C1827 C1829 1.388 . S
C1828 C1827 1.366 . S
C1828 C1832 1.385 . S
C1829 H1804 0.951 . S
C1829 C1827 1.388 . S
C1829 C1830 1.366 . S
C1830 C1829 1.366 . S
C1830 C1831 1.414 . S
C1830 C1833 1.499 . S
C1831 H1805 0.950 . S
C1831 C1830 1.414 . S
C1831 C1832 1.374 . S
C1832 H1806 0.950 . S
C1832 C1828 1.385 . S
C1832 C1831 1.374 . S
C1833 C1830 1.499 . S
C1833 C1834 1.373 . S
C1833 C1835 1.389 . S
C1834 H1807 0.950 . S
C1834 C1820 1.377 . S
C1834 C1833 1.373 . S
C1835 C1819 1.377 . S
C1835 C1833 1.389 . S
C1835 C1836 1.524 . S
C1836 C1835 1.524 . S
C1836 C1837 1.397 . S
C1836 C1841 1.363 . S
C1837 H1808 0.950 . S
C1837 C1836 1.397 . S
C1837 C1838 1.334 . S
C1838 H1809 0.950 . S
C1838 C1837 1.334 . S
C1838 C1839 1.287 . S
C1839 C1838 1.287 . S
C1839 C1840 1.524 . S
C1839 H1842 0.999 . S
C1840 H1810 0.950 . S
C1840 C1839 1.524 . S
C1840 C1841 1.415 . S
C1841 H1811 0.950 . S
C1841 C1836 1.363 . S
C1841 C1840 1.415 . S
H1842 C1839 0.999 . S
H1843 C1824 0.913 . S
H1844 C1862 0.951 . S
H1845 C1864 0.951 . S
H1846 C1866 0.950 . S
H1847 C1867 0.950 . S
H1848 C1869 0.950 . S
H1849 C1872 0.950 . S
H1850 C1873 0.950 . S
H1851 C1875 0.950 . S
H1852 C1876 0.950 . S
H1853 C1877 0.951 . S
H1854 C1879 0.951 . S
H1855 C1881 0.950 . S
H1856 C1882 0.950 . S
H1857 C1884 0.950 . S
H1858 C1887 0.950 . S
H1859 C1888 0.950 . S
H1860 C1890 0.950 . S
H1861 C1891 0.950 . S
C1862 H1844 0.951 . S
C1862 C1863 1.366 . S
C1862 C1864 1.388 . S
C1863 C1862 1.366 . S
C1863 C1867 1.385 . S
C1864 H1845 0.951 . S
C1864 C1862 1.388 . S
C1864 C1865 1.366 . S
C1865 C1864 1.366 . S
C1865 C1866 1.414 . S
C1865 C1868 1.499 . S
C1866 H1846 0.950 . S
C1866 C1865 1.414 . S
C1866 C1867 1.374 . S
C1867 H1847 0.950 . S
C1867 C1863 1.385 . S
C1867 C1866 1.374 . S
C1868 C1865 1.499 . S
C1868 C1869 1.373 . S
C1868 C1870 1.389 . S
C1869 H1848 0.950 . S
C1869 C1868 1.373 . S
C1869 C1885 1.377 . S
C1870 C1868 1.389 . S
C1870 C1871 1.524 . S
C1870 C1884 1.377 . S
C1871 C1870 1.524 . S
C1871 C1872 1.397 . S
C1871 C1876 1.363 . S
C1872 H1849 0.950 . S
C1872 C1871 1.397 . S
C1872 C1873 1.334 . S
C1873 H1850 0.950 . S
C1873 C1872 1.334 . S
C1873 C1874 1.287 . S
C1874 C1873 1.287 . S
C1874 C1875 1.524 . S
C1874 H1893 0.913 . S
C1875 H1851 0.950 . S
C1875 C1874 1.524 . S
C1875 C1876 1.415 . S
C1876 H1852 0.950 . S
C1876 C1871 1.363 . S
C1876 C1875 1.415 . S
C1877 H1853 0.951 . S
C1877 C1878 1.366 . S
C1877 C1879 1.388 . S
C1878 C1877 1.366 . S
C1878 C1882 1.385 . S
C1879 H1854 0.951 . S
C1879 C1877 1.388 . S
C1879 C1880 1.366 . S
C1880 C1879 1.366 . S
C1880 C1881 1.414 . S
C1880 C1883 1.499 . S
C1881 H1855 0.950 . S
C1881 C1880 1.414 . S
C1881 C1882 1.374 . S
C1882 H1856 0.950 . S
C1882 C1878 1.385 . S
C1882 C1881 1.374 . S
C1883 C1880 1.499 . S
C1883 C1884 1.373 . S
C1883 C1885 1.389 . S
C1884 H1857 0.950 . S
C1884 C1870 1.377 . S
C1884 C1883 1.373 . S
C1885 C1869 1.377 . S
C1885 C1883 1.389 . S
C1885 C1886 1.524 . S
C1886 C1885 1.524 . S
C1886 C1887 1.397 . S
C1886 C1891 1.363 . S
C1887 H1858 0.950 . S
C1887 C1886 1.397 . S
C1887 C1888 1.334 . S
C1888 H1859 0.950 . S
C1888 C1887 1.334 . S
C1888 C1889 1.287 . S
C1889 C1888 1.287 . S
C1889 C1890 1.524 . S
C1889 H1892 0.999 . S
C1890 H1860 0.950 . S
C1890 C1889 1.524 . S
C1890 C1891 1.415 . S
C1891 H1861 0.950 . S
C1891 C1886 1.363 . S
C1891 C1890 1.415 . S
H1892 C1889 0.999 . S
H1893 C1874 0.913 . S
H1894 C1912 0.951 . S
H1895 C1914 0.951 . S
H1896 C1916 0.950 . S
H1897 C1917 0.950 . S
H1898 C1919 0.950 . S
H1899 C1922 0.950 . S
H1900 C1923 0.950 . S
H1901 C1925 0.950 . S
H1902 C1926 0.950 . S
H1903 C1927 0.951 . S
H1904 C1929 0.951 . S
H1905 C1931 0.950 . S
H1906 C1932 0.950 . S
H1907 C1934 0.950 . S
H1908 C1937 0.950 . S
H1909 C1938 0.950 . S
H1910 C1940 0.950 . S
H1911 C1941 0.950 . S
C1912 H1894 0.951 . S
C1912 C1913 1.366 . S
C1912 C1914 1.388 . S
C1913 C1912 1.366 . S
C1913 C1917 1.385 . S
C1914 H1895 0.951 . S
C1914 C1912 1.388 . S
C1914 C1915 1.366 . S
C1915 C1914 1.366 . S
C1915 C1916 1.414 . S
C1915 C1918 1.499 . S
C1916 H1896 0.950 . S
C1916 C1915 1.414 . S
C1916 C1917 1.374 . S
C1917 H1897 0.950 . S
C1917 C1913 1.385 . S
C1917 C1916 1.374 . S
C1918 C1915 1.499 . S
C1918 C1919 1.373 . S
C1918 C1920 1.389 . S
C1919 H1898 0.950 . S
C1919 C1918 1.373 . S
C1919 C1935 1.377 . S
C1920 C1918 1.389 . S
C1920 C1921 1.524 . S
C1920 C1934 1.377 . S
C1921 C1920 1.524 . S
C1921 C1922 1.397 . S
C1921 C1926 1.363 . S
C1922 H1899 0.950 . S
C1922 C1921 1.397 . S
C1922 C1923 1.334 . S
C1923 H1900 0.950 . S
C1923 C1922 1.334 . S
C1923 C1924 1.287 . S
C1924 C1923 1.287 . S
C1924 C1925 1.524 . S
C1924 H1943 0.913 . S
C1925 H1901 0.950 . S
C1925 C1924 1.524 . S
C1925 C1926 1.415 . S
C1926 H1902 0.950 . S
C1926 C1921 1.363 . S
C1926 C1925 1.415 . S
C1927 H1903 0.951 . S
C1927 C1928 1.366 . S
C1927 C1929 1.388 . S
C1928 C1927 1.366 . S
C1928 C1932 1.385 . S
C1929 H1904 0.951 . S
C1929 C1927 1.388 . S
C1929 C1930 1.366 . S
C1930 C1929 1.366 . S
C1930 C1931 1.414 . S
C1930 C1933 1.499 . S
C1931 H1905 0.950 . S
C1931 C1930 1.414 . S
C1931 C1932 1.374 . S
C1932 H1906 0.950 . S
C1932 C1928 1.385 . S
C1932 C1931 1.374 . S
C1933 C1930 1.499 . S
C1933 C1934 1.373 . S
C1933 C1935 1.389 . S
C1934 H1907 0.950 . S
C1934 C1920 1.377 . S
C1934 C1933 1.373 . S
C1935 C1919 1.377 . S
C1935 C1933 1.389 . S
C1935 C1936 1.524 . S
C1936 C1935 1.524 . S
C1936 C1937 1.397 . S
C1936 C1941 1.363 . S
C1937 H1908 0.950 . S
C1937 C1936 1.397 . S
C1937 C1938 1.334 . S
C1938 H1909 0.950 . S
C1938 C1937 1.334 . S
C1938 C1939 1.287 . S
C1939 C1938 1.287 . S
C1939 C1940 1.524 . S
C1939 H1942 0.999 . S
C1940 H1910 0.950 . S
C1940 C1939 1.524 . S
C1940 C1941 1.415 . S
C1941 H1911 0.950 . S
C1941 C1936 1.363 . S
C1941 C1940 1.415 . S
H1942 C1939 0.999 . S
H1943 C1924 0.913 . S
H1944 C1962 0.951 . S
H1945 C1964 0.951 . S
H1946 C1966 0.950 . S
H1947 C1967 0.950 . S
H1948 C1969 0.950 . S
H1949 C1972 0.950 . S
H1950 C1973 0.950 . S
H1951 C1975 0.950 . S
H1952 C1976 0.950 . S
H1953 C1977 0.951 . S
H1954 C1979 0.951 . S
H1955 C1981 0.950 . S
H1956 C1982 0.950 . S
H1957 C1984 0.950 . S
H1958 C1987 0.950 . S
H1959 C1988 0.950 . S
H1960 C1990 0.950 . S
H1961 C1991 0.950 . S
C1962 H1944 0.951 . S
C1962 C1963 1.366 . S
C1962 C1964 1.388 . S
C1963 C1962 1.366 . S
C1963 C1967 1.385 . S
C1964 H1945 0.951 . S
C1964 C1962 1.388 . S
C1964 C1965 1.366 . S
C1965 C1964 1.366 . S
C1965 C1966 1.414 . S
C1965 C1968 1.499 . S
C1966 H1946 0.950 . S
C1966 C1965 1.414 . S
C1966 C1967 1.374 . S
C1967 H1947 0.950 . S
C1967 C1963 1.385 . S
C1967 C1966 1.374 . S
C1968 C1965 1.499 . S
C1968 C1969 1.373 . S
C1968 C1970 1.389 . S
C1969 H1948 0.950 . S
C1969 C1968 1.373 . S
C1969 C1985 1.377 . S
C1970 C1968 1.389 . S
C1970 C1971 1.524 . S
C1970 C1984 1.377 . S
C1971 C1970 1.524 . S
C1971 C1972 1.397 . S
C1971 C1976 1.363 . S
C1972 H1949 0.950 . S
C1972 C1971 1.397 . S
C1972 C1973 1.334 . S
C1973 H1950 0.950 . S
C1973 C1972 1.334 . S
C1973 C1974 1.287 . S
C1974 C1973 1.287 . S
C1974 C1975 1.524 . S
C1974 H1993 0.913 . S
C1975 H1951 0.950 . S
C1975 C1974 1.524 . S
C1975 C1976 1.415 . S
C1976 H1952 0.950 . S
C1976 C1971 1.363 . S
C1976 C1975 1.415 . S
C1977 H1953 0.951 . S
C1977 C1978 1.366 . S
C1977 C1979 1.388 . S
C1978 C1977 1.366 . S
C1978 C1982 1.385 . S
C1979 H1954 0.951 . S
C1979 C1977 1.388 . S
C1979 C1980 1.366 . S
C1980 C1979 1.366 . S
C1980 C1981 1.414 . S
C1980 C1983 1.499 . S
C1981 H1955 0.950 . S
C1981 C1980 1.414 . S
C1981 C1982 1.374 . S
C1982 H1956 0.950 . S
C1982 C1978 1.385 . S
C1982 C1981 1.374 . S
C1983 C1980 1.499 . S
C1983 C1984 1.373 . S
C1983 C1985 1.389 . S
C1984 H1957 0.950 . S
C1984 C1970 1.377 . S
C1984 C1983 1.373 . S
C1985 C1969 1.377 . S
C1985 C1983 1.389 . S
C1985 C1986 1.524 . S
C1986 C1985 1.524 . S
C1986 C1987 1.397 . S
C1986 C1991 1.363 . S
C1987 H1958 0.950 . S
C1987 C1986 1.397 . S
C1987 C1988 1.334 . S
C1988 H1959 0.950 . S
C1988 C1987 1.334 . S
C1988 C1989 1.287 . S
C1989 C1988 1.287 . S
C1989 C1990 1.524 . S
C1989 H1992 0.999 . S
C1990 H1960 0.950 . S
C1990 C1989 1.524 . S
C1990 C1991 1.415 . S
C1991 H1961 0.950 . S
C1991 C1986 1.363 . S
C1991 C1990 1.415 . S
H1992 C1989 0.999 . S
H1993 C1974 0.913 . S
H1994 C2012 0.946 1_455 S
H1995 C2014 0.951 . S
H1996 C2016 0.950 . S
H1997 C2017 0.950 . S
H1998 C2019 0.950 . S
H1999 C2022 0.950 . S
H2000 C2023 0.950 . S
H2001 C2025 0.950 . S
H2002 C2026 0.950 . S
H2003 C2027 0.951 . S
H2004 C2029 0.951 . S
H2005 C2031 0.950 . S
H2006 C2032 0.950 . S
H2007 C2034 0.950 . S
H2008 C2037 0.950 . S
H2009 C2038 0.950 . S
H2010 C2040 0.926 1_545 S
H2011 C2041 0.950 . S
C2012 H1994 0.946 1_655 S
C2012 C2013 1.366 . S
C2012 C2014 1.388 . S
C2013 C2012 1.366 . S
C2013 C2017 1.385 . S
C2014 H1995 0.951 . S
C2014 C2012 1.388 . S
C2014 C2015 1.366 . S
C2015 C2014 1.366 . S
C2015 C2016 1.414 . S
C2015 C2018 1.499 . S
C2016 H1996 0.950 . S
C2016 C2015 1.414 . S
C2016 C2017 1.374 . S
C2017 H1997 0.950 . S
C2017 C2013 1.385 . S
C2017 C2016 1.374 . S
C2018 C2015 1.499 . S
C2018 C2019 1.373 . S
C2018 C2020 1.389 . S
C2019 H1998 0.950 . S
C2019 C2018 1.373 . S
C2019 C2035 1.377 . S
C2020 C2018 1.389 . S
C2020 C2021 1.524 . S
C2020 C2034 1.377 . S
C2021 C2020 1.524 . S
C2021 C2022 1.397 . S
C2021 C2026 1.363 . S
C2022 H1999 0.950 . S
C2022 C2021 1.397 . S
C2022 C2023 1.334 . S
C2023 H2000 0.950 . S
C2023 C2022 1.334 . S
C2023 C2024 1.287 . S
C2024 C2023 1.287 . S
C2024 C2025 1.524 . S
C2024 H2043 0.913 . S
C2025 H2001 0.950 . S
C2025 C2024 1.524 . S
C2025 C2026 1.415 . S
C2026 H2002 0.950 . S
C2026 C2021 1.363 . S
C2026 C2025 1.415 . S
C2027 H2003 0.951 . S
C2027 C2028 1.366 . S
C2027 C2029 1.388 . S
C2028 C2027 1.366 . S
C2028 C2032 1.385 . S
C2029 H2004 0.951 . S
C2029 C2027 1.388 . S
C2029 C2030 1.366 . S
C2030 C2029 1.366 . S
C2030 C2031 1.414 . S
C2030 C2033 1.494 1_565 S
C2031 H2005 0.950 . S
C2031 C2030 1.414 . S
C2031 C2032 1.374 . S
C2032 H2006 0.950 . S
C2032 C2028 1.385 . S
C2032 C2031 1.374 . S
C2033 C2030 1.494 1_545 S
C2033 C2034 1.375 . S
C2033 C2035 1.393 . S
C2034 H2007 0.950 . S
C2034 C2020 1.377 . S
C2034 C2033 1.375 . S
C2035 C2019 1.377 . S
C2035 C2033 1.393 . S
C2035 C2036 1.524 . S
C2036 C2035 1.524 . S
C2036 C2037 1.397 1_545 S
C2036 C2041 1.363 . S
C2037 H2008 0.950 . S
C2037 C2036 1.397 1_565 S
C2037 C2038 1.334 . S
C2038 H2009 0.950 . S
C2038 C2037 1.334 . S
C2038 C2039 1.287 . S
C2039 C2038 1.287 . S
C2039 C2040 1.562 . S
C2039 H2042 0.999 . S
C2040 H2010 0.926 1_565 S
C2040 C2039 1.562 . S
C2040 C2041 1.405 1_565 S
C2041 H2011 0.950 . S
C2041 C2036 1.363 . S
C2041 C2040 1.405 1_545 S
H2042 C2039 0.999 . S
H2043 C2024 0.913 . S
H2044 C2062 0.951 . S
H2045 C2064 0.951 . S
H2046 C2066 0.950 . S
H2047 C2067 0.950 . S
H2048 C2069 0.950 . S
H2049 C2072 0.950 . S
H2050 C2073 0.950 . S
H2051 C2075 0.950 . S
H2052 C2076 0.950 . S
H2053 C2077 0.951 . S
H2054 C2079 0.951 . S
H2055 C2081 0.950 . S
H2056 C2082 0.950 . S
H2057 C2084 0.950 . S
H2058 C2087 0.950 . S
H2059 C2088 0.950 . S
H2060 C2090 0.950 . S
H2061 C2091 0.950 . S
C2062 H2044 0.951 . S
C2062 C2063 1.366 . S
C2062 C2064 1.388 . S
C2063 C2062 1.366 . S
C2063 C2067 1.385 . S
C2064 H2045 0.951 . S
C2064 C2062 1.388 . S
C2064 C2065 1.366 . S
C2065 C2064 1.366 . S
C2065 C2066 1.414 . S
C2065 C2068 1.499 . S
C2066 H2046 0.950 . S
C2066 C2065 1.414 . S
C2066 C2067 1.374 . S
C2067 H2047 0.950 . S
C2067 C2063 1.385 . S
C2067 C2066 1.374 . S
C2068 C2065 1.499 . S
C2068 C2069 1.373 . S
C2068 C2070 1.389 . S
C2069 H2048 0.950 . S
C2069 C2068 1.373 . S
C2069 C2085 1.377 . S
C2070 C2068 1.389 . S
C2070 C2071 1.524 . S
C2070 C2084 1.377 . S
C2071 C2070 1.524 . S
C2071 C2072 1.397 . S
C2071 C2076 1.363 . S
C2072 H2049 0.950 . S
C2072 C2071 1.397 . S
C2072 C2073 1.334 . S
C2073 H2050 0.950 . S
C2073 C2072 1.334 . S
C2073 C2074 1.287 . S
C2074 C2073 1.287 . S
C2074 C2075 1.524 . S
C2074 H2093 0.913 . S
C2075 H2051 0.950 . S
C2075 C2074 1.524 . S
C2075 C2076 1.415 . S
C2076 H2052 0.950 . S
C2076 C2071 1.363 . S
C2076 C2075 1.415 . S
C2077 H2053 0.951 . S
C2077 C2078 1.366 . S
C2077 C2079 1.388 . S
C2078 C2077 1.366 . S
C2078 C2082 1.385 . S
C2079 H2054 0.951 . S
C2079 C2077 1.388 . S
C2079 C2080 1.366 . S
C2080 C2079 1.366 . S
C2080 C2081 1.414 . S
C2080 C2083 1.542 . S
C2081 H2055 0.950 . S
C2081 C2080 1.414 . S
C2081 C2082 1.374 . S
C2082 H2056 0.950 . S
C2082 C2078 1.385 . S
C2082 C2081 1.374 . S
C2083 C2080 1.542 . S
C2083 C2084 1.342 1_455 S
C2083 C2085 1.378 1_455 S
C2084 H2057 0.950 . S
C2084 C2070 1.377 . S
C2084 C2083 1.342 1_655 S
C2085 C2069 1.377 . S
C2085 C2083 1.378 1_655 S
C2085 C2086 1.524 . S
C2086 C2085 1.524 . S
C2086 C2087 1.397 1_655 S
C2086 C2091 1.363 . S
C2087 H2058 0.950 . S
C2087 C2086 1.397 1_455 S
C2087 C2088 1.334 . S
C2088 H2059 0.950 . S
C2088 C2087 1.334 . S
C2088 C2089 1.287 . S
C2089 C2088 1.287 . S
C2089 C2090 1.524 1_455 S
C2089 H2092 0.999 . S
C2090 H2060 0.950 . S
C2090 C2089 1.524 1_655 S
C2090 C2091 1.415 . S
C2091 H2061 0.950 . S
C2091 C2086 1.363 . S
C2091 C2090 1.415 . S
H2092 C2089 0.999 . S
H2093 C2074 0.913 . S
H2094 C2112 0.951 . S
H2095 C2114 0.951 . S
H2096 C2116 0.950 . S
H2097 C2117 0.950 . S
H2098 C2119 0.950 . S
H2099 C2122 0.950 . S
H2100 C2123 0.950 . S
H2101 C2125 0.950 1_655 S
H2102 C2126 0.950 . S
H2103 C2127 0.951 . S
H2104 C2129 0.951 . S
H2105 C2131 0.950 . S
H2106 C2132 0.950 . S
H2107 C2134 0.950 . S
H2108 C2137 0.950 . S
H2109 C2138 0.950 . S
H2110 C2140 0.950 . S
H2111 C2141 0.950 . S
C2112 H2094 0.951 . S
C2112 C2113 1.366 . S
C2112 C2114 1.388 . S
C2113 C2112 1.366 . S
C2113 C2117 1.385 . S
C2114 H2095 0.951 . S
C2114 C2112 1.388 . S
C2114 C2115 1.366 . S
C2115 C2114 1.366 . S
C2115 C2116 1.414 . S
C2115 C2118 1.499 . S
C2116 H2096 0.950 . S
C2116 C2115 1.414 . S
C2116 C2117 1.374 . S
C2117 H2097 0.950 . S
C2117 C2113 1.385 . S
C2117 C2116 1.374 . S
C2118 C2115 1.499 . S
C2118 C2119 1.373 . S
C2118 C2120 1.389 . S
C2119 H2098 0.950 . S
C2119 C2118 1.373 . S
C2119 C2135 1.377 . S
C2120 C2118 1.389 . S
C2120 C2121 1.524 . S
C2120 C2134 1.377 . S
C2121 C2120 1.524 . S
C2121 C2122 1.397 . S
C2121 C2126 1.363 . S
C2122 H2099 0.950 . S
C2122 C2121 1.397 . S
C2122 C2123 1.334 . S
C2123 H2100 0.950 . S
C2123 C2122 1.334 . S
C2123 C2124 1.290 . S
C2124 C2123 1.290 . S
C2124 C2125 1.534 . S
C2124 H2143 0.897 1_455 S
C2125 H2101 0.950 1_455 S
C2125 C2124 1.534 . S
C2125 C2126 1.415 . S
C2126 H2102 0.950 . S
C2126 C2121 1.363 . S
C2126 C2125 1.415 . S
C2127 H2103 0.951 . S
C2127 C2128 1.366 . S
C2127 C2129 1.388 . S
C2128 C2127 1.366 . S
C2128 C2132 1.385 . S
C2129 H2104 0.951 . S
C2129 C2127 1.388 . S
C2129 C2130 1.366 . S
C2130 C2129 1.366 . S
C2130 C2131 1.414 . S
C2130 C2133 1.499 . S
C2131 H2105 0.950 . S
C2131 C2130 1.414 . S
C2131 C2132 1.374 . S
C2132 H2106 0.950 . S
C2132 C2128 1.385 . S
C2132 C2131 1.374 . S
C2133 C2130 1.499 . S
C2133 C2134 1.373 . S
C2133 C2135 1.389 . S
C2134 H2107 0.950 . S
C2134 C2120 1.377 . S
C2134 C2133 1.373 . S
C2135 C2119 1.377 . S
C2135 C2133 1.389 . S
C2135 C2136 1.524 . S
C2136 C2135 1.524 . S
C2136 C2137 1.397 . S
C2136 C2141 1.363 . S
C2137 H2108 0.950 . S
C2137 C2136 1.397 . S
C2137 C2138 1.334 . S
C2138 H2109 0.950 . S
C2138 C2137 1.334 . S
C2138 C2139 1.287 . S
C2139 C2138 1.287 . S
C2139 C2140 1.524 . S
C2139 H2142 0.999 . S
C2140 H2110 0.950 . S
C2140 C2139 1.524 . S
C2140 C2141 1.415 . S
C2141 H2111 0.950 . S
C2141 C2136 1.363 . S
C2141 C2140 1.415 . S
H2142 C2139 0.999 . S
H2143 C2124 0.897 1_655 S
H2144 C2162 0.951 . S
H2145 C2164 0.951 . S
H2146 C2166 0.950 . S
H2147 C2167 0.950 . S
H2148 C2169 0.950 . S
H2149 C2172 0.950 . S
H2150 C2173 0.950 . S
H2151 C2175 0.950 . S
H2152 C2176 0.950 1_565 S
H2153 C2177 0.951 . S
H2154 C2179 0.951 . S
H2155 C2181 0.950 . S
H2156 C2182 0.950 . S
H2157 C2184 0.950 . S
H2158 C2187 0.950 . S
H2159 C2188 0.950 . S
H2160 C2190 0.950 . S
H2161 C2191 0.950 . S
C2162 H2144 0.951 . S
C2162 C2163 1.366 . S
C2162 C2164 1.388 . S
C2163 C2162 1.366 . S
C2163 C2167 1.385 . S
C2164 H2145 0.951 . S
C2164 C2162 1.388 . S
C2164 C2165 1.366 . S
C2165 C2164 1.366 . S
C2165 C2166 1.414 . S
C2165 C2168 1.536 . S
C2166 H2146 0.950 . S
C2166 C2165 1.414 . S
C2166 C2167 1.374 . S
C2167 H2147 0.950 . S
C2167 C2163 1.385 . S
C2167 C2166 1.374 . S
C2168 C2165 1.536 . S
C2168 C2169 1.368 1_545 S
C2168 C2170 1.357 1_545 S
C2169 H2148 0.950 . S
C2169 C2168 1.368 1_565 S
C2169 C2185 1.377 . S
C2170 C2168 1.357 1_565 S
C2170 C2171 1.524 1_565 S
C2170 C2184 1.377 . S
C2171 C2170 1.524 1_545 S
C2171 C2172 1.397 . S
C2171 C2176 1.363 . S
C2172 H2149 0.950 . S
C2172 C2171 1.397 . S
C2172 C2173 1.334 . S
C2173 H2150 0.950 . S
C2173 C2172 1.334 . S
C2173 C2174 1.287 . S
C2174 C2173 1.287 . S
C2174 C2175 1.524 . S
C2174 H2193 0.913 . S
C2175 H2151 0.950 . S
C2175 C2174 1.524 . S
C2175 C2176 1.415 . S
C2176 H2152 0.950 1_545 S
C2176 C2171 1.363 . S
C2176 C2175 1.415 . S
C2177 H2153 0.951 . S
C2177 C2178 1.366 . S
C2177 C2179 1.388 . S
C2178 C2177 1.366 . S
C2178 C2182 1.385 . S
C2179 H2154 0.951 . S
C2179 C2177 1.388 . S
C2179 C2180 1.366 . S
C2180 C2179 1.366 . S
C2180 C2181 1.414 . S
C2180 C2183 1.499 . S
C2181 H2155 0.950 . S
C2181 C2180 1.414 . S
C2181 C2182 1.374 . S
C2182 H2156 0.950 . S
C2182 C2178 1.385 . S
C2182 C2181 1.374 . S
C2183 C2180 1.499 . S
C2183 C2184 1.373 . S
C2183 C2185 1.389 . S
C2184 H2157 0.950 . S
C2184 C2170 1.377 . S
C2184 C2183 1.373 . S
C2185 C2169 1.377 . S
C2185 C2183 1.389 . S
C2185 C2186 1.524 . S
C2186 C2185 1.524 . S
C2186 C2187 1.397 . S
C2186 C2191 1.363 . S
C2187 H2158 0.950 . S
C2187 C2186 1.397 . S
C2187 C2188 1.334 . S
C2188 H2159 0.950 . S
C2188 C2187 1.334 . S
C2188 C2189 1.287 . S
C2189 C2188 1.287 . S
C2189 C2190 1.524 . S
C2189 H2192 0.999 . S
C2190 H2160 0.950 . S
C2190 C2189 1.524 . S
C2190 C2191 1.415 . S
C2191 H2161 0.950 . S
C2191 C2186 1.363 . S
C2191 C2190 1.415 . S
H2192 C2189 0.999 . S
H2193 C2174 0.913 . S
H2194 C2212 0.951 . S
H2195 C2214 0.951 . S
H2196 C2216 0.950 . S
H2197 C2217 0.950 1_545 S
H2198 C2219 0.950 . S
H2199 C2222 0.950 . S
H2200 C2223 0.950 . S
H2201 C2225 0.950 . S
H2202 C2226 0.950 . S
H2203 C2227 0.951 . S
H2204 C2229 0.951 . S
H2205 C2231 0.950 . S
H2206 C2232 0.950 . S
H2207 C2234 0.950 . S
H2208 C2237 0.950 . S
H2209 C2238 0.950 . S
H2210 C2240 0.929 . S
H2211 C2241 0.950 . S
C2212 H2194 0.951 . S
C2212 C2213 1.366 . S
C2212 C2214 1.388 . S
C2213 C2212 1.366 . S
C2213 C2217 1.385 . S
C2214 H2195 0.951 . S
C2214 C2212 1.388 . S
C2214 C2215 1.366 . S
C2215 C2214 1.366 . S
C2215 C2216 1.414 . S
C2215 C2218 1.499 . S
C2216 H2196 0.950 . S
C2216 C2215 1.414 . S
C2216 C2217 1.374 . S
C2217 H2197 0.950 1_565 S
C2217 C2213 1.385 . S
C2217 C2216 1.374 . S
C2218 C2215 1.499 . S
C2218 C2219 1.373 . S
C2218 C2220 1.389 . S
C2219 H2198 0.950 . S
C2219 C2218 1.373 . S
C2219 C2235 1.377 . S
C2220 C2218 1.389 . S
C2220 C2221 1.524 . S
C2220 C2234 1.377 . S
C2221 C2220 1.524 . S
C2221 C2222 1.397 . S
C2221 C2226 1.363 . S
C2222 H2199 0.950 . S
C2222 C2221 1.397 . S
C2222 C2223 1.334 . S
C2223 H2200 0.950 . S
C2223 C2222 1.334 . S
C2223 C2224 1.287 . S
C2224 C2223 1.287 . S
C2224 C2225 1.524 . S
C2224 H2243 0.913 . S
C2225 H2201 0.950 . S
C2225 C2224 1.524 . S
C2225 C2226 1.415 . S
C2226 H2202 0.950 . S
C2226 C2221 1.363 . S
C2226 C2225 1.415 . S
C2227 H2203 0.951 . S
C2227 C2228 1.366 . S
C2227 C2229 1.388 . S
C2228 C2227 1.366 . S
C2228 C2232 1.385 . S
C2229 H2204 0.951 . S
C2229 C2227 1.388 . S
C2229 C2230 1.366 . S
C2230 C2229 1.366 . S
C2230 C2231 1.414 . S
C2230 C2233 1.473 1_655 S
C2231 H2205 0.950 . S
C2231 C2230 1.414 . S
C2231 C2232 1.374 . S
C2232 H2206 0.950 . S
C2232 C2228 1.385 . S
C2232 C2231 1.374 . S
C2233 C2230 1.473 1_455 S
C2233 C2234 1.391 . S
C2233 C2235 1.398 . S
C2234 H2207 0.950 . S
C2234 C2220 1.377 . S
C2234 C2233 1.391 . S
C2235 C2219 1.377 . S
C2235 C2233 1.398 . S
C2235 C2236 1.524 . S
C2236 C2235 1.524 . S
C2236 C2237 1.397 1_455 S
C2236 C2241 1.363 . S
C2237 H2208 0.950 . S
C2237 C2236 1.397 1_655 S
C2237 C2238 1.334 . S
C2238 H2209 0.950 . S
C2238 C2237 1.334 . S
C2238 C2239 1.287 . S
C2239 C2238 1.287 . S
C2239 C2240 1.524 . S
C2239 H2242 0.999 . S
C2240 H2210 0.929 . S
C2240 C2239 1.524 . S
C2240 C2241 1.415 1_655 S
C2241 H2211 0.950 . S
C2241 C2236 1.363 . S
C2241 C2240 1.415 1_455 S
H2242 C2239 0.999 . S
H2243 C2224 0.913 . S
H2244 C2262 0.951 . S
H2245 C2264 0.951 . S
H2246 C2266 0.950 . S
H2247 C2267 0.950 . S
H2248 C2269 0.950 . S
H2249 C2272 0.950 . S
H2250 C2273 0.950 . S
H2251 C2275 0.950 . S
H2252 C2276 0.950 . S
H2253 C2277 0.951 . S
H2254 C2279 0.951 . S
H2255 C2281 0.950 . S
H2256 C2282 0.950 . S
H2257 C2284 0.950 . S
H2258 C2287 0.950 . S
H2259 C2288 0.950 . S
H2260 C2290 0.950 . S
H2261 C2291 0.950 . S
C2262 H2244 0.951 . S
C2262 C2263 1.366 . S
C2262 C2264 1.388 . S
C2263 C2262 1.366 . S
C2263 C2267 1.385 . S
C2264 H2245 0.951 . S
C2264 C2262 1.388 . S
C2264 C2265 1.366 . S
C2265 C2264 1.366 . S
C2265 C2266 1.414 . S
C2265 C2268 1.499 . S
C2266 H2246 0.950 . S
C2266 C2265 1.414 . S
C2266 C2267 1.374 . S
C2267 H2247 0.950 . S
C2267 C2263 1.385 . S
C2267 C2266 1.374 . S
C2268 C2265 1.499 . S
C2268 C2269 1.373 . S
C2268 C2270 1.389 . S
C2269 H2248 0.950 . S
C2269 C2268 1.373 . S
C2269 C2285 1.377 . S
C2270 C2268 1.389 . S
C2270 C2271 1.524 . S
C2270 C2284 1.377 . S
C2271 C2270 1.524 . S
C2271 C2272 1.397 . S
C2271 C2276 1.363 . S
C2272 H2249 0.950 . S
C2272 C2271 1.397 . S
C2272 C2273 1.334 . S
C2273 H2250 0.950 . S
C2273 C2272 1.334 . S
C2273 C2274 1.287 . S
C2274 C2273 1.287 . S
C2274 C2275 1.524 . S
C2274 H2293 0.913 . S
C2275 H2251 0.950 . S
C2275 C2274 1.524 . S
C2275 C2276 1.415 . S
C2276 H2252 0.950 . S
C2276 C2271 1.363 . S
C2276 C2275 1.415 . S
C2277 H2253 0.951 . S
C2277 C2278 1.366 . S
C2277 C2279 1.388 . S
C2278 C2277 1.366 . S
C2278 C2282 1.385 . S
C2279 H2254 0.951 . S
C2279 C2277 1.388 . S
C2279 C2280 1.366 . S
C2280 C2279 1.366 . S
C2280 C2281 1.414 . S
C2280 C2283 1.499 . S
C2281 H2255 0.950 . S
C2281 C2280 1.414 . S
C2281 C2282 1.374 . S
C2282 H2256 0.950 . S
C2282 C2278 1.385 . S
C2282 C2281 1.374 . S
C2283 C2280 1.499 . S
C2283 C2284 1.373 . S
C2283 C2285 1.389 . S
C2284 H2257 0.950 . S
C2284 C2270 1.377 . S
C2284 C2283 1.373 . S
C2285 C2269 1.377 . S
C2285 C2283 1.389 . S
C2285 C2286 1.524 . S
C2286 C2285 1.524 . S
C2286 C2287 1.397 . S
C2286 C2291 1.363 . S
C2287 H2258 0.950 . S
C2287 C2286 1.397 . S
C2287 C2288 1.334 . S
C2288 H2259 0.950 . S
C2288 C2287 1.334 . S
C2288 C2289 1.287 . S
C2289 C2288 1.287 . S
C2289 C2290 1.524 . S
C2289 H2292 0.999 . S
C2290 H2260 0.950 . S
C2290 C2289 1.524 . S
C2290 C2291 1.415 . S
C2291 H2261 0.950 . S
C2291 C2286 1.363 . S
C2291 C2290 1.415 . S
H2292 C2289 0.999 . S
H2293 C2274 0.913 . S
H2294 C2312 0.951 . S
H2295 C2314 0.951 . S
H2296 C2316 0.950 . S
H2297 C2317 0.950 . S
H2298 C2319 0.950 . S
H2299 C2322 0.950 . S
H2300 C2323 0.950 . S
H2301 C2325 0.950 . S
H2302 C2326 0.950 . S
H2303 C2327 0.951 . S
H2304 C2329 0.951 . S
H2305 C2331 0.950 . S
H2306 C2332 0.950 . S
H2307 C2334 0.950 . S
H2308 C2337 0.950 . S
H2309 C2338 0.950 . S
H2310 C2340 0.950 . S
H2311 C2341 0.950 . S
C2312 H2294 0.951 . S
C2312 C2313 1.366 . S
C2312 C2314 1.388 . S
C2313 C2312 1.366 . S
C2313 C2317 1.385 . S
C2314 H2295 0.951 . S
C2314 C2312 1.388 . S
C2314 C2315 1.366 . S
C2315 C2314 1.366 . S
C2315 C2316 1.414 . S
C2315 C2318 1.499 . S
C2316 H2296 0.950 . S
C2316 C2315 1.414 . S
C2316 C2317 1.374 . S
C2317 H2297 0.950 . S
C2317 C2313 1.385 . S
C2317 C2316 1.374 . S
C2318 C2315 1.499 . S
C2318 C2319 1.373 . S
C2318 C2320 1.389 . S
C2319 H2298 0.950 . S
C2319 C2318 1.373 . S
C2319 C2335 1.377 . S
C2320 C2318 1.389 . S
C2320 C2321 1.524 . S
C2320 C2334 1.377 . S
C2321 C2320 1.524 . S
C2321 C2322 1.397 . S
C2321 C2326 1.363 . S
C2322 H2299 0.950 . S
C2322 C2321 1.397 . S
C2322 C2323 1.334 . S
C2323 H2300 0.950 . S
C2323 C2322 1.334 . S
C2323 C2324 1.287 . S
C2324 C2323 1.287 . S
C2324 C2325 1.524 . S
C2324 H2343 0.913 . S
C2325 H2301 0.950 . S
C2325 C2324 1.524 . S
C2325 C2326 1.415 . S
C2326 H2302 0.950 . S
C2326 C2321 1.363 . S
C2326 C2325 1.415 . S
C2327 H2303 0.951 . S
C2327 C2328 1.366 . S
C2327 C2329 1.388 . S
C2328 C2327 1.366 . S
C2328 C2332 1.385 . S
C2329 H2304 0.951 . S
C2329 C2327 1.388 . S
C2329 C2330 1.366 . S
C2330 C2329 1.366 . S
C2330 C2331 1.414 . S
C2330 C2333 1.499 . S
C2331 H2305 0.950 . S
C2331 C2330 1.414 . S
C2331 C2332 1.374 . S
C2332 H2306 0.950 . S
C2332 C2328 1.385 . S
C2332 C2331 1.374 . S
C2333 C2330 1.499 . S
C2333 C2334 1.373 . S
C2333 C2335 1.389 . S
C2334 H2307 0.950 . S
C2334 C2320 1.377 . S
C2334 C2333 1.373 . S
C2335 C2319 1.377 . S
C2335 C2333 1.389 . S
C2335 C2336 1.524 . S
C2336 C2335 1.524 . S
C2336 C2337 1.397 . S
C2336 C2341 1.363 . S
C2337 H2308 0.950 . S
C2337 C2336 1.397 . S
C2337 C2338 1.334 . S
C2338 H2309 0.950 . S
C2338 C2337 1.334 . S
C2338 C2339 1.287 . S
C2339 C2338 1.287 . S
C2339 C2340 1.524 . S
C2339 H2342 0.999 . S
C2340 H2310 0.950 . S
C2340 C2339 1.524 . S
C2340 C2341 1.415 . S
C2341 H2311 0.950 . S
C2341 C2336 1.363 . S
C2341 C2340 1.415 . S
H2342 C2339 0.999 . S
H2343 C2324 0.913 . S
H2344 C2362 0.951 . S
H2345 C2364 0.951 . S
H2346 C2366 0.950 . S
H2347 C2367 0.950 . S
H2348 C2369 0.950 . S
H2349 C2372 0.950 . S
H2350 C2373 0.950 . S
H2351 C2375 0.950 . S
H2352 C2376 0.950 . S
H2353 C2377 0.951 . S
H2354 C2379 0.951 . S
H2355 C2381 0.950 . S
H2356 C2382 0.950 . S
H2357 C2384 0.950 . S
H2358 C2387 0.950 . S
H2359 C2388 0.950 . S
H2360 C2390 0.950 . S
H2361 C2391 0.950 . S
C2362 H2344 0.951 . S
C2362 C2363 1.366 . S
C2362 C2364 1.388 . S
C2363 C2362 1.366 . S
C2363 C2367 1.385 . S
C2364 H2345 0.951 . S
C2364 C2362 1.388 . S
C2364 C2365 1.366 . S
C2365 C2364 1.366 . S
C2365 C2366 1.414 . S
C2365 C2368 1.499 . S
C2366 H2346 0.950 . S
C2366 C2365 1.414 . S
C2366 C2367 1.374 . S
C2367 H2347 0.950 . S
C2367 C2363 1.385 . S
C2367 C2366 1.374 . S
C2368 C2365 1.499 . S
C2368 C2369 1.373 . S
C2368 C2370 1.389 . S
C2369 H2348 0.950 . S
C2369 C2368 1.373 . S
C2369 C2385 1.377 . S
C2370 C2368 1.389 . S
C2370 C2371 1.524 . S
C2370 C2384 1.377 . S
C2371 C2370 1.524 . S
C2371 C2372 1.397 . S
C2371 C2376 1.363 . S
C2372 H2349 0.950 . S
C2372 C2371 1.397 . S
C2372 C2373 1.334 . S
C2373 H2350 0.950 . S
C2373 C2372 1.334 . S
C2373 C2374 1.287 . S
C2374 C2373 1.287 . S
C2374 C2375 1.524 . S
C2374 H2393 0.913 . S
C2375 H2351 0.950 . S
C2375 C2374 1.524 . S
C2375 C2376 1.415 . S
C2376 H2352 0.950 . S
C2376 C2371 1.363 . S
C2376 C2375 1.415 . S
C2377 H2353 0.951 . S
C2377 C2378 1.366 . S
C2377 C2379 1.388 . S
C2378 C2377 1.366 . S
C2378 C2382 1.385 . S
C2379 H2354 0.951 . S
C2379 C2377 1.388 . S
C2379 C2380 1.366 . S
C2380 C2379 1.366 . S
C2380 C2381 1.414 . S
C2380 C2383 1.499 . S
C2381 H2355 0.950 . S
C2381 C2380 1.414 . S
C2381 C2382 1.374 . S
C2382 H2356 0.950 . S
C2382 C2378 1.385 . S
C2382 C2381 1.374 . S
C2383 C2380 1.499 . S
C2383 C2384 1.373 . S
C2383 C2385 1.389 . S
C2384 H2357 0.950 . S
C2384 C2370 1.377 . S
C2384 C2383 1.373 . S
C2385 C2369 1.377 . S
C2385 C2383 1.389 . S
C2385 C2386 1.524 . S
C2386 C2385 1.524 . S
C2386 C2387 1.397 . S
C2386 C2391 1.363 . S
C2387 H2358 0.950 . S
C2387 C2386 1.397 . S
C2387 C2388 1.334 . S
C2388 H2359 0.950 . S
C2388 C2387 1.334 . S
C2388 C2389 1.287 . S
C2389 C2388 1.287 . S
C2389 C2390 1.524 . S
C2389 H2392 0.999 . S
C2390 H2360 0.950 . S
C2390 C2389 1.524 . S
C2390 C2391 1.415 . S
C2391 H2361 0.950 . S
C2391 C2386 1.363 . S
C2391 C2390 1.415 . S
H2392 C2389 0.999 . S
H2393 C2374 0.913 . S
H2394 C2412 0.951 . S
H2395 C2414 0.951 . S
H2396 C2416 0.950 . S
H2397 C2417 0.950 . S
H2398 C2419 0.950 . S
H2399 C2422 0.950 . S
H2400 C2423 0.950 . S
H2401 C2425 0.950 . S
H2402 C2426 0.950 . S
H2403 C2427 0.951 . S
H2404 C2429 0.951 . S
H2405 C2431 0.950 . S
H2406 C2432 0.950 . S
H2407 C2434 0.950 . S
H2408 C2437 0.950 . S
H2409 C2438 0.950 . S
H2410 C2440 0.950 . S
H2411 C2441 0.950 . S
C2412 H2394 0.951 . S
C2412 C2413 1.366 . S
C2412 C2414 1.388 . S
C2413 C2412 1.366 . S
C2413 C2417 1.385 . S
C2414 H2395 0.951 . S
C2414 C2412 1.388 . S
C2414 C2415 1.366 . S
C2415 C2414 1.366 . S
C2415 C2416 1.414 . S
C2415 C2418 1.499 . S
C2416 H2396 0.950 . S
C2416 C2415 1.414 . S
C2416 C2417 1.374 . S
C2417 H2397 0.950 . S
C2417 C2413 1.385 . S
C2417 C2416 1.374 . S
C2418 C2415 1.499 . S
C2418 C2419 1.373 . S
C2418 C2420 1.389 . S
C2419 H2398 0.950 . S
C2419 C2418 1.373 . S
C2419 C2435 1.377 . S
C2420 C2418 1.389 . S
C2420 C2421 1.524 . S
C2420 C2434 1.377 . S
C2421 C2420 1.524 . S
C2421 C2422 1.397 . S
C2421 C2426 1.363 . S
C2422 H2399 0.950 . S
C2422 C2421 1.397 . S
C2422 C2423 1.334 . S
C2423 H2400 0.950 . S
C2423 C2422 1.334 . S
C2423 C2424 1.287 . S
C2424 C2423 1.287 . S
C2424 C2425 1.524 . S
C2424 H2443 0.913 . S
C2425 H2401 0.950 . S
C2425 C2424 1.524 . S
C2425 C2426 1.415 . S
C2426 H2402 0.950 . S
C2426 C2421 1.363 . S
C2426 C2425 1.415 . S
C2427 H2403 0.951 . S
C2427 C2428 1.366 . S
C2427 C2429 1.388 . S
C2428 C2427 1.366 . S
C2428 C2432 1.385 . S
C2429 H2404 0.951 . S
C2429 C2427 1.388 . S
C2429 C2430 1.366 . S
C2430 C2429 1.366 . S
C2430 C2431 1.414 . S
C2430 C2433 1.499 . S
C2431 H2405 0.950 . S
C2431 C2430 1.414 . S
C2431 C2432 1.374 . S
C2432 H2406 0.950 . S
C2432 C2428 1.385 . S
C2432 C2431 1.374 . S
C2433 C2430 1.499 . S
C2433 C2434 1.373 . S
C2433 C2435 1.389 . S
C2434 H2407 0.950 . S
C2434 C2420 1.377 . S
C2434 C2433 1.373 . S
C2435 C2419 1.377 . S
C2435 C2433 1.389 . S
C2435 C2436 1.524 . S
C2436 C2435 1.524 . S
C2436 C2437 1.397 . S
C2436 C2441 1.363 . S
C2437 H2408 0.950 . S
C2437 C2436 1.397 . S
C2437 C2438 1.334 . S
C2438 H2409 0.950 . S
C2438 C2437 1.334 . S
C2438 C2439 1.287 . S
C2439 C2438 1.287 . S
C2439 C2440 1.524 . S
C2439 H2442 0.999 . S
C2440 H2410 0.950 . S
C2440 C2439 1.524 . S
C2440 C2441 1.415 . S
C2441 H2411 0.950 . S
C2441 C2436 1.363 . S
C2441 C2440 1.415 . S
H2442 C2439 0.999 . S
H2443 C2424 0.913 . S
H2444 C2462 0.951 . S
H2445 C2464 0.951 . S
H2446 C2466 0.950 . S
H2447 C2467 0.950 . S
H2448 C2469 0.950 . S
H2449 C2472 0.950 . S
H2450 C2473 0.950 . S
H2451 C2475 0.950 . S
H2452 C2476 0.950 . S
H2453 C2477 0.951 . S
H2454 C2479 0.951 . S
H2455 C2481 0.950 . S
H2456 C2482 0.950 . S
H2457 C2484 0.950 . S
H2458 C2487 0.950 . S
H2459 C2488 0.950 . S
H2460 C2490 0.950 1_556 S
H2461 C2491 0.950 . S
C2462 H2444 0.951 . S
C2462 C2463 1.366 . S
C2462 C2464 1.388 . S
C2463 C2462 1.366 . S
C2463 C2467 1.385 . S
C2464 H2445 0.951 . S
C2464 C2462 1.388 . S
C2464 C2465 1.366 . S
C2465 C2464 1.366 . S
C2465 C2466 1.414 . S
C2465 C2468 1.499 . S
C2466 H2446 0.950 . S
C2466 C2465 1.414 . S
C2466 C2467 1.374 . S
C2467 H2447 0.950 . S
C2467 C2463 1.385 . S
C2467 C2466 1.374 . S
C2468 C2465 1.499 . S
C2468 C2469 1.373 . S
C2468 C2470 1.389 . S
C2469 H2448 0.950 . S
C2469 C2468 1.373 . S
C2469 C2485 1.377 . S
C2470 C2468 1.389 . S
C2470 C2471 1.524 . S
C2470 C2484 1.377 . S
C2471 C2470 1.524 . S
C2471 C2472 1.397 . S
C2471 C2476 1.363 . S
C2472 H2449 0.950 . S
C2472 C2471 1.397 . S
C2472 C2473 1.334 . S
C2473 H2450 0.950 . S
C2473 C2472 1.334 . S
C2473 C2474 1.287 . S
C2474 C2473 1.287 . S
C2474 C2475 1.524 . S
C2474 H2493 0.913 . S
C2475 H2451 0.950 . S
C2475 C2474 1.524 . S
C2475 C2476 1.415 . S
C2476 H2452 0.950 . S
C2476 C2471 1.363 . S
C2476 C2475 1.415 . S
C2477 H2453 0.951 . S
C2477 C2478 1.366 . S
C2477 C2479 1.388 . S
C2478 C2477 1.366 . S
C2478 C2482 1.385 . S
C2479 H2454 0.951 . S
C2479 C2477 1.388 . S
C2479 C2480 1.366 . S
C2480 C2479 1.366 . S
C2480 C2481 1.414 . S
C2480 C2483 1.499 . S
C2481 H2455 0.950 . S
C2481 C2480 1.414 . S
C2481 C2482 1.374 . S
C2482 H2456 0.950 . S
C2482 C2478 1.385 . S
C2482 C2481 1.374 . S
C2483 C2480 1.499 . S
C2483 C2484 1.373 . S
C2483 C2485 1.389 . S
C2484 H2457 0.950 . S
C2484 C2470 1.377 . S
C2484 C2483 1.373 . S
C2485 C2469 1.377 . S
C2485 C2483 1.389 . S
C2485 C2486 1.524 . S
C2486 C2485 1.524 . S
C2486 C2487 1.397 . S
C2486 C2491 1.363 . S
C2487 H2458 0.950 . S
C2487 C2486 1.397 . S
C2487 C2488 1.334 . S
C2488 H2459 0.950 . S
C2488 C2487 1.334 . S
C2488 C2489 1.287 . S
C2489 C2488 1.287 . S
C2489 C2490 1.524 . S
C2489 H2492 0.999 . S
C2490 H2460 0.950 1_554 S
C2490 C2489 1.524 . S
C2490 C2491 1.415 . S
C2491 H2461 0.950 . S
C2491 C2486 1.363 . S
C2491 C2490 1.415 . S
H2492 C2489 0.999 . S
H2493 C2474 0.913 . S
H2494 C2512 0.951 . S
H2495 C2514 0.951 . S
H2496 C2516 0.950 . S
H2497 C2517 0.950 . S
H2498 C2519 0.950 . S
H2499 C2522 0.950 . S
H2500 C2523 0.950 . S
H2501 C2525 0.950 . S
H2502 C2526 0.950 . S
H2503 C2527 0.951 . S
H2504 C2529 0.951 . S
H2505 C2531 0.950 . S
H2506 C2532 0.950 . S
H2507 C2534 0.950 . S
H2508 C2537 0.950 . S
H2509 C2538 0.950 . S
H2510 C2540 0.973 . S
H2511 C2541 0.950 . S
C2512 H2494 0.951 . S
C2512 C2513 1.366 . S
C2512 C2514 1.388 . S
C2513 C2512 1.366 . S
C2513 C2517 1.385 . S
C2514 H2495 0.951 . S
C2514 C2512 1.388 . S
C2514 C2515 1.366 . S
C2515 C2514 1.366 . S
C2515 C2516 1.414 . S
C2515 C2518 1.499 . S
C2516 H2496 0.950 . S
C2516 C2515 1.414 . S
C2516 C2517 1.374 . S
C2517 H2497 0.950 . S
C2517 C2513 1.385 . S
C2517 C2516 1.374 . S
C2518 C2515 1.499 . S
C2518 C2519 1.373 . S
C2518 C2520 1.389 . S
C2519 H2498 0.950 . S
C2519 C2518 1.373 . S
C2519 C2535 1.377 . S
C2520 C2518 1.389 . S
C2520 C2521 1.524 . S
C2520 C2534 1.377 . S
C2521 C2520 1.524 . S
C2521 C2522 1.397 . S
C2521 C2526 1.363 . S
C2522 H2499 0.950 . S
C2522 C2521 1.397 . S
C2522 C2523 1.334 . S
C2523 H2500 0.950 . S
C2523 C2522 1.334 . S
C2523 C2524 1.287 . S
C2524 C2523 1.287 . S
C2524 C2525 1.524 . S
C2524 H2543 0.913 . S
C2525 H2501 0.950 . S
C2525 C2524 1.524 . S
C2525 C2526 1.415 . S
C2526 H2502 0.950 . S
C2526 C2521 1.363 . S
C2526 C2525 1.415 . S
C2527 H2503 0.951 . S
C2527 C2528 1.366 . S
C2527 C2529 1.388 . S
C2528 C2527 1.366 . S
C2528 C2532 1.385 . S
C2529 H2504 0.951 . S
C2529 C2527 1.388 . S
C2529 C2530 1.366 . S
C2530 C2529 1.366 . S
C2530 C2531 1.414 . S
C2530 C2533 1.499 . S
C2531 H2505 0.950 . S
C2531 C2530 1.414 . S
C2531 C2532 1.374 . S
C2532 H2506 0.950 . S
C2532 C2528 1.385 . S
C2532 C2531 1.374 . S
C2533 C2530 1.499 . S
C2533 C2534 1.373 . S
C2533 C2535 1.389 . S
C2534 H2507 0.950 . S
C2534 C2520 1.377 . S
C2534 C2533 1.373 . S
C2535 C2519 1.377 . S
C2535 C2533 1.389 . S
C2535 C2536 1.524 . S
C2536 C2535 1.524 . S
C2536 C2537 1.397 . S
C2536 C2541 1.363 . S
C2537 H2508 0.950 . S
C2537 C2536 1.397 . S
C2537 C2538 1.334 . S
C2538 H2509 0.950 . S
C2538 C2537 1.334 . S
C2538 C2539 1.287 . S
C2539 C2538 1.287 . S
C2539 C2540 1.524 . S
C2539 H2542 0.999 . S
C2540 H2510 0.973 . S
C2540 C2539 1.524 . S
C2540 C2541 1.415 . S
C2541 H2511 0.950 . S
C2541 C2536 1.363 . S
C2541 C2540 1.415 . S
H2542 C2539 0.999 . S
H2543 C2524 0.913 . S
H2544 C2562 0.951 . S
H2545 C2564 0.951 . S
H2546 C2566 0.950 . S
H2547 C2567 0.950 . S
H2548 C2569 0.950 . S
H2549 C2572 0.950 . S
H2550 C2573 0.950 . S
H2551 C2575 0.950 . S
H2552 C2576 0.950 . S
H2553 C2577 0.951 . S
H2554 C2579 0.951 . S
H2555 C2581 0.950 . S
H2556 C2582 0.950 . S
H2557 C2584 0.950 . S
H2558 C2587 0.950 . S
H2559 C2588 0.950 . S
H2560 C2590 0.950 . S
H2561 C2591 0.950 . S
C2562 H2544 0.951 . S
C2562 C2563 1.366 . S
C2562 C2564 1.388 . S
C2563 C2562 1.366 . S
C2563 C2567 1.385 . S
C2564 H2545 0.951 . S
C2564 C2562 1.388 . S
C2564 C2565 1.366 . S
C2565 C2564 1.366 . S
C2565 C2566 1.414 . S
C2565 C2568 1.499 . S
C2566 H2546 0.950 . S
C2566 C2565 1.414 . S
C2566 C2567 1.374 . S
C2567 H2547 0.950 . S
C2567 C2563 1.385 . S
C2567 C2566 1.374 . S
C2568 C2565 1.499 . S
C2568 C2569 1.373 . S
C2568 C2570 1.389 . S
C2569 H2548 0.950 . S
C2569 C2568 1.373 . S
C2569 C2585 1.377 . S
C2570 C2568 1.389 . S
C2570 C2571 1.524 . S
C2570 C2584 1.377 . S
C2571 C2570 1.524 . S
C2571 C2572 1.397 . S
C2571 C2576 1.363 . S
C2572 H2549 0.950 . S
C2572 C2571 1.397 . S
C2572 C2573 1.334 . S
C2573 H2550 0.950 . S
C2573 C2572 1.334 . S
C2573 C2574 1.287 . S
C2574 C2573 1.287 . S
C2574 C2575 1.524 . S
C2574 H2593 0.913 . S
C2575 H2551 0.950 . S
C2575 C2574 1.524 . S
C2575 C2576 1.415 . S
C2576 H2552 0.950 . S
C2576 C2571 1.363 . S
C2576 C2575 1.415 . S
C2577 H2553 0.951 . S
C2577 C2578 1.366 . S
C2577 C2579 1.388 . S
C2578 C2577 1.366 . S
C2578 C2582 1.385 . S
C2579 H2554 0.951 . S
C2579 C2577 1.388 . S
C2579 C2580 1.366 . S
C2580 C2579 1.366 . S
C2580 C2581 1.414 . S
C2580 C2583 1.499 . S
C2581 H2555 0.950 . S
C2581 C2580 1.414 . S
C2581 C2582 1.374 . S
C2582 H2556 0.950 . S
C2582 C2578 1.385 . S
C2582 C2581 1.374 . S
C2583 C2580 1.499 . S
C2583 C2584 1.373 . S
C2583 C2585 1.389 . S
C2584 H2557 0.950 . S
C2584 C2570 1.377 . S
C2584 C2583 1.373 . S
C2585 C2569 1.377 . S
C2585 C2583 1.389 . S
C2585 C2586 1.524 . S
C2586 C2585 1.524 . S
C2586 C2587 1.397 . S
C2586 C2591 1.363 . S
C2587 H2558 0.950 . S
C2587 C2586 1.397 . S
C2587 C2588 1.334 . S
C2588 H2559 0.950 . S
C2588 C2587 1.334 . S
C2588 C2589 1.287 . S
C2589 C2588 1.287 . S
C2589 C2590 1.524 . S
C2589 H2592 0.999 . S
C2590 H2560 0.950 . S
C2590 C2589 1.524 . S
C2590 C2591 1.415 . S
C2591 H2561 0.950 . S
C2591 C2586 1.363 . S
C2591 C2590 1.415 . S
H2592 C2589 0.999 . S
H2593 C2574 0.913 . S
H2594 C2612 0.951 . S
H2595 C2614 0.951 . S
H2596 C2616 0.950 . S
H2597 C2617 0.950 . S
H2598 C2619 0.950 . S
H2599 C2622 0.950 . S
H2600 C2623 0.950 . S
H2601 C2625 0.950 . S
H2602 C2626 0.950 . S
H2603 C2627 0.951 . S
H2604 C2629 0.951 . S
H2605 C2631 0.950 . S
H2606 C2632 0.950 . S
H2607 C2634 0.950 . S
H2608 C2637 0.950 . S
H2609 C2638 0.950 . S
H2610 C2640 0.950 . S
H2611 C2641 0.950 . S
C2612 H2594 0.951 . S
C2612 C2613 1.366 . S
C2612 C2614 1.388 . S
C2613 C2612 1.366 . S
C2613 C2617 1.385 . S
C2614 H2595 0.951 . S
C2614 C2612 1.388 . S
C2614 C2615 1.366 . S
C2615 C2614 1.366 . S
C2615 C2616 1.414 . S
C2615 C2618 1.499 . S
C2616 H2596 0.950 . S
C2616 C2615 1.414 . S
C2616 C2617 1.374 . S
C2617 H2597 0.950 . S
C2617 C2613 1.385 . S
C2617 C2616 1.374 . S
C2618 C2615 1.499 . S
C2618 C2619 1.373 . S
C2618 C2620 1.389 . S
C2619 H2598 0.950 . S
C2619 C2618 1.373 . S
C2619 C2635 1.377 . S
C2620 C2618 1.389 . S
C2620 C2621 1.524 . S
C2620 C2634 1.377 . S
C2621 C2620 1.524 . S
C2621 C2622 1.397 . S
C2621 C2626 1.363 . S
C2622 H2599 0.950 . S
C2622 C2621 1.397 . S
C2622 C2623 1.334 . S
C2623 H2600 0.950 . S
C2623 C2622 1.334 . S
C2623 C2624 1.287 . S
C2624 C2623 1.287 . S
C2624 C2625 1.524 . S
C2624 H2643 0.913 . S
C2625 H2601 0.950 . S
C2625 C2624 1.524 . S
C2625 C2626 1.415 . S
C2626 H2602 0.950 . S
C2626 C2621 1.363 . S
C2626 C2625 1.415 . S
C2627 H2603 0.951 . S
C2627 C2628 1.366 . S
C2627 C2629 1.388 . S
C2628 C2627 1.366 . S
C2628 C2632 1.385 . S
C2629 H2604 0.951 . S
C2629 C2627 1.388 . S
C2629 C2630 1.366 . S
C2630 C2629 1.366 . S
C2630 C2631 1.414 . S
C2630 C2633 1.499 . S
C2631 H2605 0.950 . S
C2631 C2630 1.414 . S
C2631 C2632 1.374 . S
C2632 H2606 0.950 . S
C2632 C2628 1.385 . S
C2632 C2631 1.374 . S
C2633 C2630 1.499 . S
C2633 C2634 1.373 . S
C2633 C2635 1.389 . S
C2634 H2607 0.950 . S
C2634 C2620 1.377 . S
C2634 C2633 1.373 . S
C2635 C2619 1.377 . S
C2635 C2633 1.389 . S
C2635 C2636 1.524 . S
C2636 C2635 1.524 . S
C2636 C2637 1.397 . S
C2636 C2641 1.363 . S
C2637 H2608 0.950 . S
C2637 C2636 1.397 . S
C2637 C2638 1.334 . S
C2638 H2609 0.950 . S
C2638 C2637 1.334 . S
C2638 C2639 1.287 . S
C2639 C2638 1.287 . S
C2639 C2640 1.524 . S
C2639 H2642 0.999 . S
C2640 H2610 0.950 . S
C2640 C2639 1.524 . S
C2640 C2641 1.415 . S
C2641 H2611 0.950 . S
C2641 C2636 1.363 . S
C2641 C2640 1.415 . S
H2642 C2639 0.999 . S
H2643 C2624 0.913 . S
H2644 C2662 0.951 . S
H2645 C2664 0.951 . S
H2646 C2666 0.950 . S
H2647 C2667 0.950 . S
H2648 C2669 0.950 . S
H2649 C2672 0.950 . S
H2650 C2673 0.950 . S
H2651 C2675 0.950 . S
H2652 C2676 0.950 . S
H2653 C2677 0.951 . S
H2654 C2679 0.951 . S
H2655 C2681 0.950 . S
H2656 C2682 0.950 . S
H2657 C2684 0.950 . S
H2658 C2687 0.950 . S
H2659 C2688 0.950 . S
H2660 C2690 0.950 . S
H2661 C2691 0.950 . S
C2662 H2644 0.951 . S
C2662 C2663 1.366 . S
C2662 C2664 1.388 . S
C2663 C2662 1.366 . S
C2663 C2667 1.385 . S
C2664 H2645 0.951 . S
C2664 C2662 1.388 . S
C2664 C2665 1.366 . S
C2665 C2664 1.366 . S
C2665 C2666 1.414 . S
C2665 C2668 1.499 . S
C2666 H2646 0.950 . S
C2666 C2665 1.414 . S
C2666 C2667 1.374 . S
C2667 H2647 0.950 . S
C2667 C2663 1.385 . S
C2667 C2666 1.374 . S
C2668 C2665 1.499 . S
C2668 C2669 1.373 . S
C2668 C2670 1.389 . S
C2669 H2648 0.950 . S
C2669 C2668 1.373 . S
C2669 C2685 1.377 . S
C2670 C2668 1.389 . S
C2670 C2671 1.524 . S
C2670 C2684 1.377 . S
C2671 C2670 1.524 . S
C2671 C2672 1.397 . S
C2671 C2676 1.363 . S
C2672 H2649 0.950 . S
C2672 C2671 1.397 . S
C2672 C2673 1.334 . S
C2673 H2650 0.950 . S
C2673 C2672 1.334 . S
C2673 C2674 1.287 . S
C2674 C2673 1.287 . S
C2674 C2675 1.524 . S
C2674 H2693 0.913 . S
C2675 H2651 0.950 . S
C2675 C2674 1.524 . S
C2675 C2676 1.415 . S
C2676 H2652 0.950 . S
C2676 C2671 1.363 . S
C2676 C2675 1.415 . S
C2677 H2653 0.951 . S
C2677 C2678 1.366 . S
C2677 C2679 1.388 . S
C2678 C2677 1.366 . S
C2678 C2682 1.385 . S
C2679 H2654 0.951 . S
C2679 C2677 1.388 . S
C2679 C2680 1.366 . S
C2680 C2679 1.366 . S
C2680 C2681 1.414 . S
C2680 C2683 1.499 . S
C2681 H2655 0.950 . S
C2681 C2680 1.414 . S
C2681 C2682 1.374 . S
C2682 H2656 0.950 . S
C2682 C2678 1.385 . S
C2682 C2681 1.374 . S
C2683 C2680 1.499 . S
C2683 C2684 1.373 . S
C2683 C2685 1.389 . S
C2684 H2657 0.950 . S
C2684 C2670 1.377 . S
C2684 C2683 1.373 . S
C2685 C2669 1.377 . S
C2685 C2683 1.389 . S
C2685 C2686 1.524 . S
C2686 C2685 1.524 . S
C2686 C2687 1.397 . S
C2686 C2691 1.363 . S
C2687 H2658 0.950 . S
C2687 C2686 1.397 . S
C2687 C2688 1.334 . S
C2688 H2659 0.950 . S
C2688 C2687 1.334 . S
C2688 C2689 1.287 . S
C2689 C2688 1.287 . S
C2689 C2690 1.524 . S
C2689 H2692 0.999 . S
C2690 H2660 0.950 . S
C2690 C2689 1.524 . S
C2690 C2691 1.415 . S
C2691 H2661 0.950 . S
C2691 C2686 1.363 . S
C2691 C2690 1.415 . S
H2692 C2689 0.999 . S
H2693 C2674 0.913 . S
H2694 C2712 0.951 . S
H2695 C2714 0.951 . S
H2696 C2716 0.950 . S
H2697 C2717 0.950 . S
H2698 C2719 0.950 . S
H2699 C2722 0.950 . S
H2700 C2723 0.950 . S
H2701 C2725 0.950 . S
H2702 C2726 0.950 . S
H2703 C2727 0.951 . S
H2704 C2729 0.951 . S
H2705 C2731 0.950 . S
H2706 C2732 0.950 . S
H2707 C2734 0.950 . S
H2708 C2737 0.950 . S
H2709 C2738 0.950 . S
H2710 C2740 0.950 . S
H2711 C2741 0.950 . S
C2712 H2694 0.951 . S
C2712 C2713 1.366 . S
C2712 C2714 1.388 . S
C2713 C2712 1.366 . S
C2713 C2717 1.385 . S
C2714 H2695 0.951 . S
C2714 C2712 1.388 . S
C2714 C2715 1.366 . S
C2715 C2714 1.366 . S
C2715 C2716 1.414 . S
C2715 C2718 1.499 . S
C2716 H2696 0.950 . S
C2716 C2715 1.414 . S
C2716 C2717 1.374 . S
C2717 H2697 0.950 . S
C2717 C2713 1.385 . S
C2717 C2716 1.374 . S
C2718 C2715 1.499 . S
C2718 C2719 1.373 . S
C2718 C2720 1.389 . S
C2719 H2698 0.950 . S
C2719 C2718 1.373 . S
C2719 C2735 1.377 . S
C2720 C2718 1.389 . S
C2720 C2721 1.524 . S
C2720 C2734 1.377 . S
C2721 C2720 1.524 . S
C2721 C2722 1.397 . S
C2721 C2726 1.363 . S
C2722 H2699 0.950 . S
C2722 C2721 1.397 . S
C2722 C2723 1.334 . S
C2723 H2700 0.950 . S
C2723 C2722 1.334 . S
C2723 C2724 1.287 . S
C2724 C2723 1.287 . S
C2724 C2725 1.524 . S
C2724 H2743 0.913 . S
C2725 H2701 0.950 . S
C2725 C2724 1.524 . S
C2725 C2726 1.415 . S
C2726 H2702 0.950 . S
C2726 C2721 1.363 . S
C2726 C2725 1.415 . S
C2727 H2703 0.951 . S
C2727 C2728 1.366 . S
C2727 C2729 1.388 . S
C2728 C2727 1.366 . S
C2728 C2732 1.385 . S
C2729 H2704 0.951 . S
C2729 C2727 1.388 . S
C2729 C2730 1.366 . S
C2730 C2729 1.366 . S
C2730 C2731 1.414 . S
C2730 C2733 1.499 . S
C2731 H2705 0.950 . S
C2731 C2730 1.414 . S
C2731 C2732 1.374 . S
C2732 H2706 0.950 . S
C2732 C2728 1.385 . S
C2732 C2731 1.374 . S
C2733 C2730 1.499 . S
C2733 C2734 1.373 . S
C2733 C2735 1.389 . S
C2734 H2707 0.950 . S
C2734 C2720 1.377 . S
C2734 C2733 1.373 . S
C2735 C2719 1.377 . S
C2735 C2733 1.389 . S
C2735 C2736 1.524 . S
C2736 C2735 1.524 . S
C2736 C2737 1.397 . S
C2736 C2741 1.363 . S
C2737 H2708 0.950 . S
C2737 C2736 1.397 . S
C2737 C2738 1.334 . S
C2738 H2709 0.950 . S
C2738 C2737 1.334 . S
C2738 C2739 1.287 . S
C2739 C2738 1.287 . S
C2739 C2740 1.524 . S
C2739 H2742 0.999 . S
C2740 H2710 0.950 . S
C2740 C2739 1.524 . S
C2740 C2741 1.415 . S
C2741 H2711 0.950 . S
C2741 C2736 1.363 . S
C2741 C2740 1.415 . S
H2742 C2739 0.999 . S
H2743 C2724 0.913 . S
H2744 C2762 0.951 . S
H2745 C2764 0.951 . S
H2746 C2766 0.950 . S
H2747 C2767 0.950 . S
H2748 C2769 0.950 . S
H2749 C2772 0.950 . S
H2750 C2773 0.950 . S
H2751 C2775 0.950 . S
H2752 C2776 0.950 . S
H2753 C2777 0.951 . S
H2754 C2779 0.951 . S
H2755 C2781 0.950 . S
H2756 C2782 0.950 . S
H2757 C2784 0.950 . S
H2758 C2787 0.950 . S
H2759 C2788 0.950 . S
H2760 C2790 0.950 . S
H2761 C2791 0.950 . S
C2762 H2744 0.951 . S
C2762 C2763 1.366 . S
C2762 C2764 1.388 . S
C2763 C2762 1.366 . S
C2763 C2767 1.385 . S
C2764 H2745 0.951 . S
C2764 C2762 1.388 . S
C2764 C2765 1.366 . S
C2765 C2764 1.366 . S
C2765 C2766 1.414 . S
C2765 C2768 1.499 . S
C2766 H2746 0.950 . S
C2766 C2765 1.414 . S
C2766 C2767 1.374 . S
C2767 H2747 0.950 . S
C2767 C2763 1.385 . S
C2767 C2766 1.374 . S
C2768 C2765 1.499 . S
C2768 C2769 1.373 . S
C2768 C2770 1.389 . S
C2769 H2748 0.950 . S
C2769 C2768 1.373 . S
C2769 C2785 1.377 . S
C2770 C2768 1.389 . S
C2770 C2771 1.524 . S
C2770 C2784 1.377 . S
C2771 C2770 1.524 . S
C2771 C2772 1.397 . S
C2771 C2776 1.363 . S
C2772 H2749 0.950 . S
C2772 C2771 1.397 . S
C2772 C2773 1.334 . S
C2773 H2750 0.950 . S
C2773 C2772 1.334 . S
C2773 C2774 1.287 . S
C2774 C2773 1.287 . S
C2774 C2775 1.524 . S
C2774 H2793 0.913 . S
C2775 H2751 0.950 . S
C2775 C2774 1.524 . S
C2775 C2776 1.415 . S
C2776 H2752 0.950 . S
C2776 C2771 1.363 . S
C2776 C2775 1.415 . S
C2777 H2753 0.951 . S
C2777 C2778 1.366 . S
C2777 C2779 1.388 . S
C2778 C2777 1.366 . S
C2778 C2782 1.385 . S
C2779 H2754 0.951 . S
C2779 C2777 1.388 . S
C2779 C2780 1.366 . S
C2780 C2779 1.366 . S
C2780 C2781 1.414 . S
C2780 C2783 1.499 . S
C2781 H2755 0.950 . S
C2781 C2780 1.414 . S
C2781 C2782 1.374 . S
C2782 H2756 0.950 . S
C2782 C2778 1.385 . S
C2782 C2781 1.374 . S
C2783 C2780 1.499 . S
C2783 C2784 1.373 . S
C2783 C2785 1.389 . S
C2784 H2757 0.950 . S
C2784 C2770 1.377 . S
C2784 C2783 1.373 . S
C2785 C2769 1.377 . S
C2785 C2783 1.389 . S
C2785 C2786 1.524 . S
C2786 C2785 1.524 . S
C2786 C2787 1.397 . S
C2786 C2791 1.363 . S
C2787 H2758 0.950 . S
C2787 C2786 1.397 . S
C2787 C2788 1.334 . S
C2788 H2759 0.950 . S
C2788 C2787 1.334 . S
C2788 C2789 1.287 . S
C2789 C2788 1.287 . S
C2789 C2790 1.524 . S
C2789 H2792 0.999 . S
C2790 H2760 0.950 . S
C2790 C2789 1.524 . S
C2790 C2791 1.415 . S
C2791 H2761 0.950 . S
C2791 C2786 1.363 . S
C2791 C2790 1.415 . S
H2792 C2789 0.999 . S
H2793 C2774 0.913 . S
H2794 C2812 0.951 . S
H2795 C2814 0.951 . S
H2796 C2816 0.950 . S
H2797 C2817 0.950 . S
H2798 C2819 0.950 . S
H2799 C2822 0.950 . S
H2800 C2823 0.950 . S
H2801 C2825 0.950 . S
H2802 C2826 0.950 . S
H2803 C2827 0.951 . S
H2804 C2829 0.951 . S
H2805 C2831 0.950 . S
H2806 C2832 0.950 . S
H2807 C2834 0.950 . S
H2808 C2837 0.950 . S
H2809 C2838 0.950 . S
H2810 C2840 0.950 . S
H2811 C2841 0.950 . S
C2812 H2794 0.951 . S
C2812 C2813 1.366 . S
C2812 C2814 1.388 . S
C2813 C2812 1.366 . S
C2813 C2817 1.385 . S
C2814 H2795 0.951 . S
C2814 C2812 1.388 . S
C2814 C2815 1.366 . S
C2815 C2814 1.366 . S
C2815 C2816 1.414 . S
C2815 C2818 1.499 . S
C2816 H2796 0.950 . S
C2816 C2815 1.414 . S
C2816 C2817 1.374 . S
C2817 H2797 0.950 . S
C2817 C2813 1.385 . S
C2817 C2816 1.374 . S
C2818 C2815 1.499 . S
C2818 C2819 1.373 . S
C2818 C2820 1.389 . S
C2819 H2798 0.950 . S
C2819 C2818 1.373 . S
C2819 C2835 1.377 . S
C2820 C2818 1.389 . S
C2820 C2821 1.524 . S
C2820 C2834 1.377 . S
C2821 C2820 1.524 . S
C2821 C2822 1.397 . S
C2821 C2826 1.363 . S
C2822 H2799 0.950 . S
C2822 C2821 1.397 . S
C2822 C2823 1.334 . S
C2823 H2800 0.950 . S
C2823 C2822 1.334 . S
C2823 C2824 1.287 . S
C2824 C2823 1.287 . S
C2824 C2825 1.524 . S
C2824 H2843 0.913 . S
C2825 H2801 0.950 . S
C2825 C2824 1.524 . S
C2825 C2826 1.415 . S
C2826 H2802 0.950 . S
C2826 C2821 1.363 . S
C2826 C2825 1.415 . S
C2827 H2803 0.951 . S
C2827 C2828 1.366 . S
C2827 C2829 1.388 . S
C2828 C2827 1.366 . S
C2828 C2832 1.385 . S
C2829 H2804 0.951 . S
C2829 C2827 1.388 . S
C2829 C2830 1.366 . S
C2830 C2829 1.366 . S
C2830 C2831 1.414 . S
C2830 C2833 1.499 . S
C2831 H2805 0.950 . S
C2831 C2830 1.414 . S
C2831 C2832 1.374 . S
C2832 H2806 0.950 . S
C2832 C2828 1.385 . S
C2832 C2831 1.374 . S
C2833 C2830 1.499 . S
C2833 C2834 1.373 . S
C2833 C2835 1.389 . S
C2834 H2807 0.950 . S
C2834 C2820 1.377 . S
C2834 C2833 1.373 . S
C2835 C2819 1.377 . S
C2835 C2833 1.389 . S
C2835 C2836 1.524 . S
C2836 C2835 1.524 . S
C2836 C2837 1.397 . S
C2836 C2841 1.363 . S
C2837 H2808 0.950 . S
C2837 C2836 1.397 . S
C2837 C2838 1.334 . S
C2838 H2809 0.950 . S
C2838 C2837 1.334 . S
C2838 C2839 1.287 . S
C2839 C2838 1.287 . S
C2839 C2840 1.524 . S
C2839 H2842 0.999 . S
C2840 H2810 0.950 . S
C2840 C2839 1.524 . S
C2840 C2841 1.415 . S
C2841 H2811 0.950 . S
C2841 C2836 1.363 . S
C2841 C2840 1.415 . S
H2842 C2839 0.999 . S
H2843 C2824 0.913 . S
C613 N302 0.532 . S
C628 N5 0.533 . S
C663 N335 0.534 . S
C678 N38 0.535 . S
C713 N368 0.534 . S
C728 N71 0.532 . S
C763 N104 0.534 . S
C778 N401 0.534 . S
C813 N434 0.534 . S
C828 N137 0.535 . S
C863 N467 0.534 . S
C878 N170 0.532 . S
C913 N203 0.532 . S
C928 N500 0.533 . S
C963 N533 0.533 . S
C978 N236 0.535 . S
C1013 N566 0.535 . S
C1028 N269 0.534 . S
C1063 C589 1.859 . S
C1078 C28 1.859 . S
C1113 C523 1.859 . S
C1128 C61 1.859 . S
C1163 C94 1.859 . S
C1178 C556 1.859 . S
C1213 C259 1.859 . S
C1228 C127 1.859 . S
C1263 C292 1.859 . S
C1278 C160 1.859 . S
C1313 C193 1.859 . S
C1328 C226 1.859 . S
C1363 C325 1.859 . S
C1378 C457 1.859 . S
C1413 C490 1.858 . S
C1428 C358 1.858 . S
C1463 C391 1.859 . S
C1478 C424 1.859 . S
C1513 C17 1.174 . S
C1528 C149 1.174 . S
C1563 C182 1.174 . S
C1578 C50 1.174 . S
C1613 C116 1.174 . S
C1628 C83 1.174 . S
C1663 C347 1.175 . S
C1678 C215 1.175 . S
C1713 C248 1.174 . S
C1728 C380 1.174 . S
C1763 C314 1.175 . S
C1778 C281 1.175 . S
C1813 C413 1.174 . S
C1828 C545 1.174 . S
C1863 C578 1.174 . S
C1878 C446 1.174 . S
C1913 C479 1.174 . S
C1928 C512 1.174 . S
C1963 C74 1.000 . S
C1978 N14 1.016 . S
C2013 C8 1.001 . S
C2028 N47 1.015 . S
C2063 C41 1.001 . S
C2078 N80 1.015 . S
C2113 C140 1.001 . S
C2128 N113 1.015 . S
C2163 N146 1.015 . S
C2178 C173 1.001 . S
C2213 C107 1.000 . S
C2228 N179 1.016 . S
C2263 C272 1.001 . S
C2278 N212 1.015 . S
C2313 C206 1.000 . S
C2328 N245 1.016 . S
C2363 N278 1.015 . S
C2378 C239 1.001 . S
C2413 N311 1.016 . S
C2428 C338 1.000 . S
C2463 C371 1.001 . S
C2478 N344 1.015 . S
C2513 C305 1.001 . S
C2528 N377 1.015 . S
C2563 N410 1.015 . S
C2578 C470 1.001 . S
C2613 C404 1.001 . S
C2628 N443 1.015 . S
C2663 C437 1.001 . S
C2678 N476 1.015 . S
C2713 C536 1.000 . S
C2728 N509 1.015 . S
C2763 C569 1.001 . S
C2778 N542 1.015 . S
C2813 C503 1.000 . S
C2828 N575 1.016 . S
