# Generated by pormake.
# Topology ecv, (8)-cn, num edge types: 1
# Building blocks:
#     Node 0, Type 0, BuildingBlock: TAGTUT_clean_sbu_1, # of connection points: 8
#     Node 1, Type 0, BuildingBlock: TAGTUT_clean_sbu_1, # of connection points: 8
#     Node 2, Type 0, BuildingBlock: TAGTUT_clean_sbu_1, # of connection points: 8
#     Node 3, Type 0, BuildingBlock: TAGTUT_clean_sbu_1, # of connection points: 8
#     Node 4, Type 0, BuildingBlock: TAGTUT_clean_sbu_1, # of connection points: 8
#     Node 5, Type 0, BuildingBlock: TAGTUT_clean_sbu_1, # of connection points: 8
#     Node 6, Type 0, BuildingBlock: TAGTUT_clean_sbu_1, # of connection points: 8
#     Node 7, Type 0, BuildingBlock: TAGTUT_clean_sbu_1, # of connection points: 8
#     Node 8, Type 0, BuildingBlock: TAGTUT_clean_sbu_1, # of connection points: 8
#     Node 9, Type 0, BuildingBlock: TAGTUT_clean_sbu_1, # of connection points: 8
#     Node 10, Type 0, BuildingBlock: TAGTUT_clean_sbu_1, # of connection points: 8
#     Node 11, Type 0, BuildingBlock: TAGTUT_clean_sbu_1, # of connection points: 8
#     Node 12, Type 0, BuildingBlock: TAGTUT_clean_sbu_1, # of connection points: 8
#     Node 13, Type 0, BuildingBlock: TAGTUT_clean_sbu_1, # of connection points: 8
#     Node 14, Type 0, BuildingBlock: TAGTUT_clean_sbu_1, # of connection points: 8
#     Node 15, Type 0, BuildingBlock: TAGTUT_clean_sbu_1, # of connection points: 8
#     Edge 16, Type (0, 0), BuildingBlock: KIFKEQ_clean_linker_1, # of connection points: 2
#     Edge 17, Type (0, 0), BuildingBlock: KIFKEQ_clean_linker_1, # of connection points: 2
#     Edge 18, Type (0, 0), BuildingBlock: KIFKEQ_clean_linker_1, # of connection points: 2
#     Edge 19, Type (0, 0), BuildingBlock: KIFKEQ_clean_linker_1, # of connection points: 2
#     Edge 20, Type (0, 0), BuildingBlock: KIFKEQ_clean_linker_1, # of connection points: 2
#     Edge 21, Type (0, 0), BuildingBlock: KIFKEQ_clean_linker_1, # of connection points: 2
#     Edge 22, Type (0, 0), BuildingBlock: KIFKEQ_clean_linker_1, # of connection points: 2
#     Edge 23, Type (0, 0), BuildingBlock: KIFKEQ_clean_linker_1, # of connection points: 2
#     Edge 24, Type (0, 0), BuildingBlock: KIFKEQ_clean_linker_1, # of connection points: 2
#     Edge 25, Type (0, 0), BuildingBlock: KIFKEQ_clean_linker_1, # of connection points: 2
#     Edge 26, Type (0, 0), BuildingBlock: KIFKEQ_clean_linker_1, # of connection points: 2
#     Edge 27, Type (0, 0), BuildingBlock: KIFKEQ_clean_linker_1, # of connection points: 2
#     Edge 28, Type (0, 0), BuildingBlock: KIFKEQ_clean_linker_1, # of connection points: 2
#     Edge 29, Type (0, 0), BuildingBlock: KIFKEQ_clean_linker_1, # of connection points: 2
#     Edge 30, Type (0, 0), BuildingBlock: KIFKEQ_clean_linker_1, # of connection points: 2
#     Edge 31, Type (0, 0), BuildingBlock: KIFKEQ_clean_linker_1, # of connection points: 2
#     Edge 32, Type (0, 0), BuildingBlock: KIFKEQ_clean_linker_1, # of connection points: 2
#     Edge 33, Type (0, 0), BuildingBlock: KIFKEQ_clean_linker_1, # of connection points: 2
#     Edge 34, Type (0, 0), BuildingBlock: KIFKEQ_clean_linker_1, # of connection points: 2
#     Edge 35, Type (0, 0), BuildingBlock: KIFKEQ_clean_linker_1, # of connection points: 2
#     Edge 36, Type (0, 0), BuildingBlock: KIFKEQ_clean_linker_1, # of connection points: 2
#     Edge 37, Type (0, 0), BuildingBlock: KIFKEQ_clean_linker_1, # of connection points: 2
#     Edge 38, Type (0, 0), BuildingBlock: KIFKEQ_clean_linker_1, # of connection points: 2
#     Edge 39, Type (0, 0), BuildingBlock: KIFKEQ_clean_linker_1, # of connection points: 2
#     Edge 40, Type (0, 0), BuildingBlock: KIFKEQ_clean_linker_1, # of connection points: 2
#     Edge 41, Type (0, 0), BuildingBlock: KIFKEQ_clean_linker_1, # of connection points: 2
#     Edge 42, Type (0, 0), BuildingBlock: KIFKEQ_clean_linker_1, # of connection points: 2
#     Edge 43, Type (0, 0), BuildingBlock: KIFKEQ_clean_linker_1, # of connection points: 2
#     Edge 44, Type (0, 0), BuildingBlock: KIFKEQ_clean_linker_1, # of connection points: 2
#     Edge 45, Type (0, 0), BuildingBlock: KIFKEQ_clean_linker_1, # of connection points: 2
#     Edge 46, Type (0, 0), BuildingBlock: KIFKEQ_clean_linker_1, # of connection points: 2
#     Edge 47, Type (0, 0), BuildingBlock: KIFKEQ_clean_linker_1, # of connection points: 2
#     Edge 48, Type (0, 0), BuildingBlock: KIFKEQ_clean_linker_1, # of connection points: 2
#     Edge 49, Type (0, 0), BuildingBlock: KIFKEQ_clean_linker_1, # of connection points: 2
#     Edge 50, Type (0, 0), BuildingBlock: KIFKEQ_clean_linker_1, # of connection points: 2
#     Edge 51, Type (0, 0), BuildingBlock: KIFKEQ_clean_linker_1, # of connection points: 2
#     Edge 52, Type (0, 0), BuildingBlock: KIFKEQ_clean_linker_1, # of connection points: 2
#     Edge 53, Type (0, 0), BuildingBlock: KIFKEQ_clean_linker_1, # of connection points: 2
#     Edge 54, Type (0, 0), BuildingBlock: KIFKEQ_clean_linker_1, # of connection points: 2
#     Edge 55, Type (0, 0), BuildingBlock: KIFKEQ_clean_linker_1, # of connection points: 2
#     Edge 56, Type (0, 0), BuildingBlock: KIFKEQ_clean_linker_1, # of connection points: 2
#     Edge 57, Type (0, 0), BuildingBlock: KIFKEQ_clean_linker_1, # of connection points: 2
#     Edge 58, Type (0, 0), BuildingBlock: KIFKEQ_clean_linker_1, # of connection points: 2
#     Edge 59, Type (0, 0), BuildingBlock: KIFKEQ_clean_linker_1, # of connection points: 2
#     Edge 60, Type (0, 0), BuildingBlock: KIFKEQ_clean_linker_1, # of connection points: 2
#     Edge 61, Type (0, 0), BuildingBlock: KIFKEQ_clean_linker_1, # of connection points: 2
#     Edge 62, Type (0, 0), BuildingBlock: KIFKEQ_clean_linker_1, # of connection points: 2
#     Edge 63, Type (0, 0), BuildingBlock: KIFKEQ_clean_linker_1, # of connection points: 2
#     Edge 64, Type (0, 0), BuildingBlock: KIFKEQ_clean_linker_1, # of connection points: 2
#     Edge 65, Type (0, 0), BuildingBlock: KIFKEQ_clean_linker_1, # of connection points: 2
#     Edge 66, Type (0, 0), BuildingBlock: KIFKEQ_clean_linker_1, # of connection points: 2
#     Edge 67, Type (0, 0), BuildingBlock: KIFKEQ_clean_linker_1, # of connection points: 2
#     Edge 68, Type (0, 0), BuildingBlock: KIFKEQ_clean_linker_1, # of connection points: 2
#     Edge 69, Type (0, 0), BuildingBlock: KIFKEQ_clean_linker_1, # of connection points: 2
#     Edge 70, Type (0, 0), BuildingBlock: KIFKEQ_clean_linker_1, # of connection points: 2
#     Edge 71, Type (0, 0), BuildingBlock: KIFKEQ_clean_linker_1, # of connection points: 2
#     Edge 72, Type (0, 0), BuildingBlock: KIFKEQ_clean_linker_1, # of connection points: 2
#     Edge 73, Type (0, 0), BuildingBlock: KIFKEQ_clean_linker_1, # of connection points: 2
#     Edge 74, Type (0, 0), BuildingBlock: KIFKEQ_clean_linker_1, # of connection points: 2
#     Edge 75, Type (0, 0), BuildingBlock: KIFKEQ_clean_linker_1, # of connection points: 2
#     Edge 76, Type (0, 0), BuildingBlock: KIFKEQ_clean_linker_1, # of connection points: 2
#     Edge 77, Type (0, 0), BuildingBlock: KIFKEQ_clean_linker_1, # of connection points: 2
#     Edge 78, Type (0, 0), BuildingBlock: KIFKEQ_clean_linker_1, # of connection points: 2
#     Edge 79, Type (0, 0), BuildingBlock: KIFKEQ_clean_linker_1, # of connection points: 2
# Relax obj value: 0.108
# Max RMSD: 0.179
# Mean RMSD: 0.179
data_MOF--net-ecv--node1-TAGTUT_clean_sbu_1--edge1-KIFKEQ_clean_linker_1
_symmetry_space_group_name_H-M    P1
_symmetry_Int_Tables_number       1
_symmetry_cell_setting            triclinic
loop_
_symmetry_equiv_pos_as_xyz
'x, y, z'
_cell_length_a     20.067809
_cell_length_b     26.769535
_cell_length_c     118.87389
_cell_angle_alpha  93.451366
_cell_angle_beta   89.93983
_cell_angle_gamma 90.223484
loop_
_atom_site_label
_atom_site_type_symbol
_atom_site_fract_x
_atom_site_fract_y
_atom_site_fract_z
_atom_type_partial_charge
C0 C 0.08794 0.05574 0.47551 0.0
C1 C 0.13914 0.01805 0.44088 0.0
C2 C 0.37418 0.08952 0.44913 0.0
Mg3 Mg 0.08175 0.11306 0.45366 0.0
O4 O 0.16986 0.12688 0.45815 0.0
Mg5 Mg 0.23206 0.0703 0.46169 0.0
Mg6 Mg 0.22925 0.15637 0.44721 0.0
O7 O 0.28981 0.18375 0.43615 0.0
Mg8 Mg 0.3765 0.19966 0.44126 0.0
Mg9 Mg 0.23174 0.23745 0.43041 0.0
C10 C 0.08879 0.22687 0.44602 0.0
C11 C 0.16681 0.13232 0.42148 0.0
O12 O 0.15012 0.04905 0.4736 0.0
O13 O 0.0506 0.08082 0.46916 0.0
O14 O 0.18754 0.01975 0.44786 0.0
O15 O 0.09382 0.05166 0.44122 0.0
O16 O 0.05335 0.19015 0.44932 0.0
O17 O 0.15254 0.22131 0.44458 0.0
C18 C 0.27912 0.17621 0.47372 0.0
O19 O 0.27068 0.19634 0.46419 0.0
O20 O 0.27198 0.12896 0.47458 0.0
O21 O 0.31889 0.24446 0.41697 0.0
O22 O 0.41357 0.22145 0.42542 0.0
O23 O 0.27996 0.29406 0.44251 0.0
C24 C 0.38232 0.23622 0.41685 0.0
O25 O 0.3623 0.26383 0.45263 0.0
O26 O 0.41044 0.12689 0.44665 0.0
C27 C 0.32244 0.29911 0.45047 0.0
O28 O 0.30993 0.09392 0.44931 0.0
O29 O 0.17927 0.11573 0.43119 0.0
O30 O 0.18275 0.17675 0.41916 0.0
C31 C 0.07683 0.20814 0.80286 0.0
C32 C 0.1051 0.2283 0.83946 0.0
C33 C 0.36131 0.19533 0.83207 0.0
Mg34 Mg 0.07892 0.13795 0.82252 0.0
O35 O 0.1699 0.14048 0.81952 0.0
Mg36 Mg 0.21628 0.20741 0.81861 0.0
Mg37 Mg 0.23139 0.11237 0.83023 0.0
O38 O 0.29187 0.08578 0.84154 0.0
Mg39 Mg 0.38119 0.08196 0.83727 0.0
Mg40 Mg 0.24254 0.02186 0.8448 0.0
C41 C 0.10546 0.02526 0.8285 0.0
C42 C 0.15623 0.11649 0.85498 0.0
O43 O 0.13346 0.22548 0.80624 0.0
O44 O 0.04682 0.17245 0.80755 0.0
O45 O 0.1552 0.24178 0.83362 0.0
O46 O 0.07141 0.18881 0.83677 0.0
O47 O 0.06441 0.05841 0.82536 0.0
O48 O 0.16777 0.03667 0.83019 0.0
C49 C 0.28547 0.11458 0.80408 0.0
O50 O 0.28194 0.08814 0.81284 0.0
O51 O 0.26986 0.16124 0.80463 0.0
O52 O 0.32313 0.01706 0.85926 0.0
O53 O 0.41664 0.05121 0.8524 0.0
O54 O 0.31365 0.97526 0.83321 0.0
C55 C 0.38531 0.02936 0.86012 0.0
O56 O 0.37103 0.02867 0.82354 0.0
O57 O 0.40123 0.16029 0.83451 0.0
C58 C 0.36165 0.98452 0.82654 0.0
O59 O 0.29847 0.18529 0.83059 0.0
O60 O 0.17379 0.1396 0.84631 0.0
O61 O 0.1739 0.07125 0.85622 0.0
C62 C 0.64471 0.78509 0.61425 0.0
C63 C 0.65848 0.71635 0.58356 0.0
C64 C 0.91586 0.77054 0.57999 0.0
Mg65 Mg 0.63744 0.82153 0.58978 0.0
O66 O 0.72872 0.82962 0.59265 0.0
Mg67 Mg 0.78344 0.77138 0.5976 0.0
Mg68 Mg 0.78541 0.85232 0.58036 0.0
O69 O 0.84298 0.87644 0.56841 0.0
Mg70 Mg 0.93574 0.8799 0.57084 0.0
Mg71 Mg 0.78871 0.93899 0.56563 0.0
C72 C 0.65024 0.9298 0.58051 0.0
C73 C 0.7238 0.83536 0.55479 0.0
O74 O 0.70648 0.77233 0.61298 0.0
O75 O 0.6102 0.80298 0.60639 0.0
O76 O 0.71622 0.71421 0.58801 0.0
O77 O 0.63971 0.75574 0.57899 0.0
O78 O 0.61197 0.8955 0.58404 0.0
O79 O 0.71369 0.92179 0.57936 0.0
C80 C 0.86703 0.87287 0.60413 0.0
O81 O 0.84631 0.89073 0.59502 0.0
O82 O 0.85041 0.82901 0.60682 0.0
O83 O 0.86539 0.95065 0.5519 0.0
O84 O 0.9572 0.90397 0.55412 0.0
O85 O 0.85155 0.98794 0.57844 0.0
C86 C 0.92223 0.934 0.54853 0.0
O87 O 0.93417 0.9409 0.58333 0.0
O88 O 0.95448 0.80323 0.57585 0.0
C89 C 0.91425 0.98173 0.57958 0.0
O90 O 0.8535 0.7806 0.5819 0.0
O91 O 0.73229 0.81529 0.56432 0.0
O92 O 0.73462 0.88218 0.55374 0.0
C93 C 0.64274 0.98607 0.16528 0.0
C94 C 0.68404 0.05443 0.19758 0.0
C95 C 0.92336 0.9814 0.19669 0.0
Mg96 Mg 0.63827 0.95102 0.18987 0.0
O97 O 0.72647 0.9353 0.18581 0.0
Mg98 Mg 0.78688 0.98837 0.1802 0.0
Mg99 Mg 0.78303 0.91076 0.19775 0.0
O100 O 0.83897 0.88465 0.20949 0.0
Mg101 Mg 0.92775 0.87062 0.20558 0.0
Mg102 Mg 0.77616 0.82885 0.2134 0.0
C103 C 0.63869 0.84245 0.19893 0.0
C104 C 0.72544 0.93681 0.22352 0.0
O105 O 0.7062 0.99362 0.1659 0.0
O106 O 0.60814 0.97123 0.17351 0.0
O107 O 0.73171 0.04722 0.19059 0.0
O108 O 0.64686 0.01838 0.20042 0.0
O109 O 0.60313 0.87857 0.19562 0.0
O110 O 0.70263 0.84787 0.19982 0.0
C111 C 0.85327 0.88185 0.17295 0.0
O112 O 0.83734 0.86676 0.18266 0.0
O113 O 0.83942 0.92595 0.17017 0.0
O114 O 0.85479 0.81309 0.22645 0.0
O115 O 0.95507 0.84377 0.22169 0.0
O116 O 0.82582 0.77435 0.20101 0.0
C117 C 0.91675 0.82129 0.22843 0.0
O118 O 0.91962 0.8056 0.19412 0.0
O119 O 0.95876 0.94576 0.20037 0.0
C120 C 0.87593 0.77074 0.1944 0.0
O121 O 0.85982 0.97535 0.19525 0.0
O122 O 0.73671 0.95453 0.2138 0.0
O123 O 0.73182 0.89008 0.22502 0.0
C124 C 0.091 0.56822 0.97687 0.0
C125 C 0.13786 0.53641 0.9416 0.0
C126 C 0.37694 0.5976 0.94928 0.0
Mg127 Mg 0.08776 0.62966 0.95561 0.0
O128 O 0.17651 0.64014 0.96008 0.0
Mg129 Mg 0.23508 0.58069 0.96285 0.0
Mg130 Mg 0.23633 0.6707 0.94935 0.0
O131 O 0.29604 0.69977 0.9383 0.0
Mg132 Mg 0.3873 0.70931 0.94196 0.0
Mg133 Mg 0.23739 0.75708 0.93379 0.0
C134 C 0.0975 0.74354 0.94892 0.0
C135 C 0.16599 0.65448 0.9243 0.0
O136 O 0.15253 0.55883 0.97483 0.0
O137 O 0.05577 0.59635 0.97086 0.0
O138 O 0.18631 0.53401 0.94853 0.0
O139 O 0.09539 0.57196 0.94238 0.0
O140 O 0.06071 0.70662 0.95162 0.0
O141 O 0.1616 0.73845 0.94803 0.0
C142 C 0.28743 0.68426 0.97562 0.0
O143 O 0.28082 0.70584 0.96625 0.0
O144 O 0.27797 0.63698 0.9762 0.0
O145 O 0.31982 0.76337 0.91935 0.0
O146 O 0.41591 0.7314 0.92568 0.0
O147 O 0.29185 0.81181 0.94648 0.0
C148 C 0.38167 0.7509 0.91801 0.0
O149 O 0.37503 0.77215 0.95365 0.0
O150 O 0.41467 0.63342 0.94634 0.0
C151 C 0.35372 0.81001 0.94877 0.0
O152 O 0.31361 0.60523 0.95055 0.0
O153 O 0.18437 0.63438 0.93332 0.0
O154 O 0.17996 0.70005 0.92258 0.0
C155 C 0.09461 0.69666 0.30016 0.0
C156 C 0.13673 0.74659 0.33396 0.0
C157 C 0.37359 0.67452 0.32978 0.0
Mg158 Mg 0.08492 0.64632 0.32284 0.0
O159 O 0.17332 0.63195 0.31881 0.0
Mg160 Mg 0.23597 0.68803 0.31496 0.0
Mg161 Mg 0.2289 0.60601 0.33063 0.0
O162 O 0.28428 0.58229 0.34284 0.0
Mg163 Mg 0.37392 0.56811 0.33995 0.0
Mg164 Mg 0.22392 0.53068 0.34902 0.0
C165 C 0.08889 0.53567 0.33199 0.0
C166 C 0.15656 0.63765 0.35522 0.0
O167 O 0.15649 0.70521 0.30215 0.0
O168 O 0.05703 0.67256 0.30671 0.0
O169 O 0.18734 0.74269 0.32747 0.0
O170 O 0.09271 0.71192 0.33417 0.0
O171 O 0.05422 0.57165 0.32829 0.0
O172 O 0.15268 0.54069 0.33336 0.0
C173 C 0.28489 0.57946 0.30471 0.0
O174 O 0.27463 0.56167 0.31447 0.0
O175 O 0.27871 0.62628 0.30325 0.0
O176 O 0.30213 0.52994 0.36402 0.0
O177 O 0.40063 0.55325 0.35676 0.0
O178 O 0.28317 0.4695 0.33998 0.0
C179 C 0.36511 0.53935 0.36496 0.0
O180 O 0.36964 0.49809 0.33047 0.0
O181 O 0.40838 0.63945 0.33375 0.0
C182 C 0.33593 0.46189 0.33415 0.0
O183 O 0.31007 0.66824 0.32836 0.0
O184 O 0.17442 0.65186 0.34553 0.0
O185 O 0.16907 0.59376 0.3582 0.0
C186 C 0.62241 0.28392 0.11007 0.0
C187 C 0.67501 0.2317 0.07456 0.0
C188 C 0.91445 0.28372 0.0807 0.0
Mg189 Mg 0.63127 0.3292 0.08661 0.0
O190 O 0.71969 0.3382 0.09159 0.0
Mg191 Mg 0.77152 0.2782 0.09596 0.0
Mg192 Mg 0.78254 0.36451 0.08067 0.0
O193 O 0.84484 0.39165 0.06978 0.0
Mg194 Mg 0.93721 0.39525 0.07288 0.0
Mg195 Mg 0.78987 0.45358 0.06675 0.0
C196 C 0.6465 0.44088 0.07974 0.0
C197 C 0.72873 0.35173 0.0544 0.0
O198 O 0.68465 0.27181 0.10949 0.0
O199 O 0.59211 0.30399 0.10203 0.0
O200 O 0.71716 0.22811 0.08255 0.0
O201 O 0.63806 0.27003 0.07389 0.0
O202 O 0.60712 0.40497 0.08202 0.0
O203 O 0.71045 0.43392 0.07954 0.0
C204 C 0.84955 0.37808 0.10602 0.0
O205 O 0.83613 0.39853 0.09678 0.0
O206 O 0.83011 0.33344 0.10775 0.0
O207 O 0.8701 0.46682 0.05376 0.0
O208 O 0.96298 0.42207 0.05644 0.0
O209 O 0.84709 0.50057 0.08072 0.0
C210 C 0.92798 0.45138 0.05066 0.0
O211 O 0.92896 0.45384 0.08594 0.0
O212 O 0.95449 0.31708 0.07718 0.0
C213 C 0.90955 0.49499 0.08226 0.0
O214 O 0.85189 0.29407 0.08227 0.0
O215 O 0.736 0.33028 0.06376 0.0
O216 O 0.73986 0.39875 0.05379 0.0
C217 C 0.62904 0.48135 0.66869 0.0
C218 C 0.66265 0.53687 0.70184 0.0
C219 C 0.91632 0.49459 0.69938 0.0
Mg220 Mg 0.63984 0.43689 0.69242 0.0
O221 O 0.72792 0.4312 0.68748 0.0
Mg222 Mg 0.77608 0.49357 0.68299 0.0
Mg223 Mg 0.79097 0.40702 0.69866 0.0
O224 O 0.85517 0.38082 0.70932 0.0
Mg225 Mg 0.94689 0.38195 0.7062 0.0
Mg226 Mg 0.80768 0.31488 0.71091 0.0
C227 C 0.66024 0.326 0.69903 0.0
C228 C 0.73984 0.40911 0.72514 0.0
O229 O 0.69144 0.49378 0.6689 0.0
O230 O 0.59981 0.46251 0.67704 0.0
O231 O 0.70692 0.54292 0.69429 0.0
O232 O 0.65144 0.49383 0.70535 0.0
O233 O 0.61919 0.36069 0.69685 0.0
O234 O 0.7238 0.33493 0.69917 0.0
C235 C 0.86054 0.39693 0.67342 0.0
O236 O 0.84541 0.37625 0.68252 0.0
O237 O 0.84245 0.44161 0.67172 0.0
O238 O 0.89134 0.29879 0.72292 0.0
O239 O 0.98071 0.3486 0.72145 0.0
O240 O 0.86559 0.27871 0.69578 0.0
C241 C 0.94875 0.3142 0.72629 0.0
O242 O 0.95278 0.32818 0.69221 0.0
O243 O 0.95793 0.46214 0.70278 0.0
C244 C 0.91588 0.29004 0.68976 0.0
O245 O 0.85431 0.48222 0.69759 0.0
O246 O 0.74268 0.43443 0.71619 0.0
O247 O 0.75602 0.36261 0.72483 0.0
C248 C 0.56133 0.06811 0.97644 0.0
C249 C 0.60659 0.04255 0.94046 0.0
C250 C 0.85641 0.08409 0.94982 0.0
Mg251 Mg 0.5691 0.13465 0.95625 0.0
O252 O 0.65885 0.13589 0.96062 0.0
Mg253 Mg 0.70741 0.07073 0.96247 0.0
Mg254 Mg 0.72382 0.16457 0.95049 0.0
O255 O 0.78647 0.19131 0.93961 0.0
Mg256 Mg 0.87541 0.19617 0.94376 0.0
Mg257 Mg 0.73798 0.25318 0.93547 0.0
C258 C 0.59538 0.24834 0.95035 0.0
C259 C 0.65676 0.15652 0.92515 0.0
O260 O 0.62008 0.05243 0.97394 0.0
O261 O 0.53178 0.10176 0.97108 0.0
O262 O 0.65481 0.0325 0.947 0.0
O263 O 0.56864 0.0803 0.94239 0.0
O264 O 0.55386 0.214 0.95288 0.0
O265 O 0.6586 0.23854 0.94952 0.0
C266 C 0.77004 0.16708 0.97713 0.0
O267 O 0.76935 0.1923 0.96816 0.0
O268 O 0.75413 0.12038 0.97673 0.0
O269 O 0.82158 0.25714 0.92136 0.0
O270 O 0.91391 0.22302 0.92839 0.0
O271 O 0.80322 0.30036 0.94806 0.0
C272 C 0.88327 0.24392 0.92049 0.0
O273 O 0.87145 0.25129 0.95718 0.0
O274 O 0.8958 0.11931 0.94718 0.0
C275 C 0.84638 0.2941 0.95579 0.0
O276 O 0.79324 0.09327 0.95112 0.0
O277 O 0.67193 0.13469 0.93409 0.0
O278 O 0.67392 0.20183 0.92376 0.0
C279 C 0.56724 0.20465 0.30296 0.0
C280 C 0.61308 0.21989 0.33922 0.0
C281 C 0.86111 0.18878 0.33001 0.0
Mg282 Mg 0.57697 0.13269 0.32211 0.0
O283 O 0.66659 0.13428 0.31787 0.0
Mg284 Mg 0.71337 0.20107 0.31688 0.0
Mg285 Mg 0.73201 0.10408 0.32762 0.0
O286 O 0.79586 0.07545 0.33801 0.0
Mg287 Mg 0.88499 0.07515 0.33379 0.0
Mg288 Mg 0.74949 0.01066 0.34076 0.0
C289 C 0.60432 0.01873 0.32683 0.0
C290 C 0.66735 0.10241 0.3531 0.0
O291 O 0.62567 0.22084 0.30562 0.0
O292 O 0.53857 0.16915 0.3079 0.0
O293 O 0.66003 0.2337 0.33277 0.0
O294 O 0.57646 0.18177 0.33672 0.0
O295 O 0.56243 0.0529 0.32457 0.0
O296 O 0.66746 0.02918 0.32766 0.0
C297 C 0.77868 0.10999 0.3011 0.0
O298 O 0.77766 0.08247 0.3097 0.0
O299 O 0.76187 0.1564 0.30203 0.0
O300 O 0.83541 1.00107 0.35425 0.0
O301 O 0.9259 0.04131 0.34809 0.0
O302 O 0.81203 0.97147 0.32641 0.0
C303 C 0.89677 0.01519 0.35532 0.0
O304 O 0.88181 0.02651 0.31921 0.0
O305 O 0.90224 0.15439 0.33231 0.0
C306 C 0.85365 0.98368 0.31881 0.0
O307 O 0.79928 0.17715 0.32793 0.0
O308 O 0.68051 0.12727 0.34447 0.0
O309 O 0.68623 0.05694 0.35377 0.0
C310 C 0.11804 0.76294 0.10711 0.0
C311 C 0.16699 0.72773 0.07062 0.0
C312 C 0.4079 0.78179 0.07777 0.0
Mg313 Mg 0.12167 0.81964 0.08493 0.0
O314 O 0.211 0.82692 0.08948 0.0
Mg315 Mg 0.26514 0.76603 0.09254 0.0
Mg316 Mg 0.27224 0.85912 0.07914 0.0
O317 O 0.33385 0.89289 0.06904 0.0
Mg318 Mg 0.42516 0.89745 0.07264 0.0
Mg319 Mg 0.27772 0.95606 0.06769 0.0
C320 C 0.1352 0.93523 0.08059 0.0
C321 C 0.2201 0.85828 0.05299 0.0
O322 O 0.18036 0.75197 0.10598 0.0
O323 O 0.08603 0.78671 0.09981 0.0
O324 O 0.21068 0.72137 0.07824 0.0
O325 O 0.12841 0.76562 0.07099 0.0
O326 O 0.09663 0.89823 0.08249 0.0
O327 O 0.19884 0.9281 0.07958 0.0
C328 C 0.33982 0.86301 0.10426 0.0
O329 O 0.32398 0.88654 0.09558 0.0
O330 O 0.32299 0.81718 0.10524 0.0
O331 O 0.35778 0.97791 0.05544 0.0
O332 O 0.45168 0.93345 0.05726 0.0
O333 O 0.33341 0.99935 0.08245 0.0
C334 C 0.41657 0.96534 0.05223 0.0
O335 O 0.41113 0.94784 0.0871 0.0
O336 O 0.44555 0.81814 0.07504 0.0
C337 C 0.39487 0.99142 0.0845 0.0
O338 O 0.34454 0.78915 0.07935 0.0
O339 O 0.22632 0.83203 0.06169 0.0
O340 O 0.23069 0.90572 0.05364 0.0
C341 C 0.13432 1.00176 0.66802 0.0
C342 C 0.15572 0.06071 0.69876 0.0
C343 C 0.41074 0.9897 0.70026 0.0
Mg344 Mg 0.11996 0.96001 0.69192 0.0
O345 O 0.21237 0.95009 0.68924 0.0
Mg346 Mg 0.27378 1.00624 0.68484 0.0
Mg347 Mg 0.26876 0.92155 0.70087 0.0
O348 O 0.32477 0.89055 0.71203 0.0
Mg349 Mg 0.4121 0.87572 0.70745 0.0
Mg350 Mg 0.26203 0.83329 0.71523 0.0
C351 C 0.12599 0.84891 0.69993 0.0
C352 C 0.21403 0.94016 0.72692 0.0
O353 O 0.19575 0.01393 0.66998 0.0
O354 O 0.09723 0.98174 0.6753 0.0
O355 O 0.21852 0.0616 0.69725 0.0
O356 O 0.13094 0.02356 0.70355 0.0
O357 O 0.09005 0.884 0.69623 0.0
O358 O 0.18843 0.8573 0.70207 0.0
C359 C 0.34358 0.90267 0.67622 0.0
O360 O 0.32485 0.88408 0.68543 0.0
O361 O 0.32936 0.94748 0.67396 0.0
O362 O 0.34166 0.81238 0.72778 0.0
O363 O 0.44068 0.84535 0.72307 0.0
O364 O 0.3077 0.78105 0.70174 0.0
C365 C 0.40377 0.82069 0.72962 0.0
O366 O 0.40026 0.81475 0.69492 0.0
O367 O 0.44431 0.95143 0.70305 0.0
C368 C 0.35556 0.78053 0.69467 0.0
O369 O 0.34642 0.98705 0.69941 0.0
O370 O 0.22276 0.96007 0.71739 0.0
O371 O 0.22093 0.89295 0.72786 0.0
C372 C 0.58974 0.5668 0.48022 0.0
C373 C 0.60941 0.54821 0.44338 0.0
C374 C 0.86605 0.57597 0.44884 0.0
Mg375 Mg 0.58797 0.63699 0.4607 0.0
O376 O 0.67946 0.63448 0.46285 0.0
Mg377 Mg 0.7252 0.56757 0.46347 0.0
Mg378 Mg 0.73912 0.6629 0.45183 0.0
O379 O 0.79836 0.68929 0.44038 0.0
Mg380 Mg 0.88938 0.68795 0.44346 0.0
Mg381 Mg 0.75288 0.75483 0.43811 0.0
C382 C 0.61374 0.74986 0.45467 0.0
C383 C 0.66212 0.66351 0.42743 0.0
O384 O 0.64599 0.55075 0.47646 0.0
O385 O 0.55725 0.60131 0.47563 0.0
O386 O 0.65989 0.53369 0.44893 0.0
O387 O 0.57746 0.588 0.44631 0.0
O388 O 0.57448 0.71633 0.45827 0.0
O389 O 0.67547 0.73859 0.45228 0.0
C390 C 0.79742 0.66015 0.47771 0.0
O391 O 0.7927 0.68664 0.46899 0.0
O392 O 0.78244 0.6133 0.47714 0.0
O393 O 0.83316 0.76278 0.42355 0.0
O394 O 0.92463 0.72071 0.42852 0.0
O395 O 0.82403 0.79387 0.4513 0.0
C396 C 0.89346 0.74771 0.42173 0.0
O397 O 0.89485 0.7381 0.45775 0.0
O398 O 0.90767 0.60907 0.44583 0.0
C399 C 0.86945 0.78172 0.45824 0.0
O400 O 0.80452 0.58858 0.45085 0.0
O401 O 0.67856 0.63892 0.43594 0.0
O402 O 0.68254 0.70845 0.42629 0.0
C403 C 0.59238 0.70923 0.80189 0.0
C404 C 0.65375 0.74943 0.83629 0.0
C405 C 0.88066 0.67761 0.82833 0.0
Mg406 Mg 0.5905 0.65457 0.82415 0.0
O407 O 0.67635 0.63885 0.81859 0.0
Mg408 Mg 0.73903 0.69542 0.81482 0.0
Mg409 Mg 0.73639 0.60844 0.82925 0.0
O410 O 0.79627 0.58092 0.84043 0.0
Mg411 Mg 0.88454 0.5667 0.83604 0.0
Mg412 Mg 0.73759 0.52654 0.84582 0.0
C413 C 0.59558 0.54011 0.83131 0.0
C414 C 0.6703 0.62997 0.85461 0.0
O415 O 0.65522 0.71594 0.80319 0.0
O416 O 0.55633 0.68598 0.80883 0.0
O417 O 0.69891 0.74786 0.82874 0.0
O418 O 0.60784 0.71616 0.8365 0.0
O419 O 0.56005 0.57804 0.82884 0.0
O420 O 0.65993 0.54365 0.83167 0.0
C421 C 0.78438 0.58878 0.80272 0.0
O422 O 0.77768 0.56888 0.81231 0.0
O423 O 0.77637 0.6359 0.80182 0.0
O424 O 0.82198 0.51816 0.8596 0.0
O425 O 0.91849 0.54343 0.85203 0.0
O426 O 0.78841 0.47158 0.83363 0.0
C427 C 0.88529 0.52673 0.86022 0.0
O428 O 0.87355 0.50323 0.82428 0.0
O429 O 0.91676 0.64122 0.83134 0.0
C430 C 0.83302 0.46746 0.82597 0.0
O431 O 0.81697 0.67132 0.82718 0.0
O432 O 0.68542 0.64722 0.84508 0.0
O433 O 0.68596 0.58571 0.85703 0.0
C434 C 0.11785 0.25865 0.60729 0.0
C435 C 0.17155 0.2162 0.57079 0.0
C436 C 0.41306 0.27176 0.57923 0.0
Mg437 Mg 0.12479 0.30942 0.58442 0.0
O438 O 0.21382 0.3168 0.58904 0.0
Mg439 Mg 0.2669 0.25675 0.59299 0.0
Mg440 Mg 0.27742 0.34839 0.57903 0.0
O441 O 0.34176 0.38195 0.56952 0.0
Mg442 Mg 0.42952 0.38817 0.57474 0.0
Mg443 Mg 0.28755 0.44454 0.56761 0.0
C444 C 0.13987 0.42393 0.5795 0.0
C445 C 0.23389 0.34738 0.55219 0.0
O446 O 0.17988 0.24635 0.60634 0.0
O447 O 0.08688 0.2805 0.59957 0.0
O448 O 0.21407 0.21042 0.57864 0.0
O449 O 0.1331 0.25408 0.57084 0.0
O450 O 0.10099 0.38731 0.5815 0.0
O451 O 0.20343 0.41638 0.57852 0.0
C452 C 0.33945 0.35446 0.60486 0.0
O453 O 0.32514 0.37751 0.59602 0.0
O454 O 0.32335 0.30852 0.60578 0.0
O455 O 0.37495 0.46882 0.55682 0.0
O456 O 0.46762 0.42562 0.56056 0.0
O457 O 0.33353 0.48468 0.5833 0.0
C458 C 0.43615 0.45754 0.55497 0.0
O459 O 0.42114 0.44094 0.5889 0.0
O460 O 0.45129 0.30897 0.57727 0.0
C461 C 0.38006 0.47714 0.59035 0.0
O462 O 0.34903 0.27817 0.57996 0.0
O463 O 0.2363 0.32109 0.56098 0.0
O464 O 0.24669 0.39458 0.5529 0.0
C465 C 0.12118 0.50201 0.17137 0.0
C466 C 0.15925 0.53482 0.20834 0.0
C467 C 0.40637 0.49813 0.20302 0.0
Mg468 Mg 0.1268 0.44351 0.19315 0.0
O469 O 0.21701 0.44214 0.18952 0.0
Mg470 Mg 0.26575 0.50615 0.1869 0.0
Mg471 Mg 0.27751 0.41329 0.20042 0.0
O472 O 0.33871 0.38275 0.21089 0.0
Mg473 Mg 0.4301 0.38386 0.20818 0.0
Mg474 Mg 0.28976 0.31685 0.21148 0.0
C475 C 0.14654 0.33019 0.1976 0.0
C476 C 0.22447 0.40941 0.22673 0.0
O477 O 0.18246 0.51581 0.17286 0.0
O478 O 0.08979 0.47659 0.17847 0.0
O479 O 0.20255 0.54665 0.20098 0.0
O480 O 0.12861 0.49294 0.20758 0.0
O481 O 0.10648 0.36469 0.19494 0.0
O482 O 0.20837 0.34133 0.19976 0.0
C483 C 0.34734 0.41254 0.17524 0.0
O484 O 0.33205 0.38836 0.18389 0.0
O485 O 0.32972 0.45819 0.17436 0.0
O486 O 0.3715 0.29605 0.22354 0.0
O487 O 0.46206 0.34512 0.22266 0.0
O488 O 0.34862 0.28404 0.1961 0.0
C489 C 0.42916 0.31013 0.22708 0.0
O490 O 0.43411 0.33623 0.19336 0.0
O491 O 0.44554 0.46417 0.20638 0.0
C492 C 0.39826 0.29835 0.19026 0.0
O493 O 0.34487 0.48685 0.2005 0.0
O494 O 0.22897 0.4367 0.21811 0.0
O495 O 0.23826 0.36241 0.22589 0.0
H496 H 0.26217 0.38595 0.44489 0.0
H497 H 0.42391 0.33215 0.46467 0.0
H498 H 0.33612 0.44467 0.43661 0.0
H499 H 0.49669 0.39537 0.45751 0.0
H500 H 0.64144 0.44994 0.43752 0.0
H501 H 0.55125 0.39094 0.43994 0.0
H502 H 0.40837 0.50753 0.43431 0.0
H503 H 0.49837 0.5637 0.43059 0.0
C504 C 0.31294 0.38867 0.44798 0.0
C505 C 0.34029 0.35066 0.45421 0.0
C506 C 0.35573 0.42199 0.44306 0.0
C507 C 0.42406 0.42074 0.44551 0.0
C508 C 0.44562 0.39336 0.45458 0.0
C509 C 0.40324 0.35854 0.45907 0.0
C510 C 0.59082 0.46186 0.43604 0.0
C511 C 0.5755 0.51256 0.43542 0.0
C512 C 0.53903 0.42859 0.4378 0.0
C513 C 0.47328 0.44667 0.4387 0.0
C514 C 0.45862 0.49314 0.43445 0.0
C515 C 0.51066 0.52536 0.43218 0.0
H516 H 0.2104 0.93 0.44118 0.0
H517 H 0.03458 0.989 0.42641 0.0
H518 H 0.14404 0.87196 0.45108 0.0
H519 H 0.96749 0.92587 0.4348 0.0
H520 H 0.84296 0.88319 0.46113 0.0
H521 H 0.92757 0.93421 0.45279 0.0
H522 H 0.07462 0.82071 0.45874 0.0
H523 H 0.99187 0.77475 0.46847 0.0
C524 C 0.15737 0.92842 0.43946 0.0
C525 C 0.12505 0.96919 0.43495 0.0
C526 C 0.11882 0.89542 0.44536 0.0
C527 C 0.04891 0.89892 0.44494 0.0
C528 C 0.02054 0.92668 0.43645 0.0
C529 C 0.05953 0.96145 0.43117 0.0
C530 C 0.89434 0.87092 0.46128 0.0
C531 C 0.90999 0.82193 0.4638 0.0
C532 C 0.94238 0.89892 0.456 0.0
C533 C 1.00583 0.87816 0.45367 0.0
C534 C 0.02525 0.83649 0.45952 0.0
C535 C 0.97754 0.81036 0.46534 0.0
H536 H 0.48754 0.02159 0.82984 0.0
H537 H 0.37049 0.8855 0.82961 0.0
H538 H 0.57591 0.9818 0.83998 0.0
H539 H 0.45978 0.84516 0.83929 0.0
H540 H 0.57485 0.76807 0.85494 0.0
H541 H 0.51667 0.84664 0.85792 0.0
H542 H 0.65622 0.91553 0.8359 0.0
H543 H 0.71759 0.83836 0.83374 0.0
C544 C 0.48144 0.98266 0.83164 0.0
C545 C 0.42195 0.9564 0.82893 0.0
C546 C 0.53151 0.96043 0.83769 0.0
C547 C 0.52348 0.91136 0.84093 0.0
C548 C 0.46607 0.88406 0.83747 0.0
C549 C 0.41579 0.90641 0.83157 0.0
C550 C 0.59584 0.80064 0.85138 0.0
C551 C 0.64667 0.79621 0.8433 0.0
C552 C 0.5626 0.84591 0.8531 0.0
C553 C 0.57843 0.88502 0.8462 0.0
C554 C 0.64071 0.8848 0.84083 0.0
C555 C 0.67556 0.84004 0.83948 0.0
H556 H 0.14207 0.32647 0.8454 0.0
H557 H 0.99439 0.21691 0.85295 0.0
H558 H 0.0549 0.38331 0.84025 0.0
H559 H 0.90748 0.26945 0.84638 0.0
H560 H 0.76837 0.37944 0.8299 0.0
H561 H 0.83714 0.3251 0.84032 0.0
H562 H 0.01033 0.37541 0.82232 0.0
H563 H 0.9414 0.43493 0.81316 0.0
C564 C 0.09059 0.31512 0.84636 0.0
C565 C 0.07398 0.26491 0.84757 0.0
C566 C 0.04071 0.34686 0.84296 0.0
C567 C 0.97545 0.32799 0.84135 0.0
C568 C 0.95776 0.28409 0.84659 0.0
C569 C 0.00794 0.25407 0.85056 0.0
C570 C 0.8211 0.3778 0.82793 0.0
C571 C 0.85178 0.41613 0.82217 0.0
C572 C 0.86096 0.34709 0.83412 0.0
C573 C 0.93062 0.35034 0.83317 0.0
C574 C 0.95758 0.3764 0.82424 0.0
C575 C 0.91763 0.40891 0.81856 0.0
H576 H 0.3104 0.56358 0.59558 0.0
H577 H 0.4825 0.48017 0.60547 0.0
H578 H 0.36675 0.64119 0.60154 0.0
H579 H 0.5383 0.55673 0.61124 0.0
H580 H 0.66679 0.6766 0.60419 0.0
H581 H 0.57903 0.63742 0.61449 0.0
H582 H 0.44405 0.65608 0.58668 0.0
H583 H 0.53089 0.69862 0.57672 0.0
C584 C 0.35894 0.56158 0.5995 0.0
C585 C 0.39476 0.51652 0.59916 0.0
C586 C 0.39108 0.60609 0.60298 0.0
C587 C 0.45906 0.60505 0.60577 0.0
C588 C 0.4871 0.55922 0.60848 0.0
C589 C 0.45518 0.51484 0.60504 0.0
C590 C 0.61826 0.67259 0.60026 0.0
C591 C 0.60619 0.68931 0.58943 0.0
C592 C 0.56768 0.65071 0.60628 0.0
C593 C 0.5045 0.64314 0.60146 0.0
C594 C 0.49164 0.66198 0.59083 0.0
C595 C 0.54188 0.68514 0.58493 0.0
H596 H 0.03675 0.94922 0.57197 0.0
H597 H 0.8884 0.06307 0.56766 0.0
H598 H 0.10929 0.98818 0.55885 0.0
H599 H 0.96333 0.10555 0.55569 0.0
H600 H 0.08967 0.21333 0.55218 0.0
H601 H 0.0384 0.13699 0.54406 0.0
H602 H 0.17997 0.04997 0.562 0.0
H603 H 0.23257 0.12511 0.5694 0.0
C604 C 0.01977 0.98295 0.5683 0.0
C605 C 0.95737 1.0039 0.57113 0.0
C606 C 0.06158 1.00543 0.56071 0.0
C607 C 0.04496 0.05204 0.55663 0.0
C608 C 0.97978 0.0703 0.55867 0.0
C609 C 0.93664 0.04647 0.56582 0.0
C610 C 0.11092 0.17765 0.55407 0.0
C611 C 0.16057 0.17465 0.56231 0.0
C612 C 0.08158 0.1338 0.54942 0.0
C613 C 0.09884 0.0876 0.55367 0.0
C614 C 0.1606 0.08482 0.55926 0.0
C615 C 0.19098 0.1284 0.56369 0.0
H616 H 0.73176 0.13672 0.18756 0.0
H617 H 0.5687 0.08713 0.20796 0.0
H618 H 0.65604 0.1862 0.17717 0.0
H619 H 0.49402 0.14145 0.19849 0.0
H620 H 0.35364 0.20453 0.18284 0.0
H621 H 0.43757 0.13955 0.181 0.0
H622 H 0.5877 0.25189 0.17556 0.0
H623 H 0.50322 0.31511 0.1762 0.0
C624 C 0.68004 0.13812 0.1902 0.0
C625 C 0.65483 0.10473 0.1979 0.0
C626 C 0.63633 0.16599 0.18406 0.0
C627 C 0.56779 0.16434 0.1863 0.0
C628 C 0.54559 0.1399 0.19582 0.0
C629 C 0.58895 0.11042 0.20162 0.0
C630 C 0.40377 0.21477 0.18045 0.0
C631 C 0.42459 0.26486 0.1811 0.0
C632 C 0.45216 0.17768 0.17958 0.0
C633 C 0.51976 0.19193 0.17964 0.0
C634 C 0.53647 0.23996 0.1764 0.0
C635 C 0.48761 0.27654 0.17678 0.0
H636 H 0.98152 0.73958 0.18063 0.0
H637 H 0.81576 0.68167 0.19885 0.0
H638 H 0.05518 0.68185 0.18927 0.0
H639 H 0.88934 0.62974 0.20886 0.0
H640 H 0.05042 0.52953 0.22242 0.0
H641 H 0.96199 0.57935 0.21554 0.0
H642 H 0.10723 0.68977 0.20621 0.0
H643 H 0.1958 0.6348 0.21165 0.0
C644 C 0.96031 0.71352 0.18627 0.0
C645 C 0.89537 0.71978 0.19041 0.0
C646 C 1.00315 0.68206 0.19168 0.0
C647 C 0.98001 0.6562 0.20092 0.0
C648 C 0.91075 0.65171 0.20243 0.0
C649 C 0.86793 0.68115 0.19647 0.0
C650 C 0.06334 0.56532 0.21919 0.0
C651 C 0.12865 0.5749 0.21562 0.0
C652 C 0.01214 0.59381 0.21502 0.0
C653 C 0.02811 0.63554 0.20887 0.0
C654 C 0.0938 0.65447 0.2096 0.0
C655 C 0.14465 0.62406 0.2132 0.0
H656 H 0.49821 0.04457 0.92665 0.0
H657 H 0.67685 0.96005 0.93221 0.0
H658 H 0.44554 0.97123 0.91828 0.0
H659 H 0.62422 0.88588 0.92324 0.0
H660 H 0.48889 0.80764 0.94865 0.0
H661 H 0.56336 0.85038 0.93667 0.0
H662 H 0.39527 0.89785 0.91707 0.0
H663 H 0.32057 0.85961 0.93 0.0
C664 C 0.52698 0.01037 0.9258 0.0
C665 C 0.58878 1.00635 0.93116 0.0
C666 C 0.49697 0.96783 0.9208 0.0
C667 C 0.52754 0.92096 0.92174 0.0
C668 C 0.59676 0.92069 0.92367 0.0
C669 C 0.6269 0.96307 0.92887 0.0
C670 C 0.46792 0.82726 0.94178 0.0
C671 C 0.39887 0.83147 0.94053 0.0
C672 C 0.51088 0.85125 0.93465 0.0
C673 C 0.4858 0.87991 0.926 0.0
C674 C 0.41678 0.87865 0.92394 0.0
C675 C 0.37369 0.85662 0.9314 0.0
H676 H 0.96993 0.29465 0.96552 0.0
H677 H 0.81822 0.39431 0.95461 0.0
H678 H 0.05352 0.34132 0.95654 0.0
H679 H 0.9028 0.4462 0.94678 0.0
H680 H 0.03461 0.51956 0.9263 0.0
H681 H 0.95975 0.454 0.93144 0.0
H682 H 0.12406 0.38236 0.94772 0.0
H683 H 0.19819 0.44412 0.94116 0.0
C684 C 0.95473 0.32832 0.96161 0.0
C685 C 0.88727 0.33764 0.95949 0.0
C686 C 1.00318 0.35496 0.95612 0.0
C687 C 0.98473 0.39445 0.94946 0.0
C688 C 0.9187 0.41238 0.95049 0.0
C689 C 0.87004 0.38406 0.95553 0.0
C690 C 0.05511 0.48801 0.93041 0.0
C691 C 0.11942 0.49024 0.93498 0.0
C692 C 0.01139 0.45161 0.93392 0.0
C693 C 0.03321 0.41772 0.94178 0.0
C694 C 0.10258 0.41081 0.94282 0.0
C695 C 0.1462 0.44596 0.93875 0.0
H696 H 0.50896 0.20712 0.35359 0.0
H697 H 0.6709 0.30846 0.34717 0.0
H698 H 0.43968 0.27658 0.35944 0.0
H699 H 0.60121 0.37864 0.3535 0.0
H700 H 0.45743 0.43083 0.32613 0.0
H701 H 0.53562 0.38226 0.33637 0.0
H702 H 0.38226 0.35098 0.36063 0.0
H703 H 0.30277 0.39534 0.34984 0.0
C704 C 0.53096 0.24422 0.35397 0.0
C705 C 0.59232 0.2534 0.34877 0.0
C706 C 0.49126 0.28439 0.35751 0.0
C707 C 0.51316 0.33289 0.35548 0.0
C708 C 0.58189 0.34106 0.35414 0.0
C709 C 0.62169 0.3009 0.35043 0.0
C710 C 0.43991 0.41222 0.33343 0.0
C711 C 0.37417 0.41795 0.33722 0.0
C712 C 0.48534 0.38601 0.33961 0.0
C713 C 0.46614 0.36517 0.34976 0.0
C714 C 0.39921 0.36767 0.35305 0.0
C715 C 0.35335 0.39245 0.34668 0.0
H716 H 0.9662 0.98938 0.30565 0.0
H717 H 0.81956 0.88327 0.31565 0.0
H718 H 0.05359 0.94014 0.31306 0.0
H719 H 0.90751 0.82901 0.32165 0.0
H720 H 0.03024 0.77817 0.34745 0.0
H721 H 0.95789 0.83686 0.33881 0.0
H722 H 0.12546 0.88828 0.31954 0.0
H723 H 0.19778 0.83527 0.32952 0.0
C724 C 0.95287 0.95357 0.30883 0.0
C725 C 0.88682 0.94347 0.31193 0.0
C726 C 1.00345 0.92542 0.3133 0.0
C727 C 0.98675 0.88351 0.31933 0.0
C728 C 0.92129 0.86433 0.3183 0.0
C729 C 0.8709 0.89432 0.31438 0.0
C730 C 0.05214 0.80428 0.34189 0.0
C731 C 0.11728 0.79769 0.33786 0.0
C732 C 0.01007 0.83636 0.3365 0.0
C733 C 0.03409 0.86242 0.32734 0.0
C734 C 0.10346 0.86631 0.32592 0.0
C735 C 0.14554 0.8362 0.33185 0.0
H736 H 0.52172 0.96157 0.07892 0.0
H737 H 0.37819 0.0784 0.07406 0.0
H738 H 0.60005 1.00168 0.06698 0.0
H739 H 0.45916 0.12206 0.06334 0.0
H740 H 0.59195 0.223 0.05614 0.0
H741 H 0.53382 0.14581 0.05035 0.0
H742 H 0.67089 0.06375 0.07036 0.0
H743 H 0.73044 0.13922 0.07535 0.0
C744 C 0.507 0.99623 0.07539 0.0
C745 C 0.44353 0.01694 0.07749 0.0
C746 C 0.55223 0.01936 0.0685 0.0
C747 C 0.53764 0.06612 0.06434 0.0
C748 C 0.47309 0.0859 0.06616 0.0
C749 C 0.42663 0.06148 0.07261 0.0
C750 C 0.61097 0.18796 0.0589 0.0
C751 C 0.66149 0.18722 0.06705 0.0
C752 C 0.57759 0.14368 0.05562 0.0
C753 C 0.59262 0.09964 0.06099 0.0
C754 C 0.65423 0.0973 0.06661 0.0
C755 C 0.68861 0.14116 0.06964 0.0
H756 H 0.88237 0.57337 0.06947 0.0
H757 H 0.03635 0.4668 0.07617 0.0
H758 H 0.95544 0.61366 0.05692 0.0
H759 H 0.10796 0.50339 0.06268 0.0
H760 H 0.23258 0.6385 0.06805 0.0
H761 H 0.17971 0.56227 0.06137 0.0
H762 H 0.02656 0.64626 0.04545 0.0
H763 H 0.078 0.72366 0.0529 0.0
C764 C 0.9318 0.55804 0.06809 0.0
C765 C 0.95382 0.51763 0.07404 0.0
C766 C 0.97415 0.58064 0.06063 0.0
C767 C 0.04029 0.56373 0.05892 0.0
C768 C 0.05953 0.52004 0.06411 0.0
C769 C 0.01806 0.49866 0.07191 0.0
C770 C 0.18788 0.64088 0.06301 0.0
C771 C 0.15474 0.68647 0.06212 0.0
C772 C 0.15702 0.59668 0.05906 0.0
C773 C 0.09196 0.59837 0.05461 0.0
C774 C 0.07174 0.64392 0.05034 0.0
C775 C 0.10142 0.68843 0.05454 0.0
H776 H 0.30014 0.68903 0.69751 0.0
H777 H 0.43941 0.76454 0.67661 0.0
H778 H 0.36882 0.61544 0.6962 0.0
H779 H 0.50616 0.68934 0.67457 0.0
H780 H 0.66041 0.63707 0.69971 0.0
H781 H 0.56941 0.68309 0.69176 0.0
H782 H 0.44476 0.5507 0.69146 0.0
H783 H 0.53412 0.50589 0.70004 0.0
C784 C 0.34332 0.68902 0.69203 0.0
C785 C 0.36825 0.73368 0.68799 0.0
C786 C 0.38277 0.64641 0.69122 0.0
C787 C 0.44554 0.64855 0.68605 0.0
C788 C 0.4598 0.68827 0.67923 0.0
C789 C 0.42137 0.73134 0.68033 0.0
C790 C 0.61278 0.61855 0.69829 0.0
C791 C 0.60413 0.5684 0.70064 0.0
C792 C 0.56137 0.64413 0.69337 0.0
C793 C 0.50078 0.6197 0.69053 0.0
C794 C 0.49108 0.57025 0.6934 0.0
C795 C 0.54197 0.54501 0.69855 0.0
H796 H 0.02792 0.29472 0.67677 0.0
H797 H 0.84625 0.2098 0.68004 0.0
H798 H 0.08035 0.22327 0.66751 0.0
H799 H 0.89871 0.13799 0.67014 0.0
H800 H 0.02119 0.05584 0.6964 0.0
H801 H 0.95334 0.09816 0.68347 0.0
H802 H 0.13097 0.15048 0.6669 0.0
H803 H 0.19862 0.11195 0.68074 0.0
C804 C 0.99864 0.26087 0.67529 0.0
C805 C 0.93578 0.25564 0.68026 0.0
C806 C 0.02847 0.21952 0.66977 0.0
C807 C 0.99675 0.17247 0.66991 0.0
C808 C 0.92706 0.1724 0.67133 0.0
C809 C 0.89705 0.21334 0.67709 0.0
C810 C 0.04574 0.07644 0.69 0.0
C811 C 0.11513 0.08187 0.68988 0.0
C812 C 1.00668 0.10027 0.68231 0.0
C813 C 0.03604 0.13051 0.67429 0.0
C814 C 0.10594 0.1302 0.67328 0.0
C815 C 0.14499 0.10809 0.68128 0.0
H816 H 0.50803 0.07261 0.45227 0.0
H817 H 0.32078 0.99349 0.44937 0.0
H818 H 0.56704 0.99363 0.45323 0.0
H819 H 0.37975 0.91414 0.44996 0.0
H820 H 0.49008 0.78025 0.46158 0.0
H821 H 0.43559 0.8595 0.46063 0.0
H822 H 0.60853 0.9187 0.44431 0.0
H823 H 0.66534 0.83772 0.44562 0.0
C824 C 0.47902 0.03835 0.45189 0.0
C825 C 0.40883 0.04024 0.45087 0.0
C826 C 0.5134 0.99254 0.45231 0.0
C827 C 0.47927 0.9463 0.45166 0.0
C828 C 0.40883 0.94829 0.45071 0.0
C829 C 0.37438 0.99423 0.45037 0.0
C830 C 0.51739 0.80966 0.4577 0.0
C831 C 0.58297 0.8013 0.45361 0.0
C832 C 0.48512 0.85583 0.45708 0.0
C833 C 0.51616 0.89659 0.45225 0.0
C834 C 0.58224 0.88882 0.44818 0.0
C835 C 0.61512 0.84202 0.44887 0.0
H836 H 0.14213 0.31982 0.44104 0.0
H837 H 0.95677 0.25001 0.44978 0.0
H838 H 0.08679 0.40118 0.44177 0.0
H839 H 0.90227 0.33081 0.45101 0.0
H840 H 0.80231 0.48287 0.44536 0.0
H841 H 0.85426 0.39986 0.44377 0.0
H842 H 0.04461 0.46708 0.4526 0.0
H843 H 0.9933 0.549 0.45371 0.0
C844 C 0.08955 0.32151 0.44306 0.0
C845 C 0.05468 0.27736 0.44529 0.0
C846 C 0.05742 0.36876 0.44365 0.0
C847 C 0.98906 0.37409 0.44661 0.0
C848 C 0.95422 0.32955 0.44858 0.0
C849 C 0.98612 0.28251 0.44791 0.0
C850 C 0.85501 0.47978 0.44713 0.0
C851 C 0.89302 0.52337 0.4497 0.0
C852 C 0.88541 0.43178 0.44618 0.0
C853 C 0.95495 0.42541 0.44786 0.0
C854 C 0.99184 0.46918 0.45085 0.0
C855 C 0.96179 0.51678 0.45167 0.0
H856 H 0.30679 0.28552 0.82499 0.0
H857 H 0.48626 0.22453 0.83857 0.0
H858 H 0.36183 0.36788 0.82486 0.0
H859 H 0.53897 0.30522 0.83895 0.0
H860 H 0.64954 0.44498 0.83018 0.0
H861 H 0.592 0.36475 0.82963 0.0
H862 H 0.40351 0.44076 0.83422 0.0
H863 H 0.46142 0.52109 0.83424 0.0
C864 C 0.35767 0.28937 0.82795 0.0
C865 C 0.39162 0.24732 0.83164 0.0
C866 C 0.38951 0.33699 0.82797 0.0
C867 C 0.45616 0.34433 0.83179 0.0
C868 C 0.48894 0.30214 0.8356 0.0
C869 C 0.4578 0.25507 0.83545 0.0
C870 C 0.59593 0.44475 0.83123 0.0
C871 C 0.56083 0.49022 0.83237 0.0
C872 C 0.56229 0.39822 0.83093 0.0
C873 C 0.49198 0.39494 0.83192 0.0
C874 C 0.45711 0.44065 0.83323 0.0
C875 C 0.49076 0.4872 0.83339 0.0
H876 H 0.0123 0.70161 0.83193 0.0
H877 H 0.82718 0.76914 0.82263 0.0
H878 H 0.06694 0.78245 0.83254 0.0
H879 H 0.88278 0.8506 0.82273 0.0
H880 H 0.97784 0.9997 0.83372 0.0
H881 H 0.92551 0.9178 0.83323 0.0
H882 H 0.1147 0.84946 0.82444 0.0
H883 H 0.16761 0.9323 0.82543 0.0
C884 C 0.98304 0.7336 0.8298 0.0
C885 C 0.91452 0.72792 0.82723 0.0
C886 C 0.01502 0.78062 0.83011 0.0
C887 C 0.98027 0.82448 0.82777 0.0
C888 C 0.91194 0.81862 0.82487 0.0
C889 C 0.87968 0.77137 0.82466 0.0
C890 C 0.00878 0.9672 0.83182 0.0
C891 C 0.07749 0.97325 0.82967 0.0
C892 C 0.97821 0.91969 0.83137 0.0
C893 C 0.01462 0.8757 0.82859 0.0
C894 C 0.08405 0.88164 0.82672 0.0
C895 C 0.11495 0.92949 0.82731 0.0
H896 H 0.54345 0.24837 0.57488 0.0
H897 H 0.35946 0.17864 0.58444 0.0
H898 H 0.59923 0.16879 0.57432 0.0
H899 H 0.41685 0.09791 0.58449 0.0
H900 H 0.52007 0.94926 0.57542 0.0
H901 H 0.4632 0.02915 0.57519 0.0
H902 H 0.64959 0.10547 0.58264 0.0
H903 H 0.7067 0.025 0.58228 0.0
C904 C 0.51459 0.21609 0.57707 0.0
C905 C 0.44616 0.22097 0.57977 0.0
C906 C 0.54739 0.16969 0.57682 0.0
C907 C 0.51391 0.12545 0.57941 0.0
C908 C 0.44527 0.13024 0.58224 0.0
C909 C 0.41196 0.17701 0.58234 0.0
C910 C 0.54936 0.98313 0.57682 0.0
C911 C 0.61864 0.98004 0.57876 0.0
C912 C 0.51617 0.02951 0.57686 0.0
C913 C 0.55046 0.07521 0.57902 0.0
C914 C 0.62033 0.07202 0.58075 0.0
C915 C 0.65376 0.02544 0.58053 0.0
H916 H 0.19597 0.51607 0.57427 0.0
H917 H 0.01074 0.44944 0.58427 0.0
H918 H 0.14152 0.59795 0.57467 0.0
H919 H 0.95791 0.5302 0.5853 0.0
H920 H 0.85526 0.677 0.5782 0.0
H921 H 0.90909 0.5952 0.57738 0.0
H922 H 0.09916 0.66682 0.58445 0.0
H923 H 0.04545 0.74807 0.58465 0.0
C924 C 0.14379 0.51862 0.57655 0.0
C925 C 0.10832 0.47523 0.57912 0.0
C926 C 0.11222 0.56606 0.57692 0.0
C927 C 0.0442 0.57206 0.58004 0.0
C928 C 0.00937 0.52836 0.5826 0.0
C929 C 0.04042 0.48128 0.58207 0.0
C930 C 0.90832 0.67518 0.57978 0.0
C931 C 0.94548 0.71962 0.58156 0.0
C932 C 0.93983 0.62787 0.57929 0.0
C933 C 0.0097 0.62303 0.58075 0.0
C934 C 0.04604 0.66778 0.58296 0.0
C935 C 0.01475 0.7149 0.58326 0.0
H936 H 0.52632 0.53117 0.21131 0.0
H937 H 0.356 0.58455 0.19352 0.0
H938 H 0.57902 0.61189 0.21089 0.0
H939 H 0.41091 0.66666 0.19269 0.0
H940 H 0.50416 0.82289 0.20068 0.0
H941 H 0.44697 0.74273 0.20152 0.0
H942 H 0.63721 0.66772 0.20092 0.0
H943 H 0.69404 0.74821 0.20051 0.0
C944 C 0.49991 0.56 0.20713 0.0
C945 C 0.4363 0.55015 0.20236 0.0
C946 C 0.53104 0.60699 0.20682 0.0
C947 C 0.50074 0.64695 0.20162 0.0
C948 C 0.43654 0.63756 0.19689 0.0
C949 C 0.40478 0.59006 0.19728 0.0
C950 C 0.53409 0.78938 0.20088 0.0
C951 C 0.60442 0.79285 0.20065 0.0
C952 C 0.50086 0.74285 0.20122 0.0
C953 C 0.5364 0.69747 0.20127 0.0
C954 C 0.60695 0.70112 0.20113 0.0
C955 C 0.64017 0.74776 0.20088 0.0
H956 H 0.19931 0.24175 0.20581 0.0
H957 H 0.02736 0.29799 0.18894 0.0
H958 H 0.14666 0.15848 0.20538 0.0
H959 H 0.9771 0.21623 0.18804 0.0
H960 H 0.86575 0.075 0.19601 0.0
H961 H 0.9204 0.15648 0.19681 0.0
H962 H 0.11273 0.08434 0.19571 0.0
H963 H 0.05752 1.003 0.19542 0.0
C964 C 0.15062 0.23662 0.20199 0.0
C965 C 0.11787 0.27761 0.19757 0.0
C966 C 0.12019 0.18847 0.20165 0.0
C967 C 0.0563 0.17951 0.19677 0.0
C968 C 0.02485 0.22063 0.1922 0.0
C969 C 0.05454 0.26826 0.19266 0.0
C970 C 0.91966 0.07636 0.19576 0.0
C971 C 0.95661 0.03172 0.19554 0.0
C972 C 0.95162 0.12358 0.19622 0.0
C973 C 0.02206 0.1283 0.19632 0.0
C974 C 0.05883 0.08338 0.19587 0.0
C975 C 0.02682 0.03621 0.19554 0.0
H976 H 0.50773 0.57171 0.94574 0.0
H977 H 0.32002 0.50654 0.95492 0.0
H978 H 0.56013 0.4905 0.94545 0.0
H979 H 0.37351 0.42459 0.95518 0.0
H980 H 0.46732 0.27366 0.94523 0.0
H981 H 0.41599 0.35561 0.94535 0.0
H982 H 0.606 0.42434 0.95382 0.0
H983 H 0.65782 0.34159 0.95319 0.0
C984 C 0.47739 0.54016 0.94791 0.0
C985 C 0.40889 0.54671 0.95038 0.0
C986 C 0.5081 0.49287 0.9478 0.0
C987 C 0.47215 0.44948 0.95026 0.0
C988 C 0.40368 0.45614 0.95299 0.0
C989 C 0.37264 0.5037 0.95299 0.0
C990 C 0.49865 0.30623 0.94699 0.0
C991 C 0.56732 0.30027 0.94914 0.0
C992 C 0.46864 0.35382 0.94722 0.0
C993 C 0.50559 0.39802 0.94976 0.0
C994 C 0.57488 0.39208 0.95169 0.0
C995 C 0.60518 0.34421 0.95132 0.0
H996 H 0.96715 0.76208 0.9435 0.0
H997 H 0.14949 0.83874 0.95301 0.0
H998 H 0.9079 0.84147 0.94419 0.0
H999 H 0.09014 0.91798 0.95439 0.0
H1000 H 0.98779 0.06119 0.94726 0.0
H1001 H 0.0429 0.98209 0.94638 0.0
H1002 H 0.85703 0.90867 0.95369 0.0
H1003 H 0.79968 0.98983 0.95386 0.0
C1004 C 0.99492 0.79605 0.94569 0.0
C1005 C 0.06382 0.79356 0.94802 0.0
C1006 C 0.96038 0.84199 0.94626 0.0
C1007 C 0.99296 0.88755 0.94939 0.0
C1008 C 0.06226 0.88479 0.95167 0.0
C1009 C 0.09702 0.83889 0.95088 0.0
C1010 C 0.95769 0.02859 0.94876 0.0
C1011 C 0.88829 0.03305 0.95067 0.0
C1012 C 0.9903 0.98231 0.94836 0.0
C1013 C 0.95585 0.93749 0.95005 0.0
C1014 C 0.88624 0.94164 0.95218 0.0
C1015 C 0.85296 0.98856 0.95243 0.0
H1016 H 0.32137 0.76526 0.32338 0.0
H1017 H 0.5066 0.69683 0.33233 0.0
H1018 H 0.37874 0.84574 0.32253 0.0
H1019 H 0.5631 0.77684 0.33195 0.0
H1020 H 0.66442 0.92493 0.32329 0.0
H1021 H 0.61018 0.8425 0.32288 0.0
H1022 H 0.42433 0.91294 0.3329 0.0
H1023 H 0.47773 0.99426 0.33291 0.0
C1024 C 0.3743 0.76705 0.3251 0.0
C1025 C 0.40861 0.7237 0.32791 0.0
C1026 C 0.40757 0.81374 0.32476 0.0
C1027 C 0.47643 0.81911 0.32731 0.0
C1028 C 0.51073 0.77528 0.3298 0.0
C1029 C 0.4777 0.7288 0.33007 0.0
C1030 C 0.61222 0.92269 0.32555 0.0
C1031 C 0.57596 0.96687 0.32812 0.0
C1032 C 0.58059 0.87511 0.32529 0.0
C1033 C 0.51164 0.86993 0.32769 0.0
C1034 C 0.47652 0.91431 0.33064 0.0
C1035 C 0.50779 0.9615 0.33079 0.0
H1036 H 0.95415 0.51563 0.3327 0.0
H1037 H 0.14433 0.44142 0.33302 0.0
H1038 H 0.89715 0.43493 0.33216 0.0
H1039 H 0.08783 0.36057 0.33203 0.0
H1040 H 0.97651 0.22128 0.33986 0.0
H1041 H 0.02754 0.30271 0.34098 0.0
H1042 H 0.86413 0.36052 0.32212 0.0
H1043 H 0.81056 0.27736 0.32139 0.0
C1044 C 0.98411 0.48208 0.33274 0.0
C1045 C 0.05442 0.48574 0.33305 0.0
C1046 C 0.95107 0.43533 0.33227 0.0
C1047 C 0.98687 0.39003 0.33202 0.0
C1048 C 0.05737 0.39388 0.33244 0.0
C1049 C 0.09037 0.44069 0.33301 0.0
C1050 C 0.95084 0.25092 0.33584 0.0
C1051 C 0.88908 0.24159 0.33038 0.0
C1052 C 0.981 0.29834 0.33644 0.0
C1053 C 0.95163 0.33927 0.33148 0.0
C1054 C 0.88898 0.33052 0.32613 0.0
C1055 C 0.85802 0.28252 0.32563 0.0
H1056 H 0.35428 0.68886 0.08314 0.0
H1057 H 0.53899 0.75887 0.074 0.0
H1058 H 0.41221 0.60834 0.08352 0.0
H1059 H 0.59532 0.67956 0.07386 0.0
H1060 H 0.70178 0.53637 0.08268 0.0
H1061 H 0.64408 0.61674 0.08298 0.0
H1062 H 0.46035 0.5403 0.07375 0.0
H1063 H 0.51754 0.46054 0.07392 0.0
C1064 C 0.40702 0.68737 0.08123 0.0
C1065 C 0.44122 0.73128 0.07861 0.0
C1066 C 0.44061 0.64077 0.08132 0.0
C1067 C 0.50956 0.63623 0.07872 0.0
C1068 C 0.54315 0.68042 0.07616 0.0
C1069 C 0.51002 0.7266 0.07616 0.0
C1070 C 0.64933 0.53676 0.08055 0.0
C1071 C 0.61498 0.49136 0.07823 0.0
C1072 C 0.61563 0.58323 0.08073 0.0
C1073 C 0.54632 0.58622 0.07847 0.0
C1074 C 0.51283 0.54062 0.07583 0.0
C1075 C 0.54626 0.49438 0.07577 0.0
H1076 H 0.19142 0.02715 0.07537 0.0
H1077 H 1.00565 0.96111 0.08526 0.0
H1078 H 0.13747 0.10907 0.07561 0.0
H1079 H 0.95294 0.04223 0.08606 0.0
H1080 H 0.85257 0.19035 0.07857 0.0
H1081 H 0.90513 0.10796 0.07793 0.0
H1082 H 0.09562 0.17802 0.08545 0.0
H1083 H 0.04333 0.2597 0.08554 0.0
C1084 C 0.13919 0.02985 0.07761 0.0
C1085 C 0.10351 0.98658 0.08021 0.0
C1086 C 0.10788 0.07736 0.07788 0.0
C1087 C 0.03979 0.08369 0.0809 0.0
C1088 C 1.00458 0.04011 0.08346 0.0
C1089 C 0.03549 0.99287 0.08307 0.0
C1090 C 0.90544 0.18809 0.08027 0.0
C1091 C 0.94313 0.23227 0.08217 0.0
C1092 C 0.9362 0.14042 0.07989 0.0
C1093 C 1.00585 0.13495 0.08153 0.0
C1094 C 0.04267 0.17944 0.08381 0.0
C1095 C 0.01215 0.22685 0.08404 0.0
H1096 H 0.36292 0.08436 0.69594 0.0
H1097 H 0.5455 1.00629 0.70224 0.0
H1098 H 0.42528 0.16305 0.69581 0.0
H1099 H 0.60709 0.08446 0.70255 0.0
H1100 H 0.71386 0.23125 0.69409 0.0
H1101 H 0.65481 0.15069 0.69355 0.0
H1102 H 0.47862 0.22517 0.7069 0.0
H1103 H 0.53671 0.30485 0.70706 0.0
C1104 C 0.41629 0.08372 0.69725 0.0
C1105 C 0.44845 0.03827 0.69909 0.0
C1106 C 0.45242 0.12926 0.69732 0.0
C1107 C 0.5221 0.13122 0.69931 0.0
C1108 C 0.55414 0.08541 0.70087 0.0
C1109 C 0.51822 0.04006 0.70074 0.0
C1110 C 0.66295 0.2302 0.69711 0.0
C1111 C 0.63053 0.27501 0.70064 0.0
C1112 C 0.62853 0.18378 0.69675 0.0
C1113 C 0.56064 0.18052 0.7 0.0
C1114 C 0.5297 0.22534 0.70398 0.0
C1115 C 0.56371 0.27143 0.70423 0.0
H1116 H 0.84927 0.58625 0.70062 0.0
H1117 H 0.0455 0.52344 0.69607 0.0
H1118 H 0.89794 0.67056 0.70156 0.0
H1119 H 0.09385 0.60668 0.69658 0.0
H1120 H 0.17962 0.75999 0.70726 0.0
H1121 H 0.12784 0.67712 0.707 0.0
H1122 H 0.94744 0.73754 0.69354 0.0
H1123 H 0.99822 0.81993 0.69423 0.0
C1124 C 0.9026 0.59025 0.69957 0.0
C1125 C 0.9429 0.54727 0.69825 0.0
C1126 C 0.93105 0.63902 0.70014 0.0
C1127 C 1.00093 0.64681 0.69932 0.0
C1128 C 0.04046 0.60353 0.69761 0.0
C1129 C 0.01223 0.55513 0.69715 0.0
C1130 C 0.12873 0.75582 0.70436 0.0
C1131 C 0.09384 0.79767 0.70081 0.0
C1132 C 0.09871 0.70768 0.70407 0.0
C1133 C 0.03261 0.69914 0.70014 0.0
C1134 C 0.99766 0.7414 0.69679 0.0
C1135 C 0.02741 0.78934 0.69715 0.0
H1136 H 0.51412 0.25596 0.41405 0.0
H1137 H 0.33754 0.20855 0.3956 0.0
H1138 H 0.58326 0.22773 0.39809 0.0
H1139 H 0.40697 0.18062 0.37948 0.0
H1140 H 0.55527 0.06609 0.36259 0.0
H1141 H 0.48362 0.10834 0.37685 0.0
H1142 H 0.61683 0.23574 0.37846 0.0
H1143 H 0.6878 0.1934 0.36407 0.0
C1144 C 0.4899 0.24105 0.40642 0.0
C1145 C 0.42031 0.23435 0.40612 0.0
C1146 C 0.52963 0.22473 0.39726 0.0
C1147 C 0.50083 0.20088 0.38758 0.0
C1148 C 0.4308 0.19789 0.38691 0.0
C1149 C 0.39088 0.21469 0.39607 0.0
C1150 C 0.56921 0.10301 0.36606 0.0
C1151 C 0.6269 0.12656 0.36228 0.0
C1152 C 0.52783 0.12752 0.37411 0.0
C1153 C 0.54393 0.17577 0.37871 0.0
C1154 C 0.60296 0.19861 0.37513 0.0
C1155 C 0.64357 0.17447 0.3669 0.0
H1156 H 0.02681 0.99004 0.35788 0.0
H1157 H 0.85015 0.03201 0.37674 0.0
H1158 H 0.09451 1.0059 0.37473 0.0
H1159 H 0.91771 0.05096 0.39349 0.0
H1160 H 0.05029 0.0799 0.42339 0.0
H1161 H 0.98703 0.03501 0.40846 0.0
H1162 H 0.13447 0.07777 0.38423 0.0
H1163 H 0.19959 0.11876 0.39939 0.0
C1164 C 1.00229 1.00145 0.36574 0.0
C1165 C 0.9332 0.00963 0.366 0.0
C1166 C 0.04121 0.01145 0.37539 0.0
C1167 C 0.01233 0.03128 0.3855 0.0
C1168 C 0.94226 0.03559 0.38595 0.0
C1169 C 0.90314 0.0245 0.37633 0.0
C1170 C 0.07088 0.07715 0.41499 0.0
C1171 C 0.13141 0.10087 0.41267 0.0
C1172 C 0.03362 0.05259 0.40631 0.0
C1173 C 0.05529 0.05214 0.39502 0.0
C1174 C 0.11646 0.07575 0.39278 0.0
C1175 C 0.15382 0.09977 0.40147 0.0
H1176 H 0.67958 0.06448 0.91475 0.0
H1177 H 0.54192 0.18791 0.91601 0.0
H1178 H 0.61092 0.02017 0.9002 0.0
H1179 H 0.47279 0.14374 0.90167 0.0
H1180 H 0.33501 0.04474 0.88143 0.0
H1181 H 0.39997 0.06749 0.89842 0.0
H1182 H 0.58176 0.03393 0.88009 0.0
H1183 H 0.51702 0.01121 0.86318 0.0
C1184 C 0.63444 0.08191 0.91192 0.0
C1185 C 0.61585 0.12949 0.91644 0.0
C1186 C 0.59522 0.05666 0.90362 0.0
C1187 C 0.53594 0.07815 0.89987 0.0
C1188 C 0.51733 0.12565 0.90453 0.0
C1189 C 0.55721 0.15123 0.91263 0.0
C1190 C 0.38863 0.04029 0.88116 0.0
C1191 C 0.42097 0.02656 0.87096 0.0
C1192 C 0.42591 0.05398 0.89084 0.0
C1193 C 0.49607 0.05354 0.89052 0.0
C1194 C 0.52789 0.03479 0.88063 0.0
C1195 C 0.49076 0.02172 0.87094 0.0
H1196 H 0.01461 0.26297 0.91679 0.0
H1197 H 0.83205 0.2206 0.89955 0.0
H1198 H 0.07824 0.23898 0.89977 0.0
H1199 H 0.89599 0.19558 0.88255 0.0
H1200 H 0.04914 0.07845 0.86566 0.0
H1201 H 0.97862 0.12051 0.88012 0.0
H1202 H 0.0973 0.2547 0.87855 0.0
H1203 H 0.16719 0.2127 0.86389 0.0
C1204 C 0.98792 0.2501 0.90923 0.0
C1205 C 0.91828 0.24391 0.90949 0.0
C1206 C 0.02439 0.2362 0.8995 0.0
C1207 C 0.99221 0.21477 0.88987 0.0
C1208 C 0.92216 0.21161 0.88988 0.0
C1209 C 0.88548 0.22655 0.89956 0.0
C1210 C 0.05988 0.117 0.86837 0.0
C1211 C 0.11353 0.14235 0.86366 0.0
C1212 C 0.01916 0.14125 0.87656 0.0
C1213 C 0.03208 0.19107 0.88041 0.0
C1214 C 0.08603 0.21637 0.87573 0.0
C1215 C 0.12592 0.19239 0.86735 0.0
H1216 H 0.31974 0.87511 0.65427 0.0
H1217 H 0.46859 0.86958 0.68024 0.0
H1218 H 0.39718 0.8362 0.64059 0.0
H1219 H 0.54637 0.82916 0.66667 0.0
H1220 H 0.68562 0.82646 0.63467 0.0
H1221 H 0.6131 0.84771 0.6508 0.0
H1222 H 0.45331 0.76226 0.63451 0.0
H1223 H 0.52477 0.7437 0.61826 0.0
C1224 C 0.36867 0.86427 0.65708 0.0
C1225 C 0.38764 0.87381 0.66834 0.0
C1226 C 0.41315 0.8417 0.64928 0.0
C1227 C 0.47814 0.82864 0.65251 0.0
C1228 C 0.49699 0.83859 0.66384 0.0
C1229 C 0.4522 0.86107 0.67165 0.0
C1230 C 0.63579 0.81077 0.63477 0.0
C1231 C 0.61085 0.78326 0.62525 0.0
C1232 C 0.59391 0.82314 0.64399 0.0
C1233 C 0.52653 0.80778 0.64388 0.0
C1234 C 0.5041 0.7761 0.63478 0.0
C1235 C 0.54544 0.76459 0.62553 0.0
H1236 H 0.87314 0.97486 0.60856 0.0
H1237 H 0.96753 0.8365 0.61637 0.0
H1238 H 0.94665 0.02088 0.6222 0.0
H1239 H 0.04174 0.88232 0.62957 0.0
H1240 H 0.19372 0.97691 0.64784 0.0
H1241 H 0.13535 0.95513 0.63009 0.0
H1242 H 0.95129 0.00978 0.64491 0.0
H1243 H 0.00881 0.02967 0.6627 0.0
C1244 C 0.91023 0.95449 0.61304 0.0
C1245 C 0.91403 0.90207 0.61155 0.0
C1246 C 0.95228 0.98077 0.62078 0.0
C1247 C 1.00022 0.95514 0.62683 0.0
C1248 C 1.00592 0.90309 0.6249 0.0
C1249 C 0.9629 0.87682 0.61745 0.0
C1250 C 0.14146 0.98624 0.64714 0.0
C1251 C 0.10577 1.005 0.65664 0.0
C1252 C 0.10801 0.97348 0.63702 0.0
C1253 C 0.03879 0.98056 0.63617 0.0
C1254 C 1.00469 1.00431 0.6453 0.0
C1255 C 0.03769 0.01579 0.65548 0.0
H1256 H 0.68471 0.94529 0.14503 0.0
H1257 H 0.52072 0.02447 0.16132 0.0
H1258 H 0.61258 0.92115 0.12897 0.0
H1259 H 0.44915 1.00134 0.14518 0.0
H1260 H 0.35348 0.96347 0.1097 0.0
H1261 H 0.43372 1.00431 0.12287 0.0
H1262 H 0.50894 0.85969 0.13072 0.0
H1263 H 0.42849 0.81889 0.11778 0.0
C1264 C 0.63423 0.95948 0.14493 0.0
C1265 C 0.60812 0.98669 0.15438 0.0
C1266 C 0.59281 0.9452 0.13582 0.0
C1267 C 0.5252 0.95889 0.13594 0.0
C1268 C 0.50107 0.9904 0.14488 0.0
C1269 C 0.54203 1.00374 0.15408 0.0
C1270 C 0.387 0.94048 0.11429 0.0
C1271 C 0.38442 0.88797 0.11277 0.0
C1272 C 0.43295 0.96385 0.12176 0.0
C1273 C 0.47809 0.93512 0.12764 0.0
C1274 C 0.47544 0.88271 0.12613 0.0
C1275 C 0.42874 0.85937 0.11885 0.0
H1276 H 0.82103 0.86614 0.151 0.0
H1277 H 0.96675 0.82657 0.17545 0.0
H1278 H 0.88528 0.82299 0.13611 0.0
H1279 H 0.02997 0.78019 0.16065 0.0
H1280 H 0.16669 0.78093 0.1284 0.0
H1281 H 0.10019 0.79819 0.14537 0.0
H1282 H 0.92327 0.7484 0.12718 0.0
H1283 H 0.98959 0.73393 0.11013 0.0
C1284 C 0.86589 0.84662 0.15323 0.0
C1285 C 0.88783 0.84849 0.16445 0.0
C1286 C 0.90271 0.82138 0.14469 0.0
C1287 C 0.96293 0.79732 0.1471 0.0
C1288 C 0.98399 0.79815 0.15842 0.0
C1289 C 0.94698 0.82374 0.16698 0.0
C1290 C 0.11399 0.77198 0.12816 0.0
C1291 C 0.08326 0.75638 0.11792 0.0
C1292 C 0.07557 0.78205 0.13791 0.0
C1293 C 1.00571 0.77606 0.13764 0.0
C1294 C 0.97646 0.75515 0.12766 0.0
C1295 C 0.01459 0.74608 0.1179 0.0
H1296 H 0.54451 0.6633 0.85141 0.0
H1297 H 0.69958 0.65832 0.87632 0.0
H1298 H 0.47087 0.70556 0.86531 0.0
H1299 H 0.62588 0.69801 0.89043 0.0
H1300 H 0.50479 0.78745 0.91401 0.0
H1301 H 0.57296 0.76937 0.89742 0.0
H1302 H 0.40582 0.69274 0.88107 0.0
H1303 H 0.33632 0.71519 0.89745 0.0
C1304 C 0.56317 0.67234 0.85984 0.0
C1305 C 0.62844 0.65953 0.86272 0.0
C1306 C 0.52062 0.69575 0.86788 0.0
C1307 C 0.54219 0.70617 0.87906 0.0
C1308 C 0.60773 0.69255 0.88188 0.0
C1309 C 0.65013 0.6694 0.87382 0.0
C1310 C 0.48175 0.76911 0.90665 0.0
C1311 C 0.41498 0.75347 0.90697 0.0
C1312 C 0.52133 0.75748 0.89719 0.0
C1313 C 0.496 0.72796 0.88796 0.0
C1314 C 0.42752 0.71561 0.88795 0.0
C1315 C 0.38729 0.72867 0.89734 0.0
H1316 H 0.1746 0.55602 0.91625 0.0
H1317 H 0.05828 0.69011 0.91384 0.0
H1318 H 0.10228 0.51236 0.90205 0.0
H1319 H 0.98575 0.64666 0.89998 0.0
H1320 H 0.0156 0.50389 0.86376 0.0
H1321 H 0.08094 0.52578 0.88069 0.0
H1322 H 0.90162 0.57328 0.89822 0.0
H1323 H 0.83594 0.55068 0.8813 0.0
C1324 C 0.13324 0.57589 0.91277 0.0
C1325 C 0.12222 0.62648 0.91608 0.0
C1326 C 0.09197 0.55101 0.90467 0.0
C1327 C 0.03788 0.57594 0.89998 0.0
C1328 C 0.02623 0.62615 0.90355 0.0
C1329 C 0.06823 0.6512 0.91139 0.0
C1330 C 0.98979 0.5173 0.87135 0.0
C1331 C 0.92059 0.52569 0.87118 0.0
C1332 C 0.02728 0.52982 0.88106 0.0
C1333 C 0.99656 0.55188 0.89074 0.0
C1334 C 0.9267 0.55671 0.89085 0.0
C1335 C 0.88899 0.5433 0.88119 0.0
H1336 H 0.31955 0.57981 0.38517 0.0
H1337 H 0.48838 0.50509 0.36935 0.0
H1338 H 0.38893 0.60499 0.40154 0.0
H1339 H 0.55755 0.53014 0.38556 0.0
H1340 H 0.66046 0.56628 0.4192 0.0
H1341 H 0.58149 0.52619 0.40577 0.0
H1342 H 0.4814 0.66761 0.40318 0.0
H1343 H 0.56018 0.70735 0.41665 0.0
C1344 C 0.37069 0.5671 0.3854 0.0
C1345 C 0.39867 0.54051 0.37602 0.0
C1346 C 0.41072 0.58216 0.39467 0.0
C1347 C 0.47908 0.57033 0.39476 0.0
C1348 C 0.50519 0.53984 0.3858 0.0
C1349 C 0.46553 0.52537 0.37651 0.0
C1350 C 0.62134 0.58861 0.41577 0.0
C1351 C 0.61622 0.63981 0.41896 0.0
C1352 C 0.57626 0.56575 0.40807 0.0
C1353 C 0.5246 0.59354 0.4035 0.0
C1354 C 0.51967 0.64486 0.40672 0.0
C1355 C 0.56531 0.66781 0.4143 0.0
H1356 H 0.84391 0.72814 0.40057 0.0
H1357 H 0.0197 0.78066 0.41846 0.0
H1358 H 0.9095 0.71415 0.38336 0.0
H1359 H 0.08491 0.76986 0.40118 0.0
H1360 H 0.19264 0.65762 0.3768 0.0
H1361 H 0.12794 0.69865 0.39188 0.0
H1362 H 0.97609 0.73447 0.36789 0.0
H1363 H 0.04029 0.69017 0.35287 0.0
C1364 C 0.896 0.73895 0.40067 0.0
C1365 C 0.9268 0.7553 0.41084 0.0
C1366 C 0.93391 0.73084 0.39079 0.0
C1367 C 1.00331 0.73959 0.39086 0.0
C1368 C 0.03225 0.76099 0.40083 0.0
C1369 C 0.99472 0.76797 0.41072 0.0
C1370 C 0.14619 0.67539 0.37471 0.0
C1371 C 0.12241 0.67185 0.3636 0.0
C1372 C 0.10896 0.69936 0.38337 0.0
C1373 C 0.04643 0.72053 0.3812 0.0
C1374 C 0.02374 0.71858 0.36995 0.0
C1375 C 0.0612 0.69419 0.36126 0.0
H1376 H 0.32906 0.31942 0.16508 0.0
H1377 H 0.45767 0.44884 0.1652 0.0
H1378 H 0.39835 0.27706 0.15041 0.0
H1379 H 0.52766 0.40641 0.15071 0.0
H1380 H 0.67117 0.30527 0.1313 0.0
H1381 H 0.60523 0.33084 0.14802 0.0
H1382 H 0.4246 0.29131 0.12988 0.0
H1383 H 0.49024 0.2663 0.1132 0.0
C1384 C 0.37227 0.33868 0.16196 0.0
C1385 C 0.3881 0.38735 0.16622 0.0
C1386 C 0.41189 0.31449 0.15359 0.0
C1387 C 0.46896 0.33814 0.14949 0.0
C1388 C 0.48477 0.38681 0.15383 0.0
C1389 C 0.44436 0.41135 0.16202 0.0
C1390 C 0.6176 0.30024 0.13103 0.0
C1391 C 0.58591 0.28376 0.12093 0.0
C1392 C 0.57977 0.31557 0.14055 0.0
C1393 C 0.50965 0.31387 0.14021 0.0
C1394 C 0.47844 0.29308 0.13043 0.0
C1395 C 0.5161 0.2786 0.12088 0.0
H1396 H 0.99267 0.52826 0.16737 0.0
H1397 H 0.17356 0.47904 0.15058 0.0
H1398 H 0.92924 0.5069 0.15012 0.0
H1399 H 0.10956 0.456 0.13346 0.0
H1400 H 0.93149 0.33737 0.1212 0.0
H1401 H 1.00241 0.38036 0.13542 0.0
H1402 H 0.93429 0.523 0.12506 0.0
H1403 H 0.86445 0.47992 0.1104 0.0
C1404 C 0.01924 0.51485 0.15985 0.0
C1405 C 0.08823 0.50587 0.1603 0.0
C1406 C 0.98287 0.50242 0.15 0.0
C1407 C 0.01453 0.47965 0.1405 0.0
C1408 C 0.08412 0.4738 0.14067 0.0
C1409 C 0.12081 0.48745 0.15043 0.0
C1410 C 0.93157 0.3779 0.12189 0.0
C1411 C 0.89187 0.40517 0.1147 0.0
C1412 C 0.97264 0.40246 0.12998 0.0
C1413 C 0.9741 0.45492 0.13127 0.0
C1414 C 0.93428 0.4825 0.12417 0.0
C1415 C 0.89431 0.45784 0.11583 0.0
H1416 H 0.45102 0.31853 0.6142 0.0
H1417 H 0.32277 0.44755 0.61544 0.0
H1418 H 0.52372 0.36008 0.62838 0.0
H1419 H 0.39488 0.4891 0.62992 0.0
H1420 H 0.49657 0.49953 0.6664 0.0
H1421 H 0.42672 0.4753 0.65016 0.0
H1422 H 0.60239 0.43416 0.63083 0.0
H1423 H 0.6725 0.45875 0.64713 0.0
C1424 C 0.4383 0.35578 0.61757 0.0
C1425 C 0.38131 0.37984 0.61375 0.0
C1426 C 0.48032 0.37984 0.62559 0.0
C1427 C 0.46563 0.42819 0.6302 0.0
C1428 C 0.40769 0.4519 0.62653 0.0
C1429 C 0.36646 0.42823 0.61826 0.0
C1430 C 0.52045 0.48687 0.65856 0.0
C1431 C 0.59011 0.48099 0.65806 0.0
C1432 C 0.48035 0.47291 0.64925 0.0
C1433 C 0.50885 0.45197 0.63926 0.0
C1434 C 0.57887 0.44952 0.63848 0.0
C1435 C 0.61914 0.46425 0.64776 0.0
H1436 H 0.98524 0.2452 0.61115 0.0
H1437 H 0.17178 0.27497 0.62833 0.0
H1438 H 0.92457 0.27131 0.6283 0.0
H1439 H 0.11088 0.30154 0.64552 0.0
H1440 H 0.97555 0.42607 0.6636 0.0
H1441 H 0.04093 0.38002 0.649 0.0
H1442 H 0.89925 0.25817 0.64879 0.0
H1443 H 0.83445 0.30427 0.66355 0.0
C1444 C 0.01334 0.25558 0.61872 0.0
C1445 C 0.08339 0.25797 0.61836 0.0
C1446 C 0.97851 0.27072 0.62855 0.0
C1447 C 0.01283 0.2894 0.63822 0.0
C1448 C 0.08299 0.28801 0.63815 0.0
C1449 C 0.11793 0.27206 0.62835 0.0
C1450 C 0.95874 0.38932 0.66046 0.0
C1451 C 0.90017 0.36862 0.66469 0.0
C1452 C 0.99645 0.3627 0.65219 0.0
C1453 C 0.97564 0.31519 0.64778 0.0
C1454 C 0.91662 0.29466 0.65199 0.0
C1455 C 0.8796 0.32095 0.66043 0.0
H1456 H 0.2287 0.24618 0.54561 0.0
H1457 H 0.23138 0.39228 0.5321 0.0
H1458 H 0.24134 0.20768 0.52657 0.0
H1459 H 0.24766 0.35447 0.51332 0.0
H1460 H 0.22871 0.27038 0.47868 0.0
H1461 H 0.2099 0.31063 0.49737 0.0
H1462 H 0.31864 0.19214 0.51224 0.0
H1463 H 0.33444 0.15114 0.49361 0.0
C1464 C 0.23101 0.27015 0.53861 0.0
C1465 C 0.22882 0.32252 0.54054 0.0
C1466 C 0.23959 0.24809 0.52763 0.0
C1467 C 0.247 0.27768 0.51822 0.0
C1468 C 0.2418 0.32991 0.52016 0.0
C1469 C 0.23251 0.35182 0.53107 0.0
C1470 C 0.25012 0.25365 0.48591 0.0
C1471 C 0.28352 0.20757 0.48456 0.0
C1472 C 0.23892 0.2766 0.49673 0.0
C1473 C 0.26151 0.25452 0.50654 0.0
C1474 C 0.29834 0.20987 0.50506 0.0
C1475 C 0.30868 0.18669 0.49429 0.0
H1476 H 0.01621 0.88904 0.53479 0.0
H1477 H 0.88388 0.01624 0.53799 0.0
H1478 H 0.05213 0.91479 0.51638 0.0
H1479 H 0.92097 0.04257 0.51981 0.0
H1480 H 0.95712 0.0509 0.48226 0.0
H1481 H 0.91517 0.01794 0.49969 0.0
H1482 H 0.11641 0.98233 0.50927 0.0
H1483 H 0.15789 0.01352 0.49197 0.0
C1484 C 0.99533 0.92266 0.5316 0.0
C1485 C 0.94719 0.95051 0.53776 0.0
C1486 C 0.01571 0.93736 0.52108 0.0
C1487 C 0.98883 0.98046 0.51665 0.0
C1488 C 0.94132 1.00858 0.5229 0.0
C1489 C 0.92057 0.99367 0.53334 0.0
C1490 C 0.99214 0.03574 0.48808 0.0
C1491 C 0.06069 0.03493 0.48574 0.0
C1492 C 0.96826 0.01705 0.49804 0.0
C1493 C 0.01266 0.99754 0.5058 0.0
C1494 C 0.08092 0.99627 0.50336 0.0
C1495 C 0.10463 0.01456 0.49345 0.0
H1496 H 0.16364 0.9171 0.7474 0.0
H1497 H 0.26755 0.03381 0.73098 0.0
H1498 H 0.18712 0.95919 0.7657 0.0
H1499 H 0.29428 0.07478 0.74925 0.0
H1500 H 0.28804 0.15866 0.78388 0.0
H1501 H 0.2647 0.12012 0.7654 0.0
H1502 H 0.27038 0.9741 0.77902 0.0
H1503 H 0.28993 0.01335 0.7978 0.0
C1504 C 0.19049 0.95235 0.74769 0.0
C1505 C 0.21294 0.97222 0.73765 0.0
C1506 C 0.20534 0.9761 0.75825 0.0
C1507 C 0.24422 0.02016 0.75916 0.0
C1508 C 0.26387 0.04128 0.74906 0.0
C1509 C 0.24805 0.01789 0.73848 0.0
C1510 C 0.28559 0.11819 0.78297 0.0
C1511 C 0.29065 0.08937 0.79249 0.0
C1512 C 0.27206 0.09586 0.77225 0.0
C1513 C 0.26408 0.04367 0.77055 0.0
C1514 C 0.27389 0.01448 0.77993 0.0
C1515 C 0.28662 0.03697 0.79074 0.0
H1516 H 0.00779 0.15354 0.78684 0.0
H1517 H 0.0924 0.30012 0.79462 0.0
H1518 H 0.9837 0.17633 0.76782 0.0
H1519 H 0.06485 0.32431 0.77572 0.0
H1520 H 0.06541 0.33727 0.7378 0.0
H1521 H 0.09629 0.31095 0.75645 0.0
H1522 H 0.91368 0.22506 0.75767 0.0
H1523 H 0.88529 0.24834 0.73911 0.0
C1524 C 0.0193 0.19121 0.78457 0.0
C1525 C 0.05138 0.22523 0.79219 0.0
C1526 C 1.00577 0.20432 0.77364 0.0
C1527 C 0.0226 0.25217 0.7702 0.0
C1528 C 0.05262 0.2868 0.778 0.0
C1529 C 0.06741 0.27328 0.78887 0.0
C1530 C 0.03273 0.31202 0.742 0.0
C1531 C 0.97299 0.29503 0.73693 0.0
C1532 C 0.04991 0.29741 0.75273 0.0
C1533 C 0.00724 0.26605 0.7586 0.0
C1534 C 0.94843 0.24842 0.75337 0.0
C1535 C 0.93193 0.26222 0.74267 0.0
H1536 H 0.80336 0.76148 0.48402 0.0
H1537 H 0.79658 0.61621 0.49794 0.0
H1538 H 0.78224 0.80084 0.50274 0.0
H1539 H 0.77161 0.65483 0.51633 0.0
H1540 H 0.77229 0.74046 0.55079 0.0
H1541 H 0.79931 0.69937 0.53258 0.0
H1542 H 0.69907 0.81708 0.51595 0.0
H1543 H 0.6754 0.8593 0.53423 0.0
C1544 C 0.79862 0.73786 0.49107 0.0
C1545 C 0.80187 0.68543 0.48932 0.0
C1546 C 0.78496 0.76044 0.50184 0.0
C1547 C 0.77334 0.73134 0.51121 0.0
C1548 C 0.7804 0.6791 0.50952 0.0
C1549 C 0.79493 0.65669 0.49883 0.0
C1550 C 0.75415 0.75682 0.54327 0.0
C1551 C 0.721 0.80313 0.54407 0.0
C1552 C 0.77024 0.73335 0.53271 0.0
C1553 C 0.7528 0.75497 0.52257 0.0
C1554 C 0.71563 0.79967 0.52344 0.0
C1555 C 0.70054 0.82351 0.53399 0.0
H1556 H 0.77911 0.03081 0.22764 0.0
H1557 H 0.66595 0.91689 0.24341 0.0
H1558 H 0.80006 0.07293 0.24612 0.0
H1559 H 0.6849 0.95944 0.2618 0.0
H1560 H 0.78673 0.0096 0.29429 0.0
H1561 H 0.77071 0.97184 0.27527 0.0
H1562 H 0.7617 0.11898 0.26231 0.0
H1563 H 0.78017 0.15644 0.28115 0.0
C1564 C 0.75647 0.01576 0.235 0.0
C1565 C 0.72052 0.97047 0.23398 0.0
C1566 C 0.76908 0.03968 0.24567 0.0
C1567 C 0.74574 0.01914 0.25562 0.0
C1568 C 0.70582 0.97575 0.25446 0.0
C1569 C 0.6937 0.95176 0.24384 0.0
C1570 C 0.78311 0.03392 0.28735 0.0
C1571 C 0.78466 0.08625 0.28938 0.0
C1572 C 0.77264 0.01225 0.27641 0.0
C1573 C 0.76314 0.04218 0.26715 0.0
C1574 C 0.76873 0.09439 0.26911 0.0
C1575 C 0.77947 0.116 0.28002 0.0
H1576 H 0.14647 0.76965 0.2879 0.0
H1577 H 0.98045 0.66655 0.28918 0.0
H1578 H 0.10348 0.80013 0.27054 0.0
H1579 H 0.93829 0.69628 0.27154 0.0
H1580 H 0.84688 0.80103 0.24714 0.0
H1581 H 0.88951 0.77105 0.26458 0.0
H1582 H 0.08938 0.77153 0.25095 0.0
H1583 H 0.04677 0.80306 0.23351 0.0
C1584 C 0.10096 0.75324 0.28442 0.0
C1585 C 0.0668 0.71559 0.28984 0.0
C1586 C 0.07664 0.77054 0.27444 0.0
C1587 C 0.01796 0.75028 0.26966 0.0
C1588 C 0.98339 0.71287 0.27512 0.0
C1589 C 0.00748 0.69581 0.28518 0.0
C1590 C 0.89997 0.7947 0.24785 0.0
C1591 C 0.94367 0.80426 0.23899 0.0
C1592 C 0.92423 0.77727 0.25782 0.0
C1593 C 0.99257 0.7687 0.25907 0.0
C1594 C 0.03645 0.77841 0.25023 0.0
C1595 C 0.01218 0.79634 0.24026 0.0
H1596 H 0.22279 0.90215 0.0328 0.0
H1597 H 0.2145 0.75706 0.04676 0.0
H1598 H 0.24579 0.86322 0.01439 0.0
H1599 H 0.23267 0.7173 0.02801 0.0
H1600 H 0.33371 0.65742 0.99609 0.0
H1601 H 0.3127 0.69936 0.01449 0.0
H1602 H 0.21514 0.81968 0.99831 0.0
H1603 H 0.24009 0.77906 0.98 0.0
C1604 C 0.22364 0.86165 0.03191 0.0
C1605 C 0.21662 0.83295 0.04141 0.0
C1606 C 0.2369 0.83905 0.02122 0.0
C1607 C 0.24231 0.7867 0.01952 0.0
C1608 C 0.23105 0.75774 0.02891 0.0
C1609 C 0.21902 0.78052 0.0397 0.0
C1610 C 0.30957 0.69361 0.99648 0.0
C1611 C 0.28943 0.71504 0.98651 0.0
C1612 C 0.29611 0.71734 1.00709 0.0
C1613 C 0.26073 0.76284 1.0081 0.0
C1614 C 0.24309 0.78516 0.99806 0.0
C1615 C 0.25779 0.76189 0.98745 0.0
H1616 H 0.9887 0.60669 0.98972 0.0
H1617 H 0.13002 0.48515 0.98704 0.0
H1618 H 0.95118 0.57885 1.00782 0.0
H1619 H 0.09091 0.45612 1.0049 0.0
H1620 H 0.0567 0.45126 0.04278 0.0
H1621 H 0.09503 0.47971 0.0247 0.0
H1622 H 0.89172 0.51311 0.01584 0.0
H1623 H 0.85422 0.48707 0.03391 0.0
C1624 C 0.01068 0.57344 0.9929 0.0
C1625 C 0.06221 0.54812 0.98702 0.0
C1626 C 0.98935 0.55748 1.00326 0.0
C1627 C 0.0185 0.51546 1.00783 0.0
C1628 C 0.06857 0.48926 1.00174 0.0
C1629 C 0.09045 0.50559 0.99147 0.0
C1630 C 0.0205 0.46487 0.03696 0.0
C1631 C 0.95271 0.46736 0.03979 0.0
C1632 C 0.04225 0.48088 0.0266 0.0
C1633 C 0.99632 0.49881 0.01886 0.0
C1634 C 0.92853 0.50057 0.02169 0.0
C1635 C 0.90706 0.48536 0.03205 0.0
H1636 H 0.34554 0.59839 0.28484 0.0
H1637 H 0.22622 0.48724 0.30035 0.0
H1638 H 0.32478 0.55717 0.26636 0.0
H1639 H 0.20329 0.44655 0.28179 0.0
H1640 H 0.2174 0.36332 0.24671 0.0
H1641 H 0.23745 0.39987 0.26557 0.0
H1642 H 0.24108 0.5472 0.25262 0.0
H1643 H 0.22364 0.51016 0.23357 0.0
C1644 C 0.31603 0.56435 0.28434 0.0
C1645 C 0.28827 0.54599 0.29417 0.0
C1646 C 0.30283 0.54115 0.27366 0.0
C1647 C 0.26069 0.49896 0.27238 0.0
C1648 C 0.23607 0.4788 0.2823 0.0
C1649 C 0.24984 0.50188 0.29303 0.0
C1650 C 0.22118 0.40368 0.24784 0.0
C1651 C 0.21904 0.43354 0.23845 0.0
C1652 C 0.23286 0.4248 0.25877 0.0
C1653 C 0.24247 0.4767 0.26078 0.0
C1654 C 0.23606 0.50694 0.25148 0.0
C1655 C 0.22471 0.48573 0.24051 0.0
H1656 H 0.79 0.26811 0.98301 0.0
H1657 H 0.75738 0.12611 0.99757 0.0
H1658 H 0.77739 0.31066 1.00166 0.0
H1659 H 0.74055 0.16815 0.01584 0.0
H1660 H 0.76006 0.25262 0.05009 0.0
H1661 H 0.77772 0.20908 0.03182 0.0
H1662 H 0.70281 0.33741 0.01545 0.0
H1663 H 0.68896 0.38174 0.03377 0.0
C1664 C 0.78096 0.24581 0.99017 0.0
C1665 C 0.77512 0.19342 0.98864 0.0
C1666 C 0.77238 0.27035 1.00092 0.0
C1667 C 0.75666 0.24338 1.01047 0.0
C1668 C 0.75331 0.19085 1.00892 0.0
C1669 C 0.76294 0.16644 0.99828 0.0
C1670 C 0.7459 0.27119 0.04261 0.0
C1671 C 0.72278 0.32083 0.0435 0.0
C1672 C 0.75634 0.24614 0.03201 0.0
C1673 C 0.74288 0.26951 0.0219 0.0
C1674 C 0.71604 0.31822 0.02288 0.0
C1675 C 0.70671 0.34352 0.03347 0.0
H1676 H 0.73584 0.49348 0.7983 0.0
H1677 H 0.83557 0.61371 0.78246 0.0
H1678 H 0.7159 0.45129 0.77987 0.0
H1679 H 0.81903 0.57068 0.76406 0.0
H1680 H 0.73055 0.51071 0.73109 0.0
H1681 H 0.7425 0.55158 0.74992 0.0
H1682 H 0.75205 0.40676 0.76406 0.0
H1683 H 0.73622 0.36657 0.74551 0.0
C1684 C 0.7557 0.51008 0.79091 0.0
C1685 C 0.78777 0.55695 0.79194 0.0
C1686 C 0.74389 0.48596 0.78023 0.0
C1687 C 0.76465 0.50757 0.77023 0.0
C1688 C 0.80009 0.55318 0.77139 0.0
C1689 C 0.8109 0.57758 0.78203 0.0
C1690 C 0.73327 0.48765 0.73826 0.0
C1691 C 0.73229 0.43513 0.73664 0.0
C1692 C 0.74153 0.51111 0.74911 0.0
C1693 C 0.74986 0.48284 0.7587 0.0
C1694 C 0.74548 0.4304 0.75708 0.0
C1695 C 0.7364 0.40709 0.7463 0.0
H1696 H 0.58185 0.97971 0.98592 0.0
H1697 H 0.47787 0.12043 0.99073 0.0
H1698 H 0.54896 0.95802 1.00474 0.0
H1699 H 0.44733 0.09987 1.00972 0.0
H1700 H 0.34698 0.0216 0.03811 0.0
H1701 H 0.37925 0.04587 0.01969 0.0
H1702 H 0.5743 0.98178 0.02409 0.0
H1703 H 0.54071 0.95516 0.04259 0.0
C1704 C 0.55141 1.00576 0.99099 0.0
C1705 C 0.532 0.05158 0.98689 0.0
C1706 C 0.53348 0.9937 1.00182 0.0
C1707 C 0.49654 0.02757 1.00878 0.0
C1708 C 0.47537 0.07277 1.00453 0.0
C1709 C 0.49248 0.08448 0.99363 0.0
C1710 C 0.39703 0.01296 0.03526 0.0
C1711 C 0.44104 0.98579 0.04177 0.0
C1712 C 0.41568 0.02718 0.02467 0.0
C1713 C 0.47906 0.01533 0.02038 0.0
C1714 C 0.52447 0.99038 0.02709 0.0
C1715 C 0.50547 0.97555 0.0377 0.0
H1716 H 0.58561 0.29522 0.2942 0.0
H1717 H 0.48544 0.15293 0.28827 0.0
H1718 H 0.55319 0.3188 0.2755 0.0
H1719 H 0.45593 0.17517 0.26942 0.0
H1720 H 0.3598 0.25018 0.24057 0.0
H1721 H 0.38884 0.227 0.2592 0.0
H1722 H 0.58093 0.29893 0.25626 0.0
H1723 H 0.55012 0.32488 0.23762 0.0
C1724 C 0.55603 0.26927 0.28892 0.0
C1725 C 0.53766 0.22242 0.29266 0.0
C1726 C 0.53838 0.2824 0.27816 0.0
C1727 C 0.50294 0.24856 0.27089 0.0
C1728 C 0.48263 0.20238 0.27483 0.0
C1729 C 0.49926 0.18965 0.28565 0.0
C1730 C 0.40867 0.26075 0.24379 0.0
C1731 C 0.45262 0.28971 0.23761 0.0
C1732 C 0.42537 0.24719 0.25451 0.0
C1733 C 0.48697 0.26138 0.25927 0.0
C1734 C 0.53237 0.28841 0.25292 0.0
C1735 C 0.51516 0.30275 0.24219 0.0
H1736 H 0.46027 0.72467 0.79737 0.0
H1737 H 0.65792 0.73208 0.78297 0.0
H1738 H 0.41339 0.75317 0.77989 0.0
H1739 H 0.61136 0.75859 0.76559 0.0
H1740 H 0.51643 0.8545 0.74035 0.0
H1741 H 0.55894 0.82986 0.75834 0.0
H1742 H 0.39781 0.72302 0.76037 0.0
H1743 H 0.35397 0.74887 0.74257 0.0
C1744 C 0.49349 0.73222 0.79049 0.0
C1745 C 0.56262 0.72659 0.79156 0.0
C1746 C 0.46679 0.74827 0.78049 0.0
C1747 C 0.50889 0.75836 0.77142 0.0
C1748 C 0.57783 0.75224 0.77252 0.0
C1749 C 0.60442 0.73682 0.78248 0.0
C1750 C 0.49041 0.82553 0.7446 0.0
C1751 C 0.43215 0.80345 0.74006 0.0
C1752 C 0.51465 0.81144 0.7549 0.0
C1753 C 0.48158 0.77454 0.76074 0.0
C1754 C 0.42362 0.75217 0.75615 0.0
C1755 C 0.39896 0.76664 0.74591 0.0
H1756 H 0.53369 0.41461 0.54184 0.0
H1757 H 0.40782 0.54515 0.54566 0.0
H1758 H 0.57023 0.4402 0.52355 0.0
H1759 H 0.44652 0.5721 0.52756 0.0
H1760 H 0.46457 0.57262 0.48945 0.0
H1761 H 0.43126 0.54759 0.50807 0.0
H1762 H 0.6329 0.49965 0.51422 0.0
H1763 H 0.66507 0.52223 0.4956 0.0
C1764 C 0.5154 0.44954 0.5389 0.0
C1765 C 0.46785 0.47784 0.5451 0.0
C1766 C 0.53615 0.4642 0.52841 0.0
C1767 C 0.51053 0.50787 0.52404 0.0
C1768 C 0.46576 0.53758 0.53056 0.0
C1769 C 0.44426 0.52251 0.54097 0.0
C1770 C 0.50134 0.5562 0.49476 0.0
C1771 C 0.5671 0.54897 0.49104 0.0
C1772 C 0.48259 0.54236 0.50546 0.0
C1773 C 0.52962 0.52185 0.51264 0.0
C1774 C 0.5952 0.5145 0.50884 0.0
C1775 C 0.61359 0.52753 0.49814 0.0
loop_
_geom_bond_atom_site_label_1
_geom_bond_atom_site_label_2
_geom_bond_distance
_geom_bond_site_symmetry_2
_ccdc_geom_bond_type
C0 O12 1.241 . S
C0 O13 1.280 . S
C1 O14 1.277 . S
C1 O15 1.245 . S
C2 O26 1.247 . S
C2 O28 1.289 . S
Mg3 O4 1.926 . S
Mg3 O13 1.984 . S
Mg3 O15 1.988 . S
Mg3 O16 2.061 . S
O4 Mg3 1.926 . S
O4 Mg5 1.986 . S
O4 Mg6 1.917 . S
Mg5 O4 1.986 . S
Mg5 O12 2.042 . S
Mg5 O14 2.041 . S
Mg5 O20 2.038 . S
Mg5 O28 2.238 . S
Mg6 O4 1.917 . S
Mg6 O7 1.917 . S
Mg6 O17 2.106 . S
Mg6 O19 2.079 . S
Mg6 O28 2.106 . S
Mg6 O29 2.079 . S
O7 Mg6 1.917 . S
O7 Mg8 1.926 . S
O7 Mg9 1.986 . S
Mg8 O7 1.926 . S
Mg8 O22 1.984 . S
Mg8 O25 1.988 . S
Mg8 O26 2.061 . S
Mg9 O7 1.986 . S
Mg9 O17 2.238 . S
Mg9 O21 2.042 . S
Mg9 O23 2.041 . S
Mg9 O30 2.038 . S
C10 O16 1.247 . S
C10 O17 1.289 . S
C11 O29 1.245 . S
C11 O30 1.274 . S
O12 C0 1.241 . S
O12 Mg5 2.042 . S
O13 C0 1.280 . S
O13 Mg3 1.984 . S
O14 C1 1.277 . S
O14 Mg5 2.041 . S
O15 C1 1.245 . S
O15 Mg3 1.988 . S
O16 Mg3 2.061 . S
O16 C10 1.247 . S
O17 Mg6 2.106 . S
O17 Mg9 2.238 . S
O17 C10 1.289 . S
C18 O19 1.245 . S
C18 O20 1.274 . S
O19 Mg6 2.079 . S
O19 C18 1.245 . S
O20 Mg5 2.038 . S
O20 C18 1.274 . S
O21 Mg9 2.042 . S
O21 C24 1.241 . S
O22 Mg8 1.984 . S
O22 C24 1.280 . S
O23 Mg9 2.041 . S
O23 C27 1.277 . S
C24 O21 1.241 . S
C24 O22 1.280 . S
O25 Mg8 1.988 . S
O25 C27 1.245 . S
O26 C2 1.247 . S
O26 Mg8 2.061 . S
C27 O23 1.277 . S
C27 O25 1.245 . S
O28 C2 1.289 . S
O28 Mg5 2.238 . S
O28 Mg6 2.106 . S
O29 Mg6 2.079 . S
O29 C11 1.245 . S
O30 Mg9 2.038 . S
O30 C11 1.274 . S
C31 O43 1.241 . S
C31 O44 1.280 . S
C32 O45 1.277 . S
C32 O46 1.245 . S
C33 O57 1.247 . S
C33 O59 1.289 . S
Mg34 O35 1.926 . S
Mg34 O44 1.984 . S
Mg34 O46 1.988 . S
Mg34 O47 2.061 . S
O35 Mg34 1.926 . S
O35 Mg36 1.986 . S
O35 Mg37 1.917 . S
Mg36 O35 1.986 . S
Mg36 O43 2.042 . S
Mg36 O45 2.041 . S
Mg36 O51 2.038 . S
Mg36 O59 2.238 . S
Mg37 O35 1.917 . S
Mg37 O38 1.917 . S
Mg37 O48 2.106 . S
Mg37 O50 2.079 . S
Mg37 O59 2.106 . S
Mg37 O60 2.079 . S
O38 Mg37 1.917 . S
O38 Mg39 1.926 . S
O38 Mg40 1.986 . S
Mg39 O38 1.926 . S
Mg39 O53 1.984 . S
Mg39 O56 1.988 . S
Mg39 O57 2.061 . S
Mg40 O38 1.986 . S
Mg40 O48 2.238 . S
Mg40 O52 2.042 . S
Mg40 O54 2.041 1_545 S
Mg40 O61 2.038 . S
C41 O47 1.247 . S
C41 O48 1.289 . S
C42 O60 1.245 . S
C42 O61 1.274 . S
O43 C31 1.241 . S
O43 Mg36 2.042 . S
O44 C31 1.280 . S
O44 Mg34 1.984 . S
O45 C32 1.277 . S
O45 Mg36 2.041 . S
O46 C32 1.245 . S
O46 Mg34 1.988 . S
O47 Mg34 2.061 . S
O47 C41 1.247 . S
O48 Mg37 2.106 . S
O48 Mg40 2.238 . S
O48 C41 1.289 . S
C49 O50 1.245 . S
C49 O51 1.274 . S
O50 Mg37 2.079 . S
O50 C49 1.245 . S
O51 Mg36 2.038 . S
O51 C49 1.274 . S
O52 Mg40 2.042 . S
O52 C55 1.241 . S
O53 Mg39 1.984 . S
O53 C55 1.280 . S
O54 Mg40 2.041 1_565 S
O54 C58 1.277 . S
C55 O52 1.241 . S
C55 O53 1.280 . S
O56 Mg39 1.988 . S
O56 C58 1.245 1_545 S
O57 C33 1.247 . S
O57 Mg39 2.061 . S
C58 O54 1.277 . S
C58 O56 1.245 1_565 S
O59 C33 1.289 . S
O59 Mg36 2.238 . S
O59 Mg37 2.106 . S
O60 Mg37 2.079 . S
O60 C42 1.245 . S
O61 Mg40 2.038 . S
O61 C42 1.274 . S
C62 O74 1.241 . S
C62 O75 1.280 . S
C63 O76 1.277 . S
C63 O77 1.245 . S
C64 O88 1.247 . S
C64 O90 1.289 . S
Mg65 O66 1.926 . S
Mg65 O75 1.984 . S
Mg65 O77 1.988 . S
Mg65 O78 2.061 . S
O66 Mg65 1.926 . S
O66 Mg67 1.986 . S
O66 Mg68 1.917 . S
Mg67 O66 1.986 . S
Mg67 O74 2.042 . S
Mg67 O76 2.041 . S
Mg67 O82 2.038 . S
Mg67 O90 2.238 . S
Mg68 O66 1.917 . S
Mg68 O69 1.917 . S
Mg68 O79 2.106 . S
Mg68 O81 2.079 . S
Mg68 O90 2.106 . S
Mg68 O91 2.079 . S
O69 Mg68 1.917 . S
O69 Mg70 1.926 . S
O69 Mg71 1.986 . S
Mg70 O69 1.926 . S
Mg70 O84 1.984 . S
Mg70 O87 1.988 . S
Mg70 O88 2.061 . S
Mg71 O69 1.986 . S
Mg71 O79 2.238 . S
Mg71 O83 2.042 . S
Mg71 O85 2.041 . S
Mg71 O92 2.038 . S
C72 O78 1.247 . S
C72 O79 1.289 . S
C73 O91 1.245 . S
C73 O92 1.274 . S
O74 C62 1.241 . S
O74 Mg67 2.042 . S
O75 C62 1.280 . S
O75 Mg65 1.984 . S
O76 C63 1.277 . S
O76 Mg67 2.041 . S
O77 C63 1.245 . S
O77 Mg65 1.988 . S
O78 Mg65 2.061 . S
O78 C72 1.247 . S
O79 Mg68 2.106 . S
O79 Mg71 2.238 . S
O79 C72 1.289 . S
C80 O81 1.245 . S
C80 O82 1.274 . S
O81 Mg68 2.079 . S
O81 C80 1.245 . S
O82 Mg67 2.038 . S
O82 C80 1.274 . S
O83 Mg71 2.042 . S
O83 C86 1.241 . S
O84 Mg70 1.984 . S
O84 C86 1.280 . S
O85 Mg71 2.041 . S
O85 C89 1.277 . S
C86 O83 1.241 . S
C86 O84 1.280 . S
O87 Mg70 1.988 . S
O87 C89 1.245 . S
O88 C64 1.247 . S
O88 Mg70 2.061 . S
C89 O85 1.277 . S
C89 O87 1.245 . S
O90 C64 1.289 . S
O90 Mg67 2.238 . S
O90 Mg68 2.106 . S
O91 Mg68 2.079 . S
O91 C73 1.245 . S
O92 Mg71 2.038 . S
O92 C73 1.274 . S
C93 O105 1.241 . S
C93 O106 1.280 . S
C94 O107 1.277 . S
C94 O108 1.245 1_545 S
C95 O119 1.247 . S
C95 O121 1.289 . S
Mg96 O97 1.926 . S
Mg96 O106 1.984 . S
Mg96 O108 1.988 . S
Mg96 O109 2.061 . S
O97 Mg96 1.926 . S
O97 Mg98 1.986 . S
O97 Mg99 1.917 . S
Mg98 O97 1.986 . S
Mg98 O105 2.042 . S
Mg98 O107 2.041 1_565 S
Mg98 O113 2.038 . S
Mg98 O121 2.238 . S
Mg99 O97 1.917 . S
Mg99 O100 1.917 . S
Mg99 O110 2.106 . S
Mg99 O112 2.079 . S
Mg99 O121 2.106 . S
Mg99 O122 2.079 . S
O100 Mg99 1.917 . S
O100 Mg101 1.926 . S
O100 Mg102 1.986 . S
Mg101 O100 1.926 . S
Mg101 O115 1.984 . S
Mg101 O118 1.988 . S
Mg101 O119 2.061 . S
Mg102 O100 1.986 . S
Mg102 O110 2.238 . S
Mg102 O114 2.042 . S
Mg102 O116 2.041 . S
Mg102 O123 2.038 . S
C103 O109 1.247 . S
C103 O110 1.289 . S
C104 O122 1.245 . S
C104 O123 1.274 . S
O105 C93 1.241 . S
O105 Mg98 2.042 . S
O106 C93 1.280 . S
O106 Mg96 1.984 . S
O107 C94 1.277 . S
O107 Mg98 2.041 1_545 S
O108 C94 1.245 1_565 S
O108 Mg96 1.988 . S
O109 Mg96 2.061 . S
O109 C103 1.247 . S
O110 Mg99 2.106 . S
O110 Mg102 2.238 . S
O110 C103 1.289 . S
C111 O112 1.245 . S
C111 O113 1.274 . S
O112 Mg99 2.079 . S
O112 C111 1.245 . S
O113 Mg98 2.038 . S
O113 C111 1.274 . S
O114 Mg102 2.042 . S
O114 C117 1.241 . S
O115 Mg101 1.984 . S
O115 C117 1.280 . S
O116 Mg102 2.041 . S
O116 C120 1.277 . S
C117 O114 1.241 . S
C117 O115 1.280 . S
O118 Mg101 1.988 . S
O118 C120 1.245 . S
O119 C95 1.247 . S
O119 Mg101 2.061 . S
C120 O116 1.277 . S
C120 O118 1.245 . S
O121 C95 1.289 . S
O121 Mg98 2.238 . S
O121 Mg99 2.106 . S
O122 Mg99 2.079 . S
O122 C104 1.245 . S
O123 Mg102 2.038 . S
O123 C104 1.274 . S
C124 O136 1.241 . S
C124 O137 1.280 . S
C125 O138 1.277 . S
C125 O139 1.245 . S
C126 O150 1.247 . S
C126 O152 1.289 . S
Mg127 O128 1.926 . S
Mg127 O137 1.984 . S
Mg127 O139 1.988 . S
Mg127 O140 2.061 . S
O128 Mg127 1.926 . S
O128 Mg129 1.986 . S
O128 Mg130 1.917 . S
Mg129 O128 1.986 . S
Mg129 O136 2.042 . S
Mg129 O138 2.041 . S
Mg129 O144 2.038 . S
Mg129 O152 2.238 . S
Mg130 O128 1.917 . S
Mg130 O131 1.917 . S
Mg130 O141 2.106 . S
Mg130 O143 2.079 . S
Mg130 O152 2.106 . S
Mg130 O153 2.079 . S
O131 Mg130 1.917 . S
O131 Mg132 1.926 . S
O131 Mg133 1.986 . S
Mg132 O131 1.926 . S
Mg132 O146 1.984 . S
Mg132 O149 1.988 . S
Mg132 O150 2.061 . S
Mg133 O131 1.986 . S
Mg133 O141 2.238 . S
Mg133 O145 2.042 . S
Mg133 O147 2.041 . S
Mg133 O154 2.038 . S
C134 O140 1.247 . S
C134 O141 1.289 . S
C135 O153 1.245 . S
C135 O154 1.274 . S
O136 C124 1.241 . S
O136 Mg129 2.042 . S
O137 C124 1.280 . S
O137 Mg127 1.984 . S
O138 C125 1.277 . S
O138 Mg129 2.041 . S
O139 C125 1.245 . S
O139 Mg127 1.988 . S
O140 Mg127 2.061 . S
O140 C134 1.247 . S
O141 Mg130 2.106 . S
O141 Mg133 2.238 . S
O141 C134 1.289 . S
C142 O143 1.245 . S
C142 O144 1.274 . S
O143 Mg130 2.079 . S
O143 C142 1.245 . S
O144 Mg129 2.038 . S
O144 C142 1.274 . S
O145 Mg133 2.042 . S
O145 C148 1.241 . S
O146 Mg132 1.984 . S
O146 C148 1.280 . S
O147 Mg133 2.041 . S
O147 C151 1.277 . S
C148 O145 1.241 . S
C148 O146 1.280 . S
O149 Mg132 1.988 . S
O149 C151 1.245 . S
O150 C126 1.247 . S
O150 Mg132 2.061 . S
C151 O147 1.277 . S
C151 O149 1.245 . S
O152 C126 1.289 . S
O152 Mg129 2.238 . S
O152 Mg130 2.106 . S
O153 Mg130 2.079 . S
O153 C135 1.245 . S
O154 Mg133 2.038 . S
O154 C135 1.274 . S
C155 O167 1.241 . S
C155 O168 1.280 . S
C156 O169 1.277 . S
C156 O170 1.245 . S
C157 O181 1.247 . S
C157 O183 1.289 . S
Mg158 O159 1.926 . S
Mg158 O168 1.984 . S
Mg158 O170 1.988 . S
Mg158 O171 2.061 . S
O159 Mg158 1.926 . S
O159 Mg160 1.986 . S
O159 Mg161 1.917 . S
Mg160 O159 1.986 . S
Mg160 O167 2.042 . S
Mg160 O169 2.041 . S
Mg160 O175 2.038 . S
Mg160 O183 2.238 . S
Mg161 O159 1.917 . S
Mg161 O162 1.917 . S
Mg161 O172 2.106 . S
Mg161 O174 2.079 . S
Mg161 O183 2.106 . S
Mg161 O184 2.079 . S
O162 Mg161 1.917 . S
O162 Mg163 1.926 . S
O162 Mg164 1.986 . S
Mg163 O162 1.926 . S
Mg163 O177 1.984 . S
Mg163 O180 1.988 . S
Mg163 O181 2.061 . S
Mg164 O162 1.986 . S
Mg164 O172 2.238 . S
Mg164 O176 2.042 . S
Mg164 O178 2.041 . S
Mg164 O185 2.038 . S
C165 O171 1.247 . S
C165 O172 1.289 . S
C166 O184 1.245 . S
C166 O185 1.274 . S
O167 C155 1.241 . S
O167 Mg160 2.042 . S
O168 C155 1.280 . S
O168 Mg158 1.984 . S
O169 C156 1.277 . S
O169 Mg160 2.041 . S
O170 C156 1.245 . S
O170 Mg158 1.988 . S
O171 Mg158 2.061 . S
O171 C165 1.247 . S
O172 Mg161 2.106 . S
O172 Mg164 2.238 . S
O172 C165 1.289 . S
C173 O174 1.245 . S
C173 O175 1.274 . S
O174 Mg161 2.079 . S
O174 C173 1.245 . S
O175 Mg160 2.038 . S
O175 C173 1.274 . S
O176 Mg164 2.042 . S
O176 C179 1.241 . S
O177 Mg163 1.984 . S
O177 C179 1.280 . S
O178 Mg164 2.041 . S
O178 C182 1.277 . S
C179 O176 1.241 . S
C179 O177 1.280 . S
O180 Mg163 1.988 . S
O180 C182 1.245 . S
O181 C157 1.247 . S
O181 Mg163 2.061 . S
C182 O178 1.277 . S
C182 O180 1.245 . S
O183 C157 1.289 . S
O183 Mg160 2.238 . S
O183 Mg161 2.106 . S
O184 Mg161 2.079 . S
O184 C166 1.245 . S
O185 Mg164 2.038 . S
O185 C166 1.274 . S
C186 O198 1.241 . S
C186 O199 1.280 . S
C187 O200 1.277 . S
C187 O201 1.245 . S
C188 O212 1.247 . S
C188 O214 1.289 . S
Mg189 O190 1.926 . S
Mg189 O199 1.984 . S
Mg189 O201 1.988 . S
Mg189 O202 2.061 . S
O190 Mg189 1.926 . S
O190 Mg191 1.986 . S
O190 Mg192 1.917 . S
Mg191 O190 1.986 . S
Mg191 O198 2.042 . S
Mg191 O200 2.041 . S
Mg191 O206 2.038 . S
Mg191 O214 2.238 . S
Mg192 O190 1.917 . S
Mg192 O193 1.917 . S
Mg192 O203 2.106 . S
Mg192 O205 2.079 . S
Mg192 O214 2.106 . S
Mg192 O215 2.079 . S
O193 Mg192 1.917 . S
O193 Mg194 1.926 . S
O193 Mg195 1.986 . S
Mg194 O193 1.926 . S
Mg194 O208 1.984 . S
Mg194 O211 1.988 . S
Mg194 O212 2.061 . S
Mg195 O193 1.986 . S
Mg195 O203 2.238 . S
Mg195 O207 2.042 . S
Mg195 O209 2.041 . S
Mg195 O216 2.038 . S
C196 O202 1.247 . S
C196 O203 1.289 . S
C197 O215 1.245 . S
C197 O216 1.274 . S
O198 C186 1.241 . S
O198 Mg191 2.042 . S
O199 C186 1.280 . S
O199 Mg189 1.984 . S
O200 C187 1.277 . S
O200 Mg191 2.041 . S
O201 C187 1.245 . S
O201 Mg189 1.988 . S
O202 Mg189 2.061 . S
O202 C196 1.247 . S
O203 Mg192 2.106 . S
O203 Mg195 2.238 . S
O203 C196 1.289 . S
C204 O205 1.245 . S
C204 O206 1.274 . S
O205 Mg192 2.079 . S
O205 C204 1.245 . S
O206 Mg191 2.038 . S
O206 C204 1.274 . S
O207 Mg195 2.042 . S
O207 C210 1.241 . S
O208 Mg194 1.984 . S
O208 C210 1.280 . S
O209 Mg195 2.041 . S
O209 C213 1.277 . S
C210 O207 1.241 . S
C210 O208 1.280 . S
O211 Mg194 1.988 . S
O211 C213 1.245 . S
O212 C188 1.247 . S
O212 Mg194 2.061 . S
C213 O209 1.277 . S
C213 O211 1.245 . S
O214 C188 1.289 . S
O214 Mg191 2.238 . S
O214 Mg192 2.106 . S
O215 Mg192 2.079 . S
O215 C197 1.245 . S
O216 Mg195 2.038 . S
O216 C197 1.274 . S
C217 O229 1.241 . S
C217 O230 1.280 . S
C218 O231 1.277 . S
C218 O232 1.245 . S
C219 O243 1.247 . S
C219 O245 1.289 . S
Mg220 O221 1.926 . S
Mg220 O230 1.984 . S
Mg220 O232 1.988 . S
Mg220 O233 2.061 . S
O221 Mg220 1.926 . S
O221 Mg222 1.986 . S
O221 Mg223 1.917 . S
Mg222 O221 1.986 . S
Mg222 O229 2.042 . S
Mg222 O231 2.041 . S
Mg222 O237 2.038 . S
Mg222 O245 2.238 . S
Mg223 O221 1.917 . S
Mg223 O224 1.917 . S
Mg223 O234 2.106 . S
Mg223 O236 2.079 . S
Mg223 O245 2.106 . S
Mg223 O246 2.079 . S
O224 Mg223 1.917 . S
O224 Mg225 1.926 . S
O224 Mg226 1.986 . S
Mg225 O224 1.926 . S
Mg225 O239 1.984 . S
Mg225 O242 1.988 . S
Mg225 O243 2.061 . S
Mg226 O224 1.986 . S
Mg226 O234 2.238 . S
Mg226 O238 2.042 . S
Mg226 O240 2.041 . S
Mg226 O247 2.038 . S
C227 O233 1.247 . S
C227 O234 1.289 . S
C228 O246 1.245 . S
C228 O247 1.274 . S
O229 C217 1.241 . S
O229 Mg222 2.042 . S
O230 C217 1.280 . S
O230 Mg220 1.984 . S
O231 C218 1.277 . S
O231 Mg222 2.041 . S
O232 C218 1.245 . S
O232 Mg220 1.988 . S
O233 Mg220 2.061 . S
O233 C227 1.247 . S
O234 Mg223 2.106 . S
O234 Mg226 2.238 . S
O234 C227 1.289 . S
C235 O236 1.245 . S
C235 O237 1.274 . S
O236 Mg223 2.079 . S
O236 C235 1.245 . S
O237 Mg222 2.038 . S
O237 C235 1.274 . S
O238 Mg226 2.042 . S
O238 C241 1.241 . S
O239 Mg225 1.984 . S
O239 C241 1.280 . S
O240 Mg226 2.041 . S
O240 C244 1.277 . S
C241 O238 1.241 . S
C241 O239 1.280 . S
O242 Mg225 1.988 . S
O242 C244 1.245 . S
O243 C219 1.247 . S
O243 Mg225 2.061 . S
C244 O240 1.277 . S
C244 O242 1.245 . S
O245 C219 1.289 . S
O245 Mg222 2.238 . S
O245 Mg223 2.106 . S
O246 Mg223 2.079 . S
O246 C228 1.245 . S
O247 Mg226 2.038 . S
O247 C228 1.274 . S
C248 O260 1.241 . S
C248 O261 1.280 . S
C249 O262 1.277 . S
C249 O263 1.245 . S
C250 O274 1.247 . S
C250 O276 1.289 . S
Mg251 O252 1.926 . S
Mg251 O261 1.984 . S
Mg251 O263 1.988 . S
Mg251 O264 2.061 . S
O252 Mg251 1.926 . S
O252 Mg253 1.986 . S
O252 Mg254 1.917 . S
Mg253 O252 1.986 . S
Mg253 O260 2.042 . S
Mg253 O262 2.041 . S
Mg253 O268 2.038 . S
Mg253 O276 2.238 . S
Mg254 O252 1.917 . S
Mg254 O255 1.917 . S
Mg254 O265 2.106 . S
Mg254 O267 2.079 . S
Mg254 O276 2.106 . S
Mg254 O277 2.079 . S
O255 Mg254 1.917 . S
O255 Mg256 1.926 . S
O255 Mg257 1.986 . S
Mg256 O255 1.926 . S
Mg256 O270 1.984 . S
Mg256 O273 1.988 . S
Mg256 O274 2.061 . S
Mg257 O255 1.986 . S
Mg257 O265 2.238 . S
Mg257 O269 2.042 . S
Mg257 O271 2.041 . S
Mg257 O278 2.038 . S
C258 O264 1.247 . S
C258 O265 1.289 . S
C259 O277 1.245 . S
C259 O278 1.274 . S
O260 C248 1.241 . S
O260 Mg253 2.042 . S
O261 C248 1.280 . S
O261 Mg251 1.984 . S
O262 C249 1.277 . S
O262 Mg253 2.041 . S
O263 C249 1.245 . S
O263 Mg251 1.988 . S
O264 Mg251 2.061 . S
O264 C258 1.247 . S
O265 Mg254 2.106 . S
O265 Mg257 2.238 . S
O265 C258 1.289 . S
C266 O267 1.245 . S
C266 O268 1.274 . S
O267 Mg254 2.079 . S
O267 C266 1.245 . S
O268 Mg253 2.038 . S
O268 C266 1.274 . S
O269 Mg257 2.042 . S
O269 C272 1.241 . S
O270 Mg256 1.984 . S
O270 C272 1.280 . S
O271 Mg257 2.041 . S
O271 C275 1.277 . S
C272 O269 1.241 . S
C272 O270 1.280 . S
O273 Mg256 1.988 . S
O273 C275 1.245 . S
O274 C250 1.247 . S
O274 Mg256 2.061 . S
C275 O271 1.277 . S
C275 O273 1.245 . S
O276 C250 1.289 . S
O276 Mg253 2.238 . S
O276 Mg254 2.106 . S
O277 Mg254 2.079 . S
O277 C259 1.245 . S
O278 Mg257 2.038 . S
O278 C259 1.274 . S
C279 O291 1.241 . S
C279 O292 1.280 . S
C280 O293 1.277 . S
C280 O294 1.245 . S
C281 O305 1.247 . S
C281 O307 1.289 . S
Mg282 O283 1.926 . S
Mg282 O292 1.984 . S
Mg282 O294 1.988 . S
Mg282 O295 2.061 . S
O283 Mg282 1.926 . S
O283 Mg284 1.986 . S
O283 Mg285 1.917 . S
Mg284 O283 1.986 . S
Mg284 O291 2.042 . S
Mg284 O293 2.041 . S
Mg284 O299 2.038 . S
Mg284 O307 2.238 . S
Mg285 O283 1.917 . S
Mg285 O286 1.917 . S
Mg285 O296 2.106 . S
Mg285 O298 2.079 . S
Mg285 O307 2.106 . S
Mg285 O308 2.079 . S
O286 Mg285 1.917 . S
O286 Mg287 1.926 . S
O286 Mg288 1.986 . S
Mg287 O286 1.926 . S
Mg287 O301 1.984 . S
Mg287 O304 1.988 . S
Mg287 O305 2.061 . S
Mg288 O286 1.986 . S
Mg288 O296 2.238 . S
Mg288 O300 2.042 . S
Mg288 O302 2.041 1_545 S
Mg288 O309 2.038 . S
C289 O295 1.247 . S
C289 O296 1.289 . S
C290 O308 1.245 . S
C290 O309 1.274 . S
O291 C279 1.241 . S
O291 Mg284 2.042 . S
O292 C279 1.280 . S
O292 Mg282 1.984 . S
O293 C280 1.277 . S
O293 Mg284 2.041 . S
O294 C280 1.245 . S
O294 Mg282 1.988 . S
O295 Mg282 2.061 . S
O295 C289 1.247 . S
O296 Mg285 2.106 . S
O296 Mg288 2.238 . S
O296 C289 1.289 . S
C297 O298 1.245 . S
C297 O299 1.274 . S
O298 Mg285 2.079 . S
O298 C297 1.245 . S
O299 Mg284 2.038 . S
O299 C297 1.274 . S
O300 Mg288 2.042 . S
O300 C303 1.241 . S
O301 Mg287 1.984 . S
O301 C303 1.280 . S
O302 Mg288 2.041 1_565 S
O302 C306 1.277 . S
C303 O300 1.241 . S
C303 O301 1.280 . S
O304 Mg287 1.988 . S
O304 C306 1.245 1_545 S
O305 C281 1.247 . S
O305 Mg287 2.061 . S
C306 O302 1.277 . S
C306 O304 1.245 1_565 S
O307 C281 1.289 . S
O307 Mg284 2.238 . S
O307 Mg285 2.106 . S
O308 Mg285 2.079 . S
O308 C290 1.245 . S
O309 Mg288 2.038 . S
O309 C290 1.274 . S
C310 O322 1.241 . S
C310 O323 1.280 . S
C311 O324 1.277 . S
C311 O325 1.245 . S
C312 O336 1.247 . S
C312 O338 1.289 . S
Mg313 O314 1.926 . S
Mg313 O323 1.984 . S
Mg313 O325 1.988 . S
Mg313 O326 2.061 . S
O314 Mg313 1.926 . S
O314 Mg315 1.986 . S
O314 Mg316 1.917 . S
Mg315 O314 1.986 . S
Mg315 O322 2.042 . S
Mg315 O324 2.041 . S
Mg315 O330 2.038 . S
Mg315 O338 2.238 . S
Mg316 O314 1.917 . S
Mg316 O317 1.917 . S
Mg316 O327 2.106 . S
Mg316 O329 2.079 . S
Mg316 O338 2.106 . S
Mg316 O339 2.079 . S
O317 Mg316 1.917 . S
O317 Mg318 1.926 . S
O317 Mg319 1.986 . S
Mg318 O317 1.926 . S
Mg318 O332 1.984 . S
Mg318 O335 1.988 . S
Mg318 O336 2.061 . S
Mg319 O317 1.986 . S
Mg319 O327 2.238 . S
Mg319 O331 2.042 . S
Mg319 O333 2.041 . S
Mg319 O340 2.038 . S
C320 O326 1.247 . S
C320 O327 1.289 . S
C321 O339 1.245 . S
C321 O340 1.274 . S
O322 C310 1.241 . S
O322 Mg315 2.042 . S
O323 C310 1.280 . S
O323 Mg313 1.984 . S
O324 C311 1.277 . S
O324 Mg315 2.041 . S
O325 C311 1.245 . S
O325 Mg313 1.988 . S
O326 Mg313 2.061 . S
O326 C320 1.247 . S
O327 Mg316 2.106 . S
O327 Mg319 2.238 . S
O327 C320 1.289 . S
C328 O329 1.245 . S
C328 O330 1.274 . S
O329 Mg316 2.079 . S
O329 C328 1.245 . S
O330 Mg315 2.038 . S
O330 C328 1.274 . S
O331 Mg319 2.042 . S
O331 C334 1.241 . S
O332 Mg318 1.984 . S
O332 C334 1.280 . S
O333 Mg319 2.041 . S
O333 C337 1.277 . S
C334 O331 1.241 . S
C334 O332 1.280 . S
O335 Mg318 1.988 . S
O335 C337 1.245 . S
O336 C312 1.247 . S
O336 Mg318 2.061 . S
C337 O333 1.277 . S
C337 O335 1.245 . S
O338 C312 1.289 . S
O338 Mg315 2.238 . S
O338 Mg316 2.106 . S
O339 Mg316 2.079 . S
O339 C321 1.245 . S
O340 Mg319 2.038 . S
O340 C321 1.274 . S
C341 O353 1.241 . S
C341 O354 1.280 . S
C342 O355 1.277 . S
C342 O356 1.245 1_545 S
C343 O367 1.247 . S
C343 O369 1.289 . S
Mg344 O345 1.926 . S
Mg344 O354 1.984 . S
Mg344 O356 1.988 . S
Mg344 O357 2.061 . S
O345 Mg344 1.926 . S
O345 Mg346 1.986 . S
O345 Mg347 1.917 . S
Mg346 O345 1.986 . S
Mg346 O353 2.042 . S
Mg346 O355 2.041 1_565 S
Mg346 O361 2.038 . S
Mg346 O369 2.238 . S
Mg347 O345 1.917 . S
Mg347 O348 1.917 . S
Mg347 O358 2.106 . S
Mg347 O360 2.079 . S
Mg347 O369 2.106 . S
Mg347 O370 2.079 . S
O348 Mg347 1.917 . S
O348 Mg349 1.926 . S
O348 Mg350 1.986 . S
Mg349 O348 1.926 . S
Mg349 O363 1.984 . S
Mg349 O366 1.988 . S
Mg349 O367 2.061 . S
Mg350 O348 1.986 . S
Mg350 O358 2.238 . S
Mg350 O362 2.042 . S
Mg350 O364 2.041 . S
Mg350 O371 2.038 . S
C351 O357 1.247 . S
C351 O358 1.289 . S
C352 O370 1.245 . S
C352 O371 1.274 . S
O353 C341 1.241 . S
O353 Mg346 2.042 . S
O354 C341 1.280 . S
O354 Mg344 1.984 . S
O355 C342 1.277 . S
O355 Mg346 2.041 1_545 S
O356 C342 1.245 1_565 S
O356 Mg344 1.988 . S
O357 Mg344 2.061 . S
O357 C351 1.247 . S
O358 Mg347 2.106 . S
O358 Mg350 2.238 . S
O358 C351 1.289 . S
C359 O360 1.245 . S
C359 O361 1.274 . S
O360 Mg347 2.079 . S
O360 C359 1.245 . S
O361 Mg346 2.038 . S
O361 C359 1.274 . S
O362 Mg350 2.042 . S
O362 C365 1.241 . S
O363 Mg349 1.984 . S
O363 C365 1.280 . S
O364 Mg350 2.041 . S
O364 C368 1.277 . S
C365 O362 1.241 . S
C365 O363 1.280 . S
O366 Mg349 1.988 . S
O366 C368 1.245 . S
O367 C343 1.247 . S
O367 Mg349 2.061 . S
C368 O364 1.277 . S
C368 O366 1.245 . S
O369 C343 1.289 . S
O369 Mg346 2.238 . S
O369 Mg347 2.106 . S
O370 Mg347 2.079 . S
O370 C352 1.245 . S
O371 Mg350 2.038 . S
O371 C352 1.274 . S
C372 O384 1.241 . S
C372 O385 1.280 . S
C373 O386 1.277 . S
C373 O387 1.245 . S
C374 O398 1.247 . S
C374 O400 1.289 . S
Mg375 O376 1.926 . S
Mg375 O385 1.984 . S
Mg375 O387 1.988 . S
Mg375 O388 2.061 . S
O376 Mg375 1.926 . S
O376 Mg377 1.986 . S
O376 Mg378 1.917 . S
Mg377 O376 1.986 . S
Mg377 O384 2.042 . S
Mg377 O386 2.041 . S
Mg377 O392 2.038 . S
Mg377 O400 2.238 . S
Mg378 O376 1.917 . S
Mg378 O379 1.917 . S
Mg378 O389 2.106 . S
Mg378 O391 2.079 . S
Mg378 O400 2.106 . S
Mg378 O401 2.079 . S
O379 Mg378 1.917 . S
O379 Mg380 1.926 . S
O379 Mg381 1.986 . S
Mg380 O379 1.926 . S
Mg380 O394 1.984 . S
Mg380 O397 1.988 . S
Mg380 O398 2.061 . S
Mg381 O379 1.986 . S
Mg381 O389 2.238 . S
Mg381 O393 2.042 . S
Mg381 O395 2.041 . S
Mg381 O402 2.038 . S
C382 O388 1.247 . S
C382 O389 1.289 . S
C383 O401 1.245 . S
C383 O402 1.274 . S
O384 C372 1.241 . S
O384 Mg377 2.042 . S
O385 C372 1.280 . S
O385 Mg375 1.984 . S
O386 C373 1.277 . S
O386 Mg377 2.041 . S
O387 C373 1.245 . S
O387 Mg375 1.988 . S
O388 Mg375 2.061 . S
O388 C382 1.247 . S
O389 Mg378 2.106 . S
O389 Mg381 2.238 . S
O389 C382 1.289 . S
C390 O391 1.245 . S
C390 O392 1.274 . S
O391 Mg378 2.079 . S
O391 C390 1.245 . S
O392 Mg377 2.038 . S
O392 C390 1.274 . S
O393 Mg381 2.042 . S
O393 C396 1.241 . S
O394 Mg380 1.984 . S
O394 C396 1.280 . S
O395 Mg381 2.041 . S
O395 C399 1.277 . S
C396 O393 1.241 . S
C396 O394 1.280 . S
O397 Mg380 1.988 . S
O397 C399 1.245 . S
O398 C374 1.247 . S
O398 Mg380 2.061 . S
C399 O395 1.277 . S
C399 O397 1.245 . S
O400 C374 1.289 . S
O400 Mg377 2.238 . S
O400 Mg378 2.106 . S
O401 Mg378 2.079 . S
O401 C383 1.245 . S
O402 Mg381 2.038 . S
O402 C383 1.274 . S
C403 O415 1.241 . S
C403 O416 1.280 . S
C404 O417 1.277 . S
C404 O418 1.245 . S
C405 O429 1.247 . S
C405 O431 1.289 . S
Mg406 O407 1.926 . S
Mg406 O416 1.984 . S
Mg406 O418 1.988 . S
Mg406 O419 2.061 . S
O407 Mg406 1.926 . S
O407 Mg408 1.986 . S
O407 Mg409 1.917 . S
Mg408 O407 1.986 . S
Mg408 O415 2.042 . S
Mg408 O417 2.041 . S
Mg408 O423 2.038 . S
Mg408 O431 2.238 . S
Mg409 O407 1.917 . S
Mg409 O410 1.917 . S
Mg409 O420 2.106 . S
Mg409 O422 2.079 . S
Mg409 O431 2.106 . S
Mg409 O432 2.079 . S
O410 Mg409 1.917 . S
O410 Mg411 1.926 . S
O410 Mg412 1.986 . S
Mg411 O410 1.926 . S
Mg411 O425 1.984 . S
Mg411 O428 1.988 . S
Mg411 O429 2.061 . S
Mg412 O410 1.986 . S
Mg412 O420 2.238 . S
Mg412 O424 2.042 . S
Mg412 O426 2.041 . S
Mg412 O433 2.038 . S
C413 O419 1.247 . S
C413 O420 1.289 . S
C414 O432 1.245 . S
C414 O433 1.274 . S
O415 C403 1.241 . S
O415 Mg408 2.042 . S
O416 C403 1.280 . S
O416 Mg406 1.984 . S
O417 C404 1.277 . S
O417 Mg408 2.041 . S
O418 C404 1.245 . S
O418 Mg406 1.988 . S
O419 Mg406 2.061 . S
O419 C413 1.247 . S
O420 Mg409 2.106 . S
O420 Mg412 2.238 . S
O420 C413 1.289 . S
C421 O422 1.245 . S
C421 O423 1.274 . S
O422 Mg409 2.079 . S
O422 C421 1.245 . S
O423 Mg408 2.038 . S
O423 C421 1.274 . S
O424 Mg412 2.042 . S
O424 C427 1.241 . S
O425 Mg411 1.984 . S
O425 C427 1.280 . S
O426 Mg412 2.041 . S
O426 C430 1.277 . S
C427 O424 1.241 . S
C427 O425 1.280 . S
O428 Mg411 1.988 . S
O428 C430 1.245 . S
O429 C405 1.247 . S
O429 Mg411 2.061 . S
C430 O426 1.277 . S
C430 O428 1.245 . S
O431 C405 1.289 . S
O431 Mg408 2.238 . S
O431 Mg409 2.106 . S
O432 Mg409 2.079 . S
O432 C414 1.245 . S
O433 Mg412 2.038 . S
O433 C414 1.274 . S
C434 O446 1.241 . S
C434 O447 1.280 . S
C435 O448 1.277 . S
C435 O449 1.245 . S
C436 O460 1.247 . S
C436 O462 1.289 . S
Mg437 O438 1.926 . S
Mg437 O447 1.984 . S
Mg437 O449 1.988 . S
Mg437 O450 2.061 . S
O438 Mg437 1.926 . S
O438 Mg439 1.986 . S
O438 Mg440 1.917 . S
Mg439 O438 1.986 . S
Mg439 O446 2.042 . S
Mg439 O448 2.041 . S
Mg439 O454 2.038 . S
Mg439 O462 2.238 . S
Mg440 O438 1.917 . S
Mg440 O441 1.917 . S
Mg440 O451 2.106 . S
Mg440 O453 2.079 . S
Mg440 O462 2.106 . S
Mg440 O463 2.079 . S
O441 Mg440 1.917 . S
O441 Mg442 1.926 . S
O441 Mg443 1.986 . S
Mg442 O441 1.926 . S
Mg442 O456 1.984 . S
Mg442 O459 1.988 . S
Mg442 O460 2.061 . S
Mg443 O441 1.986 . S
Mg443 O451 2.238 . S
Mg443 O455 2.042 . S
Mg443 O457 2.041 . S
Mg443 O464 2.038 . S
C444 O450 1.247 . S
C444 O451 1.289 . S
C445 O463 1.245 . S
C445 O464 1.274 . S
O446 C434 1.241 . S
O446 Mg439 2.042 . S
O447 C434 1.280 . S
O447 Mg437 1.984 . S
O448 C435 1.277 . S
O448 Mg439 2.041 . S
O449 C435 1.245 . S
O449 Mg437 1.988 . S
O450 Mg437 2.061 . S
O450 C444 1.247 . S
O451 Mg440 2.106 . S
O451 Mg443 2.238 . S
O451 C444 1.289 . S
C452 O453 1.245 . S
C452 O454 1.274 . S
O453 Mg440 2.079 . S
O453 C452 1.245 . S
O454 Mg439 2.038 . S
O454 C452 1.274 . S
O455 Mg443 2.042 . S
O455 C458 1.241 . S
O456 Mg442 1.984 . S
O456 C458 1.280 . S
O457 Mg443 2.041 . S
O457 C461 1.277 . S
C458 O455 1.241 . S
C458 O456 1.280 . S
O459 Mg442 1.988 . S
O459 C461 1.245 . S
O460 C436 1.247 . S
O460 Mg442 2.061 . S
C461 O457 1.277 . S
C461 O459 1.245 . S
O462 C436 1.289 . S
O462 Mg439 2.238 . S
O462 Mg440 2.106 . S
O463 Mg440 2.079 . S
O463 C445 1.245 . S
O464 Mg443 2.038 . S
O464 C445 1.274 . S
C465 O477 1.241 . S
C465 O478 1.280 . S
C466 O479 1.277 . S
C466 O480 1.245 . S
C467 O491 1.247 . S
C467 O493 1.289 . S
Mg468 O469 1.926 . S
Mg468 O478 1.984 . S
Mg468 O480 1.988 . S
Mg468 O481 2.061 . S
O469 Mg468 1.926 . S
O469 Mg470 1.986 . S
O469 Mg471 1.917 . S
Mg470 O469 1.986 . S
Mg470 O477 2.042 . S
Mg470 O479 2.041 . S
Mg470 O485 2.038 . S
Mg470 O493 2.238 . S
Mg471 O469 1.917 . S
Mg471 O472 1.917 . S
Mg471 O482 2.106 . S
Mg471 O484 2.079 . S
Mg471 O493 2.106 . S
Mg471 O494 2.079 . S
O472 Mg471 1.917 . S
O472 Mg473 1.926 . S
O472 Mg474 1.986 . S
Mg473 O472 1.926 . S
Mg473 O487 1.984 . S
Mg473 O490 1.988 . S
Mg473 O491 2.061 . S
Mg474 O472 1.986 . S
Mg474 O482 2.238 . S
Mg474 O486 2.042 . S
Mg474 O488 2.041 . S
Mg474 O495 2.038 . S
C475 O481 1.247 . S
C475 O482 1.289 . S
C476 O494 1.245 . S
C476 O495 1.274 . S
O477 C465 1.241 . S
O477 Mg470 2.042 . S
O478 C465 1.280 . S
O478 Mg468 1.984 . S
O479 C466 1.277 . S
O479 Mg470 2.041 . S
O480 C466 1.245 . S
O480 Mg468 1.988 . S
O481 Mg468 2.061 . S
O481 C475 1.247 . S
O482 Mg471 2.106 . S
O482 Mg474 2.238 . S
O482 C475 1.289 . S
C483 O484 1.245 . S
C483 O485 1.274 . S
O484 Mg471 2.079 . S
O484 C483 1.245 . S
O485 Mg470 2.038 . S
O485 C483 1.274 . S
O486 Mg474 2.042 . S
O486 C489 1.241 . S
O487 Mg473 1.984 . S
O487 C489 1.280 . S
O488 Mg474 2.041 . S
O488 C492 1.277 . S
C489 O486 1.241 . S
C489 O487 1.280 . S
O490 Mg473 1.988 . S
O490 C492 1.245 . S
O491 C467 1.247 . S
O491 Mg473 2.061 . S
C492 O488 1.277 . S
C492 O490 1.245 . S
O493 C467 1.289 . S
O493 Mg470 2.238 . S
O493 Mg471 2.106 . S
O494 Mg471 2.079 . S
O494 C476 1.245 . S
O495 Mg474 2.038 . S
O495 C476 1.274 . S
H496 C504 0.950 . S
H497 C509 0.950 . S
H498 C506 0.950 . S
H499 C508 0.950 . S
H500 C510 0.950 . S
H501 C512 0.950 . S
H502 C514 0.950 . S
H503 C515 0.950 . S
C504 H496 0.950 . S
C504 C505 1.386 . S
C504 C506 1.391 . S
C505 C504 1.386 . S
C505 C509 1.393 . S
C506 H498 0.950 . S
C506 C504 1.391 . S
C506 C507 1.400 . S
C507 C506 1.400 . S
C507 C508 1.398 . S
C507 C513 1.491 . S
C508 H499 0.950 . S
C508 C507 1.398 . S
C508 C509 1.391 . S
C509 H497 0.950 . S
C509 C505 1.393 . S
C509 C508 1.391 . S
C510 H500 0.950 . S
C510 C511 1.386 . S
C510 C512 1.391 . S
C511 C510 1.386 . S
C511 C515 1.393 . S
C512 H501 0.950 . S
C512 C510 1.391 . S
C512 C513 1.400 . S
C513 C507 1.491 . S
C513 C512 1.400 . S
C513 C514 1.398 . S
C514 H502 0.950 . S
C514 C513 1.398 . S
C514 C515 1.391 . S
C515 H503 0.950 . S
C515 C511 1.393 . S
C515 C514 1.391 . S
H516 C524 0.950 . S
H517 C529 0.950 1_545 S
H518 C526 0.950 . S
H519 C528 0.950 . S
H520 C530 0.950 . S
H521 C532 0.950 . S
H522 C534 0.950 . S
H523 C535 0.950 . S
C524 H516 0.950 . S
C524 C525 1.386 . S
C524 C526 1.391 . S
C525 C524 1.386 . S
C525 C529 1.393 . S
C526 H518 0.950 . S
C526 C524 1.391 . S
C526 C527 1.400 1_455 S
C527 C526 1.400 1_655 S
C527 C528 1.398 . S
C527 C533 1.491 . S
C528 H519 0.950 . S
C528 C527 1.398 . S
C528 C529 1.391 1_655 S
C529 H517 0.950 1_565 S
C529 C525 1.393 . S
C529 C528 1.391 1_455 S
C530 H520 0.950 . S
C530 C531 1.386 . S
C530 C532 1.391 . S
C531 C530 1.386 . S
C531 C535 1.393 . S
C532 H521 0.950 . S
C532 C530 1.391 . S
C532 C533 1.400 . S
C533 C527 1.491 . S
C533 C532 1.400 . S
C533 C534 1.398 . S
C534 H522 0.950 . S
C534 C533 1.398 . S
C534 C535 1.391 . S
C535 H523 0.950 . S
C535 C531 1.393 . S
C535 C534 1.391 . S
H536 C544 0.950 1_545 S
H537 C549 0.950 . S
H538 C546 0.950 . S
H539 C548 0.950 . S
H540 C550 0.950 . S
H541 C552 0.950 . S
H542 C554 0.950 . S
H543 C555 0.950 . S
C544 H536 0.950 1_565 S
C544 C545 1.386 . S
C544 C546 1.391 . S
C545 C544 1.386 . S
C545 C549 1.393 . S
C546 H538 0.950 . S
C546 C544 1.391 . S
C546 C547 1.400 . S
C547 C546 1.400 . S
C547 C548 1.398 . S
C547 C553 1.491 . S
C548 H539 0.950 . S
C548 C547 1.398 . S
C548 C549 1.391 . S
C549 H537 0.950 . S
C549 C545 1.393 . S
C549 C548 1.391 . S
C550 H540 0.950 . S
C550 C551 1.386 . S
C550 C552 1.391 . S
C551 C550 1.386 . S
C551 C555 1.393 . S
C552 H541 0.950 . S
C552 C550 1.391 . S
C552 C553 1.400 . S
C553 C547 1.491 . S
C553 C552 1.400 . S
C553 C554 1.398 . S
C554 H542 0.950 . S
C554 C553 1.398 . S
C554 C555 1.391 . S
C555 H543 0.950 . S
C555 C551 1.393 . S
C555 C554 1.391 . S
H556 C564 0.950 . S
H557 C569 0.950 . S
H558 C566 0.950 . S
H559 C568 0.950 . S
H560 C570 0.950 . S
H561 C572 0.950 . S
H562 C574 0.950 . S
H563 C575 0.950 . S
C564 H556 0.950 . S
C564 C565 1.386 . S
C564 C566 1.391 . S
C565 C564 1.386 . S
C565 C569 1.393 1_455 S
C566 H558 0.950 . S
C566 C564 1.391 . S
C566 C567 1.400 1_455 S
C567 C566 1.400 1_655 S
C567 C568 1.398 . S
C567 C573 1.491 . S
C568 H559 0.950 . S
C568 C567 1.398 . S
C568 C569 1.391 . S
C569 H557 0.950 . S
C569 C565 1.393 1_655 S
C569 C568 1.391 . S
C570 H560 0.950 . S
C570 C571 1.386 . S
C570 C572 1.391 . S
C571 C570 1.386 . S
C571 C575 1.393 . S
C572 H561 0.950 . S
C572 C570 1.391 . S
C572 C573 1.400 . S
C573 C567 1.491 . S
C573 C572 1.400 . S
C573 C574 1.398 . S
C574 H562 0.950 . S
C574 C573 1.398 . S
C574 C575 1.391 . S
C575 H563 0.950 . S
C575 C571 1.393 . S
C575 C574 1.391 . S
H576 C584 0.950 . S
H577 C589 0.950 . S
H578 C586 0.950 . S
H579 C588 0.950 . S
H580 C590 0.950 . S
H581 C592 0.950 . S
H582 C594 0.950 . S
H583 C595 0.950 . S
C584 H576 0.950 . S
C584 C585 1.386 . S
C584 C586 1.391 . S
C585 C584 1.386 . S
C585 C589 1.393 . S
C586 H578 0.950 . S
C586 C584 1.391 . S
C586 C587 1.400 . S
C587 C586 1.400 . S
C587 C588 1.398 . S
C587 C593 1.491 . S
C588 H579 0.950 . S
C588 C587 1.398 . S
C588 C589 1.391 . S
C589 H577 0.950 . S
C589 C585 1.393 . S
C589 C588 1.391 . S
C590 H580 0.950 . S
C590 C591 1.386 . S
C590 C592 1.391 . S
C591 C590 1.386 . S
C591 C595 1.393 . S
C592 H581 0.950 . S
C592 C590 1.391 . S
C592 C593 1.400 . S
C593 C587 1.491 . S
C593 C592 1.400 . S
C593 C594 1.398 . S
C594 H582 0.950 . S
C594 C593 1.398 . S
C594 C595 1.391 . S
C595 H583 0.950 . S
C595 C591 1.393 . S
C595 C594 1.391 . S
H596 C604 0.948 1_465 S
H597 C609 0.950 . S
H598 C606 0.950 . S
H599 C608 0.950 . S
H600 C610 0.950 . S
H601 C612 0.950 . S
H602 C614 0.950 . S
H603 C615 0.950 . S
C604 H596 0.948 1_645 S
C604 C605 1.386 . S
C604 C606 1.391 1_655 S
C605 C604 1.386 . S
C605 C609 1.393 . S
C606 H598 0.950 . S
C606 C604 1.391 1_455 S
C606 C607 1.400 . S
C607 C606 1.400 . S
C607 C608 1.398 1_455 S
C607 C613 1.491 . S
C608 H599 0.950 . S
C608 C607 1.398 1_655 S
C608 C609 1.391 . S
C609 H597 0.950 . S
C609 C605 1.393 . S
C609 C608 1.391 . S
C610 H600 0.950 . S
C610 C611 1.386 . S
C610 C612 1.391 . S
C611 C610 1.386 . S
C611 C615 1.393 . S
C612 H601 0.950 . S
C612 C610 1.391 . S
C612 C613 1.400 . S
C613 C607 1.491 . S
C613 C612 1.400 . S
C613 C614 1.398 . S
C614 H602 0.950 . S
C614 C613 1.398 . S
C614 C615 1.391 . S
C615 H603 0.950 . S
C615 C611 1.393 . S
C615 C614 1.391 . S
H616 C624 0.950 . S
H617 C629 0.950 1_565 S
H618 C626 0.950 . S
H619 C628 0.950 . S
H620 C630 0.950 . S
H621 C632 0.950 . S
H622 C634 0.950 . S
H623 C635 0.950 . S
C624 H616 0.950 . S
C624 C625 1.386 . S
C624 C626 1.391 . S
C625 C624 1.386 . S
C625 C629 1.393 . S
C626 H618 0.950 . S
C626 C624 1.391 . S
C626 C627 1.400 . S
C627 C626 1.400 . S
C627 C628 1.398 . S
C627 C633 1.491 . S
C628 H619 0.950 . S
C628 C627 1.398 . S
C628 C629 1.391 . S
C629 H617 0.950 1_545 S
C629 C625 1.393 . S
C629 C628 1.391 . S
C630 H620 0.950 . S
C630 C631 1.386 . S
C630 C632 1.391 . S
C631 C630 1.386 . S
C631 C635 1.393 . S
C632 H621 0.950 . S
C632 C630 1.391 . S
C632 C633 1.400 . S
C633 C627 1.491 . S
C633 C632 1.400 . S
C633 C634 1.398 . S
C634 H622 0.950 . S
C634 C633 1.398 . S
C634 C635 1.391 . S
C635 H623 0.950 . S
C635 C631 1.393 . S
C635 C634 1.391 . S
H636 C644 0.950 . S
H637 C649 0.950 . S
H638 C646 0.950 . S
H639 C648 0.950 . S
H640 C650 0.950 . S
H641 C652 0.950 . S
H642 C654 0.950 . S
H643 C655 0.950 . S
C644 H636 0.950 . S
C644 C645 1.386 1_455 S
C644 C646 1.391 . S
C645 C644 1.386 1_655 S
C645 C649 1.393 . S
C646 H638 0.950 . S
C646 C644 1.391 . S
C646 C647 1.400 . S
C647 C646 1.400 . S
C647 C648 1.398 1_455 S
C647 C653 1.491 . S
C648 H639 0.950 . S
C648 C647 1.398 1_655 S
C648 C649 1.391 . S
C649 H637 0.950 . S
C649 C645 1.393 . S
C649 C648 1.391 . S
C650 H640 0.950 . S
C650 C651 1.386 . S
C650 C652 1.391 . S
C651 C650 1.386 . S
C651 C655 1.393 . S
C652 H641 0.950 . S
C652 C650 1.391 . S
C652 C653 1.400 . S
C653 C647 1.491 . S
C653 C652 1.400 . S
C653 C654 1.398 . S
C654 H642 0.950 . S
C654 C653 1.398 . S
C654 C655 1.391 . S
C655 H643 0.950 . S
C655 C651 1.393 . S
C655 C654 1.391 . S
H656 C664 0.950 . S
H657 C669 0.950 . S
H658 C666 0.950 . S
H659 C668 0.950 . S
H660 C670 0.950 . S
H661 C672 0.950 . S
H662 C674 0.950 . S
H663 C675 0.950 . S
C664 H656 0.950 . S
C664 C665 1.386 . S
C664 C666 1.391 . S
C665 C664 1.386 . S
C665 C669 1.393 . S
C666 H658 0.950 . S
C666 C664 1.391 . S
C666 C667 1.400 . S
C667 C666 1.400 . S
C667 C668 1.398 . S
C667 C673 1.491 . S
C668 H659 0.950 . S
C668 C667 1.398 . S
C668 C669 1.391 . S
C669 H657 0.950 . S
C669 C665 1.393 . S
C669 C668 1.391 . S
C670 H660 0.950 . S
C670 C671 1.386 . S
C670 C672 1.391 . S
C671 C670 1.386 . S
C671 C675 1.393 . S
C672 H661 0.950 . S
C672 C670 1.391 . S
C672 C673 1.400 . S
C673 C667 1.491 . S
C673 C672 1.400 . S
C673 C674 1.398 . S
C674 H662 0.950 . S
C674 C673 1.398 . S
C674 C675 1.391 . S
C675 H663 0.950 . S
C675 C671 1.393 . S
C675 C674 1.391 . S
H676 C684 0.950 . S
H677 C689 0.950 . S
H678 C686 0.950 . S
H679 C688 0.950 . S
H680 C690 0.950 . S
H681 C692 0.950 . S
H682 C694 0.950 . S
H683 C695 0.950 . S
C684 H676 0.950 . S
C684 C685 1.386 . S
C684 C686 1.391 . S
C685 C684 1.386 . S
C685 C689 1.393 . S
C686 H678 0.950 . S
C686 C684 1.391 . S
C686 C687 1.400 . S
C687 C686 1.400 . S
C687 C688 1.398 . S
C687 C693 1.491 . S
C688 H679 0.950 . S
C688 C687 1.398 . S
C688 C689 1.391 . S
C689 H677 0.950 . S
C689 C685 1.393 . S
C689 C688 1.391 . S
C690 H680 0.950 . S
C690 C691 1.386 1_655 S
C690 C692 1.391 . S
C691 C690 1.386 1_455 S
C691 C695 1.393 . S
C692 H681 0.950 . S
C692 C690 1.391 . S
C692 C693 1.400 . S
C693 C687 1.491 . S
C693 C692 1.400 . S
C693 C694 1.398 1_655 S
C694 H682 0.950 . S
C694 C693 1.398 1_455 S
C694 C695 1.391 . S
C695 H683 0.950 . S
C695 C691 1.393 . S
C695 C694 1.391 . S
H696 C704 0.950 . S
H697 C709 0.950 . S
H698 C706 0.950 . S
H699 C708 0.950 . S
H700 C710 0.950 . S
H701 C712 0.950 . S
H702 C714 0.950 . S
H703 C715 0.950 . S
C704 H696 0.950 . S
C704 C705 1.386 . S
C704 C706 1.391 . S
C705 C704 1.386 . S
C705 C709 1.393 . S
C706 H698 0.950 . S
C706 C704 1.391 . S
C706 C707 1.400 . S
C707 C706 1.400 . S
C707 C708 1.398 . S
C707 C713 1.491 . S
C708 H699 0.950 . S
C708 C707 1.398 . S
C708 C709 1.391 . S
C709 H697 0.950 . S
C709 C705 1.393 . S
C709 C708 1.391 . S
C710 H700 0.950 . S
C710 C711 1.386 . S
C710 C712 1.391 . S
C711 C710 1.386 . S
C711 C715 1.393 . S
C712 H701 0.950 . S
C712 C710 1.391 . S
C712 C713 1.400 . S
C713 C707 1.491 . S
C713 C712 1.400 . S
C713 C714 1.398 . S
C714 H702 0.950 . S
C714 C713 1.398 . S
C714 C715 1.391 . S
C715 H703 0.950 . S
C715 C711 1.393 . S
C715 C714 1.391 . S
H716 C724 0.950 1_545 S
H717 C729 0.950 . S
H718 C726 0.950 . S
H719 C728 0.950 . S
H720 C730 0.950 . S
H721 C732 0.950 . S
H722 C734 0.950 . S
H723 C735 0.950 . S
C724 H716 0.950 1_565 S
C724 C725 1.386 . S
C724 C726 1.391 . S
C725 C724 1.386 . S
C725 C729 1.393 . S
C726 H718 0.950 . S
C726 C724 1.391 . S
C726 C727 1.400 . S
C727 C726 1.400 . S
C727 C728 1.398 . S
C727 C733 1.491 . S
C728 H719 0.950 . S
C728 C727 1.398 . S
C728 C729 1.391 . S
C729 H717 0.950 . S
C729 C725 1.393 . S
C729 C728 1.391 . S
C730 H720 0.950 . S
C730 C731 1.386 1_655 S
C730 C732 1.391 . S
C731 C730 1.386 1_455 S
C731 C735 1.393 . S
C732 H721 0.950 . S
C732 C730 1.391 . S
C732 C733 1.400 . S
C733 C727 1.491 . S
C733 C732 1.400 . S
C733 C734 1.398 1_655 S
C734 H722 0.950 . S
C734 C733 1.398 1_455 S
C734 C735 1.391 . S
C735 H723 0.950 . S
C735 C731 1.393 . S
C735 C734 1.391 . S
H736 C744 0.950 1_565 S
H737 C749 0.950 . S
H738 C746 0.950 . S
H739 C748 0.950 . S
H740 C750 0.950 . S
H741 C752 0.950 . S
H742 C754 0.950 . S
H743 C755 0.950 . S
C744 H736 0.950 1_545 S
C744 C745 1.386 . S
C744 C746 1.391 . S
C745 C744 1.386 . S
C745 C749 1.393 . S
C746 H738 0.950 . S
C746 C744 1.391 . S
C746 C747 1.400 . S
C747 C746 1.400 . S
C747 C748 1.398 . S
C747 C753 1.491 . S
C748 H739 0.950 . S
C748 C747 1.398 . S
C748 C749 1.391 . S
C749 H737 0.950 . S
C749 C745 1.393 . S
C749 C748 1.391 . S
C750 H740 0.950 . S
C750 C751 1.386 . S
C750 C752 1.391 . S
C751 C750 1.386 . S
C751 C755 1.393 . S
C752 H741 0.950 . S
C752 C750 1.391 . S
C752 C753 1.400 . S
C753 C747 1.491 . S
C753 C752 1.400 . S
C753 C754 1.398 . S
C754 H742 0.950 . S
C754 C753 1.398 . S
C754 C755 1.391 . S
C755 H743 0.950 . S
C755 C751 1.393 . S
C755 C754 1.391 . S
H756 C764 0.950 . S
H757 C769 0.950 . S
H758 C766 0.950 . S
H759 C768 0.950 . S
H760 C770 0.950 . S
H761 C772 0.950 . S
H762 C774 0.950 . S
H763 C775 0.950 . S
C764 H756 0.950 . S
C764 C765 1.386 . S
C764 C766 1.391 . S
C765 C764 1.386 . S
C765 C769 1.393 . S
C766 H758 0.950 . S
C766 C764 1.391 . S
C766 C767 1.400 1_655 S
C767 C766 1.400 1_455 S
C767 C768 1.398 . S
C767 C773 1.491 . S
C768 H759 0.950 . S
C768 C767 1.398 . S
C768 C769 1.391 1_455 S
C769 H757 0.950 . S
C769 C765 1.393 . S
C769 C768 1.391 1_655 S
C770 H760 0.950 . S
C770 C771 1.386 . S
C770 C772 1.391 . S
C771 C770 1.386 . S
C771 C775 1.393 . S
C772 H761 0.950 . S
C772 C770 1.391 . S
C772 C773 1.400 . S
C773 C767 1.491 . S
C773 C772 1.400 . S
C773 C774 1.398 . S
C774 H762 0.950 . S
C774 C773 1.398 . S
C774 C775 1.391 . S
C775 H763 0.950 . S
C775 C771 1.393 . S
C775 C774 1.391 . S
H776 C784 0.950 . S
H777 C789 0.950 . S
H778 C786 0.950 . S
H779 C788 0.950 . S
H780 C790 0.950 . S
H781 C792 0.950 . S
H782 C794 0.950 . S
H783 C795 0.950 . S
C784 H776 0.950 . S
C784 C785 1.386 . S
C784 C786 1.391 . S
C785 C784 1.386 . S
C785 C789 1.393 . S
C786 H778 0.950 . S
C786 C784 1.391 . S
C786 C787 1.400 . S
C787 C786 1.400 . S
C787 C788 1.398 . S
C787 C793 1.491 . S
C788 H779 0.950 . S
C788 C787 1.398 . S
C788 C789 1.391 . S
C789 H777 0.950 . S
C789 C785 1.393 . S
C789 C788 1.391 . S
C790 H780 0.950 . S
C790 C791 1.386 . S
C790 C792 1.391 . S
C791 C790 1.386 . S
C791 C795 1.393 . S
C792 H781 0.950 . S
C792 C790 1.391 . S
C792 C793 1.400 . S
C793 C787 1.491 . S
C793 C792 1.400 . S
C793 C794 1.398 . S
C794 H782 0.950 . S
C794 C793 1.398 . S
C794 C795 1.391 . S
C795 H783 0.950 . S
C795 C791 1.393 . S
C795 C794 1.391 . S
H796 C804 0.950 . S
H797 C809 0.950 . S
H798 C806 0.950 . S
H799 C808 0.950 . S
H800 C810 0.950 1_565 S
H801 C812 0.950 . S
H802 C814 0.950 . S
H803 C815 0.950 . S
C804 H796 0.950 . S
C804 C805 1.386 1_455 S
C804 C806 1.391 . S
C805 C804 1.386 1_655 S
C805 C809 1.393 . S
C806 H798 0.950 . S
C806 C804 1.391 . S
C806 C807 1.400 . S
C807 C806 1.400 . S
C807 C808 1.398 1_455 S
C807 C813 1.491 . S
C808 H799 0.950 . S
C808 C807 1.398 1_655 S
C808 C809 1.391 . S
C809 H797 0.950 . S
C809 C805 1.393 . S
C809 C808 1.391 . S
C810 H800 0.950 1_545 S
C810 C811 1.386 . S
C810 C812 1.391 . S
C811 C810 1.386 . S
C811 C815 1.393 . S
C812 H801 0.950 . S
C812 C810 1.391 . S
C812 C813 1.400 . S
C813 C807 1.491 . S
C813 C812 1.400 . S
C813 C814 1.398 . S
C814 H802 0.950 . S
C814 C813 1.398 . S
C814 C815 1.391 . S
C815 H803 0.950 . S
C815 C811 1.393 . S
C815 C814 1.391 . S
H816 C824 0.950 1_545 S
H817 C829 0.950 . S
H818 C826 0.950 . S
H819 C828 0.950 . S
H820 C830 0.950 . S
H821 C832 0.950 . S
H822 C834 0.950 . S
H823 C835 0.950 . S
C824 H816 0.950 1_565 S
C824 C825 1.386 . S
C824 C826 1.391 . S
C825 C824 1.386 . S
C825 C829 1.393 . S
C826 H818 0.950 . S
C826 C824 1.391 . S
C826 C827 1.400 . S
C827 C826 1.400 . S
C827 C828 1.398 . S
C827 C833 1.491 . S
C828 H819 0.950 . S
C828 C827 1.398 . S
C828 C829 1.391 . S
C829 H817 0.950 . S
C829 C825 1.393 . S
C829 C828 1.391 . S
C830 H820 0.950 . S
C830 C831 1.386 . S
C830 C832 1.391 . S
C831 C830 1.386 . S
C831 C835 1.393 . S
C832 H821 0.950 . S
C832 C830 1.391 . S
C832 C833 1.400 . S
C833 C827 1.491 . S
C833 C832 1.400 . S
C833 C834 1.398 . S
C834 H822 0.950 . S
C834 C833 1.398 . S
C834 C835 1.391 . S
C835 H823 0.950 . S
C835 C831 1.393 . S
C835 C834 1.391 . S
H836 C844 0.950 . S
H837 C849 0.950 . S
H838 C846 0.950 . S
H839 C848 0.950 . S
H840 C850 0.950 . S
H841 C852 0.950 . S
H842 C854 0.950 . S
H843 C855 0.950 . S
C844 H836 0.950 . S
C844 C845 1.386 . S
C844 C846 1.391 . S
C845 C844 1.386 . S
C845 C849 1.393 1_455 S
C846 H838 0.950 . S
C846 C844 1.391 . S
C846 C847 1.400 1_455 S
C847 C846 1.400 1_655 S
C847 C848 1.398 . S
C847 C853 1.491 . S
C848 H839 0.950 . S
C848 C847 1.398 . S
C848 C849 1.391 . S
C849 H837 0.950 . S
C849 C845 1.393 1_655 S
C849 C848 1.391 . S
C850 H840 0.950 . S
C850 C851 1.386 . S
C850 C852 1.391 . S
C851 C850 1.386 . S
C851 C855 1.393 . S
C852 H841 0.950 . S
C852 C850 1.391 . S
C852 C853 1.400 . S
C853 C847 1.491 . S
C853 C852 1.400 . S
C853 C854 1.398 . S
C854 H842 0.950 . S
C854 C853 1.398 . S
C854 C855 1.391 . S
C855 H843 0.950 . S
C855 C851 1.393 . S
C855 C854 1.391 . S
H856 C864 0.950 . S
H857 C869 0.950 . S
H858 C866 0.950 . S
H859 C868 0.950 . S
H860 C870 0.950 . S
H861 C872 0.950 . S
H862 C874 0.950 . S
H863 C875 0.950 . S
C864 H856 0.950 . S
C864 C865 1.386 . S
C864 C866 1.391 . S
C865 C864 1.386 . S
C865 C869 1.393 . S
C866 H858 0.950 . S
C866 C864 1.391 . S
C866 C867 1.400 . S
C867 C866 1.400 . S
C867 C868 1.398 . S
C867 C873 1.491 . S
C868 H859 0.950 . S
C868 C867 1.398 . S
C868 C869 1.391 . S
C869 H857 0.950 . S
C869 C865 1.393 . S
C869 C868 1.391 . S
C870 H860 0.950 . S
C870 C871 1.386 . S
C870 C872 1.391 . S
C871 C870 1.386 . S
C871 C875 1.393 . S
C872 H861 0.950 . S
C872 C870 1.391 . S
C872 C873 1.400 . S
C873 C867 1.491 . S
C873 C872 1.400 . S
C873 C874 1.398 . S
C874 H862 0.950 . S
C874 C873 1.398 . S
C874 C875 1.391 . S
C875 H863 0.950 . S
C875 C871 1.393 . S
C875 C874 1.391 . S
H876 C884 0.950 . S
H877 C889 0.950 . S
H878 C886 0.950 . S
H879 C888 0.950 . S
H880 C890 0.950 1_545 S
H881 C892 0.950 . S
H882 C894 0.950 . S
H883 C895 0.950 . S
C884 H876 0.950 . S
C884 C885 1.386 . S
C884 C886 1.391 . S
C885 C884 1.386 . S
C885 C889 1.393 . S
C886 H878 0.950 . S
C886 C884 1.391 . S
C886 C887 1.400 . S
C887 C886 1.400 . S
C887 C888 1.398 . S
C887 C893 1.491 . S
C888 H879 0.950 . S
C888 C887 1.398 . S
C888 C889 1.391 . S
C889 H877 0.950 . S
C889 C885 1.393 . S
C889 C888 1.391 . S
C890 H880 0.950 1_565 S
C890 C891 1.386 1_655 S
C890 C892 1.391 . S
C891 C890 1.386 1_455 S
C891 C895 1.393 . S
C892 H881 0.950 . S
C892 C890 1.391 . S
C892 C893 1.400 . S
C893 C887 1.491 . S
C893 C892 1.400 . S
C893 C894 1.398 1_655 S
C894 H882 0.950 . S
C894 C893 1.398 1_455 S
C894 C895 1.391 . S
C895 H883 0.950 . S
C895 C891 1.393 . S
C895 C894 1.391 . S
H896 C904 0.950 . S
H897 C909 0.950 . S
H898 C906 0.950 . S
H899 C908 0.950 . S
H900 C910 0.950 1_565 S
H901 C912 0.950 . S
H902 C914 0.950 . S
H903 C915 0.950 . S
C904 H896 0.950 . S
C904 C905 1.386 . S
C904 C906 1.391 . S
C905 C904 1.386 . S
C905 C909 1.393 . S
C906 H898 0.950 . S
C906 C904 1.391 . S
C906 C907 1.400 . S
C907 C906 1.400 . S
C907 C908 1.398 . S
C907 C913 1.491 . S
C908 H899 0.950 . S
C908 C907 1.398 . S
C908 C909 1.391 . S
C909 H897 0.950 . S
C909 C905 1.393 . S
C909 C908 1.391 . S
C910 H900 0.950 1_545 S
C910 C911 1.386 . S
C910 C912 1.391 . S
C911 C910 1.386 . S
C911 C915 1.393 . S
C912 H901 0.950 . S
C912 C910 1.391 . S
C912 C913 1.400 . S
C913 C907 1.491 . S
C913 C912 1.400 . S
C913 C914 1.398 . S
C914 H902 0.950 . S
C914 C913 1.398 . S
C914 C915 1.391 . S
C915 H903 0.950 . S
C915 C911 1.393 . S
C915 C914 1.391 . S
H916 C924 0.950 . S
H917 C929 0.950 . S
H918 C926 0.950 . S
H919 C928 0.950 . S
H920 C930 0.950 . S
H921 C932 0.950 . S
H922 C934 0.950 . S
H923 C935 0.950 . S
C924 H916 0.950 . S
C924 C925 1.386 . S
C924 C926 1.391 . S
C925 C924 1.386 . S
C925 C929 1.393 . S
C926 H918 0.950 . S
C926 C924 1.391 . S
C926 C927 1.400 . S
C927 C926 1.400 . S
C927 C928 1.398 . S
C927 C933 1.491 . S
C928 H919 0.950 . S
C928 C927 1.398 . S
C928 C929 1.391 . S
C929 H917 0.950 . S
C929 C925 1.393 . S
C929 C928 1.391 . S
C930 H920 0.950 . S
C930 C931 1.386 . S
C930 C932 1.391 1_655 S
C931 C930 1.386 . S
C931 C935 1.393 . S
C932 H921 0.950 . S
C932 C930 1.391 1_455 S
C932 C933 1.400 . S
C933 C927 1.491 . S
C933 C932 1.400 . S
C933 C934 1.398 1_455 S
C934 H922 0.950 . S
C934 C933 1.398 1_655 S
C934 C935 1.391 . S
C935 H923 0.950 . S
C935 C931 1.393 . S
C935 C934 1.391 . S
H936 C944 0.950 . S
H937 C949 0.950 . S
H938 C946 0.950 . S
H939 C948 0.950 . S
H940 C950 0.950 . S
H941 C952 0.950 . S
H942 C954 0.950 . S
H943 C955 0.950 . S
C944 H936 0.950 . S
C944 C945 1.386 . S
C944 C946 1.391 . S
C945 C944 1.386 . S
C945 C949 1.393 . S
C946 H938 0.950 . S
C946 C944 1.391 . S
C946 C947 1.400 . S
C947 C946 1.400 . S
C947 C948 1.398 . S
C947 C953 1.491 . S
C948 H939 0.950 . S
C948 C947 1.398 . S
C948 C949 1.391 . S
C949 H937 0.950 . S
C949 C945 1.393 . S
C949 C948 1.391 . S
C950 H940 0.950 . S
C950 C951 1.386 . S
C950 C952 1.391 . S
C951 C950 1.386 . S
C951 C955 1.393 . S
C952 H941 0.950 . S
C952 C950 1.391 . S
C952 C953 1.400 . S
C953 C947 1.491 . S
C953 C952 1.400 . S
C953 C954 1.398 . S
C954 H942 0.950 . S
C954 C953 1.398 . S
C954 C955 1.391 . S
C955 H943 0.950 . S
C955 C951 1.393 . S
C955 C954 1.391 . S
H956 C964 0.950 . S
H957 C969 0.950 . S
H958 C966 0.950 . S
H959 C968 0.950 . S
H960 C970 0.950 . S
H961 C972 0.950 . S
H962 C974 0.950 . S
H963 C975 0.950 1_565 S
C964 H956 0.950 . S
C964 C965 1.386 . S
C964 C966 1.391 . S
C965 C964 1.386 . S
C965 C969 1.393 . S
C966 H958 0.950 . S
C966 C964 1.391 . S
C966 C967 1.400 . S
C967 C966 1.400 . S
C967 C968 1.398 . S
C967 C973 1.491 . S
C968 H959 0.950 . S
C968 C967 1.398 . S
C968 C969 1.391 . S
C969 H957 0.950 . S
C969 C965 1.393 . S
C969 C968 1.391 . S
C970 H960 0.950 . S
C970 C971 1.386 . S
C970 C972 1.391 . S
C971 C970 1.386 . S
C971 C975 1.393 1_655 S
C972 H961 0.950 . S
C972 C970 1.391 . S
C972 C973 1.400 1_655 S
C973 C967 1.491 . S
C973 C972 1.400 1_455 S
C973 C974 1.398 . S
C974 H962 0.950 . S
C974 C973 1.398 . S
C974 C975 1.391 . S
C975 H963 0.950 1_545 S
C975 C971 1.393 1_455 S
C975 C974 1.391 . S
H976 C984 0.950 . S
H977 C989 0.950 . S
H978 C986 0.950 . S
H979 C988 0.950 . S
H980 C990 0.950 . S
H981 C992 0.950 . S
H982 C994 0.950 . S
H983 C995 0.950 . S
C984 H976 0.950 . S
C984 C985 1.386 . S
C984 C986 1.391 . S
C985 C984 1.386 . S
C985 C989 1.393 . S
C986 H978 0.950 . S
C986 C984 1.391 . S
C986 C987 1.400 . S
C987 C986 1.400 . S
C987 C988 1.398 . S
C987 C993 1.491 . S
C988 H979 0.950 . S
C988 C987 1.398 . S
C988 C989 1.391 . S
C989 H977 0.950 . S
C989 C985 1.393 . S
C989 C988 1.391 . S
C990 H980 0.950 . S
C990 C991 1.386 . S
C990 C992 1.391 . S
C991 C990 1.386 . S
C991 C995 1.393 . S
C992 H981 0.950 . S
C992 C990 1.391 . S
C992 C993 1.400 . S
C993 C987 1.491 . S
C993 C992 1.400 . S
C993 C994 1.398 . S
C994 H982 0.950 . S
C994 C993 1.398 . S
C994 C995 1.391 . S
C995 H983 0.950 . S
C995 C991 1.393 . S
C995 C994 1.391 . S
H996 C1004 0.950 . S
H997 C1009 0.950 . S
H998 C1006 0.950 . S
H999 C1008 0.950 . S
H1000 C1010 0.950 1_545 S
H1001 C1012 0.950 . S
H1002 C1014 0.950 . S
H1003 C1015 0.950 . S
C1004 H996 0.950 . S
C1004 C1005 1.386 1_655 S
C1004 C1006 1.391 . S
C1005 C1004 1.386 1_455 S
C1005 C1009 1.393 . S
C1006 H998 0.950 . S
C1006 C1004 1.391 . S
C1006 C1007 1.400 . S
C1007 C1006 1.400 . S
C1007 C1008 1.398 1_655 S
C1007 C1013 1.491 . S
C1008 H999 0.950 . S
C1008 C1007 1.398 1_455 S
C1008 C1009 1.391 . S
C1009 H997 0.950 . S
C1009 C1005 1.393 . S
C1009 C1008 1.391 . S
C1010 H1000 0.950 1_565 S
C1010 C1011 1.386 . S
C1010 C1012 1.391 . S
C1011 C1010 1.386 . S
C1011 C1015 1.393 . S
C1012 H1001 0.950 . S
C1012 C1010 1.391 . S
C1012 C1013 1.400 . S
C1013 C1007 1.491 . S
C1013 C1012 1.400 . S
C1013 C1014 1.398 . S
C1014 H1002 0.950 . S
C1014 C1013 1.398 . S
C1014 C1015 1.391 . S
C1015 H1003 0.950 . S
C1015 C1011 1.393 . S
C1015 C1014 1.391 . S
H1016 C1024 0.950 . S
H1017 C1029 0.950 . S
H1018 C1026 0.950 . S
H1019 C1028 0.950 . S
H1020 C1030 0.950 . S
H1021 C1032 0.950 . S
H1022 C1034 0.950 . S
H1023 C1035 0.950 . S
C1024 H1016 0.950 . S
C1024 C1025 1.386 . S
C1024 C1026 1.391 . S
C1025 C1024 1.386 . S
C1025 C1029 1.393 . S
C1026 H1018 0.950 . S
C1026 C1024 1.391 . S
C1026 C1027 1.400 . S
C1027 C1026 1.400 . S
C1027 C1028 1.398 . S
C1027 C1033 1.491 . S
C1028 H1019 0.950 . S
C1028 C1027 1.398 . S
C1028 C1029 1.391 . S
C1029 H1017 0.950 . S
C1029 C1025 1.393 . S
C1029 C1028 1.391 . S
C1030 H1020 0.950 . S
C1030 C1031 1.386 . S
C1030 C1032 1.391 . S
C1031 C1030 1.386 . S
C1031 C1035 1.393 . S
C1032 H1021 0.950 . S
C1032 C1030 1.391 . S
C1032 C1033 1.400 . S
C1033 C1027 1.491 . S
C1033 C1032 1.400 . S
C1033 C1034 1.398 . S
C1034 H1022 0.950 . S
C1034 C1033 1.398 . S
C1034 C1035 1.391 . S
C1035 H1023 0.950 . S
C1035 C1031 1.393 . S
C1035 C1034 1.391 . S
H1036 C1044 0.950 . S
H1037 C1049 0.950 . S
H1038 C1046 0.950 . S
H1039 C1048 0.950 . S
H1040 C1050 0.950 . S
H1041 C1052 0.950 . S
H1042 C1054 0.950 . S
H1043 C1055 0.950 . S
C1044 H1036 0.950 . S
C1044 C1045 1.386 . S
C1044 C1046 1.391 1_455 S
C1045 C1044 1.386 . S
C1045 C1049 1.393 . S
C1046 H1038 0.950 . S
C1046 C1044 1.391 1_655 S
C1046 C1047 1.400 . S
C1047 C1046 1.400 . S
C1047 C1048 1.398 . S
C1047 C1053 1.491 . S
C1048 H1039 0.950 . S
C1048 C1047 1.398 . S
C1048 C1049 1.391 1_655 S
C1049 H1037 0.950 . S
C1049 C1045 1.393 . S
C1049 C1048 1.391 1_455 S
C1050 H1040 0.950 . S
C1050 C1051 1.386 . S
C1050 C1052 1.391 . S
C1051 C1050 1.386 . S
C1051 C1055 1.393 . S
C1052 H1041 0.950 . S
C1052 C1050 1.391 . S
C1052 C1053 1.400 . S
C1053 C1047 1.491 . S
C1053 C1052 1.400 . S
C1053 C1054 1.398 . S
C1054 H1042 0.950 . S
C1054 C1053 1.398 . S
C1054 C1055 1.391 . S
C1055 H1043 0.950 . S
C1055 C1051 1.393 . S
C1055 C1054 1.391 . S
H1056 C1064 0.950 . S
H1057 C1069 0.950 . S
H1058 C1066 0.950 . S
H1059 C1068 0.950 . S
H1060 C1070 0.950 . S
H1061 C1072 0.950 . S
H1062 C1074 0.950 . S
H1063 C1075 0.950 . S
C1064 H1056 0.950 . S
C1064 C1065 1.386 . S
C1064 C1066 1.391 . S
C1065 C1064 1.386 . S
C1065 C1069 1.393 . S
C1066 H1058 0.950 . S
C1066 C1064 1.391 . S
C1066 C1067 1.400 . S
C1067 C1066 1.400 . S
C1067 C1068 1.398 . S
C1067 C1073 1.491 . S
C1068 H1059 0.950 . S
C1068 C1067 1.398 . S
C1068 C1069 1.391 . S
C1069 H1057 0.950 . S
C1069 C1065 1.393 . S
C1069 C1068 1.391 . S
C1070 H1060 0.950 . S
C1070 C1071 1.386 . S
C1070 C1072 1.391 . S
C1071 C1070 1.386 . S
C1071 C1075 1.393 . S
C1072 H1061 0.950 . S
C1072 C1070 1.391 . S
C1072 C1073 1.400 . S
C1073 C1067 1.491 . S
C1073 C1072 1.400 . S
C1073 C1074 1.398 . S
C1074 H1062 0.950 . S
C1074 C1073 1.398 . S
C1074 C1075 1.391 . S
C1075 H1063 0.950 . S
C1075 C1071 1.393 . S
C1075 C1074 1.391 . S
H1076 C1084 0.950 . S
H1077 C1089 0.950 1_565 S
H1078 C1086 0.950 . S
H1079 C1088 0.950 . S
H1080 C1090 0.950 . S
H1081 C1092 0.950 . S
H1082 C1094 0.950 . S
H1083 C1095 0.950 . S
C1084 H1076 0.950 . S
C1084 C1085 1.386 . S
C1084 C1086 1.391 . S
C1085 C1084 1.386 . S
C1085 C1089 1.393 . S
C1086 H1078 0.950 . S
C1086 C1084 1.391 . S
C1086 C1087 1.400 . S
C1087 C1086 1.400 . S
C1087 C1088 1.398 . S
C1087 C1093 1.491 . S
C1088 H1079 0.950 . S
C1088 C1087 1.398 . S
C1088 C1089 1.391 . S
C1089 H1077 0.950 1_545 S
C1089 C1085 1.393 . S
C1089 C1088 1.391 . S
C1090 H1080 0.950 . S
C1090 C1091 1.386 . S
C1090 C1092 1.391 . S
C1091 C1090 1.386 . S
C1091 C1095 1.393 1_655 S
C1092 H1081 0.950 . S
C1092 C1090 1.391 . S
C1092 C1093 1.400 1_655 S
C1093 C1087 1.491 . S
C1093 C1092 1.400 1_455 S
C1093 C1094 1.398 . S
C1094 H1082 0.950 . S
C1094 C1093 1.398 . S
C1094 C1095 1.391 . S
C1095 H1083 0.950 . S
C1095 C1091 1.393 1_455 S
C1095 C1094 1.391 . S
H1096 C1104 0.950 . S
H1097 C1109 0.950 1_565 S
H1098 C1106 0.950 . S
H1099 C1108 0.950 . S
H1100 C1110 0.950 . S
H1101 C1112 0.950 . S
H1102 C1114 0.950 . S
H1103 C1115 0.950 . S
C1104 H1096 0.950 . S
C1104 C1105 1.386 . S
C1104 C1106 1.391 . S
C1105 C1104 1.386 . S
C1105 C1109 1.393 . S
C1106 H1098 0.950 . S
C1106 C1104 1.391 . S
C1106 C1107 1.400 . S
C1107 C1106 1.400 . S
C1107 C1108 1.398 . S
C1107 C1113 1.491 . S
C1108 H1099 0.950 . S
C1108 C1107 1.398 . S
C1108 C1109 1.391 . S
C1109 H1097 0.950 1_545 S
C1109 C1105 1.393 . S
C1109 C1108 1.391 . S
C1110 H1100 0.950 . S
C1110 C1111 1.386 . S
C1110 C1112 1.391 . S
C1111 C1110 1.386 . S
C1111 C1115 1.393 . S
C1112 H1101 0.950 . S
C1112 C1110 1.391 . S
C1112 C1113 1.400 . S
C1113 C1107 1.491 . S
C1113 C1112 1.400 . S
C1113 C1114 1.398 . S
C1114 H1102 0.950 . S
C1114 C1113 1.398 . S
C1114 C1115 1.391 . S
C1115 H1103 0.950 . S
C1115 C1111 1.393 . S
C1115 C1114 1.391 . S
H1116 C1124 0.950 . S
H1117 C1129 0.950 . S
H1118 C1126 0.950 . S
H1119 C1128 0.950 . S
H1120 C1130 0.950 . S
H1121 C1132 0.950 . S
H1122 C1134 0.950 . S
H1123 C1135 0.950 . S
C1124 H1116 0.950 . S
C1124 C1125 1.386 . S
C1124 C1126 1.391 . S
C1125 C1124 1.386 . S
C1125 C1129 1.393 1_655 S
C1126 H1118 0.950 . S
C1126 C1124 1.391 . S
C1126 C1127 1.400 1_655 S
C1127 C1126 1.400 1_455 S
C1127 C1128 1.398 . S
C1127 C1133 1.491 . S
C1128 H1119 0.950 . S
C1128 C1127 1.398 . S
C1128 C1129 1.391 . S
C1129 H1117 0.950 . S
C1129 C1125 1.393 1_455 S
C1129 C1128 1.391 . S
C1130 H1120 0.950 . S
C1130 C1131 1.386 . S
C1130 C1132 1.391 . S
C1131 C1130 1.386 . S
C1131 C1135 1.393 . S
C1132 H1121 0.950 . S
C1132 C1130 1.391 . S
C1132 C1133 1.400 . S
C1133 C1127 1.491 . S
C1133 C1132 1.400 . S
C1133 C1134 1.398 . S
C1134 H1122 0.950 . S
C1134 C1133 1.398 . S
C1134 C1135 1.391 . S
C1135 H1123 0.950 . S
C1135 C1131 1.393 . S
C1135 C1134 1.391 . S
H1136 C1144 0.950 . S
H1137 C1149 0.950 . S
H1138 C1146 0.950 . S
H1139 C1148 0.950 . S
H1140 C1150 0.950 . S
H1141 C1152 0.950 . S
H1142 C1154 0.950 . S
H1143 C1155 0.950 . S
C1144 H1136 0.950 . S
C1144 C1145 1.386 . S
C1144 C1146 1.391 . S
C1145 C1144 1.386 . S
C1145 C1149 1.393 . S
C1146 H1138 0.950 . S
C1146 C1144 1.391 . S
C1146 C1147 1.400 . S
C1147 C1146 1.400 . S
C1147 C1148 1.398 . S
C1147 C1153 1.491 . S
C1148 H1139 0.950 . S
C1148 C1147 1.398 . S
C1148 C1149 1.391 . S
C1149 H1137 0.950 . S
C1149 C1145 1.393 . S
C1149 C1148 1.391 . S
C1150 H1140 0.950 . S
C1150 C1151 1.386 . S
C1150 C1152 1.391 . S
C1151 C1150 1.386 . S
C1151 C1155 1.393 . S
C1152 H1141 0.950 . S
C1152 C1150 1.391 . S
C1152 C1153 1.400 . S
C1153 C1147 1.491 . S
C1153 C1152 1.400 . S
C1153 C1154 1.398 . S
C1154 H1142 0.950 . S
C1154 C1153 1.398 . S
C1154 C1155 1.391 . S
C1155 H1143 0.950 . S
C1155 C1151 1.393 . S
C1155 C1154 1.391 . S
H1156 C1164 0.950 . S
H1157 C1169 0.950 . S
H1158 C1166 0.950 1_455 S
H1159 C1168 0.950 . S
H1160 C1170 0.950 . S
H1161 C1172 0.950 . S
H1162 C1174 0.950 . S
H1163 C1175 0.950 . S
C1164 H1156 0.950 . S
C1164 C1165 1.386 . S
C1164 C1166 1.391 . S
C1165 C1164 1.386 . S
C1165 C1169 1.393 . S
C1166 H1158 0.950 1_655 S
C1166 C1164 1.391 . S
C1166 C1167 1.400 . S
C1167 C1166 1.400 . S
C1167 C1168 1.398 . S
C1167 C1173 1.491 1_655 S
C1168 H1159 0.950 . S
C1168 C1167 1.398 . S
C1168 C1169 1.391 . S
C1169 H1157 0.950 . S
C1169 C1165 1.393 . S
C1169 C1168 1.391 . S
C1170 H1160 0.950 . S
C1170 C1171 1.386 . S
C1170 C1172 1.391 1_455 S
C1171 C1170 1.386 . S
C1171 C1175 1.393 . S
C1172 H1161 0.950 . S
C1172 C1170 1.391 1_655 S
C1172 C1173 1.400 1_655 S
C1173 C1167 1.491 1_455 S
C1173 C1172 1.400 1_455 S
C1173 C1174 1.398 . S
C1174 H1162 0.950 . S
C1174 C1173 1.398 . S
C1174 C1175 1.391 . S
C1175 H1163 0.950 . S
C1175 C1171 1.393 . S
C1175 C1174 1.391 . S
H1176 C1184 0.950 . S
H1177 C1189 0.950 . S
H1178 C1186 0.950 . S
H1179 C1188 0.950 . S
H1180 C1190 0.950 . S
H1181 C1192 0.950 . S
H1182 C1194 0.950 . S
H1183 C1195 0.950 . S
C1184 H1176 0.950 . S
C1184 C1185 1.386 . S
C1184 C1186 1.391 . S
C1185 C1184 1.386 . S
C1185 C1189 1.393 . S
C1186 H1178 0.950 . S
C1186 C1184 1.391 . S
C1186 C1187 1.400 . S
C1187 C1186 1.400 . S
C1187 C1188 1.398 . S
C1187 C1193 1.491 . S
C1188 H1179 0.950 . S
C1188 C1187 1.398 . S
C1188 C1189 1.391 . S
C1189 H1177 0.950 . S
C1189 C1185 1.393 . S
C1189 C1188 1.391 . S
C1190 H1180 0.950 . S
C1190 C1191 1.386 . S
C1190 C1192 1.391 . S
C1191 C1190 1.386 . S
C1191 C1195 1.393 . S
C1192 H1181 0.950 . S
C1192 C1190 1.391 . S
C1192 C1193 1.400 . S
C1193 C1187 1.491 . S
C1193 C1192 1.400 . S
C1193 C1194 1.398 . S
C1194 H1182 0.950 . S
C1194 C1193 1.398 . S
C1194 C1195 1.391 . S
C1195 H1183 0.950 . S
C1195 C1191 1.393 . S
C1195 C1194 1.391 . S
H1196 C1204 0.950 . S
H1197 C1209 0.950 . S
H1198 C1206 0.950 1_455 S
H1199 C1208 0.950 . S
H1200 C1210 0.950 . S
H1201 C1212 0.950 . S
H1202 C1214 0.950 . S
H1203 C1215 0.950 . S
C1204 H1196 0.950 . S
C1204 C1205 1.386 . S
C1204 C1206 1.391 . S
C1205 C1204 1.386 . S
C1205 C1209 1.393 . S
C1206 H1198 0.950 1_655 S
C1206 C1204 1.391 . S
C1206 C1207 1.400 . S
C1207 C1206 1.400 . S
C1207 C1208 1.398 . S
C1207 C1213 1.491 1_655 S
C1208 H1199 0.950 . S
C1208 C1207 1.398 . S
C1208 C1209 1.391 . S
C1209 H1197 0.950 . S
C1209 C1205 1.393 . S
C1209 C1208 1.391 . S
C1210 H1200 0.950 . S
C1210 C1211 1.386 . S
C1210 C1212 1.391 1_455 S
C1211 C1210 1.386 . S
C1211 C1215 1.393 . S
C1212 H1201 0.950 . S
C1212 C1210 1.391 1_655 S
C1212 C1213 1.400 1_655 S
C1213 C1207 1.491 1_455 S
C1213 C1212 1.400 1_455 S
C1213 C1214 1.398 . S
C1214 H1202 0.950 . S
C1214 C1213 1.398 . S
C1214 C1215 1.391 . S
C1215 H1203 0.950 . S
C1215 C1211 1.393 . S
C1215 C1214 1.391 . S
H1216 C1224 0.950 . S
H1217 C1229 0.950 . S
H1218 C1226 0.950 . S
H1219 C1228 0.950 . S
H1220 C1230 0.950 . S
H1221 C1232 0.950 . S
H1222 C1234 0.950 . S
H1223 C1235 0.950 . S
C1224 H1216 0.950 . S
C1224 C1225 1.386 . S
C1224 C1226 1.391 . S
C1225 C1224 1.386 . S
C1225 C1229 1.393 . S
C1226 H1218 0.950 . S
C1226 C1224 1.391 . S
C1226 C1227 1.400 . S
C1227 C1226 1.400 . S
C1227 C1228 1.398 . S
C1227 C1233 1.491 . S
C1228 H1219 0.950 . S
C1228 C1227 1.398 . S
C1228 C1229 1.391 . S
C1229 H1217 0.950 . S
C1229 C1225 1.393 . S
C1229 C1228 1.391 . S
C1230 H1220 0.950 . S
C1230 C1231 1.386 . S
C1230 C1232 1.391 . S
C1231 C1230 1.386 . S
C1231 C1235 1.393 . S
C1232 H1221 0.950 . S
C1232 C1230 1.391 . S
C1232 C1233 1.400 . S
C1233 C1227 1.491 . S
C1233 C1232 1.400 . S
C1233 C1234 1.398 . S
C1234 H1222 0.950 . S
C1234 C1233 1.398 . S
C1234 C1235 1.391 . S
C1235 H1223 0.950 . S
C1235 C1231 1.393 . S
C1235 C1234 1.391 . S
H1236 C1244 0.950 . S
H1237 C1249 0.950 . S
H1238 C1246 0.950 . S
H1239 C1248 0.950 . S
H1240 C1250 0.950 . S
H1241 C1252 0.950 . S
H1242 C1254 0.950 . S
H1243 C1255 0.950 . S
C1244 H1236 0.950 . S
C1244 C1245 1.386 . S
C1244 C1246 1.391 . S
C1245 C1244 1.386 . S
C1245 C1249 1.393 . S
C1246 H1238 0.950 . S
C1246 C1244 1.391 . S
C1246 C1247 1.400 . S
C1247 C1246 1.400 . S
C1247 C1248 1.398 . S
C1247 C1253 1.491 1_655 S
C1248 H1239 0.950 . S
C1248 C1247 1.398 . S
C1248 C1249 1.391 . S
C1249 H1237 0.950 . S
C1249 C1245 1.393 . S
C1249 C1248 1.391 . S
C1250 H1240 0.950 . S
C1250 C1251 1.386 . S
C1250 C1252 1.391 . S
C1251 C1250 1.386 . S
C1251 C1255 1.393 . S
C1252 H1241 0.950 . S
C1252 C1250 1.391 . S
C1252 C1253 1.400 . S
C1253 C1247 1.491 1_455 S
C1253 C1252 1.400 . S
C1253 C1254 1.398 . S
C1254 H1242 0.950 . S
C1254 C1253 1.398 . S
C1254 C1255 1.391 . S
C1255 H1243 0.950 . S
C1255 C1251 1.393 . S
C1255 C1254 1.391 . S
H1256 C1264 0.950 . S
H1257 C1269 0.950 . S
H1258 C1266 0.950 . S
H1259 C1268 0.950 . S
H1260 C1270 0.950 . S
H1261 C1272 0.950 . S
H1262 C1274 0.950 . S
H1263 C1275 0.950 . S
C1264 H1256 0.950 . S
C1264 C1265 1.386 . S
C1264 C1266 1.391 . S
C1265 C1264 1.386 . S
C1265 C1269 1.393 . S
C1266 H1258 0.950 . S
C1266 C1264 1.391 . S
C1266 C1267 1.400 . S
C1267 C1266 1.400 . S
C1267 C1268 1.398 . S
C1267 C1273 1.491 . S
C1268 H1259 0.950 . S
C1268 C1267 1.398 . S
C1268 C1269 1.391 . S
C1269 H1257 0.950 . S
C1269 C1265 1.393 . S
C1269 C1268 1.391 . S
C1270 H1260 0.950 . S
C1270 C1271 1.386 . S
C1270 C1272 1.391 . S
C1271 C1270 1.386 . S
C1271 C1275 1.393 . S
C1272 H1261 0.950 . S
C1272 C1270 1.391 . S
C1272 C1273 1.400 . S
C1273 C1267 1.491 . S
C1273 C1272 1.400 . S
C1273 C1274 1.398 . S
C1274 H1262 0.950 . S
C1274 C1273 1.398 . S
C1274 C1275 1.391 . S
C1275 H1263 0.950 . S
C1275 C1271 1.393 . S
C1275 C1274 1.391 . S
H1276 C1284 0.950 . S
H1277 C1289 0.950 . S
H1278 C1286 0.950 . S
H1279 C1288 0.950 1_455 S
H1280 C1290 0.950 . S
H1281 C1292 0.950 . S
H1282 C1294 0.950 . S
H1283 C1295 0.950 . S
C1284 H1276 0.950 . S
C1284 C1285 1.386 . S
C1284 C1286 1.391 . S
C1285 C1284 1.386 . S
C1285 C1289 1.393 . S
C1286 H1278 0.950 . S
C1286 C1284 1.391 . S
C1286 C1287 1.400 . S
C1287 C1286 1.400 . S
C1287 C1288 1.398 . S
C1287 C1293 1.491 1_655 S
C1288 H1279 0.950 1_655 S
C1288 C1287 1.398 . S
C1288 C1289 1.391 . S
C1289 H1277 0.950 . S
C1289 C1285 1.393 . S
C1289 C1288 1.391 . S
C1290 H1280 0.950 . S
C1290 C1291 1.386 . S
C1290 C1292 1.391 . S
C1291 C1290 1.386 . S
C1291 C1295 1.393 . S
C1292 H1281 0.950 . S
C1292 C1290 1.391 . S
C1292 C1293 1.400 . S
C1293 C1287 1.491 1_455 S
C1293 C1292 1.400 . S
C1293 C1294 1.398 . S
C1294 H1282 0.950 . S
C1294 C1293 1.398 . S
C1294 C1295 1.391 . S
C1295 H1283 0.950 . S
C1295 C1291 1.393 . S
C1295 C1294 1.391 . S
H1296 C1304 0.950 . S
H1297 C1309 0.950 . S
H1298 C1306 0.950 . S
H1299 C1308 0.950 . S
H1300 C1310 0.950 . S
H1301 C1312 0.950 . S
H1302 C1314 0.950 . S
H1303 C1315 0.950 . S
C1304 H1296 0.950 . S
C1304 C1305 1.386 . S
C1304 C1306 1.391 . S
C1305 C1304 1.386 . S
C1305 C1309 1.393 . S
C1306 H1298 0.950 . S
C1306 C1304 1.391 . S
C1306 C1307 1.400 . S
C1307 C1306 1.400 . S
C1307 C1308 1.398 . S
C1307 C1313 1.491 . S
C1308 H1299 0.950 . S
C1308 C1307 1.398 . S
C1308 C1309 1.391 . S
C1309 H1297 0.950 . S
C1309 C1305 1.393 . S
C1309 C1308 1.391 . S
C1310 H1300 0.950 . S
C1310 C1311 1.386 . S
C1310 C1312 1.391 . S
C1311 C1310 1.386 . S
C1311 C1315 1.393 . S
C1312 H1301 0.950 . S
C1312 C1310 1.391 . S
C1312 C1313 1.400 . S
C1313 C1307 1.491 . S
C1313 C1312 1.400 . S
C1313 C1314 1.398 . S
C1314 H1302 0.950 . S
C1314 C1313 1.398 . S
C1314 C1315 1.391 . S
C1315 H1303 0.950 . S
C1315 C1311 1.393 . S
C1315 C1314 1.391 . S
H1316 C1324 0.950 . S
H1317 C1329 0.950 . S
H1318 C1326 0.950 . S
H1319 C1328 0.950 . S
H1320 C1330 0.950 . S
H1321 C1332 0.950 . S
H1322 C1334 0.950 . S
H1323 C1335 0.950 . S
C1324 H1316 0.950 . S
C1324 C1325 1.386 . S
C1324 C1326 1.391 . S
C1325 C1324 1.386 . S
C1325 C1329 1.393 . S
C1326 H1318 0.950 . S
C1326 C1324 1.391 . S
C1326 C1327 1.400 . S
C1327 C1326 1.400 . S
C1327 C1328 1.398 . S
C1327 C1333 1.491 1_455 S
C1328 H1319 0.950 . S
C1328 C1327 1.398 . S
C1328 C1329 1.391 . S
C1329 H1317 0.950 . S
C1329 C1325 1.393 . S
C1329 C1328 1.391 . S
C1330 H1320 0.950 . S
C1330 C1331 1.386 . S
C1330 C1332 1.391 . S
C1331 C1330 1.386 . S
C1331 C1335 1.393 . S
C1332 H1321 0.950 . S
C1332 C1330 1.391 . S
C1332 C1333 1.400 . S
C1333 C1327 1.491 1_655 S
C1333 C1332 1.400 . S
C1333 C1334 1.398 . S
C1334 H1322 0.950 . S
C1334 C1333 1.398 . S
C1334 C1335 1.391 . S
C1335 H1323 0.950 . S
C1335 C1331 1.393 . S
C1335 C1334 1.391 . S
H1336 C1344 0.950 . S
H1337 C1349 0.950 . S
H1338 C1346 0.950 . S
H1339 C1348 0.950 . S
H1340 C1350 0.950 . S
H1341 C1352 0.950 . S
H1342 C1354 0.950 . S
H1343 C1355 0.950 . S
C1344 H1336 0.950 . S
C1344 C1345 1.386 . S
C1344 C1346 1.391 . S
C1345 C1344 1.386 . S
C1345 C1349 1.393 . S
C1346 H1338 0.950 . S
C1346 C1344 1.391 . S
C1346 C1347 1.400 . S
C1347 C1346 1.400 . S
C1347 C1348 1.398 . S
C1347 C1353 1.491 . S
C1348 H1339 0.950 . S
C1348 C1347 1.398 . S
C1348 C1349 1.391 . S
C1349 H1337 0.950 . S
C1349 C1345 1.393 . S
C1349 C1348 1.391 . S
C1350 H1340 0.950 . S
C1350 C1351 1.386 . S
C1350 C1352 1.391 . S
C1351 C1350 1.386 . S
C1351 C1355 1.393 . S
C1352 H1341 0.950 . S
C1352 C1350 1.391 . S
C1352 C1353 1.400 . S
C1353 C1347 1.491 . S
C1353 C1352 1.400 . S
C1353 C1354 1.398 . S
C1354 H1342 0.950 . S
C1354 C1353 1.398 . S
C1354 C1355 1.391 . S
C1355 H1343 0.950 . S
C1355 C1351 1.393 . S
C1355 C1354 1.391 . S
H1356 C1364 0.950 . S
H1357 C1369 0.950 . S
H1358 C1366 0.950 . S
H1359 C1368 0.950 1_455 S
H1360 C1370 0.950 . S
H1361 C1372 0.950 . S
H1362 C1374 0.950 . S
H1363 C1375 0.950 . S
C1364 H1356 0.950 . S
C1364 C1365 1.386 . S
C1364 C1366 1.391 . S
C1365 C1364 1.386 . S
C1365 C1369 1.393 . S
C1366 H1358 0.950 . S
C1366 C1364 1.391 . S
C1366 C1367 1.400 . S
C1367 C1366 1.400 . S
C1367 C1368 1.398 . S
C1367 C1373 1.491 1_655 S
C1368 H1359 0.950 1_655 S
C1368 C1367 1.398 . S
C1368 C1369 1.391 . S
C1369 H1357 0.950 . S
C1369 C1365 1.393 . S
C1369 C1368 1.391 . S
C1370 H1360 0.950 . S
C1370 C1371 1.386 . S
C1370 C1372 1.391 . S
C1371 C1370 1.386 . S
C1371 C1375 1.393 . S
C1372 H1361 0.950 . S
C1372 C1370 1.391 . S
C1372 C1373 1.400 . S
C1373 C1367 1.491 1_455 S
C1373 C1372 1.400 . S
C1373 C1374 1.398 1_455 S
C1374 H1362 0.950 . S
C1374 C1373 1.398 1_655 S
C1374 C1375 1.391 1_655 S
C1375 H1363 0.950 . S
C1375 C1371 1.393 . S
C1375 C1374 1.391 1_455 S
H1376 C1384 0.950 . S
H1377 C1389 0.950 . S
H1378 C1386 0.950 . S
H1379 C1388 0.950 . S
H1380 C1390 0.950 . S
H1381 C1392 0.950 . S
H1382 C1394 0.950 . S
H1383 C1395 0.950 . S
C1384 H1376 0.950 . S
C1384 C1385 1.386 . S
C1384 C1386 1.391 . S
C1385 C1384 1.386 . S
C1385 C1389 1.393 . S
C1386 H1378 0.950 . S
C1386 C1384 1.391 . S
C1386 C1387 1.400 . S
C1387 C1386 1.400 . S
C1387 C1388 1.398 . S
C1387 C1393 1.491 . S
C1388 H1379 0.950 . S
C1388 C1387 1.398 . S
C1388 C1389 1.391 . S
C1389 H1377 0.950 . S
C1389 C1385 1.393 . S
C1389 C1388 1.391 . S
C1390 H1380 0.950 . S
C1390 C1391 1.386 . S
C1390 C1392 1.391 . S
C1391 C1390 1.386 . S
C1391 C1395 1.393 . S
C1392 H1381 0.950 . S
C1392 C1390 1.391 . S
C1392 C1393 1.400 . S
C1393 C1387 1.491 . S
C1393 C1392 1.400 . S
C1393 C1394 1.398 . S
C1394 H1382 0.950 . S
C1394 C1393 1.398 . S
C1394 C1395 1.391 . S
C1395 H1383 0.950 . S
C1395 C1391 1.393 . S
C1395 C1394 1.391 . S
H1396 C1404 0.950 . S
H1397 C1409 0.950 . S
H1398 C1406 0.950 1_655 S
H1399 C1408 0.950 . S
H1400 C1410 0.950 . S
H1401 C1412 0.950 . S
H1402 C1414 0.950 . S
H1403 C1415 0.950 . S
C1404 H1396 0.950 . S
C1404 C1405 1.386 . S
C1404 C1406 1.391 . S
C1405 C1404 1.386 . S
C1405 C1409 1.393 . S
C1406 H1398 0.950 1_455 S
C1406 C1404 1.391 . S
C1406 C1407 1.400 . S
C1407 C1406 1.400 . S
C1407 C1408 1.398 . S
C1407 C1413 1.491 1_455 S
C1408 H1399 0.950 . S
C1408 C1407 1.398 . S
C1408 C1409 1.391 . S
C1409 H1397 0.950 . S
C1409 C1405 1.393 . S
C1409 C1408 1.391 . S
C1410 H1400 0.950 . S
C1410 C1411 1.386 . S
C1410 C1412 1.391 1_655 S
C1411 C1410 1.386 . S
C1411 C1415 1.393 . S
C1412 H1401 0.950 . S
C1412 C1410 1.391 1_455 S
C1412 C1413 1.400 1_455 S
C1413 C1407 1.491 1_655 S
C1413 C1412 1.400 1_655 S
C1413 C1414 1.398 . S
C1414 H1402 0.950 . S
C1414 C1413 1.398 . S
C1414 C1415 1.391 . S
C1415 H1403 0.950 . S
C1415 C1411 1.393 . S
C1415 C1414 1.391 . S
H1416 C1424 0.950 . S
H1417 C1429 0.950 . S
H1418 C1426 0.950 . S
H1419 C1428 0.950 . S
H1420 C1430 0.950 . S
H1421 C1432 0.950 . S
H1422 C1434 0.950 . S
H1423 C1435 0.950 . S
C1424 H1416 0.950 . S
C1424 C1425 1.386 . S
C1424 C1426 1.391 . S
C1425 C1424 1.386 . S
C1425 C1429 1.393 . S
C1426 H1418 0.950 . S
C1426 C1424 1.391 . S
C1426 C1427 1.400 . S
C1427 C1426 1.400 . S
C1427 C1428 1.398 . S
C1427 C1433 1.491 . S
C1428 H1419 0.950 . S
C1428 C1427 1.398 . S
C1428 C1429 1.391 . S
C1429 H1417 0.950 . S
C1429 C1425 1.393 . S
C1429 C1428 1.391 . S
C1430 H1420 0.950 . S
C1430 C1431 1.386 . S
C1430 C1432 1.391 . S
C1431 C1430 1.386 . S
C1431 C1435 1.393 . S
C1432 H1421 0.950 . S
C1432 C1430 1.391 . S
C1432 C1433 1.400 . S
C1433 C1427 1.491 . S
C1433 C1432 1.400 . S
C1433 C1434 1.398 . S
C1434 H1422 0.950 . S
C1434 C1433 1.398 . S
C1434 C1435 1.391 . S
C1435 H1423 0.950 . S
C1435 C1431 1.393 . S
C1435 C1434 1.391 . S
H1436 C1444 0.950 . S
H1437 C1449 0.950 . S
H1438 C1446 0.950 1_655 S
H1439 C1448 0.950 . S
H1440 C1450 0.950 . S
H1441 C1452 0.950 1_455 S
H1442 C1454 0.950 . S
H1443 C1455 0.950 . S
C1444 H1436 0.950 . S
C1444 C1445 1.386 . S
C1444 C1446 1.391 . S
C1445 C1444 1.386 . S
C1445 C1449 1.393 . S
C1446 H1438 0.950 1_455 S
C1446 C1444 1.391 . S
C1446 C1447 1.400 . S
C1447 C1446 1.400 . S
C1447 C1448 1.398 . S
C1447 C1453 1.491 1_455 S
C1448 H1439 0.950 . S
C1448 C1447 1.398 . S
C1448 C1449 1.391 . S
C1449 H1437 0.950 . S
C1449 C1445 1.393 . S
C1449 C1448 1.391 . S
C1450 H1440 0.950 . S
C1450 C1451 1.386 . S
C1450 C1452 1.391 . S
C1451 C1450 1.386 . S
C1451 C1455 1.393 . S
C1452 H1441 0.950 1_655 S
C1452 C1450 1.391 . S
C1452 C1453 1.400 . S
C1453 C1447 1.491 1_655 S
C1453 C1452 1.400 . S
C1453 C1454 1.398 . S
C1454 H1442 0.950 . S
C1454 C1453 1.398 . S
C1454 C1455 1.391 . S
C1455 H1443 0.950 . S
C1455 C1451 1.393 . S
C1455 C1454 1.391 . S
H1456 C1464 0.950 . S
H1457 C1469 0.950 . S
H1458 C1466 0.950 . S
H1459 C1468 0.950 . S
H1460 C1470 0.950 . S
H1461 C1472 0.950 . S
H1462 C1474 0.950 . S
H1463 C1475 0.950 . S
C1464 H1456 0.950 . S
C1464 C1465 1.386 . S
C1464 C1466 1.391 . S
C1465 C1464 1.386 . S
C1465 C1469 1.393 . S
C1466 H1458 0.950 . S
C1466 C1464 1.391 . S
C1466 C1467 1.400 . S
C1467 C1466 1.400 . S
C1467 C1468 1.398 . S
C1467 C1473 1.491 . S
C1468 H1459 0.950 . S
C1468 C1467 1.398 . S
C1468 C1469 1.391 . S
C1469 H1457 0.950 . S
C1469 C1465 1.393 . S
C1469 C1468 1.391 . S
C1470 H1460 0.950 . S
C1470 C1471 1.386 . S
C1470 C1472 1.391 . S
C1471 C1470 1.386 . S
C1471 C1475 1.393 . S
C1472 H1461 0.950 . S
C1472 C1470 1.391 . S
C1472 C1473 1.400 . S
C1473 C1467 1.491 . S
C1473 C1472 1.400 . S
C1473 C1474 1.398 . S
C1474 H1462 0.950 . S
C1474 C1473 1.398 . S
C1474 C1475 1.391 . S
C1475 H1463 0.950 . S
C1475 C1471 1.393 . S
C1475 C1474 1.391 . S
H1476 C1484 0.950 . S
H1477 C1489 0.950 . S
H1478 C1486 0.950 . S
H1479 C1488 0.950 . S
H1480 C1490 0.950 . S
H1481 C1492 0.950 . S
H1482 C1494 0.950 . S
H1483 C1495 0.950 . S
C1484 H1476 0.950 . S
C1484 C1485 1.386 1_455 S
C1484 C1486 1.391 . S
C1485 C1484 1.386 1_655 S
C1485 C1489 1.393 . S
C1486 H1478 0.950 . S
C1486 C1484 1.391 . S
C1486 C1487 1.400 1_455 S
C1487 C1486 1.400 1_655 S
C1487 C1488 1.398 . S
C1487 C1493 1.491 1_665 S
C1488 H1479 0.950 . S
C1488 C1487 1.398 . S
C1488 C1489 1.391 . S
C1489 H1477 0.950 . S
C1489 C1485 1.393 . S
C1489 C1488 1.391 . S
C1490 H1480 0.950 . S
C1490 C1491 1.386 1_655 S
C1490 C1492 1.391 . S
C1491 C1490 1.386 1_455 S
C1491 C1495 1.393 . S
C1492 H1481 0.950 . S
C1492 C1490 1.391 . S
C1492 C1493 1.400 1_655 S
C1493 C1487 1.491 1_445 S
C1493 C1492 1.400 1_455 S
C1493 C1494 1.398 . S
C1494 H1482 0.950 . S
C1494 C1493 1.398 . S
C1494 C1495 1.391 . S
C1495 H1483 0.950 . S
C1495 C1491 1.393 . S
C1495 C1494 1.391 . S
H1496 C1504 0.950 . S
H1497 C1509 0.950 . S
H1498 C1506 0.950 . S
H1499 C1508 0.950 1_545 S
H1500 C1510 0.950 . S
H1501 C1512 0.950 . S
H1502 C1514 0.950 1_565 S
H1503 C1515 0.950 . S
C1504 H1496 0.950 . S
C1504 C1505 1.386 . S
C1504 C1506 1.391 . S
C1505 C1504 1.386 . S
C1505 C1509 1.393 . S
C1506 H1498 0.950 . S
C1506 C1504 1.391 . S
C1506 C1507 1.400 . S
C1507 C1506 1.400 . S
C1507 C1508 1.398 . S
C1507 C1513 1.491 1_565 S
C1508 H1499 0.950 1_565 S
C1508 C1507 1.398 . S
C1508 C1509 1.391 . S
C1509 H1497 0.950 . S
C1509 C1505 1.393 . S
C1509 C1508 1.391 . S
C1510 H1500 0.950 . S
C1510 C1511 1.386 . S
C1510 C1512 1.391 . S
C1511 C1510 1.386 . S
C1511 C1515 1.393 . S
C1512 H1501 0.950 . S
C1512 C1510 1.391 . S
C1512 C1513 1.400 . S
C1513 C1507 1.491 1_545 S
C1513 C1512 1.400 . S
C1513 C1514 1.398 . S
C1514 H1502 0.950 1_545 S
C1514 C1513 1.398 . S
C1514 C1515 1.391 . S
C1515 H1503 0.950 . S
C1515 C1511 1.393 . S
C1515 C1514 1.391 . S
H1516 C1524 0.950 . S
H1517 C1529 0.950 . S
H1518 C1526 0.950 . S
H1519 C1528 0.950 . S
H1520 C1530 0.950 . S
H1521 C1532 0.950 . S
H1522 C1534 0.950 . S
H1523 C1535 0.950 . S
C1524 H1516 0.950 . S
C1524 C1525 1.386 1_655 S
C1524 C1526 1.391 . S
C1525 C1524 1.386 1_455 S
C1525 C1529 1.393 . S
C1526 H1518 0.950 . S
C1526 C1524 1.391 . S
C1526 C1527 1.400 1_655 S
C1527 C1526 1.400 1_455 S
C1527 C1528 1.398 . S
C1527 C1533 1.491 1_455 S
C1528 H1519 0.950 . S
C1528 C1527 1.398 . S
C1528 C1529 1.391 . S
C1529 H1517 0.950 . S
C1529 C1525 1.393 . S
C1529 C1528 1.391 . S
C1530 H1520 0.950 . S
C1530 C1531 1.386 1_455 S
C1530 C1532 1.391 . S
C1531 C1530 1.386 1_655 S
C1531 C1535 1.393 . S
C1532 H1521 0.950 . S
C1532 C1530 1.391 . S
C1532 C1533 1.400 1_455 S
C1533 C1527 1.491 1_655 S
C1533 C1532 1.400 1_655 S
C1533 C1534 1.398 . S
C1534 H1522 0.950 . S
C1534 C1533 1.398 . S
C1534 C1535 1.391 . S
C1535 H1523 0.950 . S
C1535 C1531 1.393 . S
C1535 C1534 1.391 . S
H1536 C1544 0.950 . S
H1537 C1549 0.950 . S
H1538 C1546 0.950 . S
H1539 C1548 0.950 . S
H1540 C1550 0.950 . S
H1541 C1552 0.950 . S
H1542 C1554 0.950 . S
H1543 C1555 0.950 . S
C1544 H1536 0.950 . S
C1544 C1545 1.386 . S
C1544 C1546 1.391 . S
C1545 C1544 1.386 . S
C1545 C1549 1.393 . S
C1546 H1538 0.950 . S
C1546 C1544 1.391 . S
C1546 C1547 1.400 . S
C1547 C1546 1.400 . S
C1547 C1548 1.398 . S
C1547 C1553 1.491 . S
C1548 H1539 0.950 . S
C1548 C1547 1.398 . S
C1548 C1549 1.391 . S
C1549 H1537 0.950 . S
C1549 C1545 1.393 . S
C1549 C1548 1.391 . S
C1550 H1540 0.950 . S
C1550 C1551 1.386 . S
C1550 C1552 1.391 . S
C1551 C1550 1.386 . S
C1551 C1555 1.393 . S
C1552 H1541 0.950 . S
C1552 C1550 1.391 . S
C1552 C1553 1.400 . S
C1553 C1547 1.491 . S
C1553 C1552 1.400 . S
C1553 C1554 1.398 . S
C1554 H1542 0.950 . S
C1554 C1553 1.398 . S
C1554 C1555 1.391 . S
C1555 H1543 0.950 . S
C1555 C1551 1.393 . S
C1555 C1554 1.391 . S
H1556 C1564 0.950 . S
H1557 C1569 0.950 . S
H1558 C1566 0.950 . S
H1559 C1568 0.950 . S
H1560 C1570 0.950 . S
H1561 C1572 0.950 . S
H1562 C1574 0.950 . S
H1563 C1575 0.950 . S
C1564 H1556 0.950 . S
C1564 C1565 1.386 . S
C1564 C1566 1.391 1_565 S
C1565 C1564 1.386 . S
C1565 C1569 1.393 . S
C1566 H1558 0.950 . S
C1566 C1564 1.391 1_545 S
C1566 C1567 1.400 1_545 S
C1567 C1566 1.400 1_565 S
C1567 C1568 1.398 . S
C1567 C1573 1.491 1_565 S
C1568 H1559 0.950 . S
C1568 C1567 1.398 . S
C1568 C1569 1.391 . S
C1569 H1557 0.950 . S
C1569 C1565 1.393 . S
C1569 C1568 1.391 . S
C1570 H1560 0.950 . S
C1570 C1571 1.386 . S
C1570 C1572 1.391 1_545 S
C1571 C1570 1.386 . S
C1571 C1575 1.393 . S
C1572 H1561 0.950 . S
C1572 C1570 1.391 1_565 S
C1572 C1573 1.400 1_565 S
C1573 C1567 1.491 1_545 S
C1573 C1572 1.400 1_545 S
C1573 C1574 1.398 . S
C1574 H1562 0.950 . S
C1574 C1573 1.398 . S
C1574 C1575 1.391 . S
C1575 H1563 0.950 . S
C1575 C1571 1.393 . S
C1575 C1574 1.391 . S
H1576 C1584 0.950 . S
H1577 C1589 0.950 . S
H1578 C1586 0.950 . S
H1579 C1588 0.950 . S
H1580 C1590 0.950 . S
H1581 C1592 0.950 . S
H1582 C1594 0.950 . S
H1583 C1595 0.950 . S
C1584 H1576 0.950 . S
C1584 C1585 1.386 . S
C1584 C1586 1.391 . S
C1585 C1584 1.386 . S
C1585 C1589 1.393 1_455 S
C1586 H1578 0.950 . S
C1586 C1584 1.391 . S
C1586 C1587 1.400 . S
C1587 C1586 1.400 . S
C1587 C1588 1.398 1_455 S
C1587 C1593 1.491 1_455 S
C1588 H1579 0.950 . S
C1588 C1587 1.398 1_655 S
C1588 C1589 1.391 . S
C1589 H1577 0.950 . S
C1589 C1585 1.393 1_655 S
C1589 C1588 1.391 . S
C1590 H1580 0.950 . S
C1590 C1591 1.386 . S
C1590 C1592 1.391 . S
C1591 C1590 1.386 . S
C1591 C1595 1.393 1_655 S
C1592 H1581 0.950 . S
C1592 C1590 1.391 . S
C1592 C1593 1.400 . S
C1593 C1587 1.491 1_655 S
C1593 C1592 1.400 . S
C1593 C1594 1.398 1_655 S
C1594 H1582 0.950 . S
C1594 C1593 1.398 1_455 S
C1594 C1595 1.391 . S
C1595 H1583 0.950 . S
C1595 C1591 1.393 1_455 S
C1595 C1594 1.391 . S
H1596 C1604 0.950 . S
H1597 C1609 0.950 . S
H1598 C1606 0.950 . S
H1599 C1608 0.950 . S
H1600 C1610 0.950 . S
H1601 C1612 0.950 . S
H1602 C1614 0.950 . S
H1603 C1615 0.950 . S
C1604 H1596 0.950 . S
C1604 C1605 1.386 . S
C1604 C1606 1.391 . S
C1605 C1604 1.386 . S
C1605 C1609 1.393 . S
C1606 H1598 0.950 . S
C1606 C1604 1.391 . S
C1606 C1607 1.400 . S
C1607 C1606 1.400 . S
C1607 C1608 1.398 . S
C1607 C1613 1.491 1_554 S
C1608 H1599 0.950 . S
C1608 C1607 1.398 . S
C1608 C1609 1.391 . S
C1609 H1597 0.950 . S
C1609 C1605 1.393 . S
C1609 C1608 1.391 . S
C1610 H1600 0.950 . S
C1610 C1611 1.386 . S
C1610 C1612 1.391 . S
C1611 C1610 1.386 . S
C1611 C1615 1.393 . S
C1612 H1601 0.950 . S
C1612 C1610 1.391 . S
C1612 C1613 1.400 . S
C1613 C1607 1.491 1_556 S
C1613 C1612 1.400 . S
C1613 C1614 1.398 . S
C1614 H1602 0.950 . S
C1614 C1613 1.398 . S
C1614 C1615 1.391 . S
C1615 H1603 0.950 . S
C1615 C1611 1.393 . S
C1615 C1614 1.391 . S
H1616 C1624 0.950 . S
H1617 C1629 0.950 . S
H1618 C1626 0.950 . S
H1619 C1628 0.924 1_554 S
H1620 C1630 0.950 . S
H1621 C1632 0.950 . S
H1622 C1634 0.924 1_556 S
H1623 C1635 0.950 . S
C1624 H1616 0.950 . S
C1624 C1625 1.386 1_655 S
C1624 C1626 1.391 . S
C1625 C1624 1.386 1_455 S
C1625 C1629 1.393 . S
C1626 H1618 0.950 . S
C1626 C1624 1.391 . S
C1626 C1627 1.400 1_655 S
C1627 C1626 1.400 1_455 S
C1627 C1628 1.398 . S
C1627 C1633 1.491 1_456 S
C1628 H1619 0.924 1_556 S
C1628 C1627 1.398 . S
C1628 C1629 1.391 . S
C1629 H1617 0.950 . S
C1629 C1625 1.393 . S
C1629 C1628 1.391 . S
C1630 H1620 0.950 . S
C1630 C1631 1.386 1_455 S
C1630 C1632 1.391 . S
C1631 C1630 1.386 1_655 S
C1631 C1635 1.393 . S
C1632 H1621 0.950 . S
C1632 C1630 1.391 . S
C1632 C1633 1.400 1_455 S
C1633 C1627 1.491 1_654 S
C1633 C1632 1.400 1_655 S
C1633 C1634 1.398 . S
C1634 H1622 0.924 1_554 S
C1634 C1633 1.398 . S
C1634 C1635 1.391 . S
C1635 H1623 0.950 . S
C1635 C1631 1.393 . S
C1635 C1634 1.391 . S
H1636 C1644 0.950 . S
H1637 C1649 0.950 . S
H1638 C1646 0.950 . S
H1639 C1648 0.950 . S
H1640 C1650 0.950 . S
H1641 C1652 0.950 . S
H1642 C1654 0.950 . S
H1643 C1655 0.950 . S
C1644 H1636 0.950 . S
C1644 C1645 1.386 . S
C1644 C1646 1.391 . S
C1645 C1644 1.386 . S
C1645 C1649 1.393 . S
C1646 H1638 0.950 . S
C1646 C1644 1.391 . S
C1646 C1647 1.400 . S
C1647 C1646 1.400 . S
C1647 C1648 1.398 . S
C1647 C1653 1.491 . S
C1648 H1639 0.950 . S
C1648 C1647 1.398 . S
C1648 C1649 1.391 . S
C1649 H1637 0.950 . S
C1649 C1645 1.393 . S
C1649 C1648 1.391 . S
C1650 H1640 0.950 . S
C1650 C1651 1.386 . S
C1650 C1652 1.391 . S
C1651 C1650 1.386 . S
C1651 C1655 1.393 . S
C1652 H1641 0.950 . S
C1652 C1650 1.391 . S
C1652 C1653 1.400 . S
C1653 C1647 1.491 . S
C1653 C1652 1.400 . S
C1653 C1654 1.398 . S
C1654 H1642 0.950 . S
C1654 C1653 1.398 . S
C1654 C1655 1.391 . S
C1655 H1643 0.950 . S
C1655 C1651 1.393 . S
C1655 C1654 1.391 . S
H1656 C1664 0.950 . S
H1657 C1669 0.950 . S
H1658 C1666 0.950 . S
H1659 C1668 0.911 1_554 S
H1660 C1670 0.950 . S
H1661 C1672 0.950 . S
H1662 C1674 0.910 1_556 S
H1663 C1675 0.950 . S
C1664 H1656 0.950 . S
C1664 C1665 1.386 . S
C1664 C1666 1.391 . S
C1665 C1664 1.386 . S
C1665 C1669 1.393 . S
C1666 H1658 0.950 . S
C1666 C1664 1.391 . S
C1666 C1667 1.400 . S
C1667 C1666 1.400 . S
C1667 C1668 1.398 . S
C1667 C1673 1.491 1_556 S
C1668 H1659 0.911 1_556 S
C1668 C1667 1.398 . S
C1668 C1669 1.391 . S
C1669 H1657 0.950 . S
C1669 C1665 1.393 . S
C1669 C1668 1.391 . S
C1670 H1660 0.950 . S
C1670 C1671 1.386 . S
C1670 C1672 1.391 . S
C1671 C1670 1.386 . S
C1671 C1675 1.393 . S
C1672 H1661 0.950 . S
C1672 C1670 1.391 . S
C1672 C1673 1.400 . S
C1673 C1667 1.491 1_554 S
C1673 C1672 1.400 . S
C1673 C1674 1.398 . S
C1674 H1662 0.910 1_554 S
C1674 C1673 1.398 . S
C1674 C1675 1.391 . S
C1675 H1663 0.950 . S
C1675 C1671 1.393 . S
C1675 C1674 1.391 . S
H1676 C1684 0.950 . S
H1677 C1689 0.950 . S
H1678 C1686 0.950 . S
H1679 C1688 0.950 . S
H1680 C1690 0.950 . S
H1681 C1692 0.950 . S
H1682 C1694 0.950 . S
H1683 C1695 0.950 . S
C1684 H1676 0.950 . S
C1684 C1685 1.386 . S
C1684 C1686 1.391 . S
C1685 C1684 1.386 . S
C1685 C1689 1.393 . S
C1686 H1678 0.950 . S
C1686 C1684 1.391 . S
C1686 C1687 1.400 . S
C1687 C1686 1.400 . S
C1687 C1688 1.398 . S
C1687 C1693 1.491 . S
C1688 H1679 0.950 . S
C1688 C1687 1.398 . S
C1688 C1689 1.391 . S
C1689 H1677 0.950 . S
C1689 C1685 1.393 . S
C1689 C1688 1.391 . S
C1690 H1680 0.950 . S
C1690 C1691 1.386 . S
C1690 C1692 1.391 . S
C1691 C1690 1.386 . S
C1691 C1695 1.393 . S
C1692 H1681 0.950 . S
C1692 C1690 1.391 . S
C1692 C1693 1.400 . S
C1693 C1687 1.491 . S
C1693 C1692 1.400 . S
C1693 C1694 1.398 . S
C1694 H1682 0.950 . S
C1694 C1693 1.398 . S
C1694 C1695 1.391 . S
C1695 H1683 0.950 . S
C1695 C1691 1.393 . S
C1695 C1694 1.391 . S
H1696 C1704 0.950 . S
H1697 C1709 0.950 . S
H1698 C1706 0.950 1_565 S
H1699 C1708 0.950 1_554 S
H1700 C1710 0.950 . S
H1701 C1712 0.950 1_545 S
H1702 C1714 0.950 1_556 S
H1703 C1715 0.950 . S
C1704 H1696 0.950 . S
C1704 C1705 1.386 . S
C1704 C1706 1.391 . S
C1705 C1704 1.386 . S
C1705 C1709 1.393 . S
C1706 H1698 0.950 1_545 S
C1706 C1704 1.391 . S
C1706 C1707 1.400 . S
C1707 C1706 1.400 . S
C1707 C1708 1.398 . S
C1707 C1713 1.491 1_546 S
C1708 H1699 0.950 1_556 S
C1708 C1707 1.398 . S
C1708 C1709 1.391 . S
C1709 H1697 0.950 . S
C1709 C1705 1.393 . S
C1709 C1708 1.391 . S
C1710 H1700 0.950 . S
C1710 C1711 1.386 . S
C1710 C1712 1.391 . S
C1711 C1710 1.386 . S
C1711 C1715 1.393 . S
C1712 H1701 0.950 1_565 S
C1712 C1710 1.391 . S
C1712 C1713 1.400 . S
C1713 C1707 1.491 1_564 S
C1713 C1712 1.400 . S
C1713 C1714 1.398 . S
C1714 H1702 0.950 1_554 S
C1714 C1713 1.398 . S
C1714 C1715 1.391 . S
C1715 H1703 0.950 . S
C1715 C1711 1.393 . S
C1715 C1714 1.391 . S
H1716 C1724 0.950 . S
H1717 C1729 0.950 . S
H1718 C1726 0.950 . S
H1719 C1728 0.950 . S
H1720 C1730 0.950 . S
H1721 C1732 0.950 . S
H1722 C1734 0.950 . S
H1723 C1735 0.950 . S
C1724 H1716 0.950 . S
C1724 C1725 1.386 . S
C1724 C1726 1.391 . S
C1725 C1724 1.386 . S
C1725 C1729 1.393 . S
C1726 H1718 0.950 . S
C1726 C1724 1.391 . S
C1726 C1727 1.400 . S
C1727 C1726 1.400 . S
C1727 C1728 1.398 . S
C1727 C1733 1.491 . S
C1728 H1719 0.950 . S
C1728 C1727 1.398 . S
C1728 C1729 1.391 . S
C1729 H1717 0.950 . S
C1729 C1725 1.393 . S
C1729 C1728 1.391 . S
C1730 H1720 0.950 . S
C1730 C1731 1.386 . S
C1730 C1732 1.391 . S
C1731 C1730 1.386 . S
C1731 C1735 1.393 . S
C1732 H1721 0.950 . S
C1732 C1730 1.391 . S
C1732 C1733 1.400 . S
C1733 C1727 1.491 . S
C1733 C1732 1.400 . S
C1733 C1734 1.398 . S
C1734 H1722 0.950 . S
C1734 C1733 1.398 . S
C1734 C1735 1.391 . S
C1735 H1723 0.950 . S
C1735 C1731 1.393 . S
C1735 C1734 1.391 . S
H1736 C1744 0.950 . S
H1737 C1749 0.950 . S
H1738 C1746 0.950 . S
H1739 C1748 0.950 . S
H1740 C1750 0.950 . S
H1741 C1752 0.950 . S
H1742 C1754 0.950 . S
H1743 C1755 0.950 . S
C1744 H1736 0.950 . S
C1744 C1745 1.386 . S
C1744 C1746 1.391 . S
C1745 C1744 1.386 . S
C1745 C1749 1.393 . S
C1746 H1738 0.950 . S
C1746 C1744 1.391 . S
C1746 C1747 1.400 . S
C1747 C1746 1.400 . S
C1747 C1748 1.398 . S
C1747 C1753 1.491 . S
C1748 H1739 0.950 . S
C1748 C1747 1.398 . S
C1748 C1749 1.391 . S
C1749 H1737 0.950 . S
C1749 C1745 1.393 . S
C1749 C1748 1.391 . S
C1750 H1740 0.950 . S
C1750 C1751 1.386 . S
C1750 C1752 1.391 . S
C1751 C1750 1.386 . S
C1751 C1755 1.393 . S
C1752 H1741 0.950 . S
C1752 C1750 1.391 . S
C1752 C1753 1.400 . S
C1753 C1747 1.491 . S
C1753 C1752 1.400 . S
C1753 C1754 1.398 . S
C1754 H1742 0.950 . S
C1754 C1753 1.398 . S
C1754 C1755 1.391 . S
C1755 H1743 0.950 . S
C1755 C1751 1.393 . S
C1755 C1754 1.391 . S
H1756 C1764 0.950 . S
H1757 C1769 0.950 . S
H1758 C1766 0.950 . S
H1759 C1768 0.950 . S
H1760 C1770 0.950 . S
H1761 C1772 0.950 . S
H1762 C1774 0.950 . S
H1763 C1775 0.950 . S
C1764 H1756 0.950 . S
C1764 C1765 1.386 . S
C1764 C1766 1.391 . S
C1765 C1764 1.386 . S
C1765 C1769 1.393 . S
C1766 H1758 0.950 . S
C1766 C1764 1.391 . S
C1766 C1767 1.400 . S
C1767 C1766 1.400 . S
C1767 C1768 1.398 . S
C1767 C1773 1.491 . S
C1768 H1759 0.950 . S
C1768 C1767 1.398 . S
C1768 C1769 1.391 . S
C1769 H1757 0.950 . S
C1769 C1765 1.393 . S
C1769 C1768 1.391 . S
C1770 H1760 0.950 . S
C1770 C1771 1.386 . S
C1770 C1772 1.391 . S
C1771 C1770 1.386 . S
C1771 C1775 1.393 . S
C1772 H1761 0.950 . S
C1772 C1770 1.391 . S
C1772 C1773 1.400 . S
C1773 C1767 1.491 . S
C1773 C1772 1.400 . S
C1773 C1774 1.398 . S
C1774 H1762 0.950 . S
C1774 C1773 1.398 . S
C1774 C1775 1.391 . S
C1775 H1763 0.950 . S
C1775 C1771 1.393 . S
C1775 C1774 1.391 . S
C505 C27 0.734 . S
C511 C373 0.734 . S
C525 C1 0.692 1_565 S
C531 C399 0.692 . S
C545 C58 0.693 . S
C551 C404 0.693 . S
C565 C32 0.693 . S
C571 C430 0.693 . S
C585 C461 0.715 . S
C591 C63 0.715 . S
C605 C89 0.720 1_545 S
C611 C435 0.720 . S
C625 C94 0.693 . S
C631 C492 0.693 . S
C645 C120 0.705 . S
C651 C466 0.705 . S
C665 C249 0.735 1_565 S
C671 C151 0.735 . S
C685 C275 0.697 . S
C691 C125 0.697 . S
C705 C280 0.744 . S
C711 C182 0.744 . S
C725 C306 0.705 . S
C731 C156 0.705 . S
C745 C337 0.721 1_545 S
C751 C187 0.721 . S
C765 C213 0.708 . S
C771 C311 0.708 . S
C785 C368 0.731 . S
C791 C218 0.731 . S
C805 C244 0.705 . S
C811 C342 0.705 . S
C825 C2 1.956 1_565 S
C831 C382 1.956 . S
C845 C10 1.953 . S
C851 C374 1.953 . S
C865 C33 1.962 . S
C871 C413 1.962 . S
C885 C405 1.949 . S
C891 C41 1.949 1_565 S
C905 C436 1.961 . S
C911 C72 1.961 1_545 S
C925 C444 1.966 . S
C931 C64 1.966 . S
C945 C467 1.957 . S
C951 C103 1.957 . S
C965 C475 1.952 . S
C971 C95 1.952 1_545 S
C985 C126 1.947 . S
C991 C258 1.947 . S
C1005 C134 1.965 . S
C1011 C250 1.965 1_565 S
C1025 C157 1.965 . S
C1031 C289 1.965 1_565 S
C1045 C165 1.947 . S
C1051 C281 1.947 . S
C1065 C312 1.949 . S
C1071 C196 1.949 . S
C1085 C320 1.947 1_545 S
C1091 C188 1.947 . S
C1105 C343 1.958 1_545 S
C1111 C227 1.958 . S
C1125 C219 1.955 . S
C1131 C351 1.955 . S
C1145 C24 1.853 . S
C1151 C290 1.810 . S
C1165 C303 1.846 . S
C1171 C11 1.808 . S
C1185 C259 1.807 . S
C1191 C55 1.845 . S
C1205 C272 1.853 . S
C1211 C42 1.809 . S
C1225 C359 1.788 . S
C1231 C62 1.844 . S
C1245 C80 1.802 . S
C1251 C341 1.853 . S
C1265 C93 1.852 . S
C1271 C328 1.810 . S
C1285 C111 1.793 . S
C1291 C310 1.848 . S
C1305 C414 1.800 . S
C1311 C148 1.852 . S
C1325 C135 1.792 . S
C1331 C427 1.837 . S
C1345 C179 1.854 . S
C1351 C383 1.803 . S
C1365 C396 1.843 . S
C1371 C166 1.787 . S
C1385 C483 1.786 . S
C1391 C186 1.838 . S
C1405 C465 1.840 . S
C1411 C204 1.786 . S
C1425 C452 1.810 . S
C1431 C217 1.850 . S
C1445 C434 1.836 . S
C1451 C235 1.787 . S
C1465 C445 2.094 . S
C1471 C18 2.094 . S
C1485 C86 1.238 . S
C1491 C0 1.238 . S
C1505 C352 2.084 . S
C1511 C49 2.084 . S
C1525 C31 1.200 . S
C1531 C241 1.200 . S
C1545 C390 2.084 . S
C1551 C73 2.084 . S
C1565 C104 2.100 . S
C1571 C297 2.100 . S
C1585 C155 1.236 . S
C1591 C117 1.236 . S
C1605 C321 2.085 . S
C1611 C142 2.085 . S
C1625 C124 1.194 . S
C1631 C210 1.194 . S
C1645 C173 2.097 . S
C1651 C476 2.097 . S
C1665 C266 2.084 . S
C1671 C197 2.084 . S
C1685 C421 2.085 . S
C1691 C228 2.085 . S
C1705 C248 1.209 . S
C1711 C334 1.209 . S
C1725 C279 1.220 . S
C1731 C489 1.220 . S
C1745 C403 1.197 . S
C1751 C365 1.197 . S
C1765 C458 1.225 . S
C1771 C372 1.225 . S
