# Generated by pormake.
# Topology snl, (6)-cn, num edge types: 1
# Building blocks:
#     Node 0, Type 0, BuildingBlock: CUKXOW_clean_sbu_0, # of connection points: 6
#     Node 1, Type 0, BuildingBlock: CUKXOW_clean_sbu_0, # of connection points: 6
#     Node 2, Type 0, BuildingBlock: CUKXOW_clean_sbu_0, # of connection points: 6
#     Node 3, Type 0, BuildingBlock: CUKXOW_clean_sbu_0, # of connection points: 6
#     Node 4, Type 0, BuildingBlock: CUKXOW_clean_sbu_0, # of connection points: 6
#     Node 5, Type 0, BuildingBlock: CUKXOW_clean_sbu_0, # of connection points: 6
#     Node 6, Type 0, BuildingBlock: CUKXOW_clean_sbu_0, # of connection points: 6
#     Node 7, Type 0, BuildingBlock: CUKXOW_clean_sbu_0, # of connection points: 6
#     Node 8, Type 0, BuildingBlock: CUKXOW_clean_sbu_0, # of connection points: 6
#     Node 9, Type 0, BuildingBlock: CUKXOW_clean_sbu_0, # of connection points: 6
#     Node 10, Type 0, BuildingBlock: CUKXOW_clean_sbu_0, # of connection points: 6
#     Node 11, Type 0, BuildingBlock: CUKXOW_clean_sbu_0, # of connection points: 6
#     Node 12, Type 0, BuildingBlock: CUKXOW_clean_sbu_0, # of connection points: 6
#     Node 13, Type 0, BuildingBlock: CUKXOW_clean_sbu_0, # of connection points: 6
#     Node 14, Type 0, BuildingBlock: CUKXOW_clean_sbu_0, # of connection points: 6
#     Node 15, Type 0, BuildingBlock: CUKXOW_clean_sbu_0, # of connection points: 6
#     Edge 16, Type (0, 0), BuildingBlock: CIFDUS_clean_linker_0, # of connection points: 2
#     Edge 17, Type (0, 0), BuildingBlock: CIFDUS_clean_linker_0, # of connection points: 2
#     Edge 18, Type (0, 0), BuildingBlock: CIFDUS_clean_linker_0, # of connection points: 2
#     Edge 19, Type (0, 0), BuildingBlock: CIFDUS_clean_linker_0, # of connection points: 2
#     Edge 20, Type (0, 0), BuildingBlock: CIFDUS_clean_linker_0, # of connection points: 2
#     Edge 21, Type (0, 0), BuildingBlock: CIFDUS_clean_linker_0, # of connection points: 2
#     Edge 22, Type (0, 0), BuildingBlock: CIFDUS_clean_linker_0, # of connection points: 2
#     Edge 23, Type (0, 0), BuildingBlock: CIFDUS_clean_linker_0, # of connection points: 2
#     Edge 24, Type (0, 0), BuildingBlock: CIFDUS_clean_linker_0, # of connection points: 2
#     Edge 25, Type (0, 0), BuildingBlock: CIFDUS_clean_linker_0, # of connection points: 2
#     Edge 26, Type (0, 0), BuildingBlock: CIFDUS_clean_linker_0, # of connection points: 2
#     Edge 27, Type (0, 0), BuildingBlock: CIFDUS_clean_linker_0, # of connection points: 2
#     Edge 28, Type (0, 0), BuildingBlock: CIFDUS_clean_linker_0, # of connection points: 2
#     Edge 29, Type (0, 0), BuildingBlock: CIFDUS_clean_linker_0, # of connection points: 2
#     Edge 30, Type (0, 0), BuildingBlock: CIFDUS_clean_linker_0, # of connection points: 2
#     Edge 31, Type (0, 0), BuildingBlock: CIFDUS_clean_linker_0, # of connection points: 2
#     Edge 32, Type (0, 0), BuildingBlock: CIFDUS_clean_linker_0, # of connection points: 2
#     Edge 33, Type (0, 0), BuildingBlock: CIFDUS_clean_linker_0, # of connection points: 2
#     Edge 34, Type (0, 0), BuildingBlock: CIFDUS_clean_linker_0, # of connection points: 2
#     Edge 35, Type (0, 0), BuildingBlock: CIFDUS_clean_linker_0, # of connection points: 2
#     Edge 36, Type (0, 0), BuildingBlock: CIFDUS_clean_linker_0, # of connection points: 2
#     Edge 37, Type (0, 0), BuildingBlock: CIFDUS_clean_linker_0, # of connection points: 2
#     Edge 38, Type (0, 0), BuildingBlock: CIFDUS_clean_linker_0, # of connection points: 2
#     Edge 39, Type (0, 0), BuildingBlock: CIFDUS_clean_linker_0, # of connection points: 2
#     Edge 40, Type (0, 0), BuildingBlock: CIFDUS_clean_linker_0, # of connection points: 2
#     Edge 41, Type (0, 0), BuildingBlock: CIFDUS_clean_linker_0, # of connection points: 2
#     Edge 42, Type (0, 0), BuildingBlock: CIFDUS_clean_linker_0, # of connection points: 2
#     Edge 43, Type (0, 0), BuildingBlock: CIFDUS_clean_linker_0, # of connection points: 2
#     Edge 44, Type (0, 0), BuildingBlock: CIFDUS_clean_linker_0, # of connection points: 2
#     Edge 45, Type (0, 0), BuildingBlock: CIFDUS_clean_linker_0, # of connection points: 2
#     Edge 46, Type (0, 0), BuildingBlock: CIFDUS_clean_linker_0, # of connection points: 2
#     Edge 47, Type (0, 0), BuildingBlock: CIFDUS_clean_linker_0, # of connection points: 2
#     Edge 48, Type (0, 0), BuildingBlock: CIFDUS_clean_linker_0, # of connection points: 2
#     Edge 49, Type (0, 0), BuildingBlock: CIFDUS_clean_linker_0, # of connection points: 2
#     Edge 50, Type (0, 0), BuildingBlock: CIFDUS_clean_linker_0, # of connection points: 2
#     Edge 51, Type (0, 0), BuildingBlock: CIFDUS_clean_linker_0, # of connection points: 2
#     Edge 52, Type (0, 0), BuildingBlock: CIFDUS_clean_linker_0, # of connection points: 2
#     Edge 53, Type (0, 0), BuildingBlock: CIFDUS_clean_linker_0, # of connection points: 2
#     Edge 54, Type (0, 0), BuildingBlock: CIFDUS_clean_linker_0, # of connection points: 2
#     Edge 55, Type (0, 0), BuildingBlock: CIFDUS_clean_linker_0, # of connection points: 2
#     Edge 56, Type (0, 0), BuildingBlock: CIFDUS_clean_linker_0, # of connection points: 2
#     Edge 57, Type (0, 0), BuildingBlock: CIFDUS_clean_linker_0, # of connection points: 2
#     Edge 58, Type (0, 0), BuildingBlock: CIFDUS_clean_linker_0, # of connection points: 2
#     Edge 59, Type (0, 0), BuildingBlock: CIFDUS_clean_linker_0, # of connection points: 2
#     Edge 60, Type (0, 0), BuildingBlock: CIFDUS_clean_linker_0, # of connection points: 2
#     Edge 61, Type (0, 0), BuildingBlock: CIFDUS_clean_linker_0, # of connection points: 2
#     Edge 62, Type (0, 0), BuildingBlock: CIFDUS_clean_linker_0, # of connection points: 2
#     Edge 63, Type (0, 0), BuildingBlock: CIFDUS_clean_linker_0, # of connection points: 2
# Relax obj value: 0.194
# Max RMSD: 0.286
# Mean RMSD: 0.225
data_MOF--net-snl--node1-CUKXOW_clean_sbu_0--edge1-CIFDUS_clean_linker_0
_symmetry_space_group_name_H-M    P1
_symmetry_Int_Tables_number       1
_symmetry_cell_setting            triclinic
loop_
_symmetry_equiv_pos_as_xyz
'x, y, z'
_cell_length_a     59.176317
_cell_length_b     56.954405
_cell_length_c     12.578124
_cell_angle_alpha  94.634595
_cell_angle_beta   94.824605
_cell_angle_gamma 90.307873
loop_
_atom_site_label
_atom_site_type_symbol
_atom_site_fract_x
_atom_site_fract_y
_atom_site_fract_z
_atom_type_partial_charge
Tb0 Tb 0.1253 0.62926 0.19039 0.0
C1 C 0.15577 0.67448 0.24864 0.0
Tb2 Tb 0.17368 0.62455 0.22228 0.0
O3 O 0.12053 0.61011 0.32987 0.0
O4 O 0.14858 0.63238 0.33152 0.0
O5 O 0.13703 0.66579 0.19461 0.0
C6 C 0.21644 0.6141 0.28285 0.0
O7 O 0.17201 0.66076 0.28491 0.0
C8 C 0.16013 0.63553 1.02668 0.0
C9 C 0.14362 0.57866 0.15927 0.0
O10 O 0.20969 0.62449 0.19849 0.0
O11 O 0.19909 0.60956 0.33444 0.0
O12 O 0.17863 0.6431 0.08101 0.0
O13 O 0.15039 0.62135 0.08098 0.0
O14 O 0.16369 0.58751 0.19697 0.0
O15 O 0.12586 0.59212 0.14064 0.0
C16 C 0.08228 0.64071 0.13908 0.0
O17 O 0.09357 0.64564 0.23074 0.0
O18 O 0.09522 0.6293 0.07512 0.0
C19 C 0.13886 0.61798 0.38497 0.0
Tb20 Tb 0.59439 0.88296 0.44917 0.0
C21 C 0.61785 0.83277 0.43944 0.0
Tb22 Tb 0.64433 0.88098 0.44412 0.0
O23 O 0.59181 0.90087 0.30191 0.0
O24 O 0.61674 0.87587 0.32353 0.0
O25 O 0.60015 0.84534 0.46779 0.0
C26 C 0.68806 0.88358 0.39649 0.0
O27 O 0.63657 0.84314 0.41309 0.0
C28 C 0.63067 0.87353 0.63385 0.0
C29 C 0.62045 0.93121 0.48007 0.0
O30 O 0.68055 0.88894 0.48922 0.0
O31 O 0.67083 0.87692 0.32982 0.0
O32 O 0.64834 0.86414 0.59378 0.0
O33 O 0.62215 0.88798 0.57019 0.0
O34 O 0.63862 0.91962 0.44905 0.0
O35 O 0.60166 0.91989 0.49743 0.0
C36 C 0.54924 0.88079 0.46802 0.0
O37 O 0.56432 0.89069 0.5389 0.0
O38 O 0.55973 0.8716 0.38865 0.0
C39 C 0.60892 0.89076 0.2608 0.0
Tb40 Tb 0.42231 0.35879 0.6191 0.0
C41 C 0.39568 0.31341 0.64763 0.0
Tb42 Tb 0.37174 0.36258 0.62672 0.0
O43 O 0.4274 0.35105 0.78734 0.0
O44 O 0.40037 0.37161 0.73586 0.0
O45 O 0.41381 0.32183 0.60836 0.0
C46 C 0.32919 0.36328 0.68142 0.0
O47 O 0.37847 0.32696 0.67348 0.0
C48 C 0.38533 0.36059 0.43221 0.0
C49 C 0.3988 0.40745 0.59019 0.0
O50 O 0.3363 0.35045 0.60133 0.0
O51 O 0.34598 0.37561 0.73018 0.0
O52 O 0.36702 0.3711 0.45936 0.0
O53 O 0.3937 0.3499 0.51003 0.0
O54 O 0.38063 0.39964 0.63169 0.0
O55 O 0.41544 0.39336 0.56314 0.0
C56 C 0.46499 0.3603 0.56875 0.0
O57 O 0.45533 0.3764 0.62723 0.0
O58 O 0.45075 0.34317 0.53944 0.0
C59 C 0.40891 0.36116 0.81411 0.0
Tb60 Tb 0.88591 0.15612 0.92478 0.0
C61 C 0.93453 0.13307 0.94829 0.0
Tb62 Tb 0.88981 0.10459 0.9415 0.0
O63 O 0.86952 0.1594 0.0744 0.0
O64 O 0.89452 0.13439 0.05565 0.0
O65 O 0.92225 0.14997 0.90535 0.0
C66 C 0.88649 0.06049 1.00528 0.0
O67 O 0.92465 0.11539 0.98985 0.0
C68 C 0.89484 0.11703 0.74555 0.0
C69 C 0.8407 0.1262 0.89724 0.0
O70 O 0.89736 0.06657 0.92623 0.0
O71 O 0.8777 0.07932 0.04906 0.0
O72 O 0.90412 0.09894 0.78719 0.0
O73 O 0.88135 0.12613 0.81028 0.0
O74 O 0.8529 0.10796 0.9261 0.0
O75 O 0.8503 0.14662 0.88154 0.0
C76 C 0.88587 0.20267 0.89211 0.0
O77 O 0.89473 0.19323 0.97611 0.0
O78 O 0.87763 0.1857 0.82436 0.0
C79 C 0.88024 0.14248 0.11852 0.0
Tb80 Tb 0.11621 0.39736 0.98804 0.0
C81 C 0.13421 0.34619 0.95152 0.0
Tb82 Tb 0.16864 0.38932 0.98263 0.0
O83 O 0.11063 0.38825 0.81512 0.0
O84 O 0.14167 0.40226 0.88103 0.0
O85 O 0.11831 0.35972 0.99134 0.0
C86 C 0.21038 0.38555 0.92067 0.0
O87 O 0.15427 0.3544 0.92995 0.0
C88 C 0.15517 0.38573 0.17728 0.0
C89 C 0.15004 0.44003 0.03696 0.0
O90 O 0.19291 0.37333 0.87688 0.0
O91 O 0.2043 0.3997 0.99885 0.0
O92 O 0.17608 0.38332 0.15469 0.0
O93 O 0.14403 0.38931 0.09108 0.0
O94 O 0.16622 0.4276 0.99236 0.0
O95 O 0.13049 0.43068 0.05757 0.0
C96 C 0.07437 0.40653 0.03941 0.0
O97 O 0.08604 0.4194 0.98263 0.0
O98 O 0.08624 0.38858 0.06687 0.0
C99 C 0.13133 0.39294 0.79614 0.0
Tb100 Tb 0.90835 0.87314 0.14158 0.0
C101 C 0.88012 0.82633 0.12925 0.0
Tb102 Tb 0.85692 0.87755 0.13991 0.0
O103 O 0.91029 0.86252 0.30489 0.0
O104 O 0.88499 0.88513 0.25415 0.0
O105 O 0.89935 0.83599 0.10481 0.0
C106 C 0.81309 0.87727 0.18703 0.0
O107 O 0.86266 0.83952 0.15797 0.0
C108 C 0.87228 0.87723 0.95025 0.0
C109 C 0.88523 0.92253 0.10546 0.0
O110 O 0.82056 0.87053 0.09554 0.0
O111 O 0.83041 0.88415 0.25279 0.0
O112 O 0.85372 0.88757 0.97554 0.0
O113 O 0.88013 0.86586 1.02695 0.0
O114 O 0.86647 0.91505 0.14467 0.0
O115 O 0.90205 0.90799 0.08386 0.0
C116 C 0.95345 0.87842 0.13141 0.0
O117 O 0.93987 0.89393 0.17069 0.0
O118 O 0.94155 0.85977 0.09511 0.0
C119 C 0.8921 0.87329 0.33013 0.0
Tb120 Tb 0.39498 0.64198 0.48029 0.0
C121 C 0.4397 0.61809 0.556 0.0
Tb122 Tb 0.39392 0.5895 0.49015 0.0
O123 O 0.40019 0.64915 0.65486 0.0
O124 O 0.38323 0.61871 0.58831 0.0
O125 O 0.43069 0.63664 0.51335 0.0
C126 C 0.39384 0.54547 0.54501 0.0
O127 O 0.42813 0.59837 0.56397 0.0
C128 C 0.396 0.60321 0.29558 0.0
C129 C 0.3497 0.61358 0.41031 0.0
O130 O 0.40633 0.55347 0.47581 0.0
O131 O 0.38157 0.56226 0.58402 0.0
O132 O 0.38655 0.58363 0.31574 0.0
O133 O 0.40554 0.61283 0.38197 0.0
O134 O 0.35786 0.59559 0.46103 0.0
O135 O 0.36234 0.63208 0.39551 0.0
C136 C 0.39462 0.68439 0.40834 0.0
O137 O 0.37809 0.67523 0.4532 0.0
O138 O 0.41146 0.67004 0.40667 0.0
C139 C 0.39205 0.62891 0.67494 0.0
Tb140 Tb 0.60849 0.12014 0.61701 0.0
C141 C 0.63555 0.16868 0.6617 0.0
Tb142 Tb 0.6636 0.12102 0.65854 0.0
O143 O 0.60236 0.12184 0.78892 0.0
O144 O 0.63432 0.12093 0.74171 0.0
O145 O 0.61706 0.15767 0.61282 0.0
C146 C 0.70675 0.12737 0.7384 0.0
O147 O 0.6534 0.15722 0.70263 0.0
C148 C 0.64892 0.12039 0.4531 0.0
C149 C 0.63733 0.0722 0.60094 0.0
O150 O 0.69483 0.14188 0.68309 0.0
O151 O 0.69423 0.10899 0.75048 0.0
O152 O 0.67021 0.12036 0.48783 0.0
O153 O 0.63788 0.12053 0.53375 0.0
O154 O 0.65599 0.08318 0.64877 0.0
O155 O 0.61833 0.08353 0.57039 0.0
C156 C 0.56384 0.11931 0.55599 0.0
O157 O 0.57499 0.10321 0.60513 0.0
O158 O 0.57821 0.13546 0.53555 0.0
C159 C 0.62358 0.12172 0.82319 0.0
Tb160 Tb 0.86116 0.39412 0.92172 0.0
C161 C 0.88072 0.44438 0.98472 0.0
Tb162 Tb 0.89784 0.39514 0.99781 0.0
O163 O 0.86831 0.39181 0.0909 0.0
O164 O 0.86813 0.39224 0.08968 0.0
O165 O 0.8662 0.43254 0.91414 0.0
C166 C 0.94216 0.39507 0.06013 0.0
O167 O 0.89455 0.43224 0.04571 0.0
C168 C 0.89511 0.37956 0.76091 0.0
C169 C 0.88049 0.34475 0.95057 0.0
O170 O 0.92976 0.4136 0.05433 0.0
O171 O 0.92968 0.37663 1.0308 0.0
O172 O 0.89032 0.39691 0.82813 0.0
O173 O 0.89049 0.39645 0.82925 0.0
O174 O 0.8946 0.35784 1.01671 0.0
O175 O 0.86563 0.35563 0.88748 0.0
C176 C 0.81726 0.39511 0.84791 0.0
O177 O 0.83034 0.37706 0.83903 0.0
O178 O 0.82877 0.4124 0.89918 0.0
C179 C 0.86284 0.40876 0.15845 0.0
Tb180 Tb 0.33696 0.13492 0.70557 0.0
C181 C 0.35647 0.08354 0.67965 0.0
Tb182 Tb 0.38844 0.12811 0.70463 0.0
O183 O 0.3346 0.14548 0.54142 0.0
O184 O 0.35996 0.12303 0.59109 0.0
O185 O 0.33928 0.09653 0.71112 0.0
C186 C 0.43235 0.12302 0.66468 0.0
O187 O 0.37543 0.09314 0.65249 0.0
C188 C 0.37231 0.12797 0.89416 0.0
C189 C 0.3688 0.17945 0.72597 0.0
O190 O 0.42189 0.11254 0.73428 0.0
O191 O 0.41805 0.13684 0.61702 0.0
O192 O 0.3908 0.1177 0.86911 0.0
O193 O 0.36548 0.14009 0.81898 0.0
O194 O 0.38567 0.16602 0.69452 0.0
O195 O 0.3497 0.17044 0.75493 0.0
C196 C 0.29287 0.1391 0.74205 0.0
O197 O 0.30326 0.14975 0.67281 0.0
O198 O 0.30739 0.12586 0.792 0.0
C199 C 0.35307 0.13521 0.51619 0.0
Tb200 Tb 0.66177 0.64364 0.45707 0.0
C201 C 0.64081 0.59411 0.46669 0.0
Tb202 Tb 0.61166 0.64102 0.45871 0.0
O203 O 0.66706 0.63457 0.62297 0.0
O204 O 0.63837 0.65308 0.57223 0.0
O205 O 0.65724 0.60573 0.42764 0.0
C206 C 0.5695 0.62924 0.49403 0.0
O207 O 0.62281 0.60546 0.50051 0.0
C208 C 0.62613 0.64216 0.26798 0.0
C209 C 0.63343 0.69159 0.45122 0.0
O210 O 0.58046 0.62085 0.41507 0.0
O211 O 0.58201 0.64498 0.55256 0.0
O212 O 0.60711 0.65121 0.29443 0.0
O213 O 0.63501 0.63142 0.34453 0.0
O214 O 0.61464 0.67982 0.46793 0.0
O215 O 0.65306 0.68067 0.44087 0.0
C216 C 0.70317 0.64882 0.39514 0.0
O217 O 0.69863 0.64284 0.48836 0.0
O218 O 0.68446 0.65227 0.33782 0.0
C219 C 0.64771 0.64279 0.64913 0.0
Tb220 Tb 0.13378 0.90857 0.26248 0.0
C221 C 0.1829 0.88978 0.30519 0.0
Tb222 Tb 0.13891 0.85653 0.26507 0.0
O223 O 0.1434 0.91412 0.4341 0.0
O224 O 0.12635 0.88329 0.36982 0.0
O225 O 0.17067 0.90728 0.26789 0.0
C226 C 0.14566 0.81259 0.31622 0.0
O227 O 0.17335 0.86941 0.32344 0.0
C228 C 0.13652 0.87186 0.07371 0.0
C229 C 0.08946 0.87533 0.21893 0.0
O230 O 0.15563 0.8226 0.24353 0.0
O231 O 0.13206 0.82737 0.36071 0.0
O232 O 0.1293 0.85121 0.09311 0.0
O233 O 0.1464 0.88179 0.15828 0.0
O234 O 0.10198 0.85687 0.24213 0.0
O235 O 0.09846 0.89677 0.2188 0.0
C236 C 0.12457 0.95092 0.19776 0.0
O237 O 0.12765 0.94613 0.29691 0.0
O238 O 0.12687 0.932 0.13557 0.0
C239 C 0.13622 0.89347 0.45403 0.0
Tb240 Tb 0.85471 0.63811 1.01566 0.0
C241 C 0.87626 0.58626 1.00047 0.0
Tb242 Tb 0.90502 0.63345 1.02034 0.0
O243 O 0.85209 0.64991 0.85448 0.0
O244 O 0.87772 0.62696 0.90195 0.0
O245 O 0.85793 0.59945 1.01205 0.0
C246 C 0.94943 0.6368 1.00232 0.0
O247 O 0.89669 0.59575 0.9945 0.0
C248 C 0.88825 0.63198 0.20582 0.0
C249 C 0.88314 0.68459 1.02726 0.0
O250 O 0.93893 0.64474 0.0836 0.0
O251 O 0.93488 0.6267 0.92945 0.0
O252 O 0.90581 0.62016 0.17869 0.0
O253 O 0.88199 0.64494 0.13274 0.0
O254 O 0.9 0.67114 0.99465 0.0
O255 O 0.86429 0.67501 0.0553 0.0
C256 C 0.813 0.63778 0.0779 0.0
O257 O 0.81831 0.6441 0.98629 0.0
O258 O 0.83102 0.63124 0.13288 0.0
C259 C 0.87049 0.63941 0.82826 0.0
Tb260 Tb 0.11271 0.11161 0.8497 0.0
C261 C 0.16076 0.13435 0.84334 0.0
Tb262 Tb 0.1148 0.16327 0.84615 0.0
O263 O 0.12202 0.10645 0.6852 0.0
O264 O 0.103 0.13567 0.73279 0.0
O265 O 0.14949 0.11605 0.87258 0.0
C266 C 0.11977 0.20855 0.81344 0.0
O267 O 0.15021 0.15411 0.82013 0.0
C268 C 0.11554 0.1486 0.03967 0.0
C269 C 0.06687 0.1403 0.84636 0.0
O270 O 0.13043 0.19144 0.76576 0.0
O271 O 0.10641 0.20003 0.87712 0.0
O272 O 0.10723 0.16844 1.01374 0.0
O273 O 0.12511 0.13927 0.96163 0.0
O274 O 0.07822 0.15777 0.81036 0.0
O275 O 0.07745 0.12103 0.8753 0.0
C276 C 0.10763 0.06818 0.90742 0.0
O277 O 0.10794 0.08724 0.97092 0.0
O278 O 0.11 0.07352 0.81077 0.0
C279 C 0.11338 0.12614 0.65735 0.0
Tb280 Tb 0.64321 0.40863 0.57552 0.0
C281 C 0.68848 0.38017 0.60944 0.0
Tb282 Tb 0.64019 0.35456 0.56786 0.0
O283 O 0.6545 0.41083 0.74514 0.0
O284 O 0.63314 0.38319 0.67892 0.0
O285 O 0.67931 0.4007 0.58673 0.0
C286 C 0.6364 0.30786 0.58917 0.0
O287 O 0.67644 0.36037 0.6106 0.0
C288 C 0.63953 0.37211 0.37988 0.0
C289 C 0.59595 0.38259 0.54292 0.0
O290 O 0.64816 0.32285 0.65599 0.0
O291 O 0.62727 0.31924 0.51197 0.0
O292 O 0.63061 0.3521 0.39604 0.0
O293 O 0.65058 0.38005 0.46512 0.0
O294 O 0.60566 0.36469 0.5889 0.0
O295 O 0.60796 0.4005 0.5152 0.0
C296 C 0.63878 0.45515 0.55048 0.0
O297 O 0.62903 0.44334 0.6181 0.0
O298 O 0.65122 0.44067 0.49565 0.0
C299 C 0.64493 0.39112 0.7625 0.0
Tb300 Tb 0.36765 0.90594 0.38358 0.0
C301 C 0.31901 0.88154 0.33225 0.0
Tb302 Tb 0.36551 0.85714 0.32941 0.0
O303 O 0.38102 0.91419 0.23413 0.0
O304 O 0.35902 0.88573 0.23228 0.0
O305 O 0.33044 0.90037 0.37819 0.0
C306 C 0.37109 0.81235 0.25857 0.0
O307 O 0.32978 0.86306 0.29222 0.0
C308 C 0.36023 0.86781 0.53544 0.0
C309 C 0.413 0.88013 0.37034 0.0
O310 O 0.38536 0.82512 0.32211 0.0
O311 O 0.35347 0.82481 0.23441 0.0
O312 O 0.35053 0.85032 0.47714 0.0
O313 O 0.37397 0.87746 0.48041 0.0
O314 O 0.40059 0.86524 0.30368 0.0
O315 O 0.40267 0.89595 0.43147 0.0
C316 C 0.36762 0.94972 0.47602 0.0
O317 O 0.38259 0.94101 0.41572 0.0
O318 O 0.35217 0.93391 0.48377 0.0
C319 C 0.37203 0.89622 0.17643 0.0
H320 H 0.13446 0.6058 0.88016 0.0
H321 H 0.17983 0.66584 0.90627 0.0
H322 H 0.17832 0.66536 0.7114 0.0
H323 H 0.16441 0.64765 0.53169 0.0
H324 H 0.11903 0.58762 0.50524 0.0
H325 H 0.1205 0.5881 0.70018 0.0
C326 C 0.14383 0.61888 0.84307 0.0
C327 C 0.15719 0.63588 0.90801 0.0
C328 C 0.14313 0.61833 0.73019 0.0
C329 C 0.16939 0.65257 0.85837 0.0
C330 C 0.16862 0.65226 0.7467 0.0
C331 C 0.15502 0.63457 0.56868 0.0
C332 C 0.14169 0.61758 0.50365 0.0
C333 C 0.1557 0.63512 0.68151 0.0
C334 C 0.12946 0.60088 0.5532 0.0
C335 C 0.13021 0.60119 0.66492 0.0
H336 H 0.63208 0.85936 0.13125 0.0
H337 H 0.59264 0.92274 0.12684 0.0
H338 H 0.5947 0.92288 0.93389 0.0
H339 H 0.60747 0.90488 0.76328 0.0
H340 H 0.647 0.84158 0.76768 0.0
H341 H 0.64492 0.84141 0.96066 0.0
C342 C 0.6241 0.87328 0.08813 0.0
C343 C 0.61224 0.89103 0.14421 0.0
C344 C 0.62515 0.87317 0.9758 0.0
C345 C 0.60189 0.90883 0.08627 0.0
C346 C 0.60298 0.90891 0.9754 0.0
C347 C 0.61544 0.89096 0.8064 0.0
C348 C 0.62732 0.87323 0.75035 0.0
C349 C 0.61442 0.89109 0.91874 0.0
C350 C 0.63773 0.85546 0.80829 0.0
C351 C 0.63662 0.85537 0.91915 0.0
H352 H 0.36725 0.38184 0.25957 0.0
H353 H 0.42041 0.33481 0.35833 0.0
H354 H 0.43236 0.33085 0.17609 0.0
H355 H 0.42731 0.34031 0.98747 0.0
H356 H 0.3748 0.38819 0.89021 0.0
H357 H 0.36273 0.39199 0.07199 0.0
C358 C 0.38146 0.37073 0.24113 0.0
C359 C 0.39291 0.35859 0.32237 0.0
C360 C 0.3882 0.36853 0.13601 0.0
C361 C 0.41134 0.34435 0.29737 0.0
C362 C 0.41814 0.34204 0.19304 0.0
C363 C 0.41322 0.35158 1.00613 0.0
C364 C 0.40172 0.36367 0.92478 0.0
C365 C 0.40664 0.35397 0.11156 0.0
C366 C 0.38361 0.37831 0.9505 0.0
C367 C 0.37683 0.38063 0.05481 0.0
H368 H 0.86608 0.14328 0.61645 0.0
H369 H 0.92444 0.09841 0.61007 0.0
H370 H 0.92517 0.10139 0.41793 0.0
H371 H 0.90914 0.11652 0.24807 0.0
H372 H 0.85064 0.16122 0.25424 0.0
H373 H 0.85001 0.15838 0.44648 0.0
C374 C 0.87902 0.13428 0.57309 0.0
C375 C 0.89518 0.12063 0.62866 0.0
C376 C 0.87926 0.13588 0.46096 0.0
C377 C 0.91173 0.10901 0.57015 0.0
C378 C 0.91216 0.11067 0.45963 0.0
C379 C 0.8962 0.12554 0.29141 0.0
C380 C 0.87997 0.13909 0.23568 0.0
C381 C 0.89596 0.12394 0.40354 0.0
C382 C 0.8634 0.15067 0.29418 0.0
C383 C 0.86303 0.14911 0.4048 0.0
H384 H 0.18001 0.39441 0.36711 0.0
H385 H 0.11215 0.37762 0.23003 0.0
H386 H 0.0989 0.37777 0.40948 0.0
H387 H 0.10676 0.38262 0.60585 0.0
H388 H 0.1741 0.4023 0.74265 0.0
H389 H 0.18757 0.40081 0.56347 0.0
C390 C 0.16232 0.39078 0.37674 0.0
C391 C 0.147 0.38608 0.28551 0.0
C392 C 0.15484 0.39127 0.48026 0.0
C393 C 0.12413 0.38158 0.29891 0.0
C394 C 0.11662 0.38153 0.40157 0.0
C395 C 0.1244 0.38653 0.59641 0.0
C396 C 0.13953 0.39216 0.68765 0.0
C397 C 0.13182 0.38636 0.49286 0.0
C398 C 0.16224 0.3975 0.674 0.0
C399 C 0.1699 0.39679 0.57143 0.0
H400 H 0.85465 0.89899 0.7797 0.0
H401 H 0.90593 0.84957 0.87528 0.0
H402 H 0.91618 0.84363 0.69048 0.0
H403 H 0.91004 0.85202 0.50155 0.0
H404 H 0.85963 0.90242 0.40716 0.0
H405 H 0.84922 0.90819 0.59157 0.0
C406 C 0.86811 0.88697 0.75998 0.0
C407 C 0.87947 0.87463 0.84052 0.0
C408 C 0.87385 0.88365 0.6538 0.0
C409 C 0.89696 0.85922 0.81439 0.0
C410 C 0.90276 0.85578 0.70882 0.0
C411 C 0.89673 0.86422 0.52138 0.0
C412 C 0.88535 0.87652 0.44068 0.0
C413 C 0.89121 0.86778 0.62782 0.0
C414 C 0.8683 0.89242 0.46748 0.0
C415 C 0.86249 0.89586 0.57304 0.0
H416 H 0.41197 0.64903 0.86371 0.0
H417 H 0.36764 0.59171 0.73267 0.0
H418 H 0.36512 0.57864 0.91199 0.0
H419 H 0.37546 0.58356 0.10717 0.0
H420 H 0.41957 0.64105 0.2385 0.0
H421 H 0.42193 0.65424 0.05923 0.0
C422 C 0.40174 0.63369 0.87446 0.0
C423 C 0.39024 0.62117 0.78434 0.0
C424 C 0.4002 0.62642 0.97839 0.0
C425 C 0.377 0.60139 0.79996 0.0
C426 C 0.37543 0.59401 0.90283 0.0
C427 C 0.38559 0.59898 0.09653 0.0
C428 C 0.39727 0.61136 0.18655 0.0
C429 C 0.38699 0.60635 0.99272 0.0
C430 C 0.41028 0.63132 0.17112 0.0
C431 C 0.41171 0.6388 0.06833 0.0
H432 H 0.59877 0.12081 0.99169 0.0
H433 H 0.6678 0.12345 0.9072 0.0
H434 H 0.68164 0.12309 0.09646 0.0
H435 H 0.67386 0.12183 0.28488 0.0
H436 H 0.60478 0.11922 0.3691 0.0
H437 H 0.59099 0.11976 0.17992 0.0
C438 C 0.61686 0.12135 1.01484 0.0
C439 C 0.63234 0.12207 0.93621 0.0
C440 C 0.62455 0.12112 0.12316 0.0
C441 C 0.65567 0.12277 0.96667 0.0
C442 C 0.66352 0.12259 0.07462 0.0
C443 C 0.65577 0.12136 0.26165 0.0
C444 C 0.64027 0.12049 0.34013 0.0
C445 C 0.64809 0.1217 0.15333 0.0
C446 C 0.61694 0.11993 0.30967 0.0
C447 C 0.60911 0.12023 0.20179 0.0
H448 H 0.88185 0.37162 0.25848 0.0
H449 H 0.85353 0.4407 0.31705 0.0
H450 H 0.86088 0.43811 0.51041 0.0
H451 H 0.87552 0.41636 0.66069 0.0
H452 H 0.90387 0.3473 0.60235 0.0
H453 H 0.89627 0.34974 0.40895 0.0
C454 C 0.87722 0.38613 0.31336 0.0
C455 C 0.86711 0.40642 0.27405 0.0
C456 C 0.88154 0.38451 0.42363 0.0
C457 C 0.86128 0.42498 0.34607 0.0
C458 C 0.86549 0.42349 0.4562 0.0
C459 C 0.8801 0.40182 0.60588 0.0
C460 C 0.89039 0.38163 0.64527 0.0
C461 C 0.87566 0.40337 0.49565 0.0
C462 C 0.89605 0.36298 0.57329 0.0
C463 C 0.89169 0.36438 0.46314 0.0
H464 H 0.33325 0.15366 0.34024 0.0
H465 H 0.38854 0.10976 0.44543 0.0
H466 H 0.39906 0.10325 0.26133 0.0
H467 H 0.39223 0.10973 0.0703 0.0
H468 H 0.33692 0.1536 0.96493 0.0
H469 H 0.32647 0.16022 0.14917 0.0
C470 C 0.34765 0.14273 0.3228 0.0
C471 C 0.36012 0.13218 0.40607 0.0
C472 C 0.35343 0.13893 0.21675 0.0
C473 C 0.37871 0.11806 0.38257 0.0
C474 C 0.38467 0.11429 0.27735 0.0
C475 C 0.37784 0.12068 0.08772 0.0
C476 C 0.36533 0.13117 1.00437 0.0
C477 C 0.37208 0.12453 0.19377 0.0
C478 C 0.34677 0.14533 1.02787 0.0
C479 C 0.34085 0.14916 0.13315 0.0
H480 H 0.60574 0.66099 0.09385 0.0
H481 H 0.66268 0.61882 0.19489 0.0
H482 H 0.67439 0.61531 1.01237 0.0
H483 H 0.66821 0.62395 0.82323 0.0
H484 H 0.61099 0.66571 0.72194 0.0
H485 H 0.59941 0.66939 0.90467 0.0
C486 C 0.62072 0.65106 0.07584 0.0
C487 C 0.63342 0.64031 0.15788 0.0
C488 C 0.62718 0.64889 0.9704 0.0
C489 C 0.65274 0.62742 0.13337 0.0
C490 C 0.65939 0.62533 1.02889 0.0
C491 C 0.6532 0.63383 0.84127 0.0
C492 C 0.64044 0.64452 0.75922 0.0
C493 C 0.64671 0.63594 0.94668 0.0
C494 C 0.62102 0.65724 0.78359 0.0
C495 C 0.61444 0.65941 0.88816 0.0
H496 H 0.15451 0.91531 0.6414 0.0
H497 H 0.11369 0.85517 0.51104 0.0
H498 H 0.11007 0.8433 0.69135 0.0
H499 H 0.11822 0.85022 0.88646 0.0
H500 H 0.15898 0.91037 1.01735 0.0
H501 H 0.1626 0.9223 0.83692 0.0
C502 C 0.14487 0.89958 0.65261 0.0
C503 C 0.13455 0.88601 0.56302 0.0
C504 C 0.14267 0.89302 0.7567 0.0
C505 C 0.12205 0.86572 0.57859 0.0
C506 C 0.11985 0.85902 0.68175 0.0
C507 C 0.12786 0.86596 0.87537 0.0
C508 C 0.1382 0.87948 0.96501 0.0
C509 C 0.13005 0.87255 0.77139 0.0
C510 C 0.15067 0.89981 0.94963 0.0
C511 C 0.15285 0.90656 0.84646 0.0
H512 H 0.85193 0.66 0.65544 0.0
H513 H 0.90352 0.6111 0.75339 0.0
H514 H 0.91306 0.60389 0.56832 0.0
H515 H 0.9065 0.61125 0.37852 0.0
H516 H 0.85548 0.66078 0.28085 0.0
H517 H 0.8456 0.66765 0.46556 0.0
C518 C 0.86532 0.64784 0.63615 0.0
C519 C 0.87704 0.63612 0.71763 0.0
C520 C 0.8706 0.6437 0.52958 0.0
C521 C 0.89434 0.62041 0.6919 0.0
C522 C 0.89972 0.6162 0.58611 0.0
C523 C 0.89316 0.62347 0.39774 0.0
C524 C 0.88159 0.63534 0.31631 0.0
C525 C 0.8879 0.62767 0.50428 0.0
C526 C 0.86445 0.65124 0.34214 0.0
C527 C 0.8589 0.65529 0.44778 0.0
H528 H 0.13203 0.10477 0.48545 0.0
H529 H 0.09217 0.16465 0.58325 0.0
H530 H 0.08928 0.17672 0.40033 0.0
H531 H 0.09764 0.16997 0.21233 0.0
H532 H 0.13824 0.11069 0.11445 0.0
H533 H 0.1411 0.09846 0.29734 0.0
C534 C 0.12274 0.12047 0.46658 0.0
C535 C 0.11221 0.13375 0.54745 0.0
C536 C 0.12117 0.12729 0.36122 0.0
C537 C 0.10033 0.15411 0.52222 0.0
C538 C 0.09866 0.161 0.41769 0.0
C539 C 0.10714 0.15438 0.23111 0.0
C540 C 0.11753 0.14111 0.1499 0.0
C541 C 0.10893 0.14767 0.33652 0.0
C542 C 0.12985 0.12102 0.17533 0.0
C543 C 0.13158 0.1141 0.27998 0.0
H544 H 0.62181 0.3507 0.19245 0.0
H545 H 0.66395 0.40964 0.32602 0.0
H546 H 0.66983 0.42031 0.14535 0.0
H547 H 0.66312 0.41256 0.94992 0.0
H548 H 0.62114 0.35341 0.81706 0.0
H549 H 0.61534 0.34278 0.99764 0.0
C550 C 0.63224 0.36592 0.182 0.0
C551 C 0.6424 0.37945 0.27209 0.0
C552 C 0.63572 0.37171 0.07833 0.0
C553 C 0.65588 0.39909 0.25768 0.0
C554 C 0.65931 0.40509 0.15455 0.0
C555 C 0.65278 0.39729 0.96059 0.0
C556 C 0.64252 0.38377 0.87065 0.0
C557 C 0.64939 0.39146 0.0644 0.0
C558 C 0.62918 0.36404 0.88528 0.0
C559 C 0.62582 0.35803 0.98836 0.0
H560 H 0.3468 0.8657 0.03101 0.0
H561 H 0.39827 0.92016 0.05413 0.0
H562 H 0.39925 0.91673 0.85986 0.0
H563 H 0.38546 0.89829 0.68088 0.0
H564 H 0.33385 0.84398 0.65769 0.0
H565 H 0.33291 0.84738 0.85197 0.0
C566 C 0.35823 0.87678 0.99342 0.0
C567 C 0.37239 0.89321 0.05754 0.0
C568 C 0.35868 0.87479 0.88065 0.0
C569 C 0.38711 0.90741 1.00711 0.0
C570 C 0.3877 0.90547 0.89563 0.0
C571 C 0.37401 0.88724 0.71845 0.0
C572 C 0.35982 0.87084 0.6543 0.0
C573 C 0.37354 0.88926 0.83121 0.0
C574 C 0.34504 0.8567 0.70471 0.0
C575 C 0.34448 0.85862 0.8162 0.0
H576 H 0.12585 0.70492 0.32836 0.0
H577 H 0.19224 0.70048 0.21205 0.0
H578 H 0.19585 0.74355 0.22961 0.0
H579 H 0.17864 0.78232 0.26556 0.0
H580 H 0.11339 0.78659 0.39444 0.0
H581 H 0.11086 0.74361 0.38678 0.0
C582 C 0.14112 0.71352 0.30779 0.0
C583 C 0.15863 0.69997 0.26762 0.0
C584 C 0.14326 0.73808 0.32079 0.0
C585 C 0.17859 0.71088 0.24278 0.0
C586 C 0.18061 0.73539 0.25266 0.0
C587 C 0.16409 0.77375 0.29353 0.0
C588 C 0.14613 0.78732 0.32937 0.0
C589 C 0.16288 0.74915 0.28989 0.0
C590 C 0.1274 0.7763 0.36661 0.0
C591 C 0.12588 0.7518 0.36153 0.0
H592 H 0.51717 0.86062 0.32133 0.0
H593 H 0.52487 0.90437 0.61824 0.0
H594 H 0.48357 0.90863 0.61452 0.0
H595 H 0.44494 0.90028 0.52432 0.0
H596 H 0.4381 0.85576 0.22863 0.0
H597 H 0.47908 0.8516 0.23437 0.0
C598 C 0.50981 0.87097 0.38565 0.0
C599 C 0.52413 0.88212 0.47005 0.0
C600 C 0.48607 0.87335 0.38283 0.0
C601 C 0.51427 0.89551 0.55255 0.0
C602 C 0.49062 0.89802 0.55018 0.0
C603 C 0.45244 0.88974 0.46105 0.0
C604 C 0.43827 0.87842 0.37597 0.0
C605 C 0.47629 0.88714 0.46527 0.0
C606 C 0.4484 0.86467 0.29525 0.0
C607 C 0.47193 0.86225 0.29834 0.0
H608 H 0.36251 0.28975 0.73303 0.0
H609 H 0.42664 0.2801 0.5952 0.0
H610 H 0.42449 0.23796 0.61355 0.0
H611 H 0.40383 0.2038 0.66124 0.0
H612 H 0.33939 0.213 0.79632 0.0
H613 H 0.34242 0.25552 0.78718 0.0
C614 C 0.37605 0.27845 0.70721 0.0
C615 C 0.3946 0.28805 0.66215 0.0
C616 C 0.3747 0.2542 0.71753 0.0
C617 C 0.41208 0.27318 0.62979 0.0
C618 C 0.4109 0.24907 0.64023 0.0
C619 C 0.3905 0.21507 0.68961 0.0
C620 C 0.37139 0.20523 0.72897 0.0
C621 C 0.3922 0.23939 0.68302 0.0
C622 C 0.35429 0.22012 0.76531 0.0
C623 C 0.35597 0.24443 0.75994 0.0
H624 H 0.96163 0.16253 0.84864 0.0
H625 H 0.96432 0.10216 0.03603 0.0
H626 H 1.00484 0.09884 1.01901 0.0
H627 H 0.03968 0.11237 0.94911 0.0
H628 H 0.03779 0.17302 0.76425 0.0
H629 H 0.99708 0.17678 0.78188 0.0
C630 C 0.9711 0.14877 0.88656 0.0
C631 C 0.9597 0.13265 0.94364 0.0
C632 C 0.99465 0.14683 0.87624 0.0
C633 C 0.97241 0.11488 0.99159 0.0
C634 C 0.9957 0.11288 0.98171 0.0
C635 C 0.03039 0.12637 0.91209 0.0
C636 C 0.0419 0.14226 0.85467 0.0
C637 C 1.00698 0.12861 0.92357 0.0
C638 C 0.02948 0.16045 0.80861 0.0
C639 C 1.00614 0.16264 0.81883 0.0
H640 H 0.15723 0.3126 0.83676 0.0
H641 H 0.09825 0.32306 1.01552 0.0
H642 H 0.08767 0.28196 0.97745 0.0
H643 H 0.09555 0.24292 0.90107 0.0
H644 H 0.15458 0.23048 0.72679 0.0
H645 H 0.16452 0.27266 0.75335 0.0
C646 C 0.14214 0.30582 0.86758 0.0
C647 C 0.12866 0.32092 0.92932 0.0
C648 C 0.13602 0.28194 0.8454 0.0
C649 C 0.109 0.31193 0.96782 0.0
C650 C 0.10284 0.28839 0.94601 0.0
C651 C 0.11049 0.24947 0.86782 0.0
C652 C 0.12438 0.23383 0.81253 0.0
C653 C 0.11626 0.27329 0.88561 0.0
C654 C 0.1436 0.2424 0.76928 0.0
C655 C 0.14936 0.2664 0.78531 0.0
H656 H 0.0568 0.9091 0.20745 0.0
H657 H 0.06563 0.83378 0.17507 0.0
H658 H 0.02471 0.82795 0.13754 0.0
H659 H 0.98587 0.84422 0.11956 0.0
H660 H 0.97731 0.91941 0.16178 0.0
H661 H 0.01838 0.92526 0.18845 0.0
C662 C 0.04984 0.89139 0.19173 0.0
C663 C 0.06445 0.87194 0.19439 0.0
C664 C 0.02617 0.88811 0.17154 0.0
C665 C 0.05492 0.84913 0.17426 0.0
C666 C 0.03144 0.84576 0.15245 0.0
C667 C 0.99306 0.86186 0.13331 0.0
C668 C 0.97853 0.88136 0.13797 0.0
C669 C 0.01683 0.8651 0.15148 0.0
C670 C 0.9881 0.90411 0.15751 0.0
C671 C 0.01161 0.90747 0.17309 0.0
H672 H 0.35796 0.70698 0.32866 0.0
H673 H 0.43076 0.71213 0.38568 0.0
H674 H 0.43023 0.75181 0.32442 0.0
H675 H 0.40851 0.78643 0.27701 0.0
H676 H 0.33578 0.78131 0.21666 0.0
H677 H 0.33678 0.7397 0.2526 0.0
C678 C 0.37365 0.71683 0.32675 0.0
C679 C 0.3943 0.70723 0.36378 0.0
C680 C 0.37321 0.73935 0.2898 0.0
C681 C 0.41467 0.71957 0.35866 0.0
C682 C 0.41438 0.74213 0.32349 0.0
C683 C 0.39299 0.77596 0.26881 0.0
C684 C 0.37211 0.7867 0.24606 0.0
C685 C 0.39369 0.75239 0.29171 0.0
C686 C 0.35204 0.77319 0.23427 0.0
C687 C 0.35259 0.74956 0.25614 0.0
H688 H 0.53423 0.09187 0.64334 0.0
H689 H 0.53717 0.15247 0.46075 0.0
H690 H 0.49637 0.15864 0.47296 0.0
H691 H 0.46 0.14791 0.54581 0.0
H692 H 0.4589 0.08846 0.73734 0.0
H693 H 0.49859 0.08084 0.71179 0.0
C694 C 0.52591 0.10625 0.60479 0.0
C695 C 0.53873 0.12158 0.55055 0.0
C696 C 0.50268 0.11006 0.61495 0.0
C697 C 0.52768 0.1403 0.50233 0.0
C698 C 0.50435 0.14391 0.50991 0.0
C699 C 0.46848 0.13325 0.5813 0.0
C700 C 0.45644 0.11881 0.64371 0.0
C701 C 0.49169 0.12911 0.56762 0.0
C702 C 0.46771 0.09993 0.68945 0.0
C703 C 0.49045 0.0955 0.67473 0.0
H704 H 0.9005 0.23842 0.03754 0.0
H705 H 0.86501 0.22512 0.72512 0.0
H706 H 0.85925 0.2676 0.71462 0.0
H707 H 0.86435 0.30919 0.79627 0.0
H708 H 0.90033 0.32091 0.10953 0.0
H709 H 0.90557 0.27888 0.11745 0.0
C710 C 0.89159 0.24479 0.96678 0.0
C711 C 0.88331 0.22853 0.88212 0.0
C712 C 0.88825 0.2692 0.96164 0.0
C713 C 0.8717 0.2372 0.79136 0.0
C714 C 0.86832 0.26155 0.78553 0.0
C715 C 0.87318 0.3025 0.86638 0.0
C716 C 0.88191 0.31849 0.95207 0.0
C717 C 0.87645 0.27784 0.87053 0.0
C718 C 0.89348 0.3093 0.04186 0.0
C719 C 0.89654 0.28512 0.04677 0.0
H720 H 0.65164 0.80057 0.40729 0.0
H721 H 0.58167 0.80521 0.47831 0.0
H722 H 0.57991 0.76258 0.48775 0.0
H723 H 0.59838 0.72338 0.47797 0.0
H724 H 0.66856 0.71955 0.40822 0.0
H725 H 0.66987 0.76184 0.39655 0.0
C726 C 0.63594 0.79232 0.42443 0.0
C727 C 0.61683 0.80641 0.44183 0.0
C728 C 0.63501 0.76762 0.43045 0.0
C729 C 0.59673 0.79509 0.46443 0.0
C730 C 0.59568 0.77056 0.46997 0.0
C731 C 0.61396 0.73176 0.46015 0.0
C732 C 0.63332 0.71788 0.44442 0.0
C733 C 0.61474 0.75655 0.45352 0.0
C734 C 0.6533 0.7294 0.42131 0.0
C735 C 0.65413 0.75379 0.41436 0.0
H736 H 0.85338 0.71757 0.10139 0.0
H737 H 0.91923 0.71108 0.97878 0.0
H738 H 0.92425 0.75387 1.00093 0.0
H739 H 0.91007 0.79336 0.05531 0.0
H740 H 0.84418 0.79973 0.17764 0.0
H741 H 0.83923 0.75699 0.1557 0.0
C742 C 0.86884 0.72545 0.07907 0.0
C743 C 0.88587 0.71087 0.03805 0.0
C744 C 0.87169 0.7502 0.09239 0.0
C745 C 0.90576 0.72165 1.01023 0.0
C746 C 0.90869 0.74621 1.02309 0.0
C747 C 0.89463 0.78547 0.07762 0.0
C748 C 0.87755 0.80002 0.11841 0.0
C749 C 0.89179 0.7607 0.0643 0.0
C750 C 0.85767 0.78921 0.1462 0.0
C751 C 0.85478 0.76466 0.13352 0.0
H752 H 0.61047 0.19917 0.54311 0.0
H753 H 0.66448 0.19763 0.79502 0.0
H754 H 0.66917 0.24032 0.79886 0.0
H755 H 0.65892 0.27848 0.72579 0.0
H756 H 0.60603 0.27925 0.46848 0.0
H757 H 0.59998 0.23698 0.47209 0.0
C758 C 0.6231 0.20816 0.59975 0.0
C759 C 0.63701 0.19501 0.6688 0.0
C760 C 0.62606 0.23281 0.60025 0.0
C761 C 0.65349 0.20713 0.74061 0.0
C762 C 0.65623 0.23165 0.7429 0.0
C763 C 0.64602 0.26937 0.67103 0.0
C764 C 0.63298 0.28211 0.59693 0.0
C765 C 0.64279 0.24473 0.67231 0.0
C766 C 0.6164 0.26996 0.52615 0.0
C767 C 0.61288 0.2457 0.52814 0.0
H768 H 0.97115 0.43106 0.04438 0.0
H769 H 0.96819 0.35859 0.11896 0.0
H770 H 0.00961 0.35677 0.13214 0.0
H771 H 0.04619 0.37459 0.10513 0.0
H772 H 0.04905 0.44571 1.01217 0.0
H773 H 0.00809 0.44947 1.02416 0.0
C774 C 0.97967 0.41504 0.06527 0.0
C775 C 0.96688 0.39499 0.08085 0.0
C776 C 1.00337 0.41388 0.06843 0.0
C777 C 0.97788 0.37419 0.10656 0.0
C778 C 1.00148 0.37314 0.11383 0.0
C779 C 0.03785 0.39101 0.08901 0.0
C780 C 0.0504 0.40984 0.05766 0.0
C781 C 0.01434 0.39269 0.09233 0.0
C782 C 0.03955 0.43099 0.03613 0.0
C783 C 0.0162 0.43311 0.04282 0.0
H784 H 0.47069 0.58827 0.48197 0.0
H785 H 0.46288 0.6515 0.68664 0.0
H786 H 0.50377 0.65933 0.69658 0.0
H787 H 0.54067 0.65103 0.62557 0.0
H788 H 0.54725 0.59008 0.40412 0.0
H789 H 0.50809 0.57841 0.42165 0.0
C790 C 0.47818 0.60327 0.53153 0.0
C791 C 0.46415 0.61916 0.58463 0.0
C792 C 0.50138 0.60832 0.53156 0.0
C793 C 0.47365 0.63897 0.64624 0.0
C794 C 0.49691 0.64355 0.65098 0.0
C795 C 0.53353 0.63506 0.58248 0.0
C796 C 0.54657 0.62155 0.51293 0.0
C797 C 0.5108 0.62884 0.59052 0.0
C798 C 0.53731 0.60089 0.45718 0.0
C799 C 0.51497 0.59416 0.46738 0.0
H800 H 0.49182 0.39874 0.57086 0.0
H801 H 0.49104 0.32304 0.51386 0.0
H802 H 0.53177 0.3235 0.49298 0.0
H803 H 0.56783 0.34522 0.50536 0.0
H804 H 0.56869 0.42104 0.55488 0.0
H805 H 0.52743 0.42091 0.56223 0.0
C806 C 0.50062 0.38242 0.55291 0.0
C807 C 0.48878 0.36086 0.5453 0.0
C808 C 0.52388 0.38288 0.53964 0.0
C809 C 0.50002 0.33979 0.52035 0.0
C810 C 0.52324 0.34005 0.5087 0.0
C811 C 0.5589 0.36171 0.51663 0.0
C812 C 0.5711 0.38308 0.53112 0.0
C813 C 0.53537 0.36145 0.52032 0.0
C814 C 0.5595 0.4044 0.54368 0.0
C815 C 0.536 0.40431 0.54856 0.0
H816 H 0.05429 0.62393 0.9663 0.0
H817 H 0.05593 0.66711 0.26513 0.0
H818 H 0.01488 0.67118 0.24348 0.0
H819 H 0.97854 0.65998 0.14819 0.0
H820 H 0.97562 0.61581 0.85231 0.0
H821 H 0.01726 0.61476 0.86319 0.0
C822 C 0.04561 0.63448 1.02558 0.0
C823 C 0.05797 0.64512 0.11739 0.0
C824 C 0.02187 0.63642 1.01346 0.0
C825 C 0.04668 0.6587 0.19406 0.0
C826 C 0.02324 0.661 0.18188 0.0
C827 C 0.98701 0.65029 0.08547 0.0
C828 C 0.9742 0.63782 1.00012 0.0
C829 C 0.01067 0.64954 0.09324 0.0
C830 C 0.98528 0.62547 0.91895 0.0
C831 C 0.00901 0.62483 0.92541 0.0
H832 H 0.17725 0.54704 0.13523 0.0
H833 H 0.10441 0.55296 0.12944 0.0
H834 H 0.10021 0.51041 0.09219 0.0
H835 H 0.11708 0.47187 0.06199 0.0
H836 H 0.18975 0.46551 0.06142 0.0
H837 H 0.19419 0.50819 0.10053 0.0
C838 C 0.16046 0.539 0.12611 0.0
C839 C 0.14116 0.55305 0.13547 0.0
C840 C 0.15816 0.51459 0.10366 0.0
C841 C 0.11951 0.54249 0.12228 0.0
C842 C 0.1171 0.51819 0.10126 0.0
C843 C 0.13394 0.47976 0.071 0.0
C844 C 0.15309 0.46562 0.05983 0.0
C845 C 0.13629 0.50413 0.09203 0.0
C846 C 0.17476 0.47612 0.06978 0.0
C847 C 0.1773 0.50045 0.09226 0.0
H848 H 0.70629 0.87066 0.20746 0.0
H849 H 0.72457 0.8978 0.53337 0.0
H850 H 0.76463 0.89836 0.49882 0.0
H851 H 0.79488 0.89089 0.37579 0.0
H852 H 0.77652 0.86354 0.05019 0.0
H853 H 0.73647 0.86328 0.0845 0.0
C854 C 0.71905 0.87674 0.27078 0.0
C855 C 0.71236 0.88421 0.37292 0.0
C856 C 0.7422 0.87694 0.25036 0.0
C857 C 0.72918 0.89198 0.45403 0.0
C858 C 0.75215 0.89229 0.43432 0.0
C859 C 0.78209 0.88488 0.31246 0.0
C860 C 0.78877 0.87723 0.21047 0.0
C861 C 0.75893 0.88476 0.33285 0.0
C862 C 0.77193 0.8695 0.12939 0.0
C863 C 0.74896 0.86936 0.14896 0.0
H864 H 0.37221 0.44307 0.66163 0.0
H865 H 0.43026 0.42829 0.4815 0.0
H866 H 0.43417 0.4699 0.45461 0.0
H867 H 0.42085 0.51036 0.47962 0.0
H868 H 0.36334 0.52558 0.66166 0.0
H869 H 0.35949 0.48383 0.69083 0.0
C870 C 0.38566 0.44894 0.6162 0.0
C871 C 0.40082 0.43261 0.57323 0.0
C872 C 0.38795 0.47292 0.60165 0.0
C873 C 0.41831 0.4405 0.51539 0.0
C874 C 0.4206 0.46429 0.49991 0.0
C875 C 0.40756 0.50449 0.52609 0.0
C876 C 0.39238 0.52078 0.56838 0.0
C877 C 0.4055 0.48062 0.54248 0.0
C878 C 0.37525 0.51318 0.62873 0.0
C879 C 0.373 0.48937 0.64505 0.0
H880 H 0.80959 0.15822 0.82915 0.0
H881 H 0.81526 0.08706 0.92275 0.0
H882 H 0.77437 0.08134 0.88747 0.0
H883 H 0.73676 0.09609 0.82402 0.0
H884 H 0.73154 0.16701 0.72826 0.0
H885 H 0.77219 0.17323 0.77099 0.0
C886 C 0.80192 0.14147 0.84223 0.0
C887 C 0.81565 0.12312 0.87817 0.0
C888 C 0.77831 0.1382 0.82141 0.0
C889 C 0.80525 0.10155 0.89472 0.0
C890 C 0.78178 0.09822 0.87463 0.0
C891 C 0.74454 0.11294 0.81356 0.0
C892 C 0.73115 0.13104 0.77301 0.0
C893 C 0.76812 0.11636 0.83723 0.0
C894 C 0.74147 0.15276 0.75926 0.0
C895 C 0.76475 0.15634 0.78349 0.0
H896 H 0.90806 0.55295 0.04603 0.0
H897 H 0.83794 0.56036 0.93152 0.0
H898 H 0.83303 0.5175 0.91248 0.0
H899 H 0.84867 0.47736 0.92926 0.0
H900 H 0.9181 0.47062 0.05665 0.0
H901 H 0.92317 0.51328 0.06933 0.0
C902 C 0.89172 0.5452 1.01657 0.0
C903 C 0.87346 0.56001 0.98975 0.0
C904 C 0.88884 0.52044 1.00812 0.0
C905 C 0.85232 0.54952 0.95308 0.0
C906 C 0.84949 0.52492 0.94191 0.0
C907 C 0.86489 0.48526 0.95959 0.0
C908 C 0.88297 0.47064 0.99165 0.0
C909 C 0.86762 0.51012 0.96927 0.0
C910 C 0.90382 0.4813 0.03179 0.0
C911 C 0.90679 0.50579 0.03891 0.0
H912 H 0.18863 0.16289 0.74667 0.0
H913 H 0.18937 0.10192 0.92935 0.0
H914 H 0.23026 0.09843 0.91876 0.0
H915 H 0.26607 0.11214 0.85356 0.0
H916 H 0.26463 0.17201 0.6642 0.0
H917 H 0.22409 0.17649 0.68184 0.0
C918 C 0.19773 0.14891 0.78474 0.0
C919 C 0.18581 0.13274 0.83883 0.0
C920 C 0.22128 0.14676 0.777 0.0
C921 C 0.19798 0.11461 0.88679 0.0
C922 C 0.22144 0.11259 0.88092 0.0
C923 C 0.25686 0.12622 0.81679 0.0
C924 C 0.26839 0.14174 0.75784 0.0
C925 C 0.2333 0.12848 0.82568 0.0
C926 C 0.25619 0.1598 0.70993 0.0
C927 C 0.23296 0.16239 0.71994 0.0
H928 H 0.61516 0.56405 0.5702 0.0
H929 H 0.67087 0.56498 0.37011 0.0
H930 H 0.67482 0.52248 0.37465 0.0
H931 H 0.66296 0.48456 0.43762 0.0
H932 H 0.60824 0.48385 0.64289 0.0
H933 H 0.60343 0.52624 0.63373 0.0
C934 C 0.62813 0.55498 0.52734 0.0
C935 C 0.64267 0.56795 0.47 0.0
C936 C 0.63054 0.53033 0.53115 0.0
C937 C 0.65944 0.55568 0.41545 0.0
C938 C 0.66173 0.53125 0.41776 0.0
C939 C 0.64995 0.49369 0.47993 0.0
C940 C 0.63597 0.48095 0.54071 0.0
C941 C 0.64745 0.51832 0.47564 0.0
C942 C 0.61927 0.49315 0.59556 0.0
C943 C 0.61649 0.51747 0.59041 0.0
H944 H 0.28789 0.91748 0.34984 0.0
H945 H 0.29312 0.84178 0.30812 0.0
H946 H 0.25214 0.83764 0.30247 0.0
H947 H 0.21444 0.85511 0.30509 0.0
H948 H 0.20813 0.93068 0.33532 0.0
H949 H 0.24949 0.93519 0.35012 0.0
C950 C 0.28003 0.90012 0.33967 0.0
C951 C 0.29375 0.88001 0.32899 0.0
C952 C 0.25611 0.89776 0.33454 0.0
C953 C 0.28315 0.85764 0.31548 0.0
C954 C 0.25961 0.85519 0.31264 0.0
C955 C 0.22208 0.87259 0.31592 0.0
C956 C 0.2081 0.8925 0.31978 0.0
C957 C 0.24588 0.87508 0.3216 0.0
C958 C 0.21842 0.915 0.33211 0.0
C959 C 0.24212 0.91761 0.34051 0.0
H960 H 0.65691 0.96225 0.52219 0.0
H961 H 0.58385 0.95987 0.47361 0.0
H962 H 0.58253 1.0026 0.50357 0.0
H963 H 0.60177 0.04104 0.547 0.0
H964 H 0.67468 0.04378 0.60413 0.0
H965 H 0.67628 1.00106 0.56798 0.0
C966 C 0.64072 0.9711 0.51756 0.0
C967 C 0.62052 0.95761 0.49544 0.0
C968 C 0.63997 0.99597 0.53704 0.0
C969 C 0.59971 0.96956 0.49094 0.0
C970 C 0.5989 0.99413 0.50799 0.0
C971 C 0.61805 0.03237 0.5513 0.0
C972 C 0.63805 0.04591 0.57838 0.0
C973 C 0.61888 0.00757 0.53174 0.0
C974 C 0.65892 0.03405 0.58408 0.0
C975 C 0.65989 0.00949 0.56309 0.0
H976 H 0.22559 0.35656 0.76054 0.0
H977 H 0.24699 0.41107 1.00736 0.0
H978 H 0.28573 0.40883 0.95501 0.0
H979 H 0.31349 0.39145 0.83979 0.0
H980 H 0.29268 0.3371 0.59167 0.0
H981 H 0.2537 0.33907 0.64389 0.0
C982 C 0.23879 0.36789 0.80262 0.0
C983 C 0.23357 0.38391 0.8876 0.0
C984 C 0.26106 0.36651 0.77205 0.0
C985 C 0.25069 0.39857 0.94172 0.0
C986 C 0.27282 0.39731 0.91191 0.0
C987 C 0.3004 0.38003 0.79724 0.0
C988 C 0.30579 0.36417 0.71224 0.0
C989 C 0.27818 0.38135 0.82737 0.0
C990 C 0.28879 0.34947 0.65745 0.0
C991 C 0.26656 0.35059 0.68724 0.0
H992 H 0.8626 0.96221 0.17926 0.0
H993 H 0.91292 0.93895 0.96585 0.0
H994 H 0.91764 0.97895 0.91633 0.0
H995 H 0.9078 0.02089 0.93232 0.0
H996 H 0.85879 0.04519 0.14953 0.0
H997 H 0.85334 1.00486 0.19848 0.0
C998 C 0.87454 0.9659 0.12177 0.0
C999 C 0.88736 0.94738 0.07673 0.0
C1000 C 0.8775 0.9893 0.09419 0.0
C1001 C 0.90288 0.95268 1.00278 0.0
C1002 C 0.90561 0.97565 0.97393 0.0
C1003 C 0.89595 0.01736 0.9905 0.0
C1004 C 0.8837 0.03605 0.03697 0.0
C1005 C 0.89308 0.99414 1.01912 0.0
C1006 C 0.86848 0.03115 0.11259 0.0
C1007 C 0.86532 0.00804 0.14049 0.0
H1008 H 0.25252 0.62863 0.19031 0.0
H1009 H 0.23347 0.58983 0.45008 0.0
H1010 H 0.27362 0.58445 0.50834 0.0
H1011 H 0.31406 0.59285 0.48989 0.0
H1012 H 0.33216 0.63392 0.23535 0.0
H1013 H 0.29235 0.63625 0.16966 0.0
C1014 C 0.25717 0.61886 0.2593 0.0
C1015 C 0.24027 0.60966 0.31621 0.0
C1016 C 0.28005 0.61632 0.29309 0.0
C1017 C 0.24636 0.5971 0.4055 0.0
C1018 C 0.26924 0.59404 0.43865 0.0
C1019 C 0.30921 0.60206 0.41943 0.0
C1020 C 0.32585 0.61327 0.36757 0.0
C1021 C 0.28622 0.60385 0.38373 0.0
C1022 C 0.31952 0.62535 0.27697 0.0
C1023 C 0.29682 0.62667 0.23933 0.0
H1024 H 0.33314 0.97617 0.5511 0.0
H1025 H 0.4051 0.97657 0.51645 0.0
H1026 H 0.40809 0.01744 0.58914 0.0
H1027 H 0.39023 0.05343 0.64818 0.0
H1028 H 0.31791 0.05564 0.67174 0.0
H1029 H 0.31507 0.01313 0.61982 0.0
C1030 C 0.34943 0.98527 0.56084 0.0
C1031 C 0.36886 0.97364 0.52814 0.0
C1032 C 0.35093 0.00909 0.60014 0.0
C1033 C 0.38992 0.98537 0.54034 0.0
C1034 C 0.39165 0.00868 0.58197 0.0
C1035 C 0.37376 0.04472 0.6423 0.0
C1036 C 0.35425 0.05771 0.66184 0.0
C1037 C 0.37223 0.02079 0.6097 0.0
C1038 C 0.33318 0.046 0.65632 0.0
C1039 C 0.33155 0.02176 0.6262 0.0
H1040 H 0.80337 0.63375 0.28028 0.0
H1041 H 0.77313 0.64819 0.96853 0.0
H1042 H 0.7363 0.65414 0.04149 0.0
H1043 H 0.71289 0.65476 0.19376 0.0
H1044 H 0.74336 0.64051 0.50542 0.0
H1045 H 0.78025 0.63531 0.43295 0.0
C1046 C 0.78866 0.63807 0.22831 0.0
C1047 C 0.79071 0.64035 0.11938 0.0
C1048 C 0.76779 0.64174 0.27098 0.0
C1049 C 0.77174 0.64623 0.0527 0.0
C1050 C 0.75079 0.64971 0.09437 0.0
C1051 C 0.72769 0.65077 0.24584 0.0
C1052 C 0.72562 0.64805 0.35446 0.0
C1053 C 0.74866 0.64754 0.20341 0.0
C1054 C 0.74473 0.64274 0.42146 0.0
C1055 C 0.76573 0.63965 0.38005 0.0
H1056 H 0.10693 0.05638 0.10966 0.0
H1057 H 0.10942 0.02692 0.78395 0.0
H1058 H 0.11405 0.98747 0.84595 0.0
H1059 H 0.11956 0.96196 0.9935 0.0
H1060 H 0.11815 0.99158 0.31955 0.0
H1061 H 0.11089 0.03062 0.25674 0.0
C1062 C 0.10822 0.04125 0.05233 0.0
C1063 C 0.10788 0.04434 0.94276 0.0
C1064 C 0.11124 0.01883 0.08864 0.0
C1065 C 0.10962 0.02478 0.86882 0.0
C1066 C 0.11235 1.00231 0.90419 0.0
C1067 C 0.11754 0.97697 0.05059 0.0
C1068 C 0.11947 0.97414 0.16065 0.0
C1069 C 0.11354 0.99923 1.01399 0.0
C1070 C 0.11682 0.99355 0.2343 0.0
C1071 C 0.11265 0.01579 0.19851 0.0
H1072 H 0.71628 0.41661 0.68867 0.0
H1073 H 0.71585 0.34177 0.60081 0.0
H1074 H 0.7559 0.33983 0.66453 0.0
H1075 H 0.79076 0.3592 0.75142 0.0
H1076 H 0.79057 0.43367 0.84621 0.0
H1077 H 0.75107 0.43597 0.77384 0.0
C1078 C 0.72502 0.39993 0.68217 0.0
C1079 C 0.71313 0.37939 0.63963 0.0
C1080 C 0.7479 0.39885 0.72116 0.0
C1081 C 0.72462 0.35784 0.63336 0.0
C1082 C 0.74751 0.3567 0.66992 0.0
C1083 C 0.78203 0.3759 0.75594 0.0
C1084 C 0.79344 0.39621 0.80408 0.0
C1085 C 0.75925 0.37704 0.71513 0.0
C1086 C 0.78203 0.41777 0.80975 0.0
C1087 C 0.75949 0.41911 0.76822 0.0
loop_
_geom_bond_atom_site_label_1
_geom_bond_atom_site_label_2
_geom_bond_distance
_geom_bond_site_symmetry_2
_ccdc_geom_bond_type
Tb0 O3 2.453 . S
Tb0 O4 2.596 . S
Tb0 O5 2.374 . S
Tb0 O13 2.343 . S
Tb0 O15 2.353 . S
Tb0 O17 2.427 . S
Tb0 O18 2.513 . S
C1 O5 1.251 . S
C1 O7 1.263 . S
Tb2 O4 2.343 . S
Tb2 O7 2.353 . S
Tb2 O10 2.427 . S
Tb2 O11 2.513 . S
Tb2 O12 2.453 1_554 S
Tb2 O13 2.596 . S
Tb2 O14 2.374 . S
O3 Tb0 2.453 . S
O3 C19 1.245 . S
O4 Tb0 2.596 . S
O4 Tb2 2.343 . S
O4 C19 1.259 . S
O5 Tb0 2.374 . S
O5 C1 1.251 . S
C6 O10 1.275 . S
C6 O11 1.246 . S
O7 C1 1.263 . S
O7 Tb2 2.353 . S
C8 O12 1.245 . S
C8 O13 1.259 1_556 S
C9 O14 1.250 . S
C9 O15 1.263 . S
O10 Tb2 2.427 . S
O10 C6 1.275 . S
O11 Tb2 2.513 . S
O11 C6 1.246 . S
O12 Tb2 2.453 1_556 S
O12 C8 1.245 . S
O13 Tb0 2.343 . S
O13 Tb2 2.596 . S
O13 C8 1.259 1_554 S
O14 Tb2 2.374 . S
O14 C9 1.250 . S
O15 Tb0 2.353 . S
O15 C9 1.263 . S
C16 O17 1.275 . S
C16 O18 1.246 . S
O17 Tb0 2.427 . S
O17 C16 1.275 . S
O18 Tb0 2.513 . S
O18 C16 1.246 . S
C19 O3 1.245 . S
C19 O4 1.259 . S
Tb20 O23 2.453 . S
Tb20 O24 2.596 . S
Tb20 O25 2.374 . S
Tb20 O33 2.343 . S
Tb20 O35 2.353 . S
Tb20 O37 2.427 . S
Tb20 O38 2.513 . S
C21 O25 1.251 . S
C21 O27 1.263 . S
Tb22 O24 2.343 . S
Tb22 O27 2.353 . S
Tb22 O30 2.427 . S
Tb22 O31 2.513 . S
Tb22 O32 2.453 . S
Tb22 O33 2.596 . S
Tb22 O34 2.374 . S
O23 Tb20 2.453 . S
O23 C39 1.245 . S
O24 Tb20 2.596 . S
O24 Tb22 2.343 . S
O24 C39 1.259 . S
O25 Tb20 2.374 . S
O25 C21 1.251 . S
C26 O30 1.275 . S
C26 O31 1.246 . S
O27 C21 1.263 . S
O27 Tb22 2.353 . S
C28 O32 1.245 . S
C28 O33 1.259 . S
C29 O34 1.250 . S
C29 O35 1.263 . S
O30 Tb22 2.427 . S
O30 C26 1.275 . S
O31 Tb22 2.513 . S
O31 C26 1.246 . S
O32 Tb22 2.453 . S
O32 C28 1.245 . S
O33 Tb20 2.343 . S
O33 Tb22 2.596 . S
O33 C28 1.259 . S
O34 Tb22 2.374 . S
O34 C29 1.250 . S
O35 Tb20 2.353 . S
O35 C29 1.263 . S
C36 O37 1.275 . S
C36 O38 1.246 . S
O37 Tb20 2.427 . S
O37 C36 1.275 . S
O38 Tb20 2.513 . S
O38 C36 1.246 . S
C39 O23 1.245 . S
C39 O24 1.259 . S
Tb40 O43 2.453 . S
Tb40 O44 2.596 . S
Tb40 O45 2.374 . S
Tb40 O53 2.343 . S
Tb40 O55 2.353 . S
Tb40 O57 2.427 . S
Tb40 O58 2.513 . S
C41 O45 1.251 . S
C41 O47 1.263 . S
Tb42 O44 2.343 . S
Tb42 O47 2.353 . S
Tb42 O50 2.427 . S
Tb42 O51 2.513 . S
Tb42 O52 2.453 . S
Tb42 O53 2.596 . S
Tb42 O54 2.374 . S
O43 Tb40 2.453 . S
O43 C59 1.245 . S
O44 Tb40 2.596 . S
O44 Tb42 2.343 . S
O44 C59 1.259 . S
O45 Tb40 2.374 . S
O45 C41 1.251 . S
C46 O50 1.275 . S
C46 O51 1.246 . S
O47 C41 1.263 . S
O47 Tb42 2.353 . S
C48 O52 1.245 . S
C48 O53 1.259 . S
C49 O54 1.250 . S
C49 O55 1.263 . S
O50 Tb42 2.427 . S
O50 C46 1.275 . S
O51 Tb42 2.513 . S
O51 C46 1.246 . S
O52 Tb42 2.453 . S
O52 C48 1.245 . S
O53 Tb40 2.343 . S
O53 Tb42 2.596 . S
O53 C48 1.259 . S
O54 Tb42 2.374 . S
O54 C49 1.250 . S
O55 Tb40 2.353 . S
O55 C49 1.263 . S
C56 O57 1.275 . S
C56 O58 1.246 . S
O57 Tb40 2.427 . S
O57 C56 1.275 . S
O58 Tb40 2.513 . S
O58 C56 1.246 . S
C59 O43 1.245 . S
C59 O44 1.259 . S
Tb60 O63 2.453 1_556 S
Tb60 O64 2.596 1_556 S
Tb60 O65 2.374 . S
Tb60 O73 2.343 . S
Tb60 O75 2.353 . S
Tb60 O77 2.427 . S
Tb60 O78 2.513 . S
C61 O65 1.251 . S
C61 O67 1.263 . S
Tb62 O64 2.343 1_556 S
Tb62 O67 2.353 . S
Tb62 O70 2.427 . S
Tb62 O71 2.513 . S
Tb62 O72 2.453 . S
Tb62 O73 2.596 . S
Tb62 O74 2.374 . S
O63 Tb60 2.453 1_554 S
O63 C79 1.245 . S
O64 Tb60 2.596 1_554 S
O64 Tb62 2.343 1_554 S
O64 C79 1.259 . S
O65 Tb60 2.374 . S
O65 C61 1.251 . S
C66 O70 1.275 . S
C66 O71 1.246 . S
O67 C61 1.263 . S
O67 Tb62 2.353 . S
C68 O72 1.245 . S
C68 O73 1.259 . S
C69 O74 1.250 . S
C69 O75 1.263 . S
O70 Tb62 2.427 . S
O70 C66 1.275 . S
O71 Tb62 2.513 . S
O71 C66 1.246 . S
O72 Tb62 2.453 . S
O72 C68 1.245 . S
O73 Tb60 2.343 . S
O73 Tb62 2.596 . S
O73 C68 1.259 . S
O74 Tb62 2.374 . S
O74 C69 1.250 . S
O75 Tb60 2.353 . S
O75 C69 1.263 . S
C76 O77 1.275 . S
C76 O78 1.246 . S
O77 Tb60 2.427 . S
O77 C76 1.275 . S
O78 Tb60 2.513 . S
O78 C76 1.246 . S
C79 O63 1.245 . S
C79 O64 1.259 . S
Tb80 O83 2.453 . S
Tb80 O84 2.596 . S
Tb80 O85 2.374 . S
Tb80 O93 2.343 1_556 S
Tb80 O95 2.353 . S
Tb80 O97 2.427 . S
Tb80 O98 2.513 1_556 S
C81 O85 1.251 . S
C81 O87 1.263 . S
Tb82 O84 2.343 1_554 S
Tb82 O87 2.353 1_554 S
Tb82 O90 2.427 1_554 S
Tb82 O91 2.513 1_554 S
Tb82 O92 2.453 . S
Tb82 O93 2.596 . S
Tb82 O94 2.374 1_554 S
O83 Tb80 2.453 . S
O83 C99 1.245 . S
O84 Tb80 2.596 . S
O84 Tb82 2.343 1_556 S
O84 C99 1.259 . S
O85 Tb80 2.374 . S
O85 C81 1.251 . S
C86 O90 1.275 . S
C86 O91 1.246 . S
O87 C81 1.263 . S
O87 Tb82 2.353 1_556 S
C88 O92 1.245 . S
C88 O93 1.259 . S
C89 O94 1.250 . S
C89 O95 1.263 . S
O90 Tb82 2.427 1_556 S
O90 C86 1.275 . S
O91 Tb82 2.513 1_556 S
O91 C86 1.246 . S
O92 Tb82 2.453 . S
O92 C88 1.245 . S
O93 Tb80 2.343 1_554 S
O93 Tb82 2.596 . S
O93 C88 1.259 . S
O94 Tb82 2.374 1_556 S
O94 C89 1.250 . S
O95 Tb80 2.353 . S
O95 C89 1.263 . S
C96 O97 1.275 1_554 S
C96 O98 1.246 . S
O97 Tb80 2.427 . S
O97 C96 1.275 1_556 S
O98 Tb80 2.513 1_554 S
O98 C96 1.246 . S
C99 O83 1.245 . S
C99 O84 1.259 . S
Tb100 O103 2.453 . S
Tb100 O104 2.596 . S
Tb100 O105 2.374 . S
Tb100 O113 2.343 . S
Tb100 O115 2.353 . S
Tb100 O117 2.427 . S
Tb100 O118 2.513 . S
C101 O105 1.251 . S
C101 O107 1.263 . S
Tb102 O104 2.343 . S
Tb102 O107 2.353 . S
Tb102 O110 2.427 . S
Tb102 O111 2.513 . S
Tb102 O112 2.453 1_554 S
Tb102 O113 2.596 . S
Tb102 O114 2.374 . S
O103 Tb100 2.453 . S
O103 C119 1.245 . S
O104 Tb100 2.596 . S
O104 Tb102 2.343 . S
O104 C119 1.259 . S
O105 Tb100 2.374 . S
O105 C101 1.251 . S
C106 O110 1.275 . S
C106 O111 1.246 . S
O107 C101 1.263 . S
O107 Tb102 2.353 . S
C108 O112 1.245 . S
C108 O113 1.259 1_556 S
C109 O114 1.250 . S
C109 O115 1.263 . S
O110 Tb102 2.427 . S
O110 C106 1.275 . S
O111 Tb102 2.513 . S
O111 C106 1.246 . S
O112 Tb102 2.453 1_556 S
O112 C108 1.245 . S
O113 Tb100 2.343 . S
O113 Tb102 2.596 . S
O113 C108 1.259 1_554 S
O114 Tb102 2.374 . S
O114 C109 1.250 . S
O115 Tb100 2.353 . S
O115 C109 1.263 . S
C116 O117 1.275 . S
C116 O118 1.246 . S
O117 Tb100 2.427 . S
O117 C116 1.275 . S
O118 Tb100 2.513 . S
O118 C116 1.246 . S
C119 O103 1.245 . S
C119 O104 1.259 . S
Tb120 O123 2.453 . S
Tb120 O124 2.596 . S
Tb120 O125 2.374 . S
Tb120 O133 2.343 . S
Tb120 O135 2.353 . S
Tb120 O137 2.427 . S
Tb120 O138 2.513 . S
C121 O125 1.251 . S
C121 O127 1.263 . S
Tb122 O124 2.343 . S
Tb122 O127 2.353 . S
Tb122 O130 2.427 . S
Tb122 O131 2.513 . S
Tb122 O132 2.453 . S
Tb122 O133 2.596 . S
Tb122 O134 2.374 . S
O123 Tb120 2.453 . S
O123 C139 1.245 . S
O124 Tb120 2.596 . S
O124 Tb122 2.343 . S
O124 C139 1.259 . S
O125 Tb120 2.374 . S
O125 C121 1.251 . S
C126 O130 1.275 . S
C126 O131 1.246 . S
O127 C121 1.263 . S
O127 Tb122 2.353 . S
C128 O132 1.245 . S
C128 O133 1.259 . S
C129 O134 1.250 . S
C129 O135 1.263 . S
O130 Tb122 2.427 . S
O130 C126 1.275 . S
O131 Tb122 2.513 . S
O131 C126 1.246 . S
O132 Tb122 2.453 . S
O132 C128 1.245 . S
O133 Tb120 2.343 . S
O133 Tb122 2.596 . S
O133 C128 1.259 . S
O134 Tb122 2.374 . S
O134 C129 1.250 . S
O135 Tb120 2.353 . S
O135 C129 1.263 . S
C136 O137 1.275 . S
C136 O138 1.246 . S
O137 Tb120 2.427 . S
O137 C136 1.275 . S
O138 Tb120 2.513 . S
O138 C136 1.246 . S
C139 O123 1.245 . S
C139 O124 1.259 . S
Tb140 O143 2.453 . S
Tb140 O144 2.596 . S
Tb140 O145 2.374 . S
Tb140 O153 2.343 . S
Tb140 O155 2.353 . S
Tb140 O157 2.427 . S
Tb140 O158 2.513 . S
C141 O145 1.251 . S
C141 O147 1.263 . S
Tb142 O144 2.343 . S
Tb142 O147 2.353 . S
Tb142 O150 2.427 . S
Tb142 O151 2.513 . S
Tb142 O152 2.453 . S
Tb142 O153 2.596 . S
Tb142 O154 2.374 . S
O143 Tb140 2.453 . S
O143 C159 1.245 . S
O144 Tb140 2.596 . S
O144 Tb142 2.343 . S
O144 C159 1.259 . S
O145 Tb140 2.374 . S
O145 C141 1.251 . S
C146 O150 1.275 . S
C146 O151 1.246 . S
O147 C141 1.263 . S
O147 Tb142 2.353 . S
C148 O152 1.245 . S
C148 O153 1.259 . S
C149 O154 1.250 . S
C149 O155 1.263 . S
O150 Tb142 2.427 . S
O150 C146 1.275 . S
O151 Tb142 2.513 . S
O151 C146 1.246 . S
O152 Tb142 2.453 . S
O152 C148 1.245 . S
O153 Tb140 2.343 . S
O153 Tb142 2.596 . S
O153 C148 1.259 . S
O154 Tb142 2.374 . S
O154 C149 1.250 . S
O155 Tb140 2.353 . S
O155 C149 1.263 . S
C156 O157 1.275 . S
C156 O158 1.246 . S
O157 Tb140 2.427 . S
O157 C156 1.275 . S
O158 Tb140 2.513 . S
O158 C156 1.246 . S
C159 O143 1.245 . S
C159 O144 1.259 . S
Tb160 O163 2.453 1_556 S
Tb160 O164 2.596 . S
Tb160 O165 2.374 . S
Tb160 O173 2.343 . S
Tb160 O175 2.353 . S
Tb160 O177 2.427 . S
Tb160 O178 2.513 . S
C161 O165 1.251 . S
C161 O167 1.263 . S
Tb162 O164 2.343 . S
Tb162 O167 2.353 . S
Tb162 O170 2.427 . S
Tb162 O171 2.513 . S
Tb162 O172 2.453 . S
Tb162 O173 2.596 . S
Tb162 O174 2.374 . S
O163 Tb160 2.453 1_554 S
O163 C179 1.245 . S
O164 Tb160 2.596 . S
O164 Tb162 2.343 . S
O164 C179 1.259 1_556 S
O165 Tb160 2.374 . S
O165 C161 1.251 . S
C166 O170 1.275 . S
C166 O171 1.246 . S
O167 C161 1.263 . S
O167 Tb162 2.353 . S
C168 O172 1.245 . S
C168 O173 1.259 . S
C169 O174 1.250 . S
C169 O175 1.263 . S
O170 Tb162 2.427 . S
O170 C166 1.275 . S
O171 Tb162 2.513 . S
O171 C166 1.246 . S
O172 Tb162 2.453 . S
O172 C168 1.245 . S
O173 Tb160 2.343 . S
O173 Tb162 2.596 . S
O173 C168 1.259 . S
O174 Tb162 2.374 . S
O174 C169 1.250 . S
O175 Tb160 2.353 . S
O175 C169 1.263 . S
C176 O177 1.275 . S
C176 O178 1.246 . S
O177 Tb160 2.427 . S
O177 C176 1.275 . S
O178 Tb160 2.513 . S
O178 C176 1.246 . S
C179 O163 1.245 . S
C179 O164 1.259 1_554 S
Tb180 O183 2.453 . S
Tb180 O184 2.596 . S
Tb180 O185 2.374 . S
Tb180 O193 2.343 . S
Tb180 O195 2.353 . S
Tb180 O197 2.427 . S
Tb180 O198 2.513 . S
C181 O185 1.251 . S
C181 O187 1.263 . S
Tb182 O184 2.343 . S
Tb182 O187 2.353 . S
Tb182 O190 2.427 . S
Tb182 O191 2.513 . S
Tb182 O192 2.453 . S
Tb182 O193 2.596 . S
Tb182 O194 2.374 . S
O183 Tb180 2.453 . S
O183 C199 1.245 . S
O184 Tb180 2.596 . S
O184 Tb182 2.343 . S
O184 C199 1.259 . S
O185 Tb180 2.374 . S
O185 C181 1.251 . S
C186 O190 1.275 . S
C186 O191 1.246 . S
O187 C181 1.263 . S
O187 Tb182 2.353 . S
C188 O192 1.245 . S
C188 O193 1.259 . S
C189 O194 1.250 . S
C189 O195 1.263 . S
O190 Tb182 2.427 . S
O190 C186 1.275 . S
O191 Tb182 2.513 . S
O191 C186 1.246 . S
O192 Tb182 2.453 . S
O192 C188 1.245 . S
O193 Tb180 2.343 . S
O193 Tb182 2.596 . S
O193 C188 1.259 . S
O194 Tb182 2.374 . S
O194 C189 1.250 . S
O195 Tb180 2.353 . S
O195 C189 1.263 . S
C196 O197 1.275 . S
C196 O198 1.246 . S
O197 Tb180 2.427 . S
O197 C196 1.275 . S
O198 Tb180 2.513 . S
O198 C196 1.246 . S
C199 O183 1.245 . S
C199 O184 1.259 . S
Tb200 O203 2.453 . S
Tb200 O204 2.596 . S
Tb200 O205 2.374 . S
Tb200 O213 2.343 . S
Tb200 O215 2.353 . S
Tb200 O217 2.427 . S
Tb200 O218 2.513 . S
C201 O205 1.251 . S
C201 O207 1.263 . S
Tb202 O204 2.343 . S
Tb202 O207 2.353 . S
Tb202 O210 2.427 . S
Tb202 O211 2.513 . S
Tb202 O212 2.453 . S
Tb202 O213 2.596 . S
Tb202 O214 2.374 . S
O203 Tb200 2.453 . S
O203 C219 1.245 . S
O204 Tb200 2.596 . S
O204 Tb202 2.343 . S
O204 C219 1.259 . S
O205 Tb200 2.374 . S
O205 C201 1.251 . S
C206 O210 1.275 . S
C206 O211 1.246 . S
O207 C201 1.263 . S
O207 Tb202 2.353 . S
C208 O212 1.245 . S
C208 O213 1.259 . S
C209 O214 1.250 . S
C209 O215 1.263 . S
O210 Tb202 2.427 . S
O210 C206 1.275 . S
O211 Tb202 2.513 . S
O211 C206 1.246 . S
O212 Tb202 2.453 . S
O212 C208 1.245 . S
O213 Tb200 2.343 . S
O213 Tb202 2.596 . S
O213 C208 1.259 . S
O214 Tb202 2.374 . S
O214 C209 1.250 . S
O215 Tb200 2.353 . S
O215 C209 1.263 . S
C216 O217 1.275 . S
C216 O218 1.246 . S
O217 Tb200 2.427 . S
O217 C216 1.275 . S
O218 Tb200 2.513 . S
O218 C216 1.246 . S
C219 O203 1.245 . S
C219 O204 1.259 . S
Tb220 O223 2.453 . S
Tb220 O224 2.596 . S
Tb220 O225 2.374 . S
Tb220 O233 2.343 . S
Tb220 O235 2.353 . S
Tb220 O237 2.427 . S
Tb220 O238 2.513 . S
C221 O225 1.251 . S
C221 O227 1.263 . S
Tb222 O224 2.343 . S
Tb222 O227 2.353 . S
Tb222 O230 2.427 . S
Tb222 O231 2.513 . S
Tb222 O232 2.453 1_554 S
Tb222 O233 2.596 . S
Tb222 O234 2.374 . S
O223 Tb220 2.453 . S
O223 C239 1.245 . S
O224 Tb220 2.596 . S
O224 Tb222 2.343 . S
O224 C239 1.259 . S
O225 Tb220 2.374 . S
O225 C221 1.251 . S
C226 O230 1.275 . S
C226 O231 1.246 . S
O227 C221 1.263 . S
O227 Tb222 2.353 . S
C228 O232 1.245 . S
C228 O233 1.259 1_556 S
C229 O234 1.250 . S
C229 O235 1.263 . S
O230 Tb222 2.427 . S
O230 C226 1.275 . S
O231 Tb222 2.513 . S
O231 C226 1.246 . S
O232 Tb222 2.453 1_556 S
O232 C228 1.245 . S
O233 Tb220 2.343 . S
O233 Tb222 2.596 . S
O233 C228 1.259 1_554 S
O234 Tb222 2.374 . S
O234 C229 1.250 . S
O235 Tb220 2.353 . S
O235 C229 1.263 . S
C236 O237 1.275 . S
C236 O238 1.246 . S
O237 Tb220 2.427 . S
O237 C236 1.275 . S
O238 Tb220 2.513 . S
O238 C236 1.246 . S
C239 O223 1.245 . S
C239 O224 1.259 . S
Tb240 O243 2.453 . S
Tb240 O244 2.596 . S
Tb240 O245 2.374 . S
Tb240 O253 2.343 1_556 S
Tb240 O255 2.353 1_556 S
Tb240 O257 2.427 1_556 S
Tb240 O258 2.513 1_556 S
C241 O245 1.251 . S
C241 O247 1.263 1_556 S
Tb242 O244 2.343 1_554 S
Tb242 O247 2.353 . S
Tb242 O250 2.427 1_554 S
Tb242 O251 2.513 1_554 S
Tb242 O252 2.453 . S
Tb242 O253 2.596 . S
Tb242 O254 2.374 . S
O243 Tb240 2.453 . S
O243 C259 1.245 . S
O244 Tb240 2.596 . S
O244 Tb242 2.343 1_556 S
O244 C259 1.259 . S
O245 Tb240 2.374 . S
O245 C241 1.251 . S
C246 O250 1.275 . S
C246 O251 1.246 . S
O247 C241 1.263 1_554 S
O247 Tb242 2.353 . S
C248 O252 1.245 . S
C248 O253 1.259 . S
C249 O254 1.250 . S
C249 O255 1.263 . S
O250 Tb242 2.427 1_556 S
O250 C246 1.275 . S
O251 Tb242 2.513 1_556 S
O251 C246 1.246 . S
O252 Tb242 2.453 . S
O252 C248 1.245 . S
O253 Tb240 2.343 1_554 S
O253 Tb242 2.596 . S
O253 C248 1.259 . S
O254 Tb242 2.374 . S
O254 C249 1.250 . S
O255 Tb240 2.353 1_554 S
O255 C249 1.263 . S
C256 O257 1.275 . S
C256 O258 1.246 . S
O257 Tb240 2.427 1_554 S
O257 C256 1.275 . S
O258 Tb240 2.513 1_554 S
O258 C256 1.246 . S
C259 O243 1.245 . S
C259 O244 1.259 . S
Tb260 O263 2.453 . S
Tb260 O264 2.596 . S
Tb260 O265 2.374 . S
Tb260 O273 2.343 . S
Tb260 O275 2.353 . S
Tb260 O277 2.427 . S
Tb260 O278 2.513 . S
C261 O265 1.251 . S
C261 O267 1.263 . S
Tb262 O264 2.343 . S
Tb262 O267 2.353 . S
Tb262 O270 2.427 . S
Tb262 O271 2.513 . S
Tb262 O272 2.453 1_556 S
Tb262 O273 2.596 . S
Tb262 O274 2.374 . S
O263 Tb260 2.453 . S
O263 C279 1.245 . S
O264 Tb260 2.596 . S
O264 Tb262 2.343 . S
O264 C279 1.259 . S
O265 Tb260 2.374 . S
O265 C261 1.251 . S
C266 O270 1.275 . S
C266 O271 1.246 . S
O267 C261 1.263 . S
O267 Tb262 2.353 . S
C268 O272 1.245 . S
C268 O273 1.259 1_554 S
C269 O274 1.250 . S
C269 O275 1.263 . S
O270 Tb262 2.427 . S
O270 C266 1.275 . S
O271 Tb262 2.513 . S
O271 C266 1.246 . S
O272 Tb262 2.453 1_554 S
O272 C268 1.245 . S
O273 Tb260 2.343 . S
O273 Tb262 2.596 . S
O273 C268 1.259 1_556 S
O274 Tb262 2.374 . S
O274 C269 1.250 . S
O275 Tb260 2.353 . S
O275 C269 1.263 . S
C276 O277 1.275 . S
C276 O278 1.246 . S
O277 Tb260 2.427 . S
O277 C276 1.275 . S
O278 Tb260 2.513 . S
O278 C276 1.246 . S
C279 O263 1.245 . S
C279 O264 1.259 . S
Tb280 O283 2.453 . S
Tb280 O284 2.596 . S
Tb280 O285 2.374 . S
Tb280 O293 2.343 . S
Tb280 O295 2.353 . S
Tb280 O297 2.427 . S
Tb280 O298 2.513 . S
C281 O285 1.251 . S
C281 O287 1.263 . S
Tb282 O284 2.343 . S
Tb282 O287 2.353 . S
Tb282 O290 2.427 . S
Tb282 O291 2.513 . S
Tb282 O292 2.453 . S
Tb282 O293 2.596 . S
Tb282 O294 2.374 . S
O283 Tb280 2.453 . S
O283 C299 1.245 . S
O284 Tb280 2.596 . S
O284 Tb282 2.343 . S
O284 C299 1.259 . S
O285 Tb280 2.374 . S
O285 C281 1.251 . S
C286 O290 1.275 . S
C286 O291 1.246 . S
O287 C281 1.263 . S
O287 Tb282 2.353 . S
C288 O292 1.245 . S
C288 O293 1.259 . S
C289 O294 1.250 . S
C289 O295 1.263 . S
O290 Tb282 2.427 . S
O290 C286 1.275 . S
O291 Tb282 2.513 . S
O291 C286 1.246 . S
O292 Tb282 2.453 . S
O292 C288 1.245 . S
O293 Tb280 2.343 . S
O293 Tb282 2.596 . S
O293 C288 1.259 . S
O294 Tb282 2.374 . S
O294 C289 1.250 . S
O295 Tb280 2.353 . S
O295 C289 1.263 . S
C296 O297 1.275 . S
C296 O298 1.246 . S
O297 Tb280 2.427 . S
O297 C296 1.275 . S
O298 Tb280 2.513 . S
O298 C296 1.246 . S
C299 O283 1.245 . S
C299 O284 1.259 . S
Tb300 O303 2.453 . S
Tb300 O304 2.596 . S
Tb300 O305 2.374 . S
Tb300 O313 2.343 . S
Tb300 O315 2.353 . S
Tb300 O317 2.427 . S
Tb300 O318 2.513 . S
C301 O305 1.251 . S
C301 O307 1.263 . S
Tb302 O304 2.343 . S
Tb302 O307 2.353 . S
Tb302 O310 2.427 . S
Tb302 O311 2.513 . S
Tb302 O312 2.453 . S
Tb302 O313 2.596 . S
Tb302 O314 2.374 . S
O303 Tb300 2.453 . S
O303 C319 1.245 . S
O304 Tb300 2.596 . S
O304 Tb302 2.343 . S
O304 C319 1.259 . S
O305 Tb300 2.374 . S
O305 C301 1.251 . S
C306 O310 1.275 . S
C306 O311 1.246 . S
O307 C301 1.263 . S
O307 Tb302 2.353 . S
C308 O312 1.245 . S
C308 O313 1.259 . S
C309 O314 1.250 . S
C309 O315 1.263 . S
O310 Tb302 2.427 . S
O310 C306 1.275 . S
O311 Tb302 2.513 . S
O311 C306 1.246 . S
O312 Tb302 2.453 . S
O312 C308 1.245 . S
O313 Tb300 2.343 . S
O313 Tb302 2.596 . S
O313 C308 1.259 . S
O314 Tb302 2.374 . S
O314 C309 1.250 . S
O315 Tb300 2.353 . S
O315 C309 1.263 . S
C316 O317 1.275 . S
C316 O318 1.246 . S
O317 Tb300 2.427 . S
O317 C316 1.275 . S
O318 Tb300 2.513 . S
O318 C316 1.246 . S
C319 O303 1.245 . S
C319 O304 1.259 . S
H320 C326 0.930 . S
H321 C329 0.930 . S
H322 C330 0.930 . S
H323 C331 0.930 . S
H324 C334 0.930 . S
H325 C335 0.930 . S
C326 H320 0.930 . S
C326 C327 1.355 . S
C326 C328 1.415 . S
C327 C326 1.355 . S
C327 C329 1.419 . S
C328 C326 1.415 . S
C328 C333 1.425 . S
C328 C335 1.409 . S
C329 H321 0.930 . S
C329 C327 1.419 . S
C329 C330 1.362 . S
C330 H322 0.930 . S
C330 C329 1.362 . S
C330 C333 1.409 . S
C331 H323 0.930 . S
C331 C332 1.355 . S
C331 C333 1.415 . S
C332 C331 1.355 . S
C332 C334 1.419 . S
C333 C328 1.425 . S
C333 C330 1.409 . S
C333 C331 1.415 . S
C334 H324 0.930 . S
C334 C332 1.419 . S
C334 C335 1.362 . S
C335 H325 0.930 . S
C335 C328 1.409 . S
C335 C334 1.362 . S
H336 C342 0.930 . S
H337 C345 0.930 . S
H338 C346 0.930 1_556 S
H339 C347 0.930 . S
H340 C350 0.930 . S
H341 C351 0.930 . S
C342 H336 0.930 . S
C342 C343 1.355 . S
C342 C344 1.415 1_554 S
C343 C342 1.355 . S
C343 C345 1.419 . S
C344 C342 1.415 1_556 S
C344 C349 1.425 . S
C344 C351 1.409 . S
C345 H337 0.930 . S
C345 C343 1.419 . S
C345 C346 1.362 . S
C346 H338 0.930 1_554 S
C346 C345 1.362 . S
C346 C349 1.409 1_554 S
C347 H339 0.930 . S
C347 C348 1.355 . S
C347 C349 1.415 . S
C348 C347 1.355 . S
C348 C350 1.419 . S
C349 C344 1.425 . S
C349 C346 1.409 1_556 S
C349 C347 1.415 . S
C350 H340 0.930 . S
C350 C348 1.419 . S
C350 C351 1.362 . S
C351 H341 0.930 . S
C351 C344 1.409 . S
C351 C350 1.362 . S
H352 C358 0.930 . S
H353 C361 0.930 . S
H354 C362 0.930 . S
H355 C363 0.930 . S
H356 C366 0.930 . S
H357 C367 0.930 . S
C358 H352 0.930 . S
C358 C359 1.355 . S
C358 C360 1.415 . S
C359 C358 1.355 . S
C359 C361 1.419 . S
C360 C358 1.415 . S
C360 C365 1.425 . S
C360 C367 1.409 . S
C361 H353 0.930 . S
C361 C359 1.419 . S
C361 C362 1.362 . S
C362 H354 0.930 . S
C362 C361 1.362 . S
C362 C365 1.409 . S
C363 H355 0.930 . S
C363 C364 1.355 . S
C363 C365 1.415 1_556 S
C364 C363 1.355 . S
C364 C366 1.419 . S
C365 C360 1.425 . S
C365 C362 1.409 . S
C365 C363 1.415 1_554 S
C366 H356 0.930 . S
C366 C364 1.419 . S
C366 C367 1.362 1_556 S
C367 H357 0.930 . S
C367 C360 1.409 . S
C367 C366 1.362 1_554 S
H368 C374 0.930 . S
H369 C377 0.930 . S
H370 C378 0.930 . S
H371 C379 0.930 . S
H372 C382 0.930 . S
H373 C383 0.930 . S
C374 H368 0.930 . S
C374 C375 1.355 . S
C374 C376 1.415 . S
C375 C374 1.355 . S
C375 C377 1.419 . S
C376 C374 1.415 . S
C376 C381 1.425 . S
C376 C383 1.409 . S
C377 H369 0.930 . S
C377 C375 1.419 . S
C377 C378 1.362 . S
C378 H370 0.930 . S
C378 C377 1.362 . S
C378 C381 1.409 . S
C379 H371 0.930 . S
C379 C380 1.355 . S
C379 C381 1.415 . S
C380 C379 1.355 . S
C380 C382 1.419 . S
C381 C376 1.425 . S
C381 C378 1.409 . S
C381 C379 1.415 . S
C382 H372 0.930 . S
C382 C380 1.419 . S
C382 C383 1.362 . S
C383 H373 0.930 . S
C383 C376 1.409 . S
C383 C382 1.362 . S
H384 C390 0.930 . S
H385 C393 0.930 . S
H386 C394 0.930 . S
H387 C395 0.930 . S
H388 C398 0.930 . S
H389 C399 0.930 . S
C390 H384 0.930 . S
C390 C391 1.355 . S
C390 C392 1.415 . S
C391 C390 1.355 . S
C391 C393 1.419 . S
C392 C390 1.415 . S
C392 C397 1.425 . S
C392 C399 1.409 . S
C393 H385 0.930 . S
C393 C391 1.419 . S
C393 C394 1.362 . S
C394 H386 0.930 . S
C394 C393 1.362 . S
C394 C397 1.409 . S
C395 H387 0.930 . S
C395 C396 1.355 . S
C395 C397 1.415 . S
C396 C395 1.355 . S
C396 C398 1.419 . S
C397 C392 1.425 . S
C397 C394 1.409 . S
C397 C395 1.415 . S
C398 H388 0.930 . S
C398 C396 1.419 . S
C398 C399 1.362 . S
C399 H389 0.930 . S
C399 C392 1.409 . S
C399 C398 1.362 . S
H400 C406 0.930 . S
H401 C409 0.930 . S
H402 C410 0.930 . S
H403 C411 0.930 . S
H404 C414 0.930 . S
H405 C415 0.930 . S
C406 H400 0.930 . S
C406 C407 1.355 . S
C406 C408 1.415 . S
C407 C406 1.355 . S
C407 C409 1.419 . S
C408 C406 1.415 . S
C408 C413 1.425 . S
C408 C415 1.409 . S
C409 H401 0.930 . S
C409 C407 1.419 . S
C409 C410 1.362 . S
C410 H402 0.930 . S
C410 C409 1.362 . S
C410 C413 1.409 . S
C411 H403 0.930 . S
C411 C412 1.355 . S
C411 C413 1.415 . S
C412 C411 1.355 . S
C412 C414 1.419 . S
C413 C408 1.425 . S
C413 C410 1.409 . S
C413 C411 1.415 . S
C414 H404 0.930 . S
C414 C412 1.419 . S
C414 C415 1.362 . S
C415 H405 0.930 . S
C415 C408 1.409 . S
C415 C414 1.362 . S
H416 C422 0.930 . S
H417 C425 0.930 . S
H418 C426 0.930 . S
H419 C427 0.930 . S
H420 C430 0.930 . S
H421 C431 0.930 . S
C422 H416 0.930 . S
C422 C423 1.355 . S
C422 C424 1.415 . S
C423 C422 1.355 . S
C423 C425 1.419 . S
C424 C422 1.415 . S
C424 C429 1.425 . S
C424 C431 1.409 . S
C425 H417 0.930 . S
C425 C423 1.419 . S
C425 C426 1.362 . S
C426 H418 0.930 . S
C426 C425 1.362 . S
C426 C429 1.409 . S
C427 H419 0.930 . S
C427 C428 1.355 . S
C427 C429 1.415 1_554 S
C428 C427 1.355 . S
C428 C430 1.419 . S
C429 C424 1.425 . S
C429 C426 1.409 . S
C429 C427 1.415 1_556 S
C430 H420 0.930 . S
C430 C428 1.419 . S
C430 C431 1.362 1_554 S
C431 H421 0.930 . S
C431 C424 1.409 . S
C431 C430 1.362 1_556 S
H432 C438 0.930 . S
H433 C441 0.930 . S
H434 C442 0.930 . S
H435 C443 0.930 . S
H436 C446 0.930 . S
H437 C447 0.930 . S
C438 H432 0.930 . S
C438 C439 1.355 1_554 S
C438 C440 1.415 . S
C439 C438 1.355 1_556 S
C439 C441 1.419 . S
C440 C438 1.415 . S
C440 C445 1.425 . S
C440 C447 1.409 . S
C441 H433 0.930 . S
C441 C439 1.419 . S
C441 C442 1.362 1_556 S
C442 H434 0.930 . S
C442 C441 1.362 1_554 S
C442 C445 1.409 . S
C443 H435 0.930 . S
C443 C444 1.355 . S
C443 C445 1.415 . S
C444 C443 1.355 . S
C444 C446 1.419 . S
C445 C440 1.425 . S
C445 C442 1.409 . S
C445 C443 1.415 . S
C446 H436 0.930 . S
C446 C444 1.419 . S
C446 C447 1.362 . S
C447 H437 0.930 . S
C447 C440 1.409 . S
C447 C446 1.362 . S
H448 C454 0.930 . S
H449 C457 0.930 . S
H450 C458 0.930 . S
H451 C459 0.930 . S
H452 C462 0.930 . S
H453 C463 0.930 . S
C454 H448 0.930 . S
C454 C455 1.355 . S
C454 C456 1.415 . S
C455 C454 1.355 . S
C455 C457 1.419 . S
C456 C454 1.415 . S
C456 C461 1.425 . S
C456 C463 1.409 . S
C457 H449 0.930 . S
C457 C455 1.419 . S
C457 C458 1.362 . S
C458 H450 0.930 . S
C458 C457 1.362 . S
C458 C461 1.409 . S
C459 H451 0.930 . S
C459 C460 1.355 . S
C459 C461 1.415 . S
C460 C459 1.355 . S
C460 C462 1.419 . S
C461 C456 1.425 . S
C461 C458 1.409 . S
C461 C459 1.415 . S
C462 H452 0.930 . S
C462 C460 1.419 . S
C462 C463 1.362 . S
C463 H453 0.930 . S
C463 C456 1.409 . S
C463 C462 1.362 . S
H464 C470 0.930 . S
H465 C473 0.930 . S
H466 C474 0.930 . S
H467 C475 0.930 1_556 S
H468 C478 0.930 . S
H469 C479 0.930 . S
C470 H464 0.930 . S
C470 C471 1.355 . S
C470 C472 1.415 . S
C471 C470 1.355 . S
C471 C473 1.419 . S
C472 C470 1.415 . S
C472 C477 1.425 . S
C472 C479 1.409 . S
C473 H465 0.930 . S
C473 C471 1.419 . S
C473 C474 1.362 . S
C474 H466 0.930 . S
C474 C473 1.362 . S
C474 C477 1.409 . S
C475 H467 0.930 1_554 S
C475 C476 1.355 1_554 S
C475 C477 1.415 . S
C476 C475 1.355 1_556 S
C476 C478 1.419 . S
C477 C472 1.425 . S
C477 C474 1.409 . S
C477 C475 1.415 . S
C478 H468 0.930 . S
C478 C476 1.419 . S
C478 C479 1.362 1_556 S
C479 H469 0.930 . S
C479 C472 1.409 . S
C479 C478 1.362 1_554 S
H480 C486 0.930 . S
H481 C489 0.930 . S
H482 C490 0.930 . S
H483 C491 0.930 . S
H484 C494 0.930 . S
H485 C495 0.930 . S
C486 H480 0.930 . S
C486 C487 1.355 . S
C486 C488 1.415 1_554 S
C487 C486 1.355 . S
C487 C489 1.419 . S
C488 C486 1.415 1_556 S
C488 C493 1.425 . S
C488 C495 1.409 . S
C489 H481 0.930 . S
C489 C487 1.419 . S
C489 C490 1.362 1_554 S
C490 H482 0.930 . S
C490 C489 1.362 1_556 S
C490 C493 1.409 . S
C491 H483 0.930 . S
C491 C492 1.355 . S
C491 C493 1.415 . S
C492 C491 1.355 . S
C492 C494 1.419 . S
C493 C488 1.425 . S
C493 C490 1.409 . S
C493 C491 1.415 . S
C494 H484 0.930 . S
C494 C492 1.419 . S
C494 C495 1.362 . S
C495 H485 0.930 . S
C495 C488 1.409 . S
C495 C494 1.362 . S
H496 C502 0.930 . S
H497 C505 0.930 . S
H498 C506 0.930 . S
H499 C507 0.930 . S
H500 C510 0.930 . S
H501 C511 0.930 . S
C502 H496 0.930 . S
C502 C503 1.355 . S
C502 C504 1.415 . S
C503 C502 1.355 . S
C503 C505 1.419 . S
C504 C502 1.415 . S
C504 C509 1.425 . S
C504 C511 1.409 . S
C505 H497 0.930 . S
C505 C503 1.419 . S
C505 C506 1.362 . S
C506 H498 0.930 . S
C506 C505 1.362 . S
C506 C509 1.409 . S
C507 H499 0.930 . S
C507 C508 1.355 . S
C507 C509 1.415 . S
C508 C507 1.355 . S
C508 C510 1.419 . S
C509 C504 1.425 . S
C509 C506 1.409 . S
C509 C507 1.415 . S
C510 H500 0.930 . S
C510 C508 1.419 . S
C510 C511 1.362 . S
C511 H501 0.930 . S
C511 C504 1.409 . S
C511 C510 1.362 . S
H512 C518 0.930 . S
H513 C521 0.930 . S
H514 C522 0.930 . S
H515 C523 0.930 . S
H516 C526 0.930 . S
H517 C527 0.930 . S
C518 H512 0.930 . S
C518 C519 1.355 . S
C518 C520 1.415 . S
C519 C518 1.355 . S
C519 C521 1.419 . S
C520 C518 1.415 . S
C520 C525 1.425 . S
C520 C527 1.409 . S
C521 H513 0.930 . S
C521 C519 1.419 . S
C521 C522 1.362 . S
C522 H514 0.930 . S
C522 C521 1.362 . S
C522 C525 1.409 . S
C523 H515 0.930 . S
C523 C524 1.355 . S
C523 C525 1.415 . S
C524 C523 1.355 . S
C524 C526 1.419 . S
C525 C520 1.425 . S
C525 C522 1.409 . S
C525 C523 1.415 . S
C526 H516 0.930 . S
C526 C524 1.419 . S
C526 C527 1.362 . S
C527 H517 0.930 . S
C527 C520 1.409 . S
C527 C526 1.362 . S
H528 C534 0.930 . S
H529 C537 0.930 . S
H530 C538 0.930 . S
H531 C539 0.930 . S
H532 C542 0.930 . S
H533 C543 0.930 . S
C534 H528 0.930 . S
C534 C535 1.355 . S
C534 C536 1.415 . S
C535 C534 1.355 . S
C535 C537 1.419 . S
C536 C534 1.415 . S
C536 C541 1.425 . S
C536 C543 1.409 . S
C537 H529 0.930 . S
C537 C535 1.419 . S
C537 C538 1.362 . S
C538 H530 0.930 . S
C538 C537 1.362 . S
C538 C541 1.409 . S
C539 H531 0.930 . S
C539 C540 1.355 . S
C539 C541 1.415 . S
C540 C539 1.355 . S
C540 C542 1.419 . S
C541 C536 1.425 . S
C541 C538 1.409 . S
C541 C539 1.415 . S
C542 H532 0.930 . S
C542 C540 1.419 . S
C542 C543 1.362 . S
C543 H533 0.930 . S
C543 C536 1.409 . S
C543 C542 1.362 . S
H544 C550 0.930 . S
H545 C553 0.930 . S
H546 C554 0.930 . S
H547 C555 0.930 . S
H548 C558 0.930 . S
H549 C559 0.930 . S
C550 H544 0.930 . S
C550 C551 1.355 . S
C550 C552 1.415 . S
C551 C550 1.355 . S
C551 C553 1.419 . S
C552 C550 1.415 . S
C552 C557 1.425 . S
C552 C559 1.409 1_554 S
C553 H545 0.930 . S
C553 C551 1.419 . S
C553 C554 1.362 . S
C554 H546 0.930 . S
C554 C553 1.362 . S
C554 C557 1.409 . S
C555 H547 0.930 . S
C555 C556 1.355 . S
C555 C557 1.415 1_556 S
C556 C555 1.355 . S
C556 C558 1.419 . S
C557 C552 1.425 . S
C557 C554 1.409 . S
C557 C555 1.415 1_554 S
C558 H548 0.930 . S
C558 C556 1.419 . S
C558 C559 1.362 . S
C559 H549 0.930 . S
C559 C552 1.409 1_556 S
C559 C558 1.362 . S
H560 C566 0.930 . S
H561 C569 0.930 . S
H562 C570 0.930 . S
H563 C571 0.930 . S
H564 C574 0.930 . S
H565 C575 0.930 . S
C566 H560 0.930 . S
C566 C567 1.355 . S
C566 C568 1.415 1_554 S
C567 C566 1.355 . S
C567 C569 1.419 . S
C568 C566 1.415 1_556 S
C568 C573 1.425 . S
C568 C575 1.409 . S
C569 H561 0.930 . S
C569 C567 1.419 . S
C569 C570 1.362 1_554 S
C570 H562 0.930 . S
C570 C569 1.362 1_556 S
C570 C573 1.409 . S
C571 H563 0.930 . S
C571 C572 1.355 . S
C571 C573 1.415 . S
C572 C571 1.355 . S
C572 C574 1.419 . S
C573 C568 1.425 . S
C573 C570 1.409 . S
C573 C571 1.415 . S
C574 H564 0.930 . S
C574 C572 1.419 . S
C574 C575 1.362 . S
C575 H565 0.930 . S
C575 C568 1.409 . S
C575 C574 1.362 . S
H576 C582 0.930 . S
H577 C585 0.930 . S
H578 C586 0.930 . S
H579 C587 0.930 . S
H580 C590 0.930 . S
H581 C591 0.930 . S
C582 H576 0.930 . S
C582 C583 1.355 . S
C582 C584 1.415 . S
C583 C582 1.355 . S
C583 C585 1.419 . S
C584 C582 1.415 . S
C584 C589 1.425 . S
C584 C591 1.409 . S
C585 H577 0.930 . S
C585 C583 1.419 . S
C585 C586 1.362 . S
C586 H578 0.930 . S
C586 C585 1.362 . S
C586 C589 1.409 . S
C587 H579 0.930 . S
C587 C588 1.355 . S
C587 C589 1.415 . S
C588 C587 1.355 . S
C588 C590 1.419 . S
C589 C584 1.425 . S
C589 C586 1.409 . S
C589 C587 1.415 . S
C590 H580 0.930 . S
C590 C588 1.419 . S
C590 C591 1.362 . S
C591 H581 0.930 . S
C591 C584 1.409 . S
C591 C590 1.362 . S
H592 C598 0.930 . S
H593 C601 0.930 . S
H594 C602 0.930 . S
H595 C603 0.930 . S
H596 C606 0.930 . S
H597 C607 0.930 . S
C598 H592 0.930 . S
C598 C599 1.355 . S
C598 C600 1.415 . S
C599 C598 1.355 . S
C599 C601 1.419 . S
C600 C598 1.415 . S
C600 C605 1.425 . S
C600 C607 1.409 . S
C601 H593 0.930 . S
C601 C599 1.419 . S
C601 C602 1.362 . S
C602 H594 0.930 . S
C602 C601 1.362 . S
C602 C605 1.409 . S
C603 H595 0.930 . S
C603 C604 1.355 . S
C603 C605 1.415 . S
C604 C603 1.355 . S
C604 C606 1.419 . S
C605 C600 1.425 . S
C605 C602 1.409 . S
C605 C603 1.415 . S
C606 H596 0.930 . S
C606 C604 1.419 . S
C606 C607 1.362 . S
C607 H597 0.930 . S
C607 C600 1.409 . S
C607 C606 1.362 . S
H608 C614 0.930 . S
H609 C617 0.930 . S
H610 C618 0.930 . S
H611 C619 0.930 . S
H612 C622 0.930 . S
H613 C623 0.930 . S
C614 H608 0.930 . S
C614 C615 1.355 . S
C614 C616 1.415 . S
C615 C614 1.355 . S
C615 C617 1.419 . S
C616 C614 1.415 . S
C616 C621 1.425 . S
C616 C623 1.409 . S
C617 H609 0.930 . S
C617 C615 1.419 . S
C617 C618 1.362 . S
C618 H610 0.930 . S
C618 C617 1.362 . S
C618 C621 1.409 . S
C619 H611 0.930 . S
C619 C620 1.355 . S
C619 C621 1.415 . S
C620 C619 1.355 . S
C620 C622 1.419 . S
C621 C616 1.425 . S
C621 C618 1.409 . S
C621 C619 1.415 . S
C622 H612 0.930 . S
C622 C620 1.419 . S
C622 C623 1.362 . S
C623 H613 0.930 . S
C623 C616 1.409 . S
C623 C622 1.362 . S
H624 C630 0.930 . S
H625 C633 0.930 . S
H626 C634 0.930 1_455 S
H627 C635 0.930 . S
H628 C638 0.930 . S
H629 C639 0.930 . S
C630 H624 0.930 . S
C630 C631 1.355 . S
C630 C632 1.415 . S
C631 C630 1.355 . S
C631 C633 1.419 1_556 S
C632 C630 1.415 . S
C632 C637 1.425 1_656 S
C632 C639 1.409 1_655 S
C633 H625 0.930 . S
C633 C631 1.419 1_554 S
C633 C634 1.362 . S
C634 H626 0.930 1_655 S
C634 C633 1.362 . S
C634 C637 1.409 1_655 S
C635 H627 0.930 . S
C635 C636 1.355 1_554 S
C635 C637 1.415 . S
C636 C635 1.355 1_556 S
C636 C638 1.419 . S
C637 C632 1.425 1_454 S
C637 C634 1.409 1_455 S
C637 C635 1.415 . S
C638 H628 0.930 . S
C638 C636 1.419 . S
C638 C639 1.362 . S
C639 H629 0.930 . S
C639 C632 1.409 1_455 S
C639 C638 1.362 . S
H640 C646 0.930 . S
H641 C649 0.930 1_554 S
H642 C650 0.930 1_554 S
H643 C651 0.930 . S
H644 C654 0.930 . S
H645 C655 0.930 . S
C646 H640 0.930 . S
C646 C647 1.355 . S
C646 C648 1.415 . S
C647 C646 1.355 . S
C647 C649 1.419 . S
C648 C646 1.415 . S
C648 C653 1.425 . S
C648 C655 1.409 . S
C649 H641 0.930 1_556 S
C649 C647 1.419 . S
C649 C650 1.362 . S
C650 H642 0.930 1_556 S
C650 C649 1.362 . S
C650 C653 1.409 . S
C651 H643 0.930 . S
C651 C652 1.355 . S
C651 C653 1.415 . S
C652 C651 1.355 . S
C652 C654 1.419 . S
C653 C648 1.425 . S
C653 C650 1.409 . S
C653 C651 1.415 . S
C654 H644 0.930 . S
C654 C652 1.419 . S
C654 C655 1.362 . S
C655 H645 0.930 . S
C655 C648 1.409 . S
C655 C654 1.362 . S
H656 C662 0.930 . S
H657 C665 0.930 . S
H658 C666 0.930 . S
H659 C667 0.930 . S
H660 C670 0.930 . S
H661 C671 0.930 . S
C662 H656 0.930 . S
C662 C663 1.355 . S
C662 C664 1.415 . S
C663 C662 1.355 . S
C663 C665 1.419 1_554 S
C664 C662 1.415 . S
C664 C669 1.425 . S
C664 C671 1.409 . S
C665 H657 0.930 . S
C665 C663 1.419 1_556 S
C665 C666 1.362 . S
C666 H658 0.930 . S
C666 C665 1.362 . S
C666 C669 1.409 1_556 S
C667 H659 0.930 . S
C667 C668 1.355 1_556 S
C667 C669 1.415 1_656 S
C668 C667 1.355 1_554 S
C668 C670 1.419 . S
C669 C664 1.425 . S
C669 C666 1.409 1_554 S
C669 C667 1.415 1_454 S
C670 H660 0.930 . S
C670 C668 1.419 . S
C670 C671 1.362 1_655 S
C671 H661 0.930 . S
C671 C664 1.409 . S
C671 C670 1.362 1_455 S
H672 C678 0.930 . S
H673 C681 0.930 . S
H674 C682 0.930 . S
H675 C683 0.930 . S
H676 C686 0.930 . S
H677 C687 0.930 . S
C678 H672 0.930 . S
C678 C679 1.355 . S
C678 C680 1.415 . S
C679 C678 1.355 . S
C679 C681 1.419 . S
C680 C678 1.415 . S
C680 C685 1.425 . S
C680 C687 1.409 . S
C681 H673 0.930 . S
C681 C679 1.419 . S
C681 C682 1.362 . S
C682 H674 0.930 . S
C682 C681 1.362 . S
C682 C685 1.409 . S
C683 H675 0.930 . S
C683 C684 1.355 . S
C683 C685 1.415 . S
C684 C683 1.355 . S
C684 C686 1.419 . S
C685 C680 1.425 . S
C685 C682 1.409 . S
C685 C683 1.415 . S
C686 H676 0.930 . S
C686 C684 1.419 . S
C686 C687 1.362 . S
C687 H677 0.930 . S
C687 C680 1.409 . S
C687 C686 1.362 . S
H688 C694 0.930 . S
H689 C697 0.930 . S
H690 C698 0.930 . S
H691 C699 0.930 . S
H692 C702 0.930 . S
H693 C703 0.930 . S
C694 H688 0.930 . S
C694 C695 1.355 . S
C694 C696 1.415 . S
C695 C694 1.355 . S
C695 C697 1.419 . S
C696 C694 1.415 . S
C696 C701 1.425 . S
C696 C703 1.409 . S
C697 H689 0.930 . S
C697 C695 1.419 . S
C697 C698 1.362 . S
C698 H690 0.930 . S
C698 C697 1.362 . S
C698 C701 1.409 . S
C699 H691 0.930 . S
C699 C700 1.355 . S
C699 C701 1.415 . S
C700 C699 1.355 . S
C700 C702 1.419 . S
C701 C696 1.425 . S
C701 C698 1.409 . S
C701 C699 1.415 . S
C702 H692 0.930 . S
C702 C700 1.419 . S
C702 C703 1.362 . S
C703 H693 0.930 . S
C703 C696 1.409 . S
C703 C702 1.362 . S
H704 C710 0.930 . S
H705 C713 0.930 . S
H706 C714 0.930 . S
H707 C715 0.930 . S
H708 C718 0.930 . S
H709 C719 0.920 1_554 S
C710 H704 0.930 . S
C710 C711 1.355 . S
C710 C712 1.415 . S
C711 C710 1.355 . S
C711 C713 1.419 . S
C712 C710 1.415 . S
C712 C717 1.425 . S
C712 C719 1.409 . S
C713 H705 0.930 . S
C713 C711 1.419 . S
C713 C714 1.362 . S
C714 H706 0.930 . S
C714 C713 1.362 . S
C714 C717 1.409 . S
C715 H707 0.930 . S
C715 C716 1.355 . S
C715 C717 1.415 . S
C716 C715 1.355 . S
C716 C718 1.419 . S
C717 C712 1.425 . S
C717 C714 1.409 . S
C717 C715 1.415 . S
C718 H708 0.930 . S
C718 C716 1.419 . S
C718 C719 1.362 . S
C719 H709 0.920 1_556 S
C719 C712 1.409 . S
C719 C718 1.362 . S
H720 C726 0.930 . S
H721 C729 0.930 . S
H722 C730 0.930 . S
H723 C731 0.930 . S
H724 C734 0.930 . S
H725 C735 0.930 . S
C726 H720 0.930 . S
C726 C727 1.355 . S
C726 C728 1.415 . S
C727 C726 1.355 . S
C727 C729 1.419 . S
C728 C726 1.415 . S
C728 C733 1.425 . S
C728 C735 1.409 . S
C729 H721 0.930 . S
C729 C727 1.419 . S
C729 C730 1.362 . S
C730 H722 0.930 . S
C730 C729 1.362 . S
C730 C733 1.409 . S
C731 H723 0.930 . S
C731 C732 1.355 . S
C731 C733 1.415 . S
C732 C731 1.355 . S
C732 C734 1.419 . S
C733 C728 1.425 . S
C733 C730 1.409 . S
C733 C731 1.415 . S
C734 H724 0.930 . S
C734 C732 1.419 . S
C734 C735 1.362 . S
C735 H725 0.930 . S
C735 C728 1.409 . S
C735 C734 1.362 . S
H736 C742 0.930 . S
H737 C745 0.930 . S
H738 C746 0.930 . S
H739 C747 0.930 . S
H740 C750 0.930 . S
H741 C751 0.930 . S
C742 H736 0.930 . S
C742 C743 1.355 . S
C742 C744 1.415 . S
C743 C742 1.355 . S
C743 C745 1.419 . S
C744 C742 1.415 . S
C744 C749 1.425 . S
C744 C751 1.409 . S
C745 H737 0.930 . S
C745 C743 1.419 . S
C745 C746 1.362 . S
C746 H738 0.930 . S
C746 C745 1.362 . S
C746 C749 1.409 . S
C747 H739 0.930 . S
C747 C748 1.355 . S
C747 C749 1.415 . S
C748 C747 1.355 . S
C748 C750 1.419 . S
C749 C744 1.425 . S
C749 C746 1.409 . S
C749 C747 1.415 . S
C750 H740 0.930 . S
C750 C748 1.419 . S
C750 C751 1.362 . S
C751 H741 0.930 . S
C751 C744 1.409 . S
C751 C750 1.362 . S
H752 C758 0.930 . S
H753 C761 0.930 . S
H754 C762 0.930 . S
H755 C763 0.930 . S
H756 C766 0.930 . S
H757 C767 0.930 . S
C758 H752 0.930 . S
C758 C759 1.355 . S
C758 C760 1.415 . S
C759 C758 1.355 . S
C759 C761 1.419 . S
C760 C758 1.415 . S
C760 C765 1.425 . S
C760 C767 1.409 . S
C761 H753 0.930 . S
C761 C759 1.419 . S
C761 C762 1.362 . S
C762 H754 0.930 . S
C762 C761 1.362 . S
C762 C765 1.409 . S
C763 H755 0.930 . S
C763 C764 1.355 . S
C763 C765 1.415 . S
C764 C763 1.355 . S
C764 C766 1.419 . S
C765 C760 1.425 . S
C765 C762 1.409 . S
C765 C763 1.415 . S
C766 H756 0.930 . S
C766 C764 1.419 . S
C766 C767 1.362 . S
C767 H757 0.930 . S
C767 C760 1.409 . S
C767 C766 1.362 . S
H768 C774 0.930 . S
H769 C777 0.930 . S
H770 C778 0.930 . S
H771 C779 0.930 . S
H772 C782 0.930 . S
H773 C783 0.930 . S
C774 H768 0.930 . S
C774 C775 1.355 1_556 S
C774 C776 1.415 . S
C775 C774 1.355 1_554 S
C775 C777 1.419 . S
C776 C774 1.415 . S
C776 C781 1.425 1_656 S
C776 C783 1.409 1_655 S
C777 H769 0.930 . S
C777 C775 1.419 . S
C777 C778 1.362 . S
C778 H770 0.930 . S
C778 C777 1.362 . S
C778 C781 1.409 1_655 S
C779 H771 0.930 . S
C779 C780 1.355 . S
C779 C781 1.415 . S
C780 C779 1.355 . S
C780 C782 1.419 1_554 S
C781 C776 1.425 1_454 S
C781 C778 1.409 1_455 S
C781 C779 1.415 . S
C782 H772 0.930 . S
C782 C780 1.419 1_556 S
C782 C783 1.362 . S
C783 H773 0.930 . S
C783 C776 1.409 1_455 S
C783 C782 1.362 . S
H784 C790 0.930 . S
H785 C793 0.930 . S
H786 C794 0.930 . S
H787 C795 0.930 . S
H788 C798 0.930 . S
H789 C799 0.930 . S
C790 H784 0.930 . S
C790 C791 1.355 . S
C790 C792 1.415 . S
C791 C790 1.355 . S
C791 C793 1.419 . S
C792 C790 1.415 . S
C792 C797 1.425 . S
C792 C799 1.409 . S
C793 H785 0.930 . S
C793 C791 1.419 . S
C793 C794 1.362 . S
C794 H786 0.930 . S
C794 C793 1.362 . S
C794 C797 1.409 . S
C795 H787 0.930 . S
C795 C796 1.355 . S
C795 C797 1.415 . S
C796 C795 1.355 . S
C796 C798 1.419 . S
C797 C792 1.425 . S
C797 C794 1.409 . S
C797 C795 1.415 . S
C798 H788 0.930 . S
C798 C796 1.419 . S
C798 C799 1.362 . S
C799 H789 0.930 . S
C799 C792 1.409 . S
C799 C798 1.362 . S
H800 C806 0.930 . S
H801 C809 0.930 . S
H802 C810 0.930 . S
H803 C811 0.930 . S
H804 C814 0.930 . S
H805 C815 0.930 . S
C806 H800 0.930 . S
C806 C807 1.355 . S
C806 C808 1.415 . S
C807 C806 1.355 . S
C807 C809 1.419 . S
C808 C806 1.415 . S
C808 C813 1.425 . S
C808 C815 1.409 . S
C809 H801 0.930 . S
C809 C807 1.419 . S
C809 C810 1.362 . S
C810 H802 0.930 . S
C810 C809 1.362 . S
C810 C813 1.409 . S
C811 H803 0.930 . S
C811 C812 1.355 . S
C811 C813 1.415 . S
C812 C811 1.355 . S
C812 C814 1.419 . S
C813 C808 1.425 . S
C813 C810 1.409 . S
C813 C811 1.415 . S
C814 H804 0.930 . S
C814 C812 1.419 . S
C814 C815 1.362 . S
C815 H805 0.930 . S
C815 C808 1.409 . S
C815 C814 1.362 . S
H816 C822 0.930 . S
H817 C825 0.930 . S
H818 C826 0.930 . S
H819 C827 0.930 . S
H820 C830 0.930 . S
H821 C831 0.930 . S
C822 H816 0.930 . S
C822 C823 1.355 . S
C822 C824 1.415 . S
C823 C822 1.355 . S
C823 C825 1.419 1_556 S
C824 C822 1.415 . S
C824 C829 1.425 1_455 S
C824 C831 1.409 1_455 S
C825 H817 0.930 . S
C825 C823 1.419 1_554 S
C825 C826 1.362 . S
C826 H818 0.930 . S
C826 C825 1.362 . S
C826 C829 1.409 1_454 S
C827 H819 0.930 . S
C827 C828 1.355 . S
C827 C829 1.415 . S
C828 C827 1.355 . S
C828 C830 1.419 . S
C829 C824 1.425 1_655 S
C829 C826 1.409 1_656 S
C829 C827 1.415 . S
C830 H820 0.930 . S
C830 C828 1.419 . S
C830 C831 1.362 . S
C831 H821 0.930 . S
C831 C824 1.409 1_655 S
C831 C830 1.362 . S
H832 C838 0.930 . S
H833 C841 0.930 . S
H834 C842 0.930 . S
H835 C843 0.930 . S
H836 C846 0.930 1_556 S
H837 C847 0.930 . S
C838 H832 0.930 . S
C838 C839 1.355 . S
C838 C840 1.415 . S
C839 C838 1.355 . S
C839 C841 1.419 . S
C840 C838 1.415 . S
C840 C845 1.425 . S
C840 C847 1.409 . S
C841 H833 0.930 . S
C841 C839 1.419 . S
C841 C842 1.362 . S
C842 H834 0.930 . S
C842 C841 1.362 . S
C842 C845 1.409 . S
C843 H835 0.930 . S
C843 C844 1.355 . S
C843 C845 1.415 . S
C844 C843 1.355 . S
C844 C846 1.419 . S
C845 C840 1.425 . S
C845 C842 1.409 . S
C845 C843 1.415 . S
C846 H836 0.930 1_554 S
C846 C844 1.419 . S
C846 C847 1.362 . S
C847 H837 0.930 . S
C847 C840 1.409 . S
C847 C846 1.362 . S
H848 C854 0.930 . S
H849 C857 0.930 . S
H850 C858 0.930 . S
H851 C859 0.930 . S
H852 C862 0.930 . S
H853 C863 0.930 . S
C854 H848 0.930 . S
C854 C855 1.355 . S
C854 C856 1.415 . S
C855 C854 1.355 . S
C855 C857 1.419 . S
C856 C854 1.415 . S
C856 C861 1.425 . S
C856 C863 1.409 . S
C857 H849 0.930 . S
C857 C855 1.419 . S
C857 C858 1.362 . S
C858 H850 0.930 . S
C858 C857 1.362 . S
C858 C861 1.409 . S
C859 H851 0.930 . S
C859 C860 1.355 . S
C859 C861 1.415 . S
C860 C859 1.355 . S
C860 C862 1.419 . S
C861 C856 1.425 . S
C861 C858 1.409 . S
C861 C859 1.415 . S
C862 H852 0.930 . S
C862 C860 1.419 . S
C862 C863 1.362 . S
C863 H853 0.930 . S
C863 C856 1.409 . S
C863 C862 1.362 . S
H864 C870 0.930 . S
H865 C873 0.930 . S
H866 C874 0.930 . S
H867 C875 0.930 . S
H868 C878 0.930 . S
H869 C879 0.930 . S
C870 H864 0.930 . S
C870 C871 1.355 . S
C870 C872 1.415 . S
C871 C870 1.355 . S
C871 C873 1.419 . S
C872 C870 1.415 . S
C872 C877 1.425 . S
C872 C879 1.409 . S
C873 H865 0.930 . S
C873 C871 1.419 . S
C873 C874 1.362 . S
C874 H866 0.930 . S
C874 C873 1.362 . S
C874 C877 1.409 . S
C875 H867 0.930 . S
C875 C876 1.355 . S
C875 C877 1.415 . S
C876 C875 1.355 . S
C876 C878 1.419 . S
C877 C872 1.425 . S
C877 C874 1.409 . S
C877 C875 1.415 . S
C878 H868 0.930 . S
C878 C876 1.419 . S
C878 C879 1.362 . S
C879 H869 0.930 . S
C879 C872 1.409 . S
C879 C878 1.362 . S
H880 C886 0.930 . S
H881 C889 0.930 . S
H882 C890 0.930 . S
H883 C891 0.930 . S
H884 C894 0.930 . S
H885 C895 0.930 . S
C886 H880 0.930 . S
C886 C887 1.355 . S
C886 C888 1.415 . S
C887 C886 1.355 . S
C887 C889 1.419 . S
C888 C886 1.415 . S
C888 C893 1.425 . S
C888 C895 1.409 . S
C889 H881 0.930 . S
C889 C887 1.419 . S
C889 C890 1.362 . S
C890 H882 0.930 . S
C890 C889 1.362 . S
C890 C893 1.409 . S
C891 H883 0.930 . S
C891 C892 1.355 . S
C891 C893 1.415 . S
C892 C891 1.355 . S
C892 C894 1.419 . S
C893 C888 1.425 . S
C893 C890 1.409 . S
C893 C891 1.415 . S
C894 H884 0.930 . S
C894 C892 1.419 . S
C894 C895 1.362 . S
C895 H885 0.930 . S
C895 C888 1.409 . S
C895 C894 1.362 . S
H896 C902 0.930 . S
H897 C905 0.930 1_554 S
H898 C906 0.930 1_554 S
H899 C907 0.930 . S
H900 C910 0.930 . S
H901 C911 0.930 . S
C902 H896 0.930 . S
C902 C903 1.355 . S
C902 C904 1.415 . S
C903 C902 1.355 . S
C903 C905 1.419 . S
C904 C902 1.415 . S
C904 C909 1.425 . S
C904 C911 1.409 . S
C905 H897 0.930 1_556 S
C905 C903 1.419 . S
C905 C906 1.362 . S
C906 H898 0.930 1_556 S
C906 C905 1.362 . S
C906 C909 1.409 . S
C907 H899 0.930 . S
C907 C908 1.355 . S
C907 C909 1.415 . S
C908 C907 1.355 . S
C908 C910 1.419 . S
C909 C904 1.425 . S
C909 C906 1.409 . S
C909 C907 1.415 . S
C910 H900 0.930 . S
C910 C908 1.419 . S
C910 C911 1.362 . S
C911 H901 0.930 . S
C911 C904 1.409 . S
C911 C910 1.362 . S
H912 C918 0.930 . S
H913 C921 0.930 . S
H914 C922 0.930 . S
H915 C923 0.930 . S
H916 C926 0.930 . S
H917 C927 0.930 . S
C918 H912 0.930 . S
C918 C919 1.355 . S
C918 C920 1.415 . S
C919 C918 1.355 . S
C919 C921 1.419 . S
C920 C918 1.415 . S
C920 C925 1.425 . S
C920 C927 1.409 . S
C921 H913 0.930 . S
C921 C919 1.419 . S
C921 C922 1.362 . S
C922 H914 0.930 . S
C922 C921 1.362 . S
C922 C925 1.409 . S
C923 H915 0.930 . S
C923 C924 1.355 . S
C923 C925 1.415 . S
C924 C923 1.355 . S
C924 C926 1.419 . S
C925 C920 1.425 . S
C925 C922 1.409 . S
C925 C923 1.415 . S
C926 H916 0.930 . S
C926 C924 1.419 . S
C926 C927 1.362 . S
C927 H917 0.930 . S
C927 C920 1.409 . S
C927 C926 1.362 . S
H928 C934 0.930 . S
H929 C937 0.930 . S
H930 C938 0.930 . S
H931 C939 0.930 . S
H932 C942 0.930 . S
H933 C943 0.930 . S
C934 H928 0.930 . S
C934 C935 1.355 . S
C934 C936 1.415 . S
C935 C934 1.355 . S
C935 C937 1.419 . S
C936 C934 1.415 . S
C936 C941 1.425 . S
C936 C943 1.409 . S
C937 H929 0.930 . S
C937 C935 1.419 . S
C937 C938 1.362 . S
C938 H930 0.930 . S
C938 C937 1.362 . S
C938 C941 1.409 . S
C939 H931 0.930 . S
C939 C940 1.355 . S
C939 C941 1.415 . S
C940 C939 1.355 . S
C940 C942 1.419 . S
C941 C936 1.425 . S
C941 C938 1.409 . S
C941 C939 1.415 . S
C942 H932 0.930 . S
C942 C940 1.419 . S
C942 C943 1.362 . S
C943 H933 0.930 . S
C943 C936 1.409 . S
C943 C942 1.362 . S
H944 C950 0.930 . S
H945 C953 0.930 . S
H946 C954 0.930 . S
H947 C955 0.930 . S
H948 C958 0.930 . S
H949 C959 0.930 . S
C950 H944 0.930 . S
C950 C951 1.355 . S
C950 C952 1.415 . S
C951 C950 1.355 . S
C951 C953 1.419 . S
C952 C950 1.415 . S
C952 C957 1.425 . S
C952 C959 1.409 . S
C953 H945 0.930 . S
C953 C951 1.419 . S
C953 C954 1.362 . S
C954 H946 0.930 . S
C954 C953 1.362 . S
C954 C957 1.409 . S
C955 H947 0.930 . S
C955 C956 1.355 . S
C955 C957 1.415 . S
C956 C955 1.355 . S
C956 C958 1.419 . S
C957 C952 1.425 . S
C957 C954 1.409 . S
C957 C955 1.415 . S
C958 H948 0.930 . S
C958 C956 1.419 . S
C958 C959 1.362 . S
C959 H949 0.930 . S
C959 C952 1.409 . S
C959 C958 1.362 . S
H960 C966 0.930 . S
H961 C969 0.930 . S
H962 C970 0.930 . S
H963 C971 0.930 . S
H964 C974 0.930 . S
H965 C975 0.929 1_565 S
C966 H960 0.930 . S
C966 C967 1.355 . S
C966 C968 1.415 . S
C967 C966 1.355 . S
C967 C969 1.419 . S
C968 C966 1.415 . S
C968 C973 1.425 1_565 S
C968 C975 1.409 1_565 S
C969 H961 0.930 . S
C969 C967 1.419 . S
C969 C970 1.362 . S
C970 H962 0.930 . S
C970 C969 1.362 . S
C970 C973 1.409 1_565 S
C971 H963 0.930 . S
C971 C972 1.355 . S
C971 C973 1.415 . S
C972 C971 1.355 . S
C972 C974 1.419 . S
C973 C968 1.425 1_545 S
C973 C970 1.409 1_545 S
C973 C971 1.415 . S
C974 H964 0.930 . S
C974 C972 1.419 . S
C974 C975 1.362 . S
C975 H965 0.929 1_545 S
C975 C968 1.409 1_545 S
C975 C974 1.362 . S
H976 C982 0.930 . S
H977 C985 0.930 . S
H978 C986 0.930 . S
H979 C987 0.930 . S
H980 C990 0.930 . S
H981 C991 0.930 . S
C982 H976 0.930 . S
C982 C983 1.355 . S
C982 C984 1.415 . S
C983 C982 1.355 . S
C983 C985 1.419 . S
C984 C982 1.415 . S
C984 C989 1.425 . S
C984 C991 1.409 . S
C985 H977 0.930 . S
C985 C983 1.419 . S
C985 C986 1.362 . S
C986 H978 0.930 . S
C986 C985 1.362 . S
C986 C989 1.409 . S
C987 H979 0.930 . S
C987 C988 1.355 . S
C987 C989 1.415 . S
C988 C987 1.355 . S
C988 C990 1.419 . S
C989 C984 1.425 . S
C989 C986 1.409 . S
C989 C987 1.415 . S
C990 H980 0.930 . S
C990 C988 1.419 . S
C990 C991 1.362 . S
C991 H981 0.930 . S
C991 C984 1.409 . S
C991 C990 1.362 . S
H992 C998 0.930 . S
H993 C1001 0.930 . S
H994 C1002 0.930 . S
H995 C1003 0.930 . S
H996 C1006 0.930 . S
H997 C1007 0.930 . S
C998 H992 0.930 . S
C998 C999 1.355 . S
C998 C1000 1.415 . S
C999 C998 1.355 . S
C999 C1001 1.419 1_554 S
C1000 C998 1.415 . S
C1000 C1005 1.425 . S
C1000 C1007 1.409 1_565 S
C1001 H993 0.930 . S
C1001 C999 1.419 1_556 S
C1001 C1002 1.362 . S
C1002 H994 0.930 . S
C1002 C1001 1.362 . S
C1002 C1005 1.409 1_556 S
C1003 H995 0.930 . S
C1003 C1004 1.355 1_556 S
C1003 C1005 1.415 1_546 S
C1004 C1003 1.355 1_554 S
C1004 C1006 1.419 . S
C1005 C1000 1.425 . S
C1005 C1002 1.409 1_554 S
C1005 C1003 1.415 1_564 S
C1006 H996 0.930 . S
C1006 C1004 1.419 . S
C1006 C1007 1.362 . S
C1007 H997 0.930 . S
C1007 C1000 1.409 1_545 S
C1007 C1006 1.362 . S
H1008 C1014 0.930 . S
H1009 C1017 0.930 . S
H1010 C1018 0.930 . S
H1011 C1019 0.930 . S
H1012 C1022 0.930 . S
H1013 C1023 0.930 . S
C1014 H1008 0.930 . S
C1014 C1015 1.355 . S
C1014 C1016 1.415 . S
C1015 C1014 1.355 . S
C1015 C1017 1.419 . S
C1016 C1014 1.415 . S
C1016 C1021 1.425 . S
C1016 C1023 1.409 . S
C1017 H1009 0.930 . S
C1017 C1015 1.419 . S
C1017 C1018 1.362 . S
C1018 H1010 0.930 . S
C1018 C1017 1.362 . S
C1018 C1021 1.409 . S
C1019 H1011 0.930 . S
C1019 C1020 1.355 . S
C1019 C1021 1.415 . S
C1020 C1019 1.355 . S
C1020 C1022 1.419 . S
C1021 C1016 1.425 . S
C1021 C1018 1.409 . S
C1021 C1019 1.415 . S
C1022 H1012 0.930 . S
C1022 C1020 1.419 . S
C1022 C1023 1.362 . S
C1023 H1013 0.930 . S
C1023 C1016 1.409 . S
C1023 C1022 1.362 . S
H1024 C1030 0.930 . S
H1025 C1033 0.930 . S
H1026 C1034 0.930 . S
H1027 C1035 0.930 . S
H1028 C1038 0.930 . S
H1029 C1039 0.930 . S
C1030 H1024 0.930 . S
C1030 C1031 1.355 . S
C1030 C1032 1.415 1_565 S
C1031 C1030 1.355 . S
C1031 C1033 1.419 . S
C1032 C1030 1.415 1_545 S
C1032 C1037 1.425 . S
C1032 C1039 1.409 . S
C1033 H1025 0.930 . S
C1033 C1031 1.419 . S
C1033 C1034 1.362 1_565 S
C1034 H1026 0.930 . S
C1034 C1033 1.362 1_545 S
C1034 C1037 1.409 . S
C1035 H1027 0.930 . S
C1035 C1036 1.355 . S
C1035 C1037 1.415 . S
C1036 C1035 1.355 . S
C1036 C1038 1.419 . S
C1037 C1032 1.425 . S
C1037 C1034 1.409 . S
C1037 C1035 1.415 . S
C1038 H1028 0.930 . S
C1038 C1036 1.419 . S
C1038 C1039 1.362 . S
C1039 H1029 0.930 . S
C1039 C1032 1.409 . S
C1039 C1038 1.362 . S
H1040 C1046 0.930 . S
H1041 C1049 0.930 1_556 S
H1042 C1050 0.930 . S
H1043 C1051 0.930 . S
H1044 C1054 0.930 . S
H1045 C1055 0.930 . S
C1046 H1040 0.930 . S
C1046 C1047 1.355 . S
C1046 C1048 1.415 . S
C1047 C1046 1.355 . S
C1047 C1049 1.419 . S
C1048 C1046 1.415 . S
C1048 C1053 1.425 . S
C1048 C1055 1.409 . S
C1049 H1041 0.930 1_554 S
C1049 C1047 1.419 . S
C1049 C1050 1.362 . S
C1050 H1042 0.930 . S
C1050 C1049 1.362 . S
C1050 C1053 1.409 . S
C1051 H1043 0.930 . S
C1051 C1052 1.355 . S
C1051 C1053 1.415 . S
C1052 C1051 1.355 . S
C1052 C1054 1.419 . S
C1053 C1048 1.425 . S
C1053 C1050 1.409 . S
C1053 C1051 1.415 . S
C1054 H1044 0.930 . S
C1054 C1052 1.419 . S
C1054 C1055 1.362 . S
C1055 H1045 0.930 . S
C1055 C1048 1.409 . S
C1055 C1054 1.362 . S
H1056 C1062 0.930 . S
H1057 C1065 0.930 . S
H1058 C1066 0.930 . S
H1059 C1067 0.930 . S
H1060 C1070 0.930 . S
H1061 C1071 0.930 . S
C1062 H1056 0.930 . S
C1062 C1063 1.355 . S
C1062 C1064 1.415 . S
C1063 C1062 1.355 . S
C1063 C1065 1.419 1_554 S
C1064 C1062 1.415 . S
C1064 C1069 1.425 1_544 S
C1064 C1071 1.409 1_545 S
C1065 H1057 0.930 . S
C1065 C1063 1.419 1_556 S
C1065 C1066 1.362 . S
C1066 H1058 0.930 . S
C1066 C1065 1.362 . S
C1066 C1069 1.409 1_545 S
C1067 H1059 0.930 . S
C1067 C1068 1.355 1_556 S
C1067 C1069 1.415 . S
C1068 C1067 1.355 1_554 S
C1068 C1070 1.419 . S
C1069 C1064 1.425 1_566 S
C1069 C1066 1.409 1_565 S
C1069 C1067 1.415 . S
C1070 H1060 0.930 . S
C1070 C1068 1.419 . S
C1070 C1071 1.362 . S
C1071 H1061 0.930 . S
C1071 C1064 1.409 1_565 S
C1071 C1070 1.362 . S
H1072 C1078 0.930 . S
H1073 C1081 0.930 . S
H1074 C1082 0.930 . S
H1075 C1083 0.930 . S
H1076 C1086 0.930 . S
H1077 C1087 0.930 . S
C1078 H1072 0.930 . S
C1078 C1079 1.355 . S
C1078 C1080 1.415 . S
C1079 C1078 1.355 . S
C1079 C1081 1.419 . S
C1080 C1078 1.415 . S
C1080 C1085 1.425 . S
C1080 C1087 1.409 . S
C1081 H1073 0.930 . S
C1081 C1079 1.419 . S
C1081 C1082 1.362 . S
C1082 H1074 0.930 . S
C1082 C1081 1.362 . S
C1082 C1085 1.409 . S
C1083 H1075 0.930 . S
C1083 C1084 1.355 . S
C1083 C1085 1.415 . S
C1084 C1083 1.355 . S
C1084 C1086 1.419 . S
C1085 C1080 1.425 . S
C1085 C1082 1.409 . S
C1085 C1083 1.415 . S
C1086 H1076 0.930 . S
C1086 C1084 1.419 . S
C1086 C1087 1.362 . S
C1087 H1077 0.930 . S
C1087 C1080 1.409 . S
C1087 C1086 1.362 . S
C327 C8 1.684 . S
C332 C19 1.684 . S
C343 C39 1.636 . S
C348 C28 1.636 . S
C359 C48 1.708 . S
C364 C59 1.708 . S
C375 C68 1.658 . S
C380 C79 1.658 . S
C391 C88 1.665 . S
C396 C99 1.665 . S
C407 C108 1.629 . S
C412 C119 1.629 . S
C423 C139 1.739 . S
C428 C128 1.739 . S
C439 C159 1.751 . S
C444 C148 1.751 . S
C455 C179 1.671 . S
C460 C168 1.671 . S
C471 C199 1.650 . S
C476 C188 1.650 . S
C487 C208 1.639 . S
C492 C219 1.639 . S
C503 C239 1.645 . S
C508 C228 1.645 . S
C519 C259 1.738 . S
C524 C248 1.738 . S
C535 C279 1.726 . S
C540 C268 1.726 . S
C551 C288 1.640 . S
C556 C299 1.640 . S
C567 C319 1.688 . S
C572 C308 1.688 . S
C583 C1 1.587 . S
C588 C226 1.446 . S
C599 C36 1.747 . S
C604 C309 1.919 . S
C615 C41 1.613 . S
C620 C189 1.581 . S
C631 C61 1.965 . S
C636 C269 1.971 . S
C647 C81 1.548 . S
C652 C266 1.483 . S
C663 C229 1.918 . S
C668 C116 1.732 . S
C679 C136 1.468 . S
C684 C306 1.315 . S
C695 C156 1.665 . S
C700 C186 1.743 . S
C711 C76 1.733 . S
C716 C169 1.742 . S
C727 C21 1.878 . S
C732 C209 1.882 . S
C743 C249 1.764 . S
C748 C101 1.779 . S
C759 C141 1.635 . S
C764 C286 1.570 . S
C775 C166 1.522 1_554 S
C780 C96 1.446 . S
C791 C121 1.587 . S
C796 C206 1.468 . S
C807 C56 1.621 . S
C812 C289 1.683 . S
C823 C16 1.601 1_556 S
C828 C246 1.629 . S
C839 C9 1.326 . S
C844 C89 1.309 1_554 S
C855 C26 1.616 . S
C860 C106 1.614 . S
C871 C49 1.397 . S
C876 C126 1.356 . S
C887 C69 1.670 . S
C892 C146 1.626 . S
C903 C241 1.632 . S
C908 C161 1.650 . S
C919 C261 1.713 . S
C924 C196 1.676 . S
C935 C201 1.667 . S
C940 C296 1.608 . S
C951 C301 1.711 . S
C956 C221 1.692 . S
C967 C29 1.708 . S
C972 C149 1.703 . S
C983 C86 1.343 . S
C988 C46 1.336 . S
C999 C109 1.751 . S
C1004 C66 1.719 1_554 S
C1015 C6 1.351 . S
C1020 C129 1.398 . S
C1031 C316 1.324 . S
C1036 C181 1.373 . S
C1047 C256 1.411 . S
C1052 C216 1.410 . S
C1063 C276 1.340 1_554 S
C1068 C236 1.348 . S
C1079 C281 1.452 . S
C1084 C176 1.424 . S
