# Generated by pormake.
# Topology snl, (6)-cn, num edge types: 1
# Building blocks:
#     Node 0, Type 0, BuildingBlock: FUNLAD_clean_sbu_0, # of connection points: 6
#     Node 1, Type 0, BuildingBlock: FUNLAD_clean_sbu_0, # of connection points: 6
#     Node 2, Type 0, BuildingBlock: FUNLAD_clean_sbu_0, # of connection points: 6
#     Node 3, Type 0, BuildingBlock: FUNLAD_clean_sbu_0, # of connection points: 6
#     Node 4, Type 0, BuildingBlock: FUNLAD_clean_sbu_0, # of connection points: 6
#     Node 5, Type 0, BuildingBlock: FUNLAD_clean_sbu_0, # of connection points: 6
#     Node 6, Type 0, BuildingBlock: FUNLAD_clean_sbu_0, # of connection points: 6
#     Node 7, Type 0, BuildingBlock: FUNLAD_clean_sbu_0, # of connection points: 6
#     Node 8, Type 0, BuildingBlock: FUNLAD_clean_sbu_0, # of connection points: 6
#     Node 9, Type 0, BuildingBlock: FUNLAD_clean_sbu_0, # of connection points: 6
#     Node 10, Type 0, BuildingBlock: FUNLAD_clean_sbu_0, # of connection points: 6
#     Node 11, Type 0, BuildingBlock: FUNLAD_clean_sbu_0, # of connection points: 6
#     Node 12, Type 0, BuildingBlock: FUNLAD_clean_sbu_0, # of connection points: 6
#     Node 13, Type 0, BuildingBlock: FUNLAD_clean_sbu_0, # of connection points: 6
#     Node 14, Type 0, BuildingBlock: FUNLAD_clean_sbu_0, # of connection points: 6
#     Node 15, Type 0, BuildingBlock: FUNLAD_clean_sbu_0, # of connection points: 6
#     Edge 16, Type (0, 0), BuildingBlock: CIFDUS_clean_linker_0, # of connection points: 2
#     Edge 17, Type (0, 0), BuildingBlock: CIFDUS_clean_linker_0, # of connection points: 2
#     Edge 18, Type (0, 0), BuildingBlock: CIFDUS_clean_linker_0, # of connection points: 2
#     Edge 19, Type (0, 0), BuildingBlock: CIFDUS_clean_linker_0, # of connection points: 2
#     Edge 20, Type (0, 0), BuildingBlock: CIFDUS_clean_linker_0, # of connection points: 2
#     Edge 21, Type (0, 0), BuildingBlock: CIFDUS_clean_linker_0, # of connection points: 2
#     Edge 22, Type (0, 0), BuildingBlock: CIFDUS_clean_linker_0, # of connection points: 2
#     Edge 23, Type (0, 0), BuildingBlock: CIFDUS_clean_linker_0, # of connection points: 2
#     Edge 24, Type (0, 0), BuildingBlock: CIFDUS_clean_linker_0, # of connection points: 2
#     Edge 25, Type (0, 0), BuildingBlock: CIFDUS_clean_linker_0, # of connection points: 2
#     Edge 26, Type (0, 0), BuildingBlock: CIFDUS_clean_linker_0, # of connection points: 2
#     Edge 27, Type (0, 0), BuildingBlock: CIFDUS_clean_linker_0, # of connection points: 2
#     Edge 28, Type (0, 0), BuildingBlock: CIFDUS_clean_linker_0, # of connection points: 2
#     Edge 29, Type (0, 0), BuildingBlock: CIFDUS_clean_linker_0, # of connection points: 2
#     Edge 30, Type (0, 0), BuildingBlock: CIFDUS_clean_linker_0, # of connection points: 2
#     Edge 31, Type (0, 0), BuildingBlock: CIFDUS_clean_linker_0, # of connection points: 2
#     Edge 32, Type (0, 0), BuildingBlock: CIFDUS_clean_linker_0, # of connection points: 2
#     Edge 33, Type (0, 0), BuildingBlock: CIFDUS_clean_linker_0, # of connection points: 2
#     Edge 34, Type (0, 0), BuildingBlock: CIFDUS_clean_linker_0, # of connection points: 2
#     Edge 35, Type (0, 0), BuildingBlock: CIFDUS_clean_linker_0, # of connection points: 2
#     Edge 36, Type (0, 0), BuildingBlock: CIFDUS_clean_linker_0, # of connection points: 2
#     Edge 37, Type (0, 0), BuildingBlock: CIFDUS_clean_linker_0, # of connection points: 2
#     Edge 38, Type (0, 0), BuildingBlock: CIFDUS_clean_linker_0, # of connection points: 2
#     Edge 39, Type (0, 0), BuildingBlock: CIFDUS_clean_linker_0, # of connection points: 2
#     Edge 40, Type (0, 0), BuildingBlock: CIFDUS_clean_linker_0, # of connection points: 2
#     Edge 41, Type (0, 0), BuildingBlock: CIFDUS_clean_linker_0, # of connection points: 2
#     Edge 42, Type (0, 0), BuildingBlock: CIFDUS_clean_linker_0, # of connection points: 2
#     Edge 43, Type (0, 0), BuildingBlock: CIFDUS_clean_linker_0, # of connection points: 2
#     Edge 44, Type (0, 0), BuildingBlock: CIFDUS_clean_linker_0, # of connection points: 2
#     Edge 45, Type (0, 0), BuildingBlock: CIFDUS_clean_linker_0, # of connection points: 2
#     Edge 46, Type (0, 0), BuildingBlock: CIFDUS_clean_linker_0, # of connection points: 2
#     Edge 47, Type (0, 0), BuildingBlock: CIFDUS_clean_linker_0, # of connection points: 2
#     Edge 48, Type (0, 0), BuildingBlock: CIFDUS_clean_linker_0, # of connection points: 2
#     Edge 49, Type (0, 0), BuildingBlock: CIFDUS_clean_linker_0, # of connection points: 2
#     Edge 50, Type (0, 0), BuildingBlock: CIFDUS_clean_linker_0, # of connection points: 2
#     Edge 51, Type (0, 0), BuildingBlock: CIFDUS_clean_linker_0, # of connection points: 2
#     Edge 52, Type (0, 0), BuildingBlock: CIFDUS_clean_linker_0, # of connection points: 2
#     Edge 53, Type (0, 0), BuildingBlock: CIFDUS_clean_linker_0, # of connection points: 2
#     Edge 54, Type (0, 0), BuildingBlock: CIFDUS_clean_linker_0, # of connection points: 2
#     Edge 55, Type (0, 0), BuildingBlock: CIFDUS_clean_linker_0, # of connection points: 2
#     Edge 56, Type (0, 0), BuildingBlock: CIFDUS_clean_linker_0, # of connection points: 2
#     Edge 57, Type (0, 0), BuildingBlock: CIFDUS_clean_linker_0, # of connection points: 2
#     Edge 58, Type (0, 0), BuildingBlock: CIFDUS_clean_linker_0, # of connection points: 2
#     Edge 59, Type (0, 0), BuildingBlock: CIFDUS_clean_linker_0, # of connection points: 2
#     Edge 60, Type (0, 0), BuildingBlock: CIFDUS_clean_linker_0, # of connection points: 2
#     Edge 61, Type (0, 0), BuildingBlock: CIFDUS_clean_linker_0, # of connection points: 2
#     Edge 62, Type (0, 0), BuildingBlock: CIFDUS_clean_linker_0, # of connection points: 2
#     Edge 63, Type (0, 0), BuildingBlock: CIFDUS_clean_linker_0, # of connection points: 2
# Relax obj value: 0.122
# Max RMSD: 0.131
# Mean RMSD: 0.100
data_MOF--net-snl--node1-FUNLAD_clean_sbu_0--edge1-CIFDUS_clean_linker_0
_symmetry_space_group_name_H-M    P1
_symmetry_Int_Tables_number       1
_symmetry_cell_setting            triclinic
loop_
_symmetry_equiv_pos_as_xyz
'x, y, z'
_cell_length_a     65.175977
_cell_length_b     63.416676
_cell_length_c     13.479075
_cell_angle_alpha  90.533016
_cell_angle_beta   90.446746
_cell_angle_gamma 90.556112
loop_
_atom_site_label
_atom_site_type_symbol
_atom_site_fract_x
_atom_site_fract_y
_atom_site_fract_z
_atom_type_partial_charge
C0 C 0.16686 0.64793 0.51756 0.0
N1 N 0.16565 0.70135 0.34083 0.0
C2 C 0.15163 0.70955 0.40422 0.0
C3 C 0.14823 0.73118 0.40654 0.0
C4 C 0.1593 0.74422 0.34239 0.0
C5 C 0.17459 0.73549 0.2825 0.0
C6 C 0.17755 0.71382 0.28294 0.0
Zn7 Zn 0.16669 0.67004 0.32158 0.0
C8 C 0.21326 0.65422 0.31598 0.0
N9 N 0.16809 0.60447 0.28074 0.0
C10 C 0.15333 0.59099 0.31369 0.0
C11 C 0.18299 0.59794 0.21777 0.0
C12 C 0.18317 0.5773 0.1831 0.0
C13 C 0.16765 0.56332 0.21205 0.0
C14 C 0.15274 0.57014 0.27935 0.0
Zn15 Zn 0.16694 0.63582 0.30607 0.0
O16 O 0.16703 0.666 0.47762 0.0
C17 C 0.12029 0.65117 0.31029 0.0
O18 O 0.16668 0.63156 0.46229 0.0
H19 H 0.19418 0.609 0.18981 0.0
H20 H 0.14238 0.69921 0.44934 0.0
H21 H 0.14156 0.59662 0.36318 0.0
O22 O 0.13033 0.66866 0.32033 0.0
O23 O 0.13149 0.63467 0.30209 0.0
H24 H 0.18862 0.70683 0.23347 0.0
O25 O 0.16709 0.63986 0.14993 0.0
O26 O 0.16633 0.67414 0.16491 0.0
O27 O 0.20237 0.63726 0.31028 0.0
O28 O 0.20293 0.67137 0.32191 0.0
C29 C 0.1667 0.65784 0.10971 0.0
H30 H 0.13622 0.73743 0.45312 0.0
H31 H 0.18351 0.74522 0.2328 0.0
H32 H 0.19468 0.57265 0.12984 0.0
H33 H 0.14056 0.55964 0.30308 0.0
C34 C 0.67048 0.92167 0.4018 0.0
N35 N 0.62681 0.92928 0.17951 0.0
C36 C 0.61463 0.91725 0.2381 0.0
C37 C 0.59357 0.92027 0.2389 0.0
C38 C 0.5849 0.93577 0.17846 0.0
C39 C 0.59776 0.94787 0.11777 0.0
C40 C 0.61887 0.94431 0.11939 0.0
Zn41 Zn 0.65737 0.92476 0.18974 0.0
C42 C 0.68062 0.96464 0.20649 0.0
N43 N 0.72093 0.9148 0.21845 0.0
C44 C 0.72891 0.90187 0.28853 0.0
C45 C 0.73309 0.92751 0.16284 0.0
C46 C 0.7541 0.92838 0.1802 0.0
C47 C 0.76263 0.91601 0.25523 0.0
C48 C 0.74995 0.90217 0.30806 0.0
Zn49 Zn 0.69042 0.91866 0.20558 0.0
O50 O 0.65494 0.92445 0.34638 0.0
C51 C 0.66699 0.87877 0.19188 0.0
O52 O 0.68785 0.9188 0.36225 0.0
H53 H 0.72639 0.93767 0.10766 0.0
H54 H 0.62129 0.90549 0.28578 0.0
H55 H 0.71886 0.89199 0.33199 0.0
O56 O 0.65249 0.89187 0.1838 0.0
O57 O 0.6853 0.88558 0.20223 0.0
H58 H 0.62892 0.95369 0.0736 0.0
O59 O 0.69276 0.91854 0.04899 0.0
O60 O 0.65995 0.92513 0.03327 0.0
O61 O 0.6954 0.95181 0.21018 0.0
O62 O 0.66244 0.95754 0.19696 0.0
C63 C 0.67727 0.9218 -0.00631 0.0
H64 H 0.58425 0.91088 0.28828 0.0
H65 H 0.59159 0.95989 0.06977 0.0
H66 H 0.76353 0.93895 0.13681 0.0
H67 H 0.7561 0.89239 0.36646 0.0
C68 C 0.40088 0.38549 0.10637 0.0
N69 N 0.44575 0.38463 0.33613 0.0
C70 C 0.45613 0.3675 0.30242 0.0
C71 C 0.47579 0.3632 0.33879 0.0
C72 C 0.48496 0.37689 0.40916 0.0
C73 C 0.4746 0.3955 0.4348 0.0
C74 C 0.45485 0.39892 0.39848 0.0
Zn75 Zn 0.41459 0.38597 0.31888 0.0
C76 C 0.39896 0.43255 0.30881 0.0
N77 N 0.34963 0.38661 0.29851 0.0
C78 C 0.34045 0.37159 0.35476 0.0
C79 C 0.33924 0.40398 0.26877 0.0
C80 C 0.31976 0.40803 0.30687 0.0
C81 C 0.31112 0.39395 0.37523 0.0
C82 C 0.32109 0.37487 0.39332 0.0
Zn83 Zn 0.38085 0.38622 0.30148 0.0
O84 O 0.41676 0.38511 0.16207 0.0
C85 C 0.39672 0.33983 0.31243 0.0
O86 O 0.38315 0.38609 0.14535 0.0
H87 H 0.34677 0.41573 0.22383 0.0
H88 H 0.44869 0.35637 0.25236 0.0
H89 H 0.34895 0.35823 0.38092 0.0
O90 O 0.41328 0.35061 0.32259 0.0
O91 O 0.38026 0.35027 0.29987 0.0
H92 H 0.44633 0.41232 0.42535 0.0
O93 O 0.37882 0.38643 0.45848 0.0
O94 O 0.41216 0.38678 0.47521 0.0
O95 O 0.38197 0.42225 0.30269 0.0
O96 O 0.41531 0.42156 0.31563 0.0
C97 C 0.39455 0.38671 0.51435 0.0
H98 H 0.48311 0.34869 0.31635 0.0
H99 H 0.48129 0.40695 0.48597 0.0
H100 H 0.31236 0.4228 0.28976 0.0
H101 H 0.31527 0.36365 0.44648 0.0
C102 C 0.87745 0.19711 0.70139 0.0
N103 N 0.86403 0.24869 0.88538 0.0
C104 C 0.87844 0.26174 0.84615 0.0
C105 C 0.87568 0.2835 0.84794 0.0
C106 C 0.85765 0.29199 0.88814 0.0
C107 C 0.84255 0.27797 0.92302 0.0
C108 C 0.8462 0.25634 0.92231 0.0
Zn109 Zn 0.87003 0.2174 0.89786 0.0
C110 C 0.83232 0.19074 0.86747 0.0
N111 N 0.88175 0.15225 0.93053 0.0
C112 C 0.89831 0.14358 0.88542 0.0
C113 C 0.87075 0.14143 -0.00102 0.0
C114 C 0.87697 0.12154 0.02887 0.0
C115 C 0.89455 0.11264 -0.01286 0.0
C116 C 0.90496 0.12355 0.91243 0.0
Zn117 Zn 0.87539 0.18324 0.91279 0.0
O118 O 0.87506 0.21503 0.74269 0.0
C119 C 0.91378 0.20875 0.93285 0.0
O120 O 0.87853 0.18075 0.75528 0.0
H121 H 0.85762 0.14862 0.03376 0.0
H122 H 0.89243 0.25534 0.81628 0.0
H123 H 0.90691 0.15257 0.83175 0.0
O124 O 0.90173 0.22425 0.92429 0.0
O125 O 0.90651 0.19016 0.92879 0.0
H126 H 0.83497 0.2457 0.95352 0.0
O127 O 0.87224 0.18623 0.06878 0.0
O128 O 0.8648 0.21961 0.05473 0.0
O129 O 0.84422 0.17616 0.89449 0.0
O130 O 0.83888 0.20967 0.86612 0.0
C131 C 0.86769 0.20366 0.10944 0.0
H132 H 0.88798 0.2935 0.82144 0.0
H133 H 0.82817 0.28357 0.95235 0.0
H134 H 0.86837 0.11336 0.08548 0.0
H135 H 0.91858 0.11709 0.87862 0.0
C136 C 0.14254 0.41007 0.09751 0.0
N137 N 0.09643 0.41576 0.88145 0.0
C138 C 0.08494 0.40398 0.94435 0.0
C139 C 0.0641 0.40811 0.95546 0.0
C140 C 0.05514 0.42449 0.90116 0.0
C141 C 0.06713 0.43551 0.83256 0.0
C142 C 0.08787 0.4309 0.82404 0.0
Zn143 Zn 0.12737 0.41395 0.88508 0.0
C144 C 0.14578 0.45622 0.92182 0.0
N145 N 0.19229 0.41236 0.89792 0.0
C146 C 0.20275 0.39446 0.9189 0.0
C147 C 0.20098 0.42803 0.84371 0.0
C148 C 0.21955 0.42486 0.7967 0.0
C149 C 0.22933 0.40536 0.80533 0.0
C150 C 0.22151 0.3906 0.87293 0.0
Zn151 Zn 0.16109 0.41292 0.90242 0.0
O152 O 0.12678 0.41166 0.04197 0.0
C153 C 0.14281 0.37041 0.87353 0.0
O154 O 0.16026 0.40957 0.05848 0.0
H155 H 0.19241 0.44196 0.82541 0.0
H156 H 0.09213 0.39209 -0.0105 0.0
H157 H 0.19562 0.38221 0.96246 0.0
O158 O 0.12612 0.38064 0.87211 0.0
O159 O 0.15972 0.38028 0.88341 0.0
H160 H 0.09734 0.44012 0.77489 0.0
O161 O 0.16177 0.4163 0.74593 0.0
O162 O 0.12841 0.41608 0.72827 0.0
O163 O 0.16187 0.44524 0.92426 0.0
O164 O 0.12873 0.44733 0.90152 0.0
C165 C 0.1461 0.41675 0.6897 0.0
H166 H 0.0554 0.39935 0.00968 0.0
H167 H 0.06069 0.448 0.7882 0.0
H168 H 0.22478 0.43668 0.74498 0.0
H169 H 0.22885 0.37554 0.88353 0.0
C170 C 0.92809 0.91267 0.50378 0.0
N171 N 0.9286 0.86555 0.28301 0.0
C172 C 0.94339 0.85464 0.33154 0.0
C173 C 0.94241 0.83262 0.33472 0.0
C174 C 0.92563 0.82178 0.2906 0.0
C175 C 0.91102 0.83367 0.23855 0.0
C176 C 0.91311 0.85542 0.23362 0.0
Zn177 Zn 0.92662 0.89746 0.29152 0.0
C178 C 0.88326 0.91009 0.31637 0.0
N179 N 0.91989 0.96395 0.30904 0.0
C180 C 0.93358 0.97755 0.3528 0.0
C181 C 0.90444 0.97102 0.25002 0.0
C182 C 0.90293 0.99227 0.22842 0.0
C183 C 0.91744 1.0065 0.2677 0.0
C184 C 0.93254 0.99919 0.33337 0.0
Zn185 Zn 0.92324 0.93206 0.30825 0.0
O186 O 0.92925 0.89642 0.4481 0.0
C187 C 0.96649 0.9194 0.28192 0.0
O188 O 0.92575 0.93072 0.4648 0.0
H189 H 0.89385 0.96004 0.21466 0.0
H190 H 0.95565 0.86304 0.36998 0.0
H191 H 0.94584 0.97154 0.39871 0.0
O192 O 0.95841 0.90109 0.27879 0.0
O193 O 0.95524 0.9354 0.2955 0.0
H194 H 0.90168 0.86429 0.1937 0.0
O195 O 0.92084 0.93294 0.15125 0.0
O196 O 0.92408 0.89881 0.13467 0.0
O197 O 0.89131 0.92834 0.32069 0.0
O198 O 0.89465 0.89425 0.30463 0.0
C199 C 0.92188 0.91678 0.09549 0.0
H200 H 0.95448 0.82436 0.37322 0.0
H201 H 0.89748 0.82661 0.20492 0.0
H202 H 0.89095 0.99746 0.17832 0.0
H203 H 0.94395 1.00988 0.36489 0.0
C204 C 0.38868 0.66649 0.10675 0.0
N205 N 0.38886 0.71823 0.32508 0.0
C206 C 0.37322 0.72916 0.28096 0.0
C207 C 0.37261 0.75169 0.28208 0.0
C208 C 0.38831 0.76398 0.32824 0.0
C209 C 0.40412 0.75215 0.37397 0.0
C210 C 0.4041 0.72967 0.37168 0.0
Zn211 Zn 0.38966 0.68268 0.31766 0.0
C212 C 0.34293 0.66331 0.31225 0.0
N213 N 0.38918 0.60911 0.29587 0.0
C214 C 0.37467 0.59801 0.24247 0.0
C215 C 0.40362 0.59781 0.34697 0.0
C216 C 0.40369 0.57526 0.34631 0.0
C217 C 0.38868 0.56332 0.29319 0.0
C218 C 0.37416 0.57553 0.24017 0.0
Zn219 Zn 0.38874 0.6447 0.30312 0.0
O220 O 0.38914 0.68303 0.1616 0.0
C221 C 0.43555 0.66412 0.30852 0.0
O222 O 0.3884 0.64815 0.14586 0.0
H223 H 0.41519 0.60624 0.39005 0.0
H224 H 0.36107 0.72047 0.24322 0.0
H225 H 0.36317 0.60656 0.2013 0.0
O226 O 0.42567 0.68169 0.31531 0.0
O227 O 0.42443 0.64707 0.30296 0.0
H228 H 0.41655 0.72141 0.40735 0.0
O229 O 0.38916 0.64436 0.45915 0.0
O230 O 0.39008 0.67923 0.47489 0.0
O231 O 0.35278 0.64574 0.30482 0.0
O232 O 0.35404 0.68033 0.31847 0.0
C233 C 0.38971 0.6609 0.51399 0.0
H234 H 0.36004 0.75937 0.24455 0.0
H235 H 0.41658 0.76017 0.41266 0.0
H236 H 0.41527 0.5673 0.38957 0.0
H237 H 0.36235 0.56783 0.19579 0.0
C238 C 0.6796 0.13372 0.12006 0.0
N239 N 0.633 0.13135 0.32789 0.0
C240 C 0.62395 0.14455 0.26213 0.0
C241 C 0.60276 0.14541 0.25459 0.0
C242 C 0.59068 0.13277 0.31616 0.0
C243 C 0.60032 0.11909 0.38294 0.0
C244 C 0.62172 0.11862 0.38758 0.0
Zn245 Zn 0.66392 0.13169 0.33121 0.0
C246 C 0.68025 0.08862 0.31053 0.0
N247 N 0.7288 0.13367 0.32444 0.0
C248 C 0.73815 0.15174 0.29431 0.0
C249 C 0.73809 0.12058 0.38989 0.0
C250 C 0.75594 0.1271 0.43937 0.0
C251 C 0.76405 0.14731 0.4216 0.0
C252 C 0.75586 0.15902 0.34289 0.0
Zn253 Zn 0.69761 0.13217 0.31685 0.0
O254 O 0.66389 0.13225 0.17466 0.0
C255 C 0.67931 0.17523 0.33836 0.0
O256 O 0.69732 0.13458 0.16021 0.0
H257 H 0.73034 0.10634 0.41331 0.0
H258 H 0.63317 0.15454 0.21532 0.0
H259 H 0.73053 0.16186 0.24176 0.0
O260 O 0.66314 0.16409 0.33676 0.0
O261 O 0.69661 0.16624 0.33304 0.0
H262 H 0.62932 0.10825 0.43909 0.0
O263 O 0.69776 0.12984 0.47291 0.0
O264 O 0.6644 0.13109 0.48847 0.0
O265 O 0.69747 0.09814 0.30216 0.0
O266 O 0.66422 0.09929 0.32562 0.0
C267 C 0.68211 0.13015 0.52811 0.0
H268 H 0.59592 0.15588 0.20088 0.0
H269 H 0.59146 0.10921 0.43214 0.0
H270 H 0.76218 0.11726 0.49726 0.0
H271 H 0.76166 0.17462 0.32596 0.0
C272 C 0.84726 0.45844 0.87189 0.0
N273 N 0.80074 0.45667 0.08091 0.0
C274 C 0.79198 0.46716 0.00425 0.0
C275 C 0.77403 0.45933 0.95986 0.0
C276 C 0.76461 0.44103 -0.00255 0.0
C277 C 0.77213 0.43295 0.08751 0.0
C278 C 0.79049 0.4409 0.1276 0.0
Zn279 Zn 0.83207 0.45611 0.08438 0.0
C280 C 0.846 0.41207 0.05182 0.0
N281 N 0.89663 0.45112 0.06345 0.0
C282 C 0.9078 0.46308 0.0 0.0
C283 C 0.90532 0.4353 0.11614 0.0
C284 C 0.92585 0.4303 0.10243 0.0
C285 C 0.93748 0.44159 0.03332 0.0
C286 C 0.92839 0.45853 -0.01643 0.0
Zn287 Zn 0.86576 0.45395 0.06807 0.0
O288 O 0.83155 0.45804 0.92669 0.0
C289 C 0.85247 0.49805 0.10249 0.0
O290 O 0.86489 0.45767 0.91206 0.0
H291 H 0.8961 0.42594 0.16581 0.0
H292 H 0.80031 0.4798 0.96865 0.0
H293 H 0.90051 0.47552 0.95876 0.0
O294 O 0.83465 0.48958 0.09852 0.0
O295 O 0.86821 0.48664 0.09059 0.0
H296 H 0.79771 0.43275 0.18854 0.0
O297 O 0.86638 0.45019 0.22492 0.0
O298 O 0.83311 0.45405 0.24052 0.0
O299 O 0.86318 0.42136 0.04487 0.0
O300 O 0.83014 0.42263 0.07191 0.0
C301 C 0.85068 0.45145 0.28008 0.0
H302 H 0.769 0.46639 0.89122 0.0
H303 H 0.76494 0.4195 0.12233 0.0
H304 H 0.93239 0.41738 0.14364 0.0
H305 H 0.93679 0.46754 0.92914 0.0
C306 C 0.38837 0.16427 0.53909 0.0
N307 N 0.33563 0.16254 0.37298 0.0
C308 C 0.33047 0.14732 0.43894 0.0
C309 C 0.31309 0.14921 0.49664 0.0
C310 C 0.3004 0.16682 0.48646 0.0
C311 C 0.3051 0.18153 0.41209 0.0
C312 C 0.323 0.17914 0.35611 0.0
Zn313 Zn 0.36622 0.16295 0.34022 0.0
C314 C 0.38309 0.20996 0.33354 0.0
N315 N 0.4304 0.16429 0.31137 0.0
C316 C 0.4408 0.15084 0.37086 0.0
C317 C 0.44019 0.17652 0.24387 0.0
C318 C 0.46147 0.17535 0.23421 0.0
C319 C 0.47248 0.16143 0.29453 0.0
C320 C 0.46192 0.14922 0.36392 0.0
Zn321 Zn 0.39982 0.16467 0.32867 0.0
O322 O 0.371 0.16299 0.49671 0.0
C323 C 0.38387 0.11753 0.33151 0.0
O324 O 0.40425 0.16545 0.4857 0.0
H325 H 0.43149 0.18706 0.19741 0.0
H326 H 0.34095 0.13477 0.45562 0.0
H327 H 0.43271 0.1413 0.42411 0.0
O328 O 0.3667 0.12704 0.33566 0.0
O329 O 0.39993 0.12922 0.32877 0.0
H330 H 0.32751 0.19131 0.3048 0.0
O331 O 0.39515 0.16406 0.17224 0.0
O332 O 0.36151 0.16305 0.18401 0.0
O333 O 0.39998 0.19999 0.32715 0.0
O334 O 0.36667 0.19876 0.34129 0.0
C335 C 0.37755 0.16352 0.13046 0.0
H336 H 0.31069 0.13769 0.55425 0.0
H337 H 0.29561 0.19521 0.40035 0.0
H338 H 0.46916 0.18498 0.17963 0.0
H339 H 0.46992 0.13863 0.41322 0.0
C340 C 0.61212 0.67614 0.50498 0.0
N341 N 0.60996 0.6218 0.33586 0.0
C342 C 0.62383 0.61695 0.40771 0.0
C343 C 0.62451 0.59692 0.44662 0.0
C344 C 0.61128 0.58116 0.40957 0.0
C345 C 0.59712 0.58632 0.3344 0.0
C346 C 0.59664 0.60703 0.29857 0.0
Zn347 Zn 0.61014 0.65309 0.30594 0.0
C348 C 0.56536 0.67185 0.30182 0.0
N349 N 0.61542 0.7192 0.2746 0.0
C350 C 0.62983 0.72966 0.33009 0.0
C351 C 0.60418 0.72927 0.20435 0.0
C352 C 0.60765 0.75069 0.18621 0.0
C353 C 0.62286 0.7617 0.2408 0.0
C354 C 0.63375 0.75097 0.31464 0.0
Zn355 Zn 0.61334 0.6875 0.29466 0.0
O356 O 0.6102 0.65833 0.46257 0.0
C357 C 0.6582 0.66796 0.29681 0.0
O358 O 0.61395 0.6924 0.4516 0.0
H359 H 0.5929 0.72056 0.16072 0.0
H360 H 0.63411 0.62884 0.43795 0.0
H361 H 0.63865 0.72135 0.38527 0.0
O362 O 0.64592 0.65206 0.30321 0.0
O363 O 0.64935 0.68593 0.29211 0.0
H364 H 0.58555 0.61135 0.24236 0.0
O365 O 0.61268 0.68259 0.13837 0.0
O366 O 0.6097 0.64817 0.14948 0.0
O367 O 0.57721 0.68829 0.29656 0.0
O368 O 0.57464 0.65409 0.30653 0.0
C369 C 0.61109 0.66461 0.0962 0.0
H370 H 0.63523 0.59397 0.50658 0.0
H371 H 0.58667 0.57456 0.30359 0.0
H372 H 0.59897 0.75838 0.12828 0.0
H373 H 0.64531 0.75893 0.35981 0.0
C374 C 0.12522 0.9533 -0.01739 0.0
N375 N 0.12592 0.99979 0.20095 0.0
C376 C 0.13894 1.0094 0.1371 0.0
C377 C 0.13722 0.03081 0.11856 0.0
C378 C 0.12214 0.04263 0.16729 0.0
C379 C 0.10965 0.03254 0.23729 0.0
C380 C 0.11177 1.01091 0.25285 0.0
Zn381 Zn 0.12532 0.96788 0.19681 0.0
C382 C 0.08286 0.95073 0.18533 0.0
N383 N 0.12355 0.90175 0.16825 0.0
C384 C 0.13647 0.89179 0.1049 0.0
C385 C 0.11119 0.89084 0.23078 0.0
C386 C 0.11238 0.86899 0.23509 0.0
C387 C 0.12639 0.85843 0.17435 0.0
C388 C 0.13811 0.86996 0.10657 0.0
Zn389 Zn 0.1244 0.9334 0.17674 0.0
O390 O 0.12576 0.96939 0.03921 0.0
C391 C 0.16697 0.94892 0.19447 0.0
O392 O 0.12449 0.93512 0.02081 0.0
H393 H 0.10097 0.89916 0.28002 0.0
H394 H 0.14991 1.00021 0.09583 0.0
H395 H 0.14615 0.90085 0.05601 0.0
O396 O 0.15829 0.96673 0.20334 0.0
O397 O 0.15607 0.93256 0.17983 0.0
H398 H 0.10151 1.00285 0.30288 0.0
O399 O 0.12429 0.93185 0.33426 0.0
O400 O 0.12476 0.96625 0.35254 0.0
O401 O 0.0929 0.93389 0.1751 0.0
O402 O 0.09245 0.9682 0.19391 0.0
C403 C 0.12443 0.94801 0.39073 0.0
H404 H 0.14696 0.03772 0.0626 0.0
H405 H 0.09803 0.04111 0.27755 0.0
H406 H 0.10298 0.8605 0.28763 0.0
H407 H 0.14924 0.86233 0.0594 0.0
C408 C 0.88629 0.65663 0.49003 0.0
N409 N 0.83352 0.662 0.27378 0.0
C410 C 0.82077 0.64723 0.31662 0.0
C411 C 0.79868 0.64909 0.31751 0.0
C412 C 0.78831 0.6665 0.27472 0.0
C413 C 0.802 0.68129 0.23007 0.0
C414 C 0.82394 0.67884 0.23044 0.0
Zn415 Zn 0.86966 0.65943 0.27902 0.0
C416 C 0.89264 0.70052 0.29314 0.0
N417 N 0.94466 0.65467 0.30251 0.0
C418 C 0.95526 0.67006 0.3547 0.0
C419 C 0.95652 0.63988 0.25464 0.0
C420 C 0.97874 0.64035 0.2576 0.0
C421 C 0.99012 0.65634 0.30949 0.0
C422 C 0.9773 0.67114 0.35896 0.0
Zn423 Zn 0.90839 0.65594 0.29415 0.0
O424 O 0.87021 0.65857 0.43561 0.0
C425 C 0.88526 0.61458 0.2723 0.0
O426 O 0.90415 0.65498 0.45103 0.0
H427 H 0.9489 0.62751 0.21209 0.0
H428 H 0.82761 0.63374 0.35206 0.0
H429 H 0.94665 0.68201 0.39371 0.0
O430 O 0.86933 0.6263 0.27251 0.0
O431 O 0.90339 0.62257 0.28257 0.0
H432 H 0.83328 0.69082 0.19565 0.0
O433 O 0.90792 0.6574 0.13757 0.0
O434 O 0.87384 0.65986 0.12197 0.0
O435 O 0.90857 0.68903 0.30137 0.0
O436 O 0.87461 0.69246 0.28324 0.0
C437 C 0.89177 0.65879 0.08308 0.0
H438 H 0.78984 0.63694 0.35394 0.0
H439 H 0.79592 0.69497 0.19325 0.0
H440 H 0.98691 0.62833 0.21691 0.0
H441 H 0.98418 0.68377 0.40261 0.0
C442 C 0.12641 0.19962 0.74311 0.0
N443 N 0.17418 0.20307 0.94275 0.0
C444 C 0.17944 0.186 0.88703 0.0
C445 C 0.19893 0.18399 0.84953 0.0
C446 C 0.21388 0.19952 0.86917 0.0
C447 C 0.20853 0.2168 0.93002 0.0
C448 C 0.18836 0.21832 0.96611 0.0
Zn449 Zn 0.14281 0.20504 0.95561 0.0
C450 C 0.1263 0.24674 0.92324 0.0
N451 N 0.07789 0.20315 0.94057 0.0
C452 C 0.06752 0.18819 0.88694 0.0
C453 C 0.06787 0.21769 -0.00344 0.0
C454 C 0.0465 0.21728 0.00137 0.0
C455 C 0.03546 0.20168 0.94852 0.0
C456 C 0.0462 0.18715 0.88993 0.0
Zn457 Zn 0.10893 0.2028 0.93969 0.0
O458 O 0.14206 0.20125 0.79898 0.0
C459 C 0.12559 0.1611 -0.02319 0.0
O460 O 0.10875 0.19948 0.78214 0.0
H461 H 0.07649 0.2294 0.03877 0.0
H462 H 0.16808 0.17452 0.86326 0.0
H463 H 0.07582 0.17686 0.84272 0.0
O464 O 0.14152 0.17262 -0.02141 0.0
O465 O 0.10835 0.1694 0.95847 0.0
H466 H 0.18382 0.23212 0.00794 0.0
O467 O 0.10948 0.20632 0.09625 0.0
O468 O 0.14305 0.20891 0.11251 0.0
O469 O 0.10975 0.23595 0.92296 0.0
O470 O 0.14338 0.2376 0.9359 0.0
C471 C 0.12529 0.20835 0.15165 0.0
H472 H 0.20163 0.17089 0.79939 0.0
H473 H 0.21952 0.22927 0.94665 0.0
H474 H 0.03873 0.22866 0.04784 0.0
H475 H 0.03818 0.17508 0.84696 0.0
C476 C 0.64103 0.3805 0.40589 0.0
N477 N 0.61993 0.42219 0.61902 0.0
C478 C 0.63011 0.43495 0.5553 0.0
C479 C 0.62423 0.45556 0.54267 0.0
C480 C 0.60802 0.46371 0.59822 0.0
C481 C 0.59736 0.45034 0.66291 0.0
C482 C 0.60366 0.42932 0.67226 0.0
Zn483 Zn 0.63107 0.39238 0.6182 0.0
C484 C 0.5991 0.36106 0.57919 0.0
N485 N 0.65727 0.33182 0.59053 0.0
C486 C 0.67568 0.32975 0.54445 0.0
C487 C 0.64634 0.31468 0.62029 0.0
C488 C 0.65333 0.29443 0.59886 0.0
C489 C 0.67185 0.29192 0.54774 0.0
C490 C 0.6834 0.3098 0.52303 0.0
Zn491 Zn 0.64505 0.36114 0.60191 0.0
O492 O 0.63206 0.39388 0.46037 0.0
C493 C 0.67632 0.3942 0.64518 0.0
O494 O 0.64958 0.36487 0.44648 0.0
H495 H 0.63179 0.31671 0.65702 0.0
H496 H 0.64294 0.42919 0.51315 0.0
H497 H 0.68398 0.34358 0.52018 0.0
O498 O 0.66044 0.40515 0.63227 0.0
O499 O 0.6749 0.37424 0.6377 0.0
H500 H 0.59566 0.41879 0.72177 0.0
O501 O 0.64046 0.35743 0.75738 0.0
O502 O 0.63004 0.39012 0.77474 0.0
O503 O 0.61449 0.34906 0.56738 0.0
O504 O 0.60188 0.38003 0.60672 0.0
C505 C 0.63497 0.37262 0.81346 0.0
H506 H 0.63251 0.46513 0.48984 0.0
H507 H 0.58467 0.45614 0.70644 0.0
H508 H 0.64406 0.28088 0.61898 0.0
H509 H 0.69761 0.30838 0.48247 0.0
C510 C 0.37233 0.94054 0.11895 0.0
N511 N 0.32771 0.94255 0.33536 0.0
C512 C 0.31967 0.95825 0.27932 0.0
C513 C 0.29871 0.96181 0.27776 0.0
C514 C 0.28572 0.94877 0.33225 0.0
C515 C 0.29413 0.93236 0.3883 0.0
C516 C 0.31545 0.92964 0.38974 0.0
Zn517 Zn 0.35885 0.9404 0.33017 0.0
C518 C 0.37447 0.89431 0.32211 0.0
N519 N 0.42319 0.94009 0.30448 0.0
C520 C 0.43246 0.95278 0.23719 0.0
C521 C 0.43394 0.92572 0.35742 0.0
C522 C 0.45484 0.92321 0.34107 0.0
C523 C 0.46467 0.93561 0.26962 0.0
C524 C 0.45333 0.95081 0.21851 0.0
Zn525 Zn 0.39244 0.94098 0.3166 0.0
O526 O 0.35656 0.94043 0.17337 0.0
C527 C 0.37665 0.98694 0.32652 0.0
O528 O 0.38994 0.94068 0.1597 0.0
H529 H 0.42618 0.91584 0.41057 0.0
H530 H 0.32951 0.96802 0.23441 0.0
H531 H 0.42352 0.96399 0.19563 0.0
O532 O 0.3604 0.97567 0.33395 0.0
O533 O 0.39351 0.97697 0.31741 0.0
H534 H 0.32216 0.91722 0.43338 0.0
O535 O 0.39477 0.94123 0.47323 0.0
O536 O 0.36122 0.94022 0.48681 0.0
O537 O 0.39126 0.90494 0.3165 0.0
O538 O 0.35787 0.90495 0.32779 0.0
C539 C 0.3789 0.94072 0.52749 0.0
H540 H 0.29264 0.97428 0.23191 0.0
H541 H 0.28436 0.92187 0.4303 0.0
H542 H 0.46318 0.91154 0.38304 0.0
H543 H 0.46034 0.96054 0.16228 0.0
H544 H 0.16709 0.62586 0.97378 0.0
H545 H 0.1663 0.69378 -0.00095 0.0
H546 H 0.16628 0.69662 0.81843 0.0
H547 H 0.16648 0.67988 0.6536 0.0
H548 H 0.1672 0.61196 0.62824 0.0
H549 H 0.16723 0.60912 0.80887 0.0
C550 C 0.16691 0.64131 0.93992 0.0
C551 C 0.16669 0.65959 0.0001 0.0
C552 C 0.16688 0.64284 0.83601 0.0
C553 C 0.16646 0.67945 0.9547 0.0
C554 C 0.16645 0.6811 0.85135 0.0
C555 C 0.16665 0.66443 0.68742 0.0
C556 C 0.16685 0.64616 0.6272 0.0
C557 C 0.16666 0.6629 0.79132 0.0
C558 C 0.16705 0.62629 0.67259 0.0
C559 C 0.16707 0.62464 0.77596 0.0
H560 H 0.64712 0.92626 0.85495 0.0
H561 H 0.71231 0.91649 0.887 0.0
H562 H 0.71592 0.91547 0.70704 0.0
H563 H 0.70063 0.91727 0.54055 0.0
H564 H 0.63543 0.92699 0.50845 0.0
H565 H 0.63182 0.92805 0.68844 0.0
C566 C 0.66212 0.92394 0.82264 0.0
C567 C 0.6794 0.92146 0.88449 0.0
C568 C 0.66411 0.92331 0.71903 0.0
C569 C 0.69873 0.91843 0.84124 0.0
C570 C 0.70083 0.91783 0.73826 0.0
C571 C 0.68562 0.9196 0.57285 0.0
C572 C 0.66834 0.92205 0.511 0.0
C573 C 0.68363 0.92023 0.67645 0.0
C574 C 0.64901 0.92507 0.55423 0.0
C575 C 0.64691 0.92569 0.65722 0.0
H576 H 0.37048 0.38657 0.96695 0.0
H577 H 0.43639 0.3844 0.00016 0.0
H578 H 0.44021 0.38474 0.82032 0.0
H579 H 0.42493 0.38568 0.65363 0.0
H580 H 0.35902 0.38768 0.62029 0.0
H581 H 0.35518 0.38741 0.80019 0.0
C582 C 0.38569 0.38615 0.93496 0.0
C583 C 0.4031 0.38547 -0.00286 0.0
C584 C 0.38781 0.38635 0.8314 0.0
C585 C 0.4227 0.38493 0.95421 0.0
C586 C 0.42492 0.38513 0.85128 0.0
C587 C 0.40972 0.38608 0.68565 0.0
C588 C 0.39231 0.38672 0.62348 0.0
C589 C 0.40759 0.38586 0.78918 0.0
C590 C 0.37271 0.38719 0.66633 0.0
C591 C 0.37048 0.38703 0.76927 0.0
H592 H 0.86773 0.22731 0.56667 0.0
H593 H 0.88597 0.16224 0.5887 0.0
H594 H 0.88367 0.15835 0.40848 0.0
H595 H 0.87666 0.17338 0.24461 0.0
H596 H 0.85837 0.23842 0.22207 0.0
H597 H 0.8603 0.24224 0.40255 0.0
C598 C 0.87138 0.21231 0.5321 0.0
C599 C 0.87722 0.19515 0.59143 0.0
C600 C 0.86982 0.2101 0.42831 0.0
C601 C 0.88157 0.17576 0.54512 0.0
C602 C 0.88019 0.17349 0.44195 0.0
C603 C 0.87296 0.18838 0.27901 0.0
C604 C 0.86736 0.20559 0.21944 0.0
C605 C 0.87429 0.19054 0.38283 0.0
C606 C 0.86269 0.2249 0.26577 0.0
C607 C 0.86386 0.22712 0.36909 0.0
H608 H 0.17233 0.4143 0.23965 0.0
H609 H 0.10691 0.40615 0.20043 0.0
H610 H 0.10215 0.40816 0.37942 0.0
H611 H 0.11643 0.41245 0.54741 0.0
H612 H 0.18183 0.42064 0.58704 0.0
H613 H 0.18664 0.41858 0.40797 0.0
C614 C 0.15706 0.41281 0.2703 0.0
C615 C 0.14004 0.41002 0.20658 0.0
C616 C 0.15436 0.41418 0.37351 0.0
C617 C 0.12032 0.40829 0.24763 0.0
C618 C 0.11754 0.40949 0.35009 0.0
C619 C 0.13172 0.41392 0.51688 0.0
C620 C 0.1487 0.41675 0.58068 0.0
C621 C 0.13443 0.41255 0.41373 0.0
C622 C 0.16844 0.41849 0.53974 0.0
C623 C 0.17124 0.41725 0.43725 0.0
H624 H 0.92915 0.88671 0.95489 0.0
H625 H 0.91423 0.95251 -0.00909 0.0
H626 H 0.9154 0.95721 0.81166 0.0
H627 H 0.9208 0.94275 0.64444 0.0
H628 H 0.93575 0.87694 0.60848 0.0
H629 H 0.93458 0.87225 0.78769 0.0
C630 C 0.92604 0.90205 0.92353 0.0
C631 C 0.92158 0.9192 -0.01364 0.0
C632 C 0.92689 0.90472 0.82029 0.0
C633 C 0.9177 0.93901 0.94438 0.0
C634 C 0.91841 0.94175 0.84179 0.0
C635 C 0.92392 0.92741 0.67579 0.0
C636 C 0.9284 0.91026 0.61295 0.0
C637 C 0.92308 0.92474 0.77904 0.0
C638 C 0.93228 0.89045 0.65497 0.0
C639 C 0.93157 0.88771 0.75755 0.0
H640 H 0.38923 0.69201 0.65499 0.0
H641 H 0.39017 0.62428 0.61876 0.0
H642 H 0.3898 0.62 0.79811 0.0
H643 H 0.38917 0.63537 0.96575 0.0
H644 H 0.38823 0.7031 0.00196 0.0
H645 H 0.38861 0.70737 0.82261 0.0
C646 C 0.38938 0.67631 0.68625 0.0
C647 C 0.38972 0.65854 0.62322 0.0
C648 C 0.38913 0.6739 0.78973 0.0
C649 C 0.38989 0.6383 0.66527 0.0
C650 C 0.38967 0.63579 0.76802 0.0
C651 C 0.38902 0.65107 0.93449 0.0
C652 C 0.38868 0.66884 -0.00248 0.0
C653 C 0.38927 0.65348 0.83101 0.0
C654 C 0.38851 0.68908 0.95546 0.0
C655 C 0.38873 0.69158 0.85271 0.0
H656 H 0.6526 0.13245 0.66964 0.0
H657 H 0.71817 0.12826 0.63135 0.0
H658 H 0.7233 0.1295 0.81047 0.0
H659 H 0.70923 0.13172 -0.02129 0.0
H660 H 0.64365 0.13583 0.01664 0.0
H661 H 0.63857 0.13476 0.83755 0.0
C662 C 0.668 0.13173 0.70048 0.0
C663 C 0.68492 0.13021 0.63707 0.0
C664 C 0.6709 0.13252 0.80376 0.0
C665 C 0.70481 0.12937 0.67835 0.0
C666 C 0.7078 0.13012 0.78092 0.0
C667 C 0.69385 0.13247 0.94775 0.0
C668 C 0.6769 0.13384 0.01108 0.0
C669 C 0.69097 0.13173 0.8444 0.0
C670 C 0.65703 0.13472 0.9697 0.0
C671 C 0.65406 0.1341 0.86715 0.0
H672 H 0.82136 0.45792 0.41969 0.0
H673 H 0.88584 0.4448 0.38615 0.0
H674 H 0.89062 0.44649 0.56569 0.0
H675 H 0.87662 0.45194 0.73253 0.0
H676 H 0.81208 0.46477 0.76596 0.0
H677 H 0.80731 0.46312 0.58639 0.0
C678 C 0.83644 0.4553 0.45161 0.0
C679 C 0.85318 0.45121 0.38936 0.0
C680 C 0.83914 0.45642 0.55503 0.0
C681 C 0.87264 0.44795 0.43217 0.0
C682 C 0.87543 0.44898 0.53494 0.0
C683 C 0.86154 0.45452 0.7005 0.0
C684 C 0.84478 0.45856 0.76266 0.0
C685 C 0.85882 0.45332 0.59708 0.0
C686 C 0.82529 0.46167 0.7199 0.0
C687 C 0.82251 0.46068 0.61715 0.0
H688 H 0.40885 0.16523 -0.00179 0.0
H689 H 0.34277 0.16176 0.015 0.0
H690 H 0.34036 0.16169 0.83393 0.0
H691 H 0.35699 0.16257 0.67105 0.0
H692 H 0.42308 0.16612 0.65455 0.0
H693 H 0.42546 0.16618 0.83557 0.0
C694 C 0.39389 0.16444 0.96247 0.0
C695 C 0.37601 0.16348 0.02047 0.0
C696 C 0.39261 0.16442 0.85834 0.0
C697 C 0.35678 0.16251 0.97248 0.0
C698 C 0.35539 0.16246 0.86884 0.0
C699 C 0.37194 0.16337 0.7069 0.0
C700 C 0.38985 0.16435 0.64902 0.0
C701 C 0.37321 0.16341 0.81107 0.0
C702 C 0.40906 0.16537 0.69704 0.0
C703 C 0.41043 0.1654 0.80063 0.0
H704 H 0.61392 0.69682 0.96475 0.0
H705 H 0.60789 0.62906 -0.02023 0.0
H706 H 0.60769 0.62675 0.79863 0.0
H707 H 0.60925 0.64393 0.63628 0.0
H708 H 0.61533 0.71168 0.62131 0.0
H709 H 0.6155 0.71399 0.80246 0.0
C710 C 0.61256 0.68151 0.92861 0.0
C711 C 0.61092 0.66312 -0.01385 0.0
C712 C 0.61246 0.6803 0.82443 0.0
C713 C 0.60917 0.64346 0.93763 0.0
C714 C 0.60906 0.64213 0.83396 0.0
C715 C 0.6106 0.65923 0.67247 0.0
C716 C 0.61225 0.67762 0.61498 0.0
C717 C 0.61069 0.66044 0.77665 0.0
C718 C 0.61402 0.69728 0.66347 0.0
C719 C 0.61412 0.69861 0.76713 0.0
H720 H 0.12587 0.97897 0.53166 0.0
H721 H 0.12278 0.9113 0.49456 0.0
H722 H 0.12282 0.90698 0.67417 0.0
H723 H 0.12376 0.92235 0.84172 0.0
H724 H 0.12689 0.99002 0.87886 0.0
H725 H 0.12683 0.99434 0.69922 0.0
C726 C 0.12519 0.96327 0.56279 0.0
C727 C 0.12433 0.94551 0.49967 0.0
C728 C 0.12524 0.96087 0.66617 0.0
C729 C 0.12347 0.92527 0.54136 0.0
C730 C 0.12349 0.92276 0.64413 0.0
C731 C 0.12444 0.93805 0.81058 0.0
C732 C 0.12531 0.95581 0.8737 0.0
C733 C 0.12439 0.94045 0.70721 0.0
C734 C 0.12619 0.97605 0.83203 0.0
C735 C 0.12615 0.97856 0.72926 0.0
H736 H 0.8615 0.65892 0.94209 0.0
H737 H 0.9274 0.65831 -0.02208 0.0
H738 H 0.93154 0.65731 0.79855 0.0
H739 H 0.91657 0.65652 0.63096 0.0
H740 H 0.85066 0.65713 0.59515 0.0
H741 H 0.84653 0.65815 0.77453 0.0
C742 C 0.87677 0.65862 0.91077 0.0
C743 C 0.89407 0.6587 0.97376 0.0
C744 C 0.8791 0.65798 0.80724 0.0
C745 C 0.91376 0.65826 0.93153 0.0
C746 C 0.91618 0.65767 0.82874 0.0
C747 C 0.9013 0.65681 0.66231 0.0
C748 C 0.88399 0.65673 0.59934 0.0
C749 C 0.89897 0.65747 0.76584 0.0
C750 C 0.86431 0.65719 0.64156 0.0
C751 C 0.86189 0.65779 0.74434 0.0
H752 H 0.09751 0.20618 0.59947 0.0
H753 H 0.16185 0.1932 0.64205 0.0
H754 H 0.1675 0.19572 0.46397 0.0
H755 H 0.15428 0.20184 0.29528 0.0
H756 H 0.08993 0.21484 0.25299 0.0
H757 H 0.08431 0.21233 0.43101 0.0
C758 C 0.11271 0.20371 0.56965 0.0
C759 C 0.12917 0.19945 0.63411 0.0
C760 C 0.11596 0.20543 0.46697 0.0
C761 C 0.14885 0.1965 0.59421 0.0
C762 C 0.15215 0.198 0.49227 0.0
C763 C 0.13908 0.20434 0.32516 0.0
C764 C 0.12261 0.20858 0.26074 0.0
C765 C 0.13585 0.20262 0.4279 0.0
C766 C 0.10294 0.21154 0.30074 0.0
C767 C 0.09966 0.21005 0.40267 0.0
H768 H 0.64819 0.35019 0.2658 0.0
H769 H 0.63116 0.41543 0.30042 0.0
H770 H 0.62711 0.41858 0.12106 0.0
H771 H 0.62812 0.40282 0.95423 0.0
H772 H 0.64465 0.33743 0.9191 0.0
H773 H 0.64893 0.33432 0.0984 0.0
C774 C 0.64379 0.36515 0.23398 0.0
C775 C 0.6401 0.38257 0.29651 0.0
C776 C 0.64116 0.36678 0.1306 0.0
C777 C 0.63413 0.40176 0.25408 0.0
C778 C 0.63175 0.40358 0.15145 0.0
C779 C 0.63251 0.38784 -0.0143 0.0
C780 C 0.63599 0.37039 0.92294 0.0
C781 C 0.63508 0.38616 0.089 0.0
C782 C 0.64179 0.35113 0.96539 0.0
C783 C 0.64434 0.34934 0.06806 0.0
H784 H 0.4028 0.9409 -0.01783 0.0
H785 H 0.33684 0.94016 0.01005 0.0
H786 H 0.33306 0.94011 0.82985 0.0
H787 H 0.34842 0.9403 0.66433 0.0
H788 H 0.41439 0.9411 0.63649 0.0
H789 H 0.41816 0.94111 0.81666 0.0
C790 C 0.38759 0.94072 0.94889 0.0
C791 C 0.37015 0.94051 0.00962 0.0
C792 C 0.3855 0.94072 0.84516 0.0
C793 C 0.35055 0.9403 0.96515 0.0
C794 C 0.34836 0.94028 0.86203 0.0
C795 C 0.36363 0.94048 0.69759 0.0
C796 C 0.38108 0.94071 0.63685 0.0
C797 C 0.36572 0.94049 0.80133 0.0
C798 C 0.40068 0.94094 0.68135 0.0
C799 C 0.40287 0.94094 0.78447 0.0
H800 H 0.15127 0.7631 0.16938 0.0
H801 H 0.15298 0.77411 0.4856 0.0
H802 H 0.14156 0.81041 0.46107 0.0
H803 H 0.13222 0.839 0.34896 0.0
H804 H 0.13047 0.82782 0.03268 0.0
H805 H 0.14093 0.79131 0.05779 0.0
C806 C 0.14937 0.77357 0.23273 0.0
C807 C 0.15321 0.76625 0.32893 0.0
C808 C 0.14272 0.79416 0.21801 0.0
C809 C 0.15018 0.77961 0.4109 0.0
C810 C 0.14366 0.80026 0.39688 0.0
C811 C 0.13375 0.82843 0.28573 0.0
C812 C 0.13052 0.83591 0.18921 0.0
C813 C 0.13992 0.80766 0.30073 0.0
C814 C 0.13297 0.8223 0.10758 0.0
C815 C 0.13895 0.80151 0.12189 0.0
H816 H 0.55464 0.90636 0.18167 0.0
H817 H 0.56524 0.97364 0.18456 0.0
H818 H 0.52861 0.97959 0.20901 0.0
H819 H 0.4941 0.9655 0.24188 0.0
H820 H 0.48397 0.89814 0.24385 0.0
H821 H 0.52013 0.89235 0.20824 0.0
C822 C 0.54892 0.92233 0.18781 0.0
C823 C 0.56258 0.93952 0.18224 0.0
C824 C 0.52805 0.92559 0.20433 0.0
C825 C 0.55496 0.96014 0.18793 0.0
C826 C 0.53408 0.96354 0.20284 0.0
C827 C 0.4998 0.94957 0.23349 0.0
C828 C 0.48649 0.93227 0.24631 0.0
C829 C 0.52057 0.94637 0.21293 0.0
C830 C 0.49405 0.9117 0.23613 0.0
C831 C 0.51465 0.90838 0.21503 0.0
H832 H 0.3641 0.3101 0.31629 0.0
H833 H 0.43019 0.31379 0.31633 0.0
H834 H 0.43205 0.27539 0.32227 0.0
H835 H 0.41525 0.2398 0.32776 0.0
H836 H 0.34921 0.23584 0.33154 0.0
H837 H 0.34723 0.27432 0.32408 0.0
C838 C 0.37896 0.30259 0.31739 0.0
C839 C 0.39701 0.31553 0.31546 0.0
C840 C 0.38002 0.27995 0.32176 0.0
C841 C 0.41595 0.30486 0.31762 0.0
C842 C 0.41706 0.28262 0.32106 0.0
C843 C 0.40035 0.24724 0.32709 0.0
C844 C 0.38238 0.23424 0.33031 0.0
C845 C 0.39925 0.26984 0.32327 0.0
C846 C 0.3634 0.24484 0.32936 0.0
C847 C 0.36223 0.26711 0.32494 0.0
H848 H 0.94176 0.17858 0.96523 0.0
H849 H 0.93603 0.24571 0.92417 0.0
H850 H 0.97346 0.24967 0.93014 0.0
H851 H 1.0078 0.23351 0.93768 0.0
H852 H 1.01267 0.16625 -0.02346 0.0
H853 H 0.97541 0.16287 -0.02 0.0
C854 C 0.94862 0.19414 0.958 0.0
C855 C 0.93615 0.21181 0.9436 0.0
C856 C 0.96997 0.19622 0.96034 0.0
C857 C 0.94533 0.23185 0.93517 0.0
C858 C 0.9667 0.2341 0.93829 0.0
C859 C 1.00065 0.21818 0.948 0.0
C860 C 1.0129 0.20012 0.95582 0.0
C861 C 0.97918 0.21633 0.94953 0.0
C862 C 1.00352 0.18031 0.96858 0.0
C863 C 0.98225 0.17838 0.97108 0.0
H864 H 0.1098 0.34396 0.88192 0.0
H865 H 0.17589 0.3448 0.85933 0.0
H866 H 0.17648 0.30653 0.87036 0.0
H867 H 0.15854 0.27307 0.89457 0.0
H868 H 0.09251 0.27187 0.91849 0.0
H869 H 0.09163 0.31009 0.89871 0.0
C870 C 0.1243 0.33574 0.87836 0.0
C871 C 0.14275 0.3472 0.87041 0.0
C872 C 0.12459 0.31372 0.88579 0.0
C873 C 0.16145 0.33635 0.86598 0.0
C874 C 0.16183 0.31446 0.87246 0.0
C875 C 0.14394 0.28115 0.89538 0.0
C876 C 0.12566 0.26971 0.90874 0.0
C877 C 0.14354 0.30304 0.88396 0.0
C878 C 0.10684 0.28036 0.9086 0.0
C879 C 0.10631 0.3022 0.8973 0.0
H880 H 0.06026 0.91509 0.187 0.0
H881 H 0.05522 0.9828 0.21138 0.0
H882 H 1.01843 0.97904 0.24473 0.0
H883 H 0.98814 0.95624 0.27125 0.0
H884 H 0.9944 0.88853 0.25073 0.0
H885 H 0.03062 0.89268 0.21275 0.0
C886 C 0.05117 0.92913 0.19882 0.0
C887 C 0.06043 0.94922 0.19653 0.0
C888 C 0.03037 0.92682 0.2198 0.0
C889 C 0.04839 0.96716 0.21242 0.0
C890 C 1.02743 0.96501 0.23197 0.0
C891 C 0.99746 0.9424 0.2589 0.0
C892 C 0.9886 0.9221 0.26405 0.0
C893 C 1.01832 0.94487 0.23687 0.0
C894 C 1.00084 0.90432 0.24749 0.0
C895 C 1.02153 0.90666 0.22541 0.0
H896 H 0.35582 0.79356 0.32352 0.0
H897 H 0.42197 0.79121 0.32734 0.0
H898 H 0.42376 0.82958 0.32649 0.0
H899 H 0.40693 0.86501 0.32403 0.0
H900 H 0.34086 0.86748 0.3207 0.0
H901 H 0.33899 0.82895 0.32106 0.0
C902 C 0.37073 0.80126 0.32369 0.0
C903 C 0.38875 0.78853 0.32656 0.0
C904 C 0.37179 0.82398 0.32305 0.0
C905 C 0.40767 0.79973 0.32737 0.0
C906 C 0.40876 0.82205 0.32608 0.0
C907 C 0.39205 0.85724 0.32328 0.0
C908 C 0.37403 0.86991 0.32214 0.0
C909 C 0.39098 0.83452 0.32411 0.0
C910 C 0.3551 0.85882 0.32154 0.0
C911 C 0.35398 0.83648 0.32174 0.0
H912 H 0.56857 0.16845 0.30307 0.0
H913 H 0.56237 0.10072 0.31842 0.0
H914 H 0.52505 0.10368 0.30728 0.0
H915 H 0.49446 0.12555 0.29385 0.0
H916 H 0.50071 0.19328 0.28023 0.0
H917 H 0.53807 0.19023 0.28511 0.0
C918 C 0.55907 0.15431 0.30276 0.0
C919 C 0.56814 0.1344 0.31131 0.0
C920 C 0.53778 0.15613 0.29524 0.0
C921 C 0.55567 0.11623 0.31301 0.0
C922 C 0.53439 0.11791 0.30582 0.0
C923 C 0.50402 0.13964 0.29217 0.0
C924 C 0.49494 0.15961 0.28743 0.0
C925 C 0.52534 0.13778 0.29712 0.0
C926 C 0.50742 0.17774 0.2831 0.0
C927 C 0.52872 0.17601 0.28686 0.0
H928 H 0.83771 0.31355 0.03499 0.0
H929 H 0.87214 0.32316 0.76578 0.0
H930 H 0.87187 0.36106 0.79479 0.0
H931 H 0.8631 0.39141 0.89984 0.0
H932 H 0.82532 0.38238 0.15712 0.0
H933 H 0.82513 0.34411 0.12779 0.0
C934 C 0.84473 0.32381 -0.01915 0.0
C935 C 0.85527 0.31524 0.89912 0.0
C936 C 0.84395 0.34569 -0.00401 0.0
C937 C 0.86448 0.32908 0.83114 0.0
C938 C 0.8642 0.35084 0.84709 0.0
C939 C 0.85478 0.38099 0.94906 0.0
C940 C 0.84452 0.38939 0.03126 0.0
C941 C 0.85429 0.35925 0.9301 0.0
C942 C 0.83339 0.37603 0.09371 0.0
C943 C 0.83333 0.35425 0.077 0.0
H944 H 0.62947 0.85995 0.17878 0.0
H945 H 0.69399 0.84624 0.20909 0.0
H946 H 0.68595 0.80867 0.22174 0.0
H947 H 0.66059 0.77998 0.23055 0.0
H948 H 0.59605 0.79378 0.20562 0.0
H949 H 0.60418 0.83113 0.18252 0.0
C950 C 0.64182 0.84876 0.18754 0.0
C951 C 0.66231 0.85592 0.19342 0.0
C952 C 0.63709 0.82723 0.19562 0.0
C953 C 0.67809 0.84117 0.2046 0.0
C954 C 0.67351 0.81969 0.21194 0.0
C955 C 0.64829 0.79117 0.2206 0.0
C956 C 0.62773 0.78415 0.22079 0.0
C957 C 0.65305 0.8126 0.2088 0.0
C958 C 0.61199 0.79876 0.20528 0.0
C959 C 0.61663 0.82012 0.1927 0.0
H960 H 0.91607 0.72576 0.41081 0.0
H961 H 0.87637 0.72573 0.15359 0.0
H962 H 0.88494 0.76277 0.12387 0.0
H963 H 0.90467 0.79419 0.16729 0.0
H964 H 0.93948 0.79631 0.44229 0.0
H965 H 0.93286 0.75897 0.46531 0.0
C966 C 0.90913 0.73406 0.34923 0.0
C967 C 0.8956 0.72331 0.28454 0.0
C968 C 0.91368 0.75543 0.33433 0.0
C969 C 0.88661 0.73395 0.20485 0.0
C970 C 0.89167 0.75499 0.18738 0.0
C971 C 0.91042 0.78692 0.23417 0.0
C972 C 0.92256 0.79855 0.30278 0.0
C973 C 0.90529 0.76582 0.25138 0.0
C974 C 0.93051 0.78803 0.38622 0.0
C975 C 0.92645 0.76662 0.40069 0.0
H976 H 0.70652 0.20259 0.42807 0.0
H977 H 0.64707 0.19893 0.28508 0.0
H978 H 0.63984 0.23496 0.33599 0.0
H979 H 0.64899 0.26637 0.43228 0.0
H980 H 0.7081 0.27119 0.57599 0.0
H981 H 0.71696 0.23585 0.51417 0.0
C982 C 0.69222 0.20991 0.40641 0.0
C983 C 0.67729 0.19812 0.35365 0.0
C984 C 0.68795 0.23064 0.43763 0.0
C985 C 0.65873 0.20767 0.32643 0.0
C986 C 0.65452 0.22823 0.3558 0.0
C987 C 0.66378 0.2596 0.45015 0.0
C988 C 0.67773 0.27096 0.50995 0.0
C989 C 0.66874 0.2396 0.41372 0.0
C990 C 0.69708 0.26246 0.53077 0.0
C991 C 0.70213 0.24234 0.49533 0.0
H992 H 0.97073 0.46677 0.00266 0.0
H993 H 0.95145 0.40148 0.00894 0.0
H994 H 0.98609 0.3904 0.96745 0.0
H995 H 1.02177 0.39926 0.92793 0.0
H996 H 0.04097 0.46456 0.92098 0.0
H997 H 1.00626 0.47564 0.96094 0.0
C998 C 0.97408 0.45013 -0.00581 0.0
C999 C 0.9586 0.43499 0.00949 0.0
C1000 C 0.99394 0.44387 0.96913 0.0
C1001 C 0.96321 0.41346 -0.0006 0.0
C1002 C 0.98296 0.4071 0.97484 0.0
C1003 C 1.01835 0.4159 0.93553 0.0
C1004 C 0.03386 0.43105 0.92115 0.0
C1005 C 0.99843 0.42217 0.95962 0.0
C1006 C 0.02919 0.45258 0.93008 0.0
C1007 C 1.0094 0.45894 0.95377 0.0
H1008 H 0.46734 0.69644 0.3074 0.0
H1009 H 0.46021 0.6288 0.30699 0.0
H1010 H 0.49745 0.62491 0.30543 0.0
H1011 H 0.5335 0.64011 0.30413 0.0
H1012 H 0.54095 0.70767 0.30201 0.0
H1013 H 0.50361 0.7117 0.30449 0.0
C1014 C 0.47374 0.68074 0.30701 0.0
C1015 C 0.45979 0.66293 0.30748 0.0
C1016 C 0.49602 0.67842 0.3056 0.0
C1017 C 0.46953 0.64302 0.30667 0.0
C1018 C 0.49128 0.64071 0.30579 0.0
C1019 C 0.52716 0.65584 0.30419 0.0
C1020 C 0.54118 0.67356 0.30295 0.0
C1021 C 0.50493 0.6582 0.30522 0.0
C1022 C 0.53153 0.69352 0.30292 0.0
C1023 C 0.50974 0.69589 0.30439 0.0
H1024 H 0.51829 0.3559 0.33381 0.0
H1025 H 0.49538 0.38456 0.60282 0.0
H1026 H 0.5281 0.37887 0.68482 0.0
H1027 H 0.56431 0.36967 0.6746 0.0
H1028 H 0.58753 0.3401 0.41002 0.0
H1029 H 0.55327 0.34118 0.33359 0.0
C1030 C 0.52027 0.36055 0.41088 0.0
C1031 C 0.5045 0.37137 0.4605 0.0
C1032 C 0.53911 0.35681 0.45897 0.0
C1033 C 0.50746 0.3771 0.56085 0.0
C1034 C 0.5261 0.37358 0.60862 0.0
C1035 C 0.56166 0.36281 0.60147 0.0
C1036 C 0.57826 0.35484 0.54776 0.0
C1037 C 0.54218 0.36401 0.55757 0.0
C1038 C 0.57483 0.34604 0.45308 0.0
C1039 C 0.55534 0.347 0.40887 0.0
H1040 H 0.08843 0.68234 0.33387 0.0
H1041 H 0.09568 0.61578 0.27944 0.0
H1042 H 0.05842 0.61119 0.2728 0.0
H1043 H 1.02229 0.62547 0.28277 0.0
H1044 H 1.01518 0.69213 0.33743 0.0
H1045 H 0.05225 0.69661 0.34372 0.0
C1046 C 0.08206 0.66672 0.32048 0.0
C1047 C 0.09605 0.64947 0.3072 0.0
C1048 C 0.05979 0.66395 0.31701 0.0
C1049 C 0.08632 0.62962 0.29022 0.0
C1050 C 0.06456 0.62689 0.28629 0.0
C1051 C 0.02857 0.64112 0.2959 0.0
C1052 C 1.01451 0.6583 0.31084 0.0
C1053 C 0.05085 0.64387 0.29951 0.0
C1054 C 1.02434 0.67815 0.32771 0.0
C1055 C 0.0461 0.68089 0.33065 0.0
H1056 H 0.13454 0.54529 0.12229 0.0
H1057 H 0.19829 0.535 0.19354 0.0
H1058 H 0.19752 0.50189 0.09967 0.0
H1059 H 0.17886 0.47608 -0.00016 0.0
H1060 H 0.11466 0.48499 0.93219 0.0
H1061 H 0.11559 0.51894 0.02037 0.0
C1062 C 0.14812 0.53557 0.11832 0.0
C1063 C 0.1664 0.54233 0.16501 0.0
C1064 C 0.1476 0.51668 0.06356 0.0
C1065 C 0.18407 0.52996 0.15808 0.0
C1066 C 0.18366 0.51115 0.10417 0.0
C1067 C 0.16507 0.48551 0.00308 0.0
C1068 C 0.14671 0.47806 0.95946 0.0
C1069 C 0.16556 0.50447 0.05628 0.0
C1070 C 0.12901 0.49047 0.96484 0.0
C1071 C 0.12949 0.50974 0.01597 0.0
H1072 H 0.79006 0.88467 0.27967 0.0
H1073 H 0.78412 0.95236 0.28535 0.0
H1074 H 0.82101 0.95645 0.31273 0.0
H1075 H 0.85498 0.9409 0.32368 0.0
H1076 H 0.86133 0.87319 0.31318 0.0
H1077 H 0.82413 0.86896 0.3006 0.0
C1078 C 0.79687 0.90026 0.2883 0.0
C1079 C 0.78459 0.91819 0.27954 0.0
C1080 C 0.81808 0.90249 0.30284 0.0
C1081 C 0.79346 0.93836 0.29025 0.0
C1082 C 0.81448 0.94071 0.30623 0.0
C1083 C 0.84823 0.9252 0.31967 0.0
C1084 C 0.86084 0.90741 0.31861 0.0
C1085 C 0.82695 0.9229 0.31077 0.0
C1086 C 0.8519 0.88716 0.31359 0.0
C1087 C 0.83065 0.88472 0.30623 0.0
H1088 H 0.36748 0.4627 0.28721 0.0
H1089 H 0.43293 0.45856 0.32942 0.0
H1090 H 0.43579 0.49702 0.32948 0.0
H1091 H 0.42007 0.53284 0.31664 0.0
H1092 H 0.3545 0.53688 0.2752 0.0
H1093 H 0.35174 0.49858 0.27499 0.0
C1094 C 0.38244 0.47009 0.2965 0.0
C1095 C 0.39997 0.45696 0.30837 0.0
C1096 C 0.3841 0.49278 0.29615 0.0
C1097 C 0.41904 0.46758 0.32002 0.0
C1098 C 0.42072 0.48988 0.3201 0.0
C1099 C 0.40506 0.52554 0.30799 0.0
C1100 C 0.38757 0.53875 0.29478 0.0
C1101 C 0.40341 0.50284 0.30824 0.0
C1102 C 0.36851 0.52802 0.28327 0.0
C1103 C 0.36681 0.50572 0.28394 0.0
H1104 H 0.82845 0.19979 0.67678 0.0
H1105 H 0.79902 0.16631 0.914 0.0
H1106 H 0.77479 0.15003 0.79472 0.0
H1107 H 0.7637 0.14392 0.62244 0.0
H1108 H 0.79639 0.17405 0.38386 0.0
H1109 H 0.81799 0.19299 0.50459 0.0
C1110 C 0.8163 0.1894 0.70245 0.0
C1111 C 0.8149 0.18471 0.80384 0.0
C1112 C 0.80351 0.17915 0.63309 0.0
C1113 C 0.79984 0.17053 0.83642 0.0
C1114 C 0.78627 0.16105 0.76816 0.0
C1115 C 0.77579 0.15431 0.59643 0.0
C1116 C 0.77851 0.1574 0.49386 0.0
C1117 C 0.78833 0.16487 0.66611 0.0
C1118 C 0.79389 0.17143 0.46213 0.0
C1119 C 0.80621 0.18229 0.53111 0.0
H1120 H 0.84955 0.59385 0.22985 0.0
H1121 H 0.9148 0.58415 0.26133 0.0
H1122 H 0.91034 0.54742 0.20824 0.0
H1123 H 0.88808 0.51842 0.14981 0.0
H1124 H 0.82288 0.5282 0.11838 0.0
H1125 H 0.82729 0.56481 0.17334 0.0
C1126 C 0.86284 0.58372 0.22601 0.0
C1127 C 0.88251 0.5918 0.24985 0.0
C1128 C 0.86021 0.56274 0.19418 0.0
C1129 C 0.89948 0.57837 0.24388 0.0
C1130 C 0.89696 0.55739 0.21298 0.0
C1131 C 0.87482 0.52857 0.15422 0.0
C1132 C 0.85517 0.52059 0.12937 0.0
C1133 C 0.87743 0.54949 0.18702 0.0
C1134 C 0.83816 0.53394 0.1366 0.0
C1135 C 0.84067 0.55485 0.16842 0.0
H1136 H 0.23501 0.16405 0.82597 0.0
H1137 H 0.2377 0.2316 0.79092 0.0
H1138 H 0.26551 0.22759 0.67112 0.0
H1139 H 0.28658 0.2044 0.56418 0.0
H1140 H 0.27631 0.13694 0.57443 0.0
H1141 H 0.25306 0.14147 0.71191 0.0
C1142 C 0.2414 0.178 0.79143 0.0
C1143 C 0.23379 0.19805 0.81595 0.0
C1144 C 0.2557 0.17552 0.71581 0.0
C1145 C 0.24317 0.21592 0.77401 0.0
C1146 C 0.25882 0.21361 0.70391 0.0
C1147 C 0.27898 0.19069 0.59488 0.0
C1148 C 0.28371 0.17028 0.55962 0.0
C1149 C 0.26466 0.19342 0.67152 0.0
C1150 C 0.27365 0.15279 0.60156 0.0
C1151 C 0.26025 0.15533 0.6803 0.0
H1152 H 0.58032 0.55279 0.45046 0.0
H1153 H 0.64629 0.5609 0.45859 0.0
H1154 H 0.64997 0.52745 0.54099 0.0
H1155 H 0.63523 0.49528 0.60221 0.0
H1156 H 0.57053 0.48255 0.56706 0.0
H1157 H 0.56533 0.51877 0.50834 0.0
C1158 C 0.59547 0.54709 0.46931 0.0
C1159 C 0.61295 0.55961 0.45016 0.0
C1160 C 0.59765 0.52722 0.51359 0.0
C1161 C 0.63251 0.55197 0.4751 0.0
C1162 C 0.63468 0.53279 0.52207 0.0
C1163 C 0.61993 0.50047 0.58212 0.0
C1164 C 0.60336 0.4863 0.58714 0.0
C1165 C 0.61743 0.52033 0.54124 0.0
C1166 C 0.58353 0.49328 0.56374 0.0
C1167 C 0.58065 0.51382 0.52866 0.0
H1168 H 0.25815 0.92038 0.26342 0.0
H1169 H 0.26396 0.98402 0.37496 0.0
H1170 H 0.22761 0.99027 0.33855 0.0
H1171 H 0.19438 0.97764 0.2712 0.0
H1172 H 0.18944 0.91414 0.15416 0.0
H1173 H 0.22527 0.90794 0.19484 0.0
C1174 C 0.25128 0.93545 0.28125 0.0
C1175 C 0.2634 0.95162 0.32298 0.0
C1176 C 0.23067 0.93908 0.25738 0.0
C1177 C 0.25466 0.97132 0.34369 0.0
C1178 C 0.234 0.97492 0.32223 0.0
C1179 C 0.20123 0.96256 0.25366 0.0
C1180 C 0.18925 0.94643 0.20967 0.0
C1181 C 0.2219 0.95898 0.27787 0.0
C1182 C 0.1983 0.92687 0.18808 0.0
C1183 C 0.21878 0.92322 0.21173 0.0
H1184 H 0.65277 0.99403 0.25413 0.0
H1185 H 0.71706 0.98633 0.19119 0.0
H1186 H 0.72306 0.02412 0.21985 0.0
H1187 H 0.7097 0.05954 0.2627 0.0
H1188 H 0.6453 0.06571 0.33072 0.0
H1189 H 0.63984 0.02839 0.30102 0.0
C1190 C 0.66809 1.00061 0.24594 0.0
C1191 C 0.68438 0.98748 0.21974 0.0
C1192 C 0.67147 0.02211 0.26421 0.0
C1193 C 0.70421 0.99619 0.21099 0.0
C1194 C 0.70766 0.01777 0.22756 0.0
C1195 C 0.69454 0.05266 0.27153 0.0
C1196 C 0.67798 0.06552 0.2984 0.0
C1197 C 0.69138 0.03091 0.25448 0.0
C1198 C 0.65839 0.05631 0.30971 0.0
C1199 C 0.65517 0.0349 0.29256 0.0
H1200 H 0.25954 0.43003 0.72718 0.0
H1201 H 0.23316 0.36731 0.71116 0.0
H1202 H 0.25443 0.35906 0.56872 0.0
H1203 H 0.27973 0.3699 0.44572 0.0
H1204 H 0.30611 0.43258 0.46182 0.0
H1205 H 0.28423 0.44113 0.60184 0.0
C1206 C 0.25842 0.41455 0.69259 0.0
C1207 C 0.24482 0.39932 0.73052 0.0
C1208 C 0.27006 0.41015 0.60819 0.0
C1209 C 0.24382 0.37922 0.68545 0.0
C1210 C 0.25569 0.3746 0.60258 0.0
C1211 C 0.28058 0.38549 0.47941 0.0
C1212 C 0.29457 0.40053 0.44321 0.0
C1213 C 0.26865 0.39002 0.56265 0.0
C1214 C 0.29525 0.42078 0.48672 0.0
C1215 C 0.28303 0.42557 0.56822 0.0
H1216 H 0.91924 0.01931 0.07901 0.0
H1217 H 0.91476 0.04249 0.37951 0.0
H1218 H 0.90851 0.07821 0.31814 0.0
H1219 H 0.90106 0.10179 0.17827 0.0
H1220 H 0.90526 0.07819 0.87803 0.0
H1221 H 0.91502 0.04351 0.93978 0.0
C1222 C 0.91714 0.03231 0.13083 0.0
C1223 C 0.91718 0.02846 0.23326 0.0
C1224 C 0.91333 0.05252 0.09499 0.0
C1225 C 0.91477 0.04526 0.30032 0.0
C1226 C 0.91105 0.06556 0.26522 0.0
C1227 C 0.90419 0.08902 0.12662 0.0
C1228 C 0.90217 0.0923 0.02397 0.0
C1229 C 0.90974 0.06921 0.1627 0.0
C1230 C 0.90669 0.07591 0.95732 0.0
C1231 C 0.91219 0.05612 -0.00742 0.0
H1232 H 0.24481 0.68677 0.32571 0.0
H1233 H 0.23808 0.61922 0.30287 0.0
H1234 H 0.27534 0.61559 0.29954 0.0
H1235 H 0.31134 0.63104 0.30278 0.0
H1236 H 0.3182 0.69856 0.32559 0.0
H1237 H 0.28091 0.70225 0.329 0.0
C1238 C 0.2513 0.67115 0.32007 0.0
C1239 C 0.23748 0.65329 0.31477 0.0
C1240 C 0.27357 0.66898 0.31804 0.0
C1241 C 0.24733 0.63348 0.30736 0.0
C1242 C 0.26908 0.63131 0.30536 0.0
C1243 C 0.30488 0.64668 0.30853 0.0
C1244 C 0.31873 0.66449 0.31389 0.0
C1245 C 0.28263 0.64887 0.3106 0.0
C1246 C 0.30892 0.68433 0.32126 0.0
C1247 C 0.28715 0.68652 0.32326 0.0
H1248 H 0.40776 0.01847 0.31772 0.0
H1249 H 0.34209 1.0112 0.33931 0.0
H1250 H 0.33824 0.0494 0.34262 0.0
H1251 H 0.3531 0.08594 0.33967 0.0
H1252 H 0.41873 0.09345 0.31894 0.0
H1253 H 0.42267 0.05517 0.31522 0.0
C1254 C 0.39256 0.02514 0.32317 0.0
C1255 C 0.37527 1.01122 0.32827 0.0
C1256 C 0.3903 0.04772 0.32527 0.0
C1257 C 0.35584 0.02087 0.3353 0.0
C1258 C 0.35356 0.04302 0.3372 0.0
C1259 C 0.36832 0.07932 0.3343 0.0
C1260 C 0.38556 0.09328 0.32955 0.0
C1261 C 0.37061 0.05678 0.33229 0.0
C1262 C 0.40502 0.0837 0.32275 0.0
C1263 C 0.40735 0.06152 0.32058 0.0
H1264 H 0.75429 0.63717 0.29872 0.0
H1265 H 0.76557 0.70375 0.26042 0.0
H1266 H 0.72886 0.71013 0.26216 0.0
H1267 H 0.6919 0.69762 0.27519 0.0
H1268 H 0.68052 0.63119 0.31439 0.0
H1269 H 0.71742 0.62467 0.31236 0.0
C1270 C 0.74902 0.65321 0.29092 0.0
C1271 C 0.76412 0.66976 0.27794 0.0
C1272 C 0.72698 0.6571 0.29241 0.0
C1273 C 0.75556 0.69019 0.26814 0.0
C1274 C 0.73402 0.69404 0.26997 0.0
C1275 C 0.69728 0.68162 0.28342 0.0
C1276 C 0.68227 0.66501 0.29511 0.0
C1277 C 0.71932 0.67772 0.28185 0.0
C1278 C 0.69072 0.64459 0.30522 0.0
C1279 C 0.71227 0.64075 0.30407 0.0
H1280 H 0.09513 0.13311 0.0252 0.0
H1281 H 0.16083 0.13916 -0.00764 0.0
H1282 H 0.16545 0.10385 0.05571 0.0
H1283 H 0.15131 0.07171 0.12406 0.0
H1284 H 0.08569 0.06374 0.14807 0.0
H1285 H 0.08068 0.09964 0.08864 0.0
C1286 C 0.1104 0.12655 0.0308 0.0
C1287 C 0.12757 0.13877 0.00426 0.0
C1288 C 0.11305 0.1061 0.06778 0.0
C1289 C 0.14731 0.13014 0.01254 0.0
C1290 C 0.15003 0.10996 0.0492 0.0
C1291 C 0.13586 0.07767 0.11533 0.0
C1292 C 0.11894 0.06497 0.14003 0.0
C1293 C 0.13306 0.0979 0.07778 0.0
C1294 C 0.09906 0.07326 0.1309 0.0
C1295 C 0.09615 0.0937 0.09568 0.0
H1296 H 0.7066 0.37727 0.75908 0.0
H1297 H 0.68655 0.43553 0.62877 0.0
H1298 H 0.71133 0.4553 0.72984 0.0
H1299 H 0.73627 0.45642 0.86542 0.0
H1300 H 0.7583 0.39805 -0.0114 0.0
H1301 H 0.73445 0.3782 0.8838 0.0
C1302 C 0.70808 0.39421 0.75083 0.0
C1303 C 0.69474 0.40489 0.68665 0.0
C1304 C 0.72215 0.40561 0.81069 0.0
C1305 C 0.69665 0.42691 0.67773 0.0
C1306 C 0.71067 0.43828 0.73624 0.0
C1307 C 0.73621 0.43936 0.8688 0.0
C1308 C 0.74906 0.429 0.93679 0.0
C1309 C 0.72309 0.42785 0.80496 0.0
C1310 C 0.74822 0.40677 0.94014 0.0
C1311 C 0.7348 0.39525 0.87862 0.0
loop_
_geom_bond_atom_site_label_1
_geom_bond_atom_site_label_2
_geom_bond_distance
_geom_bond_site_symmetry_2
_ccdc_geom_bond_type
C0 O16 1.251 . S
C0 O18 1.254 . S
N1 C2 1.333 . S
N1 C6 1.307 . S
N1 Zn7 2.020 . S
C2 N1 1.333 . S
C2 C3 1.379 . S
C2 H20 0.952 . S
C3 C2 1.379 . S
C3 C4 1.390 . S
C3 H30 0.949 . S
C4 C3 1.390 . S
C4 C5 1.357 . S
C5 C4 1.357 . S
C5 C6 1.370 . S
C5 H31 0.950 . S
C6 N1 1.307 . S
C6 C5 1.370 . S
C6 H24 0.948 . S
Zn7 N1 2.020 . S
Zn7 O16 2.039 . S
Zn7 O22 2.034 . S
Zn7 O26 2.025 . S
Zn7 O28 2.024 . S
C8 O27 1.246 . S
C8 O28 1.249 . S
N9 C10 1.307 . S
N9 C11 1.333 . S
N9 Zn15 2.020 . S
C10 N9 1.307 . S
C10 C14 1.370 . S
C10 H21 0.948 . S
C11 N9 1.333 . S
C11 C12 1.379 . S
C11 H19 0.952 . S
C12 C11 1.379 . S
C12 C13 1.390 . S
C12 H32 0.949 1_554 S
C13 C12 1.390 . S
C13 C14 1.357 . S
C14 C10 1.370 . S
C14 C13 1.357 . S
C14 H33 0.950 . S
Zn15 N9 2.020 . S
Zn15 O18 2.025 . S
Zn15 O23 2.024 . S
Zn15 O25 2.039 . S
Zn15 O27 2.034 . S
O16 C0 1.251 . S
O16 Zn7 2.039 . S
C17 O22 1.246 . S
C17 O23 1.249 . S
O18 C0 1.254 . S
O18 Zn15 2.025 . S
H19 C11 0.952 . S
H20 C2 0.952 . S
H21 C10 0.948 . S
O22 Zn7 2.034 . S
O22 C17 1.246 . S
O23 Zn15 2.024 . S
O23 C17 1.249 . S
H24 C6 0.948 . S
O25 Zn15 2.039 . S
O25 C29 1.251 1_554 S
O26 Zn7 2.025 . S
O26 C29 1.254 1_554 S
O27 C8 1.246 . S
O27 Zn15 2.034 . S
O28 Zn7 2.024 . S
O28 C8 1.249 . S
C29 O25 1.251 1_556 S
C29 O26 1.254 1_556 S
H30 C3 0.949 . S
H31 C5 0.950 . S
H32 C12 0.949 1_556 S
H33 C14 0.950 . S
C34 O50 1.251 . S
C34 O52 1.254 . S
N35 C36 1.333 . S
N35 C40 1.307 . S
N35 Zn41 2.020 . S
C36 N35 1.333 . S
C36 C37 1.379 . S
C36 H54 0.952 . S
C37 C36 1.379 . S
C37 C38 1.390 . S
C37 H64 0.949 . S
C38 C37 1.390 . S
C38 C39 1.357 . S
C39 C38 1.357 . S
C39 C40 1.370 . S
C39 H65 0.950 . S
C40 N35 1.307 . S
C40 C39 1.370 . S
C40 H58 0.948 . S
Zn41 N35 2.020 . S
Zn41 O50 2.039 . S
Zn41 O56 2.034 . S
Zn41 O60 2.025 . S
Zn41 O62 2.024 . S
C42 O61 1.246 . S
C42 O62 1.249 . S
N43 C44 1.307 . S
N43 C45 1.333 . S
N43 Zn49 2.020 . S
C44 N43 1.307 . S
C44 C48 1.370 . S
C44 H55 0.948 . S
C45 N43 1.333 . S
C45 C46 1.379 . S
C45 H53 0.952 . S
C46 C45 1.379 . S
C46 C47 1.390 . S
C46 H66 0.949 . S
C47 C46 1.390 . S
C47 C48 1.357 . S
C48 C44 1.370 . S
C48 C47 1.357 . S
C48 H67 0.950 . S
Zn49 N43 2.020 . S
Zn49 O52 2.025 . S
Zn49 O57 2.024 . S
Zn49 O59 2.039 . S
Zn49 O61 2.034 . S
O50 C34 1.251 . S
O50 Zn41 2.039 . S
C51 O56 1.246 . S
C51 O57 1.249 . S
O52 C34 1.254 . S
O52 Zn49 2.025 . S
H53 C45 0.952 . S
H54 C36 0.952 . S
H55 C44 0.948 . S
O56 Zn41 2.034 . S
O56 C51 1.246 . S
O57 Zn49 2.024 . S
O57 C51 1.249 . S
H58 C40 0.948 . S
O59 Zn49 2.039 . S
O59 C63 1.251 . S
O60 Zn41 2.025 . S
O60 C63 1.254 . S
O61 C42 1.246 . S
O61 Zn49 2.034 . S
O62 Zn41 2.024 . S
O62 C42 1.249 . S
C63 O59 1.251 . S
C63 O60 1.254 . S
H64 C37 0.949 . S
H65 C39 0.950 . S
H66 C46 0.949 . S
H67 C48 0.950 . S
C68 O84 1.251 . S
C68 O86 1.254 . S
N69 C70 1.333 . S
N69 C74 1.307 . S
N69 Zn75 2.020 . S
C70 N69 1.333 . S
C70 C71 1.379 . S
C70 H88 0.952 . S
C71 C70 1.379 . S
C71 C72 1.390 . S
C71 H98 0.949 . S
C72 C71 1.390 . S
C72 C73 1.357 . S
C73 C72 1.357 . S
C73 C74 1.370 . S
C73 H99 0.950 . S
C74 N69 1.307 . S
C74 C73 1.370 . S
C74 H92 0.948 . S
Zn75 N69 2.020 . S
Zn75 O84 2.039 . S
Zn75 O90 2.034 . S
Zn75 O94 2.025 . S
Zn75 O96 2.024 . S
C76 O95 1.246 . S
C76 O96 1.249 . S
N77 C78 1.307 . S
N77 C79 1.333 . S
N77 Zn83 2.020 . S
C78 N77 1.307 . S
C78 C82 1.370 . S
C78 H89 0.948 . S
C79 N77 1.333 . S
C79 C80 1.379 . S
C79 H87 0.952 . S
C80 C79 1.379 . S
C80 C81 1.390 . S
C80 H100 0.949 . S
C81 C80 1.390 . S
C81 C82 1.357 . S
C82 C78 1.370 . S
C82 C81 1.357 . S
C82 H101 0.950 . S
Zn83 N77 2.020 . S
Zn83 O86 2.025 . S
Zn83 O91 2.024 . S
Zn83 O93 2.039 . S
Zn83 O95 2.034 . S
O84 C68 1.251 . S
O84 Zn75 2.039 . S
C85 O90 1.246 . S
C85 O91 1.249 . S
O86 C68 1.254 . S
O86 Zn83 2.025 . S
H87 C79 0.952 . S
H88 C70 0.952 . S
H89 C78 0.948 . S
O90 Zn75 2.034 . S
O90 C85 1.246 . S
O91 Zn83 2.024 . S
O91 C85 1.249 . S
H92 C74 0.948 . S
O93 Zn83 2.039 . S
O93 C97 1.251 . S
O94 Zn75 2.025 . S
O94 C97 1.254 . S
O95 C76 1.246 . S
O95 Zn83 2.034 . S
O96 Zn75 2.024 . S
O96 C76 1.249 . S
C97 O93 1.251 . S
C97 O94 1.254 . S
H98 C71 0.949 . S
H99 C73 0.950 . S
H100 C80 0.949 . S
H101 C82 0.950 . S
C102 O118 1.251 . S
C102 O120 1.254 . S
N103 C104 1.333 . S
N103 C108 1.307 . S
N103 Zn109 2.020 . S
C104 N103 1.333 . S
C104 C105 1.379 . S
C104 H122 0.952 . S
C105 C104 1.379 . S
C105 C106 1.390 . S
C105 H132 0.949 . S
C106 C105 1.390 . S
C106 C107 1.357 . S
C107 C106 1.357 . S
C107 C108 1.370 . S
C107 H133 0.950 . S
C108 N103 1.307 . S
C108 C107 1.370 . S
C108 H126 0.948 . S
Zn109 N103 2.020 . S
Zn109 O118 2.039 . S
Zn109 O124 2.034 . S
Zn109 O128 2.025 1_556 S
Zn109 O130 2.024 . S
C110 O129 1.246 . S
C110 O130 1.249 . S
N111 C112 1.307 . S
N111 C113 1.333 . S
N111 Zn117 2.020 . S
C112 N111 1.307 . S
C112 C116 1.370 . S
C112 H123 0.948 . S
C113 N111 1.333 . S
C113 C114 1.379 . S
C113 H121 0.952 1_556 S
C114 C113 1.379 . S
C114 C115 1.390 . S
C114 H134 0.949 1_556 S
C115 C114 1.390 . S
C115 C116 1.357 . S
C116 C112 1.370 . S
C116 C115 1.357 . S
C116 H135 0.950 . S
Zn117 N111 2.020 . S
Zn117 O120 2.025 . S
Zn117 O125 2.024 . S
Zn117 O127 2.039 1_556 S
Zn117 O129 2.034 . S
O118 C102 1.251 . S
O118 Zn109 2.039 . S
C119 O124 1.246 . S
C119 O125 1.249 . S
O120 C102 1.254 . S
O120 Zn117 2.025 . S
H121 C113 0.952 1_554 S
H122 C104 0.952 . S
H123 C112 0.948 . S
O124 Zn109 2.034 . S
O124 C119 1.246 . S
O125 Zn117 2.024 . S
O125 C119 1.249 . S
H126 C108 0.948 . S
O127 Zn117 2.039 1_554 S
O127 C131 1.251 . S
O128 Zn109 2.025 1_554 S
O128 C131 1.254 . S
O129 C110 1.246 . S
O129 Zn117 2.034 . S
O130 Zn109 2.024 . S
O130 C110 1.249 . S
C131 O127 1.251 . S
C131 O128 1.254 . S
H132 C105 0.949 . S
H133 C107 0.950 . S
H134 C114 0.949 1_554 S
H135 C116 0.950 . S
C136 O152 1.251 . S
C136 O154 1.254 . S
N137 C138 1.333 1_556 S
N137 C142 1.307 . S
N137 Zn143 2.020 . S
C138 N137 1.333 1_554 S
C138 C139 1.379 . S
C138 H156 0.952 . S
C139 C138 1.379 . S
C139 C140 1.390 1_554 S
C139 H166 0.949 . S
C140 C139 1.390 1_556 S
C140 C141 1.357 . S
C141 C140 1.357 . S
C141 C142 1.370 . S
C141 H167 0.950 . S
C142 N137 1.307 . S
C142 C141 1.370 . S
C142 H160 0.948 . S
Zn143 N137 2.020 . S
Zn143 O152 2.039 1_556 S
Zn143 O158 2.034 . S
Zn143 O162 2.025 . S
Zn143 O164 2.024 . S
C144 O163 1.246 . S
C144 O164 1.249 . S
N145 C146 1.307 . S
N145 C147 1.333 . S
N145 Zn151 2.020 . S
C146 N145 1.307 . S
C146 C150 1.370 . S
C146 H157 0.948 1_556 S
C147 N145 1.333 . S
C147 C148 1.379 . S
C147 H155 0.952 . S
C148 C147 1.379 . S
C148 C149 1.390 . S
C148 H168 0.949 . S
C149 C148 1.390 . S
C149 C150 1.357 . S
C150 C146 1.370 . S
C150 C149 1.357 . S
C150 H169 0.950 1_556 S
Zn151 N145 2.020 . S
Zn151 O154 2.025 1_556 S
Zn151 O159 2.024 . S
Zn151 O161 2.039 . S
Zn151 O163 2.034 . S
O152 C136 1.251 . S
O152 Zn143 2.039 1_554 S
C153 O158 1.246 . S
C153 O159 1.249 . S
O154 C136 1.254 . S
O154 Zn151 2.025 1_554 S
H155 C147 0.952 . S
H156 C138 0.952 . S
H157 C146 0.948 1_554 S
O158 Zn143 2.034 . S
O158 C153 1.246 . S
O159 Zn151 2.024 . S
O159 C153 1.249 . S
H160 C142 0.948 . S
O161 Zn151 2.039 . S
O161 C165 1.251 . S
O162 Zn143 2.025 . S
O162 C165 1.254 . S
O163 C144 1.246 . S
O163 Zn151 2.034 . S
O164 Zn143 2.024 . S
O164 C144 1.249 . S
C165 O161 1.251 . S
C165 O162 1.254 . S
H166 C139 0.949 . S
H167 C141 0.950 . S
H168 C148 0.949 . S
H169 C150 0.950 1_554 S
C170 O186 1.251 . S
C170 O188 1.254 . S
N171 C172 1.333 . S
N171 C176 1.307 . S
N171 Zn177 2.020 . S
C172 N171 1.333 . S
C172 C173 1.379 . S
C172 H190 0.952 . S
C173 C172 1.379 . S
C173 C174 1.390 . S
C173 H200 0.949 . S
C174 C173 1.390 . S
C174 C175 1.357 . S
C175 C174 1.357 . S
C175 C176 1.370 . S
C175 H201 0.950 . S
C176 N171 1.307 . S
C176 C175 1.370 . S
C176 H194 0.948 . S
Zn177 N171 2.020 . S
Zn177 O186 2.039 . S
Zn177 O192 2.034 . S
Zn177 O196 2.025 . S
Zn177 O198 2.024 . S
C178 O197 1.246 . S
C178 O198 1.249 . S
N179 C180 1.307 . S
N179 C181 1.333 . S
N179 Zn185 2.020 . S
C180 N179 1.307 . S
C180 C184 1.370 . S
C180 H191 0.948 . S
C181 N179 1.333 . S
C181 C182 1.379 . S
C181 H189 0.952 . S
C182 C181 1.379 . S
C182 C183 1.390 . S
C182 H202 0.949 1_554 S
C183 C182 1.390 . S
C183 C184 1.357 . S
C184 C180 1.370 . S
C184 C183 1.357 . S
C184 H203 0.950 . S
Zn185 N179 2.020 . S
Zn185 O188 2.025 . S
Zn185 O193 2.024 . S
Zn185 O195 2.039 . S
Zn185 O197 2.034 . S
O186 C170 1.251 . S
O186 Zn177 2.039 . S
C187 O192 1.246 . S
C187 O193 1.249 . S
O188 C170 1.254 . S
O188 Zn185 2.025 . S
H189 C181 0.952 . S
H190 C172 0.952 . S
H191 C180 0.948 . S
O192 Zn177 2.034 . S
O192 C187 1.246 . S
O193 Zn185 2.024 . S
O193 C187 1.249 . S
H194 C176 0.948 . S
O195 Zn185 2.039 . S
O195 C199 1.251 1_554 S
O196 Zn177 2.025 . S
O196 C199 1.254 1_554 S
O197 C178 1.246 . S
O197 Zn185 2.034 . S
O198 Zn177 2.024 . S
O198 C178 1.249 . S
C199 O195 1.251 1_556 S
C199 O196 1.254 1_556 S
H200 C173 0.949 . S
H201 C175 0.950 . S
H202 C182 0.949 1_556 S
H203 C184 0.950 . S
C204 O220 1.251 . S
C204 O222 1.254 . S
N205 C206 1.333 . S
N205 C210 1.307 . S
N205 Zn211 2.020 . S
C206 N205 1.333 . S
C206 C207 1.379 . S
C206 H224 0.952 . S
C207 C206 1.379 . S
C207 C208 1.390 . S
C207 H234 0.949 . S
C208 C207 1.390 . S
C208 C209 1.357 . S
C209 C208 1.357 . S
C209 C210 1.370 . S
C209 H235 0.950 . S
C210 N205 1.307 . S
C210 C209 1.370 . S
C210 H228 0.948 . S
Zn211 N205 2.020 . S
Zn211 O220 2.039 . S
Zn211 O226 2.034 . S
Zn211 O230 2.025 . S
Zn211 O232 2.024 . S
C212 O231 1.246 . S
C212 O232 1.249 . S
N213 C214 1.307 . S
N213 C215 1.333 . S
N213 Zn219 2.020 . S
C214 N213 1.307 . S
C214 C218 1.370 . S
C214 H225 0.948 . S
C215 N213 1.333 . S
C215 C216 1.379 . S
C215 H223 0.952 . S
C216 C215 1.379 . S
C216 C217 1.390 . S
C216 H236 0.949 . S
C217 C216 1.390 . S
C217 C218 1.357 . S
C218 C214 1.370 . S
C218 C217 1.357 . S
C218 H237 0.950 . S
Zn219 N213 2.020 . S
Zn219 O222 2.025 . S
Zn219 O227 2.024 . S
Zn219 O229 2.039 . S
Zn219 O231 2.034 . S
O220 C204 1.251 . S
O220 Zn211 2.039 . S
C221 O226 1.246 . S
C221 O227 1.249 . S
O222 C204 1.254 . S
O222 Zn219 2.025 . S
H223 C215 0.952 . S
H224 C206 0.952 . S
H225 C214 0.948 . S
O226 Zn211 2.034 . S
O226 C221 1.246 . S
O227 Zn219 2.024 . S
O227 C221 1.249 . S
H228 C210 0.948 . S
O229 Zn219 2.039 . S
O229 C233 1.251 . S
O230 Zn211 2.025 . S
O230 C233 1.254 . S
O231 C212 1.246 . S
O231 Zn219 2.034 . S
O232 Zn211 2.024 . S
O232 C212 1.249 . S
C233 O229 1.251 . S
C233 O230 1.254 . S
H234 C207 0.949 . S
H235 C209 0.950 . S
H236 C216 0.949 . S
H237 C218 0.950 . S
C238 O254 1.251 . S
C238 O256 1.254 . S
N239 C240 1.333 . S
N239 C244 1.307 . S
N239 Zn245 2.020 . S
C240 N239 1.333 . S
C240 C241 1.379 . S
C240 H258 0.952 . S
C241 C240 1.379 . S
C241 C242 1.390 . S
C241 H268 0.949 . S
C242 C241 1.390 . S
C242 C243 1.357 . S
C243 C242 1.357 . S
C243 C244 1.370 . S
C243 H269 0.950 . S
C244 N239 1.307 . S
C244 C243 1.370 . S
C244 H262 0.948 . S
Zn245 N239 2.020 . S
Zn245 O254 2.039 . S
Zn245 O260 2.034 . S
Zn245 O264 2.025 . S
Zn245 O266 2.024 . S
C246 O265 1.246 . S
C246 O266 1.249 . S
N247 C248 1.307 . S
N247 C249 1.333 . S
N247 Zn253 2.020 . S
C248 N247 1.307 . S
C248 C252 1.370 . S
C248 H259 0.948 . S
C249 N247 1.333 . S
C249 C250 1.379 . S
C249 H257 0.952 . S
C250 C249 1.379 . S
C250 C251 1.390 . S
C250 H270 0.949 . S
C251 C250 1.390 . S
C251 C252 1.357 . S
C252 C248 1.370 . S
C252 C251 1.357 . S
C252 H271 0.950 . S
Zn253 N247 2.020 . S
Zn253 O256 2.025 . S
Zn253 O261 2.024 . S
Zn253 O263 2.039 . S
Zn253 O265 2.034 . S
O254 C238 1.251 . S
O254 Zn245 2.039 . S
C255 O260 1.246 . S
C255 O261 1.249 . S
O256 C238 1.254 . S
O256 Zn253 2.025 . S
H257 C249 0.952 . S
H258 C240 0.952 . S
H259 C248 0.948 . S
O260 Zn245 2.034 . S
O260 C255 1.246 . S
O261 Zn253 2.024 . S
O261 C255 1.249 . S
H262 C244 0.948 . S
O263 Zn253 2.039 . S
O263 C267 1.251 . S
O264 Zn245 2.025 . S
O264 C267 1.254 . S
O265 C246 1.246 . S
O265 Zn253 2.034 . S
O266 Zn245 2.024 . S
O266 C246 1.249 . S
C267 O263 1.251 . S
C267 O264 1.254 . S
H268 C241 0.949 . S
H269 C243 0.950 . S
H270 C250 0.949 . S
H271 C252 0.950 . S
C272 O288 1.251 . S
C272 O290 1.254 . S
N273 C274 1.333 . S
N273 C278 1.307 . S
N273 Zn279 2.020 . S
C274 N273 1.333 . S
C274 C275 1.379 . S
C274 H292 0.952 . S
C275 C274 1.379 . S
C275 C276 1.390 . S
C275 H302 0.949 . S
C276 C275 1.390 . S
C276 C277 1.357 . S
C277 C276 1.357 . S
C277 C278 1.370 . S
C277 H303 0.953 . S
C278 N273 1.307 . S
C278 C277 1.370 . S
C278 H296 0.948 1_556 S
Zn279 N273 2.020 . S
Zn279 O288 2.039 . S
Zn279 O294 2.034 . S
Zn279 O298 2.025 1_556 S
Zn279 O300 2.024 . S
C280 O299 1.246 . S
C280 O300 1.249 . S
N281 C282 1.307 . S
N281 C283 1.333 1_556 S
N281 Zn287 2.020 . S
C282 N281 1.307 . S
C282 C286 1.370 . S
C282 H293 0.948 . S
C283 N281 1.333 1_554 S
C283 C284 1.379 . S
C283 H291 0.952 . S
C284 C283 1.379 . S
C284 C285 1.390 1_554 S
C284 H304 0.949 . S
C285 C284 1.390 1_556 S
C285 C286 1.357 . S
C286 C282 1.370 . S
C286 C285 1.357 . S
C286 H305 0.950 . S
Zn287 N281 2.020 . S
Zn287 O290 2.025 . S
Zn287 O295 2.024 . S
Zn287 O297 2.039 1_556 S
Zn287 O299 2.034 . S
O288 C272 1.251 . S
O288 Zn279 2.039 . S
C289 O294 1.246 . S
C289 O295 1.249 . S
O290 C272 1.254 . S
O290 Zn287 2.025 . S
H291 C283 0.952 . S
H292 C274 0.952 . S
H293 C282 0.948 . S
O294 Zn279 2.034 . S
O294 C289 1.246 . S
O295 Zn287 2.024 . S
O295 C289 1.249 . S
H296 C278 0.948 1_554 S
O297 Zn287 2.039 1_554 S
O297 C301 1.251 . S
O298 Zn279 2.025 1_554 S
O298 C301 1.254 . S
O299 C280 1.246 . S
O299 Zn287 2.034 . S
O300 Zn279 2.024 . S
O300 C280 1.249 . S
C301 O297 1.251 . S
C301 O298 1.254 . S
H302 C275 0.949 . S
H303 C277 0.953 . S
H304 C284 0.949 . S
H305 C286 0.950 . S
C306 O322 1.251 . S
C306 O324 1.254 . S
N307 C308 1.333 . S
N307 C312 1.307 . S
N307 Zn313 2.020 . S
C308 N307 1.333 . S
C308 C309 1.379 . S
C308 H326 0.952 . S
C309 C308 1.379 . S
C309 C310 1.390 . S
C309 H336 0.949 . S
C310 C309 1.390 . S
C310 C311 1.357 . S
C311 C310 1.357 . S
C311 C312 1.370 . S
C311 H337 0.950 . S
C312 N307 1.307 . S
C312 C311 1.370 . S
C312 H330 0.948 . S
Zn313 N307 2.020 . S
Zn313 O322 2.039 . S
Zn313 O328 2.034 . S
Zn313 O332 2.025 . S
Zn313 O334 2.024 . S
C314 O333 1.246 . S
C314 O334 1.249 . S
N315 C316 1.307 . S
N315 C317 1.333 . S
N315 Zn321 2.020 . S
C316 N315 1.307 . S
C316 C320 1.370 . S
C316 H327 0.948 . S
C317 N315 1.333 . S
C317 C318 1.379 . S
C317 H325 0.952 . S
C318 C317 1.379 . S
C318 C319 1.390 . S
C318 H338 0.949 . S
C319 C318 1.390 . S
C319 C320 1.357 . S
C320 C316 1.370 . S
C320 C319 1.357 . S
C320 H339 0.950 . S
Zn321 N315 2.020 . S
Zn321 O324 2.025 . S
Zn321 O329 2.024 . S
Zn321 O331 2.039 . S
Zn321 O333 2.034 . S
O322 C306 1.251 . S
O322 Zn313 2.039 . S
C323 O328 1.246 . S
C323 O329 1.249 . S
O324 C306 1.254 . S
O324 Zn321 2.025 . S
H325 C317 0.952 . S
H326 C308 0.952 . S
H327 C316 0.948 . S
O328 Zn313 2.034 . S
O328 C323 1.246 . S
O329 Zn321 2.024 . S
O329 C323 1.249 . S
H330 C312 0.948 . S
O331 Zn321 2.039 . S
O331 C335 1.251 . S
O332 Zn313 2.025 . S
O332 C335 1.254 . S
O333 C314 1.246 . S
O333 Zn321 2.034 . S
O334 Zn313 2.024 . S
O334 C314 1.249 . S
C335 O331 1.251 . S
C335 O332 1.254 . S
H336 C309 0.949 . S
H337 C311 0.950 . S
H338 C318 0.949 . S
H339 C320 0.950 . S
C340 O356 1.251 . S
C340 O358 1.254 . S
N341 C342 1.333 . S
N341 C346 1.307 . S
N341 Zn347 2.020 . S
C342 N341 1.333 . S
C342 C343 1.379 . S
C342 H360 0.952 . S
C343 C342 1.379 . S
C343 C344 1.390 . S
C343 H370 0.949 . S
C344 C343 1.390 . S
C344 C345 1.357 . S
C345 C344 1.357 . S
C345 C346 1.370 . S
C345 H371 0.950 . S
C346 N341 1.307 . S
C346 C345 1.370 . S
C346 H364 0.948 . S
Zn347 N341 2.020 . S
Zn347 O356 2.039 . S
Zn347 O362 2.034 . S
Zn347 O366 2.025 . S
Zn347 O368 2.024 . S
C348 O367 1.246 . S
C348 O368 1.249 . S
N349 C350 1.307 . S
N349 C351 1.333 . S
N349 Zn355 2.020 . S
C350 N349 1.307 . S
C350 C354 1.370 . S
C350 H361 0.948 . S
C351 N349 1.333 . S
C351 C352 1.379 . S
C351 H359 0.952 . S
C352 C351 1.379 . S
C352 C353 1.390 . S
C352 H372 0.949 . S
C353 C352 1.390 . S
C353 C354 1.357 . S
C354 C350 1.370 . S
C354 C353 1.357 . S
C354 H373 0.950 . S
Zn355 N349 2.020 . S
Zn355 O358 2.025 . S
Zn355 O363 2.024 . S
Zn355 O365 2.039 . S
Zn355 O367 2.034 . S
O356 C340 1.251 . S
O356 Zn347 2.039 . S
C357 O362 1.246 . S
C357 O363 1.249 . S
O358 C340 1.254 . S
O358 Zn355 2.025 . S
H359 C351 0.952 . S
H360 C342 0.952 . S
H361 C350 0.948 . S
O362 Zn347 2.034 . S
O362 C357 1.246 . S
O363 Zn355 2.024 . S
O363 C357 1.249 . S
H364 C346 0.948 . S
O365 Zn355 2.039 . S
O365 C369 1.251 . S
O366 Zn347 2.025 . S
O366 C369 1.254 . S
O367 C348 1.246 . S
O367 Zn355 2.034 . S
O368 Zn347 2.024 . S
O368 C348 1.249 . S
C369 O365 1.251 . S
C369 O366 1.254 . S
H370 C343 0.949 . S
H371 C345 0.950 . S
H372 C352 0.949 . S
H373 C354 0.950 . S
C374 O390 1.251 1_556 S
C374 O392 1.254 1_556 S
N375 C376 1.333 . S
N375 C380 1.307 . S
N375 Zn381 2.020 . S
C376 N375 1.333 . S
C376 C377 1.379 1_565 S
C376 H394 0.952 . S
C377 C376 1.379 1_545 S
C377 C378 1.390 . S
C377 H404 0.949 . S
C378 C377 1.390 . S
C378 C379 1.357 . S
C379 C378 1.357 . S
C379 C380 1.370 1_545 S
C379 H405 0.950 . S
C380 N375 1.307 . S
C380 C379 1.370 1_565 S
C380 H398 0.948 . S
Zn381 N375 2.020 . S
Zn381 O390 2.039 . S
Zn381 O396 2.034 . S
Zn381 O400 2.025 . S
Zn381 O402 2.024 . S
C382 O401 1.246 . S
C382 O402 1.249 . S
N383 C384 1.307 . S
N383 C385 1.333 . S
N383 Zn389 2.020 . S
C384 N383 1.307 . S
C384 C388 1.370 . S
C384 H395 0.948 . S
C385 N383 1.333 . S
C385 C386 1.379 . S
C385 H393 0.952 . S
C386 C385 1.379 . S
C386 C387 1.390 . S
C386 H406 0.949 . S
C387 C386 1.390 . S
C387 C388 1.357 . S
C388 C384 1.370 . S
C388 C387 1.357 . S
C388 H407 0.950 . S
Zn389 N383 2.020 . S
Zn389 O392 2.025 . S
Zn389 O397 2.024 . S
Zn389 O399 2.039 . S
Zn389 O401 2.034 . S
O390 C374 1.251 1_554 S
O390 Zn381 2.039 . S
C391 O396 1.246 . S
C391 O397 1.249 . S
O392 C374 1.254 1_554 S
O392 Zn389 2.025 . S
H393 C385 0.952 . S
H394 C376 0.952 . S
H395 C384 0.948 . S
O396 Zn381 2.034 . S
O396 C391 1.246 . S
O397 Zn389 2.024 . S
O397 C391 1.249 . S
H398 C380 0.948 . S
O399 Zn389 2.039 . S
O399 C403 1.251 . S
O400 Zn381 2.025 . S
O400 C403 1.254 . S
O401 C382 1.246 . S
O401 Zn389 2.034 . S
O402 Zn381 2.024 . S
O402 C382 1.249 . S
C403 O399 1.251 . S
C403 O400 1.254 . S
H404 C377 0.949 . S
H405 C379 0.950 . S
H406 C386 0.949 . S
H407 C388 0.950 . S
C408 O424 1.251 . S
C408 O426 1.254 . S
N409 C410 1.333 . S
N409 C414 1.307 . S
N409 Zn415 2.020 . S
C410 N409 1.333 . S
C410 C411 1.379 . S
C410 H428 0.952 . S
C411 C410 1.379 . S
C411 C412 1.390 . S
C411 H438 0.949 . S
C412 C411 1.390 . S
C412 C413 1.357 . S
C413 C412 1.357 . S
C413 C414 1.370 . S
C413 H439 0.950 . S
C414 N409 1.307 . S
C414 C413 1.370 . S
C414 H432 0.948 . S
Zn415 N409 2.020 . S
Zn415 O424 2.039 . S
Zn415 O430 2.034 . S
Zn415 O434 2.025 1_554 S
Zn415 O436 2.024 . S
C416 O435 1.246 . S
C416 O436 1.249 . S
N417 C418 1.307 . S
N417 C419 1.333 . S
N417 Zn423 2.020 . S
C418 N417 1.307 . S
C418 C422 1.370 . S
C418 H429 0.948 . S
C419 N417 1.333 . S
C419 C420 1.379 . S
C419 H427 0.952 1_554 S
C420 C419 1.379 . S
C420 C421 1.390 . S
C420 H440 0.949 1_554 S
C421 C420 1.390 . S
C421 C422 1.357 . S
C422 C418 1.370 . S
C422 C421 1.357 . S
C422 H441 0.950 . S
Zn423 N417 2.020 . S
Zn423 O426 2.025 . S
Zn423 O431 2.024 . S
Zn423 O433 2.039 1_554 S
Zn423 O435 2.034 . S
O424 C408 1.251 . S
O424 Zn415 2.039 . S
C425 O430 1.246 . S
C425 O431 1.249 . S
O426 C408 1.254 . S
O426 Zn423 2.025 . S
H427 C419 0.952 1_556 S
H428 C410 0.952 . S
H429 C418 0.948 . S
O430 Zn415 2.034 . S
O430 C425 1.246 . S
O431 Zn423 2.024 . S
O431 C425 1.249 . S
H432 C414 0.948 . S
O433 Zn423 2.039 1_556 S
O433 C437 1.251 . S
O434 Zn415 2.025 1_556 S
O434 C437 1.254 . S
O435 C416 1.246 . S
O435 Zn423 2.034 . S
O436 Zn415 2.024 . S
O436 C416 1.249 . S
C437 O433 1.251 . S
C437 O434 1.254 . S
H438 C411 0.949 . S
H439 C413 0.950 . S
H440 C420 0.949 1_556 S
H441 C422 0.950 . S
C442 O458 1.251 . S
C442 O460 1.254 . S
N443 C444 1.333 . S
N443 C448 1.307 . S
N443 Zn449 2.020 . S
C444 N443 1.333 . S
C444 C445 1.379 . S
C444 H462 0.952 . S
C445 C444 1.379 . S
C445 C446 1.390 . S
C445 H472 0.949 . S
C446 C445 1.390 . S
C446 C447 1.357 . S
C447 C446 1.357 . S
C447 C448 1.370 . S
C447 H473 0.950 1_556 S
C448 N443 1.307 . S
C448 C447 1.370 . S
C448 H466 0.948 1_556 S
Zn449 N443 2.020 . S
Zn449 O458 2.039 . S
Zn449 O464 2.034 . S
Zn449 O468 2.025 1_556 S
Zn449 O470 2.024 . S
C450 O469 1.246 . S
C450 O470 1.249 . S
N451 C452 1.307 . S
N451 C453 1.334 1_556 S
N451 Zn457 2.020 . S
C452 N451 1.307 . S
C452 C456 1.370 . S
C452 H463 0.948 . S
C453 N451 1.334 1_554 S
C453 C454 1.379 . S
C453 H461 0.951 . S
C454 C453 1.379 . S
C454 C455 1.390 1_454 S
C454 H474 0.949 . S
C455 C454 1.390 1_656 S
C455 C456 1.357 1_655 S
C456 C452 1.370 . S
C456 C455 1.357 1_455 S
C456 H475 0.950 1_455 S
Zn457 N451 2.020 . S
Zn457 O460 2.025 . S
Zn457 O465 2.024 . S
Zn457 O467 2.039 1_556 S
Zn457 O469 2.034 . S
O458 C442 1.251 . S
O458 Zn449 2.039 . S
C459 O464 1.246 . S
C459 O465 1.249 . S
O460 C442 1.254 . S
O460 Zn457 2.025 . S
H461 C453 0.951 . S
H462 C444 0.952 . S
H463 C452 0.948 . S
O464 Zn449 2.034 . S
O464 C459 1.246 . S
O465 Zn457 2.024 . S
O465 C459 1.249 . S
H466 C448 0.948 1_554 S
O467 Zn457 2.039 1_554 S
O467 C471 1.251 . S
O468 Zn449 2.025 1_554 S
O468 C471 1.254 . S
O469 C450 1.246 . S
O469 Zn457 2.034 . S
O470 Zn449 2.024 . S
O470 C450 1.249 . S
C471 O467 1.251 . S
C471 O468 1.254 . S
H472 C445 0.949 . S
H473 C447 0.950 1_554 S
H474 C454 0.949 . S
H475 C456 0.950 1_655 S
C476 O492 1.251 . S
C476 O494 1.254 . S
N477 C478 1.333 . S
N477 C482 1.307 . S
N477 Zn483 2.020 . S
C478 N477 1.333 . S
C478 C479 1.379 . S
C478 H496 0.952 . S
C479 C478 1.379 . S
C479 C480 1.390 . S
C479 H506 0.949 . S
C480 C479 1.390 . S
C480 C481 1.357 . S
C481 C480 1.357 . S
C481 C482 1.370 . S
C481 H507 0.950 . S
C482 N477 1.307 . S
C482 C481 1.370 . S
C482 H500 0.948 . S
Zn483 N477 2.020 . S
Zn483 O492 2.039 . S
Zn483 O498 2.034 . S
Zn483 O502 2.025 . S
Zn483 O504 2.024 . S
C484 O503 1.246 . S
C484 O504 1.249 . S
N485 C486 1.307 . S
N485 C487 1.333 . S
N485 Zn491 2.020 . S
C486 N485 1.307 . S
C486 C490 1.370 . S
C486 H497 0.948 . S
C487 N485 1.333 . S
C487 C488 1.379 . S
C487 H495 0.952 . S
C488 C487 1.379 . S
C488 C489 1.390 . S
C488 H508 0.949 . S
C489 C488 1.390 . S
C489 C490 1.357 . S
C490 C486 1.370 . S
C490 C489 1.357 . S
C490 H509 0.950 . S
Zn491 N485 2.020 . S
Zn491 O494 2.025 . S
Zn491 O499 2.024 . S
Zn491 O501 2.039 . S
Zn491 O503 2.034 . S
O492 C476 1.251 . S
O492 Zn483 2.039 . S
C493 O498 1.246 . S
C493 O499 1.249 . S
O494 C476 1.254 . S
O494 Zn491 2.025 . S
H495 C487 0.952 . S
H496 C478 0.952 . S
H497 C486 0.948 . S
O498 Zn483 2.034 . S
O498 C493 1.246 . S
O499 Zn491 2.024 . S
O499 C493 1.249 . S
H500 C482 0.948 . S
O501 Zn491 2.039 . S
O501 C505 1.251 . S
O502 Zn483 2.025 . S
O502 C505 1.254 . S
O503 C484 1.246 . S
O503 Zn491 2.034 . S
O504 Zn483 2.024 . S
O504 C484 1.249 . S
C505 O501 1.251 . S
C505 O502 1.254 . S
H506 C479 0.949 . S
H507 C481 0.950 . S
H508 C488 0.949 . S
H509 C490 0.950 . S
C510 O526 1.251 . S
C510 O528 1.254 . S
N511 C512 1.333 . S
N511 C516 1.307 . S
N511 Zn517 2.020 . S
C512 N511 1.333 . S
C512 C513 1.379 . S
C512 H530 0.952 . S
C513 C512 1.379 . S
C513 C514 1.390 . S
C513 H540 0.949 . S
C514 C513 1.390 . S
C514 C515 1.357 . S
C515 C514 1.357 . S
C515 C516 1.370 . S
C515 H541 0.950 . S
C516 N511 1.307 . S
C516 C515 1.370 . S
C516 H534 0.948 . S
Zn517 N511 2.020 . S
Zn517 O526 2.039 . S
Zn517 O532 2.034 . S
Zn517 O536 2.025 . S
Zn517 O538 2.024 . S
C518 O537 1.246 . S
C518 O538 1.249 . S
N519 C520 1.307 . S
N519 C521 1.333 . S
N519 Zn525 2.020 . S
C520 N519 1.307 . S
C520 C524 1.370 . S
C520 H531 0.948 . S
C521 N519 1.333 . S
C521 C522 1.379 . S
C521 H529 0.952 . S
C522 C521 1.379 . S
C522 C523 1.390 . S
C522 H542 0.949 . S
C523 C522 1.390 . S
C523 C524 1.357 . S
C524 C520 1.370 . S
C524 C523 1.357 . S
C524 H543 0.950 . S
Zn525 N519 2.020 . S
Zn525 O528 2.025 . S
Zn525 O533 2.024 . S
Zn525 O535 2.039 . S
Zn525 O537 2.034 . S
O526 C510 1.251 . S
O526 Zn517 2.039 . S
C527 O532 1.246 . S
C527 O533 1.249 . S
O528 C510 1.254 . S
O528 Zn525 2.025 . S
H529 C521 0.952 . S
H530 C512 0.952 . S
H531 C520 0.948 . S
O532 Zn517 2.034 . S
O532 C527 1.246 . S
O533 Zn525 2.024 . S
O533 C527 1.249 . S
H534 C516 0.948 . S
O535 Zn525 2.039 . S
O535 C539 1.251 . S
O536 Zn517 2.025 . S
O536 C539 1.254 . S
O537 C518 1.246 . S
O537 Zn525 2.034 . S
O538 Zn517 2.024 . S
O538 C518 1.249 . S
C539 O535 1.251 . S
C539 O536 1.254 . S
H540 C513 0.949 . S
H541 C515 0.950 . S
H542 C522 0.949 . S
H543 C524 0.950 . S
H544 C550 0.930 . S
H545 C553 0.930 . S
H546 C554 0.930 . S
H547 C555 0.930 . S
H548 C558 0.930 . S
H549 C559 0.930 . S
C550 H544 0.930 . S
C550 C551 1.355 . S
C550 C552 1.415 . S
C551 C550 1.355 . S
C551 C553 1.419 . S
C552 C550 1.415 . S
C552 C557 1.425 . S
C552 C559 1.409 . S
C553 H545 0.930 . S
C553 C551 1.419 . S
C553 C554 1.362 . S
C554 H546 0.930 . S
C554 C553 1.362 . S
C554 C557 1.409 . S
C555 H547 0.930 . S
C555 C556 1.355 . S
C555 C557 1.415 . S
C556 C555 1.355 . S
C556 C558 1.419 . S
C557 C552 1.425 . S
C557 C554 1.409 . S
C557 C555 1.415 . S
C558 H548 0.930 . S
C558 C556 1.419 . S
C558 C559 1.362 . S
C559 H549 0.930 . S
C559 C552 1.409 . S
C559 C558 1.362 . S
H560 C566 0.930 . S
H561 C569 0.930 . S
H562 C570 0.930 . S
H563 C571 0.930 . S
H564 C574 0.930 . S
H565 C575 0.930 . S
C566 H560 0.930 . S
C566 C567 1.355 . S
C566 C568 1.415 1_554 S
C567 C566 1.355 . S
C567 C569 1.419 . S
C568 C566 1.415 1_556 S
C568 C573 1.425 . S
C568 C575 1.409 . S
C569 H561 0.930 . S
C569 C567 1.419 . S
C569 C570 1.362 1_554 S
C570 H562 0.930 . S
C570 C569 1.362 1_556 S
C570 C573 1.409 . S
C571 H563 0.930 . S
C571 C572 1.355 . S
C571 C573 1.415 . S
C572 C571 1.355 . S
C572 C574 1.419 . S
C573 C568 1.425 . S
C573 C570 1.409 . S
C573 C571 1.415 . S
C574 H564 0.930 . S
C574 C572 1.419 . S
C574 C575 1.362 . S
C575 H565 0.930 . S
C575 C568 1.409 . S
C575 C574 1.362 . S
H576 C582 0.930 . S
H577 C585 0.930 . S
H578 C586 0.930 . S
H579 C587 0.930 . S
H580 C590 0.930 . S
H581 C591 0.930 . S
C582 H576 0.930 . S
C582 C583 1.355 . S
C582 C584 1.415 . S
C583 C582 1.355 . S
C583 C585 1.419 . S
C584 C582 1.415 . S
C584 C589 1.425 . S
C584 C591 1.409 . S
C585 H577 0.930 . S
C585 C583 1.419 . S
C585 C586 1.362 . S
C586 H578 0.930 . S
C586 C585 1.362 . S
C586 C589 1.409 . S
C587 H579 0.930 . S
C587 C588 1.355 . S
C587 C589 1.415 1_556 S
C588 C587 1.355 . S
C588 C590 1.419 . S
C589 C584 1.425 . S
C589 C586 1.409 . S
C589 C587 1.415 1_554 S
C590 H580 0.930 . S
C590 C588 1.419 . S
C590 C591 1.362 1_556 S
C591 H581 0.930 . S
C591 C584 1.409 . S
C591 C590 1.362 1_554 S
H592 C598 0.930 . S
H593 C601 0.930 . S
H594 C602 0.930 . S
H595 C603 0.930 . S
H596 C606 0.930 . S
H597 C607 0.930 . S
C598 H592 0.930 . S
C598 C599 1.355 . S
C598 C600 1.415 . S
C599 C598 1.355 . S
C599 C601 1.419 . S
C600 C598 1.415 . S
C600 C605 1.425 . S
C600 C607 1.409 . S
C601 H593 0.930 . S
C601 C599 1.419 . S
C601 C602 1.362 . S
C602 H594 0.930 . S
C602 C601 1.362 . S
C602 C605 1.409 . S
C603 H595 0.930 . S
C603 C604 1.355 . S
C603 C605 1.415 . S
C604 C603 1.355 . S
C604 C606 1.419 . S
C605 C600 1.425 . S
C605 C602 1.409 . S
C605 C603 1.415 . S
C606 H596 0.930 . S
C606 C604 1.419 . S
C606 C607 1.362 . S
C607 H597 0.930 . S
C607 C600 1.409 . S
C607 C606 1.362 . S
H608 C614 0.930 . S
H609 C617 0.930 . S
H610 C618 0.930 . S
H611 C619 0.930 . S
H612 C622 0.930 . S
H613 C623 0.930 . S
C614 H608 0.930 . S
C614 C615 1.355 . S
C614 C616 1.415 . S
C615 C614 1.355 . S
C615 C617 1.419 . S
C616 C614 1.415 . S
C616 C621 1.425 . S
C616 C623 1.409 . S
C617 H609 0.930 . S
C617 C615 1.419 . S
C617 C618 1.362 . S
C618 H610 0.930 . S
C618 C617 1.362 . S
C618 C621 1.409 . S
C619 H611 0.930 . S
C619 C620 1.355 . S
C619 C621 1.415 . S
C620 C619 1.355 . S
C620 C622 1.419 . S
C621 C616 1.425 . S
C621 C618 1.409 . S
C621 C619 1.415 . S
C622 H612 0.930 . S
C622 C620 1.419 . S
C622 C623 1.362 . S
C623 H613 0.930 . S
C623 C616 1.409 . S
C623 C622 1.362 . S
H624 C630 0.930 . S
H625 C633 0.930 . S
H626 C634 0.930 . S
H627 C635 0.930 . S
H628 C638 0.930 . S
H629 C639 0.930 . S
C630 H624 0.930 . S
C630 C631 1.355 . S
C630 C632 1.415 . S
C631 C630 1.355 . S
C631 C633 1.419 . S
C632 C630 1.415 . S
C632 C637 1.425 . S
C632 C639 1.409 . S
C633 H625 0.930 . S
C633 C631 1.419 . S
C633 C634 1.362 . S
C634 H626 0.930 . S
C634 C633 1.362 . S
C634 C637 1.409 . S
C635 H627 0.930 . S
C635 C636 1.355 . S
C635 C637 1.415 . S
C636 C635 1.355 . S
C636 C638 1.419 . S
C637 C632 1.425 . S
C637 C634 1.409 . S
C637 C635 1.415 . S
C638 H628 0.930 . S
C638 C636 1.419 . S
C638 C639 1.362 . S
C639 H629 0.930 . S
C639 C632 1.409 . S
C639 C638 1.362 . S
H640 C646 0.930 . S
H641 C649 0.930 . S
H642 C650 0.930 . S
H643 C651 0.930 . S
H644 C654 0.933 . S
H645 C655 0.930 . S
C646 H640 0.930 . S
C646 C647 1.355 . S
C646 C648 1.415 . S
C647 C646 1.355 . S
C647 C649 1.419 . S
C648 C646 1.415 . S
C648 C653 1.425 . S
C648 C655 1.409 . S
C649 H641 0.930 . S
C649 C647 1.419 . S
C649 C650 1.362 . S
C650 H642 0.930 . S
C650 C649 1.362 . S
C650 C653 1.409 . S
C651 H643 0.930 . S
C651 C652 1.355 1_556 S
C651 C653 1.415 . S
C652 C651 1.355 1_554 S
C652 C654 1.421 . S
C653 C648 1.425 . S
C653 C650 1.409 . S
C653 C651 1.415 . S
C654 H644 0.933 . S
C654 C652 1.421 . S
C654 C655 1.357 1_554 S
C655 H645 0.930 . S
C655 C648 1.409 . S
C655 C654 1.357 1_556 S
H656 C662 0.930 . S
H657 C665 0.930 . S
H658 C666 0.930 . S
H659 C667 0.930 . S
H660 C670 0.930 . S
H661 C671 0.930 . S
C662 H656 0.930 . S
C662 C663 1.355 . S
C662 C664 1.415 1_556 S
C663 C662 1.355 . S
C663 C665 1.419 . S
C664 C662 1.415 1_554 S
C664 C669 1.425 . S
C664 C671 1.409 . S
C665 H657 0.930 . S
C665 C663 1.419 . S
C665 C666 1.362 1_556 S
C666 H658 0.930 . S
C666 C665 1.362 1_554 S
C666 C669 1.409 . S
C667 H659 0.930 . S
C667 C668 1.355 . S
C667 C669 1.415 . S
C668 C667 1.355 . S
C668 C670 1.419 . S
C669 C664 1.425 . S
C669 C666 1.409 . S
C669 C667 1.415 . S
C670 H660 0.930 . S
C670 C668 1.419 . S
C670 C671 1.362 . S
C671 H661 0.930 . S
C671 C664 1.409 . S
C671 C670 1.362 . S
H672 C678 0.930 . S
H673 C681 0.930 . S
H674 C682 0.930 . S
H675 C683 0.930 . S
H676 C686 0.930 . S
H677 C687 0.930 . S
C678 H672 0.930 . S
C678 C679 1.355 . S
C678 C680 1.415 . S
C679 C678 1.355 . S
C679 C681 1.419 . S
C680 C678 1.415 . S
C680 C685 1.425 . S
C680 C687 1.409 . S
C681 H673 0.930 . S
C681 C679 1.419 . S
C681 C682 1.362 . S
C682 H674 0.930 . S
C682 C681 1.362 . S
C682 C685 1.409 . S
C683 H675 0.930 . S
C683 C684 1.355 . S
C683 C685 1.415 . S
C684 C683 1.355 . S
C684 C686 1.419 . S
C685 C680 1.425 . S
C685 C682 1.409 . S
C685 C683 1.415 . S
C686 H676 0.930 . S
C686 C684 1.419 . S
C686 C687 1.362 . S
C687 H677 0.930 . S
C687 C680 1.409 . S
C687 C686 1.362 . S
H688 C694 0.930 . S
H689 C697 0.930 . S
H690 C698 0.930 . S
H691 C699 0.930 . S
H692 C702 0.930 . S
H693 C703 0.930 . S
C694 H688 0.930 . S
C694 C695 1.355 . S
C694 C696 1.415 . S
C695 C694 1.355 . S
C695 C697 1.419 . S
C696 C694 1.415 . S
C696 C701 1.425 . S
C696 C703 1.409 . S
C697 H689 0.930 . S
C697 C695 1.419 . S
C697 C698 1.362 . S
C698 H690 0.930 . S
C698 C697 1.362 . S
C698 C701 1.409 . S
C699 H691 0.930 . S
C699 C700 1.355 . S
C699 C701 1.415 1_556 S
C700 C699 1.355 . S
C700 C702 1.419 . S
C701 C696 1.425 . S
C701 C698 1.409 . S
C701 C699 1.415 1_554 S
C702 H692 0.930 . S
C702 C700 1.419 . S
C702 C703 1.362 1_556 S
C703 H693 0.930 . S
C703 C696 1.409 . S
C703 C702 1.362 1_554 S
H704 C710 0.930 . S
H705 C713 0.930 1_554 S
H706 C714 0.930 . S
H707 C715 0.930 . S
H708 C718 0.930 . S
H709 C719 0.930 . S
C710 H704 0.930 . S
C710 C711 1.355 1_556 S
C710 C712 1.415 . S
C711 C710 1.355 1_554 S
C711 C713 1.419 1_554 S
C712 C710 1.415 . S
C712 C717 1.425 . S
C712 C719 1.409 . S
C713 H705 0.930 1_556 S
C713 C711 1.419 1_556 S
C713 C714 1.362 . S
C714 H706 0.930 . S
C714 C713 1.362 . S
C714 C717 1.409 . S
C715 H707 0.930 . S
C715 C716 1.355 . S
C715 C717 1.415 . S
C716 C715 1.355 . S
C716 C718 1.419 . S
C717 C712 1.425 . S
C717 C714 1.409 . S
C717 C715 1.415 . S
C718 H708 0.930 . S
C718 C716 1.419 . S
C718 C719 1.362 . S
C719 H709 0.930 . S
C719 C712 1.409 . S
C719 C718 1.362 . S
H720 C726 0.930 . S
H721 C729 0.930 . S
H722 C730 0.930 . S
H723 C731 0.930 . S
H724 C734 0.930 . S
H725 C735 0.930 . S
C726 H720 0.930 . S
C726 C727 1.355 . S
C726 C728 1.415 . S
C727 C726 1.355 . S
C727 C729 1.419 . S
C728 C726 1.415 . S
C728 C733 1.425 . S
C728 C735 1.409 . S
C729 H721 0.930 . S
C729 C727 1.419 . S
C729 C730 1.362 . S
C730 H722 0.930 . S
C730 C729 1.362 . S
C730 C733 1.409 . S
C731 H723 0.930 . S
C731 C732 1.355 . S
C731 C733 1.415 . S
C732 C731 1.355 . S
C732 C734 1.419 . S
C733 C728 1.425 . S
C733 C730 1.409 . S
C733 C731 1.415 . S
C734 H724 0.930 . S
C734 C732 1.419 . S
C734 C735 1.362 . S
C735 H725 0.930 . S
C735 C728 1.409 . S
C735 C734 1.362 . S
H736 C742 0.930 . S
H737 C745 0.930 . S
H738 C746 0.930 . S
H739 C747 0.930 . S
H740 C750 0.930 . S
H741 C751 0.930 . S
C742 H736 0.930 . S
C742 C743 1.355 . S
C742 C744 1.415 . S
C743 C742 1.355 . S
C743 C745 1.419 . S
C744 C742 1.415 . S
C744 C749 1.425 . S
C744 C751 1.409 . S
C745 H737 0.930 . S
C745 C743 1.419 . S
C745 C746 1.362 . S
C746 H738 0.930 . S
C746 C745 1.362 . S
C746 C749 1.409 . S
C747 H739 0.930 . S
C747 C748 1.355 . S
C747 C749 1.415 . S
C748 C747 1.355 . S
C748 C750 1.419 . S
C749 C744 1.425 . S
C749 C746 1.409 . S
C749 C747 1.415 . S
C750 H740 0.930 . S
C750 C748 1.419 . S
C750 C751 1.362 . S
C751 H741 0.930 . S
C751 C744 1.409 . S
C751 C750 1.362 . S
H752 C758 0.930 . S
H753 C761 0.930 . S
H754 C762 0.930 . S
H755 C763 0.930 . S
H756 C766 0.930 . S
H757 C767 0.930 . S
C758 H752 0.930 . S
C758 C759 1.355 . S
C758 C760 1.415 . S
C759 C758 1.355 . S
C759 C761 1.419 . S
C760 C758 1.415 . S
C760 C765 1.425 . S
C760 C767 1.409 . S
C761 H753 0.930 . S
C761 C759 1.419 . S
C761 C762 1.362 . S
C762 H754 0.930 . S
C762 C761 1.362 . S
C762 C765 1.409 . S
C763 H755 0.930 . S
C763 C764 1.355 . S
C763 C765 1.415 . S
C764 C763 1.355 . S
C764 C766 1.419 . S
C765 C760 1.425 . S
C765 C762 1.409 . S
C765 C763 1.415 . S
C766 H756 0.930 . S
C766 C764 1.419 . S
C766 C767 1.362 . S
C767 H757 0.930 . S
C767 C760 1.409 . S
C767 C766 1.362 . S
H768 C774 0.930 . S
H769 C777 0.930 . S
H770 C778 0.930 . S
H771 C779 0.930 . S
H772 C782 0.930 . S
H773 C783 0.930 . S
C774 H768 0.930 . S
C774 C775 1.355 . S
C774 C776 1.415 . S
C775 C774 1.355 . S
C775 C777 1.419 . S
C776 C774 1.415 . S
C776 C781 1.425 . S
C776 C783 1.409 . S
C777 H769 0.930 . S
C777 C775 1.419 . S
C777 C778 1.362 . S
C778 H770 0.930 . S
C778 C777 1.362 . S
C778 C781 1.409 . S
C779 H771 0.930 . S
C779 C780 1.355 . S
C779 C781 1.415 1_556 S
C780 C779 1.355 . S
C780 C782 1.419 . S
C781 C776 1.425 . S
C781 C778 1.409 . S
C781 C779 1.415 1_554 S
C782 H772 0.930 . S
C782 C780 1.419 . S
C782 C783 1.362 1_556 S
C783 H773 0.930 . S
C783 C776 1.409 . S
C783 C782 1.362 1_554 S
H784 C790 0.930 . S
H785 C793 0.930 . S
H786 C794 0.930 . S
H787 C795 0.930 . S
H788 C798 0.930 . S
H789 C799 0.930 . S
C790 H784 0.930 . S
C790 C791 1.355 . S
C790 C792 1.415 1_554 S
C791 C790 1.355 . S
C791 C793 1.419 . S
C792 C790 1.415 1_556 S
C792 C797 1.425 . S
C792 C799 1.409 . S
C793 H785 0.930 . S
C793 C791 1.419 . S
C793 C794 1.362 1_554 S
C794 H786 0.930 . S
C794 C793 1.362 1_556 S
C794 C797 1.409 . S
C795 H787 0.930 . S
C795 C796 1.355 . S
C795 C797 1.415 . S
C796 C795 1.355 . S
C796 C798 1.419 . S
C797 C792 1.425 . S
C797 C794 1.409 . S
C797 C795 1.415 . S
C798 H788 0.930 . S
C798 C796 1.419 . S
C798 C799 1.362 . S
C799 H789 0.930 . S
C799 C792 1.409 . S
C799 C798 1.362 . S
H800 C806 0.930 . S
H801 C809 0.930 . S
H802 C810 0.930 . S
H803 C811 0.930 . S
H804 C814 0.930 . S
H805 C815 0.930 . S
C806 H800 0.930 . S
C806 C807 1.355 . S
C806 C808 1.415 . S
C807 C806 1.355 . S
C807 C809 1.419 . S
C808 C806 1.415 . S
C808 C813 1.425 . S
C808 C815 1.409 . S
C809 H801 0.930 . S
C809 C807 1.419 . S
C809 C810 1.362 . S
C810 H802 0.930 . S
C810 C809 1.362 . S
C810 C813 1.409 . S
C811 H803 0.930 . S
C811 C812 1.355 . S
C811 C813 1.415 . S
C812 C811 1.355 . S
C812 C814 1.419 . S
C813 C808 1.425 . S
C813 C810 1.409 . S
C813 C811 1.415 . S
C814 H804 0.930 . S
C814 C812 1.419 . S
C814 C815 1.362 . S
C815 H805 0.930 . S
C815 C808 1.409 . S
C815 C814 1.362 . S
H816 C822 0.930 . S
H817 C825 0.930 . S
H818 C826 0.930 . S
H819 C827 0.930 . S
H820 C830 0.930 . S
H821 C831 0.930 . S
C822 H816 0.930 . S
C822 C823 1.355 . S
C822 C824 1.415 . S
C823 C822 1.355 . S
C823 C825 1.419 . S
C824 C822 1.415 . S
C824 C829 1.425 . S
C824 C831 1.409 . S
C825 H817 0.930 . S
C825 C823 1.419 . S
C825 C826 1.362 . S
C826 H818 0.930 . S
C826 C825 1.362 . S
C826 C829 1.409 . S
C827 H819 0.930 . S
C827 C828 1.355 . S
C827 C829 1.415 . S
C828 C827 1.355 . S
C828 C830 1.419 . S
C829 C824 1.425 . S
C829 C826 1.409 . S
C829 C827 1.415 . S
C830 H820 0.930 . S
C830 C828 1.419 . S
C830 C831 1.362 . S
C831 H821 0.930 . S
C831 C824 1.409 . S
C831 C830 1.362 . S
H832 C838 0.930 . S
H833 C841 0.930 . S
H834 C842 0.930 . S
H835 C843 0.930 . S
H836 C846 0.930 . S
H837 C847 0.930 . S
C838 H832 0.930 . S
C838 C839 1.355 . S
C838 C840 1.415 . S
C839 C838 1.355 . S
C839 C841 1.419 . S
C840 C838 1.415 . S
C840 C845 1.425 . S
C840 C847 1.409 . S
C841 H833 0.930 . S
C841 C839 1.419 . S
C841 C842 1.362 . S
C842 H834 0.930 . S
C842 C841 1.362 . S
C842 C845 1.409 . S
C843 H835 0.930 . S
C843 C844 1.355 . S
C843 C845 1.415 . S
C844 C843 1.355 . S
C844 C846 1.419 . S
C845 C840 1.425 . S
C845 C842 1.409 . S
C845 C843 1.415 . S
C846 H836 0.930 . S
C846 C844 1.419 . S
C846 C847 1.362 . S
C847 H837 0.930 . S
C847 C840 1.409 . S
C847 C846 1.362 . S
H848 C854 0.930 1_554 S
H849 C857 0.930 . S
H850 C858 0.930 . S
H851 C859 0.930 . S
H852 C862 0.930 . S
H853 C863 0.930 . S
C854 H848 0.930 1_556 S
C854 C855 1.355 . S
C854 C856 1.415 . S
C855 C854 1.355 . S
C855 C857 1.419 . S
C856 C854 1.415 . S
C856 C861 1.425 . S
C856 C863 1.409 1_556 S
C857 H849 0.930 . S
C857 C855 1.419 . S
C857 C858 1.362 . S
C858 H850 0.930 . S
C858 C857 1.362 . S
C858 C861 1.409 . S
C859 H851 0.930 . S
C859 C860 1.355 . S
C859 C861 1.415 . S
C860 C859 1.355 . S
C860 C862 1.419 1_556 S
C861 C856 1.425 . S
C861 C858 1.409 . S
C861 C859 1.415 . S
C862 H852 0.930 . S
C862 C860 1.419 1_554 S
C862 C863 1.362 . S
C863 H853 0.930 . S
C863 C856 1.409 1_554 S
C863 C862 1.362 . S
H864 C870 0.930 . S
H865 C873 0.930 1_554 S
H866 C874 0.930 1_554 S
H867 C875 0.930 . S
H868 C878 0.930 . S
H869 C879 0.930 . S
C870 H864 0.930 . S
C870 C871 1.355 . S
C870 C872 1.415 . S
C871 C870 1.355 . S
C871 C873 1.419 . S
C872 C870 1.415 . S
C872 C877 1.425 . S
C872 C879 1.409 . S
C873 H865 0.930 1_556 S
C873 C871 1.419 . S
C873 C874 1.362 . S
C874 H866 0.930 1_556 S
C874 C873 1.362 . S
C874 C877 1.409 . S
C875 H867 0.930 . S
C875 C876 1.355 . S
C875 C877 1.415 . S
C876 C875 1.355 . S
C876 C878 1.419 . S
C877 C872 1.425 . S
C877 C874 1.409 . S
C877 C875 1.415 . S
C878 H868 0.930 . S
C878 C876 1.419 . S
C878 C879 1.362 . S
C879 H869 0.930 . S
C879 C872 1.409 . S
C879 C878 1.362 . S
H880 C886 0.930 . S
H881 C889 0.930 . S
H882 C890 0.930 . S
H883 C891 0.930 . S
H884 C894 0.930 . S
H885 C895 0.930 . S
C886 H880 0.930 . S
C886 C887 1.355 . S
C886 C888 1.415 1_455 S
C887 C886 1.355 . S
C887 C889 1.419 . S
C888 C886 1.415 1_655 S
C888 C893 1.425 . S
C888 C895 1.409 . S
C889 H881 0.930 . S
C889 C887 1.419 . S
C889 C890 1.362 1_455 S
C890 H882 0.930 . S
C890 C889 1.362 1_655 S
C890 C893 1.409 . S
C891 H883 0.930 . S
C891 C892 1.355 . S
C891 C893 1.415 . S
C892 C891 1.355 . S
C892 C894 1.419 . S
C893 C888 1.425 . S
C893 C890 1.409 . S
C893 C891 1.415 . S
C894 H884 0.930 . S
C894 C892 1.419 . S
C894 C895 1.362 . S
C895 H885 0.930 . S
C895 C888 1.409 . S
C895 C894 1.362 . S
H896 C902 0.930 . S
H897 C905 0.930 . S
H898 C906 0.930 . S
H899 C907 0.930 . S
H900 C910 0.930 . S
H901 C911 0.930 . S
C902 H896 0.930 . S
C902 C903 1.355 . S
C902 C904 1.415 . S
C903 C902 1.355 . S
C903 C905 1.419 . S
C904 C902 1.415 . S
C904 C909 1.425 . S
C904 C911 1.409 . S
C905 H897 0.930 . S
C905 C903 1.419 . S
C905 C906 1.362 . S
C906 H898 0.930 . S
C906 C905 1.362 . S
C906 C909 1.409 . S
C907 H899 0.930 . S
C907 C908 1.355 . S
C907 C909 1.415 . S
C908 C907 1.355 . S
C908 C910 1.419 . S
C909 C904 1.425 . S
C909 C906 1.409 . S
C909 C907 1.415 . S
C910 H900 0.930 . S
C910 C908 1.419 . S
C910 C911 1.362 . S
C911 H901 0.930 . S
C911 C904 1.409 . S
C911 C910 1.362 . S
H912 C918 0.930 . S
H913 C921 0.930 . S
H914 C922 0.930 . S
H915 C923 0.930 . S
H916 C926 0.930 . S
H917 C927 0.930 . S
C918 H912 0.930 . S
C918 C919 1.355 . S
C918 C920 1.415 . S
C919 C918 1.355 . S
C919 C921 1.419 . S
C920 C918 1.415 . S
C920 C925 1.425 . S
C920 C927 1.409 . S
C921 H913 0.930 . S
C921 C919 1.419 . S
C921 C922 1.362 . S
C922 H914 0.930 . S
C922 C921 1.362 . S
C922 C925 1.409 . S
C923 H915 0.930 . S
C923 C924 1.355 . S
C923 C925 1.415 . S
C924 C923 1.355 . S
C924 C926 1.419 . S
C925 C920 1.425 . S
C925 C922 1.409 . S
C925 C923 1.415 . S
C926 H916 0.930 . S
C926 C924 1.419 . S
C926 C927 1.362 . S
C927 H917 0.930 . S
C927 C920 1.409 . S
C927 C926 1.362 . S
H928 C934 0.930 . S
H929 C937 0.930 . S
H930 C938 0.930 . S
H931 C939 0.930 . S
H932 C942 0.930 1_554 S
H933 C943 0.925 1_554 S
C934 H928 0.930 . S
C934 C935 1.355 . S
C934 C936 1.415 . S
C935 C934 1.355 . S
C935 C937 1.419 . S
C936 C934 1.415 . S
C936 C941 1.425 . S
C936 C943 1.413 . S
C937 H929 0.930 . S
C937 C935 1.419 . S
C937 C938 1.362 . S
C938 H930 0.930 . S
C938 C937 1.362 . S
C938 C941 1.409 . S
C939 H931 0.930 . S
C939 C940 1.355 . S
C939 C941 1.415 . S
C940 C939 1.355 . S
C940 C942 1.419 . S
C941 C936 1.425 . S
C941 C938 1.409 . S
C941 C939 1.415 . S
C942 H932 0.930 1_556 S
C942 C940 1.419 . S
C942 C943 1.363 . S
C943 H933 0.925 1_556 S
C943 C936 1.413 . S
C943 C942 1.363 . S
H944 C950 0.930 . S
H945 C953 0.930 . S
H946 C954 0.930 . S
H947 C955 0.930 . S
H948 C958 0.930 . S
H949 C959 0.930 . S
C950 H944 0.930 . S
C950 C951 1.355 . S
C950 C952 1.415 . S
C951 C950 1.355 . S
C951 C953 1.419 . S
C952 C950 1.415 . S
C952 C957 1.425 . S
C952 C959 1.409 . S
C953 H945 0.930 . S
C953 C951 1.419 . S
C953 C954 1.362 . S
C954 H946 0.930 . S
C954 C953 1.362 . S
C954 C957 1.409 . S
C955 H947 0.930 . S
C955 C956 1.355 . S
C955 C957 1.415 . S
C956 C955 1.355 . S
C956 C958 1.419 . S
C957 C952 1.425 . S
C957 C954 1.409 . S
C957 C955 1.415 . S
C958 H948 0.930 . S
C958 C956 1.419 . S
C958 C959 1.362 . S
C959 H949 0.930 . S
C959 C952 1.409 . S
C959 C958 1.362 . S
H960 C966 0.930 . S
H961 C969 0.930 . S
H962 C970 0.930 1_556 S
H963 C971 0.930 . S
H964 C974 0.930 . S
H965 C975 0.930 . S
C966 H960 0.930 . S
C966 C967 1.355 . S
C966 C968 1.415 . S
C967 C966 1.355 . S
C967 C969 1.419 . S
C968 C966 1.415 . S
C968 C973 1.425 . S
C968 C975 1.409 . S
C969 H961 0.930 . S
C969 C967 1.419 . S
C969 C970 1.362 . S
C970 H962 0.930 1_554 S
C970 C969 1.362 . S
C970 C973 1.409 . S
C971 H963 0.930 . S
C971 C972 1.355 . S
C971 C973 1.415 . S
C972 C971 1.355 . S
C972 C974 1.419 . S
C973 C968 1.425 . S
C973 C970 1.409 . S
C973 C971 1.415 . S
C974 H964 0.930 . S
C974 C972 1.419 . S
C974 C975 1.362 . S
C975 H965 0.930 . S
C975 C968 1.409 . S
C975 C974 1.362 . S
H976 C982 0.930 . S
H977 C985 0.930 . S
H978 C986 0.930 . S
H979 C987 0.930 . S
H980 C990 0.930 . S
H981 C991 0.930 . S
C982 H976 0.930 . S
C982 C983 1.355 . S
C982 C984 1.415 . S
C983 C982 1.355 . S
C983 C985 1.419 . S
C984 C982 1.415 . S
C984 C989 1.425 . S
C984 C991 1.409 . S
C985 H977 0.930 . S
C985 C983 1.419 . S
C985 C986 1.362 . S
C986 H978 0.930 . S
C986 C985 1.362 . S
C986 C989 1.409 . S
C987 H979 0.930 . S
C987 C988 1.355 . S
C987 C989 1.415 . S
C988 C987 1.355 . S
C988 C990 1.419 . S
C989 C984 1.425 . S
C989 C986 1.409 . S
C989 C987 1.415 . S
C990 H980 0.930 . S
C990 C988 1.419 . S
C990 C991 1.362 . S
C991 H981 0.930 . S
C991 C984 1.409 . S
C991 C990 1.362 . S
H992 C998 0.930 . S
H993 C1001 0.930 . S
H994 C1002 0.930 . S
H995 C1003 0.930 . S
H996 C1006 0.930 . S
H997 C1007 0.930 . S
C998 H992 0.930 . S
C998 C999 1.355 . S
C998 C1000 1.415 . S
C999 C998 1.355 . S
C999 C1001 1.419 . S
C1000 C998 1.415 . S
C1000 C1005 1.425 . S
C1000 C1007 1.409 . S
C1001 H993 0.930 . S
C1001 C999 1.419 . S
C1001 C1002 1.362 . S
C1002 H994 0.930 . S
C1002 C1001 1.362 . S
C1002 C1005 1.409 . S
C1003 H995 0.930 . S
C1003 C1004 1.355 1_655 S
C1003 C1005 1.415 . S
C1004 C1003 1.355 1_455 S
C1004 C1006 1.419 . S
C1005 C1000 1.425 . S
C1005 C1002 1.409 . S
C1005 C1003 1.415 . S
C1006 H996 0.930 . S
C1006 C1004 1.419 . S
C1006 C1007 1.362 1_455 S
C1007 H997 0.930 . S
C1007 C1000 1.409 . S
C1007 C1006 1.362 1_655 S
H1008 C1014 0.930 . S
H1009 C1017 0.930 . S
H1010 C1018 0.930 . S
H1011 C1019 0.930 . S
H1012 C1022 0.930 . S
H1013 C1023 0.930 . S
C1014 H1008 0.930 . S
C1014 C1015 1.355 . S
C1014 C1016 1.415 . S
C1015 C1014 1.355 . S
C1015 C1017 1.419 . S
C1016 C1014 1.415 . S
C1016 C1021 1.425 . S
C1016 C1023 1.409 . S
C1017 H1009 0.930 . S
C1017 C1015 1.419 . S
C1017 C1018 1.362 . S
C1018 H1010 0.930 . S
C1018 C1017 1.362 . S
C1018 C1021 1.409 . S
C1019 H1011 0.930 . S
C1019 C1020 1.355 . S
C1019 C1021 1.415 . S
C1020 C1019 1.355 . S
C1020 C1022 1.419 . S
C1021 C1016 1.425 . S
C1021 C1018 1.409 . S
C1021 C1019 1.415 . S
C1022 H1012 0.930 . S
C1022 C1020 1.419 . S
C1022 C1023 1.362 . S
C1023 H1013 0.930 . S
C1023 C1016 1.409 . S
C1023 C1022 1.362 . S
H1024 C1030 0.930 . S
H1025 C1033 0.930 . S
H1026 C1034 0.930 . S
H1027 C1035 0.930 . S
H1028 C1038 0.930 . S
H1029 C1039 0.930 . S
C1030 H1024 0.930 . S
C1030 C1031 1.355 . S
C1030 C1032 1.415 . S
C1031 C1030 1.355 . S
C1031 C1033 1.419 . S
C1032 C1030 1.415 . S
C1032 C1037 1.425 . S
C1032 C1039 1.409 . S
C1033 H1025 0.930 . S
C1033 C1031 1.419 . S
C1033 C1034 1.362 . S
C1034 H1026 0.930 . S
C1034 C1033 1.362 . S
C1034 C1037 1.409 . S
C1035 H1027 0.930 . S
C1035 C1036 1.355 . S
C1035 C1037 1.415 . S
C1036 C1035 1.355 . S
C1036 C1038 1.419 . S
C1037 C1032 1.425 . S
C1037 C1034 1.409 . S
C1037 C1035 1.415 . S
C1038 H1028 0.930 . S
C1038 C1036 1.419 . S
C1038 C1039 1.362 . S
C1039 H1029 0.930 . S
C1039 C1032 1.409 . S
C1039 C1038 1.362 . S
H1040 C1046 0.930 . S
H1041 C1049 0.930 1_556 S
H1042 C1050 0.930 1_556 S
H1043 C1051 0.930 1_556 S
H1044 C1054 0.930 . S
H1045 C1055 0.930 . S
C1046 H1040 0.930 . S
C1046 C1047 1.355 . S
C1046 C1048 1.415 . S
C1047 C1046 1.355 . S
C1047 C1049 1.419 . S
C1048 C1046 1.415 . S
C1048 C1053 1.425 . S
C1048 C1055 1.409 . S
C1049 H1041 0.930 1_554 S
C1049 C1047 1.419 . S
C1049 C1050 1.362 . S
C1050 H1042 0.930 1_554 S
C1050 C1049 1.362 . S
C1050 C1053 1.409 . S
C1051 H1043 0.930 1_554 S
C1051 C1052 1.355 . S
C1051 C1053 1.415 1_655 S
C1052 C1051 1.355 . S
C1052 C1054 1.419 . S
C1053 C1048 1.425 . S
C1053 C1050 1.409 . S
C1053 C1051 1.415 1_455 S
C1054 H1044 0.930 . S
C1054 C1052 1.419 . S
C1054 C1055 1.362 1_655 S
C1055 H1045 0.930 . S
C1055 C1048 1.409 . S
C1055 C1054 1.362 1_455 S
H1056 C1062 0.930 . S
H1057 C1065 0.930 1_556 S
H1058 C1066 0.930 . S
H1059 C1067 0.930 . S
H1060 C1070 0.930 . S
H1061 C1071 0.930 . S
C1062 H1056 0.930 . S
C1062 C1063 1.355 . S
C1062 C1064 1.415 . S
C1063 C1062 1.355 . S
C1063 C1065 1.419 . S
C1064 C1062 1.415 . S
C1064 C1069 1.425 1_554 S
C1064 C1071 1.409 . S
C1065 H1057 0.930 1_554 S
C1065 C1063 1.419 . S
C1065 C1066 1.362 1_554 S
C1066 H1058 0.930 . S
C1066 C1065 1.362 1_556 S
C1066 C1069 1.409 . S
C1067 H1059 0.930 . S
C1067 C1068 1.355 . S
C1067 C1069 1.415 . S
C1068 C1067 1.355 . S
C1068 C1070 1.419 1_556 S
C1069 C1064 1.425 1_556 S
C1069 C1066 1.409 . S
C1069 C1067 1.415 . S
C1070 H1060 0.930 . S
C1070 C1068 1.419 1_554 S
C1070 C1071 1.362 . S
C1071 H1061 0.930 . S
C1071 C1064 1.409 . S
C1071 C1070 1.362 . S
H1072 C1078 0.930 . S
H1073 C1081 0.930 . S
H1074 C1082 0.930 . S
H1075 C1083 0.930 . S
H1076 C1086 0.930 . S
H1077 C1087 0.930 . S
C1078 H1072 0.930 . S
C1078 C1079 1.355 . S
C1078 C1080 1.415 . S
C1079 C1078 1.355 . S
C1079 C1081 1.419 . S
C1080 C1078 1.415 . S
C1080 C1085 1.425 . S
C1080 C1087 1.409 . S
C1081 H1073 0.930 . S
C1081 C1079 1.419 . S
C1081 C1082 1.362 . S
C1082 H1074 0.930 . S
C1082 C1081 1.362 . S
C1082 C1085 1.409 . S
C1083 H1075 0.930 . S
C1083 C1084 1.355 . S
C1083 C1085 1.415 . S
C1084 C1083 1.355 . S
C1084 C1086 1.419 . S
C1085 C1080 1.425 . S
C1085 C1082 1.409 . S
C1085 C1083 1.415 . S
C1086 H1076 0.930 . S
C1086 C1084 1.419 . S
C1086 C1087 1.362 . S
C1087 H1077 0.930 . S
C1087 C1080 1.409 . S
C1087 C1086 1.362 . S
H1088 C1094 0.930 . S
H1089 C1097 0.930 . S
H1090 C1098 0.930 . S
H1091 C1099 0.930 . S
H1092 C1102 0.930 . S
H1093 C1103 0.930 . S
C1094 H1088 0.930 . S
C1094 C1095 1.355 . S
C1094 C1096 1.415 . S
C1095 C1094 1.355 . S
C1095 C1097 1.419 . S
C1096 C1094 1.415 . S
C1096 C1101 1.425 . S
C1096 C1103 1.409 . S
C1097 H1089 0.930 . S
C1097 C1095 1.419 . S
C1097 C1098 1.362 . S
C1098 H1090 0.930 . S
C1098 C1097 1.362 . S
C1098 C1101 1.409 . S
C1099 H1091 0.930 . S
C1099 C1100 1.355 . S
C1099 C1101 1.415 . S
C1100 C1099 1.355 . S
C1100 C1102 1.419 . S
C1101 C1096 1.425 . S
C1101 C1098 1.409 . S
C1101 C1099 1.415 . S
C1102 H1092 0.930 . S
C1102 C1100 1.419 . S
C1102 C1103 1.362 . S
C1103 H1093 0.930 . S
C1103 C1096 1.409 . S
C1103 C1102 1.362 . S
H1104 C1110 0.930 . S
H1105 C1113 0.930 . S
H1106 C1114 0.930 . S
H1107 C1115 0.930 . S
H1108 C1118 0.930 . S
H1109 C1119 0.930 . S
C1110 H1104 0.930 . S
C1110 C1111 1.355 . S
C1110 C1112 1.415 . S
C1111 C1110 1.355 . S
C1111 C1113 1.419 . S
C1112 C1110 1.415 . S
C1112 C1117 1.425 . S
C1112 C1119 1.409 . S
C1113 H1105 0.930 . S
C1113 C1111 1.419 . S
C1113 C1114 1.362 . S
C1114 H1106 0.930 . S
C1114 C1113 1.362 . S
C1114 C1117 1.409 . S
C1115 H1107 0.930 . S
C1115 C1116 1.355 . S
C1115 C1117 1.415 . S
C1116 C1115 1.355 . S
C1116 C1118 1.419 . S
C1117 C1112 1.425 . S
C1117 C1114 1.409 . S
C1117 C1115 1.415 . S
C1118 H1108 0.930 . S
C1118 C1116 1.419 . S
C1118 C1119 1.362 . S
C1119 H1109 0.930 . S
C1119 C1112 1.409 . S
C1119 C1118 1.362 . S
H1120 C1126 0.930 . S
H1121 C1129 0.930 . S
H1122 C1130 0.930 . S
H1123 C1131 0.930 . S
H1124 C1134 0.930 . S
H1125 C1135 0.930 . S
C1126 H1120 0.930 . S
C1126 C1127 1.355 . S
C1126 C1128 1.415 . S
C1127 C1126 1.355 . S
C1127 C1129 1.419 . S
C1128 C1126 1.415 . S
C1128 C1133 1.425 . S
C1128 C1135 1.409 1_554 S
C1129 H1121 0.930 . S
C1129 C1127 1.419 . S
C1129 C1130 1.362 . S
C1130 H1122 0.930 . S
C1130 C1129 1.362 . S
C1130 C1133 1.409 . S
C1131 H1123 0.930 . S
C1131 C1132 1.355 1_554 S
C1131 C1133 1.415 . S
C1132 C1131 1.355 1_556 S
C1132 C1134 1.419 . S
C1133 C1128 1.425 . S
C1133 C1130 1.409 . S
C1133 C1131 1.415 . S
C1134 H1124 0.930 . S
C1134 C1132 1.419 . S
C1134 C1135 1.362 . S
C1135 H1125 0.930 . S
C1135 C1128 1.409 1_556 S
C1135 C1134 1.362 . S
H1136 C1142 0.930 . S
H1137 C1145 0.930 . S
H1138 C1146 0.930 . S
H1139 C1147 0.930 . S
H1140 C1150 0.930 . S
H1141 C1151 0.930 . S
C1142 H1136 0.930 . S
C1142 C1143 1.355 . S
C1142 C1144 1.415 . S
C1143 C1142 1.355 . S
C1143 C1145 1.419 . S
C1144 C1142 1.415 . S
C1144 C1149 1.425 . S
C1144 C1151 1.409 . S
C1145 H1137 0.930 . S
C1145 C1143 1.419 . S
C1145 C1146 1.362 . S
C1146 H1138 0.930 . S
C1146 C1145 1.362 . S
C1146 C1149 1.409 . S
C1147 H1139 0.930 . S
C1147 C1148 1.355 . S
C1147 C1149 1.415 . S
C1148 C1147 1.355 . S
C1148 C1150 1.419 . S
C1149 C1144 1.425 . S
C1149 C1146 1.409 . S
C1149 C1147 1.415 . S
C1150 H1140 0.930 . S
C1150 C1148 1.419 . S
C1150 C1151 1.362 . S
C1151 H1141 0.930 . S
C1151 C1144 1.409 . S
C1151 C1150 1.362 . S
H1152 C1158 0.930 . S
H1153 C1161 0.930 . S
H1154 C1162 0.930 . S
H1155 C1163 0.930 . S
H1156 C1166 0.930 . S
H1157 C1167 0.930 . S
C1158 H1152 0.930 . S
C1158 C1159 1.355 . S
C1158 C1160 1.415 . S
C1159 C1158 1.355 . S
C1159 C1161 1.419 . S
C1160 C1158 1.415 . S
C1160 C1165 1.425 . S
C1160 C1167 1.409 . S
C1161 H1153 0.930 . S
C1161 C1159 1.419 . S
C1161 C1162 1.362 . S
C1162 H1154 0.930 . S
C1162 C1161 1.362 . S
C1162 C1165 1.409 . S
C1163 H1155 0.930 . S
C1163 C1164 1.355 . S
C1163 C1165 1.415 . S
C1164 C1163 1.355 . S
C1164 C1166 1.419 . S
C1165 C1160 1.425 . S
C1165 C1162 1.409 . S
C1165 C1163 1.415 . S
C1166 H1156 0.930 . S
C1166 C1164 1.419 . S
C1166 C1167 1.362 . S
C1167 H1157 0.930 . S
C1167 C1160 1.409 . S
C1167 C1166 1.362 . S
H1168 C1174 0.930 . S
H1169 C1177 0.930 . S
H1170 C1178 0.930 . S
H1171 C1179 0.930 . S
H1172 C1182 0.930 . S
H1173 C1183 0.930 . S
C1174 H1168 0.930 . S
C1174 C1175 1.355 . S
C1174 C1176 1.415 . S
C1175 C1174 1.355 . S
C1175 C1177 1.419 . S
C1176 C1174 1.415 . S
C1176 C1181 1.425 . S
C1176 C1183 1.409 . S
C1177 H1169 0.930 . S
C1177 C1175 1.419 . S
C1177 C1178 1.362 . S
C1178 H1170 0.930 . S
C1178 C1177 1.362 . S
C1178 C1181 1.409 . S
C1179 H1171 0.930 . S
C1179 C1180 1.355 . S
C1179 C1181 1.415 . S
C1180 C1179 1.355 . S
C1180 C1182 1.419 . S
C1181 C1176 1.425 . S
C1181 C1178 1.409 . S
C1181 C1179 1.415 . S
C1182 H1172 0.930 . S
C1182 C1180 1.419 . S
C1182 C1183 1.362 . S
C1183 H1173 0.930 . S
C1183 C1176 1.409 . S
C1183 C1182 1.362 . S
H1184 C1190 0.930 1_565 S
H1185 C1193 0.930 1_565 S
H1186 C1194 0.930 . S
H1187 C1195 0.930 . S
H1188 C1198 0.930 . S
H1189 C1199 0.930 . S
C1190 H1184 0.930 1_545 S
C1190 C1191 1.355 1_545 S
C1190 C1192 1.415 . S
C1191 C1190 1.355 1_565 S
C1191 C1193 1.419 1_565 S
C1192 C1190 1.415 . S
C1192 C1197 1.425 . S
C1192 C1199 1.409 . S
C1193 H1185 0.930 1_545 S
C1193 C1191 1.419 1_545 S
C1193 C1194 1.362 . S
C1194 H1186 0.930 . S
C1194 C1193 1.362 . S
C1194 C1197 1.409 . S
C1195 H1187 0.930 . S
C1195 C1196 1.355 . S
C1195 C1197 1.415 . S
C1196 C1195 1.355 . S
C1196 C1198 1.419 . S
C1197 C1192 1.425 . S
C1197 C1194 1.409 . S
C1197 C1195 1.415 . S
C1198 H1188 0.930 . S
C1198 C1196 1.419 . S
C1198 C1199 1.362 . S
C1199 H1189 0.930 . S
C1199 C1192 1.409 . S
C1199 C1198 1.362 . S
H1200 C1206 0.930 . S
H1201 C1209 0.930 . S
H1202 C1210 0.930 . S
H1203 C1211 0.930 . S
H1204 C1214 0.930 . S
H1205 C1215 0.930 . S
C1206 H1200 0.930 . S
C1206 C1207 1.355 . S
C1206 C1208 1.415 . S
C1207 C1206 1.355 . S
C1207 C1209 1.419 . S
C1208 C1206 1.415 . S
C1208 C1213 1.425 . S
C1208 C1215 1.409 . S
C1209 H1201 0.930 . S
C1209 C1207 1.419 . S
C1209 C1210 1.362 . S
C1210 H1202 0.930 . S
C1210 C1209 1.362 . S
C1210 C1213 1.409 . S
C1211 H1203 0.930 . S
C1211 C1212 1.355 . S
C1211 C1213 1.415 . S
C1212 C1211 1.355 . S
C1212 C1214 1.419 . S
C1213 C1208 1.425 . S
C1213 C1210 1.409 . S
C1213 C1211 1.415 . S
C1214 H1204 0.930 . S
C1214 C1212 1.419 . S
C1214 C1215 1.362 . S
C1215 H1205 0.930 . S
C1215 C1208 1.409 . S
C1215 C1214 1.362 . S
H1216 C1222 0.930 1_556 S
H1217 C1225 0.930 . S
H1218 C1226 0.930 . S
H1219 C1227 0.930 . S
H1220 C1230 0.930 . S
H1221 C1231 0.930 . S
C1222 H1216 0.930 1_554 S
C1222 C1223 1.355 . S
C1222 C1224 1.415 1_554 S
C1223 C1222 1.355 . S
C1223 C1225 1.419 . S
C1224 C1222 1.415 1_556 S
C1224 C1229 1.425 1_556 S
C1224 C1231 1.409 . S
C1225 H1217 0.930 . S
C1225 C1223 1.419 . S
C1225 C1226 1.362 . S
C1226 H1218 0.930 . S
C1226 C1225 1.362 . S
C1226 C1229 1.409 . S
C1227 H1219 0.930 . S
C1227 C1228 1.355 1_554 S
C1227 C1229 1.415 . S
C1228 C1227 1.355 1_556 S
C1228 C1230 1.419 . S
C1229 C1224 1.425 1_554 S
C1229 C1226 1.409 . S
C1229 C1227 1.415 . S
C1230 H1220 0.930 . S
C1230 C1228 1.419 . S
C1230 C1231 1.362 . S
C1231 H1221 0.930 . S
C1231 C1224 1.409 . S
C1231 C1230 1.362 . S
H1232 C1238 0.930 . S
H1233 C1241 0.930 . S
H1234 C1242 0.930 . S
H1235 C1243 0.930 . S
H1236 C1246 0.930 . S
H1237 C1247 0.930 . S
C1238 H1232 0.930 . S
C1238 C1239 1.355 . S
C1238 C1240 1.415 . S
C1239 C1238 1.355 . S
C1239 C1241 1.419 . S
C1240 C1238 1.415 . S
C1240 C1245 1.425 . S
C1240 C1247 1.409 . S
C1241 H1233 0.930 . S
C1241 C1239 1.419 . S
C1241 C1242 1.362 . S
C1242 H1234 0.930 . S
C1242 C1241 1.362 . S
C1242 C1245 1.409 . S
C1243 H1235 0.930 . S
C1243 C1244 1.355 . S
C1243 C1245 1.415 . S
C1244 C1243 1.355 . S
C1244 C1246 1.419 . S
C1245 C1240 1.425 . S
C1245 C1242 1.409 . S
C1245 C1243 1.415 . S
C1246 H1236 0.930 . S
C1246 C1244 1.419 . S
C1246 C1247 1.362 . S
C1247 H1237 0.930 . S
C1247 C1240 1.409 . S
C1247 C1246 1.362 . S
H1248 C1254 0.930 . S
H1249 C1257 0.930 . S
H1250 C1258 0.930 . S
H1251 C1259 0.930 . S
H1252 C1262 0.930 . S
H1253 C1263 0.930 . S
C1254 H1248 0.930 . S
C1254 C1255 1.355 . S
C1254 C1256 1.415 . S
C1255 C1254 1.355 . S
C1255 C1257 1.419 . S
C1256 C1254 1.415 . S
C1256 C1261 1.425 . S
C1256 C1263 1.409 . S
C1257 H1249 0.930 . S
C1257 C1255 1.419 . S
C1257 C1258 1.362 . S
C1258 H1250 0.930 . S
C1258 C1257 1.362 . S
C1258 C1261 1.409 . S
C1259 H1251 0.930 . S
C1259 C1260 1.355 . S
C1259 C1261 1.415 . S
C1260 C1259 1.355 . S
C1260 C1262 1.419 . S
C1261 C1256 1.425 . S
C1261 C1258 1.409 . S
C1261 C1259 1.415 . S
C1262 H1252 0.930 . S
C1262 C1260 1.419 . S
C1262 C1263 1.362 . S
C1263 H1253 0.930 . S
C1263 C1256 1.409 . S
C1263 C1262 1.362 . S
H1264 C1270 0.930 . S
H1265 C1273 0.930 . S
H1266 C1274 0.930 . S
H1267 C1275 0.930 . S
H1268 C1278 0.930 . S
H1269 C1279 0.930 . S
C1270 H1264 0.930 . S
C1270 C1271 1.355 . S
C1270 C1272 1.415 . S
C1271 C1270 1.355 . S
C1271 C1273 1.419 . S
C1272 C1270 1.415 . S
C1272 C1277 1.425 . S
C1272 C1279 1.409 . S
C1273 H1265 0.930 . S
C1273 C1271 1.419 . S
C1273 C1274 1.362 . S
C1274 H1266 0.930 . S
C1274 C1273 1.362 . S
C1274 C1277 1.409 . S
C1275 H1267 0.930 . S
C1275 C1276 1.355 . S
C1275 C1277 1.415 . S
C1276 C1275 1.355 . S
C1276 C1278 1.419 . S
C1277 C1272 1.425 . S
C1277 C1274 1.409 . S
C1277 C1275 1.415 . S
C1278 H1268 0.930 . S
C1278 C1276 1.419 . S
C1278 C1279 1.362 . S
C1279 H1269 0.930 . S
C1279 C1272 1.409 . S
C1279 C1278 1.362 . S
H1280 C1286 0.930 . S
H1281 C1289 0.930 . S
H1282 C1290 0.930 . S
H1283 C1291 0.930 . S
H1284 C1294 0.930 . S
H1285 C1295 0.930 . S
C1286 H1280 0.930 . S
C1286 C1287 1.355 . S
C1286 C1288 1.415 1_556 S
C1287 C1286 1.355 . S
C1287 C1289 1.419 . S
C1288 C1286 1.415 1_554 S
C1288 C1293 1.425 . S
C1288 C1295 1.409 . S
C1289 H1281 0.930 . S
C1289 C1287 1.419 . S
C1289 C1290 1.362 1_556 S
C1290 H1282 0.930 . S
C1290 C1289 1.362 1_554 S
C1290 C1293 1.409 . S
C1291 H1283 0.930 . S
C1291 C1292 1.355 . S
C1291 C1293 1.415 . S
C1292 C1291 1.355 . S
C1292 C1294 1.419 . S
C1293 C1288 1.425 . S
C1293 C1290 1.409 . S
C1293 C1291 1.415 . S
C1294 H1284 0.930 . S
C1294 C1292 1.419 . S
C1294 C1295 1.362 . S
C1295 H1285 0.930 . S
C1295 C1288 1.409 . S
C1295 C1294 1.362 . S
H1296 C1302 0.930 . S
H1297 C1305 0.930 . S
H1298 C1306 0.930 . S
H1299 C1307 0.930 . S
H1300 C1310 0.930 . S
H1301 C1311 0.930 . S
C1302 H1296 0.930 . S
C1302 C1303 1.355 . S
C1302 C1304 1.415 . S
C1303 C1302 1.355 . S
C1303 C1305 1.419 . S
C1304 C1302 1.415 . S
C1304 C1309 1.425 . S
C1304 C1311 1.409 . S
C1305 H1297 0.930 . S
C1305 C1303 1.419 . S
C1305 C1306 1.362 . S
C1306 H1298 0.930 . S
C1306 C1305 1.362 . S
C1306 C1309 1.409 . S
C1307 H1299 0.930 . S
C1307 C1308 1.355 . S
C1307 C1309 1.415 . S
C1308 C1307 1.355 . S
C1308 C1310 1.419 . S
C1309 C1304 1.425 . S
C1309 C1306 1.409 . S
C1309 C1307 1.415 . S
C1310 H1300 0.930 . S
C1310 C1308 1.419 . S
C1310 C1311 1.362 . S
C1311 H1301 0.930 . S
C1311 C1304 1.409 . S
C1311 C1310 1.362 . S
C551 C29 1.333 . S
C556 C0 1.333 . S
C567 C63 1.333 . S
C572 C34 1.333 . S
C583 C68 1.334 . S
C588 C97 1.334 . S
C599 C102 1.336 . S
C604 C131 1.336 . S
C615 C136 1.333 . S
C620 C165 1.333 . S
C631 C199 1.334 . S
C636 C170 1.334 . S
C647 C233 1.336 . S
C652 C204 1.336 . S
C663 C267 1.335 . S
C668 C238 1.335 . S
C679 C301 1.332 . S
C684 C272 1.332 . S
C695 C335 1.340 . S
C700 C306 1.340 . S
C711 C369 1.338 . S
C716 C340 1.338 . S
C727 C403 1.331 . S
C732 C374 1.331 . S
C743 C437 1.335 . S
C748 C408 1.335 . S
C759 C442 1.335 . S
C764 C471 1.335 . S
C775 C476 1.337 . S
C780 C505 1.337 . S
C791 C510 1.331 . S
C796 C539 1.331 . S
C807 C4 1.189 . S
C812 C387 1.162 . S
C823 C38 1.414 . S
C828 C523 1.435 . S
C839 C85 2.301 . S
C844 C314 2.289 . S
C855 C119 0.970 . S
C860 C455 0.990 . S
C871 C153 1.488 . S
C876 C450 1.511 . S
C887 C382 2.251 . S
C892 C187 2.227 . S
C903 C208 2.194 . S
C908 C518 2.211 . S
C919 C242 1.039 . S
C924 C319 1.043 . S
C935 C106 1.170 . S
C940 C280 1.143 . S
C951 C51 1.524 . S
C956 C353 1.499 . S
C967 C416 1.543 . S
C972 C174 1.555 . S
C983 C255 1.305 . S
C988 C489 1.292 . S
C999 C285 0.972 . S
C1004 C140 0.995 . S
C1015 C221 3.076 . S
C1020 C348 3.080 . S
C1031 C72 1.032 . S
C1036 C484 1.063 . S
C1047 C17 2.357 . S
C1052 C421 2.337 . S
C1063 C13 1.295 . S
C1068 C144 1.293 . S
C1079 C47 1.853 . S
C1084 C178 1.853 . S
C1095 C76 2.306 . S
C1100 C217 2.305 . S
C1111 C110 1.228 . S
C1116 C251 1.214 . S
C1127 C425 1.899 . S
C1132 C289 1.892 . S
C1143 C446 1.265 . S
C1148 C310 1.265 . S
C1159 C344 1.083 . S
C1164 C480 1.092 . S
C1175 C514 1.785 . S
C1180 C391 1.772 . S
C1191 C42 1.757 . S
C1196 C246 1.755 . S
C1207 C149 1.093 . S
C1212 C81 1.094 . S
C1223 C183 1.123 1_545 S
C1228 C115 1.125 . S
C1239 C8 3.037 . S
C1244 C212 3.044 . S
C1255 C527 2.190 1_545 S
C1260 C323 2.190 . S
C1271 C412 2.326 . S
C1276 C357 2.329 . S
C1287 C459 1.693 . S
C1292 C378 1.693 . S
C1303 C493 1.343 . S
C1308 C276 1.308 . S
