# Generated by pormake.
# Topology afw, (4)-cn, num edge types: 1
# Building blocks:
#     Node 0, Type 0, BuildingBlock: AZAVOO_clean_sbu_0, # of connection points: 4
#     Node 1, Type 0, BuildingBlock: AZAVOO_clean_sbu_0, # of connection points: 4
#     Node 2, Type 0, BuildingBlock: AZAVOO_clean_sbu_0, # of connection points: 4
#     Node 3, Type 0, BuildingBlock: AZAVOO_clean_sbu_0, # of connection points: 4
#     Node 4, Type 0, BuildingBlock: AZAVOO_clean_sbu_0, # of connection points: 4
#     Node 5, Type 0, BuildingBlock: AZAVOO_clean_sbu_0, # of connection points: 4
#     Node 6, Type 0, BuildingBlock: AZAVOO_clean_sbu_0, # of connection points: 4
#     Node 7, Type 0, BuildingBlock: AZAVOO_clean_sbu_0, # of connection points: 4
#     Node 8, Type 0, BuildingBlock: AZAVOO_clean_sbu_0, # of connection points: 4
#     Edge 9, Type (0, 0), BuildingBlock: XIVTED_clean_linker_0, # of connection points: 2
#     Edge 10, Type (0, 0), BuildingBlock: XIVTED_clean_linker_0, # of connection points: 2
#     Edge 11, Type (0, 0), BuildingBlock: XIVTED_clean_linker_0, # of connection points: 2
#     Edge 12, Type (0, 0), BuildingBlock: XIVTED_clean_linker_0, # of connection points: 2
#     Edge 13, Type (0, 0), BuildingBlock: XIVTED_clean_linker_0, # of connection points: 2
#     Edge 14, Type (0, 0), BuildingBlock: XIVTED_clean_linker_0, # of connection points: 2
#     Edge 15, Type (0, 0), BuildingBlock: XIVTED_clean_linker_0, # of connection points: 2
#     Edge 16, Type (0, 0), BuildingBlock: XIVTED_clean_linker_0, # of connection points: 2
#     Edge 17, Type (0, 0), BuildingBlock: XIVTED_clean_linker_0, # of connection points: 2
#     Edge 18, Type (0, 0), BuildingBlock: XIVTED_clean_linker_0, # of connection points: 2
#     Edge 19, Type (0, 0), BuildingBlock: XIVTED_clean_linker_0, # of connection points: 2
#     Edge 20, Type (0, 0), BuildingBlock: XIVTED_clean_linker_0, # of connection points: 2
#     Edge 21, Type (0, 0), BuildingBlock: XIVTED_clean_linker_0, # of connection points: 2
#     Edge 22, Type (0, 0), BuildingBlock: XIVTED_clean_linker_0, # of connection points: 2
#     Edge 23, Type (0, 0), BuildingBlock: XIVTED_clean_linker_0, # of connection points: 2
#     Edge 24, Type (0, 0), BuildingBlock: XIVTED_clean_linker_0, # of connection points: 2
#     Edge 25, Type (0, 0), BuildingBlock: XIVTED_clean_linker_0, # of connection points: 2
#     Edge 26, Type (0, 0), BuildingBlock: XIVTED_clean_linker_0, # of connection points: 2
# Relax obj value: 0.306
# Max RMSD: 0.283
# Mean RMSD: 0.260
data_MOF--net-afw--node1-AZAVOO_clean_sbu_0--edge1-XIVTED_clean_linker_0
_symmetry_space_group_name_H-M    P1
_symmetry_Int_Tables_number       1
_symmetry_cell_setting            triclinic
loop_
_symmetry_equiv_pos_as_xyz
'x, y, z'
_cell_length_a     39.639952
_cell_length_b     37.674859
_cell_length_c     36.968391
_cell_angle_alpha  90.032596
_cell_angle_beta   90.52266
_cell_angle_gamma 119.80143
loop_
_atom_site_label
_atom_site_type_symbol
_atom_site_fract_x
_atom_site_fract_y
_atom_site_fract_z
_atom_type_partial_charge
Mg0 Mg 0.03465 0.2773 0.0167 0.0
O1 O 0.9838 0.21154 0.01922 0.0
O2 O 0.92808 0.21201 0.01213 0.0
Mg3 Mg 0.94292 0.27865 0.00684 0.0
C4 C 0.94678 0.19289 0.01682 0.0
C5 C 0.07449 0.22531 0.03184 0.0
O6 O 0.04802 0.21191 0.05719 0.0
O7 O 0.02644 0.27881 0.95566 0.0
O8 O 0.97254 0.28381 0.95272 0.0
O9 O 0.03176 0.28686 0.07629 0.0
O10 O 0.99905 0.29956 0.03464 0.0
C11 C 1.001 0.28301 0.93758 0.0
C12 C 0.00728 0.29905 0.06824 0.0
O13 O 0.07688 0.25285 0.01042 0.0
Mg14 Mg 0.80822 0.80413 0.98336 0.0
O15 O 0.81908 0.86861 -0.00472 0.0
O16 O 0.76423 0.86991 0.9846 0.0
Mg17 Mg 0.71874 0.80672 0.96358 0.0
C18 C 0.79985 0.88751 -0.00547 0.0
C19 C 0.88563 0.80664 -0.00016 0.0
O20 O 0.87287 0.78179 0.97178 0.0
O21 O 0.7722 0.77819 0.03415 0.0
O22 O 0.71703 0.77678 0.01782 0.0
O23 O 0.82467 0.81981 0.9253 0.0
O24 O 0.76519 0.79476 0.94637 0.0
C25 C 0.737 0.76865 0.04015 0.0
C26 C 0.78835 0.808 0.91935 0.0
O27 O 0.86456 0.82025 0.01249 0.0
Mg28 Mg 0.25474 0.01856 0.02713 0.0
O29 O 0.23525 0.06601 0.02375 0.0
O30 O 0.28468 0.12584 0.00665 0.0
Mg31 Mg 0.33775 0.11664 0.00259 0.0
C32 C 0.24919 0.10351 0.01553 0.0
C33 C 0.16884 0.9691 0.05143 0.0
O34 O 0.183 0.99758 0.07665 0.0
O35 O 0.25736 0.01504 0.96634 0.0
O36 O 0.31153 0.07338 0.95328 0.0
O37 O 0.27159 0.03389 0.08458 0.0
O38 O 0.31186 0.06302 0.03912 0.0
C39 C 0.28289 0.03865 0.94388 0.0
C40 C 0.30623 0.05963 0.0735 0.0
O41 O 0.19134 0.96901 0.02723 0.0
Mg42 Mg 0.54346 0.50611 0.26298 0.0
O43 O 0.60842 0.53137 0.27272 0.0
O44 O 0.64098 0.59933 0.26704 0.0
Mg45 Mg 0.59458 0.6182 0.25853 0.0
C46 C 0.64018 0.56547 0.27263 0.0
C47 C 0.50049 0.4117 0.27713 0.0
O48 O 0.47156 0.41444 0.26245 0.0
O49 O 0.53852 0.52487 0.32047 0.0
O50 O 0.57041 0.59288 0.31424 0.0
O51 O 0.55498 0.5081 0.20359 0.0
O52 O 0.55493 0.55831 0.23462 0.0
C53 C 0.55162 0.56087 0.33344 0.0
C54 C 0.56177 0.54544 0.20497 0.0
O55 O 0.53317 0.44399 0.28151 0.0
Mg56 Mg 0.54474 0.09806 0.29835 0.0
O57 O 0.52076 0.14188 0.30543 0.0
O58 O 0.45739 0.10931 0.29159 0.0
Mg59 Mg 0.43963 0.04251 0.2807 0.0
C60 C 0.48865 0.14161 0.30097 0.0
C61 C 0.63259 0.14456 0.31921 0.0
O62 O 0.63023 0.11251 0.30267 0.0
O63 O 0.51957 0.06853 0.35316 0.0
O64 O 0.45642 0.03642 0.33844 0.0
O65 O 0.55123 0.11435 0.23958 0.0
O66 O 0.49904 0.06226 0.26313 0.0
C67 C 0.48384 0.04579 0.36141 0.0
C68 C 0.51538 0.08566 0.23592 0.0
O69 O 0.6018 0.14654 0.32353 0.0
Mg70 Mg 0.92814 0.49635 0.2886 0.0
O71 O 0.88795 0.43089 0.30763 0.0
O72 O 0.92178 0.39827 0.31345 0.0
Mg73 Mg 0.98518 0.44439 0.30028 0.0
C74 C 0.8899 0.39887 0.31505 0.0
C75 C 0.88132 0.54316 0.28719 0.0
O76 O 0.91246 0.56975 0.2698 0.0
O77 O 0.95268 0.51479 0.34615 0.0
O78 O 0.98883 0.4842 0.34823 0.0
O79 O 0.91791 0.47303 0.2314 0.0
O80 O 0.96564 0.47849 0.26647 0.0
C81 C 0.97684 0.50686 0.36215 0.0
C82 C 0.94652 0.46616 0.23654 0.0
O83 O 0.87969 0.51074 0.29917 0.0
Mg84 Mg 0.40814 0.92237 0.69415 0.0
O85 O 0.35007 0.86326 0.68565 0.0
O86 O 0.30305 0.8781 0.67448 0.0
Mg87 Mg 0.33231 0.94805 0.67293 0.0
C88 C 0.31446 0.85217 0.67937 0.0
C89 C 0.42849 0.85224 0.70641 0.0
O90 O 0.39754 0.83774 0.72685 0.0
O91 O 0.41416 0.9343 0.63372 0.0
O92 O 0.36772 0.95038 0.62311 0.0
O93 O 0.39335 0.9222 0.75232 0.0
O94 O 0.37901 0.9531 0.70895 0.0
C95 C 0.39552 0.94515 0.61233 0.0
C96 C 0.3766 0.9427 0.74232 0.0
O97 O 0.44004 0.8861 0.69031 0.0
Mg98 Mg 0.12335 0.46655 0.63279 0.0
O99 O 0.14126 0.52938 0.6564 0.0
O100 O 0.08955 0.53767 0.66124 0.0
Mg101 Mg 0.03695 0.47658 0.64328 0.0
C102 C 0.12606 0.55124 0.66437 0.0
C103 C 0.19832 0.45685 0.63821 0.0
O104 O 0.18033 0.4284 0.6134 0.0
O105 O 0.09849 0.43604 0.68586 0.0
O106 O 0.04482 0.44093 0.69056 0.0
O107 O 0.13108 0.49382 0.57842 0.0
O108 O 0.07535 0.46517 0.60796 0.0
C109 C 0.06774 0.42877 0.70249 0.0
C110 C 0.09539 0.48593 0.58065 0.0
O111 O 0.18242 0.47656 0.65006 0.0
Mg112 Mg 0.56227 0.60082 0.68151 0.0
O113 O 0.54899 0.65362 0.67962 0.0
O114 O 0.6027 0.7116 0.66527 0.0
Mg115 Mg 0.64985 0.69482 0.65491 0.0
C116 C 0.56685 0.69208 0.67382 0.0
C117 C 0.47596 0.56124 0.70488 0.0
O118 O 0.49223 0.59042 0.72936 0.0
O119 O 0.56081 0.59778 0.62062 0.0
O120 O 0.61429 0.65602 0.60602 0.0
O121 O 0.58091 0.61724 0.73851 0.0
O122 O 0.62044 0.64246 0.69179 0.0
C123 C 0.58371 0.62265 0.59719 0.0
C124 C 0.61479 0.64314 0.72595 0.0
O125 O 0.49739 0.55632 0.68247 0.0
H126 H 0.17586 0.06892 0.04317 0.0
H127 H 0.1399 0.25331 -0.00979 0.0
H128 H 0.26317 0.1788 -0.00853 0.0
H129 H 0.06894 0.15808 0.06541 0.0
H130 H 0.18282 0.22402 0.98543 0.0
H131 H 0.13364 0.09861 0.04639 0.0
C132 C 0.1862 0.0993 0.03239 0.0
C133 C 0.22328 0.12141 0.01707 0.0
C134 C 0.15787 0.20964 0.00299 0.0
C135 C 0.17473 0.15561 0.02066 0.0
C136 C 0.13331 0.22625 0.00567 0.0
C137 C 0.1008 0.20817 0.02831 0.0
C138 C 0.14961 0.17445 0.02278 0.0
C139 C 0.09372 0.17317 0.04774 0.0
C140 C 0.16204 0.11628 0.03437 0.0
C141 C 0.23492 0.16068 0.00363 0.0
N142 N 0.11782 0.15742 0.04443 0.0
N143 N 0.21068 0.1765 0.00565 0.0
H144 H 0.7693 0.93879 -0.0035 0.0
H145 H 0.9758 0.14071 0.02597 0.0
H146 H 0.87681 0.93753 0.01236 0.0
H147 H 0.86796 0.14153 0.01106 0.0
H148 H 0.93951 0.06607 0.02512 0.0
H149 H 0.80437 0.01267 0.00607 0.0
C150 C 0.80023 0.95394 0.00224 0.0
C151 C 0.82013 0.93181 0.00333 0.0
C152 C 0.92377 0.08258 0.02222 0.0
C153 C 0.86056 0.01667 0.01415 0.0
C154 C 0.94448 0.12528 0.02269 0.0
C155 C 0.92498 0.14759 0.01833 0.0
C156 C 0.88323 0.06193 0.01726 0.0
C157 C 0.88432 0.12574 0.01433 0.0
C158 C 0.82026 0.99621 0.00768 0.0
C159 C 0.86022 0.95324 0.01107 0.0
N160 N 0.86486 0.08418 0.0137 0.0
N161 N 0.87913 0.99448 0.01593 0.0
H162 H 0.94098 0.78993 0.9746 0.0
H163 H 0.11119 0.96613 0.09379 0.0
H164 H 0.9222 0.86088 0.05546 0.0
H165 H 0.13056 0.90468 0.00451 0.0
H166 H 0.0412 0.92055 0.08647 0.0
H167 H 0.00964 0.82406 -0.00807 0.0
C168 C 0.95118 0.81233 -0.00371 0.0
C169 C 0.9259 0.82296 0.01327 0.0
C170 C 0.06079 0.91684 0.06868 0.0
C171 C 0.00451 0.86232 0.03308 0.0
C172 C 0.10076 0.94282 0.07286 0.0
C173 C 0.12674 0.9395 0.04946 0.0
C174 C 0.04671 0.88731 0.04093 0.0
C175 C 0.11158 0.90861 0.02294 0.0
C176 C 0.99043 0.83189 0.00611 0.0
C177 C 0.94072 0.85202 0.04137 0.0
N178 N 0.07255 0.8839 0.01924 0.0
N179 N 0.97913 0.87097 0.05017 0.0
H180 H 0.81031 0.49091 0.31611 0.0
H181 H 0.71504 0.62805 0.26235 0.0
H182 H 0.87422 0.60849 0.26437 0.0
H183 H 0.6495 0.50207 0.29621 0.0
H184 H 0.77507 0.62507 0.26962 0.0
H185 H 0.75267 0.49845 0.31608 0.0
C186 C 0.81234 0.51848 0.30497 0.0
C187 C 0.84714 0.54898 0.28996 0.0
C188 C 0.74752 0.59818 0.27558 0.0
C189 C 0.78103 0.55774 0.28974 0.0
C190 C 0.71324 0.59987 0.27152 0.0
C191 C 0.67709 0.56519 0.27846 0.0
C192 C 0.74564 0.56164 0.2869 0.0
C193 C 0.67661 0.5295 0.29025 0.0
C194 C 0.77933 0.52271 0.30487 0.0
C195 C 0.84797 0.58409 0.27602 0.0
N196 N 0.7103 0.52867 0.29403 0.0
N197 N 0.81534 0.58744 0.2761 0.0
H198 H 0.54833 0.21646 0.32264 0.0
H199 H 0.43589 0.33599 0.26837 0.0
H200 H 0.42875 0.15631 0.28579 0.0
H201 H 0.55508 0.39532 0.30611 0.0
H202 H 0.43092 0.26956 0.27924 0.0
H203 H 0.54944 0.28174 0.32163 0.0
C204 C 0.52217 0.21686 0.31463 0.0
C205 C 0.48847 0.18075 0.30403 0.0
C206 C 0.45808 0.29712 0.28537 0.0
C207 C 0.48968 0.25569 0.30258 0.0
C208 C 0.46094 0.33508 0.27918 0.0
C209 C 0.49605 0.37131 0.28606 0.0
C210 C 0.49059 0.29534 0.29848 0.0
C211 C 0.52749 0.36822 0.30018 0.0
C212 C 0.52285 0.25423 0.31403 0.0
C213 C 0.45544 0.1833 0.29408 0.0
N214 N 0.52408 0.33093 0.3057 0.0
N215 N 0.45698 0.22015 0.29333 0.0
H216 H 0.64835 0.21965 0.34465 0.0
H217 H 0.87819 0.32076 0.31951 0.0
H218 H 0.70449 0.15156 0.31274 0.0
H219 H 0.81848 0.3898 0.32997 0.0
H220 H 0.81633 0.25764 0.32784 0.0
H221 H 0.71206 0.28107 0.35059 0.0
C222 C 0.67408 0.21745 0.33933 0.0
C223 C 0.67102 0.18046 0.32774 0.0
C224 C 0.81688 0.28665 0.3286 0.0
C225 C 0.74408 0.2508 0.33433 0.0
C226 C 0.8522 0.32274 0.32395 0.0
C227 C 0.85353 0.3607 0.32364 0.0
C228 C 0.78266 0.28851 0.33319 0.0
C229 C 0.81885 0.36127 0.3296 0.0
C230 C 0.71046 0.2526 0.34261 0.0
C231 C 0.70543 0.17948 0.32141 0.0
N232 N 0.78485 0.32574 0.33392 0.0
N233 N 0.74052 0.21422 0.32451 0.0
H234 H 0.49723 0.87664 0.6716 0.0
H235 H 0.49279 0.66363 0.69877 0.0
H236 H 0.40686 0.77478 0.72959 0.0
H237 H 0.5922 0.77263 0.65828 0.0
H238 H 0.4589 0.70232 0.70657 0.0
H239 H 0.53054 0.83749 0.66302 0.0
C240 C 0.48438 0.84605 0.68257 0.0
C241 C 0.44921 0.82902 0.70143 0.0
C242 C 0.48813 0.71775 0.69599 0.0
C243 C 0.48718 0.78391 0.69153 0.0
C244 C 0.50751 0.69565 0.69142 0.0
C245 C 0.54552 0.71488 0.6779 0.0
C246 C 0.50673 0.75935 0.68677 0.0
C247 C 0.56301 0.75649 0.66889 0.0
C248 C 0.50346 0.82372 0.67769 0.0
C249 C 0.43397 0.78921 0.71501 0.0
N250 N 0.54347 0.77728 0.67345 0.0
N251 N 0.45299 0.76798 0.70971 0.0
H252 H 0.23498 0.81527 0.67142 0.0
H253 H 0.20352 0.58861 0.68143 0.0
H254 H 0.32767 0.78773 0.68703 0.0
H255 H 0.10919 0.61377 0.66707 0.0
H256 H 0.24862 0.66168 0.6876 0.0
H257 H 0.18798 0.74198 0.67237 0.0
C258 C 0.24552 0.7939 0.675 0.0
C259 C 0.28547 0.80785 0.67907 0.0
C260 C 0.21803 0.65129 0.68338 0.0
C261 C 0.23169 0.72385 0.68042 0.0
C262 C 0.19217 0.60946 0.67996 0.0
C263 C 0.15245 0.59492 0.67344 0.0
C264 C 0.20427 0.67905 0.68007 0.0
C265 C 0.13953 0.62353 0.67203 0.0
C266 C 0.21861 0.75204 0.67568 0.0
C267 C 0.29726 0.7786 0.68378 0.0
N268 N 0.16543 0.66426 0.67496 0.0
N269 N 0.27054 0.73811 0.68426 0.0
H270 H 0.23908 0.50783 0.69428 0.0
H271 H 0.43287 0.49974 0.65637 0.0
H272 H 0.24629 0.4291 0.6135 0.0
H273 H 0.42183 0.5716 0.74162 0.0
H274 H 0.36338 0.46915 0.64338 0.0
H275 H 0.30467 0.52754 0.71468 0.0
C276 C 0.25442 0.49454 0.68088 0.0
C277 C 0.23728 0.46704 0.65188 0.0
C278 C 0.37608 0.49128 0.66517 0.0
C279 C 0.31265 0.48964 0.67516 0.0
C280 C 0.41576 0.50874 0.67266 0.0
C281 C 0.43328 0.53858 0.69992 0.0
C282 C 0.3538 0.50393 0.68495 0.0
C283 C 0.40964 0.54889 0.72023 0.0
C284 C 0.2919 0.50576 0.69264 0.0
C285 C 0.25846 0.45056 0.63583 0.0
N286 N 0.3712 0.53189 0.71209 0.0
N287 N 0.29521 0.46238 0.64749 0.0
H288 H 0.94975 0.28518 0.889 0.0
H289 H 0.11157 0.40249 0.73932 0.0
H290 H 0.0668 0.30554 0.89779 0.0
H291 H 1.00012 0.39704 0.74088 0.0
H292 H 0.09314 0.35934 0.79299 0.0
H293 H 0.96467 0.31623 0.82933 0.0
C294 C 0.97846 0.2956 0.87817 0.0
C295 C 0.00728 0.29334 0.89875 0.0
C296 C 0.07272 0.36754 0.78151 0.0
C297 C 0.02467 0.32951 0.83049 0.0
C298 C 0.08323 0.39229 0.75093 0.0
C299 C 0.05744 0.40369 0.73565 0.0
C300 C 0.0361 0.35389 0.79687 0.0
C301 C 0.02108 0.38936 0.75183 0.0
C302 C 0.987 0.31355 0.84413 0.0
C303 C 0.04376 0.30689 0.88303 0.0
N304 N 0.01153 0.36525 0.78156 0.0
N305 N 0.0516 0.32493 0.84999 0.0
H306 H 0.81707 0.79526 0.85681 0.0
H307 H 0.69192 0.69338 0.71157 0.0
H308 H 0.72174 0.80684 0.89851 0.0
H309 H 0.60498 0.66753 0.79251 0.0
H310 H 0.74061 0.74732 0.75069 0.0
H311 H 0.77866 0.76304 0.80225 0.0
C312 C 0.78865 0.79252 0.85385 0.0
C313 C 0.77209 0.80271 0.88254 0.0
C314 C 0.71096 0.72969 0.75994 0.0
C315 C 0.72796 0.7658 0.82057 0.0
C316 C 0.68312 0.69904 0.7376 0.0
C317 C 0.64452 0.67559 0.74913 0.0
C318 C 0.69989 0.73688 0.79389 0.0
C319 C 0.63454 0.68438 0.78285 0.0
C320 C 0.76662 0.77398 0.82268 0.0
C321 C 0.73514 0.79832 0.87748 0.0
N322 N 0.66209 0.71433 0.80403 0.0
N323 N 0.71393 0.77927 0.84749 0.0
H324 H 0.35856 0.00324 0.73536 0.0
H325 H 0.24891 0.95841 0.92348 0.0
H326 H 0.3448 0.90662 0.807 0.0
H327 H 0.32028 0.08089 0.88295 0.0
H328 H 0.26449 0.9315 0.8699 0.0
H329 H 0.32612 0.02415 0.77966 0.0
C330 C 0.34828 0.98612 0.76023 0.0
C331 C 0.3547 0.95343 0.76782 0.0
C332 C 0.27602 0.96418 0.87251 0.0
C333 C 0.31708 0.9767 0.81794 0.0
C334 C 0.26692 0.97962 0.90285 0.0
C335 C 0.28379 0.02207 0.90791 0.0
C336 C 0.30152 0.99132 0.8468 0.0
C337 C 0.30704 0.04801 0.8803 0.0
C338 C 0.32986 0.99811 0.78538 0.0
C339 C 0.34081 0.93229 0.80038 0.0
N340 N 0.31551 0.03222 0.85097 0.0
N341 N 0.3226 0.94431 0.82433 0.0
H342 H 0.52881 0.14763 0.18825 0.0
H343 H 0.30482 0.04602 0.14594 0.0
H344 H 0.44491 0.02322 0.21576 0.0
H345 H 0.38366 0.1104 0.0589 0.0
H346 H 0.36013 0.05711 0.18352 0.0
H347 H 0.47962 0.14973 0.14823 0.0
C348 C 0.50042 0.12061 0.18539 0.0
C349 C 0.49061 0.08538 0.20579 0.0
C350 C 0.36525 0.06941 0.15637 0.0
C351 C 0.43461 0.08836 0.16181 0.0
C352 C 0.3338 0.06345 0.135 0.0
C353 C 0.33957 0.07656 0.09897 0.0
C354 C 0.40271 0.08908 0.14183 0.0
C355 C 0.37794 0.0993 0.08642 0.0
C356 C 0.47243 0.12204 0.16294 0.0
C357 C 0.45342 0.05131 0.20122 0.0
N358 N 0.40826 0.10448 0.10775 0.0
N359 N 0.42657 0.0539 0.18027 0.0
H360 H 0.94777 0.31575 0.06097 0.0
H361 H 0.00883 0.45414 0.23729 0.0
H362 H 0.03289 0.32161 0.13799 0.0
H363 H 0.90187 0.41946 0.1791 0.0
H364 H 0.01921 0.4076 0.19958 0.0
H365 H 0.93042 0.35364 0.10296 0.0
C366 C 0.96242 0.32436 0.08693 0.0
C367 C 0.992 0.31558 0.09585 0.0
C368 C 0.99332 0.4099 0.19518 0.0
C369 C 0.97277 0.35992 0.14382 0.0
C370 C 0.98733 0.43652 0.21671 0.0
C371 C 0.95411 0.4403 0.21169 0.0
C372 C 0.96623 0.38725 0.16794 0.0
C373 C 0.92786 0.41747 0.18391 0.0
C374 C 0.95251 0.34616 0.1109 0.0
C375 C 0.00992 0.32769 0.12998 0.0
N376 N 0.93453 0.39193 0.16297 0.0
N377 N 1.00039 0.34977 0.15255 0.0
H378 H 0.55684 0.61213 0.18693 0.0
H379 H 0.75334 0.71431 0.07418 0.0
H380 H 0.61936 0.54878 0.16213 0.0
H381 H 0.67163 0.75854 0.0731 0.0
H382 H 0.70957 0.65827 0.11366 0.0
H383 H 0.60212 0.66941 0.14993 0.0
C384 C 0.57978 0.61006 0.17305 0.0
C385 C 0.58427 0.57567 0.17718 0.0
C386 C 0.70149 0.68052 0.10501 0.0
C387 C 0.63688 0.64153 0.13576 0.0
C388 C 0.72668 0.71284 0.08297 0.0
C389 C 0.71599 0.74101 0.07027 0.0
C390 C 0.66568 0.67676 0.11464 0.0
C391 C 0.68089 0.73736 0.08212 0.0
C392 C 0.60576 0.64284 0.15219 0.0
C393 C 0.61463 0.57456 0.15906 0.0
N394 N 0.65692 0.70569 0.1035 0.0
N395 N 0.64015 0.60733 0.13933 0.0
H396 H 0.13338 0.54175 0.52752 0.0
H397 H 0.93707 0.48845 0.42542 0.0
H398 H 0.01939 0.46644 0.5725 0.0
H399 H 0.05132 0.55919 0.38029 0.0
H400 H 0.96681 0.49559 0.48548 0.0
H401 H 0.10432 0.56251 0.47952 0.0
C402 C 0.10225 0.52981 0.52744 0.0
C403 C 0.07866 0.50172 0.55359 0.0
C404 C 0.98535 0.51068 0.46265 0.0
C405 C 0.04511 0.52519 0.49865 0.0
C406 C 0.96833 0.50702 0.42855 0.0
C407 C 0.99198 0.52326 0.39824 0.0
C408 C 0.02612 0.53034 0.46596 0.0
C409 C 0.03229 0.54629 0.40325 0.0
C410 C 0.08566 0.54183 0.50013 0.0
C411 C 0.03859 0.48782 0.55259 0.0
N412 N 0.04817 0.54859 0.43639 0.0
N413 N 0.02297 0.49919 0.5252 0.0
H414 H 0.52545 0.50353 0.3879 0.0
H415 H 0.61173 0.67503 0.54033 0.0
H416 H 0.56946 0.63206 0.36778 0.0
H417 H 0.53487 0.548 0.56603 0.0
H418 H 0.59781 0.65845 0.47638 0.0
H419 H 0.52841 0.5174 0.45308 0.0
C420 C 0.53521 0.53447 0.39709 0.0
C421 C 0.54781 0.56677 0.37236 0.0
C422 C 0.58375 0.63418 0.49598 0.0
C423 C 0.5516 0.58275 0.44645 0.0
C424 C 0.5919 0.64361 0.5325 0.0
C425 C 0.57459 0.61281 0.55849 0.0
C426 C 0.55852 0.59355 0.48524 0.0
C427 C 0.54882 0.57266 0.54679 0.0
C428 C 0.53692 0.54235 0.43423 0.0
C429 C 0.56005 0.60625 0.38577 0.0
N430 N 0.54181 0.56405 0.51088 0.0
N431 N 0.56204 0.61315 0.42185 0.0
H432 H 0.35322 0.94859 0.55541 0.0
H433 H 0.531 0.04962 0.41875 0.0
H434 H 0.46603 0.96452 0.58292 0.0
H435 H 0.41078 0.00408 0.38852 0.0
H436 H 0.50973 0.02147 0.47966 0.0
H437 H 0.3755 0.97116 0.49424 0.0
C438 C 0.38266 0.95659 0.54848 0.0
C439 C 0.40783 0.9548 0.57433 0.0
C440 C 0.48817 0.01758 0.45947 0.0
C441 C 0.43383 0.98122 0.50422 0.0
C442 C 0.50028 0.03378 0.42483 0.0
C443 C 0.47271 0.02937 0.39845 0.0
C444 C 0.44835 0.99727 0.46767 0.0
C445 C 0.43323 0.00837 0.4078 0.0
C446 C 0.3954 0.96948 0.51349 0.0
C447 C 0.44564 0.96535 0.56374 0.0
N448 N 0.42236 0.99335 0.44155 0.0
N449 N 0.45768 0.97854 0.5295 0.0
loop_
_geom_bond_atom_site_label_1
_geom_bond_atom_site_label_2
_geom_bond_distance
_geom_bond_site_symmetry_2
_ccdc_geom_bond_type
Mg0 O1 2.028 1_455 S
Mg0 O7 1.986 1_554 S
Mg0 O9 2.114 . S
Mg0 O10 2.251 1_455 S
Mg0 O13 2.010 . S
O1 Mg0 2.028 1_655 S
O1 C4 1.250 1_554 S
O2 Mg3 2.028 . S
O2 C4 1.248 . S
Mg3 O2 2.028 . S
Mg3 O8 2.032 . S
Mg3 O10 2.079 1_556 S
C4 O1 1.250 1_556 S
C4 O2 1.248 . S
C5 O6 1.264 . S
C5 O13 1.249 . S
O6 C5 1.264 . S
O7 Mg0 1.986 1_556 S
O7 C11 1.246 . S
O8 Mg3 2.032 . S
O8 C11 1.259 1_655 S
O9 Mg0 2.114 . S
O9 C12 1.252 1_455 S
O10 Mg0 2.251 1_655 S
O10 Mg3 2.079 1_554 S
O10 C12 1.273 . S
C11 O7 1.246 . S
C11 O8 1.259 1_455 S
C12 O9 1.252 1_655 S
C12 O10 1.273 . S
O13 Mg0 2.010 . S
O13 C5 1.249 . S
Mg14 O15 2.028 . S
Mg14 O21 1.986 . S
Mg14 O23 2.114 1_554 S
Mg14 O24 2.251 1_554 S
Mg14 O27 2.010 . S
O15 Mg14 2.028 . S
O15 C18 1.250 . S
O16 Mg17 2.028 . S
O16 C18 1.248 . S
Mg17 O16 2.028 . S
Mg17 O22 2.032 . S
Mg17 O24 2.079 1_554 S
C18 O15 1.250 . S
C18 O16 1.248 . S
C19 O20 1.264 . S
C19 O27 1.249 1_556 S
O20 C19 1.264 . S
O21 Mg14 1.986 . S
O21 C25 1.246 . S
O22 Mg17 2.032 . S
O22 C25 1.259 . S
O23 Mg14 2.114 1_556 S
O23 C26 1.252 . S
O24 Mg14 2.251 1_556 S
O24 Mg17 2.079 1_556 S
O24 C26 1.273 . S
C25 O21 1.246 . S
C25 O22 1.259 . S
C26 O23 1.252 . S
C26 O24 1.273 . S
O27 Mg14 2.010 . S
O27 C19 1.249 1_554 S
Mg28 O29 2.028 1_565 S
Mg28 O35 1.986 1_554 S
Mg28 O37 2.114 1_565 S
Mg28 O38 2.251 1_565 S
Mg28 O41 2.010 . S
O29 Mg28 2.028 1_545 S
O29 C32 1.250 1_554 S
O30 Mg31 2.028 . S
O30 C32 1.248 . S
Mg31 O30 2.028 . S
Mg31 O36 2.032 . S
Mg31 O38 2.079 1_556 S
C32 O29 1.250 1_556 S
C32 O30 1.248 . S
C33 O34 1.264 . S
C33 O41 1.249 . S
O34 C33 1.264 . S
O35 Mg28 1.986 1_556 S
O35 C39 1.246 1_565 S
O36 Mg31 2.032 . S
O36 C39 1.259 . S
O37 Mg28 2.114 1_545 S
O37 C40 1.252 . S
O38 Mg28 2.251 1_545 S
O38 Mg31 2.079 1_554 S
O38 C40 1.273 . S
C39 O35 1.246 1_545 S
C39 O36 1.259 . S
C40 O37 1.252 . S
C40 O38 1.273 . S
O41 Mg28 2.010 . S
O41 C33 1.249 . S
Mg42 O43 2.028 . S
Mg42 O49 1.986 . S
Mg42 O51 2.114 . S
Mg42 O52 2.251 . S
Mg42 O55 2.010 . S
O43 Mg42 2.028 . S
O43 C46 1.250 . S
O44 Mg45 2.028 . S
O44 C46 1.248 . S
Mg45 O44 2.028 . S
Mg45 O50 2.032 . S
Mg45 O52 2.079 . S
C46 O43 1.250 . S
C46 O44 1.248 . S
C47 O48 1.264 . S
C47 O55 1.249 . S
O48 C47 1.264 . S
O49 Mg42 1.986 . S
O49 C53 1.246 . S
O50 Mg45 2.032 . S
O50 C53 1.259 . S
O51 Mg42 2.114 . S
O51 C54 1.252 . S
O52 Mg42 2.251 . S
O52 Mg45 2.079 . S
O52 C54 1.273 . S
C53 O49 1.246 . S
C53 O50 1.259 . S
C54 O51 1.252 . S
C54 O52 1.273 . S
O55 Mg42 2.010 . S
O55 C47 1.249 . S
Mg56 O57 2.028 . S
Mg56 O63 1.986 . S
Mg56 O65 2.114 . S
Mg56 O66 2.251 . S
Mg56 O69 2.010 . S
O57 Mg56 2.028 . S
O57 C60 1.250 . S
O58 Mg59 2.028 . S
O58 C60 1.248 . S
Mg59 O58 2.028 . S
Mg59 O64 2.032 . S
Mg59 O66 2.079 . S
C60 O57 1.250 . S
C60 O58 1.248 . S
C61 O62 1.264 . S
C61 O69 1.249 . S
O62 C61 1.264 . S
O63 Mg56 1.986 . S
O63 C67 1.246 . S
O64 Mg59 2.032 . S
O64 C67 1.259 . S
O65 Mg56 2.114 . S
O65 C68 1.252 . S
O66 Mg56 2.251 . S
O66 Mg59 2.079 . S
O66 C68 1.273 . S
C67 O63 1.246 . S
C67 O64 1.259 . S
C68 O65 1.252 . S
C68 O66 1.273 . S
O69 Mg56 2.010 . S
O69 C61 1.249 . S
Mg70 O71 2.028 . S
Mg70 O77 1.986 . S
Mg70 O79 2.114 . S
Mg70 O80 2.251 . S
Mg70 O83 2.010 . S
O71 Mg70 2.028 . S
O71 C74 1.250 . S
O72 Mg73 2.028 . S
O72 C74 1.248 . S
Mg73 O72 2.028 . S
Mg73 O78 2.032 . S
Mg73 O80 2.079 . S
C74 O71 1.250 . S
C74 O72 1.248 . S
C75 O76 1.264 . S
C75 O83 1.249 . S
O76 C75 1.264 . S
O77 Mg70 1.986 . S
O77 C81 1.246 . S
O78 Mg73 2.032 . S
O78 C81 1.259 . S
O79 Mg70 2.114 . S
O79 C82 1.252 . S
O80 Mg70 2.251 . S
O80 Mg73 2.079 . S
O80 C82 1.273 . S
C81 O77 1.246 . S
C81 O78 1.259 . S
C82 O79 1.252 . S
C82 O80 1.273 . S
O83 Mg70 2.010 . S
O83 C75 1.249 . S
Mg84 O85 2.028 . S
Mg84 O91 1.986 . S
Mg84 O93 2.114 . S
Mg84 O94 2.251 . S
Mg84 O97 2.010 . S
O85 Mg84 2.028 . S
O85 C88 1.250 . S
O86 Mg87 2.028 . S
O86 C88 1.248 . S
Mg87 O86 2.028 . S
Mg87 O92 2.032 . S
Mg87 O94 2.079 . S
C88 O85 1.250 . S
C88 O86 1.248 . S
C89 O90 1.264 . S
C89 O97 1.249 . S
O90 C89 1.264 . S
O91 Mg84 1.986 . S
O91 C95 1.246 . S
O92 Mg87 2.032 . S
O92 C95 1.259 . S
O93 Mg84 2.114 . S
O93 C96 1.252 . S
O94 Mg84 2.251 . S
O94 Mg87 2.079 . S
O94 C96 1.273 . S
C95 O91 1.246 . S
C95 O92 1.259 . S
C96 O93 1.252 . S
C96 O94 1.273 . S
O97 Mg84 2.010 . S
O97 C89 1.249 . S
Mg98 O99 2.028 . S
Mg98 O105 1.986 . S
Mg98 O107 2.114 . S
Mg98 O108 2.251 . S
Mg98 O111 2.010 . S
O99 Mg98 2.028 . S
O99 C102 1.250 . S
O100 Mg101 2.028 . S
O100 C102 1.248 . S
Mg101 O100 2.028 . S
Mg101 O106 2.032 . S
Mg101 O108 2.079 . S
C102 O99 1.250 . S
C102 O100 1.248 . S
C103 O104 1.264 . S
C103 O111 1.249 . S
O104 C103 1.264 . S
O105 Mg98 1.986 . S
O105 C109 1.246 . S
O106 Mg101 2.032 . S
O106 C109 1.259 . S
O107 Mg98 2.114 . S
O107 C110 1.252 . S
O108 Mg98 2.251 . S
O108 Mg101 2.079 . S
O108 C110 1.273 . S
C109 O105 1.246 . S
C109 O106 1.259 . S
C110 O107 1.252 . S
C110 O108 1.273 . S
O111 Mg98 2.010 . S
O111 C103 1.249 . S
Mg112 O113 2.028 . S
Mg112 O119 1.986 . S
Mg112 O121 2.114 . S
Mg112 O122 2.251 . S
Mg112 O125 2.010 . S
O113 Mg112 2.028 . S
O113 C116 1.250 . S
O114 Mg115 2.028 . S
O114 C116 1.248 . S
Mg115 O114 2.028 . S
Mg115 O120 2.032 . S
Mg115 O122 2.079 . S
C116 O113 1.250 . S
C116 O114 1.248 . S
C117 O118 1.264 . S
C117 O125 1.249 . S
O118 C117 1.264 . S
O119 Mg112 1.986 . S
O119 C123 1.246 . S
O120 Mg115 2.032 . S
O120 C123 1.259 . S
O121 Mg112 2.114 . S
O121 C124 1.252 . S
O122 Mg112 2.251 . S
O122 Mg115 2.079 . S
O122 C124 1.273 . S
C123 O119 1.246 . S
C123 O120 1.259 . S
C124 O121 1.252 . S
C124 O122 1.273 . S
O125 Mg112 2.010 . S
O125 C117 1.249 . S
H126 C132 0.930 . S
H127 C136 0.930 . S
H128 C141 0.929 . S
H129 C139 0.929 . S
H130 C134 0.929 . S
H131 C140 0.929 . S
C132 H126 0.930 . S
C132 C133 1.367 1_554 S
C132 C140 1.378 . S
C133 C132 1.367 1_556 S
C133 C141 1.433 . S
C134 H130 0.929 . S
C134 C136 1.378 . S
C134 C138 1.350 1_556 S
C135 C138 1.463 . S
C135 C140 1.350 . S
C135 N143 1.427 1_554 S
C136 H127 0.930 . S
C136 C134 1.378 . S
C136 C137 1.367 1_556 S
C137 C136 1.367 1_554 S
C137 C139 1.433 . S
C138 C134 1.350 1_554 S
C138 C135 1.463 . S
C138 N142 1.427 . S
C139 H129 0.929 . S
C139 C137 1.433 . S
C139 N142 1.384 . S
C140 H131 0.929 . S
C140 C132 1.378 . S
C140 C135 1.350 . S
C141 H128 0.929 . S
C141 C133 1.433 . S
C141 N143 1.384 . S
N142 C138 1.427 . S
N142 C139 1.384 . S
N143 C135 1.427 1_556 S
N143 C141 1.384 . S
H144 C150 0.930 . S
H145 C154 0.930 . S
H146 C159 0.929 . S
H147 C157 0.929 . S
H148 C152 0.929 . S
H149 C158 0.914 1_546 S
C150 H144 0.930 . S
C150 C151 1.367 . S
C150 C158 1.378 . S
C151 C150 1.367 . S
C151 C159 1.433 . S
C152 H148 0.929 . S
C152 C154 1.378 . S
C152 C156 1.350 . S
C153 C156 1.463 . S
C153 C158 1.350 1_545 S
C153 N161 1.427 1_545 S
C154 H145 0.930 . S
C154 C152 1.378 . S
C154 C155 1.367 1_554 S
C155 C154 1.367 1_556 S
C155 C157 1.433 . S
C156 C152 1.350 . S
C156 C153 1.463 . S
C156 N160 1.427 1_554 S
C157 H147 0.929 . S
C157 C155 1.433 . S
C157 N160 1.384 . S
C158 H149 0.914 1_564 S
C158 C150 1.378 . S
C158 C153 1.350 1_565 S
C159 H146 0.929 . S
C159 C151 1.433 . S
C159 N161 1.384 . S
N160 C156 1.427 1_556 S
N160 C157 1.384 . S
N161 C153 1.427 1_565 S
N161 C159 1.384 . S
H162 C168 0.930 . S
H163 C172 0.930 . S
H164 C177 0.929 . S
H165 C175 0.929 . S
H166 C170 0.929 . S
H167 C176 0.929 . S
C168 H162 0.930 . S
C168 C169 1.367 . S
C168 C176 1.378 . S
C169 C168 1.367 . S
C169 C177 1.433 1_556 S
C170 H166 0.929 . S
C170 C172 1.378 . S
C170 C174 1.350 . S
C171 C174 1.463 1_655 S
C171 C176 1.350 1_554 S
C171 N179 1.427 . S
C172 H163 0.930 . S
C172 C170 1.378 . S
C172 C173 1.367 . S
C173 C172 1.367 . S
C173 C175 1.433 1_554 S
C174 C170 1.350 . S
C174 C171 1.463 1_455 S
C174 N178 1.427 1_554 S
C175 H165 0.929 . S
C175 C173 1.433 1_556 S
C175 N178 1.384 . S
C176 H167 0.929 . S
C176 C168 1.378 . S
C176 C171 1.350 1_556 S
C177 H164 0.929 . S
C177 C169 1.433 1_554 S
C177 N179 1.384 . S
N178 C174 1.427 1_556 S
N178 C175 1.384 . S
N179 C171 1.427 . S
N179 C177 1.384 . S
H180 C186 0.930 . S
H181 C190 0.930 . S
H182 C195 0.929 . S
H183 C193 0.929 . S
H184 C188 0.929 . S
H185 C194 0.929 . S
C186 H180 0.930 . S
C186 C187 1.367 . S
C186 C194 1.378 . S
C187 C186 1.367 . S
C187 C195 1.433 . S
C188 H184 0.929 . S
C188 C190 1.378 . S
C188 C192 1.350 . S
C189 C192 1.463 . S
C189 C194 1.350 . S
C189 N197 1.427 . S
C190 H181 0.930 . S
C190 C188 1.378 . S
C190 C191 1.367 . S
C191 C190 1.367 . S
C191 C193 1.433 . S
C192 C188 1.350 . S
C192 C189 1.463 . S
C192 N196 1.427 . S
C193 H183 0.929 . S
C193 C191 1.433 . S
C193 N196 1.384 . S
C194 H185 0.929 . S
C194 C186 1.378 . S
C194 C189 1.350 . S
C195 H182 0.929 . S
C195 C187 1.433 . S
C195 N197 1.384 . S
N196 C192 1.427 . S
N196 C193 1.384 . S
N197 C189 1.427 . S
N197 C195 1.384 . S
H198 C204 0.930 . S
H199 C208 0.930 . S
H200 C213 0.929 . S
H201 C211 0.929 . S
H202 C206 0.929 . S
H203 C212 0.929 . S
C204 H198 0.930 . S
C204 C205 1.367 . S
C204 C212 1.378 . S
C205 C204 1.367 . S
C205 C213 1.433 . S
C206 H202 0.929 . S
C206 C208 1.378 . S
C206 C210 1.350 . S
C207 C210 1.463 . S
C207 C212 1.350 . S
C207 N215 1.427 . S
C208 H199 0.930 . S
C208 C206 1.378 . S
C208 C209 1.367 . S
C209 C208 1.367 . S
C209 C211 1.433 . S
C210 C206 1.350 . S
C210 C207 1.463 . S
C210 N214 1.427 . S
C211 H201 0.929 . S
C211 C209 1.433 . S
C211 N214 1.384 . S
C212 H203 0.929 . S
C212 C204 1.378 . S
C212 C207 1.350 . S
C213 H200 0.929 . S
C213 C205 1.433 . S
C213 N215 1.384 . S
N214 C210 1.427 . S
N214 C211 1.384 . S
N215 C207 1.427 . S
N215 C213 1.384 . S
H216 C222 0.930 . S
H217 C226 0.930 . S
H218 C231 0.929 . S
H219 C229 0.929 . S
H220 C224 0.929 . S
H221 C230 0.929 . S
C222 H216 0.930 . S
C222 C223 1.367 . S
C222 C230 1.378 . S
C223 C222 1.367 . S
C223 C231 1.433 . S
C224 H220 0.929 . S
C224 C226 1.378 . S
C224 C228 1.350 . S
C225 C228 1.463 . S
C225 C230 1.350 . S
C225 N233 1.427 . S
C226 H217 0.930 . S
C226 C224 1.378 . S
C226 C227 1.367 . S
C227 C226 1.367 . S
C227 C229 1.433 . S
C228 C224 1.350 . S
C228 C225 1.463 . S
C228 N232 1.427 . S
C229 H219 0.929 . S
C229 C227 1.433 . S
C229 N232 1.384 . S
C230 H221 0.929 . S
C230 C222 1.378 . S
C230 C225 1.350 . S
C231 H218 0.929 . S
C231 C223 1.433 . S
C231 N233 1.384 . S
N232 C228 1.427 . S
N232 C229 1.384 . S
N233 C225 1.427 . S
N233 C231 1.384 . S
H234 C240 0.930 . S
H235 C244 0.930 . S
H236 C249 0.929 . S
H237 C247 0.929 . S
H238 C242 0.929 . S
H239 C248 0.929 . S
C240 H234 0.930 . S
C240 C241 1.367 . S
C240 C248 1.378 . S
C241 C240 1.367 . S
C241 C249 1.433 . S
C242 H238 0.929 . S
C242 C244 1.378 . S
C242 C246 1.350 . S
C243 C246 1.463 . S
C243 C248 1.350 . S
C243 N251 1.427 . S
C244 H235 0.930 . S
C244 C242 1.378 . S
C244 C245 1.367 . S
C245 C244 1.367 . S
C245 C247 1.433 . S
C246 C242 1.350 . S
C246 C243 1.463 . S
C246 N250 1.427 . S
C247 H237 0.929 . S
C247 C245 1.433 . S
C247 N250 1.384 . S
C248 H239 0.929 . S
C248 C240 1.378 . S
C248 C243 1.350 . S
C249 H236 0.929 . S
C249 C241 1.433 . S
C249 N251 1.384 . S
N250 C246 1.427 . S
N250 C247 1.384 . S
N251 C243 1.427 . S
N251 C249 1.384 . S
H252 C258 0.930 . S
H253 C262 0.930 . S
H254 C267 0.929 . S
H255 C265 0.929 . S
H256 C260 0.929 . S
H257 C266 0.929 . S
C258 H252 0.930 . S
C258 C259 1.367 . S
C258 C266 1.378 . S
C259 C258 1.367 . S
C259 C267 1.433 . S
C260 H256 0.929 . S
C260 C262 1.378 . S
C260 C264 1.350 . S
C261 C264 1.463 . S
C261 C266 1.350 . S
C261 N269 1.427 . S
C262 H253 0.930 . S
C262 C260 1.378 . S
C262 C263 1.367 . S
C263 C262 1.367 . S
C263 C265 1.433 . S
C264 C260 1.350 . S
C264 C261 1.463 . S
C264 N268 1.427 . S
C265 H255 0.929 . S
C265 C263 1.433 . S
C265 N268 1.384 . S
C266 H257 0.929 . S
C266 C258 1.378 . S
C266 C261 1.350 . S
C267 H254 0.929 . S
C267 C259 1.433 . S
C267 N269 1.384 . S
N268 C264 1.427 . S
N268 C265 1.384 . S
N269 C261 1.427 . S
N269 C267 1.384 . S
H270 C276 0.930 . S
H271 C280 0.930 . S
H272 C285 0.929 . S
H273 C283 0.929 . S
H274 C278 0.929 . S
H275 C284 0.929 . S
C276 H270 0.930 . S
C276 C277 1.367 . S
C276 C284 1.378 . S
C277 C276 1.367 . S
C277 C285 1.433 . S
C278 H274 0.929 . S
C278 C280 1.378 . S
C278 C282 1.350 . S
C279 C282 1.463 . S
C279 C284 1.350 . S
C279 N287 1.427 . S
C280 H271 0.930 . S
C280 C278 1.378 . S
C280 C281 1.367 . S
C281 C280 1.367 . S
C281 C283 1.433 . S
C282 C278 1.350 . S
C282 C279 1.463 . S
C282 N286 1.427 . S
C283 H273 0.929 . S
C283 C281 1.433 . S
C283 N286 1.384 . S
C284 H275 0.929 . S
C284 C276 1.378 . S
C284 C279 1.350 . S
C285 H272 0.929 . S
C285 C277 1.433 . S
C285 N287 1.384 . S
N286 C282 1.427 . S
N286 C283 1.384 . S
N287 C279 1.427 . S
N287 C285 1.384 . S
H288 C294 0.930 1_655 S
H289 C298 0.930 . S
H290 C303 0.929 . S
H291 C301 0.929 . S
H292 C296 0.929 . S
H293 C302 0.929 . S
C294 H288 0.930 1_455 S
C294 C295 1.367 . S
C294 C302 1.378 . S
C295 C294 1.367 . S
C295 C303 1.433 . S
C296 H292 0.929 . S
C296 C298 1.378 . S
C296 C300 1.350 . S
C297 C300 1.463 . S
C297 C302 1.350 . S
C297 N305 1.427 . S
C298 H289 0.930 . S
C298 C296 1.378 . S
C298 C299 1.367 . S
C299 C298 1.367 . S
C299 C301 1.433 . S
C300 C296 1.350 . S
C300 C297 1.463 . S
C300 N304 1.427 . S
C301 H291 0.929 . S
C301 C299 1.433 . S
C301 N304 1.384 . S
C302 H293 0.929 . S
C302 C294 1.378 . S
C302 C297 1.350 . S
C303 H290 0.929 . S
C303 C295 1.433 . S
C303 N305 1.384 . S
N304 C300 1.427 . S
N304 C301 1.384 . S
N305 C297 1.427 . S
N305 C303 1.384 . S
H306 C312 0.930 . S
H307 C316 0.930 . S
H308 C321 0.929 . S
H309 C319 0.929 . S
H310 C314 0.929 . S
H311 C320 0.929 . S
C312 H306 0.930 . S
C312 C313 1.367 . S
C312 C320 1.378 . S
C313 C312 1.367 . S
C313 C321 1.433 . S
C314 H310 0.929 . S
C314 C316 1.378 . S
C314 C318 1.350 . S
C315 C318 1.463 . S
C315 C320 1.350 . S
C315 N323 1.427 . S
C316 H307 0.930 . S
C316 C314 1.378 . S
C316 C317 1.367 . S
C317 C316 1.367 . S
C317 C319 1.433 . S
C318 C314 1.350 . S
C318 C315 1.463 . S
C318 N322 1.427 . S
C319 H309 0.929 . S
C319 C317 1.433 . S
C319 N322 1.384 . S
C320 H311 0.929 . S
C320 C312 1.378 . S
C320 C315 1.350 . S
C321 H308 0.929 . S
C321 C313 1.433 . S
C321 N323 1.384 . S
N322 C318 1.427 . S
N322 C319 1.384 . S
N323 C315 1.427 . S
N323 C321 1.384 . S
H324 C330 0.930 . S
H325 C334 0.930 . S
H326 C339 0.929 . S
H327 C337 0.929 . S
H328 C332 0.929 . S
H329 C338 0.929 1_545 S
C330 H324 0.930 . S
C330 C331 1.367 . S
C330 C338 1.378 . S
C331 C330 1.367 . S
C331 C339 1.433 . S
C332 H328 0.929 . S
C332 C334 1.378 . S
C332 C336 1.350 . S
C333 C336 1.463 . S
C333 C338 1.350 . S
C333 N341 1.427 . S
C334 H325 0.930 . S
C334 C332 1.378 . S
C334 C335 1.367 . S
C335 C334 1.367 . S
C335 C337 1.433 1_565 S
C336 C332 1.350 . S
C336 C333 1.463 . S
C336 N340 1.427 1_565 S
C337 H327 0.929 . S
C337 C335 1.433 1_545 S
C337 N340 1.384 . S
C338 H329 0.929 1_565 S
C338 C330 1.378 . S
C338 C333 1.350 . S
C339 H326 0.929 . S
C339 C331 1.433 . S
C339 N341 1.384 . S
N340 C336 1.427 1_545 S
N340 C337 1.384 . S
N341 C333 1.427 . S
N341 C339 1.384 . S
H342 C348 0.930 . S
H343 C352 0.930 1_565 S
H344 C357 0.929 . S
H345 C355 0.929 . S
H346 C350 0.929 . S
H347 C356 0.929 . S
C348 H342 0.930 . S
C348 C349 1.367 . S
C348 C356 1.378 . S
C349 C348 1.367 . S
C349 C357 1.433 . S
C350 H346 0.929 . S
C350 C352 1.378 . S
C350 C354 1.350 . S
C351 C354 1.463 . S
C351 C356 1.350 . S
C351 N359 1.427 . S
C352 H343 0.930 1_545 S
C352 C350 1.378 . S
C352 C353 1.367 . S
C353 C352 1.367 . S
C353 C355 1.433 . S
C354 C350 1.350 . S
C354 C351 1.463 . S
C354 N358 1.427 . S
C355 H345 0.929 . S
C355 C353 1.433 . S
C355 N358 1.384 . S
C356 H347 0.929 . S
C356 C348 1.378 . S
C356 C351 1.350 . S
C357 H344 0.929 . S
C357 C349 1.433 . S
C357 N359 1.384 . S
N358 C354 1.427 . S
N358 C355 1.384 . S
N359 C351 1.427 . S
N359 C357 1.384 . S
H360 C366 0.930 . S
H361 C370 0.930 . S
H362 C375 0.929 . S
H363 C373 0.929 . S
H364 C368 0.929 . S
H365 C374 0.929 . S
C366 H360 0.930 . S
C366 C367 1.367 . S
C366 C374 1.378 . S
C367 C366 1.367 . S
C367 C375 1.433 1_655 S
C368 H364 0.929 . S
C368 C370 1.378 . S
C368 C372 1.350 . S
C369 C372 1.463 . S
C369 C374 1.350 . S
C369 N377 1.450 . S
C370 H361 0.930 . S
C370 C368 1.378 . S
C370 C371 1.367 . S
C371 C370 1.367 . S
C371 C373 1.433 . S
C372 C368 1.350 . S
C372 C369 1.463 . S
C372 N376 1.427 . S
C373 H363 0.929 . S
C373 C371 1.433 . S
C373 N376 1.384 . S
C374 H365 0.929 . S
C374 C366 1.378 . S
C374 C369 1.350 . S
C375 H362 0.929 . S
C375 C367 1.433 1_455 S
C375 N377 1.365 1_455 S
N376 C372 1.427 . S
N376 C373 1.384 . S
N377 C369 1.450 . S
N377 C375 1.365 1_655 S
H378 C384 0.930 . S
H379 C388 0.930 . S
H380 C393 0.929 . S
H381 C391 0.929 . S
H382 C386 0.929 . S
H383 C392 0.929 . S
C384 H378 0.930 . S
C384 C385 1.367 . S
C384 C392 1.378 . S
C385 C384 1.367 . S
C385 C393 1.433 . S
C386 H382 0.929 . S
C386 C388 1.378 . S
C386 C390 1.350 . S
C387 C390 1.463 . S
C387 C392 1.350 . S
C387 N395 1.427 . S
C388 H379 0.930 . S
C388 C386 1.378 . S
C388 C389 1.367 . S
C389 C388 1.367 . S
C389 C391 1.433 . S
C390 C386 1.350 . S
C390 C387 1.463 . S
C390 N394 1.427 . S
C391 H381 0.929 . S
C391 C389 1.433 . S
C391 N394 1.384 . S
C392 H383 0.929 . S
C392 C384 1.378 . S
C392 C387 1.350 . S
C393 H380 0.929 . S
C393 C385 1.433 . S
C393 N395 1.384 . S
N394 C390 1.427 . S
N394 C391 1.384 . S
N395 C387 1.427 . S
N395 C393 1.384 . S
H396 C402 0.930 . S
H397 C406 0.930 . S
H398 C411 0.929 . S
H399 C409 0.929 1_455 S
H400 C404 0.929 . S
H401 C410 0.929 . S
C402 H396 0.930 . S
C402 C403 1.367 . S
C402 C410 1.378 . S
C403 C402 1.367 . S
C403 C411 1.433 . S
C404 H400 0.929 . S
C404 C406 1.378 . S
C404 C408 1.350 . S
C405 C408 1.463 1_455 S
C405 C410 1.350 . S
C405 N413 1.427 . S
C406 H397 0.930 . S
C406 C404 1.378 . S
C406 C407 1.367 . S
C407 C406 1.367 . S
C407 C409 1.433 . S
C408 C404 1.350 . S
C408 C405 1.463 1_655 S
C408 N412 1.427 1_655 S
C409 H399 0.929 1_655 S
C409 C407 1.433 . S
C409 N412 1.384 1_655 S
C410 H401 0.929 . S
C410 C402 1.378 . S
C410 C405 1.350 . S
C411 H398 0.929 . S
C411 C403 1.433 . S
C411 N413 1.384 . S
N412 C408 1.427 1_455 S
N412 C409 1.384 1_455 S
N413 C405 1.427 . S
N413 C411 1.384 . S
H414 C420 0.930 . S
H415 C424 0.930 . S
H416 C429 0.929 . S
H417 C427 0.929 . S
H418 C422 0.929 . S
H419 C428 0.929 . S
C420 H414 0.930 . S
C420 C421 1.367 . S
C420 C428 1.378 . S
C421 C420 1.367 . S
C421 C429 1.433 . S
C422 H418 0.929 . S
C422 C424 1.378 . S
C422 C426 1.350 . S
C423 C426 1.463 . S
C423 C428 1.350 . S
C423 N431 1.427 . S
C424 H415 0.930 . S
C424 C422 1.378 . S
C424 C425 1.367 . S
C425 C424 1.367 . S
C425 C427 1.433 . S
C426 C422 1.350 . S
C426 C423 1.463 . S
C426 N430 1.427 . S
C427 H417 0.929 . S
C427 C425 1.433 . S
C427 N430 1.384 . S
C428 H419 0.929 . S
C428 C420 1.378 . S
C428 C423 1.350 . S
C429 H416 0.929 . S
C429 C421 1.433 . S
C429 N431 1.384 . S
N430 C426 1.427 . S
N430 C427 1.384 . S
N431 C423 1.427 . S
N431 C429 1.384 . S
H432 C438 0.930 . S
H433 C442 0.930 . S
H434 C447 0.929 . S
H435 C445 0.929 . S
H436 C440 0.929 . S
H437 C446 0.929 . S
C438 H432 0.930 . S
C438 C439 1.367 . S
C438 C446 1.378 . S
C439 C438 1.367 . S
C439 C447 1.433 . S
C440 H436 0.929 . S
C440 C442 1.378 . S
C440 C444 1.350 . S
C441 C444 1.463 . S
C441 C446 1.350 1_545 S
C441 N449 1.427 . S
C442 H433 0.930 . S
C442 C440 1.378 . S
C442 C443 1.367 . S
C443 C442 1.367 . S
C443 C445 1.433 . S
C444 C440 1.350 . S
C444 C441 1.463 . S
C444 N448 1.427 . S
C445 H435 0.929 . S
C445 C443 1.433 . S
C445 N448 1.384 . S
C446 H437 0.929 . S
C446 C438 1.378 . S
C446 C441 1.350 1_565 S
C447 H434 0.929 . S
C447 C439 1.433 . S
C447 N449 1.384 1_565 S
N448 C444 1.427 . S
N448 C445 1.384 . S
N449 C441 1.427 . S
N449 C447 1.384 1_545 S
C133 C32 1.079 . S
C137 C5 1.013 . S
C151 C18 1.085 . S
C155 C4 1.086 . S
C169 C19 0.844 . S
C173 C33 0.828 . S
C187 C75 0.982 . S
C191 C46 1.009 . S
C205 C60 0.958 . S
C209 C47 0.912 . S
C223 C61 1.033 . S
C227 C74 1.068 . S
C241 C89 0.863 . S
C245 C116 0.897 . S
C259 C88 1.146 . S
C263 C102 1.146 . S
C277 C103 0.863 . S
C281 C117 0.880 . S
C295 C11 1.342 . S
C299 C109 1.350 . S
C313 C26 1.296 . S
C317 C124 1.292 . S
C331 C96 1.309 . S
C335 C39 1.304 1_565 S
C349 C68 1.306 . S
C353 C40 1.312 . S
C367 C12 1.430 . S
C371 C82 1.430 . S
C385 C54 1.316 . S
C389 C25 1.311 . S
C403 C110 1.330 . S
C407 C81 1.324 . S
C421 C53 1.214 . S
C425 C123 1.216 . S
C439 C95 1.329 . S
C443 C67 1.325 . S
