# Generated by pormake.
# Topology unj, (4)-cn, num edge types: 1
# Building blocks:
#     Node 0, Type 0, BuildingBlock: CEKHIL_clean_sbu_0, # of connection points: 4
#     Node 1, Type 0, BuildingBlock: CEKHIL_clean_sbu_0, # of connection points: 4
#     Node 2, Type 0, BuildingBlock: CEKHIL_clean_sbu_0, # of connection points: 4
#     Node 3, Type 0, BuildingBlock: CEKHIL_clean_sbu_0, # of connection points: 4
#     Node 4, Type 0, BuildingBlock: CEKHIL_clean_sbu_0, # of connection points: 4
#     Node 5, Type 0, BuildingBlock: CEKHIL_clean_sbu_0, # of connection points: 4
#     Edge 6, Type (0, 0), BuildingBlock: UVAHIK_clean_linker_0, # of connection points: 2
#     Edge 7, Type (0, 0), BuildingBlock: UVAHIK_clean_linker_0, # of connection points: 2
#     Edge 8, Type (0, 0), BuildingBlock: UVAHIK_clean_linker_0, # of connection points: 2
#     Edge 9, Type (0, 0), BuildingBlock: UVAHIK_clean_linker_0, # of connection points: 2
#     Edge 10, Type (0, 0), BuildingBlock: UVAHIK_clean_linker_0, # of connection points: 2
#     Edge 11, Type (0, 0), BuildingBlock: UVAHIK_clean_linker_0, # of connection points: 2
#     Edge 12, Type (0, 0), BuildingBlock: UVAHIK_clean_linker_0, # of connection points: 2
#     Edge 13, Type (0, 0), BuildingBlock: UVAHIK_clean_linker_0, # of connection points: 2
#     Edge 14, Type (0, 0), BuildingBlock: UVAHIK_clean_linker_0, # of connection points: 2
#     Edge 15, Type (0, 0), BuildingBlock: UVAHIK_clean_linker_0, # of connection points: 2
#     Edge 16, Type (0, 0), BuildingBlock: UVAHIK_clean_linker_0, # of connection points: 2
#     Edge 17, Type (0, 0), BuildingBlock: UVAHIK_clean_linker_0, # of connection points: 2
# Relax obj value: 0.029
# Max RMSD: 0.081
# Mean RMSD: 0.081
data_MOF--net-unj--node1-CEKHIL_clean_sbu_0--edge1-UVAHIK_clean_linker_0
_symmetry_space_group_name_H-M    P1
_symmetry_Int_Tables_number       1
_symmetry_cell_setting            triclinic
loop_
_symmetry_equiv_pos_as_xyz
'x, y, z'
_cell_length_a     42.018828
_cell_length_b     42.050159
_cell_length_c     47.213263
_cell_angle_alpha  89.95525
_cell_angle_beta   90.069487
_cell_angle_gamma 119.8852
loop_
_atom_site_label
_atom_site_type_symbol
_atom_site_fract_x
_atom_site_fract_y
_atom_site_fract_z
_atom_type_partial_charge
Co0 Co 0.49879 0.25679 0.58296 0.0
O1 O 0.50528 0.29984 0.60242 0.0
O2 O 0.45407 0.24613 0.60269 0.0
C3 C 0.52428 0.2867 0.54204 0.0
O4 O 0.48064 0.20658 0.56437 0.0
Co5 Co 0.56452 0.25066 0.55959 0.0
O6 O 0.52648 0.20646 0.54004 0.0
C7 C 0.54745 0.24052 0.62093 0.0
C8 C 0.47128 0.28044 0.61027 0.0
C9 C 0.49287 0.19118 0.54733 0.0
O10 O 0.51805 0.24242 0.6171 0.0
O11 O 0.57013 0.24513 0.60111 0.0
O12 O 0.49001 0.27551 0.54758 0.0
O13 O 0.54227 0.2812 0.56176 0.0
Co14 Co 0.25027 0.49613 0.74846 0.0
O15 O 0.2132 0.50215 0.76769 0.0
O16 O 0.21611 0.45107 0.76762 0.0
C17 C 0.2467 0.52255 0.70772 0.0
O18 O 0.28266 0.47822 0.73011 0.0
Co19 Co 0.32244 0.56184 0.72596 0.0
O20 O 0.3291 0.52408 0.70633 0.0
C21 C 0.31428 0.54412 0.78722 0.0
C22 C 0.19881 0.46808 0.77533 0.0
C23 C 0.31053 0.49043 0.71336 0.0
O24 O 0.28315 0.51478 0.78303 0.0
O25 O 0.33267 0.56697 0.7676 0.0
O26 O 0.22364 0.48815 0.71269 0.0
O27 O 0.26969 0.54001 0.72778 0.0
Co28 Co 0.76381 0.24529 0.91561 0.0
O29 O 0.721 0.20911 0.93554 0.0
O30 O 0.7745 0.21096 0.93498 0.0
C31 C 0.7329 0.24119 0.87522 0.0
O32 O 0.81377 0.27678 0.89658 0.0
Co33 Co 0.77049 0.31726 0.89191 0.0
O34 O 0.81442 0.32293 0.87213 0.0
C35 C 0.78242 0.31093 0.95315 0.0
C36 C 0.74036 0.19424 0.94303 0.0
C37 C 0.82939 0.30428 0.87948 0.0
O38 O 0.77928 0.27907 0.94966 0.0
O39 O 0.77797 0.32906 0.93326 0.0
O40 O 0.74409 0.21795 0.88026 0.0
O41 O 0.73928 0.26478 0.89497 0.0
Co42 Co 0.52462 0.75825 0.08267 0.0
O43 O 0.51796 0.71464 0.10139 0.0
O44 O 0.56964 0.76792 0.10155 0.0
C45 C 0.49763 0.72903 0.04183 0.0
O46 O 0.54309 0.80889 0.06471 0.0
Co47 Co 0.45919 0.76608 0.06087 0.0
O48 O 0.49722 0.81026 0.04131 0.0
C49 C 0.47771 0.77515 0.12201 0.0
C50 C 0.55217 0.73352 0.10888 0.0
C51 C 0.53094 0.82493 0.0482 0.0
O52 O 0.50659 0.7725 0.1176 0.0
O53 O 0.45485 0.77142 0.10256 0.0
O54 O 0.532 0.7398 0.04662 0.0
O55 O 0.48052 0.73467 0.06211 0.0
Co56 Co 0.77288 0.51759 0.24839 0.0
O57 O 0.80976 0.51216 0.26864 0.0
O58 O 0.80464 0.56203 0.26921 0.0
C59 C 0.78022 0.49432 0.20729 0.0
O60 O 0.74011 0.53472 0.22948 0.0
Co61 Co 0.70372 0.45147 0.22225 0.0
O62 O 0.69504 0.48906 0.20443 0.0
C63 C 0.71025 0.46275 0.28447 0.0
C64 C 0.82256 0.54571 0.27712 0.0
C65 C 0.71258 0.52245 0.21234 0.0
O66 O 0.73792 0.49542 0.28153 0.0
O67 O 0.69561 0.44053 0.2637 0.0
O68 O 0.80195 0.52864 0.21353 0.0
O69 O 0.75635 0.47527 0.22634 0.0
Co70 Co 0.25997 0.77017 0.4153 0.0
O71 O 0.30348 0.80622 0.43472 0.0
O72 O 0.25027 0.80502 0.43477 0.0
C73 C 0.28983 0.77331 0.37463 0.0
O74 O 0.20946 0.73925 0.39693 0.0
Co75 Co 0.25054 0.69737 0.39146 0.0
O76 O 0.20942 0.69555 0.36965 0.0
C77 C 0.24171 0.70487 0.45309 0.0
C78 C 0.28456 0.82147 0.44243 0.0
C79 C 0.19449 0.71378 0.37811 0.0
O80 O 0.24498 0.73678 0.44952 0.0
O81 O 0.24489 0.68618 0.43301 0.0
O82 O 0.2793 0.79705 0.37974 0.0
O83 O 0.28328 0.74968 0.39441 0.0
C84 C 0.42962 0.13581 0.54108 0.0
C85 C 0.46779 0.15346 0.53667 0.0
C86 C 0.4067 0.09993 0.53121 0.0
C87 C 0.40636 0.03165 0.48054 0.0
H88 H 0.32487 0.96018 0.52562 0.0
C89 C 0.34072 0.87753 0.45965 0.0
C90 C 0.30232 0.8576 0.45684 0.0
C91 C 0.35827 0.91328 0.47025 0.0
C92 C 0.34737 0.97998 0.51274 0.0
H93 H 0.51166 0.14665 0.5188 0.0
H94 H 0.47231 0.08464 0.50246 0.0
H95 H 0.36027 0.02388 0.5419 0.0
H96 H 0.25212 0.85905 0.46413 0.0
H97 H 0.28301 0.92163 0.48327 0.0
H98 H 0.39425 0.98764 0.45189 0.0
C99 C 0.45968 0.09858 0.51275 0.0
C100 C 0.36758 0.0165 0.52196 0.0
C101 C 0.4824 0.1343 0.52234 0.0
C102 C 0.28175 0.87372 0.46602 0.0
C103 C 0.29938 0.90947 0.47701 0.0
C104 C 0.38654 0.99524 0.47157 0.0
C105 C 0.42149 0.08089 0.51683 0.0
C106 C 0.39777 0.04269 0.5062 0.0
C107 C 0.33788 0.92987 0.47862 0.0
C108 C 0.35721 0.96888 0.48774 0.0
H109 H 0.41742 0.14973 0.55204 0.0
H110 H 0.37739 0.0873 0.53457 0.0
H111 H 0.42869 0.05114 0.46738 0.0
H112 H 0.35742 0.86598 0.45282 0.0
H113 H 0.38796 0.92818 0.47161 0.0
C114 C 0.47093 0.33615 0.628 0.0
C115 C 0.45249 0.29786 0.62463 0.0
C116 C 0.45251 0.35364 0.63835 0.0
C117 C 0.37412 0.34291 0.67933 0.0
H118 H 0.38617 0.42516 0.63405 0.0
C119 C 0.30193 0.42694 0.70685 0.0
C120 C 0.32296 0.46512 0.70276 0.0
C121 C 0.31459 0.40369 0.69708 0.0
C122 C 0.38278 0.40256 0.64718 0.0
H123 H 0.40059 0.24772 0.63071 0.0
H124 H 0.36844 0.27853 0.64943 0.0
H125 H 0.41483 0.39008 0.61893 0.0
H126 H 0.37416 0.50864 0.68553 0.0
H127 H 0.39633 0.46866 0.66932 0.0
H128 H 0.34302 0.35619 0.70813 0.0
C129 C 0.39715 0.29485 0.64379 0.0
C130 C 0.39912 0.38237 0.63841 0.0
C131 C 0.41554 0.27727 0.63305 0.0
C132 C 0.35691 0.4794 0.68882 0.0
C133 C 0.36961 0.45633 0.67931 0.0
C134 C 0.35804 0.36348 0.68835 0.0
C135 C 0.41529 0.3333 0.64587 0.0
C136 C 0.39552 0.35273 0.6546 0.0
C137 C 0.34861 0.41814 0.68311 0.0
C138 C 0.36277 0.39403 0.67262 0.0
H139 H 0.49939 0.35288 0.62179 0.0
H140 H 0.46732 0.38327 0.64012 0.0
H141 H 0.37093 0.32017 0.69221 0.0
H142 H 0.27565 0.41499 0.7175 0.0
H143 H 0.29754 0.37441 0.7002 0.0
C144 C 0.88765 0.35148 0.85655 0.0
C145 C 0.86739 0.31688 0.8695 0.0
C146 C 0.92419 0.36503 0.84882 0.0
C147 C 0.99274 0.34024 0.82938 0.0
H148 H 0.06165 0.44007 0.85209 0.0
C149 C 0.14726 0.41229 0.79862 0.0
C150 C 0.1631 0.44921 0.79032 0.0
C151 C 0.11231 0.39419 0.81106 0.0
C152 C 0.0428 0.41229 0.8453 0.0
H153 H 0.86968 0.26894 0.88363 0.0
H154 H 0.93382 0.29261 0.86944 0.0
H155 H 0.99805 0.41147 0.86755 0.0
H156 H 0.15476 0.49609 0.78873 0.0
H157 H 0.09405 0.46465 0.80966 0.0
H158 H 0.03714 0.34152 0.80615 0.0
C159 C 0.92111 0.30918 0.86562 0.0
C160 C 1.00637 0.39587 0.85431 0.0
C161 C 0.88447 0.29572 0.87377 0.0
C162 C 0.14353 0.46774 0.79507 0.0
C163 C 0.10867 0.44967 0.80729 0.0
C164 C 0.02923 0.35685 0.82005 0.0
C165 C 0.94146 0.34426 0.8535 0.0
C166 C 0.98079 0.35994 0.84603 0.0
C167 C 0.09244 0.41261 0.81538 0.0
C168 C 0.05457 0.3934 0.82744 0.0
H169 H 0.87557 0.36864 0.85287 0.0
H170 H 0.93904 0.39194 0.83916 0.0
H171 H 0.97352 0.31254 0.82261 0.0
H172 H 0.16165 0.39725 0.79523 0.0
H173 H 0.1009 0.36578 0.81729 0.0
C174 C 0.54189 0.88269 0.02437 0.0
C175 C 0.5563 0.86265 0.03769 0.0
C176 C 0.56492 0.91832 0.01476 0.0
C177 C 0.65847 0.99882 0.02212 0.0
H178 H 0.62974 0.02884 0.95353 0.0
C179 C 0.74369 0.14163 0.96564 0.0
C180 C 0.72307 0.15819 0.95758 0.0
C181 C 0.7262 0.10586 0.97665 0.0
C182 C 0.63805 0.02092 0.97278 0.0
H183 H 0.60664 0.86479 0.05132 0.0
H184 H 0.64719 0.92712 0.0338 0.0
H185 H 0.59481 0.96542 0.9691 0.0
H186 H 0.6681 0.1506 0.95567 0.0
H187 H 0.63784 0.08847 0.97448 0.0
H188 H 0.70221 0.05477 0.02528 0.0
C189 C 0.61782 0.91521 0.03124 0.0
C190 C 0.61795 0.98456 0.98181 0.0
C191 C 0.59459 0.87939 0.04114 0.0
C192 C 0.68485 0.13871 0.96158 0.0
C193 C 0.66744 0.10299 0.97221 0.0
C194 C 0.67894 0.03531 0.01283 0.0
C195 C 0.60322 0.93507 0.0178 0.0
C196 C 0.62725 0.97313 0.00698 0.0
C197 C 0.68778 0.08591 0.97939 0.0
C198 C 0.66837 0.04685 0.98841 0.0
H199 H 0.51257 0.87105 0.02162 0.0
H200 H 0.55248 0.93294 0.00524 0.0
H201 H 0.66637 0.99112 0.04166 0.0
H202 H 0.77318 0.15594 0.96282 0.0
H203 H 0.74254 0.09332 0.98201 0.0
C204 C 0.66563 0.53296 0.18797 0.0
C205 C 0.69957 0.54746 0.20202 0.0
C206 C 0.65264 0.55583 0.17845 0.0
C207 C 0.66373 0.64863 0.18727 0.0
H208 H 0.60745 0.62203 0.11752 0.0
C209 C 0.60761 0.73576 0.13158 0.0
C210 C 0.57076 0.71553 0.12277 0.0
C211 C 0.62565 0.71779 0.1423 0.0
C212 C 0.62299 0.62974 0.1371 0.0
H213 H 0.74649 0.59775 0.21701 0.0
H214 H 0.72413 0.63795 0.1997 0.0
H215 H 0.63574 0.58676 0.13313 0.0
H216 H 0.52377 0.66068 0.11905 0.0
H217 H 0.55525 0.62961 0.13735 0.0
H218 H 0.65109 0.69213 0.19072 0.0
C219 C 0.70728 0.60866 0.1965 0.0
C220 C 0.63912 0.60942 0.14616 0.0
C221 C 0.72022 0.58562 0.20629 0.0
C222 C 0.55215 0.67715 0.12558 0.0
C223 C 0.57024 0.65927 0.13591 0.0
C224 C 0.64786 0.66931 0.17796 0.0
C225 C 0.67332 0.59403 0.18235 0.0
C226 C 0.65903 0.618 0.1717 0.0
C227 C 0.6073 0.67929 0.14399 0.0
C228 C 0.62668 0.65954 0.15308 0.0
H229 H 0.64867 0.50371 0.18455 0.0
H230 H 0.62597 0.54333 0.16833 0.0
H231 H 0.67864 0.65596 0.20712 0.0
H232 H 0.62269 0.76536 0.12967 0.0
H233 H 0.65426 0.73389 0.14834 0.0
C234 C 0.13268 0.70904 0.38344 0.0
C235 C 0.15725 0.70287 0.36736 0.0
C236 C 0.09616 0.69467 0.37467 0.0
C237 C 0.02716 0.62117 0.32823 0.0
H238 H 0.96983 0.66856 0.34252 0.0
C239 C 0.87269 0.54515 0.30522 0.0
C240 C 0.85778 0.56513 0.29271 0.0
C241 C 0.90799 0.56316 0.3168 0.0
C242 C 0.98549 0.65504 0.33816 0.0
H243 H 0.1634 0.67895 0.32856 0.0
H244 H 0.10054 0.65528 0.31276 0.0
H245 H 0.03459 0.69949 0.35577 0.0
H246 H 0.86771 0.61978 0.28336 0.0
H247 H 0.92984 0.65132 0.30279 0.0
H248 H 0.9789 0.57752 0.30959 0.0
C249 C 0.10881 0.66986 0.33271 0.0
C250 C 0.0226 0.67263 0.34608 0.0
C251 C 0.14503 0.68371 0.34166 0.0
C252 C 0.8784 0.60364 0.293 0.0
C253 C 0.91403 0.62171 0.30423 0.0
C254 C 0.99033 0.60382 0.32011 0.0
C255 C 0.08353 0.6742 0.34945 0.0
C256 C 0.04398 0.65595 0.34112 0.0
C257 C 0.92964 0.60165 0.31571 0.0
C258 C 0.96886 0.62038 0.325 0.0
H259 H 0.14122 0.7236 0.40341 0.0
H260 H 0.07753 0.69843 0.38823 0.0
H261 H 0.04235 0.60701 0.32453 0.0
H262 H 0.85733 0.51544 0.30557 0.0
H263 H 0.91854 0.54674 0.32616 0.0
C264 C 0.57944 0.31718 0.51081 0.0
C265 C 0.54258 0.30682 0.5159 0.0
C266 C 0.59766 0.33792 0.48695 0.0
C267 C 0.58049 0.36216 0.41573 0.0
H268 H 0.68386 0.43557 0.4195 0.0
C269 C 0.66797 0.41169 0.31619 0.0
C270 C 0.69355 0.44921 0.31277 0.0
C271 C 0.6502 0.39812 0.34189 0.0
C272 C 0.6549 0.41553 0.41819 0.0
H273 H 0.49589 0.3101 0.50002 0.0
H274 H 0.52777 0.34661 0.4584 0.0
H275 H 0.65092 0.40505 0.46282 0.0
H276 H 0.72128 0.50172 0.33429 0.0
H277 H 0.68972 0.47771 0.37971 0.0
H278 H 0.58429 0.37266 0.37124 0.0
C279 C 0.54251 0.33834 0.47269 0.0
C280 C 0.63611 0.39768 0.44293 0.0
C281 C 0.52422 0.31744 0.49654 0.0
C282 C 0.70165 0.47273 0.33618 0.0
C283 C 0.68364 0.45898 0.36215 0.0
C284 C 0.59919 0.38001 0.3911 0.0
C285 C 0.57952 0.34893 0.46764 0.0
C286 C 0.59884 0.37024 0.44189 0.0
C287 C 0.65726 0.42157 0.36506 0.0
C288 C 0.63681 0.40624 0.39191 0.0
H289 H 0.59434 0.30937 0.52532 0.0
H290 H 0.62588 0.34488 0.48347 0.0
H291 H 0.55192 0.34108 0.41404 0.0
H292 H 0.66138 0.39249 0.29889 0.0
H293 H 0.63089 0.36901 0.3436 0.0
C294 C 0.2159 0.65033 0.48477 0.0
C295 C 0.23512 0.68868 0.48175 0.0
C296 C 0.21375 0.63417 0.51102 0.0
C297 C 0.26658 0.65052 0.5754 0.0
H298 H 0.17897 0.56521 0.60362 0.0
C299 C 0.26696 0.58007 0.68013 0.0
C300 C 0.24534 0.54171 0.68187 0.0
C301 C 0.26443 0.59894 0.6567 0.0
C302 C 0.2038 0.58871 0.59586 0.0
H303 H 0.26597 0.74028 0.50403 0.0
H304 H 0.26274 0.71183 0.55019 0.0
H305 H 0.17505 0.59753 0.56199 0.0
H306 H 0.20464 0.4929 0.66014 0.0
H307 H 0.20103 0.52572 0.61862 0.0
H308 H 0.29573 0.6411 0.60841 0.0
C309 C 0.24924 0.6944 0.53211 0.0
C310 C 0.20145 0.60739 0.57215 0.0
C311 C 0.25086 0.71066 0.50581 0.0
C312 C 0.22157 0.52249 0.65941 0.0
C313 C 0.21928 0.54138 0.63575 0.0
C314 C 0.26903 0.63164 0.59891 0.0
C315 C 0.23122 0.65597 0.5348 0.0
C316 C 0.23287 0.63833 0.56156 0.0
C317 C 0.24049 0.57992 0.63421 0.0
C318 C 0.23771 0.60031 0.60936 0.0
H319 H 0.20333 0.63271 0.4666 0.0
H320 H 0.19991 0.60453 0.51238 0.0
H321 H 0.29137 0.67389 0.5674 0.0
H322 H 0.28539 0.59574 0.69719 0.0
H323 H 0.28075 0.62858 0.65656 0.0
C324 C 0.70716 0.21592 0.8271 0.0
C325 C 0.71193 0.23968 0.84961 0.0
C326 C 0.68583 0.2138 0.80359 0.0
C327 C 0.64552 0.26436 0.76731 0.0
H328 H 0.5862 0.17121 0.72939 0.0
C329 C 0.54962 0.24821 0.67377 0.0
C330 C 0.55669 0.23337 0.64954 0.0
C331 C 0.56371 0.2459 0.70014 0.0
C332 C 0.60256 0.19737 0.73986 0.0
H333 H 0.69797 0.27969 0.86526 0.0
H334 H 0.66017 0.27529 0.82493 0.0
H335 H 0.62194 0.17421 0.77112 0.0
H336 H 0.58175 0.20244 0.6341 0.0
H337 H 0.60553 0.19774 0.68001 0.0
H338 H 0.62591 0.28737 0.73601 0.0
C339 C 0.6735 0.25891 0.82487 0.0
C340 C 0.62332 0.1992 0.76361 0.0
C341 C 0.69509 0.26131 0.84814 0.0
C342 C 0.57609 0.21433 0.65242 0.0
C343 C 0.58953 0.21144 0.67873 0.0
C344 C 0.62443 0.26242 0.74378 0.0
C345 C 0.66853 0.23514 0.80226 0.0
C346 C 0.64548 0.23283 0.77745 0.0
C347 C 0.58435 0.22802 0.70271 0.0
C348 C 0.60314 0.22902 0.72959 0.0
H349 H 0.71987 0.19897 0.82766 0.0
H350 H 0.68316 0.19564 0.78637 0.0
H351 H 0.66265 0.29086 0.77705 0.0
H352 H 0.53486 0.26315 0.67209 0.0
H353 H 0.55918 0.25874 0.71838 0.0
C354 C 0.36845 0.57193 0.81925 0.0
C355 C 0.33011 0.55315 0.816 0.0
C356 C 0.38441 0.58551 0.84562 0.0
C357 C 0.36812 0.62185 0.90992 0.0
H358 H 0.45283 0.61814 0.93836 0.0
C359 C 0.43973 0.69266 0.0144 0.0
C360 C 0.47808 0.70876 0.01603 0.0
C361 C 0.42047 0.67131 0.99108 0.0
C362 C 0.42951 0.61987 0.93054 0.0
H363 H 0.27829 0.5326 0.83793 0.0
H364 H 0.3064 0.55714 0.88434 0.0
H365 H 0.42023 0.58216 0.89677 0.0
H366 H 0.52649 0.71584 0.99419 0.0
H367 H 0.49304 0.67953 0.95287 0.0
H368 H 0.37804 0.66059 0.94281 0.0
C369 C 0.32397 0.56108 0.86635 0.0
C370 C 0.41065 0.59897 0.90687 0.0
C371 C 0.30791 0.54683 0.83993 0.0
C372 C 0.49692 0.70369 0.99354 0.0
C373 C 0.47766 0.68256 0.97001 0.0
C374 C 0.38718 0.64305 0.93341 0.0
C375 C 0.36242 0.58111 0.86929 0.0
C376 C 0.37997 0.60001 0.89617 0.0
C377 C 0.43911 0.66581 0.9686 0.0
C378 C 0.41835 0.64261 0.9439 0.0
H379 H 0.38622 0.57705 0.80116 0.0
H380 H 0.41407 0.60104 0.84716 0.0
H381 H 0.34494 0.62368 0.90184 0.0
H382 H 0.42435 0.69585 0.03148 0.0
H383 H 0.39084 0.65847 0.99103 0.0
C384 C 0.77377 0.30822 0.00586 0.0
C385 C 0.79115 0.32827 0.98136 0.0
C386 C 0.77703 0.32652 0.03145 0.0
C387 C 0.79747 0.41849 0.05625 0.0
H388 H 0.79478 0.37865 0.1308 0.0
C389 C 0.80891 0.49754 0.15989 0.0
C390 C 0.78344 0.47696 0.18107 0.0
C391 C 0.81258 0.48012 0.13585 0.0
C392 C 0.79543 0.39003 0.11008 0.0
H393 H 0.82799 0.38249 0.96476 0.0
H394 H 0.83508 0.41413 0.00938 0.0
H395 H 0.79789 0.34628 0.08888 0.0
H396 H 0.74169 0.42211 0.19358 0.0
H397 H 0.74816 0.39198 0.15184 0.0
H398 H 0.79501 0.46219 0.07747 0.0
C399 C 0.81765 0.3846 0.00883 0.0
C400 C 0.79711 0.37145 0.08606 0.0
C401 C 0.81389 0.36645 0.9833 0.0
C402 C 0.76161 0.43878 0.17766 0.0
C403 C 0.7655 0.42141 0.15385 0.0
C404 C 0.79611 0.43718 0.08023 0.0
C405 C 0.79814 0.36511 0.03297 0.0
C406 C 0.79794 0.38534 0.05881 0.0
C407 C 0.79111 0.44181 0.13274 0.0
C408 C 0.79473 0.42301 0.10739 0.0
H409 H 0.75591 0.27876 0.00482 0.0
H410 H 0.7615 0.3106 0.04958 0.0
H411 H 0.79719 0.42965 0.03564 0.0
H412 H 0.82614 0.52697 0.16199 0.0
H413 H 0.83263 0.49652 0.11991 0.0
C414 C 0.31753 0.79985 0.32721 0.0
C415 C 0.31043 0.77436 0.34894 0.0
C416 C 0.33898 0.80178 0.30386 0.0
C417 C 0.37538 0.74883 0.26603 0.0
H418 H 0.44208 0.84344 0.23281 0.0
C419 C 0.47326 0.76419 0.17448 0.0
C420 C 0.46919 0.78216 0.15086 0.0
C421 C 0.45877 0.76599 0.20078 0.0
C422 C 0.42363 0.81686 0.24195 0.0
H423 H 0.32005 0.73078 0.36318 0.0
H424 H 0.35788 0.73468 0.3231 0.0
H425 H 0.40514 0.84008 0.27379 0.0
H426 H 0.44926 0.81803 0.13647 0.0
H427 H 0.42489 0.8219 0.1823 0.0
H428 H 0.39403 0.72573 0.23415 0.0
C429 C 0.34643 0.75273 0.32359 0.0
C430 C 0.4022 0.81485 0.26527 0.0
C431 C 0.32482 0.75062 0.34671 0.0
C432 C 0.45262 0.80381 0.15435 0.0
C433 C 0.43882 0.80616 0.18062 0.0
C434 C 0.39709 0.7509 0.24292 0.0
C435 C 0.35396 0.77841 0.30188 0.0
C436 C 0.37745 0.78076 0.27742 0.0
C437 C 0.44074 0.78643 0.2039 0.0
C438 C 0.42109 0.78487 0.23042 0.0
H439 H 0.30676 0.81846 0.32834 0.0
H440 H 0.34365 0.82148 0.28732 0.0
H441 H 0.35626 0.72203 0.27447 0.0
H442 H 0.48574 0.74715 0.17226 0.0
H443 H 0.46079 0.75068 0.21848 0.0
loop_
_geom_bond_atom_site_label_1
_geom_bond_atom_site_label_2
_geom_bond_distance
_geom_bond_site_symmetry_2
_ccdc_geom_bond_type
Co0 O1 2.216 . S
Co0 O2 2.091 . S
Co0 O4 2.004 . S
Co0 O10 2.021 . S
Co0 O12 2.137 . S
Co0 O13 2.244 . S
O1 Co0 2.216 . S
O1 C8 1.247 . S
O2 Co0 2.091 . S
O2 C8 1.261 . S
C3 O12 1.247 . S
C3 O13 1.272 . S
O4 Co0 2.004 . S
O4 C9 1.259 . S
Co5 O6 2.061 . S
Co5 O11 2.052 . S
Co5 O13 2.135 . S
O6 Co5 2.061 . S
O6 C9 1.235 . S
C7 O10 1.238 . S
C7 O11 1.241 . S
C8 O1 1.247 . S
C8 O2 1.261 . S
C9 O4 1.259 . S
C9 O6 1.235 . S
O10 Co0 2.021 . S
O10 C7 1.238 . S
O11 Co5 2.052 . S
O11 C7 1.241 . S
O12 Co0 2.137 . S
O12 C3 1.247 . S
O13 Co0 2.244 . S
O13 C3 1.272 . S
O13 Co5 2.135 . S
Co14 O15 2.216 . S
Co14 O16 2.091 . S
Co14 O18 2.004 . S
Co14 O24 2.021 . S
Co14 O26 2.137 . S
Co14 O27 2.244 . S
O15 Co14 2.216 . S
O15 C22 1.247 . S
O16 Co14 2.091 . S
O16 C22 1.261 . S
C17 O26 1.247 . S
C17 O27 1.272 . S
O18 Co14 2.004 . S
O18 C23 1.259 . S
Co19 O20 2.061 . S
Co19 O25 2.052 . S
Co19 O27 2.135 . S
O20 Co19 2.061 . S
O20 C23 1.235 . S
C21 O24 1.238 . S
C21 O25 1.241 . S
C22 O15 1.247 . S
C22 O16 1.261 . S
C23 O18 1.259 . S
C23 O20 1.235 . S
O24 Co14 2.021 . S
O24 C21 1.238 . S
O25 Co19 2.052 . S
O25 C21 1.241 . S
O26 Co14 2.137 . S
O26 C17 1.247 . S
O27 Co14 2.244 . S
O27 C17 1.272 . S
O27 Co19 2.135 . S
Co28 O29 2.216 . S
Co28 O30 2.091 . S
Co28 O32 2.004 . S
Co28 O38 2.021 . S
Co28 O40 2.137 . S
Co28 O41 2.244 . S
O29 Co28 2.216 . S
O29 C36 1.247 . S
O30 Co28 2.091 . S
O30 C36 1.261 . S
C31 O40 1.247 . S
C31 O41 1.272 . S
O32 Co28 2.004 . S
O32 C37 1.259 . S
Co33 O34 2.061 . S
Co33 O39 2.052 . S
Co33 O41 2.135 . S
O34 Co33 2.061 . S
O34 C37 1.235 . S
C35 O38 1.238 . S
C35 O39 1.241 . S
C36 O29 1.247 . S
C36 O30 1.261 . S
C37 O32 1.259 . S
C37 O34 1.235 . S
O38 Co28 2.021 . S
O38 C35 1.238 . S
O39 Co33 2.052 . S
O39 C35 1.241 . S
O40 Co28 2.137 . S
O40 C31 1.247 . S
O41 Co28 2.244 . S
O41 C31 1.272 . S
O41 Co33 2.135 . S
Co42 O43 2.216 . S
Co42 O44 2.091 . S
Co42 O46 2.004 . S
Co42 O52 2.021 . S
Co42 O54 2.137 . S
Co42 O55 2.244 . S
O43 Co42 2.216 . S
O43 C50 1.247 . S
O44 Co42 2.091 . S
O44 C50 1.261 . S
C45 O54 1.247 . S
C45 O55 1.272 . S
O46 Co42 2.004 . S
O46 C51 1.259 . S
Co47 O48 2.061 . S
Co47 O53 2.052 . S
Co47 O55 2.135 . S
O48 Co47 2.061 . S
O48 C51 1.235 . S
C49 O52 1.238 . S
C49 O53 1.241 . S
C50 O43 1.247 . S
C50 O44 1.261 . S
C51 O46 1.259 . S
C51 O48 1.235 . S
O52 Co42 2.021 . S
O52 C49 1.238 . S
O53 Co47 2.052 . S
O53 C49 1.241 . S
O54 Co42 2.137 . S
O54 C45 1.247 . S
O55 Co42 2.244 . S
O55 C45 1.272 . S
O55 Co47 2.135 . S
Co56 O57 2.216 . S
Co56 O58 2.091 . S
Co56 O60 2.004 . S
Co56 O66 2.021 . S
Co56 O68 2.137 . S
Co56 O69 2.244 . S
O57 Co56 2.216 . S
O57 C64 1.247 . S
O58 Co56 2.091 . S
O58 C64 1.261 . S
C59 O68 1.247 . S
C59 O69 1.272 . S
O60 Co56 2.004 . S
O60 C65 1.259 . S
Co61 O62 2.061 . S
Co61 O67 2.052 . S
Co61 O69 2.135 . S
O62 Co61 2.061 . S
O62 C65 1.235 . S
C63 O66 1.238 . S
C63 O67 1.241 . S
C64 O57 1.247 . S
C64 O58 1.261 . S
C65 O60 1.259 . S
C65 O62 1.235 . S
O66 Co56 2.021 . S
O66 C63 1.238 . S
O67 Co61 2.052 . S
O67 C63 1.241 . S
O68 Co56 2.137 . S
O68 C59 1.247 . S
O69 Co56 2.244 . S
O69 C59 1.272 . S
O69 Co61 2.135 . S
Co70 O71 2.216 . S
Co70 O72 2.091 . S
Co70 O74 2.004 . S
Co70 O80 2.021 . S
Co70 O82 2.137 . S
Co70 O83 2.244 . S
O71 Co70 2.216 . S
O71 C78 1.247 . S
O72 Co70 2.091 . S
O72 C78 1.261 . S
C73 O82 1.247 . S
C73 O83 1.272 . S
O74 Co70 2.004 . S
O74 C79 1.259 . S
Co75 O76 2.061 . S
Co75 O81 2.052 . S
Co75 O83 2.135 . S
O76 Co75 2.061 . S
O76 C79 1.235 . S
C77 O80 1.238 . S
C77 O81 1.241 . S
C78 O71 1.247 . S
C78 O72 1.261 . S
C79 O74 1.259 . S
C79 O76 1.235 . S
O80 Co70 2.021 . S
O80 C77 1.238 . S
O81 Co75 2.052 . S
O81 C77 1.241 . S
O82 Co70 2.137 . S
O82 C73 1.247 . S
O83 Co70 2.244 . S
O83 C73 1.272 . S
O83 Co75 2.135 . S
C84 C85 1.349 . S
C84 C86 1.327 . S
C84 H109 0.950 . S
C85 C84 1.349 . S
C85 C101 1.349 . S
C86 C84 1.327 . S
C86 C105 1.429 . S
C86 H110 0.950 . S
C87 C104 1.574 1_545 S
C87 C106 1.368 . S
C87 H111 0.949 . S
H88 C92 0.949 . S
C89 C90 1.349 . S
C89 C91 1.327 . S
C89 H112 0.950 . S
C90 C89 1.349 . S
C90 C102 1.349 . S
C91 C89 1.327 . S
C91 C107 1.429 . S
C91 H113 0.950 . S
C92 H88 0.949 . S
C92 C100 1.574 1_565 S
C92 C108 1.368 . S
H93 C101 0.950 . S
H94 C99 0.950 . S
H95 C100 0.949 . S
H96 C102 0.950 . S
H97 C103 0.950 . S
H98 C104 0.949 . S
C99 H94 0.950 . S
C99 C101 1.327 . S
C99 C105 1.429 . S
C100 C92 1.574 1_545 S
C100 H95 0.949 . S
C100 C106 1.368 . S
C101 C85 1.349 . S
C101 H93 0.950 . S
C101 C99 1.327 . S
C102 C90 1.349 . S
C102 H96 0.950 . S
C102 C103 1.327 . S
C103 H97 0.950 . S
C103 C102 1.327 . S
C103 C107 1.429 . S
C104 C87 1.574 1_565 S
C104 H98 0.949 . S
C104 C108 1.368 . S
C105 C86 1.429 . S
C105 C99 1.429 . S
C105 C106 1.523 . S
C106 C87 1.368 . S
C106 C100 1.368 . S
C106 C105 1.523 . S
C107 C91 1.429 . S
C107 C103 1.429 . S
C107 C108 1.523 . S
C108 C92 1.368 . S
C108 C104 1.368 . S
C108 C107 1.523 . S
H109 C84 0.950 . S
H110 C86 0.950 . S
H111 C87 0.949 . S
H112 C89 0.950 . S
H113 C91 0.950 . S
C114 C115 1.349 . S
C114 C116 1.327 . S
C114 H139 0.950 . S
C115 C114 1.349 . S
C115 C131 1.349 . S
C116 C114 1.327 . S
C116 C135 1.429 . S
C116 H140 0.950 . S
C117 C134 1.574 . S
C117 C136 1.368 . S
C117 H141 0.949 . S
H118 C122 0.949 . S
C119 C120 1.349 . S
C119 C121 1.327 . S
C119 H142 0.950 . S
C120 C119 1.349 . S
C120 C132 1.349 . S
C121 C119 1.327 . S
C121 C137 1.429 . S
C121 H143 0.950 . S
C122 H118 0.949 . S
C122 C130 1.574 . S
C122 C138 1.368 . S
H123 C131 0.950 . S
H124 C129 0.950 . S
H125 C130 0.949 . S
H126 C132 0.950 . S
H127 C133 0.950 . S
H128 C134 0.949 . S
C129 H124 0.950 . S
C129 C131 1.327 . S
C129 C135 1.429 . S
C130 C122 1.574 . S
C130 H125 0.949 . S
C130 C136 1.368 . S
C131 C115 1.349 . S
C131 H123 0.950 . S
C131 C129 1.327 . S
C132 C120 1.349 . S
C132 H126 0.950 . S
C132 C133 1.327 . S
C133 H127 0.950 . S
C133 C132 1.327 . S
C133 C137 1.429 . S
C134 C117 1.574 . S
C134 H128 0.949 . S
C134 C138 1.368 . S
C135 C116 1.429 . S
C135 C129 1.429 . S
C135 C136 1.523 . S
C136 C117 1.368 . S
C136 C130 1.368 . S
C136 C135 1.523 . S
C137 C121 1.429 . S
C137 C133 1.429 . S
C137 C138 1.523 . S
C138 C122 1.368 . S
C138 C134 1.368 . S
C138 C137 1.523 . S
H139 C114 0.950 . S
H140 C116 0.950 . S
H141 C117 0.949 . S
H142 C119 0.950 . S
H143 C121 0.950 . S
C144 C145 1.349 . S
C144 C146 1.327 . S
C144 H169 0.950 . S
C145 C144 1.349 . S
C145 C161 1.349 . S
C146 C144 1.327 . S
C146 C165 1.429 . S
C146 H170 0.950 . S
C147 C164 1.574 1_655 S
C147 C166 1.368 . S
C147 H171 0.949 . S
H148 C152 0.951 . S
C149 C150 1.349 . S
C149 C151 1.327 . S
C149 H172 0.950 . S
C150 C149 1.349 . S
C150 C162 1.349 . S
C151 C149 1.327 . S
C151 C167 1.429 . S
C151 H173 0.950 . S
C152 H148 0.951 . S
C152 C160 1.559 1_455 S
C152 C168 1.381 . S
H153 C161 0.950 . S
H154 C159 0.950 . S
H155 C160 0.949 . S
H156 C162 0.950 . S
H157 C163 0.950 . S
H158 C164 0.949 . S
C159 H154 0.950 . S
C159 C161 1.327 . S
C159 C165 1.429 . S
C160 C152 1.559 1_655 S
C160 H155 0.949 . S
C160 C166 1.368 . S
C161 C145 1.349 . S
C161 H153 0.950 . S
C161 C159 1.327 . S
C162 C150 1.349 . S
C162 H156 0.950 . S
C162 C163 1.327 . S
C163 H157 0.950 . S
C163 C162 1.327 . S
C163 C167 1.429 . S
C164 C147 1.574 1_455 S
C164 H158 0.949 . S
C164 C168 1.368 . S
C165 C146 1.429 . S
C165 C159 1.429 . S
C165 C166 1.523 . S
C166 C147 1.368 . S
C166 C160 1.368 . S
C166 C165 1.523 . S
C167 C151 1.429 . S
C167 C163 1.429 . S
C167 C168 1.523 . S
C168 C152 1.381 . S
C168 C164 1.368 . S
C168 C167 1.523 . S
H169 C144 0.950 . S
H170 C146 0.950 . S
H171 C147 0.949 . S
H172 C149 0.950 . S
H173 C151 0.950 . S
C174 C175 1.349 . S
C174 C176 1.327 . S
C174 H199 0.950 . S
C175 C174 1.349 . S
C175 C191 1.349 . S
C176 C174 1.327 . S
C176 C195 1.429 . S
C176 H200 0.950 . S
C177 C194 1.574 1_565 S
C177 C196 1.368 . S
C177 H201 0.949 . S
H178 C182 0.949 . S
C179 C180 1.349 . S
C179 C181 1.327 . S
C179 H202 0.950 . S
C180 C179 1.349 . S
C180 C192 1.349 . S
C181 C179 1.327 . S
C181 C197 1.429 . S
C181 H203 0.950 . S
C182 H178 0.949 . S
C182 C190 1.574 1_545 S
C182 C198 1.368 . S
H183 C191 0.950 . S
H184 C189 0.950 . S
H185 C190 0.949 . S
H186 C192 0.950 . S
H187 C193 0.950 . S
H188 C194 0.949 . S
C189 H184 0.950 . S
C189 C191 1.327 . S
C189 C195 1.429 . S
C190 C182 1.574 1_565 S
C190 H185 0.949 . S
C190 C196 1.368 1_556 S
C191 C175 1.349 . S
C191 H183 0.950 . S
C191 C189 1.327 . S
C192 C180 1.349 . S
C192 H186 0.950 . S
C192 C193 1.327 . S
C193 H187 0.950 . S
C193 C192 1.327 . S
C193 C197 1.429 . S
C194 C177 1.574 1_545 S
C194 H188 0.949 . S
C194 C198 1.368 1_554 S
C195 C176 1.429 . S
C195 C189 1.429 . S
C195 C196 1.523 . S
C196 C177 1.368 . S
C196 C190 1.368 1_554 S
C196 C195 1.523 . S
C197 C181 1.429 . S
C197 C193 1.429 . S
C197 C198 1.523 . S
C198 C182 1.368 . S
C198 C194 1.368 1_556 S
C198 C197 1.523 . S
H199 C174 0.950 . S
H200 C176 0.950 . S
H201 C177 0.949 . S
H202 C179 0.950 . S
H203 C181 0.950 . S
C204 C205 1.349 . S
C204 C206 1.327 . S
C204 H229 0.950 . S
C205 C204 1.349 . S
C205 C221 1.349 . S
C206 C204 1.327 . S
C206 C225 1.429 . S
C206 H230 0.950 . S
C207 C224 1.574 . S
C207 C226 1.368 . S
C207 H231 0.949 . S
H208 C212 0.949 . S
C209 C210 1.349 . S
C209 C211 1.327 . S
C209 H232 0.950 . S
C210 C209 1.349 . S
C210 C222 1.349 . S
C211 C209 1.327 . S
C211 C227 1.429 . S
C211 H233 0.950 . S
C212 H208 0.949 . S
C212 C220 1.574 . S
C212 C228 1.368 . S
H213 C221 0.950 . S
H214 C219 0.950 . S
H215 C220 0.949 . S
H216 C222 0.950 . S
H217 C223 0.950 . S
H218 C224 0.949 . S
C219 H214 0.950 . S
C219 C221 1.327 . S
C219 C225 1.429 . S
C220 C212 1.574 . S
C220 H215 0.949 . S
C220 C226 1.368 . S
C221 C205 1.349 . S
C221 H213 0.950 . S
C221 C219 1.327 . S
C222 C210 1.349 . S
C222 H216 0.950 . S
C222 C223 1.327 . S
C223 H217 0.950 . S
C223 C222 1.327 . S
C223 C227 1.429 . S
C224 C207 1.574 . S
C224 H218 0.949 . S
C224 C228 1.368 . S
C225 C206 1.429 . S
C225 C219 1.429 . S
C225 C226 1.523 . S
C226 C207 1.368 . S
C226 C220 1.368 . S
C226 C225 1.523 . S
C227 C211 1.429 . S
C227 C223 1.429 . S
C227 C228 1.523 . S
C228 C212 1.368 . S
C228 C224 1.368 . S
C228 C227 1.523 . S
H229 C204 0.950 . S
H230 C206 0.950 . S
H231 C207 0.949 . S
H232 C209 0.950 . S
H233 C211 0.950 . S
C234 C235 1.349 . S
C234 C236 1.327 . S
C234 H259 0.950 . S
C235 C234 1.349 . S
C235 C251 1.349 . S
C236 C234 1.327 . S
C236 C255 1.429 . S
C236 H260 0.950 . S
C237 C254 1.574 1_455 S
C237 C256 1.368 . S
C237 H261 0.949 . S
H238 C242 0.949 . S
C239 C240 1.349 . S
C239 C241 1.327 . S
C239 H262 0.950 . S
C240 C239 1.349 . S
C240 C252 1.349 . S
C241 C239 1.327 . S
C241 C257 1.429 . S
C241 H263 0.950 . S
C242 H238 0.949 . S
C242 C250 1.574 1_655 S
C242 C258 1.368 . S
H243 C251 0.950 . S
H244 C249 0.950 . S
H245 C250 0.949 . S
H246 C252 0.950 . S
H247 C253 0.950 . S
H248 C254 0.949 . S
C249 H244 0.950 . S
C249 C251 1.327 . S
C249 C255 1.429 . S
C250 C242 1.574 1_455 S
C250 H245 0.949 . S
C250 C256 1.368 . S
C251 C235 1.349 . S
C251 H243 0.950 . S
C251 C249 1.327 . S
C252 C240 1.349 . S
C252 H246 0.950 . S
C252 C253 1.327 . S
C253 H247 0.950 . S
C253 C252 1.327 . S
C253 C257 1.429 . S
C254 C237 1.574 1_655 S
C254 H248 0.949 . S
C254 C258 1.368 . S
C255 C236 1.429 . S
C255 C249 1.429 . S
C255 C256 1.523 . S
C256 C237 1.368 . S
C256 C250 1.368 . S
C256 C255 1.523 . S
C257 C241 1.429 . S
C257 C253 1.429 . S
C257 C258 1.523 . S
C258 C242 1.368 . S
C258 C254 1.368 . S
C258 C257 1.523 . S
H259 C234 0.950 . S
H260 C236 0.950 . S
H261 C237 0.949 . S
H262 C239 0.950 . S
H263 C241 0.950 . S
C264 C265 1.349 . S
C264 C266 1.327 . S
C264 H289 0.950 . S
C265 C264 1.349 . S
C265 C281 1.349 . S
C266 C264 1.327 . S
C266 C285 1.429 . S
C266 H290 0.950 . S
C267 C284 1.574 . S
C267 C286 1.368 . S
C267 H291 0.949 . S
H268 C272 0.949 . S
C269 C270 1.349 . S
C269 C271 1.327 . S
C269 H292 0.950 . S
C270 C269 1.349 . S
C270 C282 1.349 . S
C271 C269 1.327 . S
C271 C287 1.429 . S
C271 H293 0.950 . S
C272 H268 0.949 . S
C272 C280 1.574 . S
C272 C288 1.368 . S
H273 C281 0.950 . S
H274 C279 0.950 . S
H275 C280 0.949 . S
H276 C282 0.950 . S
H277 C283 0.950 . S
H278 C284 0.949 . S
C279 H274 0.950 . S
C279 C281 1.327 . S
C279 C285 1.429 . S
C280 C272 1.574 . S
C280 H275 0.949 . S
C280 C286 1.368 . S
C281 C265 1.349 . S
C281 H273 0.950 . S
C281 C279 1.327 . S
C282 C270 1.349 . S
C282 H276 0.950 . S
C282 C283 1.327 . S
C283 H277 0.950 . S
C283 C282 1.327 . S
C283 C287 1.429 . S
C284 C267 1.574 . S
C284 H278 0.949 . S
C284 C288 1.368 . S
C285 C266 1.429 . S
C285 C279 1.429 . S
C285 C286 1.523 . S
C286 C267 1.368 . S
C286 C280 1.368 . S
C286 C285 1.523 . S
C287 C271 1.429 . S
C287 C283 1.429 . S
C287 C288 1.523 . S
C288 C272 1.368 . S
C288 C284 1.368 . S
C288 C287 1.523 . S
H289 C264 0.950 . S
H290 C266 0.950 . S
H291 C267 0.949 . S
H292 C269 0.950 . S
H293 C271 0.950 . S
C294 C295 1.349 . S
C294 C296 1.327 . S
C294 H319 0.950 . S
C295 C294 1.349 . S
C295 C311 1.349 . S
C296 C294 1.327 . S
C296 C315 1.429 . S
C296 H320 0.950 . S
C297 C314 1.574 . S
C297 C316 1.368 . S
C297 H321 0.949 . S
H298 C302 0.949 . S
C299 C300 1.349 . S
C299 C301 1.327 . S
C299 H322 0.950 . S
C300 C299 1.349 . S
C300 C312 1.349 . S
C301 C299 1.327 . S
C301 C317 1.429 . S
C301 H323 0.950 . S
C302 H298 0.949 . S
C302 C310 1.574 . S
C302 C318 1.368 . S
H303 C311 0.950 . S
H304 C309 0.950 . S
H305 C310 0.949 . S
H306 C312 0.950 . S
H307 C313 0.950 . S
H308 C314 0.949 . S
C309 H304 0.950 . S
C309 C311 1.327 . S
C309 C315 1.429 . S
C310 C302 1.574 . S
C310 H305 0.949 . S
C310 C316 1.368 . S
C311 C295 1.349 . S
C311 H303 0.950 . S
C311 C309 1.327 . S
C312 C300 1.349 . S
C312 H306 0.950 . S
C312 C313 1.327 . S
C313 H307 0.950 . S
C313 C312 1.327 . S
C313 C317 1.429 . S
C314 C297 1.574 . S
C314 H308 0.949 . S
C314 C318 1.368 . S
C315 C296 1.429 . S
C315 C309 1.429 . S
C315 C316 1.523 . S
C316 C297 1.368 . S
C316 C310 1.368 . S
C316 C315 1.523 . S
C317 C301 1.429 . S
C317 C313 1.429 . S
C317 C318 1.523 . S
C318 C302 1.368 . S
C318 C314 1.368 . S
C318 C317 1.523 . S
H319 C294 0.950 . S
H320 C296 0.950 . S
H321 C297 0.949 . S
H322 C299 0.950 . S
H323 C301 0.950 . S
C324 C325 1.349 . S
C324 C326 1.327 . S
C324 H349 0.950 . S
C325 C324 1.349 . S
C325 C341 1.349 . S
C326 C324 1.327 . S
C326 C345 1.429 . S
C326 H350 0.950 . S
C327 C344 1.574 . S
C327 C346 1.368 . S
C327 H351 0.949 . S
H328 C332 0.949 . S
C329 C330 1.349 . S
C329 C331 1.327 . S
C329 H352 0.950 . S
C330 C329 1.349 . S
C330 C342 1.349 . S
C331 C329 1.327 . S
C331 C347 1.429 . S
C331 H353 0.950 . S
C332 H328 0.949 . S
C332 C340 1.574 . S
C332 C348 1.368 . S
H333 C341 0.950 . S
H334 C339 0.950 . S
H335 C340 0.949 . S
H336 C342 0.950 . S
H337 C343 0.950 . S
H338 C344 0.949 . S
C339 H334 0.950 . S
C339 C341 1.327 . S
C339 C345 1.429 . S
C340 C332 1.574 . S
C340 H335 0.949 . S
C340 C346 1.368 . S
C341 C325 1.349 . S
C341 H333 0.950 . S
C341 C339 1.327 . S
C342 C330 1.349 . S
C342 H336 0.950 . S
C342 C343 1.327 . S
C343 H337 0.950 . S
C343 C342 1.327 . S
C343 C347 1.429 . S
C344 C327 1.574 . S
C344 H338 0.949 . S
C344 C348 1.368 . S
C345 C326 1.429 . S
C345 C339 1.429 . S
C345 C346 1.523 . S
C346 C327 1.368 . S
C346 C340 1.368 . S
C346 C345 1.523 . S
C347 C331 1.429 . S
C347 C343 1.429 . S
C347 C348 1.523 . S
C348 C332 1.368 . S
C348 C344 1.368 . S
C348 C347 1.523 . S
H349 C324 0.950 . S
H350 C326 0.950 . S
H351 C327 0.949 . S
H352 C329 0.950 . S
H353 C331 0.950 . S
C354 C355 1.349 . S
C354 C356 1.327 . S
C354 H379 0.950 . S
C355 C354 1.349 . S
C355 C371 1.349 . S
C356 C354 1.327 . S
C356 C375 1.429 . S
C356 H380 0.950 . S
C357 C374 1.574 . S
C357 C376 1.368 . S
C357 H381 0.949 . S
H358 C362 0.949 . S
C359 C360 1.349 1_556 S
C359 C361 1.327 . S
C359 H382 0.956 . S
C360 C359 1.349 1_554 S
C360 C372 1.349 . S
C361 C359 1.327 . S
C361 C377 1.429 . S
C361 H383 0.950 . S
C362 H358 0.949 . S
C362 C370 1.574 . S
C362 C378 1.368 . S
H363 C371 0.950 . S
H364 C369 0.950 . S
H365 C370 0.949 . S
H366 C372 0.950 . S
H367 C373 0.950 . S
H368 C374 0.949 . S
C369 H364 0.950 . S
C369 C371 1.327 . S
C369 C375 1.429 . S
C370 C362 1.574 . S
C370 H365 0.949 . S
C370 C376 1.368 . S
C371 C355 1.349 . S
C371 H363 0.950 . S
C371 C369 1.327 . S
C372 C360 1.349 . S
C372 H366 0.950 . S
C372 C373 1.327 1_554 S
C373 H367 0.950 . S
C373 C372 1.327 1_556 S
C373 C377 1.429 . S
C374 C357 1.574 . S
C374 H368 0.949 . S
C374 C378 1.368 . S
C375 C356 1.429 . S
C375 C369 1.429 . S
C375 C376 1.523 . S
C376 C357 1.368 . S
C376 C370 1.368 . S
C376 C375 1.523 . S
C377 C361 1.429 . S
C377 C373 1.429 . S
C377 C378 1.523 . S
C378 C362 1.368 . S
C378 C374 1.368 . S
C378 C377 1.523 . S
H379 C354 0.950 . S
H380 C356 0.950 . S
H381 C357 0.949 . S
H382 C359 0.956 . S
H383 C361 0.950 . S
C384 C385 1.349 1_554 S
C384 C386 1.327 . S
C384 H409 0.950 . S
C385 C384 1.349 1_556 S
C385 C401 1.349 . S
C386 C384 1.327 . S
C386 C405 1.429 . S
C386 H410 0.950 . S
C387 C404 1.574 . S
C387 C406 1.368 . S
C387 H411 0.949 . S
H388 C392 0.949 . S
C389 C390 1.349 . S
C389 C391 1.327 . S
C389 H412 0.950 . S
C390 C389 1.349 . S
C390 C402 1.349 . S
C391 C389 1.327 . S
C391 C407 1.429 . S
C391 H413 0.950 . S
C392 H388 0.949 . S
C392 C400 1.574 . S
C392 C408 1.368 . S
H393 C401 0.950 . S
H394 C399 0.950 . S
H395 C400 0.949 . S
H396 C402 0.950 . S
H397 C403 0.950 . S
H398 C404 0.949 . S
C399 H394 0.950 . S
C399 C401 1.327 1_554 S
C399 C405 1.429 . S
C400 C392 1.574 . S
C400 H395 0.949 . S
C400 C406 1.368 . S
C401 C385 1.349 . S
C401 H393 0.950 . S
C401 C399 1.327 1_556 S
C402 C390 1.349 . S
C402 H396 0.950 . S
C402 C403 1.327 . S
C403 H397 0.950 . S
C403 C402 1.327 . S
C403 C407 1.429 . S
C404 C387 1.574 . S
C404 H398 0.949 . S
C404 C408 1.368 . S
C405 C386 1.429 . S
C405 C399 1.429 . S
C405 C406 1.523 . S
C406 C387 1.368 . S
C406 C400 1.368 . S
C406 C405 1.523 . S
C407 C391 1.429 . S
C407 C403 1.429 . S
C407 C408 1.523 . S
C408 C392 1.368 . S
C408 C404 1.368 . S
C408 C407 1.523 . S
H409 C384 0.950 . S
H410 C386 0.950 . S
H411 C387 0.949 . S
H412 C389 0.950 . S
H413 C391 0.950 . S
C414 C415 1.349 . S
C414 C416 1.327 . S
C414 H439 0.950 . S
C415 C414 1.349 . S
C415 C431 1.349 . S
C416 C414 1.327 . S
C416 C435 1.429 . S
C416 H440 0.950 . S
C417 C434 1.574 . S
C417 C436 1.368 . S
C417 H441 0.949 . S
H418 C422 0.949 . S
C419 C420 1.349 . S
C419 C421 1.327 . S
C419 H442 0.950 . S
C420 C419 1.349 . S
C420 C432 1.349 . S
C421 C419 1.327 . S
C421 C437 1.429 . S
C421 H443 0.950 . S
C422 H418 0.949 . S
C422 C430 1.574 . S
C422 C438 1.368 . S
H423 C431 0.950 . S
H424 C429 0.950 . S
H425 C430 0.949 . S
H426 C432 0.950 . S
H427 C433 0.950 . S
H428 C434 0.949 . S
C429 H424 0.950 . S
C429 C431 1.327 . S
C429 C435 1.429 . S
C430 C422 1.574 . S
C430 H425 0.949 . S
C430 C436 1.368 . S
C431 C415 1.349 . S
C431 H423 0.950 . S
C431 C429 1.327 . S
C432 C420 1.349 . S
C432 H426 0.950 . S
C432 C433 1.327 . S
C433 H427 0.950 . S
C433 C432 1.327 . S
C433 C437 1.429 . S
C434 C417 1.574 . S
C434 H428 0.949 . S
C434 C438 1.368 . S
C435 C416 1.429 . S
C435 C429 1.429 . S
C435 C436 1.523 . S
C436 C417 1.368 . S
C436 C430 1.368 . S
C436 C435 1.523 . S
C437 C421 1.429 . S
C437 C433 1.429 . S
C437 C438 1.523 . S
C438 C422 1.368 . S
C438 C434 1.368 . S
C438 C437 1.523 . S
H439 C414 0.950 . S
H440 C416 0.950 . S
H441 C417 0.949 . S
H442 C419 0.950 . S
H443 C421 0.950 . S
C85 C9 1.638 . S
C90 C78 1.646 . S
C115 C8 1.646 . S
C120 C23 1.638 . S
C145 C37 1.638 . S
C150 C22 1.646 . S
C175 C51 1.638 . S
C180 C36 1.646 . S
C205 C65 1.638 . S
C210 C50 1.646 . S
C235 C79 1.638 . S
C240 C64 1.646 . S
C265 C3 1.441 . S
C270 C63 1.412 . S
C295 C77 1.412 . S
C300 C17 1.442 . S
C325 C31 1.441 . S
C330 C7 1.412 . S
C355 C21 1.412 . S
C360 C45 1.441 . S
C385 C35 1.412 . S
C390 C59 1.442 . S
C415 C73 1.441 . S
C420 C49 1.412 . S
