# Generated by pormake.
# Topology wjh, (4)-cn, num edge types: 1
# Building blocks:
#     Node 0, Type 0, BuildingBlock: ICAMEG_clean_sbu_1, # of connection points: 4
#     Node 1, Type 0, BuildingBlock: ICAMEG_clean_sbu_1, # of connection points: 4
#     Node 2, Type 0, BuildingBlock: ICAMEG_clean_sbu_1, # of connection points: 4
#     Node 3, Type 0, BuildingBlock: ICAMEG_clean_sbu_1, # of connection points: 4
#     Node 4, Type 0, BuildingBlock: ICAMEG_clean_sbu_1, # of connection points: 4
#     Node 5, Type 0, BuildingBlock: ICAMEG_clean_sbu_1, # of connection points: 4
#     Node 6, Type 0, BuildingBlock: ICAMEG_clean_sbu_1, # of connection points: 4
#     Node 7, Type 0, BuildingBlock: ICAMEG_clean_sbu_1, # of connection points: 4
#     Node 8, Type 0, BuildingBlock: ICAMEG_clean_sbu_1, # of connection points: 4
#     Node 9, Type 0, BuildingBlock: ICAMEG_clean_sbu_1, # of connection points: 4
#     Node 10, Type 0, BuildingBlock: ICAMEG_clean_sbu_1, # of connection points: 4
#     Node 11, Type 0, BuildingBlock: ICAMEG_clean_sbu_1, # of connection points: 4
#     Edge 12, Type (0, 0), BuildingBlock: EZIPEK_clean_linker_0, # of connection points: 2
#     Edge 13, Type (0, 0), BuildingBlock: EZIPEK_clean_linker_0, # of connection points: 2
#     Edge 14, Type (0, 0), BuildingBlock: EZIPEK_clean_linker_0, # of connection points: 2
#     Edge 15, Type (0, 0), BuildingBlock: EZIPEK_clean_linker_0, # of connection points: 2
#     Edge 16, Type (0, 0), BuildingBlock: EZIPEK_clean_linker_0, # of connection points: 2
#     Edge 17, Type (0, 0), BuildingBlock: EZIPEK_clean_linker_0, # of connection points: 2
#     Edge 18, Type (0, 0), BuildingBlock: EZIPEK_clean_linker_0, # of connection points: 2
#     Edge 19, Type (0, 0), BuildingBlock: EZIPEK_clean_linker_0, # of connection points: 2
#     Edge 20, Type (0, 0), BuildingBlock: EZIPEK_clean_linker_0, # of connection points: 2
#     Edge 21, Type (0, 0), BuildingBlock: EZIPEK_clean_linker_0, # of connection points: 2
#     Edge 22, Type (0, 0), BuildingBlock: EZIPEK_clean_linker_0, # of connection points: 2
#     Edge 23, Type (0, 0), BuildingBlock: EZIPEK_clean_linker_0, # of connection points: 2
#     Edge 24, Type (0, 0), BuildingBlock: EZIPEK_clean_linker_0, # of connection points: 2
#     Edge 25, Type (0, 0), BuildingBlock: EZIPEK_clean_linker_0, # of connection points: 2
#     Edge 26, Type (0, 0), BuildingBlock: EZIPEK_clean_linker_0, # of connection points: 2
#     Edge 27, Type (0, 0), BuildingBlock: EZIPEK_clean_linker_0, # of connection points: 2
#     Edge 28, Type (0, 0), BuildingBlock: EZIPEK_clean_linker_0, # of connection points: 2
#     Edge 29, Type (0, 0), BuildingBlock: EZIPEK_clean_linker_0, # of connection points: 2
#     Edge 30, Type (0, 0), BuildingBlock: EZIPEK_clean_linker_0, # of connection points: 2
#     Edge 31, Type (0, 0), BuildingBlock: EZIPEK_clean_linker_0, # of connection points: 2
#     Edge 32, Type (0, 0), BuildingBlock: EZIPEK_clean_linker_0, # of connection points: 2
#     Edge 33, Type (0, 0), BuildingBlock: EZIPEK_clean_linker_0, # of connection points: 2
#     Edge 34, Type (0, 0), BuildingBlock: EZIPEK_clean_linker_0, # of connection points: 2
#     Edge 35, Type (0, 0), BuildingBlock: EZIPEK_clean_linker_0, # of connection points: 2
# Relax obj value: 0.057
# Max RMSD: 0.096
# Mean RMSD: 0.096
data_MOF--net-wjh--node1-ICAMEG_clean_sbu_1--edge1-EZIPEK_clean_linker_0
_symmetry_space_group_name_H-M    P1
_symmetry_Int_Tables_number       1
_symmetry_cell_setting            triclinic
loop_
_symmetry_equiv_pos_as_xyz
'x, y, z'
_cell_length_a     47.467849
_cell_length_b     47.519248
_cell_length_c     22.384972
_cell_angle_alpha  89.961324
_cell_angle_beta   90.092865
_cell_angle_gamma 120.07149
loop_
_atom_site_label
_atom_site_type_symbol
_atom_site_fract_x
_atom_site_fract_y
_atom_site_fract_z
_atom_type_partial_charge
Co0 Co 0.50594 0.14174 0.08325 0.0
Co1 Co 0.57546 0.13872 0.04473 0.0
O2 O 0.54638 0.1568 0.03785 0.0
C3 C 0.54467 0.21303 0.10743 0.0
O4 O 0.57053 0.21016 0.11324 0.0
C5 C 0.55972 0.13346 0.9162 0.0
O6 O 0.52979 0.12481 0.93123 0.0
O7 O 0.53778 0.09347 0.03683 0.0
O8 O 0.49376 0.09492 0.07057 0.0
H9 H 0.61073 0.06249 0.12585 0.0
H10 H 0.52151 0.18585 0.97943 0.0
O11 O 0.51711 0.18832 0.09545 0.0
H12 H 0.41407 0.09112 0.93439 0.0
H13 H 0.40865 0.14897 0.15159 0.0
H14 H 0.46535 0.08636 0.16561 0.0
H15 H 0.44255 0.09362 0.02816 0.0
H16 H 0.45862 0.1655 0.09401 0.0
O17 O 0.58144 0.14093 0.956 0.0
H18 H 0.57564 0.08683 0.11823 0.0
H19 H 0.63661 0.15132 0.98326 0.0
H20 H 0.41553 0.06897 0.22392 0.0
H21 H 0.49391 0.18456 0.88519 0.0
H22 H 0.38673 0.10041 0.21732 0.0
H23 H 0.43977 0.13683 0.86209 0.0
O24 O 0.52876 0.14338 0.15996 0.0
H25 H 0.64063 0.2578 -0.00493 0.0
H26 H 0.63496 0.17017 0.12167 0.0
H27 H 0.68177 0.22572 0.13156 0.0
H28 H 0.68488 0.27001 0.06786 0.0
H29 H 0.59421 0.20194 0.98707 0.0
H30 H 0.67222 0.12749 0.98897 0.0
H31 H 0.65945 0.08282 0.06083 0.0
O32 O 0.57091 0.13668 0.13341 0.0
C33 C 0.50764 0.07972 0.05042 0.0
C34 C 0.61658 0.08197 0.0944 0.0
C35 C 0.65105 0.1184 0.01752 0.0
N36 N 0.604 0.12049 0.05049 0.0
C37 C 0.59679 0.09587 0.08998 0.0
C38 C 0.63069 0.1317 0.0143 0.0
C39 C 0.64389 0.09336 0.05788 0.0
C40 C 0.49787 0.16526 0.96996 0.0
N41 N 0.48361 0.14005 0.00947 0.0
C42 C 0.48239 0.16454 0.91641 0.0
C43 C 0.45204 0.13775 0.90346 0.0
C44 C 0.4376 0.11211 0.94401 0.0
C45 C 0.45383 0.11369 -0.0029 0.0
C46 C 0.4212 0.1353 0.15548 0.0
C47 C 0.45356 0.10059 0.16325 0.0
C48 C 0.44978 0.14474 0.12338 0.0
N49 N 0.46586 0.12764 0.12796 0.0
C50 C 0.42506 0.09043 0.19604 0.0
C51 C 0.40888 0.10803 0.19225 0.0
C52 C 0.55329 0.14007 0.17242 0.0
C53 C 0.63979 0.23864 0.02254 0.0
C54 C 0.63635 0.18918 0.09312 0.0
C55 C 0.66285 0.22065 0.09918 0.0
C56 C 0.66455 0.24549 0.0635 0.0
N57 N 0.6123 0.18256 0.05239 0.0
C58 C 0.61371 0.20687 0.01768 0.0
Co59 Co 0.37161 0.49639 0.25388 0.0
Co60 Co 0.44251 0.56681 0.21229 0.0
O61 O 0.3951 0.53703 0.20763 0.0
C62 C 0.3293 0.52777 0.25781 0.0
O63 O 0.35099 0.55285 0.22748 0.0
C64 C 0.42513 0.56382 0.08211 0.0
O65 O 0.39412 0.54446 0.09289 0.0
O66 O 0.45031 0.52986 0.19779 0.0
O67 O 0.4078 0.48692 0.24128 0.0
H68 H 0.5571 0.59882 0.27111 0.0
H69 H 0.33758 0.50673 0.15079 0.0
O70 O 0.3339 0.50409 0.2701 0.0
H71 H 0.33944 0.40644 0.10387 0.0
H72 H 0.27331 0.39169 0.31884 0.0
H73 H 0.391 0.46554 0.34816 0.0
H74 H 0.3629 0.43567 0.19804 0.0
H75 H 0.30274 0.44196 0.25955 0.0
O76 O 0.446 0.57479 0.12408 0.0
H77 H 0.49773 0.5625 0.26502 0.0
H78 H 0.48838 0.63267 0.16313 0.0
H79 H 0.36266 0.41535 0.408 0.0
H80 H 0.31337 0.478 0.05673 0.0
H81 H 0.30335 0.37801 0.39354 0.0
H82 H 0.31432 0.42751 0.03242 0.0
O83 O 0.39251 0.52011 0.32873 0.0
H84 H 0.3907 0.63588 0.17698 0.0
H85 H 0.46734 0.62026 0.30194 0.0
H86 H 0.4572 0.66505 0.32472 0.0
H87 H 0.41875 0.67326 0.26188 0.0
H88 H 0.40099 0.59107 0.15656 0.0
H89 H 0.54775 0.66963 0.16707 0.0
H90 H 0.58254 0.65292 0.22189 0.0
O91 O 0.44169 0.56028 0.30012 0.0
C92 C 0.43566 0.50053 0.21632 0.0
C93 C 0.54217 0.60662 0.2479 0.0
C94 C 0.53692 0.64631 0.1894 0.0
N95 N 0.48935 0.59592 0.2161 0.0
C96 C 0.50844 0.58627 0.24499 0.0
C97 C 0.50328 0.62529 0.18748 0.0
C98 C 0.55643 0.63691 0.22012 0.0
C99 C 0.3377 0.48459 0.1413 0.0
N100 N 0.35143 0.47289 0.18049 0.0
C101 C 0.3241 0.46848 0.08761 0.0
C102 C 0.32469 0.44019 0.07394 0.0
C103 C 0.33879 0.42838 0.11397 0.0
C104 C 0.35212 0.44513 0.16725 0.0
C105 C 0.29917 0.40772 0.32548 0.0
C106 C 0.36528 0.44931 0.34127 0.0
C107 C 0.31595 0.43628 0.29213 0.0
N108 N 0.34864 0.45657 0.30001 0.0
C109 C 0.34932 0.42097 0.37544 0.0
C110 C 0.31604 0.40006 0.36736 0.0
C111 C 0.42081 0.54389 0.34022 0.0
C112 C 0.40767 0.63269 0.2045 0.0
C113 C 0.45042 0.62344 0.27437 0.0
C114 C 0.44488 0.64899 0.28747 0.0
C115 C 0.42334 0.6536 0.2522 0.0
N116 N 0.43504 0.60299 0.2273 0.0
C117 C 0.41381 0.60739 0.19279 0.0
Co118 Co 0.87516 0.37002 0.42589 0.0
Co119 Co 0.87481 0.43469 0.35404 0.0
O120 O 0.85836 0.38771 0.36472 0.0
C121 C 0.80159 0.32417 0.42406 0.0
O122 O 0.79796 0.34075 0.38101 0.0
C123 C 0.86519 0.40721 0.2281 0.0
O124 O 0.85782 0.37839 0.24796 0.0
O125 O 0.92017 0.44289 0.34802 0.0
O126 O 0.9209 0.40644 0.41138 0.0
H127 H 0.95245 0.55369 0.38925 0.0
H128 H 0.83542 0.327 0.32469 0.0
O129 O 0.82991 0.33243 0.44427 0.0
H130 H 0.94058 0.33018 0.31473 0.0
H131 H 0.88396 0.28193 0.53517 0.0
H132 H 0.92043 0.39889 0.52835 0.0
H133 H 0.93032 0.36004 0.39347 0.0
H134 H 0.86408 0.30398 0.45649 0.0
O135 O 0.8709 0.43024 0.26419 0.0
H136 H 0.93065 0.4949 0.40315 0.0
H137 H 0.85513 0.47373 0.27845 0.0
H138 H 0.94128 0.37806 0.60748 0.0
H139 H 0.84441 0.29635 0.24604 0.0
H140 H 0.92301 0.31911 0.61127 0.0
H141 H 0.8974 0.29787 0.24038 0.0
O142 O 0.86854 0.39571 0.48863 0.0
H143 H 0.75421 0.37389 0.31408 0.0
H144 H 0.84345 0.46547 0.42263 0.0
H145 H 0.78719 0.45415 0.43567 0.0
H146 H 0.74206 0.40812 0.381 0.0
H147 H 0.81081 0.38585 0.30316 0.0
H148 H 0.8763 0.5323 0.26255 0.0
H149 H 0.9252 0.57275 0.31844 0.0
O150 O 0.87985 0.44217 0.4423 0.0
C151 C 0.93518 0.43133 0.37737 0.0
C152 C 0.93097 0.53631 0.365 0.0
C153 C 0.88827 0.52431 0.29381 0.0
N154 N 0.89127 0.48087 0.34272 0.0
C155 C 0.9184 0.50298 0.37304 0.0
C156 C 0.8764 0.49117 0.30301 0.0
C157 C 0.91571 0.54699 0.32518 0.0
C158 C 0.85829 0.32745 0.32348 0.0
N159 N 0.88201 0.34503 0.36449 0.0
C160 C 0.86336 0.31017 0.2784 0.0
C161 C 0.8931 0.31108 0.27515 0.0
C162 C 0.91733 0.32921 0.31682 0.0
C163 C 0.91135 0.34615 0.36129 0.0
C164 C 0.89227 0.30769 0.53379 0.0
C165 C 0.9128 0.37337 0.52908 0.0
C166 C 0.88107 0.32032 0.48932 0.0
N167 N 0.8916 0.35286 0.487 0.0
C168 C 0.9245 0.36164 0.57428 0.0
C169 C 0.91418 0.32856 0.57646 0.0
C170 C 0.87431 0.42495 0.48914 0.0
C171 C 0.77368 0.39419 0.33778 0.0
C172 C 0.82401 0.44544 0.39848 0.0
C173 C 0.79217 0.43916 0.40609 0.0
C174 C 0.76687 0.41335 0.37543 0.0
N175 N 0.83055 0.42666 0.36113 0.0
C176 C 0.80583 0.40122 0.33136 0.0
Co177 Co 0.51228 0.8667 0.56806 0.0
Co178 Co 0.44231 0.87031 0.53618 0.0
O179 O 0.47111 0.85221 0.52534 0.0
C180 C 0.47311 0.79509 0.58902 0.0
O181 O 0.44695 0.79762 0.59282 0.0
C182 C 0.45745 0.87749 0.4079 0.0
O183 O 0.48739 0.88579 0.42217 0.0
O184 O 0.47977 0.91569 0.5306 0.0
O185 O 0.52454 0.91346 0.55665 0.0
H186 H 0.40668 0.94391 0.62834 0.0
H187 H 0.4945 0.82208 0.46458 0.0
O188 O 0.50085 0.82005 0.57947 0.0
H189 H 0.60026 0.91716 0.41225 0.0
H190 H 0.61011 0.85802 0.62735 0.0
H191 H 0.55567 0.92248 0.64795 0.0
H192 H 0.5742 0.91479 0.50875 0.0
H193 H 0.55896 0.84196 0.57395 0.0
O194 O 0.43595 0.87007 0.44796 0.0
H195 H 0.44223 0.92042 0.61534 0.0
H196 H 0.38051 0.85827 0.47836 0.0
H197 H 0.60668 0.93935 0.70213 0.0
H198 H 0.51972 0.82319 0.36773 0.0
H199 H 0.63436 0.90699 0.69224 0.0
H200 H 0.57299 0.87111 0.34092 0.0
O201 O 0.49126 0.8653 0.64677 0.0
H202 H 0.37439 0.75401 0.47039 0.0
H203 H 0.38574 0.83583 0.61858 0.0
H204 H 0.33959 0.77972 0.62624 0.0
H205 H 0.33371 0.73835 0.55179 0.0
H206 H 0.42025 0.81036 0.46467 0.0
H207 H 0.34439 0.88126 0.48947 0.0
H208 H 0.35733 0.92434 0.56503 0.0
O209 O 0.44777 0.87067 0.6245 0.0
C210 C 0.51026 0.92903 0.54089 0.0
C211 C 0.40078 0.92516 0.59524 0.0
C212 C 0.36584 0.89002 0.51727 0.0
N213 N 0.41358 0.88805 0.54614 0.0
C214 C 0.42085 0.91175 0.58772 0.0
C215 C 0.38649 0.87719 0.51103 0.0
C216 C 0.3731 0.91418 0.55969 0.0
C217 C 0.51781 0.84273 0.45353 0.0
N218 N 0.5329 0.86815 0.49245 0.0
C219 C 0.53194 0.84335 0.39851 0.0
C220 C 0.56179 0.87026 0.38347 0.0
C221 C 0.5771 0.8961 0.42345 0.0
C222 C 0.56222 0.8946 0.47807 0.0
C223 C 0.59804 0.87205 0.63278 0.0
C224 C 0.56689 0.90776 0.64434 0.0
C225 C 0.56878 0.86288 0.60309 0.0
N226 N 0.55327 0.88042 0.60966 0.0
C227 C 0.59611 0.91767 0.67472 0.0
C228 C 0.61167 0.89956 0.66906 0.0
C229 C 0.46662 0.86792 0.66167 0.0
C230 C 0.37664 0.77182 0.50304 0.0
C231 C 0.38332 0.81796 0.58601 0.0
C232 C 0.35713 0.78624 0.59053 0.0
C233 C 0.35385 0.76305 0.54875 0.0
N234 N 0.40566 0.82634 0.54121 0.0
C235 C 0.4025 0.80379 0.49989 0.0
Co236 Co 0.64807 0.51449 0.75085 0.0
Co237 Co 0.57655 0.44752 0.70441 0.0
O238 O 0.62397 0.47623 0.6993 0.0
C239 C 0.68608 0.47993 0.76029 0.0
O240 O 0.65854 0.45229 0.76085 0.0
C241 C 0.58892 0.46184 0.57574 0.0
O242 O 0.61006 0.49203 0.58927 0.0
O243 O 0.57011 0.48579 0.69457 0.0
O244 O 0.61151 0.52469 0.74782 0.0
H245 H 0.46359 0.41564 0.77274 0.0
H246 H 0.67751 0.50783 0.6393 0.0
O247 O 0.68622 0.5067 0.75489 0.0
H248 H 0.67866 0.6116 0.61895 0.0
H249 H 0.74806 0.6165 0.82042 0.0
H250 H 0.63244 0.53887 0.86069 0.0
H251 H 0.65662 0.57818 0.70964 0.0
H252 H 0.71677 0.56926 0.75449 0.0
O253 O 0.57381 0.44094 0.61617 0.0
H254 H 0.52324 0.45052 0.76758 0.0
H255 H 0.52892 0.38461 0.6471 0.0
H256 H 0.66257 0.58597 0.92735 0.0
H257 H 0.70065 0.54082 0.54834 0.0
H258 H 0.72088 0.62525 0.90734 0.0
H259 H 0.70111 0.59309 0.53763 0.0
O260 O 0.62854 0.48655 0.8231 0.0
H261 H 0.62616 0.37844 0.65576 0.0
H262 H 0.55079 0.39135 0.78903 0.0
H263 H 0.56008 0.34527 0.80419 0.0
H264 H 0.5979 0.33847 0.7371 0.0
H265 H 0.61664 0.42459 0.64321 0.0
H266 H 0.46928 0.34911 0.65044 0.0
H267 H 0.4362 0.36448 0.71385 0.0
O268 O 0.57731 0.45209 0.79277 0.0
C269 C 0.58433 0.51358 0.72023 0.0
C270 C 0.47775 0.40856 0.74526 0.0
C271 C 0.48094 0.37126 0.67655 0.0
N272 N 0.52964 0.41938 0.70797 0.0
C273 C 0.51157 0.42815 0.74244 0.0
C274 C 0.51471 0.39147 0.67482 0.0
C275 C 0.4624 0.37989 0.71213 0.0
C276 C 0.67854 0.53092 0.63558 0.0
N277 N 0.66647 0.54134 0.68027 0.0
C278 C 0.69127 0.54934 0.58371 0.0
C279 C 0.69141 0.5786 0.57764 0.0
C280 C 0.6788 0.58898 0.62322 0.0
C281 C 0.66629 0.5699 0.67445 0.0
C282 C 0.72258 0.59975 0.82927 0.0
C283 C 0.65751 0.55619 0.85094 0.0
C284 C 0.70471 0.57297 0.79203 0.0
N285 N 0.67242 0.55186 0.80258 0.0
C286 C 0.67459 0.58267 0.88919 0.0
C287 C 0.70732 0.60464 0.87804 0.0
C288 C 0.59899 0.46483 0.8332 0.0
C289 C 0.60947 0.38101 0.68506 0.0
C290 C 0.56737 0.38866 0.75971 0.0
C291 C 0.57246 0.36244 0.76845 0.0
C292 C 0.59367 0.35864 0.73079 0.0
N293 N 0.58296 0.41051 0.71473 0.0
C294 C 0.6038 0.40695 0.67776 0.0
Co295 Co 0.13762 0.64118 0.90841 0.0
Co296 Co 0.14182 0.57226 0.8691 0.0
O297 O 0.15584 0.61874 0.86253 0.0
C298 C 0.21139 0.68539 0.90983 0.0
O299 O 0.21464 0.66487 0.87563 0.0
C300 C 0.13396 0.5816 0.74084 0.0
O301 O 0.12204 0.60006 0.75672 0.0
O302 O 0.09489 0.56 0.86214 0.0
O303 O 0.09216 0.60371 0.89361 0.0
H304 H 0.07799 0.45881 0.95293 0.0
H305 H 0.18054 0.67246 0.80168 0.0
O306 O 0.183 0.67963 0.92538 0.0
H307 H 0.08037 0.67613 0.76238 0.0
H308 H 0.13069 0.73844 0.97823 0.0
H309 H 0.08273 0.61982 -0.00587 0.0
H310 H 0.08622 0.65162 0.85507 0.0
H311 H 0.1525 0.71002 0.91915 0.0
O312 O 0.14405 0.56928 0.77996 0.0
H313 H 0.0957 0.517 0.94626 0.0
H314 H 0.1601 0.52884 0.80477 0.0
H315 H 0.05984 0.647 0.05383 0.0
H316 H 0.17582 0.69736 0.70897 0.0
H317 H 0.08391 0.70686 0.04625 0.0
H318 H 0.12542 0.69936 0.68854 0.0
O319 O 0.1409 0.62078 0.98424 0.0
H320 H 0.26001 0.63026 0.81058 0.0
H321 H 0.17857 0.55351 0.95293 0.0
H322 H 0.23601 0.56833 0.96423 0.0
H323 H 0.27724 0.60694 0.89263 0.0
H324 H 0.20232 0.61526 0.80223 0.0
H325 H 0.14307 0.47069 0.80972 0.0
H326 H 0.10171 0.43519 0.88421 0.0
O327 O 0.13955 0.57435 0.95777 0.0
C328 C 0.07894 0.57439 0.87461 0.0
C329 C 0.09584 0.47396 0.91993 0.0
C330 C 0.13234 0.48062 0.83958 0.0
N331 N 0.12834 0.52634 0.87435 0.0
C332 C 0.10581 0.50698 0.91576 0.0
C333 C 0.14171 0.51354 0.83673 0.0
C334 C 0.10917 0.46073 0.88143 0.0
C335 C 0.15881 0.67368 0.79418 0.0
N336 N 0.13412 0.66127 0.835 0.0
C337 C 0.15615 0.68764 0.74108 0.0
C338 C 0.12785 0.68869 0.72957 0.0
C339 C 0.1026 0.6757 0.77099 0.0
C340 C 0.10614 0.66195 0.82359 0.0
C341 C 0.12017 0.71238 0.9824 0.0
C342 C 0.09358 0.64577 0.99099 0.0
C343 C 0.13268 0.69619 0.94939 0.0
N344 N 0.11952 0.66327 0.95412 0.0
C345 C 0.0804 0.66109 0.02474 0.0
C346 C 0.09389 0.69466 0.02045 0.0
C347 C 0.14056 0.59439 -0.00335 0.0
C348 C 0.24228 0.6133 0.84192 0.0
C349 C 0.19633 0.57044 0.9217 0.0
C350 C 0.22884 0.57865 0.92824 0.0
C351 C 0.25194 0.60027 0.88804 0.0
N352 N 0.18706 0.5835 0.87657 0.0
C353 C 0.20954 0.60451 0.83689 0.0
Co354 Co 0.87854 0.51383 0.8298 0.0
Co355 Co 0.87402 0.43906 0.85027 0.0
O356 O 0.85998 0.47068 0.8667 0.0
C357 C 0.80707 0.48115 0.80682 0.0
O358 O 0.80697 0.45369 0.80176 0.0
C359 C 0.87934 0.44856 0.98134 0.0
O360 O 0.88939 0.47942 0.97198 0.0
O361 O 0.92091 0.47303 0.85867 0.0
O362 O 0.92405 0.52102 0.83972 0.0
H363 H 0.94072 0.39868 0.74646 0.0
H364 H 0.83251 0.49781 0.93065 0.0
O365 O 0.83335 0.50742 0.81887 0.0
H366 H 0.93547 0.59181 -0.00087 0.0
H367 H 0.88186 0.61976 0.78944 0.0
H368 H 0.93679 0.55678 0.75465 0.0
H369 H 0.93115 0.56903 0.89839 0.0
H370 H 0.86037 0.56549 0.83379 0.0
O371 O 0.8723 0.42903 0.93767 0.0
H372 H 0.92225 0.43773 0.76843 0.0
H373 H 0.8563 0.37354 0.89862 0.0
H374 H 0.95914 0.61087 0.70956 0.0
H375 H 0.83556 0.52015 0.03137 0.0
H376 H 0.93158 0.64288 0.7266 0.0
H377 H 0.88743 0.56737 0.06637 0.0
O378 O 0.87511 0.49499 0.74795 0.0
H379 H 0.75672 0.37816 0.91353 0.0
H380 H 0.83609 0.38527 0.7637 0.0
H381 H 0.77847 0.34248 0.7542 0.0
H382 H 0.73832 0.3388 0.82937 0.0
H383 H 0.81455 0.42048 0.92135 0.0
H384 H 0.87445 0.33406 0.87878 0.0
H385 H 0.91679 0.34643 0.80191 0.0
O386 O 0.87508 0.44795 0.7625 0.0
C387 C 0.93715 0.50382 0.85215 0.0
C388 C 0.92218 0.39296 0.77992 0.0
C389 C 0.88502 0.35672 0.85425 0.0
N390 N 0.88801 0.40779 0.83432 0.0
C391 C 0.91152 0.41491 0.79237 0.0
C392 C 0.87493 0.37923 0.86545 0.0
C393 C 0.90877 0.36367 0.8111 0.0
C394 C 0.85499 0.51863 0.94522 0.0
N395 N 0.88155 0.53211 0.90859 0.0
C396 C 0.85665 0.53107 0.00244 0.0
C397 C 0.88577 0.55752 0.02209 0.0
C398 C 0.91274 0.57122 0.9844 0.0
C399 C 0.91017 0.55814 0.92746 0.0
C400 C 0.89381 0.60586 0.78086 0.0
C401 C 0.92416 0.56995 0.76129 0.0
C402 C 0.88153 0.57484 0.80533 0.0
N403 N 0.89639 0.557 0.79471 0.0
C404 C 0.93716 0.60088 0.73606 0.0
C405 C 0.92174 0.61885 0.74574 0.0
C406 C 0.87459 0.46936 0.72859 0.0
C407 C 0.77397 0.37949 0.88049 0.0
C408 C 0.81877 0.38377 0.79667 0.0
C409 C 0.78618 0.35948 0.79107 0.0
C410 C 0.76367 0.35743 0.83325 0.0
N411 N 0.82866 0.40544 0.8429 0.0
C412 C 0.80678 0.40338 0.88475 0.0
Co413 Co 0.37347 0.87861 0.97385 0.0
Co414 Co 0.44177 0.87896 0.03116 0.0
O415 O 0.39447 0.86259 0.02948 0.0
C416 C 0.32856 0.8052 0.98155 0.0
O417 O 0.34745 0.80338 0.02217 0.0
C418 C 0.41981 0.86859 0.1601 0.0
O419 O 0.38955 0.85818 0.14444 0.0
O420 O 0.45044 0.92425 0.03805 0.0
O421 O 0.41052 0.9248 0.98472 0.0
H422 H 0.55786 0.95531 0.97214 0.0
H423 H 0.3345 0.83939 0.0799 0.0
O424 O 0.33522 0.83284 0.96 0.0
H425 H 0.34001 0.94521 0.09821 0.0
H426 H 0.28036 0.88761 0.88602 0.0
H427 H 0.39654 0.92165 0.86775 0.0
H428 H 0.36567 0.93415 0.01303 0.0
H429 H 0.30634 0.86838 0.95791 0.0
O430 O 0.44206 0.87668 0.12101 0.0
H431 H 0.49848 0.93306 0.97022 0.0
H432 H 0.48533 0.8612 0.09745 0.0
H433 H 0.37184 0.94205 0.79538 0.0
H434 H 0.30807 0.8492 0.16486 0.0
H435 H 0.31326 0.92497 0.8042 0.0
H436 H 0.3108 0.90254 0.1749 0.0
O437 O 0.39577 0.87129 0.90539 0.0
H438 H 0.38438 0.75878 0.07664 0.0
H439 H 0.46858 0.84691 0.95413 0.0
H440 H 0.45695 0.79078 0.93926 0.0
H441 H 0.4146 0.74617 0.00082 0.0
H442 H 0.39652 0.81511 0.08953 0.0
H443 H 0.54459 0.88283 0.10129 0.0
H444 H 0.5813 0.93015 0.03809 0.0
O445 O 0.44428 0.88252 0.94264 0.0
C446 C 0.43721 0.93921 0.01434 0.0
C447 C 0.54212 0.93459 -0.0003 0.0
C448 C 0.53467 0.89395 0.07225 0.0
N449 N 0.4884 0.89564 0.0332 0.0
C450 C 0.50845 0.92181 -0.00138 0.0
C451 C 0.50113 0.88184 0.07 0.0
C452 C 0.55525 0.9205 0.03677 0.0
C453 C 0.33552 0.86241 0.08286 0.0
N454 N 0.35159 0.88593 0.04075 0.0
C455 C 0.32061 0.86796 0.13161 0.0
C456 C 0.3222 0.8979 0.13731 0.0
C457 C 0.33861 0.92184 0.09436 0.0
C458 C 0.35324 0.91542 0.04625 0.0
C459 C 0.30595 0.89538 0.88186 0.0
C460 C 0.37126 0.91458 0.87254 0.0
C461 C 0.32078 0.88447 0.92242 0.0
N462 N 0.35314 0.89435 0.91785 0.0
C463 C 0.35729 0.92599 0.83111 0.0
C464 C 0.32442 0.91634 0.83599 0.0
C465 C 0.42458 0.87619 0.89949 0.0
C466 C 0.40302 0.77801 0.04972 0.0
C467 C 0.45011 0.82774 0.98127 0.0
C468 C 0.44367 0.79595 0.97261 0.0
C469 C 0.41992 0.77094 0.00713 0.0
N470 N 0.43345 0.83458 0.02324 0.0
C471 C 0.4101 0.8101 0.05702 0.0
Co472 Co 0.50628 0.36757 0.15083 0.0
Co473 Co 0.57072 0.43859 0.20647 0.0
O474 O 0.54294 0.39109 0.20611 0.0
C475 C 0.5448 0.33372 0.14265 0.0
O476 O 0.57147 0.36192 0.14827 0.0
C477 C 0.55164 0.42202 0.33264 0.0
O478 O 0.52221 0.40073 0.31497 0.0
O479 O 0.53134 0.44345 0.21294 0.0
O480 O 0.49365 0.40219 0.1574 0.0
H481 H 0.60157 0.55315 0.15152 0.0
H482 H 0.51188 0.3333 0.25685 0.0
O483 O 0.517 0.33168 0.14292 0.0
H484 H 0.40587 0.32776 0.27785 0.0
H485 H 0.40955 0.26745 0.06653 0.0
H486 H 0.48161 0.38574 0.04439 0.0
H487 H 0.44082 0.35468 0.19069 0.0
H488 H 0.45479 0.29796 0.13712 0.0
O489 O 0.57392 0.4386 0.29524 0.0
H490 H 0.56773 0.49344 0.14916 0.0
H491 H 0.6315 0.48493 0.2713 0.0
H492 H 0.43649 0.35634 0.97314 0.0
H493 H 0.47748 0.30564 0.34429 0.0
H494 H 0.40004 0.2967 0.98401 0.0
H495 H 0.42409 0.30289 0.35534 0.0
O496 O 0.5351 0.39058 0.08154 0.0
H497 H 0.64111 0.39133 0.26205 0.0
H498 H 0.62955 0.46729 0.12789 0.0
H499 H 0.67722 0.46004 0.11772 0.0
H500 H 0.68335 0.42198 0.18534 0.0
H501 H 0.5934 0.39874 0.26947 0.0
H502 H 0.66593 0.54461 0.2756 0.0
H503 H 0.65115 0.57917 0.21514 0.0
O504 O 0.56927 0.44057 0.11766 0.0
C505 C 0.50382 0.4288 0.18624 0.0
C506 C 0.60848 0.53836 0.17759 0.0
C507 C 0.64455 0.53357 0.2473 0.0
N508 N 0.59803 0.48562 0.20864 0.0
C509 C 0.58951 0.50449 0.17599 0.0
C510 C 0.62497 0.49977 0.24459 0.0
C511 C 0.63624 0.55294 0.2134 0.0
C512 C 0.48852 0.33178 0.26093 0.0
N513 N 0.47834 0.3454 0.21852 0.0
C514 C 0.46921 0.31627 0.31072 0.0
C515 C 0.43929 0.31479 0.31694 0.0
C516 C 0.42906 0.32875 0.27351 0.0
C517 C 0.44902 0.34405 0.22432 0.0
C518 C 0.42511 0.29347 0.06158 0.0
C519 C 0.46557 0.35996 0.04998 0.0
C520 C 0.45076 0.31089 0.10144 0.0
N521 N 0.47038 0.3438 0.09572 0.0
C522 C 0.44018 0.34336 0.00924 0.0
C523 C 0.41979 0.30989 0.01528 0.0
C524 C 0.55702 0.42034 0.07482 0.0
C525 C 0.63883 0.40814 0.23256 0.0
C526 C 0.63188 0.45049 0.15724 0.0
C527 C 0.65902 0.4466 0.15141 0.0
C528 C 0.66247 0.42527 0.18941 0.0
N529 N 0.60879 0.43361 0.19973 0.0
C530 C 0.61201 0.41265 0.23702 0.0
Co531 Co 0.13675 0.49511 0.31223 0.0
Co532 Co 0.13562 0.56203 0.36909 0.0
O533 O 0.15221 0.53159 0.36886 0.0
C534 C 0.20949 0.52705 0.31232 0.0
O535 O 0.21035 0.55503 0.30931 0.0
C536 C 0.13169 0.54266 0.49636 0.0
O537 O 0.12334 0.51312 0.47953 0.0
O538 O 0.09006 0.52465 0.37484 0.0
O539 O 0.0908 0.48686 0.31557 0.0
H540 H 0.05796 0.60065 0.31272 0.0
H541 H 0.1729 0.49515 0.4206 0.0
O542 O 0.18193 0.50106 0.30846 0.0
H543 H 0.06587 0.3951 0.43461 0.0
H544 H 0.12829 0.39283 0.22739 0.0
H545 H 0.09657 0.47626 0.20221 0.0
H546 H 0.07906 0.43189 0.34846 0.0
H547 H 0.14587 0.43742 0.30012 0.0
O548 O 0.1382 0.5649 0.45828 0.0
H549 H 0.07996 0.56347 0.31127 0.0
H550 H 0.15409 0.62383 0.43378 0.0
H551 H 0.07796 0.43183 0.1288 0.0
H552 H 0.16092 0.45867 0.50695 0.0
H553 H 0.09389 0.38971 0.14105 0.0
H554 H 0.107 0.40832 0.51454 0.0
O555 O 0.14664 0.52555 0.24355 0.0
H556 H 0.25324 0.627 0.43 0.0
H557 H 0.1697 0.6207 0.29075 0.0
H558 H 0.22593 0.6665 0.28317 0.0
H559 H 0.26812 0.67005 0.35353 0.0
H560 H 0.19695 0.58082 0.43415 0.0
H561 H 0.13271 0.66156 0.43728 0.0
H562 H 0.08442 0.6502 0.37613 0.0
O563 O 0.13294 0.56116 0.27994 0.0
C564 C 0.07565 0.49785 0.34597 0.0
C565 C 0.07925 0.60609 0.33904 0.0
C566 C 0.12115 0.64022 0.40902 0.0
N567 N 0.11888 0.59189 0.37081 0.0
C568 C 0.09199 0.58522 0.3379 0.0
C569 C 0.13318 0.61878 0.40674 0.0
C570 C 0.09405 0.63383 0.37473 0.0
C571 C 0.14956 0.47305 0.42307 0.0
N572 N 0.12681 0.46563 0.37927 0.0
C573 C 0.14284 0.45258 0.47229 0.0
C574 C 0.11256 0.42437 0.47658 0.0
C575 C 0.08947 0.41695 0.43178 0.0
C576 C 0.09705 0.43797 0.38318 0.0
C577 C 0.12117 0.41102 0.22155 0.0
C578 C 0.10337 0.45792 0.2082 0.0
C579 C 0.13121 0.43645 0.26251 0.0
N580 N 0.12218 0.45943 0.25572 0.0
C581 C 0.09286 0.43286 0.16632 0.0
C582 C 0.10185 0.40926 0.17316 0.0
C583 C 0.14046 0.54863 0.23683 0.0
C584 C 0.23506 0.62577 0.3992 0.0
C585 C 0.18798 0.62174 0.32095 0.0
C586 C 0.21976 0.64788 0.31668 0.0
C587 C 0.24341 0.64989 0.35621 0.0
N588 N 0.17997 0.59815 0.36329 0.0
C589 C 0.2031 0.59981 0.40174 0.0
Co590 Co 0.64582 0.13295 0.49223 0.0
Co591 Co 0.5752 0.12905 0.54292 0.0
O592 O 0.6225 0.14687 0.5461 0.0
C593 C 0.68448 0.20587 0.49265 0.0
O594 O 0.65677 0.20566 0.49125 0.0
C595 C 0.58986 0.12505 0.66992 0.0
O596 O 0.61259 0.11882 0.65319 0.0
O597 O 0.56764 0.0839 0.54736 0.0
O598 O 0.60922 0.08624 0.49529 0.0
H599 H 0.4612 0.05184 0.47323 0.0
H600 H 0.67977 0.17048 0.60095 0.0
O601 O 0.6839 0.17882 0.48865 0.0
H602 H 0.67646 0.06557 0.62176 0.0
H603 H 0.74406 0.12912 0.41795 0.0
H604 H 0.62888 0.09431 0.38037 0.0
H605 H 0.65307 0.07691 0.5329 0.0
H606 H 0.71391 0.1449 0.4867 0.0
O607 O 0.57314 0.13024 0.63185 0.0
H608 H 0.52072 0.07528 0.4765 0.0
H609 H 0.52905 0.14402 0.60656 0.0
H610 H 0.65784 0.07743 0.31092 0.0
H611 H 0.7041 0.1604 0.68987 0.0
H612 H 0.71594 0.0949 0.32946 0.0
H613 H 0.70238 0.10755 0.7009 0.0
O614 O 0.62557 0.14171 0.42141 0.0
H615 H 0.62491 0.24553 0.60852 0.0
H616 H 0.55157 0.16339 0.46313 0.0
H617 H 0.5617 0.21946 0.45609 0.0
H618 H 0.59846 0.26096 0.52935 0.0
H619 H 0.61494 0.18942 0.61273 0.0
H620 H 0.46955 0.12115 0.6052 0.0
H621 H 0.43521 0.07481 0.53798 0.0
O622 O 0.57534 0.12742 0.45409 0.0
C623 C 0.58183 0.07027 0.52208 0.0
C624 C 0.47591 0.07216 0.50244 0.0
C625 C 0.4806 0.11103 0.57657 0.0
N626 N 0.52843 0.11133 0.54087 0.0
C627 C 0.50966 0.08564 0.50422 0.0
C628 C 0.51428 0.12387 0.57714 0.0
C629 C 0.46134 0.08503 0.53884 0.0
C630 C 0.6794 0.14764 0.60485 0.0
N631 N 0.66517 0.12443 0.56148 0.0
C632 C 0.69302 0.14197 0.65556 0.0
C633 C 0.69197 0.11229 0.66179 0.0
C634 C 0.67739 0.08871 0.61745 0.0
C635 C 0.66402 0.09523 0.56734 0.0
C636 C 0.71869 0.12115 0.40958 0.0
C637 C 0.65389 0.10148 0.38942 0.0
C638 C 0.70147 0.13006 0.44839 0.0
N639 N 0.66935 0.11991 0.43846 0.0
C640 C 0.6703 0.09209 0.34962 0.0
C641 C 0.70291 0.10195 0.35996 0.0
C642 C 0.59633 0.13533 0.4127 0.0
C643 C 0.60879 0.22765 0.57642 0.0
C644 C 0.5679 0.18135 0.4948 0.0
C645 C 0.5734 0.21305 0.49076 0.0
C646 C 0.59399 0.23631 0.53192 0.0
N647 N 0.58261 0.17307 0.53846 0.0
C648 C 0.60289 0.19577 0.57885 0.0
Co649 Co 0.51588 0.64576 0.65916 0.0
Co650 Co 0.44712 0.57924 0.71647 0.0
O651 O 0.47875 0.62572 0.71323 0.0
C652 C 0.47714 0.67701 0.62876 0.0
O653 O 0.45153 0.64779 0.62556 0.0
C654 C 0.47005 0.59819 0.84104 0.0
O655 O 0.49849 0.62113 0.82214 0.0
O656 O 0.4828 0.56829 0.71774 0.0
O657 O 0.5268 0.61106 0.67681 0.0
H658 H 0.40174 0.46192 0.6609 0.0
H659 H 0.5101 0.68628 0.75402 0.0
O660 O 0.50515 0.68092 0.64101 0.0
H661 H 0.614 0.68994 0.79373 0.0
H662 H 0.61256 0.74103 0.56348 0.0
H663 H 0.546 0.62149 0.57199 0.0
H664 H 0.57984 0.65902 0.70804 0.0
H665 H 0.56558 0.71442 0.63162 0.0
O666 O 0.44761 0.58014 0.80493 0.0
H667 H 0.43995 0.52098 0.6544 0.0
H668 H 0.38787 0.53817 0.78997 0.0
H669 H 0.59305 0.64706 0.504 0.0
H670 H 0.54366 0.71791 0.83972 0.0
H671 H 0.62662 0.70728 0.49917 0.0
H672 H 0.59602 0.71976 0.86022 0.0
O673 O 0.48858 0.61971 0.5902 0.0
H674 H 0.3959 0.64459 0.78086 0.0
H675 H 0.38216 0.55363 0.65523 0.0
H676 H 0.34025 0.56953 0.65317 0.0
H677 H 0.34689 0.61537 0.7165 0.0
H678 H 0.43747 0.62811 0.7806 0.0
H679 H 0.34916 0.47931 0.79805 0.0
H680 H 0.35588 0.44075 0.73301 0.0
O681 O 0.44503 0.57647 0.62751 0.0
C682 C 0.51232 0.5827 0.69986 0.0
C683 C 0.39842 0.47849 0.68921 0.0
C684 C 0.36891 0.48825 0.76617 0.0
N685 N 0.41579 0.53305 0.7209 0.0
C686 C 0.41994 0.51195 0.68566 0.0
C687 C 0.39089 0.52156 0.76133 0.0
C688 C 0.37272 0.46663 0.72971 0.0
C689 C 0.533 0.68736 0.7621 0.0
N690 N 0.543 0.67097 0.7258 0.0
C691 C 0.55185 0.70514 0.81094 0.0
C692 C 0.58118 0.70611 0.82249 0.0
C693 C 0.59126 0.68936 0.78524 0.0
C694 C 0.57175 0.67181 0.73685 0.0
C695 C 0.59808 0.71477 0.56509 0.0
C696 C 0.56069 0.64768 0.57075 0.0
C697 C 0.57133 0.69956 0.60336 0.0
N698 N 0.55297 0.66641 0.60572 0.0
C699 C 0.58722 0.66204 0.53187 0.0
C700 C 0.60599 0.69582 0.5291 0.0
C701 C 0.46199 0.59298 0.58319 0.0
C702 C 0.39276 0.62467 0.75283 0.0
C703 C 0.38568 0.57392 0.68177 0.0
C704 C 0.36162 0.58265 0.68103 0.0
C705 C 0.36531 0.60831 0.71667 0.0
N706 N 0.41273 0.59024 0.71682 0.0
C707 C 0.41625 0.61518 0.75247 0.0
C708 C 0.54509 0.11162 0.27084 0.0
C709 C 0.56254 0.14013 0.23592 0.0
C710 C 0.60054 0.16668 0.31929 0.0
C711 C 0.58537 0.13692 0.35127 0.0
N712 N 0.54523 0.07975 0.35486 0.0
N713 N 0.60875 0.19414 0.22463 0.0
C714 C 0.55804 0.10909 0.32648 0.0
C715 C 0.59085 0.16744 0.2595 0.0
N716 N 0.51592 0.08694 0.25102 0.0
N717 N 0.62293 0.19467 0.34707 0.0
H718 H 0.60132 0.19654 0.18223 0.0
H719 H 0.63186 0.21291 0.23616 0.0
H720 H 0.63006 0.19526 0.3912 0.0
H721 H 0.6321 0.21772 0.32851 0.0
H722 H 0.49998 0.06726 0.27728 0.0
H723 H 0.50655 0.0874 0.2094 0.0
H724 H 0.52815 0.05778 0.33562 0.0
H725 H 0.55351 0.07687 0.39613 0.0
C726 C 0.40726 0.55183 0.44631 0.0
C727 C 0.43019 0.5543 0.40326 0.0
C728 C 0.47317 0.58911 0.47221 0.0
C729 C 0.4506 0.58009 0.52061 0.0
N730 N 0.39483 0.53859 0.54887 0.0
N731 N 0.48524 0.56493 0.38942 0.0
C732 C 0.41708 0.55733 0.50685 0.0
C733 C 0.46329 0.56954 0.4206 0.0
N734 N 0.37659 0.54481 0.43085 0.0
N735 N 0.50295 0.61671 0.47201 0.0
H736 H 0.47786 0.54723 0.35638 0.0
H737 H 0.50947 0.57506 0.40297 0.0
H738 H 0.50893 0.63651 0.49945 0.0
H739 H 0.51893 0.62264 0.43606 0.0
H740 H 0.36034 0.54471 0.46234 0.0
H741 H 0.36897 0.54347 0.38678 0.0
H742 H 0.37062 0.52218 0.53799 0.0
H743 H 0.40136 0.53343 0.58972 0.0
C744 C 0.89838 0.48118 0.62463 0.0
C745 C 0.87167 0.46249 0.663 0.0
C746 C 0.84359 0.42412 0.58062 0.0
C747 C 0.87284 0.43928 0.54714 0.0
N748 N 0.92881 0.48216 0.53753 0.0
N749 N 0.81713 0.41764 0.67601 0.0
C750 C 0.90031 0.46804 0.56884 0.0
C751 C 0.8437 0.43441 0.64034 0.0
N752 N 0.92153 0.51186 0.64063 0.0
N753 N 0.81544 0.40085 0.55432 0.0
H754 H 0.81513 0.42646 0.71729 0.0
H755 H 0.79769 0.39471 0.6658 0.0
H756 H 0.81438 0.39354 0.51005 0.0
H757 H 0.79258 0.39092 0.57402 0.0
H758 H 0.94001 0.52795 0.61232 0.0
H759 H 0.91987 0.52257 0.6797 0.0
H760 H 0.95085 0.50033 0.55487 0.0
H761 H 0.93102 0.4742 0.49557 0.0
C762 C 0.43062 0.84109 0.75054 0.0
C763 C 0.4588 0.86808 0.7259 0.0
C764 C 0.46373 0.9006 0.81447 0.0
C765 C 0.43602 0.87343 0.83955 0.0
N766 N 0.39777 0.81578 0.83856 0.0
N767 N 0.50616 0.92091 0.73993 0.0
C768 C 0.42071 0.84305 0.80958 0.0
C769 C 0.47665 0.89697 0.75978 0.0
N770 N 0.41312 0.81361 0.71723 0.0
N771 N 0.47685 0.93033 0.84153 0.0
H772 H 0.51571 0.91943 0.69921 0.0
H773 H 0.52221 0.94088 0.76555 0.0
H774 H 0.46838 0.93396 0.88199 0.0
H775 H 0.4944 0.9519 0.82181 0.0
H776 H 0.3901 0.79483 0.72908 0.0
H777 H 0.42104 0.81035 0.67591 0.0
H778 H 0.38827 0.79234 0.82168 0.0
H779 H 0.39016 0.81616 0.88209 0.0
C780 C 0.5872 0.42097 0.98201 0.0
C781 C 0.56906 0.43245 0.01378 0.0
C782 C 0.56785 0.46194 0.92531 0.0
C783 C 0.5886 0.45329 0.89511 0.0
N784 N 0.61778 0.42395 0.89305 0.0
N785 N 0.54943 0.4705 0.01985 0.0
C786 C 0.59834 0.43269 0.92315 0.0
C787 C 0.56172 0.45502 0.9868 0.0
N788 N 0.59377 0.3989 0.00822 0.0
N789 N 0.5525 0.47533 0.89486 0.0
H790 H 0.54425 0.46612 0.06501 0.0
H791 H 0.54734 0.48996 0.00373 0.0
H792 H 0.55496 0.47941 0.84912 0.0
H793 H 0.53438 0.47882 0.91356 0.0
H794 H 0.60332 0.38639 0.98583 0.0
H795 H 0.58863 0.39221 0.05283 0.0
H796 H 0.6291 0.41229 0.91244 0.0
H797 H 0.6234 0.42927 0.84812 0.0
C798 C 0.16995 0.57532 0.14088 0.0
C799 C 0.14092 0.56131 0.17558 0.0
C800 C 0.11246 0.57186 0.09424 0.0
C801 C 0.14143 0.58601 0.06013 0.0
N802 N 0.19909 0.60705 0.05352 0.0
N803 N 0.08559 0.55005 0.18829 0.0
C804 C 0.17057 0.5893 0.08416 0.0
C805 C 0.11258 0.56091 0.1532 0.0
N806 N 0.19702 0.5755 0.16227 0.0
N807 N 0.08433 0.56758 0.06916 0.0
H808 H 0.08296 0.53851 0.22887 0.0
H809 H 0.06624 0.55379 0.17878 0.0
H810 H 0.08377 0.57689 0.02748 0.0
H811 H 0.0613 0.55329 0.08753 0.0
H812 H 0.21747 0.58131 0.13658 0.0
H813 H 0.19872 0.56851 0.20553 0.0
H814 H 0.22193 0.61323 0.0703 0.0
H815 H 0.20028 0.61804 0.01251 0.0
C816 C 0.54652 0.29253 0.07504 0.0
C817 C 0.54692 0.30393 0.13378 0.0
C818 C 0.54622 0.25579 0.17555 0.0
C819 C 0.54722 0.24513 0.11679 0.0
N820 N 0.55671 0.25715 0.01181 0.0
N821 N 0.55395 0.30036 0.23961 0.0
C822 C 0.54979 0.26461 0.06679 0.0
C823 C 0.54887 0.28675 0.18402 0.0
N824 N 0.54257 0.30813 0.02719 0.0
N825 N 0.54194 0.23596 0.22311 0.0
H826 H 0.55621 0.32305 0.24723 0.0
H827 H 0.55876 0.2906 0.2773 0.0
H828 H 0.54085 0.21357 0.21871 0.0
H829 H 0.53732 0.24062 0.26635 0.0
H830 H 0.53844 0.29893 0.98387 0.0
H831 H 0.54113 0.32925 0.03134 0.0
H832 H 0.56181 0.27199 0.97445 0.0
H833 H 0.56083 0.2378 0.00503 0.0
C834 C 0.26818 0.49877 0.26892 0.0
C835 C 0.29897 0.52699 0.27812 0.0
C836 C 0.27147 0.55382 0.32456 0.0
C837 C 0.24069 0.52564 0.31291 0.0
N838 N 0.21464 0.46699 0.31055 0.0
N839 N 0.33035 0.57804 0.33002 0.0
C840 C 0.24029 0.49668 0.29596 0.0
C841 C 0.30081 0.55375 0.31014 0.0
N842 N 0.26502 0.47422 0.2328 0.0
N843 N 0.27275 0.57991 0.35263 0.0
H844 H 0.35206 0.57806 0.32308 0.0
H845 H 0.3333 0.59683 0.35792 0.0
H846 H 0.25321 0.57788 0.37723 0.0
H847 H 0.2933 0.60301 0.35329 0.0
H848 H 0.2424 0.45447 0.22143 0.0
H849 H 0.28438 0.47538 0.20899 0.0
H850 H 0.21423 0.44528 0.30135 0.0
H851 H 0.19719 0.46452 0.3415 0.0
C852 C 0.71779 0.26809 0.49403 0.0
C853 C 0.71652 0.23759 0.49024 0.0
C854 C 0.77212 0.26463 0.45105 0.0
C855 C 0.77246 0.29466 0.44834 0.0
N856 N 0.74606 0.32574 0.46986 0.0
N857 N 0.75039 0.21345 0.5025 0.0
C858 C 0.74539 0.29664 0.47072 0.0
C859 C 0.74599 0.23762 0.47976 0.0
N860 N 0.69456 0.27033 0.52622 0.0
N861 N 0.79572 0.26104 0.42328 0.0
H862 H 0.73431 0.19669 0.53333 0.0
H863 H 0.77236 0.21357 0.49942 0.0
H864 H 0.81439 0.27945 0.39855 0.0
H865 H 0.79454 0.23861 0.4192 0.0
H866 H 0.69451 0.29187 0.53401 0.0
H867 H 0.67778 0.25126 0.55276 0.0
H868 H 0.72576 0.32816 0.47743 0.0
H869 H 0.76679 0.3477 0.45925 0.0
C870 C 0.4726 0.75343 0.65852 0.0
C871 C 0.47091 0.76326 0.59943 0.0
C872 C 0.47285 0.71622 0.55934 0.0
C873 C 0.47346 0.70581 0.61849 0.0
N874 N 0.46545 0.70957 0.72378 0.0
N875 N 0.46105 0.75012 0.49483 0.0
C876 C 0.47084 0.72298 0.66801 0.0
C877 C 0.46854 0.74347 0.55009 0.0
N878 N 0.47654 0.77349 0.70547 0.0
N879 N 0.47711 0.7005 0.51211 0.0
H880 H 0.45634 0.76904 0.48739 0.0
H881 H 0.45617 0.73503 0.45794 0.0
H882 H 0.47952 0.67997 0.51717 0.0
H883 H 0.48051 0.70907 0.46838 0.0
H884 H 0.4817 0.76942 0.7488 0.0
H885 H 0.47678 0.79544 0.70045 0.0
H886 H 0.46027 0.71937 0.76091 0.0
H887 H 0.46285 0.68677 0.73173 0.0
C888 C 0.7237 0.47303 0.83034 0.0
C889 C 0.71716 0.48032 0.77217 0.0
C890 C 0.77131 0.49193 0.73919 0.0
C891 C 0.77653 0.48171 0.79566 0.0
N892 N 0.7559 0.45769 0.89217 0.0
N893 N 0.73193 0.49036 0.66825 0.0
C894 C 0.75213 0.47073 0.84039 0.0
C895 C 0.74028 0.48821 0.72577 0.0
N896 N 0.70342 0.46958 0.87655 0.0
N897 N 0.79598 0.5051 0.69827 0.0
H898 H 0.70884 0.48599 0.65663 0.0
H899 H 0.74648 0.493 0.63152 0.0
H900 H 0.81859 0.507 0.70544 0.0
H901 H 0.79489 0.51636 0.65909 0.0
H902 H 0.70855 0.46751 0.92104 0.0
H903 H 0.68279 0.47179 0.87113 0.0
H904 H 0.73743 0.44594 0.92355 0.0
H905 H 0.77671 0.45637 0.90178 0.0
C906 C 0.24208 0.74638 0.92702 0.0
C907 C 0.24129 0.71612 0.92848 0.0
C908 C 0.29949 0.74549 0.95372 0.0
C909 C 0.29855 0.77467 0.96248 0.0
N910 N 0.26451 0.7988 0.9744 0.0
N911 N 0.2686 0.68683 0.95846 0.0
C912 C 0.26857 0.77403 0.954 0.0
C913 C 0.26982 0.7156 0.9463 0.0
N914 N 0.21875 0.74946 0.89702 0.0
N915 N 0.32858 0.74623 0.94978 0.0
H916 H 0.24708 0.66446 0.95753 0.0
H917 H 0.28829 0.68568 0.97636 0.0
H918 H 0.35096 0.76776 0.95038 0.0
H919 H 0.33027 0.72585 0.93852 0.0
H920 H 0.21978 0.77177 0.89171 0.0
H921 H 0.20118 0.73084 0.87069 0.0
H922 H 0.2422 0.79806 0.97237 0.0
H923 H 0.28193 0.81762 0.00054 0.0
C924 C 0.55573 0.09994 0.76051 0.0
C925 C 0.58336 0.12639 0.73371 0.0
C926 C 0.59352 0.15864 0.82436 0.0
C927 C 0.56774 0.13118 0.85318 0.0
N928 N 0.53004 0.07329 0.85309 0.0
N929 N 0.63213 0.17874 0.74265 0.0
C930 C 0.55034 0.1011 0.8225 0.0
C931 C 0.60352 0.155 0.76659 0.0
N932 N 0.53446 0.07389 0.72677 0.0
N933 N 0.60721 0.18855 0.85064 0.0
H934 H 0.63995 0.17717 0.69991 0.0
H935 H 0.64939 0.19861 0.76704 0.0
H936 H 0.59923 0.19238 0.8914 0.0
H937 H 0.62387 0.20998 0.82929 0.0
H938 H 0.51216 0.05558 0.74287 0.0
H939 H 0.53785 0.07188 0.6813 0.0
H940 H 0.51906 0.05023 0.83386 0.0
H941 H 0.52707 0.07281 0.89927 0.0
C942 C 0.46234 0.61501 0.94278 0.0
C943 C 0.4632 0.59156 0.90503 0.0
C944 C 0.43555 0.54938 0.9806 0.0
C945 C 0.43671 0.57319 0.02028 0.0
N946 N 0.45522 0.62962 0.04272 0.0
N947 N 0.45832 0.53895 0.89238 0.0
C948 C 0.4516 0.60637 0.00262 0.0
C949 C 0.45213 0.55948 0.92537 0.0
N950 N 0.46984 0.6448 0.9206 0.0
N951 N 0.41827 0.5171 -0.00498 0.0
H952 H 0.47127 0.54597 0.8523 0.0
H953 H 0.45371 0.51631 0.90761 0.0
H954 H 0.40579 0.50846 0.03513 0.0
H955 H 0.41383 0.4986 0.96496 0.0
H956 H 0.46575 0.66138 0.94387 0.0
H957 H 0.47798 0.6522 0.87709 0.0
H958 H 0.46959 0.65448 0.03472 0.0
H959 H 0.44537 0.62419 0.08546 0.0
C960 C 0.85128 0.43794 0.08029 0.0
C961 C 0.8744 0.43587 0.04323 0.0
C962 C 0.88885 0.41096 0.12531 0.0
C963 C 0.86598 0.41346 0.16267 0.0
N964 N 0.81999 0.42156 0.17175 0.0
N965 N 0.91252 0.41713 0.0266 0.0
C966 C 0.84579 0.42495 0.13906 0.0
C967 C 0.89221 0.42116 0.06451 0.0
N968 N 0.83427 0.45209 0.05908 0.0
N969 N 0.90845 0.40025 0.14864 0.0
H970 H 0.91806 0.42686 0.98363 0.0
H971 H 0.9229 0.40289 0.03631 0.0
H972 H 0.90534 0.39038 0.19123 0.0
H973 H 0.92869 0.40213 0.12697 0.0
H974 H 0.82091 0.45896 0.08609 0.0
H975 H 0.83445 0.4583 0.01439 0.0
H976 H 0.80227 0.42638 0.15561 0.0
H977 H 0.81425 0.41056 0.21347 0.0
C978 C 0.43698 0.89605 0.32235 0.0
C979 C 0.44796 0.87528 0.34465 0.0
C980 C 0.44149 0.85079 0.24587 0.0
C981 C 0.42837 0.87002 0.22418 0.0
N982 N 0.40928 0.90774 0.24364 0.0
N983 N 0.45498 0.82881 0.33187 0.0
C984 C 0.42462 0.89155 0.26309 0.0
C985 C 0.44884 0.85164 0.30753 0.0
N986 N 0.43977 0.92105 0.35699 0.0
N987 N 0.44685 0.83153 0.20775 0.0
H988 H 0.46003 0.82831 0.37706 0.0
H989 H 0.45228 0.80863 0.30866 0.0
H990 H 0.43905 0.82757 0.16363 0.0
H991 H 0.46063 0.8208 0.21896 0.0
H992 H 0.43571 0.93932 0.34119 0.0
H993 H 0.44894 0.92526 0.40048 0.0
H994 H 0.40236 0.92061 0.27187 0.0
H995 H 0.40127 0.90659 0.1999 0.0
C996 C 0.59186 0.43434 0.48309 0.0
C997 C 0.57971 0.45225 0.51316 0.0
C998 C 0.54918 0.45073 0.42413 0.0
C999 C 0.55869 0.42999 0.39633 0.0
N1000 N 0.583 0.39617 0.4037 0.0
N1001 N 0.54129 0.4714 0.51752 0.0
C1002 C 0.57824 0.41999 0.42715 0.0
C1003 C 0.55669 0.45866 0.48527 0.0
N1004 N 0.61705 0.43193 0.50705 0.0
N1005 N 0.53418 0.46386 0.39168 0.0
H1006 H 0.54565 0.47678 0.5629 0.0
H1007 H 0.52205 0.47368 0.50072 0.0
H1008 H 0.52895 0.45914 0.34633 0.0
H1009 H 0.52966 0.48168 0.40837 0.0
H1010 H 0.62874 0.42148 0.48456 0.0
H1011 H 0.62848 0.44349 0.54676 0.0
H1012 H 0.59484 0.38597 0.42658 0.0
H1013 H 0.57188 0.38412 0.36412 0.0
C1014 C 0.16147 0.56699 0.59124 0.0
C1015 C 0.13156 0.55029 0.56012 0.0
C1016 C 0.10259 0.55239 0.64892 0.0
C1017 C 0.13297 0.57231 0.67752 0.0
N1018 N 0.19125 0.60549 0.66967 0.0
N1019 N 0.07411 0.53184 0.55499 0.0
C1020 C 0.16246 0.5815 0.64703 0.0
C1021 C 0.10217 0.5443 0.58769 0.0
N1022 N 0.1888 0.56856 0.56795 0.0
N1023 N 0.07425 0.54037 0.68055 0.0
H1024 H 0.07296 0.52576 0.50997 0.0
H1025 H 0.05271 0.5301 0.57107 0.0
H1026 H 0.07354 0.54556 0.72559 0.0
H1027 H 0.05169 0.52306 0.66352 0.0
H1028 H 0.21071 0.57813 0.59125 0.0
H1029 H 0.18848 0.55705 0.52809 0.0
H1030 H 0.21331 0.61499 0.64697 0.0
H1031 H 0.19224 0.61877 0.70737 0.0
C1032 C 0.47072 0.03055 0.98825 0.0
C1033 C 0.48765 0.04378 0.04253 0.0
C1034 C 0.46558 0.98845 0.08169 0.0
C1035 C 0.45337 0.97527 0.02404 0.0
N1036 N 0.45072 0.98576 0.91895 0.0
N1037 N 0.5053 0.03492 0.13815 0.0
C1038 C 0.45743 0.99683 0.97635 0.0
C1039 C 0.48635 0.0226 0.08842 0.0
N1040 N 0.46709 0.05005 0.94795 0.0
N1041 N 0.45609 0.96867 0.13073 0.0
H1042 H 0.5208 0.05974 0.14444 0.0
H1043 H 0.50777 0.02039 0.17023 0.0
H1044 H 0.43911 0.94392 0.12856 0.0
H1045 H 0.46198 0.97748 0.17428 0.0
H1046 H 0.4521 0.04106 0.91047 0.0
H1047 H 0.47675 0.07484 0.95491 0.0
H1048 H 0.4564 1.00109 0.88212 0.0
H1049 H 0.44304 0.96183 0.90754 0.0
C1050 C 0.47338 0.45512 0.14091 0.0
C1051 C 0.48196 0.44291 0.1916 0.0
C1052 C 0.45976 0.46807 0.25787 0.0
C1053 C 0.45144 0.48059 0.20756 0.0
N1054 N 0.44296 0.47963 0.10135 0.0
N1055 N 0.47085 0.42674 0.29447 0.0
C1056 C 0.4562 0.47233 0.14899 0.0
C1057 C 0.47157 0.44624 0.24907 0.0
N1058 N 0.48174 0.45046 0.08509 0.0
N1059 N 0.45732 0.4777 0.31418 0.0
H1060 H 0.47653 0.40849 0.28756 0.0
H1061 H 0.46079 0.42587 0.33624 0.0
H1062 H 0.44869 0.4936 0.32266 0.0
H1063 H 0.46647 0.47209 0.35187 0.0
H1064 H 0.48053 0.46252 0.04718 0.0
H1065 H 0.49086 0.43503 0.07694 0.0
H1066 H 0.44245 0.47143 0.05804 0.0
H1067 H 0.42987 0.49172 0.10603 0.0
C1068 C 0.02598 0.46754 0.4099 0.0
C1069 C 0.03951 0.47716 0.35209 0.0
C1070 C 0.98406 0.44995 0.31039 0.0
C1071 C 0.97109 0.44643 0.36891 0.0
N1072 N 0.98095 0.45504 0.47518 0.0
N1073 N 0.03101 0.47589 0.2455 0.0
C1074 C 0.99239 0.45598 0.41893 0.0
C1075 C 0.01843 0.46777 0.3017 0.0
N1076 N 0.04484 0.46725 0.45566 0.0
N1077 N 0.96361 0.43453 0.26348 0.0
H1078 H 0.05558 0.48545 0.2365 0.0
H1079 H 0.01719 0.47417 0.20803 0.0
H1080 H 0.93853 0.41998 0.26866 0.0
H1081 H 0.97161 0.43324 0.22084 0.0
H1082 H 0.03567 0.45764 0.49772 0.0
H1083 H 0.06869 0.4726 0.44888 0.0
H1084 H 0.99615 0.4653 0.51208 0.0
H1085 H 0.95657 0.44659 0.48417 0.0
C1086 C 0.53185 0.98461 0.58519 0.0
C1087 C 0.53011 0.96502 0.53619 0.0
C1088 C 0.56226 0.01418 0.47602 0.0
C1089 C 0.56607 0.03395 0.52671 0.0
N1090 N 0.56387 0.03625 0.63421 0.0
N1091 N 0.55014 0.96131 0.43938 0.0
C1092 C 0.55346 0.01866 0.58268 0.0
C1093 C 0.54744 0.97986 0.48304 0.0
N1094 N 0.51274 0.97089 0.63421 0.0
N1095 N 0.57119 0.02764 0.42054 0.0
H1096 H 0.53952 0.93621 0.44294 0.0
H1097 H 0.56544 0.9711 0.40257 0.0
H1098 H 0.58192 0.05239 0.41279 0.0
H1099 H 0.56531 0.01396 0.38144 0.0
H1100 H 0.51067 0.98454 0.66857 0.0
H1101 H 0.49684 0.94597 0.63791 0.0
H1102 H 0.55765 0.02579 0.67657 0.0
H1103 H 0.58213 0.0605 0.63454 0.0
C1104 C 0.56167 0.54713 0.76761 0.0
C1105 C 0.56879 0.53439 0.7158 0.0
C1106 C 0.53754 0.55226 0.65454 0.0
C1107 C 0.53126 0.56568 0.70579 0.0
N1108 N 0.54404 0.58306 0.80811 0.0
N1109 N 0.57375 0.53673 0.60869 0.0
C1110 C 0.54522 0.56514 0.76152 0.0
C1111 C 0.55951 0.54023 0.65881 0.0
N1112 N 0.56996 0.54168 0.82296 0.0
N1113 N 0.52228 0.55063 0.60177 0.0
H1114 H 0.59234 0.5312 0.61095 0.0
H1115 H 0.57025 0.5434 0.56618 0.0
H1116 H 0.50619 0.55943 0.59676 0.0
H1117 H 0.52346 0.53808 0.56458 0.0
H1118 H 0.56112 0.54593 0.86246 0.0
H1119 H 0.58443 0.53138 0.82967 0.0
H1120 H 0.55693 0.58686 0.8478 0.0
H1121 H 0.53256 0.59675 0.80494 0.0
C1122 C 0.02325 0.53297 0.91291 0.0
C1123 C 0.04267 0.55558 0.86817 0.0
C1124 C 0.99326 0.53909 0.80872 0.0
C1125 C 0.97353 0.52052 0.85733 0.0
N1126 N 0.97041 0.50273 0.95943 0.0
N1127 N 0.04524 0.5834 0.77634 0.0
C1128 C 0.98872 0.51811 0.91038 0.0
C1129 C 0.02737 0.55973 0.81705 0.0
N1130 N 0.03772 0.52518 0.95756 0.0
N1131 N 0.97977 0.53523 0.75334 0.0
H1132 H 0.07026 0.59861 0.78035 0.0
H1133 H 0.03478 0.58962 0.74155 0.0
H1134 H 0.95548 0.5181 0.74501 0.0
H1135 H 0.99336 0.54587 0.71492 0.0
H1136 H 0.02493 0.50611 0.98742 0.0
H1137 H 0.06282 0.5361 0.96155 0.0
H1138 H 0.98029 0.50364 0.00146 0.0
H1139 H 0.94522 0.49122 0.95941 0.0
loop_
_geom_bond_atom_site_label_1
_geom_bond_atom_site_label_2
_geom_bond_distance
_geom_bond_site_symmetry_2
_ccdc_geom_bond_type
Co0 O2 2.143 . S
Co0 O8 2.074 . S
Co0 O11 2.093 . S
Co0 O24 2.097 . S
Co0 N41 2.151 . S
Co0 N49 2.214 . S
Co1 O2 2.160 . S
Co1 O7 2.058 . S
Co1 O17 2.057 1_554 S
Co1 O32 2.037 . S
Co1 N36 2.145 . S
Co1 N57 2.257 . S
O2 Co0 2.143 . S
O2 Co1 2.160 . S
C3 O4 1.278 . S
C3 O11 1.224 . S
O4 C3 1.278 . S
C5 O6 1.245 . S
C5 O17 1.232 . S
O6 C5 1.245 . S
O7 Co1 2.058 . S
O7 C33 1.269 . S
O8 Co0 2.074 . S
O8 C33 1.257 . S
H9 C34 0.930 . S
H10 C40 0.930 . S
O11 Co0 2.093 . S
O11 C3 1.224 . S
H12 C44 0.929 . S
H13 C46 0.930 . S
H14 C47 0.930 . S
H15 C45 0.929 . S
H16 C48 0.928 . S
O17 Co1 2.057 1_556 S
O17 C5 1.232 . S
H18 C37 0.929 . S
H19 C38 0.929 . S
H20 C50 0.931 . S
H21 C42 0.929 . S
H22 C51 0.930 . S
H23 C43 0.931 . S
O24 Co0 2.097 . S
O24 C52 1.214 . S
H25 C53 0.939 . S
H26 C54 0.929 . S
H27 C55 0.930 . S
H28 C56 0.929 . S
H29 C58 0.930 1_556 S
H30 C35 0.930 . S
H31 C39 0.930 . S
O32 Co1 2.037 . S
O32 C52 1.234 . S
C33 O7 1.269 . S
C33 O8 1.257 . S
C34 H9 0.930 . S
C34 C37 1.388 . S
C34 C39 1.418 . S
C35 H30 0.930 . S
C35 C38 1.404 . S
C35 C39 1.353 1_556 S
N36 Co1 2.145 . S
N36 C37 1.397 . S
N36 C38 1.334 1_554 S
C37 H18 0.929 . S
C37 C34 1.388 . S
C37 N36 1.397 . S
C38 H19 0.929 . S
C38 C35 1.404 . S
C38 N36 1.334 1_556 S
C39 H31 0.930 . S
C39 C34 1.418 . S
C39 C35 1.353 1_554 S
C40 H10 0.930 . S
C40 N41 1.330 . S
C40 C42 1.446 1_554 S
N41 Co0 2.151 . S
N41 C40 1.330 . S
N41 C45 1.418 . S
C42 H21 0.929 . S
C42 C40 1.446 1_556 S
C42 C43 1.332 . S
C43 H23 0.931 . S
C43 C42 1.332 . S
C43 C44 1.267 1_556 S
C44 H12 0.929 . S
C44 C43 1.267 1_554 S
C44 C45 1.251 . S
C45 H15 0.929 . S
C45 N41 1.418 . S
C45 C44 1.251 . S
C46 H13 0.930 . S
C46 C48 1.406 . S
C46 C51 1.261 . S
C47 H14 0.930 . S
C47 N49 1.325 . S
C47 C50 1.357 . S
C48 H16 0.928 . S
C48 C46 1.406 . S
C48 N49 1.261 . S
N49 Co0 2.214 . S
N49 C47 1.325 . S
N49 C48 1.261 . S
C50 H20 0.931 . S
C50 C47 1.357 . S
C50 C51 1.312 . S
C51 H22 0.930 . S
C51 C46 1.261 . S
C51 C50 1.312 . S
C52 O24 1.214 . S
C52 O32 1.234 . S
C53 H25 0.939 . S
C53 C56 1.391 . S
C53 C58 1.391 . S
C54 H26 0.929 . S
C54 C55 1.390 . S
C54 N57 1.391 . S
C55 H27 0.930 . S
C55 C54 1.390 . S
C55 C56 1.392 . S
C56 H28 0.929 . S
C56 C53 1.391 . S
C56 C55 1.392 . S
N57 Co1 2.257 . S
N57 C54 1.391 . S
N57 C58 1.388 . S
C58 H29 0.930 1_554 S
C58 C53 1.391 . S
C58 N57 1.388 . S
Co59 O61 2.143 . S
Co59 O67 2.074 . S
Co59 O70 2.093 . S
Co59 O83 2.097 . S
Co59 N100 2.151 . S
Co59 N108 2.214 . S
Co60 O61 2.160 . S
Co60 O66 2.058 . S
Co60 O76 2.057 . S
Co60 O91 2.037 . S
Co60 N95 2.145 . S
Co60 N116 2.257 . S
O61 Co59 2.143 . S
O61 Co60 2.160 . S
C62 O63 1.278 . S
C62 O70 1.224 . S
O63 C62 1.278 . S
C64 O65 1.245 . S
C64 O76 1.232 . S
O65 C64 1.245 . S
O66 Co60 2.058 . S
O66 C92 1.269 . S
O67 Co59 2.074 . S
O67 C92 1.257 . S
H68 C93 0.930 . S
H69 C99 0.930 . S
O70 Co59 2.093 . S
O70 C62 1.224 . S
H71 C103 0.929 . S
H72 C105 0.930 . S
H73 C106 0.930 . S
H74 C104 0.929 . S
H75 C107 0.928 . S
O76 Co60 2.057 . S
O76 C64 1.232 . S
H77 C96 0.929 . S
H78 C97 0.929 . S
H79 C109 0.931 . S
H80 C101 0.929 . S
H81 C110 0.930 . S
H82 C102 0.931 . S
O83 Co59 2.097 . S
O83 C111 1.214 . S
H84 C112 0.929 . S
H85 C113 0.929 . S
H86 C114 0.930 . S
H87 C115 0.929 . S
H88 C117 0.930 . S
H89 C94 0.930 . S
H90 C98 0.930 . S
O91 Co60 2.037 . S
O91 C111 1.234 . S
C92 O66 1.269 . S
C92 O67 1.257 . S
C93 H68 0.930 . S
C93 C96 1.388 . S
C93 C98 1.418 . S
C94 H89 0.930 . S
C94 C97 1.404 . S
C94 C98 1.353 . S
N95 Co60 2.145 . S
N95 C96 1.397 . S
N95 C97 1.334 . S
C96 H77 0.929 . S
C96 C93 1.388 . S
C96 N95 1.397 . S
C97 H78 0.929 . S
C97 C94 1.404 . S
C97 N95 1.334 . S
C98 H90 0.930 . S
C98 C93 1.418 . S
C98 C94 1.353 . S
C99 H69 0.930 . S
C99 N100 1.330 . S
C99 C101 1.446 . S
N100 Co59 2.151 . S
N100 C99 1.330 . S
N100 C104 1.418 . S
C101 H80 0.929 . S
C101 C99 1.446 . S
C101 C102 1.332 . S
C102 H82 0.931 . S
C102 C101 1.332 . S
C102 C103 1.267 . S
C103 H71 0.929 . S
C103 C102 1.267 . S
C103 C104 1.251 . S
C104 H74 0.929 . S
C104 N100 1.418 . S
C104 C103 1.251 . S
C105 H72 0.930 . S
C105 C107 1.406 . S
C105 C110 1.261 . S
C106 H73 0.930 . S
C106 N108 1.325 . S
C106 C109 1.357 . S
C107 H75 0.928 . S
C107 C105 1.406 . S
C107 N108 1.261 . S
N108 Co59 2.214 . S
N108 C106 1.325 . S
N108 C107 1.261 . S
C109 H79 0.931 . S
C109 C106 1.357 . S
C109 C110 1.312 . S
C110 H81 0.930 . S
C110 C105 1.261 . S
C110 C109 1.312 . S
C111 O83 1.214 . S
C111 O91 1.234 . S
C112 H84 0.929 . S
C112 C115 1.391 . S
C112 C117 1.391 . S
C113 H85 0.929 . S
C113 C114 1.390 . S
C113 N116 1.391 . S
C114 H86 0.930 . S
C114 C113 1.390 . S
C114 C115 1.392 . S
C115 H87 0.929 . S
C115 C112 1.391 . S
C115 C114 1.392 . S
N116 Co60 2.257 . S
N116 C113 1.391 . S
N116 C117 1.388 . S
C117 H88 0.930 . S
C117 C112 1.391 . S
C117 N116 1.388 . S
Co118 O120 2.143 . S
Co118 O126 2.074 . S
Co118 O129 2.093 . S
Co118 O142 2.097 . S
Co118 N159 2.151 . S
Co118 N167 2.214 . S
Co119 O120 2.160 . S
Co119 O125 2.058 . S
Co119 O135 2.057 . S
Co119 O150 2.037 . S
Co119 N154 2.145 . S
Co119 N175 2.257 . S
O120 Co118 2.143 . S
O120 Co119 2.160 . S
C121 O122 1.278 . S
C121 O129 1.224 . S
O122 C121 1.278 . S
C123 O124 1.245 . S
C123 O135 1.232 . S
O124 C123 1.245 . S
O125 Co119 2.058 . S
O125 C151 1.269 . S
O126 Co118 2.074 . S
O126 C151 1.257 . S
H127 C152 0.930 . S
H128 C158 0.930 . S
O129 Co118 2.093 . S
O129 C121 1.224 . S
H130 C162 0.929 . S
H131 C164 0.930 . S
H132 C165 0.930 . S
H133 C163 0.929 . S
H134 C166 0.928 . S
O135 Co119 2.057 . S
O135 C123 1.232 . S
H136 C155 0.929 . S
H137 C156 0.929 . S
H138 C168 0.931 . S
H139 C160 0.929 . S
H140 C169 0.930 . S
H141 C161 0.931 . S
O142 Co118 2.097 . S
O142 C170 1.214 . S
H143 C171 0.929 . S
H144 C172 0.929 . S
H145 C173 0.930 . S
H146 C174 0.929 . S
H147 C176 0.930 . S
H148 C153 0.930 . S
H149 C157 0.930 . S
O150 Co119 2.037 . S
O150 C170 1.234 . S
C151 O125 1.269 . S
C151 O126 1.257 . S
C152 H127 0.930 . S
C152 C155 1.388 . S
C152 C157 1.418 . S
C153 H148 0.930 . S
C153 C156 1.404 . S
C153 C157 1.353 . S
N154 Co119 2.145 . S
N154 C155 1.397 . S
N154 C156 1.334 . S
C155 H136 0.929 . S
C155 C152 1.388 . S
C155 N154 1.397 . S
C156 H137 0.929 . S
C156 C153 1.404 . S
C156 N154 1.334 . S
C157 H149 0.930 . S
C157 C152 1.418 . S
C157 C153 1.353 . S
C158 H128 0.930 . S
C158 N159 1.330 . S
C158 C160 1.446 . S
N159 Co118 2.151 . S
N159 C158 1.330 . S
N159 C163 1.418 . S
C160 H139 0.929 . S
C160 C158 1.446 . S
C160 C161 1.332 . S
C161 H141 0.931 . S
C161 C160 1.332 . S
C161 C162 1.267 . S
C162 H130 0.929 . S
C162 C161 1.267 . S
C162 C163 1.251 . S
C163 H133 0.929 . S
C163 N159 1.418 . S
C163 C162 1.251 . S
C164 H131 0.930 . S
C164 C166 1.406 . S
C164 C169 1.261 . S
C165 H132 0.930 . S
C165 N167 1.325 . S
C165 C168 1.357 . S
C166 H134 0.928 . S
C166 C164 1.406 . S
C166 N167 1.261 . S
N167 Co118 2.214 . S
N167 C165 1.325 . S
N167 C166 1.261 . S
C168 H138 0.931 . S
C168 C165 1.357 . S
C168 C169 1.312 . S
C169 H140 0.930 . S
C169 C164 1.261 . S
C169 C168 1.312 . S
C170 O142 1.214 . S
C170 O150 1.234 . S
C171 H143 0.929 . S
C171 C174 1.391 . S
C171 C176 1.391 . S
C172 H144 0.929 . S
C172 C173 1.390 . S
C172 N175 1.391 . S
C173 H145 0.930 . S
C173 C172 1.390 . S
C173 C174 1.392 . S
C174 H146 0.929 . S
C174 C171 1.391 . S
C174 C173 1.392 . S
N175 Co119 2.257 . S
N175 C172 1.391 . S
N175 C176 1.388 . S
C176 H147 0.930 . S
C176 C171 1.391 . S
C176 N175 1.388 . S
Co177 O179 2.143 . S
Co177 O185 2.074 . S
Co177 O188 2.093 . S
Co177 O201 2.097 . S
Co177 N218 2.151 . S
Co177 N226 2.214 . S
Co178 O179 2.160 . S
Co178 O184 2.058 . S
Co178 O194 2.057 . S
Co178 O209 2.037 . S
Co178 N213 2.145 . S
Co178 N234 2.257 . S
O179 Co177 2.143 . S
O179 Co178 2.160 . S
C180 O181 1.278 . S
C180 O188 1.224 . S
O181 C180 1.278 . S
C182 O183 1.245 . S
C182 O194 1.232 . S
O183 C182 1.245 . S
O184 Co178 2.058 . S
O184 C210 1.269 . S
O185 Co177 2.074 . S
O185 C210 1.257 . S
H186 C211 0.930 . S
H187 C217 0.930 . S
O188 Co177 2.093 . S
O188 C180 1.224 . S
H189 C221 0.929 . S
H190 C223 0.930 . S
H191 C224 0.930 . S
H192 C222 0.929 . S
H193 C225 0.928 . S
O194 Co178 2.057 . S
O194 C182 1.232 . S
H195 C214 0.929 . S
H196 C215 0.929 . S
H197 C227 0.931 . S
H198 C219 0.929 . S
H199 C228 0.930 . S
H200 C220 0.931 . S
O201 Co177 2.097 . S
O201 C229 1.214 . S
H202 C230 0.929 . S
H203 C231 0.929 . S
H204 C232 0.930 . S
H205 C233 0.929 . S
H206 C235 0.930 . S
H207 C212 0.930 . S
H208 C216 0.930 . S
O209 Co178 2.037 . S
O209 C229 1.234 . S
C210 O184 1.269 . S
C210 O185 1.257 . S
C211 H186 0.930 . S
C211 C214 1.388 . S
C211 C216 1.418 . S
C212 H207 0.930 . S
C212 C215 1.404 . S
C212 C216 1.353 . S
N213 Co178 2.145 . S
N213 C214 1.397 . S
N213 C215 1.334 . S
C214 H195 0.929 . S
C214 C211 1.388 . S
C214 N213 1.397 . S
C215 H196 0.929 . S
C215 C212 1.404 . S
C215 N213 1.334 . S
C216 H208 0.930 . S
C216 C211 1.418 . S
C216 C212 1.353 . S
C217 H187 0.930 . S
C217 N218 1.330 . S
C217 C219 1.446 . S
N218 Co177 2.151 . S
N218 C217 1.330 . S
N218 C222 1.418 . S
C219 H198 0.929 . S
C219 C217 1.446 . S
C219 C220 1.332 . S
C220 H200 0.931 . S
C220 C219 1.332 . S
C220 C221 1.267 . S
C221 H189 0.929 . S
C221 C220 1.267 . S
C221 C222 1.251 . S
C222 H192 0.929 . S
C222 N218 1.418 . S
C222 C221 1.251 . S
C223 H190 0.930 . S
C223 C225 1.406 . S
C223 C228 1.261 . S
C224 H191 0.930 . S
C224 N226 1.325 . S
C224 C227 1.357 . S
C225 H193 0.928 . S
C225 C223 1.406 . S
C225 N226 1.261 . S
N226 Co177 2.214 . S
N226 C224 1.325 . S
N226 C225 1.261 . S
C227 H197 0.931 . S
C227 C224 1.357 . S
C227 C228 1.312 . S
C228 H199 0.930 . S
C228 C223 1.261 . S
C228 C227 1.312 . S
C229 O201 1.214 . S
C229 O209 1.234 . S
C230 H202 0.929 . S
C230 C233 1.391 . S
C230 C235 1.391 . S
C231 H203 0.929 . S
C231 C232 1.390 . S
C231 N234 1.391 . S
C232 H204 0.930 . S
C232 C231 1.390 . S
C232 C233 1.392 . S
C233 H205 0.929 . S
C233 C230 1.391 . S
C233 C232 1.392 . S
N234 Co178 2.257 . S
N234 C231 1.391 . S
N234 C235 1.388 . S
C235 H206 0.930 . S
C235 C230 1.391 . S
C235 N234 1.388 . S
Co236 O238 2.143 . S
Co236 O244 2.074 . S
Co236 O247 2.093 . S
Co236 O260 2.097 . S
Co236 N277 2.151 . S
Co236 N285 2.214 . S
Co237 O238 2.160 . S
Co237 O243 2.058 . S
Co237 O253 2.057 . S
Co237 O268 2.037 . S
Co237 N272 2.145 . S
Co237 N293 2.257 . S
O238 Co236 2.143 . S
O238 Co237 2.160 . S
C239 O240 1.278 . S
C239 O247 1.224 . S
O240 C239 1.278 . S
C241 O242 1.245 . S
C241 O253 1.232 . S
O242 C241 1.245 . S
O243 Co237 2.058 . S
O243 C269 1.269 . S
O244 Co236 2.074 . S
O244 C269 1.257 . S
H245 C270 0.930 . S
H246 C276 0.930 . S
O247 Co236 2.093 . S
O247 C239 1.224 . S
H248 C280 0.929 . S
H249 C282 0.930 . S
H250 C283 0.930 . S
H251 C281 0.929 . S
H252 C284 0.928 . S
O253 Co237 2.057 . S
O253 C241 1.232 . S
H254 C273 0.929 . S
H255 C274 0.929 . S
H256 C286 0.931 . S
H257 C278 0.929 . S
H258 C287 0.930 . S
H259 C279 0.931 . S
O260 Co236 2.097 . S
O260 C288 1.214 . S
H261 C289 0.929 . S
H262 C290 0.929 . S
H263 C291 0.930 . S
H264 C292 0.929 . S
H265 C294 0.930 . S
H266 C271 0.930 . S
H267 C275 0.930 . S
O268 Co237 2.037 . S
O268 C288 1.234 . S
C269 O243 1.269 . S
C269 O244 1.257 . S
C270 H245 0.930 . S
C270 C273 1.388 . S
C270 C275 1.418 . S
C271 H266 0.930 . S
C271 C274 1.404 . S
C271 C275 1.353 . S
N272 Co237 2.145 . S
N272 C273 1.397 . S
N272 C274 1.334 . S
C273 H254 0.929 . S
C273 C270 1.388 . S
C273 N272 1.397 . S
C274 H255 0.929 . S
C274 C271 1.404 . S
C274 N272 1.334 . S
C275 H267 0.930 . S
C275 C270 1.418 . S
C275 C271 1.353 . S
C276 H246 0.930 . S
C276 N277 1.330 . S
C276 C278 1.446 . S
N277 Co236 2.151 . S
N277 C276 1.330 . S
N277 C281 1.418 . S
C278 H257 0.929 . S
C278 C276 1.446 . S
C278 C279 1.332 . S
C279 H259 0.931 . S
C279 C278 1.332 . S
C279 C280 1.267 . S
C280 H248 0.929 . S
C280 C279 1.267 . S
C280 C281 1.251 . S
C281 H251 0.929 . S
C281 N277 1.418 . S
C281 C280 1.251 . S
C282 H249 0.930 . S
C282 C284 1.406 . S
C282 C287 1.261 . S
C283 H250 0.930 . S
C283 N285 1.325 . S
C283 C286 1.357 . S
C284 H252 0.928 . S
C284 C282 1.406 . S
C284 N285 1.261 . S
N285 Co236 2.214 . S
N285 C283 1.325 . S
N285 C284 1.261 . S
C286 H256 0.931 . S
C286 C283 1.357 . S
C286 C287 1.312 . S
C287 H258 0.930 . S
C287 C282 1.261 . S
C287 C286 1.312 . S
C288 O260 1.214 . S
C288 O268 1.234 . S
C289 H261 0.929 . S
C289 C292 1.391 . S
C289 C294 1.391 . S
C290 H262 0.929 . S
C290 C291 1.390 . S
C290 N293 1.391 . S
C291 H263 0.930 . S
C291 C290 1.390 . S
C291 C292 1.392 . S
C292 H264 0.929 . S
C292 C289 1.391 . S
C292 C291 1.392 . S
N293 Co237 2.257 . S
N293 C290 1.391 . S
N293 C294 1.388 . S
C294 H265 0.930 . S
C294 C289 1.391 . S
C294 N293 1.388 . S
Co295 O297 2.143 . S
Co295 O303 2.074 . S
Co295 O306 2.093 . S
Co295 O319 2.097 1_556 S
Co295 N336 2.151 . S
Co295 N344 2.214 1_556 S
Co296 O297 2.160 . S
Co296 O302 2.058 . S
Co296 O312 2.057 . S
Co296 O327 2.037 . S
Co296 N331 2.145 . S
Co296 N352 2.257 . S
O297 Co295 2.143 . S
O297 Co296 2.160 . S
C298 O299 1.278 . S
C298 O306 1.224 . S
O299 C298 1.278 . S
C300 O301 1.245 . S
C300 O312 1.232 . S
O301 C300 1.245 . S
O302 Co296 2.058 . S
O302 C328 1.269 . S
O303 Co295 2.074 . S
O303 C328 1.257 . S
H304 C329 0.930 . S
H305 C335 0.930 . S
O306 Co295 2.093 . S
O306 C298 1.224 . S
H307 C339 0.929 . S
H308 C341 0.930 . S
H309 C342 0.930 . S
H310 C340 0.929 . S
H311 C343 0.939 . S
O312 Co296 2.057 . S
O312 C300 1.232 . S
H313 C332 0.929 . S
H314 C333 0.929 . S
H315 C345 0.931 . S
H316 C337 0.929 . S
H317 C346 0.930 . S
H318 C338 0.931 . S
O319 Co295 2.097 1_554 S
O319 C347 1.214 . S
H320 C348 0.929 . S
H321 C349 0.929 . S
H322 C350 0.930 . S
H323 C351 0.929 . S
H324 C353 0.930 . S
H325 C330 0.930 . S
H326 C334 0.930 . S
O327 Co296 2.037 . S
O327 C347 1.234 1_556 S
C328 O302 1.269 . S
C328 O303 1.257 . S
C329 H304 0.930 . S
C329 C332 1.388 . S
C329 C334 1.418 . S
C330 H325 0.930 . S
C330 C333 1.404 . S
C330 C334 1.353 . S
N331 Co296 2.145 . S
N331 C332 1.397 . S
N331 C333 1.334 . S
C332 H313 0.929 . S
C332 C329 1.388 . S
C332 N331 1.397 . S
C333 H314 0.929 . S
C333 C330 1.404 . S
C333 N331 1.334 . S
C334 H326 0.930 . S
C334 C329 1.418 . S
C334 C330 1.353 . S
C335 H305 0.930 . S
C335 N336 1.330 . S
C335 C337 1.446 . S
N336 Co295 2.151 . S
N336 C335 1.330 . S
N336 C340 1.418 . S
C337 H316 0.929 . S
C337 C335 1.446 . S
C337 C338 1.332 . S
C338 H318 0.931 . S
C338 C337 1.332 . S
C338 C339 1.267 . S
C339 H307 0.929 . S
C339 C338 1.267 . S
C339 C340 1.251 . S
C340 H310 0.929 . S
C340 N336 1.418 . S
C340 C339 1.251 . S
C341 H308 0.930 . S
C341 C343 1.406 . S
C341 C346 1.261 . S
C342 H309 0.930 . S
C342 N344 1.325 . S
C342 C345 1.357 . S
C343 H311 0.939 . S
C343 C341 1.406 . S
C343 N344 1.261 . S
N344 Co295 2.214 1_554 S
N344 C342 1.325 . S
N344 C343 1.261 . S
C345 H315 0.931 . S
C345 C342 1.357 . S
C345 C346 1.312 . S
C346 H317 0.930 . S
C346 C341 1.261 . S
C346 C345 1.312 . S
C347 O319 1.214 . S
C347 O327 1.234 1_554 S
C348 H320 0.929 . S
C348 C351 1.391 . S
C348 C353 1.391 . S
C349 H321 0.929 . S
C349 C350 1.390 . S
C349 N352 1.391 . S
C350 H322 0.930 . S
C350 C349 1.390 . S
C350 C351 1.392 . S
C351 H323 0.929 . S
C351 C348 1.391 . S
C351 C350 1.392 . S
N352 Co296 2.257 . S
N352 C349 1.391 . S
N352 C353 1.388 . S
C353 H324 0.930 . S
C353 C348 1.391 . S
C353 N352 1.388 . S
Co354 O356 2.143 . S
Co354 O362 2.074 . S
Co354 O365 2.093 . S
Co354 O378 2.097 . S
Co354 N395 2.151 . S
Co354 N403 2.214 . S
Co355 O356 2.160 . S
Co355 O361 2.058 . S
Co355 O371 2.057 . S
Co355 O386 2.037 . S
Co355 N390 2.145 . S
Co355 N411 2.257 . S
O356 Co354 2.143 . S
O356 Co355 2.160 . S
C357 O358 1.278 . S
C357 O365 1.224 . S
O358 C357 1.278 . S
C359 O360 1.245 1_554 S
C359 O371 1.232 1_554 S
O360 C359 1.245 1_556 S
O361 Co355 2.058 . S
O361 C387 1.269 . S
O362 Co354 2.074 . S
O362 C387 1.257 . S
H363 C388 0.930 . S
H364 C394 0.930 . S
O365 Co354 2.093 . S
O365 C357 1.224 . S
H366 C398 0.929 . S
H367 C400 0.930 . S
H368 C401 0.930 . S
H369 C399 0.929 . S
H370 C402 0.928 . S
O371 Co355 2.057 . S
O371 C359 1.232 1_556 S
H372 C391 0.929 . S
H373 C392 0.929 . S
H374 C404 0.931 . S
H375 C396 0.929 . S
H376 C405 0.930 . S
H377 C397 0.931 . S
O378 Co354 2.097 . S
O378 C406 1.214 . S
H379 C407 0.929 . S
H380 C408 0.929 . S
H381 C409 0.930 . S
H382 C410 0.929 . S
H383 C412 0.930 . S
H384 C389 0.930 . S
H385 C393 0.930 . S
O386 Co355 2.037 . S
O386 C406 1.234 . S
C387 O361 1.269 . S
C387 O362 1.257 . S
C388 H363 0.930 . S
C388 C391 1.388 . S
C388 C393 1.418 . S
C389 H384 0.930 . S
C389 C392 1.404 . S
C389 C393 1.353 . S
N390 Co355 2.145 . S
N390 C391 1.397 . S
N390 C392 1.334 . S
C391 H372 0.929 . S
C391 C388 1.388 . S
C391 N390 1.397 . S
C392 H373 0.929 . S
C392 C389 1.404 . S
C392 N390 1.334 . S
C393 H385 0.930 . S
C393 C388 1.418 . S
C393 C389 1.353 . S
C394 H364 0.930 . S
C394 N395 1.330 . S
C394 C396 1.446 . S
N395 Co354 2.151 . S
N395 C394 1.330 . S
N395 C399 1.418 . S
C396 H375 0.929 . S
C396 C394 1.446 . S
C396 C397 1.332 . S
C397 H377 0.931 . S
C397 C396 1.332 . S
C397 C398 1.267 . S
C398 H366 0.929 . S
C398 C397 1.267 . S
C398 C399 1.251 . S
C399 H369 0.929 . S
C399 N395 1.418 . S
C399 C398 1.251 . S
C400 H367 0.930 . S
C400 C402 1.406 . S
C400 C405 1.261 . S
C401 H368 0.930 . S
C401 N403 1.325 . S
C401 C404 1.357 . S
C402 H370 0.928 . S
C402 C400 1.406 . S
C402 N403 1.261 . S
N403 Co354 2.214 . S
N403 C401 1.325 . S
N403 C402 1.261 . S
C404 H374 0.931 . S
C404 C401 1.357 . S
C404 C405 1.312 . S
C405 H376 0.930 . S
C405 C400 1.261 . S
C405 C404 1.312 . S
C406 O378 1.214 . S
C406 O386 1.234 . S
C407 H379 0.929 . S
C407 C410 1.391 . S
C407 C412 1.391 . S
C408 H380 0.929 . S
C408 C409 1.390 . S
C408 N411 1.391 . S
C409 H381 0.930 . S
C409 C408 1.390 . S
C409 C410 1.392 . S
C410 H382 0.929 . S
C410 C407 1.391 . S
C410 C409 1.392 . S
N411 Co355 2.257 . S
N411 C408 1.391 . S
N411 C412 1.388 . S
C412 H383 0.930 . S
C412 C407 1.391 . S
C412 N411 1.388 . S
Co413 O415 2.143 1_556 S
Co413 O421 2.074 . S
Co413 O424 2.093 . S
Co413 O437 2.097 . S
Co413 N454 2.151 1_556 S
Co413 N462 2.214 . S
Co414 O415 2.160 . S
Co414 O420 2.058 . S
Co414 O430 2.057 . S
Co414 O445 2.037 1_554 S
Co414 N449 2.145 . S
Co414 N470 2.257 . S
O415 Co413 2.143 1_554 S
O415 Co414 2.160 . S
C416 O417 1.278 1_556 S
C416 O424 1.224 . S
O417 C416 1.278 1_554 S
C418 O419 1.245 . S
C418 O430 1.232 . S
O419 C418 1.245 . S
O420 Co414 2.058 . S
O420 C446 1.269 . S
O421 Co413 2.074 . S
O421 C446 1.257 1_556 S
H422 C447 0.930 1_556 S
H423 C453 0.930 . S
O424 Co413 2.093 . S
O424 C416 1.224 . S
H425 C457 0.929 . S
H426 C459 0.930 . S
H427 C460 0.930 . S
H428 C458 0.929 . S
H429 C461 0.928 . S
O430 Co414 2.057 . S
O430 C418 1.232 . S
H431 C450 0.929 1_556 S
H432 C451 0.929 . S
H433 C463 0.931 . S
H434 C455 0.929 . S
H435 C464 0.930 . S
H436 C456 0.931 . S
O437 Co413 2.097 . S
O437 C465 1.214 . S
H438 C466 0.929 . S
H439 C467 0.929 . S
H440 C468 0.930 . S
H441 C469 0.929 . S
H442 C471 0.930 . S
H443 C448 0.930 . S
H444 C452 0.930 . S
O445 Co414 2.037 1_556 S
O445 C465 1.234 . S
C446 O420 1.269 . S
C446 O421 1.257 1_554 S
C447 H422 0.930 1_554 S
C447 C450 1.388 . S
C447 C452 1.418 . S
C448 H443 0.930 . S
C448 C451 1.404 . S
C448 C452 1.353 . S
N449 Co414 2.145 . S
N449 C450 1.397 . S
N449 C451 1.334 . S
C450 H431 0.929 1_554 S
C450 C447 1.388 . S
C450 N449 1.397 . S
C451 H432 0.929 . S
C451 C448 1.404 . S
C451 N449 1.334 . S
C452 H444 0.930 . S
C452 C447 1.418 . S
C452 C448 1.353 . S
C453 H423 0.930 . S
C453 N454 1.330 . S
C453 C455 1.446 . S
N454 Co413 2.151 1_554 S
N454 C453 1.330 . S
N454 C458 1.418 . S
C455 H434 0.929 . S
C455 C453 1.446 . S
C455 C456 1.332 . S
C456 H436 0.931 . S
C456 C455 1.332 . S
C456 C457 1.267 . S
C457 H425 0.929 . S
C457 C456 1.267 . S
C457 C458 1.251 . S
C458 H428 0.929 . S
C458 N454 1.418 . S
C458 C457 1.251 . S
C459 H426 0.930 . S
C459 C461 1.406 . S
C459 C464 1.261 . S
C460 H427 0.930 . S
C460 N462 1.325 . S
C460 C463 1.357 . S
C461 H429 0.928 . S
C461 C459 1.406 . S
C461 N462 1.261 . S
N462 Co413 2.214 . S
N462 C460 1.325 . S
N462 C461 1.261 . S
C463 H433 0.931 . S
C463 C460 1.357 . S
C463 C464 1.312 . S
C464 H435 0.930 . S
C464 C459 1.261 . S
C464 C463 1.312 . S
C465 O437 1.214 . S
C465 O445 1.234 . S
C466 H438 0.929 . S
C466 C469 1.391 . S
C466 C471 1.391 . S
C467 H439 0.929 . S
C467 C468 1.390 . S
C467 N470 1.391 1_556 S
C468 H440 0.930 . S
C468 C467 1.390 . S
C468 C469 1.392 1_556 S
C469 H441 0.929 . S
C469 C466 1.391 . S
C469 C468 1.392 1_554 S
N470 Co414 2.257 . S
N470 C467 1.391 1_554 S
N470 C471 1.388 . S
C471 H442 0.930 . S
C471 C466 1.391 . S
C471 N470 1.388 . S
Co472 O474 2.143 . S
Co472 O480 2.074 . S
Co472 O483 2.093 . S
Co472 O496 2.097 . S
Co472 N513 2.151 . S
Co472 N521 2.214 . S
Co473 O474 2.160 . S
Co473 O479 2.058 . S
Co473 O489 2.057 . S
Co473 O504 2.037 . S
Co473 N508 2.145 . S
Co473 N529 2.257 . S
O474 Co472 2.143 . S
O474 Co473 2.160 . S
C475 O476 1.278 . S
C475 O483 1.224 . S
O476 C475 1.278 . S
C477 O478 1.245 . S
C477 O489 1.232 . S
O478 C477 1.245 . S
O479 Co473 2.058 . S
O479 C505 1.269 . S
O480 Co472 2.074 . S
O480 C505 1.257 . S
H481 C506 0.930 . S
H482 C512 0.930 . S
O483 Co472 2.093 . S
O483 C475 1.224 . S
H484 C516 0.929 . S
H485 C518 0.930 . S
H486 C519 0.930 . S
H487 C517 0.929 . S
H488 C520 0.928 . S
O489 Co473 2.057 . S
O489 C477 1.232 . S
H490 C509 0.929 . S
H491 C510 0.929 . S
H492 C522 0.931 . S
H493 C514 0.929 . S
H494 C523 0.930 . S
H495 C515 0.931 . S
O496 Co472 2.097 . S
O496 C524 1.214 . S
H497 C525 0.929 . S
H498 C526 0.929 . S
H499 C527 0.930 . S
H500 C528 0.929 . S
H501 C530 0.930 . S
H502 C507 0.930 . S
H503 C511 0.930 . S
O504 Co473 2.037 . S
O504 C524 1.234 . S
C505 O479 1.269 . S
C505 O480 1.257 . S
C506 H481 0.930 . S
C506 C509 1.388 . S
C506 C511 1.418 . S
C507 H502 0.930 . S
C507 C510 1.404 . S
C507 C511 1.353 . S
N508 Co473 2.145 . S
N508 C509 1.397 . S
N508 C510 1.334 . S
C509 H490 0.929 . S
C509 C506 1.388 . S
C509 N508 1.397 . S
C510 H491 0.929 . S
C510 C507 1.404 . S
C510 N508 1.334 . S
C511 H503 0.930 . S
C511 C506 1.418 . S
C511 C507 1.353 . S
C512 H482 0.930 . S
C512 N513 1.330 . S
C512 C514 1.446 . S
N513 Co472 2.151 . S
N513 C512 1.330 . S
N513 C517 1.418 . S
C514 H493 0.929 . S
C514 C512 1.446 . S
C514 C515 1.332 . S
C515 H495 0.931 . S
C515 C514 1.332 . S
C515 C516 1.267 . S
C516 H484 0.929 . S
C516 C515 1.267 . S
C516 C517 1.251 . S
C517 H487 0.929 . S
C517 N513 1.418 . S
C517 C516 1.251 . S
C518 H485 0.930 . S
C518 C520 1.406 . S
C518 C523 1.261 1_554 S
C519 H486 0.930 . S
C519 N521 1.325 . S
C519 C522 1.357 1_554 S
C520 H488 0.928 . S
C520 C518 1.406 . S
C520 N521 1.261 . S
N521 Co472 2.214 . S
N521 C519 1.325 . S
N521 C520 1.261 . S
C522 H492 0.931 . S
C522 C519 1.357 1_556 S
C522 C523 1.312 . S
C523 H494 0.930 . S
C523 C518 1.261 1_556 S
C523 C522 1.312 . S
C524 O496 1.214 . S
C524 O504 1.234 . S
C525 H497 0.929 . S
C525 C528 1.391 . S
C525 C530 1.391 . S
C526 H498 0.929 . S
C526 C527 1.390 . S
C526 N529 1.391 . S
C527 H499 0.930 . S
C527 C526 1.390 . S
C527 C528 1.392 . S
C528 H500 0.929 . S
C528 C525 1.391 . S
C528 C527 1.392 . S
N529 Co473 2.257 . S
N529 C526 1.391 . S
N529 C530 1.388 . S
C530 H501 0.930 . S
C530 C525 1.391 . S
C530 N529 1.388 . S
Co531 O533 2.143 . S
Co531 O539 2.074 . S
Co531 O542 2.093 . S
Co531 O555 2.097 . S
Co531 N572 2.151 . S
Co531 N580 2.214 . S
Co532 O533 2.160 . S
Co532 O538 2.058 . S
Co532 O548 2.057 . S
Co532 O563 2.037 . S
Co532 N567 2.145 . S
Co532 N588 2.257 . S
O533 Co531 2.143 . S
O533 Co532 2.160 . S
C534 O535 1.278 . S
C534 O542 1.224 . S
O535 C534 1.278 . S
C536 O537 1.245 . S
C536 O548 1.232 . S
O537 C536 1.245 . S
O538 Co532 2.058 . S
O538 C564 1.269 . S
O539 Co531 2.074 . S
O539 C564 1.257 . S
H540 C565 0.930 . S
H541 C571 0.930 . S
O542 Co531 2.093 . S
O542 C534 1.224 . S
H543 C575 0.929 . S
H544 C577 0.930 . S
H545 C578 0.930 . S
H546 C576 0.929 . S
H547 C579 0.928 . S
O548 Co532 2.057 . S
O548 C536 1.232 . S
H549 C568 0.929 . S
H550 C569 0.929 . S
H551 C581 0.931 . S
H552 C573 0.929 . S
H553 C582 0.930 . S
H554 C574 0.931 . S
O555 Co531 2.097 . S
O555 C583 1.214 . S
H556 C584 0.929 . S
H557 C585 0.929 . S
H558 C586 0.930 . S
H559 C587 0.929 . S
H560 C589 0.930 . S
H561 C566 0.930 . S
H562 C570 0.930 . S
O563 Co532 2.037 . S
O563 C583 1.234 . S
C564 O538 1.269 . S
C564 O539 1.257 . S
C565 H540 0.930 . S
C565 C568 1.388 . S
C565 C570 1.418 . S
C566 H561 0.930 . S
C566 C569 1.404 . S
C566 C570 1.353 . S
N567 Co532 2.145 . S
N567 C568 1.397 . S
N567 C569 1.334 . S
C568 H549 0.929 . S
C568 C565 1.388 . S
C568 N567 1.397 . S
C569 H550 0.929 . S
C569 C566 1.404 . S
C569 N567 1.334 . S
C570 H562 0.930 . S
C570 C565 1.418 . S
C570 C566 1.353 . S
C571 H541 0.930 . S
C571 N572 1.330 . S
C571 C573 1.446 . S
N572 Co531 2.151 . S
N572 C571 1.330 . S
N572 C576 1.418 . S
C573 H552 0.929 . S
C573 C571 1.446 . S
C573 C574 1.332 . S
C574 H554 0.931 . S
C574 C573 1.332 . S
C574 C575 1.267 . S
C575 H543 0.929 . S
C575 C574 1.267 . S
C575 C576 1.251 . S
C576 H546 0.929 . S
C576 N572 1.418 . S
C576 C575 1.251 . S
C577 H544 0.930 . S
C577 C579 1.406 . S
C577 C582 1.261 . S
C578 H545 0.930 . S
C578 N580 1.325 . S
C578 C581 1.357 . S
C579 H547 0.928 . S
C579 C577 1.406 . S
C579 N580 1.261 . S
N580 Co531 2.214 . S
N580 C578 1.325 . S
N580 C579 1.261 . S
C581 H551 0.931 . S
C581 C578 1.357 . S
C581 C582 1.312 . S
C582 H553 0.930 . S
C582 C577 1.261 . S
C582 C581 1.312 . S
C583 O555 1.214 . S
C583 O563 1.234 . S
C584 H556 0.929 . S
C584 C587 1.391 . S
C584 C589 1.391 . S
C585 H557 0.929 . S
C585 C586 1.390 . S
C585 N588 1.391 . S
C586 H558 0.930 . S
C586 C585 1.390 . S
C586 C587 1.392 . S
C587 H559 0.929 . S
C587 C584 1.391 . S
C587 C586 1.392 . S
N588 Co532 2.257 . S
N588 C585 1.391 . S
N588 C589 1.388 . S
C589 H560 0.930 . S
C589 C584 1.391 . S
C589 N588 1.388 . S
Co590 O592 2.143 . S
Co590 O598 2.074 . S
Co590 O601 2.093 . S
Co590 O614 2.097 . S
Co590 N631 2.151 . S
Co590 N639 2.214 . S
Co591 O592 2.160 . S
Co591 O597 2.058 . S
Co591 O607 2.057 . S
Co591 O622 2.037 . S
Co591 N626 2.145 . S
Co591 N647 2.257 . S
O592 Co590 2.143 . S
O592 Co591 2.160 . S
C593 O594 1.278 . S
C593 O601 1.224 . S
O594 C593 1.278 . S
C595 O596 1.245 . S
C595 O607 1.232 . S
O596 C595 1.245 . S
O597 Co591 2.058 . S
O597 C623 1.269 . S
O598 Co590 2.074 . S
O598 C623 1.257 . S
H599 C624 0.930 . S
H600 C630 0.930 . S
O601 Co590 2.093 . S
O601 C593 1.224 . S
H602 C634 0.929 . S
H603 C636 0.930 . S
H604 C637 0.930 . S
H605 C635 0.929 . S
H606 C638 0.928 . S
O607 Co591 2.057 . S
O607 C595 1.232 . S
H608 C627 0.929 . S
H609 C628 0.929 . S
H610 C640 0.931 . S
H611 C632 0.929 . S
H612 C641 0.930 . S
H613 C633 0.931 . S
O614 Co590 2.097 . S
O614 C642 1.214 . S
H615 C643 0.929 . S
H616 C644 0.929 . S
H617 C645 0.930 . S
H618 C646 0.929 . S
H619 C648 0.930 . S
H620 C625 0.930 . S
H621 C629 0.930 . S
O622 Co591 2.037 . S
O622 C642 1.234 . S
C623 O597 1.269 . S
C623 O598 1.257 . S
C624 H599 0.930 . S
C624 C627 1.388 . S
C624 C629 1.418 . S
C625 H620 0.930 . S
C625 C628 1.404 . S
C625 C629 1.353 . S
N626 Co591 2.145 . S
N626 C627 1.397 . S
N626 C628 1.334 . S
C627 H608 0.929 . S
C627 C624 1.388 . S
C627 N626 1.397 . S
C628 H609 0.929 . S
C628 C625 1.404 . S
C628 N626 1.334 . S
C629 H621 0.930 . S
C629 C624 1.418 . S
C629 C625 1.353 . S
C630 H600 0.930 . S
C630 N631 1.330 . S
C630 C632 1.446 . S
N631 Co590 2.151 . S
N631 C630 1.330 . S
N631 C635 1.418 . S
C632 H611 0.929 . S
C632 C630 1.446 . S
C632 C633 1.332 . S
C633 H613 0.931 . S
C633 C632 1.332 . S
C633 C634 1.267 . S
C634 H602 0.929 . S
C634 C633 1.267 . S
C634 C635 1.251 . S
C635 H605 0.929 . S
C635 N631 1.418 . S
C635 C634 1.251 . S
C636 H603 0.930 . S
C636 C638 1.406 . S
C636 C641 1.261 . S
C637 H604 0.930 . S
C637 N639 1.325 . S
C637 C640 1.357 . S
C638 H606 0.928 . S
C638 C636 1.406 . S
C638 N639 1.261 . S
N639 Co590 2.214 . S
N639 C637 1.325 . S
N639 C638 1.261 . S
C640 H610 0.931 . S
C640 C637 1.357 . S
C640 C641 1.312 . S
C641 H612 0.930 . S
C641 C636 1.261 . S
C641 C640 1.312 . S
C642 O614 1.214 . S
C642 O622 1.234 . S
C643 H615 0.929 . S
C643 C646 1.391 . S
C643 C648 1.391 . S
C644 H616 0.929 . S
C644 C645 1.390 . S
C644 N647 1.391 . S
C645 H617 0.930 . S
C645 C644 1.390 . S
C645 C646 1.392 . S
C646 H618 0.929 . S
C646 C643 1.391 . S
C646 C645 1.392 . S
N647 Co591 2.257 . S
N647 C644 1.391 . S
N647 C648 1.388 . S
C648 H619 0.930 . S
C648 C643 1.391 . S
C648 N647 1.388 . S
Co649 O651 2.143 . S
Co649 O657 2.074 . S
Co649 O660 2.093 . S
Co649 O673 2.097 . S
Co649 N690 2.151 . S
Co649 N698 2.214 . S
Co650 O651 2.160 . S
Co650 O656 2.058 . S
Co650 O666 2.057 . S
Co650 O681 2.037 . S
Co650 N685 2.145 . S
Co650 N706 2.257 . S
O651 Co649 2.143 . S
O651 Co650 2.160 . S
C652 O653 1.278 . S
C652 O660 1.224 . S
O653 C652 1.278 . S
C654 O655 1.245 . S
C654 O666 1.232 . S
O655 C654 1.245 . S
O656 Co650 2.058 . S
O656 C682 1.269 . S
O657 Co649 2.074 . S
O657 C682 1.257 . S
H658 C683 0.930 . S
H659 C689 0.930 . S
O660 Co649 2.093 . S
O660 C652 1.224 . S
H661 C693 0.929 . S
H662 C695 0.930 . S
H663 C696 0.930 . S
H664 C694 0.929 . S
H665 C697 0.928 . S
O666 Co650 2.057 . S
O666 C654 1.232 . S
H667 C686 0.929 . S
H668 C687 0.929 . S
H669 C699 0.931 . S
H670 C691 0.929 . S
H671 C700 0.930 . S
H672 C692 0.931 . S
O673 Co649 2.097 . S
O673 C701 1.214 . S
H674 C702 0.929 . S
H675 C703 0.929 . S
H676 C704 0.930 . S
H677 C705 0.929 . S
H678 C707 0.930 . S
H679 C684 0.930 . S
H680 C688 0.930 . S
O681 Co650 2.037 . S
O681 C701 1.234 . S
C682 O656 1.269 . S
C682 O657 1.257 . S
C683 H658 0.930 . S
C683 C686 1.388 . S
C683 C688 1.418 . S
C684 H679 0.930 . S
C684 C687 1.404 . S
C684 C688 1.353 . S
N685 Co650 2.145 . S
N685 C686 1.397 . S
N685 C687 1.334 . S
C686 H667 0.929 . S
C686 C683 1.388 . S
C686 N685 1.397 . S
C687 H668 0.929 . S
C687 C684 1.404 . S
C687 N685 1.334 . S
C688 H680 0.930 . S
C688 C683 1.418 . S
C688 C684 1.353 . S
C689 H659 0.930 . S
C689 N690 1.330 . S
C689 C691 1.446 . S
N690 Co649 2.151 . S
N690 C689 1.330 . S
N690 C694 1.418 . S
C691 H670 0.929 . S
C691 C689 1.446 . S
C691 C692 1.332 . S
C692 H672 0.931 . S
C692 C691 1.332 . S
C692 C693 1.267 . S
C693 H661 0.929 . S
C693 C692 1.267 . S
C693 C694 1.251 . S
C694 H664 0.929 . S
C694 N690 1.418 . S
C694 C693 1.251 . S
C695 H662 0.930 . S
C695 C697 1.406 . S
C695 C700 1.261 . S
C696 H663 0.930 . S
C696 N698 1.325 . S
C696 C699 1.357 . S
C697 H665 0.928 . S
C697 C695 1.406 . S
C697 N698 1.261 . S
N698 Co649 2.214 . S
N698 C696 1.325 . S
N698 C697 1.261 . S
C699 H669 0.931 . S
C699 C696 1.357 . S
C699 C700 1.312 . S
C700 H671 0.930 . S
C700 C695 1.261 . S
C700 C699 1.312 . S
C701 O673 1.214 . S
C701 O681 1.234 . S
C702 H674 0.929 . S
C702 C705 1.391 . S
C702 C707 1.391 . S
C703 H675 0.929 . S
C703 C704 1.390 . S
C703 N706 1.391 . S
C704 H676 0.930 . S
C704 C703 1.390 . S
C704 C705 1.392 . S
C705 H677 0.929 . S
C705 C702 1.391 . S
C705 C704 1.392 . S
N706 Co650 2.257 . S
N706 C703 1.391 . S
N706 C707 1.388 . S
C707 H678 0.930 . S
C707 C702 1.391 . S
C707 N706 1.388 . S
C708 C709 1.363 . S
C708 C714 1.379 . S
C708 N716 1.356 . S
C709 C708 1.363 . S
C709 C715 1.363 . S
C710 C711 1.363 . S
C710 C715 1.379 . S
C710 N717 1.356 . S
C711 C710 1.363 . S
C711 C714 1.363 . S
N712 C714 1.356 . S
N712 H724 0.984 . S
N712 H725 0.985 . S
N713 C715 1.356 . S
N713 H718 0.984 . S
N713 H719 0.985 . S
C714 C708 1.379 . S
C714 C711 1.363 . S
C714 N712 1.356 . S
C715 C709 1.363 . S
C715 C710 1.379 . S
C715 N713 1.356 . S
N716 C708 1.356 . S
N716 H722 0.984 . S
N716 H723 0.984 . S
N717 C710 1.356 . S
N717 H720 0.984 . S
N717 H721 0.985 . S
H718 N713 0.984 . S
H719 N713 0.985 . S
H720 N717 0.984 . S
H721 N717 0.985 . S
H722 N716 0.984 . S
H723 N716 0.984 . S
H724 N712 0.984 . S
H725 N712 0.985 . S
C726 C727 1.363 . S
C726 C732 1.379 . S
C726 N734 1.356 . S
C727 C726 1.363 . S
C727 C733 1.363 . S
C728 C729 1.363 . S
C728 C733 1.379 . S
C728 N735 1.356 . S
C729 C728 1.363 . S
C729 C732 1.363 . S
N730 C732 1.356 . S
N730 H742 0.984 . S
N730 H743 0.985 . S
N731 C733 1.356 . S
N731 H736 0.984 . S
N731 H737 0.985 . S
C732 C726 1.379 . S
C732 C729 1.363 . S
C732 N730 1.356 . S
C733 C727 1.363 . S
C733 C728 1.379 . S
C733 N731 1.356 . S
N734 C726 1.356 . S
N734 H740 0.984 . S
N734 H741 0.984 . S
N735 C728 1.356 . S
N735 H738 0.984 . S
N735 H739 0.985 . S
H736 N731 0.984 . S
H737 N731 0.985 . S
H738 N735 0.984 . S
H739 N735 0.985 . S
H740 N734 0.984 . S
H741 N734 0.984 . S
H742 N730 0.984 . S
H743 N730 0.985 . S
C744 C745 1.363 . S
C744 C750 1.379 . S
C744 N752 1.356 . S
C745 C744 1.363 . S
C745 C751 1.363 . S
C746 C747 1.363 . S
C746 C751 1.379 . S
C746 N753 1.356 . S
C747 C746 1.363 . S
C747 C750 1.363 . S
N748 C750 1.356 . S
N748 H760 0.984 . S
N748 H761 0.985 . S
N749 C751 1.356 . S
N749 H754 0.984 . S
N749 H755 0.985 . S
C750 C744 1.379 . S
C750 C747 1.363 . S
C750 N748 1.356 . S
C751 C745 1.363 . S
C751 C746 1.379 . S
C751 N749 1.356 . S
N752 C744 1.356 . S
N752 H758 0.984 . S
N752 H759 0.984 . S
N753 C746 1.356 . S
N753 H756 0.984 . S
N753 H757 0.985 . S
H754 N749 0.984 . S
H755 N749 0.985 . S
H756 N753 0.984 . S
H757 N753 0.985 . S
H758 N752 0.984 . S
H759 N752 0.984 . S
H760 N748 0.984 . S
H761 N748 0.985 . S
C762 C763 1.363 . S
C762 C768 1.379 . S
C762 N770 1.356 . S
C763 C762 1.363 . S
C763 C769 1.363 . S
C764 C765 1.363 . S
C764 C769 1.379 . S
C764 N771 1.356 . S
C765 C764 1.363 . S
C765 C768 1.363 . S
N766 C768 1.356 . S
N766 H778 0.984 . S
N766 H779 0.985 . S
N767 C769 1.356 . S
N767 H772 0.984 . S
N767 H773 0.985 . S
C768 C762 1.379 . S
C768 C765 1.363 . S
C768 N766 1.356 . S
C769 C763 1.363 . S
C769 C764 1.379 . S
C769 N767 1.356 . S
N770 C762 1.356 . S
N770 H776 0.984 . S
N770 H777 0.984 . S
N771 C764 1.356 . S
N771 H774 0.984 . S
N771 H775 0.985 . S
H772 N767 0.984 . S
H773 N767 0.985 . S
H774 N771 0.984 . S
H775 N771 0.985 . S
H776 N770 0.984 . S
H777 N770 0.984 . S
H778 N766 0.984 . S
H779 N766 0.985 . S
C780 C781 1.363 1_556 S
C780 C786 1.379 . S
C780 N788 1.356 1_556 S
C781 C780 1.363 1_554 S
C781 C787 1.363 1_554 S
C782 C783 1.363 . S
C782 C787 1.379 . S
C782 N789 1.356 . S
C783 C782 1.363 . S
C783 C786 1.363 . S
N784 C786 1.356 . S
N784 H796 0.984 . S
N784 H797 0.985 . S
N785 C787 1.356 1_554 S
N785 H790 0.984 . S
N785 H791 0.985 . S
C786 C780 1.379 . S
C786 C783 1.363 . S
C786 N784 1.356 . S
C787 C781 1.363 1_556 S
C787 C782 1.379 . S
C787 N785 1.356 1_556 S
N788 C780 1.356 1_554 S
N788 H794 0.984 1_554 S
N788 H795 0.984 . S
N789 C782 1.356 . S
N789 H792 0.984 . S
N789 H793 0.985 . S
H790 N785 0.984 . S
H791 N785 0.985 . S
H792 N789 0.984 . S
H793 N789 0.985 . S
H794 N788 0.984 1_556 S
H795 N788 0.984 . S
H796 N784 0.984 . S
H797 N784 0.985 . S
C798 C799 1.363 . S
C798 C804 1.379 . S
C798 N806 1.356 . S
C799 C798 1.363 . S
C799 C805 1.363 . S
C800 C801 1.363 . S
C800 C805 1.379 . S
C800 N807 1.356 . S
C801 C800 1.363 . S
C801 C804 1.363 . S
N802 C804 1.356 . S
N802 H814 0.984 . S
N802 H815 0.985 1_554 S
N803 C805 1.356 . S
N803 H808 0.984 . S
N803 H809 0.985 . S
C804 C798 1.379 . S
C804 C801 1.363 . S
C804 N802 1.356 . S
C805 C799 1.363 . S
C805 C800 1.379 . S
C805 N803 1.356 . S
N806 C798 1.356 . S
N806 H812 0.984 . S
N806 H813 0.984 . S
N807 C800 1.356 . S
N807 H810 0.984 . S
N807 H811 0.985 . S
H808 N803 0.984 . S
H809 N803 0.985 . S
H810 N807 0.984 . S
H811 N807 0.985 . S
H812 N806 0.984 . S
H813 N806 0.984 . S
H814 N802 0.984 . S
H815 N802 0.985 1_556 S
C816 C817 1.363 . S
C816 C822 1.379 . S
C816 N824 1.356 . S
C817 C816 1.363 . S
C817 C823 1.363 . S
C818 C819 1.363 . S
C818 C823 1.379 . S
C818 N825 1.356 . S
C819 C818 1.363 . S
C819 C822 1.363 . S
N820 C822 1.356 . S
N820 H832 0.984 1_554 S
N820 H833 0.985 . S
N821 C823 1.356 . S
N821 H826 0.984 . S
N821 H827 0.985 . S
C822 C816 1.379 . S
C822 C819 1.363 . S
C822 N820 1.356 . S
C823 C817 1.363 . S
C823 C818 1.379 . S
C823 N821 1.356 . S
N824 C816 1.356 . S
N824 H830 0.984 . S
N824 H831 0.984 . S
N825 C818 1.356 . S
N825 H828 0.984 . S
N825 H829 0.985 . S
H826 N821 0.984 . S
H827 N821 0.985 . S
H828 N825 0.984 . S
H829 N825 0.985 . S
H830 N824 0.984 . S
H831 N824 0.984 . S
H832 N820 0.984 1_556 S
H833 N820 0.985 . S
C834 C835 1.363 . S
C834 C840 1.379 . S
C834 N842 1.356 . S
C835 C834 1.363 . S
C835 C841 1.363 . S
C836 C837 1.363 . S
C836 C841 1.379 . S
C836 N843 1.356 . S
C837 C836 1.363 . S
C837 C840 1.363 . S
N838 C840 1.356 . S
N838 H850 0.984 . S
N838 H851 0.985 . S
N839 C841 1.356 . S
N839 H844 0.984 . S
N839 H845 0.985 . S
C840 C834 1.379 . S
C840 C837 1.363 . S
C840 N838 1.356 . S
C841 C835 1.363 . S
C841 C836 1.379 . S
C841 N839 1.356 . S
N842 C834 1.356 . S
N842 H848 0.984 . S
N842 H849 0.984 . S
N843 C836 1.356 . S
N843 H846 0.984 . S
N843 H847 0.985 . S
H844 N839 0.984 . S
H845 N839 0.985 . S
H846 N843 0.984 . S
H847 N843 0.985 . S
H848 N842 0.984 . S
H849 N842 0.984 . S
H850 N838 0.984 . S
H851 N838 0.985 . S
C852 C853 1.363 . S
C852 C858 1.379 . S
C852 N860 1.356 . S
C853 C852 1.363 . S
C853 C859 1.363 . S
C854 C855 1.363 . S
C854 C859 1.379 . S
C854 N861 1.356 . S
C855 C854 1.363 . S
C855 C858 1.363 . S
N856 C858 1.356 . S
N856 H868 0.984 . S
N856 H869 0.985 . S
N857 C859 1.356 . S
N857 H862 0.984 . S
N857 H863 0.985 . S
C858 C852 1.379 . S
C858 C855 1.363 . S
C858 N856 1.356 . S
C859 C853 1.363 . S
C859 C854 1.379 . S
C859 N857 1.356 . S
N860 C852 1.356 . S
N860 H866 0.984 . S
N860 H867 0.984 . S
N861 C854 1.356 . S
N861 H864 0.984 . S
N861 H865 0.985 . S
H862 N857 0.984 . S
H863 N857 0.985 . S
H864 N861 0.984 . S
H865 N861 0.985 . S
H866 N860 0.984 . S
H867 N860 0.984 . S
H868 N856 0.984 . S
H869 N856 0.985 . S
C870 C871 1.363 . S
C870 C876 1.379 . S
C870 N878 1.356 . S
C871 C870 1.363 . S
C871 C877 1.363 . S
C872 C873 1.363 . S
C872 C877 1.379 . S
C872 N879 1.356 . S
C873 C872 1.363 . S
C873 C876 1.363 . S
N874 C876 1.356 . S
N874 H886 0.984 . S
N874 H887 0.985 . S
N875 C877 1.356 . S
N875 H880 0.984 . S
N875 H881 0.985 . S
C876 C870 1.379 . S
C876 C873 1.363 . S
C876 N874 1.356 . S
C877 C871 1.363 . S
C877 C872 1.379 . S
C877 N875 1.356 . S
N878 C870 1.356 . S
N878 H884 0.984 . S
N878 H885 0.984 . S
N879 C872 1.356 . S
N879 H882 0.984 . S
N879 H883 0.985 . S
H880 N875 0.984 . S
H881 N875 0.985 . S
H882 N879 0.984 . S
H883 N879 0.985 . S
H884 N878 0.984 . S
H885 N878 0.984 . S
H886 N874 0.984 . S
H887 N874 0.985 . S
C888 C889 1.363 . S
C888 C894 1.379 . S
C888 N896 1.356 . S
C889 C888 1.363 . S
C889 C895 1.363 . S
C890 C891 1.363 . S
C890 C895 1.379 . S
C890 N897 1.356 . S
C891 C890 1.363 . S
C891 C894 1.363 . S
N892 C894 1.356 . S
N892 H904 0.984 . S
N892 H905 0.985 . S
N893 C895 1.356 . S
N893 H898 0.984 . S
N893 H899 0.985 . S
C894 C888 1.379 . S
C894 C891 1.363 . S
C894 N892 1.356 . S
C895 C889 1.363 . S
C895 C890 1.379 . S
C895 N893 1.356 . S
N896 C888 1.356 . S
N896 H902 0.984 . S
N896 H903 0.984 . S
N897 C890 1.356 . S
N897 H900 0.984 . S
N897 H901 0.985 . S
H898 N893 0.984 . S
H899 N893 0.985 . S
H900 N897 0.984 . S
H901 N897 0.985 . S
H902 N896 0.984 . S
H903 N896 0.984 . S
H904 N892 0.984 . S
H905 N892 0.985 . S
C906 C907 1.363 . S
C906 C912 1.379 . S
C906 N914 1.356 . S
C907 C906 1.363 . S
C907 C913 1.363 . S
C908 C909 1.363 . S
C908 C913 1.379 . S
C908 N915 1.356 . S
C909 C908 1.363 . S
C909 C912 1.363 . S
N910 C912 1.356 . S
N910 H922 0.984 . S
N910 H923 0.985 1_556 S
N911 C913 1.356 . S
N911 H916 0.984 . S
N911 H917 0.985 . S
C912 C906 1.379 . S
C912 C909 1.363 . S
C912 N910 1.356 . S
C913 C907 1.363 . S
C913 C908 1.379 . S
C913 N911 1.356 . S
N914 C906 1.356 . S
N914 H920 0.984 . S
N914 H921 0.984 . S
N915 C908 1.356 . S
N915 H918 0.982 1_556 S
N915 H919 0.985 . S
H916 N911 0.984 . S
H917 N911 0.985 . S
H918 N915 0.982 1_554 S
H919 N915 0.985 . S
H920 N914 0.984 . S
H921 N914 0.984 . S
H922 N910 0.984 . S
H923 N910 0.985 1_554 S
C924 C925 1.363 . S
C924 C930 1.379 . S
C924 N932 1.356 . S
C925 C924 1.363 . S
C925 C931 1.363 . S
C926 C927 1.363 . S
C926 C931 1.379 . S
C926 N933 1.356 . S
C927 C926 1.363 . S
C927 C930 1.363 . S
N928 C930 1.356 . S
N928 H940 0.984 . S
N928 H941 0.985 . S
N929 C931 1.356 . S
N929 H934 0.984 . S
N929 H935 0.985 . S
C930 C924 1.379 . S
C930 C927 1.363 . S
C930 N928 1.356 . S
C931 C925 1.363 . S
C931 C926 1.379 . S
C931 N929 1.356 . S
N932 C924 1.356 . S
N932 H938 0.984 . S
N932 H939 0.984 . S
N933 C926 1.356 . S
N933 H936 0.984 . S
N933 H937 0.985 . S
H934 N929 0.984 . S
H935 N929 0.985 . S
H936 N933 0.984 . S
H937 N933 0.985 . S
H938 N932 0.984 . S
H939 N932 0.984 . S
H940 N928 0.984 . S
H941 N928 0.985 . S
C942 C943 1.363 . S
C942 C948 1.379 1_556 S
C942 N950 1.356 . S
C943 C942 1.363 . S
C943 C949 1.363 . S
C944 C945 1.363 1_556 S
C944 C949 1.379 . S
C944 N951 1.356 . S
C945 C944 1.363 1_554 S
C945 C948 1.363 . S
N946 C948 1.356 . S
N946 H958 0.984 . S
N946 H959 0.985 . S
N947 C949 1.356 . S
N947 H952 0.984 . S
N947 H953 0.985 . S
C948 C942 1.379 1_554 S
C948 C945 1.363 . S
C948 N946 1.356 . S
C949 C943 1.363 . S
C949 C944 1.379 . S
C949 N947 1.356 . S
N950 C942 1.356 . S
N950 H956 0.984 . S
N950 H957 0.984 . S
N951 C944 1.356 . S
N951 H954 0.984 1_556 S
N951 H955 0.985 . S
H952 N947 0.984 . S
H953 N947 0.985 . S
H954 N951 0.984 1_554 S
H955 N951 0.985 . S
H956 N950 0.984 . S
H957 N950 0.984 . S
H958 N946 0.984 . S
H959 N946 0.985 . S
C960 C961 1.363 . S
C960 C966 1.379 . S
C960 N968 1.356 . S
C961 C960 1.363 . S
C961 C967 1.363 . S
C962 C963 1.363 . S
C962 C967 1.379 . S
C962 N969 1.356 . S
C963 C962 1.363 . S
C963 C966 1.363 . S
N964 C966 1.356 . S
N964 H976 0.984 . S
N964 H977 0.985 . S
N965 C967 1.356 . S
N965 H970 0.984 . S
N965 H971 0.985 . S
C966 C960 1.379 . S
C966 C963 1.363 . S
C966 N964 1.356 . S
C967 C961 1.363 . S
C967 C962 1.379 . S
C967 N965 1.356 . S
N968 C960 1.356 . S
N968 H974 0.984 . S
N968 H975 0.984 . S
N969 C962 1.356 . S
N969 H972 0.984 . S
N969 H973 0.985 . S
H970 N965 0.984 . S
H971 N965 0.985 . S
H972 N969 0.984 . S
H973 N969 0.985 . S
H974 N968 0.984 . S
H975 N968 0.984 . S
H976 N964 0.984 . S
H977 N964 0.985 . S
C978 C979 1.363 . S
C978 C984 1.379 . S
C978 N986 1.356 . S
C979 C978 1.363 . S
C979 C985 1.363 . S
C980 C981 1.363 . S
C980 C985 1.379 . S
C980 N987 1.356 . S
C981 C980 1.363 . S
C981 C984 1.363 . S
N982 C984 1.356 . S
N982 H994 0.984 . S
N982 H995 0.985 . S
N983 C985 1.356 . S
N983 H988 0.984 . S
N983 H989 0.985 . S
C984 C978 1.379 . S
C984 C981 1.363 . S
C984 N982 1.356 . S
C985 C979 1.363 . S
C985 C980 1.379 . S
C985 N983 1.356 . S
N986 C978 1.356 . S
N986 H992 0.984 . S
N986 H993 0.984 . S
N987 C980 1.356 . S
N987 H990 0.984 . S
N987 H991 0.985 . S
H988 N983 0.984 . S
H989 N983 0.985 . S
H990 N987 0.984 . S
H991 N987 0.985 . S
H992 N986 0.984 . S
H993 N986 0.984 . S
H994 N982 0.984 . S
H995 N982 0.985 . S
C996 C997 1.363 . S
C996 C1002 1.379 . S
C996 N1004 1.356 . S
C997 C996 1.363 . S
C997 C1003 1.363 . S
C998 C999 1.363 . S
C998 C1003 1.379 . S
C998 N1005 1.356 . S
C999 C998 1.363 . S
C999 C1002 1.363 . S
N1000 C1002 1.356 . S
N1000 H1012 0.984 . S
N1000 H1013 0.985 . S
N1001 C1003 1.356 . S
N1001 H1006 0.984 . S
N1001 H1007 0.985 . S
C1002 C996 1.379 . S
C1002 C999 1.363 . S
C1002 N1000 1.356 . S
C1003 C997 1.363 . S
C1003 C998 1.379 . S
C1003 N1001 1.356 . S
N1004 C996 1.356 . S
N1004 H1010 0.984 . S
N1004 H1011 0.984 . S
N1005 C998 1.356 . S
N1005 H1008 0.984 . S
N1005 H1009 0.985 . S
H1006 N1001 0.984 . S
H1007 N1001 0.985 . S
H1008 N1005 0.984 . S
H1009 N1005 0.985 . S
H1010 N1004 0.984 . S
H1011 N1004 0.984 . S
H1012 N1000 0.984 . S
H1013 N1000 0.985 . S
C1014 C1015 1.363 . S
C1014 C1020 1.379 . S
C1014 N1022 1.356 . S
C1015 C1014 1.363 . S
C1015 C1021 1.363 . S
C1016 C1017 1.363 . S
C1016 C1021 1.379 . S
C1016 N1023 1.356 . S
C1017 C1016 1.363 . S
C1017 C1020 1.363 . S
N1018 C1020 1.356 . S
N1018 H1030 0.984 . S
N1018 H1031 0.985 . S
N1019 C1021 1.356 . S
N1019 H1024 0.984 . S
N1019 H1025 0.985 . S
C1020 C1014 1.379 . S
C1020 C1017 1.363 . S
C1020 N1018 1.356 . S
C1021 C1015 1.363 . S
C1021 C1016 1.379 . S
C1021 N1019 1.356 . S
N1022 C1014 1.356 . S
N1022 H1028 0.984 . S
N1022 H1029 0.984 . S
N1023 C1016 1.356 . S
N1023 H1026 0.984 . S
N1023 H1027 0.985 . S
H1024 N1019 0.984 . S
H1025 N1019 0.985 . S
H1026 N1023 0.984 . S
H1027 N1023 0.985 . S
H1028 N1022 0.984 . S
H1029 N1022 0.984 . S
H1030 N1018 0.984 . S
H1031 N1018 0.985 . S
C1032 C1033 1.363 . S
C1032 C1038 1.379 1_544 S
C1032 N1040 1.356 1_554 S
C1033 C1032 1.363 . S
C1033 C1039 1.363 . S
C1034 C1035 1.363 . S
C1034 C1039 1.379 1_565 S
C1034 N1041 1.356 . S
C1035 C1034 1.363 . S
C1035 C1038 1.363 1_554 S
N1036 C1038 1.356 . S
N1036 H1048 0.984 . S
N1036 H1049 0.985 . S
N1037 C1039 1.356 . S
N1037 H1042 0.984 . S
N1037 H1043 0.985 . S
C1038 C1032 1.379 1_566 S
C1038 C1035 1.363 1_556 S
C1038 N1036 1.356 . S
C1039 C1033 1.363 . S
C1039 C1034 1.379 1_545 S
C1039 N1037 1.356 . S
N1040 C1032 1.356 1_556 S
N1040 H1046 0.984 . S
N1040 H1047 0.992 . S
N1041 C1034 1.356 . S
N1041 H1044 0.984 . S
N1041 H1045 0.985 . S
H1042 N1037 0.984 . S
H1043 N1037 0.985 . S
H1044 N1041 0.984 . S
H1045 N1041 0.985 . S
H1046 N1040 0.984 . S
H1047 N1040 0.992 . S
H1048 N1036 0.984 . S
H1049 N1036 0.985 . S
C1050 C1051 1.363 . S
C1050 C1056 1.379 . S
C1050 N1058 1.356 . S
C1051 C1050 1.363 . S
C1051 C1057 1.363 . S
C1052 C1053 1.363 . S
C1052 C1057 1.379 . S
C1052 N1059 1.356 . S
C1053 C1052 1.363 . S
C1053 C1056 1.363 . S
N1054 C1056 1.356 . S
N1054 H1066 0.984 . S
N1054 H1067 0.985 . S
N1055 C1057 1.356 . S
N1055 H1060 0.984 . S
N1055 H1061 0.985 . S
C1056 C1050 1.379 . S
C1056 C1053 1.363 . S
C1056 N1054 1.356 . S
C1057 C1051 1.363 . S
C1057 C1052 1.379 . S
C1057 N1055 1.356 . S
N1058 C1050 1.356 . S
N1058 H1064 0.984 . S
N1058 H1065 0.984 . S
N1059 C1052 1.356 . S
N1059 H1062 0.984 . S
N1059 H1063 0.985 . S
H1060 N1055 0.984 . S
H1061 N1055 0.985 . S
H1062 N1059 0.984 . S
H1063 N1059 0.985 . S
H1064 N1058 0.984 . S
H1065 N1058 0.984 . S
H1066 N1054 0.984 . S
H1067 N1054 0.985 . S
C1068 C1069 1.363 . S
C1068 C1074 1.379 1_455 S
C1068 N1076 1.356 . S
C1069 C1068 1.363 . S
C1069 C1075 1.363 . S
C1070 C1071 1.363 . S
C1070 C1075 1.379 1_655 S
C1070 N1077 1.356 . S
C1071 C1070 1.363 . S
C1071 C1074 1.363 . S
N1072 C1074 1.356 . S
N1072 H1084 0.984 . S
N1072 H1085 0.985 . S
N1073 C1075 1.356 . S
N1073 H1078 0.984 . S
N1073 H1079 0.985 . S
C1074 C1068 1.379 1_655 S
C1074 C1071 1.363 . S
C1074 N1072 1.356 . S
C1075 C1069 1.363 . S
C1075 C1070 1.379 1_455 S
C1075 N1073 1.356 . S
N1076 C1068 1.356 . S
N1076 H1082 0.984 . S
N1076 H1083 0.984 . S
N1077 C1070 1.356 . S
N1077 H1080 0.984 . S
N1077 H1081 0.985 . S
H1078 N1073 0.984 . S
H1079 N1073 0.985 . S
H1080 N1077 0.984 . S
H1081 N1077 0.985 . S
H1082 N1076 0.984 . S
H1083 N1076 0.984 . S
H1084 N1072 0.984 . S
H1085 N1072 0.985 . S
C1086 C1087 1.363 . S
C1086 C1092 1.379 1_565 S
C1086 N1094 1.356 . S
C1087 C1086 1.363 . S
C1087 C1093 1.363 . S
C1088 C1089 1.363 . S
C1088 C1093 1.379 1_545 S
C1088 N1095 1.356 . S
C1089 C1088 1.363 . S
C1089 C1092 1.363 . S
N1090 C1092 1.356 . S
N1090 H1102 0.984 . S
N1090 H1103 0.985 . S
N1091 C1093 1.356 . S
N1091 H1096 0.984 . S
N1091 H1097 0.985 . S
C1092 C1086 1.379 1_545 S
C1092 C1089 1.363 . S
C1092 N1090 1.356 . S
C1093 C1087 1.363 . S
C1093 C1088 1.379 1_565 S
C1093 N1091 1.356 . S
N1094 C1086 1.356 . S
N1094 H1100 0.984 . S
N1094 H1101 0.984 . S
N1095 C1088 1.356 . S
N1095 H1098 0.984 . S
N1095 H1099 0.985 . S
H1096 N1091 0.984 . S
H1097 N1091 0.985 . S
H1098 N1095 0.984 . S
H1099 N1095 0.985 . S
H1100 N1094 0.984 . S
H1101 N1094 0.984 . S
H1102 N1090 0.984 . S
H1103 N1090 0.985 . S
C1104 C1105 1.363 . S
C1104 C1110 1.379 . S
C1104 N1112 1.356 . S
C1105 C1104 1.363 . S
C1105 C1111 1.363 . S
C1106 C1107 1.363 . S
C1106 C1111 1.379 . S
C1106 N1113 1.356 . S
C1107 C1106 1.363 . S
C1107 C1110 1.363 . S
N1108 C1110 1.356 . S
N1108 H1120 0.984 . S
N1108 H1121 0.985 . S
N1109 C1111 1.356 . S
N1109 H1114 0.984 . S
N1109 H1115 0.985 . S
C1110 C1104 1.379 . S
C1110 C1107 1.363 . S
C1110 N1108 1.356 . S
C1111 C1105 1.363 . S
C1111 C1106 1.379 . S
C1111 N1109 1.356 . S
N1112 C1104 1.356 . S
N1112 H1118 0.984 . S
N1112 H1119 0.984 . S
N1113 C1106 1.356 . S
N1113 H1116 0.984 . S
N1113 H1117 0.985 . S
H1114 N1109 0.984 . S
H1115 N1109 0.985 . S
H1116 N1113 0.984 . S
H1117 N1113 0.985 . S
H1118 N1112 0.984 . S
H1119 N1112 0.984 . S
H1120 N1108 0.984 . S
H1121 N1108 0.985 . S
C1122 C1123 1.363 . S
C1122 C1128 1.379 1_455 S
C1122 N1130 1.356 . S
C1123 C1122 1.363 . S
C1123 C1129 1.363 . S
C1124 C1125 1.363 . S
C1124 C1129 1.379 1_655 S
C1124 N1131 1.356 . S
C1125 C1124 1.363 . S
C1125 C1128 1.363 . S
N1126 C1128 1.356 . S
N1126 H1138 0.984 . S
N1126 H1139 0.985 . S
N1127 C1129 1.356 . S
N1127 H1132 0.984 . S
N1127 H1133 0.985 . S
C1128 C1122 1.379 1_655 S
C1128 C1125 1.363 . S
C1128 N1126 1.356 . S
C1129 C1123 1.363 . S
C1129 C1124 1.379 1_455 S
C1129 N1127 1.356 . S
N1130 C1122 1.356 . S
N1130 H1136 0.984 . S
N1130 H1137 0.984 . S
N1131 C1124 1.356 . S
N1131 H1134 0.984 . S
N1131 H1135 0.985 . S
H1132 N1127 0.984 . S
H1133 N1127 0.985 . S
H1134 N1131 0.984 . S
H1135 N1131 0.985 . S
H1136 N1130 0.984 . S
H1137 N1130 0.984 . S
H1138 N1126 0.984 . S
H1139 N1126 0.985 . S
C709 C52 1.448 . S
C711 C642 1.448 . S
C727 C111 1.449 . S
C729 C701 1.449 . S
C745 C406 1.448 . S
C747 C170 1.448 . S
C763 C229 1.448 . S
C765 C465 1.448 . S
C781 C524 1.449 . S
C783 C288 1.449 . S
C799 C583 1.448 . S
C801 C347 1.448 . S
C817 C475 1.442 . S
C819 C3 1.442 . S
C835 C62 1.442 . S
C837 C534 1.442 . S
C853 C593 1.441 . S
C855 C121 1.441 . S
C871 C180 1.442 . S
C873 C652 1.442 . S
C889 C239 1.442 . S
C891 C357 1.442 . S
C907 C298 1.441 . S
C909 C416 1.441 . S
C925 C595 1.431 . S
C927 C5 1.431 . S
C943 C654 1.431 . S
C945 C64 1.431 . S
C961 C359 1.431 . S
C963 C123 1.431 . S
C979 C182 1.431 . S
C981 C418 1.431 . S
C997 C241 1.431 . S
C999 C477 1.431 . S
C1015 C536 1.431 . S
C1017 C300 1.431 . S
C1033 C33 1.446 . S
C1035 C446 1.447 . S
C1051 C505 1.447 . S
C1053 C92 1.447 . S
C1069 C564 1.446 . S
C1071 C151 1.447 . S
C1087 C210 1.447 . S
C1089 C623 1.447 . S
C1105 C269 1.447 . S
C1107 C682 1.447 . S
C1123 C328 1.447 . S
C1125 C387 1.447 . S
