# Generated by pormake.
# Topology cag, (4)-cn, num edge types: 1
# Building blocks:
#     Node 0, Type 0, BuildingBlock: KUFVIS_clean_sbu_0, # of connection points: 4
#     Node 1, Type 0, BuildingBlock: KUFVIS_clean_sbu_0, # of connection points: 4
#     Node 2, Type 0, BuildingBlock: KUFVIS_clean_sbu_0, # of connection points: 4
#     Node 3, Type 0, BuildingBlock: KUFVIS_clean_sbu_0, # of connection points: 4
#     Node 4, Type 0, BuildingBlock: KUFVIS_clean_sbu_0, # of connection points: 4
#     Node 5, Type 0, BuildingBlock: KUFVIS_clean_sbu_0, # of connection points: 4
#     Node 6, Type 0, BuildingBlock: KUFVIS_clean_sbu_0, # of connection points: 4
#     Node 7, Type 0, BuildingBlock: KUFVIS_clean_sbu_0, # of connection points: 4
#     Node 8, Type 0, BuildingBlock: KUFVIS_clean_sbu_0, # of connection points: 4
#     Node 9, Type 0, BuildingBlock: KUFVIS_clean_sbu_0, # of connection points: 4
#     Node 10, Type 0, BuildingBlock: KUFVIS_clean_sbu_0, # of connection points: 4
#     Node 11, Type 0, BuildingBlock: KUFVIS_clean_sbu_0, # of connection points: 4
#     Node 12, Type 0, BuildingBlock: KUFVIS_clean_sbu_0, # of connection points: 4
#     Node 13, Type 0, BuildingBlock: KUFVIS_clean_sbu_0, # of connection points: 4
#     Node 14, Type 0, BuildingBlock: KUFVIS_clean_sbu_0, # of connection points: 4
#     Node 15, Type 0, BuildingBlock: KUFVIS_clean_sbu_0, # of connection points: 4
#     Edge 16, Type (0, 0), None
#     Edge 17, Type (0, 0), None
#     Edge 18, Type (0, 0), None
#     Edge 19, Type (0, 0), None
#     Edge 20, Type (0, 0), None
#     Edge 21, Type (0, 0), None
#     Edge 22, Type (0, 0), None
#     Edge 23, Type (0, 0), None
#     Edge 24, Type (0, 0), None
#     Edge 25, Type (0, 0), None
#     Edge 26, Type (0, 0), None
#     Edge 27, Type (0, 0), None
#     Edge 28, Type (0, 0), None
#     Edge 29, Type (0, 0), None
#     Edge 30, Type (0, 0), None
#     Edge 31, Type (0, 0), None
#     Edge 32, Type (0, 0), None
#     Edge 33, Type (0, 0), None
#     Edge 34, Type (0, 0), None
#     Edge 35, Type (0, 0), None
#     Edge 36, Type (0, 0), None
#     Edge 37, Type (0, 0), None
#     Edge 38, Type (0, 0), None
#     Edge 39, Type (0, 0), None
#     Edge 40, Type (0, 0), None
#     Edge 41, Type (0, 0), None
#     Edge 42, Type (0, 0), None
#     Edge 43, Type (0, 0), None
#     Edge 44, Type (0, 0), None
#     Edge 45, Type (0, 0), None
#     Edge 46, Type (0, 0), None
#     Edge 47, Type (0, 0), None
# Relax obj value: 0.091
# Max RMSD: 0.125
# Mean RMSD: 0.119
data_MOF--net-cag--node1-KUFVIS_clean_sbu_0--edge1-none
_symmetry_space_group_name_H-M    P1
_symmetry_Int_Tables_number       1
_symmetry_cell_setting            triclinic
loop_
_symmetry_equiv_pos_as_xyz
'x, y, z'
_cell_length_a     17.525528
_cell_length_b     23.195278
_cell_length_c     18.369002
_cell_angle_alpha  90.0
_cell_angle_beta   89.999999
_cell_angle_gamma 90.000006
loop_
_atom_site_label
_atom_site_type_symbol
_atom_site_fract_x
_atom_site_fract_y
_atom_site_fract_z
_atom_type_partial_charge
Mn0 Mn 0.36368 0.12546 0.10359 0.0
Mn1 Mn 0.42064 0.24881 0.18518 0.0
C2 C 0.4902 0.15475 0.1016 0.0
C3 C 0.35042 0.03337 0.04954 0.0
C4 C 0.32007 0.24868 0.05938 0.0
O5 O 0.2993 0.12184 0.1986 0.0
O6 O 0.31919 0.21676 0.21835 0.0
C7 C 0.44146 0.17572 0.34984 0.0
N8 N 0.45159 0.23787 0.30884 0.0
C9 C 0.63137 0.25101 0.35964 0.0
C10 C 0.61244 0.18402 0.39855 0.0
C11 C 0.52329 0.14839 0.39403 0.0
C12 C 0.56457 0.28286 0.31193 0.0
H13 H 0.43088 0.21415 0.3173 0.0
C14 C 0.29711 0.1666 0.24094 0.0
O15 O 0.30249 0.0741 0.03809 0.0
O16 O 0.39902 0.04189 0.10229 0.0
N17 N 0.53665 0.29614 0.14219 0.0
C18 C 0.51231 0.3529 0.09904 0.0
C19 C 0.57969 0.4419 0.1703 0.0
C20 C 0.63334 0.42357 0.24057 0.0
C21 C 0.64579 0.35737 0.26894 0.0
C22 C 0.6034 0.30075 0.23495 0.0
H23 H 0.47048 0.35107 0.05505 0.0
O24 O 0.45763 0.13731 0.04182 0.0
O25 O 0.4452 0.16674 0.15438 0.0
O26 O 0.30388 0.19651 0.0708 0.0
O27 O 0.37917 0.27057 0.08768 0.0
C28 C 0.69299 0.34539 0.33052 0.0
C29 C 0.69172 0.29081 0.368 0.0
H30 H 0.65738 0.16228 0.4273 0.0
H31 H 0.52106 0.10506 0.41254 0.0
H32 H 0.57699 0.4885 0.16073 0.0
H33 H 0.66219 0.4578 0.26961 0.0
H34 H 0.73121 0.37862 0.3501 0.0
H35 H 0.73339 0.28433 0.408 0.0
Mn36 Mn 0.18564 0.88936 0.60359 0.0
Mn37 Mn 0.12869 0.76601 0.68518 0.0
C38 C 0.05913 0.86006 0.6016 0.0
C39 C 0.19891 0.98145 0.54954 0.0
C40 C 0.22926 0.76614 0.55938 0.0
O41 O 0.25003 0.89298 0.6986 0.0
O42 O 0.23013 0.79806 0.71835 0.0
C43 C 0.10787 0.8391 0.84984 0.0
N44 N 0.09773 0.77695 0.80884 0.0
C45 C 0.91795 0.76381 0.85964 0.0
C46 C 0.93689 0.8308 0.89855 0.0
C47 C 0.02603 0.86643 0.89403 0.0
C48 C 0.98475 0.73196 0.81193 0.0
H49 H 0.11844 0.80066 0.8173 0.0
C50 C 0.25221 0.84822 0.74094 0.0
O51 O 0.24684 0.94072 0.53809 0.0
O52 O 0.15031 0.97293 0.60229 0.0
N53 N 1.01268 0.71868 0.64219 0.0
C54 C 0.03702 0.66192 0.59904 0.0
C55 C 0.96964 0.57292 0.6703 0.0
C56 C 0.91598 0.59125 0.74057 0.0
C57 C 0.90353 0.65744 0.76894 0.0
C58 C 0.94593 0.71407 0.73495 0.0
H59 H 0.07885 0.66375 0.55505 0.0
O60 O 0.0917 0.87751 0.54182 0.0
O61 O 0.10413 0.84808 0.65438 0.0
O62 O 0.24544 0.81831 0.5708 0.0
O63 O 0.17016 0.74425 0.58768 0.0
C64 C 0.85633 0.66943 0.83052 0.0
C65 C 0.8576 0.724 0.868 0.0
H66 H 0.89195 0.85254 0.9273 0.0
H67 H 0.02827 0.90976 0.91254 0.0
H68 H 0.97234 0.52632 0.66073 0.0
H69 H 0.88714 0.55702 0.76961 0.0
H70 H 0.81812 0.6362 0.8501 0.0
H71 H 0.81594 0.73049 0.908 0.0
Mn72 Mn 0.36368 0.88935 0.94802 0.0
Mn73 Mn 0.42064 0.766 0.86643 0.0
C74 C 0.49019 0.86006 0.95001 0.0
C75 C 0.35042 0.98144 1.00208 0.0
C76 C 0.32007 0.76613 0.99223 0.0
O77 O 0.29929 0.89298 0.85301 0.0
O78 O 0.3192 0.79805 0.83326 0.0
C79 C 0.44146 0.83909 0.70176 0.0
N80 N 0.45159 0.77694 0.74277 0.0
C81 C 0.63137 0.76381 0.69197 0.0
C82 C 0.61244 0.83079 0.65306 0.0
C83 C 0.52329 0.86642 0.65757 0.0
C84 C 0.56457 0.73195 0.73967 0.0
H85 H 0.43088 0.80066 0.7343 0.0
C86 C 0.29713 0.84822 0.81067 0.0
O87 O 0.30248 0.94071 1.01353 0.0
O88 O 0.39902 0.97293 0.94933 0.0
N89 N 0.53665 0.71867 0.90942 0.0
C90 C 0.51231 0.66191 0.95257 0.0
C91 C 0.57969 0.57292 0.88131 0.0
C92 C 0.63334 0.59124 0.81104 0.0
C93 C 0.64579 0.65744 0.78267 0.0
C94 C 0.6034 0.71407 0.81665 0.0
H95 H 0.47048 0.66375 0.99656 0.0
O96 O 0.45763 0.8775 1.00979 0.0
O97 O 0.44519 0.84808 0.89723 0.0
O98 O 0.30388 0.8183 0.9808 0.0
O99 O 0.37917 0.74425 0.96392 0.0
C100 C 0.693 0.66943 0.72109 0.0
C101 C 0.69173 0.724 0.6836 0.0
H102 H 0.65738 0.85253 0.62431 0.0
H103 H 0.52106 0.90975 0.63906 0.0
H104 H 0.57699 0.52632 0.89088 0.0
H105 H 0.66219 0.55701 0.782 0.0
H106 H 0.73121 0.63619 0.70151 0.0
H107 H 0.73339 0.73049 0.64361 0.0
Mn108 Mn 0.18565 0.12546 0.44802 0.0
Mn109 Mn 0.12869 0.24882 0.36643 0.0
C110 C 0.05913 0.15476 0.45001 0.0
C111 C 0.1989 0.03338 0.50208 0.0
C112 C 0.22926 0.24869 0.49223 0.0
O113 O 0.25003 0.12184 0.35301 0.0
O114 O 0.23013 0.21676 0.33326 0.0
C115 C 0.10787 0.17573 0.20176 0.0
N116 N 0.09773 0.23787 0.24277 0.0
C117 C 0.91795 0.25101 0.19197 0.0
C118 C 0.93689 0.18402 0.15306 0.0
C119 C 0.02603 0.14839 0.15757 0.0
C120 C 0.98475 0.28287 0.23967 0.0
H121 H 0.11844 0.21416 0.2343 0.0
C122 C 0.25219 0.1666 0.31067 0.0
O123 O 0.24684 0.07411 0.51353 0.0
O124 O 0.15031 0.04189 0.44933 0.0
N125 N 1.01268 0.29614 0.40942 0.0
C126 C 0.03702 0.35291 0.45257 0.0
C127 C 0.96963 0.4419 0.38131 0.0
C128 C 0.91598 0.42357 0.31104 0.0
C129 C 0.90353 0.35738 0.28267 0.0
C130 C 0.94593 0.30075 0.31665 0.0
H131 H 0.07885 0.35107 0.49656 0.0
O132 O 0.0917 0.13731 0.50979 0.0
O133 O 0.10413 0.16674 0.39723 0.0
O134 O 0.24545 0.19652 0.4808 0.0
O135 O 0.17016 0.27057 0.46392 0.0
C136 C 0.85633 0.34539 0.22109 0.0
C137 C 0.8576 0.29082 0.1836 0.0
H138 H 0.89195 0.16229 0.12431 0.0
H139 H 0.02827 0.10507 0.13906 0.0
H140 H 0.97234 0.4885 0.39088 0.0
H141 H 0.88714 0.45781 0.282 0.0
H142 H 0.81812 0.37863 0.20151 0.0
H143 H 0.81594 0.28433 0.14361 0.0
Mn144 Mn 0.70232 0.89268 0.94389 0.0
Mn145 Mn 0.62785 0.75898 0.91094 0.0
C146 C 0.57105 0.87371 0.93355 0.0
C147 C 0.72807 0.97776 1.01069 0.0
C148 C 0.7487 0.82105 0.80965 0.0
O149 O 0.77786 0.83567 0.99607 0.0
O150 O 0.71163 0.7504 0.98419 0.0
C151 C 0.62701 0.6197 0.98219 0.0
N152 N 0.62034 0.65606 0.90612 0.0
C153 C 0.45124 0.59937 0.86757 0.0
C154 C 0.46688 0.56523 0.95094 0.0
C155 C 0.54989 0.57446 1.0054 0.0
C156 C 0.51535 0.64551 0.83696 0.0
H157 H 0.67162 0.62887 1.02107 0.0
C158 C 0.76622 0.7816 1.01175 0.0
O159 O 0.76315 0.966 0.9509 0.0
O160 O 0.68425 0.9374 0.03671 0.0
N161 N 0.52104 0.78127 0.83256 0.0
C162 C 0.55143 0.82151 0.76801 0.0
C163 C 0.50847 0.76661 0.64282 0.0
C164 C 0.46058 0.7051 0.65577 0.0
C165 C 0.44031 0.67711 0.73611 0.0
C166 C 0.46951 0.70273 0.81282 0.0
H167 H 0.5876 0.85889 0.779 0.0
O168 O 0.5963 0.92425 0.91484 0.0
O169 O 0.6231 0.83697 0.94403 0.0
O170 O 0.73805 0.86958 0.84053 0.0
O171 O 0.71522 0.77519 0.83376 0.0
C172 C 0.39647 0.6247 0.74556 0.0
C173 C 0.39348 0.59233 0.81396 0.0
H174 H 0.42413 0.53504 0.96946 0.0
H175 H 0.55485 0.55028 0.05471 0.0
H176 H 0.51787 0.77797 0.58562 0.0
H177 H 0.44072 0.68242 0.60793 0.0
H178 H 0.36353 0.60889 0.69991 0.0
H179 H 0.35208 0.55812 0.82046 0.0
Mn180 Mn 0.847 0.12213 0.44389 0.0
Mn181 Mn 0.92148 0.25584 0.41094 0.0
C182 C 0.97828 0.1411 0.43355 0.0
C183 C 0.82125 0.03706 0.51069 0.0
C184 C 0.80063 0.19377 0.30965 0.0
O185 O 0.77146 0.17915 0.49607 0.0
O186 O 0.83769 0.26442 0.48419 0.0
C187 C 0.92232 0.39512 0.48219 0.0
N188 N 0.92899 0.35876 0.40612 0.0
C189 C 0.09809 0.41545 0.36757 0.0
C190 C 0.08245 0.44959 0.45094 0.0
C191 C 0.99943 0.44036 0.5054 0.0
C192 C 0.03397 0.36931 0.33696 0.0
H193 H 0.87771 0.38595 0.52107 0.0
C194 C 0.78311 0.23322 0.51175 0.0
O195 O 0.78618 0.04882 0.4509 0.0
O196 O 0.86508 0.07742 0.53671 0.0
N197 N 0.02829 0.23355 0.33256 0.0
C198 C 0.99789 0.1933 0.26801 0.0
C199 C 0.04086 0.24821 0.14282 0.0
C200 C 0.08875 0.30972 0.15577 0.0
C201 C 0.10902 0.33771 0.23611 0.0
C202 C 0.07981 0.31208 0.31282 0.0
H203 H 0.96172 0.15593 0.279 0.0
O204 O 0.95303 0.09057 0.41484 0.0
O205 O 0.92623 0.17785 0.44403 0.0
O206 O 0.81128 0.14524 0.34053 0.0
O207 O 0.83411 0.23962 0.33376 0.0
C208 C 0.15285 0.39012 0.24556 0.0
C209 C 0.15584 0.42248 0.31396 0.0
H210 H 0.1252 0.47978 0.46946 0.0
H211 H 0.99448 0.46454 0.55471 0.0
H212 H 0.03146 0.23685 0.08562 0.0
H213 H 0.10861 0.3324 0.10793 0.0
H214 H 0.1858 0.40593 0.19991 0.0
H215 H 0.19725 0.4567 0.32046 0.0
Mn216 Mn 0.70233 0.12213 0.10772 0.0
Mn217 Mn 0.62785 0.25583 0.14067 0.0
C218 C 0.57105 0.1411 0.11806 0.0
C219 C 0.72806 0.03705 0.04095 0.0
C220 C 0.7487 0.19377 0.24196 0.0
O221 O 0.77786 0.17914 0.05554 0.0
O222 O 0.71163 0.26442 0.06742 0.0
C223 C 0.62701 0.39511 0.06942 0.0
N224 N 0.62034 0.35875 0.14549 0.0
C225 C 0.45124 0.41544 0.18403 0.0
C226 C 0.46688 0.44958 0.10067 0.0
C227 C 0.54989 0.44036 0.04621 0.0
C228 C 0.51535 0.3693 0.21464 0.0
H229 H 0.67162 0.38594 0.03054 0.0
C230 C 0.76622 0.23321 0.03985 0.0
O231 O 0.76315 0.04881 0.10073 0.0
O232 O 0.68425 0.0774 1.01491 0.0
N233 N 0.52104 0.23354 0.21905 0.0
C234 C 0.55143 0.1933 0.2836 0.0
C235 C 0.50847 0.24821 0.40879 0.0
C236 C 0.46057 0.30972 0.39584 0.0
C237 C 0.44031 0.33771 0.3155 0.0
C238 C 0.46951 0.31208 0.23879 0.0
H239 H 0.58761 0.15593 0.27261 0.0
O240 O 0.5963 0.09057 0.13678 0.0
O241 O 0.6231 0.17785 0.10758 0.0
O242 O 0.73805 0.14524 0.21108 0.0
O243 O 0.71522 0.23962 0.21785 0.0
C244 C 0.39647 0.39012 0.30604 0.0
C245 C 0.39348 0.42248 0.23765 0.0
H246 H 0.42413 0.47978 0.08215 0.0
H247 H 0.55485 0.46454 0.9969 0.0
H248 H 0.51787 0.23684 0.46598 0.0
H249 H 0.44071 0.33239 0.44367 0.0
H250 H 0.36352 0.40592 0.3517 0.0
H251 H 0.35208 0.45669 0.23114 0.0
Mn252 Mn 0.847 0.89269 0.60772 0.0
Mn253 Mn 0.92148 0.75899 0.64067 0.0
C254 C 0.97828 0.87372 0.61806 0.0
C255 C 0.82127 0.97777 0.54095 0.0
C256 C 0.80063 0.82105 0.74196 0.0
O257 O 0.77146 0.83568 0.55554 0.0
O258 O 0.83769 0.7504 0.56742 0.0
C259 C 0.92232 0.6197 0.56942 0.0
N260 N 0.92899 0.65607 0.64549 0.0
C261 C 0.09809 0.59938 0.68403 0.0
C262 C 0.08245 0.56524 0.60067 0.0
C263 C 0.99943 0.57446 0.54621 0.0
C264 C 0.03397 0.64552 0.71464 0.0
H265 H 0.87771 0.62888 0.53054 0.0
C266 C 0.78311 0.78161 0.53985 0.0
O267 O 0.78618 0.966 0.60073 0.0
O268 O 0.86508 0.93742 0.51491 0.0
N269 N 0.02829 0.78128 0.71905 0.0
C270 C 0.99789 0.82152 0.7836 0.0
C271 C 0.04086 0.76661 0.90879 0.0
C272 C 0.08875 0.7051 0.89584 0.0
C273 C 0.10902 0.67711 0.8155 0.0
C274 C 0.07981 0.70274 0.73879 0.0
H275 H 0.96172 0.85889 0.77261 0.0
O276 O 0.95303 0.92425 0.63678 0.0
O277 O 0.92623 0.83697 0.60758 0.0
O278 O 0.81127 0.86958 0.71108 0.0
O279 O 0.83411 0.7752 0.71785 0.0
C280 C 0.15286 0.6247 0.80604 0.0
C281 C 0.15585 0.59234 0.73765 0.0
H282 H 0.1252 0.53504 0.58215 0.0
H283 H 0.99448 0.55028 0.4969 0.0
H284 H 0.03146 0.77797 0.96598 0.0
H285 H 0.10861 0.68243 0.94367 0.0
H286 H 0.1858 0.6089 0.8517 0.0
H287 H 0.19725 0.55813 0.73114 0.0
Mn288 Mn 0.86368 0.62546 0.10359 0.0
Mn289 Mn 0.92064 0.74881 0.18518 0.0
C290 C 0.9902 0.65475 0.1016 0.0
C291 C 0.85042 0.53337 0.04954 0.0
C292 C 0.82007 0.74868 0.05938 0.0
O293 O 0.7993 0.62184 0.1986 0.0
O294 O 0.81919 0.71676 0.21835 0.0
C295 C 0.94146 0.67572 0.34984 0.0
N296 N 0.95159 0.73787 0.30884 0.0
C297 C 0.13137 0.75101 0.35964 0.0
C298 C 0.11244 0.68402 0.39855 0.0
C299 C 1.02329 0.64839 0.39403 0.0
C300 C 0.06457 0.78286 0.31194 0.0
H301 H 0.93088 0.71415 0.3173 0.0
C302 C 0.79711 0.6666 0.24094 0.0
O303 O 0.80249 0.5741 0.03809 0.0
O304 O 0.89902 0.54189 0.10229 0.0
N305 N 0.03665 0.79614 0.14219 0.0
C306 C 1.01231 0.8529 0.09904 0.0
C307 C 0.07969 0.94189 0.1703 0.0
C308 C 0.13334 0.92357 0.24057 0.0
C309 C 0.14579 0.85737 0.26894 0.0
C310 C 0.1034 0.80075 0.23495 0.0
H311 H 0.97048 0.85107 0.05505 0.0
O312 O 0.95763 0.63731 0.04182 0.0
O313 O 0.9452 0.66674 0.15438 0.0
O314 O 0.80388 0.69651 0.0708 0.0
O315 O 0.87917 0.77057 0.08768 0.0
C316 C 0.19299 0.84538 0.33052 0.0
C317 C 0.19172 0.79081 0.36801 0.0
H318 H 0.15738 0.66228 0.4273 0.0
H319 H 1.02106 0.60506 0.41254 0.0
H320 H 0.07699 0.98849 0.16073 0.0
H321 H 0.16219 0.9578 0.26961 0.0
H322 H 0.23121 0.87862 0.3501 0.0
H323 H 0.23339 0.78432 0.408 0.0
Mn324 Mn 0.68564 0.38936 0.60359 0.0
Mn325 Mn 0.62869 0.26601 0.68518 0.0
C326 C 0.55913 0.36006 0.6016 0.0
C327 C 0.69891 0.48145 0.54954 0.0
C328 C 0.72926 0.26614 0.55938 0.0
O329 O 0.75003 0.39298 0.6986 0.0
O330 O 0.73013 0.29806 0.71835 0.0
C331 C 0.60787 0.3391 0.84984 0.0
N332 N 0.59773 0.27695 0.80884 0.0
C333 C 0.41796 0.26381 0.85964 0.0
C334 C 0.43689 0.3308 0.89855 0.0
C335 C 0.52603 0.36643 0.89403 0.0
C336 C 0.48475 0.23196 0.81194 0.0
H337 H 0.61844 0.30067 0.8173 0.0
C338 C 0.75221 0.34822 0.74094 0.0
O339 O 0.74684 0.44072 0.53809 0.0
O340 O 0.65031 0.47293 0.60229 0.0
N341 N 0.51268 0.21868 0.64219 0.0
C342 C 0.53702 0.16192 0.59904 0.0
C343 C 0.46963 0.07292 0.6703 0.0
C344 C 0.41598 0.09125 0.74057 0.0
C345 C 0.40353 0.15745 0.76894 0.0
C346 C 0.44593 0.21407 0.73495 0.0
H347 H 0.57885 0.16375 0.55505 0.0
O348 O 0.5917 0.37751 0.54182 0.0
O349 O 0.60413 0.34808 0.65438 0.0
O350 O 0.74544 0.31831 0.5708 0.0
O351 O 0.67016 0.24425 0.58768 0.0
C352 C 0.35633 0.16944 0.83052 0.0
C353 C 0.3576 0.22401 0.86801 0.0
H354 H 0.39195 0.35254 0.9273 0.0
H355 H 0.52827 0.40976 0.91254 0.0
H356 H 0.47234 0.02632 0.66073 0.0
H357 H 0.38714 0.05702 0.76961 0.0
H358 H 0.31812 0.1362 0.8501 0.0
H359 H 0.31594 0.23049 0.908 0.0
Mn360 Mn 0.86368 0.38935 0.94802 0.0
Mn361 Mn 0.92064 0.266 0.86643 0.0
C362 C 0.99019 0.36006 0.95001 0.0
C363 C 0.85042 0.48144 1.00208 0.0
C364 C 0.82007 0.26613 0.99223 0.0
O365 O 0.79929 0.39298 0.85301 0.0
O366 O 0.8192 0.29805 0.83326 0.0
C367 C 0.94146 0.33909 0.70176 0.0
N368 N 0.95159 0.27695 0.74277 0.0
C369 C 0.13137 0.26381 0.69197 0.0
C370 C 0.11244 0.3308 0.65306 0.0
C371 C 1.02329 0.36643 0.65757 0.0
C372 C 0.06457 0.23195 0.73967 0.0
H373 H 0.93088 0.30066 0.7343 0.0
C374 C 0.79713 0.34822 0.81067 0.0
O375 O 0.80248 0.44071 1.01353 0.0
O376 O 0.89902 0.47293 0.94933 0.0
N377 N 0.03665 0.21867 0.90942 0.0
C378 C 1.01231 0.16191 0.95257 0.0
C379 C 0.07969 0.07292 0.8813 0.0
C380 C 0.13335 0.09125 0.81104 0.0
C381 C 0.1458 0.15744 0.78267 0.0
C382 C 0.1034 0.21407 0.81665 0.0
H383 H 0.97048 0.16375 0.99656 0.0
O384 O 0.95763 0.37751 1.00979 0.0
O385 O 0.9452 0.34808 0.89723 0.0
O386 O 0.80388 0.3183 0.9808 0.0
O387 O 0.87917 0.24425 0.96392 0.0
C388 C 0.193 0.16943 0.72109 0.0
C389 C 0.19172 0.224 0.6836 0.0
H390 H 0.15738 0.35254 0.62431 0.0
H391 H 1.02106 0.40976 0.63906 0.0
H392 H 0.07699 0.02632 0.89088 0.0
H393 H 0.16219 0.05702 0.782 0.0
H394 H 0.23121 0.1362 0.7015 0.0
H395 H 0.23339 0.23049 0.64361 0.0
Mn396 Mn 0.68565 0.62546 0.44802 0.0
Mn397 Mn 0.62869 0.74882 0.36643 0.0
C398 C 0.55913 0.65476 0.45001 0.0
C399 C 0.6989 0.53338 0.50208 0.0
C400 C 0.72926 0.74869 0.49223 0.0
O401 O 0.75003 0.62184 0.35301 0.0
O402 O 0.73013 0.71676 0.33326 0.0
C403 C 0.60787 0.67573 0.20176 0.0
N404 N 0.59773 0.73787 0.24277 0.0
C405 C 0.41795 0.75101 0.19197 0.0
C406 C 0.43689 0.68402 0.15306 0.0
C407 C 0.52603 0.64839 0.15757 0.0
C408 C 0.48475 0.78286 0.23967 0.0
H409 H 0.61844 0.71416 0.2343 0.0
C410 C 0.75219 0.6666 0.31067 0.0
O411 O 0.74684 0.57411 0.51353 0.0
O412 O 0.65031 0.54189 0.44933 0.0
N413 N 0.51268 0.79614 0.40942 0.0
C414 C 0.53702 0.85291 0.45257 0.0
C415 C 0.46963 0.9419 0.3813 0.0
C416 C 0.41598 0.92357 0.31104 0.0
C417 C 0.40353 0.85738 0.28267 0.0
C418 C 0.44593 0.80075 0.31665 0.0
H419 H 0.57885 0.85107 0.49656 0.0
O420 O 0.5917 0.63731 0.50979 0.0
O421 O 0.60413 0.66674 0.39723 0.0
O422 O 0.74545 0.69652 0.4808 0.0
O423 O 0.67016 0.77057 0.46392 0.0
C424 C 0.35633 0.84539 0.22109 0.0
C425 C 0.3576 0.79081 0.1836 0.0
H426 H 0.39195 0.66228 0.12431 0.0
H427 H 0.52827 0.60506 0.13906 0.0
H428 H 0.47234 0.9885 0.39088 0.0
H429 H 0.38713 0.9578 0.282 0.0
H430 H 0.31812 0.87862 0.2015 0.0
H431 H 0.31594 0.78433 0.14361 0.0
Mn432 Mn 0.20232 0.39268 0.94389 0.0
Mn433 Mn 0.12785 0.25898 0.91094 0.0
C434 C 0.07105 0.37371 0.93355 0.0
C435 C 0.22808 0.47776 1.01069 0.0
C436 C 0.2487 0.32105 0.80965 0.0
O437 O 0.27786 0.33567 0.99607 0.0
O438 O 0.21163 0.2504 0.98419 0.0
C439 C 0.12701 0.1197 0.98219 0.0
N440 N 0.12034 0.15606 0.90612 0.0
C441 C 0.95124 0.09937 0.86757 0.0
C442 C 0.96688 0.06523 0.95093 0.0
C443 C 0.0499 0.07446 1.00539 0.0
C444 C 1.01536 0.14551 0.83696 0.0
H445 H 0.17162 0.12887 1.02107 0.0
C446 C 0.26621 0.2816 1.01176 0.0
O447 O 0.26315 0.466 0.9509 0.0
O448 O 0.18425 0.4374 0.03671 0.0
N449 N 1.02104 0.28127 0.83256 0.0
C450 C 0.05143 0.32152 0.76801 0.0
C451 C 1.00847 0.26661 0.64282 0.0
C452 C 0.96058 0.2051 0.65577 0.0
C453 C 0.94031 0.17711 0.73611 0.0
C454 C 0.96951 0.20273 0.81282 0.0
H455 H 0.0876 0.35889 0.779 0.0
O456 O 0.0963 0.42425 0.91484 0.0
O457 O 0.1231 0.33697 0.94403 0.0
O458 O 0.23805 0.36958 0.84053 0.0
O459 O 0.21522 0.2752 0.83376 0.0
C460 C 0.89647 0.1247 0.74556 0.0
C461 C 0.89348 0.09233 0.81396 0.0
H462 H 0.92413 0.03504 0.96946 0.0
H463 H 0.05485 0.05028 0.05471 0.0
H464 H 1.01787 0.27797 0.58562 0.0
H465 H 0.94072 0.18243 0.60793 0.0
H466 H 0.86353 0.10889 0.69991 0.0
H467 H 0.85208 0.05812 0.82046 0.0
Mn468 Mn 0.347 0.62213 0.44389 0.0
Mn469 Mn 0.42148 0.75583 0.41094 0.0
C470 C 0.47828 0.6411 0.43355 0.0
C471 C 0.32125 0.53706 0.51069 0.0
C472 C 0.30063 0.69377 0.30965 0.0
O473 O 0.27146 0.67915 0.49607 0.0
O474 O 0.3377 0.76442 0.48419 0.0
C475 C 0.42232 0.89512 0.48219 0.0
N476 N 0.42898 0.85876 0.40612 0.0
C477 C 0.59809 0.91545 0.36757 0.0
C478 C 0.58244 0.94959 0.45093 0.0
C479 C 0.49943 0.94036 0.50539 0.0
C480 C 0.53397 0.86931 0.33696 0.0
H481 H 0.37771 0.88595 0.52107 0.0
C482 C 0.28312 0.73321 0.51176 0.0
O483 O 0.28618 0.54882 0.4509 0.0
O484 O 0.36508 0.57742 0.53671 0.0
N485 N 0.52829 0.73355 0.33256 0.0
C486 C 0.49789 0.6933 0.26801 0.0
C487 C 0.54086 0.74821 0.14282 0.0
C488 C 0.58875 0.80972 0.15577 0.0
C489 C 0.60901 0.83771 0.23611 0.0
C490 C 0.57981 0.81208 0.31282 0.0
H491 H 0.46172 0.65593 0.279 0.0
O492 O 0.45303 0.59057 0.41484 0.0
O493 O 0.42623 0.67785 0.44403 0.0
O494 O 0.31128 0.64524 0.34053 0.0
O495 O 0.33411 0.73962 0.33376 0.0
C496 C 0.65285 0.89012 0.24556 0.0
C497 C 0.65584 0.92248 0.31396 0.0
H498 H 0.62519 0.97978 0.46946 0.0
H499 H 0.49448 0.96454 0.55471 0.0
H500 H 0.53146 0.73685 0.08562 0.0
H501 H 0.60861 0.83239 0.10793 0.0
H502 H 0.6858 0.90592 0.19991 0.0
H503 H 0.69724 0.9567 0.32046 0.0
Mn504 Mn 0.20233 0.62213 0.10772 0.0
Mn505 Mn 0.12785 0.75583 0.14067 0.0
C506 C 0.07105 0.6411 0.11806 0.0
C507 C 0.22806 0.53705 0.04095 0.0
C508 C 0.2487 0.69377 0.24196 0.0
O509 O 0.27786 0.67914 0.05554 0.0
O510 O 0.21163 0.76442 0.06742 0.0
C511 C 0.12701 0.89511 0.06942 0.0
N512 N 0.12034 0.85875 0.14549 0.0
C513 C 0.95124 0.91544 0.18404 0.0
C514 C 0.96688 0.94958 0.10067 0.0
C515 C 0.0499 0.94036 0.04621 0.0
C516 C 1.01535 0.8693 0.21464 0.0
H517 H 0.17162 0.88594 0.03054 0.0
C518 C 0.26621 0.73321 0.03985 0.0
O519 O 0.26315 0.54881 0.10073 0.0
O520 O 0.18425 0.5774 1.01491 0.0
N521 N 1.02104 0.73354 0.21905 0.0
C522 C 0.05143 0.6933 0.2836 0.0
C523 C 1.00846 0.7482 0.40879 0.0
C524 C 0.96057 0.80972 0.39584 0.0
C525 C 0.94031 0.83771 0.3155 0.0
C526 C 0.96951 0.81208 0.23879 0.0
H527 H 0.0876 0.65593 0.27261 0.0
O528 O 0.0963 0.59057 0.13678 0.0
O529 O 0.1231 0.67785 0.10758 0.0
O530 O 0.23805 0.64524 0.21108 0.0
O531 O 0.21522 0.73962 0.21785 0.0
C532 C 0.89647 0.89011 0.30605 0.0
C533 C 0.89348 0.92248 0.23765 0.0
H534 H 0.92413 0.97978 0.08215 0.0
H535 H 0.05485 0.96454 0.9969 0.0
H536 H 1.01787 0.73684 0.46598 0.0
H537 H 0.94071 0.83239 0.44367 0.0
H538 H 0.86352 0.90592 0.3517 0.0
H539 H 0.85208 0.95669 0.23115 0.0
Mn540 Mn 0.347 0.39269 0.60772 0.0
Mn541 Mn 0.42148 0.25899 0.64067 0.0
C542 C 0.47828 0.37372 0.61806 0.0
C543 C 0.32126 0.47777 0.54095 0.0
C544 C 0.30063 0.32105 0.74196 0.0
O545 O 0.27146 0.33568 0.55554 0.0
O546 O 0.33769 0.2504 0.56742 0.0
C547 C 0.42232 0.1197 0.56942 0.0
N548 N 0.42899 0.15607 0.64549 0.0
C549 C 0.59809 0.09938 0.68404 0.0
C550 C 0.58244 0.06523 0.60067 0.0
C551 C 0.49943 0.07446 0.54621 0.0
C552 C 0.53397 0.14552 0.71464 0.0
H553 H 0.37771 0.12888 0.53054 0.0
C554 C 0.28312 0.28161 0.53985 0.0
O555 O 0.28617 0.466 0.60073 0.0
O556 O 0.36508 0.43742 0.51491 0.0
N557 N 0.52829 0.28128 0.71905 0.0
C558 C 0.49789 0.32152 0.7836 0.0
C559 C 0.54086 0.26662 0.90879 0.0
C560 C 0.58875 0.2051 0.89584 0.0
C561 C 0.60902 0.17711 0.8155 0.0
C562 C 0.57981 0.20274 0.73879 0.0
H563 H 0.46172 0.35889 0.77261 0.0
O564 O 0.45303 0.42425 0.63678 0.0
O565 O 0.42623 0.33697 0.60758 0.0
O566 O 0.31127 0.36958 0.71108 0.0
O567 O 0.33411 0.2752 0.71785 0.0
C568 C 0.65285 0.1247 0.80605 0.0
C569 C 0.65585 0.09234 0.73765 0.0
H570 H 0.62519 0.03504 0.58215 0.0
H571 H 0.49448 0.05028 0.4969 0.0
H572 H 0.53146 0.27798 0.96598 0.0
H573 H 0.60861 0.18243 0.94367 0.0
H574 H 0.6858 0.1089 0.8517 0.0
H575 H 0.69725 0.05813 0.73115 0.0
loop_
_geom_bond_atom_site_label_1
_geom_bond_atom_site_label_2
_geom_bond_distance
_geom_bond_site_symmetry_2
_ccdc_geom_bond_type
Mn0 O5 2.095 . S
Mn0 O15 2.162 . S
Mn0 O16 2.297 . S
Mn0 O24 2.385 . S
Mn0 O25 2.209 . S
Mn0 O26 2.094 . S
Mn1 O6 2.121 . S
Mn1 N8 2.257 . S
Mn1 N17 2.282 . S
Mn1 O25 2.215 . S
Mn1 O27 2.117 . S
C2 O24 1.234 . S
C2 O25 1.283 . S
C3 O15 1.281 . S
C3 O16 1.236 . S
C4 O26 1.240 . S
C4 O27 1.264 . S
O5 Mn0 2.095 . S
O5 C14 1.250 . S
O6 Mn1 2.121 . S
O6 C14 1.258 . S
C7 N8 1.326 . S
C7 C11 1.460 . S
C7 H13 0.929 . S
N8 Mn1 2.257 . S
N8 C7 1.326 . S
N8 C12 1.362 . S
C9 C10 1.258 . S
C9 C12 1.431 . S
C9 C29 1.449 . S
C10 C9 1.258 . S
C10 C11 1.477 . S
C10 H30 0.931 . S
C11 C7 1.460 . S
C11 C10 1.477 . S
C11 H31 0.930 . S
C12 N8 1.362 . S
C12 C9 1.431 . S
C12 C22 1.476 . S
H13 C7 0.929 . S
C14 O5 1.250 . S
C14 O6 1.258 . S
O15 Mn0 2.162 . S
O15 C3 1.281 . S
O16 Mn0 2.297 . S
O16 C3 1.236 . S
N17 Mn1 2.282 . S
N17 C18 1.328 . S
N17 C22 1.318 . S
C18 N17 1.328 . S
C18 C19 1.457 . S
C18 H23 0.929 . S
C19 C18 1.457 . S
C19 C20 1.291 . S
C19 H32 0.931 . S
C20 C19 1.291 . S
C20 C21 1.373 . S
C20 H33 0.929 . S
C21 C20 1.373 . S
C21 C22 1.396 . S
C21 C28 1.403 . S
C22 C12 1.476 . S
C22 N17 1.318 . S
C22 C21 1.396 . S
H23 C18 0.929 . S
O24 Mn0 2.385 . S
O24 C2 1.234 . S
O25 Mn0 2.209 . S
O25 Mn1 2.215 . S
O25 C2 1.283 . S
O26 Mn0 2.094 . S
O26 C4 1.240 . S
O27 Mn1 2.117 . S
O27 C4 1.264 . S
C28 C21 1.403 . S
C28 C29 1.399 . S
C28 H34 0.929 . S
C29 C9 1.449 . S
C29 C28 1.399 . S
C29 H35 0.930 . S
H30 C10 0.931 . S
H31 C11 0.930 . S
H32 C19 0.931 . S
H33 C20 0.929 . S
H34 C28 0.929 . S
H35 C29 0.930 . S
Mn36 O41 2.095 . S
Mn36 O51 2.162 . S
Mn36 O52 2.297 . S
Mn36 O60 2.385 . S
Mn36 O61 2.209 . S
Mn36 O62 2.094 . S
Mn37 O42 2.121 . S
Mn37 N44 2.257 . S
Mn37 N53 2.282 . S
Mn37 O61 2.215 . S
Mn37 O63 2.117 . S
C38 O60 1.234 . S
C38 O61 1.283 . S
C39 O51 1.281 . S
C39 O52 1.236 . S
C40 O62 1.240 . S
C40 O63 1.264 . S
O41 Mn36 2.095 . S
O41 C50 1.250 . S
O42 Mn37 2.121 . S
O42 C50 1.258 . S
C43 N44 1.326 . S
C43 C47 1.460 1_455 S
C43 H49 0.929 . S
N44 Mn37 2.257 . S
N44 C43 1.326 . S
N44 C48 1.362 1_455 S
C45 C46 1.258 . S
C45 C48 1.431 . S
C45 C65 1.449 . S
C46 C45 1.258 . S
C46 C47 1.477 . S
C46 H66 0.931 . S
C47 C43 1.460 1_655 S
C47 C46 1.477 . S
C47 H67 0.930 . S
C48 N44 1.362 1_655 S
C48 C45 1.431 . S
C48 C58 1.476 . S
H49 C43 0.929 . S
C50 O41 1.250 . S
C50 O42 1.258 . S
O51 Mn36 2.162 . S
O51 C39 1.281 . S
O52 Mn36 2.297 . S
O52 C39 1.236 . S
N53 Mn37 2.282 . S
N53 C54 1.328 . S
N53 C58 1.318 1_455 S
C54 N53 1.328 . S
C54 C55 1.457 1_455 S
C54 H59 0.929 . S
C55 C54 1.457 1_655 S
C55 C56 1.291 . S
C55 H68 0.931 . S
C56 C55 1.291 . S
C56 C57 1.373 . S
C56 H69 0.929 . S
C57 C56 1.373 . S
C57 C58 1.396 . S
C57 C64 1.403 . S
C58 C48 1.476 . S
C58 N53 1.318 1_655 S
C58 C57 1.396 . S
H59 C54 0.929 . S
O60 Mn36 2.385 . S
O60 C38 1.234 . S
O61 Mn36 2.209 . S
O61 Mn37 2.215 . S
O61 C38 1.283 . S
O62 Mn36 2.094 . S
O62 C40 1.240 . S
O63 Mn37 2.117 . S
O63 C40 1.264 . S
C64 C57 1.403 . S
C64 C65 1.399 . S
C64 H70 0.929 . S
C65 C45 1.449 . S
C65 C64 1.399 . S
C65 H71 0.930 . S
H66 C46 0.931 . S
H67 C47 0.930 . S
H68 C55 0.931 . S
H69 C56 0.929 . S
H70 C64 0.929 . S
H71 C65 0.930 . S
Mn72 O77 2.095 . S
Mn72 O87 2.162 . S
Mn72 O88 2.297 . S
Mn72 O96 2.385 . S
Mn72 O97 2.209 . S
Mn72 O98 2.094 . S
Mn73 O78 2.121 . S
Mn73 N80 2.257 . S
Mn73 N89 2.282 . S
Mn73 O97 2.215 . S
Mn73 O99 2.117 . S
C74 O96 1.234 . S
C74 O97 1.283 . S
C75 O87 1.281 . S
C75 O88 1.236 . S
C76 O98 1.240 . S
C76 O99 1.264 . S
O77 Mn72 2.095 . S
O77 C86 1.250 . S
O78 Mn73 2.121 . S
O78 C86 1.258 . S
C79 N80 1.326 . S
C79 C83 1.460 . S
C79 H85 0.929 . S
N80 Mn73 2.257 . S
N80 C79 1.326 . S
N80 C84 1.362 . S
C81 C82 1.258 . S
C81 C84 1.431 . S
C81 C101 1.449 . S
C82 C81 1.258 . S
C82 C83 1.477 . S
C82 H102 0.931 . S
C83 C79 1.460 . S
C83 C82 1.477 . S
C83 H103 0.930 . S
C84 N80 1.362 . S
C84 C81 1.431 . S
C84 C94 1.476 . S
H85 C79 0.929 . S
C86 O77 1.250 . S
C86 O78 1.258 . S
O87 Mn72 2.162 . S
O87 C75 1.281 . S
O88 Mn72 2.297 . S
O88 C75 1.236 . S
N89 Mn73 2.282 . S
N89 C90 1.328 . S
N89 C94 1.318 . S
C90 N89 1.328 . S
C90 C91 1.457 . S
C90 H95 0.929 . S
C91 C90 1.457 . S
C91 C92 1.291 . S
C91 H104 0.931 . S
C92 C91 1.291 . S
C92 C93 1.373 . S
C92 H105 0.929 . S
C93 C92 1.373 . S
C93 C94 1.396 . S
C93 C100 1.403 . S
C94 C84 1.476 . S
C94 N89 1.318 . S
C94 C93 1.396 . S
H95 C90 0.929 . S
O96 Mn72 2.385 . S
O96 C74 1.234 . S
O97 Mn72 2.209 . S
O97 Mn73 2.215 . S
O97 C74 1.283 . S
O98 Mn72 2.094 . S
O98 C76 1.240 . S
O99 Mn73 2.117 . S
O99 C76 1.264 . S
C100 C93 1.403 . S
C100 C101 1.399 . S
C100 H106 0.929 . S
C101 C81 1.449 . S
C101 C100 1.399 . S
C101 H107 0.930 . S
H102 C82 0.931 . S
H103 C83 0.930 . S
H104 C91 0.931 . S
H105 C92 0.929 . S
H106 C100 0.929 . S
H107 C101 0.930 . S
Mn108 O113 2.095 . S
Mn108 O123 2.162 . S
Mn108 O124 2.297 . S
Mn108 O132 2.385 . S
Mn108 O133 2.209 . S
Mn108 O134 2.094 . S
Mn109 O114 2.121 . S
Mn109 N116 2.257 . S
Mn109 N125 2.282 . S
Mn109 O133 2.215 . S
Mn109 O135 2.117 . S
C110 O132 1.234 . S
C110 O133 1.283 . S
C111 O123 1.281 . S
C111 O124 1.236 . S
C112 O134 1.240 . S
C112 O135 1.264 . S
O113 Mn108 2.095 . S
O113 C122 1.250 . S
O114 Mn109 2.121 . S
O114 C122 1.258 . S
C115 N116 1.326 . S
C115 C119 1.460 1_455 S
C115 H121 0.929 . S
N116 Mn109 2.257 . S
N116 C115 1.326 . S
N116 C120 1.362 1_455 S
C117 C118 1.258 . S
C117 C120 1.431 . S
C117 C137 1.449 . S
C118 C117 1.258 . S
C118 C119 1.477 . S
C118 H138 0.931 . S
C119 C115 1.460 1_655 S
C119 C118 1.477 . S
C119 H139 0.930 . S
C120 N116 1.362 1_655 S
C120 C117 1.431 . S
C120 C130 1.476 . S
H121 C115 0.929 . S
C122 O113 1.250 . S
C122 O114 1.258 . S
O123 Mn108 2.162 . S
O123 C111 1.281 . S
O124 Mn108 2.297 . S
O124 C111 1.236 . S
N125 Mn109 2.282 . S
N125 C126 1.328 . S
N125 C130 1.318 1_455 S
C126 N125 1.328 . S
C126 C127 1.457 1_455 S
C126 H131 0.929 . S
C127 C126 1.457 1_655 S
C127 C128 1.291 . S
C127 H140 0.931 . S
C128 C127 1.291 . S
C128 C129 1.373 . S
C128 H141 0.929 . S
C129 C128 1.373 . S
C129 C130 1.396 . S
C129 C136 1.403 . S
C130 C120 1.476 . S
C130 N125 1.318 1_655 S
C130 C129 1.396 . S
H131 C126 0.929 . S
O132 Mn108 2.385 . S
O132 C110 1.234 . S
O133 Mn108 2.209 . S
O133 Mn109 2.215 . S
O133 C110 1.283 . S
O134 Mn108 2.094 . S
O134 C112 1.240 . S
O135 Mn109 2.117 . S
O135 C112 1.264 . S
C136 C129 1.403 . S
C136 C137 1.399 . S
C136 H142 0.929 . S
C137 C117 1.449 . S
C137 C136 1.399 . S
C137 H143 0.930 . S
H138 C118 0.931 . S
H139 C119 0.930 . S
H140 C127 0.931 . S
H141 C128 0.929 . S
H142 C136 0.929 . S
H143 C137 0.930 . S
Mn144 O149 2.095 . S
Mn144 O159 2.162 . S
Mn144 O160 2.297 1_556 S
Mn144 O168 2.385 . S
Mn144 O169 2.209 . S
Mn144 O170 2.094 . S
Mn145 O150 2.121 . S
Mn145 N152 2.257 . S
Mn145 N161 2.282 . S
Mn145 O169 2.215 . S
Mn145 O171 2.117 . S
C146 O168 1.234 . S
C146 O169 1.283 . S
C147 O159 1.281 1_554 S
C147 O160 1.236 . S
C148 O170 1.240 . S
C148 O171 1.264 . S
O149 Mn144 2.095 . S
O149 C158 1.250 . S
O150 Mn145 2.121 . S
O150 C158 1.258 . S
C151 N152 1.326 . S
C151 C155 1.460 . S
C151 H157 0.928 1_556 S
N152 Mn145 2.257 . S
N152 C151 1.326 . S
N152 C156 1.362 . S
C153 C154 1.258 . S
C153 C156 1.431 . S
C153 C173 1.449 . S
C154 C153 1.258 . S
C154 C155 1.477 . S
C154 H174 0.931 . S
C155 C151 1.460 . S
C155 C154 1.477 . S
C155 H175 0.930 1_556 S
C156 N152 1.362 . S
C156 C153 1.431 . S
C156 C166 1.476 . S
H157 C151 0.928 1_554 S
C158 O149 1.250 . S
C158 O150 1.258 . S
O159 Mn144 2.162 . S
O159 C147 1.281 1_556 S
O160 Mn144 2.297 1_554 S
O160 C147 1.236 . S
N161 Mn145 2.282 . S
N161 C162 1.328 . S
N161 C166 1.318 . S
C162 N161 1.328 . S
C162 C163 1.457 . S
C162 H167 0.929 . S
C163 C162 1.457 . S
C163 C164 1.291 . S
C163 H176 0.931 . S
C164 C163 1.291 . S
C164 C165 1.373 . S
C164 H177 0.929 . S
C165 C164 1.373 . S
C165 C166 1.396 . S
C165 C172 1.403 . S
C166 C156 1.476 . S
C166 N161 1.318 . S
C166 C165 1.396 . S
H167 C162 0.929 . S
O168 Mn144 2.385 . S
O168 C146 1.234 . S
O169 Mn144 2.209 . S
O169 Mn145 2.215 . S
O169 C146 1.283 . S
O170 Mn144 2.094 . S
O170 C148 1.240 . S
O171 Mn145 2.117 . S
O171 C148 1.264 . S
C172 C165 1.403 . S
C172 C173 1.399 . S
C172 H178 0.929 . S
C173 C153 1.449 . S
C173 C172 1.399 . S
C173 H179 0.930 . S
H174 C154 0.931 . S
H175 C155 0.930 1_554 S
H176 C163 0.931 . S
H177 C164 0.929 . S
H178 C172 0.929 . S
H179 C173 0.930 . S
Mn180 O185 2.095 . S
Mn180 O195 2.162 . S
Mn180 O196 2.297 . S
Mn180 O204 2.385 . S
Mn180 O205 2.209 . S
Mn180 O206 2.094 . S
Mn181 O186 2.121 . S
Mn181 N188 2.257 . S
Mn181 N197 2.282 . S
Mn181 O205 2.215 . S
Mn181 O207 2.117 . S
C182 O204 1.234 . S
C182 O205 1.283 . S
C183 O195 1.281 . S
C183 O196 1.236 . S
C184 O206 1.240 . S
C184 O207 1.264 . S
O185 Mn180 2.095 . S
O185 C194 1.250 . S
O186 Mn181 2.121 . S
O186 C194 1.258 . S
C187 N188 1.326 . S
C187 C191 1.460 1_655 S
C187 H193 0.929 . S
N188 Mn181 2.257 . S
N188 C187 1.326 . S
N188 C192 1.362 1_655 S
C189 C190 1.258 . S
C189 C192 1.431 . S
C189 C209 1.449 . S
C190 C189 1.258 . S
C190 C191 1.477 . S
C190 H210 0.931 . S
C191 C187 1.460 1_455 S
C191 C190 1.477 . S
C191 H211 0.930 . S
C192 N188 1.362 1_455 S
C192 C189 1.431 . S
C192 C202 1.476 . S
H193 C187 0.929 . S
C194 O185 1.250 . S
C194 O186 1.258 . S
O195 Mn180 2.162 . S
O195 C183 1.281 . S
O196 Mn180 2.297 . S
O196 C183 1.236 . S
N197 Mn181 2.282 . S
N197 C198 1.328 . S
N197 C202 1.318 1_655 S
C198 N197 1.328 . S
C198 C199 1.457 1_655 S
C198 H203 0.929 . S
C199 C198 1.457 1_455 S
C199 C200 1.291 . S
C199 H212 0.931 . S
C200 C199 1.291 . S
C200 C201 1.373 . S
C200 H213 0.929 . S
C201 C200 1.373 . S
C201 C202 1.396 . S
C201 C208 1.403 . S
C202 C192 1.476 . S
C202 N197 1.318 1_455 S
C202 C201 1.396 . S
H203 C198 0.929 . S
O204 Mn180 2.385 . S
O204 C182 1.234 . S
O205 Mn180 2.209 . S
O205 Mn181 2.215 . S
O205 C182 1.283 . S
O206 Mn180 2.094 . S
O206 C184 1.240 . S
O207 Mn181 2.117 . S
O207 C184 1.264 . S
C208 C201 1.403 . S
C208 C209 1.399 . S
C208 H214 0.929 . S
C209 C189 1.449 . S
C209 C208 1.399 . S
C209 H215 0.930 . S
H210 C190 0.931 . S
H211 C191 0.930 . S
H212 C199 0.931 . S
H213 C200 0.929 . S
H214 C208 0.929 . S
H215 C209 0.930 . S
Mn216 O221 2.095 . S
Mn216 O231 2.162 . S
Mn216 O232 2.297 1_554 S
Mn216 O240 2.385 . S
Mn216 O241 2.209 . S
Mn216 O242 2.094 . S
Mn217 O222 2.121 . S
Mn217 N224 2.257 . S
Mn217 N233 2.282 . S
Mn217 O241 2.215 . S
Mn217 O243 2.117 . S
C218 O240 1.234 . S
C218 O241 1.283 . S
C219 O231 1.281 1_556 S
C219 O232 1.236 . S
C220 O242 1.240 . S
C220 O243 1.264 . S
O221 Mn216 2.095 . S
O221 C230 1.250 . S
O222 Mn217 2.121 . S
O222 C230 1.258 . S
C223 N224 1.326 . S
C223 C227 1.460 . S
C223 H229 0.928 1_554 S
N224 Mn217 2.257 . S
N224 C223 1.326 . S
N224 C228 1.362 . S
C225 C226 1.258 . S
C225 C228 1.431 . S
C225 C245 1.449 . S
C226 C225 1.258 . S
C226 C227 1.477 . S
C226 H246 0.931 . S
C227 C223 1.460 . S
C227 C226 1.477 . S
C227 H247 0.930 1_554 S
C228 N224 1.362 . S
C228 C225 1.431 . S
C228 C238 1.476 . S
H229 C223 0.928 1_556 S
C230 O221 1.250 . S
C230 O222 1.258 . S
O231 Mn216 2.162 . S
O231 C219 1.281 1_554 S
O232 Mn216 2.297 1_556 S
O232 C219 1.236 . S
N233 Mn217 2.282 . S
N233 C234 1.328 . S
N233 C238 1.318 . S
C234 N233 1.328 . S
C234 C235 1.457 . S
C234 H239 0.929 . S
C235 C234 1.457 . S
C235 C236 1.291 . S
C235 H248 0.931 . S
C236 C235 1.291 . S
C236 C237 1.373 . S
C236 H249 0.929 . S
C237 C236 1.373 . S
C237 C238 1.396 . S
C237 C244 1.403 . S
C238 C228 1.476 . S
C238 N233 1.318 . S
C238 C237 1.396 . S
H239 C234 0.929 . S
O240 Mn216 2.385 . S
O240 C218 1.234 . S
O241 Mn216 2.209 . S
O241 Mn217 2.215 . S
O241 C218 1.283 . S
O242 Mn216 2.094 . S
O242 C220 1.240 . S
O243 Mn217 2.117 . S
O243 C220 1.264 . S
C244 C237 1.403 . S
C244 C245 1.399 . S
C244 H250 0.929 . S
C245 C225 1.449 . S
C245 C244 1.399 . S
C245 H251 0.930 . S
H246 C226 0.931 . S
H247 C227 0.930 1_556 S
H248 C235 0.931 . S
H249 C236 0.929 . S
H250 C244 0.929 . S
H251 C245 0.930 . S
Mn252 O257 2.095 . S
Mn252 O267 2.162 . S
Mn252 O268 2.297 . S
Mn252 O276 2.385 . S
Mn252 O277 2.209 . S
Mn252 O278 2.094 . S
Mn253 O258 2.121 . S
Mn253 N260 2.257 . S
Mn253 N269 2.282 . S
Mn253 O277 2.215 . S
Mn253 O279 2.117 . S
C254 O276 1.234 . S
C254 O277 1.283 . S
C255 O267 1.281 . S
C255 O268 1.236 . S
C256 O278 1.240 . S
C256 O279 1.264 . S
O257 Mn252 2.095 . S
O257 C266 1.250 . S
O258 Mn253 2.121 . S
O258 C266 1.258 . S
C259 N260 1.326 . S
C259 C263 1.460 1_655 S
C259 H265 0.929 . S
N260 Mn253 2.257 . S
N260 C259 1.326 . S
N260 C264 1.362 1_655 S
C261 C262 1.258 . S
C261 C264 1.431 . S
C261 C281 1.449 . S
C262 C261 1.258 . S
C262 C263 1.477 . S
C262 H282 0.931 . S
C263 C259 1.460 1_455 S
C263 C262 1.477 . S
C263 H283 0.930 . S
C264 N260 1.362 1_455 S
C264 C261 1.431 . S
C264 C274 1.476 . S
H265 C259 0.929 . S
C266 O257 1.250 . S
C266 O258 1.258 . S
O267 Mn252 2.162 . S
O267 C255 1.281 . S
O268 Mn252 2.297 . S
O268 C255 1.236 . S
N269 Mn253 2.282 . S
N269 C270 1.328 . S
N269 C274 1.318 1_655 S
C270 N269 1.328 . S
C270 C271 1.457 1_655 S
C270 H275 0.929 . S
C271 C270 1.457 1_455 S
C271 C272 1.291 . S
C271 H284 0.931 . S
C272 C271 1.291 . S
C272 C273 1.373 . S
C272 H285 0.929 . S
C273 C272 1.373 . S
C273 C274 1.396 . S
C273 C280 1.403 . S
C274 C264 1.476 . S
C274 N269 1.318 1_455 S
C274 C273 1.396 . S
H275 C270 0.929 . S
O276 Mn252 2.385 . S
O276 C254 1.234 . S
O277 Mn252 2.209 . S
O277 Mn253 2.215 . S
O277 C254 1.283 . S
O278 Mn252 2.094 . S
O278 C256 1.240 . S
O279 Mn253 2.117 . S
O279 C256 1.264 . S
C280 C273 1.403 . S
C280 C281 1.399 . S
C280 H286 0.929 . S
C281 C261 1.449 . S
C281 C280 1.399 . S
C281 H287 0.930 . S
H282 C262 0.931 . S
H283 C263 0.930 . S
H284 C271 0.931 . S
H285 C272 0.929 . S
H286 C280 0.929 . S
H287 C281 0.930 . S
Mn288 O293 2.095 . S
Mn288 O303 2.162 . S
Mn288 O304 2.297 . S
Mn288 O312 2.385 . S
Mn288 O313 2.209 . S
Mn288 O314 2.094 . S
Mn289 O294 2.121 . S
Mn289 N296 2.257 . S
Mn289 N305 2.282 . S
Mn289 O313 2.215 . S
Mn289 O315 2.117 . S
C290 O312 1.234 . S
C290 O313 1.283 . S
C291 O303 1.281 . S
C291 O304 1.236 . S
C292 O314 1.240 . S
C292 O315 1.264 . S
O293 Mn288 2.095 . S
O293 C302 1.250 . S
O294 Mn289 2.121 . S
O294 C302 1.258 . S
C295 N296 1.326 . S
C295 C299 1.460 1_655 S
C295 H301 0.929 . S
N296 Mn289 2.257 . S
N296 C295 1.326 . S
N296 C300 1.362 1_655 S
C297 C298 1.258 . S
C297 C300 1.431 . S
C297 C317 1.449 . S
C298 C297 1.258 . S
C298 C299 1.477 . S
C298 H318 0.931 . S
C299 C295 1.460 1_455 S
C299 C298 1.477 . S
C299 H319 0.930 . S
C300 N296 1.362 1_455 S
C300 C297 1.431 . S
C300 C310 1.476 . S
H301 C295 0.929 . S
C302 O293 1.250 . S
C302 O294 1.258 . S
O303 Mn288 2.162 . S
O303 C291 1.281 . S
O304 Mn288 2.297 . S
O304 C291 1.236 . S
N305 Mn289 2.282 . S
N305 C306 1.328 . S
N305 C310 1.318 1_655 S
C306 N305 1.328 . S
C306 C307 1.457 1_655 S
C306 H311 0.929 . S
C307 C306 1.457 1_455 S
C307 C308 1.291 . S
C307 H320 0.931 . S
C308 C307 1.291 . S
C308 C309 1.373 . S
C308 H321 0.929 . S
C309 C308 1.373 . S
C309 C310 1.396 . S
C309 C316 1.403 . S
C310 C300 1.476 . S
C310 N305 1.318 1_455 S
C310 C309 1.396 . S
H311 C306 0.929 . S
O312 Mn288 2.385 . S
O312 C290 1.234 . S
O313 Mn288 2.209 . S
O313 Mn289 2.215 . S
O313 C290 1.283 . S
O314 Mn288 2.094 . S
O314 C292 1.240 . S
O315 Mn289 2.117 . S
O315 C292 1.264 . S
C316 C309 1.403 . S
C316 C317 1.399 . S
C316 H322 0.929 . S
C317 C297 1.449 . S
C317 C316 1.399 . S
C317 H323 0.930 . S
H318 C298 0.931 . S
H319 C299 0.930 . S
H320 C307 0.931 . S
H321 C308 0.929 . S
H322 C316 0.929 . S
H323 C317 0.930 . S
Mn324 O329 2.095 . S
Mn324 O339 2.162 . S
Mn324 O340 2.297 . S
Mn324 O348 2.385 . S
Mn324 O349 2.209 . S
Mn324 O350 2.094 . S
Mn325 O330 2.121 . S
Mn325 N332 2.257 . S
Mn325 N341 2.282 . S
Mn325 O349 2.215 . S
Mn325 O351 2.117 . S
C326 O348 1.234 . S
C326 O349 1.283 . S
C327 O339 1.281 . S
C327 O340 1.236 . S
C328 O350 1.240 . S
C328 O351 1.264 . S
O329 Mn324 2.095 . S
O329 C338 1.250 . S
O330 Mn325 2.121 . S
O330 C338 1.258 . S
C331 N332 1.326 . S
C331 C335 1.460 . S
C331 H337 0.929 . S
N332 Mn325 2.257 . S
N332 C331 1.326 . S
N332 C336 1.362 . S
C333 C334 1.258 . S
C333 C336 1.431 . S
C333 C353 1.449 . S
C334 C333 1.258 . S
C334 C335 1.477 . S
C334 H354 0.931 . S
C335 C331 1.460 . S
C335 C334 1.477 . S
C335 H355 0.930 . S
C336 N332 1.362 . S
C336 C333 1.431 . S
C336 C346 1.476 . S
H337 C331 0.929 . S
C338 O329 1.250 . S
C338 O330 1.258 . S
O339 Mn324 2.162 . S
O339 C327 1.281 . S
O340 Mn324 2.297 . S
O340 C327 1.236 . S
N341 Mn325 2.282 . S
N341 C342 1.328 . S
N341 C346 1.318 . S
C342 N341 1.328 . S
C342 C343 1.457 . S
C342 H347 0.929 . S
C343 C342 1.457 . S
C343 C344 1.291 . S
C343 H356 0.931 . S
C344 C343 1.291 . S
C344 C345 1.373 . S
C344 H357 0.929 . S
C345 C344 1.373 . S
C345 C346 1.396 . S
C345 C352 1.403 . S
C346 C336 1.476 . S
C346 N341 1.318 . S
C346 C345 1.396 . S
H347 C342 0.929 . S
O348 Mn324 2.385 . S
O348 C326 1.234 . S
O349 Mn324 2.209 . S
O349 Mn325 2.215 . S
O349 C326 1.283 . S
O350 Mn324 2.094 . S
O350 C328 1.240 . S
O351 Mn325 2.117 . S
O351 C328 1.264 . S
C352 C345 1.403 . S
C352 C353 1.399 . S
C352 H358 0.929 . S
C353 C333 1.449 . S
C353 C352 1.399 . S
C353 H359 0.930 . S
H354 C334 0.931 . S
H355 C335 0.930 . S
H356 C343 0.931 . S
H357 C344 0.929 . S
H358 C352 0.929 . S
H359 C353 0.930 . S
Mn360 O365 2.095 . S
Mn360 O375 2.162 . S
Mn360 O376 2.297 . S
Mn360 O384 2.385 . S
Mn360 O385 2.209 . S
Mn360 O386 2.094 . S
Mn361 O366 2.121 . S
Mn361 N368 2.257 . S
Mn361 N377 2.282 . S
Mn361 O385 2.215 . S
Mn361 O387 2.117 . S
C362 O384 1.234 . S
C362 O385 1.283 . S
C363 O375 1.281 . S
C363 O376 1.236 . S
C364 O386 1.240 . S
C364 O387 1.264 . S
O365 Mn360 2.095 . S
O365 C374 1.250 . S
O366 Mn361 2.121 . S
O366 C374 1.258 . S
C367 N368 1.326 . S
C367 C371 1.460 1_655 S
C367 H373 0.929 . S
N368 Mn361 2.257 . S
N368 C367 1.326 . S
N368 C372 1.362 1_655 S
C369 C370 1.258 . S
C369 C372 1.431 . S
C369 C389 1.449 . S
C370 C369 1.258 . S
C370 C371 1.477 . S
C370 H390 0.931 . S
C371 C367 1.460 1_455 S
C371 C370 1.477 . S
C371 H391 0.930 . S
C372 N368 1.362 1_455 S
C372 C369 1.431 . S
C372 C382 1.476 . S
H373 C367 0.929 . S
C374 O365 1.250 . S
C374 O366 1.258 . S
O375 Mn360 2.162 . S
O375 C363 1.281 . S
O376 Mn360 2.297 . S
O376 C363 1.236 . S
N377 Mn361 2.282 . S
N377 C378 1.328 . S
N377 C382 1.318 1_655 S
C378 N377 1.328 . S
C378 C379 1.457 1_655 S
C378 H383 0.929 . S
C379 C378 1.457 1_455 S
C379 C380 1.291 . S
C379 H392 0.931 . S
C380 C379 1.291 . S
C380 C381 1.373 . S
C380 H393 0.929 . S
C381 C380 1.373 . S
C381 C382 1.396 . S
C381 C388 1.403 . S
C382 C372 1.476 . S
C382 N377 1.318 1_455 S
C382 C381 1.396 . S
H383 C378 0.929 . S
O384 Mn360 2.385 . S
O384 C362 1.234 . S
O385 Mn360 2.209 . S
O385 Mn361 2.215 . S
O385 C362 1.283 . S
O386 Mn360 2.094 . S
O386 C364 1.240 . S
O387 Mn361 2.117 . S
O387 C364 1.264 . S
C388 C381 1.403 . S
C388 C389 1.399 . S
C388 H394 0.929 . S
C389 C369 1.449 . S
C389 C388 1.399 . S
C389 H395 0.930 . S
H390 C370 0.931 . S
H391 C371 0.930 . S
H392 C379 0.931 . S
H393 C380 0.929 . S
H394 C388 0.929 . S
H395 C389 0.930 . S
Mn396 O401 2.095 . S
Mn396 O411 2.162 . S
Mn396 O412 2.297 . S
Mn396 O420 2.385 . S
Mn396 O421 2.209 . S
Mn396 O422 2.094 . S
Mn397 O402 2.121 . S
Mn397 N404 2.257 . S
Mn397 N413 2.282 . S
Mn397 O421 2.215 . S
Mn397 O423 2.117 . S
C398 O420 1.234 . S
C398 O421 1.283 . S
C399 O411 1.281 . S
C399 O412 1.236 . S
C400 O422 1.240 . S
C400 O423 1.264 . S
O401 Mn396 2.095 . S
O401 C410 1.250 . S
O402 Mn397 2.121 . S
O402 C410 1.258 . S
C403 N404 1.326 . S
C403 C407 1.460 . S
C403 H409 0.929 . S
N404 Mn397 2.257 . S
N404 C403 1.326 . S
N404 C408 1.362 . S
C405 C406 1.258 . S
C405 C408 1.431 . S
C405 C425 1.449 . S
C406 C405 1.258 . S
C406 C407 1.477 . S
C406 H426 0.931 . S
C407 C403 1.460 . S
C407 C406 1.477 . S
C407 H427 0.930 . S
C408 N404 1.362 . S
C408 C405 1.431 . S
C408 C418 1.476 . S
H409 C403 0.929 . S
C410 O401 1.250 . S
C410 O402 1.258 . S
O411 Mn396 2.162 . S
O411 C399 1.281 . S
O412 Mn396 2.297 . S
O412 C399 1.236 . S
N413 Mn397 2.282 . S
N413 C414 1.328 . S
N413 C418 1.318 . S
C414 N413 1.328 . S
C414 C415 1.457 . S
C414 H419 0.929 . S
C415 C414 1.457 . S
C415 C416 1.291 . S
C415 H428 0.931 . S
C416 C415 1.291 . S
C416 C417 1.373 . S
C416 H429 0.929 . S
C417 C416 1.373 . S
C417 C418 1.396 . S
C417 C424 1.403 . S
C418 C408 1.476 . S
C418 N413 1.318 . S
C418 C417 1.396 . S
H419 C414 0.929 . S
O420 Mn396 2.385 . S
O420 C398 1.234 . S
O421 Mn396 2.209 . S
O421 Mn397 2.215 . S
O421 C398 1.283 . S
O422 Mn396 2.094 . S
O422 C400 1.240 . S
O423 Mn397 2.117 . S
O423 C400 1.264 . S
C424 C417 1.403 . S
C424 C425 1.399 . S
C424 H430 0.929 . S
C425 C405 1.449 . S
C425 C424 1.399 . S
C425 H431 0.930 . S
H426 C406 0.931 . S
H427 C407 0.930 . S
H428 C415 0.931 . S
H429 C416 0.929 . S
H430 C424 0.929 . S
H431 C425 0.930 . S
Mn432 O437 2.095 . S
Mn432 O447 2.162 . S
Mn432 O448 2.297 1_556 S
Mn432 O456 2.385 . S
Mn432 O457 2.209 . S
Mn432 O458 2.094 . S
Mn433 O438 2.121 . S
Mn433 N440 2.257 . S
Mn433 N449 2.282 . S
Mn433 O457 2.215 . S
Mn433 O459 2.117 . S
C434 O456 1.234 . S
C434 O457 1.283 . S
C435 O447 1.281 1_554 S
C435 O448 1.236 . S
C436 O458 1.240 . S
C436 O459 1.264 . S
O437 Mn432 2.095 . S
O437 C446 1.250 . S
O438 Mn433 2.121 . S
O438 C446 1.258 . S
C439 N440 1.326 . S
C439 C443 1.460 1_455 S
C439 H445 0.928 1_556 S
N440 Mn433 2.257 . S
N440 C439 1.326 . S
N440 C444 1.362 1_455 S
C441 C442 1.258 . S
C441 C444 1.431 . S
C441 C461 1.449 . S
C442 C441 1.258 . S
C442 C443 1.477 . S
C442 H462 0.931 . S
C443 C439 1.460 1_655 S
C443 C442 1.477 . S
C443 H463 0.930 1_556 S
C444 N440 1.362 1_655 S
C444 C441 1.431 . S
C444 C454 1.476 . S
H445 C439 0.928 1_554 S
C446 O437 1.250 . S
C446 O438 1.258 . S
O447 Mn432 2.162 . S
O447 C435 1.281 1_556 S
O448 Mn432 2.297 1_554 S
O448 C435 1.236 . S
N449 Mn433 2.282 . S
N449 C450 1.328 . S
N449 C454 1.318 1_455 S
C450 N449 1.328 . S
C450 C451 1.457 1_455 S
C450 H455 0.929 . S
C451 C450 1.457 1_655 S
C451 C452 1.291 . S
C451 H464 0.931 . S
C452 C451 1.291 . S
C452 C453 1.373 . S
C452 H465 0.929 . S
C453 C452 1.373 . S
C453 C454 1.396 . S
C453 C460 1.403 . S
C454 C444 1.476 . S
C454 N449 1.318 1_655 S
C454 C453 1.396 . S
H455 C450 0.929 . S
O456 Mn432 2.385 . S
O456 C434 1.234 . S
O457 Mn432 2.209 . S
O457 Mn433 2.215 . S
O457 C434 1.283 . S
O458 Mn432 2.094 . S
O458 C436 1.240 . S
O459 Mn433 2.117 . S
O459 C436 1.264 . S
C460 C453 1.403 . S
C460 C461 1.399 . S
C460 H466 0.929 . S
C461 C441 1.449 . S
C461 C460 1.399 . S
C461 H467 0.930 . S
H462 C442 0.931 . S
H463 C443 0.930 1_554 S
H464 C451 0.931 . S
H465 C452 0.929 . S
H466 C460 0.929 . S
H467 C461 0.930 . S
Mn468 O473 2.095 . S
Mn468 O483 2.162 . S
Mn468 O484 2.297 . S
Mn468 O492 2.385 . S
Mn468 O493 2.209 . S
Mn468 O494 2.094 . S
Mn469 O474 2.121 . S
Mn469 N476 2.257 . S
Mn469 N485 2.282 . S
Mn469 O493 2.215 . S
Mn469 O495 2.117 . S
C470 O492 1.234 . S
C470 O493 1.283 . S
C471 O483 1.281 . S
C471 O484 1.236 . S
C472 O494 1.240 . S
C472 O495 1.264 . S
O473 Mn468 2.095 . S
O473 C482 1.250 . S
O474 Mn469 2.121 . S
O474 C482 1.258 . S
C475 N476 1.326 . S
C475 C479 1.460 . S
C475 H481 0.929 . S
N476 Mn469 2.257 . S
N476 C475 1.326 . S
N476 C480 1.362 . S
C477 C478 1.258 . S
C477 C480 1.431 . S
C477 C497 1.449 . S
C478 C477 1.258 . S
C478 C479 1.477 . S
C478 H498 0.931 . S
C479 C475 1.460 . S
C479 C478 1.477 . S
C479 H499 0.930 . S
C480 N476 1.362 . S
C480 C477 1.431 . S
C480 C490 1.476 . S
H481 C475 0.929 . S
C482 O473 1.250 . S
C482 O474 1.258 . S
O483 Mn468 2.162 . S
O483 C471 1.281 . S
O484 Mn468 2.297 . S
O484 C471 1.236 . S
N485 Mn469 2.282 . S
N485 C486 1.328 . S
N485 C490 1.318 . S
C486 N485 1.328 . S
C486 C487 1.457 . S
C486 H491 0.929 . S
C487 C486 1.457 . S
C487 C488 1.291 . S
C487 H500 0.931 . S
C488 C487 1.291 . S
C488 C489 1.373 . S
C488 H501 0.929 . S
C489 C488 1.373 . S
C489 C490 1.396 . S
C489 C496 1.403 . S
C490 C480 1.476 . S
C490 N485 1.318 . S
C490 C489 1.396 . S
H491 C486 0.929 . S
O492 Mn468 2.385 . S
O492 C470 1.234 . S
O493 Mn468 2.209 . S
O493 Mn469 2.215 . S
O493 C470 1.283 . S
O494 Mn468 2.094 . S
O494 C472 1.240 . S
O495 Mn469 2.117 . S
O495 C472 1.264 . S
C496 C489 1.403 . S
C496 C497 1.399 . S
C496 H502 0.929 . S
C497 C477 1.449 . S
C497 C496 1.399 . S
C497 H503 0.930 . S
H498 C478 0.931 . S
H499 C479 0.930 . S
H500 C487 0.931 . S
H501 C488 0.929 . S
H502 C496 0.929 . S
H503 C497 0.930 . S
Mn504 O509 2.095 . S
Mn504 O519 2.162 . S
Mn504 O520 2.297 1_554 S
Mn504 O528 2.385 . S
Mn504 O529 2.209 . S
Mn504 O530 2.094 . S
Mn505 O510 2.121 . S
Mn505 N512 2.257 . S
Mn505 N521 2.282 . S
Mn505 O529 2.215 . S
Mn505 O531 2.117 . S
C506 O528 1.234 . S
C506 O529 1.283 . S
C507 O519 1.281 1_556 S
C507 O520 1.236 . S
C508 O530 1.240 . S
C508 O531 1.264 . S
O509 Mn504 2.095 . S
O509 C518 1.250 . S
O510 Mn505 2.121 . S
O510 C518 1.258 . S
C511 N512 1.326 . S
C511 C515 1.460 1_455 S
C511 H517 0.928 1_554 S
N512 Mn505 2.257 . S
N512 C511 1.326 . S
N512 C516 1.362 1_455 S
C513 C514 1.258 . S
C513 C516 1.431 . S
C513 C533 1.449 . S
C514 C513 1.258 . S
C514 C515 1.477 . S
C514 H534 0.931 . S
C515 C511 1.460 1_655 S
C515 C514 1.477 . S
C515 H535 0.930 1_554 S
C516 N512 1.362 1_655 S
C516 C513 1.431 . S
C516 C526 1.476 . S
H517 C511 0.928 1_556 S
C518 O509 1.250 . S
C518 O510 1.258 . S
O519 Mn504 2.162 . S
O519 C507 1.281 1_554 S
O520 Mn504 2.297 1_556 S
O520 C507 1.236 . S
N521 Mn505 2.282 . S
N521 C522 1.328 . S
N521 C526 1.318 1_455 S
C522 N521 1.328 . S
C522 C523 1.457 1_455 S
C522 H527 0.929 . S
C523 C522 1.457 1_655 S
C523 C524 1.291 . S
C523 H536 0.931 . S
C524 C523 1.291 . S
C524 C525 1.373 . S
C524 H537 0.929 . S
C525 C524 1.373 . S
C525 C526 1.396 . S
C525 C532 1.403 . S
C526 C516 1.476 . S
C526 N521 1.318 1_655 S
C526 C525 1.396 . S
H527 C522 0.929 . S
O528 Mn504 2.385 . S
O528 C506 1.234 . S
O529 Mn504 2.209 . S
O529 Mn505 2.215 . S
O529 C506 1.283 . S
O530 Mn504 2.094 . S
O530 C508 1.240 . S
O531 Mn505 2.117 . S
O531 C508 1.264 . S
C532 C525 1.403 . S
C532 C533 1.399 . S
C532 H538 0.929 . S
C533 C513 1.449 . S
C533 C532 1.399 . S
C533 H539 0.930 . S
H534 C514 0.931 . S
H535 C515 0.930 1_556 S
H536 C523 0.931 . S
H537 C524 0.929 . S
H538 C532 0.929 . S
H539 C533 0.930 . S
Mn540 O545 2.095 . S
Mn540 O555 2.162 . S
Mn540 O556 2.297 . S
Mn540 O564 2.385 . S
Mn540 O565 2.209 . S
Mn540 O566 2.094 . S
Mn541 O546 2.121 . S
Mn541 N548 2.257 . S
Mn541 N557 2.282 . S
Mn541 O565 2.215 . S
Mn541 O567 2.117 . S
C542 O564 1.234 . S
C542 O565 1.283 . S
C543 O555 1.281 . S
C543 O556 1.236 . S
C544 O566 1.240 . S
C544 O567 1.264 . S
O545 Mn540 2.095 . S
O545 C554 1.250 . S
O546 Mn541 2.121 . S
O546 C554 1.258 . S
C547 N548 1.326 . S
C547 C551 1.460 . S
C547 H553 0.929 . S
N548 Mn541 2.257 . S
N548 C547 1.326 . S
N548 C552 1.362 . S
C549 C550 1.258 . S
C549 C552 1.431 . S
C549 C569 1.449 . S
C550 C549 1.258 . S
C550 C551 1.477 . S
C550 H570 0.931 . S
C551 C547 1.460 . S
C551 C550 1.477 . S
C551 H571 0.930 . S
C552 N548 1.362 . S
C552 C549 1.431 . S
C552 C562 1.476 . S
H553 C547 0.929 . S
C554 O545 1.250 . S
C554 O546 1.258 . S
O555 Mn540 2.162 . S
O555 C543 1.281 . S
O556 Mn540 2.297 . S
O556 C543 1.236 . S
N557 Mn541 2.282 . S
N557 C558 1.328 . S
N557 C562 1.318 . S
C558 N557 1.328 . S
C558 C559 1.457 . S
C558 H563 0.929 . S
C559 C558 1.457 . S
C559 C560 1.291 . S
C559 H572 0.931 . S
C560 C559 1.291 . S
C560 C561 1.373 . S
C560 H573 0.929 . S
C561 C560 1.373 . S
C561 C562 1.396 . S
C561 C568 1.403 . S
C562 C552 1.476 . S
C562 N557 1.318 . S
C562 C561 1.396 . S
H563 C558 0.929 . S
O564 Mn540 2.385 . S
O564 C542 1.234 . S
O565 Mn540 2.209 . S
O565 Mn541 2.215 . S
O565 C542 1.283 . S
O566 Mn540 2.094 . S
O566 C544 1.240 . S
O567 Mn541 2.117 . S
O567 C544 1.264 . S
C568 C561 1.403 . S
C568 C569 1.399 . S
C568 H574 0.929 . S
C569 C549 1.449 . S
C569 C568 1.399 . S
C569 H575 0.930 . S
H570 C550 0.931 . S
H571 C551 0.930 . S
H572 C559 0.931 . S
H573 C560 0.929 . S
H574 C568 0.929 . S
H575 C569 0.930 . S
C4 C446 1.571 1_554 S
C482 C40 1.571 . S
C76 C518 1.571 1_556 S
C554 C112 1.571 . S
C292 C158 1.571 1_554 S
C194 C328 1.571 . S
C364 C230 1.571 1_556 S
C266 C400 1.571 . S
C3 C75 1.837 1_544 S
C39 C111 1.837 1_565 S
C147 C219 1.779 1_564 S
C183 C255 1.779 1_545 S
C363 C291 1.837 1_556 S
C327 C399 1.837 . S
C507 C435 1.779 1_556 S
C471 C543 1.779 . S
C218 C2 1.589 . S
C254 C38 1.589 1_655 S
C74 C146 1.589 . S
C110 C182 1.589 1_455 S
C506 C290 1.589 1_455 S
C326 C542 1.589 . S
C434 C362 1.589 1_455 S
C398 C470 1.589 . S
C14 C122 1.504 . S
C86 C50 1.504 . S
C148 C256 1.364 . S
C184 C220 1.364 . S
C410 C302 1.504 . S
C338 C374 1.504 . S
C544 C436 1.364 . S
C472 C508 1.364 . S
