# Generated by pormake.
# Topology irl, (4)-cn, num edge types: 1
# Building blocks:
#     Node 0, Type 0, BuildingBlock: KUFVIS_clean_sbu_0, # of connection points: 4
#     Node 1, Type 0, BuildingBlock: KUFVIS_clean_sbu_0, # of connection points: 4
#     Node 2, Type 0, BuildingBlock: KUFVIS_clean_sbu_0, # of connection points: 4
#     Node 3, Type 0, BuildingBlock: KUFVIS_clean_sbu_0, # of connection points: 4
#     Node 4, Type 0, BuildingBlock: KUFVIS_clean_sbu_0, # of connection points: 4
#     Node 5, Type 0, BuildingBlock: KUFVIS_clean_sbu_0, # of connection points: 4
#     Node 6, Type 0, BuildingBlock: KUFVIS_clean_sbu_0, # of connection points: 4
#     Node 7, Type 0, BuildingBlock: KUFVIS_clean_sbu_0, # of connection points: 4
#     Edge 8, Type (0, 0), BuildingBlock: ZUJKAS_clean_linker_0, # of connection points: 2
#     Edge 9, Type (0, 0), BuildingBlock: ZUJKAS_clean_linker_0, # of connection points: 2
#     Edge 10, Type (0, 0), BuildingBlock: ZUJKAS_clean_linker_0, # of connection points: 2
#     Edge 11, Type (0, 0), BuildingBlock: ZUJKAS_clean_linker_0, # of connection points: 2
#     Edge 12, Type (0, 0), BuildingBlock: ZUJKAS_clean_linker_0, # of connection points: 2
#     Edge 13, Type (0, 0), BuildingBlock: ZUJKAS_clean_linker_0, # of connection points: 2
#     Edge 14, Type (0, 0), BuildingBlock: ZUJKAS_clean_linker_0, # of connection points: 2
#     Edge 15, Type (0, 0), BuildingBlock: ZUJKAS_clean_linker_0, # of connection points: 2
#     Edge 16, Type (0, 0), BuildingBlock: ZUJKAS_clean_linker_0, # of connection points: 2
#     Edge 17, Type (0, 0), BuildingBlock: ZUJKAS_clean_linker_0, # of connection points: 2
#     Edge 18, Type (0, 0), BuildingBlock: ZUJKAS_clean_linker_0, # of connection points: 2
#     Edge 19, Type (0, 0), BuildingBlock: ZUJKAS_clean_linker_0, # of connection points: 2
#     Edge 20, Type (0, 0), BuildingBlock: ZUJKAS_clean_linker_0, # of connection points: 2
#     Edge 21, Type (0, 0), BuildingBlock: ZUJKAS_clean_linker_0, # of connection points: 2
#     Edge 22, Type (0, 0), BuildingBlock: ZUJKAS_clean_linker_0, # of connection points: 2
#     Edge 23, Type (0, 0), BuildingBlock: ZUJKAS_clean_linker_0, # of connection points: 2
# Relax obj value: 0.102
# Max RMSD: 0.152
# Mean RMSD: 0.152
data_MOF--net-irl--node1-KUFVIS_clean_sbu_0--edge1-ZUJKAS_clean_linker_0
_symmetry_space_group_name_H-M    P1
_symmetry_Int_Tables_number       1
_symmetry_cell_setting            triclinic
loop_
_symmetry_equiv_pos_as_xyz
'x, y, z'
_cell_length_a     44.247681
_cell_length_b     57.727108
_cell_length_c     35.737971
_cell_angle_alpha  89.98568
_cell_angle_beta   89.993253
_cell_angle_gamma 89.990265
loop_
_atom_site_label
_atom_site_type_symbol
_atom_site_fract_x
_atom_site_fract_y
_atom_site_fract_z
_atom_type_partial_charge
Mn0 Mn 0.0674 0.16874 -0.00038 0.0
Mn1 Mn 0.04758 0.22501 0.00571 0.0
C2 C 0.06021 0.18531 0.05741 0.0
C3 C 0.05162 0.13047 0.99166 0.0
C4 C 0.11172 0.20889 0.98979 0.0
O5 O 0.0545 0.17669 0.94705 0.0
O6 O 0.03818 0.21333 0.95449 0.0
C7 C 0.98129 0.21973 -0.00127 0.0
N8 N 0.00575 0.22729 0.01838 0.0
C9 C 0.97403 0.2429 0.06689 0.0
C10 C 0.94848 0.23543 0.04706 0.0
C11 C 0.95215 0.22372 0.01289 0.0
C12 C 0.00249 0.23845 0.05137 0.0
H13 H 0.98402 0.21071 0.97248 0.0
C14 C 0.04245 0.19515 0.93455 0.0
O15 O 0.07914 0.13668 0.98368 0.0
O16 O 0.03367 0.1464 0.00411 0.0
N17 N 0.05506 0.23854 0.05371 0.0
C18 C 0.08202 0.24348 0.07032 0.0
C19 C 0.08232 0.25451 0.10533 0.0
C20 C 0.05495 0.26059 0.12267 0.0
C21 C 0.02751 0.25556 0.10484 0.0
C22 C 0.02861 0.24452 0.06999 0.0
H23 H 0.10312 0.2389 0.05707 0.0
O24 O 0.07546 0.16621 0.05414 0.0
O25 O 0.0488 0.19375 0.02674 0.0
O26 O 0.10677 0.1871 0.99213 0.0
O27 O 0.09105 0.2242 0.99357 0.0
C28 C 0.99909 0.26083 0.12045 0.0
C29 C 0.97237 0.25437 0.10163 0.0
H30 H 0.92597 0.23843 0.05793 0.0
H31 H 0.93255 0.21781 -0.00249 0.0
H32 H 0.1036 0.25832 0.11892 0.0
H33 H 0.05528 0.26902 0.14975 0.0
H34 H 0.99751 0.26965 0.14712 0.0
H35 H 0.95067 0.25818 0.11423 0.0
Mn36 Mn 0.93688 0.85657 0.01297 0.0
Mn37 Mn 0.9611 0.80136 0.02027 0.0
C38 C 0.952 0.84253 0.07023 0.0
C39 C 0.94927 0.8949 -0.00115 0.0
C40 C 0.89486 0.81487 0.01248 0.0
O41 O 0.94378 0.84673 0.95929 0.0
O42 O 0.96633 0.81207 0.96779 0.0
C43 C 0.02637 0.80853 0.00638 0.0
N44 N 0.00372 0.80055 0.02871 0.0
C45 C 0.03931 0.7869 0.07461 0.0
C46 C 0.06305 0.7948 0.05194 0.0
C47 C 0.05653 0.80572 0.01773 0.0
C48 C 0.00972 0.79011 0.06176 0.0
H49 H 0.02142 0.81704 0.98016 0.0
C50 C 0.95737 0.82882 0.94701 0.0
O51 O 0.92151 0.88762 -0.00347 0.0
O52 O 0.96946 0.87994 0.00903 0.0
N53 N 0.95754 0.78882 0.06966 0.0
C54 C 0.93204 0.78333 0.08913 0.0
C55 C 0.93459 0.77278 0.1244 0.0
C56 C 0.96328 0.76782 0.13915 0.0
C57 C 0.9892 0.77347 0.1185 0.0
C58 C 0.98525 0.78375 0.08334 0.0
H59 H 0.90991 0.78702 0.07791 0.0
O60 O 0.93547 0.86106 0.0683 0.0
O61 O 0.95976 0.83321 0.0386 0.0
O62 O 0.89827 0.83684 0.01446 0.0
O63 O 0.91693 0.80056 0.01268 0.0
C64 C 0.01879 0.76965 0.13168 0.0
C65 C 0.04383 0.77641 0.10979 0.0
H66 H 0.08634 0.79278 0.06069 0.0
H67 H 0.07472 0.812 0.00021 0.0
H68 H 0.91448 0.76849 0.14018 0.0
H69 H 0.96514 0.75976 0.16642 0.0
H70 H 0.02255 0.76185 0.15885 0.0
H71 H 0.06647 0.77372 0.12048 0.0
Mn72 Mn 0.06632 0.83903 0.49485 0.0
Mn73 Mn 0.03974 0.78441 0.48926 0.0
C74 C 0.05913 0.8224 0.43713 0.0
C75 C 0.05454 0.87825 0.50197 0.0
C76 C 0.10496 0.79614 0.5086 0.0
O77 O 0.05137 0.83231 0.54704 0.0
O78 O 0.02894 0.79765 0.53895 0.0
C79 C 0.97414 0.79438 0.4901 0.0
N80 N 0.9986 0.78466 0.47312 0.0
C81 C 0.96778 0.76955 0.42334 0.0
C82 C 0.94221 0.77924 0.44044 0.0
C83 C 0.94543 0.79179 0.47388 0.0
C84 C 0.9958 0.77272 0.44079 0.0
H85 H 0.97654 0.80405 0.51579 0.0
C86 C 0.03569 0.81535 0.55887 0.0
O87 O 0.08109 0.87033 0.51101 0.0
O88 O 0.03532 0.86347 0.48874 0.0
N89 N 0.0482 0.76944 0.44265 0.0
C90 C 0.07533 0.76244 0.42856 0.0
C91 C 0.07619 0.75037 0.39446 0.0
C92 C 0.04917 0.74535 0.37549 0.0
C93 C 0.02152 0.75252 0.39075 0.0
C94 C 0.02206 0.76454 0.42475 0.0
H95 H 0.09615 0.76611 0.44313 0.0
O96 O 0.07612 0.8406 0.44065 0.0
O97 O 0.04582 0.81509 0.46735 0.0
O98 O 0.10315 0.8181 0.50419 0.0
O99 O 0.08239 0.78247 0.50509 0.0
C100 C 0.99345 0.74843 0.37336 0.0
C101 C 0.96663 0.75709 0.38948 0.0
H102 H 0.92003 0.7773 0.42799 0.0
H103 H 0.92582 0.79943 0.48714 0.0
H104 H 0.09763 0.7449 0.38287 0.0
H105 H 0.04994 0.73608 0.34916 0.0
H106 H 0.99226 0.73886 0.34735 0.0
H107 H 0.94526 0.7542 0.37545 0.0
Mn108 Mn 0.93807 0.15188 0.48448 0.0
Mn109 Mn 0.95749 0.20791 0.47244 0.0
C110 C 0.94973 0.16533 0.42556 0.0
C111 C 0.95366 0.1143 0.49934 0.0
C112 C 0.89279 0.19176 0.48458 0.0
O113 O 0.94691 0.16305 0.53713 0.0
O114 O 0.96474 0.19888 0.52538 0.0
C115 C 0.0235 0.20398 0.48425 0.0
N116 N -0.00024 0.21027 0.46223 0.0
C117 C 0.03317 0.22381 0.41379 0.0
C118 C 0.05798 0.21761 0.43605 0.0
C119 C 0.05312 0.2076 0.47139 0.0
C120 C 0.00418 0.21984 0.42813 0.0
H121 H 0.01982 0.19621 0.51137 0.0
C122 C 0.95881 0.18208 0.54766 0.0
O123 O 0.92561 0.12059 0.50334 0.0
O124 O 0.97234 0.12983 0.4872 0.0
N125 N 0.95181 0.21896 0.42243 0.0
C126 C 0.92546 0.22298 0.40377 0.0
C127 C 0.92637 0.23261 0.36771 0.0
C128 C 0.9543 0.23815 0.35131 0.0
C129 C 0.9811 0.23402 0.37116 0.0
C130 C 0.97877 0.22462 0.40717 0.0
H131 H 0.90392 0.21884 0.41625 0.0
O132 O 0.93455 0.14626 0.42953 0.0
O133 O 0.95813 0.1756 0.45615 0.0
O134 O 0.89798 0.16995 0.48462 0.0
O135 O 0.91359 0.20702 0.48171 0.0
C136 C 0.01004 0.23854 0.35641 0.0
C137 C 0.03605 0.23338 0.37767 0.0
H138 H 0.08087 0.22028 0.42617 0.0
H139 H 0.07215 0.20266 0.48865 0.0
H140 H 0.90559 0.23574 0.35256 0.0
H141 H 0.95489 0.24549 0.32344 0.0
H142 H 0.01255 0.24569 0.32856 0.0
H143 H 0.05819 0.23662 0.36582 0.0
Mn144 Mn 0.55821 0.66879 0.0081 0.0
Mn145 Mn 0.5323 0.72375 0.00693 0.0
C146 C 0.54215 0.68588 0.06265 0.0
C147 C 0.5477 0.62946 0.00049 0.0
C148 C 0.599 0.71146 0.00364 0.0
O149 O 0.55076 0.67491 0.95329 0.0
O150 O 0.53028 0.71062 0.95545 0.0
C151 C 0.46824 0.71421 0.98876 0.0
N152 N 0.48932 0.72357 0.01204 0.0
C153 C 0.45084 0.73728 0.05417 0.0
C154 C 0.4287 0.72792 0.03051 0.0
C155 C 0.43745 0.7163 -0.00229 0.0
C156 C 0.48115 0.73476 0.0437 0.0
H157 H 0.47489 0.70518 0.96361 0.0
C158 C 0.53862 0.69242 0.93765 0.0
O159 O 0.57502 0.63736 -0.00376 0.0
O160 O 0.52685 0.64434 0.00867 0.0
N161 N 0.53273 0.73845 0.05492 0.0
C162 C 0.55692 0.74549 0.07558 0.0
C163 C 0.55209 0.75702 0.10965 0.0
C164 C 0.52248 0.76131 0.12199 0.0
C165 C 0.49794 0.75397 0.10018 0.0
C166 C 0.50415 0.74276 0.0663 0.0
H167 H 0.57974 0.74227 0.06623 0.0
O168 O 0.5598 0.66793 0.06375 0.0
O169 O 0.53409 0.69299 0.02965 0.0
O170 O 0.596 0.68948 0.00634 0.0
O171 O 0.57665 0.72549 0.00267 0.0
C172 C 0.46757 0.75707 0.11095 0.0
C173 C 0.44404 0.74867 0.08801 0.0
H174 H 0.40494 0.72939 0.03741 0.0
H175 H 0.42051 0.70893 0.97941 0.0
H176 H 0.57114 0.76259 0.12636 0.0
H177 H 0.51888 0.77019 0.1483 0.0
H178 H 0.46205 0.76566 0.137 0.0
H179 H 0.4208 0.75089 0.09683 0.0
Mn180 Mn 0.44354 0.35227 0.01111 0.0
Mn181 Mn 0.46928 0.29772 0.0234 0.0
C182 C 0.44401 0.33653 0.07019 0.0
C183 C 0.45527 0.39143 0.00427 0.0
C184 C 0.40657 0.3088 0.99374 0.0
O185 O 0.46437 0.34496 0.96225 0.0
O186 O 0.48429 0.30995 0.97471 0.0
C187 C 0.53429 0.30871 0.03129 0.0
N188 N 0.50868 0.29884 0.04516 0.0
C189 C 0.535 0.2853 0.09985 0.0
C190 C 0.56172 0.29518 0.08605 0.0
C191 C 0.56133 0.307 0.05168 0.0
C192 C 0.50874 0.2876 0.07833 0.0
H193 H 0.53405 0.31784 0.0049 0.0
C194 C 0.48027 0.32746 0.95328 0.0
O195 O 0.43042 0.38294 0.99052 0.0
O196 O 0.47296 0.37727 0.02189 0.0
N197 N 0.45698 0.28328 0.06913 0.0
C198 C 0.42905 0.27546 0.07912 0.0
C199 C 0.42542 0.26357 0.11311 0.0
C200 C 0.45057 0.25955 0.13619 0.0
C201 C 0.47916 0.26745 0.12506 0.0
C202 C 0.48141 0.27912 0.09083 0.0
H203 H 0.40968 0.27834 0.06136 0.0
O204 O 0.42752 0.35459 0.06301 0.0
O205 O 0.46073 0.32881 0.04292 0.0
O206 O 0.40835 0.33087 -0.00364 0.0
O207 O 0.42833 0.29511 0.00197 0.0
C208 C 0.50546 0.26444 0.14678 0.0
C209 C 0.53331 0.27349 0.1343 0.0
H210 H 0.58262 0.29391 0.10171 0.0
H211 H 0.58183 0.31477 0.04093 0.0
H212 H 0.4033 0.25749 0.12147 0.0
H213 H 0.44765 0.25042 0.16243 0.0
H214 H 0.50449 0.25539 0.1733 0.0
H215 H 0.55327 0.27135 0.1515 0.0
Mn216 Mn 0.55356 0.33217 0.49119 0.0
Mn217 Mn 0.52625 0.27772 0.49474 0.0
C218 C 0.53347 0.31572 0.43816 0.0
C219 C 0.54425 0.37152 0.50108 0.0
C220 C 0.59339 0.28905 0.49167 0.0
O221 O 0.55081 0.32547 0.54655 0.0
O222 O 0.52699 0.29094 0.54633 0.0
C223 C 0.4634 0.28835 0.51728 0.0
N224 N 0.48311 0.27854 0.49267 0.0
C225 C 0.44242 0.26562 0.45319 0.0
C226 C 0.42166 0.2754 0.47829 0.0
C227 C 0.43221 0.28685 0.51042 0.0
C228 C 0.47322 0.26757 0.46159 0.0
H229 H 0.47144 0.2973 0.54186 0.0
C230 C 0.53835 0.30848 0.56325 0.0
O231 O 0.57169 0.3634 0.50117 0.0
O232 O 0.52265 0.3568 0.49559 0.0
N233 N 0.52409 0.26289 0.44692 0.0
C234 C 0.54711 0.25517 0.42486 0.0
C235 C 0.54042 0.24359 0.39132 0.0
C236 C 0.51019 0.23995 0.38095 0.0
C237 C 0.48688 0.24793 0.40421 0.0
C238 C 0.49492 0.25911 0.43751 0.0
H239 H 0.5704 0.25788 0.4327 0.0
O240 O 0.55088 0.33373 0.43569 0.0
O241 O 0.52755 0.30839 0.47176 0.0
O242 O 0.5908 0.31101 0.4879 0.0
O243 O 0.57081 0.27544 0.4958 0.0
C244 C 0.456 0.24545 0.39547 0.0
C245 C 0.43379 0.25435 0.41989 0.0
H246 H 0.39759 0.27439 0.47301 0.0
H247 H 0.41633 0.29457 0.5298 0.0
H248 H 0.55852 0.2375 0.3735 0.0
H249 H 0.50516 0.23101 0.35505 0.0
H250 H 0.44908 0.23693 0.36986 0.0
H251 H 0.41013 0.25258 0.41265 0.0
Mn252 Mn 0.43828 0.64866 0.48691 0.0
Mn253 Mn 0.46015 0.70437 0.47659 0.0
C254 C 0.44122 0.66446 0.42805 0.0
C255 C 0.45279 0.61005 0.49471 0.0
C256 C 0.3968 0.69031 0.50019 0.0
O257 O 0.45558 0.65678 0.5375 0.0
O258 O 0.47258 0.69287 0.52672 0.0
C259 C 0.52624 0.69652 0.47595 0.0
N260 N 0.50097 0.70514 0.45925 0.0
C261 C 0.52998 0.72011 0.40772 0.0
C262 C 0.55637 0.71154 0.42448 0.0
C263 C 0.55446 0.69962 0.45868 0.0
C264 C 0.5025 0.71644 0.42619 0.0
H265 H 0.52486 0.68736 0.50225 0.0
C266 C 0.46918 0.67513 0.54779 0.0
O267 O 0.42635 0.61724 0.5056 0.0
O268 O 0.4704 0.62522 0.4793 0.0
N269 N 0.45002 0.7182 0.42957 0.0
C270 C 0.42234 0.72466 0.41647 0.0
C271 C 0.42022 0.73638 0.38213 0.0
C272 C 0.44657 0.74168 0.36193 0.0
C273 C 0.47483 0.73524 0.3763 0.0
C274 C 0.47554 0.7236 0.41067 0.0
H275 H 0.40204 0.7208 0.43201 0.0
O276 O 0.42576 0.64569 0.4337 0.0
O277 O 0.45555 0.67293 0.45674 0.0
O278 O 0.40057 0.66835 0.49833 0.0
O279 O 0.41778 0.70498 0.49348 0.0
C280 C 0.50232 0.73968 0.3577 0.0
C281 C 0.52984 0.73198 0.37325 0.0
H282 H 0.57818 0.7139 0.41124 0.0
H283 H 0.57471 0.69286 0.47171 0.0
H284 H 0.39833 0.74134 0.37127 0.0
H285 H 0.44482 0.75063 0.33538 0.0
H286 H 0.50254 0.74882 0.33124 0.0
H287 H 0.55077 0.73519 0.35841 0.0
H288 H 0.91239 0.93295 0.99176 0.0
H289 H 0.92819 0.97354 0.98458 0.0
H290 H 0.02153 0.95215 0.98256 0.0
H291 H 0.0061 0.91183 0.98983 0.0
H292 H 0.96924 0.99678 0.03698 0.0
H293 H 0.01281 0.99669 0.89119 0.0
H294 H 0.98658 0.97516 0.90831 0.0
H295 H 0.02593 0.97333 0.92026 0.0
C296 C 0.93623 0.93691 0.98926 0.0
C297 C 0.95799 0.91921 0.99141 0.0
C298 C 0.94522 0.96006 0.98521 0.0
C299 C 0.97601 0.96577 0.98262 0.0
C300 C 0.99766 0.94807 0.98391 0.0
H301 H 0.08485 0.09112 0.97795 0.0
H302 H 0.06605 0.05111 0.97502 0.0
C303 C 0.98876 0.92504 0.98829 0.0
C304 C 0.9859 0.99027 0.98142 0.0
H305 H 0.02455 0.0296 0.92841 0.0
C306 C 0.98105 0.00407 0.01312 0.0
C307 C 0.00168 0.99955 0.95045 0.0
C308 C 0.00692 0.98552 0.91545 0.0
C309 C 0.99216 0.02681 0.01506 0.0
C310 C 0.00786 0.03619 0.984 0.0
C311 C 0.01255 0.02239 0.95218 0.0
C312 C 0.0192 0.0604 0.98399 0.0
C313 C 0.98781 0.04029 0.05086 0.0
C314 C 0.99905 0.07887 0.98903 0.0
C315 C 0.00971 0.10158 0.99103 0.0
C316 C 0.04074 0.10637 0.98745 0.0
C317 C 0.06084 0.08795 0.98094 0.0
C318 C 0.05013 0.06512 0.97925 0.0
H319 H 0.9835 0.02864 0.07504 0.0
H320 H 0.0079 0.05112 0.05722 0.0
H321 H 0.96795 0.05188 0.04783 0.0
H322 H 0.97502 0.07572 0.99172 0.0
H323 H 0.99355 0.1154 -0.00443 0.0
H324 H 0.99848 0.8969 0.49429 0.0
H325 H 0.98365 0.93747 0.49983 0.0
H326 H 0.07569 0.95614 0.52536 0.0
H327 H 0.09087 0.91528 0.52001 0.0
H328 H 0.9934 0.96933 0.5647 0.0
H329 H 0.04884 0.99658 0.43184 0.0
H330 H 0.03959 0.96671 0.44155 0.0
H331 H 0.07106 0.98009 0.4646 0.0
C332 C 0.01565 0.90958 0.50117 0.0
C333 C 0.04593 0.90288 0.50651 0.0
C334 C 0.00707 0.93275 0.50444 0.0
C335 C 0.02858 0.94977 0.51277 0.0
C336 C 0.05879 0.94322 0.51865 0.0
H337 H 0.01176 0.09956 0.50591 0.0
H338 H 0.03 0.05995 0.51329 0.0
C339 C 0.06741 0.91991 0.51566 0.0
C340 C 0.0192 0.97439 0.51432 0.0
H341 H 0.02279 0.02516 0.46568 0.0
C342 C -7e-05 0.98164 0.54323 0.0
C343 C 0.02774 0.99029 0.48621 0.0
C344 C 0.0478 0.98315 0.45407 0.0
C345 C 0.98906 0.0045 0.5449 0.0
C346 C 0.99706 0.02033 0.51628 0.0
C347 C 0.01663 0.01306 0.4876 0.0
C348 C 0.98546 0.04452 0.5152 0.0
C349 C 0.96954 0.01154 0.57759 0.0
C350 C 0.95426 0.04916 0.51416 0.0
C351 C 0.94371 0.07194 0.51035 0.0
C352 C 0.9642 0.0904 0.50684 0.0
C353 C 0.99537 0.08572 0.50842 0.0
C354 C 0.00586 0.06306 0.51262 0.0
H355 H 0.97319 1.00002 0.6021 0.0
H356 H 0.97413 0.02968 0.58617 0.0
H357 H 0.94541 0.01018 0.56944 0.0
H358 H 0.93806 0.03512 0.51517 0.0
H359 H 0.91958 0.07499 0.5089 0.0
H360 H 0.57653 0.59615 0.95879 0.0
H361 H 0.56102 0.55557 0.95061 0.0
H362 H 0.48736 0.56632 0.02789 0.0
H363 H 0.50166 0.60685 0.03428 0.0
H364 H 0.55773 0.52044 0.99395 0.0
H365 H 0.44145 0.53698 0.94634 0.0
H366 H 0.46886 0.55992 0.95064 0.0
H367 H 0.44706 0.55071 0.99068 0.0
C368 C 0.55695 0.58978 0.97379 0.0
C369 C 0.54006 0.60466 -0.00322 0.0
C370 C 0.54805 0.56663 0.96909 0.0
C371 C 0.52237 0.55797 0.9877 0.0
C372 C 0.50639 0.57271 0.01189 0.0
H373 H 0.48997 0.41699 0.05109 0.0
H374 H 0.50629 0.45704 0.04343 0.0
C375 C 0.51481 0.59586 0.01587 0.0
C376 C 0.51285 0.53336 0.98336 0.0
H377 H 0.45046 0.49908 0.97332 0.0
C378 C 0.53434 0.5158 0.98884 0.0
C379 C 0.48252 0.52708 0.97554 0.0
C380 C 0.4588 0.54472 0.96502 0.0
C381 C 0.52609 0.4923 0.98875 0.0
C382 C 0.49521 0.48618 0.98484 0.0
C383 C 0.47401 0.50366 0.97727 0.0
C384 C 0.4843 0.46195 0.98983 0.0
C385 C 0.55075 0.47438 0.99253 0.0
C386 C 0.46481 0.45165 0.96351 0.0
C387 C 0.45446 0.42891 0.96863 0.0
C388 C 0.46382 0.41601 -0.00014 0.0
C389 C 0.48276 0.42645 0.02647 0.0
C390 C 0.49243 0.44928 0.02185 0.0
H391 H 0.57241 0.48086 0.98077 0.0
H392 H 0.55461 0.47067 0.02262 0.0
H393 H 0.54476 0.45799 0.97807 0.0
H394 H 0.45789 0.46109 0.93875 0.0
H395 H 0.43991 0.42123 0.94767 0.0
H396 H 0.48907 0.39097 0.51236 0.0
H397 H 0.47637 0.43206 0.51566 0.0
H398 H 0.57052 0.44975 0.50363 0.0
H399 H 0.58357 0.40839 0.50033 0.0
H400 H 0.49948 0.46815 0.56651 0.0
H401 H 0.52468 0.48361 0.4159 0.0
H402 H 0.51853 0.45494 0.43461 0.0
H403 H 0.55357 0.46963 0.44321 0.0
C404 C 0.50717 0.40355 0.51063 0.0
C405 C 0.53734 0.39644 0.50583 0.0
C406 C 0.49984 0.42703 0.51263 0.0
C407 C 0.52245 0.44389 0.50953 0.0
C408 C 0.55272 0.43694 0.50572 0.0
H409 H 0.50917 0.59285 0.48267 0.0
H410 H 0.52637 0.55292 0.48905 0.0
C411 C 0.56015 0.41335 0.50399 0.0
C412 C 0.5139 0.46871 0.50902 0.0
H413 H 0.50793 0.5155 0.45114 0.0
C414 C 0.50143 0.4786 0.54139 0.0
C415 C 0.51639 0.48217 0.47614 0.0
C416 C 0.52882 0.47212 0.44032 0.0
C417 C 0.49161 0.50175 0.54187 0.0
C418 C 0.49362 0.51515 0.50876 0.0
C419 C 0.50633 0.50523 0.47649 0.0
C420 C 0.48301 0.53955 0.50684 0.0
C421 C 0.4797 0.51174 0.57799 0.0
C422 C 0.4528 0.54539 0.51465 0.0
C423 C 0.44289 0.56836 0.51129 0.0
C424 C 0.46293 0.58579 0.49953 0.0
C425 C 0.49311 0.57984 0.49171 0.0
C426 C 0.50302 0.557 0.49535 0.0
H427 H 0.48768 0.50172 0.60263 0.0
H428 H 0.48672 0.53009 0.58141 0.0
H429 H 0.45464 0.51107 0.57773 0.0
H430 H 0.43675 0.53214 0.52269 0.0
H431 H 0.41948 0.57239 0.51728 0.0
H432 H 0.00307 0.19216 0.08177 0.0
H433 H 0.98668 0.1963 0.14683 0.0
H434 H 0.07974 0.19632 0.18279 0.0
H435 H 0.09616 0.19249 0.11747 0.0
H436 H 0.04297 0.16056 0.21256 0.0
H437 H 0.98838 0.24661 0.22973 0.0
H438 H 0.9791 0.23128 0.18746 0.0
H439 H 0.01721 0.24096 0.19509 0.0
C440 C 0.01997 0.19418 0.10346 0.0
C441 C 0.05083 0.19276 0.09481 0.0
C442 C 0.01063 0.19647 0.14056 0.0
C443 C 0.03204 0.19695 0.1695 0.0
C444 C 0.06294 0.1963 0.16074 0.0
H445 H 0.00859 0.1702 0.40778 0.0
H446 H 0.03003 0.17908 0.34617 0.0
C447 C 0.07227 0.19411 0.12361 0.0
C448 C 0.02209 0.19418 0.20866 0.0
H449 H 0.97869 0.21859 0.27692 0.0
C450 C 0.02927 0.17338 0.2269 0.0
C451 C 0.00404 0.21085 0.22697 0.0
C452 C 0.99682 0.2338 0.20903 0.0
C453 C 0.01805 0.16846 0.26266 0.0
C454 C -0.00041 0.18499 0.28078 0.0
C455 C 0.99281 0.20597 0.26282 0.0
C456 C 0.98669 0.18055 0.31815 0.0
C457 C 0.02513 0.14528 0.28018 0.0
C458 C 0.95527 0.17878 0.32273 0.0
C459 C 0.94306 0.17389 0.35789 0.0
C460 C 0.96214 0.17136 0.38891 0.0
C461 C 0.99353 0.1728 0.38425 0.0
C462 C 0.00575 0.17761 0.34914 0.0
H463 H 0.03348 0.1326 0.2592 0.0
H464 H 0.04299 0.14757 0.30165 0.0
H465 H 0.00486 0.13794 0.29414 0.0
H466 H 0.94028 0.18087 0.299 0.0
H467 H 0.91879 0.17234 0.36098 0.0
H468 H 0.00287 0.81782 0.40879 0.0
H469 H 0.98934 0.81232 0.34301 0.0
H470 H 0.08379 0.80717 0.31426 0.0
H471 H 0.0973 0.81203 0.38045 0.0
H472 H 0.04982 0.84432 0.28027 0.0
H473 H 0.99318 0.75921 0.26305 0.0
H474 H 0.98192 0.77543 0.30368 0.0
H475 H 0.02013 0.76504 0.29988 0.0
C476 C 0.02059 0.81434 0.38864 0.0
C477 C 0.05101 0.81454 0.39953 0.0
C478 C 0.01289 0.8113 0.35113 0.0
C479 C 0.03559 0.80898 0.32398 0.0
C480 C 0.066 0.80854 0.33498 0.0
H481 H 0.01156 0.83885 0.0853 0.0
H482 H 0.03495 0.82876 0.14532 0.0
C483 C 0.07367 0.81136 0.37259 0.0
C484 C 0.02764 0.81122 0.28411 0.0
H485 H 0.98437 0.78734 0.21539 0.0
C486 C 0.03599 0.8317 0.2657 0.0
C487 C 0.00945 0.79478 0.26557 0.0
C488 C 0.00078 0.77225 0.28388 0.0
C489 C 0.02524 0.83676 0.22977 0.0
C490 C 0.00625 0.82059 0.21159 0.0
C491 C 0.99888 0.79969 0.22948 0.0
C492 C 0.99244 0.82564 0.17493 0.0
C493 C 0.03301 0.85988 0.2125 0.0
C494 C 0.96085 0.82675 0.17165 0.0
C495 C 0.94755 0.83214 0.13734 0.0
C496 C 0.9657 0.83593 0.10585 0.0
C497 C 0.99725 0.83523 0.1092 0.0
C498 C 0.01056 0.82978 0.14344 0.0
H499 H 0.04156 0.87238 0.23364 0.0
H500 H 0.05095 0.85741 0.19119 0.0
H501 H 0.01301 0.86761 0.19847 0.0
H502 H 0.94653 0.82375 0.19576 0.0
H503 H 0.92316 0.83313 0.13529 0.0
H504 H 0.06146 0.83862 0.61664 0.0
H505 H 0.04476 0.83987 0.68157 0.0
H506 H 0.96861 0.79636 0.65404 0.0
H507 H 0.98607 0.79416 0.58909 0.0
H508 H 0.99531 0.8564 0.7116 0.0
H509 H 0.00216 0.76228 0.74206 0.0
H510 H 0.01726 0.77476 0.69977 0.0
H511 H 0.9774 0.76908 0.70387 0.0
C512 C 0.04121 0.82924 0.62443 0.0
C513 C 0.02514 0.81618 0.59792 0.0
C514 C 0.03168 0.82998 0.66153 0.0
C515 C 0.0057 0.81793 0.67278 0.0
C516 C 0.98919 0.80526 0.64619 0.0
H517 H 0.92496 0.8487 0.89067 0.0
H518 H 0.93431 0.84571 0.82343 0.0
C519 C 0.99907 0.80413 0.6091 0.0
C520 C 0.99595 0.81909 0.71232 0.0
H521 H 0.98108 0.78606 0.78927 0.0
C522 C 0.99221 0.84102 0.72863 0.0
C523 C 0.99224 0.79899 0.73451 0.0
C524 C 0.99775 0.77496 0.7193 0.0
C525 C 0.98544 0.84347 0.7667 0.0
C526 C 0.98106 0.82337 0.7887 0.0
C527 C 0.98427 0.80143 0.77225 0.0
C528 C 0.97456 0.82465 0.82924 0.0
C529 C 0.98429 0.86756 0.78312 0.0
C530 C 0.99335 0.81302 0.85472 0.0
C531 C 0.9876 0.8142 0.89303 0.0
C532 C 0.96318 0.82729 0.90653 0.0
C533 C 0.94424 0.83878 0.88101 0.0
C534 C 0.94964 0.8372 0.84263 0.0
H535 H 0.99673 0.88024 0.76549 0.0
H536 H 0.96042 0.87335 0.78477 0.0
H537 H 0.99407 0.86794 0.81173 0.0
H538 H 0.01267 0.80319 0.84496 0.0
H539 H 0.00257 0.80518 0.91208 0.0
H540 H 0.01143 0.22927 0.89717 0.0
H541 H 0.99602 0.22929 0.83135 0.0
H542 H 0.03617 0.16186 0.81658 0.0
H543 H 0.05187 0.16162 0.88191 0.0
H544 H 0.05199 0.19556 0.76106 0.0
H545 H 0.92795 0.18852 0.78451 0.0
H546 H 0.94716 0.21125 0.80941 0.0
H547 H 0.95529 0.18155 0.8203 0.0
C548 C 0.01698 0.21443 0.87995 0.0
C549 C 0.03287 0.19543 0.89489 0.0
C550 C 0.00801 0.21444 0.84244 0.0
C551 C 0.01476 0.19548 0.81939 0.0
C552 C 0.03073 0.17661 0.83407 0.0
H553 H 0.94876 0.15143 0.6049 0.0
H554 H 0.9623 0.15601 0.67076 0.0
C555 C 0.03961 0.17653 0.87147 0.0
C556 C 0.00572 0.19527 0.77967 0.0
H557 H 0.9445 0.19187 0.72191 0.0
C558 C 0.02851 0.19488 0.7524 0.0
C559 C 0.97507 0.19413 0.76875 0.0
C560 C 0.94986 0.1937 0.79717 0.0
C561 C 0.02144 0.19328 0.71427 0.0
C562 C 0.99078 0.19231 0.70331 0.0
C563 C 0.96797 0.19277 0.73057 0.0
C564 C 0.982 0.19001 0.66366 0.0
C565 C 0.0468 0.19198 0.6861 0.0
C566 C 0.98834 0.20777 0.63811 0.0
C567 C 0.98072 0.20524 0.60044 0.0
C568 C 0.96648 0.1849 0.58771 0.0
C569 C 0.95978 0.16728 0.61365 0.0
C570 C 0.96741 0.16987 0.65131 0.0
H571 H 0.06883 0.18799 0.69955 0.0
H572 H 0.04204 0.17858 0.66462 0.0
H573 H 0.04891 0.20892 0.67165 0.0
H574 H 0.99923 0.22358 0.64732 0.0
H575 H 0.98612 0.2192 0.58134 0.0
H576 H 0.48181 0.68764 0.07323 0.0
H577 H 0.45518 0.69333 0.13265 0.0
H578 H 0.5407 0.70264 0.18871 0.0
H579 H 0.56721 0.69761 0.12907 0.0
H580 H 0.46418 0.66314 0.19007 0.0
H581 H 0.48935 0.75209 0.23924 0.0
H582 H 0.49042 0.74386 0.1905 0.0
H583 H 0.52181 0.73736 0.22069 0.0
C584 C 0.49472 0.69187 0.09806 0.0
C585 C 0.52637 0.69297 0.09673 0.0
C586 C 0.47956 0.69498 0.13191 0.0
C587 C 0.49593 0.69889 0.1649 0.0
C588 C 0.52759 0.70041 0.16338 0.0
H589 H 0.49465 0.67064 0.3931 0.0
H590 H 0.50276 0.68186 0.32768 0.0
C591 C 0.54273 0.69733 0.1295 0.0
C592 C 0.4807 0.69753 0.20157 0.0
H593 H 0.47623 0.72422 0.2864 0.0
C594 C 0.46616 0.67671 0.21093 0.0
C595 C 0.48327 0.71528 0.22858 0.0
C596 C 0.49681 0.73852 0.21923 0.0
C597 C 0.45608 0.67253 0.24744 0.0
C598 C 0.46052 0.6897 0.27499 0.0
C599 C 0.47332 0.71104 0.26517 0.0
C600 C 0.45512 0.68472 0.31479 0.0
C601 C 0.44242 0.6493 0.25695 0.0
C602 C 0.42566 0.6827 0.32884 0.0
C603 C 0.42106 0.67642 0.36615 0.0
C604 C 0.44589 0.67263 0.38978 0.0
C605 C 0.47529 0.67438 0.37555 0.0
C606 C 0.47989 0.68065 0.33834 0.0
H607 H 0.44282 0.63715 0.23285 0.0
H608 H 0.45481 0.64129 0.28068 0.0
H609 H 0.41859 0.65172 0.26583 0.0
H610 H 0.40634 0.68567 0.31085 0.0
H611 H 0.39821 0.6746 0.37662 0.0
H612 H 0.47284 0.31432 0.42789 0.0
H613 H 0.44623 0.30866 0.36826 0.0
H614 H 0.53164 0.29682 0.31319 0.0
H615 H 0.55802 0.30211 0.37272 0.0
H616 H 0.45769 0.33844 0.30949 0.0
H617 H 0.47842 0.24824 0.26298 0.0
H618 H 0.4776 0.2567 0.31164 0.0
H619 H 0.51086 0.26174 0.28388 0.0
C620 C 0.48566 0.30954 0.40324 0.0
C621 C 0.51727 0.30791 0.40476 0.0
C622 C 0.47053 0.30643 0.36928 0.0
C623 C 0.48691 0.30184 0.33648 0.0
C624 C 0.51847 0.29959 0.33835 0.0
H625 H 0.49537 0.33289 0.11056 0.0
H626 H 0.50007 0.32183 0.1766 0.0
C627 C 0.53355 0.30279 0.3722 0.0
C628 C 0.47218 0.30334 0.29945 0.0
H629 H 0.46893 0.27628 0.21478 0.0
C630 C 0.45937 0.32464 0.28901 0.0
C631 C 0.47434 0.2853 0.27287 0.0
C632 C 0.4858 0.2616 0.2834 0.0
C633 C 0.45088 0.32894 0.25188 0.0
C634 C 0.4553 0.31149 0.2248 0.0
C635 C 0.46609 0.28969 0.23566 0.0
C636 C 0.45209 0.31657 0.18463 0.0
C637 C 0.43905 0.35254 0.24119 0.0
C638 C 0.42355 0.31725 0.16767 0.0
C639 C 0.42091 0.32341 0.12999 0.0
C640 C 0.44683 0.32847 0.10888 0.0
C641 C 0.47527 0.32815 0.12609 0.0
C642 C 0.47792 0.32199 0.16367 0.0
H643 H 0.43703 0.36429 0.26569 0.0
H644 H 0.45436 0.36062 0.22032 0.0
H645 H 0.41648 0.35077 0.22794 0.0
H646 H 0.40341 0.31333 0.18369 0.0
H647 H 0.39871 0.32416 0.11726 0.0
H648 H 0.52762 0.30115 0.92802 0.0
H649 H 0.5465 0.29844 0.86372 0.0
H650 H 0.4797 0.34833 0.8283 0.0
H651 H 0.46173 0.35186 0.89234 0.0
H652 H 0.5191 0.28331 0.80455 0.0
H653 H 0.55141 0.37377 0.77632 0.0
H654 H 0.543 0.36366 0.82293 0.0
H655 H 0.51302 0.37281 0.79206 0.0
C656 C 0.51733 0.31181 0.90656 0.0
C657 C 0.4933 0.32681 0.91526 0.0
C658 C 0.52812 0.31025 0.86988 0.0
C659 C 0.51491 0.32351 0.84126 0.0
C660 C 0.49098 0.33852 0.85002 0.0
H661 H 0.4961 0.28912 0.60936 0.0
H662 H 0.49374 0.29173 0.67758 0.0
C663 C 0.48056 0.34039 0.88669 0.0
C664 C 0.52427 0.32041 0.80175 0.0
H665 H 0.53928 0.35052 0.72185 0.0
C666 C 0.52406 0.29797 0.78659 0.0
C667 C 0.53144 0.33943 0.77841 0.0
C668 C 0.53508 0.3637 0.79346 0.0
C669 C 0.52927 0.29418 0.74837 0.0
C670 C 0.53358 0.31344 0.72444 0.0
C671 C 0.53536 0.33575 0.73997 0.0
C672 C 0.53551 0.31105 0.68319 0.0
C673 C 0.53018 0.26955 0.73425 0.0
C674 C 0.55914 0.32172 0.66346 0.0
C675 C 0.55997 0.32089 0.62447 0.0
C676 C 0.5374 0.30907 0.60446 0.0
C677 C 0.51395 0.29813 0.62415 0.0
C678 C 0.51277 0.29942 0.66315 0.0
H679 H 0.53766 0.25744 0.75657 0.0
H680 H 0.50713 0.26424 0.72558 0.0
H681 H 0.54563 0.26771 0.70994 0.0
H682 H 0.57689 0.33086 0.67824 0.0
H683 H 0.57842 0.32936 0.60999 0.0
H684 H 0.50963 0.72425 0.89345 0.0
H685 H 0.50062 0.72193 0.82606 0.0
H686 H 0.5471 0.65634 0.82198 0.0
H687 H 0.55652 0.65845 0.88914 0.0
H688 H 0.56346 0.68887 0.76416 0.0
H689 H 0.43939 0.67587 0.7783 0.0
H690 H 0.45459 0.70058 0.80244 0.0
H691 H 0.46522 0.67192 0.81688 0.0
C692 C 0.51804 0.70935 0.87827 0.0
C693 C 0.53365 0.69147 0.89679 0.0
C694 C 0.51277 0.70805 0.83982 0.0
C695 C 0.52296 0.68886 0.81935 0.0
C696 C 0.53904 0.67124 0.83747 0.0
H697 H 0.46452 0.64209 0.6024 0.0
H698 H 0.4801 0.64525 0.66767 0.0
C699 C 0.54428 0.67248 0.87588 0.0
C700 C 0.51638 0.68686 0.77908 0.0
H701 H 0.45864 0.67994 0.71698 0.0
C702 C 0.54058 0.68695 0.75372 0.0
C703 C 0.48651 0.68405 0.76588 0.0
C704 C 0.45988 0.68289 0.79222 0.0
C705 C 0.53561 0.6845 0.71517 0.0
C706 C 0.50569 0.68213 0.70195 0.0
C707 C 0.48154 0.68187 0.72737 0.0
C708 C 0.49875 0.67969 0.66182 0.0
C709 C 0.56234 0.68406 0.68898 0.0
C710 C 0.50434 0.698 0.63702 0.0
C711 C 0.49546 0.69631 0.59965 0.0
C712 C 0.48067 0.6763 0.58658 0.0
C713 C 0.47578 0.65778 0.61146 0.0
C714 C 0.48464 0.65952 0.64878 0.0
H715 H 0.58386 0.68083 0.70412 0.0
H716 H 0.55942 0.6705 0.66724 0.0
H717 H 0.56417 0.70105 0.67463 0.0
H718 H 0.51481 0.71384 0.6468 0.0
H719 H 0.49961 0.71089 0.58128 0.0
H720 H 0.39538 0.26311 0.97921 0.0
H721 H 0.34658 0.24455 0.96945 0.0
H722 H 0.30239 0.31101 0.97572 0.0
H723 H 0.35128 0.32991 0.98517 0.0
H724 H 0.30032 0.24593 0.02119 0.0
H725 H 0.26192 0.28099 0.88475 0.0
H726 H 0.30081 0.28249 0.89995 0.0
H727 H 0.2735 0.30282 0.91755 0.0
C728 C 0.3754 0.27392 0.97793 0.0
C729 C 0.37732 0.29807 0.98316 0.0
C730 C 0.3475 0.26322 0.97232 0.0
C731 C 0.3209 0.27639 0.97158 0.0
C732 C 0.32272 0.30056 0.9755 0.0
H733 H 0.13097 0.25379 0.98608 0.0
H734 H 0.18237 0.26801 0.97899 0.0
C735 C 0.3507 0.31133 0.98107 0.0
C736 C 0.29118 0.26459 0.97026 0.0
H737 H 0.22472 0.2618 0.92199 0.0
C738 C 0.2839 0.24916 -0.00074 0.0
C739 C 0.26986 0.26888 0.94164 0.0
C740 C 0.27695 0.28453 0.90899 0.0
C741 C 0.25542 0.23855 0.00123 0.0
C742 C 0.23384 0.24319 0.97301 0.0
C743 C 0.24136 0.25823 0.94353 0.0
C744 C 0.20262 0.234 0.97516 0.0
C745 C 0.24824 0.22327 0.03434 0.0
C746 C 0.19685 0.21008 0.97478 0.0
C747 C 0.16731 0.20176 0.97904 0.0
C748 C 0.14303 0.21728 0.9835 0.0
C749 C 0.14898 0.24125 0.98282 0.0
C750 C 0.17841 0.24948 0.97866 0.0
H751 H 0.26489 0.22543 0.05734 0.0
H752 H 0.22533 0.2271 0.04542 0.0
H753 H 0.24869 0.20487 0.02539 0.0
H754 H 0.21521 0.19784 0.97147 0.0
H755 H 0.16357 0.18323 0.97918 0.0
H756 H 0.65384 0.68887 0.00359 0.0
H757 H 0.70426 0.7064 0.00385 0.0
H758 H 0.66426 0.7745 0.00245 0.0
H759 H 0.61404 0.75736 0.00163 0.0
H760 H 0.71157 0.76977 0.95207 0.0
H761 H 0.74391 0.73847 0.09353 0.0
H762 H 0.73227 0.71613 0.06167 0.0
H763 H 0.70547 0.7376 0.07668 0.0
C764 C 0.65575 0.70757 0.00328 0.0
C765 C 0.62979 0.72165 0.00272 0.0
C766 C 0.68459 0.71756 0.00365 0.0
C767 C 0.68795 0.74175 0.00374 0.0
C768 C 0.66216 0.7558 0.00252 0.0
H769 H 0.84037 0.838 0.01075 0.0
H770 H 0.78968 0.82091 0.00814 0.0
C771 C 0.63342 0.7459 0.00207 0.0
C772 C 0.71826 0.75262 0.00495 0.0
H773 H 0.78178 0.7577 0.05851 0.0
C774 C 0.72692 0.76719 0.97536 0.0
C775 C 0.73812 0.74931 0.03549 0.0
C776 C 0.72947 0.7347 0.06884 0.0
C777 C 0.75521 0.77821 0.97515 0.0
C778 C 0.7751 0.7748 0.00561 0.0
C779 C 0.76641 0.76028 0.03522 0.0
C780 C 0.80553 0.78545 0.00676 0.0
C781 C 0.76386 0.79296 0.94197 0.0
C782 C 0.83111 0.77117 0.00751 0.0
C783 C 0.85996 0.7808 0.00918 0.0
C784 C 0.86393 0.80501 0.01031 0.0
C785 C 0.83819 0.81932 0.00972 0.0
C786 C 0.80921 0.8096 0.00804 0.0
H787 H 0.74905 0.78965 0.91745 0.0
H788 H 0.76172 0.81151 0.94963 0.0
H789 H 0.78769 0.78972 0.9337 0.0
H790 H 0.82874 0.75249 0.00668 0.0
H791 H 0.87914 0.76916 0.00971 0.0
H792 H 0.11669 0.75071 0.52426 0.0
H793 H 0.16569 0.73204 0.53114 0.0
H794 H 0.21013 0.79788 0.51654 0.0
H795 H 0.16096 0.81696 0.50983 0.0
H796 H 0.21002 0.73212 0.47551 0.0
H797 H 0.25339 0.76961 0.60811 0.0
H798 H 0.21393 0.77065 0.59521 0.0
H799 H 0.24035 0.7905 0.57448 0.0
C800 C 0.13678 0.76139 0.52295 0.0
C801 C 0.13479 0.78541 0.51632 0.0
C802 C 0.1648 0.75062 0.52694 0.0
C803 C 0.19149 0.76358 0.52465 0.0
C804 C 0.18973 0.78763 0.51905 0.0
H805 H 0.38032 0.73581 0.50501 0.0
H806 H 0.32999 0.75173 0.51389 0.0
C807 C 0.16161 0.79848 0.51504 0.0
C808 C 0.22105 0.75155 0.52507 0.0
H809 H 0.28834 0.74805 0.57138 0.0
C810 C 0.22707 0.73542 0.49665 0.0
C811 C 0.24316 0.75593 0.55269 0.0
C812 C 0.2374 0.77246 0.58458 0.0
C813 C 0.25504 0.72407 0.49436 0.0
C814 C 0.27734 0.72863 0.52175 0.0
C815 C 0.27113 0.7445 0.55054 0.0
C816 C 0.30802 0.71844 0.51928 0.0
C817 C 0.26088 0.70803 0.4618 0.0
C818 C 0.31253 0.69435 0.5202 0.0
C819 C 0.34145 0.68505 0.51486 0.0
C820 C 0.36637 0.69973 0.50879 0.0
C821 C 0.36176 0.72389 0.50939 0.0
C822 C 0.33295 0.7331 0.51458 0.0
H823 H 0.24406 0.71041 0.43903 0.0
H824 H 0.28383 0.71085 0.4501 0.0
H825 H 0.25942 0.68981 0.47155 0.0
H826 H 0.29362 0.68275 0.52452 0.0
H827 H 0.34417 0.66641 0.51486 0.0
H828 H 0.60765 0.24296 0.49393 0.0
H829 H 0.65762 0.22529 0.49314 0.0
H830 H 0.69867 0.29292 0.48738 0.0
H831 H 0.64855 0.31095 0.48773 0.0
H832 H 0.72234 0.26081 0.43593 0.0
H833 H 0.71855 0.22366 0.57924 0.0
H834 H 0.68709 0.2159 0.55009 0.0
H835 H 0.6924 0.24562 0.56355 0.0
C836 C 0.62722 0.2542 0.49269 0.0
C837 C 0.62397 0.27846 0.49114 0.0
C838 C 0.65582 0.244 0.49243 0.0
C839 C 0.68184 0.2578 0.49091 0.0
C840 C 0.67882 0.28198 0.48886 0.0
H841 H 0.87374 0.23672 0.48625 0.0
H842 H 0.82221 0.25126 0.48723 0.0
C843 C 0.65015 0.29225 0.48907 0.0
C844 C 0.71217 0.24691 0.49039 0.0
H845 H 0.76002 0.21265 0.54112 0.0
C846 C 0.73062 0.25034 0.45896 0.0
C847 C 0.72279 0.23309 0.52037 0.0
C848 C 0.70433 0.22946 0.55539 0.0
C849 C 0.75941 0.24025 0.45661 0.0
C850 C 0.77019 0.22669 0.48678 0.0
C851 C 0.75161 0.22298 0.518 0.0
C852 C 0.80138 0.21739 0.48724 0.0
C853 C 0.77797 0.24403 0.42171 0.0
C854 C 0.80679 0.19343 0.48815 0.0
C855 C 0.83647 0.18491 0.48775 0.0
C856 C 0.86116 0.20027 0.48672 0.0
C857 C 0.85542 0.22428 0.48677 0.0
C858 C 0.82591 0.23271 0.48713 0.0
H859 H 0.76364 0.24919 0.39758 0.0
H860 H 0.79451 0.25813 0.42683 0.0
H861 H 0.79072 0.22814 0.41411 0.0
H862 H 0.78807 0.18134 0.48856 0.0
H863 H 0.84002 0.16634 0.48784 0.0
loop_
_geom_bond_atom_site_label_1
_geom_bond_atom_site_label_2
_geom_bond_distance
_geom_bond_site_symmetry_2
_ccdc_geom_bond_type
Mn0 O5 2.095 1_554 S
Mn0 O15 2.162 . S
Mn0 O16 2.297 . S
Mn0 O24 2.385 . S
Mn0 O25 2.209 . S
Mn0 O26 2.094 . S
Mn1 O6 2.121 1_554 S
Mn1 N8 2.257 1_455 S
Mn1 N17 2.282 . S
Mn1 O25 2.215 . S
Mn1 O27 2.117 . S
C2 O24 1.234 . S
C2 O25 1.283 . S
C3 O15 1.281 . S
C3 O16 1.236 . S
C4 O26 1.240 . S
C4 O27 1.264 . S
O5 Mn0 2.095 1_556 S
O5 C14 1.250 . S
O6 Mn1 2.121 1_556 S
O6 C14 1.258 . S
C7 N8 1.326 . S
C7 C11 1.460 . S
C7 H13 0.929 1_554 S
N8 Mn1 2.257 1_655 S
N8 C7 1.326 . S
N8 C12 1.362 . S
C9 C10 1.258 . S
C9 C12 1.431 . S
C9 C29 1.449 . S
C10 C9 1.258 . S
C10 C11 1.477 . S
C10 H30 0.931 . S
C11 C7 1.460 . S
C11 C10 1.477 . S
C11 H31 0.939 . S
C12 N8 1.362 . S
C12 C9 1.431 . S
C12 C22 1.476 1_655 S
H13 C7 0.929 1_556 S
C14 O5 1.250 . S
C14 O6 1.258 . S
O15 Mn0 2.162 . S
O15 C3 1.281 . S
O16 Mn0 2.297 . S
O16 C3 1.236 . S
N17 Mn1 2.282 . S
N17 C18 1.328 . S
N17 C22 1.318 . S
C18 N17 1.328 . S
C18 C19 1.457 . S
C18 H23 0.929 . S
C19 C18 1.457 . S
C19 C20 1.291 . S
C19 H32 0.931 . S
C20 C19 1.291 . S
C20 C21 1.373 . S
C20 H33 0.929 . S
C21 C20 1.373 . S
C21 C22 1.396 . S
C21 C28 1.403 1_455 S
C22 C12 1.476 1_455 S
C22 N17 1.318 . S
C22 C21 1.396 . S
H23 C18 0.929 . S
O24 Mn0 2.385 . S
O24 C2 1.234 . S
O25 Mn0 2.209 . S
O25 Mn1 2.215 . S
O25 C2 1.283 . S
O26 Mn0 2.094 . S
O26 C4 1.240 . S
O27 Mn1 2.117 . S
O27 C4 1.264 . S
C28 C21 1.403 1_655 S
C28 C29 1.399 . S
C28 H34 0.929 . S
C29 C9 1.449 . S
C29 C28 1.399 . S
C29 H35 0.930 . S
H30 C10 0.931 . S
H31 C11 0.939 . S
H32 C19 0.931 . S
H33 C20 0.929 . S
H34 C28 0.929 . S
H35 C29 0.930 . S
Mn36 O41 2.095 1_554 S
Mn36 O51 2.162 . S
Mn36 O52 2.297 . S
Mn36 O60 2.385 . S
Mn36 O61 2.209 . S
Mn36 O62 2.094 . S
Mn37 O42 2.121 1_554 S
Mn37 N44 2.257 1_655 S
Mn37 N53 2.282 . S
Mn37 O61 2.215 . S
Mn37 O63 2.117 . S
C38 O60 1.234 . S
C38 O61 1.283 . S
C39 O51 1.281 . S
C39 O52 1.236 . S
C40 O62 1.240 . S
C40 O63 1.264 . S
O41 Mn36 2.095 1_556 S
O41 C50 1.250 . S
O42 Mn37 2.121 1_556 S
O42 C50 1.258 . S
C43 N44 1.326 . S
C43 C47 1.460 . S
C43 H49 0.929 1_554 S
N44 Mn37 2.257 1_455 S
N44 C43 1.326 . S
N44 C48 1.362 . S
C45 C46 1.258 . S
C45 C48 1.431 . S
C45 C65 1.449 . S
C46 C45 1.258 . S
C46 C47 1.477 . S
C46 H66 0.931 . S
C47 C43 1.460 . S
C47 C46 1.477 . S
C47 H67 0.939 . S
C48 N44 1.362 . S
C48 C45 1.431 . S
C48 C58 1.476 1_455 S
H49 C43 0.929 1_556 S
C50 O41 1.250 . S
C50 O42 1.258 . S
O51 Mn36 2.162 . S
O51 C39 1.281 . S
O52 Mn36 2.297 . S
O52 C39 1.236 . S
N53 Mn37 2.282 . S
N53 C54 1.328 . S
N53 C58 1.318 . S
C54 N53 1.328 . S
C54 C55 1.457 . S
C54 H59 0.929 . S
C55 C54 1.457 . S
C55 C56 1.291 . S
C55 H68 0.931 . S
C56 C55 1.291 . S
C56 C57 1.373 . S
C56 H69 0.929 . S
C57 C56 1.373 . S
C57 C58 1.396 . S
C57 C64 1.403 1_655 S
C58 C48 1.476 1_655 S
C58 N53 1.318 . S
C58 C57 1.396 . S
H59 C54 0.929 . S
O60 Mn36 2.385 . S
O60 C38 1.234 . S
O61 Mn36 2.209 . S
O61 Mn37 2.215 . S
O61 C38 1.283 . S
O62 Mn36 2.094 . S
O62 C40 1.240 . S
O63 Mn37 2.117 . S
O63 C40 1.264 . S
C64 C57 1.403 1_455 S
C64 C65 1.399 . S
C64 H70 0.929 . S
C65 C45 1.449 . S
C65 C64 1.399 . S
C65 H71 0.930 . S
H66 C46 0.931 . S
H67 C47 0.939 . S
H68 C55 0.931 . S
H69 C56 0.929 . S
H70 C64 0.929 . S
H71 C65 0.930 . S
Mn72 O77 2.095 . S
Mn72 O87 2.162 . S
Mn72 O88 2.297 . S
Mn72 O96 2.385 . S
Mn72 O97 2.209 . S
Mn72 O98 2.094 . S
Mn73 O78 2.121 . S
Mn73 N80 2.257 1_455 S
Mn73 N89 2.282 . S
Mn73 O97 2.215 . S
Mn73 O99 2.117 . S
C74 O96 1.234 . S
C74 O97 1.283 . S
C75 O87 1.281 . S
C75 O88 1.236 . S
C76 O98 1.240 . S
C76 O99 1.264 . S
O77 Mn72 2.095 . S
O77 C86 1.250 . S
O78 Mn73 2.121 . S
O78 C86 1.258 . S
C79 N80 1.326 . S
C79 C83 1.460 . S
C79 H85 0.929 . S
N80 Mn73 2.257 1_655 S
N80 C79 1.326 . S
N80 C84 1.362 . S
C81 C82 1.258 . S
C81 C84 1.431 . S
C81 C101 1.449 . S
C82 C81 1.258 . S
C82 C83 1.477 . S
C82 H102 0.931 . S
C83 C79 1.460 . S
C83 C82 1.477 . S
C83 H103 0.930 . S
C84 N80 1.362 . S
C84 C81 1.431 . S
C84 C94 1.476 1_655 S
H85 C79 0.929 . S
C86 O77 1.250 . S
C86 O78 1.258 . S
O87 Mn72 2.162 . S
O87 C75 1.281 . S
O88 Mn72 2.297 . S
O88 C75 1.236 . S
N89 Mn73 2.282 . S
N89 C90 1.328 . S
N89 C94 1.318 . S
C90 N89 1.328 . S
C90 C91 1.457 . S
C90 H95 0.929 . S
C91 C90 1.457 . S
C91 C92 1.291 . S
C91 H104 0.931 . S
C92 C91 1.291 . S
C92 C93 1.373 . S
C92 H105 0.929 . S
C93 C92 1.373 . S
C93 C94 1.396 . S
C93 C100 1.403 1_455 S
C94 C84 1.476 1_455 S
C94 N89 1.318 . S
C94 C93 1.396 . S
H95 C90 0.929 . S
O96 Mn72 2.385 . S
O96 C74 1.234 . S
O97 Mn72 2.209 . S
O97 Mn73 2.215 . S
O97 C74 1.283 . S
O98 Mn72 2.094 . S
O98 C76 1.240 . S
O99 Mn73 2.117 . S
O99 C76 1.264 . S
C100 C93 1.403 1_655 S
C100 C101 1.399 . S
C100 H106 0.929 . S
C101 C81 1.449 . S
C101 C100 1.399 . S
C101 H107 0.930 . S
H102 C82 0.931 . S
H103 C83 0.930 . S
H104 C91 0.931 . S
H105 C92 0.929 . S
H106 C100 0.929 . S
H107 C101 0.930 . S
Mn108 O113 2.095 . S
Mn108 O123 2.162 . S
Mn108 O124 2.297 . S
Mn108 O132 2.385 . S
Mn108 O133 2.209 . S
Mn108 O134 2.094 . S
Mn109 O114 2.121 . S
Mn109 N116 2.257 1_655 S
Mn109 N125 2.282 . S
Mn109 O133 2.215 . S
Mn109 O135 2.117 . S
C110 O132 1.234 . S
C110 O133 1.283 . S
C111 O123 1.281 . S
C111 O124 1.236 . S
C112 O134 1.240 . S
C112 O135 1.264 . S
O113 Mn108 2.095 . S
O113 C122 1.250 . S
O114 Mn109 2.121 . S
O114 C122 1.258 . S
C115 N116 1.326 . S
C115 C119 1.460 . S
C115 H121 0.929 . S
N116 Mn109 2.257 1_455 S
N116 C115 1.326 . S
N116 C120 1.362 . S
C117 C118 1.258 . S
C117 C120 1.431 . S
C117 C137 1.449 . S
C118 C117 1.258 . S
C118 C119 1.477 . S
C118 H138 0.931 . S
C119 C115 1.460 . S
C119 C118 1.477 . S
C119 H139 0.930 . S
C120 N116 1.362 . S
C120 C117 1.431 . S
C120 C130 1.476 1_455 S
H121 C115 0.929 . S
C122 O113 1.250 . S
C122 O114 1.258 . S
O123 Mn108 2.162 . S
O123 C111 1.281 . S
O124 Mn108 2.297 . S
O124 C111 1.236 . S
N125 Mn109 2.282 . S
N125 C126 1.328 . S
N125 C130 1.318 . S
C126 N125 1.328 . S
C126 C127 1.457 . S
C126 H131 0.929 . S
C127 C126 1.457 . S
C127 C128 1.291 . S
C127 H140 0.931 . S
C128 C127 1.291 . S
C128 C129 1.373 . S
C128 H141 0.929 . S
C129 C128 1.373 . S
C129 C130 1.396 . S
C129 C136 1.403 1_655 S
C130 C120 1.476 1_655 S
C130 N125 1.318 . S
C130 C129 1.396 . S
H131 C126 0.929 . S
O132 Mn108 2.385 . S
O132 C110 1.234 . S
O133 Mn108 2.209 . S
O133 Mn109 2.215 . S
O133 C110 1.283 . S
O134 Mn108 2.094 . S
O134 C112 1.240 . S
O135 Mn109 2.117 . S
O135 C112 1.264 . S
C136 C129 1.403 1_455 S
C136 C137 1.399 . S
C136 H142 0.929 . S
C137 C117 1.449 . S
C137 C136 1.399 . S
C137 H143 0.930 . S
H138 C118 0.931 . S
H139 C119 0.930 . S
H140 C127 0.931 . S
H141 C128 0.929 . S
H142 C136 0.929 . S
H143 C137 0.930 . S
Mn144 O149 2.095 1_554 S
Mn144 O159 2.162 . S
Mn144 O160 2.297 . S
Mn144 O168 2.385 . S
Mn144 O169 2.209 . S
Mn144 O170 2.094 . S
Mn145 O150 2.121 1_554 S
Mn145 N152 2.257 . S
Mn145 N161 2.282 . S
Mn145 O169 2.215 . S
Mn145 O171 2.117 . S
C146 O168 1.234 . S
C146 O169 1.283 . S
C147 O159 1.281 . S
C147 O160 1.236 . S
C148 O170 1.240 . S
C148 O171 1.264 . S
O149 Mn144 2.095 1_556 S
O149 C158 1.250 . S
O150 Mn145 2.121 1_556 S
O150 C158 1.258 . S
C151 N152 1.326 . S
C151 C155 1.460 . S
C151 H157 0.929 1_554 S
N152 Mn145 2.257 . S
N152 C151 1.326 . S
N152 C156 1.362 . S
C153 C154 1.258 . S
C153 C156 1.431 . S
C153 C173 1.449 . S
C154 C153 1.258 . S
C154 C155 1.477 . S
C154 H174 0.931 . S
C155 C151 1.460 . S
C155 C154 1.477 . S
C155 H175 0.939 . S
C156 N152 1.362 . S
C156 C153 1.431 . S
C156 C166 1.476 . S
H157 C151 0.929 1_556 S
C158 O149 1.250 . S
C158 O150 1.258 . S
O159 Mn144 2.162 . S
O159 C147 1.281 . S
O160 Mn144 2.297 . S
O160 C147 1.236 . S
N161 Mn145 2.282 . S
N161 C162 1.328 . S
N161 C166 1.318 . S
C162 N161 1.328 . S
C162 C163 1.457 . S
C162 H167 0.929 . S
C163 C162 1.457 . S
C163 C164 1.291 . S
C163 H176 0.931 . S
C164 C163 1.291 . S
C164 C165 1.373 . S
C164 H177 0.929 . S
C165 C164 1.373 . S
C165 C166 1.396 . S
C165 C172 1.403 . S
C166 C156 1.476 . S
C166 N161 1.318 . S
C166 C165 1.396 . S
H167 C162 0.929 . S
O168 Mn144 2.385 . S
O168 C146 1.234 . S
O169 Mn144 2.209 . S
O169 Mn145 2.215 . S
O169 C146 1.283 . S
O170 Mn144 2.094 . S
O170 C148 1.240 . S
O171 Mn145 2.117 . S
O171 C148 1.264 . S
C172 C165 1.403 . S
C172 C173 1.399 . S
C172 H178 0.929 . S
C173 C153 1.449 . S
C173 C172 1.399 . S
C173 H179 0.930 . S
H174 C154 0.931 . S
H175 C155 0.939 . S
H176 C163 0.931 . S
H177 C164 0.929 . S
H178 C172 0.929 . S
H179 C173 0.930 . S
Mn180 O185 2.095 1_554 S
Mn180 O195 2.162 . S
Mn180 O196 2.297 . S
Mn180 O204 2.385 . S
Mn180 O205 2.209 . S
Mn180 O206 2.094 . S
Mn181 O186 2.121 1_554 S
Mn181 N188 2.257 . S
Mn181 N197 2.282 . S
Mn181 O205 2.215 . S
Mn181 O207 2.117 . S
C182 O204 1.234 . S
C182 O205 1.283 . S
C183 O195 1.281 . S
C183 O196 1.236 . S
C184 O206 1.240 . S
C184 O207 1.264 . S
O185 Mn180 2.095 1_556 S
O185 C194 1.250 . S
O186 Mn181 2.121 1_556 S
O186 C194 1.258 . S
C187 N188 1.326 . S
C187 C191 1.460 . S
C187 H193 0.929 1_554 S
N188 Mn181 2.257 . S
N188 C187 1.326 . S
N188 C192 1.362 . S
C189 C190 1.258 . S
C189 C192 1.431 . S
C189 C209 1.449 . S
C190 C189 1.258 . S
C190 C191 1.477 . S
C190 H210 0.931 . S
C191 C187 1.460 . S
C191 C190 1.477 . S
C191 H211 0.939 . S
C192 N188 1.362 . S
C192 C189 1.431 . S
C192 C202 1.476 . S
H193 C187 0.929 1_556 S
C194 O185 1.250 . S
C194 O186 1.258 . S
O195 Mn180 2.162 . S
O195 C183 1.281 . S
O196 Mn180 2.297 . S
O196 C183 1.236 . S
N197 Mn181 2.282 . S
N197 C198 1.328 . S
N197 C202 1.318 . S
C198 N197 1.328 . S
C198 C199 1.457 . S
C198 H203 0.929 . S
C199 C198 1.457 . S
C199 C200 1.291 . S
C199 H212 0.931 . S
C200 C199 1.291 . S
C200 C201 1.373 . S
C200 H213 0.929 . S
C201 C200 1.373 . S
C201 C202 1.396 . S
C201 C208 1.403 . S
C202 C192 1.476 . S
C202 N197 1.318 . S
C202 C201 1.396 . S
H203 C198 0.929 . S
O204 Mn180 2.385 . S
O204 C182 1.234 . S
O205 Mn180 2.209 . S
O205 Mn181 2.215 . S
O205 C182 1.283 . S
O206 Mn180 2.094 . S
O206 C184 1.240 . S
O207 Mn181 2.117 . S
O207 C184 1.264 . S
C208 C201 1.403 . S
C208 C209 1.399 . S
C208 H214 0.929 . S
C209 C189 1.449 . S
C209 C208 1.399 . S
C209 H215 0.930 . S
H210 C190 0.931 . S
H211 C191 0.939 . S
H212 C199 0.931 . S
H213 C200 0.929 . S
H214 C208 0.929 . S
H215 C209 0.930 . S
Mn216 O221 2.095 . S
Mn216 O231 2.162 . S
Mn216 O232 2.297 . S
Mn216 O240 2.385 . S
Mn216 O241 2.209 . S
Mn216 O242 2.094 . S
Mn217 O222 2.121 . S
Mn217 N224 2.257 . S
Mn217 N233 2.282 . S
Mn217 O241 2.215 . S
Mn217 O243 2.117 . S
C218 O240 1.234 . S
C218 O241 1.283 . S
C219 O231 1.281 . S
C219 O232 1.236 . S
C220 O242 1.240 . S
C220 O243 1.264 . S
O221 Mn216 2.095 . S
O221 C230 1.250 . S
O222 Mn217 2.121 . S
O222 C230 1.258 . S
C223 N224 1.326 . S
C223 C227 1.460 . S
C223 H229 0.929 . S
N224 Mn217 2.257 . S
N224 C223 1.326 . S
N224 C228 1.362 . S
C225 C226 1.258 . S
C225 C228 1.431 . S
C225 C245 1.449 . S
C226 C225 1.258 . S
C226 C227 1.477 . S
C226 H246 0.931 . S
C227 C223 1.460 . S
C227 C226 1.477 . S
C227 H247 0.930 . S
C228 N224 1.362 . S
C228 C225 1.431 . S
C228 C238 1.476 . S
H229 C223 0.929 . S
C230 O221 1.250 . S
C230 O222 1.258 . S
O231 Mn216 2.162 . S
O231 C219 1.281 . S
O232 Mn216 2.297 . S
O232 C219 1.236 . S
N233 Mn217 2.282 . S
N233 C234 1.328 . S
N233 C238 1.318 . S
C234 N233 1.328 . S
C234 C235 1.457 . S
C234 H239 0.929 . S
C235 C234 1.457 . S
C235 C236 1.291 . S
C235 H248 0.931 . S
C236 C235 1.291 . S
C236 C237 1.373 . S
C236 H249 0.929 . S
C237 C236 1.373 . S
C237 C238 1.396 . S
C237 C244 1.403 . S
C238 C228 1.476 . S
C238 N233 1.318 . S
C238 C237 1.396 . S
H239 C234 0.929 . S
O240 Mn216 2.385 . S
O240 C218 1.234 . S
O241 Mn216 2.209 . S
O241 Mn217 2.215 . S
O241 C218 1.283 . S
O242 Mn216 2.094 . S
O242 C220 1.240 . S
O243 Mn217 2.117 . S
O243 C220 1.264 . S
C244 C237 1.403 . S
C244 C245 1.399 . S
C244 H250 0.929 . S
C245 C225 1.449 . S
C245 C244 1.399 . S
C245 H251 0.930 . S
H246 C226 0.931 . S
H247 C227 0.930 . S
H248 C235 0.931 . S
H249 C236 0.929 . S
H250 C244 0.929 . S
H251 C245 0.930 . S
Mn252 O257 2.095 . S
Mn252 O267 2.162 . S
Mn252 O268 2.297 . S
Mn252 O276 2.385 . S
Mn252 O277 2.209 . S
Mn252 O278 2.094 . S
Mn253 O258 2.121 . S
Mn253 N260 2.257 . S
Mn253 N269 2.282 . S
Mn253 O277 2.215 . S
Mn253 O279 2.117 . S
C254 O276 1.234 . S
C254 O277 1.283 . S
C255 O267 1.281 . S
C255 O268 1.236 . S
C256 O278 1.240 . S
C256 O279 1.264 . S
O257 Mn252 2.095 . S
O257 C266 1.250 . S
O258 Mn253 2.121 . S
O258 C266 1.258 . S
C259 N260 1.326 . S
C259 C263 1.460 . S
C259 H265 0.929 . S
N260 Mn253 2.257 . S
N260 C259 1.326 . S
N260 C264 1.362 . S
C261 C262 1.258 . S
C261 C264 1.431 . S
C261 C281 1.449 . S
C262 C261 1.258 . S
C262 C263 1.477 . S
C262 H282 0.931 . S
C263 C259 1.460 . S
C263 C262 1.477 . S
C263 H283 0.930 . S
C264 N260 1.362 . S
C264 C261 1.431 . S
C264 C274 1.476 . S
H265 C259 0.929 . S
C266 O257 1.250 . S
C266 O258 1.258 . S
O267 Mn252 2.162 . S
O267 C255 1.281 . S
O268 Mn252 2.297 . S
O268 C255 1.236 . S
N269 Mn253 2.282 . S
N269 C270 1.328 . S
N269 C274 1.318 . S
C270 N269 1.328 . S
C270 C271 1.457 . S
C270 H275 0.929 . S
C271 C270 1.457 . S
C271 C272 1.291 . S
C271 H284 0.931 . S
C272 C271 1.291 . S
C272 C273 1.373 . S
C272 H285 0.929 . S
C273 C272 1.373 . S
C273 C274 1.396 . S
C273 C280 1.403 . S
C274 C264 1.476 . S
C274 N269 1.318 . S
C274 C273 1.396 . S
H275 C270 0.929 . S
O276 Mn252 2.385 . S
O276 C254 1.234 . S
O277 Mn252 2.209 . S
O277 Mn253 2.215 . S
O277 C254 1.283 . S
O278 Mn252 2.094 . S
O278 C256 1.240 . S
O279 Mn253 2.117 . S
O279 C256 1.264 . S
C280 C273 1.403 . S
C280 C281 1.399 . S
C280 H286 0.929 . S
C281 C261 1.449 . S
C281 C280 1.399 . S
C281 H287 0.930 . S
H282 C262 0.931 . S
H283 C263 0.930 . S
H284 C271 0.931 . S
H285 C272 0.929 . S
H286 C280 0.929 . S
H287 C281 0.930 . S
H288 C296 0.935 . S
H289 C298 0.935 . S
H290 C300 0.930 . S
H291 C303 0.929 1_455 S
H292 C306 0.930 . S
H293 C308 0.960 . S
H294 C308 0.960 . S
H295 C308 0.960 . S
C296 H288 0.935 . S
C296 C297 1.372 1_556 S
C296 C298 1.384 . S
C297 C296 1.372 1_554 S
C297 C303 1.390 . S
C298 H289 0.935 . S
C298 C296 1.384 . S
C298 C299 1.368 1_556 S
C299 C298 1.368 1_554 S
C299 C300 1.400 1_655 S
C299 C304 1.490 . S
C300 H290 0.930 . S
C300 C299 1.400 1_455 S
C300 C303 1.386 1_455 S
H301 C317 0.930 . S
H302 C318 0.931 . S
C303 H291 0.929 1_655 S
C303 C297 1.390 . S
C303 C300 1.386 1_655 S
C304 C299 1.490 . S
C304 C306 1.395 . S
C304 C307 1.403 1_654 S
H305 C311 0.930 . S
C306 H292 0.930 . S
C306 C304 1.395 . S
C306 C309 1.403 1_565 S
C307 C304 1.403 1_456 S
C307 C308 1.524 . S
C307 C311 1.400 1_565 S
C308 H293 0.960 . S
C308 H294 0.960 . S
C308 H295 0.960 . S
C308 C307 1.524 . S
C309 C306 1.403 1_545 S
C309 C310 1.392 1_655 S
C309 C313 1.495 . S
C310 C309 1.392 1_455 S
C310 C311 1.385 1_554 S
C310 C312 1.478 . S
C311 H305 0.930 . S
C311 C307 1.400 1_545 S
C311 C310 1.385 1_556 S
C312 C310 1.478 . S
C312 C314 1.381 1_455 S
C312 C318 1.383 . S
C313 C309 1.495 . S
C313 H319 0.959 . S
C313 H320 0.961 . S
C313 H321 0.960 . S
C314 C312 1.381 1_655 S
C314 C315 1.390 1_654 S
C314 H322 0.930 1_554 S
C315 C314 1.390 1_456 S
C315 C316 1.389 1_556 S
C315 H323 0.928 1_455 S
C316 C315 1.389 1_554 S
C316 C317 1.377 . S
C317 H301 0.930 . S
C317 C316 1.377 . S
C317 C318 1.379 . S
C318 H302 0.931 . S
C318 C312 1.383 . S
C318 C317 1.379 . S
H319 C313 0.959 . S
H320 C313 0.961 . S
H321 C313 0.960 . S
H322 C314 0.930 1_556 S
H323 C315 0.928 1_655 S
H324 C332 0.928 1_655 S
H325 C334 0.930 . S
H326 C336 0.930 . S
H327 C339 0.929 . S
H328 C342 0.930 . S
H329 C344 0.960 . S
H330 C344 0.960 . S
H331 C344 0.960 . S
C332 H324 0.928 1_455 S
C332 C333 1.379 . S
C332 C334 1.383 1_455 S
C333 C332 1.379 . S
C333 C339 1.390 . S
C334 H325 0.930 . S
C334 C332 1.383 1_655 S
C334 C335 1.372 1_655 S
C335 C334 1.372 1_455 S
C335 C336 1.400 . S
C335 C340 1.490 . S
C336 H326 0.930 . S
C336 C335 1.400 . S
C336 C339 1.386 . S
H337 C353 0.930 1_455 S
H338 C354 0.931 . S
C339 H327 0.929 . S
C339 C333 1.390 . S
C339 C336 1.386 . S
C340 C335 1.490 . S
C340 C342 1.395 1_455 S
C340 C343 1.403 . S
H341 C347 0.930 . S
C342 H328 0.930 . S
C342 C340 1.395 1_655 S
C342 C345 1.403 1_565 S
C343 C340 1.403 . S
C343 C344 1.524 . S
C343 C347 1.400 1_565 S
C344 H329 0.960 . S
C344 H330 0.960 . S
C344 H331 0.960 . S
C344 C343 1.524 . S
C345 C342 1.403 1_545 S
C345 C346 1.392 . S
C345 C349 1.495 . S
C346 C345 1.392 . S
C346 C347 1.385 1_655 S
C346 C348 1.478 . S
C347 H341 0.930 . S
C347 C343 1.400 1_545 S
C347 C346 1.385 1_455 S
C348 C346 1.478 . S
C348 C350 1.381 . S
C348 C354 1.383 1_655 S
C349 C345 1.495 . S
C349 H355 0.959 . S
C349 H356 0.961 . S
C349 H357 0.960 . S
C350 C348 1.381 . S
C350 C351 1.394 . S
C350 H358 0.930 . S
C351 C350 1.394 . S
C351 C352 1.383 . S
C351 H359 0.929 . S
C352 C351 1.383 . S
C352 C353 1.377 . S
C353 H337 0.930 1_655 S
C353 C352 1.377 . S
C353 C354 1.379 1_655 S
C354 H338 0.931 . S
C354 C348 1.383 1_455 S
C354 C353 1.379 1_455 S
H355 C349 0.959 . S
H356 C349 0.961 . S
H357 C349 0.960 . S
H358 C350 0.930 . S
H359 C351 0.929 . S
H360 C368 0.929 . S
H361 C370 0.930 . S
H362 C372 0.930 . S
H363 C375 0.929 . S
H364 C378 0.930 . S
H365 C380 0.960 . S
H366 C380 0.960 . S
H367 C380 0.960 . S
C368 H360 0.929 . S
C368 C369 1.377 1_556 S
C368 C370 1.384 . S
C369 C368 1.377 1_554 S
C369 C375 1.390 . S
C370 H361 0.930 . S
C370 C368 1.384 . S
C370 C371 1.372 1_556 S
C371 C370 1.372 1_554 S
C371 C372 1.400 . S
C371 C376 1.490 . S
C372 H362 0.930 . S
C372 C371 1.400 . S
C372 C375 1.386 . S
H373 C389 0.930 . S
H374 C390 0.931 . S
C375 H363 0.929 . S
C375 C369 1.390 . S
C375 C372 1.386 . S
C376 C371 1.490 . S
C376 C378 1.395 1_554 S
C376 C379 1.403 . S
H377 C383 0.930 . S
C378 H364 0.930 . S
C378 C376 1.395 1_556 S
C378 C381 1.403 . S
C379 C376 1.403 . S
C379 C380 1.524 . S
C379 C383 1.400 . S
C380 H365 0.960 . S
C380 H366 0.960 . S
C380 H367 0.960 . S
C380 C379 1.524 . S
C381 C378 1.403 . S
C381 C382 1.392 1_556 S
C381 C385 1.495 . S
C382 C381 1.392 1_554 S
C382 C383 1.385 . S
C382 C384 1.478 . S
C383 H377 0.930 . S
C383 C379 1.400 . S
C383 C382 1.385 . S
C384 C382 1.478 . S
C384 C386 1.381 1_554 S
C384 C390 1.383 . S
C385 C381 1.495 . S
C385 H391 0.959 . S
C385 H392 0.961 1_556 S
C385 H393 0.960 . S
C386 C384 1.381 1_556 S
C386 C387 1.394 . S
C386 H394 0.930 . S
C387 C386 1.394 . S
C387 C388 1.383 1_556 S
C387 H395 0.929 . S
C388 C387 1.383 1_554 S
C388 C389 1.377 . S
C389 H373 0.930 . S
C389 C388 1.377 . S
C389 C390 1.379 . S
C390 H374 0.931 . S
C390 C384 1.383 . S
C390 C389 1.379 . S
H391 C385 0.959 . S
H392 C385 0.961 1_554 S
H393 C385 0.960 . S
H394 C386 0.930 . S
H395 C387 0.929 . S
H396 C404 0.929 . S
H397 C406 0.930 . S
H398 C408 0.930 . S
H399 C411 0.929 . S
H400 C414 0.930 . S
H401 C416 0.960 . S
H402 C416 0.960 . S
H403 C416 0.960 . S
C404 H396 0.929 . S
C404 C405 1.377 . S
C404 C406 1.384 . S
C405 C404 1.377 . S
C405 C411 1.390 . S
C406 H397 0.930 . S
C406 C404 1.384 . S
C406 C407 1.372 . S
C407 C406 1.372 . S
C407 C408 1.400 . S
C407 C412 1.490 . S
C408 H398 0.930 . S
C408 C407 1.400 . S
C408 C411 1.386 . S
H409 C425 0.930 . S
H410 C426 0.931 . S
C411 H399 0.929 . S
C411 C405 1.390 . S
C411 C408 1.386 . S
C412 C407 1.490 . S
C412 C414 1.395 . S
C412 C415 1.403 . S
H413 C419 0.930 . S
C414 H400 0.930 . S
C414 C412 1.395 . S
C414 C417 1.403 . S
C415 C412 1.403 . S
C415 C416 1.524 . S
C415 C419 1.400 . S
C416 H401 0.960 . S
C416 H402 0.960 . S
C416 H403 0.960 . S
C416 C415 1.524 . S
C417 C414 1.403 . S
C417 C418 1.392 . S
C417 C421 1.495 . S
C418 C417 1.392 . S
C418 C419 1.385 . S
C418 C420 1.478 . S
C419 H413 0.930 . S
C419 C415 1.400 . S
C419 C418 1.385 . S
C420 C418 1.478 . S
C420 C422 1.381 . S
C420 C426 1.383 . S
C421 C417 1.495 . S
C421 H427 0.959 . S
C421 H428 0.961 . S
C421 H429 0.960 . S
C422 C420 1.381 . S
C422 C423 1.394 . S
C422 H430 0.930 . S
C423 C422 1.394 . S
C423 C424 1.383 . S
C423 H431 0.929 . S
C424 C423 1.383 . S
C424 C425 1.377 . S
C425 H409 0.930 . S
C425 C424 1.377 . S
C425 C426 1.379 . S
C426 H410 0.931 . S
C426 C420 1.383 . S
C426 C425 1.379 . S
H427 C421 0.959 . S
H428 C421 0.961 . S
H429 C421 0.960 . S
H430 C422 0.930 . S
H431 C423 0.929 . S
H432 C440 0.929 . S
H433 C442 0.930 . S
H434 C444 0.930 . S
H435 C447 0.929 . S
H436 C450 0.930 . S
H437 C452 0.960 . S
H438 C452 0.960 . S
H439 C452 0.960 1_455 S
C440 H432 0.929 . S
C440 C441 1.377 1_655 S
C440 C442 1.384 . S
C441 C440 1.377 1_455 S
C441 C447 1.390 . S
C442 H433 0.930 . S
C442 C440 1.384 . S
C442 C443 1.372 1_655 S
C443 C442 1.372 1_455 S
C443 C444 1.400 . S
C443 C448 1.490 . S
C444 H434 0.930 . S
C444 C443 1.400 . S
C444 C447 1.386 . S
H445 C461 0.930 . S
H446 C462 0.931 . S
C447 H435 0.929 . S
C447 C441 1.390 . S
C447 C444 1.386 . S
C448 C443 1.490 . S
C448 C450 1.395 . S
C448 C451 1.403 1_455 S
H449 C455 0.930 . S
C450 H436 0.930 . S
C450 C448 1.395 . S
C450 C453 1.403 . S
C451 C448 1.403 1_655 S
C451 C452 1.524 . S
C451 C455 1.400 . S
C452 H437 0.960 . S
C452 H438 0.960 . S
C452 H439 0.960 1_655 S
C452 C451 1.524 . S
C453 C450 1.403 . S
C453 C454 1.392 1_455 S
C453 C457 1.495 . S
C454 C453 1.392 1_655 S
C454 C455 1.385 . S
C454 C456 1.478 . S
C455 H449 0.930 . S
C455 C451 1.400 . S
C455 C454 1.385 . S
C456 C454 1.478 . S
C456 C458 1.381 . S
C456 C462 1.383 1_655 S
C457 C453 1.495 . S
C457 H463 0.959 . S
C457 H464 0.961 . S
C457 H465 0.960 1_455 S
C458 C456 1.381 . S
C458 C459 1.394 . S
C458 H466 0.930 . S
C459 C458 1.394 . S
C459 C460 1.383 . S
C459 H467 0.929 . S
C460 C459 1.383 . S
C460 C461 1.377 1_655 S
C461 H445 0.930 . S
C461 C460 1.377 1_455 S
C461 C462 1.379 . S
C462 H446 0.931 . S
C462 C456 1.383 1_455 S
C462 C461 1.379 . S
H463 C457 0.959 . S
H464 C457 0.961 . S
H465 C457 0.960 1_655 S
H466 C458 0.930 . S
H467 C459 0.929 . S
H468 C476 0.929 . S
H469 C478 0.930 . S
H470 C480 0.930 . S
H471 C483 0.929 . S
H472 C486 0.930 . S
H473 C488 0.960 . S
H474 C488 0.960 . S
H475 C488 0.960 . S
C476 H468 0.929 . S
C476 C477 1.377 . S
C476 C478 1.384 . S
C477 C476 1.377 . S
C477 C483 1.390 . S
C478 H469 0.930 . S
C478 C476 1.384 . S
C478 C479 1.372 . S
C479 C478 1.372 . S
C479 C480 1.400 . S
C479 C484 1.490 . S
C480 H470 0.930 . S
C480 C479 1.400 . S
C480 C483 1.386 . S
H481 C497 0.930 . S
H482 C498 0.927 1_455 S
C483 H471 0.929 . S
C483 C477 1.390 . S
C483 C480 1.386 . S
C484 C479 1.490 . S
C484 C486 1.395 . S
C484 C487 1.403 1_455 S
H485 C491 0.930 . S
C486 H472 0.930 . S
C486 C484 1.395 . S
C486 C489 1.403 . S
C487 C484 1.403 1_655 S
C487 C488 1.524 . S
C487 C491 1.400 . S
C488 H473 0.960 . S
C488 H474 0.960 . S
C488 H475 0.960 . S
C488 C487 1.524 . S
C489 C486 1.403 . S
C489 C490 1.385 1_455 S
C489 C493 1.495 . S
C490 C489 1.385 1_655 S
C490 C491 1.392 . S
C490 C492 1.479 . S
C491 H485 0.930 . S
C491 C487 1.400 . S
C491 C490 1.392 . S
C492 C490 1.479 . S
C492 C494 1.381 . S
C492 C498 1.384 . S
C493 C489 1.495 . S
C493 H499 0.959 . S
C493 H500 0.961 . S
C493 H501 0.960 . S
C494 C492 1.381 . S
C494 C495 1.394 . S
C494 H502 0.930 . S
C495 C494 1.394 . S
C495 C496 1.383 . S
C495 H503 0.929 . S
C496 C495 1.383 . S
C496 C497 1.377 . S
C497 H481 0.930 . S
C497 C496 1.377 . S
C497 C498 1.382 . S
C498 H482 0.927 1_655 S
C498 C492 1.384 . S
C498 C497 1.382 . S
H499 C493 0.959 . S
H500 C493 0.961 . S
H501 C493 0.960 . S
H502 C494 0.930 . S
H503 C495 0.929 . S
H504 C512 0.929 . S
H505 C514 0.930 . S
H506 C516 0.930 . S
H507 C519 0.929 . S
H508 C522 0.930 . S
H509 C524 0.960 . S
H510 C524 0.960 1_455 S
H511 C524 0.960 . S
C512 H504 0.929 . S
C512 C513 1.377 . S
C512 C514 1.384 . S
C513 C512 1.377 . S
C513 C519 1.390 1_455 S
C514 H505 0.930 . S
C514 C512 1.384 . S
C514 C515 1.372 . S
C515 C514 1.372 . S
C515 C516 1.400 1_455 S
C515 C520 1.490 . S
C516 H506 0.930 . S
C516 C515 1.400 1_655 S
C516 C519 1.386 . S
H517 C533 0.930 . S
H518 C534 0.931 . S
C519 H507 0.929 . S
C519 C513 1.390 1_655 S
C519 C516 1.386 . S
C520 C515 1.490 . S
C520 C522 1.395 . S
C520 C523 1.403 1_455 S
H521 C527 0.930 . S
C522 H508 0.930 . S
C522 C520 1.395 . S
C522 C525 1.403 . S
C523 C520 1.403 1_655 S
C523 C524 1.524 . S
C523 C527 1.400 . S
C524 H509 0.960 . S
C524 H510 0.960 1_655 S
C524 H511 0.960 . S
C524 C523 1.524 . S
C525 C522 1.403 . S
C525 C526 1.392 1_455 S
C525 C529 1.495 . S
C526 C525 1.392 1_655 S
C526 C527 1.385 . S
C526 C528 1.478 . S
C527 H521 0.930 . S
C527 C523 1.400 . S
C527 C526 1.385 . S
C528 C526 1.478 . S
C528 C530 1.381 1_655 S
C528 C534 1.383 . S
C529 C525 1.495 . S
C529 H535 0.959 . S
C529 H536 0.961 1_455 S
C529 H537 0.960 . S
C530 C528 1.381 1_455 S
C530 C531 1.394 . S
C530 H538 0.930 . S
C531 C530 1.394 . S
C531 C532 1.383 1_455 S
C531 H539 0.929 . S
C532 C531 1.383 1_655 S
C532 C533 1.377 . S
C533 H517 0.930 . S
C533 C532 1.377 . S
C533 C534 1.379 . S
C534 H518 0.931 . S
C534 C528 1.383 . S
C534 C533 1.379 . S
H535 C529 0.959 . S
H536 C529 0.961 1_655 S
H537 C529 0.960 . S
H538 C530 0.930 . S
H539 C531 0.929 . S
H540 C548 0.929 . S
H541 C550 0.930 . S
H542 C552 0.930 . S
H543 C555 0.929 . S
H544 C558 0.930 . S
H545 C560 0.960 . S
H546 C560 0.960 . S
H547 C560 0.960 . S
C548 H540 0.929 . S
C548 C549 1.377 . S
C548 C550 1.384 . S
C549 C548 1.377 . S
C549 C555 1.390 . S
C550 H541 0.930 . S
C550 C548 1.384 . S
C550 C551 1.372 . S
C551 C550 1.372 . S
C551 C552 1.400 . S
C551 C556 1.490 . S
C552 H542 0.930 . S
C552 C551 1.400 . S
C552 C555 1.386 . S
H553 C569 0.930 . S
H554 C570 0.931 1_455 S
C555 H543 0.929 . S
C555 C549 1.390 . S
C555 C552 1.386 . S
C556 C551 1.490 . S
C556 C558 1.395 . S
C556 C559 1.403 1_455 S
H557 C563 0.930 . S
C558 H544 0.930 . S
C558 C556 1.395 . S
C558 C561 1.403 . S
C559 C556 1.403 1_655 S
C559 C560 1.524 . S
C559 C563 1.400 . S
C560 H545 0.960 . S
C560 H546 0.960 . S
C560 H547 0.960 . S
C560 C559 1.524 . S
C561 C558 1.403 . S
C561 C562 1.402 . S
C561 C565 1.495 . S
C562 C561 1.402 . S
C562 C563 1.377 1_455 S
C562 C564 1.476 1_455 S
C563 H557 0.930 . S
C563 C559 1.400 . S
C563 C562 1.377 1_655 S
C564 C562 1.476 1_655 S
C564 C566 1.381 . S
C564 C570 1.383 . S
C565 C561 1.495 . S
C565 H571 0.959 . S
C565 H572 0.961 . S
C565 H573 0.960 . S
C566 C564 1.381 . S
C566 C567 1.394 . S
C566 H574 0.930 . S
C567 C566 1.394 . S
C567 C568 1.383 . S
C567 H575 0.929 . S
C568 C567 1.383 . S
C568 C569 1.377 . S
C569 H553 0.930 . S
C569 C568 1.377 . S
C569 C570 1.379 . S
C570 H554 0.931 1_655 S
C570 C564 1.383 . S
C570 C569 1.379 . S
H571 C565 0.959 . S
H572 C565 0.961 . S
H573 C565 0.960 . S
H574 C566 0.930 . S
H575 C567 0.929 . S
H576 C584 0.929 . S
H577 C586 0.930 . S
H578 C588 0.930 . S
H579 C591 0.929 . S
H580 C594 0.930 . S
H581 C596 0.960 . S
H582 C596 0.960 . S
H583 C596 0.960 . S
C584 H576 0.929 . S
C584 C585 1.377 . S
C584 C586 1.384 . S
C585 C584 1.377 . S
C585 C591 1.390 . S
C586 H577 0.930 . S
C586 C584 1.384 . S
C586 C587 1.372 . S
C587 C586 1.372 . S
C587 C588 1.400 . S
C587 C592 1.490 . S
C588 H578 0.930 . S
C588 C587 1.400 . S
C588 C591 1.386 . S
H589 C605 0.930 . S
H590 C606 0.931 . S
C591 H579 0.929 . S
C591 C585 1.390 . S
C591 C588 1.386 . S
C592 C587 1.490 . S
C592 C594 1.395 . S
C592 C595 1.403 . S
H593 C599 0.930 . S
C594 H580 0.930 . S
C594 C592 1.395 . S
C594 C597 1.403 . S
C595 C592 1.403 . S
C595 C596 1.524 . S
C595 C599 1.400 . S
C596 H581 0.960 . S
C596 H582 0.960 . S
C596 H583 0.960 . S
C596 C595 1.524 . S
C597 C594 1.403 . S
C597 C598 1.392 . S
C597 C601 1.495 . S
C598 C597 1.392 . S
C598 C599 1.385 . S
C598 C600 1.478 . S
C599 H593 0.930 . S
C599 C595 1.400 . S
C599 C598 1.385 . S
C600 C598 1.478 . S
C600 C602 1.381 . S
C600 C606 1.383 . S
C601 C597 1.495 . S
C601 H607 0.959 . S
C601 H608 0.961 . S
C601 H609 0.960 . S
C602 C600 1.381 . S
C602 C603 1.394 . S
C602 H610 0.930 . S
C603 C602 1.394 . S
C603 C604 1.383 . S
C603 H611 0.929 . S
C604 C603 1.383 . S
C604 C605 1.377 . S
C605 H589 0.930 . S
C605 C604 1.377 . S
C605 C606 1.379 . S
C606 H590 0.931 . S
C606 C600 1.383 . S
C606 C605 1.379 . S
H607 C601 0.959 . S
H608 C601 0.961 . S
H609 C601 0.960 . S
H610 C602 0.930 . S
H611 C603 0.929 . S
H612 C620 0.929 . S
H613 C622 0.930 . S
H614 C624 0.930 . S
H615 C627 0.929 . S
H616 C630 0.930 . S
H617 C632 0.960 . S
H618 C632 0.960 . S
H619 C632 0.960 . S
C620 H612 0.929 . S
C620 C621 1.377 . S
C620 C622 1.384 . S
C621 C620 1.377 . S
C621 C627 1.390 . S
C622 H613 0.930 . S
C622 C620 1.384 . S
C622 C623 1.372 . S
C623 C622 1.372 . S
C623 C624 1.400 . S
C623 C628 1.490 . S
C624 H614 0.930 . S
C624 C623 1.400 . S
C624 C627 1.386 . S
H625 C641 0.930 . S
H626 C642 0.931 . S
C627 H615 0.929 . S
C627 C621 1.390 . S
C627 C624 1.386 . S
C628 C623 1.490 . S
C628 C630 1.395 . S
C628 C631 1.403 . S
H629 C635 0.930 . S
C630 H616 0.930 . S
C630 C628 1.395 . S
C630 C633 1.403 . S
C631 C628 1.403 . S
C631 C632 1.524 . S
C631 C635 1.400 . S
C632 H617 0.960 . S
C632 H618 0.960 . S
C632 H619 0.960 . S
C632 C631 1.524 . S
C633 C630 1.403 . S
C633 C634 1.392 . S
C633 C637 1.495 . S
C634 C633 1.392 . S
C634 C635 1.385 . S
C634 C636 1.478 . S
C635 H629 0.930 . S
C635 C631 1.400 . S
C635 C634 1.385 . S
C636 C634 1.478 . S
C636 C638 1.381 . S
C636 C642 1.383 . S
C637 C633 1.495 . S
C637 H643 0.959 . S
C637 H644 0.961 . S
C637 H645 0.960 . S
C638 C636 1.381 . S
C638 C639 1.394 . S
C638 H646 0.930 . S
C639 C638 1.394 . S
C639 C640 1.383 . S
C639 H647 0.929 . S
C640 C639 1.383 . S
C640 C641 1.377 . S
C641 H625 0.930 . S
C641 C640 1.377 . S
C641 C642 1.379 . S
C642 H626 0.931 . S
C642 C636 1.383 . S
C642 C641 1.379 . S
H643 C637 0.959 . S
H644 C637 0.961 . S
H645 C637 0.960 . S
H646 C638 0.930 . S
H647 C639 0.929 . S
H648 C656 0.929 . S
H649 C658 0.930 . S
H650 C660 0.930 . S
H651 C663 0.929 . S
H652 C666 0.930 . S
H653 C668 0.960 . S
H654 C668 0.960 . S
H655 C668 0.960 . S
C656 H648 0.929 . S
C656 C657 1.377 . S
C656 C658 1.384 . S
C657 C656 1.377 . S
C657 C663 1.390 . S
C658 H649 0.930 . S
C658 C656 1.384 . S
C658 C659 1.372 . S
C659 C658 1.372 . S
C659 C660 1.400 . S
C659 C664 1.490 . S
C660 H650 0.930 . S
C660 C659 1.400 . S
C660 C663 1.386 . S
H661 C677 0.930 . S
H662 C678 0.931 . S
C663 H651 0.929 . S
C663 C657 1.390 . S
C663 C660 1.386 . S
C664 C659 1.490 . S
C664 C666 1.395 . S
C664 C667 1.403 . S
H665 C671 0.930 . S
C666 H652 0.930 . S
C666 C664 1.395 . S
C666 C669 1.403 . S
C667 C664 1.403 . S
C667 C668 1.524 . S
C667 C671 1.400 . S
C668 H653 0.960 . S
C668 H654 0.960 . S
C668 H655 0.960 . S
C668 C667 1.524 . S
C669 C666 1.403 . S
C669 C670 1.392 . S
C669 C673 1.495 . S
C670 C669 1.392 . S
C670 C671 1.385 . S
C670 C672 1.478 . S
C671 H665 0.930 . S
C671 C667 1.400 . S
C671 C670 1.385 . S
C672 C670 1.478 . S
C672 C674 1.381 . S
C672 C678 1.383 . S
C673 C669 1.495 . S
C673 H679 0.959 . S
C673 H680 0.961 . S
C673 H681 0.960 . S
C674 C672 1.381 . S
C674 C675 1.394 . S
C674 H682 0.930 . S
C675 C674 1.394 . S
C675 C676 1.383 . S
C675 H683 0.929 . S
C676 C675 1.383 . S
C676 C677 1.377 . S
C677 H661 0.930 . S
C677 C676 1.377 . S
C677 C678 1.379 . S
C678 H662 0.931 . S
C678 C672 1.383 . S
C678 C677 1.379 . S
H679 C673 0.959 . S
H680 C673 0.961 . S
H681 C673 0.960 . S
H682 C674 0.930 . S
H683 C675 0.929 . S
H684 C692 0.929 . S
H685 C694 0.930 . S
H686 C696 0.930 . S
H687 C699 0.929 . S
H688 C702 0.930 . S
H689 C704 0.960 . S
H690 C704 0.960 . S
H691 C704 0.960 . S
C692 H684 0.929 . S
C692 C693 1.377 . S
C692 C694 1.384 . S
C693 C692 1.377 . S
C693 C699 1.390 . S
C694 H685 0.930 . S
C694 C692 1.384 . S
C694 C695 1.372 . S
C695 C694 1.372 . S
C695 C696 1.400 . S
C695 C700 1.490 . S
C696 H686 0.930 . S
C696 C695 1.400 . S
C696 C699 1.386 . S
H697 C713 0.930 . S
H698 C714 0.931 . S
C699 H687 0.929 . S
C699 C693 1.390 . S
C699 C696 1.386 . S
C700 C695 1.490 . S
C700 C702 1.395 . S
C700 C703 1.403 . S
H701 C707 0.930 . S
C702 H688 0.930 . S
C702 C700 1.395 . S
C702 C705 1.403 . S
C703 C700 1.403 . S
C703 C704 1.524 . S
C703 C707 1.400 . S
C704 H689 0.960 . S
C704 H690 0.960 . S
C704 H691 0.960 . S
C704 C703 1.524 . S
C705 C702 1.403 . S
C705 C706 1.392 . S
C705 C709 1.495 . S
C706 C705 1.392 . S
C706 C707 1.385 . S
C706 C708 1.478 . S
C707 H701 0.930 . S
C707 C703 1.400 . S
C707 C706 1.385 . S
C708 C706 1.478 . S
C708 C710 1.381 . S
C708 C714 1.383 . S
C709 C705 1.495 . S
C709 H715 0.959 . S
C709 H716 0.961 . S
C709 H717 0.960 . S
C710 C708 1.381 . S
C710 C711 1.394 . S
C710 H718 0.930 . S
C711 C710 1.394 . S
C711 C712 1.383 . S
C711 H719 0.929 . S
C712 C711 1.383 . S
C712 C713 1.377 . S
C713 H697 0.930 . S
C713 C712 1.377 . S
C713 C714 1.379 . S
C714 H698 0.931 . S
C714 C708 1.383 . S
C714 C713 1.379 . S
H715 C709 0.959 . S
H716 C709 0.961 . S
H717 C709 0.960 . S
H718 C710 0.930 . S
H719 C711 0.929 . S
H720 C728 0.929 . S
H721 C730 0.930 . S
H722 C732 0.930 . S
H723 C735 0.929 . S
H724 C738 0.930 . S
H725 C740 0.960 . S
H726 C740 0.960 . S
H727 C740 0.960 1_554 S
C728 H720 0.929 . S
C728 C729 1.377 1_556 S
C728 C730 1.384 . S
C729 C728 1.377 1_554 S
C729 C735 1.390 . S
C730 H721 0.930 . S
C730 C728 1.384 . S
C730 C731 1.372 1_556 S
C731 C730 1.372 1_554 S
C731 C732 1.400 . S
C731 C736 1.490 . S
C732 H722 0.930 . S
C732 C731 1.400 . S
C732 C735 1.386 . S
H733 C749 0.930 . S
H734 C750 0.931 . S
C735 H723 0.929 . S
C735 C729 1.390 . S
C735 C732 1.386 . S
C736 C731 1.490 . S
C736 C738 1.395 . S
C736 C739 1.402 1_554 S
H737 C743 0.930 1_556 S
C738 H724 0.930 . S
C738 C736 1.395 . S
C738 C741 1.403 . S
C739 C736 1.402 1_556 S
C739 C740 1.525 . S
C739 C743 1.400 1_556 S
C740 H725 0.960 . S
C740 H726 0.960 . S
C740 H727 0.960 1_556 S
C740 C739 1.525 . S
C741 C738 1.403 . S
C741 C742 1.392 . S
C741 C745 1.495 . S
C742 C741 1.392 . S
C742 C743 1.385 . S
C742 C744 1.478 . S
C743 H737 0.930 1_554 S
C743 C739 1.400 1_554 S
C743 C742 1.385 . S
C744 C742 1.478 . S
C744 C746 1.381 1_554 S
C744 C750 1.383 . S
C745 C741 1.495 . S
C745 H751 0.959 . S
C745 H752 0.961 . S
C745 H753 0.981 . S
C746 C744 1.381 1_556 S
C746 C747 1.394 . S
C746 H754 0.930 . S
C747 C746 1.394 . S
C747 C748 1.383 1_556 S
C747 H755 0.929 . S
C748 C747 1.383 1_554 S
C748 C749 1.377 . S
C749 H733 0.930 . S
C749 C748 1.377 . S
C749 C750 1.379 . S
C750 H734 0.931 . S
C750 C744 1.383 . S
C750 C749 1.379 . S
H751 C745 0.959 . S
H752 C745 0.961 . S
H753 C745 0.981 . S
H754 C746 0.930 . S
H755 C747 0.929 . S
H756 C764 0.929 . S
H757 C766 0.930 . S
H758 C768 0.930 . S
H759 C771 0.929 . S
H760 C774 0.930 . S
H761 C776 0.960 . S
H762 C776 0.960 . S
H763 C776 0.960 . S
C764 H756 0.929 . S
C764 C765 1.377 1_556 S
C764 C766 1.384 . S
C765 C764 1.377 1_554 S
C765 C771 1.390 . S
C766 H757 0.930 . S
C766 C764 1.384 . S
C766 C767 1.372 1_556 S
C767 C766 1.372 1_554 S
C767 C768 1.400 . S
C767 C772 1.490 . S
C768 H758 0.930 . S
C768 C767 1.400 . S
C768 C771 1.386 . S
H769 C785 0.930 . S
H770 C786 0.931 . S
C771 H759 0.929 . S
C771 C765 1.390 . S
C771 C768 1.386 . S
C772 C767 1.490 . S
C772 C774 1.395 1_554 S
C772 C775 1.403 . S
H773 C779 0.930 . S
C774 H760 0.930 . S
C774 C772 1.395 1_556 S
C774 C777 1.403 . S
C775 C772 1.403 . S
C775 C776 1.524 . S
C775 C779 1.400 . S
C776 H761 0.960 . S
C776 H762 0.960 . S
C776 H763 0.960 . S
C776 C775 1.524 . S
C777 C774 1.403 . S
C777 C778 1.372 1_556 S
C777 C781 1.495 . S
C778 C777 1.372 1_554 S
C778 C779 1.406 . S
C778 C780 1.478 . S
C779 H773 0.930 . S
C779 C775 1.400 . S
C779 C778 1.406 . S
C780 C778 1.478 . S
C780 C782 1.381 1_554 S
C780 C786 1.383 . S
C781 C777 1.495 . S
C781 H787 0.959 . S
C781 H788 0.961 . S
C781 H789 0.960 . S
C782 C780 1.381 1_556 S
C782 C783 1.394 . S
C782 H790 0.930 . S
C783 C782 1.394 . S
C783 C784 1.383 1_556 S
C783 H791 0.929 . S
C784 C783 1.383 1_554 S
C784 C785 1.377 . S
C785 H769 0.930 . S
C785 C784 1.377 . S
C785 C786 1.379 . S
C786 H770 0.931 . S
C786 C780 1.383 . S
C786 C785 1.379 . S
H787 C781 0.959 . S
H788 C781 0.961 . S
H789 C781 0.960 . S
H790 C782 0.930 . S
H791 C783 0.929 . S
H792 C800 0.929 . S
H793 C802 0.930 . S
H794 C804 0.930 . S
H795 C807 0.929 . S
H796 C810 0.930 . S
H797 C812 0.960 . S
H798 C812 0.960 . S
H799 C812 0.960 . S
C800 H792 0.929 . S
C800 C801 1.377 . S
C800 C802 1.384 . S
C801 C800 1.377 . S
C801 C807 1.390 . S
C802 H793 0.930 . S
C802 C800 1.384 . S
C802 C803 1.372 . S
C803 C802 1.372 . S
C803 C804 1.400 . S
C803 C808 1.490 . S
C804 H794 0.930 . S
C804 C803 1.400 . S
C804 C807 1.386 . S
H805 C821 0.930 . S
H806 C822 0.931 . S
C807 H795 0.929 . S
C807 C801 1.390 . S
C807 C804 1.386 . S
C808 C803 1.490 . S
C808 C810 1.395 . S
C808 C811 1.403 . S
H809 C815 0.930 . S
C810 H796 0.930 . S
C810 C808 1.395 . S
C810 C813 1.403 . S
C811 C808 1.403 . S
C811 C812 1.524 . S
C811 C815 1.400 . S
C812 H797 0.960 . S
C812 H798 0.960 . S
C812 H799 0.960 . S
C812 C811 1.524 . S
C813 C810 1.403 . S
C813 C814 1.392 . S
C813 C817 1.495 . S
C814 C813 1.392 . S
C814 C815 1.385 . S
C814 C816 1.478 . S
C815 H809 0.930 . S
C815 C811 1.400 . S
C815 C814 1.385 . S
C816 C814 1.478 . S
C816 C818 1.381 . S
C816 C822 1.383 . S
C817 C813 1.495 . S
C817 H823 0.959 . S
C817 H824 0.961 . S
C817 H825 0.960 . S
C818 C816 1.381 . S
C818 C819 1.394 . S
C818 H826 0.930 . S
C819 C818 1.394 . S
C819 C820 1.383 . S
C819 H827 0.929 . S
C820 C819 1.383 . S
C820 C821 1.377 . S
C821 H805 0.930 . S
C821 C820 1.377 . S
C821 C822 1.379 . S
C822 H806 0.931 . S
C822 C816 1.383 . S
C822 C821 1.379 . S
H823 C817 0.959 . S
H824 C817 0.961 . S
H825 C817 0.960 . S
H826 C818 0.930 . S
H827 C819 0.929 . S
H828 C836 0.929 . S
H829 C838 0.930 . S
H830 C840 0.930 . S
H831 C843 0.929 . S
H832 C846 0.930 . S
H833 C848 0.960 . S
H834 C848 0.960 . S
H835 C848 0.960 . S
C836 H828 0.929 . S
C836 C837 1.377 . S
C836 C838 1.384 . S
C837 C836 1.377 . S
C837 C843 1.390 . S
C838 H829 0.930 . S
C838 C836 1.384 . S
C838 C839 1.372 . S
C839 C838 1.372 . S
C839 C840 1.400 . S
C839 C844 1.490 . S
C840 H830 0.930 . S
C840 C839 1.400 . S
C840 C843 1.386 . S
H841 C857 0.930 . S
H842 C858 0.931 . S
C843 H831 0.929 . S
C843 C837 1.390 . S
C843 C840 1.386 . S
C844 C839 1.490 . S
C844 C846 1.395 . S
C844 C847 1.403 . S
H845 C851 0.930 . S
C846 H832 0.930 . S
C846 C844 1.395 . S
C846 C849 1.403 . S
C847 C844 1.403 . S
C847 C848 1.524 . S
C847 C851 1.400 . S
C848 H833 0.960 . S
C848 H834 0.960 . S
C848 H835 0.960 . S
C848 C847 1.524 . S
C849 C846 1.403 . S
C849 C850 1.392 . S
C849 C853 1.495 . S
C850 C849 1.392 . S
C850 C851 1.385 . S
C850 C852 1.478 . S
C851 H845 0.930 . S
C851 C847 1.400 . S
C851 C850 1.385 . S
C852 C850 1.478 . S
C852 C854 1.381 . S
C852 C858 1.383 . S
C853 C849 1.495 . S
C853 H859 0.959 . S
C853 H860 0.961 . S
C853 H861 0.960 . S
C854 C852 1.381 . S
C854 C855 1.394 . S
C854 H862 0.930 . S
C855 C854 1.394 . S
C855 C856 1.383 . S
C855 H863 0.929 . S
C856 C855 1.383 . S
C856 C857 1.377 . S
C857 H841 0.930 . S
C857 C856 1.377 . S
C857 C858 1.379 . S
C858 H842 0.931 . S
C858 C852 1.383 . S
C858 C857 1.379 . S
H859 C853 0.959 . S
H860 C853 0.961 . S
H861 C853 0.960 . S
H862 C854 0.930 . S
H863 C855 0.929 . S
C297 C39 1.507 . S
C316 C3 1.507 . S
C333 C75 1.508 . S
C352 C111 1.501 . S
C369 C147 1.507 . S
C388 C183 1.502 . S
C405 C219 1.508 . S
C424 C255 1.500 . S
C441 C2 1.044 . S
C460 C110 1.017 . S
C477 C74 1.039 . S
C496 C38 1.048 . S
C513 C86 1.113 . S
C532 C50 1.135 . S
C549 C14 1.120 . S
C568 C122 1.129 . S
C585 C146 1.044 . S
C604 C254 0.994 . S
C621 C218 1.044 . S
C640 C182 0.994 . S
C657 C194 1.123 . S
C676 C230 1.092 . S
C693 C158 1.117 . S
C712 C266 1.140 . S
C729 C184 1.515 . S
C748 C4 1.515 . S
C765 C148 1.515 . S
C784 C40 1.516 . S
C801 C76 1.514 . S
C820 C256 1.515 . S
C837 C220 1.512 . S
C856 C112 1.504 . S
