# Generated by pormake.
# Topology smm, (6)-cn, num edge types: 1
# Building blocks:
#     Node 0, Type 0, BuildingBlock: KUMBUR_clean_sbu_1, # of connection points: 6
#     Node 1, Type 0, BuildingBlock: KUMBUR_clean_sbu_1, # of connection points: 6
#     Node 2, Type 0, BuildingBlock: KUMBUR_clean_sbu_1, # of connection points: 6
#     Node 3, Type 0, BuildingBlock: KUMBUR_clean_sbu_1, # of connection points: 6
#     Node 4, Type 0, BuildingBlock: KUMBUR_clean_sbu_1, # of connection points: 6
#     Node 5, Type 0, BuildingBlock: KUMBUR_clean_sbu_1, # of connection points: 6
#     Node 6, Type 0, BuildingBlock: KUMBUR_clean_sbu_1, # of connection points: 6
#     Node 7, Type 0, BuildingBlock: KUMBUR_clean_sbu_1, # of connection points: 6
#     Node 8, Type 0, BuildingBlock: KUMBUR_clean_sbu_1, # of connection points: 6
#     Edge 9, Type (0, 0), BuildingBlock: UVAHIK_clean_linker_0, # of connection points: 2
#     Edge 10, Type (0, 0), BuildingBlock: UVAHIK_clean_linker_0, # of connection points: 2
#     Edge 11, Type (0, 0), BuildingBlock: UVAHIK_clean_linker_0, # of connection points: 2
#     Edge 12, Type (0, 0), BuildingBlock: UVAHIK_clean_linker_0, # of connection points: 2
#     Edge 13, Type (0, 0), BuildingBlock: UVAHIK_clean_linker_0, # of connection points: 2
#     Edge 14, Type (0, 0), BuildingBlock: UVAHIK_clean_linker_0, # of connection points: 2
#     Edge 15, Type (0, 0), BuildingBlock: UVAHIK_clean_linker_0, # of connection points: 2
#     Edge 16, Type (0, 0), BuildingBlock: UVAHIK_clean_linker_0, # of connection points: 2
#     Edge 17, Type (0, 0), BuildingBlock: UVAHIK_clean_linker_0, # of connection points: 2
#     Edge 18, Type (0, 0), BuildingBlock: UVAHIK_clean_linker_0, # of connection points: 2
#     Edge 19, Type (0, 0), BuildingBlock: UVAHIK_clean_linker_0, # of connection points: 2
#     Edge 20, Type (0, 0), BuildingBlock: UVAHIK_clean_linker_0, # of connection points: 2
#     Edge 21, Type (0, 0), BuildingBlock: UVAHIK_clean_linker_0, # of connection points: 2
#     Edge 22, Type (0, 0), BuildingBlock: UVAHIK_clean_linker_0, # of connection points: 2
#     Edge 23, Type (0, 0), BuildingBlock: UVAHIK_clean_linker_0, # of connection points: 2
#     Edge 24, Type (0, 0), BuildingBlock: UVAHIK_clean_linker_0, # of connection points: 2
#     Edge 25, Type (0, 0), BuildingBlock: UVAHIK_clean_linker_0, # of connection points: 2
#     Edge 26, Type (0, 0), BuildingBlock: UVAHIK_clean_linker_0, # of connection points: 2
#     Edge 27, Type (0, 0), BuildingBlock: UVAHIK_clean_linker_0, # of connection points: 2
#     Edge 28, Type (0, 0), BuildingBlock: UVAHIK_clean_linker_0, # of connection points: 2
#     Edge 29, Type (0, 0), BuildingBlock: UVAHIK_clean_linker_0, # of connection points: 2
#     Edge 30, Type (0, 0), BuildingBlock: UVAHIK_clean_linker_0, # of connection points: 2
#     Edge 31, Type (0, 0), BuildingBlock: UVAHIK_clean_linker_0, # of connection points: 2
#     Edge 32, Type (0, 0), BuildingBlock: UVAHIK_clean_linker_0, # of connection points: 2
#     Edge 33, Type (0, 0), BuildingBlock: UVAHIK_clean_linker_0, # of connection points: 2
#     Edge 34, Type (0, 0), BuildingBlock: UVAHIK_clean_linker_0, # of connection points: 2
#     Edge 35, Type (0, 0), BuildingBlock: UVAHIK_clean_linker_0, # of connection points: 2
# Relax obj value: 0.094
# Max RMSD: 0.212
# Mean RMSD: 0.165
data_MOF--net-smm--node1-KUMBUR_clean_sbu_1--edge1-UVAHIK_clean_linker_0
_symmetry_space_group_name_H-M    P1
_symmetry_Int_Tables_number       1
_symmetry_cell_setting            triclinic
loop_
_symmetry_equiv_pos_as_xyz
'x, y, z'
_cell_length_a     74.173059
_cell_length_b     89.320422
_cell_length_c     19.311326
_cell_angle_alpha  96.170588
_cell_angle_beta   96.445054
_cell_angle_gamma 121.12506
loop_
_atom_site_label
_atom_site_type_symbol
_atom_site_fract_x
_atom_site_fract_y
_atom_site_fract_z
_atom_type_partial_charge
Tb0 Tb 1.02433 0.18005 0.08989 0.0
C1 C 0.12127 0.22681 0.14506 0.0
N2 N 0.10766 0.22777 0.18428 0.0
C3 C 0.12964 0.23013 0.29096 0.0
C4 C 0.13921 0.2267 0.17716 0.0
C5 C 0.1119 0.23001 0.25657 0.0
C6 C 0.14325 0.22832 0.25106 0.0
C7 C 0.1304 0.22437 0.02962 0.0
C8 C 0.11678 0.22556 0.07227 0.0
C9 C 0.14799 0.22374 0.06095 0.0
C10 C 0.15241 0.22495 0.13457 0.0
Tb11 Tb 0.07981 0.22818 0.12372 0.0
N12 N 0.09967 0.22632 0.04396 0.0
C13 C 0.12633 0.22441 0.95718 0.0
C14 C 0.09706 0.22817 0.97486 0.0
C15 C 0.10984 0.22668 0.93001 0.0
H16 H 0.10157 0.23162 0.28761 0.0
H17 H 0.10731 0.22775 0.87493 0.0
H18 H 1.00767 0.16875 0.91312 0.0
H19 H 0.98087 0.17805 0.29752 0.0
H20 H 0.08583 0.23157 0.95444 0.0
H21 H 0.13639 0.2235 0.92254 0.0
H22 H 1.01048 0.17912 0.24603 0.0
H23 H 0.13281 0.23165 0.34818 0.0
H24 H 0.15852 0.22269 0.0289 0.0
H25 H 0.16618 0.22468 0.1581 0.0
H26 H 0.97868 0.16587 0.82595 0.0
H27 H 0.1569 0.22832 0.27782 0.0
H28 H 0.95082 0.17665 0.22023 0.0
N29 N 0.99739 0.17569 0.00304 0.0
C30 C 0.98098 0.17607 0.0263 0.0
C31 C 0.97933 0.16907 0.88221 0.0
C32 C 0.96347 0.17366 0.9784 0.0
C33 C 0.99612 0.1712 0.93194 0.0
C34 C 0.9631 0.17061 0.90552 0.0
N35 N 0.99791 0.17936 0.14206 0.0
C36 C 0.99771 0.17893 0.21247 0.0
C37 C 0.96371 0.17683 0.12484 0.0
C38 C 0.98104 0.17763 0.09824 0.0
C39 C 0.96388 0.17729 0.19766 0.0
C40 C 0.98084 0.17813 0.2415 0.0
H41 H 0.94994 0.16869 0.8669 0.0
H42 H 0.93303 0.17196 0.96873 0.0
H43 H 0.93324 0.17474 0.09716 0.0
O44 O 1.02424 0.16065 0.14365 0.0
O45 O 1.0241 0.2038 0.13516 0.0
O46 O 0.04961 0.22697 0.09 0.0
O47 O 1.00356 0.15298 0.04244 0.0
O48 O 0.04525 0.19029 0.19565 0.0
O49 O 0.06436 0.22133 0.21551 0.0
O50 O 0.10206 0.25334 0.10306 0.0
O51 O 0.07957 0.20392 0.14118 0.0
O52 O 0.0525 0.18343 0.05158 0.0
O53 O 0.09039 0.25112 0.2004 0.0
O54 O 0.05781 0.22 0.02112 0.0
O55 O 0.03989 0.18924 -0.00067 0.0
C56 C 0.032 0.2195 0.11669 0.0
C57 C 0.99197 0.13216 0.11825 0.0
C58 C 0.97578 0.10151 0.13752 0.0
C59 C 0.95827 0.1021 0.15571 0.0
C60 C 0.97424 0.13234 0.13571 0.0
C61 C 0.95759 0.11743 0.15499 0.0
C62 C 0.99273 0.11679 0.11953 0.0
C63 C 0.05473 0.20607 0.23788 0.0
C64 C 1.00931 0.14739 0.09473 0.0
C65 C 0.94655 0.17366 0.00466 0.0
C66 C 0.94664 0.17521 0.07778 0.0
C67 C 0.07037 0.18881 0.09538 0.0
C68 C 0.0984 0.27675 0.15153 0.0
C69 C 0.11057 0.3052 0.1127 0.0
C70 C 0.09286 0.30501 0.13347 0.0
C71 C 0.08088 0.27692 0.17163 0.0
C72 C 0.11317 0.29092 0.12209 0.0
C73 C 0.07816 0.29096 0.16246 0.0
C74 C 0.04646 0.20439 0.97735 0.0
C75 C 0.10156 0.26197 0.1605 0.0
H76 H 0.94477 0.09057 0.16868 0.0
H77 H 0.97303 0.14381 0.1333 0.0
H78 H 0.94391 0.11763 0.16816 0.0
H79 H 1.00649 0.11674 0.10596 0.0
H80 H 0.0905 0.31586 0.12836 0.0
H81 H 0.06927 0.26622 0.1944 0.0
H82 H 0.12651 0.29064 0.10568 0.0
H83 H 0.06463 0.291 0.17821 0.0
Tb84 Tb 0.90645 0.85179 0.04155 0.0
C85 C 0.94938 0.81138 0.94261 0.0
N86 N 0.92866 0.80649 0.92168 0.0
C87 C 0.9303 0.79893 0.80041 0.0
C88 C 0.96168 0.81087 0.89287 0.0
C89 C 0.91868 0.79934 0.85205 0.0
C90 C 0.95201 0.805 0.82076 0.0
C91 C 0.97873 0.81981 0.03928 0.0
C92 C 0.95784 0.81581 0.01457 0.0
C93 C 0.9914 0.82004 0.99001 0.0
C94 C 0.98291 0.81563 0.91691 0.0
Tb95 Tb 0.9117 0.80861 0.01084 0.0
N96 N 0.94526 0.81582 0.06053 0.0
C97 C 0.98603 0.82309 0.11268 0.0
C98 C 0.95175 0.81794 0.13192 0.0
C99 C 0.97237 0.8219 0.15912 0.0
H100 H 0.90164 0.79358 0.83629 0.0
H101 H 0.97768 0.824 0.2158 0.0
H102 H 0.89405 0.85067 0.19948 0.0
H103 H 0.8656 0.8511 0.78829 0.0
H104 H 0.94112 0.81683 0.16775 0.0
H105 H 1.00199 0.82618 0.13388 0.0
H106 H 0.89668 0.85693 0.87329 0.0
H107 H 0.9224 0.79362 0.74512 0.0
H108 H 1.0076 0.82326 0.00784 0.0
H109 H 0.99267 0.81545 0.87949 0.0
H110 H 0.86283 0.84544 0.25225 0.0
H111 H 0.9609 0.80442 0.78079 0.0
H112 H 0.83116 0.84173 0.8265 0.0
N113 N 0.8783 0.84652 0.09408 0.0
C114 C 0.86077 0.84412 0.05165 0.0
C115 C 0.86197 0.84486 0.19563 0.0
C116 C 0.84263 0.84116 0.07913 0.0
C117 C 0.87953 0.84765 0.16568 0.0
C118 C 0.84333 0.8414 0.15204 0.0
N119 N 0.87948 0.84847 0.95734 0.0
C120 C 0.8815 0.85172 0.89008 0.0
C121 C 0.84319 0.84198 0.93434 0.0
C122 C 0.86116 0.84461 0.98048 0.0
C123 C 0.84461 0.84369 0.86372 0.0
C124 C 0.86399 0.8489 0.84188 0.0
H125 H 0.82972 0.83917 0.17528 0.0
H126 H 0.81021 0.83541 0.05281 0.0
H127 H 0.81065 0.83603 0.92584 0.0
O128 O 0.91087 0.8766 0.02955 0.0
O129 O 0.88112 0.82535 0.05587 0.0
O130 O 0.87997 0.80469 0.97143 0.0
O131 O 0.92599 0.87392 0.12461 0.0
O132 O 0.91285 0.84465 0.93857 0.0
O133 O 0.89764 0.81397 0.91714 0.0
O134 O 0.89903 0.78933 0.07556 0.0
O135 O 0.94171 0.83616 0.04768 0.0
O136 O 0.93458 0.85564 0.00019 0.0
O137 O 0.90255 0.78204 0.97182 0.0
O138 O 0.90584 0.81623 0.11299 0.0
O139 O 0.92221 0.84686 0.1317 0.0
C140 C 0.87011 0.81101 0.00565 0.0
C141 C 0.94436 0.90169 0.08843 0.0
C142 C 0.96341 0.9336 0.08697 0.0
C143 C 0.98234 0.93367 0.08452 0.0
C144 C 0.96351 0.90216 0.08723 0.0
C145 C 0.98236 0.91805 0.0849 0.0
C146 C 0.9444 0.91746 0.08869 0.0
C147 C 0.90492 0.82924 0.89522 0.0
C148 C 0.92426 0.88495 0.08979 0.0
C149 C 0.82445 0.83799 0.03301 0.0
C150 C 0.82468 0.83828 0.96066 0.0
C151 C 0.94821 0.85113 0.0231 0.0
C152 C 0.87451 0.75924 0.01773 0.0
C153 C 0.85188 0.72793 0.03183 0.0
C154 C 0.83369 0.72804 0.00285 0.0
C155 C 0.85591 0.75867 0.98897 0.0
C156 C 0.87247 0.74369 0.03854 0.0
C157 C 0.83571 0.74319 0.98148 0.0
C158 C 0.91504 0.83187 0.15536 0.0
C159 C 0.89578 0.77624 0.02831 0.0
H160 H 0.99726 0.9459 0.08391 0.0
H161 H 0.96392 0.89028 0.08867 0.0
H162 H 0.99708 0.91831 0.08407 0.0
H163 H 0.92961 0.91712 0.08978 0.0
H164 H 0.81773 0.71625 0.99621 0.0
H165 H 0.85698 0.77028 0.97266 0.0
H166 H 0.88672 0.744 0.06132 0.0
H167 H 0.82149 0.74297 0.95927 0.0
Tb168 Tb 0.20447 0.03715 0.03653 0.0
C169 C 0.19596 0.96463 0.10216 0.0
N170 N 0.21282 0.98175 0.12362 0.0
C171 C 0.21976 0.97596 0.23885 0.0
C172 C 0.19012 0.95249 0.14872 0.0
C173 C 0.22505 0.98745 0.19037 0.0
C174 C 0.20214 0.95842 0.21809 0.0
C175 C 0.16733 0.94153 0.00773 0.0
C176 C 0.18466 0.95923 0.03283 0.0
C177 C 0.16129 0.92938 0.05404 0.0
C178 C 0.17263 0.93485 0.12442 0.0
Tb179 Tb 0.21969 0.99935 0.04065 0.0
N180 N 0.19053 0.97156 0.99032 0.0
C181 C 0.15666 0.9366 0.93687 0.0
C182 C 0.18087 0.9666 0.9201 0.0
C183 C 0.1636 0.94914 0.89274 0.0
H184 H 0.2392 1.00074 0.20551 0.0
H185 H 0.15574 0.94534 0.83749 0.0
H186 H 0.21422 0.04657 0.87876 0.0
H187 H 0.24384 0.07589 0.30419 0.0
H188 H 0.18639 0.97607 0.88528 0.0
H189 H 0.14325 0.9231 0.91547 0.0
H190 H 0.21482 0.05073 0.21496 0.0
H191 H 0.22941 0.98057 0.2919 0.0
H192 H 0.14793 0.91571 0.03591 0.0
H193 H 0.16784 0.92532 0.15944 0.0
H194 H 0.2416 0.0716 0.83138 0.0
H195 H 0.19815 0.94951 0.25561 0.0
H196 H 0.27426 0.10097 0.26706 0.0
N197 N 0.22927 0.05889 0.98669 0.0
C198 C 0.24513 0.07386 0.03311 0.0
C199 C 0.24287 0.07232 0.88817 0.0
C200 C 0.26101 0.08846 0.00852 0.0
C201 C 0.22754 0.05809 0.91498 0.0
C202 C 0.25975 0.08752 0.9351 0.0
N203 N 0.22991 0.05982 0.12721 0.0
C204 C 0.22861 0.06079 0.1975 0.0
C205 C 0.26222 0.0893 0.15501 0.0
C206 C 0.24569 0.07417 0.10551 0.0
C207 C 0.26186 0.08959 0.22736 0.0
C208 C 0.2448 0.0754 0.24855 0.0
H209 H 0.27165 0.09848 0.91412 0.0
H210 H 0.29015 0.11469 0.03999 0.0
H211 H 0.29119 0.11546 0.16815 0.0
O212 O 0.19075 0.05046 0.083 0.0
O213 O 0.23494 0.04036 0.01185 0.0
O214 O 0.24469 0.02714 0.08926 0.0
O215 O 0.18558 0.04343 0.97043 0.0
O216 O 0.19996 0.0242 0.1293 0.0
O217 O 0.22641 0.01775 0.13885 0.0
O218 O 0.23739 0.99821 0.96405 0.0
O219 O 0.18525 0.98937 0.03598 0.0
O220 O 0.17546 1.01038 0.03077 0.0
O221 O 0.24086 0.99057 0.06335 0.0
O222 O 0.21689 1.0083 0.94058 0.0
O223 O 0.19274 0.01758 0.93771 0.0
C224 C 0.24999 0.04037 0.05531 0.0
C225 C 0.18578 0.06942 0.01694 0.0
C226 C 0.17529 0.09136 0.03492 0.0
C227 C 0.19338 0.10349 0.00965 0.0
C228 C 0.20333 0.0818 0.99019 0.0
C229 C 0.20717 0.09868 0.98707 0.0
C230 C 0.17147 0.07422 0.03846 0.0
C231 C 0.21176 0.01942 0.16512 0.0
C232 C 0.18243 0.05169 0.02277 0.0
C233 C 0.27769 0.10338 0.05779 0.0
C234 C 0.27831 0.10378 0.1308 0.0
C235 C 0.17088 0.99395 0.03206 0.0
C236 C 0.24535 0.97563 0.9642 0.0
C237 C 0.26303 0.9613 0.91433 0.0
C238 C 0.24283 0.94537 0.89167 0.0
C239 C 0.22556 0.95945 0.94091 0.0
C240 C 0.26426 0.97648 0.95144 0.0
C241 C 0.2243 0.94447 0.90509 0.0
C242 C 0.2034 1.01172 0.90615 0.0
C243 C 0.24617 0.99148 0.00144 0.0
H244 H 0.19662 0.11666 0.00609 0.0
H245 H 0.2141 0.07851 0.97103 0.0
H246 H 0.22087 0.10806 0.96661 0.0
H247 H 0.15764 0.06479 0.05833 0.0
H248 H 0.24138 0.93346 0.86411 0.0
H249 H 0.21097 0.95825 0.95026 0.0
H250 H 0.2797 0.98886 0.96919 0.0
H251 H 0.20886 0.93209 0.88765 0.0
Tb252 Tb 0.77497 0.51217 0.15324 0.0
C253 C 0.67959 0.48303 0.11832 0.0
N254 N 0.69578 0.4936 0.08555 0.0
C255 C 0.67435 0.47475 0.97268 0.0
C256 C 0.6607 0.46737 0.07983 0.0
C257 C 0.69277 0.49017 0.01307 0.0
C258 C 0.6584 0.46314 0.00627 0.0
C259 C 0.66601 0.47706 0.22748 0.0
C260 C 0.68206 0.48788 0.19115 0.0
C261 C 0.64731 0.46135 0.18938 0.0
C262 C 0.64466 0.45652 0.11576 0.0
Tb263 Tb 0.72494 0.51839 0.1593 0.0
N264 N 0.70072 0.5028 0.22679 0.0
C265 C 0.66946 0.4822 0.30121 0.0
C266 C 0.70398 0.50806 0.29844 0.0
C267 C 0.6885 0.49781 0.33678 0.0
H268 H 0.70392 0.49943 0.98503 0.0
H269 H 0.69121 0.50202 0.39366 0.0
H270 H 0.79629 0.53176 0.32616 0.0
H271 H 0.80879 0.52664 0.91811 0.0
H272 H 0.7183 0.52039 0.32574 0.0
H273 H 0.65753 0.47423 0.3311 0.0
H274 H 0.78182 0.50878 0.98752 0.0
H275 H 0.67229 0.47201 0.91541 0.0
H276 H 0.63483 0.45281 0.21637 0.0
H277 H 0.6301 0.44439 0.08705 0.0
H278 H 0.82793 0.55947 0.39448 0.0
H279 H 0.64412 0.45125 0.97474 0.0
H280 H 0.84214 0.55499 0.97834 0.0
N281 N 0.80405 0.53737 0.22517 0.0
C282 C 0.82003 0.54789 0.19157 0.0
C283 C 0.82568 0.55657 0.33718 0.0
C284 C 0.83893 0.56367 0.22915 0.0
C285 C 0.80727 0.541 0.29763 0.0
C286 C 0.84142 0.56811 0.30272 0.0
N287 N 0.79919 0.52721 0.08481 0.0
C288 C 0.79602 0.52134 0.01372 0.0
C289 C 0.83358 0.55306 0.08205 0.0
C290 C 0.81758 0.54255 0.11911 0.0
C291 C 0.83025 0.54728 0.00881 0.0
C292 C 0.81141 0.53132 0.97457 0.0
H293 H 0.85574 0.58009 0.33363 0.0
H294 H 0.86947 0.58648 0.22042 0.0
H295 H 0.86467 0.57728 0.09152 0.0
O296 O 0.78605 0.49672 0.107 0.0
O297 O 0.77904 0.53759 0.12962 0.0
O298 O 0.75764 0.54192 0.19519 0.0
O299 O 0.78627 0.50004 0.2184 0.0
O300 O 0.7509 0.50214 0.05539 0.0
O301 O 0.7378 0.52071 0.06071 0.0
O302 O 0.7137 0.5334 0.20956 0.0
O303 O 0.72113 0.49323 0.18184 0.0
O304 O 0.74219 0.48837 0.11553 0.0
O305 O 0.71274 0.53014 0.09554 0.0
O306 O 0.74926 0.52873 0.25668 0.0
O307 O 0.76187 0.50986 0.25124 0.0
C308 C 0.77293 0.54797 0.15801 0.0
C309 C 0.81247 0.49515 0.18064 0.0
C310 C 0.83399 0.48164 0.1912 0.0
C311 C 0.8527 0.4987 0.20121 0.0
C312 C 0.83143 0.51199 0.19165 0.0
C313 C 0.85139 0.51374 0.20182 0.0
C314 C 0.81381 0.47995 0.18134 0.0
C315 C 0.74439 0.51154 0.02538 0.0
C316 C 0.79129 0.49322 0.16674 0.0
C317 C 0.85489 0.57426 0.19244 0.0
C318 C 0.85221 0.56899 0.11906 0.0
C319 C 0.72576 0.48241 0.14818 0.0
C320 C 0.69863 0.54754 0.14325 0.0
C321 C 0.68911 0.568 0.19709 0.0
C322 C 0.67899 0.56706 0.1291 0.0
C323 C 0.68866 0.54706 0.07613 0.0
C324 C 0.69883 0.55804 0.20366 0.0
C325 C 0.67887 0.55673 0.06929 0.0
C326 C 0.75579 0.51939 0.28692 0.0
C327 C 0.70839 0.53681 0.14971 0.0
H328 H 0.86841 0.50043 0.20942 0.0
H329 H 0.83087 0.52379 0.19222 0.0
H330 H 0.86592 0.52682 0.21007 0.0
H331 H 0.79923 0.46686 0.17283 0.0
H332 H 0.67088 0.57413 0.12202 0.0
H333 H 0.6882 0.53904 0.02891 0.0
H334 H 0.70682 0.55866 0.2554 0.0
H335 H 0.67101 0.55612 0.01739 0.0
Tb336 Tb 0.52146 0.21403 0.14213 0.0
C337 C 0.56464 0.17339 0.09004 0.0
N338 N 0.54599 0.16992 0.05112 0.0
C339 C 0.55821 0.16748 0.94329 0.0
C340 C 0.58129 0.17483 0.05686 0.0
C341 C 0.54223 0.16637 0.9787 0.0
C342 C 0.5779 0.17188 0.98253 0.0
C343 C 0.58662 0.18039 0.20574 0.0
C344 C 0.56719 0.17615 0.16355 0.0
C345 C 0.60348 0.18223 0.17306 0.0
C346 C 0.60079 0.17939 0.09881 0.0
Tb347 Tb 0.5209 0.16797 0.11351 0.0
N348 N 0.55057 0.17445 0.19342 0.0
C349 C 0.58839 0.18235 0.27944 0.0
C350 C 0.55167 0.17483 0.26482 0.0
C351 C 0.57071 0.17924 0.30892 0.0
H352 H 0.52691 0.16265 0.9483 0.0
H353 H 0.57157 0.17988 0.36559 0.0
H354 H 0.53352 0.2296 0.3165 0.0
H355 H 0.46024 0.2073 0.93928 0.0
H356 H 0.53785 0.17117 0.28842 0.0
H357 H 0.60305 0.18564 0.31375 0.0
H358 H 0.49393 0.20916 0.98595 0.0
H359 H 0.55532 0.16491 0.88582 0.0
H360 H 0.61857 0.18564 0.20471 0.0
H361 H 0.61389 0.18076 0.07439 0.0
H362 H 0.51507 0.23354 0.40879 0.0
H363 H 0.59031 0.17287 0.95497 0.0
H364 H 0.43823 0.20958 0.02222 0.0
N365 N 0.50668 0.21932 0.23215 0.0
C366 C 0.48731 0.21735 0.2119 0.0
C367 C 0.5069 0.22867 0.3537 0.0
C368 C 0.47656 0.22033 0.26218 0.0
C369 C 0.5171 0.22595 0.30149 0.0
C370 C 0.48636 0.22555 0.3341 0.0
N371 N 0.49031 0.21147 0.09357 0.0
C372 C 0.48424 0.20987 0.02233 0.0
C373 C 0.45988 0.21289 0.1161 0.0
C374 C 0.47905 0.21367 0.14007 0.0
C375 C 0.45289 0.21026 0.04286 0.0
C376 C 0.46525 0.20893 0.99585 0.0
H377 H 0.47864 0.22796 0.37447 0.0
H378 H 0.44831 0.22085 0.27669 0.0
H379 H 0.4337 0.21434 0.14861 0.0
O380 O 0.53943 0.23293 0.08107 0.0
O381 O 0.48921 0.18832 0.10437 0.0
O382 O 0.49277 0.16644 0.14634 0.0
O383 O 0.53394 0.24141 0.17928 0.0
O384 O 0.52295 0.20362 0.03652 0.0
O385 O 0.5062 0.17265 0.01955 0.0
O386 O 0.51831 0.1449 0.14116 0.0
O387 O 0.54655 0.19308 0.09069 0.0
O388 O 0.55058 0.21395 0.17999 0.0
O389 O 0.49973 0.14326 0.04394 0.0
O390 O 0.51401 0.17569 0.2141 0.0
O391 O 0.53284 0.20652 0.23462 0.0
C392 C 0.48073 0.17214 0.12005 0.0
C393 C 0.56658 0.26181 0.1458 0.0
C394 C 0.59531 0.29273 0.14552 0.0
C395 C 0.61038 0.28921 0.17714 0.0
C396 C 0.58212 0.2591 0.17938 0.0
C397 C 0.60382 0.27261 0.19433 0.0
C398 C 0.57321 0.27889 0.12985 0.0
C399 C 0.51294 0.18763 0.99547 0.0
C400 C 0.54371 0.24667 0.12691 0.0
C401 C 0.45689 0.21874 0.23884 0.0
C402 C 0.44859 0.21507 0.16591 0.0
C403 C 0.55903 0.20781 0.13793 0.0
C404 C 0.48454 0.11798 0.10063 0.0
C405 C 0.47027 0.09234 0.16034 0.0
C406 C 0.44963 0.08578 0.12133 0.0
C407 C 0.4637 0.11107 0.06234 0.0
C408 C 0.48766 0.10854 0.14995 0.0
C409 C 0.44639 0.09515 0.07312 0.0
C410 C 0.52223 0.19129 0.25627 0.0
C411 C 0.50327 0.1343 0.08657 0.0
H412 H 0.62735 0.2995 0.18982 0.0
H413 H 0.57746 0.2465 0.19421 0.0
H414 H 0.61562 0.2702 0.21966 0.0
H415 H 0.56139 0.2813 0.10473 0.0
H416 H 0.43593 0.07345 0.12866 0.0
H417 H 0.46073 0.11789 0.02381 0.0
H418 H 0.5037 0.11355 0.179 0.0
H419 H 0.4304 0.08998 0.04357 0.0
Tb420 Tb 0.88081 0.31422 0.22072 0.0
C421 C 0.94256 0.39339 0.25928 0.0
N422 N 0.94334 0.38073 0.21631 0.0
C423 C 0.94748 0.39652 0.12065 0.0
C424 C 0.94325 0.40779 0.23338 0.0
C425 C 0.94645 0.38233 0.14851 0.0
C426 C 0.94568 0.40922 0.16303 0.0
C427 C 0.93885 0.40405 0.3743 0.0
C428 C 0.94029 0.39143 0.32871 0.0
C429 C 0.93898 0.4182 0.3483 0.0
C430 C 0.94123 0.4201 0.27808 0.0
Tb431 Tb 0.94207 0.3585 0.26727 0.0
N432 N 0.94001 0.37743 0.35185 0.0
C433 C 0.93785 0.4023 0.44508 0.0
C434 C 0.94122 0.3768 0.42251 0.0
C435 C 0.93949 0.38882 0.46959 0.0
H436 H 0.94804 0.37263 0.11589 0.0
H437 H 0.93992 0.38795 0.52516 0.0
H438 H 0.86675 0.30717 0.37759 0.0
H439 H 0.87572 0.2688 0.00038 0.0
H440 H 0.94437 0.36756 0.44389 0.0
H441 H 0.93671 0.41169 0.48183 0.0
H442 H 0.87838 0.29611 0.05905 0.0
H443 H 0.94963 0.39765 0.06653 0.0
H444 H 0.93768 0.42792 0.3824 0.0
H445 H 0.94148 0.43116 0.25898 0.0
H446 H 0.86202 0.28588 0.45615 0.0
H447 H 0.94628 0.4201 0.14108 0.0
H448 H 0.87281 0.24625 0.0704 0.0
N449 N 0.87422 0.29459 0.29599 0.0
C450 C 0.87354 0.27953 0.26979 0.0
C451 C 0.86565 0.28409 0.40431 0.0
C452 C 0.86993 0.26653 0.31117 0.0
C453 C 0.86893 0.29642 0.36049 0.0
C454 C 0.86656 0.26923 0.38006 0.0
N455 N 0.87795 0.28934 0.16137 0.0
C456 C 0.87728 0.28638 0.08991 0.0
C457 C 0.87338 0.26086 0.16857 0.0
C458 C 0.87507 0.27664 0.19959 0.0
C459 C 0.87405 0.25821 0.09632 0.0
C460 C 0.87571 0.27093 0.05662 0.0
H461 H 0.86374 0.25957 0.41369 0.0
H462 H 0.86648 0.24093 0.31271 0.0
H463 H 0.86961 0.23601 0.18777 0.0
O464 O 0.85736 0.3116 0.1393 0.0
O465 O 0.9076 0.31067 0.20416 0.0
O466 O 0.93914 0.33326 0.28063 0.0
O467 O 0.84795 0.29868 0.22708 0.0
O468 O 0.89407 0.32773 0.13335 0.0
O469 O 0.93174 0.34268 0.15922 0.0
O470 O 0.97235 0.37732 0.33179 0.0
O471 O 0.91375 0.35816 0.21637 0.0
O472 O 0.88678 0.3401 0.27037 0.0
O473 O 0.97 0.36534 0.22642 0.0
O474 O 0.93122 0.34244 0.34951 0.0
O475 O 0.89473 0.33089 0.32776 0.0
C476 C 0.92729 0.31729 0.23945 0.0
C477 C 0.82628 0.30854 0.1761 0.0
C478 C 0.78987 0.30255 0.17523 0.0
C479 C 0.79867 0.32107 0.1865 0.0
C480 C 0.83416 0.3268 0.18486 0.0
C481 C 0.82055 0.33302 0.19089 0.0
C482 C 0.80398 0.29634 0.17142 0.0
C483 C 0.91301 0.33432 0.11432 0.0
C484 C 0.84137 0.30241 0.17023 0.0
C485 C 0.86904 0.25102 0.28157 0.0
C486 C 0.87076 0.24818 0.21036 0.0
C487 C 0.89704 0.35468 0.24454 0.0
C488 C 1.001 0.37412 0.31201 0.0
C489 C 0.03908 0.38766 0.3632 0.0
C490 C 0.03543 0.3705 0.36019 0.0
C491 C 0.99771 0.35717 0.31132 0.0
C492 C 1.02169 0.3894 0.3392 0.0
C493 C 1.01487 0.35539 0.33494 0.0
C494 C 0.9125 0.33475 0.36934 0.0
C495 C 0.98298 0.37601 0.28512 0.0
H496 H 0.78857 0.3264 0.19162 0.0
H497 H 0.85089 0.33625 0.18617 0.0
H498 H 0.82694 0.34718 0.19825 0.0
H499 H 0.79762 0.28217 0.16297 0.0
H500 H 0.0485 0.36879 0.37845 0.0
H501 H 0.98189 0.34532 0.29259 0.0
H502 H 1.02432 0.40256 0.34068 0.0
H503 H 1.01221 0.34224 0.33373 0.0
Tb504 Tb 0.40467 0.87272 0.71616 0.0
C505 C 0.50221 0.92394 0.82386 0.0
N506 N 0.48572 0.92454 0.84552 0.0
C507 C 0.5027 0.93044 0.96733 0.0
C508 C 0.5192 0.92592 0.87313 0.0
C509 C 0.48644 0.92875 0.91646 0.0
C510 C 0.51898 0.92874 0.94559 0.0
C511 C 0.52002 0.92267 0.72735 0.0
C512 C 0.50267 0.92231 0.75207 0.0
C513 C 0.53661 0.92403 0.77596 0.0
C514 C 0.53616 0.92559 0.84868 0.0
Tb515 Tb 0.45992 0.92104 0.7559 0.0
N516 N 0.486 0.92042 0.70631 0.0
C517 C 0.52016 0.92172 0.65455 0.0
C518 C 0.48653 0.92038 0.63585 0.0
C519 C 0.50344 0.92075 0.60873 0.0
H520 H 0.47494 0.93136 0.93464 0.0
H521 H 0.50364 0.9204 0.55263 0.0
H522 H 0.38309 0.87447 0.56137 0.0
H523 H 0.3718 0.85507 0.95222 0.0
H524 H 0.4739 0.92005 0.60069 0.0
H525 H 0.53322 0.92196 0.63339 0.0
H526 H 0.3961 0.85865 0.86934 0.0
H527 H 0.5029 0.93344 0.02334 0.0
H528 H 0.54999 0.92413 0.75799 0.0
H529 H 0.54927 0.92696 0.88574 0.0
H530 H 0.35099 0.87453 0.50981 0.0
H531 H 0.53171 0.93031 0.98517 0.0
H532 H 0.34167 0.85923 0.91901 0.0
N533 N 0.37564 0.87299 0.66449 0.0
C534 C 0.36107 0.87092 0.70521 0.0
C535 C 0.35372 0.87365 0.56505 0.0
C536 C 0.34263 0.87096 0.67855 0.0
C537 C 0.37187 0.87364 0.59428 0.0
C538 C 0.33917 0.87254 0.60763 0.0
N539 N 0.38169 0.86698 0.79387 0.0
C540 C 0.3838 0.86148 0.85594 0.0
C541 C 0.34957 0.86552 0.81709 0.0
C542 C 0.36448 0.86819 0.77301 0.0
C543 C 0.35272 0.86136 0.88341 0.0
C544 C 0.36972 0.85904 0.90239 0.0
H545 H 0.32517 0.87259 0.58496 0.0
H546 H 0.31401 0.86933 0.70406 0.0
H547 H 0.32013 0.8646 0.82573 0.0
O548 O 0.38756 0.84519 0.71876 0.0
O549 O 0.4042 0.89694 0.70646 0.0
O550 O 0.43209 0.91981 0.79112 0.0
O551 O 0.39705 0.85448 0.62337 0.0
O552 O 0.42475 0.88195 0.82342 0.0
O553 O 0.44375 0.91291 0.84624 0.0
O554 O 0.46326 0.94098 0.69758 0.0
O555 O 0.46003 0.89669 0.71591 0.0
O556 O 0.43435 0.87522 0.76531 0.0
O557 O 0.48246 0.94784 0.80308 0.0
O558 O 0.43872 0.91213 0.65238 0.0
O559 O 0.42274 0.88167 0.63161 0.0
C560 C 0.41201 0.91113 0.75649 0.0
C561 C 0.40081 0.83095 0.64887 0.0
C562 C 0.40482 0.80661 0.67634 0.0
C563 C 0.42184 0.8124 0.63925 0.0
C564 C 0.41798 0.83649 0.61245 0.0
C565 C 0.42837 0.82726 0.60783 0.0
C566 C 0.39434 0.81599 0.68073 0.0
C567 C 0.43422 0.89747 0.86731 0.0
C568 C 0.39018 0.84106 0.65561 0.0
C569 C 0.32816 0.8691 0.72312 0.0
C570 C 0.33167 0.86645 0.79243 0.0
C571 C 0.45207 0.88167 0.74006 0.0
C572 C 0.48949 0.97287 0.74634 0.0
C573 C 0.49467 0.99782 0.68974 0.0
C574 C 0.51234 1.00953 0.74516 0.0
C575 C 0.50703 0.98502 0.80108 0.0
C576 C 0.48336 0.97933 0.69038 0.0
C577 C 0.51835 1.00318 0.80025 0.0
C578 C 0.42983 0.89672 0.60899 0.0
C579 C 0.47822 0.9536 0.74843 0.0
H580 H 0.42999 0.80532 0.63359 0.0
H581 H 0.4236 0.84807 0.5879 0.0
H582 H 0.44157 0.83165 0.57982 0.0
H583 H 0.3814 0.81189 0.70988 0.0
H584 H 0.5218 0.02371 0.74565 0.0
H585 H 0.51219 0.9805 0.84449 0.0
H586 H 0.46974 0.97007 0.64823 0.0
H587 H 0.53197 1.01239 0.8424 0.0
Tb588 Tb 0.29167 0.55926 0.74891 0.0
C589 C 0.34951 0.52895 0.70358 0.0
N590 N 0.32992 0.52394 0.66645 0.0
C591 C 0.34175 0.52192 0.5569 0.0
C592 C 0.36621 0.53119 0.66872 0.0
C593 C 0.32557 0.51954 0.59387 0.0
C594 C 0.36225 0.52801 0.59445 0.0
C595 C 0.37208 0.53513 0.81734 0.0
C596 C 0.35247 0.53093 0.77683 0.0
C597 C 0.38897 0.53788 0.78305 0.0
C598 C 0.38607 0.53597 0.70892 0.0
Tb599 Tb 0.30508 0.52074 0.73425 0.0
N600 N 0.33599 0.52867 0.80842 0.0
C601 C 0.37404 0.53638 0.89104 0.0
C602 C 0.33742 0.52902 0.87974 0.0
C603 C 0.35656 0.53316 0.92226 0.0
H604 H 0.30953 0.51362 0.56387 0.0
H605 H 0.35776 0.53371 0.97896 0.0
H606 H 0.26746 0.55029 0.88512 0.0
H607 H 0.26725 0.56807 0.48916 0.0
H608 H 0.32379 0.52606 0.90379 0.0
H609 H 0.38884 0.53958 0.9241 0.0
H610 H 0.29324 0.572 0.59168 0.0
H611 H 0.33825 0.51867 0.49942 0.0
H612 H 0.40425 0.54128 0.81327 0.0
H613 H 0.39912 0.53784 0.68306 0.0
H614 H 0.23121 0.54026 0.90949 0.0
H615 H 0.37466 0.52959 0.56563 0.0
H616 H 0.22883 0.55392 0.49563 0.0
N617 N 0.25863 0.54952 0.77562 0.0
C618 C 0.24326 0.54737 0.72308 0.0
C619 C 0.23434 0.54206 0.85664 0.0
C620 C 0.22238 0.54162 0.73418 0.0
C621 C 0.25479 0.54767 0.84273 0.0
C622 C 0.21797 0.53881 0.8019 0.0
N623 N 0.26953 0.55809 0.65256 0.0
C624 C 0.2764 0.56485 0.59385 0.0
C625 C 0.23346 0.5496 0.60265 0.0
C626 C 0.24879 0.55138 0.65867 0.0
C627 C 0.24009 0.55509 0.54002 0.0
C628 C 0.26175 0.56304 0.53611 0.0
H629 H 0.20214 0.53442 0.81272 0.0
H630 H 0.19053 0.53443 0.68477 0.0
H631 H 0.20022 0.54137 0.56929 0.0
O632 O 0.29899 0.58528 0.74305 0.0
O633 O 0.26653 0.53119 0.74642 0.0
O634 O 0.27427 0.51416 0.67347 0.0
O635 O 0.30217 0.57779 0.84345 0.0
O636 O 0.30429 0.55551 0.65498 0.0
O637 O 0.29428 0.52583 0.63356 0.0
O638 O 0.28807 0.49858 0.78409 0.0
O639 O 0.33134 0.5486 0.78433 0.0
O640 O 0.32311 0.56621 0.72667 0.0
O641 O 0.30241 0.49676 0.69367 0.0
O642 O 0.29185 0.52469 0.82509 0.0
O643 O 0.30543 0.55477 0.84407 0.0
C644 C 0.26036 0.51758 0.69537 0.0
C645 C 0.3281 0.60692 0.83417 0.0
C646 C 0.35238 0.63919 0.84932 0.0
C647 C 0.36917 0.63771 0.88237 0.0
C648 C 0.34516 0.60579 0.86679 0.0
C649 C 0.36557 0.6211 0.89042 0.0
C650 C 0.33183 0.62358 0.82497 0.0
C651 C 0.29933 0.54083 0.61201 0.0
C652 C 0.30629 0.59089 0.81108 0.0
C653 C 0.20677 0.53909 0.67773 0.0
C654 C 0.21228 0.543 0.61194 0.0
C655 C 0.33724 0.56354 0.76098 0.0
C656 C 0.28428 0.46987 0.74251 0.0
C657 C 0.26398 0.44262 0.78929 0.0
C658 C 0.27233 0.43467 0.74777 0.0
C659 C 0.29225 0.46151 0.70129 0.0
C660 C 0.26991 0.46028 0.78617 0.0
C661 C 0.28628 0.44404 0.70394 0.0
C662 C 0.29796 0.53976 0.86695 0.0
C663 C 0.29167 0.48868 0.74057 0.0
H664 H 0.38507 0.64939 0.90304 0.0
H665 H 0.34274 0.59308 0.87445 0.0
H666 H 0.37861 0.62012 0.91567 0.0
H667 H 0.3187 0.62429 0.79841 0.0
H668 H 0.26786 0.42108 0.74865 0.0
H669 H 0.30332 0.46853 0.66736 0.0
H670 H 0.26364 0.46655 0.81833 0.0
H671 H 0.29255 0.43775 0.67205 0.0
Tb672 Tb 0.59875 0.74178 0.83756 0.0
C673 C 0.55666 0.6621 0.83225 0.0
N674 N 0.57573 0.67588 0.87152 0.0
C675 C 0.56649 0.66336 0.97578 0.0
C676 C 0.54139 0.64877 0.86381 0.0
C677 C 0.5813 0.67599 0.94164 0.0
C678 C 0.54629 0.64985 0.93695 0.0
C679 C 0.53407 0.64617 0.71584 0.0
C680 C 0.55293 0.66084 0.75941 0.0
C681 C 0.51854 0.63312 0.74718 0.0
C682 C 0.52211 0.63449 0.82108 0.0
Tb683 Tb 0.59812 0.69588 0.80875 0.0
N684 N 0.56795 0.674 0.73116 0.0
C685 C 0.53143 0.64512 0.64216 0.0
C686 C 0.56601 0.67265 0.65924 0.0
C687 C 0.54758 0.65834 0.61372 0.0
H688 H 0.59733 0.68543 0.97137 0.0
H689 H 0.54589 0.65746 0.55678 0.0
H690 H 0.62186 0.75793 0.7031 0.0
H691 H 0.61743 0.77141 0.11598 0.0
H692 H 0.57867 0.68267 0.63722 0.0
H693 H 0.51715 0.63407 0.60682 0.0
H694 H 0.59404 0.75009 0.00554 0.0
H695 H 0.57087 0.6638 0.03169 0.0
H696 H 0.50381 0.62185 0.71472 0.0
H697 H 0.51012 0.6242 0.84445 0.0
H698 H 0.65528 0.78439 0.68689 0.0
H699 H 0.53498 0.63991 0.96331 0.0
H700 H 0.65394 0.79642 0.11359 0.0
N701 N 0.62931 0.76533 0.81583 0.0
C702 C 0.64308 0.77795 0.87371 0.0
C703 C 0.6521 0.78268 0.73974 0.0
C704 C 0.66245 0.79314 0.8671 0.0
C705 C 0.63317 0.76772 0.74905 0.0
C706 C 0.66693 0.79534 0.79906 0.0
N707 N 0.61795 0.76144 0.94272 0.0
C708 C 0.61033 0.76029 0.00444 0.0
C709 C 0.651 0.78872 0.00069 0.0
C710 C 0.6374 0.77573 0.9395 0.0
C711 C 0.64397 0.78675 0.06531 0.0
C712 C 0.62339 0.77262 0.06692 0.0
H713 H 0.68161 0.80687 0.79169 0.0
H714 H 0.69152 0.81746 0.92443 0.0
H715 H 0.68151 0.81358 0.04148 0.0
O716 O 0.59038 0.7609 0.86216 0.0
O717 O 0.62913 0.74281 0.82589 0.0
O718 O 0.62726 0.7195 0.87334 0.0
O719 O 0.57545 0.74183 0.76488 0.0
O720 O 0.59059 0.72617 0.92239 0.0
O721 O 0.60805 0.71078 0.91874 0.0
O722 O 0.61583 0.69118 0.74126 0.0
O723 O 0.57022 0.69753 0.76962 0.0
O724 O 0.5704 0.7174 0.85473 0.0
O725 O 0.60596 0.67688 0.82599 0.0
O726 O 0.60944 0.71277 0.73005 0.0
O727 O 0.5917 0.72787 0.72837 0.0
C728 C 0.63851 0.73546 0.85781 0.0
C729 C 0.57811 0.76942 0.76326 0.0
C730 C 0.56757 0.79076 0.73976 0.0
C731 C 0.57863 0.79404 0.68292 0.0
C732 C 0.58882 0.77309 0.70601 0.0
C733 C 0.58916 0.78536 0.66657 0.0
C734 C 0.56736 0.77826 0.77989 0.0
C735 C 0.59986 0.7187 0.95319 0.0
C736 C 0.577 0.75559 0.80233 0.0
C737 C 0.67646 0.80576 0.92827 0.0
C738 C 0.67077 0.80353 0.99496 0.0
C739 C 0.56006 0.70185 0.81095 0.0
C740 C 0.63729 0.68102 0.78909 0.0
C741 C 0.66138 0.67206 0.75199 0.0
C742 C 0.67628 0.68266 0.81546 0.0
C743 C 0.65227 0.69139 0.85203 0.0
C744 C 0.64195 0.67152 0.73918 0.0
C745 C 0.67175 0.6923 0.86482 0.0
C746 C 0.60086 0.72044 0.69727 0.0
C747 C 0.61649 0.67954 0.77455 0.0
H748 H 0.57877 0.80309 0.64958 0.0
H749 H 0.59651 0.76614 0.69048 0.0
H750 H 0.59736 0.78794 0.62218 0.0
H751 H 0.55889 0.77538 0.82363 0.0
H752 H 0.69128 0.68327 0.82779 0.0
H753 H 0.64877 0.69859 0.89136 0.0
H754 H 0.63036 0.66374 0.69021 0.0
H755 H 0.68327 0.70031 0.9136 0.0
C756 C 0.14839 0.32701 0.09842 0.0
C757 C 0.12626 0.32031 0.08182 0.0
C758 C 0.16309 0.34141 0.07063 0.0
C759 C 0.16664 0.36693 0.92671 0.0
H760 H 0.22286 0.40171 0.04199 0.0
C761 C 0.22849 0.4295 0.82858 0.0
C762 C 0.24902 0.43212 0.83488 0.0
C763 C 0.21337 0.4174 0.86387 0.0
C764 C 0.20723 0.39209 0.0091 0.0
H765 H 0.10235 0.32345 0.02132 0.0
H766 H 0.12793 0.34885 0.97506 0.0
H767 H 0.19671 0.37725 0.09174 0.0
H768 H 0.27025 0.42495 0.8859 0.0
H769 H 0.24408 0.40409 0.94816 0.0
H770 H 0.17725 0.38187 0.84417 0.0
C771 C 0.13396 0.34284 0.00884 0.0
C772 C 0.19225 0.37798 0.03744 0.0
C773 C 0.11926 0.32837 0.03626 0.0
C774 C 0.2545 0.42313 0.87994 0.0
C775 C 0.23954 0.41125 0.91584 0.0
C776 C 0.18157 0.38113 0.89861 0.0
C777 C 0.15611 0.3496 0.02571 0.0
C778 C 0.17182 0.36505 0.99637 0.0
C779 C 0.21862 0.4079 0.90695 0.0
C780 C 0.20213 0.39376 0.93915 0.0
H781 H 0.15446 0.32131 0.13383 0.0
H782 H 0.17995 0.34602 0.08402 0.0
H783 H 0.15123 0.35714 0.89297 0.0
H784 H 0.22383 0.4362 0.79389 0.0
H785 H 0.19744 0.41523 0.85652 0.0
C786 C 0.83516 0.8017 0.04421 0.0
C787 C 0.84616 0.80162 0.98968 0.0
C788 C 0.81305 0.79489 0.02943 0.0
C789 C 0.7668 0.78067 0.87872 0.0
H790 H 0.73379 0.76252 0.02457 0.0
C791 C 0.67614 0.75851 0.84172 0.0
C792 C 0.66253 0.74458 0.87444 0.0
C793 C 0.69856 0.76603 0.85561 0.0
C794 C 0.74248 0.76725 0.98233 0.0
H795 H 0.84219 0.79339 0.87669 0.0
H796 H 0.80337 0.78072 0.85067 0.0
H797 H 0.77135 0.77259 0.04607 0.0
H798 H 0.66231 0.7281 0.94937 0.0
H799 H 0.70041 0.74006 0.96971 0.0
H800 H 0.73743 0.77434 0.81357 0.0
C801 C 0.81193 0.78668 0.90506 0.0
C802 C 0.76445 0.77346 0.9954 0.0
C803 C 0.83421 0.7937 0.92 0.0
C804 C 0.67206 0.73858 0.92197 0.0
C805 C 0.69424 0.74578 0.9348 0.0
C806 C 0.74465 0.77416 0.86514 0.0
C807 C 0.80094 0.78736 0.95947 0.0
C808 C 0.77714 0.78036 0.94408 0.0
C809 C 0.70805 0.75969 0.90212 0.0
C810 C 0.732 0.76726 0.91667 0.0
H811 H 0.84382 0.80751 0.09863 0.0
H812 H 0.80569 0.79611 0.0732 0.0
H813 H 0.77581 0.7861 0.83784 0.0
H814 H 0.66947 0.76338 0.80427 0.0
H815 H 0.7084 0.77684 0.82981 0.0
C816 C 0.28186 0.95401 0.82976 0.0
C817 C 0.28231 0.96141 0.89848 0.0
C818 C 0.29799 0.95105 0.8161 0.0
C819 C 0.33818 0.94327 0.90665 0.0
H820 H 0.35649 0.94682 0.72554 0.0
C821 C 0.40205 0.92753 0.84207 0.0
C822 C 0.39828 0.91804 0.7736 0.0
C823 C 0.38905 0.93393 0.85892 0.0
C824 C 0.3514 0.94557 0.77615 0.0
H825 H 0.30061 0.97223 0.0062 0.0
H826 H 0.32915 0.96729 0.98228 0.0
H827 H 0.3331 0.95732 0.75255 0.0
H828 H 0.37838 0.9084 0.66851 0.0
H829 H 0.35532 0.91913 0.69796 0.0
H830 H 0.35638 0.93138 0.92991 0.0
C831 C 0.31608 0.96355 0.93904 0.0
C832 C 0.338 0.95165 0.79178 0.0
C833 C 0.2999 0.96661 0.95264 0.0
C834 C 0.38139 0.9153 0.72209 0.0
C835 C 0.36838 0.92171 0.73882 0.0
C836 C 0.35164 0.93722 0.89105 0.0
C837 C 0.31508 0.95537 0.87081 0.0
C838 C 0.33096 0.95039 0.85689 0.0
C839 C 0.37203 0.93114 0.8075 0.0
C840 C 0.35824 0.9381 0.82523 0.0
H841 H 0.26854 0.9499 0.78684 0.0
H842 H 0.29646 0.94459 0.76312 0.0
H843 H 0.33287 0.9418 0.95686 0.0
H844 H 0.41499 0.92991 0.88295 0.0
H845 H 0.39254 0.9413 0.91206 0.0
C846 C 0.44837 0.14228 0.12623 0.0
C847 C 0.45667 0.15956 0.11153 0.0
C848 C 0.42619 0.13012 0.11907 0.0
C849 C 0.37128 0.12163 0.04558 0.0
H850 H 0.35324 0.08544 0.16136 0.0
C851 C 0.28118 0.06263 0.0041 0.0
C852 C 0.27332 0.05454 0.06172 0.0
C853 C 0.30309 0.07588 0.01038 0.0
C854 C 0.35769 0.09551 0.12898 0.0
H855 H 0.4472 0.17706 0.07601 0.0
H856 H 0.40865 0.1564 0.06736 0.0
H857 H 0.39094 0.1076 0.17377 0.0
H858 H 0.2826 0.05441 0.17172 0.0
H859 H 0.32035 0.07763 0.18377 0.0
H860 H 0.33776 0.10993 0.00345 0.0
C861 C 0.41937 0.15202 0.08308 0.0
C862 C 0.37973 0.10823 0.13513 0.0
C863 C 0.44171 0.16413 0.08897 0.0
C864 C 0.28805 0.06017 0.12592 0.0
C865 C 0.3099 0.07354 0.13256 0.0
C866 C 0.34913 0.109 0.04009 0.0
C867 C 0.4111 0.13472 0.09833 0.0
C868 C 0.38712 0.12148 0.09304 0.0
C869 C 0.31802 0.08161 0.07476 0.0
C870 C 0.34183 0.09556 0.08137 0.0
H871 H 0.45905 0.13795 0.14326 0.0
H872 H 0.421 0.11695 0.12929 0.0
H873 H 0.37588 0.13133 0.01145 0.0
H874 H 0.2704 0.0585 0.95351 0.0
H875 H 0.30832 0.08131 0.96387 0.0
C876 C 0.93003 0.29059 0.24769 0.0
C877 C 0.93756 0.30701 0.22627 0.0
C878 C 0.93991 0.28099 0.23512 0.0
C879 C 0.97514 0.27627 0.12306 0.0
H880 H 0.98526 0.25377 0.2704 0.0
C881 C 0.02628 0.24447 0.09773 0.0
C882 C 1.02094 0.22937 0.12785 0.0
C883 C 1.01611 0.25387 0.1093 0.0
C884 C 0.98231 0.25968 0.22796 0.0
H885 H 0.96103 0.32614 0.17371 0.0
H886 H 0.9785 0.3096 0.15237 0.0
H887 H 0.96728 0.26974 0.29029 0.0
H888 H 1.00089 0.21275 0.1953 0.0
H889 H 0.98234 0.22826 0.212 0.0
H890 H 0.98983 0.26602 0.06018 0.0
C891 C 0.96489 0.30399 0.17856 0.0
C892 C 0.97199 0.26894 0.23961 0.0
C893 C 0.95503 0.31358 0.1914 0.0
C894 C 1.00512 0.22399 0.16979 0.0
C895 C 0.99472 0.2332 0.18055 0.0
C896 C 0.9853 0.26687 0.11112 0.0
C897 C 0.95753 0.28756 0.20039 0.0
C898 C 0.96829 0.27743 0.18745 0.0
C899 C 1.00008 0.24838 0.1508 0.0
C900 C 0.98912 0.25843 0.16341 0.0
H901 H 0.91671 0.28529 0.27518 0.0
H902 H 0.93362 0.26833 0.25211 0.0
H903 H 0.97234 0.28239 0.08116 0.0
H904 H 0.03845 0.24913 0.06535 0.0
H905 H 1.02112 0.26564 0.08639 0.0
C906 C 0.83303 0.70264 0.09685 0.0
C907 C 0.84852 0.71123 0.05517 0.0
C908 C 0.82739 0.68585 0.11153 0.0
C909 C 0.82695 0.64495 0.04323 0.0
H910 H 0.81222 0.63297 0.22425 0.0
C911 C 0.79922 0.57412 0.10608 0.0
C912 C 0.7836 0.56706 0.14868 0.0
C913 C 0.80872 0.59192 0.09656 0.0
C914 C 0.81595 0.63589 0.17288 0.0
H915 H 0.87051 0.70876 -0.00254 0.0
H916 H 0.86072 0.67936 0.02309 0.0
H917 H 0.82625 0.66329 0.20588 0.0
H918 H 0.7656 0.57354 0.21351 0.0
H919 H 0.78164 0.60409 0.19608 0.0
H920 H 0.81628 0.61744 0.00979 0.0
C921 C 0.85282 0.68567 0.04427 0.0
C922 C 0.82413 0.65345 0.16237 0.0
C923 C 0.85867 0.70266 0.03021 0.0
C924 C 0.77771 0.5784 0.18095 0.0
C925 C 0.78711 0.59612 0.17123 0.0
C926 C 0.81864 0.62732 0.05361 0.0
C927 C 0.83689 0.67687 0.08459 0.0
C928 C 0.82956 0.65829 0.09712 0.0
C929 C 0.80284 0.60329 0.12896 0.0
C930 C 0.81273 0.62238 0.11843 0.0
H931 H 0.82484 0.70878 0.11703 0.0
H932 H 0.81495 0.67963 0.1421 0.0
H933 H 0.83066 0.64797 0.99192 0.0
H934 H 0.80402 0.56586 0.07935 0.0
H935 H 0.82084 0.59677 0.06409 0.0
C936 C 0.2315 0.49588 0.5916 0.0
C937 C 0.2373 0.50555 0.66121 0.0
C938 C 0.20988 0.48432 0.55888 0.0
C939 C 0.15484 0.47356 0.56246 0.0
H940 H 0.13841 0.42666 0.4664 0.0
C941 C 0.06542 0.41611 0.45112 0.0
C942 C 0.06114 0.40347 0.39136 0.0
C943 C 0.08668 0.4296 0.48299 0.0
C944 C 0.14265 0.43978 0.49164 0.0
H945 H 0.22486 0.51019 0.75173 0.0
H946 H 0.18697 0.49042 0.69372 0.0
H947 H 0.17557 0.44811 0.52349 0.0
H948 H 0.07554 0.39564 0.31556 0.0
H949 H 0.11235 0.41949 0.36837 0.0
H950 H 0.12192 0.46531 0.52953 0.0
C951 C 0.19922 0.49196 0.66423 0.0
C952 C 0.16404 0.45208 0.52486 0.0
C953 C 0.22092 0.50337 0.69734 0.0
C954 C 0.0784 0.40511 0.36205 0.0
C955 C 0.09955 0.41871 0.39299 0.0
C956 C 0.13337 0.46128 0.52836 0.0
C957 C 0.19345 0.48215 0.59479 0.0
C958 C 0.17047 0.46914 0.56047 0.0
C959 C 0.10412 0.43087 0.45521 0.0
C960 C 0.12696 0.4442 0.49204 0.0
H961 H 0.2437 0.49727 0.56212 0.0
H962 H 0.20601 0.47711 0.50513 0.0
H963 H 0.15931 0.48665 0.58915 0.0
H964 H 0.05238 0.41507 0.47506 0.0
H965 H 0.08941 0.43857 0.53097 0.0
C966 C 0.64927 0.6444 0.66206 0.0
C967 C 0.66589 0.66139 0.69981 0.0
C968 C 0.65335 0.63447 0.61248 0.0
C969 C 0.69342 0.63923 0.50236 0.0
H970 H 0.66061 0.58763 0.47369 0.0
C971 C 0.69145 0.59572 0.25506 0.0
C972 C 0.68929 0.57931 0.26038 0.0
C973 C 0.69026 0.60588 0.31253 0.0
C974 C 0.67018 0.60203 0.48152 0.0
H975 H 0.70001 0.68113 0.71457 0.0
H976 H 0.70728 0.66354 0.6305 0.0
H977 H 0.65569 0.60478 0.56774 0.0
H978 H 0.68474 0.56101 0.3318 0.0
H979 H 0.68351 0.57907 0.433 0.0
H980 H 0.70839 0.63652 0.41763 0.0
C981 C 0.69093 0.65803 0.63805 0.0
C982 C 0.66709 0.6119 0.53491 0.0
C983 C 0.6868 0.66804 0.68719 0.0
C984 C 0.6866 0.57361 0.32572 0.0
C985 C 0.68559 0.58388 0.38358 0.0
C986 C 0.69666 0.62937 0.44947 0.0
C987 C 0.67423 0.64113 0.59966 0.0
C988 C 0.67843 0.63063 0.54545 0.0
C989 C 0.68715 0.60007 0.37751 0.0
C990 C 0.68485 0.61062 0.4375 0.0
H991 H 0.63302 0.63865 0.67103 0.0
H992 H 0.63998 0.62165 0.58342 0.0
H993 H 0.70233 0.6536 0.50816 0.0
H994 H 0.69394 0.60074 0.20613 0.0
H995 H 0.69127 0.61812 0.30518 0.0
C996 C 0.4649 0.06382 0.19064 0.0
C997 C 0.47347 0.08217 0.21139 0.0
C998 C 0.46708 0.05402 0.23925 0.0
C999 C 0.49707 0.05945 0.4197 0.0
H1000 H 0.45114 1.01022 0.40506 0.0
C1001 C 0.49053 0.02183 0.64838 0.0
C1002 C 0.48869 1.00528 0.63195 0.0
C1003 C 0.48784 0.03021 0.5947 0.0
C1004 C 0.46415 0.02391 0.40944 0.0
H1005 H 0.49096 0.10462 0.29943 0.0
H1006 H 0.49408 0.08754 0.38514 0.0
H1007 H 0.44859 0.0271 0.31717 0.0
H1008 H 0.48122 0.98414 0.5453 0.0
H1009 H 0.47583 0.99866 0.45113 0.0
H1010 H 0.51214 0.05635 0.51366 0.0
C1011 C 0.48625 0.08068 0.33079 0.0
C1012 C 0.4628 0.03363 0.35882 0.0
C1013 C 0.48439 0.09053 0.28175 0.0
C1014 C 0.48272 0.99683 0.56006 0.0
C1015 C 0.47973 1.00518 0.50608 0.0
C1016 C 0.49822 0.04983 0.4708 0.0
C1017 C 0.47757 0.06223 0.31043 0.0
C1018 C 0.4792 0.05161 0.36332 0.0
C1019 C 0.48285 0.02219 0.52293 0.0
C1020 C 0.48173 0.032 0.46655 0.0
H1021 H 0.4566 0.05705 0.13647 0.0
H1022 H 0.4606 0.03999 0.22064 0.0
H1023 H 0.51033 0.07305 0.42445 0.0
H1024 H 0.49447 0.02853 0.70306 0.0
H1025 H 0.48986 0.04312 0.60941 0.0
C1026 C 0.14005 0.08951 0.01439 0.0
C1027 C 0.16071 0.09712 0.05541 0.0
C1028 C 0.12829 0.09764 0.02331 0.0
C1029 C 0.12498 0.13127 0.14422 0.0
H1030 H 0.10121 0.13822 0.97038 0.0
C1031 C 0.09689 0.18124 0.14678 0.0
C1032 C 0.0796 0.17739 0.09407 0.0
C1033 C 0.10573 0.17062 0.14409 0.0
C1034 C 0.10737 0.1362 0.01966 0.0
H1035 H 0.18488 0.1187 0.13974 0.0
H1036 H 0.16426 0.13259 0.15677 0.0
H1037 H 0.11709 0.12025 0.96434 0.0
H1038 H 0.05752 0.15879 -0.0016 0.0
H1039 H 0.07225 0.13998 0.99507 0.0
H1040 H 0.11518 0.1471 0.19972 0.0
C1041 C 0.15705 0.1204 0.11766 0.0
C1042 C 0.11653 0.12585 0.01607 0.0
C1043 C 0.16887 0.11243 0.10805 0.0
C1044 C 0.07099 0.16233 0.03964 0.0
C1045 C 0.07962 0.15158 0.03737 0.0
C1046 C 0.11561 0.14149 0.14786 0.0
C1047 C 0.13686 0.11344 0.07401 0.0
C1048 C 0.12564 0.12336 0.07826 0.0
C1049 C 0.09727 0.1556 0.08921 0.0
C1050 C 0.10681 0.14427 0.08561 0.0
H1051 H 0.13352 0.07789 0.97271 0.0
H1052 H 0.11272 0.09181 0.98925 0.0
H1053 H 0.13166 0.12952 0.19324 0.0
H1054 H 0.10358 0.19242 0.19048 0.0
H1055 H 0.11941 0.17436 0.18478 0.0
C1056 C 0.95385 0.95511 0.13796 0.0
C1057 C 0.96374 0.95045 0.0894 0.0
C1058 C 0.95518 0.97141 0.14293 0.0
C1059 C 0.96515 1.00731 0.04473 0.0
H1060 H 0.97962 0.03593 0.23171 0.0
C1061 C 0.98366 0.07929 0.08071 0.0
C1062 C 0.97589 0.08478 0.13476 0.0
C1063 C 0.98275 0.06316 0.076 0.0
C1064 C 0.97529 0.02804 0.17906 0.0
H1065 H 0.98223 0.95903 0.00653 0.0
H1066 H 0.98449 0.98747 0.01504 0.0
H1067 H 0.97598 1.007 0.22061 0.0
H1068 H 0.96163 0.0777 0.22758 0.0
H1069 H 0.95936 0.04938 0.21794 0.0
H1070 H 0.96409 0.02814 0.00299 0.0
C1071 C 0.97574 0.97852 0.04937 0.0
C1072 C 0.97323 1.01145 0.17276 0.0
C1073 C 0.9746 0.9623 0.04489 0.0
C1074 C 0.9675 0.07382 0.18461 0.0
C1075 C 0.96646 0.05764 0.17963 0.0
C1076 C 0.96703 0.02384 0.051 0.0
C1077 C 0.96624 0.98335 0.09896 0.0
C1078 C 0.96816 1.0009 0.10554 0.0
C1079 C 0.97392 0.052 0.12493 0.0
C1080 C 0.97215 0.03446 0.11827 0.0
H1081 H 0.94551 0.94633 0.17335 0.0
H1082 H 0.9475 0.97467 0.18117 0.0
H1083 H 0.96098 0.99941 0.9922 0.0
H1084 H 0.99003 0.08724 0.04085 0.0
H1085 H 0.98898 0.05944 0.03382 0.0
C1086 C 0.9887 0.86499 0.06571 0.0
C1087 C 0.97158 0.86413 0.02164 0.0
C1088 C 1.01033 0.87847 0.06708 0.0
C1089 C 0.04339 0.92416 0.02367 0.0
H1090 H 0.08942 0.91532 0.03815 0.0
C1091 C 0.13022 0.97911 0.99628 0.0
C1092 C 0.14804 0.97945 0.0325 0.0
C1093 C 0.10897 0.96504 0.99524 0.0
C1094 C 0.07694 0.91826 0.03514 0.0
H1095 H 0.96439 0.87683 0.94265 0.0
H1096 H 1.0014 0.89991 0.9452 0.0
H1097 H 0.05284 0.89109 0.03733 0.0
H1098 H 0.15696 0.96552 0.09983 0.0
H1099 H 0.12053 0.94135 0.0985 0.0
H1100 H 0.06731 0.9513 0.0226 0.0
C1101 C 0.99834 0.8904 0.97966 0.0
C1102 C 0.05576 0.90419 0.03453 0.0
C1103 C 0.97691 0.87694 0.97786 0.0
C1104 C 0.14383 0.96549 0.06909 0.0
C1105 C 0.12269 0.95151 0.0684 0.0
C1106 C 0.06455 0.93824 0.02486 0.0
C1107 C 1.01553 0.89166 0.02494 0.0
C1108 C 0.03851 0.90682 0.02822 0.0
C1109 C 0.10471 0.95086 0.03112 0.0
C1110 C 0.08185 0.93563 0.03024 0.0
H1111 H 0.9854 0.85564 0.10095 0.0
H1112 H 1.02296 0.87889 0.10298 0.0
H1113 H 0.03081 0.927 0.02009 0.0
H1114 H 0.13269 0.98955 0.96739 0.0
H1115 H 0.0959 0.96519 0.96498 0.0
C1116 C 0.82653 0.45393 0.23664 0.0
C1117 C 0.83599 0.46588 0.19097 0.0
C1118 C 0.83063 0.44035 0.24184 0.0
C1119 C 0.84926 0.41413 0.14774 0.0
H1120 H 0.86874 0.40992 0.33531 0.0
C1121 C 0.89151 0.37582 0.18421 0.0
C1122 C 0.88844 0.36638 0.23991 0.0
C1123 C 0.88359 0.38693 0.17901 0.0
C1124 C 0.86298 0.41064 0.28249 0.0
H1125 H 0.85638 0.47253 0.1129 0.0
H1126 H 0.86315 0.4487 0.12076 0.0
H1127 H 0.85652 0.43037 0.32317 0.0
H1128 H 0.87431 0.36097 0.33343 0.0
H1129 H 0.8598 0.38 0.32343 0.0
H1130 H 0.85543 0.39438 0.10666 0.0
C1131 C 0.85272 0.44984 0.153 0.0
C1132 C 0.856 0.42242 0.27559 0.0
C1133 C 0.84892 0.46354 0.14869 0.0
C1134 C 0.87699 0.36815 0.29005 0.0
C1135 C 0.86885 0.37919 0.28455 0.0
C1136 C 0.85598 0.40223 0.15457 0.0
C1137 C 0.84393 0.43825 0.20046 0.0
C1138 C 0.84941 0.42453 0.2081 0.0
C1139 C 0.87199 0.38873 0.22874 0.0
C1140 C 0.86336 0.40054 0.22201 0.0
H1141 H 0.81661 0.45549 0.27016 0.0
H1142 H 0.82351 0.43156 0.27854 0.0
H1143 H 0.84398 0.41525 0.09499 0.0
H1144 H 0.90003 0.37457 0.1442 0.0
H1145 H 0.8868 0.39428 0.13614 0.0
C1146 C 0.71164 0.45017 0.09527 0.0
C1147 C 0.71125 0.46274 0.14469 0.0
C1148 C 0.69764 0.43174 0.09153 0.0
C1149 C 0.66146 0.39862 0.19513 0.0
H1150 H 0.64016 0.36573 0.01485 0.0
C1151 C 0.59886 0.32263 0.1688 0.0
C1152 C 0.60348 0.31108 0.13091 0.0
C1153 C 0.6102 0.34094 0.16637 0.0
C1154 C 0.64601 0.3747 0.06579 0.0
H1155 H 0.69612 0.46545 0.23076 0.0
H1156 H 0.67124 0.43369 0.22222 0.0
H1157 H 0.66356 0.39768 0.01958 0.0
H1158 H 0.62313 0.30963 0.05899 0.0
H1159 H 0.64239 0.34127 0.05302 0.0
H1160 H 0.64374 0.37558 0.24107 0.0
C1161 C 0.6825 0.43791 0.18663 0.0
C1162 C 0.6596 0.39313 0.06865 0.0
C1163 C 0.69661 0.45628 0.19076 0.0
C1164 C 0.61898 0.31813 0.08804 0.0
C1165 C 0.63007 0.33632 0.08477 0.0
C1166 C 0.64772 0.38022 0.19212 0.0
C1167 C 0.68273 0.42524 0.13703 0.0
C1168 C 0.66774 0.40546 0.13349 0.0
C1169 C 0.62628 0.34814 0.12531 0.0
C1170 C 0.63989 0.36792 0.12751 0.0
H1171 H 0.72273 0.45456 0.05908 0.0
H1172 H 0.69877 0.4226 0.05339 0.0
H1173 H 0.66755 0.40744 0.24648 0.0
H1174 H 0.58729 0.31769 0.20322 0.0
H1175 H 0.60664 0.34954 0.19779 0.0
C1176 C 0.59083 0.21586 0.08131 0.0
C1177 C 0.58271 0.21738 0.1422 0.0
C1178 C 0.61292 0.22371 0.08467 0.0
C1179 C 0.66038 0.24892 0.09213 0.0
H1180 H 0.69821 0.25464 0.26224 0.0
C1181 C 0.75229 0.29413 0.12596 0.0
C1182 C 0.76596 0.29026 0.16578 0.0
C1183 C 0.73009 0.28414 0.12228 0.0
C1184 C 0.6879 0.25296 0.21385 0.0
H1185 H 0.59159 0.22859 0.25463 0.0
H1186 H 0.63035 0.24313 0.26023 0.0
H1187 H 0.65962 0.23952 0.25844 0.0
H1188 H 0.76654 0.27218 0.23089 0.0
H1189 H 0.72748 0.25425 0.22277 0.0
H1190 H 0.68832 0.26167 0.04641 0.0
C1191 C 0.61959 0.23538 0.2099 0.0
C1192 C 0.66568 0.24451 0.21206 0.0
C1193 C 0.59734 0.22727 0.20661 0.0
C1194 C 0.75655 0.27554 0.1996 0.0
C1195 C 0.73413 0.26541 0.19567 0.0
C1196 C 0.68245 0.25715 0.09365 0.0
C1197 C 0.62776 0.2337 0.14888 0.0
C1198 C 0.65154 0.24247 0.15128 0.0
C1199 C 0.72056 0.26969 0.15747 0.0
C1200 C 0.69669 0.25957 0.1548 0.0
H1201 H 0.58001 0.20835 0.03077 0.0
H1202 H 0.61825 0.22163 0.03667 0.0
H1203 H 0.65032 0.24793 0.0445 0.0
H1204 H 0.75883 0.30517 0.0982 0.0
H1205 H 0.72049 0.28817 0.09314 0.0
C1206 C 0.56514 0.818 0.74496 0.0
C1207 C 0.55611 0.80024 0.75416 0.0
C1208 C 0.55364 0.8264 0.74857 0.0
C1209 C 0.49756 0.81657 0.74018 0.0
H1210 H 0.528 0.8681 0.7913 0.0
C1211 C 0.4561 0.85697 0.77511 0.0
C1212 C 0.46325 0.87171 0.74095 0.0
C1213 C 0.46664 0.84769 0.77761 0.0
C1214 C 0.51926 0.85371 0.77643 0.0
H1215 H 0.52794 0.7778 0.77837 0.0
H1216 H 0.50817 0.79272 0.78816 0.0
H1217 H 0.54784 0.8534 0.80147 0.0
H1218 H 0.48627 0.88718 0.6783 0.0
H1219 H 0.50561 0.87185 0.68683 0.0
H1220 H 0.46884 0.8171 0.71775 0.0
C1221 C 0.524 0.79999 0.77549 0.0
C1222 C 0.53067 0.84519 0.78187 0.0
C1223 C 0.53551 0.79147 0.77104 0.0
C1224 C 0.48094 0.87655 0.70792 0.0
C1225 C 0.49185 0.86758 0.71204 0.0
C1226 C 0.4861 0.82511 0.7361 0.0
C1227 C 0.53273 0.81753 0.763 0.0
C1228 C 0.52012 0.82647 0.76263 0.0
C1229 C 0.48489 0.85307 0.74721 0.0
C1230 C 0.49686 0.84382 0.75317 0.0
H1231 H 0.5811 0.82541 0.73329 0.0
H1232 H 0.56106 0.83974 0.73759 0.0
H1233 H 0.48871 0.80221 0.72384 0.0
H1234 H 0.44233 0.85257 0.80036 0.0
H1235 H 0.46079 0.83654 0.80482 0.0
C1236 C 0.37617 0.67019 0.82747 0.0
C1237 C 0.3563 0.65694 0.84055 0.0
C1238 C 0.37998 0.68689 0.81997 0.0
C1239 C 0.35451 0.70912 0.75904 0.0
H1240 H 0.40477 0.75229 0.87219 0.0
C1241 C 0.37606 0.77824 0.70677 0.0
C1242 C 0.39794 0.79066 0.7092 0.0
C1243 C 0.36961 0.7626 0.73301 0.0
C1244 C 0.39078 0.74039 0.8396 0.0
H1245 H 0.32493 0.65114 0.85659 0.0
H1246 H 0.33137 0.68011 0.83967 0.0
H1247 H 0.39623 0.72332 0.89661 0.0
H1248 H 0.43025 0.79678 0.74488 0.0
H1249 H 0.41906 0.76923 0.78666 0.0
H1250 H 0.34965 0.72589 0.69897 0.0
C1251 C 0.34397 0.67745 0.83618 0.0
C1252 C 0.38585 0.72384 0.85403 0.0
C1253 C 0.34027 0.66083 0.8452 0.0
C1254 C 0.41323 0.78734 0.74066 0.0
C1255 C 0.40679 0.77162 0.76591 0.0
C1256 C 0.35965 0.72565 0.74364 0.0
C1257 C 0.3639 0.69061 0.82392 0.0
C1258 C 0.36788 0.70809 0.81316 0.0
C1259 C 0.38488 0.75891 0.76158 0.0
C1260 C 0.37809 0.74149 0.78291 0.0
H1261 H 0.38874 0.66762 0.82187 0.0
H1262 H 0.39538 0.6968 0.80948 0.0
H1263 H 0.34063 0.69708 0.72658 0.0
H1264 H 0.36382 0.78031 0.6826 0.0
H1265 H 0.35262 0.75329 0.72992 0.0
C1266 C 0.52338 0.67688 0.74585 0.0
C1267 C 0.53684 0.68896 0.80891 0.0
C1268 C 0.50204 0.66356 0.74507 0.0
C1269 C 0.45609 0.65183 0.82798 0.0
H1270 H 0.43728 0.60256 0.75899 0.0
C1271 C 0.36663 0.5932 0.74131 0.0
C1272 C 0.36045 0.57809 0.77249 0.0
C1273 C 0.38825 0.60697 0.75123 0.0
C1274 C 0.44233 0.61624 0.77866 0.0
H1275 H 0.538 0.69725 0.91976 0.0
H1276 H 0.50031 0.67437 0.9177 0.0
H1277 H 0.47469 0.62639 0.76427 0.0
H1278 H 0.37251 0.56646 0.84206 0.0
H1279 H 0.41047 0.58983 0.85476 0.0
H1280 H 0.42347 0.64172 0.83958 0.0
C1281 C 0.50654 0.67496 0.86928 0.0
C1282 C 0.4637 0.62988 0.78135 0.0
C1283 C 0.52807 0.68809 0.87037 0.0
C1284 C 0.37662 0.57736 0.81462 0.0
C1285 C 0.39837 0.59091 0.82278 0.0
C1286 C 0.43458 0.63823 0.82358 0.0
C1287 C 0.49342 0.66232 0.80691 0.0
C1288 C 0.47083 0.64783 0.80596 0.0
C1289 C 0.40441 0.60589 0.79125 0.0
C1290 C 0.42746 0.62028 0.79884 0.0
H1291 H 0.52948 0.67754 0.69718 0.0
H1292 H 0.49225 0.65419 0.69595 0.0
H1293 H 0.4611 0.66553 0.84692 0.0
H1294 H 0.35474 0.59447 0.70907 0.0
H1295 H 0.3924 0.61834 0.72629 0.0
C1296 C 0.04306 0.19018 0.85378 0.0
C1297 C 0.04457 0.20419 0.90016 0.0
C1298 C 0.04283 0.19055 0.78165 0.0
C1299 C 0.06078 0.2215 0.65886 0.0
H1300 H 1.02195 0.17915 0.51464 0.0
C1301 C 0.05755 0.22177 0.35795 0.0
C1302 C 0.05435 0.20661 0.31446 0.0
C1303 C 0.05588 0.22183 0.42938 0.0
C1304 C 0.03309 0.19104 0.55426 0.0
H1305 H 0.04671 0.22946 0.90731 0.0
H1306 H 0.04653 0.23021 0.78086 0.0
H1307 H 1.01916 0.17841 0.63894 0.0
H1308 H 0.04761 0.17984 0.3123 0.0
H1309 H 0.04523 0.1801 0.437 0.0
H1310 H 0.07507 0.23404 0.57458 0.0
C1311 C 0.04555 0.21896 0.80057 0.0
C1312 C 0.03141 0.19063 0.62542 0.0
C1313 C 0.04556 0.21849 0.87273 0.0
C1314 C 0.04996 0.19168 0.34425 0.0
C1315 C 0.04844 0.19179 0.41567 0.0
C1316 C 0.06257 0.22189 0.58767 0.0
C1317 C 0.04433 0.20504 0.75441 0.0
C1318 C 0.04533 0.2058 0.67851 0.0
C1319 C 0.05113 0.20678 0.45899 0.0
C1320 C 0.04887 0.20661 0.53454 0.0
H1321 H 0.04264 0.17912 0.87351 0.0
H1322 H 0.04217 0.17976 0.74756 0.0
H1323 H 0.0719 0.23335 0.69878 0.0
H1324 H 0.06081 0.23344 0.33642 0.0
H1325 H 0.05783 0.23354 0.46092 0.0
C1326 C 0.89081 0.81457 0.76617 0.0
C1327 C 0.90545 0.82957 0.81904 0.0
C1328 C 0.89195 0.81504 0.6945 0.0
C1329 C 0.92913 0.84051 0.57801 0.0
H1330 H 0.87699 0.8163 0.43384 0.0
C1331 C 0.9277 0.84813 0.28258 0.0
C1332 C 0.91504 0.83215 0.23218 0.0
C1333 C 0.92686 0.84821 0.35472 0.0
C1334 C 0.89169 0.82304 0.47353 0.0
H1335 H 0.93237 0.85698 0.83826 0.0
H1336 H 0.93393 0.85801 0.71379 0.0
H1337 H 0.87457 0.81553 0.55843 0.0
H1338 H 0.89162 0.80374 0.21818 0.0
H1339 H 0.89017 0.80397 0.34335 0.0
H1340 H 0.94619 0.8482 0.49274 0.0
C1341 C 0.92195 0.84569 0.72733 0.0
C1342 C 0.89032 0.82254 0.54492 0.0
C1343 C 0.92091 0.84516 0.79878 0.0
C1344 C 0.90166 0.81629 0.25548 0.0
C1345 C 0.90066 0.81642 0.3272 0.0
C1346 C 0.93049 0.84114 0.50663 0.0
C1347 C 0.9076 0.83061 0.6742 0.0
C1348 C 0.90902 0.8312 0.5981 0.0
C1349 C 0.91317 0.83236 0.37758 0.0
C1350 C 0.91179 0.83232 0.45363 0.0
H1351 H 0.8785 0.80247 0.78017 0.0
H1352 H 0.88074 0.80312 0.65512 0.0
H1353 H 0.94389 0.84709 0.61731 0.0
H1354 H 0.93817 0.86056 0.2663 0.0
H1355 H 0.93661 0.86071 0.39246 0.0
C1356 C 0.18581 1.01085 0.78473 0.0
C1357 C 0.2025 1.0111 0.82849 0.0
C1358 C 0.18592 1.01133 0.71236 0.0
C1359 C 0.22288 0.02639 0.58764 0.0
H1360 H 0.17279 0.99364 0.44079 0.0
C1361 C 0.22813 0.02209 0.29064 0.0
C1362 C 0.21037 0.0184 0.24074 0.0
C1363 C 0.22667 0.02104 0.3618 0.0
C1364 C 0.18686 1.0031 0.48101 0.0
H1365 H 0.23237 1.012 0.82994 0.0
H1366 H 0.23261 1.01303 0.70464 0.0
H1367 H 0.17077 0.99218 0.56548 0.0
H1368 H 0.1773 1.01126 0.22688 0.0
H1369 H 0.17493 1.01007 0.35131 0.0
H1370 H 0.23893 0.03765 0.50419 0.0
C1371 C 0.21943 1.01243 0.72616 0.0
C1372 C 0.18568 1.00219 0.55254 0.0
C1373 C 0.21916 1.01168 0.79798 0.0
C1374 C 0.19125 1.01405 0.26399 0.0
C1375 C 0.18983 1.01319 0.33534 0.0
C1376 C 0.224 0.02746 0.51633 0.0
C1377 C 0.20291 1.01238 0.68255 0.0
C1378 C 0.20375 1.01371 0.60661 0.0
C1379 C 0.20751 1.01661 0.38539 0.0
C1380 C 0.20608 1.01572 0.46176 0.0
H1381 H 0.17275 1.01042 0.80651 0.0
H1382 H 0.17301 1.01135 0.6801 0.0
H1383 H 0.23699 0.03564 0.62816 0.0
H1384 H 0.24329 0.02599 0.27493 0.0
H1385 H 0.2406 0.02358 0.39817 0.0
C1386 C 0.75454 0.50489 0.3919 0.0
C1387 C 0.75608 0.51929 0.36382 0.0
C1388 C 0.75354 0.5042 0.4635 0.0
C1389 C 0.76494 0.53211 0.63892 0.0
H1390 H 0.72451 0.48688 0.68636 0.0
C1391 C 0.74626 0.52647 0.92138 0.0
C1392 C 0.7445 0.51192 0.94883 0.0
C1393 C 0.74749 0.52735 0.84999 0.0
C1394 C 0.73606 0.49958 0.67421 0.0
H1395 H 0.75861 0.54461 0.38948 0.0
H1396 H 0.75668 0.54337 0.51437 0.0
H1397 H 0.72764 0.4887 0.56281 0.0
H1398 H 0.74191 0.4866 0.92241 0.0
H1399 H 0.74427 0.48819 0.79802 0.0
H1400 H 0.77335 0.54298 0.75036 0.0
C1401 C 0.75629 0.5326 0.48114 0.0
C1402 C 0.73787 0.50062 0.60327 0.0
C1403 C 0.75726 0.53327 0.40945 0.0
C1404 C 0.74343 0.49805 0.90291 0.0
C1405 C 0.74463 0.49891 0.83149 0.0
C1406 C 0.76313 0.53106 0.70989 0.0
C1407 C 0.75419 0.51796 0.50894 0.0
C1408 C 0.75235 0.51689 0.58466 0.0
C1409 C 0.74685 0.51365 0.80419 0.0
C1410 C 0.74867 0.51478 0.72849 0.0
H1411 H 0.75366 0.49393 0.35818 0.0
H1412 H 0.7523 0.49287 0.48329 0.0
H1413 H 0.77648 0.5448 0.62671 0.0
H1414 H 0.74711 0.53737 0.95541 0.0
H1415 H 0.74886 0.53876 0.83061 0.0
C1416 C 0.5368 0.20502 0.38601 0.0
C1417 C 0.52071 0.19113 0.33185 0.0
C1418 C 0.53531 0.2043 0.45731 0.0
C1419 C 0.4966 0.18084 0.57351 0.0
H1420 H 0.54866 0.19898 0.71268 0.0
C1421 C 0.49809 0.17136 0.86799 0.0
C1422 C 0.51238 0.18708 0.91832 0.0
C1423 C 0.49838 0.17114 0.7954 0.0
C1424 C 0.534 0.19391 0.67436 0.0
H1425 H 0.49065 0.16547 0.30953 0.0
H1426 H 0.48839 0.16389 0.43344 0.0
H1427 H 0.55073 0.20031 0.58825 0.0
H1428 H 0.53826 0.21483 0.93182 0.0
H1429 H 0.5388 0.2143 0.80621 0.0
H1430 H 0.47992 0.17421 0.66021 0.0
C1431 C 0.50185 0.17562 0.42134 0.0
C1432 C 0.53518 0.19478 0.60311 0.0
C1433 C 0.50325 0.17644 0.35025 0.0
C1434 C 0.5269 0.2025 0.89462 0.0
C1435 C 0.52737 0.2022 0.82261 0.0
C1436 C 0.49541 0.1798 0.64479 0.0
C1437 C 0.51786 0.18952 0.47591 0.0
C1438 C 0.51653 0.18842 0.55178 0.0
C1439 C 0.5132 0.18654 0.77225 0.0
C1440 C 0.51413 0.18649 0.69597 0.0
H1441 H 0.55068 0.21632 0.37338 0.0
H1442 H 0.54784 0.21535 0.4978 0.0
H1443 H 0.48192 0.17602 0.53573 0.0
H1444 H 0.48674 0.15929 0.88467 0.0
H1445 H 0.48731 0.15887 0.75751 0.0
C1446 C 0.92823 0.33238 0.48599 0.0
C1447 C 0.91259 0.33398 0.44542 0.0
C1448 C 0.92891 0.33238 0.55862 0.0
C1449 C 0.90986 0.34516 0.71082 0.0
H1450 H 0.9242 0.31477 0.79998 0.0
C1451 C 0.89597 0.33157 0.99057 0.0
C1452 C 0.91337 0.33373 0.03778 0.0
C1453 C 0.89654 0.33165 0.91864 0.0
C1454 C 0.92034 0.32342 0.77575 0.0
H1455 H 0.88574 0.33728 0.44922 0.0
H1456 H 0.8862 0.33643 0.5748 0.0
H1457 H 0.9236 0.31459 0.67312 0.0
H1458 H 0.94481 0.33725 0.04635 0.0
H1459 H 0.94561 0.33711 0.91987 0.0
H1460 H 0.90603 0.35358 0.81322 0.0
C1461 C 0.89821 0.33545 0.55117 0.0
C1462 C 0.92006 0.32338 0.70319 0.0
C1463 C 0.8977 0.33565 0.47884 0.0
C1464 C 0.9312 0.33565 0.01128 0.0
C1465 C 0.93163 0.33547 0.93898 0.0
C1466 C 0.90987 0.34502 0.783 0.0
C1467 C 0.91391 0.33394 0.59219 0.0
C1468 C 0.91469 0.33419 0.6697 0.0
C1469 C 0.91439 0.33366 0.8922 0.0
C1470 C 0.91501 0.33409 0.81607 0.0
H1471 H 0.94003 0.33123 0.46161 0.0
H1472 H 0.94143 0.33148 0.58863 0.0
H1473 H 0.90618 0.354 0.68741 0.0
H1474 H 0.88202 0.33011 0.00931 0.0
H1475 H 0.88296 0.33007 0.88352 0.0
C1476 C 0.42486 0.88124 0.48606 0.0
C1477 C 0.42912 0.89646 0.53215 0.0
C1478 C 0.42512 0.88127 0.41392 0.0
C1479 C 0.44599 0.91207 0.28881 0.0
H1480 H 0.40514 0.86985 0.14655 0.0
C1481 C 0.43598 0.91194 0.98804 0.0
C1482 C 0.43441 0.89761 0.94379 0.0
C1483 C 0.43548 0.91184 0.06001 0.0
C1484 C 0.41676 0.88168 0.18582 0.0
H1485 H 0.43636 0.92348 0.53846 0.0
H1486 H 0.43632 0.92338 0.41235 0.0
H1487 H 0.40327 0.86951 0.27175 0.0
H1488 H 0.43193 0.87225 0.94053 0.0
H1489 H 0.43064 0.87192 0.06621 0.0
H1490 H 0.45926 0.92428 0.20253 0.0
C1491 C 0.43331 0.91157 0.43218 0.0
C1492 C 0.41572 0.88149 0.2575 0.0
C1493 C 0.43321 0.91158 0.5044 0.0
C1494 C 0.43269 0.8833 0.97309 0.0
C1495 C 0.43198 0.88311 0.04493 0.0
C1496 C 0.44692 0.9123 0.21712 0.0
C1497 C 0.42947 0.89647 0.38619 0.0
C1498 C 0.43035 0.89668 0.30986 0.0
C1499 C 0.4333 0.89736 0.089 0.0
C1500 C 0.43234 0.8971 0.16499 0.0
H1501 H 0.42176 0.86939 0.50584 0.0
H1502 H 0.42238 0.86949 0.38022 0.0
H1503 H 0.45777 0.92389 0.32781 0.0
H1504 H 0.43731 0.92314 0.96687 0.0
H1505 H 0.43638 0.92294 0.09272 0.0
C1506 C 0.30882 0.55643 0.99199 0.0
C1507 C 0.29773 0.54009 0.94341 0.0
C1508 C 0.30888 0.55679 0.06441 0.0
C1509 C 0.27877 0.53075 0.19048 0.0
H1510 H 0.33269 0.56036 0.32574 0.0
C1511 C 0.28612 0.52528 0.48506 0.0
C1512 C 0.29921 0.5411 0.53579 0.0
C1513 C 0.28588 0.52547 0.41285 0.0
C1514 C 0.31746 0.55222 0.28878 0.0
H1515 H 0.27782 0.51136 0.93251 0.0
H1516 H 0.27785 0.51205 0.05927 0.0
H1517 H 0.33221 0.56015 0.19913 0.0
H1518 H 0.32251 0.56949 0.55111 0.0
H1519 H 0.32164 0.56995 0.42472 0.0
H1520 H 0.26393 0.52293 0.27985 0.0
C1521 C 0.28645 0.52454 0.04108 0.0
C1522 C 0.31721 0.55207 0.21631 0.0
C1523 C 0.28654 0.52415 0.96866 0.0
C1524 C 0.3121 0.55712 0.51303 0.0
C1525 C 0.31177 0.55734 0.44072 0.0
C1526 C 0.27899 0.53099 0.26295 0.0
C1527 C 0.2977 0.54086 0.08963 0.0
C1528 C 0.29789 0.54126 0.16649 0.0
C1529 C 0.29865 0.5415 0.3898 0.0
C1530 C 0.29835 0.54164 0.31291 0.0
H1531 H 0.31764 0.56896 0.97426 0.0
H1532 H 0.31752 0.56956 0.10066 0.0
H1533 H 0.26361 0.52249 0.1532 0.0
H1534 H 0.276 0.51274 0.50111 0.0
H1535 H 0.27585 0.51299 0.37515 0.0
C1536 C 0.61521 0.71686 0.58986 0.0
C1537 C 0.60146 0.72065 0.62135 0.0
C1538 C 0.61543 0.71668 0.51766 0.0
C1539 C 0.58202 0.70971 0.34969 0.0
H1540 H 0.63576 0.73554 0.28443 0.0
C1541 C 0.58437 0.71915 0.06078 0.0
C1542 C 0.60017 0.71848 0.02938 0.0
C1543 C 0.58472 0.71916 0.13306 0.0
C1544 C 0.62064 0.72803 0.30167 0.0
H1545 H 0.57725 0.7273 0.60207 0.0
H1546 H 0.57753 0.72676 0.47559 0.0
H1547 H 0.63615 0.73614 0.41127 0.0
H1548 H 0.62854 0.71703 0.0483 0.0
H1549 H 0.62879 0.71647 0.17449 0.0
H1550 H 0.56646 0.7013 0.24048 0.0
C1551 C 0.58808 0.72394 0.50697 0.0
C1552 C 0.62088 0.72845 0.37423 0.0
C1553 C 0.58803 0.72434 0.57934 0.0
C1554 C 0.61617 0.71756 0.07132 0.0
C1555 C 0.61641 0.71741 0.14362 0.0
C1556 C 0.58178 0.70913 0.27713 0.0
C1557 C 0.60175 0.72007 0.47556 0.0
C1558 C 0.60157 0.71941 0.3988 0.0
C1559 C 0.60072 0.71828 0.17534 0.0
C1560 C 0.60107 0.7184 0.25231 0.0
H1561 H 0.6258 0.71404 0.62092 0.0
H1562 H 0.62603 0.71357 0.49445 0.0
H1563 H 0.56694 0.70241 0.3674 0.0
H1564 H 0.57169 0.71963 0.02945 0.0
H1565 H 0.57256 0.72009 0.15591 0.0
loop_
_geom_bond_atom_site_label_1
_geom_bond_atom_site_label_2
_geom_bond_distance
_geom_bond_site_symmetry_2
_ccdc_geom_bond_type
Tb0 N29 2.617 1_454 S
Tb0 N35 2.572 1_455 S
Tb0 O44 2.468 1_455 S
Tb0 O45 2.387 . S
Tb0 O47 2.428 1_455 S
Tb0 O48 2.308 . S
Tb0 O52 2.349 . S
Tb0 O55 2.393 1_554 S
Tb0 C64 2.802 1_455 S
C1 N2 1.379 . S
C1 C4 1.416 . S
C1 C8 1.424 . S
N2 C1 1.379 . S
N2 C5 1.334 . S
N2 Tb11 2.617 . S
C3 C5 1.390 . S
C3 C6 1.339 . S
C3 H23 0.930 . S
C4 C1 1.416 . S
C4 C6 1.416 . S
C4 C10 1.448 . S
C5 N2 1.334 . S
C5 C3 1.390 . S
C5 H16 0.930 . S
C6 C3 1.339 . S
C6 C4 1.416 . S
C6 H27 0.930 . S
C7 C8 1.413 . S
C7 C9 1.427 . S
C7 C13 1.416 . S
C8 C1 1.424 . S
C8 C7 1.413 . S
C8 N12 1.361 . S
C9 C7 1.427 . S
C9 C10 1.328 . S
C9 H24 0.929 . S
C10 C4 1.448 . S
C10 C9 1.328 . S
C10 H25 0.930 . S
Tb11 N2 2.617 . S
Tb11 N12 2.572 . S
Tb11 O46 2.349 . S
Tb11 O49 2.393 . S
Tb11 O50 2.465 . S
Tb11 O51 2.387 . S
Tb11 O53 2.428 . S
Tb11 O54 2.308 . S
Tb11 C75 2.802 . S
N12 C8 1.361 . S
N12 Tb11 2.572 . S
N12 C14 1.340 . S
C13 C7 1.416 . S
C13 C15 1.332 . S
C13 H21 0.931 . S
C14 N12 1.340 . S
C14 C15 1.407 . S
C14 H20 0.930 . S
C15 C13 1.332 . S
C15 C14 1.407 . S
C15 H17 0.929 1_554 S
H16 C5 0.930 . S
H17 C15 0.929 1_556 S
H18 C33 0.930 . S
H19 C40 0.929 . S
H20 C14 0.930 . S
H21 C13 0.931 . S
H22 C36 0.930 . S
H23 C3 0.930 . S
H24 C9 0.929 . S
H25 C10 0.930 . S
H26 C31 0.930 . S
H27 C6 0.930 . S
H28 C39 0.931 . S
N29 Tb0 2.617 1_656 S
N29 C30 1.379 1_556 S
N29 C33 1.334 . S
C30 N29 1.379 1_554 S
C30 C32 1.416 1_554 S
C30 C38 1.424 . S
C31 H26 0.930 . S
C31 C33 1.390 . S
C31 C34 1.339 . S
C32 C30 1.416 1_556 S
C32 C34 1.416 . S
C32 C65 1.448 . S
C33 H18 0.930 . S
C33 N29 1.334 . S
C33 C31 1.390 . S
C34 C31 1.339 . S
C34 C32 1.416 . S
C34 H41 0.930 . S
N35 Tb0 2.572 1_655 S
N35 C36 1.340 . S
N35 C38 1.361 . S
C36 H22 0.930 . S
C36 N35 1.340 . S
C36 C40 1.407 . S
C37 C38 1.413 . S
C37 C39 1.416 . S
C37 C66 1.427 . S
C38 C30 1.424 . S
C38 N35 1.361 . S
C38 C37 1.413 . S
C39 H28 0.931 . S
C39 C37 1.416 . S
C39 C40 1.332 . S
C40 H19 0.929 . S
C40 C36 1.407 . S
C40 C39 1.332 . S
H41 C34 0.930 . S
H42 C65 0.930 . S
H43 C66 0.929 . S
O44 Tb0 2.468 1_655 S
O44 C64 1.261 . S
O45 Tb0 2.387 . S
O45 C56 1.264 . S
O46 Tb11 2.349 . S
O46 C56 1.243 . S
O47 Tb0 2.428 1_655 S
O47 C64 1.256 . S
O48 Tb0 2.308 . S
O48 C63 1.266 . S
O49 Tb11 2.393 . S
O49 C63 1.248 . S
O50 Tb11 2.465 . S
O50 C75 1.264 . S
O51 Tb11 2.387 . S
O51 C67 1.264 . S
O52 Tb0 2.349 . S
O52 C67 1.243 . S
O53 Tb11 2.428 . S
O53 C75 1.256 . S
O54 Tb11 2.308 . S
O54 C74 1.266 1_554 S
O55 Tb0 2.393 1_556 S
O55 C74 1.248 . S
C56 O45 1.264 . S
C56 O46 1.243 . S
C57 C60 1.399 . S
C57 C62 1.383 . S
C57 C64 1.496 . S
C58 C59 1.399 . S
C58 C62 1.389 . S
C59 C58 1.399 . S
C59 C61 1.380 . S
C59 H76 0.929 . S
C60 C57 1.399 . S
C60 C61 1.392 . S
C60 H77 0.929 1_554 S
C61 C59 1.380 . S
C61 C60 1.392 . S
C61 H78 0.929 1_554 S
C62 C57 1.383 . S
C62 C58 1.389 . S
C62 H79 0.931 . S
C63 O48 1.266 . S
C63 O49 1.248 . S
C64 Tb0 2.802 1_655 S
C64 O44 1.261 . S
C64 O47 1.256 . S
C64 C57 1.496 . S
C65 C32 1.448 . S
C65 H42 0.930 . S
C65 C66 1.328 1_556 S
C66 C37 1.427 . S
C66 H43 0.929 . S
C66 C65 1.328 1_554 S
C67 O51 1.264 . S
C67 O52 1.243 . S
C68 C71 1.399 . S
C68 C72 1.383 . S
C68 C75 1.496 . S
C69 C70 1.399 . S
C69 C72 1.389 . S
C70 C69 1.399 . S
C70 C73 1.380 . S
C70 H80 0.929 . S
C71 C68 1.399 . S
C71 C73 1.392 . S
C71 H81 0.929 . S
C72 C68 1.383 . S
C72 C69 1.389 . S
C72 H82 0.931 . S
C73 C70 1.380 . S
C73 C71 1.392 . S
C73 H83 0.929 . S
C74 O54 1.266 1_556 S
C74 O55 1.248 . S
C75 Tb11 2.802 . S
C75 O50 1.264 . S
C75 O53 1.256 . S
C75 C68 1.496 . S
H76 C59 0.929 . S
H77 C60 0.929 1_556 S
H78 C61 0.929 1_556 S
H79 C62 0.931 . S
H80 C70 0.929 . S
H81 C71 0.929 . S
H82 C72 0.931 . S
H83 C73 0.929 . S
Tb84 N113 2.617 . S
Tb84 N119 2.572 . S
Tb84 O128 2.465 . S
Tb84 O129 2.387 . S
Tb84 O131 2.428 . S
Tb84 O132 2.308 . S
Tb84 O136 2.349 . S
Tb84 O139 2.393 . S
Tb84 C148 2.802 . S
C85 N86 1.379 1_554 S
C85 C88 1.416 1_554 S
C85 C92 1.424 . S
N86 C85 1.379 1_556 S
N86 C89 1.334 . S
N86 Tb95 2.617 1_556 S
C87 C89 1.390 . S
C87 C90 1.339 . S
C87 H107 0.930 . S
C88 C85 1.416 1_556 S
C88 C90 1.416 . S
C88 C94 1.448 1_556 S
C89 N86 1.334 . S
C89 C87 1.390 . S
C89 H100 0.930 . S
C90 C87 1.339 . S
C90 C88 1.416 . S
C90 H111 0.930 . S
C91 C92 1.413 . S
C91 C93 1.427 . S
C91 C97 1.416 . S
C92 C85 1.424 . S
C92 C91 1.413 . S
C92 N96 1.361 . S
C93 C91 1.427 . S
C93 C94 1.328 . S
C93 H108 0.929 . S
C94 C88 1.448 1_554 S
C94 C93 1.328 . S
C94 H109 0.930 1_554 S
Tb95 N86 2.617 1_554 S
Tb95 N96 2.572 . S
Tb95 O130 2.349 . S
Tb95 O133 2.393 1_554 S
Tb95 O134 2.465 . S
Tb95 O135 2.387 . S
Tb95 O137 2.428 . S
Tb95 O138 2.308 . S
Tb95 C159 2.802 . S
N96 C92 1.361 . S
N96 Tb95 2.572 . S
N96 C98 1.340 . S
C97 C91 1.416 . S
C97 C99 1.332 . S
C97 H105 0.931 . S
C98 N96 1.340 . S
C98 C99 1.407 . S
C98 H104 0.930 . S
C99 C97 1.332 . S
C99 C98 1.407 . S
C99 H101 0.929 . S
H100 C89 0.930 . S
H101 C99 0.929 . S
H102 C117 0.930 . S
H103 C124 0.929 . S
H104 C98 0.930 . S
H105 C97 0.931 . S
H106 C120 0.930 . S
H107 C87 0.930 . S
H108 C93 0.929 . S
H109 C94 0.930 1_556 S
H110 C115 0.930 . S
H111 C90 0.930 . S
H112 C123 0.931 1_556 S
N113 Tb84 2.617 . S
N113 C114 1.379 . S
N113 C117 1.334 . S
C114 N113 1.379 . S
C114 C116 1.416 . S
C114 C122 1.424 . S
C115 H110 0.930 . S
C115 C117 1.390 . S
C115 C118 1.339 . S
C116 C114 1.416 . S
C116 C118 1.416 . S
C116 C149 1.448 . S
C117 H102 0.930 . S
C117 N113 1.334 . S
C117 C115 1.390 . S
C118 C115 1.339 . S
C118 C116 1.416 . S
C118 H125 0.930 . S
N119 Tb84 2.572 . S
N119 C120 1.340 1_554 S
N119 C122 1.361 . S
C120 H106 0.930 . S
C120 N119 1.340 1_556 S
C120 C124 1.407 . S
C121 C122 1.413 . S
C121 C123 1.415 . S
C121 C150 1.427 . S
C122 C114 1.424 . S
C122 N119 1.361 . S
C122 C121 1.413 . S
C123 H112 0.931 1_554 S
C123 C121 1.415 . S
C123 C124 1.333 1_554 S
C124 H103 0.929 . S
C124 C120 1.407 . S
C124 C123 1.333 1_556 S
H125 C118 0.930 . S
H126 C149 0.930 . S
H127 C150 0.929 . S
O128 Tb84 2.465 . S
O128 C148 1.264 . S
O129 Tb84 2.387 . S
O129 C140 1.264 . S
O130 Tb95 2.349 . S
O130 C140 1.243 . S
O131 Tb84 2.428 . S
O131 C148 1.256 . S
O132 Tb84 2.308 . S
O132 C147 1.266 1_554 S
O133 Tb95 2.393 1_556 S
O133 C147 1.248 . S
O134 Tb95 2.465 . S
O134 C159 1.264 . S
O135 Tb95 2.387 . S
O135 C151 1.264 . S
O136 Tb84 2.349 . S
O136 C151 1.243 . S
O137 Tb95 2.428 . S
O137 C159 1.256 . S
O138 Tb95 2.308 . S
O138 C158 1.266 . S
O139 Tb84 2.393 . S
O139 C158 1.248 . S
C140 O129 1.264 . S
C140 O130 1.243 . S
C141 C144 1.399 . S
C141 C146 1.383 . S
C141 C148 1.496 . S
C142 C143 1.399 . S
C142 C146 1.389 . S
C143 C142 1.399 . S
C143 C145 1.380 . S
C143 H160 0.929 . S
C144 C141 1.399 . S
C144 C145 1.392 . S
C144 H161 0.929 . S
C145 C143 1.380 . S
C145 C144 1.392 . S
C145 H162 0.929 . S
C146 C141 1.383 . S
C146 C142 1.389 . S
C146 H163 0.931 . S
C147 O132 1.266 1_556 S
C147 O133 1.248 . S
C148 Tb84 2.802 . S
C148 O128 1.264 . S
C148 O131 1.256 . S
C148 C141 1.496 . S
C149 C116 1.448 . S
C149 H126 0.930 . S
C149 C150 1.328 . S
C150 C121 1.427 . S
C150 H127 0.929 . S
C150 C149 1.328 . S
C151 O135 1.264 . S
C151 O136 1.243 . S
C152 C155 1.399 . S
C152 C156 1.383 . S
C152 C159 1.496 . S
C153 C154 1.399 . S
C153 C156 1.389 . S
C154 C153 1.399 . S
C154 C157 1.380 . S
C154 H164 0.929 . S
C155 C152 1.399 . S
C155 C157 1.392 . S
C155 H165 0.929 1_554 S
C156 C152 1.383 . S
C156 C153 1.389 . S
C156 H166 0.931 . S
C157 C154 1.380 . S
C157 C155 1.392 . S
C157 H167 0.929 1_554 S
C158 O138 1.266 . S
C158 O139 1.248 . S
C159 Tb95 2.802 . S
C159 O134 1.264 . S
C159 O137 1.256 . S
C159 C152 1.496 . S
H160 C143 0.929 . S
H161 C144 0.929 . S
H162 C145 0.929 . S
H163 C146 0.931 . S
H164 C154 0.929 . S
H165 C155 0.929 1_556 S
H166 C156 0.931 . S
H167 C157 0.929 1_556 S
Tb168 N197 2.617 . S
Tb168 N203 2.572 1_556 S
Tb168 O212 2.465 1_556 S
Tb168 O213 2.387 . S
Tb168 O215 2.428 . S
Tb168 O216 2.308 1_556 S
Tb168 O220 2.349 . S
Tb168 O223 2.393 . S
Tb168 C232 2.802 1_556 S
C169 N170 1.379 . S
C169 C172 1.416 . S
C169 C176 1.424 1_554 S
N170 C169 1.379 . S
N170 C173 1.334 . S
N170 Tb179 2.617 . S
C171 C173 1.390 . S
C171 C174 1.339 . S
C171 H191 0.930 . S
C172 C169 1.416 . S
C172 C174 1.416 . S
C172 C178 1.448 . S
C173 N170 1.334 . S
C173 C171 1.390 . S
C173 H184 0.930 . S
C174 C171 1.339 . S
C174 C172 1.416 . S
C174 H195 0.930 . S
C175 C176 1.413 . S
C175 C177 1.427 . S
C175 C181 1.416 . S
C176 C169 1.424 1_556 S
C176 C175 1.413 . S
C176 N180 1.361 . S
C177 C175 1.427 . S
C177 C178 1.328 1_556 S
C177 H192 0.929 . S
C178 C172 1.448 . S
C178 C177 1.328 1_554 S
C178 H193 0.930 . S
Tb179 N170 2.617 . S
Tb179 N180 2.572 1_554 S
Tb179 O214 2.349 1_565 S
Tb179 O217 2.393 1_565 S
Tb179 O218 2.465 1_554 S
Tb179 O219 2.387 . S
Tb179 O221 2.428 . S
Tb179 O222 2.308 1_554 S
Tb179 C243 2.802 1_554 S
N180 C176 1.361 . S
N180 Tb179 2.572 1_556 S
N180 C182 1.340 . S
C181 C175 1.416 . S
C181 C183 1.332 . S
C181 H189 0.931 . S
C182 N180 1.340 . S
C182 C183 1.407 . S
C182 H188 0.930 . S
C183 C181 1.332 . S
C183 C182 1.407 . S
C183 H185 0.929 . S
H184 C173 0.930 . S
H185 C183 0.929 . S
H186 C201 0.930 . S
H187 C208 0.929 . S
H188 C182 0.930 . S
H189 C181 0.931 . S
H190 C204 0.930 . S
H191 C171 0.930 . S
H192 C177 0.929 . S
H193 C178 0.930 . S
H194 C199 0.930 . S
H195 C174 0.930 . S
H196 C207 0.931 . S
N197 Tb168 2.617 . S
N197 C198 1.379 . S
N197 C201 1.334 . S
C198 N197 1.379 . S
C198 C200 1.416 . S
C198 C206 1.424 1_556 S
C199 H194 0.930 . S
C199 C201 1.390 . S
C199 C202 1.339 . S
C200 C198 1.416 . S
C200 C202 1.416 . S
C200 C233 1.448 . S
C201 H186 0.930 . S
C201 N197 1.334 . S
C201 C199 1.390 . S
C202 C199 1.339 . S
C202 C200 1.416 . S
C202 H209 0.930 . S
N203 Tb168 2.572 1_554 S
N203 C204 1.340 . S
N203 C206 1.361 . S
C204 H190 0.930 . S
C204 N203 1.340 . S
C204 C208 1.407 . S
C205 C206 1.413 . S
C205 C207 1.416 . S
C205 C234 1.427 . S
C206 C198 1.424 1_554 S
C206 N203 1.361 . S
C206 C205 1.413 . S
C207 H196 0.931 . S
C207 C205 1.416 . S
C207 C208 1.332 . S
C208 H187 0.929 . S
C208 C204 1.407 . S
C208 C207 1.332 . S
H209 C202 0.930 . S
H210 C233 0.930 . S
H211 C234 0.929 . S
O212 Tb168 2.465 1_554 S
O212 C232 1.264 . S
O213 Tb168 2.387 . S
O213 C224 1.264 1_556 S
O214 Tb179 2.349 1_545 S
O214 C224 1.243 . S
O215 Tb168 2.428 . S
O215 C232 1.256 1_556 S
O216 Tb168 2.308 1_554 S
O216 C231 1.266 . S
O217 Tb179 2.393 1_545 S
O217 C231 1.248 . S
O218 Tb179 2.465 1_556 S
O218 C243 1.264 . S
O219 Tb179 2.387 . S
O219 C235 1.264 1_554 S
O220 Tb168 2.349 . S
O220 C235 1.243 1_545 S
O221 Tb179 2.428 . S
O221 C243 1.256 1_554 S
O222 Tb179 2.308 1_556 S
O222 C242 1.266 1_565 S
O223 Tb168 2.393 . S
O223 C242 1.248 . S
C224 O213 1.264 1_554 S
C224 O214 1.243 . S
C225 C228 1.399 1_554 S
C225 C230 1.383 . S
C225 C232 1.496 . S
C226 C227 1.399 . S
C226 C230 1.389 . S
C227 C226 1.399 . S
C227 C229 1.380 1_554 S
C227 H244 0.929 . S
C228 C225 1.399 1_556 S
C228 C229 1.392 . S
C228 H245 0.929 . S
C229 C227 1.380 1_556 S
C229 C228 1.392 . S
C229 H246 0.929 . S
C230 C225 1.383 . S
C230 C226 1.389 . S
C230 H247 0.931 . S
C231 O216 1.266 . S
C231 O217 1.248 . S
C232 Tb168 2.802 1_554 S
C232 O212 1.264 . S
C232 O215 1.256 1_554 S
C232 C225 1.496 . S
C233 C200 1.448 . S
C233 H210 0.930 . S
C233 C234 1.328 1_556 S
C234 C205 1.427 . S
C234 H211 0.929 . S
C234 C233 1.328 1_554 S
C235 O219 1.264 1_556 S
C235 O220 1.243 1_565 S
C236 C239 1.399 1_556 S
C236 C240 1.383 . S
C236 C243 1.496 . S
C237 C238 1.399 . S
C237 C240 1.389 . S
C238 C237 1.399 . S
C238 C241 1.380 1_556 S
C238 H248 0.929 . S
C239 C236 1.399 1_554 S
C239 C241 1.392 . S
C239 H249 0.929 . S
C240 C236 1.383 . S
C240 C237 1.389 . S
C240 H250 0.931 . S
C241 C238 1.380 1_554 S
C241 C239 1.392 . S
C241 H251 0.929 . S
C242 O222 1.266 1_545 S
C242 O223 1.248 . S
C243 Tb179 2.802 1_556 S
C243 O218 1.264 . S
C243 O221 1.256 1_556 S
C243 C236 1.496 . S
H244 C227 0.929 . S
H245 C228 0.929 . S
H246 C229 0.929 . S
H247 C230 0.931 . S
H248 C238 0.929 . S
H249 C239 0.929 . S
H250 C240 0.931 . S
H251 C241 0.929 . S
Tb252 N281 2.617 . S
Tb252 N287 2.572 . S
Tb252 O296 2.465 . S
Tb252 O297 2.387 . S
Tb252 O299 2.428 . S
Tb252 O300 2.308 . S
Tb252 O304 2.349 . S
Tb252 O307 2.393 . S
Tb252 C316 2.802 . S
C253 N254 1.379 . S
C253 C256 1.416 . S
C253 C260 1.424 . S
N254 C253 1.379 . S
N254 C257 1.334 1_554 S
N254 Tb263 2.617 . S
C255 C257 1.390 . S
C255 C258 1.339 . S
C255 H275 0.930 . S
C256 C253 1.416 . S
C256 C258 1.416 1_554 S
C256 C262 1.448 . S
C257 N254 1.334 1_556 S
C257 C255 1.390 . S
C257 H268 0.930 . S
C258 C255 1.339 . S
C258 C256 1.416 1_556 S
C258 H279 0.930 . S
C259 C260 1.413 . S
C259 C261 1.427 . S
C259 C265 1.416 . S
C260 C253 1.424 . S
C260 C259 1.413 . S
C260 N264 1.361 . S
C261 C259 1.427 . S
C261 C262 1.328 . S
C261 H276 0.929 . S
C262 C256 1.448 . S
C262 C261 1.328 . S
C262 H277 0.930 . S
Tb263 N254 2.617 . S
Tb263 N264 2.572 . S
Tb263 O298 2.349 . S
Tb263 O301 2.393 . S
Tb263 O302 2.465 . S
Tb263 O303 2.387 . S
Tb263 O305 2.428 . S
Tb263 O306 2.308 . S
Tb263 C327 2.802 . S
N264 C260 1.361 . S
N264 Tb263 2.572 . S
N264 C266 1.340 . S
C265 C259 1.416 . S
C265 C267 1.332 . S
C265 H273 0.931 . S
C266 N264 1.340 . S
C266 C267 1.407 . S
C266 H272 0.930 . S
C267 C265 1.332 . S
C267 C266 1.407 . S
C267 H269 0.929 . S
H268 C257 0.930 . S
H269 C267 0.929 . S
H270 C285 0.930 . S
H271 C292 0.929 . S
H272 C266 0.930 . S
H273 C265 0.931 . S
H274 C288 0.930 . S
H275 C255 0.930 . S
H276 C261 0.929 . S
H277 C262 0.930 . S
H278 C283 0.930 . S
H279 C258 0.930 . S
H280 C291 0.931 . S
N281 Tb252 2.617 . S
N281 C282 1.379 . S
N281 C285 1.334 . S
C282 N281 1.379 . S
C282 C284 1.416 . S
C282 C290 1.424 . S
C283 H278 0.930 . S
C283 C285 1.390 . S
C283 C286 1.339 . S
C284 C282 1.416 . S
C284 C286 1.416 . S
C284 C317 1.448 . S
C285 H270 0.930 . S
C285 N281 1.334 . S
C285 C283 1.390 . S
C286 C283 1.339 . S
C286 C284 1.416 . S
C286 H293 0.930 . S
N287 Tb252 2.572 . S
N287 C288 1.340 . S
N287 C290 1.361 . S
C288 H274 0.930 . S
C288 N287 1.340 . S
C288 C292 1.407 . S
C289 C290 1.413 . S
C289 C291 1.416 . S
C289 C318 1.427 . S
C290 C282 1.424 . S
C290 N287 1.361 . S
C290 C289 1.413 . S
C291 H280 0.931 . S
C291 C289 1.416 . S
C291 C292 1.332 . S
C292 H271 0.929 . S
C292 C288 1.407 . S
C292 C291 1.332 . S
H293 C286 0.930 . S
H294 C317 0.930 . S
H295 C318 0.929 . S
O296 Tb252 2.465 . S
O296 C316 1.264 . S
O297 Tb252 2.387 . S
O297 C308 1.264 . S
O298 Tb263 2.349 . S
O298 C308 1.243 . S
O299 Tb252 2.428 . S
O299 C316 1.256 . S
O300 Tb252 2.308 . S
O300 C315 1.266 . S
O301 Tb263 2.393 . S
O301 C315 1.248 . S
O302 Tb263 2.465 . S
O302 C327 1.264 . S
O303 Tb263 2.387 . S
O303 C319 1.264 . S
O304 Tb252 2.349 . S
O304 C319 1.243 . S
O305 Tb263 2.428 . S
O305 C327 1.256 . S
O306 Tb263 2.308 . S
O306 C326 1.266 . S
O307 Tb252 2.393 . S
O307 C326 1.248 . S
C308 O297 1.264 . S
C308 O298 1.243 . S
C309 C312 1.399 . S
C309 C314 1.383 . S
C309 C316 1.496 . S
C310 C311 1.399 . S
C310 C314 1.389 . S
C311 C310 1.399 . S
C311 C313 1.380 . S
C311 H328 0.929 . S
C312 C309 1.399 . S
C312 C313 1.392 . S
C312 H329 0.929 . S
C313 C311 1.380 . S
C313 C312 1.392 . S
C313 H330 0.929 . S
C314 C309 1.383 . S
C314 C310 1.389 . S
C314 H331 0.931 . S
C315 O300 1.266 . S
C315 O301 1.248 . S
C316 Tb252 2.802 . S
C316 O296 1.264 . S
C316 O299 1.256 . S
C316 C309 1.496 . S
C317 C284 1.448 . S
C317 H294 0.930 . S
C317 C318 1.328 . S
C318 C289 1.427 . S
C318 H295 0.929 . S
C318 C317 1.328 . S
C319 O303 1.264 . S
C319 O304 1.243 . S
C320 C323 1.399 . S
C320 C324 1.383 . S
C320 C327 1.496 . S
C321 C322 1.399 . S
C321 C324 1.389 . S
C322 C321 1.399 . S
C322 C325 1.380 . S
C322 H332 0.929 . S
C323 C320 1.399 . S
C323 C325 1.392 . S
C323 H333 0.929 . S
C324 C320 1.383 . S
C324 C321 1.389 . S
C324 H334 0.931 . S
C325 C322 1.380 . S
C325 C323 1.392 . S
C325 H335 0.929 . S
C326 O306 1.266 . S
C326 O307 1.248 . S
C327 Tb263 2.802 . S
C327 O302 1.264 . S
C327 O305 1.256 . S
C327 C320 1.496 . S
H328 C311 0.929 . S
H329 C312 0.929 . S
H330 C313 0.929 . S
H331 C314 0.931 . S
H332 C322 0.929 . S
H333 C323 0.929 . S
H334 C324 0.931 . S
H335 C325 0.929 . S
Tb336 N365 2.617 . S
Tb336 N371 2.572 . S
Tb336 O380 2.465 . S
Tb336 O381 2.387 . S
Tb336 O383 2.428 . S
Tb336 O384 2.308 . S
Tb336 O388 2.349 . S
Tb336 O391 2.393 . S
Tb336 C400 2.802 . S
C337 N338 1.379 1_554 S
C337 C340 1.416 1_554 S
C337 C344 1.424 . S
N338 C337 1.379 1_556 S
N338 C341 1.334 . S
N338 Tb347 2.617 1_556 S
C339 C341 1.390 . S
C339 C342 1.339 . S
C339 H359 0.930 . S
C340 C337 1.416 1_556 S
C340 C342 1.416 . S
C340 C346 1.448 1_556 S
C341 N338 1.334 . S
C341 C339 1.390 . S
C341 H352 0.930 . S
C342 C339 1.339 . S
C342 C340 1.416 . S
C342 H363 0.930 . S
C343 C344 1.413 . S
C343 C345 1.427 . S
C343 C349 1.416 . S
C344 C337 1.424 . S
C344 C343 1.413 . S
C344 N348 1.361 . S
C345 C343 1.427 . S
C345 C346 1.328 . S
C345 H360 0.929 . S
C346 C340 1.448 1_554 S
C346 C345 1.328 . S
C346 H361 0.931 . S
Tb347 N338 2.617 1_554 S
Tb347 N348 2.572 . S
Tb347 O382 2.349 . S
Tb347 O385 2.393 1_554 S
Tb347 O386 2.465 . S
Tb347 O387 2.387 . S
Tb347 O389 2.428 . S
Tb347 O390 2.308 . S
Tb347 C411 2.802 . S
N348 C344 1.361 . S
N348 Tb347 2.572 . S
N348 C350 1.340 . S
C349 C343 1.416 . S
C349 C351 1.332 . S
C349 H357 0.931 . S
C350 N348 1.340 . S
C350 C351 1.407 . S
C350 H356 0.930 . S
C351 C349 1.332 . S
C351 C350 1.407 . S
C351 H353 0.929 . S
H352 C341 0.930 . S
H353 C351 0.929 . S
H354 C369 0.930 . S
H355 C376 0.929 . S
H356 C350 0.930 . S
H357 C349 0.931 . S
H358 C372 0.930 . S
H359 C339 0.930 . S
H360 C345 0.929 . S
H361 C346 0.931 . S
H362 C367 0.930 . S
H363 C342 0.930 . S
H364 C375 0.931 . S
N365 Tb336 2.617 . S
N365 C366 1.379 . S
N365 C369 1.334 . S
C366 N365 1.379 . S
C366 C368 1.416 . S
C366 C374 1.424 . S
C367 H362 0.930 . S
C367 C369 1.390 . S
C367 C370 1.339 . S
C368 C366 1.416 . S
C368 C370 1.416 . S
C368 C401 1.448 . S
C369 H354 0.930 . S
C369 N365 1.334 . S
C369 C367 1.390 . S
C370 C367 1.339 . S
C370 C368 1.416 . S
C370 H377 0.930 . S
N371 Tb336 2.572 . S
N371 C372 1.340 1_554 S
N371 C374 1.361 . S
C372 H358 0.930 . S
C372 N371 1.340 1_556 S
C372 C376 1.407 . S
C373 C374 1.413 . S
C373 C375 1.416 1_554 S
C373 C402 1.427 . S
C374 C366 1.424 . S
C374 N371 1.361 . S
C374 C373 1.413 . S
C375 H364 0.931 . S
C375 C373 1.416 1_556 S
C375 C376 1.332 . S
C376 H355 0.929 . S
C376 C372 1.407 . S
C376 C375 1.332 . S
H377 C370 0.930 . S
H378 C401 0.930 . S
H379 C402 0.929 . S
O380 Tb336 2.465 . S
O380 C400 1.264 . S
O381 Tb336 2.387 . S
O381 C392 1.264 . S
O382 Tb347 2.349 . S
O382 C392 1.243 . S
O383 Tb336 2.428 . S
O383 C400 1.256 . S
O384 Tb336 2.308 . S
O384 C399 1.266 1_554 S
O385 Tb347 2.393 1_556 S
O385 C399 1.248 . S
O386 Tb347 2.465 . S
O386 C411 1.264 . S
O387 Tb347 2.387 . S
O387 C403 1.264 . S
O388 Tb336 2.349 . S
O388 C403 1.243 . S
O389 Tb347 2.428 . S
O389 C411 1.256 . S
O390 Tb347 2.308 . S
O390 C410 1.266 . S
O391 Tb336 2.393 . S
O391 C410 1.248 . S
C392 O381 1.264 . S
C392 O382 1.243 . S
C393 C396 1.399 . S
C393 C398 1.383 . S
C393 C400 1.496 . S
C394 C395 1.399 . S
C394 C398 1.389 . S
C395 C394 1.399 . S
C395 C397 1.380 . S
C395 H412 0.929 . S
C396 C393 1.399 . S
C396 C397 1.392 . S
C396 H413 0.929 . S
C397 C395 1.380 . S
C397 C396 1.392 . S
C397 H414 0.929 . S
C398 C393 1.383 . S
C398 C394 1.389 . S
C398 H415 0.931 1_554 S
C399 O384 1.266 1_556 S
C399 O385 1.248 . S
C400 Tb336 2.802 . S
C400 O380 1.264 . S
C400 O383 1.256 . S
C400 C393 1.496 . S
C401 C368 1.448 . S
C401 H378 0.930 . S
C401 C402 1.328 . S
C402 C373 1.427 . S
C402 H379 0.929 . S
C402 C401 1.328 . S
C403 O387 1.264 . S
C403 O388 1.243 . S
C404 C407 1.399 . S
C404 C408 1.383 . S
C404 C411 1.496 . S
C405 C406 1.399 . S
C405 C408 1.389 . S
C406 C405 1.399 . S
C406 C409 1.380 . S
C406 H416 0.929 . S
C407 C404 1.399 . S
C407 C409 1.392 . S
C407 H417 0.929 1_554 S
C408 C404 1.383 . S
C408 C405 1.389 . S
C408 H418 0.931 . S
C409 C406 1.380 . S
C409 C407 1.392 . S
C409 H419 0.929 1_554 S
C410 O390 1.266 . S
C410 O391 1.248 . S
C411 Tb347 2.802 . S
C411 O386 1.264 . S
C411 O389 1.256 . S
C411 C404 1.496 . S
H412 C395 0.929 . S
H413 C396 0.929 . S
H414 C397 0.929 . S
H415 C398 0.931 1_556 S
H416 C406 0.929 . S
H417 C407 0.929 1_556 S
H418 C408 0.931 . S
H419 C409 0.929 1_556 S
Tb420 N449 2.617 . S
Tb420 N455 2.572 . S
Tb420 O464 2.465 . S
Tb420 O465 2.387 . S
Tb420 O467 2.428 . S
Tb420 O468 2.308 . S
Tb420 O472 2.349 . S
Tb420 O475 2.393 . S
Tb420 C484 2.802 . S
C421 N422 1.379 . S
C421 C424 1.416 . S
C421 C428 1.424 . S
N422 C421 1.379 . S
N422 C425 1.334 . S
N422 Tb431 2.617 . S
C423 C425 1.390 . S
C423 C426 1.339 . S
C423 H443 0.930 1_554 S
C424 C421 1.416 . S
C424 C426 1.416 . S
C424 C430 1.448 . S
C425 N422 1.334 . S
C425 C423 1.390 . S
C425 H436 0.930 . S
C426 C423 1.339 . S
C426 C424 1.416 . S
C426 H447 0.930 . S
C427 C428 1.413 . S
C427 C429 1.427 . S
C427 C433 1.416 . S
C428 C421 1.424 . S
C428 C427 1.413 . S
C428 N432 1.361 . S
C429 C427 1.427 . S
C429 C430 1.328 . S
C429 H444 0.929 . S
C430 C424 1.448 . S
C430 C429 1.328 . S
C430 H445 0.930 . S
Tb431 N422 2.617 . S
Tb431 N432 2.572 . S
Tb431 O466 2.349 . S
Tb431 O469 2.393 . S
Tb431 O470 2.465 . S
Tb431 O471 2.387 . S
Tb431 O473 2.428 . S
Tb431 O474 2.308 . S
Tb431 C495 2.802 . S
N432 C428 1.361 . S
N432 Tb431 2.572 . S
N432 C434 1.340 . S
C433 C427 1.416 . S
C433 C435 1.332 . S
C433 H441 0.931 . S
C434 N432 1.340 . S
C434 C435 1.407 . S
C434 H440 0.930 . S
C435 C433 1.332 . S
C435 C434 1.407 . S
C435 H437 0.929 . S
H436 C425 0.930 . S
H437 C435 0.929 . S
H438 C453 0.930 . S
H439 C460 0.929 1_556 S
H440 C434 0.930 . S
H441 C433 0.931 . S
H442 C456 0.930 . S
H443 C423 0.930 1_556 S
H444 C429 0.929 . S
H445 C430 0.930 . S
H446 C451 0.930 . S
H447 C426 0.930 . S
H448 C459 0.931 . S
N449 Tb420 2.617 . S
N449 C450 1.379 . S
N449 C453 1.334 . S
C450 N449 1.379 . S
C450 C452 1.416 . S
C450 C458 1.424 . S
C451 H446 0.930 . S
C451 C453 1.390 . S
C451 C454 1.339 . S
C452 C450 1.416 . S
C452 C454 1.416 . S
C452 C485 1.448 . S
C453 H438 0.930 . S
C453 N449 1.334 . S
C453 C451 1.390 . S
C454 C451 1.339 . S
C454 C452 1.416 . S
C454 H461 0.930 . S
N455 Tb420 2.572 . S
N455 C456 1.340 . S
N455 C458 1.361 . S
C456 H442 0.930 . S
C456 N455 1.340 . S
C456 C460 1.407 . S
C457 C458 1.413 . S
C457 C459 1.416 . S
C457 C486 1.427 . S
C458 C450 1.424 . S
C458 N455 1.361 . S
C458 C457 1.413 . S
C459 H448 0.931 . S
C459 C457 1.416 . S
C459 C460 1.332 . S
C460 H439 0.929 1_554 S
C460 C456 1.407 . S
C460 C459 1.332 . S
H461 C454 0.930 . S
H462 C485 0.930 . S
H463 C486 0.929 . S
O464 Tb420 2.465 . S
O464 C484 1.264 . S
O465 Tb420 2.387 . S
O465 C476 1.264 . S
O466 Tb431 2.349 . S
O466 C476 1.243 . S
O467 Tb420 2.428 . S
O467 C484 1.256 . S
O468 Tb420 2.308 . S
O468 C483 1.266 . S
O469 Tb431 2.393 . S
O469 C483 1.248 . S
O470 Tb431 2.465 . S
O470 C495 1.264 . S
O471 Tb431 2.387 . S
O471 C487 1.264 . S
O472 Tb420 2.349 . S
O472 C487 1.243 . S
O473 Tb431 2.428 . S
O473 C495 1.256 . S
O474 Tb431 2.308 . S
O474 C494 1.266 . S
O475 Tb420 2.393 . S
O475 C494 1.248 . S
C476 O465 1.264 . S
C476 O466 1.243 . S
C477 C480 1.399 . S
C477 C482 1.383 . S
C477 C484 1.496 . S
C478 C479 1.399 . S
C478 C482 1.389 . S
C479 C478 1.399 . S
C479 C481 1.380 . S
C479 H496 0.929 . S
C480 C477 1.399 . S
C480 C481 1.392 . S
C480 H497 0.929 . S
C481 C479 1.380 . S
C481 C480 1.392 . S
C481 H498 0.929 . S
C482 C477 1.383 . S
C482 C478 1.389 . S
C482 H499 0.931 . S
C483 O468 1.266 . S
C483 O469 1.248 . S
C484 Tb420 2.802 . S
C484 O464 1.264 . S
C484 O467 1.256 . S
C484 C477 1.496 . S
C485 C452 1.448 . S
C485 H462 0.930 . S
C485 C486 1.328 . S
C486 C457 1.427 . S
C486 H463 0.929 . S
C486 C485 1.328 . S
C487 O471 1.264 . S
C487 O472 1.243 . S
C488 C491 1.399 1_655 S
C488 C492 1.383 . S
C488 C495 1.496 . S
C489 C490 1.399 . S
C489 C492 1.389 1_455 S
C490 C489 1.399 . S
C490 C493 1.380 . S
C490 H500 0.929 . S
C491 C488 1.399 1_455 S
C491 C493 1.392 . S
C491 H501 0.929 1_455 S
C492 C488 1.383 . S
C492 C489 1.389 1_655 S
C492 H502 0.931 . S
C493 C490 1.380 . S
C493 C491 1.392 . S
C493 H503 0.929 . S
C494 O474 1.266 . S
C494 O475 1.248 . S
C495 Tb431 2.802 . S
C495 O470 1.264 . S
C495 O473 1.256 . S
C495 C488 1.496 . S
H496 C479 0.929 . S
H497 C480 0.929 . S
H498 C481 0.929 . S
H499 C482 0.931 . S
H500 C490 0.929 . S
H501 C491 0.929 1_655 S
H502 C492 0.931 . S
H503 C493 0.929 . S
Tb504 N533 2.617 . S
Tb504 N539 2.572 . S
Tb504 O548 2.465 . S
Tb504 O549 2.387 . S
Tb504 O551 2.428 . S
Tb504 O552 2.308 . S
Tb504 O556 2.349 . S
Tb504 O559 2.393 . S
Tb504 C568 2.802 . S
C505 N506 1.379 . S
C505 C508 1.416 . S
C505 C512 1.424 . S
N506 C505 1.379 . S
N506 C509 1.334 . S
N506 Tb515 2.617 . S
C507 C509 1.390 . S
C507 C510 1.339 . S
C507 H527 0.930 1_556 S
C508 C505 1.416 . S
C508 C510 1.416 . S
C508 C514 1.448 . S
C509 N506 1.334 . S
C509 C507 1.390 . S
C509 H520 0.930 . S
C510 C507 1.339 . S
C510 C508 1.416 . S
C510 H531 0.930 . S
C511 C512 1.413 . S
C511 C513 1.427 . S
C511 C517 1.416 . S
C512 C505 1.424 . S
C512 C511 1.413 . S
C512 N516 1.361 . S
C513 C511 1.427 . S
C513 C514 1.328 . S
C513 H528 0.929 . S
C514 C508 1.448 . S
C514 C513 1.328 . S
C514 H529 0.930 . S
Tb515 N506 2.617 . S
Tb515 N516 2.572 . S
Tb515 O550 2.349 . S
Tb515 O553 2.393 . S
Tb515 O554 2.465 . S
Tb515 O555 2.387 . S
Tb515 O557 2.428 . S
Tb515 O558 2.308 . S
Tb515 C579 2.802 . S
N516 C512 1.361 . S
N516 Tb515 2.572 . S
N516 C518 1.340 . S
C517 C511 1.416 . S
C517 C519 1.332 . S
C517 H525 0.931 . S
C518 N516 1.340 . S
C518 C519 1.407 . S
C518 H524 0.930 . S
C519 C517 1.332 . S
C519 C518 1.407 . S
C519 H521 0.929 . S
H520 C509 0.930 . S
H521 C519 0.929 . S
H522 C537 0.930 . S
H523 C544 0.929 . S
H524 C518 0.930 . S
H525 C517 0.931 . S
H526 C540 0.930 . S
H527 C507 0.930 1_554 S
H528 C513 0.929 . S
H529 C514 0.930 . S
H530 C535 0.930 . S
H531 C510 0.930 . S
H532 C543 0.931 . S
N533 Tb504 2.617 . S
N533 C534 1.379 . S
N533 C537 1.334 . S
C534 N533 1.379 . S
C534 C536 1.416 . S
C534 C542 1.424 . S
C535 H530 0.930 . S
C535 C537 1.390 . S
C535 C538 1.339 . S
C536 C534 1.416 . S
C536 C538 1.416 . S
C536 C569 1.448 . S
C537 H522 0.930 . S
C537 N533 1.334 . S
C537 C535 1.390 . S
C538 C535 1.339 . S
C538 C536 1.416 . S
C538 H545 0.930 . S
N539 Tb504 2.572 . S
N539 C540 1.340 . S
N539 C542 1.361 . S
C540 H526 0.930 . S
C540 N539 1.340 . S
C540 C544 1.407 . S
C541 C542 1.413 . S
C541 C543 1.416 . S
C541 C570 1.427 . S
C542 C534 1.424 . S
C542 N539 1.361 . S
C542 C541 1.413 . S
C543 H532 0.931 . S
C543 C541 1.416 . S
C543 C544 1.332 . S
C544 H523 0.929 . S
C544 C540 1.407 . S
C544 C543 1.332 . S
H545 C538 0.930 . S
H546 C569 0.930 . S
H547 C570 0.929 . S
O548 Tb504 2.465 . S
O548 C568 1.264 . S
O549 Tb504 2.387 . S
O549 C560 1.264 . S
O550 Tb515 2.349 . S
O550 C560 1.243 . S
O551 Tb504 2.428 . S
O551 C568 1.256 . S
O552 Tb504 2.308 . S
O552 C567 1.266 . S
O553 Tb515 2.393 . S
O553 C567 1.248 . S
O554 Tb515 2.465 . S
O554 C579 1.264 . S
O555 Tb515 2.387 . S
O555 C571 1.264 . S
O556 Tb504 2.349 . S
O556 C571 1.243 . S
O557 Tb515 2.428 . S
O557 C579 1.256 . S
O558 Tb515 2.308 . S
O558 C578 1.266 . S
O559 Tb504 2.393 . S
O559 C578 1.248 . S
C560 O549 1.264 . S
C560 O550 1.243 . S
C561 C564 1.399 . S
C561 C566 1.383 . S
C561 C568 1.496 . S
C562 C563 1.399 . S
C562 C566 1.389 . S
C563 C562 1.399 . S
C563 C565 1.380 . S
C563 H580 0.929 . S
C564 C561 1.399 . S
C564 C565 1.392 . S
C564 H581 0.929 . S
C565 C563 1.380 . S
C565 C564 1.392 . S
C565 H582 0.929 . S
C566 C561 1.383 . S
C566 C562 1.389 . S
C566 H583 0.931 . S
C567 O552 1.266 . S
C567 O553 1.248 . S
C568 Tb504 2.802 . S
C568 O548 1.264 . S
C568 O551 1.256 . S
C568 C561 1.496 . S
C569 C536 1.448 . S
C569 H546 0.930 . S
C569 C570 1.328 . S
C570 C541 1.427 . S
C570 H547 0.929 . S
C570 C569 1.328 . S
C571 O555 1.264 . S
C571 O556 1.243 . S
C572 C575 1.399 . S
C572 C576 1.383 . S
C572 C579 1.496 . S
C573 C574 1.399 . S
C573 C576 1.389 . S
C574 C573 1.399 . S
C574 C577 1.380 . S
C574 H584 0.929 . S
C575 C572 1.399 . S
C575 C577 1.392 . S
C575 H585 0.929 . S
C576 C572 1.383 . S
C576 C573 1.389 . S
C576 H586 0.931 . S
C577 C574 1.380 . S
C577 C575 1.392 . S
C577 H587 0.929 . S
C578 O558 1.266 . S
C578 O559 1.248 . S
C579 Tb515 2.802 . S
C579 O554 1.264 . S
C579 O557 1.256 . S
C579 C572 1.496 . S
H580 C563 0.929 . S
H581 C564 0.929 . S
H582 C565 0.929 . S
H583 C566 0.931 . S
H584 C574 0.929 . S
H585 C575 0.929 . S
H586 C576 0.931 . S
H587 C577 0.929 . S
Tb588 N617 2.617 . S
Tb588 N623 2.572 . S
Tb588 O632 2.465 . S
Tb588 O633 2.387 . S
Tb588 O635 2.428 . S
Tb588 O636 2.308 . S
Tb588 O640 2.349 . S
Tb588 O643 2.393 . S
Tb588 C652 2.802 . S
C589 N590 1.379 . S
C589 C592 1.416 . S
C589 C596 1.424 . S
N590 C589 1.379 . S
N590 C593 1.334 . S
N590 Tb599 2.617 . S
C591 C593 1.390 . S
C591 C594 1.339 . S
C591 H611 0.930 . S
C592 C589 1.416 . S
C592 C594 1.416 . S
C592 C598 1.448 . S
C593 N590 1.334 . S
C593 C591 1.390 . S
C593 H604 0.930 . S
C594 C591 1.339 . S
C594 C592 1.416 . S
C594 H615 0.930 . S
C595 C596 1.413 . S
C595 C597 1.427 . S
C595 C601 1.416 . S
C596 C589 1.424 . S
C596 C595 1.413 . S
C596 N600 1.361 . S
C597 C595 1.427 . S
C597 C598 1.328 . S
C597 H612 0.929 . S
C598 C592 1.448 . S
C598 C597 1.328 . S
C598 H613 0.930 . S
Tb599 N590 2.617 . S
Tb599 N600 2.572 . S
Tb599 O634 2.349 . S
Tb599 O637 2.393 . S
Tb599 O638 2.465 . S
Tb599 O639 2.387 . S
Tb599 O641 2.428 . S
Tb599 O642 2.308 . S
Tb599 C663 2.802 . S
N600 C596 1.361 . S
N600 Tb599 2.572 . S
N600 C602 1.340 . S
C601 C595 1.416 . S
C601 C603 1.332 . S
C601 H609 0.931 . S
C602 N600 1.340 . S
C602 C603 1.407 . S
C602 H608 0.930 . S
C603 C601 1.332 . S
C603 C602 1.407 . S
C603 H605 0.929 1_556 S
H604 C593 0.930 . S
H605 C603 0.929 1_554 S
H606 C621 0.930 . S
H607 C628 0.929 . S
H608 C602 0.930 . S
H609 C601 0.931 . S
H610 C624 0.930 . S
H611 C591 0.930 . S
H612 C597 0.929 . S
H613 C598 0.930 . S
H614 C619 0.930 . S
H615 C594 0.930 . S
H616 C627 0.931 . S
N617 Tb588 2.617 . S
N617 C618 1.379 . S
N617 C621 1.334 . S
C618 N617 1.379 . S
C618 C620 1.416 . S
C618 C626 1.424 . S
C619 H614 0.930 . S
C619 C621 1.390 1_554 S
C619 C622 1.339 1_554 S
C620 C618 1.416 . S
C620 C622 1.416 . S
C620 C653 1.448 . S
C621 H606 0.930 . S
C621 N617 1.334 . S
C621 C619 1.390 1_556 S
C622 C619 1.339 1_556 S
C622 C620 1.416 . S
C622 H629 0.930 . S
N623 Tb588 2.572 . S
N623 C624 1.340 . S
N623 C626 1.361 . S
C624 H610 0.930 . S
C624 N623 1.340 . S
C624 C628 1.407 . S
C625 C626 1.413 . S
C625 C627 1.416 . S
C625 C654 1.427 . S
C626 C618 1.424 . S
C626 N623 1.361 . S
C626 C625 1.413 . S
C627 H616 0.931 . S
C627 C625 1.416 . S
C627 C628 1.332 . S
C628 H607 0.929 . S
C628 C624 1.407 . S
C628 C627 1.332 . S
H629 C622 0.930 . S
H630 C653 0.930 . S
H631 C654 0.929 . S
O632 Tb588 2.465 . S
O632 C652 1.264 . S
O633 Tb588 2.387 . S
O633 C644 1.264 . S
O634 Tb599 2.349 . S
O634 C644 1.243 . S
O635 Tb588 2.428 . S
O635 C652 1.256 . S
O636 Tb588 2.308 . S
O636 C651 1.266 . S
O637 Tb599 2.393 . S
O637 C651 1.248 . S
O638 Tb599 2.465 . S
O638 C663 1.264 . S
O639 Tb599 2.387 . S
O639 C655 1.264 . S
O640 Tb588 2.349 . S
O640 C655 1.243 . S
O641 Tb599 2.428 . S
O641 C663 1.256 . S
O642 Tb599 2.308 . S
O642 C662 1.266 . S
O643 Tb588 2.393 . S
O643 C662 1.248 . S
C644 O633 1.264 . S
C644 O634 1.243 . S
C645 C648 1.399 . S
C645 C650 1.383 . S
C645 C652 1.496 . S
C646 C647 1.399 . S
C646 C650 1.389 . S
C647 C646 1.399 . S
C647 C649 1.380 . S
C647 H664 0.929 . S
C648 C645 1.399 . S
C648 C649 1.392 . S
C648 H665 0.929 . S
C649 C647 1.380 . S
C649 C648 1.392 . S
C649 H666 0.929 . S
C650 C645 1.383 . S
C650 C646 1.389 . S
C650 H667 0.931 . S
C651 O636 1.266 . S
C651 O637 1.248 . S
C652 Tb588 2.802 . S
C652 O632 1.264 . S
C652 O635 1.256 . S
C652 C645 1.496 . S
C653 C620 1.448 . S
C653 H630 0.930 . S
C653 C654 1.328 . S
C654 C625 1.427 . S
C654 H631 0.929 . S
C654 C653 1.328 . S
C655 O639 1.264 . S
C655 O640 1.243 . S
C656 C659 1.399 . S
C656 C660 1.383 . S
C656 C663 1.496 . S
C657 C658 1.399 . S
C657 C660 1.389 . S
C658 C657 1.399 . S
C658 C661 1.380 . S
C658 H668 0.929 . S
C659 C656 1.399 . S
C659 C661 1.392 . S
C659 H669 0.929 . S
C660 C656 1.383 . S
C660 C657 1.389 . S
C660 H670 0.931 . S
C661 C658 1.380 . S
C661 C659 1.392 . S
C661 H671 0.929 . S
C662 O642 1.266 . S
C662 O643 1.248 . S
C663 Tb599 2.802 . S
C663 O638 1.264 . S
C663 O641 1.256 . S
C663 C656 1.496 . S
H664 C647 0.929 . S
H665 C648 0.929 . S
H666 C649 0.929 . S
H667 C650 0.931 . S
H668 C658 0.929 . S
H669 C659 0.929 . S
H670 C660 0.931 . S
H671 C661 0.929 . S
Tb672 N701 2.617 . S
Tb672 N707 2.572 . S
Tb672 O716 2.465 . S
Tb672 O717 2.387 . S
Tb672 O719 2.428 . S
Tb672 O720 2.308 . S
Tb672 O724 2.349 . S
Tb672 O727 2.393 . S
Tb672 C736 2.802 . S
C673 N674 1.379 . S
C673 C676 1.416 . S
C673 C680 1.424 . S
N674 C673 1.379 . S
N674 C677 1.334 . S
N674 Tb683 2.617 . S
C675 C677 1.390 . S
C675 C678 1.339 . S
C675 H695 0.930 1_556 S
C676 C673 1.416 . S
C676 C678 1.416 . S
C676 C682 1.448 . S
C677 N674 1.334 . S
C677 C675 1.390 . S
C677 H688 0.930 . S
C678 C675 1.339 . S
C678 C676 1.416 . S
C678 H699 0.930 . S
C679 C680 1.413 . S
C679 C681 1.427 . S
C679 C685 1.416 . S
C680 C673 1.424 . S
C680 C679 1.413 . S
C680 N684 1.361 . S
C681 C679 1.427 . S
C681 C682 1.328 . S
C681 H696 0.929 . S
C682 C676 1.448 . S
C682 C681 1.328 . S
C682 H697 0.930 . S
Tb683 N674 2.617 . S
Tb683 N684 2.572 . S
Tb683 O718 2.349 . S
Tb683 O721 2.393 . S
Tb683 O722 2.465 . S
Tb683 O723 2.387 . S
Tb683 O725 2.428 . S
Tb683 O726 2.308 . S
Tb683 C747 2.802 . S
N684 C680 1.361 . S
N684 Tb683 2.572 . S
N684 C686 1.340 . S
C685 C679 1.416 . S
C685 C687 1.332 . S
C685 H693 0.931 . S
C686 N684 1.340 . S
C686 C687 1.407 . S
C686 H692 0.930 . S
C687 C685 1.332 . S
C687 C686 1.407 . S
C687 H689 0.929 . S
H688 C677 0.930 . S
H689 C687 0.929 . S
H690 C705 0.930 . S
H691 C712 0.929 1_554 S
H692 C686 0.930 . S
H693 C685 0.931 . S
H694 C708 0.930 . S
H695 C675 0.930 1_554 S
H696 C681 0.929 . S
H697 C682 0.930 . S
H698 C703 0.930 . S
H699 C678 0.930 . S
H700 C711 0.931 . S
N701 Tb672 2.617 . S
N701 C702 1.379 . S
N701 C705 1.334 . S
C702 N701 1.379 . S
C702 C704 1.416 . S
C702 C710 1.424 . S
C703 H698 0.930 . S
C703 C705 1.390 . S
C703 C706 1.339 . S
C704 C702 1.416 . S
C704 C706 1.416 . S
C704 C737 1.448 . S
C705 H690 0.930 . S
C705 N701 1.334 . S
C705 C703 1.390 . S
C706 C703 1.339 . S
C706 C704 1.416 . S
C706 H713 0.930 . S
N707 Tb672 2.572 . S
N707 C708 1.340 . S
N707 C710 1.361 . S
C708 H694 0.930 . S
C708 N707 1.340 . S
C708 C712 1.407 . S
C709 C710 1.413 . S
C709 C711 1.416 . S
C709 C738 1.427 . S
C710 C702 1.424 . S
C710 N707 1.361 . S
C710 C709 1.413 . S
C711 H700 0.931 . S
C711 C709 1.416 . S
C711 C712 1.332 . S
C712 H691 0.929 1_556 S
C712 C708 1.407 . S
C712 C711 1.332 . S
H713 C706 0.930 . S
H714 C737 0.930 . S
H715 C738 0.929 . S
O716 Tb672 2.465 . S
O716 C736 1.264 . S
O717 Tb672 2.387 . S
O717 C728 1.264 . S
O718 Tb683 2.349 . S
O718 C728 1.243 . S
O719 Tb672 2.428 . S
O719 C736 1.256 . S
O720 Tb672 2.308 . S
O720 C735 1.266 . S
O721 Tb683 2.393 . S
O721 C735 1.248 . S
O722 Tb683 2.465 . S
O722 C747 1.264 . S
O723 Tb683 2.387 . S
O723 C739 1.264 . S
O724 Tb672 2.349 . S
O724 C739 1.243 . S
O725 Tb683 2.428 . S
O725 C747 1.256 . S
O726 Tb683 2.308 . S
O726 C746 1.266 . S
O727 Tb672 2.393 . S
O727 C746 1.248 . S
C728 O717 1.264 . S
C728 O718 1.243 . S
C729 C732 1.399 . S
C729 C734 1.383 . S
C729 C736 1.496 . S
C730 C731 1.399 . S
C730 C734 1.389 . S
C731 C730 1.399 . S
C731 C733 1.380 . S
C731 H748 0.929 . S
C732 C729 1.399 . S
C732 C733 1.392 . S
C732 H749 0.929 . S
C733 C731 1.380 . S
C733 C732 1.392 . S
C733 H750 0.929 . S
C734 C729 1.383 . S
C734 C730 1.389 . S
C734 H751 0.931 . S
C735 O720 1.266 . S
C735 O721 1.248 . S
C736 Tb672 2.802 . S
C736 O716 1.264 . S
C736 O719 1.256 . S
C736 C729 1.496 . S
C737 C704 1.448 . S
C737 H714 0.930 . S
C737 C738 1.328 . S
C738 C709 1.427 . S
C738 H715 0.929 . S
C738 C737 1.328 . S
C739 O723 1.264 . S
C739 O724 1.243 . S
C740 C743 1.399 . S
C740 C744 1.383 . S
C740 C747 1.496 . S
C741 C742 1.399 . S
C741 C744 1.389 . S
C742 C741 1.399 . S
C742 C745 1.380 . S
C742 H752 0.929 . S
C743 C740 1.399 . S
C743 C745 1.392 . S
C743 H753 0.929 . S
C744 C740 1.383 . S
C744 C741 1.389 . S
C744 H754 0.931 . S
C745 C742 1.380 . S
C745 C743 1.392 . S
C745 H755 0.929 . S
C746 O726 1.266 . S
C746 O727 1.248 . S
C747 Tb683 2.802 . S
C747 O722 1.264 . S
C747 O725 1.256 . S
C747 C740 1.496 . S
H748 C731 0.929 . S
H749 C732 0.929 . S
H750 C733 0.929 . S
H751 C734 0.931 . S
H752 C742 0.929 . S
H753 C743 0.929 . S
H754 C744 0.931 . S
H755 C745 0.929 . S
C756 C757 1.349 . S
C756 C758 1.327 . S
C756 H781 0.950 . S
C757 C756 1.349 . S
C757 C773 1.349 1_554 S
C758 C756 1.327 . S
C758 C777 1.429 . S
C758 H782 0.950 . S
C759 C776 1.574 . S
C759 C778 1.368 . S
C759 H783 0.949 . S
H760 C764 0.949 . S
C761 C762 1.349 . S
C761 C763 1.327 . S
C761 H784 0.950 . S
C762 C761 1.349 . S
C762 C774 1.349 . S
C763 C761 1.327 . S
C763 C779 1.429 . S
C763 H785 0.950 . S
C764 H760 0.949 . S
C764 C772 1.574 . S
C764 C780 1.368 1_554 S
H765 C773 0.950 . S
H766 C771 0.950 . S
H767 C772 0.949 . S
H768 C774 0.950 . S
H769 C775 0.950 1_554 S
H770 C776 0.949 . S
C771 H766 0.950 . S
C771 C773 1.327 . S
C771 C777 1.429 1_556 S
C772 C764 1.574 . S
C772 H767 0.949 . S
C772 C778 1.368 1_554 S
C773 C757 1.349 1_556 S
C773 H765 0.950 . S
C773 C771 1.327 . S
C774 C762 1.349 . S
C774 H768 0.950 . S
C774 C775 1.327 . S
C775 H769 0.950 1_556 S
C775 C774 1.327 . S
C775 C779 1.429 . S
C776 C759 1.574 . S
C776 H770 0.949 . S
C776 C780 1.368 . S
C777 C758 1.429 . S
C777 C771 1.429 1_554 S
C777 C778 1.523 1_554 S
C778 C759 1.368 . S
C778 C772 1.368 1_556 S
C778 C777 1.523 1_556 S
C779 C763 1.429 . S
C779 C775 1.429 . S
C779 C780 1.523 . S
C780 C764 1.368 1_556 S
C780 C776 1.368 . S
C780 C779 1.523 . S
H781 C756 0.950 . S
H782 C758 0.950 . S
H783 C759 0.949 . S
H784 C761 0.950 . S
H785 C763 0.950 . S
C786 C787 1.349 . S
C786 C788 1.327 . S
C786 H811 0.950 . S
C787 C786 1.349 . S
C787 C803 1.349 1_554 S
C788 C786 1.327 . S
C788 C807 1.429 . S
C788 H812 0.950 . S
C789 C806 1.574 . S
C789 C808 1.368 . S
C789 H813 0.949 . S
H790 C794 0.949 . S
C791 C792 1.349 . S
C791 C793 1.327 . S
C791 H814 0.950 . S
C792 C791 1.349 . S
C792 C804 1.349 . S
C793 C791 1.327 . S
C793 C809 1.429 . S
C793 H815 0.950 . S
C794 H790 0.949 . S
C794 C802 1.574 . S
C794 C810 1.368 1_554 S
H795 C803 0.950 . S
H796 C801 0.950 . S
H797 C802 0.949 . S
H798 C804 0.950 . S
H799 C805 0.950 1_554 S
H800 C806 0.949 . S
C801 H796 0.950 . S
C801 C803 1.327 . S
C801 C807 1.429 1_556 S
C802 C794 1.574 . S
C802 H797 0.949 . S
C802 C808 1.368 1_554 S
C803 C787 1.349 1_556 S
C803 H795 0.950 . S
C803 C801 1.327 . S
C804 C792 1.349 . S
C804 H798 0.950 . S
C804 C805 1.327 . S
C805 H799 0.950 1_556 S
C805 C804 1.327 . S
C805 C809 1.429 . S
C806 C789 1.574 . S
C806 H800 0.949 . S
C806 C810 1.368 . S
C807 C788 1.429 . S
C807 C801 1.429 1_554 S
C807 C808 1.523 1_554 S
C808 C789 1.368 . S
C808 C802 1.368 1_556 S
C808 C807 1.523 1_556 S
C809 C793 1.429 . S
C809 C805 1.429 . S
C809 C810 1.523 . S
C810 C794 1.368 1_556 S
C810 C806 1.368 . S
C810 C809 1.523 . S
H811 C786 0.950 . S
H812 C788 0.950 . S
H813 C789 0.949 . S
H814 C791 0.950 . S
H815 C793 0.950 . S
C816 C817 1.349 . S
C816 C818 1.327 . S
C816 H841 0.950 . S
C817 C816 1.349 . S
C817 C833 1.349 . S
C818 C816 1.327 . S
C818 C837 1.429 . S
C818 H842 0.950 . S
C819 C836 1.574 . S
C819 C838 1.368 . S
C819 H843 0.949 . S
H820 C824 0.949 . S
C821 C822 1.349 . S
C821 C823 1.327 . S
C821 H844 0.950 . S
C822 C821 1.349 . S
C822 C834 1.349 . S
C823 C821 1.327 . S
C823 C839 1.429 . S
C823 H845 0.950 . S
C824 H820 0.949 . S
C824 C832 1.574 . S
C824 C840 1.368 . S
H825 C833 0.950 . S
H826 C831 0.950 . S
H827 C832 0.949 . S
H828 C834 0.950 . S
H829 C835 0.950 . S
H830 C836 0.949 . S
C831 H826 0.950 . S
C831 C833 1.327 . S
C831 C837 1.429 . S
C832 C824 1.574 . S
C832 H827 0.949 . S
C832 C838 1.368 . S
C833 C817 1.349 . S
C833 H825 0.950 . S
C833 C831 1.327 . S
C834 C822 1.349 . S
C834 H828 0.950 . S
C834 C835 1.327 . S
C835 H829 0.950 . S
C835 C834 1.327 . S
C835 C839 1.429 . S
C836 C819 1.574 . S
C836 H830 0.949 . S
C836 C840 1.368 . S
C837 C818 1.429 . S
C837 C831 1.429 . S
C837 C838 1.523 . S
C838 C819 1.368 . S
C838 C832 1.368 . S
C838 C837 1.523 . S
C839 C823 1.429 . S
C839 C835 1.429 . S
C839 C840 1.523 . S
C840 C824 1.368 . S
C840 C836 1.368 . S
C840 C839 1.523 . S
H841 C816 0.950 . S
H842 C818 0.950 . S
H843 C819 0.949 . S
H844 C821 0.950 . S
H845 C823 0.950 . S
C846 C847 1.349 . S
C846 C848 1.327 . S
C846 H871 0.950 1_554 S
C847 C846 1.349 . S
C847 C863 1.349 . S
C848 C846 1.327 . S
C848 C867 1.429 . S
C848 H872 0.950 1_554 S
C849 C866 1.574 . S
C849 C868 1.368 . S
C849 H873 0.949 . S
H850 C854 0.949 . S
C851 C852 1.349 . S
C851 C853 1.327 . S
C851 H874 0.950 . S
C852 C851 1.349 . S
C852 C864 1.349 1_554 S
C853 C851 1.327 . S
C853 C869 1.429 . S
C853 H875 0.950 . S
C854 H850 0.949 . S
C854 C862 1.574 . S
C854 C870 1.368 1_556 S
H855 C863 0.950 . S
H856 C861 0.950 . S
H857 C862 0.949 . S
H858 C864 0.950 . S
H859 C865 0.950 . S
H860 C866 0.949 . S
C861 H856 0.950 . S
C861 C863 1.327 . S
C861 C867 1.429 . S
C862 C854 1.574 . S
C862 H857 0.949 . S
C862 C868 1.368 1_556 S
C863 C847 1.349 . S
C863 H855 0.950 . S
C863 C861 1.327 . S
C864 C852 1.349 1_556 S
C864 H858 0.950 . S
C864 C865 1.327 . S
C865 H859 0.950 . S
C865 C864 1.327 . S
C865 C869 1.429 1_556 S
C866 C849 1.574 . S
C866 H860 0.949 . S
C866 C870 1.368 . S
C867 C848 1.429 . S
C867 C861 1.429 . S
C867 C868 1.523 . S
C868 C849 1.368 . S
C868 C862 1.368 1_554 S
C868 C867 1.523 . S
C869 C853 1.429 . S
C869 C865 1.429 1_554 S
C869 C870 1.523 . S
C870 C854 1.368 1_554 S
C870 C866 1.368 . S
C870 C869 1.523 . S
H871 C846 0.950 1_556 S
H872 C848 0.950 1_556 S
H873 C849 0.949 . S
H874 C851 0.950 . S
H875 C853 0.950 . S
C876 C877 1.349 . S
C876 C878 1.327 . S
C876 H901 0.950 . S
C877 C876 1.349 . S
C877 C893 1.349 . S
C878 C876 1.327 . S
C878 C897 1.429 . S
C878 H902 0.950 . S
C879 C896 1.574 . S
C879 C898 1.368 . S
C879 H903 0.949 . S
H880 C884 0.949 . S
C881 C882 1.349 . S
C881 C883 1.327 1_455 S
C881 H904 0.950 . S
C882 C881 1.349 . S
C882 C894 1.349 1_455 S
C883 C881 1.327 1_655 S
C883 C899 1.429 . S
C883 H905 0.950 . S
C884 H880 0.949 . S
C884 C892 1.574 . S
C884 C900 1.368 . S
H885 C893 0.950 . S
H886 C891 0.950 . S
H887 C892 0.949 . S
H888 C894 0.950 . S
H889 C895 0.950 . S
H890 C896 0.949 . S
C891 H886 0.950 . S
C891 C893 1.327 . S
C891 C897 1.429 . S
C892 C884 1.574 . S
C892 H887 0.949 . S
C892 C898 1.368 . S
C893 C877 1.349 . S
C893 H885 0.950 . S
C893 C891 1.327 . S
C894 C882 1.349 1_655 S
C894 H888 0.950 . S
C894 C895 1.327 . S
C895 H889 0.950 . S
C895 C894 1.327 . S
C895 C899 1.429 . S
C896 C879 1.574 . S
C896 H890 0.949 . S
C896 C900 1.368 . S
C897 C878 1.429 . S
C897 C891 1.429 . S
C897 C898 1.523 . S
C898 C879 1.368 . S
C898 C892 1.368 . S
C898 C897 1.523 . S
C899 C883 1.429 . S
C899 C895 1.429 . S
C899 C900 1.523 . S
C900 C884 1.368 . S
C900 C896 1.368 . S
C900 C899 1.523 . S
H901 C876 0.950 . S
H902 C878 0.950 . S
H903 C879 0.949 . S
H904 C881 0.950 . S
H905 C883 0.950 . S
C906 C907 1.349 . S
C906 C908 1.327 . S
C906 H931 0.950 . S
C907 C906 1.349 . S
C907 C923 1.349 . S
C908 C906 1.327 . S
C908 C927 1.429 . S
C908 H932 0.950 . S
C909 C926 1.574 . S
C909 C928 1.368 . S
C909 H933 0.949 . S
H910 C914 0.949 . S
C911 C912 1.349 . S
C911 C913 1.327 . S
C911 H934 0.950 . S
C912 C911 1.349 . S
C912 C924 1.349 . S
C913 C911 1.327 . S
C913 C929 1.429 . S
C913 H935 0.950 . S
C914 H910 0.949 . S
C914 C922 1.574 . S
C914 C930 1.368 . S
H915 C923 0.950 . S
H916 C921 0.950 . S
H917 C922 0.949 . S
H918 C924 0.950 . S
H919 C925 0.950 . S
H920 C926 0.949 . S
C921 H916 0.950 . S
C921 C923 1.327 . S
C921 C927 1.429 . S
C922 C914 1.574 . S
C922 H917 0.949 . S
C922 C928 1.368 . S
C923 C907 1.349 . S
C923 H915 0.950 . S
C923 C921 1.327 . S
C924 C912 1.349 . S
C924 H918 0.950 . S
C924 C925 1.327 . S
C925 H919 0.950 . S
C925 C924 1.327 . S
C925 C929 1.429 . S
C926 C909 1.574 . S
C926 H920 0.949 . S
C926 C930 1.368 . S
C927 C908 1.429 . S
C927 C921 1.429 . S
C927 C928 1.523 . S
C928 C909 1.368 . S
C928 C922 1.368 . S
C928 C927 1.523 . S
C929 C913 1.429 . S
C929 C925 1.429 . S
C929 C930 1.523 . S
C930 C914 1.368 . S
C930 C926 1.368 . S
C930 C929 1.523 . S
H931 C906 0.950 . S
H932 C908 0.950 . S
H933 C909 0.949 . S
H934 C911 0.950 . S
H935 C913 0.950 . S
C936 C937 1.349 . S
C936 C938 1.327 . S
C936 H961 0.950 . S
C937 C936 1.349 . S
C937 C953 1.349 . S
C938 C936 1.327 . S
C938 C957 1.429 . S
C938 H962 0.950 . S
C939 C956 1.574 . S
C939 C958 1.368 . S
C939 H963 0.949 . S
H940 C944 0.949 . S
C941 C942 1.349 . S
C941 C943 1.327 . S
C941 H964 0.950 . S
C942 C941 1.349 . S
C942 C954 1.349 . S
C943 C941 1.327 . S
C943 C959 1.429 . S
C943 H965 0.950 . S
C944 H940 0.949 . S
C944 C952 1.574 . S
C944 C960 1.368 . S
H945 C953 0.950 . S
H946 C951 0.950 . S
H947 C952 0.949 . S
H948 C954 0.950 . S
H949 C955 0.950 . S
H950 C956 0.949 . S
C951 H946 0.950 . S
C951 C953 1.327 . S
C951 C957 1.429 . S
C952 C944 1.574 . S
C952 H947 0.949 . S
C952 C958 1.368 . S
C953 C937 1.349 . S
C953 H945 0.950 . S
C953 C951 1.327 . S
C954 C942 1.349 . S
C954 H948 0.950 . S
C954 C955 1.327 . S
C955 H949 0.950 . S
C955 C954 1.327 . S
C955 C959 1.429 . S
C956 C939 1.574 . S
C956 H950 0.949 . S
C956 C960 1.368 . S
C957 C938 1.429 . S
C957 C951 1.429 . S
C957 C958 1.523 . S
C958 C939 1.368 . S
C958 C952 1.368 . S
C958 C957 1.523 . S
C959 C943 1.429 . S
C959 C955 1.429 . S
C959 C960 1.523 . S
C960 C944 1.368 . S
C960 C956 1.368 . S
C960 C959 1.523 . S
H961 C936 0.950 . S
H962 C938 0.950 . S
H963 C939 0.949 . S
H964 C941 0.950 . S
H965 C943 0.950 . S
C966 C967 1.349 . S
C966 C968 1.327 . S
C966 H991 0.950 . S
C967 C966 1.349 . S
C967 C983 1.349 . S
C968 C966 1.327 . S
C968 C987 1.429 . S
C968 H992 0.950 . S
C969 C986 1.574 . S
C969 C988 1.368 . S
C969 H993 0.949 . S
H970 C974 0.949 . S
C971 C972 1.349 . S
C971 C973 1.327 . S
C971 H994 0.950 . S
C972 C971 1.349 . S
C972 C984 1.349 . S
C973 C971 1.327 . S
C973 C989 1.429 . S
C973 H995 0.950 . S
C974 H970 0.949 . S
C974 C982 1.574 . S
C974 C990 1.368 . S
H975 C983 0.950 . S
H976 C981 0.950 . S
H977 C982 0.949 . S
H978 C984 0.950 . S
H979 C985 0.950 . S
H980 C986 0.949 . S
C981 H976 0.950 . S
C981 C983 1.327 . S
C981 C987 1.429 . S
C982 C974 1.574 . S
C982 H977 0.949 . S
C982 C988 1.368 . S
C983 C967 1.349 . S
C983 H975 0.950 . S
C983 C981 1.327 . S
C984 C972 1.349 . S
C984 H978 0.950 . S
C984 C985 1.327 . S
C985 H979 0.950 . S
C985 C984 1.327 . S
C985 C989 1.429 . S
C986 C969 1.574 . S
C986 H980 0.949 . S
C986 C990 1.368 . S
C987 C968 1.429 . S
C987 C981 1.429 . S
C987 C988 1.523 . S
C988 C969 1.368 . S
C988 C982 1.368 . S
C988 C987 1.523 . S
C989 C973 1.429 . S
C989 C985 1.429 . S
C989 C990 1.523 . S
C990 C974 1.368 . S
C990 C986 1.368 . S
C990 C989 1.523 . S
H991 C966 0.950 . S
H992 C968 0.950 . S
H993 C969 0.949 . S
H994 C971 0.950 . S
H995 C973 0.950 . S
C996 C997 1.349 . S
C996 C998 1.327 . S
C996 H1021 0.950 . S
C997 C996 1.349 . S
C997 C1013 1.349 . S
C998 C996 1.327 . S
C998 C1017 1.429 . S
C998 H1022 0.950 . S
C999 C1016 1.574 . S
C999 C1018 1.368 . S
C999 H1023 0.949 . S
H1000 C1004 0.949 1_565 S
C1001 C1002 1.349 . S
C1001 C1003 1.327 1_565 S
C1001 H1024 0.950 . S
C1002 C1001 1.349 . S
C1002 C1014 1.349 . S
C1003 C1001 1.327 1_545 S
C1003 C1019 1.431 . S
C1003 H1025 0.950 . S
C1004 H1000 0.949 1_545 S
C1004 C1012 1.574 . S
C1004 C1020 1.368 . S
H1005 C1013 0.950 . S
H1006 C1011 0.950 . S
H1007 C1012 0.949 . S
H1008 C1014 0.950 . S
H1009 C1015 0.950 . S
H1010 C1016 0.949 . S
C1011 H1006 0.950 . S
C1011 C1013 1.327 . S
C1011 C1017 1.429 . S
C1012 C1004 1.574 . S
C1012 H1007 0.949 . S
C1012 C1018 1.368 . S
C1013 C997 1.349 . S
C1013 H1005 0.950 . S
C1013 C1011 1.327 . S
C1014 C1002 1.349 . S
C1014 H1008 0.950 . S
C1014 C1015 1.327 . S
C1015 H1009 0.950 . S
C1015 C1014 1.327 . S
C1015 C1019 1.408 1_565 S
C1016 C999 1.574 . S
C1016 H1010 0.949 . S
C1016 C1020 1.368 . S
C1017 C998 1.429 . S
C1017 C1011 1.429 . S
C1017 C1018 1.523 . S
C1018 C999 1.368 . S
C1018 C1012 1.368 . S
C1018 C1017 1.523 . S
C1019 C1003 1.431 . S
C1019 C1015 1.408 1_545 S
C1019 C1020 1.540 . S
C1020 C1004 1.368 . S
C1020 C1016 1.368 . S
C1020 C1019 1.540 . S
H1021 C996 0.950 . S
H1022 C998 0.950 . S
H1023 C999 0.949 . S
H1024 C1001 0.950 . S
H1025 C1003 0.950 . S
C1026 C1027 1.349 . S
C1026 C1028 1.327 . S
C1026 H1051 0.950 . S
C1027 C1026 1.349 . S
C1027 C1043 1.349 . S
C1028 C1026 1.327 . S
C1028 C1047 1.429 . S
C1028 H1052 0.950 . S
C1029 C1046 1.574 . S
C1029 C1048 1.368 . S
C1029 H1053 0.949 . S
H1030 C1034 0.949 . S
C1031 C1032 1.349 . S
C1031 C1033 1.327 . S
C1031 H1054 0.950 . S
C1032 C1031 1.349 . S
C1032 C1044 1.349 . S
C1033 C1031 1.327 . S
C1033 C1049 1.429 . S
C1033 H1055 0.950 . S
C1034 H1030 0.949 . S
C1034 C1042 1.574 . S
C1034 C1050 1.368 . S
H1035 C1043 0.950 . S
H1036 C1041 0.950 . S
H1037 C1042 0.949 . S
H1038 C1044 0.950 . S
H1039 C1045 0.950 . S
H1040 C1046 0.949 . S
C1041 H1036 0.950 . S
C1041 C1043 1.327 . S
C1041 C1047 1.429 . S
C1042 C1034 1.574 . S
C1042 H1037 0.949 . S
C1042 C1048 1.368 . S
C1043 C1027 1.349 . S
C1043 H1035 0.950 . S
C1043 C1041 1.327 . S
C1044 C1032 1.349 . S
C1044 H1038 0.950 . S
C1044 C1045 1.327 . S
C1045 H1039 0.950 . S
C1045 C1044 1.327 . S
C1045 C1049 1.429 . S
C1046 C1029 1.574 . S
C1046 H1040 0.949 . S
C1046 C1050 1.368 . S
C1047 C1028 1.429 . S
C1047 C1041 1.429 . S
C1047 C1048 1.523 . S
C1048 C1029 1.368 . S
C1048 C1042 1.368 . S
C1048 C1047 1.523 . S
C1049 C1033 1.429 . S
C1049 C1045 1.429 . S
C1049 C1050 1.523 . S
C1050 C1034 1.368 . S
C1050 C1046 1.368 . S
C1050 C1049 1.523 . S
H1051 C1026 0.950 . S
H1052 C1028 0.950 . S
H1053 C1029 0.949 . S
H1054 C1031 0.950 . S
H1055 C1033 0.950 . S
C1056 C1057 1.349 . S
C1056 C1058 1.327 . S
C1056 H1081 0.950 . S
C1057 C1056 1.349 . S
C1057 C1073 1.349 1_554 S
C1058 C1056 1.327 . S
C1058 C1077 1.429 . S
C1058 H1082 0.950 . S
C1059 C1076 1.574 1_565 S
C1059 C1078 1.368 . S
C1059 H1083 0.949 1_554 S
H1060 C1064 0.949 . S
C1061 C1062 1.349 . S
C1061 C1063 1.327 . S
C1061 H1084 0.950 . S
C1062 C1061 1.349 . S
C1062 C1074 1.349 . S
C1063 C1061 1.327 . S
C1063 C1079 1.429 . S
C1063 H1085 0.950 . S
C1064 H1060 0.949 . S
C1064 C1072 1.574 1_545 S
C1064 C1080 1.368 . S
H1065 C1073 0.950 . S
H1066 C1071 0.950 1_556 S
H1067 C1072 0.949 . S
H1068 C1074 0.950 . S
H1069 C1075 0.950 . S
H1070 C1076 0.949 . S
C1071 H1066 0.950 1_554 S
C1071 C1073 1.327 1_554 S
C1071 C1077 1.429 . S
C1072 C1064 1.574 1_565 S
C1072 H1067 0.949 . S
C1072 C1078 1.368 . S
C1073 C1057 1.349 1_556 S
C1073 H1065 0.950 . S
C1073 C1071 1.327 1_556 S
C1074 C1062 1.349 . S
C1074 H1068 0.950 . S
C1074 C1075 1.327 . S
C1075 H1069 0.950 . S
C1075 C1074 1.327 . S
C1075 C1079 1.429 . S
C1076 C1059 1.574 1_545 S
C1076 H1070 0.949 . S
C1076 C1080 1.368 . S
C1077 C1058 1.429 . S
C1077 C1071 1.429 . S
C1077 C1078 1.523 . S
C1078 C1059 1.368 . S
C1078 C1072 1.368 . S
C1078 C1077 1.523 . S
C1079 C1063 1.429 . S
C1079 C1075 1.429 . S
C1079 C1080 1.523 . S
C1080 C1064 1.368 . S
C1080 C1076 1.368 . S
C1080 C1079 1.523 . S
H1081 C1056 0.950 . S
H1082 C1058 0.950 . S
H1083 C1059 0.949 1_556 S
H1084 C1061 0.950 . S
H1085 C1063 0.950 . S
C1086 C1087 1.349 . S
C1086 C1088 1.327 . S
C1086 H1111 0.950 . S
C1087 C1086 1.349 . S
C1087 C1103 1.349 . S
C1088 C1086 1.327 . S
C1088 C1107 1.434 1_655 S
C1088 H1112 0.950 1_655 S
C1089 C1106 1.574 1_554 S
C1089 C1108 1.368 . S
C1089 H1113 0.949 1_554 S
H1090 C1094 0.949 . S
C1091 C1092 1.349 1_556 S
C1091 C1093 1.327 . S
C1091 H1114 0.950 . S
C1092 C1091 1.349 1_554 S
C1092 C1104 1.349 . S
C1093 C1091 1.327 . S
C1093 C1109 1.429 1_556 S
C1093 H1115 0.950 . S
C1094 H1090 0.949 . S
C1094 C1102 1.574 . S
C1094 C1110 1.368 . S
H1095 C1103 0.950 . S
H1096 C1101 0.943 1_556 S
H1097 C1102 0.949 . S
H1098 C1104 0.950 . S
H1099 C1105 0.950 . S
H1100 C1106 0.949 . S
C1101 H1096 0.943 1_554 S
C1101 C1103 1.327 . S
C1101 C1107 1.377 1_655 S
C1102 C1094 1.574 . S
C1102 H1097 0.949 . S
C1102 C1108 1.368 . S
C1103 C1087 1.349 . S
C1103 H1095 0.950 . S
C1103 C1101 1.327 . S
C1104 C1092 1.349 . S
C1104 H1098 0.950 . S
C1104 C1105 1.327 . S
C1105 H1099 0.950 . S
C1105 C1104 1.327 . S
C1105 C1109 1.429 . S
C1106 C1089 1.574 1_556 S
C1106 H1100 0.949 . S
C1106 C1110 1.368 1_556 S
C1107 C1088 1.434 1_455 S
C1107 C1101 1.377 1_455 S
C1107 C1108 1.568 . S
C1108 C1089 1.368 . S
C1108 C1102 1.368 . S
C1108 C1107 1.568 . S
C1109 C1093 1.429 1_554 S
C1109 C1105 1.429 . S
C1109 C1110 1.523 . S
C1110 C1094 1.368 . S
C1110 C1106 1.368 1_554 S
C1110 C1109 1.523 . S
H1111 C1086 0.950 . S
H1112 C1088 0.950 1_455 S
H1113 C1089 0.949 1_556 S
H1114 C1091 0.950 . S
H1115 C1093 0.950 . S
C1116 C1117 1.349 . S
C1116 C1118 1.327 . S
C1116 H1141 0.950 . S
C1117 C1116 1.349 . S
C1117 C1133 1.349 . S
C1118 C1116 1.327 . S
C1118 C1137 1.429 . S
C1118 H1142 0.950 . S
C1119 C1136 1.574 . S
C1119 C1138 1.368 . S
C1119 H1143 0.949 . S
H1120 C1124 0.949 . S
C1121 C1122 1.349 . S
C1121 C1123 1.327 . S
C1121 H1144 0.950 . S
C1122 C1121 1.349 . S
C1122 C1134 1.349 . S
C1123 C1121 1.327 . S
C1123 C1139 1.429 . S
C1123 H1145 0.950 . S
C1124 H1120 0.949 . S
C1124 C1132 1.574 . S
C1124 C1140 1.368 . S
H1125 C1133 0.950 1_556 S
H1126 C1131 0.950 . S
H1127 C1132 0.949 . S
H1128 C1134 0.950 . S
H1129 C1135 0.950 . S
H1130 C1136 0.949 . S
C1131 H1126 0.950 . S
C1131 C1133 1.327 . S
C1131 C1137 1.429 . S
C1132 C1124 1.574 . S
C1132 H1127 0.949 . S
C1132 C1138 1.368 . S
C1133 C1117 1.349 . S
C1133 H1125 0.950 1_554 S
C1133 C1131 1.327 . S
C1134 C1122 1.349 . S
C1134 H1128 0.950 . S
C1134 C1135 1.327 . S
C1135 H1129 0.950 . S
C1135 C1134 1.327 . S
C1135 C1139 1.429 . S
C1136 C1119 1.574 . S
C1136 H1130 0.949 . S
C1136 C1140 1.368 . S
C1137 C1118 1.429 . S
C1137 C1131 1.429 . S
C1137 C1138 1.523 . S
C1138 C1119 1.368 . S
C1138 C1132 1.368 . S
C1138 C1137 1.523 . S
C1139 C1123 1.429 . S
C1139 C1135 1.429 . S
C1139 C1140 1.523 . S
C1140 C1124 1.368 . S
C1140 C1136 1.368 . S
C1140 C1139 1.523 . S
H1141 C1116 0.950 . S
H1142 C1118 0.950 . S
H1143 C1119 0.949 . S
H1144 C1121 0.950 . S
H1145 C1123 0.950 . S
C1146 C1147 1.349 . S
C1146 C1148 1.327 . S
C1146 H1171 0.950 . S
C1147 C1146 1.349 . S
C1147 C1163 1.349 . S
C1148 C1146 1.327 . S
C1148 C1167 1.429 . S
C1148 H1172 0.950 . S
C1149 C1166 1.574 . S
C1149 C1168 1.368 . S
C1149 H1173 0.949 . S
H1150 C1154 0.949 1_556 S
C1151 C1152 1.349 . S
C1151 C1153 1.327 . S
C1151 H1174 0.950 . S
C1152 C1151 1.349 . S
C1152 C1164 1.349 1_554 S
C1153 C1151 1.327 . S
C1153 C1169 1.429 . S
C1153 H1175 0.950 . S
C1154 H1150 0.949 1_554 S
C1154 C1162 1.574 . S
C1154 C1170 1.368 . S
H1155 C1163 0.950 . S
H1156 C1161 0.950 . S
H1157 C1162 0.949 . S
H1158 C1164 0.950 . S
H1159 C1165 0.950 . S
H1160 C1166 0.949 . S
C1161 H1156 0.950 . S
C1161 C1163 1.327 . S
C1161 C1167 1.429 . S
C1162 C1154 1.574 . S
C1162 H1157 0.949 . S
C1162 C1168 1.368 . S
C1163 C1147 1.349 . S
C1163 H1155 0.950 . S
C1163 C1161 1.327 . S
C1164 C1152 1.349 1_556 S
C1164 H1158 0.950 . S
C1164 C1165 1.327 . S
C1165 H1159 0.950 . S
C1165 C1164 1.327 . S
C1165 C1169 1.429 1_556 S
C1166 C1149 1.574 . S
C1166 H1160 0.949 . S
C1166 C1170 1.368 . S
C1167 C1148 1.429 . S
C1167 C1161 1.429 . S
C1167 C1168 1.523 . S
C1168 C1149 1.368 . S
C1168 C1162 1.368 . S
C1168 C1167 1.523 . S
C1169 C1153 1.429 . S
C1169 C1165 1.429 1_554 S
C1169 C1170 1.523 . S
C1170 C1154 1.368 . S
C1170 C1166 1.368 . S
C1170 C1169 1.523 . S
H1171 C1146 0.950 . S
H1172 C1148 0.950 . S
H1173 C1149 0.949 . S
H1174 C1151 0.950 . S
H1175 C1153 0.950 . S
C1176 C1177 1.349 . S
C1176 C1178 1.327 . S
C1176 H1201 0.950 . S
C1177 C1176 1.349 . S
C1177 C1193 1.349 . S
C1178 C1176 1.327 . S
C1178 C1197 1.429 . S
C1178 H1202 0.950 . S
C1179 C1196 1.574 . S
C1179 C1198 1.368 . S
C1179 H1203 0.949 . S
H1180 C1184 0.949 . S
C1181 C1182 1.349 . S
C1181 C1183 1.327 . S
C1181 H1204 0.950 . S
C1182 C1181 1.349 . S
C1182 C1194 1.349 . S
C1183 C1181 1.327 . S
C1183 C1199 1.429 . S
C1183 H1205 0.950 . S
C1184 H1180 0.949 . S
C1184 C1192 1.574 . S
C1184 C1200 1.368 . S
H1185 C1193 0.950 . S
H1186 C1191 0.950 . S
H1187 C1192 0.949 . S
H1188 C1194 0.950 . S
H1189 C1195 0.950 . S
H1190 C1196 0.949 . S
C1191 H1186 0.950 . S
C1191 C1193 1.327 . S
C1191 C1197 1.429 . S
C1192 C1184 1.574 . S
C1192 H1187 0.949 . S
C1192 C1198 1.368 . S
C1193 C1177 1.349 . S
C1193 H1185 0.950 . S
C1193 C1191 1.327 . S
C1194 C1182 1.349 . S
C1194 H1188 0.950 . S
C1194 C1195 1.327 . S
C1195 H1189 0.950 . S
C1195 C1194 1.327 . S
C1195 C1199 1.429 . S
C1196 C1179 1.574 . S
C1196 H1190 0.949 . S
C1196 C1200 1.368 . S
C1197 C1178 1.429 . S
C1197 C1191 1.429 . S
C1197 C1198 1.523 . S
C1198 C1179 1.368 . S
C1198 C1192 1.368 . S
C1198 C1197 1.523 . S
C1199 C1183 1.429 . S
C1199 C1195 1.429 . S
C1199 C1200 1.523 . S
C1200 C1184 1.368 . S
C1200 C1196 1.368 . S
C1200 C1199 1.523 . S
H1201 C1176 0.950 . S
H1202 C1178 0.950 . S
H1203 C1179 0.949 . S
H1204 C1181 0.950 . S
H1205 C1183 0.950 . S
C1206 C1207 1.349 . S
C1206 C1208 1.327 . S
C1206 H1231 0.950 . S
C1207 C1206 1.349 . S
C1207 C1223 1.349 . S
C1208 C1206 1.327 . S
C1208 C1227 1.429 . S
C1208 H1232 0.950 . S
C1209 C1226 1.574 . S
C1209 C1228 1.368 . S
C1209 H1233 0.949 . S
H1210 C1214 0.949 . S
C1211 C1212 1.349 . S
C1211 C1213 1.327 . S
C1211 H1234 0.950 . S
C1212 C1211 1.349 . S
C1212 C1224 1.349 . S
C1213 C1211 1.327 . S
C1213 C1229 1.429 . S
C1213 H1235 0.950 . S
C1214 H1210 0.949 . S
C1214 C1222 1.574 . S
C1214 C1230 1.368 . S
H1215 C1223 0.950 . S
H1216 C1221 0.950 . S
H1217 C1222 0.949 . S
H1218 C1224 0.950 . S
H1219 C1225 0.950 . S
H1220 C1226 0.949 . S
C1221 H1216 0.950 . S
C1221 C1223 1.327 . S
C1221 C1227 1.429 . S
C1222 C1214 1.574 . S
C1222 H1217 0.949 . S
C1222 C1228 1.368 . S
C1223 C1207 1.349 . S
C1223 H1215 0.950 . S
C1223 C1221 1.327 . S
C1224 C1212 1.349 . S
C1224 H1218 0.950 . S
C1224 C1225 1.327 . S
C1225 H1219 0.950 . S
C1225 C1224 1.327 . S
C1225 C1229 1.429 . S
C1226 C1209 1.574 . S
C1226 H1220 0.949 . S
C1226 C1230 1.368 . S
C1227 C1208 1.429 . S
C1227 C1221 1.429 . S
C1227 C1228 1.523 . S
C1228 C1209 1.368 . S
C1228 C1222 1.368 . S
C1228 C1227 1.523 . S
C1229 C1213 1.429 . S
C1229 C1225 1.429 . S
C1229 C1230 1.523 . S
C1230 C1214 1.368 . S
C1230 C1226 1.368 . S
C1230 C1229 1.523 . S
H1231 C1206 0.950 . S
H1232 C1208 0.950 . S
H1233 C1209 0.949 . S
H1234 C1211 0.950 . S
H1235 C1213 0.950 . S
C1236 C1237 1.349 . S
C1236 C1238 1.327 . S
C1236 H1261 0.950 . S
C1237 C1236 1.349 . S
C1237 C1253 1.349 . S
C1238 C1236 1.327 . S
C1238 C1257 1.429 . S
C1238 H1262 0.950 . S
C1239 C1256 1.574 . S
C1239 C1258 1.368 . S
C1239 H1263 0.949 . S
H1240 C1244 0.949 . S
C1241 C1242 1.349 . S
C1241 C1243 1.327 . S
C1241 H1264 0.950 . S
C1242 C1241 1.349 . S
C1242 C1254 1.349 . S
C1243 C1241 1.327 . S
C1243 C1259 1.429 . S
C1243 H1265 0.950 . S
C1244 H1240 0.949 . S
C1244 C1252 1.574 . S
C1244 C1260 1.368 . S
H1245 C1253 0.950 . S
H1246 C1251 0.950 . S
H1247 C1252 0.949 . S
H1248 C1254 0.950 . S
H1249 C1255 0.950 . S
H1250 C1256 0.949 . S
C1251 H1246 0.950 . S
C1251 C1253 1.327 . S
C1251 C1257 1.429 . S
C1252 C1244 1.574 . S
C1252 H1247 0.949 . S
C1252 C1258 1.368 . S
C1253 C1237 1.349 . S
C1253 H1245 0.950 . S
C1253 C1251 1.327 . S
C1254 C1242 1.349 . S
C1254 H1248 0.950 . S
C1254 C1255 1.327 . S
C1255 H1249 0.950 . S
C1255 C1254 1.327 . S
C1255 C1259 1.429 . S
C1256 C1239 1.574 . S
C1256 H1250 0.949 . S
C1256 C1260 1.368 . S
C1257 C1238 1.429 . S
C1257 C1251 1.429 . S
C1257 C1258 1.523 . S
C1258 C1239 1.368 . S
C1258 C1252 1.368 . S
C1258 C1257 1.523 . S
C1259 C1243 1.429 . S
C1259 C1255 1.429 . S
C1259 C1260 1.523 . S
C1260 C1244 1.368 . S
C1260 C1256 1.368 . S
C1260 C1259 1.523 . S
H1261 C1236 0.950 . S
H1262 C1238 0.950 . S
H1263 C1239 0.949 . S
H1264 C1241 0.950 . S
H1265 C1243 0.950 . S
C1266 C1267 1.349 . S
C1266 C1268 1.327 . S
C1266 H1291 0.950 . S
C1267 C1266 1.349 . S
C1267 C1283 1.349 . S
C1268 C1266 1.327 . S
C1268 C1287 1.429 . S
C1268 H1292 0.950 . S
C1269 C1286 1.574 . S
C1269 C1288 1.368 . S
C1269 H1293 0.949 . S
H1270 C1274 0.949 . S
C1271 C1272 1.349 . S
C1271 C1273 1.327 . S
C1271 H1294 0.950 . S
C1272 C1271 1.349 . S
C1272 C1284 1.349 . S
C1273 C1271 1.327 . S
C1273 C1289 1.429 . S
C1273 H1295 0.950 . S
C1274 H1270 0.949 . S
C1274 C1282 1.574 . S
C1274 C1290 1.368 . S
H1275 C1283 0.950 . S
H1276 C1281 0.950 . S
H1277 C1282 0.949 . S
H1278 C1284 0.950 . S
H1279 C1285 0.950 . S
H1280 C1286 0.949 . S
C1281 H1276 0.950 . S
C1281 C1283 1.327 . S
C1281 C1287 1.429 . S
C1282 C1274 1.574 . S
C1282 H1277 0.949 . S
C1282 C1288 1.368 . S
C1283 C1267 1.349 . S
C1283 H1275 0.950 . S
C1283 C1281 1.327 . S
C1284 C1272 1.349 . S
C1284 H1278 0.950 . S
C1284 C1285 1.327 . S
C1285 H1279 0.950 . S
C1285 C1284 1.327 . S
C1285 C1289 1.429 . S
C1286 C1269 1.574 . S
C1286 H1280 0.949 . S
C1286 C1290 1.368 . S
C1287 C1268 1.429 . S
C1287 C1281 1.429 . S
C1287 C1288 1.523 . S
C1288 C1269 1.368 . S
C1288 C1282 1.368 . S
C1288 C1287 1.523 . S
C1289 C1273 1.429 . S
C1289 C1285 1.429 . S
C1289 C1290 1.523 . S
C1290 C1274 1.368 . S
C1290 C1286 1.368 . S
C1290 C1289 1.523 . S
H1291 C1266 0.950 . S
H1292 C1268 0.950 . S
H1293 C1269 0.949 . S
H1294 C1271 0.950 . S
H1295 C1273 0.950 . S
C1296 C1297 1.349 . S
C1296 C1298 1.327 . S
C1296 H1321 0.950 . S
C1297 C1296 1.349 . S
C1297 C1313 1.349 . S
C1298 C1296 1.327 . S
C1298 C1317 1.429 . S
C1298 H1322 0.950 . S
C1299 C1316 1.574 . S
C1299 C1318 1.368 . S
C1299 H1323 0.949 . S
H1300 C1304 0.949 . S
C1301 C1302 1.349 . S
C1301 C1303 1.327 . S
C1301 H1324 0.950 . S
C1302 C1301 1.349 . S
C1302 C1314 1.349 . S
C1303 C1301 1.327 . S
C1303 C1319 1.429 . S
C1303 H1325 0.950 . S
C1304 H1300 0.949 . S
C1304 C1312 1.574 . S
C1304 C1320 1.368 . S
H1305 C1313 0.950 . S
H1306 C1311 0.950 . S
H1307 C1312 0.949 . S
H1308 C1314 0.950 . S
H1309 C1315 0.950 . S
H1310 C1316 0.949 . S
C1311 H1306 0.950 . S
C1311 C1313 1.327 . S
C1311 C1317 1.429 . S
C1312 C1304 1.574 . S
C1312 H1307 0.949 . S
C1312 C1318 1.368 . S
C1313 C1297 1.349 . S
C1313 H1305 0.950 . S
C1313 C1311 1.327 . S
C1314 C1302 1.349 . S
C1314 H1308 0.950 . S
C1314 C1315 1.327 . S
C1315 H1309 0.950 . S
C1315 C1314 1.327 . S
C1315 C1319 1.429 . S
C1316 C1299 1.574 . S
C1316 H1310 0.949 . S
C1316 C1320 1.368 . S
C1317 C1298 1.429 . S
C1317 C1311 1.429 . S
C1317 C1318 1.523 . S
C1318 C1299 1.368 . S
C1318 C1312 1.368 . S
C1318 C1317 1.523 . S
C1319 C1303 1.429 . S
C1319 C1315 1.429 . S
C1319 C1320 1.523 . S
C1320 C1304 1.368 . S
C1320 C1316 1.368 . S
C1320 C1319 1.523 . S
H1321 C1296 0.950 . S
H1322 C1298 0.950 . S
H1323 C1299 0.949 . S
H1324 C1301 0.950 . S
H1325 C1303 0.950 . S
C1326 C1327 1.349 . S
C1326 C1328 1.327 . S
C1326 H1351 0.950 . S
C1327 C1326 1.349 . S
C1327 C1343 1.349 . S
C1328 C1326 1.327 . S
C1328 C1347 1.429 . S
C1328 H1352 0.950 . S
C1329 C1346 1.574 . S
C1329 C1348 1.368 . S
C1329 H1353 0.949 . S
H1330 C1334 0.949 . S
C1331 C1332 1.349 . S
C1331 C1333 1.327 . S
C1331 H1354 0.950 . S
C1332 C1331 1.349 . S
C1332 C1344 1.349 . S
C1333 C1331 1.327 . S
C1333 C1349 1.429 . S
C1333 H1355 0.950 . S
C1334 H1330 0.949 . S
C1334 C1342 1.574 . S
C1334 C1350 1.368 . S
H1335 C1343 0.950 . S
H1336 C1341 0.950 . S
H1337 C1342 0.949 . S
H1338 C1344 0.950 . S
H1339 C1345 0.950 . S
H1340 C1346 0.949 . S
C1341 H1336 0.950 . S
C1341 C1343 1.327 . S
C1341 C1347 1.429 . S
C1342 C1334 1.574 . S
C1342 H1337 0.949 . S
C1342 C1348 1.368 . S
C1343 C1327 1.349 . S
C1343 H1335 0.950 . S
C1343 C1341 1.327 . S
C1344 C1332 1.349 . S
C1344 H1338 0.950 . S
C1344 C1345 1.327 . S
C1345 H1339 0.950 . S
C1345 C1344 1.327 . S
C1345 C1349 1.429 . S
C1346 C1329 1.574 . S
C1346 H1340 0.949 . S
C1346 C1350 1.368 . S
C1347 C1328 1.429 . S
C1347 C1341 1.429 . S
C1347 C1348 1.523 . S
C1348 C1329 1.368 . S
C1348 C1342 1.368 . S
C1348 C1347 1.523 . S
C1349 C1333 1.429 . S
C1349 C1345 1.429 . S
C1349 C1350 1.523 . S
C1350 C1334 1.368 . S
C1350 C1346 1.368 . S
C1350 C1349 1.523 . S
H1351 C1326 0.950 . S
H1352 C1328 0.950 . S
H1353 C1329 0.949 . S
H1354 C1331 0.950 . S
H1355 C1333 0.950 . S
C1356 C1357 1.349 1_565 S
C1356 C1358 1.327 . S
C1356 H1381 0.950 . S
C1357 C1356 1.349 1_545 S
C1357 C1373 1.349 . S
C1358 C1356 1.327 . S
C1358 C1377 1.429 1_565 S
C1358 H1382 0.950 . S
C1359 C1376 1.574 . S
C1359 C1378 1.368 . S
C1359 H1383 0.949 . S
H1360 C1364 0.948 1_565 S
C1361 C1362 1.349 . S
C1361 C1363 1.327 . S
C1361 H1384 0.950 . S
C1362 C1361 1.349 . S
C1362 C1374 1.349 . S
C1363 C1361 1.327 . S
C1363 C1379 1.429 . S
C1363 H1385 0.950 . S
C1364 H1360 0.948 1_545 S
C1364 C1372 1.569 1_545 S
C1364 C1380 1.375 . S
H1365 C1373 0.950 . S
H1366 C1371 0.950 . S
H1367 C1372 0.949 . S
H1368 C1374 0.948 1_565 S
H1369 C1375 0.950 1_565 S
H1370 C1376 0.949 . S
C1371 H1366 0.950 . S
C1371 C1373 1.327 . S
C1371 C1377 1.429 . S
C1372 C1364 1.569 1_565 S
C1372 H1367 0.949 . S
C1372 C1378 1.368 1_565 S
C1373 C1357 1.349 . S
C1373 H1365 0.950 . S
C1373 C1371 1.327 . S
C1374 C1362 1.349 . S
C1374 H1368 0.948 1_545 S
C1374 C1375 1.327 . S
C1375 H1369 0.950 1_545 S
C1375 C1374 1.327 . S
C1375 C1379 1.429 . S
C1376 C1359 1.574 . S
C1376 H1370 0.949 . S
C1376 C1380 1.368 . S
C1377 C1358 1.429 1_545 S
C1377 C1371 1.429 . S
C1377 C1378 1.523 . S
C1378 C1359 1.368 . S
C1378 C1372 1.368 1_545 S
C1378 C1377 1.523 . S
C1379 C1363 1.429 . S
C1379 C1375 1.429 . S
C1379 C1380 1.523 . S
C1380 C1364 1.375 . S
C1380 C1376 1.368 . S
C1380 C1379 1.523 . S
H1381 C1356 0.950 . S
H1382 C1358 0.950 . S
H1383 C1359 0.949 . S
H1384 C1361 0.950 . S
H1385 C1363 0.950 . S
C1386 C1387 1.349 . S
C1386 C1388 1.327 . S
C1386 H1411 0.950 . S
C1387 C1386 1.349 . S
C1387 C1403 1.349 . S
C1388 C1386 1.327 . S
C1388 C1407 1.429 . S
C1388 H1412 0.950 . S
C1389 C1406 1.574 . S
C1389 C1408 1.368 . S
C1389 H1413 0.949 . S
H1390 C1394 0.949 . S
C1391 C1392 1.349 . S
C1391 C1393 1.327 . S
C1391 H1414 0.950 . S
C1392 C1391 1.349 . S
C1392 C1404 1.349 . S
C1393 C1391 1.327 . S
C1393 C1409 1.429 . S
C1393 H1415 0.950 . S
C1394 H1390 0.949 . S
C1394 C1402 1.574 . S
C1394 C1410 1.368 . S
H1395 C1403 0.950 . S
H1396 C1401 0.950 . S
H1397 C1402 0.949 . S
H1398 C1404 0.950 . S
H1399 C1405 0.950 . S
H1400 C1406 0.949 . S
C1401 H1396 0.950 . S
C1401 C1403 1.327 . S
C1401 C1407 1.429 . S
C1402 C1394 1.574 . S
C1402 H1397 0.949 . S
C1402 C1408 1.368 . S
C1403 C1387 1.349 . S
C1403 H1395 0.950 . S
C1403 C1401 1.327 . S
C1404 C1392 1.349 . S
C1404 H1398 0.950 . S
C1404 C1405 1.327 . S
C1405 H1399 0.950 . S
C1405 C1404 1.327 . S
C1405 C1409 1.429 . S
C1406 C1389 1.574 . S
C1406 H1400 0.949 . S
C1406 C1410 1.368 . S
C1407 C1388 1.429 . S
C1407 C1401 1.429 . S
C1407 C1408 1.523 . S
C1408 C1389 1.368 . S
C1408 C1402 1.368 . S
C1408 C1407 1.523 . S
C1409 C1393 1.429 . S
C1409 C1405 1.429 . S
C1409 C1410 1.523 . S
C1410 C1394 1.368 . S
C1410 C1406 1.368 . S
C1410 C1409 1.523 . S
H1411 C1386 0.950 . S
H1412 C1388 0.950 . S
H1413 C1389 0.949 . S
H1414 C1391 0.950 . S
H1415 C1393 0.950 . S
C1416 C1417 1.349 . S
C1416 C1418 1.327 . S
C1416 H1441 0.950 . S
C1417 C1416 1.349 . S
C1417 C1433 1.349 . S
C1418 C1416 1.327 . S
C1418 C1437 1.429 . S
C1418 H1442 0.950 . S
C1419 C1436 1.574 . S
C1419 C1438 1.368 . S
C1419 H1443 0.949 . S
H1420 C1424 0.949 . S
C1421 C1422 1.349 . S
C1421 C1423 1.327 . S
C1421 H1444 0.950 . S
C1422 C1421 1.349 . S
C1422 C1434 1.349 . S
C1423 C1421 1.327 . S
C1423 C1439 1.429 . S
C1423 H1445 0.950 . S
C1424 H1420 0.949 . S
C1424 C1432 1.574 . S
C1424 C1440 1.368 . S
H1425 C1433 0.950 . S
H1426 C1431 0.950 . S
H1427 C1432 0.949 . S
H1428 C1434 0.950 . S
H1429 C1435 0.950 . S
H1430 C1436 0.949 . S
C1431 H1426 0.950 . S
C1431 C1433 1.327 . S
C1431 C1437 1.429 . S
C1432 C1424 1.574 . S
C1432 H1427 0.949 . S
C1432 C1438 1.368 . S
C1433 C1417 1.349 . S
C1433 H1425 0.950 . S
C1433 C1431 1.327 . S
C1434 C1422 1.349 . S
C1434 H1428 0.950 . S
C1434 C1435 1.327 . S
C1435 H1429 0.950 . S
C1435 C1434 1.327 . S
C1435 C1439 1.429 . S
C1436 C1419 1.574 . S
C1436 H1430 0.949 . S
C1436 C1440 1.368 . S
C1437 C1418 1.429 . S
C1437 C1431 1.429 . S
C1437 C1438 1.523 . S
C1438 C1419 1.368 . S
C1438 C1432 1.368 . S
C1438 C1437 1.523 . S
C1439 C1423 1.429 . S
C1439 C1435 1.429 . S
C1439 C1440 1.523 . S
C1440 C1424 1.368 . S
C1440 C1436 1.368 . S
C1440 C1439 1.523 . S
H1441 C1416 0.950 . S
H1442 C1418 0.950 . S
H1443 C1419 0.949 . S
H1444 C1421 0.950 . S
H1445 C1423 0.950 . S
C1446 C1447 1.349 . S
C1446 C1448 1.327 . S
C1446 H1471 0.950 . S
C1447 C1446 1.349 . S
C1447 C1463 1.349 . S
C1448 C1446 1.327 . S
C1448 C1467 1.429 . S
C1448 H1472 0.950 . S
C1449 C1466 1.574 . S
C1449 C1468 1.368 . S
C1449 H1473 0.949 . S
H1450 C1454 0.949 . S
C1451 C1452 1.349 . S
C1451 C1453 1.327 . S
C1451 H1474 0.950 1_556 S
C1452 C1451 1.349 . S
C1452 C1464 1.349 . S
C1453 C1451 1.327 . S
C1453 C1469 1.429 . S
C1453 H1475 0.950 . S
C1454 H1450 0.949 . S
C1454 C1462 1.574 . S
C1454 C1470 1.368 . S
H1455 C1463 0.950 . S
H1456 C1461 0.950 . S
H1457 C1462 0.949 . S
H1458 C1464 0.950 . S
H1459 C1465 0.950 . S
H1460 C1466 0.949 . S
C1461 H1456 0.950 . S
C1461 C1463 1.327 . S
C1461 C1467 1.429 . S
C1462 C1454 1.574 . S
C1462 H1457 0.949 . S
C1462 C1468 1.368 . S
C1463 C1447 1.349 . S
C1463 H1455 0.950 . S
C1463 C1461 1.327 . S
C1464 C1452 1.349 . S
C1464 H1458 0.950 . S
C1464 C1465 1.327 . S
C1465 H1459 0.950 . S
C1465 C1464 1.327 . S
C1465 C1469 1.429 . S
C1466 C1449 1.574 . S
C1466 H1460 0.949 . S
C1466 C1470 1.368 . S
C1467 C1448 1.429 . S
C1467 C1461 1.429 . S
C1467 C1468 1.523 . S
C1468 C1449 1.368 . S
C1468 C1462 1.368 . S
C1468 C1467 1.523 . S
C1469 C1453 1.429 . S
C1469 C1465 1.429 . S
C1469 C1470 1.523 . S
C1470 C1454 1.368 . S
C1470 C1466 1.368 . S
C1470 C1469 1.523 . S
H1471 C1446 0.950 . S
H1472 C1448 0.950 . S
H1473 C1449 0.949 . S
H1474 C1451 0.950 1_554 S
H1475 C1453 0.950 . S
C1476 C1477 1.349 . S
C1476 C1478 1.327 . S
C1476 H1501 0.950 . S
C1477 C1476 1.349 . S
C1477 C1493 1.349 . S
C1478 C1476 1.327 . S
C1478 C1497 1.429 . S
C1478 H1502 0.950 . S
C1479 C1496 1.574 . S
C1479 C1498 1.368 . S
C1479 H1503 0.949 . S
H1480 C1484 0.949 . S
C1481 C1482 1.349 . S
C1481 C1483 1.327 1_556 S
C1481 H1504 0.950 . S
C1482 C1481 1.349 . S
C1482 C1494 1.349 . S
C1483 C1481 1.327 1_554 S
C1483 C1499 1.429 . S
C1483 H1505 0.950 . S
C1484 H1480 0.949 . S
C1484 C1492 1.574 . S
C1484 C1500 1.368 . S
H1485 C1493 0.950 . S
H1486 C1491 0.950 . S
H1487 C1492 0.949 . S
H1488 C1494 0.950 . S
H1489 C1495 0.950 . S
H1490 C1496 0.949 . S
C1491 H1486 0.950 . S
C1491 C1493 1.327 . S
C1491 C1497 1.429 . S
C1492 C1484 1.574 . S
C1492 H1487 0.949 . S
C1492 C1498 1.368 . S
C1493 C1477 1.349 . S
C1493 H1485 0.950 . S
C1493 C1491 1.327 . S
C1494 C1482 1.349 . S
C1494 H1488 0.950 . S
C1494 C1495 1.327 1_556 S
C1495 H1489 0.950 . S
C1495 C1494 1.327 1_554 S
C1495 C1499 1.429 . S
C1496 C1479 1.574 . S
C1496 H1490 0.949 . S
C1496 C1500 1.368 . S
C1497 C1478 1.429 . S
C1497 C1491 1.429 . S
C1497 C1498 1.523 . S
C1498 C1479 1.368 . S
C1498 C1492 1.368 . S
C1498 C1497 1.523 . S
C1499 C1483 1.429 . S
C1499 C1495 1.429 . S
C1499 C1500 1.523 . S
C1500 C1484 1.368 . S
C1500 C1496 1.368 . S
C1500 C1499 1.523 . S
H1501 C1476 0.950 . S
H1502 C1478 0.950 . S
H1503 C1479 0.949 . S
H1504 C1481 0.950 . S
H1505 C1483 0.950 . S
C1506 C1507 1.349 . S
C1506 C1508 1.327 . S
C1506 H1531 0.950 . S
C1507 C1506 1.349 . S
C1507 C1523 1.349 . S
C1508 C1506 1.327 . S
C1508 C1527 1.429 . S
C1508 H1532 0.950 . S
C1509 C1526 1.574 . S
C1509 C1528 1.368 . S
C1509 H1533 0.949 . S
H1510 C1514 0.949 . S
C1511 C1512 1.349 . S
C1511 C1513 1.327 . S
C1511 H1534 0.950 . S
C1512 C1511 1.349 . S
C1512 C1524 1.349 . S
C1513 C1511 1.327 . S
C1513 C1529 1.429 . S
C1513 H1535 0.950 . S
C1514 H1510 0.949 . S
C1514 C1522 1.574 . S
C1514 C1530 1.368 . S
H1515 C1523 0.950 . S
H1516 C1521 0.950 . S
H1517 C1522 0.949 . S
H1518 C1524 0.950 . S
H1519 C1525 0.950 . S
H1520 C1526 0.949 . S
C1521 H1516 0.950 . S
C1521 C1523 1.327 . S
C1521 C1527 1.429 . S
C1522 C1514 1.574 . S
C1522 H1517 0.949 . S
C1522 C1528 1.368 . S
C1523 C1507 1.349 . S
C1523 H1515 0.950 . S
C1523 C1521 1.327 . S
C1524 C1512 1.349 . S
C1524 H1518 0.950 . S
C1524 C1525 1.327 . S
C1525 H1519 0.950 . S
C1525 C1524 1.327 . S
C1525 C1529 1.429 . S
C1526 C1509 1.574 . S
C1526 H1520 0.949 . S
C1526 C1530 1.368 . S
C1527 C1508 1.429 . S
C1527 C1521 1.429 . S
C1527 C1528 1.523 . S
C1528 C1509 1.368 . S
C1528 C1522 1.368 . S
C1528 C1527 1.523 . S
C1529 C1513 1.429 . S
C1529 C1525 1.429 . S
C1529 C1530 1.523 . S
C1530 C1514 1.368 . S
C1530 C1526 1.368 . S
C1530 C1529 1.523 . S
H1531 C1506 0.950 . S
H1532 C1508 0.950 . S
H1533 C1509 0.949 . S
H1534 C1511 0.950 . S
H1535 C1513 0.950 . S
C1536 C1537 1.349 . S
C1536 C1538 1.327 . S
C1536 H1561 0.950 . S
C1537 C1536 1.349 . S
C1537 C1553 1.349 . S
C1538 C1536 1.327 . S
C1538 C1557 1.429 . S
C1538 H1562 0.950 . S
C1539 C1556 1.574 . S
C1539 C1558 1.368 . S
C1539 H1563 0.949 . S
H1540 C1544 0.949 . S
C1541 C1542 1.349 . S
C1541 C1543 1.327 . S
C1541 H1564 0.950 . S
C1542 C1541 1.349 . S
C1542 C1554 1.349 . S
C1543 C1541 1.327 . S
C1543 C1559 1.429 . S
C1543 H1565 0.950 . S
C1544 H1540 0.949 . S
C1544 C1552 1.574 . S
C1544 C1560 1.368 . S
H1545 C1553 0.950 . S
H1546 C1551 0.950 . S
H1547 C1552 0.949 . S
H1548 C1554 0.950 . S
H1549 C1555 0.950 . S
H1550 C1556 0.949 . S
C1551 H1546 0.950 . S
C1551 C1553 1.327 . S
C1551 C1557 1.429 . S
C1552 C1544 1.574 . S
C1552 H1547 0.949 . S
C1552 C1558 1.368 . S
C1553 C1537 1.349 . S
C1553 H1545 0.950 . S
C1553 C1551 1.327 . S
C1554 C1542 1.349 . S
C1554 H1548 0.950 . S
C1554 C1555 1.327 . S
C1555 H1549 0.950 . S
C1555 C1554 1.327 . S
C1555 C1559 1.429 . S
C1556 C1539 1.574 . S
C1556 H1550 0.949 . S
C1556 C1560 1.368 . S
C1557 C1538 1.429 . S
C1557 C1551 1.429 . S
C1557 C1558 1.523 . S
C1558 C1539 1.368 . S
C1558 C1552 1.368 . S
C1558 C1557 1.523 . S
C1559 C1543 1.429 . S
C1559 C1555 1.429 . S
C1559 C1560 1.523 . S
C1560 C1544 1.368 . S
C1560 C1556 1.368 . S
C1560 C1559 1.523 . S
H1561 C1536 0.950 . S
H1562 C1538 0.950 . S
H1563 C1539 0.949 . S
H1564 C1541 0.950 . S
H1565 C1543 0.950 . S
C757 C69 1.109 . S
C762 C657 1.121 . S
C787 C140 2.196 . S
C792 C728 2.198 . S
C817 C237 1.348 . S
C822 C560 1.526 . S
C847 C392 2.244 . S
C852 C224 2.253 . S
C877 C476 2.194 . S
C882 C56 2.190 . S
C907 C153 1.918 . S
C912 C308 2.151 . S
C937 C644 1.510 . S
C942 C489 1.379 . S
C967 C741 1.257 . S
C972 C321 1.272 . S
C997 C405 1.515 . S
C1002 C573 1.536 . S
C1027 C226 1.348 . S
C1032 C67 1.661 . S
C1057 C142 1.125 . S
C1062 C58 1.139 . S
C1087 C151 2.894 . S
C1092 C235 2.916 1_554 S
C1117 C310 1.563 . S
C1122 C487 1.960 . S
C1147 C319 1.999 . S
C1152 C394 1.634 . S
C1177 C403 1.879 . S
C1182 C478 1.455 . S
C1207 C730 1.716 . S
C1212 C571 2.194 . S
C1237 C646 0.768 . S
C1242 C562 0.769 . S
C1267 C739 2.014 . S
C1272 C655 2.007 . S
C1297 C74 1.398 . S
C1302 C63 1.398 . S
C1327 C147 1.414 . S
C1332 C158 1.414 . S
C1357 C242 1.445 . S
C1362 C231 1.445 . S
C1387 C326 1.419 . S
C1392 C315 1.419 1_556 S
C1417 C410 1.402 . S
C1422 C399 1.402 . S
C1447 C494 1.431 . S
C1452 C483 1.431 1_556 S
C1477 C578 1.401 . S
C1482 C567 1.401 . S
C1507 C662 1.394 1_554 S
C1512 C651 1.394 . S
C1537 C746 1.414 . S
C1542 C735 1.414 1_554 S
