# Generated by pormake.
# Topology ums, (4)-cn, num edge types: 1
# Building blocks:
#     Node 0, Type 0, BuildingBlock: CEKHIL_clean_sbu_0, # of connection points: 4
#     Node 1, Type 0, BuildingBlock: CEKHIL_clean_sbu_0, # of connection points: 4
#     Node 2, Type 0, BuildingBlock: CEKHIL_clean_sbu_0, # of connection points: 4
#     Node 3, Type 0, BuildingBlock: CEKHIL_clean_sbu_0, # of connection points: 4
#     Node 4, Type 0, BuildingBlock: CEKHIL_clean_sbu_0, # of connection points: 4
#     Node 5, Type 0, BuildingBlock: CEKHIL_clean_sbu_0, # of connection points: 4
#     Node 6, Type 0, BuildingBlock: CEKHIL_clean_sbu_0, # of connection points: 4
#     Node 7, Type 0, BuildingBlock: CEKHIL_clean_sbu_0, # of connection points: 4
#     Node 8, Type 0, BuildingBlock: CEKHIL_clean_sbu_0, # of connection points: 4
#     Node 9, Type 0, BuildingBlock: CEKHIL_clean_sbu_0, # of connection points: 4
#     Node 10, Type 0, BuildingBlock: CEKHIL_clean_sbu_0, # of connection points: 4
#     Node 11, Type 0, BuildingBlock: CEKHIL_clean_sbu_0, # of connection points: 4
#     Node 12, Type 0, BuildingBlock: CEKHIL_clean_sbu_0, # of connection points: 4
#     Node 13, Type 0, BuildingBlock: CEKHIL_clean_sbu_0, # of connection points: 4
#     Node 14, Type 0, BuildingBlock: CEKHIL_clean_sbu_0, # of connection points: 4
#     Node 15, Type 0, BuildingBlock: CEKHIL_clean_sbu_0, # of connection points: 4
#     Node 16, Type 0, BuildingBlock: CEKHIL_clean_sbu_0, # of connection points: 4
#     Node 17, Type 0, BuildingBlock: CEKHIL_clean_sbu_0, # of connection points: 4
#     Node 18, Type 0, BuildingBlock: CEKHIL_clean_sbu_0, # of connection points: 4
#     Node 19, Type 0, BuildingBlock: CEKHIL_clean_sbu_0, # of connection points: 4
#     Node 20, Type 0, BuildingBlock: CEKHIL_clean_sbu_0, # of connection points: 4
#     Node 21, Type 0, BuildingBlock: CEKHIL_clean_sbu_0, # of connection points: 4
#     Node 22, Type 0, BuildingBlock: CEKHIL_clean_sbu_0, # of connection points: 4
#     Node 23, Type 0, BuildingBlock: CEKHIL_clean_sbu_0, # of connection points: 4
#     Node 24, Type 0, BuildingBlock: CEKHIL_clean_sbu_0, # of connection points: 4
#     Node 25, Type 0, BuildingBlock: CEKHIL_clean_sbu_0, # of connection points: 4
#     Node 26, Type 0, BuildingBlock: CEKHIL_clean_sbu_0, # of connection points: 4
#     Node 27, Type 0, BuildingBlock: CEKHIL_clean_sbu_0, # of connection points: 4
#     Node 28, Type 0, BuildingBlock: CEKHIL_clean_sbu_0, # of connection points: 4
#     Node 29, Type 0, BuildingBlock: CEKHIL_clean_sbu_0, # of connection points: 4
#     Node 30, Type 0, BuildingBlock: CEKHIL_clean_sbu_0, # of connection points: 4
#     Node 31, Type 0, BuildingBlock: CEKHIL_clean_sbu_0, # of connection points: 4
#     Node 32, Type 0, BuildingBlock: CEKHIL_clean_sbu_0, # of connection points: 4
#     Node 33, Type 0, BuildingBlock: CEKHIL_clean_sbu_0, # of connection points: 4
#     Node 34, Type 0, BuildingBlock: CEKHIL_clean_sbu_0, # of connection points: 4
#     Node 35, Type 0, BuildingBlock: CEKHIL_clean_sbu_0, # of connection points: 4
#     Edge 36, Type (0, 0), BuildingBlock: MIFKUJ_clean_linker_0, # of connection points: 2
#     Edge 37, Type (0, 0), BuildingBlock: MIFKUJ_clean_linker_0, # of connection points: 2
#     Edge 38, Type (0, 0), BuildingBlock: MIFKUJ_clean_linker_0, # of connection points: 2
#     Edge 39, Type (0, 0), BuildingBlock: MIFKUJ_clean_linker_0, # of connection points: 2
#     Edge 40, Type (0, 0), BuildingBlock: MIFKUJ_clean_linker_0, # of connection points: 2
#     Edge 41, Type (0, 0), BuildingBlock: MIFKUJ_clean_linker_0, # of connection points: 2
#     Edge 42, Type (0, 0), BuildingBlock: MIFKUJ_clean_linker_0, # of connection points: 2
#     Edge 43, Type (0, 0), BuildingBlock: MIFKUJ_clean_linker_0, # of connection points: 2
#     Edge 44, Type (0, 0), BuildingBlock: MIFKUJ_clean_linker_0, # of connection points: 2
#     Edge 45, Type (0, 0), BuildingBlock: MIFKUJ_clean_linker_0, # of connection points: 2
#     Edge 46, Type (0, 0), BuildingBlock: MIFKUJ_clean_linker_0, # of connection points: 2
#     Edge 47, Type (0, 0), BuildingBlock: MIFKUJ_clean_linker_0, # of connection points: 2
#     Edge 48, Type (0, 0), BuildingBlock: MIFKUJ_clean_linker_0, # of connection points: 2
#     Edge 49, Type (0, 0), BuildingBlock: MIFKUJ_clean_linker_0, # of connection points: 2
#     Edge 50, Type (0, 0), BuildingBlock: MIFKUJ_clean_linker_0, # of connection points: 2
#     Edge 51, Type (0, 0), BuildingBlock: MIFKUJ_clean_linker_0, # of connection points: 2
#     Edge 52, Type (0, 0), BuildingBlock: MIFKUJ_clean_linker_0, # of connection points: 2
#     Edge 53, Type (0, 0), BuildingBlock: MIFKUJ_clean_linker_0, # of connection points: 2
#     Edge 54, Type (0, 0), BuildingBlock: MIFKUJ_clean_linker_0, # of connection points: 2
#     Edge 55, Type (0, 0), BuildingBlock: MIFKUJ_clean_linker_0, # of connection points: 2
#     Edge 56, Type (0, 0), BuildingBlock: MIFKUJ_clean_linker_0, # of connection points: 2
#     Edge 57, Type (0, 0), BuildingBlock: MIFKUJ_clean_linker_0, # of connection points: 2
#     Edge 58, Type (0, 0), BuildingBlock: MIFKUJ_clean_linker_0, # of connection points: 2
#     Edge 59, Type (0, 0), BuildingBlock: MIFKUJ_clean_linker_0, # of connection points: 2
#     Edge 60, Type (0, 0), BuildingBlock: MIFKUJ_clean_linker_0, # of connection points: 2
#     Edge 61, Type (0, 0), BuildingBlock: MIFKUJ_clean_linker_0, # of connection points: 2
#     Edge 62, Type (0, 0), BuildingBlock: MIFKUJ_clean_linker_0, # of connection points: 2
#     Edge 63, Type (0, 0), BuildingBlock: MIFKUJ_clean_linker_0, # of connection points: 2
#     Edge 64, Type (0, 0), BuildingBlock: MIFKUJ_clean_linker_0, # of connection points: 2
#     Edge 65, Type (0, 0), BuildingBlock: MIFKUJ_clean_linker_0, # of connection points: 2
#     Edge 66, Type (0, 0), BuildingBlock: MIFKUJ_clean_linker_0, # of connection points: 2
#     Edge 67, Type (0, 0), BuildingBlock: MIFKUJ_clean_linker_0, # of connection points: 2
#     Edge 68, Type (0, 0), BuildingBlock: MIFKUJ_clean_linker_0, # of connection points: 2
#     Edge 69, Type (0, 0), BuildingBlock: MIFKUJ_clean_linker_0, # of connection points: 2
#     Edge 70, Type (0, 0), BuildingBlock: MIFKUJ_clean_linker_0, # of connection points: 2
#     Edge 71, Type (0, 0), BuildingBlock: MIFKUJ_clean_linker_0, # of connection points: 2
#     Edge 72, Type (0, 0), BuildingBlock: MIFKUJ_clean_linker_0, # of connection points: 2
#     Edge 73, Type (0, 0), BuildingBlock: MIFKUJ_clean_linker_0, # of connection points: 2
#     Edge 74, Type (0, 0), BuildingBlock: MIFKUJ_clean_linker_0, # of connection points: 2
#     Edge 75, Type (0, 0), BuildingBlock: MIFKUJ_clean_linker_0, # of connection points: 2
#     Edge 76, Type (0, 0), BuildingBlock: MIFKUJ_clean_linker_0, # of connection points: 2
#     Edge 77, Type (0, 0), BuildingBlock: MIFKUJ_clean_linker_0, # of connection points: 2
#     Edge 78, Type (0, 0), BuildingBlock: MIFKUJ_clean_linker_0, # of connection points: 2
#     Edge 79, Type (0, 0), BuildingBlock: MIFKUJ_clean_linker_0, # of connection points: 2
#     Edge 80, Type (0, 0), BuildingBlock: MIFKUJ_clean_linker_0, # of connection points: 2
#     Edge 81, Type (0, 0), BuildingBlock: MIFKUJ_clean_linker_0, # of connection points: 2
#     Edge 82, Type (0, 0), BuildingBlock: MIFKUJ_clean_linker_0, # of connection points: 2
#     Edge 83, Type (0, 0), BuildingBlock: MIFKUJ_clean_linker_0, # of connection points: 2
#     Edge 84, Type (0, 0), BuildingBlock: MIFKUJ_clean_linker_0, # of connection points: 2
#     Edge 85, Type (0, 0), BuildingBlock: MIFKUJ_clean_linker_0, # of connection points: 2
#     Edge 86, Type (0, 0), BuildingBlock: MIFKUJ_clean_linker_0, # of connection points: 2
#     Edge 87, Type (0, 0), BuildingBlock: MIFKUJ_clean_linker_0, # of connection points: 2
#     Edge 88, Type (0, 0), BuildingBlock: MIFKUJ_clean_linker_0, # of connection points: 2
#     Edge 89, Type (0, 0), BuildingBlock: MIFKUJ_clean_linker_0, # of connection points: 2
#     Edge 90, Type (0, 0), BuildingBlock: MIFKUJ_clean_linker_0, # of connection points: 2
#     Edge 91, Type (0, 0), BuildingBlock: MIFKUJ_clean_linker_0, # of connection points: 2
#     Edge 92, Type (0, 0), BuildingBlock: MIFKUJ_clean_linker_0, # of connection points: 2
#     Edge 93, Type (0, 0), BuildingBlock: MIFKUJ_clean_linker_0, # of connection points: 2
#     Edge 94, Type (0, 0), BuildingBlock: MIFKUJ_clean_linker_0, # of connection points: 2
#     Edge 95, Type (0, 0), BuildingBlock: MIFKUJ_clean_linker_0, # of connection points: 2
#     Edge 96, Type (0, 0), BuildingBlock: MIFKUJ_clean_linker_0, # of connection points: 2
#     Edge 97, Type (0, 0), BuildingBlock: MIFKUJ_clean_linker_0, # of connection points: 2
#     Edge 98, Type (0, 0), BuildingBlock: MIFKUJ_clean_linker_0, # of connection points: 2
#     Edge 99, Type (0, 0), BuildingBlock: MIFKUJ_clean_linker_0, # of connection points: 2
#     Edge 100, Type (0, 0), BuildingBlock: MIFKUJ_clean_linker_0, # of connection points: 2
#     Edge 101, Type (0, 0), BuildingBlock: MIFKUJ_clean_linker_0, # of connection points: 2
#     Edge 102, Type (0, 0), BuildingBlock: MIFKUJ_clean_linker_0, # of connection points: 2
#     Edge 103, Type (0, 0), BuildingBlock: MIFKUJ_clean_linker_0, # of connection points: 2
#     Edge 104, Type (0, 0), BuildingBlock: MIFKUJ_clean_linker_0, # of connection points: 2
#     Edge 105, Type (0, 0), BuildingBlock: MIFKUJ_clean_linker_0, # of connection points: 2
#     Edge 106, Type (0, 0), BuildingBlock: MIFKUJ_clean_linker_0, # of connection points: 2
#     Edge 107, Type (0, 0), BuildingBlock: MIFKUJ_clean_linker_0, # of connection points: 2
# Relax obj value: 0.199
# Max RMSD: 0.148
# Mean RMSD: 0.147
data_MOF--net-ums--node1-CEKHIL_clean_sbu_0--edge1-MIFKUJ_clean_linker_0
_symmetry_space_group_name_H-M    P1
_symmetry_Int_Tables_number       1
_symmetry_cell_setting            triclinic
loop_
_symmetry_equiv_pos_as_xyz
'x, y, z'
_cell_length_a     129.90455
_cell_length_b     129.88914
_cell_length_c     30.812821
_cell_angle_alpha  90.005026
_cell_angle_beta   89.990458
_cell_angle_gamma 120.00913
loop_
_atom_site_label
_atom_site_type_symbol
_atom_site_fract_x
_atom_site_fract_y
_atom_site_fract_z
_atom_type_partial_charge
Co0 Co 0.17907 0.25846 0.19004 0.0
O1 O 0.18804 0.25441 0.22937 0.0
O2 O 0.17372 0.24171 0.18584 0.0
C3 C 0.19489 0.27481 0.16253 0.0
O4 O 0.16819 0.25903 0.14385 0.0
Co5 Co 0.17888 0.28225 0.19399 0.0
O6 O 0.17111 0.27749 0.13629 0.0
C7 C 0.16464 0.26291 0.25699 0.0
C8 C 0.18185 0.24364 0.21441 0.0
C9 C 0.16642 0.26671 0.1239 0.0
O10 O 0.16708 0.25565 0.23707 0.0
O11 O 0.1692 0.27388 0.24648 0.0
O12 O 0.19198 0.26437 0.14736 0.0
O13 O 0.18872 0.27499 0.19496 0.0
Co14 Co 0.74501 0.91904 0.19223 0.0
O15 O 0.74772 0.93276 0.22517 0.0
O16 O 0.76093 0.93204 0.1817 0.0
C17 C 0.72695 0.91453 0.16662 0.0
O18 O 0.74546 0.90687 0.1519 0.0
Co19 Co 0.72393 0.89382 0.21287 0.0
O20 O 0.7288 0.88913 0.1587 0.0
C21 C 0.74455 0.90531 0.2717 0.0
C22 C 0.75827 0.93817 0.20809 0.0
C23 C 0.73869 0.896 0.14015 0.0
O24 O 0.75062 0.91324 0.2429 0.0
O25 O 0.73348 0.89772 0.2677 0.0
O26 O 0.73652 0.92257 0.14735 0.0
O27 O 0.7286 0.91023 0.2019 0.0
Co28 Co 0.08201 0.82767 0.18169 0.0
O29 O 0.06837 0.81592 0.21316 0.0
O30 O 0.06867 0.83009 0.17224 0.0
C31 C 0.08738 0.81494 0.15401 0.0
O32 O 0.09404 0.84091 0.14264 0.0
Co33 Co 0.10755 0.83271 0.20314 0.0
O34 O 0.11199 0.84246 0.14954 0.0
C35 C 0.09501 0.84031 0.26328 0.0
C36 C 0.06267 0.82089 0.19709 0.0
C37 C 0.10499 0.84533 0.13118 0.0
O38 O 0.08726 0.83859 0.23389 0.0
O39 O 0.10291 0.83726 0.25886 0.0
O40 O 0.07899 0.81605 0.13554 0.0
O41 O 0.09141 0.82068 0.18986 0.0
Co42 Co 0.25749 0.17679 0.30305 0.0
O43 O 0.25286 0.18564 0.2655 0.0
O44 O 0.24101 0.17194 0.31283 0.0
C45 C 0.27469 0.19253 0.32599 0.0
O46 O 0.25893 0.16616 0.34836 0.0
Co47 Co 0.28079 0.17592 0.28936 0.0
O48 O 0.27708 0.16802 0.3469 0.0
C49 C 0.26027 0.16288 0.2302 0.0
C50 C 0.24249 0.17983 0.28387 0.0
C51 C 0.26683 0.16397 0.36398 0.0
O52 O 0.25335 0.16441 0.25614 0.0
O53 O 0.27151 0.16777 0.23592 0.0
O54 O 0.26468 0.19013 0.34403 0.0
O55 O 0.27384 0.18599 0.29323 0.0
Co56 Co 0.82473 0.08223 0.29452 0.0
O57 O 0.81424 0.06858 0.26028 0.0
O58 O 0.82969 0.07046 0.29739 0.0
C59 C 0.81029 0.08399 0.32835 0.0
O60 O 0.83721 0.0946 0.33491 0.0
Co61 Co 0.8252 0.10631 0.28492 0.0
O62 O 0.83492 0.11062 0.33858 0.0
C63 C 0.83567 0.09829 0.21692 0.0
C64 C 0.8206 0.06396 0.27262 0.0
C65 C 0.83972 0.10468 0.35158 0.0
O66 O 0.83503 0.09002 0.24184 0.0
O67 O 0.83119 0.10481 0.22669 0.0
O68 O 0.81337 0.07652 0.34281 0.0
O69 O 0.81531 0.08936 0.29277 0.0
Co70 Co 0.91968 0.7434 0.29982 0.0
O71 O 0.93251 0.74706 0.25998 0.0
O72 O 0.9321 0.75969 0.30733 0.0
C73 C 0.91745 0.72587 0.32245 0.0
O74 O 0.90864 0.74307 0.34744 0.0
Co75 Co 0.89461 0.72102 0.29176 0.0
O76 O 0.89242 0.72495 0.35195 0.0
C77 C 0.90135 0.74205 0.2355 0.0
C78 C 0.93785 0.7576 0.27732 0.0
C79 C 0.89906 0.7354 0.36674 0.0
O80 O 0.91142 0.74812 0.25496 0.0
O81 O 0.89396 0.73113 0.244 0.0
O82 O 0.92562 0.73577 0.33949 0.0
O83 O 0.91152 0.72692 0.29093 0.0
Co84 Co 0.82446 0.74231 0.80446 0.0
O85 O 0.81318 0.74392 0.76881 0.0
O86 O 0.82771 0.75853 0.80622 0.0
C87 C 0.81093 0.72537 0.83758 0.0
O88 O 0.83735 0.74406 0.84655 0.0
Co89 Co 0.82808 0.7204 0.79714 0.0
O90 O 0.83777 0.72699 0.85031 0.0
C91 C 0.83713 0.73879 0.72872 0.0
C92 C 0.81852 0.75497 0.78101 0.0
C93 C 0.84121 0.73754 0.86329 0.0
O94 O 0.83545 0.7459 0.75301 0.0
O95 O 0.83362 0.72797 0.73888 0.0
O96 O 0.81262 0.73557 0.85127 0.0
O97 O 0.8167 0.72573 0.8031 0.0
Co98 Co 0.25983 0.08236 0.80584 0.0
O99 O 0.25731 0.07046 0.76332 0.0
O100 O 0.24337 0.06986 0.80641 0.0
C101 C 0.27664 0.08381 0.83302 0.0
O102 O 0.25889 0.09231 0.85527 0.0
Co103 Co 0.28243 0.10739 0.8089 0.0
O104 O 0.27696 0.10796 0.8684 0.0
C105 C 0.26324 0.10224 0.74515 0.0
C106 C 0.24636 0.06474 0.77669 0.0
C107 C 0.26612 0.10119 0.87885 0.0
O108 O 0.25651 0.09177 0.76109 0.0
O109 O 0.27387 0.10926 0.75827 0.0
O110 O 0.26634 0.0754 0.84635 0.0
O111 O 0.27642 0.09054 0.80281 0.0
Co112 Co 0.9194 0.17874 0.79298 0.0
O113 O 0.93293 0.18846 0.75667 0.0
O114 O 0.93159 0.17457 0.8018 0.0
C115 C 0.917 0.19379 0.81744 0.0
O116 O 0.90747 0.16737 0.8373 0.0
Co117 Co 0.89466 0.17663 0.78024 0.0
O118 O 0.89107 0.16899 0.8381 0.0
C119 C 0.90194 0.16274 0.7243 0.0
C120 C 0.93791 0.18292 0.77408 0.0
C121 C 0.89741 0.16496 0.85386 0.0
O122 O 0.9118 0.16652 0.74508 0.0
O123 O 0.89446 0.16618 0.73221 0.0
O124 O 0.92479 0.19166 0.83539 0.0
O125 O 0.91159 0.1874 0.78402 0.0
Co126 Co 0.744 0.8252 0.69078 0.0
O127 O 0.74553 0.81347 0.7241 0.0
O128 O 0.75992 0.8278 0.68524 0.0
C129 C 0.72641 0.81236 0.65999 0.0
O130 O 0.74582 0.83839 0.65026 0.0
Co131 Co 0.7232 0.83023 0.70467 0.0
O132 O 0.72967 0.84048 0.65265 0.0
C133 C 0.74208 0.8376 0.77028 0.0
C134 C 0.75641 0.81854 0.71 0.0
C135 C 0.73975 0.84312 0.63676 0.0
O136 O 0.74872 0.83606 0.74307 0.0
O137 O 0.73122 0.83449 0.76266 0.0
O138 O 0.73621 0.81355 0.64401 0.0
O139 O 0.72751 0.81815 0.69527 0.0
Co140 Co 0.17428 0.92065 0.6777 0.0
O141 O 0.18658 0.93399 0.70903 0.0
O142 O 0.17168 0.93401 0.67409 0.0
C143 C 0.18647 0.9157 0.64298 0.0
O144 O 0.1604 0.90915 0.63972 0.0
Co145 Co 0.16944 0.89483 0.69131 0.0
O146 O 0.15805 0.8908 0.64275 0.0
C147 C 0.16299 0.90656 0.75914 0.0
C148 C 0.18135 0.93981 0.69681 0.0
C149 C 0.15529 0.89822 0.62743 0.0
O150 O 0.16425 0.9147 0.73219 0.0
O151 O 0.16594 0.89875 0.75038 0.0
O152 O 0.18512 0.92432 0.62824 0.0
O153 O 0.18132 0.91114 0.67936 0.0
Co154 Co 0.082 0.25497 0.69067 0.0
O155 O 0.06966 0.25259 0.73114 0.0
O156 O 0.06908 0.23877 0.68748 0.0
C157 C 0.08472 0.27233 0.6635 0.0
O158 O 0.09231 0.2539 0.64291 0.0
Co159 Co 0.10758 0.27685 0.69267 0.0
O160 O 0.10811 0.27204 0.63209 0.0
C161 C 0.10077 0.25681 0.754 0.0
C162 C 0.06379 0.24177 0.71645 0.0
C163 C 0.10131 0.26132 0.62028 0.0
O164 O 0.09036 0.25075 0.73687 0.0
O165 O 0.10847 0.26735 0.7421 0.0
O166 O 0.07608 0.26228 0.64927 0.0
O167 O 0.0908 0.27155 0.6951 0.0
Co168 Co 0.84407 0.59307 0.53908 0.0
O169 O 0.8537 0.58942 0.57658 0.0
O170 O 0.83964 0.57659 0.53252 0.0
C171 C 0.85907 0.61017 0.51205 0.0
O172 O 0.83273 0.59337 0.49431 0.0
Co173 Co 0.84219 0.61586 0.54993 0.0
O174 O 0.83272 0.61067 0.49568 0.0
C175 C 0.83037 0.59606 0.61245 0.0
C176 C 0.84792 0.57873 0.56068 0.0
C177 C 0.82937 0.60046 0.47935 0.0
O178 O 0.8321 0.58913 0.58738 0.0
O179 O 0.8348 0.60719 0.60513 0.0
O180 O 0.85683 0.60001 0.49585 0.0
O181 O 0.8529 0.60961 0.54565 0.0
Co182 Co 0.40728 0.25007 0.54449 0.0
O183 O 0.4089 0.26217 0.58485 0.0
O184 O 0.42335 0.26318 0.5436 0.0
C185 C 0.39015 0.24695 0.51395 0.0
O186 O 0.40925 0.24006 0.49788 0.0
Co187 Co 0.38586 0.22418 0.54546 0.0
O188 O 0.3922 0.22279 0.4886 0.0
C189 C 0.40402 0.23261 0.61474 0.0
C190 C 0.41989 0.26821 0.57199 0.0
C191 C 0.40277 0.23031 0.47716 0.0
O192 O 0.41112 0.24184 0.59226 0.0
O193 O 0.39329 0.22531 0.60346 0.0
O194 O 0.40022 0.2559 0.50148 0.0
O195 O 0.3907 0.24087 0.54598 0.0
Co196 Co 0.74927 0.15596 0.54608 0.0
O197 O 0.73523 0.14546 0.5786 0.0
O198 O 0.7367 0.1593 0.53275 0.0
C199 C 0.7534 0.14191 0.52322 0.0
O200 O 0.76191 0.1681 0.50563 0.0
Co201 Co 0.77404 0.15946 0.57068 0.0
O202 O 0.77955 0.16924 0.51715 0.0
C203 C 0.76243 0.1691 0.62641 0.0
C204 C 0.73022 0.15075 0.55956 0.0
C205 C 0.77293 0.17216 0.49622 0.0
O206 O 0.75504 0.16765 0.59596 0.0
O207 O 0.76969 0.16515 0.62434 0.0
O208 O 0.7456 0.14357 0.50271 0.0
O209 O 0.75762 0.14802 0.55827 0.0
Co210 Co 0.9229 0.50949 0.62375 0.0
O211 O 0.91909 0.51985 0.59178 0.0
O212 O 0.90628 0.50454 0.6314 0.0
C213 C 0.93972 0.52409 0.6538 0.0
O214 O 0.92361 0.49722 0.663 0.0
Co215 Co 0.94629 0.509 0.60706 0.0
O216 O 0.94177 0.49909 0.6603 0.0
C217 C 0.9267 0.49868 0.54317 0.0
C218 C 0.9084 0.51358 0.60711 0.0
C219 C 0.93137 0.49455 0.67651 0.0
O220 O 0.91942 0.499 0.57082 0.0
O221 O 0.93788 0.50338 0.5501 0.0
O222 O 0.92948 0.52107 0.67121 0.0
O223 O 0.93936 0.51889 0.6178 0.0
Co224 Co 0.49058 0.41361 0.64304 0.0
O225 O 0.47936 0.3995 0.61232 0.0
O226 O 0.49301 0.40054 0.65801 0.0
C227 C 0.47732 0.41898 0.66484 0.0
O228 O 0.50324 0.42618 0.68226 0.0
Co229 Co 0.49549 0.43877 0.6161 0.0
O230 O 0.50472 0.44396 0.67091 0.0
C231 C 0.50404 0.42584 0.56191 0.0
C232 C 0.48414 0.39412 0.63231 0.0
C233 C 0.50746 0.43721 0.69193 0.0
O234 O 0.5021 0.4184 0.59276 0.0
O235 O 0.50079 0.43366 0.56334 0.0
O236 O 0.47845 0.411 0.68643 0.0
O237 O 0.48346 0.42264 0.62962 0.0
Co238 Co 0.58492 0.07688 0.63431 0.0
O239 O 0.59824 0.07904 0.59991 0.0
O240 O 0.59828 0.09263 0.64346 0.0
C241 C 0.58014 0.05873 0.65989 0.0
O242 O 0.57341 0.07801 0.67647 0.0
Co243 Co 0.55911 0.05637 0.61839 0.0
O244 O 0.55562 0.0613 0.67464 0.0
C245 C 0.56954 0.07759 0.56154 0.0
C246 C 0.60405 0.08963 0.61662 0.0
C247 C 0.5628 0.07139 0.69112 0.0
O248 O 0.57907 0.08272 0.58456 0.0
O249 O 0.56097 0.06704 0.5685 0.0
O250 O 0.58853 0.06826 0.67822 0.0
O251 O 0.57552 0.06043 0.6255 0.0
Co252 Co 0.49204 0.07686 0.13489 0.0
O253 O 0.48061 0.07941 0.10415 0.0
O254 O 0.49534 0.09293 0.14424 0.0
C255 C 0.47884 0.05917 0.164 0.0
O256 O 0.50513 0.07753 0.17294 0.0
Co257 Co 0.49566 0.05547 0.11423 0.0
O258 O 0.50688 0.06128 0.16392 0.0
C259 C 0.50381 0.0754 0.05275 0.0
C260 C 0.48611 0.09011 0.12 0.0
C261 C 0.50981 0.07113 0.18254 0.0
O262 O 0.50263 0.08184 0.08186 0.0
O263 O 0.50021 0.06433 0.05786 0.0
O264 O 0.48073 0.06899 0.1823 0.0
O265 O 0.48418 0.06036 0.12751 0.0
Co266 Co 0.92601 0.41542 0.12278 0.0
O267 O 0.9229 0.40137 0.0913 0.0
O268 O 0.90951 0.40329 0.1295 0.0
C269 C 0.94302 0.41833 0.15351 0.0
O270 O 0.92595 0.42806 0.16171 0.0
Co271 Co 0.94882 0.43983 0.10697 0.0
O272 O 0.94397 0.44454 0.1611 0.0
C273 C 0.92943 0.43006 0.04233 0.0
C274 C 0.9121 0.39658 0.10593 0.0
C275 C 0.93349 0.43842 0.17645 0.0
O276 O 0.92231 0.42211 0.06943 0.0
O277 O 0.9405 0.43701 0.04978 0.0
O278 O 0.93284 0.41086 0.17082 0.0
O279 O 0.94252 0.42307 0.11747 0.0
Co280 Co 0.5847 0.50608 0.14975 0.0
O281 O 0.59777 0.51789 0.11599 0.0
O282 O 0.59828 0.50394 0.1557 0.0
C283 C 0.57961 0.51874 0.17978 0.0
O284 O 0.57354 0.49281 0.1906 0.0
Co285 Co 0.55863 0.50041 0.13618 0.0
O286 O 0.55507 0.49013 0.18796 0.0
C287 C 0.57054 0.49351 0.07048 0.0
C288 C 0.60384 0.51314 0.13054 0.0
C289 C 0.56271 0.48777 0.20392 0.0
O290 O 0.57874 0.49511 0.09767 0.0
O291 O 0.56264 0.4964 0.07816 0.0
O292 O 0.58835 0.51782 0.19602 0.0
O293 O 0.57494 0.51276 0.14485 0.0
Co294 Co 0.40822 0.15608 0.04822 0.0
O295 O 0.41252 0.14743 0.08808 0.0
O296 O 0.42478 0.1609 0.04105 0.0
C297 C 0.39126 0.14014 0.02483 0.0
O298 O 0.40724 0.16647 0.00083 0.0
Co299 Co 0.38482 0.15695 0.05621 0.0
O300 O 0.38904 0.1644 0.99798 0.0
C301 C 0.40538 0.17196 0.11348 0.0
C302 C 0.42305 0.15312 0.07085 0.0
C303 C 0.3995 0.16852 0.98288 0.0
O304 O 0.41208 0.16884 0.09326 0.0
O305 O 0.39429 0.16754 0.10532 0.0
O306 O 0.40142 0.14256 0.00812 0.0
O307 O 0.39175 0.14683 0.05655 0.0
Co308 Co 0.8416 0.25155 0.03934 0.0
O309 O 0.85336 0.26523 0.0706 0.0
O310 O 0.83836 0.26449 0.03375 0.0
C311 C 0.85471 0.24734 0.00739 0.0
O312 O 0.82818 0.23957 0.00101 0.0
Co313 Co 0.83787 0.22623 0.05381 0.0
O314 O 0.82727 0.22184 0.00249 0.0
C315 C 0.82998 0.23725 0.11986 0.0
C316 C 0.84784 0.27065 0.05713 0.0
C317 C 0.8239 0.22882 0.98749 0.0
O318 O 0.83136 0.24548 0.09322 0.0
O319 O 0.83321 0.22961 0.11172 0.0
O320 O 0.8527 0.25536 0.99069 0.0
O321 O 0.84938 0.24277 0.0435 0.0
Co322 Co 0.7481 0.59164 0.03845 0.0
O323 O 0.73582 0.589 0.07958 0.0
O324 O 0.73501 0.57564 0.03289 0.0
C325 C 0.75123 0.60946 0.01508 0.0
O326 O 0.75828 0.59087 0.98958 0.0
Co327 Co 0.77393 0.61294 0.04279 0.0
O328 O 0.77494 0.60853 0.98208 0.0
C329 C 0.7664 0.59224 0.10114 0.0
C330 C 0.72983 0.57838 0.06313 0.0
C331 C 0.76772 0.59809 0.96851 0.0
O332 O 0.75612 0.58655 0.08289 0.0
O333 O 0.77433 0.60286 0.09119 0.0
O334 O 0.74247 0.59969 -0.00053 0.0
O335 O 0.75724 0.60814 0.04569 0.0
Co336 Co 0.50973 0.92389 0.86358 0.0
O337 O 0.52015 0.92152 0.90166 0.0
O338 O 0.5063 0.90765 0.85977 0.0
C339 C 0.52409 0.94111 0.83521 0.0
O340 O 0.49774 0.92271 0.81841 0.0
Co341 Co 0.506 0.94563 0.8676 0.0
O342 O 0.4992 0.9405 0.8087 0.0
C343 C 0.49368 0.92586 0.93048 0.0
C344 C 0.5149 0.91064 0.88741 0.0
C345 C 0.49535 0.92977 0.79714 0.0
O346 O 0.49781 0.91977 0.91204 0.0
O347 O 0.49626 0.93633 0.91875 0.0
O348 O 0.52232 0.93104 0.81979 0.0
O349 O 0.51766 0.9405 0.86806 0.0
Co350 Co 0.07404 0.58371 0.86573 0.0
O351 O 0.07604 0.59733 0.89775 0.0
O352 O 0.08989 0.59695 0.8569 0.0
C353 C 0.05605 0.57876 0.8382 0.0
O354 O 0.07533 0.5719 0.82602 0.0
Co355 Co 0.05341 0.55812 0.88383 0.0
O356 O 0.0591 0.55379 0.83081 0.0
C357 C 0.0733 0.56999 0.94556 0.0
C358 C 0.08673 0.60296 0.88181 0.0
C359 C 0.06906 0.56104 0.81354 0.0
O360 O 0.07947 0.57812 0.91753 0.0
O361 O 0.06239 0.56209 0.94 0.0
O362 O 0.06566 0.58698 0.81964 0.0
O363 O 0.0576 0.57445 0.87363 0.0
Co364 Co 0.4134 0.49176 0.85893 0.0
O365 O 0.39952 0.48084 0.89126 0.0
O366 O 0.40068 0.49507 0.8483 0.0
C367 C 0.41764 0.47806 0.83296 0.0
O368 O 0.42585 0.50429 0.81903 0.0
Co369 Co 0.43841 0.49531 0.88041 0.0
O370 O 0.44309 0.50427 0.8249 0.0
C371 C 0.42727 0.50504 0.93839 0.0
C372 C 0.39431 0.48617 0.87401 0.0
C373 C 0.43656 0.50776 0.80667 0.0
O374 O 0.41932 0.50314 0.90966 0.0
O375 O 0.43477 0.50142 0.93464 0.0
O376 O 0.40962 0.47969 0.81402 0.0
O377 O 0.42195 0.48393 0.8684 0.0
Co378 Co 0.59122 0.84185 0.96304 0.0
O379 O 0.58846 0.85296 0.93105 0.0
O380 O 0.57513 0.83853 0.97258 0.0
C381 C 0.60899 0.85546 0.99056 0.0
O382 O 0.59085 0.82912 0.00263 0.0
Co383 Co 0.61276 0.83838 0.94315 0.0
O384 O 0.60785 0.82864 0.9969 0.0
C385 C 0.59249 0.8293 0.88261 0.0
C386 C 0.57783 0.84759 0.94751 0.0
C387 C 0.59782 0.8253 0.0148 0.0
O388 O 0.58613 0.8308 0.91121 0.0
O389 O 0.60358 0.83295 0.88749 0.0
O390 O 0.59922 0.85362 0.00909 0.0
O391 O 0.60767 0.84977 0.95483 0.0
Co392 Co 0.15893 0.74816 0.9684 0.0
O393 O 0.14737 0.73518 0.93371 0.0
O394 O 0.16037 0.73424 0.97772 0.0
C395 C 0.14638 0.7541 0.99335 0.0
O396 O 0.17165 0.75922 0.01092 0.0
Co397 Co 0.16575 0.77439 0.9496 0.0
O398 O 0.17596 0.77816 0.00174 0.0
C399 C 0.17393 0.76196 0.89163 0.0
C400 C 0.15157 0.72889 0.95067 0.0
C401 C 0.17732 0.77029 0.02134 0.0
O402 O 0.17087 0.75353 0.91942 0.0
O403 O 0.17142 0.77026 0.89551 0.0
O404 O 0.14665 0.74521 0.01157 0.0
O405 O 0.15287 0.75835 0.95913 0.0
Co406 Co 0.25088 0.40954 0.96625 0.0
O407 O 0.26353 0.41274 0.926 0.0
O408 O 0.26389 0.42546 0.97473 0.0
C409 C 0.24753 0.3914 0.98661 0.0
O410 O 0.24027 0.40973 0.01447 0.0
Co411 Co 0.2251 0.38827 0.95796 0.0
O412 O 0.2231 0.3924 0.01801 0.0
C413 C 0.23298 0.40996 0.90441 0.0
C414 C 0.26931 0.42317 0.94404 0.0
C415 C 0.23036 0.40263 0.03322 0.0
O416 O 0.24326 0.41529 0.92268 0.0
O417 O 0.22495 0.39924 0.91263 0.0
O418 O 0.25612 0.40093 0.00422 0.0
O419 O 0.2418 0.39314 0.95601 0.0
Co420 Co 0.15572 0.40699 0.46327 0.0
O421 O 0.14717 0.411 0.42181 0.0
O422 O 0.15852 0.42276 0.47473 0.0
C423 C 0.14054 0.38862 0.47879 0.0
O424 O 0.16553 0.40614 0.51324 0.0
Co425 Co 0.16006 0.38565 0.45177 0.0
O426 O 0.16565 0.38892 0.51259 0.0
C427 C 0.17491 0.4082 0.40383 0.0
C428 C 0.15144 0.42106 0.4423 0.0
C429 C 0.16821 0.39876 0.53045 0.0
O430 O 0.16986 0.41335 0.42284 0.0
O431 O 0.1718 0.39725 0.40946 0.0
O432 O 0.14122 0.39789 0.49768 0.0
O433 O 0.14846 0.3908 0.44947 0.0
Co434 Co 0.59065 0.74752 0.46438 0.0
O435 O 0.58871 0.73389 0.43255 0.0
O436 O 0.57464 0.73441 0.47148 0.0
C437 C 0.60832 0.75213 0.49438 0.0
O438 O 0.58933 0.75943 0.50368 0.0
Co439 Co 0.61186 0.77301 0.44784 0.0
O440 O 0.6059 0.77735 0.49995 0.0
C441 C 0.59257 0.76145 0.38364 0.0
C442 C 0.57791 0.72832 0.44746 0.0
C443 C 0.59577 0.77027 0.51642 0.0
O444 O 0.58592 0.75345 0.41145 0.0
O445 O 0.60351 0.76907 0.39046 0.0
O446 O 0.59849 0.74387 0.51158 0.0
O447 O 0.60714 0.75658 0.45866 0.0
Co448 Co 0.25056 0.84163 0.46632 0.0
O449 O 0.26317 0.85163 0.42675 0.0
O450 O 0.26423 0.83993 0.47673 0.0
C451 C 0.24568 0.85541 0.48568 0.0
O452 O 0.24008 0.83049 0.51424 0.0
Co453 Co 0.22421 0.83501 0.45382 0.0
O454 O 0.22171 0.82807 0.51257 0.0
C455 C 0.23416 0.82285 0.40192 0.0
C456 C 0.26942 0.84767 0.44595 0.0
C457 C 0.22959 0.82635 0.53023 0.0
O458 O 0.24409 0.82824 0.4226 0.0
O459 O 0.22554 0.8248 0.40814 0.0
O460 O 0.25467 0.85532 0.50379 0.0
O461 O 0.24056 0.84786 0.45466 0.0
Co462 Co 0.07704 0.49148 0.36757 0.0
O463 O 0.07967 0.48037 0.40023 0.0
O464 O 0.0931 0.49474 0.35868 0.0
C465 C 0.05931 0.47787 0.33985 0.0
O466 O 0.07767 0.50417 0.32719 0.0
Co467 Co 0.05564 0.4953 0.38506 0.0
O468 O 0.06105 0.50538 0.33223 0.0
C469 C 0.07542 0.50384 0.44757 0.0
C470 C 0.09033 0.48571 0.38392 0.0
C471 C 0.07104 0.50836 0.31469 0.0
O472 O 0.08199 0.50255 0.4193 0.0
O473 O 0.06438 0.50023 0.44166 0.0
O474 O 0.0691 0.47965 0.3217 0.0
O475 O 0.06056 0.48368 0.37522 0.0
Co476 Co 0.50816 0.58396 0.35429 0.0
O477 O 0.51926 0.59616 0.39295 0.0
O478 O 0.50563 0.59738 0.35359 0.0
C479 C 0.52161 0.5802 0.32253 0.0
O480 O 0.49566 0.57386 0.30909 0.0
Co481 Co 0.50314 0.55784 0.35679 0.0
O482 O 0.49406 0.55587 0.30298 0.0
C483 C 0.4922 0.56611 0.4223 0.0
C484 C 0.51446 0.60239 0.38065 0.0
C485 C 0.49136 0.56361 0.29086 0.0
O486 O 0.49627 0.57625 0.4032 0.0
O487 O 0.49468 0.55816 0.41035 0.0
O488 O 0.52067 0.58923 0.30989 0.0
O489 O 0.5152 0.57443 0.35542 0.0
Co490 Co 0.41484 0.92373 0.36888 0.0
O491 O 0.40131 0.9209 0.40324 0.0
O492 O 0.40172 0.90797 0.35735 0.0
C493 C 0.41946 0.94198 0.34537 0.0
O494 O 0.42679 0.92361 0.3265 0.0
Co495 Co 0.44022 0.9445 0.39047 0.0
O496 O 0.44485 0.93977 0.33584 0.0
C497 C 0.42873 0.92338 0.44667 0.0
C498 C 0.39571 0.91054 0.38472 0.0
C499 C 0.43774 0.93027 0.31555 0.0
O500 O 0.4208 0.91762 0.41751 0.0
O501 O 0.43629 0.9345 0.44409 0.0
O502 O 0.41114 0.93257 0.32619 0.0
O503 O 0.42384 0.94003 0.37988 0.0
H504 H 0.22766 0.18132 0.34217 0.0
H505 H 0.21463 0.18956 0.33024 0.0
H506 H 0.22308 0.19309 0.19342 0.0
H507 H 0.23693 0.18583 0.20637 0.0
H508 H 0.22442 0.21174 0.2148 0.0
H509 H 0.19396 0.17187 0.24274 0.0
H510 H 0.18335 0.15275 0.28164 0.0
H511 H 0.17897 0.17034 0.39215 0.0
H512 H 0.18969 0.1896 0.35414 0.0
H513 H 0.17539 0.22285 0.17181 0.0
H514 H 0.18283 0.20911 0.18492 0.0
H515 H 0.20226 0.22967 0.29644 0.0
H516 H 0.19512 0.24364 0.28302 0.0
H517 H 0.18502 0.19765 0.28322 0.0
H518 H 0.22197 0.23822 0.25153 0.0
H519 H 0.23092 0.25616 0.20525 0.0
H520 H 0.22003 0.23424 0.0911 0.0
H521 H 0.2109 0.2162 0.13687 0.0
C522 C 0.22655 0.18368 0.30947 0.0
C523 C 0.23325 0.18295 0.27513 0.0
C524 C 0.21902 0.18832 0.30253 0.0
C525 C 0.21766 0.19183 0.26073 0.0
C526 C 0.22397 0.19053 0.22605 0.0
C527 C 0.23184 0.18632 0.23332 0.0
C528 C 0.21058 0.19787 0.25381 0.0
C529 C 0.21574 0.20845 0.22946 0.0
C530 C 0.1992 0.19378 0.27275 0.0
C531 C 0.19271 0.1822 0.29567 0.0
C532 C 0.1908 0.17168 0.27544 0.0
C533 C 0.18475 0.16081 0.29732 0.0
C534 C 0.18051 0.16034 0.33937 0.0
C535 C 0.18227 0.17072 0.35959 0.0
C536 C 0.18832 0.18161 0.33786 0.0
C537 C 0.18105 0.22431 0.19965 0.0
C538 C 0.18475 0.23436 0.22624 0.0
C539 C 0.18527 0.21645 0.20708 0.0
C540 C 0.19307 0.21843 0.24156 0.0
C541 C 0.19621 0.22803 0.26969 0.0
C542 C 0.19216 0.236 0.26191 0.0
C543 C 0.19906 0.21134 0.24523 0.0
C544 C 0.19367 0.20068 0.26867 0.0
C545 C 0.21007 0.21513 0.22474 0.0
C546 C 0.21571 0.22593 0.19747 0.0
C547 C 0.22145 0.23726 0.21656 0.0
C548 C 0.22655 0.24743 0.19045 0.0
C549 C 0.22602 0.24634 0.14526 0.0
C550 C 0.22042 0.23507 0.12609 0.0
C551 C 0.21528 0.22488 0.15208 0.0
H552 H 0.22998 0.25422 0.12509 0.0
H553 H 0.17584 0.15192 0.35626 0.0
H554 H 0.80565 0.05047 0.20809 0.0
H555 H 0.79734 0.02919 0.19621 0.0
H556 H 0.8185 0.02787 0.30165 0.0
H557 H 0.82719 0.04933 0.31271 0.0
H558 H 0.81647 0.01265 0.23956 0.0
H559 H 0.78977 0.02085 0.31878 0.0
H560 H 0.77795 0.03056 0.33344 0.0
H561 H 0.75804 0.01568 0.21639 0.0
H562 H 0.76985 0.00601 0.20072 0.0
H563 H 0.75752 0.95119 0.27584 0.0
H564 H 0.77036 0.97243 0.28886 0.0
H565 H 0.79031 0.97521 0.17303 0.0
H566 H 0.77776 0.95379 0.161 0.0
H567 H 0.7724 0.98974 0.24522 0.0
H568 H 0.81817 0.99931 0.17792 0.0
H569 H 0.83011 0.9894 0.17287 0.0
H570 H 0.81198 0.96791 0.28376 0.0
H571 H 0.80004 0.97779 0.28983 0.0
C572 C 0.80869 0.04569 0.22827 0.0
C573 C 0.81696 0.05153 0.26166 0.0
C574 C 0.8039 0.03352 0.22154 0.0
C575 C 0.80707 0.02687 0.24872 0.0
C576 C 0.81588 0.0328 0.28041 0.0
C577 C 0.82082 0.04506 0.28675 0.0
C578 C 0.80051 0.01367 0.24618 0.0
C579 C 0.80684 0.00762 0.24074 0.0
C580 C 0.78795 0.00707 0.24895 0.0
C581 C 0.78076 0.0128 0.2584 0.0
C582 C 0.78292 0.01971 0.29603 0.0
C583 C 0.77622 0.0252 0.30454 0.0
C584 C 0.76727 0.02376 0.27581 0.0
C585 C 0.76498 0.0168 0.23858 0.0
C586 C 0.77167 0.01131 0.22989 0.0
C587 C 0.76475 0.9563 0.25347 0.0
C588 C 0.76663 0.95085 0.21737 0.0
C589 C 0.77207 0.96846 0.26088 0.0
C590 C 0.78136 0.97547 0.23205 0.0
C591 C 0.78337 0.96999 0.19626 0.0
C592 C 0.77615 0.95775 0.18926 0.0
C593 C 0.78832 0.9886 0.23803 0.0
C594 C 0.78204 0.9947 0.24404 0.0
C595 C 0.80092 0.99515 0.23716 0.0
C596 C 0.80812 0.98921 0.23402 0.0
C597 C 0.81676 0.9925 0.20131 0.0
C598 C 0.82352 0.98688 0.19826 0.0
C599 C 0.82178 0.978 0.22789 0.0
C600 C 0.81329 0.97475 0.26072 0.0
C601 C 0.80651 0.98035 0.26394 0.0
H602 H 0.82702 0.97366 0.22545 0.0
H603 H 0.76209 0.02801 0.28245 0.0
H604 H 0.95256 0.77865 0.31791 0.0
H605 H 0.9737 0.79216 0.30353 0.0
H606 H 0.97231 0.76993 0.19708 0.0
H607 H 0.95121 0.75639 0.21123 0.0
H608 H 0.99125 0.78678 0.30866 0.0
H609 H 0.99223 0.78742 0.11964 0.0
H610 H 0.97969 0.78714 0.05901 0.0
H611 H 0.96366 0.80177 0.14195 0.0
H612 H 0.97622 0.80231 0.20287 0.0
H613 H 0.04723 0.79945 0.23279 0.0
H614 H 0.02602 0.79108 0.24588 0.0
H615 H 0.02793 0.82298 0.19533 0.0
H616 H 0.04918 0.83124 0.18058 0.0
H617 H 0.00882 0.80454 0.16587 0.0
H618 H 0.02586 0.81688 0.30695 0.0
H619 H 0.03846 0.81842 0.36932 0.0
H620 H 0.01848 0.78055 0.38624 0.0
H621 H 0.00587 0.77876 0.32361 0.0
C622 C 0.95672 0.77674 0.29102 0.0
C623 C 0.95023 0.76644 0.26576 0.0
C624 C 0.9688 0.78444 0.28297 0.0
C625 C 0.97456 0.78208 0.24917 0.0
C626 C 0.96801 0.77201 0.22303 0.0
C627 C 0.95596 0.76425 0.23126 0.0
C628 C 0.98759 0.78963 0.24297 0.0
C629 C 0.9951 0.79074 0.27753 0.0
C630 C 0.9926 0.79498 0.20261 0.0
C631 C 0.98511 0.7948 0.16594 0.0
C632 C 0.98607 0.79063 0.1249 0.0
C633 C 0.97895 0.79042 0.09048 0.0
C634 C 0.97086 0.7944 0.09666 0.0
C635 C 0.9699 0.79864 0.13724 0.0
C636 C 0.977 0.79889 0.17174 0.0
C637 C 0.04316 0.80471 0.22462 0.0
C638 C 0.04988 0.81604 0.20592 0.0
C639 C 0.03102 0.79993 0.23231 0.0
C640 C 0.02539 0.80648 0.22239 0.0
C641 C 0.03208 0.81778 0.20341 0.0
C642 C 0.04422 0.8225 0.19513 0.0
C643 C 0.01249 0.80139 0.23123 0.0
C644 C 0.00499 0.80071 0.19716 0.0
C645 C 0.00749 0.79663 0.27234 0.0
C646 C 0.01496 0.79769 0.31042 0.0
C647 C 0.02419 0.80888 0.32385 0.0
C648 C 0.03133 0.80979 0.35926 0.0
C649 C 0.02928 0.79959 0.38169 0.0
C650 C 0.02006 0.78845 0.36884 0.0
C651 C 0.0129 0.78748 0.33343 0.0
H652 H 0.03482 0.80032 0.40907 0.0
H653 H 0.96535 0.79422 0.06998 0.0
H654 H 0.82966 0.77926 0.78633 0.0
H655 H 0.82107 0.79192 0.77127 0.0
H656 H 0.78775 0.76084 0.73732 0.0
H657 H 0.79647 0.74831 0.7501 0.0
H658 H 0.79104 0.77711 0.6849 0.0
H659 H 0.79384 0.77576 0.84035 0.0
H660 H 0.80388 0.77825 0.91072 0.0
H661 H 0.82623 0.81557 0.88572 0.0
H662 H 0.81642 0.81327 0.81492 0.0
H663 H 0.7497 0.79618 0.73801 0.0
H664 H 0.7623 0.78729 0.74773 0.0
H665 H 0.79322 0.82061 0.71361 0.0
H666 H 0.78061 0.82953 0.70255 0.0
H667 H 0.79292 0.80542 0.79705 0.0
H668 H 0.78791 0.80554 0.64038 0.0
H669 H 0.7758 0.80169 0.57432 0.0
H670 H 0.75523 0.76472 0.6079 0.0
H671 H 0.76711 0.7684 0.67455 0.0
C672 C 0.82054 0.77517 0.77522 0.0
C673 C 0.81373 0.7628 0.76945 0.0
C674 C 0.8156 0.7824 0.76694 0.0
C675 C 0.80366 0.77733 0.75393 0.0
C676 C 0.79697 0.76499 0.74727 0.0
C677 C 0.80197 0.75782 0.75465 0.0
C678 C 0.79798 0.78474 0.74781 0.0
C679 C 0.79145 0.78325 0.70963 0.0
C680 C 0.79858 0.79292 0.77966 0.0
C681 C 0.8045 0.79431 0.82214 0.0
C682 C 0.80096 0.78448 0.84972 0.0
C683 C 0.8066 0.78586 0.8897 0.0
C684 C 0.81571 0.79706 0.90261 0.0
C685 C 0.81919 0.8069 0.87563 0.0
C686 C 0.81359 0.80556 0.83559 0.0
C687 C 0.75919 0.80166 0.73296 0.0
C688 C 0.76418 0.81354 0.71944 0.0
C689 C 0.76635 0.79656 0.73845 0.0
C690 C 0.77864 0.80331 0.73126 0.0
C691 C 0.78374 0.81529 0.71929 0.0
C692 C 0.77653 0.82034 0.71292 0.0
C693 C 0.78599 0.79761 0.73468 0.0
C694 C 0.79274 0.7994 0.77228 0.0
C695 C 0.7854 0.78951 0.70284 0.0
C696 C 0.77831 0.78727 0.66265 0.0
C697 C 0.78073 0.79662 0.63389 0.0
C698 C 0.77392 0.79446 0.5963 0.0
C699 C 0.76473 0.78298 0.58698 0.0
C700 C 0.76234 0.77362 0.61518 0.0
C701 C 0.76911 0.77573 0.65285 0.0
H702 H 0.75947 0.78132 0.55785 0.0
H703 H 0.82006 0.79811 0.93358 0.0
H704 H 0.25192 0.04991 0.73368 0.0
H705 H 0.23888 0.029 0.71679 0.0
H706 H 0.20895 0.03085 0.76855 0.0
H707 H 0.2222 0.05176 0.78766 0.0
H708 H 0.20766 0.01195 0.7969 0.0
H709 H 0.21289 0.02786 0.65542 0.0
H710 H 0.22352 0.04003 0.5917 0.0
H711 H 0.24224 0.02078 0.5776 0.0
H712 H 0.23186 0.0086 0.64164 0.0
H713 H 0.17036 0.9531 0.69453 0.0
H714 H 0.17954 0.97466 0.70605 0.0
H715 H 0.21338 0.97701 0.72897 0.0
H716 H 0.20425 0.95549 0.71888 0.0
H717 H 0.2098 0.99357 0.6585 0.0
H718 H 0.20523 0.97985 0.8104 0.0
H719 H 0.19294 0.96752 0.87136 0.0
H720 H 0.17041 0.9828 0.85951 0.0
H721 H 0.18249 0.99509 0.798 0.0
C722 C 0.24254 0.04593 0.74091 0.0
C723 C 0.23808 0.05249 0.76186 0.0
C724 C 0.23504 0.03395 0.73099 0.0
C725 C 0.22284 0.02833 0.74064 0.0
C726 C 0.21831 0.03496 0.76068 0.0
C727 C 0.22588 0.04693 0.7714 0.0
C728 C 0.21507 0.01537 0.73223 0.0
C729 C 0.20799 0.00801 0.76625 0.0
C730 C 0.2154 0.0101 0.6923 0.0
C731 C 0.22164 0.01736 0.65356 0.0
C732 C 0.21933 0.02627 0.63892 0.0
C733 C 0.2253 0.03317 0.60271 0.0
C734 C 0.23356 0.0312 0.58066 0.0
C735 C 0.23584 0.0223 0.59472 0.0
C736 C 0.2299 0.01538 0.63094 0.0
C737 C 0.17973 0.95821 0.70243 0.0
C738 C 0.18659 0.95263 0.70596 0.0
C739 C 0.18494 0.97049 0.70893 0.0
C740 C 0.19711 0.97735 0.71825 0.0
C741 C 0.20396 0.97181 0.72181 0.0
C742 C 0.19873 0.95953 0.71625 0.0
C743 C 0.20282 0.99037 0.72343 0.0
C744 C 0.20943 0.99765 0.68874 0.0
C745 C 0.20184 0.99558 0.76223 0.0
C746 C 0.19465 0.98825 0.79928 0.0
C747 C 0.19758 0.98048 0.82048 0.0
C748 C 0.19067 0.97352 0.85521 0.0
C749 C 0.18087 0.97434 0.8692 0.0
C750 C 0.17799 0.98215 0.84858 0.0
C751 C 0.18486 0.98911 0.81381 0.0
H752 H 0.17554 0.96895 0.89609 0.0
H753 H 0.23818 0.03655 0.55264 0.0
H754 H 0.04941 0.21861 0.69196 0.0
H755 H 0.02802 0.20621 0.70461 0.0
H756 H 0.02836 0.2344 0.77976 0.0
H757 H 0.04975 0.24671 0.76816 0.0
H758 H 0.01351 0.2137 0.81518 0.0
H759 H 0.02076 0.23044 0.67103 0.0
H760 H 0.02927 0.23438 0.59726 0.0
H761 H 0.01106 0.19691 0.57069 0.0
H762 H 0.00256 0.19275 0.64456 0.0
H763 H 0.95329 0.20068 0.72042 0.0
H764 H 0.9746 0.2084 0.71228 0.0
H765 H 0.97244 0.18142 0.7996 0.0
H766 H 0.95108 0.17376 0.80856 0.0
H767 H 0.98813 0.20002 0.68355 0.0
H768 H 0.99802 0.19363 0.86083 0.0
H769 H 0.98965 0.19192 0.93415 0.0
H770 H 0.97364 0.21234 0.89349 0.0
H771 H 0.98205 0.21429 0.82015 0.0
C772 C 0.04496 0.22209 0.71178 0.0
C773 C 0.05125 0.23368 0.72876 0.0
C774 C 0.03272 0.21501 0.71881 0.0
C775 C 0.02653 0.21945 0.74247 0.0
C776 C 0.03292 0.23079 0.76132 0.0
C777 C 0.04516 0.23783 0.75458 0.0
C778 C 0.01334 0.21268 0.74539 0.0
C779 C 0.00796 0.21061 0.78641 0.0
C780 C 0.00607 0.20879 0.70786 0.0
C781 C 0.01114 0.21128 0.66344 0.0
C782 C 0.01864 0.22304 0.64955 0.0
C783 C 0.02345 0.22531 0.60772 0.0
C784 C 0.02074 0.2159 0.57935 0.0
C785 C 0.01317 0.20419 0.59273 0.0
C786 C 0.00836 0.20187 0.63456 0.0
C787 C 0.95731 0.1963 0.73758 0.0
C788 C 0.95051 0.18666 0.76538 0.0
C789 C 0.9695 0.20071 0.7328 0.0
C790 C 0.97516 0.19559 0.75575 0.0
C791 C 0.9683 0.18563 0.78209 0.0
C792 C 0.95609 0.18123 0.78701 0.0
C793 C 0.98829 0.20107 0.75333 0.0
C794 C 0.99366 0.20291 0.71237 0.0
C795 C 0.99556 0.205 0.79086 0.0
C796 C 0.99053 0.20397 0.8349 0.0
C797 C 0.99273 0.19777 0.8676 0.0
C798 C 0.98798 0.19676 0.90914 0.0
C799 C 0.98108 0.20197 0.91842 0.0
C800 C 0.97895 0.20826 0.88621 0.0
C801 C 0.98369 0.20931 0.84464 0.0
H802 H 0.9774 0.20118 0.95059 0.0
H803 H 0.02446 0.21767 0.54697 0.0
H804 H 0.84375 0.55926 0.51359 0.0
H805 H 0.85153 0.5459 0.52731 0.0
H806 H 0.86702 0.56427 0.64748 0.0
H807 H 0.85979 0.57805 0.63251 0.0
H808 H 0.88261 0.56219 0.60831 0.0
H809 H 0.84234 0.53433 0.641 0.0
H810 H 0.82063 0.52288 0.63025 0.0
H811 H 0.82535 0.50667 0.51623 0.0
H812 H 0.8471 0.51816 0.52594 0.0
H813 H 0.88731 0.50595 0.65008 0.0
H814 H 0.87449 0.51481 0.64678 0.0
H815 H 0.89665 0.53859 0.54582 0.0
H816 H 0.90956 0.52998 0.54952 0.0
H817 H 0.86122 0.51848 0.58671 0.0
H818 H 0.90191 0.56604 0.56641 0.0
H819 H 0.92315 0.57709 0.58632 0.0
H820 H 0.9164 0.55326 0.69299 0.0
H821 H 0.89511 0.54218 0.67413 0.0
C822 C 0.84866 0.56032 0.54325 0.0
C823 C 0.85123 0.56972 0.5719 0.0
C824 C 0.85305 0.55262 0.55125 0.0
C825 C 0.8598 0.55397 0.58868 0.0
C826 C 0.8619 0.56306 0.61826 0.0
C827 C 0.85774 0.57092 0.60977 0.0
C828 C 0.86561 0.54667 0.59495 0.0
C829 C 0.87786 0.55262 0.60385 0.0
C830 C 0.85946 0.53414 0.58998 0.0
C831 C 0.84637 0.52718 0.58405 0.0
C832 C 0.83876 0.52839 0.61346 0.0
C833 C 0.82644 0.52188 0.60758 0.0
C834 C 0.82162 0.51407 0.57253 0.0
C835 C 0.8291 0.51273 0.54335 0.0
C836 C 0.84142 0.51923 0.54907 0.0
C837 C 0.88931 0.51292 0.62667 0.0
C838 C 0.89952 0.51738 0.60045 0.0
C839 C 0.88198 0.51797 0.6248 0.0
C840 C 0.88476 0.52752 0.59667 0.0
C841 C 0.89448 0.53139 0.56839 0.0
C842 C 0.90183 0.52643 0.57046 0.0
C843 C 0.87816 0.53409 0.59884 0.0
C844 C 0.86585 0.52803 0.59151 0.0
C845 C 0.88415 0.54649 0.60664 0.0
C846 C 0.89693 0.55322 0.61858 0.0
C847 C 0.90495 0.56319 0.59423 0.0
C848 C 0.917 0.56945 0.60532 0.0
C849 C 0.92113 0.56586 0.64081 0.0
C850 C 0.9132 0.55601 0.66541 0.0
C851 C 0.90115 0.54973 0.65451 0.0
H852 H 0.93046 0.57071 0.64931 0.0
H853 H 0.81208 0.50904 0.56803 0.0
H854 H 0.44093 0.28458 0.53578 0.0
H855 H 0.45294 0.30559 0.55404 0.0
H856 H 0.42905 0.30083 0.65945 0.0
H857 H 0.41669 0.27984 0.63997 0.0
H858 H 0.4329 0.31914 0.61777 0.0
H859 H 0.45851 0.30644 0.67553 0.0
H860 H 0.47024 0.29628 0.6772 0.0
H861 H 0.49201 0.31828 0.57277 0.0
H862 H 0.48031 0.32847 0.57005 0.0
H863 H 0.48856 0.37951 0.68323 0.0
H864 H 0.47861 0.35777 0.68029 0.0
H865 H 0.45878 0.3578 0.56797 0.0
H866 H 0.46839 0.37943 0.57164 0.0
H867 H 0.47696 0.34166 0.62541 0.0
H868 H 0.43116 0.33493 0.56973 0.0
H869 H 0.41933 0.34489 0.57778 0.0
H870 H 0.43763 0.3611 0.69641 0.0
H871 H 0.44945 0.35111 0.68939 0.0
C872 C 0.43832 0.28797 0.56324 0.0
C873 C 0.42785 0.28057 0.58641 0.0
C874 C 0.44525 0.29999 0.57384 0.0
C875 C 0.44201 0.30483 0.60848 0.0
C876 C 0.43174 0.29734 0.63254 0.0
C877 C 0.4247 0.28534 0.62148 0.0
C878 C 0.44881 0.31783 0.61735 0.0
C879 C 0.44253 0.32402 0.61971 0.0
C880 C 0.46137 0.32425 0.62085 0.0
C881 C 0.46847 0.31816 0.6224 0.0
C882 C 0.46575 0.30906 0.65271 0.0
C883 C 0.4724 0.3033 0.65388 0.0
C884 C 0.48185 0.30662 0.62506 0.0
C885 C 0.48468 0.31572 0.59507 0.0
C886 C 0.47805 0.3215 0.59374 0.0
C887 C 0.48214 0.37487 0.65773 0.0
C888 C 0.47916 0.38115 0.62793 0.0
C889 C 0.47647 0.36245 0.65606 0.0
C890 C 0.46776 0.35612 0.62446 0.0
C891 C 0.46524 0.36246 0.59334 0.0
C892 C 0.47079 0.37483 0.59532 0.0
C893 C 0.46104 0.34291 0.62455 0.0
C894 C 0.46732 0.33671 0.62384 0.0
C895 C 0.44846 0.33643 0.62402 0.0
C896 C 0.44126 0.34234 0.6288 0.0
C897 C 0.43262 0.34057 0.59764 0.0
C898 C 0.42592 0.34623 0.602 0.0
C899 C 0.42775 0.35365 0.63752 0.0
C900 C 0.43625 0.35538 0.66883 0.0
C901 C 0.44296 0.34973 0.66466 0.0
H902 H 0.42257 0.35803 0.64081 0.0
H903 H 0.48699 0.30215 0.62601 0.0
H904 H 0.71448 0.15143 0.50271 0.0
H905 H 0.69303 0.14275 0.51263 0.0
H906 H 0.69618 0.13298 0.64391 0.0
H907 H 0.71746 0.14093 0.63287 0.0
H908 H 0.679 0.11545 0.61066 0.0
H909 H 0.69017 0.15667 0.61386 0.0
H910 H 0.69964 0.17732 0.58711 0.0
H911 H 0.6779 0.16552 0.47264 0.0
H912 H 0.66841 0.14479 0.49845 0.0
H913 H 0.61869 0.11201 0.64843 0.0
H914 H 0.64023 0.12428 0.63829 0.0
H915 H 0.63973 0.09759 0.55363 0.0
H916 H 0.61828 0.08526 0.5638 0.0
H917 H 0.65534 0.13423 0.56819 0.0
H918 H 0.66298 0.09401 0.58017 0.0
H919 H 0.6536 0.07416 0.61423 0.0
H920 H 0.63833 0.08583 0.71266 0.0
H921 H 0.64774 0.10578 0.67957 0.0
C922 C 0.71057 0.14754 0.5338 0.0
C923 C 0.71757 0.1468 0.56701 0.0
C924 C 0.69832 0.14264 0.53958 0.0
C925 C 0.69292 0.13729 0.57924 0.0
C926 C 0.70006 0.13698 0.61292 0.0
C927 C 0.71223 0.14155 0.60669 0.0
C928 C 0.67978 0.13128 0.58488 0.0
C929 C 0.6739 0.11964 0.60147 0.0
C930 C 0.67301 0.13669 0.57338 0.0
C931 C 0.67865 0.14917 0.55795 0.0
C932 C 0.68746 0.15848 0.58287 0.0
C933 C 0.69282 0.1702 0.56789 0.0
C934 C 0.68939 0.17273 0.52816 0.0
C935 C 0.68056 0.16355 0.50339 0.0
C936 C 0.67517 0.15181 0.5182 0.0
C937 C 0.62316 0.10882 0.62728 0.0
C938 C 0.61681 0.09761 0.60727 0.0
C939 C 0.63545 0.11586 0.62139 0.0
C940 C 0.64158 0.11178 0.59564 0.0
C941 C 0.63517 0.10084 0.57407 0.0
C942 C 0.62291 0.09381 0.57989 0.0
C943 C 0.65475 0.11851 0.59352 0.0
C944 C 0.66056 0.13018 0.57748 0.0
C945 C 0.66153 0.11328 0.60665 0.0
C946 C 0.65596 0.10134 0.62709 0.0
C947 C 0.65765 0.09235 0.60916 0.0
C948 C 0.65233 0.08108 0.6283 0.0
C949 C 0.64534 0.07872 0.6655 0.0
C950 C 0.6437 0.08765 0.68375 0.0
C951 C 0.64902 0.09893 0.66478 0.0
H952 H 0.64122 0.06999 0.68023 0.0
H953 H 0.69355 0.1818 0.51661 0.0
H954 H 0.46921 0.0877 0.06211 0.0
H955 H 0.46065 0.10054 0.0533 0.0
H956 H 0.4839 0.12386 0.15325 0.0
H957 H 0.49276 0.11119 0.16129 0.0
H958 H 0.4483 0.10482 0.10777 0.0
H959 H 0.48858 0.15202 0.13799 0.0
H960 H 0.51025 0.16312 0.12547 0.0
H961 H 0.5062 0.13992 0.01947 0.0
H962 H 0.48451 0.12879 0.03096 0.0
H963 H 0.42415 0.14138 0.14243 0.0
H964 H 0.43722 0.13311 0.15371 0.0
H965 H 0.45501 0.14856 0.03272 0.0
H966 H 0.44232 0.15729 0.02232 0.0
H967 H 0.47044 0.14858 0.08729 0.0
H968 H 0.43144 0.11953 0.03852 0.0
H969 H 0.40953 0.10809 0.04092 0.0
H970 H 0.41078 0.09415 0.16593 0.0
H971 H 0.43271 0.10563 0.1645 0.0
C972 C 0.47261 0.09564 0.08185 0.0
C973 C 0.48164 0.09842 0.11245 0.0
C974 C 0.46768 0.10296 0.07687 0.0
C975 C 0.47162 0.11319 0.10254 0.0
C976 C 0.48082 0.11612 0.13259 0.0
C977 C 0.48585 0.10885 0.13727 0.0
C978 C 0.4656 0.12033 0.09943 0.0
C979 C 0.45318 0.11439 0.10332 0.0
C980 C 0.47191 0.13281 0.09308 0.0
C981 C 0.48494 0.13949 0.0857 0.0
C982 C 0.49232 0.14931 0.11194 0.0
C983 C 0.5046 0.1556 0.10502 0.0
C984 C 0.5096 0.1522 0.0718 0.0
C985 C 0.50232 0.14252 0.04532 0.0
C986 C 0.49004 0.1362 0.05206 0.0
C987 C 0.43102 0.14322 0.11873 0.0
C988 C 0.43214 0.14985 0.08125 0.0
C989 C 0.43845 0.13845 0.12509 0.0
C990 C 0.44689 0.13994 0.09347 0.0
C991 C 0.44854 0.14723 0.05746 0.0
C992 C 0.44126 0.1522 0.0515 0.0
C993 C 0.45319 0.13305 0.0959 0.0
C994 C 0.46562 0.13902 0.09198 0.0
C995 C 0.44688 0.12053 0.10081 0.0
C996 C 0.4337 0.11352 0.10158 0.0
C997 C 0.42703 0.11407 0.06662 0.0
C998 C 0.41461 0.10758 0.0678 0.0
C999 C 0.40876 0.10042 0.1036 0.0
C1000 C 0.41532 0.09971 0.13825 0.0
C1001 C 0.42775 0.1062 0.13726 0.0
H1002 H 0.39915 0.0954 0.10446 0.0
H1003 H 0.51911 0.15708 0.06651 0.0
H1004 H 0.87024 0.28681 0.08218 0.0
H1005 H 0.87857 0.30806 0.09335 0.0
H1006 H 0.84445 0.30464 0.06497 0.0
H1007 H 0.8362 0.28332 0.0514 0.0
H1008 H 0.86028 0.32339 0.02768 0.0
H1009 H 0.85651 0.30955 0.17181 0.0
H1010 H 0.85808 0.29835 0.23358 0.0
H1011 H 0.89615 0.31807 0.22391 0.0
H1012 H 0.89481 0.32927 0.16167 0.0
H1013 H 0.88796 0.38452 0.1196 0.0
H1014 H 0.87435 0.36294 0.11327 0.0
H1015 H 0.90356 0.35833 0.07287 0.0
H1016 H 0.91708 0.37974 0.07786 0.0
H1017 H 0.88698 0.34387 0.15229 0.0
H1018 H 0.8888 0.35531 0.99851 0.0
H1019 H 0.88592 0.36669 0.94043 0.0
H1020 H 0.84921 0.35152 0.97629 0.0
H1021 H 0.85194 0.34018 0.03505 0.0
C1022 C 0.86447 0.29055 0.07867 0.0
C1023 C 0.85255 0.2834 0.06622 0.0
C1024 C 0.86923 0.30272 0.08535 0.0
C1025 C 0.86209 0.30797 0.08108 0.0
C1026 C 0.85014 0.30081 0.06872 0.0
C1027 C 0.84542 0.28863 0.06111 0.0
C1028 C 0.86735 0.321 0.08787 0.0
C1029 C 0.86591 0.3278 0.05546 0.0
C1030 C 0.87466 0.32687 0.12419 0.0
C1031 C 0.87555 0.32021 0.16187 0.0
C1032 C 0.86521 0.31145 0.18268 0.0
C1033 C 0.86607 0.30511 0.21781 0.0
C1034 C 0.87721 0.30749 0.23263 0.0
C1035 C 0.88753 0.31624 0.2124 0.0
C1036 C 0.88673 0.32261 0.17724 0.0
C1037 C 0.89143 0.3789 0.10884 0.0
C1038 C 0.90358 0.38381 0.09914 0.0
C1039 C 0.88366 0.36662 0.1053 0.0
C1040 C 0.88801 0.35912 0.09271 0.0
C1041 C 0.90008 0.36401 0.08262 0.0
C1042 C 0.90776 0.37625 0.08532 0.0
C1043 C 0.88019 0.34608 0.09152 0.0
C1044 C 0.88115 0.33934 0.12509 0.0
C1045 C 0.87224 0.34028 0.05695 0.0
C1046 C 0.87061 0.34703 0.0215 0.0
C1047 C 0.88015 0.3545 0.99431 0.0
C1048 C 0.87854 0.36092 0.9612 0.0
C1049 C 0.8674 0.35987 0.95478 0.0
C1050 C 0.85784 0.35235 0.98136 0.0
C1051 C 0.85942 0.34593 0.01455 0.0
H1052 H 0.86617 0.36484 0.92912 0.0
H1053 H 0.87785 0.30256 0.25981 0.0
H1054 H 0.61877 0.50515 0.15637 0.0
H1055 H 0.64028 0.51488 0.14542 0.0
H1056 H 0.63942 0.54298 0.07383 0.0
H1057 H 0.61792 0.53321 0.08389 0.0
H1058 H 0.65392 0.53708 0.03563 0.0
H1059 H 0.64779 0.54642 0.18095 0.0
H1060 H 0.63984 0.54195 0.25552 0.0
H1061 H 0.65817 0.52266 0.27899 0.0
H1062 H 0.6661 0.52688 0.20432 0.0
H1063 H 0.71618 0.58244 0.12033 0.0
H1064 H 0.69484 0.56993 0.13321 0.0
H1065 H 0.69385 0.54332 0.04674 0.0
H1066 H 0.71515 0.55587 0.03315 0.0
H1067 H 0.68033 0.54806 0.1643 0.0
H1068 H 0.66829 0.53186 0.98715 0.0
H1069 H 0.67622 0.53833 0.91321 0.0
H1070 H 0.6942 0.57478 0.95464 0.0
H1071 H 0.68624 0.56854 0.02862 0.0
C1072 C 0.62315 0.51335 0.13794 0.0
C1073 C 0.61666 0.51845 0.12115 0.0
C1074 C 0.63545 0.51892 0.1319 0.0
C1075 C 0.64149 0.52975 0.10934 0.0
C1076 C 0.63496 0.53464 0.09138 0.0
C1077 C 0.62267 0.52906 0.09723 0.0
C1078 C 0.65463 0.53618 0.10529 0.0
C1079 C 0.65969 0.53941 0.06376 0.0
C1080 C 0.66218 0.53939 0.14202 0.0
C1081 C 0.65743 0.53685 0.18692 0.0
C1082 C 0.65005 0.54114 0.20191 0.0
C1083 C 0.64556 0.53867 0.24421 0.0
C1084 C 0.64847 0.532 0.27194 0.0
C1085 C 0.6559 0.52781 0.25745 0.0
C1086 C 0.6604 0.53024 0.21516 0.0
C1087 C 0.71145 0.57386 0.10449 0.0
C1088 C 0.71732 0.57019 0.0754 0.0
C1089 C 0.69926 0.56671 0.11196 0.0
C1090 C 0.69272 0.55578 0.09043 0.0
C1091 C 0.69869 0.55181 0.06315 0.0
C1092 C 0.71087 0.55898 0.05555 0.0
C1093 C 0.67959 0.54889 0.09465 0.0
C1094 C 0.67455 0.54558 0.13617 0.0
C1095 C 0.67205 0.54585 0.05799 0.0
C1096 C 0.67678 0.54972 0.0135 0.0
C1097 C 0.67391 0.54126 0.98042 0.0
C1098 C 0.67841 0.54488 0.93852 0.0
C1099 C 0.68575 0.55695 0.92928 0.0
C1100 C 0.68856 0.56543 0.96188 0.0
C1101 C 0.68406 0.56185 0.00381 0.0
H1102 H 0.68923 0.55974 0.89683 0.0
H1103 H 0.64499 0.53009 0.30468 0.0
H1104 H 0.53384 0.91518 0.93865 0.0
H1105 H 0.54229 0.90234 0.95112 0.0
H1106 H 0.51398 0.87451 0.87627 0.0
H1107 H 0.50561 0.88742 0.86289 0.0
H1108 H 0.53536 0.88131 0.98764 0.0
H1109 H 0.52554 0.86046 0.81688 0.0
H1110 H 0.52183 0.86493 0.74255 0.0
H1111 H 0.54212 0.90234 0.76955 0.0
H1112 H 0.54607 0.89809 0.84379 0.0
H1113 H 0.55557 0.83929 0.98186 0.0
H1114 H 0.54264 0.84788 0.97306 0.0
H1115 H 0.56857 0.87476 0.88816 0.0
H1116 H 0.58139 0.86616 0.89624 0.0
H1117 H 0.54688 0.86694 0.85739 0.0
H1118 H 0.56665 0.88045 0.99549 0.0
H1119 H 0.57242 0.87804 0.06941 0.0
H1120 H 0.53569 0.85872 0.10719 0.0
H1121 H 0.5297 0.8609 0.03327 0.0
C1122 C 0.52933 0.90628 0.92525 0.0
C1123 C 0.51913 0.90236 0.89941 0.0
C1124 C 0.53415 0.89893 0.93253 0.0
C1125 C 0.52887 0.88752 0.91413 0.0
C1126 C 0.51832 0.88335 0.89021 0.0
C1127 C 0.51352 0.89073 0.88271 0.0
C1128 C 0.53485 0.88036 0.91782 0.0
C1129 C 0.53778 0.87807 0.95919 0.0
C1130 C 0.53817 0.87627 0.88069 0.0
C1131 C 0.53596 0.87894 0.836 0.0
C1132 C 0.52923 0.86963 0.80688 0.0
C1133 C 0.52709 0.87213 0.76478 0.0
C1134 C 0.5317 0.88391 0.75139 0.0
C1135 C 0.53851 0.89322 0.78001 0.0
C1136 C 0.54069 0.89077 0.82211 0.0
C1137 C 0.55845 0.84695 0.96098 0.0
C1138 C 0.56953 0.85208 0.93989 0.0
C1139 C 0.55108 0.85188 0.95613 0.0
C1140 C 0.5547 0.86204 0.93032 0.0
C1141 C 0.56558 0.86692 0.90821 0.0
C1142 C 0.57293 0.862 0.91298 0.0
C1143 C 0.54743 0.86792 0.92721 0.0
C1144 C 0.54426 0.86997 0.88592 0.0
C1145 C 0.54414 0.87203 0.96435 0.0
C1146 C 0.54772 0.87071 0.00875 0.0
C1147 C 0.5598 0.8756 0.01947 0.0
C1148 C 0.56311 0.87429 0.06137 0.0
C1149 C 0.55442 0.86819 0.09294 0.0
C1150 C 0.54241 0.86342 0.08268 0.0
C1151 C 0.53905 0.86469 0.0408 0.0
H1152 H 0.557 0.86719 0.12537 0.0
H1153 H 0.53002 0.88582 0.71881 0.0
H1154 H 0.08049 0.61887 0.91079 0.0
H1155 H 0.09336 0.64034 0.92006 0.0
H1156 H 0.12374 0.63752 0.8813 0.0
H1157 H 0.11084 0.616 0.87071 0.0
H1158 H 0.12421 0.65222 0.96638 0.0
H1159 H 0.11805 0.64767 0.80996 0.0
H1160 H 0.10543 0.6398 0.74485 0.0
H1161 H 0.08566 0.65665 0.78368 0.0
H1162 H 0.09806 0.66447 0.8494 0.0
H1163 H 0.16187 0.71503 0.95722 0.0
H1164 H 0.15262 0.69369 0.94261 0.0
H1165 H 0.11967 0.69252 0.91075 0.0
H1166 H 0.12912 0.71391 0.92263 0.0
H1167 H 0.1221 0.67933 0.85787 0.0
H1168 H 0.12597 0.68294 0.01325 0.0
H1169 H 0.13649 0.69011 0.08303 0.0
H1170 H 0.1581 0.6746 0.05315 0.0
H1171 H 0.1478 0.66746 0.98294 0.0
C1172 C 0.08992 0.62279 0.90451 0.0
C1173 C 0.09467 0.61578 0.88997 0.0
C1174 C 0.09724 0.63504 0.90975 0.0
C1175 C 0.10945 0.64044 0.90127 0.0
C1176 C 0.11431 0.63345 0.88799 0.0
C1177 C 0.10695 0.6212 0.88187 0.0
C1178 C 0.11698 0.65347 0.90517 0.0
C1179 C 0.12398 0.65822 0.94239 0.0
C1180 C 0.11629 0.66116 0.87444 0.0
C1181 C 0.1089 0.65655 0.83479 0.0
C1182 C 0.11094 0.6496 0.80483 0.0
C1183 C 0.10384 0.64517 0.76776 0.0
C1184 C 0.09473 0.64769 0.76019 0.0
C1185 C 0.09271 0.65469 0.78961 0.0
C1186 C 0.09978 0.65913 0.82674 0.0
C1187 C 0.15267 0.71019 0.94685 0.0
C1188 C 0.14619 0.71609 0.94109 0.0
C1189 C 0.14736 0.69798 0.93881 0.0
C1190 C 0.13535 0.69138 0.92634 0.0
C1191 C 0.12894 0.69736 0.92022 0.0
C1192 C 0.13434 0.70959 0.92712 0.0
C1193 C 0.12935 0.67828 0.91968 0.0
C1194 C 0.12255 0.67346 0.88186 0.0
C1195 C 0.13001 0.67051 0.95049 0.0
C1196 C 0.13621 0.67479 0.99265 0.0
C1197 C 0.13302 0.68114 0.02144 0.0
C1198 C 0.13894 0.68518 0.06108 0.0
C1199 C 0.14798 0.68284 0.07245 0.0
C1200 C 0.15111 0.67643 0.04426 0.0
C1201 C 0.14523 0.67237 0.00455 0.0
H1202 H 0.15255 0.68598 0.10316 0.0
H1203 H 0.08924 0.64425 0.73148 0.0
H1204 H 0.28311 0.44585 0.974 0.0
H1205 H 0.30414 0.45947 0.95885 0.0
H1206 H 0.30474 0.43342 0.87355 0.0
H1207 H 0.28366 0.41988 0.88779 0.0
H1208 H 0.3223 0.45703 0.97762 0.0
H1209 H 0.32541 0.44654 0.79575 0.0
H1210 H 0.31323 0.44153 0.72936 0.0
H1211 H 0.29473 0.45844 0.78134 0.0
H1212 H 0.30691 0.46369 0.84776 0.0
H1213 H 0.37901 0.46731 0.92356 0.0
H1214 H 0.35777 0.45945 0.93375 0.0
H1215 H 0.35943 0.48737 0.85293 0.0
H1216 H 0.38076 0.49519 0.84184 0.0
H1217 H 0.3408 0.46657 0.83144 0.0
H1218 H 0.35616 0.48804 0.9626 0.0
H1219 H 0.36836 0.49461 0.02904 0.0
H1220 H 0.34983 0.45894 0.07856 0.0
H1221 H 0.33762 0.45212 0.01213 0.0
C1222 C 0.28768 0.44309 0.95153 0.0
C1223 C 0.28173 0.43178 0.93209 0.0
C1224 C 0.29971 0.45088 0.943 0.0
C1225 C 0.30602 0.44752 0.91485 0.0
C1226 C 0.30002 0.43631 0.89477 0.0
C1227 C 0.28798 0.42855 0.9031 0.0
C1228 C 0.31902 0.45536 0.90871 0.0
C1229 C 0.32633 0.45918 0.94564 0.0
C1230 C 0.3243 0.45842 0.86702 0.0
C1231 C 0.31703 0.45543 0.8269 0.0
C1232 C 0.31879 0.44924 0.79293 0.0
C1233 C 0.31188 0.44635 0.7553 0.0
C1234 C 0.30319 0.44964 0.75118 0.0
C1235 C 0.30143 0.45586 0.78463 0.0
C1236 C 0.30833 0.45878 0.8223 0.0
C1237 C 0.3749 0.47185 0.90818 0.0
C1238 C 0.38158 0.4819 0.88199 0.0
C1239 C 0.36275 0.46737 0.91418 0.0
C1240 C 0.35703 0.4729 0.89455 0.0
C1241 C 0.36367 0.48297 0.86848 0.0
C1242 C 0.37586 0.48746 0.86232 0.0
C1243 C 0.34403 0.46786 0.90033 0.0
C1244 C 0.33674 0.46455 0.86339 0.0
C1245 C 0.33876 0.46549 0.94202 0.0
C1246 C 0.34602 0.46956 0.98223 0.0
C1247 C 0.35473 0.48158 0.98753 0.0
C1248 C 0.36165 0.48535 0.02521 0.0
C1249 C 0.35988 0.47719 0.05797 0.0
C1250 C 0.35118 0.46525 0.05316 0.0
C1251 C 0.34425 0.46143 0.01552 0.0
H1252 H 0.36524 0.48013 0.08711 0.0
H1253 H 0.29784 0.44738 0.72205 0.0
H1254 H 0.11208 0.4933 0.34658 0.0
H1255 H 0.12448 0.48406 0.35258 0.0
H1256 H 0.09959 0.4586 0.44388 0.0
H1257 H 0.08708 0.46763 0.43753 0.0
H1258 H 0.13599 0.47978 0.41679 0.0
H1259 H 0.09578 0.4316 0.42207 0.0
H1260 H 0.07515 0.42045 0.39508 0.0
H1261 H 0.08396 0.44567 0.2917 0.0
H1262 H 0.10467 0.45687 0.31768 0.0
H1263 H 0.15306 0.43902 0.49288 0.0
H1264 H 0.14477 0.45187 0.47809 0.0
H1265 H 0.13343 0.43588 0.35147 0.0
H1266 H 0.14122 0.4226 0.3671 0.0
H1267 H 0.11625 0.43652 0.38634 0.0
H1268 H 0.15701 0.46568 0.36841 0.0
H1269 H 0.17828 0.47733 0.38726 0.0
H1270 H 0.16985 0.491 0.50034 0.0
H1271 H 0.1485 0.47931 0.4825 0.0
C1272 C 0.10933 0.48582 0.3683 0.0
C1273 C 0.09855 0.48111 0.39125 0.0
C1274 C 0.11643 0.48057 0.37174 0.0
C1275 C 0.11286 0.47053 0.3981 0.0
C1276 C 0.10241 0.46621 0.42273 0.0
C1277 C 0.09529 0.47141 0.41917 0.0
C1278 C 0.11966 0.46416 0.39837 0.0
C1279 C 0.13172 0.47033 0.41008 0.0
C1280 C 0.11416 0.45191 0.38828 0.0
C1281 C 0.10175 0.44513 0.3721 0.0
C1282 C 0.09332 0.43473 0.39347 0.0
C1283 C 0.08161 0.42841 0.37837 0.0
C1284 C 0.07824 0.43237 0.34179 0.0
C1285 C 0.08657 0.44263 0.32013 0.0
C1286 C 0.09829 0.44898 0.33506 0.0
C1287 C 0.14895 0.43837 0.46164 0.0
C1288 C 0.14774 0.42979 0.43117 0.0
C1289 C 0.14427 0.44578 0.45309 0.0
C1290 C 0.13856 0.44496 0.41344 0.0
C1291 C 0.13775 0.43667 0.38235 0.0
C1292 C 0.14223 0.4291 0.39124 0.0
C1293 C 0.13259 0.45204 0.40585 0.0
C1294 C 0.12063 0.44599 0.39279 0.0
C1295 C 0.1383 0.46446 0.4135 0.0
C1296 C 0.15114 0.47155 0.42426 0.0
C1297 C 0.15968 0.47111 0.39746 0.0
C1298 C 0.17175 0.47773 0.40794 0.0
C1299 C 0.17541 0.48488 0.44502 0.0
C1300 C 0.167 0.48545 0.47164 0.0
C1301 C 0.15492 0.47884 0.46132 0.0
H1302 H 0.18476 0.49 0.45308 0.0
H1303 H 0.06917 0.42746 0.33017 0.0
H1304 H 0.50356 0.61574 0.3793 0.0
H1305 H 0.5125 0.63696 0.39545 0.0
H1306 H 0.54582 0.63866 0.42475 0.0
H1307 H 0.53671 0.61736 0.41112 0.0
H1308 H 0.54349 0.65211 0.4776 0.0
H1309 H 0.53894 0.64757 0.3227 0.0
H1310 H 0.52815 0.63988 0.25369 0.0
H1311 H 0.50623 0.65506 0.28317 0.0
H1312 H 0.51681 0.66272 0.35263 0.0
H1313 H 0.58437 0.71238 0.42101 0.0
H1314 H 0.5717 0.69083 0.41382 0.0
H1315 H 0.54104 0.69356 0.44911 0.0
H1316 H 0.55375 0.71518 0.45762 0.0
H1317 H 0.54044 0.67832 0.3674 0.0
H1318 H 0.54746 0.68413 0.52262 0.0
H1319 H 0.5603 0.69252 0.58695 0.0
H1320 H 0.57996 0.67539 0.55017 0.0
H1321 H 0.56735 0.66705 0.48522 0.0
C1322 C 0.51275 0.62064 0.38972 0.0
C1323 C 0.51946 0.61493 0.39382 0.0
C1324 C 0.51789 0.63279 0.3986 0.0
C1325 C 0.52994 0.63953 0.41035 0.0
C1326 C 0.53652 0.63371 0.41571 0.0
C1327 C 0.53131 0.62152 0.40786 0.0
C1328 C 0.53585 0.65267 0.41608 0.0
C1329 C 0.54283 0.65779 0.45328 0.0
C1330 C 0.53494 0.66019 0.38477 0.0
C1331 C 0.52857 0.65559 0.34306 0.0
C1332 C 0.53176 0.64919 0.31459 0.0
C1333 C 0.52569 0.64485 0.27539 0.0
C1334 C 0.51648 0.64695 0.26412 0.0
C1335 C 0.51335 0.65342 0.29198 0.0
C1336 C 0.51938 0.65777 0.33126 0.0
C1337 C 0.57492 0.70842 0.42691 0.0
C1338 C 0.57004 0.71546 0.43989 0.0
C1339 C 0.56771 0.69612 0.42291 0.0
C1340 C 0.55548 0.69066 0.4311 0.0
C1341 C 0.55049 0.69766 0.44271 0.0
C1342 C 0.55774 0.70997 0.44759 0.0
C1343 C 0.54806 0.67758 0.42842 0.0
C1344 C 0.54088 0.67253 0.39181 0.0
C1345 C 0.54901 0.67014 0.45966 0.0
C1346 C 0.55654 0.67507 0.49885 0.0
C1347 C 0.5546 0.68225 0.52802 0.0
C1348 C 0.56182 0.68698 0.56465 0.0
C1349 C 0.57096 0.68452 0.57258 0.0
C1350 C 0.57289 0.6773 0.54396 0.0
C1351 C 0.5657 0.67256 0.50726 0.0
H1352 H 0.57654 0.68818 0.60096 0.0
H1353 H 0.5118 0.64359 0.23374 0.0
H1354 H 0.38198 0.91249 0.44724 0.0
H1355 H 0.36053 0.90021 0.45674 0.0
H1356 H 0.35887 0.87835 0.34846 0.0
H1357 H 0.38045 0.89045 0.33953 0.0
H1358 H 0.34371 0.89749 0.40472 0.0
H1359 H 0.33479 0.85036 0.36047 0.0
H1360 H 0.34477 0.83848 0.36548 0.0
H1361 H 0.36533 0.8595 0.47383 0.0
H1362 H 0.35536 0.87139 0.46983 0.0
H1363 H 0.2819 0.86152 0.37685 0.0
H1364 H 0.30324 0.8705 0.36301 0.0
H1365 H 0.30688 0.8536 0.47793 0.0
H1366 H 0.28553 0.84427 0.49101 0.0
H1367 H 0.32101 0.85354 0.41775 0.0
H1368 H 0.31294 0.8829 0.47851 0.0
H1369 H 0.30316 0.89498 0.48261 0.0
H1370 H 0.31725 0.90999 0.35751 0.0
H1371 H 0.32699 0.89788 0.35246 0.0
C1372 C 0.37708 0.90498 0.42577 0.0
C1373 C 0.3829 0.90244 0.39261 0.0
C1374 C 0.3648 0.89799 0.43113 0.0
C1375 C 0.35807 0.88835 0.40336 0.0
C1376 C 0.36389 0.88564 0.37068 0.0
C1377 C 0.37622 0.89258 0.36554 0.0
C1378 C 0.34491 0.88154 0.40755 0.0
C1379 C 0.33877 0.88787 0.40749 0.0
C1380 C 0.33843 0.869 0.41159 0.0
C1381 C 0.34442 0.86185 0.41449 0.0
C1382 C 0.34142 0.85242 0.38543 0.0
C1383 C 0.34707 0.84569 0.38809 0.0
C1384 C 0.35571 0.84826 0.41985 0.0
C1385 C 0.35867 0.85755 0.44912 0.0
C1386 C 0.35304 0.8643 0.44663 0.0
C1387 C 0.28724 0.85961 0.39885 0.0
C1388 C 0.28207 0.85229 0.43523 0.0
C1389 C 0.29943 0.86478 0.39101 0.0
C1390 C 0.30671 0.86291 0.4199 0.0
C1391 C 0.30146 0.85519 0.45521 0.0
C1392 C 0.28926 0.8499 0.46274 0.0
C1393 C 0.31985 0.8695 0.41495 0.0
C1394 C 0.32598 0.86314 0.41469 0.0
C1395 C 0.32637 0.88206 0.41184 0.0
C1396 C 0.32059 0.8894 0.41493 0.0
C1397 C 0.31389 0.88872 0.45177 0.0
C1398 C 0.30836 0.89558 0.45428 0.0
C1399 C 0.30956 0.90322 0.42029 0.0
C1400 C 0.31632 0.90406 0.38378 0.0
C1401 C 0.32185 0.8972 0.38109 0.0
H1402 H 0.30527 0.90852 0.42229 0.0
H1403 H 0.36008 0.84304 0.42184 0.0
H1404 H 0.12241 0.25925 0.76707 0.0
H1405 H 0.12981 0.25491 0.8331 0.0
H1406 H 0.09478 0.23918 0.88972 0.0
H1407 H 0.08727 0.24352 0.82285 0.0
H1408 H 0.11136 0.25654 0.94024 0.0
H1409 H 0.10707 0.22194 0.87404 0.0
H1410 H 0.1082 0.20942 0.81627 0.0
H1411 H 0.14629 0.23054 0.81675 0.0
H1412 H 0.1454 0.24332 0.87408 0.0
H1413 H 0.15124 0.24384 0.09747 0.0
H1414 H 0.13677 0.23727 0.0383 0.0
H1415 H 0.14851 0.27381 0.00607 0.0
H1416 H 0.16285 0.28044 0.06536 0.0
H1417 H 0.13868 0.24035 0.95267 0.0
H1418 H 0.12587 0.277 0.97468 0.0
H1419 H 0.12414 0.28878 0.03407 0.0
H1420 H 0.1182 0.26135 0.1253 0.0
H1421 H 0.11972 0.24933 0.06637 0.0
C1422 C 0.1162 0.25458 0.79315 0.0
C1423 C 0.10429 0.25178 0.79008 0.0
C1424 C 0.12042 0.25203 0.8308 0.0
C1425 C 0.11284 0.24669 0.86633 0.0
C1426 C 0.10076 0.24327 0.86255 0.0
C1427 C 0.09647 0.24569 0.82438 0.0
C1428 C 0.11808 0.2463 0.90864 0.0
C1429 C 0.11718 0.25284 0.94323 0.0
C1430 C 0.12552 0.24129 0.91281 0.0
C1431 C 0.12616 0.23362 0.87836 0.0
C1432 C 0.11569 0.22397 0.86166 0.0
C1433 C 0.11629 0.21682 0.829 0.0
C1434 C 0.12731 0.21919 0.81283 0.0
C1435 C 0.13776 0.22871 0.82934 0.0
C1436 C 0.13721 0.2359 0.862 0.0
C1437 C 0.15077 0.25049 0.07773 0.0
C1438 C 0.15813 0.2627 0.08652 0.0
C1439 C 0.14248 0.2467 0.04393 0.0
C1440 C 0.14139 0.25503 0.01833 0.0
C1441 C 0.14898 0.26721 0.02612 0.0
C1442 C 0.15722 0.271 0.05998 0.0
C1443 C 0.13239 0.2511 0.98318 0.0
C1444 C 0.13263 0.24379 0.95007 0.0
C1445 C 0.12419 0.25524 0.98059 0.0
C1446 C 0.12296 0.26229 0.01609 0.0
C1447 C 0.1241 0.27344 0.00734 0.0
C1448 C 0.12318 0.28017 0.04095 0.0
C1449 C 0.12108 0.27583 0.08343 0.0
C1450 C 0.11985 0.26472 0.09239 0.0
C1451 C 0.12075 0.25795 0.0589 0.0
H1452 H 0.1204 0.28106 0.10941 0.0
H1453 H 0.12775 0.21364 0.78754 0.0
H1454 H 0.75883 0.90777 0.09011 0.0
H1455 H 0.76513 0.89965 0.03068 0.0
H1456 H 0.73382 0.86533 0.0492 0.0
H1457 H 0.72752 0.87327 0.10864 0.0
H1458 H 0.75357 0.86342 0.03746 0.0
H1459 H 0.73527 0.88433 0.96979 0.0
H1460 H 0.73355 0.90203 0.95405 0.0
H1461 H 0.76909 0.92 0.90306 0.0
H1462 H 0.77105 0.90243 0.91905 0.0
H1463 H 0.73118 0.83138 0.84799 0.0
H1464 H 0.73708 0.84306 0.91451 0.0
H1465 H 0.76958 0.86935 0.85326 0.0
H1466 H 0.76368 0.85745 0.78605 0.0
H1467 H 0.75627 0.87871 0.88791 0.0
H1468 H 0.77208 0.85529 0.93871 0.0
H1469 H 0.77306 0.83709 0.95212 0.0
H1470 H 0.74214 0.82351 0.03344 0.0
H1471 H 0.74085 0.84154 0.02002 0.0
C1472 C 0.75329 0.89848 0.08163 0.0
C1473 C 0.74263 0.89118 0.10414 0.0
C1474 C 0.75692 0.89387 0.04764 0.0
C1475 C 0.74993 0.8819 0.03546 0.0
C1476 C 0.73939 0.87458 0.05821 0.0
C1477 C 0.73576 0.87917 0.09207 0.0
C1478 C 0.75322 0.87693 0.99809 0.0
C1479 C 0.75419 0.86676 0.00474 0.0
C1480 C 0.75455 0.8816 0.95565 0.0
C1481 C 0.75337 0.89215 0.94618 0.0
C1482 C 0.74275 0.8921 0.9556 0.0
C1483 C 0.74172 0.9021 0.94656 0.0
C1484 C 0.75122 0.91215 0.92772 0.0
C1485 C 0.76175 0.91222 0.91777 0.0
C1486 C 0.76282 0.90224 0.92681 0.0
C1487 C 0.73973 0.83949 0.84907 0.0
C1488 C 0.74698 0.84355 0.81205 0.0
C1489 C 0.74313 0.84614 0.88715 0.0
C1490 C 0.7538 0.85705 0.88893 0.0
C1491 C 0.76135 0.8609 0.85257 0.0
C1492 C 0.75802 0.8541 0.81441 0.0
C1493 C 0.75604 0.86485 0.92705 0.0
C1494 C 0.75609 0.87557 0.9207 0.0
C1495 C 0.75563 0.86067 0.96975 0.0
C1496 C 0.75637 0.84979 0.97826 0.0
C1497 C 0.76545 0.8484 0.95926 0.0
C1498 C 0.76606 0.83811 0.96689 0.0
C1499 C 0.75767 0.82915 0.99361 0.0
C1500 C 0.74865 0.83047 0.01279 0.0
C1501 C 0.74799 0.84074 0.00526 0.0
H1502 H 0.75816 0.82119 -0.00054 0.0
H1503 H 0.75041 0.91988 0.92072 0.0
H1504 H 0.12764 0.85685 0.09925 0.0
H1505 H 0.13559 0.87123 0.04052 0.0
H1506 H 0.1014 0.86856 0.02308 0.0
H1507 H 0.09322 0.85392 0.08196 0.0
H1508 H 0.11094 0.86774 0.94633 0.0
H1509 H 0.12391 0.89364 0.06679 0.0
H1510 H 0.13251 0.90106 0.13918 0.0
H1511 H 0.16612 0.90605 0.09588 0.0
H1512 H 0.15768 0.89847 0.02341 0.0
H1513 H 0.14405 0.9096 0.7786 0.0
H1514 H 0.13248 0.90365 0.84648 0.0
H1515 H 0.15764 0.89499 0.90247 0.0
H1516 H 0.16903 0.90073 0.8352 0.0
H1517 H 0.14937 0.90534 0.96231 0.0
H1518 H 0.13387 0.87406 0.85042 0.0
H1519 H 0.12521 0.86623 0.77834 0.0
H1520 H 0.09603 0.87185 0.80701 0.0
H1521 H 0.10463 0.87985 0.8791 0.0
C1522 C 0.12177 0.85932 0.08323 0.0
C1523 C 0.10977 0.85422 0.09557 0.0
C1524 C 0.12637 0.86763 0.04974 0.0
C1525 C 0.11916 0.87115 0.02791 0.0
C1526 C 0.10715 0.86604 0.03975 0.0
C1527 C 0.1025 0.85768 0.07343 0.0
C1528 C 0.12421 0.87975 0.99144 0.0
C1529 C 0.11916 0.87613 0.95005 0.0
C1530 C 0.13493 0.89071 0.99619 0.0
C1531 C 0.14013 0.89544 0.03961 0.0
C1532 C 0.13312 0.89626 0.07273 0.0
C1533 C 0.13797 0.9005 0.1138 0.0
C1534 C 0.14985 0.90402 0.12213 0.0
C1535 C 0.15692 0.90333 0.08937 0.0
C1536 C 0.15211 0.89908 0.04825 0.0
C1537 C 0.14725 0.90674 0.80592 0.0
C1538 C 0.15736 0.90552 0.80172 0.0
C1539 C 0.14063 0.90331 0.84451 0.0
C1540 C 0.14417 0.89879 0.87933 0.0
C1541 C 0.15476 0.89846 0.87608 0.0
C1542 C 0.16124 0.9017 0.83757 0.0
C1543 C 0.13637 0.89305 0.91732 0.0
C1544 C 0.14092 0.89718 0.95897 0.0
C1545 C 0.12516 0.8826 0.91288 0.0
C1546 C 0.11996 0.87768 0.86982 0.0
C1547 C 0.12565 0.8737 0.84119 0.0
C1548 C 0.12075 0.86922 0.80038 0.0
C1549 C 0.11009 0.86858 0.78804 0.0
C1550 C 0.1043 0.87238 0.81657 0.0
C1551 C 0.10918 0.87689 0.85739 0.0
H1552 H 0.10631 0.86512 0.75642 0.0
H1553 H 0.15358 0.90729 0.15396 0.0
H1554 H 0.24601 0.08939 0.68391 0.0
H1555 H 0.24149 0.09739 0.61882 0.0
H1556 H 0.26644 0.13305 0.66092 0.0
H1557 H 0.27076 0.12523 0.72551 0.0
H1558 H 0.24822 0.13291 0.62305 0.0
H1559 H 0.27479 0.11731 0.5926 0.0
H1560 H 0.27976 0.10132 0.5894 0.0
H1561 H 0.25008 0.08114 0.50469 0.0
H1562 H 0.24486 0.09698 0.50783 0.0
H1563 H 0.28111 0.15752 0.40747 0.0
H1564 H 0.27617 0.14476 0.4711 0.0
H1565 H 0.24076 0.13977 0.47177 0.0
H1566 H 0.24566 0.1527 0.40827 0.0
H1567 H 0.25991 0.1218 0.4852 0.0
H1568 H 0.23216 0.1377 0.57936 0.0
H1569 H 0.22985 0.1554 0.58526 0.0
H1570 H 0.26613 0.17775 0.5457 0.0
H1571 H 0.26869 0.1602 0.54012 0.0
C1572 C 0.2503 0.09893 0.67962 0.0
C1573 C 0.25889 0.10667 0.7094 0.0
C1574 C 0.24775 0.10349 0.64241 0.0
C1575 C 0.25376 0.11582 0.6347 0.0
C1576 C 0.26169 0.12352 0.66603 0.0
C1577 C 0.26424 0.119 0.70285 0.0
C1578 C 0.25295 0.12091 0.59254 0.0
C1579 C 0.25055 0.13032 0.59273 0.0
C1580 C 0.25617 0.11769 0.55306 0.0
C1581 C 0.25936 0.10824 0.55085 0.0
C1582 C 0.26929 0.10943 0.5735 0.0
C1583 C 0.27216 0.1004 0.57168 0.0
C1584 C 0.26522 0.0902 0.54697 0.0
C1585 C 0.25543 0.08903 0.5239 0.0
C1586 C 0.25251 0.09803 0.52567 0.0
C1587 C 0.27226 0.15372 0.42101 0.0
C1588 C 0.2638 0.15619 0.40272 0.0
C1589 C 0.26942 0.14636 0.45729 0.0
C1590 C 0.2581 0.14131 0.4762 0.0
C1591 C 0.24958 0.14364 0.45787 0.0
C1592 C 0.25241 0.15104 0.42155 0.0
C1593 C 0.25546 0.13397 0.51597 0.0
C1594 C 0.2572 0.12414 0.5152 0.0
C1595 C 0.25195 0.13701 0.55516 0.0
C1596 C 0.25055 0.14763 0.55875 0.0
C1597 C 0.23964 0.1464 0.57199 0.0
C1598 C 0.23829 0.1564 0.57529 0.0
C1599 C 0.24782 0.16768 0.56568 0.0
C1600 C 0.25874 0.169 0.55294 0.0
C1601 C 0.26014 0.15903 0.54965 0.0
H1602 H 0.24676 0.17541 0.56822 0.0
H1603 H 0.26745 0.08321 0.54561 0.0
H1604 H 0.85402 0.09638 0.38328 0.0
H1605 H 0.86831 0.10461 0.44306 0.0
H1606 H 0.85943 0.13221 0.46093 0.0
H1607 H 0.84556 0.12435 0.4006 0.0
H1608 H 0.88232 0.14142 0.46829 0.0
H1609 H 0.8475 0.10626 0.52495 0.0
H1610 H 0.83273 0.08484 0.52738 0.0
H1611 H 0.86067 0.07672 0.546 0.0
H1612 H 0.87561 0.0981 0.54318 0.0
H1613 H 0.88009 0.1443 0.70779 0.0
H1614 H 0.87342 0.13213 0.64263 0.0
H1615 H 0.90955 0.149 0.59577 0.0
H1616 H 0.91632 0.16136 0.66176 0.0
H1617 H 0.87711 0.1165 0.59756 0.0
H1618 H 0.90785 0.15501 0.48751 0.0
H1619 H 0.92038 0.17689 0.4893 0.0
H1620 H 0.89701 0.17883 0.58341 0.0
H1621 H 0.8843 0.157 0.58172 0.0
C1622 C 0.85515 0.10423 0.39984 0.0
C1623 C 0.84856 0.10965 0.38727 0.0
C1624 C 0.86332 0.10891 0.43407 0.0
C1625 C 0.8649 0.11898 0.45676 0.0
C1626 C 0.85844 0.12447 0.44382 0.0
C1627 C 0.85041 0.1199 0.40942 0.0
C1628 C 0.87291 0.12371 0.49499 0.0
C1629 C 0.8813 0.13591 0.49626 0.0
C1630 C 0.87164 0.11657 0.5316 0.0
C1631 C 0.86267 0.10374 0.53328 0.0
C1632 C 0.85049 0.09989 0.52923 0.0
C1633 C 0.84209 0.08777 0.53074 0.0
C1634 C 0.84576 0.07942 0.53668 0.0
C1635 C 0.85784 0.08319 0.54128 0.0
C1636 C 0.86628 0.0953 0.53974 0.0
C1637 C 0.88666 0.14524 0.68407 0.0
C1638 C 0.89869 0.15388 0.68938 0.0
C1639 C 0.88285 0.1382 0.64697 0.0
C1640 C 0.89096 0.13974 0.61408 0.0
C1641 C 0.90314 0.14773 0.62071 0.0
C1642 C 0.90701 0.15475 0.65835 0.0
C1643 C 0.8862 0.13422 0.57117 0.0
C1644 C 0.87844 0.12189 0.56894 0.0
C1645 C 0.88777 0.14128 0.53406 0.0
C1646 C 0.89525 0.1544 0.5349 0.0
C1647 C 0.9054 0.16013 0.50851 0.0
C1648 C 0.91252 0.17251 0.5095 0.0
C1649 C 0.90952 0.17924 0.53659 0.0
C1650 C 0.89936 0.17361 0.56257 0.0
C1651 C 0.8922 0.16124 0.56162 0.0
H1652 H 0.91505 0.18882 0.53735 0.0
H1653 H 0.83924 0.07004 0.53786 0.0
H1654 H 0.83479 0.7259 0.65686 0.0
H1655 H 0.84874 0.73137 0.5969 0.0
H1656 H 0.8694 0.76682 0.64855 0.0
H1657 H 0.85534 0.76136 0.70963 0.0
H1658 H 0.8647 0.76108 0.54279 0.0
H1659 H 0.88263 0.75638 0.67256 0.0
H1660 H 0.88212 0.74701 0.74275 0.0
H1661 H 0.86965 0.71341 0.6792 0.0
H1662 H 0.86989 0.72254 0.60871 0.0
H1663 H 0.90719 0.75796 0.39806 0.0
H1664 H 0.89996 0.76377 0.46178 0.0
H1665 H 0.87516 0.72686 0.48866 0.0
H1666 H 0.88226 0.72098 0.42534 0.0
H1667 H 0.88706 0.73963 0.56214 0.0
H1668 H 0.86616 0.74353 0.43674 0.0
H1669 H 0.86534 0.75205 0.36614 0.0
H1670 H 0.88324 0.78711 0.42128 0.0
H1671 H 0.88429 0.7788 0.4921 0.0
C1672 C 0.84214 0.73496 0.6551 0.0
C1673 C 0.84408 0.74316 0.68825 0.0
C1674 C 0.85007 0.73807 0.62072 0.0
C1675 C 0.86012 0.74943 0.61872 0.0
C1676 C 0.86165 0.75801 0.64971 0.0
C1677 C 0.85362 0.75488 0.68443 0.0
C1678 C 0.86952 0.75143 0.58728 0.0
C1679 C 0.86995 0.75678 0.54735 0.0
C1680 C 0.87618 0.74564 0.59326 0.0
C1681 C 0.87621 0.74013 0.63541 0.0
C1682 C 0.8797 0.74697 0.67361 0.0
C1683 C 0.87947 0.74171 0.71344 0.0
C1684 C 0.87584 0.72962 0.71545 0.0
C1685 C 0.87246 0.72277 0.6776 0.0
C1686 C 0.87265 0.72799 0.63769 0.0
C1687 C 0.90026 0.75108 0.41775 0.0
C1688 C 0.89525 0.739 0.40649 0.0
C1689 C 0.89613 0.75443 0.45403 0.0
C1690 C 0.887 0.74575 0.47975 0.0
C1691 C 0.88223 0.7337 0.46923 0.0
C1692 C 0.88626 0.73035 0.43289 0.0
C1693 C 0.88203 0.74901 0.51707 0.0
C1694 C 0.88232 0.74447 0.55802 0.0
C1695 C 0.87612 0.75561 0.51197 0.0
C1696 C 0.87545 0.76057 0.46949 0.0
C1697 C 0.87001 0.75307 0.43368 0.0
C1698 C 0.86949 0.75785 0.39366 0.0
C1699 C 0.87428 0.77012 0.38918 0.0
C1700 C 0.87956 0.77762 0.42476 0.0
C1701 C 0.88012 0.77287 0.46484 0.0
H1702 H 0.87386 0.77381 0.35818 0.0
H1703 H 0.87566 0.72556 0.74632 0.0
H1704 H 0.85085 0.72624 0.90789 0.0
H1705 H 0.86479 0.7338 0.96801 0.0
H1706 H 0.86595 0.76752 0.95973 0.0
H1707 H 0.85172 0.75992 0.89951 0.0
H1708 H 0.88701 0.75148 0.97775 0.0
H1709 H 0.86965 0.77832 0.06545 0.0
H1710 H 0.85167 0.7802 0.07004 0.0
H1711 H 0.82984 0.74319 0.03865 0.0
H1712 H 0.84767 0.74109 0.03435 0.0
H1713 H 0.91574 0.76112 0.18295 0.0
H1714 H 0.90943 0.76795 0.11908 0.0
H1715 H 0.87283 0.7422 0.14699 0.0
H1716 H 0.87897 0.73558 0.21033 0.0
H1717 H 0.87417 0.76177 0.11469 0.0
H1718 H 0.89045 0.73551 0.0799 0.0
H1719 H 0.90684 0.73107 0.07817 0.0
H1720 H 0.92842 0.7632 0.00649 0.0
H1721 H 0.91217 0.76785 0.00819 0.0
C1722 C 0.85407 0.73529 0.91855 0.0
C1723 C 0.85006 0.74243 0.89895 0.0
C1724 C 0.86213 0.73964 0.95284 0.0
C1725 C 0.86642 0.75122 0.96846 0.0
C1726 C 0.8627 0.75852 0.94839 0.0
C1727 C 0.85456 0.75415 0.914 0.0
C1728 C 0.87415 0.75513 0.00749 0.0
C1729 C 0.88434 0.75398 0.00749 0.0
C1730 C 0.87077 0.7585 0.04627 0.0
C1731 C 0.85999 0.75961 0.04897 0.0
C1732 C 0.861 0.7706 0.05955 0.0
C1733 C 0.85084 0.7717 0.06212 0.0
C1734 C 0.83963 0.76183 0.05445 0.0
C1735 C 0.83854 0.75084 0.04439 0.0
C1736 C 0.84866 0.74969 0.04184 0.0
C1737 C 0.90635 0.75714 0.17588 0.0
C1738 C 0.89786 0.74765 0.20109 0.0
C1739 C 0.90276 0.76103 0.13942 0.0
C1740 C 0.89066 0.75548 0.12796 0.0
C1741 C 0.8822 0.74664 0.15509 0.0
C1742 C 0.88575 0.74276 0.19113 0.0
C1743 C 0.88663 0.7575 0.08536 0.0
C1744 C 0.87717 0.75983 0.08453 0.0
C1745 C 0.8905 0.75494 0.04599 0.0
C1746 C 0.90018 0.75208 0.04457 0.0
C1747 C 0.89872 0.74163 0.06393 0.0
C1748 C 0.90797 0.73908 0.06296 0.0
C1749 C 0.91868 0.74687 0.04234 0.0
C1750 C 0.92014 0.75719 0.02253 0.0
C1751 C 0.91091 0.75979 0.02348 0.0
H1752 H 0.92584 0.74488 0.04164 0.0
H1753 H 0.83178 0.7627 0.05643 0.0
H1754 H 0.24289 0.09263 0.90334 0.0
H1755 H 0.23565 0.09859 0.96668 0.0
H1756 H 0.27183 0.12218 0.00686 0.0
H1757 H 0.27911 0.11632 0.94413 0.0
H1758 H 0.25745 0.10972 0.07538 0.0
H1759 H 0.25669 0.13249 0.94984 0.0
H1760 H 0.24984 0.13433 0.87711 0.0
H1761 H 0.21364 0.11595 0.92149 0.0
H1762 H 0.2203 0.11388 0.99438 0.0
H1763 H 0.27162 0.16411 0.15529 0.0
H1764 H 0.26544 0.14901 0.09917 0.0
H1765 H 0.23169 0.12801 0.1631 0.0
H1766 H 0.23791 0.14322 0.22053 0.0
H1767 H 0.23742 0.13321 0.04992 0.0
H1768 H 0.23941 0.11345 0.18161 0.0
H1769 H 0.24783 0.11361 0.25354 0.0
H1770 H 0.28241 0.12722 0.1966 0.0
H1771 H 0.27422 0.12732 0.12444 0.0
C1772 C 0.2493 0.099 0.92592 0.0
C1773 C 0.26159 0.10407 0.91847 0.0
C1774 C 0.24514 0.1024 0.96202 0.0
C1775 C 0.2532 0.11086 0.99133 0.0
C1776 C 0.26544 0.11561 0.98471 0.0
C1777 C 0.2696 0.1123 0.94863 0.0
C1778 C 0.24916 0.11539 0.02786 0.0
C1779 C 0.25284 0.11463 0.06995 0.0
C1780 C 0.24293 0.12161 0.021 0.0
C1781 C 0.23897 0.12288 0.97729 0.0
C1782 C 0.24727 0.12875 0.94395 0.0
C1783 C 0.24342 0.12986 0.90274 0.0
C1784 C 0.23131 0.12522 0.89463 0.0
C1785 C 0.22302 0.11951 0.92778 0.0
C1786 C 0.22682 0.11836 0.96903 0.0
C1787 C 0.26279 0.15639 0.15722 0.0
C1788 C 0.25531 0.15476 0.19268 0.0
C1789 C 0.25926 0.14781 0.12497 0.0
C1790 C 0.24819 0.1374 0.12733 0.0
C1791 C 0.24029 0.13602 0.16092 0.0
C1792 C 0.24384 0.1447 0.19353 0.0
C1793 C 0.24591 0.12768 0.09701 0.0
C1794 C 0.24132 0.12765 0.05583 0.0
C1795 C 0.25127 0.12069 0.10462 0.0
C1796 C 0.25621 0.12046 0.14775 0.0
C1797 C 0.24882 0.11656 0.18452 0.0
C1798 C 0.25355 0.11659 0.2253 0.0
C1799 C 0.26565 0.12044 0.22965 0.0
C1800 C 0.27304 0.12424 0.19319 0.0
C1801 C 0.26836 0.12424 0.15234 0.0
H1802 H 0.2693 0.12046 0.26126 0.0
H1803 H 0.22835 0.12609 0.86271 0.0
H1804 H 0.85533 0.09643 0.19739 0.0
H1805 H 0.86785 0.10421 0.1321 0.0
H1806 H 0.8433 0.11412 0.07894 0.0
H1807 H 0.83093 0.10648 0.14341 0.0
H1808 H 0.85168 0.10499 0.01682 0.0
H1809 H 0.86717 0.13385 0.13655 0.0
H1810 H 0.87561 0.14024 0.20988 0.0
H1811 H 0.90458 0.13468 0.17671 0.0
H1812 H 0.89621 0.12811 0.1033 0.0
H1813 H 0.87545 0.15564 0.89094 0.0
H1814 H 0.86715 0.14127 0.94968 0.0
H1815 H 0.89995 0.14066 0.95995 0.0
H1816 H 0.90849 0.15528 0.90107 0.0
H1817 H 0.89063 0.14154 0.0404 0.0
H1818 H 0.87734 0.11764 0.91389 0.0
H1819 H 0.86887 0.11179 0.84041 0.0
H1820 H 0.83581 0.10785 0.88544 0.0
H1821 H 0.84413 0.11386 0.95906 0.0
C1822 C 0.85251 0.10002 0.17124 0.0
C1823 C 0.84224 0.10096 0.17554 0.0
C1824 C 0.85968 0.1045 0.13416 0.0
C1825 C 0.85654 0.10983 0.1009 0.0
C1826 C 0.84589 0.11005 0.10416 0.0
C1827 C 0.83885 0.10573 0.14114 0.0
C1828 C 0.86463 0.11618 0.06422 0.0
C1829 C 0.86024 0.11293 0.02186 0.0
C1830 C 0.87595 0.12634 0.07079 0.0
C1831 C 0.881 0.13035 0.11473 0.0
C1832 C 0.87529 0.13391 0.14504 0.0
C1833 C 0.88007 0.13758 0.18657 0.0
C1834 C 0.89061 0.13783 0.198 0.0
C1835 C 0.89641 0.13445 0.16785 0.0
C1836 C 0.89165 0.13076 0.12629 0.0
C1837 C 0.88098 0.15256 0.90572 0.0
C1838 C 0.89264 0.15662 0.89108 0.0
C1839 C 0.87617 0.14425 0.93916 0.0
C1840 C 0.88286 0.13974 0.9586 0.0
C1841 C 0.89462 0.14398 0.94508 0.0
C1842 C 0.89946 0.15231 0.91141 0.0
C1843 C 0.87739 0.13064 0.99318 0.0
C1844 C 0.88227 0.13338 0.03506 0.0
C1845 C 0.8665 0.11999 0.98618 0.0
C1846 C 0.86139 0.11625 0.94202 0.0
C1847 C 0.86828 0.11559 0.90809 0.0
C1848 C 0.86351 0.11224 0.8664 0.0
C1849 C 0.85182 0.10946 0.85826 0.0
C1850 C 0.84487 0.11 0.89181 0.0
C1851 C 0.8496 0.11336 0.93355 0.0
H1852 H 0.84814 0.10687 0.82596 0.0
H1853 H 0.89429 0.14067 0.23017 0.0
H1854 H 0.73764 0.90479 0.35442 0.0
H1855 H 0.74425 0.89848 0.41807 0.0
H1856 H 0.7706 0.89611 0.34025 0.0
H1857 H 0.76414 0.90277 0.27627 0.0
H1858 H 0.75458 0.87489 0.38224 0.0
H1859 H 0.78075 0.91458 0.42125 0.0
H1860 H 0.78772 0.93583 0.43306 0.0
H1861 H 0.76139 0.9269 0.53235 0.0
H1862 H 0.75411 0.90557 0.5207 0.0
H1863 H 0.75797 0.84759 0.58077 0.0
H1864 H 0.76526 0.86166 0.51999 0.0
H1865 H 0.73997 0.87279 0.55199 0.0
H1866 H 0.73262 0.8588 0.61242 0.0
H1867 H 0.76244 0.89184 0.53088 0.0
H1868 H 0.73343 0.85267 0.47547 0.0
H1869 H 0.72574 0.83134 0.46181 0.0
H1870 H 0.75756 0.83967 0.39171 0.0
H1871 H 0.7655 0.86106 0.40551 0.0
C1872 C 0.74513 0.90333 0.35131 0.0
C1873 C 0.75045 0.9043 0.31079 0.0
C1874 C 0.74892 0.89975 0.38763 0.0
C1875 C 0.75795 0.89687 0.3839 0.0
C1876 C 0.76369 0.89839 0.3438 0.0
C1877 C 0.76005 0.90224 0.30746 0.0
C1878 C 0.75994 0.89067 0.42046 0.0
C1879 C 0.75671 0.87871 0.41457 0.0
C1880 C 0.76254 0.89561 0.46263 0.0
C1881 C 0.76685 0.90844 0.46998 0.0
C1882 C 0.77638 0.91713 0.44541 0.0
C1883 C 0.7804 0.9292 0.45211 0.0
C1884 C 0.775 0.93271 0.48342 0.0
C1885 C 0.76557 0.92416 0.50813 0.0
C1886 C 0.76151 0.91208 0.50154 0.0
C1887 C 0.75404 0.85311 0.57509 0.0
C1888 C 0.74465 0.852 0.60127 0.0
C1889 C 0.75822 0.86114 0.54037 0.0
C1890 C 0.75314 0.86825 0.53152 0.0
C1891 C 0.74405 0.86742 0.55842 0.0
C1892 C 0.73979 0.85934 0.59276 0.0
C1893 C 0.75661 0.87599 0.49268 0.0
C1894 C 0.76079 0.88818 0.49831 0.0
C1895 C 0.75487 0.87127 0.45021 0.0
C1896 C 0.75013 0.85843 0.44208 0.0
C1897 C 0.73883 0.84994 0.45753 0.0
C1898 C 0.73442 0.83784 0.44968 0.0
C1899 C 0.74118 0.83415 0.42606 0.0
C1900 C 0.75235 0.84254 0.41013 0.0
C1901 C 0.75681 0.85465 0.41795 0.0
H1902 H 0.73774 0.82478 0.41998 0.0
H1903 H 0.77812 0.94206 0.48856 0.0
H1904 H 0.09361 0.86054 0.27283 0.0
H1905 H 0.09906 0.87308 0.33828 0.0
H1906 H 0.10306 0.84665 0.40925 0.0
H1907 H 0.09787 0.83433 0.34426 0.0
H1908 H 0.09348 0.858 0.46001 0.0
H1909 H 0.12628 0.86766 0.35718 0.0
H1910 H 0.1357 0.87417 0.28526 0.0
H1911 H 0.13409 0.9063 0.29639 0.0
H1912 H 0.12451 0.89988 0.36822 0.0
H1913 H 0.14021 0.87533 0.60244 0.0
H1914 H 0.12562 0.86836 0.54429 0.0
H1915 H 0.13434 0.90441 0.51714 0.0
H1916 H 0.14916 0.91156 0.57555 0.0
H1917 H 0.13407 0.89279 0.44406 0.0
H1918 H 0.10732 0.88546 0.55854 0.0
H1919 H 0.09827 0.87888 0.63087 0.0
H1920 H 0.08814 0.84284 0.59922 0.0
H1921 H 0.09729 0.84921 0.52693 0.0
C1922 C 0.09529 0.85729 0.30286 0.0
C1923 C 0.09542 0.84654 0.30369 0.0
C1924 C 0.09842 0.86445 0.34008 0.0
C1925 C 0.10153 0.86081 0.37847 0.0
C1926 C 0.10065 0.84961 0.38004 0.0
C1927 C 0.09775 0.8426 0.34289 0.0
C1928 C 0.10734 0.86908 0.41519 0.0
C1929 C 0.1023 0.8657 0.45667 0.0
C1930 C 0.11868 0.87933 0.41052 0.0
C1931 C 0.12455 0.88323 0.3677 0.0
C1932 C 0.12787 0.87608 0.34413 0.0
C1933 C 0.13324 0.87975 0.30342 0.0
C1934 C 0.13545 0.89063 0.28619 0.0
C1935 C 0.13234 0.89786 0.30972 0.0
C1936 C 0.12693 0.89421 0.35041 0.0
C1937 C 0.139 0.88182 0.58448 0.0
C1938 C 0.1459 0.89402 0.59368 0.0
C1939 C 0.13055 0.87779 0.5514 0.0
C1940 C 0.12875 0.88584 0.52676 0.0
C1941 C 0.13552 0.89803 0.536 0.0
C1942 C 0.14397 0.9021 0.56941 0.0
C1943 C 0.12045 0.88138 0.48932 0.0
C1944 C 0.12505 0.88544 0.44764 0.0
C1945 C 0.10868 0.87179 0.49389 0.0
C1946 C 0.10303 0.86783 0.53724 0.0
C1947 C 0.10323 0.87613 0.56705 0.0
C1948 C 0.09807 0.87244 0.60807 0.0
C1949 C 0.09264 0.86045 0.61964 0.0
C1950 C 0.09234 0.85212 0.59019 0.0
C1951 C 0.09749 0.85577 0.54913 0.0
H1952 H 0.08866 0.85761 0.65143 0.0
H1953 H 0.13961 0.89346 0.25466 0.0
H1954 H 0.09678 0.23887 0.59952 0.0
H1955 H 0.10334 0.23289 0.53403 0.0
H1956 H 0.11883 0.26868 0.48465 0.0
H1957 H 0.11244 0.27464 0.54974 0.0
H1958 H 0.10602 0.25076 0.42164 0.0
H1959 H 0.13588 0.26085 0.53667 0.0
H1960 H 0.14218 0.25771 0.60862 0.0
H1961 H 0.13132 0.22163 0.57441 0.0
H1962 H 0.12481 0.22454 0.5024 0.0
H1963 H 0.15634 0.27545 0.30071 0.0
H1964 H 0.14153 0.26867 0.35749 0.0
H1965 H 0.13779 0.23378 0.35261 0.0
H1966 H 0.15288 0.24056 0.29469 0.0
H1967 H 0.13955 0.24302 0.43833 0.0
H1968 H 0.11555 0.23553 0.31451 0.0
H1969 H 0.11006 0.23932 0.24213 0.0
H1970 H 0.10958 0.27 0.29133 0.0
H1971 H 0.11526 0.26653 0.36386 0.0
C1972 C 0.10147 0.24539 0.57438 0.0
C1973 C 0.10424 0.25727 0.57978 0.0
C1974 C 0.10521 0.24198 0.53713 0.0
C1975 C 0.11158 0.25036 0.50463 0.0
C1976 C 0.1139 0.26207 0.50931 0.0
C1977 C 0.11034 0.2655 0.54662 0.0
C1978 C 0.11663 0.2474 0.46675 0.0
C1979 C 0.11326 0.24893 0.42511 0.0
C1980 C 0.12576 0.24456 0.47137 0.0
C1981 C 0.12972 0.24286 0.51449 0.0
C1982 C 0.13475 0.25222 0.54466 0.0
C1983 C 0.13837 0.25049 0.5854 0.0
C1984 C 0.13711 0.23946 0.59614 0.0
C1985 C 0.13226 0.23016 0.56609 0.0
C1986 C 0.1286 0.23184 0.52533 0.0
C1987 C 0.15245 0.26631 0.31139 0.0
C1988 C 0.15582 0.25854 0.29281 0.0
C1989 C 0.14389 0.26243 0.34384 0.0
C1990 C 0.13841 0.25068 0.35867 0.0
C1991 C 0.14186 0.24287 0.34119 0.0
C1992 C 0.15047 0.24676 0.30819 0.0
C1993 C 0.12934 0.24701 0.39333 0.0
C1994 C 0.13196 0.24428 0.43445 0.0
C1995 C 0.11945 0.24869 0.3882 0.0
C1996 C 0.11584 0.25076 0.34474 0.0
C1997 C 0.11432 0.24312 0.30989 0.0
C1998 C 0.11118 0.24521 0.26881 0.0
C1999 C 0.10947 0.25489 0.26213 0.0
C2000 C 0.11089 0.26249 0.29656 0.0
C2001 C 0.11404 0.26045 0.33772 0.0
H2002 H 0.10705 0.2565 0.23028 0.0
H2003 H 0.13992 0.23814 0.6277 0.0
H2004 H 0.82747 0.58515 0.41508 0.0
H2005 H 0.81482 0.57959 0.3503 0.0
H2006 H 0.80023 0.60116 0.39404 0.0
H2007 H 0.8131 0.60708 0.45822 0.0
H2008 H 0.78373 0.57356 0.35508 0.0
H2009 H 0.81612 0.6153 0.33114 0.0
H2010 H 0.83746 0.63041 0.33052 0.0
H2011 H 0.84441 0.60876 0.2436 0.0
H2012 H 0.82312 0.59345 0.24426 0.0
H2013 H 0.75679 0.58723 0.18163 0.0
H2014 H 0.76576 0.58398 0.24615 0.0
H2015 H 0.7919 0.58197 0.16543 0.0
H2016 H 0.78329 0.58593 0.10135 0.0
H2017 H 0.80286 0.59717 0.22262 0.0
H2018 H 0.77051 0.5578 0.23075 0.0
H2019 H 0.74966 0.54153 0.23069 0.0
H2020 H 0.74268 0.55605 0.34471 0.0
H2021 H 0.76345 0.57252 0.34513 0.0
C2022 C 0.8215 0.58863 0.41107 0.0
C2023 C 0.82132 0.59661 0.44151 0.0
C2024 C 0.81427 0.58542 0.3742 0.0
C2025 C 0.80659 0.58993 0.36778 0.0
C2026 C 0.80607 0.59755 0.39878 0.0
C2027 C 0.81349 0.60099 0.43513 0.0
C2028 C 0.79984 0.58752 0.32695 0.0
C2029 C 0.78781 0.57871 0.326 0.0
C2030 C 0.80536 0.59396 0.28894 0.0
C2031 C 0.8181 0.60319 0.2882 0.0
C2032 C 0.82223 0.61373 0.31226 0.0
C2033 C 0.8343 0.62233 0.31182 0.0
C2034 C 0.84229 0.62053 0.28716 0.0
C2035 C 0.83822 0.61013 0.26276 0.0
C2036 C 0.82616 0.60149 0.26314 0.0
C2037 C 0.76417 0.58564 0.17773 0.0
C2038 C 0.76934 0.58672 0.13685 0.0
C2039 C 0.76931 0.58376 0.21458 0.0
C2040 C 0.77954 0.5827 0.21085 0.0
C2041 C 0.78407 0.58282 0.1693 0.0
C2042 C 0.7791 0.58497 0.13266 0.0
C2043 C 0.78645 0.58323 0.25014 0.0
C2044 C 0.79863 0.59177 0.25108 0.0
C2045 C 0.78105 0.57634 0.2878 0.0
C2046 C 0.76853 0.56645 0.28777 0.0
C2047 C 0.76451 0.55758 0.25563 0.0
C2048 C 0.7527 0.54831 0.25557 0.0
C2049 C 0.74484 0.54777 0.28763 0.0
C2050 C 0.74878 0.55649 0.31988 0.0
C2051 C 0.76057 0.56578 0.32009 0.0
H2052 H 0.73571 0.54058 0.28752 0.0
H2053 H 0.85164 0.6272 0.28686 0.0
H2054 H 0.42683 0.18088 0.15683 0.0
H2055 H 0.43413 0.19557 0.21611 0.0
H2056 H 0.40262 0.19859 0.20517 0.0
H2057 H 0.39548 0.18433 0.14656 0.0
H2058 H 0.42158 0.21991 0.2183 0.0
H2059 H 0.40483 0.17943 0.27911 0.0
H2060 H 0.40488 0.16059 0.28906 0.0
H2061 H 0.44067 0.17984 0.33722 0.0
H2062 H 0.44085 0.1988 0.32712 0.0
H2063 H 0.39067 0.21635 0.4085 0.0
H2064 H 0.39878 0.21134 0.34565 0.0
H2065 H 0.43424 0.23265 0.39637 0.0
H2066 H 0.42621 0.23802 0.45928 0.0
H2067 H 0.42269 0.2045 0.36448 0.0
H2068 H 0.43555 0.24474 0.32268 0.0
H2069 H 0.43333 0.26242 0.31436 0.0
H2070 H 0.40327 0.24281 0.23068 0.0
H2071 H 0.40519 0.22495 0.23905 0.0
C2072 C 0.42157 0.18481 0.16687 0.0
C2073 C 0.41049 0.18129 0.14736 0.0
C2074 C 0.42574 0.19318 0.20067 0.0
C2075 C 0.41889 0.19815 0.21515 0.0
C2076 C 0.4081 0.19496 0.19447 0.0
C2077 C 0.40396 0.18665 0.16113 0.0
C2078 C 0.42212 0.20592 0.25395 0.0
C2079 C 0.42207 0.21667 0.25025 0.0
C2080 C 0.42306 0.20186 0.29559 0.0
C2081 C 0.42291 0.1905 0.30189 0.0
C2082 C 0.41273 0.17963 0.2916 0.0
C2083 C 0.41271 0.16894 0.29729 0.0
C2084 C 0.42279 0.16902 0.31363 0.0
C2085 C 0.43289 0.17979 0.32446 0.0
C2086 C 0.43295 0.19051 0.31877 0.0
C2087 C 0.4002 0.22001 0.40632 0.0
C2088 C 0.40781 0.22756 0.43882 0.0
C2089 C 0.40481 0.21716 0.37039 0.0
C2090 C 0.41708 0.22165 0.36657 0.0
C2091 C 0.42475 0.22915 0.39889 0.0
C2092 C 0.42015 0.23222 0.43459 0.0
C2093 C 0.42153 0.21811 0.32863 0.0
C2094 C 0.4229 0.20811 0.33252 0.0
C2095 C 0.42166 0.22277 0.28714 0.0
C2096 C 0.42048 0.23349 0.28172 0.0
C2097 C 0.4284 0.24417 0.30281 0.0
C2098 C 0.42721 0.25423 0.29801 0.0
C2099 C 0.41816 0.25373 0.27206 0.0
C2100 C 0.41029 0.24318 0.25077 0.0
C2101 C 0.41143 0.23309 0.25548 0.0
H2102 H 0.41725 0.26153 0.26838 0.0
H2103 H 0.42276 0.16074 0.31801 0.0
H2104 H 0.80665 0.22977 0.13425 0.0
H2105 H 0.796 0.2213 0.20257 0.0
H2106 H 0.82946 0.23261 0.26722 0.0
H2107 H 0.83998 0.24071 0.19883 0.0
H2108 H 0.81521 0.20924 0.27223 0.0
H2109 H 0.81081 0.24368 0.29454 0.0
H2110 H 0.80477 0.25825 0.27402 0.0
H2111 H 0.76853 0.23016 0.26162 0.0
H2112 H 0.77438 0.2154 0.2815 0.0
H2113 H 0.79643 0.18763 0.48105 0.0
H2114 H 0.80527 0.20113 0.41982 0.0
H2115 H 0.77037 0.18932 0.36684 0.0
H2116 H 0.7614 0.17602 0.42909 0.0
H2117 H 0.78418 0.21263 0.3542 0.0
H2118 H 0.78774 0.17833 0.32817 0.0
H2119 H 0.79286 0.16285 0.34466 0.0
H2120 H 0.82961 0.18958 0.35817 0.0
H2121 H 0.82468 0.20524 0.34235 0.0
C2122 C 0.8117 0.23089 0.16359 0.0
C2123 C 0.82409 0.23595 0.16173 0.0
C2124 C 0.80563 0.22602 0.20255 0.0
C2125 C 0.81194 0.22628 0.24001 0.0
C2126 C 0.82441 0.23228 0.23873 0.0
C2127 C 0.83043 0.23698 0.19982 0.0
C2128 C 0.80567 0.21879 0.27824 0.0
C2129 C 0.80859 0.21016 0.29062 0.0
C2130 C 0.79658 0.21954 0.30082 0.0
C2131 C 0.79306 0.22843 0.28914 0.0
C2132 C 0.80157 0.2406 0.28711 0.0
C2133 C 0.79817 0.2489 0.27566 0.0
C2134 C 0.78628 0.24513 0.26642 0.0
C2135 C 0.77774 0.23307 0.26875 0.0
C2136 C 0.78109 0.22474 0.28016 0.0
C2137 C 0.79061 0.18791 0.45647 0.0
C2138 C 0.77821 0.18064 0.45968 0.0
C2139 C 0.79569 0.19564 0.42144 0.0
C2140 C 0.7885 0.19607 0.38825 0.0
C2141 C 0.77609 0.18911 0.39199 0.0
C2142 C 0.77098 0.18148 0.42749 0.0
C2143 C 0.79405 0.2034 0.34891 0.0
C2144 C 0.79088 0.21182 0.33596 0.0
C2145 C 0.80281 0.20237 0.32512 0.0
C2146 C 0.80582 0.19296 0.33445 0.0
C2147 C 0.7969 0.18091 0.33495 0.0
C2148 C 0.79977 0.17211 0.34414 0.0
C2149 C 0.81155 0.17523 0.35256 0.0
C2150 C 0.82049 0.18717 0.35169 0.0
C2151 C 0.81766 0.19602 0.34258 0.0
H2152 H 0.81376 0.1684 0.35966 0.0
H2153 H 0.78367 0.25157 0.25755 0.0
H2154 H 0.91173 0.48546 0.72939 0.0
H2155 H 0.9067 0.47129 0.78913 0.0
H2156 H 0.9385 0.46962 0.76405 0.0
H2157 H 0.94361 0.48374 0.70455 0.0
H2158 H 0.91843 0.44723 0.77761 0.0
H2159 H 0.93862 0.4863 0.84391 0.0
H2160 H 0.94147 0.50614 0.86032 0.0
H2161 H 0.9069 0.49005 0.91936 0.0
H2162 H 0.9038 0.4701 0.90261 0.0
H2163 H 0.94036 0.43489 0.96451 0.0
H2164 H 0.93519 0.44194 0.89939 0.0
H2165 H 0.9034 0.43724 0.96193 0.0
H2166 H 0.90855 0.42999 0.02771 0.0
H2167 H 0.91786 0.46008 0.92883 0.0
H2168 H 0.90005 0.42066 0.87585 0.0
H2169 H 0.89825 0.40119 0.86069 0.0
H2170 H 0.92886 0.4179 0.77767 0.0
H2171 H 0.93098 0.43751 0.79283 0.0
C2172 C 0.91762 0.48204 0.73642 0.0
C2173 C 0.92809 0.48577 0.71215 0.0
C2174 C 0.91474 0.47395 0.7706 0.0
C2175 C 0.92223 0.46941 0.78094 0.0
C2176 C 0.93256 0.47297 0.7564 0.0
C2177 C 0.9355 0.48111 0.72254 0.0
C2178 C 0.91962 0.46126 0.81826 0.0
C2179 C 0.91829 0.45001 0.81071 0.0
C2180 C 0.91905 0.46476 0.86127 0.0
C2181 C 0.92091 0.47673 0.87144 0.0
C2182 C 0.93159 0.487 0.85998 0.0
C2183 C 0.93326 0.49826 0.86943 0.0
C2184 C 0.92435 0.49936 0.89073 0.0
C2185 C 0.91378 0.48919 0.90275 0.0
C2186 C 0.91206 0.4779 0.89328 0.0
C2187 C 0.9321 0.43506 0.96401 0.0
C2188 C 0.92485 0.43191 0.00103 0.0
C2189 C 0.92913 0.43905 0.92673 0.0
C2190 C 0.91889 0.44007 0.92572 0.0
C2191 C 0.91132 0.43645 0.96203 0.0
C2192 C 0.91421 0.43225 -0.00063 0.0
C2193 C 0.91703 0.44615 0.88834 0.0
C2194 C 0.9176 0.45709 0.89575 0.0
C2195 C 0.91695 0.44237 0.84521 0.0
C2196 C 0.91569 0.43058 0.83562 0.0
C2197 C 0.90645 0.4202 0.85456 0.0
C2198 C 0.90536 0.40914 0.84594 0.0
C2199 C 0.91344 0.40831 0.81825 0.0
C2200 C 0.92261 0.41855 0.79908 0.0
C2201 C 0.92374 0.42965 0.80761 0.0
H2202 H 0.91259 0.39974 0.81163 0.0
H2203 H 0.92566 0.50808 0.89806 0.0
H2204 H 0.57148 0.50296 0.99213 0.0
H2205 H 0.56364 0.49195 0.92455 0.0
H2206 H 0.55858 0.46001 0.98682 0.0
H2207 H 0.56672 0.47117 0.05474 0.0
H2208 H 0.56414 0.46225 0.89106 0.0
H2209 H 0.53676 0.46311 0.99439 0.0
H2210 H 0.53014 0.47303 0.04642 0.0
H2211 H 0.52955 0.49529 0.94456 0.0
H2212 H 0.5364 0.48565 0.89206 0.0
H2213 H 0.51488 0.42576 0.74803 0.0
H2214 H 0.52803 0.4342 0.81085 0.0
H2215 H 0.53216 0.46858 0.78236 0.0
H2216 H 0.51898 0.46026 0.72012 0.0
H2217 H 0.52668 0.46281 0.86561 0.0
H2218 H 0.55437 0.46215 0.76236 0.0
H2219 H 0.56159 0.45268 0.71069 0.0
H2220 H 0.56145 0.42985 0.81175 0.0
H2221 H 0.55408 0.43909 0.86392 0.0
C2222 C 0.5692 0.49372 0.99079 0.0
C2223 C 0.56968 0.48787 0.02833 0.0
C2224 C 0.56471 0.48744 0.95228 0.0
C2225 C 0.56037 0.47515 0.95099 0.0
C2226 C 0.56193 0.4695 0.98723 0.0
C2227 C 0.56658 0.47587 0.0259 0.0
C2228 C 0.55237 0.46812 0.91504 0.0
C2229 C 0.55585 0.46218 0.88571 0.0
C2230 C 0.5416 0.46811 0.90814 0.0
C2231 C 0.53719 0.47373 0.93938 0.0
C2232 C 0.5353 0.47018 0.98315 0.0
C2233 C 0.5315 0.47575 0.01272 0.0
C2234 C 0.52945 0.4848 0.99882 0.0
C2235 C 0.53116 0.48828 0.95528 0.0
C2236 C 0.53499 0.48276 0.9256 0.0
C2237 C 0.51864 0.43513 0.75496 0.0
C2238 C 0.5158 0.44231 0.72904 0.0
C2239 C 0.5262 0.43995 0.79078 0.0
C2240 C 0.53112 0.45204 0.80116 0.0
C2241 C 0.52844 0.45923 0.77499 0.0
C2242 C 0.52089 0.45444 0.73935 0.0
C2243 C 0.53856 0.45718 0.84049 0.0
C2244 C 0.5349 0.46274 0.87087 0.0
C2245 C 0.54909 0.45675 0.84823 0.0
C2246 C 0.55354 0.45121 0.81691 0.0
C2247 C 0.55578 0.45504 0.77348 0.0
C2248 C 0.55992 0.44973 0.74412 0.0
C2249 C 0.56194 0.44064 0.75789 0.0
C2250 C 0.55986 0.43687 0.8011 0.0
C2251 C 0.55571 0.44215 0.83058 0.0
H2252 H 0.56515 0.43654 0.73512 0.0
H2253 H 0.52651 0.48911 0.02177 0.0
H2254 H 0.57545 0.09177 0.73957 0.0
H2255 H 0.56793 0.09901 0.79823 0.0
H2256 H 0.53302 0.06833 0.78261 0.0
H2257 H 0.54034 0.06108 0.72435 0.0
H2258 H 0.53229 0.08908 0.78991 0.0
H2259 H 0.55155 0.06946 0.86201 0.0
H2260 H 0.56882 0.06718 0.8799 0.0
H2261 H 0.58747 0.10289 0.92905 0.0
H2262 H 0.57035 0.10542 0.91094 0.0
H2263 H 0.4982 0.06567 0.97289 0.0
H2264 H 0.51063 0.07229 0.90829 0.0
H2265 H 0.5366 0.10367 0.97624 0.0
H2266 H 0.52397 0.09703 0.04157 0.0
H2267 H 0.54609 0.09076 0.9412 0.0
H2268 H 0.52385 0.10759 0.8884 0.0
H2269 H 0.50607 0.10916 0.87294 0.0
H2270 H 0.49275 0.07885 0.78858 0.0
H2271 H 0.51035 0.07697 0.804 0.0
C2272 C 0.56617 0.08657 0.74862 0.0
C2273 C 0.55851 0.07581 0.72724 0.0
C2274 C 0.5619 0.09073 0.78211 0.0
C2275 C 0.54992 0.08422 0.79463 0.0
C2276 C 0.54228 0.07355 0.7732 0.0
C2277 C 0.54652 0.06937 0.74004 0.0
C2278 C 0.54517 0.08809 0.83097 0.0
C2279 C 0.53533 0.08953 0.82302 0.0
C2280 C 0.54949 0.08921 0.87386 0.0
C2281 C 0.55976 0.08769 0.88455 0.0
C2282 C 0.55938 0.07686 0.87625 0.0
C2283 C 0.56913 0.07551 0.88651 0.0
C2284 C 0.57925 0.0849 0.90544 0.0
C2285 C 0.57964 0.09564 0.91427 0.0
C2286 C 0.56992 0.09704 0.90401 0.0
C2287 C 0.5064 0.07415 0.9737 0.0
C2288 C 0.51016 0.08084 0.01209 0.0
C2289 C 0.51348 0.07797 0.9367 0.0
C2290 C 0.52452 0.08851 0.93734 0.0
C2291 C 0.52807 0.09555 0.97504 0.0
C2292 C 0.52084 0.09179 0.01214 0.0
C2293 C 0.53276 0.09105 0.9004 0.0
C2294 C 0.54329 0.09082 0.90805 0.0
C2295 C 0.52907 0.09104 0.85721 0.0
C2296 C 0.51846 0.09214 0.84741 0.0
C2297 C 0.5171 0.10122 0.86671 0.0
C2298 C 0.50705 0.10217 0.85794 0.0
C2299 C 0.49829 0.09411 0.82979 0.0
C2300 C 0.49956 0.0851 0.81032 0.0
C2301 C 0.5096 0.08411 0.81899 0.0
H2302 H 0.49051 0.09486 0.82306 0.0
H2303 H 0.58679 0.08384 0.91339 0.0
H2304 H 0.5111 0.08379 0.25481 0.0
H2305 H 0.52524 0.08944 0.3146 0.0
H2306 H 0.54352 0.07417 0.24671 0.0
H2307 H 0.52889 0.06782 0.18821 0.0
H2308 H 0.54107 0.06724 0.32273 0.0
H2309 H 0.55548 0.10587 0.26405 0.0
H2310 H 0.55466 0.12318 0.23548 0.0
H2311 H 0.54147 0.12744 0.35798 0.0
H2312 H 0.54205 0.11006 0.38714 0.0
H2313 H 0.58334 0.08491 0.48936 0.0
H2314 H 0.57752 0.08932 0.41892 0.0
H2315 H 0.54688 0.08806 0.47857 0.0
H2316 H 0.55244 0.08326 0.54845 0.0
H2317 H 0.55911 0.10566 0.40184 0.0
H2318 H 0.54077 0.0637 0.44971 0.0
H2319 H 0.54276 0.04703 0.47814 0.0
H2320 H 0.56541 0.05042 0.37099 0.0
H2321 H 0.56368 0.06726 0.34238 0.0
C2322 C 0.51821 0.08175 0.25255 0.0
C2323 C 0.51889 0.07532 0.21706 0.0
C2324 C 0.52638 0.08509 0.28656 0.0
C2325 C 0.53563 0.08244 0.28505 0.0
C2326 C 0.53649 0.07632 0.24882 0.0
C2327 C 0.52812 0.07269 0.2154 0.0
C2328 C 0.54371 0.08504 0.32286 0.0
C2329 C 0.54523 0.07578 0.33908 0.0
C2330 C 0.54909 0.09611 0.34503 0.0
C2331 C 0.54874 0.1066 0.32769 0.0
C2332 C 0.55233 0.11045 0.28482 0.0
C2333 C 0.55192 0.12028 0.26853 0.0
C2334 C 0.548 0.12639 0.29487 0.0
C2335 C 0.5445 0.12269 0.3376 0.0
C2336 C 0.54489 0.11286 0.35405 0.0
C2337 C 0.57566 0.08609 0.48762 0.0
C2338 C 0.5683 0.08377 0.52391 0.0
C2339 C 0.57235 0.0886 0.44753 0.0
C2340 C 0.56178 0.08899 0.44375 0.0
C2341 C 0.55512 0.08791 0.48103 0.0
C2342 C 0.55827 0.08513 0.52079 0.0
C2343 C 0.55629 0.08789 0.4008 0.0
C2344 C 0.55516 0.09732 0.38421 0.0
C2345 C 0.55141 0.07707 0.37767 0.0
C2346 C 0.5522 0.06679 0.39422 0.0
C2347 C 0.54623 0.06093 0.43242 0.0
C2348 C 0.54731 0.05145 0.44853 0.0
C2349 C 0.55423 0.04768 0.42644 0.0
C2350 C 0.56006 0.05336 0.3881 0.0
C2351 C 0.55904 0.06287 0.37193 0.0
H2352 H 0.55506 0.04035 0.43897 0.0
H2353 H 0.54768 0.134 0.28219 0.0
H2354 H 0.9123 0.42805 0.22118 0.0
H2355 H 0.90704 0.43614 0.28373 0.0
H2356 H 0.94129 0.46812 0.2769 0.0
H2357 H 0.94668 0.46012 0.21509 0.0
H2358 H 0.93631 0.45946 0.35788 0.0
H2359 H 0.91552 0.46703 0.24187 0.0
H2360 H 0.90099 0.46108 0.18221 0.0
H2361 H 0.8728 0.43872 0.26952 0.0
H2362 H 0.88721 0.44442 0.3296 0.0
H2363 H 0.93728 0.50531 0.46496 0.0
H2364 H 0.9335 0.49259 0.40192 0.0
H2365 H 0.90287 0.4642 0.46552 0.0
H2366 H 0.90659 0.47708 0.52927 0.0
H2367 H 0.90251 0.46709 0.36354 0.0
H2368 H 0.92319 0.4608 0.48107 0.0
H2369 H 0.9378 0.46757 0.54068 0.0
H2370 H 0.96607 0.4874 0.45016 0.0
H2371 H 0.95159 0.48092 0.3901 0.0
C2372 C 0.91869 0.43684 0.23282 0.0
C2373 C 0.92994 0.44342 0.21305 0.0
C2374 C 0.91564 0.44146 0.26851 0.0
C2375 C 0.92376 0.45275 0.28491 0.0
C2376 C 0.9349 0.45936 0.26488 0.0
C2377 C 0.93796 0.45478 0.2294 0.0
C2378 C 0.921 0.45765 0.32387 0.0
C2379 C 0.9289 0.46109 0.35901 0.0
C2380 C 0.91109 0.45942 0.32615 0.0
C2381 C 0.90246 0.45603 0.29007 0.0
C2382 C 0.90624 0.46076 0.24825 0.0
C2383 C 0.89802 0.45745 0.21438 0.0
C2384 C 0.88598 0.4495 0.22203 0.0
C2385 C 0.88213 0.44486 0.26361 0.0
C2386 C 0.89032 0.44813 0.29758 0.0
C2387 C 0.9295 0.4965 0.465 0.0
C2388 C 0.92229 0.49211 0.50206 0.0
C2389 C 0.92734 0.48925 0.42895 0.0
C2390 C 0.91801 0.47744 0.4294 0.0
C2391 C 0.91009 0.47333 0.46465 0.0
C2392 C 0.91222 0.48067 0.50093 0.0
C2393 C 0.91805 0.46918 0.39643 0.0
C2394 C 0.90971 0.46514 0.36265 0.0
C2395 C 0.92751 0.46675 0.3953 0.0
C2396 C 0.93629 0.47044 0.43115 0.0
C2397 C 0.93251 0.46667 0.47392 0.0
C2398 C 0.94077 0.47045 0.50779 0.0
C2399 C 0.95285 0.47792 0.49922 0.0
C2400 C 0.95671 0.48161 0.45674 0.0
C2401 C 0.94848 0.47788 0.42277 0.0
H2402 H 0.95923 0.48084 0.52549 0.0
H2403 H 0.87963 0.44694 0.19577 0.0
H2404 H 0.52532 0.42632 0.55854 0.0
H2405 H 0.53869 0.43231 0.49532 0.0
H2406 H 0.51135 0.43238 0.41602 0.0
H2407 H 0.49817 0.42658 0.47872 0.0
H2408 H 0.52509 0.42525 0.36978 0.0
H2409 H 0.53025 0.45696 0.4711 0.0
H2410 H 0.53505 0.46643 0.54334 0.0
H2411 H 0.56904 0.4684 0.54008 0.0
H2412 H 0.56435 0.45879 0.46798 0.0
H2413 H 0.53999 0.47189 0.22839 0.0
H2414 H 0.53348 0.45735 0.28676 0.0
H2415 H 0.56996 0.46845 0.31744 0.0
H2416 H 0.57663 0.48314 0.25862 0.0
H2417 H 0.55691 0.46722 0.38951 0.0
H2418 H 0.5535 0.44153 0.27563 0.0
H2419 H 0.54841 0.43246 0.20286 0.0
H2420 H 0.51136 0.41905 0.22841 0.0
H2421 H 0.51622 0.4282 0.30109 0.0
C2422 C 0.52207 0.42718 0.52716 0.0
C2423 C 0.51079 0.42607 0.52326 0.0
C2424 C 0.52971 0.43065 0.4912 0.0
C2425 C 0.52604 0.43291 0.45112 0.0
C2426 C 0.51436 0.43067 0.44655 0.0
C2427 C 0.50684 0.42739 0.48239 0.0
C2428 C 0.53461 0.43936 0.41573 0.0
C2429 C 0.53215 0.43438 0.374 0.0
C2430 C 0.54405 0.45116 0.42154 0.0
C2431 C 0.5469 0.45704 0.46453 0.0
C2432 C 0.53872 0.45935 0.48594 0.0
C2433 C 0.54141 0.46475 0.52682 0.0
C2434 C 0.55233 0.46798 0.54635 0.0
C2435 C 0.56058 0.46586 0.52496 0.0
C2436 C 0.55791 0.46044 0.48411 0.0
C2437 C 0.54667 0.47124 0.24729 0.0
C2438 C 0.55884 0.47872 0.23882 0.0
C2439 C 0.54292 0.46283 0.28046 0.0
C2440 C 0.55123 0.46169 0.30604 0.0
C2441 C 0.5634 0.46912 0.29781 0.0
C2442 C 0.56718 0.4775 0.2642 0.0
C2443 C 0.547 0.45329 0.34314 0.0
C2444 C 0.55024 0.45793 0.3852 0.0
C2445 C 0.53828 0.44118 0.33755 0.0
C2446 C 0.53525 0.43559 0.29387 0.0
C2447 C 0.54427 0.43672 0.26566 0.0
C2448 C 0.54142 0.43155 0.22441 0.0
C2449 C 0.52957 0.42519 0.21101 0.0
C2450 C 0.52054 0.42397 0.23885 0.0
C2451 C 0.52334 0.42913 0.28013 0.0
H2452 H 0.52738 0.4212 0.17906 0.0
H2453 H 0.5544 0.47215 0.57801 0.0
H2454 H 0.39084 0.22316 0.68662 0.0
H2455 H 0.39615 0.2164 0.75192 0.0
H2456 H 0.43146 0.22901 0.70157 0.0
H2457 H 0.42614 0.236 0.63532 0.0
H2458 H 0.4196 0.20491 0.73089 0.0
H2459 H 0.42991 0.24261 0.78716 0.0
H2460 H 0.42798 0.26028 0.8006 0.0
H2461 H 0.39559 0.23889 0.87097 0.0
H2462 H 0.39721 0.22105 0.85741 0.0
H2463 H 0.42072 0.17869 0.93852 0.0
H2464 H 0.42686 0.1929 0.87835 0.0
H2465 H 0.39269 0.19083 0.88128 0.0
H2466 H 0.38648 0.17673 0.9411 0.0
H2467 H 0.4114 0.21397 0.87907 0.0
H2468 H 0.39899 0.17618 0.80543 0.0
H2469 H 0.40028 0.15825 0.78939 0.0
H2470 H 0.43673 0.18009 0.75085 0.0
H2471 H 0.43569 0.19815 0.76721 0.0
C2472 C 0.3998 0.22467 0.68961 0.0
C2473 C 0.40807 0.23006 0.65592 0.0
C2474 C 0.40284 0.22085 0.72707 0.0
C2475 C 0.41422 0.22227 0.7317 0.0
C2476 C 0.42266 0.22791 0.6986 0.0
C2477 C 0.41964 0.23193 0.66103 0.0
C2478 C 0.4166 0.21691 0.77001 0.0
C2479 C 0.41821 0.20712 0.76353 0.0
C2480 C 0.41468 0.21975 0.81244 0.0
C2481 C 0.41369 0.23047 0.82121 0.0
C2482 C 0.42234 0.24166 0.80533 0.0
C2483 C 0.42131 0.25171 0.81299 0.0
C2484 C 0.41167 0.25071 0.83663 0.0
C2485 C 0.40306 0.23965 0.85272 0.0
C2486 C 0.40405 0.22957 0.84514 0.0
C2487 C 0.41448 0.18121 0.92623 0.0
C2488 C 0.40309 0.17656 0.94478 0.0
C2489 C 0.41802 0.18934 0.89186 0.0
C2490 C 0.41024 0.19295 0.87555 0.0
C2491 C 0.39886 0.18823 0.89366 0.0
C2492 C 0.3953 0.1801 0.92774 0.0
C2493 C 0.41376 0.20163 0.83956 0.0
C2494 C 0.41325 0.21203 0.84668 0.0
C2495 C 0.4167 0.19935 0.79781 0.0
C2496 C 0.41731 0.1885 0.78813 0.0
C2497 C 0.40731 0.17715 0.79394 0.0
C2498 C 0.40799 0.16697 0.78471 0.0
C2499 C 0.41859 0.16803 0.76928 0.0
C2500 C 0.42853 0.17928 0.76293 0.0
C2501 C 0.4279 0.18949 0.77216 0.0
H2502 H 0.4191 0.16014 0.76212 0.0
H2503 H 0.41088 0.2585 0.8425 0.0
H2504 H 0.76395 0.16335 0.70915 0.0
H2505 H 0.76952 0.17628 0.77245 0.0
H2506 H 0.76903 0.20368 0.69485 0.0
H2507 H 0.7632 0.19053 0.63096 0.0
H2508 H 0.79045 0.21115 0.73599 0.0
H2509 H 0.75054 0.19346 0.77864 0.0
H2510 H 0.72992 0.17752 0.79157 0.0
H2511 H 0.74204 0.16208 0.88767 0.0
H2512 H 0.76276 0.17781 0.87488 0.0
H2513 H 0.81736 0.24173 0.93527 0.0
H2514 H 0.80284 0.2343 0.87599 0.0
H2515 H 0.79518 0.19855 0.90248 0.0
H2516 H 0.80961 0.20583 0.96152 0.0
H2517 H 0.77475 0.1999 0.88578 0.0
H2518 H 0.81451 0.21449 0.82481 0.0
H2519 H 0.83521 0.23004 0.80998 0.0
H2520 H 0.82282 0.2513 0.74685 0.0
H2521 H 0.80203 0.23591 0.76186 0.0
C2522 C 0.76467 0.172 0.70591 0.0
C2523 C 0.76318 0.17598 0.66538 0.0
C2524 C 0.7678 0.17936 0.74212 0.0
C2525 C 0.76963 0.19093 0.73845 0.0
C2526 C 0.76756 0.19475 0.69839 0.0
C2527 C 0.76419 0.18724 0.66208 0.0
C2528 C 0.77535 0.19929 0.77505 0.0
C2529 C 0.78685 0.20896 0.76863 0.0
C2530 C 0.7707 0.19636 0.81763 0.0
C2531 C 0.75824 0.18684 0.82571 0.0
C2532 C 0.74883 0.18663 0.80235 0.0
C2533 C 0.73712 0.17763 0.80968 0.0
C2534 C 0.73467 0.16879 0.84042 0.0
C2535 C 0.74394 0.16894 0.86392 0.0
C2536 C 0.75568 0.17792 0.8567 0.0
C2537 C 0.81251 0.23227 0.92874 0.0
C2538 C 0.81472 0.22438 0.95298 0.0
C2539 C 0.80422 0.22805 0.89486 0.0
C2540 C 0.79796 0.21588 0.88484 0.0
C2541 C 0.79988 0.20797 0.90983 0.0
C2542 C 0.8082 0.21217 0.94338 0.0
C2543 C 0.78998 0.21131 0.84665 0.0
C2544 C 0.77812 0.20238 0.85297 0.0
C2545 C 0.79427 0.21492 0.80393 0.0
C2546 C 0.80675 0.22415 0.795 0.0
C2547 C 0.81621 0.22253 0.80813 0.0
C2548 C 0.82795 0.2313 0.79963 0.0
C2549 C 0.83033 0.24167 0.77764 0.0
C2550 C 0.82096 0.24328 0.764 0.0
C2551 C 0.8092 0.23454 0.7725 0.0
H2552 H 0.83942 0.24845 0.77106 0.0
H2553 H 0.7256 0.16183 0.84605 0.0
H2554 H 0.75923 0.57514 0.94075 0.0
H2555 H 0.76548 0.56858 0.8762 0.0
H2556 H 0.78913 0.60517 0.84086 0.0
H2557 H 0.78304 0.61177 0.90496 0.0
H2558 H 0.7763 0.59093 0.77051 0.0
H2559 H 0.79957 0.59018 0.89497 0.0
H2560 H 0.80148 0.58289 0.96676 0.0
H2561 H 0.78397 0.54707 0.91844 0.0
H2562 H 0.78183 0.55417 0.84648 0.0
H2563 H 0.83035 0.60817 0.68386 0.0
H2564 H 0.81531 0.60157 0.74027 0.0
H2565 H 0.79711 0.56642 0.68455 0.0
H2566 H 0.81226 0.57305 0.62679 0.0
H2567 H 0.80119 0.57225 0.79243 0.0
H2568 H 0.78203 0.57431 0.6617 0.0
H2569 H 0.78164 0.58279 0.59051 0.0
H2570 H 0.7917 0.61633 0.65071 0.0
H2571 H 0.79235 0.60811 0.72217 0.0
C2572 C 0.76567 0.58178 0.91894 0.0
C2573 C 0.77071 0.59398 0.92811 0.0
C2574 C 0.76923 0.57801 0.88218 0.0
C2575 C 0.77778 0.58639 0.8539 0.0
C2576 C 0.78248 0.59855 0.86224 0.0
C2577 C 0.77905 0.60231 0.89905 0.0
C2578 C 0.78246 0.58278 0.81668 0.0
C2579 C 0.78155 0.58663 0.77511 0.0
C2580 C 0.78906 0.57689 0.82251 0.0
C2581 C 0.7904 0.57268 0.86562 0.0
C2582 C 0.79604 0.58074 0.8998 0.0
C2583 C 0.79718 0.57665 0.94047 0.0
C2584 C 0.79281 0.56452 0.9472 0.0
C2585 C 0.78732 0.55646 0.91322 0.0
C2586 C 0.78614 0.56051 0.87249 0.0
C2587 C 0.82327 0.59897 0.68374 0.0
C2588 C 0.8224 0.59118 0.65044 0.0
C2589 C 0.81471 0.59521 0.71615 0.0
C2590 C 0.80509 0.58358 0.71617 0.0
C2591 C 0.80452 0.57546 0.68487 0.0
C2592 C 0.81316 0.57924 0.65205 0.0
C2593 C 0.79527 0.58072 0.74673 0.0
C2594 C 0.79536 0.57588 0.78727 0.0
C2595 C 0.78784 0.58563 0.73999 0.0
C2596 C 0.78729 0.5906 0.69724 0.0
C2597 C 0.78424 0.58352 0.6597 0.0
C2598 C 0.78396 0.58827 0.61931 0.0
C2599 C 0.78665 0.60009 0.61608 0.0
C2600 C 0.78961 0.60718 0.65326 0.0
C2601 C 0.78992 0.60246 0.69373 0.0
H2602 H 0.78644 0.60376 0.58478 0.0
H2603 H 0.7937 0.56136 0.97871 0.0
H2604 H 0.43237 0.90451 0.4444 0.0
H2605 H 0.44049 0.89812 0.50404 0.0
H2606 H 0.43679 0.92212 0.5909 0.0
H2607 H 0.42903 0.92869 0.5314 0.0
H2608 H 0.46172 0.91509 0.54202 0.0
H2609 H 0.43276 0.91125 0.69323 0.0
H2610 H 0.41152 0.90228 0.71154 0.0
H2611 H 0.40241 0.87733 0.60706 0.0
H2612 H 0.42361 0.88602 0.5885 0.0
H2613 H 0.49284 0.9425 0.73168 0.0
H2614 H 0.47918 0.9349 0.67016 0.0
H2615 H 0.46599 0.89899 0.71485 0.0
H2616 H 0.47977 0.90652 0.77649 0.0
H2617 H 0.44793 0.90449 0.69419 0.0
H2618 H 0.48173 0.90599 0.62888 0.0
H2619 H 0.50292 0.91469 0.61003 0.0
H2620 H 0.50196 0.94293 0.54114 0.0
H2621 H 0.48082 0.93451 0.56014 0.0
C2622 C 0.43287 0.90802 0.4767 0.0
C2623 C 0.43007 0.91703 0.48366 0.0
C2624 C 0.43755 0.90443 0.51058 0.0
C2625 C 0.43921 0.90962 0.55187 0.0
C2626 C 0.43545 0.91789 0.55948 0.0
C2627 C 0.43103 0.92164 0.52554 0.0
C2628 C 0.44663 0.90817 0.585 0.0
C2629 C 0.45867 0.91255 0.57515 0.0
C2630 C 0.44259 0.90468 0.62801 0.0
C2631 C 0.42981 0.89933 0.63937 0.0
C2632 C 0.42625 0.9038 0.67433 0.0
C2633 C 0.4142 0.89878 0.68471 0.0
C2634 C 0.40562 0.88926 0.66045 0.0
C2635 C 0.40907 0.88473 0.62577 0.0
C2636 C 0.4211 0.88971 0.61526 0.0
C2637 C 0.48708 0.93298 0.72839 0.0
C2638 C 0.48738 0.92512 0.75902 0.0
C2639 C 0.47932 0.92865 0.6931 0.0
C2640 C 0.47164 0.91638 0.6879 0.0
C2641 C 0.47189 0.90848 0.7183 0.0
C2642 C 0.47979 0.91281 0.75335 0.0
C2643 C 0.46307 0.91202 0.65144 0.0
C2644 C 0.45089 0.90664 0.66081 0.0
C2645 C 0.46696 0.91454 0.60788 0.0
C2646 C 0.47968 0.91963 0.59612 0.0
C2647 C 0.48605 0.9141 0.60997 0.0
C2648 C 0.49806 0.91898 0.59921 0.0
C2649 C 0.50379 0.92936 0.57444 0.0
C2650 C 0.49751 0.93488 0.56031 0.0
C2651 C 0.48551 0.93005 0.57101 0.0
H2652 H 0.51308 0.93312 0.56615 0.0
H2653 H 0.3963 0.88539 0.66853 0.0
H2654 H 0.0604 0.53813 0.78612 0.0
H2655 H 0.06784 0.53109 0.72728 0.0
H2656 H 0.09559 0.56704 0.70128 0.0
H2657 H 0.08818 0.57423 0.76026 0.0
H2658 H 0.08436 0.55531 0.62727 0.0
H2659 H 0.10329 0.54849 0.74511 0.0
H2660 H 0.10529 0.54198 0.81817 0.0
H2661 H 0.0801 0.50581 0.78513 0.0
H2662 H 0.07778 0.51213 0.71206 0.0
H2663 H 0.09628 0.5248 0.45966 0.0
H2664 H 0.102 0.53718 0.52559 0.0
H2665 H 0.0716 0.50941 0.59262 0.0
H2666 H 0.06586 0.49721 0.52726 0.0
H2667 H 0.09136 0.52136 0.64664 0.0
H2668 H 0.06892 0.53016 0.53796 0.0
H2669 H 0.0667 0.5367 0.46512 0.0
H2670 H 0.09937 0.56967 0.48215 0.0
H2671 H 0.10185 0.56323 0.55494 0.0
C2672 C 0.06811 0.54457 0.76809 0.0
C2673 C 0.07368 0.55675 0.77802 0.0
C2674 C 0.07241 0.54051 0.73462 0.0
C2675 C 0.08238 0.54852 0.71032 0.0
C2676 C 0.08794 0.5607 0.71986 0.0
C2677 C 0.08369 0.56478 0.75362 0.0
C2678 C 0.08646 0.54407 0.67362 0.0
C2679 C 0.08624 0.54812 0.63161 0.0
C2680 C 0.08894 0.53471 0.67923 0.0
C2681 C 0.09033 0.53081 0.72308 0.0
C2682 C 0.09811 0.53916 0.75349 0.0
C2683 C 0.09931 0.5355 0.79491 0.0
C2684 C 0.09282 0.52349 0.80631 0.0
C2685 C 0.08512 0.51511 0.77625 0.0
C2686 C 0.08388 0.51873 0.73478 0.0
C2687 C 0.09109 0.52124 0.489 0.0
C2688 C 0.08061 0.51012 0.48856 0.0
C2689 C 0.09432 0.52831 0.52647 0.0
C2690 C 0.08715 0.52424 0.56382 0.0
C2691 C 0.07727 0.51272 0.56424 0.0
C2692 C 0.07397 0.50578 0.52686 0.0
C2693 C 0.0887 0.53226 0.60052 0.0
C2694 C 0.08994 0.52886 0.64253 0.0
C2695 C 0.08722 0.54226 0.59497 0.0
C2696 C 0.08564 0.54617 0.55155 0.0
C2697 C 0.07566 0.53877 0.52602 0.0
C2698 C 0.07436 0.54246 0.48479 0.0
C2699 C 0.08291 0.55358 0.46895 0.0
C2700 C 0.09277 0.56105 0.49441 0.0
C2701 C 0.09413 0.55738 0.53564 0.0
H2702 H 0.08189 0.55642 0.43701 0.0
H2703 H 0.09375 0.52067 0.8384 0.0
H2704 H 0.42781 0.52107 0.77004 0.0
H2705 H 0.436 0.53475 0.70857 0.0
H2706 H 0.46458 0.52702 0.69824 0.0
H2707 H 0.45668 0.51365 0.76025 0.0
H2708 H 0.473 0.54983 0.68582 0.0
H2709 H 0.43919 0.51333 0.63307 0.0
H2710 H 0.4181 0.49759 0.63101 0.0
H2711 H 0.40788 0.52366 0.6037 0.0
H2712 H 0.42892 0.53957 0.60612 0.0
H2713 H 0.47482 0.54419 0.44529 0.0
H2714 H 0.46363 0.5382 0.51252 0.0
H2715 H 0.47986 0.57492 0.55222 0.0
H2716 H 0.49137 0.58104 0.48419 0.0
H2717 H 0.44793 0.54164 0.55465 0.0
H2718 H 0.48532 0.57507 0.66253 0.0
H2719 H 0.50705 0.58864 0.66095 0.0
H2720 H 0.51096 0.56526 0.57253 0.0
H2721 H 0.48928 0.55151 0.57402 0.0
C2722 C 0.43587 0.52232 0.75477 0.0
C2723 C 0.44155 0.51621 0.76993 0.0
C2724 C 0.44053 0.53015 0.71964 0.0
C2725 C 0.45086 0.53185 0.69855 0.0
C2726 C 0.45665 0.52592 0.71413 0.0
C2727 C 0.45207 0.51821 0.74949 0.0
C2728 C 0.45541 0.53933 0.65897 0.0
C2729 C 0.46746 0.54815 0.65734 0.0
C2730 C 0.44822 0.53719 0.62175 0.0
C2731 C 0.43559 0.52764 0.62036 0.0
C2732 C 0.43243 0.5157 0.62698 0.0
C2733 C 0.42049 0.50676 0.62568 0.0
C2734 C 0.41165 0.50963 0.61739 0.0
C2735 C 0.41473 0.52145 0.61024 0.0
C2736 C 0.42666 0.53044 0.61156 0.0
C2737 C 0.47592 0.55104 0.468 0.0
C2738 C 0.48413 0.56307 0.45989 0.0
C2739 C 0.46942 0.5476 0.50632 0.0
C2740 C 0.47098 0.55608 0.53766 0.0
C2741 C 0.47859 0.56822 0.52857 0.0
C2742 C 0.48513 0.57171 0.48974 0.0
C2743 C 0.46558 0.55182 0.58109 0.0
C2744 C 0.45335 0.54362 0.5836 0.0
C2745 C 0.47268 0.55426 0.61874 0.0
C2746 C 0.4857 0.56237 0.61796 0.0
C2747 C 0.49084 0.57284 0.64282 0.0
C2748 C 0.50314 0.58055 0.64195 0.0
C2749 C 0.51038 0.57784 0.61652 0.0
C2750 C 0.50534 0.56737 0.59208 0.0
C2751 C 0.49306 0.55962 0.59291 0.0
H2752 H 0.51989 0.58383 0.61584 0.0
H2753 H 0.40241 0.50269 0.61638 0.0
H2754 H 0.57882 0.8183 0.06975 0.0
H2755 H 0.57287 0.80416 0.13 0.0
H2756 H 0.60211 0.7984 0.10165 0.0
H2757 H 0.60816 0.8125 0.04163 0.0
H2758 H 0.5808 0.77728 0.11802 0.0
H2759 H 0.60489 0.81652 0.18073 0.0
H2760 H 0.60998 0.83716 0.19654 0.0
H2761 H 0.57631 0.82449 0.25977 0.0
H2762 H 0.57094 0.80377 0.24378 0.0
H2763 H 0.60201 0.76354 0.30418 0.0
H2764 H 0.5969 0.77036 0.23823 0.0
H2765 H 0.56735 0.76982 0.30438 0.0
H2766 H 0.57241 0.76275 0.37081 0.0
H2767 H 0.58316 0.79176 0.26872 0.0
H2768 H 0.56131 0.75209 0.21929 0.0
H2769 H 0.557 0.73165 0.20481 0.0
H2770 H 0.58671 0.74495 0.11762 0.0
H2771 H 0.59134 0.76549 0.13205 0.0
C2772 C 0.58396 0.81399 0.07617 0.0
C2773 C 0.594 0.81657 0.05085 0.0
C2774 C 0.58054 0.80591 0.11063 0.0
C2775 C 0.58705 0.80024 0.12022 0.0
C2776 C 0.59693 0.80264 0.09459 0.0
C2777 C 0.60041 0.81077 0.06044 0.0
C2778 C 0.58397 0.79217 0.15803 0.0
C2779 C 0.5813 0.78041 0.15102 0.0
C2780 C 0.58423 0.79617 0.20093 0.0
C2781 C 0.58745 0.80862 0.21054 0.0
C2782 C 0.59852 0.81815 0.19763 0.0
C2783 C 0.60147 0.82985 0.2067 0.0
C2784 C 0.59346 0.83213 0.22899 0.0
C2785 C 0.58249 0.82271 0.24239 0.0
C2786 C 0.57949 0.81098 0.23335 0.0
C2787 C 0.59418 0.76447 0.30417 0.0
C2788 C 0.58756 0.76259 0.3423 0.0
C2789 C 0.59125 0.76835 0.26649 0.0
C2790 C 0.58172 0.77057 0.26633 0.0
C2791 C 0.57469 0.76809 0.3038 0.0
C2792 C 0.57752 0.76398 0.34153 0.0
C2793 C 0.58035 0.77694 0.22886 0.0
C2794 C 0.58225 0.78845 0.2358 0.0
C2795 C 0.57943 0.77271 0.18591 0.0
C2796 C 0.57669 0.76036 0.17691 0.0
C2797 C 0.56698 0.75067 0.19725 0.0
C2798 C 0.56447 0.73906 0.18901 0.0
C2799 C 0.57158 0.737 0.16034 0.0
C2800 C 0.58121 0.74655 0.1398 0.0
C2801 C 0.58376 0.75819 0.14793 0.0
H2802 H 0.56962 0.728 0.15401 0.0
H2803 H 0.59575 0.8412 0.23601 0.0
H2804 H 0.2494 0.82603 0.33583 0.0
H2805 H 0.24398 0.81476 0.26753 0.0
H2806 H 0.20981 0.78969 0.32137 0.0
H2807 H 0.21505 0.80107 0.38893 0.0
H2808 H 0.22025 0.77995 0.25638 0.0
H2809 H 0.20995 0.81143 0.28053 0.0
H2810 H 0.21583 0.8321 0.29962 0.0
H2811 H 0.24145 0.84496 0.19627 0.0
H2812 H 0.23583 0.82433 0.17708 0.0
H2813 H 0.17482 0.75906 0.09853 0.0
H2814 H 0.18835 0.76636 0.16059 0.0
H2815 H 0.213 0.79707 0.08598 0.0
H2816 H 0.19904 0.79018 0.02523 0.0
H2817 H 0.21125 0.8045 0.15708 0.0
H2818 H 0.21809 0.77296 0.11993 0.0
H2819 H 0.21321 0.75256 0.10093 0.0
H2820 H 0.19607 0.73995 0.22427 0.0
H2821 H 0.2007 0.76024 0.24381 0.0
C2822 C 0.24095 0.81783 0.33358 0.0
C2823 C 0.23258 0.81443 0.36719 0.0
C2824 C 0.23787 0.81141 0.29468 0.0
C2825 C 0.22647 0.80145 0.2895 0.0
C2826 C 0.21866 0.79731 0.32489 0.0
C2827 C 0.22163 0.80385 0.36331 0.0
C2828 C 0.22168 0.79697 0.24574 0.0
C2829 C 0.21831 0.78526 0.23429 0.0
C2830 C 0.2194 0.80404 0.21686 0.0
C2831 C 0.22257 0.81639 0.2277 0.0
C2832 C 0.21688 0.81868 0.26208 0.0
C2833 C 0.22017 0.83037 0.2729 0.0
C2834 C 0.22903 0.83984 0.24924 0.0
C2835 C 0.2346 0.83762 0.21461 0.0
C2836 C 0.23137 0.82593 0.20375 0.0
C2837 C 0.18319 0.76731 0.09544 0.0
C2838 C 0.18588 0.77412 0.05741 0.0
C2839 C 0.191 0.77143 0.13073 0.0
C2840 C 0.20185 0.78222 0.128 0.0
C2841 C 0.2047 0.78876 0.08916 0.0
C2842 C 0.19673 0.78483 0.05445 0.0
C2843 C 0.20964 0.78727 0.1668 0.0
C2844 C 0.21346 0.79914 0.17787 0.0
C2845 C 0.21248 0.78036 0.19475 0.0
C2846 C 0.20969 0.76813 0.18322 0.0
C2847 C 0.21321 0.76582 0.1429 0.0
C2848 C 0.2105 0.75428 0.13205 0.0
C2849 C 0.20431 0.74497 0.16135 0.0
C2850 C 0.20086 0.74718 0.20161 0.0
C2851 C 0.20354 0.7587 0.21261 0.0
H2852 H 0.20222 0.73604 0.15288 0.0
H2853 H 0.23157 0.84889 0.25767 0.0
H2854 H 0.24027 0.42538 0.06471 0.0
H2855 H 0.23352 0.43227 0.12661 0.0
H2856 H 0.20598 0.39618 0.15222 0.0
H2857 H 0.21245 0.38929 0.09003 0.0
H2858 H 0.1971 0.41038 0.15589 0.0
H2859 H 0.2324 0.41091 0.21234 0.0
H2860 H 0.25378 0.4174 0.21368 0.0
H2861 H 0.26232 0.45375 0.22701 0.0
H2862 H 0.24098 0.44747 0.22525 0.0
H2863 H 0.19437 0.40613 0.3922 0.0
H2864 H 0.20734 0.41246 0.32913 0.0
H2865 H 0.19029 0.43139 0.28071 0.0
H2866 H 0.17707 0.4249 0.34432 0.0
H2867 H 0.22283 0.43137 0.28209 0.0
H2868 H 0.18414 0.42352 0.17458 0.0
H2869 H 0.16232 0.41462 0.17763 0.0
H2870 H 0.16013 0.38925 0.27192 0.0
H2871 H 0.18191 0.39792 0.26898 0.0
C2872 C 0.23282 0.4189 0.08371 0.0
C2873 C 0.22688 0.40677 0.07237 0.0
C2874 C 0.22898 0.42287 0.11908 0.0
C2875 C 0.21924 0.41475 0.14405 0.0
C2876 C 0.21344 0.40263 0.13315 0.0
C2877 C 0.21719 0.39869 0.09768 0.0
C2878 C 0.21491 0.41868 0.18159 0.0
C2879 C 0.20279 0.41515 0.18316 0.0
C2880 C 0.22231 0.42499 0.2171 0.0
C2881 C 0.23512 0.42874 0.21807 0.0
C2882 C 0.23885 0.4203 0.21519 0.0
C2883 C 0.25095 0.42393 0.2161 0.0
C2884 C 0.25941 0.43598 0.22026 0.0
C2885 C 0.25577 0.44442 0.22367 0.0
C2886 C 0.24367 0.44083 0.22273 0.0
C2887 C 0.19361 0.41194 0.36876 0.0
C2888 C 0.18458 0.41483 0.3725 0.0
C2889 C 0.20111 0.41565 0.33287 0.0
C2890 C 0.19964 0.42222 0.29982 0.0
C2891 C 0.19148 0.42622 0.30573 0.0
C2892 C 0.18396 0.42254 0.34203 0.0
C2893 C 0.20498 0.42267 0.25684 0.0
C2894 C 0.21727 0.42704 0.25407 0.0
C2895 C 0.19771 0.41686 0.22052 0.0
C2896 C 0.18462 0.41145 0.22193 0.0
C2897 C 0.17898 0.41602 0.19585 0.0
C2898 C 0.16663 0.41102 0.19756 0.0
C2899 C 0.15985 0.40141 0.22507 0.0
C2900 C 0.16539 0.39672 0.25073 0.0
C2901 C 0.17773 0.40167 0.24904 0.0
H2902 H 0.15029 0.39757 0.22642 0.0
H2903 H 0.26878 0.43878 0.22098 0.0
H2904 H 0.21526 0.415 0.90802 0.0
H2905 H 0.20582 0.41847 0.84547 0.0
H2906 H 0.23371 0.42089 0.76256 0.0
H2907 H 0.2434 0.41782 0.82566 0.0
H2908 H 0.22314 0.43391 0.73016 0.0
H2909 H 0.21175 0.39445 0.78294 0.0
H2910 H 0.20539 0.37913 0.83992 0.0
H2911 H 0.17385 0.38124 0.86172 0.0
H2912 H 0.18014 0.39674 0.8053 0.0
H2913 H 0.1773 0.38656 0.57255 0.0
H2914 H 0.18966 0.3925 0.63731 0.0
H2915 H 0.18731 0.42441 0.64631 0.0
H2916 H 0.17507 0.41864 0.58065 0.0
H2917 H 0.18514 0.39569 0.71717 0.0
H2918 H 0.21352 0.44643 0.6935 0.0
H2919 H 0.22107 0.46117 0.63416 0.0
H2920 H 0.22013 0.43492 0.54698 0.0
H2921 H 0.21273 0.42008 0.60592 0.0
C2922 C 0.21967 0.41689 0.87678 0.0
C2923 C 0.22998 0.41612 0.87128 0.0
C2924 C 0.21427 0.41884 0.8411 0.0
C2925 C 0.21893 0.41966 0.79934 0.0
C2926 C 0.22998 0.42027 0.79455 0.0
C2927 C 0.23551 0.41852 0.83052 0.0
C2928 C 0.21118 0.41727 0.76102 0.0
C2929 C 0.21478 0.42563 0.72735 0.0
C2930 C 0.2004 0.40633 0.75706 0.0
C2931 C 0.19647 0.39683 0.79026 0.0
C2932 C 0.20349 0.39169 0.80006 0.0
C2933 C 0.1999 0.38298 0.83224 0.0
C2934 C 0.18923 0.37923 0.8545 0.0
C2935 C 0.18212 0.38417 0.8445 0.0
C2936 C 0.18569 0.39291 0.81243 0.0
C2937 C 0.17936 0.39483 0.58823 0.0
C2938 C 0.17519 0.40213 0.57126 0.0
C2939 C 0.18644 0.39822 0.62533 0.0
C2940 C 0.18951 0.40895 0.64644 0.0
C2941 C 0.18521 0.41618 0.63014 0.0
C2942 C 0.17815 0.41283 0.59276 0.0
C2943 C 0.19704 0.41233 0.6859 0.0
C2944 C 0.1934 0.4041 0.71999 0.0
C2945 C 0.20787 0.42326 0.68959 0.0
C2946 C 0.21243 0.43212 0.65399 0.0
C2947 C 0.21495 0.44382 0.66168 0.0
C2948 C 0.2192 0.45219 0.62813 0.0
C2949 C 0.22103 0.44897 0.58679 0.0
C2950 C 0.21866 0.43739 0.57897 0.0
C2951 C 0.21442 0.42899 0.61242 0.0
H2952 H 0.22431 0.45546 0.56085 0.0
H2953 H 0.18647 0.37249 0.87943 0.0
H2954 H 0.60078 0.8356 0.80107 0.0
H2955 H 0.59439 0.82298 0.73668 0.0
H2956 H 0.56591 0.79486 0.81003 0.0
H2957 H 0.5722 0.80771 0.87481 0.0
H2958 H 0.58127 0.78834 0.77033 0.0
H2959 H 0.55797 0.80499 0.72766 0.0
H2960 H 0.55278 0.82057 0.7149 0.0
H2961 H 0.58056 0.83684 0.61985 0.0
H2962 H 0.58605 0.82147 0.63249 0.0
H2963 H 0.57699 0.75738 0.57159 0.0
H2964 H 0.57033 0.76492 0.63191 0.0
H2965 H 0.59764 0.80072 0.60131 0.0
H2966 H 0.60435 0.79333 0.54124 0.0
H2967 H 0.57609 0.79921 0.62085 0.0
H2968 H 0.60212 0.7856 0.67933 0.0
H2969 H 0.60799 0.77057 0.69384 0.0
H2970 H 0.57502 0.74886 0.76061 0.0
H2971 H 0.56889 0.76372 0.74595 0.0
C2972 C 0.59292 0.82687 0.80306 0.0
C2973 C 0.58694 0.82261 0.84265 0.0
C2974 C 0.58925 0.81967 0.76628 0.0
C2975 C 0.57965 0.808 0.76853 0.0
C2976 C 0.5733 0.80387 0.80761 0.0
C2977 C 0.57684 0.81121 0.8444 0.0
C2978 C 0.57751 0.79987 0.73155 0.0
C2979 C 0.57973 0.79045 0.73776 0.0
C2980 C 0.57569 0.80275 0.68906 0.0
C2981 C 0.57245 0.81207 0.68116 0.0
C2982 C 0.56304 0.81193 0.70425 0.0
C2983 C 0.56003 0.82073 0.697 0.0
C2984 C 0.56634 0.8297 0.6666 0.0
C2985 C 0.57567 0.82988 0.64336 0.0
C2986 C 0.57872 0.82111 0.6505 0.0
C2987 C 0.58152 0.76687 0.57747 0.0
C2988 C 0.59127 0.77474 0.55172 0.0
C2989 C 0.5777 0.77115 0.61197 0.0
C2990 C 0.58352 0.78338 0.62112 0.0
C2991 C 0.593 0.79126 0.59469 0.0
C2992 C 0.59687 0.787 0.56052 0.0
C2993 C 0.58034 0.78805 0.65965 0.0
C2994 C 0.57717 0.79683 0.65358 0.0
C2995 C 0.58131 0.7846 0.70231 0.0
C2996 C 0.58498 0.77567 0.71099 0.0
C2997 C 0.59608 0.77756 0.69673 0.0
C2998 C 0.59946 0.76909 0.70505 0.0
C2999 C 0.59186 0.75874 0.72797 0.0
C3000 C 0.58088 0.75686 0.74274 0.0
C3001 C 0.57745 0.7653 0.73443 0.0
H3002 H 0.5945 0.7522 0.73442 0.0
H3003 H 0.564 0.8365 0.66103 0.0
H3004 H 0.16764 0.75928 0.8074 0.0
H3005 H 0.18124 0.76698 0.74577 0.0
H3006 H 0.21087 0.77585 0.83113 0.0
H3007 H 0.19712 0.76791 0.893 0.0
H3008 H 0.21306 0.79508 0.78847 0.0
H3009 H 0.20649 0.75746 0.7482 0.0
H3010 H 0.19544 0.73591 0.73396 0.0
H3011 H 0.17645 0.7412 0.63043 0.0
H3012 H 0.18724 0.76277 0.64444 0.0
H3013 H 0.24431 0.82462 0.59003 0.0
H3014 H 0.23846 0.81118 0.65278 0.0
H3015 H 0.20155 0.797 0.61971 0.0
H3016 H 0.20724 0.81044 0.55775 0.0
H3017 H 0.2085 0.77936 0.6387 0.0
H3018 H 0.2114 0.81589 0.69638 0.0
H3019 H 0.22209 0.83737 0.71252 0.0
H3020 H 0.24838 0.83362 0.78412 0.0
H3021 H 0.23785 0.8121 0.76822 0.0
C3022 C 0.17699 0.76235 0.81253 0.0
C3023 C 0.18138 0.7629 0.85449 0.0
C3024 C 0.18477 0.76676 0.77739 0.0
C3025 C 0.19708 0.77196 0.78383 0.0
C3026 C 0.2014 0.77179 0.82545 0.0
C3027 C 0.19356 0.76719 0.86062 0.0
C3028 C 0.20525 0.7793 0.74866 0.0
C3029 C 0.21238 0.79157 0.75598 0.0
C3030 C 0.20426 0.77476 0.70621 0.0
C3031 C 0.19768 0.76177 0.69751 0.0
C3032 C 0.1999 0.75403 0.72259 0.0
C3033 C 0.19369 0.74181 0.71452 0.0
C3034 C 0.18524 0.73719 0.68133 0.0
C3035 C 0.183 0.74479 0.65611 0.0
C3036 C 0.18919 0.75703 0.66405 0.0
C3037 C 0.23495 0.81865 0.59622 0.0
C3038 C 0.22624 0.81862 0.56901 0.0
C3039 C 0.23164 0.81098 0.63195 0.0
C3040 C 0.21959 0.80306 0.6405 0.0
C3041 C 0.2109 0.80299 0.61333 0.0
C3042 C 0.21418 0.81075 0.57817 0.0
C3043 C 0.21581 0.79507 0.67854 0.0
C3044 C 0.20951 0.78274 0.67155 0.0
C3045 C 0.21759 0.79952 0.72134 0.0
C3046 C 0.22395 0.81244 0.73059 0.0
C3047 C 0.21953 0.81967 0.71518 0.0
C3048 C 0.22554 0.83184 0.72436 0.0
C3049 C 0.23595 0.83687 0.74907 0.0
C3050 C 0.24034 0.82972 0.76484 0.0
C3051 C 0.23435 0.81754 0.75581 0.0
H3052 H 0.24059 0.8463 0.75615 0.0
H3053 H 0.18044 0.72771 0.67513 0.0
H3054 H 0.0924 0.56678 0.95213 0.0
H3055 H 0.09801 0.55961 0.01684 0.0
H3056 H 0.07209 0.56331 0.09236 0.0
H3057 H 0.06627 0.57012 0.02774 0.0
H3058 H 0.09373 0.569 0.13896 0.0
H3059 H 0.06292 0.53843 0.04676 0.0
H3060 H 0.05544 0.5281 0.97684 0.0
H3061 H 0.08371 0.52005 0.97286 0.0
H3062 H 0.09147 0.53052 0.04254 0.0
H3063 H 0.06394 0.52434 0.29467 0.0
H3064 H 0.07021 0.53801 0.23312 0.0
H3065 H 0.09353 0.52538 0.19011 0.0
H3066 H 0.08741 0.51173 0.2521 0.0
H3067 H 0.07861 0.52568 0.12469 0.0
H3068 H 0.1063 0.55206 0.22681 0.0
H3069 H 0.11356 0.56227 0.29697 0.0
H3070 H 0.09172 0.57825 0.28311 0.0
H3071 H 0.08417 0.56798 0.21314 0.0
C3072 C 0.08825 0.56647 0.98299 0.0
C3073 C 0.07895 0.569 0.98534 0.0
C3074 C 0.09142 0.56234 0.01977 0.0
C3075 C 0.08541 0.56089 0.05923 0.0
C3076 C 0.07686 0.56444 0.06228 0.0
C3077 C 0.07354 0.56831 0.02545 0.0
C3078 C 0.08655 0.55405 0.09542 0.0
C3079 C 0.0905 0.55954 0.13595 0.0
C3080 C 0.08258 0.54177 0.09105 0.0
C3081 C 0.07787 0.53539 0.04946 0.0
C3082 C 0.0676 0.53455 0.03076 0.0
C3083 C 0.0633 0.52866 0.99123 0.0
C3084 C 0.06912 0.52346 0.97033 0.0
C3085 C 0.07924 0.52411 0.98903 0.0
C3086 C 0.08359 0.53003 0.02852 0.0
C3087 C 0.07046 0.52451 0.27231 0.0
C3088 C 0.07516 0.51694 0.27825 0.0
C3089 C 0.07409 0.53238 0.23732 0.0
C3090 C 0.08241 0.53277 0.20732 0.0
C3091 C 0.08716 0.52526 0.21309 0.0
C3092 C 0.08366 0.51749 0.24854 0.0
C3093 C 0.0855 0.54056 0.16869 0.0
C3094 C 0.08224 0.5352 0.12766 0.0
C3095 C 0.09013 0.55296 0.17267 0.0
C3096 C 0.0946 0.55917 0.2148 0.0
C3097 C 0.10296 0.55767 0.23888 0.0
C3098 C 0.10714 0.56348 0.2786 0.0
C3099 C 0.10309 0.57089 0.29453 0.0
C3100 C 0.09485 0.57251 0.27073 0.0
C3101 C 0.09062 0.5667 0.23099 0.0
H3102 H 0.10634 0.57539 0.32529 0.0
H3103 H 0.06578 0.5189 0.93973 0.0
H3104 H 0.42735 0.52611 0.94191 0.0
H3105 H 0.43406 0.54003 0.00363 0.0
H3106 H 0.43684 0.51405 0.08234 0.0
H3107 H 0.43045 0.50036 0.02096 0.0
H3108 H 0.42861 0.52749 0.1288 0.0
H3109 H 0.46011 0.53281 0.02549 0.0
H3110 H 0.46914 0.53746 0.95249 0.0
H3111 H 0.47011 0.571 0.95453 0.0
H3112 H 0.46094 0.56645 0.02739 0.0
H3113 H 0.47592 0.54136 0.2616 0.0
H3114 H 0.46127 0.5356 0.20407 0.0
H3115 H 0.47182 0.57237 0.18219 0.0
H3116 H 0.48663 0.57831 0.24066 0.0
H3117 H 0.47034 0.55952 0.10575 0.0
H3118 H 0.44551 0.55627 0.22209 0.0
H3119 H 0.43696 0.55133 0.29568 0.0
H3120 H 0.42325 0.51421 0.27046 0.0
H3121 H 0.43187 0.51892 0.19694 0.0
C3122 C 0.42904 0.52329 0.97288 0.0
C3123 C 0.42847 0.51224 0.97689 0.0
C3124 C 0.43289 0.53123 0.00795 0.0
C3125 C 0.43599 0.52806 0.04741 0.0
C3126 C 0.43444 0.51664 0.05225 0.0
C3127 C 0.43084 0.50885 0.01718 0.0
C3128 C 0.44245 0.53693 0.08184 0.0
C3129 C 0.43767 0.53462 0.12386 0.0
C3130 C 0.45413 0.54647 0.07499 0.0
C3131 C 0.45972 0.54923 0.0315 0.0
C3132 C 0.46218 0.54113 0.01019 0.0
C3133 C 0.46733 0.54375 0.9689 0.0
C3134 C 0.47016 0.5545 0.94882 0.0
C3135 C 0.46788 0.56266 0.97007 0.0
C3136 C 0.46271 0.56007 0.01135 0.0
C3137 C 0.47517 0.54827 0.24476 0.0
C3138 C 0.48249 0.56031 0.25569 0.0
C3139 C 0.46669 0.54494 0.21208 0.0
C3140 C 0.46534 0.55354 0.18935 0.0
C3141 C 0.47266 0.5656 0.19973 0.0
C3142 C 0.4811 0.56896 0.23305 0.0
C3143 C 0.4567 0.54965 0.15314 0.0
C3144 C 0.46109 0.55283 0.11076 0.0
C3145 C 0.44464 0.54093 0.15971 0.0
C3146 C 0.43936 0.53797 0.2039 0.0
C3147 C 0.44073 0.54706 0.23229 0.0
C3148 C 0.43587 0.5443 0.27401 0.0
C3149 C 0.42957 0.53247 0.28774 0.0
C3150 C 0.42812 0.52337 0.25975 0.0
C3151 C 0.43297 0.52608 0.218 0.0
H3152 H 0.42581 0.53035 0.32006 0.0
H3153 H 0.47414 0.55652 0.91684 0.0
H3154 H 0.49885 0.92102 0.01058 0.0
H3155 H 0.48711 0.91784 0.07656 0.0
H3156 H 0.45867 0.91649 -0.00046 0.0
H3157 H 0.47075 0.92037 0.93414 0.0
H3158 H 0.46316 0.93124 0.05902 0.0
H3159 H 0.45627 0.89176 0.05979 0.0
H3160 H 0.46109 0.87568 0.05613 0.0
H3161 H 0.48254 0.88914 0.17081 0.0
H3162 H 0.47798 0.90542 0.17484 0.0
H3163 H 0.42512 0.9172 0.24543 0.0
H3164 H 0.43292 0.9128 0.17986 0.0
H3165 H 0.46822 0.93097 0.23417 0.0
H3166 H 0.46059 0.93573 0.29933 0.0
H3167 H 0.45825 0.9058 0.18634 0.0
H3168 H 0.46649 0.94709 0.1747 0.0
H3169 H 0.46005 0.96201 0.17763 0.0
H3170 H 0.43358 0.94278 0.08048 0.0
H3171 H 0.43978 0.92766 0.07738 0.0
C3172 C 0.48994 0.91965 0.00785 0.0
C3173 C 0.48561 0.92083 0.96762 0.0
C3174 C 0.4832 0.91782 0.04549 0.0
C3175 C 0.47194 0.91688 0.0432 0.0
C3176 C 0.46733 0.91725 0.00232 0.0
C3177 C 0.47417 0.91936 0.96494 0.0
C3178 C 0.46564 0.91702 0.08337 0.0
C3179 C 0.46191 0.92547 0.08636 0.0
C3180 C 0.46409 0.90965 0.11961 0.0
C3181 C 0.46686 0.89987 0.1174 0.0
C3182 C 0.46209 0.89135 0.08405 0.0
C3183 C 0.46476 0.88219 0.08194 0.0
C3184 C 0.47214 0.8814 0.11317 0.0
C3185 C 0.47683 0.88977 0.14663 0.0
C3186 C 0.4742 0.89895 0.14888 0.0
C3187 C 0.43452 0.92015 0.24361 0.0
C3188 C 0.44226 0.92687 0.27737 0.0
C3189 C 0.43894 0.9176 0.20625 0.0
C3190 C 0.4511 0.92151 0.20252 0.0
C3191 C 0.45878 0.92781 0.23678 0.0
C3192 C 0.45443 0.9306 0.27373 0.0
C3193 C 0.45598 0.91999 0.16131 0.0
C3194 C 0.45944 0.91137 0.15841 0.0
C3195 C 0.45709 0.92701 0.12478 0.0
C3196 C 0.45349 0.93618 0.1262 0.0
C3197 C 0.45922 0.94599 0.15427 0.0
C3198 C 0.45563 0.95449 0.15592 0.0
C3199 C 0.44638 0.95332 0.12942 0.0
C3200 C 0.44073 0.94366 0.10107 0.0
C3201 C 0.44428 0.93513 0.09932 0.0
H3202 H 0.44361 0.9599 0.13077 0.0
H3203 H 0.4742 0.8743 0.11148 0.0
H3204 H 0.25545 0.3847 0.058 0.0
H3205 H 0.24837 0.36439 0.08402 0.0
H3206 H 0.22428 0.35047 0.97531 0.0
H3207 H 0.23108 0.37062 0.94991 0.0
H3208 H 0.213 0.34003 0.04582 0.0
H3209 H 0.24981 0.34839 0.98147 0.0
H3210 H 0.2714 0.3596 0.96797 0.0
H3211 H 0.27805 0.35525 0.10131 0.0
H3212 H 0.25648 0.34414 0.11577 0.0
H3213 H 0.19741 0.27932 0.07553 0.0
H3214 H 0.20855 0.29901 0.04109 0.0
H3215 H 0.22218 0.31496 0.16607 0.0
H3216 H 0.21071 0.29544 0.20068 0.0
H3217 H 0.23914 0.32369 0.08425 0.0
H3218 H 0.20195 0.31759 0.14798 0.0
H3219 H 0.18026 0.30608 0.15937 0.0
H3220 H 0.17457 0.30581 0.022 0.0
H3221 H 0.19627 0.31718 0.00979 0.0
C3222 C 0.24869 0.37729 0.03962 0.0
C3223 C 0.2438 0.37925 0.00203 0.0
C3224 C 0.24469 0.36569 0.05434 0.0
C3225 C 0.23584 0.35588 0.03141 0.0
C3226 C 0.23108 0.35787 0.99361 0.0
C3227 C 0.235 0.36942 0.97911 0.0
C3228 C 0.23109 0.34354 0.04764 0.0
C3229 C 0.21875 0.33645 0.05352 0.0
C3230 C 0.23855 0.33885 0.05831 0.0
C3231 C 0.25153 0.34553 0.0498 0.0
C3232 C 0.25587 0.34991 0.00801 0.0
C3233 C 0.26811 0.35623 0.00017 0.0
C3234 C 0.2761 0.35817 0.03379 0.0
C3235 C 0.27186 0.35376 0.07532 0.0
C3236 C 0.25962 0.34744 0.08335 0.0
C3237 C 0.20305 0.287 0.09534 0.0
C3238 C 0.20327 0.28595 0.1406 0.0
C3239 C 0.20937 0.2982 0.07575 0.0
C3240 C 0.21618 0.30837 0.10117 0.0
C3241 C 0.21704 0.30718 0.146 0.0
C3242 C 0.21047 0.29607 0.16567 0.0
C3243 C 0.22118 0.32037 0.08212 0.0
C3244 C 0.23349 0.32734 0.07599 0.0
C3245 C 0.21373 0.32496 0.07076 0.0
C3246 C 0.20071 0.31809 0.07795 0.0
C3247 C 0.19607 0.31496 0.12018 0.0
C3248 C 0.18379 0.30851 0.1268 0.0
C3249 C 0.17605 0.30524 0.09144 0.0
C3250 C 0.18058 0.30837 0.04936 0.0
C3251 C 0.19287 0.31481 0.04257 0.0
H3252 H 0.16653 0.30028 0.09665 0.0
H3253 H 0.28557 0.36306 0.02765 0.0
H3254 H 0.7204 0.91332 0.08155 0.0
H3255 H 0.70013 0.90431 0.05282 0.0
H3256 H 0.68622 0.89698 0.18351 0.0
H3257 H 0.70637 0.90525 0.21184 0.0
H3258 H 0.67329 0.87894 0.13966 0.0
H3259 H 0.68751 0.92026 0.11421 0.0
H3260 H 0.70111 0.94049 0.08702 0.0
H3261 H 0.69549 0.9273 0.95631 0.0
H3262 H 0.68197 0.90697 0.98277 0.0
H3263 H 0.61451 0.86408 0.07368 0.0
H3264 H 0.63446 0.8756 0.10551 0.0
H3265 H 0.65008 0.8752 0.98246 0.0
H3266 H 0.63029 0.86365 0.9507 0.0
H3267 H 0.66143 0.89774 0.0249 0.0
H3268 H 0.64749 0.85605 0.05461 0.0
H3269 H 0.63287 0.83641 0.08389 0.0
H3270 H 0.63722 0.85147 0.21123 0.0
H3271 H 0.65173 0.87126 0.18252 0.0
C3272 C 0.71299 0.90986 0.10399 0.0
C3273 C 0.71491 0.90999 0.14883 0.0
C3274 C 0.7014 0.90476 0.08764 0.0
C3275 C 0.69157 0.9001 0.11597 0.0
C3276 C 0.69359 0.90046 0.16086 0.0
C3277 C 0.70512 0.90523 0.17707 0.0
C3278 C 0.67917 0.89445 0.09904 0.0
C3279 C 0.6707 0.8832 0.11512 0.0
C3280 C 0.6757 0.89985 0.06656 0.0
C3281 C 0.68381 0.91207 0.05053 0.0
C3282 C 0.68924 0.92166 0.0797 0.0
C3283 C 0.69692 0.93315 0.06441 0.0
C3284 C 0.69918 0.93517 0.01998 0.0
C3285 C 0.69374 0.92572 0.99072 0.0
C3286 C 0.68606 0.91421 0.00584 0.0
C3287 C 0.62221 0.86654 0.05343 0.0
C3288 C 0.62086 0.86293 0.00982 0.0
C3289 C 0.63357 0.8731 0.0716 0.0
C3290 C 0.64371 0.87621 0.04628 0.0
C3291 C 0.64237 0.87292 0.00245 0.0
C3292 C 0.63105 0.86626 0.98447 0.0
C3293 C 0.65575 0.88239 0.06564 0.0
C3294 C 0.6641 0.89365 0.04984 0.0
C3295 C 0.65906 0.87712 0.09886 0.0
C3296 C 0.65061 0.86516 0.11635 0.0
C3297 C 0.64528 0.85519 0.08881 0.0
C3298 C 0.63702 0.84403 0.1053 0.0
C3299 C 0.63411 0.8427 0.14938 0.0
C3300 C 0.63949 0.85252 0.17709 0.0
C3301 C 0.64773 0.86371 0.16073 0.0
H3302 H 0.62771 0.83405 0.16207 0.0
H3303 H 0.70514 0.94407 0.00821 0.0
H3304 H 0.14806 0.77503 0.96989 0.0
H3305 H 0.1366 0.78381 0.99715 0.0
H3306 H 0.11695 0.75355 0.0812 0.0
H3307 H 0.12883 0.74491 0.05508 0.0
H3308 H 0.11464 0.77786 0.99344 0.0
H3309 H 0.10828 0.76217 0.17192 0.0
H3310 H 0.11835 0.75666 0.22748 0.0
H3311 H 0.15192 0.77862 0.16479 0.0
H3312 H 0.14207 0.78438 0.10924 0.0
H3313 H 0.07732 0.79693 0.09419 0.0
H3314 H 0.08557 0.78481 0.06684 0.0
H3315 H 0.11728 0.8056 0.14303 0.0
H3316 H 0.10884 0.81718 0.17189 0.0
H3317 H 0.11172 0.78414 0.15064 0.0
H3318 H 0.11528 0.80887 0.02828 0.0
H3319 H 0.10804 0.81724 0.9721 0.0
H3320 H 0.08507 0.78224 0.9214 0.0
H3321 H 0.09208 0.77365 0.97765 0.0
C3322 C 0.14135 0.77026 0.99436 0.0
C3323 C 0.1394 0.75932 0.0106 0.0
C3324 C 0.13474 0.77526 0.00972 0.0
C3325 C 0.12593 0.76939 0.04138 0.0
C3326 C 0.12382 0.75835 0.05726 0.0
C3327 C 0.13059 0.7534 0.0423 0.0
C3328 C 0.11919 0.77505 0.05793 0.0
C3329 C 0.11396 0.77919 0.02786 0.0
C3330 C 0.11838 0.77691 0.10276 0.0
C3331 C 0.1244 0.77357 0.13615 0.0
C3332 C 0.11781 0.76583 0.17007 0.0
C3333 C 0.12348 0.76267 0.20155 0.0
C3334 C 0.13576 0.76725 0.19956 0.0
C3335 C 0.1424 0.77504 0.16619 0.0
C3336 C 0.13678 0.77824 0.13468 0.0
C3337 C 0.08606 0.7989 0.10487 0.0
C3338 C 0.09244 0.808 0.13511 0.0
C3339 C 0.09078 0.792 0.08918 0.0
C3340 C 0.10211 0.79432 0.10261 0.0
C3341 C 0.1085 0.80353 0.1324 0.0
C3342 C 0.10369 0.81022 0.14871 0.0
C3343 C 0.10744 0.78726 0.08611 0.0
C3344 C 0.1123 0.78273 0.11623 0.0
C3345 C 0.10831 0.78546 0.04125 0.0
C3346 C 0.10409 0.79061 0.00746 0.0
C3347 C 0.10862 0.80295 0.00534 0.0
C3348 C 0.10457 0.80773 0.97346 0.0
C3349 C 0.09608 0.80027 0.94328 0.0
C3350 C 0.09163 0.78801 0.94485 0.0
C3351 C 0.09564 0.78318 0.97671 0.0
H3352 H 0.09296 0.80399 0.91861 0.0
H3353 H 0.14013 0.76478 0.22394 0.0
H3354 H 0.29628 0.19891 0.2917 0.0
H3355 H 0.31571 0.2112 0.3245 0.0
H3356 H 0.2993 0.21791 0.43439 0.0
H3357 H 0.27962 0.2053 0.40185 0.0
H3358 H 0.32905 0.2334 0.3496 0.0
H3359 H 0.31442 0.21777 0.52567 0.0
H3360 H 0.29829 0.20076 0.56488 0.0
H3361 H 0.29316 0.17796 0.45627 0.0
H3362 H 0.30936 0.19477 0.41675 0.0
H3363 H 0.38253 0.26121 0.47759 0.0
H3364 H 0.36269 0.2549 0.44782 0.0
H3365 H 0.3527 0.2182 0.46953 0.0
H3366 H 0.372 0.22452 0.50178 0.0
H3367 H 0.33555 0.22021 0.49287 0.0
H3368 H 0.36046 0.23348 0.3645 0.0
H3369 H 0.37697 0.24794 0.31871 0.0
H3370 H 0.36241 0.27121 0.32108 0.0
H3371 H 0.34588 0.25693 0.36728 0.0
C3372 C 0.29677 0.20307 0.3227 0.0
C3373 C 0.28641 0.20102 0.34449 0.0
C3374 C 0.30792 0.21018 0.34126 0.0
C3375 C 0.30897 0.2154 0.38204 0.0
C3376 C 0.29868 0.21386 0.40305 0.0
C3377 C 0.28746 0.20668 0.38445 0.0
C3378 C 0.32076 0.22155 0.40361 0.0
C3379 C 0.33048 0.23061 0.38115 0.0
C3380 C 0.32266 0.21777 0.44437 0.0
C3381 C 0.31299 0.20757 0.46808 0.0
C3382 C 0.30986 0.20912 0.51024 0.0
C3383 C 0.30071 0.19951 0.5325 0.0
C3384 C 0.29468 0.1883 0.513 0.0
C3385 C 0.29781 0.18666 0.47127 0.0
C3386 C 0.30697 0.19622 0.44892 0.0
C3387 C 0.37607 0.25181 0.47563 0.0
C3388 C 0.37877 0.24335 0.49193 0.0
C3389 C 0.36475 0.24819 0.45856 0.0
C3390 C 0.35614 0.23603 0.45614 0.0
C3391 C 0.35906 0.22763 0.47144 0.0
C3392 C 0.37017 0.23125 0.48962 0.0
C3393 C 0.34402 0.23184 0.43824 0.0
C3394 C 0.33418 0.22319 0.46163 0.0
C3395 C 0.3421 0.23564 0.39746 0.0
C3396 C 0.35203 0.24421 0.36973 0.0
C3397 C 0.36083 0.24172 0.35548 0.0
C3398 C 0.37018 0.24987 0.32942 0.0
C3399 C 0.37076 0.2605 0.31711 0.0
C3400 C 0.36197 0.26298 0.33072 0.0
C3401 C 0.3526 0.25486 0.35681 0.0
H3402 H 0.378 0.2668 0.29694 0.0
H3403 H 0.28761 0.18088 0.53031 0.0
H3404 H 0.7502 0.13194 0.44249 0.0
H3405 H 0.75836 0.11981 0.41506 0.0
H3406 H 0.77432 0.12189 0.54002 0.0
H3407 H 0.76657 0.13437 0.56693 0.0
H3408 H 0.78967 0.12559 0.48168 0.0
H3409 H 0.74935 0.09581 0.50183 0.0
H3410 H 0.72754 0.08609 0.49588 0.0
H3411 H 0.72999 0.08474 0.35724 0.0
H3412 H 0.75184 0.09461 0.36229 0.0
H3413 H 0.80619 0.08264 0.41598 0.0
H3414 H 0.79481 0.09015 0.4555 0.0
H3415 H 0.78547 0.0999 0.33413 0.0
H3416 H 0.797 0.09273 0.29478 0.0
H3417 H 0.76612 0.08831 0.39815 0.0
H3418 H 0.80721 0.12053 0.3821 0.0
H3419 H 0.82886 0.12946 0.3916 0.0
H3420 H 0.82422 0.12467 0.52954 0.0
H3421 H 0.8025 0.11557 0.52074 0.0
C3422 C 0.75538 0.12974 0.46411 0.0
C3423 C 0.75776 0.1341 0.50679 0.0
C3424 C 0.75999 0.12274 0.44853 0.0
C3425 C 0.76684 0.11978 0.47564 0.0
C3426 C 0.76908 0.12404 0.51845 0.0
C3427 C 0.76462 0.13116 0.53381 0.0
C3428 C 0.77216 0.11275 0.45881 0.0
C3429 C 0.78443 0.11732 0.4642 0.0
C3430 C 0.7654 0.10196 0.43571 0.0
C3431 C 0.75225 0.09605 0.43243 0.0
C3432 C 0.74525 0.09353 0.47004 0.0
C3433 C 0.73288 0.08798 0.46683 0.0
C3434 C 0.72739 0.08482 0.4262 0.0
C3435 C 0.73426 0.0872 0.38869 0.0
C3436 C 0.74664 0.09276 0.39171 0.0
C3437 C 0.80155 0.08623 0.39785 0.0
C3438 C 0.80248 0.08717 0.35244 0.0
C3439 C 0.79509 0.09051 0.42037 0.0
C3440 C 0.78933 0.09556 0.3976 0.0
C3441 C 0.78981 0.09598 0.35219 0.0
C3442 C 0.79644 0.09195 0.32983 0.0
C3443 C 0.78352 0.10127 0.42076 0.0
C3444 C 0.77122 0.09648 0.41636 0.0
C3445 C 0.79019 0.11172 0.44544 0.0
C3446 C 0.80324 0.11725 0.45072 0.0
C3447 C 0.8108 0.12128 0.41441 0.0
C3448 C 0.82309 0.12639 0.41968 0.0
C3449 C 0.82791 0.12759 0.46115 0.0
C3450 C 0.82047 0.12371 0.49744 0.0
C3451 C 0.80817 0.11859 0.49233 0.0
H3452 H 0.83743 0.13157 0.4652 0.0
H3453 H 0.71781 0.08052 0.42379 0.0
H3454 H 0.9066 0.70483 0.28014 0.0
H3455 H 0.89878 0.68498 0.31075 0.0
H3456 H 0.91185 0.70033 0.43713 0.0
H3457 H 0.92022 0.72034 0.4059 0.0
H3458 H 0.91416 0.6816 0.42807 0.0
H3459 H 0.88253 0.6895 0.40585 0.0
H3460 H 0.86992 0.69544 0.36567 0.0
H3461 H 0.85937 0.66611 0.27813 0.0
H3462 H 0.8721 0.66012 0.31732 0.0
H3463 H 0.87017 0.63181 0.55052 0.0
H3464 H 0.88231 0.65119 0.51595 0.0
H3465 H 0.87788 0.634 0.39212 0.0
H3466 H 0.86593 0.61447 0.42686 0.0
H3467 H 0.87154 0.65318 0.399 0.0
H3468 H 0.90336 0.64523 0.42906 0.0
H3469 H 0.91521 0.63972 0.47602 0.0
H3470 H 0.92406 0.66972 0.5582 0.0
H3471 H 0.91211 0.67531 0.51206 0.0
C3472 C 0.90794 0.70397 0.31436 0.0
C3473 C 0.91392 0.71408 0.34078 0.0
C3474 C 0.90341 0.69262 0.33188 0.0
C3475 C 0.90444 0.69113 0.37649 0.0
C3476 C 0.91089 0.70125 0.40266 0.0
C3477 C 0.91566 0.71267 0.38486 0.0
C3478 C 0.89831 0.67902 0.39585 0.0
C3479 C 0.90482 0.67544 0.42199 0.0
C3480 C 0.88611 0.67091 0.3878 0.0
C3481 C 0.87839 0.67444 0.36424 0.0
C3482 C 0.8776 0.68437 0.37781 0.0
C3483 C 0.87042 0.68774 0.35524 0.0
C3484 C 0.86387 0.68117 0.31929 0.0
C3485 C 0.86447 0.6712 0.30592 0.0
C3486 C 0.87167 0.66782 0.3283 0.0
C3487 C 0.87192 0.63215 0.51602 0.0
C3488 C 0.86714 0.62167 0.4913 0.0
C3489 C 0.87887 0.64321 0.4964 0.0
C3490 C 0.881 0.64399 0.45161 0.0
C3491 C 0.87636 0.63353 0.42681 0.0
C3492 C 0.86959 0.62242 0.44665 0.0
C3493 C 0.88743 0.65579 0.4306 0.0
C3494 C 0.88092 0.65933 0.40453 0.0
C3495 C 0.89951 0.66394 0.43967 0.0
C3496 C 0.90675 0.66063 0.4673 0.0
C3497 C 0.90774 0.65059 0.45736 0.0
C3498 C 0.9145 0.64746 0.48378 0.0
C3499 C 0.92036 0.65435 0.52013 0.0
C3500 C 0.9195 0.66439 0.53006 0.0
C3501 C 0.91275 0.66755 0.50375 0.0
H3502 H 0.92558 0.65191 0.54055 0.0
H3503 H 0.85831 0.68379 0.30187 0.0
H3504 H 0.81184 0.70505 0.83149 0.0
H3505 H 0.79834 0.68577 0.86296 0.0
H3506 H 0.77835 0.70028 0.92322 0.0
H3507 H 0.79235 0.71995 0.89304 0.0
H3508 H 0.77958 0.6856 0.97655 0.0
H3509 H 0.76785 0.68242 0.83026 0.0
H3510 H 0.77019 0.68449 0.75079 0.0
H3511 H 0.78409 0.66066 0.74924 0.0
H3512 H 0.78201 0.65858 0.82877 0.0
H3513 H 0.73984 0.61542 0.95338 0.0
H3514 H 0.74603 0.63538 0.92527 0.0
H3515 H 0.77687 0.65008 0.00856 0.0
H3516 H 0.77059 0.63041 0.03742 0.0
H3517 H 0.76442 0.65014 0.88125 0.0
H3518 H 0.7855 0.67734 0.04067 0.0
H3519 H 0.7811 0.67528 0.11907 0.0
H3520 H 0.74426 0.65095 0.09253 0.0
H3521 H 0.74839 0.653 0.01397 0.0
C3522 C 0.80462 0.70419 0.8516 0.0
C3523 C 0.80309 0.71398 0.85956 0.0
C3524 C 0.79682 0.69311 0.8693 0.0
C3525 C 0.78708 0.69145 0.89434 0.0
C3526 C 0.78573 0.70131 0.90359 0.0
C3527 C 0.79372 0.71253 0.88644 0.0
C3528 C 0.77854 0.67939 0.91102 0.0
C3529 C 0.77617 0.67785 0.95569 0.0
C3530 C 0.77365 0.66927 0.88357 0.0
C3531 C 0.7748 0.67037 0.83557 0.0
C3532 C 0.77146 0.67766 0.81301 0.0
C3533 C 0.77274 0.67883 0.76794 0.0
C3534 C 0.77729 0.67271 0.74499 0.0
C3535 C 0.78055 0.66539 0.76706 0.0
C3536 C 0.7793 0.66419 0.81214 0.0
C3537 C 0.74789 0.62295 0.96584 0.0
C3538 C 0.75472 0.62136 0.99764 0.0
C3539 C 0.75141 0.63434 0.94981 0.0
C3540 C 0.7618 0.64428 0.96538 0.0
C3541 C 0.76864 0.64263 0.99688 0.0
C3542 C 0.76509 0.63133 0.01308 0.0
C3543 C 0.76607 0.65634 0.94709 0.0
C3544 C 0.76761 0.65788 0.90205 0.0
C3545 C 0.76984 0.66644 0.97405 0.0
C3546 C 0.76728 0.66529 0.02135 0.0
C3547 C 0.77644 0.67162 0.05151 0.0
C3548 C 0.774 0.67043 0.09601 0.0
C3549 C 0.76242 0.66297 0.11077 0.0
C3550 C 0.75324 0.6567 0.08106 0.0
C3551 C 0.75563 0.65786 0.03654 0.0
H3552 H 0.76055 0.66206 0.14523 0.0
H3553 H 0.77828 0.67364 0.7101 0.0
H3554 H 0.3701 0.12817 0.06617 0.0
H3555 H 0.35048 0.1156 0.03364 0.0
H3556 H 0.36671 0.12059 0.90758 0.0
H3557 H 0.38647 0.1329 0.94023 0.0
H3558 H 0.34694 0.12763 0.92802 0.0
H3559 H 0.35671 0.0961 0.93096 0.0
H3560 H 0.36315 0.08335 0.96722 0.0
H3561 H 0.33365 0.07071 0.05524 0.0
H3562 H 0.32714 0.08354 0.0199 0.0
H3563 H 0.2983 0.09564 0.79594 0.0
H3564 H 0.31755 0.10245 0.82997 0.0
H3565 H 0.30017 0.08534 0.94966 0.0
H3566 H 0.28066 0.07813 0.91495 0.0
H3567 H 0.32031 0.08388 0.93602 0.0
H3568 H 0.30999 0.1141 0.93783 0.0
H3569 H 0.30288 0.12704 0.90803 0.0
H3570 H 0.33266 0.14291 0.82094 0.0
H3571 H 0.33985 0.1299 0.84967 0.0
C3572 C 0.36949 0.12639 0.03164 0.0
C3573 C 0.37975 0.13148 0.00562 0.0
C3574 C 0.35831 0.11919 0.0132 0.0
C3575 C 0.35721 0.11717 0.96837 0.0
C3576 C 0.36745 0.12201 0.94235 0.0
C3577 C 0.37869 0.12899 0.96098 0.0
C3578 C 0.34528 0.11104 0.94843 0.0
C3579 C 0.34118 0.11805 0.929 0.0
C3580 C 0.33763 0.09862 0.95194 0.0
C3581 C 0.34152 0.09089 0.97312 0.0
C3582 C 0.35167 0.09071 0.95836 0.0
C3583 C 0.35532 0.08344 0.97867 0.0
C3584 C 0.34884 0.07625 0.0136 0.0
C3585 C 0.33868 0.0763 0.02822 0.0
C3586 C 0.335 0.08356 0.00804 0.0
C3587 C 0.29855 0.09319 0.82936 0.0
C3588 C 0.28802 0.08649 0.85305 0.0
C3589 C 0.30956 0.09709 0.84877 0.0
C3590 C 0.3103 0.09464 0.8926 0.0
C3591 C 0.29978 0.08738 0.91582 0.0
C3592 C 0.28867 0.08329 0.89607 0.0
C3593 C 0.32206 0.10046 0.91434 0.0
C3594 C 0.32608 0.09345 0.93467 0.0
C3595 C 0.32959 0.11296 0.91268 0.0
C3596 C 0.3254 0.12094 0.89565 0.0
C3597 C 0.31498 0.12029 0.9121 0.0
C3598 C 0.31094 0.12764 0.89542 0.0
C3599 C 0.3173 0.13577 0.86255 0.0
C3600 C 0.32774 0.13659 0.84638 0.0
C3601 C 0.3318 0.12923 0.86287 0.0
H3602 H 0.31416 0.14146 0.84966 0.0
H3603 H 0.35167 0.07063 0.02927 0.0
H3604 H 0.91924 0.20123 0.90188 0.0
H3605 H 0.91048 0.21233 0.93469 0.0
H3606 H 0.89742 0.21526 0.8093 0.0
H3607 H 0.90592 0.20402 0.7766 0.0
H3608 H 0.90739 0.23673 0.86297 0.0
H3609 H 0.87892 0.19437 0.8671 0.0
H3610 H 0.87273 0.17359 0.88522 0.0
H3611 H 0.87965 0.18283 0.0201 0.0
H3612 H 0.88601 0.20373 0.00263 0.0
H3613 H 0.86161 0.24927 0.92209 0.0
H3614 H 0.87378 0.24173 0.88943 0.0
H3615 H 0.87788 0.2296 0.01533 0.0
H3616 H 0.86531 0.23655 0.04731 0.0
H3617 H 0.87335 0.21325 0.9617 0.0
H3618 H 0.90082 0.2552 0.96087 0.0
H3619 H 0.90795 0.27631 0.94468 0.0
H3620 H 0.90429 0.26868 0.80813 0.0
H3621 H 0.89698 0.24749 0.82353 0.0
C3622 C 0.91468 0.20443 0.8813 0.0
C3623 C 0.91319 0.20172 0.83681 0.0
C3624 C 0.90968 0.21074 0.90001 0.0
C3625 C 0.90329 0.21456 0.87433 0.0
C3626 C 0.90235 0.21241 0.82957 0.0
C3627 C 0.90716 0.20594 0.81103 0.0
C3628 C 0.89667 0.21986 0.89443 0.0
C3629 C 0.8999 0.23163 0.88441 0.0
C3630 C 0.88706 0.21321 0.92287 0.0
C3631 C 0.88306 0.20063 0.9335 0.0
C3632 C 0.8792 0.19199 0.90057 0.0
C3633 C 0.87565 0.18019 0.91073 0.0
C3634 C 0.87584 0.1769 0.95378 0.0
C3635 C 0.87953 0.1854 0.98676 0.0
C3636 C 0.88309 0.19722 0.97676 0.0
C3637 C 0.86517 0.24504 0.94265 0.0
C3638 C 0.8625 0.24346 0.98714 0.0
C3639 C 0.87219 0.24079 0.92408 0.0
C3640 C 0.87689 0.23519 0.94998 0.0
C3641 C 0.87434 0.23382 0.99455 0.0
C3642 C 0.86716 0.23783 0.01284 0.0
C3643 C 0.88408 0.2303 0.93082 0.0
C3644 C 0.88091 0.2185 0.94072 0.0
C3645 C 0.89384 0.23701 0.90275 0.0
C3646 C 0.89824 0.24974 0.89338 0.0
C3647 C 0.90145 0.25801 0.9274 0.0
C3648 C 0.90554 0.26999 0.91837 0.0
C3649 C 0.90655 0.27383 0.87541 0.0
C3650 C 0.90349 0.2657 0.84139 0.0
C3651 C 0.89938 0.2537 0.85025 0.0
H3652 H 0.90972 0.28311 0.86848 0.0
H3653 H 0.87309 0.16775 0.9616 0.0
H3654 H 0.70726 0.81532 0.66615 0.0
H3655 H 0.68729 0.80235 0.63866 0.0
H3656 H 0.69868 0.77914 0.5833 0.0
H3657 H 0.71901 0.7926 0.60906 0.0
H3658 H 0.68412 0.78019 0.53076 0.0
H3659 H 0.68202 0.77216 0.68081 0.0
H3660 H 0.6851 0.77652 0.75914 0.0
H3661 H 0.66316 0.79257 0.75423 0.0
H3662 H 0.66008 0.78847 0.67574 0.0
H3663 H 0.61435 0.74282 0.56351 0.0
H3664 H 0.63441 0.74979 0.59246 0.0
H3665 H 0.64883 0.77828 0.49861 0.0
H3666 H 0.62909 0.77121 0.46905 0.0
H3667 H 0.6501 0.76937 0.62997 0.0
H3668 H 0.67545 0.78495 0.46425 0.0
H3669 H 0.67223 0.77836 0.38793 0.0
H3670 H 0.64737 0.74272 0.42803 0.0
H3671 H 0.65057 0.74905 0.50462 0.0
C3672 C 0.70555 0.8075 0.64789 0.0
C3673 C 0.71465 0.80491 0.63999 0.0
C3674 C 0.69408 0.80001 0.63252 0.0
C3675 C 0.69134 0.78953 0.61014 0.0
C3676 C 0.70053 0.78711 0.60089 0.0
C3677 C 0.71213 0.79479 0.61549 0.0
C3678 C 0.6789 0.7813 0.59616 0.0
C3679 C 0.6767 0.77775 0.55254 0.0
C3680 C 0.66915 0.77767 0.62492 0.0
C3681 C 0.67086 0.78004 0.67229 0.0
C3682 C 0.67789 0.77667 0.69638 0.0
C3683 C 0.67964 0.77909 0.74082 0.0
C3684 C 0.67434 0.78482 0.76164 0.0
C3685 C 0.66726 0.78812 0.73807 0.0
C3686 C 0.66549 0.78573 0.69361 0.0
C3687 C 0.62183 0.75055 0.54913 0.0
C3688 C 0.62016 0.75642 0.51388 0.0
C3689 C 0.63327 0.75452 0.56563 0.0
C3690 C 0.64318 0.76441 0.54707 0.0
C3691 C 0.64141 0.77042 0.51267 0.0
C3692 C 0.63007 0.76642 0.49603 0.0
C3693 C 0.65537 0.76884 0.56416 0.0
C3694 C 0.65753 0.77164 0.60838 0.0
C3695 C 0.66505 0.7714 0.5363 0.0
C3696 C 0.66321 0.7675 0.49023 0.0
C3697 C 0.66936 0.77569 0.45683 0.0
C3698 C 0.66752 0.772 0.4135 0.0
C3699 C 0.65958 0.76013 0.40313 0.0
C3700 C 0.65349 0.75192 0.43609 0.0
C3701 C 0.6553 0.75556 0.47947 0.0
H3702 H 0.65816 0.7573 0.36957 0.0
H3703 H 0.67572 0.7867 0.79604 0.0
H3704 H 0.20972 0.9278 0.61871 0.0
H3705 H 0.22154 0.91923 0.59139 0.0
H3706 H 0.18986 0.88459 0.587 0.0
H3707 H 0.17838 0.89304 0.6175 0.0
H3708 H 0.20539 0.88165 0.62044 0.0
H3709 H 0.2058 0.90313 0.49267 0.0
H3710 H 0.20926 0.92059 0.44965 0.0
H3711 H 0.2464 0.93816 0.48155 0.0
H3712 H 0.24313 0.92085 0.52518 0.0
H3713 H 0.22413 0.85307 0.4675 0.0
H3714 H 0.21601 0.86527 0.49401 0.0
H3715 H 0.24848 0.88742 0.56392 0.0
H3716 H 0.25663 0.87499 0.53843 0.0
H3717 H 0.23482 0.8979 0.50071 0.0
H3718 H 0.23269 0.87426 0.62833 0.0
H3719 H 0.22781 0.8551 0.66176 0.0
H3720 H 0.1916 0.83997 0.61941 0.0
H3721 H 0.19634 0.859 0.58498 0.0
C3722 C 0.20532 0.9184 0.61116 0.0
C3723 C 0.19317 0.91105 0.61984 0.0
C3724 C 0.21205 0.91349 0.59541 0.0
C3725 C 0.20662 0.90123 0.58668 0.0
C3726 C 0.19433 0.89404 0.59376 0.0
C3727 C 0.18773 0.89887 0.61083 0.0
C3728 C 0.2137 0.89564 0.57266 0.0
C3729 C 0.21175 0.88524 0.59403 0.0
C3730 C 0.22222 0.90033 0.53872 0.0
C3731 C 0.2242 0.91075 0.51258 0.0
C3732 C 0.21469 0.91075 0.49077 0.0
C3733 C 0.21662 0.92062 0.46624 0.0
C3734 C 0.22804 0.93049 0.46299 0.0
C3735 C 0.23756 0.93051 0.48416 0.0
C3736 C 0.23567 0.92067 0.50877 0.0
C3737 C 0.22958 0.86054 0.48846 0.0
C3738 C 0.241 0.86303 0.50115 0.0
C3739 C 0.22494 0.86751 0.50341 0.0
C3740 C 0.23168 0.87722 0.5307 0.0
C3741 C 0.2432 0.87996 0.54269 0.0
C3742 C 0.24779 0.87283 0.52836 0.0
C3743 C 0.2263 0.88402 0.54821 0.0
C3744 C 0.22855 0.89455 0.52745 0.0
C3745 C 0.21784 0.87933 0.58192 0.0
C3746 C 0.2149 0.86801 0.60377 0.0
C3747 C 0.22371 0.86682 0.62587 0.0
C3748 C 0.22096 0.85598 0.64505 0.0
C3749 C 0.2094 0.8463 0.64263 0.0
C3750 C 0.20055 0.84746 0.62122 0.0
C3751 C 0.20326 0.85828 0.6019 0.0
H3752 H 0.20729 0.83791 0.65739 0.0
H3753 H 0.22951 0.93812 0.44397 0.0
H3754 H 0.13662 0.36836 0.43913 0.0
H3755 H 0.12465 0.348 0.46499 0.0
H3756 H 0.11417 0.36053 0.57696 0.0
H3757 H 0.12608 0.38106 0.55071 0.0
H3758 H 0.12855 0.33953 0.53655 0.0
H3759 H 0.08676 0.33754 0.61235 0.0
H3760 H 0.0739 0.34624 0.60058 0.0
H3761 H 0.08345 0.35141 0.46566 0.0
H3762 H 0.09623 0.34259 0.47648 0.0
H3763 H 0.10247 0.29396 0.68894 0.0
H3764 H 0.10979 0.31298 0.6525 0.0
H3765 H 0.08313 0.29609 0.55307 0.0
H3766 H 0.07562 0.27681 0.5898 0.0
H3767 H 0.0861 0.3182 0.58047 0.0
H3768 H 0.11089 0.30328 0.52359 0.0
H3769 H 0.12392 0.29453 0.52699 0.0
H3770 H 0.14746 0.32222 0.61369 0.0
H3771 H 0.13475 0.33134 0.60977 0.0
C3772 C 0.13167 0.3668 0.46903 0.0
C3773 C 0.13236 0.37631 0.4931 0.0
C3774 C 0.12482 0.35515 0.48375 0.0
C3775 C 0.11852 0.35273 0.52288 0.0
C3776 C 0.11886 0.36217 0.5464 0.0
C3777 C 0.1257 0.37389 0.5315 0.0
C3778 C 0.11246 0.34045 0.54047 0.0
C3779 C 0.11925 0.33489 0.54598 0.0
C3780 C 0.1003 0.33431 0.55234 0.0
C3781 C 0.09254 0.33951 0.54537 0.0
C3782 C 0.08608 0.3405 0.58014 0.0
C3783 C 0.07881 0.34545 0.57364 0.0
C3784 C 0.07789 0.34941 0.53243 0.0
C3785 C 0.08421 0.34838 0.4976 0.0
C3786 C 0.09148 0.34343 0.50392 0.0
C3787 C 0.0981 0.29424 0.6594 0.0
C3788 C 0.08852 0.28386 0.64203 0.0
C3789 C 0.10232 0.30514 0.63859 0.0
C3790 C 0.0971 0.30591 0.59983 0.0
C3791 C 0.08729 0.29565 0.58294 0.0
C3792 C 0.08304 0.28466 0.60386 0.0
C3793 C 0.10227 0.31745 0.57676 0.0
C3794 C 0.09536 0.32288 0.57062 0.0
C3795 C 0.11429 0.32346 0.56352 0.0
C3796 C 0.12183 0.31791 0.56669 0.0
C3797 C 0.11881 0.30744 0.54359 0.0
C3798 C 0.12614 0.30244 0.54555 0.0
C3799 C 0.13642 0.30772 0.57097 0.0
C3800 C 0.13947 0.31811 0.59412 0.0
C3801 C 0.13225 0.32325 0.59181 0.0
H3802 H 0.14207 0.3038 0.57252 0.0
H3803 H 0.07226 0.35325 0.52747 0.0
H3804 H 0.04971 0.58066 0.75498 0.0
H3805 H 0.02951 0.57272 0.72652 0.0
H3806 H 0.01517 0.55964 0.85413 0.0
H3807 H 0.03522 0.56699 0.88191 0.0
H3808 H 0.00253 0.54361 0.80037 0.0
H3809 H 0.01653 0.58533 0.80564 0.0
H3810 H 0.03015 0.60664 0.79157 0.0
H3811 H 0.02519 0.60039 0.65432 0.0
H3812 H 0.01167 0.57901 0.66755 0.0
H3813 H 0.9439 0.52985 0.7401 0.0
H3814 H 0.96342 0.54112 0.77551 0.0
H3815 H 0.98067 0.54719 0.65096 0.0
H3816 H 0.96133 0.53588 0.61566 0.0
H3817 H 0.99095 0.56745 0.70795 0.0
H3818 H 0.97808 0.52519 0.70594 0.0
H3819 H 0.96341 0.50426 0.72188 0.0
H3820 H 0.96546 0.51236 0.8578 0.0
H3821 H 0.98003 0.53341 0.84253 0.0
C3822 C 0.04222 0.57612 0.77684 0.0
C3823 C 0.04401 0.57444 0.82058 0.0
C3824 C 0.03068 0.57164 0.76069 0.0
C3825 C 0.02077 0.56572 0.78831 0.0
C3826 C 0.02262 0.56414 0.83209 0.0
C3827 C 0.0341 0.56837 0.84796 0.0
C3828 C 0.00844 0.56084 0.77157 0.0
C3829 C 1.0 0.54894 0.78083 0.0
C3830 C 0.00506 0.56769 0.74569 0.0
C3831 C 0.01317 0.58055 0.7376 0.0
C3832 C 0.01841 0.58849 0.77245 0.0
C3833 C 0.0261 0.60058 0.76463 0.0
C3834 C 0.02856 0.60486 0.72208 0.0
C3835 C 0.0233 0.59706 0.68726 0.0
C3836 C 0.01561 0.58495 0.6949 0.0
C3837 C 0.95186 0.53377 0.72034 0.0
C3838 C 0.95115 0.53195 0.67526 0.0
C3839 C 0.96297 0.54017 0.74052 0.0
C3840 C 0.97345 0.54493 0.71574 0.0
C3841 C 0.97269 0.54362 0.67055 0.0
C3842 C 0.96164 0.5371 0.65052 0.0
C3843 C 0.98525 0.55035 0.73675 0.0
C3844 C 0.99355 0.56228 0.72809 0.0
C3845 C 0.98846 0.54361 0.76367 0.0
C3846 C 0.98006 0.53088 0.77307 0.0
C3847 C 0.97537 0.52251 0.73921 0.0
C3848 C 0.96707 0.51063 0.74811 0.0
C3849 C 0.96349 0.50698 0.79081 0.0
C3850 C 0.96824 0.5152 0.82473 0.0
C3851 C 0.97653 0.52711 0.81598 0.0
H3852 H 0.95705 0.49778 0.7976 0.0
H3853 H 0.03451 0.61423 0.71609 0.0
H3854 H 0.43604 0.47574 0.86292 0.0
H3855 H 0.4447 0.46473 0.83017 0.0
H3856 H 0.41879 0.453 0.72717 0.0
H3857 H 0.41005 0.46417 0.75973 0.0
H3858 H 0.42305 0.43476 0.76247 0.0
H3859 H 0.44408 0.47391 0.70256 0.0
H3860 H 0.45486 0.49581 0.70579 0.0
H3861 H 0.48217 0.49543 0.78307 0.0
H3862 H 0.47144 0.4735 0.78094 0.0
H3863 H 0.47377 0.43541 0.62357 0.0
H3864 H 0.4622 0.44435 0.64835 0.0
H3865 H 0.45319 0.42352 0.76579 0.0
H3866 H 0.46468 0.41435 0.74073 0.0
H3867 H 0.46524 0.45792 0.71599 0.0
H3868 H 0.42558 0.41763 0.79969 0.0
H3869 H 0.41408 0.39578 0.79284 0.0
H3870 H 0.42303 0.3985 0.65757 0.0
H3871 H 0.43444 0.42035 0.66347 0.0
C3872 C 0.43213 0.4708 0.83337 0.0
C3873 C 0.42242 0.4709 0.81367 0.0
C3874 C 0.43709 0.4645 0.81476 0.0
C3875 C 0.43242 0.45813 0.7762 0.0
C3876 C 0.42249 0.45788 0.75701 0.0
C3877 C 0.41756 0.46429 0.77549 0.0
C3878 C 0.43834 0.45222 0.7553 0.0
C3879 C 0.43225 0.43979 0.75213 0.0
C3880 C 0.45028 0.45885 0.74123 0.0
C3881 C 0.4569 0.47205 0.74188 0.0
C3882 C 0.45235 0.47849 0.7205 0.0
C3883 C 0.45845 0.49091 0.72211 0.0
C3884 C 0.46918 0.49701 0.74471 0.0
C3885 C 0.47385 0.49069 0.76561 0.0
C3886 C 0.46777 0.47827 0.76418 0.0
C3887 C 0.4693 0.43268 0.65464 0.0
C3888 C 0.47014 0.42417 0.68025 0.0
C3889 C 0.4627 0.43783 0.66878 0.0
C3890 C 0.45676 0.43456 0.70877 0.0
C3891 C 0.45756 0.42605 0.73451 0.0
C3892 C 0.46417 0.42086 0.72028 0.0
C3893 C 0.45004 0.44036 0.72381 0.0
C3894 C 0.45601 0.45283 0.72605 0.0
C3895 C 0.43793 0.43376 0.73621 0.0
C3896 C 0.43096 0.42062 0.73217 0.0
C3897 C 0.42505 0.41356 0.76845 0.0
C3898 C 0.41855 0.40118 0.76474 0.0
C3899 C 0.41786 0.39575 0.72483 0.0
C3900 C 0.42362 0.40271 0.68851 0.0
C3901 C 0.43011 0.41509 0.69203 0.0
H3902 H 0.41283 0.38616 0.72204 0.0
H3903 H 0.47389 0.50663 0.74595 0.0
H3904 H 0.53893 0.96145 0.87674 0.0
H3905 H 0.5505 0.98132 0.84557 0.0
H3906 H 0.53812 0.96681 0.71762 0.0
H3907 H 0.52712 0.94672 0.74885 0.0
H3908 H 0.55969 0.98442 0.71113 0.0
H3909 H 0.5247 0.97962 0.78052 0.0
H3910 H 0.51029 0.97461 0.84011 0.0
H3911 H 0.53727 0.00217 0.91885 0.0
H3912 H 0.55191 0.00722 0.85994 0.0
H3913 H 0.56547 0.03769 0.62022 0.0
H3914 H 0.5578 0.01766 0.64922 0.0
H3915 H 0.57696 0.03237 0.7685 0.0
H3916 H 0.58481 0.05254 0.73942 0.0
H3917 H 0.55246 0.01492 0.77876 0.0
H3918 H 0.58711 0.01994 0.70237 0.0
H3919 H 0.60017 0.02467 0.63853 0.0
H3920 H 0.57171 0.99636 0.5671 0.0
H3921 H 0.55843 0.99156 0.63034 0.0
C3922 C 0.53889 0.96251 0.84186 0.0
C3923 C 0.53215 0.95265 0.81509 0.0
C3924 C 0.54541 0.97386 0.82409 0.0
C3925 C 0.54489 0.97564 0.77937 0.0
C3926 C 0.5386 0.96569 0.75225 0.0
C3927 C 0.53234 0.95423 0.77 0.0
C3928 C 0.55036 0.98792 0.76161 0.0
C3929 C 0.558 0.99103 0.72567 0.0
C3930 C 0.54824 0.99664 0.78065 0.0
C3931 C 0.53942 0.99373 0.81595 0.0
C3932 C 0.52758 0.98457 0.81063 0.0
C3933 C 0.51937 0.98172 0.84428 0.0
C3934 C 0.52287 0.98805 0.88327 0.0
C3935 C 0.53458 0.99727 0.88864 0.0
C3936 C 0.54283 1.00013 0.85513 0.0
C3937 C 0.5681 0.03668 0.65258 0.0
C3938 C 0.57573 0.04668 0.67761 0.0
C3939 C 0.56375 0.02522 0.66898 0.0
C3940 C 0.56689 0.02355 0.71082 0.0
C3941 C 0.57448 0.0335 0.73603 0.0
C3942 C 0.57896 0.04499 0.7194 0.0
C3943 C 0.56183 0.01139 0.72875 0.0
C3944 C 0.55419 0.00829 0.76452 0.0
C3945 C 0.56373 0.00265 0.7089 0.0
C3946 C 0.57175 0.00546 0.67099 0.0
C3947 C 0.58361 0.01478 0.67295 0.0
C3948 C 0.59106 0.01747 0.63689 0.0
C3949 C 0.58677 0.01084 0.59875 0.0
C3950 C 0.57502 0.00149 0.59665 0.0
C3951 C 0.56754 0.99878 0.63261 0.0
H3952 H 0.59254 0.01293 0.57086 0.0
H3953 H 0.5165 0.98583 0.90929 0.0
H3954 H 0.46867 0.03778 0.12363 0.0
H3955 H 0.45736 0.01805 0.15662 0.0
H3956 H 0.46186 0.03412 0.28275 0.0
H3957 H 0.47293 0.054 0.24972 0.0
H3958 H 0.4689 0.01286 0.25316 0.0
H3959 H 0.43867 0.02479 0.27452 0.0
H3960 H 0.42626 0.03285 0.24732 0.0
H3961 H 0.41174 0.00578 0.14912 0.0
H3962 H 0.42422 0.99768 0.1754 0.0
H3963 H 0.4355 0.96274 0.38338 0.0
H3964 H 0.44453 0.98272 0.35297 0.0
H3965 H 0.42392 0.9686 0.23595 0.0
H3966 H 0.41462 0.94849 0.26673 0.0
H3967 H 0.42484 0.98903 0.25951 0.0
H3968 H 0.45251 0.9757 0.23808 0.0
H3969 H 0.46481 0.96693 0.25885 0.0
H3970 H 0.4846 0.99577 0.34725 0.0
H3971 H 0.47225 0.00459 0.32777 0.0
C3972 C 0.46717 0.03712 0.15836 0.0
C3973 C 0.47165 0.04739 0.18419 0.0
C3974 C 0.4607 0.02587 0.17706 0.0
C3975 C 0.45876 0.0247 0.22192 0.0
C3976 C 0.46322 0.03491 0.24794 0.0
C3977 C 0.4695 0.04622 0.2291 0.0
C3978 C 0.45251 0.01274 0.24143 0.0
C3979 C 0.45928 0.0077 0.25542 0.0
C3980 C 0.43998 0.0059 0.24225 0.0
C3981 C 0.43249 0.01074 0.22653 0.0
C3982 C 0.43294 0.02065 0.2468 0.0
C3983 C 0.42587 0.02521 0.23165 0.0
C3984 C 0.41825 0.01986 0.19641 0.0
C3985 C 0.41767 0.00993 0.17634 0.0
C3986 C 0.42473 0.00535 0.19137 0.0
C3987 C 0.43284 0.96387 0.35123 0.0
C3988 C 0.42442 0.95405 0.32726 0.0
C3989 C 0.43803 0.9753 0.33386 0.0
C3990 C 0.43503 0.97712 0.29195 0.0
C3991 C 0.42637 0.96738 0.26834 0.0
C3992 C 0.4211 0.95591 0.28587 0.0
C3993 C 0.44123 0.98919 0.27263 0.0
C3994 C 0.43447 0.9942 0.25793 0.0
C3995 C 0.4538 0.99593 0.27041 0.0
C3996 C 0.46137 0.99075 0.28177 0.0
C3997 C 0.45943 0.98013 0.2622 0.0
C3998 C 0.46641 0.97515 0.27371 0.0
C3999 C 0.47547 0.98078 0.30437 0.0
C4000 C 0.47757 0.99141 0.32354 0.0
C4001 C 0.47058 0.99641 0.31228 0.0
H4002 H 0.48087 0.97692 0.31323 0.0
H4003 H 0.41278 0.02339 0.18473 0.0
H4004 H 0.03804 0.46886 0.38068 0.0
H4005 H 0.01822 0.45681 0.34948 0.0
H4006 H 0.03383 0.45772 0.225 0.0
H4007 H 0.05381 0.46965 0.25633 0.0
H4008 H 0.01555 0.4646 0.22663 0.0
H4009 H 0.02221 0.43305 0.27477 0.0
H4010 H 0.02746 0.42238 0.32861 0.0
H4011 H 0.99835 0.41737 0.40933 0.0
H4012 H 0.99304 0.42816 0.35623 0.0
H4013 H 0.96418 0.4268 0.11341 0.0
H4014 H 0.98374 0.43496 0.14659 0.0
H4015 H 0.96766 0.42698 0.27378 0.0
H4016 H 0.94785 0.41827 0.24025 0.0
H4017 H 0.98623 0.42351 0.27244 0.0
H4018 H 0.97944 0.45485 0.23068 0.0
H4019 H 0.97373 0.46617 0.18174 0.0
H4020 H 0.00255 0.4729 0.09623 0.0
H4021 H 0.00831 0.46144 0.14431 0.0
C4022 C 0.03727 0.46643 0.34671 0.0
C4023 C 0.04745 0.4702 0.32084 0.0
C4024 C 0.02595 0.45951 0.32904 0.0
C4025 C 0.0246 0.45635 0.28508 0.0
C4026 C 0.03474 0.46005 0.25909 0.0
C4027 C 0.04611 0.46683 0.27698 0.0
C4028 C 0.01256 0.44968 0.26599 0.0
C4029 C 0.00919 0.45554 0.23597 0.0
C4030 C 0.00416 0.43808 0.27989 0.0
C4031 C 0.00729 0.43151 0.31169 0.0
C4032 C 0.01699 0.42976 0.30416 0.0
C4033 C 0.01996 0.42367 0.33452 0.0
C4034 C 0.01326 0.41923 0.37241 0.0
C4035 C 0.00355 0.42083 0.37997 0.0
C4036 C 0.00054 0.42692 0.34974 0.0
C4037 C 0.9648 0.42665 0.14846 0.0
C4038 C 0.95455 0.42204 0.17437 0.0
C4039 C 0.97598 0.43135 0.16739 0.0
C4040 C 0.9772 0.43187 0.2127 0.0
C4041 C 0.96693 0.42674 0.23873 0.0
C4042 C 0.95564 0.42179 0.21964 0.0
C4043 C 0.98923 0.43836 0.23237 0.0
C4044 C 0.99259 0.43254 0.26279 0.0
C4045 C 0.99757 0.45014 0.21965 0.0
C4046 C 0.99425 0.4572 0.19093 0.0
C4047 C 0.98452 0.45868 0.2013 0.0
C4048 C 0.98127 0.46513 0.17372 0.0
C4049 C 0.98776 0.47023 0.13586 0.0
C4050 C 0.99752 0.46893 0.12556 0.0
C4051 C 0.00079 0.46247 0.15298 0.0
H4052 H 0.98523 0.47521 0.11453 0.0
H4053 H 0.01558 0.41452 0.39588 0.0
H4054 H 0.55699 0.51437 0.18056 0.0
H4055 H 0.54995 0.52782 0.20198 0.0
H4056 H 0.5856 0.55418 0.23943 0.0
H4057 H 0.59258 0.54031 0.21999 0.0
H4058 H 0.5708 0.5552 0.29312 0.0
H4059 H 0.57321 0.55595 0.14017 0.0
H4060 H 0.5705 0.54792 0.06591 0.0
H4061 H 0.53261 0.53095 0.08036 0.0
H4062 H 0.53507 0.53871 0.15495 0.0
H4063 H 0.54372 0.59384 0.28682 0.0
H4064 H 0.55678 0.5867 0.25803 0.0
H4065 H 0.52896 0.55048 0.27863 0.0
H4066 H 0.5162 0.55749 0.30865 0.0
H4067 H 0.5442 0.55957 0.18829 0.0
H4068 H 0.54418 0.55566 0.35032 0.0
H4069 H 0.54791 0.56497 0.42272 0.0
H4070 H 0.58349 0.59065 0.38455 0.0
H4071 H 0.57988 0.58155 0.31167 0.0
C4072 C 0.5633 0.52297 0.19386 0.0
C4073 C 0.57533 0.52636 0.19833 0.0
C4074 C 0.5593 0.53072 0.2057 0.0
C4075 C 0.56732 0.54221 0.22077 0.0
C4076 C 0.57927 0.54542 0.22733 0.0
C4077 C 0.58324 0.5375 0.2164 0.0
C4078 C 0.56306 0.55074 0.22908 0.0
C4079 C 0.56522 0.55634 0.26972 0.0
C4080 C 0.5559 0.55246 0.19843 0.0
C4081 C 0.55434 0.54789 0.15328 0.0
C4082 C 0.5643 0.55046 0.1276 0.0
C4083 C 0.56281 0.54596 0.08543 0.0
C4084 C 0.55139 0.53892 0.06844 0.0
C4085 C 0.54145 0.5364 0.09355 0.0
C4086 C 0.54289 0.54087 0.13576 0.0
C4087 C 0.5404 0.58437 0.28458 0.0
C4088 C 0.52899 0.5762 0.30004 0.0
C4089 C 0.54784 0.58032 0.26835 0.0
C4090 C 0.54379 0.56808 0.26649 0.0
C4091 C 0.53222 0.55996 0.27995 0.0
C4092 C 0.52495 0.56398 0.29715 0.0
C4093 C 0.5516 0.56349 0.25256 0.0
C4094 C 0.55009 0.55864 0.21092 0.0
C4095 C 0.55955 0.5627 0.28175 0.0
C4096 C 0.56172 0.56804 0.32554 0.0
C4097 C 0.55276 0.56336 0.35728 0.0
C4098 C 0.55486 0.56858 0.3984 0.0
C4099 C 0.56592 0.57842 0.40819 0.0
C4100 C 0.57492 0.58304 0.3769 0.0
C4101 C 0.57285 0.57786 0.33571 0.0
H4102 H 0.56753 0.58245 0.44004 0.0
H4103 H 0.55026 0.53543 0.03581 0.0
loop_
_geom_bond_atom_site_label_1
_geom_bond_atom_site_label_2
_geom_bond_distance
_geom_bond_site_symmetry_2
_ccdc_geom_bond_type
Co0 O1 2.216 . S
Co0 O2 2.091 . S
Co0 O4 2.004 . S
Co0 O10 2.021 . S
Co0 O12 2.137 . S
Co0 O13 2.244 . S
O1 Co0 2.216 . S
O1 C8 1.247 . S
O2 Co0 2.091 . S
O2 C8 1.261 . S
C3 O12 1.247 . S
C3 O13 1.272 . S
O4 Co0 2.004 . S
O4 C9 1.259 . S
Co5 O6 2.061 . S
Co5 O11 2.052 . S
Co5 O13 2.135 . S
O6 Co5 2.061 . S
O6 C9 1.235 . S
C7 O10 1.238 . S
C7 O11 1.241 . S
C8 O1 1.247 . S
C8 O2 1.261 . S
C9 O4 1.259 . S
C9 O6 1.235 . S
O10 Co0 2.021 . S
O10 C7 1.238 . S
O11 Co5 2.052 . S
O11 C7 1.241 . S
O12 Co0 2.137 . S
O12 C3 1.247 . S
O13 Co0 2.244 . S
O13 C3 1.272 . S
O13 Co5 2.135 . S
Co14 O15 2.216 . S
Co14 O16 2.091 . S
Co14 O18 2.004 . S
Co14 O24 2.021 . S
Co14 O26 2.137 . S
Co14 O27 2.244 . S
O15 Co14 2.216 . S
O15 C22 1.247 . S
O16 Co14 2.091 . S
O16 C22 1.261 . S
C17 O26 1.247 . S
C17 O27 1.272 . S
O18 Co14 2.004 . S
O18 C23 1.259 . S
Co19 O20 2.061 . S
Co19 O25 2.052 . S
Co19 O27 2.135 . S
O20 Co19 2.061 . S
O20 C23 1.235 . S
C21 O24 1.238 . S
C21 O25 1.241 . S
C22 O15 1.247 . S
C22 O16 1.261 . S
C23 O18 1.259 . S
C23 O20 1.235 . S
O24 Co14 2.021 . S
O24 C21 1.238 . S
O25 Co19 2.052 . S
O25 C21 1.241 . S
O26 Co14 2.137 . S
O26 C17 1.247 . S
O27 Co14 2.244 . S
O27 C17 1.272 . S
O27 Co19 2.135 . S
Co28 O29 2.216 . S
Co28 O30 2.091 . S
Co28 O32 2.004 . S
Co28 O38 2.021 . S
Co28 O40 2.137 . S
Co28 O41 2.244 . S
O29 Co28 2.216 . S
O29 C36 1.247 . S
O30 Co28 2.091 . S
O30 C36 1.261 . S
C31 O40 1.247 . S
C31 O41 1.272 . S
O32 Co28 2.004 . S
O32 C37 1.259 . S
Co33 O34 2.061 . S
Co33 O39 2.052 . S
Co33 O41 2.135 . S
O34 Co33 2.061 . S
O34 C37 1.235 . S
C35 O38 1.238 . S
C35 O39 1.241 . S
C36 O29 1.247 . S
C36 O30 1.261 . S
C37 O32 1.259 . S
C37 O34 1.235 . S
O38 Co28 2.021 . S
O38 C35 1.238 . S
O39 Co33 2.052 . S
O39 C35 1.241 . S
O40 Co28 2.137 . S
O40 C31 1.247 . S
O41 Co28 2.244 . S
O41 C31 1.272 . S
O41 Co33 2.135 . S
Co42 O43 2.216 . S
Co42 O44 2.091 . S
Co42 O46 2.004 . S
Co42 O52 2.021 . S
Co42 O54 2.137 . S
Co42 O55 2.244 . S
O43 Co42 2.216 . S
O43 C50 1.247 . S
O44 Co42 2.091 . S
O44 C50 1.261 . S
C45 O54 1.247 . S
C45 O55 1.272 . S
O46 Co42 2.004 . S
O46 C51 1.259 . S
Co47 O48 2.061 . S
Co47 O53 2.052 . S
Co47 O55 2.135 . S
O48 Co47 2.061 . S
O48 C51 1.235 . S
C49 O52 1.238 . S
C49 O53 1.241 . S
C50 O43 1.247 . S
C50 O44 1.261 . S
C51 O46 1.259 . S
C51 O48 1.235 . S
O52 Co42 2.021 . S
O52 C49 1.238 . S
O53 Co47 2.052 . S
O53 C49 1.241 . S
O54 Co42 2.137 . S
O54 C45 1.247 . S
O55 Co42 2.244 . S
O55 C45 1.272 . S
O55 Co47 2.135 . S
Co56 O57 2.216 . S
Co56 O58 2.091 . S
Co56 O60 2.004 . S
Co56 O66 2.021 . S
Co56 O68 2.137 . S
Co56 O69 2.244 . S
O57 Co56 2.216 . S
O57 C64 1.247 . S
O58 Co56 2.091 . S
O58 C64 1.261 . S
C59 O68 1.247 . S
C59 O69 1.272 . S
O60 Co56 2.004 . S
O60 C65 1.259 . S
Co61 O62 2.061 . S
Co61 O67 2.052 . S
Co61 O69 2.135 . S
O62 Co61 2.061 . S
O62 C65 1.235 . S
C63 O66 1.238 . S
C63 O67 1.241 . S
C64 O57 1.247 . S
C64 O58 1.261 . S
C65 O60 1.259 . S
C65 O62 1.235 . S
O66 Co56 2.021 . S
O66 C63 1.238 . S
O67 Co61 2.052 . S
O67 C63 1.241 . S
O68 Co56 2.137 . S
O68 C59 1.247 . S
O69 Co56 2.244 . S
O69 C59 1.272 . S
O69 Co61 2.135 . S
Co70 O71 2.216 . S
Co70 O72 2.091 . S
Co70 O74 2.004 . S
Co70 O80 2.021 . S
Co70 O82 2.137 . S
Co70 O83 2.244 . S
O71 Co70 2.216 . S
O71 C78 1.247 . S
O72 Co70 2.091 . S
O72 C78 1.261 . S
C73 O82 1.247 . S
C73 O83 1.272 . S
O74 Co70 2.004 . S
O74 C79 1.259 . S
Co75 O76 2.061 . S
Co75 O81 2.052 . S
Co75 O83 2.135 . S
O76 Co75 2.061 . S
O76 C79 1.235 . S
C77 O80 1.238 . S
C77 O81 1.241 . S
C78 O71 1.247 . S
C78 O72 1.261 . S
C79 O74 1.259 . S
C79 O76 1.235 . S
O80 Co70 2.021 . S
O80 C77 1.238 . S
O81 Co75 2.052 . S
O81 C77 1.241 . S
O82 Co70 2.137 . S
O82 C73 1.247 . S
O83 Co70 2.244 . S
O83 C73 1.272 . S
O83 Co75 2.135 . S
Co84 O85 2.216 . S
Co84 O86 2.091 . S
Co84 O88 2.004 . S
Co84 O94 2.021 . S
Co84 O96 2.137 . S
Co84 O97 2.244 . S
O85 Co84 2.216 . S
O85 C92 1.247 . S
O86 Co84 2.091 . S
O86 C92 1.261 . S
C87 O96 1.247 . S
C87 O97 1.272 . S
O88 Co84 2.004 . S
O88 C93 1.259 . S
Co89 O90 2.061 . S
Co89 O95 2.052 . S
Co89 O97 2.135 . S
O90 Co89 2.061 . S
O90 C93 1.235 . S
C91 O94 1.238 . S
C91 O95 1.241 . S
C92 O85 1.247 . S
C92 O86 1.261 . S
C93 O88 1.259 . S
C93 O90 1.235 . S
O94 Co84 2.021 . S
O94 C91 1.238 . S
O95 Co89 2.052 . S
O95 C91 1.241 . S
O96 Co84 2.137 . S
O96 C87 1.247 . S
O97 Co84 2.244 . S
O97 C87 1.272 . S
O97 Co89 2.135 . S
Co98 O99 2.216 . S
Co98 O100 2.091 . S
Co98 O102 2.004 . S
Co98 O108 2.021 . S
Co98 O110 2.137 . S
Co98 O111 2.244 . S
O99 Co98 2.216 . S
O99 C106 1.247 . S
O100 Co98 2.091 . S
O100 C106 1.261 . S
C101 O110 1.247 . S
C101 O111 1.272 . S
O102 Co98 2.004 . S
O102 C107 1.259 . S
Co103 O104 2.061 . S
Co103 O109 2.052 . S
Co103 O111 2.135 . S
O104 Co103 2.061 . S
O104 C107 1.235 . S
C105 O108 1.238 . S
C105 O109 1.241 . S
C106 O99 1.247 . S
C106 O100 1.261 . S
C107 O102 1.259 . S
C107 O104 1.235 . S
O108 Co98 2.021 . S
O108 C105 1.238 . S
O109 Co103 2.052 . S
O109 C105 1.241 . S
O110 Co98 2.137 . S
O110 C101 1.247 . S
O111 Co98 2.244 . S
O111 C101 1.272 . S
O111 Co103 2.135 . S
Co112 O113 2.216 . S
Co112 O114 2.091 . S
Co112 O116 2.004 . S
Co112 O122 2.021 . S
Co112 O124 2.137 . S
Co112 O125 2.244 . S
O113 Co112 2.216 . S
O113 C120 1.247 . S
O114 Co112 2.091 . S
O114 C120 1.261 . S
C115 O124 1.247 . S
C115 O125 1.272 . S
O116 Co112 2.004 . S
O116 C121 1.259 . S
Co117 O118 2.061 . S
Co117 O123 2.052 . S
Co117 O125 2.135 . S
O118 Co117 2.061 . S
O118 C121 1.235 . S
C119 O122 1.238 . S
C119 O123 1.241 . S
C120 O113 1.247 . S
C120 O114 1.261 . S
C121 O116 1.259 . S
C121 O118 1.235 . S
O122 Co112 2.021 . S
O122 C119 1.238 . S
O123 Co117 2.052 . S
O123 C119 1.241 . S
O124 Co112 2.137 . S
O124 C115 1.247 . S
O125 Co112 2.244 . S
O125 C115 1.272 . S
O125 Co117 2.135 . S
Co126 O127 2.216 . S
Co126 O128 2.091 . S
Co126 O130 2.004 . S
Co126 O136 2.021 . S
Co126 O138 2.137 . S
Co126 O139 2.244 . S
O127 Co126 2.216 . S
O127 C134 1.247 . S
O128 Co126 2.091 . S
O128 C134 1.261 . S
C129 O138 1.247 . S
C129 O139 1.272 . S
O130 Co126 2.004 . S
O130 C135 1.259 . S
Co131 O132 2.061 . S
Co131 O137 2.052 . S
Co131 O139 2.135 . S
O132 Co131 2.061 . S
O132 C135 1.235 . S
C133 O136 1.238 . S
C133 O137 1.241 . S
C134 O127 1.247 . S
C134 O128 1.261 . S
C135 O130 1.259 . S
C135 O132 1.235 . S
O136 Co126 2.021 . S
O136 C133 1.238 . S
O137 Co131 2.052 . S
O137 C133 1.241 . S
O138 Co126 2.137 . S
O138 C129 1.247 . S
O139 Co126 2.244 . S
O139 C129 1.272 . S
O139 Co131 2.135 . S
Co140 O141 2.216 . S
Co140 O142 2.091 . S
Co140 O144 2.004 . S
Co140 O150 2.021 . S
Co140 O152 2.137 . S
Co140 O153 2.244 . S
O141 Co140 2.216 . S
O141 C148 1.247 . S
O142 Co140 2.091 . S
O142 C148 1.261 . S
C143 O152 1.247 . S
C143 O153 1.272 . S
O144 Co140 2.004 . S
O144 C149 1.259 . S
Co145 O146 2.061 . S
Co145 O151 2.052 . S
Co145 O153 2.135 . S
O146 Co145 2.061 . S
O146 C149 1.235 . S
C147 O150 1.238 . S
C147 O151 1.241 . S
C148 O141 1.247 . S
C148 O142 1.261 . S
C149 O144 1.259 . S
C149 O146 1.235 . S
O150 Co140 2.021 . S
O150 C147 1.238 . S
O151 Co145 2.052 . S
O151 C147 1.241 . S
O152 Co140 2.137 . S
O152 C143 1.247 . S
O153 Co140 2.244 . S
O153 C143 1.272 . S
O153 Co145 2.135 . S
Co154 O155 2.216 . S
Co154 O156 2.091 . S
Co154 O158 2.004 . S
Co154 O164 2.021 . S
Co154 O166 2.137 . S
Co154 O167 2.244 . S
O155 Co154 2.216 . S
O155 C162 1.247 . S
O156 Co154 2.091 . S
O156 C162 1.261 . S
C157 O166 1.247 . S
C157 O167 1.272 . S
O158 Co154 2.004 . S
O158 C163 1.259 . S
Co159 O160 2.061 . S
Co159 O165 2.052 . S
Co159 O167 2.135 . S
O160 Co159 2.061 . S
O160 C163 1.235 . S
C161 O164 1.238 . S
C161 O165 1.241 . S
C162 O155 1.247 . S
C162 O156 1.261 . S
C163 O158 1.259 . S
C163 O160 1.235 . S
O164 Co154 2.021 . S
O164 C161 1.238 . S
O165 Co159 2.052 . S
O165 C161 1.241 . S
O166 Co154 2.137 . S
O166 C157 1.247 . S
O167 Co154 2.244 . S
O167 C157 1.272 . S
O167 Co159 2.135 . S
Co168 O169 2.216 . S
Co168 O170 2.091 . S
Co168 O172 2.004 . S
Co168 O178 2.021 . S
Co168 O180 2.137 . S
Co168 O181 2.244 . S
O169 Co168 2.216 . S
O169 C176 1.247 . S
O170 Co168 2.091 . S
O170 C176 1.261 . S
C171 O180 1.247 . S
C171 O181 1.272 . S
O172 Co168 2.004 . S
O172 C177 1.259 . S
Co173 O174 2.061 . S
Co173 O179 2.052 . S
Co173 O181 2.135 . S
O174 Co173 2.061 . S
O174 C177 1.235 . S
C175 O178 1.238 . S
C175 O179 1.241 . S
C176 O169 1.247 . S
C176 O170 1.261 . S
C177 O172 1.259 . S
C177 O174 1.235 . S
O178 Co168 2.021 . S
O178 C175 1.238 . S
O179 Co173 2.052 . S
O179 C175 1.241 . S
O180 Co168 2.137 . S
O180 C171 1.247 . S
O181 Co168 2.244 . S
O181 C171 1.272 . S
O181 Co173 2.135 . S
Co182 O183 2.216 . S
Co182 O184 2.091 . S
Co182 O186 2.004 . S
Co182 O192 2.021 . S
Co182 O194 2.137 . S
Co182 O195 2.244 . S
O183 Co182 2.216 . S
O183 C190 1.247 . S
O184 Co182 2.091 . S
O184 C190 1.261 . S
C185 O194 1.247 . S
C185 O195 1.272 . S
O186 Co182 2.004 . S
O186 C191 1.259 . S
Co187 O188 2.061 . S
Co187 O193 2.052 . S
Co187 O195 2.135 . S
O188 Co187 2.061 . S
O188 C191 1.235 . S
C189 O192 1.238 . S
C189 O193 1.241 . S
C190 O183 1.247 . S
C190 O184 1.261 . S
C191 O186 1.259 . S
C191 O188 1.235 . S
O192 Co182 2.021 . S
O192 C189 1.238 . S
O193 Co187 2.052 . S
O193 C189 1.241 . S
O194 Co182 2.137 . S
O194 C185 1.247 . S
O195 Co182 2.244 . S
O195 C185 1.272 . S
O195 Co187 2.135 . S
Co196 O197 2.216 . S
Co196 O198 2.091 . S
Co196 O200 2.004 . S
Co196 O206 2.021 . S
Co196 O208 2.137 . S
Co196 O209 2.244 . S
O197 Co196 2.216 . S
O197 C204 1.247 . S
O198 Co196 2.091 . S
O198 C204 1.261 . S
C199 O208 1.247 . S
C199 O209 1.272 . S
O200 Co196 2.004 . S
O200 C205 1.259 . S
Co201 O202 2.061 . S
Co201 O207 2.052 . S
Co201 O209 2.135 . S
O202 Co201 2.061 . S
O202 C205 1.235 . S
C203 O206 1.238 . S
C203 O207 1.241 . S
C204 O197 1.247 . S
C204 O198 1.261 . S
C205 O200 1.259 . S
C205 O202 1.235 . S
O206 Co196 2.021 . S
O206 C203 1.238 . S
O207 Co201 2.052 . S
O207 C203 1.241 . S
O208 Co196 2.137 . S
O208 C199 1.247 . S
O209 Co196 2.244 . S
O209 C199 1.272 . S
O209 Co201 2.135 . S
Co210 O211 2.216 . S
Co210 O212 2.091 . S
Co210 O214 2.004 . S
Co210 O220 2.021 . S
Co210 O222 2.137 . S
Co210 O223 2.244 . S
O211 Co210 2.216 . S
O211 C218 1.247 . S
O212 Co210 2.091 . S
O212 C218 1.261 . S
C213 O222 1.247 . S
C213 O223 1.272 . S
O214 Co210 2.004 . S
O214 C219 1.259 . S
Co215 O216 2.061 . S
Co215 O221 2.052 . S
Co215 O223 2.135 . S
O216 Co215 2.061 . S
O216 C219 1.235 . S
C217 O220 1.238 . S
C217 O221 1.241 . S
C218 O211 1.247 . S
C218 O212 1.261 . S
C219 O214 1.259 . S
C219 O216 1.235 . S
O220 Co210 2.021 . S
O220 C217 1.238 . S
O221 Co215 2.052 . S
O221 C217 1.241 . S
O222 Co210 2.137 . S
O222 C213 1.247 . S
O223 Co210 2.244 . S
O223 C213 1.272 . S
O223 Co215 2.135 . S
Co224 O225 2.216 . S
Co224 O226 2.091 . S
Co224 O228 2.004 . S
Co224 O234 2.021 . S
Co224 O236 2.137 . S
Co224 O237 2.244 . S
O225 Co224 2.216 . S
O225 C232 1.247 . S
O226 Co224 2.091 . S
O226 C232 1.261 . S
C227 O236 1.247 . S
C227 O237 1.272 . S
O228 Co224 2.004 . S
O228 C233 1.259 . S
Co229 O230 2.061 . S
Co229 O235 2.052 . S
Co229 O237 2.135 . S
O230 Co229 2.061 . S
O230 C233 1.235 . S
C231 O234 1.238 . S
C231 O235 1.241 . S
C232 O225 1.247 . S
C232 O226 1.261 . S
C233 O228 1.259 . S
C233 O230 1.235 . S
O234 Co224 2.021 . S
O234 C231 1.238 . S
O235 Co229 2.052 . S
O235 C231 1.241 . S
O236 Co224 2.137 . S
O236 C227 1.247 . S
O237 Co224 2.244 . S
O237 C227 1.272 . S
O237 Co229 2.135 . S
Co238 O239 2.216 . S
Co238 O240 2.091 . S
Co238 O242 2.004 . S
Co238 O248 2.021 . S
Co238 O250 2.137 . S
Co238 O251 2.244 . S
O239 Co238 2.216 . S
O239 C246 1.247 . S
O240 Co238 2.091 . S
O240 C246 1.261 . S
C241 O250 1.247 . S
C241 O251 1.272 . S
O242 Co238 2.004 . S
O242 C247 1.259 . S
Co243 O244 2.061 . S
Co243 O249 2.052 . S
Co243 O251 2.135 . S
O244 Co243 2.061 . S
O244 C247 1.235 . S
C245 O248 1.238 . S
C245 O249 1.241 . S
C246 O239 1.247 . S
C246 O240 1.261 . S
C247 O242 1.259 . S
C247 O244 1.235 . S
O248 Co238 2.021 . S
O248 C245 1.238 . S
O249 Co243 2.052 . S
O249 C245 1.241 . S
O250 Co238 2.137 . S
O250 C241 1.247 . S
O251 Co238 2.244 . S
O251 C241 1.272 . S
O251 Co243 2.135 . S
Co252 O253 2.216 . S
Co252 O254 2.091 . S
Co252 O256 2.004 . S
Co252 O262 2.021 . S
Co252 O264 2.137 . S
Co252 O265 2.244 . S
O253 Co252 2.216 . S
O253 C260 1.247 . S
O254 Co252 2.091 . S
O254 C260 1.261 . S
C255 O264 1.247 . S
C255 O265 1.272 . S
O256 Co252 2.004 . S
O256 C261 1.259 . S
Co257 O258 2.061 . S
Co257 O263 2.052 . S
Co257 O265 2.135 . S
O258 Co257 2.061 . S
O258 C261 1.235 . S
C259 O262 1.238 . S
C259 O263 1.241 . S
C260 O253 1.247 . S
C260 O254 1.261 . S
C261 O256 1.259 . S
C261 O258 1.235 . S
O262 Co252 2.021 . S
O262 C259 1.238 . S
O263 Co257 2.052 . S
O263 C259 1.241 . S
O264 Co252 2.137 . S
O264 C255 1.247 . S
O265 Co252 2.244 . S
O265 C255 1.272 . S
O265 Co257 2.135 . S
Co266 O267 2.216 . S
Co266 O268 2.091 . S
Co266 O270 2.004 . S
Co266 O276 2.021 . S
Co266 O278 2.137 . S
Co266 O279 2.244 . S
O267 Co266 2.216 . S
O267 C274 1.247 . S
O268 Co266 2.091 . S
O268 C274 1.261 . S
C269 O278 1.247 . S
C269 O279 1.272 . S
O270 Co266 2.004 . S
O270 C275 1.259 . S
Co271 O272 2.061 . S
Co271 O277 2.052 . S
Co271 O279 2.135 . S
O272 Co271 2.061 . S
O272 C275 1.235 . S
C273 O276 1.238 . S
C273 O277 1.241 . S
C274 O267 1.247 . S
C274 O268 1.261 . S
C275 O270 1.259 . S
C275 O272 1.235 . S
O276 Co266 2.021 . S
O276 C273 1.238 . S
O277 Co271 2.052 . S
O277 C273 1.241 . S
O278 Co266 2.137 . S
O278 C269 1.247 . S
O279 Co266 2.244 . S
O279 C269 1.272 . S
O279 Co271 2.135 . S
Co280 O281 2.216 . S
Co280 O282 2.091 . S
Co280 O284 2.004 . S
Co280 O290 2.021 . S
Co280 O292 2.137 . S
Co280 O293 2.244 . S
O281 Co280 2.216 . S
O281 C288 1.247 . S
O282 Co280 2.091 . S
O282 C288 1.261 . S
C283 O292 1.247 . S
C283 O293 1.272 . S
O284 Co280 2.004 . S
O284 C289 1.259 . S
Co285 O286 2.061 . S
Co285 O291 2.052 . S
Co285 O293 2.135 . S
O286 Co285 2.061 . S
O286 C289 1.235 . S
C287 O290 1.238 . S
C287 O291 1.241 . S
C288 O281 1.247 . S
C288 O282 1.261 . S
C289 O284 1.259 . S
C289 O286 1.235 . S
O290 Co280 2.021 . S
O290 C287 1.238 . S
O291 Co285 2.052 . S
O291 C287 1.241 . S
O292 Co280 2.137 . S
O292 C283 1.247 . S
O293 Co280 2.244 . S
O293 C283 1.272 . S
O293 Co285 2.135 . S
Co294 O295 2.216 1_556 S
Co294 O296 2.091 . S
Co294 O298 2.004 . S
Co294 O304 2.021 1_556 S
Co294 O306 2.137 . S
Co294 O307 2.245 . S
O295 Co294 2.216 1_554 S
O295 C302 1.247 . S
O296 Co294 2.091 . S
O296 C302 1.261 1_556 S
C297 O306 1.247 . S
C297 O307 1.281 . S
O298 Co294 2.004 . S
O298 C303 1.259 . S
Co299 O300 2.061 1_554 S
Co299 O305 2.052 . S
Co299 O307 2.134 1_554 S
O300 Co299 2.061 1_556 S
O300 C303 1.235 . S
C301 O304 1.238 . S
C301 O305 1.241 . S
C302 O295 1.247 . S
C302 O296 1.261 1_554 S
C303 O298 1.259 . S
C303 O300 1.235 . S
O304 Co294 2.021 1_554 S
O304 C301 1.238 . S
O305 Co299 2.052 . S
O305 C301 1.241 . S
O306 Co294 2.137 . S
O306 C297 1.247 . S
O307 Co294 2.245 . S
O307 C297 1.281 . S
O307 Co299 2.134 1_556 S
Co308 O309 2.216 1_556 S
Co308 O310 2.091 . S
Co308 O312 2.004 . S
Co308 O318 2.021 1_556 S
Co308 O320 2.137 . S
Co308 O321 2.245 . S
O309 Co308 2.216 1_554 S
O309 C316 1.247 . S
O310 Co308 2.091 . S
O310 C316 1.261 1_556 S
C311 O320 1.247 . S
C311 O321 1.281 . S
O312 Co308 2.004 . S
O312 C317 1.259 . S
Co313 O314 2.061 1_554 S
Co313 O319 2.052 . S
Co313 O321 2.134 1_554 S
O314 Co313 2.061 1_556 S
O314 C317 1.235 . S
C315 O318 1.238 . S
C315 O319 1.241 . S
C316 O309 1.247 . S
C316 O310 1.261 1_554 S
C317 O312 1.259 . S
C317 O314 1.235 . S
O318 Co308 2.021 1_554 S
O318 C315 1.238 . S
O319 Co313 2.052 . S
O319 C315 1.241 . S
O320 Co308 2.137 . S
O320 C311 1.247 . S
O321 Co308 2.245 . S
O321 C311 1.281 . S
O321 Co313 2.134 1_556 S
Co322 O323 2.216 1_556 S
Co322 O324 2.091 . S
Co322 O326 2.004 . S
Co322 O332 2.021 1_556 S
Co322 O334 2.137 . S
Co322 O335 2.245 . S
O323 Co322 2.216 1_554 S
O323 C330 1.247 . S
O324 Co322 2.091 . S
O324 C330 1.261 1_556 S
C325 O334 1.247 . S
C325 O335 1.281 . S
O326 Co322 2.004 . S
O326 C331 1.259 . S
Co327 O328 2.061 1_554 S
Co327 O333 2.052 . S
Co327 O335 2.134 1_554 S
O328 Co327 2.061 1_556 S
O328 C331 1.235 . S
C329 O332 1.238 . S
C329 O333 1.241 . S
C330 O323 1.247 . S
C330 O324 1.261 1_554 S
C331 O326 1.259 . S
C331 O328 1.235 . S
O332 Co322 2.021 1_554 S
O332 C329 1.238 . S
O333 Co327 2.052 . S
O333 C329 1.241 . S
O334 Co322 2.137 . S
O334 C325 1.247 . S
O335 Co322 2.245 . S
O335 C325 1.281 . S
O335 Co327 2.134 1_556 S
Co336 O337 2.216 . S
Co336 O338 2.091 . S
Co336 O340 2.004 . S
Co336 O346 2.021 . S
Co336 O348 2.137 . S
Co336 O349 2.244 . S
O337 Co336 2.216 . S
O337 C344 1.247 . S
O338 Co336 2.091 . S
O338 C344 1.261 . S
C339 O348 1.247 . S
C339 O349 1.272 . S
O340 Co336 2.004 . S
O340 C345 1.259 . S
Co341 O342 2.061 . S
Co341 O347 2.052 . S
Co341 O349 2.135 . S
O342 Co341 2.061 . S
O342 C345 1.235 . S
C343 O346 1.238 . S
C343 O347 1.241 . S
C344 O337 1.247 . S
C344 O338 1.261 . S
C345 O340 1.259 . S
C345 O342 1.235 . S
O346 Co336 2.021 . S
O346 C343 1.238 . S
O347 Co341 2.052 . S
O347 C343 1.241 . S
O348 Co336 2.137 . S
O348 C339 1.247 . S
O349 Co336 2.244 . S
O349 C339 1.272 . S
O349 Co341 2.135 . S
Co350 O351 2.216 . S
Co350 O352 2.091 . S
Co350 O354 2.004 . S
Co350 O360 2.021 . S
Co350 O362 2.137 . S
Co350 O363 2.244 . S
O351 Co350 2.216 . S
O351 C358 1.247 . S
O352 Co350 2.091 . S
O352 C358 1.261 . S
C353 O362 1.247 . S
C353 O363 1.272 . S
O354 Co350 2.004 . S
O354 C359 1.259 . S
Co355 O356 2.061 . S
Co355 O361 2.052 . S
Co355 O363 2.135 . S
O356 Co355 2.061 . S
O356 C359 1.235 . S
C357 O360 1.238 . S
C357 O361 1.241 . S
C358 O351 1.247 . S
C358 O352 1.261 . S
C359 O354 1.259 . S
C359 O356 1.235 . S
O360 Co350 2.021 . S
O360 C357 1.238 . S
O361 Co355 2.052 . S
O361 C357 1.241 . S
O362 Co350 2.137 . S
O362 C353 1.247 . S
O363 Co350 2.244 . S
O363 C353 1.272 . S
O363 Co355 2.135 . S
Co364 O365 2.216 . S
Co364 O366 2.091 . S
Co364 O368 2.004 . S
Co364 O374 2.021 . S
Co364 O376 2.137 . S
Co364 O377 2.244 . S
O365 Co364 2.216 . S
O365 C372 1.247 . S
O366 Co364 2.091 . S
O366 C372 1.261 . S
C367 O376 1.247 . S
C367 O377 1.272 . S
O368 Co364 2.004 . S
O368 C373 1.259 . S
Co369 O370 2.061 . S
Co369 O375 2.052 . S
Co369 O377 2.135 . S
O370 Co369 2.061 . S
O370 C373 1.235 . S
C371 O374 1.238 . S
C371 O375 1.241 . S
C372 O365 1.247 . S
C372 O366 1.261 . S
C373 O368 1.259 . S
C373 O370 1.235 . S
O374 Co364 2.021 . S
O374 C371 1.238 . S
O375 Co369 2.052 . S
O375 C371 1.241 . S
O376 Co364 2.137 . S
O376 C367 1.247 . S
O377 Co364 2.244 . S
O377 C367 1.272 . S
O377 Co369 2.135 . S
Co378 O379 2.216 1_554 S
Co378 O380 2.091 . S
Co378 O382 2.004 . S
Co378 O388 2.021 1_554 S
Co378 O390 2.137 . S
Co378 O391 2.245 . S
O379 Co378 2.216 1_556 S
O379 C386 1.247 . S
O380 Co378 2.091 . S
O380 C386 1.261 1_554 S
C381 O390 1.247 . S
C381 O391 1.281 . S
O382 Co378 2.004 . S
O382 C387 1.259 . S
Co383 O384 2.061 1_556 S
Co383 O389 2.052 . S
Co383 O391 2.134 1_556 S
O384 Co383 2.061 1_554 S
O384 C387 1.235 . S
C385 O388 1.238 . S
C385 O389 1.241 . S
C386 O379 1.247 . S
C386 O380 1.261 1_556 S
C387 O382 1.259 . S
C387 O384 1.235 . S
O388 Co378 2.021 1_556 S
O388 C385 1.238 . S
O389 Co383 2.052 . S
O389 C385 1.241 . S
O390 Co378 2.137 . S
O390 C381 1.247 . S
O391 Co378 2.245 . S
O391 C381 1.281 . S
O391 Co383 2.134 1_554 S
Co392 O393 2.216 1_554 S
Co392 O394 2.091 . S
Co392 O396 2.004 . S
Co392 O402 2.021 1_554 S
Co392 O404 2.137 . S
Co392 O405 2.245 . S
O393 Co392 2.216 1_556 S
O393 C400 1.247 . S
O394 Co392 2.091 . S
O394 C400 1.261 1_554 S
C395 O404 1.247 . S
C395 O405 1.281 . S
O396 Co392 2.004 . S
O396 C401 1.259 . S
Co397 O398 2.061 1_556 S
Co397 O403 2.052 . S
Co397 O405 2.134 1_556 S
O398 Co397 2.061 1_554 S
O398 C401 1.235 . S
C399 O402 1.238 . S
C399 O403 1.241 . S
C400 O393 1.247 . S
C400 O394 1.261 1_556 S
C401 O396 1.259 . S
C401 O398 1.235 . S
O402 Co392 2.021 1_556 S
O402 C399 1.238 . S
O403 Co397 2.052 . S
O403 C399 1.241 . S
O404 Co392 2.137 . S
O404 C395 1.247 . S
O405 Co392 2.245 . S
O405 C395 1.281 . S
O405 Co397 2.134 1_554 S
Co406 O407 2.216 1_554 S
Co406 O408 2.091 . S
Co406 O410 2.004 . S
Co406 O416 2.021 1_554 S
Co406 O418 2.137 . S
Co406 O419 2.245 . S
O407 Co406 2.216 1_556 S
O407 C414 1.247 . S
O408 Co406 2.091 . S
O408 C414 1.261 1_554 S
C409 O418 1.247 . S
C409 O419 1.281 . S
O410 Co406 2.004 . S
O410 C415 1.259 . S
Co411 O412 2.061 1_556 S
Co411 O417 2.052 . S
Co411 O419 2.134 1_556 S
O412 Co411 2.061 1_554 S
O412 C415 1.235 . S
C413 O416 1.238 . S
C413 O417 1.241 . S
C414 O407 1.247 . S
C414 O408 1.261 1_556 S
C415 O410 1.259 . S
C415 O412 1.235 . S
O416 Co406 2.021 1_556 S
O416 C413 1.238 . S
O417 Co411 2.052 . S
O417 C413 1.241 . S
O418 Co406 2.137 . S
O418 C409 1.247 . S
O419 Co406 2.245 . S
O419 C409 1.281 . S
O419 Co411 2.134 1_554 S
Co420 O421 2.216 . S
Co420 O422 2.091 . S
Co420 O424 2.004 . S
Co420 O430 2.021 . S
Co420 O432 2.137 . S
Co420 O433 2.244 . S
O421 Co420 2.216 . S
O421 C428 1.247 . S
O422 Co420 2.091 . S
O422 C428 1.261 . S
C423 O432 1.247 . S
C423 O433 1.272 . S
O424 Co420 2.004 . S
O424 C429 1.259 . S
Co425 O426 2.061 . S
Co425 O431 2.052 . S
Co425 O433 2.135 . S
O426 Co425 2.061 . S
O426 C429 1.235 . S
C427 O430 1.238 . S
C427 O431 1.241 . S
C428 O421 1.247 . S
C428 O422 1.261 . S
C429 O424 1.259 . S
C429 O426 1.235 . S
O430 Co420 2.021 . S
O430 C427 1.238 . S
O431 Co425 2.052 . S
O431 C427 1.241 . S
O432 Co420 2.137 . S
O432 C423 1.247 . S
O433 Co420 2.244 . S
O433 C423 1.272 . S
O433 Co425 2.135 . S
Co434 O435 2.216 . S
Co434 O436 2.091 . S
Co434 O438 2.004 . S
Co434 O444 2.021 . S
Co434 O446 2.137 . S
Co434 O447 2.244 . S
O435 Co434 2.216 . S
O435 C442 1.247 . S
O436 Co434 2.091 . S
O436 C442 1.261 . S
C437 O446 1.247 . S
C437 O447 1.272 . S
O438 Co434 2.004 . S
O438 C443 1.259 . S
Co439 O440 2.061 . S
Co439 O445 2.052 . S
Co439 O447 2.135 . S
O440 Co439 2.061 . S
O440 C443 1.235 . S
C441 O444 1.238 . S
C441 O445 1.241 . S
C442 O435 1.247 . S
C442 O436 1.261 . S
C443 O438 1.259 . S
C443 O440 1.235 . S
O444 Co434 2.021 . S
O444 C441 1.238 . S
O445 Co439 2.052 . S
O445 C441 1.241 . S
O446 Co434 2.137 . S
O446 C437 1.247 . S
O447 Co434 2.244 . S
O447 C437 1.272 . S
O447 Co439 2.135 . S
Co448 O449 2.216 . S
Co448 O450 2.091 . S
Co448 O452 2.004 . S
Co448 O458 2.021 . S
Co448 O460 2.137 . S
Co448 O461 2.244 . S
O449 Co448 2.216 . S
O449 C456 1.247 . S
O450 Co448 2.091 . S
O450 C456 1.261 . S
C451 O460 1.247 . S
C451 O461 1.272 . S
O452 Co448 2.004 . S
O452 C457 1.259 . S
Co453 O454 2.061 . S
Co453 O459 2.052 . S
Co453 O461 2.135 . S
O454 Co453 2.061 . S
O454 C457 1.235 . S
C455 O458 1.238 . S
C455 O459 1.241 . S
C456 O449 1.247 . S
C456 O450 1.261 . S
C457 O452 1.259 . S
C457 O454 1.235 . S
O458 Co448 2.021 . S
O458 C455 1.238 . S
O459 Co453 2.052 . S
O459 C455 1.241 . S
O460 Co448 2.137 . S
O460 C451 1.247 . S
O461 Co448 2.244 . S
O461 C451 1.272 . S
O461 Co453 2.135 . S
Co462 O463 2.216 . S
Co462 O464 2.091 . S
Co462 O466 2.004 . S
Co462 O472 2.021 . S
Co462 O474 2.137 . S
Co462 O475 2.244 . S
O463 Co462 2.216 . S
O463 C470 1.247 . S
O464 Co462 2.091 . S
O464 C470 1.261 . S
C465 O474 1.247 . S
C465 O475 1.272 . S
O466 Co462 2.004 . S
O466 C471 1.259 . S
Co467 O468 2.061 . S
Co467 O473 2.052 . S
Co467 O475 2.135 . S
O468 Co467 2.061 . S
O468 C471 1.235 . S
C469 O472 1.238 . S
C469 O473 1.241 . S
C470 O463 1.247 . S
C470 O464 1.261 . S
C471 O466 1.259 . S
C471 O468 1.235 . S
O472 Co462 2.021 . S
O472 C469 1.238 . S
O473 Co467 2.052 . S
O473 C469 1.241 . S
O474 Co462 2.137 . S
O474 C465 1.247 . S
O475 Co462 2.244 . S
O475 C465 1.272 . S
O475 Co467 2.135 . S
Co476 O477 2.216 . S
Co476 O478 2.091 . S
Co476 O480 2.004 . S
Co476 O486 2.021 . S
Co476 O488 2.137 . S
Co476 O489 2.244 . S
O477 Co476 2.216 . S
O477 C484 1.247 . S
O478 Co476 2.091 . S
O478 C484 1.261 . S
C479 O488 1.247 . S
C479 O489 1.272 . S
O480 Co476 2.004 . S
O480 C485 1.259 . S
Co481 O482 2.061 . S
Co481 O487 2.052 . S
Co481 O489 2.135 . S
O482 Co481 2.061 . S
O482 C485 1.235 . S
C483 O486 1.238 . S
C483 O487 1.241 . S
C484 O477 1.247 . S
C484 O478 1.261 . S
C485 O480 1.259 . S
C485 O482 1.235 . S
O486 Co476 2.021 . S
O486 C483 1.238 . S
O487 Co481 2.052 . S
O487 C483 1.241 . S
O488 Co476 2.137 . S
O488 C479 1.247 . S
O489 Co476 2.244 . S
O489 C479 1.272 . S
O489 Co481 2.135 . S
Co490 O491 2.216 . S
Co490 O492 2.091 . S
Co490 O494 2.004 . S
Co490 O500 2.021 . S
Co490 O502 2.137 . S
Co490 O503 2.244 . S
O491 Co490 2.216 . S
O491 C498 1.247 . S
O492 Co490 2.091 . S
O492 C498 1.261 . S
C493 O502 1.247 . S
C493 O503 1.272 . S
O494 Co490 2.004 . S
O494 C499 1.259 . S
Co495 O496 2.061 . S
Co495 O501 2.052 . S
Co495 O503 2.135 . S
O496 Co495 2.061 . S
O496 C499 1.235 . S
C497 O500 1.238 . S
C497 O501 1.241 . S
C498 O491 1.247 . S
C498 O492 1.261 . S
C499 O494 1.259 . S
C499 O496 1.235 . S
O500 Co490 2.021 . S
O500 C497 1.238 . S
O501 Co495 2.052 . S
O501 C497 1.241 . S
O502 Co490 2.137 . S
O502 C493 1.247 . S
O503 Co490 2.244 . S
O503 C493 1.272 . S
O503 Co495 2.135 . S
H504 C522 0.951 . S
H505 C524 0.951 . S
H506 C526 0.950 . S
H507 C527 0.950 . S
H508 C529 0.950 . S
H509 C532 0.950 . S
H510 C533 0.950 . S
H511 C535 0.950 . S
H512 C536 0.950 . S
H513 C537 0.951 . S
H514 C539 0.951 . S
H515 C541 0.950 . S
H516 C542 0.950 . S
H517 C544 0.950 . S
H518 C547 0.950 . S
H519 C548 0.950 . S
H520 C550 0.950 . S
H521 C551 0.950 . S
C522 H504 0.951 . S
C522 C523 1.366 . S
C522 C524 1.388 . S
C523 C522 1.366 . S
C523 C527 1.385 . S
C524 H505 0.951 . S
C524 C522 1.388 . S
C524 C525 1.366 . S
C525 C524 1.366 . S
C525 C526 1.414 . S
C525 C528 1.499 . S
C526 H506 0.950 . S
C526 C525 1.414 . S
C526 C527 1.374 . S
C527 H507 0.950 . S
C527 C523 1.385 . S
C527 C526 1.374 . S
C528 C525 1.499 . S
C528 C529 1.373 . S
C528 C530 1.389 . S
C529 H508 0.950 . S
C529 C528 1.373 . S
C529 C545 1.377 . S
C530 C528 1.389 . S
C530 C531 1.524 . S
C530 C544 1.377 . S
C531 C530 1.524 . S
C531 C532 1.397 . S
C531 C536 1.363 . S
C532 H509 0.950 . S
C532 C531 1.397 . S
C532 C533 1.334 . S
C533 H510 0.950 . S
C533 C532 1.334 . S
C533 C534 1.287 . S
C534 C533 1.287 . S
C534 C535 1.524 . S
C534 H553 0.913 . S
C535 H511 0.950 . S
C535 C534 1.524 . S
C535 C536 1.415 . S
C536 H512 0.950 . S
C536 C531 1.363 . S
C536 C535 1.415 . S
C537 H513 0.951 . S
C537 C538 1.366 . S
C537 C539 1.388 . S
C538 C537 1.366 . S
C538 C542 1.385 . S
C539 H514 0.951 . S
C539 C537 1.388 . S
C539 C540 1.366 . S
C540 C539 1.366 . S
C540 C541 1.414 . S
C540 C543 1.499 . S
C541 H515 0.950 . S
C541 C540 1.414 . S
C541 C542 1.374 . S
C542 H516 0.950 . S
C542 C538 1.385 . S
C542 C541 1.374 . S
C543 C540 1.499 . S
C543 C544 1.373 . S
C543 C545 1.389 . S
C544 H517 0.950 . S
C544 C530 1.377 . S
C544 C543 1.373 . S
C545 C529 1.377 . S
C545 C543 1.389 . S
C545 C546 1.524 . S
C546 C545 1.524 . S
C546 C547 1.397 . S
C546 C551 1.363 . S
C547 H518 0.950 . S
C547 C546 1.397 . S
C547 C548 1.334 . S
C548 H519 0.950 . S
C548 C547 1.334 . S
C548 C549 1.287 . S
C549 C548 1.287 . S
C549 C550 1.524 . S
C549 H552 0.999 . S
C550 H520 0.950 . S
C550 C549 1.524 . S
C550 C551 1.415 . S
C551 H521 0.950 . S
C551 C546 1.363 . S
C551 C550 1.415 . S
H552 C549 0.999 . S
H553 C534 0.913 . S
H554 C572 0.951 . S
H555 C574 0.951 . S
H556 C576 0.950 . S
H557 C577 0.950 . S
H558 C579 0.950 . S
H559 C582 0.950 . S
H560 C583 0.950 . S
H561 C585 0.950 . S
H562 C586 0.950 . S
H563 C587 0.951 . S
H564 C589 0.951 . S
H565 C591 0.950 . S
H566 C592 0.950 . S
H567 C594 0.950 . S
H568 C597 0.950 . S
H569 C598 0.950 . S
H570 C600 0.950 . S
H571 C601 0.950 . S
C572 H554 0.951 . S
C572 C573 1.366 . S
C572 C574 1.388 . S
C573 C572 1.366 . S
C573 C577 1.385 . S
C574 H555 0.951 . S
C574 C572 1.388 . S
C574 C575 1.366 . S
C575 C574 1.366 . S
C575 C576 1.414 . S
C575 C578 1.499 . S
C576 H556 0.950 . S
C576 C575 1.414 . S
C576 C577 1.374 . S
C577 H557 0.950 . S
C577 C573 1.385 . S
C577 C576 1.374 . S
C578 C575 1.499 . S
C578 C579 1.373 . S
C578 C580 1.389 . S
C579 H558 0.950 . S
C579 C578 1.373 . S
C579 C595 1.377 1_545 S
C580 C578 1.389 . S
C580 C581 1.524 . S
C580 C594 1.377 1_545 S
C581 C580 1.524 . S
C581 C582 1.397 . S
C581 C586 1.363 . S
C582 H559 0.950 . S
C582 C581 1.397 . S
C582 C583 1.334 . S
C583 H560 0.950 . S
C583 C582 1.334 . S
C583 C584 1.287 . S
C584 C583 1.287 . S
C584 C585 1.524 . S
C584 H603 0.913 . S
C585 H561 0.950 . S
C585 C584 1.524 . S
C585 C586 1.415 . S
C586 H562 0.950 . S
C586 C581 1.363 . S
C586 C585 1.415 . S
C587 H563 0.951 . S
C587 C588 1.366 . S
C587 C589 1.388 . S
C588 C587 1.366 . S
C588 C592 1.385 . S
C589 H564 0.951 . S
C589 C587 1.388 . S
C589 C590 1.366 . S
C590 C589 1.366 . S
C590 C591 1.414 . S
C590 C593 1.499 . S
C591 H565 0.950 . S
C591 C590 1.414 . S
C591 C592 1.374 . S
C592 H566 0.950 . S
C592 C588 1.385 . S
C592 C591 1.374 . S
C593 C590 1.499 . S
C593 C594 1.373 . S
C593 C595 1.389 . S
C594 H567 0.950 . S
C594 C580 1.377 1_565 S
C594 C593 1.373 . S
C595 C579 1.377 1_565 S
C595 C593 1.389 . S
C595 C596 1.524 . S
C596 C595 1.524 . S
C596 C597 1.397 . S
C596 C601 1.363 . S
C597 H568 0.950 . S
C597 C596 1.397 . S
C597 C598 1.334 . S
C598 H569 0.950 . S
C598 C597 1.334 . S
C598 C599 1.287 . S
C599 C598 1.287 . S
C599 C600 1.524 . S
C599 H602 0.999 . S
C600 H570 0.950 . S
C600 C599 1.524 . S
C600 C601 1.415 . S
C601 H571 0.950 . S
C601 C596 1.363 . S
C601 C600 1.415 . S
H602 C599 0.999 . S
H603 C584 0.913 . S
H604 C622 0.951 . S
H605 C624 0.951 . S
H606 C626 0.950 . S
H607 C627 0.950 . S
H608 C629 0.950 . S
H609 C632 0.950 . S
H610 C633 0.950 . S
H611 C635 0.950 . S
H612 C636 0.950 . S
H613 C637 0.951 . S
H614 C639 0.951 . S
H615 C641 0.950 . S
H616 C642 0.950 . S
H617 C644 0.950 . S
H618 C647 0.950 . S
H619 C648 0.950 . S
H620 C650 0.950 . S
H621 C651 0.950 . S
C622 H604 0.951 . S
C622 C623 1.366 . S
C622 C624 1.388 . S
C623 C622 1.366 . S
C623 C627 1.385 . S
C624 H605 0.951 . S
C624 C622 1.388 . S
C624 C625 1.366 . S
C625 C624 1.366 . S
C625 C626 1.414 . S
C625 C628 1.499 . S
C626 H606 0.950 . S
C626 C625 1.414 . S
C626 C627 1.374 . S
C627 H607 0.950 . S
C627 C623 1.385 . S
C627 C626 1.374 . S
C628 C625 1.499 . S
C628 C629 1.373 . S
C628 C630 1.389 . S
C629 H608 0.950 . S
C629 C628 1.373 . S
C629 C645 1.377 1_655 S
C630 C628 1.389 . S
C630 C631 1.524 . S
C630 C644 1.377 1_655 S
C631 C630 1.524 . S
C631 C632 1.397 . S
C631 C636 1.363 . S
C632 H609 0.950 . S
C632 C631 1.397 . S
C632 C633 1.334 . S
C633 H610 0.950 . S
C633 C632 1.334 . S
C633 C634 1.287 . S
C634 C633 1.287 . S
C634 C635 1.524 . S
C634 H653 0.913 . S
C635 H611 0.950 . S
C635 C634 1.524 . S
C635 C636 1.415 . S
C636 H612 0.950 . S
C636 C631 1.363 . S
C636 C635 1.415 . S
C637 H613 0.951 . S
C637 C638 1.366 . S
C637 C639 1.388 . S
C638 C637 1.366 . S
C638 C642 1.385 . S
C639 H614 0.951 . S
C639 C637 1.388 . S
C639 C640 1.366 . S
C640 C639 1.366 . S
C640 C641 1.414 . S
C640 C643 1.499 . S
C641 H615 0.950 . S
C641 C640 1.414 . S
C641 C642 1.374 . S
C642 H616 0.950 . S
C642 C638 1.385 . S
C642 C641 1.374 . S
C643 C640 1.499 . S
C643 C644 1.373 . S
C643 C645 1.389 . S
C644 H617 0.950 . S
C644 C630 1.377 1_455 S
C644 C643 1.373 . S
C645 C629 1.377 1_455 S
C645 C643 1.389 . S
C645 C646 1.524 . S
C646 C645 1.524 . S
C646 C647 1.397 . S
C646 C651 1.363 . S
C647 H618 0.950 . S
C647 C646 1.397 . S
C647 C648 1.334 . S
C648 H619 0.950 . S
C648 C647 1.334 . S
C648 C649 1.287 . S
C649 C648 1.287 . S
C649 C650 1.524 . S
C649 H652 0.999 . S
C650 H620 0.950 . S
C650 C649 1.524 . S
C650 C651 1.415 . S
C651 H621 0.950 . S
C651 C646 1.363 . S
C651 C650 1.415 . S
H652 C649 0.999 . S
H653 C634 0.913 . S
H654 C672 0.951 . S
H655 C674 0.951 . S
H656 C676 0.950 . S
H657 C677 0.950 . S
H658 C679 0.950 . S
H659 C682 0.950 . S
H660 C683 0.950 . S
H661 C685 0.950 . S
H662 C686 0.950 . S
H663 C687 0.951 . S
H664 C689 0.951 . S
H665 C691 0.950 . S
H666 C692 0.950 . S
H667 C694 0.950 . S
H668 C697 0.950 . S
H669 C698 0.950 . S
H670 C700 0.950 . S
H671 C701 0.950 . S
C672 H654 0.951 . S
C672 C673 1.366 . S
C672 C674 1.388 . S
C673 C672 1.366 . S
C673 C677 1.385 . S
C674 H655 0.951 . S
C674 C672 1.388 . S
C674 C675 1.366 . S
C675 C674 1.366 . S
C675 C676 1.414 . S
C675 C678 1.499 . S
C676 H656 0.950 . S
C676 C675 1.414 . S
C676 C677 1.374 . S
C677 H657 0.950 . S
C677 C673 1.385 . S
C677 C676 1.374 . S
C678 C675 1.499 . S
C678 C679 1.373 . S
C678 C680 1.389 . S
C679 H658 0.950 . S
C679 C678 1.373 . S
C679 C695 1.377 . S
C680 C678 1.389 . S
C680 C681 1.524 . S
C680 C694 1.377 . S
C681 C680 1.524 . S
C681 C682 1.397 . S
C681 C686 1.363 . S
C682 H659 0.950 . S
C682 C681 1.397 . S
C682 C683 1.334 . S
C683 H660 0.950 . S
C683 C682 1.334 . S
C683 C684 1.287 . S
C684 C683 1.287 . S
C684 C685 1.524 . S
C684 H703 0.913 . S
C685 H661 0.950 . S
C685 C684 1.524 . S
C685 C686 1.415 . S
C686 H662 0.950 . S
C686 C681 1.363 . S
C686 C685 1.415 . S
C687 H663 0.951 . S
C687 C688 1.366 . S
C687 C689 1.388 . S
C688 C687 1.366 . S
C688 C692 1.385 . S
C689 H664 0.951 . S
C689 C687 1.388 . S
C689 C690 1.366 . S
C690 C689 1.366 . S
C690 C691 1.414 . S
C690 C693 1.499 . S
C691 H665 0.950 . S
C691 C690 1.414 . S
C691 C692 1.374 . S
C692 H666 0.950 . S
C692 C688 1.385 . S
C692 C691 1.374 . S
C693 C690 1.499 . S
C693 C694 1.373 . S
C693 C695 1.389 . S
C694 H667 0.950 . S
C694 C680 1.377 . S
C694 C693 1.373 . S
C695 C679 1.377 . S
C695 C693 1.389 . S
C695 C696 1.524 . S
C696 C695 1.524 . S
C696 C697 1.397 . S
C696 C701 1.363 . S
C697 H668 0.950 . S
C697 C696 1.397 . S
C697 C698 1.334 . S
C698 H669 0.950 . S
C698 C697 1.334 . S
C698 C699 1.287 . S
C699 C698 1.287 . S
C699 C700 1.524 . S
C699 H702 0.999 . S
C700 H670 0.950 . S
C700 C699 1.524 . S
C700 C701 1.415 . S
C701 H671 0.950 . S
C701 C696 1.363 . S
C701 C700 1.415 . S
H702 C699 0.999 . S
H703 C684 0.913 . S
H704 C722 0.951 . S
H705 C724 0.951 . S
H706 C726 0.950 . S
H707 C727 0.950 . S
H708 C729 0.950 . S
H709 C732 0.950 . S
H710 C733 0.950 . S
H711 C735 0.950 . S
H712 C736 0.950 . S
H713 C737 0.951 . S
H714 C739 0.951 . S
H715 C741 0.950 . S
H716 C742 0.950 . S
H717 C744 0.950 . S
H718 C747 0.950 . S
H719 C748 0.950 . S
H720 C750 0.950 . S
H721 C751 0.950 . S
C722 H704 0.951 . S
C722 C723 1.366 . S
C722 C724 1.388 . S
C723 C722 1.366 . S
C723 C727 1.385 . S
C724 H705 0.951 . S
C724 C722 1.388 . S
C724 C725 1.366 . S
C725 C724 1.366 . S
C725 C726 1.414 . S
C725 C728 1.499 . S
C726 H706 0.950 . S
C726 C725 1.414 . S
C726 C727 1.374 . S
C727 H707 0.950 . S
C727 C723 1.385 . S
C727 C726 1.374 . S
C728 C725 1.499 . S
C728 C729 1.373 . S
C728 C730 1.389 . S
C729 H708 0.950 . S
C729 C728 1.373 . S
C729 C745 1.377 1_545 S
C730 C728 1.389 . S
C730 C731 1.524 . S
C730 C744 1.377 1_545 S
C731 C730 1.524 . S
C731 C732 1.397 . S
C731 C736 1.363 . S
C732 H709 0.950 . S
C732 C731 1.397 . S
C732 C733 1.334 . S
C733 H710 0.950 . S
C733 C732 1.334 . S
C733 C734 1.287 . S
C734 C733 1.287 . S
C734 C735 1.524 . S
C734 H753 0.913 . S
C735 H711 0.950 . S
C735 C734 1.524 . S
C735 C736 1.415 . S
C736 H712 0.950 . S
C736 C731 1.363 . S
C736 C735 1.415 . S
C737 H713 0.951 . S
C737 C738 1.366 . S
C737 C739 1.388 . S
C738 C737 1.366 . S
C738 C742 1.385 . S
C739 H714 0.951 . S
C739 C737 1.388 . S
C739 C740 1.366 . S
C740 C739 1.366 . S
C740 C741 1.414 . S
C740 C743 1.499 . S
C741 H715 0.950 . S
C741 C740 1.414 . S
C741 C742 1.374 . S
C742 H716 0.950 . S
C742 C738 1.385 . S
C742 C741 1.374 . S
C743 C740 1.499 . S
C743 C744 1.373 . S
C743 C745 1.389 . S
C744 H717 0.950 . S
C744 C730 1.377 1_565 S
C744 C743 1.373 . S
C745 C729 1.377 1_565 S
C745 C743 1.389 . S
C745 C746 1.524 . S
C746 C745 1.524 . S
C746 C747 1.397 . S
C746 C751 1.363 . S
C747 H718 0.950 . S
C747 C746 1.397 . S
C747 C748 1.334 . S
C748 H719 0.950 . S
C748 C747 1.334 . S
C748 C749 1.287 . S
C749 C748 1.287 . S
C749 C750 1.524 . S
C749 H752 0.999 . S
C750 H720 0.950 . S
C750 C749 1.524 . S
C750 C751 1.415 . S
C751 H721 0.950 . S
C751 C746 1.363 . S
C751 C750 1.415 . S
H752 C749 0.999 . S
H753 C734 0.913 . S
H754 C772 0.951 . S
H755 C774 0.951 . S
H756 C776 0.950 . S
H757 C777 0.950 . S
H758 C779 0.950 . S
H759 C782 0.950 . S
H760 C783 0.950 . S
H761 C785 0.972 1_655 S
H762 C786 0.948 1_655 S
H763 C787 0.951 . S
H764 C789 0.951 . S
H765 C791 0.950 . S
H766 C792 0.950 . S
H767 C794 0.950 . S
H768 C797 0.950 . S
H769 C798 0.950 . S
H770 C800 0.971 1_455 S
H771 C801 0.948 1_455 S
C772 H754 0.951 . S
C772 C773 1.366 . S
C772 C774 1.388 . S
C773 C772 1.366 . S
C773 C777 1.385 . S
C774 H755 0.951 . S
C774 C772 1.388 . S
C774 C775 1.366 . S
C775 C774 1.366 . S
C775 C776 1.414 . S
C775 C778 1.499 . S
C776 H756 0.950 . S
C776 C775 1.414 . S
C776 C777 1.374 . S
C777 H757 0.950 . S
C777 C773 1.385 . S
C777 C776 1.374 . S
C778 C775 1.499 . S
C778 C779 1.373 . S
C778 C780 1.389 . S
C779 H758 0.950 . S
C779 C778 1.373 . S
C779 C795 1.377 1_455 S
C780 C778 1.389 . S
C780 C781 1.524 . S
C780 C794 1.377 1_455 S
C781 C780 1.524 . S
C781 C782 1.397 . S
C781 C786 1.357 . S
C782 H759 0.950 . S
C782 C781 1.397 . S
C782 C783 1.334 . S
C783 H760 0.950 . S
C783 C782 1.334 . S
C783 C784 1.287 . S
C784 C783 1.287 . S
C784 C785 1.524 . S
C784 H803 0.913 . S
C785 H761 0.972 1_455 S
C785 C784 1.524 . S
C785 C786 1.424 . S
C786 H762 0.948 1_455 S
C786 C781 1.357 . S
C786 C785 1.424 . S
C787 H763 0.951 . S
C787 C788 1.366 . S
C787 C789 1.388 . S
C788 C787 1.366 . S
C788 C792 1.385 . S
C789 H764 0.951 . S
C789 C787 1.388 . S
C789 C790 1.366 . S
C790 C789 1.366 . S
C790 C791 1.414 . S
C790 C793 1.499 . S
C791 H765 0.950 . S
C791 C790 1.414 . S
C791 C792 1.374 . S
C792 H766 0.950 . S
C792 C788 1.385 . S
C792 C791 1.374 . S
C793 C790 1.499 . S
C793 C794 1.373 . S
C793 C795 1.389 . S
C794 H767 0.950 . S
C794 C780 1.377 1_655 S
C794 C793 1.373 . S
C795 C779 1.377 1_655 S
C795 C793 1.389 . S
C795 C796 1.524 . S
C796 C795 1.524 . S
C796 C797 1.397 . S
C796 C801 1.356 . S
C797 H768 0.950 . S
C797 C796 1.397 . S
C797 C798 1.334 . S
C798 H769 0.950 . S
C798 C797 1.334 . S
C798 C799 1.287 . S
C799 C798 1.287 . S
C799 C800 1.524 . S
C799 H802 0.999 . S
C800 H770 0.971 1_655 S
C800 C799 1.524 . S
C800 C801 1.425 . S
C801 H771 0.948 1_655 S
C801 C796 1.356 . S
C801 C800 1.425 . S
H802 C799 0.999 . S
H803 C784 0.913 . S
H804 C822 0.951 . S
H805 C824 0.951 . S
H806 C826 0.950 . S
H807 C827 0.950 . S
H808 C829 0.950 . S
H809 C832 0.950 . S
H810 C833 0.950 . S
H811 C835 0.950 . S
H812 C836 0.950 . S
H813 C837 0.951 . S
H814 C839 0.951 . S
H815 C841 0.950 . S
H816 C842 0.950 . S
H817 C844 0.950 . S
H818 C847 0.950 . S
H819 C848 0.950 . S
H820 C850 0.950 . S
H821 C851 0.950 . S
C822 H804 0.951 . S
C822 C823 1.366 . S
C822 C824 1.388 . S
C823 C822 1.366 . S
C823 C827 1.385 . S
C824 H805 0.951 . S
C824 C822 1.388 . S
C824 C825 1.366 . S
C825 C824 1.366 . S
C825 C826 1.414 . S
C825 C828 1.499 . S
C826 H806 0.950 . S
C826 C825 1.414 . S
C826 C827 1.374 . S
C827 H807 0.950 . S
C827 C823 1.385 . S
C827 C826 1.374 . S
C828 C825 1.499 . S
C828 C829 1.373 . S
C828 C830 1.389 . S
C829 H808 0.950 . S
C829 C828 1.373 . S
C829 C845 1.377 . S
C830 C828 1.389 . S
C830 C831 1.524 . S
C830 C844 1.377 . S
C831 C830 1.524 . S
C831 C832 1.397 . S
C831 C836 1.363 . S
C832 H809 0.950 . S
C832 C831 1.397 . S
C832 C833 1.334 . S
C833 H810 0.950 . S
C833 C832 1.334 . S
C833 C834 1.287 . S
C834 C833 1.287 . S
C834 C835 1.524 . S
C834 H853 0.913 . S
C835 H811 0.950 . S
C835 C834 1.524 . S
C835 C836 1.415 . S
C836 H812 0.950 . S
C836 C831 1.363 . S
C836 C835 1.415 . S
C837 H813 0.951 . S
C837 C838 1.366 . S
C837 C839 1.388 . S
C838 C837 1.366 . S
C838 C842 1.385 . S
C839 H814 0.951 . S
C839 C837 1.388 . S
C839 C840 1.366 . S
C840 C839 1.366 . S
C840 C841 1.414 . S
C840 C843 1.499 . S
C841 H815 0.950 . S
C841 C840 1.414 . S
C841 C842 1.374 . S
C842 H816 0.950 . S
C842 C838 1.385 . S
C842 C841 1.374 . S
C843 C840 1.499 . S
C843 C844 1.373 . S
C843 C845 1.389 . S
C844 H817 0.950 . S
C844 C830 1.377 . S
C844 C843 1.373 . S
C845 C829 1.377 . S
C845 C843 1.389 . S
C845 C846 1.524 . S
C846 C845 1.524 . S
C846 C847 1.397 . S
C846 C851 1.363 . S
C847 H818 0.950 . S
C847 C846 1.397 . S
C847 C848 1.334 . S
C848 H819 0.950 . S
C848 C847 1.334 . S
C848 C849 1.287 . S
C849 C848 1.287 . S
C849 C850 1.524 . S
C849 H852 0.999 . S
C850 H820 0.950 . S
C850 C849 1.524 . S
C850 C851 1.415 . S
C851 H821 0.950 . S
C851 C846 1.363 . S
C851 C850 1.415 . S
H852 C849 0.999 . S
H853 C834 0.913 . S
H854 C872 0.951 . S
H855 C874 0.951 . S
H856 C876 0.950 . S
H857 C877 0.950 . S
H858 C879 0.950 . S
H859 C882 0.950 . S
H860 C883 0.950 . S
H861 C885 0.950 . S
H862 C886 0.950 . S
H863 C887 0.951 . S
H864 C889 0.951 . S
H865 C891 0.950 . S
H866 C892 0.950 . S
H867 C894 0.950 . S
H868 C897 0.950 . S
H869 C898 0.950 . S
H870 C900 0.950 . S
H871 C901 0.950 . S
C872 H854 0.951 . S
C872 C873 1.366 . S
C872 C874 1.388 . S
C873 C872 1.366 . S
C873 C877 1.385 . S
C874 H855 0.951 . S
C874 C872 1.388 . S
C874 C875 1.366 . S
C875 C874 1.366 . S
C875 C876 1.414 . S
C875 C878 1.499 . S
C876 H856 0.950 . S
C876 C875 1.414 . S
C876 C877 1.374 . S
C877 H857 0.950 . S
C877 C873 1.385 . S
C877 C876 1.374 . S
C878 C875 1.499 . S
C878 C879 1.373 . S
C878 C880 1.389 . S
C879 H858 0.950 . S
C879 C878 1.373 . S
C879 C895 1.377 . S
C880 C878 1.389 . S
C880 C881 1.524 . S
C880 C894 1.377 . S
C881 C880 1.524 . S
C881 C882 1.397 . S
C881 C886 1.363 . S
C882 H859 0.950 . S
C882 C881 1.397 . S
C882 C883 1.334 . S
C883 H860 0.950 . S
C883 C882 1.334 . S
C883 C884 1.287 . S
C884 C883 1.287 . S
C884 C885 1.524 . S
C884 H903 0.913 . S
C885 H861 0.950 . S
C885 C884 1.524 . S
C885 C886 1.415 . S
C886 H862 0.950 . S
C886 C881 1.363 . S
C886 C885 1.415 . S
C887 H863 0.951 . S
C887 C888 1.366 . S
C887 C889 1.388 . S
C888 C887 1.366 . S
C888 C892 1.385 . S
C889 H864 0.951 . S
C889 C887 1.388 . S
C889 C890 1.366 . S
C890 C889 1.366 . S
C890 C891 1.414 . S
C890 C893 1.499 . S
C891 H865 0.950 . S
C891 C890 1.414 . S
C891 C892 1.374 . S
C892 H866 0.950 . S
C892 C888 1.385 . S
C892 C891 1.374 . S
C893 C890 1.499 . S
C893 C894 1.373 . S
C893 C895 1.389 . S
C894 H867 0.950 . S
C894 C880 1.377 . S
C894 C893 1.373 . S
C895 C879 1.377 . S
C895 C893 1.389 . S
C895 C896 1.524 . S
C896 C895 1.524 . S
C896 C897 1.397 . S
C896 C901 1.363 . S
C897 H868 0.950 . S
C897 C896 1.397 . S
C897 C898 1.334 . S
C898 H869 0.950 . S
C898 C897 1.334 . S
C898 C899 1.287 . S
C899 C898 1.287 . S
C899 C900 1.524 . S
C899 H902 0.999 . S
C900 H870 0.950 . S
C900 C899 1.524 . S
C900 C901 1.415 . S
C901 H871 0.950 . S
C901 C896 1.363 . S
C901 C900 1.415 . S
H902 C899 0.999 . S
H903 C884 0.913 . S
H904 C922 0.951 . S
H905 C924 0.951 . S
H906 C926 0.950 . S
H907 C927 0.950 . S
H908 C929 0.950 . S
H909 C932 0.950 . S
H910 C933 0.950 . S
H911 C935 0.950 . S
H912 C936 0.950 . S
H913 C937 0.951 . S
H914 C939 0.951 . S
H915 C941 0.950 . S
H916 C942 0.950 . S
H917 C944 0.950 . S
H918 C947 0.950 . S
H919 C948 0.950 . S
H920 C950 0.950 . S
H921 C951 0.950 . S
C922 H904 0.951 . S
C922 C923 1.366 . S
C922 C924 1.388 . S
C923 C922 1.366 . S
C923 C927 1.385 . S
C924 H905 0.951 . S
C924 C922 1.388 . S
C924 C925 1.366 . S
C925 C924 1.366 . S
C925 C926 1.414 . S
C925 C928 1.499 . S
C926 H906 0.950 . S
C926 C925 1.414 . S
C926 C927 1.374 . S
C927 H907 0.950 . S
C927 C923 1.385 . S
C927 C926 1.374 . S
C928 C925 1.499 . S
C928 C929 1.373 . S
C928 C930 1.389 . S
C929 H908 0.950 . S
C929 C928 1.373 . S
C929 C945 1.377 . S
C930 C928 1.389 . S
C930 C931 1.524 . S
C930 C944 1.377 . S
C931 C930 1.524 . S
C931 C932 1.397 . S
C931 C936 1.363 . S
C932 H909 0.950 . S
C932 C931 1.397 . S
C932 C933 1.334 . S
C933 H910 0.950 . S
C933 C932 1.334 . S
C933 C934 1.287 . S
C934 C933 1.287 . S
C934 C935 1.524 . S
C934 H953 0.913 . S
C935 H911 0.950 . S
C935 C934 1.524 . S
C935 C936 1.415 . S
C936 H912 0.950 . S
C936 C931 1.363 . S
C936 C935 1.415 . S
C937 H913 0.951 . S
C937 C938 1.366 . S
C937 C939 1.388 . S
C938 C937 1.366 . S
C938 C942 1.385 . S
C939 H914 0.951 . S
C939 C937 1.388 . S
C939 C940 1.366 . S
C940 C939 1.366 . S
C940 C941 1.414 . S
C940 C943 1.499 . S
C941 H915 0.950 . S
C941 C940 1.414 . S
C941 C942 1.374 . S
C942 H916 0.950 . S
C942 C938 1.385 . S
C942 C941 1.374 . S
C943 C940 1.499 . S
C943 C944 1.373 . S
C943 C945 1.389 . S
C944 H917 0.950 . S
C944 C930 1.377 . S
C944 C943 1.373 . S
C945 C929 1.377 . S
C945 C943 1.389 . S
C945 C946 1.524 . S
C946 C945 1.524 . S
C946 C947 1.397 . S
C946 C951 1.363 . S
C947 H918 0.950 . S
C947 C946 1.397 . S
C947 C948 1.334 . S
C948 H919 0.950 . S
C948 C947 1.334 . S
C948 C949 1.287 . S
C949 C948 1.287 . S
C949 C950 1.524 . S
C949 H952 0.999 . S
C950 H920 0.950 . S
C950 C949 1.524 . S
C950 C951 1.415 . S
C951 H921 0.950 . S
C951 C946 1.363 . S
C951 C950 1.415 . S
H952 C949 0.999 . S
H953 C934 0.913 . S
H954 C972 0.951 . S
H955 C974 0.951 . S
H956 C976 0.950 . S
H957 C977 0.950 . S
H958 C979 0.950 . S
H959 C982 0.950 . S
H960 C983 0.950 . S
H961 C985 0.950 . S
H962 C986 0.950 . S
H963 C987 0.951 . S
H964 C989 0.951 . S
H965 C991 0.950 1_556 S
H966 C992 0.950 1_556 S
H967 C994 0.950 . S
H968 C997 0.950 . S
H969 C998 0.950 . S
H970 C1000 0.950 . S
H971 C1001 0.950 . S
C972 H954 0.951 . S
C972 C973 1.366 . S
C972 C974 1.388 . S
C973 C972 1.366 . S
C973 C977 1.385 . S
C974 H955 0.951 . S
C974 C972 1.388 . S
C974 C975 1.366 . S
C975 C974 1.366 . S
C975 C976 1.414 . S
C975 C978 1.499 . S
C976 H956 0.950 . S
C976 C975 1.414 . S
C976 C977 1.374 . S
C977 H957 0.950 . S
C977 C973 1.385 . S
C977 C976 1.374 . S
C978 C975 1.499 . S
C978 C979 1.373 . S
C978 C980 1.389 . S
C979 H958 0.950 . S
C979 C978 1.373 . S
C979 C995 1.377 . S
C980 C978 1.389 . S
C980 C981 1.524 . S
C980 C994 1.377 . S
C981 C980 1.524 . S
C981 C982 1.397 . S
C981 C986 1.363 1_554 S
C982 H959 0.950 . S
C982 C981 1.397 . S
C982 C983 1.334 . S
C983 H960 0.950 . S
C983 C982 1.334 . S
C983 C984 1.287 . S
C984 C983 1.287 . S
C984 C985 1.524 1_554 S
C984 H1003 0.913 1_554 S
C985 H961 0.950 . S
C985 C984 1.524 1_556 S
C985 C986 1.415 . S
C986 H962 0.950 . S
C986 C981 1.363 1_556 S
C986 C985 1.415 . S
C987 H963 0.951 . S
C987 C988 1.366 . S
C987 C989 1.388 . S
C988 C987 1.366 . S
C988 C992 1.385 . S
C989 H964 0.951 . S
C989 C987 1.388 . S
C989 C990 1.366 . S
C990 C989 1.366 . S
C990 C991 1.414 . S
C990 C993 1.499 . S
C991 H965 0.950 1_554 S
C991 C990 1.414 . S
C991 C992 1.374 . S
C992 H966 0.950 1_554 S
C992 C988 1.385 . S
C992 C991 1.374 . S
C993 C990 1.499 . S
C993 C994 1.373 . S
C993 C995 1.389 . S
C994 H967 0.950 . S
C994 C980 1.377 . S
C994 C993 1.373 . S
C995 C979 1.377 . S
C995 C993 1.389 . S
C995 C996 1.524 . S
C996 C995 1.524 . S
C996 C997 1.397 . S
C996 C1001 1.363 . S
C997 H968 0.950 . S
C997 C996 1.397 . S
C997 C998 1.334 . S
C998 H969 0.950 . S
C998 C997 1.334 . S
C998 C999 1.287 . S
C999 C998 1.287 . S
C999 C1000 1.524 . S
C999 H1002 0.999 . S
C1000 H970 0.950 . S
C1000 C999 1.524 . S
C1000 C1001 1.415 . S
C1001 H971 0.950 . S
C1001 C996 1.363 . S
C1001 C1000 1.415 . S
H1002 C999 0.999 . S
H1003 C984 0.913 1_556 S
H1004 C1022 0.951 . S
H1005 C1024 0.951 . S
H1006 C1026 0.950 . S
H1007 C1027 0.950 . S
H1008 C1029 0.950 . S
H1009 C1032 0.950 . S
H1010 C1033 0.950 . S
H1011 C1035 0.950 . S
H1012 C1036 0.950 . S
H1013 C1037 0.951 . S
H1014 C1039 0.951 . S
H1015 C1041 0.950 . S
H1016 C1042 0.950 . S
H1017 C1044 0.950 . S
H1018 C1047 0.950 . S
H1019 C1048 0.950 . S
H1020 C1050 0.950 . S
H1021 C1051 0.950 . S
C1022 H1004 0.951 . S
C1022 C1023 1.366 . S
C1022 C1024 1.388 . S
C1023 C1022 1.366 . S
C1023 C1027 1.385 . S
C1024 H1005 0.951 . S
C1024 C1022 1.388 . S
C1024 C1025 1.366 . S
C1025 C1024 1.366 . S
C1025 C1026 1.414 . S
C1025 C1028 1.499 . S
C1026 H1006 0.950 . S
C1026 C1025 1.414 . S
C1026 C1027 1.374 . S
C1027 H1007 0.950 . S
C1027 C1023 1.385 . S
C1027 C1026 1.374 . S
C1028 C1025 1.499 . S
C1028 C1029 1.373 . S
C1028 C1030 1.389 . S
C1029 H1008 0.950 . S
C1029 C1028 1.373 . S
C1029 C1045 1.377 . S
C1030 C1028 1.389 . S
C1030 C1031 1.524 . S
C1030 C1044 1.377 . S
C1031 C1030 1.524 . S
C1031 C1032 1.397 . S
C1031 C1036 1.363 . S
C1032 H1009 0.950 . S
C1032 C1031 1.397 . S
C1032 C1033 1.334 . S
C1033 H1010 0.950 . S
C1033 C1032 1.334 . S
C1033 C1034 1.287 . S
C1034 C1033 1.287 . S
C1034 C1035 1.524 . S
C1034 H1053 0.913 . S
C1035 H1011 0.950 . S
C1035 C1034 1.524 . S
C1035 C1036 1.415 . S
C1036 H1012 0.950 . S
C1036 C1031 1.363 . S
C1036 C1035 1.415 . S
C1037 H1013 0.951 . S
C1037 C1038 1.366 . S
C1037 C1039 1.388 . S
C1038 C1037 1.366 . S
C1038 C1042 1.385 . S
C1039 H1014 0.951 . S
C1039 C1037 1.388 . S
C1039 C1040 1.366 . S
C1040 C1039 1.366 . S
C1040 C1041 1.414 . S
C1040 C1043 1.499 . S
C1041 H1015 0.950 . S
C1041 C1040 1.414 . S
C1041 C1042 1.374 . S
C1042 H1016 0.950 . S
C1042 C1038 1.385 . S
C1042 C1041 1.374 . S
C1043 C1040 1.499 . S
C1043 C1044 1.373 . S
C1043 C1045 1.389 . S
C1044 H1017 0.950 . S
C1044 C1030 1.377 . S
C1044 C1043 1.373 . S
C1045 C1029 1.377 . S
C1045 C1043 1.389 . S
C1045 C1046 1.524 . S
C1046 C1045 1.524 . S
C1046 C1047 1.397 . S
C1046 C1051 1.363 . S
C1047 H1018 0.950 . S
C1047 C1046 1.397 . S
C1047 C1048 1.334 . S
C1048 H1019 0.950 . S
C1048 C1047 1.334 . S
C1048 C1049 1.287 . S
C1049 C1048 1.287 . S
C1049 C1050 1.524 . S
C1049 H1052 0.999 . S
C1050 H1020 0.950 . S
C1050 C1049 1.524 . S
C1050 C1051 1.415 . S
C1051 H1021 0.950 . S
C1051 C1046 1.363 . S
C1051 C1050 1.415 . S
H1052 C1049 0.999 . S
H1053 C1034 0.913 . S
H1054 C1072 0.951 . S
H1055 C1074 0.951 . S
H1056 C1076 0.950 . S
H1057 C1077 0.950 . S
H1058 C1079 0.950 . S
H1059 C1082 0.950 . S
H1060 C1083 0.950 . S
H1061 C1085 0.950 . S
H1062 C1086 0.950 . S
H1063 C1087 0.951 . S
H1064 C1089 0.951 . S
H1065 C1091 0.950 . S
H1066 C1092 0.950 . S
H1067 C1094 0.950 . S
H1068 C1097 0.950 . S
H1069 C1098 0.950 . S
H1070 C1100 0.950 . S
H1071 C1101 0.950 1_554 S
C1072 H1054 0.951 . S
C1072 C1073 1.366 . S
C1072 C1074 1.388 . S
C1073 C1072 1.366 . S
C1073 C1077 1.385 . S
C1074 H1055 0.951 . S
C1074 C1072 1.388 . S
C1074 C1075 1.366 . S
C1075 C1074 1.366 . S
C1075 C1076 1.414 . S
C1075 C1078 1.499 . S
C1076 H1056 0.950 . S
C1076 C1075 1.414 . S
C1076 C1077 1.374 . S
C1077 H1057 0.950 . S
C1077 C1073 1.385 . S
C1077 C1076 1.374 . S
C1078 C1075 1.499 . S
C1078 C1079 1.373 . S
C1078 C1080 1.389 . S
C1079 H1058 0.950 . S
C1079 C1078 1.373 . S
C1079 C1095 1.377 . S
C1080 C1078 1.389 . S
C1080 C1081 1.524 . S
C1080 C1094 1.377 . S
C1081 C1080 1.524 . S
C1081 C1082 1.397 . S
C1081 C1086 1.363 . S
C1082 H1059 0.950 . S
C1082 C1081 1.397 . S
C1082 C1083 1.334 . S
C1083 H1060 0.950 . S
C1083 C1082 1.334 . S
C1083 C1084 1.287 . S
C1084 C1083 1.287 . S
C1084 C1085 1.524 . S
C1084 H1103 0.913 . S
C1085 H1061 0.950 . S
C1085 C1084 1.524 . S
C1085 C1086 1.415 . S
C1086 H1062 0.950 . S
C1086 C1081 1.363 . S
C1086 C1085 1.415 . S
C1087 H1063 0.951 . S
C1087 C1088 1.366 . S
C1087 C1089 1.388 . S
C1088 C1087 1.366 . S
C1088 C1092 1.385 . S
C1089 H1064 0.951 . S
C1089 C1087 1.388 . S
C1089 C1090 1.366 . S
C1090 C1089 1.366 . S
C1090 C1091 1.414 . S
C1090 C1093 1.499 . S
C1091 H1065 0.950 . S
C1091 C1090 1.414 . S
C1091 C1092 1.374 . S
C1092 H1066 0.950 . S
C1092 C1088 1.385 . S
C1092 C1091 1.374 . S
C1093 C1090 1.499 . S
C1093 C1094 1.373 . S
C1093 C1095 1.389 . S
C1094 H1067 0.950 . S
C1094 C1080 1.377 . S
C1094 C1093 1.373 . S
C1095 C1079 1.377 . S
C1095 C1093 1.389 . S
C1095 C1096 1.524 . S
C1096 C1095 1.524 . S
C1096 C1097 1.397 1_554 S
C1096 C1101 1.363 1_554 S
C1097 H1068 0.950 . S
C1097 C1096 1.397 1_556 S
C1097 C1098 1.334 . S
C1098 H1069 0.950 . S
C1098 C1097 1.334 . S
C1098 C1099 1.287 . S
C1099 C1098 1.287 . S
C1099 C1100 1.524 . S
C1099 H1102 0.999 . S
C1100 H1070 0.950 . S
C1100 C1099 1.524 . S
C1100 C1101 1.415 . S
C1101 H1071 0.950 1_556 S
C1101 C1096 1.363 1_556 S
C1101 C1100 1.415 . S
H1102 C1099 0.999 . S
H1103 C1084 0.913 . S
H1104 C1122 0.951 . S
H1105 C1124 0.951 . S
H1106 C1126 0.950 . S
H1107 C1127 0.950 . S
H1108 C1129 0.950 . S
H1109 C1132 0.950 . S
H1110 C1133 0.950 . S
H1111 C1135 0.950 . S
H1112 C1136 0.950 . S
H1113 C1137 0.951 1_554 S
H1114 C1139 0.951 . S
H1115 C1141 0.950 . S
H1116 C1142 0.950 . S
H1117 C1144 0.950 . S
H1118 C1147 0.950 1_556 S
H1119 C1148 0.950 . S
H1120 C1150 0.950 . S
H1121 C1151 0.950 . S
C1122 H1104 0.951 . S
C1122 C1123 1.366 . S
C1122 C1124 1.388 . S
C1123 C1122 1.366 . S
C1123 C1127 1.385 . S
C1124 H1105 0.951 . S
C1124 C1122 1.388 . S
C1124 C1125 1.366 . S
C1125 C1124 1.366 . S
C1125 C1126 1.414 . S
C1125 C1128 1.499 . S
C1126 H1106 0.950 . S
C1126 C1125 1.414 . S
C1126 C1127 1.374 . S
C1127 H1107 0.950 . S
C1127 C1123 1.385 . S
C1127 C1126 1.374 . S
C1128 C1125 1.499 . S
C1128 C1129 1.373 . S
C1128 C1130 1.389 . S
C1129 H1108 0.950 . S
C1129 C1128 1.373 . S
C1129 C1145 1.377 . S
C1130 C1128 1.389 . S
C1130 C1131 1.524 . S
C1130 C1144 1.377 . S
C1131 C1130 1.524 . S
C1131 C1132 1.397 . S
C1131 C1136 1.363 . S
C1132 H1109 0.950 . S
C1132 C1131 1.397 . S
C1132 C1133 1.334 . S
C1133 H1110 0.950 . S
C1133 C1132 1.334 . S
C1133 C1134 1.287 . S
C1134 C1133 1.287 . S
C1134 C1135 1.524 . S
C1134 H1153 0.913 . S
C1135 H1111 0.950 . S
C1135 C1134 1.524 . S
C1135 C1136 1.415 . S
C1136 H1112 0.950 . S
C1136 C1131 1.363 . S
C1136 C1135 1.415 . S
C1137 H1113 0.951 1_556 S
C1137 C1138 1.366 . S
C1137 C1139 1.388 . S
C1138 C1137 1.366 . S
C1138 C1142 1.385 . S
C1139 H1114 0.951 . S
C1139 C1137 1.388 . S
C1139 C1140 1.366 . S
C1140 C1139 1.366 . S
C1140 C1141 1.414 . S
C1140 C1143 1.499 . S
C1141 H1115 0.950 . S
C1141 C1140 1.414 . S
C1141 C1142 1.374 . S
C1142 H1116 0.950 . S
C1142 C1138 1.385 . S
C1142 C1141 1.374 . S
C1143 C1140 1.499 . S
C1143 C1144 1.373 . S
C1143 C1145 1.389 . S
C1144 H1117 0.950 . S
C1144 C1130 1.377 . S
C1144 C1143 1.373 . S
C1145 C1129 1.377 . S
C1145 C1143 1.389 . S
C1145 C1146 1.517 1_556 S
C1146 C1145 1.517 1_554 S
C1146 C1147 1.398 . S
C1146 C1151 1.368 . S
C1147 H1118 0.950 1_554 S
C1147 C1146 1.398 . S
C1147 C1148 1.334 . S
C1148 H1119 0.950 . S
C1148 C1147 1.334 . S
C1148 C1149 1.287 . S
C1149 C1148 1.287 . S
C1149 C1150 1.524 . S
C1149 H1152 0.999 . S
C1150 H1120 0.950 . S
C1150 C1149 1.524 . S
C1150 C1151 1.415 . S
C1151 H1121 0.950 . S
C1151 C1146 1.368 . S
C1151 C1150 1.415 . S
H1152 C1149 0.999 . S
H1153 C1134 0.913 . S
H1154 C1172 0.951 . S
H1155 C1174 0.951 . S
H1156 C1176 0.950 . S
H1157 C1177 0.950 . S
H1158 C1179 0.950 . S
H1159 C1182 0.950 . S
H1160 C1183 0.950 . S
H1161 C1185 0.950 . S
H1162 C1186 0.950 . S
H1163 C1187 0.951 . S
H1164 C1189 0.951 . S
H1165 C1191 0.950 . S
H1166 C1192 0.950 . S
H1167 C1194 0.950 . S
H1168 C1197 0.950 1_554 S
H1169 C1198 0.950 . S
H1170 C1200 0.950 . S
H1171 C1201 0.950 . S
C1172 H1154 0.951 . S
C1172 C1173 1.366 . S
C1172 C1174 1.388 . S
C1173 C1172 1.366 . S
C1173 C1177 1.385 . S
C1174 H1155 0.951 . S
C1174 C1172 1.388 . S
C1174 C1175 1.366 . S
C1175 C1174 1.366 . S
C1175 C1176 1.414 . S
C1175 C1178 1.499 . S
C1176 H1156 0.950 . S
C1176 C1175 1.414 . S
C1176 C1177 1.374 . S
C1177 H1157 0.950 . S
C1177 C1173 1.385 . S
C1177 C1176 1.374 . S
C1178 C1175 1.499 . S
C1178 C1179 1.373 . S
C1178 C1180 1.389 . S
C1179 H1158 0.950 . S
C1179 C1178 1.373 . S
C1179 C1195 1.377 . S
C1180 C1178 1.389 . S
C1180 C1181 1.524 . S
C1180 C1194 1.377 . S
C1181 C1180 1.524 . S
C1181 C1182 1.397 . S
C1181 C1186 1.363 . S
C1182 H1159 0.950 . S
C1182 C1181 1.397 . S
C1182 C1183 1.334 . S
C1183 H1160 0.950 . S
C1183 C1182 1.334 . S
C1183 C1184 1.287 . S
C1184 C1183 1.287 . S
C1184 C1185 1.524 . S
C1184 H1203 0.913 . S
C1185 H1161 0.950 . S
C1185 C1184 1.524 . S
C1185 C1186 1.415 . S
C1186 H1162 0.950 . S
C1186 C1181 1.363 . S
C1186 C1185 1.415 . S
C1187 H1163 0.951 . S
C1187 C1188 1.366 . S
C1187 C1189 1.388 . S
C1188 C1187 1.366 . S
C1188 C1192 1.385 . S
C1189 H1164 0.951 . S
C1189 C1187 1.388 . S
C1189 C1190 1.366 . S
C1190 C1189 1.366 . S
C1190 C1191 1.414 . S
C1190 C1193 1.499 . S
C1191 H1165 0.950 . S
C1191 C1190 1.414 . S
C1191 C1192 1.374 . S
C1192 H1166 0.950 . S
C1192 C1188 1.385 . S
C1192 C1191 1.374 . S
C1193 C1190 1.499 . S
C1193 C1194 1.373 . S
C1193 C1195 1.389 . S
C1194 H1167 0.950 . S
C1194 C1180 1.377 . S
C1194 C1193 1.373 . S
C1195 C1179 1.377 . S
C1195 C1193 1.389 . S
C1195 C1196 1.524 . S
C1196 C1195 1.524 . S
C1196 C1197 1.397 . S
C1196 C1201 1.363 . S
C1197 H1168 0.950 1_556 S
C1197 C1196 1.397 . S
C1197 C1198 1.334 1_556 S
C1198 H1169 0.950 . S
C1198 C1197 1.334 1_554 S
C1198 C1199 1.287 . S
C1199 C1198 1.287 . S
C1199 C1200 1.524 1_554 S
C1199 H1202 0.999 . S
C1200 H1170 0.950 . S
C1200 C1199 1.524 1_556 S
C1200 C1201 1.415 . S
C1201 H1171 0.950 . S
C1201 C1196 1.363 . S
C1201 C1200 1.415 . S
H1202 C1199 0.999 . S
H1203 C1184 0.913 . S
H1204 C1222 0.951 . S
H1205 C1224 0.951 . S
H1206 C1226 0.950 . S
H1207 C1227 0.950 . S
H1208 C1229 0.950 . S
H1209 C1232 0.950 . S
H1210 C1233 0.950 . S
H1211 C1235 0.950 . S
H1212 C1236 0.950 . S
H1213 C1237 0.951 . S
H1214 C1239 0.951 . S
H1215 C1241 0.950 . S
H1216 C1242 0.950 . S
H1217 C1244 0.950 . S
H1218 C1247 0.950 . S
H1219 C1248 0.950 . S
H1220 C1250 0.950 . S
H1221 C1251 0.950 . S
C1222 H1204 0.951 . S
C1222 C1223 1.366 . S
C1222 C1224 1.388 . S
C1223 C1222 1.366 . S
C1223 C1227 1.385 . S
C1224 H1205 0.951 . S
C1224 C1222 1.388 . S
C1224 C1225 1.366 . S
C1225 C1224 1.366 . S
C1225 C1226 1.414 . S
C1225 C1228 1.499 . S
C1226 H1206 0.950 . S
C1226 C1225 1.414 . S
C1226 C1227 1.374 . S
C1227 H1207 0.950 . S
C1227 C1223 1.385 . S
C1227 C1226 1.374 . S
C1228 C1225 1.499 . S
C1228 C1229 1.373 . S
C1228 C1230 1.389 . S
C1229 H1208 0.950 . S
C1229 C1228 1.373 . S
C1229 C1245 1.377 . S
C1230 C1228 1.389 . S
C1230 C1231 1.524 . S
C1230 C1244 1.377 . S
C1231 C1230 1.524 . S
C1231 C1232 1.397 . S
C1231 C1236 1.363 . S
C1232 H1209 0.950 . S
C1232 C1231 1.397 . S
C1232 C1233 1.334 . S
C1233 H1210 0.950 . S
C1233 C1232 1.334 . S
C1233 C1234 1.287 . S
C1234 C1233 1.287 . S
C1234 C1235 1.524 . S
C1234 H1253 0.913 . S
C1235 H1211 0.950 . S
C1235 C1234 1.524 . S
C1235 C1236 1.415 . S
C1236 H1212 0.950 . S
C1236 C1231 1.363 . S
C1236 C1235 1.415 . S
C1237 H1213 0.951 . S
C1237 C1238 1.366 . S
C1237 C1239 1.388 . S
C1238 C1237 1.366 . S
C1238 C1242 1.385 . S
C1239 H1214 0.951 . S
C1239 C1237 1.388 . S
C1239 C1240 1.366 . S
C1240 C1239 1.366 . S
C1240 C1241 1.414 . S
C1240 C1243 1.499 . S
C1241 H1215 0.950 . S
C1241 C1240 1.414 . S
C1241 C1242 1.374 . S
C1242 H1216 0.950 . S
C1242 C1238 1.385 . S
C1242 C1241 1.374 . S
C1243 C1240 1.499 . S
C1243 C1244 1.373 . S
C1243 C1245 1.389 . S
C1244 H1217 0.950 . S
C1244 C1230 1.377 . S
C1244 C1243 1.373 . S
C1245 C1229 1.377 . S
C1245 C1243 1.389 . S
C1245 C1246 1.524 . S
C1246 C1245 1.524 . S
C1246 C1247 1.397 . S
C1246 C1251 1.363 . S
C1247 H1218 0.950 . S
C1247 C1246 1.397 . S
C1247 C1248 1.334 1_556 S
C1248 H1219 0.950 . S
C1248 C1247 1.334 1_554 S
C1248 C1249 1.287 . S
C1249 C1248 1.287 . S
C1249 C1250 1.524 . S
C1249 H1252 0.999 . S
C1250 H1220 0.950 . S
C1250 C1249 1.524 . S
C1250 C1251 1.415 1_554 S
C1251 H1221 0.950 . S
C1251 C1246 1.363 . S
C1251 C1250 1.415 1_556 S
H1252 C1249 0.999 . S
H1253 C1234 0.913 . S
H1254 C1272 0.951 . S
H1255 C1274 0.951 . S
H1256 C1276 0.950 . S
H1257 C1277 0.950 . S
H1258 C1279 0.950 . S
H1259 C1282 0.950 . S
H1260 C1283 0.950 . S
H1261 C1285 0.950 . S
H1262 C1286 0.950 . S
H1263 C1287 0.951 . S
H1264 C1289 0.951 . S
H1265 C1291 0.950 . S
H1266 C1292 0.950 . S
H1267 C1294 0.950 . S
H1268 C1297 0.950 . S
H1269 C1298 0.950 . S
H1270 C1300 0.950 . S
H1271 C1301 0.950 . S
C1272 H1254 0.951 . S
C1272 C1273 1.366 . S
C1272 C1274 1.388 . S
C1273 C1272 1.366 . S
C1273 C1277 1.385 . S
C1274 H1255 0.951 . S
C1274 C1272 1.388 . S
C1274 C1275 1.366 . S
C1275 C1274 1.366 . S
C1275 C1276 1.414 . S
C1275 C1278 1.499 . S
C1276 H1256 0.950 . S
C1276 C1275 1.414 . S
C1276 C1277 1.374 . S
C1277 H1257 0.950 . S
C1277 C1273 1.385 . S
C1277 C1276 1.374 . S
C1278 C1275 1.499 . S
C1278 C1279 1.373 . S
C1278 C1280 1.389 . S
C1279 H1258 0.950 . S
C1279 C1278 1.373 . S
C1279 C1295 1.377 . S
C1280 C1278 1.389 . S
C1280 C1281 1.524 . S
C1280 C1294 1.377 . S
C1281 C1280 1.524 . S
C1281 C1282 1.397 . S
C1281 C1286 1.363 . S
C1282 H1259 0.950 . S
C1282 C1281 1.397 . S
C1282 C1283 1.334 . S
C1283 H1260 0.950 . S
C1283 C1282 1.334 . S
C1283 C1284 1.287 . S
C1284 C1283 1.287 . S
C1284 C1285 1.524 . S
C1284 H1303 0.913 . S
C1285 H1261 0.950 . S
C1285 C1284 1.524 . S
C1285 C1286 1.415 . S
C1286 H1262 0.950 . S
C1286 C1281 1.363 . S
C1286 C1285 1.415 . S
C1287 H1263 0.951 . S
C1287 C1288 1.366 . S
C1287 C1289 1.388 . S
C1288 C1287 1.366 . S
C1288 C1292 1.385 . S
C1289 H1264 0.951 . S
C1289 C1287 1.388 . S
C1289 C1290 1.366 . S
C1290 C1289 1.366 . S
C1290 C1291 1.414 . S
C1290 C1293 1.499 . S
C1291 H1265 0.950 . S
C1291 C1290 1.414 . S
C1291 C1292 1.374 . S
C1292 H1266 0.950 . S
C1292 C1288 1.385 . S
C1292 C1291 1.374 . S
C1293 C1290 1.499 . S
C1293 C1294 1.373 . S
C1293 C1295 1.389 . S
C1294 H1267 0.950 . S
C1294 C1280 1.377 . S
C1294 C1293 1.373 . S
C1295 C1279 1.377 . S
C1295 C1293 1.389 . S
C1295 C1296 1.524 . S
C1296 C1295 1.524 . S
C1296 C1297 1.397 . S
C1296 C1301 1.363 . S
C1297 H1268 0.950 . S
C1297 C1296 1.397 . S
C1297 C1298 1.334 . S
C1298 H1269 0.950 . S
C1298 C1297 1.334 . S
C1298 C1299 1.287 . S
C1299 C1298 1.287 . S
C1299 C1300 1.524 . S
C1299 H1302 0.999 . S
C1300 H1270 0.950 . S
C1300 C1299 1.524 . S
C1300 C1301 1.415 . S
C1301 H1271 0.950 . S
C1301 C1296 1.363 . S
C1301 C1300 1.415 . S
H1302 C1299 0.999 . S
H1303 C1284 0.913 . S
H1304 C1322 0.951 . S
H1305 C1324 0.951 . S
H1306 C1326 0.950 . S
H1307 C1327 0.950 . S
H1308 C1329 0.950 . S
H1309 C1332 0.950 . S
H1310 C1333 0.950 . S
H1311 C1335 0.950 . S
H1312 C1336 0.950 . S
H1313 C1337 0.951 . S
H1314 C1339 0.951 . S
H1315 C1341 0.950 . S
H1316 C1342 0.950 . S
H1317 C1344 0.950 . S
H1318 C1347 0.950 . S
H1319 C1348 0.950 . S
H1320 C1350 0.950 . S
H1321 C1351 0.950 . S
C1322 H1304 0.951 . S
C1322 C1323 1.366 . S
C1322 C1324 1.388 . S
C1323 C1322 1.366 . S
C1323 C1327 1.385 . S
C1324 H1305 0.951 . S
C1324 C1322 1.388 . S
C1324 C1325 1.366 . S
C1325 C1324 1.366 . S
C1325 C1326 1.414 . S
C1325 C1328 1.499 . S
C1326 H1306 0.950 . S
C1326 C1325 1.414 . S
C1326 C1327 1.374 . S
C1327 H1307 0.950 . S
C1327 C1323 1.385 . S
C1327 C1326 1.374 . S
C1328 C1325 1.499 . S
C1328 C1329 1.373 . S
C1328 C1330 1.389 . S
C1329 H1308 0.950 . S
C1329 C1328 1.373 . S
C1329 C1345 1.377 . S
C1330 C1328 1.389 . S
C1330 C1331 1.524 . S
C1330 C1344 1.377 . S
C1331 C1330 1.524 . S
C1331 C1332 1.397 . S
C1331 C1336 1.363 . S
C1332 H1309 0.950 . S
C1332 C1331 1.397 . S
C1332 C1333 1.334 . S
C1333 H1310 0.950 . S
C1333 C1332 1.334 . S
C1333 C1334 1.287 . S
C1334 C1333 1.287 . S
C1334 C1335 1.524 . S
C1334 H1353 0.913 . S
C1335 H1311 0.950 . S
C1335 C1334 1.524 . S
C1335 C1336 1.415 . S
C1336 H1312 0.950 . S
C1336 C1331 1.363 . S
C1336 C1335 1.415 . S
C1337 H1313 0.951 . S
C1337 C1338 1.366 . S
C1337 C1339 1.388 . S
C1338 C1337 1.366 . S
C1338 C1342 1.385 . S
C1339 H1314 0.951 . S
C1339 C1337 1.388 . S
C1339 C1340 1.366 . S
C1340 C1339 1.366 . S
C1340 C1341 1.414 . S
C1340 C1343 1.499 . S
C1341 H1315 0.950 . S
C1341 C1340 1.414 . S
C1341 C1342 1.374 . S
C1342 H1316 0.950 . S
C1342 C1338 1.385 . S
C1342 C1341 1.374 . S
C1343 C1340 1.499 . S
C1343 C1344 1.373 . S
C1343 C1345 1.389 . S
C1344 H1317 0.950 . S
C1344 C1330 1.377 . S
C1344 C1343 1.373 . S
C1345 C1329 1.377 . S
C1345 C1343 1.389 . S
C1345 C1346 1.524 . S
C1346 C1345 1.524 . S
C1346 C1347 1.397 . S
C1346 C1351 1.363 . S
C1347 H1318 0.950 . S
C1347 C1346 1.397 . S
C1347 C1348 1.334 . S
C1348 H1319 0.950 . S
C1348 C1347 1.334 . S
C1348 C1349 1.287 . S
C1349 C1348 1.287 . S
C1349 C1350 1.524 . S
C1349 H1352 0.999 . S
C1350 H1320 0.950 . S
C1350 C1349 1.524 . S
C1350 C1351 1.415 . S
C1351 H1321 0.950 . S
C1351 C1346 1.363 . S
C1351 C1350 1.415 . S
H1352 C1349 0.999 . S
H1353 C1334 0.913 . S
H1354 C1372 0.951 . S
H1355 C1374 0.951 . S
H1356 C1376 0.950 . S
H1357 C1377 0.950 . S
H1358 C1379 0.950 . S
H1359 C1382 0.950 . S
H1360 C1383 0.950 . S
H1361 C1385 0.950 . S
H1362 C1386 0.950 . S
H1363 C1387 0.951 . S
H1364 C1389 0.951 . S
H1365 C1391 0.950 . S
H1366 C1392 0.950 . S
H1367 C1394 0.950 . S
H1368 C1397 0.950 . S
H1369 C1398 0.950 . S
H1370 C1400 0.950 . S
H1371 C1401 0.950 . S
C1372 H1354 0.951 . S
C1372 C1373 1.366 . S
C1372 C1374 1.388 . S
C1373 C1372 1.366 . S
C1373 C1377 1.385 . S
C1374 H1355 0.951 . S
C1374 C1372 1.388 . S
C1374 C1375 1.366 . S
C1375 C1374 1.366 . S
C1375 C1376 1.414 . S
C1375 C1378 1.499 . S
C1376 H1356 0.950 . S
C1376 C1375 1.414 . S
C1376 C1377 1.374 . S
C1377 H1357 0.950 . S
C1377 C1373 1.385 . S
C1377 C1376 1.374 . S
C1378 C1375 1.499 . S
C1378 C1379 1.373 . S
C1378 C1380 1.389 . S
C1379 H1358 0.950 . S
C1379 C1378 1.373 . S
C1379 C1395 1.377 . S
C1380 C1378 1.389 . S
C1380 C1381 1.524 . S
C1380 C1394 1.377 . S
C1381 C1380 1.524 . S
C1381 C1382 1.397 . S
C1381 C1386 1.363 . S
C1382 H1359 0.950 . S
C1382 C1381 1.397 . S
C1382 C1383 1.334 . S
C1383 H1360 0.950 . S
C1383 C1382 1.334 . S
C1383 C1384 1.287 . S
C1384 C1383 1.287 . S
C1384 C1385 1.524 . S
C1384 H1403 0.913 . S
C1385 H1361 0.950 . S
C1385 C1384 1.524 . S
C1385 C1386 1.415 . S
C1386 H1362 0.950 . S
C1386 C1381 1.363 . S
C1386 C1385 1.415 . S
C1387 H1363 0.951 . S
C1387 C1388 1.366 . S
C1387 C1389 1.388 . S
C1388 C1387 1.366 . S
C1388 C1392 1.385 . S
C1389 H1364 0.951 . S
C1389 C1387 1.388 . S
C1389 C1390 1.366 . S
C1390 C1389 1.366 . S
C1390 C1391 1.414 . S
C1390 C1393 1.499 . S
C1391 H1365 0.950 . S
C1391 C1390 1.414 . S
C1391 C1392 1.374 . S
C1392 H1366 0.950 . S
C1392 C1388 1.385 . S
C1392 C1391 1.374 . S
C1393 C1390 1.499 . S
C1393 C1394 1.373 . S
C1393 C1395 1.389 . S
C1394 H1367 0.950 . S
C1394 C1380 1.377 . S
C1394 C1393 1.373 . S
C1395 C1379 1.377 . S
C1395 C1393 1.389 . S
C1395 C1396 1.524 . S
C1396 C1395 1.524 . S
C1396 C1397 1.397 . S
C1396 C1401 1.363 . S
C1397 H1368 0.950 . S
C1397 C1396 1.397 . S
C1397 C1398 1.334 . S
C1398 H1369 0.950 . S
C1398 C1397 1.334 . S
C1398 C1399 1.287 . S
C1399 C1398 1.287 . S
C1399 C1400 1.524 . S
C1399 H1402 0.999 . S
C1400 H1370 0.950 . S
C1400 C1399 1.524 . S
C1400 C1401 1.415 . S
C1401 H1371 0.950 . S
C1401 C1396 1.363 . S
C1401 C1400 1.415 . S
H1402 C1399 0.999 . S
H1403 C1384 0.913 . S
H1404 C1422 0.951 . S
H1405 C1424 0.951 . S
H1406 C1426 0.950 . S
H1407 C1427 0.950 . S
H1408 C1429 0.950 . S
H1409 C1432 0.950 . S
H1410 C1433 0.950 . S
H1411 C1435 0.950 . S
H1412 C1436 0.950 . S
H1413 C1437 0.951 . S
H1414 C1439 0.951 . S
H1415 C1441 0.950 . S
H1416 C1442 0.950 . S
H1417 C1444 0.950 . S
H1418 C1447 0.950 . S
H1419 C1448 0.950 . S
H1420 C1450 0.950 . S
H1421 C1451 0.950 . S
C1422 H1404 0.951 . S
C1422 C1423 1.366 . S
C1422 C1424 1.388 . S
C1423 C1422 1.366 . S
C1423 C1427 1.385 . S
C1424 H1405 0.951 . S
C1424 C1422 1.388 . S
C1424 C1425 1.366 . S
C1425 C1424 1.366 . S
C1425 C1426 1.414 . S
C1425 C1428 1.499 . S
C1426 H1406 0.950 . S
C1426 C1425 1.414 . S
C1426 C1427 1.374 . S
C1427 H1407 0.950 . S
C1427 C1423 1.385 . S
C1427 C1426 1.374 . S
C1428 C1425 1.499 . S
C1428 C1429 1.373 . S
C1428 C1430 1.389 . S
C1429 H1408 0.950 . S
C1429 C1428 1.373 . S
C1429 C1445 1.377 . S
C1430 C1428 1.389 . S
C1430 C1431 1.524 . S
C1430 C1444 1.377 . S
C1431 C1430 1.524 . S
C1431 C1432 1.397 . S
C1431 C1436 1.363 . S
C1432 H1409 0.950 . S
C1432 C1431 1.397 . S
C1432 C1433 1.334 . S
C1433 H1410 0.950 . S
C1433 C1432 1.334 . S
C1433 C1434 1.287 . S
C1434 C1433 1.287 . S
C1434 C1435 1.524 . S
C1434 H1453 0.913 . S
C1435 H1411 0.950 . S
C1435 C1434 1.524 . S
C1435 C1436 1.415 . S
C1436 H1412 0.950 . S
C1436 C1431 1.363 . S
C1436 C1435 1.415 . S
C1437 H1413 0.951 . S
C1437 C1438 1.366 . S
C1437 C1439 1.388 . S
C1438 C1437 1.366 . S
C1438 C1442 1.385 . S
C1439 H1414 0.951 . S
C1439 C1437 1.388 . S
C1439 C1440 1.366 1_554 S
C1440 C1439 1.366 1_556 S
C1440 C1441 1.414 . S
C1440 C1443 1.499 . S
C1441 H1415 0.950 . S
C1441 C1440 1.414 . S
C1441 C1442 1.374 1_556 S
C1442 H1416 0.950 . S
C1442 C1438 1.385 . S
C1442 C1441 1.374 1_554 S
C1443 C1440 1.499 . S
C1443 C1444 1.373 . S
C1443 C1445 1.389 . S
C1444 H1417 0.950 . S
C1444 C1430 1.377 . S
C1444 C1443 1.373 . S
C1445 C1429 1.377 . S
C1445 C1443 1.389 . S
C1445 C1446 1.524 . S
C1446 C1445 1.524 . S
C1446 C1447 1.397 . S
C1446 C1451 1.363 . S
C1447 H1418 0.950 . S
C1447 C1446 1.397 . S
C1447 C1448 1.334 1_556 S
C1448 H1419 0.950 . S
C1448 C1447 1.334 1_554 S
C1448 C1449 1.287 . S
C1449 C1448 1.287 . S
C1449 C1450 1.524 . S
C1449 H1452 0.999 . S
C1450 H1420 0.950 . S
C1450 C1449 1.524 . S
C1450 C1451 1.415 1_554 S
C1451 H1421 0.950 . S
C1451 C1446 1.363 . S
C1451 C1450 1.415 1_556 S
H1452 C1449 0.999 . S
H1453 C1434 0.913 . S
H1454 C1472 0.951 . S
H1455 C1474 0.951 . S
H1456 C1476 0.949 1_556 S
H1457 C1477 0.950 . S
H1458 C1479 0.950 . S
H1459 C1482 0.950 . S
H1460 C1483 0.950 . S
H1461 C1485 0.950 . S
H1462 C1486 0.950 . S
H1463 C1487 0.951 . S
H1464 C1489 0.951 . S
H1465 C1491 0.950 . S
H1466 C1492 0.950 . S
H1467 C1494 0.950 . S
H1468 C1497 0.950 . S
H1469 C1498 0.950 . S
H1470 C1500 0.950 . S
H1471 C1501 0.950 . S
C1472 H1454 0.951 . S
C1472 C1473 1.366 . S
C1472 C1474 1.388 1_554 S
C1473 C1472 1.366 . S
C1473 C1477 1.385 . S
C1474 H1455 0.951 . S
C1474 C1472 1.388 1_556 S
C1474 C1475 1.366 . S
C1475 C1474 1.366 . S
C1475 C1476 1.408 1_556 S
C1475 C1478 1.499 . S
C1476 H1456 0.949 1_554 S
C1476 C1475 1.408 1_554 S
C1476 C1477 1.381 . S
C1477 H1457 0.950 . S
C1477 C1473 1.385 . S
C1477 C1476 1.381 . S
C1478 C1475 1.499 . S
C1478 C1479 1.373 . S
C1478 C1480 1.389 . S
C1479 H1458 0.950 . S
C1479 C1478 1.373 . S
C1479 C1495 1.377 . S
C1480 C1478 1.389 . S
C1480 C1481 1.524 . S
C1480 C1494 1.377 . S
C1481 C1480 1.524 . S
C1481 C1482 1.397 . S
C1481 C1486 1.363 . S
C1482 H1459 0.950 . S
C1482 C1481 1.397 . S
C1482 C1483 1.334 . S
C1483 H1460 0.950 . S
C1483 C1482 1.334 . S
C1483 C1484 1.287 . S
C1484 C1483 1.287 . S
C1484 C1485 1.524 . S
C1484 H1503 0.913 . S
C1485 H1461 0.950 . S
C1485 C1484 1.524 . S
C1485 C1486 1.415 . S
C1486 H1462 0.950 . S
C1486 C1481 1.363 . S
C1486 C1485 1.415 . S
C1487 H1463 0.951 . S
C1487 C1488 1.366 . S
C1487 C1489 1.388 . S
C1488 C1487 1.366 . S
C1488 C1492 1.385 . S
C1489 H1464 0.951 . S
C1489 C1487 1.388 . S
C1489 C1490 1.366 . S
C1490 C1489 1.366 . S
C1490 C1491 1.414 . S
C1490 C1493 1.499 . S
C1491 H1465 0.950 . S
C1491 C1490 1.414 . S
C1491 C1492 1.374 . S
C1492 H1466 0.950 . S
C1492 C1488 1.385 . S
C1492 C1491 1.374 . S
C1493 C1490 1.499 . S
C1493 C1494 1.373 . S
C1493 C1495 1.389 . S
C1494 H1467 0.950 . S
C1494 C1480 1.377 . S
C1494 C1493 1.373 . S
C1495 C1479 1.377 . S
C1495 C1493 1.389 . S
C1495 C1496 1.524 . S
C1496 C1495 1.524 . S
C1496 C1497 1.397 . S
C1496 C1501 1.363 . S
C1497 H1468 0.950 . S
C1497 C1496 1.397 . S
C1497 C1498 1.334 . S
C1498 H1469 0.950 . S
C1498 C1497 1.334 . S
C1498 C1499 1.287 . S
C1499 C1498 1.287 . S
C1499 C1500 1.524 . S
C1499 H1502 0.999 . S
C1500 H1470 0.950 . S
C1500 C1499 1.524 . S
C1500 C1501 1.415 . S
C1501 H1471 0.950 . S
C1501 C1496 1.363 . S
C1501 C1500 1.415 . S
H1502 C1499 0.999 . S
H1503 C1484 0.913 . S
H1504 C1522 0.951 . S
H1505 C1524 0.948 1_556 S
H1506 C1526 0.950 . S
H1507 C1527 0.950 . S
H1508 C1529 0.950 . S
H1509 C1532 0.950 . S
H1510 C1533 0.950 . S
H1511 C1535 0.950 . S
H1512 C1536 0.950 . S
H1513 C1537 0.951 . S
H1514 C1539 0.951 . S
H1515 C1541 0.950 . S
H1516 C1542 0.950 . S
H1517 C1544 0.950 . S
H1518 C1547 0.950 . S
H1519 C1548 0.950 . S
H1520 C1550 0.950 . S
H1521 C1551 0.950 . S
C1522 H1504 0.951 . S
C1522 C1523 1.366 . S
C1522 C1524 1.397 . S
C1523 C1522 1.366 . S
C1523 C1527 1.385 . S
C1524 H1505 0.948 1_554 S
C1524 C1522 1.397 . S
C1524 C1525 1.359 1_554 S
C1525 C1524 1.359 1_556 S
C1525 C1526 1.414 . S
C1525 C1528 1.499 . S
C1526 H1506 0.950 . S
C1526 C1525 1.414 . S
C1526 C1527 1.374 1_556 S
C1527 H1507 0.950 . S
C1527 C1523 1.385 . S
C1527 C1526 1.374 1_554 S
C1528 C1525 1.499 . S
C1528 C1529 1.373 . S
C1528 C1530 1.389 . S
C1529 H1508 0.950 . S
C1529 C1528 1.373 . S
C1529 C1545 1.377 . S
C1530 C1528 1.389 . S
C1530 C1531 1.524 . S
C1530 C1544 1.377 . S
C1531 C1530 1.524 . S
C1531 C1532 1.397 1_556 S
C1531 C1536 1.363 . S
C1532 H1509 0.950 . S
C1532 C1531 1.397 1_554 S
C1532 C1533 1.334 . S
C1533 H1510 0.950 . S
C1533 C1532 1.334 . S
C1533 C1534 1.287 . S
C1534 C1533 1.287 . S
C1534 C1535 1.524 . S
C1534 H1553 0.913 . S
C1535 H1511 0.950 . S
C1535 C1534 1.524 . S
C1535 C1536 1.415 1_554 S
C1536 H1512 0.950 . S
C1536 C1531 1.363 . S
C1536 C1535 1.415 1_556 S
C1537 H1513 0.951 . S
C1537 C1538 1.366 . S
C1537 C1539 1.388 . S
C1538 C1537 1.366 . S
C1538 C1542 1.385 . S
C1539 H1514 0.951 . S
C1539 C1537 1.388 . S
C1539 C1540 1.366 . S
C1540 C1539 1.366 . S
C1540 C1541 1.414 . S
C1540 C1543 1.499 . S
C1541 H1515 0.950 . S
C1541 C1540 1.414 . S
C1541 C1542 1.374 . S
C1542 H1516 0.950 . S
C1542 C1538 1.385 . S
C1542 C1541 1.374 . S
C1543 C1540 1.499 . S
C1543 C1544 1.373 . S
C1543 C1545 1.389 . S
C1544 H1517 0.950 . S
C1544 C1530 1.377 . S
C1544 C1543 1.373 . S
C1545 C1529 1.377 . S
C1545 C1543 1.389 . S
C1545 C1546 1.524 . S
C1546 C1545 1.524 . S
C1546 C1547 1.397 . S
C1546 C1551 1.363 . S
C1547 H1518 0.950 . S
C1547 C1546 1.397 . S
C1547 C1548 1.334 . S
C1548 H1519 0.950 . S
C1548 C1547 1.334 . S
C1548 C1549 1.287 . S
C1549 C1548 1.287 . S
C1549 C1550 1.524 . S
C1549 H1552 0.999 . S
C1550 H1520 0.950 . S
C1550 C1549 1.524 . S
C1550 C1551 1.415 . S
C1551 H1521 0.950 . S
C1551 C1546 1.363 . S
C1551 C1550 1.415 . S
H1552 C1549 0.999 . S
H1553 C1534 0.913 . S
H1554 C1572 0.951 . S
H1555 C1574 0.951 . S
H1556 C1576 0.950 . S
H1557 C1577 0.950 . S
H1558 C1579 0.950 . S
H1559 C1582 0.950 . S
H1560 C1583 0.950 . S
H1561 C1585 0.950 . S
H1562 C1586 0.950 . S
H1563 C1587 0.951 . S
H1564 C1589 0.951 . S
H1565 C1591 0.950 . S
H1566 C1592 0.950 . S
H1567 C1594 0.950 . S
H1568 C1597 0.950 . S
H1569 C1598 0.950 . S
H1570 C1600 0.950 . S
H1571 C1601 0.950 . S
C1572 H1554 0.951 . S
C1572 C1573 1.366 . S
C1572 C1574 1.388 . S
C1573 C1572 1.366 . S
C1573 C1577 1.385 . S
C1574 H1555 0.951 . S
C1574 C1572 1.388 . S
C1574 C1575 1.366 . S
C1575 C1574 1.366 . S
C1575 C1576 1.414 . S
C1575 C1578 1.499 . S
C1576 H1556 0.950 . S
C1576 C1575 1.414 . S
C1576 C1577 1.374 . S
C1577 H1557 0.950 . S
C1577 C1573 1.385 . S
C1577 C1576 1.374 . S
C1578 C1575 1.499 . S
C1578 C1579 1.373 . S
C1578 C1580 1.389 . S
C1579 H1558 0.950 . S
C1579 C1578 1.373 . S
C1579 C1595 1.377 . S
C1580 C1578 1.389 . S
C1580 C1581 1.524 . S
C1580 C1594 1.377 . S
C1581 C1580 1.524 . S
C1581 C1582 1.397 . S
C1581 C1586 1.363 . S
C1582 H1559 0.950 . S
C1582 C1581 1.397 . S
C1582 C1583 1.334 . S
C1583 H1560 0.950 . S
C1583 C1582 1.334 . S
C1583 C1584 1.287 . S
C1584 C1583 1.287 . S
C1584 C1585 1.524 . S
C1584 H1603 0.913 . S
C1585 H1561 0.950 . S
C1585 C1584 1.524 . S
C1585 C1586 1.415 . S
C1586 H1562 0.950 . S
C1586 C1581 1.363 . S
C1586 C1585 1.415 . S
C1587 H1563 0.951 . S
C1587 C1588 1.366 . S
C1587 C1589 1.388 . S
C1588 C1587 1.366 . S
C1588 C1592 1.385 . S
C1589 H1564 0.951 . S
C1589 C1587 1.388 . S
C1589 C1590 1.366 . S
C1590 C1589 1.366 . S
C1590 C1591 1.414 . S
C1590 C1593 1.499 . S
C1591 H1565 0.950 . S
C1591 C1590 1.414 . S
C1591 C1592 1.374 . S
C1592 H1566 0.950 . S
C1592 C1588 1.385 . S
C1592 C1591 1.374 . S
C1593 C1590 1.499 . S
C1593 C1594 1.373 . S
C1593 C1595 1.389 . S
C1594 H1567 0.950 . S
C1594 C1580 1.377 . S
C1594 C1593 1.373 . S
C1595 C1579 1.377 . S
C1595 C1593 1.389 . S
C1595 C1596 1.524 . S
C1596 C1595 1.524 . S
C1596 C1597 1.397 . S
C1596 C1601 1.363 . S
C1597 H1568 0.950 . S
C1597 C1596 1.397 . S
C1597 C1598 1.334 . S
C1598 H1569 0.950 . S
C1598 C1597 1.334 . S
C1598 C1599 1.287 . S
C1599 C1598 1.287 . S
C1599 C1600 1.524 . S
C1599 H1602 0.999 . S
C1600 H1570 0.950 . S
C1600 C1599 1.524 . S
C1600 C1601 1.415 . S
C1601 H1571 0.950 . S
C1601 C1596 1.363 . S
C1601 C1600 1.415 . S
H1602 C1599 0.999 . S
H1603 C1584 0.913 . S
H1604 C1622 0.951 . S
H1605 C1624 0.951 . S
H1606 C1626 0.950 . S
H1607 C1627 0.950 . S
H1608 C1629 0.950 . S
H1609 C1632 0.950 . S
H1610 C1633 0.950 . S
H1611 C1635 0.950 . S
H1612 C1636 0.950 . S
H1613 C1637 0.951 . S
H1614 C1639 0.951 . S
H1615 C1641 0.950 . S
H1616 C1642 0.950 . S
H1617 C1644 0.950 . S
H1618 C1647 0.950 . S
H1619 C1648 0.950 . S
H1620 C1650 0.950 . S
H1621 C1651 0.950 . S
C1622 H1604 0.951 . S
C1622 C1623 1.366 . S
C1622 C1624 1.388 . S
C1623 C1622 1.366 . S
C1623 C1627 1.385 . S
C1624 H1605 0.951 . S
C1624 C1622 1.388 . S
C1624 C1625 1.366 . S
C1625 C1624 1.366 . S
C1625 C1626 1.414 . S
C1625 C1628 1.499 . S
C1626 H1606 0.950 . S
C1626 C1625 1.414 . S
C1626 C1627 1.374 . S
C1627 H1607 0.950 . S
C1627 C1623 1.385 . S
C1627 C1626 1.374 . S
C1628 C1625 1.499 . S
C1628 C1629 1.373 . S
C1628 C1630 1.389 . S
C1629 H1608 0.950 . S
C1629 C1628 1.373 . S
C1629 C1645 1.377 . S
C1630 C1628 1.389 . S
C1630 C1631 1.524 . S
C1630 C1644 1.377 . S
C1631 C1630 1.524 . S
C1631 C1632 1.397 . S
C1631 C1636 1.363 . S
C1632 H1609 0.950 . S
C1632 C1631 1.397 . S
C1632 C1633 1.334 . S
C1633 H1610 0.950 . S
C1633 C1632 1.334 . S
C1633 C1634 1.287 . S
C1634 C1633 1.287 . S
C1634 C1635 1.524 . S
C1634 H1653 0.913 . S
C1635 H1611 0.950 . S
C1635 C1634 1.524 . S
C1635 C1636 1.415 . S
C1636 H1612 0.950 . S
C1636 C1631 1.363 . S
C1636 C1635 1.415 . S
C1637 H1613 0.951 . S
C1637 C1638 1.366 . S
C1637 C1639 1.388 . S
C1638 C1637 1.366 . S
C1638 C1642 1.385 . S
C1639 H1614 0.951 . S
C1639 C1637 1.388 . S
C1639 C1640 1.366 . S
C1640 C1639 1.366 . S
C1640 C1641 1.414 . S
C1640 C1643 1.499 . S
C1641 H1615 0.950 . S
C1641 C1640 1.414 . S
C1641 C1642 1.374 . S
C1642 H1616 0.950 . S
C1642 C1638 1.385 . S
C1642 C1641 1.374 . S
C1643 C1640 1.499 . S
C1643 C1644 1.373 . S
C1643 C1645 1.389 . S
C1644 H1617 0.950 . S
C1644 C1630 1.377 . S
C1644 C1643 1.373 . S
C1645 C1629 1.377 . S
C1645 C1643 1.389 . S
C1645 C1646 1.524 . S
C1646 C1645 1.524 . S
C1646 C1647 1.397 . S
C1646 C1651 1.363 . S
C1647 H1618 0.950 . S
C1647 C1646 1.397 . S
C1647 C1648 1.334 . S
C1648 H1619 0.950 . S
C1648 C1647 1.334 . S
C1648 C1649 1.287 . S
C1649 C1648 1.287 . S
C1649 C1650 1.524 . S
C1649 H1652 0.999 . S
C1650 H1620 0.950 . S
C1650 C1649 1.524 . S
C1650 C1651 1.415 . S
C1651 H1621 0.950 . S
C1651 C1646 1.363 . S
C1651 C1650 1.415 . S
H1652 C1649 0.999 . S
H1653 C1634 0.913 . S
H1654 C1672 0.951 . S
H1655 C1674 0.951 . S
H1656 C1676 0.950 . S
H1657 C1677 0.950 . S
H1658 C1679 0.950 . S
H1659 C1682 0.950 . S
H1660 C1683 0.950 . S
H1661 C1685 0.950 . S
H1662 C1686 0.950 . S
H1663 C1687 0.951 . S
H1664 C1689 0.951 . S
H1665 C1691 0.950 . S
H1666 C1692 0.950 . S
H1667 C1694 0.950 . S
H1668 C1697 0.950 . S
H1669 C1698 0.950 . S
H1670 C1700 0.950 . S
H1671 C1701 0.950 . S
C1672 H1654 0.951 . S
C1672 C1673 1.366 . S
C1672 C1674 1.388 . S
C1673 C1672 1.366 . S
C1673 C1677 1.385 . S
C1674 H1655 0.951 . S
C1674 C1672 1.388 . S
C1674 C1675 1.366 . S
C1675 C1674 1.366 . S
C1675 C1676 1.414 . S
C1675 C1678 1.499 . S
C1676 H1656 0.950 . S
C1676 C1675 1.414 . S
C1676 C1677 1.374 . S
C1677 H1657 0.950 . S
C1677 C1673 1.385 . S
C1677 C1676 1.374 . S
C1678 C1675 1.499 . S
C1678 C1679 1.373 . S
C1678 C1680 1.389 . S
C1679 H1658 0.950 . S
C1679 C1678 1.373 . S
C1679 C1695 1.377 . S
C1680 C1678 1.389 . S
C1680 C1681 1.524 . S
C1680 C1694 1.377 . S
C1681 C1680 1.524 . S
C1681 C1682 1.397 . S
C1681 C1686 1.363 . S
C1682 H1659 0.950 . S
C1682 C1681 1.397 . S
C1682 C1683 1.334 . S
C1683 H1660 0.950 . S
C1683 C1682 1.334 . S
C1683 C1684 1.287 . S
C1684 C1683 1.287 . S
C1684 C1685 1.524 . S
C1684 H1703 0.913 . S
C1685 H1661 0.950 . S
C1685 C1684 1.524 . S
C1685 C1686 1.415 . S
C1686 H1662 0.950 . S
C1686 C1681 1.363 . S
C1686 C1685 1.415 . S
C1687 H1663 0.951 . S
C1687 C1688 1.366 . S
C1687 C1689 1.388 . S
C1688 C1687 1.366 . S
C1688 C1692 1.385 . S
C1689 H1664 0.951 . S
C1689 C1687 1.388 . S
C1689 C1690 1.366 . S
C1690 C1689 1.366 . S
C1690 C1691 1.414 . S
C1690 C1693 1.499 . S
C1691 H1665 0.950 . S
C1691 C1690 1.414 . S
C1691 C1692 1.374 . S
C1692 H1666 0.950 . S
C1692 C1688 1.385 . S
C1692 C1691 1.374 . S
C1693 C1690 1.499 . S
C1693 C1694 1.373 . S
C1693 C1695 1.389 . S
C1694 H1667 0.950 . S
C1694 C1680 1.377 . S
C1694 C1693 1.373 . S
C1695 C1679 1.377 . S
C1695 C1693 1.389 . S
C1695 C1696 1.524 . S
C1696 C1695 1.524 . S
C1696 C1697 1.397 . S
C1696 C1701 1.363 . S
C1697 H1668 0.950 . S
C1697 C1696 1.397 . S
C1697 C1698 1.334 . S
C1698 H1669 0.950 . S
C1698 C1697 1.334 . S
C1698 C1699 1.287 . S
C1699 C1698 1.287 . S
C1699 C1700 1.524 . S
C1699 H1702 0.999 . S
C1700 H1670 0.950 . S
C1700 C1699 1.524 . S
C1700 C1701 1.415 . S
C1701 H1671 0.950 . S
C1701 C1696 1.363 . S
C1701 C1700 1.415 . S
H1702 C1699 0.999 . S
H1703 C1684 0.913 . S
H1704 C1722 0.951 . S
H1705 C1724 0.951 . S
H1706 C1726 0.950 . S
H1707 C1727 0.950 . S
H1708 C1729 0.950 . S
H1709 C1732 0.950 . S
H1710 C1733 0.950 . S
H1711 C1735 0.950 . S
H1712 C1736 0.950 . S
H1713 C1737 0.951 . S
H1714 C1739 0.951 . S
H1715 C1741 0.950 . S
H1716 C1742 0.950 . S
H1717 C1744 0.950 . S
H1718 C1747 0.950 . S
H1719 C1748 0.950 . S
H1720 C1750 0.950 . S
H1721 C1751 0.950 . S
C1722 H1704 0.951 . S
C1722 C1723 1.366 . S
C1722 C1724 1.388 1_556 S
C1723 C1722 1.366 . S
C1723 C1727 1.385 . S
C1724 H1705 0.951 . S
C1724 C1722 1.388 1_554 S
C1724 C1725 1.366 . S
C1725 C1724 1.366 . S
C1725 C1726 1.414 1_554 S
C1725 C1728 1.499 . S
C1726 H1706 0.950 . S
C1726 C1725 1.414 1_556 S
C1726 C1727 1.374 . S
C1727 H1707 0.950 . S
C1727 C1723 1.385 . S
C1727 C1726 1.374 . S
C1728 C1725 1.499 . S
C1728 C1729 1.373 . S
C1728 C1730 1.389 . S
C1729 H1708 0.950 . S
C1729 C1728 1.373 . S
C1729 C1745 1.377 . S
C1730 C1728 1.389 . S
C1730 C1731 1.524 . S
C1730 C1744 1.377 . S
C1731 C1730 1.524 . S
C1731 C1732 1.397 . S
C1731 C1736 1.363 . S
C1732 H1709 0.950 . S
C1732 C1731 1.397 . S
C1732 C1733 1.334 . S
C1733 H1710 0.950 . S
C1733 C1732 1.334 . S
C1733 C1734 1.287 . S
C1734 C1733 1.287 . S
C1734 C1735 1.524 . S
C1734 H1753 0.913 . S
C1735 H1711 0.950 . S
C1735 C1734 1.524 . S
C1735 C1736 1.415 . S
C1736 H1712 0.950 . S
C1736 C1731 1.363 . S
C1736 C1735 1.415 . S
C1737 H1713 0.951 . S
C1737 C1738 1.366 . S
C1737 C1739 1.388 . S
C1738 C1737 1.366 . S
C1738 C1742 1.385 . S
C1739 H1714 0.951 . S
C1739 C1737 1.388 . S
C1739 C1740 1.366 . S
C1740 C1739 1.366 . S
C1740 C1741 1.414 . S
C1740 C1743 1.499 . S
C1741 H1715 0.950 . S
C1741 C1740 1.414 . S
C1741 C1742 1.374 . S
C1742 H1716 0.950 . S
C1742 C1738 1.385 . S
C1742 C1741 1.374 . S
C1743 C1740 1.499 . S
C1743 C1744 1.373 . S
C1743 C1745 1.389 . S
C1744 H1717 0.950 . S
C1744 C1730 1.377 . S
C1744 C1743 1.373 . S
C1745 C1729 1.377 . S
C1745 C1743 1.389 . S
C1745 C1746 1.524 . S
C1746 C1745 1.524 . S
C1746 C1747 1.397 . S
C1746 C1751 1.363 . S
C1747 H1718 0.950 . S
C1747 C1746 1.397 . S
C1747 C1748 1.334 . S
C1748 H1719 0.950 . S
C1748 C1747 1.334 . S
C1748 C1749 1.287 . S
C1749 C1748 1.287 . S
C1749 C1750 1.524 . S
C1749 H1752 0.999 . S
C1750 H1720 0.950 . S
C1750 C1749 1.524 . S
C1750 C1751 1.415 . S
C1751 H1721 0.950 . S
C1751 C1746 1.363 . S
C1751 C1750 1.415 . S
H1752 C1749 0.999 . S
H1753 C1734 0.913 . S
H1754 C1772 0.951 . S
H1755 C1774 0.951 . S
H1756 C1776 0.950 . S
H1757 C1777 0.950 . S
H1758 C1779 0.950 . S
H1759 C1782 0.950 . S
H1760 C1783 0.950 . S
H1761 C1785 0.950 . S
H1762 C1786 0.950 . S
H1763 C1787 0.951 . S
H1764 C1789 0.951 . S
H1765 C1791 0.950 . S
H1766 C1792 0.950 . S
H1767 C1794 0.950 . S
H1768 C1797 0.950 . S
H1769 C1798 0.950 . S
H1770 C1800 0.950 . S
H1771 C1801 0.950 . S
C1772 H1754 0.951 . S
C1772 C1773 1.366 . S
C1772 C1774 1.388 1_556 S
C1773 C1772 1.366 . S
C1773 C1777 1.385 . S
C1774 H1755 0.951 . S
C1774 C1772 1.388 1_554 S
C1774 C1775 1.366 . S
C1775 C1774 1.366 . S
C1775 C1776 1.414 . S
C1775 C1778 1.499 . S
C1776 H1756 0.950 . S
C1776 C1775 1.414 . S
C1776 C1777 1.374 1_554 S
C1777 H1757 0.950 . S
C1777 C1773 1.385 . S
C1777 C1776 1.374 1_556 S
C1778 C1775 1.499 . S
C1778 C1779 1.373 . S
C1778 C1780 1.389 . S
C1779 H1758 0.950 . S
C1779 C1778 1.373 . S
C1779 C1795 1.377 . S
C1780 C1778 1.389 . S
C1780 C1781 1.524 . S
C1780 C1794 1.377 . S
C1781 C1780 1.524 . S
C1781 C1782 1.397 1_554 S
C1781 C1786 1.363 . S
C1782 H1759 0.950 . S
C1782 C1781 1.397 1_556 S
C1782 C1783 1.334 . S
C1783 H1760 0.950 . S
C1783 C1782 1.334 . S
C1783 C1784 1.287 . S
C1784 C1783 1.287 . S
C1784 C1785 1.524 . S
C1784 H1803 0.913 . S
C1785 H1761 0.950 . S
C1785 C1784 1.524 . S
C1785 C1786 1.415 1_556 S
C1786 H1762 0.950 . S
C1786 C1781 1.363 . S
C1786 C1785 1.415 1_554 S
C1787 H1763 0.951 . S
C1787 C1788 1.366 . S
C1787 C1789 1.388 . S
C1788 C1787 1.366 . S
C1788 C1792 1.385 . S
C1789 H1764 0.951 . S
C1789 C1787 1.388 . S
C1789 C1790 1.366 . S
C1790 C1789 1.366 . S
C1790 C1791 1.414 . S
C1790 C1793 1.499 . S
C1791 H1765 0.950 . S
C1791 C1790 1.414 . S
C1791 C1792 1.374 . S
C1792 H1766 0.950 . S
C1792 C1788 1.385 . S
C1792 C1791 1.374 . S
C1793 C1790 1.499 . S
C1793 C1794 1.373 . S
C1793 C1795 1.389 . S
C1794 H1767 0.950 . S
C1794 C1780 1.377 . S
C1794 C1793 1.373 . S
C1795 C1779 1.377 . S
C1795 C1793 1.389 . S
C1795 C1796 1.524 . S
C1796 C1795 1.524 . S
C1796 C1797 1.397 . S
C1796 C1801 1.363 . S
C1797 H1768 0.950 . S
C1797 C1796 1.397 . S
C1797 C1798 1.334 . S
C1798 H1769 0.950 . S
C1798 C1797 1.334 . S
C1798 C1799 1.287 . S
C1799 C1798 1.287 . S
C1799 C1800 1.524 . S
C1799 H1802 0.999 . S
C1800 H1770 0.950 . S
C1800 C1799 1.524 . S
C1800 C1801 1.415 . S
C1801 H1771 0.950 . S
C1801 C1796 1.363 . S
C1801 C1800 1.415 . S
H1802 C1799 0.999 . S
H1803 C1784 0.913 . S
H1804 C1822 0.951 . S
H1805 C1824 0.951 . S
H1806 C1826 0.950 . S
H1807 C1827 0.950 . S
H1808 C1829 0.950 . S
H1809 C1832 0.950 . S
H1810 C1833 0.950 . S
H1811 C1835 0.950 . S
H1812 C1836 0.950 . S
H1813 C1837 0.951 . S
H1814 C1839 0.951 . S
H1815 C1841 0.950 . S
H1816 C1842 0.950 . S
H1817 C1844 0.950 . S
H1818 C1847 0.950 . S
H1819 C1848 0.950 . S
H1820 C1850 0.950 . S
H1821 C1851 0.950 . S
C1822 H1804 0.951 . S
C1822 C1823 1.366 . S
C1822 C1824 1.388 . S
C1823 C1822 1.366 . S
C1823 C1827 1.385 . S
C1824 H1805 0.951 . S
C1824 C1822 1.388 . S
C1824 C1825 1.366 . S
C1825 C1824 1.366 . S
C1825 C1826 1.414 . S
C1825 C1828 1.499 . S
C1826 H1806 0.950 . S
C1826 C1825 1.414 . S
C1826 C1827 1.374 . S
C1827 H1807 0.950 . S
C1827 C1823 1.385 . S
C1827 C1826 1.374 . S
C1828 C1825 1.499 . S
C1828 C1829 1.373 . S
C1828 C1830 1.389 . S
C1829 H1808 0.950 . S
C1829 C1828 1.373 . S
C1829 C1845 1.377 . S
C1830 C1828 1.389 . S
C1830 C1831 1.524 . S
C1830 C1844 1.377 . S
C1831 C1830 1.524 . S
C1831 C1832 1.397 . S
C1831 C1836 1.363 . S
C1832 H1809 0.950 . S
C1832 C1831 1.397 . S
C1832 C1833 1.334 . S
C1833 H1810 0.950 . S
C1833 C1832 1.334 . S
C1833 C1834 1.287 . S
C1834 C1833 1.287 . S
C1834 C1835 1.524 . S
C1834 H1853 0.913 . S
C1835 H1811 0.950 . S
C1835 C1834 1.524 . S
C1835 C1836 1.415 . S
C1836 H1812 0.950 . S
C1836 C1831 1.363 . S
C1836 C1835 1.415 . S
C1837 H1813 0.951 . S
C1837 C1838 1.366 . S
C1837 C1839 1.388 1_556 S
C1838 C1837 1.366 . S
C1838 C1842 1.385 . S
C1839 H1814 0.951 . S
C1839 C1837 1.388 1_554 S
C1839 C1840 1.366 . S
C1840 C1839 1.366 . S
C1840 C1841 1.414 . S
C1840 C1843 1.499 . S
C1841 H1815 0.950 . S
C1841 C1840 1.414 . S
C1841 C1842 1.374 1_554 S
C1842 H1816 0.950 . S
C1842 C1838 1.385 . S
C1842 C1841 1.374 1_556 S
C1843 C1840 1.499 . S
C1843 C1844 1.373 . S
C1843 C1845 1.389 . S
C1844 H1817 0.950 . S
C1844 C1830 1.377 . S
C1844 C1843 1.373 . S
C1845 C1829 1.377 . S
C1845 C1843 1.389 . S
C1845 C1846 1.524 . S
C1846 C1845 1.524 . S
C1846 C1847 1.397 1_554 S
C1846 C1851 1.363 . S
C1847 H1818 0.950 . S
C1847 C1846 1.397 1_556 S
C1847 C1848 1.334 . S
C1848 H1819 0.950 . S
C1848 C1847 1.334 . S
C1848 C1849 1.287 . S
C1849 C1848 1.287 . S
C1849 C1850 1.524 . S
C1849 H1852 0.999 . S
C1850 H1820 0.950 . S
C1850 C1849 1.524 . S
C1850 C1851 1.415 1_556 S
C1851 H1821 0.950 . S
C1851 C1846 1.363 . S
C1851 C1850 1.415 1_554 S
H1852 C1849 0.999 . S
H1853 C1834 0.913 . S
H1854 C1872 0.951 . S
H1855 C1874 0.951 . S
H1856 C1876 0.950 . S
H1857 C1877 0.950 . S
H1858 C1879 0.950 . S
H1859 C1882 0.950 . S
H1860 C1883 0.950 . S
H1861 C1885 0.950 . S
H1862 C1886 0.950 . S
H1863 C1887 0.951 . S
H1864 C1889 0.951 . S
H1865 C1891 0.950 . S
H1866 C1892 0.950 . S
H1867 C1894 0.950 . S
H1868 C1897 0.950 . S
H1869 C1898 0.950 . S
H1870 C1900 0.950 . S
H1871 C1901 0.950 . S
C1872 H1854 0.951 . S
C1872 C1873 1.366 . S
C1872 C1874 1.388 . S
C1873 C1872 1.366 . S
C1873 C1877 1.385 . S
C1874 H1855 0.951 . S
C1874 C1872 1.388 . S
C1874 C1875 1.366 . S
C1875 C1874 1.366 . S
C1875 C1876 1.414 . S
C1875 C1878 1.499 . S
C1876 H1856 0.950 . S
C1876 C1875 1.414 . S
C1876 C1877 1.374 . S
C1877 H1857 0.950 . S
C1877 C1873 1.385 . S
C1877 C1876 1.374 . S
C1878 C1875 1.499 . S
C1878 C1879 1.373 . S
C1878 C1880 1.389 . S
C1879 H1858 0.950 . S
C1879 C1878 1.373 . S
C1879 C1895 1.377 . S
C1880 C1878 1.389 . S
C1880 C1881 1.524 . S
C1880 C1894 1.377 . S
C1881 C1880 1.524 . S
C1881 C1882 1.397 . S
C1881 C1886 1.363 . S
C1882 H1859 0.950 . S
C1882 C1881 1.397 . S
C1882 C1883 1.334 . S
C1883 H1860 0.950 . S
C1883 C1882 1.334 . S
C1883 C1884 1.287 . S
C1884 C1883 1.287 . S
C1884 C1885 1.524 . S
C1884 H1903 0.913 . S
C1885 H1861 0.950 . S
C1885 C1884 1.524 . S
C1885 C1886 1.415 . S
C1886 H1862 0.950 . S
C1886 C1881 1.363 . S
C1886 C1885 1.415 . S
C1887 H1863 0.951 . S
C1887 C1888 1.366 . S
C1887 C1889 1.388 . S
C1888 C1887 1.366 . S
C1888 C1892 1.385 . S
C1889 H1864 0.951 . S
C1889 C1887 1.388 . S
C1889 C1890 1.366 . S
C1890 C1889 1.366 . S
C1890 C1891 1.414 . S
C1890 C1893 1.499 . S
C1891 H1865 0.950 . S
C1891 C1890 1.414 . S
C1891 C1892 1.374 . S
C1892 H1866 0.950 . S
C1892 C1888 1.385 . S
C1892 C1891 1.374 . S
C1893 C1890 1.499 . S
C1893 C1894 1.373 . S
C1893 C1895 1.389 . S
C1894 H1867 0.950 . S
C1894 C1880 1.377 . S
C1894 C1893 1.373 . S
C1895 C1879 1.377 . S
C1895 C1893 1.389 . S
C1895 C1896 1.524 . S
C1896 C1895 1.524 . S
C1896 C1897 1.397 . S
C1896 C1901 1.363 . S
C1897 H1868 0.950 . S
C1897 C1896 1.397 . S
C1897 C1898 1.334 . S
C1898 H1869 0.950 . S
C1898 C1897 1.334 . S
C1898 C1899 1.287 . S
C1899 C1898 1.287 . S
C1899 C1900 1.524 . S
C1899 H1902 0.999 . S
C1900 H1870 0.950 . S
C1900 C1899 1.524 . S
C1900 C1901 1.415 . S
C1901 H1871 0.950 . S
C1901 C1896 1.363 . S
C1901 C1900 1.415 . S
H1902 C1899 0.999 . S
H1903 C1884 0.913 . S
H1904 C1922 0.951 . S
H1905 C1924 0.951 . S
H1906 C1926 0.950 . S
H1907 C1927 0.950 . S
H1908 C1929 0.950 . S
H1909 C1932 0.950 . S
H1910 C1933 0.950 . S
H1911 C1935 0.950 . S
H1912 C1936 0.950 . S
H1913 C1937 0.951 . S
H1914 C1939 0.951 . S
H1915 C1941 0.950 . S
H1916 C1942 0.950 . S
H1917 C1944 0.950 . S
H1918 C1947 0.950 . S
H1919 C1948 0.950 . S
H1920 C1950 0.950 . S
H1921 C1951 0.950 . S
C1922 H1904 0.951 . S
C1922 C1923 1.366 . S
C1922 C1924 1.388 . S
C1923 C1922 1.366 . S
C1923 C1927 1.385 . S
C1924 H1905 0.951 . S
C1924 C1922 1.388 . S
C1924 C1925 1.366 . S
C1925 C1924 1.366 . S
C1925 C1926 1.414 . S
C1925 C1928 1.499 . S
C1926 H1906 0.950 . S
C1926 C1925 1.414 . S
C1926 C1927 1.374 . S
C1927 H1907 0.950 . S
C1927 C1923 1.385 . S
C1927 C1926 1.374 . S
C1928 C1925 1.499 . S
C1928 C1929 1.373 . S
C1928 C1930 1.389 . S
C1929 H1908 0.950 . S
C1929 C1928 1.373 . S
C1929 C1945 1.377 . S
C1930 C1928 1.389 . S
C1930 C1931 1.524 . S
C1930 C1944 1.377 . S
C1931 C1930 1.524 . S
C1931 C1932 1.397 . S
C1931 C1936 1.363 . S
C1932 H1909 0.950 . S
C1932 C1931 1.397 . S
C1932 C1933 1.334 . S
C1933 H1910 0.950 . S
C1933 C1932 1.334 . S
C1933 C1934 1.287 . S
C1934 C1933 1.287 . S
C1934 C1935 1.524 . S
C1934 H1953 0.913 . S
C1935 H1911 0.950 . S
C1935 C1934 1.524 . S
C1935 C1936 1.415 . S
C1936 H1912 0.950 . S
C1936 C1931 1.363 . S
C1936 C1935 1.415 . S
C1937 H1913 0.951 . S
C1937 C1938 1.366 . S
C1937 C1939 1.388 . S
C1938 C1937 1.366 . S
C1938 C1942 1.385 . S
C1939 H1914 0.951 . S
C1939 C1937 1.388 . S
C1939 C1940 1.366 . S
C1940 C1939 1.366 . S
C1940 C1941 1.414 . S
C1940 C1943 1.499 . S
C1941 H1915 0.950 . S
C1941 C1940 1.414 . S
C1941 C1942 1.374 . S
C1942 H1916 0.950 . S
C1942 C1938 1.385 . S
C1942 C1941 1.374 . S
C1943 C1940 1.499 . S
C1943 C1944 1.373 . S
C1943 C1945 1.389 . S
C1944 H1917 0.950 . S
C1944 C1930 1.377 . S
C1944 C1943 1.373 . S
C1945 C1929 1.377 . S
C1945 C1943 1.389 . S
C1945 C1946 1.524 . S
C1946 C1945 1.524 . S
C1946 C1947 1.397 . S
C1946 C1951 1.363 . S
C1947 H1918 0.950 . S
C1947 C1946 1.397 . S
C1947 C1948 1.334 . S
C1948 H1919 0.950 . S
C1948 C1947 1.334 . S
C1948 C1949 1.287 . S
C1949 C1948 1.287 . S
C1949 C1950 1.524 . S
C1949 H1952 0.999 . S
C1950 H1920 0.950 . S
C1950 C1949 1.524 . S
C1950 C1951 1.415 . S
C1951 H1921 0.950 . S
C1951 C1946 1.363 . S
C1951 C1950 1.415 . S
H1952 C1949 0.999 . S
H1953 C1934 0.913 . S
H1954 C1972 0.951 . S
H1955 C1974 0.951 . S
H1956 C1976 0.950 . S
H1957 C1977 0.950 . S
H1958 C1979 0.950 . S
H1959 C1982 0.950 . S
H1960 C1983 0.950 . S
H1961 C1985 0.950 . S
H1962 C1986 0.950 . S
H1963 C1987 0.951 . S
H1964 C1989 0.951 . S
H1965 C1991 0.950 . S
H1966 C1992 0.950 . S
H1967 C1994 0.950 . S
H1968 C1997 0.950 . S
H1969 C1998 0.950 . S
H1970 C2000 0.950 . S
H1971 C2001 0.950 . S
C1972 H1954 0.951 . S
C1972 C1973 1.366 . S
C1972 C1974 1.388 . S
C1973 C1972 1.366 . S
C1973 C1977 1.385 . S
C1974 H1955 0.951 . S
C1974 C1972 1.388 . S
C1974 C1975 1.366 . S
C1975 C1974 1.366 . S
C1975 C1976 1.414 . S
C1975 C1978 1.499 . S
C1976 H1956 0.950 . S
C1976 C1975 1.414 . S
C1976 C1977 1.374 . S
C1977 H1957 0.950 . S
C1977 C1973 1.385 . S
C1977 C1976 1.374 . S
C1978 C1975 1.499 . S
C1978 C1979 1.373 . S
C1978 C1980 1.389 . S
C1979 H1958 0.950 . S
C1979 C1978 1.373 . S
C1979 C1995 1.377 . S
C1980 C1978 1.389 . S
C1980 C1981 1.524 . S
C1980 C1994 1.377 . S
C1981 C1980 1.524 . S
C1981 C1982 1.397 . S
C1981 C1986 1.363 . S
C1982 H1959 0.950 . S
C1982 C1981 1.397 . S
C1982 C1983 1.334 . S
C1983 H1960 0.950 . S
C1983 C1982 1.334 . S
C1983 C1984 1.287 . S
C1984 C1983 1.287 . S
C1984 C1985 1.524 . S
C1984 H2003 0.913 . S
C1985 H1961 0.950 . S
C1985 C1984 1.524 . S
C1985 C1986 1.415 . S
C1986 H1962 0.950 . S
C1986 C1981 1.363 . S
C1986 C1985 1.415 . S
C1987 H1963 0.951 . S
C1987 C1988 1.366 . S
C1987 C1989 1.388 . S
C1988 C1987 1.366 . S
C1988 C1992 1.385 . S
C1989 H1964 0.951 . S
C1989 C1987 1.388 . S
C1989 C1990 1.366 . S
C1990 C1989 1.366 . S
C1990 C1991 1.414 . S
C1990 C1993 1.499 . S
C1991 H1965 0.950 . S
C1991 C1990 1.414 . S
C1991 C1992 1.374 . S
C1992 H1966 0.950 . S
C1992 C1988 1.385 . S
C1992 C1991 1.374 . S
C1993 C1990 1.499 . S
C1993 C1994 1.373 . S
C1993 C1995 1.389 . S
C1994 H1967 0.950 . S
C1994 C1980 1.377 . S
C1994 C1993 1.373 . S
C1995 C1979 1.377 . S
C1995 C1993 1.389 . S
C1995 C1996 1.524 . S
C1996 C1995 1.524 . S
C1996 C1997 1.397 . S
C1996 C2001 1.363 . S
C1997 H1968 0.950 . S
C1997 C1996 1.397 . S
C1997 C1998 1.334 . S
C1998 H1969 0.950 . S
C1998 C1997 1.334 . S
C1998 C1999 1.287 . S
C1999 C1998 1.287 . S
C1999 C2000 1.524 . S
C1999 H2002 0.999 . S
C2000 H1970 0.950 . S
C2000 C1999 1.524 . S
C2000 C2001 1.415 . S
C2001 H1971 0.950 . S
C2001 C1996 1.363 . S
C2001 C2000 1.415 . S
H2002 C1999 0.999 . S
H2003 C1984 0.913 . S
H2004 C2022 0.951 . S
H2005 C2024 0.951 . S
H2006 C2026 0.950 . S
H2007 C2027 0.950 . S
H2008 C2029 0.950 . S
H2009 C2032 0.950 . S
H2010 C2033 0.950 . S
H2011 C2035 0.950 . S
H2012 C2036 0.950 . S
H2013 C2037 0.951 . S
H2014 C2039 0.951 . S
H2015 C2041 0.950 . S
H2016 C2042 0.950 . S
H2017 C2044 0.950 . S
H2018 C2047 0.950 . S
H2019 C2048 0.950 . S
H2020 C2050 0.950 . S
H2021 C2051 0.950 . S
C2022 H2004 0.951 . S
C2022 C2023 1.366 . S
C2022 C2024 1.388 . S
C2023 C2022 1.366 . S
C2023 C2027 1.385 . S
C2024 H2005 0.951 . S
C2024 C2022 1.388 . S
C2024 C2025 1.366 . S
C2025 C2024 1.366 . S
C2025 C2026 1.414 . S
C2025 C2028 1.499 . S
C2026 H2006 0.950 . S
C2026 C2025 1.414 . S
C2026 C2027 1.374 . S
C2027 H2007 0.950 . S
C2027 C2023 1.385 . S
C2027 C2026 1.374 . S
C2028 C2025 1.499 . S
C2028 C2029 1.373 . S
C2028 C2030 1.389 . S
C2029 H2008 0.950 . S
C2029 C2028 1.373 . S
C2029 C2045 1.377 . S
C2030 C2028 1.389 . S
C2030 C2031 1.524 . S
C2030 C2044 1.377 . S
C2031 C2030 1.524 . S
C2031 C2032 1.397 . S
C2031 C2036 1.363 . S
C2032 H2009 0.950 . S
C2032 C2031 1.397 . S
C2032 C2033 1.334 . S
C2033 H2010 0.950 . S
C2033 C2032 1.334 . S
C2033 C2034 1.287 . S
C2034 C2033 1.287 . S
C2034 C2035 1.524 . S
C2034 H2053 0.913 . S
C2035 H2011 0.950 . S
C2035 C2034 1.524 . S
C2035 C2036 1.415 . S
C2036 H2012 0.950 . S
C2036 C2031 1.363 . S
C2036 C2035 1.415 . S
C2037 H2013 0.951 . S
C2037 C2038 1.366 . S
C2037 C2039 1.388 . S
C2038 C2037 1.366 . S
C2038 C2042 1.385 . S
C2039 H2014 0.951 . S
C2039 C2037 1.388 . S
C2039 C2040 1.366 . S
C2040 C2039 1.366 . S
C2040 C2041 1.414 . S
C2040 C2043 1.499 . S
C2041 H2015 0.950 . S
C2041 C2040 1.414 . S
C2041 C2042 1.374 . S
C2042 H2016 0.950 . S
C2042 C2038 1.385 . S
C2042 C2041 1.374 . S
C2043 C2040 1.499 . S
C2043 C2044 1.373 . S
C2043 C2045 1.389 . S
C2044 H2017 0.950 . S
C2044 C2030 1.377 . S
C2044 C2043 1.373 . S
C2045 C2029 1.377 . S
C2045 C2043 1.389 . S
C2045 C2046 1.524 . S
C2046 C2045 1.524 . S
C2046 C2047 1.397 . S
C2046 C2051 1.363 . S
C2047 H2018 0.950 . S
C2047 C2046 1.397 . S
C2047 C2048 1.334 . S
C2048 H2019 0.950 . S
C2048 C2047 1.334 . S
C2048 C2049 1.287 . S
C2049 C2048 1.287 . S
C2049 C2050 1.524 . S
C2049 H2052 0.999 . S
C2050 H2020 0.950 . S
C2050 C2049 1.524 . S
C2050 C2051 1.415 . S
C2051 H2021 0.950 . S
C2051 C2046 1.363 . S
C2051 C2050 1.415 . S
H2052 C2049 0.999 . S
H2053 C2034 0.913 . S
H2054 C2072 0.951 . S
H2055 C2074 0.951 . S
H2056 C2076 0.950 . S
H2057 C2077 0.950 . S
H2058 C2079 0.950 . S
H2059 C2082 0.950 . S
H2060 C2083 0.950 . S
H2061 C2085 0.950 . S
H2062 C2086 0.950 . S
H2063 C2087 0.951 . S
H2064 C2089 0.951 . S
H2065 C2091 0.950 . S
H2066 C2092 0.950 . S
H2067 C2094 0.950 . S
H2068 C2097 0.950 . S
H2069 C2098 0.950 . S
H2070 C2100 0.950 . S
H2071 C2101 0.950 . S
C2072 H2054 0.951 . S
C2072 C2073 1.366 . S
C2072 C2074 1.388 . S
C2073 C2072 1.366 . S
C2073 C2077 1.385 . S
C2074 H2055 0.951 . S
C2074 C2072 1.388 . S
C2074 C2075 1.366 . S
C2075 C2074 1.366 . S
C2075 C2076 1.414 . S
C2075 C2078 1.499 . S
C2076 H2056 0.950 . S
C2076 C2075 1.414 . S
C2076 C2077 1.374 . S
C2077 H2057 0.950 . S
C2077 C2073 1.385 . S
C2077 C2076 1.374 . S
C2078 C2075 1.499 . S
C2078 C2079 1.373 . S
C2078 C2080 1.389 . S
C2079 H2058 0.950 . S
C2079 C2078 1.373 . S
C2079 C2095 1.377 . S
C2080 C2078 1.389 . S
C2080 C2081 1.524 . S
C2080 C2094 1.377 . S
C2081 C2080 1.524 . S
C2081 C2082 1.397 . S
C2081 C2086 1.363 . S
C2082 H2059 0.950 . S
C2082 C2081 1.397 . S
C2082 C2083 1.334 . S
C2083 H2060 0.950 . S
C2083 C2082 1.334 . S
C2083 C2084 1.287 . S
C2084 C2083 1.287 . S
C2084 C2085 1.524 . S
C2084 H2103 0.913 . S
C2085 H2061 0.950 . S
C2085 C2084 1.524 . S
C2085 C2086 1.415 . S
C2086 H2062 0.950 . S
C2086 C2081 1.363 . S
C2086 C2085 1.415 . S
C2087 H2063 0.951 . S
C2087 C2088 1.366 . S
C2087 C2089 1.388 . S
C2088 C2087 1.366 . S
C2088 C2092 1.385 . S
C2089 H2064 0.951 . S
C2089 C2087 1.388 . S
C2089 C2090 1.366 . S
C2090 C2089 1.366 . S
C2090 C2091 1.414 . S
C2090 C2093 1.499 . S
C2091 H2065 0.950 . S
C2091 C2090 1.414 . S
C2091 C2092 1.374 . S
C2092 H2066 0.950 . S
C2092 C2088 1.385 . S
C2092 C2091 1.374 . S
C2093 C2090 1.499 . S
C2093 C2094 1.373 . S
C2093 C2095 1.389 . S
C2094 H2067 0.950 . S
C2094 C2080 1.377 . S
C2094 C2093 1.373 . S
C2095 C2079 1.377 . S
C2095 C2093 1.389 . S
C2095 C2096 1.524 . S
C2096 C2095 1.524 . S
C2096 C2097 1.397 . S
C2096 C2101 1.363 . S
C2097 H2068 0.950 . S
C2097 C2096 1.397 . S
C2097 C2098 1.334 . S
C2098 H2069 0.950 . S
C2098 C2097 1.334 . S
C2098 C2099 1.287 . S
C2099 C2098 1.287 . S
C2099 C2100 1.524 . S
C2099 H2102 0.999 . S
C2100 H2070 0.950 . S
C2100 C2099 1.524 . S
C2100 C2101 1.415 . S
C2101 H2071 0.950 . S
C2101 C2096 1.363 . S
C2101 C2100 1.415 . S
H2102 C2099 0.999 . S
H2103 C2084 0.913 . S
H2104 C2122 0.951 . S
H2105 C2124 0.951 . S
H2106 C2126 0.950 . S
H2107 C2127 0.950 . S
H2108 C2129 0.950 . S
H2109 C2132 0.950 . S
H2110 C2133 0.950 . S
H2111 C2135 0.950 . S
H2112 C2136 0.950 . S
H2113 C2137 0.951 . S
H2114 C2139 0.951 . S
H2115 C2141 0.950 . S
H2116 C2142 0.950 . S
H2117 C2144 0.950 . S
H2118 C2147 0.950 . S
H2119 C2148 0.950 . S
H2120 C2150 0.950 . S
H2121 C2151 0.950 . S
C2122 H2104 0.951 . S
C2122 C2123 1.366 . S
C2122 C2124 1.388 . S
C2123 C2122 1.366 . S
C2123 C2127 1.385 . S
C2124 H2105 0.951 . S
C2124 C2122 1.388 . S
C2124 C2125 1.366 . S
C2125 C2124 1.366 . S
C2125 C2126 1.414 . S
C2125 C2128 1.499 . S
C2126 H2106 0.950 . S
C2126 C2125 1.414 . S
C2126 C2127 1.374 . S
C2127 H2107 0.950 . S
C2127 C2123 1.385 . S
C2127 C2126 1.374 . S
C2128 C2125 1.499 . S
C2128 C2129 1.373 . S
C2128 C2130 1.389 . S
C2129 H2108 0.950 . S
C2129 C2128 1.373 . S
C2129 C2145 1.377 . S
C2130 C2128 1.389 . S
C2130 C2131 1.524 . S
C2130 C2144 1.377 . S
C2131 C2130 1.524 . S
C2131 C2132 1.397 . S
C2131 C2136 1.363 . S
C2132 H2109 0.950 . S
C2132 C2131 1.397 . S
C2132 C2133 1.334 . S
C2133 H2110 0.950 . S
C2133 C2132 1.334 . S
C2133 C2134 1.287 . S
C2134 C2133 1.287 . S
C2134 C2135 1.524 . S
C2134 H2153 0.913 . S
C2135 H2111 0.950 . S
C2135 C2134 1.524 . S
C2135 C2136 1.415 . S
C2136 H2112 0.950 . S
C2136 C2131 1.363 . S
C2136 C2135 1.415 . S
C2137 H2113 0.951 . S
C2137 C2138 1.366 . S
C2137 C2139 1.388 . S
C2138 C2137 1.366 . S
C2138 C2142 1.385 . S
C2139 H2114 0.951 . S
C2139 C2137 1.388 . S
C2139 C2140 1.366 . S
C2140 C2139 1.366 . S
C2140 C2141 1.414 . S
C2140 C2143 1.499 . S
C2141 H2115 0.950 . S
C2141 C2140 1.414 . S
C2141 C2142 1.374 . S
C2142 H2116 0.950 . S
C2142 C2138 1.385 . S
C2142 C2141 1.374 . S
C2143 C2140 1.499 . S
C2143 C2144 1.373 . S
C2143 C2145 1.389 . S
C2144 H2117 0.950 . S
C2144 C2130 1.377 . S
C2144 C2143 1.373 . S
C2145 C2129 1.377 . S
C2145 C2143 1.389 . S
C2145 C2146 1.524 . S
C2146 C2145 1.524 . S
C2146 C2147 1.397 . S
C2146 C2151 1.363 . S
C2147 H2118 0.950 . S
C2147 C2146 1.397 . S
C2147 C2148 1.334 . S
C2148 H2119 0.950 . S
C2148 C2147 1.334 . S
C2148 C2149 1.287 . S
C2149 C2148 1.287 . S
C2149 C2150 1.524 . S
C2149 H2152 0.999 . S
C2150 H2120 0.950 . S
C2150 C2149 1.524 . S
C2150 C2151 1.415 . S
C2151 H2121 0.950 . S
C2151 C2146 1.363 . S
C2151 C2150 1.415 . S
H2152 C2149 0.999 . S
H2153 C2134 0.913 . S
H2154 C2172 0.951 . S
H2155 C2174 0.951 . S
H2156 C2176 0.950 . S
H2157 C2177 0.950 . S
H2158 C2179 0.950 . S
H2159 C2182 0.950 . S
H2160 C2183 0.950 . S
H2161 C2185 0.950 . S
H2162 C2186 0.950 . S
H2163 C2187 0.951 . S
H2164 C2189 0.951 . S
H2165 C2191 0.950 . S
H2166 C2192 0.950 . S
H2167 C2194 0.950 . S
H2168 C2197 0.950 . S
H2169 C2198 0.950 . S
H2170 C2200 0.950 . S
H2171 C2201 0.950 . S
C2172 H2154 0.951 . S
C2172 C2173 1.366 . S
C2172 C2174 1.388 . S
C2173 C2172 1.366 . S
C2173 C2177 1.385 . S
C2174 H2155 0.951 . S
C2174 C2172 1.388 . S
C2174 C2175 1.366 . S
C2175 C2174 1.366 . S
C2175 C2176 1.414 . S
C2175 C2178 1.499 . S
C2176 H2156 0.950 . S
C2176 C2175 1.414 . S
C2176 C2177 1.374 . S
C2177 H2157 0.950 . S
C2177 C2173 1.385 . S
C2177 C2176 1.374 . S
C2178 C2175 1.499 . S
C2178 C2179 1.373 . S
C2178 C2180 1.389 . S
C2179 H2158 0.950 . S
C2179 C2178 1.373 . S
C2179 C2195 1.377 . S
C2180 C2178 1.389 . S
C2180 C2181 1.524 . S
C2180 C2194 1.377 . S
C2181 C2180 1.524 . S
C2181 C2182 1.397 . S
C2181 C2186 1.363 . S
C2182 H2159 0.950 . S
C2182 C2181 1.397 . S
C2182 C2183 1.334 . S
C2183 H2160 0.950 . S
C2183 C2182 1.334 . S
C2183 C2184 1.287 . S
C2184 C2183 1.287 . S
C2184 C2185 1.524 . S
C2184 H2203 0.913 . S
C2185 H2161 0.950 . S
C2185 C2184 1.524 . S
C2185 C2186 1.415 . S
C2186 H2162 0.950 . S
C2186 C2181 1.363 . S
C2186 C2185 1.415 . S
C2187 H2163 0.951 . S
C2187 C2188 1.366 . S
C2187 C2189 1.388 . S
C2188 C2187 1.366 . S
C2188 C2192 1.385 . S
C2189 H2164 0.951 . S
C2189 C2187 1.388 . S
C2189 C2190 1.366 . S
C2190 C2189 1.366 . S
C2190 C2191 1.414 . S
C2190 C2193 1.499 1_554 S
C2191 H2165 0.950 . S
C2191 C2190 1.414 . S
C2191 C2192 1.374 . S
C2192 H2166 0.950 . S
C2192 C2188 1.385 . S
C2192 C2191 1.374 . S
C2193 C2190 1.499 1_556 S
C2193 C2194 1.373 . S
C2193 C2195 1.389 . S
C2194 H2167 0.950 . S
C2194 C2180 1.377 . S
C2194 C2193 1.373 . S
C2195 C2179 1.377 . S
C2195 C2193 1.389 . S
C2195 C2196 1.524 . S
C2196 C2195 1.524 . S
C2196 C2197 1.397 . S
C2196 C2201 1.363 . S
C2197 H2168 0.950 . S
C2197 C2196 1.397 . S
C2197 C2198 1.334 . S
C2198 H2169 0.950 . S
C2198 C2197 1.334 . S
C2198 C2199 1.287 . S
C2199 C2198 1.287 . S
C2199 C2200 1.524 . S
C2199 H2202 0.999 . S
C2200 H2170 0.950 . S
C2200 C2199 1.524 . S
C2200 C2201 1.415 . S
C2201 H2171 0.950 . S
C2201 C2196 1.363 . S
C2201 C2200 1.415 . S
H2202 C2199 0.999 . S
H2203 C2184 0.913 . S
H2204 C2222 0.951 . S
H2205 C2224 0.951 1_556 S
H2206 C2226 0.950 . S
H2207 C2227 0.950 . S
H2208 C2229 0.950 . S
H2209 C2232 0.950 . S
H2210 C2233 0.950 . S
H2211 C2235 0.950 . S
H2212 C2236 0.950 . S
H2213 C2237 0.951 . S
H2214 C2239 0.951 . S
H2215 C2241 0.950 . S
H2216 C2242 0.950 . S
H2217 C2244 0.950 . S
H2218 C2247 0.950 . S
H2219 C2248 0.950 . S
H2220 C2250 0.950 . S
H2221 C2251 0.950 . S
C2222 H2204 0.951 . S
C2222 C2223 1.366 . S
C2222 C2224 1.388 . S
C2223 C2222 1.366 . S
C2223 C2227 1.385 . S
C2224 H2205 0.951 1_554 S
C2224 C2222 1.388 . S
C2224 C2225 1.366 . S
C2225 C2224 1.366 . S
C2225 C2226 1.414 . S
C2225 C2228 1.499 1_554 S
C2226 H2206 0.950 . S
C2226 C2225 1.414 . S
C2226 C2227 1.374 . S
C2227 H2207 0.950 . S
C2227 C2223 1.385 . S
C2227 C2226 1.374 . S
C2228 C2225 1.499 1_556 S
C2228 C2229 1.373 . S
C2228 C2230 1.389 . S
C2229 H2208 0.950 . S
C2229 C2228 1.373 . S
C2229 C2245 1.377 . S
C2230 C2228 1.389 . S
C2230 C2231 1.524 . S
C2230 C2244 1.377 . S
C2231 C2230 1.524 . S
C2231 C2232 1.397 1_556 S
C2231 C2236 1.363 . S
C2232 H2209 0.950 . S
C2232 C2231 1.397 1_554 S
C2232 C2233 1.334 . S
C2233 H2210 0.950 . S
C2233 C2232 1.334 . S
C2233 C2234 1.287 . S
C2234 C2233 1.287 . S
C2234 C2235 1.524 1_554 S
C2234 H2253 0.913 . S
C2235 H2211 0.950 . S
C2235 C2234 1.524 1_556 S
C2235 C2236 1.415 . S
C2236 H2212 0.950 . S
C2236 C2231 1.363 . S
C2236 C2235 1.415 . S
C2237 H2213 0.951 . S
C2237 C2238 1.366 . S
C2237 C2239 1.388 . S
C2238 C2237 1.366 . S
C2238 C2242 1.385 . S
C2239 H2214 0.951 . S
C2239 C2237 1.388 . S
C2239 C2240 1.366 . S
C2240 C2239 1.366 . S
C2240 C2241 1.414 . S
C2240 C2243 1.499 . S
C2241 H2215 0.950 . S
C2241 C2240 1.414 . S
C2241 C2242 1.374 . S
C2242 H2216 0.950 . S
C2242 C2238 1.385 . S
C2242 C2241 1.374 . S
C2243 C2240 1.499 . S
C2243 C2244 1.373 . S
C2243 C2245 1.389 . S
C2244 H2217 0.950 . S
C2244 C2230 1.377 . S
C2244 C2243 1.373 . S
C2245 C2229 1.377 . S
C2245 C2243 1.389 . S
C2245 C2246 1.524 . S
C2246 C2245 1.524 . S
C2246 C2247 1.397 . S
C2246 C2251 1.363 . S
C2247 H2218 0.950 . S
C2247 C2246 1.397 . S
C2247 C2248 1.334 . S
C2248 H2219 0.950 . S
C2248 C2247 1.334 . S
C2248 C2249 1.287 . S
C2249 C2248 1.287 . S
C2249 C2250 1.524 . S
C2249 H2252 0.999 . S
C2250 H2220 0.950 . S
C2250 C2249 1.524 . S
C2250 C2251 1.415 . S
C2251 H2221 0.950 . S
C2251 C2246 1.363 . S
C2251 C2250 1.415 . S
H2252 C2249 0.999 . S
H2253 C2234 0.913 . S
H2254 C2272 0.951 . S
H2255 C2274 0.951 . S
H2256 C2276 0.950 . S
H2257 C2277 0.950 . S
H2258 C2279 0.950 . S
H2259 C2282 0.950 . S
H2260 C2283 0.950 . S
H2261 C2285 0.950 . S
H2262 C2286 0.950 . S
H2263 C2287 0.951 . S
H2264 C2289 0.951 . S
H2265 C2291 0.950 . S
H2266 C2292 0.950 . S
H2267 C2294 0.950 . S
H2268 C2297 0.950 . S
H2269 C2298 0.950 . S
H2270 C2300 0.950 . S
H2271 C2301 0.950 . S
C2272 H2254 0.951 . S
C2272 C2273 1.366 . S
C2272 C2274 1.388 . S
C2273 C2272 1.366 . S
C2273 C2277 1.385 . S
C2274 H2255 0.951 . S
C2274 C2272 1.388 . S
C2274 C2275 1.366 . S
C2275 C2274 1.366 . S
C2275 C2276 1.414 . S
C2275 C2278 1.499 . S
C2276 H2256 0.950 . S
C2276 C2275 1.414 . S
C2276 C2277 1.374 . S
C2277 H2257 0.950 . S
C2277 C2273 1.385 . S
C2277 C2276 1.374 . S
C2278 C2275 1.499 . S
C2278 C2279 1.373 . S
C2278 C2280 1.389 . S
C2279 H2258 0.950 . S
C2279 C2278 1.373 . S
C2279 C2295 1.377 . S
C2280 C2278 1.389 . S
C2280 C2281 1.524 . S
C2280 C2294 1.377 . S
C2281 C2280 1.524 . S
C2281 C2282 1.397 . S
C2281 C2286 1.363 . S
C2282 H2259 0.950 . S
C2282 C2281 1.397 . S
C2282 C2283 1.334 . S
C2283 H2260 0.950 . S
C2283 C2282 1.334 . S
C2283 C2284 1.287 . S
C2284 C2283 1.287 . S
C2284 C2285 1.524 . S
C2284 H2303 0.913 . S
C2285 H2261 0.950 . S
C2285 C2284 1.524 . S
C2285 C2286 1.415 . S
C2286 H2262 0.950 . S
C2286 C2281 1.363 . S
C2286 C2285 1.415 . S
C2287 H2263 0.951 . S
C2287 C2288 1.366 . S
C2287 C2289 1.388 . S
C2288 C2287 1.366 . S
C2288 C2292 1.385 . S
C2289 H2264 0.951 . S
C2289 C2287 1.388 . S
C2289 C2290 1.366 . S
C2290 C2289 1.366 . S
C2290 C2291 1.414 . S
C2290 C2293 1.499 1_554 S
C2291 H2265 0.950 . S
C2291 C2290 1.414 . S
C2291 C2292 1.374 . S
C2292 H2266 0.950 . S
C2292 C2288 1.385 . S
C2292 C2291 1.374 . S
C2293 C2290 1.499 1_556 S
C2293 C2294 1.373 . S
C2293 C2295 1.389 . S
C2294 H2267 0.950 . S
C2294 C2280 1.377 . S
C2294 C2293 1.373 . S
C2295 C2279 1.377 . S
C2295 C2293 1.389 . S
C2295 C2296 1.524 . S
C2296 C2295 1.524 . S
C2296 C2297 1.397 . S
C2296 C2301 1.363 . S
C2297 H2268 0.950 . S
C2297 C2296 1.397 . S
C2297 C2298 1.334 . S
C2298 H2269 0.950 . S
C2298 C2297 1.334 . S
C2298 C2299 1.287 . S
C2299 C2298 1.287 . S
C2299 C2300 1.524 . S
C2299 H2302 0.999 . S
C2300 H2270 0.950 . S
C2300 C2299 1.524 . S
C2300 C2301 1.415 . S
C2301 H2271 0.950 . S
C2301 C2296 1.363 . S
C2301 C2300 1.415 . S
H2302 C2299 0.999 . S
H2303 C2284 0.913 . S
H2304 C2322 0.951 . S
H2305 C2324 0.951 . S
H2306 C2326 0.950 . S
H2307 C2327 0.950 . S
H2308 C2329 0.950 . S
H2309 C2332 0.950 . S
H2310 C2333 0.950 . S
H2311 C2335 0.950 . S
H2312 C2336 0.950 . S
H2313 C2337 0.951 . S
H2314 C2339 0.951 . S
H2315 C2341 0.950 . S
H2316 C2342 0.950 . S
H2317 C2344 0.950 . S
H2318 C2347 0.950 . S
H2319 C2348 0.950 . S
H2320 C2350 0.950 . S
H2321 C2351 0.950 . S
C2322 H2304 0.951 . S
C2322 C2323 1.366 . S
C2322 C2324 1.388 . S
C2323 C2322 1.366 . S
C2323 C2327 1.385 . S
C2324 H2305 0.951 . S
C2324 C2322 1.388 . S
C2324 C2325 1.366 . S
C2325 C2324 1.366 . S
C2325 C2326 1.414 . S
C2325 C2328 1.499 . S
C2326 H2306 0.950 . S
C2326 C2325 1.414 . S
C2326 C2327 1.374 . S
C2327 H2307 0.950 . S
C2327 C2323 1.385 . S
C2327 C2326 1.374 . S
C2328 C2325 1.499 . S
C2328 C2329 1.373 . S
C2328 C2330 1.389 . S
C2329 H2308 0.950 . S
C2329 C2328 1.373 . S
C2329 C2345 1.377 . S
C2330 C2328 1.389 . S
C2330 C2331 1.524 . S
C2330 C2344 1.377 . S
C2331 C2330 1.524 . S
C2331 C2332 1.397 . S
C2331 C2336 1.363 . S
C2332 H2309 0.950 . S
C2332 C2331 1.397 . S
C2332 C2333 1.334 . S
C2333 H2310 0.950 . S
C2333 C2332 1.334 . S
C2333 C2334 1.287 . S
C2334 C2333 1.287 . S
C2334 C2335 1.524 . S
C2334 H2353 0.913 . S
C2335 H2311 0.950 . S
C2335 C2334 1.524 . S
C2335 C2336 1.415 . S
C2336 H2312 0.950 . S
C2336 C2331 1.363 . S
C2336 C2335 1.415 . S
C2337 H2313 0.951 . S
C2337 C2338 1.366 . S
C2337 C2339 1.388 . S
C2338 C2337 1.366 . S
C2338 C2342 1.385 . S
C2339 H2314 0.951 . S
C2339 C2337 1.388 . S
C2339 C2340 1.366 . S
C2340 C2339 1.366 . S
C2340 C2341 1.414 . S
C2340 C2343 1.499 . S
C2341 H2315 0.950 . S
C2341 C2340 1.414 . S
C2341 C2342 1.374 . S
C2342 H2316 0.950 . S
C2342 C2338 1.385 . S
C2342 C2341 1.374 . S
C2343 C2340 1.499 . S
C2343 C2344 1.373 . S
C2343 C2345 1.389 . S
C2344 H2317 0.950 . S
C2344 C2330 1.377 . S
C2344 C2343 1.373 . S
C2345 C2329 1.377 . S
C2345 C2343 1.389 . S
C2345 C2346 1.524 . S
C2346 C2345 1.524 . S
C2346 C2347 1.397 . S
C2346 C2351 1.363 . S
C2347 H2318 0.950 . S
C2347 C2346 1.397 . S
C2347 C2348 1.334 . S
C2348 H2319 0.950 . S
C2348 C2347 1.334 . S
C2348 C2349 1.287 . S
C2349 C2348 1.287 . S
C2349 C2350 1.524 . S
C2349 H2352 0.999 . S
C2350 H2320 0.950 . S
C2350 C2349 1.524 . S
C2350 C2351 1.415 . S
C2351 H2321 0.950 . S
C2351 C2346 1.363 . S
C2351 C2350 1.415 . S
H2352 C2349 0.999 . S
H2353 C2334 0.913 . S
H2354 C2372 0.951 . S
H2355 C2374 0.951 . S
H2356 C2376 0.950 . S
H2357 C2377 0.950 . S
H2358 C2379 0.950 . S
H2359 C2382 0.950 . S
H2360 C2383 0.950 . S
H2361 C2385 0.950 . S
H2362 C2386 0.950 . S
H2363 C2387 0.951 . S
H2364 C2389 0.951 . S
H2365 C2391 0.950 . S
H2366 C2392 0.950 . S
H2367 C2394 0.950 . S
H2368 C2397 0.950 . S
H2369 C2398 0.950 . S
H2370 C2400 0.950 . S
H2371 C2401 0.950 . S
C2372 H2354 0.951 . S
C2372 C2373 1.366 . S
C2372 C2374 1.388 . S
C2373 C2372 1.366 . S
C2373 C2377 1.385 . S
C2374 H2355 0.951 . S
C2374 C2372 1.388 . S
C2374 C2375 1.366 . S
C2375 C2374 1.366 . S
C2375 C2376 1.414 . S
C2375 C2378 1.499 . S
C2376 H2356 0.950 . S
C2376 C2375 1.414 . S
C2376 C2377 1.374 . S
C2377 H2357 0.950 . S
C2377 C2373 1.385 . S
C2377 C2376 1.374 . S
C2378 C2375 1.499 . S
C2378 C2379 1.373 . S
C2378 C2380 1.389 . S
C2379 H2358 0.950 . S
C2379 C2378 1.373 . S
C2379 C2395 1.377 . S
C2380 C2378 1.389 . S
C2380 C2381 1.524 . S
C2380 C2394 1.377 . S
C2381 C2380 1.524 . S
C2381 C2382 1.397 . S
C2381 C2386 1.363 . S
C2382 H2359 0.950 . S
C2382 C2381 1.397 . S
C2382 C2383 1.334 . S
C2383 H2360 0.950 . S
C2383 C2382 1.334 . S
C2383 C2384 1.287 . S
C2384 C2383 1.287 . S
C2384 C2385 1.524 . S
C2384 H2403 0.913 . S
C2385 H2361 0.950 . S
C2385 C2384 1.524 . S
C2385 C2386 1.415 . S
C2386 H2362 0.950 . S
C2386 C2381 1.363 . S
C2386 C2385 1.415 . S
C2387 H2363 0.951 . S
C2387 C2388 1.366 . S
C2387 C2389 1.388 . S
C2388 C2387 1.366 . S
C2388 C2392 1.385 . S
C2389 H2364 0.951 . S
C2389 C2387 1.388 . S
C2389 C2390 1.366 . S
C2390 C2389 1.366 . S
C2390 C2391 1.414 . S
C2390 C2393 1.499 . S
C2391 H2365 0.950 . S
C2391 C2390 1.414 . S
C2391 C2392 1.374 . S
C2392 H2366 0.950 . S
C2392 C2388 1.385 . S
C2392 C2391 1.374 . S
C2393 C2390 1.499 . S
C2393 C2394 1.373 . S
C2393 C2395 1.389 . S
C2394 H2367 0.950 . S
C2394 C2380 1.377 . S
C2394 C2393 1.373 . S
C2395 C2379 1.377 . S
C2395 C2393 1.389 . S
C2395 C2396 1.524 . S
C2396 C2395 1.524 . S
C2396 C2397 1.397 . S
C2396 C2401 1.363 . S
C2397 H2368 0.950 . S
C2397 C2396 1.397 . S
C2397 C2398 1.334 . S
C2398 H2369 0.950 . S
C2398 C2397 1.334 . S
C2398 C2399 1.287 . S
C2399 C2398 1.287 . S
C2399 C2400 1.524 . S
C2399 H2402 0.999 . S
C2400 H2370 0.950 . S
C2400 C2399 1.524 . S
C2400 C2401 1.415 . S
C2401 H2371 0.950 . S
C2401 C2396 1.363 . S
C2401 C2400 1.415 . S
H2402 C2399 0.999 . S
H2403 C2384 0.913 . S
H2404 C2422 0.951 . S
H2405 C2424 0.951 . S
H2406 C2426 0.950 . S
H2407 C2427 0.950 . S
H2408 C2429 0.950 . S
H2409 C2432 0.950 . S
H2410 C2433 0.950 . S
H2411 C2435 0.950 . S
H2412 C2436 0.950 . S
H2413 C2437 0.951 . S
H2414 C2439 0.951 . S
H2415 C2441 0.950 . S
H2416 C2442 0.950 . S
H2417 C2444 0.950 . S
H2418 C2447 0.950 . S
H2419 C2448 0.950 . S
H2420 C2450 0.950 . S
H2421 C2451 0.950 . S
C2422 H2404 0.951 . S
C2422 C2423 1.366 . S
C2422 C2424 1.388 . S
C2423 C2422 1.366 . S
C2423 C2427 1.385 . S
C2424 H2405 0.951 . S
C2424 C2422 1.388 . S
C2424 C2425 1.366 . S
C2425 C2424 1.366 . S
C2425 C2426 1.414 . S
C2425 C2428 1.499 . S
C2426 H2406 0.950 . S
C2426 C2425 1.414 . S
C2426 C2427 1.374 . S
C2427 H2407 0.950 . S
C2427 C2423 1.385 . S
C2427 C2426 1.374 . S
C2428 C2425 1.499 . S
C2428 C2429 1.373 . S
C2428 C2430 1.389 . S
C2429 H2408 0.950 . S
C2429 C2428 1.373 . S
C2429 C2445 1.377 . S
C2430 C2428 1.389 . S
C2430 C2431 1.524 . S
C2430 C2444 1.377 . S
C2431 C2430 1.524 . S
C2431 C2432 1.397 . S
C2431 C2436 1.363 . S
C2432 H2409 0.950 . S
C2432 C2431 1.397 . S
C2432 C2433 1.334 . S
C2433 H2410 0.950 . S
C2433 C2432 1.334 . S
C2433 C2434 1.287 . S
C2434 C2433 1.287 . S
C2434 C2435 1.524 . S
C2434 H2453 0.913 . S
C2435 H2411 0.950 . S
C2435 C2434 1.524 . S
C2435 C2436 1.415 . S
C2436 H2412 0.950 . S
C2436 C2431 1.363 . S
C2436 C2435 1.415 . S
C2437 H2413 0.951 . S
C2437 C2438 1.366 . S
C2437 C2439 1.388 . S
C2438 C2437 1.366 . S
C2438 C2442 1.385 . S
C2439 H2414 0.951 . S
C2439 C2437 1.388 . S
C2439 C2440 1.366 . S
C2440 C2439 1.366 . S
C2440 C2441 1.414 . S
C2440 C2443 1.499 . S
C2441 H2415 0.950 . S
C2441 C2440 1.414 . S
C2441 C2442 1.374 . S
C2442 H2416 0.950 . S
C2442 C2438 1.385 . S
C2442 C2441 1.374 . S
C2443 C2440 1.499 . S
C2443 C2444 1.373 . S
C2443 C2445 1.389 . S
C2444 H2417 0.950 . S
C2444 C2430 1.377 . S
C2444 C2443 1.373 . S
C2445 C2429 1.377 . S
C2445 C2443 1.389 . S
C2445 C2446 1.524 . S
C2446 C2445 1.524 . S
C2446 C2447 1.397 . S
C2446 C2451 1.363 . S
C2447 H2418 0.950 . S
C2447 C2446 1.397 . S
C2447 C2448 1.334 . S
C2448 H2419 0.950 . S
C2448 C2447 1.334 . S
C2448 C2449 1.287 . S
C2449 C2448 1.287 . S
C2449 C2450 1.524 . S
C2449 H2452 0.999 . S
C2450 H2420 0.950 . S
C2450 C2449 1.524 . S
C2450 C2451 1.415 . S
C2451 H2421 0.950 . S
C2451 C2446 1.363 . S
C2451 C2450 1.415 . S
H2452 C2449 0.999 . S
H2453 C2434 0.913 . S
H2454 C2472 0.951 . S
H2455 C2474 0.951 . S
H2456 C2476 0.950 . S
H2457 C2477 0.950 . S
H2458 C2479 0.950 . S
H2459 C2482 0.950 . S
H2460 C2483 0.950 . S
H2461 C2485 0.950 . S
H2462 C2486 0.950 . S
H2463 C2487 0.951 . S
H2464 C2489 0.951 . S
H2465 C2491 0.950 . S
H2466 C2492 0.950 . S
H2467 C2494 0.950 . S
H2468 C2497 0.950 . S
H2469 C2498 0.950 . S
H2470 C2500 0.950 . S
H2471 C2501 0.950 . S
C2472 H2454 0.951 . S
C2472 C2473 1.366 . S
C2472 C2474 1.388 . S
C2473 C2472 1.366 . S
C2473 C2477 1.385 . S
C2474 H2455 0.951 . S
C2474 C2472 1.388 . S
C2474 C2475 1.366 . S
C2475 C2474 1.366 . S
C2475 C2476 1.414 . S
C2475 C2478 1.499 . S
C2476 H2456 0.950 . S
C2476 C2475 1.414 . S
C2476 C2477 1.374 . S
C2477 H2457 0.950 . S
C2477 C2473 1.385 . S
C2477 C2476 1.374 . S
C2478 C2475 1.499 . S
C2478 C2479 1.373 . S
C2478 C2480 1.389 . S
C2479 H2458 0.950 . S
C2479 C2478 1.373 . S
C2479 C2495 1.377 . S
C2480 C2478 1.389 . S
C2480 C2481 1.524 . S
C2480 C2494 1.377 . S
C2481 C2480 1.524 . S
C2481 C2482 1.397 . S
C2481 C2486 1.363 . S
C2482 H2459 0.950 . S
C2482 C2481 1.397 . S
C2482 C2483 1.334 . S
C2483 H2460 0.950 . S
C2483 C2482 1.334 . S
C2483 C2484 1.287 . S
C2484 C2483 1.287 . S
C2484 C2485 1.524 . S
C2484 H2503 0.913 . S
C2485 H2461 0.950 . S
C2485 C2484 1.524 . S
C2485 C2486 1.415 . S
C2486 H2462 0.950 . S
C2486 C2481 1.363 . S
C2486 C2485 1.415 . S
C2487 H2463 0.951 . S
C2487 C2488 1.366 . S
C2487 C2489 1.388 . S
C2488 C2487 1.366 . S
C2488 C2492 1.385 . S
C2489 H2464 0.951 . S
C2489 C2487 1.388 . S
C2489 C2490 1.366 . S
C2490 C2489 1.366 . S
C2490 C2491 1.414 . S
C2490 C2493 1.499 . S
C2491 H2465 0.950 . S
C2491 C2490 1.414 . S
C2491 C2492 1.374 . S
C2492 H2466 0.950 . S
C2492 C2488 1.385 . S
C2492 C2491 1.374 . S
C2493 C2490 1.499 . S
C2493 C2494 1.373 . S
C2493 C2495 1.389 . S
C2494 H2467 0.950 . S
C2494 C2480 1.377 . S
C2494 C2493 1.373 . S
C2495 C2479 1.377 . S
C2495 C2493 1.389 . S
C2495 C2496 1.524 . S
C2496 C2495 1.524 . S
C2496 C2497 1.397 . S
C2496 C2501 1.363 . S
C2497 H2468 0.950 . S
C2497 C2496 1.397 . S
C2497 C2498 1.334 . S
C2498 H2469 0.950 . S
C2498 C2497 1.334 . S
C2498 C2499 1.287 . S
C2499 C2498 1.287 . S
C2499 C2500 1.524 . S
C2499 H2502 0.999 . S
C2500 H2470 0.950 . S
C2500 C2499 1.524 . S
C2500 C2501 1.415 . S
C2501 H2471 0.950 . S
C2501 C2496 1.363 . S
C2501 C2500 1.415 . S
H2502 C2499 0.999 . S
H2503 C2484 0.913 . S
H2504 C2522 0.951 . S
H2505 C2524 0.951 . S
H2506 C2526 0.950 . S
H2507 C2527 0.950 . S
H2508 C2529 0.950 . S
H2509 C2532 0.950 . S
H2510 C2533 0.950 . S
H2511 C2535 0.950 . S
H2512 C2536 0.950 . S
H2513 C2537 0.951 . S
H2514 C2539 0.951 . S
H2515 C2541 0.950 . S
H2516 C2542 0.950 . S
H2517 C2544 0.950 . S
H2518 C2547 0.950 . S
H2519 C2548 0.950 . S
H2520 C2550 0.950 . S
H2521 C2551 0.950 . S
C2522 H2504 0.951 . S
C2522 C2523 1.366 . S
C2522 C2524 1.388 . S
C2523 C2522 1.366 . S
C2523 C2527 1.385 . S
C2524 H2505 0.951 . S
C2524 C2522 1.388 . S
C2524 C2525 1.366 . S
C2525 C2524 1.366 . S
C2525 C2526 1.414 . S
C2525 C2528 1.499 . S
C2526 H2506 0.950 . S
C2526 C2525 1.414 . S
C2526 C2527 1.374 . S
C2527 H2507 0.950 . S
C2527 C2523 1.385 . S
C2527 C2526 1.374 . S
C2528 C2525 1.499 . S
C2528 C2529 1.373 . S
C2528 C2530 1.389 . S
C2529 H2508 0.950 . S
C2529 C2528 1.373 . S
C2529 C2545 1.377 . S
C2530 C2528 1.389 . S
C2530 C2531 1.524 . S
C2530 C2544 1.377 . S
C2531 C2530 1.524 . S
C2531 C2532 1.397 . S
C2531 C2536 1.363 . S
C2532 H2509 0.950 . S
C2532 C2531 1.397 . S
C2532 C2533 1.334 . S
C2533 H2510 0.950 . S
C2533 C2532 1.334 . S
C2533 C2534 1.287 . S
C2534 C2533 1.287 . S
C2534 C2535 1.524 . S
C2534 H2553 0.913 . S
C2535 H2511 0.950 . S
C2535 C2534 1.524 . S
C2535 C2536 1.415 . S
C2536 H2512 0.950 . S
C2536 C2531 1.363 . S
C2536 C2535 1.415 . S
C2537 H2513 0.951 . S
C2537 C2538 1.366 . S
C2537 C2539 1.388 . S
C2538 C2537 1.366 . S
C2538 C2542 1.385 . S
C2539 H2514 0.951 . S
C2539 C2537 1.388 . S
C2539 C2540 1.366 . S
C2540 C2539 1.366 . S
C2540 C2541 1.414 . S
C2540 C2543 1.499 . S
C2541 H2515 0.950 . S
C2541 C2540 1.414 . S
C2541 C2542 1.374 . S
C2542 H2516 0.950 . S
C2542 C2538 1.385 . S
C2542 C2541 1.374 . S
C2543 C2540 1.499 . S
C2543 C2544 1.373 . S
C2543 C2545 1.389 . S
C2544 H2517 0.950 . S
C2544 C2530 1.377 . S
C2544 C2543 1.373 . S
C2545 C2529 1.377 . S
C2545 C2543 1.389 . S
C2545 C2546 1.524 . S
C2546 C2545 1.524 . S
C2546 C2547 1.397 . S
C2546 C2551 1.363 . S
C2547 H2518 0.950 . S
C2547 C2546 1.397 . S
C2547 C2548 1.334 . S
C2548 H2519 0.950 . S
C2548 C2547 1.334 . S
C2548 C2549 1.287 . S
C2549 C2548 1.287 . S
C2549 C2550 1.524 . S
C2549 H2552 0.999 . S
C2550 H2520 0.950 . S
C2550 C2549 1.524 . S
C2550 C2551 1.415 . S
C2551 H2521 0.950 . S
C2551 C2546 1.363 . S
C2551 C2550 1.415 . S
H2552 C2549 0.999 . S
H2553 C2534 0.913 . S
H2554 C2572 0.951 . S
H2555 C2574 0.951 . S
H2556 C2576 0.950 . S
H2557 C2577 0.950 . S
H2558 C2579 0.950 . S
H2559 C2582 0.950 . S
H2560 C2583 0.950 . S
H2561 C2585 0.950 . S
H2562 C2586 0.950 . S
H2563 C2587 0.951 . S
H2564 C2589 0.951 . S
H2565 C2591 0.950 . S
H2566 C2592 0.950 . S
H2567 C2594 0.950 . S
H2568 C2597 0.950 . S
H2569 C2598 0.950 . S
H2570 C2600 0.950 . S
H2571 C2601 0.950 . S
C2572 H2554 0.951 . S
C2572 C2573 1.366 . S
C2572 C2574 1.388 . S
C2573 C2572 1.366 . S
C2573 C2577 1.385 . S
C2574 H2555 0.951 . S
C2574 C2572 1.388 . S
C2574 C2575 1.366 . S
C2575 C2574 1.366 . S
C2575 C2576 1.414 . S
C2575 C2578 1.499 . S
C2576 H2556 0.950 . S
C2576 C2575 1.414 . S
C2576 C2577 1.374 . S
C2577 H2557 0.950 . S
C2577 C2573 1.385 . S
C2577 C2576 1.374 . S
C2578 C2575 1.499 . S
C2578 C2579 1.373 . S
C2578 C2580 1.389 . S
C2579 H2558 0.950 . S
C2579 C2578 1.373 . S
C2579 C2595 1.377 . S
C2580 C2578 1.389 . S
C2580 C2581 1.524 . S
C2580 C2594 1.377 . S
C2581 C2580 1.524 . S
C2581 C2582 1.397 . S
C2581 C2586 1.363 . S
C2582 H2559 0.950 . S
C2582 C2581 1.397 . S
C2582 C2583 1.334 . S
C2583 H2560 0.950 . S
C2583 C2582 1.334 . S
C2583 C2584 1.287 . S
C2584 C2583 1.287 . S
C2584 C2585 1.524 . S
C2584 H2603 0.913 . S
C2585 H2561 0.950 . S
C2585 C2584 1.524 . S
C2585 C2586 1.415 . S
C2586 H2562 0.950 . S
C2586 C2581 1.363 . S
C2586 C2585 1.415 . S
C2587 H2563 0.951 . S
C2587 C2588 1.366 . S
C2587 C2589 1.388 . S
C2588 C2587 1.366 . S
C2588 C2592 1.385 . S
C2589 H2564 0.951 . S
C2589 C2587 1.388 . S
C2589 C2590 1.366 . S
C2590 C2589 1.366 . S
C2590 C2591 1.414 . S
C2590 C2593 1.499 . S
C2591 H2565 0.950 . S
C2591 C2590 1.414 . S
C2591 C2592 1.374 . S
C2592 H2566 0.950 . S
C2592 C2588 1.385 . S
C2592 C2591 1.374 . S
C2593 C2590 1.499 . S
C2593 C2594 1.373 . S
C2593 C2595 1.389 . S
C2594 H2567 0.950 . S
C2594 C2580 1.377 . S
C2594 C2593 1.373 . S
C2595 C2579 1.377 . S
C2595 C2593 1.389 . S
C2595 C2596 1.524 . S
C2596 C2595 1.524 . S
C2596 C2597 1.397 . S
C2596 C2601 1.363 . S
C2597 H2568 0.950 . S
C2597 C2596 1.397 . S
C2597 C2598 1.334 . S
C2598 H2569 0.950 . S
C2598 C2597 1.334 . S
C2598 C2599 1.287 . S
C2599 C2598 1.287 . S
C2599 C2600 1.524 . S
C2599 H2602 0.999 . S
C2600 H2570 0.950 . S
C2600 C2599 1.524 . S
C2600 C2601 1.415 . S
C2601 H2571 0.950 . S
C2601 C2596 1.363 . S
C2601 C2600 1.415 . S
H2602 C2599 0.999 . S
H2603 C2584 0.913 . S
H2604 C2622 0.951 . S
H2605 C2624 0.951 . S
H2606 C2626 0.950 . S
H2607 C2627 0.950 . S
H2608 C2629 0.950 . S
H2609 C2632 0.950 . S
H2610 C2633 0.950 . S
H2611 C2635 0.950 . S
H2612 C2636 0.950 . S
H2613 C2637 0.951 . S
H2614 C2639 0.951 . S
H2615 C2641 0.950 . S
H2616 C2642 0.950 . S
H2617 C2644 0.950 . S
H2618 C2647 0.950 . S
H2619 C2648 0.950 . S
H2620 C2650 0.950 . S
H2621 C2651 0.950 . S
C2622 H2604 0.951 . S
C2622 C2623 1.366 . S
C2622 C2624 1.388 . S
C2623 C2622 1.366 . S
C2623 C2627 1.385 . S
C2624 H2605 0.951 . S
C2624 C2622 1.388 . S
C2624 C2625 1.366 . S
C2625 C2624 1.366 . S
C2625 C2626 1.414 . S
C2625 C2628 1.499 . S
C2626 H2606 0.950 . S
C2626 C2625 1.414 . S
C2626 C2627 1.374 . S
C2627 H2607 0.950 . S
C2627 C2623 1.385 . S
C2627 C2626 1.374 . S
C2628 C2625 1.499 . S
C2628 C2629 1.373 . S
C2628 C2630 1.389 . S
C2629 H2608 0.950 . S
C2629 C2628 1.373 . S
C2629 C2645 1.377 . S
C2630 C2628 1.389 . S
C2630 C2631 1.524 . S
C2630 C2644 1.377 . S
C2631 C2630 1.524 . S
C2631 C2632 1.397 . S
C2631 C2636 1.363 . S
C2632 H2609 0.950 . S
C2632 C2631 1.397 . S
C2632 C2633 1.334 . S
C2633 H2610 0.950 . S
C2633 C2632 1.334 . S
C2633 C2634 1.287 . S
C2634 C2633 1.287 . S
C2634 C2635 1.524 . S
C2634 H2653 0.913 . S
C2635 H2611 0.950 . S
C2635 C2634 1.524 . S
C2635 C2636 1.415 . S
C2636 H2612 0.950 . S
C2636 C2631 1.363 . S
C2636 C2635 1.415 . S
C2637 H2613 0.951 . S
C2637 C2638 1.366 . S
C2637 C2639 1.388 . S
C2638 C2637 1.366 . S
C2638 C2642 1.385 . S
C2639 H2614 0.951 . S
C2639 C2637 1.388 . S
C2639 C2640 1.366 . S
C2640 C2639 1.366 . S
C2640 C2641 1.414 . S
C2640 C2643 1.499 . S
C2641 H2615 0.950 . S
C2641 C2640 1.414 . S
C2641 C2642 1.374 . S
C2642 H2616 0.950 . S
C2642 C2638 1.385 . S
C2642 C2641 1.374 . S
C2643 C2640 1.499 . S
C2643 C2644 1.373 . S
C2643 C2645 1.389 . S
C2644 H2617 0.950 . S
C2644 C2630 1.377 . S
C2644 C2643 1.373 . S
C2645 C2629 1.377 . S
C2645 C2643 1.389 . S
C2645 C2646 1.524 . S
C2646 C2645 1.524 . S
C2646 C2647 1.397 . S
C2646 C2651 1.363 . S
C2647 H2618 0.950 . S
C2647 C2646 1.397 . S
C2647 C2648 1.334 . S
C2648 H2619 0.950 . S
C2648 C2647 1.334 . S
C2648 C2649 1.287 . S
C2649 C2648 1.287 . S
C2649 C2650 1.524 . S
C2649 H2652 0.999 . S
C2650 H2620 0.950 . S
C2650 C2649 1.524 . S
C2650 C2651 1.415 . S
C2651 H2621 0.950 . S
C2651 C2646 1.363 . S
C2651 C2650 1.415 . S
H2652 C2649 0.999 . S
H2653 C2634 0.913 . S
H2654 C2672 0.951 . S
H2655 C2674 0.951 . S
H2656 C2676 0.950 . S
H2657 C2677 0.950 . S
H2658 C2679 0.950 . S
H2659 C2682 0.950 . S
H2660 C2683 0.950 . S
H2661 C2685 0.950 . S
H2662 C2686 0.950 . S
H2663 C2687 0.951 . S
H2664 C2689 0.951 . S
H2665 C2691 0.950 . S
H2666 C2692 0.950 . S
H2667 C2694 0.950 . S
H2668 C2697 0.950 . S
H2669 C2698 0.950 . S
H2670 C2700 0.950 . S
H2671 C2701 0.950 . S
C2672 H2654 0.951 . S
C2672 C2673 1.366 . S
C2672 C2674 1.388 . S
C2673 C2672 1.366 . S
C2673 C2677 1.385 . S
C2674 H2655 0.951 . S
C2674 C2672 1.388 . S
C2674 C2675 1.366 . S
C2675 C2674 1.366 . S
C2675 C2676 1.414 . S
C2675 C2678 1.499 . S
C2676 H2656 0.950 . S
C2676 C2675 1.414 . S
C2676 C2677 1.374 . S
C2677 H2657 0.950 . S
C2677 C2673 1.385 . S
C2677 C2676 1.374 . S
C2678 C2675 1.499 . S
C2678 C2679 1.373 . S
C2678 C2680 1.389 . S
C2679 H2658 0.950 . S
C2679 C2678 1.373 . S
C2679 C2695 1.377 . S
C2680 C2678 1.389 . S
C2680 C2681 1.524 . S
C2680 C2694 1.377 . S
C2681 C2680 1.524 . S
C2681 C2682 1.397 . S
C2681 C2686 1.363 . S
C2682 H2659 0.950 . S
C2682 C2681 1.397 . S
C2682 C2683 1.334 . S
C2683 H2660 0.950 . S
C2683 C2682 1.334 . S
C2683 C2684 1.287 . S
C2684 C2683 1.287 . S
C2684 C2685 1.524 . S
C2684 H2703 0.913 . S
C2685 H2661 0.950 . S
C2685 C2684 1.524 . S
C2685 C2686 1.415 . S
C2686 H2662 0.950 . S
C2686 C2681 1.363 . S
C2686 C2685 1.415 . S
C2687 H2663 0.951 . S
C2687 C2688 1.366 . S
C2687 C2689 1.388 . S
C2688 C2687 1.366 . S
C2688 C2692 1.385 . S
C2689 H2664 0.951 . S
C2689 C2687 1.388 . S
C2689 C2690 1.366 . S
C2690 C2689 1.366 . S
C2690 C2691 1.414 . S
C2690 C2693 1.499 . S
C2691 H2665 0.950 . S
C2691 C2690 1.414 . S
C2691 C2692 1.374 . S
C2692 H2666 0.950 . S
C2692 C2688 1.385 . S
C2692 C2691 1.374 . S
C2693 C2690 1.499 . S
C2693 C2694 1.373 . S
C2693 C2695 1.389 . S
C2694 H2667 0.950 . S
C2694 C2680 1.377 . S
C2694 C2693 1.373 . S
C2695 C2679 1.377 . S
C2695 C2693 1.389 . S
C2695 C2696 1.524 . S
C2696 C2695 1.524 . S
C2696 C2697 1.397 . S
C2696 C2701 1.363 . S
C2697 H2668 0.950 . S
C2697 C2696 1.397 . S
C2697 C2698 1.334 . S
C2698 H2669 0.950 . S
C2698 C2697 1.334 . S
C2698 C2699 1.287 . S
C2699 C2698 1.287 . S
C2699 C2700 1.524 . S
C2699 H2702 0.999 . S
C2700 H2670 0.950 . S
C2700 C2699 1.524 . S
C2700 C2701 1.415 . S
C2701 H2671 0.950 . S
C2701 C2696 1.363 . S
C2701 C2700 1.415 . S
H2702 C2699 0.999 . S
H2703 C2684 0.913 . S
H2704 C2722 0.951 . S
H2705 C2724 0.951 . S
H2706 C2726 0.950 . S
H2707 C2727 0.950 . S
H2708 C2729 0.950 . S
H2709 C2732 0.950 . S
H2710 C2733 0.950 . S
H2711 C2735 0.950 . S
H2712 C2736 0.950 . S
H2713 C2737 0.951 . S
H2714 C2739 0.951 . S
H2715 C2741 0.950 . S
H2716 C2742 0.950 . S
H2717 C2744 0.950 . S
H2718 C2747 0.950 . S
H2719 C2748 0.950 . S
H2720 C2750 0.950 . S
H2721 C2751 0.950 . S
C2722 H2704 0.951 . S
C2722 C2723 1.366 . S
C2722 C2724 1.388 . S
C2723 C2722 1.366 . S
C2723 C2727 1.385 . S
C2724 H2705 0.951 . S
C2724 C2722 1.388 . S
C2724 C2725 1.366 . S
C2725 C2724 1.366 . S
C2725 C2726 1.414 . S
C2725 C2728 1.499 . S
C2726 H2706 0.950 . S
C2726 C2725 1.414 . S
C2726 C2727 1.374 . S
C2727 H2707 0.950 . S
C2727 C2723 1.385 . S
C2727 C2726 1.374 . S
C2728 C2725 1.499 . S
C2728 C2729 1.373 . S
C2728 C2730 1.389 . S
C2729 H2708 0.950 . S
C2729 C2728 1.373 . S
C2729 C2745 1.377 . S
C2730 C2728 1.389 . S
C2730 C2731 1.524 . S
C2730 C2744 1.377 . S
C2731 C2730 1.524 . S
C2731 C2732 1.397 . S
C2731 C2736 1.363 . S
C2732 H2709 0.950 . S
C2732 C2731 1.397 . S
C2732 C2733 1.334 . S
C2733 H2710 0.950 . S
C2733 C2732 1.334 . S
C2733 C2734 1.287 . S
C2734 C2733 1.287 . S
C2734 C2735 1.524 . S
C2734 H2753 0.913 . S
C2735 H2711 0.950 . S
C2735 C2734 1.524 . S
C2735 C2736 1.415 . S
C2736 H2712 0.950 . S
C2736 C2731 1.363 . S
C2736 C2735 1.415 . S
C2737 H2713 0.951 . S
C2737 C2738 1.366 . S
C2737 C2739 1.388 . S
C2738 C2737 1.366 . S
C2738 C2742 1.385 . S
C2739 H2714 0.951 . S
C2739 C2737 1.388 . S
C2739 C2740 1.366 . S
C2740 C2739 1.366 . S
C2740 C2741 1.414 . S
C2740 C2743 1.499 . S
C2741 H2715 0.950 . S
C2741 C2740 1.414 . S
C2741 C2742 1.374 . S
C2742 H2716 0.950 . S
C2742 C2738 1.385 . S
C2742 C2741 1.374 . S
C2743 C2740 1.499 . S
C2743 C2744 1.373 . S
C2743 C2745 1.389 . S
C2744 H2717 0.950 . S
C2744 C2730 1.377 . S
C2744 C2743 1.373 . S
C2745 C2729 1.377 . S
C2745 C2743 1.389 . S
C2745 C2746 1.524 . S
C2746 C2745 1.524 . S
C2746 C2747 1.397 . S
C2746 C2751 1.363 . S
C2747 H2718 0.950 . S
C2747 C2746 1.397 . S
C2747 C2748 1.334 . S
C2748 H2719 0.950 . S
C2748 C2747 1.334 . S
C2748 C2749 1.287 . S
C2749 C2748 1.287 . S
C2749 C2750 1.524 . S
C2749 H2752 0.999 . S
C2750 H2720 0.950 . S
C2750 C2749 1.524 . S
C2750 C2751 1.415 . S
C2751 H2721 0.950 . S
C2751 C2746 1.363 . S
C2751 C2750 1.415 . S
H2752 C2749 0.999 . S
H2753 C2734 0.913 . S
H2754 C2772 0.951 . S
H2755 C2774 0.951 . S
H2756 C2776 0.950 . S
H2757 C2777 0.950 . S
H2758 C2779 0.950 . S
H2759 C2782 0.950 . S
H2760 C2783 0.950 . S
H2761 C2785 0.950 . S
H2762 C2786 0.950 . S
H2763 C2787 0.951 . S
H2764 C2789 0.951 . S
H2765 C2791 0.950 . S
H2766 C2792 0.950 . S
H2767 C2794 0.950 . S
H2768 C2797 0.950 . S
H2769 C2798 0.950 . S
H2770 C2800 0.950 . S
H2771 C2801 0.950 . S
C2772 H2754 0.951 . S
C2772 C2773 1.366 . S
C2772 C2774 1.388 . S
C2773 C2772 1.366 . S
C2773 C2777 1.385 . S
C2774 H2755 0.951 . S
C2774 C2772 1.388 . S
C2774 C2775 1.366 . S
C2775 C2774 1.366 . S
C2775 C2776 1.414 . S
C2775 C2778 1.499 . S
C2776 H2756 0.950 . S
C2776 C2775 1.414 . S
C2776 C2777 1.374 . S
C2777 H2757 0.950 . S
C2777 C2773 1.385 . S
C2777 C2776 1.374 . S
C2778 C2775 1.499 . S
C2778 C2779 1.373 . S
C2778 C2780 1.389 . S
C2779 H2758 0.950 . S
C2779 C2778 1.373 . S
C2779 C2795 1.377 . S
C2780 C2778 1.389 . S
C2780 C2781 1.524 . S
C2780 C2794 1.377 . S
C2781 C2780 1.524 . S
C2781 C2782 1.397 . S
C2781 C2786 1.363 . S
C2782 H2759 0.950 . S
C2782 C2781 1.397 . S
C2782 C2783 1.334 . S
C2783 H2760 0.950 . S
C2783 C2782 1.334 . S
C2783 C2784 1.287 . S
C2784 C2783 1.287 . S
C2784 C2785 1.524 . S
C2784 H2803 0.913 . S
C2785 H2761 0.950 . S
C2785 C2784 1.524 . S
C2785 C2786 1.415 . S
C2786 H2762 0.950 . S
C2786 C2781 1.363 . S
C2786 C2785 1.415 . S
C2787 H2763 0.951 . S
C2787 C2788 1.366 . S
C2787 C2789 1.388 . S
C2788 C2787 1.366 . S
C2788 C2792 1.385 . S
C2789 H2764 0.951 . S
C2789 C2787 1.388 . S
C2789 C2790 1.366 . S
C2790 C2789 1.366 . S
C2790 C2791 1.414 . S
C2790 C2793 1.499 . S
C2791 H2765 0.950 . S
C2791 C2790 1.414 . S
C2791 C2792 1.374 . S
C2792 H2766 0.950 . S
C2792 C2788 1.385 . S
C2792 C2791 1.374 . S
C2793 C2790 1.499 . S
C2793 C2794 1.373 . S
C2793 C2795 1.389 . S
C2794 H2767 0.950 . S
C2794 C2780 1.377 . S
C2794 C2793 1.373 . S
C2795 C2779 1.377 . S
C2795 C2793 1.389 . S
C2795 C2796 1.524 . S
C2796 C2795 1.524 . S
C2796 C2797 1.397 . S
C2796 C2801 1.363 . S
C2797 H2768 0.950 . S
C2797 C2796 1.397 . S
C2797 C2798 1.334 . S
C2798 H2769 0.950 . S
C2798 C2797 1.334 . S
C2798 C2799 1.287 . S
C2799 C2798 1.287 . S
C2799 C2800 1.524 . S
C2799 H2802 0.999 . S
C2800 H2770 0.950 . S
C2800 C2799 1.524 . S
C2800 C2801 1.415 . S
C2801 H2771 0.950 . S
C2801 C2796 1.363 . S
C2801 C2800 1.415 . S
H2802 C2799 0.999 . S
H2803 C2784 0.913 . S
H2804 C2822 0.951 . S
H2805 C2824 0.951 . S
H2806 C2826 0.950 . S
H2807 C2827 0.950 . S
H2808 C2829 0.950 . S
H2809 C2832 0.950 . S
H2810 C2833 0.950 . S
H2811 C2835 0.950 . S
H2812 C2836 0.950 . S
H2813 C2837 0.951 . S
H2814 C2839 0.951 . S
H2815 C2841 0.950 . S
H2816 C2842 0.950 . S
H2817 C2844 0.950 . S
H2818 C2847 0.950 . S
H2819 C2848 0.950 . S
H2820 C2850 0.950 . S
H2821 C2851 0.950 . S
C2822 H2804 0.951 . S
C2822 C2823 1.366 . S
C2822 C2824 1.388 . S
C2823 C2822 1.366 . S
C2823 C2827 1.385 . S
C2824 H2805 0.951 . S
C2824 C2822 1.388 . S
C2824 C2825 1.366 . S
C2825 C2824 1.366 . S
C2825 C2826 1.414 . S
C2825 C2828 1.499 . S
C2826 H2806 0.950 . S
C2826 C2825 1.414 . S
C2826 C2827 1.374 . S
C2827 H2807 0.950 . S
C2827 C2823 1.385 . S
C2827 C2826 1.374 . S
C2828 C2825 1.499 . S
C2828 C2829 1.373 . S
C2828 C2830 1.389 . S
C2829 H2808 0.950 . S
C2829 C2828 1.373 . S
C2829 C2845 1.377 . S
C2830 C2828 1.389 . S
C2830 C2831 1.524 . S
C2830 C2844 1.377 . S
C2831 C2830 1.524 . S
C2831 C2832 1.397 . S
C2831 C2836 1.363 . S
C2832 H2809 0.950 . S
C2832 C2831 1.397 . S
C2832 C2833 1.334 . S
C2833 H2810 0.950 . S
C2833 C2832 1.334 . S
C2833 C2834 1.287 . S
C2834 C2833 1.287 . S
C2834 C2835 1.524 . S
C2834 H2853 0.913 . S
C2835 H2811 0.950 . S
C2835 C2834 1.524 . S
C2835 C2836 1.415 . S
C2836 H2812 0.950 . S
C2836 C2831 1.363 . S
C2836 C2835 1.415 . S
C2837 H2813 0.951 . S
C2837 C2838 1.366 . S
C2837 C2839 1.388 . S
C2838 C2837 1.366 . S
C2838 C2842 1.385 . S
C2839 H2814 0.951 . S
C2839 C2837 1.388 . S
C2839 C2840 1.366 . S
C2840 C2839 1.366 . S
C2840 C2841 1.414 . S
C2840 C2843 1.499 . S
C2841 H2815 0.950 . S
C2841 C2840 1.414 . S
C2841 C2842 1.374 . S
C2842 H2816 0.950 . S
C2842 C2838 1.385 . S
C2842 C2841 1.374 . S
C2843 C2840 1.499 . S
C2843 C2844 1.373 . S
C2843 C2845 1.389 . S
C2844 H2817 0.950 . S
C2844 C2830 1.377 . S
C2844 C2843 1.373 . S
C2845 C2829 1.377 . S
C2845 C2843 1.389 . S
C2845 C2846 1.524 . S
C2846 C2845 1.524 . S
C2846 C2847 1.397 . S
C2846 C2851 1.363 . S
C2847 H2818 0.950 . S
C2847 C2846 1.397 . S
C2847 C2848 1.334 . S
C2848 H2819 0.950 . S
C2848 C2847 1.334 . S
C2848 C2849 1.287 . S
C2849 C2848 1.287 . S
C2849 C2850 1.524 . S
C2849 H2852 0.999 . S
C2850 H2820 0.950 . S
C2850 C2849 1.524 . S
C2850 C2851 1.415 . S
C2851 H2821 0.950 . S
C2851 C2846 1.363 . S
C2851 C2850 1.415 . S
H2852 C2849 0.999 . S
H2853 C2834 0.913 . S
H2854 C2872 0.951 . S
H2855 C2874 0.951 . S
H2856 C2876 0.950 . S
H2857 C2877 0.950 . S
H2858 C2879 0.950 . S
H2859 C2882 0.950 . S
H2860 C2883 0.950 . S
H2861 C2885 0.950 . S
H2862 C2886 0.950 . S
H2863 C2887 0.951 . S
H2864 C2889 0.951 . S
H2865 C2891 0.950 . S
H2866 C2892 0.950 . S
H2867 C2894 0.950 . S
H2868 C2897 0.950 . S
H2869 C2898 0.950 . S
H2870 C2900 0.950 . S
H2871 C2901 0.950 . S
C2872 H2854 0.951 . S
C2872 C2873 1.366 . S
C2872 C2874 1.388 . S
C2873 C2872 1.366 . S
C2873 C2877 1.385 . S
C2874 H2855 0.951 . S
C2874 C2872 1.388 . S
C2874 C2875 1.366 . S
C2875 C2874 1.366 . S
C2875 C2876 1.414 . S
C2875 C2878 1.499 . S
C2876 H2856 0.950 . S
C2876 C2875 1.414 . S
C2876 C2877 1.374 . S
C2877 H2857 0.950 . S
C2877 C2873 1.385 . S
C2877 C2876 1.374 . S
C2878 C2875 1.499 . S
C2878 C2879 1.373 . S
C2878 C2880 1.389 . S
C2879 H2858 0.950 . S
C2879 C2878 1.373 . S
C2879 C2895 1.377 . S
C2880 C2878 1.389 . S
C2880 C2881 1.524 . S
C2880 C2894 1.377 . S
C2881 C2880 1.524 . S
C2881 C2882 1.397 . S
C2881 C2886 1.363 . S
C2882 H2859 0.950 . S
C2882 C2881 1.397 . S
C2882 C2883 1.334 . S
C2883 H2860 0.950 . S
C2883 C2882 1.334 . S
C2883 C2884 1.287 . S
C2884 C2883 1.287 . S
C2884 C2885 1.524 . S
C2884 H2903 0.913 . S
C2885 H2861 0.950 . S
C2885 C2884 1.524 . S
C2885 C2886 1.415 . S
C2886 H2862 0.950 . S
C2886 C2881 1.363 . S
C2886 C2885 1.415 . S
C2887 H2863 0.951 . S
C2887 C2888 1.366 . S
C2887 C2889 1.388 . S
C2888 C2887 1.366 . S
C2888 C2892 1.385 . S
C2889 H2864 0.951 . S
C2889 C2887 1.388 . S
C2889 C2890 1.366 . S
C2890 C2889 1.366 . S
C2890 C2891 1.414 . S
C2890 C2893 1.499 . S
C2891 H2865 0.950 . S
C2891 C2890 1.414 . S
C2891 C2892 1.374 . S
C2892 H2866 0.950 . S
C2892 C2888 1.385 . S
C2892 C2891 1.374 . S
C2893 C2890 1.499 . S
C2893 C2894 1.373 . S
C2893 C2895 1.389 . S
C2894 H2867 0.950 . S
C2894 C2880 1.377 . S
C2894 C2893 1.373 . S
C2895 C2879 1.377 . S
C2895 C2893 1.389 . S
C2895 C2896 1.524 . S
C2896 C2895 1.524 . S
C2896 C2897 1.397 . S
C2896 C2901 1.363 . S
C2897 H2868 0.950 . S
C2897 C2896 1.397 . S
C2897 C2898 1.334 . S
C2898 H2869 0.950 . S
C2898 C2897 1.334 . S
C2898 C2899 1.287 . S
C2899 C2898 1.287 . S
C2899 C2900 1.524 . S
C2899 H2902 0.999 . S
C2900 H2870 0.950 . S
C2900 C2899 1.524 . S
C2900 C2901 1.415 . S
C2901 H2871 0.950 . S
C2901 C2896 1.363 . S
C2901 C2900 1.415 . S
H2902 C2899 0.999 . S
H2903 C2884 0.913 . S
H2904 C2922 0.951 . S
H2905 C2924 0.951 . S
H2906 C2926 0.950 . S
H2907 C2927 0.950 . S
H2908 C2929 0.950 . S
H2909 C2932 0.950 . S
H2910 C2933 0.950 . S
H2911 C2935 0.950 . S
H2912 C2936 0.950 . S
H2913 C2937 0.951 . S
H2914 C2939 0.951 . S
H2915 C2941 0.950 . S
H2916 C2942 0.950 . S
H2917 C2944 0.950 . S
H2918 C2947 0.950 . S
H2919 C2948 0.950 . S
H2920 C2950 0.950 . S
H2921 C2951 0.950 . S
C2922 H2904 0.951 . S
C2922 C2923 1.366 . S
C2922 C2924 1.388 . S
C2923 C2922 1.366 . S
C2923 C2927 1.385 . S
C2924 H2905 0.951 . S
C2924 C2922 1.388 . S
C2924 C2925 1.366 . S
C2925 C2924 1.366 . S
C2925 C2926 1.414 . S
C2925 C2928 1.499 . S
C2926 H2906 0.950 . S
C2926 C2925 1.414 . S
C2926 C2927 1.374 . S
C2927 H2907 0.950 . S
C2927 C2923 1.385 . S
C2927 C2926 1.374 . S
C2928 C2925 1.499 . S
C2928 C2929 1.373 . S
C2928 C2930 1.389 . S
C2929 H2908 0.950 . S
C2929 C2928 1.373 . S
C2929 C2945 1.377 . S
C2930 C2928 1.389 . S
C2930 C2931 1.524 . S
C2930 C2944 1.377 . S
C2931 C2930 1.524 . S
C2931 C2932 1.397 . S
C2931 C2936 1.363 . S
C2932 H2909 0.950 . S
C2932 C2931 1.397 . S
C2932 C2933 1.334 . S
C2933 H2910 0.950 . S
C2933 C2932 1.334 . S
C2933 C2934 1.287 . S
C2934 C2933 1.287 . S
C2934 C2935 1.524 . S
C2934 H2953 0.913 . S
C2935 H2911 0.950 . S
C2935 C2934 1.524 . S
C2935 C2936 1.415 . S
C2936 H2912 0.950 . S
C2936 C2931 1.363 . S
C2936 C2935 1.415 . S
C2937 H2913 0.951 . S
C2937 C2938 1.366 . S
C2937 C2939 1.388 . S
C2938 C2937 1.366 . S
C2938 C2942 1.385 . S
C2939 H2914 0.951 . S
C2939 C2937 1.388 . S
C2939 C2940 1.366 . S
C2940 C2939 1.366 . S
C2940 C2941 1.414 . S
C2940 C2943 1.499 . S
C2941 H2915 0.950 . S
C2941 C2940 1.414 . S
C2941 C2942 1.374 . S
C2942 H2916 0.950 . S
C2942 C2938 1.385 . S
C2942 C2941 1.374 . S
C2943 C2940 1.499 . S
C2943 C2944 1.373 . S
C2943 C2945 1.389 . S
C2944 H2917 0.950 . S
C2944 C2930 1.377 . S
C2944 C2943 1.373 . S
C2945 C2929 1.377 . S
C2945 C2943 1.389 . S
C2945 C2946 1.524 . S
C2946 C2945 1.524 . S
C2946 C2947 1.397 . S
C2946 C2951 1.363 . S
C2947 H2918 0.950 . S
C2947 C2946 1.397 . S
C2947 C2948 1.334 . S
C2948 H2919 0.950 . S
C2948 C2947 1.334 . S
C2948 C2949 1.287 . S
C2949 C2948 1.287 . S
C2949 C2950 1.524 . S
C2949 H2952 0.999 . S
C2950 H2920 0.950 . S
C2950 C2949 1.524 . S
C2950 C2951 1.415 . S
C2951 H2921 0.950 . S
C2951 C2946 1.363 . S
C2951 C2950 1.415 . S
H2952 C2949 0.999 . S
H2953 C2934 0.913 . S
H2954 C2972 0.951 . S
H2955 C2974 0.951 . S
H2956 C2976 0.950 . S
H2957 C2977 0.950 . S
H2958 C2979 0.950 . S
H2959 C2982 0.950 . S
H2960 C2983 0.950 . S
H2961 C2985 0.950 . S
H2962 C2986 0.950 . S
H2963 C2987 0.951 . S
H2964 C2989 0.951 . S
H2965 C2991 0.950 . S
H2966 C2992 0.950 . S
H2967 C2994 0.950 . S
H2968 C2997 0.950 . S
H2969 C2998 0.950 . S
H2970 C3000 0.950 . S
H2971 C3001 0.950 . S
C2972 H2954 0.951 . S
C2972 C2973 1.366 . S
C2972 C2974 1.388 . S
C2973 C2972 1.366 . S
C2973 C2977 1.385 . S
C2974 H2955 0.951 . S
C2974 C2972 1.388 . S
C2974 C2975 1.366 . S
C2975 C2974 1.366 . S
C2975 C2976 1.414 . S
C2975 C2978 1.499 . S
C2976 H2956 0.950 . S
C2976 C2975 1.414 . S
C2976 C2977 1.374 . S
C2977 H2957 0.950 . S
C2977 C2973 1.385 . S
C2977 C2976 1.374 . S
C2978 C2975 1.499 . S
C2978 C2979 1.373 . S
C2978 C2980 1.389 . S
C2979 H2958 0.950 . S
C2979 C2978 1.373 . S
C2979 C2995 1.377 . S
C2980 C2978 1.389 . S
C2980 C2981 1.524 . S
C2980 C2994 1.377 . S
C2981 C2980 1.524 . S
C2981 C2982 1.397 . S
C2981 C2986 1.363 . S
C2982 H2959 0.950 . S
C2982 C2981 1.397 . S
C2982 C2983 1.334 . S
C2983 H2960 0.950 . S
C2983 C2982 1.334 . S
C2983 C2984 1.287 . S
C2984 C2983 1.287 . S
C2984 C2985 1.524 . S
C2984 H3003 0.913 . S
C2985 H2961 0.950 . S
C2985 C2984 1.524 . S
C2985 C2986 1.415 . S
C2986 H2962 0.950 . S
C2986 C2981 1.363 . S
C2986 C2985 1.415 . S
C2987 H2963 0.951 . S
C2987 C2988 1.366 . S
C2987 C2989 1.388 . S
C2988 C2987 1.366 . S
C2988 C2992 1.385 . S
C2989 H2964 0.951 . S
C2989 C2987 1.388 . S
C2989 C2990 1.366 . S
C2990 C2989 1.366 . S
C2990 C2991 1.414 . S
C2990 C2993 1.499 . S
C2991 H2965 0.950 . S
C2991 C2990 1.414 . S
C2991 C2992 1.374 . S
C2992 H2966 0.950 . S
C2992 C2988 1.385 . S
C2992 C2991 1.374 . S
C2993 C2990 1.499 . S
C2993 C2994 1.373 . S
C2993 C2995 1.389 . S
C2994 H2967 0.950 . S
C2994 C2980 1.377 . S
C2994 C2993 1.373 . S
C2995 C2979 1.377 . S
C2995 C2993 1.389 . S
C2995 C2996 1.524 . S
C2996 C2995 1.524 . S
C2996 C2997 1.397 . S
C2996 C3001 1.363 . S
C2997 H2968 0.950 . S
C2997 C2996 1.397 . S
C2997 C2998 1.334 . S
C2998 H2969 0.950 . S
C2998 C2997 1.334 . S
C2998 C2999 1.287 . S
C2999 C2998 1.287 . S
C2999 C3000 1.524 . S
C2999 H3002 0.999 . S
C3000 H2970 0.950 . S
C3000 C2999 1.524 . S
C3000 C3001 1.415 . S
C3001 H2971 0.950 . S
C3001 C2996 1.363 . S
C3001 C3000 1.415 . S
H3002 C2999 0.999 . S
H3003 C2984 0.913 . S
H3004 C3022 0.951 . S
H3005 C3024 0.951 . S
H3006 C3026 0.950 . S
H3007 C3027 0.950 . S
H3008 C3029 0.950 . S
H3009 C3032 0.950 . S
H3010 C3033 0.950 . S
H3011 C3035 0.950 . S
H3012 C3036 0.950 . S
H3013 C3037 0.951 . S
H3014 C3039 0.951 . S
H3015 C3041 0.950 . S
H3016 C3042 0.950 . S
H3017 C3044 0.950 . S
H3018 C3047 0.950 . S
H3019 C3048 0.950 . S
H3020 C3050 0.950 . S
H3021 C3051 0.950 . S
C3022 H3004 0.951 . S
C3022 C3023 1.366 . S
C3022 C3024 1.388 . S
C3023 C3022 1.366 . S
C3023 C3027 1.385 . S
C3024 H3005 0.951 . S
C3024 C3022 1.388 . S
C3024 C3025 1.366 . S
C3025 C3024 1.366 . S
C3025 C3026 1.414 . S
C3025 C3028 1.499 . S
C3026 H3006 0.950 . S
C3026 C3025 1.414 . S
C3026 C3027 1.374 . S
C3027 H3007 0.950 . S
C3027 C3023 1.385 . S
C3027 C3026 1.374 . S
C3028 C3025 1.499 . S
C3028 C3029 1.373 . S
C3028 C3030 1.389 . S
C3029 H3008 0.950 . S
C3029 C3028 1.373 . S
C3029 C3045 1.377 . S
C3030 C3028 1.389 . S
C3030 C3031 1.524 . S
C3030 C3044 1.377 . S
C3031 C3030 1.524 . S
C3031 C3032 1.397 . S
C3031 C3036 1.363 . S
C3032 H3009 0.950 . S
C3032 C3031 1.397 . S
C3032 C3033 1.334 . S
C3033 H3010 0.950 . S
C3033 C3032 1.334 . S
C3033 C3034 1.287 . S
C3034 C3033 1.287 . S
C3034 C3035 1.524 . S
C3034 H3053 0.913 . S
C3035 H3011 0.950 . S
C3035 C3034 1.524 . S
C3035 C3036 1.415 . S
C3036 H3012 0.950 . S
C3036 C3031 1.363 . S
C3036 C3035 1.415 . S
C3037 H3013 0.951 . S
C3037 C3038 1.366 . S
C3037 C3039 1.388 . S
C3038 C3037 1.366 . S
C3038 C3042 1.385 . S
C3039 H3014 0.951 . S
C3039 C3037 1.388 . S
C3039 C3040 1.366 . S
C3040 C3039 1.366 . S
C3040 C3041 1.414 . S
C3040 C3043 1.499 . S
C3041 H3015 0.950 . S
C3041 C3040 1.414 . S
C3041 C3042 1.374 . S
C3042 H3016 0.950 . S
C3042 C3038 1.385 . S
C3042 C3041 1.374 . S
C3043 C3040 1.499 . S
C3043 C3044 1.373 . S
C3043 C3045 1.389 . S
C3044 H3017 0.950 . S
C3044 C3030 1.377 . S
C3044 C3043 1.373 . S
C3045 C3029 1.377 . S
C3045 C3043 1.389 . S
C3045 C3046 1.524 . S
C3046 C3045 1.524 . S
C3046 C3047 1.397 . S
C3046 C3051 1.363 . S
C3047 H3018 0.950 . S
C3047 C3046 1.397 . S
C3047 C3048 1.334 . S
C3048 H3019 0.950 . S
C3048 C3047 1.334 . S
C3048 C3049 1.287 . S
C3049 C3048 1.287 . S
C3049 C3050 1.524 . S
C3049 H3052 0.999 . S
C3050 H3020 0.950 . S
C3050 C3049 1.524 . S
C3050 C3051 1.415 . S
C3051 H3021 0.950 . S
C3051 C3046 1.363 . S
C3051 C3050 1.415 . S
H3052 C3049 0.999 . S
H3053 C3034 0.913 . S
H3054 C3072 0.951 . S
H3055 C3074 0.951 . S
H3056 C3076 0.950 1_554 S
H3057 C3077 0.950 . S
H3058 C3079 0.950 . S
H3059 C3082 0.950 . S
H3060 C3083 0.950 . S
H3061 C3085 0.950 . S
H3062 C3086 0.951 . S
H3063 C3087 0.951 . S
H3064 C3089 0.951 . S
H3065 C3091 0.950 . S
H3066 C3092 0.950 . S
H3067 C3094 0.950 . S
H3068 C3097 0.950 . S
H3069 C3098 0.950 . S
H3070 C3100 0.950 . S
H3071 C3101 0.950 . S
C3072 H3054 0.951 . S
C3072 C3073 1.366 . S
C3072 C3074 1.388 . S
C3073 C3072 1.366 . S
C3073 C3077 1.385 . S
C3074 H3055 0.951 . S
C3074 C3072 1.388 . S
C3074 C3075 1.366 . S
C3075 C3074 1.366 . S
C3075 C3076 1.414 . S
C3075 C3078 1.499 1_556 S
C3076 H3056 0.950 1_556 S
C3076 C3075 1.414 . S
C3076 C3077 1.374 . S
C3077 H3057 0.950 . S
C3077 C3073 1.385 . S
C3077 C3076 1.374 . S
C3078 C3075 1.499 1_554 S
C3078 C3079 1.373 . S
C3078 C3080 1.389 . S
C3079 H3058 0.950 . S
C3079 C3078 1.373 . S
C3079 C3095 1.377 . S
C3080 C3078 1.389 . S
C3080 C3081 1.524 . S
C3080 C3094 1.377 . S
C3081 C3080 1.524 . S
C3081 C3082 1.397 . S
C3081 C3086 1.365 . S
C3082 H3059 0.950 . S
C3082 C3081 1.397 . S
C3082 C3083 1.334 1_554 S
C3083 H3060 0.950 . S
C3083 C3082 1.334 1_556 S
C3083 C3084 1.287 . S
C3084 C3083 1.287 . S
C3084 C3085 1.524 . S
C3084 H3103 0.913 . S
C3085 H3061 0.950 . S
C3085 C3084 1.524 . S
C3085 C3086 1.412 1_556 S
C3086 H3062 0.951 . S
C3086 C3081 1.365 . S
C3086 C3085 1.412 1_554 S
C3087 H3063 0.951 . S
C3087 C3088 1.366 . S
C3087 C3089 1.388 . S
C3088 C3087 1.366 . S
C3088 C3092 1.385 . S
C3089 H3064 0.951 . S
C3089 C3087 1.388 . S
C3089 C3090 1.366 . S
C3090 C3089 1.366 . S
C3090 C3091 1.414 . S
C3090 C3093 1.499 . S
C3091 H3065 0.950 . S
C3091 C3090 1.414 . S
C3091 C3092 1.374 . S
C3092 H3066 0.950 . S
C3092 C3088 1.385 . S
C3092 C3091 1.374 . S
C3093 C3090 1.499 . S
C3093 C3094 1.373 . S
C3093 C3095 1.389 . S
C3094 H3067 0.950 . S
C3094 C3080 1.377 . S
C3094 C3093 1.373 . S
C3095 C3079 1.377 . S
C3095 C3093 1.389 . S
C3095 C3096 1.524 . S
C3096 C3095 1.524 . S
C3096 C3097 1.397 . S
C3096 C3101 1.363 . S
C3097 H3068 0.950 . S
C3097 C3096 1.397 . S
C3097 C3098 1.334 . S
C3098 H3069 0.950 . S
C3098 C3097 1.334 . S
C3098 C3099 1.287 . S
C3099 C3098 1.287 . S
C3099 C3100 1.524 . S
C3099 H3102 0.999 . S
C3100 H3070 0.950 . S
C3100 C3099 1.524 . S
C3100 C3101 1.415 . S
C3101 H3071 0.950 . S
C3101 C3096 1.363 . S
C3101 C3100 1.415 . S
H3102 C3099 0.999 . S
H3103 C3084 0.913 . S
H3104 C3122 0.951 . S
H3105 C3124 0.951 . S
H3106 C3126 0.950 1_554 S
H3107 C3127 0.950 . S
H3108 C3129 0.950 . S
H3109 C3132 0.950 . S
H3110 C3133 0.950 . S
H3111 C3135 0.950 . S
H3112 C3136 0.950 . S
H3113 C3137 0.951 . S
H3114 C3139 0.951 . S
H3115 C3141 0.950 . S
H3116 C3142 0.950 . S
H3117 C3144 0.950 . S
H3118 C3147 0.950 . S
H3119 C3148 0.950 . S
H3120 C3150 0.950 . S
H3121 C3151 0.950 . S
C3122 H3104 0.951 . S
C3122 C3123 1.366 . S
C3122 C3124 1.388 . S
C3123 C3122 1.366 . S
C3123 C3127 1.385 . S
C3124 H3105 0.951 . S
C3124 C3122 1.388 . S
C3124 C3125 1.366 . S
C3125 C3124 1.366 . S
C3125 C3126 1.414 . S
C3125 C3128 1.499 1_556 S
C3126 H3106 0.950 1_556 S
C3126 C3125 1.414 . S
C3126 C3127 1.374 . S
C3127 H3107 0.950 . S
C3127 C3123 1.385 . S
C3127 C3126 1.374 . S
C3128 C3125 1.499 1_554 S
C3128 C3129 1.373 . S
C3128 C3130 1.389 . S
C3129 H3108 0.950 . S
C3129 C3128 1.373 . S
C3129 C3145 1.377 . S
C3130 C3128 1.389 . S
C3130 C3131 1.524 1_554 S
C3130 C3144 1.377 . S
C3131 C3130 1.524 1_556 S
C3131 C3132 1.397 . S
C3131 C3136 1.363 . S
C3132 H3109 0.950 . S
C3132 C3131 1.397 . S
C3132 C3133 1.334 . S
C3133 H3110 0.950 . S
C3133 C3132 1.334 . S
C3133 C3134 1.287 . S
C3134 C3133 1.287 . S
C3134 C3135 1.524 . S
C3134 H3153 0.913 . S
C3135 H3111 0.950 . S
C3135 C3134 1.524 . S
C3135 C3136 1.415 . S
C3136 H3112 0.950 . S
C3136 C3131 1.363 . S
C3136 C3135 1.415 . S
C3137 H3113 0.951 . S
C3137 C3138 1.366 . S
C3137 C3139 1.388 . S
C3138 C3137 1.366 . S
C3138 C3142 1.385 . S
C3139 H3114 0.951 . S
C3139 C3137 1.388 . S
C3139 C3140 1.366 . S
C3140 C3139 1.366 . S
C3140 C3141 1.414 . S
C3140 C3143 1.499 . S
C3141 H3115 0.950 . S
C3141 C3140 1.414 . S
C3141 C3142 1.374 . S
C3142 H3116 0.950 . S
C3142 C3138 1.385 . S
C3142 C3141 1.374 . S
C3143 C3140 1.499 . S
C3143 C3144 1.373 . S
C3143 C3145 1.389 . S
C3144 H3117 0.950 . S
C3144 C3130 1.377 . S
C3144 C3143 1.373 . S
C3145 C3129 1.377 . S
C3145 C3143 1.389 . S
C3145 C3146 1.524 . S
C3146 C3145 1.524 . S
C3146 C3147 1.397 . S
C3146 C3151 1.363 . S
C3147 H3118 0.950 . S
C3147 C3146 1.397 . S
C3147 C3148 1.334 . S
C3148 H3119 0.950 . S
C3148 C3147 1.334 . S
C3148 C3149 1.287 . S
C3149 C3148 1.287 . S
C3149 C3150 1.524 . S
C3149 H3152 0.999 . S
C3150 H3120 0.950 . S
C3150 C3149 1.524 . S
C3150 C3151 1.415 . S
C3151 H3121 0.950 . S
C3151 C3146 1.363 . S
C3151 C3150 1.415 . S
H3152 C3149 0.999 . S
H3153 C3134 0.913 . S
H3154 C3172 0.951 . S
H3155 C3174 0.951 1_554 S
H3156 C3176 0.950 . S
H3157 C3177 0.950 . S
H3158 C3179 0.950 . S
H3159 C3182 0.950 . S
H3160 C3183 0.950 . S
H3161 C3185 0.950 . S
H3162 C3186 0.950 . S
H3163 C3187 0.951 . S
H3164 C3189 0.951 . S
H3165 C3191 0.950 . S
H3166 C3192 0.950 . S
H3167 C3194 0.950 . S
H3168 C3197 0.950 . S
H3169 C3198 0.950 . S
H3170 C3200 0.950 . S
H3171 C3201 0.950 . S
C3172 H3154 0.951 . S
C3172 C3173 1.366 . S
C3172 C3174 1.388 . S
C3173 C3172 1.366 . S
C3173 C3177 1.385 . S
C3174 H3155 0.951 1_556 S
C3174 C3172 1.388 . S
C3174 C3175 1.366 . S
C3175 C3174 1.366 . S
C3175 C3176 1.414 . S
C3175 C3178 1.499 1_556 S
C3176 H3156 0.950 . S
C3176 C3175 1.414 . S
C3176 C3177 1.374 . S
C3177 H3157 0.950 . S
C3177 C3173 1.385 . S
C3177 C3176 1.374 . S
C3178 C3175 1.499 1_554 S
C3178 C3179 1.373 . S
C3178 C3180 1.389 . S
C3179 H3158 0.950 . S
C3179 C3178 1.373 . S
C3179 C3195 1.377 . S
C3180 C3178 1.389 . S
C3180 C3181 1.524 . S
C3180 C3194 1.377 . S
C3181 C3180 1.524 . S
C3181 C3182 1.397 . S
C3181 C3186 1.363 . S
C3182 H3159 0.950 . S
C3182 C3181 1.397 . S
C3182 C3183 1.334 . S
C3183 H3160 0.950 . S
C3183 C3182 1.334 . S
C3183 C3184 1.287 . S
C3184 C3183 1.287 . S
C3184 C3185 1.524 . S
C3184 H3203 0.913 . S
C3185 H3161 0.950 . S
C3185 C3184 1.524 . S
C3185 C3186 1.415 . S
C3186 H3162 0.950 . S
C3186 C3181 1.363 . S
C3186 C3185 1.415 . S
C3187 H3163 0.951 . S
C3187 C3188 1.366 . S
C3187 C3189 1.388 . S
C3188 C3187 1.366 . S
C3188 C3192 1.385 . S
C3189 H3164 0.951 . S
C3189 C3187 1.388 . S
C3189 C3190 1.366 . S
C3190 C3189 1.366 . S
C3190 C3191 1.414 . S
C3190 C3193 1.499 . S
C3191 H3165 0.950 . S
C3191 C3190 1.414 . S
C3191 C3192 1.374 . S
C3192 H3166 0.950 . S
C3192 C3188 1.385 . S
C3192 C3191 1.374 . S
C3193 C3190 1.499 . S
C3193 C3194 1.373 . S
C3193 C3195 1.389 . S
C3194 H3167 0.950 . S
C3194 C3180 1.377 . S
C3194 C3193 1.373 . S
C3195 C3179 1.377 . S
C3195 C3193 1.389 . S
C3195 C3196 1.524 . S
C3196 C3195 1.524 . S
C3196 C3197 1.397 . S
C3196 C3201 1.363 . S
C3197 H3168 0.950 . S
C3197 C3196 1.397 . S
C3197 C3198 1.334 . S
C3198 H3169 0.950 . S
C3198 C3197 1.334 . S
C3198 C3199 1.287 . S
C3199 C3198 1.287 . S
C3199 C3200 1.524 . S
C3199 H3202 0.999 . S
C3200 H3170 0.950 . S
C3200 C3199 1.524 . S
C3200 C3201 1.415 . S
C3201 H3171 0.950 . S
C3201 C3196 1.363 . S
C3201 C3200 1.415 . S
H3202 C3199 0.999 . S
H3203 C3184 0.913 . S
H3204 C3222 0.951 . S
H3205 C3224 0.951 . S
H3206 C3226 0.950 . S
H3207 C3227 0.950 . S
H3208 C3229 0.950 . S
H3209 C3232 0.950 . S
H3210 C3233 0.950 . S
H3211 C3235 0.950 . S
H3212 C3236 0.950 . S
H3213 C3237 0.951 . S
H3214 C3239 0.951 . S
H3215 C3241 0.950 . S
H3216 C3242 0.950 . S
H3217 C3244 0.950 . S
H3218 C3247 0.950 . S
H3219 C3248 0.950 . S
H3220 C3250 0.950 . S
H3221 C3251 0.950 . S
C3222 H3204 0.951 . S
C3222 C3223 1.366 . S
C3222 C3224 1.388 . S
C3223 C3222 1.366 . S
C3223 C3227 1.385 . S
C3224 H3205 0.951 . S
C3224 C3222 1.388 . S
C3224 C3225 1.366 . S
C3225 C3224 1.366 . S
C3225 C3226 1.414 . S
C3225 C3228 1.499 . S
C3226 H3206 0.950 . S
C3226 C3225 1.414 . S
C3226 C3227 1.374 . S
C3227 H3207 0.950 . S
C3227 C3223 1.385 . S
C3227 C3226 1.374 . S
C3228 C3225 1.499 . S
C3228 C3229 1.373 . S
C3228 C3230 1.389 . S
C3229 H3208 0.950 . S
C3229 C3228 1.373 . S
C3229 C3245 1.377 . S
C3230 C3228 1.389 . S
C3230 C3231 1.524 . S
C3230 C3244 1.377 . S
C3231 C3230 1.524 . S
C3231 C3232 1.397 1_554 S
C3231 C3236 1.363 . S
C3232 H3209 0.950 . S
C3232 C3231 1.397 1_556 S
C3232 C3233 1.334 . S
C3233 H3210 0.950 . S
C3233 C3232 1.334 . S
C3233 C3234 1.287 . S
C3234 C3233 1.287 . S
C3234 C3235 1.524 1_556 S
C3234 H3253 0.913 . S
C3235 H3211 0.950 . S
C3235 C3234 1.524 1_554 S
C3235 C3236 1.415 . S
C3236 H3212 0.950 . S
C3236 C3231 1.363 . S
C3236 C3235 1.415 . S
C3237 H3213 0.951 . S
C3237 C3238 1.366 . S
C3237 C3239 1.388 . S
C3238 C3237 1.366 . S
C3238 C3242 1.385 . S
C3239 H3214 0.951 . S
C3239 C3237 1.388 . S
C3239 C3240 1.366 . S
C3240 C3239 1.366 . S
C3240 C3241 1.414 . S
C3240 C3243 1.499 . S
C3241 H3215 0.950 . S
C3241 C3240 1.414 . S
C3241 C3242 1.374 . S
C3242 H3216 0.950 . S
C3242 C3238 1.385 . S
C3242 C3241 1.374 . S
C3243 C3240 1.499 . S
C3243 C3244 1.373 . S
C3243 C3245 1.389 . S
C3244 H3217 0.950 . S
C3244 C3230 1.377 . S
C3244 C3243 1.373 . S
C3245 C3229 1.377 . S
C3245 C3243 1.389 . S
C3245 C3246 1.524 . S
C3246 C3245 1.524 . S
C3246 C3247 1.397 . S
C3246 C3251 1.363 . S
C3247 H3218 0.950 . S
C3247 C3246 1.397 . S
C3247 C3248 1.334 . S
C3248 H3219 0.950 . S
C3248 C3247 1.334 . S
C3248 C3249 1.287 . S
C3249 C3248 1.287 . S
C3249 C3250 1.524 . S
C3249 H3252 0.999 . S
C3250 H3220 0.950 . S
C3250 C3249 1.524 . S
C3250 C3251 1.415 . S
C3251 H3221 0.950 . S
C3251 C3246 1.363 . S
C3251 C3250 1.415 . S
H3252 C3249 0.999 . S
H3253 C3234 0.913 . S
H3254 C3272 0.951 . S
H3255 C3274 0.951 . S
H3256 C3276 0.950 . S
H3257 C3277 0.950 . S
H3258 C3279 0.950 . S
H3259 C3282 0.950 . S
H3260 C3283 0.950 . S
H3261 C3285 0.950 . S
H3262 C3286 0.950 . S
H3263 C3287 0.951 . S
H3264 C3289 0.951 . S
H3265 C3291 0.950 . S
H3266 C3292 0.950 1_556 S
H3267 C3294 0.950 . S
H3268 C3297 0.950 . S
H3269 C3298 0.950 . S
H3270 C3300 0.950 . S
H3271 C3301 0.950 . S
C3272 H3254 0.951 . S
C3272 C3273 1.366 . S
C3272 C3274 1.388 . S
C3273 C3272 1.366 . S
C3273 C3277 1.385 . S
C3274 H3255 0.951 . S
C3274 C3272 1.388 . S
C3274 C3275 1.366 . S
C3275 C3274 1.366 . S
C3275 C3276 1.414 . S
C3275 C3278 1.499 . S
C3276 H3256 0.950 . S
C3276 C3275 1.414 . S
C3276 C3277 1.374 . S
C3277 H3257 0.950 . S
C3277 C3273 1.385 . S
C3277 C3276 1.374 . S
C3278 C3275 1.499 . S
C3278 C3279 1.373 . S
C3278 C3280 1.389 . S
C3279 H3258 0.950 . S
C3279 C3278 1.373 . S
C3279 C3295 1.377 . S
C3280 C3278 1.389 . S
C3280 C3281 1.524 . S
C3280 C3294 1.377 . S
C3281 C3280 1.524 . S
C3281 C3282 1.397 . S
C3281 C3286 1.363 1_554 S
C3282 H3259 0.950 . S
C3282 C3281 1.397 . S
C3282 C3283 1.334 1_554 S
C3283 H3260 0.950 . S
C3283 C3282 1.334 1_556 S
C3283 C3284 1.287 . S
C3284 C3283 1.287 . S
C3284 C3285 1.524 . S
C3284 H3303 0.913 . S
C3285 H3261 0.950 . S
C3285 C3284 1.524 . S
C3285 C3286 1.415 . S
C3286 H3262 0.950 . S
C3286 C3281 1.363 1_556 S
C3286 C3285 1.415 . S
C3287 H3263 0.951 . S
C3287 C3288 1.366 . S
C3287 C3289 1.388 . S
C3288 C3287 1.366 . S
C3288 C3292 1.385 . S
C3289 H3264 0.951 . S
C3289 C3287 1.388 . S
C3289 C3290 1.366 . S
C3290 C3289 1.366 . S
C3290 C3291 1.414 . S
C3290 C3293 1.499 . S
C3291 H3265 0.950 . S
C3291 C3290 1.414 . S
C3291 C3292 1.374 . S
C3292 H3266 0.950 1_554 S
C3292 C3288 1.385 . S
C3292 C3291 1.374 . S
C3293 C3290 1.499 . S
C3293 C3294 1.373 . S
C3293 C3295 1.389 . S
C3294 H3267 0.950 . S
C3294 C3280 1.377 . S
C3294 C3293 1.373 . S
C3295 C3279 1.377 . S
C3295 C3293 1.389 . S
C3295 C3296 1.524 . S
C3296 C3295 1.524 . S
C3296 C3297 1.397 . S
C3296 C3301 1.363 . S
C3297 H3268 0.950 . S
C3297 C3296 1.397 . S
C3297 C3298 1.334 . S
C3298 H3269 0.950 . S
C3298 C3297 1.334 . S
C3298 C3299 1.287 . S
C3299 C3298 1.287 . S
C3299 C3300 1.524 . S
C3299 H3302 0.999 . S
C3300 H3270 0.950 . S
C3300 C3299 1.524 . S
C3300 C3301 1.415 . S
C3301 H3271 0.950 . S
C3301 C3296 1.363 . S
C3301 C3300 1.415 . S
H3302 C3299 0.999 . S
H3303 C3284 0.913 . S
H3304 C3322 0.951 . S
H3305 C3324 0.951 . S
H3306 C3326 0.950 . S
H3307 C3327 0.950 . S
H3308 C3329 0.950 . S
H3309 C3332 0.950 . S
H3310 C3333 0.950 . S
H3311 C3335 0.950 . S
H3312 C3336 0.950 . S
H3313 C3337 0.951 . S
H3314 C3339 0.951 . S
H3315 C3341 0.950 . S
H3316 C3342 0.950 . S
H3317 C3344 0.950 . S
H3318 C3347 0.950 1_554 S
H3319 C3348 0.950 . S
H3320 C3350 0.950 . S
H3321 C3351 0.950 . S
C3322 H3304 0.951 . S
C3322 C3323 1.366 . S
C3322 C3324 1.388 . S
C3323 C3322 1.366 . S
C3323 C3327 1.385 . S
C3324 H3305 0.951 . S
C3324 C3322 1.388 . S
C3324 C3325 1.366 . S
C3325 C3324 1.366 . S
C3325 C3326 1.414 . S
C3325 C3328 1.499 . S
C3326 H3306 0.950 . S
C3326 C3325 1.414 . S
C3326 C3327 1.374 . S
C3327 H3307 0.950 . S
C3327 C3323 1.385 . S
C3327 C3326 1.374 . S
C3328 C3325 1.499 . S
C3328 C3329 1.373 . S
C3328 C3330 1.389 . S
C3329 H3308 0.950 . S
C3329 C3328 1.373 . S
C3329 C3345 1.377 . S
C3330 C3328 1.389 . S
C3330 C3331 1.524 . S
C3330 C3344 1.377 . S
C3331 C3330 1.524 . S
C3331 C3332 1.397 . S
C3331 C3336 1.363 . S
C3332 H3309 0.950 . S
C3332 C3331 1.397 . S
C3332 C3333 1.334 . S
C3333 H3310 0.950 . S
C3333 C3332 1.334 . S
C3333 C3334 1.287 . S
C3334 C3333 1.287 . S
C3334 C3335 1.524 . S
C3334 H3353 0.913 . S
C3335 H3311 0.950 . S
C3335 C3334 1.524 . S
C3335 C3336 1.415 . S
C3336 H3312 0.950 . S
C3336 C3331 1.363 . S
C3336 C3335 1.415 . S
C3337 H3313 0.951 . S
C3337 C3338 1.366 . S
C3337 C3339 1.388 . S
C3338 C3337 1.366 . S
C3338 C3342 1.385 . S
C3339 H3314 0.951 . S
C3339 C3337 1.388 . S
C3339 C3340 1.366 . S
C3340 C3339 1.366 . S
C3340 C3341 1.414 . S
C3340 C3343 1.499 . S
C3341 H3315 0.950 . S
C3341 C3340 1.414 . S
C3341 C3342 1.374 . S
C3342 H3316 0.950 . S
C3342 C3338 1.385 . S
C3342 C3341 1.374 . S
C3343 C3340 1.499 . S
C3343 C3344 1.373 . S
C3343 C3345 1.389 . S
C3344 H3317 0.950 . S
C3344 C3330 1.377 . S
C3344 C3343 1.373 . S
C3345 C3329 1.377 . S
C3345 C3343 1.389 . S
C3345 C3346 1.524 . S
C3346 C3345 1.524 . S
C3346 C3347 1.397 1_554 S
C3346 C3351 1.363 . S
C3347 H3318 0.950 1_556 S
C3347 C3346 1.397 1_556 S
C3347 C3348 1.334 . S
C3348 H3319 0.950 . S
C3348 C3347 1.334 . S
C3348 C3349 1.287 . S
C3349 C3348 1.287 . S
C3349 C3350 1.524 . S
C3349 H3352 0.999 . S
C3350 H3320 0.950 . S
C3350 C3349 1.524 . S
C3350 C3351 1.415 1_556 S
C3351 H3321 0.950 . S
C3351 C3346 1.363 . S
C3351 C3350 1.415 1_554 S
H3352 C3349 0.999 . S
H3353 C3334 0.913 . S
H3354 C3372 0.951 . S
H3355 C3374 0.951 . S
H3356 C3376 0.950 . S
H3357 C3377 0.950 . S
H3358 C3379 0.950 . S
H3359 C3382 0.950 . S
H3360 C3383 0.950 . S
H3361 C3385 0.950 . S
H3362 C3386 0.950 . S
H3363 C3387 0.951 . S
H3364 C3389 0.951 . S
H3365 C3391 0.950 . S
H3366 C3392 0.950 . S
H3367 C3394 0.950 . S
H3368 C3397 0.950 . S
H3369 C3398 0.950 . S
H3370 C3400 0.950 . S
H3371 C3401 0.950 . S
C3372 H3354 0.951 . S
C3372 C3373 1.366 . S
C3372 C3374 1.388 . S
C3373 C3372 1.366 . S
C3373 C3377 1.385 . S
C3374 H3355 0.951 . S
C3374 C3372 1.388 . S
C3374 C3375 1.366 . S
C3375 C3374 1.366 . S
C3375 C3376 1.414 . S
C3375 C3378 1.499 . S
C3376 H3356 0.950 . S
C3376 C3375 1.414 . S
C3376 C3377 1.374 . S
C3377 H3357 0.950 . S
C3377 C3373 1.385 . S
C3377 C3376 1.374 . S
C3378 C3375 1.499 . S
C3378 C3379 1.373 . S
C3378 C3380 1.389 . S
C3379 H3358 0.950 . S
C3379 C3378 1.373 . S
C3379 C3395 1.377 . S
C3380 C3378 1.389 . S
C3380 C3381 1.524 . S
C3380 C3394 1.377 . S
C3381 C3380 1.524 . S
C3381 C3382 1.397 . S
C3381 C3386 1.363 . S
C3382 H3359 0.950 . S
C3382 C3381 1.397 . S
C3382 C3383 1.334 . S
C3383 H3360 0.950 . S
C3383 C3382 1.334 . S
C3383 C3384 1.287 . S
C3384 C3383 1.287 . S
C3384 C3385 1.524 . S
C3384 H3403 0.913 . S
C3385 H3361 0.950 . S
C3385 C3384 1.524 . S
C3385 C3386 1.415 . S
C3386 H3362 0.950 . S
C3386 C3381 1.363 . S
C3386 C3385 1.415 . S
C3387 H3363 0.951 . S
C3387 C3388 1.366 . S
C3387 C3389 1.388 . S
C3388 C3387 1.366 . S
C3388 C3392 1.385 . S
C3389 H3364 0.951 . S
C3389 C3387 1.388 . S
C3389 C3390 1.366 . S
C3390 C3389 1.366 . S
C3390 C3391 1.414 . S
C3390 C3393 1.499 . S
C3391 H3365 0.950 . S
C3391 C3390 1.414 . S
C3391 C3392 1.374 . S
C3392 H3366 0.950 . S
C3392 C3388 1.385 . S
C3392 C3391 1.374 . S
C3393 C3390 1.499 . S
C3393 C3394 1.373 . S
C3393 C3395 1.389 . S
C3394 H3367 0.950 . S
C3394 C3380 1.377 . S
C3394 C3393 1.373 . S
C3395 C3379 1.377 . S
C3395 C3393 1.389 . S
C3395 C3396 1.524 . S
C3396 C3395 1.524 . S
C3396 C3397 1.397 . S
C3396 C3401 1.363 . S
C3397 H3368 0.950 . S
C3397 C3396 1.397 . S
C3397 C3398 1.334 . S
C3398 H3369 0.950 . S
C3398 C3397 1.334 . S
C3398 C3399 1.287 . S
C3399 C3398 1.287 . S
C3399 C3400 1.524 . S
C3399 H3402 0.999 . S
C3400 H3370 0.950 . S
C3400 C3399 1.524 . S
C3400 C3401 1.415 . S
C3401 H3371 0.950 . S
C3401 C3396 1.363 . S
C3401 C3400 1.415 . S
H3402 C3399 0.999 . S
H3403 C3384 0.913 . S
H3404 C3422 0.951 . S
H3405 C3424 0.951 . S
H3406 C3426 0.950 . S
H3407 C3427 0.950 . S
H3408 C3429 0.950 . S
H3409 C3432 0.950 . S
H3410 C3433 0.950 . S
H3411 C3435 0.950 . S
H3412 C3436 0.950 . S
H3413 C3437 0.951 . S
H3414 C3439 0.951 . S
H3415 C3441 0.950 . S
H3416 C3442 0.950 . S
H3417 C3444 0.950 . S
H3418 C3447 0.950 . S
H3419 C3448 0.950 . S
H3420 C3450 0.950 . S
H3421 C3451 0.950 . S
C3422 H3404 0.951 . S
C3422 C3423 1.366 . S
C3422 C3424 1.388 . S
C3423 C3422 1.366 . S
C3423 C3427 1.385 . S
C3424 H3405 0.951 . S
C3424 C3422 1.388 . S
C3424 C3425 1.366 . S
C3425 C3424 1.366 . S
C3425 C3426 1.414 . S
C3425 C3428 1.499 . S
C3426 H3406 0.950 . S
C3426 C3425 1.414 . S
C3426 C3427 1.374 . S
C3427 H3407 0.950 . S
C3427 C3423 1.385 . S
C3427 C3426 1.374 . S
C3428 C3425 1.499 . S
C3428 C3429 1.373 . S
C3428 C3430 1.389 . S
C3429 H3408 0.950 . S
C3429 C3428 1.373 . S
C3429 C3445 1.377 . S
C3430 C3428 1.389 . S
C3430 C3431 1.524 . S
C3430 C3444 1.377 . S
C3431 C3430 1.524 . S
C3431 C3432 1.397 . S
C3431 C3436 1.363 . S
C3432 H3409 0.950 . S
C3432 C3431 1.397 . S
C3432 C3433 1.334 . S
C3433 H3410 0.950 . S
C3433 C3432 1.334 . S
C3433 C3434 1.287 . S
C3434 C3433 1.287 . S
C3434 C3435 1.524 . S
C3434 H3453 0.913 . S
C3435 H3411 0.950 . S
C3435 C3434 1.524 . S
C3435 C3436 1.415 . S
C3436 H3412 0.950 . S
C3436 C3431 1.363 . S
C3436 C3435 1.415 . S
C3437 H3413 0.951 . S
C3437 C3438 1.366 . S
C3437 C3439 1.388 . S
C3438 C3437 1.366 . S
C3438 C3442 1.385 . S
C3439 H3414 0.951 . S
C3439 C3437 1.388 . S
C3439 C3440 1.366 . S
C3440 C3439 1.366 . S
C3440 C3441 1.414 . S
C3440 C3443 1.499 . S
C3441 H3415 0.950 . S
C3441 C3440 1.414 . S
C3441 C3442 1.374 . S
C3442 H3416 0.950 . S
C3442 C3438 1.385 . S
C3442 C3441 1.374 . S
C3443 C3440 1.499 . S
C3443 C3444 1.373 . S
C3443 C3445 1.389 . S
C3444 H3417 0.950 . S
C3444 C3430 1.377 . S
C3444 C3443 1.373 . S
C3445 C3429 1.377 . S
C3445 C3443 1.389 . S
C3445 C3446 1.524 . S
C3446 C3445 1.524 . S
C3446 C3447 1.397 . S
C3446 C3451 1.363 . S
C3447 H3418 0.950 . S
C3447 C3446 1.397 . S
C3447 C3448 1.334 . S
C3448 H3419 0.950 . S
C3448 C3447 1.334 . S
C3448 C3449 1.287 . S
C3449 C3448 1.287 . S
C3449 C3450 1.524 . S
C3449 H3452 0.999 . S
C3450 H3420 0.950 . S
C3450 C3449 1.524 . S
C3450 C3451 1.415 . S
C3451 H3421 0.950 . S
C3451 C3446 1.363 . S
C3451 C3450 1.415 . S
H3452 C3449 0.999 . S
H3453 C3434 0.913 . S
H3454 C3472 0.951 . S
H3455 C3474 0.951 . S
H3456 C3476 0.950 . S
H3457 C3477 0.950 . S
H3458 C3479 0.950 . S
H3459 C3482 0.950 . S
H3460 C3483 0.950 . S
H3461 C3485 0.950 . S
H3462 C3486 0.950 . S
H3463 C3487 0.951 . S
H3464 C3489 0.951 . S
H3465 C3491 0.950 . S
H3466 C3492 0.950 . S
H3467 C3494 0.950 . S
H3468 C3497 0.950 . S
H3469 C3498 0.950 . S
H3470 C3500 0.950 . S
H3471 C3501 0.950 . S
C3472 H3454 0.951 . S
C3472 C3473 1.366 . S
C3472 C3474 1.388 . S
C3473 C3472 1.366 . S
C3473 C3477 1.385 . S
C3474 H3455 0.951 . S
C3474 C3472 1.388 . S
C3474 C3475 1.366 . S
C3475 C3474 1.366 . S
C3475 C3476 1.414 . S
C3475 C3478 1.499 . S
C3476 H3456 0.950 . S
C3476 C3475 1.414 . S
C3476 C3477 1.374 . S
C3477 H3457 0.950 . S
C3477 C3473 1.385 . S
C3477 C3476 1.374 . S
C3478 C3475 1.499 . S
C3478 C3479 1.373 . S
C3478 C3480 1.389 . S
C3479 H3458 0.950 . S
C3479 C3478 1.373 . S
C3479 C3495 1.377 . S
C3480 C3478 1.389 . S
C3480 C3481 1.524 . S
C3480 C3494 1.377 . S
C3481 C3480 1.524 . S
C3481 C3482 1.397 . S
C3481 C3486 1.363 . S
C3482 H3459 0.950 . S
C3482 C3481 1.397 . S
C3482 C3483 1.334 . S
C3483 H3460 0.950 . S
C3483 C3482 1.334 . S
C3483 C3484 1.287 . S
C3484 C3483 1.287 . S
C3484 C3485 1.524 . S
C3484 H3503 0.913 . S
C3485 H3461 0.950 . S
C3485 C3484 1.524 . S
C3485 C3486 1.415 . S
C3486 H3462 0.950 . S
C3486 C3481 1.363 . S
C3486 C3485 1.415 . S
C3487 H3463 0.951 . S
C3487 C3488 1.366 . S
C3487 C3489 1.388 . S
C3488 C3487 1.366 . S
C3488 C3492 1.385 . S
C3489 H3464 0.951 . S
C3489 C3487 1.388 . S
C3489 C3490 1.366 . S
C3490 C3489 1.366 . S
C3490 C3491 1.414 . S
C3490 C3493 1.499 . S
C3491 H3465 0.950 . S
C3491 C3490 1.414 . S
C3491 C3492 1.374 . S
C3492 H3466 0.950 . S
C3492 C3488 1.385 . S
C3492 C3491 1.374 . S
C3493 C3490 1.499 . S
C3493 C3494 1.373 . S
C3493 C3495 1.389 . S
C3494 H3467 0.950 . S
C3494 C3480 1.377 . S
C3494 C3493 1.373 . S
C3495 C3479 1.377 . S
C3495 C3493 1.389 . S
C3495 C3496 1.524 . S
C3496 C3495 1.524 . S
C3496 C3497 1.397 . S
C3496 C3501 1.363 . S
C3497 H3468 0.950 . S
C3497 C3496 1.397 . S
C3497 C3498 1.334 . S
C3498 H3469 0.950 . S
C3498 C3497 1.334 . S
C3498 C3499 1.287 . S
C3499 C3498 1.287 . S
C3499 C3500 1.524 . S
C3499 H3502 0.999 . S
C3500 H3470 0.950 . S
C3500 C3499 1.524 . S
C3500 C3501 1.415 . S
C3501 H3471 0.950 . S
C3501 C3496 1.363 . S
C3501 C3500 1.415 . S
H3502 C3499 0.999 . S
H3503 C3484 0.913 . S
H3504 C3522 0.951 . S
H3505 C3524 0.951 . S
H3506 C3526 0.950 . S
H3507 C3527 0.950 . S
H3508 C3529 0.950 . S
H3509 C3532 0.950 . S
H3510 C3533 0.950 . S
H3511 C3535 0.950 . S
H3512 C3536 0.950 . S
H3513 C3537 0.951 . S
H3514 C3539 0.951 . S
H3515 C3541 0.950 . S
H3516 C3542 0.950 . S
H3517 C3544 0.950 . S
H3518 C3547 0.950 . S
H3519 C3548 0.950 . S
H3520 C3550 0.950 . S
H3521 C3551 0.950 1_556 S
C3522 H3504 0.951 . S
C3522 C3523 1.366 . S
C3522 C3524 1.388 . S
C3523 C3522 1.366 . S
C3523 C3527 1.385 . S
C3524 H3505 0.951 . S
C3524 C3522 1.388 . S
C3524 C3525 1.366 . S
C3525 C3524 1.366 . S
C3525 C3526 1.414 . S
C3525 C3528 1.499 . S
C3526 H3506 0.950 . S
C3526 C3525 1.414 . S
C3526 C3527 1.374 . S
C3527 H3507 0.950 . S
C3527 C3523 1.385 . S
C3527 C3526 1.374 . S
C3528 C3525 1.499 . S
C3528 C3529 1.373 . S
C3528 C3530 1.389 . S
C3529 H3508 0.950 . S
C3529 C3528 1.373 . S
C3529 C3545 1.377 . S
C3530 C3528 1.389 . S
C3530 C3531 1.524 . S
C3530 C3544 1.377 . S
C3531 C3530 1.524 . S
C3531 C3532 1.397 . S
C3531 C3536 1.363 . S
C3532 H3509 0.950 . S
C3532 C3531 1.397 . S
C3532 C3533 1.334 . S
C3533 H3510 0.950 . S
C3533 C3532 1.334 . S
C3533 C3534 1.287 . S
C3534 C3533 1.287 . S
C3534 C3535 1.524 . S
C3534 H3553 0.913 . S
C3535 H3511 0.950 . S
C3535 C3534 1.524 . S
C3535 C3536 1.415 . S
C3536 H3512 0.950 . S
C3536 C3531 1.363 . S
C3536 C3535 1.415 . S
C3537 H3513 0.951 . S
C3537 C3538 1.366 . S
C3537 C3539 1.388 . S
C3538 C3537 1.366 . S
C3538 C3542 1.385 . S
C3539 H3514 0.951 . S
C3539 C3537 1.388 . S
C3539 C3540 1.366 . S
C3540 C3539 1.366 . S
C3540 C3541 1.414 . S
C3540 C3543 1.499 . S
C3541 H3515 0.950 . S
C3541 C3540 1.414 . S
C3541 C3542 1.374 . S
C3542 H3516 0.950 . S
C3542 C3538 1.385 . S
C3542 C3541 1.374 . S
C3543 C3540 1.499 . S
C3543 C3544 1.373 . S
C3543 C3545 1.389 . S
C3544 H3517 0.950 . S
C3544 C3530 1.377 . S
C3544 C3543 1.373 . S
C3545 C3529 1.377 . S
C3545 C3543 1.389 . S
C3545 C3546 1.524 1_556 S
C3546 C3545 1.524 1_554 S
C3546 C3547 1.397 . S
C3546 C3551 1.363 . S
C3547 H3518 0.950 . S
C3547 C3546 1.397 . S
C3547 C3548 1.334 . S
C3548 H3519 0.950 . S
C3548 C3547 1.334 . S
C3548 C3549 1.287 . S
C3549 C3548 1.287 . S
C3549 C3550 1.524 . S
C3549 H3552 0.999 . S
C3550 H3520 0.950 . S
C3550 C3549 1.524 . S
C3550 C3551 1.415 . S
C3551 H3521 0.950 1_554 S
C3551 C3546 1.363 . S
C3551 C3550 1.415 . S
H3552 C3549 0.999 . S
H3553 C3534 0.913 . S
H3554 C3572 0.951 1_554 S
H3555 C3574 0.951 1_554 S
H3556 C3576 0.950 . S
H3557 C3577 0.950 . S
H3558 C3579 0.950 . S
H3559 C3582 0.950 . S
H3560 C3583 0.950 . S
H3561 C3585 0.950 1_554 S
H3562 C3586 0.950 1_554 S
H3563 C3587 0.951 . S
H3564 C3589 0.951 . S
H3565 C3591 0.950 . S
H3566 C3592 0.950 . S
H3567 C3594 0.950 . S
H3568 C3597 0.950 . S
H3569 C3598 0.950 . S
H3570 C3600 0.950 . S
H3571 C3601 0.950 . S
C3572 H3554 0.951 1_556 S
C3572 C3573 1.366 . S
C3572 C3574 1.388 . S
C3573 C3572 1.366 . S
C3573 C3577 1.385 . S
C3574 H3555 0.951 1_556 S
C3574 C3572 1.388 . S
C3574 C3575 1.366 . S
C3575 C3574 1.366 . S
C3575 C3576 1.414 . S
C3575 C3578 1.499 . S
C3576 H3556 0.950 . S
C3576 C3575 1.414 . S
C3576 C3577 1.374 . S
C3577 H3557 0.950 . S
C3577 C3573 1.385 . S
C3577 C3576 1.374 . S
C3578 C3575 1.499 . S
C3578 C3579 1.373 . S
C3578 C3580 1.389 . S
C3579 H3558 0.950 . S
C3579 C3578 1.373 . S
C3579 C3595 1.377 . S
C3580 C3578 1.389 . S
C3580 C3581 1.524 . S
C3580 C3594 1.377 . S
C3581 C3580 1.524 . S
C3581 C3582 1.397 . S
C3581 C3586 1.363 . S
C3582 H3559 0.950 . S
C3582 C3581 1.397 . S
C3582 C3583 1.334 . S
C3583 H3560 0.950 . S
C3583 C3582 1.334 . S
C3583 C3584 1.287 . S
C3584 C3583 1.287 . S
C3584 C3585 1.524 . S
C3584 H3603 0.913 . S
C3585 H3561 0.950 1_556 S
C3585 C3584 1.524 . S
C3585 C3586 1.415 . S
C3586 H3562 0.950 1_556 S
C3586 C3581 1.363 . S
C3586 C3585 1.415 . S
C3587 H3563 0.951 . S
C3587 C3588 1.366 . S
C3587 C3589 1.388 . S
C3588 C3587 1.366 . S
C3588 C3592 1.385 . S
C3589 H3564 0.951 . S
C3589 C3587 1.388 . S
C3589 C3590 1.366 . S
C3590 C3589 1.366 . S
C3590 C3591 1.414 . S
C3590 C3593 1.499 . S
C3591 H3565 0.950 . S
C3591 C3590 1.414 . S
C3591 C3592 1.374 . S
C3592 H3566 0.950 . S
C3592 C3588 1.385 . S
C3592 C3591 1.374 . S
C3593 C3590 1.499 . S
C3593 C3594 1.373 . S
C3593 C3595 1.389 . S
C3594 H3567 0.950 . S
C3594 C3580 1.377 . S
C3594 C3593 1.373 . S
C3595 C3579 1.377 . S
C3595 C3593 1.389 . S
C3595 C3596 1.524 . S
C3596 C3595 1.524 . S
C3596 C3597 1.397 . S
C3596 C3601 1.363 . S
C3597 H3568 0.950 . S
C3597 C3596 1.397 . S
C3597 C3598 1.334 . S
C3598 H3569 0.950 . S
C3598 C3597 1.334 . S
C3598 C3599 1.287 . S
C3599 C3598 1.287 . S
C3599 C3600 1.524 . S
C3599 H3602 0.999 . S
C3600 H3570 0.950 . S
C3600 C3599 1.524 . S
C3600 C3601 1.415 . S
C3601 H3571 0.950 . S
C3601 C3596 1.363 . S
C3601 C3600 1.415 . S
H3602 C3599 0.999 . S
H3603 C3584 0.913 . S
H3604 C3622 0.951 . S
H3605 C3624 0.951 . S
H3606 C3626 0.950 . S
H3607 C3627 0.950 . S
H3608 C3629 0.950 . S
H3609 C3632 0.950 . S
H3610 C3633 0.950 . S
H3611 C3635 0.950 . S
H3612 C3636 0.950 . S
H3613 C3637 0.951 . S
H3614 C3639 0.951 . S
H3615 C3641 0.950 1_554 S
H3616 C3642 0.950 1_554 S
H3617 C3644 0.950 . S
H3618 C3647 0.950 . S
H3619 C3648 0.950 . S
H3620 C3650 0.950 . S
H3621 C3651 0.950 . S
C3622 H3604 0.951 . S
C3622 C3623 1.366 . S
C3622 C3624 1.388 . S
C3623 C3622 1.366 . S
C3623 C3627 1.385 . S
C3624 H3605 0.951 . S
C3624 C3622 1.388 . S
C3624 C3625 1.366 . S
C3625 C3624 1.366 . S
C3625 C3626 1.414 . S
C3625 C3628 1.499 . S
C3626 H3606 0.950 . S
C3626 C3625 1.414 . S
C3626 C3627 1.374 . S
C3627 H3607 0.950 . S
C3627 C3623 1.385 . S
C3627 C3626 1.374 . S
C3628 C3625 1.499 . S
C3628 C3629 1.373 . S
C3628 C3630 1.389 . S
C3629 H3608 0.950 . S
C3629 C3628 1.373 . S
C3629 C3645 1.377 . S
C3630 C3628 1.389 . S
C3630 C3631 1.524 . S
C3630 C3644 1.377 . S
C3631 C3630 1.524 . S
C3631 C3632 1.397 . S
C3631 C3636 1.363 1_556 S
C3632 H3609 0.950 . S
C3632 C3631 1.397 . S
C3632 C3633 1.334 . S
C3633 H3610 0.950 . S
C3633 C3632 1.334 . S
C3633 C3634 1.287 . S
C3634 C3633 1.287 . S
C3634 C3635 1.524 1_556 S
C3634 H3653 0.913 . S
C3635 H3611 0.950 . S
C3635 C3634 1.524 1_554 S
C3635 C3636 1.415 . S
C3636 H3612 0.950 . S
C3636 C3631 1.363 1_554 S
C3636 C3635 1.415 . S
C3637 H3613 0.951 . S
C3637 C3638 1.366 . S
C3637 C3639 1.388 . S
C3638 C3637 1.366 . S
C3638 C3642 1.385 . S
C3639 H3614 0.951 . S
C3639 C3637 1.388 . S
C3639 C3640 1.366 . S
C3640 C3639 1.366 . S
C3640 C3641 1.414 . S
C3640 C3643 1.499 . S
C3641 H3615 0.950 1_556 S
C3641 C3640 1.414 . S
C3641 C3642 1.374 . S
C3642 H3616 0.950 1_556 S
C3642 C3638 1.385 . S
C3642 C3641 1.374 . S
C3643 C3640 1.499 . S
C3643 C3644 1.373 . S
C3643 C3645 1.389 . S
C3644 H3617 0.950 . S
C3644 C3630 1.377 . S
C3644 C3643 1.373 . S
C3645 C3629 1.377 . S
C3645 C3643 1.389 . S
C3645 C3646 1.524 . S
C3646 C3645 1.524 . S
C3646 C3647 1.397 . S
C3646 C3651 1.363 . S
C3647 H3618 0.950 . S
C3647 C3646 1.397 . S
C3647 C3648 1.334 . S
C3648 H3619 0.950 . S
C3648 C3647 1.334 . S
C3648 C3649 1.287 . S
C3649 C3648 1.287 . S
C3649 C3650 1.524 . S
C3649 H3652 0.999 . S
C3650 H3620 0.950 . S
C3650 C3649 1.524 . S
C3650 C3651 1.415 . S
C3651 H3621 0.950 . S
C3651 C3646 1.363 . S
C3651 C3650 1.415 . S
H3652 C3649 0.999 . S
H3653 C3634 0.913 . S
H3654 C3672 0.951 . S
H3655 C3674 0.951 . S
H3656 C3676 0.950 . S
H3657 C3677 0.950 . S
H3658 C3679 0.950 . S
H3659 C3682 0.950 . S
H3660 C3683 0.950 . S
H3661 C3685 0.950 . S
H3662 C3686 0.950 . S
H3663 C3687 0.951 . S
H3664 C3689 0.951 . S
H3665 C3691 0.950 . S
H3666 C3692 0.950 . S
H3667 C3694 0.950 . S
H3668 C3697 0.950 . S
H3669 C3698 0.950 . S
H3670 C3700 0.950 . S
H3671 C3701 0.950 . S
C3672 H3654 0.951 . S
C3672 C3673 1.366 . S
C3672 C3674 1.388 . S
C3673 C3672 1.366 . S
C3673 C3677 1.385 . S
C3674 H3655 0.951 . S
C3674 C3672 1.388 . S
C3674 C3675 1.366 . S
C3675 C3674 1.366 . S
C3675 C3676 1.414 . S
C3675 C3678 1.499 . S
C3676 H3656 0.950 . S
C3676 C3675 1.414 . S
C3676 C3677 1.374 . S
C3677 H3657 0.950 . S
C3677 C3673 1.385 . S
C3677 C3676 1.374 . S
C3678 C3675 1.499 . S
C3678 C3679 1.373 . S
C3678 C3680 1.389 . S
C3679 H3658 0.950 . S
C3679 C3678 1.373 . S
C3679 C3695 1.377 . S
C3680 C3678 1.389 . S
C3680 C3681 1.524 . S
C3680 C3694 1.377 . S
C3681 C3680 1.524 . S
C3681 C3682 1.397 . S
C3681 C3686 1.363 . S
C3682 H3659 0.950 . S
C3682 C3681 1.397 . S
C3682 C3683 1.334 . S
C3683 H3660 0.950 . S
C3683 C3682 1.334 . S
C3683 C3684 1.287 . S
C3684 C3683 1.287 . S
C3684 C3685 1.524 . S
C3684 H3703 0.913 . S
C3685 H3661 0.950 . S
C3685 C3684 1.524 . S
C3685 C3686 1.415 . S
C3686 H3662 0.950 . S
C3686 C3681 1.363 . S
C3686 C3685 1.415 . S
C3687 H3663 0.951 . S
C3687 C3688 1.366 . S
C3687 C3689 1.388 . S
C3688 C3687 1.366 . S
C3688 C3692 1.385 . S
C3689 H3664 0.951 . S
C3689 C3687 1.388 . S
C3689 C3690 1.366 . S
C3690 C3689 1.366 . S
C3690 C3691 1.414 . S
C3690 C3693 1.499 . S
C3691 H3665 0.950 . S
C3691 C3690 1.414 . S
C3691 C3692 1.374 . S
C3692 H3666 0.950 . S
C3692 C3688 1.385 . S
C3692 C3691 1.374 . S
C3693 C3690 1.499 . S
C3693 C3694 1.373 . S
C3693 C3695 1.389 . S
C3694 H3667 0.950 . S
C3694 C3680 1.377 . S
C3694 C3693 1.373 . S
C3695 C3679 1.377 . S
C3695 C3693 1.389 . S
C3695 C3696 1.524 . S
C3696 C3695 1.524 . S
C3696 C3697 1.397 . S
C3696 C3701 1.363 . S
C3697 H3668 0.950 . S
C3697 C3696 1.397 . S
C3697 C3698 1.334 . S
C3698 H3669 0.950 . S
C3698 C3697 1.334 . S
C3698 C3699 1.287 . S
C3699 C3698 1.287 . S
C3699 C3700 1.524 . S
C3699 H3702 0.999 . S
C3700 H3670 0.950 . S
C3700 C3699 1.524 . S
C3700 C3701 1.415 . S
C3701 H3671 0.950 . S
C3701 C3696 1.363 . S
C3701 C3700 1.415 . S
H3702 C3699 0.999 . S
H3703 C3684 0.913 . S
H3704 C3722 0.951 . S
H3705 C3724 0.951 . S
H3706 C3726 0.950 . S
H3707 C3727 0.950 . S
H3708 C3729 0.950 . S
H3709 C3732 0.950 . S
H3710 C3733 0.950 . S
H3711 C3735 0.950 . S
H3712 C3736 0.950 . S
H3713 C3737 0.951 . S
H3714 C3739 0.951 . S
H3715 C3741 0.950 . S
H3716 C3742 0.950 . S
H3717 C3744 0.950 . S
H3718 C3747 0.950 . S
H3719 C3748 0.950 . S
H3720 C3750 0.950 . S
H3721 C3751 0.950 . S
C3722 H3704 0.951 . S
C3722 C3723 1.366 . S
C3722 C3724 1.388 . S
C3723 C3722 1.366 . S
C3723 C3727 1.385 . S
C3724 H3705 0.951 . S
C3724 C3722 1.388 . S
C3724 C3725 1.366 . S
C3725 C3724 1.366 . S
C3725 C3726 1.414 . S
C3725 C3728 1.499 . S
C3726 H3706 0.950 . S
C3726 C3725 1.414 . S
C3726 C3727 1.374 . S
C3727 H3707 0.950 . S
C3727 C3723 1.385 . S
C3727 C3726 1.374 . S
C3728 C3725 1.499 . S
C3728 C3729 1.373 . S
C3728 C3730 1.389 . S
C3729 H3708 0.950 . S
C3729 C3728 1.373 . S
C3729 C3745 1.377 . S
C3730 C3728 1.389 . S
C3730 C3731 1.524 . S
C3730 C3744 1.377 . S
C3731 C3730 1.524 . S
C3731 C3732 1.397 . S
C3731 C3736 1.363 . S
C3732 H3709 0.950 . S
C3732 C3731 1.397 . S
C3732 C3733 1.334 . S
C3733 H3710 0.950 . S
C3733 C3732 1.334 . S
C3733 C3734 1.287 . S
C3734 C3733 1.287 . S
C3734 C3735 1.524 . S
C3734 H3753 0.913 . S
C3735 H3711 0.950 . S
C3735 C3734 1.524 . S
C3735 C3736 1.415 . S
C3736 H3712 0.950 . S
C3736 C3731 1.363 . S
C3736 C3735 1.415 . S
C3737 H3713 0.951 . S
C3737 C3738 1.366 . S
C3737 C3739 1.388 . S
C3738 C3737 1.366 . S
C3738 C3742 1.385 . S
C3739 H3714 0.951 . S
C3739 C3737 1.388 . S
C3739 C3740 1.366 . S
C3740 C3739 1.366 . S
C3740 C3741 1.414 . S
C3740 C3743 1.499 . S
C3741 H3715 0.950 . S
C3741 C3740 1.414 . S
C3741 C3742 1.374 . S
C3742 H3716 0.950 . S
C3742 C3738 1.385 . S
C3742 C3741 1.374 . S
C3743 C3740 1.499 . S
C3743 C3744 1.373 . S
C3743 C3745 1.389 . S
C3744 H3717 0.950 . S
C3744 C3730 1.377 . S
C3744 C3743 1.373 . S
C3745 C3729 1.377 . S
C3745 C3743 1.389 . S
C3745 C3746 1.524 . S
C3746 C3745 1.524 . S
C3746 C3747 1.397 . S
C3746 C3751 1.363 . S
C3747 H3718 0.950 . S
C3747 C3746 1.397 . S
C3747 C3748 1.334 . S
C3748 H3719 0.950 . S
C3748 C3747 1.334 . S
C3748 C3749 1.287 . S
C3749 C3748 1.287 . S
C3749 C3750 1.524 . S
C3749 H3752 0.999 . S
C3750 H3720 0.950 . S
C3750 C3749 1.524 . S
C3750 C3751 1.415 . S
C3751 H3721 0.950 . S
C3751 C3746 1.363 . S
C3751 C3750 1.415 . S
H3752 C3749 0.999 . S
H3753 C3734 0.913 . S
H3754 C3772 0.951 . S
H3755 C3774 0.951 . S
H3756 C3776 0.950 . S
H3757 C3777 0.950 . S
H3758 C3779 0.950 . S
H3759 C3782 0.950 . S
H3760 C3783 0.950 . S
H3761 C3785 0.950 . S
H3762 C3786 0.950 . S
H3763 C3787 0.951 . S
H3764 C3789 0.951 . S
H3765 C3791 0.950 . S
H3766 C3792 0.950 . S
H3767 C3794 0.950 . S
H3768 C3797 0.950 . S
H3769 C3798 0.950 . S
H3770 C3800 0.950 . S
H3771 C3801 0.950 . S
C3772 H3754 0.951 . S
C3772 C3773 1.366 . S
C3772 C3774 1.388 . S
C3773 C3772 1.366 . S
C3773 C3777 1.385 . S
C3774 H3755 0.951 . S
C3774 C3772 1.388 . S
C3774 C3775 1.366 . S
C3775 C3774 1.366 . S
C3775 C3776 1.414 . S
C3775 C3778 1.499 . S
C3776 H3756 0.950 . S
C3776 C3775 1.414 . S
C3776 C3777 1.374 . S
C3777 H3757 0.950 . S
C3777 C3773 1.385 . S
C3777 C3776 1.374 . S
C3778 C3775 1.499 . S
C3778 C3779 1.373 . S
C3778 C3780 1.389 . S
C3779 H3758 0.950 . S
C3779 C3778 1.373 . S
C3779 C3795 1.377 . S
C3780 C3778 1.389 . S
C3780 C3781 1.524 . S
C3780 C3794 1.377 . S
C3781 C3780 1.524 . S
C3781 C3782 1.397 . S
C3781 C3786 1.363 . S
C3782 H3759 0.950 . S
C3782 C3781 1.397 . S
C3782 C3783 1.334 . S
C3783 H3760 0.950 . S
C3783 C3782 1.334 . S
C3783 C3784 1.287 . S
C3784 C3783 1.287 . S
C3784 C3785 1.524 . S
C3784 H3803 0.913 . S
C3785 H3761 0.950 . S
C3785 C3784 1.524 . S
C3785 C3786 1.415 . S
C3786 H3762 0.950 . S
C3786 C3781 1.363 . S
C3786 C3785 1.415 . S
C3787 H3763 0.951 . S
C3787 C3788 1.366 . S
C3787 C3789 1.388 . S
C3788 C3787 1.366 . S
C3788 C3792 1.385 . S
C3789 H3764 0.951 . S
C3789 C3787 1.388 . S
C3789 C3790 1.366 . S
C3790 C3789 1.366 . S
C3790 C3791 1.414 . S
C3790 C3793 1.499 . S
C3791 H3765 0.950 . S
C3791 C3790 1.414 . S
C3791 C3792 1.374 . S
C3792 H3766 0.950 . S
C3792 C3788 1.385 . S
C3792 C3791 1.374 . S
C3793 C3790 1.499 . S
C3793 C3794 1.373 . S
C3793 C3795 1.389 . S
C3794 H3767 0.950 . S
C3794 C3780 1.377 . S
C3794 C3793 1.373 . S
C3795 C3779 1.377 . S
C3795 C3793 1.389 . S
C3795 C3796 1.524 . S
C3796 C3795 1.524 . S
C3796 C3797 1.397 . S
C3796 C3801 1.363 . S
C3797 H3768 0.950 . S
C3797 C3796 1.397 . S
C3797 C3798 1.334 . S
C3798 H3769 0.950 . S
C3798 C3797 1.334 . S
C3798 C3799 1.287 . S
C3799 C3798 1.287 . S
C3799 C3800 1.524 . S
C3799 H3802 0.999 . S
C3800 H3770 0.950 . S
C3800 C3799 1.524 . S
C3800 C3801 1.415 . S
C3801 H3771 0.950 . S
C3801 C3796 1.363 . S
C3801 C3800 1.415 . S
H3802 C3799 0.999 . S
H3803 C3784 0.913 . S
H3804 C3822 0.951 . S
H3805 C3824 0.951 . S
H3806 C3826 0.950 . S
H3807 C3827 0.950 . S
H3808 C3829 0.950 . S
H3809 C3832 0.950 . S
H3810 C3833 0.950 . S
H3811 C3835 0.950 . S
H3812 C3836 0.950 . S
H3813 C3837 0.951 . S
H3814 C3839 0.951 . S
H3815 C3841 0.950 . S
H3816 C3842 0.950 . S
H3817 C3844 0.950 . S
H3818 C3847 0.950 . S
H3819 C3848 0.950 . S
H3820 C3850 0.950 . S
H3821 C3851 0.950 . S
C3822 H3804 0.951 . S
C3822 C3823 1.366 . S
C3822 C3824 1.388 . S
C3823 C3822 1.366 . S
C3823 C3827 1.385 . S
C3824 H3805 0.951 . S
C3824 C3822 1.388 . S
C3824 C3825 1.366 . S
C3825 C3824 1.366 . S
C3825 C3826 1.414 . S
C3825 C3828 1.499 . S
C3826 H3806 0.950 . S
C3826 C3825 1.414 . S
C3826 C3827 1.374 . S
C3827 H3807 0.950 . S
C3827 C3823 1.385 . S
C3827 C3826 1.374 . S
C3828 C3825 1.499 . S
C3828 C3829 1.373 . S
C3828 C3830 1.389 . S
C3829 H3808 0.950 . S
C3829 C3828 1.373 . S
C3829 C3845 1.377 1_455 S
C3830 C3828 1.389 . S
C3830 C3831 1.524 . S
C3830 C3844 1.377 1_455 S
C3831 C3830 1.524 . S
C3831 C3832 1.397 . S
C3831 C3836 1.363 . S
C3832 H3809 0.950 . S
C3832 C3831 1.397 . S
C3832 C3833 1.334 . S
C3833 H3810 0.950 . S
C3833 C3832 1.334 . S
C3833 C3834 1.287 . S
C3834 C3833 1.287 . S
C3834 C3835 1.524 . S
C3834 H3853 0.913 . S
C3835 H3811 0.950 . S
C3835 C3834 1.524 . S
C3835 C3836 1.415 . S
C3836 H3812 0.950 . S
C3836 C3831 1.363 . S
C3836 C3835 1.415 . S
C3837 H3813 0.951 . S
C3837 C3838 1.366 . S
C3837 C3839 1.388 . S
C3838 C3837 1.366 . S
C3838 C3842 1.385 . S
C3839 H3814 0.951 . S
C3839 C3837 1.388 . S
C3839 C3840 1.366 . S
C3840 C3839 1.366 . S
C3840 C3841 1.414 . S
C3840 C3843 1.499 . S
C3841 H3815 0.950 . S
C3841 C3840 1.414 . S
C3841 C3842 1.374 . S
C3842 H3816 0.950 . S
C3842 C3838 1.385 . S
C3842 C3841 1.374 . S
C3843 C3840 1.499 . S
C3843 C3844 1.373 . S
C3843 C3845 1.389 . S
C3844 H3817 0.950 . S
C3844 C3830 1.377 1_655 S
C3844 C3843 1.373 . S
C3845 C3829 1.377 1_655 S
C3845 C3843 1.389 . S
C3845 C3846 1.524 . S
C3846 C3845 1.524 . S
C3846 C3847 1.397 . S
C3846 C3851 1.363 . S
C3847 H3818 0.950 . S
C3847 C3846 1.397 . S
C3847 C3848 1.334 . S
C3848 H3819 0.950 . S
C3848 C3847 1.334 . S
C3848 C3849 1.287 . S
C3849 C3848 1.287 . S
C3849 C3850 1.524 . S
C3849 H3852 0.999 . S
C3850 H3820 0.950 . S
C3850 C3849 1.524 . S
C3850 C3851 1.415 . S
C3851 H3821 0.950 . S
C3851 C3846 1.363 . S
C3851 C3850 1.415 . S
H3852 C3849 0.999 . S
H3853 C3834 0.913 . S
H3854 C3872 0.951 . S
H3855 C3874 0.951 . S
H3856 C3876 0.950 . S
H3857 C3877 0.950 . S
H3858 C3879 0.950 . S
H3859 C3882 0.950 . S
H3860 C3883 0.950 . S
H3861 C3885 0.950 . S
H3862 C3886 0.950 . S
H3863 C3887 0.951 . S
H3864 C3889 0.951 . S
H3865 C3891 0.950 . S
H3866 C3892 0.950 . S
H3867 C3894 0.950 . S
H3868 C3897 0.950 . S
H3869 C3898 0.950 . S
H3870 C3900 0.950 . S
H3871 C3901 0.950 . S
C3872 H3854 0.951 . S
C3872 C3873 1.366 . S
C3872 C3874 1.388 . S
C3873 C3872 1.366 . S
C3873 C3877 1.385 . S
C3874 H3855 0.951 . S
C3874 C3872 1.388 . S
C3874 C3875 1.366 . S
C3875 C3874 1.366 . S
C3875 C3876 1.414 . S
C3875 C3878 1.499 . S
C3876 H3856 0.950 . S
C3876 C3875 1.414 . S
C3876 C3877 1.374 . S
C3877 H3857 0.950 . S
C3877 C3873 1.385 . S
C3877 C3876 1.374 . S
C3878 C3875 1.499 . S
C3878 C3879 1.373 . S
C3878 C3880 1.389 . S
C3879 H3858 0.950 . S
C3879 C3878 1.373 . S
C3879 C3895 1.377 . S
C3880 C3878 1.389 . S
C3880 C3881 1.524 . S
C3880 C3894 1.377 . S
C3881 C3880 1.524 . S
C3881 C3882 1.397 . S
C3881 C3886 1.363 . S
C3882 H3859 0.950 . S
C3882 C3881 1.397 . S
C3882 C3883 1.334 . S
C3883 H3860 0.950 . S
C3883 C3882 1.334 . S
C3883 C3884 1.287 . S
C3884 C3883 1.287 . S
C3884 C3885 1.524 . S
C3884 H3903 0.913 . S
C3885 H3861 0.950 . S
C3885 C3884 1.524 . S
C3885 C3886 1.415 . S
C3886 H3862 0.950 . S
C3886 C3881 1.363 . S
C3886 C3885 1.415 . S
C3887 H3863 0.951 . S
C3887 C3888 1.366 . S
C3887 C3889 1.388 . S
C3888 C3887 1.366 . S
C3888 C3892 1.385 . S
C3889 H3864 0.951 . S
C3889 C3887 1.388 . S
C3889 C3890 1.366 . S
C3890 C3889 1.366 . S
C3890 C3891 1.414 . S
C3890 C3893 1.499 . S
C3891 H3865 0.950 . S
C3891 C3890 1.414 . S
C3891 C3892 1.374 . S
C3892 H3866 0.950 . S
C3892 C3888 1.385 . S
C3892 C3891 1.374 . S
C3893 C3890 1.499 . S
C3893 C3894 1.373 . S
C3893 C3895 1.389 . S
C3894 H3867 0.950 . S
C3894 C3880 1.377 . S
C3894 C3893 1.373 . S
C3895 C3879 1.377 . S
C3895 C3893 1.389 . S
C3895 C3896 1.524 . S
C3896 C3895 1.524 . S
C3896 C3897 1.397 . S
C3896 C3901 1.363 . S
C3897 H3868 0.950 . S
C3897 C3896 1.397 . S
C3897 C3898 1.334 . S
C3898 H3869 0.950 . S
C3898 C3897 1.334 . S
C3898 C3899 1.287 . S
C3899 C3898 1.287 . S
C3899 C3900 1.524 . S
C3899 H3902 0.999 . S
C3900 H3870 0.950 . S
C3900 C3899 1.524 . S
C3900 C3901 1.415 . S
C3901 H3871 0.950 . S
C3901 C3896 1.363 . S
C3901 C3900 1.415 . S
H3902 C3899 0.999 . S
H3903 C3884 0.913 . S
H3904 C3922 0.951 . S
H3905 C3924 0.951 . S
H3906 C3926 0.950 . S
H3907 C3927 0.950 . S
H3908 C3929 0.950 . S
H3909 C3932 0.950 . S
H3910 C3933 0.950 . S
H3911 C3935 0.950 . S
H3912 C3936 0.950 1_545 S
H3913 C3937 0.951 . S
H3914 C3939 0.951 . S
H3915 C3941 0.950 . S
H3916 C3942 0.950 . S
H3917 C3944 0.950 . S
H3918 C3947 0.950 . S
H3919 C3948 0.950 . S
H3920 C3950 0.950 . S
H3921 C3951 0.950 1_565 S
C3922 H3904 0.951 . S
C3922 C3923 1.366 . S
C3922 C3924 1.388 . S
C3923 C3922 1.366 . S
C3923 C3927 1.385 . S
C3924 H3905 0.951 . S
C3924 C3922 1.388 . S
C3924 C3925 1.366 . S
C3925 C3924 1.366 . S
C3925 C3926 1.414 . S
C3925 C3928 1.499 . S
C3926 H3906 0.950 . S
C3926 C3925 1.414 . S
C3926 C3927 1.374 . S
C3927 H3907 0.950 . S
C3927 C3923 1.385 . S
C3927 C3926 1.374 . S
C3928 C3925 1.499 . S
C3928 C3929 1.373 . S
C3928 C3930 1.389 . S
C3929 H3908 0.950 . S
C3929 C3928 1.373 . S
C3929 C3945 1.377 1_565 S
C3930 C3928 1.389 . S
C3930 C3931 1.524 . S
C3930 C3944 1.377 1_565 S
C3931 C3930 1.524 . S
C3931 C3932 1.397 . S
C3931 C3936 1.363 . S
C3932 H3909 0.950 . S
C3932 C3931 1.397 . S
C3932 C3933 1.334 . S
C3933 H3910 0.950 . S
C3933 C3932 1.334 . S
C3933 C3934 1.287 . S
C3934 C3933 1.287 . S
C3934 C3935 1.524 . S
C3934 H3953 0.913 . S
C3935 H3911 0.950 . S
C3935 C3934 1.524 . S
C3935 C3936 1.415 . S
C3936 H3912 0.950 1_565 S
C3936 C3931 1.363 . S
C3936 C3935 1.415 . S
C3937 H3913 0.951 . S
C3937 C3938 1.366 . S
C3937 C3939 1.388 . S
C3938 C3937 1.366 . S
C3938 C3942 1.385 . S
C3939 H3914 0.951 . S
C3939 C3937 1.388 . S
C3939 C3940 1.366 . S
C3940 C3939 1.366 . S
C3940 C3941 1.414 . S
C3940 C3943 1.499 . S
C3941 H3915 0.950 . S
C3941 C3940 1.414 . S
C3941 C3942 1.374 . S
C3942 H3916 0.950 . S
C3942 C3938 1.385 . S
C3942 C3941 1.374 . S
C3943 C3940 1.499 . S
C3943 C3944 1.373 . S
C3943 C3945 1.389 . S
C3944 H3917 0.950 . S
C3944 C3930 1.377 1_545 S
C3944 C3943 1.373 . S
C3945 C3929 1.377 1_545 S
C3945 C3943 1.389 . S
C3945 C3946 1.524 . S
C3946 C3945 1.524 . S
C3946 C3947 1.397 . S
C3946 C3951 1.363 . S
C3947 H3918 0.950 . S
C3947 C3946 1.397 . S
C3947 C3948 1.334 . S
C3948 H3919 0.950 . S
C3948 C3947 1.334 . S
C3948 C3949 1.287 . S
C3949 C3948 1.287 . S
C3949 C3950 1.524 . S
C3949 H3952 0.999 . S
C3950 H3920 0.950 . S
C3950 C3949 1.524 . S
C3950 C3951 1.415 . S
C3951 H3921 0.950 1_545 S
C3951 C3946 1.363 . S
C3951 C3950 1.415 . S
H3952 C3949 0.999 . S
H3953 C3934 0.913 . S
H3954 C3972 0.951 . S
H3955 C3974 0.951 . S
H3956 C3976 0.950 . S
H3957 C3977 0.950 . S
H3958 C3979 0.950 . S
H3959 C3982 0.950 . S
H3960 C3983 0.950 . S
H3961 C3985 0.950 . S
H3962 C3986 0.950 1_565 S
H3963 C3987 0.951 . S
H3964 C3989 0.951 . S
H3965 C3991 0.950 . S
H3966 C3992 0.950 . S
H3967 C3994 0.950 . S
H3968 C3997 0.950 . S
H3969 C3998 0.950 . S
H3970 C4000 0.950 . S
H3971 C4001 0.859 1_545 S
C3972 H3954 0.951 . S
C3972 C3973 1.366 . S
C3972 C3974 1.388 . S
C3973 C3972 1.366 . S
C3973 C3977 1.385 . S
C3974 H3955 0.951 . S
C3974 C3972 1.388 . S
C3974 C3975 1.366 . S
C3975 C3974 1.366 . S
C3975 C3976 1.414 . S
C3975 C3978 1.499 . S
C3976 H3956 0.950 . S
C3976 C3975 1.414 . S
C3976 C3977 1.374 . S
C3977 H3957 0.950 . S
C3977 C3973 1.385 . S
C3977 C3976 1.374 . S
C3978 C3975 1.499 . S
C3978 C3979 1.373 . S
C3978 C3980 1.389 . S
C3979 H3958 0.950 . S
C3979 C3978 1.373 . S
C3979 C3995 1.377 1_545 S
C3980 C3978 1.389 . S
C3980 C3981 1.524 . S
C3980 C3994 1.377 1_545 S
C3981 C3980 1.524 . S
C3981 C3982 1.397 . S
C3981 C3986 1.363 . S
C3982 H3959 0.950 . S
C3982 C3981 1.397 . S
C3982 C3983 1.334 . S
C3983 H3960 0.950 . S
C3983 C3982 1.334 . S
C3983 C3984 1.287 . S
C3984 C3983 1.287 . S
C3984 C3985 1.524 . S
C3984 H4003 0.913 . S
C3985 H3961 0.950 . S
C3985 C3984 1.524 . S
C3985 C3986 1.415 . S
C3986 H3962 0.950 1_545 S
C3986 C3981 1.363 . S
C3986 C3985 1.415 . S
C3987 H3963 0.951 . S
C3987 C3988 1.366 . S
C3987 C3989 1.388 . S
C3988 C3987 1.366 . S
C3988 C3992 1.385 . S
C3989 H3964 0.951 . S
C3989 C3987 1.388 . S
C3989 C3990 1.366 . S
C3990 C3989 1.366 . S
C3990 C3991 1.414 . S
C3990 C3993 1.499 . S
C3991 H3965 0.950 . S
C3991 C3990 1.414 . S
C3991 C3992 1.374 . S
C3992 H3966 0.950 . S
C3992 C3988 1.385 . S
C3992 C3991 1.374 . S
C3993 C3990 1.499 . S
C3993 C3994 1.373 . S
C3993 C3995 1.389 . S
C3994 H3967 0.950 . S
C3994 C3980 1.377 1_565 S
C3994 C3993 1.373 . S
C3995 C3979 1.377 1_565 S
C3995 C3993 1.389 . S
C3995 C3996 1.524 . S
C3996 C3995 1.524 . S
C3996 C3997 1.397 . S
C3996 C4001 1.363 . S
C3997 H3968 0.950 . S
C3997 C3996 1.397 . S
C3997 C3998 1.334 . S
C3998 H3969 0.950 . S
C3998 C3997 1.334 . S
C3998 C3999 1.287 . S
C3999 C3998 1.287 . S
C3999 C4000 1.524 . S
C3999 H4002 0.999 . S
C4000 H3970 0.950 . S
C4000 C3999 1.524 . S
C4000 C4001 1.415 . S
C4001 H3971 0.859 1_565 S
C4001 C3996 1.363 . S
C4001 C4000 1.415 . S
H4002 C3999 0.999 . S
H4003 C3984 0.913 . S
H4004 C4022 0.951 . S
H4005 C4024 0.951 . S
H4006 C4026 0.950 . S
H4007 C4027 0.950 . S
H4008 C4029 0.950 . S
H4009 C4032 0.950 . S
H4010 C4033 0.950 . S
H4011 C4035 0.950 . S
H4012 C4036 0.950 1_655 S
H4013 C4037 0.951 . S
H4014 C4039 0.951 . S
H4015 C4041 0.950 . S
H4016 C4042 0.950 . S
H4017 C4044 0.950 . S
H4018 C4047 0.950 . S
H4019 C4048 0.950 . S
H4020 C4050 0.950 . S
H4021 C4051 0.950 1_455 S
C4022 H4004 0.951 . S
C4022 C4023 1.366 . S
C4022 C4024 1.388 . S
C4023 C4022 1.366 . S
C4023 C4027 1.385 . S
C4024 H4005 0.951 . S
C4024 C4022 1.388 . S
C4024 C4025 1.366 . S
C4025 C4024 1.366 . S
C4025 C4026 1.414 . S
C4025 C4028 1.499 . S
C4026 H4006 0.950 . S
C4026 C4025 1.414 . S
C4026 C4027 1.374 . S
C4027 H4007 0.950 . S
C4027 C4023 1.385 . S
C4027 C4026 1.374 . S
C4028 C4025 1.499 . S
C4028 C4029 1.373 . S
C4028 C4030 1.389 . S
C4029 H4008 0.950 . S
C4029 C4028 1.373 . S
C4029 C4045 1.377 1_455 S
C4030 C4028 1.389 . S
C4030 C4031 1.524 . S
C4030 C4044 1.377 1_455 S
C4031 C4030 1.524 . S
C4031 C4032 1.397 . S
C4031 C4036 1.363 . S
C4032 H4009 0.950 . S
C4032 C4031 1.397 . S
C4032 C4033 1.334 . S
C4033 H4010 0.950 . S
C4033 C4032 1.334 . S
C4033 C4034 1.287 . S
C4034 C4033 1.287 . S
C4034 C4035 1.524 . S
C4034 H4053 0.913 . S
C4035 H4011 0.950 . S
C4035 C4034 1.524 . S
C4035 C4036 1.415 . S
C4036 H4012 0.950 1_455 S
C4036 C4031 1.363 . S
C4036 C4035 1.415 . S
C4037 H4013 0.951 . S
C4037 C4038 1.366 . S
C4037 C4039 1.388 . S
C4038 C4037 1.366 . S
C4038 C4042 1.385 . S
C4039 H4014 0.951 . S
C4039 C4037 1.388 . S
C4039 C4040 1.366 . S
C4040 C4039 1.366 . S
C4040 C4041 1.414 . S
C4040 C4043 1.499 . S
C4041 H4015 0.950 . S
C4041 C4040 1.414 . S
C4041 C4042 1.374 . S
C4042 H4016 0.950 . S
C4042 C4038 1.385 . S
C4042 C4041 1.374 . S
C4043 C4040 1.499 . S
C4043 C4044 1.373 . S
C4043 C4045 1.389 . S
C4044 H4017 0.950 . S
C4044 C4030 1.377 1_655 S
C4044 C4043 1.373 . S
C4045 C4029 1.377 1_655 S
C4045 C4043 1.389 . S
C4045 C4046 1.524 . S
C4046 C4045 1.524 . S
C4046 C4047 1.397 . S
C4046 C4051 1.363 . S
C4047 H4018 0.950 . S
C4047 C4046 1.397 . S
C4047 C4048 1.334 . S
C4048 H4019 0.950 . S
C4048 C4047 1.334 . S
C4048 C4049 1.287 . S
C4049 C4048 1.287 . S
C4049 C4050 1.524 . S
C4049 H4052 0.999 . S
C4050 H4020 0.950 . S
C4050 C4049 1.524 . S
C4050 C4051 1.415 . S
C4051 H4021 0.950 1_655 S
C4051 C4046 1.363 . S
C4051 C4050 1.415 . S
H4052 C4049 0.999 . S
H4053 C4034 0.913 . S
H4054 C4072 0.951 . S
H4055 C4074 0.951 . S
H4056 C4076 0.950 . S
H4057 C4077 0.950 . S
H4058 C4079 0.950 . S
H4059 C4082 0.950 . S
H4060 C4083 0.950 . S
H4061 C4085 0.950 . S
H4062 C4086 0.950 . S
H4063 C4087 0.951 . S
H4064 C4089 0.951 . S
H4065 C4091 0.950 . S
H4066 C4092 0.950 . S
H4067 C4094 0.950 . S
H4068 C4097 0.950 . S
H4069 C4098 0.950 . S
H4070 C4100 0.950 . S
H4071 C4101 0.950 . S
C4072 H4054 0.951 . S
C4072 C4073 1.366 . S
C4072 C4074 1.388 . S
C4073 C4072 1.366 . S
C4073 C4077 1.385 . S
C4074 H4055 0.951 . S
C4074 C4072 1.388 . S
C4074 C4075 1.366 . S
C4075 C4074 1.366 . S
C4075 C4076 1.414 . S
C4075 C4078 1.499 . S
C4076 H4056 0.950 . S
C4076 C4075 1.414 . S
C4076 C4077 1.374 . S
C4077 H4057 0.950 . S
C4077 C4073 1.385 . S
C4077 C4076 1.374 . S
C4078 C4075 1.499 . S
C4078 C4079 1.373 . S
C4078 C4080 1.389 . S
C4079 H4058 0.950 . S
C4079 C4078 1.373 . S
C4079 C4095 1.377 . S
C4080 C4078 1.389 . S
C4080 C4081 1.524 . S
C4080 C4094 1.377 . S
C4081 C4080 1.524 . S
C4081 C4082 1.397 . S
C4081 C4086 1.363 . S
C4082 H4059 0.950 . S
C4082 C4081 1.397 . S
C4082 C4083 1.334 . S
C4083 H4060 0.950 . S
C4083 C4082 1.334 . S
C4083 C4084 1.287 . S
C4084 C4083 1.287 . S
C4084 C4085 1.524 . S
C4084 H4103 0.913 . S
C4085 H4061 0.950 . S
C4085 C4084 1.524 . S
C4085 C4086 1.415 . S
C4086 H4062 0.950 . S
C4086 C4081 1.363 . S
C4086 C4085 1.415 . S
C4087 H4063 0.951 . S
C4087 C4088 1.366 . S
C4087 C4089 1.388 . S
C4088 C4087 1.366 . S
C4088 C4092 1.385 . S
C4089 H4064 0.951 . S
C4089 C4087 1.388 . S
C4089 C4090 1.366 . S
C4090 C4089 1.366 . S
C4090 C4091 1.414 . S
C4090 C4093 1.499 . S
C4091 H4065 0.950 . S
C4091 C4090 1.414 . S
C4091 C4092 1.374 . S
C4092 H4066 0.950 . S
C4092 C4088 1.385 . S
C4092 C4091 1.374 . S
C4093 C4090 1.499 . S
C4093 C4094 1.373 . S
C4093 C4095 1.389 . S
C4094 H4067 0.950 . S
C4094 C4080 1.377 . S
C4094 C4093 1.373 . S
C4095 C4079 1.377 . S
C4095 C4093 1.389 . S
C4095 C4096 1.524 . S
C4096 C4095 1.524 . S
C4096 C4097 1.397 . S
C4096 C4101 1.363 . S
C4097 H4068 0.950 . S
C4097 C4096 1.397 . S
C4097 C4098 1.334 . S
C4098 H4069 0.950 . S
C4098 C4097 1.334 . S
C4098 C4099 1.287 . S
C4099 C4098 1.287 . S
C4099 C4100 1.524 . S
C4099 H4102 0.999 . S
C4100 H4070 0.950 . S
C4100 C4099 1.524 . S
C4100 C4101 1.415 . S
C4101 H4071 0.950 . S
C4101 C4096 1.363 . S
C4101 C4100 1.415 . S
H4102 C4099 0.999 . S
H4103 C4084 0.913 . S
C523 C50 1.005 . S
C538 C8 1.005 . S
C573 C64 1.004 . S
C588 C22 1.004 . S
C623 C78 1.004 . S
C638 C36 1.004 . S
C673 C92 1.005 . S
C688 C134 1.005 . S
C723 C106 1.004 . S
C738 C148 1.004 . S
C773 C162 1.004 . S
C788 C120 1.004 . S
C823 C176 0.992 . S
C838 C218 0.992 . S
C873 C190 0.992 . S
C888 C232 0.991 . S
C923 C204 0.992 . S
C938 C246 0.992 . S
C973 C260 0.989 . S
C988 C302 0.988 . S
C1023 C316 0.988 . S
C1038 C274 0.988 . S
C1073 C288 0.989 . S
C1088 C330 0.987 . S
C1123 C344 0.989 . S
C1138 C386 0.988 . S
C1173 C358 0.989 . S
C1188 C400 0.988 . S
C1223 C414 0.988 . S
C1238 C372 0.987 . S
C1273 C470 0.992 . S
C1288 C428 0.992 . S
C1323 C484 0.992 . S
C1338 C442 0.992 . S
C1373 C498 0.992 . S
C1388 C456 0.992 . S
C1423 C161 1.481 . S
C1438 C9 1.517 . S
C1473 C23 1.516 . S
C1488 C133 1.481 . S
C1523 C37 1.516 . S
C1538 C147 1.481 . S
C1573 C105 1.494 . S
C1588 C51 1.529 . S
C1623 C65 1.529 . S
C1638 C119 1.495 . S
C1673 C91 1.495 . S
C1688 C79 1.529 . S
C1723 C93 1.516 . S
C1738 C77 1.482 . S
C1773 C107 1.516 . S
C1788 C49 1.482 . S
C1823 C63 1.481 . S
C1838 C121 1.516 . S
C1873 C21 1.494 . S
C1888 C135 1.530 . S
C1923 C35 1.495 . S
C1938 C149 1.529 . S
C1973 C163 1.529 . S
C1988 C7 1.494 . S
C2023 C177 1.483 . S
C2038 C329 1.443 . S
C2073 C301 1.446 . S
C2088 C191 1.480 . S
C2123 C315 1.445 . S
C2138 C205 1.480 . S
C2173 C219 1.519 . S
C2188 C273 1.479 . S
C2223 C287 1.479 . S
C2238 C233 1.519 . S
C2273 C247 1.519 . S
C2288 C259 1.479 . S
C2323 C261 1.514 . S
C2338 C245 1.475 . S
C2373 C275 1.513 . S
C2388 C217 1.474 . S
C2423 C231 1.475 . S
C2438 C289 1.514 . S
C2473 C189 1.511 . S
C2488 C303 1.551 . S
C2523 C203 1.510 . S
C2538 C317 1.552 . S
C2573 C331 1.549 . S
C2588 C175 1.514 . S
C2623 C497 1.474 . S
C2638 C345 1.514 . S
C2673 C359 1.513 . S
C2688 C469 1.474 . S
C2723 C373 1.514 . S
C2738 C483 1.474 . S
C2773 C387 1.549 . S
C2788 C441 1.513 . S
C2823 C455 1.511 . S
C2838 C401 1.551 . S
C2873 C415 1.549 . S
C2888 C427 1.514 . S
C2923 C413 1.447 . S
C2938 C429 1.480 . S
C2973 C385 1.446 . S
C2988 C443 1.481 . S
C3023 C399 1.446 . S
C3038 C457 1.480 . S
C3073 C357 1.480 . S
C3088 C471 1.519 . S
C3123 C371 1.479 . S
C3138 C485 1.519 . S
C3173 C343 1.478 . S
C3188 C499 1.519 . S
C3223 C409 1.299 . S
C3238 C3 1.300 . S
C3273 C17 1.299 . S
C3288 C381 1.300 . S
C3323 C395 1.299 . S
C3338 C31 1.300 . S
C3373 C45 1.301 . S
C3388 C185 1.300 . S
C3423 C199 1.300 . S
C3438 C59 1.301 . S
C3473 C73 1.301 . S
C3488 C171 1.300 . S
C3523 C87 1.299 . S
C3538 C325 1.300 . S
C3573 C297 1.299 . S
C3588 C101 1.300 . S
C3623 C115 1.299 . S
C3638 C311 1.299 . S
C3673 C129 1.301 . S
C3688 C437 1.301 . S
C3723 C143 1.300 . S
C3738 C451 1.301 . S
C3773 C423 1.301 . S
C3788 C157 1.301 . S
C3823 C353 1.301 . S
C3838 C213 1.301 . S
C3873 C367 1.302 . S
C3888 C227 1.301 . S
C3923 C339 1.302 . S
C3938 C241 1.301 . S
C3973 C255 1.301 . S
C3988 C493 1.302 . S
C4023 C465 1.301 . S
C4038 C269 1.301 . S
C4073 C283 1.301 . S
C4088 C479 1.301 . S
