# Generated by pormake.
# Topology unf, (4)-cn, num edge types: 1
# Building blocks:
#     Node 0, Type 0, BuildingBlock: CEKHIL_clean_sbu_0, # of connection points: 4
#     Node 1, Type 0, BuildingBlock: CEKHIL_clean_sbu_0, # of connection points: 4
#     Node 2, Type 0, BuildingBlock: CEKHIL_clean_sbu_0, # of connection points: 4
#     Node 3, Type 0, BuildingBlock: CEKHIL_clean_sbu_0, # of connection points: 4
#     Node 4, Type 0, BuildingBlock: CEKHIL_clean_sbu_0, # of connection points: 4
#     Node 5, Type 0, BuildingBlock: CEKHIL_clean_sbu_0, # of connection points: 4
#     Node 6, Type 0, BuildingBlock: CEKHIL_clean_sbu_0, # of connection points: 4
#     Node 7, Type 0, BuildingBlock: CEKHIL_clean_sbu_0, # of connection points: 4
#     Node 8, Type 0, BuildingBlock: CEKHIL_clean_sbu_0, # of connection points: 4
#     Node 9, Type 0, BuildingBlock: CEKHIL_clean_sbu_0, # of connection points: 4
#     Node 10, Type 0, BuildingBlock: CEKHIL_clean_sbu_0, # of connection points: 4
#     Node 11, Type 0, BuildingBlock: CEKHIL_clean_sbu_0, # of connection points: 4
#     Edge 12, Type (0, 0), BuildingBlock: CIFDUS_clean_linker_0, # of connection points: 2
#     Edge 13, Type (0, 0), BuildingBlock: CIFDUS_clean_linker_0, # of connection points: 2
#     Edge 14, Type (0, 0), BuildingBlock: CIFDUS_clean_linker_0, # of connection points: 2
#     Edge 15, Type (0, 0), BuildingBlock: CIFDUS_clean_linker_0, # of connection points: 2
#     Edge 16, Type (0, 0), BuildingBlock: CIFDUS_clean_linker_0, # of connection points: 2
#     Edge 17, Type (0, 0), BuildingBlock: CIFDUS_clean_linker_0, # of connection points: 2
#     Edge 18, Type (0, 0), BuildingBlock: CIFDUS_clean_linker_0, # of connection points: 2
#     Edge 19, Type (0, 0), BuildingBlock: CIFDUS_clean_linker_0, # of connection points: 2
#     Edge 20, Type (0, 0), BuildingBlock: CIFDUS_clean_linker_0, # of connection points: 2
#     Edge 21, Type (0, 0), BuildingBlock: CIFDUS_clean_linker_0, # of connection points: 2
#     Edge 22, Type (0, 0), BuildingBlock: CIFDUS_clean_linker_0, # of connection points: 2
#     Edge 23, Type (0, 0), BuildingBlock: CIFDUS_clean_linker_0, # of connection points: 2
#     Edge 24, Type (0, 0), BuildingBlock: CIFDUS_clean_linker_0, # of connection points: 2
#     Edge 25, Type (0, 0), BuildingBlock: CIFDUS_clean_linker_0, # of connection points: 2
#     Edge 26, Type (0, 0), BuildingBlock: CIFDUS_clean_linker_0, # of connection points: 2
#     Edge 27, Type (0, 0), BuildingBlock: CIFDUS_clean_linker_0, # of connection points: 2
#     Edge 28, Type (0, 0), BuildingBlock: CIFDUS_clean_linker_0, # of connection points: 2
#     Edge 29, Type (0, 0), BuildingBlock: CIFDUS_clean_linker_0, # of connection points: 2
#     Edge 30, Type (0, 0), BuildingBlock: CIFDUS_clean_linker_0, # of connection points: 2
#     Edge 31, Type (0, 0), BuildingBlock: CIFDUS_clean_linker_0, # of connection points: 2
#     Edge 32, Type (0, 0), BuildingBlock: CIFDUS_clean_linker_0, # of connection points: 2
#     Edge 33, Type (0, 0), BuildingBlock: CIFDUS_clean_linker_0, # of connection points: 2
#     Edge 34, Type (0, 0), BuildingBlock: CIFDUS_clean_linker_0, # of connection points: 2
#     Edge 35, Type (0, 0), BuildingBlock: CIFDUS_clean_linker_0, # of connection points: 2
# Relax obj value: 0.233
# Max RMSD: 0.182
# Mean RMSD: 0.177
data_MOF--net-unf--node1-CEKHIL_clean_sbu_0--edge1-CIFDUS_clean_linker_0
_symmetry_space_group_name_H-M    P1
_symmetry_Int_Tables_number       1
_symmetry_cell_setting            triclinic
loop_
_symmetry_equiv_pos_as_xyz
'x, y, z'
_cell_length_a     33.623485
_cell_length_b     33.161631
_cell_length_c     31.405823
_cell_angle_alpha  89.671379
_cell_angle_beta   90.531098
_cell_angle_gamma 120.59856
loop_
_atom_site_label
_atom_site_type_symbol
_atom_site_fract_x
_atom_site_fract_y
_atom_site_fract_z
_atom_type_partial_charge
Co0 Co 0.1014 0.4064 0.09803 0.0
O1 O 0.1477 0.44971 0.13735 0.0
O2 O 0.10115 0.37387 0.14929 0.0
C3 C 0.07035 0.44996 0.07864 0.0
O4 O 0.04858 0.35156 0.06616 0.0
Co5 Co 0.10744 0.43022 1.00184 0.0
O6 O 0.04157 0.37961 1.00284 0.0
C7 C 0.16889 0.39983 0.0372 0.0
C8 C 0.13506 0.41397 0.16244 0.0
C9 C 0.02606 0.34826 0.03171 0.0
O10 O 0.14797 0.39259 0.07291 0.0
O11 O 0.1596 0.41702 0.00462 0.0
O12 O 0.05878 0.42696 0.11443 0.0
O13 O 0.10451 0.45089 0.059 0.0
Co14 Co 0.60236 0.69978 0.09489 0.0
O15 O 0.56473 0.71153 0.1333 0.0
O16 O 0.63907 0.73675 0.14277 0.0
C17 C 0.55364 0.62252 0.08329 0.0
O18 O 0.65168 0.69346 0.06358 0.0
Co19 Co 0.57021 0.66969 1.00109 0.0
O20 O 0.61996 0.65393 1.00269 0.0
C21 C 0.60996 0.76825 0.02531 0.0
C22 C 0.60182 0.73506 0.15636 0.0
C23 C 0.65247 0.67139 0.0303 0.0
O24 O 0.62014 0.75918 0.06235 0.0
O25 O 0.58625 0.73681 0.99748 0.0
O26 O 0.57829 0.63665 0.11806 0.0
O27 O 0.55428 0.65537 0.06048 0.0
Co28 Co 0.30615 0.8906 0.07878 0.0
O29 O 0.29783 0.84172 0.11758 0.0
O30 O 0.27052 0.88923 0.12743 0.0
C31 C 0.38204 0.92224 0.06529 0.0
O32 O 0.31024 0.9465 0.04696 0.0
Co33 Co 0.33213 0.88721 0.9844 0.0
O34 O 0.34068 0.95084 0.98221 0.0
C35 C 0.23681 0.82485 0.01179 0.0
C36 C 0.27423 0.85413 0.141 0.0
C37 C 0.32685 0.96749 0.01119 0.0
O38 O 0.24676 0.84531 0.04825 0.0
O39 O 0.26693 0.83396 0.98303 0.0
O40 O 0.36878 0.93246 0.10035 0.0
O41 O 0.34955 0.88834 0.04353 0.0
Co42 Co 0.57008 0.88502 0.42758 0.0
O43 O 0.53106 0.83127 0.39209 0.0
O44 O 0.59979 0.89029 0.37394 0.0
C45 C 0.51695 0.90182 0.45138 0.0
O46 O 0.61929 0.94674 0.45297 0.0
Co47 Co 0.55706 0.88506 0.52584 0.0
O48 O 0.60274 0.95302 0.52098 0.0
C49 C 0.60469 0.839 0.49048 0.0
C50 C 0.56405 0.84997 0.3642 0.0
C51 C 0.6268 0.97026 0.48751 0.0
O52 O 0.60137 0.8518 0.45253 0.0
O53 O 0.58749 0.8468 0.52335 0.0
O54 O 0.53422 0.91506 0.41346 0.0
O55 O 0.52728 0.87383 0.47055 0.0
Co56 Co 0.09501 0.69052 0.41063 0.0
O57 O 0.14353 0.70654 0.37009 0.0
O58 O 0.08529 0.71897 0.36067 0.0
C59 C 0.07973 0.61808 0.42819 0.0
O60 O 0.03796 0.67699 0.44421 0.0
Co61 Co 0.10913 0.67263 0.50565 0.0
O62 O 0.04164 0.64887 0.50858 0.0
C63 C 0.15714 0.76835 0.47183 0.0
C64 C 0.12343 0.7232 0.34629 0.0
C65 C 0.01975 0.65761 0.48007 0.0
O66 O 0.13218 0.75427 0.43784 0.0
O67 O 0.1568 0.74077 0.50063 0.0
O68 O 0.06238 0.62452 0.39334 0.0
O69 O 0.11017 0.65574 0.44713 0.0
Co70 Co 0.29621 0.39932 0.43515 0.0
O71 O 0.28774 0.4348 0.3906 0.0
O72 O 0.25667 0.35772 0.3911 0.0
C73 C 0.37332 0.4443 0.44457 0.0
O74 O 0.29783 0.35055 0.47352 0.0
Co75 Co 0.32916 0.43989 0.52583 0.0
O76 O 0.34126 0.38736 0.53116 0.0
C77 C 0.23283 0.40609 0.50081 0.0
C78 C 0.26107 0.3947 0.37215 0.0
C79 C 0.32056 0.35163 0.50708 0.0
O80 O 0.24021 0.39188 0.46536 0.0
O81 O 0.26453 0.42848 0.52871 0.0
O82 O 0.35654 0.41508 0.41286 0.0
O83 O 0.34344 0.44983 0.46548 0.0
Co84 Co 0.89913 0.58046 0.91267 0.0
O85 O 0.93715 0.55418 0.89915 0.0
O86 O 0.90355 0.54723 0.9613 0.0
C87 C 0.85579 0.56054 0.85276 0.0
O88 O 0.85643 0.60062 0.9381 0.0
Co89 Co 0.90611 0.66321 0.85967 0.0
O90 O 0.85701 0.65755 0.898 0.0
C91 C 0.9844 0.67576 0.91083 0.0
C92 C 0.93086 0.53935 0.93833 0.0
C93 C 0.84235 0.6293 0.92943 0.0
O94 O 0.95653 0.63935 0.93257 0.0
O95 O 0.97197 0.68818 0.87703 0.0
O96 O 0.84558 0.52959 0.88277 0.0
O97 O 0.89429 0.59946 0.85787 0.0
Co98 Co 0.42316 0.31129 0.93368 0.0
O99 O 0.46578 0.30118 0.90094 0.0
O100 O 0.39343 0.27697 0.88218 0.0
C101 C 0.47003 0.38748 0.95023 0.0
O102 O 0.37009 0.31741 0.95726 0.0
Co103 Co 0.44055 0.33482 0.03024 0.0
O104 O 0.39096 0.34986 0.02242 0.0
C105 C 0.40519 0.23804 1.00279 0.0
C106 C 0.43219 0.27895 0.87377 0.0
C107 C 0.36381 0.33638 0.99027 0.0
O108 O 0.40123 0.24998 0.96461 0.0
O109 O 0.42323 0.26747 0.03332 0.0
O110 O 0.45074 0.37556 0.91272 0.0
O111 O 0.46588 0.35327 0.97346 0.0
Co112 Co 0.68481 0.10359 0.90816 0.0
O113 O 0.62066 0.06677 0.8918 0.0
O114 O 0.64649 0.10212 0.95407 0.0
C115 C 0.71323 0.14596 0.84815 0.0
O116 O 0.74752 0.14534 0.9362 0.0
Co117 Co 0.75821 0.08967 0.8623 0.0
O118 O 0.80266 0.1407 0.90008 0.0
C119 C 0.69297 0.01657 0.91929 0.0
C120 C 0.61146 0.07421 0.93012 0.0
C121 C 0.78994 0.15752 0.9298 0.0
O122 O 0.68021 0.0449 0.93199 0.0
O123 O 0.72179 0.02606 0.88922 0.0
O124 O 0.69274 0.15781 0.87617 0.0
O125 O 0.71044 0.10601 0.85466 0.0
Co126 Co 0.41183 0.0958 0.60734 0.0
O127 O 0.43833 0.05634 0.61423 0.0
O128 O 0.45439 0.10722 0.56178 0.0
C129 C 0.41696 0.12135 0.67484 0.0
O130 O 0.39259 0.14257 0.58956 0.0
Co131 Co 0.31852 0.0687 0.65047 0.0
O132 O 0.3286 0.12792 0.62508 0.0
C133 C 0.31921 0.01308 0.5791 0.0
C134 C 0.45885 0.07359 0.57809 0.0
C135 C 0.36122 0.15219 0.59919 0.0
O136 O 0.36138 0.04453 0.57201 0.0
O137 O 0.29629 0.0141 0.6109 0.0
O138 O 0.45306 0.14076 0.65029 0.0
O139 O 0.38191 0.0836 0.65989 0.0
Co140 Co 0.89689 0.3153 0.58364 0.0
O141 O 0.85175 0.30593 0.62627 0.0
O142 O 0.90728 0.28922 0.63461 0.0
C143 C 0.91623 0.38724 0.56066 0.0
O144 O 0.95081 0.32175 0.54899 0.0
Co145 Co 0.8804 0.32517 0.48754 0.0
O146 O 0.94612 0.34306 0.48182 0.0
C147 C 0.82772 0.23347 0.52899 0.0
C148 C 0.87099 0.28817 0.64998 0.0
C149 C 0.96784 0.33595 0.51162 0.0
O150 O 0.8539 0.24999 0.56204 0.0
O151 O 0.83037 0.25865 0.49691 0.0
O152 O 0.93421 0.38229 0.59583 0.0
O153 O 0.88306 0.34909 0.54446 0.0
Co154 Co 0.6864 0.58497 0.59297 0.0
O155 O 0.6236 0.56507 0.60685 0.0
O156 O 0.64489 0.54093 0.55057 0.0
C157 C 0.71067 0.57943 0.65886 0.0
O158 O 0.74839 0.59748 0.56986 0.0
Co159 Co 0.76502 0.6779 0.63235 0.0
O160 O 0.80386 0.65291 0.61196 0.0
C161 C 0.705 0.6812 0.56571 0.0
C162 C 0.61182 0.54097 0.57185 0.0
C163 C 0.79052 0.62158 0.58325 0.0
O164 O 0.68917 0.63757 0.55821 0.0
O165 O 0.73309 0.70318 0.59634 0.0
O166 O 0.6884 0.54211 0.63534 0.0
O167 O 0.71219 0.61646 0.64379 0.0
H168 H 0.20259 0.38044 0.96598 0.0
H169 H 0.21746 0.39186 0.10288 0.0
H170 H 0.27767 0.37188 0.10021 0.0
H171 H 0.32683 0.35238 0.0596 0.0
H172 H 0.31211 0.33853 0.92297 0.0
H173 H 0.25072 0.35767 0.92504 0.0
C174 C 0.21916 0.37869 0.99515 0.0
C175 C 0.20563 0.38787 0.03452 0.0
C176 C 0.25356 0.36649 0.99353 0.0
C177 C 0.22704 0.38487 0.07213 0.0
C178 C 0.26155 0.37348 0.07069 0.0
C179 C 0.31021 0.35342 0.03019 0.0
C180 C 0.32424 0.34427 0.99118 0.0
C181 C 0.27511 0.36432 0.03163 0.0
C182 C 0.30186 0.34526 0.95348 0.0
C183 C 0.26694 0.35646 0.95462 0.0
H184 H 0.56826 0.8099 0.98562 0.0
H185 H 0.69934 0.83632 0.03511 0.0
H186 H 0.73762 0.91572 0.00557 0.0
H187 H 0.7341 0.9766 0.96273 0.0
H188 H 0.60185 0.95308 0.92 0.0
H189 H 0.56347 0.87371 0.94975 0.0
C190 C 0.60508 0.83339 0.99027 0.0
C191 C 0.6311 0.81759 0.01224 0.0
C192 C 0.62658 0.87926 0.97411 0.0
C193 C 0.6787 0.84813 0.01851 0.0
C194 C 0.70061 0.89332 1.00139 0.0
C195 C 0.69692 0.9539 0.96011 0.0
C196 C 0.6707 0.96981 0.93874 0.0
C197 C 0.67501 0.90906 0.97863 0.0
C198 C 0.6225 0.94095 0.9361 0.0
C199 C 0.60063 0.89574 0.95308 0.0
H200 H 0.19919 0.80414 0.93319 0.0
H201 H 0.16432 0.77318 0.06588 0.0
H202 H 0.08269 0.72221 0.04648 0.0
H203 H 0.02097 0.68843 0.99124 0.0
H204 H 0.05763 0.72553 0.85949 0.0
H205 H 0.13889 0.77206 0.87915 0.0
C206 C 0.17388 0.78587 0.95794 0.0
C207 C 0.18781 0.79208 1.00085 0.0
C208 C 0.12726 0.75797 0.94669 0.0
C209 C 0.15441 0.76886 0.03256 0.0
C210 C 0.10779 0.73979 0.02148 0.0
C211 C 0.04687 0.70667 0.96696 0.0
C212 C 0.03333 0.70374 0.92401 0.0
C213 C 0.09374 0.73439 0.9786 0.0
C214 C 0.06711 0.72769 0.89282 0.0
C215 C 0.11362 0.75415 0.90397 0.0
H216 H 0.73478 0.77414 0.5667 0.0
H217 H 0.63421 0.64415 0.50711 0.0
H218 H 0.59719 0.68329 0.47342 0.0
H219 H 0.58782 0.75262 0.46801 0.0
H220 H 0.68589 0.88029 0.53166 0.0
H221 H 0.72979 0.8442 0.55619 0.0
C222 C 0.70513 0.75439 0.54591 0.0
C223 C 0.68706 0.70617 0.53996 0.0
C224 C 0.6834 0.77677 0.52745 0.0
C225 C 0.64887 0.68133 0.51246 0.0
C226 C 0.62747 0.70363 0.49328 0.0
C227 C 0.61938 0.77254 0.48644 0.0
C228 C 0.63396 0.81879 0.49817 0.0
C229 C 0.64362 0.75103 0.50155 0.0
C230 C 0.67439 0.84452 0.52244 0.0
C231 C 0.6993 0.8239 0.53655 0.0
H232 H 0.24835 0.8202 0.48867 0.0
H233 H 0.12456 0.8277 0.47685 0.0
H234 H 0.16472 0.90668 0.5074 0.0
H235 H 0.2328 0.96943 0.54515 0.0
H236 H 0.35823 0.96422 0.55171 0.0
H237 H 0.32009 0.88868 0.51511 0.0
C238 C 0.23071 0.83978 0.49192 0.0
C239 C 0.1838 0.81863 0.48099 0.0
C240 C 0.25414 0.88515 0.50893 0.0
C241 C 0.16089 0.84384 0.48498 0.0
C242 C 0.18369 0.88869 0.50273 0.0
C243 C 0.25176 0.95192 0.53788 0.0
C244 C 0.29781 0.97162 0.55147 0.0
C245 C 0.22991 0.90906 0.51603 0.0
C246 C 0.32261 0.94937 0.54149 0.0
C247 C 0.30081 0.90618 0.52077 0.0
H248 H 0.03784 0.36095 0.56866 0.0
H249 H 0.00426 0.33423 0.43497 0.0
H250 H 0.08313 0.35338 0.41996 0.0
H251 H 0.16168 0.37842 0.44456 0.0
H252 H 0.19653 0.40856 0.5778 0.0
H253 H 0.1172 0.38766 0.59312 0.0
C254 C 0.04771 0.35892 0.53631 0.0
C255 C 0.01515 0.3458 0.50303 0.0
C256 C 0.09341 0.37092 0.52776 0.0
C257 C 0.02867 0.34419 0.46116 0.0
C258 C 0.07376 0.35515 0.45254 0.0
C259 C 0.15198 0.38038 0.477 0.0
C260 C 0.18508 0.39492 0.50997 0.0
C261 C 0.10644 0.36872 0.48556 0.0
C262 C 0.17189 0.39767 0.55174 0.0
C263 C 0.12645 0.38555 0.56058 0.0
H264 H 0.65625 0.5955 0.00599 0.0
H265 H 0.74145 0.74271 0.03387 0.0
H266 H 0.80953 0.74238 0.00717 0.0
H267 H 0.84273 0.70158 0.96897 0.0
H268 H 0.75885 0.55322 0.94595 0.0
H269 H 0.69215 0.5522 0.97803 0.0
C270 C 0.68997 0.62722 0.00681 0.0
C271 C 0.69412 0.66918 0.02131 0.0
C272 C 0.72889 0.62652 0.99208 0.0
C273 C 0.73776 0.71006 0.02285 0.0
C274 C 0.77651 0.70992 0.00736 0.0
C275 C 0.80998 0.66899 0.97179 0.0
C276 C 0.80521 0.6276 0.95504 0.0
C277 C 0.77222 0.66862 0.99089 0.0
C278 C 0.76302 0.58538 0.95892 0.0
C279 C 0.72494 0.58487 0.97697 0.0
H280 H 0.37411 0.16642 0.94588 0.0
H281 H 0.3969 0.19653 0.08047 0.0
H282 H 0.37018 0.11438 0.09537 0.0
H283 H 0.34436 0.03461 0.06989 0.0
H284 H 0.32512 0.0059 0.93511 0.0
H285 H 0.34574 0.08662 0.92075 0.0
C286 C 0.37304 0.1551 0.97854 0.0
C287 C 0.38781 0.18785 0.01191 0.0
C288 C 0.35806 0.10788 0.98692 0.0
C289 C 0.38612 0.17229 0.05402 0.0
C290 C 0.37069 0.12522 0.06265 0.0
C291 C 0.34387 0.04588 0.0375 0.0
C292 C 0.33315 0.01438 0.00364 0.0
C293 C 0.35703 0.09277 0.02933 0.0
C294 C 0.33337 0.02959 0.96172 0.0
C295 C 0.34528 0.07576 0.95345 0.0
H296 H 0.9462 0.34389 0.01142 0.0
H297 H 0.0071 0.2583 0.03249 0.0
H298 H 0.93689 0.18954 0.00505 0.0
H299 H 0.86189 0.15657 0.96756 0.0
H300 H 0.79911 0.24108 0.95069 0.0
H301 H 0.86617 0.30772 0.98451 0.0
C302 C 0.9435 0.30986 0.01073 0.0
C303 C 0.98143 0.30576 0.02342 0.0
C304 C 0.90303 0.27069 0.99544 0.0
C305 C 0.97798 0.26183 0.0229 0.0
C306 C 0.93808 0.22276 0.00698 0.0
C307 C 0.86274 0.18942 0.97205 0.0
C308 C 0.82623 0.19445 0.95641 0.0
C309 C 0.90097 0.22715 0.99202 0.0
C310 C 0.82702 0.2367 0.96265 0.0
C311 C 0.86537 0.27475 0.98171 0.0
H312 H 0.28943 0.15611 0.56555 0.0
H313 H 0.43607 0.23942 0.58896 0.0
H314 H 0.43665 0.30929 0.56198 0.0
H315 H 0.39423 0.34693 0.53497 0.0
H316 H 0.24882 0.26201 0.50613 0.0
H317 H 0.24872 0.19208 0.53181 0.0
C318 C 0.32148 0.1896 0.56444 0.0
C319 C 0.36256 0.19312 0.5795 0.0
C320 C 0.32162 0.22906 0.5481 0.0
C321 C 0.40412 0.23622 0.57741 0.0
C322 C 0.40438 0.27605 0.56221 0.0
C323 C 0.36267 0.31297 0.53422 0.0
C324 C 0.32145 0.30932 0.51934 0.0
C325 C 0.3632 0.27295 0.54801 0.0
C326 C 0.28085 0.26533 0.51759 0.0
C327 C 0.28078 0.22552 0.53235 0.0
H328 H 0.78313 0.18026 0.45995 0.0
H329 H 0.79254 0.17383 0.5968 0.0
H330 H 0.73096 0.09171 0.59606 0.0
H331 H 0.6733 0.02231 0.55666 0.0
H332 H 0.66586 0.02838 0.41965 0.0
H333 H 0.72788 0.11022 0.42042 0.0
C334 C 0.77175 0.16091 0.48963 0.0
C335 C 0.7922 0.18318 0.52835 0.0
C336 C 0.73663 0.11372 0.48898 0.0
C337 C 0.77745 0.15746 0.5665 0.0
C338 C 0.74212 0.11056 0.56615 0.0
C339 C 0.68522 0.0416 0.527 0.0
C340 C 0.6649 0.01944 0.4882 0.0
C341 C 0.72126 0.08846 0.5276 0.0
C342 C 0.68106 0.04464 0.44995 0.0
C343 C 0.71643 0.09145 0.45034 0.0
H344 H 0.96981 0.61526 0.55097 0.0
H345 H 0.96188 0.67438 0.43051 0.0
H346 H 0.88598 0.66169 0.44932 0.0
H347 H 0.82541 0.64131 0.50341 0.0
H348 H 0.837 0.58739 0.62507 0.0
H349 H 0.9075 0.58978 0.6022 0.0
C350 C 0.95149 0.62515 0.52858 0.0
C351 C 0.97203 0.64644 0.48963 0.0
C352 C 0.90827 0.61845 0.53983 0.0
C353 C 0.94726 0.65839 0.46093 0.0
C354 C 0.90376 0.65111 0.47164 0.0
C355 C 0.84283 0.62886 0.52423 0.0
C356 C 0.82608 0.61354 0.56551 0.0
C357 C 0.88436 0.63211 0.5114 0.0
C358 C 0.84925 0.59865 0.59292 0.0
C359 C 0.88966 0.60041 0.58 0.0
H360 H 0.2638 0.46547 0.32518 0.0
H361 H 0.19848 0.31486 0.33099 0.0
H362 H 0.15239 0.30747 0.26789 0.0
H363 H 0.13068 0.3436 0.21075 0.0
H364 H 0.19727 0.49418 0.20356 0.0
H365 H 0.24244 0.5017 0.26757 0.0
C366 C 0.2396 0.43104 0.31256 0.0
C367 C 0.23472 0.39081 0.33278 0.0
C368 C 0.21316 0.42699 0.27612 0.0
C369 C 0.20312 0.34646 0.31601 0.0
C370 C 0.17658 0.34215 0.27996 0.0
C371 C 0.1548 0.37805 0.22339 0.0
C372 C 0.16038 0.41824 0.20256 0.0
C373 C 0.18122 0.38215 0.2598 0.0
C374 C 0.19221 0.46265 0.21905 0.0
C375 C 0.21815 0.467 0.25561 0.0
H376 H 0.52774 0.72354 0.20148 0.0
H377 H 0.67673 0.80375 0.19853 0.0
H378 H 0.67793 0.84774 0.26112 0.0
H379 H 0.63687 0.86333 0.317 0.0
H380 H 0.48827 0.78014 0.32316 0.0
H381 H 0.48662 0.73763 0.25898 0.0
C382 C 0.56045 0.75063 0.21458 0.0
C383 C 0.6021 0.76038 0.19527 0.0
C384 C 0.56093 0.77539 0.25107 0.0
C385 C 0.6442 0.79537 0.21283 0.0
C386 C 0.64491 0.82069 0.24856 0.0
C387 C 0.60409 0.83612 0.30411 0.0
C388 C 0.56271 0.82519 0.32458 0.0
C389 C 0.60353 0.81105 0.26792 0.0
C390 C 0.52058 0.78929 0.30793 0.0
C391 C 0.51964 0.76495 0.27126 0.0
H392 H 0.20063 0.84976 0.18133 0.0
H393 H 0.29587 0.79898 0.18823 0.0
H394 H 0.25723 0.7535 0.25176 0.0
H395 H 0.19654 0.72811 0.30542 0.0
H396 H 0.09897 0.7759 0.29744 0.0
H397 H 0.13794 0.82209 0.23411 0.0
C398 C 0.21304 0.82895 0.19695 0.0
C399 C 0.2513 0.82804 0.1803 0.0
C400 C 0.18999 0.80203 0.23307 0.0
C401 C 0.26656 0.80035 0.20046 0.0
C402 C 0.24444 0.77427 0.23677 0.0
C403 C 0.18364 0.74846 0.28975 0.0
C404 C 0.14492 0.74858 0.30622 0.0
C405 C 0.20608 0.77475 0.25329 0.0
C406 C 0.12859 0.77502 0.28536 0.0
C407 C 0.151 0.80164 0.24924 0.0
H408 H 0.85169 0.6289 0.81001 0.0
H409 H 0.78701 0.47869 0.81734 0.0
H410 H 0.7357 0.47049 0.75753 0.0
H411 H 0.71073 0.50716 0.70203 0.0
H412 H 0.77324 0.6577 0.70093 0.0
H413 H 0.82376 0.66458 0.75956 0.0
C414 C 0.82644 0.5943 0.79868 0.0
C415 C 0.8235 0.5545 0.81774 0.0
C416 C 0.79663 0.58997 0.76532 0.0
C417 C 0.78998 0.50989 0.80301 0.0
C418 C 0.76073 0.50524 0.76884 0.0
C419 C 0.73528 0.54136 0.71483 0.0
C420 C 0.73854 0.58188 0.69661 0.0
C421 C 0.7639 0.54516 0.74956 0.0
C422 C 0.77016 0.62593 0.71388 0.0
C423 C 0.79919 0.62999 0.74752 0.0
H424 H 0.36456 0.20353 0.83173 0.0
H425 H 0.51151 0.30047 0.83213 0.0
H426 H 0.52022 0.26052 0.77068 0.0
H427 H 0.48572 0.1978 0.71642 0.0
H428 H 0.33931 0.09791 0.71996 0.0
H429 H 0.33084 0.13888 0.78012 0.0
C430 C 0.39844 0.21605 0.81818 0.0
C431 C 0.43726 0.25521 0.83613 0.0
C432 C 0.40333 0.19215 0.78359 0.0
C433 C 0.48107 0.27048 0.81877 0.0
C434 C 0.48606 0.24762 0.78365 0.0
C435 C 0.45203 0.18492 0.7305 0.0
C436 C 0.41319 0.14496 0.71336 0.0
C437 C 0.44742 0.20833 0.76578 0.0
C438 C 0.36983 0.12859 0.73225 0.0
C439 C 0.36487 0.15209 0.76671 0.0
H440 H 0.785 0.14948 0.80564 0.0
H441 H 0.70097 0.21326 0.81109 0.0
H442 H 0.74328 0.26434 0.75121 0.0
H443 H 0.80282 0.2892 0.69571 0.0
H444 H 0.88962 0.22826 0.69328 0.0
H445 H 0.84814 0.17838 0.75374 0.0
C446 C 0.77596 0.17454 0.79366 0.0
C447 C 0.73956 0.17722 0.81238 0.0
C448 C 0.80118 0.20456 0.75989 0.0
C449 C 0.72876 0.21043 0.79706 0.0
C450 C 0.75295 0.23965 0.76284 0.0
C451 C 0.81295 0.26536 0.70872 0.0
C452 C 0.84922 0.26245 0.68986 0.0
C453 C 0.78909 0.23688 0.74382 0.0
C454 C 0.86202 0.23146 0.70723 0.0
C455 C 0.8381 0.20264 0.7417 0.0
H456 H 0.07306 0.47884 0.99678 0.0
H457 H 0.00132 0.45728 0.11552 0.0
H458 H 0.9503 0.48078 0.08215 0.0
H459 H 0.92645 0.50808 0.01941 0.0
H460 H 0.9968 0.52751 0.90013 0.0
H461 H 0.04726 0.50322 0.93333 0.0
C462 C 0.04635 0.47937 0.01539 0.0
C463 C 0.04117 0.46653 0.05864 0.0
C464 C 0.0165 0.49201 0.99577 0.0
C465 C 0.00617 0.46716 0.08221 0.0
C466 C 0.97684 0.48042 0.06311 0.0
C467 C 0.95251 0.50657 1.00054 0.0
C468 C 0.95779 0.51961 0.95733 0.0
C469 C 0.98162 0.49282 0.0199 0.0
C470 C 0.99183 0.5175 0.93341 0.0
C471 C 0.02092 0.50388 0.95244 0.0
H472 H 0.51574 0.58962 0.00507 0.0
H473 H 0.55386 0.54858 0.12203 0.0
H474 H 0.53268 0.47278 0.09078 0.0
H475 H 0.50503 0.41888 0.02963 0.0
H476 H 0.46921 0.46124 0.91211 0.0
H477 H 0.48895 0.53629 0.94389 0.0
C478 C 0.5193 0.5641 0.02385 0.0
C479 C 0.53645 0.57489 0.06587 0.0
C480 C 0.50814 0.52107 0.00534 0.0
C481 C 0.54066 0.54121 0.08967 0.0
C482 C 0.52881 0.49795 0.07173 0.0
C483 C 0.50178 0.44462 0.01088 0.0
C484 C 0.48574 0.43442 0.96849 0.0
C485 C 0.51296 0.48768 0.02944 0.0
C486 C 0.48169 0.4682 0.9447 0.0
C487 C 0.49271 0.51106 0.96294 0.0
H488 H 0.41023 0.92175 0.98461 0.0
H489 H 0.45717 0.99497 0.10431 0.0
H490 H 0.53151 0.05063 0.07235 0.0
H491 H 0.58331 0.0779 0.01038 0.0
H492 H 0.53429 0.00588 0.89023 0.0
H493 H 0.45998 0.95124 0.92214 0.0
C494 C 0.4366 0.94985 0.0038 0.0
C495 C 0.42814 0.95404 0.04687 0.0
C496 C 0.47864 0.9824 0.98494 0.0
C497 C 0.46286 0.99078 0.07115 0.0
C498 C 0.50527 0.02279 0.05282 0.0
C499 C 0.55615 0.05067 0.99102 0.0
C500 C 0.56442 0.04607 0.94793 0.0
C501 C 0.51349 0.01902 0.00968 0.0
C502 C 0.52886 0.01044 0.92337 0.0
C503 C 0.48643 0.97889 0.94169 0.0
H504 H 0.53444 0.99131 0.44015 0.0
H505 H 0.46178 0.8694 0.52033 0.0
H506 H 0.44059 0.91282 0.5685 0.0
H507 H 0.44334 0.9855 0.58854 0.0
H508 H 0.51499 0.10773 0.50857 0.0
H509 H 0.5369 0.06465 0.46033 0.0
C510 C 0.51325 0.9741 0.46774 0.0
C511 C 0.49914 0.92698 0.47635 0.0
C512 C 0.50198 -0.00032 0.49594 0.0
C513 C 0.47267 0.90548 0.51281 0.0
C514 C 0.46086 0.9304 0.54057 0.0
C515 C 0.46443 0.00301 0.56096 0.0
C516 C 0.47799 0.04998 0.55251 0.0
C517 C 0.47577 0.97765 0.53276 0.0
C518 C 0.50447 0.07174 0.51608 0.0
C519 C 0.51667 0.04698 0.48826 0.0
H520 H 0.00708 0.4548 0.56268 0.0
H521 H 0.87828 0.41398 0.49821 0.0
H522 H 0.91801 0.47954 0.44862 0.0
H523 H 0.98956 0.54874 0.42363 0.0
H524 H 0.11825 0.58952 0.48828 0.0
H525 H 0.07872 0.52314 0.53699 0.0
C526 C 0.98767 0.46076 0.5382 0.0
C527 C 0.93977 0.43012 0.53445 0.0
C528 C 0.01091 0.49786 0.50918 0.0
C529 C 0.91517 0.43749 0.50192 0.0
C530 C 0.9379 0.47472 0.47337 0.0
C531 C 0.00903 0.54242 0.44778 0.0
C532 C 0.05681 0.57351 0.45204 0.0
C533 C 0.98584 0.5049 0.47643 0.0
C534 C 0.08147 0.56567 0.48417 0.0
C535 C 0.05884 0.52802 0.51228 0.0
H536 H 0.40877 0.48545 0.52092 0.0
H537 H 0.44416 0.44075 0.40591 0.0
H538 H 0.52063 0.46451 0.43557 0.0
H539 H 0.57766 0.49845 0.49462 0.0
H540 H 0.5389 0.53868 0.61055 0.0
H541 H 0.46322 0.51496 0.5805 0.0
C542 C 0.43309 0.48083 0.50224 0.0
C543 C 0.42071 0.46144 0.4612 0.0
C544 C 0.4763 0.49319 0.51995 0.0
C545 C 0.45284 0.45575 0.43756 0.0
C546 C 0.4965 0.46911 0.4546 0.0
C547 C 0.55241 0.50141 0.51347 0.0
C548 C 0.56412 0.5204 0.55481 0.0
C549 C 0.50858 0.48769 0.49591 0.0
C550 C 0.53098 0.52418 0.5787 0.0
C551 C 0.48766 0.51087 0.56146 0.0
loop_
_geom_bond_atom_site_label_1
_geom_bond_atom_site_label_2
_geom_bond_distance
_geom_bond_site_symmetry_2
_ccdc_geom_bond_type
Co0 O1 2.216 . S
Co0 O2 2.091 . S
Co0 O4 2.004 . S
Co0 O10 2.021 . S
Co0 O12 2.137 . S
Co0 O13 2.244 . S
O1 Co0 2.216 . S
O1 C8 1.247 . S
O2 Co0 2.091 . S
O2 C8 1.261 . S
C3 O12 1.247 . S
C3 O13 1.272 . S
O4 Co0 2.004 . S
O4 C9 1.259 . S
Co5 O6 2.061 . S
Co5 O11 2.052 . S
Co5 O13 2.135 1_556 S
O6 Co5 2.061 . S
O6 C9 1.235 1_556 S
C7 O10 1.238 . S
C7 O11 1.241 1_554 S
C8 O1 1.247 . S
C8 O2 1.261 . S
C9 O4 1.259 . S
C9 O6 1.235 1_554 S
O10 Co0 2.021 . S
O10 C7 1.238 . S
O11 Co5 2.052 . S
O11 C7 1.241 1_556 S
O12 Co0 2.137 . S
O12 C3 1.247 . S
O13 Co0 2.244 . S
O13 C3 1.272 . S
O13 Co5 2.135 1_554 S
Co14 O15 2.216 . S
Co14 O16 2.091 . S
Co14 O18 2.004 . S
Co14 O24 2.021 . S
Co14 O26 2.137 . S
Co14 O27 2.244 . S
O15 Co14 2.216 . S
O15 C22 1.247 . S
O16 Co14 2.091 . S
O16 C22 1.261 . S
C17 O26 1.247 . S
C17 O27 1.272 . S
O18 Co14 2.004 . S
O18 C23 1.259 . S
Co19 O20 2.061 . S
Co19 O25 2.052 . S
Co19 O27 2.135 1_556 S
O20 Co19 2.061 . S
O20 C23 1.235 1_556 S
C21 O24 1.238 . S
C21 O25 1.241 1_554 S
C22 O15 1.247 . S
C22 O16 1.261 . S
C23 O18 1.259 . S
C23 O20 1.235 1_554 S
O24 Co14 2.021 . S
O24 C21 1.238 . S
O25 Co19 2.052 . S
O25 C21 1.241 1_556 S
O26 Co14 2.137 . S
O26 C17 1.247 . S
O27 Co14 2.244 . S
O27 C17 1.272 . S
O27 Co19 2.135 1_554 S
Co28 O29 2.216 . S
Co28 O30 2.091 . S
Co28 O32 2.004 . S
Co28 O38 2.021 . S
Co28 O40 2.137 . S
Co28 O41 2.244 . S
O29 Co28 2.216 . S
O29 C36 1.247 . S
O30 Co28 2.091 . S
O30 C36 1.261 . S
C31 O40 1.247 . S
C31 O41 1.272 . S
O32 Co28 2.004 . S
O32 C37 1.259 1_565 S
Co33 O34 2.061 . S
Co33 O39 2.052 . S
Co33 O41 2.135 1_556 S
O34 Co33 2.061 . S
O34 C37 1.235 1_566 S
C35 O38 1.238 . S
C35 O39 1.241 1_554 S
C36 O29 1.247 . S
C36 O30 1.261 . S
C37 O32 1.259 1_545 S
C37 O34 1.235 1_544 S
O38 Co28 2.021 . S
O38 C35 1.238 . S
O39 Co33 2.052 . S
O39 C35 1.241 1_556 S
O40 Co28 2.137 . S
O40 C31 1.247 . S
O41 Co28 2.244 . S
O41 C31 1.272 . S
O41 Co33 2.135 1_554 S
Co42 O43 2.216 . S
Co42 O44 2.091 . S
Co42 O46 2.004 . S
Co42 O52 2.021 . S
Co42 O54 2.137 . S
Co42 O55 2.244 . S
O43 Co42 2.216 . S
O43 C50 1.247 . S
O44 Co42 2.091 . S
O44 C50 1.261 . S
C45 O54 1.247 . S
C45 O55 1.272 . S
O46 Co42 2.004 . S
O46 C51 1.259 1_565 S
Co47 O48 2.061 . S
Co47 O53 2.052 . S
Co47 O55 2.135 . S
O48 Co47 2.061 . S
O48 C51 1.235 1_565 S
C49 O52 1.238 . S
C49 O53 1.241 . S
C50 O43 1.247 . S
C50 O44 1.261 . S
C51 O46 1.259 1_545 S
C51 O48 1.235 1_545 S
O52 Co42 2.021 . S
O52 C49 1.238 . S
O53 Co47 2.052 . S
O53 C49 1.241 . S
O54 Co42 2.137 . S
O54 C45 1.247 . S
O55 Co42 2.244 . S
O55 C45 1.272 . S
O55 Co47 2.135 . S
Co56 O57 2.216 . S
Co56 O58 2.091 . S
Co56 O60 2.004 . S
Co56 O66 2.021 . S
Co56 O68 2.137 . S
Co56 O69 2.244 . S
O57 Co56 2.216 . S
O57 C64 1.247 . S
O58 Co56 2.091 . S
O58 C64 1.261 . S
C59 O68 1.247 . S
C59 O69 1.272 . S
O60 Co56 2.004 . S
O60 C65 1.259 . S
Co61 O62 2.061 . S
Co61 O67 2.052 . S
Co61 O69 2.135 . S
O62 Co61 2.061 . S
O62 C65 1.235 . S
C63 O66 1.238 . S
C63 O67 1.241 . S
C64 O57 1.247 . S
C64 O58 1.261 . S
C65 O60 1.259 . S
C65 O62 1.235 . S
O66 Co56 2.021 . S
O66 C63 1.238 . S
O67 Co61 2.052 . S
O67 C63 1.241 . S
O68 Co56 2.137 . S
O68 C59 1.247 . S
O69 Co56 2.244 . S
O69 C59 1.272 . S
O69 Co61 2.135 . S
Co70 O71 2.216 . S
Co70 O72 2.091 . S
Co70 O74 2.004 . S
Co70 O80 2.021 . S
Co70 O82 2.137 . S
Co70 O83 2.244 . S
O71 Co70 2.216 . S
O71 C78 1.247 . S
O72 Co70 2.091 . S
O72 C78 1.261 . S
C73 O82 1.247 . S
C73 O83 1.272 . S
O74 Co70 2.004 . S
O74 C79 1.259 . S
Co75 O76 2.061 . S
Co75 O81 2.052 . S
Co75 O83 2.135 . S
O76 Co75 2.061 . S
O76 C79 1.235 . S
C77 O80 1.238 . S
C77 O81 1.241 . S
C78 O71 1.247 . S
C78 O72 1.261 . S
C79 O74 1.259 . S
C79 O76 1.235 . S
O80 Co70 2.021 . S
O80 C77 1.238 . S
O81 Co75 2.052 . S
O81 C77 1.241 . S
O82 Co70 2.137 . S
O82 C73 1.247 . S
O83 Co70 2.244 . S
O83 C73 1.272 . S
O83 Co75 2.135 . S
Co84 O85 2.216 . S
Co84 O86 2.091 . S
Co84 O88 2.004 . S
Co84 O94 2.021 . S
Co84 O96 2.137 . S
Co84 O97 2.244 . S
O85 Co84 2.216 . S
O85 C92 1.247 . S
O86 Co84 2.091 . S
O86 C92 1.261 . S
C87 O96 1.247 . S
C87 O97 1.272 . S
O88 Co84 2.004 . S
O88 C93 1.259 . S
Co89 O90 2.061 . S
Co89 O95 2.052 . S
Co89 O97 2.135 . S
O90 Co89 2.061 . S
O90 C93 1.235 . S
C91 O94 1.238 . S
C91 O95 1.241 . S
C92 O85 1.247 . S
C92 O86 1.261 . S
C93 O88 1.259 . S
C93 O90 1.235 . S
O94 Co84 2.021 . S
O94 C91 1.238 . S
O95 Co89 2.052 . S
O95 C91 1.241 . S
O96 Co84 2.137 . S
O96 C87 1.247 . S
O97 Co84 2.244 . S
O97 C87 1.272 . S
O97 Co89 2.135 . S
Co98 O99 2.216 . S
Co98 O100 2.091 . S
Co98 O102 2.004 . S
Co98 O108 2.021 . S
Co98 O110 2.137 . S
Co98 O111 2.244 . S
O99 Co98 2.216 . S
O99 C106 1.247 . S
O100 Co98 2.091 . S
O100 C106 1.261 . S
C101 O110 1.247 . S
C101 O111 1.272 . S
O102 Co98 2.004 . S
O102 C107 1.259 . S
Co103 O104 2.061 1_554 S
Co103 O109 2.048 1_554 S
Co103 O111 2.135 1_554 S
O104 Co103 2.061 1_556 S
O104 C107 1.235 . S
C105 O108 1.238 . S
C105 O109 1.253 . S
C106 O99 1.247 . S
C106 O100 1.261 . S
C107 O102 1.259 . S
C107 O104 1.235 . S
O108 Co98 2.021 . S
O108 C105 1.238 . S
O109 Co103 2.048 1_556 S
O109 C105 1.253 . S
O110 Co98 2.137 . S
O110 C101 1.247 . S
O111 Co98 2.244 . S
O111 C101 1.272 . S
O111 Co103 2.135 1_556 S
Co112 O113 2.216 . S
Co112 O114 2.091 . S
Co112 O116 2.004 . S
Co112 O122 2.021 . S
Co112 O124 2.137 . S
Co112 O125 2.244 . S
O113 Co112 2.216 . S
O113 C120 1.247 . S
O114 Co112 2.091 . S
O114 C120 1.261 . S
C115 O124 1.247 . S
C115 O125 1.272 . S
O116 Co112 2.004 . S
O116 C121 1.259 . S
Co117 O118 2.061 . S
Co117 O123 2.052 . S
Co117 O125 2.135 . S
O118 Co117 2.061 . S
O118 C121 1.235 . S
C119 O122 1.238 1_565 S
C119 O123 1.241 1_565 S
C120 O113 1.247 . S
C120 O114 1.261 . S
C121 O116 1.259 . S
C121 O118 1.235 . S
O122 Co112 2.021 . S
O122 C119 1.238 1_545 S
O123 Co117 2.052 . S
O123 C119 1.241 1_545 S
O124 Co112 2.137 . S
O124 C115 1.247 . S
O125 Co112 2.244 . S
O125 C115 1.272 . S
O125 Co117 2.135 . S
Co126 O127 2.216 . S
Co126 O128 2.091 . S
Co126 O130 2.004 . S
Co126 O136 2.021 . S
Co126 O138 2.137 . S
Co126 O139 2.244 . S
O127 Co126 2.216 . S
O127 C134 1.247 . S
O128 Co126 2.091 . S
O128 C134 1.261 . S
C129 O138 1.247 . S
C129 O139 1.272 . S
O130 Co126 2.004 . S
O130 C135 1.259 . S
Co131 O132 2.061 . S
Co131 O137 2.052 . S
Co131 O139 2.135 . S
O132 Co131 2.061 . S
O132 C135 1.235 . S
C133 O136 1.238 1_565 S
C133 O137 1.241 1_565 S
C134 O127 1.247 . S
C134 O128 1.261 . S
C135 O130 1.259 . S
C135 O132 1.235 . S
O136 Co126 2.021 . S
O136 C133 1.238 1_545 S
O137 Co131 2.052 . S
O137 C133 1.241 1_545 S
O138 Co126 2.137 . S
O138 C129 1.247 . S
O139 Co126 2.244 . S
O139 C129 1.272 . S
O139 Co131 2.135 . S
Co140 O141 2.216 . S
Co140 O142 2.091 . S
Co140 O144 2.004 . S
Co140 O150 2.021 . S
Co140 O152 2.137 . S
Co140 O153 2.244 . S
O141 Co140 2.216 . S
O141 C148 1.247 . S
O142 Co140 2.091 . S
O142 C148 1.261 . S
C143 O152 1.247 . S
C143 O153 1.272 . S
O144 Co140 2.004 . S
O144 C149 1.259 1_655 S
Co145 O146 2.061 . S
Co145 O151 2.052 . S
Co145 O153 2.135 . S
O146 Co145 2.061 . S
O146 C149 1.235 1_655 S
C147 O150 1.238 . S
C147 O151 1.241 . S
C148 O141 1.247 . S
C148 O142 1.261 . S
C149 O144 1.259 1_455 S
C149 O146 1.235 1_455 S
O150 Co140 2.021 . S
O150 C147 1.238 . S
O151 Co145 2.052 . S
O151 C147 1.241 . S
O152 Co140 2.137 . S
O152 C143 1.247 . S
O153 Co140 2.244 . S
O153 C143 1.272 . S
O153 Co145 2.135 . S
Co154 O155 2.216 . S
Co154 O156 2.091 . S
Co154 O158 2.004 . S
Co154 O164 2.021 . S
Co154 O166 2.137 . S
Co154 O167 2.244 . S
O155 Co154 2.216 . S
O155 C162 1.247 . S
O156 Co154 2.091 . S
O156 C162 1.261 . S
C157 O166 1.247 . S
C157 O167 1.272 . S
O158 Co154 2.004 . S
O158 C163 1.259 . S
Co159 O160 2.061 . S
Co159 O165 2.052 . S
Co159 O167 2.135 . S
O160 Co159 2.061 . S
O160 C163 1.235 . S
C161 O164 1.238 . S
C161 O165 1.241 . S
C162 O155 1.247 . S
C162 O156 1.261 . S
C163 O158 1.259 . S
C163 O160 1.235 . S
O164 Co154 2.021 . S
O164 C161 1.238 . S
O165 Co159 2.052 . S
O165 C161 1.241 . S
O166 Co154 2.137 . S
O166 C157 1.247 . S
O167 Co154 2.244 . S
O167 C157 1.272 . S
O167 Co159 2.135 . S
H168 C174 0.930 . S
H169 C177 0.930 . S
H170 C178 0.930 . S
H171 C179 0.930 1_554 S
H172 C182 0.930 . S
H173 C183 0.930 . S
C174 H168 0.930 . S
C174 C175 1.355 1_556 S
C174 C176 1.415 . S
C175 C174 1.355 1_554 S
C175 C177 1.419 . S
C176 C174 1.415 . S
C176 C181 1.425 1_556 S
C176 C183 1.409 . S
C177 H169 0.930 . S
C177 C175 1.419 . S
C177 C178 1.362 . S
C178 H170 0.930 . S
C178 C177 1.362 . S
C178 C181 1.409 . S
C179 H171 0.930 1_556 S
C179 C180 1.355 . S
C179 C181 1.415 1_556 S
C180 C179 1.355 . S
C180 C182 1.419 . S
C181 C176 1.425 1_554 S
C181 C178 1.409 . S
C181 C179 1.415 1_554 S
C182 H172 0.930 . S
C182 C180 1.419 . S
C182 C183 1.362 . S
C183 H173 0.930 . S
C183 C176 1.409 . S
C183 C182 1.362 . S
H184 C190 0.930 . S
H185 C193 0.930 . S
H186 C194 0.930 . S
H187 C195 0.930 . S
H188 C198 0.930 . S
H189 C199 0.930 . S
C190 H184 0.930 . S
C190 C191 1.355 . S
C190 C192 1.415 1_554 S
C191 C190 1.355 . S
C191 C193 1.419 . S
C192 C190 1.415 1_556 S
C192 C197 1.425 . S
C192 C199 1.409 . S
C193 H185 0.930 . S
C193 C191 1.419 . S
C193 C194 1.362 1_554 S
C194 H186 0.930 . S
C194 C193 1.362 1_556 S
C194 C197 1.409 . S
C195 H187 0.930 . S
C195 C196 1.355 . S
C195 C197 1.415 . S
C196 C195 1.355 . S
C196 C198 1.419 . S
C197 C192 1.425 . S
C197 C194 1.409 . S
C197 C195 1.415 . S
C198 H188 0.930 . S
C198 C196 1.419 . S
C198 C199 1.362 . S
C199 H189 0.930 . S
C199 C192 1.409 . S
C199 C198 1.362 . S
H200 C206 0.930 . S
H201 C209 0.930 . S
H202 C210 0.930 . S
H203 C211 0.930 . S
H204 C214 0.930 . S
H205 C215 0.930 . S
C206 H200 0.930 . S
C206 C207 1.355 . S
C206 C208 1.415 1_554 S
C207 C206 1.355 . S
C207 C209 1.419 . S
C208 C206 1.415 1_556 S
C208 C213 1.425 . S
C208 C215 1.409 . S
C209 H201 0.930 . S
C209 C207 1.419 . S
C209 C210 1.362 . S
C210 H202 0.930 . S
C210 C209 1.362 . S
C210 C213 1.409 1_554 S
C211 H203 0.930 . S
C211 C212 1.355 . S
C211 C213 1.415 . S
C212 C211 1.355 . S
C212 C214 1.419 . S
C213 C208 1.425 . S
C213 C210 1.409 1_556 S
C213 C211 1.415 . S
C214 H204 0.930 . S
C214 C212 1.419 . S
C214 C215 1.362 . S
C215 H205 0.930 . S
C215 C208 1.409 . S
C215 C214 1.362 . S
H216 C222 0.930 . S
H217 C225 0.930 . S
H218 C226 0.930 . S
H219 C227 0.930 . S
H220 C230 0.930 . S
H221 C231 0.930 . S
C222 H216 0.930 . S
C222 C223 1.355 . S
C222 C224 1.415 . S
C223 C222 1.355 . S
C223 C225 1.419 . S
C224 C222 1.415 . S
C224 C229 1.425 . S
C224 C231 1.409 . S
C225 H217 0.930 . S
C225 C223 1.419 . S
C225 C226 1.362 . S
C226 H218 0.930 . S
C226 C225 1.362 . S
C226 C229 1.409 . S
C227 H219 0.930 . S
C227 C228 1.355 . S
C227 C229 1.415 . S
C228 C227 1.355 . S
C228 C230 1.419 . S
C229 C224 1.425 . S
C229 C226 1.409 . S
C229 C227 1.415 . S
C230 H220 0.930 . S
C230 C228 1.419 . S
C230 C231 1.362 . S
C231 H221 0.930 . S
C231 C224 1.409 . S
C231 C230 1.362 . S
H232 C238 0.930 . S
H233 C241 0.930 . S
H234 C242 0.930 . S
H235 C243 0.930 . S
H236 C246 0.930 . S
H237 C247 0.930 . S
C238 H232 0.930 . S
C238 C239 1.355 . S
C238 C240 1.415 . S
C239 C238 1.355 . S
C239 C241 1.419 . S
C240 C238 1.415 . S
C240 C245 1.425 . S
C240 C247 1.409 . S
C241 H233 0.930 . S
C241 C239 1.419 . S
C241 C242 1.362 . S
C242 H234 0.930 . S
C242 C241 1.362 . S
C242 C245 1.409 . S
C243 H235 0.930 . S
C243 C244 1.355 . S
C243 C245 1.415 . S
C244 C243 1.355 . S
C244 C246 1.419 . S
C245 C240 1.425 . S
C245 C242 1.409 . S
C245 C243 1.415 . S
C246 H236 0.930 . S
C246 C244 1.419 . S
C246 C247 1.362 . S
C247 H237 0.930 . S
C247 C240 1.409 . S
C247 C246 1.362 . S
H248 C254 0.930 . S
H249 C257 0.930 . S
H250 C258 0.930 . S
H251 C259 0.930 . S
H252 C262 0.930 . S
H253 C263 0.930 . S
C254 H248 0.930 . S
C254 C255 1.355 . S
C254 C256 1.415 . S
C255 C254 1.355 . S
C255 C257 1.419 . S
C256 C254 1.415 . S
C256 C261 1.425 . S
C256 C263 1.409 . S
C257 H249 0.930 . S
C257 C255 1.419 . S
C257 C258 1.362 . S
C258 H250 0.930 . S
C258 C257 1.362 . S
C258 C261 1.409 . S
C259 H251 0.930 . S
C259 C260 1.355 . S
C259 C261 1.415 . S
C260 C259 1.355 . S
C260 C262 1.419 . S
C261 C256 1.425 . S
C261 C258 1.409 . S
C261 C259 1.415 . S
C262 H252 0.930 . S
C262 C260 1.419 . S
C262 C263 1.362 . S
C263 H253 0.930 . S
C263 C256 1.409 . S
C263 C262 1.362 . S
H264 C270 0.930 . S
H265 C273 0.930 . S
H266 C274 0.930 . S
H267 C275 0.930 . S
H268 C278 0.930 . S
H269 C279 0.930 . S
C270 H264 0.930 . S
C270 C271 1.355 . S
C270 C272 1.415 1_554 S
C271 C270 1.355 . S
C271 C273 1.419 . S
C272 C270 1.415 1_556 S
C272 C277 1.425 . S
C272 C279 1.409 . S
C273 H265 0.930 . S
C273 C271 1.419 . S
C273 C274 1.362 . S
C274 H266 0.930 . S
C274 C273 1.362 . S
C274 C277 1.409 1_554 S
C275 H267 0.930 . S
C275 C276 1.355 . S
C275 C277 1.415 . S
C276 C275 1.355 . S
C276 C278 1.419 . S
C277 C272 1.425 . S
C277 C274 1.409 1_556 S
C277 C275 1.415 . S
C278 H268 0.930 . S
C278 C276 1.419 . S
C278 C279 1.362 . S
C279 H269 0.930 . S
C279 C272 1.409 . S
C279 C278 1.362 . S
H280 C286 0.930 . S
H281 C289 0.930 . S
H282 C290 0.930 . S
H283 C291 0.930 . S
H284 C294 0.930 . S
H285 C295 0.930 . S
C286 H280 0.930 . S
C286 C287 1.355 . S
C286 C288 1.415 . S
C287 C286 1.355 . S
C287 C289 1.419 1_556 S
C288 C286 1.415 . S
C288 C293 1.425 1_556 S
C288 C295 1.409 . S
C289 H281 0.930 . S
C289 C287 1.419 1_554 S
C289 C290 1.362 . S
C290 H282 0.930 . S
C290 C289 1.362 . S
C290 C293 1.409 . S
C291 H283 0.930 . S
C291 C292 1.355 . S
C291 C293 1.415 . S
C292 C291 1.355 . S
C292 C294 1.419 1_554 S
C293 C288 1.425 1_554 S
C293 C290 1.409 . S
C293 C291 1.415 . S
C294 H284 0.930 . S
C294 C292 1.419 1_556 S
C294 C295 1.362 . S
C295 H285 0.930 . S
C295 C288 1.409 . S
C295 C294 1.362 . S
H296 C302 0.930 . S
H297 C305 0.930 1_455 S
H298 C306 0.930 . S
H299 C307 0.930 . S
H300 C310 0.930 . S
H301 C311 0.930 . S
C302 H296 0.930 . S
C302 C303 1.355 . S
C302 C304 1.415 . S
C303 C302 1.355 . S
C303 C305 1.419 . S
C304 C302 1.415 . S
C304 C309 1.425 1_554 S
C304 C311 1.409 . S
C305 H297 0.930 1_655 S
C305 C303 1.419 . S
C305 C306 1.362 1_554 S
C306 H298 0.930 . S
C306 C305 1.362 1_556 S
C306 C309 1.409 . S
C307 H299 0.930 . S
C307 C308 1.355 . S
C307 C309 1.415 . S
C308 C307 1.355 . S
C308 C310 1.419 . S
C309 C304 1.425 1_556 S
C309 C306 1.409 . S
C309 C307 1.415 . S
C310 H300 0.930 . S
C310 C308 1.419 . S
C310 C311 1.362 1_556 S
C311 H301 0.930 . S
C311 C304 1.409 . S
C311 C310 1.362 1_554 S
H312 C318 0.930 . S
H313 C321 0.930 . S
H314 C322 0.930 . S
H315 C323 0.930 . S
H316 C326 0.930 . S
H317 C327 0.930 . S
C318 H312 0.930 . S
C318 C319 1.355 . S
C318 C320 1.415 . S
C319 C318 1.355 . S
C319 C321 1.419 . S
C320 C318 1.415 . S
C320 C325 1.425 . S
C320 C327 1.409 . S
C321 H313 0.930 . S
C321 C319 1.419 . S
C321 C322 1.362 . S
C322 H314 0.930 . S
C322 C321 1.362 . S
C322 C325 1.409 . S
C323 H315 0.930 . S
C323 C324 1.355 . S
C323 C325 1.415 . S
C324 C323 1.355 . S
C324 C326 1.419 . S
C325 C320 1.425 . S
C325 C322 1.409 . S
C325 C323 1.415 . S
C326 H316 0.930 . S
C326 C324 1.419 . S
C326 C327 1.362 . S
C327 H317 0.930 . S
C327 C320 1.409 . S
C327 C326 1.362 . S
H328 C334 0.930 . S
H329 C337 0.930 . S
H330 C338 0.930 . S
H331 C339 0.930 . S
H332 C342 0.930 . S
H333 C343 0.930 . S
C334 H328 0.930 . S
C334 C335 1.355 . S
C334 C336 1.415 . S
C335 C334 1.355 . S
C335 C337 1.419 . S
C336 C334 1.415 . S
C336 C341 1.425 . S
C336 C343 1.409 . S
C337 H329 0.930 . S
C337 C335 1.419 . S
C337 C338 1.362 . S
C338 H330 0.930 . S
C338 C337 1.362 . S
C338 C341 1.409 . S
C339 H331 0.930 . S
C339 C340 1.355 . S
C339 C341 1.415 . S
C340 C339 1.355 . S
C340 C342 1.419 . S
C341 C336 1.425 . S
C341 C338 1.409 . S
C341 C339 1.415 . S
C342 H332 0.930 . S
C342 C340 1.419 . S
C342 C343 1.362 . S
C343 H333 0.930 . S
C343 C336 1.409 . S
C343 C342 1.362 . S
H344 C350 0.930 . S
H345 C353 0.930 . S
H346 C354 0.930 . S
H347 C355 0.930 . S
H348 C358 0.930 . S
H349 C359 0.930 . S
C350 H344 0.930 . S
C350 C351 1.355 . S
C350 C352 1.415 . S
C351 C350 1.355 . S
C351 C353 1.419 . S
C352 C350 1.415 . S
C352 C357 1.425 . S
C352 C359 1.409 . S
C353 H345 0.930 . S
C353 C351 1.419 . S
C353 C354 1.362 . S
C354 H346 0.930 . S
C354 C353 1.362 . S
C354 C357 1.409 . S
C355 H347 0.930 . S
C355 C356 1.355 . S
C355 C357 1.415 . S
C356 C355 1.355 . S
C356 C358 1.419 . S
C357 C352 1.425 . S
C357 C354 1.409 . S
C357 C355 1.415 . S
C358 H348 0.930 . S
C358 C356 1.419 . S
C358 C359 1.362 . S
C359 H349 0.930 . S
C359 C352 1.409 . S
C359 C358 1.362 . S
H360 C366 0.930 . S
H361 C369 0.930 . S
H362 C370 0.930 . S
H363 C371 0.930 . S
H364 C374 0.930 . S
H365 C375 0.930 . S
C366 H360 0.930 . S
C366 C367 1.355 . S
C366 C368 1.415 . S
C367 C366 1.355 . S
C367 C369 1.419 . S
C368 C366 1.415 . S
C368 C373 1.425 . S
C368 C375 1.409 . S
C369 H361 0.930 . S
C369 C367 1.419 . S
C369 C370 1.362 . S
C370 H362 0.930 . S
C370 C369 1.362 . S
C370 C373 1.409 . S
C371 H363 0.930 . S
C371 C372 1.355 . S
C371 C373 1.415 . S
C372 C371 1.355 . S
C372 C374 1.419 . S
C373 C368 1.425 . S
C373 C370 1.409 . S
C373 C371 1.415 . S
C374 H364 0.930 . S
C374 C372 1.419 . S
C374 C375 1.362 . S
C375 H365 0.930 . S
C375 C368 1.409 . S
C375 C374 1.362 . S
H376 C382 0.930 . S
H377 C385 0.930 . S
H378 C386 0.930 . S
H379 C387 0.930 . S
H380 C390 0.930 . S
H381 C391 0.930 . S
C382 H376 0.930 . S
C382 C383 1.355 . S
C382 C384 1.415 . S
C383 C382 1.355 . S
C383 C385 1.419 . S
C384 C382 1.415 . S
C384 C389 1.425 . S
C384 C391 1.409 . S
C385 H377 0.930 . S
C385 C383 1.419 . S
C385 C386 1.362 . S
C386 H378 0.930 . S
C386 C385 1.362 . S
C386 C389 1.409 . S
C387 H379 0.930 . S
C387 C388 1.355 . S
C387 C389 1.415 . S
C388 C387 1.355 . S
C388 C390 1.419 . S
C389 C384 1.425 . S
C389 C386 1.409 . S
C389 C387 1.415 . S
C390 H380 0.930 . S
C390 C388 1.419 . S
C390 C391 1.362 . S
C391 H381 0.930 . S
C391 C384 1.409 . S
C391 C390 1.362 . S
H392 C398 0.930 . S
H393 C401 0.930 . S
H394 C402 0.930 . S
H395 C403 0.930 . S
H396 C406 0.930 . S
H397 C407 0.930 . S
C398 H392 0.930 . S
C398 C399 1.355 . S
C398 C400 1.415 . S
C399 C398 1.355 . S
C399 C401 1.419 . S
C400 C398 1.415 . S
C400 C405 1.425 . S
C400 C407 1.409 . S
C401 H393 0.930 . S
C401 C399 1.419 . S
C401 C402 1.362 . S
C402 H394 0.930 . S
C402 C401 1.362 . S
C402 C405 1.409 . S
C403 H395 0.930 . S
C403 C404 1.355 . S
C403 C405 1.415 . S
C404 C403 1.355 . S
C404 C406 1.419 . S
C405 C400 1.425 . S
C405 C402 1.409 . S
C405 C403 1.415 . S
C406 H396 0.930 . S
C406 C404 1.419 . S
C406 C407 1.362 . S
C407 H397 0.930 . S
C407 C400 1.409 . S
C407 C406 1.362 . S
H408 C414 0.930 . S
H409 C417 0.930 . S
H410 C418 0.930 . S
H411 C419 0.930 . S
H412 C422 0.930 . S
H413 C423 0.930 . S
C414 H408 0.930 . S
C414 C415 1.355 . S
C414 C416 1.415 . S
C415 C414 1.355 . S
C415 C417 1.419 . S
C416 C414 1.415 . S
C416 C421 1.425 . S
C416 C423 1.409 . S
C417 H409 0.930 . S
C417 C415 1.419 . S
C417 C418 1.362 . S
C418 H410 0.930 . S
C418 C417 1.362 . S
C418 C421 1.409 . S
C419 H411 0.930 . S
C419 C420 1.355 . S
C419 C421 1.415 . S
C420 C419 1.355 . S
C420 C422 1.419 . S
C421 C416 1.425 . S
C421 C418 1.409 . S
C421 C419 1.415 . S
C422 H412 0.930 . S
C422 C420 1.419 . S
C422 C423 1.362 . S
C423 H413 0.930 . S
C423 C416 1.409 . S
C423 C422 1.362 . S
H424 C430 0.930 . S
H425 C433 0.930 . S
H426 C434 0.930 . S
H427 C435 0.930 . S
H428 C438 0.930 . S
H429 C439 0.930 . S
C430 H424 0.930 . S
C430 C431 1.355 . S
C430 C432 1.415 . S
C431 C430 1.355 . S
C431 C433 1.419 . S
C432 C430 1.415 . S
C432 C437 1.425 . S
C432 C439 1.409 . S
C433 H425 0.930 . S
C433 C431 1.419 . S
C433 C434 1.362 . S
C434 H426 0.930 . S
C434 C433 1.362 . S
C434 C437 1.409 . S
C435 H427 0.930 . S
C435 C436 1.355 . S
C435 C437 1.415 . S
C436 C435 1.355 . S
C436 C438 1.419 . S
C437 C432 1.425 . S
C437 C434 1.409 . S
C437 C435 1.415 . S
C438 H428 0.930 . S
C438 C436 1.419 . S
C438 C439 1.362 . S
C439 H429 0.930 . S
C439 C432 1.409 . S
C439 C438 1.362 . S
H440 C446 0.930 . S
H441 C449 0.930 . S
H442 C450 0.930 . S
H443 C451 0.930 . S
H444 C454 0.930 . S
H445 C455 0.930 . S
C446 H440 0.930 . S
C446 C447 1.355 . S
C446 C448 1.415 . S
C447 C446 1.355 . S
C447 C449 1.419 . S
C448 C446 1.415 . S
C448 C453 1.425 . S
C448 C455 1.409 . S
C449 H441 0.930 . S
C449 C447 1.419 . S
C449 C450 1.362 . S
C450 H442 0.930 . S
C450 C449 1.362 . S
C450 C453 1.409 . S
C451 H443 0.930 . S
C451 C452 1.355 . S
C451 C453 1.415 . S
C452 C451 1.355 . S
C452 C454 1.419 . S
C453 C448 1.425 . S
C453 C450 1.409 . S
C453 C451 1.415 . S
C454 H444 0.930 . S
C454 C452 1.419 . S
C454 C455 1.362 . S
C455 H445 0.930 . S
C455 C448 1.409 . S
C455 C454 1.362 . S
H456 C462 0.930 . S
H457 C465 0.930 1_655 S
H458 C466 0.930 . S
H459 C467 0.930 . S
H460 C470 0.930 . S
H461 C471 0.930 1_554 S
C462 H456 0.930 . S
C462 C463 1.355 . S
C462 C464 1.415 . S
C463 C462 1.355 . S
C463 C465 1.419 . S
C464 C462 1.415 . S
C464 C469 1.425 1_454 S
C464 C471 1.409 1_554 S
C465 H457 0.930 1_455 S
C465 C463 1.419 . S
C465 C466 1.362 1_454 S
C466 H458 0.930 . S
C466 C465 1.362 1_656 S
C466 C469 1.409 . S
C467 H459 0.930 . S
C467 C468 1.355 . S
C467 C469 1.415 . S
C468 C467 1.355 . S
C468 C470 1.419 1_655 S
C469 C464 1.425 1_656 S
C469 C466 1.409 . S
C469 C467 1.415 . S
C470 H460 0.930 . S
C470 C468 1.419 1_455 S
C470 C471 1.362 . S
C471 H461 0.930 1_556 S
C471 C464 1.409 1_556 S
C471 C470 1.362 . S
H472 C478 0.930 . S
H473 C481 0.930 . S
H474 C482 0.930 . S
H475 C483 0.930 . S
H476 C486 0.930 . S
H477 C487 0.930 1_554 S
C478 H472 0.930 . S
C478 C479 1.355 . S
C478 C480 1.415 . S
C479 C478 1.355 . S
C479 C481 1.419 . S
C480 C478 1.415 . S
C480 C485 1.425 1_554 S
C480 C487 1.409 1_554 S
C481 H473 0.930 . S
C481 C479 1.419 . S
C481 C482 1.362 1_554 S
C482 H474 0.930 . S
C482 C481 1.362 1_556 S
C482 C485 1.409 . S
C483 H475 0.930 . S
C483 C484 1.355 . S
C483 C485 1.415 . S
C484 C483 1.355 . S
C484 C486 1.419 . S
C485 C480 1.425 1_556 S
C485 C482 1.409 . S
C485 C483 1.415 . S
C486 H476 0.930 . S
C486 C484 1.419 . S
C486 C487 1.362 . S
C487 H477 0.930 1_556 S
C487 C480 1.409 1_556 S
C487 C486 1.362 . S
H488 C494 0.930 . S
H489 C497 0.930 . S
H490 C498 0.930 . S
H491 C499 0.930 1_554 S
H492 C502 0.930 . S
H493 C503 0.927 . S
C494 H488 0.930 . S
C494 C495 1.355 1_556 S
C494 C496 1.415 . S
C495 C494 1.355 1_554 S
C495 C497 1.419 . S
C496 C494 1.415 . S
C496 C501 1.425 1_566 S
C496 C503 1.412 . S
C497 H489 0.930 . S
C497 C495 1.419 . S
C497 C498 1.362 . S
C498 H490 0.930 . S
C498 C497 1.362 . S
C498 C501 1.409 1_565 S
C499 H491 0.930 1_556 S
C499 C500 1.355 . S
C499 C501 1.415 1_556 S
C500 C499 1.355 . S
C500 C502 1.419 . S
C501 C496 1.425 1_544 S
C501 C498 1.409 1_545 S
C501 C499 1.415 1_554 S
C502 H492 0.930 . S
C502 C500 1.419 . S
C502 C503 1.363 1_545 S
C503 H493 0.927 . S
C503 C496 1.412 . S
C503 C502 1.363 1_565 S
H504 C510 0.930 1_545 S
H505 C513 0.930 . S
H506 C514 0.930 . S
H507 C515 0.930 . S
H508 C518 0.930 . S
H509 C519 0.930 . S
C510 H504 0.930 1_565 S
C510 C511 1.355 . S
C510 C512 1.415 1_565 S
C511 C510 1.355 . S
C511 C513 1.419 . S
C512 C510 1.415 1_545 S
C512 C517 1.425 1_545 S
C512 C519 1.409 . S
C513 H505 0.930 . S
C513 C511 1.419 . S
C513 C514 1.362 . S
C514 H506 0.930 . S
C514 C513 1.362 . S
C514 C517 1.409 . S
C515 H507 0.930 . S
C515 C516 1.355 1_565 S
C515 C517 1.415 . S
C516 C515 1.355 1_545 S
C516 C518 1.419 . S
C517 C512 1.425 1_565 S
C517 C514 1.409 . S
C517 C515 1.415 . S
C518 H508 0.930 . S
C518 C516 1.419 . S
C518 C519 1.362 . S
C519 H509 0.930 . S
C519 C512 1.409 . S
C519 C518 1.362 . S
H520 C526 0.930 1_455 S
H521 C529 0.930 . S
H522 C530 0.930 . S
H523 C531 0.930 1_655 S
H524 C534 0.930 . S
H525 C535 0.930 . S
C526 H520 0.930 1_655 S
C526 C527 1.355 . S
C526 C528 1.415 1_655 S
C527 C526 1.355 . S
C527 C529 1.419 . S
C528 C526 1.415 1_455 S
C528 C533 1.425 1_455 S
C528 C535 1.409 . S
C529 H521 0.930 . S
C529 C527 1.419 . S
C529 C530 1.362 . S
C530 H522 0.930 . S
C530 C529 1.362 . S
C530 C533 1.409 . S
C531 H523 0.930 1_455 S
C531 C532 1.355 . S
C531 C533 1.415 1_455 S
C532 C531 1.355 . S
C532 C534 1.419 . S
C533 C528 1.425 1_655 S
C533 C530 1.409 . S
C533 C531 1.415 1_655 S
C534 H524 0.930 . S
C534 C532 1.419 . S
C534 C535 1.362 . S
C535 H525 0.930 . S
C535 C528 1.409 . S
C535 C534 1.362 . S
H536 C542 0.930 . S
H537 C545 0.930 . S
H538 C546 0.930 . S
H539 C547 0.930 . S
H540 C550 0.930 . S
H541 C551 0.930 . S
C542 H536 0.930 . S
C542 C543 1.355 . S
C542 C544 1.415 . S
C543 C542 1.355 . S
C543 C545 1.419 . S
C544 C542 1.415 . S
C544 C549 1.425 . S
C544 C551 1.409 . S
C545 H537 0.930 . S
C545 C543 1.419 . S
C545 C546 1.362 . S
C546 H538 0.930 . S
C546 C545 1.362 . S
C546 C549 1.409 . S
C547 H539 0.930 . S
C547 C548 1.355 . S
C547 C549 1.415 . S
C548 C547 1.355 . S
C548 C550 1.419 . S
C549 C544 1.425 . S
C549 C546 1.409 . S
C549 C547 1.415 . S
C550 H540 0.930 . S
C550 C548 1.419 . S
C550 C551 1.362 . S
C551 H541 0.930 . S
C551 C544 1.409 . S
C551 C550 1.362 . S
C175 C7 0.912 . S
C180 C107 0.894 . S
C191 C21 0.862 . S
C196 C119 0.908 . S
C207 C35 0.856 . S
C212 C91 0.895 1_455 S
C223 C161 0.889 . S
C228 C49 0.867 . S
C239 C63 0.867 . S
C244 C133 0.906 . S
C255 C149 0.858 . S
C260 C77 0.875 . S
C271 C23 0.907 . S
C276 C93 0.875 . S
C287 C105 0.815 . S
C292 C37 0.801 . S
C303 C9 0.892 1_655 S
C308 C121 0.881 . S
C319 C135 0.907 . S
C324 C79 0.860 . S
C335 C147 0.864 . S
C340 C51 0.855 . S
C351 C65 0.870 1_655 S
C356 C163 0.832 . S
C367 C78 1.561 . S
C372 C8 1.565 . S
C383 C22 1.600 . S
C388 C50 1.618 . S
C399 C36 1.639 . S
C404 C64 1.640 . S
C415 C87 1.596 . S
C420 C157 1.590 . S
C431 C106 1.617 . S
C436 C129 1.586 . S
C447 C115 1.611 . S
C452 C148 1.605 . S
C463 C3 1.619 . S
C468 C92 1.631 . S
C479 C17 1.641 . S
C484 C101 1.641 . S
C495 C31 1.689 . S
C500 C120 1.693 . S
C511 C45 1.688 . S
C516 C134 1.679 . S
C527 C143 1.693 . S
C532 C59 1.693 . S
C543 C73 1.673 . S
C548 C162 1.676 . S
