# Generated by pormake.
# Topology sxa, (6)-cn, num edge types: 1
# Building blocks:
#     Node 0, Type 0, BuildingBlock: VOLQOD_clean_sbu_1, # of connection points: 6
#     Node 1, Type 0, BuildingBlock: VOLQOD_clean_sbu_1, # of connection points: 6
#     Node 2, Type 0, BuildingBlock: VOLQOD_clean_sbu_1, # of connection points: 6
#     Node 3, Type 0, BuildingBlock: VOLQOD_clean_sbu_1, # of connection points: 6
#     Edge 4, Type (0, 0), BuildingBlock: KIFKEQ_clean_linker_1, # of connection points: 2
#     Edge 5, Type (0, 0), BuildingBlock: KIFKEQ_clean_linker_1, # of connection points: 2
#     Edge 6, Type (0, 0), BuildingBlock: KIFKEQ_clean_linker_1, # of connection points: 2
#     Edge 7, Type (0, 0), BuildingBlock: KIFKEQ_clean_linker_1, # of connection points: 2
#     Edge 8, Type (0, 0), BuildingBlock: KIFKEQ_clean_linker_1, # of connection points: 2
#     Edge 9, Type (0, 0), BuildingBlock: KIFKEQ_clean_linker_1, # of connection points: 2
#     Edge 10, Type (0, 0), BuildingBlock: KIFKEQ_clean_linker_1, # of connection points: 2
#     Edge 11, Type (0, 0), BuildingBlock: KIFKEQ_clean_linker_1, # of connection points: 2
#     Edge 12, Type (0, 0), BuildingBlock: KIFKEQ_clean_linker_1, # of connection points: 2
#     Edge 13, Type (0, 0), BuildingBlock: KIFKEQ_clean_linker_1, # of connection points: 2
#     Edge 14, Type (0, 0), BuildingBlock: KIFKEQ_clean_linker_1, # of connection points: 2
#     Edge 15, Type (0, 0), BuildingBlock: KIFKEQ_clean_linker_1, # of connection points: 2
# Relax obj value: 0.229
# Max RMSD: 0.203
# Mean RMSD: 0.203
data_MOF--net-sxa--node1-VOLQOD_clean_sbu_1--edge1-KIFKEQ_clean_linker_1
_symmetry_space_group_name_H-M    P1
_symmetry_Int_Tables_number       1
_symmetry_cell_setting            triclinic
loop_
_symmetry_equiv_pos_as_xyz
'x, y, z'
_cell_length_a     26.178476
_cell_length_b     30.486451
_cell_length_c     17.740474
_cell_angle_alpha  90.229422
_cell_angle_beta   91.008093
_cell_angle_gamma 89.912926
loop_
_atom_site_label
_atom_site_type_symbol
_atom_site_fract_x
_atom_site_fract_y
_atom_site_fract_z
_atom_type_partial_charge
O0 O 0.93158 0.72894 0.37378 0.0
Zn1 Zn 0.00463 0.72029 0.33354 0.0
O2 O 0.01803 0.7648 0.2609 0.0
Zn3 Zn 0.05688 0.74422 0.1776 0.0
Zn4 Zn 0.95553 0.7821 0.21599 0.0
Zn5 Zn 0.05295 0.81428 0.30358 0.0
O6 O 0.13098 0.75953 0.19046 0.0
O7 O 0.12676 0.81075 0.27904 0.0
O8 O 0.01255 0.65961 0.27974 0.0
O9 O 0.05122 0.67962 0.17412 0.0
O10 O 0.02509 0.76825 0.08166 0.0
O11 O 0.94792 0.7496 0.11837 0.0
O12 O 0.96086 0.84546 0.18756 0.0
O13 O 0.05818 0.73306 0.41672 0.0
O14 O 0.02662 0.87143 0.255 0.0
O15 O 0.05687 0.80636 0.41659 0.0
C16 C 0.8935 0.75088 0.3475 0.0
C17 C 0.1526 0.78695 0.23486 0.0
C18 C -0.0216 0.75992 0.06617 0.0
C19 C 0.03271 0.65019 0.21621 0.0
C20 C -0.00934 0.87686 0.20601 0.0
C21 C 0.07191 0.76999 0.44563 0.0
O22 O 0.89706 0.77239 0.28628 0.0
O23 O 0.45496 0.26509 0.39752 0.0
Zn24 Zn 0.51004 0.26419 0.31624 0.0
O25 O 0.49669 0.31569 0.25493 0.0
Zn26 Zn 0.46792 0.29942 0.15846 0.0
Zn27 Zn 0.44918 0.35501 0.30233 0.0
Zn28 Zn 0.55807 0.34665 0.23629 0.0
O29 O 0.49977 0.33092 0.07225 0.0
O30 O 0.57585 0.33916 0.12853 0.0
O31 O 0.50866 0.20809 0.24842 0.0
O32 O 0.48593 0.23783 0.13861 0.0
O33 O 0.39162 0.30311 0.15933 0.0
O34 O 0.37915 0.34355 0.26145 0.0
O35 O 0.46649 0.41899 0.27659 0.0
O36 O 0.58215 0.26913 0.36427 0.0
O37 O 0.54739 0.41112 0.24343 0.0
O38 O 0.61533 0.32593 0.30385 0.0
C39 C 0.43386 0.29712 0.43247 0.0
C40 C 0.54739 0.33893 0.06954 0.0
C41 C 0.36183 0.32155 0.20577 0.0
C42 C 0.5006 0.20505 0.17714 0.0
C43 C 0.50838 0.43523 0.25342 0.0
C44 C 0.61954 0.29499 0.35173 0.0
O45 O 0.44007 0.33689 0.41124 0.0
O46 O 0.08643 0.22755 0.73015 0.0
Zn47 Zn 0.01334 0.21867 0.76944 0.0
O48 O -0.00104 0.26325 0.84252 0.0
Zn49 Zn 0.95825 0.24242 0.9235 0.0
Zn50 Zn 0.06093 0.28067 0.88811 0.0
Zn51 Zn 0.96562 0.313 0.79857 0.0
O52 O 0.88485 0.26058 0.91029 0.0
O53 O 0.89162 0.31099 0.82132 0.0
O54 O 0.00509 0.15784 0.82168 0.0
O55 O 0.96139 0.1776 0.92318 0.0
O56 O -0.01002 0.26158 1.02313 0.0
O57 O 0.06846 0.24758 0.98412 0.0
O58 O 0.05527 0.3438 0.91841 0.0
O59 O 0.96067 0.23148 0.68556 0.0
O60 O -0.00824 0.3702 0.84721 0.0
O61 O 0.96373 0.30469 0.68572 0.0
C62 C 0.12397 0.25008 0.75667 0.0
C63 C 0.86463 0.28839 0.86541 0.0
C64 C 0.03673 0.25258 1.03713 0.0
C65 C -0.01809 0.14821 0.88259 0.0
C66 C 0.02639 0.37546 0.89826 0.0
C67 C 0.9481 0.26851 0.65639 0.0
O68 O 0.11979 0.27175 0.81792 0.0
O69 O 0.5631 0.76247 0.70779 0.0
Zn70 Zn 0.50955 0.76206 0.79113 0.0
O71 O 0.52348 0.81454 0.84975 0.0
Zn72 Zn 0.55908 0.80208 0.94381 0.0
Zn73 Zn 0.56391 0.85552 0.79373 0.0
Zn74 Zn 0.46064 0.84189 0.87366 0.0
O75 O 0.52184 0.82555 1.03389 0.0
O76 O 0.44446 0.82938 0.97994 0.0
O77 O 0.51565 0.70798 0.86198 0.0
O78 O 0.55655 0.73789 0.96033 0.0
O79 O 0.63294 0.82077 0.94223 0.0
O80 O 0.63603 0.85193 0.82955 0.0
O81 O 0.54245 0.91905 0.81781 0.0
O82 O 0.43657 0.76514 0.74472 0.0
O83 O 0.46916 0.90642 0.87463 0.0
O84 O 0.40345 0.82239 0.8047 0.0
C85 C 0.58089 0.79417 0.6688 0.0
C86 C 0.47356 0.82933 1.03818 0.0
C87 C 0.6579 0.83873 0.88966 0.0
C88 C 0.53679 0.70472 0.92746 0.0
C89 C 0.50379 0.93278 0.85427 0.0
C90 C 0.39917 0.79122 0.75691 0.0
O91 O 0.57135 0.83421 0.68598 0.0
H92 H 0.10257 0.40109 0.99568 0.0
H93 H 0.95602 0.44259 0.90535 0.0
H94 H 0.10335 0.46341 0.08165 0.0
H95 H 0.95715 0.50555 0.99171 0.0
H96 H 0.95486 0.58977 0.20913 0.0
H97 H 0.95304 0.52242 0.13208 0.0
H98 H 0.11055 0.5436 0.07385 0.0
H99 H 0.1121 0.61019 0.14995 0.0
C100 C 0.07076 0.42384 0.99332 0.0
C101 C 0.02942 0.4169 0.94283 0.0
C102 C 0.07118 0.45957 1.04296 0.0
C103 C 0.03015 0.48932 1.04405 0.0
C104 C -0.01099 0.48285 0.99304 0.0
C105 C -0.01124 0.44716 0.94272 0.0
C106 C -0.01062 0.57912 0.18163 0.0
C107 C 0.03379 0.60486 0.18614 0.0
C108 C -0.01184 0.54105 0.13655 0.0
C109 C 0.03155 0.52783 0.09626 0.0
C110 C 0.07657 0.55256 0.10433 0.0
C111 C 0.07753 0.59067 0.14819 0.0
H112 H 0.59275 0.48474 0.22947 0.0
H113 H 0.42875 0.48576 0.19912 0.0
H114 H 0.59955 0.54794 0.14786 0.0
H115 H 0.43541 0.55048 0.11838 0.0
H116 H 0.47441 0.63219 0.90616 0.0
H117 H 0.46535 0.56959 0.99166 0.0
H118 H 0.58326 0.62377 0.13761 0.0
H119 H 0.59342 0.68455 0.05221 0.0
C120 C 0.55789 0.4993 0.20714 0.0
C121 C 0.51018 0.48017 0.22134 0.0
C122 C 0.5618 0.53564 0.15995 0.0
C123 C 0.51807 0.55423 0.12561 0.0
C124 C 0.46997 0.53655 0.14274 0.0
C125 C 0.46604 0.49999 0.19032 0.0
C126 C 0.499 0.63015 0.95576 0.0
C127 C 0.53477 0.66341 0.9719 0.0
C128 C 0.49327 0.59467 1.00544 0.0
C129 C 0.52335 0.59166 0.07203 0.0
C130 C 0.55976 0.62451 0.08678 0.0
C131 C 0.56548 0.65962 1.03753 0.0
H132 H 0.42671 0.97107 0.93257 0.0
H133 H 0.58089 0.99449 0.85926 0.0
H134 H 0.43203 1.03483 1.01481 0.0
H135 H 0.58564 0.0592 0.9415 0.0
H136 H 0.54176 0.19792 1.03937 0.0
H137 H 0.54485 0.13362 0.9577 0.0
H138 H 0.48141 0.0549 0.13477 0.0
H139 H 0.47859 0.11986 0.2174 0.0
C140 C 0.46152 0.99024 0.93275 0.0
C141 C 0.50348 0.97734 0.88904 0.0
C142 C 0.46471 1.02652 0.98093 0.0
C143 C 0.50964 0.05143 0.98611 0.0
C144 C 0.55059 0.04038 0.93913 0.0
C145 C 0.54766 1.00358 0.89136 0.0
C146 C 0.52923 0.1667 0.06143 0.0
C147 C 0.50968 0.16389 0.13472 0.0
C148 C 0.53119 0.12986 1.01459 0.0
C149 C 0.5129 0.08929 1.03935 0.0
C150 C 0.49523 0.08594 0.11384 0.0
C151 C 0.49405 0.12289 0.16143 0.0
H152 H 0.06142 0.94332 0.1951 0.0
H153 H 0.9129 0.90246 0.11142 0.0
H154 H 0.05947 1.00523 0.10744 0.0
H155 H 0.91147 0.96343 1.02366 0.0
H156 H 0.9025 0.10832 0.94859 0.0
H157 H 0.90455 0.04279 1.02624 0.0
H158 H 0.06233 1.02142 0.96888 0.0
H159 H 0.06009 0.08788 0.89066 0.0
C160 C 0.02809 0.94781 0.15892 0.0
C161 C -0.01287 0.91801 0.16109 0.0
C162 C 0.02735 0.98288 0.10775 0.0
C163 C -0.0145 0.98916 0.05795 0.0
C164 C 0.94418 0.95987 0.06139 0.0
C165 C 0.94499 0.92487 0.11209 0.0
C166 C 0.93727 0.08898 0.95086 0.0
C167 C -0.01902 0.103 0.91291 0.0
C168 C 0.93851 0.05142 0.99563 0.0
C169 C -0.01626 1.02696 1.00454 0.0
C170 C 0.02704 0.03986 0.96397 0.0
C171 C 0.02557 0.07741 0.91812 0.0
H172 H 0.31058 0.83664 0.77898 0.0
H173 H 0.37407 0.73308 0.64236 0.0
H174 H 0.22917 0.82915 0.71272 0.0
H175 H 0.2923 0.72629 0.57437 0.0
H176 H 0.12619 0.70069 0.50563 0.0
H177 H 0.20353 0.70384 0.5844 0.0
H178 H 0.19184 0.8451 0.59233 0.0
H179 H 0.11429 0.84197 0.51533 0.0
C180 C 0.30735 0.81229 0.73453 0.0
C181 C 0.34931 0.78562 0.71591 0.0
C182 C 0.26047 0.80814 0.69619 0.0
C183 C 0.25394 0.77728 0.63773 0.0
C184 C 0.29563 0.75009 0.61964 0.0
C185 C 0.34271 0.75418 0.65829 0.0
C186 C 0.13949 0.73239 0.52543 0.0
C187 C 0.11367 0.77107 0.50394 0.0
C188 C 0.18432 0.73422 0.56989 0.0
C189 C 0.20444 0.77474 0.59435 0.0
C190 C 0.17743 0.81323 0.57535 0.0
C191 C 0.13274 0.81142 0.53092 0.0
H192 H 0.20858 0.29895 0.79327 0.0
H193 H 0.15034 0.20873 0.6242 0.0
H194 H 0.28651 0.3078 0.7223 0.0
H195 H 0.22861 0.21801 0.55264 0.0
H196 H 0.38434 0.35579 0.5236 0.0
H197 H 0.31207 0.34193 0.60472 0.0
H198 H 0.32157 0.20355 0.55424 0.0
H199 H 0.39379 0.21738 0.47239 0.0
C200 C 0.21236 0.28076 0.74109 0.0
C201 C 0.17277 0.25316 0.71456 0.0
C202 C 0.25714 0.28609 0.70011 0.0
C203 C 0.26395 0.26383 0.63146 0.0
C204 C 0.22496 0.23538 0.60565 0.0
C205 C 0.17989 0.23021 0.64654 0.0
C206 C 0.37168 0.32227 0.5306 0.0
C207 C 0.39519 0.28776 0.49116 0.0
C208 C 0.33012 0.31429 0.57735 0.0
C209 C 0.31059 0.27162 0.58574 0.0
C210 C 0.33509 0.2369 0.5483 0.0
C211 C 0.37695 0.24482 0.50194 0.0
H212 H 0.89236 0.20007 0.5961 0.0
H213 H 0.90767 0.34107 0.58692 0.0
H214 H 0.81467 0.2046 0.51838 0.0
H215 H 0.82974 0.34559 0.51112 0.0
H216 H 0.64449 0.23717 0.46586 0.0
H217 H 0.72685 0.22901 0.53154 0.0
H218 H 0.79061 0.33009 0.39169 0.0
H219 H 0.70857 0.33901 0.32779 0.0
C220 C 0.87975 0.23198 0.57658 0.0
C221 C 0.90652 0.2702 0.59803 0.0
C222 C 0.83474 0.23461 0.53276 0.0
C223 C 0.81544 0.27549 0.50903 0.0
C224 C 0.84352 0.31346 0.52766 0.0
C225 C 0.8884 0.31086 0.57138 0.0
C226 C 0.67609 0.25763 0.44917 0.0
C227 C 0.66955 0.28898 0.39183 0.0
C228 C 0.7235 0.25272 0.48643 0.0
C229 C 0.76555 0.27896 0.46713 0.0
C230 C 0.75904 0.30979 0.40905 0.0
C231 C 0.7118 0.31479 0.37212 0.0
H232 H 0.869 0.71137 0.48187 0.0
H233 H 0.8067 0.79632 0.30879 0.0
H234 H 0.79026 0.71952 0.55291 0.0
H235 H 0.72828 0.80392 0.37908 0.0
H236 H 0.6269 0.85229 0.5737 0.0
H237 H 0.70007 0.83929 0.49375 0.0
H238 H 0.69858 0.70209 0.553 0.0
H239 H 0.62555 0.71512 0.63388 0.0
C240 C 0.83847 0.73143 0.45855 0.0
C241 C 0.84459 0.75328 0.38956 0.0
C242 C 0.79313 0.73594 0.49914 0.0
C243 C 0.7528 0.76256 0.472 0.0
C244 C 0.75865 0.78368 0.40238 0.0
C245 C 0.80374 0.77906 0.36178 0.0
C246 C 0.6415 0.81916 0.56888 0.0
C247 C 0.62001 0.78481 0.61054 0.0
C248 C 0.68361 0.81167 0.52279 0.0
C249 C 0.70567 0.76965 0.51718 0.0
C250 C 0.68314 0.73499 0.55678 0.0
C251 C 0.64079 0.74242 0.60259 0.0
H252 H 0.41699 0.89424 0.09669 0.0
H253 H 0.47136 0.76285 0.13818 0.0
H254 H 0.34646 0.88234 0.18145 0.0
H255 H 0.40011 0.75037 0.22297 0.0
H256 H 0.22162 0.73384 0.16587 0.0
H257 H 0.31326 0.74461 0.15813 0.0
H258 H 0.30276 0.85938 0.30066 0.0
H259 H 0.2106 0.84871 0.30859 0.0
C260 C 0.41537 0.86372 0.1277 0.0
C261 C 0.44889 0.82933 0.11116 0.0
C262 C 0.37502 0.8568 0.17626 0.0
C263 C 0.36729 0.81506 0.20731 0.0
C264 C 0.4051 0.78268 0.19899 0.0
C265 C 0.44599 0.78988 0.15108 0.0
C266 C 0.23885 0.76101 0.19649 0.0
C267 C 0.20873 0.79105 0.23616 0.0
C268 C 0.29153 0.76674 0.19322 0.0
C269 C 0.31509 0.80279 0.22911 0.0
C270 C 0.28546 0.83131 0.27265 0.0
C271 C 0.23272 0.82536 0.2765 0.0
H272 H 0.08167 0.19117 0.12476 0.0
H273 H 0.04619 0.32908 0.11202 0.0
H274 H 0.15854 0.20782 0.19876 0.0
H275 H 0.12386 0.34605 0.18377 0.0
H276 H 0.31336 0.26284 0.11384 0.0
H277 H 0.22381 0.24304 0.11275 0.0
H278 H 0.19486 0.33881 0.28698 0.0
H279 H 0.2855 0.3589 0.28861 0.0
C280 C 0.08854 0.22477 0.14235 0.0
C281 C 0.05892 0.25895 0.11223 0.0
C282 C 0.13278 0.23439 0.18387 0.0
C283 C 0.14789 0.27824 0.19403 0.0
C284 C 0.11322 0.31197 0.17611 0.0
C285 C 0.0685 0.30224 0.13544 0.0
C286 C 0.28812 0.27985 0.15192 0.0
C287 C 0.30653 0.31261 0.20093 0.0
C288 C 0.23693 0.2679 0.15236 0.0
C289 C 0.20278 0.28857 0.20144 0.0
C290 C 0.2207 0.32193 0.24963 0.0
C291 C 0.27234 0.33362 0.24986 0.0
H292 H 0.61032 0.40243 1.0219 0.0
H293 H 0.54429 0.27778 0.95888 0.0
H294 H 0.67946 0.39031 0.93445 0.0
H295 H 0.61434 0.26494 0.87194 0.0
H296 H 0.8107 0.35473 0.79802 0.0
H297 H 0.71946 0.36987 0.80817 0.0
H298 H 0.7015 0.25152 0.93797 0.0
H299 H 0.79238 0.2364 0.92843 0.0
C300 C 0.60923 0.37359 0.98598 0.0
C301 C 0.57274 0.34083 0.99706 0.0
C302 C 0.64872 0.36658 0.93582 0.0
C303 C 0.65264 0.32626 0.89777 0.0
C304 C 0.61216 0.29614 0.90118 0.0
C305 C 0.57202 0.30358 0.95045 0.0
C306 C 0.78709 0.33153 0.8276 0.0
C307 C 0.80883 0.29493 0.86418 0.0
C308 C 0.73489 0.34007 0.83269 0.0
C309 C 0.70355 0.31182 0.87348 0.0
C310 C 0.72465 0.27352 0.9051 0.0
C311 C 0.77687 0.26525 0.90082 0.0
H312 H 0.9224 0.71431 0.96345 0.0
H313 H 0.97685 0.8439 1.02046 0.0
H314 H 0.85144 0.7464 0.89145 0.0
H315 H 0.90415 0.87604 0.95194 0.0
H316 H 0.71747 0.85132 1.01504 0.0
H317 H 0.81027 0.84261 1.02496 0.0
H318 H 0.8168 0.8173 0.78588 0.0
H319 H 0.72409 0.82793 0.77503 0.0
C320 C 0.92086 0.7496 0.95653 0.0
C321 C 0.95462 0.77677 0.99712 0.0
C322 C 0.88028 0.76797 0.91568 0.0
C323 C 0.87249 0.81351 0.9172 0.0
C324 C 0.90989 0.84085 0.94974 0.0
C325 C 0.95145 0.82245 0.98858 0.0
C326 C 0.73895 0.84522 0.96439 0.0
C327 C 0.71391 0.84007 0.89452 0.0
C328 C 0.79186 0.8407 0.96983 0.0
C329 C 0.82019 0.82984 0.90586 0.0
C330 C 0.79557 0.82645 0.83542 0.0
C331 C 0.74274 0.83232 0.82955 0.0
loop_
_geom_bond_atom_site_label_1
_geom_bond_atom_site_label_2
_geom_bond_distance
_geom_bond_site_symmetry_2
_ccdc_geom_bond_type
O0 Zn1 1.953 1_655 S
O0 C16 1.225 . S
Zn1 O0 1.953 1_455 S
Zn1 O2 1.949 . S
Zn1 O8 1.919 . S
Zn1 O13 1.924 . S
O2 Zn1 1.949 . S
O2 Zn3 1.923 . S
O2 Zn4 1.950 1_455 S
O2 Zn5 1.945 . S
Zn3 O2 1.923 . S
Zn3 O6 1.933 . S
Zn3 O9 1.941 . S
Zn3 O10 1.965 1_455 S
Zn4 O2 1.950 1_655 S
Zn4 O11 1.938 . S
Zn4 O12 1.906 . S
Zn4 O22 1.953 . S
Zn5 O2 1.945 . S
Zn5 O7 1.932 . S
Zn5 O14 1.977 . S
Zn5 O15 1.910 . S
O6 Zn3 1.933 . S
O6 C17 1.226 . S
O7 Zn5 1.932 . S
O7 C17 1.307 . S
O8 Zn1 1.919 . S
O8 C19 1.253 . S
O9 Zn3 1.941 . S
O9 C19 1.283 . S
O10 Zn3 1.965 1_655 S
O10 C18 1.303 . S
O11 Zn4 1.938 . S
O11 C18 1.247 . S
O12 Zn4 1.906 . S
O12 C20 1.303 1_655 S
O13 Zn1 1.924 . S
O13 C21 1.311 . S
O14 Zn5 1.977 . S
O14 C20 1.272 . S
O15 Zn5 1.910 . S
O15 C21 1.231 . S
C16 O0 1.225 . S
C16 O22 1.298 . S
C17 O6 1.226 . S
C17 O7 1.307 . S
C18 O10 1.303 . S
C18 O11 1.247 . S
C19 O8 1.253 . S
C19 O9 1.283 . S
C20 O12 1.303 1_455 S
C20 O14 1.272 . S
C21 O13 1.311 . S
C21 O15 1.231 . S
O22 Zn4 1.953 . S
O22 C16 1.298 . S
O23 Zn24 1.953 . S
O23 C39 1.225 . S
Zn24 O23 1.953 . S
Zn24 O25 1.949 . S
Zn24 O31 1.919 . S
Zn24 O36 1.924 . S
O25 Zn24 1.949 . S
O25 Zn26 1.923 . S
O25 Zn27 1.950 . S
O25 Zn28 1.945 . S
Zn26 O25 1.923 . S
Zn26 O29 1.933 . S
Zn26 O32 1.941 . S
Zn26 O33 1.965 . S
Zn27 O25 1.950 . S
Zn27 O34 1.938 . S
Zn27 O35 1.906 . S
Zn27 O45 1.953 . S
Zn28 O25 1.945 . S
Zn28 O30 1.932 . S
Zn28 O37 1.977 . S
Zn28 O38 1.910 . S
O29 Zn26 1.933 . S
O29 C40 1.226 . S
O30 Zn28 1.932 . S
O30 C40 1.307 . S
O31 Zn24 1.919 . S
O31 C42 1.253 . S
O32 Zn26 1.941 . S
O32 C42 1.283 . S
O33 Zn26 1.965 . S
O33 C41 1.303 . S
O34 Zn27 1.938 . S
O34 C41 1.247 . S
O35 Zn27 1.906 . S
O35 C43 1.304 . S
O36 Zn24 1.924 . S
O36 C44 1.311 . S
O37 Zn28 1.977 . S
O37 C43 1.272 . S
O38 Zn28 1.910 . S
O38 C44 1.231 . S
C39 O23 1.225 . S
C39 O45 1.298 . S
C40 O29 1.226 . S
C40 O30 1.307 . S
C41 O33 1.303 . S
C41 O34 1.247 . S
C42 O31 1.253 . S
C42 O32 1.283 . S
C43 O35 1.304 . S
C43 O37 1.272 . S
C44 O36 1.311 . S
C44 O38 1.231 . S
O45 Zn27 1.953 . S
O45 C39 1.298 . S
O46 Zn47 1.953 . S
O46 C62 1.225 . S
Zn47 O46 1.953 . S
Zn47 O48 1.949 . S
Zn47 O54 1.919 . S
Zn47 O59 1.924 1_455 S
O48 Zn47 1.949 . S
O48 Zn49 1.923 . S
O48 Zn50 1.950 . S
O48 Zn51 1.945 1_455 S
Zn49 O48 1.923 . S
Zn49 O52 1.933 1_455 S
Zn49 O55 1.941 . S
Zn49 O56 1.965 . S
Zn50 O48 1.950 . S
Zn50 O57 1.938 . S
Zn50 O58 1.906 . S
Zn50 O68 1.953 . S
Zn51 O48 1.945 1_655 S
Zn51 O53 1.932 . S
Zn51 O60 1.977 . S
Zn51 O61 1.910 . S
O52 Zn49 1.933 1_655 S
O52 C63 1.226 . S
O53 Zn51 1.932 . S
O53 C63 1.307 . S
O54 Zn47 1.919 . S
O54 C65 1.253 . S
O55 Zn49 1.941 . S
O55 C65 1.283 . S
O56 Zn49 1.965 . S
O56 C64 1.303 . S
O57 Zn50 1.938 . S
O57 C64 1.247 . S
O58 Zn50 1.906 . S
O58 C66 1.304 . S
O59 Zn47 1.924 1_655 S
O59 C67 1.311 . S
O60 Zn51 1.977 . S
O60 C66 1.272 1_655 S
O61 Zn51 1.910 . S
O61 C67 1.231 . S
C62 O46 1.225 . S
C62 O68 1.298 . S
C63 O52 1.226 . S
C63 O53 1.307 . S
C64 O56 1.303 . S
C64 O57 1.247 . S
C65 O54 1.253 . S
C65 O55 1.283 . S
C66 O58 1.304 . S
C66 O60 1.272 1_455 S
C67 O59 1.311 . S
C67 O61 1.231 . S
O68 Zn50 1.953 . S
O68 C62 1.298 . S
O69 Zn70 1.953 . S
O69 C85 1.225 . S
Zn70 O69 1.953 . S
Zn70 O71 1.949 . S
Zn70 O77 1.919 . S
Zn70 O82 1.924 . S
O71 Zn70 1.949 . S
O71 Zn72 1.923 . S
O71 Zn73 1.950 . S
O71 Zn74 1.945 . S
Zn72 O71 1.923 . S
Zn72 O75 1.933 . S
Zn72 O78 1.941 . S
Zn72 O79 1.965 . S
Zn73 O71 1.950 . S
Zn73 O80 1.938 . S
Zn73 O81 1.906 . S
Zn73 O91 1.953 . S
Zn74 O71 1.945 . S
Zn74 O76 1.932 . S
Zn74 O83 1.977 . S
Zn74 O84 1.910 . S
O75 Zn72 1.933 . S
O75 C86 1.226 . S
O76 Zn74 1.932 . S
O76 C86 1.307 . S
O77 Zn70 1.919 . S
O77 C88 1.253 . S
O78 Zn72 1.941 . S
O78 C88 1.283 . S
O79 Zn72 1.965 . S
O79 C87 1.303 . S
O80 Zn73 1.938 . S
O80 C87 1.247 . S
O81 Zn73 1.906 . S
O81 C89 1.304 . S
O82 Zn70 1.924 . S
O82 C90 1.311 . S
O83 Zn74 1.977 . S
O83 C89 1.272 . S
O84 Zn74 1.910 . S
O84 C90 1.231 . S
C85 O69 1.225 . S
C85 O91 1.298 . S
C86 O75 1.226 . S
C86 O76 1.307 . S
C87 O79 1.303 . S
C87 O80 1.247 . S
C88 O77 1.253 . S
C88 O78 1.283 . S
C89 O81 1.304 . S
C89 O83 1.272 . S
C90 O82 1.311 . S
C90 O84 1.231 . S
O91 Zn73 1.953 . S
O91 C85 1.298 . S
H92 C100 0.950 . S
H93 C105 0.957 . S
H94 C102 0.950 . S
H95 C104 0.950 1_654 S
H96 C106 0.950 . S
H97 C108 0.950 . S
H98 C110 0.950 . S
H99 C111 0.950 . S
C100 H92 0.950 . S
C100 C101 1.386 . S
C100 C102 1.391 . S
C101 C100 1.386 . S
C101 C105 1.387 1_455 S
C102 H94 0.950 . S
C102 C100 1.391 . S
C102 C103 1.400 . S
C103 C102 1.400 . S
C103 C104 1.398 . S
C103 C109 1.491 1_556 S
C104 H95 0.950 1_456 S
C104 C103 1.398 . S
C104 C105 1.390 1_455 S
C105 H93 0.957 . S
C105 C101 1.387 1_655 S
C105 C104 1.390 1_655 S
C106 H96 0.950 . S
C106 C107 1.386 . S
C106 C108 1.391 . S
C107 C106 1.386 . S
C107 C111 1.393 . S
C108 H97 0.950 . S
C108 C106 1.391 . S
C108 C109 1.400 . S
C109 C103 1.491 1_554 S
C109 C108 1.400 . S
C109 C110 1.398 1_554 S
C110 H98 0.950 . S
C110 C109 1.398 1_556 S
C110 C111 1.391 1_556 S
C111 H99 0.950 . S
C111 C107 1.393 . S
C111 C110 1.391 1_554 S
H112 C120 0.950 . S
H113 C125 0.950 . S
H114 C122 0.950 . S
H115 C124 0.950 . S
H116 C126 0.950 . S
H117 C128 0.950 . S
H118 C130 0.950 . S
H119 C131 0.950 . S
C120 H112 0.950 . S
C120 C121 1.386 . S
C120 C122 1.391 . S
C121 C120 1.386 . S
C121 C125 1.393 . S
C122 H114 0.950 . S
C122 C120 1.391 . S
C122 C123 1.400 . S
C123 C122 1.400 . S
C123 C124 1.398 1_554 S
C123 C129 1.491 1_554 S
C124 H115 0.950 . S
C124 C123 1.398 1_556 S
C124 C125 1.391 1_556 S
C125 H113 0.950 . S
C125 C121 1.393 . S
C125 C124 1.391 1_554 S
C126 H116 0.950 . S
C126 C127 1.386 . S
C126 C128 1.391 . S
C127 C126 1.386 . S
C127 C131 1.393 . S
C128 H117 0.950 . S
C128 C126 1.391 . S
C128 C129 1.400 . S
C129 C123 1.491 1_556 S
C129 C128 1.400 . S
C129 C130 1.398 1_556 S
C130 H118 0.950 . S
C130 C129 1.398 1_554 S
C130 C131 1.391 1_554 S
C131 H119 0.950 . S
C131 C127 1.393 . S
C131 C130 1.391 1_556 S
H132 C140 0.950 . S
H133 C145 0.950 . S
H134 C142 0.950 . S
H135 C144 0.950 1_545 S
H136 C146 0.950 . S
H137 C148 0.950 . S
H138 C150 0.950 1_565 S
H139 C151 0.950 . S
C140 H132 0.950 . S
C140 C141 1.386 . S
C140 C142 1.391 1_556 S
C141 C140 1.386 . S
C141 C145 1.393 . S
C142 H134 0.950 . S
C142 C140 1.391 1_554 S
C142 C143 1.400 1_554 S
C143 C142 1.400 1_556 S
C143 C144 1.398 . S
C143 C149 1.491 1_566 S
C144 H135 0.950 1_565 S
C144 C143 1.398 . S
C144 C145 1.391 . S
C145 H133 0.950 . S
C145 C141 1.393 . S
C145 C144 1.391 . S
C146 H136 0.950 . S
C146 C147 1.386 . S
C146 C148 1.391 1_554 S
C147 C146 1.386 . S
C147 C151 1.393 . S
C148 H137 0.950 . S
C148 C146 1.391 1_556 S
C148 C149 1.400 1_556 S
C149 C143 1.491 1_544 S
C149 C148 1.400 1_554 S
C149 C150 1.398 . S
C150 H138 0.950 1_545 S
C150 C149 1.398 . S
C150 C151 1.391 . S
C151 H139 0.950 . S
C151 C147 1.393 . S
C151 C150 1.391 . S
H152 C160 0.950 . S
H153 C165 0.950 1_655 S
H154 C162 0.950 1_556 S
H155 C164 0.955 . S
H156 C166 0.950 . S
H157 C168 0.950 1_554 S
H158 C170 0.950 . S
H159 C171 0.950 . S
C160 H152 0.950 . S
C160 C161 1.386 . S
C160 C162 1.391 . S
C161 C160 1.386 . S
C161 C165 1.393 . S
C162 H154 0.950 1_554 S
C162 C160 1.391 . S
C162 C163 1.400 . S
C163 C162 1.400 . S
C163 C164 1.393 1_455 S
C163 C169 1.491 1_564 S
C164 H155 0.955 . S
C164 C163 1.393 1_655 S
C164 C165 1.390 1_655 S
C165 H153 0.950 1_455 S
C165 C161 1.393 . S
C165 C164 1.390 1_455 S
C166 H156 0.950 . S
C166 C167 1.386 1_655 S
C166 C168 1.391 . S
C167 C166 1.386 1_455 S
C167 C171 1.393 . S
C168 H157 0.950 1_556 S
C168 C166 1.391 . S
C168 C169 1.400 1_655 S
C169 C163 1.491 1_546 S
C169 C168 1.400 1_455 S
C169 C170 1.398 . S
C170 H158 0.950 . S
C170 C169 1.398 . S
C170 C171 1.391 . S
C171 H159 0.950 . S
C171 C167 1.393 . S
C171 C170 1.391 . S
H172 C180 0.950 . S
H173 C185 0.950 . S
H174 C182 0.950 . S
H175 C184 0.950 . S
H176 C186 0.950 . S
H177 C188 0.950 . S
H178 C190 0.950 . S
H179 C191 0.950 . S
C180 H172 0.950 . S
C180 C181 1.386 . S
C180 C182 1.391 . S
C181 C180 1.386 . S
C181 C185 1.393 . S
C182 H174 0.950 . S
C182 C180 1.391 . S
C182 C183 1.400 . S
C183 C182 1.400 . S
C183 C184 1.398 . S
C183 C189 1.491 . S
C184 H175 0.950 . S
C184 C183 1.398 . S
C184 C185 1.391 . S
C185 H173 0.950 . S
C185 C181 1.393 . S
C185 C184 1.391 . S
C186 H176 0.950 . S
C186 C187 1.386 . S
C186 C188 1.391 . S
C187 C186 1.386 . S
C187 C191 1.393 . S
C188 H177 0.950 . S
C188 C186 1.391 . S
C188 C189 1.400 . S
C189 C183 1.491 . S
C189 C188 1.400 . S
C189 C190 1.398 . S
C190 H178 0.950 . S
C190 C189 1.398 . S
C190 C191 1.391 . S
C191 H179 0.950 . S
C191 C187 1.393 . S
C191 C190 1.391 . S
H192 C200 0.950 . S
H193 C205 0.950 . S
H194 C202 0.950 . S
H195 C204 0.950 . S
H196 C206 0.950 . S
H197 C208 0.950 . S
H198 C210 0.950 . S
H199 C211 0.950 . S
C200 H192 0.950 . S
C200 C201 1.386 . S
C200 C202 1.391 . S
C201 C200 1.386 . S
C201 C205 1.393 . S
C202 H194 0.950 . S
C202 C200 1.391 . S
C202 C203 1.400 . S
C203 C202 1.400 . S
C203 C204 1.398 . S
C203 C209 1.491 . S
C204 H195 0.950 . S
C204 C203 1.398 . S
C204 C205 1.391 . S
C205 H193 0.950 . S
C205 C201 1.393 . S
C205 C204 1.391 . S
C206 H196 0.950 . S
C206 C207 1.386 . S
C206 C208 1.391 . S
C207 C206 1.386 . S
C207 C211 1.393 . S
C208 H197 0.950 . S
C208 C206 1.391 . S
C208 C209 1.400 . S
C209 C203 1.491 . S
C209 C208 1.400 . S
C209 C210 1.398 . S
C210 H198 0.950 . S
C210 C209 1.398 . S
C210 C211 1.391 . S
C211 H199 0.950 . S
C211 C207 1.393 . S
C211 C210 1.391 . S
H212 C220 0.950 . S
H213 C225 0.950 . S
H214 C222 0.950 . S
H215 C224 0.950 . S
H216 C226 0.950 . S
H217 C228 0.950 . S
H218 C230 0.950 . S
H219 C231 0.950 . S
C220 H212 0.950 . S
C220 C221 1.386 . S
C220 C222 1.391 . S
C221 C220 1.386 . S
C221 C225 1.393 . S
C222 H214 0.950 . S
C222 C220 1.391 . S
C222 C223 1.400 . S
C223 C222 1.400 . S
C223 C224 1.398 . S
C223 C229 1.491 . S
C224 H215 0.950 . S
C224 C223 1.398 . S
C224 C225 1.391 . S
C225 H213 0.950 . S
C225 C221 1.393 . S
C225 C224 1.391 . S
C226 H216 0.950 . S
C226 C227 1.386 . S
C226 C228 1.391 . S
C227 C226 1.386 . S
C227 C231 1.393 . S
C228 H217 0.950 . S
C228 C226 1.391 . S
C228 C229 1.400 . S
C229 C223 1.491 . S
C229 C228 1.400 . S
C229 C230 1.398 . S
C230 H218 0.950 . S
C230 C229 1.398 . S
C230 C231 1.391 . S
C231 H219 0.950 . S
C231 C227 1.393 . S
C231 C230 1.391 . S
H232 C240 0.950 . S
H233 C245 0.950 . S
H234 C242 0.950 . S
H235 C244 0.950 . S
H236 C246 0.950 . S
H237 C248 0.950 . S
H238 C250 0.950 . S
H239 C251 0.950 . S
C240 H232 0.950 . S
C240 C241 1.386 . S
C240 C242 1.391 . S
C241 C240 1.386 . S
C241 C245 1.393 . S
C242 H234 0.950 . S
C242 C240 1.391 . S
C242 C243 1.400 . S
C243 C242 1.400 . S
C243 C244 1.398 . S
C243 C249 1.491 . S
C244 H235 0.950 . S
C244 C243 1.398 . S
C244 C245 1.391 . S
C245 H233 0.950 . S
C245 C241 1.393 . S
C245 C244 1.391 . S
C246 H236 0.950 . S
C246 C247 1.386 . S
C246 C248 1.391 . S
C247 C246 1.386 . S
C247 C251 1.393 . S
C248 H237 0.950 . S
C248 C246 1.391 . S
C248 C249 1.400 . S
C249 C243 1.491 . S
C249 C248 1.400 . S
C249 C250 1.398 . S
C250 H238 0.950 . S
C250 C249 1.398 . S
C250 C251 1.391 . S
C251 H239 0.950 . S
C251 C247 1.393 . S
C251 C250 1.391 . S
H252 C260 0.950 . S
H253 C265 0.950 . S
H254 C262 0.950 . S
H255 C264 0.950 . S
H256 C266 0.950 . S
H257 C268 0.950 . S
H258 C270 0.950 . S
H259 C271 0.950 . S
C260 H252 0.950 . S
C260 C261 1.386 1_554 S
C260 C262 1.391 . S
C261 C260 1.386 1_556 S
C261 C265 1.393 . S
C262 H254 0.950 . S
C262 C260 1.391 . S
C262 C263 1.400 1_554 S
C263 C262 1.400 1_556 S
C263 C264 1.398 . S
C263 C269 1.491 1_556 S
C264 H255 0.950 . S
C264 C263 1.398 . S
C264 C265 1.391 . S
C265 H253 0.950 . S
C265 C261 1.393 . S
C265 C264 1.391 . S
C266 H256 0.950 . S
C266 C267 1.386 1_556 S
C266 C268 1.391 . S
C267 C266 1.386 1_554 S
C267 C271 1.393 . S
C268 H257 0.950 . S
C268 C266 1.391 . S
C268 C269 1.400 1_556 S
C269 C263 1.491 1_554 S
C269 C268 1.400 1_554 S
C269 C270 1.398 . S
C270 H258 0.950 . S
C270 C269 1.398 . S
C270 C271 1.391 . S
C271 H259 0.950 . S
C271 C267 1.393 . S
C271 C270 1.391 . S
H272 C280 0.950 . S
H273 C285 0.950 . S
H274 C282 0.950 1_554 S
H275 C284 0.950 . S
H276 C286 0.950 . S
H277 C288 0.950 1_556 S
H278 C290 0.950 . S
H279 C291 0.950 . S
C280 H272 0.950 . S
C280 C281 1.386 . S
C280 C282 1.391 . S
C281 C280 1.386 . S
C281 C285 1.393 . S
C282 H274 0.950 1_556 S
C282 C280 1.391 . S
C282 C283 1.400 . S
C283 C282 1.400 . S
C283 C284 1.398 . S
C283 C289 1.491 1_556 S
C284 H275 0.950 . S
C284 C283 1.398 . S
C284 C285 1.391 . S
C285 H273 0.950 . S
C285 C281 1.393 . S
C285 C284 1.391 . S
C286 H276 0.950 . S
C286 C287 1.386 . S
C286 C288 1.391 . S
C287 C286 1.386 . S
C287 C291 1.393 . S
C288 H277 0.950 1_554 S
C288 C286 1.391 . S
C288 C289 1.400 . S
C289 C283 1.491 1_554 S
C289 C288 1.400 . S
C289 C290 1.398 . S
C290 H278 0.950 . S
C290 C289 1.398 . S
C290 C291 1.391 . S
C291 H279 0.950 . S
C291 C287 1.393 . S
C291 C290 1.391 . S
H292 C300 0.950 . S
H293 C305 0.950 . S
H294 C302 0.950 . S
H295 C304 0.950 . S
H296 C306 0.950 . S
H297 C308 0.950 . S
H298 C310 0.950 . S
H299 C311 0.950 . S
C300 H292 0.950 . S
C300 C301 1.386 . S
C300 C302 1.391 . S
C301 C300 1.386 . S
C301 C305 1.393 1_554 S
C302 H294 0.950 . S
C302 C300 1.391 . S
C302 C303 1.400 . S
C303 C302 1.400 . S
C303 C304 1.398 1_554 S
C303 C309 1.491 1_554 S
C304 H295 0.950 . S
C304 C303 1.398 1_556 S
C304 C305 1.391 . S
C305 H293 0.950 . S
C305 C301 1.393 1_556 S
C305 C304 1.391 . S
C306 H296 0.950 . S
C306 C307 1.386 . S
C306 C308 1.391 . S
C307 C306 1.386 . S
C307 C311 1.393 1_556 S
C308 H297 0.950 . S
C308 C306 1.391 . S
C308 C309 1.400 . S
C309 C303 1.491 1_556 S
C309 C308 1.400 . S
C309 C310 1.398 1_556 S
C310 H298 0.950 . S
C310 C309 1.398 1_554 S
C310 C311 1.391 . S
C311 H299 0.950 . S
C311 C307 1.393 1_554 S
C311 C310 1.391 . S
H312 C320 0.950 . S
H313 C325 0.950 1_556 S
H314 C322 0.950 . S
H315 C324 0.950 . S
H316 C326 0.950 . S
H317 C328 0.950 . S
H318 C330 0.950 . S
H319 C331 0.950 1_554 S
C320 H312 0.950 . S
C320 C321 1.386 . S
C320 C322 1.391 . S
C321 C320 1.386 . S
C321 C325 1.393 . S
C322 H314 0.950 . S
C322 C320 1.391 . S
C322 C323 1.400 . S
C323 C322 1.400 . S
C323 C324 1.398 1_554 S
C323 C329 1.491 1_554 S
C324 H315 0.950 . S
C324 C323 1.398 1_556 S
C324 C325 1.391 1_556 S
C325 H313 0.950 1_554 S
C325 C321 1.393 . S
C325 C324 1.391 1_554 S
C326 H316 0.950 . S
C326 C327 1.386 . S
C326 C328 1.391 . S
C327 C326 1.386 . S
C327 C331 1.393 . S
C328 H317 0.950 . S
C328 C326 1.391 . S
C328 C329 1.400 . S
C329 C323 1.491 1_556 S
C329 C328 1.400 . S
C329 C330 1.398 1_556 S
C330 H318 0.950 . S
C330 C329 1.398 1_554 S
C330 C331 1.391 1_554 S
C331 H319 0.950 1_556 S
C331 C327 1.393 . S
C331 C330 1.391 1_556 S
C101 C66 2.173 . S
C107 C19 2.112 . S
C121 C43 2.172 . S
C127 C88 2.109 . S
C141 C89 2.166 . S
C147 C42 2.094 . S
C161 C20 2.165 . S
C167 C65 2.093 . S
C181 C90 1.538 . S
C187 C21 1.534 . S
C201 C62 2.076 . S
C207 C39 2.078 . S
C221 C67 1.516 . S
C227 C44 1.521 . S
C241 C16 2.078 . S
C247 C85 2.077 . S
C261 C86 0.593 . S
C267 C17 0.598 . S
C281 C64 0.264 . S
C287 C41 0.248 . S
C301 C40 0.590 . S
C307 C63 0.586 . S
C321 C18 0.205 . S
C327 C87 0.295 . S
