# Generated by pormake.
# Topology umx, (4)-cn, num edge types: 1
# Building blocks:
#     Node 0, Type 0, BuildingBlock: CEKHIL_clean_sbu_0, # of connection points: 4
#     Node 1, Type 0, BuildingBlock: CEKHIL_clean_sbu_0, # of connection points: 4
#     Node 2, Type 0, BuildingBlock: CEKHIL_clean_sbu_0, # of connection points: 4
#     Node 3, Type 0, BuildingBlock: CEKHIL_clean_sbu_0, # of connection points: 4
#     Node 4, Type 0, BuildingBlock: CEKHIL_clean_sbu_0, # of connection points: 4
#     Node 5, Type 0, BuildingBlock: CEKHIL_clean_sbu_0, # of connection points: 4
#     Node 6, Type 0, BuildingBlock: CEKHIL_clean_sbu_0, # of connection points: 4
#     Node 7, Type 0, BuildingBlock: CEKHIL_clean_sbu_0, # of connection points: 4
#     Edge 8, Type (0, 0), BuildingBlock: ZUJKAS_clean_linker_0, # of connection points: 2
#     Edge 9, Type (0, 0), BuildingBlock: ZUJKAS_clean_linker_0, # of connection points: 2
#     Edge 10, Type (0, 0), BuildingBlock: ZUJKAS_clean_linker_0, # of connection points: 2
#     Edge 11, Type (0, 0), BuildingBlock: ZUJKAS_clean_linker_0, # of connection points: 2
#     Edge 12, Type (0, 0), BuildingBlock: ZUJKAS_clean_linker_0, # of connection points: 2
#     Edge 13, Type (0, 0), BuildingBlock: ZUJKAS_clean_linker_0, # of connection points: 2
#     Edge 14, Type (0, 0), BuildingBlock: ZUJKAS_clean_linker_0, # of connection points: 2
#     Edge 15, Type (0, 0), BuildingBlock: ZUJKAS_clean_linker_0, # of connection points: 2
#     Edge 16, Type (0, 0), BuildingBlock: ZUJKAS_clean_linker_0, # of connection points: 2
#     Edge 17, Type (0, 0), BuildingBlock: ZUJKAS_clean_linker_0, # of connection points: 2
#     Edge 18, Type (0, 0), BuildingBlock: ZUJKAS_clean_linker_0, # of connection points: 2
#     Edge 19, Type (0, 0), BuildingBlock: ZUJKAS_clean_linker_0, # of connection points: 2
#     Edge 20, Type (0, 0), BuildingBlock: ZUJKAS_clean_linker_0, # of connection points: 2
#     Edge 21, Type (0, 0), BuildingBlock: ZUJKAS_clean_linker_0, # of connection points: 2
#     Edge 22, Type (0, 0), BuildingBlock: ZUJKAS_clean_linker_0, # of connection points: 2
#     Edge 23, Type (0, 0), BuildingBlock: ZUJKAS_clean_linker_0, # of connection points: 2
# Relax obj value: 0.077
# Max RMSD: 0.187
# Mean RMSD: 0.187
data_MOF--net-umx--node1-CEKHIL_clean_sbu_0--edge1-ZUJKAS_clean_linker_0
_symmetry_space_group_name_H-M    P1
_symmetry_Int_Tables_number       1
_symmetry_cell_setting            triclinic
loop_
_symmetry_equiv_pos_as_xyz
'x, y, z'
_cell_length_a     50.403151
_cell_length_b     50.416961
_cell_length_c     36.653148
_cell_angle_alpha  89.966944
_cell_angle_beta   90.055351
_cell_angle_gamma 89.867768
loop_
_atom_site_label
_atom_site_type_symbol
_atom_site_fract_x
_atom_site_fract_y
_atom_site_fract_z
_atom_type_partial_charge
Co0 Co 0.19195 0.44469 0.00576 0.0
O1 O 0.22472 0.42542 0.00538 0.0
O2 O 0.18688 0.40943 0.02646 0.0
C3 C 0.19445 0.45901 0.94763 0.0
O4 O 0.15407 0.45942 0.00888 0.0
Co5 Co 0.1944 0.50568 -0.00372 0.0
O6 O 0.15549 0.50206 -0.00936 0.0
C7 C 0.20826 0.48239 0.06737 0.0
C8 C 0.21199 0.40572 0.01964 0.0
C9 C 0.14257 0.48145 8e-05 0.0
O10 O 0.20088 0.45958 0.05539 0.0
O11 O 0.20912 0.50311 0.04717 0.0
O12 O 0.18553 0.43551 0.95509 0.0
O13 O 0.20421 0.47194 0.97502 0.0
Co14 Co 0.55082 0.1937 0.50656 0.0
O15 O 0.56972 0.22592 0.49813 0.0
O16 O 0.58721 0.19045 0.52437 0.0
C17 C 0.53356 0.19133 0.4501 0.0
O18 O 0.53682 0.15642 0.51732 0.0
Co19 Co 0.4896 0.19536 0.50286 0.0
O20 O 0.49303 0.15628 0.5048 0.0
C21 C 0.51618 0.21451 0.56911 0.0
C22 C 0.5904 0.21447 0.51196 0.0
C23 C 0.51444 0.14433 0.5135 0.0
O24 O 0.53856 0.20697 0.55574 0.0
O25 O 0.49439 0.21336 0.55121 0.0
O26 O 0.5573 0.18262 0.45674 0.0
O27 O 0.52196 0.20356 0.47673 0.0
Co28 Co 0.80897 0.55239 0.01277 0.0
O29 O 0.77605 0.57142 0.01212 0.0
O30 O 0.8136 0.58739 0.0343 0.0
C31 C 0.80713 0.53902 0.95424 0.0
O32 O 0.84701 0.53804 0.01631 0.0
Co33 Co 0.8072 0.49154 0.00212 0.0
O34 O 0.84621 0.49511 -0.00073 0.0
C35 C 0.79282 0.51375 0.07351 0.0
C36 C 0.78858 0.59108 0.02686 0.0
C37 C 0.85876 0.51593 0.00869 0.0
O38 O 0.79963 0.53683 0.06185 0.0
O39 O 0.79271 0.49312 0.05316 0.0
O40 O 0.81572 0.56245 0.96263 0.0
O41 O 0.7973 0.52541 0.98099 0.0
Co42 Co 0.44836 0.81148 0.50718 0.0
O43 O 0.42967 0.7785 0.50633 0.0
O44 O 0.41305 0.81605 0.52778 0.0
C45 C 0.46268 0.8094 0.44914 0.0
O46 O 0.4623 0.84952 0.5108 0.0
Co47 Co 0.50936 0.81028 0.498 0.0
O48 O 0.50465 0.84899 0.49138 0.0
C49 C 0.48633 0.79571 0.56886 0.0
C50 C 0.40973 0.79096 0.52056 0.0
C51 C 0.48385 0.86148 0.50131 0.0
O52 O 0.46334 0.80241 0.55665 0.0
O53 O 0.50722 0.79572 0.54901 0.0
O54 O 0.43904 0.81802 0.45666 0.0
O55 O 0.47589 0.79976 0.47644 0.0
Co56 Co 0.19456 0.55671 0.51489 0.0
O57 O 0.228 0.57463 0.5153 0.0
O58 O 0.19094 0.59164 0.49276 0.0
C59 C 0.19618 0.54382 0.57372 0.0
O60 O 0.15615 0.54377 0.51141 0.0
Co61 Co 0.19322 0.49613 0.52748 0.0
O62 O 0.15511 0.50309 0.53664 0.0
C63 C 0.20808 0.51657 0.45499 0.0
C64 C 0.21602 0.59461 0.50034 0.0
C65 C 0.14342 0.52361 0.52415 0.0
O66 O 0.2034 0.54029 0.46624 0.0
O67 O 0.20646 0.49615 0.47569 0.0
O68 O 0.18808 0.56739 0.56489 0.0
O69 O 0.20545 0.52962 0.54715 0.0
Co70 Co 0.44788 0.19352 0.01369 0.0
O71 O 0.42799 0.22587 0.01471 0.0
O72 O 0.4132 0.18834 -0.00889 0.0
C73 C 0.46037 0.19486 0.0725 0.0
O74 O 0.46341 0.15597 0.00973 0.0
Co75 Co 0.50844 0.19642 0.02713 0.0
O76 O 0.50464 0.15759 0.03328 0.0
C77 C 0.48728 0.21158 0.9552 0.0
C78 C 0.4088 0.21314 -0.00079 0.0
C79 C 0.48483 0.14456 0.02124 0.0
O80 O 0.46404 0.20411 0.96547 0.0
O81 O 0.50741 0.2117 0.97654 0.0
O82 O 0.43737 0.1855 0.06335 0.0
O83 O 0.47393 0.20563 0.04647 0.0
Co84 Co 0.81369 0.44471 0.52053 0.0
O85 O 0.78224 0.42394 0.5258 0.0
O86 O 0.81901 0.40972 0.49902 0.0
C87 C 0.81401 0.45865 0.57895 0.0
O88 O 0.85049 0.46087 0.51263 0.0
Co89 Co 0.81019 0.50538 0.53089 0.0
O90 O 0.84911 0.50183 0.5369 0.0
C91 C 0.79335 0.48221 0.46081 0.0
C92 C 0.79504 0.40474 0.51035 0.0
C93 C 0.86197 0.48219 0.52396 0.0
O94 O 0.80079 0.45923 0.47229 0.0
O95 O 0.794 0.50302 0.48082 0.0
O96 O 0.82392 0.43579 0.57008 0.0
O97 O 0.80217 0.47139 0.55289 0.0
Co98 Co 0.55703 0.8106 0.01555 0.0
O99 O 0.57485 0.77706 0.01706 0.0
O100 O 0.59222 0.81361 -0.00611 0.0
C101 C 0.54378 0.80976 0.07419 0.0
O102 O 0.54397 0.84902 0.01098 0.0
Co103 Co 0.49612 0.81088 0.02683 0.0
O104 O 0.50047 0.84983 0.0255 0.0
C105 C 0.51768 0.79435 0.95593 0.0
C106 C 0.595 0.78859 0.0021 0.0
C107 C 0.52191 0.86147 0.01653 0.0
O108 O 0.54098 0.80113 0.96683 0.0
O109 O 0.4973 0.79479 0.97674 0.0
O110 O 0.56742 0.81764 0.06556 0.0
O111 O 0.5298 0.80019 0.04766 0.0
H112 H 0.22579 0.52662 0.10369 0.0
H113 H 0.23191 0.53207 0.1694 0.0
H114 H 0.20998 0.4504 0.18647 0.0
H115 H 0.20422 0.44455 0.12086 0.0
H116 H 0.19255 0.52598 0.22048 0.0
H117 H 0.27556 0.457 0.25052 0.0
H118 H 0.26772 0.46783 0.20478 0.0
H119 H 0.24873 0.4419 0.22598 0.0
C120 C 0.22265 0.50966 0.1213 0.0
C121 C 0.21445 0.48514 0.10684 0.0
C122 C 0.22616 0.51284 0.15889 0.0
C123 C 0.22171 0.49157 0.18283 0.0
C124 C 0.21411 0.46693 0.16849 0.0
H125 H 0.20509 0.47057 0.41543 0.0
H126 H 0.21029 0.46532 0.34951 0.0
C127 C 0.21066 0.46369 0.13089 0.0
C128 C 0.22276 0.49578 0.22289 0.0
H129 H 0.25123 0.47329 0.30171 0.0
C130 C 0.20559 0.51467 0.23822 0.0
C131 C 0.23963 0.48086 0.246 0.0
C132 C 0.25914 0.46092 0.231 0.0
C133 C 0.20426 0.51855 0.27609 0.0
C134 C 0.22104 0.50354 0.29928 0.0
C135 C 0.23843 0.48482 0.28392 0.0
C136 C 0.22015 0.50645 0.33959 0.0
C137 C 0.18415 0.538 0.29089 0.0
C138 C 0.22477 0.53113 0.35611 0.0
C139 C 0.22152 0.53428 0.39374 0.0
C140 C 0.21405 0.51266 0.41573 0.0
C141 C 0.21083 0.48764 0.39935 0.0
C142 C 0.21379 0.48459 0.36163 0.0
H143 H 0.16828 0.54239 0.27069 0.0
H144 H 0.17477 0.53035 0.31618 0.0
H145 H 0.19424 0.55694 0.29746 0.0
H146 H 0.23044 0.5481 0.33979 0.0
H147 H 0.22453 0.55374 0.40551 0.0
H148 H 0.5577 0.22051 0.61691 0.0
H149 H 0.55515 0.227 0.6829 0.0
H150 H 0.4699 0.23212 0.67602 0.0
H151 H 0.47217 0.22616 0.61004 0.0
H152 H 0.49163 0.26792 0.72605 0.0
H153 H 0.5303 0.16573 0.74737 0.0
H154 H 0.5516 0.18683 0.721 0.0
H155 H 0.51964 0.17762 0.70331 0.0
C156 C 0.5384 0.22339 0.62929 0.0
C157 C 0.51511 0.22241 0.60811 0.0
C158 C 0.537 0.22697 0.66707 0.0
C159 C 0.5123 0.2294 0.68443 0.0
C160 C 0.48916 0.23008 0.66319 0.0
H161 H 0.44938 0.21908 0.90237 0.0
H162 H 0.45644 0.22671 0.83721 0.0
C163 C 0.49052 0.22663 0.62541 0.0
C164 C 0.51035 0.22948 0.72479 0.0
H165 H 0.52219 0.19125 0.80004 0.0
C166 C 0.49839 0.25122 0.74227 0.0
C167 C 0.519 0.20755 0.74586 0.0
C168 C 0.53063 0.18299 0.72851 0.0
C169 C 0.495 0.25164 0.78033 0.0
C170 C 0.50358 0.22968 0.80126 0.0
C171 C 0.5158 0.20813 0.78386 0.0
C172 C 0.49924 0.22802 0.84115 0.0
C173 C 0.4824 0.27557 0.79795 0.0
C174 C 0.52098 0.22625 0.86492 0.0
C175 C 0.51705 0.2219 0.90219 0.0
C176 C 0.49128 0.21886 0.91634 0.0
C177 C 0.4695 0.22129 0.89247 0.0
C178 C 0.47347 0.22582 0.85522 0.0
H179 H 0.4825 0.29307 0.77951 0.0
H180 H 0.46149 0.27095 0.80485 0.0
H181 H 0.49286 0.2808 0.82364 0.0
H182 H 0.54103 0.22772 0.85449 0.0
H183 H 0.5343 0.22009 0.91965 0.0
H184 H 0.7794 0.52774 0.42439 0.0
H185 H 0.77243 0.53329 0.35888 0.0
H186 H 0.78381 0.44934 0.34287 0.0
H187 H 0.79056 0.44344 0.40837 0.0
H188 H 0.81113 0.52077 0.30742 0.0
H189 H 0.71845 0.46516 0.27958 0.0
H190 H 0.72783 0.47572 0.32488 0.0
H191 H 0.7429 0.44683 0.30491 0.0
C192 C 0.77994 0.51032 0.40713 0.0
C193 C 0.78569 0.48513 0.4218 0.0
C194 C 0.77596 0.51357 0.36963 0.0
C195 C 0.77738 0.49172 0.34602 0.0
C196 C 0.78213 0.46642 0.36064 0.0
H197 H 0.78927 0.46776 0.11324 0.0
H198 H 0.78353 0.46336 0.17921 0.0
C199 C 0.78616 0.46312 0.39815 0.0
C200 C 0.77659 0.49578 0.30591 0.0
H201 H 0.7442 0.47775 0.22786 0.0
C202 C 0.79633 0.5116 0.29004 0.0
C203 C 0.75741 0.48359 0.2833 0.0
C204 C 0.73529 0.46705 0.29899 0.0
C205 C 0.79787 0.51504 0.25211 0.0
C206 C 0.77872 0.50283 0.22939 0.0
C207 C 0.75881 0.48717 0.24529 0.0
C208 C 0.77965 0.5055 0.18904 0.0
C209 C 0.82062 0.53093 0.23669 0.0
C210 C 0.77853 0.53059 0.17247 0.0
C211 C 0.78207 0.53322 0.13481 0.0
C212 C 0.7864 0.51074 0.11284 0.0
C213 C 0.78606 0.48551 0.12929 0.0
C214 C 0.78276 0.48294 0.16703 0.0
H215 H 0.83715 0.53288 0.25658 0.0
H216 H 0.82847 0.52168 0.21141 0.0
H217 H 0.81353 0.55119 0.22989 0.0
H218 H 0.77544 0.54823 0.18879 0.0
H219 H 0.78182 0.55293 0.12303 0.0
H220 H 0.4709 0.78679 0.9192 0.0
H221 H 0.46477 0.78053 0.85365 0.0
H222 H 0.54955 0.78079 0.83828 0.0
H223 H 0.556 0.78694 0.90382 0.0
H224 H 0.4838 0.81775 0.80165 0.0
H225 H 0.52417 0.71682 0.77644 0.0
H226 H 0.51391 0.72794 0.82113 0.0
H227 H 0.54526 0.73826 0.80276 0.0
C228 C 0.48831 0.78505 0.90206 0.0
C229 C 0.51397 0.78751 0.91687 0.0
C230 C 0.48473 0.78149 0.86457 0.0
C231 C 0.5067 0.77997 0.8412 0.0
C232 C 0.53234 0.78148 0.85594 0.0
H233 H 0.53193 0.78733 0.60834 0.0
H234 H 0.53595 0.78154 0.67438 0.0
C235 C 0.53596 0.78518 0.89342 0.0
C236 C 0.50276 0.77946 0.80115 0.0
H237 H 0.51541 0.74348 0.72414 0.0
C238 C 0.49047 0.8014 0.78471 0.0
C239 C 0.5117 0.7582 0.7792 0.0
C240 C 0.52432 0.73383 0.7957 0.0
C241 C 0.4874 0.80299 0.74674 0.0
C242 C 0.49634 0.78175 0.72469 0.0
C243 C 0.50852 0.75969 0.74114 0.0
C244 C 0.49369 0.78254 0.68443 0.0
C245 C 0.47537 0.82778 0.73049 0.0
C246 C 0.46855 0.78417 0.66812 0.0
C247 C 0.46615 0.78761 0.63044 0.0
C248 C 0.48887 0.78928 0.60825 0.0
C249 C 0.51401 0.78627 0.62454 0.0
C250 C 0.51637 0.78292 0.6623 0.0
H251 H 0.47561 0.8446 0.75007 0.0
H252 H 0.48614 0.83383 0.70542 0.0
H253 H 0.45441 0.82384 0.72301 0.0
H254 H 0.45078 0.78337 0.68467 0.0
H255 H 0.44646 0.78952 0.61886 0.0
H256 H 0.83615 0.43376 0.63728 0.0
H257 H 0.83483 0.44745 0.70119 0.0
H258 H 0.79168 0.51809 0.67126 0.0
H259 H 0.79285 0.50453 0.60682 0.0
H260 H 0.84936 0.51122 0.72703 0.0
H261 H 0.75265 0.46263 0.75782 0.0
H262 H 0.77564 0.44805 0.72577 0.0
H263 H 0.7584 0.47794 0.71395 0.0
C264 C 0.8265 0.45231 0.64416 0.0
C265 C 0.81452 0.46807 0.61706 0.0
C266 C 0.82576 0.46003 0.68067 0.0
C267 C 0.81303 0.48361 0.69071 0.0
C268 C 0.80148 0.49973 0.66381 0.0
H269 H 0.81129 0.56949 0.89386 0.0
H270 H 0.81249 0.55531 0.83042 0.0
C271 C 0.80221 0.492 0.62713 0.0
C272 C 0.81182 0.49117 0.72951 0.0
H273 H 0.77411 0.48461 0.80619 0.0
C274 C 0.83292 0.50554 0.74443 0.0
C275 C 0.79057 0.48316 0.75196 0.0
C276 C 0.76791 0.46705 0.73685 0.0
C277 C 0.83326 0.51236 0.78153 0.0
C278 C 0.81156 0.50506 0.80397 0.0
C279 C 0.79064 0.49028 0.78898 0.0
C280 C 0.80984 0.51341 0.84268 0.0
C281 C 0.85711 0.52686 0.79635 0.0
C282 C 0.80662 0.49463 0.87072 0.0
C283 C 0.80533 0.50277 0.90724 0.0
C284 C 0.80742 0.52978 0.91609 0.0
C285 C 0.81008 0.54848 0.8879 0.0
C286 C 0.81095 0.54041 0.85159 0.0
H287 H 0.87501 0.52323 0.77938 0.0
H288 H 0.85309 0.54851 0.79598 0.0
H289 H 0.86155 0.52082 0.82485 0.0
H290 H 0.80546 0.47368 0.86438 0.0
H291 H 0.8032 0.48799 0.92848 0.0
H292 H 0.57523 0.80993 0.13397 0.0
H293 H 0.56189 0.80805 0.19777 0.0
H294 H 0.47956 0.80783 0.16518 0.0
H295 H 0.493 0.8083 0.10081 0.0
H296 H 0.53565 0.84155 0.23735 0.0
H297 H 0.47929 0.74729 0.23487 0.0
H298 H 0.4994 0.75798 0.19697 0.0
H299 H 0.46648 0.77121 0.20319 0.0
C300 C 0.55426 0.80935 0.14037 0.0
C301 C 0.5351 0.80915 0.11253 0.0
C302 C 0.54667 0.80826 0.17687 0.0
C303 C 0.51974 0.80734 0.18637 0.0
C304 C 0.50048 0.80769 0.15855 0.0
H305 H 0.43602 0.82468 0.38834 0.0
H306 H 0.45147 0.82373 0.3253 0.0
C307 C 0.50812 0.80819 0.12183 0.0
C308 C 0.51212 0.80692 0.22547 0.0
H309 H 0.47539 0.77352 0.2888 0.0
C310 C 0.52266 0.82651 0.2486 0.0
C311 C 0.49531 0.78719 0.24027 0.0
C312 C 0.4847 0.76458 0.21761 0.0
C313 C 0.51644 0.82718 0.28587 0.0
C314 C 0.49913 0.80791 0.30027 0.0
C315 C 0.48868 0.78825 0.27742 0.0
C316 C 0.49048 0.80872 0.33867 0.0
C317 C 0.52794 0.84872 0.3096 0.0
C318 C 0.50746 0.80061 0.36695 0.0
C319 C 0.49865 0.80101 0.40317 0.0
C320 C 0.4728 0.80961 0.4114 0.0
C321 C 0.45605 0.81796 0.3829 0.0
C322 C 0.46479 0.81739 0.34686 0.0
H323 H 0.53922 0.86361 0.29355 0.0
H324 H 0.51185 0.85901 0.32473 0.0
H325 H 0.5415 0.83972 0.33005 0.0
H326 H 0.52737 0.79377 0.36093 0.0
H327 H 0.51196 0.79447 0.4246 0.0
H328 H 0.21485 0.50595 0.92227 0.0
H329 H 0.21473 0.52198 0.85891 0.0
H330 H 0.17301 0.45155 0.82519 0.0
H331 H 0.17289 0.43555 0.88798 0.0
H332 H 0.2365 0.49551 0.7962 0.0
H333 H 0.12816 0.51291 0.78291 0.0
H334 H 0.14448 0.50953 0.82656 0.0
H335 H 0.13677 0.48061 0.79997 0.0
C336 C 0.20551 0.49402 0.90134 0.0
C337 C 0.19383 0.46955 0.91006 0.0
C338 C 0.20551 0.50315 0.86524 0.0
C339 C 0.19359 0.48805 0.83754 0.0
C340 C 0.18191 0.46368 0.84627 0.0
H341 H 0.21381 0.49642 0.60173 0.0
H342 H 0.2137 0.48266 0.66604 0.0
C343 C 0.18197 0.45454 0.88217 0.0
C344 C 0.19388 0.49723 0.7992 0.0
H345 H 0.15325 0.51325 0.72796 0.0
C346 C 0.21835 0.49956 0.78127 0.0
C347 C 0.17015 0.50264 0.77998 0.0
C348 C 0.14339 0.50155 0.79837 0.0
C349 C 0.21967 0.50668 0.74427 0.0
C350 C 0.19587 0.51121 0.72473 0.0
C351 C 0.17145 0.50939 0.74291 0.0
C352 C 0.19584 0.51901 0.68579 0.0
C353 C 0.24649 0.50966 0.72652 0.0
C354 C 0.18522 0.54363 0.67559 0.0
C355 C 0.18511 0.5514 0.63909 0.0
C356 C 0.19554 0.53466 0.61197 0.0
C357 C 0.20576 0.50976 0.62207 0.0
C358 C 0.20587 0.50197 0.65876 0.0
H359 H 0.26262 0.51148 0.74705 0.0
H360 H 0.25063 0.49191 0.70955 0.0
H361 H 0.24691 0.52735 0.70847 0.0
H362 H 0.17726 0.55699 0.696 0.0
H363 H 0.17702 0.57069 0.6322 0.0
H364 H 0.49766 0.2248 0.41839 0.0
H365 H 0.48442 0.22553 0.35406 0.0
H366 H 0.53057 0.15466 0.33479 0.0
H367 H 0.54484 0.15472 0.39847 0.0
H368 H 0.54144 0.19007 0.28542 0.0
H369 H 0.43212 0.1832 0.29741 0.0
H370 H 0.4454 0.21093 0.32192 0.0
H371 H 0.45392 0.17769 0.33572 0.0
C372 C 0.50453 0.20915 0.40048 0.0
C373 C 0.52223 0.18971 0.41321 0.0
C374 C 0.4969 0.20951 0.36378 0.0
C375 C 0.50628 0.18998 0.33961 0.0
C376 C 0.52314 0.16998 0.35285 0.0
H377 H 0.44485 0.15991 0.12422 0.0
H378 H 0.45779 0.15883 0.18836 0.0
C379 C 0.5312 0.16995 0.38923 0.0
C380 C 0.50005 0.19116 0.3001 0.0
H381 H 0.44918 0.19411 0.23881 0.0
C382 C 0.52124 0.19078 0.27521 0.0
C383 C 0.47371 0.19192 0.28679 0.0
C384 C 0.45 0.19069 0.31185 0.0
C385 C 0.51687 0.1909 0.23742 0.0
C386 C 0.49056 0.19248 0.22413 0.0
C387 C 0.46937 0.19308 0.24902 0.0
C388 C 0.48433 0.19244 0.18458 0.0
C389 C 0.54047 0.18847 0.2123 0.0
C390 C 0.49521 0.21149 0.16092 0.0
C391 C 0.48828 0.21172 0.12394 0.0
C392 C 0.46982 0.19339 0.11042 0.0
C393 C 0.45906 0.17433 0.13404 0.0
C394 C 0.46638 0.17375 0.1707 0.0
H395 H 0.55782 0.1795 0.22644 0.0
H396 H 0.53571 0.1762 0.18803 0.0
H397 H 0.54636 0.20852 0.20286 0.0
H398 H 0.50856 0.22654 0.17115 0.0
H399 H 0.4966 0.22679 0.10628 0.0
H400 H 0.88762 0.47083 0.01771 0.0
H401 H 0.93558 0.46576 0.01911 0.0
H402 H 0.94473 0.55028 0.00597 0.0
H403 H 0.89626 0.55565 0.0056 0.0
H404 H 0.97016 0.47654 0.96644 0.0
H405 H 0.99528 0.53597 0.08902 0.0
H406 H 0.96167 0.52653 0.07819 0.0
H407 H 0.97692 0.55408 0.05519 0.0
C408 C 0.89975 0.48846 0.01537 0.0
C409 C 0.88806 0.51369 0.01145 0.0
C410 C 0.92724 0.48548 0.01619 0.0
C411 C 0.94385 0.50761 0.01296 0.0
C412 C 0.93234 0.53294 0.00933 0.0
H413 H 0.11264 0.52565 0.98697 0.0
H414 H 0.06473 0.5306 -0.00938 0.0
C415 C 0.90465 0.536 0.00893 0.0
C416 C 0.9731 0.50362 0.01173 0.0
H417 H 0.03142 0.5208 0.05294 0.0
C418 C 0.98352 0.48612 0.98552 0.0
C419 C 0.99056 0.51605 0.03667 0.0
C420 C 0.98057 0.53401 0.06659 0.0
C421 C 0.01087 0.481 0.98322 0.0
C422 C 0.02829 0.49357 0.00794 0.0
C423 C 0.01796 0.5111 0.03412 0.0
C424 C 0.05745 0.48986 0.00588 0.0
C425 C 0.02102 0.46266 0.95384 0.0
C426 C 0.06935 0.46521 0.01337 0.0
C427 C 0.097 0.4622 0.01137 0.0
C428 C 0.11317 0.48384 0.00182 0.0
C429 C 0.10097 0.50845 -0.00565 0.0
C430 C 0.07351 0.51142 -0.00349 0.0
H431 H 0.00566 0.45844 0.93288 0.0
H432 H 0.03865 0.47133 0.94017 0.0
H433 H 0.02715 0.44357 0.96637 0.0
H434 H 0.05727 0.44837 0.02106 0.0
H435 H 0.10566 0.44302 0.01741 0.0
H436 H 0.44725 0.89705 0.52878 0.0
H437 H 0.45172 0.9455 0.53279 0.0
H438 H 0.52884 0.94053 0.48245 0.0
H439 H 0.52452 0.89269 0.4778 0.0
H440 H 0.49127 0.97514 0.56898 0.0
H441 H 0.49138 0.99645 0.42063 0.0
H442 H 0.48046 0.96512 0.4391 0.0
H443 H 0.51529 0.97172 0.43349 0.0
C444 C 0.46503 0.90632 0.51824 0.0
C445 C 0.48545 0.89089 0.50286 0.0
C446 C 0.46759 0.93397 0.52067 0.0
C447 C 0.49047 0.94663 0.50744 0.0
C448 C 0.5108 0.93127 0.49216 0.0
H449 H 0.554 0.10724 0.50488 0.0
H450 H 0.54916 0.0587 0.50642 0.0
C451 C 0.5083 0.9038 0.48975 0.0
C452 C 0.49372 0.97579 0.51032 0.0
H453 H 0.506 0.03134 0.45968 0.0
C454 C 0.49426 0.98748 0.54509 0.0
C455 C 0.4977 0.99184 0.4791 0.0
C456 C 0.49593 0.98071 0.44096 0.0
C457 C 0.49924 0.01472 0.54944 0.0
C458 C 0.50373 0.03056 0.51827 0.0
C459 C 0.50297 0.01897 0.48354 0.0
C460 C 0.50756 0.05959 0.52085 0.0
C461 C 0.50005 0.02642 0.58727 0.0
C462 C 0.48584 0.07595 0.52872 0.0
C463 C 0.48846 0.10348 0.5275 0.0
C464 C 0.51293 0.11523 0.51859 0.0
C465 C 0.53497 0.09878 0.51204 0.0
C466 C 0.53222 0.07111 0.5128 0.0
H467 H 0.5005 0.01087 0.60876 0.0
H468 H 0.51773 0.03932 0.59044 0.0
H469 H 0.48217 0.03893 0.59153 0.0
H470 H 0.46662 0.06741 0.53468 0.0
H471 H 0.47111 0.11559 0.53287 0.0
H472 H 0.11034 0.49747 0.57001 0.0
H473 H 0.06257 0.49146 0.56405 0.0
H474 H 0.06228 0.54084 0.46789 0.0
H475 H 0.11031 0.54775 0.47455 0.0
H476 H 0.01997 0.55083 0.50872 0.0
H477 H 0.0283 0.44232 0.49264 0.0
H478 H 0.04339 0.45275 0.5345 0.0
H479 H 0.05687 0.46379 0.49156 0.0
C480 C 0.1001 0.50721 0.54769 0.0
C481 C 0.1141 0.52286 0.5225 0.0
C482 C 0.07281 0.50354 0.54411 0.0
C483 C 0.05895 0.51488 0.51476 0.0
C484 C 0.07263 0.53156 0.49047 0.0
H485 H 0.89588 0.45892 0.47462 0.0
H486 H 0.9436 0.46744 0.46764 0.0
C487 C 0.10002 0.53561 0.49438 0.0
C488 C 0.03019 0.50934 0.50997 0.0
H489 H 0.98507 0.45888 0.5092 0.0
C490 C 0.01237 0.53072 0.50834 0.0
C491 C 0.0202 0.48311 0.50839 0.0
C492 C 0.03825 0.45922 0.50643 0.0
C493 C 0.98482 0.52659 0.50721 0.0
C494 C 0.97479 0.50037 0.50901 0.0
C495 C 0.99266 0.47899 0.50858 0.0
C496 C 0.94598 0.49478 0.51311 0.0
C497 C 0.96684 0.55046 0.504 0.0
C498 C 0.93163 0.50656 0.54161 0.0
C499 C 0.90449 0.502 0.54531 0.0
C500 C 0.89112 0.48498 0.52114 0.0
C501 C 0.90566 0.47212 0.49363 0.0
C502 C 0.93288 0.47707 0.48956 0.0
H503 H 0.97695 0.56707 0.48979 0.0
H504 H 0.94834 0.54566 0.48894 0.0
H505 H 0.96147 0.55748 0.53172 0.0
H506 H 0.94141 0.51941 0.56107 0.0
H507 H 0.89393 0.51186 0.5672 0.0
H508 H 0.55907 0.89918 0.03455 0.0
H509 H 0.55286 0.94765 0.03352 0.0
H510 H 0.47543 0.93734 0.9854 0.0
H511 H 0.48107 0.88933 0.98777 0.0
H512 H 0.5434 0.98405 0.98062 0.0
H513 H 0.4566 0.98075 0.07305 0.0
H514 H 0.47744 0.95222 0.06511 0.0
H515 H 0.45185 0.96102 0.03294 0.0
C516 C 0.54086 0.90738 0.02352 0.0
C517 C 0.5204 0.89056 0.01176 0.0
C518 C 0.53727 0.93501 0.02304 0.0
C519 C 0.51329 0.94612 0.01046 0.0
C520 C 0.49365 0.92928 -0.00347 0.0
H521 H 0.45145 0.10794 0.98914 0.0
H522 H 0.45815 0.0597 0.9851 0.0
C523 C 0.49701 0.90183 -0.00237 0.0
C524 C 0.50849 0.97523 0.01213 0.0
H525 H 0.46493 0.02201 0.04368 0.0
C526 C 0.52632 0.99234 -0.00544 0.0
C527 C 0.48618 0.98611 0.03039 0.0
C528 C 0.46708 0.96909 0.05175 0.0
C529 C 0.52221 0.01992 -0.0058 0.0
C530 C 0.49978 0.03071 0.01212 0.0
C531 C 0.48193 0.01365 0.02963 0.0
C532 C 0.49531 0.05975 0.01472 0.0
C533 C 0.54177 0.0373 0.97429 0.0
C534 C 0.51359 0.07556 0.03347 0.0
C535 C 0.50983 0.10292 0.03589 0.0
C536 C 0.48757 0.1152 0.01975 0.0
C537 C 0.46883 0.0992 0.00177 0.0
C538 C 0.47266 0.07166 -0.00063 0.0
H539 H 0.55364 0.02582 0.95421 0.0
H540 H 0.53147 0.05372 0.95983 0.0
H541 H 0.55569 0.04614 -0.00567 0.0
H542 H 0.53083 0.06672 0.04633 0.0
H543 H 0.52456 0.11443 0.05041 0.0
H544 H 0.19096 0.35532 0.02248 0.0
H545 H 0.21609 0.31325 0.02331 0.0
H546 H 0.28929 0.3571 0.0298 0.0
H547 H 0.26465 0.39864 0.02885 0.0
H548 H 0.2568 0.2994 0.96942 0.0
H549 H 0.29698 0.29988 0.10985 0.0
H550 H 0.26798 0.31883 0.09685 0.0
H551 H 0.3007 0.33135 0.08757 0.0
C552 C 0.21237 0.35584 0.02491 0.0
C553 C 0.22587 0.38022 0.02565 0.0
C554 C 0.22667 0.33187 0.02516 0.0
C555 C 0.25454 0.33208 0.02696 0.0
C556 C 0.26781 0.35643 0.02898 0.0
H557 H 0.4001 0.26574 -0.00729 0.0
H558 H 0.35799 0.28922 -0.00192 0.0
C559 C 0.25368 0.38019 0.02829 0.0
C560 C 0.27047 0.3074 0.024 0.0
H561 H 0.32301 0.27641 0.06456 0.0
C562 C 0.27073 0.29371 -0.0094 0.0
C563 C 0.28859 0.30001 0.05167 0.0
C564 C 0.28841 0.31313 0.08864 0.0
C565 C 0.29023 0.27442 0.98312 0.0
C566 C 0.3097 0.26875 0.00974 0.0
C567 C 0.3081 0.28092 0.0441 0.0
C568 C 0.33415 0.25369 0.00098 0.0
C569 C 0.29123 0.26164 0.94599 0.0
C570 C 0.33458 0.22584 -0.00044 0.0
C571 C 0.35884 0.21223 -0.00382 0.0
C572 C 0.38282 0.22641 -0.0054 0.0
C573 C 0.38198 0.25426 -0.00597 0.0
C574 C 0.35794 0.26773 -0.00283 0.0
H575 H 0.27433 0.26781 0.92842 0.0
H576 H 0.31007 0.26703 0.93219 0.0
H577 H 0.29093 0.23973 0.94894 0.0
H578 H 0.31639 0.21469 0.00265 0.0
H579 H 0.35895 0.19075 -0.00296 0.0
H580 H 0.78718 0.37099 0.45234 0.0
H581 H 0.75802 0.33169 0.45244 0.0
H582 H 0.74722 0.34 0.56858 0.0
H583 H 0.77539 0.37932 0.56833 0.0
H584 H 0.75368 0.28084 0.4963 0.0
H585 H 0.67332 0.35428 0.52092 0.0
H586 H 0.70595 0.36382 0.50566 0.0
H587 H 0.70031 0.35591 0.55285 0.0
C588 C 0.77915 0.36384 0.47791 0.0
C589 C 0.78324 0.3781 0.51028 0.0
C590 C 0.76255 0.34148 0.47799 0.0
C591 C 0.75024 0.33321 0.51049 0.0
C592 C 0.75631 0.34621 0.54321 0.0
H593 H 0.63568 0.20483 0.55275 0.0
H594 H 0.67686 0.23119 0.55228 0.0
C595 C 0.77239 0.36862 0.54302 0.0
C596 C 0.72828 0.31372 0.50996 0.0
H597 H 0.66168 0.30913 0.52491 0.0
C598 C 0.73352 0.28692 0.5024 0.0
C599 C 0.702 0.32183 0.51773 0.0
C600 C 0.69491 0.35055 0.52444 0.0
C601 C 0.71302 0.26794 0.50265 0.0
C602 C 0.68684 0.27606 0.51113 0.0
C603 C 0.68178 0.30287 0.5187 0.0
C604 C 0.66371 0.2579 0.50957 0.0
C605 C 0.71935 0.23955 0.49306 0.0
C606 C 0.64276 0.26417 0.48594 0.0
C607 C 0.61934 0.24966 0.48672 0.0
C608 C 0.61625 0.22828 0.51098 0.0
C609 C 0.63755 0.22121 0.53382 0.0
C610 C 0.66111 0.23611 0.53334 0.0
H611 H 0.73918 0.23759 0.48011 0.0
H612 H 0.71926 0.22739 0.51829 0.0
H613 H 0.70415 0.23137 0.47425 0.0
H614 H 0.6443 0.28081 0.46733 0.0
H615 H 0.60348 0.25543 0.46837 0.0
H616 H 0.73575 0.5987 0.0337 0.0
H617 H 0.71154 0.64057 0.03222 0.0
H618 H 0.78537 0.68351 0.02862 0.0
H619 H 0.81002 0.64121 0.03027 0.0
H620 H 0.71603 0.68778 0.08021 0.0
H621 H 0.74118 0.70562 0.93404 0.0
H622 H 0.74389 0.673 0.9541 0.0
H623 H 0.76733 0.69821 0.96609 0.0
C624 C 0.74692 0.61704 0.03316 0.0
C625 C 0.77478 0.6167 0.03196 0.0
C626 C 0.73304 0.64095 0.03231 0.0
C627 C 0.74665 0.66508 0.02986 0.0
C628 C 0.77453 0.66503 0.0302 0.0
H629 H 0.64582 0.80833 -0.00367 0.0
H630 H 0.68734 0.78266 0.00235 0.0
C631 C 0.78856 0.64093 0.03144 0.0
C632 C 0.73103 0.6898 0.02534 0.0
H633 H 0.70672 0.73119 0.95928 0.0
C634 C 0.71452 0.6978 0.05409 0.0
C635 C 0.72902 0.70273 -0.00885 0.0
C636 C 0.74618 0.69456 0.95937 0.0
C637 C 0.69502 0.71734 0.04896 0.0
C638 C 0.69174 0.72891 0.01409 0.0
C639 C 0.70938 0.72226 0.98596 0.0
C640 C 0.66769 0.74463 0.00544 0.0
C641 C 0.67702 0.72444 0.08035 0.0
C642 C 0.64323 0.73158 0.00369 0.0
C643 C 0.61977 0.74602 0.00023 0.0
C644 C 0.62025 0.77386 -0.00171 0.0
C645 C 0.64489 0.78689 -0.00239 0.0
C646 C 0.66855 0.77231 0.00123 0.0
H647 H 0.68601 0.71905 0.10704 0.0
H648 H 0.6724 0.74599 0.08028 0.0
H649 H 0.65808 0.71345 0.07751 0.0
H650 H 0.64221 0.71021 0.00646 0.0
H651 H 0.60113 0.73536 0.00053 0.0
H652 H 0.40289 0.7381 0.52732 0.0
H653 H 0.36139 0.71349 0.52652 0.0
H654 H 0.3173 0.78686 0.52342 0.0
H655 H 0.35927 0.81194 0.52431 0.0
H656 H 0.31487 0.71756 0.57551 0.0
H657 H 0.29456 0.74231 0.42972 0.0
H658 H 0.32742 0.74552 0.44888 0.0
H659 H 0.30191 0.76854 0.46156 0.0
C660 C 0.38439 0.74909 0.52697 0.0
C661 C 0.3843 0.77694 0.52571 0.0
C662 C 0.36069 0.73498 0.52653 0.0
C663 C 0.33634 0.74835 0.52448 0.0
C664 C 0.33597 0.77622 0.52468 0.0
H665 H 0.19523 0.64499 0.49386 0.0
H666 H 0.22002 0.68694 0.49901 0.0
C667 C 0.35987 0.79048 0.52549 0.0
C668 C 0.31183 0.73244 0.52062 0.0
H669 H 0.27031 0.70723 0.45555 0.0
C670 C 0.30458 0.71582 0.54961 0.0
C671 C 0.29855 0.73016 0.48673 0.0
C672 C 0.30589 0.74746 0.45474 0.0
C673 C 0.28551 0.69591 0.54497 0.0
C674 C 0.27367 0.69232 0.51034 0.0
C675 C 0.27948 0.71009 0.48203 0.0
C676 C 0.25849 0.66796 0.50212 0.0
C677 C 0.27924 0.67781 0.57658 0.0
C678 C 0.27206 0.64371 0.50065 0.0
C679 C 0.25812 0.62 0.49771 0.0
C680 C 0.23027 0.62001 0.496 0.0
C681 C 0.2167 0.64442 0.495 0.0
C682 C 0.23078 0.66833 0.4981 0.0
H683 H 0.28455 0.68702 0.60313 0.0
H684 H 0.25785 0.67259 0.57688 0.0
H685 H 0.29083 0.65918 0.57373 0.0
H686 H 0.29348 0.64309 0.50325 0.0
H687 H 0.26917 0.60154 0.49824 0.0
loop_
_geom_bond_atom_site_label_1
_geom_bond_atom_site_label_2
_geom_bond_distance
_geom_bond_site_symmetry_2
_ccdc_geom_bond_type
Co0 O1 2.216 . S
Co0 O2 2.091 . S
Co0 O4 2.004 . S
Co0 O10 2.021 . S
Co0 O12 2.137 1_554 S
Co0 O13 2.244 1_554 S
O1 Co0 2.216 . S
O1 C8 1.247 . S
O2 Co0 2.091 . S
O2 C8 1.261 . S
C3 O12 1.247 . S
C3 O13 1.272 . S
O4 Co0 2.004 . S
O4 C9 1.259 . S
Co5 O6 2.061 . S
Co5 O11 2.052 . S
Co5 O13 2.135 1_554 S
O6 Co5 2.061 . S
O6 C9 1.235 . S
C7 O10 1.238 . S
C7 O11 1.241 . S
C8 O1 1.247 . S
C8 O2 1.261 . S
C9 O4 1.259 . S
C9 O6 1.235 . S
O10 Co0 2.021 . S
O10 C7 1.238 . S
O11 Co5 2.052 . S
O11 C7 1.241 . S
O12 Co0 2.137 1_556 S
O12 C3 1.247 . S
O13 Co0 2.244 1_556 S
O13 C3 1.272 . S
O13 Co5 2.135 1_556 S
Co14 O15 2.216 . S
Co14 O16 2.091 . S
Co14 O18 2.004 . S
Co14 O24 2.021 . S
Co14 O26 2.137 . S
Co14 O27 2.244 . S
O15 Co14 2.216 . S
O15 C22 1.247 . S
O16 Co14 2.091 . S
O16 C22 1.261 . S
C17 O26 1.247 . S
C17 O27 1.272 . S
O18 Co14 2.004 . S
O18 C23 1.259 . S
Co19 O20 2.061 . S
Co19 O25 2.052 . S
Co19 O27 2.135 . S
O20 Co19 2.061 . S
O20 C23 1.235 . S
C21 O24 1.238 . S
C21 O25 1.241 . S
C22 O15 1.247 . S
C22 O16 1.261 . S
C23 O18 1.259 . S
C23 O20 1.235 . S
O24 Co14 2.021 . S
O24 C21 1.238 . S
O25 Co19 2.052 . S
O25 C21 1.241 . S
O26 Co14 2.137 . S
O26 C17 1.247 . S
O27 Co14 2.244 . S
O27 C17 1.272 . S
O27 Co19 2.135 . S
Co28 O29 2.216 . S
Co28 O30 2.091 . S
Co28 O32 2.004 . S
Co28 O38 2.021 . S
Co28 O40 2.137 1_554 S
Co28 O41 2.244 1_554 S
O29 Co28 2.216 . S
O29 C36 1.247 . S
O30 Co28 2.091 . S
O30 C36 1.261 . S
C31 O40 1.247 . S
C31 O41 1.272 . S
O32 Co28 2.004 . S
O32 C37 1.259 . S
Co33 O34 2.061 . S
Co33 O39 2.052 . S
Co33 O41 2.135 1_554 S
O34 Co33 2.061 . S
O34 C37 1.235 . S
C35 O38 1.238 . S
C35 O39 1.241 . S
C36 O29 1.247 . S
C36 O30 1.261 . S
C37 O32 1.259 . S
C37 O34 1.235 . S
O38 Co28 2.021 . S
O38 C35 1.238 . S
O39 Co33 2.052 . S
O39 C35 1.241 . S
O40 Co28 2.137 1_556 S
O40 C31 1.247 . S
O41 Co28 2.244 1_556 S
O41 C31 1.272 . S
O41 Co33 2.135 1_556 S
Co42 O43 2.216 . S
Co42 O44 2.091 . S
Co42 O46 2.004 . S
Co42 O52 2.021 . S
Co42 O54 2.137 . S
Co42 O55 2.244 . S
O43 Co42 2.216 . S
O43 C50 1.247 . S
O44 Co42 2.091 . S
O44 C50 1.261 . S
C45 O54 1.247 . S
C45 O55 1.272 . S
O46 Co42 2.004 . S
O46 C51 1.259 . S
Co47 O48 2.061 . S
Co47 O53 2.052 . S
Co47 O55 2.135 . S
O48 Co47 2.061 . S
O48 C51 1.235 . S
C49 O52 1.238 . S
C49 O53 1.241 . S
C50 O43 1.247 . S
C50 O44 1.261 . S
C51 O46 1.259 . S
C51 O48 1.235 . S
O52 Co42 2.021 . S
O52 C49 1.238 . S
O53 Co47 2.052 . S
O53 C49 1.241 . S
O54 Co42 2.137 . S
O54 C45 1.247 . S
O55 Co42 2.244 . S
O55 C45 1.272 . S
O55 Co47 2.135 . S
Co56 O57 2.216 . S
Co56 O58 2.091 . S
Co56 O60 2.004 . S
Co56 O66 2.021 . S
Co56 O68 2.137 . S
Co56 O69 2.244 . S
O57 Co56 2.216 . S
O57 C64 1.247 . S
O58 Co56 2.091 . S
O58 C64 1.261 . S
C59 O68 1.247 . S
C59 O69 1.272 . S
O60 Co56 2.004 . S
O60 C65 1.259 . S
Co61 O62 2.061 . S
Co61 O67 2.052 . S
Co61 O69 2.135 . S
O62 Co61 2.061 . S
O62 C65 1.235 . S
C63 O66 1.238 . S
C63 O67 1.241 . S
C64 O57 1.247 . S
C64 O58 1.261 . S
C65 O60 1.259 . S
C65 O62 1.235 . S
O66 Co56 2.021 . S
O66 C63 1.238 . S
O67 Co61 2.052 . S
O67 C63 1.241 . S
O68 Co56 2.137 . S
O68 C59 1.247 . S
O69 Co56 2.244 . S
O69 C59 1.272 . S
O69 Co61 2.135 . S
Co70 O71 2.216 . S
Co70 O72 2.091 . S
Co70 O74 2.004 . S
Co70 O80 2.021 1_554 S
Co70 O82 2.137 . S
Co70 O83 2.244 . S
O71 Co70 2.216 . S
O71 C78 1.247 . S
O72 Co70 2.091 . S
O72 C78 1.261 . S
C73 O82 1.247 . S
C73 O83 1.272 . S
O74 Co70 2.004 . S
O74 C79 1.259 . S
Co75 O76 2.061 . S
Co75 O81 2.052 1_554 S
Co75 O83 2.135 . S
O76 Co75 2.061 . S
O76 C79 1.235 . S
C77 O80 1.238 . S
C77 O81 1.241 . S
C78 O71 1.247 . S
C78 O72 1.261 . S
C79 O74 1.259 . S
C79 O76 1.235 . S
O80 Co70 2.021 1_556 S
O80 C77 1.238 . S
O81 Co75 2.052 1_556 S
O81 C77 1.241 . S
O82 Co70 2.137 . S
O82 C73 1.247 . S
O83 Co70 2.244 . S
O83 C73 1.272 . S
O83 Co75 2.135 . S
Co84 O85 2.216 . S
Co84 O86 2.091 . S
Co84 O88 2.004 . S
Co84 O94 2.021 . S
Co84 O96 2.137 . S
Co84 O97 2.244 . S
O85 Co84 2.216 . S
O85 C92 1.247 . S
O86 Co84 2.091 . S
O86 C92 1.261 . S
C87 O96 1.247 . S
C87 O97 1.272 . S
O88 Co84 2.004 . S
O88 C93 1.259 . S
Co89 O90 2.061 . S
Co89 O95 2.052 . S
Co89 O97 2.135 . S
O90 Co89 2.061 . S
O90 C93 1.235 . S
C91 O94 1.238 . S
C91 O95 1.241 . S
C92 O85 1.247 . S
C92 O86 1.261 . S
C93 O88 1.259 . S
C93 O90 1.235 . S
O94 Co84 2.021 . S
O94 C91 1.238 . S
O95 Co89 2.052 . S
O95 C91 1.241 . S
O96 Co84 2.137 . S
O96 C87 1.247 . S
O97 Co84 2.244 . S
O97 C87 1.272 . S
O97 Co89 2.135 . S
Co98 O99 2.216 . S
Co98 O100 2.091 . S
Co98 O102 2.004 . S
Co98 O108 2.021 1_554 S
Co98 O110 2.137 . S
Co98 O111 2.244 . S
O99 Co98 2.216 . S
O99 C106 1.247 . S
O100 Co98 2.091 . S
O100 C106 1.261 . S
C101 O110 1.247 . S
C101 O111 1.272 . S
O102 Co98 2.004 . S
O102 C107 1.259 . S
Co103 O104 2.061 . S
Co103 O109 2.052 1_554 S
Co103 O111 2.135 . S
O104 Co103 2.061 . S
O104 C107 1.235 . S
C105 O108 1.238 . S
C105 O109 1.241 . S
C106 O99 1.247 . S
C106 O100 1.261 . S
C107 O102 1.259 . S
C107 O104 1.235 . S
O108 Co98 2.021 1_556 S
O108 C105 1.238 . S
O109 Co103 2.052 1_556 S
O109 C105 1.241 . S
O110 Co98 2.137 . S
O110 C101 1.247 . S
O111 Co98 2.244 . S
O111 C101 1.272 . S
O111 Co103 2.135 . S
H112 C120 0.929 . S
H113 C122 0.930 . S
H114 C124 0.930 . S
H115 C127 0.929 . S
H116 C130 0.930 . S
H117 C132 0.960 . S
H118 C132 0.960 . S
H119 C132 0.960 . S
C120 H112 0.929 . S
C120 C121 1.377 . S
C120 C122 1.384 . S
C121 C120 1.377 . S
C121 C127 1.390 . S
C122 H113 0.930 . S
C122 C120 1.384 . S
C122 C123 1.372 . S
C123 C122 1.372 . S
C123 C124 1.400 . S
C123 C128 1.490 . S
C124 H114 0.930 . S
C124 C123 1.400 . S
C124 C127 1.386 . S
H125 C141 0.930 . S
H126 C142 0.931 . S
C127 H115 0.929 . S
C127 C121 1.390 . S
C127 C124 1.386 . S
C128 C123 1.490 . S
C128 C130 1.395 . S
C128 C131 1.403 . S
H129 C135 0.930 . S
C130 H116 0.930 . S
C130 C128 1.395 . S
C130 C133 1.403 . S
C131 C128 1.403 . S
C131 C132 1.524 . S
C131 C135 1.400 . S
C132 H117 0.960 . S
C132 H118 0.960 . S
C132 H119 0.960 . S
C132 C131 1.524 . S
C133 C130 1.403 . S
C133 C134 1.392 . S
C133 C137 1.495 . S
C134 C133 1.392 . S
C134 C135 1.385 . S
C134 C136 1.478 . S
C135 H129 0.930 . S
C135 C131 1.400 . S
C135 C134 1.385 . S
C136 C134 1.478 . S
C136 C138 1.381 . S
C136 C142 1.383 . S
C137 C133 1.495 . S
C137 H143 0.959 . S
C137 H144 0.961 . S
C137 H145 0.960 . S
C138 C136 1.381 . S
C138 C139 1.394 . S
C138 H146 0.930 . S
C139 C138 1.394 . S
C139 C140 1.383 . S
C139 H147 0.929 . S
C140 C139 1.383 . S
C140 C141 1.377 . S
C141 H125 0.930 . S
C141 C140 1.377 . S
C141 C142 1.379 . S
C142 H126 0.931 . S
C142 C136 1.383 . S
C142 C141 1.379 . S
H143 C137 0.959 . S
H144 C137 0.961 . S
H145 C137 0.960 . S
H146 C138 0.930 . S
H147 C139 0.929 . S
H148 C156 0.929 . S
H149 C158 0.930 . S
H150 C160 0.930 . S
H151 C163 0.929 . S
H152 C166 0.930 . S
H153 C168 0.960 . S
H154 C168 0.960 . S
H155 C168 0.960 . S
C156 H148 0.929 . S
C156 C157 1.377 . S
C156 C158 1.384 . S
C157 C156 1.377 . S
C157 C163 1.390 . S
C158 H149 0.930 . S
C158 C156 1.384 . S
C158 C159 1.372 . S
C159 C158 1.372 . S
C159 C160 1.400 . S
C159 C164 1.490 . S
C160 H150 0.930 . S
C160 C159 1.400 . S
C160 C163 1.386 . S
H161 C177 0.930 . S
H162 C178 0.931 . S
C163 H151 0.929 . S
C163 C157 1.390 . S
C163 C160 1.386 . S
C164 C159 1.490 . S
C164 C166 1.395 . S
C164 C167 1.403 . S
H165 C171 0.930 . S
C166 H152 0.930 . S
C166 C164 1.395 . S
C166 C169 1.403 . S
C167 C164 1.403 . S
C167 C168 1.524 . S
C167 C171 1.400 . S
C168 H153 0.960 . S
C168 H154 0.960 . S
C168 H155 0.960 . S
C168 C167 1.524 . S
C169 C166 1.403 . S
C169 C170 1.392 . S
C169 C173 1.495 . S
C170 C169 1.392 . S
C170 C171 1.385 . S
C170 C172 1.478 . S
C171 H165 0.930 . S
C171 C167 1.400 . S
C171 C170 1.385 . S
C172 C170 1.478 . S
C172 C174 1.381 . S
C172 C178 1.383 . S
C173 C169 1.495 . S
C173 H179 0.959 . S
C173 H180 0.961 . S
C173 H181 0.960 . S
C174 C172 1.381 . S
C174 C175 1.394 . S
C174 H182 0.930 . S
C175 C174 1.394 . S
C175 C176 1.383 . S
C175 H183 0.929 . S
C176 C175 1.383 . S
C176 C177 1.377 . S
C177 H161 0.930 . S
C177 C176 1.377 . S
C177 C178 1.379 . S
C178 H162 0.931 . S
C178 C172 1.383 . S
C178 C177 1.379 . S
H179 C173 0.959 . S
H180 C173 0.961 . S
H181 C173 0.960 . S
H182 C174 0.930 . S
H183 C175 0.929 . S
H184 C192 0.929 . S
H185 C194 0.930 . S
H186 C196 0.930 . S
H187 C199 0.929 . S
H188 C202 0.930 . S
H189 C204 0.960 . S
H190 C204 0.960 . S
H191 C204 0.960 . S
C192 H184 0.929 . S
C192 C193 1.377 . S
C192 C194 1.384 . S
C193 C192 1.377 . S
C193 C199 1.390 . S
C194 H185 0.930 . S
C194 C192 1.384 . S
C194 C195 1.372 . S
C195 C194 1.372 . S
C195 C196 1.400 . S
C195 C200 1.490 . S
C196 H186 0.930 . S
C196 C195 1.400 . S
C196 C199 1.386 . S
H197 C213 0.930 . S
H198 C214 0.931 . S
C199 H187 0.929 . S
C199 C193 1.390 . S
C199 C196 1.386 . S
C200 C195 1.490 . S
C200 C202 1.395 . S
C200 C203 1.403 . S
H201 C207 0.930 . S
C202 H188 0.930 . S
C202 C200 1.395 . S
C202 C205 1.403 . S
C203 C200 1.403 . S
C203 C204 1.524 . S
C203 C207 1.400 . S
C204 H189 0.960 . S
C204 H190 0.960 . S
C204 H191 0.960 . S
C204 C203 1.524 . S
C205 C202 1.403 . S
C205 C206 1.392 . S
C205 C209 1.495 . S
C206 C205 1.392 . S
C206 C207 1.385 . S
C206 C208 1.478 . S
C207 H201 0.930 . S
C207 C203 1.400 . S
C207 C206 1.385 . S
C208 C206 1.478 . S
C208 C210 1.381 . S
C208 C214 1.383 . S
C209 C205 1.495 . S
C209 H215 0.959 . S
C209 H216 0.961 . S
C209 H217 0.960 . S
C210 C208 1.381 . S
C210 C211 1.394 . S
C210 H218 0.930 . S
C211 C210 1.394 . S
C211 C212 1.383 . S
C211 H219 0.929 . S
C212 C211 1.383 . S
C212 C213 1.377 . S
C213 H197 0.930 . S
C213 C212 1.377 . S
C213 C214 1.379 . S
C214 H198 0.931 . S
C214 C208 1.383 . S
C214 C213 1.379 . S
H215 C209 0.959 . S
H216 C209 0.961 . S
H217 C209 0.960 . S
H218 C210 0.930 . S
H219 C211 0.929 . S
H220 C228 0.929 . S
H221 C230 0.930 . S
H222 C232 0.930 . S
H223 C235 0.929 . S
H224 C238 0.930 . S
H225 C240 0.960 . S
H226 C240 0.960 . S
H227 C240 0.960 . S
C228 H220 0.929 . S
C228 C229 1.377 . S
C228 C230 1.384 . S
C229 C228 1.377 . S
C229 C235 1.390 . S
C230 H221 0.930 . S
C230 C228 1.384 . S
C230 C231 1.372 . S
C231 C230 1.372 . S
C231 C232 1.400 . S
C231 C236 1.490 . S
C232 H222 0.930 . S
C232 C231 1.400 . S
C232 C235 1.386 . S
H233 C249 0.930 . S
H234 C250 0.931 . S
C235 H223 0.929 . S
C235 C229 1.390 . S
C235 C232 1.386 . S
C236 C231 1.490 . S
C236 C238 1.395 . S
C236 C239 1.403 . S
H237 C243 0.930 . S
C238 H224 0.930 . S
C238 C236 1.395 . S
C238 C241 1.403 . S
C239 C236 1.403 . S
C239 C240 1.524 . S
C239 C243 1.400 . S
C240 H225 0.960 . S
C240 H226 0.960 . S
C240 H227 0.960 . S
C240 C239 1.524 . S
C241 C238 1.403 . S
C241 C242 1.392 . S
C241 C245 1.495 . S
C242 C241 1.392 . S
C242 C243 1.385 . S
C242 C244 1.478 . S
C243 H237 0.930 . S
C243 C239 1.400 . S
C243 C242 1.385 . S
C244 C242 1.478 . S
C244 C246 1.381 . S
C244 C250 1.383 . S
C245 C241 1.495 . S
C245 H251 0.959 . S
C245 H252 0.961 . S
C245 H253 0.960 . S
C246 C244 1.381 . S
C246 C247 1.394 . S
C246 H254 0.930 . S
C247 C246 1.394 . S
C247 C248 1.383 . S
C247 H255 0.929 . S
C248 C247 1.383 . S
C248 C249 1.377 . S
C249 H233 0.930 . S
C249 C248 1.377 . S
C249 C250 1.379 . S
C250 H234 0.931 . S
C250 C244 1.383 . S
C250 C249 1.379 . S
H251 C245 0.959 . S
H252 C245 0.961 . S
H253 C245 0.960 . S
H254 C246 0.930 . S
H255 C247 0.929 . S
H256 C264 0.929 . S
H257 C266 0.930 . S
H258 C268 0.930 . S
H259 C271 0.929 . S
H260 C274 0.930 . S
H261 C276 0.960 . S
H262 C276 0.960 . S
H263 C276 0.960 . S
C264 H256 0.929 . S
C264 C265 1.377 . S
C264 C266 1.384 . S
C265 C264 1.377 . S
C265 C271 1.390 . S
C266 H257 0.930 . S
C266 C264 1.384 . S
C266 C267 1.372 . S
C267 C266 1.372 . S
C267 C268 1.400 . S
C267 C272 1.490 . S
C268 H258 0.930 . S
C268 C267 1.400 . S
C268 C271 1.386 . S
H269 C285 0.930 . S
H270 C286 0.931 . S
C271 H259 0.929 . S
C271 C265 1.390 . S
C271 C268 1.386 . S
C272 C267 1.490 . S
C272 C274 1.395 . S
C272 C275 1.403 . S
H273 C279 0.930 . S
C274 H260 0.930 . S
C274 C272 1.395 . S
C274 C277 1.403 . S
C275 C272 1.403 . S
C275 C276 1.524 . S
C275 C279 1.400 . S
C276 H261 0.960 . S
C276 H262 0.960 . S
C276 H263 0.960 . S
C276 C275 1.524 . S
C277 C274 1.403 . S
C277 C278 1.392 . S
C277 C281 1.495 . S
C278 C277 1.392 . S
C278 C279 1.385 . S
C278 C280 1.478 . S
C279 H273 0.930 . S
C279 C275 1.400 . S
C279 C278 1.385 . S
C280 C278 1.478 . S
C280 C282 1.381 . S
C280 C286 1.383 . S
C281 C277 1.495 . S
C281 H287 0.959 . S
C281 H288 0.961 . S
C281 H289 0.960 . S
C282 C280 1.381 . S
C282 C283 1.394 . S
C282 H290 0.930 . S
C283 C282 1.394 . S
C283 C284 1.383 . S
C283 H291 0.929 . S
C284 C283 1.383 . S
C284 C285 1.377 . S
C285 H269 0.930 . S
C285 C284 1.377 . S
C285 C286 1.379 . S
C286 H270 0.931 . S
C286 C280 1.383 . S
C286 C285 1.379 . S
H287 C281 0.959 . S
H288 C281 0.961 . S
H289 C281 0.960 . S
H290 C282 0.930 . S
H291 C283 0.929 . S
H292 C300 0.929 . S
H293 C302 0.930 . S
H294 C304 0.930 . S
H295 C307 0.929 . S
H296 C310 0.930 . S
H297 C312 0.960 . S
H298 C312 0.960 . S
H299 C312 0.960 . S
C300 H292 0.929 . S
C300 C301 1.377 . S
C300 C302 1.384 . S
C301 C300 1.377 . S
C301 C307 1.390 . S
C302 H293 0.930 . S
C302 C300 1.384 . S
C302 C303 1.372 . S
C303 C302 1.372 . S
C303 C304 1.400 . S
C303 C308 1.490 . S
C304 H294 0.930 . S
C304 C303 1.400 . S
C304 C307 1.386 . S
H305 C321 0.930 . S
H306 C322 0.931 . S
C307 H295 0.929 . S
C307 C301 1.390 . S
C307 C304 1.386 . S
C308 C303 1.490 . S
C308 C310 1.395 . S
C308 C311 1.403 . S
H309 C315 0.930 . S
C310 H296 0.930 . S
C310 C308 1.395 . S
C310 C313 1.403 . S
C311 C308 1.403 . S
C311 C312 1.524 . S
C311 C315 1.400 . S
C312 H297 0.960 . S
C312 H298 0.960 . S
C312 H299 0.960 . S
C312 C311 1.524 . S
C313 C310 1.403 . S
C313 C314 1.392 . S
C313 C317 1.495 . S
C314 C313 1.392 . S
C314 C315 1.385 . S
C314 C316 1.478 . S
C315 H309 0.930 . S
C315 C311 1.400 . S
C315 C314 1.385 . S
C316 C314 1.478 . S
C316 C318 1.381 . S
C316 C322 1.383 . S
C317 C313 1.495 . S
C317 H323 0.959 . S
C317 H324 0.961 . S
C317 H325 0.960 . S
C318 C316 1.381 . S
C318 C319 1.394 . S
C318 H326 0.930 . S
C319 C318 1.394 . S
C319 C320 1.383 . S
C319 H327 0.929 . S
C320 C319 1.383 . S
C320 C321 1.377 . S
C321 H305 0.930 . S
C321 C320 1.377 . S
C321 C322 1.379 . S
C322 H306 0.931 . S
C322 C316 1.383 . S
C322 C321 1.379 . S
H323 C317 0.959 . S
H324 C317 0.961 . S
H325 C317 0.960 . S
H326 C318 0.930 . S
H327 C319 0.929 . S
H328 C336 0.929 . S
H329 C338 0.930 . S
H330 C340 0.930 . S
H331 C343 0.929 . S
H332 C346 0.930 . S
H333 C348 0.960 . S
H334 C348 0.960 . S
H335 C348 0.960 . S
C336 H328 0.929 . S
C336 C337 1.377 . S
C336 C338 1.384 . S
C337 C336 1.377 . S
C337 C343 1.390 . S
C338 H329 0.930 . S
C338 C336 1.384 . S
C338 C339 1.372 . S
C339 C338 1.372 . S
C339 C340 1.400 . S
C339 C344 1.490 . S
C340 H330 0.930 . S
C340 C339 1.400 . S
C340 C343 1.386 . S
H341 C357 0.930 . S
H342 C358 0.931 . S
C343 H331 0.929 . S
C343 C337 1.390 . S
C343 C340 1.386 . S
C344 C339 1.490 . S
C344 C346 1.395 . S
C344 C347 1.403 . S
H345 C351 0.930 . S
C346 H332 0.930 . S
C346 C344 1.395 . S
C346 C349 1.403 . S
C347 C344 1.403 . S
C347 C348 1.524 . S
C347 C351 1.400 . S
C348 H333 0.960 . S
C348 H334 0.960 . S
C348 H335 0.960 . S
C348 C347 1.524 . S
C349 C346 1.403 . S
C349 C350 1.392 . S
C349 C353 1.495 . S
C350 C349 1.392 . S
C350 C351 1.385 . S
C350 C352 1.478 . S
C351 H345 0.930 . S
C351 C347 1.400 . S
C351 C350 1.385 . S
C352 C350 1.478 . S
C352 C354 1.381 . S
C352 C358 1.383 . S
C353 C349 1.495 . S
C353 H359 0.959 . S
C353 H360 0.961 . S
C353 H361 0.960 . S
C354 C352 1.381 . S
C354 C355 1.394 . S
C354 H362 0.930 . S
C355 C354 1.394 . S
C355 C356 1.383 . S
C355 H363 0.929 . S
C356 C355 1.383 . S
C356 C357 1.377 . S
C357 H341 0.930 . S
C357 C356 1.377 . S
C357 C358 1.379 . S
C358 H342 0.931 . S
C358 C352 1.383 . S
C358 C357 1.379 . S
H359 C353 0.959 . S
H360 C353 0.961 . S
H361 C353 0.960 . S
H362 C354 0.930 . S
H363 C355 0.929 . S
H364 C372 0.929 . S
H365 C374 0.930 . S
H366 C376 0.930 . S
H367 C379 0.929 . S
H368 C382 0.930 . S
H369 C384 0.960 . S
H370 C384 0.960 . S
H371 C384 0.960 . S
C372 H364 0.929 . S
C372 C373 1.377 . S
C372 C374 1.384 . S
C373 C372 1.377 . S
C373 C379 1.390 . S
C374 H365 0.930 . S
C374 C372 1.384 . S
C374 C375 1.372 . S
C375 C374 1.372 . S
C375 C376 1.400 . S
C375 C380 1.490 . S
C376 H366 0.930 . S
C376 C375 1.400 . S
C376 C379 1.386 . S
H377 C393 0.930 . S
H378 C394 0.931 . S
C379 H367 0.929 . S
C379 C373 1.390 . S
C379 C376 1.386 . S
C380 C375 1.490 . S
C380 C382 1.395 . S
C380 C383 1.403 . S
H381 C387 0.930 . S
C382 H368 0.930 . S
C382 C380 1.395 . S
C382 C385 1.403 . S
C383 C380 1.403 . S
C383 C384 1.524 . S
C383 C387 1.400 . S
C384 H369 0.960 . S
C384 H370 0.960 . S
C384 H371 0.960 . S
C384 C383 1.524 . S
C385 C382 1.403 . S
C385 C386 1.392 . S
C385 C389 1.495 . S
C386 C385 1.392 . S
C386 C387 1.385 . S
C386 C388 1.478 . S
C387 H381 0.930 . S
C387 C383 1.400 . S
C387 C386 1.385 . S
C388 C386 1.478 . S
C388 C390 1.381 . S
C388 C394 1.383 . S
C389 C385 1.495 . S
C389 H395 0.959 . S
C389 H396 0.961 . S
C389 H397 0.960 . S
C390 C388 1.381 . S
C390 C391 1.394 . S
C390 H398 0.930 . S
C391 C390 1.394 . S
C391 C392 1.383 . S
C391 H399 0.929 . S
C392 C391 1.383 . S
C392 C393 1.377 . S
C393 H377 0.930 . S
C393 C392 1.377 . S
C393 C394 1.379 . S
C394 H378 0.931 . S
C394 C388 1.383 . S
C394 C393 1.379 . S
H395 C389 0.959 . S
H396 C389 0.961 . S
H397 C389 0.960 . S
H398 C390 0.930 . S
H399 C391 0.929 . S
H400 C408 0.929 . S
H401 C410 0.930 . S
H402 C412 0.930 . S
H403 C415 0.929 . S
H404 C418 0.930 . S
H405 C420 0.987 . S
H406 C420 0.960 . S
H407 C420 0.960 . S
C408 H400 0.929 . S
C408 C409 1.377 . S
C408 C410 1.384 . S
C409 C408 1.377 . S
C409 C415 1.390 . S
C410 H401 0.930 . S
C410 C408 1.384 . S
C410 C411 1.372 . S
C411 C410 1.372 . S
C411 C412 1.400 . S
C411 C416 1.490 . S
C412 H402 0.930 . S
C412 C411 1.400 . S
C412 C415 1.386 . S
H413 C429 0.930 . S
H414 C430 0.931 . S
C415 H403 0.929 . S
C415 C409 1.390 . S
C415 C412 1.386 . S
C416 C411 1.490 . S
C416 C418 1.395 1_554 S
C416 C419 1.403 . S
H417 C423 0.930 . S
C418 H404 0.930 . S
C418 C416 1.395 1_556 S
C418 C421 1.403 1_655 S
C419 C416 1.403 . S
C419 C420 1.524 . S
C419 C423 1.400 1_655 S
C420 H405 0.987 . S
C420 H406 0.960 . S
C420 H407 0.960 . S
C420 C419 1.524 . S
C421 C418 1.403 1_455 S
C421 C422 1.392 1_556 S
C421 C425 1.495 . S
C422 C421 1.392 1_554 S
C422 C423 1.385 . S
C422 C424 1.478 . S
C423 H417 0.930 . S
C423 C419 1.400 1_455 S
C423 C422 1.385 . S
C424 C422 1.478 . S
C424 C426 1.381 . S
C424 C430 1.383 . S
C425 C421 1.495 . S
C425 H431 0.961 . S
C425 H432 0.961 . S
C425 H433 0.960 . S
C426 C424 1.381 . S
C426 C427 1.394 . S
C426 H434 0.930 . S
C427 C426 1.394 . S
C427 C428 1.383 . S
C427 H435 0.929 . S
C428 C427 1.383 . S
C428 C429 1.377 . S
C429 H413 0.930 . S
C429 C428 1.377 . S
C429 C430 1.379 . S
C430 H414 0.931 . S
C430 C424 1.383 . S
C430 C429 1.379 . S
H431 C425 0.961 . S
H432 C425 0.961 . S
H433 C425 0.960 . S
H434 C426 0.930 . S
H435 C427 0.929 . S
H436 C444 0.929 . S
H437 C446 0.930 . S
H438 C448 0.930 . S
H439 C451 0.929 . S
H440 C454 0.930 . S
H441 C456 0.960 . S
H442 C456 0.960 . S
H443 C456 0.960 . S
C444 H436 0.929 . S
C444 C445 1.377 . S
C444 C446 1.384 . S
C445 C444 1.377 . S
C445 C451 1.390 . S
C446 H437 0.930 . S
C446 C444 1.384 . S
C446 C447 1.372 . S
C447 C446 1.372 . S
C447 C448 1.400 . S
C447 C452 1.490 . S
C448 H438 0.930 . S
C448 C447 1.400 . S
C448 C451 1.386 . S
H449 C465 0.930 . S
H450 C466 0.931 . S
C451 H439 0.929 . S
C451 C445 1.390 . S
C451 C448 1.386 . S
C452 C447 1.490 . S
C452 C454 1.395 . S
C452 C455 1.403 . S
H453 C459 0.930 . S
C454 H440 0.930 . S
C454 C452 1.395 . S
C454 C457 1.403 1_565 S
C455 C452 1.403 . S
C455 C456 1.524 . S
C455 C459 1.400 1_565 S
C456 H441 0.960 . S
C456 H442 0.960 . S
C456 H443 0.960 . S
C456 C455 1.524 . S
C457 C454 1.403 1_545 S
C457 C458 1.392 . S
C457 C461 1.495 . S
C458 C457 1.392 . S
C458 C459 1.385 . S
C458 C460 1.478 . S
C459 H453 0.930 . S
C459 C455 1.400 1_545 S
C459 C458 1.385 . S
C460 C458 1.478 . S
C460 C462 1.381 . S
C460 C466 1.383 . S
C461 C457 1.495 . S
C461 H467 0.959 . S
C461 H468 0.961 . S
C461 H469 0.960 . S
C462 C460 1.381 . S
C462 C463 1.394 . S
C462 H470 0.930 . S
C463 C462 1.394 . S
C463 C464 1.383 . S
C463 H471 0.929 . S
C464 C463 1.383 . S
C464 C465 1.377 . S
C465 H449 0.930 . S
C465 C464 1.377 . S
C465 C466 1.379 . S
C466 H450 0.931 . S
C466 C460 1.383 . S
C466 C465 1.379 . S
H467 C461 0.959 . S
H468 C461 0.961 . S
H469 C461 0.960 . S
H470 C462 0.930 . S
H471 C463 0.929 . S
H472 C480 0.929 . S
H473 C482 0.930 . S
H474 C484 0.930 . S
H475 C487 0.929 . S
H476 C490 0.930 . S
H477 C492 0.960 . S
H478 C492 0.960 . S
H479 C492 0.960 . S
C480 H472 0.929 . S
C480 C481 1.377 . S
C480 C482 1.384 . S
C481 C480 1.377 . S
C481 C487 1.390 . S
C482 H473 0.930 . S
C482 C480 1.384 . S
C482 C483 1.372 . S
C483 C482 1.372 . S
C483 C484 1.400 . S
C483 C488 1.490 . S
C484 H474 0.930 . S
C484 C483 1.400 . S
C484 C487 1.386 . S
H485 C501 0.930 . S
H486 C502 0.931 . S
C487 H475 0.929 . S
C487 C481 1.390 . S
C487 C484 1.386 . S
C488 C483 1.490 . S
C488 C490 1.395 . S
C488 C491 1.403 . S
H489 C495 0.930 . S
C490 H476 0.930 . S
C490 C488 1.395 . S
C490 C493 1.403 1_455 S
C491 C488 1.403 . S
C491 C492 1.524 . S
C491 C495 1.400 1_455 S
C492 H477 0.960 . S
C492 H478 0.960 . S
C492 H479 0.960 . S
C492 C491 1.524 . S
C493 C490 1.403 1_655 S
C493 C494 1.392 . S
C493 C497 1.495 . S
C494 C493 1.392 . S
C494 C495 1.385 . S
C494 C496 1.478 . S
C495 H489 0.930 . S
C495 C491 1.400 1_655 S
C495 C494 1.385 . S
C496 C494 1.478 . S
C496 C498 1.381 . S
C496 C502 1.383 . S
C497 C493 1.495 . S
C497 H503 0.959 . S
C497 H504 0.961 . S
C497 H505 0.960 . S
C498 C496 1.381 . S
C498 C499 1.394 . S
C498 H506 0.930 . S
C499 C498 1.394 . S
C499 C500 1.383 . S
C499 H507 0.929 . S
C500 C499 1.383 . S
C500 C501 1.377 . S
C501 H485 0.930 . S
C501 C500 1.377 . S
C501 C502 1.379 . S
C502 H486 0.931 . S
C502 C496 1.383 . S
C502 C501 1.379 . S
H503 C497 0.959 . S
H504 C497 0.961 . S
H505 C497 0.960 . S
H506 C498 0.930 . S
H507 C499 0.929 . S
H508 C516 0.929 . S
H509 C518 0.930 . S
H510 C520 0.930 1_556 S
H511 C523 0.915 1_556 S
H512 C526 0.930 . S
H513 C528 0.960 . S
H514 C528 0.960 . S
H515 C528 0.960 . S
C516 H508 0.929 . S
C516 C517 1.377 . S
C516 C518 1.384 . S
C517 C516 1.377 . S
C517 C523 1.404 . S
C518 H509 0.930 . S
C518 C516 1.384 . S
C518 C519 1.372 . S
C519 C518 1.372 . S
C519 C520 1.400 . S
C519 C524 1.490 . S
C520 H510 0.930 1_554 S
C520 C519 1.400 . S
C520 C523 1.386 . S
H521 C537 0.930 . S
H522 C538 0.931 . S
C523 H511 0.915 1_554 S
C523 C517 1.404 . S
C523 C520 1.386 . S
C524 C519 1.490 . S
C524 C526 1.395 . S
C524 C527 1.403 . S
H525 C531 0.930 . S
C526 H512 0.930 . S
C526 C524 1.395 . S
C526 C529 1.403 1_565 S
C527 C524 1.403 . S
C527 C528 1.524 . S
C527 C531 1.400 1_565 S
C528 H513 0.960 . S
C528 H514 0.960 . S
C528 H515 0.960 . S
C528 C527 1.524 . S
C529 C526 1.403 1_545 S
C529 C530 1.392 . S
C529 C533 1.495 . S
C530 C529 1.392 . S
C530 C531 1.385 . S
C530 C532 1.478 . S
C531 H525 0.930 . S
C531 C527 1.400 1_545 S
C531 C530 1.385 . S
C532 C530 1.478 . S
C532 C534 1.381 . S
C532 C538 1.383 1_554 S
C533 C529 1.495 . S
C533 H539 0.959 . S
C533 H540 0.961 1_554 S
C533 H541 0.960 . S
C534 C532 1.381 . S
C534 C535 1.394 . S
C534 H542 0.930 . S
C535 C534 1.394 . S
C535 C536 1.383 . S
C535 H543 0.929 . S
C536 C535 1.383 . S
C536 C537 1.377 1_554 S
C537 H521 0.930 . S
C537 C536 1.377 1_556 S
C537 C538 1.379 . S
C538 H522 0.931 . S
C538 C532 1.383 1_556 S
C538 C537 1.379 . S
H539 C533 0.959 . S
H540 C533 0.961 1_556 S
H541 C533 0.960 . S
H542 C534 0.930 . S
H543 C535 0.929 . S
H544 C552 0.929 . S
H545 C554 0.930 . S
H546 C556 0.930 . S
H547 C559 0.929 . S
H548 C562 0.921 1_556 S
H549 C564 0.960 . S
H550 C564 0.960 . S
H551 C564 0.960 . S
C552 H544 0.929 . S
C552 C553 1.377 . S
C552 C554 1.384 . S
C553 C552 1.377 . S
C553 C559 1.390 . S
C554 H545 0.930 . S
C554 C552 1.384 . S
C554 C555 1.372 . S
C555 C554 1.372 . S
C555 C556 1.400 . S
C555 C560 1.490 . S
C556 H546 0.930 . S
C556 C555 1.400 . S
C556 C559 1.386 . S
H557 C573 0.930 1_556 S
H558 C574 0.931 1_556 S
C559 H547 0.929 . S
C559 C553 1.390 . S
C559 C556 1.386 . S
C560 C555 1.490 . S
C560 C562 1.405 . S
C560 C563 1.403 . S
H561 C567 0.930 . S
C562 H548 0.921 1_554 S
C562 C560 1.405 . S
C562 C565 1.402 1_554 S
C563 C560 1.403 . S
C563 C564 1.524 . S
C563 C567 1.400 . S
C564 H549 0.960 . S
C564 H550 0.960 . S
C564 H551 0.960 . S
C564 C563 1.524 . S
C565 C562 1.402 1_556 S
C565 C566 1.392 1_556 S
C565 C569 1.495 . S
C566 C565 1.392 1_554 S
C566 C567 1.385 . S
C566 C568 1.478 . S
C567 H561 0.930 . S
C567 C563 1.400 . S
C567 C566 1.385 . S
C568 C566 1.478 . S
C568 C570 1.381 . S
C568 C574 1.383 . S
C569 C565 1.495 . S
C569 H575 0.959 . S
C569 H576 0.961 . S
C569 H577 0.960 . S
C570 C568 1.381 . S
C570 C571 1.394 . S
C570 H578 0.930 . S
C571 C570 1.394 . S
C571 C572 1.383 . S
C571 H579 0.929 . S
C572 C571 1.383 . S
C572 C573 1.377 . S
C573 H557 0.930 1_554 S
C573 C572 1.377 . S
C573 C574 1.379 . S
C574 H558 0.931 1_554 S
C574 C568 1.383 . S
C574 C573 1.379 . S
H575 C569 0.959 . S
H576 C569 0.961 . S
H577 C569 0.960 . S
H578 C570 0.930 . S
H579 C571 0.929 . S
H580 C588 0.929 . S
H581 C590 0.930 . S
H582 C592 0.930 . S
H583 C595 0.929 . S
H584 C598 0.930 . S
H585 C600 0.960 . S
H586 C600 0.960 . S
H587 C600 0.960 . S
C588 H580 0.929 . S
C588 C589 1.377 . S
C588 C590 1.384 . S
C589 C588 1.377 . S
C589 C595 1.390 . S
C590 H581 0.930 . S
C590 C588 1.384 . S
C590 C591 1.372 . S
C591 C590 1.372 . S
C591 C592 1.400 . S
C591 C596 1.490 . S
C592 H582 0.930 . S
C592 C591 1.400 . S
C592 C595 1.386 . S
H593 C609 0.930 . S
H594 C610 0.931 . S
C595 H583 0.929 . S
C595 C589 1.390 . S
C595 C592 1.386 . S
C596 C591 1.490 . S
C596 C598 1.395 . S
C596 C599 1.403 . S
H597 C603 0.930 . S
C598 H584 0.930 . S
C598 C596 1.395 . S
C598 C601 1.403 . S
C599 C596 1.403 . S
C599 C600 1.524 . S
C599 C603 1.400 . S
C600 H585 0.960 . S
C600 H586 0.960 . S
C600 H587 0.960 . S
C600 C599 1.524 . S
C601 C598 1.403 . S
C601 C602 1.392 . S
C601 C605 1.495 . S
C602 C601 1.392 . S
C602 C603 1.385 . S
C602 C604 1.478 . S
C603 H597 0.930 . S
C603 C599 1.400 . S
C603 C602 1.385 . S
C604 C602 1.478 . S
C604 C606 1.381 . S
C604 C610 1.383 . S
C605 C601 1.495 . S
C605 H611 0.959 . S
C605 H612 0.961 . S
C605 H613 0.960 . S
C606 C604 1.381 . S
C606 C607 1.394 . S
C606 H614 0.930 . S
C607 C606 1.394 . S
C607 C608 1.383 . S
C607 H615 0.929 . S
C608 C607 1.383 . S
C608 C609 1.377 . S
C609 H593 0.930 . S
C609 C608 1.377 . S
C609 C610 1.379 . S
C610 H594 0.931 . S
C610 C604 1.383 . S
C610 C609 1.379 . S
H611 C605 0.959 . S
H612 C605 0.961 . S
H613 C605 0.960 . S
H614 C606 0.930 . S
H615 C607 0.929 . S
H616 C624 0.929 . S
H617 C626 0.930 . S
H618 C628 0.930 . S
H619 C631 0.929 . S
H620 C634 0.930 . S
H621 C636 0.960 . S
H622 C636 0.960 . S
H623 C636 0.960 . S
C624 H616 0.929 . S
C624 C625 1.377 . S
C624 C626 1.384 . S
C625 C624 1.377 . S
C625 C631 1.390 . S
C626 H617 0.930 . S
C626 C624 1.384 . S
C626 C627 1.372 . S
C627 C626 1.372 . S
C627 C628 1.400 . S
C627 C632 1.490 . S
C628 H618 0.930 . S
C628 C627 1.400 . S
C628 C631 1.386 . S
H629 C645 0.930 . S
H630 C646 0.931 . S
C631 H619 0.929 . S
C631 C625 1.390 . S
C631 C628 1.386 . S
C632 C627 1.490 . S
C632 C634 1.395 . S
C632 C635 1.403 1_554 S
H633 C639 0.930 . S
C634 H620 0.930 . S
C634 C632 1.395 . S
C634 C637 1.403 . S
C635 C632 1.403 1_556 S
C635 C636 1.524 . S
C635 C639 1.400 . S
C636 H621 0.960 . S
C636 H622 0.960 . S
C636 H623 0.960 . S
C636 C635 1.524 . S
C637 C634 1.403 . S
C637 C638 1.392 . S
C637 C641 1.495 . S
C638 C637 1.392 . S
C638 C639 1.385 1_554 S
C638 C640 1.478 . S
C639 H633 0.930 . S
C639 C635 1.400 . S
C639 C638 1.385 1_556 S
C640 C638 1.478 . S
C640 C642 1.381 . S
C640 C646 1.383 . S
C641 C637 1.495 . S
C641 H647 0.959 . S
C641 H648 0.961 . S
C641 H649 0.960 . S
C642 C640 1.381 . S
C642 C643 1.394 . S
C642 H650 0.930 . S
C643 C642 1.394 . S
C643 C644 1.383 . S
C643 H651 0.929 . S
C644 C643 1.383 . S
C644 C645 1.377 . S
C645 H629 0.930 . S
C645 C644 1.377 . S
C645 C646 1.379 . S
C646 H630 0.931 . S
C646 C640 1.383 . S
C646 C645 1.379 . S
H647 C641 0.959 . S
H648 C641 0.961 . S
H649 C641 0.960 . S
H650 C642 0.930 . S
H651 C643 0.929 . S
H652 C660 0.929 . S
H653 C662 0.930 . S
H654 C664 0.930 . S
H655 C667 0.929 . S
H656 C670 0.930 . S
H657 C672 0.960 . S
H658 C672 0.960 . S
H659 C672 0.960 . S
C660 H652 0.929 . S
C660 C661 1.377 . S
C660 C662 1.384 . S
C661 C660 1.377 . S
C661 C667 1.390 . S
C662 H653 0.930 . S
C662 C660 1.384 . S
C662 C663 1.372 . S
C663 C662 1.372 . S
C663 C664 1.400 . S
C663 C668 1.490 . S
C664 H654 0.930 . S
C664 C663 1.400 . S
C664 C667 1.386 . S
H665 C681 0.930 . S
H666 C682 0.931 . S
C667 H655 0.929 . S
C667 C661 1.390 . S
C667 C664 1.386 . S
C668 C663 1.490 . S
C668 C670 1.395 . S
C668 C671 1.403 . S
H669 C675 0.930 . S
C670 H656 0.930 . S
C670 C668 1.395 . S
C670 C673 1.403 . S
C671 C668 1.403 . S
C671 C672 1.524 . S
C671 C675 1.400 . S
C672 H657 0.960 . S
C672 H658 0.960 . S
C672 H659 0.960 . S
C672 C671 1.524 . S
C673 C670 1.403 . S
C673 C674 1.392 . S
C673 C677 1.495 . S
C674 C673 1.392 . S
C674 C675 1.385 . S
C674 C676 1.478 . S
C675 H669 0.930 . S
C675 C671 1.400 . S
C675 C674 1.385 . S
C676 C674 1.478 . S
C676 C678 1.381 . S
C676 C682 1.383 . S
C677 C673 1.495 . S
C677 H683 0.959 . S
C677 H684 0.961 . S
C677 H685 0.960 . S
C678 C676 1.381 . S
C678 C679 1.394 . S
C678 H686 0.930 . S
C679 C678 1.394 . S
C679 C680 1.383 . S
C679 H687 0.929 . S
C680 C679 1.383 . S
C680 C681 1.377 . S
C681 H665 0.930 . S
C681 C680 1.377 . S
C681 C682 1.379 . S
C682 H666 0.931 . S
C682 C676 1.383 . S
C682 C681 1.379 . S
H683 C677 0.959 . S
H684 C677 0.961 . S
H685 C677 0.960 . S
H686 C678 0.930 . S
H687 C679 0.929 . S
C121 C7 1.208 . S
C140 C63 1.205 . S
C157 C21 1.203 . S
C176 C77 1.223 . S
C193 C91 1.208 . S
C212 C35 1.191 . S
C229 C105 1.206 . S
C248 C49 1.180 . S
C265 C87 1.072 . S
C284 C31 1.046 . S
C301 C101 1.082 . S
C320 C45 1.099 . S
C337 C3 1.082 . S
C356 C59 1.089 . S
C373 C17 1.084 . S
C392 C73 1.106 . S
C409 C37 1.300 . S
C428 C9 1.312 . S
C445 C51 1.308 . S
C464 C23 1.306 . S
C481 C65 1.299 . S
C500 C93 1.272 . S
C517 C107 1.301 . S
C536 C79 1.274 . S
C553 C8 1.313 . S
C572 C78 1.314 . S
C589 C92 1.313 . S
C608 C22 1.310 . S
C625 C36 1.311 . S
C644 C106 1.305 . S
C661 C50 1.311 . S
C680 C64 1.305 . S
