# Generated by pormake.
# Topology snk, (6)-cn, num edge types: 1
# Building blocks:
#     Node 0, Type 0, BuildingBlock: PAMTUU_clean_sbu_0, # of connection points: 6
#     Node 1, Type 0, BuildingBlock: PAMTUU_clean_sbu_0, # of connection points: 6
#     Node 2, Type 0, BuildingBlock: PAMTUU_clean_sbu_0, # of connection points: 6
#     Node 3, Type 0, BuildingBlock: PAMTUU_clean_sbu_0, # of connection points: 6
#     Node 4, Type 0, BuildingBlock: PAMTUU_clean_sbu_0, # of connection points: 6
#     Node 5, Type 0, BuildingBlock: PAMTUU_clean_sbu_0, # of connection points: 6
#     Node 6, Type 0, BuildingBlock: PAMTUU_clean_sbu_0, # of connection points: 6
#     Node 7, Type 0, BuildingBlock: PAMTUU_clean_sbu_0, # of connection points: 6
#     Edge 8, Type (0, 0), BuildingBlock: KIFKEQ_clean_linker_1, # of connection points: 2
#     Edge 9, Type (0, 0), BuildingBlock: KIFKEQ_clean_linker_1, # of connection points: 2
#     Edge 10, Type (0, 0), BuildingBlock: KIFKEQ_clean_linker_1, # of connection points: 2
#     Edge 11, Type (0, 0), BuildingBlock: KIFKEQ_clean_linker_1, # of connection points: 2
#     Edge 12, Type (0, 0), BuildingBlock: KIFKEQ_clean_linker_1, # of connection points: 2
#     Edge 13, Type (0, 0), BuildingBlock: KIFKEQ_clean_linker_1, # of connection points: 2
#     Edge 14, Type (0, 0), BuildingBlock: KIFKEQ_clean_linker_1, # of connection points: 2
#     Edge 15, Type (0, 0), BuildingBlock: KIFKEQ_clean_linker_1, # of connection points: 2
#     Edge 16, Type (0, 0), BuildingBlock: KIFKEQ_clean_linker_1, # of connection points: 2
#     Edge 17, Type (0, 0), BuildingBlock: KIFKEQ_clean_linker_1, # of connection points: 2
#     Edge 18, Type (0, 0), BuildingBlock: KIFKEQ_clean_linker_1, # of connection points: 2
#     Edge 19, Type (0, 0), BuildingBlock: KIFKEQ_clean_linker_1, # of connection points: 2
#     Edge 20, Type (0, 0), BuildingBlock: KIFKEQ_clean_linker_1, # of connection points: 2
#     Edge 21, Type (0, 0), BuildingBlock: KIFKEQ_clean_linker_1, # of connection points: 2
#     Edge 22, Type (0, 0), BuildingBlock: KIFKEQ_clean_linker_1, # of connection points: 2
#     Edge 23, Type (0, 0), BuildingBlock: KIFKEQ_clean_linker_1, # of connection points: 2
#     Edge 24, Type (0, 0), BuildingBlock: KIFKEQ_clean_linker_1, # of connection points: 2
#     Edge 25, Type (0, 0), BuildingBlock: KIFKEQ_clean_linker_1, # of connection points: 2
#     Edge 26, Type (0, 0), BuildingBlock: KIFKEQ_clean_linker_1, # of connection points: 2
#     Edge 27, Type (0, 0), BuildingBlock: KIFKEQ_clean_linker_1, # of connection points: 2
#     Edge 28, Type (0, 0), BuildingBlock: KIFKEQ_clean_linker_1, # of connection points: 2
#     Edge 29, Type (0, 0), BuildingBlock: KIFKEQ_clean_linker_1, # of connection points: 2
#     Edge 30, Type (0, 0), BuildingBlock: KIFKEQ_clean_linker_1, # of connection points: 2
#     Edge 31, Type (0, 0), BuildingBlock: KIFKEQ_clean_linker_1, # of connection points: 2
# Relax obj value: 0.079
# Max RMSD: 0.123
# Mean RMSD: 0.123
data_MOF--net-snk--node1-PAMTUU_clean_sbu_0--edge1-KIFKEQ_clean_linker_1
_symmetry_space_group_name_H-M    P1
_symmetry_Int_Tables_number       1
_symmetry_cell_setting            triclinic
loop_
_symmetry_equiv_pos_as_xyz
'x, y, z'
_cell_length_a     39.58714
_cell_length_b     39.684563
_cell_length_c     25.532675
_cell_angle_alpha  90.051691
_cell_angle_beta   90.058771
_cell_angle_gamma 90.035354
loop_
_atom_site_label
_atom_site_type_symbol
_atom_site_fract_x
_atom_site_fract_y
_atom_site_fract_z
_atom_type_partial_charge
Tb0 Tb -0.00895 0.01056 0.58485 0.0
Tb1 Tb -0.00894 0.96599 0.47363 0.0
C2 C 0.94768 0.03124 0.48634 0.0
C3 C -0.00726 0.03264 0.72714 0.0
C4 C -0.0053 0.01625 0.83492 0.0
C5 C -0.00275 0.04997 0.81819 0.0
C6 C -0.00377 0.05804 0.76488 0.0
C7 C 0.99067 -0.0011 0.74331 0.0
C8 C -0.00837 -0.00923 0.7967 0.0
C9 C 0.9905 0.04183 0.67134 0.0
O10 O 0.96592 0.96352 0.60223 0.0
O11 O 0.9479 0.94912 0.51953 0.0
O12 O 0.01595 0.93458 0.53142 0.0
O13 O 0.03372 0.97615 0.58799 0.0
O14 O 0.96354 0.94462 0.41177 0.0
O15 O 0.01778 0.93959 0.41518 0.0
O16 O 0.03409 -2e-05 0.47083 0.0
O17 O 0.01718 0.04164 0.52797 0.0
O18 O 0.94872 0.02829 0.53763 0.0
O19 O 0.96757 0.01375 0.45562 0.0
C20 C 0.94595 0.94656 0.57078 0.0
O21 O 0.01759 0.03706 0.64333 0.0
O22 O 0.96344 0.03172 0.6468 0.0
C23 C 0.03534 0.94517 0.56987 0.0
C24 C -0.00707 0.94483 0.33119 0.0
C25 C -0.00474 0.96134 0.22347 0.0
C26 C 0.00973 0.93123 0.242 0.0
C27 C 0.00847 0.92303 0.2953 0.0
C28 C 0.9791 0.97528 0.31309 0.0
C29 C 0.98012 0.98337 0.25975 0.0
C30 C 0.99069 0.93512 0.38692 0.0
C31 C 0.0362 0.03085 0.48928 0.0
H32 H 0.00023 0.0702 0.8463 0.0
H33 H -0.00202 0.08421 0.75311 0.0
H34 H 0.98792 0.97891 0.71467 0.0
H35 H 0.98925 0.9646 0.80804 0.0
H36 H 0.02134 0.91359 0.2151 0.0
H37 H 0.01931 0.89945 0.30845 0.0
H38 H 0.96724 -0.00733 0.3401 0.0
H39 H 0.96918 0.00698 0.24694 0.0
Tb40 Tb 0.21821 0.73973 0.83838 0.0
Tb41 Tb 0.2625 0.7383 0.7274 0.0
C42 C 0.19846 0.693 0.74484 0.0
C43 C 0.19629 0.73838 0.98045 0.0
C44 C 0.21283 0.7354 0.08814 0.0
C45 C 0.18066 0.7255 0.07033 0.0
C46 C 0.17248 0.72706 1.01702 0.0
C47 C 0.22865 0.74773 0.99781 0.0
C48 C 0.23679 0.74639 0.05117 0.0
C49 C 0.18686 0.74077 0.92466 0.0
O50 O 0.25316 0.69764 0.84345 0.0
O51 O 0.29443 0.71391 0.78505 0.0
O52 O 0.27952 0.78179 0.77245 0.0
O53 O 0.26572 0.76436 0.85546 0.0
O54 O 0.28864 0.7113 0.66907 0.0
O55 O 0.28342 0.76531 0.66474 0.0
O56 O 0.21438 0.76139 0.7093 0.0
O57 O 0.20137 0.78205 0.79077 0.0
O58 O 0.18715 0.71361 0.78109 0.0
O59 O 0.22976 0.69434 0.72795 0.0
C60 C 0.284 0.69549 0.82463 0.0
O61 O 0.19709 0.76765 0.89996 0.0
O62 O 0.1911 0.71365 0.89659 0.0
C63 C 0.28271 0.78396 0.82361 0.0
C64 C 0.28389 0.73554 0.58481 0.0
C65 C 0.26761 0.73343 0.47692 0.0
C66 C 0.30064 0.72645 0.49435 0.0
C67 C 0.30867 0.72756 0.5477 0.0
C68 C 0.25072 0.74187 0.56797 0.0
C69 C 0.24266 0.74089 0.51454 0.0
C70 C 0.2933 0.73812 0.64054 0.0
C71 C 0.19776 0.7823 0.73957 0.0
H72 H 0.16153 0.7172 0.09774 0.0
H73 H 0.14739 0.71971 1.00439 0.0
H74 H 0.24755 0.75626 0.97017 0.0
H75 H 0.26193 0.75376 0.06345 0.0
H76 H 0.32036 0.71999 0.46676 0.0
H77 H 0.33437 0.72245 0.55998 0.0
H78 H 0.23119 0.74805 0.59607 0.0
H79 H 0.21706 0.74674 0.50267 0.0
Tb80 Tb 0.49202 0.97278 0.07581 0.0
Tb81 Tb 0.49101 0.01617 0.9641 0.0
C82 C 0.53568 0.9522 0.97762 0.0
C83 C 0.49229 0.95098 0.21846 0.0
C84 C 0.48973 0.96753 0.32607 0.0
C85 C 0.50731 0.9388 0.30878 0.0
C86 C 0.50852 0.93062 0.25554 0.0
C87 C 0.47474 0.97976 0.2353 0.0
C88 C 0.47332 0.98787 0.2887 0.0
C89 C 0.49478 0.94213 0.16253 0.0
O90 O 0.51372 0.0217 0.09222 0.0
O91 O 0.5343 0.03295 1.01024 0.0
O92 O 0.4643 0.04701 1.02092 0.0
O93 O 0.44817 0.00554 0.07886 0.0
O94 O 0.51838 0.0373 0.90187 0.0
O95 O 0.4643 0.04286 0.90622 0.0
O96 O 0.44882 0.98107 0.96096 0.0
O97 O 0.46642 0.94065 1.01965 0.0
O98 O 0.53469 0.95595 0.02877 0.0
O99 O 0.51542 0.96881 0.94627 0.0
C100 C 0.53443 0.03782 0.06111 0.0
O101 O 0.46735 0.94503 0.13451 0.0
O102 O 0.52113 0.95386 0.13802 0.0
C103 C 0.44532 0.03613 0.05965 0.0
C104 C 0.48859 0.03852 0.82211 0.0
C105 C 0.48566 0.02196 0.71448 0.0
C106 C 0.48723 0.05582 0.73087 0.0
C107 C 0.48869 0.06397 0.78415 0.0
C108 C 0.48674 0.0047 0.80625 0.0
C109 C 0.4853 -0.00351 0.75291 0.0
C110 C 0.49124 0.04762 0.87786 0.0
C111 C 0.44699 0.95055 0.98082 0.0
H112 H 0.51987 0.9224 0.33651 0.0
H113 H 0.52226 0.90837 0.24327 0.0
H114 H 0.46234 -0.00397 0.20719 0.0
H115 H 0.45989 0.01036 0.30064 0.0
H116 H 0.48806 0.07606 0.7025 0.0
H117 H 0.49025 0.09021 0.7957 0.0
H118 H 0.4866 0.98469 0.8351 0.0
H119 H 0.4837 0.97019 0.74181 0.0
Tb120 Tb 0.25986 0.23927 0.32985 0.0
Tb121 Tb 0.21578 0.23869 0.21813 0.0
C122 C 0.27991 0.28347 0.23236 0.0
C123 C 0.28217 0.23872 0.47238 0.0
C124 C 0.26573 0.23606 0.58005 0.0
C125 C 0.29655 0.25004 0.56327 0.0
C126 C 0.30466 0.25131 0.51 0.0
C127 C 0.25134 0.22472 0.48869 0.0
C128 C 0.24326 0.22326 0.5421 0.0
C129 C 0.291 0.24126 0.41645 0.0
O130 O 0.21141 0.26193 0.34685 0.0
O131 O 0.19835 0.2813 0.26466 0.0
O132 O 0.18495 0.21184 0.27482 0.0
O133 O 0.22644 0.19598 0.33322 0.0
O134 O 0.19521 0.26623 0.15557 0.0
O135 O 0.18862 0.21239 0.16024 0.0
O136 O 0.25095 0.19685 0.21403 0.0
O137 O 0.2917 0.2136 0.27323 0.0
O138 O 0.27612 0.28233 0.28346 0.0
O139 O 0.26343 0.26307 0.20099 0.0
C140 C 0.1946 0.28219 0.31579 0.0
O141 O 0.28745 0.21406 0.38828 0.0
O142 O 0.27965 0.26779 0.39212 0.0
C143 C 0.19579 0.19314 0.31388 0.0
C144 C 0.19352 0.23635 0.07593 0.0
C145 C 0.21026 0.23288 0.96837 0.0
C146 C 0.1767 0.23849 0.98443 0.0
C147 C 0.16846 0.24019 0.03764 0.0
C148 C 0.22702 0.23057 0.06042 0.0
C149 C 0.23532 0.22883 1.00713 0.0
C150 C 0.18441 0.23927 0.13167 0.0
C151 C 0.28161 0.1949 0.23362 0.0
H152 H 0.31461 0.25974 0.59139 0.0
H153 H 0.32854 0.26226 0.49815 0.0
H154 H 0.23347 0.21516 0.46015 0.0
H155 H 0.21916 0.21267 0.55362 0.0
H156 H 0.15682 0.24226 0.95587 0.0
H157 H 0.1425 0.24486 0.0489 0.0
H158 H 0.24674 0.22755 0.08952 0.0
H159 H 0.26133 0.22409 0.99632 0.0
Tb160 Tb 0.72069 0.23853 0.33391 0.0
Tb161 Tb 0.76535 0.24048 0.22239 0.0
C162 C 0.69944 0.19602 0.23552 0.0
C163 C 0.69997 0.23496 0.4767 0.0
C164 C 0.71632 0.23223 0.58459 0.0
C165 C 0.686 0.21814 0.56564 0.0
C166 C 0.67792 0.21958 0.51231 0.0
C167 C 0.7306 0.24842 0.49505 0.0
C168 C 0.73864 0.24718 0.54845 0.0
C169 C 0.69024 0.2374 0.42099 0.0
O170 O 0.75451 0.19552 0.33395 0.0
O171 O 0.79658 0.215 0.28002 0.0
O172 O 0.78182 0.2831 0.26952 0.0
O173 O 0.76772 0.26401 0.35168 0.0
O174 O 0.79311 0.21445 0.16495 0.0
O175 O 0.78633 0.2683 0.16059 0.0
O176 O 0.71826 0.26571 0.20512 0.0
O177 O 0.70158 0.2808 0.28838 0.0
O178 O 0.68922 0.21335 0.27642 0.0
O179 O 0.72994 0.19886 0.21566 0.0
C180 C 0.78576 0.19461 0.31687 0.0
O181 O 0.69906 0.2649 0.39668 0.0
O182 O 0.69541 0.21074 0.39226 0.0
C183 C 0.78441 0.2845 0.3208 0.0
C184 C 0.78798 0.2385 0.08082 0.0
C185 C 0.77125 0.23468 0.97332 0.0
C186 C 0.80512 0.23265 0.98989 0.0
C187 C 0.81337 0.2346 0.04312 0.0
C188 C 0.7541 0.24012 0.06473 0.0
C189 C 0.74582 0.23832 1.01145 0.0
C190 C 0.79721 0.24143 0.13655 0.0
C191 C 0.69989 0.28393 0.23715 0.0
H192 H 0.66849 0.20584 0.59199 0.0
H193 H 0.65426 0.20884 0.4989 0.0
H194 H 0.74812 0.2603 0.46823 0.0
H195 H 0.76202 0.25861 0.5615 0.0
H196 H 0.82535 0.23023 0.96162 0.0
H197 H 0.83966 0.23336 0.05483 0.0
H198 H 0.73411 0.24297 0.09336 0.0
H199 H 0.71947 0.23955 1.00013 0.0
Tb200 Tb 0.76274 0.74034 0.83569 0.0
Tb201 Tb 0.71807 0.73764 0.72394 0.0
C202 C 0.78193 0.78351 0.73643 0.0
C203 C 0.78588 0.73978 0.97788 0.0
C204 C 0.77007 0.73596 0.08588 0.0
C205 C 0.79585 0.75747 0.06783 0.0
C206 C 0.80366 0.7593 1.01446 0.0
C207 C 0.75998 0.7184 0.99546 0.0
C208 C 0.75221 0.71644 0.04892 0.0
C209 C 0.79442 0.74258 0.92174 0.0
O210 O 0.71532 0.76513 0.85227 0.0
O211 O 0.69926 0.78034 0.76885 0.0
O212 O 0.68703 0.71218 0.78158 0.0
O213 O 0.72789 0.69826 0.84257 0.0
O214 O 0.69638 0.76381 0.66096 0.0
O215 O 0.69252 0.70974 0.66595 0.0
O216 O 0.75259 0.69516 0.72347 0.0
O217 O 0.7942 0.71468 0.77856 0.0
O218 O 0.77934 0.7825 0.78774 0.0
O219 O 0.76504 0.76299 0.70577 0.0
C220 C 0.69731 0.78354 0.82003 0.0
O221 O 0.79125 0.71542 0.89329 0.0
O222 O 0.78275 0.76908 0.89766 0.0
C223 C 0.69746 0.69495 0.82246 0.0
C224 C 0.69648 0.73371 0.58146 0.0
C225 C 0.7132 0.73169 0.47383 0.0
C226 C 0.67938 0.72897 0.49031 0.0
C227 C 0.67114 0.72999 0.54357 0.0
C228 C 0.73034 0.73593 0.56552 0.0
C229 C 0.73863 0.7349 0.51218 0.0
C230 C 0.68707 0.73628 0.63714 0.0
C231 C 0.78375 0.69444 0.74114 0.0
H232 H 0.80974 0.77333 0.09484 0.0
H233 H 0.82354 0.77616 1.00168 0.0
H234 H 0.74581 0.70317 0.96793 0.0
H235 H 0.73246 0.69933 0.06129 0.0
H236 H 0.6592 0.72591 0.46202 0.0
H237 H 0.64488 0.72814 0.55516 0.0
H238 H 0.75027 0.73889 0.59428 0.0
H239 H 0.76489 0.7374 0.50096 0.0
Tb240 Tb 0.49081 0.51307 0.09237 0.0
Tb241 Tb 0.49122 0.46969 0.9805 0.0
C242 C 0.44521 0.53361 0.99702 0.0
C243 C 0.48876 0.53526 0.23452 0.0
C244 C 0.48549 0.51863 0.34204 0.0
C245 C 0.48858 0.55241 0.32589 0.0
C246 C 0.49019 0.5606 0.27267 0.0
C247 C 0.48545 0.50152 0.25014 0.0
C248 C 0.48383 0.49327 0.30342 0.0
C249 C 0.49154 0.54436 0.17882 0.0
O250 O 0.44813 0.47855 0.09516 0.0
O251 O 0.46543 0.43785 0.03671 0.0
O252 O 0.53404 0.45279 1.02726 0.0
O253 O 0.51482 0.46549 0.10978 0.0
O254 O 0.4661 0.44215 0.92188 0.0
O255 O 0.51997 0.45032 0.91827 0.0
O256 O 0.51329 0.5184 0.96399 0.0
O257 O 0.53397 0.5298 0.046 0.0
O258 O 0.46432 0.54422 0.03584 0.0
O259 O 0.44779 0.50305 0.97745 0.0
C260 C 0.44599 0.44802 0.07531 0.0
O261 O 0.51852 0.53367 0.15483 0.0
O262 O 0.46452 0.54004 0.15037 0.0
C263 C 0.53513 0.44901 0.07838 0.0
C264 C 0.49094 0.44758 0.83791 0.0
C265 C 0.48848 0.46396 0.73027 0.0
C266 C 0.50479 0.43447 0.74747 0.0
C267 C 0.50595 0.42638 0.80072 0.0
C268 C 0.47463 0.47709 0.82116 0.0
C269 C 0.47327 0.48512 0.76774 0.0
C270 C 0.49343 0.43883 0.89384 0.0
C271 C 0.53404 0.53456 0.9951 0.0
H272 H 0.49045 0.57254 0.3544 0.0
H273 H 0.49291 0.58676 0.2613 0.0
H274 H 0.48428 0.4816 0.22113 0.0
H275 H 0.48105 0.46706 0.31434 0.0
H276 H 0.51641 0.41742 0.71967 0.0
H277 H 0.51872 0.40355 0.81293 0.0
H278 H 0.46318 0.49399 0.84936 0.0
H279 H 0.46084 0.50819 0.75587 0.0
Tb280 Tb -0.0076 0.47098 0.57926 0.0
Tb281 Tb -0.00854 0.51538 0.46839 0.0
C282 C 0.03427 0.44867 0.48174 0.0
C283 C -0.00418 0.45013 0.722 0.0
C284 C -0.00124 0.46629 0.82995 0.0
C285 C 0.0106 0.43501 0.8114 0.0
C286 C 0.00906 0.42703 0.75804 0.0
C287 C 0.98466 0.48168 0.73996 0.0
C288 C 0.98602 0.48964 0.79338 0.0
C289 C -0.00708 0.44053 0.6663 0.0
O290 O 0.03703 0.50293 0.57785 0.0
O291 O 0.01759 0.54601 0.52611 0.0
O292 O 0.94932 0.53299 0.51604 0.0
O293 O 0.96949 0.51904 0.5975 0.0
O294 O 0.01828 0.54206 0.41057 0.0
O295 O 0.9641 0.53697 0.40651 0.0
O296 O 0.96509 0.46897 0.45112 0.0
O297 O 0.94883 0.4538 0.53438 0.0
O298 O 0.01527 0.43864 0.52088 0.0
O299 O 0.03315 0.47969 0.46365 0.0
C300 C 0.03837 0.53436 0.56188 0.0
O301 O 0.96556 0.45025 0.64221 0.0
O302 O 0.01969 0.44488 0.6374 0.0
C303 C 0.94886 0.5361 0.56733 0.0
C304 C -0.00624 0.53761 0.32648 0.0
C305 C -0.00311 0.52094 0.21886 0.0
C306 C 0.00194 0.55435 0.23579 0.0
C307 C 0.00032 0.56257 0.28906 0.0
C308 C 0.9891 0.50416 0.31003 0.0
C309 C 0.99056 0.49592 0.2567 0.0
C310 C -0.0087 0.54692 0.38226 0.0
C311 C 0.94589 0.45166 0.48316 0.0
H312 H 0.02118 0.41664 0.83811 0.0
H313 H 0.01798 0.40263 0.74494 0.0
H314 H 0.97441 0.49997 0.71279 0.0
H315 H 0.97634 0.51381 0.8061 0.0
H316 H 0.00647 0.5743 0.20775 0.0
H317 H 0.00392 0.58853 0.30101 0.0
H318 H 0.98417 0.48447 0.33839 0.0
H319 H 0.98699 0.46989 0.24514 0.0
H320 H 0.06177 0.08954 0.52915 0.0
H321 H 0.06365 0.02593 0.39166 0.0
H322 H 0.10026 0.12902 0.48612 0.0
H323 H 0.10182 0.06558 0.34873 0.0
H324 H 0.13729 0.16684 0.2737 0.0
H325 H 0.09841 0.12751 0.31636 0.0
H326 H 0.16215 0.12643 0.45361 0.0
H327 H 0.20115 0.16534 0.41113 0.0
C328 C 0.07037 0.08401 0.48981 0.0
C329 C 0.05983 0.05457 0.46389 0.0
C330 C 0.09245 0.10651 0.46532 0.0
C331 C 0.1039 0.10029 0.41415 0.0
C332 C 0.09315 0.07104 0.38806 0.0
C333 C 0.07153 0.04826 0.41283 0.0
C334 C 0.143 0.15817 0.31293 0.0
C335 C 0.17232 0.1691 0.33896 0.0
C336 C 0.12085 0.1356 0.3372 0.0
C337 C 0.12733 0.12406 0.38824 0.0
C338 C 0.15648 0.13517 0.41439 0.0
C339 C 0.17888 0.15725 0.38987 0.0
H340 H 0.04595 0.87893 0.54481 0.0
H341 H 0.07863 0.95722 0.65138 0.0
H342 H 0.08452 0.83947 0.58672 0.0
H343 H 0.11764 0.91788 0.69247 0.0
H344 H 0.18403 0.79009 0.6354 0.0
H345 H 0.14492 0.82943 0.59482 0.0
H346 H 0.11747 0.86761 0.74746 0.0
H347 H 0.15715 0.82863 0.78826 0.0
C348 C 0.06146 0.88781 0.57696 0.0
C349 C 0.05922 0.92129 0.5946 0.0
C350 C 0.08369 0.8652 0.60083 0.0
C351 C 0.10418 0.87555 0.64289 0.0
C352 C 0.1019 0.90901 0.66058 0.0
C353 C 0.07969 0.93162 0.63672 0.0
C354 C 0.1697 0.80685 0.66044 0.0
C355 C 0.17379 0.80621 0.71515 0.0
C356 C 0.1471 0.82927 0.63711 0.0
C357 C 0.12804 0.85161 0.6679 0.0
C358 C 0.1321 0.85099 0.72262 0.0
C359 C 0.15472 0.82853 0.746 0.0
H360 H 0.29605 0.79551 0.92713 0.0
H361 H 0.3236 0.82843 0.77149 0.0
H362 H 0.33542 0.83595 0.96464 0.0
H363 H 0.36351 0.86852 0.80925 0.0
H364 H 0.40392 0.96064 0.89835 0.0
H365 H 0.36415 0.92064 0.86034 0.0
H366 H 0.39605 0.84523 0.97181 0.0
H367 H 0.43536 0.88534 1.01059 0.0
C368 C 0.31055 0.81129 0.90084 0.0
C369 C 0.30663 0.8087 0.84623 0.0
C370 C 0.33329 0.83435 0.92241 0.0
C371 C 0.35266 0.85538 0.88994 0.0
C372 C 0.34867 0.85292 0.83534 0.0
C373 C 0.32592 0.82981 0.81371 0.0
C374 C 0.40243 0.93557 0.9149 0.0
C375 C 0.42278 0.92627 0.9577 0.0
C376 C 0.37977 0.91257 0.89283 0.0
C377 C 0.37693 0.87977 0.91306 0.0
C378 C 0.39731 0.87045 0.95577 0.0
C379 C 0.41998 0.89343 0.97783 0.0
H380 H 0.41637 0.03039 0.15614 0.0
H381 H 0.42002 0.09497 1.01999 0.0
H382 H 0.37743 0.06947 0.19842 0.0
H383 H 0.38069 0.1339 0.06241 0.0
H384 H 0.27829 0.16878 0.13499 0.0
H385 H 0.31843 0.13092 0.09263 0.0
H386 H 0.37993 0.13089 0.23234 0.0
H387 H 0.3399 0.16909 0.27489 0.0
C388 C 0.40876 0.05283 0.13513 0.0
C389 C 0.4212 0.05956 0.08463 0.0
C390 C 0.38667 0.07529 0.15954 0.0
C391 C 0.37615 0.10465 0.13367 0.0
C392 C 0.38832 0.11131 0.08304 0.0
C393 C 0.41087 0.0891 0.0589 0.0
C394 C 0.30032 0.16065 0.15679 0.0
C395 C 0.30589 0.17178 0.2084 0.0
C396 C 0.32338 0.1392 0.13235 0.0
C397 C 0.3522 0.12804 0.15927 0.0
C398 C 0.35775 0.13901 0.21091 0.0
C399 C 0.33495 0.16093 0.23512 0.0
H400 H 0.92111 0.9478 0.67017 0.0
H401 H 0.91469 0.89279 0.52444 0.0
H402 H 0.88059 0.90946 0.70958 0.0
H403 H 0.87539 0.85324 0.56454 0.0
H404 H 0.78173 0.80614 0.6356 0.0
H405 H 0.82019 0.84634 0.59546 0.0
H406 H 0.87473 0.85476 0.74181 0.0
H407 H 0.83515 0.81586 0.78245 0.0
C408 C 0.91121 0.9273 0.64667 0.0
C409 C 0.92106 0.92331 0.59419 0.0
C410 C 0.88812 0.90511 0.66939 0.0
C411 C 0.87473 0.87801 0.64047 0.0
C412 C 0.88465 0.8741 0.58786 0.0
C413 C 0.90735 0.89666 0.56486 0.0
C414 C 0.8019 0.81668 0.6592 0.0
C415 C 0.80536 0.80793 0.71223 0.0
C416 C 0.82414 0.83959 0.63608 0.0
C417 C 0.85072 0.85389 0.66523 0.0
C418 C 0.85422 0.84487 0.7183 0.0
C419 C 0.83163 0.82238 0.74162 0.0
H420 H 0.94069 0.04588 0.38241 0.0
H421 H 0.90113 0.07167 0.53509 0.0
H422 H 0.90172 0.08531 0.34189 0.0
H423 H 0.86246 0.11171 0.4943 0.0
H424 H 0.85246 0.1846 0.29309 0.0
H425 H 0.89185 0.1459 0.33511 0.0
H426 H 0.81237 0.11142 0.43779 0.0
H427 H 0.77312 0.15042 0.39657 0.0
C428 C 0.92376 0.06 0.40744 0.0
C429 C 0.924 0.0555 0.46208 0.0
C430 C 0.90157 0.08282 0.38414 0.0
C431 C 0.87905 0.10167 0.41486 0.0
C432 C 0.87927 0.09726 0.46951 0.0
C433 C 0.90154 0.07443 0.4929 0.0
C434 C 0.84335 0.16875 0.32457 0.0
C435 C 0.8096 0.17059 0.34133 0.0
C436 C 0.8659 0.14648 0.34852 0.0
C437 C 0.85522 0.12561 0.38979 0.0
C438 C 0.82149 0.12747 0.40655 0.0
C439 C 0.79893 0.14967 0.38259 0.0
H440 H 0.69545 0.18147 0.13169 0.0
H441 H 0.64922 0.15934 0.28071 0.0
H442 H 0.65474 0.14514 0.08784 0.0
H443 H 0.60995 0.121 0.23787 0.0
H444 H 0.52382 0.07744 0.14603 0.0
H445 H 0.56287 0.11698 0.18636 0.0
H446 H 0.63852 0.0907 0.07096 0.0
H447 H 0.59821 0.05305 0.02864 0.0
C448 C 0.67681 0.16833 0.1551 0.0
C449 C 0.67539 0.17313 0.20951 0.0
C450 C 0.65354 0.14729 0.13006 0.0
C451 C 0.62884 0.12987 0.15905 0.0
C452 C 0.62792 0.13448 0.2138 0.0
C453 C 0.65063 0.15624 0.2386 0.0
C454 C 0.54878 0.08037 0.12924 0.0
C455 C 0.5581 0.06224 0.08436 0.0
C456 C 0.57137 0.10282 0.15262 0.0
C457 C 0.60423 0.10699 0.13252 0.0
C458 C 0.61336 0.08879 0.08724 0.0
C459 C 0.59037 0.06699 0.06304 0.0
H460 H 0.64259 0.81281 0.77305 0.0
H461 H 0.69907 0.81089 0.91787 0.0
H462 H 0.60329 0.85313 0.81125 0.0
H463 H 0.66091 0.85233 0.95528 0.0
H464 H 0.56794 0.90025 1.02661 0.0
H465 H 0.60622 0.85925 0.98805 0.0
H466 H 0.59725 0.90935 0.83828 0.0
H467 H 0.55767 0.9493 0.87646 0.0
C468 C 0.6468 0.82129 0.81287 0.0
C469 C 0.67383 0.80859 0.8425 0.0
C470 C 0.62438 0.84458 0.83474 0.0
C471 C 0.62881 0.85609 0.88649 0.0
C472 C 0.65619 0.84359 0.91576 0.0
C473 C 0.67825 0.81994 0.89418 0.0
C474 C 0.57421 0.90251 0.98548 0.0
C475 C 0.5598 0.92799 0.95459 0.0
C476 C 0.59634 0.8791 0.96334 0.0
C477 C 0.605 0.88092 0.90995 0.0
C478 C 0.59074 0.90669 0.87925 0.0
C479 C 0.56821 0.92979 0.90123 0.0
H480 H 0.59765 0.55047 1.02799 0.0
H481 H 0.52335 0.5737 0.90972 0.0
H482 H 0.63765 0.58849 0.98596 0.0
H483 H 0.56207 0.61356 0.86964 0.0
H484 H 0.64808 0.65737 0.77651 0.0
H485 H 0.60931 0.61832 0.81871 0.0
H486 H 0.65308 0.64318 0.96938 0.0
H487 H 0.69324 0.68026 0.9262 0.0
C488 C 0.58977 0.56421 0.99344 0.0
C489 C 0.55761 0.55905 0.97184 0.0
C490 C 0.61258 0.58622 0.96939 0.0
C491 C 0.60337 0.60422 0.92398 0.0
C492 C 0.57064 0.59958 0.90352 0.0
C493 C 0.54823 0.57693 0.92675 0.0
C494 C 0.64938 0.65427 0.81862 0.0
C495 C 0.67371 0.67161 0.84809 0.0
C496 C 0.62695 0.6321 0.84306 0.0
C497 C 0.62773 0.62748 0.8978 0.0
C498 C 0.65201 0.64531 0.92716 0.0
C499 C 0.67498 0.66679 0.90249 0.0
H500 H 0.70114 0.3108 0.13898 0.0
H501 H 0.64471 0.31244 0.2837 0.0
H502 H 0.66213 0.35129 0.10108 0.0
H503 H 0.60462 0.35174 0.24504 0.0
H504 H 0.55736 0.44676 0.17942 0.0
H505 H 0.59772 0.40769 0.21769 0.0
H506 H 0.6072 0.35716 0.06824 0.0
H507 H 0.56805 0.39735 0.02953 0.0
C508 C 0.68019 0.31961 0.16256 0.0
C509 C 0.67602 0.30848 0.21437 0.0
C510 C 0.65763 0.34269 0.14069 0.0
C511 C 0.63004 0.35481 0.16982 0.0
C512 C 0.62587 0.34349 0.22166 0.0
C513 C 0.64875 0.32079 0.24381 0.0
C514 C 0.56815 0.42734 0.15474 0.0
C515 C 0.55961 0.42518 0.10142 0.0
C516 C 0.59114 0.40474 0.17677 0.0
C517 C 0.60577 0.37911 0.1462 0.0
C518 C 0.597 0.37692 0.09284 0.0
C519 C 0.57439 0.39985 0.07063 0.0
H520 H 0.91982 0.45237 0.38438 0.0
H521 H 0.91593 0.39757 0.53037 0.0
H522 H 0.87983 0.41301 0.34582 0.0
H523 H 0.87712 0.35712 0.49113 0.0
H524 H 0.78402 0.30773 0.42138 0.0
H525 H 0.82169 0.34905 0.46084 0.0
H526 H 0.87559 0.35774 0.31418 0.0
H527 H 0.83686 0.3176 0.27424 0.0
C528 C 0.91055 0.43174 0.40815 0.0
C529 C 0.921 0.42806 0.46043 0.0
C530 C 0.88778 0.40898 0.38591 0.0
C531 C 0.8753 0.38165 0.41514 0.0
C532 C 0.88571 0.37812 0.4676 0.0
C533 C 0.90811 0.40122 0.4901 0.0
C534 C 0.80391 0.31852 0.39759 0.0
C535 C 0.80745 0.30946 0.34468 0.0
C536 C 0.82567 0.3421 0.4203 0.0
C537 C 0.85181 0.35682 0.39083 0.0
C538 C 0.85539 0.34751 0.3379 0.0
C539 C 0.8333 0.32431 0.31499 0.0
H540 H 0.85084 0.68617 0.76408 0.0
H541 H 0.77183 0.64999 0.66129 0.0
H542 H 0.89109 0.64892 0.72096 0.0
H543 H 0.81196 0.61238 0.61902 0.0
H544 H 0.90079 0.5754 0.51983 0.0
H545 H 0.86138 0.61424 0.56173 0.0
H546 H 0.90318 0.58899 0.71305 0.0
H547 H 0.94288 0.55081 0.6714 0.0
C548 C 0.84198 0.67015 0.73257 0.0
C549 C 0.80806 0.67104 0.71629 0.0
C550 C 0.86504 0.64871 0.70796 0.0
C551 C 0.85472 0.62771 0.66653 0.0
C552 C 0.82081 0.62857 0.65033 0.0
C553 C 0.79775 0.64997 0.67491 0.0
C554 C 0.90162 0.5782 0.56201 0.0
C555 C 0.92498 0.55992 0.5922 0.0
C556 C 0.87892 0.60032 0.58605 0.0
C557 C 0.87913 0.60467 0.64073 0.0
C558 C 0.90263 0.58654 0.6708 0.0
C559 C 0.92526 0.56445 0.64685 0.0
H560 H 0.32034 0.32865 0.28398 0.0
H561 H 0.29394 0.29372 0.12874 0.0
H562 H 0.36051 0.36822 0.24602 0.0
H563 H 0.33361 0.33374 0.09093 0.0
H564 H 0.4022 0.45903 0.15644 0.0
H565 H 0.36179 0.41961 0.19402 0.0
H566 H 0.39417 0.34313 0.08454 0.0
H567 H 0.4341 0.38268 0.04614 0.0
C568 C 0.32295 0.3295 0.24178 0.0
C569 C 0.30391 0.30796 0.20945 0.0
C570 C 0.34586 0.35232 0.22002 0.0
C571 C 0.35027 0.35412 0.16546 0.0
C572 C 0.33115 0.33266 0.13315 0.0
C573 C 0.30825 0.30985 0.15487 0.0
C574 C 0.40068 0.43384 0.14023 0.0
C575 C 0.42137 0.42408 0.09813 0.0
C576 C 0.37765 0.41117 0.16205 0.0
C577 C 0.37476 0.37823 0.14229 0.0
C578 C 0.39544 0.36847 0.10021 0.0
C579 C 0.41848 0.39112 0.07838 0.0
H580 H 0.42028 0.59225 0.03783 0.0
H581 H 0.41628 0.52875 0.90028 0.0
H582 H 0.38143 0.63189 0.99598 0.0
H583 H 0.37778 0.56855 0.85856 0.0
H584 H 0.3422 0.66933 0.78389 0.0
H585 H 0.38141 0.63022 0.82616 0.0
H586 H 0.31921 0.63001 0.96492 0.0
H587 H 0.27984 0.66883 0.92279 0.0
C588 C 0.41114 0.58676 0.99873 0.0
C589 C 0.42125 0.55734 0.97242 0.0
C590 C 0.38885 0.60936 0.97493 0.0
C591 C 0.37674 0.60323 0.92408 0.0
C592 C 0.38699 0.57395 0.89765 0.0
C593 C 0.40882 0.55109 0.92172 0.0
C594 C 0.33692 0.66095 0.82342 0.0
C595 C 0.30789 0.67201 0.84994 0.0
C596 C 0.35926 0.6385 0.84745 0.0
C597 C 0.35325 0.62717 0.89871 0.0
C598 C 0.32448 0.63855 0.92547 0.0
C599 C 0.30188 0.66056 0.90119 0.0
H600 H 0.1294 0.69335 0.74719 0.0
H601 H 0.21467 0.63809 0.68563 0.0
H602 H 0.09093 0.65482 0.70203 0.0
H603 H 0.17616 0.59964 0.6408 0.0
H604 H 0.09337 0.51766 0.62092 0.0
H605 H 0.13208 0.55573 0.66617 0.0
H606 H 0.07695 0.64124 0.60614 0.0
H607 H 0.03819 0.60323 0.56058 0.0
C608 C 0.13992 0.67286 0.7244 0.0
C609 C 0.17506 0.66875 0.71999 0.0
C610 C 0.11791 0.65101 0.69826 0.0
C611 C 0.13063 0.62437 0.66785 0.0
C612 C 0.16572 0.61987 0.66424 0.0
C613 C 0.18772 0.64196 0.68976 0.0
C614 C 0.08956 0.54458 0.61716 0.0
C615 C 0.06274 0.55745 0.58712 0.0
C616 C 0.11179 0.56633 0.64294 0.0
C617 C 0.10738 0.60137 0.63977 0.0
C618 C 0.08068 0.61429 0.6096 0.0
C619 C 0.0587 0.59254 0.58322 0.0
H620 H 0.15423 0.32801 0.26542 0.0
H621 H 0.18063 0.29135 0.41957 0.0
H622 H 0.11479 0.36786 0.30479 0.0
H623 H 0.14179 0.33153 0.4587 0.0
H624 H 0.04374 0.38245 0.50745 0.0
H625 H 0.08152 0.34207 0.46609 0.0
H626 H 0.11526 0.41894 0.35843 0.0
H627 H 0.07697 0.45926 0.39904 0.0
C628 C 0.15172 0.32848 0.30765 0.0
C629 C 0.1706 0.30645 0.33929 0.0
C630 C 0.12925 0.35145 0.33021 0.0
C631 C 0.12515 0.35285 0.38487 0.0
C632 C 0.144 0.33078 0.41643 0.0
C633 C 0.16644 0.30786 0.39394 0.0
C634 C 0.05919 0.3908 0.47496 0.0
C635 C 0.0574 0.42417 0.45674 0.0
C636 C 0.08097 0.36766 0.45141 0.0
C637 C 0.10147 0.37732 0.40909 0.0
C638 C 0.09952 0.41061 0.3906 0.0
C639 C 0.07774 0.43378 0.41416 0.0
H640 H 0.96425 0.05072 0.91516 0.0
H641 H 0.0253 0.96274 0.88421 0.0
H642 H 0.96528 0.03795 1.00829 0.0
H643 H 0.02493 0.94902 0.97728 0.0
H644 H 0.04723 0.95406 0.1534 0.0
H645 H 0.04724 0.96714 0.06002 0.0
H646 H 0.94322 -0.00067 0.07104 0.0
H647 H 0.94348 0.98674 0.16442 0.0
C648 C 0.97797 0.02865 0.92817 0.0
C649 C -0.00517 0.00788 0.89196 0.0
C650 C 0.97816 0.02106 0.98167 0.0
C651 C -0.00487 -0.00761 1.00057 0.0
C652 C 0.01192 0.97153 0.96436 0.0
C653 C 0.01177 0.97917 0.91079 0.0
C654 C 0.02433 0.96378 0.13578 0.0
C655 C -0.00461 0.96944 0.16646 0.0
C656 C 0.02428 0.97121 0.08216 0.0
C657 C -0.00477 0.98434 0.05774 0.0
C658 C 0.96627 -0.01014 0.08851 0.0
C659 C 0.96638 0.9826 0.14214 0.0
H660 H 0.21002 0.71049 0.42813 0.0
H661 H 0.30665 0.75665 0.39589 0.0
H662 H 0.19658 0.71151 0.33496 0.0
H663 H 0.29397 0.75607 0.30269 0.0
H664 H 0.24651 0.78318 0.14536 0.0
H665 H 0.25926 0.78278 0.23874 0.0
H666 H 0.21096 0.68556 0.25328 0.0
H667 H 0.19778 0.6863 0.15993 0.0
C668 C 0.22843 0.72085 0.40125 0.0
C669 C 0.25945 0.73347 0.41977 0.0
C670 C 0.22089 0.72104 0.34763 0.0
C671 C 0.24418 0.73381 0.31103 0.0
C672 C 0.2752 0.74639 0.3296 0.0
C673 C 0.28269 0.74629 0.38316 0.0
C674 C 0.23886 0.76159 0.16841 0.0
C675 C 0.22114 0.73477 0.1451 0.0
C676 C 0.2462 0.76132 0.22204 0.0
C677 C 0.2362 0.73411 0.25381 0.0
C678 C 0.21858 0.70721 0.23037 0.0
C679 C 0.21108 0.70758 0.17676 0.0
H680 H 0.51869 0.97047 0.66433 0.0
H681 H 0.45137 0.05405 0.63545 0.0
H682 H 0.5186 0.95709 0.57121 0.0
H683 H 0.45251 0.04163 0.54199 0.0
H684 H 0.43554 0.98907 0.38393 0.0
H685 H 0.43371 0.00162 0.47751 0.0
H686 H 0.54005 0.97845 0.48998 0.0
H687 H 0.54169 0.96553 0.39672 0.0
C688 C 0.50374 0.98593 0.63819 0.0
C689 C 0.48505 0.01337 0.65756 0.0
C690 C 0.50405 0.97853 0.58459 0.0
C691 C 0.48571 -0.00162 0.54884 0.0
C692 C 0.46671 0.02559 0.5683 0.0
C693 C 0.46638 0.03298 0.62192 0.0
C694 C 0.45857 0.98691 0.40663 0.0
C695 C 0.48872 0.97616 0.38286 0.0
C696 C 0.45755 -0.00587 0.46031 0.0
C697 C 0.4867 -0.00908 0.49154 0.0
C698 C 0.51693 0.98053 0.46751 0.0
C699 C 0.51791 0.97319 0.41395 0.0
H700 H 0.17415 0.20442 0.88773 0.0
H701 H 0.26618 0.25926 0.9198 0.0
H702 H 0.187 0.20534 0.79447 0.0
H703 H 0.27983 0.25878 0.82681 0.0
H704 H 0.27515 0.28568 0.65318 0.0
H705 H 0.26208 0.28411 0.74634 0.0
H706 H 0.22408 0.1826 0.72916 0.0
H707 H 0.23682 0.18441 0.63568 0.0
C708 C 0.19717 0.21663 0.87496 0.0
C709 C 0.21901 0.23192 0.91148 0.0
C710 C 0.20477 0.21679 0.82141 0.0
C711 C 0.23445 0.2322 0.80285 0.0
C712 C 0.25651 0.24708 0.83946 0.0
C713 C 0.2489 0.24696 0.893 0.0
C714 C 0.26421 0.26293 0.66933 0.0
C715 C 0.25714 0.23513 0.63691 0.0
C716 C 0.25677 0.26199 0.72287 0.0
C717 C 0.24216 0.23316 0.74558 0.0
C718 C 0.2349 0.20541 0.71304 0.0
C719 C 0.24222 0.20642 0.65938 0.0
H720 H 0.72548 0.27355 0.92018 0.0
H721 H 0.79763 0.1933 0.89766 0.0
H722 H 0.71237 0.2727 0.82692 0.0
H723 H 0.78424 0.19208 0.80445 0.0
H724 H 0.77795 0.22274 0.63219 0.0
H725 H 0.79098 0.22368 0.72543 0.0
H726 H 0.68549 0.24014 0.76029 0.0
H727 H 0.67277 0.24104 0.6671 0.0
C728 C 0.73826 0.25543 0.89542 0.0
C729 C 0.76263 0.23351 0.91648 0.0
C730 C 0.73072 0.25491 0.84185 0.0
C731 C 0.74722 0.23232 0.80789 0.0
C732 C 0.77143 0.21022 0.8291 0.0
C733 C 0.77907 0.21086 0.88264 0.0
C734 C 0.75756 0.22693 0.65966 0.0
C735 C 0.72428 0.23185 0.64182 0.0
C736 C 0.76498 0.22703 0.7133 0.0
C737 C 0.73931 0.23194 0.75065 0.0
C738 C 0.70602 0.23669 0.73281 0.0
C739 C 0.69863 0.23672 0.6792 0.0
H740 H 0.67944 0.76317 0.39394 0.0
H741 H 0.76637 0.70047 0.42458 0.0
H742 H 0.69311 0.76339 0.30101 0.0
H743 H 0.77999 0.70052 0.33139 0.0
H744 H 0.81375 0.73739 0.16953 0.0
H745 H 0.80014 0.73655 0.2625 0.0
H746 H 0.69408 0.72795 0.2248 0.0
H747 H 0.70755 0.73045 0.13182 0.0
C748 C 0.70129 0.74911 0.3808 0.0
C749 C 0.72173 0.73172 0.41688 0.0
C750 C 0.70913 0.74921 0.32737 0.0
C751 C 0.73762 0.73189 0.30844 0.0
C752 C 0.75812 0.71454 0.34454 0.0
C753 C 0.7503 0.71449 0.39805 0.0
C754 C 0.78748 0.73566 0.18098 0.0
C755 C 0.76177 0.73416 0.1429 0.0
C756 C 0.7797 0.73473 0.23444 0.0
C757 C 0.74598 0.7322 0.25139 0.0
C758 C 0.7203 0.73035 0.21332 0.0
C759 C 0.72807 0.73134 0.15985 0.0
H760 H 0.43512 0.488 0.67282 0.0
H761 H 0.53993 0.45931 0.65917 0.0
H762 H 0.43348 0.50056 0.57926 0.0
H763 H 0.5385 0.47223 0.56594 0.0
H764 H 0.51614 0.4655 0.39172 0.0
H765 H 0.51572 0.45203 0.48477 0.0
H766 H 0.4539 0.53961 0.51481 0.0
H767 H 0.45303 0.55219 0.42144 0.0
C768 C 0.45791 0.4847 0.64994 0.0
C769 C 0.48761 0.47251 0.67347 0.0
C770 C 0.45699 0.49192 0.59627 0.0
C771 C 0.48582 0.48729 0.56481 0.0
C772 C 0.51561 0.47544 0.58859 0.0
C773 C 0.51647 0.4681 0.64214 0.0
C774 C 0.50204 0.48163 0.41802 0.0
C775 C 0.48464 0.50997 0.39891 0.0
C776 C 0.50217 0.47415 0.47158 0.0
C777 C 0.48494 0.49482 0.50754 0.0
C778 C 0.46722 0.52294 0.48834 0.0
C779 C 0.46705 0.5304 0.43476 0.0
H780 H 0.01282 0.52681 0.87791 0.0
H781 H 0.98534 0.42378 0.91211 0.0
H782 H 0.01194 0.53987 0.97115 0.0
H783 H 0.9862 0.4364 1.00535 0.0
H784 H 0.95454 0.47893 0.16439 0.0
H785 H 0.95519 0.46591 0.0711 0.0
H786 H 0.04216 0.53046 0.05109 0.0
H787 H 0.0412 0.54375 0.14433 0.0
C788 C 0.00662 0.5069 0.90523 0.0
C789 C -0.00087 0.47421 0.8872 0.0
C790 C 0.00654 0.5143 0.95888 0.0
C791 C -0.00095 0.48921 0.99605 0.0
C792 C -0.0083 0.4565 0.978 0.0
C793 C -0.00833 0.44913 0.92439 0.0
C794 C 0.974 0.49011 0.14018 0.0
C795 C -0.00219 0.51241 0.16195 0.0
C796 C 0.9744 0.48262 0.08658 0.0
C797 C -0.00127 0.49711 0.0533 0.0
C798 C 0.02268 0.51926 0.07521 0.0
C799 C 0.02218 0.52685 0.12877 0.0
loop_
_geom_bond_atom_site_label_1
_geom_bond_atom_site_label_2
_geom_bond_distance
_geom_bond_site_symmetry_2
_ccdc_geom_bond_type
Tb0 C9 2.764 1_455 S
Tb0 O10 2.325 1_445 S
Tb0 O13 2.303 1_545 S
Tb0 O17 2.322 . S
Tb0 O18 2.349 1_455 S
Tb0 O21 2.415 . S
Tb0 O22 2.399 1_455 S
Tb1 O11 2.322 . S
Tb1 O12 2.349 1_655 S
Tb1 O14 2.415 . S
Tb1 O15 2.399 1_655 S
Tb1 O16 2.325 1_665 S
Tb1 O19 2.303 1_565 S
Tb1 C30 2.764 1_655 S
C2 O18 1.261 . S
C2 O19 1.257 . S
C3 C6 1.358 . S
C3 C7 1.332 1_545 S
C3 C9 1.504 . S
C4 C5 1.373 . S
C4 C8 1.308 1_545 S
C5 C4 1.373 . S
C5 C6 1.429 . S
C5 H32 0.932 . S
C6 C3 1.358 . S
C6 C5 1.429 . S
C6 H33 0.930 . S
C7 C3 1.332 1_565 S
C7 C8 1.394 . S
C7 H34 0.932 1_655 S
C8 C4 1.308 1_565 S
C8 C7 1.394 . S
C8 H35 0.929 . S
C9 Tb0 2.764 1_655 S
C9 C3 1.504 . S
C9 O21 1.239 1_655 S
C9 O22 1.263 . S
O10 Tb0 2.325 1_665 S
O10 C20 1.236 . S
O11 Tb1 2.322 . S
O11 C20 1.257 . S
O12 Tb1 2.349 1_455 S
O12 C23 1.261 . S
O13 Tb0 2.303 1_565 S
O13 C23 1.257 . S
O14 Tb1 2.415 . S
O14 C30 1.239 1_655 S
O15 Tb1 2.399 1_455 S
O15 C30 1.263 . S
O16 Tb1 2.325 1_445 S
O16 C31 1.236 . S
O17 Tb0 2.322 . S
O17 C31 1.257 . S
O18 Tb0 2.349 1_655 S
O18 C2 1.261 . S
O19 Tb1 2.303 1_545 S
O19 C2 1.257 . S
C20 O10 1.236 . S
C20 O11 1.257 . S
O21 Tb0 2.415 . S
O21 C9 1.239 1_455 S
O22 Tb0 2.399 1_655 S
O22 C9 1.263 . S
C23 O12 1.261 . S
C23 O13 1.257 . S
C24 C27 1.358 . S
C24 C28 1.332 1_565 S
C24 C30 1.504 . S
C25 C26 1.373 . S
C25 C29 1.308 1_565 S
C26 C25 1.373 . S
C26 C27 1.429 . S
C26 H36 0.932 . S
C27 C24 1.358 . S
C27 C26 1.429 . S
C27 H37 0.930 . S
C28 C24 1.332 1_545 S
C28 C29 1.394 . S
C28 H38 0.932 1_455 S
C29 C25 1.308 1_545 S
C29 C28 1.394 . S
C29 H39 0.929 . S
C30 Tb1 2.764 1_455 S
C30 O14 1.239 1_455 S
C30 O15 1.263 . S
C30 C24 1.504 . S
C31 O16 1.236 . S
C31 O17 1.257 . S
H32 C5 0.932 . S
H33 C6 0.930 . S
H34 C7 0.932 1_455 S
H35 C8 0.929 . S
H36 C26 0.932 . S
H37 C27 0.930 . S
H38 C28 0.932 1_655 S
H39 C29 0.929 . S
Tb40 C49 2.764 . S
Tb40 O50 2.325 . S
Tb40 O53 2.303 . S
Tb40 O57 2.322 . S
Tb40 O58 2.349 . S
Tb40 O61 2.415 . S
Tb40 O62 2.399 . S
Tb41 O51 2.322 . S
Tb41 O52 2.349 . S
Tb41 O54 2.415 . S
Tb41 O55 2.399 . S
Tb41 O56 2.325 . S
Tb41 O59 2.303 . S
Tb41 C70 2.764 . S
C42 O58 1.261 . S
C42 O59 1.257 . S
C43 C46 1.358 . S
C43 C47 1.332 . S
C43 C49 1.504 . S
C44 C45 1.373 . S
C44 C48 1.308 . S
C45 C44 1.373 . S
C45 C46 1.429 1_554 S
C45 H72 0.932 . S
C46 C43 1.358 . S
C46 C45 1.429 1_556 S
C46 H73 0.930 . S
C47 C43 1.332 . S
C47 C48 1.394 1_556 S
C47 H74 0.932 . S
C48 C44 1.308 . S
C48 C47 1.394 1_554 S
C48 H75 0.929 . S
C49 Tb40 2.764 . S
C49 C43 1.504 . S
C49 O61 1.239 . S
C49 O62 1.263 . S
O50 Tb40 2.325 . S
O50 C60 1.236 . S
O51 Tb41 2.322 . S
O51 C60 1.257 . S
O52 Tb41 2.349 . S
O52 C63 1.261 . S
O53 Tb40 2.303 . S
O53 C63 1.257 . S
O54 Tb41 2.415 . S
O54 C70 1.239 . S
O55 Tb41 2.399 . S
O55 C70 1.263 . S
O56 Tb41 2.325 . S
O56 C71 1.236 . S
O57 Tb40 2.322 . S
O57 C71 1.257 . S
O58 Tb40 2.349 . S
O58 C42 1.261 . S
O59 Tb41 2.303 . S
O59 C42 1.257 . S
C60 O50 1.236 . S
C60 O51 1.257 . S
O61 Tb40 2.415 . S
O61 C49 1.239 . S
O62 Tb40 2.399 . S
O62 C49 1.263 . S
C63 O52 1.261 . S
C63 O53 1.257 . S
C64 C67 1.358 . S
C64 C68 1.332 . S
C64 C70 1.504 . S
C65 C66 1.373 . S
C65 C69 1.308 . S
C66 C65 1.373 . S
C66 C67 1.429 . S
C66 H76 0.932 . S
C67 C64 1.358 . S
C67 C66 1.429 . S
C67 H77 0.930 . S
C68 C64 1.332 . S
C68 C69 1.394 . S
C68 H78 0.932 . S
C69 C65 1.308 . S
C69 C68 1.394 . S
C69 H79 0.929 . S
C70 Tb41 2.764 . S
C70 O54 1.239 . S
C70 O55 1.263 . S
C70 C64 1.504 . S
C71 O56 1.236 . S
C71 O57 1.257 . S
H72 C45 0.932 . S
H73 C46 0.930 . S
H74 C47 0.932 . S
H75 C48 0.929 . S
H76 C66 0.932 . S
H77 C67 0.930 . S
H78 C68 0.932 . S
H79 C69 0.929 . S
Tb80 C89 2.764 . S
Tb80 O90 2.325 1_565 S
Tb80 O93 2.303 1_565 S
Tb80 O97 2.322 1_554 S
Tb80 O98 2.349 . S
Tb80 O101 2.415 . S
Tb80 O102 2.399 . S
Tb81 O91 2.322 1_556 S
Tb81 O92 2.349 . S
Tb81 O94 2.415 . S
Tb81 O95 2.399 . S
Tb81 O96 2.325 1_545 S
Tb81 O99 2.303 1_545 S
Tb81 C110 2.764 . S
C82 O98 1.261 1_556 S
C82 O99 1.257 . S
C83 C86 1.358 . S
C83 C87 1.332 1_565 S
C83 C89 1.504 . S
C84 C85 1.373 . S
C84 C88 1.308 1_565 S
C85 C84 1.373 . S
C85 C86 1.429 . S
C85 H112 0.932 . S
C86 C83 1.358 . S
C86 C85 1.429 . S
C86 H113 0.930 . S
C87 C83 1.332 1_545 S
C87 C88 1.394 . S
C87 H114 0.932 . S
C88 C84 1.308 1_545 S
C88 C87 1.394 . S
C88 H115 0.929 . S
C89 Tb80 2.764 . S
C89 C83 1.504 . S
C89 O101 1.239 . S
C89 O102 1.263 . S
O90 Tb80 2.325 1_545 S
O90 C100 1.236 . S
O91 Tb81 2.322 1_554 S
O91 C100 1.257 . S
O92 Tb81 2.349 . S
O92 C103 1.261 1_556 S
O93 Tb80 2.303 1_545 S
O93 C103 1.257 . S
O94 Tb81 2.415 . S
O94 C110 1.239 . S
O95 Tb81 2.399 . S
O95 C110 1.263 . S
O96 Tb81 2.325 1_565 S
O96 C111 1.236 . S
O97 Tb80 2.322 1_556 S
O97 C111 1.257 . S
O98 Tb80 2.349 . S
O98 C82 1.261 1_554 S
O99 Tb81 2.303 1_565 S
O99 C82 1.257 . S
C100 O90 1.236 . S
C100 O91 1.257 . S
O101 Tb80 2.415 . S
O101 C89 1.239 . S
O102 Tb80 2.399 . S
O102 C89 1.263 . S
C103 O92 1.261 1_554 S
C103 O93 1.257 . S
C104 C107 1.358 . S
C104 C108 1.332 1_545 S
C104 C110 1.504 . S
C105 C106 1.373 . S
C105 C109 1.308 1_545 S
C106 C105 1.373 . S
C106 C107 1.429 . S
C106 H116 0.932 . S
C107 C104 1.358 . S
C107 C106 1.429 . S
C107 H117 0.930 . S
C108 C104 1.332 1_565 S
C108 C109 1.394 . S
C108 H118 0.932 . S
C109 C105 1.308 1_565 S
C109 C108 1.394 . S
C109 H119 0.929 . S
C110 Tb81 2.764 . S
C110 O94 1.239 . S
C110 O95 1.263 . S
C110 C104 1.504 . S
C111 O96 1.236 . S
C111 O97 1.257 . S
H112 C85 0.932 . S
H113 C86 0.930 . S
H114 C87 0.932 . S
H115 C88 0.929 . S
H116 C106 0.932 . S
H117 C107 0.930 . S
H118 C108 0.932 . S
H119 C109 0.929 . S
Tb120 C129 2.764 . S
Tb120 O130 2.325 . S
Tb120 O133 2.303 . S
Tb120 O137 2.322 . S
Tb120 O138 2.349 . S
Tb120 O141 2.415 . S
Tb120 O142 2.399 . S
Tb121 O131 2.322 . S
Tb121 O132 2.349 . S
Tb121 O134 2.415 . S
Tb121 O135 2.399 . S
Tb121 O136 2.325 . S
Tb121 O139 2.303 . S
Tb121 C150 2.764 . S
C122 O138 1.261 . S
C122 O139 1.257 . S
C123 C126 1.358 . S
C123 C127 1.332 . S
C123 C129 1.504 . S
C124 C125 1.373 . S
C124 C128 1.308 . S
C125 C124 1.373 . S
C125 C126 1.429 . S
C125 H152 0.932 . S
C126 C123 1.358 . S
C126 C125 1.429 . S
C126 H153 0.930 . S
C127 C123 1.332 . S
C127 C128 1.394 . S
C127 H154 0.932 . S
C128 C124 1.308 . S
C128 C127 1.394 . S
C128 H155 0.929 . S
C129 Tb120 2.764 . S
C129 C123 1.504 . S
C129 O141 1.239 . S
C129 O142 1.263 . S
O130 Tb120 2.325 . S
O130 C140 1.236 . S
O131 Tb121 2.322 . S
O131 C140 1.257 . S
O132 Tb121 2.349 . S
O132 C143 1.261 . S
O133 Tb120 2.303 . S
O133 C143 1.257 . S
O134 Tb121 2.415 . S
O134 C150 1.239 . S
O135 Tb121 2.399 . S
O135 C150 1.263 . S
O136 Tb121 2.325 . S
O136 C151 1.236 . S
O137 Tb120 2.322 . S
O137 C151 1.257 . S
O138 Tb120 2.349 . S
O138 C122 1.261 . S
O139 Tb121 2.303 . S
O139 C122 1.257 . S
C140 O130 1.236 . S
C140 O131 1.257 . S
O141 Tb120 2.415 . S
O141 C129 1.239 . S
O142 Tb120 2.399 . S
O142 C129 1.263 . S
C143 O132 1.261 . S
C143 O133 1.257 . S
C144 C147 1.358 . S
C144 C148 1.332 . S
C144 C150 1.504 . S
C145 C146 1.373 . S
C145 C149 1.308 . S
C146 C145 1.373 . S
C146 C147 1.429 1_556 S
C146 H156 0.932 . S
C147 C144 1.358 . S
C147 C146 1.429 1_554 S
C147 H157 0.930 . S
C148 C144 1.332 . S
C148 C149 1.394 1_554 S
C148 H158 0.932 . S
C149 C145 1.308 . S
C149 C148 1.394 1_556 S
C149 H159 0.929 . S
C150 Tb121 2.764 . S
C150 O134 1.239 . S
C150 O135 1.263 . S
C150 C144 1.504 . S
C151 O136 1.236 . S
C151 O137 1.257 . S
H152 C125 0.932 . S
H153 C126 0.930 . S
H154 C127 0.932 . S
H155 C128 0.929 . S
H156 C146 0.932 . S
H157 C147 0.930 . S
H158 C148 0.932 . S
H159 C149 0.929 . S
Tb160 C169 2.764 . S
Tb160 O170 2.325 . S
Tb160 O173 2.303 . S
Tb160 O177 2.322 . S
Tb160 O178 2.349 . S
Tb160 O181 2.415 . S
Tb160 O182 2.399 . S
Tb161 O171 2.322 . S
Tb161 O172 2.349 . S
Tb161 O174 2.415 . S
Tb161 O175 2.399 . S
Tb161 O176 2.325 . S
Tb161 O179 2.303 . S
Tb161 C190 2.764 . S
C162 O178 1.261 . S
C162 O179 1.257 . S
C163 C166 1.358 . S
C163 C167 1.332 . S
C163 C169 1.504 . S
C164 C165 1.373 . S
C164 C168 1.308 . S
C165 C164 1.373 . S
C165 C166 1.429 . S
C165 H192 0.932 . S
C166 C163 1.358 . S
C166 C165 1.429 . S
C166 H193 0.930 . S
C167 C163 1.332 . S
C167 C168 1.394 . S
C167 H194 0.932 . S
C168 C164 1.308 . S
C168 C167 1.394 . S
C168 H195 0.929 . S
C169 Tb160 2.764 . S
C169 C163 1.504 . S
C169 O181 1.239 . S
C169 O182 1.263 . S
O170 Tb160 2.325 . S
O170 C180 1.236 . S
O171 Tb161 2.322 . S
O171 C180 1.257 . S
O172 Tb161 2.349 . S
O172 C183 1.261 . S
O173 Tb160 2.303 . S
O173 C183 1.257 . S
O174 Tb161 2.415 . S
O174 C190 1.239 . S
O175 Tb161 2.399 . S
O175 C190 1.263 . S
O176 Tb161 2.325 . S
O176 C191 1.236 . S
O177 Tb160 2.322 . S
O177 C191 1.257 . S
O178 Tb160 2.349 . S
O178 C162 1.261 . S
O179 Tb161 2.303 . S
O179 C162 1.257 . S
C180 O170 1.236 . S
C180 O171 1.257 . S
O181 Tb160 2.415 . S
O181 C169 1.239 . S
O182 Tb160 2.399 . S
O182 C169 1.263 . S
C183 O172 1.261 . S
C183 O173 1.257 . S
C184 C187 1.358 . S
C184 C188 1.332 . S
C184 C190 1.504 . S
C185 C186 1.373 . S
C185 C189 1.308 . S
C186 C185 1.373 . S
C186 C187 1.429 1_556 S
C186 H196 0.932 . S
C187 C184 1.358 . S
C187 C186 1.429 1_554 S
C187 H197 0.930 . S
C188 C184 1.332 . S
C188 C189 1.394 1_554 S
C188 H198 0.932 . S
C189 C185 1.308 . S
C189 C188 1.394 1_556 S
C189 H199 0.929 . S
C190 Tb161 2.764 . S
C190 O174 1.239 . S
C190 O175 1.263 . S
C190 C184 1.504 . S
C191 O176 1.236 . S
C191 O177 1.257 . S
H192 C165 0.932 . S
H193 C166 0.930 . S
H194 C167 0.932 . S
H195 C168 0.929 . S
H196 C186 0.932 . S
H197 C187 0.930 . S
H198 C188 0.932 . S
H199 C189 0.929 . S
Tb200 C209 2.764 . S
Tb200 O210 2.325 . S
Tb200 O213 2.303 . S
Tb200 O217 2.322 . S
Tb200 O218 2.349 . S
Tb200 O221 2.415 . S
Tb200 O222 2.399 . S
Tb201 O211 2.322 . S
Tb201 O212 2.349 . S
Tb201 O214 2.415 . S
Tb201 O215 2.399 . S
Tb201 O216 2.325 . S
Tb201 O219 2.303 . S
Tb201 C230 2.764 . S
C202 O218 1.261 . S
C202 O219 1.257 . S
C203 C206 1.358 . S
C203 C207 1.332 . S
C203 C209 1.504 . S
C204 C205 1.373 . S
C204 C208 1.308 . S
C205 C204 1.373 . S
C205 C206 1.429 1_554 S
C205 H232 0.932 . S
C206 C203 1.358 . S
C206 C205 1.429 1_556 S
C206 H233 0.930 . S
C207 C203 1.332 . S
C207 C208 1.394 1_556 S
C207 H234 0.932 . S
C208 C204 1.308 . S
C208 C207 1.394 1_554 S
C208 H235 0.929 . S
C209 Tb200 2.764 . S
C209 C203 1.504 . S
C209 O221 1.239 . S
C209 O222 1.263 . S
O210 Tb200 2.325 . S
O210 C220 1.236 . S
O211 Tb201 2.322 . S
O211 C220 1.257 . S
O212 Tb201 2.349 . S
O212 C223 1.261 . S
O213 Tb200 2.303 . S
O213 C223 1.257 . S
O214 Tb201 2.415 . S
O214 C230 1.239 . S
O215 Tb201 2.399 . S
O215 C230 1.263 . S
O216 Tb201 2.325 . S
O216 C231 1.236 . S
O217 Tb200 2.322 . S
O217 C231 1.257 . S
O218 Tb200 2.349 . S
O218 C202 1.261 . S
O219 Tb201 2.303 . S
O219 C202 1.257 . S
C220 O210 1.236 . S
C220 O211 1.257 . S
O221 Tb200 2.415 . S
O221 C209 1.239 . S
O222 Tb200 2.399 . S
O222 C209 1.263 . S
C223 O212 1.261 . S
C223 O213 1.257 . S
C224 C227 1.358 . S
C224 C228 1.332 . S
C224 C230 1.504 . S
C225 C226 1.373 . S
C225 C229 1.308 . S
C226 C225 1.373 . S
C226 C227 1.429 . S
C226 H236 0.932 . S
C227 C224 1.358 . S
C227 C226 1.429 . S
C227 H237 0.930 . S
C228 C224 1.332 . S
C228 C229 1.394 . S
C228 H238 0.932 . S
C229 C225 1.308 . S
C229 C228 1.394 . S
C229 H239 0.929 . S
C230 Tb201 2.764 . S
C230 O214 1.239 . S
C230 O215 1.263 . S
C230 C224 1.504 . S
C231 O216 1.236 . S
C231 O217 1.257 . S
H232 C205 0.932 . S
H233 C206 0.930 . S
H234 C207 0.932 . S
H235 C208 0.929 . S
H236 C226 0.932 . S
H237 C227 0.930 . S
H238 C228 0.932 . S
H239 C229 0.929 . S
Tb240 C249 2.764 . S
Tb240 O250 2.325 . S
Tb240 O253 2.303 . S
Tb240 O257 2.322 1_554 S
Tb240 O258 2.349 . S
Tb240 O261 2.415 . S
Tb240 O262 2.399 . S
Tb241 O251 2.322 1_556 S
Tb241 O252 2.349 . S
Tb241 O254 2.415 . S
Tb241 O255 2.399 . S
Tb241 O256 2.325 . S
Tb241 O259 2.303 . S
Tb241 C270 2.764 . S
C242 O258 1.261 1_556 S
C242 O259 1.257 . S
C243 C246 1.358 . S
C243 C247 1.332 . S
C243 C249 1.504 . S
C244 C245 1.373 . S
C244 C248 1.308 . S
C245 C244 1.373 . S
C245 C246 1.429 . S
C245 H272 0.932 . S
C246 C243 1.358 . S
C246 C245 1.429 . S
C246 H273 0.930 . S
C247 C243 1.332 . S
C247 C248 1.394 . S
C247 H274 0.932 . S
C248 C244 1.308 . S
C248 C247 1.394 . S
C248 H275 0.929 . S
C249 Tb240 2.764 . S
C249 C243 1.504 . S
C249 O261 1.239 . S
C249 O262 1.263 . S
O250 Tb240 2.325 . S
O250 C260 1.236 . S
O251 Tb241 2.322 1_554 S
O251 C260 1.257 . S
O252 Tb241 2.349 . S
O252 C263 1.261 1_556 S
O253 Tb240 2.303 . S
O253 C263 1.257 . S
O254 Tb241 2.415 . S
O254 C270 1.239 . S
O255 Tb241 2.399 . S
O255 C270 1.263 . S
O256 Tb241 2.325 . S
O256 C271 1.236 . S
O257 Tb240 2.322 1_556 S
O257 C271 1.257 . S
O258 Tb240 2.349 . S
O258 C242 1.261 1_554 S
O259 Tb241 2.303 . S
O259 C242 1.257 . S
C260 O250 1.236 . S
C260 O251 1.257 . S
O261 Tb240 2.415 . S
O261 C249 1.239 . S
O262 Tb240 2.399 . S
O262 C249 1.263 . S
C263 O252 1.261 1_554 S
C263 O253 1.257 . S
C264 C267 1.358 . S
C264 C268 1.332 . S
C264 C270 1.504 . S
C265 C266 1.373 . S
C265 C269 1.308 . S
C266 C265 1.373 . S
C266 C267 1.429 . S
C266 H276 0.932 . S
C267 C264 1.358 . S
C267 C266 1.429 . S
C267 H277 0.930 . S
C268 C264 1.332 . S
C268 C269 1.394 . S
C268 H278 0.932 . S
C269 C265 1.308 . S
C269 C268 1.394 . S
C269 H279 0.929 . S
C270 Tb241 2.764 . S
C270 O254 1.239 . S
C270 O255 1.263 . S
C270 C264 1.504 . S
C271 O256 1.236 . S
C271 O257 1.257 . S
H272 C245 0.932 . S
H273 C246 0.930 . S
H274 C247 0.932 . S
H275 C248 0.929 . S
H276 C266 0.932 . S
H277 C267 0.930 . S
H278 C268 0.932 . S
H279 C269 0.929 . S
Tb280 C289 2.764 1_655 S
Tb280 O290 2.325 1_655 S
Tb280 O293 2.303 . S
Tb280 O297 2.322 . S
Tb280 O298 2.349 1_655 S
Tb280 O301 2.415 . S
Tb280 O302 2.399 1_655 S
Tb281 O291 2.322 . S
Tb281 O292 2.349 1_455 S
Tb281 O294 2.415 . S
Tb281 O295 2.399 1_455 S
Tb281 O296 2.325 1_455 S
Tb281 O299 2.303 . S
Tb281 C310 2.764 1_455 S
C282 O298 1.261 . S
C282 O299 1.257 . S
C283 C286 1.358 . S
C283 C287 1.332 . S
C283 C289 1.504 . S
C284 C285 1.373 . S
C284 C288 1.308 . S
C285 C284 1.373 . S
C285 C286 1.429 . S
C285 H312 0.932 . S
C286 C283 1.358 . S
C286 C285 1.429 . S
C286 H313 0.930 . S
C287 C283 1.332 . S
C287 C288 1.394 . S
C287 H314 0.932 1_455 S
C288 C284 1.308 . S
C288 C287 1.394 . S
C288 H315 0.929 . S
C289 Tb280 2.764 1_455 S
C289 C283 1.504 . S
C289 O301 1.239 1_455 S
C289 O302 1.263 . S
O290 Tb280 2.325 1_455 S
O290 C300 1.236 . S
O291 Tb281 2.322 . S
O291 C300 1.257 . S
O292 Tb281 2.349 1_655 S
O292 C303 1.261 . S
O293 Tb280 2.303 . S
O293 C303 1.257 . S
O294 Tb281 2.415 . S
O294 C310 1.239 1_455 S
O295 Tb281 2.399 1_655 S
O295 C310 1.263 . S
O296 Tb281 2.325 1_655 S
O296 C311 1.236 . S
O297 Tb280 2.322 . S
O297 C311 1.257 . S
O298 Tb280 2.349 1_455 S
O298 C282 1.261 . S
O299 Tb281 2.303 . S
O299 C282 1.257 . S
C300 O290 1.236 . S
C300 O291 1.257 . S
O301 Tb280 2.415 . S
O301 C289 1.239 1_655 S
O302 Tb280 2.399 1_455 S
O302 C289 1.263 . S
C303 O292 1.261 . S
C303 O293 1.257 . S
C304 C307 1.358 . S
C304 C308 1.332 . S
C304 C310 1.504 . S
C305 C306 1.373 . S
C305 C309 1.308 . S
C306 C305 1.373 . S
C306 C307 1.429 . S
C306 H316 0.932 . S
C307 C304 1.358 . S
C307 C306 1.429 . S
C307 H317 0.930 . S
C308 C304 1.332 . S
C308 C309 1.394 . S
C308 H318 0.932 1_655 S
C309 C305 1.308 . S
C309 C308 1.394 . S
C309 H319 0.929 . S
C310 Tb281 2.764 1_655 S
C310 O294 1.239 1_655 S
C310 O295 1.263 . S
C310 C304 1.504 . S
C311 O296 1.236 . S
C311 O297 1.257 . S
H312 C285 0.932 . S
H313 C286 0.930 . S
H314 C287 0.932 1_655 S
H315 C288 0.929 . S
H316 C306 0.932 . S
H317 C307 0.930 . S
H318 C308 0.932 1_455 S
H319 C309 0.929 . S
H320 C328 0.950 . S
H321 C333 0.950 . S
H322 C330 0.950 . S
H323 C332 0.950 . S
H324 C334 0.950 . S
H325 C336 0.950 . S
H326 C338 0.950 . S
H327 C339 0.950 . S
C328 H320 0.950 . S
C328 C329 1.386 . S
C328 C330 1.391 . S
C329 C328 1.386 . S
C329 C333 1.393 . S
C330 H322 0.950 . S
C330 C328 1.391 . S
C330 C331 1.400 . S
C331 C330 1.400 . S
C331 C332 1.398 . S
C331 C337 1.491 . S
C332 H323 0.950 . S
C332 C331 1.398 . S
C332 C333 1.391 . S
C333 H321 0.950 . S
C333 C329 1.393 . S
C333 C332 1.391 . S
C334 H324 0.950 . S
C334 C335 1.386 . S
C334 C336 1.391 . S
C335 C334 1.386 . S
C335 C339 1.393 . S
C336 H325 0.950 . S
C336 C334 1.391 . S
C336 C337 1.400 . S
C337 C331 1.491 . S
C337 C336 1.400 . S
C337 C338 1.398 . S
C338 H326 0.950 . S
C338 C337 1.398 . S
C338 C339 1.391 . S
C339 H327 0.950 . S
C339 C335 1.393 . S
C339 C338 1.391 . S
H340 C348 0.950 . S
H341 C353 0.950 . S
H342 C350 0.950 . S
H343 C352 0.950 . S
H344 C354 0.950 . S
H345 C356 0.950 . S
H346 C358 0.950 . S
H347 C359 0.950 . S
C348 H340 0.950 . S
C348 C349 1.386 . S
C348 C350 1.391 . S
C349 C348 1.386 . S
C349 C353 1.393 . S
C350 H342 0.950 . S
C350 C348 1.391 . S
C350 C351 1.400 . S
C351 C350 1.400 . S
C351 C352 1.398 . S
C351 C357 1.491 . S
C352 H343 0.950 . S
C352 C351 1.398 . S
C352 C353 1.391 . S
C353 H341 0.950 . S
C353 C349 1.393 . S
C353 C352 1.391 . S
C354 H344 0.950 . S
C354 C355 1.386 . S
C354 C356 1.391 . S
C355 C354 1.386 . S
C355 C359 1.393 . S
C356 H345 0.950 . S
C356 C354 1.391 . S
C356 C357 1.400 . S
C357 C351 1.491 . S
C357 C356 1.400 . S
C357 C358 1.398 . S
C358 H346 0.950 . S
C358 C357 1.398 . S
C358 C359 1.391 . S
C359 H347 0.950 . S
C359 C355 1.393 . S
C359 C358 1.391 . S
H360 C368 0.950 . S
H361 C373 0.950 . S
H362 C370 0.950 . S
H363 C372 0.950 . S
H364 C374 0.950 . S
H365 C376 0.950 . S
H366 C378 0.950 . S
H367 C379 0.950 . S
C368 H360 0.950 . S
C368 C369 1.386 . S
C368 C370 1.391 . S
C369 C368 1.386 . S
C369 C373 1.393 . S
C370 H362 0.950 . S
C370 C368 1.391 . S
C370 C371 1.400 . S
C371 C370 1.400 . S
C371 C372 1.398 . S
C371 C377 1.491 . S
C372 H363 0.950 . S
C372 C371 1.398 . S
C372 C373 1.391 . S
C373 H361 0.950 . S
C373 C369 1.393 . S
C373 C372 1.391 . S
C374 H364 0.950 . S
C374 C375 1.386 . S
C374 C376 1.391 . S
C375 C374 1.386 . S
C375 C379 1.393 . S
C376 H365 0.950 . S
C376 C374 1.391 . S
C376 C377 1.400 . S
C377 C371 1.491 . S
C377 C376 1.400 . S
C377 C378 1.398 . S
C378 H366 0.950 . S
C378 C377 1.398 . S
C378 C379 1.391 . S
C379 H367 0.950 . S
C379 C375 1.393 . S
C379 C378 1.391 . S
H380 C388 0.950 . S
H381 C393 0.950 1_556 S
H382 C390 0.950 . S
H383 C392 0.950 . S
H384 C394 0.950 . S
H385 C396 0.950 . S
H386 C398 0.950 . S
H387 C399 0.950 . S
C388 H380 0.950 . S
C388 C389 1.386 . S
C388 C390 1.391 . S
C389 C388 1.386 . S
C389 C393 1.393 . S
C390 H382 0.950 . S
C390 C388 1.391 . S
C390 C391 1.400 . S
C391 C390 1.400 . S
C391 C392 1.398 . S
C391 C397 1.491 . S
C392 H383 0.950 . S
C392 C391 1.398 . S
C392 C393 1.391 . S
C393 H381 0.950 1_554 S
C393 C389 1.393 . S
C393 C392 1.391 . S
C394 H384 0.950 . S
C394 C395 1.386 . S
C394 C396 1.391 . S
C395 C394 1.386 . S
C395 C399 1.393 . S
C396 H385 0.950 . S
C396 C394 1.391 . S
C396 C397 1.400 . S
C397 C391 1.491 . S
C397 C396 1.400 . S
C397 C398 1.398 . S
C398 H386 0.950 . S
C398 C397 1.398 . S
C398 C399 1.391 . S
C399 H387 0.950 . S
C399 C395 1.393 . S
C399 C398 1.391 . S
H400 C408 0.950 . S
H401 C413 0.950 . S
H402 C410 0.950 . S
H403 C412 0.950 . S
H404 C414 0.950 . S
H405 C416 0.950 . S
H406 C418 0.950 . S
H407 C419 0.950 . S
C408 H400 0.950 . S
C408 C409 1.386 . S
C408 C410 1.391 . S
C409 C408 1.386 . S
C409 C413 1.393 . S
C410 H402 0.950 . S
C410 C408 1.391 . S
C410 C411 1.400 . S
C411 C410 1.400 . S
C411 C412 1.398 . S
C411 C417 1.491 . S
C412 H403 0.950 . S
C412 C411 1.398 . S
C412 C413 1.391 . S
C413 H401 0.950 . S
C413 C409 1.393 . S
C413 C412 1.391 . S
C414 H404 0.950 . S
C414 C415 1.386 . S
C414 C416 1.391 . S
C415 C414 1.386 . S
C415 C419 1.393 . S
C416 H405 0.950 . S
C416 C414 1.391 . S
C416 C417 1.400 . S
C417 C411 1.491 . S
C417 C416 1.400 . S
C417 C418 1.398 . S
C418 H406 0.950 . S
C418 C417 1.398 . S
C418 C419 1.391 . S
C419 H407 0.950 . S
C419 C415 1.393 . S
C419 C418 1.391 . S
H420 C428 0.950 . S
H421 C433 0.950 . S
H422 C430 0.950 . S
H423 C432 0.950 . S
H424 C434 0.950 . S
H425 C436 0.950 . S
H426 C438 0.950 . S
H427 C439 0.950 . S
C428 H420 0.950 . S
C428 C429 1.386 . S
C428 C430 1.391 . S
C429 C428 1.386 . S
C429 C433 1.393 . S
C430 H422 0.950 . S
C430 C428 1.391 . S
C430 C431 1.400 . S
C431 C430 1.400 . S
C431 C432 1.398 . S
C431 C437 1.491 . S
C432 H423 0.950 . S
C432 C431 1.398 . S
C432 C433 1.391 . S
C433 H421 0.950 . S
C433 C429 1.393 . S
C433 C432 1.391 . S
C434 H424 0.950 . S
C434 C435 1.386 . S
C434 C436 1.391 . S
C435 C434 1.386 . S
C435 C439 1.393 . S
C436 H425 0.950 . S
C436 C434 1.391 . S
C436 C437 1.400 . S
C437 C431 1.491 . S
C437 C436 1.400 . S
C437 C438 1.398 . S
C438 H426 0.950 . S
C438 C437 1.398 . S
C438 C439 1.391 . S
C439 H427 0.950 . S
C439 C435 1.393 . S
C439 C438 1.391 . S
H440 C448 0.950 . S
H441 C453 0.950 . S
H442 C450 0.950 . S
H443 C452 0.950 . S
H444 C454 0.950 . S
H445 C456 0.950 . S
H446 C458 0.950 . S
H447 C459 0.950 . S
C448 H440 0.950 . S
C448 C449 1.386 . S
C448 C450 1.391 . S
C449 C448 1.386 . S
C449 C453 1.393 . S
C450 H442 0.950 . S
C450 C448 1.391 . S
C450 C451 1.400 . S
C451 C450 1.400 . S
C451 C452 1.398 . S
C451 C457 1.491 . S
C452 H443 0.950 . S
C452 C451 1.398 . S
C452 C453 1.391 . S
C453 H441 0.950 . S
C453 C449 1.393 . S
C453 C452 1.391 . S
C454 H444 0.950 . S
C454 C455 1.386 . S
C454 C456 1.391 . S
C455 C454 1.386 . S
C455 C459 1.393 . S
C456 H445 0.950 . S
C456 C454 1.391 . S
C456 C457 1.400 . S
C457 C451 1.491 . S
C457 C456 1.400 . S
C457 C458 1.398 . S
C458 H446 0.950 . S
C458 C457 1.398 . S
C458 C459 1.391 . S
C459 H447 0.950 . S
C459 C455 1.393 . S
C459 C458 1.391 . S
H460 C468 0.950 . S
H461 C473 0.950 . S
H462 C470 0.950 . S
H463 C472 0.950 . S
H464 C474 0.950 . S
H465 C476 0.950 . S
H466 C478 0.950 . S
H467 C479 0.950 . S
C468 H460 0.950 . S
C468 C469 1.386 . S
C468 C470 1.391 . S
C469 C468 1.386 . S
C469 C473 1.393 . S
C470 H462 0.950 . S
C470 C468 1.391 . S
C470 C471 1.400 . S
C471 C470 1.400 . S
C471 C472 1.398 . S
C471 C477 1.491 . S
C472 H463 0.950 . S
C472 C471 1.398 . S
C472 C473 1.391 . S
C473 H461 0.950 . S
C473 C469 1.393 . S
C473 C472 1.391 . S
C474 H464 0.950 . S
C474 C475 1.386 . S
C474 C476 1.391 . S
C475 C474 1.386 . S
C475 C479 1.393 . S
C476 H465 0.950 . S
C476 C474 1.391 . S
C476 C477 1.400 . S
C477 C471 1.491 . S
C477 C476 1.400 . S
C477 C478 1.398 . S
C478 H466 0.950 . S
C478 C477 1.398 . S
C478 C479 1.391 . S
C479 H467 0.950 . S
C479 C475 1.393 . S
C479 C478 1.391 . S
H480 C488 0.950 . S
H481 C493 0.950 . S
H482 C490 0.950 . S
H483 C492 0.950 . S
H484 C494 0.950 . S
H485 C496 0.950 . S
H486 C498 0.950 . S
H487 C499 0.950 . S
C488 H480 0.950 . S
C488 C489 1.386 . S
C488 C490 1.391 . S
C489 C488 1.386 . S
C489 C493 1.393 . S
C490 H482 0.950 . S
C490 C488 1.391 . S
C490 C491 1.400 . S
C491 C490 1.400 . S
C491 C492 1.398 . S
C491 C497 1.491 . S
C492 H483 0.950 . S
C492 C491 1.398 . S
C492 C493 1.391 . S
C493 H481 0.950 . S
C493 C489 1.393 . S
C493 C492 1.391 . S
C494 H484 0.950 . S
C494 C495 1.386 . S
C494 C496 1.391 . S
C495 C494 1.386 . S
C495 C499 1.393 . S
C496 H485 0.950 . S
C496 C494 1.391 . S
C496 C497 1.400 . S
C497 C491 1.491 . S
C497 C496 1.400 . S
C497 C498 1.398 . S
C498 H486 0.950 . S
C498 C497 1.398 . S
C498 C499 1.391 . S
C499 H487 0.950 . S
C499 C495 1.393 . S
C499 C498 1.391 . S
H500 C508 0.950 . S
H501 C513 0.950 . S
H502 C510 0.950 . S
H503 C512 0.950 . S
H504 C514 0.950 . S
H505 C516 0.950 . S
H506 C518 0.950 . S
H507 C519 0.950 . S
C508 H500 0.950 . S
C508 C509 1.386 . S
C508 C510 1.391 . S
C509 C508 1.386 . S
C509 C513 1.393 . S
C510 H502 0.950 . S
C510 C508 1.391 . S
C510 C511 1.400 . S
C511 C510 1.400 . S
C511 C512 1.398 . S
C511 C517 1.491 . S
C512 H503 0.950 . S
C512 C511 1.398 . S
C512 C513 1.391 . S
C513 H501 0.950 . S
C513 C509 1.393 . S
C513 C512 1.391 . S
C514 H504 0.950 . S
C514 C515 1.386 . S
C514 C516 1.391 . S
C515 C514 1.386 . S
C515 C519 1.393 . S
C516 H505 0.950 . S
C516 C514 1.391 . S
C516 C517 1.400 . S
C517 C511 1.491 . S
C517 C516 1.400 . S
C517 C518 1.398 . S
C518 H506 0.950 . S
C518 C517 1.398 . S
C518 C519 1.391 . S
C519 H507 0.950 . S
C519 C515 1.393 . S
C519 C518 1.391 . S
H520 C528 0.950 . S
H521 C533 0.950 . S
H522 C530 0.950 . S
H523 C532 0.950 . S
H524 C534 0.950 . S
H525 C536 0.950 . S
H526 C538 0.950 . S
H527 C539 0.950 . S
C528 H520 0.950 . S
C528 C529 1.386 . S
C528 C530 1.391 . S
C529 C528 1.386 . S
C529 C533 1.393 . S
C530 H522 0.950 . S
C530 C528 1.391 . S
C530 C531 1.400 . S
C531 C530 1.400 . S
C531 C532 1.398 . S
C531 C537 1.491 . S
C532 H523 0.950 . S
C532 C531 1.398 . S
C532 C533 1.391 . S
C533 H521 0.950 . S
C533 C529 1.393 . S
C533 C532 1.391 . S
C534 H524 0.950 . S
C534 C535 1.386 . S
C534 C536 1.391 . S
C535 C534 1.386 . S
C535 C539 1.393 . S
C536 H525 0.950 . S
C536 C534 1.391 . S
C536 C537 1.400 . S
C537 C531 1.491 . S
C537 C536 1.400 . S
C537 C538 1.398 . S
C538 H526 0.950 . S
C538 C537 1.398 . S
C538 C539 1.391 . S
C539 H527 0.950 . S
C539 C535 1.393 . S
C539 C538 1.391 . S
H540 C548 0.950 . S
H541 C553 0.950 . S
H542 C550 0.950 . S
H543 C552 0.950 . S
H544 C554 0.950 . S
H545 C556 0.950 . S
H546 C558 0.950 . S
H547 C559 0.950 . S
C548 H540 0.950 . S
C548 C549 1.386 . S
C548 C550 1.391 . S
C549 C548 1.386 . S
C549 C553 1.393 . S
C550 H542 0.950 . S
C550 C548 1.391 . S
C550 C551 1.400 . S
C551 C550 1.400 . S
C551 C552 1.398 . S
C551 C557 1.491 . S
C552 H543 0.950 . S
C552 C551 1.398 . S
C552 C553 1.391 . S
C553 H541 0.950 . S
C553 C549 1.393 . S
C553 C552 1.391 . S
C554 H544 0.950 . S
C554 C555 1.386 . S
C554 C556 1.391 . S
C555 C554 1.386 . S
C555 C559 1.393 . S
C556 H545 0.950 . S
C556 C554 1.391 . S
C556 C557 1.400 . S
C557 C551 1.491 . S
C557 C556 1.400 . S
C557 C558 1.398 . S
C558 H546 0.950 . S
C558 C557 1.398 . S
C558 C559 1.391 . S
C559 H547 0.950 . S
C559 C555 1.393 . S
C559 C558 1.391 . S
H560 C568 0.950 . S
H561 C573 0.950 . S
H562 C570 0.950 . S
H563 C572 0.950 . S
H564 C574 0.950 . S
H565 C576 0.950 . S
H566 C578 0.950 . S
H567 C579 0.950 . S
C568 H560 0.950 . S
C568 C569 1.386 . S
C568 C570 1.391 . S
C569 C568 1.386 . S
C569 C573 1.393 . S
C570 H562 0.950 . S
C570 C568 1.391 . S
C570 C571 1.400 . S
C571 C570 1.400 . S
C571 C572 1.398 . S
C571 C577 1.491 . S
C572 H563 0.950 . S
C572 C571 1.398 . S
C572 C573 1.391 . S
C573 H561 0.950 . S
C573 C569 1.393 . S
C573 C572 1.391 . S
C574 H564 0.950 . S
C574 C575 1.386 . S
C574 C576 1.391 . S
C575 C574 1.386 . S
C575 C579 1.393 . S
C576 H565 0.950 . S
C576 C574 1.391 . S
C576 C577 1.400 . S
C577 C571 1.491 . S
C577 C576 1.400 . S
C577 C578 1.398 . S
C578 H566 0.950 . S
C578 C577 1.398 . S
C578 C579 1.391 . S
C579 H567 0.950 . S
C579 C575 1.393 . S
C579 C578 1.391 . S
H580 C588 0.950 1_554 S
H581 C593 0.950 . S
H582 C590 0.950 . S
H583 C592 0.950 . S
H584 C594 0.950 . S
H585 C596 0.950 . S
H586 C598 0.950 . S
H587 C599 0.950 . S
C588 H580 0.950 1_556 S
C588 C589 1.386 . S
C588 C590 1.391 . S
C589 C588 1.386 . S
C589 C593 1.393 . S
C590 H582 0.950 . S
C590 C588 1.391 . S
C590 C591 1.400 . S
C591 C590 1.400 . S
C591 C592 1.398 . S
C591 C597 1.491 . S
C592 H583 0.950 . S
C592 C591 1.398 . S
C592 C593 1.391 . S
C593 H581 0.950 . S
C593 C589 1.393 . S
C593 C592 1.391 . S
C594 H584 0.950 . S
C594 C595 1.386 . S
C594 C596 1.391 . S
C595 C594 1.386 . S
C595 C599 1.393 . S
C596 H585 0.950 . S
C596 C594 1.391 . S
C596 C597 1.400 . S
C597 C591 1.491 . S
C597 C596 1.400 . S
C597 C598 1.398 . S
C598 H586 0.950 . S
C598 C597 1.398 . S
C598 C599 1.391 . S
C599 H587 0.950 . S
C599 C595 1.393 . S
C599 C598 1.391 . S
H600 C608 0.950 . S
H601 C613 0.950 . S
H602 C610 0.950 . S
H603 C612 0.950 . S
H604 C614 0.950 . S
H605 C616 0.950 . S
H606 C618 0.950 . S
H607 C619 0.950 . S
C608 H600 0.950 . S
C608 C609 1.386 . S
C608 C610 1.391 . S
C609 C608 1.386 . S
C609 C613 1.393 . S
C610 H602 0.950 . S
C610 C608 1.391 . S
C610 C611 1.400 . S
C611 C610 1.400 . S
C611 C612 1.398 . S
C611 C617 1.491 . S
C612 H603 0.950 . S
C612 C611 1.398 . S
C612 C613 1.391 . S
C613 H601 0.950 . S
C613 C609 1.393 . S
C613 C612 1.391 . S
C614 H604 0.950 . S
C614 C615 1.386 . S
C614 C616 1.391 . S
C615 C614 1.386 . S
C615 C619 1.393 . S
C616 H605 0.950 . S
C616 C614 1.391 . S
C616 C617 1.400 . S
C617 C611 1.491 . S
C617 C616 1.400 . S
C617 C618 1.398 . S
C618 H606 0.950 . S
C618 C617 1.398 . S
C618 C619 1.391 . S
C619 H607 0.950 . S
C619 C615 1.393 . S
C619 C618 1.391 . S
H620 C628 0.950 . S
H621 C633 0.950 . S
H622 C630 0.950 . S
H623 C632 0.950 . S
H624 C634 0.950 . S
H625 C636 0.950 . S
H626 C638 0.950 . S
H627 C639 0.950 . S
C628 H620 0.950 . S
C628 C629 1.386 . S
C628 C630 1.391 . S
C629 C628 1.386 . S
C629 C633 1.393 . S
C630 H622 0.950 . S
C630 C628 1.391 . S
C630 C631 1.400 . S
C631 C630 1.400 . S
C631 C632 1.398 . S
C631 C637 1.491 . S
C632 H623 0.950 . S
C632 C631 1.398 . S
C632 C633 1.391 . S
C633 H621 0.950 . S
C633 C629 1.393 . S
C633 C632 1.391 . S
C634 H624 0.950 . S
C634 C635 1.386 . S
C634 C636 1.391 . S
C635 C634 1.386 . S
C635 C639 1.393 . S
C636 H625 0.950 . S
C636 C634 1.391 . S
C636 C637 1.400 . S
C637 C631 1.491 . S
C637 C636 1.400 . S
C637 C638 1.398 . S
C638 H626 0.950 . S
C638 C637 1.398 . S
C638 C639 1.391 . S
C639 H627 0.950 . S
C639 C635 1.393 . S
C639 C638 1.391 . S
H640 C648 0.950 1_565 S
H641 C653 0.950 . S
H642 C650 0.950 . S
H643 C652 0.950 . S
H644 C654 0.950 1_545 S
H645 C656 0.950 . S
H646 C658 0.950 . S
H647 C659 0.950 . S
C648 H640 0.950 1_545 S
C648 C649 1.386 . S
C648 C650 1.391 1_545 S
C649 C648 1.386 . S
C649 C653 1.393 1_655 S
C650 H642 0.950 . S
C650 C648 1.391 1_565 S
C650 C651 1.400 1_565 S
C651 C650 1.400 1_545 S
C651 C652 1.398 1_655 S
C651 C657 1.491 1_646 S
C652 H643 0.950 . S
C652 C651 1.398 1_455 S
C652 C653 1.391 . S
C653 H641 0.950 . S
C653 C649 1.393 1_455 S
C653 C652 1.391 . S
C654 H644 0.950 1_565 S
C654 C655 1.386 . S
C654 C656 1.391 1_565 S
C655 C654 1.386 . S
C655 C659 1.393 1_455 S
C656 H645 0.950 . S
C656 C654 1.391 1_545 S
C656 C657 1.400 1_545 S
C657 C651 1.491 1_464 S
C657 C656 1.400 1_565 S
C657 C658 1.398 1_455 S
C658 H646 0.950 . S
C658 C657 1.398 1_655 S
C658 C659 1.391 . S
C659 H647 0.950 . S
C659 C655 1.393 1_655 S
C659 C658 1.391 . S
H660 C668 0.950 . S
H661 C673 0.950 . S
H662 C670 0.950 . S
H663 C672 0.950 . S
H664 C674 0.950 . S
H665 C676 0.950 . S
H666 C678 0.950 . S
H667 C679 0.950 . S
C668 H660 0.950 . S
C668 C669 1.386 . S
C668 C670 1.391 . S
C669 C668 1.386 . S
C669 C673 1.393 . S
C670 H662 0.950 . S
C670 C668 1.391 . S
C670 C671 1.400 . S
C671 C670 1.400 . S
C671 C672 1.398 . S
C671 C677 1.491 . S
C672 H663 0.950 . S
C672 C671 1.398 . S
C672 C673 1.391 . S
C673 H661 0.950 . S
C673 C669 1.393 . S
C673 C672 1.391 . S
C674 H664 0.950 . S
C674 C675 1.386 . S
C674 C676 1.391 . S
C675 C674 1.386 . S
C675 C679 1.393 . S
C676 H665 0.950 . S
C676 C674 1.391 . S
C676 C677 1.400 . S
C677 C671 1.491 . S
C677 C676 1.400 . S
C677 C678 1.398 . S
C678 H666 0.950 . S
C678 C677 1.398 . S
C678 C679 1.391 . S
C679 H667 0.950 . S
C679 C675 1.393 . S
C679 C678 1.391 . S
H680 C688 0.950 . S
H681 C693 0.950 . S
H682 C690 0.950 . S
H683 C692 0.950 1_565 S
H684 C694 0.950 . S
H685 C696 0.950 . S
H686 C698 0.950 1_545 S
H687 C699 0.950 . S
C688 H680 0.950 . S
C688 C689 1.386 . S
C688 C690 1.391 . S
C689 C688 1.386 . S
C689 C693 1.393 . S
C690 H682 0.950 . S
C690 C688 1.391 . S
C690 C691 1.400 . S
C691 C690 1.400 . S
C691 C692 1.398 . S
C691 C697 1.491 1_545 S
C692 H683 0.950 1_545 S
C692 C691 1.398 . S
C692 C693 1.391 . S
C693 H681 0.950 . S
C693 C689 1.393 . S
C693 C692 1.391 . S
C694 H684 0.950 . S
C694 C695 1.386 . S
C694 C696 1.391 . S
C695 C694 1.386 . S
C695 C699 1.393 . S
C696 H685 0.950 . S
C696 C694 1.391 . S
C696 C697 1.400 . S
C697 C691 1.491 1_565 S
C697 C696 1.400 . S
C697 C698 1.398 . S
C698 H686 0.950 1_565 S
C698 C697 1.398 . S
C698 C699 1.391 . S
C699 H687 0.950 . S
C699 C695 1.393 . S
C699 C698 1.391 . S
H700 C708 0.950 . S
H701 C713 0.950 . S
H702 C710 0.950 . S
H703 C712 0.950 . S
H704 C714 0.950 . S
H705 C716 0.950 . S
H706 C718 0.950 . S
H707 C719 0.950 . S
C708 H700 0.950 . S
C708 C709 1.386 . S
C708 C710 1.391 . S
C709 C708 1.386 . S
C709 C713 1.393 . S
C710 H702 0.950 . S
C710 C708 1.391 . S
C710 C711 1.400 . S
C711 C710 1.400 . S
C711 C712 1.398 . S
C711 C717 1.491 . S
C712 H703 0.950 . S
C712 C711 1.398 . S
C712 C713 1.391 . S
C713 H701 0.950 . S
C713 C709 1.393 . S
C713 C712 1.391 . S
C714 H704 0.950 . S
C714 C715 1.386 . S
C714 C716 1.391 . S
C715 C714 1.386 . S
C715 C719 1.393 . S
C716 H705 0.950 . S
C716 C714 1.391 . S
C716 C717 1.400 . S
C717 C711 1.491 . S
C717 C716 1.400 . S
C717 C718 1.398 . S
C718 H706 0.950 . S
C718 C717 1.398 . S
C718 C719 1.391 . S
C719 H707 0.950 . S
C719 C715 1.393 . S
C719 C718 1.391 . S
H720 C728 0.950 . S
H721 C733 0.950 . S
H722 C730 0.950 . S
H723 C732 0.950 . S
H724 C734 0.950 . S
H725 C736 0.950 . S
H726 C738 0.950 . S
H727 C739 0.950 . S
C728 H720 0.950 . S
C728 C729 1.386 . S
C728 C730 1.391 . S
C729 C728 1.386 . S
C729 C733 1.393 . S
C730 H722 0.950 . S
C730 C728 1.391 . S
C730 C731 1.400 . S
C731 C730 1.400 . S
C731 C732 1.398 . S
C731 C737 1.491 . S
C732 H723 0.950 . S
C732 C731 1.398 . S
C732 C733 1.391 . S
C733 H721 0.950 . S
C733 C729 1.393 . S
C733 C732 1.391 . S
C734 H724 0.950 . S
C734 C735 1.386 . S
C734 C736 1.391 . S
C735 C734 1.386 . S
C735 C739 1.393 . S
C736 H725 0.950 . S
C736 C734 1.391 . S
C736 C737 1.400 . S
C737 C731 1.491 . S
C737 C736 1.400 . S
C737 C738 1.398 . S
C738 H726 0.950 . S
C738 C737 1.398 . S
C738 C739 1.391 . S
C739 H727 0.950 . S
C739 C735 1.393 . S
C739 C738 1.391 . S
H740 C748 0.950 . S
H741 C753 0.950 . S
H742 C750 0.950 . S
H743 C752 0.950 . S
H744 C754 0.950 . S
H745 C756 0.950 . S
H746 C758 0.950 . S
H747 C759 0.950 . S
C748 H740 0.950 . S
C748 C749 1.386 . S
C748 C750 1.391 . S
C749 C748 1.386 . S
C749 C753 1.393 . S
C750 H742 0.950 . S
C750 C748 1.391 . S
C750 C751 1.400 . S
C751 C750 1.400 . S
C751 C752 1.398 . S
C751 C757 1.491 . S
C752 H743 0.950 . S
C752 C751 1.398 . S
C752 C753 1.391 . S
C753 H741 0.950 . S
C753 C749 1.393 . S
C753 C752 1.391 . S
C754 H744 0.950 . S
C754 C755 1.386 . S
C754 C756 1.391 . S
C755 C754 1.386 . S
C755 C759 1.393 . S
C756 H745 0.950 . S
C756 C754 1.391 . S
C756 C757 1.400 . S
C757 C751 1.491 . S
C757 C756 1.400 . S
C757 C758 1.398 . S
C758 H746 0.950 . S
C758 C757 1.398 . S
C758 C759 1.391 . S
C759 H747 0.950 . S
C759 C755 1.393 . S
C759 C758 1.391 . S
H760 C768 0.950 . S
H761 C773 0.950 . S
H762 C770 0.950 . S
H763 C772 0.950 . S
H764 C774 0.950 . S
H765 C776 0.950 . S
H766 C778 0.950 . S
H767 C779 0.950 . S
C768 H760 0.950 . S
C768 C769 1.386 . S
C768 C770 1.391 . S
C769 C768 1.386 . S
C769 C773 1.393 . S
C770 H762 0.950 . S
C770 C768 1.391 . S
C770 C771 1.400 . S
C771 C770 1.400 . S
C771 C772 1.398 . S
C771 C777 1.491 . S
C772 H763 0.950 . S
C772 C771 1.398 . S
C772 C773 1.391 . S
C773 H761 0.950 . S
C773 C769 1.393 . S
C773 C772 1.391 . S
C774 H764 0.950 . S
C774 C775 1.386 . S
C774 C776 1.391 . S
C775 C774 1.386 . S
C775 C779 1.393 . S
C776 H765 0.950 . S
C776 C774 1.391 . S
C776 C777 1.400 . S
C777 C771 1.491 . S
C777 C776 1.400 . S
C777 C778 1.398 . S
C778 H766 0.950 . S
C778 C777 1.398 . S
C778 C779 1.391 . S
C779 H767 0.950 . S
C779 C775 1.393 . S
C779 C778 1.391 . S
H780 C788 0.950 . S
H781 C793 0.950 . S
H782 C790 0.950 . S
H783 C792 0.950 . S
H784 C794 0.950 . S
H785 C796 0.950 . S
H786 C798 0.950 . S
H787 C799 0.950 . S
C788 H780 0.950 . S
C788 C789 1.386 . S
C788 C790 1.391 . S
C789 C788 1.386 . S
C789 C793 1.393 . S
C790 H782 0.950 . S
C790 C788 1.391 . S
C790 C791 1.400 . S
C791 C790 1.400 . S
C791 C792 1.398 1_455 S
C791 C797 1.491 1_456 S
C792 H783 0.950 . S
C792 C791 1.398 1_655 S
C792 C793 1.391 1_655 S
C793 H781 0.950 . S
C793 C789 1.393 . S
C793 C792 1.391 1_455 S
C794 H784 0.950 . S
C794 C795 1.386 . S
C794 C796 1.391 . S
C795 C794 1.386 . S
C795 C799 1.393 . S
C796 H785 0.950 . S
C796 C794 1.391 . S
C796 C797 1.400 . S
C797 C791 1.491 1_654 S
C797 C796 1.400 . S
C797 C798 1.398 1_655 S
C798 H786 0.950 . S
C798 C797 1.398 1_455 S
C798 C799 1.391 1_455 S
C799 H787 0.950 . S
C799 C795 1.393 . S
C799 C798 1.391 1_655 S
C329 C31 1.518 . S
C335 C143 1.504 . S
C349 C23 1.506 . S
C355 C71 1.519 . S
C369 C63 1.509 . S
C375 C111 1.522 . S
C389 C103 1.506 . S
C395 C151 1.514 . S
C409 C20 1.518 . S
C415 C202 1.512 . S
C429 C2 1.505 . S
C435 C180 1.519 . S
C449 C162 1.506 . S
C455 C100 1.516 . S
C469 C220 1.522 . S
C475 C82 1.520 . S
C489 C271 1.520 . S
C495 C223 1.517 . S
C509 C191 1.522 . S
C515 C263 1.515 . S
C529 C311 1.522 . S
C535 C183 1.512 . S
C549 C231 1.518 . S
C555 C303 1.509 . S
C569 C122 1.517 . S
C575 C260 1.520 . S
C589 C242 1.506 . S
C595 C60 1.519 . S
C609 C42 1.517 . S
C615 C300 1.520 . S
C629 C140 1.522 . S
C635 C282 1.507 . S
C649 C4 1.495 . S
C655 C25 1.495 . S
C669 C65 1.503 . S
C675 C44 1.503 . S
C689 C105 1.499 . S
C695 C84 1.499 . S
C709 C145 1.504 . S
C715 C124 1.504 . S
C729 C185 1.516 . S
C735 C164 1.516 . S
C749 C225 1.499 . S
C755 C204 1.499 . S
C769 C265 1.505 . S
C775 C244 1.505 . S
C789 C284 1.495 . S
C795 C305 1.495 . S
