# Generated by pormake.
# Topology son, (6)-cn, num edge types: 1
# Building blocks:
#     Node 0, Type 0, BuildingBlock: BETGAK_clean_sbu_0, # of connection points: 6
#     Node 1, Type 0, BuildingBlock: BETGAK_clean_sbu_0, # of connection points: 6
#     Node 2, Type 0, BuildingBlock: BETGAK_clean_sbu_0, # of connection points: 6
#     Node 3, Type 0, BuildingBlock: BETGAK_clean_sbu_0, # of connection points: 6
#     Node 4, Type 0, BuildingBlock: BETGAK_clean_sbu_0, # of connection points: 6
#     Node 5, Type 0, BuildingBlock: BETGAK_clean_sbu_0, # of connection points: 6
#     Node 6, Type 0, BuildingBlock: BETGAK_clean_sbu_0, # of connection points: 6
#     Node 7, Type 0, BuildingBlock: BETGAK_clean_sbu_0, # of connection points: 6
#     Node 8, Type 0, BuildingBlock: BETGAK_clean_sbu_0, # of connection points: 6
#     Node 9, Type 0, BuildingBlock: BETGAK_clean_sbu_0, # of connection points: 6
#     Node 10, Type 0, BuildingBlock: BETGAK_clean_sbu_0, # of connection points: 6
#     Node 11, Type 0, BuildingBlock: BETGAK_clean_sbu_0, # of connection points: 6
#     Node 12, Type 0, BuildingBlock: BETGAK_clean_sbu_0, # of connection points: 6
#     Node 13, Type 0, BuildingBlock: BETGAK_clean_sbu_0, # of connection points: 6
#     Node 14, Type 0, BuildingBlock: BETGAK_clean_sbu_0, # of connection points: 6
#     Node 15, Type 0, BuildingBlock: BETGAK_clean_sbu_0, # of connection points: 6
#     Node 16, Type 0, BuildingBlock: BETGAK_clean_sbu_0, # of connection points: 6
#     Node 17, Type 0, BuildingBlock: BETGAK_clean_sbu_0, # of connection points: 6
#     Node 18, Type 0, BuildingBlock: BETGAK_clean_sbu_0, # of connection points: 6
#     Node 19, Type 0, BuildingBlock: BETGAK_clean_sbu_0, # of connection points: 6
#     Node 20, Type 0, BuildingBlock: BETGAK_clean_sbu_0, # of connection points: 6
#     Node 21, Type 0, BuildingBlock: BETGAK_clean_sbu_0, # of connection points: 6
#     Node 22, Type 0, BuildingBlock: BETGAK_clean_sbu_0, # of connection points: 6
#     Node 23, Type 0, BuildingBlock: BETGAK_clean_sbu_0, # of connection points: 6
#     Node 24, Type 0, BuildingBlock: BETGAK_clean_sbu_0, # of connection points: 6
#     Node 25, Type 0, BuildingBlock: BETGAK_clean_sbu_0, # of connection points: 6
#     Node 26, Type 0, BuildingBlock: BETGAK_clean_sbu_0, # of connection points: 6
#     Node 27, Type 0, BuildingBlock: BETGAK_clean_sbu_0, # of connection points: 6
#     Node 28, Type 0, BuildingBlock: BETGAK_clean_sbu_0, # of connection points: 6
#     Node 29, Type 0, BuildingBlock: BETGAK_clean_sbu_0, # of connection points: 6
#     Node 30, Type 0, BuildingBlock: BETGAK_clean_sbu_0, # of connection points: 6
#     Node 31, Type 0, BuildingBlock: BETGAK_clean_sbu_0, # of connection points: 6
#     Edge 32, Type (0, 0), BuildingBlock: XIVTED_clean_linker_0, # of connection points: 2
#     Edge 33, Type (0, 0), BuildingBlock: XIVTED_clean_linker_0, # of connection points: 2
#     Edge 34, Type (0, 0), BuildingBlock: XIVTED_clean_linker_0, # of connection points: 2
#     Edge 35, Type (0, 0), BuildingBlock: XIVTED_clean_linker_0, # of connection points: 2
#     Edge 36, Type (0, 0), BuildingBlock: XIVTED_clean_linker_0, # of connection points: 2
#     Edge 37, Type (0, 0), BuildingBlock: XIVTED_clean_linker_0, # of connection points: 2
#     Edge 38, Type (0, 0), BuildingBlock: XIVTED_clean_linker_0, # of connection points: 2
#     Edge 39, Type (0, 0), BuildingBlock: XIVTED_clean_linker_0, # of connection points: 2
#     Edge 40, Type (0, 0), BuildingBlock: XIVTED_clean_linker_0, # of connection points: 2
#     Edge 41, Type (0, 0), BuildingBlock: XIVTED_clean_linker_0, # of connection points: 2
#     Edge 42, Type (0, 0), BuildingBlock: XIVTED_clean_linker_0, # of connection points: 2
#     Edge 43, Type (0, 0), BuildingBlock: XIVTED_clean_linker_0, # of connection points: 2
#     Edge 44, Type (0, 0), BuildingBlock: XIVTED_clean_linker_0, # of connection points: 2
#     Edge 45, Type (0, 0), BuildingBlock: XIVTED_clean_linker_0, # of connection points: 2
#     Edge 46, Type (0, 0), BuildingBlock: XIVTED_clean_linker_0, # of connection points: 2
#     Edge 47, Type (0, 0), BuildingBlock: XIVTED_clean_linker_0, # of connection points: 2
#     Edge 48, Type (0, 0), BuildingBlock: XIVTED_clean_linker_0, # of connection points: 2
#     Edge 49, Type (0, 0), BuildingBlock: XIVTED_clean_linker_0, # of connection points: 2
#     Edge 50, Type (0, 0), BuildingBlock: XIVTED_clean_linker_0, # of connection points: 2
#     Edge 51, Type (0, 0), BuildingBlock: XIVTED_clean_linker_0, # of connection points: 2
#     Edge 52, Type (0, 0), BuildingBlock: XIVTED_clean_linker_0, # of connection points: 2
#     Edge 53, Type (0, 0), BuildingBlock: XIVTED_clean_linker_0, # of connection points: 2
#     Edge 54, Type (0, 0), BuildingBlock: XIVTED_clean_linker_0, # of connection points: 2
#     Edge 55, Type (0, 0), BuildingBlock: XIVTED_clean_linker_0, # of connection points: 2
#     Edge 56, Type (0, 0), BuildingBlock: XIVTED_clean_linker_0, # of connection points: 2
#     Edge 57, Type (0, 0), BuildingBlock: XIVTED_clean_linker_0, # of connection points: 2
#     Edge 58, Type (0, 0), BuildingBlock: XIVTED_clean_linker_0, # of connection points: 2
#     Edge 59, Type (0, 0), BuildingBlock: XIVTED_clean_linker_0, # of connection points: 2
#     Edge 60, Type (0, 0), BuildingBlock: XIVTED_clean_linker_0, # of connection points: 2
#     Edge 61, Type (0, 0), BuildingBlock: XIVTED_clean_linker_0, # of connection points: 2
#     Edge 62, Type (0, 0), BuildingBlock: XIVTED_clean_linker_0, # of connection points: 2
#     Edge 63, Type (0, 0), BuildingBlock: XIVTED_clean_linker_0, # of connection points: 2
#     Edge 64, Type (0, 0), BuildingBlock: XIVTED_clean_linker_0, # of connection points: 2
#     Edge 65, Type (0, 0), BuildingBlock: XIVTED_clean_linker_0, # of connection points: 2
#     Edge 66, Type (0, 0), BuildingBlock: XIVTED_clean_linker_0, # of connection points: 2
#     Edge 67, Type (0, 0), BuildingBlock: XIVTED_clean_linker_0, # of connection points: 2
#     Edge 68, Type (0, 0), BuildingBlock: XIVTED_clean_linker_0, # of connection points: 2
#     Edge 69, Type (0, 0), BuildingBlock: XIVTED_clean_linker_0, # of connection points: 2
#     Edge 70, Type (0, 0), BuildingBlock: XIVTED_clean_linker_0, # of connection points: 2
#     Edge 71, Type (0, 0), BuildingBlock: XIVTED_clean_linker_0, # of connection points: 2
#     Edge 72, Type (0, 0), BuildingBlock: XIVTED_clean_linker_0, # of connection points: 2
#     Edge 73, Type (0, 0), BuildingBlock: XIVTED_clean_linker_0, # of connection points: 2
#     Edge 74, Type (0, 0), BuildingBlock: XIVTED_clean_linker_0, # of connection points: 2
#     Edge 75, Type (0, 0), BuildingBlock: XIVTED_clean_linker_0, # of connection points: 2
#     Edge 76, Type (0, 0), BuildingBlock: XIVTED_clean_linker_0, # of connection points: 2
#     Edge 77, Type (0, 0), BuildingBlock: XIVTED_clean_linker_0, # of connection points: 2
#     Edge 78, Type (0, 0), BuildingBlock: XIVTED_clean_linker_0, # of connection points: 2
#     Edge 79, Type (0, 0), BuildingBlock: XIVTED_clean_linker_0, # of connection points: 2
#     Edge 80, Type (0, 0), BuildingBlock: XIVTED_clean_linker_0, # of connection points: 2
#     Edge 81, Type (0, 0), BuildingBlock: XIVTED_clean_linker_0, # of connection points: 2
#     Edge 82, Type (0, 0), BuildingBlock: XIVTED_clean_linker_0, # of connection points: 2
#     Edge 83, Type (0, 0), BuildingBlock: XIVTED_clean_linker_0, # of connection points: 2
#     Edge 84, Type (0, 0), BuildingBlock: XIVTED_clean_linker_0, # of connection points: 2
#     Edge 85, Type (0, 0), BuildingBlock: XIVTED_clean_linker_0, # of connection points: 2
#     Edge 86, Type (0, 0), BuildingBlock: XIVTED_clean_linker_0, # of connection points: 2
#     Edge 87, Type (0, 0), BuildingBlock: XIVTED_clean_linker_0, # of connection points: 2
#     Edge 88, Type (0, 0), BuildingBlock: XIVTED_clean_linker_0, # of connection points: 2
#     Edge 89, Type (0, 0), BuildingBlock: XIVTED_clean_linker_0, # of connection points: 2
#     Edge 90, Type (0, 0), BuildingBlock: XIVTED_clean_linker_0, # of connection points: 2
#     Edge 91, Type (0, 0), BuildingBlock: XIVTED_clean_linker_0, # of connection points: 2
#     Edge 92, Type (0, 0), BuildingBlock: XIVTED_clean_linker_0, # of connection points: 2
#     Edge 93, Type (0, 0), BuildingBlock: XIVTED_clean_linker_0, # of connection points: 2
#     Edge 94, Type (0, 0), BuildingBlock: XIVTED_clean_linker_0, # of connection points: 2
#     Edge 95, Type (0, 0), BuildingBlock: XIVTED_clean_linker_0, # of connection points: 2
#     Edge 96, Type (0, 0), BuildingBlock: XIVTED_clean_linker_0, # of connection points: 2
#     Edge 97, Type (0, 0), BuildingBlock: XIVTED_clean_linker_0, # of connection points: 2
#     Edge 98, Type (0, 0), BuildingBlock: XIVTED_clean_linker_0, # of connection points: 2
#     Edge 99, Type (0, 0), BuildingBlock: XIVTED_clean_linker_0, # of connection points: 2
#     Edge 100, Type (0, 0), BuildingBlock: XIVTED_clean_linker_0, # of connection points: 2
#     Edge 101, Type (0, 0), BuildingBlock: XIVTED_clean_linker_0, # of connection points: 2
#     Edge 102, Type (0, 0), BuildingBlock: XIVTED_clean_linker_0, # of connection points: 2
#     Edge 103, Type (0, 0), BuildingBlock: XIVTED_clean_linker_0, # of connection points: 2
#     Edge 104, Type (0, 0), BuildingBlock: XIVTED_clean_linker_0, # of connection points: 2
#     Edge 105, Type (0, 0), BuildingBlock: XIVTED_clean_linker_0, # of connection points: 2
#     Edge 106, Type (0, 0), BuildingBlock: XIVTED_clean_linker_0, # of connection points: 2
#     Edge 107, Type (0, 0), BuildingBlock: XIVTED_clean_linker_0, # of connection points: 2
#     Edge 108, Type (0, 0), BuildingBlock: XIVTED_clean_linker_0, # of connection points: 2
#     Edge 109, Type (0, 0), BuildingBlock: XIVTED_clean_linker_0, # of connection points: 2
#     Edge 110, Type (0, 0), BuildingBlock: XIVTED_clean_linker_0, # of connection points: 2
#     Edge 111, Type (0, 0), BuildingBlock: XIVTED_clean_linker_0, # of connection points: 2
#     Edge 112, Type (0, 0), BuildingBlock: XIVTED_clean_linker_0, # of connection points: 2
#     Edge 113, Type (0, 0), BuildingBlock: XIVTED_clean_linker_0, # of connection points: 2
#     Edge 114, Type (0, 0), BuildingBlock: XIVTED_clean_linker_0, # of connection points: 2
#     Edge 115, Type (0, 0), BuildingBlock: XIVTED_clean_linker_0, # of connection points: 2
#     Edge 116, Type (0, 0), BuildingBlock: XIVTED_clean_linker_0, # of connection points: 2
#     Edge 117, Type (0, 0), BuildingBlock: XIVTED_clean_linker_0, # of connection points: 2
#     Edge 118, Type (0, 0), BuildingBlock: XIVTED_clean_linker_0, # of connection points: 2
#     Edge 119, Type (0, 0), BuildingBlock: XIVTED_clean_linker_0, # of connection points: 2
#     Edge 120, Type (0, 0), BuildingBlock: XIVTED_clean_linker_0, # of connection points: 2
#     Edge 121, Type (0, 0), BuildingBlock: XIVTED_clean_linker_0, # of connection points: 2
#     Edge 122, Type (0, 0), BuildingBlock: XIVTED_clean_linker_0, # of connection points: 2
#     Edge 123, Type (0, 0), BuildingBlock: XIVTED_clean_linker_0, # of connection points: 2
#     Edge 124, Type (0, 0), BuildingBlock: XIVTED_clean_linker_0, # of connection points: 2
#     Edge 125, Type (0, 0), BuildingBlock: XIVTED_clean_linker_0, # of connection points: 2
#     Edge 126, Type (0, 0), BuildingBlock: XIVTED_clean_linker_0, # of connection points: 2
#     Edge 127, Type (0, 0), BuildingBlock: XIVTED_clean_linker_0, # of connection points: 2
# Relax obj value: 0.153
# Max RMSD: 0.179
# Mean RMSD: 0.179
data_MOF--net-son--node1-BETGAK_clean_sbu_0--edge1-XIVTED_clean_linker_0
_symmetry_space_group_name_H-M    P1
_symmetry_Int_Tables_number       1
_symmetry_cell_setting            triclinic
loop_
_symmetry_equiv_pos_as_xyz
'x, y, z'
_cell_length_a     95.378944
_cell_length_b     51.929284
_cell_length_c     25.141556
_cell_angle_alpha  89.984166
_cell_angle_beta   89.981686
_cell_angle_gamma 90.001634
loop_
_atom_site_label
_atom_site_type_symbol
_atom_site_fract_x
_atom_site_fract_y
_atom_site_fract_z
_atom_type_partial_charge
La0 La 0.31279 0.28379 0.18717 0.0
La1 La 0.29365 0.27388 0.28564 0.0
C2 C 0.32289 0.28806 0.09505 0.0
C3 C 0.31869 0.28148 0.04002 0.0
C4 C 0.32886 0.2729 1.00388 0.0
C5 C 0.3254 0.26871 0.95044 0.0
C6 C 0.31168 0.27316 0.93177 0.0
C7 C 0.3014 0.28095 0.96865 0.0
C8 C 0.30485 0.28504 1.02214 0.0
C9 C 0.30933 0.32276 0.25488 0.0
C10 C 0.28007 0.27522 0.17259 0.0
C11 C 0.28175 0.28325 0.37327 0.0
C12 C 0.28388 0.27633 0.42959 0.0
C13 C 0.2742 0.28461 0.46793 0.0
C14 C 0.27694 0.28112 0.5222 0.0
C15 C 0.28948 0.26943 0.53922 0.0
C16 C 0.29894 0.26038 0.50041 0.0
C17 C 0.29615 0.26377 0.44615 0.0
C18 C 0.30056 0.22934 0.23975 0.0
C19 C 0.32718 0.26596 0.29057 0.0
O20 O 0.31553 0.30607 0.11867 0.0
O21 O 0.32589 0.26885 0.12708 0.0
O22 O 0.3208 0.3176 0.22945 0.0
O23 O 0.30003 0.30677 0.24034 0.0
O24 O 0.29285 0.2732 0.15327 0.0
O25 O 0.27758 0.27962 0.22386 0.0
O26 O 0.2777 0.26493 0.34081 0.0
O27 O 0.29166 0.29749 0.35251 0.0
O28 O 0.29303 0.23131 0.28262 0.0
O29 O 0.30392 0.25195 0.22667 0.0
O30 O 0.31526 0.27077 0.31648 0.0
O31 O 0.32825 0.2668 0.23816 0.0
H32 H 0.33957 0.26991 1.01678 0.0
H33 H 0.33355 0.26217 0.92367 0.0
H34 H 0.29075 0.28478 0.95594 0.0
H35 H 0.29677 0.29164 0.04915 0.0
H36 H 0.26473 0.29455 0.45595 0.0
H37 H 0.26949 0.28855 0.55084 0.0
H38 H 0.3086 0.25096 0.512 0.0
H39 H 0.30376 0.25723 0.41716 0.0
La40 La 0.92878 1.00014 0.18984 0.0
La41 La 0.94913 1.01076 0.28598 0.0
C42 C 0.91705 0.997 0.10001 0.0
C43 C 0.92089 0.999 0.04315 0.0
C44 C 0.91153 0.98982 1.00461 0.0
C45 C 0.91505 0.99051 0.95054 0.0
C46 C 0.92808 1.00031 0.93361 0.0
C47 C 0.93742 1.00974 0.97253 0.0
C48 C 0.93385 1.00913 0.02673 0.0
C49 C 0.93094 0.96342 0.26311 0.0
C50 C 0.96222 1.00146 0.17273 0.0
C51 C 0.96169 1.00407 0.37364 0.0
C52 C 0.95789 1.00224 0.43058 0.0
C53 C 0.96779 1.00935 0.4691 0.0
C54 C 0.9644 1.00871 0.52328 0.0
C55 C 0.95098 1.00092 0.54032 0.0
C56 C 0.9411 0.99356 0.50147 0.0
C57 C 0.9445 0.99428 0.44713 0.0
C58 C 0.94467 0.05358 0.22985 0.0
C59 C 0.91596 0.0211 0.29398 0.0
O60 O 0.92225 0.97723 0.1257 0.0
O61 O 0.91751 1.01821 0.12836 0.0
O62 O 0.91961 0.96872 0.23676 0.0
O63 O 0.94073 0.97769 0.24605 0.0
O64 O 0.94936 1.00049 0.15324 0.0
O65 O 0.96499 1.00372 0.22444 0.0
O66 O 0.95982 0.02656 0.35145 0.0
O67 O 0.95764 0.98531 0.34248 0.0
O68 O 0.95332 0.05176 0.26948 0.0
O69 O 0.93939 0.03152 0.22396 0.0
O70 O 0.92783 1.01499 0.31893 0.0
O71 O 0.91461 0.02033 0.24165 0.0
H72 H 0.90147 0.98198 1.01637 0.0
H73 H 0.90746 0.98353 0.92197 0.0
H74 H 0.9476 1.01718 0.9613 0.0
H75 H 0.94124 1.01637 0.05574 0.0
H76 H 0.97818 1.01555 0.45722 0.0
H77 H 0.97236 1.01412 0.55187 0.0
H78 H 0.93063 0.98772 0.51295 0.0
H79 H 0.93665 0.98884 0.41809 0.0
La80 La 0.31279 1.00369 0.10579 0.0
La81 La 0.29306 1.01405 1.00769 0.0
C82 C 0.32411 1.00214 0.19644 0.0
C83 C 0.3199 1.00617 0.25237 0.0
C84 C 0.32901 0.99853 0.29314 0.0
C85 C 0.32513 1.00132 0.34652 0.0
C86 C 0.31199 1.01169 0.36039 0.0
C87 C 0.30286 0.01938 0.31928 0.0
C88 C 0.30681 1.01678 0.26578 0.0
C89 C 0.30992 0.96565 0.03608 0.0
C90 C 0.27949 1.00641 0.12104 0.0
C91 C 0.28094 1.00549 0.92005 0.0
C92 C 0.28401 1.01021 0.8631 0.0
C93 C 0.27306 1.01575 0.82764 0.0
C94 C 0.2757 1.01843 0.77301 0.0
C95 C 0.28938 1.01555 0.7526 0.0
C96 C 0.30035 1.01039 0.78859 0.0
C97 C 0.2977 1.0078 0.84308 0.0
C98 C 0.29978 0.05794 0.0568 0.0
C99 C 0.32646 0.02192 1.00031 0.0
O100 O 0.31861 0.98206 0.17275 0.0
O101 O 0.3243 0.02251 0.16554 0.0
O102 O 0.32126 0.97055 0.0627 0.0
O103 O 0.3004 0.98111 0.05114 0.0
O104 O 0.29223 1.00577 0.14134 0.0
O105 O 0.27695 1.00794 0.06905 0.0
O106 O 0.27821 0.02556 0.94991 0.0
O107 O 0.28921 0.98911 0.9441 0.0
O108 O 0.29231 0.05657 1.01369 0.0
O109 O 0.30313 0.03514 0.06825 0.0
O110 O 0.31444 1.01721 0.97519 0.0
O111 O 0.32775 0.02112 0.0527 0.0
H112 H 0.33911 0.99018 0.28366 0.0
H113 H 0.33235 0.99485 0.37698 0.0
H114 H 0.29272 0.02767 0.32846 0.0
H115 H 0.29965 0.02301 0.23503 0.0
H116 H 0.26241 1.01767 0.84211 0.0
H117 H 0.26701 0.02276 0.74681 0.0
H118 H 0.31098 1.00761 0.77458 0.0
H119 H 0.30635 1.00332 0.86941 0.0
La120 La 0.92852 0.28168 0.10444 0.0
La121 La 0.94775 0.27243 1.01317 0.0
C122 C 0.91672 0.28319 0.19471 0.0
C123 C 0.92084 0.28317 0.25154 0.0
C124 C 0.91158 0.29332 0.28941 0.0
C125 C 0.91501 0.29316 0.34359 0.0
C126 C 0.92784 0.28282 0.36136 0.0
C127 C 0.93721 0.27293 0.32305 0.0
C128 C 0.93374 0.27305 0.26875 0.0
C129 C 0.93051 0.32037 0.03544 0.0
C130 C 0.96147 0.28465 0.12263 0.0
C131 C 0.95958 0.27315 0.92288 0.0
C132 C 0.95584 0.27553 0.86596 0.0
C133 C 0.96528 0.2665 0.82747 0.0
C134 C 0.96204 0.26807 0.77324 0.0
C135 C 0.94925 0.27875 0.75602 0.0
C136 C 0.93979 0.28783 0.79491 0.0
C137 C 0.94306 0.28626 0.84932 0.0
C138 C 0.94555 0.2325 0.0781 0.0
C139 C 0.91439 0.26473 1.00147 0.0
O140 O 0.92005 0.30365 0.16713 0.0
O141 O 0.91896 0.26199 0.16788 0.0
O142 O 0.91915 0.31382 0.06029 0.0
O143 O 0.94044 0.30625 0.05167 0.0
O144 O 0.9488 0.28225 0.1425 0.0
O145 O 0.96391 0.28368 0.07075 0.0
O146 O 0.95546 0.25215 0.94688 0.0
O147 O 0.95787 0.29352 0.95285 0.0
O148 O 0.95684 0.23926 0.05301 0.0
O149 O 0.93567 0.2474 0.06429 0.0
O150 O 0.92652 0.2701 0.97798 0.0
O151 O 0.9131 0.26462 0.05358 0.0
H152 H 0.90161 0.30135 0.27707 0.0
H153 H 0.90762 0.30139 0.37153 0.0
H154 H 0.94713 0.26461 0.33504 0.0
H155 H 0.94107 0.26503 0.24035 0.0
H156 H 0.97517 0.25803 0.83942 0.0
H157 H 0.96951 0.26046 0.74484 0.0
H158 H 0.9299 0.29643 0.78334 0.0
H159 H 0.93561 0.29342 0.87833 0.0
La160 La 0.6991 0.76243 0.75903 0.0
La161 La 0.68177 0.75041 0.85538 0.0
C162 C 0.71381 0.75942 0.67532 0.0
C163 C 0.71116 0.76275 0.61769 0.0
C164 C 0.69822 0.77194 0.59902 0.0
C165 C 0.69544 0.77302 0.54424 0.0
C166 C 0.70552 0.76483 0.50678 0.0
C167 C 0.71856 0.75604 0.52593 0.0
C168 C 0.72132 0.75499 0.5807 0.0
C169 C 0.68878 0.80358 0.80726 0.0
C170 C 0.66625 0.76531 0.75165 0.0
C171 C 0.67119 0.74909 0.94763 0.0
C172 C 0.67558 0.75305 1.00374 0.0
C173 C 0.68877 0.74504 1.02251 0.0
C174 C 0.69227 0.74759 0.07653 0.0
C175 C 0.68264 0.75812 0.11314 0.0
C176 C 0.66958 0.76665 0.09372 0.0
C177 C 0.66611 0.76412 0.0398 0.0
C178 C 0.68322 0.71272 0.7839 0.0
C179 C 0.71463 0.75233 0.86879 0.0
O180 O 0.71314 0.78001 0.70525 0.0
O181 O 0.7074 0.73988 0.69736 0.0
O182 O 0.69015 0.80112 0.75612 0.0
O183 O 0.69352 0.78351 0.82966 0.0
O184 O 0.67797 0.75968 0.7259 0.0
O185 O 0.66583 0.76683 0.80409 0.0
O186 O 0.67629 0.72894 0.92299 0.0
O187 O 0.67088 0.76948 0.91686 0.0
O188 O 0.67226 0.71797 0.81245 0.0
O189 O 0.69304 0.72765 0.79788 0.0
O190 O 0.70243 0.74548 0.88864 0.0
O191 O 0.71599 0.76077 0.81912 0.0
H192 H 0.69019 0.77796 0.62686 0.0
H193 H 0.68536 0.78027 0.53129 0.0
H194 H 0.72654 0.74923 0.49869 0.0
H195 H 0.73133 0.74758 0.59421 0.0
H196 H 0.69627 0.73637 0.99569 0.0
H197 H 0.70238 0.74061 0.08979 0.0
H198 H 0.66198 0.77532 0.12024 0.0
H199 H 0.6559 0.77054 0.02634 0.0
La200 La 0.04394 0.02096 0.76407 0.0
La201 La 0.06248 0.03398 0.85531 0.0
C202 C 0.03228 0.01971 0.67353 0.0
C203 C 0.03595 0.02212 0.61654 0.0
C204 C 0.02745 1.0099 0.57872 0.0
C205 C 0.03062 1.01142 0.52445 0.0
C206 C 0.04241 0.02524 0.5065 0.0
C207 C 0.0509 0.03765 0.54465 0.0
C208 C 0.04773 0.03605 0.59917 0.0
C209 C 0.04772 0.98174 0.83002 0.0
C210 C 0.07752 1.01753 0.75345 0.0
C211 C 0.07408 0.03925 0.94532 0.0
C212 C 0.07014 0.03793 1.00224 0.0
C213 C 0.07828 0.05119 0.03972 0.0
C214 C 0.07491 0.05031 0.09391 0.0
C215 C 0.06326 0.03613 0.11209 0.0
C216 C 0.05507 0.02287 0.07422 0.0
C217 C 0.05847 0.02377 1.01987 0.0
C218 C 0.05924 0.07137 0.7838 0.0
C219 C 0.02954 0.03102 0.87327 0.0
O220 O 0.0371 0.9994 0.69815 0.0
O221 O 0.03319 0.04042 0.703 0.0
O222 O 0.03643 0.9862 0.80288 0.0
O223 O 0.05689 0.99832 0.81702 0.0
O224 O 0.06526 0.02079 0.72938 0.0
O225 O 0.07872 1.01855 0.80558 0.0
O226 O 0.06873 0.05828 0.91798 0.0
O227 O 0.07391 1.01767 0.91844 0.0
O228 O 0.07072 0.06655 0.80944 0.0
O229 O 0.0498 0.05628 0.80073 0.0
O230 O 0.04226 0.03035 0.89326 0.0
O231 O 0.02726 0.03001 0.82129 0.0
H232 H 0.01829 0.99911 0.59121 0.0
H233 H 0.02369 1.00198 0.49646 0.0
H234 H 0.06014 0.04825 0.53248 0.0
H235 H 0.05448 0.04557 0.62768 0.0
H236 H 0.08734 0.06219 0.02705 0.0
H237 H 0.0816 0.06044 0.12169 0.0
H238 H 0.04593 1.01201 0.08647 0.0
H239 H 0.05199 1.01342 0.9917 0.0
La240 La 0.69686 0.02223 0.02556 0.0
La241 La 0.67804 0.03377 0.93488 0.0
C242 C 0.70839 0.02157 0.11632 0.0
C243 C 0.70444 0.02367 0.17323 0.0
C244 C 0.71056 1.0067 0.20992 0.0
C245 C 0.7073 1.00823 0.26413 0.0
C246 C 0.69783 0.02687 0.28321 0.0
C247 C 0.69167 0.0439 0.24624 0.0
C248 C 0.69491 0.04227 0.1918 0.0
C249 C 0.69394 0.98262 0.96019 0.0
C250 C 0.66332 1.01712 0.03696 0.0
C251 C 0.6665 0.03842 0.84469 0.0
C252 C 0.67066 0.03706 0.78794 0.0
C253 C 0.66428 0.05369 0.75126 0.0
C254 C 0.66779 0.05268 0.69719 0.0
C255 C 0.67777 0.0349 0.67836 0.0
C256 C 0.68426 1.01835 0.71541 0.0
C257 C 0.68078 0.01947 0.76965 0.0
C258 C 0.68087 0.07167 1.00555 0.0
C259 C 0.71093 0.03314 0.91621 0.0
O260 O 0.70409 1.00097 0.09137 0.0
O261 O 0.70728 0.04222 0.08669 0.0
O262 O 0.70521 0.98835 0.9864 0.0
O263 O 0.68434 0.9984 0.97318 0.0
O264 O 0.67558 0.02118 0.06059 0.0
O265 O 0.66205 1.01771 0.98485 0.0
O266 O 0.67153 0.05774 0.87197 0.0
O267 O 0.66675 1.01695 0.87202 0.0
O268 O 0.66937 0.06607 0.9807 0.0
O269 O 0.69046 0.05702 0.98847 0.0
O270 O 0.69823 0.03102 0.89649 0.0
O271 O 0.71327 0.03273 0.96821 0.0
H272 H 0.71797 0.99225 0.19663 0.0
H273 H 0.71242 0.99504 0.29124 0.0
H274 H 0.68423 0.05832 0.25928 0.0
H275 H 0.68996 0.05555 0.16435 0.0
H276 H 0.65646 0.06743 0.76442 0.0
H277 H 0.66245 0.06551 0.66996 0.0
H278 H 0.69213 1.00466 0.70257 0.0
H279 H 0.68597 1.00656 0.79719 0.0
La280 La 0.04283 0.76267 0.04177 0.0
La281 La 0.06231 0.75223 0.94298 0.0
C282 C 0.03049 0.75392 0.12881 0.0
C283 C 0.03376 0.75783 0.18572 0.0
C284 C 0.02289 0.76168 0.22252 0.0
C285 C 0.0258 0.76316 0.27712 0.0
C286 C 0.03964 0.76064 0.2959 0.0
C287 C 0.05053 0.75753 0.25866 0.0
C288 C 0.04762 0.75617 0.20423 0.0
C289 C 0.04991 0.80653 0.99346 0.0
C290 C 0.07621 0.77037 0.04817 0.0
C291 C 0.07387 0.7506 0.85282 0.0
C292 C 0.06992 0.75416 0.7966 0.0
C293 C 0.07942 0.74694 0.75685 0.0
C294 C 0.07572 0.74871 0.70317 0.0
C295 C 0.06234 0.75754 0.68796 0.0
C296 C 0.05291 0.76525 0.72811 0.0
C297 C 0.05669 0.76365 0.78192 0.0
C298 C 0.05934 0.71409 1.01266 0.0
C299 C 0.02902 0.7563 0.92824 0.0
O300 O 0.02819 0.77451 0.09996 0.0
O301 O 0.03842 0.73726 0.104 0.0
O302 O 0.04273 0.80526 0.0373 0.0
O303 O 0.05277 0.78365 0.98094 0.0
O304 O 0.06429 0.7654 0.07388 0.0
O305 O 0.07731 0.76971 0.99573 0.0
O306 O 0.0684 0.7305 0.87661 0.0
O307 O 0.07375 0.77116 0.88317 0.0
O308 O 0.0707 0.71894 0.98606 0.0
O309 O 0.0499 0.72972 0.9977 0.0
O310 O 0.04172 0.75474 0.9076 0.0
O311 O 0.0266 0.75796 0.98032 0.0
H312 H 0.01212 0.76292 0.20913 0.0
H313 H 0.01717 0.7654 0.30471 0.0
H314 H 0.06132 0.75593 0.27163 0.0
H315 H 0.0562 0.75322 0.1767 0.0
H316 H 0.08971 0.7397 0.76735 0.0
H317 H 0.08339 0.74316 0.67357 0.0
H318 H 0.04249 0.77196 0.71813 0.0
H319 H 0.04923 0.76953 0.81196 0.0
La320 La 0.31164 0.78499 0.68906 0.0
La321 La 0.29211 0.7753 0.78817 0.0
C322 C 0.32283 0.78531 0.59811 0.0
C323 C 0.31841 0.78147 0.54238 0.0
C324 C 0.3278 0.78737 0.50127 0.0
C325 C 0.32379 0.7846 0.44804 0.0
C326 C 0.31024 0.77599 0.43471 0.0
C327 C 0.30084 0.77006 0.47614 0.0
C328 C 0.30492 0.77262 0.52947 0.0
C329 C 0.30891 0.82346 0.75788 0.0
C330 C 0.27831 0.78332 0.67505 0.0
C331 C 0.28006 0.78433 0.87568 0.0
C332 C 0.28272 0.77863 0.93248 0.0
C333 C 0.27145 0.77524 0.96766 0.0
C334 C 0.27383 0.77202 1.02232 0.0
C335 C 0.28757 0.77222 0.043 0.0
C336 C 0.29884 0.77511 1.00725 0.0
C337 C 0.29644 0.77822 0.95273 0.0
C338 C 0.29892 0.73108 0.74056 0.0
C339 C 0.32553 0.76724 0.79451 0.0
O340 O 0.31791 0.80592 0.62171 0.0
O341 O 0.32251 0.76501 0.62921 0.0
O342 O 0.32021 0.81844 0.73098 0.0
O343 O 0.29937 0.80789 0.74355 0.0
O344 O 0.29099 0.78399 0.65421 0.0
O345 O 0.2759 0.78142 0.72708 0.0
O346 O 0.27668 0.76498 0.84472 0.0
O347 O 0.28905 0.79986 0.85292 0.0
O348 O 0.29172 0.73269 0.78431 0.0
O349 O 0.30195 0.75386 0.72775 0.0
O350 O 0.31357 0.77206 0.82006 0.0
O351 O 0.32669 0.7679 0.74209 0.0
H352 H 0.33824 0.79432 0.51036 0.0
H353 H 0.33125 0.78968 0.41726 0.0
H354 H 0.29038 0.76314 0.46735 0.0
H355 H 0.29752 0.76771 0.56047 0.0
H356 H 0.26077 0.77551 0.95297 0.0
H357 H 0.26489 0.76947 0.04835 0.0
H358 H 0.30955 0.77579 1.02147 0.0
H359 H 0.30533 0.78099 0.92659 0.0
La360 La 0.92957 0.50143 0.68904 0.0
La361 La 0.94887 0.51079 0.78001 0.0
C362 C 0.91775 0.49968 0.59885 0.0
C363 C 0.92184 0.50004 0.54197 0.0
C364 C 0.91278 0.48926 0.50412 0.0
C365 C 0.91621 0.48963 0.44993 0.0
C366 C 0.92883 0.50079 0.43209 0.0
C367 C 0.93799 0.51134 0.47037 0.0
C368 C 0.93452 0.51102 0.52469 0.0
C369 C 0.93159 0.46283 0.75825 0.0
C370 C 0.96255 0.49871 0.67038 0.0
C371 C 0.96069 0.5102 0.87031 0.0
C372 C 0.95692 0.50799 0.92727 0.0
C373 C 0.96621 0.5176 0.96565 0.0
C374 C 0.96296 0.51614 1.0199 0.0
C375 C 0.95029 0.505 0.03728 0.0
C376 C 0.94097 0.49536 0.99848 0.0
C377 C 0.94425 0.49683 0.94405 0.0
C378 C 0.9467 0.55054 0.71467 0.0
C379 C 0.91552 0.51858 0.79223 0.0
O380 O 0.92135 0.4793 0.62614 0.0
O381 O 0.91971 0.5209 0.62596 0.0
O382 O 0.92021 0.46935 0.73348 0.0
O383 O 0.94151 0.47692 0.74181 0.0
O384 O 0.94985 0.50118 0.6507 0.0
O385 O 0.96498 0.49944 0.72229 0.0
O386 O 0.95664 0.53117 0.84605 0.0
O387 O 0.95895 0.48977 0.84051 0.0
O388 O 0.95799 0.54381 0.73977 0.0
O389 O 0.93678 0.53577 0.72878 0.0
O390 O 0.92769 0.51333 0.81552 0.0
O391 O 0.91415 0.51845 0.74013 0.0
H392 H 0.90298 0.48057 0.51651 0.0
H393 H 0.90899 0.48089 0.42203 0.0
H394 H 0.94774 0.52031 0.45833 0.0
H395 H 0.94169 0.51952 0.55307 0.0
H396 H 0.97601 0.52642 0.95361 0.0
H397 H 0.97031 0.52419 0.04819 0.0
H398 H 0.93119 0.4864 1.01015 0.0
H399 H 0.93692 0.48924 0.91514 0.0
La400 La 0.31302 0.50273 0.60459 0.0
La401 La 0.2948 0.51599 0.51301 0.0
C402 C 0.32457 0.49722 0.69459 0.0
C403 C 0.32072 0.49889 0.75148 0.0
C404 C 0.32919 0.4866 0.7893 0.0
C405 C 0.32592 0.4879 0.84352 0.0
C406 C 0.31404 0.50152 0.86132 0.0
C407 C 0.30547 0.51367 0.82308 0.0
C408 C 0.3088 0.51241 0.76872 0.0
C409 C 0.31016 0.4655 0.53243 0.0
C410 C 0.2801 0.5059 0.62179 0.0
C411 C 0.28321 0.51748 0.4224 0.0
C412 C 0.28686 0.51442 0.3656 0.0
C413 C 0.27802 0.52526 0.3271 0.0
C414 C 0.28118 0.52308 0.27293 0.0
C415 C 0.29328 0.50996 0.25581 0.0
C416 C 0.30216 0.4991 0.29472 0.0
C417 C 0.29898 0.50131 0.3491 0.0
C418 C 0.29831 0.55505 0.57984 0.0
C419 C 0.3284 0.51962 0.50387 0.0
O420 O 0.31896 0.47835 0.66757 0.0
O421 O 0.32462 0.51875 0.66752 0.0
O422 O 0.32152 0.47044 0.55871 0.0
O423 O 0.30059 0.48042 0.54892 0.0
O424 O 0.29277 0.5063 0.64222 0.0
O425 O 0.27796 0.50711 0.56973 0.0
O426 O 0.28847 0.53758 0.44645 0.0
O427 O 0.28372 0.49688 0.45238 0.0
O428 O 0.28711 0.55058 0.5521 0.0
O429 O 0.30751 0.53858 0.56674 0.0
O430 O 0.31624 0.51621 0.47906 0.0
O431 O 0.32935 0.51858 0.55603 0.0
H432 H 0.3384 0.47595 0.77686 0.0
H433 H 0.33263 0.47792 0.87146 0.0
H434 H 0.29632 0.52453 0.83518 0.0
H435 H 0.30211 0.52212 0.74027 0.0
H436 H 0.26866 0.5356 0.33899 0.0
H437 H 0.27421 0.53211 0.24449 0.0
H438 H 0.3115 0.48864 0.28319 0.0
H439 H 0.30596 0.49279 0.37818 0.0
La440 La 0.92825 0.78386 0.61291 0.0
La441 La 0.94739 0.77451 0.52165 0.0
C442 C 0.91644 0.78566 0.70316 0.0
C443 C 0.92053 0.78524 0.75999 0.0
C444 C 0.91135 0.79547 0.79807 0.0
C445 C 0.91483 0.79515 0.85221 0.0
C446 C 0.92764 0.78462 0.8697 0.0
C447 C 0.93688 0.77447 0.83119 0.0
C448 C 0.93335 0.77475 0.77696 0.0
C449 C 0.93018 0.82252 0.54374 0.0
C450 C 0.96124 0.78645 0.63107 0.0
C451 C 0.9592 0.775 0.43132 0.0
C452 C 0.95547 0.77725 0.37438 0.0
C453 C 0.96492 0.76812 0.33605 0.0
C454 C 0.96168 0.76943 0.28181 0.0
C455 C 0.94885 0.7799 0.26443 0.0
C456 C 0.93941 0.78926 0.30312 0.0
C457 C 0.94268 0.78792 0.35757 0.0
C458 C 0.94534 0.73471 0.58694 0.0
C459 C 0.91401 0.7669 0.50998 0.0
O460 O 0.92012 0.80602 0.67593 0.0
O461 O 0.91835 0.76444 0.67602 0.0
O462 O 0.91885 0.81596 0.56875 0.0
O463 O 0.94013 0.80842 0.55993 0.0
O464 O 0.94857 0.78401 0.65101 0.0
O465 O 0.96359 0.78578 0.57909 0.0
O466 O 0.95505 0.75407 0.45552 0.0
O467 O 0.95752 0.79544 0.4611 0.0
O468 O 0.95658 0.74154 0.56166 0.0
O469 O 0.93538 0.74946 0.5731 0.0
O470 O 0.92616 0.77213 0.48648 0.0
O471 O 0.91273 0.76694 0.5621 0.0
H472 H 0.90138 0.80359 0.78594 0.0
H473 H 0.90733 0.80278 0.88045 0.0
H474 H 0.94691 0.7665 0.84285 0.0
H475 H 0.94063 0.76673 0.74838 0.0
H476 H 0.97486 0.75989 0.34811 0.0
H477 H 0.96933 0.76246 0.25344 0.0
H478 H 0.92938 0.79723 0.29144 0.0
H479 H 0.93521 0.79507 0.38647 0.0
La480 La 0.69712 0.26145 0.26753 0.0
La481 La 0.67837 0.24938 0.35918 0.0
C482 C 0.70884 0.26183 0.17704 0.0
C483 C 0.70513 0.25928 0.12016 0.0
C484 C 0.71435 0.26908 0.08175 0.0
C485 C 0.71112 0.26747 0.02755 0.0
C486 C 0.69853 0.25602 1.01032 0.0
C487 C 0.68932 0.24602 0.0491 0.0
C488 C 0.69257 0.24767 0.10351 0.0
C489 C 0.69389 0.30084 0.3335 0.0
C490 C 0.66364 0.26693 0.25735 0.0
C491 C 0.66667 0.2449 0.44918 0.0
C492 C 0.6706 0.24638 0.50604 0.0
C493 C 0.66179 0.23519 0.54423 0.0
C494 C 0.6652 0.23623 0.59838 0.0
C495 C 0.67757 0.24845 0.61575 0.0
C496 C 0.68641 0.25964 0.57715 0.0
C497 C 0.68296 0.25864 0.52289 0.0
C498 C 0.68091 0.21198 0.28743 0.0
C499 C 0.71136 0.25071 0.37673 0.0
O500 O 0.70423 0.28243 0.20122 0.0
O501 O 0.70765 0.24128 0.20688 0.0
O502 O 0.70509 0.29597 0.30607 0.0
O503 O 0.68454 0.28462 0.32063 0.0
O504 O 0.67581 0.26295 0.23305 0.0
O505 O 0.66246 0.26586 0.3095 0.0
O506 O 0.67183 0.22556 0.42225 0.0
O507 O 0.6671 0.26636 0.42191 0.0
O508 O 0.66955 0.21736 0.31338 0.0
O509 O 0.69062 0.2265 0.30425 0.0
O510 O 0.69866 0.25185 0.39684 0.0
O511 O 0.71366 0.25175 0.32476 0.0
H512 H 0.72412 0.27804 0.09371 0.0
H513 H 0.7186 0.27499 0.99908 0.0
H514 H 0.67947 0.23729 0.03749 0.0
H515 H 0.68527 0.24003 0.13251 0.0
H516 H 0.65219 0.2257 0.53216 0.0
H517 H 0.65799 0.22777 0.62669 0.0
H518 H 0.6961 0.26894 0.58874 0.0
H519 H 0.68994 0.26744 0.49418 0.0
La520 La 0.04306 0.52134 0.25661 0.0
La521 La 0.06273 0.53109 0.35486 0.0
C522 C 0.03073 0.53045 0.16966 0.0
C523 C 0.03406 0.52714 0.1126 0.0
C524 C 0.0233 0.52227 0.07591 0.0
C525 C 0.02622 0.521 1.02127 0.0
C526 C 0.03996 0.52474 1.00228 0.0
C527 C 0.05076 0.52899 0.03941 0.0
C528 C 0.04785 0.53016 0.09389 0.0
C529 C 0.04975 0.47706 0.30422 0.0
C530 C 0.07646 0.5138 0.24896 0.0
C531 C 0.07436 0.53243 0.44495 0.0
C532 C 0.07038 0.52909 0.50125 0.0
C533 C 0.07985 0.53651 0.54092 0.0
C534 C 0.07611 0.53503 0.59462 0.0
C535 C 0.06272 0.52629 0.60996 0.0
C536 C 0.05332 0.51838 0.5699 0.0
C537 C 0.05713 0.51971 0.51607 0.0
C538 C 0.05986 0.56954 0.28591 0.0
C539 C 0.02944 0.52786 0.37028 0.0
O540 O 0.02863 0.50955 0.19769 0.0
O541 O 0.03844 0.54717 0.19527 0.0
O542 O 0.0423 0.47884 0.26115 0.0
O543 O 0.05313 0.49974 0.3166 0.0
O544 O 0.06446 0.51885 0.22389 0.0
O545 O 0.07765 0.51388 0.30138 0.0
O546 O 0.06909 0.55267 0.42109 0.0
O547 O 0.07404 0.51186 0.41466 0.0
O548 O 0.07123 0.56436 0.31211 0.0
O549 O 0.05035 0.55403 0.30088 0.0
O550 O 0.04218 0.52893 0.39061 0.0
O551 O 0.02693 0.52642 0.31827 0.0
H552 H 0.01259 0.51997 0.08942 0.0
H553 H 0.01763 0.51788 0.99382 0.0
H554 H 0.06149 0.53154 0.02634 0.0
H555 H 0.05635 0.53393 0.1213 0.0
H556 H 0.09015 0.5437 0.53032 0.0
H557 H 0.08377 0.54074 0.62414 0.0
H558 H 0.04289 0.51174 0.57998 0.0
H559 H 0.04968 0.51371 0.48611 0.0
La560 La 0.69842 0.52144 0.53855 0.0
La561 La 0.67887 0.53089 0.44017 0.0
C562 C 0.71055 0.53069 0.62573 0.0
C563 C 0.70733 0.52676 0.68285 0.0
C564 C 0.71774 0.51765 0.71758 0.0
C565 C 0.71514 0.51588 0.77241 0.0
C566 C 0.70212 0.52347 0.79358 0.0
C567 C 0.6916 0.53192 0.75848 0.0
C568 C 0.69414 0.53346 0.7038 0.0
C569 C 0.69115 0.47691 0.49348 0.0
C570 C 0.6649 0.51474 0.54596 0.0
C571 C 0.66758 0.53483 0.34985 0.0
C572 C 0.67122 0.53064 0.29348 0.0
C573 C 0.66332 0.54316 0.2543 0.0
C574 C 0.66716 0.5415 0.20076 0.0
C575 C 0.67907 0.52739 0.18508 0.0
C576 C 0.68679 0.51427 0.2245 0.0
C577 C 0.68289 0.5159 0.27825 0.0
C578 C 0.68248 0.56993 0.50741 0.0
C579 C 0.71184 0.5233 0.42472 0.0
O580 O 0.71318 0.51022 0.59692 0.0
O581 O 0.70252 0.54709 0.60058 0.0
O582 O 0.69872 0.47885 0.53616 0.0
O583 O 0.68797 0.49953 0.48007 0.0
O584 O 0.67693 0.51982 0.57083 0.0
O585 O 0.66368 0.51445 0.49351 0.0
O586 O 0.67439 0.55354 0.37339 0.0
O587 O 0.6663 0.51442 0.38039 0.0
O588 O 0.67093 0.56474 0.48258 0.0
O589 O 0.69172 0.55391 0.49256 0.0
O590 O 0.69904 0.52238 0.40492 0.0
O591 O 0.71444 0.52636 0.47635 0.0
H592 H 0.72799 0.51243 0.70244 0.0
H593 H 0.72348 0.5094 0.7984 0.0
H594 H 0.68139 0.53752 0.77336 0.0
H595 H 0.68585 0.5404 0.6781 0.0
H596 H 0.65428 0.55464 0.26524 0.0
H597 H 0.66077 0.55141 0.1716 0.0
H598 H 0.69606 0.50334 0.21407 0.0
H599 H 0.6891 0.50607 0.30793 0.0
La600 La 0.04163 0.26159 0.53533 0.0
La601 La 0.06128 0.25209 0.43656 0.0
C602 C 0.02964 0.25232 0.62286 0.0
C603 C 0.03246 0.25747 0.6798 0.0
C604 C 0.02129 0.26196 0.7149 0.0
C605 C 0.02373 0.26484 0.7696 0.0
C606 C 0.03742 0.2632 0.79043 0.0
C607 C 0.04861 0.25919 0.75478 0.0
C608 C 0.04616 0.2564 0.7002 0.0
C609 C 0.0483 0.30593 0.48771 0.0
C610 C 0.07497 0.27011 0.54199 0.0
C611 C 0.07265 0.25095 0.34593 0.0
C612 C 0.06857 0.25522 0.28996 0.0
C613 C 0.07816 0.24939 0.24951 0.0
C614 C 0.07444 0.25232 0.19601 0.0
C615 C 0.06098 0.26103 0.18173 0.0
C616 C 0.05138 0.26696 0.22251 0.0
C617 C 0.05517 0.26423 0.27613 0.0
C618 C 0.05862 0.21365 0.50569 0.0
C619 C 0.02797 0.2546 0.42207 0.0
O620 O 0.02644 0.27204 0.59264 0.0
O621 O 0.03837 0.23659 0.59928 0.0
O622 O 0.04094 0.30416 0.53106 0.0
O623 O 0.05154 0.28322 0.4751 0.0
O624 O 0.06303 0.26503 0.56737 0.0
O625 O 0.07619 0.26957 0.48958 0.0
O626 O 0.06708 0.23079 0.36916 0.0
O627 O 0.07279 0.2712 0.37714 0.0
O628 O 0.06993 0.21889 0.47908 0.0
O629 O 0.04905 0.22904 0.49091 0.0
O630 O 0.04069 0.25431 0.40147 0.0
O631 O 0.02549 0.25567 0.47412 0.0
H632 H 0.01063 0.26284 0.70012 0.0
H633 H 0.01487 0.26829 0.79554 0.0
H634 H 0.05927 0.25741 0.76911 0.0
H635 H 0.05498 0.25278 0.67411 0.0
H636 H 0.08853 0.2423 0.25931 0.0
H637 H 0.08204 0.24724 0.16577 0.0
H638 H 0.04098 0.27396 0.21301 0.0
H639 H 0.04762 0.26908 0.30663 0.0
La640 La 0.81119 0.28588 0.69173 0.0
La641 La 0.79171 0.27481 0.78962 0.0
C642 C 0.82281 0.28844 0.60167 0.0
C643 C 0.81901 0.285 0.54523 0.0
C644 C 0.82868 0.29206 0.50594 0.0
C645 C 0.82514 0.2904 0.45207 0.0
C646 C 0.81177 0.28182 0.43617 0.0
C647 C 0.80217 0.27425 0.47586 0.0
C648 C 0.80577 0.27576 0.52988 0.0
C649 C 0.80832 0.32359 0.76246 0.0
C650 C 0.77795 0.282 0.67652 0.0
C651 C 0.77949 0.28314 0.87716 0.0
C652 C 0.78278 0.27921 0.93409 0.0
C653 C 0.77193 0.27495 0.97071 0.0
C654 C 0.77479 0.2734 0.02534 0.0
C655 C 0.78859 0.27624 0.04439 0.0
C656 C 0.79948 0.27981 1.00731 0.0
C657 C 0.79661 0.28125 0.95282 0.0
C658 C 0.79849 0.23102 0.74027 0.0
C659 C 0.82508 0.26706 0.79612 0.0
O660 O 0.81706 0.30816 0.62579 0.0
O661 O 0.8229 0.26773 0.6316 0.0
O662 O 0.81967 0.3187 0.73589 0.0
O663 O 0.79881 0.30819 0.74703 0.0
O664 O 0.79066 0.28338 0.65604 0.0
O665 O 0.7755 0.2802 0.72851 0.0
O666 O 0.77728 0.26257 0.84821 0.0
O667 O 0.78731 0.29998 0.85233 0.0
O668 O 0.79107 0.23237 0.78348 0.0
O669 O 0.80182 0.25386 0.72861 0.0
O670 O 0.81313 0.27174 0.82181 0.0
O671 O 0.82621 0.26806 0.74375 0.0
H672 H 0.83897 0.29911 0.51694 0.0
H673 H 0.83294 0.29584 0.42285 0.0
H674 H 0.79175 0.26773 0.46535 0.0
H675 H 0.79818 0.27002 0.55954 0.0
H676 H 0.76117 0.27342 0.95718 0.0
H677 H 0.76614 0.27083 0.05274 0.0
H678 H 0.81025 0.28166 1.02044 0.0
H679 H 0.80519 0.28453 0.92544 0.0
La680 La 0.42905 0.9978 0.68768 0.0
La681 La 0.44873 1.00779 0.7857 0.0
C682 C 0.41785 0.99545 0.59685 0.0
C683 C 0.42193 0.99927 0.54062 0.0
C684 C 0.41383 0.98781 0.50065 0.0
C685 C 0.41746 0.99063 0.44703 0.0
C686 C 0.42932 1.00508 0.4319 0.0
C687 C 0.43751 1.01643 0.4723 0.0
C688 C 0.43385 1.01356 0.52614 0.0
C689 C 0.43199 0.95953 0.75707 0.0
C690 C 0.46225 1.00092 0.672 0.0
C691 C 0.46076 0.99824 0.87316 0.0
C692 C 0.45886 1.0045 0.93005 0.0
C693 C 0.46789 0.99353 0.96774 0.0
C694 C 0.46536 0.9966 1.02228 0.0
C695 C 0.45369 1.01071 0.04046 0.0
C696 C 0.44487 0.02231 1.00228 0.0
C697 C 0.44742 0.01919 0.94767 0.0
C698 C 0.44219 0.05197 0.73758 0.0
C699 C 0.41537 1.01677 0.79251 0.0
O700 O 0.42354 0.97568 0.62098 0.0
O701 O 0.41742 1.01596 0.62736 0.0
O702 O 0.42059 0.96468 0.73105 0.0
O703 O 0.4415 0.97497 0.74186 0.0
O704 O 0.4495 1.00104 0.65174 0.0
O705 O 0.46478 1.00142 0.72408 0.0
O706 O 0.46461 1.01689 0.8411 0.0
O707 O 0.45087 0.984 0.85235 0.0
O708 O 0.44963 0.05029 0.78076 0.0
O709 O 0.4387 0.0293 0.72555 0.0
O710 O 0.42736 1.01198 0.81782 0.0
O711 O 0.41406 1.01553 0.74017 0.0
H712 H 0.40468 0.97648 0.51094 0.0
H713 H 0.41104 0.98113 0.41744 0.0
H714 H 0.44665 0.02783 0.46237 0.0
H715 H 0.4403 0.02253 0.55634 0.0
H716 H 0.4767 0.98187 0.95499 0.0
H717 H 0.47229 0.98706 0.05011 0.0
H718 H 0.4359 0.03364 1.01452 0.0
H719 H 0.44027 0.02774 0.91921 0.0
La720 La 0.81284 1.00617 0.60423 0.0
La721 La 0.79333 1.01602 0.50593 0.0
C722 C 0.82423 1.00446 0.69479 0.0
C723 C 0.82023 1.00877 0.75082 0.0
C724 C 0.82958 1.00163 0.79117 0.0
C725 C 0.82592 1.00463 0.84471 0.0
C726 C 0.81276 1.01471 0.85912 0.0
C727 C 0.80339 0.02192 0.81844 0.0
C728 C 0.80713 0.01913 0.76477 0.0
C729 C 0.81012 0.96777 0.53502 0.0
C730 C 0.77957 1.00887 0.61906 0.0
C731 C 0.78147 1.00697 0.41807 0.0
C732 C 0.78436 1.01219 0.36119 0.0
C733 C 0.77324 1.01717 0.32614 0.0
C734 C 0.77571 0.02 0.27145 0.0
C735 C 0.78938 1.01781 0.25055 0.0
C736 C 0.80052 1.01332 0.28614 0.0
C737 C 0.79805 1.01061 0.34073 0.0
C738 C 0.79972 0.06034 0.55403 0.0
C739 C 0.82671 0.02445 0.49933 0.0
O740 O 0.81843 0.98455 0.67149 0.0
O741 O 0.82456 0.02476 0.6637 0.0
O742 O 0.82145 0.973 0.56143 0.0
O743 O 0.80056 0.98318 0.54984 0.0
O744 O 0.79229 1.00889 0.63965 0.0
O745 O 0.77715 1.00967 0.56694 0.0
O746 O 0.77823 0.02662 0.44839 0.0
O747 O 0.79016 0.9912 0.44168 0.0
O748 O 0.7923 0.05849 0.51089 0.0
O749 O 0.80327 0.0377 0.56625 0.0
O750 O 0.81476 0.01957 0.47386 0.0
O751 O 0.82787 0.02369 0.55171 0.0
H752 H 0.83971 0.99349 0.78126 0.0
H753 H 0.83332 0.99856 0.87488 0.0
H754 H 0.79323 0.02998 0.82808 0.0
H755 H 0.79979 0.025 0.73431 0.0
H756 H 0.7626 1.01845 0.34097 0.0
H757 H 0.76689 0.02384 0.24557 0.0
H758 H 0.81115 1.01111 0.27177 0.0
H759 H 0.80682 1.00661 0.36675 0.0
La760 La 0.43014 0.27616 0.60316 0.0
La761 La 0.44937 0.26705 0.50434 0.0
C762 C 0.42005 0.27989 0.69538 0.0
C763 C 0.42427 0.27333 0.7504 0.0
C764 C 0.41406 0.26519 0.78678 0.0
C765 C 0.41748 0.26131 0.84033 0.0
C766 C 0.43122 0.26566 0.85891 0.0
C767 C 0.44157 0.2729 0.82179 0.0
C768 C 0.43814 0.27667 0.76814 0.0
C769 C 0.43335 0.31545 0.53604 0.0
C770 C 0.46288 0.2687 0.61737 0.0
C771 C 0.46142 0.27656 0.41706 0.0
C772 C 0.45956 0.26945 0.3607 0.0
C773 C 0.46964 0.27687 0.32312 0.0
C774 C 0.46719 0.2733 0.26866 0.0
C775 C 0.45452 0.26239 0.25073 0.0
C776 C 0.44467 0.2541 0.28883 0.0
C777 C 0.44717 0.25757 0.34325 0.0
C778 C 0.44254 0.22222 0.54958 0.0
C779 C 0.41581 0.25935 0.49903 0.0
O780 O 0.42731 0.29812 0.67199 0.0
O781 O 0.41719 0.26068 0.66317 0.0
O782 O 0.42195 0.31006 0.56174 0.0
O783 O 0.44275 0.29958 0.55018 0.0
O784 O 0.45016 0.26572 0.63662 0.0
O785 O 0.46531 0.27356 0.56626 0.0
O786 O 0.46556 0.25846 0.44991 0.0
O787 O 0.4513 0.29052 0.43722 0.0
O788 O 0.45005 0.22442 0.50674 0.0
O789 O 0.43918 0.24476 0.56293 0.0
O790 O 0.42775 0.26442 0.47342 0.0
O791 O 0.41474 0.25943 0.55149 0.0
H792 H 0.40332 0.26237 0.77399 0.0
H793 H 0.40929 0.25516 0.8673 0.0
H794 H 0.45223 0.27661 0.83441 0.0
H795 H 0.44626 0.28292 0.74093 0.0
H796 H 0.47923 0.28622 0.33578 0.0
H797 H 0.47496 0.2801 0.24057 0.0
H798 H 0.43491 0.24524 0.27657 0.0
H799 H 0.43926 0.25166 0.37164 0.0
La800 La 0.19982 0.76772 0.2546 0.0
La801 La 0.18035 0.75678 0.35316 0.0
C802 C 0.21241 0.75918 0.16779 0.0
C803 C 0.2094 0.76269 0.11067 0.0
C804 C 0.19559 0.76597 0.09278 0.0
C805 C 0.19262 0.7667 0.03833 0.0
C806 C 0.20342 0.76415 1.00048 0.0
C807 C 0.21732 0.76161 1.01866 0.0
C808 C 0.22027 0.76083 0.07327 0.0
C809 C 0.19335 0.81141 0.30515 0.0
C810 C 0.16644 0.77552 0.24847 0.0
C811 C 0.16883 0.7547 0.44347 0.0
C812 C 0.17293 0.75774 0.49977 0.0
C813 C 0.18702 0.75648 0.51557 0.0
C814 C 0.19066 0.75798 0.56943 0.0
C815 C 0.18025 0.76081 0.60873 0.0
C816 C 0.16615 0.76256 0.5925 0.0
C817 C 0.16254 0.76102 0.53859 0.0
C818 C 0.18297 0.71929 0.28183 0.0
C819 C 0.2137 0.75898 0.36721 0.0
O820 O 0.21433 0.77996 0.19635 0.0
O821 O 0.20441 0.7425 0.1922 0.0
O822 O 0.20061 0.81018 0.26149 0.0
O823 O 0.19003 0.78854 0.31645 0.0
O824 O 0.17836 0.77076 0.22263 0.0
O825 O 0.16538 0.77474 0.30092 0.0
O826 O 0.17406 0.73466 0.41869 0.0
O827 O 0.16908 0.77551 0.41388 0.0
O828 O 0.17167 0.72409 0.30883 0.0
O829 O 0.19251 0.73457 0.29735 0.0
O830 O 0.20104 0.75772 0.38819 0.0
O831 O 0.21605 0.76158 0.31532 0.0
H832 H 0.18706 0.76738 0.12095 0.0
H833 H 0.18183 0.76911 0.02591 0.0
H834 H 0.22588 0.75939 0.99075 0.0
H835 H 0.231 0.75812 0.08626 0.0
H836 H 0.1952 0.75392 0.48645 0.0
H837 H 0.20161 0.75627 0.58028 0.0
H838 H 0.15786 0.76519 0.62144 0.0
H839 H 0.1516 0.76212 0.52727 0.0
La840 La 0.54082 0.0272 0.25386 0.0
La841 La 0.56049 0.03801 0.35213 0.0
C842 C 0.52831 0.03561 0.16698 0.0
C843 C 0.53146 0.0317 0.10989 0.0
C844 C 0.52052 0.02744 0.0736 0.0
C845 C 0.52328 0.02591 1.01886 0.0
C846 C 0.53704 0.02878 0.99935 0.0
C847 C 0.548 0.03233 0.03611 0.0
C848 C 0.54524 0.03375 0.09069 0.0
C849 C 0.54815 0.98351 0.30245 0.0
C850 C 0.57427 0.02039 0.24629 0.0
C851 C 0.57206 0.03944 0.44232 0.0
C852 C 0.56806 0.03632 0.49869 0.0
C853 C 0.57764 0.04336 0.53828 0.0
C854 C 0.57394 0.04195 0.59204 0.0
C855 C 0.56048 0.03366 0.60756 0.0
C856 C 0.55095 0.02614 0.56759 0.0
C857 C 0.55473 0.0274 0.51369 0.0
C858 C 0.55723 0.07602 0.28237 0.0
C859 C 0.52721 0.0343 0.36765 0.0
O860 O 0.52616 1.01503 0.19603 0.0
O861 O 0.53621 0.05244 0.19149 0.0
O862 O 0.54088 0.9846 0.25881 0.0
O863 O 0.55096 1.00646 0.31458 0.0
O864 O 0.56222 0.02493 0.22114 0.0
O865 O 0.57553 0.02104 0.2987 0.0
O866 O 0.56692 0.05971 0.41813 0.0
O867 O 0.57164 1.01877 0.41231 0.0
O868 O 0.56865 0.07145 0.30886 0.0
O869 O 0.54789 0.06024 0.2976 0.0
O870 O 0.53993 0.03618 0.38787 0.0
O871 O 0.52469 0.03203 0.31573 0.0
H872 H 0.5098 0.02589 0.08749 0.0
H873 H 0.51457 0.02334 0.99174 0.0
H874 H 0.55874 0.03419 1.02266 0.0
H875 H 0.55388 0.03704 0.11778 0.0
H876 H 0.58801 0.05017 0.52758 0.0
H877 H 0.58169 0.04735 0.62147 0.0
H878 H 0.54047 0.01984 0.57779 0.0
H879 H 0.54719 0.02167 0.48382 0.0
La880 La 0.20008 0.02689 0.53811 0.0
La881 La 0.18032 0.03703 0.44022 0.0
C882 C 0.21238 0.03573 0.62529 0.0
C883 C 0.20923 0.03187 0.68238 0.0
C884 C 0.22018 0.028 0.7188 0.0
C885 C 0.2174 0.02646 0.77352 0.0
C886 C 0.20361 0.02892 0.79292 0.0
C887 C 0.19264 0.03212 0.75604 0.0
C888 C 0.19541 0.03356 0.70147 0.0
C889 C 0.19358 0.98283 0.48898 0.0
C890 C 0.16674 1.01865 0.5457 0.0
C891 C 0.16869 0.0386 0.35012 0.0
C892 C 0.17264 0.03544 0.29371 0.0
C893 C 0.16291 0.04193 0.25423 0.0
C894 C 0.16656 0.04057 0.20041 0.0
C895 C 0.18012 0.03288 0.18474 0.0
C896 C 0.18979 0.02588 0.22462 0.0
C897 C 0.18606 0.02708 0.27857 0.0
C898 C 0.18304 0.07506 0.51026 0.0
C899 C 0.21362 0.03485 0.42469 0.0
O900 O 0.21469 1.01515 0.59649 0.0
O901 O 0.20439 0.05231 0.60047 0.0
O902 O 0.20105 0.98438 0.53205 0.0
O903 O 0.19011 1.00559 0.47744 0.0
O904 O 0.17873 0.02362 0.57084 0.0
O905 O 0.16548 0.01928 0.49331 0.0
O906 O 0.17393 0.05879 0.37424 0.0
O907 O 0.16905 1.01794 0.38014 0.0
O908 O 0.17169 0.0699 0.48387 0.0
O909 O 0.19261 0.05979 0.49485 0.0
O910 O 0.20088 0.03572 0.4044 0.0
O911 O 0.21616 0.03294 0.47662 0.0
H912 H 0.23092 0.02675 0.70502 0.0
H913 H 0.22612 0.02419 0.80073 0.0
H914 H 0.18187 0.03366 0.76939 0.0
H915 H 0.18677 0.03657 0.67428 0.0
H916 H 0.15247 0.0483 0.26504 0.0
H917 H 0.15871 0.04556 0.17106 0.0
H918 H 0.20034 0.02005 0.21431 0.0
H919 H 0.19372 0.02179 0.30835 0.0
La920 La 0.54341 0.7686 0.53241 0.0
La921 La 0.56227 0.7568 0.44106 0.0
C922 C 0.53161 0.76919 0.62279 0.0
C923 C 0.53517 0.76623 0.67977 0.0
C924 C 0.52594 0.77608 0.71811 0.0
C925 C 0.52902 0.77406 0.7724 0.0
C926 C 0.54145 0.76212 0.78988 0.0
C927 C 0.55073 0.75225 0.75114 0.0
C928 C 0.54761 0.75425 0.69663 0.0
C929 C 0.54689 0.80826 0.46715 0.0
C930 C 0.57692 0.7725 0.54425 0.0
C931 C 0.5741 0.75291 0.3511 0.0
C932 C 0.57029 0.75409 0.29402 0.0
C933 C 0.57941 0.74333 0.25634 0.0
C934 C 0.57621 0.74421 0.202 0.0
C935 C 0.56377 0.75589 0.18382 0.0
C936 C 0.55456 0.76647 0.22192 0.0
C937 C 0.5578 0.76563 0.27643 0.0
C938 C 0.55942 0.71887 0.51156 0.0
C939 C 0.5293 0.75783 0.42292 0.0
O940 O 0.53656 0.78963 0.59903 0.0
O941 O 0.53251 0.74872 0.5926 0.0
O942 O 0.53561 0.80329 0.49399 0.0
O943 O 0.5562 0.79196 0.48017 0.0
O944 O 0.56462 0.76867 0.56771 0.0
O945 O 0.57824 0.77226 0.49209 0.0
O946 O 0.56921 0.73334 0.37804 0.0
O947 O 0.5733 0.77435 0.37827 0.0
O948 O 0.57083 0.7242 0.48582 0.0
O949 O 0.54981 0.73372 0.49508 0.0
O950 O 0.54202 0.75903 0.40304 0.0
O951 O 0.52691 0.75897 0.47483 0.0
H952 H 0.51633 0.78553 0.706 0.0
H953 H 0.52173 0.78231 0.80067 0.0
H954 H 0.56033 0.7427 0.76292 0.0
H955 H 0.55489 0.74646 0.66774 0.0
H956 H 0.58906 0.73418 0.26899 0.0
H957 H 0.58346 0.73543 0.17423 0.0
H958 H 0.54494 0.77582 0.20961 0.0
H959 H 0.5506 0.77413 0.3047 0.0
La960 La 0.81234 0.78619 0.18932 0.0
La961 La 0.79278 0.77534 0.2874 0.0
C962 C 0.82385 0.7877 0.09896 0.0
C963 C 0.81982 0.78425 0.04273 0.0
C964 C 0.82991 0.78796 1.00301 0.0
C965 C 0.82626 0.7861 0.94925 0.0
C966 C 0.81237 0.78066 0.93393 0.0
C967 C 0.80231 0.77647 0.97409 0.0
C968 C 0.80601 0.77818 0.02794 0.0
C969 C 0.80947 0.82404 0.2596 0.0
C970 C 0.77903 0.78361 0.1745 0.0
C971 C 0.78041 0.78371 0.37466 0.0
C972 C 0.78359 0.77967 0.43159 0.0
C973 C 0.77266 0.77745 0.46868 0.0
C974 C 0.77558 0.77602 0.52329 0.0
C975 C 0.78951 0.77692 0.5418 0.0
C976 C 0.80043 0.77835 0.50423 0.0
C977 C 0.7975 0.77972 0.44981 0.0
C978 C 0.79948 0.73154 0.23787 0.0
C979 C 0.8262 0.76783 0.29436 0.0
O980 O 0.81857 0.80788 0.123 0.0
O981 O 0.8236 0.76711 0.1292 0.0
O982 O 0.82081 0.81925 0.23282 0.0
O983 O 0.79997 0.80855 0.24444 0.0
O984 O 0.79172 0.78509 0.15394 0.0
O985 O 0.77658 0.78108 0.22634 0.0
O986 O 0.77819 0.7632 0.34553 0.0
O987 O 0.78839 0.80043 0.35023 0.0
O988 O 0.7921 0.73288 0.28119 0.0
O989 O 0.80281 0.75437 0.22633 0.0
O990 O 0.81419 0.77234 0.31981 0.0
O991 O 0.82739 0.7688 0.24198 0.0
H992 H 0.84065 0.79253 1.01357 0.0
H993 H 0.83438 0.78891 0.91969 0.0
H994 H 0.79149 0.77245 0.96401 0.0
H995 H 0.79805 0.77505 0.05782 0.0
H996 H 0.76185 0.77749 0.4555 0.0
H997 H 0.76691 0.77512 0.55105 0.0
H998 H 0.81128 0.77865 0.51691 0.0
H999 H 0.80611 0.78146 0.42204 0.0
La1000 La 0.43142 0.49803 0.19224 0.0
La1001 La 0.45088 0.50608 0.29037 0.0
C1002 C 0.42027 0.49696 0.10112 0.0
C1003 C 0.42459 0.50111 0.04535 0.0
C1004 C 0.41511 0.49548 1.00439 0.0
C1005 C 0.41906 0.49831 0.95109 0.0
C1006 C 0.43264 0.5067 0.93756 0.0
C1007 C 0.44212 0.51243 0.97884 0.0
C1008 C 0.4381 0.50982 0.03222 0.0
C1009 C 0.43387 0.4588 0.25974 0.0
C1010 C 0.46465 0.49902 0.17765 0.0
C1011 C 0.46232 0.49578 0.37852 0.0
C1012 C 0.45975 0.50187 0.43523 0.0
C1013 C 0.47109 0.50511 0.47014 0.0
C1014 C 0.4688 0.50869 0.52476 0.0
C1015 C 0.45508 0.50902 0.54568 0.0
C1016 C 0.44375 0.50629 0.51019 0.0
C1017 C 0.44606 0.50282 0.45572 0.0
C1018 C 0.44585 0.55134 0.24418 0.0
C1019 C 0.41758 0.51655 0.29651 0.0
O1020 O 0.42565 0.47676 0.12472 0.0
O1021 O 0.42016 0.51722 0.13225 0.0
O1022 O 0.42247 0.4649 0.23459 0.0
O1023 O 0.44352 0.474 0.24507 0.0
O1024 O 0.45198 0.50022 0.15698 0.0
O1025 O 0.46705 0.49898 0.22976 0.0
O1026 O 0.46646 0.51461 0.34756 0.0
O1027 O 0.45285 0.48136 0.35551 0.0
O1028 O 0.45345 0.54802 0.28643 0.0
O1029 O 0.4413 0.52936 0.23092 0.0
O1030 O 0.42944 0.51108 0.3221 0.0
O1031 O 0.41648 0.51593 0.24417 0.0
H1032 H 0.40466 0.48864 1.01363 0.0
H1033 H 0.41155 0.4934 0.92042 0.0
H1034 H 0.45261 0.51919 0.9699 0.0
H1035 H 0.44556 0.51454 0.06306 0.0
H1036 H 0.48175 0.50443 0.45529 0.0
H1037 H 0.47778 0.51111 0.55058 0.0
H1038 H 0.43305 0.50602 0.5246 0.0
H1039 H 0.43711 0.5002 0.42981 0.0
La1040 La 0.81198 0.50633 0.10552 0.0
La1041 La 0.79293 0.51605 1.00685 0.0
C1042 C 0.82191 0.50212 0.198 0.0
C1043 C 0.81743 0.50853 0.25279 0.0
C1044 C 0.82753 0.51455 0.29133 0.0
C1045 C 0.82361 0.51855 0.34443 0.0
C1046 C 0.80947 0.51658 0.36014 0.0
C1047 C 0.79933 0.51123 0.32099 0.0
C1048 C 0.80326 0.50719 0.26799 0.0
C1049 C 0.80825 0.46699 0.03885 0.0
C1050 C 0.77928 0.515 0.11972 0.0
C1051 C 0.78083 0.5067 0.91964 0.0
C1052 C 0.78255 0.51351 0.86297 0.0
C1053 C 0.77134 0.50997 0.82771 0.0
C1054 C 0.77326 0.51317 0.77286 0.0
C1055 C 0.7865 0.51982 0.75203 0.0
C1056 C 0.79759 0.52427 0.78791 0.0
C1057 C 0.79562 0.5212 0.84276 0.0
C1058 C 0.8001 0.5608 0.05156 0.0
C1059 C 0.82661 0.52233 1.00137 0.0
O1060 O 0.81468 0.48405 0.17404 0.0
O1061 O 0.82486 0.52144 0.16615 0.0
O1062 O 0.81973 0.47201 0.06423 0.0
O1063 O 0.79906 0.4833 0.05295 0.0
O1064 O 0.79204 0.51751 0.13889 0.0
O1065 O 0.77685 0.51021 0.0686 0.0
O1066 O 0.7768 0.52494 0.95232 0.0
O1067 O 0.79088 0.49259 0.93985 0.0
O1068 O 0.79256 0.55863 1.00879 0.0
O1069 O 0.80335 0.53821 0.06526 0.0
O1070 O 0.81458 0.51797 0.97588 0.0
O1071 O 0.82771 0.52207 0.05382 0.0
H1072 H 0.83852 0.51554 0.28061 0.0
H1073 H 0.83174 0.52234 0.37345 0.0
H1074 H 0.78832 0.50995 0.33134 0.0
H1075 H 0.79524 0.50246 0.23919 0.0
H1076 H 0.76116 0.50404 0.84247 0.0
H1077 H 0.7644 0.51008 0.74673 0.0
H1078 H 0.80796 0.52915 0.77359 0.0
H1079 H 0.80443 0.52399 0.86926 0.0
La1080 La 0.42917 0.7784 0.10439 0.0
La1081 La 0.44825 0.76802 1.01323 0.0
C1082 C 0.4173 0.77994 0.19448 0.0
C1083 C 0.42137 0.77907 0.25139 0.0
C1084 C 0.43341 0.79166 0.27036 0.0
C1085 C 0.43683 0.79101 0.32463 0.0
C1086 C 0.42823 0.77787 0.36128 0.0
C1087 C 0.41624 0.76511 0.34188 0.0
C1088 C 0.41288 0.7657 0.28764 0.0
C1089 C 0.43138 0.81676 0.03452 0.0
C1090 C 0.46222 0.78074 0.12205 0.0
C1091 C 0.45981 0.76798 0.92255 0.0
C1092 C 0.4557 0.77076 0.86597 0.0
C1093 C 0.44331 0.75975 0.84603 0.0
C1094 C 0.44003 0.76149 0.79175 0.0
C1095 C 0.44908 0.77423 0.75605 0.0
C1096 C 0.46137 0.78557 0.77651 0.0
C1097 C 0.46462 0.78384 0.83076 0.0
C1098 C 0.44579 0.72877 0.07967 0.0
C1099 C 0.4148 0.76188 1.00141 0.0
O1100 O 0.42097 0.80037 0.16733 0.0
O1101 O 0.41913 0.75877 0.16713 0.0
O1102 O 0.42004 0.81073 0.06011 0.0
O1103 O 0.44122 0.80238 0.05073 0.0
O1104 O 0.44955 0.77889 0.14243 0.0
O1105 O 0.46454 0.77925 0.07016 0.0
O1106 O 0.45553 0.74723 0.94722 0.0
O1107 O 0.45875 0.78847 0.95259 0.0
O1108 O 0.45714 0.73491 0.05429 0.0
O1109 O 0.436 0.74371 0.06515 0.0
O1110 O 0.42701 0.76655 0.97796 0.0
O1111 O 0.4135 0.762 0.0535 0.0
H1112 H 0.44008 0.80227 0.24334 0.0
H1113 H 0.44607 0.80128 0.33797 0.0
H1114 H 0.40948 0.75445 0.36858 0.0
H1115 H 0.40355 0.75578 0.27399 0.0
H1116 H 0.43626 0.74941 0.87221 0.0
H1117 H 0.43056 0.75227 0.77761 0.0
H1118 H 0.46849 0.7959 0.75061 0.0
H1119 H 0.47422 0.79253 0.84518 0.0
La1120 La 0.19755 0.27027 0.76087 0.0
La1121 La 0.17902 0.25822 0.85238 0.0
C1122 C 0.2093 0.2704 0.67036 0.0
C1123 C 0.20546 0.26824 0.61349 0.0
C1124 C 0.21398 0.28023 0.57536 0.0
C1125 C 0.21064 0.27889 0.5212 0.0
C1126 C 0.19867 0.26549 0.50373 0.0
C1127 C 0.19014 0.25337 0.54219 0.0
C1128 C 0.19348 0.25479 0.59655 0.0
C1129 C 0.19339 0.31054 0.82366 0.0
C1130 C 0.16396 0.27338 0.74993 0.0
C1131 C 0.16742 0.25215 0.94224 0.0
C1132 C 0.17089 0.25498 0.99933 0.0
C1133 C 0.1631 0.24116 0.03702 0.0
C1134 C 0.16632 0.24279 0.09126 0.0
C1135 C 0.1775 0.25823 0.10926 0.0
C1136 C 0.18527 0.27223 0.07118 0.0
C1137 C 0.18198 0.27063 1.0168 0.0
C1138 C 0.18259 0.21989 0.78299 0.0
C1139 C 0.21164 0.26409 0.87112 0.0
O1140 O 0.20504 0.29112 0.69492 0.0
O1141 O 0.20785 0.24985 0.7 0.0
O1142 O 0.20474 0.30597 0.79688 0.0
O1143 O 0.18436 0.2935 0.81197 0.0
O1144 O 0.17625 0.26994 0.72608 0.0
O1145 O 0.16274 0.27296 0.8021 0.0
O1146 O 0.17409 0.23397 0.91671 0.0
O1147 O 0.16644 0.27322 0.91386 0.0
O1148 O 0.17103 0.22509 0.80766 0.0
O1149 O 0.19193 0.2353 0.79946 0.0
O1150 O 0.19887 0.26608 0.89021 0.0
O1151 O 0.21401 0.26157 0.81941 0.0
H1152 H 0.22328 0.29066 0.5875 0.0
H1153 H 0.21759 0.28811 0.49293 0.0
H1154 H 0.18077 0.2431 0.53038 0.0
H1155 H 0.1867 0.24548 0.62529 0.0
H1156 H 0.15448 0.229 0.02446 0.0
H1157 H 0.15992 0.23209 0.11914 0.0
H1158 H 0.19403 0.28411 0.08321 0.0
H1159 H 0.18812 0.2815 0.98843 0.0
La1160 La 0.54213 0.52707 0.75949 0.0
La1161 La 0.56181 0.53764 0.85755 0.0
C1162 C 0.52979 0.53574 0.67234 0.0
C1163 C 0.53289 0.5316 0.61531 0.0
C1164 C 0.52189 0.52838 0.57884 0.0
C1165 C 0.52466 0.52674 0.52413 0.0
C1166 C 0.5385 0.52844 0.50484 0.0
C1167 C 0.54951 0.53091 0.54179 0.0
C1168 C 0.54673 0.53246 0.59634 0.0
C1169 C 0.5489 0.48323 0.80856 0.0
C1170 C 0.57552 0.51917 0.75228 0.0
C1171 C 0.57337 0.53936 0.94776 0.0
C1172 C 0.56942 0.53609 1.00413 0.0
C1173 C 0.57932 0.54159 0.04364 0.0
C1174 C 0.5757 0.54007 0.09747 0.0
C1175 C 0.56201 0.5332 0.11312 0.0
C1176 C 0.55216 0.52719 0.07321 0.0
C1177 C 0.55585 0.52855 1.01925 0.0
C1178 C 0.55879 0.5756 0.78755 0.0
C1179 C 0.52853 0.53447 0.87293 0.0
O1180 O 0.52741 0.51531 0.70155 0.0
O1181 O 0.53789 0.55229 0.6967 0.0
O1182 O 0.5415 0.48459 0.76529 0.0
O1183 O 0.55219 0.50604 0.82025 0.0
O1184 O 0.56352 0.52389 0.72693 0.0
O1185 O 0.57675 0.52009 0.80466 0.0
O1186 O 0.56805 0.55948 0.9236 0.0
O1187 O 0.57312 0.5187 0.91773 0.0
O1188 O 0.5702 0.57075 0.81387 0.0
O1189 O 0.54935 0.56007 0.80297 0.0
O1190 O 0.54126 0.53589 0.89323 0.0
O1191 O 0.526 0.53243 0.82103 0.0
H1192 H 0.51113 0.52776 0.59255 0.0
H1193 H 0.51592 0.52501 0.49686 0.0
H1194 H 0.5603 0.53185 0.52852 0.0
H1195 H 0.55541 0.53495 0.62359 0.0
H1196 H 0.58987 0.54731 0.03284 0.0
H1197 H 0.58367 0.54428 0.12684 0.0
H1198 H 0.5415 0.52201 0.08352 0.0
H1199 H 0.54805 0.52403 0.98949 0.0
La1200 La 0.19804 0.53078 0.03083 0.0
La1201 La 0.17861 0.54003 0.93145 0.0
C1202 C 0.21038 0.54103 0.11708 0.0
C1203 C 0.20855 0.53543 0.1741 0.0
C1204 C 0.19704 0.52113 0.19258 0.0
C1205 C 0.19449 0.51886 0.24732 0.0
C1206 C 0.20335 0.531 0.28448 0.0
C1207 C 0.21511 0.5446 0.26554 0.0
C1208 C 0.21766 0.5468 0.21093 0.0
C1209 C 0.19118 0.48635 0.9845 0.0
C1210 C 0.16473 0.52216 0.03712 0.0
C1211 C 0.1674 0.54023 0.84067 0.0
C1212 C 0.1721 0.53769 0.78474 0.0
C1213 C 0.18368 0.55156 0.76543 0.0
C1214 C 0.18761 0.54983 0.71192 0.0
C1215 C 0.17999 0.53432 0.67622 0.0
C1216 C 0.16853 0.52011 0.69593 0.0
C1217 C 0.16464 0.5218 0.7496 0.0
C1218 C 0.18144 0.57878 0.99976 0.0
C1219 C 0.21192 0.53772 0.91719 0.0
O1220 O 0.21402 0.52193 0.08586 0.0
O1221 O 0.20051 0.55525 0.09606 0.0
O1222 O 0.19828 0.48814 0.02849 0.0
O1223 O 0.18826 0.50908 0.9709 0.0
O1224 O 0.17662 0.52734 0.06279 0.0
O1225 O 0.16362 0.52272 0.98465 0.0
O1226 O 0.17134 0.56109 0.86602 0.0
O1227 O 0.1683 0.51957 0.87055 0.0
O1228 O 0.17008 0.57356 0.97341 0.0
O1229 O 0.19092 0.56313 0.98533 0.0
O1230 O 0.19927 0.53882 0.89602 0.0
O1231 O 0.21421 0.53615 0.96934 0.0
H1232 H 0.18981 0.51242 0.16467 0.0
H1233 H 0.18528 0.50844 0.26042 0.0
H1234 H 0.22228 0.55384 0.29295 0.0
H1235 H 0.22654 0.55804 0.19741 0.0
H1236 H 0.1896 0.56405 0.79152 0.0
H1237 H 0.19663 0.56071 0.69854 0.0
H1238 H 0.16231 0.50819 0.66964 0.0
H1239 H 0.15564 0.51099 0.76349 0.0
La1240 La 0.54189 0.2678 0.03973 0.0
La1241 La 0.56091 0.25903 0.94012 0.0
C1242 C 0.52981 0.25809 0.12678 0.0
C1243 C 0.53137 0.26514 0.18337 0.0
C1244 C 0.52002 0.26201 0.2182 0.0
C1245 C 0.52176 0.26564 0.27302 0.0
C1246 C 0.53495 0.27231 0.29422 0.0
C1247 C 0.54618 0.27633 0.25874 0.0
C1248 C 0.54439 0.27285 0.20392 0.0
C1249 C 0.54889 0.31282 0.99561 0.0
C1250 C 0.57555 0.27448 0.0445 0.0
C1251 C 0.57062 0.25543 0.84723 0.0
C1252 C 0.56601 0.2622 0.7928 0.0
C1253 C 0.57605 0.26786 0.75377 0.0
C1254 C 0.572 0.27203 0.70089 0.0
C1255 C 0.55779 0.2706 0.6859 0.0
C1256 C 0.54771 0.26566 0.72556 0.0
C1257 C 0.55178 0.26146 0.77836 0.0
C1258 C 0.5575 0.21933 1.00618 0.0
C1259 C 0.5282 0.26713 0.92717 0.0
O1260 O 0.52558 0.27608 0.09386 0.0
O1261 O 0.54005 0.24432 0.10684 0.0
O1262 O 0.54141 0.31045 0.0385 0.0
O1263 O 0.55213 0.29031 0.9816 0.0
O1264 O 0.56358 0.26966 0.07013 0.0
O1265 O 0.57658 0.27478 0.99201 0.0
O1266 O 0.56342 0.23722 0.87092 0.0
O1267 O 0.57367 0.27453 0.8795 0.0
O1268 O 0.5689 0.22463 0.98043 0.0
O1269 O 0.54822 0.23553 0.99258 0.0
O1270 O 0.5409 0.27048 0.90796 0.0
O1271 O 0.52587 0.26161 0.97802 0.0
H1272 H 0.50987 0.25611 0.20315 0.0
H1273 H 0.5128 0.26287 0.29883 0.0
H1274 H 0.55652 0.28121 0.27337 0.0
H1275 H 0.55331 0.27535 0.17776 0.0
H1276 H 0.58709 0.26839 0.76391 0.0
H1277 H 0.58007 0.2755 0.67145 0.0
H1278 H 0.53667 0.2648 0.71574 0.0
H1279 H 0.5438 0.25702 0.80754 0.0
H1280 H 0.23765 0.24023 0.8762 0.0
H1281 H 0.25359 0.29724 0.16851 0.0
H1282 H 0.21125 0.2952 0.95683 0.0
H1283 H 0.2811 0.24504 0.0852 0.0
H1284 H 0.23728 0.29526 0.09267 0.0
H1285 H 0.25398 0.24186 0.95212 0.0
C1286 C 0.23541 0.25286 0.90941 0.0
C1287 C 0.22303 0.26732 0.91057 0.0
C1288 C 0.24688 0.28413 0.09125 0.0
C1289 C 0.24134 0.26894 0.99773 0.0
C1290 C 0.25607 0.28507 0.13482 0.0
C1291 C 0.26873 0.27146 0.13306 0.0
C1292 C 0.25041 0.26944 0.04592 0.0
C1293 C 0.27151 0.25612 0.08805 0.0
C1294 C 0.24461 0.25361 0.953 0.0
C1295 C 0.22055 0.28329 0.9548 0.0
N1296 N 0.26251 0.25565 0.04633 0.0
N1297 N 0.22953 0.28354 0.99659 0.0
H1298 H 0.00348 1.00794 0.86575 0.0
H1299 H 0.98798 0.02547 0.17873 0.0
H1300 H 0.02993 0.05107 0.97262 0.0
H1301 H 0.96172 0.98128 0.07297 0.0
H1302 H 0.0038 0.03441 0.10382 0.0
H1303 H 0.98742 0.99933 0.94031 0.0
C1304 C 0.00572 1.01611 0.90446 0.0
C1305 C 0.01804 0.03022 0.91293 0.0
C1306 C 0.99462 0.02257 0.09715 0.0
C1307 C 4e-05 0.01986 0.99865 0.0
C1308 C 0.98572 1.01717 0.14016 0.0
C1309 C 0.97352 1.00263 0.13221 0.0
C1310 C 0.99127 1.01339 0.04591 0.0
C1311 C 0.97097 0.99274 0.08095 0.0
C1312 C -0.00332 1.01089 0.94723 0.0
C1313 C 0.02057 0.03997 0.96428 0.0
N1314 N 0.97968 0.99843 0.03984 0.0
N1315 N 0.01175 0.03447 1.00509 0.0
H1316 H 0.23889 1.00893 0.42862 0.0
H1317 H 0.25422 0.03235 0.11713 0.0
H1318 H 0.21379 0.05797 0.32807 0.0
H1319 H 0.27941 0.98357 0.21788 0.0
H1320 H 0.23873 0.04096 0.19334 0.0
H1321 H 0.25444 1.00047 0.35252 0.0
C1322 C 0.23686 1.0184 0.39101 0.0
C1323 C 0.22503 0.03411 0.3847 0.0
C1324 C 0.24758 0.02817 0.19856 0.0
C1325 C 0.2424 0.02392 0.29709 0.0
C1326 C 0.25627 0.02296 0.15479 0.0
C1327 C 0.2681 1.00724 0.16111 0.0
C1328 C 0.25079 1.0176 0.24882 0.0
C1329 C 0.27043 0.99593 0.21124 0.0
C1330 C 0.24558 1.01327 0.3473 0.0
C1331 C 0.22275 0.04556 0.33467 0.0
N1332 N 0.26196 1.00147 0.25309 0.0
N1333 N 0.23125 0.04008 0.29285 0.0
H1334 H 0.02751 0.23076 0.32655 0.0
H1335 H 0.96088 0.30795 0.2188 0.0
H1336 H 0.00312 0.28192 0.42501 0.0
H1337 H 0.98729 0.26095 0.1191 0.0
H1338 H 0.97629 0.29939 0.29411 0.0
H1339 H 0.01231 0.24047 0.25145 0.0
C1340 C 0.01872 0.24365 0.33267 0.0
C1341 C 0.01656 0.25552 0.38227 0.0
C1342 C 0.97889 0.29126 0.25569 0.0
C1343 C -0.0008 0.26718 0.29559 0.0
C1344 C 0.97018 0.29636 0.21244 0.0
C1345 C 0.97287 0.28527 0.16244 0.0
C1346 C 0.99039 0.27476 0.24923 0.0
C1347 C 0.98495 0.2702 0.15666 0.0
C1348 C 0.01013 0.24939 0.28949 0.0
C1349 C 0.00506 0.2721 0.38774 0.0
N1350 N 0.99319 0.26515 0.19974 0.0
N1351 N -0.00314 0.27761 0.34472 0.0
H1352 H 0.71888 0.72147 0.95439 0.0
H1353 H 0.77714 0.81224 0.08491 0.0
H1354 H 0.73604 0.78787 0.87459 0.0
H1355 H 0.75579 0.75215 0.17113 0.0
H1356 H 0.76244 0.80358 1.00756 0.0
H1357 H 0.73341 0.73089 0.0318 0.0
C1358 C 0.72596 0.73777 0.95273 0.0
C1359 C 0.72622 0.75394 0.90788 0.0
C1360 C 0.76077 0.79253 0.04355 0.0
C1361 C 0.74278 0.76513 0.99715 0.0
C1362 C 0.76905 0.79765 0.088 0.0
C1363 C 0.7676 0.78303 0.13474 0.0
C1364 C 0.75098 0.77242 0.04538 0.0
C1365 C 0.75711 0.76414 0.13625 0.0
C1366 C 0.73415 0.74328 0.99725 0.0
C1367 C 0.73561 0.77472 0.90798 0.0
N1368 N 0.74929 0.75918 0.09196 0.0
N1369 N 0.74344 0.77984 0.95214 0.0
H1370 H 0.75343 0.03169 0.61153 0.0
H1371 H 0.7378 1.01349 0.92439 0.0
H1372 H 0.77994 0.98864 0.71841 0.0
H1373 H 0.70972 0.05204 0.81596 0.0
H1374 H 0.75417 1.00644 0.85015 0.0
H1375 H 0.73716 0.03955 0.68578 0.0
C1376 C 0.75567 0.02345 0.65018 0.0
C1377 C 0.76807 1.00957 0.65874 0.0
C1378 C 0.74446 1.01665 0.84279 0.0
C1379 C 0.74981 0.01907 0.74413 0.0
C1380 C 0.73524 0.02098 0.88537 0.0
C1381 C 0.7224 0.03334 0.8764 0.0
C1382 C 0.74079 0.02477 0.79106 0.0
C1383 C 0.71949 0.04229 0.82469 0.0
C1384 C 0.7465 0.02821 0.69278 0.0
C1385 C 0.77056 0.99966 0.71002 0.0
N1386 N 0.72853 0.0377 0.78407 0.0
N1387 N 0.76161 1.00475 0.75067 0.0
H1388 H 0.98771 0.76547 0.62286 0.0
H1389 H 0.00372 0.78214 0.93561 0.0
H1390 H 0.96048 0.80627 0.7308 0.0
H1391 H 0.02863 0.73581 0.82902 0.0
H1392 H 0.98779 0.79191 0.86131 0.0
H1393 H 0.00386 0.75724 0.69711 0.0
C1394 C 0.98533 0.77329 0.66176 0.0
C1395 C 0.97276 0.78659 0.6706 0.0
C1396 C -0.0033 0.77944 0.85439 0.0
C1397 C 0.99088 0.7766 0.75609 0.0
C1398 C 0.00566 0.77358 0.89702 0.0
C1399 C 0.01753 0.75819 0.88858 0.0
C1400 C -0.00031 0.76989 0.80309 0.0
C1401 C 0.01967 0.74795 0.83736 0.0
C1402 C 0.99441 0.76825 0.70439 0.0
C1403 C 0.97005 0.79584 0.72222 0.0
N1404 N 0.01094 0.75413 0.79667 0.0
N1405 N 0.97895 0.79053 0.76296 0.0
H1406 H 0.23718 0.78977 0.36897 0.0
H1407 H 0.25387 0.75484 0.67466 0.0
H1408 H 0.21591 0.73005 0.45648 0.0
H1409 H 0.27738 0.81018 0.583 0.0
H1410 H 0.23878 0.74734 0.59677 0.0
H1411 H 0.25227 0.79739 0.44668 0.0
C1412 C 0.23595 0.77782 0.40397 0.0
C1413 C 0.22528 0.75932 0.4064 0.0
C1414 C 0.24716 0.76135 0.59397 0.0
C1415 C 0.24203 0.76853 0.49608 0.0
C1416 C 0.25559 0.76593 0.63875 0.0
C1417 C 0.26684 0.78321 0.63537 0.0
C1418 C 0.25004 0.77415 0.54567 0.0
C1419 C 0.26881 0.79667 0.58734 0.0
C1420 C 0.24438 0.78244 0.44869 0.0
C1421 C 0.22394 0.74469 0.4532 0.0
N1422 N 0.2606 0.79173 0.54443 0.0
N1423 N 0.23208 0.74976 0.49627 0.0
H1424 H 0.98898 0.51994 0.67724 0.0
H1425 H 0.00404 0.50234 0.36404 0.0
H1426 H 0.96159 0.47834 0.57124 0.0
H1427 H 0.02933 0.54881 0.469 0.0
H1428 H 0.9883 0.49287 0.43913 0.0
H1429 H 0.00488 0.52807 0.60214 0.0
C1430 C 0.98652 0.51192 0.63859 0.0
C1431 C 0.97398 0.49842 0.63053 0.0
C1432 C -0.00275 0.50531 0.44552 0.0
C1433 C 0.99179 0.50832 0.54408 0.0
C1434 C 0.0061 0.51101 0.40244 0.0
C1435 C 0.01802 0.52632 0.41022 0.0
C1436 C 0.00042 0.51495 0.49658 0.0
C1437 C 0.02032 0.53671 0.4612 0.0
C1438 C 0.99545 0.5169 0.59547 0.0
C1439 C 0.97115 0.48891 0.57921 0.0
N1440 N 0.01171 0.53068 0.50234 0.0
N1441 N 0.9799 0.49419 0.53798 0.0
H1442 H 0.25442 0.53021 0.61361 0.0
H1443 H 0.23677 0.51073 0.92448 0.0
H1444 H 0.27992 0.48538 0.72084 0.0
H1445 H 0.21322 0.56026 0.81991 0.0
H1446 H 0.25286 0.50119 0.8506 0.0
H1447 H 0.2383 0.53939 0.68764 0.0
C1448 C 0.25643 0.52178 0.65228 0.0
C1449 C 0.2685 0.50699 0.661 0.0
C1450 C 0.24421 0.5143 0.84396 0.0
C1451 C 0.25042 0.51798 0.74619 0.0
C1452 C 0.23516 0.52002 0.8864 0.0
C1453 C 0.22359 0.53618 0.87827 0.0
C1454 C 0.2416 0.52477 0.79312 0.0
C1455 C 0.22188 0.54738 0.82773 0.0
C1456 C 0.24736 0.52733 0.69477 0.0
C1457 C 0.27074 0.49695 0.71232 0.0
N1458 N 0.23067 0.54133 0.78711 0.0
N1459 N 0.26188 0.50274 0.75288 0.0
H1460 H 0.75294 0.25533 0.68231 0.0
H1461 H 0.73716 0.27454 0.37004 0.0
H1462 H 0.77746 0.30386 0.57863 0.0
H1463 H 0.71114 0.22944 0.47501 0.0
H1464 H 0.75296 0.28341 0.44514 0.0
H1465 H 0.73731 0.24561 0.60712 0.0
C1466 C 0.75483 0.26441 0.64419 0.0
C1467 C 0.76651 0.28038 0.63677 0.0
C1468 C 0.74386 0.27133 0.45155 0.0
C1469 C 0.74905 0.26875 0.55024 0.0
C1470 C 0.73499 0.26595 0.40844 0.0
C1471 C 0.72286 0.25122 0.41626 0.0
C1472 C 0.74052 0.26191 0.50266 0.0
C1473 C 0.72038 0.24097 0.46724 0.0
C1474 C 0.74606 0.25857 0.60102 0.0
C1475 C 0.76862 0.29128 0.58612 0.0
N1476 N 0.72904 0.24665 0.50844 0.0
N1477 N 0.76008 0.28512 0.54485 0.0
H1478 H 0.73752 0.54797 0.41797 0.0
H1479 H 0.7535 0.4905 0.12609 0.0
H1480 H 0.71166 0.49126 0.34021 0.0
H1481 H 0.7796 0.54648 0.20516 0.0
H1482 H 0.7375 0.49141 0.20302 0.0
H1483 H 0.75353 0.54692 0.34111 0.0
C1484 C 0.73536 0.53501 0.38523 0.0
C1485 C 0.7232 0.5199 0.38516 0.0
C1486 C 0.7467 0.50362 0.20326 0.0
C1487 C 0.74114 0.51899 0.29674 0.0
C1488 C 0.7557 0.50331 0.15903 0.0
C1489 C 0.7679 0.51832 0.15931 0.0
C1490 C 0.74996 0.51906 0.24779 0.0
C1491 C 0.77036 0.53439 0.20344 0.0
C1492 C 0.74437 0.53461 0.34105 0.0
C1493 C 0.7208 0.5036 0.3414 0.0
N1494 N 0.76157 0.5342 0.24586 0.0
N1495 N 0.72959 0.50371 0.29894 0.0
H1496 H 0.48746 0.02705 0.67647 0.0
H1497 H 0.50251 1.00656 0.36386 0.0
H1498 H 0.46227 0.97892 0.57446 0.0
H1499 H 0.52662 0.05712 0.4646 0.0
H1500 H 0.48729 0.99665 0.44017 0.0
H1501 H 0.50274 0.0367 0.60012 0.0
C1502 C 0.48538 1.01798 0.63849 0.0
C1503 C 0.47362 1.00214 0.63188 0.0
C1504 C 0.49585 1.0101 0.44538 0.0
C1505 C 0.49067 1.0137 0.54404 0.0
C1506 C 0.50438 1.01605 0.40155 0.0
C1507 C 0.51585 0.03265 0.40781 0.0
C1508 C 0.49887 0.02078 0.4957 0.0
C1509 C 0.51794 0.04407 0.45798 0.0
C1510 C 0.49394 0.0238 0.59466 0.0
C1511 C 0.47123 0.99131 0.58135 0.0
N1512 N 0.50965 0.03777 0.49993 0.0
N1513 N 0.47958 0.99742 0.53946 0.0
H1514 H 0.46382 0.23377 0.69642 0.0
H1515 H 0.52701 0.3025 0.84891 0.0
H1516 H 0.48699 0.29763 0.63091 0.0
H1517 H 0.50423 0.23793 0.91336 0.0
H1518 H 0.51205 0.30181 0.77046 0.0
H1519 H 0.47877 0.23449 0.77489 0.0
C1520 C 0.47231 0.24764 0.69811 0.0
C1521 C 0.47421 0.26565 0.65696 0.0
C1522 C 0.51015 0.28797 0.80188 0.0
C1523 C 0.49123 0.26694 0.74773 0.0
C1524 C 0.5186 0.28849 0.84702 0.0
C1525 C 0.51682 0.27026 0.88783 0.0
C1526 C 0.49978 0.26902 0.79711 0.0
C1527 C 0.50584 0.2525 0.88317 0.0
C1528 C 0.48075 0.24817 0.74325 0.0
C1529 C 0.48528 0.28323 0.66136 0.0
N1530 N 0.4978 0.25218 0.83829 0.0
N1531 N 0.49332 0.28358 0.70628 0.0
H1532 H 0.46324 0.80869 0.21285 0.0
H1533 H 0.52947 0.73278 0.32885 0.0
H1534 H 0.48686 0.75328 0.12221 0.0
H1535 H 0.50388 0.7834 0.42397 0.0
H1536 H 0.51402 0.74004 0.25319 0.0
H1537 H 0.47863 0.80134 0.28902 0.0
C1538 C 0.47187 0.79529 0.20875 0.0
C1539 C 0.47378 0.78157 0.16118 0.0
C1540 C 0.51162 0.74932 0.29066 0.0
C1541 C 0.49138 0.7727 0.24864 0.0
C1542 C 0.52036 0.74499 0.33415 0.0
C1543 C 0.5179 0.75737 0.383 0.0
C1544 C 0.5003 0.76637 0.29557 0.0
C1545 C 0.50604 0.77317 0.38736 0.0
C1546 C 0.48059 0.79097 0.2524 0.0
C1547 C 0.48515 0.76456 0.15784 0.0
N1548 N 0.49774 0.77742 0.34399 0.0
N1549 N 0.49346 0.76045 0.20117 0.0
H1550 H 0.52723 0.56032 0.96617 0.0
H1551 H 0.46554 0.47327 0.08447 0.0
H1552 H 0.50487 0.50394 0.87327 0.0
H1553 H 0.48887 0.52793 0.17822 0.0
H1554 H 0.48014 0.48339 1.00764 0.0
H1555 H 0.51278 0.5497 0.04304 0.0
C1556 C 0.51899 0.54612 0.96159 0.0
C1557 C 0.5172 0.53307 0.91307 0.0
C1558 C 0.48227 0.49289 0.0451 0.0
C1559 C 0.50079 0.52028 1.0018 0.0
C1560 C 0.47406 0.48689 0.08925 0.0
C1561 C 0.47609 0.49961 0.138 0.0
C1562 C 0.49262 0.51194 0.04936 0.0
C1563 C 0.48711 0.51735 0.14172 0.0
C1564 C 0.51086 0.53985 1.00579 0.0
C1565 C 0.50647 0.51472 0.90961 0.0
N1566 N 0.49488 0.52319 0.09777 0.0
N1567 N 0.49874 0.50869 0.95359 0.0
H1568 H 0.38945 0.25013 0.53729 0.0
H1569 H 0.35338 0.25622 0.2514 0.0
H1570 H 0.41249 0.2594 0.39047 0.0
H1571 H 0.3305 0.26327 0.39909 0.0
H1572 H 0.37494 0.25044 0.30159 0.0
H1573 H 0.36774 0.24785 0.48666 0.0
C1574 C 0.38999 0.25147 0.49435 0.0
C1575 C 0.40284 0.25523 0.46813 0.0
C1576 C 0.36519 0.25312 0.32302 0.0
C1577 C 0.37794 0.25266 0.41003 0.0
C1578 C 0.35284 0.2564 0.29443 0.0
C1579 C 0.34008 0.26049 0.32107 0.0
C1580 C 0.36484 0.25384 0.37871 0.0
C1581 C 0.34008 0.26033 0.37686 0.0
C1582 C 0.37755 0.25022 0.46552 0.0
C1583 C 0.40284 0.25664 0.41241 0.0
N1584 N 0.35231 0.2572 0.40387 0.0
N1585 N 0.39055 0.25551 0.38521 0.0
H1586 H 0.82966 0.02851 0.39081 0.0
H1587 H 0.91313 0.02229 0.40277 0.0
H1588 H 0.85334 0.03102 0.53721 0.0
H1589 H 0.88975 0.03285 0.25718 0.0
H1590 H 0.89138 0.02742 0.45306 0.0
H1591 H 0.85159 0.03199 0.34104 0.0
C1592 C 0.83943 0.02999 0.41253 0.0
C1593 C 0.83963 0.02919 0.46829 0.0
C1594 C 0.89105 0.02886 0.41011 0.0
C1595 C 0.86477 0.03304 0.41162 0.0
C1596 C 0.90348 0.02595 0.38137 0.0
C1597 C 0.90328 0.0269 0.32561 0.0
C1598 C 0.87833 0.03255 0.38287 0.0
C1599 C 0.89043 0.03175 0.30009 0.0
C1600 C 0.85195 0.03202 0.38409 0.0
C1601 C 0.85263 0.03137 0.49425 0.0
N1602 N 0.87847 0.03414 0.32888 0.0
N1603 N 0.86467 0.03295 0.46571 0.0
H1604 H 0.41275 0.02049 0.90111 0.0
H1605 H 0.32914 0.02514 0.89163 0.0
H1606 H 0.38884 0.02575 0.75555 0.0
H1607 H 0.3532 0.02877 0.037 0.0
H1608 H 0.35092 0.02798 0.8409 0.0
H1609 H 0.39109 0.02609 0.95167 0.0
C1610 C 0.40299 0.02303 0.87973 0.0
C1611 C 0.40263 0.02241 0.82396 0.0
C1612 C 0.35141 0.02838 0.88392 0.0
C1613 C 0.37778 0.02866 0.8816 0.0
C1614 C 0.33896 0.02674 0.91293 0.0
C1615 C 0.33931 0.02641 0.96871 0.0
C1616 C 0.36431 0.02955 0.91088 0.0
C1617 C 0.35238 0.02875 0.99407 0.0
C1618 C 0.39061 0.02623 0.90864 0.0
C1619 C 0.38965 0.0259 0.79848 0.0
N1620 N 0.36435 0.02997 0.96498 0.0
N1621 N 0.37775 0.02865 0.82749 0.0
H1622 H 0.82805 0.26184 0.90436 0.0
H1623 H 0.91163 0.26598 0.89266 0.0
H1624 H 0.85169 0.26113 0.75772 0.0
H1625 H 0.88804 0.25389 0.03727 0.0
H1626 H 0.88981 0.26274 0.84194 0.0
H1627 H 0.84998 0.25748 0.95375 0.0
C1628 C 0.83781 0.2606 0.88251 0.0
C1629 C 0.83801 0.26211 0.82683 0.0
C1630 C 0.88945 0.26057 0.88475 0.0
C1631 C 0.86314 0.25723 0.88304 0.0
C1632 C 0.90191 0.26241 0.91369 0.0
C1633 C 0.90166 0.26043 0.96931 0.0
C1634 C 0.87669 0.2569 0.91172 0.0
C1635 C 0.88875 0.25575 0.99447 0.0
C1636 C 0.85034 0.25807 0.91072 0.0
C1637 C 0.85099 0.26021 0.80065 0.0
N1638 N 0.87678 0.25437 0.96554 0.0
N1639 N 0.86303 0.2581 0.82899 0.0
H1640 H 0.57941 0.77129 0.65322 0.0
H1641 H 0.66312 0.76801 0.6436 0.0
H1642 H 0.60374 0.77956 0.50924 0.0
H1643 H 0.63957 0.7713 0.79023 0.0
H1644 H 0.64131 0.77266 0.594 0.0
H1645 H 0.60118 0.772 0.70475 0.0
C1646 C 0.58929 0.77348 0.63246 0.0
C1647 C 0.58974 0.7752 0.57678 0.0
C1648 C 0.64091 0.77251 0.63704 0.0
C1649 C 0.61465 0.77583 0.63538 0.0
C1650 C 0.65337 0.7698 0.66541 0.0
C1651 C 0.65318 0.76917 0.72117 0.0
C1652 C 0.62812 0.7744 0.66456 0.0
C1653 C 0.64022 0.77166 0.74725 0.0
C1654 C 0.60172 0.77386 0.6619 0.0
C1655 C 0.60285 0.77802 0.55205 0.0
N1656 N 0.62819 0.77401 0.71871 0.0
N1657 N 0.61477 0.77807 0.58147 0.0
H1658 H 0.08022 1.01608 0.64465 0.0
H1659 H 0.16398 1.0152 0.65434 0.0
H1660 H 0.10423 1.01071 0.78991 0.0
H1661 H 0.14004 1.01173 0.50867 0.0
H1662 H 0.14218 1.01171 0.70479 0.0
H1663 H 0.10202 1.01279 0.59383 0.0
C1664 C 0.09004 1.01403 0.66586 0.0
C1665 C 0.09039 1.01383 0.72163 0.0
C1666 C 0.14172 1.01152 0.66176 0.0
C1667 C 0.11536 1.01019 0.66383 0.0
C1668 C 0.15418 1.01353 0.63292 0.0
C1669 C 0.15387 1.01402 0.57716 0.0
C1670 C 0.12885 1.01013 0.63463 0.0
C1671 C 0.14083 1.0116 0.55161 0.0
C1672 C 0.10249 1.01214 0.63684 0.0
C1673 C 0.10343 1.0111 0.74698 0.0
N1674 N 0.12885 1.00998 0.58054 0.0
N1675 N 0.11539 1.00956 0.71791 0.0
H1676 H 0.66076 1.01713 0.14586 0.0
H1677 H 0.57695 1.01604 0.13773 0.0
H1678 H 0.6366 1.00926 1.00145 0.0
H1679 H 0.60107 1.01461 0.28313 0.0
H1680 H 0.59871 1.01203 0.08712 0.0
H1681 H 0.63901 1.01466 0.19723 0.0
C1682 C 0.65091 1.01467 0.12496 0.0
C1683 C 0.65051 1.01356 0.06924 0.0
C1684 C 0.59922 1.01242 0.13014 0.0
C1685 C 0.62559 1.01091 0.12768 0.0
C1686 C 0.58678 1.01474 0.15907 0.0
C1687 C 0.58715 1.01589 0.2148 0.0
C1688 C 0.61212 1.01138 0.15711 0.0
C1689 C 0.60023 1.01393 0.24023 0.0
C1690 C 0.6385 1.01328 0.1543 0.0
C1691 C 0.63744 1.01035 0.04432 0.0
N1692 N 0.61218 1.01197 0.2112 0.0
N1693 N 0.62551 1.00932 0.07368 0.0
H1694 H 0.07947 0.77361 0.15678 0.0
H1695 H 0.16303 0.77802 0.1399 0.0
H1696 H 0.10256 0.779 1.00933 0.0
H1697 H 0.13993 0.78263 0.2874 0.0
H1698 H 0.14094 0.78051 0.09122 0.0
H1699 H 0.10145 0.77887 0.20558 0.0
C1700 C 0.08911 0.77605 0.13464 0.0
C1701 C 0.08914 0.77559 0.07885 0.0
C1702 C 0.14073 0.7812 0.13426 0.0
C1703 C 0.11435 0.78155 0.13439 0.0
C1704 C 0.15337 0.77978 0.1621 0.0
C1705 C 0.15339 0.77985 0.21788 0.0
C1706 C 0.12801 0.78253 0.16241 0.0
C1707 C 0.14048 0.78232 0.24441 0.0
C1708 C 0.10167 0.77909 0.16252 0.0
C1709 C 0.10199 0.77903 0.05233 0.0
N1710 N 0.12832 0.78332 0.21647 0.0
N1711 N 0.11406 0.78165 0.08031 0.0
H1712 H 0.32837 0.76154 0.90278 0.0
H1713 H 0.41201 0.76462 0.89276 0.0
H1714 H 0.35224 0.76185 0.75672 0.0
H1715 H 0.3883 0.75147 0.03664 0.0
H1716 H 0.39023 0.76245 0.84179 0.0
H1717 H 0.35022 0.7568 0.95259 0.0
C1718 C 0.33816 0.76048 0.88113 0.0
C1719 C 0.33844 0.76232 0.82548 0.0
C1720 C 0.38982 0.7598 0.88448 0.0
C1721 C 0.36349 0.75698 0.8822 0.0
C1722 C 0.40227 0.76098 0.91359 0.0
C1723 C 0.402 0.75832 0.96909 0.0
C1724 C 0.37701 0.75615 0.91115 0.0
C1725 C 0.38904 0.75378 0.99395 0.0
C1726 C 0.35064 0.75772 0.90959 0.0
C1727 C 0.35147 0.76063 0.79959 0.0
N1728 N 0.37706 0.75305 0.96487 0.0
N1729 N 0.36347 0.75827 0.82817 0.0
H1730 H 0.91306 0.51828 0.90121 0.0
H1731 H 0.82949 0.52597 0.89295 0.0
H1732 H 0.88909 0.52934 0.75722 0.0
H1733 H 0.85345 0.52684 0.03874 0.0
H1734 H 0.85133 0.5285 0.84265 0.0
H1735 H 0.89143 0.52266 0.95285 0.0
C1736 C 0.90329 0.52183 0.88048 0.0
C1737 C 0.90288 0.52325 0.82478 0.0
C1738 C 0.85179 0.52834 0.88568 0.0
C1739 C 0.87813 0.52812 0.88347 0.0
C1740 C 0.83931 0.52689 0.91444 0.0
C1741 C 0.8396 0.52603 0.97017 0.0
C1742 C 0.86468 0.52873 0.91282 0.0
C1743 C 0.85268 0.52735 0.99581 0.0
C1744 C 0.89095 0.52433 0.90996 0.0
C1745 C 0.88992 0.52793 0.80005 0.0
N1746 N 0.86469 0.52842 0.96693 0.0
N1747 N 0.87807 0.53 0.82952 0.0
H1748 H 0.35479 0.52711 0.5428 0.0
H1749 H 0.39138 0.52642 0.25739 0.0
H1750 H 0.33188 0.52056 0.39519 0.0
H1751 H 0.41408 0.5185 0.40516 0.0
H1752 H 0.36965 0.53062 0.30733 0.0
H1753 H 0.37655 0.53011 0.49277 0.0
C1754 C 0.3543 0.52645 0.49979 0.0
C1755 C 0.34145 0.52337 0.47316 0.0
C1756 C 0.37939 0.5281 0.32885 0.0
C1757 C 0.36647 0.52681 0.41563 0.0
C1758 C 0.39186 0.52576 0.30041 0.0
C1759 C 0.40463 0.5218 0.32709 0.0
C1760 C 0.37965 0.52657 0.38448 0.0
C1761 C 0.40451 0.5213 0.38286 0.0
C1762 C 0.36677 0.52814 0.47128 0.0
C1763 C 0.34153 0.52281 0.41739 0.0
N1764 N 0.39219 0.52351 0.40971 0.0
N1765 N 0.35387 0.52439 0.39044 0.0
H1766 H 0.85295 0.76239 0.25666 0.0
H1767 H 0.88759 0.75603 0.54541 0.0
H1768 H 0.8291 0.76273 0.40276 0.0
H1769 H 0.91131 0.76801 0.4011 0.0
H1770 H 0.86626 0.75258 0.49279 0.0
H1771 H 0.87444 0.75853 0.3082 0.0
C1772 C 0.85218 0.76146 0.29959 0.0
C1773 C 0.83913 0.76317 0.32541 0.0
C1774 C 0.87613 0.75582 0.47258 0.0
C1775 C 0.86384 0.75879 0.38466 0.0
C1776 C 0.88836 0.75777 0.50257 0.0
C1777 C 0.90129 0.76255 0.47767 0.0
C1778 C 0.87679 0.75864 0.41717 0.0
C1779 C 0.90158 0.76444 0.42202 0.0
C1780 C 0.8645 0.75932 0.32898 0.0
C1781 C 0.83888 0.76175 0.38112 0.0
N1782 N 0.88949 0.76262 0.39364 0.0
N1783 N 0.85106 0.75977 0.4089 0.0
H1784 H 0.63725 0.27613 0.29463 0.0
H1785 H 0.6022 0.28149 1.00667 0.0
H1786 H 0.66081 0.26895 0.14857 0.0
H1787 H 0.5787 0.27495 0.15301 0.0
H1788 H 0.62384 0.28295 0.05803 0.0
H1789 H 0.61591 0.28163 0.24305 0.0
C1790 C 0.63797 0.27582 0.25165 0.0
C1791 C 0.65086 0.27186 0.22588 0.0
C1792 C 0.61394 0.28135 0.07888 0.0
C1793 C 0.62635 0.27817 0.16655 0.0
C1794 C 0.60154 0.28059 0.04963 0.0
C1795 C 0.58857 0.27789 0.07554 0.0
C1796 C 0.61338 0.2795 0.13447 0.0
C1797 C 0.58843 0.27691 0.13129 0.0
C1798 C 0.62574 0.27896 0.22223 0.0
C1799 C 0.65111 0.27183 0.17009 0.0
N1800 N 0.60066 0.27759 0.15887 0.0
N1801 N 0.639 0.27481 0.14223 0.0
H1802 H 0.10305 0.50594 0.28628 0.0
H1803 H 0.13843 0.51236 0.99883 0.0
H1804 H 0.07953 0.513 0.14016 0.0
H1805 H 0.16163 0.51924 0.14574 0.0
H1806 H 0.11698 0.50629 0.04977 0.0
H1807 H 0.12465 0.50427 0.23487 0.0
C1808 C 0.10238 0.50692 0.24333 0.0
C1809 C 0.0894 0.50991 0.21756 0.0
C1810 C 0.12677 0.50899 0.07087 0.0
C1811 C 0.11422 0.50808 0.15848 0.0
C1812 C 0.13907 0.51244 0.04183 0.0
C1813 C 0.15189 0.51655 0.06801 0.0
C1814 C 0.12725 0.50958 0.12658 0.0
C1815 C 0.152 0.51629 0.12382 0.0
C1816 C 0.11476 0.50603 0.21403 0.0
C1817 C 0.08927 0.51091 0.16179 0.0
N1818 N 0.13984 0.51299 0.15125 0.0
N1819 N 0.10151 0.51015 0.13412 0.0
H1820 H 0.66203 0.51472 0.65474 0.0
H1821 H 0.57834 0.51439 0.64378 0.0
H1822 H 0.63828 0.50623 0.50946 0.0
H1823 H 0.60217 0.51251 0.78985 0.0
H1824 H 0.60017 0.50969 0.59379 0.0
H1825 H 0.64018 0.51218 0.70524 0.0
C1826 C 0.65226 0.51211 0.63344 0.0
C1827 C 0.65201 0.5109 0.57771 0.0
C1828 C 0.60059 0.51012 0.63682 0.0
C1829 C 0.62695 0.50815 0.63524 0.0
C1830 C 0.58811 0.51284 0.66539 0.0
C1831 C 0.58839 0.51411 0.72111 0.0
C1832 C 0.61342 0.50881 0.66418 0.0
C1833 C 0.6014 0.5118 0.74693 0.0
C1834 C 0.63978 0.51066 0.66231 0.0
C1835 C 0.63901 0.50743 0.55234 0.0
N1836 N 0.61338 0.50948 0.71826 0.0
N1837 N 0.62701 0.50639 0.58126 0.0
H1838 H 0.16137 0.27386 0.64111 0.0
H1839 H 0.07766 0.27429 0.65043 0.0
H1840 H 0.13726 0.28049 0.78597 0.0
H1841 H 0.10165 0.27691 0.5047 0.0
H1842 H 0.09943 0.27839 0.70079 0.0
H1843 H 0.13961 0.27667 0.59002 0.0
C1844 C 0.15154 0.27609 0.66216 0.0
C1845 C 0.15114 0.27677 0.71789 0.0
C1846 C 0.0999 0.27826 0.65776 0.0
C1847 C 0.12623 0.27986 0.65983 0.0
C1848 C 0.08747 0.27589 0.62898 0.0
C1849 C 0.08781 0.27499 0.57325 0.0
C1850 C 0.11277 0.27958 0.63061 0.0
C1851 C 0.10085 0.27736 0.54763 0.0
C1852 C 0.13912 0.2777 0.63299 0.0
C1853 C 0.13808 0.27972 0.74307 0.0
N1854 N 0.11281 0.27933 0.57652 0.0
N1855 N 0.12616 0.28098 0.71387 0.0
H1856 H 0.3149 0.27822 0.58689 0.0
H1857 H 0.28734 0.25534 0.88471 0.0
H1858 H 0.27213 0.25774 0.62368 0.0
H1859 H 0.32822 0.28582 0.84603 0.0
H1860 H 0.28192 0.25327 0.78965 0.0
H1861 H 0.32038 0.27761 0.68169 0.0
C1862 C 0.30668 0.2733 0.61482 0.0
C1863 C 0.29302 0.26797 0.59701 0.0
C1864 C 0.29209 0.26033 0.80204 0.0
C1865 C 0.29922 0.26758 0.70629 0.0
C1866 C 0.29519 0.26164 0.85642 0.0
C1867 C 0.3083 0.27075 0.87386 0.0
C1868 C 0.30217 0.26811 0.76454 0.0
C1869 C 0.31807 0.27823 0.83489 0.0
C1870 C 0.3098 0.27316 0.66911 0.0
C1871 C 0.28277 0.26223 0.63546 0.0
N1872 N 0.31481 0.27677 0.78233 0.0
N1873 N 0.28607 0.26217 0.68819 0.0
H1874 H 0.93541 0.96517 0.59587 0.0
H1875 H 0.94278 0.03717 0.87732 0.0
H1876 H 0.95834 0.03603 0.61753 0.0
H1877 H 0.92202 0.96395 0.85709 0.0
H1878 H 0.94843 0.03728 0.78242 0.0
H1879 H 0.92992 0.96497 0.69096 0.0
C1880 C 0.93923 0.98078 0.62045 0.0
C1881 C 0.94738 1.00063 0.59831 0.0
C1882 C 0.94264 0.02119 0.79875 0.0
C1883 C 0.94122 1.00039 0.70788 0.0
C1884 C 0.93947 0.02102 0.85316 0.0
C1885 C 0.93185 1.00055 0.87569 0.0
C1886 C 0.93817 1.00075 0.7662 0.0
C1887 C 0.9277 0.98039 0.84172 0.0
C1888 C 0.93616 0.98056 0.67494 0.0
C1889 C 0.95219 0.02012 0.63267 0.0
N1890 N 0.93089 0.98103 0.78893 0.0
N1891 N 0.94903 0.01952 0.6855 0.0
H1892 H 0.28643 1.00143 0.40695 0.0
H1893 H 0.31235 0.03639 0.70191 0.0
H1894 H 0.32819 0.02773 0.44435 0.0
H1895 H 0.27295 0.99863 0.6692 0.0
H1896 H 0.31742 0.03677 0.6068 0.0
H1897 H 0.28036 1.00406 0.50156 0.0
C1898 C 0.29429 1.00795 0.43492 0.0
C1899 C 0.30788 1.01422 0.41751 0.0
C1900 C 0.30765 0.02844 0.62037 0.0
C1901 C 0.30101 1.01715 0.52612 0.0
C1902 C 0.30476 0.02809 0.67488 0.0
C1903 C 0.29223 1.01727 0.69412 0.0
C1904 C 0.29794 1.018 0.5843 0.0
C1905 C 0.28269 1.00741 0.65655 0.0
C1906 C 0.29085 1.0093 0.48902 0.0
C1907 C 0.31766 0.02231 0.45586 0.0
N1908 N 0.28576 1.00794 0.60362 0.0
N1909 N 0.31404 0.02353 0.50815 0.0
H1910 H 0.95339 0.291 0.41028 0.0
H1911 H 0.92375 0.27099 0.70676 0.0
H1912 H 0.91019 0.2732 0.44585 0.0
H1913 H 0.96691 0.28942 0.67189 0.0
H1914 H 0.91857 0.27223 0.61154 0.0
H1915 H 0.9586 0.29023 0.50559 0.0
C1916 C 0.94499 0.28679 0.43796 0.0
C1917 C 0.93129 0.28223 0.41955 0.0
C1918 C 0.92918 0.27602 0.62469 0.0
C1919 C 0.9372 0.2816 0.52941 0.0
C1920 C 0.93214 0.27549 0.67926 0.0
C1921 C 0.94582 0.28006 0.69785 0.0
C1922 C 0.93995 0.28118 0.58798 0.0
C1923 C 0.95625 0.28537 0.65975 0.0
C1924 C 0.94797 0.28652 0.49255 0.0
C1925 C 0.92085 0.27726 0.45782 0.0
N1926 N 0.95311 0.28577 0.60688 0.0
N1927 N 0.92402 0.27707 0.51065 0.0
H1928 H 0.66502 0.74974 0.19813 0.0
H1929 H 0.72321 0.77588 0.4226 0.0
H1930 H 0.70792 0.76958 0.16185 0.0
H1931 H 0.68055 0.7535 0.45664 0.0
H1932 H 0.71785 0.7744 0.32745 0.0
H1933 H 0.6705 0.75218 0.29277 0.0
C1934 C 0.67558 0.75483 0.20989 0.0
C1935 C 0.68598 0.75958 0.17141 0.0
C1936 C 0.70966 0.76986 0.35575 0.0
C1937 C 0.69241 0.76207 0.28079 0.0
C1938 C 0.71272 0.77057 0.41028 0.0
C1939 C 0.70234 0.7648 0.44827 0.0
C1940 C 0.69609 0.76332 0.33862 0.0
C1941 C 0.68888 0.75849 0.42931 0.0
C1942 C 0.67873 0.75604 0.26419 0.0
C1943 C 0.69956 0.76551 0.18972 0.0
N1944 N 0.68618 0.75789 0.37611 0.0
N1945 N 0.70236 0.76662 0.2429 0.0
H1946 H 0.06505 0.07495 0.18657 0.0
H1947 H 0.04017 0.98686 0.43149 0.0
H1948 H 0.05367 0.99486 0.17097 0.0
H1949 H 0.05224 0.06653 0.44816 0.0
H1950 H 0.04485 0.98962 0.33615 0.0
H1951 H 0.06027 0.07236 0.28194 0.0
C1952 C 0.0616 0.05675 0.20309 0.0
C1953 C 0.05984 0.03505 0.17026 0.0
C1954 C 0.04649 1.00652 0.36059 0.0
C1955 C 0.0542 0.03205 0.28013 0.0
C1956 C 0.04374 1.00501 0.41518 0.0
C1957 C 0.04573 0.02654 0.44829 0.0
C1958 C 0.05127 0.02975 0.3384 0.0
C1959 C 0.05067 0.04935 0.42458 0.0
C1960 C 0.05881 0.05535 0.25769 0.0
C1961 C 0.05506 1.0122 0.19426 0.0
N1962 N 0.05322 0.05036 0.37124 0.0
N1963 N 0.05246 1.0113 0.24754 0.0
H1964 H 0.68227 0.99178 0.61691 0.0
H1965 H 0.69418 0.07024 0.34501 0.0
H1966 H 0.68096 0.07468 0.60677 0.0
H1967 H 0.69408 0.98727 0.35477 0.0
H1968 H 0.68945 0.07233 0.44063 0.0
H1969 H 0.68712 0.98983 0.52143 0.0
C1970 C 0.68311 1.00961 0.59479 0.0
C1971 C 0.68117 0.03344 0.62026 0.0
C1972 C 0.69045 0.05366 0.42185 0.0
C1973 C 0.6866 0.03133 0.5102 0.0
C1974 C 0.69306 0.05244 0.36705 0.0
C1975 C 0.69457 0.02853 0.34142 0.0
C1976 C 0.68929 0.03081 0.4516 0.0
C1977 C 0.69322 1.00616 0.37264 0.0
C1978 C 0.68579 1.00847 0.54006 0.0
C1979 C 0.68218 0.05584 0.58897 0.0
N1980 N 0.69068 1.00786 0.42584 0.0
N1981 N 0.68482 0.05424 0.53581 0.0
H1982 H 0.05748 0.72847 0.34931 0.0
H1983 H 0.04613 0.7935 0.63505 0.0
H1984 H 0.02875 0.7914 0.37525 0.0
H1985 H 0.06913 0.72296 0.60937 0.0
H1986 H 0.04009 0.79422 0.54036 0.0
H1987 H 0.06261 0.72774 0.44431 0.0
C1988 C 0.05231 0.74228 0.37495 0.0
C1989 C 0.04272 0.76014 0.35405 0.0
C1990 C 0.04645 0.77859 0.55556 0.0
C1991 C 0.04848 0.75924 0.46356 0.0
C1992 C 0.04986 0.77808 0.60975 0.0
C1993 C 0.05827 0.75823 0.63054 0.0
C1994 C 0.05151 0.75917 0.5217 0.0
C1995 C 0.06289 0.73898 0.59532 0.0
C1996 C 0.05517 0.74173 0.42937 0.0
C1997 C 0.03615 0.77721 0.38959 0.0
N1998 N 0.0595 0.74 0.54286 0.0
N1999 N 0.03919 0.77642 0.44253 0.0
H2000 H 0.30913 0.7473 0.09467 0.0
H2001 H 0.28522 0.78963 0.38788 0.0
H2002 H 0.27208 0.79269 0.12557 0.0
H2003 H 0.3256 0.75657 0.35155 0.0
H2004 H 0.27899 0.78688 0.29346 0.0
H2005 H 0.31412 0.74681 0.18983 0.0
C2006 C 0.30203 0.75722 0.12131 0.0
C2007 C 0.29021 0.77025 0.10156 0.0
C2008 C 0.2892 0.78019 0.3062 0.0
C2009 C 0.29581 0.76942 0.21138 0.0
C2010 C 0.29274 0.7816 0.36018 0.0
C2011 C 0.30601 0.77347 0.37779 0.0
C2012 C 0.29894 0.77036 0.26945 0.0
C2013 C 0.31535 0.76345 0.33982 0.0
C2014 C 0.30487 0.75682 0.17583 0.0
C2015 C 0.28125 0.78219 0.13864 0.0
N2016 N 0.31165 0.7622 0.28763 0.0
N2017 N 0.28427 0.78156 0.19159 0.0
H2018 H 0.95454 0.49421 0.38327 0.0
H2019 H 0.92467 0.51165 0.08646 0.0
H2020 H 0.91103 0.50908 0.34744 0.0
H2021 H 0.96808 0.49553 0.12162 0.0
H2022 H 0.91948 0.51044 0.1817 0.0
H2023 H 0.95976 0.49506 0.28796 0.0
C2024 C 0.94608 0.49779 0.35554 0.0
C2025 C 0.93229 0.5015 0.37388 0.0
C2026 C 0.93015 0.50715 0.1686 0.0
C2027 C 0.93822 0.50224 0.264 0.0
C2028 C 0.93311 0.50766 0.11402 0.0
C2029 C 0.94686 0.50373 0.09548 0.0
C2030 C 0.94098 0.50265 0.2054 0.0
C2031 C 0.95736 0.49907 0.13369 0.0
C2032 C 0.94907 0.49811 0.30094 0.0
C2033 C 0.92178 0.5057 0.33552 0.0
N2034 N 0.95421 0.49868 0.18656 0.0
N2035 N 0.92496 0.50596 0.28269 0.0
H2036 H 0.28818 0.49944 0.9104 0.0
H2037 H 0.31908 0.51272 0.20643 0.0
H2038 H 0.33229 0.50703 0.9454 0.0
H2039 H 0.27508 0.50267 0.17198 0.0
H2040 H 0.32411 0.51052 0.11115 0.0
H2041 H 0.28314 0.50127 1.00577 0.0
C2042 C 0.29682 0.50164 0.93799 0.0
C2043 C 0.31071 0.50301 0.91946 0.0
C2044 C 0.31335 0.50878 0.12442 0.0
C2045 C 0.30498 0.50485 0.0293 0.0
C2046 C 0.31047 0.50985 0.17901 0.0
C2047 C 0.29661 0.50794 0.1977 0.0
C2048 C 0.30231 0.50576 0.08785 0.0
C2049 C 0.28591 0.50466 0.15973 0.0
C2050 C 0.29392 0.50251 0.99259 0.0
C2051 C 0.32144 0.50549 0.95755 0.0
N2052 N 0.28898 0.5037 0.10686 0.0
N2053 N 0.31835 0.50634 1.01041 0.0
H2054 H 0.94117 0.74645 0.92617 0.0
H2055 H 0.9353 0.81829 0.20841 0.0
H2056 H 0.92219 0.82125 0.9465 0.0
H2057 H 0.95455 0.74379 0.18713 0.0
H2058 H 0.93023 0.81963 0.11299 0.0
H2059 H 0.94636 0.74542 1.02135 0.0
C2060 C 0.93817 0.76277 0.95042 0.0
C2061 C 0.93119 0.78396 0.9278 0.0
C2062 C 0.93557 0.80299 0.1292 0.0
C2063 C 0.93697 0.78272 0.03772 0.0
C2064 C 0.9384 0.80213 0.18388 0.0
C2065 C 0.94542 0.78092 0.20626 0.0
C2066 C 0.93975 0.78247 0.09628 0.0
C2067 C 0.94932 0.76075 0.17189 0.0
C2068 C 0.94106 0.76208 1.00502 0.0
C2069 C 0.92739 0.80431 0.96192 0.0
N2070 N 0.94644 0.76203 0.1189 0.0
N2071 N 0.93032 0.80317 1.01493 0.0
H2072 H 0.68965 0.28832 0.67197 0.0
H2073 H 0.68604 0.21638 0.95469 0.0
H2074 H 0.67348 0.21133 0.69275 0.0
H2075 H 0.70325 0.29251 0.93281 0.0
H2076 H 0.68103 0.21441 0.85929 0.0
H2077 H 0.69477 0.29011 0.76717 0.0
C2078 C 0.68726 0.27169 0.69632 0.0
C2079 C 0.68107 0.24965 0.67384 0.0
C2080 C 0.68591 0.23155 0.87535 0.0
C2081 C 0.68678 0.25174 0.78373 0.0
C2082 C 0.68869 0.23277 0.93002 0.0
C2083 C 0.69513 0.25463 0.9522 0.0
C2084 C 0.68952 0.25237 0.84227 0.0
C2085 C 0.69849 0.27508 0.91769 0.0
C2086 C 0.69011 0.27281 0.75092 0.0
C2087 C 0.67804 0.22892 0.70807 0.0
N2088 N 0.69565 0.27344 0.86471 0.0
N2089 N 0.6809 0.23048 0.76105 0.0
H2090 H 0.05716 0.55775 0.94779 0.0
H2091 H 0.04654 0.49053 0.66361 0.0
H2092 H 0.02964 0.49284 0.92372 0.0
H2093 H 0.06943 0.56131 0.68785 0.0
H2094 H 0.04047 0.49025 0.75829 0.0
H2095 H 0.0623 0.55816 0.85277 0.0
C2096 C 0.05226 0.54344 0.92258 0.0
C2097 C 0.04301 0.52512 0.94405 0.0
C2098 C 0.04681 0.50583 0.74279 0.0
C2099 C 0.04877 0.52565 0.83444 0.0
C2100 C 0.05024 0.5061 0.6886 0.0
C2101 C 0.05863 0.52588 0.6674 0.0
C2102 C 0.05182 0.52545 0.77627 0.0
C2103 C 0.0632 0.54533 0.70224 0.0
C2104 C 0.05512 0.5438 0.86812 0.0
C2105 C 0.03676 0.50742 0.90898 0.0
N2106 N 0.05979 0.54456 0.75471 0.0
N2107 N 0.0398 0.50805 0.85601 0.0
H2108 H 0.67848 0.56716 0.11336 0.0
H2109 H 0.70889 0.48623 0.86746 0.0
H2110 H 0.68994 0.487 0.1264 0.0
H2111 H 0.68968 0.5611 0.85321 0.0
H2112 H 0.70416 0.48704 0.96353 0.0
H2113 H 0.68462 0.56613 1.01939 0.0
C2114 C 0.6822 0.54924 0.09647 0.0
C2115 C 0.68348 0.52703 0.12803 0.0
C2116 C 0.70099 0.50327 0.93931 0.0
C2117 C 0.6908 0.52585 1.01977 0.0
C2118 C 0.70374 0.50287 0.88454 0.0
C2119 C 0.69958 0.52355 0.85211 0.0
C2120 C 0.69418 0.52464 0.96193 0.0
C2121 C 0.69287 0.54455 0.87641 0.0
C2122 C 0.68579 0.54872 0.04268 0.0
C2123 C 0.68881 0.50463 0.10385 0.0
N2124 N 0.69041 0.54456 0.92966 0.0
N2125 N 0.69222 0.50458 0.05118 0.0
H2126 H 0.02125 0.24421 0.87256 0.0
H2127 H 0.07681 0.28021 0.09954 0.0
H2128 H 0.05965 0.28583 0.84267 0.0
H2129 H 0.03615 0.24759 0.13314 0.0
H2130 H 0.07066 0.28221 1.00531 0.0
H2131 H 0.02632 0.2455 0.96781 0.0
C2132 C 0.03068 0.25387 0.88587 0.0
C2133 C 0.04005 0.26485 0.84904 0.0
C2134 C 0.06305 0.2747 0.03325 0.0
C2135 C 0.04604 0.26598 0.95861 0.0
C2136 C 0.06658 0.27342 0.08713 0.0
C2137 C 0.05703 0.26357 0.12449 0.0
C2138 C 0.04986 0.26592 1.01615 0.0
C2139 C 0.04383 0.25549 0.10595 0.0
C2140 C 0.03361 0.25444 0.94041 0.0
C2141 C 0.05221 0.27668 0.86913 0.0
N2142 N 0.04068 0.25668 0.05314 0.0
N2143 N 0.05487 0.27682 0.92232 0.0
H2144 H 0.77761 0.2451 0.12297 0.0
H2145 H 0.81894 0.31648 0.3582 0.0
H2146 H 0.80633 0.30825 0.09896 0.0
H2147 H 0.79558 0.2462 0.38214 0.0
H2148 H 0.8132 0.31489 0.26391 0.0
H2149 H 0.78273 0.24648 0.21855 0.0
C2150 C 0.78495 0.2593 0.13774 0.0
C2151 C 0.79159 0.2765 0.10266 0.0
C2152 C 0.80933 0.29977 0.28969 0.0
C2153 C 0.79751 0.27816 0.21211 0.0
C2154 C 0.81268 0.30056 0.34371 0.0
C2155 C 0.80789 0.28129 0.37853 0.0
C2156 C 0.80102 0.27963 0.26982 0.0
C2157 C 0.79946 0.2616 0.35715 0.0
C2158 C 0.78792 0.25998 0.1923 0.0
C2159 C 0.80111 0.29433 0.12419 0.0
N2160 N 0.79632 0.26126 0.30425 0.0
N2161 N 0.80375 0.29471 0.17733 0.0
H2162 H 0.41149 1.01135 0.34688 0.0
H2163 H 0.47202 1.0147 0.12527 0.0
H2164 H 0.45553 1.00594 0.38472 0.0
H2165 H 0.42783 1.00995 0.0894 0.0
H2166 H 0.46635 1.01464 0.22021 0.0
H2167 H 0.41746 1.01405 0.25276 0.0
C2168 C 0.42243 1.0106 0.33554 0.0
C2169 C 0.43299 1.00812 0.37426 0.0
C2170 C 0.4579 1.0137 0.19153 0.0
C2171 C 0.43995 1.01164 0.2656 0.0
C2172 C 0.46113 1.01362 0.13715 0.0
C2173 C 0.45041 1.01225 0.09873 0.0
C2174 C 0.44384 1.01247 0.20803 0.0
C2175 C 0.43648 1.01139 0.11708 0.0
C2176 C 0.42584 1.01231 0.28158 0.0
C2177 C 0.44701 1.00799 0.35666 0.0
N2178 N 0.43363 1.01145 0.17015 0.0
N2179 N 0.45006 1.00962 0.30375 0.0
H2180 H 0.8291 0.03204 0.94147 0.0
H2181 H 0.77291 0.99967 0.16848 0.0
H2182 H 0.78758 1.00345 0.90755 0.0
H2183 H 0.81192 0.03933 0.19816 0.0
H2184 H 0.77796 1.00078 0.0732 0.0
H2185 H 0.82302 0.03427 0.03575 0.0
C2186 C 0.8187 0.02619 0.95384 0.0
C2187 C 0.80887 1.01739 0.91638 0.0
C2188 C 0.78538 1.00933 0.10057 0.0
C2189 C 0.80179 0.02 0.02476 0.0
C2190 C 0.78247 1.00887 0.15513 0.0
C2191 C 0.792 0.01936 0.19191 0.0
C2192 C 0.79798 0.02023 0.08231 0.0
C2193 C 0.80434 0.03057 0.17175 0.0
C2194 C 0.8152 0.02761 1.00774 0.0
C2195 C 0.79547 1.0105 0.93484 0.0
N2196 N 0.80698 0.03059 0.11855 0.0
N2197 N 0.79236 1.01178 0.98769 0.0
H2198 H 0.41467 0.27974 0.9435 0.0
H2199 H 0.4721 0.24953 0.16761 0.0
H2200 H 0.45541 0.24793 0.90747 0.0
H2201 H 0.42953 0.27259 0.2011 0.0
H2202 H 0.46656 0.24942 0.07238 0.0
H2203 H 0.42021 0.27749 0.03788 0.0
C2204 C 0.42474 0.27198 0.95528 0.0
C2205 C 0.43453 0.26385 0.91698 0.0
C2206 C 0.45842 0.25437 0.10063 0.0
C2207 C 0.44109 0.26173 0.02597 0.0
C2208 C 0.46159 0.25455 0.15503 0.0
C2209 C 0.45127 0.26101 0.19268 0.0
C2210 C 0.44484 0.2609 0.08353 0.0
C2211 C 0.43779 0.2671 0.17384 0.0
C2212 C 0.42794 0.27089 1.00942 0.0
C2213 C 0.44756 0.25466 0.93524 0.0
N2214 N 0.43501 0.26699 0.1208 0.0
N2215 N 0.45045 0.25389 0.98831 0.0
H2216 H 0.18135 0.74009 0.95117 0.0
H2217 H 0.203 0.78403 0.65652 0.0
H2218 H 0.21795 0.78613 0.91716 0.0
H2219 H 0.16625 0.73877 0.69277 0.0
H2220 H 0.20896 0.78442 0.75115 0.0
H2221 H 0.17586 0.73921 0.85644 0.0
C2222 C 0.18819 0.7502 0.92387 0.0
C2223 C 0.20009 0.76338 0.94248 0.0
C2224 C 0.19958 0.77444 0.73838 0.0
C2225 C 0.19393 0.76216 0.83325 0.0
C2226 C 0.1962 0.77409 0.68423 0.0
C2227 C 0.18404 0.76143 0.66637 0.0
C2228 C 0.19078 0.76203 0.77518 0.0
C2229 C 0.17558 0.74917 0.70452 0.0
C2230 C 0.18509 0.74955 0.8696 0.0
C2231 C 0.20872 0.77558 0.90477 0.0
N2232 N 0.17911 0.74978 0.75691 0.0
N2233 N 0.20545 0.77473 0.85206 0.0
H2234 H 0.56763 0.06839 0.68536 0.0
H2235 H 0.52588 0.99779 0.92085 0.0
H2236 H 0.54395 0.99848 0.66152 0.0
H2237 H 0.55474 0.06074 0.94441 0.0
H2238 H 0.53097 0.99908 0.8252 0.0
H2239 H 0.56173 0.06707 0.77954 0.0
C2240 C 0.56127 0.05262 0.69985 0.0
C2241 C 0.55644 0.03335 0.66509 0.0
C2242 C 0.5362 1.01257 0.85137 0.0
C2243 C 0.54938 0.03201 0.7737 0.0
C2244 C 0.53324 1.01193 0.90597 0.0
C2245 C 0.53995 0.02908 0.94097 0.0
C2246 C 0.54583 0.03065 0.83142 0.0
C2247 C 0.54948 0.04685 0.91928 0.0
C2248 C 0.55782 0.05198 0.75381 0.0
C2249 C 0.54786 1.01386 0.68647 0.0
N2250 N 0.5521 0.04718 0.86612 0.0
N2251 N 0.54464 1.01366 0.73932 0.0
H2252 H 0.21509 0.99837 0.87151 0.0
H2253 H 0.17241 0.06716 0.1068 0.0
H2254 H 0.18551 0.06017 0.84776 0.0
H2255 H 0.19709 0.99844 0.1308 0.0
H2256 H 0.1783 0.06606 1.0126 0.0
H2257 H 0.20996 0.99945 0.96712 0.0
C2258 C 0.20755 1.01222 0.88633 0.0
C2259 C 0.20067 0.02911 0.85128 0.0
C2260 C 0.18243 0.05118 0.03837 0.0
C2261 C 0.19473 0.03042 0.96081 0.0
C2262 C 0.17899 0.05169 0.09234 0.0
C2263 C 0.1841 0.0327 0.12716 0.0
C2264 C 0.19115 0.03162 1.01852 0.0
C2265 C 0.19295 1.01361 0.10581 0.0
C2266 C 0.20458 1.01273 0.94092 0.0
C2267 C 0.19092 0.04648 0.87292 0.0
N2268 N 0.19615 1.01352 0.05296 0.0
N2269 N 0.18827 0.0467 0.92607 0.0
H2270 H 0.52327 0.75273 0.87295 0.0
H2271 H 0.58198 0.76424 0.10048 0.0
H2272 H 0.56699 0.76734 0.84053 0.0
H2273 H 0.53821 0.75028 0.1333 0.0
H2274 H 0.57671 0.765 1.00545 0.0
H2275 H 0.52855 0.75152 0.96801 0.0
C2276 C 0.53399 0.7558 0.88567 0.0
C2277 C 0.54468 0.76028 0.84818 0.0
C2278 C 0.56824 0.76177 0.03337 0.0
C2279 C 0.55083 0.75864 0.95782 0.0
C2280 C 0.57126 0.76118 0.08785 0.0
C2281 C 0.56056 0.75705 0.12545 0.0
C2282 C 0.5544 0.75821 1.01579 0.0
C2283 C 0.54682 0.75378 0.10617 0.0
C2284 C 0.537 0.75497 0.94015 0.0
C2285 C 0.5584 0.76357 0.86755 0.0
N2286 N 0.54416 0.75436 0.05288 0.0
N2287 N 0.56106 0.76276 0.92081 0.0
H2288 H 0.80897 0.80648 0.59365 0.0
H2289 H 0.79366 0.74823 0.88328 0.0
H2290 H 0.77724 0.74895 0.6228 0.0
H2291 H 0.82196 0.81144 0.8528 0.0
H2292 H 0.78767 0.74738 0.78858 0.0
H2293 H 0.81426 0.80728 0.68846 0.0
C2294 C 0.80317 0.79384 0.61992 0.0
C2295 C 0.7927 0.77748 0.59992 0.0
C2296 C 0.79519 0.76142 0.80269 0.0
C2297 C 0.79862 0.77854 0.70936 0.0
C2298 C 0.79858 0.76202 0.85689 0.0
C2299 C 0.80843 0.77985 0.87638 0.0
C2300 C 0.8017 0.77873 0.7675 0.0
C2301 C 0.81454 0.79699 0.83981 0.0
C2302 C 0.80613 0.79445 0.67427 0.0
C2303 C 0.78534 0.76198 0.63635 0.0
N2304 N 0.81111 0.79595 0.78738 0.0
N2305 N 0.78847 0.76282 0.68922 0.0
H2306 H 0.45755 0.49249 0.8906 0.0
H2307 H 0.43381 0.53482 0.59724 0.0
H2308 H 0.41736 0.52639 0.85443 0.0
H2309 H 0.47046 0.48839 0.62832 0.0
H2310 H 0.42888 0.53574 0.69247 0.0
H2311 H 0.46375 0.49498 0.79614 0.0
C2312 C 0.45007 0.50065 0.86292 0.0
C2313 C 0.43686 0.50911 0.8806 0.0
C2314 C 0.43803 0.52541 0.67849 0.0
C2315 C 0.4439 0.5119 0.77219 0.0
C2316 C 0.44083 0.52476 0.62394 0.0
C2317 C 0.45252 0.51131 0.60422 0.0
C2318 C 0.447 0.51263 0.71408 0.0
C2319 C 0.4614 0.49922 0.64135 0.0
C2320 C 0.45359 0.50192 0.80891 0.0
C2321 C 0.42757 0.51928 0.84265 0.0
N2322 N 0.45842 0.50009 0.69432 0.0
N2323 N 0.43125 0.52037 0.79042 0.0
H2324 H 0.81973 0.55018 0.4356 0.0
H2325 H 0.77537 0.48847 0.67465 0.0
H2326 H 0.79002 0.48823 0.41571 0.0
H2327 H 0.80331 0.55316 0.69478 0.0
H2328 H 0.78014 0.48909 0.5794 0.0
H2329 H 0.81365 0.55217 0.53008 0.0
C2330 C 0.81194 0.53698 0.451 0.0
C2331 C 0.80542 0.51897 0.41736 0.0
C2332 C 0.7852 0.50324 0.60457 0.0
C2333 C 0.79832 0.52126 0.52583 0.0
C2334 C 0.78239 0.50304 0.65913 0.0
C2335 C 0.78891 0.52082 0.69326 0.0
C2336 C 0.79467 0.52128 0.58352 0.0
C2337 C 0.79816 0.53883 0.67042 0.0
C2338 C 0.80841 0.53822 0.50498 0.0
C2339 C 0.79523 0.50265 0.4397 0.0
N2340 N 0.80078 0.53854 0.61716 0.0
N2341 N 0.79206 0.50412 0.49238 0.0
H2342 H 0.42343 0.78047 0.7071 0.0
H2343 H 0.4541 0.77392 0.40973 0.0
H2344 H 0.46736 0.7704 0.67138 0.0
H2345 H 0.41007 0.78152 0.44611 0.0
H2346 H 0.45925 0.77361 0.5051 0.0
H2347 H 0.41842 0.78143 0.61178 0.0
C2348 C 0.43203 0.77834 0.67935 0.0
C2349 C 0.44586 0.77532 0.69775 0.0
C2350 C 0.44845 0.77534 0.49223 0.0
C2351 C 0.44016 0.77668 0.58784 0.0
C2352 C 0.4455 0.77566 0.43764 0.0
C2353 C 0.4316 0.77769 0.41947 0.0
C2354 C 0.43745 0.77713 0.52928 0.0
C2355 C 0.42092 0.77952 0.45793 0.0
C2356 C 0.42916 0.77904 0.62476 0.0
C2357 C 0.45656 0.77312 0.65942 0.0
N2358 N 0.42407 0.77922 0.51076 0.0
N2359 N 0.45349 0.7738 0.60652 0.0
H2360 H 0.18639 0.30019 0.16775 0.0
H2361 H 0.18846 0.22433 0.44629 0.0
H2362 H 0.17656 0.21943 0.18412 0.0
H2363 H 0.20099 0.3037 0.42822 0.0
H2364 H 0.18339 0.22253 0.35093 0.0
H2365 H 0.19153 0.30199 0.26298 0.0
C2366 C 0.18539 0.28277 0.19112 0.0
C2367 C 0.18096 0.25962 0.16739 0.0
C2368 C 0.18725 0.24036 0.36781 0.0
C2369 C 0.18669 0.26169 0.2773 0.0
C2370 C 0.19006 0.24145 0.42245 0.0
C2371 C 0.1952 0.26419 0.44567 0.0
C2372 C 0.18951 0.26219 0.3358 0.0
C2373 C 0.19724 0.28562 0.41223 0.0
C2374 C 0.18825 0.28387 0.24573 0.0
C2375 C 0.17968 0.23784 0.20041 0.0
N2376 N 0.19438 0.28409 0.35924 0.0
N2377 N 0.1825 0.23942 0.25341 0.0
H2378 H 0.52655 0.49887 0.42567 0.0
H2379 H 0.57045 0.56637 0.19193 0.0
H2380 H 0.55714 0.55888 0.45065 0.0
H2381 H 0.54443 0.49949 0.16624 0.0
H2382 H 0.56458 0.56503 0.28614 0.0
H2383 H 0.53172 0.50012 0.33009 0.0
C2384 C 0.53432 0.51235 0.41113 0.0
C2385 C 0.54147 0.52869 0.44651 0.0
C2386 C 0.56015 0.5506 0.26 0.0
C2387 C 0.54746 0.53019 0.33704 0.0
C2388 C 0.56358 0.55125 0.20603 0.0
C2389 C 0.55807 0.53285 0.17074 0.0
C2390 C 0.55106 0.5315 0.27937 0.0
C2391 C 0.54888 0.5142 0.19162 0.0
C2392 C 0.53731 0.51296 0.35656 0.0
C2393 C 0.55151 0.54561 0.42523 0.0
N2394 N 0.54569 0.51397 0.24449 0.0
N2395 N 0.55417 0.54593 0.3721 0.0
H2396 H 0.1936 0.49056 0.3453 0.0
H2397 H 0.18878 0.57427 0.61284 0.0
H2398 H 0.20541 0.57061 0.35614 0.0
H2399 H 0.17961 0.49291 0.60734 0.0
H2400 H 0.19471 0.57307 0.51856 0.0
H2401 H 0.18798 0.49091 0.44047 0.0
C2402 C 0.19499 0.50822 0.36759 0.0
C2403 C 0.20006 0.53056 0.34253 0.0
C2404 C 0.19143 0.55543 0.53791 0.0
C2405 C 0.19367 0.53107 0.45167 0.0
C2406 C 0.18812 0.55606 0.59202 0.0
C2407 C 0.18373 0.53363 0.6185 0.0
C2408 C 0.19032 0.53221 0.50955 0.0
C2409 C 0.18279 0.51076 0.58869 0.0
C2410 C 0.19184 0.50837 0.42201 0.0
C2411 C 0.20176 0.5528 0.37372 0.0
N2412 N 0.18606 0.51065 0.53593 0.0
N2413 N 0.19856 0.55249 0.42642 0.0
H2414 H 0.52345 0.24176 0.37229 0.0
H2415 H 0.56814 0.30379 0.60983 0.0
H2416 H 0.55168 0.30594 0.35089 0.0
H2417 H 0.53794 0.24276 0.6314 0.0
H2418 H 0.56194 0.3056 0.51546 0.0
H2419 H 0.52806 0.24297 0.46764 0.0
C2420 C 0.5305 0.25634 0.38755 0.0
C2421 C 0.53718 0.27378 0.35304 0.0
C2422 C 0.55662 0.29191 0.5409 0.0
C2423 C 0.54274 0.2749 0.46286 0.0
C2424 C 0.56021 0.29076 0.59482 0.0
C2425 C 0.5536 0.27304 0.62887 0.0
C2426 C 0.54638 0.27512 0.52054 0.0
C2427 C 0.54323 0.25695 0.60705 0.0
C2428 C 0.53321 0.25688 0.44216 0.0
C2429 C 0.54643 0.29184 0.37555 0.0
N2430 N 0.54001 0.25829 0.5544 0.0
N2431 N 0.54897 0.29187 0.42886 0.0
H2432 H 0.3316 0.439 0.48748 0.0
H2433 H 0.28553 0.34496 0.30121 0.0
H2434 H 0.28658 0.4449 0.48138 0.0
H2435 H 0.33065 0.3486 0.30245 0.0
H2436 H 0.28494 0.37999 0.36798 0.0
H2437 H 0.33077 0.40489 0.42115 0.0
C2438 C 0.32148 0.43314 0.47213 0.0
C2439 C 0.30915 0.44502 0.49036 0.0
C2440 C 0.29496 0.37307 0.3536 0.0
C2441 C 0.30807 0.40524 0.41326 0.0
C2442 C 0.2953 0.35298 0.31561 0.0
C2443 C 0.30818 0.34358 0.2962 0.0
C2444 C 0.30759 0.38387 0.37245 0.0
C2445 C 0.32047 0.35504 0.31603 0.0
C2446 C 0.32101 0.41354 0.43394 0.0
C2447 C 0.29637 0.43645 0.46845 0.0
N2448 N 0.31985 0.37431 0.35275 0.0
N2449 N 0.29615 0.41707 0.43128 0.0
H2450 H 0.90837 0.84856 0.49937 0.0
H2451 H 0.95434 0.93836 0.30419 0.0
H2452 H 0.95346 0.84429 0.49407 0.0
H2453 H 0.90938 0.94188 0.31836 0.0
H2454 H 0.95474 0.9045 0.37302 0.0
H2455 H 0.90897 0.88272 0.43275 0.0
C2456 C 0.91844 0.85478 0.48413 0.0
C2457 C 0.93088 0.84331 0.50243 0.0
C2458 C 0.9448 0.91278 0.36127 0.0
C2459 C 0.93167 0.88293 0.42516 0.0
C2460 C 0.94458 0.9323 0.32224 0.0
C2461 C 0.93182 0.94335 0.30585 0.0
C2462 C 0.93215 0.90404 0.38396 0.0
C2463 C 0.91947 0.93408 0.32966 0.0
C2464 C 0.91878 0.87439 0.44587 0.0
C2465 C 0.94359 0.85232 0.48085 0.0
N2466 N 0.91995 0.91514 0.3672 0.0
N2467 N 0.94367 0.87154 0.44346 0.0
H2468 H 0.33151 0.94237 0.98485 0.0
H2469 H 0.28532 0.84631 0.80352 0.0
H2470 H 0.28638 0.94178 0.99179 0.0
H2471 H 0.33047 0.84857 0.80603 0.0
H2472 H 0.28489 0.88094 0.8709 0.0
H2473 H 0.33079 0.90828 0.91826 0.0
C2474 C 0.3214 0.93512 0.97223 0.0
C2475 C 0.309 0.94527 0.99389 0.0
C2476 C 0.29488 0.87379 0.85678 0.0
C2477 C 0.30804 0.90556 0.91676 0.0
C2478 C 0.29513 0.85391 0.81845 0.0
C2479 C 0.30796 0.8442 0.79933 0.0
C2480 C 0.30755 0.88423 0.87598 0.0
C2481 C 0.32032 0.85525 0.81951 0.0
C2482 C 0.32098 0.91554 0.93397 0.0
C2483 C 0.29622 0.93486 0.97575 0.0
N2484 N 0.31979 0.87446 0.85642 0.0
N2485 N 0.29606 0.91563 0.93834 0.0
H2486 H 0.955 0.44062 0.80572 0.0
H2487 H 0.90872 0.34548 0.98877 0.0
H2488 H 0.90987 0.43729 0.80473 0.0
H2489 H 0.95387 0.34297 0.98804 0.0
H2490 H 0.90939 0.37976 0.92241 0.0
H2491 H 0.95531 0.40605 0.87311 0.0
C2492 C 0.94516 0.43277 0.81983 0.0
C2493 C 0.93238 0.44205 0.79952 0.0
C2494 C 0.9192 0.37179 0.93647 0.0
C2495 C 0.93265 0.40222 0.87648 0.0
C2496 C 0.91882 0.35213 0.9746 0.0
C2497 C 0.93125 0.34114 0.99412 0.0
C2498 C 0.93214 0.38094 0.91729 0.0
C2499 C 0.94401 0.35066 0.97389 0.0
C2500 C 0.94535 0.41292 0.85816 0.0
C2501 C 0.91998 0.43082 0.81897 0.0
N2502 N 0.94413 0.37 0.93676 0.0
N2503 N 0.92044 0.41169 0.85607 0.0
H2504 H 0.66126 0.68656 0.7412 0.0
H2505 H 0.70634 0.59381 0.54859 0.0
H2506 H 0.70632 0.69089 0.73295 0.0
H2507 H 0.66128 0.59354 0.56049 0.0
H2508 H 0.70714 0.6285 0.61584 0.0
H2509 H 0.66159 0.65209 0.67531 0.0
C2510 C 0.67127 0.6803 0.72541 0.0
C2511 C 0.68377 0.69191 0.74261 0.0
C2512 C 0.69709 0.62078 0.60379 0.0
C2513 C 0.68426 0.65186 0.66626 0.0
C2514 C 0.69664 0.60087 0.56555 0.0
C2515 C 0.68372 0.59048 0.54905 0.0
C2516 C 0.68454 0.63049 0.62561 0.0
C2517 C 0.67149 0.60079 0.57187 0.0
C2518 C 0.67145 0.66051 0.68756 0.0
C2519 C 0.6964 0.68281 0.72044 0.0
N2520 N 0.67221 0.62001 0.60868 0.0
N2521 N 0.69633 0.66336 0.68355 0.0
H2522 H 0.03538 0.09085 0.73331 0.0
H2523 H 0.08038 0.19097 0.55682 0.0
H2524 H 0.0803 0.0991 0.73908 0.0
H2525 H 0.03527 0.1889 0.54961 0.0
H2526 H 0.07996 0.15666 0.62289 0.0
H2527 H 0.03448 0.12543 0.66572 0.0
C2528 C 0.04504 0.09976 0.72023 0.0
C2529 C 0.05795 0.09188 0.74201 0.0
C2530 C 0.07009 0.16362 0.60725 0.0
C2531 C 0.057 0.1317 0.66488 0.0
C2532 C 0.07033 0.18333 0.56926 0.0
C2533 C 0.05784 0.19313 0.54766 0.0
C2534 C 0.05725 0.1531 0.62419 0.0
C2535 C 0.04516 0.18223 0.56557 0.0
C2536 C 0.04452 0.11961 0.68179 0.0
C2537 C 0.07009 0.10443 0.72377 0.0
N2538 N 0.04518 0.16282 0.60267 0.0
N2539 N 0.06931 0.1235 0.68665 0.0
H2540 H 0.70465 0.0924 0.05389 0.0
H2541 H 0.65921 0.18718 0.24042 0.0
H2542 H 0.65958 0.09792 0.05273 0.0
H2543 H 0.70434 0.1903 0.23759 0.0
H2544 H 0.65975 0.15349 0.17312 0.0
H2545 H 0.70541 0.12664 0.12214 0.0
C2546 C 0.69493 0.10067 0.0681 0.0
C2547 C 0.68202 0.09211 0.04746 0.0
C2548 C 0.66959 0.16146 0.18685 0.0
C2549 C 0.68281 0.1315 0.1254 0.0
C2550 C 0.66929 0.1808 0.22556 0.0
C2551 C 0.68174 0.19178 0.24491 0.0
C2552 C 0.68248 0.15254 0.16681 0.0
C2553 C 0.69447 0.18259 0.22368 0.0
C2554 C 0.69537 0.12032 0.10691 0.0
C2555 C 0.66979 0.10381 0.06714 0.0
N2556 N 0.69452 0.16348 0.18596 0.0
N2557 N 0.67049 0.12269 0.10468 0.0
H2558 H 0.03558 0.69072 0.05636 0.0
H2559 H 0.08145 0.59285 0.23484 0.0
H2560 H 0.08072 0.68904 0.0618 0.0
H2561 H 0.03634 0.5942 0.24303 0.0
H2562 H 0.08079 0.62758 0.16968 0.0
H2563 H 0.03499 0.65556 0.12264 0.0
C2564 C 0.04536 0.68318 0.07178 0.0
C2565 C 0.05823 0.69319 0.05377 0.0
C2566 C 0.07097 0.62036 0.18534 0.0
C2567 C 0.05764 0.6525 0.129 0.0
C2568 C 0.07135 0.6004 0.22277 0.0
C2569 C 0.05893 0.59026 0.24437 0.0
C2570 C 0.05806 0.63074 0.16886 0.0
C2571 C 0.04618 0.60107 0.22696 0.0
C2572 C 0.04501 0.66298 0.10943 0.0
C2573 C 0.07053 0.68214 0.07442 0.0
N2574 N 0.04606 0.62066 0.19031 0.0
N2575 N 0.06992 0.6626 0.11058 0.0
H2576 H 0.78438 0.44599 0.99062 0.0
H2577 H 0.82991 0.34641 0.81445 0.0
H2578 H 0.82941 0.43965 0.99371 0.0
H2579 H 0.78481 0.34806 0.8062 0.0
H2580 H 0.82929 0.3807 0.88054 0.0
H2581 H 0.78362 0.41092 0.92401 0.0
C2582 C 0.79409 0.43737 0.97721 0.0
C2583 C 0.80699 0.44605 0.99776 0.0
C2584 C 0.81947 0.37364 0.86469 0.0
C2585 C 0.80621 0.40562 0.9218 0.0
C2586 C 0.81982 0.35393 0.82669 0.0
C2587 C 0.8074 0.34401 0.80472 0.0
C2588 C 0.80657 0.38406 0.88135 0.0
C2589 C 0.79466 0.35479 0.82244 0.0
C2590 C 0.79365 0.41726 0.93928 0.0
C2591 C 0.81921 0.4338 0.97922 0.0
N2592 N 0.79456 0.3742 0.85955 0.0
N2593 N 0.8185 0.41447 0.94265 0.0
H2594 H 0.45567 0.93665 0.80221 0.0
H2595 H 0.40969 0.84288 0.98976 0.0
H2596 H 0.41053 0.93466 0.80635 0.0
H2597 H 0.45478 0.83852 0.985 0.0
H2598 H 0.41036 0.87719 0.92358 0.0
H2599 H 0.45619 0.90192 0.86948 0.0
C2600 C 0.44588 0.92907 0.81741 0.0
C2601 C 0.43303 0.93885 0.79868 0.0
C2602 C 0.42016 0.86882 0.93668 0.0
C2603 C 0.43353 0.89881 0.87545 0.0
C2604 C 0.41978 0.84912 0.97475 0.0
C2605 C 0.43218 0.83758 0.99316 0.0
C2606 C 0.43307 0.87749 0.91633 0.0
C2607 C 0.44493 0.84664 0.97179 0.0
C2608 C 0.44618 0.90914 0.85569 0.0
C2609 C 0.4207 0.9279 0.81943 0.0
N2610 N 0.44505 0.86603 0.93469 0.0
N2611 N 0.42127 0.90871 0.8564 0.0
H2612 H 0.78577 0.8474 0.30371 0.0
H2613 H 0.83176 0.94343 0.48609 0.0
H2614 H 0.8309 0.84868 0.30943 0.0
H2615 H 0.78661 0.94401 0.49 0.0
H2616 H 0.83109 0.90885 0.42059 0.0
H2617 H 0.78524 0.88225 0.37065 0.0
C2618 C 0.79556 0.85479 0.31931 0.0
C2619 C 0.80841 0.84476 0.30114 0.0
C2620 C 0.82127 0.91646 0.43541 0.0
C2621 C 0.80789 0.88509 0.37727 0.0
C2622 C 0.82165 0.93633 0.47305 0.0
C2623 C 0.80923 0.94697 0.49356 0.0
C2624 C 0.80834 0.90666 0.4176 0.0
C2625 C 0.79646 0.93671 0.4749 0.0
C2626 C 0.79525 0.87482 0.35736 0.0
C2627 C 0.82073 0.85561 0.32212 0.0
N2628 N 0.79634 0.9172 0.43807 0.0
N2629 N 0.82016 0.87496 0.35872 0.0
H2630 H 0.41169 0.34059 0.48917 0.0
H2631 H 0.45749 0.43502 0.30272 0.0
H2632 H 0.45684 0.33789 0.48778 0.0
H2633 H 0.41237 0.43383 0.30902 0.0
H2634 H 0.45807 0.40007 0.36941 0.0
H2635 H 0.4123 0.3748 0.42292 0.0
C2636 C 0.42179 0.34716 0.47485 0.0
C2637 C 0.43422 0.33606 0.49419 0.0
C2638 C 0.44805 0.4075 0.35623 0.0
C2639 C 0.43503 0.37595 0.41726 0.0
C2640 C 0.44772 0.42753 0.31824 0.0
C2641 C 0.43485 0.43766 0.30039 0.0
C2642 C 0.43543 0.39734 0.3765 0.0
C2643 C 0.42254 0.42682 0.32147 0.0
C2644 C 0.42213 0.36682 0.43674 0.0
C2645 C 0.44697 0.34563 0.47379 0.0
N2646 N 0.42314 0.40748 0.35813 0.0
N2647 N 0.44705 0.36497 0.43656 0.0
H2648 H 0.15987 0.60365 0.04823 0.0
H2649 H 0.20645 0.69526 0.23788 0.0
H2650 H 0.20502 0.60162 0.04584 0.0
H2651 H 0.16135 0.6967 0.22904 0.0
H2652 H 0.20673 0.6614 0.16884 0.0
H2653 H 0.16073 0.63764 0.11508 0.0
C2654 C 0.17002 0.61031 0.06186 0.0
C2655 C 0.18238 0.59941 0.04149 0.0
C2656 C 0.19678 0.66922 0.18188 0.0
C2657 C 0.18348 0.63896 0.11903 0.0
C2658 C 0.19662 0.68867 0.22113 0.0
C2659 C 0.18386 0.69918 0.23904 0.0
C2660 C 0.18407 0.65998 0.16052 0.0
C2661 C 0.17146 0.68936 0.21659 0.0
C2662 C 0.1705 0.62983 0.10028 0.0
C2663 C 0.1952 0.60913 0.06085 0.0
N2664 N 0.17189 0.67052 0.17885 0.0
N2665 N 0.19543 0.62825 0.0985 0.0
H2666 H 0.53339 0.09949 0.23961 0.0
H2667 H 0.57905 0.19333 0.05137 0.0
H2668 H 0.57849 0.10021 0.23069 0.0
H2669 H 0.53394 0.19732 0.05511 0.0
H2670 H 0.5784 0.15884 0.11684 0.0
H2671 H 0.53266 0.13429 0.17246 0.0
C2672 C 0.54312 0.10675 0.22326 0.0
C2673 C 0.55603 0.0966 0.24061 0.0
C2674 C 0.56858 0.16715 0.10371 0.0
C2675 C 0.55529 0.13679 0.16422 0.0
C2676 C 0.56895 0.18698 0.06604 0.0
C2677 C 0.55655 0.19853 0.0476 0.0
C2678 C 0.55567 0.15828 0.12369 0.0
C2679 C 0.54379 0.18922 0.06842 0.0
C2680 C 0.5427 0.12675 0.18512 0.0
C2681 C 0.56828 0.10724 0.21867 0.0
N2682 N 0.54368 0.16969 0.10527 0.0
N2683 N 0.5676 0.12652 0.18195 0.0
H2684 H 0.16141 0.09785 0.56194 0.0
H2685 H 0.20653 0.19972 0.7337 0.0
H2686 H 0.20649 0.10022 0.55272 0.0
H2687 H 0.16159 0.19177 0.73917 0.0
H2688 H 0.20744 0.16442 0.66765 0.0
H2689 H 0.16193 0.13266 0.6268 0.0
C2690 C 0.17148 0.10564 0.57372 0.0
C2691 C 0.18392 0.09578 0.55185 0.0
C2692 C 0.1974 0.17046 0.68333 0.0
C2693 C 0.18463 0.13644 0.62702 0.0
C2694 C 0.19687 0.19073 0.72089 0.0
C2695 C 0.18395 0.19893 0.74213 0.0
C2696 C 0.18492 0.15826 0.6668 0.0
C2697 C 0.17181 0.18623 0.72427 0.0
C2698 C 0.17177 0.12565 0.611 0.0
C2699 C 0.19663 0.10691 0.56892 0.0
N2700 N 0.1726 0.16677 0.68805 0.0
N2701 N 0.19667 0.12662 0.60535 0.0
H2702 H 0.53503 0.59949 0.74524 0.0
H2703 H 0.58093 0.69236 0.55583 0.0
H2704 H 0.58013 0.59964 0.7361 0.0
H2705 H 0.53589 0.69791 0.56232 0.0
H2706 H 0.58019 0.65801 0.62163 0.0
H2707 H 0.53442 0.63449 0.67853 0.0
C2708 C 0.54478 0.60668 0.72896 0.0
C2709 C 0.55766 0.59631 0.7461 0.0
C2710 C 0.57041 0.66663 0.60903 0.0
C2711 C 0.55705 0.6367 0.67019 0.0
C2712 C 0.57082 0.68637 0.57117 0.0
C2713 C 0.55846 0.69823 0.55323 0.0
C2714 C 0.5575 0.65821 0.62974 0.0
C2715 C 0.5457 0.68951 0.5751 0.0
C2716 C 0.54443 0.62679 0.69107 0.0
C2717 C 0.56995 0.60685 0.72422 0.0
N2718 N 0.54554 0.67002 0.61203 0.0
N2719 N 0.56933 0.62622 0.68772 0.0
H2720 H 0.30808 0.22079 0.13484 0.0
H2721 H 0.30649 0.06594 0.16273 0.0
H2722 H 0.29978 0.18139 0.28239 0.0
H2723 H 0.30047 0.10585 1.01422 0.0
H2724 H 0.30903 0.10792 0.20768 0.0
H2725 H 0.31027 0.17865 0.09029 0.0
C2726 C 0.30697 0.20331 0.15799 0.0
C2727 C 0.30372 0.2046 0.21235 0.0
C2728 C 0.30733 0.10744 0.16511 0.0
C2729 C 0.30623 0.15636 0.1619 0.0
C2730 C 0.306 0.08347 0.13946 0.0
C2731 C 0.30328 0.0824 0.08467 0.0
C2732 C 0.30614 0.13045 0.1356 0.0
C2733 C 0.30252 0.10579 0.05657 0.0
C2734 C 0.30813 0.17926 0.13257 0.0
C2735 C 0.30224 0.18129 0.24034 0.0
N2736 N 0.30392 0.12875 0.08221 0.0
N2737 N 0.30349 0.15824 0.21494 0.0
H2738 H 0.92135 0.20449 0.10132 0.0
H2739 H 0.96635 0.08133 0.1937 0.0
H2740 H 0.96647 0.2001 0.10559 0.0
H2741 H 0.92122 0.07944 0.19162 0.0
H2742 H 0.96586 0.1243 0.15541 0.0
H2743 H 0.92024 0.15917 0.13168 0.0
C2744 C 0.93099 0.19411 0.10901 0.0
C2745 C 0.94403 0.20613 0.10083 0.0
C2746 C 0.95599 0.11459 0.16253 0.0
C2747 C 0.94285 0.15437 0.13473 0.0
C2748 C 0.95629 0.08986 0.18401 0.0
C2749 C 0.94383 0.07669 0.1953 0.0
C2750 C 0.94309 0.12683 0.15293 0.0
C2751 C 0.93108 0.08881 0.1826 0.0
C2752 C 0.93035 0.16822 0.12594 0.0
C2753 C 0.95617 0.19171 0.11111 0.0
N2754 N 0.93102 0.11338 0.16259 0.0
N2755 N 0.95527 0.16681 0.12728 0.0
H2756 H 0.70859 0.93961 0.98634 0.0
H2757 H 0.67708 0.8472 0.76558 0.0
H2758 H 0.67421 0.96463 0.88774 0.0
H2759 H 0.697 0.81853 0.90758 0.0
H2760 H 0.67675 0.89059 0.80462 0.0
H2761 H 0.70566 0.8959 0.9529 0.0
C2762 C 0.70039 0.93594 0.95753 0.0
C2763 C 0.69163 0.95596 0.93984 0.0
C2764 C 0.68104 0.87477 0.82747 0.0
C2765 C 0.68834 0.9055 0.90059 0.0
C2766 C 0.68125 0.84999 0.80523 0.0
C2767 C 0.68711 0.82918 0.8333 0.0
C2768 C 0.68701 0.87896 0.8778 0.0
C2769 C 0.69237 0.83395 0.88451 0.0
C2770 C 0.69869 0.91084 0.93865 0.0
C2771 C 0.68116 0.94982 0.90261 0.0
N2772 N 0.69237 0.85833 0.90473 0.0
N2773 N 0.67991 0.92519 0.88371 0.0
H2774 H 0.03879 0.93614 0.78909 0.0
H2775 H 0.05616 0.85199 0.04038 0.0
H2776 H 0.06354 0.96725 0.9172 0.0
H2777 H 0.05157 0.81714 0.88593 0.0
H2778 H 0.05822 0.89435 0.99812 0.0
H2779 H 0.0423 0.8928 0.82503 0.0
C2780 C 0.04506 0.93383 0.82471 0.0
C2781 C 0.05088 0.9554 0.85022 0.0
C2782 C 0.05702 0.87744 0.97331 0.0
C2783 C 0.05474 0.90563 0.89221 0.0
C2784 C 0.05586 0.85323 0.99737 0.0
C2785 C 0.05379 0.83099 0.96658 0.0
C2786 C 0.05564 0.87968 0.91795 0.0
C2787 C 0.05333 0.83375 0.91108 0.0
C2788 C 0.04711 0.90902 0.84501 0.0
C2789 C 0.05893 0.95117 0.89614 0.0
N2790 N 0.05397 0.85771 0.88858 0.0
N2791 N 0.06043 0.92684 0.91617 0.0
H2792 H 0.30434 0.68563 0.78903 0.0
H2793 H 0.29049 0.60055 0.53531 0.0
H2794 H 0.30159 0.71993 0.63339 0.0
H2795 H 0.31276 0.56978 0.67014 0.0
H2796 H 0.29352 0.64404 0.5711 0.0
H2797 H 0.30681 0.64312 0.7479 0.0
C2798 C 0.30451 0.68424 0.74604 0.0
C2799 C 0.30285 0.70639 0.71458 0.0
C2800 C 0.29791 0.62787 0.59262 0.0
C2801 C 0.30521 0.65749 0.66709 0.0
C2802 C 0.29613 0.60298 0.57235 0.0
C2803 C 0.30139 0.58145 0.59978 0.0
C2804 C 0.30467 0.63141 0.64163 0.0
C2805 C 0.30862 0.58582 0.64755 0.0
C2806 C 0.30591 0.65993 0.72261 0.0
C2807 C 0.30301 0.7034 0.65909 0.0
N2808 N 0.30985 0.61024 0.6674 0.0
N2809 N 0.3039 0.67935 0.63712 0.0
H2810 H 0.92135 0.70577 0.60883 0.0
H2811 H 0.96771 0.58114 0.68092 0.0
H2812 H 0.96648 0.7034 0.61678 0.0
H2813 H 0.92269 0.57992 0.69571 0.0
H2814 H 0.96658 0.62568 0.6519 0.0
H2815 H 0.92068 0.66024 0.63803 0.0
C2816 C 0.93107 0.69581 0.61723 0.0
C2817 C 0.944 0.7084 0.61009 0.0
C2818 C 0.95687 0.61586 0.66128 0.0
C2819 C 0.94333 0.65642 0.64263 0.0
C2820 C 0.95752 0.59025 0.67771 0.0
C2821 C 0.9453 0.57674 0.6911 0.0
C2822 C 0.94387 0.6285 0.65801 0.0
C2823 C 0.93238 0.58962 0.68572 0.0
C2824 C 0.93069 0.66981 0.63358 0.0
C2825 C 0.95627 0.69452 0.62132 0.0
N2826 N 0.932 0.61487 0.66983 0.0
N2827 N 0.95562 0.66947 0.63663 0.0
H2828 H 0.68573 0.43144 0.54176 0.0
H2829 H 0.70339 0.34618 0.29299 0.0
H2830 H 0.68937 0.46566 0.38629 0.0
H2831 H 0.67796 0.31574 0.41996 0.0
H2832 H 0.69989 0.38968 0.32823 0.0
H2833 H 0.68397 0.3888 0.50052 0.0
C2834 C 0.6859 0.42998 0.49877 0.0
C2835 C 0.68759 0.45212 0.46736 0.0
C2836 C 0.69494 0.37355 0.34811 0.0
C2837 C 0.6861 0.40318 0.41992 0.0
C2838 C 0.697 0.34867 0.32825 0.0
C2839 C 0.69096 0.32725 0.35364 0.0
C2840 C 0.6871 0.37715 0.39474 0.0
C2841 C 0.68275 0.33169 0.39904 0.0
C2842 C 0.6849 0.40562 0.47531 0.0
C2843 C 0.68791 0.44911 0.4119 0.0
N2844 N 0.68125 0.35609 0.41867 0.0
N2845 N 0.68745 0.42503 0.38996 0.0
H2846 H 0.04895 0.35325 0.53287 0.0
H2847 H 0.0505 0.42977 0.25923 0.0
H2848 H 0.05544 0.31533 0.38249 0.0
H2849 H 0.05609 0.4676 0.41021 0.0
H2850 H 0.05276 0.38799 0.3032 0.0
H2851 H 0.05197 0.39498 0.48929 0.0
C2852 C 0.0512 0.3537 0.49064 0.0
C2853 C 0.05199 0.3307 0.46132 0.0
C2854 C 0.0537 0.40535 0.32678 0.0
C2855 C 0.0552 0.37876 0.41068 0.0
C2856 C 0.05241 0.42928 0.3017 0.0
C2857 C 0.05316 0.45227 0.33103 0.0
C2858 C 0.05547 0.40415 0.38214 0.0
C2859 C 0.05559 0.45041 0.38596 0.0
C2860 C 0.05294 0.3776 0.46579 0.0
C2861 C 0.05489 0.33252 0.40672 0.0
N2862 N 0.05646 0.42677 0.40983 0.0
N2863 N 0.0562 0.35613 0.38306 0.0
H2864 H 0.79974 0.10787 0.50979 0.0
H2865 H 0.79942 0.18353 0.7844 0.0
H2866 H 0.80655 0.06968 0.65971 0.0
H2867 H 0.80528 0.22212 0.63434 0.0
H2868 H 0.80229 0.14199 0.73997 0.0
H2869 H 0.80202 0.14957 0.5541 0.0
C2870 C 0.8019 0.10826 0.55209 0.0
C2871 C 0.80299 0.08518 0.58102 0.0
C2872 C 0.80315 0.15947 0.71669 0.0
C2873 C 0.80534 0.13322 0.63254 0.0
C2874 C 0.8015 0.18327 0.74204 0.0
C2875 C 0.80215 0.20641 0.71311 0.0
C2876 C 0.80517 0.15854 0.66144 0.0
C2877 C 0.80483 0.20482 0.6583 0.0
C2878 C 0.80321 0.13215 0.57736 0.0
C2879 C 0.80576 0.08694 0.63574 0.0
N2880 N 0.80605 0.1813 0.63415 0.0
N2881 N 0.80664 0.11052 0.65982 0.0
H2882 H 0.44321 0.17451 0.50594 0.0
H2883 H 0.44174 0.09963 0.78116 0.0
H2884 H 0.43504 0.21312 0.65441 0.0
H2885 H 0.43568 0.06073 0.6316 0.0
H2886 H 0.43937 0.14111 0.73595 0.0
H2887 H 0.44059 0.13291 0.55065 0.0
C2888 C 0.4407 0.17422 0.54797 0.0
C2889 C 0.43931 0.19736 0.57645 0.0
C2890 C 0.43836 0.12358 0.71297 0.0
C2891 C 0.43656 0.14954 0.62836 0.0
C2892 C 0.43972 0.09983 0.73876 0.0
C2893 C 0.43886 0.07663 0.71016 0.0
C2894 C 0.43644 0.12436 0.65765 0.0
C2895 C 0.43628 0.07811 0.65527 0.0
C2896 C 0.43919 0.15041 0.57346 0.0
C2897 C 0.4361 0.19578 0.63084 0.0
N2898 N 0.43537 0.10156 0.63069 0.0
N2899 N 0.43502 0.1723 0.65516 0.0
H2900 H 0.18637 0.97449 0.38349 0.0
H2901 H 0.18684 0.81948 0.41145 0.0
H2902 H 0.19361 0.93485 0.53152 0.0
H2903 H 0.19266 0.85935 0.26278 0.0
H2904 H 0.18453 0.8615 0.45651 0.0
H2905 H 0.18389 0.93242 0.33888 0.0
C2906 C 0.18715 0.957 0.40676 0.0
C2907 C 0.19018 0.95821 0.46131 0.0
C2908 C 0.18614 0.86101 0.41389 0.0
C2909 C 0.18741 0.90998 0.41069 0.0
C2910 C 0.18733 0.837 0.38817 0.0
C2911 C 0.18992 0.83589 0.33328 0.0
C2912 C 0.18736 0.88403 0.38438 0.0
C2913 C 0.1907 0.85929 0.30521 0.0
C2914 C 0.18585 0.93297 0.38129 0.0
C2915 C 0.19131 0.93484 0.48935 0.0
N2916 N 0.18945 0.88228 0.33091 0.0
N2917 N 0.18995 0.91181 0.46388 0.0
H2918 H 0.53713 0.85361 0.50676 0.0
H2919 H 0.5548 0.93809 0.25609 0.0
H2920 H 0.56292 0.82328 0.38081 0.0
H2921 H 0.54949 0.97302 0.41012 0.0
H2922 H 0.55697 0.89582 0.29868 0.0
H2923 H 0.5403 0.89702 0.47062 0.0
C2924 C 0.54355 0.8561 0.47158 0.0
C2925 C 0.54979 0.8347 0.44678 0.0
C2926 C 0.55559 0.91273 0.32334 0.0
C2927 C 0.55325 0.88456 0.40452 0.0
C2928 C 0.55437 0.93689 0.29908 0.0
C2929 C 0.55209 0.95914 0.32965 0.0
C2930 C 0.55404 0.91052 0.37865 0.0
C2931 C 0.55144 0.95642 0.38514 0.0
C2932 C 0.54541 0.88095 0.45116 0.0
C2933 C 0.55801 0.83918 0.40138 0.0
N2934 N 0.55213 0.93249 0.4078 0.0
N2935 N 0.55931 0.86354 0.3812 0.0
H2936 H 0.80074 0.68406 0.28191 0.0
H2937 H 0.79952 0.60837 1.00728 0.0
H2938 H 0.8057 0.72271 0.13146 0.0
H2939 H 0.80743 0.5703 0.15657 0.0
H2940 H 0.80192 0.65012 0.0514 0.0
H2941 H 0.80338 0.64254 0.23718 0.0
C2942 C 0.80259 0.68381 0.23939 0.0
C2943 C 0.80306 0.70696 0.21045 0.0
C2944 C 0.80332 0.63271 0.07454 0.0
C2945 C 0.80578 0.65912 0.15845 0.0
C2946 C 0.80194 0.6088 0.04938 0.0
C2947 C 0.8033 0.58574 0.07822 0.0
C2948 C 0.80581 0.63381 0.12951 0.0
C2949 C 0.80639 0.58755 0.13269 0.0
C2950 C 0.80409 0.66003 0.21386 0.0
C2951 C 0.80541 0.7054 0.15542 0.0
N2952 N 0.80735 0.61114 0.15667 0.0
N2953 N 0.80649 0.68189 0.13112 0.0
H2954 H 0.42707 0.56772 0.16484 0.0
H2955 H 0.46585 0.70356 0.134 0.0
H2956 H 0.46135 0.59347 0.26312 0.0
H2957 H 0.42269 0.69601 0.08609 0.0
H2958 H 0.465 0.66041 0.17204 0.0
H2959 H 0.42574 0.6116 0.12572 0.0
C2960 C 0.43432 0.58245 0.178 0.0
C2961 C 0.44437 0.57683 0.21727 0.0
C2962 C 0.45563 0.6681 0.15359 0.0
C2963 C 0.44297 0.62671 0.17281 0.0
C2964 C 0.45612 0.69283 0.13191 0.0
C2965 C 0.44431 0.70352 0.10722 0.0
C2966 C 0.44329 0.65339 0.14994 0.0
C2967 C 0.43199 0.68859 0.10538 0.0
C2968 C 0.4335 0.60749 0.15599 0.0
C2969 C 0.45342 0.59675 0.23307 0.0
N2970 N 0.43182 0.66414 0.12602 0.0
N2971 N 0.45256 0.62049 0.21073 0.0
H2972 H 0.20164 0.35614 0.78078 0.0
H2973 H 0.18577 0.44081 0.03283 0.0
H2974 H 0.17809 0.32497 0.91211 0.0
H2975 H 0.18891 0.4752 0.87738 0.0
H2976 H 0.18369 0.39825 0.99147 0.0
H2977 H 0.19818 0.39954 0.81651 0.0
C2978 C 0.19563 0.35847 0.81703 0.0
C2979 C 0.19012 0.33687 0.84349 0.0
C2980 C 0.18458 0.4151 0.96628 0.0
C2981 C 0.18635 0.38669 0.8853 0.0
C2982 C 0.18576 0.43942 0.98983 0.0
C2983 C 0.18742 0.4616 0.95847 0.0
C2984 C 0.18552 0.4127 0.9108 0.0
C2985 C 0.18748 0.45864 0.90298 0.0
C2986 C 0.19361 0.3833 0.83725 0.0
C2987 C 0.18242 0.34109 0.89028 0.0
N2988 N 0.18682 0.4346 0.88094 0.0
N2989 N 0.18096 0.36545 0.91019 0.0
H2990 H 0.54798 0.36044 0.03966 0.0
H2991 H 0.55027 0.43573 0.76474 0.0
H2992 H 0.55656 0.32224 0.89108 0.0
H2993 H 0.55487 0.47459 0.91509 0.0
H2994 H 0.55273 0.39427 0.8099 0.0
H2995 H 0.55057 0.40216 0.99542 0.0
C2996 C 0.55058 0.36084 0.99771 0.0
C2997 C 0.55208 0.33777 0.96906 0.0
C2998 C 0.55341 0.4118 0.8331 0.0
C2999 C 0.55482 0.38574 0.91768 0.0
C3000 C 0.55201 0.43554 0.80733 0.0
C3001 C 0.55243 0.45871 0.83614 0.0
C3002 C 0.55494 0.41098 0.88858 0.0
C3003 C 0.55464 0.45724 0.89126 0.0
C3004 C 0.55207 0.38472 0.97249 0.0
C3005 C 0.55541 0.33951 0.91479 0.0
N3006 N 0.55561 0.43377 0.91578 0.0
N3007 N 0.55648 0.36305 0.89074 0.0
loop_
_geom_bond_atom_site_label_1
_geom_bond_atom_site_label_2
_geom_bond_distance
_geom_bond_site_symmetry_2
_ccdc_geom_bond_type
La0 C2 2.928 . S
La0 O20 2.521 . S
La0 O21 2.628 . S
La0 O22 2.554 . S
La0 O23 2.757 . S
La0 O24 2.470 . S
La0 O29 2.482 . S
La0 O31 2.503 . S
La1 C11 2.928 . S
La1 O23 2.482 . S
La1 O25 2.503 . S
La1 O26 2.521 . S
La1 O27 2.628 . S
La1 O28 2.554 . S
La1 O29 2.757 . S
La1 O30 2.470 . S
C2 La0 2.928 . S
C2 C3 1.503 1_554 S
C2 O20 1.261 . S
C2 O21 1.243 . S
C3 C2 1.503 1_556 S
C3 C4 1.394 . S
C3 C8 1.373 . S
C4 C3 1.394 . S
C4 C5 1.380 . S
C4 H32 0.930 . S
C5 C4 1.380 . S
C5 C6 1.376 . S
C5 H33 0.930 . S
C6 C5 1.376 . S
C6 C7 1.370 . S
C7 C6 1.370 . S
C7 C8 1.396 . S
C7 H34 0.929 . S
C8 C3 1.373 . S
C8 C7 1.396 . S
C8 H35 0.929 . S
C9 O22 1.240 . S
C9 O23 1.289 . S
C10 O24 1.258 . S
C10 O25 1.256 . S
C11 La1 2.928 . S
C11 C12 1.503 . S
C11 O26 1.261 . S
C11 O27 1.243 . S
C12 C11 1.503 . S
C12 C13 1.394 . S
C12 C17 1.373 . S
C13 C12 1.394 . S
C13 C14 1.380 . S
C13 H36 0.930 . S
C14 C13 1.380 . S
C14 C15 1.376 . S
C14 H37 0.930 . S
C15 C14 1.376 . S
C15 C16 1.370 . S
C16 C15 1.370 . S
C16 C17 1.396 . S
C16 H38 0.929 . S
C17 C12 1.373 . S
C17 C16 1.396 . S
C17 H39 0.929 . S
C18 O28 1.240 . S
C18 O29 1.289 . S
C19 O30 1.258 . S
C19 O31 1.256 . S
O20 La0 2.521 . S
O20 C2 1.261 . S
O21 La0 2.628 . S
O21 C2 1.243 . S
O22 La0 2.554 . S
O22 C9 1.240 . S
O23 La0 2.757 . S
O23 La1 2.482 . S
O23 C9 1.289 . S
O24 La0 2.470 . S
O24 C10 1.258 . S
O25 La1 2.503 . S
O25 C10 1.256 . S
O26 La1 2.521 . S
O26 C11 1.261 . S
O27 La1 2.628 . S
O27 C11 1.243 . S
O28 La1 2.554 . S
O28 C18 1.240 . S
O29 La0 2.482 . S
O29 La1 2.757 . S
O29 C18 1.289 . S
O30 La1 2.470 . S
O30 C19 1.258 . S
O31 La0 2.503 . S
O31 C19 1.256 . S
H32 C4 0.930 . S
H33 C5 0.930 . S
H34 C7 0.929 . S
H35 C8 0.929 . S
H36 C13 0.930 . S
H37 C14 0.930 . S
H38 C16 0.929 . S
H39 C17 0.929 . S
La40 C42 2.928 . S
La40 O60 2.521 . S
La40 O61 2.628 1_565 S
La40 O62 2.554 . S
La40 O63 2.757 . S
La40 O64 2.470 . S
La40 O69 2.482 1_565 S
La40 O71 2.503 . S
La41 C51 2.928 . S
La41 O63 2.482 1_545 S
La41 O65 2.503 . S
La41 O66 2.521 . S
La41 O67 2.628 1_545 S
La41 O68 2.554 . S
La41 O69 2.757 . S
La41 O70 2.470 . S
C42 La40 2.928 . S
C42 C43 1.503 1_554 S
C42 O60 1.261 . S
C42 O61 1.243 1_565 S
C43 C42 1.503 1_556 S
C43 C44 1.394 . S
C43 C48 1.394 . S
C44 C43 1.394 . S
C44 C45 1.380 . S
C44 H72 0.930 . S
C45 C44 1.380 . S
C45 C46 1.376 . S
C45 H73 0.930 . S
C46 C45 1.376 . S
C46 C47 1.370 . S
C47 C46 1.370 . S
C47 C48 1.399 . S
C47 H74 0.929 1_565 S
C48 C43 1.394 . S
C48 C47 1.399 . S
C48 H75 0.905 1_565 S
C49 O62 1.240 . S
C49 O63 1.289 . S
C50 O64 1.258 . S
C50 O65 1.256 1_565 S
C51 La41 2.928 . S
C51 C52 1.503 . S
C51 O66 1.261 . S
C51 O67 1.243 1_545 S
C52 C51 1.503 . S
C52 C53 1.394 . S
C52 C57 1.386 . S
C53 C52 1.394 . S
C53 C54 1.380 . S
C53 H76 0.930 . S
C54 C53 1.380 . S
C54 C55 1.376 . S
C54 H77 0.930 . S
C55 C54 1.376 . S
C55 C56 1.370 . S
C56 C55 1.370 . S
C56 C57 1.398 . S
C56 H78 0.929 1_545 S
C57 C52 1.386 . S
C57 C56 1.398 . S
C57 H79 0.915 1_545 S
C58 O68 1.240 . S
C58 O69 1.289 . S
C59 O70 1.258 . S
C59 O71 1.256 1_545 S
O60 La40 2.521 . S
O60 C42 1.261 . S
O61 La40 2.628 1_545 S
O61 C42 1.243 1_545 S
O62 La40 2.554 . S
O62 C49 1.240 . S
O63 La40 2.757 . S
O63 La41 2.482 1_565 S
O63 C49 1.289 . S
O64 La40 2.470 . S
O64 C50 1.258 . S
O65 La41 2.503 . S
O65 C50 1.256 1_545 S
O66 La41 2.521 . S
O66 C51 1.261 . S
O67 La41 2.628 1_565 S
O67 C51 1.243 1_565 S
O68 La41 2.554 . S
O68 C58 1.240 . S
O69 La40 2.482 1_545 S
O69 La41 2.757 . S
O69 C58 1.289 . S
O70 La41 2.470 . S
O70 C59 1.258 . S
O71 La40 2.503 . S
O71 C59 1.256 1_565 S
H72 C44 0.930 . S
H73 C45 0.930 . S
H74 C47 0.929 1_545 S
H75 C48 0.905 1_545 S
H76 C53 0.930 . S
H77 C54 0.930 . S
H78 C56 0.929 1_565 S
H79 C57 0.915 1_565 S
La80 C82 2.928 . S
La80 O100 2.521 . S
La80 O101 2.628 1_565 S
La80 O102 2.554 . S
La80 O103 2.748 1_554 S
La80 O104 2.470 . S
La80 O109 2.482 1_565 S
La80 O111 2.503 . S
La81 C91 2.928 . S
La81 O103 2.485 1_545 S
La81 O105 2.503 1_556 S
La81 O106 2.521 . S
La81 O107 2.628 1_545 S
La81 O108 2.554 1_556 S
La81 O109 2.757 1_556 S
La81 O110 2.470 . S
C82 La80 2.928 . S
C82 C83 1.503 . S
C82 O100 1.261 . S
C82 O101 1.243 1_565 S
C83 C82 1.503 . S
C83 C84 1.394 . S
C83 C88 1.394 . S
C84 C83 1.394 . S
C84 C85 1.380 . S
C84 H112 0.930 . S
C85 C84 1.380 . S
C85 C86 1.376 . S
C85 H113 0.930 . S
C86 C85 1.376 . S
C86 C87 1.370 . S
C87 C86 1.370 . S
C87 C88 1.399 . S
C87 H114 0.929 1_565 S
C88 C83 1.394 . S
C88 C87 1.399 . S
C88 H115 0.905 1_565 S
C89 O102 1.240 . S
C89 O103 1.286 1_554 S
C90 O104 1.258 . S
C90 O105 1.256 1_565 S
C91 La81 2.928 . S
C91 C92 1.503 . S
C91 O106 1.261 . S
C91 O107 1.243 1_545 S
C92 C91 1.503 . S
C92 C93 1.394 . S
C92 C97 1.386 . S
C93 C92 1.394 . S
C93 C94 1.380 . S
C93 H116 0.930 . S
C94 C93 1.380 . S
C94 C95 1.376 . S
C94 H117 0.930 . S
C95 C94 1.376 . S
C95 C96 1.370 . S
C96 C95 1.370 . S
C96 C97 1.398 . S
C96 H118 0.929 1_545 S
C97 C92 1.386 . S
C97 C96 1.398 . S
C97 H119 0.915 1_545 S
C98 O108 1.240 . S
C98 O109 1.289 . S
C99 O110 1.258 . S
C99 O111 1.256 1_546 S
O100 La80 2.521 . S
O100 C82 1.261 . S
O101 La80 2.628 1_545 S
O101 C82 1.243 1_545 S
O102 La80 2.554 . S
O102 C89 1.240 . S
O103 La80 2.748 1_556 S
O103 La81 2.485 1_565 S
O103 C89 1.286 1_556 S
O104 La80 2.470 . S
O104 C90 1.258 . S
O105 La81 2.503 1_554 S
O105 C90 1.256 1_545 S
O106 La81 2.521 . S
O106 C91 1.261 . S
O107 La81 2.628 1_565 S
O107 C91 1.243 1_565 S
O108 La81 2.554 1_554 S
O108 C98 1.240 . S
O109 La80 2.482 1_545 S
O109 La81 2.757 1_554 S
O109 C98 1.289 . S
O110 La81 2.470 . S
O110 C99 1.258 . S
O111 La80 2.503 . S
O111 C99 1.256 1_564 S
H112 C84 0.930 . S
H113 C85 0.930 . S
H114 C87 0.929 1_545 S
H115 C88 0.905 1_545 S
H116 C93 0.930 . S
H117 C94 0.930 . S
H118 C96 0.929 1_565 S
H119 C97 0.915 1_565 S
La120 C122 2.928 . S
La120 O140 2.521 . S
La120 O141 2.628 . S
La120 O142 2.554 . S
La120 O143 2.757 1_554 S
La120 O144 2.470 . S
La120 O149 2.482 . S
La120 O151 2.503 . S
La121 C131 2.928 . S
La121 O143 2.482 . S
La121 O145 2.503 1_556 S
La121 O146 2.521 . S
La121 O147 2.628 . S
La121 O148 2.554 1_556 S
La121 O149 2.757 1_556 S
La121 O150 2.470 . S
C122 La120 2.928 . S
C122 C123 1.503 . S
C122 O140 1.261 . S
C122 O141 1.243 . S
C123 C122 1.503 . S
C123 C124 1.394 . S
C123 C128 1.373 . S
C124 C123 1.394 . S
C124 C125 1.380 . S
C124 H152 0.930 . S
C125 C124 1.380 . S
C125 C126 1.376 . S
C125 H153 0.930 . S
C126 C125 1.376 . S
C126 C127 1.370 . S
C127 C126 1.370 . S
C127 C128 1.396 . S
C127 H154 0.929 . S
C128 C123 1.373 . S
C128 C127 1.396 . S
C128 H155 0.929 . S
C129 O142 1.240 . S
C129 O143 1.289 1_554 S
C130 O144 1.258 . S
C130 O145 1.256 . S
C131 La121 2.928 . S
C131 C132 1.503 . S
C131 O146 1.261 . S
C131 O147 1.243 . S
C132 C131 1.503 . S
C132 C133 1.394 . S
C132 C137 1.373 . S
C133 C132 1.394 . S
C133 C134 1.380 . S
C133 H156 0.930 . S
C134 C133 1.380 . S
C134 C135 1.376 . S
C134 H157 0.930 . S
C135 C134 1.376 . S
C135 C136 1.370 . S
C136 C135 1.370 . S
C136 C137 1.396 . S
C136 H158 0.929 . S
C137 C132 1.373 . S
C137 C136 1.396 . S
C137 H159 0.929 . S
C138 O148 1.240 . S
C138 O149 1.289 . S
C139 O150 1.258 . S
C139 O151 1.256 1_556 S
O140 La120 2.521 . S
O140 C122 1.261 . S
O141 La120 2.628 . S
O141 C122 1.243 . S
O142 La120 2.554 . S
O142 C129 1.240 . S
O143 La120 2.757 1_556 S
O143 La121 2.482 . S
O143 C129 1.289 1_556 S
O144 La120 2.470 . S
O144 C130 1.258 . S
O145 La121 2.503 1_554 S
O145 C130 1.256 . S
O146 La121 2.521 . S
O146 C131 1.261 . S
O147 La121 2.628 . S
O147 C131 1.243 . S
O148 La121 2.554 1_554 S
O148 C138 1.240 . S
O149 La120 2.482 . S
O149 La121 2.757 1_554 S
O149 C138 1.289 . S
O150 La121 2.470 . S
O150 C139 1.258 . S
O151 La120 2.503 . S
O151 C139 1.256 1_554 S
H152 C124 0.930 . S
H153 C125 0.930 . S
H154 C127 0.929 . S
H155 C128 0.929 . S
H156 C133 0.930 . S
H157 C134 0.930 . S
H158 C136 0.929 . S
H159 C137 0.929 . S
La160 C162 2.928 . S
La160 O180 2.521 . S
La160 O181 2.628 . S
La160 O182 2.554 . S
La160 O183 2.757 . S
La160 O184 2.470 . S
La160 O189 2.482 . S
La160 O191 2.503 . S
La161 C171 2.928 . S
La161 O183 2.482 . S
La161 O185 2.503 . S
La161 O186 2.521 . S
La161 O187 2.628 . S
La161 O188 2.554 . S
La161 O189 2.757 . S
La161 O190 2.470 . S
C162 La160 2.928 . S
C162 C163 1.503 . S
C162 O180 1.261 . S
C162 O181 1.243 . S
C163 C162 1.503 . S
C163 C164 1.394 . S
C163 C168 1.373 . S
C164 C163 1.394 . S
C164 C165 1.380 . S
C164 H192 0.930 . S
C165 C164 1.380 . S
C165 C166 1.376 . S
C165 H193 0.930 . S
C166 C165 1.376 . S
C166 C167 1.370 . S
C167 C166 1.370 . S
C167 C168 1.396 . S
C167 H194 0.929 . S
C168 C163 1.373 . S
C168 C167 1.396 . S
C168 H195 0.929 . S
C169 O182 1.240 . S
C169 O183 1.289 . S
C170 O184 1.258 . S
C170 O185 1.256 . S
C171 La161 2.928 . S
C171 C172 1.503 1_556 S
C171 O186 1.261 . S
C171 O187 1.243 . S
C172 C171 1.503 1_554 S
C172 C173 1.394 . S
C172 C177 1.373 . S
C173 C172 1.394 . S
C173 C174 1.380 . S
C173 H196 0.930 . S
C174 C173 1.380 . S
C174 C175 1.376 . S
C174 H197 0.930 . S
C175 C174 1.376 . S
C175 C176 1.370 . S
C176 C175 1.370 . S
C176 C177 1.396 . S
C176 H198 0.929 . S
C177 C172 1.373 . S
C177 C176 1.396 . S
C177 H199 0.929 . S
C178 O188 1.240 . S
C178 O189 1.289 . S
C179 O190 1.258 . S
C179 O191 1.256 . S
O180 La160 2.521 . S
O180 C162 1.261 . S
O181 La160 2.628 . S
O181 C162 1.243 . S
O182 La160 2.554 . S
O182 C169 1.240 . S
O183 La160 2.757 . S
O183 La161 2.482 . S
O183 C169 1.289 . S
O184 La160 2.470 . S
O184 C170 1.258 . S
O185 La161 2.503 . S
O185 C170 1.256 . S
O186 La161 2.521 . S
O186 C171 1.261 . S
O187 La161 2.628 . S
O187 C171 1.243 . S
O188 La161 2.554 . S
O188 C178 1.240 . S
O189 La160 2.482 . S
O189 La161 2.757 . S
O189 C178 1.289 . S
O190 La161 2.470 . S
O190 C179 1.258 . S
O191 La160 2.503 . S
O191 C179 1.256 . S
H192 C164 0.930 . S
H193 C165 0.930 . S
H194 C167 0.929 . S
H195 C168 0.929 . S
H196 C173 0.930 . S
H197 C174 0.930 . S
H198 C176 0.929 . S
H199 C177 0.929 . S
La200 C202 2.928 . S
La200 O220 2.521 . S
La200 O221 2.628 1_565 S
La200 O222 2.554 . S
La200 O223 2.757 . S
La200 O224 2.470 . S
La200 O229 2.482 1_565 S
La200 O231 2.503 . S
La201 C211 2.928 . S
La201 O223 2.482 1_545 S
La201 O225 2.503 . S
La201 O226 2.521 . S
La201 O227 2.628 1_545 S
La201 O228 2.554 . S
La201 O229 2.757 . S
La201 O230 2.470 . S
C202 La200 2.928 . S
C202 C203 1.503 . S
C202 O220 1.261 . S
C202 O221 1.243 1_565 S
C203 C202 1.503 . S
C203 C204 1.394 . S
C203 C208 1.386 . S
C204 C203 1.394 . S
C204 C205 1.380 . S
C204 H232 0.930 . S
C205 C204 1.380 . S
C205 C206 1.376 . S
C205 H233 0.930 . S
C206 C205 1.376 . S
C206 C207 1.370 . S
C207 C206 1.370 . S
C207 C208 1.398 . S
C207 H234 0.929 1_565 S
C208 C203 1.386 . S
C208 C207 1.398 . S
C208 H235 0.915 1_565 S
C209 O222 1.240 . S
C209 O223 1.289 . S
C210 O224 1.258 . S
C210 O225 1.256 1_565 S
C211 La201 2.928 . S
C211 C212 1.503 1_556 S
C211 O226 1.261 . S
C211 O227 1.243 1_545 S
C212 C211 1.503 1_554 S
C212 C213 1.394 . S
C212 C217 1.394 . S
C213 C212 1.394 . S
C213 C214 1.380 . S
C213 H236 0.930 . S
C214 C213 1.380 . S
C214 C215 1.376 . S
C214 H237 0.930 . S
C215 C214 1.376 . S
C215 C216 1.370 . S
C216 C215 1.370 . S
C216 C217 1.399 . S
C216 H238 0.929 1_545 S
C217 C212 1.394 . S
C217 C216 1.399 . S
C217 H239 0.905 1_545 S
C218 O228 1.240 . S
C218 O229 1.289 . S
C219 O230 1.258 . S
C219 O231 1.256 1_545 S
O220 La200 2.521 . S
O220 C202 1.261 . S
O221 La200 2.628 1_545 S
O221 C202 1.243 1_545 S
O222 La200 2.554 . S
O222 C209 1.240 . S
O223 La200 2.757 . S
O223 La201 2.482 1_565 S
O223 C209 1.289 . S
O224 La200 2.470 . S
O224 C210 1.258 . S
O225 La201 2.503 . S
O225 C210 1.256 1_545 S
O226 La201 2.521 . S
O226 C211 1.261 . S
O227 La201 2.628 1_565 S
O227 C211 1.243 1_565 S
O228 La201 2.554 . S
O228 C218 1.240 . S
O229 La200 2.482 1_545 S
O229 La201 2.757 . S
O229 C218 1.289 . S
O230 La201 2.470 . S
O230 C219 1.258 . S
O231 La200 2.503 . S
O231 C219 1.256 1_565 S
H232 C204 0.930 . S
H233 C205 0.930 . S
H234 C207 0.929 1_545 S
H235 C208 0.915 1_545 S
H236 C213 0.930 . S
H237 C214 0.930 . S
H238 C216 0.929 1_565 S
H239 C217 0.905 1_565 S
La240 C242 2.928 . S
La240 O260 2.521 . S
La240 O261 2.628 1_565 S
La240 O262 2.554 1_554 S
La240 O263 2.757 1_554 S
La240 O264 2.470 . S
La240 O269 2.485 1_565 S
La240 O271 2.503 1_554 S
La241 C251 2.928 . S
La241 O263 2.482 1_545 S
La241 O265 2.503 . S
La241 O266 2.521 . S
La241 O267 2.628 1_545 S
La241 O268 2.554 . S
La241 O269 2.748 1_556 S
La241 O270 2.470 . S
C242 La240 2.928 . S
C242 C243 1.503 . S
C242 O260 1.261 . S
C242 O261 1.243 1_565 S
C243 C242 1.503 . S
C243 C244 1.394 . S
C243 C248 1.386 . S
C244 C243 1.394 . S
C244 C245 1.380 . S
C244 H272 0.930 . S
C245 C244 1.380 . S
C245 C246 1.376 . S
C245 H273 0.930 . S
C246 C245 1.376 . S
C246 C247 1.370 . S
C247 C246 1.370 . S
C247 C248 1.398 . S
C247 H274 0.929 1_565 S
C248 C243 1.386 . S
C248 C247 1.398 . S
C248 H275 0.915 1_565 S
C249 O262 1.240 . S
C249 O263 1.289 . S
C250 O264 1.258 . S
C250 O265 1.256 1_564 S
C251 La241 2.928 . S
C251 C252 1.503 . S
C251 O266 1.261 . S
C251 O267 1.243 1_545 S
C252 C251 1.503 . S
C252 C253 1.394 . S
C252 C257 1.394 . S
C253 C252 1.394 . S
C253 C254 1.380 . S
C253 H276 0.930 . S
C254 C253 1.380 . S
C254 C255 1.376 . S
C254 H277 0.930 . S
C255 C254 1.376 . S
C255 C256 1.370 . S
C256 C255 1.370 . S
C256 C257 1.399 . S
C256 H278 0.929 1_545 S
C257 C252 1.394 . S
C257 C256 1.399 . S
C257 H279 0.905 1_545 S
C258 O268 1.240 . S
C258 O269 1.286 1_556 S
C259 O270 1.258 . S
C259 O271 1.256 1_545 S
O260 La240 2.521 . S
O260 C242 1.261 . S
O261 La240 2.628 1_545 S
O261 C242 1.243 1_545 S
O262 La240 2.554 1_556 S
O262 C249 1.240 . S
O263 La240 2.757 1_556 S
O263 La241 2.482 1_565 S
O263 C249 1.289 . S
O264 La240 2.470 . S
O264 C250 1.258 . S
O265 La241 2.503 . S
O265 C250 1.256 1_546 S
O266 La241 2.521 . S
O266 C251 1.261 . S
O267 La241 2.628 1_565 S
O267 C251 1.243 1_565 S
O268 La241 2.554 . S
O268 C258 1.240 . S
O269 La240 2.485 1_545 S
O269 La241 2.748 1_554 S
O269 C258 1.286 1_554 S
O270 La241 2.470 . S
O270 C259 1.258 . S
O271 La240 2.503 1_556 S
O271 C259 1.256 1_565 S
H272 C244 0.930 . S
H273 C245 0.930 . S
H274 C247 0.929 1_545 S
H275 C248 0.915 1_545 S
H276 C253 0.930 . S
H277 C254 0.930 . S
H278 C256 0.929 1_565 S
H279 C257 0.905 1_565 S
La280 C282 2.928 . S
La280 O300 2.521 . S
La280 O301 2.628 . S
La280 O302 2.554 1_554 S
La280 O303 2.757 1_554 S
La280 O304 2.470 . S
La280 O309 2.482 . S
La280 O311 2.503 1_554 S
La281 C291 2.928 . S
La281 O303 2.482 . S
La281 O305 2.503 . S
La281 O306 2.521 . S
La281 O307 2.628 . S
La281 O308 2.554 . S
La281 O309 2.757 1_556 S
La281 O310 2.470 . S
C282 La280 2.928 . S
C282 C283 1.503 . S
C282 O300 1.261 . S
C282 O301 1.243 . S
C283 C282 1.503 . S
C283 C284 1.394 . S
C283 C288 1.373 . S
C284 C283 1.394 . S
C284 C285 1.380 . S
C284 H312 0.930 . S
C285 C284 1.380 . S
C285 C286 1.376 . S
C285 H313 0.930 . S
C286 C285 1.376 . S
C286 C287 1.370 . S
C287 C286 1.370 . S
C287 C288 1.396 . S
C287 H314 0.929 . S
C288 C283 1.373 . S
C288 C287 1.396 . S
C288 H315 0.929 . S
C289 O302 1.240 . S
C289 O303 1.289 . S
C290 O304 1.258 . S
C290 O305 1.256 1_554 S
C291 La281 2.928 . S
C291 C292 1.503 . S
C291 O306 1.261 . S
C291 O307 1.243 . S
C292 C291 1.503 . S
C292 C293 1.394 . S
C292 C297 1.373 . S
C293 C292 1.394 . S
C293 C294 1.380 . S
C293 H316 0.930 . S
C294 C293 1.380 . S
C294 C295 1.376 . S
C294 H317 0.930 . S
C295 C294 1.376 . S
C295 C296 1.370 . S
C296 C295 1.370 . S
C296 C297 1.396 . S
C296 H318 0.929 . S
C297 C292 1.373 . S
C297 C296 1.396 . S
C297 H319 0.929 . S
C298 O308 1.240 . S
C298 O309 1.289 1_556 S
C299 O310 1.258 . S
C299 O311 1.256 . S
O300 La280 2.521 . S
O300 C282 1.261 . S
O301 La280 2.628 . S
O301 C282 1.243 . S
O302 La280 2.554 1_556 S
O302 C289 1.240 . S
O303 La280 2.757 1_556 S
O303 La281 2.482 . S
O303 C289 1.289 . S
O304 La280 2.470 . S
O304 C290 1.258 . S
O305 La281 2.503 . S
O305 C290 1.256 1_556 S
O306 La281 2.521 . S
O306 C291 1.261 . S
O307 La281 2.628 . S
O307 C291 1.243 . S
O308 La281 2.554 . S
O308 C298 1.240 . S
O309 La280 2.482 . S
O309 La281 2.757 1_554 S
O309 C298 1.289 1_554 S
O310 La281 2.470 . S
O310 C299 1.258 . S
O311 La280 2.503 1_556 S
O311 C299 1.256 . S
H312 C284 0.930 . S
H313 C285 0.930 . S
H314 C287 0.929 . S
H315 C288 0.929 . S
H316 C293 0.930 . S
H317 C294 0.930 . S
H318 C296 0.929 . S
H319 C297 0.929 . S
La320 C322 2.928 . S
La320 O340 2.521 . S
La320 O341 2.628 . S
La320 O342 2.554 . S
La320 O343 2.757 . S
La320 O344 2.470 . S
La320 O349 2.482 . S
La320 O351 2.503 . S
La321 C331 2.928 . S
La321 O343 2.482 . S
La321 O345 2.503 . S
La321 O346 2.521 . S
La321 O347 2.628 . S
La321 O348 2.554 . S
La321 O349 2.757 . S
La321 O350 2.470 . S
C322 La320 2.928 . S
C322 C323 1.503 . S
C322 O340 1.261 . S
C322 O341 1.243 . S
C323 C322 1.503 . S
C323 C324 1.394 . S
C323 C328 1.373 . S
C324 C323 1.394 . S
C324 C325 1.380 . S
C324 H352 0.930 . S
C325 C324 1.380 . S
C325 C326 1.376 . S
C325 H353 0.930 . S
C326 C325 1.376 . S
C326 C327 1.370 . S
C327 C326 1.370 . S
C327 C328 1.396 . S
C327 H354 0.929 . S
C328 C323 1.373 . S
C328 C327 1.396 . S
C328 H355 0.929 . S
C329 O342 1.240 . S
C329 O343 1.289 . S
C330 O344 1.258 . S
C330 O345 1.256 . S
C331 La321 2.928 . S
C331 C332 1.503 . S
C331 O346 1.261 . S
C331 O347 1.243 . S
C332 C331 1.503 . S
C332 C333 1.394 . S
C332 C337 1.373 . S
C333 C332 1.394 . S
C333 C334 1.380 1_556 S
C333 H356 0.930 . S
C334 C333 1.380 1_554 S
C334 C335 1.376 . S
C334 H357 0.930 . S
C335 C334 1.376 . S
C335 C336 1.370 . S
C336 C335 1.370 . S
C336 C337 1.396 1_554 S
C336 H358 0.929 . S
C337 C332 1.373 . S
C337 C336 1.396 1_556 S
C337 H359 0.929 . S
C338 O348 1.240 . S
C338 O349 1.289 . S
C339 O350 1.258 . S
C339 O351 1.256 . S
O340 La320 2.521 . S
O340 C322 1.261 . S
O341 La320 2.628 . S
O341 C322 1.243 . S
O342 La320 2.554 . S
O342 C329 1.240 . S
O343 La320 2.757 . S
O343 La321 2.482 . S
O343 C329 1.289 . S
O344 La320 2.470 . S
O344 C330 1.258 . S
O345 La321 2.503 . S
O345 C330 1.256 . S
O346 La321 2.521 . S
O346 C331 1.261 . S
O347 La321 2.628 . S
O347 C331 1.243 . S
O348 La321 2.554 . S
O348 C338 1.240 . S
O349 La320 2.482 . S
O349 La321 2.757 . S
O349 C338 1.289 . S
O350 La321 2.470 . S
O350 C339 1.258 . S
O351 La320 2.503 . S
O351 C339 1.256 . S
H352 C324 0.930 . S
H353 C325 0.930 . S
H354 C327 0.929 . S
H355 C328 0.929 . S
H356 C333 0.930 . S
H357 C334 0.930 . S
H358 C336 0.929 . S
H359 C337 0.929 . S
La360 C362 2.928 . S
La360 O380 2.521 . S
La360 O381 2.628 . S
La360 O382 2.554 . S
La360 O383 2.757 . S
La360 O384 2.470 . S
La360 O389 2.482 . S
La360 O391 2.503 . S
La361 C371 2.928 . S
La361 O383 2.482 . S
La361 O385 2.503 . S
La361 O386 2.521 . S
La361 O387 2.628 . S
La361 O388 2.554 . S
La361 O389 2.757 . S
La361 O390 2.470 . S
C362 La360 2.928 . S
C362 C363 1.503 . S
C362 O380 1.261 . S
C362 O381 1.243 . S
C363 C362 1.503 . S
C363 C364 1.394 . S
C363 C368 1.373 . S
C364 C363 1.394 . S
C364 C365 1.380 . S
C364 H392 0.930 . S
C365 C364 1.380 . S
C365 C366 1.376 . S
C365 H393 0.930 . S
C366 C365 1.376 . S
C366 C367 1.370 . S
C367 C366 1.370 . S
C367 C368 1.396 . S
C367 H394 0.929 . S
C368 C363 1.373 . S
C368 C367 1.396 . S
C368 H395 0.929 . S
C369 O382 1.240 . S
C369 O383 1.289 . S
C370 O384 1.258 . S
C370 O385 1.256 . S
C371 La361 2.928 . S
C371 C372 1.503 . S
C371 O386 1.261 . S
C371 O387 1.243 . S
C372 C371 1.503 . S
C372 C373 1.394 . S
C372 C377 1.373 . S
C373 C372 1.394 . S
C373 C374 1.380 1_556 S
C373 H396 0.930 . S
C374 C373 1.380 1_554 S
C374 C375 1.376 . S
C374 H397 0.930 . S
C375 C374 1.376 . S
C375 C376 1.370 . S
C376 C375 1.370 . S
C376 C377 1.396 1_554 S
C376 H398 0.929 . S
C377 C372 1.373 . S
C377 C376 1.396 1_556 S
C377 H399 0.929 . S
C378 O388 1.240 . S
C378 O389 1.289 . S
C379 O390 1.258 . S
C379 O391 1.256 . S
O380 La360 2.521 . S
O380 C362 1.261 . S
O381 La360 2.628 . S
O381 C362 1.243 . S
O382 La360 2.554 . S
O382 C369 1.240 . S
O383 La360 2.757 . S
O383 La361 2.482 . S
O383 C369 1.289 . S
O384 La360 2.470 . S
O384 C370 1.258 . S
O385 La361 2.503 . S
O385 C370 1.256 . S
O386 La361 2.521 . S
O386 C371 1.261 . S
O387 La361 2.628 . S
O387 C371 1.243 . S
O388 La361 2.554 . S
O388 C378 1.240 . S
O389 La360 2.482 . S
O389 La361 2.757 . S
O389 C378 1.289 . S
O390 La361 2.470 . S
O390 C379 1.258 . S
O391 La360 2.503 . S
O391 C379 1.256 . S
H392 C364 0.930 . S
H393 C365 0.930 . S
H394 C367 0.929 . S
H395 C368 0.929 . S
H396 C373 0.930 . S
H397 C374 0.930 . S
H398 C376 0.929 . S
H399 C377 0.929 . S
La400 C402 2.928 . S
La400 O420 2.521 . S
La400 O421 2.628 . S
La400 O422 2.554 . S
La400 O423 2.757 . S
La400 O424 2.470 . S
La400 O429 2.482 . S
La400 O431 2.503 . S
La401 C411 2.928 . S
La401 O423 2.482 . S
La401 O425 2.503 . S
La401 O426 2.521 . S
La401 O427 2.628 . S
La401 O428 2.554 . S
La401 O429 2.757 . S
La401 O430 2.470 . S
C402 La400 2.928 . S
C402 C403 1.503 . S
C402 O420 1.261 . S
C402 O421 1.243 . S
C403 C402 1.503 . S
C403 C404 1.394 . S
C403 C408 1.373 . S
C404 C403 1.394 . S
C404 C405 1.380 . S
C404 H432 0.930 . S
C405 C404 1.380 . S
C405 C406 1.376 . S
C405 H433 0.930 . S
C406 C405 1.376 . S
C406 C407 1.370 . S
C407 C406 1.370 . S
C407 C408 1.396 . S
C407 H434 0.929 . S
C408 C403 1.373 . S
C408 C407 1.396 . S
C408 H435 0.929 . S
C409 O422 1.240 . S
C409 O423 1.289 . S
C410 O424 1.258 . S
C410 O425 1.256 . S
C411 La401 2.928 . S
C411 C412 1.503 . S
C411 O426 1.261 . S
C411 O427 1.243 . S
C412 C411 1.503 . S
C412 C413 1.394 . S
C412 C417 1.373 . S
C413 C412 1.394 . S
C413 C414 1.380 . S
C413 H436 0.930 . S
C414 C413 1.380 . S
C414 C415 1.376 . S
C414 H437 0.930 . S
C415 C414 1.376 . S
C415 C416 1.370 . S
C416 C415 1.370 . S
C416 C417 1.396 . S
C416 H438 0.929 . S
C417 C412 1.373 . S
C417 C416 1.396 . S
C417 H439 0.929 . S
C418 O428 1.240 . S
C418 O429 1.289 . S
C419 O430 1.258 . S
C419 O431 1.256 . S
O420 La400 2.521 . S
O420 C402 1.261 . S
O421 La400 2.628 . S
O421 C402 1.243 . S
O422 La400 2.554 . S
O422 C409 1.240 . S
O423 La400 2.757 . S
O423 La401 2.482 . S
O423 C409 1.289 . S
O424 La400 2.470 . S
O424 C410 1.258 . S
O425 La401 2.503 . S
O425 C410 1.256 . S
O426 La401 2.521 . S
O426 C411 1.261 . S
O427 La401 2.628 . S
O427 C411 1.243 . S
O428 La401 2.554 . S
O428 C418 1.240 . S
O429 La400 2.482 . S
O429 La401 2.757 . S
O429 C418 1.289 . S
O430 La401 2.470 . S
O430 C419 1.258 . S
O431 La400 2.503 . S
O431 C419 1.256 . S
H432 C404 0.930 . S
H433 C405 0.930 . S
H434 C407 0.929 . S
H435 C408 0.929 . S
H436 C413 0.930 . S
H437 C414 0.930 . S
H438 C416 0.929 . S
H439 C417 0.929 . S
La440 C442 2.928 . S
La440 O460 2.521 . S
La440 O461 2.628 . S
La440 O462 2.554 . S
La440 O463 2.757 . S
La440 O464 2.470 . S
La440 O469 2.482 . S
La440 O471 2.503 . S
La441 C451 2.928 . S
La441 O463 2.482 . S
La441 O465 2.503 . S
La441 O466 2.521 . S
La441 O467 2.628 . S
La441 O468 2.554 . S
La441 O469 2.757 . S
La441 O470 2.470 . S
C442 La440 2.928 . S
C442 C443 1.503 . S
C442 O460 1.261 . S
C442 O461 1.243 . S
C443 C442 1.503 . S
C443 C444 1.394 . S
C443 C448 1.373 . S
C444 C443 1.394 . S
C444 C445 1.380 . S
C444 H472 0.930 . S
C445 C444 1.380 . S
C445 C446 1.376 . S
C445 H473 0.930 . S
C446 C445 1.376 . S
C446 C447 1.370 . S
C447 C446 1.370 . S
C447 C448 1.396 . S
C447 H474 0.929 . S
C448 C443 1.373 . S
C448 C447 1.396 . S
C448 H475 0.929 . S
C449 O462 1.240 . S
C449 O463 1.289 . S
C450 O464 1.258 . S
C450 O465 1.256 . S
C451 La441 2.928 . S
C451 C452 1.503 . S
C451 O466 1.261 . S
C451 O467 1.243 . S
C452 C451 1.503 . S
C452 C453 1.394 . S
C452 C457 1.373 . S
C453 C452 1.394 . S
C453 C454 1.380 . S
C453 H476 0.930 . S
C454 C453 1.380 . S
C454 C455 1.376 . S
C454 H477 0.930 . S
C455 C454 1.376 . S
C455 C456 1.370 . S
C456 C455 1.370 . S
C456 C457 1.396 . S
C456 H478 0.929 . S
C457 C452 1.373 . S
C457 C456 1.396 . S
C457 H479 0.929 . S
C458 O468 1.240 . S
C458 O469 1.289 . S
C459 O470 1.258 . S
C459 O471 1.256 . S
O460 La440 2.521 . S
O460 C442 1.261 . S
O461 La440 2.628 . S
O461 C442 1.243 . S
O462 La440 2.554 . S
O462 C449 1.240 . S
O463 La440 2.757 . S
O463 La441 2.482 . S
O463 C449 1.289 . S
O464 La440 2.470 . S
O464 C450 1.258 . S
O465 La441 2.503 . S
O465 C450 1.256 . S
O466 La441 2.521 . S
O466 C451 1.261 . S
O467 La441 2.628 . S
O467 C451 1.243 . S
O468 La441 2.554 . S
O468 C458 1.240 . S
O469 La440 2.482 . S
O469 La441 2.757 . S
O469 C458 1.289 . S
O470 La441 2.470 . S
O470 C459 1.258 . S
O471 La440 2.503 . S
O471 C459 1.256 . S
H472 C444 0.930 . S
H473 C445 0.930 . S
H474 C447 0.929 . S
H475 C448 0.929 . S
H476 C453 0.930 . S
H477 C454 0.930 . S
H478 C456 0.929 . S
H479 C457 0.929 . S
La480 C482 2.928 . S
La480 O500 2.521 . S
La480 O501 2.628 . S
La480 O502 2.554 . S
La480 O503 2.757 . S
La480 O504 2.470 . S
La480 O509 2.482 . S
La480 O511 2.503 . S
La481 C491 2.928 . S
La481 O503 2.482 . S
La481 O505 2.503 . S
La481 O506 2.521 . S
La481 O507 2.628 . S
La481 O508 2.554 . S
La481 O509 2.757 . S
La481 O510 2.470 . S
C482 La480 2.928 . S
C482 C483 1.503 . S
C482 O500 1.261 . S
C482 O501 1.243 . S
C483 C482 1.503 . S
C483 C484 1.394 . S
C483 C488 1.373 . S
C484 C483 1.394 . S
C484 C485 1.380 1_554 S
C484 H512 0.930 . S
C485 C484 1.380 1_556 S
C485 C486 1.376 . S
C485 H513 0.930 . S
C486 C485 1.376 . S
C486 C487 1.370 . S
C487 C486 1.370 . S
C487 C488 1.396 1_556 S
C487 H514 0.929 . S
C488 C483 1.373 . S
C488 C487 1.396 1_554 S
C488 H515 0.929 . S
C489 O502 1.240 . S
C489 O503 1.289 . S
C490 O504 1.258 . S
C490 O505 1.256 . S
C491 La481 2.928 . S
C491 C492 1.503 . S
C491 O506 1.261 . S
C491 O507 1.243 . S
C492 C491 1.503 . S
C492 C493 1.394 . S
C492 C497 1.373 . S
C493 C492 1.394 . S
C493 C494 1.380 . S
C493 H516 0.930 . S
C494 C493 1.380 . S
C494 C495 1.376 . S
C494 H517 0.930 . S
C495 C494 1.376 . S
C495 C496 1.370 . S
C496 C495 1.370 . S
C496 C497 1.396 . S
C496 H518 0.929 . S
C497 C492 1.373 . S
C497 C496 1.396 . S
C497 H519 0.929 . S
C498 O508 1.240 . S
C498 O509 1.289 . S
C499 O510 1.258 . S
C499 O511 1.256 . S
O500 La480 2.521 . S
O500 C482 1.261 . S
O501 La480 2.628 . S
O501 C482 1.243 . S
O502 La480 2.554 . S
O502 C489 1.240 . S
O503 La480 2.757 . S
O503 La481 2.482 . S
O503 C489 1.289 . S
O504 La480 2.470 . S
O504 C490 1.258 . S
O505 La481 2.503 . S
O505 C490 1.256 . S
O506 La481 2.521 . S
O506 C491 1.261 . S
O507 La481 2.628 . S
O507 C491 1.243 . S
O508 La481 2.554 . S
O508 C498 1.240 . S
O509 La480 2.482 . S
O509 La481 2.757 . S
O509 C498 1.289 . S
O510 La481 2.470 . S
O510 C499 1.258 . S
O511 La480 2.503 . S
O511 C499 1.256 . S
H512 C484 0.930 . S
H513 C485 0.930 . S
H514 C487 0.929 . S
H515 C488 0.929 . S
H516 C493 0.930 . S
H517 C494 0.930 . S
H518 C496 0.929 . S
H519 C497 0.929 . S
La520 C522 2.928 . S
La520 O540 2.521 . S
La520 O541 2.628 . S
La520 O542 2.554 . S
La520 O543 2.757 . S
La520 O544 2.470 . S
La520 O549 2.482 . S
La520 O551 2.503 . S
La521 C531 2.928 . S
La521 O543 2.482 . S
La521 O545 2.503 . S
La521 O546 2.521 . S
La521 O547 2.628 . S
La521 O548 2.554 . S
La521 O549 2.757 . S
La521 O550 2.470 . S
C522 La520 2.928 . S
C522 C523 1.503 . S
C522 O540 1.261 . S
C522 O541 1.243 . S
C523 C522 1.503 . S
C523 C524 1.394 . S
C523 C528 1.373 . S
C524 C523 1.394 . S
C524 C525 1.380 1_554 S
C524 H552 0.930 . S
C525 C524 1.380 1_556 S
C525 C526 1.376 . S
C525 H553 0.930 . S
C526 C525 1.376 . S
C526 C527 1.370 . S
C527 C526 1.370 . S
C527 C528 1.396 1_556 S
C527 H554 0.929 . S
C528 C523 1.373 . S
C528 C527 1.396 1_554 S
C528 H555 0.929 . S
C529 O542 1.240 . S
C529 O543 1.289 . S
C530 O544 1.258 . S
C530 O545 1.256 . S
C531 La521 2.928 . S
C531 C532 1.503 . S
C531 O546 1.261 . S
C531 O547 1.243 . S
C532 C531 1.503 . S
C532 C533 1.394 . S
C532 C537 1.373 . S
C533 C532 1.394 . S
C533 C534 1.380 . S
C533 H556 0.930 . S
C534 C533 1.380 . S
C534 C535 1.376 . S
C534 H557 0.930 . S
C535 C534 1.376 . S
C535 C536 1.370 . S
C536 C535 1.370 . S
C536 C537 1.396 . S
C536 H558 0.929 . S
C537 C532 1.373 . S
C537 C536 1.396 . S
C537 H559 0.929 . S
C538 O548 1.240 . S
C538 O549 1.289 . S
C539 O550 1.258 . S
C539 O551 1.256 . S
O540 La520 2.521 . S
O540 C522 1.261 . S
O541 La520 2.628 . S
O541 C522 1.243 . S
O542 La520 2.554 . S
O542 C529 1.240 . S
O543 La520 2.757 . S
O543 La521 2.482 . S
O543 C529 1.289 . S
O544 La520 2.470 . S
O544 C530 1.258 . S
O545 La521 2.503 . S
O545 C530 1.256 . S
O546 La521 2.521 . S
O546 C531 1.261 . S
O547 La521 2.628 . S
O547 C531 1.243 . S
O548 La521 2.554 . S
O548 C538 1.240 . S
O549 La520 2.482 . S
O549 La521 2.757 . S
O549 C538 1.289 . S
O550 La521 2.470 . S
O550 C539 1.258 . S
O551 La520 2.503 . S
O551 C539 1.256 . S
H552 C524 0.930 . S
H553 C525 0.930 . S
H554 C527 0.929 . S
H555 C528 0.929 . S
H556 C533 0.930 . S
H557 C534 0.930 . S
H558 C536 0.929 . S
H559 C537 0.929 . S
La560 C562 2.928 . S
La560 O580 2.521 . S
La560 O581 2.628 . S
La560 O582 2.554 . S
La560 O583 2.757 . S
La560 O584 2.470 . S
La560 O589 2.482 . S
La560 O591 2.503 . S
La561 C571 2.928 . S
La561 O583 2.482 . S
La561 O585 2.503 . S
La561 O586 2.521 . S
La561 O587 2.628 . S
La561 O588 2.554 . S
La561 O589 2.757 . S
La561 O590 2.470 . S
C562 La560 2.928 . S
C562 C563 1.503 . S
C562 O580 1.261 . S
C562 O581 1.243 . S
C563 C562 1.503 . S
C563 C564 1.394 . S
C563 C568 1.373 . S
C564 C563 1.394 . S
C564 C565 1.380 . S
C564 H592 0.930 . S
C565 C564 1.380 . S
C565 C566 1.376 . S
C565 H593 0.930 . S
C566 C565 1.376 . S
C566 C567 1.370 . S
C567 C566 1.370 . S
C567 C568 1.396 . S
C567 H594 0.929 . S
C568 C563 1.373 . S
C568 C567 1.396 . S
C568 H595 0.929 . S
C569 O582 1.240 . S
C569 O583 1.289 . S
C570 O584 1.258 . S
C570 O585 1.256 . S
C571 La561 2.928 . S
C571 C572 1.503 . S
C571 O586 1.261 . S
C571 O587 1.243 . S
C572 C571 1.503 . S
C572 C573 1.394 . S
C572 C577 1.373 . S
C573 C572 1.394 . S
C573 C574 1.380 . S
C573 H596 0.930 . S
C574 C573 1.380 . S
C574 C575 1.376 . S
C574 H597 0.930 . S
C575 C574 1.376 . S
C575 C576 1.370 . S
C576 C575 1.370 . S
C576 C577 1.396 . S
C576 H598 0.929 . S
C577 C572 1.373 . S
C577 C576 1.396 . S
C577 H599 0.929 . S
C578 O588 1.240 . S
C578 O589 1.289 . S
C579 O590 1.258 . S
C579 O591 1.256 . S
O580 La560 2.521 . S
O580 C562 1.261 . S
O581 La560 2.628 . S
O581 C562 1.243 . S
O582 La560 2.554 . S
O582 C569 1.240 . S
O583 La560 2.757 . S
O583 La561 2.482 . S
O583 C569 1.289 . S
O584 La560 2.470 . S
O584 C570 1.258 . S
O585 La561 2.503 . S
O585 C570 1.256 . S
O586 La561 2.521 . S
O586 C571 1.261 . S
O587 La561 2.628 . S
O587 C571 1.243 . S
O588 La561 2.554 . S
O588 C578 1.240 . S
O589 La560 2.482 . S
O589 La561 2.757 . S
O589 C578 1.289 . S
O590 La561 2.470 . S
O590 C579 1.258 . S
O591 La560 2.503 . S
O591 C579 1.256 . S
H592 C564 0.930 . S
H593 C565 0.930 . S
H594 C567 0.929 . S
H595 C568 0.929 . S
H596 C573 0.930 . S
H597 C574 0.930 . S
H598 C576 0.929 . S
H599 C577 0.929 . S
La600 C602 2.928 . S
La600 O620 2.521 . S
La600 O621 2.628 . S
La600 O622 2.554 . S
La600 O623 2.757 . S
La600 O624 2.470 . S
La600 O629 2.482 . S
La600 O631 2.503 . S
La601 C611 2.928 . S
La601 O623 2.482 . S
La601 O625 2.503 . S
La601 O626 2.521 . S
La601 O627 2.628 . S
La601 O628 2.554 . S
La601 O629 2.757 . S
La601 O630 2.470 . S
C602 La600 2.928 . S
C602 C603 1.503 . S
C602 O620 1.261 . S
C602 O621 1.243 . S
C603 C602 1.503 . S
C603 C604 1.394 . S
C603 C608 1.373 . S
C604 C603 1.394 . S
C604 C605 1.380 . S
C604 H632 0.930 . S
C605 C604 1.380 . S
C605 C606 1.376 . S
C605 H633 0.930 . S
C606 C605 1.376 . S
C606 C607 1.370 . S
C607 C606 1.370 . S
C607 C608 1.396 . S
C607 H634 0.929 . S
C608 C603 1.373 . S
C608 C607 1.396 . S
C608 H635 0.929 . S
C609 O622 1.240 . S
C609 O623 1.289 . S
C610 O624 1.258 . S
C610 O625 1.256 . S
C611 La601 2.928 . S
C611 C612 1.503 . S
C611 O626 1.261 . S
C611 O627 1.243 . S
C612 C611 1.503 . S
C612 C613 1.394 . S
C612 C617 1.373 . S
C613 C612 1.394 . S
C613 C614 1.380 . S
C613 H636 0.930 . S
C614 C613 1.380 . S
C614 C615 1.376 . S
C614 H637 0.930 . S
C615 C614 1.376 . S
C615 C616 1.370 . S
C616 C615 1.370 . S
C616 C617 1.396 . S
C616 H638 0.929 . S
C617 C612 1.373 . S
C617 C616 1.396 . S
C617 H639 0.929 . S
C618 O628 1.240 . S
C618 O629 1.289 . S
C619 O630 1.258 . S
C619 O631 1.256 . S
O620 La600 2.521 . S
O620 C602 1.261 . S
O621 La600 2.628 . S
O621 C602 1.243 . S
O622 La600 2.554 . S
O622 C609 1.240 . S
O623 La600 2.757 . S
O623 La601 2.482 . S
O623 C609 1.289 . S
O624 La600 2.470 . S
O624 C610 1.258 . S
O625 La601 2.503 . S
O625 C610 1.256 . S
O626 La601 2.521 . S
O626 C611 1.261 . S
O627 La601 2.628 . S
O627 C611 1.243 . S
O628 La601 2.554 . S
O628 C618 1.240 . S
O629 La600 2.482 . S
O629 La601 2.757 . S
O629 C618 1.289 . S
O630 La601 2.470 . S
O630 C619 1.258 . S
O631 La600 2.503 . S
O631 C619 1.256 . S
H632 C604 0.930 . S
H633 C605 0.930 . S
H634 C607 0.929 . S
H635 C608 0.929 . S
H636 C613 0.930 . S
H637 C614 0.930 . S
H638 C616 0.929 . S
H639 C617 0.929 . S
La640 C642 2.928 . S
La640 O660 2.521 . S
La640 O661 2.628 . S
La640 O662 2.554 . S
La640 O663 2.757 . S
La640 O664 2.470 . S
La640 O669 2.482 . S
La640 O671 2.503 . S
La641 C651 2.928 . S
La641 O663 2.482 . S
La641 O665 2.503 . S
La641 O666 2.521 . S
La641 O667 2.628 . S
La641 O668 2.554 . S
La641 O669 2.757 . S
La641 O670 2.470 . S
C642 La640 2.928 . S
C642 C643 1.503 . S
C642 O660 1.261 . S
C642 O661 1.243 . S
C643 C642 1.503 . S
C643 C644 1.394 . S
C643 C648 1.373 . S
C644 C643 1.394 . S
C644 C645 1.380 . S
C644 H672 0.930 . S
C645 C644 1.380 . S
C645 C646 1.376 . S
C645 H673 0.930 . S
C646 C645 1.376 . S
C646 C647 1.370 . S
C647 C646 1.370 . S
C647 C648 1.396 . S
C647 H674 0.929 . S
C648 C643 1.373 . S
C648 C647 1.396 . S
C648 H675 0.929 . S
C649 O662 1.240 . S
C649 O663 1.289 . S
C650 O664 1.258 . S
C650 O665 1.256 . S
C651 La641 2.928 . S
C651 C652 1.503 . S
C651 O666 1.261 . S
C651 O667 1.243 . S
C652 C651 1.503 . S
C652 C653 1.394 . S
C652 C657 1.373 . S
C653 C652 1.394 . S
C653 C654 1.380 1_556 S
C653 H676 0.930 . S
C654 C653 1.380 1_554 S
C654 C655 1.376 . S
C654 H677 0.930 . S
C655 C654 1.376 . S
C655 C656 1.370 . S
C656 C655 1.370 . S
C656 C657 1.396 1_554 S
C656 H678 0.929 . S
C657 C652 1.373 . S
C657 C656 1.396 1_556 S
C657 H679 0.929 . S
C658 O668 1.240 . S
C658 O669 1.289 . S
C659 O670 1.258 . S
C659 O671 1.256 . S
O660 La640 2.521 . S
O660 C642 1.261 . S
O661 La640 2.628 . S
O661 C642 1.243 . S
O662 La640 2.554 . S
O662 C649 1.240 . S
O663 La640 2.757 . S
O663 La641 2.482 . S
O663 C649 1.289 . S
O664 La640 2.470 . S
O664 C650 1.258 . S
O665 La641 2.503 . S
O665 C650 1.256 . S
O666 La641 2.521 . S
O666 C651 1.261 . S
O667 La641 2.628 . S
O667 C651 1.243 . S
O668 La641 2.554 . S
O668 C658 1.240 . S
O669 La640 2.482 . S
O669 La641 2.757 . S
O669 C658 1.289 . S
O670 La641 2.470 . S
O670 C659 1.258 . S
O671 La640 2.503 . S
O671 C659 1.256 . S
H672 C644 0.930 . S
H673 C645 0.930 . S
H674 C647 0.929 . S
H675 C648 0.929 . S
H676 C653 0.930 . S
H677 C654 0.930 . S
H678 C656 0.929 . S
H679 C657 0.929 . S
La680 C682 2.928 . S
La680 O700 2.521 . S
La680 O701 2.628 1_565 S
La680 O702 2.554 . S
La680 O703 2.757 . S
La680 O704 2.470 . S
La680 O709 2.482 1_565 S
La680 O711 2.503 . S
La681 C691 2.928 . S
La681 O703 2.482 1_545 S
La681 O705 2.503 . S
La681 O706 2.521 . S
La681 O707 2.628 1_545 S
La681 O708 2.554 . S
La681 O709 2.757 . S
La681 O710 2.470 . S
C682 La680 2.928 . S
C682 C683 1.503 . S
C682 O700 1.261 . S
C682 O701 1.243 1_565 S
C683 C682 1.503 . S
C683 C684 1.394 . S
C683 C688 1.394 . S
C684 C683 1.394 . S
C684 C685 1.380 . S
C684 H712 0.930 . S
C685 C684 1.380 . S
C685 C686 1.376 . S
C685 H713 0.930 . S
C686 C685 1.376 . S
C686 C687 1.370 . S
C687 C686 1.370 . S
C687 C688 1.399 . S
C687 H714 0.929 1_565 S
C688 C683 1.394 . S
C688 C687 1.399 . S
C688 H715 0.905 1_565 S
C689 O702 1.240 . S
C689 O703 1.289 . S
C690 O704 1.258 . S
C690 O705 1.256 1_565 S
C691 La681 2.928 . S
C691 C692 1.503 . S
C691 O706 1.261 . S
C691 O707 1.243 1_545 S
C692 C691 1.503 . S
C692 C693 1.394 . S
C692 C697 1.386 . S
C693 C692 1.394 . S
C693 C694 1.380 1_556 S
C693 H716 0.930 . S
C694 C693 1.380 1_554 S
C694 C695 1.376 . S
C694 H717 0.930 . S
C695 C694 1.376 . S
C695 C696 1.370 . S
C696 C695 1.370 . S
C696 C697 1.398 1_554 S
C696 H718 0.929 1_545 S
C697 C692 1.386 . S
C697 C696 1.398 1_556 S
C697 H719 0.915 1_545 S
C698 O708 1.240 . S
C698 O709 1.289 . S
C699 O710 1.258 . S
C699 O711 1.256 1_545 S
O700 La680 2.521 . S
O700 C682 1.261 . S
O701 La680 2.628 1_545 S
O701 C682 1.243 1_545 S
O702 La680 2.554 . S
O702 C689 1.240 . S
O703 La680 2.757 . S
O703 La681 2.482 1_565 S
O703 C689 1.289 . S
O704 La680 2.470 . S
O704 C690 1.258 . S
O705 La681 2.503 . S
O705 C690 1.256 1_545 S
O706 La681 2.521 . S
O706 C691 1.261 . S
O707 La681 2.628 1_565 S
O707 C691 1.243 1_565 S
O708 La681 2.554 . S
O708 C698 1.240 . S
O709 La680 2.482 1_545 S
O709 La681 2.757 . S
O709 C698 1.289 . S
O710 La681 2.470 . S
O710 C699 1.258 . S
O711 La680 2.503 . S
O711 C699 1.256 1_565 S
H712 C684 0.930 . S
H713 C685 0.930 . S
H714 C687 0.929 1_545 S
H715 C688 0.905 1_545 S
H716 C693 0.930 . S
H717 C694 0.930 . S
H718 C696 0.929 1_565 S
H719 C697 0.915 1_565 S
La720 C722 2.928 . S
La720 O740 2.521 . S
La720 O741 2.628 1_565 S
La720 O742 2.554 . S
La720 O743 2.757 . S
La720 O744 2.470 . S
La720 O749 2.482 1_565 S
La720 O751 2.503 . S
La721 C731 2.928 . S
La721 O743 2.482 1_545 S
La721 O745 2.503 . S
La721 O746 2.521 . S
La721 O747 2.628 1_545 S
La721 O748 2.554 . S
La721 O749 2.757 . S
La721 O750 2.470 . S
C722 La720 2.928 . S
C722 C723 1.503 . S
C722 O740 1.261 . S
C722 O741 1.243 1_565 S
C723 C722 1.503 . S
C723 C724 1.394 . S
C723 C728 1.394 . S
C724 C723 1.394 . S
C724 C725 1.380 . S
C724 H752 0.930 . S
C725 C724 1.380 . S
C725 C726 1.376 . S
C725 H753 0.930 . S
C726 C725 1.376 . S
C726 C727 1.370 . S
C727 C726 1.370 . S
C727 C728 1.399 . S
C727 H754 0.929 1_565 S
C728 C723 1.394 . S
C728 C727 1.399 . S
C728 H755 0.905 1_565 S
C729 O742 1.240 . S
C729 O743 1.289 . S
C730 O744 1.258 . S
C730 O745 1.256 1_565 S
C731 La721 2.928 . S
C731 C732 1.503 . S
C731 O746 1.261 . S
C731 O747 1.243 1_545 S
C732 C731 1.503 . S
C732 C733 1.394 . S
C732 C737 1.386 . S
C733 C732 1.394 . S
C733 C734 1.380 . S
C733 H756 0.930 . S
C734 C733 1.380 . S
C734 C735 1.376 . S
C734 H757 0.930 . S
C735 C734 1.376 . S
C735 C736 1.370 . S
C736 C735 1.370 . S
C736 C737 1.398 . S
C736 H758 0.929 1_545 S
C737 C732 1.386 . S
C737 C736 1.398 . S
C737 H759 0.915 1_545 S
C738 O748 1.240 . S
C738 O749 1.289 . S
C739 O750 1.258 . S
C739 O751 1.256 1_545 S
O740 La720 2.521 . S
O740 C722 1.261 . S
O741 La720 2.628 1_545 S
O741 C722 1.243 1_545 S
O742 La720 2.554 . S
O742 C729 1.240 . S
O743 La720 2.757 . S
O743 La721 2.482 1_565 S
O743 C729 1.289 . S
O744 La720 2.470 . S
O744 C730 1.258 . S
O745 La721 2.503 . S
O745 C730 1.256 1_545 S
O746 La721 2.521 . S
O746 C731 1.261 . S
O747 La721 2.628 1_565 S
O747 C731 1.243 1_565 S
O748 La721 2.554 . S
O748 C738 1.240 . S
O749 La720 2.482 1_545 S
O749 La721 2.757 . S
O749 C738 1.289 . S
O750 La721 2.470 . S
O750 C739 1.258 . S
O751 La720 2.503 . S
O751 C739 1.256 1_565 S
H752 C724 0.930 . S
H753 C725 0.930 . S
H754 C727 0.929 1_545 S
H755 C728 0.905 1_545 S
H756 C733 0.930 . S
H757 C734 0.930 . S
H758 C736 0.929 1_565 S
H759 C737 0.915 1_565 S
La760 C762 2.928 . S
La760 O780 2.521 . S
La760 O781 2.628 . S
La760 O782 2.554 . S
La760 O783 2.757 . S
La760 O784 2.470 . S
La760 O789 2.482 . S
La760 O791 2.503 . S
La761 C771 2.928 . S
La761 O783 2.482 . S
La761 O785 2.503 . S
La761 O786 2.521 . S
La761 O787 2.628 . S
La761 O788 2.554 . S
La761 O789 2.757 . S
La761 O790 2.470 . S
C762 La760 2.928 . S
C762 C763 1.503 . S
C762 O780 1.261 . S
C762 O781 1.243 . S
C763 C762 1.503 . S
C763 C764 1.394 . S
C763 C768 1.373 . S
C764 C763 1.394 . S
C764 C765 1.380 . S
C764 H792 0.930 . S
C765 C764 1.380 . S
C765 C766 1.376 . S
C765 H793 0.930 . S
C766 C765 1.376 . S
C766 C767 1.370 . S
C767 C766 1.370 . S
C767 C768 1.396 . S
C767 H794 0.929 . S
C768 C763 1.373 . S
C768 C767 1.396 . S
C768 H795 0.929 . S
C769 O782 1.240 . S
C769 O783 1.289 . S
C770 O784 1.258 . S
C770 O785 1.256 . S
C771 La761 2.928 . S
C771 C772 1.503 . S
C771 O786 1.261 . S
C771 O787 1.243 . S
C772 C771 1.503 . S
C772 C773 1.394 . S
C772 C777 1.373 . S
C773 C772 1.394 . S
C773 C774 1.380 . S
C773 H796 0.930 . S
C774 C773 1.380 . S
C774 C775 1.376 . S
C774 H797 0.930 . S
C775 C774 1.376 . S
C775 C776 1.370 . S
C776 C775 1.370 . S
C776 C777 1.396 . S
C776 H798 0.929 . S
C777 C772 1.373 . S
C777 C776 1.396 . S
C777 H799 0.929 . S
C778 O788 1.240 . S
C778 O789 1.289 . S
C779 O790 1.258 . S
C779 O791 1.256 . S
O780 La760 2.521 . S
O780 C762 1.261 . S
O781 La760 2.628 . S
O781 C762 1.243 . S
O782 La760 2.554 . S
O782 C769 1.240 . S
O783 La760 2.757 . S
O783 La761 2.482 . S
O783 C769 1.289 . S
O784 La760 2.470 . S
O784 C770 1.258 . S
O785 La761 2.503 . S
O785 C770 1.256 . S
O786 La761 2.521 . S
O786 C771 1.261 . S
O787 La761 2.628 . S
O787 C771 1.243 . S
O788 La761 2.554 . S
O788 C778 1.240 . S
O789 La760 2.482 . S
O789 La761 2.757 . S
O789 C778 1.289 . S
O790 La761 2.470 . S
O790 C779 1.258 . S
O791 La760 2.503 . S
O791 C779 1.256 . S
H792 C764 0.930 . S
H793 C765 0.930 . S
H794 C767 0.929 . S
H795 C768 0.929 . S
H796 C773 0.930 . S
H797 C774 0.930 . S
H798 C776 0.929 . S
H799 C777 0.929 . S
La800 C802 2.928 . S
La800 O820 2.521 . S
La800 O821 2.628 . S
La800 O822 2.554 . S
La800 O823 2.757 . S
La800 O824 2.470 . S
La800 O829 2.482 . S
La800 O831 2.503 . S
La801 C811 2.928 . S
La801 O823 2.482 . S
La801 O825 2.503 . S
La801 O826 2.521 . S
La801 O827 2.628 . S
La801 O828 2.554 . S
La801 O829 2.757 . S
La801 O830 2.470 . S
C802 La800 2.928 . S
C802 C803 1.503 . S
C802 O820 1.261 . S
C802 O821 1.243 . S
C803 C802 1.503 . S
C803 C804 1.394 . S
C803 C808 1.373 . S
C804 C803 1.394 . S
C804 C805 1.380 1_554 S
C804 H832 0.930 . S
C805 C804 1.380 1_556 S
C805 C806 1.376 . S
C805 H833 0.930 . S
C806 C805 1.376 . S
C806 C807 1.370 . S
C807 C806 1.370 . S
C807 C808 1.396 1_556 S
C807 H834 0.929 . S
C808 C803 1.373 . S
C808 C807 1.396 1_554 S
C808 H835 0.929 . S
C809 O822 1.240 . S
C809 O823 1.289 . S
C810 O824 1.258 . S
C810 O825 1.256 . S
C811 La801 2.928 . S
C811 C812 1.503 . S
C811 O826 1.261 . S
C811 O827 1.243 . S
C812 C811 1.503 . S
C812 C813 1.394 . S
C812 C817 1.373 . S
C813 C812 1.394 . S
C813 C814 1.380 . S
C813 H836 0.930 . S
C814 C813 1.380 . S
C814 C815 1.376 . S
C814 H837 0.930 . S
C815 C814 1.376 . S
C815 C816 1.370 . S
C816 C815 1.370 . S
C816 C817 1.396 . S
C816 H838 0.929 . S
C817 C812 1.373 . S
C817 C816 1.396 . S
C817 H839 0.929 . S
C818 O828 1.240 . S
C818 O829 1.289 . S
C819 O830 1.258 . S
C819 O831 1.256 . S
O820 La800 2.521 . S
O820 C802 1.261 . S
O821 La800 2.628 . S
O821 C802 1.243 . S
O822 La800 2.554 . S
O822 C809 1.240 . S
O823 La800 2.757 . S
O823 La801 2.482 . S
O823 C809 1.289 . S
O824 La800 2.470 . S
O824 C810 1.258 . S
O825 La801 2.503 . S
O825 C810 1.256 . S
O826 La801 2.521 . S
O826 C811 1.261 . S
O827 La801 2.628 . S
O827 C811 1.243 . S
O828 La801 2.554 . S
O828 C818 1.240 . S
O829 La800 2.482 . S
O829 La801 2.757 . S
O829 C818 1.289 . S
O830 La801 2.470 . S
O830 C819 1.258 . S
O831 La800 2.503 . S
O831 C819 1.256 . S
H832 C804 0.930 . S
H833 C805 0.930 . S
H834 C807 0.929 . S
H835 C808 0.929 . S
H836 C813 0.930 . S
H837 C814 0.930 . S
H838 C816 0.929 . S
H839 C817 0.929 . S
La840 C842 2.928 . S
La840 O860 2.521 . S
La840 O861 2.628 1_565 S
La840 O862 2.554 . S
La840 O863 2.757 . S
La840 O864 2.470 . S
La840 O869 2.482 1_565 S
La840 O871 2.503 . S
La841 C851 2.928 . S
La841 O863 2.482 1_545 S
La841 O865 2.503 . S
La841 O866 2.521 . S
La841 O867 2.628 1_545 S
La841 O868 2.554 . S
La841 O869 2.757 . S
La841 O870 2.470 . S
C842 La840 2.928 . S
C842 C843 1.503 . S
C842 O860 1.261 . S
C842 O861 1.243 1_565 S
C843 C842 1.503 . S
C843 C844 1.394 . S
C843 C848 1.386 . S
C844 C843 1.394 . S
C844 C845 1.380 1_554 S
C844 H872 0.930 . S
C845 C844 1.380 1_556 S
C845 C846 1.376 . S
C845 H873 0.930 . S
C846 C845 1.376 . S
C846 C847 1.370 . S
C847 C846 1.370 . S
C847 C848 1.398 1_556 S
C847 H874 0.929 1_565 S
C848 C843 1.386 . S
C848 C847 1.398 1_554 S
C848 H875 0.915 1_565 S
C849 O862 1.240 . S
C849 O863 1.289 . S
C850 O864 1.258 . S
C850 O865 1.256 1_565 S
C851 La841 2.928 . S
C851 C852 1.503 . S
C851 O866 1.261 . S
C851 O867 1.243 1_545 S
C852 C851 1.503 . S
C852 C853 1.394 . S
C852 C857 1.394 . S
C853 C852 1.394 . S
C853 C854 1.380 . S
C853 H876 0.930 . S
C854 C853 1.380 . S
C854 C855 1.376 . S
C854 H877 0.930 . S
C855 C854 1.376 . S
C855 C856 1.370 . S
C856 C855 1.370 . S
C856 C857 1.399 . S
C856 H878 0.929 1_545 S
C857 C852 1.394 . S
C857 C856 1.399 . S
C857 H879 0.905 1_545 S
C858 O868 1.240 . S
C858 O869 1.289 . S
C859 O870 1.258 . S
C859 O871 1.256 1_545 S
O860 La840 2.521 . S
O860 C842 1.261 . S
O861 La840 2.628 1_545 S
O861 C842 1.243 1_545 S
O862 La840 2.554 . S
O862 C849 1.240 . S
O863 La840 2.757 . S
O863 La841 2.482 1_565 S
O863 C849 1.289 . S
O864 La840 2.470 . S
O864 C850 1.258 . S
O865 La841 2.503 . S
O865 C850 1.256 1_545 S
O866 La841 2.521 . S
O866 C851 1.261 . S
O867 La841 2.628 1_565 S
O867 C851 1.243 1_565 S
O868 La841 2.554 . S
O868 C858 1.240 . S
O869 La840 2.482 1_545 S
O869 La841 2.757 . S
O869 C858 1.289 . S
O870 La841 2.470 . S
O870 C859 1.258 . S
O871 La840 2.503 . S
O871 C859 1.256 1_565 S
H872 C844 0.930 . S
H873 C845 0.930 . S
H874 C847 0.929 1_545 S
H875 C848 0.915 1_545 S
H876 C853 0.930 . S
H877 C854 0.930 . S
H878 C856 0.929 1_565 S
H879 C857 0.905 1_565 S
La880 C882 2.928 . S
La880 O900 2.521 . S
La880 O901 2.628 1_565 S
La880 O902 2.554 . S
La880 O903 2.757 . S
La880 O904 2.470 . S
La880 O909 2.482 1_565 S
La880 O911 2.503 . S
La881 C891 2.928 . S
La881 O903 2.482 1_545 S
La881 O905 2.503 . S
La881 O906 2.521 . S
La881 O907 2.628 1_545 S
La881 O908 2.554 . S
La881 O909 2.757 . S
La881 O910 2.470 . S
C882 La880 2.928 . S
C882 C883 1.503 . S
C882 O900 1.261 . S
C882 O901 1.243 1_565 S
C883 C882 1.503 . S
C883 C884 1.394 . S
C883 C888 1.386 . S
C884 C883 1.394 . S
C884 C885 1.380 . S
C884 H912 0.930 . S
C885 C884 1.380 . S
C885 C886 1.376 . S
C885 H913 0.930 . S
C886 C885 1.376 . S
C886 C887 1.370 . S
C887 C886 1.370 . S
C887 C888 1.398 . S
C887 H914 0.929 1_565 S
C888 C883 1.386 . S
C888 C887 1.398 . S
C888 H915 0.915 1_565 S
C889 O902 1.240 . S
C889 O903 1.289 . S
C890 O904 1.258 . S
C890 O905 1.256 1_565 S
C891 La881 2.928 . S
C891 C892 1.503 . S
C891 O906 1.261 . S
C891 O907 1.243 1_545 S
C892 C891 1.503 . S
C892 C893 1.394 . S
C892 C897 1.394 . S
C893 C892 1.394 . S
C893 C894 1.380 . S
C893 H916 0.930 . S
C894 C893 1.380 . S
C894 C895 1.376 . S
C894 H917 0.930 . S
C895 C894 1.376 . S
C895 C896 1.370 . S
C896 C895 1.370 . S
C896 C897 1.399 . S
C896 H918 0.929 1_545 S
C897 C892 1.394 . S
C897 C896 1.399 . S
C897 H919 0.905 1_545 S
C898 O908 1.240 . S
C898 O909 1.289 . S
C899 O910 1.258 . S
C899 O911 1.256 1_545 S
O900 La880 2.521 . S
O900 C882 1.261 . S
O901 La880 2.628 1_545 S
O901 C882 1.243 1_545 S
O902 La880 2.554 . S
O902 C889 1.240 . S
O903 La880 2.757 . S
O903 La881 2.482 1_565 S
O903 C889 1.289 . S
O904 La880 2.470 . S
O904 C890 1.258 . S
O905 La881 2.503 . S
O905 C890 1.256 1_545 S
O906 La881 2.521 . S
O906 C891 1.261 . S
O907 La881 2.628 1_565 S
O907 C891 1.243 1_565 S
O908 La881 2.554 . S
O908 C898 1.240 . S
O909 La880 2.482 1_545 S
O909 La881 2.757 . S
O909 C898 1.289 . S
O910 La881 2.470 . S
O910 C899 1.258 . S
O911 La880 2.503 . S
O911 C899 1.256 1_565 S
H912 C884 0.930 . S
H913 C885 0.930 . S
H914 C887 0.929 1_545 S
H915 C888 0.915 1_545 S
H916 C893 0.930 . S
H917 C894 0.930 . S
H918 C896 0.929 1_565 S
H919 C897 0.905 1_565 S
La920 C922 2.928 . S
La920 O940 2.521 . S
La920 O941 2.628 . S
La920 O942 2.554 . S
La920 O943 2.757 . S
La920 O944 2.470 . S
La920 O949 2.482 . S
La920 O951 2.503 . S
La921 C931 2.928 . S
La921 O943 2.482 . S
La921 O945 2.503 . S
La921 O946 2.521 . S
La921 O947 2.628 . S
La921 O948 2.554 . S
La921 O949 2.757 . S
La921 O950 2.470 . S
C922 La920 2.928 . S
C922 C923 1.503 . S
C922 O940 1.261 . S
C922 O941 1.243 . S
C923 C922 1.503 . S
C923 C924 1.394 . S
C923 C928 1.373 . S
C924 C923 1.394 . S
C924 C925 1.380 . S
C924 H952 0.930 . S
C925 C924 1.380 . S
C925 C926 1.376 . S
C925 H953 0.930 . S
C926 C925 1.376 . S
C926 C927 1.370 . S
C927 C926 1.370 . S
C927 C928 1.396 . S
C927 H954 0.929 . S
C928 C923 1.373 . S
C928 C927 1.396 . S
C928 H955 0.929 . S
C929 O942 1.240 . S
C929 O943 1.289 . S
C930 O944 1.258 . S
C930 O945 1.256 . S
C931 La921 2.928 . S
C931 C932 1.503 . S
C931 O946 1.261 . S
C931 O947 1.243 . S
C932 C931 1.503 . S
C932 C933 1.394 . S
C932 C937 1.373 . S
C933 C932 1.394 . S
C933 C934 1.380 . S
C933 H956 0.930 . S
C934 C933 1.380 . S
C934 C935 1.376 . S
C934 H957 0.930 . S
C935 C934 1.376 . S
C935 C936 1.370 . S
C936 C935 1.370 . S
C936 C937 1.396 . S
C936 H958 0.929 . S
C937 C932 1.373 . S
C937 C936 1.396 . S
C937 H959 0.929 . S
C938 O948 1.240 . S
C938 O949 1.289 . S
C939 O950 1.258 . S
C939 O951 1.256 . S
O940 La920 2.521 . S
O940 C922 1.261 . S
O941 La920 2.628 . S
O941 C922 1.243 . S
O942 La920 2.554 . S
O942 C929 1.240 . S
O943 La920 2.757 . S
O943 La921 2.482 . S
O943 C929 1.289 . S
O944 La920 2.470 . S
O944 C930 1.258 . S
O945 La921 2.503 . S
O945 C930 1.256 . S
O946 La921 2.521 . S
O946 C931 1.261 . S
O947 La921 2.628 . S
O947 C931 1.243 . S
O948 La921 2.554 . S
O948 C938 1.240 . S
O949 La920 2.482 . S
O949 La921 2.757 . S
O949 C938 1.289 . S
O950 La921 2.470 . S
O950 C939 1.258 . S
O951 La920 2.503 . S
O951 C939 1.256 . S
H952 C924 0.930 . S
H953 C925 0.930 . S
H954 C927 0.929 . S
H955 C928 0.929 . S
H956 C933 0.930 . S
H957 C934 0.930 . S
H958 C936 0.929 . S
H959 C937 0.929 . S
La960 C962 2.928 . S
La960 O980 2.521 . S
La960 O981 2.628 . S
La960 O982 2.554 . S
La960 O983 2.757 . S
La960 O984 2.470 . S
La960 O989 2.482 . S
La960 O991 2.503 . S
La961 C971 2.928 . S
La961 O983 2.482 . S
La961 O985 2.503 . S
La961 O986 2.521 . S
La961 O987 2.628 . S
La961 O988 2.554 . S
La961 O989 2.757 . S
La961 O990 2.470 . S
C962 La960 2.928 . S
C962 C963 1.503 1_554 S
C962 O980 1.261 . S
C962 O981 1.243 . S
C963 C962 1.503 1_556 S
C963 C964 1.394 . S
C963 C968 1.373 . S
C964 C963 1.394 . S
C964 C965 1.380 . S
C964 H992 0.930 . S
C965 C964 1.380 . S
C965 C966 1.376 . S
C965 H993 0.930 . S
C966 C965 1.376 . S
C966 C967 1.370 . S
C967 C966 1.370 . S
C967 C968 1.396 . S
C967 H994 0.929 . S
C968 C963 1.373 . S
C968 C967 1.396 . S
C968 H995 0.929 . S
C969 O982 1.240 . S
C969 O983 1.289 . S
C970 O984 1.258 . S
C970 O985 1.256 . S
C971 La961 2.928 . S
C971 C972 1.503 . S
C971 O986 1.261 . S
C971 O987 1.243 . S
C972 C971 1.503 . S
C972 C973 1.394 . S
C972 C977 1.373 . S
C973 C972 1.394 . S
C973 C974 1.380 . S
C973 H996 0.930 . S
C974 C973 1.380 . S
C974 C975 1.376 . S
C974 H997 0.930 . S
C975 C974 1.376 . S
C975 C976 1.370 . S
C976 C975 1.370 . S
C976 C977 1.396 . S
C976 H998 0.929 . S
C977 C972 1.373 . S
C977 C976 1.396 . S
C977 H999 0.929 . S
C978 O988 1.240 . S
C978 O989 1.289 . S
C979 O990 1.258 . S
C979 O991 1.256 . S
O980 La960 2.521 . S
O980 C962 1.261 . S
O981 La960 2.628 . S
O981 C962 1.243 . S
O982 La960 2.554 . S
O982 C969 1.240 . S
O983 La960 2.757 . S
O983 La961 2.482 . S
O983 C969 1.289 . S
O984 La960 2.470 . S
O984 C970 1.258 . S
O985 La961 2.503 . S
O985 C970 1.256 . S
O986 La961 2.521 . S
O986 C971 1.261 . S
O987 La961 2.628 . S
O987 C971 1.243 . S
O988 La961 2.554 . S
O988 C978 1.240 . S
O989 La960 2.482 . S
O989 La961 2.757 . S
O989 C978 1.289 . S
O990 La961 2.470 . S
O990 C979 1.258 . S
O991 La960 2.503 . S
O991 C979 1.256 . S
H992 C964 0.930 . S
H993 C965 0.930 . S
H994 C967 0.929 . S
H995 C968 0.929 . S
H996 C973 0.930 . S
H997 C974 0.930 . S
H998 C976 0.929 . S
H999 C977 0.929 . S
La1000 C1002 2.928 . S
La1000 O1020 2.521 . S
La1000 O1021 2.628 . S
La1000 O1022 2.554 . S
La1000 O1023 2.757 . S
La1000 O1024 2.470 . S
La1000 O1029 2.482 . S
La1000 O1031 2.503 . S
La1001 C1011 2.928 . S
La1001 O1023 2.482 . S
La1001 O1025 2.503 . S
La1001 O1026 2.521 . S
La1001 O1027 2.628 . S
La1001 O1028 2.554 . S
La1001 O1029 2.757 . S
La1001 O1030 2.470 . S
C1002 La1000 2.928 . S
C1002 C1003 1.503 1_554 S
C1002 O1020 1.261 . S
C1002 O1021 1.243 . S
C1003 C1002 1.503 1_556 S
C1003 C1004 1.394 . S
C1003 C1008 1.373 . S
C1004 C1003 1.394 . S
C1004 C1005 1.380 . S
C1004 H1032 0.930 . S
C1005 C1004 1.380 . S
C1005 C1006 1.376 . S
C1005 H1033 0.930 . S
C1006 C1005 1.376 . S
C1006 C1007 1.370 . S
C1007 C1006 1.370 . S
C1007 C1008 1.396 . S
C1007 H1034 0.929 . S
C1008 C1003 1.373 . S
C1008 C1007 1.396 . S
C1008 H1035 0.929 . S
C1009 O1022 1.240 . S
C1009 O1023 1.289 . S
C1010 O1024 1.258 . S
C1010 O1025 1.256 . S
C1011 La1001 2.928 . S
C1011 C1012 1.503 . S
C1011 O1026 1.261 . S
C1011 O1027 1.243 . S
C1012 C1011 1.503 . S
C1012 C1013 1.394 . S
C1012 C1017 1.373 . S
C1013 C1012 1.394 . S
C1013 C1014 1.380 . S
C1013 H1036 0.930 . S
C1014 C1013 1.380 . S
C1014 C1015 1.376 . S
C1014 H1037 0.930 . S
C1015 C1014 1.376 . S
C1015 C1016 1.370 . S
C1016 C1015 1.370 . S
C1016 C1017 1.396 . S
C1016 H1038 0.929 . S
C1017 C1012 1.373 . S
C1017 C1016 1.396 . S
C1017 H1039 0.929 . S
C1018 O1028 1.240 . S
C1018 O1029 1.289 . S
C1019 O1030 1.258 . S
C1019 O1031 1.256 . S
O1020 La1000 2.521 . S
O1020 C1002 1.261 . S
O1021 La1000 2.628 . S
O1021 C1002 1.243 . S
O1022 La1000 2.554 . S
O1022 C1009 1.240 . S
O1023 La1000 2.757 . S
O1023 La1001 2.482 . S
O1023 C1009 1.289 . S
O1024 La1000 2.470 . S
O1024 C1010 1.258 . S
O1025 La1001 2.503 . S
O1025 C1010 1.256 . S
O1026 La1001 2.521 . S
O1026 C1011 1.261 . S
O1027 La1001 2.628 . S
O1027 C1011 1.243 . S
O1028 La1001 2.554 . S
O1028 C1018 1.240 . S
O1029 La1000 2.482 . S
O1029 La1001 2.757 . S
O1029 C1018 1.289 . S
O1030 La1001 2.470 . S
O1030 C1019 1.258 . S
O1031 La1000 2.503 . S
O1031 C1019 1.256 . S
H1032 C1004 0.930 . S
H1033 C1005 0.930 . S
H1034 C1007 0.929 . S
H1035 C1008 0.929 . S
H1036 C1013 0.930 . S
H1037 C1014 0.930 . S
H1038 C1016 0.929 . S
H1039 C1017 0.929 . S
La1040 C1042 2.928 . S
La1040 O1060 2.521 . S
La1040 O1061 2.628 . S
La1040 O1062 2.554 . S
La1040 O1063 2.757 1_554 S
La1040 O1064 2.470 . S
La1040 O1069 2.482 . S
La1040 O1071 2.503 . S
La1041 C1051 2.928 . S
La1041 O1063 2.482 . S
La1041 O1065 2.503 1_556 S
La1041 O1066 2.521 . S
La1041 O1067 2.628 . S
La1041 O1068 2.554 1_556 S
La1041 O1069 2.757 1_556 S
La1041 O1070 2.470 . S
C1042 La1040 2.928 . S
C1042 C1043 1.503 . S
C1042 O1060 1.261 . S
C1042 O1061 1.243 . S
C1043 C1042 1.503 . S
C1043 C1044 1.394 . S
C1043 C1048 1.373 . S
C1044 C1043 1.394 . S
C1044 C1045 1.380 . S
C1044 H1072 0.930 . S
C1045 C1044 1.380 . S
C1045 C1046 1.376 . S
C1045 H1073 0.930 . S
C1046 C1045 1.376 . S
C1046 C1047 1.370 . S
C1047 C1046 1.370 . S
C1047 C1048 1.396 . S
C1047 H1074 0.929 . S
C1048 C1043 1.373 . S
C1048 C1047 1.396 . S
C1048 H1075 0.929 . S
C1049 O1062 1.240 . S
C1049 O1063 1.289 1_554 S
C1050 O1064 1.258 . S
C1050 O1065 1.256 . S
C1051 La1041 2.928 . S
C1051 C1052 1.503 . S
C1051 O1066 1.261 . S
C1051 O1067 1.243 . S
C1052 C1051 1.503 . S
C1052 C1053 1.394 . S
C1052 C1057 1.373 . S
C1053 C1052 1.394 . S
C1053 C1054 1.380 . S
C1053 H1076 0.930 . S
C1054 C1053 1.380 . S
C1054 C1055 1.376 . S
C1054 H1077 0.930 . S
C1055 C1054 1.376 . S
C1055 C1056 1.370 . S
C1056 C1055 1.370 . S
C1056 C1057 1.396 . S
C1056 H1078 0.929 . S
C1057 C1052 1.373 . S
C1057 C1056 1.396 . S
C1057 H1079 0.929 . S
C1058 O1068 1.240 . S
C1058 O1069 1.289 . S
C1059 O1070 1.258 . S
C1059 O1071 1.256 1_556 S
O1060 La1040 2.521 . S
O1060 C1042 1.261 . S
O1061 La1040 2.628 . S
O1061 C1042 1.243 . S
O1062 La1040 2.554 . S
O1062 C1049 1.240 . S
O1063 La1040 2.757 1_556 S
O1063 La1041 2.482 . S
O1063 C1049 1.289 1_556 S
O1064 La1040 2.470 . S
O1064 C1050 1.258 . S
O1065 La1041 2.503 1_554 S
O1065 C1050 1.256 . S
O1066 La1041 2.521 . S
O1066 C1051 1.261 . S
O1067 La1041 2.628 . S
O1067 C1051 1.243 . S
O1068 La1041 2.554 1_554 S
O1068 C1058 1.240 . S
O1069 La1040 2.482 . S
O1069 La1041 2.757 1_554 S
O1069 C1058 1.289 . S
O1070 La1041 2.470 . S
O1070 C1059 1.258 . S
O1071 La1040 2.503 . S
O1071 C1059 1.256 1_554 S
H1072 C1044 0.930 . S
H1073 C1045 0.930 . S
H1074 C1047 0.929 . S
H1075 C1048 0.929 . S
H1076 C1053 0.930 . S
H1077 C1054 0.930 . S
H1078 C1056 0.929 . S
H1079 C1057 0.929 . S
La1080 C1082 2.928 . S
La1080 O1100 2.521 . S
La1080 O1101 2.628 . S
La1080 O1102 2.554 . S
La1080 O1103 2.757 1_554 S
La1080 O1104 2.470 . S
La1080 O1109 2.482 . S
La1080 O1111 2.503 . S
La1081 C1091 2.928 . S
La1081 O1103 2.482 . S
La1081 O1105 2.503 1_556 S
La1081 O1106 2.521 . S
La1081 O1107 2.628 . S
La1081 O1108 2.554 1_556 S
La1081 O1109 2.757 1_556 S
La1081 O1110 2.470 . S
C1082 La1080 2.928 . S
C1082 C1083 1.503 . S
C1082 O1100 1.261 . S
C1082 O1101 1.243 . S
C1083 C1082 1.503 . S
C1083 C1084 1.394 . S
C1083 C1088 1.373 . S
C1084 C1083 1.394 . S
C1084 C1085 1.380 . S
C1084 H1112 0.930 . S
C1085 C1084 1.380 . S
C1085 C1086 1.376 . S
C1085 H1113 0.930 . S
C1086 C1085 1.376 . S
C1086 C1087 1.370 . S
C1087 C1086 1.370 . S
C1087 C1088 1.396 . S
C1087 H1114 0.929 . S
C1088 C1083 1.373 . S
C1088 C1087 1.396 . S
C1088 H1115 0.929 . S
C1089 O1102 1.240 . S
C1089 O1103 1.289 1_554 S
C1090 O1104 1.258 . S
C1090 O1105 1.256 . S
C1091 La1081 2.928 . S
C1091 C1092 1.503 . S
C1091 O1106 1.261 . S
C1091 O1107 1.243 . S
C1092 C1091 1.503 . S
C1092 C1093 1.394 . S
C1092 C1097 1.373 . S
C1093 C1092 1.394 . S
C1093 C1094 1.380 . S
C1093 H1116 0.930 . S
C1094 C1093 1.380 . S
C1094 C1095 1.376 . S
C1094 H1117 0.930 . S
C1095 C1094 1.376 . S
C1095 C1096 1.370 . S
C1096 C1095 1.370 . S
C1096 C1097 1.396 . S
C1096 H1118 0.929 . S
C1097 C1092 1.373 . S
C1097 C1096 1.396 . S
C1097 H1119 0.929 . S
C1098 O1108 1.240 . S
C1098 O1109 1.289 . S
C1099 O1110 1.258 . S
C1099 O1111 1.256 1_556 S
O1100 La1080 2.521 . S
O1100 C1082 1.261 . S
O1101 La1080 2.628 . S
O1101 C1082 1.243 . S
O1102 La1080 2.554 . S
O1102 C1089 1.240 . S
O1103 La1080 2.757 1_556 S
O1103 La1081 2.482 . S
O1103 C1089 1.289 1_556 S
O1104 La1080 2.470 . S
O1104 C1090 1.258 . S
O1105 La1081 2.503 1_554 S
O1105 C1090 1.256 . S
O1106 La1081 2.521 . S
O1106 C1091 1.261 . S
O1107 La1081 2.628 . S
O1107 C1091 1.243 . S
O1108 La1081 2.554 1_554 S
O1108 C1098 1.240 . S
O1109 La1080 2.482 . S
O1109 La1081 2.757 1_554 S
O1109 C1098 1.289 . S
O1110 La1081 2.470 . S
O1110 C1099 1.258 . S
O1111 La1080 2.503 . S
O1111 C1099 1.256 1_554 S
H1112 C1084 0.930 . S
H1113 C1085 0.930 . S
H1114 C1087 0.929 . S
H1115 C1088 0.929 . S
H1116 C1093 0.930 . S
H1117 C1094 0.930 . S
H1118 C1096 0.929 . S
H1119 C1097 0.929 . S
La1120 C1122 2.928 . S
La1120 O1140 2.521 . S
La1120 O1141 2.628 . S
La1120 O1142 2.554 . S
La1120 O1143 2.757 . S
La1120 O1144 2.470 . S
La1120 O1149 2.482 . S
La1120 O1151 2.503 . S
La1121 C1131 2.928 . S
La1121 O1143 2.482 . S
La1121 O1145 2.503 . S
La1121 O1146 2.521 . S
La1121 O1147 2.628 . S
La1121 O1148 2.554 . S
La1121 O1149 2.757 . S
La1121 O1150 2.470 . S
C1122 La1120 2.928 . S
C1122 C1123 1.503 . S
C1122 O1140 1.261 . S
C1122 O1141 1.243 . S
C1123 C1122 1.503 . S
C1123 C1124 1.394 . S
C1123 C1128 1.373 . S
C1124 C1123 1.394 . S
C1124 C1125 1.380 . S
C1124 H1152 0.930 . S
C1125 C1124 1.380 . S
C1125 C1126 1.376 . S
C1125 H1153 0.930 . S
C1126 C1125 1.376 . S
C1126 C1127 1.370 . S
C1127 C1126 1.370 . S
C1127 C1128 1.396 . S
C1127 H1154 0.929 . S
C1128 C1123 1.373 . S
C1128 C1127 1.396 . S
C1128 H1155 0.929 . S
C1129 O1142 1.240 . S
C1129 O1143 1.289 . S
C1130 O1144 1.258 . S
C1130 O1145 1.256 . S
C1131 La1121 2.928 . S
C1131 C1132 1.503 1_556 S
C1131 O1146 1.261 . S
C1131 O1147 1.243 . S
C1132 C1131 1.503 1_554 S
C1132 C1133 1.394 . S
C1132 C1137 1.373 . S
C1133 C1132 1.394 . S
C1133 C1134 1.380 . S
C1133 H1156 0.930 . S
C1134 C1133 1.380 . S
C1134 C1135 1.376 . S
C1134 H1157 0.930 . S
C1135 C1134 1.376 . S
C1135 C1136 1.370 . S
C1136 C1135 1.370 . S
C1136 C1137 1.396 . S
C1136 H1158 0.929 . S
C1137 C1132 1.373 . S
C1137 C1136 1.396 . S
C1137 H1159 0.929 . S
C1138 O1148 1.240 . S
C1138 O1149 1.289 . S
C1139 O1150 1.258 . S
C1139 O1151 1.256 . S
O1140 La1120 2.521 . S
O1140 C1122 1.261 . S
O1141 La1120 2.628 . S
O1141 C1122 1.243 . S
O1142 La1120 2.554 . S
O1142 C1129 1.240 . S
O1143 La1120 2.757 . S
O1143 La1121 2.482 . S
O1143 C1129 1.289 . S
O1144 La1120 2.470 . S
O1144 C1130 1.258 . S
O1145 La1121 2.503 . S
O1145 C1130 1.256 . S
O1146 La1121 2.521 . S
O1146 C1131 1.261 . S
O1147 La1121 2.628 . S
O1147 C1131 1.243 . S
O1148 La1121 2.554 . S
O1148 C1138 1.240 . S
O1149 La1120 2.482 . S
O1149 La1121 2.757 . S
O1149 C1138 1.289 . S
O1150 La1121 2.470 . S
O1150 C1139 1.258 . S
O1151 La1120 2.503 . S
O1151 C1139 1.256 . S
H1152 C1124 0.930 . S
H1153 C1125 0.930 . S
H1154 C1127 0.929 . S
H1155 C1128 0.929 . S
H1156 C1133 0.930 . S
H1157 C1134 0.930 . S
H1158 C1136 0.929 . S
H1159 C1137 0.929 . S
La1160 C1162 2.928 . S
La1160 O1180 2.521 . S
La1160 O1181 2.628 . S
La1160 O1182 2.554 . S
La1160 O1183 2.757 . S
La1160 O1184 2.470 . S
La1160 O1189 2.482 . S
La1160 O1191 2.503 . S
La1161 C1171 2.928 . S
La1161 O1183 2.482 . S
La1161 O1185 2.503 . S
La1161 O1186 2.521 . S
La1161 O1187 2.628 . S
La1161 O1188 2.554 . S
La1161 O1189 2.757 . S
La1161 O1190 2.470 . S
C1162 La1160 2.928 . S
C1162 C1163 1.503 . S
C1162 O1180 1.261 . S
C1162 O1181 1.243 . S
C1163 C1162 1.503 . S
C1163 C1164 1.394 . S
C1163 C1168 1.373 . S
C1164 C1163 1.394 . S
C1164 C1165 1.380 . S
C1164 H1192 0.930 . S
C1165 C1164 1.380 . S
C1165 C1166 1.376 . S
C1165 H1193 0.930 . S
C1166 C1165 1.376 . S
C1166 C1167 1.370 . S
C1167 C1166 1.370 . S
C1167 C1168 1.396 . S
C1167 H1194 0.929 . S
C1168 C1163 1.373 . S
C1168 C1167 1.396 . S
C1168 H1195 0.929 . S
C1169 O1182 1.240 . S
C1169 O1183 1.289 . S
C1170 O1184 1.258 . S
C1170 O1185 1.256 . S
C1171 La1161 2.928 . S
C1171 C1172 1.503 1_556 S
C1171 O1186 1.261 . S
C1171 O1187 1.243 . S
C1172 C1171 1.503 1_554 S
C1172 C1173 1.394 . S
C1172 C1177 1.373 . S
C1173 C1172 1.394 . S
C1173 C1174 1.380 . S
C1173 H1196 0.930 . S
C1174 C1173 1.380 . S
C1174 C1175 1.376 . S
C1174 H1197 0.930 . S
C1175 C1174 1.376 . S
C1175 C1176 1.370 . S
C1176 C1175 1.370 . S
C1176 C1177 1.396 . S
C1176 H1198 0.929 . S
C1177 C1172 1.373 . S
C1177 C1176 1.396 . S
C1177 H1199 0.929 . S
C1178 O1188 1.240 . S
C1178 O1189 1.289 . S
C1179 O1190 1.258 . S
C1179 O1191 1.256 . S
O1180 La1160 2.521 . S
O1180 C1162 1.261 . S
O1181 La1160 2.628 . S
O1181 C1162 1.243 . S
O1182 La1160 2.554 . S
O1182 C1169 1.240 . S
O1183 La1160 2.757 . S
O1183 La1161 2.482 . S
O1183 C1169 1.289 . S
O1184 La1160 2.470 . S
O1184 C1170 1.258 . S
O1185 La1161 2.503 . S
O1185 C1170 1.256 . S
O1186 La1161 2.521 . S
O1186 C1171 1.261 . S
O1187 La1161 2.628 . S
O1187 C1171 1.243 . S
O1188 La1161 2.554 . S
O1188 C1178 1.240 . S
O1189 La1160 2.482 . S
O1189 La1161 2.757 . S
O1189 C1178 1.289 . S
O1190 La1161 2.470 . S
O1190 C1179 1.258 . S
O1191 La1160 2.503 . S
O1191 C1179 1.256 . S
H1192 C1164 0.930 . S
H1193 C1165 0.930 . S
H1194 C1167 0.929 . S
H1195 C1168 0.929 . S
H1196 C1173 0.930 . S
H1197 C1174 0.930 . S
H1198 C1176 0.929 . S
H1199 C1177 0.929 . S
La1200 C1202 2.928 . S
La1200 O1220 2.521 . S
La1200 O1221 2.628 . S
La1200 O1222 2.554 1_554 S
La1200 O1223 2.757 1_554 S
La1200 O1224 2.470 . S
La1200 O1229 2.482 . S
La1200 O1231 2.503 1_554 S
La1201 C1211 2.928 . S
La1201 O1223 2.482 . S
La1201 O1225 2.503 . S
La1201 O1226 2.521 . S
La1201 O1227 2.628 . S
La1201 O1228 2.554 . S
La1201 O1229 2.757 1_556 S
La1201 O1230 2.470 . S
C1202 La1200 2.928 . S
C1202 C1203 1.503 . S
C1202 O1220 1.261 . S
C1202 O1221 1.243 . S
C1203 C1202 1.503 . S
C1203 C1204 1.394 . S
C1203 C1208 1.373 . S
C1204 C1203 1.394 . S
C1204 C1205 1.380 . S
C1204 H1232 0.930 . S
C1205 C1204 1.380 . S
C1205 C1206 1.376 . S
C1205 H1233 0.930 . S
C1206 C1205 1.376 . S
C1206 C1207 1.370 . S
C1207 C1206 1.370 . S
C1207 C1208 1.396 . S
C1207 H1234 0.929 . S
C1208 C1203 1.373 . S
C1208 C1207 1.396 . S
C1208 H1235 0.929 . S
C1209 O1222 1.240 . S
C1209 O1223 1.289 . S
C1210 O1224 1.258 . S
C1210 O1225 1.256 1_554 S
C1211 La1201 2.928 . S
C1211 C1212 1.503 . S
C1211 O1226 1.261 . S
C1211 O1227 1.243 . S
C1212 C1211 1.503 . S
C1212 C1213 1.394 . S
C1212 C1217 1.373 . S
C1213 C1212 1.394 . S
C1213 C1214 1.380 . S
C1213 H1236 0.930 . S
C1214 C1213 1.380 . S
C1214 C1215 1.376 . S
C1214 H1237 0.930 . S
C1215 C1214 1.376 . S
C1215 C1216 1.370 . S
C1216 C1215 1.370 . S
C1216 C1217 1.396 . S
C1216 H1238 0.929 . S
C1217 C1212 1.373 . S
C1217 C1216 1.396 . S
C1217 H1239 0.929 . S
C1218 O1228 1.240 . S
C1218 O1229 1.289 1_556 S
C1219 O1230 1.258 . S
C1219 O1231 1.256 . S
O1220 La1200 2.521 . S
O1220 C1202 1.261 . S
O1221 La1200 2.628 . S
O1221 C1202 1.243 . S
O1222 La1200 2.554 1_556 S
O1222 C1209 1.240 . S
O1223 La1200 2.757 1_556 S
O1223 La1201 2.482 . S
O1223 C1209 1.289 . S
O1224 La1200 2.470 . S
O1224 C1210 1.258 . S
O1225 La1201 2.503 . S
O1225 C1210 1.256 1_556 S
O1226 La1201 2.521 . S
O1226 C1211 1.261 . S
O1227 La1201 2.628 . S
O1227 C1211 1.243 . S
O1228 La1201 2.554 . S
O1228 C1218 1.240 . S
O1229 La1200 2.482 . S
O1229 La1201 2.757 1_554 S
O1229 C1218 1.289 1_554 S
O1230 La1201 2.470 . S
O1230 C1219 1.258 . S
O1231 La1200 2.503 1_556 S
O1231 C1219 1.256 . S
H1232 C1204 0.930 . S
H1233 C1205 0.930 . S
H1234 C1207 0.929 . S
H1235 C1208 0.929 . S
H1236 C1213 0.930 . S
H1237 C1214 0.930 . S
H1238 C1216 0.929 . S
H1239 C1217 0.929 . S
La1240 C1242 2.928 . S
La1240 O1260 2.521 . S
La1240 O1261 2.628 . S
La1240 O1262 2.554 1_554 S
La1240 O1263 2.757 1_554 S
La1240 O1264 2.470 . S
La1240 O1269 2.482 . S
La1240 O1271 2.503 1_554 S
La1241 C1251 2.928 . S
La1241 O1263 2.482 . S
La1241 O1265 2.503 . S
La1241 O1266 2.521 . S
La1241 O1267 2.628 . S
La1241 O1268 2.554 . S
La1241 O1269 2.757 1_556 S
La1241 O1270 2.470 . S
C1242 La1240 2.928 . S
C1242 C1243 1.503 . S
C1242 O1260 1.261 . S
C1242 O1261 1.243 . S
C1243 C1242 1.503 . S
C1243 C1244 1.394 . S
C1243 C1248 1.373 . S
C1244 C1243 1.394 . S
C1244 C1245 1.380 . S
C1244 H1272 0.930 . S
C1245 C1244 1.380 . S
C1245 C1246 1.376 . S
C1245 H1273 0.930 . S
C1246 C1245 1.376 . S
C1246 C1247 1.370 . S
C1247 C1246 1.370 . S
C1247 C1248 1.396 . S
C1247 H1274 0.929 . S
C1248 C1243 1.373 . S
C1248 C1247 1.396 . S
C1248 H1275 0.929 . S
C1249 O1262 1.240 . S
C1249 O1263 1.289 . S
C1250 O1264 1.258 . S
C1250 O1265 1.256 1_554 S
C1251 La1241 2.928 . S
C1251 C1252 1.503 . S
C1251 O1266 1.261 . S
C1251 O1267 1.243 . S
C1252 C1251 1.503 . S
C1252 C1253 1.394 . S
C1252 C1257 1.373 . S
C1253 C1252 1.394 . S
C1253 C1254 1.380 . S
C1253 H1276 0.930 . S
C1254 C1253 1.380 . S
C1254 C1255 1.376 . S
C1254 H1277 0.930 . S
C1255 C1254 1.376 . S
C1255 C1256 1.370 . S
C1256 C1255 1.370 . S
C1256 C1257 1.396 . S
C1256 H1278 0.929 . S
C1257 C1252 1.373 . S
C1257 C1256 1.396 . S
C1257 H1279 0.929 . S
C1258 O1268 1.240 . S
C1258 O1269 1.289 1_556 S
C1259 O1270 1.258 . S
C1259 O1271 1.256 . S
O1260 La1240 2.521 . S
O1260 C1242 1.261 . S
O1261 La1240 2.628 . S
O1261 C1242 1.243 . S
O1262 La1240 2.554 1_556 S
O1262 C1249 1.240 . S
O1263 La1240 2.757 1_556 S
O1263 La1241 2.482 . S
O1263 C1249 1.289 . S
O1264 La1240 2.470 . S
O1264 C1250 1.258 . S
O1265 La1241 2.503 . S
O1265 C1250 1.256 1_556 S
O1266 La1241 2.521 . S
O1266 C1251 1.261 . S
O1267 La1241 2.628 . S
O1267 C1251 1.243 . S
O1268 La1241 2.554 . S
O1268 C1258 1.240 . S
O1269 La1240 2.482 . S
O1269 La1241 2.757 1_554 S
O1269 C1258 1.289 1_554 S
O1270 La1241 2.470 . S
O1270 C1259 1.258 . S
O1271 La1240 2.503 1_556 S
O1271 C1259 1.256 . S
H1272 C1244 0.930 . S
H1273 C1245 0.930 . S
H1274 C1247 0.929 . S
H1275 C1248 0.929 . S
H1276 C1253 0.930 . S
H1277 C1254 0.930 . S
H1278 C1256 0.929 . S
H1279 C1257 0.929 . S
H1280 C1286 0.930 . S
H1281 C1290 0.930 . S
H1282 C1295 0.929 . S
H1283 C1293 0.929 . S
H1284 C1288 0.929 . S
H1285 C1294 0.929 . S
C1286 H1280 0.930 . S
C1286 C1287 1.367 . S
C1286 C1294 1.378 . S
C1287 C1286 1.367 . S
C1287 C1295 1.433 . S
C1288 H1284 0.929 . S
C1288 C1290 1.378 . S
C1288 C1292 1.350 . S
C1289 C1292 1.463 1_556 S
C1289 C1294 1.350 . S
C1289 N1297 1.427 . S
C1290 H1281 0.930 . S
C1290 C1288 1.378 . S
C1290 C1291 1.367 . S
C1291 C1290 1.367 . S
C1291 C1293 1.433 . S
C1292 C1288 1.350 . S
C1292 C1289 1.463 1_554 S
C1292 N1296 1.427 . S
C1293 H1283 0.929 . S
C1293 C1291 1.433 . S
C1293 N1296 1.384 . S
C1294 H1285 0.929 . S
C1294 C1286 1.378 . S
C1294 C1289 1.350 . S
C1295 H1282 0.929 . S
C1295 C1287 1.433 . S
C1295 N1297 1.384 . S
N1296 C1292 1.427 . S
N1296 C1293 1.384 . S
N1297 C1289 1.427 . S
N1297 C1295 1.384 . S
H1298 C1304 0.930 . S
H1299 C1308 0.930 . S
H1300 C1313 0.929 . S
H1301 C1311 0.929 . S
H1302 C1306 0.929 . S
H1303 C1312 0.929 . S
C1304 H1298 0.930 . S
C1304 C1305 1.367 1_565 S
C1304 C1312 1.378 . S
C1305 C1304 1.367 1_545 S
C1305 C1313 1.433 . S
C1306 H1302 0.929 . S
C1306 C1308 1.378 . S
C1306 C1310 1.349 . S
C1307 C1310 1.462 1_456 S
C1307 C1312 1.349 1_545 S
C1307 N1315 1.431 1_455 S
C1308 H1299 0.930 . S
C1308 C1306 1.378 . S
C1308 C1309 1.367 1_545 S
C1309 C1308 1.367 1_565 S
C1309 C1311 1.433 . S
C1310 C1306 1.349 . S
C1310 C1307 1.462 1_654 S
C1310 N1314 1.431 1_645 S
C1311 H1301 0.929 . S
C1311 C1309 1.433 . S
C1311 N1314 1.387 1_655 S
C1312 H1303 0.929 . S
C1312 C1304 1.378 . S
C1312 C1307 1.349 1_565 S
C1313 H1300 0.929 . S
C1313 C1305 1.433 . S
C1313 N1315 1.387 1_455 S
N1314 C1310 1.431 1_465 S
N1314 C1311 1.387 1_455 S
N1315 C1307 1.431 1_655 S
N1315 C1313 1.387 1_655 S
H1316 C1322 0.930 . S
H1317 C1326 0.930 . S
H1318 C1331 0.929 . S
H1319 C1329 0.929 . S
H1320 C1324 0.929 . S
H1321 C1330 0.929 . S
C1322 H1316 0.930 . S
C1322 C1323 1.367 1_565 S
C1322 C1330 1.378 . S
C1323 C1322 1.367 1_545 S
C1323 C1331 1.433 . S
C1324 H1320 0.929 . S
C1324 C1326 1.378 . S
C1324 C1328 1.353 . S
C1325 C1328 1.462 . S
C1325 C1330 1.353 1_545 S
C1325 N1333 1.424 . S
C1326 H1317 0.930 . S
C1326 C1324 1.378 . S
C1326 C1327 1.367 1_545 S
C1327 C1326 1.367 1_565 S
C1327 C1329 1.433 . S
C1328 C1324 1.353 . S
C1328 C1325 1.462 . S
C1328 N1332 1.424 1_545 S
C1329 H1319 0.929 . S
C1329 C1327 1.433 . S
C1329 N1332 1.384 . S
C1330 H1321 0.929 . S
C1330 C1322 1.378 . S
C1330 C1325 1.353 1_565 S
C1331 H1318 0.929 . S
C1331 C1323 1.433 . S
C1331 N1333 1.384 . S
N1332 C1328 1.424 1_565 S
N1332 C1329 1.384 . S
N1333 C1325 1.424 . S
N1333 C1331 1.384 . S
H1334 C1340 0.930 . S
H1335 C1344 0.930 . S
H1336 C1349 0.929 . S
H1337 C1347 0.929 . S
H1338 C1342 0.929 . S
H1339 C1348 0.929 . S
C1340 H1334 0.930 . S
C1340 C1341 1.367 . S
C1340 C1348 1.378 . S
C1341 C1340 1.367 . S
C1341 C1349 1.433 . S
C1342 H1338 0.929 . S
C1342 C1344 1.378 . S
C1342 C1346 1.350 . S
C1343 C1346 1.463 1_455 S
C1343 C1348 1.350 . S
C1343 N1351 1.427 . S
C1344 H1335 0.930 . S
C1344 C1342 1.378 . S
C1344 C1345 1.367 . S
C1345 C1344 1.367 . S
C1345 C1347 1.433 . S
C1346 C1342 1.350 . S
C1346 C1343 1.463 1_655 S
C1346 N1350 1.427 . S
C1347 H1337 0.929 . S
C1347 C1345 1.433 . S
C1347 N1350 1.384 . S
C1348 H1339 0.929 . S
C1348 C1340 1.378 . S
C1348 C1343 1.350 . S
C1349 H1336 0.929 . S
C1349 C1341 1.433 . S
C1349 N1351 1.384 . S
N1350 C1346 1.427 . S
N1350 C1347 1.384 . S
N1351 C1343 1.427 . S
N1351 C1349 1.384 . S
H1352 C1358 0.930 . S
H1353 C1362 0.930 . S
H1354 C1367 0.929 . S
H1355 C1365 0.929 . S
H1356 C1360 0.929 . S
H1357 C1366 0.929 . S
C1358 H1352 0.930 . S
C1358 C1359 1.367 . S
C1358 C1366 1.378 . S
C1359 C1358 1.367 . S
C1359 C1367 1.433 . S
C1360 H1356 0.929 . S
C1360 C1362 1.378 . S
C1360 C1364 1.350 . S
C1361 C1364 1.463 1_556 S
C1361 C1366 1.350 . S
C1361 N1369 1.427 . S
C1362 H1353 0.930 . S
C1362 C1360 1.378 . S
C1362 C1363 1.367 . S
C1363 C1362 1.367 . S
C1363 C1365 1.433 . S
C1364 C1360 1.350 . S
C1364 C1361 1.463 1_554 S
C1364 N1368 1.427 . S
C1365 H1355 0.929 . S
C1365 C1363 1.433 . S
C1365 N1368 1.384 . S
C1366 H1357 0.929 . S
C1366 C1358 1.378 . S
C1366 C1361 1.350 . S
C1367 H1354 0.929 . S
C1367 C1359 1.433 . S
C1367 N1369 1.384 . S
N1368 C1364 1.427 . S
N1368 C1365 1.384 . S
N1369 C1361 1.427 . S
N1369 C1367 1.384 . S
H1370 C1376 0.930 . S
H1371 C1380 0.930 . S
H1372 C1385 0.929 . S
H1373 C1383 0.929 . S
H1374 C1378 0.929 . S
H1375 C1384 0.929 . S
C1376 H1370 0.930 . S
C1376 C1377 1.367 1_545 S
C1376 C1384 1.378 . S
C1377 C1376 1.367 1_565 S
C1377 C1385 1.433 . S
C1378 H1374 0.929 . S
C1378 C1380 1.378 . S
C1378 C1382 1.348 1_565 S
C1379 C1382 1.462 1_565 S
C1379 C1384 1.346 1_565 S
C1379 N1387 1.432 . S
C1380 H1371 0.930 . S
C1380 C1378 1.378 . S
C1380 C1381 1.367 1_565 S
C1381 C1380 1.367 1_545 S
C1381 C1383 1.433 . S
C1382 C1378 1.348 1_545 S
C1382 C1379 1.462 1_545 S
C1382 N1386 1.430 . S
C1383 H1373 0.929 . S
C1383 C1381 1.433 . S
C1383 N1386 1.384 . S
C1384 H1375 0.929 . S
C1384 C1376 1.378 . S
C1384 C1379 1.346 1_545 S
C1385 H1372 0.929 . S
C1385 C1377 1.433 . S
C1385 N1387 1.384 . S
N1386 C1382 1.430 . S
N1386 C1383 1.384 . S
N1387 C1379 1.432 . S
N1387 C1385 1.384 . S
H1388 C1394 0.930 . S
H1389 C1398 0.930 . S
H1390 C1403 0.929 . S
H1391 C1401 0.929 . S
H1392 C1396 0.929 1_655 S
H1393 C1402 0.873 1_455 S
C1394 H1388 0.930 . S
C1394 C1395 1.367 . S
C1394 C1402 1.421 . S
C1395 C1394 1.367 . S
C1395 C1403 1.433 . S
C1396 H1392 0.929 1_455 S
C1396 C1398 1.378 . S
C1396 C1400 1.350 . S
C1397 C1400 1.463 1_655 S
C1397 C1402 1.368 . S
C1397 N1405 1.427 . S
C1398 H1389 0.930 . S
C1398 C1396 1.378 . S
C1398 C1399 1.367 . S
C1399 C1398 1.367 . S
C1399 C1401 1.433 . S
C1400 C1396 1.350 . S
C1400 C1397 1.463 1_455 S
C1400 N1404 1.427 . S
C1401 H1391 0.929 . S
C1401 C1399 1.433 . S
C1401 N1404 1.384 . S
C1402 H1393 0.873 1_655 S
C1402 C1394 1.421 . S
C1402 C1397 1.368 . S
C1403 H1390 0.929 . S
C1403 C1395 1.433 . S
C1403 N1405 1.384 . S
N1404 C1400 1.427 . S
N1404 C1401 1.384 . S
N1405 C1397 1.427 . S
N1405 C1403 1.384 . S
H1406 C1412 0.930 . S
H1407 C1416 0.930 . S
H1408 C1421 0.929 . S
H1409 C1419 0.929 . S
H1410 C1414 0.929 . S
H1411 C1420 0.929 . S
C1412 H1406 0.930 . S
C1412 C1413 1.367 . S
C1412 C1420 1.378 . S
C1413 C1412 1.367 . S
C1413 C1421 1.433 . S
C1414 H1410 0.929 . S
C1414 C1416 1.378 . S
C1414 C1418 1.350 . S
C1415 C1418 1.463 . S
C1415 C1420 1.350 . S
C1415 N1423 1.427 . S
C1416 H1407 0.930 . S
C1416 C1414 1.378 . S
C1416 C1417 1.367 . S
C1417 C1416 1.367 . S
C1417 C1419 1.433 . S
C1418 C1414 1.350 . S
C1418 C1415 1.463 . S
C1418 N1422 1.427 . S
C1419 H1409 0.929 . S
C1419 C1417 1.433 . S
C1419 N1422 1.384 . S
C1420 H1411 0.929 . S
C1420 C1412 1.378 . S
C1420 C1415 1.350 . S
C1421 H1408 0.929 . S
C1421 C1413 1.433 . S
C1421 N1423 1.384 . S
N1422 C1418 1.427 . S
N1422 C1419 1.384 . S
N1423 C1415 1.427 . S
N1423 C1421 1.384 . S
H1424 C1430 0.930 . S
H1425 C1434 0.930 . S
H1426 C1439 0.929 . S
H1427 C1437 0.929 . S
H1428 C1432 0.929 1_655 S
H1429 C1438 0.929 1_455 S
C1430 H1424 0.930 . S
C1430 C1431 1.367 . S
C1430 C1438 1.378 . S
C1431 C1430 1.367 . S
C1431 C1439 1.433 . S
C1432 H1428 0.929 1_455 S
C1432 C1434 1.378 . S
C1432 C1436 1.350 . S
C1433 C1436 1.463 1_655 S
C1433 C1438 1.350 . S
C1433 N1441 1.427 . S
C1434 H1425 0.930 . S
C1434 C1432 1.378 . S
C1434 C1435 1.367 . S
C1435 C1434 1.367 . S
C1435 C1437 1.433 . S
C1436 C1432 1.350 . S
C1436 C1433 1.463 1_455 S
C1436 N1440 1.427 . S
C1437 H1427 0.929 . S
C1437 C1435 1.433 . S
C1437 N1440 1.384 . S
C1438 H1429 0.929 1_655 S
C1438 C1430 1.378 . S
C1438 C1433 1.350 . S
C1439 H1426 0.929 . S
C1439 C1431 1.433 . S
C1439 N1441 1.384 . S
N1440 C1436 1.427 . S
N1440 C1437 1.384 . S
N1441 C1433 1.427 . S
N1441 C1439 1.384 . S
H1442 C1448 0.930 . S
H1443 C1452 0.930 . S
H1444 C1457 0.929 . S
H1445 C1455 0.929 . S
H1446 C1450 0.929 . S
H1447 C1456 0.929 . S
C1448 H1442 0.930 . S
C1448 C1449 1.367 . S
C1448 C1456 1.378 . S
C1449 C1448 1.367 . S
C1449 C1457 1.433 . S
C1450 H1446 0.929 . S
C1450 C1452 1.378 . S
C1450 C1454 1.350 . S
C1451 C1454 1.463 . S
C1451 C1456 1.350 . S
C1451 N1459 1.427 . S
C1452 H1443 0.930 . S
C1452 C1450 1.378 . S
C1452 C1453 1.367 . S
C1453 C1452 1.367 . S
C1453 C1455 1.433 . S
C1454 C1450 1.350 . S
C1454 C1451 1.463 . S
C1454 N1458 1.427 . S
C1455 H1445 0.929 . S
C1455 C1453 1.433 . S
C1455 N1458 1.384 . S
C1456 H1447 0.929 . S
C1456 C1448 1.378 . S
C1456 C1451 1.350 . S
C1457 H1444 0.929 . S
C1457 C1449 1.433 . S
C1457 N1459 1.384 . S
N1458 C1454 1.427 . S
N1458 C1455 1.384 . S
N1459 C1451 1.427 . S
N1459 C1457 1.384 . S
H1460 C1466 0.930 . S
H1461 C1470 0.930 . S
H1462 C1475 0.929 . S
H1463 C1473 0.929 . S
H1464 C1468 0.929 . S
H1465 C1474 0.929 . S
C1466 H1460 0.930 . S
C1466 C1467 1.367 . S
C1466 C1474 1.378 . S
C1467 C1466 1.367 . S
C1467 C1475 1.433 . S
C1468 H1464 0.929 . S
C1468 C1470 1.378 . S
C1468 C1472 1.350 . S
C1469 C1472 1.463 . S
C1469 C1474 1.350 . S
C1469 N1477 1.427 . S
C1470 H1461 0.930 . S
C1470 C1468 1.378 . S
C1470 C1471 1.367 . S
C1471 C1470 1.367 . S
C1471 C1473 1.433 . S
C1472 C1468 1.350 . S
C1472 C1469 1.463 . S
C1472 N1476 1.427 . S
C1473 H1463 0.929 . S
C1473 C1471 1.433 . S
C1473 N1476 1.384 . S
C1474 H1465 0.929 . S
C1474 C1466 1.378 . S
C1474 C1469 1.350 . S
C1475 H1462 0.929 . S
C1475 C1467 1.433 . S
C1475 N1477 1.384 . S
N1476 C1472 1.427 . S
N1476 C1473 1.384 . S
N1477 C1469 1.427 . S
N1477 C1475 1.384 . S
H1478 C1484 0.930 . S
H1479 C1488 0.930 . S
H1480 C1493 0.929 . S
H1481 C1491 0.929 . S
H1482 C1486 0.929 . S
H1483 C1492 0.929 . S
C1484 H1478 0.930 . S
C1484 C1485 1.367 . S
C1484 C1492 1.378 . S
C1485 C1484 1.367 . S
C1485 C1493 1.433 . S
C1486 H1482 0.929 . S
C1486 C1488 1.378 . S
C1486 C1490 1.350 . S
C1487 C1490 1.463 . S
C1487 C1492 1.350 . S
C1487 N1495 1.427 . S
C1488 H1479 0.930 . S
C1488 C1486 1.378 . S
C1488 C1489 1.367 . S
C1489 C1488 1.367 . S
C1489 C1491 1.433 . S
C1490 C1486 1.350 . S
C1490 C1487 1.463 . S
C1490 N1494 1.427 . S
C1491 H1481 0.929 . S
C1491 C1489 1.433 . S
C1491 N1494 1.384 . S
C1492 H1483 0.929 . S
C1492 C1484 1.378 . S
C1492 C1487 1.350 . S
C1493 H1480 0.929 . S
C1493 C1485 1.433 . S
C1493 N1495 1.384 . S
N1494 C1490 1.427 . S
N1494 C1491 1.384 . S
N1495 C1487 1.427 . S
N1495 C1493 1.384 . S
H1496 C1502 0.930 . S
H1497 C1506 0.930 . S
H1498 C1511 0.929 . S
H1499 C1509 0.929 . S
H1500 C1504 0.929 . S
H1501 C1510 0.929 . S
C1502 H1496 0.930 . S
C1502 C1503 1.367 1_545 S
C1502 C1510 1.378 . S
C1503 C1502 1.367 1_565 S
C1503 C1511 1.433 . S
C1504 H1500 0.929 . S
C1504 C1506 1.378 . S
C1504 C1508 1.351 1_565 S
C1505 C1508 1.462 1_565 S
C1505 C1510 1.346 1_565 S
C1505 N1513 1.432 . S
C1506 H1497 0.930 . S
C1506 C1504 1.378 . S
C1506 C1507 1.367 1_565 S
C1507 C1506 1.367 1_545 S
C1507 C1509 1.433 . S
C1508 C1504 1.351 1_545 S
C1508 C1505 1.462 1_545 S
C1508 N1512 1.427 . S
C1509 H1499 0.929 . S
C1509 C1507 1.433 . S
C1509 N1512 1.384 . S
C1510 H1501 0.929 . S
C1510 C1502 1.378 . S
C1510 C1505 1.346 1_545 S
C1511 H1498 0.929 . S
C1511 C1503 1.433 . S
C1511 N1513 1.384 . S
N1512 C1508 1.427 . S
N1512 C1509 1.384 . S
N1513 C1505 1.432 . S
N1513 C1511 1.384 . S
H1514 C1520 0.930 . S
H1515 C1524 0.930 . S
H1516 C1529 0.929 . S
H1517 C1527 0.929 . S
H1518 C1522 0.929 . S
H1519 C1528 0.929 . S
C1520 H1514 0.930 . S
C1520 C1521 1.367 . S
C1520 C1528 1.378 . S
C1521 C1520 1.367 . S
C1521 C1529 1.433 . S
C1522 H1518 0.929 . S
C1522 C1524 1.378 . S
C1522 C1526 1.350 . S
C1523 C1526 1.463 . S
C1523 C1528 1.350 . S
C1523 N1531 1.427 . S
C1524 H1515 0.930 . S
C1524 C1522 1.378 . S
C1524 C1525 1.367 . S
C1525 C1524 1.367 . S
C1525 C1527 1.433 . S
C1526 C1522 1.350 . S
C1526 C1523 1.463 . S
C1526 N1530 1.427 . S
C1527 H1517 0.929 . S
C1527 C1525 1.433 . S
C1527 N1530 1.384 . S
C1528 H1519 0.929 . S
C1528 C1520 1.378 . S
C1528 C1523 1.350 . S
C1529 H1516 0.929 . S
C1529 C1521 1.433 . S
C1529 N1531 1.384 . S
N1530 C1526 1.427 . S
N1530 C1527 1.384 . S
N1531 C1523 1.427 . S
N1531 C1529 1.384 . S
H1532 C1538 0.930 . S
H1533 C1542 0.930 . S
H1534 C1547 0.929 . S
H1535 C1545 0.929 . S
H1536 C1540 0.929 . S
H1537 C1546 0.929 . S
C1538 H1532 0.930 . S
C1538 C1539 1.367 . S
C1538 C1546 1.378 . S
C1539 C1538 1.367 . S
C1539 C1547 1.433 . S
C1540 H1536 0.929 . S
C1540 C1542 1.378 . S
C1540 C1544 1.350 . S
C1541 C1544 1.463 . S
C1541 C1546 1.350 . S
C1541 N1549 1.427 . S
C1542 H1533 0.930 . S
C1542 C1540 1.378 . S
C1542 C1543 1.367 . S
C1543 C1542 1.367 . S
C1543 C1545 1.433 . S
C1544 C1540 1.350 . S
C1544 C1541 1.463 . S
C1544 N1548 1.427 . S
C1545 H1535 0.929 . S
C1545 C1543 1.433 . S
C1545 N1548 1.384 . S
C1546 H1537 0.929 . S
C1546 C1538 1.378 . S
C1546 C1541 1.350 . S
C1547 H1534 0.929 . S
C1547 C1539 1.433 . S
C1547 N1549 1.384 . S
N1548 C1544 1.427 . S
N1548 C1545 1.384 . S
N1549 C1541 1.427 . S
N1549 C1547 1.384 . S
H1550 C1556 0.930 . S
H1551 C1560 0.930 . S
H1552 C1565 0.929 . S
H1553 C1563 0.929 . S
H1554 C1558 0.940 . S
H1555 C1564 0.940 . S
C1556 H1550 0.930 . S
C1556 C1557 1.367 . S
C1556 C1564 1.378 . S
C1557 C1556 1.367 . S
C1557 C1565 1.433 . S
C1558 H1554 0.940 . S
C1558 C1560 1.378 . S
C1558 C1562 1.350 . S
C1559 C1562 1.463 1_556 S
C1559 C1564 1.350 . S
C1559 N1567 1.427 . S
C1560 H1551 0.930 . S
C1560 C1558 1.378 . S
C1560 C1561 1.367 . S
C1561 C1560 1.367 . S
C1561 C1563 1.433 . S
C1562 C1558 1.350 . S
C1562 C1559 1.463 1_554 S
C1562 N1566 1.427 . S
C1563 H1553 0.929 . S
C1563 C1561 1.433 . S
C1563 N1566 1.384 . S
C1564 H1555 0.940 . S
C1564 C1556 1.378 . S
C1564 C1559 1.350 . S
C1565 H1552 0.929 . S
C1565 C1557 1.433 . S
C1565 N1567 1.384 . S
N1566 C1562 1.427 . S
N1566 C1563 1.384 . S
N1567 C1559 1.427 . S
N1567 C1565 1.384 . S
H1568 C1574 0.930 . S
H1569 C1578 0.930 . S
H1570 C1583 0.929 . S
H1571 C1581 0.929 . S
H1572 C1576 0.929 . S
H1573 C1582 0.929 . S
C1574 H1568 0.930 . S
C1574 C1575 1.367 . S
C1574 C1582 1.378 . S
C1575 C1574 1.367 . S
C1575 C1583 1.433 . S
C1576 H1572 0.929 . S
C1576 C1578 1.378 . S
C1576 C1580 1.350 . S
C1577 C1580 1.463 . S
C1577 C1582 1.350 . S
C1577 N1585 1.427 . S
C1578 H1569 0.930 . S
C1578 C1576 1.378 . S
C1578 C1579 1.367 . S
C1579 C1578 1.367 . S
C1579 C1581 1.433 . S
C1580 C1576 1.350 . S
C1580 C1577 1.463 . S
C1580 N1584 1.427 . S
C1581 H1571 0.929 . S
C1581 C1579 1.433 . S
C1581 N1584 1.384 . S
C1582 H1573 0.929 . S
C1582 C1574 1.378 . S
C1582 C1577 1.350 . S
C1583 H1570 0.929 . S
C1583 C1575 1.433 . S
C1583 N1585 1.384 . S
N1584 C1580 1.427 . S
N1584 C1581 1.384 . S
N1585 C1577 1.427 . S
N1585 C1583 1.384 . S
H1586 C1592 0.930 . S
H1587 C1596 0.930 . S
H1588 C1601 0.929 . S
H1589 C1599 0.929 . S
H1590 C1594 0.929 . S
H1591 C1600 0.929 . S
C1592 H1586 0.930 . S
C1592 C1593 1.367 . S
C1592 C1600 1.378 . S
C1593 C1592 1.367 . S
C1593 C1601 1.433 1_545 S
C1594 H1590 0.929 . S
C1594 C1596 1.378 . S
C1594 C1598 1.350 1_565 S
C1595 C1598 1.463 . S
C1595 C1600 1.350 . S
C1595 N1603 1.427 1_545 S
C1596 H1587 0.930 . S
C1596 C1594 1.378 . S
C1596 C1597 1.367 1_565 S
C1597 C1596 1.367 1_545 S
C1597 C1599 1.433 . S
C1598 C1594 1.350 1_545 S
C1598 C1595 1.463 . S
C1598 N1602 1.427 . S
C1599 H1589 0.929 . S
C1599 C1597 1.433 . S
C1599 N1602 1.384 . S
C1600 H1591 0.929 . S
C1600 C1592 1.378 . S
C1600 C1595 1.350 . S
C1601 H1588 0.929 . S
C1601 C1593 1.433 1_565 S
C1601 N1603 1.384 . S
N1602 C1598 1.427 . S
N1602 C1599 1.384 . S
N1603 C1595 1.427 1_565 S
N1603 C1601 1.384 . S
H1604 C1610 0.930 . S
H1605 C1614 0.930 . S
H1606 C1619 0.929 . S
H1607 C1617 0.929 . S
H1608 C1612 0.929 . S
H1609 C1618 0.929 . S
C1610 H1604 0.930 . S
C1610 C1611 1.367 . S
C1610 C1618 1.378 . S
C1611 C1610 1.367 . S
C1611 C1619 1.433 1_545 S
C1612 H1608 0.929 . S
C1612 C1614 1.378 . S
C1612 C1616 1.350 1_565 S
C1613 C1616 1.463 . S
C1613 C1618 1.350 . S
C1613 N1621 1.427 1_545 S
C1614 H1605 0.930 . S
C1614 C1612 1.378 . S
C1614 C1615 1.367 1_565 S
C1615 C1614 1.367 1_545 S
C1615 C1617 1.433 . S
C1616 C1612 1.350 1_545 S
C1616 C1613 1.463 . S
C1616 N1620 1.427 . S
C1617 H1607 0.929 . S
C1617 C1615 1.433 . S
C1617 N1620 1.384 . S
C1618 H1609 0.929 . S
C1618 C1610 1.378 . S
C1618 C1613 1.350 . S
C1619 H1606 0.929 . S
C1619 C1611 1.433 1_565 S
C1619 N1621 1.384 . S
N1620 C1616 1.427 . S
N1620 C1617 1.384 . S
N1621 C1613 1.427 1_565 S
N1621 C1619 1.384 . S
H1622 C1628 0.930 . S
H1623 C1632 0.930 . S
H1624 C1637 0.929 . S
H1625 C1635 0.943 . S
H1626 C1630 0.929 . S
H1627 C1636 0.929 . S
C1628 H1622 0.930 . S
C1628 C1629 1.367 . S
C1628 C1636 1.378 . S
C1629 C1628 1.367 . S
C1629 C1637 1.433 . S
C1630 H1626 0.929 . S
C1630 C1632 1.378 . S
C1630 C1634 1.350 . S
C1631 C1634 1.463 . S
C1631 C1636 1.350 . S
C1631 N1639 1.427 . S
C1632 H1623 0.930 . S
C1632 C1630 1.378 . S
C1632 C1633 1.367 . S
C1633 C1632 1.367 . S
C1633 C1635 1.433 . S
C1634 C1630 1.350 . S
C1634 C1631 1.463 . S
C1634 N1638 1.427 . S
C1635 H1625 0.943 . S
C1635 C1633 1.433 . S
C1635 N1638 1.384 . S
C1636 H1627 0.929 . S
C1636 C1628 1.378 . S
C1636 C1631 1.350 . S
C1637 H1624 0.929 . S
C1637 C1629 1.433 . S
C1637 N1639 1.384 . S
N1638 C1634 1.427 . S
N1638 C1635 1.384 . S
N1639 C1631 1.427 . S
N1639 C1637 1.384 . S
H1640 C1646 0.930 . S
H1641 C1650 0.930 . S
H1642 C1655 0.929 . S
H1643 C1653 0.929 . S
H1644 C1648 0.929 . S
H1645 C1654 0.929 . S
C1646 H1640 0.930 . S
C1646 C1647 1.367 . S
C1646 C1654 1.378 . S
C1647 C1646 1.367 . S
C1647 C1655 1.433 . S
C1648 H1644 0.929 . S
C1648 C1650 1.378 . S
C1648 C1652 1.350 . S
C1649 C1652 1.463 . S
C1649 C1654 1.350 . S
C1649 N1657 1.427 . S
C1650 H1641 0.930 . S
C1650 C1648 1.378 . S
C1650 C1651 1.367 . S
C1651 C1650 1.367 . S
C1651 C1653 1.433 . S
C1652 C1648 1.350 . S
C1652 C1649 1.463 . S
C1652 N1656 1.427 . S
C1653 H1643 0.929 . S
C1653 C1651 1.433 . S
C1653 N1656 1.384 . S
C1654 H1645 0.929 . S
C1654 C1646 1.378 . S
C1654 C1649 1.350 . S
C1655 H1642 0.929 . S
C1655 C1647 1.433 . S
C1655 N1657 1.384 . S
N1656 C1652 1.427 . S
N1656 C1653 1.384 . S
N1657 C1649 1.427 . S
N1657 C1655 1.384 . S
H1658 C1664 0.930 . S
H1659 C1668 0.930 . S
H1660 C1673 0.929 . S
H1661 C1671 0.929 . S
H1662 C1666 0.929 . S
H1663 C1672 0.929 . S
C1664 H1658 0.930 . S
C1664 C1665 1.367 . S
C1664 C1672 1.378 . S
C1665 C1664 1.367 . S
C1665 C1673 1.433 1_565 S
C1666 H1662 0.929 . S
C1666 C1668 1.378 . S
C1666 C1670 1.350 1_545 S
C1667 C1670 1.463 . S
C1667 C1672 1.350 . S
C1667 N1675 1.427 1_565 S
C1668 H1659 0.930 . S
C1668 C1666 1.378 . S
C1668 C1669 1.367 1_545 S
C1669 C1668 1.367 1_565 S
C1669 C1671 1.433 . S
C1670 C1666 1.350 1_565 S
C1670 C1667 1.463 . S
C1670 N1674 1.427 . S
C1671 H1661 0.929 . S
C1671 C1669 1.433 . S
C1671 N1674 1.384 . S
C1672 H1663 0.929 . S
C1672 C1664 1.378 . S
C1672 C1667 1.350 . S
C1673 H1660 0.929 . S
C1673 C1665 1.433 1_545 S
C1673 N1675 1.384 . S
N1674 C1670 1.427 . S
N1674 C1671 1.384 . S
N1675 C1667 1.427 1_545 S
N1675 C1673 1.384 . S
H1676 C1682 0.930 . S
H1677 C1686 0.937 . S
H1678 C1691 0.937 . S
H1679 C1689 0.929 . S
H1680 C1684 0.935 . S
H1681 C1690 0.929 . S
C1682 H1676 0.930 . S
C1682 C1683 1.367 . S
C1682 C1690 1.378 . S
C1683 C1682 1.367 . S
C1683 C1691 1.427 1_565 S
C1684 H1680 0.935 . S
C1684 C1686 1.378 . S
C1684 C1688 1.344 1_545 S
C1685 C1688 1.463 . S
C1685 C1690 1.350 . S
C1685 N1693 1.421 1_565 S
C1686 H1677 0.937 . S
C1686 C1684 1.378 . S
C1686 C1687 1.361 1_545 S
C1687 C1686 1.361 1_565 S
C1687 C1689 1.433 . S
C1688 C1684 1.344 1_565 S
C1688 C1685 1.463 . S
C1688 N1692 1.427 . S
C1689 H1679 0.929 . S
C1689 C1687 1.433 . S
C1689 N1692 1.384 . S
C1690 H1681 0.929 . S
C1690 C1682 1.378 . S
C1690 C1685 1.350 . S
C1691 H1678 0.937 . S
C1691 C1683 1.427 1_545 S
C1691 N1693 1.384 . S
N1692 C1688 1.427 . S
N1692 C1689 1.384 . S
N1693 C1685 1.421 1_545 S
N1693 C1691 1.384 . S
H1694 C1700 0.930 . S
H1695 C1704 0.930 . S
H1696 C1709 0.929 . S
H1697 C1707 0.929 . S
H1698 C1702 0.929 . S
H1699 C1708 0.929 . S
C1700 H1694 0.930 . S
C1700 C1701 1.367 . S
C1700 C1708 1.378 . S
C1701 C1700 1.367 . S
C1701 C1709 1.433 . S
C1702 H1698 0.929 . S
C1702 C1704 1.378 . S
C1702 C1706 1.350 . S
C1703 C1706 1.463 . S
C1703 C1708 1.350 . S
C1703 N1711 1.427 . S
C1704 H1695 0.930 . S
C1704 C1702 1.378 . S
C1704 C1705 1.367 . S
C1705 C1704 1.367 . S
C1705 C1707 1.433 . S
C1706 C1702 1.350 . S
C1706 C1703 1.463 . S
C1706 N1710 1.427 . S
C1707 H1697 0.929 . S
C1707 C1705 1.433 . S
C1707 N1710 1.384 . S
C1708 H1699 0.929 . S
C1708 C1700 1.378 . S
C1708 C1703 1.350 . S
C1709 H1696 0.929 . S
C1709 C1701 1.433 . S
C1709 N1711 1.384 . S
N1710 C1706 1.427 . S
N1710 C1707 1.384 . S
N1711 C1703 1.427 . S
N1711 C1709 1.384 . S
H1712 C1718 0.930 . S
H1713 C1722 0.930 . S
H1714 C1727 0.929 . S
H1715 C1725 0.929 . S
H1716 C1720 0.929 . S
H1717 C1726 0.929 . S
C1718 H1712 0.930 . S
C1718 C1719 1.367 . S
C1718 C1726 1.378 . S
C1719 C1718 1.367 . S
C1719 C1727 1.433 . S
C1720 H1716 0.929 . S
C1720 C1722 1.378 . S
C1720 C1724 1.350 . S
C1721 C1724 1.463 . S
C1721 C1726 1.350 . S
C1721 N1729 1.427 . S
C1722 H1713 0.930 . S
C1722 C1720 1.378 . S
C1722 C1723 1.367 . S
C1723 C1722 1.367 . S
C1723 C1725 1.433 . S
C1724 C1720 1.350 . S
C1724 C1721 1.463 . S
C1724 N1728 1.427 . S
C1725 H1715 0.929 . S
C1725 C1723 1.433 . S
C1725 N1728 1.384 . S
C1726 H1717 0.929 . S
C1726 C1718 1.378 . S
C1726 C1721 1.350 . S
C1727 H1714 0.929 . S
C1727 C1719 1.433 . S
C1727 N1729 1.384 . S
N1728 C1724 1.427 . S
N1728 C1725 1.384 . S
N1729 C1721 1.427 . S
N1729 C1727 1.384 . S
H1730 C1736 0.930 . S
H1731 C1740 0.930 . S
H1732 C1745 0.929 . S
H1733 C1743 0.929 . S
H1734 C1738 0.929 . S
H1735 C1744 0.929 . S
C1736 H1730 0.930 . S
C1736 C1737 1.367 . S
C1736 C1744 1.378 . S
C1737 C1736 1.367 . S
C1737 C1745 1.433 . S
C1738 H1734 0.929 . S
C1738 C1740 1.378 . S
C1738 C1742 1.350 . S
C1739 C1742 1.463 . S
C1739 C1744 1.350 . S
C1739 N1747 1.427 . S
C1740 H1731 0.930 . S
C1740 C1738 1.378 . S
C1740 C1741 1.367 . S
C1741 C1740 1.367 . S
C1741 C1743 1.433 . S
C1742 C1738 1.350 . S
C1742 C1739 1.463 . S
C1742 N1746 1.427 . S
C1743 H1733 0.929 . S
C1743 C1741 1.433 . S
C1743 N1746 1.384 . S
C1744 H1735 0.929 . S
C1744 C1736 1.378 . S
C1744 C1739 1.350 . S
C1745 H1732 0.929 . S
C1745 C1737 1.433 . S
C1745 N1747 1.384 . S
N1746 C1742 1.427 . S
N1746 C1743 1.384 . S
N1747 C1739 1.427 . S
N1747 C1745 1.384 . S
H1748 C1754 0.930 . S
H1749 C1758 0.930 . S
H1750 C1763 0.929 . S
H1751 C1761 0.929 . S
H1752 C1756 0.929 . S
H1753 C1762 0.929 . S
C1754 H1748 0.930 . S
C1754 C1755 1.367 . S
C1754 C1762 1.378 . S
C1755 C1754 1.367 . S
C1755 C1763 1.433 . S
C1756 H1752 0.929 . S
C1756 C1758 1.378 . S
C1756 C1760 1.350 . S
C1757 C1760 1.463 . S
C1757 C1762 1.350 . S
C1757 N1765 1.427 . S
C1758 H1749 0.930 . S
C1758 C1756 1.378 . S
C1758 C1759 1.367 . S
C1759 C1758 1.367 . S
C1759 C1761 1.433 . S
C1760 C1756 1.350 . S
C1760 C1757 1.463 . S
C1760 N1764 1.427 . S
C1761 H1751 0.929 . S
C1761 C1759 1.433 . S
C1761 N1764 1.384 . S
C1762 H1753 0.929 . S
C1762 C1754 1.378 . S
C1762 C1757 1.350 . S
C1763 H1750 0.929 . S
C1763 C1755 1.433 . S
C1763 N1765 1.384 . S
N1764 C1760 1.427 . S
N1764 C1761 1.384 . S
N1765 C1757 1.427 . S
N1765 C1763 1.384 . S
H1766 C1772 0.930 . S
H1767 C1776 0.930 . S
H1768 C1781 0.929 . S
H1769 C1779 0.929 . S
H1770 C1774 0.929 . S
H1771 C1780 0.929 . S
C1772 H1766 0.930 . S
C1772 C1773 1.367 . S
C1772 C1780 1.378 . S
C1773 C1772 1.367 . S
C1773 C1781 1.433 . S
C1774 H1770 0.929 . S
C1774 C1776 1.378 . S
C1774 C1778 1.350 . S
C1775 C1778 1.463 . S
C1775 C1780 1.350 . S
C1775 N1783 1.427 . S
C1776 H1767 0.930 . S
C1776 C1774 1.378 . S
C1776 C1777 1.367 . S
C1777 C1776 1.367 . S
C1777 C1779 1.433 . S
C1778 C1774 1.350 . S
C1778 C1775 1.463 . S
C1778 N1782 1.427 . S
C1779 H1769 0.929 . S
C1779 C1777 1.433 . S
C1779 N1782 1.384 . S
C1780 H1771 0.929 . S
C1780 C1772 1.378 . S
C1780 C1775 1.350 . S
C1781 H1768 0.929 . S
C1781 C1773 1.433 . S
C1781 N1783 1.384 . S
N1782 C1778 1.427 . S
N1782 C1779 1.384 . S
N1783 C1775 1.427 . S
N1783 C1781 1.384 . S
H1784 C1790 0.930 . S
H1785 C1794 0.930 . S
H1786 C1799 0.929 . S
H1787 C1797 0.929 . S
H1788 C1792 0.929 . S
H1789 C1798 0.929 . S
C1790 H1784 0.930 . S
C1790 C1791 1.367 . S
C1790 C1798 1.378 . S
C1791 C1790 1.367 . S
C1791 C1799 1.433 . S
C1792 H1788 0.929 . S
C1792 C1794 1.378 . S
C1792 C1796 1.350 . S
C1793 C1796 1.463 . S
C1793 C1798 1.350 . S
C1793 N1801 1.427 . S
C1794 H1785 0.930 . S
C1794 C1792 1.378 . S
C1794 C1795 1.367 . S
C1795 C1794 1.367 . S
C1795 C1797 1.433 . S
C1796 C1792 1.350 . S
C1796 C1793 1.463 . S
C1796 N1800 1.427 . S
C1797 H1787 0.929 . S
C1797 C1795 1.433 . S
C1797 N1800 1.384 . S
C1798 H1789 0.929 . S
C1798 C1790 1.378 . S
C1798 C1793 1.350 . S
C1799 H1786 0.929 . S
C1799 C1791 1.433 . S
C1799 N1801 1.384 . S
N1800 C1796 1.427 . S
N1800 C1797 1.384 . S
N1801 C1793 1.427 . S
N1801 C1799 1.384 . S
H1802 C1808 0.930 . S
H1803 C1812 0.930 . S
H1804 C1817 0.929 . S
H1805 C1815 0.929 . S
H1806 C1810 0.929 . S
H1807 C1816 0.929 . S
C1808 H1802 0.930 . S
C1808 C1809 1.367 . S
C1808 C1816 1.378 . S
C1809 C1808 1.367 . S
C1809 C1817 1.433 . S
C1810 H1806 0.929 . S
C1810 C1812 1.378 . S
C1810 C1814 1.350 . S
C1811 C1814 1.463 . S
C1811 C1816 1.350 . S
C1811 N1819 1.427 . S
C1812 H1803 0.930 . S
C1812 C1810 1.378 . S
C1812 C1813 1.367 . S
C1813 C1812 1.367 . S
C1813 C1815 1.433 . S
C1814 C1810 1.350 . S
C1814 C1811 1.463 . S
C1814 N1818 1.427 . S
C1815 H1805 0.929 . S
C1815 C1813 1.433 . S
C1815 N1818 1.384 . S
C1816 H1807 0.929 . S
C1816 C1808 1.378 . S
C1816 C1811 1.350 . S
C1817 H1804 0.929 . S
C1817 C1809 1.433 . S
C1817 N1819 1.384 . S
N1818 C1814 1.427 . S
N1818 C1815 1.384 . S
N1819 C1811 1.427 . S
N1819 C1817 1.384 . S
H1820 C1826 0.930 . S
H1821 C1830 0.930 . S
H1822 C1835 0.929 . S
H1823 C1833 0.929 . S
H1824 C1828 0.929 . S
H1825 C1834 0.929 . S
C1826 H1820 0.930 . S
C1826 C1827 1.367 . S
C1826 C1834 1.378 . S
C1827 C1826 1.367 . S
C1827 C1835 1.433 . S
C1828 H1824 0.929 . S
C1828 C1830 1.378 . S
C1828 C1832 1.350 . S
C1829 C1832 1.463 . S
C1829 C1834 1.350 . S
C1829 N1837 1.427 . S
C1830 H1821 0.930 . S
C1830 C1828 1.378 . S
C1830 C1831 1.367 . S
C1831 C1830 1.367 . S
C1831 C1833 1.433 . S
C1832 C1828 1.350 . S
C1832 C1829 1.463 . S
C1832 N1836 1.427 . S
C1833 H1823 0.929 . S
C1833 C1831 1.433 . S
C1833 N1836 1.384 . S
C1834 H1825 0.929 . S
C1834 C1826 1.378 . S
C1834 C1829 1.350 . S
C1835 H1822 0.929 . S
C1835 C1827 1.433 . S
C1835 N1837 1.384 . S
N1836 C1832 1.427 . S
N1836 C1833 1.384 . S
N1837 C1829 1.427 . S
N1837 C1835 1.384 . S
H1838 C1844 0.930 . S
H1839 C1848 0.930 . S
H1840 C1853 0.929 . S
H1841 C1851 0.929 . S
H1842 C1846 0.929 . S
H1843 C1852 0.929 . S
C1844 H1838 0.930 . S
C1844 C1845 1.367 . S
C1844 C1852 1.378 . S
C1845 C1844 1.367 . S
C1845 C1853 1.433 . S
C1846 H1842 0.929 . S
C1846 C1848 1.378 . S
C1846 C1850 1.350 . S
C1847 C1850 1.463 . S
C1847 C1852 1.350 . S
C1847 N1855 1.427 . S
C1848 H1839 0.930 . S
C1848 C1846 1.378 . S
C1848 C1849 1.367 . S
C1849 C1848 1.367 . S
C1849 C1851 1.433 . S
C1850 C1846 1.350 . S
C1850 C1847 1.463 . S
C1850 N1854 1.427 . S
C1851 H1841 0.929 . S
C1851 C1849 1.433 . S
C1851 N1854 1.384 . S
C1852 H1843 0.929 . S
C1852 C1844 1.378 . S
C1852 C1847 1.350 . S
C1853 H1840 0.929 . S
C1853 C1845 1.433 . S
C1853 N1855 1.384 . S
N1854 C1850 1.427 . S
N1854 C1851 1.384 . S
N1855 C1847 1.427 . S
N1855 C1853 1.384 . S
H1856 C1862 0.930 . S
H1857 C1866 0.930 . S
H1858 C1871 0.929 . S
H1859 C1869 0.929 . S
H1860 C1864 0.929 . S
H1861 C1870 0.929 . S
C1862 H1856 0.930 . S
C1862 C1863 1.367 . S
C1862 C1870 1.378 . S
C1863 C1862 1.367 . S
C1863 C1871 1.433 . S
C1864 H1860 0.929 . S
C1864 C1866 1.378 . S
C1864 C1868 1.350 . S
C1865 C1868 1.463 . S
C1865 C1870 1.350 . S
C1865 N1873 1.427 . S
C1866 H1857 0.930 . S
C1866 C1864 1.378 . S
C1866 C1867 1.367 . S
C1867 C1866 1.367 . S
C1867 C1869 1.433 . S
C1868 C1864 1.350 . S
C1868 C1865 1.463 . S
C1868 N1872 1.427 . S
C1869 H1859 0.929 . S
C1869 C1867 1.433 . S
C1869 N1872 1.384 . S
C1870 H1861 0.929 . S
C1870 C1862 1.378 . S
C1870 C1865 1.350 . S
C1871 H1858 0.929 . S
C1871 C1863 1.433 . S
C1871 N1873 1.384 . S
N1872 C1868 1.427 . S
N1872 C1869 1.384 . S
N1873 C1865 1.427 . S
N1873 C1871 1.384 . S
H1874 C1880 0.930 1_565 S
H1875 C1884 0.930 1_545 S
H1876 C1889 0.929 . S
H1877 C1887 0.929 . S
H1878 C1882 0.929 . S
H1879 C1888 0.929 . S
C1880 H1874 0.930 1_545 S
C1880 C1881 1.367 . S
C1880 C1888 1.378 1_545 S
C1881 C1880 1.367 . S
C1881 C1889 1.433 . S
C1882 H1878 0.929 . S
C1882 C1884 1.378 1_545 S
C1882 C1886 1.350 1_545 S
C1883 C1886 1.463 1_545 S
C1883 C1888 1.350 1_545 S
C1883 N1891 1.427 . S
C1884 H1875 0.930 1_565 S
C1884 C1882 1.378 1_565 S
C1884 C1885 1.367 . S
C1885 C1884 1.367 . S
C1885 C1887 1.433 . S
C1886 C1882 1.350 1_565 S
C1886 C1883 1.463 1_565 S
C1886 N1890 1.427 . S
C1887 H1877 0.929 . S
C1887 C1885 1.433 . S
C1887 N1890 1.384 . S
C1888 H1879 0.929 . S
C1888 C1880 1.378 1_565 S
C1888 C1883 1.350 1_565 S
C1889 H1876 0.929 . S
C1889 C1881 1.433 . S
C1889 N1891 1.384 . S
N1890 C1886 1.427 . S
N1890 C1887 1.384 . S
N1891 C1883 1.427 . S
N1891 C1889 1.384 . S
H1892 C1898 0.930 1_545 S
H1893 C1902 0.930 1_565 S
H1894 C1907 0.929 . S
H1895 C1905 0.929 . S
H1896 C1900 0.929 . S
H1897 C1906 0.929 . S
C1898 H1892 0.930 1_565 S
C1898 C1899 1.367 . S
C1898 C1906 1.378 1_565 S
C1899 C1898 1.367 . S
C1899 C1907 1.433 . S
C1900 H1896 0.929 . S
C1900 C1902 1.378 1_565 S
C1900 C1904 1.350 1_565 S
C1901 C1904 1.463 1_565 S
C1901 C1906 1.350 1_565 S
C1901 N1909 1.427 . S
C1902 H1893 0.930 1_545 S
C1902 C1900 1.378 1_545 S
C1902 C1903 1.367 . S
C1903 C1902 1.367 . S
C1903 C1905 1.433 . S
C1904 C1900 1.350 1_545 S
C1904 C1901 1.463 1_545 S
C1904 N1908 1.427 . S
C1905 H1895 0.929 . S
C1905 C1903 1.433 . S
C1905 N1908 1.384 . S
C1906 H1897 0.929 . S
C1906 C1898 1.378 1_545 S
C1906 C1901 1.350 1_545 S
C1907 H1894 0.929 . S
C1907 C1899 1.433 . S
C1907 N1909 1.384 . S
N1908 C1904 1.427 . S
N1908 C1905 1.384 . S
N1909 C1901 1.427 . S
N1909 C1907 1.384 . S
H1910 C1916 0.930 . S
H1911 C1920 0.930 . S
H1912 C1925 0.929 . S
H1913 C1923 0.929 . S
H1914 C1918 0.929 . S
H1915 C1924 0.929 . S
C1916 H1910 0.930 . S
C1916 C1917 1.367 . S
C1916 C1924 1.378 . S
C1917 C1916 1.367 . S
C1917 C1925 1.433 . S
C1918 H1914 0.929 . S
C1918 C1920 1.378 . S
C1918 C1922 1.350 . S
C1919 C1922 1.463 . S
C1919 C1924 1.350 . S
C1919 N1927 1.427 . S
C1920 H1911 0.930 . S
C1920 C1918 1.378 . S
C1920 C1921 1.367 . S
C1921 C1920 1.367 . S
C1921 C1923 1.433 . S
C1922 C1918 1.350 . S
C1922 C1919 1.463 . S
C1922 N1926 1.427 . S
C1923 H1913 0.929 . S
C1923 C1921 1.433 . S
C1923 N1926 1.384 . S
C1924 H1915 0.929 . S
C1924 C1916 1.378 . S
C1924 C1919 1.350 . S
C1925 H1912 0.929 . S
C1925 C1917 1.433 . S
C1925 N1927 1.384 . S
N1926 C1922 1.427 . S
N1926 C1923 1.384 . S
N1927 C1919 1.427 . S
N1927 C1925 1.384 . S
H1928 C1934 0.930 . S
H1929 C1938 0.930 . S
H1930 C1943 0.929 . S
H1931 C1941 0.929 . S
H1932 C1936 0.929 . S
H1933 C1942 0.929 . S
C1934 H1928 0.930 . S
C1934 C1935 1.367 . S
C1934 C1942 1.378 . S
C1935 C1934 1.367 . S
C1935 C1943 1.433 . S
C1936 H1932 0.929 . S
C1936 C1938 1.378 . S
C1936 C1940 1.350 . S
C1937 C1940 1.463 . S
C1937 C1942 1.350 . S
C1937 N1945 1.427 . S
C1938 H1929 0.930 . S
C1938 C1936 1.378 . S
C1938 C1939 1.367 . S
C1939 C1938 1.367 . S
C1939 C1941 1.433 . S
C1940 C1936 1.350 . S
C1940 C1937 1.463 . S
C1940 N1944 1.427 . S
C1941 H1931 0.929 . S
C1941 C1939 1.433 . S
C1941 N1944 1.384 . S
C1942 H1933 0.929 . S
C1942 C1934 1.378 . S
C1942 C1937 1.350 . S
C1943 H1930 0.929 . S
C1943 C1935 1.433 . S
C1943 N1945 1.384 . S
N1944 C1940 1.427 . S
N1944 C1941 1.384 . S
N1945 C1937 1.427 . S
N1945 C1943 1.384 . S
H1946 C1952 0.930 . S
H1947 C1956 0.930 . S
H1948 C1961 0.918 1_565 S
H1949 C1959 0.923 1_545 S
H1950 C1954 0.929 . S
H1951 C1960 0.929 . S
C1952 H1946 0.930 . S
C1952 C1953 1.367 . S
C1952 C1960 1.378 . S
C1953 C1952 1.367 . S
C1953 C1961 1.454 . S
C1954 H1950 0.929 . S
C1954 C1956 1.378 . S
C1954 C1958 1.350 . S
C1955 C1958 1.463 1_545 S
C1955 C1960 1.350 . S
C1955 N1963 1.427 1_545 S
C1956 H1947 0.930 . S
C1956 C1954 1.378 . S
C1956 C1957 1.367 . S
C1957 C1956 1.367 . S
C1957 C1959 1.444 . S
C1958 C1954 1.350 . S
C1958 C1955 1.463 1_565 S
C1958 N1962 1.427 1_565 S
C1959 H1949 0.923 1_565 S
C1959 C1957 1.444 . S
C1959 N1962 1.379 1_565 S
C1960 H1951 0.929 . S
C1960 C1952 1.378 . S
C1960 C1955 1.350 . S
C1961 H1948 0.918 1_545 S
C1961 C1953 1.454 . S
C1961 N1963 1.375 1_545 S
N1962 C1958 1.427 1_545 S
N1962 C1959 1.379 1_545 S
N1963 C1955 1.427 1_565 S
N1963 C1961 1.375 1_565 S
H1964 C1970 0.930 . S
H1965 C1974 0.930 . S
H1966 C1979 0.929 . S
H1967 C1977 0.929 . S
H1968 C1972 0.955 . S
H1969 C1978 0.948 . S
C1970 H1964 0.930 . S
C1970 C1971 1.367 . S
C1970 C1978 1.366 1_545 S
C1971 C1970 1.367 . S
C1971 C1979 1.433 . S
C1972 H1968 0.955 . S
C1972 C1974 1.362 1_545 S
C1972 C1976 1.341 1_545 S
C1973 C1976 1.463 1_545 S
C1973 C1978 1.343 1_545 S
C1973 N1981 1.427 . S
C1974 H1965 0.930 . S
C1974 C1972 1.362 1_565 S
C1974 C1975 1.367 . S
C1975 C1974 1.367 . S
C1975 C1977 1.433 . S
C1976 C1972 1.341 1_565 S
C1976 C1973 1.463 1_565 S
C1976 N1980 1.427 . S
C1977 H1967 0.929 . S
C1977 C1975 1.433 . S
C1977 N1980 1.384 . S
C1978 H1969 0.948 . S
C1978 C1970 1.366 1_565 S
C1978 C1973 1.343 1_565 S
C1979 H1966 0.929 . S
C1979 C1971 1.433 . S
C1979 N1981 1.384 . S
N1980 C1976 1.427 . S
N1980 C1977 1.384 . S
N1981 C1973 1.427 . S
N1981 C1979 1.384 . S
H1982 C1988 0.930 . S
H1983 C1992 0.930 . S
H1984 C1997 0.929 . S
H1985 C1995 0.929 . S
H1986 C1990 0.929 . S
H1987 C1996 0.929 . S
C1988 H1982 0.930 . S
C1988 C1989 1.367 . S
C1988 C1996 1.378 . S
C1989 C1988 1.367 . S
C1989 C1997 1.433 . S
C1990 H1986 0.929 . S
C1990 C1992 1.378 . S
C1990 C1994 1.350 . S
C1991 C1994 1.463 . S
C1991 C1996 1.350 . S
C1991 N1999 1.427 . S
C1992 H1983 0.930 . S
C1992 C1990 1.378 . S
C1992 C1993 1.367 . S
C1993 C1992 1.367 . S
C1993 C1995 1.433 . S
C1994 C1990 1.350 . S
C1994 C1991 1.463 . S
C1994 N1998 1.427 . S
C1995 H1985 0.929 . S
C1995 C1993 1.433 . S
C1995 N1998 1.384 . S
C1996 H1987 0.929 . S
C1996 C1988 1.378 . S
C1996 C1991 1.350 . S
C1997 H1984 0.929 . S
C1997 C1989 1.433 . S
C1997 N1999 1.384 . S
N1998 C1994 1.427 . S
N1998 C1995 1.384 . S
N1999 C1991 1.427 . S
N1999 C1997 1.384 . S
H2000 C2006 0.930 . S
H2001 C2010 0.930 . S
H2002 C2015 0.929 . S
H2003 C2013 0.929 . S
H2004 C2008 0.929 . S
H2005 C2014 0.929 . S
C2006 H2000 0.930 . S
C2006 C2007 1.367 . S
C2006 C2014 1.378 . S
C2007 C2006 1.367 . S
C2007 C2015 1.433 . S
C2008 H2004 0.929 . S
C2008 C2010 1.378 . S
C2008 C2012 1.350 . S
C2009 C2012 1.463 . S
C2009 C2014 1.350 . S
C2009 N2017 1.427 . S
C2010 H2001 0.930 . S
C2010 C2008 1.378 . S
C2010 C2011 1.367 . S
C2011 C2010 1.367 . S
C2011 C2013 1.433 . S
C2012 C2008 1.350 . S
C2012 C2009 1.463 . S
C2012 N2016 1.427 . S
C2013 H2003 0.929 . S
C2013 C2011 1.433 . S
C2013 N2016 1.384 . S
C2014 H2005 0.929 . S
C2014 C2006 1.378 . S
C2014 C2009 1.350 . S
C2015 H2002 0.929 . S
C2015 C2007 1.433 . S
C2015 N2017 1.384 . S
N2016 C2012 1.427 . S
N2016 C2013 1.384 . S
N2017 C2009 1.427 . S
N2017 C2015 1.384 . S
H2018 C2024 0.930 . S
H2019 C2028 0.930 . S
H2020 C2033 0.929 . S
H2021 C2031 0.929 . S
H2022 C2026 0.929 . S
H2023 C2032 0.929 . S
C2024 H2018 0.930 . S
C2024 C2025 1.367 . S
C2024 C2032 1.378 . S
C2025 C2024 1.367 . S
C2025 C2033 1.433 . S
C2026 H2022 0.929 . S
C2026 C2028 1.378 . S
C2026 C2030 1.350 . S
C2027 C2030 1.463 . S
C2027 C2032 1.350 . S
C2027 N2035 1.427 . S
C2028 H2019 0.930 . S
C2028 C2026 1.378 . S
C2028 C2029 1.367 . S
C2029 C2028 1.367 . S
C2029 C2031 1.433 . S
C2030 C2026 1.350 . S
C2030 C2027 1.463 . S
C2030 N2034 1.427 . S
C2031 H2021 0.929 . S
C2031 C2029 1.433 . S
C2031 N2034 1.384 . S
C2032 H2023 0.929 . S
C2032 C2024 1.378 . S
C2032 C2027 1.350 . S
C2033 H2020 0.929 . S
C2033 C2025 1.433 . S
C2033 N2035 1.384 . S
N2034 C2030 1.427 . S
N2034 C2031 1.384 . S
N2035 C2027 1.427 . S
N2035 C2033 1.384 . S
H2036 C2042 0.930 . S
H2037 C2046 0.930 . S
H2038 C2051 0.929 . S
H2039 C2049 0.929 . S
H2040 C2044 0.929 . S
H2041 C2050 0.929 . S
C2042 H2036 0.930 . S
C2042 C2043 1.367 . S
C2042 C2050 1.378 . S
C2043 C2042 1.367 . S
C2043 C2051 1.433 . S
C2044 H2040 0.929 . S
C2044 C2046 1.378 . S
C2044 C2048 1.350 . S
C2045 C2048 1.463 . S
C2045 C2050 1.350 1_554 S
C2045 N2053 1.427 1_554 S
C2046 H2037 0.930 . S
C2046 C2044 1.378 . S
C2046 C2047 1.367 . S
C2047 C2046 1.367 . S
C2047 C2049 1.433 . S
C2048 C2044 1.350 . S
C2048 C2045 1.463 . S
C2048 N2052 1.427 . S
C2049 H2039 0.929 . S
C2049 C2047 1.433 . S
C2049 N2052 1.384 . S
C2050 H2041 0.929 . S
C2050 C2042 1.378 . S
C2050 C2045 1.350 1_556 S
C2051 H2038 0.929 . S
C2051 C2043 1.433 . S
C2051 N2053 1.384 . S
N2052 C2048 1.427 . S
N2052 C2049 1.384 . S
N2053 C2045 1.427 1_556 S
N2053 C2051 1.384 . S
H2054 C2060 0.930 . S
H2055 C2064 0.930 . S
H2056 C2069 0.929 . S
H2057 C2067 0.929 . S
H2058 C2062 0.929 . S
H2059 C2068 0.929 . S
C2060 H2054 0.930 . S
C2060 C2061 1.367 . S
C2060 C2068 1.378 . S
C2061 C2060 1.367 . S
C2061 C2069 1.433 . S
C2062 H2058 0.929 . S
C2062 C2064 1.378 . S
C2062 C2066 1.350 . S
C2063 C2066 1.463 . S
C2063 C2068 1.350 1_554 S
C2063 N2071 1.427 1_554 S
C2064 H2055 0.930 . S
C2064 C2062 1.378 . S
C2064 C2065 1.367 . S
C2065 C2064 1.367 . S
C2065 C2067 1.433 . S
C2066 C2062 1.350 . S
C2066 C2063 1.463 . S
C2066 N2070 1.427 . S
C2067 H2057 0.929 . S
C2067 C2065 1.433 . S
C2067 N2070 1.384 . S
C2068 H2059 0.929 . S
C2068 C2060 1.378 . S
C2068 C2063 1.350 1_556 S
C2069 H2056 0.929 . S
C2069 C2061 1.433 . S
C2069 N2071 1.384 . S
N2070 C2066 1.427 . S
N2070 C2067 1.384 . S
N2071 C2063 1.427 1_556 S
N2071 C2069 1.384 . S
H2072 C2078 0.930 . S
H2073 C2082 0.930 . S
H2074 C2087 0.929 . S
H2075 C2085 0.929 . S
H2076 C2080 0.929 . S
H2077 C2086 0.929 . S
C2078 H2072 0.930 . S
C2078 C2079 1.367 . S
C2078 C2086 1.378 . S
C2079 C2078 1.367 . S
C2079 C2087 1.433 . S
C2080 H2076 0.929 . S
C2080 C2082 1.378 . S
C2080 C2084 1.350 . S
C2081 C2084 1.463 . S
C2081 C2086 1.350 . S
C2081 N2089 1.427 . S
C2082 H2073 0.930 . S
C2082 C2080 1.378 . S
C2082 C2083 1.367 . S
C2083 C2082 1.367 . S
C2083 C2085 1.433 . S
C2084 C2080 1.350 . S
C2084 C2081 1.463 . S
C2084 N2088 1.427 . S
C2085 H2075 0.929 . S
C2085 C2083 1.433 . S
C2085 N2088 1.384 . S
C2086 H2077 0.929 . S
C2086 C2078 1.378 . S
C2086 C2081 1.350 . S
C2087 H2074 0.929 . S
C2087 C2079 1.433 . S
C2087 N2089 1.384 . S
N2088 C2084 1.427 . S
N2088 C2085 1.384 . S
N2089 C2081 1.427 . S
N2089 C2087 1.384 . S
H2090 C2096 0.930 . S
H2091 C2100 0.930 . S
H2092 C2105 0.929 . S
H2093 C2103 0.929 . S
H2094 C2098 0.929 . S
H2095 C2104 0.929 . S
C2096 H2090 0.930 . S
C2096 C2097 1.367 . S
C2096 C2104 1.378 . S
C2097 C2096 1.367 . S
C2097 C2105 1.433 . S
C2098 H2094 0.929 . S
C2098 C2100 1.378 . S
C2098 C2102 1.350 . S
C2099 C2102 1.463 . S
C2099 C2104 1.350 . S
C2099 N2107 1.427 . S
C2100 H2091 0.930 . S
C2100 C2098 1.378 . S
C2100 C2101 1.367 . S
C2101 C2100 1.367 . S
C2101 C2103 1.433 . S
C2102 C2098 1.350 . S
C2102 C2099 1.463 . S
C2102 N2106 1.427 . S
C2103 H2093 0.929 . S
C2103 C2101 1.433 . S
C2103 N2106 1.384 . S
C2104 H2095 0.929 . S
C2104 C2096 1.378 . S
C2104 C2099 1.350 . S
C2105 H2092 0.929 . S
C2105 C2097 1.433 . S
C2105 N2107 1.384 . S
N2106 C2102 1.427 . S
N2106 C2103 1.384 . S
N2107 C2099 1.427 . S
N2107 C2105 1.384 . S
H2108 C2114 0.930 . S
H2109 C2118 0.930 . S
H2110 C2123 0.929 . S
H2111 C2121 0.929 . S
H2112 C2116 0.929 . S
H2113 C2122 0.929 1_556 S
C2114 H2108 0.930 . S
C2114 C2115 1.367 . S
C2114 C2122 1.378 . S
C2115 C2114 1.367 . S
C2115 C2123 1.433 . S
C2116 H2112 0.929 . S
C2116 C2118 1.378 . S
C2116 C2120 1.350 . S
C2117 C2120 1.463 . S
C2117 C2122 1.350 1_556 S
C2117 N2125 1.427 1_556 S
C2118 H2109 0.930 . S
C2118 C2116 1.378 . S
C2118 C2119 1.367 . S
C2119 C2118 1.367 . S
C2119 C2121 1.433 . S
C2120 C2116 1.350 . S
C2120 C2117 1.463 . S
C2120 N2124 1.427 . S
C2121 H2111 0.929 . S
C2121 C2119 1.433 . S
C2121 N2124 1.384 . S
C2122 H2113 0.929 1_554 S
C2122 C2114 1.378 . S
C2122 C2117 1.350 1_554 S
C2123 H2110 0.929 . S
C2123 C2115 1.433 . S
C2123 N2125 1.384 . S
N2124 C2120 1.427 . S
N2124 C2121 1.384 . S
N2125 C2117 1.427 1_554 S
N2125 C2123 1.384 . S
H2126 C2132 0.930 . S
H2127 C2136 0.930 . S
H2128 C2141 0.929 . S
H2129 C2139 0.929 . S
H2130 C2134 0.929 1_556 S
H2131 C2140 0.929 . S
C2132 H2126 0.930 . S
C2132 C2133 1.367 . S
C2132 C2140 1.378 . S
C2133 C2132 1.367 . S
C2133 C2141 1.433 . S
C2134 H2130 0.929 1_554 S
C2134 C2136 1.378 . S
C2134 C2138 1.350 1_554 S
C2135 C2138 1.463 . S
C2135 C2140 1.350 . S
C2135 N2143 1.427 . S
C2136 H2127 0.930 . S
C2136 C2134 1.378 . S
C2136 C2137 1.367 . S
C2137 C2136 1.367 . S
C2137 C2139 1.433 . S
C2138 C2134 1.350 1_556 S
C2138 C2135 1.463 . S
C2138 N2142 1.427 1_556 S
C2139 H2129 0.929 . S
C2139 C2137 1.433 . S
C2139 N2142 1.384 . S
C2140 H2131 0.929 . S
C2140 C2132 1.378 . S
C2140 C2135 1.350 . S
C2141 H2128 0.929 . S
C2141 C2133 1.433 . S
C2141 N2143 1.384 . S
N2142 C2138 1.427 1_554 S
N2142 C2139 1.384 . S
N2143 C2135 1.427 . S
N2143 C2141 1.384 . S
H2144 C2150 0.930 . S
H2145 C2154 0.930 . S
H2146 C2159 0.929 . S
H2147 C2157 0.929 . S
H2148 C2152 0.929 . S
H2149 C2158 0.929 . S
C2150 H2144 0.930 . S
C2150 C2151 1.367 . S
C2150 C2158 1.378 . S
C2151 C2150 1.367 . S
C2151 C2159 1.433 . S
C2152 H2148 0.929 . S
C2152 C2154 1.378 . S
C2152 C2156 1.350 . S
C2153 C2156 1.463 . S
C2153 C2158 1.350 . S
C2153 N2161 1.427 . S
C2154 H2145 0.930 . S
C2154 C2152 1.378 . S
C2154 C2155 1.367 . S
C2155 C2154 1.367 . S
C2155 C2157 1.433 . S
C2156 C2152 1.350 . S
C2156 C2153 1.463 . S
C2156 N2160 1.427 . S
C2157 H2147 0.929 . S
C2157 C2155 1.433 . S
C2157 N2160 1.384 . S
C2158 H2149 0.929 . S
C2158 C2150 1.378 . S
C2158 C2153 1.350 . S
C2159 H2146 0.929 . S
C2159 C2151 1.433 . S
C2159 N2161 1.384 . S
N2160 C2156 1.427 . S
N2160 C2157 1.384 . S
N2161 C2153 1.427 . S
N2161 C2159 1.384 . S
H2162 C2168 0.930 . S
H2163 C2172 0.930 . S
H2164 C2177 0.937 . S
H2165 C2175 0.943 . S
H2166 C2170 0.929 . S
H2167 C2176 0.929 . S
C2168 H2162 0.930 . S
C2168 C2169 1.367 . S
C2168 C2176 1.378 . S
C2169 C2168 1.367 . S
C2169 C2177 1.420 1_565 S
C2170 H2166 0.929 . S
C2170 C2172 1.378 . S
C2170 C2174 1.350 . S
C2171 C2174 1.463 1_565 S
C2171 C2176 1.350 . S
C2171 N2179 1.427 1_565 S
C2172 H2163 0.930 . S
C2172 C2170 1.378 . S
C2172 C2173 1.367 . S
C2173 C2172 1.367 . S
C2173 C2175 1.410 1_545 S
C2174 C2170 1.350 . S
C2174 C2171 1.463 1_545 S
C2174 N2178 1.427 1_545 S
C2175 H2165 0.943 . S
C2175 C2173 1.410 1_565 S
C2175 N2178 1.393 . S
C2176 H2167 0.929 . S
C2176 C2168 1.378 . S
C2176 C2171 1.350 . S
C2177 H2164 0.937 . S
C2177 C2169 1.420 1_545 S
C2177 N2179 1.389 . S
N2178 C2174 1.427 1_565 S
N2178 C2175 1.393 . S
N2179 C2171 1.427 1_545 S
N2179 C2177 1.389 . S
H2180 C2186 0.930 . S
H2181 C2190 0.930 . S
H2182 C2195 0.929 1_545 S
H2183 C2193 0.929 1_565 S
H2184 C2188 0.929 . S
H2185 C2194 0.929 1_554 S
C2186 H2180 0.930 . S
C2186 C2187 1.367 . S
C2186 C2194 1.378 . S
C2187 C2186 1.367 . S
C2187 C2195 1.433 . S
C2188 H2184 0.929 . S
C2188 C2190 1.378 . S
C2188 C2192 1.350 . S
C2189 C2192 1.463 1_565 S
C2189 C2194 1.350 1_554 S
C2189 N2197 1.427 1_564 S
C2190 H2181 0.930 . S
C2190 C2188 1.378 . S
C2190 C2191 1.367 . S
C2191 C2190 1.367 . S
C2191 C2193 1.433 . S
C2192 C2188 1.350 . S
C2192 C2189 1.463 1_545 S
C2192 N2196 1.427 1_545 S
C2193 H2183 0.929 1_545 S
C2193 C2191 1.433 . S
C2193 N2196 1.384 1_545 S
C2194 H2185 0.929 1_556 S
C2194 C2186 1.378 . S
C2194 C2189 1.350 1_556 S
C2195 H2182 0.929 1_565 S
C2195 C2187 1.433 . S
C2195 N2197 1.384 1_565 S
N2196 C2192 1.427 1_565 S
N2196 C2193 1.384 1_565 S
N2197 C2189 1.427 1_546 S
N2197 C2195 1.384 1_545 S
H2198 C2204 0.930 . S
H2199 C2208 0.930 . S
H2200 C2213 0.929 . S
H2201 C2211 0.929 . S
H2202 C2206 0.929 . S
H2203 C2212 0.929 1_554 S
C2204 H2198 0.930 . S
C2204 C2205 1.367 . S
C2204 C2212 1.378 . S
C2205 C2204 1.367 . S
C2205 C2213 1.433 . S
C2206 H2202 0.929 . S
C2206 C2208 1.378 . S
C2206 C2210 1.350 . S
C2207 C2210 1.463 . S
C2207 C2212 1.350 1_554 S
C2207 N2215 1.427 1_554 S
C2208 H2199 0.930 . S
C2208 C2206 1.378 . S
C2208 C2209 1.367 . S
C2209 C2208 1.367 . S
C2209 C2211 1.433 . S
C2210 C2206 1.350 . S
C2210 C2207 1.463 . S
C2210 N2214 1.427 . S
C2211 H2201 0.929 . S
C2211 C2209 1.433 . S
C2211 N2214 1.384 . S
C2212 H2203 0.929 1_556 S
C2212 C2204 1.378 . S
C2212 C2207 1.350 1_556 S
C2213 H2200 0.929 . S
C2213 C2205 1.433 . S
C2213 N2215 1.384 . S
N2214 C2210 1.427 . S
N2214 C2211 1.384 . S
N2215 C2207 1.427 1_556 S
N2215 C2213 1.384 . S
H2216 C2222 0.930 . S
H2217 C2226 0.930 . S
H2218 C2231 0.929 . S
H2219 C2229 0.929 . S
H2220 C2224 0.929 . S
H2221 C2230 0.929 . S
C2222 H2216 0.930 . S
C2222 C2223 1.367 . S
C2222 C2230 1.378 . S
C2223 C2222 1.367 . S
C2223 C2231 1.433 . S
C2224 H2220 0.929 . S
C2224 C2226 1.378 . S
C2224 C2228 1.350 . S
C2225 C2228 1.463 . S
C2225 C2230 1.350 . S
C2225 N2233 1.427 . S
C2226 H2217 0.930 . S
C2226 C2224 1.378 . S
C2226 C2227 1.367 . S
C2227 C2226 1.367 . S
C2227 C2229 1.433 . S
C2228 C2224 1.350 . S
C2228 C2225 1.463 . S
C2228 N2232 1.427 . S
C2229 H2219 0.929 . S
C2229 C2227 1.433 . S
C2229 N2232 1.384 . S
C2230 H2221 0.929 . S
C2230 C2222 1.378 . S
C2230 C2225 1.350 . S
C2231 H2218 0.929 . S
C2231 C2223 1.433 . S
C2231 N2233 1.384 . S
N2232 C2228 1.427 . S
N2232 C2229 1.384 . S
N2233 C2225 1.427 . S
N2233 C2231 1.384 . S
H2234 C2240 0.930 . S
H2235 C2244 0.930 . S
H2236 C2249 0.929 . S
H2237 C2247 0.929 . S
H2238 C2242 0.929 . S
H2239 C2248 0.929 . S
C2240 H2234 0.930 . S
C2240 C2241 1.367 . S
C2240 C2248 1.378 . S
C2241 C2240 1.367 . S
C2241 C2249 1.433 1_545 S
C2242 H2238 0.929 . S
C2242 C2244 1.378 . S
C2242 C2246 1.350 . S
C2243 C2246 1.463 1_545 S
C2243 C2248 1.350 . S
C2243 N2251 1.427 1_545 S
C2244 H2235 0.930 . S
C2244 C2242 1.378 . S
C2244 C2245 1.367 . S
C2245 C2244 1.367 . S
C2245 C2247 1.433 1_565 S
C2246 C2242 1.350 . S
C2246 C2243 1.463 1_565 S
C2246 N2250 1.427 1_565 S
C2247 H2237 0.929 . S
C2247 C2245 1.433 1_545 S
C2247 N2250 1.384 . S
C2248 H2239 0.929 . S
C2248 C2240 1.378 . S
C2248 C2243 1.350 . S
C2249 H2236 0.929 . S
C2249 C2241 1.433 1_565 S
C2249 N2251 1.384 . S
N2250 C2246 1.427 1_545 S
N2250 C2247 1.384 . S
N2251 C2243 1.427 1_565 S
N2251 C2249 1.384 . S
H2252 C2258 0.930 . S
H2253 C2262 0.930 . S
H2254 C2267 0.929 . S
H2255 C2265 0.929 . S
H2256 C2260 0.929 1_556 S
H2257 C2266 0.929 . S
C2258 H2252 0.930 . S
C2258 C2259 1.367 . S
C2258 C2266 1.378 . S
C2259 C2258 1.367 . S
C2259 C2267 1.433 1_565 S
C2260 H2256 0.929 1_554 S
C2260 C2262 1.378 . S
C2260 C2264 1.350 1_554 S
C2261 C2264 1.463 1_565 S
C2261 C2266 1.350 . S
C2261 N2269 1.427 1_565 S
C2262 H2253 0.930 . S
C2262 C2260 1.378 . S
C2262 C2263 1.367 . S
C2263 C2262 1.367 . S
C2263 C2265 1.433 1_545 S
C2264 C2260 1.350 1_556 S
C2264 C2261 1.463 1_545 S
C2264 N2268 1.427 1_546 S
C2265 H2255 0.929 . S
C2265 C2263 1.433 1_565 S
C2265 N2268 1.384 . S
C2266 H2257 0.929 . S
C2266 C2258 1.378 . S
C2266 C2261 1.350 . S
C2267 H2254 0.929 . S
C2267 C2259 1.433 1_545 S
C2267 N2269 1.384 . S
N2268 C2264 1.427 1_564 S
N2268 C2265 1.384 . S
N2269 C2261 1.427 1_545 S
N2269 C2267 1.384 . S
H2270 C2276 0.930 . S
H2271 C2280 0.930 . S
H2272 C2285 0.929 . S
H2273 C2283 0.929 . S
H2274 C2278 0.929 1_556 S
H2275 C2284 0.929 . S
C2276 H2270 0.930 . S
C2276 C2277 1.367 . S
C2276 C2284 1.378 . S
C2277 C2276 1.367 . S
C2277 C2285 1.433 . S
C2278 H2274 0.929 1_554 S
C2278 C2280 1.378 . S
C2278 C2282 1.350 1_554 S
C2279 C2282 1.463 . S
C2279 C2284 1.350 . S
C2279 N2287 1.427 . S
C2280 H2271 0.930 . S
C2280 C2278 1.378 . S
C2280 C2281 1.367 . S
C2281 C2280 1.367 . S
C2281 C2283 1.433 . S
C2282 C2278 1.350 1_556 S
C2282 C2279 1.463 . S
C2282 N2286 1.427 1_556 S
C2283 H2273 0.929 . S
C2283 C2281 1.433 . S
C2283 N2286 1.384 . S
C2284 H2275 0.929 . S
C2284 C2276 1.378 . S
C2284 C2279 1.350 . S
C2285 H2272 0.929 . S
C2285 C2277 1.433 . S
C2285 N2287 1.384 . S
N2286 C2282 1.427 1_554 S
N2286 C2283 1.384 . S
N2287 C2279 1.427 . S
N2287 C2285 1.384 . S
H2288 C2294 0.930 . S
H2289 C2298 0.930 . S
H2290 C2303 0.929 . S
H2291 C2301 0.929 . S
H2292 C2296 0.929 . S
H2293 C2302 0.929 . S
C2294 H2288 0.930 . S
C2294 C2295 1.367 . S
C2294 C2302 1.378 . S
C2295 C2294 1.367 . S
C2295 C2303 1.433 . S
C2296 H2292 0.929 . S
C2296 C2298 1.378 . S
C2296 C2300 1.350 . S
C2297 C2300 1.463 . S
C2297 C2302 1.350 . S
C2297 N2305 1.427 . S
C2298 H2289 0.930 . S
C2298 C2296 1.378 . S
C2298 C2299 1.367 . S
C2299 C2298 1.367 . S
C2299 C2301 1.433 . S
C2300 C2296 1.350 . S
C2300 C2297 1.463 . S
C2300 N2304 1.427 . S
C2301 H2291 0.929 . S
C2301 C2299 1.433 . S
C2301 N2304 1.384 . S
C2302 H2293 0.929 . S
C2302 C2294 1.378 . S
C2302 C2297 1.350 . S
C2303 H2290 0.929 . S
C2303 C2295 1.433 . S
C2303 N2305 1.384 . S
N2304 C2300 1.427 . S
N2304 C2301 1.384 . S
N2305 C2297 1.427 . S
N2305 C2303 1.384 . S
H2306 C2312 0.930 . S
H2307 C2316 0.930 . S
H2308 C2321 0.929 . S
H2309 C2319 0.929 . S
H2310 C2314 0.929 . S
H2311 C2320 0.929 . S
C2312 H2306 0.930 . S
C2312 C2313 1.367 . S
C2312 C2320 1.378 . S
C2313 C2312 1.367 . S
C2313 C2321 1.433 . S
C2314 H2310 0.929 . S
C2314 C2316 1.378 . S
C2314 C2318 1.350 . S
C2315 C2318 1.463 . S
C2315 C2320 1.350 . S
C2315 N2323 1.427 . S
C2316 H2307 0.930 . S
C2316 C2314 1.378 . S
C2316 C2317 1.367 . S
C2317 C2316 1.367 . S
C2317 C2319 1.433 . S
C2318 C2314 1.350 . S
C2318 C2315 1.463 . S
C2318 N2322 1.427 . S
C2319 H2309 0.929 . S
C2319 C2317 1.433 . S
C2319 N2322 1.384 . S
C2320 H2311 0.929 . S
C2320 C2312 1.378 . S
C2320 C2315 1.350 . S
C2321 H2308 0.929 . S
C2321 C2313 1.433 . S
C2321 N2323 1.384 . S
N2322 C2318 1.427 . S
N2322 C2319 1.384 . S
N2323 C2315 1.427 . S
N2323 C2321 1.384 . S
H2324 C2330 0.930 . S
H2325 C2334 0.930 . S
H2326 C2339 0.929 . S
H2327 C2337 0.929 . S
H2328 C2332 0.929 . S
H2329 C2338 0.929 . S
C2330 H2324 0.930 . S
C2330 C2331 1.367 . S
C2330 C2338 1.378 . S
C2331 C2330 1.367 . S
C2331 C2339 1.433 . S
C2332 H2328 0.929 . S
C2332 C2334 1.378 . S
C2332 C2336 1.350 . S
C2333 C2336 1.463 . S
C2333 C2338 1.350 . S
C2333 N2341 1.427 . S
C2334 H2325 0.930 . S
C2334 C2332 1.378 . S
C2334 C2335 1.367 . S
C2335 C2334 1.367 . S
C2335 C2337 1.433 . S
C2336 C2332 1.350 . S
C2336 C2333 1.463 . S
C2336 N2340 1.427 . S
C2337 H2327 0.929 . S
C2337 C2335 1.433 . S
C2337 N2340 1.384 . S
C2338 H2329 0.929 . S
C2338 C2330 1.378 . S
C2338 C2333 1.350 . S
C2339 H2326 0.929 . S
C2339 C2331 1.433 . S
C2339 N2341 1.384 . S
N2340 C2336 1.427 . S
N2340 C2337 1.384 . S
N2341 C2333 1.427 . S
N2341 C2339 1.384 . S
H2342 C2348 0.930 . S
H2343 C2352 0.930 . S
H2344 C2357 0.929 . S
H2345 C2355 0.929 . S
H2346 C2350 0.929 . S
H2347 C2356 0.929 . S
C2348 H2342 0.930 . S
C2348 C2349 1.367 . S
C2348 C2356 1.378 . S
C2349 C2348 1.367 . S
C2349 C2357 1.433 . S
C2350 H2346 0.929 . S
C2350 C2352 1.378 . S
C2350 C2354 1.350 . S
C2351 C2354 1.463 . S
C2351 C2356 1.350 . S
C2351 N2359 1.427 . S
C2352 H2343 0.930 . S
C2352 C2350 1.378 . S
C2352 C2353 1.367 . S
C2353 C2352 1.367 . S
C2353 C2355 1.433 . S
C2354 C2350 1.350 . S
C2354 C2351 1.463 . S
C2354 N2358 1.427 . S
C2355 H2345 0.929 . S
C2355 C2353 1.433 . S
C2355 N2358 1.384 . S
C2356 H2347 0.929 . S
C2356 C2348 1.378 . S
C2356 C2351 1.350 . S
C2357 H2344 0.929 . S
C2357 C2349 1.433 . S
C2357 N2359 1.384 . S
N2358 C2354 1.427 . S
N2358 C2355 1.384 . S
N2359 C2351 1.427 . S
N2359 C2357 1.384 . S
H2360 C2366 0.930 . S
H2361 C2370 0.930 . S
H2362 C2375 0.929 . S
H2363 C2373 0.929 . S
H2364 C2368 0.929 . S
H2365 C2374 0.929 . S
C2366 H2360 0.930 . S
C2366 C2367 1.367 . S
C2366 C2374 1.378 . S
C2367 C2366 1.367 . S
C2367 C2375 1.433 . S
C2368 H2364 0.929 . S
C2368 C2370 1.378 . S
C2368 C2372 1.350 . S
C2369 C2372 1.463 . S
C2369 C2374 1.350 . S
C2369 N2377 1.427 . S
C2370 H2361 0.930 . S
C2370 C2368 1.378 . S
C2370 C2371 1.367 . S
C2371 C2370 1.367 . S
C2371 C2373 1.433 . S
C2372 C2368 1.350 . S
C2372 C2369 1.463 . S
C2372 N2376 1.427 . S
C2373 H2363 0.929 . S
C2373 C2371 1.433 . S
C2373 N2376 1.384 . S
C2374 H2365 0.929 . S
C2374 C2366 1.378 . S
C2374 C2369 1.350 . S
C2375 H2362 0.929 . S
C2375 C2367 1.433 . S
C2375 N2377 1.384 . S
N2376 C2372 1.427 . S
N2376 C2373 1.384 . S
N2377 C2369 1.427 . S
N2377 C2375 1.384 . S
H2378 C2384 0.930 . S
H2379 C2388 0.930 . S
H2380 C2393 0.929 . S
H2381 C2391 0.929 . S
H2382 C2386 0.929 . S
H2383 C2392 0.929 . S
C2384 H2378 0.930 . S
C2384 C2385 1.367 . S
C2384 C2392 1.378 . S
C2385 C2384 1.367 . S
C2385 C2393 1.433 . S
C2386 H2382 0.929 . S
C2386 C2388 1.378 . S
C2386 C2390 1.350 . S
C2387 C2390 1.463 . S
C2387 C2392 1.350 . S
C2387 N2395 1.427 . S
C2388 H2379 0.930 . S
C2388 C2386 1.378 . S
C2388 C2389 1.367 . S
C2389 C2388 1.367 . S
C2389 C2391 1.433 . S
C2390 C2386 1.350 . S
C2390 C2387 1.463 . S
C2390 N2394 1.427 . S
C2391 H2381 0.929 . S
C2391 C2389 1.433 . S
C2391 N2394 1.384 . S
C2392 H2383 0.929 . S
C2392 C2384 1.378 . S
C2392 C2387 1.350 . S
C2393 H2380 0.929 . S
C2393 C2385 1.433 . S
C2393 N2395 1.384 . S
N2394 C2390 1.427 . S
N2394 C2391 1.384 . S
N2395 C2387 1.427 . S
N2395 C2393 1.384 . S
H2396 C2402 0.930 . S
H2397 C2406 0.930 . S
H2398 C2411 0.929 . S
H2399 C2409 0.929 . S
H2400 C2404 0.929 . S
H2401 C2410 0.929 . S
C2402 H2396 0.930 . S
C2402 C2403 1.367 . S
C2402 C2410 1.378 . S
C2403 C2402 1.367 . S
C2403 C2411 1.433 . S
C2404 H2400 0.929 . S
C2404 C2406 1.378 . S
C2404 C2408 1.350 . S
C2405 C2408 1.463 . S
C2405 C2410 1.350 . S
C2405 N2413 1.427 . S
C2406 H2397 0.930 . S
C2406 C2404 1.378 . S
C2406 C2407 1.367 . S
C2407 C2406 1.367 . S
C2407 C2409 1.433 . S
C2408 C2404 1.350 . S
C2408 C2405 1.463 . S
C2408 N2412 1.427 . S
C2409 H2399 0.929 . S
C2409 C2407 1.433 . S
C2409 N2412 1.384 . S
C2410 H2401 0.929 . S
C2410 C2402 1.378 . S
C2410 C2405 1.350 . S
C2411 H2398 0.929 . S
C2411 C2403 1.433 . S
C2411 N2413 1.384 . S
N2412 C2408 1.427 . S
N2412 C2409 1.384 . S
N2413 C2405 1.427 . S
N2413 C2411 1.384 . S
H2414 C2420 0.930 . S
H2415 C2424 0.930 . S
H2416 C2429 0.929 . S
H2417 C2427 0.929 . S
H2418 C2422 0.929 . S
H2419 C2428 0.929 . S
C2420 H2414 0.930 . S
C2420 C2421 1.367 . S
C2420 C2428 1.378 . S
C2421 C2420 1.367 . S
C2421 C2429 1.433 . S
C2422 H2418 0.929 . S
C2422 C2424 1.378 . S
C2422 C2426 1.350 . S
C2423 C2426 1.463 . S
C2423 C2428 1.350 . S
C2423 N2431 1.427 . S
C2424 H2415 0.930 . S
C2424 C2422 1.378 . S
C2424 C2425 1.367 . S
C2425 C2424 1.367 . S
C2425 C2427 1.433 . S
C2426 C2422 1.350 . S
C2426 C2423 1.463 . S
C2426 N2430 1.427 . S
C2427 H2417 0.929 . S
C2427 C2425 1.433 . S
C2427 N2430 1.384 . S
C2428 H2419 0.929 . S
C2428 C2420 1.378 . S
C2428 C2423 1.350 . S
C2429 H2416 0.929 . S
C2429 C2421 1.433 . S
C2429 N2431 1.384 . S
N2430 C2426 1.427 . S
N2430 C2427 1.384 . S
N2431 C2423 1.427 . S
N2431 C2429 1.384 . S
H2432 C2438 0.930 . S
H2433 C2442 0.930 . S
H2434 C2447 0.929 . S
H2435 C2445 0.929 . S
H2436 C2440 0.929 . S
H2437 C2446 0.929 . S
C2438 H2432 0.930 . S
C2438 C2439 1.367 . S
C2438 C2446 1.378 . S
C2439 C2438 1.367 . S
C2439 C2447 1.433 . S
C2440 H2436 0.929 . S
C2440 C2442 1.378 . S
C2440 C2444 1.350 . S
C2441 C2444 1.463 . S
C2441 C2446 1.350 . S
C2441 N2449 1.427 . S
C2442 H2433 0.930 . S
C2442 C2440 1.378 . S
C2442 C2443 1.367 . S
C2443 C2442 1.367 . S
C2443 C2445 1.433 . S
C2444 C2440 1.350 . S
C2444 C2441 1.463 . S
C2444 N2448 1.427 . S
C2445 H2435 0.929 . S
C2445 C2443 1.433 . S
C2445 N2448 1.384 . S
C2446 H2437 0.929 . S
C2446 C2438 1.378 . S
C2446 C2441 1.350 . S
C2447 H2434 0.929 . S
C2447 C2439 1.433 . S
C2447 N2449 1.384 . S
N2448 C2444 1.427 . S
N2448 C2445 1.384 . S
N2449 C2441 1.427 . S
N2449 C2447 1.384 . S
H2450 C2456 0.930 . S
H2451 C2460 0.930 . S
H2452 C2465 0.929 . S
H2453 C2463 0.929 . S
H2454 C2458 0.929 . S
H2455 C2464 0.929 . S
C2456 H2450 0.930 . S
C2456 C2457 1.367 . S
C2456 C2464 1.378 . S
C2457 C2456 1.367 . S
C2457 C2465 1.433 . S
C2458 H2454 0.929 . S
C2458 C2460 1.378 . S
C2458 C2462 1.350 . S
C2459 C2462 1.463 . S
C2459 C2464 1.350 . S
C2459 N2467 1.427 . S
C2460 H2451 0.930 . S
C2460 C2458 1.378 . S
C2460 C2461 1.367 . S
C2461 C2460 1.367 . S
C2461 C2463 1.433 . S
C2462 C2458 1.350 . S
C2462 C2459 1.463 . S
C2462 N2466 1.427 . S
C2463 H2453 0.929 . S
C2463 C2461 1.433 . S
C2463 N2466 1.384 . S
C2464 H2455 0.929 . S
C2464 C2456 1.378 . S
C2464 C2459 1.350 . S
C2465 H2452 0.929 . S
C2465 C2457 1.433 . S
C2465 N2467 1.384 . S
N2466 C2462 1.427 . S
N2466 C2463 1.384 . S
N2467 C2459 1.427 . S
N2467 C2465 1.384 . S
H2468 C2474 0.930 . S
H2469 C2478 0.930 . S
H2470 C2483 0.929 1_554 S
H2471 C2481 0.929 . S
H2472 C2476 0.929 . S
H2473 C2482 0.929 . S
C2474 H2468 0.930 . S
C2474 C2475 1.367 . S
C2474 C2482 1.378 . S
C2475 C2474 1.367 . S
C2475 C2483 1.433 . S
C2476 H2472 0.929 . S
C2476 C2478 1.378 . S
C2476 C2480 1.350 . S
C2477 C2480 1.463 . S
C2477 C2482 1.350 . S
C2477 N2485 1.427 . S
C2478 H2469 0.930 . S
C2478 C2476 1.378 . S
C2478 C2479 1.367 . S
C2479 C2478 1.367 . S
C2479 C2481 1.433 . S
C2480 C2476 1.350 . S
C2480 C2477 1.463 . S
C2480 N2484 1.427 . S
C2481 H2471 0.929 . S
C2481 C2479 1.433 . S
C2481 N2484 1.384 . S
C2482 H2473 0.929 . S
C2482 C2474 1.378 . S
C2482 C2477 1.350 . S
C2483 H2470 0.929 1_556 S
C2483 C2475 1.433 . S
C2483 N2485 1.384 . S
N2484 C2480 1.427 . S
N2484 C2481 1.384 . S
N2485 C2477 1.427 . S
N2485 C2483 1.384 . S
H2486 C2492 0.930 . S
H2487 C2496 0.930 . S
H2488 C2501 0.929 . S
H2489 C2499 0.929 . S
H2490 C2494 0.929 . S
H2491 C2500 0.929 . S
C2492 H2486 0.930 . S
C2492 C2493 1.367 . S
C2492 C2500 1.378 . S
C2493 C2492 1.367 . S
C2493 C2501 1.433 . S
C2494 H2490 0.929 . S
C2494 C2496 1.378 . S
C2494 C2498 1.350 . S
C2495 C2498 1.463 . S
C2495 C2500 1.350 . S
C2495 N2503 1.427 . S
C2496 H2487 0.930 . S
C2496 C2494 1.378 . S
C2496 C2497 1.367 . S
C2497 C2496 1.367 . S
C2497 C2499 1.433 . S
C2498 C2494 1.350 . S
C2498 C2495 1.463 . S
C2498 N2502 1.427 . S
C2499 H2489 0.929 . S
C2499 C2497 1.433 . S
C2499 N2502 1.384 . S
C2500 H2491 0.929 . S
C2500 C2492 1.378 . S
C2500 C2495 1.350 . S
C2501 H2488 0.929 . S
C2501 C2493 1.433 . S
C2501 N2503 1.384 . S
N2502 C2498 1.427 . S
N2502 C2499 1.384 . S
N2503 C2495 1.427 . S
N2503 C2501 1.384 . S
H2504 C2510 0.930 . S
H2505 C2514 0.930 . S
H2506 C2519 0.929 . S
H2507 C2517 0.929 . S
H2508 C2512 0.929 . S
H2509 C2518 0.929 . S
C2510 H2504 0.930 . S
C2510 C2511 1.367 . S
C2510 C2518 1.378 . S
C2511 C2510 1.367 . S
C2511 C2519 1.433 . S
C2512 H2508 0.929 . S
C2512 C2514 1.378 . S
C2512 C2516 1.350 . S
C2513 C2516 1.463 . S
C2513 C2518 1.350 . S
C2513 N2521 1.427 . S
C2514 H2505 0.930 . S
C2514 C2512 1.378 . S
C2514 C2515 1.367 . S
C2515 C2514 1.367 . S
C2515 C2517 1.433 . S
C2516 C2512 1.350 . S
C2516 C2513 1.463 . S
C2516 N2520 1.427 . S
C2517 H2507 0.929 . S
C2517 C2515 1.433 . S
C2517 N2520 1.384 . S
C2518 H2509 0.929 . S
C2518 C2510 1.378 . S
C2518 C2513 1.350 . S
C2519 H2506 0.929 . S
C2519 C2511 1.433 . S
C2519 N2521 1.384 . S
N2520 C2516 1.427 . S
N2520 C2517 1.384 . S
N2521 C2513 1.427 . S
N2521 C2519 1.384 . S
H2522 C2528 0.930 . S
H2523 C2532 0.930 . S
H2524 C2537 0.929 . S
H2525 C2535 0.929 . S
H2526 C2530 0.929 . S
H2527 C2536 0.929 . S
C2528 H2522 0.930 . S
C2528 C2529 1.367 . S
C2528 C2536 1.378 . S
C2529 C2528 1.367 . S
C2529 C2537 1.433 . S
C2530 H2526 0.929 . S
C2530 C2532 1.378 . S
C2530 C2534 1.350 . S
C2531 C2534 1.463 . S
C2531 C2536 1.350 . S
C2531 N2539 1.427 . S
C2532 H2523 0.930 . S
C2532 C2530 1.378 . S
C2532 C2533 1.367 . S
C2533 C2532 1.367 . S
C2533 C2535 1.433 . S
C2534 C2530 1.350 . S
C2534 C2531 1.463 . S
C2534 N2538 1.427 . S
C2535 H2525 0.929 . S
C2535 C2533 1.433 . S
C2535 N2538 1.384 . S
C2536 H2527 0.929 . S
C2536 C2528 1.378 . S
C2536 C2531 1.350 . S
C2537 H2524 0.929 . S
C2537 C2529 1.433 . S
C2537 N2539 1.384 . S
N2538 C2534 1.427 . S
N2538 C2535 1.384 . S
N2539 C2531 1.427 . S
N2539 C2537 1.384 . S
H2540 C2546 0.930 . S
H2541 C2550 0.930 . S
H2542 C2555 0.929 . S
H2543 C2553 0.929 . S
H2544 C2548 0.929 . S
H2545 C2554 0.929 . S
C2546 H2540 0.930 . S
C2546 C2547 1.367 . S
C2546 C2554 1.378 . S
C2547 C2546 1.367 . S
C2547 C2555 1.433 . S
C2548 H2544 0.929 . S
C2548 C2550 1.378 . S
C2548 C2552 1.350 . S
C2549 C2552 1.463 . S
C2549 C2554 1.350 . S
C2549 N2557 1.427 . S
C2550 H2541 0.930 . S
C2550 C2548 1.378 . S
C2550 C2551 1.367 . S
C2551 C2550 1.367 . S
C2551 C2553 1.433 . S
C2552 C2548 1.350 . S
C2552 C2549 1.463 . S
C2552 N2556 1.427 . S
C2553 H2543 0.929 . S
C2553 C2551 1.433 . S
C2553 N2556 1.384 . S
C2554 H2545 0.929 . S
C2554 C2546 1.378 . S
C2554 C2549 1.350 . S
C2555 H2542 0.929 . S
C2555 C2547 1.433 . S
C2555 N2557 1.384 . S
N2556 C2552 1.427 . S
N2556 C2553 1.384 . S
N2557 C2549 1.427 . S
N2557 C2555 1.384 . S
H2558 C2564 0.930 . S
H2559 C2568 0.930 . S
H2560 C2573 0.929 1_556 S
H2561 C2571 0.929 . S
H2562 C2566 0.929 . S
H2563 C2572 0.929 . S
C2564 H2558 0.930 . S
C2564 C2565 1.367 . S
C2564 C2572 1.378 . S
C2565 C2564 1.367 . S
C2565 C2573 1.433 . S
C2566 H2562 0.929 . S
C2566 C2568 1.378 . S
C2566 C2570 1.350 . S
C2567 C2570 1.463 . S
C2567 C2572 1.350 . S
C2567 N2575 1.427 . S
C2568 H2559 0.930 . S
C2568 C2566 1.378 . S
C2568 C2569 1.367 . S
C2569 C2568 1.367 . S
C2569 C2571 1.433 . S
C2570 C2566 1.350 . S
C2570 C2567 1.463 . S
C2570 N2574 1.427 . S
C2571 H2561 0.929 . S
C2571 C2569 1.433 . S
C2571 N2574 1.384 . S
C2572 H2563 0.929 . S
C2572 C2564 1.378 . S
C2572 C2567 1.350 . S
C2573 H2560 0.929 1_554 S
C2573 C2565 1.433 . S
C2573 N2575 1.384 . S
N2574 C2570 1.427 . S
N2574 C2571 1.384 . S
N2575 C2567 1.427 . S
N2575 C2573 1.384 . S
H2576 C2582 0.930 . S
H2577 C2586 0.930 . S
H2578 C2591 0.929 . S
H2579 C2589 0.929 . S
H2580 C2584 0.929 . S
H2581 C2590 0.929 . S
C2582 H2576 0.930 . S
C2582 C2583 1.367 . S
C2582 C2590 1.378 . S
C2583 C2582 1.367 . S
C2583 C2591 1.433 . S
C2584 H2580 0.929 . S
C2584 C2586 1.378 . S
C2584 C2588 1.350 . S
C2585 C2588 1.463 . S
C2585 C2590 1.350 . S
C2585 N2593 1.427 . S
C2586 H2577 0.930 . S
C2586 C2584 1.378 . S
C2586 C2587 1.367 . S
C2587 C2586 1.367 . S
C2587 C2589 1.433 . S
C2588 C2584 1.350 . S
C2588 C2585 1.463 . S
C2588 N2592 1.427 . S
C2589 H2579 0.929 . S
C2589 C2587 1.433 . S
C2589 N2592 1.384 . S
C2590 H2581 0.929 . S
C2590 C2582 1.378 . S
C2590 C2585 1.350 . S
C2591 H2578 0.929 . S
C2591 C2583 1.433 . S
C2591 N2593 1.384 . S
N2592 C2588 1.427 . S
N2592 C2589 1.384 . S
N2593 C2585 1.427 . S
N2593 C2591 1.384 . S
H2594 C2600 0.930 . S
H2595 C2604 0.930 . S
H2596 C2609 0.929 . S
H2597 C2607 0.929 . S
H2598 C2602 0.929 . S
H2599 C2608 0.929 . S
C2600 H2594 0.930 . S
C2600 C2601 1.367 . S
C2600 C2608 1.378 . S
C2601 C2600 1.367 . S
C2601 C2609 1.433 . S
C2602 H2598 0.929 . S
C2602 C2604 1.378 . S
C2602 C2606 1.350 . S
C2603 C2606 1.463 . S
C2603 C2608 1.350 . S
C2603 N2611 1.427 . S
C2604 H2595 0.930 . S
C2604 C2602 1.378 . S
C2604 C2605 1.367 . S
C2605 C2604 1.367 . S
C2605 C2607 1.433 . S
C2606 C2602 1.350 . S
C2606 C2603 1.463 . S
C2606 N2610 1.427 . S
C2607 H2597 0.929 . S
C2607 C2605 1.433 . S
C2607 N2610 1.384 . S
C2608 H2599 0.929 . S
C2608 C2600 1.378 . S
C2608 C2603 1.350 . S
C2609 H2596 0.929 . S
C2609 C2601 1.433 . S
C2609 N2611 1.384 . S
N2610 C2606 1.427 . S
N2610 C2607 1.384 . S
N2611 C2603 1.427 . S
N2611 C2609 1.384 . S
H2612 C2618 0.930 . S
H2613 C2622 0.930 . S
H2614 C2627 0.929 . S
H2615 C2625 0.929 . S
H2616 C2620 0.929 . S
H2617 C2626 0.929 . S
C2618 H2612 0.930 . S
C2618 C2619 1.367 . S
C2618 C2626 1.378 . S
C2619 C2618 1.367 . S
C2619 C2627 1.433 . S
C2620 H2616 0.929 . S
C2620 C2622 1.378 . S
C2620 C2624 1.350 . S
C2621 C2624 1.463 . S
C2621 C2626 1.350 . S
C2621 N2629 1.427 . S
C2622 H2613 0.930 . S
C2622 C2620 1.378 . S
C2622 C2623 1.367 . S
C2623 C2622 1.367 . S
C2623 C2625 1.433 . S
C2624 C2620 1.350 . S
C2624 C2621 1.463 . S
C2624 N2628 1.427 . S
C2625 H2615 0.929 . S
C2625 C2623 1.433 . S
C2625 N2628 1.384 . S
C2626 H2617 0.929 . S
C2626 C2618 1.378 . S
C2626 C2621 1.350 . S
C2627 H2614 0.929 . S
C2627 C2619 1.433 . S
C2627 N2629 1.384 . S
N2628 C2624 1.427 . S
N2628 C2625 1.384 . S
N2629 C2621 1.427 . S
N2629 C2627 1.384 . S
H2630 C2636 0.930 . S
H2631 C2640 0.930 . S
H2632 C2645 0.929 . S
H2633 C2643 0.929 . S
H2634 C2638 0.929 . S
H2635 C2644 0.929 . S
C2636 H2630 0.930 . S
C2636 C2637 1.367 . S
C2636 C2644 1.378 . S
C2637 C2636 1.367 . S
C2637 C2645 1.433 . S
C2638 H2634 0.929 . S
C2638 C2640 1.378 . S
C2638 C2642 1.350 . S
C2639 C2642 1.463 . S
C2639 C2644 1.350 . S
C2639 N2647 1.427 . S
C2640 H2631 0.930 . S
C2640 C2638 1.378 . S
C2640 C2641 1.367 . S
C2641 C2640 1.367 . S
C2641 C2643 1.433 . S
C2642 C2638 1.350 . S
C2642 C2639 1.463 . S
C2642 N2646 1.427 . S
C2643 H2633 0.929 . S
C2643 C2641 1.433 . S
C2643 N2646 1.384 . S
C2644 H2635 0.929 . S
C2644 C2636 1.378 . S
C2644 C2639 1.350 . S
C2645 H2632 0.929 . S
C2645 C2637 1.433 . S
C2645 N2647 1.384 . S
N2646 C2642 1.427 . S
N2646 C2643 1.384 . S
N2647 C2639 1.427 . S
N2647 C2645 1.384 . S
H2648 C2654 0.930 . S
H2649 C2658 0.930 . S
H2650 C2663 0.929 1_556 S
H2651 C2661 0.929 . S
H2652 C2656 0.929 . S
H2653 C2662 0.929 . S
C2654 H2648 0.930 . S
C2654 C2655 1.367 . S
C2654 C2662 1.378 . S
C2655 C2654 1.367 . S
C2655 C2663 1.433 . S
C2656 H2652 0.929 . S
C2656 C2658 1.378 . S
C2656 C2660 1.350 . S
C2657 C2660 1.463 . S
C2657 C2662 1.350 . S
C2657 N2665 1.427 . S
C2658 H2649 0.930 . S
C2658 C2656 1.378 . S
C2658 C2659 1.367 . S
C2659 C2658 1.367 . S
C2659 C2661 1.433 . S
C2660 C2656 1.350 . S
C2660 C2657 1.463 . S
C2660 N2664 1.427 . S
C2661 H2651 0.929 . S
C2661 C2659 1.433 . S
C2661 N2664 1.384 . S
C2662 H2653 0.929 . S
C2662 C2654 1.378 . S
C2662 C2657 1.350 . S
C2663 H2650 0.929 1_554 S
C2663 C2655 1.433 . S
C2663 N2665 1.384 . S
N2664 C2660 1.427 . S
N2664 C2661 1.384 . S
N2665 C2657 1.427 . S
N2665 C2663 1.384 . S
H2666 C2672 0.930 . S
H2667 C2676 0.930 . S
H2668 C2681 0.929 . S
H2669 C2679 0.923 1_556 S
H2670 C2674 0.929 . S
H2671 C2680 0.929 . S
C2672 H2666 0.930 . S
C2672 C2673 1.367 . S
C2672 C2680 1.378 . S
C2673 C2672 1.367 . S
C2673 C2681 1.433 . S
C2674 H2670 0.929 . S
C2674 C2676 1.378 . S
C2674 C2678 1.350 . S
C2675 C2678 1.463 . S
C2675 C2680 1.350 . S
C2675 N2683 1.427 . S
C2676 H2667 0.930 . S
C2676 C2674 1.378 . S
C2676 C2677 1.367 . S
C2677 C2676 1.367 . S
C2677 C2679 1.433 . S
C2678 C2674 1.350 . S
C2678 C2675 1.463 . S
C2678 N2682 1.427 . S
C2679 H2669 0.923 1_554 S
C2679 C2677 1.433 . S
C2679 N2682 1.384 . S
C2680 H2671 0.929 . S
C2680 C2672 1.378 . S
C2680 C2675 1.350 . S
C2681 H2668 0.929 . S
C2681 C2673 1.433 . S
C2681 N2683 1.384 . S
N2682 C2678 1.427 . S
N2682 C2679 1.384 . S
N2683 C2675 1.427 . S
N2683 C2681 1.384 . S
H2684 C2690 0.930 . S
H2685 C2694 0.930 . S
H2686 C2699 0.929 . S
H2687 C2697 0.929 . S
H2688 C2692 0.929 . S
H2689 C2698 0.929 . S
C2690 H2684 0.930 . S
C2690 C2691 1.367 . S
C2690 C2698 1.378 . S
C2691 C2690 1.367 . S
C2691 C2699 1.433 . S
C2692 H2688 0.929 . S
C2692 C2694 1.378 . S
C2692 C2696 1.350 . S
C2693 C2696 1.463 . S
C2693 C2698 1.350 . S
C2693 N2701 1.427 . S
C2694 H2685 0.930 . S
C2694 C2692 1.378 . S
C2694 C2695 1.367 . S
C2695 C2694 1.367 . S
C2695 C2697 1.433 . S
C2696 C2692 1.350 . S
C2696 C2693 1.463 . S
C2696 N2700 1.427 . S
C2697 H2687 0.929 . S
C2697 C2695 1.433 . S
C2697 N2700 1.384 . S
C2698 H2689 0.929 . S
C2698 C2690 1.378 . S
C2698 C2693 1.350 . S
C2699 H2686 0.929 . S
C2699 C2691 1.433 . S
C2699 N2701 1.384 . S
N2700 C2696 1.427 . S
N2700 C2697 1.384 . S
N2701 C2693 1.427 . S
N2701 C2699 1.384 . S
H2702 C2708 0.930 . S
H2703 C2712 0.930 . S
H2704 C2717 0.929 . S
H2705 C2715 0.929 . S
H2706 C2710 0.929 . S
H2707 C2716 0.929 . S
C2708 H2702 0.930 . S
C2708 C2709 1.367 . S
C2708 C2716 1.378 . S
C2709 C2708 1.367 . S
C2709 C2717 1.433 . S
C2710 H2706 0.929 . S
C2710 C2712 1.378 . S
C2710 C2714 1.350 . S
C2711 C2714 1.463 . S
C2711 C2716 1.350 . S
C2711 N2719 1.427 . S
C2712 H2703 0.930 . S
C2712 C2710 1.378 . S
C2712 C2713 1.367 . S
C2713 C2712 1.367 . S
C2713 C2715 1.433 . S
C2714 C2710 1.350 . S
C2714 C2711 1.463 . S
C2714 N2718 1.427 . S
C2715 H2705 0.929 . S
C2715 C2713 1.433 . S
C2715 N2718 1.384 . S
C2716 H2707 0.929 . S
C2716 C2708 1.378 . S
C2716 C2711 1.350 . S
C2717 H2704 0.929 . S
C2717 C2709 1.433 . S
C2717 N2719 1.384 . S
N2718 C2714 1.427 . S
N2718 C2715 1.384 . S
N2719 C2711 1.427 . S
N2719 C2717 1.384 . S
H2720 C2726 0.930 . S
H2721 C2730 0.930 . S
H2722 C2735 0.929 . S
H2723 C2733 0.934 . S
H2724 C2728 0.929 . S
H2725 C2734 0.929 . S
C2726 H2720 0.930 . S
C2726 C2727 1.367 . S
C2726 C2734 1.378 . S
C2727 C2726 1.367 . S
C2727 C2735 1.433 . S
C2728 H2724 0.929 . S
C2728 C2730 1.378 . S
C2728 C2732 1.350 . S
C2729 C2732 1.463 . S
C2729 C2734 1.350 . S
C2729 N2737 1.427 . S
C2730 H2721 0.930 . S
C2730 C2728 1.378 . S
C2730 C2731 1.367 . S
C2731 C2730 1.367 . S
C2731 C2733 1.433 . S
C2732 C2728 1.350 . S
C2732 C2729 1.463 . S
C2732 N2736 1.427 . S
C2733 H2723 0.934 . S
C2733 C2731 1.433 . S
C2733 N2736 1.384 . S
C2734 H2725 0.929 . S
C2734 C2726 1.378 . S
C2734 C2729 1.350 . S
C2735 H2722 0.929 . S
C2735 C2727 1.433 . S
C2735 N2737 1.384 . S
N2736 C2732 1.427 . S
N2736 C2733 1.384 . S
N2737 C2729 1.427 . S
N2737 C2735 1.384 . S
H2738 C2744 0.930 . S
H2739 C2748 0.930 . S
H2740 C2753 0.929 . S
H2741 C2751 0.929 . S
H2742 C2746 0.929 . S
H2743 C2752 0.929 . S
C2744 H2738 0.930 . S
C2744 C2745 1.367 . S
C2744 C2752 1.378 . S
C2745 C2744 1.367 . S
C2745 C2753 1.433 . S
C2746 H2742 0.929 . S
C2746 C2748 1.378 . S
C2746 C2750 1.350 . S
C2747 C2750 1.463 . S
C2747 C2752 1.350 . S
C2747 N2755 1.427 . S
C2748 H2739 0.930 . S
C2748 C2746 1.378 . S
C2748 C2749 1.367 . S
C2749 C2748 1.367 . S
C2749 C2751 1.433 . S
C2750 C2746 1.350 . S
C2750 C2747 1.463 . S
C2750 N2754 1.427 . S
C2751 H2741 0.929 . S
C2751 C2749 1.433 . S
C2751 N2754 1.384 . S
C2752 H2743 0.929 . S
C2752 C2744 1.378 . S
C2752 C2747 1.350 . S
C2753 H2740 0.929 . S
C2753 C2745 1.433 . S
C2753 N2755 1.384 . S
N2754 C2750 1.427 . S
N2754 C2751 1.384 . S
N2755 C2747 1.427 . S
N2755 C2753 1.384 . S
H2756 C2762 0.930 . S
H2757 C2766 0.930 . S
H2758 C2771 0.929 . S
H2759 C2769 0.929 . S
H2760 C2764 0.929 . S
H2761 C2770 0.929 . S
C2762 H2756 0.930 . S
C2762 C2763 1.367 . S
C2762 C2770 1.378 . S
C2763 C2762 1.367 . S
C2763 C2771 1.433 . S
C2764 H2760 0.929 . S
C2764 C2766 1.378 . S
C2764 C2768 1.350 . S
C2765 C2768 1.463 . S
C2765 C2770 1.350 . S
C2765 N2773 1.427 . S
C2766 H2757 0.930 . S
C2766 C2764 1.378 . S
C2766 C2767 1.367 . S
C2767 C2766 1.367 . S
C2767 C2769 1.433 . S
C2768 C2764 1.350 . S
C2768 C2765 1.463 . S
C2768 N2772 1.427 . S
C2769 H2759 0.929 . S
C2769 C2767 1.433 . S
C2769 N2772 1.384 . S
C2770 H2761 0.929 . S
C2770 C2762 1.378 . S
C2770 C2765 1.350 . S
C2771 H2758 0.929 . S
C2771 C2763 1.433 . S
C2771 N2773 1.384 . S
N2772 C2768 1.427 . S
N2772 C2769 1.384 . S
N2773 C2765 1.427 . S
N2773 C2771 1.384 . S
H2774 C2780 0.930 . S
H2775 C2784 0.948 . S
H2776 C2789 0.929 . S
H2777 C2787 0.929 . S
H2778 C2782 0.929 . S
H2779 C2788 0.929 . S
C2780 H2774 0.930 . S
C2780 C2781 1.367 . S
C2780 C2788 1.378 . S
C2781 C2780 1.367 . S
C2781 C2789 1.433 . S
C2782 H2778 0.929 . S
C2782 C2784 1.378 . S
C2782 C2786 1.350 . S
C2783 C2786 1.463 . S
C2783 C2788 1.350 . S
C2783 N2791 1.427 . S
C2784 H2775 0.948 . S
C2784 C2782 1.378 . S
C2784 C2785 1.367 . S
C2785 C2784 1.367 . S
C2785 C2787 1.433 . S
C2786 C2782 1.350 . S
C2786 C2783 1.463 . S
C2786 N2790 1.427 . S
C2787 H2777 0.929 . S
C2787 C2785 1.433 . S
C2787 N2790 1.384 . S
C2788 H2779 0.929 . S
C2788 C2780 1.378 . S
C2788 C2783 1.350 . S
C2789 H2776 0.929 . S
C2789 C2781 1.433 . S
C2789 N2791 1.384 . S
N2790 C2786 1.427 . S
N2790 C2787 1.384 . S
N2791 C2783 1.427 . S
N2791 C2789 1.384 . S
H2792 C2798 0.930 . S
H2793 C2802 0.930 . S
H2794 C2807 0.929 . S
H2795 C2805 0.929 . S
H2796 C2800 0.929 . S
H2797 C2806 0.929 . S
C2798 H2792 0.930 . S
C2798 C2799 1.367 . S
C2798 C2806 1.378 . S
C2799 C2798 1.367 . S
C2799 C2807 1.433 . S
C2800 H2796 0.929 . S
C2800 C2802 1.378 . S
C2800 C2804 1.350 . S
C2801 C2804 1.463 . S
C2801 C2806 1.350 . S
C2801 N2809 1.427 . S
C2802 H2793 0.930 . S
C2802 C2800 1.378 . S
C2802 C2803 1.367 . S
C2803 C2802 1.367 . S
C2803 C2805 1.433 . S
C2804 C2800 1.350 . S
C2804 C2801 1.463 . S
C2804 N2808 1.427 . S
C2805 H2795 0.929 . S
C2805 C2803 1.433 . S
C2805 N2808 1.384 . S
C2806 H2797 0.929 . S
C2806 C2798 1.378 . S
C2806 C2801 1.350 . S
C2807 H2794 0.929 . S
C2807 C2799 1.433 . S
C2807 N2809 1.384 . S
N2808 C2804 1.427 . S
N2808 C2805 1.384 . S
N2809 C2801 1.427 . S
N2809 C2807 1.384 . S
H2810 C2816 0.930 . S
H2811 C2820 0.930 . S
H2812 C2825 0.929 . S
H2813 C2823 0.929 . S
H2814 C2818 0.929 . S
H2815 C2824 0.929 . S
C2816 H2810 0.930 . S
C2816 C2817 1.367 . S
C2816 C2824 1.378 . S
C2817 C2816 1.367 . S
C2817 C2825 1.433 . S
C2818 H2814 0.929 . S
C2818 C2820 1.378 . S
C2818 C2822 1.350 . S
C2819 C2822 1.463 . S
C2819 C2824 1.350 . S
C2819 N2827 1.427 . S
C2820 H2811 0.930 . S
C2820 C2818 1.378 . S
C2820 C2821 1.367 . S
C2821 C2820 1.367 . S
C2821 C2823 1.433 . S
C2822 C2818 1.350 . S
C2822 C2819 1.463 . S
C2822 N2826 1.427 . S
C2823 H2813 0.929 . S
C2823 C2821 1.433 . S
C2823 N2826 1.384 . S
C2824 H2815 0.929 . S
C2824 C2816 1.378 . S
C2824 C2819 1.350 . S
C2825 H2812 0.929 . S
C2825 C2817 1.433 . S
C2825 N2827 1.384 . S
N2826 C2822 1.427 . S
N2826 C2823 1.384 . S
N2827 C2819 1.427 . S
N2827 C2825 1.384 . S
H2828 C2834 0.930 . S
H2829 C2838 0.930 . S
H2830 C2843 0.929 . S
H2831 C2841 0.929 . S
H2832 C2836 0.929 . S
H2833 C2842 0.929 . S
C2834 H2828 0.930 . S
C2834 C2835 1.367 . S
C2834 C2842 1.378 . S
C2835 C2834 1.367 . S
C2835 C2843 1.433 . S
C2836 H2832 0.929 . S
C2836 C2838 1.378 . S
C2836 C2840 1.350 . S
C2837 C2840 1.463 . S
C2837 C2842 1.350 . S
C2837 N2845 1.427 . S
C2838 H2829 0.930 . S
C2838 C2836 1.378 . S
C2838 C2839 1.367 . S
C2839 C2838 1.367 . S
C2839 C2841 1.433 . S
C2840 C2836 1.350 . S
C2840 C2837 1.463 . S
C2840 N2844 1.427 . S
C2841 H2831 0.929 . S
C2841 C2839 1.433 . S
C2841 N2844 1.384 . S
C2842 H2833 0.929 . S
C2842 C2834 1.378 . S
C2842 C2837 1.350 . S
C2843 H2830 0.929 . S
C2843 C2835 1.433 . S
C2843 N2845 1.384 . S
N2844 C2840 1.427 . S
N2844 C2841 1.384 . S
N2845 C2837 1.427 . S
N2845 C2843 1.384 . S
H2846 C2852 0.930 . S
H2847 C2856 0.930 . S
H2848 C2861 0.929 . S
H2849 C2859 0.929 . S
H2850 C2854 0.929 . S
H2851 C2860 0.929 . S
C2852 H2846 0.930 . S
C2852 C2853 1.367 . S
C2852 C2860 1.378 . S
C2853 C2852 1.367 . S
C2853 C2861 1.433 . S
C2854 H2850 0.929 . S
C2854 C2856 1.378 . S
C2854 C2858 1.350 . S
C2855 C2858 1.463 . S
C2855 C2860 1.350 . S
C2855 N2863 1.427 . S
C2856 H2847 0.930 . S
C2856 C2854 1.378 . S
C2856 C2857 1.367 . S
C2857 C2856 1.367 . S
C2857 C2859 1.433 . S
C2858 C2854 1.350 . S
C2858 C2855 1.463 . S
C2858 N2862 1.427 . S
C2859 H2849 0.929 . S
C2859 C2857 1.433 . S
C2859 N2862 1.384 . S
C2860 H2851 0.929 . S
C2860 C2852 1.378 . S
C2860 C2855 1.350 . S
C2861 H2848 0.929 . S
C2861 C2853 1.433 . S
C2861 N2863 1.384 . S
N2862 C2858 1.427 . S
N2862 C2859 1.384 . S
N2863 C2855 1.427 . S
N2863 C2861 1.384 . S
H2864 C2870 0.930 . S
H2865 C2874 0.930 . S
H2866 C2879 0.929 . S
H2867 C2877 0.929 . S
H2868 C2872 0.929 . S
H2869 C2878 0.929 . S
C2870 H2864 0.930 . S
C2870 C2871 1.367 . S
C2870 C2878 1.378 . S
C2871 C2870 1.367 . S
C2871 C2879 1.433 . S
C2872 H2868 0.929 . S
C2872 C2874 1.378 . S
C2872 C2876 1.350 . S
C2873 C2876 1.463 . S
C2873 C2878 1.350 . S
C2873 N2881 1.427 . S
C2874 H2865 0.930 . S
C2874 C2872 1.378 . S
C2874 C2875 1.367 . S
C2875 C2874 1.367 . S
C2875 C2877 1.433 . S
C2876 C2872 1.350 . S
C2876 C2873 1.463 . S
C2876 N2880 1.427 . S
C2877 H2867 0.929 . S
C2877 C2875 1.433 . S
C2877 N2880 1.384 . S
C2878 H2869 0.929 . S
C2878 C2870 1.378 . S
C2878 C2873 1.350 . S
C2879 H2866 0.929 . S
C2879 C2871 1.433 . S
C2879 N2881 1.384 . S
N2880 C2876 1.427 . S
N2880 C2877 1.384 . S
N2881 C2873 1.427 . S
N2881 C2879 1.384 . S
H2882 C2888 0.930 . S
H2883 C2892 0.930 . S
H2884 C2897 0.929 . S
H2885 C2895 0.929 . S
H2886 C2890 0.929 . S
H2887 C2896 0.929 . S
C2888 H2882 0.930 . S
C2888 C2889 1.367 . S
C2888 C2896 1.378 . S
C2889 C2888 1.367 . S
C2889 C2897 1.433 . S
C2890 H2886 0.929 . S
C2890 C2892 1.378 . S
C2890 C2894 1.350 . S
C2891 C2894 1.463 . S
C2891 C2896 1.350 . S
C2891 N2899 1.427 . S
C2892 H2883 0.930 . S
C2892 C2890 1.378 . S
C2892 C2893 1.367 . S
C2893 C2892 1.367 . S
C2893 C2895 1.433 . S
C2894 C2890 1.350 . S
C2894 C2891 1.463 . S
C2894 N2898 1.427 . S
C2895 H2885 0.929 . S
C2895 C2893 1.433 . S
C2895 N2898 1.384 . S
C2896 H2887 0.929 . S
C2896 C2888 1.378 . S
C2896 C2891 1.350 . S
C2897 H2884 0.929 . S
C2897 C2889 1.433 . S
C2897 N2899 1.384 . S
N2898 C2894 1.427 . S
N2898 C2895 1.384 . S
N2899 C2891 1.427 . S
N2899 C2897 1.384 . S
H2900 C2906 0.930 . S
H2901 C2910 0.930 . S
H2902 C2915 0.929 . S
H2903 C2913 0.929 . S
H2904 C2908 0.929 . S
H2905 C2914 0.929 . S
C2906 H2900 0.930 . S
C2906 C2907 1.367 . S
C2906 C2914 1.378 . S
C2907 C2906 1.367 . S
C2907 C2915 1.433 . S
C2908 H2904 0.929 . S
C2908 C2910 1.378 . S
C2908 C2912 1.350 . S
C2909 C2912 1.463 . S
C2909 C2914 1.350 . S
C2909 N2917 1.427 . S
C2910 H2901 0.930 . S
C2910 C2908 1.378 . S
C2910 C2911 1.367 . S
C2911 C2910 1.367 . S
C2911 C2913 1.433 . S
C2912 C2908 1.350 . S
C2912 C2909 1.463 . S
C2912 N2916 1.427 . S
C2913 H2903 0.929 . S
C2913 C2911 1.433 . S
C2913 N2916 1.384 . S
C2914 H2905 0.929 . S
C2914 C2906 1.378 . S
C2914 C2909 1.350 . S
C2915 H2902 0.929 . S
C2915 C2907 1.433 . S
C2915 N2917 1.384 . S
N2916 C2912 1.427 . S
N2916 C2913 1.384 . S
N2917 C2909 1.427 . S
N2917 C2915 1.384 . S
H2918 C2924 0.930 . S
H2919 C2928 0.930 . S
H2920 C2933 0.929 . S
H2921 C2931 0.929 . S
H2922 C2926 0.929 . S
H2923 C2932 0.929 . S
C2924 H2918 0.930 . S
C2924 C2925 1.367 . S
C2924 C2932 1.378 . S
C2925 C2924 1.367 . S
C2925 C2933 1.433 . S
C2926 H2922 0.929 . S
C2926 C2928 1.378 . S
C2926 C2930 1.350 . S
C2927 C2930 1.463 . S
C2927 C2932 1.350 . S
C2927 N2935 1.427 . S
C2928 H2919 0.930 . S
C2928 C2926 1.378 . S
C2928 C2929 1.367 . S
C2929 C2928 1.367 . S
C2929 C2931 1.433 . S
C2930 C2926 1.350 . S
C2930 C2927 1.463 . S
C2930 N2934 1.427 . S
C2931 H2921 0.929 . S
C2931 C2929 1.433 . S
C2931 N2934 1.384 . S
C2932 H2923 0.929 . S
C2932 C2924 1.378 . S
C2932 C2927 1.350 . S
C2933 H2920 0.929 . S
C2933 C2925 1.433 . S
C2933 N2935 1.384 . S
N2934 C2930 1.427 . S
N2934 C2931 1.384 . S
N2935 C2927 1.427 . S
N2935 C2933 1.384 . S
H2936 C2942 0.930 . S
H2937 C2946 0.930 . S
H2938 C2951 0.929 . S
H2939 C2949 0.929 . S
H2940 C2944 0.929 . S
H2941 C2950 0.929 . S
C2942 H2936 0.930 . S
C2942 C2943 1.367 . S
C2942 C2950 1.378 . S
C2943 C2942 1.367 . S
C2943 C2951 1.433 . S
C2944 H2940 0.929 . S
C2944 C2946 1.378 . S
C2944 C2948 1.350 . S
C2945 C2948 1.463 . S
C2945 C2950 1.350 . S
C2945 N2953 1.427 . S
C2946 H2937 0.930 . S
C2946 C2944 1.378 . S
C2946 C2947 1.367 . S
C2947 C2946 1.367 . S
C2947 C2949 1.433 . S
C2948 C2944 1.350 . S
C2948 C2945 1.463 . S
C2948 N2952 1.427 . S
C2949 H2939 0.929 . S
C2949 C2947 1.433 . S
C2949 N2952 1.384 . S
C2950 H2941 0.929 . S
C2950 C2942 1.378 . S
C2950 C2945 1.350 . S
C2951 H2938 0.929 . S
C2951 C2943 1.433 . S
C2951 N2953 1.384 . S
N2952 C2948 1.427 . S
N2952 C2949 1.384 . S
N2953 C2945 1.427 . S
N2953 C2951 1.384 . S
H2954 C2960 0.930 . S
H2955 C2964 0.930 . S
H2956 C2969 0.929 . S
H2957 C2967 0.929 . S
H2958 C2962 0.929 . S
H2959 C2968 0.929 . S
C2960 H2954 0.930 . S
C2960 C2961 1.367 . S
C2960 C2968 1.378 . S
C2961 C2960 1.367 . S
C2961 C2969 1.433 . S
C2962 H2958 0.929 . S
C2962 C2964 1.378 . S
C2962 C2966 1.350 . S
C2963 C2966 1.463 . S
C2963 C2968 1.350 . S
C2963 N2971 1.427 . S
C2964 H2955 0.930 . S
C2964 C2962 1.378 . S
C2964 C2965 1.367 . S
C2965 C2964 1.367 . S
C2965 C2967 1.433 . S
C2966 C2962 1.350 . S
C2966 C2963 1.463 . S
C2966 N2970 1.427 . S
C2967 H2957 0.929 . S
C2967 C2965 1.433 . S
C2967 N2970 1.384 . S
C2968 H2959 0.929 . S
C2968 C2960 1.378 . S
C2968 C2963 1.350 . S
C2969 H2956 0.929 . S
C2969 C2961 1.433 . S
C2969 N2971 1.384 . S
N2970 C2966 1.427 . S
N2970 C2967 1.384 . S
N2971 C2963 1.427 . S
N2971 C2969 1.384 . S
H2972 C2978 0.930 . S
H2973 C2982 0.930 . S
H2974 C2987 0.929 . S
H2975 C2985 0.929 . S
H2976 C2980 0.929 . S
H2977 C2986 0.929 . S
C2978 H2972 0.930 . S
C2978 C2979 1.367 . S
C2978 C2986 1.378 . S
C2979 C2978 1.367 . S
C2979 C2987 1.433 . S
C2980 H2976 0.929 . S
C2980 C2982 1.378 . S
C2980 C2984 1.350 . S
C2981 C2984 1.463 . S
C2981 C2986 1.350 . S
C2981 N2989 1.427 . S
C2982 H2973 0.930 . S
C2982 C2980 1.378 . S
C2982 C2983 1.367 . S
C2983 C2982 1.367 . S
C2983 C2985 1.433 . S
C2984 C2980 1.350 . S
C2984 C2981 1.463 . S
C2984 N2988 1.427 . S
C2985 H2975 0.929 . S
C2985 C2983 1.433 . S
C2985 N2988 1.384 . S
C2986 H2977 0.929 . S
C2986 C2978 1.378 . S
C2986 C2981 1.350 . S
C2987 H2974 0.929 . S
C2987 C2979 1.433 . S
C2987 N2989 1.384 . S
N2988 C2984 1.427 . S
N2988 C2985 1.384 . S
N2989 C2981 1.427 . S
N2989 C2987 1.384 . S
H2990 C2996 0.930 . S
H2991 C3000 0.930 . S
H2992 C3005 0.929 . S
H2993 C3003 0.929 . S
H2994 C2998 0.929 . S
H2995 C3004 0.929 . S
C2996 H2990 0.930 . S
C2996 C2997 1.367 . S
C2996 C3004 1.378 . S
C2997 C2996 1.367 . S
C2997 C3005 1.433 . S
C2998 H2994 0.929 . S
C2998 C3000 1.378 . S
C2998 C3002 1.350 . S
C2999 C3002 1.463 . S
C2999 C3004 1.350 . S
C2999 N3007 1.427 . S
C3000 H2991 0.930 . S
C3000 C2998 1.378 . S
C3000 C3001 1.367 . S
C3001 C3000 1.367 . S
C3001 C3003 1.433 . S
C3002 C2998 1.350 . S
C3002 C2999 1.463 . S
C3002 N3006 1.427 . S
C3003 H2993 0.929 . S
C3003 C3001 1.433 . S
C3003 N3006 1.384 . S
C3004 H2995 0.929 . S
C3004 C2996 1.378 . S
C3004 C2999 1.350 . S
C3005 H2992 0.929 . S
C3005 C2997 1.433 . S
C3005 N3007 1.384 . S
N3006 C3002 1.427 . S
N3006 C3003 1.384 . S
N3007 C2999 1.427 . S
N3007 C3005 1.384 . S
C1287 C1139 1.699 . S
C1291 C10 1.699 . S
C1305 C219 1.690 . S
C1309 C50 1.691 . S
C1323 C899 1.691 . S
C1327 C90 1.692 . S
C1341 C619 1.694 . S
C1345 C130 1.694 . S
C1359 C179 1.694 . S
C1363 C970 1.694 . S
C1377 C730 1.693 . S
C1381 C259 1.694 . S
C1395 C450 1.700 . S
C1399 C299 1.700 . S
C1413 C819 1.699 . S
C1417 C330 1.699 . S
C1431 C370 1.696 . S
C1435 C539 1.696 . S
C1449 C410 1.696 . S
C1453 C1219 1.696 . S
C1467 C650 1.696 . S
C1471 C499 1.696 . S
C1485 C579 1.692 . S
C1489 C1050 1.692 . S
C1503 C690 1.693 . S
C1507 C859 1.694 . S
C1521 C770 1.695 . S
C1525 C1259 1.695 . S
C1539 C1090 1.694 . S
C1543 C939 1.694 . S
C1557 C1179 1.690 . S
C1561 C1010 1.690 . S
C1575 C779 1.546 . S
C1579 C19 1.550 . S
C1593 C739 1.547 . S
C1597 C59 1.551 . S
C1611 C699 1.550 . S
C1615 C99 1.554 . S
C1629 C659 1.556 . S
C1633 C139 1.556 . S
C1647 C930 1.550 . S
C1651 C170 1.554 . S
C1665 C210 1.549 . S
C1669 C890 1.553 . S
C1683 C250 1.553 . S
C1687 C850 1.554 . S
C1701 C290 1.555 . S
C1705 C810 1.550 . S
C1719 C339 1.569 . S
C1723 C1099 1.567 . S
C1737 C379 1.553 . S
C1741 C1059 1.556 . S
C1755 C419 1.547 . S
C1759 C1019 1.551 . S
C1773 C979 1.560 . S
C1777 C459 1.558 . S
C1791 C490 1.564 . S
C1795 C1250 1.560 . S
C1809 C530 1.546 . S
C1813 C1210 1.550 . S
C1827 C570 1.550 . S
C1831 C1170 1.555 . S
C1845 C1130 1.561 . S
C1849 C610 1.566 . S
C1863 C15 1.279 . S
C1867 C6 1.279 . S
C1881 C55 1.272 . S
C1885 C46 1.272 . S
C1899 C86 1.271 . S
C1903 C95 1.271 . S
C1917 C126 1.279 . S
C1921 C135 1.279 . S
C1935 C175 1.281 . S
C1939 C166 1.281 . S
C1953 C215 1.285 . S
C1957 C206 1.285 . S
C1971 C255 1.274 . S
C1975 C246 1.274 . S
C1989 C286 1.278 . S
C1993 C295 1.278 . S
C2007 C335 1.293 . S
C2011 C326 1.293 . S
C2025 C366 1.276 . S
C2029 C375 1.276 . S
C2043 C406 1.279 . S
C2047 C415 1.279 . S
C2061 C446 1.285 . S
C2065 C455 1.285 . S
C2079 C495 1.286 . S
C2083 C486 1.286 . S
C2097 C526 1.275 . S
C2101 C535 1.275 . S
C2115 C575 1.290 . S
C2119 C566 1.290 . S
C2133 C606 1.297 . S
C2137 C615 1.297 . S
C2151 C655 1.294 . S
C2155 C646 1.294 . S
C2169 C686 1.286 . S
C2173 C695 1.286 . S
C2187 C726 1.284 . S
C2191 C735 1.284 . S
C2205 C766 1.294 . S
C2209 C775 1.294 . S
C2223 C806 1.293 . S
C2227 C815 1.293 . S
C2241 C855 1.286 . S
C2245 C846 1.286 . S
C2259 C886 1.286 . S
C2263 C895 1.286 . S
C2277 C926 1.287 . S
C2281 C935 1.287 . S
C2295 C975 1.285 . S
C2299 C966 1.285 . S
C2313 C1006 1.279 . S
C2317 C1015 1.279 . S
C2331 C1046 1.291 . S
C2335 C1055 1.291 . S
C2349 C1095 1.297 . S
C2353 C1086 1.297 . S
C2367 C1135 1.288 . S
C2371 C1126 1.288 . S
C2385 C1166 1.291 . S
C2389 C1175 1.291 . S
C2403 C1206 1.291 . S
C2407 C1215 1.291 . S
C2421 C1246 1.295 . S
C2425 C1255 1.295 . S
C2439 C409 2.170 . S
C2443 C9 2.177 . S
C2457 C449 2.132 . S
C2461 C49 2.128 . S
C2475 C89 2.130 1_556 S
C2479 C329 2.129 . S
C2493 C369 2.176 . S
C2497 C129 2.171 1_556 S
C2511 C178 2.174 . S
C2515 C578 2.173 . S
C2529 C218 2.133 . S
C2533 C618 2.126 . S
C2547 C258 2.134 1_554 S
C2551 C498 2.125 . S
C2565 C298 2.176 1_554 S
C2569 C538 2.172 . S
C2583 C1049 2.176 1_556 S
C2587 C649 2.172 . S
C2601 C689 2.134 . S
C2605 C1089 2.125 1_556 S
C2619 C969 2.135 . S
C2623 C729 2.125 . S
C2637 C769 2.172 . S
C2641 C1009 2.175 . S
C2655 C1218 2.173 1_554 S
C2659 C818 2.174 . S
C2673 C858 2.133 . S
C2677 C1258 2.126 1_554 S
C2691 C898 2.128 . S
C2695 C1138 2.131 . S
C2709 C1178 2.176 . S
C2713 C938 2.171 . S
C2727 C18 1.102 . S
C2731 C98 1.106 . S
C2745 C138 1.101 . S
C2749 C58 1.094 . S
C2763 C249 1.098 . S
C2767 C169 1.096 . S
C2781 C209 1.094 . S
C2785 C289 1.099 . S
C2799 C338 1.043 . S
C2803 C418 1.044 . S
C2817 C458 1.055 . S
C2821 C378 1.041 . S
C2835 C569 1.042 . S
C2839 C489 1.046 . S
C2853 C609 1.048 . S
C2857 C529 1.040 . S
C2871 C738 1.090 . S
C2875 C658 1.104 . S
C2889 C778 1.092 . S
C2893 C698 1.101 . S
C2907 C889 1.100 . S
C2911 C809 1.108 . S
C2925 C929 1.098 . S
C2929 C849 1.095 . S
C2943 C978 1.040 . S
C2947 C1058 1.050 . S
C2961 C1018 1.055 . S
C2965 C1098 1.044 . S
C2979 C1129 1.046 . S
C2983 C1209 1.042 . S
C2997 C1249 1.048 . S
C3001 C1169 1.041 . S
