# Generated by pormake.
# Topology umn, (4)-cn, num edge types: 1
# Building blocks:
#     Node 0, Type 0, BuildingBlock: QUQFOY_clean_sbu_3, # of connection points: 4
#     Node 1, Type 0, BuildingBlock: QUQFOY_clean_sbu_3, # of connection points: 4
#     Node 2, Type 0, BuildingBlock: QUQFOY_clean_sbu_3, # of connection points: 4
#     Node 3, Type 0, BuildingBlock: QUQFOY_clean_sbu_3, # of connection points: 4
#     Node 4, Type 0, BuildingBlock: QUQFOY_clean_sbu_3, # of connection points: 4
#     Node 5, Type 0, BuildingBlock: QUQFOY_clean_sbu_3, # of connection points: 4
#     Node 6, Type 0, BuildingBlock: QUQFOY_clean_sbu_3, # of connection points: 4
#     Node 7, Type 0, BuildingBlock: QUQFOY_clean_sbu_3, # of connection points: 4
#     Node 8, Type 0, BuildingBlock: QUQFOY_clean_sbu_3, # of connection points: 4
#     Node 9, Type 0, BuildingBlock: QUQFOY_clean_sbu_3, # of connection points: 4
#     Node 10, Type 0, BuildingBlock: QUQFOY_clean_sbu_3, # of connection points: 4
#     Node 11, Type 0, BuildingBlock: QUQFOY_clean_sbu_3, # of connection points: 4
#     Node 12, Type 0, BuildingBlock: QUQFOY_clean_sbu_3, # of connection points: 4
#     Node 13, Type 0, BuildingBlock: QUQFOY_clean_sbu_3, # of connection points: 4
#     Node 14, Type 0, BuildingBlock: QUQFOY_clean_sbu_3, # of connection points: 4
#     Node 15, Type 0, BuildingBlock: QUQFOY_clean_sbu_3, # of connection points: 4
#     Node 16, Type 0, BuildingBlock: QUQFOY_clean_sbu_3, # of connection points: 4
#     Node 17, Type 0, BuildingBlock: QUQFOY_clean_sbu_3, # of connection points: 4
#     Node 18, Type 0, BuildingBlock: QUQFOY_clean_sbu_3, # of connection points: 4
#     Node 19, Type 0, BuildingBlock: QUQFOY_clean_sbu_3, # of connection points: 4
#     Node 20, Type 0, BuildingBlock: QUQFOY_clean_sbu_3, # of connection points: 4
#     Node 21, Type 0, BuildingBlock: QUQFOY_clean_sbu_3, # of connection points: 4
#     Node 22, Type 0, BuildingBlock: QUQFOY_clean_sbu_3, # of connection points: 4
#     Node 23, Type 0, BuildingBlock: QUQFOY_clean_sbu_3, # of connection points: 4
#     Node 24, Type 0, BuildingBlock: QUQFOY_clean_sbu_3, # of connection points: 4
#     Node 25, Type 0, BuildingBlock: QUQFOY_clean_sbu_3, # of connection points: 4
#     Node 26, Type 0, BuildingBlock: QUQFOY_clean_sbu_3, # of connection points: 4
#     Node 27, Type 0, BuildingBlock: QUQFOY_clean_sbu_3, # of connection points: 4
#     Node 28, Type 0, BuildingBlock: QUQFOY_clean_sbu_3, # of connection points: 4
#     Node 29, Type 0, BuildingBlock: QUQFOY_clean_sbu_3, # of connection points: 4
#     Node 30, Type 0, BuildingBlock: QUQFOY_clean_sbu_3, # of connection points: 4
#     Node 31, Type 0, BuildingBlock: QUQFOY_clean_sbu_3, # of connection points: 4
#     Node 32, Type 0, BuildingBlock: QUQFOY_clean_sbu_3, # of connection points: 4
#     Node 33, Type 0, BuildingBlock: QUQFOY_clean_sbu_3, # of connection points: 4
#     Node 34, Type 0, BuildingBlock: QUQFOY_clean_sbu_3, # of connection points: 4
#     Node 35, Type 0, BuildingBlock: QUQFOY_clean_sbu_3, # of connection points: 4
#     Edge 36, Type (0, 0), BuildingBlock: OJICUG_clean_linker_0, # of connection points: 2
#     Edge 37, Type (0, 0), BuildingBlock: OJICUG_clean_linker_0, # of connection points: 2
#     Edge 38, Type (0, 0), BuildingBlock: OJICUG_clean_linker_0, # of connection points: 2
#     Edge 39, Type (0, 0), BuildingBlock: OJICUG_clean_linker_0, # of connection points: 2
#     Edge 40, Type (0, 0), BuildingBlock: OJICUG_clean_linker_0, # of connection points: 2
#     Edge 41, Type (0, 0), BuildingBlock: OJICUG_clean_linker_0, # of connection points: 2
#     Edge 42, Type (0, 0), BuildingBlock: OJICUG_clean_linker_0, # of connection points: 2
#     Edge 43, Type (0, 0), BuildingBlock: OJICUG_clean_linker_0, # of connection points: 2
#     Edge 44, Type (0, 0), BuildingBlock: OJICUG_clean_linker_0, # of connection points: 2
#     Edge 45, Type (0, 0), BuildingBlock: OJICUG_clean_linker_0, # of connection points: 2
#     Edge 46, Type (0, 0), BuildingBlock: OJICUG_clean_linker_0, # of connection points: 2
#     Edge 47, Type (0, 0), BuildingBlock: OJICUG_clean_linker_0, # of connection points: 2
#     Edge 48, Type (0, 0), BuildingBlock: OJICUG_clean_linker_0, # of connection points: 2
#     Edge 49, Type (0, 0), BuildingBlock: OJICUG_clean_linker_0, # of connection points: 2
#     Edge 50, Type (0, 0), BuildingBlock: OJICUG_clean_linker_0, # of connection points: 2
#     Edge 51, Type (0, 0), BuildingBlock: OJICUG_clean_linker_0, # of connection points: 2
#     Edge 52, Type (0, 0), BuildingBlock: OJICUG_clean_linker_0, # of connection points: 2
#     Edge 53, Type (0, 0), BuildingBlock: OJICUG_clean_linker_0, # of connection points: 2
#     Edge 54, Type (0, 0), BuildingBlock: OJICUG_clean_linker_0, # of connection points: 2
#     Edge 55, Type (0, 0), BuildingBlock: OJICUG_clean_linker_0, # of connection points: 2
#     Edge 56, Type (0, 0), BuildingBlock: OJICUG_clean_linker_0, # of connection points: 2
#     Edge 57, Type (0, 0), BuildingBlock: OJICUG_clean_linker_0, # of connection points: 2
#     Edge 58, Type (0, 0), BuildingBlock: OJICUG_clean_linker_0, # of connection points: 2
#     Edge 59, Type (0, 0), BuildingBlock: OJICUG_clean_linker_0, # of connection points: 2
#     Edge 60, Type (0, 0), BuildingBlock: OJICUG_clean_linker_0, # of connection points: 2
#     Edge 61, Type (0, 0), BuildingBlock: OJICUG_clean_linker_0, # of connection points: 2
#     Edge 62, Type (0, 0), BuildingBlock: OJICUG_clean_linker_0, # of connection points: 2
#     Edge 63, Type (0, 0), BuildingBlock: OJICUG_clean_linker_0, # of connection points: 2
#     Edge 64, Type (0, 0), BuildingBlock: OJICUG_clean_linker_0, # of connection points: 2
#     Edge 65, Type (0, 0), BuildingBlock: OJICUG_clean_linker_0, # of connection points: 2
#     Edge 66, Type (0, 0), BuildingBlock: OJICUG_clean_linker_0, # of connection points: 2
#     Edge 67, Type (0, 0), BuildingBlock: OJICUG_clean_linker_0, # of connection points: 2
#     Edge 68, Type (0, 0), BuildingBlock: OJICUG_clean_linker_0, # of connection points: 2
#     Edge 69, Type (0, 0), BuildingBlock: OJICUG_clean_linker_0, # of connection points: 2
#     Edge 70, Type (0, 0), BuildingBlock: OJICUG_clean_linker_0, # of connection points: 2
#     Edge 71, Type (0, 0), BuildingBlock: OJICUG_clean_linker_0, # of connection points: 2
#     Edge 72, Type (0, 0), BuildingBlock: OJICUG_clean_linker_0, # of connection points: 2
#     Edge 73, Type (0, 0), BuildingBlock: OJICUG_clean_linker_0, # of connection points: 2
#     Edge 74, Type (0, 0), BuildingBlock: OJICUG_clean_linker_0, # of connection points: 2
#     Edge 75, Type (0, 0), BuildingBlock: OJICUG_clean_linker_0, # of connection points: 2
#     Edge 76, Type (0, 0), BuildingBlock: OJICUG_clean_linker_0, # of connection points: 2
#     Edge 77, Type (0, 0), BuildingBlock: OJICUG_clean_linker_0, # of connection points: 2
#     Edge 78, Type (0, 0), BuildingBlock: OJICUG_clean_linker_0, # of connection points: 2
#     Edge 79, Type (0, 0), BuildingBlock: OJICUG_clean_linker_0, # of connection points: 2
#     Edge 80, Type (0, 0), BuildingBlock: OJICUG_clean_linker_0, # of connection points: 2
#     Edge 81, Type (0, 0), BuildingBlock: OJICUG_clean_linker_0, # of connection points: 2
#     Edge 82, Type (0, 0), BuildingBlock: OJICUG_clean_linker_0, # of connection points: 2
#     Edge 83, Type (0, 0), BuildingBlock: OJICUG_clean_linker_0, # of connection points: 2
#     Edge 84, Type (0, 0), BuildingBlock: OJICUG_clean_linker_0, # of connection points: 2
#     Edge 85, Type (0, 0), BuildingBlock: OJICUG_clean_linker_0, # of connection points: 2
#     Edge 86, Type (0, 0), BuildingBlock: OJICUG_clean_linker_0, # of connection points: 2
#     Edge 87, Type (0, 0), BuildingBlock: OJICUG_clean_linker_0, # of connection points: 2
#     Edge 88, Type (0, 0), BuildingBlock: OJICUG_clean_linker_0, # of connection points: 2
#     Edge 89, Type (0, 0), BuildingBlock: OJICUG_clean_linker_0, # of connection points: 2
#     Edge 90, Type (0, 0), BuildingBlock: OJICUG_clean_linker_0, # of connection points: 2
#     Edge 91, Type (0, 0), BuildingBlock: OJICUG_clean_linker_0, # of connection points: 2
#     Edge 92, Type (0, 0), BuildingBlock: OJICUG_clean_linker_0, # of connection points: 2
#     Edge 93, Type (0, 0), BuildingBlock: OJICUG_clean_linker_0, # of connection points: 2
#     Edge 94, Type (0, 0), BuildingBlock: OJICUG_clean_linker_0, # of connection points: 2
#     Edge 95, Type (0, 0), BuildingBlock: OJICUG_clean_linker_0, # of connection points: 2
#     Edge 96, Type (0, 0), BuildingBlock: OJICUG_clean_linker_0, # of connection points: 2
#     Edge 97, Type (0, 0), BuildingBlock: OJICUG_clean_linker_0, # of connection points: 2
#     Edge 98, Type (0, 0), BuildingBlock: OJICUG_clean_linker_0, # of connection points: 2
#     Edge 99, Type (0, 0), BuildingBlock: OJICUG_clean_linker_0, # of connection points: 2
#     Edge 100, Type (0, 0), BuildingBlock: OJICUG_clean_linker_0, # of connection points: 2
#     Edge 101, Type (0, 0), BuildingBlock: OJICUG_clean_linker_0, # of connection points: 2
#     Edge 102, Type (0, 0), BuildingBlock: OJICUG_clean_linker_0, # of connection points: 2
#     Edge 103, Type (0, 0), BuildingBlock: OJICUG_clean_linker_0, # of connection points: 2
#     Edge 104, Type (0, 0), BuildingBlock: OJICUG_clean_linker_0, # of connection points: 2
#     Edge 105, Type (0, 0), BuildingBlock: OJICUG_clean_linker_0, # of connection points: 2
#     Edge 106, Type (0, 0), BuildingBlock: OJICUG_clean_linker_0, # of connection points: 2
#     Edge 107, Type (0, 0), BuildingBlock: OJICUG_clean_linker_0, # of connection points: 2
# Relax obj value: 0.161
# Max RMSD: 0.213
# Mean RMSD: 0.213
data_MOF--net-umn--node1-QUQFOY_clean_sbu_3--edge1-OJICUG_clean_linker_0
_symmetry_space_group_name_H-M    P1
_symmetry_Int_Tables_number       1
_symmetry_cell_setting            triclinic
loop_
_symmetry_equiv_pos_as_xyz
'x, y, z'
_cell_length_a     62.030097
_cell_length_b     62.302482
_cell_length_c     27.390587
_cell_angle_alpha  90.152906
_cell_angle_beta   89.902677
_cell_angle_gamma 119.68875
loop_
_atom_site_label
_atom_site_type_symbol
_atom_site_fract_x
_atom_site_fract_y
_atom_site_fract_z
_atom_type_partial_charge
C0 C 0.412 0.10783 0.1727 0.0
O1 O 0.42239 0.10966 0.21353 0.0
Cd2 Cd 0.39463 0.09334 0.28423 0.0
O3 O 0.38916 0.10137 0.17178 0.0
Cd4 Cd 0.35798 0.09384 0.23477 0.0
C5 C 0.35058 0.03812 0.24528 0.0
O6 O 0.36623 0.10505 0.32266 0.0
O7 O 0.33044 0.07449 0.29838 0.0
O8 O 0.35998 0.13237 0.22153 0.0
C9 C 0.34336 0.08942 0.33186 0.0
O10 O 0.37011 0.04961 0.27092 0.0
C11 C 0.33853 0.12335 0.20275 0.0
O12 O 0.34145 0.04973 0.22305 0.0
O13 O 0.32645 0.10009 0.1954 0.0
C14 C 0.86361 0.29683 0.17675 0.0
O15 O 0.86541 0.30617 0.21881 0.0
Cd16 Cd 0.8766 0.29003 0.29089 0.0
O17 O 0.86615 0.27797 0.1722 0.0
Cd18 Cd 0.87496 0.25311 0.22852 0.0
C19 C 0.93129 0.30014 0.24981 0.0
O20 O 0.86272 0.24767 0.31589 0.0
O21 O 0.89376 0.24312 0.29088 0.0
O22 O 0.83779 0.21594 0.20822 0.0
C23 C 0.87865 0.24063 0.32453 0.0
O24 O 0.92023 0.30543 0.28277 0.0
C25 C 0.8488 0.20565 0.18802 0.0
O26 O 0.91914 0.28316 0.21852 0.0
O27 O 0.87227 0.21845 0.18315 0.0
C28 C 0.67994 0.55962 0.19012 0.0
O29 O 0.67095 0.55253 0.23249 0.0
Cd30 Cd 0.68713 0.58185 0.30165 0.0
O31 O 0.69794 0.58127 0.18436 0.0
Cd32 Cd 0.72255 0.61623 0.23722 0.0
C33 C 0.67439 0.62425 0.25846 0.0
O34 O 0.72982 0.61126 0.32429 0.0
O35 O 0.73369 0.64611 0.29757 0.0
O36 O 0.75865 0.61411 0.21664 0.0
C37 C 0.73695 0.63423 0.33155 0.0
O38 O 0.67005 0.60861 0.29208 0.0
C39 C 0.76935 0.63463 0.19431 0.0
O40 O 0.69126 0.62917 0.22664 0.0
O41 O 0.75726 0.6461 0.18882 0.0
C42 C 0.10373 0.42024 0.32305 0.0
O43 O 0.10106 0.42677 0.28067 0.0
Cd44 Cd 0.09141 0.39877 0.20993 0.0
O45 O 0.10251 0.39951 0.32868 0.0
Cd46 Cd 0.0948 0.3656 0.27408 0.0
C47 C 0.03758 0.35425 0.25186 0.0
O48 O 0.10685 0.37098 0.18664 0.0
O49 O 0.07674 0.33575 0.2136 0.0
O50 O 0.13308 0.3677 0.29498 0.0
C51 C 0.09165 0.34786 0.17949 0.0
O52 O 0.04813 0.36994 0.21798 0.0
C53 C 0.12315 0.34687 0.3162 0.0
O54 O 0.05024 0.35054 0.28401 0.0
O55 O 0.09965 0.33545 0.32135 0.0
C56 C 0.55207 0.67625 0.34033 0.0
O57 O 0.54418 0.66589 0.29919 0.0
Cd58 Cd 0.57053 0.68145 0.22556 0.0
O59 O 0.5732 0.69547 0.34289 0.0
Cd60 Cd 0.60557 0.71928 0.2837 0.0
C61 C 0.61691 0.67337 0.26276 0.0
O62 O 0.59665 0.7237 0.19693 0.0
O63 O 0.63292 0.72907 0.21879 0.0
O64 O 0.60519 0.75645 0.30331 0.0
C65 C 0.61956 0.73139 0.18662 0.0
O66 O 0.59997 0.66717 0.2309 0.0
C67 C 0.62668 0.76718 0.32228 0.0
O68 O 0.62147 0.69051 0.29354 0.0
O69 O 0.63779 0.75472 0.32665 0.0
C70 C 0.293 0.86465 0.33729 0.0
O71 O 0.30125 0.86299 0.29589 0.0
Cd72 Cd 0.28767 0.87737 0.2251 0.0
O73 O 0.27601 0.87028 0.33943 0.0
Cd74 Cd 0.25094 0.87697 0.27905 0.0
C75 C 0.29877 0.93279 0.26301 0.0
O76 O 0.24656 0.86514 0.19123 0.0
O77 O 0.24109 0.89551 0.21655 0.0
O78 O 0.21432 0.839 0.29703 0.0
C79 C 0.23909 0.88071 0.18272 0.0
O80 O 0.30637 0.92119 0.23624 0.0
C81 C 0.20306 0.84899 0.3174 0.0
O82 O 0.27878 0.92125 0.28759 0.0
O83 O 0.21497 0.87237 0.32293 0.0
C84 C 0.5593 0.86775 0.83539 0.0
O85 O 0.54975 0.86786 0.79458 0.0
Cd86 Cd 0.57877 0.88624 0.72643 0.0
O87 O 0.58193 0.87345 0.83702 0.0
Cd88 Cd 0.61451 0.88313 0.77655 0.0
C89 C 0.62202 0.93922 0.77625 0.0
O90 O 0.60702 0.87427 0.68793 0.0
O91 O 0.6425 0.90447 0.71414 0.0
O92 O 0.61308 0.84457 0.78705 0.0
C93 C 0.62995 0.89004 0.67974 0.0
O94 O 0.60353 0.92931 0.74751 0.0
C95 C 0.63444 0.85361 0.80627 0.0
O96 O 0.63018 0.92629 0.7966 0.0
O97 O 0.64613 0.87674 0.815 0.0
C98 C 0.11117 0.68309 0.81841 0.0
O99 O 0.10968 0.67335 0.77692 0.0
Cd100 Cd 0.09552 0.68751 0.70579 0.0
O101 O 0.10704 0.70098 0.8218 0.0
Cd102 Cd 0.09657 0.72398 0.76439 0.0
C103 C 0.04086 0.67561 0.74976 0.0
O104 O 0.10629 0.72856 0.67572 0.0
O105 O 0.07578 0.73303 0.70476 0.0
O106 O 0.13454 0.7607 0.78114 0.0
C107 C 0.08981 0.73512 0.66921 0.0
O108 O 0.05183 0.67024 0.71674 0.0
C109 C 0.12456 0.77145 0.80344 0.0
O110 O 0.05303 0.69341 0.7794 0.0
O111 O 0.10114 0.75933 0.80995 0.0
C112 C 0.29359 0.41776 0.81658 0.0
O113 O 0.30253 0.42462 0.77409 0.0
Cd114 Cd 0.28576 0.39578 0.70438 0.0
O115 O 0.27521 0.39634 0.8226 0.0
Cd116 Cd 0.25001 0.36138 0.76995 0.0
C117 C 0.29761 0.35259 0.74679 0.0
O118 O 0.24275 0.36704 0.68324 0.0
O119 O 0.23858 0.3319 0.7087 0.0
O120 O 0.21378 0.36306 0.79175 0.0
C121 C 0.23543 0.3441 0.67524 0.0
O122 O 0.302 0.36826 0.71319 0.0
C123 C 0.2032 0.34234 0.81336 0.0
O124 O 0.28101 0.34799 0.77907 0.0
O125 O 0.21546 0.33101 0.81818 0.0
C126 C 0.8693 0.56013 0.67148 0.0
O127 O 0.86926 0.55062 0.71239 0.0
Cd128 Cd 0.87984 0.57738 0.78592 0.0
O129 O 0.87235 0.58175 0.67047 0.0
Cd130 Cd 0.87818 0.61301 0.72921 0.0
C131 C 0.93464 0.62222 0.74875 0.0
O132 O 0.86557 0.60532 0.81611 0.0
O133 O 0.89628 0.64099 0.79197 0.0
O134 O 0.84007 0.61137 0.70853 0.0
C135 C 0.88092 0.62824 0.82499 0.0
O136 O 0.92364 0.60525 0.78022 0.0
C137 C 0.85021 0.63282 0.68983 0.0
O138 O 0.92243 0.62772 0.71879 0.0
O139 O 0.87378 0.64448 0.68606 0.0
C140 C 0.41997 0.3005 0.66504 0.0
O141 O 0.42812 0.31098 0.70599 0.0
Cd142 Cd 0.40184 0.29606 0.77974 0.0
O143 O 0.39873 0.28141 0.66291 0.0
Cd144 Cd 0.36672 0.25772 0.72289 0.0
C145 C 0.35498 0.3034 0.74198 0.0
O146 O 0.37593 0.25411 0.80985 0.0
O147 O 0.33956 0.24847 0.78801 0.0
O148 O 0.36801 0.22089 0.705 0.0
C149 C 0.35306 0.24647 0.82034 0.0
O150 O 0.37218 0.31001 0.77339 0.0
C151 C 0.3464 0.20946 0.68664 0.0
O152 O 0.35027 0.28597 0.71184 0.0
O153 O 0.33476 0.22138 0.68164 0.0
C154 C 0.68574 0.10766 0.67759 0.0
O155 O 0.7012 0.12746 0.69868 0.0
Cd156 Cd 0.70345 0.10379 0.77093 0.0
O157 O 0.68409 0.0878 0.69301 0.0
Cd158 Cd 0.72195 0.09661 0.74199 0.0
C159 C 0.6795 0.04423 0.75885 0.0
O160 O 0.7349 0.10994 0.82908 0.0
O161 O 0.74107 0.08157 0.79564 0.0
O162 O 0.75228 0.13623 0.71054 0.0
C163 C 0.74408 0.0955 0.83188 0.0
O164 O 0.67285 0.05911 0.77566 0.0
C165 C 0.76356 0.12747 0.68591 0.0
O166 O 0.70032 0.05282 0.73764 0.0
O167 O 0.75385 0.10408 0.684 0.0
C168 C 0.07769 0.44541 0.5045 0.0
O169 O 0.08798 0.44692 0.54531 0.0
Cd170 Cd 0.06084 0.43164 0.61704 0.0
O171 O 0.05499 0.43951 0.50356 0.0
Cd172 Cd 0.02366 0.43189 0.56626 0.0
C173 C 0.01662 0.37629 0.57877 0.0
O174 O 0.03238 0.44374 0.65379 0.0
O175 O -0.00325 0.41256 0.63071 0.0
O176 O 0.0237 0.46951 0.55211 0.0
C177 C 0.00967 0.42786 0.66365 0.0
O178 O 0.03602 0.38784 0.60474 0.0
C179 C 0.00214 0.4595 0.53349 0.0
O180 O 0.00765 0.38783 0.55577 0.0
O181 O -0.00899 0.43621 0.52658 0.0
C182 C 0.53067 0.62791 0.52334 0.0
O183 O 0.53221 0.63733 0.56521 0.0
Cd184 Cd 0.546 0.62231 0.63553 0.0
O185 O 0.53461 0.60993 0.51907 0.0
Cd186 Cd 0.54475 0.58597 0.57462 0.0
C187 C 0.60065 0.63399 0.59122 0.0
O188 O 0.53429 0.58064 0.66291 0.0
O189 O 0.56466 0.5758 0.63447 0.0
O190 O 0.50663 0.5498 0.55585 0.0
C191 C 0.55048 0.57374 0.66973 0.0
O192 O 0.58967 0.63914 0.62456 0.0
C193 C 0.5165 0.53914 0.53283 0.0
O194 O 0.58849 0.61652 0.5609 0.0
O195 O 0.53998 0.55106 0.52707 0.0
C196 C 0.34529 0.89189 0.51677 0.0
O197 O 0.33649 0.88513 0.55938 0.0
Cd198 Cd 0.3542 0.91344 0.62977 0.0
O199 O 0.36415 0.913 0.51076 0.0
Cd200 Cd 0.39008 0.94725 0.56465 0.0
C201 C 0.34349 0.95746 0.58891 0.0
O202 O 0.39724 0.94183 0.65172 0.0
O203 O 0.40187 0.97702 0.62535 0.0
O204 O 0.42615 0.94514 0.54267 0.0
C205 C 0.40479 0.96487 0.65923 0.0
O206 O 0.33879 0.94165 0.62237 0.0
C207 C 0.43686 0.9659 0.52119 0.0
O208 O 0.35985 0.96165 0.55633 0.0
O209 O 0.42475 0.97738 0.51654 0.0
C210 C 0.77194 0.75154 0.67013 0.0
O211 O 0.77191 0.761 0.62918 0.0
Cd212 Cd 0.76137 0.7344 0.5555 0.0
O213 O 0.76911 0.73 0.67115 0.0
Cd214 Cd 0.76377 0.69909 0.61162 0.0
C215 C 0.70688 0.68875 0.59234 0.0
O216 O 0.77638 0.70724 0.52463 0.0
O217 O 0.74595 0.67132 0.54832 0.0
O218 O 0.80203 0.70084 0.63188 0.0
C219 C 0.76124 0.6843 0.51541 0.0
O220 O 0.71764 0.70592 0.56116 0.0
C221 C 0.79194 0.67934 0.65029 0.0
O222 O 0.71935 0.68347 0.62208 0.0
O223 O 0.76838 0.66762 0.65412 0.0
C224 C 0.22556 0.01445 0.67112 0.0
O225 O 0.21728 0.00472 0.62965 0.0
Cd226 Cd 0.24413 0.01953 0.55657 0.0
O227 O 0.24717 0.03295 0.6741 0.0
Cd228 Cd 0.27963 0.05686 0.61505 0.0
C229 C 0.28934 0.00988 0.59548 0.0
O230 O 0.27227 0.0612 0.52742 0.0
O231 O 0.30806 0.0663 0.55231 0.0
O232 O 0.27815 0.09356 0.63275 0.0
C233 C 0.29522 0.06829 0.51854 0.0
O234 O 0.27235 0.00398 0.56384 0.0
C235 C 0.2995 0.10482 0.6523 0.0
O236 O 0.29461 0.02736 0.62587 0.0
O237 O 0.31104 0.09283 0.65796 0.0
C238 C 0.95588 0.20141 0.66986 0.0
O239 O 0.96471 0.19988 0.62906 0.0
Cd240 Cd 0.9531 0.21552 0.55755 0.0
O241 O 0.93918 0.2075 0.67079 0.0
Cd242 Cd 0.91583 0.2154 0.60778 0.0
C243 C 0.96413 0.27093 0.59576 0.0
O244 O 0.91281 0.20358 0.52023 0.0
O245 O 0.90848 0.23494 0.54337 0.0
O246 O 0.8784 0.17777 0.62119 0.0
C247 C 0.90596 0.21951 0.51049 0.0
O248 O 0.97207 0.25935 0.56987 0.0
C249 C 0.86666 0.18772 0.63954 0.0
O250 O 0.94361 0.25942 0.61864 0.0
O251 O 0.87865 0.21097 0.6469 0.0
C252 C 0.23711 0.20629 0.16389 0.0
O253 O 0.23462 0.18731 0.14175 0.0
Cd254 Cd 0.27351 0.21365 0.0943 0.0
O255 O 0.25663 0.22652 0.15543 0.0
Cd256 Cd 0.28832 0.21967 0.1063 0.0
C257 C 0.30075 0.2714 0.09477 0.0
O258 O 0.28331 0.20637 0.01615 0.0
O259 O 0.31955 0.23312 0.04405 0.0
O260 O 0.27891 0.1791 0.13512 0.0
C261 C 0.30657 0.2201 0.00847 0.0
O262 O 0.27944 0.25542 0.07969 0.0
C263 C 0.29928 0.18721 0.15795 0.0
O264 O 0.31388 0.26382 0.11588 0.0
O265 O 0.31337 0.21052 0.16001 0.0
C266 C 0.77954 0.00985 0.16293 0.0
O267 O 0.77666 -0.00043 0.12154 0.0
Cd268 Cd 0.76647 0.01611 0.04866 0.0
O269 O 0.77815 0.02939 0.16628 0.0
Cd270 Cd 0.76955 0.05364 0.10825 0.0
C271 C 0.71227 0.00832 0.08655 0.0
O272 O 0.78332 0.05872 0.02146 0.0
O273 O 0.75247 0.06414 0.04393 0.0
O274 O 0.80664 0.09089 0.12902 0.0
C275 C 0.76838 0.06686 0.01189 0.0
O276 O 0.7229 0.00228 0.05396 0.0
C277 C 0.79554 0.10135 0.14803 0.0
O278 O 0.72492 0.02507 0.11787 0.0
O279 O 0.77204 0.08864 0.15212 0.0
C280 C 0.96213 0.75331 0.15 0.0
O281 O 0.97148 0.76025 0.10783 0.0
Cd282 Cd 0.95553 0.73083 0.03881 0.0
O283 O 0.94397 0.73174 0.15561 0.0
Cd284 Cd 0.91967 0.69672 0.10266 0.0
C285 C 0.96761 0.6881 0.08285 0.0
O286 O 0.91285 0.70184 0.01539 0.0
O287 O 0.90864 0.66689 0.04229 0.0
O288 O 0.8834 0.69879 0.1223 0.0
C289 C 0.90554 0.67883 0.00823 0.0
O290 O 0.97224 0.70375 0.0491 0.0
C291 C 0.87264 0.67828 0.14463 0.0
O292 O 0.95063 0.68339 0.11432 0.0
O293 O 0.88474 0.66685 0.15056 0.0
C294 C 0.53624 0.89349 0.01737 0.0
O295 O 0.5387 0.8868 0.05973 0.0
Cd296 Cd 0.5513 0.91609 0.12875 0.0
O297 O 0.53925 0.91492 0.01126 0.0
Cd298 Cd 0.54943 0.95024 0.06331 0.0
C299 C 0.60589 0.95906 0.08442 0.0
O300 O 0.53686 0.9448 0.15026 0.0
O301 O 0.56764 0.97985 0.12433 0.0
O302 O 0.51135 0.94834 0.04259 0.0
C303 C 0.55239 0.96776 0.15798 0.0
O304 O 0.59487 0.94352 0.11834 0.0
C305 C 0.52118 0.96904 0.02092 0.0
O306 O 0.59368 0.9636 0.05256 0.0
O307 O 0.54469 0.98045 0.01547 0.0
C308 C 0.0902 0.63614 0.00292 0.0
O309 O 0.09793 0.64686 0.0438 0.0
Cd310 Cd 0.07168 0.63129 0.11758 0.0
O311 O 0.06925 0.61669 1.0007 0.0
Cd312 Cd 0.0371 0.59333 0.06058 0.0
C313 C 0.02498 0.63881 0.0808 0.0
O314 O 0.04645 0.58908 0.14735 0.0
O315 O 0.01008 0.58357 0.12578 0.0
O316 O 0.03728 0.55598 0.04149 0.0
C317 C 0.02347 0.581 0.15752 0.0
O318 O 0.04191 0.64521 0.11275 0.0
C319 C 0.01561 0.54511 0.02334 0.0
O320 O 0.02068 0.62169 0.05015 0.0
O321 O 0.00454 0.5576 0.01886 0.0
C322 C 0.34419 0.44436 0.99691 0.0
O323 O 0.3346 0.44366 0.03821 0.0
Cd324 Cd 0.34783 0.42795 0.10713 0.0
O325 O 0.36212 0.44011 0.99429 0.0
Cd326 Cd 0.3868 0.43212 0.05335 0.0
C327 C 0.34062 0.37487 0.06224 0.0
O328 O 0.38913 0.4421 0.14197 0.0
O329 O 0.39568 0.41259 0.1159 0.0
O330 O 0.42395 0.47041 0.03891 0.0
C331 C 0.39702 0.42686 0.15024 0.0
O332 O 0.33173 0.3847 0.09067 0.0
C333 C 0.43537 0.46066 0.01828 0.0
O334 O 0.36072 0.38811 0.03897 0.0
O335 O 0.42336 0.43744 0.01088 0.0
C336 C 0.73711 0.77266 0.84411 0.0
O337 O 0.73934 0.79157 0.86609 0.0
Cd338 Cd 0.70115 0.76481 0.91515 0.0
O339 O 0.71794 0.75223 0.85329 0.0
Cd340 Cd 0.68606 0.75866 0.90262 0.0
C341 C 0.67475 0.70715 0.91491 0.0
O342 O 0.69044 0.77208 0.99257 0.0
O343 O 0.65443 0.7451 0.96398 0.0
O344 O 0.6951 0.79895 0.87329 0.0
C345 C 0.66713 0.75826 0.9997 0.0
O346 O 0.696 0.72335 0.92988 0.0
C347 C 0.67478 0.79063 0.85018 0.0
O348 O 0.66135 0.71444 0.89387 0.0
O349 O 0.66087 0.76729 0.84821 0.0
C350 C 0.2007 0.96425 0.85255 0.0
O351 O 0.20303 0.97372 0.89464 0.0
Cd352 Cd 0.21451 0.95662 0.96501 0.0
O353 O 0.20295 0.94526 0.8477 0.0
Cd354 Cd 0.21145 0.9198 0.90252 0.0
C355 C 0.26846 0.96568 0.92205 0.0
O356 O 0.19942 0.91392 0.99003 0.0
O357 O 0.22932 0.90786 0.9636 0.0
O358 O 0.17326 0.88422 0.881 0.0
C359 C 0.21458 0.90581 0.99772 0.0
O360 O 0.25799 0.97126 0.95574 0.0
C361 C 0.18324 0.87348 0.85867 0.0
O362 O 0.25572 0.94886 0.89091 0.0
O363 O 0.20678 0.88518 0.85422 0.0
C364 C 0.00633 0.22496 0.85189 0.0
O365 O -0.00317 0.21849 0.89408 0.0
Cd366 Cd 0.01519 0.24596 0.96553 0.0
O367 O 0.02616 0.24538 0.84671 0.0
Cd368 Cd 0.05233 0.27878 0.90211 0.0
C369 C 0.00711 0.29136 0.92407 0.0
O370 O 0.05826 0.27305 0.98969 0.0
O371 O 0.06417 0.30861 0.96262 0.0
O372 O 0.08855 0.27637 0.88196 0.0
C373 C 0.06644 0.29623 0.99689 0.0
O374 O 0.00152 0.27551 0.9578 0.0
C375 C 0.09945 0.29711 0.86042 0.0
O376 O 0.0235 0.29477 0.8921 0.0
O377 O 0.0874 0.3086 0.85496 0.0
C378 C 0.43988 0.08578 0.98983 0.0
O379 O 0.43662 0.09235 0.94793 0.0
Cd380 Cd 0.42761 0.06523 0.87594 0.0
O381 O 0.43962 0.06544 0.99439 0.0
Cd382 Cd 0.43265 0.03236 0.93814 0.0
C383 C 0.37472 0.01955 0.91844 0.0
O384 O 0.44419 0.0387 0.85051 0.0
O385 O 0.41477 0.00293 0.87689 0.0
O386 O 0.47142 0.03493 0.95718 0.0
C387 C 0.42941 0.01554 0.84283 0.0
O388 O 0.38462 0.03542 0.88462 0.0
C389 C 0.46183 0.01401 0.97801 0.0
O390 O 0.38798 0.01617 0.94969 0.0
O391 O 0.43836 0.00235 0.98373 0.0
C392 C 0.89041 0.34928 0.99765 0.0
O393 O 0.88307 0.33996 0.95554 0.0
Cd394 Cd 0.9107 0.35608 0.8839 0.0
O395 O 0.91173 0.36808 1.00237 0.0
Cd396 Cd 0.94552 0.39307 0.94638 0.0
C397 C 0.9555 0.34631 0.9254 0.0
O398 O 0.93868 0.39852 0.85908 0.0
O399 O 0.97432 0.40325 0.88375 0.0
O400 O 0.94476 0.42995 0.96666 0.0
C401 C 0.96163 0.40571 0.85027 0.0
O402 O 0.93921 0.34093 0.89243 0.0
C403 C 0.966 0.44053 0.98671 0.0
O404 O 0.96011 0.36327 0.95665 0.0
O405 O 0.97703 0.428 0.9916 0.0
C406 C 0.63115 0.53343 0.00832 0.0
O407 O 0.64118 0.53454 0.96733 0.0
Cd408 Cd 0.62851 0.55086 0.89852 0.0
O409 O 0.61321 0.53767 0.01049 0.0
Cd410 Cd 0.58929 0.54637 0.95092 0.0
C411 C 0.63564 0.60363 0.94479 0.0
O412 O 0.58751 0.53692 0.86217 0.0
O413 O 0.58118 0.56655 0.88841 0.0
O414 O 0.55189 0.50812 0.96402 0.0
C415 C 0.57972 0.55226 0.854 0.0
O416 O 0.6447 0.59407 0.91609 0.0
C417 C 0.54041 0.51787 0.9844 0.0
O418 O 0.61537 0.59015 0.96737 0.0
O419 O 0.55247 0.54105 0.99227 0.0
C420 C 0.89935 0.53718 0.49213 0.0
O421 O 0.89536 0.5177 0.46998 0.0
Cd422 Cd 0.92168 0.54238 0.39922 0.0
O423 O 0.91755 0.55731 0.4779 0.0
Cd424 Cd 0.9475 0.54991 0.42831 0.0
C425 C 0.9557 0.60198 0.41224 0.0
O426 O 0.94745 0.5369 0.34097 0.0
O427 O 0.98163 0.56556 0.37442 0.0
O428 O 0.93903 0.51046 0.45947 0.0
C429 C 0.97094 0.55164 0.3381 0.0
O430 O 0.93439 0.58679 0.39539 0.0
C431 C 0.95901 0.51941 0.48406 0.0
O432 O 0.96836 0.59374 0.43306 0.0
O433 O 0.97236 0.54284 0.48593 0.0
C434 C 0.44197 0.34851 0.48157 0.0
O435 O 0.44004 0.33891 0.43975 0.0
Cd436 Cd 0.4269 0.3545 0.36936 0.0
O437 O 0.43861 0.36686 0.48584 0.0
Cd438 Cd 0.42883 0.39118 0.43058 0.0
C439 C 0.37253 0.34383 0.41345 0.0
O440 O 0.43985 0.39655 0.34256 0.0
O441 O 0.40962 0.40184 0.37008 0.0
O442 O 0.46699 0.42717 0.45019 0.0
C443 C 0.42401 0.40386 0.33528 0.0
O444 O 0.3833 0.33848 0.37998 0.0
C445 C 0.45711 0.43786 0.47302 0.0
O446 O 0.38493 0.36113 0.44394 0.0
O447 O 0.43361 0.42604 0.47832 0.0
C448 C 0.6329 0.08367 0.49783 0.0
O449 O 0.64248 0.09338 0.45709 0.0
Cd450 Cd 0.62665 0.06703 0.38303 0.0
O451 O 0.61432 0.0621 0.49841 0.0
Cd452 Cd 0.58897 0.03128 0.4389 0.0
C453 C 0.63576 0.02123 0.41865 0.0
O454 O 0.58464 0.03981 0.35224 0.0
O455 O 0.5793 0.00378 0.37524 0.0
O456 O 0.5524 0.03304 0.45904 0.0
C457 C 0.57699 0.01691 0.34263 0.0
O458 O 0.64208 0.03859 0.38793 0.0
C459 C 0.54102 0.01154 0.47746 0.0
O460 O 0.61796 0.0157 0.44849 0.0
O461 O 0.55289 -0.00021 0.48134 0.0
C462 C 0.20126 0.22783 0.33597 0.0
O463 O 0.20109 0.21835 0.37702 0.0
Cd464 Cd 0.21168 0.24495 0.4506 0.0
O465 O 0.20419 0.24942 0.33478 0.0
Cd466 Cd 0.20948 0.28041 0.39416 0.0
C467 C 0.26627 0.29043 0.4133 0.0
O468 O 0.19671 0.27218 0.48097 0.0
O469 O 0.22741 0.30803 0.45776 0.0
O470 O 0.17127 0.27879 0.37415 0.0
C471 C 0.21195 0.29506 0.49044 0.0
O472 O 0.25544 0.2733 0.44455 0.0
C473 C 0.18138 0.30034 0.35596 0.0
O474 O 0.25386 0.29583 0.38362 0.0
O475 O 0.20494 0.312 0.35193 0.0
C476 C 0.75237 0.96096 0.3455 0.0
O477 O 0.76024 0.97085 0.387 0.0
Cd478 Cd 0.73249 0.9569 0.45877 0.0
O479 O 0.73061 0.94276 0.34184 0.0
Cd480 Cd 0.69688 0.9196 0.39892 0.0
C481 C 0.68871 0.96768 0.41499 0.0
O482 O 0.70302 0.91553 0.48735 0.0
O483 O 0.66793 0.91132 0.4602 0.0
O484 O 0.69691 0.88202 0.38244 0.0
C485 C 0.68017 0.90923 0.49507 0.0
O486 O 0.7051 0.97319 0.44779 0.0
C487 C 0.67587 0.87151 0.3616 0.0
O488 O 0.68339 0.95004 0.38501 0.0
O489 O 0.66519 0.88425 0.35496 0.0
C490 C 0.00961 0.7786 0.33267 0.0
O491 O -0.00022 0.77805 0.37361 0.0
Cd492 Cd 0.01119 0.76015 0.44174 0.0
O493 O 0.02675 0.77319 0.33061 0.0
Cd494 Cd 0.04962 0.76313 0.39 0.0
C495 C 0.00111 0.70687 0.39307 0.0
O496 O 0.05171 0.77215 0.47885 0.0
O497 O 0.05714 0.74208 0.45161 0.0
O498 O 0.08713 0.80125 0.37703 0.0
C499 C 0.05904 0.75639 0.48637 0.0
O500 O -0.00727 0.71685 0.42234 0.0
C501 C 0.09852 0.79145 0.35652 0.0
O502 O 0.02182 0.71981 0.3715 0.0
O503 O 0.0864 0.76825 0.34876 0.0
C504 C 0.33792 0.97276 0.25537 0.0
C505 C 0.31204 0.95981 0.26082 0.0
H506 H 0.37051 0.00805 0.24616 0.0
C507 C 0.29877 0.97262 0.25889 0.0
H508 H 0.34845 0.96314 0.25625 0.0
C509 C 0.31125 -0.0019 0.25117 0.0
C510 C 0.33719 0.01108 0.2466 0.0
H511 H 0.27872 0.96286 0.2621 0.0
H512 H 0.30074 0.00773 0.25025 0.0
C513 C 0.35045 -0.00171 0.2491 0.0
C514 C -0.00235 0.33253 0.20705 0.0
C515 C 0.01045 0.33958 0.25176 0.0
H516 H 0.96226 0.31387 0.1714 0.0
C517 C -0.00287 0.33291 0.29563 0.0
H518 H 0.00766 0.33734 0.17273 0.0
C519 C 0.97126 0.32008 0.29474 0.0
C520 C 0.95846 0.31316 0.25003 0.0
H521 H 0.00667 0.33817 0.33042 0.0
H522 H 0.96124 0.31545 0.32905 0.0
C523 C 0.9718 0.31907 0.2062 0.0
C524 C 0.65245 0.64308 0.21533 0.0
C525 C 0.66047 0.63761 0.25888 0.0
H526 H 0.63166 0.65833 0.18278 0.0
C527 C 0.65462 0.64446 0.30379 0.0
H528 H 0.65677 0.63791 0.18039 0.0
C529 C 0.64086 0.65662 0.3052 0.0
C530 C 0.63215 0.66139 0.26177 0.0
H531 H 0.66083 0.64055 0.33786 0.0
H532 H 0.63656 0.66177 0.34017 0.0
C533 C 0.63803 0.65457 0.21681 0.0
C534 C 0.66217 0.9782 0.78201 0.0
C535 C 0.63621 0.96626 0.77936 0.0
H536 H 0.69621 0.01239 0.77608 0.0
C537 C 0.62437 0.9803 0.77258 0.0
H538 H 0.67172 0.96775 0.78664 0.0
C539 C 0.63839 0.00591 0.76723 0.0
C540 C 0.66437 0.01758 0.76704 0.0
H541 H 0.60433 0.97139 0.77023 0.0
H542 H 0.629 0.01643 0.76137 0.0
C543 C 0.67615 0.00364 0.77524 0.0
C544 C 0.00082 0.65631 0.70563 0.0
C545 C 0.01372 0.66233 0.7502 0.0
H546 H 0.96534 0.63925 0.67034 0.0
C547 C 0.00054 0.65553 0.79422 0.0
H548 H 0.01074 0.66164 0.67123 0.0
C549 C 0.97467 0.64218 0.79358 0.0
C550 C 0.96178 0.63625 0.74897 0.0
H551 H 0.01022 0.66007 0.82888 0.0
H552 H 0.96471 0.63675 0.82794 0.0
C553 C 0.97498 0.64367 0.70504 0.0
C554 C 0.33386 0.32213 0.78801 0.0
C555 C 0.33959 0.31521 0.74301 0.0
H556 H 0.31533 0.33894 0.8246 0.0
C557 C 0.33068 0.31982 0.69967 0.0
H558 H 0.34038 0.31849 0.82198 0.0
C559 C 0.31695 0.33201 0.70119 0.0
C560 C 0.31131 0.33903 0.74616 0.0
H561 H 0.33486 0.31459 0.66467 0.0
H562 H 0.31062 0.33586 0.6672 0.0
C563 C 0.31947 0.33364 0.78962 0.0
C564 C 0.01627 0.33637 0.58425 0.0
C565 C 0.00314 0.34926 0.5804 0.0
H566 H 0.01397 0.30111 0.5921 0.0
C567 C 0.97716 0.33637 0.58353 0.0
H568 H 0.03636 0.34606 0.58241 0.0
C569 C 0.96446 0.31088 0.59099 0.0
C570 C 0.97759 0.29796 0.59412 0.0
H571 H 0.96673 0.34607 0.58154 0.0
H572 H 0.94438 0.3012 0.59298 0.0
C573 C 0.00354 0.31082 0.59027 0.0
C574 C 0.64072 0.65309 0.6353 0.0
C575 C 0.6278 0.64737 0.59077 0.0
H576 H 0.67621 0.67034 0.67059 0.0
C577 C 0.64097 0.6548 0.54679 0.0
H578 H 0.6308 0.64729 0.66966 0.0
C579 C 0.66684 0.66854 0.54747 0.0
C580 C 0.67975 0.67425 0.59205 0.0
H581 H 0.63129 0.65053 0.51215 0.0
H582 H 0.67678 0.67449 0.51316 0.0
C583 C 0.66656 0.66613 0.63591 0.0
C584 C 0.31221 -0.00824 0.63732 0.0
C585 C 0.30392 -0.00277 0.59415 0.0
H586 H 0.33099 0.97424 0.66919 0.0
C587 C 0.30943 -0.00967 0.54891 0.0
H588 H 0.30817 -0.00304 0.67249 0.0
C589 C 0.32299 0.97797 0.54687 0.0
C590 C 0.33053 0.97173 0.59012 0.0
H591 H 0.30339 -0.00535 0.51508 0.0
H592 H 0.32699 0.97273 0.5117 0.0
C593 C 0.32512 0.97874 0.63535 0.0
C594 C 0.30428 0.33267 0.07172 0.0
C595 C 0.32982 0.34796 0.06359 0.0
H596 H 0.27493 0.29605 0.08762 0.0
C597 C 0.34556 0.33779 0.06448 0.0
H598 H 0.29187 0.34023 0.07164 0.0
C599 C 0.33606 0.31289 0.07548 0.0
C600 C 0.31062 0.29769 0.08443 0.0
H601 H 0.36538 0.34934 0.05914 0.0
H602 H 0.34862 0.30551 0.0769 0.0
C603 C 0.29467 0.30757 0.08128 0.0
C604 C 0.64594 0.97945 0.12896 0.0
C605 C 0.63309 0.9726 0.0843 0.0
H606 H 0.68135 -0.00327 0.16462 0.0
C607 C 0.6464 0.97817 0.04046 0.0
H608 H 0.63597 0.97547 0.16326 0.0
C609 C 0.67226 -0.0103 0.04138 0.0
C610 C 0.68511 -0.00355 0.08608 0.0
H611 H 0.63682 0.97301 0.0057 0.0
H612 H 0.68224 -0.0065 0.00712 0.0
C613 C 0.6718 -0.00836 0.12982 0.0
C614 C -0.0108 0.66915 0.12688 0.0
C615 C 0.98135 0.67456 0.08304 0.0
H616 H 0.00986 0.65394 0.1602 0.0
C617 C 0.98729 0.66753 0.03841 0.0
H618 H 0.98481 0.67444 0.16161 0.0
C619 C 0.001 0.65532 0.03756 0.0
C620 C 0.00961 0.65067 0.08127 0.0
H621 H 0.98121 0.6714 0.00412 0.0
H622 H 0.00541 0.65009 1.00278 0.0
C623 C 0.00358 0.6576 0.12595 0.0
C624 C 0.63056 0.64062 0.94505 0.0
C625 C 0.64638 0.63055 0.94446 0.0
H626 H 0.62721 0.67285 0.93437 0.0
C627 C 0.67185 0.64601 0.93585 0.0
H628 H 0.61079 0.62899 0.95086 0.0
C629 C 0.68129 0.67116 0.92705 0.0
C630 C 0.6652 0.68091 0.92514 0.0
H631 H 0.68433 0.63853 0.93485 0.0
H632 H 0.70096 0.68279 0.92015 0.0
C633 C 0.63986 0.66556 0.93479 0.0
C634 C 0.33492 -0.00198 0.96432 0.0
C635 C 0.34761 0.00459 0.91975 0.0
H636 H 0.29951 0.9808 0.9997 0.0
C637 C 0.3342 -0.00256 0.87575 0.0
H638 H 0.34495 0.00338 0.99859 0.0
C639 C 0.30834 0.98407 0.8763 0.0
C640 C 0.29562 0.97834 0.92085 0.0
H641 H 0.34373 0.0022 0.8409 0.0
H642 H 0.29831 0.97886 0.84202 0.0
C643 C 0.30904 0.98528 0.96486 0.0
C644 C -0.01079 0.31362 0.96861 0.0
C645 C -0.00498 0.30646 0.92399 0.0
H646 H 0.97251 0.33252 0.00402 0.0
C647 C -0.01136 0.31329 0.88003 0.0
H648 H -0.0058 0.30869 0.00299 0.0
C649 C 0.97574 0.32632 0.88073 0.0
C650 C 0.96974 0.3333 0.92536 0.0
H651 H -0.00703 0.30794 0.8453 0.0
H652 H 0.97051 0.33102 0.84636 0.0
C653 C 0.97696 0.32729 0.96929 0.0
C654 C 0.963 0.66549 0.399 0.0
C655 C -0.01132 0.67981 0.3908 0.0
H656 H 0.93217 0.62917 0.41159 0.0
C657 C 0.00304 0.66818 0.38739 0.0
H658 H 0.95161 0.67415 0.40201 0.0
C659 C -0.00785 0.64281 0.39463 0.0
C660 C 0.96662 0.62858 0.40405 0.0
H661 H 0.02292 0.67884 0.3817 0.0
H662 H 0.00373 0.63432 0.39307 0.0
C663 C 0.95194 0.63992 0.40478 0.0
C664 C 0.30652 0.31246 0.36931 0.0
C665 C 0.29341 0.30466 0.41331 0.0
H666 H 0.34222 0.33068 0.3352 0.0
C667 C 0.30641 0.31033 0.45777 0.0
H668 H 0.2968 0.30825 0.33472 0.0
C669 C 0.33229 0.32371 0.4582 0.0
C670 C 0.34538 0.33082 0.41408 0.0
H671 H 0.29654 0.30461 0.49219 0.0
H672 H 0.34205 0.32795 0.49276 0.0
C673 C 0.33237 0.32513 0.36967 0.0
C674 C 0.66723 0.98613 0.46001 0.0
C675 C 0.6745 0.98068 0.41516 0.0
H676 H 0.64858 0.00287 0.49617 0.0
C677 C 0.66838 0.98799 0.3715 0.0
H678 H 0.67162 0.98039 0.49414 0.0
C679 C 0.65584 0.0014 0.37282 0.0
C680 C 0.64861 0.00688 0.41772 0.0
H681 H 0.67383 0.9839 0.33663 0.0
H682 H 0.65161 0.00731 0.33875 0.0
C683 C 0.65401 -0.00118 0.46125 0.0
C684 C 0.29318 0.07056 0.42752 0.0
C685 C 0.30711 0.07751 0.47058 0.0
H686 H 0.29393 0.06901 0.34965 0.0
C687 C 0.33324 0.09119 0.46751 0.0
H688 H 0.2731 0.06006 0.42877 0.0
C689 C 0.34526 0.09646 0.42229 0.0
C690 C 0.33135 0.08788 0.37937 0.0
H691 H 0.34449 0.09703 0.50028 0.0
H692 H 0.36535 0.10605 0.42113 0.0
C693 C 0.3052 0.07558 0.38232 0.0
C694 C 0.88118 0.23291 0.46052 0.0
C695 C 0.89528 0.2208 0.46316 0.0
H696 H 0.86436 0.24834 0.41447 0.0
C697 C 0.90074 0.21235 0.4201 0.0
H698 H 0.87638 0.23936 0.49334 0.0
C699 C 0.89393 0.21765 0.37501 0.0
C700 C 0.88127 0.2312 0.37226 0.0
H701 H 0.91144 0.20292 0.42106 0.0
H702 H 0.89948 0.21198 0.3421 0.0
C703 C 0.8741 0.23794 0.41548 0.0
C704 C 0.7662 0.68572 0.42454 0.0
C705 C 0.76005 0.67236 0.46815 0.0
H706 H 0.76367 0.68388 0.34669 0.0
C707 C 0.74945 0.64644 0.46628 0.0
H708 H 0.77437 0.70564 0.42495 0.0
C709 C 0.74337 0.63392 0.42165 0.0
C710 C 0.74756 0.64711 0.37814 0.0
H711 H 0.74478 0.63567 0.49954 0.0
H712 H 0.73406 0.61392 0.42143 0.0
C713 C 0.75988 0.67317 0.37987 0.0
C714 C 0.09752 0.3479 0.08894 0.0
C715 C 0.0897 0.33496 0.13297 0.0
H716 H 0.09635 0.34554 0.01107 0.0
C717 C 0.0772 0.30888 0.132 0.0
H718 H 0.10722 0.36791 0.08856 0.0
C719 C 0.07103 0.29598 0.08773 0.0
C720 C 0.07705 0.30896 0.04365 0.0
H721 H 0.0712 0.29836 0.16557 0.0
H722 H 0.06028 0.27599 0.08807 0.0
C723 C 0.09115 0.33501 0.04467 0.0
C724 C 0.65705 0.75656 0.13579 0.0
C725 C 0.631 0.74201 0.13899 0.0
H726 H 0.68901 0.77347 0.08922 0.0
C727 C 0.61691 0.73576 0.09614 0.0
H728 H 0.66842 0.76195 0.16841 0.0
C729 C 0.6288 0.74231 0.05075 0.0
C730 C 0.65495 0.75541 0.04753 0.0
H731 H 0.59687 0.72464 0.09753 0.0
H732 H 0.6175 0.73619 0.01808 0.0
C733 C 0.66892 0.76329 0.09051 0.0
C734 C 0.2352 0.87541 0.0918 0.0
C735 C 0.22891 0.88277 0.13532 0.0
H736 H 0.23538 0.87694 0.01385 0.0
C737 C 0.21482 0.89491 0.13317 0.0
H738 H 0.24596 0.86603 0.09233 0.0
C739 C 0.20862 0.90108 0.08835 0.0
C740 C 0.21661 0.89545 0.04486 0.0
H741 H 0.20942 0.90056 0.1663 0.0
H742 H 0.19884 0.91145 0.08789 0.0
C743 C 0.22922 0.88182 0.04696 0.0
C744 C 0.66871 0.90405 0.63099 0.0
C745 C 0.64253 0.89175 0.63282 0.0
H746 H 0.7013 0.91883 0.58595 0.0
C747 C 0.62908 0.8827 0.58949 0.0
H748 H 0.67963 0.91096 0.66402 0.0
C749 C 0.64158 0.88736 0.54487 0.0
C750 C 0.66774 0.90084 0.54284 0.0
H751 H 0.60898 0.87307 0.58979 0.0
H752 H 0.63069 0.88109 0.51169 0.0
C753 C 0.68121 0.90841 0.58642 0.0
C754 C 0.08413 0.74233 0.53375 0.0
C755 C 0.06992 0.75436 0.53296 0.0
H756 H 0.10206 0.72718 0.57743 0.0
C757 C 0.065 0.76254 0.57699 0.0
H758 H 0.08852 0.73607 0.5002 0.0
C759 C 0.07268 0.75728 0.62116 0.0
C760 C 0.08571 0.74405 0.62208 0.0
H761 H 0.05424 0.77192 0.57751 0.0
H762 H 0.06768 0.76289 0.65483 0.0
C763 C 0.09209 0.73736 0.57786 0.0
C764 C 0.20606 0.29329 0.58107 0.0
C765 C 0.21303 0.3069 0.53775 0.0
H766 H 0.20769 0.29466 0.65902 0.0
C767 C 0.22417 0.33287 0.5401 0.0
H768 H 0.19743 0.27333 0.5803 0.0
C769 C 0.22998 0.34514 0.58499 0.0
C770 C 0.22496 0.33164 0.62828 0.0
H771 H 0.22946 0.34384 0.50705 0.0
H772 H 0.23974 0.36515 0.58564 0.0
C773 C 0.2121 0.30558 0.626 0.0
C774 C 0.89945 0.67906 0.91801 0.0
C775 C 0.89487 0.66594 0.9617 0.0
H776 H 0.89827 0.6771 0.84013 0.0
C777 C 0.8821 0.63986 0.96028 0.0
H778 H 0.90911 0.69907 0.91801 0.0
C779 C 0.87572 0.62719 0.91576 0.0
C780 C 0.88225 0.64043 0.87199 0.0
H781 H 0.878 0.62922 0.99362 0.0
H782 H 0.86718 0.60724 0.91561 0.0
C783 C 0.8933 0.66641 0.87353 0.0
C784 C 0.34452 0.2358 0.95641 0.0
C785 C 0.3184 0.22296 0.96026 0.0
H786 H 0.37619 0.25312 0.9089 0.0
C787 C 0.30414 0.2153 0.91761 0.0
H788 H 0.35604 0.24174 0.98881 0.0
C789 C 0.31573 0.22194 0.87207 0.0
C790 C 0.34179 0.23617 0.86826 0.0
H791 H 0.28406 0.20534 0.9194 0.0
H792 H 0.30416 0.21669 0.83975 0.0
C793 C 0.35614 0.24225 0.91076 0.0
C794 C 0.76657 0.07757 0.87696 0.0
C795 C 0.75549 0.09264 0.87697 0.0
H796 H 0.77989 0.05776 0.92012 0.0
C797 C 0.75283 0.10232 0.9213 0.0
H798 H 0.76913 0.07003 0.84317 0.0
C799 C 0.75896 0.09523 0.96505 0.0
C800 C 0.76807 0.07852 0.96533 0.0
H801 H 0.74455 0.11407 0.92253 0.0
H802 H 0.75532 0.10184 0.999 0.0
C803 C 0.77292 0.07063 0.92087 0.0
C804 C 0.01177 0.43441 0.75425 0.0
C805 C -0.00218 0.42638 0.71129 0.0
H806 H 0.01101 0.43415 0.83228 0.0
C807 C 0.97169 0.41439 0.71428 0.0
H808 H 0.03185 0.44372 0.75302 0.0
C809 C 0.95968 0.40906 0.7595 0.0
C810 C 0.97361 0.41535 0.80254 0.0
H811 H 0.96041 0.40826 0.68156 0.0
H812 H 0.9396 0.39877 0.76071 0.0
C813 C -0.00024 0.4288 0.79951 0.0
C814 C 0.57482 0.54638 0.76316 0.0
C815 C 0.56912 0.5541 0.80691 0.0
H816 H 0.57317 0.54651 0.6852 0.0
C817 C 0.55455 0.56573 0.80539 0.0
H818 H 0.5859 0.53733 0.7632 0.0
C819 C 0.54703 0.57082 0.7609 0.0
C820 C 0.5542 0.56464 0.71702 0.0
H821 H 0.54956 0.57164 0.83871 0.0
H822 H 0.53677 0.58072 0.76085 0.0
C823 C 0.56756 0.55174 0.7186 0.0
C824 C 0.41607 0.97707 0.79432 0.0
C825 C 0.42768 0.0031 0.79584 0.0
H826 H 0.39997 0.9444 0.74976 0.0
C827 C 0.4348 0.01632 0.75205 0.0
H828 H 0.41063 0.96636 0.82769 0.0
C829 C 0.42856 0.00366 0.70751 0.0
C830 C 0.41533 0.97758 0.70601 0.0
H831 H 0.4438 0.0363 0.75211 0.0
H832 H 0.43317 0.01434 0.67414 0.0
C833 C 0.41005 0.96441 0.74979 0.0
C834 C 0.5677 0.00643 0.20697 0.0
C835 C 0.55427 0.98037 0.20478 0.0
H836 H 0.58519 0.03868 0.25264 0.0
C837 C 0.54524 0.96695 0.24802 0.0
H838 H 0.57462 0.01731 0.17399 0.0
C839 C 0.55138 0.97925 0.29287 0.0
C840 C 0.56644 0.00518 0.29521 0.0
H841 H 0.53476 0.94694 0.24742 0.0
H842 H 0.54528 0.96832 0.32593 0.0
C843 C 0.57365 0.01876 0.25186 0.0
C844 C 0.97299 0.54497 0.24861 0.0
C845 C 0.98524 0.55481 0.29284 0.0
H846 H 0.97588 0.54546 0.17089 0.0
C847 C 0.01127 0.57028 0.29259 0.0
H848 H 0.95306 0.53291 0.24757 0.0
C849 C 0.02446 0.5774 0.24855 0.0
C850 C 0.01174 0.5693 0.20421 0.0
H851 H 0.02131 0.57797 0.3263 0.0
H852 H 0.04417 0.59055 0.2491 0.0
C853 C 0.9861 0.55223 0.20474 0.0
C854 C 0.40107 0.43223 0.24122 0.0
C855 C 0.40727 0.42484 0.19762 0.0
H856 H 0.40171 0.43139 0.3192 0.0
C857 C 0.42178 0.41315 0.19958 0.0
H858 H 0.39001 0.44129 0.24084 0.0
C859 C 0.42868 0.4076 0.24431 0.0
C860 C 0.42095 0.4134 0.28795 0.0
H861 H 0.42713 0.40749 0.1664 0.0
H862 H 0.43888 0.39765 0.24466 0.0
C863 C 0.40772 0.42642 0.28599 0.0
C864 C 0.29382 0.14489 0.16502 0.0
C865 C 0.30786 0.17035 0.17487 0.0
H866 H 0.29269 0.10998 0.16546 0.0
C867 C 0.33159 0.17997 0.1953 0.0
H868 H 0.27549 0.13699 0.14902 0.0
C869 C 0.34149 0.16461 0.20409 0.0
C870 C 0.32783 0.13931 0.19275 0.0
H871 H 0.34286 0.19952 0.20313 0.0
H872 H 0.35999 0.17268 0.21933 0.0
C873 C 0.30375 0.12948 0.17389 0.0
C874 C 0.83495 0.14165 0.15171 0.0
C875 C 0.80925 0.12783 0.16014 0.0
H876 H 0.86758 0.17726 0.15303 0.0
C877 C 0.79656 0.13993 0.17628 0.0
H878 H 0.8452 0.13285 0.13883 0.0
C879 C 0.80935 0.1654 0.1839 0.0
C880 C 0.83506 0.17922 0.17554 0.0
H881 H 0.77672 0.12979 0.18258 0.0
H882 H 0.79911 0.1742 0.19681 0.0
C883 C 0.84774 0.16713 0.1593 0.0
C884 C 0.80829 0.66939 0.16019 0.0
C885 C 0.79548 0.64546 0.17958 0.0
H886 H 0.84296 0.69872 0.13475 0.0
C887 C 0.80836 0.63259 0.1885 0.0
H888 H 0.79889 0.67982 0.15337 0.0
C889 C 0.83363 0.64347 0.17834 0.0
C890 C 0.84646 0.66741 0.15902 0.0
H891 H 0.79898 0.61414 0.20377 0.0
H892 H 0.84303 0.63304 0.18519 0.0
C893 C 0.83357 0.68027 0.15001 0.0
C894 C 0.12671 0.3109 0.34556 0.0
C895 C 0.13816 0.33543 0.32922 0.0
H896 H 0.13139 0.28039 0.36589 0.0
C897 C 0.16391 0.34823 0.32092 0.0
H898 H 0.10687 0.30052 0.35181 0.0
C899 C 0.17793 0.33665 0.32848 0.0
C900 C 0.16644 0.31206 0.34446 0.0
H901 H 0.17324 0.36712 0.30798 0.0
H902 H 0.19775 0.34701 0.32207 0.0
C903 C 0.14072 0.29931 0.35307 0.0
C904 C 0.63902 0.83268 0.33283 0.0
C905 C 0.66357 0.84501 0.34975 0.0
H906 H 0.60791 0.79822 0.31179 0.0
C907 C 0.67572 0.83145 0.35889 0.0
H908 H 0.62913 0.84262 0.32593 0.0
C909 C 0.66352 0.80599 0.35122 0.0
C910 C 0.63896 0.79366 0.33431 0.0
H911 H 0.69462 0.84046 0.37231 0.0
H912 H 0.67341 0.79605 0.3581 0.0
C913 C 0.6268 0.80722 0.32523 0.0
C914 C 0.1382 0.79483 0.32761 0.0
C915 C 0.12516 0.80622 0.34559 0.0
H916 H 0.17324 0.79942 0.30544 0.0
C917 C 0.13808 0.83167 0.35594 0.0
H918 H 0.12875 0.77521 0.31975 0.0
C919 C 0.1636 0.84552 0.34812 0.0
C920 C 0.17661 0.83415 0.32985 0.0
H921 H 0.12851 0.84091 0.37022 0.0
H922 H 0.17304 0.86516 0.35581 0.0
C923 C 0.16371 0.80867 0.31985 0.0
C924 C 0.66953 0.84791 0.83465 0.0
C925 C 0.64547 0.83788 0.81557 0.0
H926 H 0.69802 0.84078 0.85956 0.0
C927 C 0.63215 0.81263 0.80363 0.0
H928 H 0.68033 0.86738 0.84353 0.0
C929 C 0.64233 0.79749 0.81226 0.0
C930 C 0.666 0.8073 0.83306 0.0
H931 H 0.61368 0.80443 0.7882 0.0
H932 H 0.63129 0.77795 0.80412 0.0
C933 C 0.67973 0.83273 0.8433 0.0
C934 C 0.12822 0.81002 0.83883 0.0
C935 C 0.13954 0.79744 0.81828 0.0
H936 H 0.1332 0.84416 0.86701 0.0
C937 C 0.16525 0.81026 0.80955 0.0
H938 H 0.10841 0.80064 0.84556 0.0
C939 C 0.17943 0.83521 0.82148 0.0
C940 C 0.16814 0.84775 0.84232 0.0
H941 H 0.17446 0.80106 0.79342 0.0
H942 H 0.19925 0.84456 0.81491 0.0
C943 C 0.1424 0.83498 0.85072 0.0
C944 C 0.13885 0.29563 0.85549 0.0
C945 C 0.12576 0.3083 0.84667 0.0
H946 H 0.17381 0.29663 0.85262 0.0
C947 C 0.1385 0.33245 0.82835 0.0
H948 H 0.12953 0.27703 0.87002 0.0
C949 C 0.16386 0.34374 0.81898 0.0
C950 C 0.17696 0.33106 0.82765 0.0
H951 H 0.12895 0.34276 0.82168 0.0
H952 H 0.17314 0.36234 0.80445 0.0
C953 C 0.16424 0.30692 0.84605 0.0
C954 C 0.84677 0.66913 0.66231 0.0
C955 C 0.83526 0.64443 0.67759 0.0
H956 H 0.84209 0.69972 0.64258 0.0
C957 C 0.80945 0.63146 0.68504 0.0
H958 H 0.86666 0.67965 0.65673 0.0
C959 C 0.79541 0.64301 0.67746 0.0
C960 C 0.80692 0.66772 0.66225 0.0
H961 H 0.80008 0.61243 0.69719 0.0
H962 H 0.77552 0.63249 0.68307 0.0
C963 C 0.83272 0.68068 0.65472 0.0
C964 C 0.34758 0.17007 0.68512 0.0
C965 C 0.33464 0.18287 0.67607 0.0
H966 H 0.34645 0.1352 0.68556 0.0
C967 C 0.30985 0.16968 0.66066 0.0
H968 H 0.36668 0.17973 0.69745 0.0
C969 C 0.29822 0.14416 0.65434 0.0
C970 C 0.31117 0.13137 0.66331 0.0
H971 H 0.29935 0.17903 0.65389 0.0
H972 H 0.27913 0.13449 0.64197 0.0
C973 C 0.33594 0.14454 0.67884 0.0
C974 C 0.82722 0.14765 0.63654 0.0
C975 C 0.83989 0.17282 0.64913 0.0
H976 H 0.79288 0.11368 0.63696 0.0
C977 C 0.8266 0.18356 0.66905 0.0
H978 H 0.8369 0.13893 0.62033 0.0
C979 C 0.80122 0.16907 0.67818 0.0
C980 C 0.7888 0.14365 0.66749 0.0
H981 H 0.83585 0.20301 0.67839 0.0
H982 H 0.79157 0.17759 0.69533 0.0
C983 C 0.80192 0.13322 0.64553 0.0
C984 C 0.96632 0.46349 0.50297 0.0
C985 C -0.00973 0.47436 0.52296 0.0
H986 H 0.93727 0.46926 0.47591 0.0
C987 C 0.00267 0.49965 0.53464 0.0
H988 H 0.95621 0.44396 0.49429 0.0
C989 C -0.00824 0.51403 0.52478 0.0
C990 C 0.96827 0.50342 0.50288 0.0
H991 H 0.021 0.50849 0.55084 0.0
H992 H 0.00215 0.53363 0.53273 0.0
C993 C 0.9554 0.47792 0.49299 0.0
C994 C 0.47556 0.50075 0.52473 0.0
C995 C 0.5013 0.51344 0.51633 0.0
H996 H 0.44137 0.46671 0.51812 0.0
C997 C 0.51244 0.50097 0.49453 0.0
H998 H 0.46648 0.50989 0.54175 0.0
C999 C 0.49807 0.47621 0.48135 0.0
C1000 C 0.47232 0.46352 0.48971 0.0
H1001 H 0.53225 0.51026 0.48794 0.0
H1002 H 0.50714 0.46707 0.46432 0.0
C1003 C 0.46119 0.47599 0.51154 0.0
C1004 C 0.50148 0.97552 0.50611 0.0
C1005 C 0.5145 3e-05 0.48972 0.0
H1006 H 0.46654 0.94533 0.52796 0.0
C1007 C 0.50157 0.01294 0.48174 0.0
H1008 H 0.5109 0.96504 0.51207 0.0
C1009 C 0.4761 0.00158 0.49032 0.0
C1010 C 0.46313 0.97714 0.50711 0.0
H1011 H 0.5111 0.03181 0.46864 0.0
H1012 H 0.46669 0.01208 0.48457 0.0
C1013 C 0.47603 0.96417 0.51472 0.0
C1014 C 0.46603 0.97859 0.00827 0.0
C1015 C 0.47715 0.00286 0.99059 0.0
H1016 H 0.47121 0.94869 0.03069 0.0
C1017 C 0.50282 0.01569 0.98125 0.0
H1018 H 0.44626 0.96816 0.01529 0.0
C1019 C 0.51712 0.00446 0.98962 0.0
C1020 C 0.50599 0.98022 0.00746 0.0
H1021 H 0.51187 0.03437 0.96716 0.0
H1022 H 0.5369 0.01487 0.98272 0.0
C1023 C 0.48031 0.96737 0.01658 0.0
C1024 C 0.9783 0.50601 0.9971 0.0
C1025 C 0.00312 0.5185 0.01246 0.0
H1026 H 0.94691 0.47137 0.97788 0.0
C1027 C 0.01538 0.50501 0.02114 0.0
H1028 H 0.96831 0.51589 0.99064 0.0
C1029 C 0.00306 0.47948 0.01439 0.0
C1030 C 0.97828 0.467 0.99876 0.0
H1031 H 0.03447 0.51412 0.03347 0.0
H1032 H 0.01307 0.4696 0.02073 0.0
C1033 C 0.96598 0.48048 0.99032 0.0
C1034 C 0.47508 0.46411 0.98934 0.0
C1035 C 0.46203 0.47545 0.00758 0.0
H1036 H 0.51027 0.46862 0.96848 0.0
C1037 C 0.47502 0.50076 0.01913 0.0
H1038 H 0.46557 0.44459 0.98052 0.0
C1039 C 0.50064 0.51448 0.01271 0.0
C1040 C 0.51369 0.50312 0.99457 0.0
H1041 H 0.46545 0.50996 0.0336 0.0
H1042 H 0.51015 0.53399 0.02158 0.0
C1043 C 0.5007 0.47783 0.98291 0.0
C1044 C 0.42347 0.10908 0.03692 0.0
C1045 C 0.43898 0.09862 0.03482 0.0
H1046 H 0.40264 0.12017 0.08276 0.0
C1047 C 0.44924 0.09582 0.07852 0.0
H1048 H 0.41512 0.11129 0.00399 0.0
C1049 C 0.44244 0.10134 0.12366 0.0
C1050 C 0.42478 0.10919 0.12599 0.0
H1051 H 0.46123 0.08778 0.07803 0.0
H1052 H 0.44932 0.09734 0.15675 0.0
C1053 C 0.41621 0.11403 0.08211 0.0
C1054 C 0.85609 0.29731 0.08702 0.0
C1055 C 0.86341 0.31004 0.13185 0.0
H1056 H 0.85822 0.29985 0.00894 0.0
C1057 C 0.87516 0.33596 0.13152 0.0
H1058 H 0.84691 0.27732 0.08608 0.0
C1059 C 0.882 0.34888 0.08725 0.0
C1060 C 0.87679 0.33613 0.04244 0.0
H1061 H 0.88113 0.34633 0.16534 0.0
H1062 H 0.8929 0.36886 0.08821 0.0
C1063 C 0.86249 0.31023 0.04274 0.0
C1064 C 0.62915 0.52591 0.09837 0.0
C1065 C 0.64288 0.53225 0.05461 0.0
H1066 H 0.63027 0.52891 0.17646 0.0
C1067 C 0.66875 0.54248 0.05717 0.0
H1068 H 0.60917 0.51789 0.09753 0.0
C1069 C 0.68083 0.54913 0.10238 0.0
C1070 C 0.66725 0.54519 0.14585 0.0
H1071 H 0.67986 0.54763 0.02421 0.0
H1072 H 0.70094 0.55914 0.10303 0.0
C1073 C 0.64123 0.5321 0.14366 0.0
C1074 C 0.1137 0.43128 0.41119 0.0
C1075 C 0.10344 0.43386 0.36731 0.0
H1076 H 0.11423 0.43375 0.4893 0.0
C1077 C 0.08849 0.44495 0.36877 0.0
H1078 H 0.12528 0.42277 0.41118 0.0
C1079 C 0.0817 0.45073 0.41365 0.0
C1080 C 0.09022 0.44609 0.45783 0.0
H1081 H 0.08015 0.44701 0.33567 0.0
H1082 H 0.06849 0.45733 0.41391 0.0
C1083 C 0.1074 0.43762 0.45599 0.0
C1084 C 0.53996 0.66579 0.47567 0.0
C1085 C 0.52882 0.63996 0.4781 0.0
H1086 H 0.556 0.69771 0.42947 0.0
C1087 C 0.52064 0.62621 0.4345 0.0
H1088 H 0.54656 0.67691 0.50852 0.0
C1089 C 0.52571 0.6381 0.38917 0.0
C1090 C 0.53952 0.66399 0.38655 0.0
H1091 H 0.5119 0.60624 0.43524 0.0
H1092 H 0.52089 0.62699 0.35626 0.0
C1093 C 0.54547 0.6777 0.4303 0.0
C1094 C 0.30551 0.86554 0.47229 0.0
C1095 C 0.33156 0.87787 0.47281 0.0
H1096 H 0.27271 0.85161 0.42831 0.0
C1097 C 0.34428 0.8811 0.42843 0.0
H1098 H 0.29519 0.86293 0.50579 0.0
C1099 C 0.33136 0.87417 0.38405 0.0
C1100 C 0.30554 0.86444 0.38321 0.0
H1101 H 0.36437 0.89054 0.42773 0.0
H1102 H 0.34184 0.87857 0.35033 0.0
C1103 C 0.29264 0.85916 0.42785 0.0
C1104 C 0.5545 0.86055 0.92556 0.0
C1105 C 0.54639 0.86619 0.88196 0.0
H1106 H 0.5568 0.86405 0.00355 0.0
C1107 C 0.52998 0.87557 0.88482 0.0
H1108 H 0.56711 0.85322 0.92447 0.0
C1109 C 0.52445 0.88216 0.9301 0.0
C1110 C 0.53475 0.87897 0.97333 0.0
H1111 H 0.52346 0.88018 0.85197 0.0
H1112 H 0.51372 0.89158 0.93092 0.0
C1113 C 0.54851 0.86664 0.97093 0.0
C1114 C 0.09691 0.63415 0.91316 0.0
C1115 C 0.10266 0.64817 0.95648 0.0
H1116 H 0.09587 0.63434 0.83489 0.0
C1117 C 0.11615 0.67404 0.95313 0.0
H1118 H 0.08662 0.61415 0.91455 0.0
C1119 C 0.12112 0.68559 0.90743 0.0
C1120 C 0.11314 0.6715 0.8642 0.0
H1121 H 0.12081 0.68538 0.98569 0.0
H1122 H 0.12962 0.70553 0.90609 0.0
C1123 C 0.10231 0.64571 0.86743 0.0
C1124 C 0.29363 0.42836 0.90461 0.0
C1125 C 0.30677 0.43209 0.86062 0.0
H1126 H 0.29535 0.43017 0.98273 0.0
C1127 C 0.33282 0.44499 0.86189 0.0
H1128 H 0.27352 0.4185 0.9047 0.0
C1129 C 0.34532 0.45128 0.90672 0.0
C1130 C 0.33202 0.44522 0.95097 0.0
H1131 H 0.34345 0.44803 0.82868 0.0
H1132 H 0.3653 0.45919 0.90681 0.0
C1133 C 0.30615 0.43511 0.94937 0.0
C1134 C 0.86915 0.55999 0.58054 0.0
C1135 C 0.87006 0.54865 0.6243 0.0
H1136 H 0.87784 0.56511 0.50433 0.0
C1137 C 0.8761 0.52966 0.62192 0.0
H1138 H 0.86431 0.57448 0.58072 0.0
C1139 C 0.88339 0.52391 0.57732 0.0
C1140 C 0.88491 0.53725 0.5349 0.0
H1141 H 0.87704 0.5206 0.65489 0.0
H1142 H 0.88983 0.51062 0.5769 0.0
C1143 C 0.87682 0.5546 0.53658 0.0
C1144 C 0.44687 0.33832 0.61573 0.0
C1145 C 0.43247 0.31247 0.61858 0.0
H1146 H 0.46138 0.37012 0.56938 0.0
C1147 C 0.42607 0.29864 0.57496 0.0
H1148 H 0.45207 0.34952 0.64854 0.0
C1149 C 0.43175 0.31045 0.52948 0.0
C1150 C 0.44354 0.33633 0.52683 0.0
H1151 H 0.41508 0.27866 0.57597 0.0
H1152 H 0.42482 0.2993 0.49675 0.0
C1153 C 0.45214 0.35012 0.5703 0.0
C1154 C 0.66956 0.11462 0.54779 0.0
C1155 C 0.64494 0.09496 0.54521 0.0
H1156 H 0.70197 0.13459 0.59295 0.0
C1157 C 0.63297 0.08307 0.58881 0.0
H1158 H 0.67933 0.12414 0.51496 0.0
C1159 C 0.64597 0.08874 0.63276 0.0
C1160 C 0.67105 0.1069 0.63464 0.0
H1161 H 0.61396 0.06804 0.58853 0.0
H1162 H 0.63674 0.07791 0.66487 0.0
C1163 C 0.68251 0.12065 0.5924 0.0
C1164 C 0.77036 0.75106 0.76117 0.0
C1165 C 0.77068 0.76288 0.71718 0.0
H1166 H 0.75944 0.74511 0.83632 0.0
C1167 C 0.76515 0.78224 0.71879 0.0
H1168 H 0.77478 0.73628 0.76161 0.0
C1169 C 0.7569 0.78771 0.76246 0.0
C1170 C 0.75389 0.77376 0.80477 0.0
H1171 H 0.7652 0.79171 0.68567 0.0
H1172 H 0.75062 0.80113 0.76188 0.0
C1173 C 0.76172 0.75619 0.80423 0.0
C1174 C 0.21908 0.01551 0.76124 0.0
C1175 C 0.21256 0.00218 0.71701 0.0
H1176 H 0.21968 0.01389 0.8394 0.0
C1177 C 0.19742 0.97638 0.71869 0.0
H1178 H 0.23064 0.03544 0.76114 0.0
C1179 C 0.19144 0.96403 0.76359 0.0
C1180 C 0.20007 0.97725 0.80769 0.0
H1181 H 0.19211 0.96556 0.68538 0.0
H1182 H 0.18157 0.94401 0.76361 0.0
C1183 C 0.2127 0.00317 0.80618 0.0
C1184 C 0.95422 0.19581 0.76067 0.0
C1185 C 0.96746 0.2004 0.71656 0.0
H1186 H 0.95612 0.19914 0.83871 0.0
C1187 C -0.00703 0.20841 0.71855 0.0
H1188 H 0.93451 0.18956 0.76031 0.0
C1189 C 0.00542 0.21432 0.76346 0.0
C1190 C -0.00749 0.21178 0.80731 0.0
H1191 H 0.00373 0.21221 0.6853 0.0
H1192 H 0.02542 0.22246 0.7636 0.0
C1193 C 0.96657 0.20117 0.80565 0.0
C1194 C 0.21267 0.22328 0.20242 0.0
C1195 C 0.22009 0.20541 0.20249 0.0
H1196 H 0.19966 0.24351 0.24416 0.0
C1197 C 0.21641 0.19128 0.24482 0.0
H1198 H 0.21547 0.23449 0.1703 0.0
C1199 C 0.20789 0.19685 0.28802 0.0
C1200 C 0.20276 0.21648 0.28913 0.0
H1201 H 0.22238 0.17762 0.24586 0.0
H1202 H 0.20733 0.1872 0.32125 0.0
C1203 C 0.20375 0.22851 0.24501 0.0
C1204 C 0.78786 0.01068 0.25255 0.0
C1205 C 0.77962 -0.00284 0.20869 0.0
H1206 H 0.78631 0.00968 0.33077 0.0
C1207 C 0.76688 0.97124 0.21092 0.0
H1208 H 0.79783 0.03069 0.25201 0.0
C1209 C 0.75997 0.95922 0.25613 0.0
C1210 C 0.76606 0.97286 0.29995 0.0
H1211 H 0.76022 0.96029 0.1779 0.0
H1212 H 0.74831 0.9393 0.25663 0.0
C1213 C 0.78134 -0.00137 0.29777 0.0
C1214 C 0.01236 0.78667 0.24285 0.0
C1215 C -0.00166 0.78036 0.28623 0.0
H1216 H 0.01174 0.78375 0.16478 0.0
C1217 C 0.97254 0.77042 0.283 0.0
H1218 H 0.03231 0.79444 0.24423 0.0
C1219 C 0.96075 0.76393 0.23749 0.0
C1220 C 0.97458 0.76775 0.1944 0.0
H1221 H 0.96122 0.76529 0.31568 0.0
H1222 H 0.94065 0.75408 0.23633 0.0
C1223 C 0.00059 0.78064 0.19726 0.0
loop_
_geom_bond_atom_site_label_1
_geom_bond_atom_site_label_2
_geom_bond_distance
_geom_bond_site_symmetry_2
_ccdc_geom_bond_type
C0 O1 1.306 . S
C0 O3 1.160 . S
O1 C0 1.306 . S
O1 Cd2 2.228 . S
Cd2 O1 2.228 . S
Cd2 O6 2.273 . S
Cd2 O10 2.277 . S
O3 C0 1.160 . S
O3 Cd4 2.203 . S
Cd4 O3 2.203 . S
Cd4 O6 2.411 . S
Cd4 O7 2.333 . S
Cd4 O8 2.352 . S
Cd4 O12 2.277 . S
Cd4 O13 2.356 . S
C5 O10 1.209 . S
C5 O12 1.226 . S
O6 Cd2 2.273 . S
O6 Cd4 2.411 . S
O6 C9 1.320 . S
O7 Cd4 2.333 . S
O7 C9 1.214 . S
O8 Cd4 2.352 . S
O8 C11 1.258 . S
C9 O6 1.320 . S
C9 O7 1.214 . S
O10 Cd2 2.277 . S
O10 C5 1.209 . S
C11 O8 1.258 . S
C11 O13 1.282 . S
O12 Cd4 2.277 . S
O12 C5 1.226 . S
O13 Cd4 2.356 . S
O13 C11 1.282 . S
C14 O15 1.306 . S
C14 O17 1.160 . S
O15 C14 1.306 . S
O15 Cd16 2.228 . S
Cd16 O15 2.228 . S
Cd16 O20 2.273 . S
Cd16 O24 2.277 . S
O17 C14 1.160 . S
O17 Cd18 2.203 . S
Cd18 O17 2.203 . S
Cd18 O20 2.411 . S
Cd18 O21 2.333 . S
Cd18 O22 2.352 . S
Cd18 O26 2.277 . S
Cd18 O27 2.356 . S
C19 O24 1.209 . S
C19 O26 1.226 . S
O20 Cd16 2.273 . S
O20 Cd18 2.411 . S
O20 C23 1.320 . S
O21 Cd18 2.333 . S
O21 C23 1.214 . S
O22 Cd18 2.352 . S
O22 C25 1.258 . S
C23 O20 1.320 . S
C23 O21 1.214 . S
O24 Cd16 2.277 . S
O24 C19 1.209 . S
C25 O22 1.258 . S
C25 O27 1.282 . S
O26 Cd18 2.277 . S
O26 C19 1.226 . S
O27 Cd18 2.356 . S
O27 C25 1.282 . S
C28 O29 1.306 . S
C28 O31 1.160 . S
O29 C28 1.306 . S
O29 Cd30 2.228 . S
Cd30 O29 2.228 . S
Cd30 O34 2.273 . S
Cd30 O38 2.277 . S
O31 C28 1.160 . S
O31 Cd32 2.203 . S
Cd32 O31 2.203 . S
Cd32 O34 2.411 . S
Cd32 O35 2.333 . S
Cd32 O36 2.352 . S
Cd32 O40 2.277 . S
Cd32 O41 2.356 . S
C33 O38 1.209 . S
C33 O40 1.226 . S
O34 Cd30 2.273 . S
O34 Cd32 2.411 . S
O34 C37 1.320 . S
O35 Cd32 2.333 . S
O35 C37 1.214 . S
O36 Cd32 2.352 . S
O36 C39 1.258 . S
C37 O34 1.320 . S
C37 O35 1.214 . S
O38 Cd30 2.277 . S
O38 C33 1.209 . S
C39 O36 1.258 . S
C39 O41 1.282 . S
O40 Cd32 2.277 . S
O40 C33 1.226 . S
O41 Cd32 2.356 . S
O41 C39 1.282 . S
C42 O43 1.306 . S
C42 O45 1.160 . S
O43 C42 1.306 . S
O43 Cd44 2.228 . S
Cd44 O43 2.228 . S
Cd44 O48 2.273 . S
Cd44 O52 2.277 . S
O45 C42 1.160 . S
O45 Cd46 2.203 . S
Cd46 O45 2.203 . S
Cd46 O48 2.411 . S
Cd46 O49 2.333 . S
Cd46 O50 2.352 . S
Cd46 O54 2.277 . S
Cd46 O55 2.356 . S
C47 O52 1.209 . S
C47 O54 1.226 . S
O48 Cd44 2.273 . S
O48 Cd46 2.411 . S
O48 C51 1.320 . S
O49 Cd46 2.333 . S
O49 C51 1.214 . S
O50 Cd46 2.352 . S
O50 C53 1.258 . S
C51 O48 1.320 . S
C51 O49 1.214 . S
O52 Cd44 2.277 . S
O52 C47 1.209 . S
C53 O50 1.258 . S
C53 O55 1.282 . S
O54 Cd46 2.277 . S
O54 C47 1.226 . S
O55 Cd46 2.356 . S
O55 C53 1.282 . S
C56 O57 1.306 . S
C56 O59 1.160 . S
O57 C56 1.306 . S
O57 Cd58 2.228 . S
Cd58 O57 2.228 . S
Cd58 O62 2.273 . S
Cd58 O66 2.277 . S
O59 C56 1.160 . S
O59 Cd60 2.203 . S
Cd60 O59 2.203 . S
Cd60 O62 2.411 . S
Cd60 O63 2.333 . S
Cd60 O64 2.352 . S
Cd60 O68 2.277 . S
Cd60 O69 2.356 . S
C61 O66 1.209 . S
C61 O68 1.226 . S
O62 Cd58 2.273 . S
O62 Cd60 2.411 . S
O62 C65 1.320 . S
O63 Cd60 2.333 . S
O63 C65 1.214 . S
O64 Cd60 2.352 . S
O64 C67 1.258 . S
C65 O62 1.320 . S
C65 O63 1.214 . S
O66 Cd58 2.277 . S
O66 C61 1.209 . S
C67 O64 1.258 . S
C67 O69 1.282 . S
O68 Cd60 2.277 . S
O68 C61 1.226 . S
O69 Cd60 2.356 . S
O69 C67 1.282 . S
C70 O71 1.306 . S
C70 O73 1.160 . S
O71 C70 1.306 . S
O71 Cd72 2.228 . S
Cd72 O71 2.228 . S
Cd72 O76 2.273 . S
Cd72 O80 2.277 . S
O73 C70 1.160 . S
O73 Cd74 2.203 . S
Cd74 O73 2.203 . S
Cd74 O76 2.411 . S
Cd74 O77 2.333 . S
Cd74 O78 2.352 . S
Cd74 O82 2.277 . S
Cd74 O83 2.356 . S
C75 O80 1.209 . S
C75 O82 1.226 . S
O76 Cd72 2.273 . S
O76 Cd74 2.411 . S
O76 C79 1.320 . S
O77 Cd74 2.333 . S
O77 C79 1.214 . S
O78 Cd74 2.352 . S
O78 C81 1.258 . S
C79 O76 1.320 . S
C79 O77 1.214 . S
O80 Cd72 2.277 . S
O80 C75 1.209 . S
C81 O78 1.258 . S
C81 O83 1.282 . S
O82 Cd74 2.277 . S
O82 C75 1.226 . S
O83 Cd74 2.356 . S
O83 C81 1.282 . S
C84 O85 1.306 . S
C84 O87 1.160 . S
O85 C84 1.306 . S
O85 Cd86 2.228 . S
Cd86 O85 2.228 . S
Cd86 O90 2.273 . S
Cd86 O94 2.277 . S
O87 C84 1.160 . S
O87 Cd88 2.203 . S
Cd88 O87 2.203 . S
Cd88 O90 2.411 . S
Cd88 O91 2.333 . S
Cd88 O92 2.352 . S
Cd88 O96 2.277 . S
Cd88 O97 2.356 . S
C89 O94 1.209 . S
C89 O96 1.226 . S
O90 Cd86 2.273 . S
O90 Cd88 2.411 . S
O90 C93 1.320 . S
O91 Cd88 2.333 . S
O91 C93 1.214 . S
O92 Cd88 2.352 . S
O92 C95 1.258 . S
C93 O90 1.320 . S
C93 O91 1.214 . S
O94 Cd86 2.277 . S
O94 C89 1.209 . S
C95 O92 1.258 . S
C95 O97 1.282 . S
O96 Cd88 2.277 . S
O96 C89 1.226 . S
O97 Cd88 2.356 . S
O97 C95 1.282 . S
C98 O99 1.306 . S
C98 O101 1.160 . S
O99 C98 1.306 . S
O99 Cd100 2.228 . S
Cd100 O99 2.228 . S
Cd100 O104 2.273 . S
Cd100 O108 2.277 . S
O101 C98 1.160 . S
O101 Cd102 2.203 . S
Cd102 O101 2.203 . S
Cd102 O104 2.411 . S
Cd102 O105 2.333 . S
Cd102 O106 2.352 . S
Cd102 O110 2.277 . S
Cd102 O111 2.356 . S
C103 O108 1.209 . S
C103 O110 1.226 . S
O104 Cd100 2.273 . S
O104 Cd102 2.411 . S
O104 C107 1.320 . S
O105 Cd102 2.333 . S
O105 C107 1.214 . S
O106 Cd102 2.352 . S
O106 C109 1.258 . S
C107 O104 1.320 . S
C107 O105 1.214 . S
O108 Cd100 2.277 . S
O108 C103 1.209 . S
C109 O106 1.258 . S
C109 O111 1.282 . S
O110 Cd102 2.277 . S
O110 C103 1.226 . S
O111 Cd102 2.356 . S
O111 C109 1.282 . S
C112 O113 1.306 . S
C112 O115 1.160 . S
O113 C112 1.306 . S
O113 Cd114 2.228 . S
Cd114 O113 2.228 . S
Cd114 O118 2.273 . S
Cd114 O122 2.277 . S
O115 C112 1.160 . S
O115 Cd116 2.203 . S
Cd116 O115 2.203 . S
Cd116 O118 2.411 . S
Cd116 O119 2.333 . S
Cd116 O120 2.352 . S
Cd116 O124 2.277 . S
Cd116 O125 2.356 . S
C117 O122 1.209 . S
C117 O124 1.226 . S
O118 Cd114 2.273 . S
O118 Cd116 2.411 . S
O118 C121 1.320 . S
O119 Cd116 2.333 . S
O119 C121 1.214 . S
O120 Cd116 2.352 . S
O120 C123 1.258 . S
C121 O118 1.320 . S
C121 O119 1.214 . S
O122 Cd114 2.277 . S
O122 C117 1.209 . S
C123 O120 1.258 . S
C123 O125 1.282 . S
O124 Cd116 2.277 . S
O124 C117 1.226 . S
O125 Cd116 2.356 . S
O125 C123 1.282 . S
C126 O127 1.306 . S
C126 O129 1.160 . S
O127 C126 1.306 . S
O127 Cd128 2.228 . S
Cd128 O127 2.228 . S
Cd128 O132 2.273 . S
Cd128 O136 2.277 . S
O129 C126 1.160 . S
O129 Cd130 2.203 . S
Cd130 O129 2.203 . S
Cd130 O132 2.411 . S
Cd130 O133 2.333 . S
Cd130 O134 2.352 . S
Cd130 O138 2.277 . S
Cd130 O139 2.356 . S
C131 O136 1.209 . S
C131 O138 1.226 . S
O132 Cd128 2.273 . S
O132 Cd130 2.411 . S
O132 C135 1.320 . S
O133 Cd130 2.333 . S
O133 C135 1.214 . S
O134 Cd130 2.352 . S
O134 C137 1.258 . S
C135 O132 1.320 . S
C135 O133 1.214 . S
O136 Cd128 2.277 . S
O136 C131 1.209 . S
C137 O134 1.258 . S
C137 O139 1.282 . S
O138 Cd130 2.277 . S
O138 C131 1.226 . S
O139 Cd130 2.356 . S
O139 C137 1.282 . S
C140 O141 1.306 . S
C140 O143 1.160 . S
O141 C140 1.306 . S
O141 Cd142 2.228 . S
Cd142 O141 2.228 . S
Cd142 O146 2.273 . S
Cd142 O150 2.277 . S
O143 C140 1.160 . S
O143 Cd144 2.203 . S
Cd144 O143 2.203 . S
Cd144 O146 2.411 . S
Cd144 O147 2.333 . S
Cd144 O148 2.352 . S
Cd144 O152 2.277 . S
Cd144 O153 2.356 . S
C145 O150 1.209 . S
C145 O152 1.226 . S
O146 Cd142 2.273 . S
O146 Cd144 2.411 . S
O146 C149 1.320 . S
O147 Cd144 2.333 . S
O147 C149 1.214 . S
O148 Cd144 2.352 . S
O148 C151 1.258 . S
C149 O146 1.320 . S
C149 O147 1.214 . S
O150 Cd142 2.277 . S
O150 C145 1.209 . S
C151 O148 1.258 . S
C151 O153 1.282 . S
O152 Cd144 2.277 . S
O152 C145 1.226 . S
O153 Cd144 2.356 . S
O153 C151 1.282 . S
C154 O155 1.306 . S
C154 O157 1.160 . S
O155 C154 1.306 . S
O155 Cd156 2.228 . S
Cd156 O155 2.228 . S
Cd156 O160 2.273 . S
Cd156 O164 2.277 . S
O157 C154 1.160 . S
O157 Cd158 2.203 . S
Cd158 O157 2.203 . S
Cd158 O160 2.411 . S
Cd158 O161 2.333 . S
Cd158 O162 2.352 . S
Cd158 O166 2.277 . S
Cd158 O167 2.356 . S
C159 O164 1.209 . S
C159 O166 1.226 . S
O160 Cd156 2.273 . S
O160 Cd158 2.411 . S
O160 C163 1.320 . S
O161 Cd158 2.333 . S
O161 C163 1.214 . S
O162 Cd158 2.352 . S
O162 C165 1.258 . S
C163 O160 1.320 . S
C163 O161 1.214 . S
O164 Cd156 2.277 . S
O164 C159 1.209 . S
C165 O162 1.258 . S
C165 O167 1.282 . S
O166 Cd158 2.277 . S
O166 C159 1.226 . S
O167 Cd158 2.356 . S
O167 C165 1.282 . S
C168 O169 1.306 . S
C168 O171 1.160 . S
O169 C168 1.306 . S
O169 Cd170 2.228 . S
Cd170 O169 2.228 . S
Cd170 O174 2.273 . S
Cd170 O178 2.277 . S
O171 C168 1.160 . S
O171 Cd172 2.203 . S
Cd172 O171 2.203 . S
Cd172 O174 2.411 . S
Cd172 O175 2.333 . S
Cd172 O176 2.352 . S
Cd172 O180 2.277 1_455 S
Cd172 O181 2.352 . S
C173 O178 1.209 . S
C173 O180 1.226 1_455 S
O174 Cd170 2.273 . S
O174 Cd172 2.411 . S
O174 C177 1.320 . S
O175 Cd172 2.333 . S
O175 C177 1.214 . S
O176 Cd172 2.352 . S
O176 C179 1.258 . S
C177 O174 1.320 . S
C177 O175 1.214 . S
O178 Cd170 2.277 . S
O178 C173 1.209 . S
C179 O176 1.258 . S
C179 O181 1.280 . S
O180 Cd172 2.277 1_655 S
O180 C173 1.226 1_655 S
O181 Cd172 2.352 . S
O181 C179 1.280 . S
C182 O183 1.306 . S
C182 O185 1.160 . S
O183 C182 1.306 . S
O183 Cd184 2.228 . S
Cd184 O183 2.228 . S
Cd184 O188 2.273 . S
Cd184 O192 2.277 . S
O185 C182 1.160 . S
O185 Cd186 2.203 . S
Cd186 O185 2.203 . S
Cd186 O188 2.411 . S
Cd186 O189 2.333 . S
Cd186 O190 2.352 . S
Cd186 O194 2.277 . S
Cd186 O195 2.356 . S
C187 O192 1.209 . S
C187 O194 1.226 . S
O188 Cd184 2.273 . S
O188 Cd186 2.411 . S
O188 C191 1.320 . S
O189 Cd186 2.333 . S
O189 C191 1.214 . S
O190 Cd186 2.352 . S
O190 C193 1.258 . S
C191 O188 1.320 . S
C191 O189 1.214 . S
O192 Cd184 2.277 . S
O192 C187 1.209 . S
C193 O190 1.258 . S
C193 O195 1.282 . S
O194 Cd186 2.277 . S
O194 C187 1.226 . S
O195 Cd186 2.356 . S
O195 C193 1.282 . S
C196 O197 1.306 . S
C196 O199 1.160 . S
O197 C196 1.306 . S
O197 Cd198 2.228 . S
Cd198 O197 2.228 . S
Cd198 O202 2.273 . S
Cd198 O206 2.277 . S
O199 C196 1.160 . S
O199 Cd200 2.203 . S
Cd200 O199 2.203 . S
Cd200 O202 2.411 . S
Cd200 O203 2.333 . S
Cd200 O204 2.352 . S
Cd200 O208 2.277 1_565 S
Cd200 O209 2.355 . S
C201 O206 1.209 . S
C201 O208 1.226 1_565 S
O202 Cd198 2.273 . S
O202 Cd200 2.411 . S
O202 C205 1.320 . S
O203 Cd200 2.333 . S
O203 C205 1.214 . S
O204 Cd200 2.352 . S
O204 C207 1.258 . S
C205 O202 1.320 . S
C205 O203 1.214 . S
O206 Cd198 2.277 . S
O206 C201 1.209 . S
C207 O204 1.258 . S
C207 O209 1.277 . S
O208 Cd200 2.277 1_545 S
O208 C201 1.226 1_545 S
O209 Cd200 2.355 . S
O209 C207 1.277 . S
C210 O211 1.306 . S
C210 O213 1.160 . S
O211 C210 1.306 . S
O211 Cd212 2.228 . S
Cd212 O211 2.228 . S
Cd212 O216 2.273 . S
Cd212 O220 2.277 . S
O213 C210 1.160 . S
O213 Cd214 2.203 . S
Cd214 O213 2.203 . S
Cd214 O216 2.411 . S
Cd214 O217 2.333 . S
Cd214 O218 2.352 . S
Cd214 O222 2.277 . S
Cd214 O223 2.356 . S
C215 O220 1.209 . S
C215 O222 1.226 . S
O216 Cd212 2.273 . S
O216 Cd214 2.411 . S
O216 C219 1.320 . S
O217 Cd214 2.333 . S
O217 C219 1.214 . S
O218 Cd214 2.352 . S
O218 C221 1.258 . S
C219 O216 1.320 . S
C219 O217 1.214 . S
O220 Cd212 2.277 . S
O220 C215 1.209 . S
C221 O218 1.258 . S
C221 O223 1.282 . S
O222 Cd214 2.277 . S
O222 C215 1.226 . S
O223 Cd214 2.356 . S
O223 C221 1.282 . S
C224 O225 1.306 . S
C224 O227 1.160 . S
O225 C224 1.306 . S
O225 Cd226 2.228 . S
Cd226 O225 2.228 . S
Cd226 O230 2.273 . S
Cd226 O234 2.277 . S
O227 C224 1.160 . S
O227 Cd228 2.203 . S
Cd228 O227 2.203 . S
Cd228 O230 2.411 . S
Cd228 O231 2.333 . S
Cd228 O232 2.352 . S
Cd228 O236 2.277 . S
Cd228 O237 2.356 . S
C229 O234 1.209 . S
C229 O236 1.226 . S
O230 Cd226 2.273 . S
O230 Cd228 2.411 . S
O230 C233 1.320 . S
O231 Cd228 2.333 . S
O231 C233 1.214 . S
O232 Cd228 2.352 . S
O232 C235 1.258 . S
C233 O230 1.320 . S
C233 O231 1.214 . S
O234 Cd226 2.277 . S
O234 C229 1.209 . S
C235 O232 1.258 . S
C235 O237 1.282 . S
O236 Cd228 2.277 . S
O236 C229 1.226 . S
O237 Cd228 2.356 . S
O237 C235 1.282 . S
C238 O239 1.306 . S
C238 O241 1.160 . S
O239 C238 1.306 . S
O239 Cd240 2.228 . S
Cd240 O239 2.228 . S
Cd240 O244 2.273 . S
Cd240 O248 2.277 . S
O241 C238 1.160 . S
O241 Cd242 2.203 . S
Cd242 O241 2.203 . S
Cd242 O244 2.411 . S
Cd242 O245 2.333 . S
Cd242 O246 2.352 . S
Cd242 O250 2.277 . S
Cd242 O251 2.356 . S
C243 O248 1.209 . S
C243 O250 1.226 . S
O244 Cd240 2.273 . S
O244 Cd242 2.411 . S
O244 C247 1.320 . S
O245 Cd242 2.333 . S
O245 C247 1.214 . S
O246 Cd242 2.352 . S
O246 C249 1.258 . S
C247 O244 1.320 . S
C247 O245 1.214 . S
O248 Cd240 2.277 . S
O248 C243 1.209 . S
C249 O246 1.258 . S
C249 O251 1.282 . S
O250 Cd242 2.277 . S
O250 C243 1.226 . S
O251 Cd242 2.356 . S
O251 C249 1.282 . S
C252 O253 1.306 . S
C252 O255 1.160 . S
O253 C252 1.306 . S
O253 Cd254 2.228 . S
Cd254 O253 2.228 . S
Cd254 O258 2.273 . S
Cd254 O262 2.277 . S
O255 C252 1.160 . S
O255 Cd256 2.203 . S
Cd256 O255 2.203 . S
Cd256 O258 2.411 . S
Cd256 O259 2.333 . S
Cd256 O260 2.352 . S
Cd256 O264 2.277 . S
Cd256 O265 2.356 . S
C257 O262 1.209 . S
C257 O264 1.226 . S
O258 Cd254 2.273 . S
O258 Cd256 2.411 . S
O258 C261 1.320 . S
O259 Cd256 2.333 . S
O259 C261 1.214 . S
O260 Cd256 2.352 . S
O260 C263 1.258 . S
C261 O258 1.320 . S
C261 O259 1.214 . S
O262 Cd254 2.277 . S
O262 C257 1.209 . S
C263 O260 1.258 . S
C263 O265 1.282 . S
O264 Cd256 2.277 . S
O264 C257 1.226 . S
O265 Cd256 2.356 . S
O265 C263 1.282 . S
C266 O267 1.306 . S
C266 O269 1.160 . S
O267 C266 1.306 . S
O267 Cd268 2.228 . S
Cd268 O267 2.228 . S
Cd268 O272 2.273 . S
Cd268 O276 2.277 . S
O269 C266 1.160 . S
O269 Cd270 2.203 . S
Cd270 O269 2.203 . S
Cd270 O272 2.411 . S
Cd270 O273 2.333 . S
Cd270 O274 2.352 . S
Cd270 O278 2.277 . S
Cd270 O279 2.356 . S
C271 O276 1.209 . S
C271 O278 1.226 . S
O272 Cd268 2.273 . S
O272 Cd270 2.411 . S
O272 C275 1.320 . S
O273 Cd270 2.333 . S
O273 C275 1.214 . S
O274 Cd270 2.352 . S
O274 C277 1.258 . S
C275 O272 1.320 . S
C275 O273 1.214 . S
O276 Cd268 2.277 . S
O276 C271 1.209 . S
C277 O274 1.258 . S
C277 O279 1.282 . S
O278 Cd270 2.277 . S
O278 C271 1.226 . S
O279 Cd270 2.356 . S
O279 C277 1.282 . S
C280 O281 1.306 . S
C280 O283 1.160 . S
O281 C280 1.306 . S
O281 Cd282 2.228 . S
Cd282 O281 2.228 . S
Cd282 O286 2.273 . S
Cd282 O290 2.277 . S
O283 C280 1.160 . S
O283 Cd284 2.203 . S
Cd284 O283 2.203 . S
Cd284 O286 2.411 . S
Cd284 O287 2.333 . S
Cd284 O288 2.352 . S
Cd284 O292 2.277 . S
Cd284 O293 2.356 . S
C285 O290 1.209 . S
C285 O292 1.226 . S
O286 Cd282 2.273 . S
O286 Cd284 2.411 . S
O286 C289 1.320 . S
O287 Cd284 2.333 . S
O287 C289 1.214 . S
O288 Cd284 2.352 . S
O288 C291 1.258 . S
C289 O286 1.320 . S
C289 O287 1.214 . S
O290 Cd282 2.277 . S
O290 C285 1.209 . S
C291 O288 1.258 . S
C291 O293 1.282 . S
O292 Cd284 2.277 . S
O292 C285 1.226 . S
O293 Cd284 2.356 . S
O293 C291 1.282 . S
C294 O295 1.306 . S
C294 O297 1.160 . S
O295 C294 1.306 . S
O295 Cd296 2.228 . S
Cd296 O295 2.228 . S
Cd296 O300 2.273 . S
Cd296 O304 2.277 . S
O297 C294 1.160 . S
O297 Cd298 2.203 . S
Cd298 O297 2.203 . S
Cd298 O300 2.411 . S
Cd298 O301 2.333 . S
Cd298 O302 2.352 . S
Cd298 O306 2.277 1_565 S
Cd298 O307 2.351 . S
C299 O304 1.209 . S
C299 O306 1.226 1_565 S
O300 Cd296 2.273 . S
O300 Cd298 2.411 . S
O300 C303 1.320 . S
O301 Cd298 2.333 . S
O301 C303 1.214 . S
O302 Cd298 2.352 . S
O302 C305 1.258 . S
C303 O300 1.320 . S
C303 O301 1.214 . S
O304 Cd296 2.277 . S
O304 C299 1.209 . S
C305 O302 1.258 . S
C305 O307 1.280 . S
O306 Cd298 2.277 1_545 S
O306 C299 1.226 1_545 S
O307 Cd298 2.351 . S
O307 C305 1.280 . S
C308 O309 1.306 . S
C308 O311 1.160 . S
O309 C308 1.306 . S
O309 Cd310 2.228 . S
Cd310 O309 2.228 . S
Cd310 O314 2.273 . S
Cd310 O318 2.277 . S
O311 C308 1.160 . S
O311 Cd312 2.203 . S
Cd312 O311 2.203 . S
Cd312 O314 2.411 . S
Cd312 O315 2.333 . S
Cd312 O316 2.352 . S
Cd312 O320 2.277 1_455 S
Cd312 O321 2.357 1_455 S
C313 O318 1.209 . S
C313 O320 1.226 1_455 S
O314 Cd310 2.273 . S
O314 Cd312 2.411 . S
O314 C317 1.320 . S
O315 Cd312 2.333 . S
O315 C317 1.214 . S
O316 Cd312 2.352 . S
O316 C319 1.258 . S
C317 O314 1.320 . S
C317 O315 1.214 . S
O318 Cd310 2.277 . S
O318 C313 1.209 . S
C319 O316 1.258 . S
C319 O321 1.288 1_455 S
O320 Cd312 2.277 1_655 S
O320 C313 1.226 1_655 S
O321 Cd312 2.357 1_655 S
O321 C319 1.288 1_655 S
C322 O323 1.306 . S
C322 O325 1.160 . S
O323 C322 1.306 . S
O323 Cd324 2.228 . S
Cd324 O323 2.228 . S
Cd324 O328 2.273 . S
Cd324 O332 2.277 . S
O325 C322 1.160 . S
O325 Cd326 2.203 . S
Cd326 O325 2.203 . S
Cd326 O328 2.411 . S
Cd326 O329 2.333 . S
Cd326 O330 2.352 . S
Cd326 O334 2.277 . S
Cd326 O335 2.356 . S
C327 O332 1.209 . S
C327 O334 1.226 . S
O328 Cd324 2.273 . S
O328 Cd326 2.411 . S
O328 C331 1.320 . S
O329 Cd326 2.333 . S
O329 C331 1.214 . S
O330 Cd326 2.352 . S
O330 C333 1.258 . S
C331 O328 1.320 . S
C331 O329 1.214 . S
O332 Cd324 2.277 . S
O332 C327 1.209 . S
C333 O330 1.258 . S
C333 O335 1.282 . S
O334 Cd326 2.277 . S
O334 C327 1.226 . S
O335 Cd326 2.356 . S
O335 C333 1.282 . S
C336 O337 1.306 . S
C336 O339 1.160 . S
O337 C336 1.306 . S
O337 Cd338 2.228 . S
Cd338 O337 2.228 . S
Cd338 O342 2.273 . S
Cd338 O346 2.277 . S
O339 C336 1.160 . S
O339 Cd340 2.203 . S
Cd340 O339 2.203 . S
Cd340 O342 2.411 . S
Cd340 O343 2.333 . S
Cd340 O344 2.352 . S
Cd340 O348 2.277 . S
Cd340 O349 2.356 . S
C341 O346 1.209 . S
C341 O348 1.226 . S
O342 Cd338 2.273 . S
O342 Cd340 2.411 . S
O342 C345 1.320 . S
O343 Cd340 2.333 . S
O343 C345 1.214 . S
O344 Cd340 2.352 . S
O344 C347 1.258 . S
C345 O342 1.320 . S
C345 O343 1.214 . S
O346 Cd338 2.277 . S
O346 C341 1.209 . S
C347 O344 1.258 . S
C347 O349 1.282 . S
O348 Cd340 2.277 . S
O348 C341 1.226 . S
O349 Cd340 2.356 . S
O349 C347 1.282 . S
C350 O351 1.306 . S
C350 O353 1.160 . S
O351 C350 1.306 . S
O351 Cd352 2.228 . S
Cd352 O351 2.228 . S
Cd352 O356 2.273 . S
Cd352 O360 2.277 . S
O353 C350 1.160 . S
O353 Cd354 2.203 . S
Cd354 O353 2.203 . S
Cd354 O356 2.411 . S
Cd354 O357 2.333 . S
Cd354 O358 2.352 . S
Cd354 O362 2.277 . S
Cd354 O363 2.356 . S
C355 O360 1.209 . S
C355 O362 1.226 . S
O356 Cd352 2.273 . S
O356 Cd354 2.411 . S
O356 C359 1.320 . S
O357 Cd354 2.333 . S
O357 C359 1.214 . S
O358 Cd354 2.352 . S
O358 C361 1.258 . S
C359 O356 1.320 . S
C359 O357 1.214 . S
O360 Cd352 2.277 . S
O360 C355 1.209 . S
C361 O358 1.258 . S
C361 O363 1.282 . S
O362 Cd354 2.277 . S
O362 C355 1.226 . S
O363 Cd354 2.356 . S
O363 C361 1.282 . S
C364 O365 1.306 . S
C364 O367 1.160 . S
O365 C364 1.306 . S
O365 Cd366 2.228 . S
Cd366 O365 2.228 . S
Cd366 O370 2.273 . S
Cd366 O374 2.277 . S
O367 C364 1.160 . S
O367 Cd368 2.203 . S
Cd368 O367 2.203 . S
Cd368 O370 2.411 . S
Cd368 O371 2.333 . S
Cd368 O372 2.352 . S
Cd368 O376 2.277 . S
Cd368 O377 2.356 . S
C369 O374 1.209 . S
C369 O376 1.226 . S
O370 Cd366 2.273 . S
O370 Cd368 2.411 . S
O370 C373 1.320 . S
O371 Cd368 2.333 . S
O371 C373 1.214 . S
O372 Cd368 2.352 . S
O372 C375 1.258 . S
C373 O370 1.320 . S
C373 O371 1.214 . S
O374 Cd366 2.277 . S
O374 C369 1.209 . S
C375 O372 1.258 . S
C375 O377 1.282 . S
O376 Cd368 2.277 . S
O376 C369 1.226 . S
O377 Cd368 2.356 . S
O377 C375 1.282 . S
C378 O379 1.306 . S
C378 O381 1.160 . S
O379 C378 1.306 . S
O379 Cd380 2.228 . S
Cd380 O379 2.228 . S
Cd380 O384 2.273 . S
Cd380 O388 2.277 . S
O381 C378 1.160 . S
O381 Cd382 2.203 . S
Cd382 O381 2.203 . S
Cd382 O384 2.411 . S
Cd382 O385 2.333 . S
Cd382 O386 2.352 . S
Cd382 O390 2.277 1_545 S
Cd382 O391 2.351 . S
C383 O388 1.209 . S
C383 O390 1.226 1_545 S
O384 Cd380 2.273 . S
O384 Cd382 2.411 . S
O384 C387 1.320 . S
O385 Cd382 2.333 . S
O385 C387 1.214 . S
O386 Cd382 2.352 . S
O386 C389 1.258 . S
C387 O384 1.320 . S
C387 O385 1.214 . S
O388 Cd380 2.277 . S
O388 C383 1.209 . S
C389 O386 1.258 . S
C389 O391 1.280 . S
O390 Cd382 2.277 1_565 S
O390 C383 1.226 1_565 S
O391 Cd382 2.351 . S
O391 C389 1.280 . S
C392 O393 1.306 . S
C392 O395 1.160 . S
O393 C392 1.306 . S
O393 Cd394 2.228 . S
Cd394 O393 2.228 . S
Cd394 O398 2.273 . S
Cd394 O402 2.277 . S
O395 C392 1.160 . S
O395 Cd396 2.203 . S
Cd396 O395 2.203 . S
Cd396 O398 2.411 . S
Cd396 O399 2.333 . S
Cd396 O400 2.352 . S
Cd396 O404 2.277 1_655 S
Cd396 O405 2.357 1_655 S
C397 O402 1.209 . S
C397 O404 1.226 1_655 S
O398 Cd394 2.273 . S
O398 Cd396 2.411 . S
O398 C401 1.320 . S
O399 Cd396 2.333 . S
O399 C401 1.214 . S
O400 Cd396 2.352 . S
O400 C403 1.258 . S
C401 O398 1.320 . S
C401 O399 1.214 . S
O402 Cd394 2.277 . S
O402 C397 1.209 . S
C403 O400 1.258 . S
C403 O405 1.288 1_655 S
O404 Cd396 2.277 1_455 S
O404 C397 1.226 1_455 S
O405 Cd396 2.357 1_455 S
O405 C403 1.288 1_455 S
C406 O407 1.306 . S
C406 O409 1.160 . S
O407 C406 1.306 . S
O407 Cd408 2.228 . S
Cd408 O407 2.228 . S
Cd408 O412 2.273 . S
Cd408 O416 2.277 . S
O409 C406 1.160 . S
O409 Cd410 2.203 . S
Cd410 O409 2.203 . S
Cd410 O412 2.411 . S
Cd410 O413 2.333 . S
Cd410 O414 2.352 . S
Cd410 O418 2.277 . S
Cd410 O419 2.356 . S
C411 O416 1.209 . S
C411 O418 1.226 . S
O412 Cd408 2.273 . S
O412 Cd410 2.411 . S
O412 C415 1.320 . S
O413 Cd410 2.333 . S
O413 C415 1.214 . S
O414 Cd410 2.352 . S
O414 C417 1.258 . S
C415 O412 1.320 . S
C415 O413 1.214 . S
O416 Cd408 2.277 . S
O416 C411 1.209 . S
C417 O414 1.258 . S
C417 O419 1.282 . S
O418 Cd410 2.277 . S
O418 C411 1.226 . S
O419 Cd410 2.356 . S
O419 C417 1.282 . S
C420 O421 1.306 . S
C420 O423 1.160 . S
O421 C420 1.306 . S
O421 Cd422 2.228 . S
Cd422 O421 2.228 . S
Cd422 O426 2.273 . S
Cd422 O430 2.277 . S
O423 C420 1.160 . S
O423 Cd424 2.203 . S
Cd424 O423 2.203 . S
Cd424 O426 2.411 . S
Cd424 O427 2.333 . S
Cd424 O428 2.352 . S
Cd424 O432 2.277 1_655 S
Cd424 O433 2.352 . S
C425 O430 1.209 . S
C425 O432 1.226 1_655 S
O426 Cd422 2.273 . S
O426 Cd424 2.411 . S
O426 C429 1.320 . S
O427 Cd424 2.333 . S
O427 C429 1.214 . S
O428 Cd424 2.352 . S
O428 C431 1.258 . S
C429 O426 1.320 . S
C429 O427 1.214 . S
O430 Cd422 2.277 . S
O430 C425 1.209 . S
C431 O428 1.258 . S
C431 O433 1.280 . S
O432 Cd424 2.277 1_455 S
O432 C425 1.226 1_455 S
O433 Cd424 2.352 . S
O433 C431 1.280 . S
C434 O435 1.306 . S
C434 O437 1.160 . S
O435 C434 1.306 . S
O435 Cd436 2.228 . S
Cd436 O435 2.228 . S
Cd436 O440 2.273 . S
Cd436 O444 2.277 . S
O437 C434 1.160 . S
O437 Cd438 2.203 . S
Cd438 O437 2.203 . S
Cd438 O440 2.411 . S
Cd438 O441 2.333 . S
Cd438 O442 2.352 . S
Cd438 O446 2.277 . S
Cd438 O447 2.356 . S
C439 O444 1.209 . S
C439 O446 1.226 . S
O440 Cd436 2.273 . S
O440 Cd438 2.411 . S
O440 C443 1.320 . S
O441 Cd438 2.333 . S
O441 C443 1.214 . S
O442 Cd438 2.352 . S
O442 C445 1.258 . S
C443 O440 1.320 . S
C443 O441 1.214 . S
O444 Cd436 2.277 . S
O444 C439 1.209 . S
C445 O442 1.258 . S
C445 O447 1.282 . S
O446 Cd438 2.277 . S
O446 C439 1.226 . S
O447 Cd438 2.356 . S
O447 C445 1.282 . S
C448 O449 1.306 . S
C448 O451 1.160 . S
O449 C448 1.306 . S
O449 Cd450 2.228 . S
Cd450 O449 2.228 . S
Cd450 O454 2.273 . S
Cd450 O458 2.277 . S
O451 C448 1.160 . S
O451 Cd452 2.203 . S
Cd452 O451 2.203 . S
Cd452 O454 2.411 . S
Cd452 O455 2.333 . S
Cd452 O456 2.352 . S
Cd452 O460 2.277 1_545 S
Cd452 O461 2.355 . S
C453 O458 1.209 . S
C453 O460 1.226 1_545 S
O454 Cd450 2.273 . S
O454 Cd452 2.411 . S
O454 C457 1.320 . S
O455 Cd452 2.333 . S
O455 C457 1.214 . S
O456 Cd452 2.352 . S
O456 C459 1.258 . S
C457 O454 1.320 . S
C457 O455 1.214 . S
O458 Cd450 2.277 . S
O458 C453 1.209 . S
C459 O456 1.258 . S
C459 O461 1.277 . S
O460 Cd452 2.277 1_565 S
O460 C453 1.226 1_565 S
O461 Cd452 2.355 . S
O461 C459 1.277 . S
C462 O463 1.306 . S
C462 O465 1.160 . S
O463 C462 1.306 . S
O463 Cd464 2.228 . S
Cd464 O463 2.228 . S
Cd464 O468 2.273 . S
Cd464 O472 2.277 . S
O465 C462 1.160 . S
O465 Cd466 2.203 . S
Cd466 O465 2.203 . S
Cd466 O468 2.411 . S
Cd466 O469 2.333 . S
Cd466 O470 2.352 . S
Cd466 O474 2.277 . S
Cd466 O475 2.356 . S
C467 O472 1.209 . S
C467 O474 1.226 . S
O468 Cd464 2.273 . S
O468 Cd466 2.411 . S
O468 C471 1.320 . S
O469 Cd466 2.333 . S
O469 C471 1.214 . S
O470 Cd466 2.352 . S
O470 C473 1.258 . S
C471 O468 1.320 . S
C471 O469 1.214 . S
O472 Cd464 2.277 . S
O472 C467 1.209 . S
C473 O470 1.258 . S
C473 O475 1.282 . S
O474 Cd466 2.277 . S
O474 C467 1.226 . S
O475 Cd466 2.356 . S
O475 C473 1.282 . S
C476 O477 1.306 . S
C476 O479 1.160 . S
O477 C476 1.306 . S
O477 Cd478 2.228 . S
Cd478 O477 2.228 . S
Cd478 O482 2.273 . S
Cd478 O486 2.277 . S
O479 C476 1.160 . S
O479 Cd480 2.203 . S
Cd480 O479 2.203 . S
Cd480 O482 2.411 . S
Cd480 O483 2.333 . S
Cd480 O484 2.352 . S
Cd480 O488 2.277 . S
Cd480 O489 2.356 . S
C481 O486 1.209 . S
C481 O488 1.226 . S
O482 Cd478 2.273 . S
O482 Cd480 2.411 . S
O482 C485 1.320 . S
O483 Cd480 2.333 . S
O483 C485 1.214 . S
O484 Cd480 2.352 . S
O484 C487 1.258 . S
C485 O482 1.320 . S
C485 O483 1.214 . S
O486 Cd478 2.277 . S
O486 C481 1.209 . S
C487 O484 1.258 . S
C487 O489 1.282 . S
O488 Cd480 2.277 . S
O488 C481 1.226 . S
O489 Cd480 2.356 . S
O489 C487 1.282 . S
C490 O491 1.306 . S
C490 O493 1.160 . S
O491 C490 1.306 . S
O491 Cd492 2.228 . S
Cd492 O491 2.228 . S
Cd492 O496 2.273 . S
Cd492 O500 2.277 . S
O493 C490 1.160 . S
O493 Cd494 2.203 . S
Cd494 O493 2.203 . S
Cd494 O496 2.411 . S
Cd494 O497 2.333 . S
Cd494 O498 2.352 . S
Cd494 O502 2.277 . S
Cd494 O503 2.356 . S
C495 O500 1.209 . S
C495 O502 1.226 . S
O496 Cd492 2.273 . S
O496 Cd494 2.411 . S
O496 C499 1.320 . S
O497 Cd494 2.333 . S
O497 C499 1.214 . S
O498 Cd494 2.352 . S
O498 C501 1.258 . S
C499 O496 1.320 . S
C499 O497 1.214 . S
O500 Cd492 2.277 . S
O500 C495 1.209 . S
C501 O498 1.258 . S
C501 O503 1.282 . S
O502 Cd494 2.277 . S
O502 C495 1.226 . S
O503 Cd494 2.356 . S
O503 C501 1.282 . S
C504 C505 1.387 . S
C504 H508 0.950 . S
C504 C513 1.390 1_565 S
C505 C504 1.387 . S
C505 C507 1.387 . S
H506 C513 0.950 . S
C507 C505 1.387 . S
C507 C509 1.390 1_565 S
C507 H511 0.950 . S
H508 C504 0.950 . S
C509 C507 1.390 1_545 S
C509 C510 1.387 . S
C509 H512 0.950 . S
C510 C509 1.387 . S
C510 C513 1.387 . S
H511 C507 0.950 . S
H512 C509 0.950 . S
C513 C504 1.390 1_545 S
C513 H506 0.950 . S
C513 C510 1.387 . S
C514 C515 1.387 . S
C514 H518 0.950 . S
C514 C523 1.390 1_455 S
C515 C514 1.387 . S
C515 C517 1.387 . S
H516 C523 0.950 . S
C517 C515 1.387 . S
C517 C519 1.390 1_455 S
C517 H521 0.950 . S
H518 C514 0.950 . S
C519 C517 1.390 1_655 S
C519 C520 1.387 . S
C519 H522 0.950 . S
C520 C519 1.387 . S
C520 C523 1.387 . S
H521 C517 0.950 . S
H522 C519 0.950 . S
C523 C514 1.390 1_655 S
C523 H516 0.950 . S
C523 C520 1.387 . S
C524 C525 1.387 . S
C524 H528 0.950 . S
C524 C533 1.390 . S
C525 C524 1.387 . S
C525 C527 1.387 . S
H526 C533 0.950 . S
C527 C525 1.387 . S
C527 C529 1.390 . S
C527 H531 0.950 . S
H528 C524 0.950 . S
C529 C527 1.390 . S
C529 C530 1.387 . S
C529 H532 0.950 . S
C530 C529 1.387 . S
C530 C533 1.387 . S
H531 C527 0.950 . S
H532 C529 0.950 . S
C533 C524 1.390 . S
C533 H526 0.950 . S
C533 C530 1.387 . S
C534 C535 1.387 . S
C534 H538 0.950 . S
C534 C543 1.390 1_565 S
C535 C534 1.387 . S
C535 C537 1.387 . S
H536 C543 0.950 . S
C537 C535 1.387 . S
C537 C539 1.390 1_565 S
C537 H541 0.950 . S
H538 C534 0.950 . S
C539 C537 1.390 1_545 S
C539 C540 1.387 . S
C539 H542 0.950 . S
C540 C539 1.387 . S
C540 C543 1.387 . S
H541 C537 0.950 . S
H542 C539 0.950 . S
C543 C534 1.390 1_545 S
C543 H536 0.950 . S
C543 C540 1.387 . S
C544 C545 1.387 . S
C544 H548 0.950 . S
C544 C553 1.390 1_455 S
C545 C544 1.387 . S
C545 C547 1.387 . S
H546 C553 0.950 . S
C547 C545 1.387 . S
C547 C549 1.390 1_455 S
C547 H551 0.950 . S
H548 C544 0.950 . S
C549 C547 1.390 1_655 S
C549 C550 1.387 . S
C549 H552 0.950 . S
C550 C549 1.387 . S
C550 C553 1.387 . S
H551 C547 0.950 . S
H552 C549 0.950 . S
C553 C544 1.390 1_655 S
C553 H546 0.950 . S
C553 C550 1.387 . S
C554 C555 1.387 . S
C554 H558 0.950 . S
C554 C563 1.390 . S
C555 C554 1.387 . S
C555 C557 1.387 . S
H556 C563 0.950 . S
C557 C555 1.387 . S
C557 C559 1.390 . S
C557 H561 0.950 . S
H558 C554 0.950 . S
C559 C557 1.390 . S
C559 C560 1.387 . S
C559 H562 0.950 . S
C560 C559 1.387 . S
C560 C563 1.387 . S
H561 C557 0.950 . S
H562 C559 0.950 . S
C563 C554 1.390 . S
C563 H556 0.950 . S
C563 C560 1.387 . S
C564 C565 1.387 1_455 S
C564 H568 0.950 . S
C564 C573 1.390 1_455 S
C565 C564 1.387 1_655 S
C565 C567 1.387 . S
H566 C573 0.950 1_455 S
C567 C565 1.387 . S
C567 C569 1.390 . S
C567 H571 0.950 . S
H568 C564 0.950 . S
C569 C567 1.390 . S
C569 C570 1.387 . S
C569 H572 0.950 . S
C570 C569 1.387 . S
C570 C573 1.387 . S
H571 C567 0.950 . S
H572 C569 0.950 . S
C573 C564 1.390 1_655 S
C573 H566 0.950 1_655 S
C573 C570 1.387 . S
C574 C575 1.387 . S
C574 H578 0.950 . S
C574 C583 1.390 . S
C575 C574 1.387 . S
C575 C577 1.387 . S
H576 C583 0.950 . S
C577 C575 1.387 . S
C577 C579 1.390 . S
C577 H581 0.950 . S
H578 C574 0.950 . S
C579 C577 1.390 . S
C579 C580 1.387 . S
C579 H582 0.950 . S
C580 C579 1.387 . S
C580 C583 1.387 . S
H581 C577 0.950 . S
H582 C579 0.950 . S
C583 C574 1.390 . S
C583 H576 0.950 . S
C583 C580 1.387 . S
C584 C585 1.387 . S
C584 H588 0.950 . S
C584 C593 1.390 . S
C585 C584 1.387 . S
C585 C587 1.387 . S
H586 C593 0.950 1_565 S
C587 C585 1.387 . S
C587 C589 1.390 . S
C587 H591 0.950 . S
H588 C584 0.950 . S
C589 C587 1.390 . S
C589 C590 1.387 . S
C589 H592 0.950 . S
C590 C589 1.387 . S
C590 C593 1.387 . S
H591 C587 0.950 . S
H592 C589 0.950 . S
C593 C584 1.390 . S
C593 H586 0.950 1_545 S
C593 C590 1.387 . S
C594 C595 1.387 . S
C594 H598 0.950 . S
C594 C603 1.390 . S
C595 C594 1.387 . S
C595 C597 1.387 . S
H596 C603 0.950 . S
C597 C595 1.387 . S
C597 C599 1.390 . S
C597 H601 0.950 . S
H598 C594 0.950 . S
C599 C597 1.390 . S
C599 C600 1.387 . S
C599 H602 0.950 . S
C600 C599 1.387 . S
C600 C603 1.387 . S
H601 C597 0.950 . S
H602 C599 0.950 . S
C603 C594 1.390 . S
C603 H596 0.950 . S
C603 C600 1.387 . S
C604 C605 1.387 . S
C604 H608 0.943 1_545 S
C604 C613 1.390 . S
C605 C604 1.387 . S
C605 C607 1.387 . S
H606 C613 0.950 . S
C607 C605 1.387 . S
C607 C609 1.390 . S
C607 H611 0.950 . S
H608 C604 0.943 1_565 S
C609 C607 1.390 . S
C609 C610 1.387 . S
C609 H612 0.950 . S
C610 C609 1.387 . S
C610 C613 1.387 . S
H611 C607 0.950 . S
H612 C609 0.950 . S
C613 C604 1.390 . S
C613 H606 0.950 . S
C613 C610 1.387 . S
C614 C615 1.387 . S
C614 H618 0.950 . S
C614 C623 1.390 . S
C615 C614 1.387 . S
C615 C617 1.387 . S
H616 C623 0.950 . S
C617 C615 1.387 . S
C617 C619 1.390 . S
C617 H621 0.950 . S
H618 C614 0.950 . S
C619 C617 1.390 . S
C619 C620 1.387 . S
C619 H622 0.950 . S
C620 C619 1.387 . S
C620 C623 1.387 . S
H621 C617 0.950 . S
H622 C619 0.950 . S
C623 C614 1.390 . S
C623 H616 0.950 . S
C623 C620 1.387 . S
C624 C625 1.387 . S
C624 H628 0.950 . S
C624 C633 1.390 . S
C625 C624 1.387 . S
C625 C627 1.387 . S
H626 C633 0.950 . S
C627 C625 1.387 . S
C627 C629 1.390 . S
C627 H631 0.950 . S
H628 C624 0.950 . S
C629 C627 1.390 . S
C629 C630 1.387 . S
C629 H632 0.950 . S
C630 C629 1.387 . S
C630 C633 1.387 . S
H631 C627 0.950 . S
H632 C629 0.950 . S
C633 C624 1.390 . S
C633 H626 0.950 . S
C633 C630 1.387 . S
C634 C635 1.387 . S
C634 H638 0.950 . S
C634 C643 1.390 . S
C635 C634 1.387 . S
C635 C637 1.387 . S
H636 C643 0.950 . S
C637 C635 1.387 . S
C637 C639 1.390 . S
C637 H641 0.957 . S
H638 C634 0.950 . S
C639 C637 1.390 . S
C639 C640 1.387 . S
C639 H642 0.950 . S
C640 C639 1.387 . S
C640 C643 1.387 . S
H641 C637 0.957 . S
H642 C639 0.950 . S
C643 C634 1.390 . S
C643 H636 0.950 . S
C643 C640 1.387 . S
C644 C645 1.387 . S
C644 H648 0.950 . S
C644 C653 1.390 . S
C645 C644 1.387 . S
C645 C647 1.387 . S
H646 C653 0.950 . S
C647 C645 1.387 . S
C647 C649 1.390 . S
C647 H651 0.950 . S
H648 C644 0.950 . S
C649 C647 1.390 . S
C649 C650 1.387 . S
C649 H652 0.950 . S
C650 C649 1.387 . S
C650 C653 1.387 . S
H651 C647 0.950 . S
H652 C649 0.950 . S
C653 C644 1.390 . S
C653 H646 0.950 . S
C653 C650 1.387 . S
C654 C655 1.387 . S
C654 H658 0.950 1_455 S
C654 C663 1.390 1_455 S
C655 C654 1.387 . S
C655 C657 1.387 . S
H656 C663 0.950 . S
C657 C655 1.387 . S
C657 C659 1.390 . S
C657 H661 0.950 . S
H658 C654 0.950 1_655 S
C659 C657 1.390 . S
C659 C660 1.387 . S
C659 H662 0.950 . S
C660 C659 1.387 . S
C660 C663 1.387 1_455 S
H661 C657 0.950 . S
H662 C659 0.950 . S
C663 C654 1.390 1_655 S
C663 H656 0.950 . S
C663 C660 1.387 1_655 S
C664 C665 1.387 . S
C664 H668 0.950 . S
C664 C673 1.390 . S
C665 C664 1.387 . S
C665 C667 1.387 . S
H666 C673 0.950 . S
C667 C665 1.387 . S
C667 C669 1.390 . S
C667 H671 0.950 . S
H668 C664 0.950 . S
C669 C667 1.390 . S
C669 C670 1.387 . S
C669 H672 0.950 . S
C670 C669 1.387 . S
C670 C673 1.387 . S
H671 C667 0.950 . S
H672 C669 0.950 . S
C673 C664 1.390 . S
C673 H666 0.950 . S
C673 C670 1.387 . S
C674 C675 1.387 . S
C674 H678 0.950 . S
C674 C683 1.390 . S
C675 C674 1.387 . S
C675 C677 1.387 . S
H676 C683 0.950 . S
C677 C675 1.387 . S
C677 C679 1.390 . S
C677 H681 0.950 . S
H678 C674 0.950 . S
C679 C677 1.390 . S
C679 C680 1.387 . S
C679 H682 0.950 1_565 S
C680 C679 1.387 . S
C680 C683 1.387 . S
H681 C677 0.950 . S
H682 C679 0.950 1_545 S
C683 C674 1.390 . S
C683 H676 0.950 . S
C683 C680 1.387 . S
C684 C685 1.387 . S
C684 H688 0.950 . S
C684 C693 1.390 . S
C685 C684 1.387 . S
C685 C687 1.387 . S
H686 C693 0.950 . S
C687 C685 1.387 . S
C687 C689 1.390 . S
C687 H691 0.950 . S
H688 C684 0.950 . S
C689 C687 1.390 . S
C689 C690 1.387 . S
C689 H692 0.950 . S
C690 C689 1.387 . S
C690 C693 1.387 . S
H691 C687 0.950 . S
H692 C689 0.950 . S
C693 C684 1.390 . S
C693 H686 0.950 . S
C693 C690 1.387 . S
C694 C695 1.387 . S
C694 H698 0.950 . S
C694 C703 1.390 . S
C695 C694 1.387 . S
C695 C697 1.387 . S
H696 C703 0.950 . S
C697 C695 1.387 . S
C697 C699 1.390 . S
C697 H701 0.950 . S
H698 C694 0.950 . S
C699 C697 1.390 . S
C699 C700 1.387 . S
C699 H702 0.950 . S
C700 C699 1.387 . S
C700 C703 1.387 . S
H701 C697 0.950 . S
H702 C699 0.950 . S
C703 C694 1.390 . S
C703 H696 0.950 . S
C703 C700 1.387 . S
C704 C705 1.387 . S
C704 H708 0.950 . S
C704 C713 1.390 . S
C705 C704 1.387 . S
C705 C707 1.387 . S
H706 C713 0.950 . S
C707 C705 1.387 . S
C707 C709 1.390 . S
C707 H711 0.950 . S
H708 C704 0.950 . S
C709 C707 1.390 . S
C709 C710 1.387 . S
C709 H712 0.950 . S
C710 C709 1.387 . S
C710 C713 1.387 . S
H711 C707 0.950 . S
H712 C709 0.950 . S
C713 C704 1.390 . S
C713 H706 0.950 . S
C713 C710 1.387 . S
C714 C715 1.387 . S
C714 H718 0.950 . S
C714 C723 1.390 . S
C715 C714 1.387 . S
C715 C717 1.387 . S
H716 C723 0.950 . S
C717 C715 1.387 . S
C717 C719 1.390 . S
C717 H721 0.950 . S
H718 C714 0.950 . S
C719 C717 1.390 . S
C719 C720 1.387 . S
C719 H722 0.950 . S
C720 C719 1.387 . S
C720 C723 1.387 . S
H721 C717 0.950 . S
H722 C719 0.950 . S
C723 C714 1.390 . S
C723 H716 0.950 . S
C723 C720 1.387 . S
C724 C725 1.387 . S
C724 H728 0.950 . S
C724 C733 1.390 . S
C725 C724 1.387 . S
C725 C727 1.387 . S
H726 C733 0.950 . S
C727 C725 1.387 . S
C727 C729 1.390 . S
C727 H731 0.950 . S
H728 C724 0.950 . S
C729 C727 1.390 . S
C729 C730 1.387 . S
C729 H732 0.950 . S
C730 C729 1.387 . S
C730 C733 1.387 . S
H731 C727 0.950 . S
H732 C729 0.950 . S
C733 C724 1.390 . S
C733 H726 0.950 . S
C733 C730 1.387 . S
C734 C735 1.387 . S
C734 H738 0.950 . S
C734 C743 1.390 . S
C735 C734 1.387 . S
C735 C737 1.387 . S
H736 C743 0.939 1_556 S
C737 C735 1.387 . S
C737 C739 1.390 . S
C737 H741 0.950 . S
H738 C734 0.950 . S
C739 C737 1.390 . S
C739 C740 1.387 . S
C739 H742 0.950 . S
C740 C739 1.387 . S
C740 C743 1.387 . S
H741 C737 0.950 . S
H742 C739 0.950 . S
C743 C734 1.390 . S
C743 H736 0.939 1_554 S
C743 C740 1.387 . S
C744 C745 1.387 . S
C744 H748 0.950 . S
C744 C753 1.390 . S
C745 C744 1.387 . S
C745 C747 1.387 . S
H746 C753 0.950 . S
C747 C745 1.387 . S
C747 C749 1.390 . S
C747 H751 0.950 . S
H748 C744 0.950 . S
C749 C747 1.390 . S
C749 C750 1.387 . S
C749 H752 0.950 . S
C750 C749 1.387 . S
C750 C753 1.387 . S
H751 C747 0.950 . S
H752 C749 0.950 . S
C753 C744 1.390 . S
C753 H746 0.950 . S
C753 C750 1.387 . S
C754 C755 1.387 . S
C754 H758 0.950 . S
C754 C763 1.390 . S
C755 C754 1.387 . S
C755 C757 1.387 . S
H756 C763 0.950 . S
C757 C755 1.387 . S
C757 C759 1.390 . S
C757 H761 0.950 . S
H758 C754 0.950 . S
C759 C757 1.390 . S
C759 C760 1.387 . S
C759 H762 0.950 . S
C760 C759 1.387 . S
C760 C763 1.387 . S
H761 C757 0.950 . S
H762 C759 0.950 . S
C763 C754 1.390 . S
C763 H756 0.950 . S
C763 C760 1.387 . S
C764 C765 1.387 . S
C764 H768 0.950 . S
C764 C773 1.390 . S
C765 C764 1.387 . S
C765 C767 1.387 . S
H766 C773 0.950 . S
C767 C765 1.387 . S
C767 C769 1.390 . S
C767 H771 0.950 . S
H768 C764 0.950 . S
C769 C767 1.390 . S
C769 C770 1.387 . S
C769 H772 0.950 . S
C770 C769 1.387 . S
C770 C773 1.387 . S
H771 C767 0.950 . S
H772 C769 0.950 . S
C773 C764 1.390 . S
C773 H766 0.950 . S
C773 C770 1.387 . S
C774 C775 1.387 . S
C774 H778 0.950 . S
C774 C783 1.390 . S
C775 C774 1.387 . S
C775 C777 1.387 . S
H776 C783 0.950 . S
C777 C775 1.387 . S
C777 C779 1.390 . S
C777 H781 0.950 . S
H778 C774 0.950 . S
C779 C777 1.390 . S
C779 C780 1.387 . S
C779 H782 0.950 . S
C780 C779 1.387 . S
C780 C783 1.387 . S
H781 C777 0.950 . S
H782 C779 0.950 . S
C783 C774 1.390 . S
C783 H776 0.950 . S
C783 C780 1.387 . S
C784 C785 1.387 . S
C784 H788 0.950 . S
C784 C793 1.390 . S
C785 C784 1.387 . S
C785 C787 1.387 . S
H786 C793 0.950 . S
C787 C785 1.387 . S
C787 C789 1.390 . S
C787 H791 0.950 . S
H788 C784 0.950 . S
C789 C787 1.390 . S
C789 C790 1.387 . S
C789 H792 0.950 . S
C790 C789 1.387 . S
C790 C793 1.387 . S
H791 C787 0.950 . S
H792 C789 0.950 . S
C793 C784 1.390 . S
C793 H786 0.950 . S
C793 C790 1.387 . S
C794 C795 1.387 . S
C794 H798 0.950 . S
C794 C803 1.390 . S
C795 C794 1.387 . S
C795 C797 1.387 . S
H796 C803 0.950 . S
C797 C795 1.387 . S
C797 C799 1.390 . S
C797 H801 0.950 . S
H798 C794 0.950 . S
C799 C797 1.390 . S
C799 C800 1.387 . S
C799 H802 0.950 . S
C800 C799 1.387 . S
C800 C803 1.387 . S
H801 C797 0.950 . S
H802 C799 0.950 . S
C803 C794 1.390 . S
C803 H796 0.950 . S
C803 C800 1.387 . S
C804 C805 1.387 . S
C804 H808 0.950 . S
C804 C813 1.390 1_455 S
C805 C804 1.387 . S
C805 C807 1.387 . S
H806 C813 0.950 . S
C807 C805 1.387 . S
C807 C809 1.390 1_455 S
C807 H811 0.950 . S
H808 C804 0.950 . S
C809 C807 1.390 1_655 S
C809 C810 1.387 . S
C809 H812 0.950 . S
C810 C809 1.387 . S
C810 C813 1.387 . S
H811 C807 0.950 . S
H812 C809 0.950 . S
C813 C804 1.390 1_655 S
C813 H806 0.950 . S
C813 C810 1.387 . S
C814 C815 1.387 . S
C814 H818 0.950 . S
C814 C823 1.390 . S
C815 C814 1.387 . S
C815 C817 1.387 . S
H816 C823 0.950 . S
C817 C815 1.387 . S
C817 C819 1.390 . S
C817 H821 0.950 . S
H818 C814 0.950 . S
C819 C817 1.390 . S
C819 C820 1.387 . S
C819 H822 0.950 . S
C820 C819 1.387 . S
C820 C823 1.387 . S
H821 C817 0.950 . S
H822 C819 0.950 . S
C823 C814 1.390 . S
C823 H816 0.950 . S
C823 C820 1.387 . S
C824 C825 1.387 . S
C824 H828 0.950 . S
C824 C833 1.390 1_545 S
C825 C824 1.387 . S
C825 C827 1.387 . S
H826 C833 0.950 . S
C827 C825 1.387 . S
C827 C829 1.390 1_545 S
C827 H831 0.950 . S
H828 C824 0.950 . S
C829 C827 1.390 1_565 S
C829 C830 1.387 . S
C829 H832 0.950 . S
C830 C829 1.387 . S
C830 C833 1.387 . S
H831 C827 0.950 . S
H832 C829 0.950 . S
C833 C824 1.390 1_565 S
C833 H826 0.950 . S
C833 C830 1.387 . S
C834 C835 1.387 . S
C834 H838 0.950 . S
C834 C843 1.390 1_565 S
C835 C834 1.387 . S
C835 C837 1.387 . S
H836 C843 0.950 . S
C837 C835 1.387 . S
C837 C839 1.390 1_565 S
C837 H841 0.950 . S
H838 C834 0.950 . S
C839 C837 1.390 1_545 S
C839 C840 1.387 . S
C839 H842 0.950 . S
C840 C839 1.387 . S
C840 C843 1.387 . S
H841 C837 0.950 . S
H842 C839 0.950 . S
C843 C834 1.390 1_545 S
C843 H836 0.950 . S
C843 C840 1.387 . S
C844 C845 1.387 . S
C844 H848 0.950 . S
C844 C853 1.390 . S
C845 C844 1.387 . S
C845 C847 1.387 1_655 S
H846 C853 0.950 . S
C847 C845 1.387 1_455 S
C847 C849 1.390 . S
C847 H851 0.950 . S
H848 C844 0.950 . S
C849 C847 1.390 . S
C849 C850 1.387 . S
C849 H852 0.950 . S
C850 C849 1.387 . S
C850 C853 1.387 1_455 S
H851 C847 0.950 . S
H852 C849 0.950 . S
C853 C844 1.390 . S
C853 H846 0.950 . S
C853 C850 1.387 1_655 S
C854 C855 1.387 . S
C854 H858 0.950 . S
C854 C863 1.390 . S
C855 C854 1.387 . S
C855 C857 1.387 . S
H856 C863 0.950 . S
C857 C855 1.387 . S
C857 C859 1.390 . S
C857 H861 0.950 . S
H858 C854 0.950 . S
C859 C857 1.390 . S
C859 C860 1.387 . S
C859 H862 0.950 . S
C860 C859 1.387 . S
C860 C863 1.387 . S
H861 C857 0.950 . S
H862 C859 0.950 . S
C863 C854 1.390 . S
C863 H856 0.950 . S
C863 C860 1.387 . S
C864 C865 1.387 . S
C864 H868 0.950 . S
C864 C873 1.390 . S
C865 C864 1.387 . S
C865 C867 1.387 . S
H866 C873 0.950 . S
C867 C865 1.387 . S
C867 C869 1.390 . S
C867 H871 0.950 . S
H868 C864 0.950 . S
C869 C867 1.390 . S
C869 C870 1.387 . S
C869 H872 0.950 . S
C870 C869 1.387 . S
C870 C873 1.387 . S
H871 C867 0.950 . S
H872 C869 0.950 . S
C873 C864 1.390 . S
C873 H866 0.950 . S
C873 C870 1.387 . S
C874 C875 1.387 . S
C874 H878 0.950 . S
C874 C883 1.390 . S
C875 C874 1.387 . S
C875 C877 1.387 . S
H876 C883 0.950 . S
C877 C875 1.387 . S
C877 C879 1.390 . S
C877 H881 0.950 . S
H878 C874 0.950 . S
C879 C877 1.390 . S
C879 C880 1.387 . S
C879 H882 0.950 . S
C880 C879 1.387 . S
C880 C883 1.387 . S
H881 C877 0.950 . S
H882 C879 0.950 . S
C883 C874 1.390 . S
C883 H876 0.950 . S
C883 C880 1.387 . S
C884 C885 1.387 . S
C884 H888 0.950 . S
C884 C893 1.390 . S
C885 C884 1.387 . S
C885 C887 1.387 . S
H886 C893 0.950 . S
C887 C885 1.387 . S
C887 C889 1.390 . S
C887 H891 0.950 . S
H888 C884 0.950 . S
C889 C887 1.390 . S
C889 C890 1.387 . S
C889 H892 0.950 . S
C890 C889 1.387 . S
C890 C893 1.387 . S
H891 C887 0.950 . S
H892 C889 0.950 . S
C893 C884 1.390 . S
C893 H886 0.950 . S
C893 C890 1.387 . S
C894 C895 1.387 . S
C894 H898 0.950 . S
C894 C903 1.390 . S
C895 C894 1.387 . S
C895 C897 1.387 . S
H896 C903 0.950 . S
C897 C895 1.387 . S
C897 C899 1.390 . S
C897 H901 0.950 . S
H898 C894 0.950 . S
C899 C897 1.390 . S
C899 C900 1.387 . S
C899 H902 0.950 . S
C900 C899 1.387 . S
C900 C903 1.387 . S
H901 C897 0.950 . S
H902 C899 0.950 . S
C903 C894 1.390 . S
C903 H896 0.950 . S
C903 C900 1.387 . S
C904 C905 1.387 . S
C904 H908 0.950 . S
C904 C913 1.390 . S
C905 C904 1.387 . S
C905 C907 1.387 . S
H906 C913 0.950 . S
C907 C905 1.387 . S
C907 C909 1.390 . S
C907 H911 0.950 . S
H908 C904 0.950 . S
C909 C907 1.390 . S
C909 C910 1.387 . S
C909 H912 0.950 . S
C910 C909 1.387 . S
C910 C913 1.387 . S
H911 C907 0.950 . S
H912 C909 0.950 . S
C913 C904 1.390 . S
C913 H906 0.950 . S
C913 C910 1.387 . S
C914 C915 1.387 . S
C914 H918 0.950 . S
C914 C923 1.390 . S
C915 C914 1.387 . S
C915 C917 1.387 . S
H916 C923 0.950 . S
C917 C915 1.387 . S
C917 C919 1.390 . S
C917 H921 0.950 . S
H918 C914 0.950 . S
C919 C917 1.390 . S
C919 C920 1.387 . S
C919 H922 0.950 . S
C920 C919 1.387 . S
C920 C923 1.387 . S
H921 C917 0.950 . S
H922 C919 0.950 . S
C923 C914 1.390 . S
C923 H916 0.950 . S
C923 C920 1.387 . S
C924 C925 1.387 . S
C924 H928 0.950 . S
C924 C933 1.390 . S
C925 C924 1.387 . S
C925 C927 1.387 . S
H926 C933 0.950 . S
C927 C925 1.387 . S
C927 C929 1.390 . S
C927 H931 0.950 . S
H928 C924 0.950 . S
C929 C927 1.390 . S
C929 C930 1.387 . S
C929 H932 0.950 . S
C930 C929 1.387 . S
C930 C933 1.387 . S
H931 C927 0.950 . S
H932 C929 0.950 . S
C933 C924 1.390 . S
C933 H926 0.950 . S
C933 C930 1.387 . S
C934 C935 1.387 . S
C934 H938 0.950 . S
C934 C943 1.390 . S
C935 C934 1.387 . S
C935 C937 1.387 . S
H936 C943 0.950 . S
C937 C935 1.387 . S
C937 C939 1.390 . S
C937 H941 0.950 . S
H938 C934 0.950 . S
C939 C937 1.390 . S
C939 C940 1.387 . S
C939 H942 0.950 . S
C940 C939 1.387 . S
C940 C943 1.387 . S
H941 C937 0.950 . S
H942 C939 0.950 . S
C943 C934 1.390 . S
C943 H936 0.950 . S
C943 C940 1.387 . S
C944 C945 1.387 . S
C944 H948 0.950 . S
C944 C953 1.390 . S
C945 C944 1.387 . S
C945 C947 1.387 . S
H946 C953 0.950 . S
C947 C945 1.387 . S
C947 C949 1.390 . S
C947 H951 0.950 . S
H948 C944 0.950 . S
C949 C947 1.390 . S
C949 C950 1.387 . S
C949 H952 0.950 . S
C950 C949 1.387 . S
C950 C953 1.387 . S
H951 C947 0.950 . S
H952 C949 0.950 . S
C953 C944 1.390 . S
C953 H946 0.950 . S
C953 C950 1.387 . S
C954 C955 1.387 . S
C954 H958 0.950 . S
C954 C963 1.390 . S
C955 C954 1.387 . S
C955 C957 1.387 . S
H956 C963 0.950 . S
C957 C955 1.387 . S
C957 C959 1.390 . S
C957 H961 0.950 . S
H958 C954 0.950 . S
C959 C957 1.390 . S
C959 C960 1.387 . S
C959 H962 0.950 . S
C960 C959 1.387 . S
C960 C963 1.387 . S
H961 C957 0.950 . S
H962 C959 0.950 . S
C963 C954 1.390 . S
C963 H956 0.950 . S
C963 C960 1.387 . S
C964 C965 1.387 . S
C964 H968 0.950 . S
C964 C973 1.390 . S
C965 C964 1.387 . S
C965 C967 1.387 . S
H966 C973 0.950 . S
C967 C965 1.387 . S
C967 C969 1.390 . S
C967 H971 0.950 . S
H968 C964 0.950 . S
C969 C967 1.390 . S
C969 C970 1.387 . S
C969 H972 0.950 . S
C970 C969 1.387 . S
C970 C973 1.387 . S
H971 C967 0.950 . S
H972 C969 0.950 . S
C973 C964 1.390 . S
C973 H966 0.950 . S
C973 C970 1.387 . S
C974 C975 1.387 . S
C974 H978 0.950 . S
C974 C983 1.390 . S
C975 C974 1.387 . S
C975 C977 1.387 . S
H976 C983 0.950 . S
C977 C975 1.387 . S
C977 C979 1.390 . S
C977 H981 0.950 . S
H978 C974 0.950 . S
C979 C977 1.390 . S
C979 C980 1.387 . S
C979 H982 0.950 . S
C980 C979 1.387 . S
C980 C983 1.387 . S
H981 C977 0.950 . S
H982 C979 0.950 . S
C983 C974 1.390 . S
C983 H976 0.950 . S
C983 C980 1.387 . S
C984 C985 1.387 . S
C984 H988 0.950 . S
C984 C993 1.390 1_455 S
C985 C984 1.387 . S
C985 C987 1.387 . S
H986 C993 0.950 . S
C987 C985 1.387 . S
C987 C989 1.390 1_455 S
C987 H991 0.950 . S
H988 C984 0.950 . S
C989 C987 1.390 1_655 S
C989 C990 1.387 . S
C989 H992 0.950 . S
C990 C989 1.387 . S
C990 C993 1.387 . S
H991 C987 0.950 . S
H992 C989 0.950 . S
C993 C984 1.390 1_655 S
C993 H986 0.950 . S
C993 C990 1.387 . S
C994 C995 1.387 . S
C994 H998 0.950 . S
C994 C1003 1.390 . S
C995 C994 1.387 . S
C995 C997 1.387 . S
H996 C1003 0.950 . S
C997 C995 1.387 . S
C997 C999 1.390 . S
C997 H1001 0.950 . S
H998 C994 0.950 . S
C999 C997 1.390 . S
C999 C1000 1.387 . S
C999 H1002 0.950 . S
C1000 C999 1.387 . S
C1000 C1003 1.387 . S
H1001 C997 0.950 . S
H1002 C999 0.950 . S
C1003 C994 1.390 . S
C1003 H996 0.950 . S
C1003 C1000 1.387 . S
C1004 C1005 1.387 1_565 S
C1004 H1008 0.950 . S
C1004 C1013 1.390 . S
C1005 C1004 1.387 1_545 S
C1005 C1007 1.387 . S
H1006 C1013 0.950 . S
C1007 C1005 1.387 . S
C1007 C1009 1.390 . S
C1007 H1011 0.950 . S
H1008 C1004 0.950 . S
C1009 C1007 1.390 . S
C1009 C1010 1.387 1_545 S
C1009 H1012 0.950 . S
C1010 C1009 1.387 1_565 S
C1010 C1013 1.387 . S
H1011 C1007 0.950 . S
H1012 C1009 0.950 . S
C1013 C1004 1.390 . S
C1013 H1006 0.950 . S
C1013 C1010 1.387 . S
C1014 C1015 1.387 1_565 S
C1014 H1018 0.950 . S
C1014 C1023 1.390 . S
C1015 C1014 1.387 1_545 S
C1015 C1017 1.387 1_556 S
H1016 C1023 0.950 . S
C1017 C1015 1.387 1_554 S
C1017 C1019 1.390 . S
C1017 H1021 0.950 . S
H1018 C1014 0.950 . S
C1019 C1017 1.390 . S
C1019 C1020 1.387 1_545 S
C1019 H1022 0.950 . S
C1020 C1019 1.387 1_565 S
C1020 C1023 1.387 1_554 S
H1021 C1017 0.950 . S
H1022 C1019 0.950 . S
C1023 C1014 1.390 . S
C1023 H1016 0.950 . S
C1023 C1020 1.387 1_556 S
C1024 C1025 1.387 1_655 S
C1024 H1028 0.950 . S
C1024 C1033 1.390 1_554 S
C1025 C1024 1.387 1_455 S
C1025 C1027 1.387 . S
H1026 C1033 0.950 . S
C1027 C1025 1.387 . S
C1027 C1029 1.390 1_554 S
C1027 H1031 0.950 . S
H1028 C1024 0.950 . S
C1029 C1027 1.390 1_556 S
C1029 C1030 1.387 1_455 S
C1029 H1032 0.950 . S
C1030 C1029 1.387 1_655 S
C1030 C1033 1.387 . S
H1031 C1027 0.950 . S
H1032 C1029 0.950 . S
C1033 C1024 1.390 1_556 S
C1033 H1026 0.950 . S
C1033 C1030 1.387 . S
C1034 C1035 1.387 1_556 S
C1034 H1038 0.950 . S
C1034 C1043 1.390 . S
C1035 C1034 1.387 1_554 S
C1035 C1037 1.387 . S
H1036 C1043 0.950 . S
C1037 C1035 1.387 . S
C1037 C1039 1.390 . S
C1037 H1041 0.950 . S
H1038 C1034 0.950 . S
C1039 C1037 1.390 . S
C1039 C1040 1.387 1_554 S
C1039 H1042 0.950 . S
C1040 C1039 1.387 1_556 S
C1040 C1043 1.387 . S
H1041 C1037 0.950 . S
H1042 C1039 0.950 . S
C1043 C1034 1.390 . S
C1043 H1036 0.950 . S
C1043 C1040 1.387 . S
C1044 C1045 1.387 . S
C1044 H1048 0.950 . S
C1044 C1053 1.390 . S
C1045 C1044 1.387 . S
C1045 C1047 1.387 . S
H1046 C1053 0.950 . S
C1047 C1045 1.387 . S
C1047 C1049 1.390 . S
C1047 H1051 0.950 . S
H1048 C1044 0.950 . S
C1049 C1047 1.390 . S
C1049 C1050 1.387 . S
C1049 H1052 0.950 . S
C1050 C1049 1.387 . S
C1050 C1053 1.387 . S
H1051 C1047 0.950 . S
H1052 C1049 0.950 . S
C1053 C1044 1.390 . S
C1053 H1046 0.950 . S
C1053 C1050 1.387 . S
C1054 C1055 1.387 . S
C1054 H1058 0.950 . S
C1054 C1063 1.390 . S
C1055 C1054 1.387 . S
C1055 C1057 1.387 . S
H1056 C1063 0.950 . S
C1057 C1055 1.387 . S
C1057 C1059 1.390 . S
C1057 H1061 0.950 . S
H1058 C1054 0.950 . S
C1059 C1057 1.390 . S
C1059 C1060 1.387 . S
C1059 H1062 0.950 . S
C1060 C1059 1.387 . S
C1060 C1063 1.387 . S
H1061 C1057 0.950 . S
H1062 C1059 0.950 . S
C1063 C1054 1.390 . S
C1063 H1056 0.950 . S
C1063 C1060 1.387 . S
C1064 C1065 1.387 . S
C1064 H1068 0.950 . S
C1064 C1073 1.390 . S
C1065 C1064 1.387 . S
C1065 C1067 1.387 . S
H1066 C1073 0.950 . S
C1067 C1065 1.387 . S
C1067 C1069 1.390 . S
C1067 H1071 0.950 . S
H1068 C1064 0.950 . S
C1069 C1067 1.390 . S
C1069 C1070 1.387 . S
C1069 H1072 0.950 . S
C1070 C1069 1.387 . S
C1070 C1073 1.387 . S
H1071 C1067 0.950 . S
H1072 C1069 0.950 . S
C1073 C1064 1.390 . S
C1073 H1066 0.950 . S
C1073 C1070 1.387 . S
C1074 C1075 1.387 . S
C1074 H1078 0.950 . S
C1074 C1083 1.390 . S
C1075 C1074 1.387 . S
C1075 C1077 1.387 . S
H1076 C1083 0.950 . S
C1077 C1075 1.387 . S
C1077 C1079 1.390 . S
C1077 H1081 0.950 . S
H1078 C1074 0.950 . S
C1079 C1077 1.390 . S
C1079 C1080 1.387 . S
C1079 H1082 0.950 . S
C1080 C1079 1.387 . S
C1080 C1083 1.387 . S
H1081 C1077 0.950 . S
H1082 C1079 0.950 . S
C1083 C1074 1.390 . S
C1083 H1076 0.950 . S
C1083 C1080 1.387 . S
C1084 C1085 1.387 . S
C1084 H1088 0.950 . S
C1084 C1093 1.390 . S
C1085 C1084 1.387 . S
C1085 C1087 1.387 . S
H1086 C1093 0.950 . S
C1087 C1085 1.387 . S
C1087 C1089 1.390 . S
C1087 H1091 0.950 . S
H1088 C1084 0.950 . S
C1089 C1087 1.390 . S
C1089 C1090 1.387 . S
C1089 H1092 0.950 . S
C1090 C1089 1.387 . S
C1090 C1093 1.387 . S
H1091 C1087 0.950 . S
H1092 C1089 0.950 . S
C1093 C1084 1.390 . S
C1093 H1086 0.950 . S
C1093 C1090 1.387 . S
C1094 C1095 1.387 . S
C1094 H1098 0.950 . S
C1094 C1103 1.390 . S
C1095 C1094 1.387 . S
C1095 C1097 1.387 . S
H1096 C1103 0.950 . S
C1097 C1095 1.387 . S
C1097 C1099 1.390 . S
C1097 H1101 0.950 . S
H1098 C1094 0.950 . S
C1099 C1097 1.390 . S
C1099 C1100 1.387 . S
C1099 H1102 0.950 . S
C1100 C1099 1.387 . S
C1100 C1103 1.387 . S
H1101 C1097 0.950 . S
H1102 C1099 0.950 . S
C1103 C1094 1.390 . S
C1103 H1096 0.950 . S
C1103 C1100 1.387 . S
C1104 C1105 1.387 . S
C1104 H1108 0.950 . S
C1104 C1113 1.390 . S
C1105 C1104 1.387 . S
C1105 C1107 1.387 . S
H1106 C1113 0.950 . S
C1107 C1105 1.387 . S
C1107 C1109 1.390 . S
C1107 H1111 0.950 . S
H1108 C1104 0.950 . S
C1109 C1107 1.390 . S
C1109 C1110 1.387 . S
C1109 H1112 0.950 . S
C1110 C1109 1.387 . S
C1110 C1113 1.387 . S
H1111 C1107 0.950 . S
H1112 C1109 0.950 . S
C1113 C1104 1.390 . S
C1113 H1106 0.950 . S
C1113 C1110 1.387 . S
C1114 C1115 1.387 . S
C1114 H1118 0.950 . S
C1114 C1123 1.390 . S
C1115 C1114 1.387 . S
C1115 C1117 1.387 . S
H1116 C1123 0.950 . S
C1117 C1115 1.387 . S
C1117 C1119 1.390 . S
C1117 H1121 0.950 . S
H1118 C1114 0.950 . S
C1119 C1117 1.390 . S
C1119 C1120 1.387 . S
C1119 H1122 0.950 . S
C1120 C1119 1.387 . S
C1120 C1123 1.387 . S
H1121 C1117 0.950 . S
H1122 C1119 0.950 . S
C1123 C1114 1.390 . S
C1123 H1116 0.950 . S
C1123 C1120 1.387 . S
C1124 C1125 1.387 . S
C1124 H1128 0.950 . S
C1124 C1133 1.390 . S
C1125 C1124 1.387 . S
C1125 C1127 1.387 . S
H1126 C1133 0.950 . S
C1127 C1125 1.387 . S
C1127 C1129 1.390 . S
C1127 H1131 0.950 . S
H1128 C1124 0.950 . S
C1129 C1127 1.390 . S
C1129 C1130 1.387 . S
C1129 H1132 0.950 . S
C1130 C1129 1.387 . S
C1130 C1133 1.387 . S
H1131 C1127 0.950 . S
H1132 C1129 0.950 . S
C1133 C1124 1.390 . S
C1133 H1126 0.950 . S
C1133 C1130 1.387 . S
C1134 C1135 1.387 . S
C1134 H1138 0.950 . S
C1134 C1143 1.390 . S
C1135 C1134 1.387 . S
C1135 C1137 1.387 . S
H1136 C1143 0.950 . S
C1137 C1135 1.387 . S
C1137 C1139 1.390 . S
C1137 H1141 0.950 . S
H1138 C1134 0.950 . S
C1139 C1137 1.390 . S
C1139 C1140 1.387 . S
C1139 H1142 0.950 . S
C1140 C1139 1.387 . S
C1140 C1143 1.387 . S
H1141 C1137 0.950 . S
H1142 C1139 0.950 . S
C1143 C1134 1.390 . S
C1143 H1136 0.950 . S
C1143 C1140 1.387 . S
C1144 C1145 1.387 . S
C1144 H1148 0.950 . S
C1144 C1153 1.390 . S
C1145 C1144 1.387 . S
C1145 C1147 1.387 . S
H1146 C1153 0.950 . S
C1147 C1145 1.387 . S
C1147 C1149 1.390 . S
C1147 H1151 0.950 . S
H1148 C1144 0.950 . S
C1149 C1147 1.390 . S
C1149 C1150 1.387 . S
C1149 H1152 0.950 . S
C1150 C1149 1.387 . S
C1150 C1153 1.387 . S
H1151 C1147 0.950 . S
H1152 C1149 0.950 . S
C1153 C1144 1.390 . S
C1153 H1146 0.950 . S
C1153 C1150 1.387 . S
C1154 C1155 1.387 . S
C1154 H1158 0.950 . S
C1154 C1163 1.390 . S
C1155 C1154 1.387 . S
C1155 C1157 1.387 . S
H1156 C1163 0.950 . S
C1157 C1155 1.387 . S
C1157 C1159 1.390 . S
C1157 H1161 0.950 . S
H1158 C1154 0.950 . S
C1159 C1157 1.390 . S
C1159 C1160 1.387 . S
C1159 H1162 0.950 . S
C1160 C1159 1.387 . S
C1160 C1163 1.387 . S
H1161 C1157 0.950 . S
H1162 C1159 0.950 . S
C1163 C1154 1.390 . S
C1163 H1156 0.950 . S
C1163 C1160 1.387 . S
C1164 C1165 1.387 . S
C1164 H1168 0.950 . S
C1164 C1173 1.390 . S
C1165 C1164 1.387 . S
C1165 C1167 1.387 . S
H1166 C1173 0.950 . S
C1167 C1165 1.387 . S
C1167 C1169 1.390 . S
C1167 H1171 0.950 . S
H1168 C1164 0.950 . S
C1169 C1167 1.390 . S
C1169 C1170 1.387 . S
C1169 H1172 0.950 . S
C1170 C1169 1.387 . S
C1170 C1173 1.387 . S
H1171 C1167 0.950 . S
H1172 C1169 0.950 . S
C1173 C1164 1.390 . S
C1173 H1166 0.950 . S
C1173 C1170 1.387 . S
C1174 C1175 1.387 . S
C1174 H1178 0.950 . S
C1174 C1183 1.390 1_545 S
C1175 C1174 1.387 . S
C1175 C1177 1.387 . S
H1176 C1183 0.950 . S
C1177 C1175 1.387 . S
C1177 C1179 1.390 1_545 S
C1177 H1181 0.950 . S
H1178 C1174 0.950 . S
C1179 C1177 1.390 1_565 S
C1179 C1180 1.387 . S
C1179 H1182 0.950 . S
C1180 C1179 1.387 . S
C1180 C1183 1.387 . S
H1181 C1177 0.950 . S
H1182 C1179 0.950 . S
C1183 C1174 1.390 1_565 S
C1183 H1176 0.950 . S
C1183 C1180 1.387 . S
C1184 C1185 1.387 . S
C1184 H1188 0.950 . S
C1184 C1193 1.390 . S
C1185 C1184 1.387 . S
C1185 C1187 1.387 1_655 S
H1186 C1193 0.950 . S
C1187 C1185 1.387 1_455 S
C1187 C1189 1.390 . S
C1187 H1191 0.950 . S
H1188 C1184 0.950 . S
C1189 C1187 1.390 . S
C1189 C1190 1.387 . S
C1189 H1192 0.950 . S
C1190 C1189 1.387 . S
C1190 C1193 1.387 1_455 S
H1191 C1187 0.950 . S
H1192 C1189 0.950 . S
C1193 C1184 1.390 . S
C1193 H1186 0.950 . S
C1193 C1190 1.387 1_655 S
C1194 C1195 1.387 . S
C1194 H1198 0.950 . S
C1194 C1203 1.390 . S
C1195 C1194 1.387 . S
C1195 C1197 1.387 . S
H1196 C1203 0.950 . S
C1197 C1195 1.387 . S
C1197 C1199 1.390 . S
C1197 H1201 0.950 . S
H1198 C1194 0.950 . S
C1199 C1197 1.390 . S
C1199 C1200 1.387 . S
C1199 H1202 0.950 . S
C1200 C1199 1.387 . S
C1200 C1203 1.387 . S
H1201 C1197 0.950 . S
H1202 C1199 0.950 . S
C1203 C1194 1.390 . S
C1203 H1196 0.950 . S
C1203 C1200 1.387 . S
C1204 C1205 1.387 . S
C1204 H1208 0.950 . S
C1204 C1213 1.390 1_545 S
C1205 C1204 1.387 . S
C1205 C1207 1.387 . S
H1206 C1213 0.950 . S
C1207 C1205 1.387 . S
C1207 C1209 1.390 1_545 S
C1207 H1211 0.950 . S
H1208 C1204 0.950 . S
C1209 C1207 1.390 1_565 S
C1209 C1210 1.387 . S
C1209 H1212 0.950 . S
C1210 C1209 1.387 . S
C1210 C1213 1.387 . S
H1211 C1207 0.950 . S
H1212 C1209 0.950 . S
C1213 C1204 1.390 1_565 S
C1213 H1206 0.950 . S
C1213 C1210 1.387 . S
C1214 C1215 1.387 . S
C1214 H1218 0.950 . S
C1214 C1223 1.390 . S
C1215 C1214 1.387 . S
C1215 C1217 1.387 1_455 S
H1216 C1223 0.950 . S
C1217 C1215 1.387 1_655 S
C1217 C1219 1.390 . S
C1217 H1221 0.950 . S
H1218 C1214 0.950 . S
C1219 C1217 1.390 . S
C1219 C1220 1.387 . S
C1219 H1222 0.950 . S
C1220 C1219 1.387 . S
C1220 C1223 1.387 1_655 S
H1221 C1217 0.950 . S
H1222 C1219 0.950 . S
C1223 C1214 1.390 . S
C1223 H1216 0.950 . S
C1223 C1220 1.387 1_455 S
C505 C75 1.000 . S
C510 C5 1.000 . S
C515 C47 0.999 . S
C520 C19 1.000 . S
C525 C33 1.000 . S
C530 C61 0.999 . S
C535 C89 1.000 . S
C540 C159 1.000 . S
C545 C103 1.000 . S
C550 C131 0.999 . S
C555 C145 1.000 . S
C560 C117 0.999 . S
C565 C173 1.000 1_655 S
C570 C243 1.000 . S
C575 C187 0.999 . S
C580 C215 1.000 . S
C585 C229 1.000 . S
C590 C201 0.999 1_545 S
C595 C327 0.999 . S
C600 C257 0.999 . S
C605 C299 1.000 1_545 S
C610 C271 0.999 . S
C615 C285 0.999 . S
C620 C313 1.000 1_655 S
C625 C411 0.999 . S
C630 C341 0.999 . S
C635 C383 1.000 1_565 S
C640 C355 0.999 . S
C645 C369 0.999 . S
C650 C397 1.000 1_455 S
C655 C495 0.999 . S
C660 C425 0.999 1_455 S
C665 C467 0.999 . S
C670 C439 1.000 . S
C675 C481 1.000 . S
C680 C453 0.999 1_565 S
C685 C233 1.737 . S
C690 C9 1.738 . S
C695 C247 1.733 . S
C700 C23 1.733 . S
C705 C219 1.733 . S
C710 C37 1.733 . S
C715 C51 1.738 . S
C720 C373 1.738 1_554 S
C725 C65 1.738 . S
C730 C345 1.738 1_554 S
C735 C79 1.735 . S
C740 C359 1.735 1_554 S
C745 C93 1.737 . S
C750 C485 1.737 . S
C755 C499 1.737 . S
C760 C107 1.737 . S
C765 C471 1.733 . S
C770 C121 1.733 . S
C775 C289 1.738 1_556 S
C780 C135 1.738 . S
C785 C261 1.736 1_556 S
C790 C149 1.737 . S
C795 C163 1.733 . S
C800 C275 1.734 1_556 S
C805 C177 1.738 . S
C810 C401 1.738 . S
C815 C415 1.737 . S
C820 C191 1.737 . S
C825 C387 1.738 . S
C830 C205 1.738 . S
C835 C303 1.733 . S
C840 C457 1.733 . S
C845 C429 1.737 . S
C850 C317 1.737 . S
C855 C331 1.734 . S
C860 C443 1.734 . S
C865 C263 1.550 . S
C870 C11 1.550 . S
C875 C277 1.549 . S
C880 C25 1.549 . S
C885 C39 1.548 . S
C890 C291 1.548 . S
C895 C53 1.549 . S
C900 C473 1.549 . S
C905 C487 1.549 . S
C910 C67 1.549 . S
C915 C501 1.548 . S
C920 C81 1.548 . S
C925 C95 1.550 . S
C930 C347 1.550 . S
C935 C109 1.548 . S
C940 C361 1.548 . S
C945 C375 1.549 . S
C950 C123 1.549 . S
C955 C137 1.550 . S
C960 C221 1.550 . S
C965 C151 1.549 . S
C970 C235 1.549 . S
C975 C249 1.548 . S
C980 C165 1.548 . S
C985 C179 1.550 . S
C990 C431 1.550 . S
C995 C193 1.548 . S
C1000 C445 1.548 . S
C1005 C459 1.549 . S
C1010 C207 1.549 . S
C1015 C389 1.548 . S
C1020 C305 1.548 . S
C1025 C319 1.548 . S
C1030 C403 1.548 . S
C1035 C333 1.548 . S
C1040 C417 1.548 . S
C1045 C378 1.691 1_554 S
C1050 C0 1.689 . S
C1055 C14 1.690 . S
C1060 C392 1.690 1_554 S
C1065 C406 1.690 1_554 S
C1070 C28 1.690 . S
C1075 C42 1.690 . S
C1080 C168 1.691 . S
C1085 C182 1.690 . S
C1090 C56 1.690 . S
C1095 C196 1.691 . S
C1100 C70 1.689 . S
C1105 C84 1.691 . S
C1110 C294 1.689 1_556 S
C1115 C308 1.690 1_556 S
C1120 C98 1.690 . S
C1125 C112 1.691 . S
C1130 C322 1.690 1_556 S
C1135 C126 1.691 . S
C1140 C420 1.690 . S
C1145 C140 1.690 . S
C1150 C434 1.690 . S
C1155 C448 1.690 . S
C1160 C154 1.691 . S
C1165 C210 1.690 . S
C1170 C336 1.691 . S
C1175 C224 1.690 . S
C1180 C350 1.690 . S
C1185 C238 1.689 . S
C1190 C364 1.691 . S
C1195 C252 1.690 . S
C1200 C462 1.690 . S
C1205 C266 1.690 . S
C1210 C476 1.690 . S
C1215 C490 1.691 . S
C1220 C280 1.689 . S
