# Generated by pormake.
# Topology lhb, (8)-cn, num edge types: 1
# Building blocks:
#     Node 0, Type 0, BuildingBlock: LIZSOE_clean_sbu_0, # of connection points: 8
#     Node 1, Type 0, BuildingBlock: LIZSOE_clean_sbu_0, # of connection points: 8
#     Node 2, Type 0, BuildingBlock: LIZSOE_clean_sbu_0, # of connection points: 8
#     Node 3, Type 0, BuildingBlock: LIZSOE_clean_sbu_0, # of connection points: 8
#     Node 4, Type 0, BuildingBlock: LIZSOE_clean_sbu_0, # of connection points: 8
#     Node 5, Type 0, BuildingBlock: LIZSOE_clean_sbu_0, # of connection points: 8
#     Node 6, Type 0, BuildingBlock: LIZSOE_clean_sbu_0, # of connection points: 8
#     Node 7, Type 0, BuildingBlock: LIZSOE_clean_sbu_0, # of connection points: 8
#     Edge 8, Type (0, 0), BuildingBlock: ZUJKAS_clean_linker_0, # of connection points: 2
#     Edge 9, Type (0, 0), BuildingBlock: ZUJKAS_clean_linker_0, # of connection points: 2
#     Edge 10, Type (0, 0), BuildingBlock: ZUJKAS_clean_linker_0, # of connection points: 2
#     Edge 11, Type (0, 0), BuildingBlock: ZUJKAS_clean_linker_0, # of connection points: 2
#     Edge 12, Type (0, 0), BuildingBlock: ZUJKAS_clean_linker_0, # of connection points: 2
#     Edge 13, Type (0, 0), BuildingBlock: ZUJKAS_clean_linker_0, # of connection points: 2
#     Edge 14, Type (0, 0), BuildingBlock: ZUJKAS_clean_linker_0, # of connection points: 2
#     Edge 15, Type (0, 0), BuildingBlock: ZUJKAS_clean_linker_0, # of connection points: 2
#     Edge 16, Type (0, 0), BuildingBlock: ZUJKAS_clean_linker_0, # of connection points: 2
#     Edge 17, Type (0, 0), BuildingBlock: ZUJKAS_clean_linker_0, # of connection points: 2
#     Edge 18, Type (0, 0), BuildingBlock: ZUJKAS_clean_linker_0, # of connection points: 2
#     Edge 19, Type (0, 0), BuildingBlock: ZUJKAS_clean_linker_0, # of connection points: 2
#     Edge 20, Type (0, 0), BuildingBlock: ZUJKAS_clean_linker_0, # of connection points: 2
#     Edge 21, Type (0, 0), BuildingBlock: ZUJKAS_clean_linker_0, # of connection points: 2
#     Edge 22, Type (0, 0), BuildingBlock: ZUJKAS_clean_linker_0, # of connection points: 2
#     Edge 23, Type (0, 0), BuildingBlock: ZUJKAS_clean_linker_0, # of connection points: 2
#     Edge 24, Type (0, 0), BuildingBlock: ZUJKAS_clean_linker_0, # of connection points: 2
#     Edge 25, Type (0, 0), BuildingBlock: ZUJKAS_clean_linker_0, # of connection points: 2
#     Edge 26, Type (0, 0), BuildingBlock: ZUJKAS_clean_linker_0, # of connection points: 2
#     Edge 27, Type (0, 0), BuildingBlock: ZUJKAS_clean_linker_0, # of connection points: 2
#     Edge 28, Type (0, 0), BuildingBlock: ZUJKAS_clean_linker_0, # of connection points: 2
#     Edge 29, Type (0, 0), BuildingBlock: ZUJKAS_clean_linker_0, # of connection points: 2
#     Edge 30, Type (0, 0), BuildingBlock: ZUJKAS_clean_linker_0, # of connection points: 2
#     Edge 31, Type (0, 0), BuildingBlock: ZUJKAS_clean_linker_0, # of connection points: 2
#     Edge 32, Type (0, 0), BuildingBlock: ZUJKAS_clean_linker_0, # of connection points: 2
#     Edge 33, Type (0, 0), BuildingBlock: ZUJKAS_clean_linker_0, # of connection points: 2
#     Edge 34, Type (0, 0), BuildingBlock: ZUJKAS_clean_linker_0, # of connection points: 2
#     Edge 35, Type (0, 0), BuildingBlock: ZUJKAS_clean_linker_0, # of connection points: 2
#     Edge 36, Type (0, 0), BuildingBlock: ZUJKAS_clean_linker_0, # of connection points: 2
#     Edge 37, Type (0, 0), BuildingBlock: ZUJKAS_clean_linker_0, # of connection points: 2
#     Edge 38, Type (0, 0), BuildingBlock: ZUJKAS_clean_linker_0, # of connection points: 2
#     Edge 39, Type (0, 0), BuildingBlock: ZUJKAS_clean_linker_0, # of connection points: 2
# Relax obj value: 0.095
# Max RMSD: 0.208
# Mean RMSD: 0.208
data_MOF--net-lhb--node1-LIZSOE_clean_sbu_0--edge1-ZUJKAS_clean_linker_0
_symmetry_space_group_name_H-M    P1
_symmetry_Int_Tables_number       1
_symmetry_cell_setting            triclinic
loop_
_symmetry_equiv_pos_as_xyz
'x, y, z'
_cell_length_a     52.311476
_cell_length_b     19.825368
_cell_length_c     57.855214
_cell_angle_alpha  89.940816
_cell_angle_beta   89.946657
_cell_angle_gamma 89.986989
loop_
_atom_site_label
_atom_site_type_symbol
_atom_site_fract_x
_atom_site_fract_y
_atom_site_fract_z
_atom_type_partial_charge
Co0 Co 0.05871 0.12688 0.99844 0.0
N1 N 0.09282 0.15204 0.99723 0.0
C2 C 0.10375 0.16392 0.97653 0.0
N3 N 0.13334 0.18665 1.00247 0.0
C4 C 0.11125 0.16713 0.01288 0.0
C5 C 0.12848 0.18471 0.97964 0.0
Co6 Co 0.96015 0.91496 1.00265 0.0
N7 N 0.92594 0.88991 1.0038 0.0
N8 N 0.8859 0.85535 0.01153 0.0
C9 C 0.88975 0.85174 0.98858 0.0
C10 C 0.91419 0.87264 0.98395 0.0
C11 C 0.90821 0.87819 0.02053 0.0
Co12 Co 1.00953 1.02095 1.00274 0.0
C13 C 0.99283 0.87399 0.01534 0.0
H14 H 0.92312 0.87415 0.96709 0.0
O15 O 0.02563 0.11343 0.99982 0.0
O16 O 0.98569 0.0537 0.02877 0.0
O17 O 0.03456 0.9935 0.02868 0.0
O18 O 0.03339 0.98375 0.97751 0.0
O19 O 0.06596 0.05589 0.97782 0.0
O20 O 0.95469 0.97694 0.02608 0.0
O21 O 0.99325 0.92816 1.00218 0.0
O22 O 0.95203 0.98095 0.98008 0.0
O23 O 0.0652 0.07089 0.02381 0.0
O24 O 0.04907 0.1909 0.01796 0.0
O25 O 0.9846 0.05327 0.97769 0.0
O26 O 0.97078 0.85649 0.02389 0.0
C27 C 0.05569 0.02194 0.03496 0.0
C28 C 0.91318 0.88426 0.04596 0.0
H29 H 0.93383 0.88352 0.05 0.0
H30 H 0.90497 0.93238 0.05216 0.0
H31 H 0.90351 0.84281 0.05547 0.0
C32 C 0.96449 0.02763 0.03586 0.0
C33 C 0.0555 1.00258 0.97018 0.0
H34 H 0.09413 0.15833 0.96011 0.0
H35 H 0.08717 0.18073 0.04291 0.0
H36 H 0.12035 0.20084 0.04751 0.0
H37 H 0.11012 0.11424 0.04481 0.0
C38 C 0.107 0.16629 0.0385 0.0
C39 C 0.02654 0.16942 0.01198 0.0
C40 C 0.96236 0.03303 0.97118 0.0
H41 H 0.14196 0.19745 0.96611 0.0
H42 H 0.87581 0.83483 0.97603 0.0
Co43 Co 0.21115 0.38257 0.24932 0.0
N44 N 0.17692 0.40684 0.24895 0.0
C45 C 0.16445 0.41607 0.2288 0.0
N46 N 0.13631 0.43647 0.25621 0.0
C47 C 0.15933 0.42099 0.26551 0.0
C48 C 0.13953 0.43329 0.23319 0.0
Co49 Co 0.30953 0.16698 0.24927 0.0
N50 N 0.3439 0.14351 0.24875 0.0
N51 N 0.3845 0.11087 0.25507 0.0
C52 C 0.38024 0.11223 0.23213 0.0
C53 C 0.35547 0.13149 0.22838 0.0
C54 C 0.36203 0.12969 0.26492 0.0
Co55 Co 0.2603 0.27463 0.25241 0.0
C56 C 0.27787 0.12639 0.26461 0.0
H57 H 0.34618 0.13495 0.21174 0.0
O58 O 0.24483 0.36956 0.25059 0.0
O59 O 0.28508 0.30405 0.27808 0.0
O60 O 0.23566 0.24626 0.27849 0.0
O61 O 0.23583 0.23961 0.22745 0.0
O62 O 0.20374 0.31284 0.22825 0.0
O63 O 0.31604 0.22782 0.27316 0.0
O64 O 0.27579 0.17954 0.25088 0.0
O65 O 0.3162 0.23406 0.22681 0.0
O66 O 0.20516 0.32428 0.27419 0.0
O67 O 0.22036 0.44511 0.26899 0.0
O68 O 0.2845 0.30868 0.22702 0.0
O69 O 0.30076 0.10667 0.26999 0.0
C70 C 0.21453 0.27438 0.28492 0.0
C71 C 0.35723 0.12969 0.29054 0.0
H72 H 0.33671 0.12702 0.29487 0.0
H73 H 0.36489 0.17688 0.29798 0.0
H74 H 0.36726 0.08674 0.29885 0.0
C75 C 0.30662 0.27741 0.28397 0.0
C76 C 0.21378 0.25929 0.22041 0.0
H77 H 0.17301 0.41013 0.2119 0.0
H78 H 0.15058 0.44518 0.30129 0.0
H79 H 0.16259 0.36212 0.29599 0.0
H80 H 0.18396 0.43246 0.29529 0.0
C81 C 0.1644 0.41565 0.29095 0.0
C82 C 0.24312 0.42378 0.26385 0.0
C83 C 0.30594 0.28743 0.219 0.0
H84 H 0.12482 0.44295 0.22045 0.0
H85 H 0.39405 0.09926 0.21891 0.0
Co86 Co 0.71108 0.87746 0.2488 0.0
N87 N 0.67659 0.89943 0.24839 0.0
C88 C 0.66461 0.9077 0.228 0.0
N89 N 0.6359 0.93128 0.25474 0.0
C90 C 0.65865 0.91485 0.26457 0.0
C91 C 0.63979 0.92652 0.23179 0.0
Co92 Co 0.81085 0.66623 0.24995 0.0
N93 N 0.84521 0.64359 0.24983 0.0
N94 N 0.88548 0.61023 0.25673 0.0
C95 C 0.88148 0.60869 0.23379 0.0
C96 C 0.85685 0.62899 0.22965 0.0
C97 C 0.86318 0.63105 0.26623 0.0
Co98 Co 0.76096 0.77188 0.25222 0.0
C99 C 0.77909 0.62407 0.26464 0.0
H100 H 0.84772 0.63172 0.2129 0.0
O101 O 0.74492 0.86626 0.25015 0.0
O102 O 0.78527 0.8026 0.27812 0.0
O103 O 0.73633 0.7429 0.27819 0.0
O104 O 0.737 0.73557 0.22705 0.0
O105 O 0.70435 0.80699 0.22783 0.0
O106 O 0.81645 0.72652 0.27414 0.0
O107 O 0.77706 0.67753 0.25101 0.0
O108 O 0.81781 0.73456 0.22812 0.0
O109 O 0.70542 0.81965 0.2737 0.0
O110 O 0.71983 0.94109 0.26824 0.0
O111 O 0.7852 0.80628 0.22694 0.0
O112 O 0.80198 0.60477 0.27027 0.0
C113 C 0.71508 0.7704 0.28454 0.0
C114 C 0.85857 0.63421 0.29182 0.0
H115 H 0.83803 0.63291 0.29625 0.0
H116 H 0.86692 0.68152 0.29858 0.0
H117 H 0.86839 0.59169 0.30061 0.0
C118 C 0.80664 0.77616 0.28462 0.0
C119 C 0.71485 0.75417 0.21991 0.0
H120 H 0.67358 0.90142 0.21129 0.0
H121 H 0.65359 0.96169 0.29789 0.0
H122 H 0.65662 0.87162 0.29835 0.0
H123 H 0.68438 0.92247 0.29406 0.0
C124 C 0.66381 0.91826 0.29009 0.0
C125 C 0.74276 0.92064 0.2633 0.0
C126 C 0.8073 0.78701 0.21986 0.0
H127 H 0.62566 0.93676 0.21857 0.0
H128 H 0.89541 0.59341 0.22096 0.0
Co129 Co 0.05811 0.62843 0.5002 0.0
N130 N 0.09205 0.65228 0.49636 0.0
C131 C 0.10433 0.65531 0.47591 0.0
N132 N 0.13191 0.69092 0.50205 0.0
C133 C 0.10916 0.67525 0.51202 0.0
C134 C 0.12873 0.6781 0.47936 0.0
Co135 Co 0.96098 0.41143 0.49815 0.0
N136 N 0.92694 0.38585 0.49741 0.0
N137 N 0.88669 0.35135 0.50381 0.0
C138 C 0.89119 0.34902 0.48095 0.0
C139 C 0.91582 0.37006 0.47711 0.0
C140 C 0.90872 0.37317 0.51354 0.0
Co141 Co 1.00962 0.52032 0.50209 0.0
C142 C 0.99311 0.37045 0.51238 0.0
H143 H 0.92526 0.37308 0.46049 0.0
O144 O 0.02474 0.61569 0.50318 0.0
O145 O 0.98538 0.54494 0.52884 0.0
O146 O 0.03584 0.49089 0.52722 0.0
O147 O 0.03243 0.48775 0.47599 0.0
O148 O 0.06452 0.55801 0.47882 0.0
O149 O 0.95456 0.46855 0.52334 0.0
O150 O 0.99452 0.42543 0.49946 0.0
O151 O 0.95333 0.48119 0.47726 0.0
O152 O 0.06622 0.57171 0.52437 0.0
O153 O 0.04698 0.67884 0.47758 0.0
O154 O 0.98459 0.55692 0.47775 0.0
O155 O 0.97047 0.34846 0.51769 0.0
C156 C 0.05682 0.51994 0.5342 0.0
C157 C 0.91294 0.37842 0.53909 0.0
H158 H 0.90948 0.43126 0.54432 0.0
H159 H 0.8996 0.34527 0.54875 0.0
H160 H 0.93281 0.36507 0.54378 0.0
C161 C 0.96408 0.51687 0.53477 0.0
C162 C 0.05461 0.50647 0.46975 0.0
H163 H 0.09588 0.64312 0.45938 0.0
H164 H 0.11265 0.73313 0.54344 0.0
H165 H 0.10782 0.64384 0.54736 0.0
H166 H 0.08142 0.69599 0.5386 0.0
C167 C 0.10235 0.68826 0.53679 0.0
C168 C 0.02551 0.66618 0.48813 0.0
C169 C 0.96299 0.53598 0.47004 0.0
H170 H 0.14307 0.6853 0.46607 0.0
H171 H 0.87754 0.33333 0.46796 0.0
Co172 Co 0.21012 0.87836 0.74895 0.0
N173 N 0.17573 0.90132 0.74818 0.0
C174 C 0.1636 0.90988 0.72783 0.0
N175 N 0.13478 0.92912 0.75476 0.0
C176 C 0.15771 0.91463 0.76444 0.0
C177 C 0.13849 0.92604 0.7318 0.0
Co178 Co 0.3094 0.66516 0.74946 0.0
N179 N 0.34377 0.64194 0.7493 0.0
N180 N 0.38444 0.61367 0.7568 0.0
C181 C 0.3816 0.6184 0.73378 0.0
C182 C 0.35663 0.63476 0.72924 0.0
C183 C 0.36119 0.62735 0.76595 0.0
Co184 Co 0.25983 0.77199 0.75225 0.0
C185 C 0.27741 0.623 0.76376 0.0
H186 H 0.34832 0.64145 0.71228 0.0
O187 O 0.24392 0.86656 0.75058 0.0
O188 O 0.28424 0.80075 0.77848 0.0
O189 O 0.23486 0.74222 0.77793 0.0
O190 O 0.23601 0.73741 0.72668 0.0
O191 O 0.20334 0.80876 0.72767 0.0
O192 O 0.31492 0.72308 0.77441 0.0
O193 O 0.27564 0.67737 0.75054 0.0
O194 O 0.31675 0.73542 0.7285 0.0
O195 O 0.20413 0.81967 0.77369 0.0
O196 O 0.21879 0.94099 0.76881 0.0
O197 O 0.28435 0.80763 0.72738 0.0
O198 O 0.3002 0.60204 0.76896 0.0
C199 C 0.21362 0.76981 0.78435 0.0
C200 C 0.35571 0.62964 0.79139 0.0
H201 H 0.3364 0.61012 0.79535 0.0
H202 H 0.35654 0.68277 0.79708 0.0
H203 H 0.36993 0.60061 0.80148 0.0
C204 C 0.30534 0.77276 0.78507 0.0
C205 C 0.21389 0.75627 0.71957 0.0
H206 H 0.17251 0.90416 0.71107 0.0
H207 H 0.14811 0.93855 0.80004 0.0
H208 H 0.16046 0.85567 0.79496 0.0
H209 H 0.18169 0.9264 0.79462 0.0
C210 C 0.16225 0.90927 0.78996 0.0
C211 C 0.24174 0.9206 0.76387 0.0
C212 C 0.30657 0.78862 0.72053 0.0
H213 H 0.12399 0.9351 0.71881 0.0
H214 H 0.39658 0.61018 0.72116 0.0
Co215 Co 0.80715 0.15621 0.74875 0.0
N216 N 0.84116 0.13063 0.74768 0.0
C217 C 0.85181 0.11299 0.72734 0.0
N218 N 0.88142 0.09576 0.75369 0.0
C219 C 0.85965 0.11882 0.7636 0.0
C220 C 0.87645 0.09178 0.73094 0.0
Co221 Co 0.70989 0.37497 0.74853 0.0
N222 N 0.6759 0.40055 0.74731 0.0
N223 N 0.63557 0.43516 0.75319 0.0
C224 C 0.64051 0.438 0.7304 0.0
C225 C 0.66519 0.41696 0.72688 0.0
C226 C 0.65742 0.41296 0.7632 0.0
Co227 Co 0.75848 0.26553 0.7521 0.0
C228 C 0.74163 0.41486 0.76383 0.0
H229 H 0.67494 0.41438 0.71041 0.0
O230 O 0.77352 0.17008 0.75052 0.0
O231 O 0.73342 0.23797 0.77794 0.0
O232 O 0.7833 0.29299 0.77809 0.0
O233 O 0.78304 0.29946 0.727 0.0
O234 O 0.81445 0.22426 0.72709 0.0
O235 O 0.70299 0.31605 0.77315 0.0
O236 O 0.74348 0.36097 0.75042 0.0
O237 O 0.70268 0.30672 0.727 0.0
O238 O 0.81392 0.21547 0.77324 0.0
O239 O 0.79817 0.09513 0.76907 0.0
O240 O 0.73419 0.23186 0.72669 0.0
O241 O 0.71882 0.43637 0.7687 0.0
C242 C 0.80459 0.26505 0.78419 0.0
C243 C 0.66122 0.40701 0.78878 0.0
H244 H 0.68107 0.4193 0.7938 0.0
H245 H 0.65736 0.3542 0.79385 0.0
H246 H 0.64795 0.44064 0.79831 0.0
C247 C 0.71222 0.26631 0.7841 0.0
C248 C 0.80466 0.27832 0.71942 0.0
H249 H 0.84202 0.11472 0.71089 0.0
H250 H 0.8361 0.11359 0.7943 0.0
H251 H 0.86931 0.09329 0.79888 0.0
H252 H 0.85962 0.17922 0.79384 0.0
C253 C 0.85591 0.12607 0.78915 0.0
C254 C 0.77537 0.11634 0.76404 0.0
C255 C 0.71251 0.25295 0.71918 0.0
H256 H 0.88978 0.07478 0.71785 0.0
H257 H 0.62713 0.454 0.71723 0.0
Co258 Co 0.56031 0.12569 0.50086 0.0
N259 N 0.59482 0.14814 0.5019 0.0
C260 C 0.60784 0.15562 0.48192 0.0
N261 N 0.63568 0.17455 0.5096 0.0
C262 C 0.6123 0.16149 0.51867 0.0
C263 C 0.63284 0.17073 0.48656 0.0
Co264 Co 0.46061 0.91757 0.49738 0.0
N265 N 0.42644 0.89369 0.49624 0.0
N266 N 0.38568 0.86133 0.50148 0.0
C267 C 0.39049 0.8639 0.47865 0.0
C268 C 0.41537 0.88332 0.47553 0.0
C269 C 0.40794 0.87909 0.51189 0.0
Co270 Co 0.51027 0.0218 0.50143 0.0
C271 C 0.49262 0.87389 0.51086 0.0
H272 H 0.42497 0.88924 0.45908 0.0
O273 O 0.52704 0.11431 0.50066 0.0
O274 O 0.48538 0.05027 0.5274 0.0
O275 O 0.53393 0.98832 0.52751 0.0
O276 O 0.53485 0.98814 0.47627 0.0
O277 O 0.56767 0.05947 0.47826 0.0
O278 O 0.45447 0.97343 0.52283 0.0
O279 O 0.49372 0.92994 0.4987 0.0
O280 O 0.45359 0.98912 0.47692 0.0
O281 O 0.56539 0.06313 0.52402 0.0
O282 O 0.55038 0.1843 0.52226 0.0
O283 O 0.48665 0.05959 0.47615 0.0
O284 O 0.47 0.85279 0.51678 0.0
C285 C 0.55545 1.01331 0.53417 0.0
C286 C 0.41224 0.87879 0.53749 0.0
H287 H 0.40961 0.93081 0.54397 0.0
H288 H 0.3986 0.84477 0.54642 0.0
H289 H 0.43195 0.86298 0.54179 0.0
C290 C 0.4642 0.02225 0.53386 0.0
C291 C 0.55711 1.00765 0.46956 0.0
H292 H 0.5996 0.15025 0.46489 0.0
H293 H 0.60747 0.21554 0.55035 0.0
H294 H 0.62154 0.13386 0.55359 0.0
H295 H 0.58758 0.14257 0.54838 0.0
C296 C 0.60668 0.16272 0.54413 0.0
C297 C 0.52808 0.16813 0.51395 0.0
C298 C 0.46434 0.04181 0.4691 0.0
H299 H 0.64784 0.17902 0.47396 0.0
H300 H 0.37685 0.85271 0.46512 0.0
Co301 Co 0.56028 0.62859 1.00173 0.0
N302 N 0.59475 0.65218 1.00288 0.0
C303 C 0.60859 0.65761 0.98329 0.0
N304 N 0.63523 0.67999 0.01167 0.0
C305 C 0.61147 0.66773 0.02005 0.0
C306 C 0.63339 0.67357 0.98862 0.0
Co307 Co 0.46104 0.41827 1.00034 0.0
N308 N 0.42676 0.39379 1.00015 0.0
N309 N 0.38646 0.35783 1.00601 0.0
C310 C 0.39073 0.36219 0.98311 0.0
C311 C 0.41529 0.38352 0.97963 0.0
C312 C 0.40873 0.37711 0.01612 0.0
Co313 Co 0.51046 0.52375 1.00301 0.0
C314 C 0.49334 0.37601 0.01356 0.0
H315 H 0.4245 0.38994 0.96303 0.0
O316 O 0.527 0.61624 1.00139 0.0
O317 O 0.4857 0.55418 0.02878 0.0
O318 O 0.53443 0.49228 0.02922 0.0
O319 O 0.53505 0.48888 0.97813 0.0
O320 O 0.5682 0.55929 0.98021 0.0
O321 O 0.455 0.47682 0.02475 0.0
O322 O 0.4941 0.43134 1.00101 0.0
O323 O 0.45371 0.48762 0.97888 0.0
O324 O 0.56521 0.56951 0.02615 0.0
O325 O 0.54976 0.69005 0.02187 0.0
O326 O 0.48646 0.5593 0.97763 0.0
O327 O 0.47094 0.35613 0.02059 0.0
C328 C 0.55546 0.51927 0.03628 0.0
C329 C 0.41346 0.37519 0.04169 0.0
H330 H 0.43406 0.37419 0.04589 0.0
H331 H 0.4051 0.4209 0.04962 0.0
H332 H 0.404 0.33058 0.04952 0.0
C333 C 0.46448 0.52674 0.03528 0.0
C334 C 0.55755 0.50723 0.97168 0.0
H335 H 0.60106 0.65009 0.96608 0.0
H336 H 0.61974 0.69299 0.05582 0.0
H337 H 0.6017 0.61731 0.05142 0.0
H338 H 0.58657 0.69757 0.04795 0.0
C339 C 0.60458 0.66946 0.04522 0.0
C340 C 0.52755 0.67122 0.01411 0.0
C341 C 0.46425 0.54021 0.97064 0.0
H342 H 0.64896 0.68033 0.97648 0.0
H343 H 0.37705 0.34989 0.96973 0.0
H344 H 0.04146 0.07443 0.0762 0.0
H345 H 0.06958 0.09679 0.10907 0.0
H346 H 0.12772 0.97145 0.07832 0.0
H347 H 0.10001 0.95292 0.0447 0.0
H348 H 0.09306 0.0399 0.14247 0.0
H349 H 0.17048 0.13152 0.08512 0.0
H350 H 0.13952 0.10885 0.07432 0.0
H351 H 0.16285 0.04446 0.08044 0.0
C352 C 0.05984 0.04931 0.07687 0.0
C353 C 0.06802 1.01007 0.05797 0.0
C354 C 0.07624 0.06306 0.09564 0.0
C355 C 0.1015 0.03807 0.09625 0.0
C356 C 0.1089 0.99405 0.07824 0.0
H357 H 0.22803 0.14778 0.19369 0.0
H358 H 0.2019 0.08677 0.16502 0.0
C359 C 0.09265 0.98148 0.0592 0.0
C360 C 0.11993 0.06058 0.11514 0.0
H361 H 0.17895 0.13219 0.12476 0.0
C362 C 0.11182 0.0599 0.1384 0.0
C363 C 0.14481 0.0867 0.11047 0.0
C364 C 0.15494 0.09351 0.08624 0.0
C365 C 0.12731 0.08482 0.15659 0.0
C366 C 0.15179 0.11244 0.15173 0.0
C367 C 0.16032 0.11108 0.12871 0.0
C368 C 0.1679 0.14753 0.16983 0.0
C369 C 0.11723 0.0809 0.18099 0.0
C370 C 0.15799 0.2029 0.18204 0.0
C371 C 0.17289 0.23793 0.19825 0.0
C372 C 0.19847 0.21945 0.20293 0.0
C373 C 0.20852 0.16385 0.19071 0.0
C374 C 0.19351 0.12879 0.17426 0.0
H375 H 0.103 0.03967 0.1829 0.0
H376 H 0.13291 0.07257 0.19359 0.0
H377 H 0.10754 0.12904 0.18534 0.0
H378 H 0.13868 0.22007 0.17877 0.0
H379 H 0.16414 0.28001 0.20715 0.0
H380 H 0.91813 0.08689 0.04315 0.0
H381 H 0.89046 0.06588 0.07662 0.0
H382 H 0.95332 0.96939 0.11161 0.0
H383 H 0.98109 0.99336 0.07863 0.0
H384 H 0.87563 0.94689 0.09036 0.0
H385 H 0.92313 0.06171 0.16575 0.0
H386 H 0.93227 0.08236 0.13652 0.0
H387 H 0.94467 1.00769 0.15036 0.0
C388 C 0.9265 0.06543 0.05862 0.0
C389 C 0.95224 0.04448 0.05843 0.0
C390 C 0.91044 0.05192 0.07768 0.0
C391 C 0.91949 1.01596 0.09705 0.0
C392 C 0.94565 0.99866 0.09742 0.0
H393 H 0.85777 0.77313 0.20819 0.0
H394 H 0.88251 0.83248 0.17888 0.0
C395 C 0.96178 1.0132 0.07851 0.0
C396 C 0.90122 0.99027 0.11544 0.0
H397 H 0.8929 0.97341 0.17407 0.0
C398 C 0.87929 0.95386 0.10864 0.0
C399 C 0.90561 0.9985 0.13951 0.0
C400 C 0.92755 0.04029 0.14846 0.0
C401 C 0.86249 0.92396 0.12493 0.0
C402 C 0.86737 0.93055 0.14893 0.0
C403 C 0.88897 0.96792 0.15576 0.0
C404 C 0.85141 0.89543 0.16714 0.0
C405 C 0.84015 0.88313 0.11628 0.0
C406 C 0.82537 0.91093 0.17086 0.0
C407 C 0.81092 0.87696 0.18802 0.0
C408 C 0.82207 0.82603 0.20177 0.0
C409 C 0.84819 0.81135 0.198 0.0
C410 C 0.86256 0.84562 0.18115 0.0
H411 H 0.84171 0.87201 0.09751 0.0
H412 H 0.83866 0.83473 0.12586 0.0
H413 H 0.82222 0.9118 0.11922 0.0
H414 H 0.81621 0.94967 0.16058 0.0
H415 H 0.791 0.89016 0.19035 0.0
H416 H 0.03939 0.40192 0.44053 0.0
H417 H 0.06535 0.34216 0.41143 0.0
H418 H 0.13028 0.46542 0.42904 0.0
H419 H 0.1051 0.52269 0.45829 0.0
H420 H 0.08963 0.38337 0.3727 0.0
H421 H 0.16347 0.28454 0.43149 0.0
H422 H 0.13409 0.32098 0.44201 0.0
H423 H 0.16068 0.37424 0.43424 0.0
C424 C 0.05925 0.416 0.4383 0.0
C425 C 0.06986 0.46812 0.45184 0.0
C426 C 0.07415 0.38173 0.42156 0.0
C427 C 0.10017 0.39793 0.41807 0.0
C428 C 0.1106 0.4501 0.43153 0.0
H429 H 0.22773 0.32639 0.32636 0.0
H430 H 0.19864 0.34803 0.35858 0.0
C431 C 0.09586 0.48397 0.44817 0.0
C432 C 0.11636 0.36282 0.39997 0.0
H433 H 0.17481 0.28825 0.39129 0.0
C434 C 0.10813 0.36183 0.37683 0.0
C435 C 0.14053 0.33376 0.40508 0.0
C436 C 0.15008 0.32772 0.42959 0.0
C437 C 0.12371 0.33659 0.35873 0.0
C438 C 0.1485 0.31024 0.36369 0.0
C439 C 0.15621 0.30893 0.38703 0.0
C440 C 0.16738 0.28815 0.34515 0.0
C441 C 0.11351 0.34127 0.33441 0.0
C442 C 0.16067 0.24354 0.32713 0.0
C443 C 0.17754 0.23114 0.30849 0.0
C444 C 0.202 0.26088 0.30769 0.0
C445 C 0.20949 0.30048 0.32671 0.0
C446 C 0.19252 0.3139 0.34507 0.0
H447 H 0.0982 0.37986 0.33284 0.0
H448 H 0.12881 0.35404 0.322 0.0
H449 H 0.10522 0.2919 0.32942 0.0
H450 H 0.14192 0.22057 0.32683 0.0
H451 H 0.17072 0.20227 0.29386 0.0
H452 H 0.79001 0.73832 0.32706 0.0
H453 H 0.81771 0.71302 0.36015 0.0
H454 H 0.88064 0.81123 0.32594 0.0
H455 H 0.8531 0.83476 0.29254 0.0
H456 H 0.86515 0.63081 0.35079 0.0
H457 H 0.88611 0.87066 0.3968 0.0
H458 H 0.85698 0.85862 0.38052 0.0
H459 H 0.88669 0.87082 0.36565 0.0
C460 C 0.80932 0.75812 0.32713 0.0
C461 C 0.81895 0.79087 0.30734 0.0
C462 C 0.82536 0.74246 0.34596 0.0
C463 C 0.85143 0.76016 0.34578 0.0
C464 C 0.8606 0.79777 0.32686 0.0
H465 H 0.97775 0.64478 0.44207 0.0
H466 H 0.9524 0.70088 0.41161 0.0
C467 C 0.84467 0.81224 0.30781 0.0
C468 C 0.86947 0.73177 0.36369 0.0
H469 H 0.90741 0.77291 0.41001 0.0
C470 C 0.87429 0.66201 0.36377 0.0
C471 C 0.88206 0.77218 0.38037 0.0
C472 C 0.87776 0.84728 0.38109 0.0
C473 C 0.89096 0.63172 0.37997 0.0
C474 C 0.90275 0.67152 0.3974 0.0
C475 C 0.89843 0.74175 0.39695 0.0
C476 C 0.9184 0.64026 0.41669 0.0
C477 C 0.89614 0.5571 0.37782 0.0
C478 C 0.90786 0.58873 0.43041 0.0
C479 C 0.9223 0.55649 0.44761 0.0
C480 C 0.9479 0.57494 0.45216 0.0
C481 C 0.95826 0.62858 0.43911 0.0
C482 C 0.94369 0.66081 0.42162 0.0
H483 H 0.8934 0.53946 0.35976 0.0
H484 H 0.91589 0.54433 0.38329 0.0
H485 H 0.8825 0.52897 0.38891 0.0
H486 H 0.88827 0.57294 0.42778 0.0
H487 H 0.91321 0.51654 0.45739 0.0
H488 H 0.10535 0.4735 0.53943 0.0
H489 H 0.133 0.49568 0.57266 0.0
H490 H 0.06773 0.56638 0.61116 0.0
H491 H 0.04006 0.54161 0.57817 0.0
H492 H 0.14428 0.61211 0.58922 0.0
H493 H 0.10226 0.47215 0.66245 0.0
H494 H 0.09294 0.45594 0.63298 0.0
H495 H 0.07888 0.52488 0.64884 0.0
C496 C 0.09662 0.48952 0.5555 0.0
C497 C 0.07014 0.5028 0.55628 0.0
C498 C 0.11262 0.50385 0.57446 0.0
C499 C 0.1028 0.53266 0.59488 0.0
C500 C 0.07609 0.54248 0.59614 0.0
H501 H 0.16276 0.7638 0.71001 0.0
H502 H 0.1381 0.70603 0.68032 0.0
C503 C 0.06003 0.52739 0.57722 0.0
C504 C 0.12066 0.55843 0.61361 0.0
H505 H 0.13048 0.56333 0.67232 0.0
C506 C 0.14137 0.6003 0.60733 0.0
C507 C 0.11726 0.54399 0.63749 0.0
C508 C 0.09679 0.49622 0.64582 0.0
C509 C 0.15794 0.6292 0.62398 0.0
C510 C 0.15409 0.61614 0.64783 0.0
C511 C 0.13364 0.5737 0.65414 0.0
C512 C 0.16991 0.64952 0.66648 0.0
C513 C 0.17898 0.67564 0.61593 0.0
C514 C 0.19633 0.63691 0.66919 0.0
C515 C 0.21073 0.66987 0.68658 0.0
C516 C 0.19916 0.71707 0.70154 0.0
C517 C 0.17266 0.72861 0.69884 0.0
C518 C 0.15833 0.6952 0.68179 0.0
H519 H 0.17653 0.69081 0.59759 0.0
H520 H 0.17964 0.72181 0.62677 0.0
H521 H 0.19764 0.64949 0.61766 0.0
H522 H 0.20585 0.60141 0.65788 0.0
H523 H 0.23097 0.65926 0.68804 0.0
H524 H 0.85287 0.25084 0.70349 0.0
H525 H 0.87838 0.31076 0.67503 0.0
H526 H 0.81766 0.45494 0.66566 0.0
H527 H 0.79152 0.39432 0.69451 0.0
H528 H 0.83899 0.41039 0.62354 0.0
H529 H 0.91695 0.48771 0.68205 0.0
H530 H 0.91059 0.39889 0.68347 0.0
H531 H 0.88647 0.45795 0.6926 0.0
C532 C 0.84469 0.29535 0.69556 0.0
C533 C 0.81984 0.31723 0.70158 0.0
C534 C 0.8596 0.33018 0.67927 0.0
C535 C 0.85041 0.38856 0.66829 0.0
C536 C 0.82547 0.41047 0.67393 0.0
H537 H 0.92085 0.59009 0.5452 0.0
H538 H 0.89264 0.57094 0.57854 0.0
C539 C 0.81046 0.37563 0.69048 0.0
C540 C 0.86669 0.42422 0.65044 0.0
H541 H 0.92628 0.492 0.6416 0.0
C542 C 0.85795 0.42913 0.62755 0.0
C543 C 0.89155 0.44889 0.65544 0.0
C544 C 0.90189 0.44879 0.67977 0.0
C545 C 0.87362 0.45417 0.60948 0.0
C546 C 0.89892 0.47708 0.61428 0.0
C547 C 0.90721 0.47438 0.63745 0.0
C548 C 0.91765 0.49933 0.59561 0.0
C549 C 0.8631 0.45196 0.58526 0.0
C550 C 0.94244 0.47142 0.59471 0.0
C551 C 0.95914 0.48534 0.57618 0.0
C552 C 0.95173 0.52763 0.5578 0.0
C553 C 0.92762 0.55905 0.55935 0.0
C554 C 0.91106 0.54622 0.57818 0.0
H555 H 0.84693 0.41592 0.58375 0.0
H556 H 0.85588 0.50265 0.58042 0.0
H557 H 0.87805 0.43689 0.57279 0.0
H558 H 0.94846 0.43542 0.60771 0.0
H559 H 0.97708 0.45816 0.57522 0.0
H560 H 0.17011 0.69654 0.79367 0.0
H561 H 0.14155 0.71401 0.82687 0.0
H562 H 0.19788 0.84398 0.85799 0.0
H563 H 0.22678 0.8229 0.82561 0.0
H564 H 0.17498 0.78529 0.89097 0.0
H565 H 0.09664 0.87022 0.83326 0.0
H566 H 0.10452 0.78281 0.82979 0.0
H567 H 0.12741 0.84666 0.82214 0.0
C568 C 0.17691 0.72581 0.80821 0.0
C569 C 0.20123 0.75629 0.80721 0.0
C570 C 0.16016 0.73776 0.82698 0.0
C571 C 0.1668 0.78279 0.84492 0.0
C572 C 0.19181 0.80946 0.84459 0.0
H573 H 0.10445 0.02472 0.95526 0.0
H574 H 0.12914 0.9653 0.92621 0.0
C575 C 0.20867 0.79639 0.82612 0.0
C576 C 0.14799 0.8043 0.86364 0.0
H577 H 0.08856 0.87378 0.87321 0.0
C578 C 0.1561 0.80446 0.88688 0.0
C579 C 0.12289 0.82892 0.85891 0.0
C580 C 0.11237 0.83276 0.83469 0.0
C581 C 0.14054 0.82924 0.90502 0.0
C582 C 0.11596 0.85611 0.90014 0.0
C583 C 0.10733 0.85359 0.87715 0.0
C584 C 0.1 0.89166 0.91828 0.0
C585 C 0.15069 0.82613 0.92939 0.0
C586 C 0.07466 0.87211 0.9235 0.0
C587 C 0.06006 0.90685 0.94039 0.0
C588 C 0.0703 0.96279 0.95229 0.0
C589 C 0.09558 0.98218 0.94673 0.0
C590 C 0.11003 0.94757 0.93008 0.0
H591 H 0.16505 0.78525 0.93138 0.0
H592 H 0.16025 0.87457 0.93357 0.0
H593 H 0.13507 0.81778 0.94209 0.0
H594 H 0.06619 0.82958 0.91461 0.0
H595 H 0.04075 0.89018 0.944 0.0
H596 H 0.84844 0.33641 0.79398 0.0
H597 H 0.87646 0.31781 0.82743 0.0
H598 H 0.81938 0.18819 0.85779 0.0
H599 H 0.79097 0.2106 0.82519 0.0
H600 H 0.84196 0.24497 0.89115 0.0
H601 H 0.92105 0.16139 0.83404 0.0
H602 H 0.91287 0.24847 0.83023 0.0
H603 H 0.89022 0.18375 0.82283 0.0
C604 C 0.84137 0.3069 0.80839 0.0
C605 C 0.81696 0.27704 0.80714 0.0
C606 C 0.85781 0.29429 0.82731 0.0
C607 C 0.85081 0.24907 0.84513 0.0
C608 C 0.82574 0.22285 0.8445 0.0
H609 H 0.91369 1.00664 0.95606 0.0
H610 H 0.88849 0.0647 0.92692 0.0
C611 C 0.80916 0.23664 0.82589 0.0
C612 C 0.86932 0.22692 0.864 0.0
H613 H 0.92873 0.15785 0.87393 0.0
C614 C 0.86091 0.22606 0.88718 0.0
C615 C 0.89448 0.20244 0.85945 0.0
C616 C 0.90518 0.19846 0.8353 0.0
C617 C 0.8763 0.20097 0.9054 0.0
C618 C 0.901 0.17468 0.90067 0.0
C619 C 0.90988 0.17769 0.87775 0.0
C620 C 0.91707 0.1399 0.91889 0.0
C621 C 0.86587 0.20327 0.9297 0.0
C622 C 0.94224 0.1608 0.92403 0.0
C623 C 0.95707 0.12699 0.94094 0.0
C624 C 0.94727 0.07063 0.95295 0.0
C625 C 0.92218 0.04966 0.94744 0.0
C626 C 0.90746 0.08345 0.93075 0.0
H627 H 0.85116 0.24332 0.93162 0.0
H628 H 0.85669 0.15425 0.9338 0.0
H629 H 0.8813 0.21237 0.94249 0.0
H630 H 0.95039 0.20374 0.91509 0.0
H631 H 0.97621 0.14494 0.94453 0.0
H632 H 0.72731 0.14638 0.69024 0.0
H633 H 0.70169 0.09122 0.6598 0.0
H634 H 0.63736 0.2167 0.67746 0.0
H635 H 0.66257 0.27233 0.70699 0.0
H636 H 0.65768 1.0177 0.65838 0.0
H637 H 0.64002 0.25248 0.60971 0.0
H638 H 0.66299 0.24828 0.63288 0.0
H639 H 0.62954 0.2609 0.63906 0.0
C640 C 0.70774 0.16237 0.68757 0.0
C641 C 0.6974 0.21508 0.70104 0.0
C642 C 0.693 0.13063 0.6701 0.0
C643 C 0.66754 0.15068 0.66561 0.0
C644 C 0.65706 0.20137 0.6797 0.0
H645 H 0.53824 0.04195 0.57745 0.0
H646 H 0.56592 0.06837 0.61049 0.0
C647 C 0.67168 0.23317 0.69687 0.0
C648 C 0.65162 0.1194 0.64649 0.0
H649 H 0.61245 0.15968 0.60083 0.0
C650 C 0.64804 0.0489 0.6457 0.0
C651 C 0.63894 0.15922 0.62952 0.0
C652 C 0.64328 0.23428 0.62765 0.0
C653 C 0.63167 1.01813 0.62921 0.0
C654 C 0.61825 0.05841 0.61301 0.0
C655 C 0.62223 0.12852 0.61346 0.0
C656 C 0.6005 0.02932 0.595 0.0
C657 C 0.62833 0.94267 0.62947 0.0
C658 C 0.61023 0.99584 0.57546 0.0
C659 C 0.59431 0.98043 0.55652 0.0
C660 C 0.56806 0.99697 0.55665 0.0
C661 C 0.558 0.02559 0.57701 0.0
C662 C 0.57401 0.04207 0.59581 0.0
H663 H 0.63753 0.91892 0.64474 0.0
H664 H 0.60768 0.92965 0.62942 0.0
H665 H 0.63695 0.92098 0.61359 0.0
H666 H 0.63056 0.98619 0.57407 0.0
H667 H 0.60304 0.96131 0.54085 0.0
H668 H 0.47864 0.97167 0.57539 0.0
H669 H 0.45056 0.95012 0.60844 0.0
H670 H 0.39208 0.07299 0.57709 0.0
H671 H 0.41975 0.09083 0.54335 0.0
H672 H 0.42679 1.00856 0.64156 0.0
H673 H 0.34984 0.91187 0.58481 0.0
H674 H 0.38083 0.93421 0.57394 0.0
H675 H 0.35737 0.99872 0.57948 0.0
C676 C 0.46019 0.99648 0.57595 0.0
C677 C 0.45191 0.03482 0.55686 0.0
C678 C 0.44382 0.98316 0.59483 0.0
C679 C 0.41849 1.00765 0.59534 0.0
C680 C 0.41096 0.05079 0.57711 0.0
H681 H 0.29185 0.898 0.69293 0.0
H682 H 0.31788 0.95872 0.66403 0.0
C683 C 0.4272 0.06298 0.55799 0.0
C684 C 0.4001 0.98558 0.61437 0.0
H685 H 0.34136 0.91275 0.62444 0.0
C686 C 0.40813 0.98779 0.63763 0.0
C687 C 0.37534 0.9585 0.60987 0.0
C688 C 0.36532 0.95011 0.58568 0.0
C689 C 0.39267 0.96349 0.65598 0.0
C690 C 0.36833 0.93482 0.6513 0.0
C691 C 0.35988 0.93465 0.62826 0.0
C692 C 0.35229 0.90021 0.66963 0.0
C693 C 0.40262 0.96927 0.68036 0.0
C694 C 0.36248 0.84624 0.6824 0.0
C695 C 0.34766 0.81143 0.69877 0.0
C696 C 0.32185 0.82865 0.70303 0.0
C697 C 0.31154 0.88293 0.69029 0.0
C698 C 0.32649 0.9178 0.67369 0.0
H699 H 0.41653 1.01136 0.68198 0.0
H700 H 0.38685 0.97745 0.6929 0.0
H701 H 0.41269 0.92193 0.68505 0.0
H702 H 0.38196 0.8299 0.67942 0.0
H703 H 0.35663 0.77045 0.70809 0.0
H704 H 0.54217 0.39813 0.94449 0.0
H705 H 0.56739 0.33711 0.91518 0.0
H706 H 0.63178 0.46651 0.92873 0.0
H707 H 0.60723 0.52621 0.9579 0.0
H708 H 0.58992 0.38029 0.87489 0.0
H709 H 0.66625 0.28524 0.93197 0.0
H710 H 0.63682 0.31995 0.9431 0.0
H711 H 0.66253 0.37485 0.9344 0.0
C712 C 0.56175 0.41334 0.94135 0.0
C713 C 0.57241 0.46769 0.95379 0.0
C714 C 0.57623 0.3783 0.9245 0.0
C715 C 0.60189 0.39588 0.91982 0.0
C716 C 0.6124 0.45018 0.93219 0.0
H717 H 0.7267 0.31859 0.82515 0.0
H718 H 0.69874 0.342 0.85804 0.0
C719 C 0.59804 0.4851 0.94886 0.0
C720 C 0.61751 0.36028 0.90145 0.0
H721 H 0.67567 0.28548 0.89143 0.0
C722 C 0.60854 0.35875 0.87857 0.0
C723 C 0.6419 0.33169 0.90599 0.0
C724 C 0.65234 0.32731 0.93024 0.0
C725 C 0.62356 0.33331 0.86013 0.0
C726 C 0.64845 0.30672 0.86448 0.0
C727 C 0.65694 0.30607 0.88761 0.0
C728 C 0.66662 0.28378 0.84544 0.0
C729 C 0.61282 0.3389 0.83606 0.0
C730 C 0.65903 0.23963 0.82755 0.0
C731 C 0.67521 0.22642 0.80848 0.0
C732 C 0.6999 0.25459 0.80711 0.0
C733 C 0.70825 0.29383 0.82592 0.0
C734 C 0.69194 0.30822 0.8447 0.0
H735 H 0.5973 0.37705 0.835 0.0
H736 H 0.62788 0.35311 0.82361 0.0
H737 H 0.60465 0.28961 0.83082 0.0
H738 H 0.64015 0.21743 0.82774 0.0
H739 H 0.66774 0.19785 0.79404 0.0
H740 H 0.47901 0.65103 0.9436 0.0
H741 H 0.45346 0.71078 0.91411 0.0
H742 H 0.39035 0.57637 0.92695 0.0
H743 H 0.41515 0.51789 0.95615 0.0
H744 H 0.43061 0.6663 0.87312 0.0
H745 H 0.35482 0.75678 0.93176 0.0
H746 H 0.38482 0.72395 0.94228 0.0
H747 H 0.35944 0.66742 0.93413 0.0
C748 C 0.45965 0.63443 0.94023 0.0
C749 C 0.4494 0.57914 0.95254 0.0
C750 C 0.44499 0.66869 0.92327 0.0
C751 C 0.41956 0.64932 0.91837 0.0
C752 C 0.40953 0.59398 0.93055 0.0
H753 H 0.29212 0.72004 0.82648 0.0
H754 H 0.32118 0.69818 0.85867 0.0
C755 C 0.42405 0.55986 0.94728 0.0
C756 C 0.40348 0.68466 0.90026 0.0
H757 H 0.34455 0.75639 0.89146 0.0
C758 C 0.41192 0.68679 0.87718 0.0
C759 C 0.379 0.71199 0.90529 0.0
C760 C 0.36907 0.71563 0.92975 0.0
C761 C 0.39627 0.7116 0.85903 0.0
C762 C 0.37126 0.73672 0.86393 0.0
C763 C 0.36334 0.73684 0.88724 0.0
C764 C 0.35238 0.75871 0.84535 0.0
C765 C 0.40661 0.70752 0.83472 0.0
C766 C 0.35902 0.80371 0.82737 0.0
C767 C 0.34217 0.81621 0.80874 0.0
C768 C 0.31773 0.78628 0.80791 0.0
C769 C 0.3103 0.74621 0.82687 0.0
C770 C 0.32727 0.73265 0.84521 0.0
H771 H 0.42213 0.6695 0.83319 0.0
H772 H 0.39144 0.6943 0.82226 0.0
H773 H 0.4147 0.7572 0.82978 0.0
H774 H 0.37772 0.827 0.8271 0.0
H775 H 0.34898 0.84539 0.79414 0.0
H776 H 0.5418 0.56676 0.07829 0.0
H777 H 0.57113 0.58849 0.11025 0.0
H778 H 0.62832 0.465 0.07723 0.0
H779 H 0.59933 0.44714 0.04447 0.0
H780 H 0.59569 0.53211 0.14237 0.0
H781 H 0.67116 0.62466 0.08296 0.0
H782 H 0.64097 0.59506 0.0723 0.0
H783 H 0.66554 0.53592 0.08003 0.0
C784 C 0.56019 0.54157 0.07832 0.0
C785 C 0.56776 0.50345 0.05896 0.0
C786 C 0.57732 0.55511 0.09654 0.0
C787 C 0.60268 0.53077 0.09617 0.0
C788 C 0.60942 0.48708 0.07788 0.0
H789 H 0.72998 0.64356 0.193 0.0
H790 H 0.70448 0.58258 0.16381 0.0
C791 C 0.59244 0.47481 0.05936 0.0
C792 C 0.62174 0.55346 0.11447 0.0
H793 H 0.68074 0.62666 0.12284 0.0
C794 C 0.61425 0.55266 0.13789 0.0
C795 C 0.64648 0.57987 0.10921 0.0
C796 C 0.65645 0.58455 0.08478 0.0
C797 C 0.63003 0.57813 0.15572 0.0
C798 C 0.6542 0.60671 0.15035 0.0
C799 C 0.66226 0.60523 0.12715 0.0
C800 C 0.67029 0.64279 0.16825 0.0
C801 C 0.62055 0.57387 0.18031 0.0
C802 C 0.66005 0.69778 0.18043 0.0
C803 C 0.67453 0.73257 0.19699 0.0
C804 C 0.70005 0.71438 0.20205 0.0
C805 C 0.71049 0.65936 0.18977 0.0
C806 C 0.69587 0.62441 0.17297 0.0
H807 H 0.60659 0.53212 0.18252 0.0
H808 H 0.63656 0.56611 0.19262 0.0
H809 H 0.6107 0.62164 0.18485 0.0
H810 H 0.64072 0.71455 0.17697 0.0
H811 H 0.66546 0.77416 0.20589 0.0
H812 H 0.30137 0.42142 0.20447 0.0
H813 H 0.32696 0.48037 0.17476 0.0
H814 H 0.36837 0.29696 0.16114 0.0
H815 H 0.34332 0.23854 0.19043 0.0
H816 H 0.38449 0.49287 0.1716 0.0
H817 H 0.34284 0.35989 0.09617 0.0
H818 H 0.32664 0.36482 0.12372 0.0
H819 H 0.35251 0.30639 0.11968 0.0
C820 C 0.31578 0.3935 0.19502 0.0
C821 C 0.32006 0.32473 0.20007 0.0
C822 C 0.33056 0.42745 0.17807 0.0
C823 C 0.34968 0.3933 0.16542 0.0
C824 C 0.35373 0.32475 0.17034 0.0
H825 H 0.48074 0.50546 0.0796 0.0
H826 H 0.45254 0.48218 0.11259 0.0
C827 C 0.33929 0.29126 0.18732 0.0
C828 C 0.36565 0.42811 0.14716 0.0
H829 H 0.3805 0.42308 0.08941 0.0
C830 C 0.38343 0.47802 0.1536 0.0
C831 C 0.36448 0.40931 0.12353 0.0
C832 C 0.34548 0.35758 0.1152 0.0
C833 C 0.40032 0.50789 0.13732 0.0
C834 C 0.39965 0.48755 0.1138 0.0
C835 C 0.38135 0.439 0.10732 0.0
C836 C 0.41779 0.51467 0.0956 0.0
C837 C 0.41868 0.56137 0.14547 0.0
C838 C 0.40823 0.54337 0.07509 0.0
C839 C 0.42449 0.55739 0.05627 0.0
C840 C 0.4509 0.54353 0.05729 0.0
C841 C 0.46078 0.5196 0.07841 0.0
C842 C 0.44447 0.5053 0.09729 0.0
H843 H 0.4123 0.58444 0.16199 0.0
H844 H 0.4377 0.53813 0.1484 0.0
H845 H 0.42088 0.6018 0.13232 0.0
H846 H 0.38785 0.55103 0.07305 0.0
H847 H 0.41598 0.57324 0.04008 0.0
H848 H 0.60819 1.01734 0.45981 0.0
H849 H 0.63314 0.96009 0.4302 0.0
H850 H 0.56594 0.85279 0.40801 0.0
H851 H 0.5405 0.91038 0.43802 0.0
H852 H 0.64239 0.82114 0.42284 0.0
H853 H 0.59415 0.93769 0.34734 0.0
H854 H 0.58978 0.96859 0.37639 0.0
H855 H 0.57342 0.89377 0.36709 0.0
C856 C 0.59846 0.98183 0.44867 0.0
C857 C 0.57202 0.96945 0.4514 0.0
C858 C 0.61296 0.94867 0.43167 0.0
C859 C 0.60162 0.90231 0.41648 0.0
C860 C 0.57526 0.88892 0.41921 0.0
H861 H 0.66765 0.7173 0.29134 0.0
H862 H 0.64001 0.73943 0.3247 0.0
C863 C 0.56068 0.92174 0.43651 0.0
C864 C 0.61767 0.86876 0.39801 0.0
H865 H 0.62672 0.859 0.33936 0.0
C866 C 0.63883 0.82918 0.40459 0.0
C867 C 0.6133 0.8788 0.37406 0.0
C868 C 0.59158 0.9224 0.36567 0.0
C869 C 0.65545 0.79953 0.38813 0.0
C870 C 0.65146 0.81084 0.36414 0.0
C871 C 0.63003 0.84964 0.35759 0.0
C872 C 0.66955 0.78533 0.3456 0.0
C873 C 0.67689 0.75532 0.39674 0.0
C874 C 0.69592 0.80032 0.3462 0.0
C875 C 0.71199 0.78539 0.32727 0.0
C876 C 0.70219 0.75577 0.30703 0.0
C877 C 0.67616 0.73743 0.30694 0.0
C878 C 0.66015 0.75153 0.32594 0.0
H879 H 0.6722 0.73283 0.41383 0.0
H880 H 0.68116 0.71393 0.38442 0.0
H881 H 0.69435 0.7864 0.39893 0.0
H882 H 0.70385 0.8279 0.36063 0.0
H883 H 0.73157 0.80322 0.32761 0.0
H884 H 0.41319 0.03564 0.45981 0.0
H885 H 0.38859 0.09369 0.43015 0.0
H886 H 0.45646 0.19761 0.40756 0.0
H887 H 0.48156 0.13922 0.43767 0.0
H888 H 0.38011 0.23275 0.42215 0.0
H889 H 0.42794 0.11163 0.34723 0.0
H890 H 0.43193 0.08134 0.37641 0.0
H891 H 0.44874 0.15531 0.36692 0.0
C892 C 0.42313 0.07081 0.44864 0.0
C893 C 0.44965 0.08195 0.45127 0.0
C894 C 0.40884 0.10434 0.43159 0.0
C895 C 0.42047 0.14982 0.41622 0.0
C896 C 0.44691 0.16219 0.4189 0.0
H897 H 0.35441 0.32935 0.28997 0.0
H898 H 0.38225 0.30869 0.32329 0.0
C899 C 0.46129 0.129 0.43628 0.0
C900 C 0.40462 0.18324 0.39757 0.0
H901 H 0.39541 0.18998 0.33889 0.0
C902 C 0.38361 0.22368 0.40394 0.0
C903 C 0.40889 0.17184 0.37368 0.0
C904 C 0.43045 0.1273 0.36551 0.0
C905 C 0.36704 0.2528 0.38734 0.0
C906 C 0.37089 0.24002 0.36342 0.0
C907 C 0.39219 0.20044 0.35706 0.0
C908 C 0.35275 0.26468 0.34478 0.0
C909 C 0.34577 0.29796 0.39573 0.0
C910 C 0.32634 0.25027 0.34569 0.0
C911 C 0.31016 0.2644 0.32679 0.0
C912 C 0.31989 0.29256 0.30623 0.0
C913 C 0.34597 0.31031 0.30579 0.0
C914 C 0.36209 0.29706 0.32478 0.0
H915 H 0.35063 0.32145 0.41259 0.0
H916 H 0.34153 0.33864 0.3831 0.0
H917 H 0.32824 0.26737 0.3983 0.0
H918 H 0.31843 0.22375 0.36041 0.0
H919 H 0.29053 0.24708 0.32743 0.0
H920 H 0.98158 0.80282 0.97765 0.0
H921 H 0.98416 0.68164 0.97507 0.0
H922 H 0.03807 0.67961 0.03163 0.0
H923 H 0.03138 0.80115 0.03681 0.0
H924 H 1.00534 0.58545 0.96697 0.0
H925 H 0.99702 0.54942 0.06115 0.0
H926 H 0.99611 0.63206 0.04857 0.0
H927 H 0.02639 0.5916 0.05493 0.0
C928 C 0.99464 0.77681 0.98916 0.0
C929 C 1.00626 0.81211 1.00744 0.0
C930 C 0.99597 0.70636 0.98785 0.0
C931 C 0.0103 0.66855 1.00394 0.0
C932 C 0.02523 0.70536 0.01999 0.0
H933 H 0.0287 0.23857 0.97265 0.0
H934 H 0.02382 0.3591 0.97029 0.0
C935 C 0.02235 0.77584 0.02238 0.0
C936 C 1.00845 0.59186 1.00415 0.0
H937 H 1.00752 0.45257 0.03926 0.0
C938 C 1.00518 0.5573 0.98303 0.0
C939 C 1.00755 0.55246 0.02476 0.0
C940 C 1.00663 0.58345 0.04858 0.0
C941 C 1.00067 0.48713 0.98193 0.0
C942 C 1.00262 0.44704 1.00227 0.0
C943 C 1.00614 0.48134 0.02338 0.0
C944 C 1.00224 0.3703 1.00214 0.0
C945 C 0.99234 0.45862 0.95895 0.0
C946 C 0.99225 0.33289 0.02097 0.0
C947 C 0.99679 0.26299 0.02309 0.0
C948 C 0.01012 0.22772 1.00582 0.0
C949 C 0.01736 0.26342 0.98583 0.0
C950 C 0.0145 0.33358 0.98447 0.0
H951 H 0.98056 0.49588 0.94931 0.0
H952 H 1.00943 0.44812 0.94815 0.0
H953 H 0.98086 0.41192 0.96097 0.0
H954 H 0.98233 0.35821 0.0349 0.0
H955 H 0.99167 0.2377 0.03904 0.0
H956 H 0.26128 0.49737 0.2998 0.0
H957 H 0.2668 0.61975 0.29803 0.0
H958 H 0.26748 0.61047 0.22367 0.0
H959 H 0.26163 0.48783 0.22548 0.0
H960 H 0.29794 0.71743 0.28029 0.0
H961 H 0.205 0.72719 0.23437 0.0
H962 H 0.21727 0.65048 0.24696 0.0
H963 H 0.2293 0.6799 0.21962 0.0
C964 C 0.26418 0.52069 0.28306 0.0
C965 C 0.26131 0.48175 0.26281 0.0
C966 C 0.26674 0.59142 0.28203 0.0
C967 C 0.2665 0.62571 0.2607 0.0
C968 C 0.26686 0.5862 0.24043 0.0
H969 H 0.26092 0.05962 0.22627 0.0
H970 H 0.25641 0.9365 0.22495 0.0
C971 C 0.26436 0.51527 0.24147 0.0
C972 C 0.26409 0.70196 0.25993 0.0
H973 H 0.2256 0.83146 0.24095 0.0
C974 C 0.28209 0.74208 0.27165 0.0
C975 C 0.24338 0.73535 0.24881 0.0
C976 C 0.22248 0.69619 0.2369 0.0
C977 C 0.28024 0.81337 0.27228 0.0
C978 C 0.25939 0.84672 0.26138 0.0
C979 C 0.24153 0.80674 0.24944 0.0
C980 C 0.25623 0.92276 0.26205 0.0
C981 C 0.30114 0.85245 0.28424 0.0
C982 C 0.25526 0.95776 0.28321 0.0
C983 C 0.25733 0.02861 0.28395 0.0
C984 C 0.26034 0.06698 0.26358 0.0
C985 C 0.25799 0.03257 0.24234 0.0
C986 C 0.25601 0.96147 0.24159 0.0
H987 H 0.31891 0.82216 0.28595 0.0
H988 H 0.30572 0.89959 0.27472 0.0
H989 H 0.29468 0.86623 0.30189 0.0
H990 H 0.2546 0.93001 0.29932 0.0
H991 H 0.2596 0.05265 0.30064 0.0
H992 H 0.76099 0.98673 0.22529 0.0
H993 H 0.76729 0.10931 0.22404 0.0
H994 H 0.76627 0.11548 0.29844 0.0
H995 H 0.76027 0.99349 0.29962 0.0
H996 H 0.73211 0.19909 0.23876 0.0
H997 H 0.82101 0.25173 0.28681 0.0
H998 H 0.81318 0.16834 0.27656 0.0
H999 H 0.79964 0.19944 0.30313 0.0
C1000 C 0.7639 1.01344 0.24141 0.0
C1001 C 0.76079 0.97907 0.26259 0.0
C1002 C 0.76682 0.08433 0.24069 0.0
C1003 C 0.76719 0.12308 0.26113 0.0
C1004 C 0.76654 0.08791 0.28231 0.0
H1005 H 0.76146 0.54882 0.30049 0.0
H1006 H 0.75587 0.42646 0.29877 0.0
C1007 C 0.76354 1.01727 0.28301 0.0
C1008 C 0.76554 0.19958 0.26045 0.0
H1009 H 0.79216 0.34438 0.2823 0.0
C1010 C 0.74547 0.23071 0.24811 0.0
C1011 C 0.78267 0.24206 0.2727 0.0
C1012 C 0.80548 0.21376 0.28535 0.0
C1013 C 0.7417 0.30162 0.24822 0.0
C1014 C 0.75864 0.34398 0.26073 0.0
C1015 C 0.77886 0.31285 0.27284 0.0
C1016 C 0.75617 0.42033 0.26146 0.0
C1017 C 0.719 0.33019 0.23549 0.0
C1018 C 0.7565 0.45984 0.24114 0.0
C1019 C 0.75898 0.53083 0.24215 0.0
C1020 C 0.76159 0.56451 0.2635 0.0
C1021 C 0.75874 0.52547 0.28374 0.0
C1022 C 0.7562 0.45474 0.28275 0.0
H1023 H 0.70388 0.29157 0.23292 0.0
H1024 H 0.71061 0.37367 0.24491 0.0
H1025 H 0.72524 0.34785 0.21818 0.0
H1026 H 0.75693 0.4356 0.22439 0.0
H1027 H 0.76204 0.55822 0.22617 0.0
H1028 H 0.01604 0.72901 0.52947 0.0
H1029 H 0.01219 0.85128 0.53456 0.0
H1030 H 1.00295 0.87574 0.46106 0.0
H1031 H 1.00701 0.75364 0.45596 0.0
H1032 H 0.04187 0.95459 0.47735 0.0
H1033 H 0.95694 0.9944 0.5329 0.0
H1034 H 0.97928 0.93433 0.54435 0.0
H1035 H 0.96264 0.91603 0.5179 0.0
C1036 C 0.01163 0.75984 0.51452 0.0
C1037 C 0.01124 0.73056 0.49232 0.0
C1038 C 1.00982 0.83045 0.51741 0.0
C1039 C 1.00737 0.87392 0.49821 0.0
C1040 C 1.00492 0.84416 0.47624 0.0
H1041 H 0.01072 0.31132 0.47297 0.0
H1042 H 0.01687 0.18962 0.46936 0.0
C1043 C 1.00671 0.77378 0.47336 0.0
C1044 C 1.00978 0.94975 0.50061 0.0
H1045 H 0.98429 0.08848 0.52751 0.0
C1046 C 0.02915 0.98376 0.48826 0.0
C1047 C 0.99352 0.98874 0.51497 0.0
C1048 C 0.97177 0.95677 0.52814 0.0
C1049 C 0.03288 0.05437 0.49007 0.0
C1050 C 0.01645 0.09357 0.50427 0.0
C1051 C 0.99713 0.0594 0.51668 0.0
C1052 C 0.01828 0.16977 0.50616 0.0
C1053 C 0.05494 0.08576 0.47717 0.0
C1054 C 0.01816 0.20146 0.52795 0.0
C1055 C 0.01483 0.27173 0.53 0.0
C1056 C 0.01137 0.31288 0.51034 0.0
C1057 C 0.01422 0.28221 0.48851 0.0
C1058 C 0.01734 0.2117 0.48645 0.0
H1059 H 0.07036 0.0484 0.47391 0.0
H1060 H 0.04811 0.1042 0.46015 0.0
H1061 H 0.06317 0.12898 0.48682 0.0
H1062 H 0.01898 0.17127 0.54355 0.0
H1063 H 0.012 0.2928 0.54708 0.0
H1064 H 0.25874 0.99542 0.80001 0.0
H1065 H 0.26422 0.11781 0.79814 0.0
H1066 H 0.26654 0.10756 0.72383 0.0
H1067 H 0.26079 0.98486 0.72572 0.0
H1068 H 0.29592 0.21504 0.78075 0.0
H1069 H 0.20393 0.22495 0.73332 0.0
H1070 H 0.21583 0.14834 0.74626 0.0
H1071 H 0.22847 0.17721 0.71907 0.0
C1072 C 0.26197 1.01854 0.78328 0.0
C1073 C 0.25964 0.97928 0.76305 0.0
C1074 C 0.26452 0.08927 0.78219 0.0
C1075 C 0.26476 0.12329 0.76082 0.0
C1076 C 0.26556 0.08351 0.74061 0.0
H1077 H 0.26037 0.55657 0.72543 0.0
H1078 H 0.25554 0.43354 0.72436 0.0
C1079 C 0.26309 1.01256 0.74171 0.0
C1080 C 0.26245 0.19957 0.7599 0.0
H1081 H 0.2245 0.32915 0.74009 0.0
C1082 C 0.28027 0.23971 0.77183 0.0
C1083 C 0.24201 0.233 0.74839 0.0
C1084 C 0.2213 0.19384 0.7362 0.0
C1085 C 0.27851 0.31104 0.7723 0.0
C1086 C 0.25791 0.34444 0.76103 0.0
C1087 C 0.24023 0.30442 0.74888 0.0
C1088 C 0.25486 0.42056 0.76149 0.0
C1089 C 0.29926 0.35008 0.7845 0.0
C1090 C 0.25369 0.45604 0.78254 0.0
C1091 C 0.25594 0.52688 0.78314 0.0
C1092 C 0.25935 0.56476 0.76271 0.0
C1093 C 0.25713 0.52994 0.74154 0.0
C1094 C 0.25499 0.45886 0.74093 0.0
H1095 H 0.31696 0.31965 0.7865 0.0
H1096 H 0.30407 0.39705 0.77496 0.0
H1097 H 0.29252 0.36414 0.80203 0.0
H1098 H 0.25275 0.42865 0.79872 0.0
H1099 H 0.2581 0.55121 0.79979 0.0
H1100 H 0.75933 0.48868 0.79993 0.0
H1101 H 0.76454 0.61116 0.79814 0.0
H1102 H 0.76603 0.6016 0.72379 0.0
H1103 H 0.76055 0.47884 0.72561 0.0
H1104 H 0.79562 0.70952 0.78048 0.0
H1105 H 0.70294 0.71672 0.73408 0.0
H1106 H 0.71537 0.64043 0.74684 0.0
H1107 H 0.7275 0.66982 0.71953 0.0
C1108 C 0.76236 0.51199 0.78319 0.0
C1109 C 0.75978 0.47293 0.76294 0.0
C1110 C 0.76473 0.58276 0.78216 0.0
C1111 C 0.76461 0.61694 0.76081 0.0
C1112 C 0.76531 0.57738 0.74056 0.0
H1113 H 0.75811 0.04998 0.72579 0.0
H1114 H 0.7537 0.92687 0.72467 0.0
C1115 C 0.763 0.50641 0.74161 0.0
C1116 C 0.76195 0.69311 0.75998 0.0
H1117 H 0.72313 0.82153 0.74069 0.0
C1118 C 0.77974 0.73373 0.77175 0.0
C1119 C 0.74119 0.72591 0.74873 0.0
C1120 C 0.7205 0.68615 0.73675 0.0
C1121 C 0.77765 0.80498 0.7723 0.0
C1122 C 0.75675 0.83775 0.76127 0.0
C1123 C 0.73908 0.79725 0.74929 0.0
C1124 C 0.75336 0.91372 0.76179 0.0
C1125 C 0.79836 0.84465 0.7843 0.0
C1126 C 0.75221 0.94904 0.78288 0.0
C1127 C 0.75422 1.01992 0.78351 0.0
C1128 C 0.75738 0.05794 0.76308 0.0
C1129 C 0.75508 0.02321 0.7419 0.0
C1130 C 0.75318 0.9521 0.74126 0.0
H1131 H 0.81621 0.81476 0.78615 0.0
H1132 H 0.80286 0.89175 0.77471 0.0
H1133 H 0.79175 0.85856 0.80189 0.0
H1134 H 0.75151 0.92154 0.79905 0.0
H1135 H 0.75643 0.04421 0.80015 0.0
H1136 H 0.5274 0.80601 0.53814 0.0
H1137 H 0.53703 0.68559 0.5342 0.0
H1138 H 0.49576 0.68357 0.46954 0.0
H1139 H 0.49057 0.80403 0.47172 0.0
H1140 H 0.51217 0.5904 0.53856 0.0
H1141 H 0.53975 0.54823 0.44869 0.0
H1142 H 0.53906 0.63213 0.46033 0.0
H1143 H 0.5107 0.59518 0.44745 0.0
C1144 C 0.52238 0.78051 0.52223 0.0
C1145 C 0.50906 0.81546 0.50487 0.0
C1146 C 0.5271 0.71066 0.52022 0.0
C1147 C 0.51731 0.67297 0.50142 0.0
C1148 C 0.50497 0.70935 0.4837 0.0
H1149 H 0.48957 0.24056 0.53575 0.0
H1150 H 0.48265 0.36219 0.53087 0.0
C1151 C 0.50192 0.77946 0.48496 0.0
C1152 C 0.51723 0.59622 0.50158 0.0
H1153 H 0.51526 0.45791 0.4663 0.0
C1154 C 0.51374 0.56173 0.5227 0.0
C1155 C 0.51945 0.55627 0.48126 0.0
C1156 C 0.52778 0.58511 0.45829 0.0
C1157 C 0.51261 0.49055 0.52409 0.0
C1158 C 0.51201 0.45121 0.50348 0.0
C1159 C 0.51523 0.48598 0.48236 0.0
C1160 C 0.51052 0.37445 0.50326 0.0
C1161 C 0.51349 0.45945 0.54791 0.0
C1162 C 0.52511 0.33731 0.48718 0.0
C1163 C 0.52662 0.26686 0.48834 0.0
C1164 C 0.51489 0.23083 0.50643 0.0
C1165 C 0.49867 0.26645 0.52145 0.0
C1166 C 0.49564 0.33697 0.51921 0.0
H1167 H 0.52285 0.4937 0.56052 0.0
H1168 H 0.49372 0.45066 0.55417 0.0
H1169 H 0.52421 0.41117 0.54794 0.0
H1170 H 0.53693 0.36255 0.47449 0.0
H1171 H 0.53977 0.24136 0.47678 0.0
H1172 H 0.53547 0.74199 0.97558 0.0
H1173 H 0.53234 0.86318 0.97326 0.0
H1174 H 0.48251 0.86334 0.03288 0.0
H1175 H 0.48991 0.74193 0.03754 0.0
H1176 H 0.51054 0.9596 0.96672 0.0
H1177 H 0.52558 0.99274 0.06029 0.0
H1178 H 0.52566 0.91052 0.04742 0.0
H1179 H 0.49587 0.9505 0.05574 0.0
C1180 C 0.52314 0.76756 0.98784 0.0
C1181 C 0.51298 0.73182 1.00675 0.0
C1182 C 0.52152 0.83803 0.98668 0.0
C1183 C 0.50829 0.87532 1.00366 0.0
C1184 C 0.49457 0.838 0.02047 0.0
H1185 H 0.48754 0.30619 0.97472 0.0
H1186 H 0.49201 0.18563 0.97191 0.0
C1187 C 0.4978 0.76756 0.02261 0.0
C1188 C 0.51009 0.95202 1.00398 0.0
H1189 H 0.51346 0.09021 0.03939 0.0
C1190 C 0.51182 0.98726 0.98281 0.0
C1191 C 0.51244 0.99077 0.02461 0.0
C1192 C 0.51512 0.95903 0.04823 0.0
C1193 C 0.51616 0.0575 0.98166 0.0
C1194 C 0.51564 0.09694 1.0022 0.0
C1195 C 0.51369 0.06195 0.02337 0.0
C1196 C 0.51596 0.17367 1.00228 0.0
C1197 C 0.52278 0.08683 0.95831 0.0
C1198 C 0.52734 0.21062 0.02053 0.0
C1199 C 0.52309 0.28056 0.02302 0.0
C1200 C 0.50865 0.31631 1.00662 0.0
C1201 C 0.49975 0.28095 0.98715 0.0
C1202 C 0.5024 0.21081 0.98551 0.0
H1203 H 0.53385 0.04997 0.94786 0.0
H1204 H 0.50493 0.09759 0.94863 0.0
H1205 H 0.53434 0.13354 0.95978 0.0
H1206 H 0.53824 0.18494 0.03377 0.0
H1207 H 0.52951 0.30558 0.03861 0.0
H1208 H 0.36104 0.40713 0.04365 0.0
H1209 H 0.31897 0.37117 0.05759 0.0
H1210 H 0.31548 0.22329 1.00296 0.0
H1211 H 0.35812 0.25471 0.99054 0.0
H1212 H 0.27658 0.38361 0.03901 0.0
H1213 H 0.28557 0.11141 0.05113 0.0
H1214 H 0.31344 0.16406 0.04769 0.0
H1215 H 0.29752 0.12843 0.02278 0.0
C1216 C 0.35181 0.36477 0.03539 0.0
C1217 C 0.36312 0.33293 0.01622 0.0
C1218 C 0.32757 0.34474 0.04317 0.0
C1219 C 0.31409 0.29316 0.03175 0.0
C1220 C 0.32566 0.26111 0.0128 0.0
H1221 H 0.16272 0.29043 0.98889 0.0
H1222 H 0.20562 0.31749 1.00216 0.0
C1223 C 0.34995 0.28002 1.00539 0.0
C1224 C 0.28685 0.27824 0.03731 0.0
H1225 H 0.24383 0.14932 0.03515 0.0
C1226 C 0.26951 0.3322 0.03883 0.0
C1227 C 0.27728 0.21144 0.03815 0.0
C1228 C 0.29459 0.15082 0.04015 0.0
C1229 C 0.243 0.32122 0.03871 0.0
C1230 C 0.23355 0.25483 0.03567 0.0
C1231 C 0.25083 0.20061 0.03664 0.0
C1232 C 0.20651 0.24107 0.02902 0.0
C1233 C 0.22557 0.38132 0.04149 0.0
C1234 C 0.19287 0.18687 0.03877 0.0
C1235 C 0.16863 0.16953 0.03038 0.0
C1236 C 0.15732 0.20701 0.01251 0.0
C1237 C 0.17083 0.26143 1.00296 0.0
C1238 C 0.19524 0.27767 0.01087 0.0
H1239 H 0.23403 0.41848 0.05364 0.0
H1240 H 0.22338 0.40708 0.02457 0.0
H1241 H 0.20641 0.36658 0.04804 0.0
H1242 H 0.20126 0.15669 0.0524 0.0
H1243 H 0.15915 0.12534 0.03717 0.0
H1244 H 0.85931 0.7415 1.00496 0.0
H1245 H 0.81608 0.71708 0.01879 0.0
H1246 H 0.816 0.90304 0.05743 0.0
H1247 H 0.85929 0.92806 0.04318 0.0
H1248 H 0.79191 0.70889 0.06405 0.0
H1249 H 0.75701 0.92288 1.00989 0.0
H1250 H 0.78883 0.88911 1.00668 0.0
H1251 H 0.78107 0.94038 0.03125 0.0
C1252 C 0.85021 0.77642 0.01676 0.0
C1253 C 0.86255 0.83651 0.02303 0.0
C1254 C 0.82561 0.76238 0.02473 0.0
C1255 C 0.81275 0.80852 0.03896 0.0
C1256 C 0.82555 0.86698 0.04634 0.0
H1257 H 0.64522 0.78835 0.03843 0.0
H1258 H 0.68746 0.82233 0.05308 0.0
C1259 C 0.85032 0.88093 0.03839 0.0
C1260 C 0.78516 0.79798 0.04362 0.0
H1261 H 0.72648 0.84894 0.02473 0.0
C1262 C 0.77751 0.74027 0.05589 0.0
C1263 C 0.7664 0.83919 0.03307 0.0
C1264 C 0.77356 0.90123 0.01936 0.0
C1265 C 0.7517 0.72079 0.05687 0.0
C1266 C 0.73321 0.75919 0.04481 0.0
C1267 C 0.74065 0.81943 0.03394 0.0
C1268 C 0.70699 0.73352 0.04032 0.0
C1269 C 0.74461 0.65823 0.07027 0.0
C1270 C 0.70385 0.67201 0.02863 0.0
C1271 C 0.67985 0.65276 0.02045 0.0
C1272 C 0.65854 0.6945 0.02378 0.0
C1273 C 0.66136 0.75479 0.0362 0.0
C1274 C 0.68544 0.77422 0.04442 0.0
H1275 H 0.75782 0.65035 0.08506 0.0
H1276 H 0.72471 0.66096 0.07693 0.0
H1277 H 0.74625 0.61363 0.05879 0.0
H1278 H 0.72021 0.64068 0.02458 0.0
H1279 H 0.67805 0.60663 1.01057 0.0
H1280 H 0.09248 0.36937 0.25055 0.0
H1281 H 0.05011 0.40368 0.26423 0.0
H1282 H 0.08399 0.57105 0.30069 0.0
H1283 H 0.12634 0.53796 0.28608 0.0
H1284 H 0.02715 0.42685 0.30704 0.0
H1285 H 0.03601 0.66335 0.25538 0.0
H1286 H 0.05858 0.59511 0.25269 0.0
H1287 H 0.05965 0.64988 0.27739 0.0
C1288 C 0.0908 0.41272 0.26182 0.0
C1289 C 0.11247 0.45075 0.26749 0.0
C1290 C 0.06671 0.43216 0.2697 0.0
C1291 C 0.06388 0.49034 0.28327 0.0
C1292 C 0.08573 0.52645 0.29002 0.0
H1293 H 0.91265 0.68304 0.2876 0.0
H1294 H 0.95567 0.65614 0.30211 0.0
C1295 C 0.10988 0.50716 0.28195 0.0
C1296 C 0.03781 0.51602 0.28802 0.0
H1297 H 0.99601 0.6385 0.27096 0.0
C1298 C 0.02042 0.47381 0.29957 0.0
C1299 C 0.02908 0.57747 0.27832 0.0
C1300 C 0.04667 0.62404 0.26511 0.0
C1301 C 0.99427 0.48954 0.3005 0.0
C1302 C 0.98536 0.5486 0.28945 0.0
C1303 C 1.00297 0.59327 0.27945 0.0
C1304 C 0.95791 0.5598 0.28465 0.0
C1305 C 0.97626 0.44157 0.31252 0.0
C1306 C 0.94493 0.51435 0.27026 0.0
C1307 C 0.92063 0.52984 0.26194 0.0
C1308 C 0.90881 0.5908 0.26797 0.0
C1309 C 0.92127 0.63515 0.28314 0.0
C1310 C 0.94578 0.61993 0.29133 0.0
H1311 H 0.98622 0.41276 0.32632 0.0
H1312 H 0.95979 0.46883 0.32024 0.0
H1313 H 0.9688 0.40478 0.29975 0.0
H1314 H 0.95417 0.46852 0.2644 0.0
H1315 H 0.91133 0.4953 0.25015 0.0
H1316 H 0.35539 0.75978 0.48786 0.0
H1317 H 0.31184 0.73686 0.5006 0.0
H1318 H 0.31787 0.89582 0.55128 0.0
H1319 H 0.36065 0.92325 0.53659 0.0
H1320 H 0.28977 0.69757 0.53775 0.0
H1321 H 0.2559 0.95852 0.51985 0.0
H1322 H 0.28761 0.9312 0.51231 0.0
H1323 H 0.27992 0.95208 0.5418 0.0
C1324 C 0.34738 0.78972 0.50174 0.0
C1325 C 0.36147 0.84272 0.51148 0.0
C1326 C 0.32256 0.77631 0.50918 0.0
C1327 C 0.31128 0.81515 0.52675 0.0
C1328 C 0.32583 0.86603 0.53737 0.0
H1329 H 0.15386 0.65738 0.54335 0.0
H1330 H 0.19566 0.69487 0.55744 0.0
C1331 C 0.35053 0.88066 0.52942 0.0
C1332 C 0.28385 0.80389 0.53249 0.0
H1333 H 0.22517 0.87891 0.52999 0.0
C1334 C 0.27561 0.73731 0.53625 0.0
C1335 C 0.26537 0.85595 0.53079 0.0
C1336 C 0.27254 0.92832 0.52579 0.0
C1337 C 0.24956 0.72023 0.53606 0.0
C1338 C 0.23109 0.77194 0.5333 0.0
C1339 C 0.23932 0.8393 0.53194 0.0
C1340 C 0.20395 0.75702 0.52753 0.0
C1341 C 0.24239 0.64647 0.53685 0.0
C1342 C 0.19384 0.7831 0.50691 0.0
C1343 C 0.16962 0.76419 0.49941 0.0
C1344 C 0.15495 0.71787 0.51211 0.0
C1345 C 0.16447 0.69397 0.53333 0.0
C1346 C 0.18863 0.71433 0.54117 0.0
H1347 H 0.25919 0.61303 0.53428 0.0
H1348 H 0.23403 0.6345 0.554 0.0
H1349 H 0.22803 0.63437 0.52336 0.0
H1350 H 0.2051 0.81623 0.49602 0.0
H1351 H 0.16267 0.78415 0.48316 0.0
H1352 H 0.85866 0.42886 0.5325 0.0
H1353 H 0.81565 0.40318 0.54747 0.0
H1354 H 0.81796 0.21019 0.51312 0.0
H1355 H 0.86083 0.23582 0.49849 0.0
H1356 H 0.77446 0.3799 0.51888 0.0
H1357 H 0.78844 0.16024 0.57623 0.0
H1358 H 0.81429 0.21601 0.56813 0.0
H1359 H 0.80437 0.14934 0.54902 0.0
C1360 C 0.85015 0.38024 0.52887 0.0
C1361 C 0.86297 0.33371 0.51474 0.0
C1362 C 0.82567 0.36571 0.53729 0.0
C1363 C 0.81384 0.30414 0.53184 0.0
C1364 C 0.82698 0.25713 0.51812 0.0
H1365 H 0.6796 0.1086 0.50321 0.0
H1366 H 0.72207 0.14462 0.51581 0.0
C1367 C 0.8513 0.2719 0.5096 0.0
C1368 C 0.78665 0.29194 0.53768 0.0
H1369 H 0.74655 0.17028 0.55839 0.0
C1370 C 0.76824 0.33514 0.5281 0.0
C1371 C 0.77866 0.23364 0.54978 0.0
C1372 C 0.79751 0.18754 0.56158 0.0
C1373 C 0.74218 0.31844 0.52845 0.0
C1374 C 0.73434 0.2575 0.5391 0.0
C1375 C 0.75259 0.21689 0.5502 0.0
C1376 C 0.70831 0.23007 0.53549 0.0
C1377 C 0.72355 0.3634 0.51579 0.0
C1378 C 0.6864 0.2646 0.54312 0.0
C1379 C 0.6621 0.24404 0.53579 0.0
C1380 C 0.65949 0.18837 0.52099 0.0
C1381 C 0.68128 0.15151 0.51468 0.0
C1382 C 0.70545 0.17197 0.52192 0.0
H1383 H 0.73334 0.40345 0.50566 0.0
H1384 H 0.71154 0.33326 0.50382 0.0
H1385 H 0.7107 0.38821 0.52846 0.0
H1386 H 0.68819 0.30919 0.55379 0.0
H1387 H 0.64562 0.27403 0.54047 0.0
H1388 H 0.90735 0.98043 0.74806 0.0
H1389 H 0.95075 0.95602 0.76146 0.0
H1390 H 0.95335 0.14903 0.79578 0.0
H1391 H 0.90982 0.1736 0.782 0.0
H1392 H 0.99323 0.12739 0.76526 0.0
H1393 H 0.98364 0.90753 0.82331 0.0
H1394 H 0.96643 0.89591 0.79681 0.0
H1395 H 0.95706 0.96215 0.81633 0.0
C1396 C 0.91705 1.01676 0.75892 0.0
C1397 C 0.90533 0.07837 0.7643 0.0
C1398 C 0.94169 1.00266 0.76675 0.0
C1399 C 0.9551 0.05013 0.78002 0.0
C1400 C 0.94316 0.11126 0.7859 0.0
H1401 H 0.1237 0.03137 0.78397 0.0
H1402 H 0.08081 0.06439 0.79731 0.0
C1403 C 0.91836 0.12515 0.77816 0.0
C1404 C 0.98262 0.03918 0.78471 0.0
H1405 H 0.02459 0.91987 0.80393 0.0
C1406 C 1.00022 0.08306 0.77427 0.0
C1407 C 0.9916 0.98133 0.79648 0.0
C1408 C 0.97367 0.93442 0.80907 0.0
C1409 C 0.02638 0.06767 0.77355 0.0
C1410 C 0.03519 1.00741 0.78403 0.0
C1411 C 0.01779 0.96592 0.79586 0.0
C1412 C 0.06148 0.98218 0.77999 0.0
C1413 C 0.04403 0.11339 0.76006 0.0
C1414 C 0.06489 0.92333 0.76689 0.0
C1415 C 0.08926 0.90409 0.75967 0.0
C1416 C 0.11065 0.94294 0.76559 0.0
C1417 C 0.10746 1.0 0.77965 0.0
C1418 C 0.08301 1.0192 0.787 0.0
H1419 H 0.0334 0.15169 0.74985 0.0
H1420 H 0.05682 0.14042 0.77221 0.0
H1421 H 0.05616 0.08359 0.74807 0.0
H1422 H 0.04855 0.89414 0.76123 0.0
H1423 H 0.09141 0.86027 0.74868 0.0
H1424 H 0.60805 0.35986 0.78317 0.0
H1425 H 0.56473 0.38475 0.79742 0.0
H1426 H 0.56537 0.57272 0.75978 0.0
H1427 H 0.60874 0.54842 0.74606 0.0
H1428 H 0.54222 0.57927 0.80554 0.0
H1429 H 0.50495 0.37014 0.75062 0.0
H1430 H 0.52932 0.35005 0.77143 0.0
H1431 H 0.53691 0.4028 0.74715 0.0
C1432 C 0.59912 0.40727 0.77859 0.0
C1433 C 0.61161 0.45265 0.76374 0.0
C1434 C 0.57439 0.42117 0.78652 0.0
C1435 C 0.56184 0.48038 0.77952 0.0
C1436 C 0.57478 0.52691 0.76546 0.0
H1437 H 0.42748 0.68575 0.75438 0.0
H1438 H 0.4699 0.65056 0.76751 0.0
C1439 C 0.5994 0.51296 0.75754 0.0
C1440 C 0.53448 0.49173 0.78468 0.0
H1441 H 0.4751 0.44342 0.76693 0.0
C1442 C 0.52746 0.54884 0.79752 0.0
C1443 C 0.51529 0.45166 0.77431 0.0
C1444 C 0.52182 0.39038 0.75998 0.0
C1445 C 0.50178 0.56892 0.79926 0.0
C1446 C 0.48283 0.53166 0.78744 0.0
C1447 C 0.48968 0.47196 0.77598 0.0
C1448 C 0.45668 0.55831 0.7837 0.0
C1449 C 0.4953 0.63095 0.81315 0.0
C1450 C 0.43512 0.5183 0.78842 0.0
C1451 C 0.41093 0.53841 0.78075 0.0
C1452 C 0.40805 0.59861 0.76826 0.0
C1453 C 0.42939 0.6397 0.76432 0.0
C1454 C 0.45351 0.61982 0.77199 0.0
H1455 H 0.50909 0.63814 0.82753 0.0
H1456 H 0.4965 0.67601 0.8018 0.0
H1457 H 0.47567 0.62803 0.82042 0.0
H1458 H 0.4372 0.47018 0.7971 0.0
H1459 H 0.3947 0.50544 0.78345 0.0
H1460 H 0.61274 0.88335 0.29391 0.0
H1461 H 0.5713 0.91829 0.30935 0.0
H1462 H 0.56295 0.05899 0.25284 0.0
H1463 H 0.60531 0.02962 0.239 0.0
H1464 H 0.54353 0.11206 0.28874 0.0
H1465 H 0.50702 0.84852 0.2845 0.0
H1466 H 0.5323 0.86274 0.30481 0.0
H1467 H 0.53841 0.87055 0.27427 0.0
C1468 C 0.60253 0.92358 0.28534 0.0
C1469 C 0.61245 0.95414 0.26528 0.0
C1470 C 0.5785 0.94249 0.2939 0.0
C1471 C 0.56358 0.9902 0.28201 0.0
C1472 C 0.57393 0.02203 0.26243 0.0
H1473 H 0.41461 1.00971 0.24065 0.0
H1474 H 0.45715 0.98173 0.25436 0.0
C1475 C 0.59809 1.00466 0.25432 0.0
C1476 C 0.53662 1.00509 0.28848 0.0
H1477 H 0.4773 0.93366 0.29071 0.0
C1478 C 0.52901 0.07304 0.28938 0.0
C1479 C 0.51769 0.95406 0.2897 0.0
C1480 C 0.52414 0.87993 0.28812 0.0
C1481 C 0.50313 0.0916 0.28867 0.0
C1482 C 0.48419 0.04048 0.28857 0.0
C1483 C 0.49182 0.97272 0.29048 0.0
C1484 C 0.45712 0.05457 0.2823 0.0
C1485 C 0.49667 0.16545 0.28592 0.0
C1486 C 0.44246 0.10405 0.29359 0.0
C1487 C 0.41835 0.12214 0.28505 0.0
C1488 C 0.40804 0.08899 0.26569 0.0
C1489 C 0.42212 0.03671 0.25542 0.0
C1490 C 0.44638 1.02014 0.26346 0.0
H1491 H 0.51373 0.19625 0.28148 0.0
H1492 H 0.48216 0.17295 0.27216 0.0
H1493 H 0.48883 0.185 0.30242 0.0
H1494 H 0.44995 0.13028 0.3085 0.0
H1495 H 0.40839 0.16377 0.29305 0.0
loop_
_geom_bond_atom_site_label_1
_geom_bond_atom_site_label_2
_geom_bond_distance
_geom_bond_site_symmetry_2
_ccdc_geom_bond_type
Co0 N1 2.034 . S
Co0 O15 2.262 . S
Co0 O19 1.958 . S
Co0 O23 1.950 1_556 S
Co0 O24 2.061 . S
N1 Co0 2.034 . S
N1 C2 1.366 . S
N1 C4 1.332 1_556 S
C2 N1 1.366 . S
C2 C5 1.377 . S
C2 H34 0.931 . S
N3 C4 1.346 . S
N3 C5 1.337 1_554 S
C4 N1 1.332 1_554 S
C4 N3 1.346 . S
C4 C38 1.361 . S
C5 C2 1.377 . S
C5 N3 1.337 1_556 S
C5 H41 0.930 . S
Co6 N7 2.034 . S
Co6 O20 1.950 1_556 S
Co6 O21 2.262 . S
Co6 O22 1.958 . S
Co6 O26 2.061 . S
N7 Co6 2.034 . S
N7 C10 1.366 . S
N7 C11 1.332 1_556 S
N8 C9 1.337 1_554 S
N8 C11 1.346 . S
C9 N8 1.337 1_556 S
C9 C10 1.377 . S
C9 H42 0.930 . S
C10 N7 1.366 . S
C10 C9 1.377 . S
C10 H14 0.931 . S
C11 N7 1.332 1_554 S
C11 N8 1.346 . S
C11 C28 1.361 . S
Co12 O15 2.097 . S
Co12 O16 2.065 1_456 S
Co12 O17 2.065 1_546 S
Co12 O18 2.042 1_545 S
Co12 O21 2.097 1_445 S
Co12 O25 2.042 1_455 S
C13 O21 1.253 . S
C13 O26 1.265 . S
H14 C10 0.931 . S
O15 Co0 2.262 . S
O15 Co12 2.097 . S
O15 C39 1.253 . S
O16 Co12 2.065 1_654 S
O16 C32 1.221 . S
O17 Co12 2.065 1_564 S
O17 C27 1.221 1_565 S
O18 Co12 2.042 1_565 S
O18 C33 1.237 . S
O19 Co0 1.958 . S
O19 C33 1.278 1_545 S
O20 Co6 1.950 1_554 S
O20 C32 1.277 1_565 S
O21 Co6 2.262 . S
O21 Co12 2.097 1_665 S
O21 C13 1.253 . S
O22 Co6 1.958 . S
O22 C40 1.278 1_565 S
O23 Co0 1.950 1_554 S
O23 C27 1.277 . S
O24 Co0 2.061 . S
O24 C39 1.265 . S
O25 Co12 2.042 1_655 S
O25 C40 1.237 . S
O26 Co6 2.061 . S
O26 C13 1.265 . S
C27 O17 1.221 1_545 S
C27 O23 1.277 . S
C28 C11 1.361 . S
C28 H29 0.960 . S
C28 H30 0.961 . S
C28 H31 0.961 . S
H29 C28 0.960 . S
H30 C28 0.961 . S
H31 C28 0.961 . S
C32 O16 1.221 . S
C32 O20 1.277 1_545 S
C33 O18 1.237 . S
C33 O19 1.278 1_565 S
H34 C2 0.931 . S
H35 C38 0.961 . S
H36 C38 0.961 . S
H37 C38 0.960 . S
C38 C4 1.361 . S
C38 H35 0.961 . S
C38 H36 0.961 . S
C38 H37 0.960 . S
C39 O15 1.253 . S
C39 O24 1.265 . S
C40 O22 1.278 1_545 S
C40 O25 1.237 . S
H41 C5 0.930 . S
H42 C9 0.930 . S
Co43 N44 2.034 . S
Co43 O58 2.262 . S
Co43 O62 1.958 . S
Co43 O66 1.950 . S
Co43 O67 2.057 . S
N44 Co43 2.034 . S
N44 C45 1.366 . S
N44 C47 1.332 . S
C45 N44 1.366 . S
C45 C48 1.377 . S
C45 H77 0.931 . S
N46 C47 1.346 . S
N46 C48 1.337 . S
C47 N44 1.332 . S
C47 N46 1.346 . S
C47 C81 1.361 . S
C48 C45 1.377 . S
C48 N46 1.337 . S
C48 H84 0.930 . S
Co49 N50 2.034 . S
Co49 O63 1.950 . S
Co49 O64 2.262 . S
Co49 O65 1.958 . S
Co49 O69 2.057 . S
N50 Co49 2.034 . S
N50 C53 1.366 . S
N50 C54 1.332 . S
N51 C52 1.337 . S
N51 C54 1.346 . S
C52 N51 1.337 . S
C52 C53 1.377 . S
C52 H85 0.930 . S
C53 N50 1.366 . S
C53 C52 1.377 . S
C53 H57 0.931 . S
C54 N50 1.332 . S
C54 N51 1.346 . S
C54 C71 1.361 . S
Co55 O58 2.097 . S
Co55 O59 2.065 . S
Co55 O60 2.065 . S
Co55 O61 2.042 . S
Co55 O64 2.097 . S
Co55 O68 2.042 . S
C56 O64 1.253 . S
C56 O69 1.263 . S
H57 C53 0.931 . S
O58 Co43 2.262 . S
O58 Co55 2.097 . S
O58 C82 1.253 . S
O59 Co55 2.065 . S
O59 C75 1.221 . S
O60 Co55 2.065 . S
O60 C70 1.221 . S
O61 Co55 2.042 . S
O61 C76 1.237 . S
O62 Co43 1.958 . S
O62 C76 1.278 . S
O63 Co49 1.950 . S
O63 C75 1.277 . S
O64 Co49 2.262 . S
O64 Co55 2.097 . S
O64 C56 1.253 . S
O65 Co49 1.958 . S
O65 C83 1.278 . S
O66 Co43 1.950 . S
O66 C70 1.277 . S
O67 Co43 2.057 . S
O67 C82 1.263 . S
O68 Co55 2.042 . S
O68 C83 1.237 . S
O69 Co49 2.057 . S
O69 C56 1.263 . S
C70 O60 1.221 . S
C70 O66 1.277 . S
C71 C54 1.361 . S
C71 H72 0.960 . S
C71 H73 0.961 . S
C71 H74 0.961 . S
H72 C71 0.960 . S
H73 C71 0.961 . S
H74 C71 0.961 . S
C75 O59 1.221 . S
C75 O63 1.277 . S
C76 O61 1.237 . S
C76 O62 1.278 . S
H77 C45 0.931 . S
H78 C81 0.961 . S
H79 C81 0.961 . S
H80 C81 0.960 . S
C81 C47 1.361 . S
C81 H78 0.961 . S
C81 H79 0.961 . S
C81 H80 0.960 . S
C82 O58 1.253 . S
C82 O67 1.263 . S
C83 O65 1.278 . S
C83 O68 1.237 . S
H84 C48 0.930 . S
H85 C52 0.930 . S
Co86 N87 2.034 . S
Co86 O101 2.262 . S
Co86 O105 1.958 . S
Co86 O109 1.950 . S
Co86 O110 2.057 . S
N87 Co86 2.034 . S
N87 C88 1.366 . S
N87 C90 1.332 . S
C88 N87 1.366 . S
C88 C91 1.377 . S
C88 H120 0.931 . S
N89 C90 1.346 . S
N89 C91 1.337 . S
C90 N87 1.332 . S
C90 N89 1.346 . S
C90 C124 1.361 . S
C91 C88 1.377 . S
C91 N89 1.337 . S
C91 H127 0.930 . S
Co92 N93 2.034 . S
Co92 O106 1.950 . S
Co92 O107 2.262 . S
Co92 O108 1.958 . S
Co92 O112 2.057 . S
N93 Co92 2.034 . S
N93 C96 1.366 . S
N93 C97 1.332 . S
N94 C95 1.337 . S
N94 C97 1.346 . S
C95 N94 1.337 . S
C95 C96 1.377 . S
C95 H128 0.930 . S
C96 N93 1.366 . S
C96 C95 1.377 . S
C96 H100 0.931 . S
C97 N93 1.332 . S
C97 N94 1.346 . S
C97 C114 1.361 . S
Co98 O101 2.097 . S
Co98 O102 2.065 . S
Co98 O103 2.065 . S
Co98 O104 2.042 . S
Co98 O107 2.097 . S
Co98 O111 2.042 . S
C99 O107 1.253 . S
C99 O112 1.263 . S
H100 C96 0.931 . S
O101 Co86 2.262 . S
O101 Co98 2.097 . S
O101 C125 1.253 . S
O102 Co98 2.065 . S
O102 C118 1.221 . S
O103 Co98 2.065 . S
O103 C113 1.221 . S
O104 Co98 2.042 . S
O104 C119 1.237 . S
O105 Co86 1.958 . S
O105 C119 1.278 . S
O106 Co92 1.950 . S
O106 C118 1.277 . S
O107 Co92 2.262 . S
O107 Co98 2.097 . S
O107 C99 1.253 . S
O108 Co92 1.958 . S
O108 C126 1.278 . S
O109 Co86 1.950 . S
O109 C113 1.277 . S
O110 Co86 2.057 . S
O110 C125 1.263 . S
O111 Co98 2.042 . S
O111 C126 1.237 . S
O112 Co92 2.057 . S
O112 C99 1.263 . S
C113 O103 1.221 . S
C113 O109 1.277 . S
C114 C97 1.361 . S
C114 H115 0.960 . S
C114 H116 0.961 . S
C114 H117 0.961 . S
H115 C114 0.960 . S
H116 C114 0.961 . S
H117 C114 0.961 . S
C118 O102 1.221 . S
C118 O106 1.277 . S
C119 O104 1.237 . S
C119 O105 1.278 . S
H120 C88 0.931 . S
H121 C124 0.961 . S
H122 C124 0.961 . S
H123 C124 0.960 . S
C124 C90 1.361 . S
C124 H121 0.961 . S
C124 H122 0.961 . S
C124 H123 0.960 . S
C125 O101 1.253 . S
C125 O110 1.263 . S
C126 O108 1.278 . S
C126 O111 1.237 . S
H127 C91 0.930 . S
H128 C95 0.930 . S
Co129 N130 2.034 . S
Co129 O144 2.262 . S
Co129 O148 1.958 . S
Co129 O152 1.950 . S
Co129 O153 2.057 . S
N130 Co129 2.034 . S
N130 C131 1.366 . S
N130 C133 1.332 . S
C131 N130 1.366 . S
C131 C134 1.377 . S
C131 H163 0.931 . S
N132 C133 1.346 . S
N132 C134 1.337 . S
C133 N130 1.332 . S
C133 N132 1.346 . S
C133 C167 1.361 . S
C134 C131 1.377 . S
C134 N132 1.337 . S
C134 H170 0.930 . S
Co135 N136 2.034 . S
Co135 O149 1.950 . S
Co135 O150 2.262 . S
Co135 O151 1.958 . S
Co135 O155 2.057 . S
N136 Co135 2.034 . S
N136 C139 1.366 . S
N136 C140 1.332 . S
N137 C138 1.337 . S
N137 C140 1.346 . S
C138 N137 1.337 . S
C138 C139 1.377 . S
C138 H171 0.930 . S
C139 N136 1.366 . S
C139 C138 1.377 . S
C139 H143 0.931 . S
C140 N136 1.332 . S
C140 N137 1.346 . S
C140 C157 1.361 . S
Co141 O144 2.097 . S
Co141 O145 2.065 1_455 S
Co141 O146 2.065 . S
Co141 O147 2.042 . S
Co141 O150 2.097 1_455 S
Co141 O154 2.042 1_455 S
C142 O150 1.253 . S
C142 O155 1.263 . S
H143 C139 0.931 . S
O144 Co129 2.262 . S
O144 Co141 2.097 . S
O144 C168 1.253 . S
O145 Co141 2.065 1_655 S
O145 C161 1.221 . S
O146 Co141 2.065 . S
O146 C156 1.221 . S
O147 Co141 2.042 . S
O147 C162 1.237 . S
O148 Co129 1.958 . S
O148 C162 1.278 . S
O149 Co135 1.950 . S
O149 C161 1.277 . S
O150 Co135 2.262 . S
O150 Co141 2.097 1_655 S
O150 C142 1.253 . S
O151 Co135 1.958 . S
O151 C169 1.278 . S
O152 Co129 1.950 . S
O152 C156 1.277 . S
O153 Co129 2.057 . S
O153 C168 1.263 . S
O154 Co141 2.042 1_655 S
O154 C169 1.237 . S
O155 Co135 2.057 . S
O155 C142 1.263 . S
C156 O146 1.221 . S
C156 O152 1.277 . S
C157 C140 1.361 . S
C157 H158 0.960 . S
C157 H159 0.961 . S
C157 H160 0.961 . S
H158 C157 0.960 . S
H159 C157 0.961 . S
H160 C157 0.961 . S
C161 O145 1.221 . S
C161 O149 1.277 . S
C162 O147 1.237 . S
C162 O148 1.278 . S
H163 C131 0.931 . S
H164 C167 0.961 . S
H165 C167 0.961 . S
H166 C167 0.960 . S
C167 C133 1.361 . S
C167 H164 0.961 . S
C167 H165 0.961 . S
C167 H166 0.960 . S
C168 O144 1.253 . S
C168 O153 1.263 . S
C169 O151 1.278 . S
C169 O154 1.237 . S
H170 C134 0.930 . S
H171 C138 0.930 . S
Co172 N173 2.034 . S
Co172 O187 2.262 . S
Co172 O191 1.958 . S
Co172 O195 1.950 . S
Co172 O196 2.057 . S
N173 Co172 2.034 . S
N173 C174 1.366 . S
N173 C176 1.332 . S
C174 N173 1.366 . S
C174 C177 1.377 . S
C174 H206 0.931 . S
N175 C176 1.346 . S
N175 C177 1.337 . S
C176 N173 1.332 . S
C176 N175 1.346 . S
C176 C210 1.361 . S
C177 C174 1.377 . S
C177 N175 1.337 . S
C177 H213 0.930 . S
Co178 N179 2.034 . S
Co178 O192 1.950 . S
Co178 O193 2.262 . S
Co178 O194 1.958 . S
Co178 O198 2.057 . S
N179 Co178 2.034 . S
N179 C182 1.366 . S
N179 C183 1.332 . S
N180 C181 1.337 . S
N180 C183 1.346 . S
C181 N180 1.337 . S
C181 C182 1.377 . S
C181 H214 0.930 . S
C182 N179 1.366 . S
C182 C181 1.377 . S
C182 H186 0.931 . S
C183 N179 1.332 . S
C183 N180 1.346 . S
C183 C200 1.361 . S
Co184 O187 2.097 . S
Co184 O188 2.065 . S
Co184 O189 2.065 . S
Co184 O190 2.042 . S
Co184 O193 2.097 . S
Co184 O197 2.042 . S
C185 O193 1.253 . S
C185 O198 1.263 . S
H186 C182 0.931 . S
O187 Co172 2.262 . S
O187 Co184 2.097 . S
O187 C211 1.253 . S
O188 Co184 2.065 . S
O188 C204 1.221 . S
O189 Co184 2.065 . S
O189 C199 1.221 . S
O190 Co184 2.042 . S
O190 C205 1.237 . S
O191 Co172 1.958 . S
O191 C205 1.278 . S
O192 Co178 1.950 . S
O192 C204 1.277 . S
O193 Co178 2.262 . S
O193 Co184 2.097 . S
O193 C185 1.253 . S
O194 Co178 1.958 . S
O194 C212 1.278 . S
O195 Co172 1.950 . S
O195 C199 1.277 . S
O196 Co172 2.057 . S
O196 C211 1.263 . S
O197 Co184 2.042 . S
O197 C212 1.237 . S
O198 Co178 2.057 . S
O198 C185 1.263 . S
C199 O189 1.221 . S
C199 O195 1.277 . S
C200 C183 1.361 . S
C200 H201 0.960 . S
C200 H202 0.961 . S
C200 H203 0.961 . S
H201 C200 0.960 . S
H202 C200 0.961 . S
H203 C200 0.961 . S
C204 O188 1.221 . S
C204 O192 1.277 . S
C205 O190 1.237 . S
C205 O191 1.278 . S
H206 C174 0.931 . S
H207 C210 0.961 . S
H208 C210 0.961 . S
H209 C210 0.960 . S
C210 C176 1.361 . S
C210 H207 0.961 . S
C210 H208 0.961 . S
C210 H209 0.960 . S
C211 O187 1.253 . S
C211 O196 1.263 . S
C212 O194 1.278 . S
C212 O197 1.237 . S
H213 C177 0.930 . S
H214 C181 0.930 . S
Co215 N216 2.034 . S
Co215 O230 2.262 . S
Co215 O234 1.958 . S
Co215 O238 1.950 . S
Co215 O239 2.057 . S
N216 Co215 2.034 . S
N216 C217 1.366 . S
N216 C219 1.332 . S
C217 N216 1.366 . S
C217 C220 1.377 . S
C217 H249 0.931 . S
N218 C219 1.346 . S
N218 C220 1.337 . S
C219 N216 1.332 . S
C219 N218 1.346 . S
C219 C253 1.361 . S
C220 C217 1.377 . S
C220 N218 1.337 . S
C220 H256 0.930 . S
Co221 N222 2.034 . S
Co221 O235 1.950 . S
Co221 O236 2.262 . S
Co221 O237 1.958 . S
Co221 O241 2.057 . S
N222 Co221 2.034 . S
N222 C225 1.366 . S
N222 C226 1.332 . S
N223 C224 1.337 . S
N223 C226 1.346 . S
C224 N223 1.337 . S
C224 C225 1.377 . S
C224 H257 0.930 . S
C225 N222 1.366 . S
C225 C224 1.377 . S
C225 H229 0.931 . S
C226 N222 1.332 . S
C226 N223 1.346 . S
C226 C243 1.361 . S
Co227 O230 2.097 . S
Co227 O231 2.065 . S
Co227 O232 2.065 . S
Co227 O233 2.042 . S
Co227 O236 2.097 . S
Co227 O240 2.042 . S
C228 O236 1.253 . S
C228 O241 1.263 . S
H229 C225 0.931 . S
O230 Co215 2.262 . S
O230 Co227 2.097 . S
O230 C254 1.253 . S
O231 Co227 2.065 . S
O231 C247 1.221 . S
O232 Co227 2.065 . S
O232 C242 1.221 . S
O233 Co227 2.042 . S
O233 C248 1.237 . S
O234 Co215 1.958 . S
O234 C248 1.278 . S
O235 Co221 1.950 . S
O235 C247 1.277 . S
O236 Co221 2.262 . S
O236 Co227 2.097 . S
O236 C228 1.253 . S
O237 Co221 1.958 . S
O237 C255 1.278 . S
O238 Co215 1.950 . S
O238 C242 1.277 . S
O239 Co215 2.057 . S
O239 C254 1.263 . S
O240 Co227 2.042 . S
O240 C255 1.237 . S
O241 Co221 2.057 . S
O241 C228 1.263 . S
C242 O232 1.221 . S
C242 O238 1.277 . S
C243 C226 1.361 . S
C243 H244 0.960 . S
C243 H245 0.961 . S
C243 H246 0.961 . S
H244 C243 0.960 . S
H245 C243 0.961 . S
H246 C243 0.961 . S
C247 O231 1.221 . S
C247 O235 1.277 . S
C248 O233 1.237 . S
C248 O234 1.278 . S
H249 C217 0.931 . S
H250 C253 0.961 . S
H251 C253 0.961 . S
H252 C253 0.960 . S
C253 C219 1.361 . S
C253 H250 0.961 . S
C253 H251 0.961 . S
C253 H252 0.960 . S
C254 O230 1.253 . S
C254 O239 1.263 . S
C255 O237 1.278 . S
C255 O240 1.237 . S
H256 C220 0.930 . S
H257 C224 0.930 . S
Co258 N259 2.034 . S
Co258 O273 2.262 . S
Co258 O277 1.958 . S
Co258 O281 1.950 . S
Co258 O282 2.057 . S
N259 Co258 2.034 . S
N259 C260 1.366 . S
N259 C262 1.332 . S
C260 N259 1.366 . S
C260 C263 1.377 . S
C260 H292 0.931 . S
N261 C262 1.346 . S
N261 C263 1.337 . S
C262 N259 1.332 . S
C262 N261 1.346 . S
C262 C296 1.361 . S
C263 C260 1.377 . S
C263 N261 1.337 . S
C263 H299 0.930 . S
Co264 N265 2.034 . S
Co264 O278 1.950 . S
Co264 O279 2.262 . S
Co264 O280 1.958 . S
Co264 O284 2.057 . S
N265 Co264 2.034 . S
N265 C268 1.366 . S
N265 C269 1.332 . S
N266 C267 1.337 . S
N266 C269 1.346 . S
C267 N266 1.337 . S
C267 C268 1.377 . S
C267 H300 0.930 . S
C268 N265 1.366 . S
C268 C267 1.377 . S
C268 H272 0.931 . S
C269 N265 1.332 . S
C269 N266 1.346 . S
C269 C286 1.361 . S
Co270 O273 2.097 . S
Co270 O274 2.065 . S
Co270 O275 2.065 1_545 S
Co270 O276 2.042 1_545 S
Co270 O279 2.097 1_545 S
Co270 O283 2.042 . S
C271 O279 1.253 . S
C271 O284 1.263 . S
H272 C268 0.931 . S
O273 Co258 2.262 . S
O273 Co270 2.097 . S
O273 C297 1.253 . S
O274 Co270 2.065 . S
O274 C290 1.221 . S
O275 Co270 2.065 1_565 S
O275 C285 1.221 1_565 S
O276 Co270 2.042 1_565 S
O276 C291 1.237 . S
O277 Co258 1.958 . S
O277 C291 1.278 1_545 S
O278 Co264 1.950 . S
O278 C290 1.277 1_565 S
O279 Co264 2.262 . S
O279 Co270 2.097 1_565 S
O279 C271 1.253 . S
O280 Co264 1.958 . S
O280 C298 1.278 1_565 S
O281 Co258 1.950 . S
O281 C285 1.277 . S
O282 Co258 2.057 . S
O282 C297 1.263 . S
O283 Co270 2.042 . S
O283 C298 1.237 . S
O284 Co264 2.057 . S
O284 C271 1.263 . S
C285 O275 1.221 1_545 S
C285 O281 1.277 . S
C286 C269 1.361 . S
C286 H287 0.960 . S
C286 H288 0.961 . S
C286 H289 0.961 . S
H287 C286 0.960 . S
H288 C286 0.961 . S
H289 C286 0.961 . S
C290 O274 1.221 . S
C290 O278 1.277 1_545 S
C291 O276 1.237 . S
C291 O277 1.278 1_565 S
H292 C260 0.931 . S
H293 C296 0.961 . S
H294 C296 0.961 . S
H295 C296 0.960 . S
C296 C262 1.361 . S
C296 H293 0.961 . S
C296 H294 0.961 . S
C296 H295 0.960 . S
C297 O273 1.253 . S
C297 O282 1.263 . S
C298 O280 1.278 1_545 S
C298 O283 1.237 . S
H299 C263 0.930 . S
H300 C267 0.930 . S
Co301 N302 2.034 . S
Co301 O316 2.262 . S
Co301 O320 1.958 . S
Co301 O324 1.950 1_556 S
Co301 O325 2.061 . S
N302 Co301 2.034 . S
N302 C303 1.366 . S
N302 C305 1.332 1_556 S
C303 N302 1.366 . S
C303 C306 1.377 . S
C303 H335 0.931 . S
N304 C305 1.346 . S
N304 C306 1.337 1_554 S
C305 N302 1.332 1_554 S
C305 N304 1.346 . S
C305 C339 1.361 . S
C306 C303 1.377 . S
C306 N304 1.337 1_556 S
C306 H342 0.930 . S
Co307 N308 2.034 . S
Co307 O321 1.950 1_556 S
Co307 O322 2.262 . S
Co307 O323 1.958 . S
Co307 O327 2.061 . S
N308 Co307 2.034 . S
N308 C311 1.366 . S
N308 C312 1.332 1_556 S
N309 C310 1.337 1_554 S
N309 C312 1.346 . S
C310 N309 1.337 1_556 S
C310 C311 1.377 . S
C310 H343 0.930 . S
C311 N308 1.366 . S
C311 C310 1.377 . S
C311 H315 0.931 . S
C312 N308 1.332 1_554 S
C312 N309 1.346 . S
C312 C329 1.361 . S
Co313 O316 2.097 . S
Co313 O317 2.065 1_556 S
Co313 O318 2.065 1_556 S
Co313 O319 2.042 . S
Co313 O322 2.097 . S
Co313 O326 2.042 . S
C314 O322 1.253 . S
C314 O327 1.265 . S
H315 C311 0.931 . S
O316 Co301 2.262 . S
O316 Co313 2.097 . S
O316 C340 1.253 . S
O317 Co313 2.065 1_554 S
O317 C333 1.221 . S
O318 Co313 2.065 1_554 S
O318 C328 1.221 . S
O319 Co313 2.042 . S
O319 C334 1.237 . S
O320 Co301 1.958 . S
O320 C334 1.278 . S
O321 Co307 1.950 1_554 S
O321 C333 1.277 . S
O322 Co307 2.262 . S
O322 Co313 2.097 . S
O322 C314 1.253 . S
O323 Co307 1.958 . S
O323 C341 1.278 . S
O324 Co301 1.950 1_554 S
O324 C328 1.277 . S
O325 Co301 2.061 . S
O325 C340 1.265 . S
O326 Co313 2.042 . S
O326 C341 1.237 . S
O327 Co307 2.061 . S
O327 C314 1.265 . S
C328 O318 1.221 . S
C328 O324 1.277 . S
C329 C312 1.361 . S
C329 H330 0.960 . S
C329 H331 0.961 . S
C329 H332 0.961 . S
H330 C329 0.960 . S
H331 C329 0.961 . S
H332 C329 0.961 . S
C333 O317 1.221 . S
C333 O321 1.277 . S
C334 O319 1.237 . S
C334 O320 1.278 . S
H335 C303 0.931 . S
H336 C339 0.961 . S
H337 C339 0.961 . S
H338 C339 0.960 . S
C339 C305 1.361 . S
C339 H336 0.961 . S
C339 H337 0.961 . S
C339 H338 0.960 . S
C340 O316 1.253 . S
C340 O325 1.265 . S
C341 O323 1.278 . S
C341 O326 1.237 . S
H342 C306 0.930 . S
H343 C310 0.930 . S
H344 C352 0.929 . S
H345 C354 0.930 . S
H346 C356 0.930 1_565 S
H347 C359 0.929 . S
H348 C362 0.930 . S
H349 C364 0.960 . S
H350 C364 0.960 . S
H351 C364 0.960 . S
C352 H344 0.929 . S
C352 C353 1.377 . S
C352 C354 1.384 . S
C353 C352 1.377 . S
C353 C359 1.390 1_545 S
C354 H345 0.930 . S
C354 C352 1.384 . S
C354 C355 1.372 . S
C355 C354 1.372 . S
C355 C356 1.400 . S
C355 C360 1.490 . S
C356 H346 0.930 1_545 S
C356 C355 1.400 . S
C356 C359 1.386 1_545 S
H357 C373 0.930 . S
H358 C374 0.931 . S
C359 H347 0.929 . S
C359 C353 1.390 1_565 S
C359 C356 1.386 1_565 S
C360 C355 1.490 . S
C360 C362 1.395 . S
C360 C363 1.403 . S
H361 C367 0.930 . S
C362 H348 0.930 . S
C362 C360 1.395 . S
C362 C365 1.403 . S
C363 C360 1.403 . S
C363 C364 1.524 . S
C363 C367 1.400 . S
C364 H349 0.960 . S
C364 H350 0.960 . S
C364 H351 0.960 . S
C364 C363 1.524 . S
C365 C362 1.403 . S
C365 C366 1.392 . S
C365 C369 1.495 . S
C366 C365 1.392 . S
C366 C367 1.385 . S
C366 C368 1.478 . S
C367 H361 0.930 . S
C367 C363 1.400 . S
C367 C366 1.385 . S
C368 C366 1.478 . S
C368 C370 1.381 . S
C368 C374 1.383 . S
C369 C365 1.495 . S
C369 H375 0.959 . S
C369 H376 0.961 . S
C369 H377 0.960 . S
C370 C368 1.381 . S
C370 C371 1.394 . S
C370 H378 0.930 . S
C371 C370 1.394 . S
C371 C372 1.383 . S
C371 H379 0.929 . S
C372 C371 1.383 . S
C372 C373 1.377 . S
C373 H357 0.930 . S
C373 C372 1.377 . S
C373 C374 1.379 . S
C374 H358 0.931 . S
C374 C368 1.383 . S
C374 C373 1.379 . S
H375 C369 0.959 . S
H376 C369 0.961 . S
H377 C369 0.960 . S
H378 C370 0.930 . S
H379 C371 0.929 . S
H380 C388 0.929 . S
H381 C390 0.930 . S
H382 C392 0.930 . S
H383 C395 0.929 . S
H384 C398 0.930 . S
H385 C400 0.960 . S
H386 C400 0.960 . S
H387 C400 0.960 . S
C388 H380 0.929 . S
C388 C389 1.377 1_545 S
C388 C390 1.384 . S
C389 C388 1.377 1_565 S
C389 C395 1.390 . S
C390 H381 0.930 . S
C390 C388 1.384 . S
C390 C391 1.372 1_545 S
C391 C390 1.372 1_565 S
C391 C392 1.400 . S
C391 C396 1.490 . S
C392 H382 0.930 . S
C392 C391 1.400 . S
C392 C395 1.386 . S
H393 C409 0.930 . S
H394 C410 0.931 . S
C395 H383 0.929 . S
C395 C389 1.390 . S
C395 C392 1.386 . S
C396 C391 1.490 . S
C396 C398 1.395 . S
C396 C399 1.403 . S
H397 C403 0.930 . S
C398 H384 0.930 . S
C398 C396 1.395 . S
C398 C401 1.403 . S
C399 C396 1.403 . S
C399 C400 1.524 . S
C399 C403 1.400 . S
C400 H385 0.960 . S
C400 H386 0.960 . S
C400 H387 0.960 . S
C400 C399 1.524 . S
C401 C398 1.403 . S
C401 C402 1.392 . S
C401 C405 1.495 . S
C402 C401 1.392 . S
C402 C403 1.385 . S
C402 C404 1.478 . S
C403 H397 0.930 . S
C403 C399 1.400 . S
C403 C402 1.385 . S
C404 C402 1.478 . S
C404 C406 1.381 . S
C404 C410 1.383 . S
C405 C401 1.495 . S
C405 H411 0.959 . S
C405 H412 0.961 . S
C405 H413 0.960 . S
C406 C404 1.381 . S
C406 C407 1.394 . S
C406 H414 0.930 . S
C407 C406 1.394 . S
C407 C408 1.383 . S
C407 H415 0.929 . S
C408 C407 1.383 . S
C408 C409 1.377 . S
C409 H393 0.930 . S
C409 C408 1.377 . S
C409 C410 1.379 . S
C410 H394 0.931 . S
C410 C404 1.383 . S
C410 C409 1.379 . S
H411 C405 0.959 . S
H412 C405 0.961 . S
H413 C405 0.960 . S
H414 C406 0.930 . S
H415 C407 0.929 . S
H416 C424 0.929 . S
H417 C426 0.930 . S
H418 C428 0.930 . S
H419 C431 0.929 . S
H420 C434 0.930 . S
H421 C436 0.960 . S
H422 C436 0.960 . S
H423 C436 0.960 . S
C424 H416 0.929 . S
C424 C425 1.377 . S
C424 C426 1.384 . S
C425 C424 1.377 . S
C425 C431 1.390 . S
C426 H417 0.930 . S
C426 C424 1.384 . S
C426 C427 1.372 . S
C427 C426 1.372 . S
C427 C428 1.400 . S
C427 C432 1.490 . S
C428 H418 0.930 . S
C428 C427 1.400 . S
C428 C431 1.386 . S
H429 C445 0.930 . S
H430 C446 0.931 . S
C431 H419 0.929 . S
C431 C425 1.390 . S
C431 C428 1.386 . S
C432 C427 1.490 . S
C432 C434 1.395 . S
C432 C435 1.403 . S
H433 C439 0.930 . S
C434 H420 0.930 . S
C434 C432 1.395 . S
C434 C437 1.403 . S
C435 C432 1.403 . S
C435 C436 1.524 . S
C435 C439 1.400 . S
C436 H421 0.960 . S
C436 H422 0.960 . S
C436 H423 0.960 . S
C436 C435 1.524 . S
C437 C434 1.403 . S
C437 C438 1.392 . S
C437 C441 1.495 . S
C438 C437 1.392 . S
C438 C439 1.385 . S
C438 C440 1.478 . S
C439 H433 0.930 . S
C439 C435 1.400 . S
C439 C438 1.385 . S
C440 C438 1.478 . S
C440 C442 1.381 . S
C440 C446 1.383 . S
C441 C437 1.495 . S
C441 H447 0.959 . S
C441 H448 0.961 . S
C441 H449 0.960 . S
C442 C440 1.381 . S
C442 C443 1.394 . S
C442 H450 0.930 . S
C443 C442 1.394 . S
C443 C444 1.383 . S
C443 H451 0.929 . S
C444 C443 1.383 . S
C444 C445 1.377 . S
C445 H429 0.930 . S
C445 C444 1.377 . S
C445 C446 1.379 . S
C446 H430 0.931 . S
C446 C440 1.383 . S
C446 C445 1.379 . S
H447 C441 0.959 . S
H448 C441 0.961 . S
H449 C441 0.960 . S
H450 C442 0.930 . S
H451 C443 0.929 . S
H452 C460 0.929 . S
H453 C462 0.930 . S
H454 C464 0.930 . S
H455 C467 0.929 . S
H456 C470 0.930 . S
H457 C472 0.960 . S
H458 C472 0.960 . S
H459 C472 0.960 . S
C460 H452 0.929 . S
C460 C461 1.377 . S
C460 C462 1.384 . S
C461 C460 1.377 . S
C461 C467 1.390 . S
C462 H453 0.930 . S
C462 C460 1.384 . S
C462 C463 1.372 . S
C463 C462 1.372 . S
C463 C464 1.400 . S
C463 C468 1.490 . S
C464 H454 0.930 . S
C464 C463 1.400 . S
C464 C467 1.386 . S
H465 C481 0.930 . S
H466 C482 0.931 . S
C467 H455 0.929 . S
C467 C461 1.390 . S
C467 C464 1.386 . S
C468 C463 1.490 . S
C468 C470 1.395 . S
C468 C471 1.403 . S
H469 C475 0.930 . S
C470 H456 0.930 . S
C470 C468 1.395 . S
C470 C473 1.403 . S
C471 C468 1.403 . S
C471 C472 1.524 . S
C471 C475 1.400 . S
C472 H457 0.960 . S
C472 H458 0.960 . S
C472 H459 0.960 . S
C472 C471 1.524 . S
C473 C470 1.403 . S
C473 C474 1.392 . S
C473 C477 1.495 . S
C474 C473 1.392 . S
C474 C475 1.385 . S
C474 C476 1.478 . S
C475 H469 0.930 . S
C475 C471 1.400 . S
C475 C474 1.385 . S
C476 C474 1.478 . S
C476 C478 1.381 . S
C476 C482 1.383 . S
C477 C473 1.495 . S
C477 H483 0.959 . S
C477 H484 0.961 . S
C477 H485 0.960 . S
C478 C476 1.381 . S
C478 C479 1.394 . S
C478 H486 0.930 . S
C479 C478 1.394 . S
C479 C480 1.383 . S
C479 H487 0.929 . S
C480 C479 1.383 . S
C480 C481 1.377 . S
C481 H465 0.930 . S
C481 C480 1.377 . S
C481 C482 1.379 . S
C482 H466 0.931 . S
C482 C476 1.383 . S
C482 C481 1.379 . S
H483 C477 0.959 . S
H484 C477 0.961 . S
H485 C477 0.960 . S
H486 C478 0.930 . S
H487 C479 0.929 . S
H488 C496 0.929 . S
H489 C498 0.930 . S
H490 C500 0.930 . S
H491 C503 0.929 . S
H492 C506 0.930 . S
H493 C508 0.960 . S
H494 C508 0.960 . S
H495 C508 0.960 . S
C496 H488 0.929 . S
C496 C497 1.377 . S
C496 C498 1.384 . S
C497 C496 1.377 . S
C497 C503 1.390 . S
C498 H489 0.930 . S
C498 C496 1.384 . S
C498 C499 1.372 . S
C499 C498 1.372 . S
C499 C500 1.400 . S
C499 C504 1.490 . S
C500 H490 0.930 . S
C500 C499 1.400 . S
C500 C503 1.386 . S
H501 C517 0.930 . S
H502 C518 0.931 . S
C503 H491 0.929 . S
C503 C497 1.390 . S
C503 C500 1.386 . S
C504 C499 1.490 . S
C504 C506 1.395 . S
C504 C507 1.403 . S
H505 C511 0.930 . S
C506 H492 0.930 . S
C506 C504 1.395 . S
C506 C509 1.403 . S
C507 C504 1.403 . S
C507 C508 1.524 . S
C507 C511 1.400 . S
C508 H493 0.960 . S
C508 H494 0.960 . S
C508 H495 0.960 . S
C508 C507 1.524 . S
C509 C506 1.403 . S
C509 C510 1.392 . S
C509 C513 1.495 . S
C510 C509 1.392 . S
C510 C511 1.385 . S
C510 C512 1.478 . S
C511 H505 0.930 . S
C511 C507 1.400 . S
C511 C510 1.385 . S
C512 C510 1.478 . S
C512 C514 1.381 . S
C512 C518 1.383 . S
C513 C509 1.495 . S
C513 H519 0.959 . S
C513 H520 0.961 . S
C513 H521 0.960 . S
C514 C512 1.381 . S
C514 C515 1.394 . S
C514 H522 0.930 . S
C515 C514 1.394 . S
C515 C516 1.383 . S
C515 H523 0.929 . S
C516 C515 1.383 . S
C516 C517 1.377 . S
C517 H501 0.930 . S
C517 C516 1.377 . S
C517 C518 1.379 . S
C518 H502 0.931 . S
C518 C512 1.383 . S
C518 C517 1.379 . S
H519 C513 0.959 . S
H520 C513 0.961 . S
H521 C513 0.960 . S
H522 C514 0.930 . S
H523 C515 0.929 . S
H524 C532 0.929 . S
H525 C534 0.930 . S
H526 C536 0.930 . S
H527 C539 0.929 . S
H528 C542 0.930 . S
H529 C544 0.960 . S
H530 C544 0.960 . S
H531 C544 0.960 . S
C532 H524 0.929 . S
C532 C533 1.377 . S
C532 C534 1.384 . S
C533 C532 1.377 . S
C533 C539 1.390 . S
C534 H525 0.930 . S
C534 C532 1.384 . S
C534 C535 1.372 . S
C535 C534 1.372 . S
C535 C536 1.400 . S
C535 C540 1.490 . S
C536 H526 0.930 . S
C536 C535 1.400 . S
C536 C539 1.386 . S
H537 C553 0.930 . S
H538 C554 0.931 . S
C539 H527 0.929 . S
C539 C533 1.390 . S
C539 C536 1.386 . S
C540 C535 1.490 . S
C540 C542 1.395 . S
C540 C543 1.403 . S
H541 C547 0.930 . S
C542 H528 0.930 . S
C542 C540 1.395 . S
C542 C545 1.403 . S
C543 C540 1.403 . S
C543 C544 1.524 . S
C543 C547 1.400 . S
C544 H529 0.960 . S
C544 H530 0.960 . S
C544 H531 0.960 . S
C544 C543 1.524 . S
C545 C542 1.403 . S
C545 C546 1.392 . S
C545 C549 1.495 . S
C546 C545 1.392 . S
C546 C547 1.385 . S
C546 C548 1.478 . S
C547 H541 0.930 . S
C547 C543 1.400 . S
C547 C546 1.385 . S
C548 C546 1.478 . S
C548 C550 1.381 . S
C548 C554 1.383 . S
C549 C545 1.495 . S
C549 H555 0.959 . S
C549 H556 0.961 . S
C549 H557 0.960 . S
C550 C548 1.381 . S
C550 C551 1.394 . S
C550 H558 0.930 . S
C551 C550 1.394 . S
C551 C552 1.383 . S
C551 H559 0.929 . S
C552 C551 1.383 . S
C552 C553 1.377 . S
C553 H537 0.930 . S
C553 C552 1.377 . S
C553 C554 1.379 . S
C554 H538 0.931 . S
C554 C548 1.383 . S
C554 C553 1.379 . S
H555 C549 0.959 . S
H556 C549 0.961 . S
H557 C549 0.960 . S
H558 C550 0.930 . S
H559 C551 0.929 . S
H560 C568 0.929 . S
H561 C570 0.930 . S
H562 C572 0.930 . S
H563 C575 0.929 . S
H564 C578 0.930 . S
H565 C580 0.960 . S
H566 C580 0.960 . S
H567 C580 0.960 . S
C568 H560 0.929 . S
C568 C569 1.377 . S
C568 C570 1.384 . S
C569 C568 1.377 . S
C569 C575 1.390 . S
C570 H561 0.930 . S
C570 C568 1.384 . S
C570 C571 1.372 . S
C571 C570 1.372 . S
C571 C572 1.400 . S
C571 C576 1.490 . S
C572 H562 0.930 . S
C572 C571 1.400 . S
C572 C575 1.386 . S
H573 C589 0.930 1_545 S
H574 C590 0.931 . S
C575 H563 0.929 . S
C575 C569 1.390 . S
C575 C572 1.386 . S
C576 C571 1.490 . S
C576 C578 1.395 . S
C576 C579 1.403 . S
H577 C583 0.930 . S
C578 H564 0.930 . S
C578 C576 1.395 . S
C578 C581 1.403 . S
C579 C576 1.403 . S
C579 C580 1.524 . S
C579 C583 1.400 . S
C580 H565 0.960 . S
C580 H566 0.960 . S
C580 H567 0.960 . S
C580 C579 1.524 . S
C581 C578 1.403 . S
C581 C582 1.392 . S
C581 C585 1.495 . S
C582 C581 1.392 . S
C582 C583 1.385 . S
C582 C584 1.478 . S
C583 H577 0.930 . S
C583 C579 1.400 . S
C583 C582 1.385 . S
C584 C582 1.478 . S
C584 C586 1.381 . S
C584 C590 1.383 . S
C585 C581 1.495 . S
C585 H591 0.959 . S
C585 H592 0.961 . S
C585 H593 0.960 . S
C586 C584 1.381 . S
C586 C587 1.394 . S
C586 H594 0.930 . S
C587 C586 1.394 . S
C587 C588 1.383 . S
C587 H595 0.929 . S
C588 C587 1.383 . S
C588 C589 1.377 . S
C589 H573 0.930 1_565 S
C589 C588 1.377 . S
C589 C590 1.379 . S
C590 H574 0.931 . S
C590 C584 1.383 . S
C590 C589 1.379 . S
H591 C585 0.959 . S
H592 C585 0.961 . S
H593 C585 0.960 . S
H594 C586 0.930 . S
H595 C587 0.929 . S
H596 C604 0.929 . S
H597 C606 0.930 . S
H598 C608 0.930 . S
H599 C611 0.929 . S
H600 C614 0.930 . S
H601 C616 0.960 . S
H602 C616 0.960 . S
H603 C616 0.960 . S
C604 H596 0.929 . S
C604 C605 1.377 . S
C604 C606 1.384 . S
C605 C604 1.377 . S
C605 C611 1.390 . S
C606 H597 0.930 . S
C606 C604 1.384 . S
C606 C607 1.372 . S
C607 C606 1.372 . S
C607 C608 1.400 . S
C607 C612 1.490 . S
C608 H598 0.930 . S
C608 C607 1.400 . S
C608 C611 1.386 . S
H609 C625 0.930 1_565 S
H610 C626 0.931 . S
C611 H599 0.929 . S
C611 C605 1.390 . S
C611 C608 1.386 . S
C612 C607 1.490 . S
C612 C614 1.395 . S
C612 C615 1.403 . S
H613 C619 0.930 . S
C614 H600 0.930 . S
C614 C612 1.395 . S
C614 C617 1.403 . S
C615 C612 1.403 . S
C615 C616 1.524 . S
C615 C619 1.400 . S
C616 H601 0.960 . S
C616 H602 0.960 . S
C616 H603 0.960 . S
C616 C615 1.524 . S
C617 C614 1.403 . S
C617 C618 1.392 . S
C617 C621 1.495 . S
C618 C617 1.392 . S
C618 C619 1.385 . S
C618 C620 1.478 . S
C619 H613 0.930 . S
C619 C615 1.400 . S
C619 C618 1.385 . S
C620 C618 1.478 . S
C620 C622 1.381 . S
C620 C626 1.383 . S
C621 C617 1.495 . S
C621 H627 0.959 . S
C621 H628 0.961 . S
C621 H629 0.960 . S
C622 C620 1.381 . S
C622 C623 1.394 . S
C622 H630 0.930 . S
C623 C622 1.394 . S
C623 C624 1.383 . S
C623 H631 0.929 . S
C624 C623 1.383 . S
C624 C625 1.377 . S
C625 H609 0.930 1_545 S
C625 C624 1.377 . S
C625 C626 1.379 . S
C626 H610 0.931 . S
C626 C620 1.383 . S
C626 C625 1.379 . S
H627 C621 0.959 . S
H628 C621 0.961 . S
H629 C621 0.960 . S
H630 C622 0.930 . S
H631 C623 0.929 . S
H632 C640 0.929 . S
H633 C642 0.930 . S
H634 C644 0.930 . S
H635 C647 0.929 . S
H636 C650 0.930 . S
H637 C652 0.960 . S
H638 C652 0.960 . S
H639 C652 0.960 . S
C640 H632 0.929 . S
C640 C641 1.377 . S
C640 C642 1.384 . S
C641 C640 1.377 . S
C641 C647 1.390 . S
C642 H633 0.930 . S
C642 C640 1.384 . S
C642 C643 1.372 . S
C643 C642 1.372 . S
C643 C644 1.400 . S
C643 C648 1.490 . S
C644 H634 0.930 . S
C644 C643 1.400 . S
C644 C647 1.386 . S
H645 C661 0.930 . S
H646 C662 0.931 1_565 S
C647 H635 0.929 . S
C647 C641 1.390 . S
C647 C644 1.386 . S
C648 C643 1.490 . S
C648 C650 1.395 . S
C648 C651 1.403 . S
H649 C655 0.930 . S
C650 H636 0.930 . S
C650 C648 1.395 . S
C650 C653 1.403 . S
C651 C648 1.403 . S
C651 C652 1.524 . S
C651 C655 1.400 . S
C652 H637 0.960 . S
C652 H638 0.960 . S
C652 H639 0.960 . S
C652 C651 1.524 . S
C653 C650 1.403 . S
C653 C654 1.392 . S
C653 C657 1.495 . S
C654 C653 1.392 . S
C654 C655 1.385 . S
C654 C656 1.478 . S
C655 H649 0.930 . S
C655 C651 1.400 . S
C655 C654 1.385 . S
C656 C654 1.478 . S
C656 C658 1.381 . S
C656 C662 1.383 . S
C657 C653 1.495 . S
C657 H663 0.959 . S
C657 H664 0.961 1_545 S
C657 H665 0.960 . S
C658 C656 1.381 . S
C658 C659 1.394 . S
C658 H666 0.930 . S
C659 C658 1.394 . S
C659 C660 1.383 . S
C659 H667 0.929 . S
C660 C659 1.383 . S
C660 C661 1.377 1_545 S
C661 H645 0.930 . S
C661 C660 1.377 1_565 S
C661 C662 1.379 1_565 S
C662 H646 0.931 1_545 S
C662 C656 1.383 . S
C662 C661 1.379 1_545 S
H663 C657 0.959 . S
H664 C657 0.961 1_565 S
H665 C657 0.960 . S
H666 C658 0.930 . S
H667 C659 0.929 . S
H668 C676 0.929 . S
H669 C678 0.930 . S
H670 C680 0.930 . S
H671 C683 0.929 . S
H672 C686 0.930 . S
H673 C688 0.960 . S
H674 C688 0.960 . S
H675 C688 0.960 . S
C676 H668 0.929 . S
C676 C677 1.377 . S
C676 C678 1.384 . S
C677 C676 1.377 . S
C677 C683 1.390 1_565 S
C678 H669 0.930 . S
C678 C676 1.384 . S
C678 C679 1.372 . S
C679 C678 1.372 . S
C679 C680 1.400 . S
C679 C684 1.490 . S
C680 H670 0.930 . S
C680 C679 1.400 . S
C680 C683 1.386 1_565 S
H681 C697 0.930 . S
H682 C698 0.931 . S
C683 H671 0.929 . S
C683 C677 1.390 1_545 S
C683 C680 1.386 1_545 S
C684 C679 1.490 . S
C684 C686 1.395 . S
C684 C687 1.403 . S
H685 C691 0.930 . S
C686 H672 0.930 . S
C686 C684 1.395 . S
C686 C689 1.403 . S
C687 C684 1.403 . S
C687 C688 1.524 . S
C687 C691 1.400 . S
C688 H673 0.960 . S
C688 H674 0.960 . S
C688 H675 0.960 . S
C688 C687 1.524 . S
C689 C686 1.403 . S
C689 C690 1.392 . S
C689 C693 1.495 . S
C690 C689 1.392 . S
C690 C691 1.385 . S
C690 C692 1.478 . S
C691 H685 0.930 . S
C691 C687 1.400 . S
C691 C690 1.385 . S
C692 C690 1.478 . S
C692 C694 1.381 . S
C692 C698 1.383 . S
C693 C689 1.495 . S
C693 H699 0.959 . S
C693 H700 0.961 . S
C693 H701 0.960 . S
C694 C692 1.381 . S
C694 C695 1.394 . S
C694 H702 0.930 . S
C695 C694 1.394 . S
C695 C696 1.383 . S
C695 H703 0.929 . S
C696 C695 1.383 . S
C696 C697 1.377 . S
C697 H681 0.930 . S
C697 C696 1.377 . S
C697 C698 1.379 . S
C698 H682 0.931 . S
C698 C692 1.383 . S
C698 C697 1.379 . S
H699 C693 0.959 . S
H700 C693 0.961 . S
H701 C693 0.960 . S
H702 C694 0.930 . S
H703 C695 0.929 . S
H704 C712 0.929 . S
H705 C714 0.930 . S
H706 C716 0.930 . S
H707 C719 0.929 . S
H708 C722 0.930 . S
H709 C724 0.960 . S
H710 C724 0.960 . S
H711 C724 0.960 . S
C712 H704 0.929 . S
C712 C713 1.377 . S
C712 C714 1.384 . S
C713 C712 1.377 . S
C713 C719 1.390 . S
C714 H705 0.930 . S
C714 C712 1.384 . S
C714 C715 1.372 . S
C715 C714 1.372 . S
C715 C716 1.400 . S
C715 C720 1.490 . S
C716 H706 0.930 . S
C716 C715 1.400 . S
C716 C719 1.386 . S
H717 C733 0.930 . S
H718 C734 0.931 . S
C719 H707 0.929 . S
C719 C713 1.390 . S
C719 C716 1.386 . S
C720 C715 1.490 . S
C720 C722 1.395 . S
C720 C723 1.403 . S
H721 C727 0.930 . S
C722 H708 0.930 . S
C722 C720 1.395 . S
C722 C725 1.403 . S
C723 C720 1.403 . S
C723 C724 1.524 . S
C723 C727 1.400 . S
C724 H709 0.960 . S
C724 H710 0.960 . S
C724 H711 0.960 . S
C724 C723 1.524 . S
C725 C722 1.403 . S
C725 C726 1.392 . S
C725 C729 1.495 . S
C726 C725 1.392 . S
C726 C727 1.385 . S
C726 C728 1.478 . S
C727 H721 0.930 . S
C727 C723 1.400 . S
C727 C726 1.385 . S
C728 C726 1.478 . S
C728 C730 1.381 . S
C728 C734 1.383 . S
C729 C725 1.495 . S
C729 H735 0.959 . S
C729 H736 0.961 . S
C729 H737 0.960 . S
C730 C728 1.381 . S
C730 C731 1.394 . S
C730 H738 0.930 . S
C731 C730 1.394 . S
C731 C732 1.383 . S
C731 H739 0.929 . S
C732 C731 1.383 . S
C732 C733 1.377 . S
C733 H717 0.930 . S
C733 C732 1.377 . S
C733 C734 1.379 . S
C734 H718 0.931 . S
C734 C728 1.383 . S
C734 C733 1.379 . S
H735 C729 0.959 . S
H736 C729 0.961 . S
H737 C729 0.960 . S
H738 C730 0.930 . S
H739 C731 0.929 . S
H740 C748 0.929 . S
H741 C750 0.930 . S
H742 C752 0.930 . S
H743 C755 0.929 . S
H744 C758 0.930 . S
H745 C760 0.960 . S
H746 C760 0.960 . S
H747 C760 0.960 . S
C748 H740 0.929 . S
C748 C749 1.377 . S
C748 C750 1.384 . S
C749 C748 1.377 . S
C749 C755 1.390 . S
C750 H741 0.930 . S
C750 C748 1.384 . S
C750 C751 1.372 . S
C751 C750 1.372 . S
C751 C752 1.400 . S
C751 C756 1.490 . S
C752 H742 0.930 . S
C752 C751 1.400 . S
C752 C755 1.386 . S
H753 C769 0.930 . S
H754 C770 0.931 . S
C755 H743 0.929 . S
C755 C749 1.390 . S
C755 C752 1.386 . S
C756 C751 1.490 . S
C756 C758 1.395 . S
C756 C759 1.403 . S
H757 C763 0.930 . S
C758 H744 0.930 . S
C758 C756 1.395 . S
C758 C761 1.403 . S
C759 C756 1.403 . S
C759 C760 1.524 . S
C759 C763 1.400 . S
C760 H745 0.960 . S
C760 H746 0.960 . S
C760 H747 0.960 . S
C760 C759 1.524 . S
C761 C758 1.403 . S
C761 C762 1.392 . S
C761 C765 1.495 . S
C762 C761 1.392 . S
C762 C763 1.385 . S
C762 C764 1.478 . S
C763 H757 0.930 . S
C763 C759 1.400 . S
C763 C762 1.385 . S
C764 C762 1.478 . S
C764 C766 1.381 . S
C764 C770 1.383 . S
C765 C761 1.495 . S
C765 H771 0.959 . S
C765 H772 0.961 . S
C765 H773 0.960 . S
C766 C764 1.381 . S
C766 C767 1.394 . S
C766 H774 0.930 . S
C767 C766 1.394 . S
C767 C768 1.383 . S
C767 H775 0.929 . S
C768 C767 1.383 . S
C768 C769 1.377 . S
C769 H753 0.930 . S
C769 C768 1.377 . S
C769 C770 1.379 . S
C770 H754 0.931 . S
C770 C764 1.383 . S
C770 C769 1.379 . S
H771 C765 0.959 . S
H772 C765 0.961 . S
H773 C765 0.960 . S
H774 C766 0.930 . S
H775 C767 0.929 . S
H776 C784 0.929 . S
H777 C786 0.930 . S
H778 C788 0.930 . S
H779 C791 0.929 . S
H780 C794 0.930 . S
H781 C796 0.960 . S
H782 C796 0.960 . S
H783 C796 0.960 . S
C784 H776 0.929 . S
C784 C785 1.377 . S
C784 C786 1.384 . S
C785 C784 1.377 . S
C785 C791 1.390 . S
C786 H777 0.930 . S
C786 C784 1.384 . S
C786 C787 1.372 . S
C787 C786 1.372 . S
C787 C788 1.400 . S
C787 C792 1.490 . S
C788 H778 0.930 . S
C788 C787 1.400 . S
C788 C791 1.386 . S
H789 C805 0.930 . S
H790 C806 0.931 . S
C791 H779 0.929 . S
C791 C785 1.390 . S
C791 C788 1.386 . S
C792 C787 1.490 . S
C792 C794 1.395 . S
C792 C795 1.403 . S
H793 C799 0.930 . S
C794 H780 0.930 . S
C794 C792 1.395 . S
C794 C797 1.403 . S
C795 C792 1.403 . S
C795 C796 1.524 . S
C795 C799 1.400 . S
C796 H781 0.960 . S
C796 H782 0.960 . S
C796 H783 0.960 . S
C796 C795 1.524 . S
C797 C794 1.403 . S
C797 C798 1.392 . S
C797 C801 1.495 . S
C798 C797 1.392 . S
C798 C799 1.385 . S
C798 C800 1.478 . S
C799 H793 0.930 . S
C799 C795 1.400 . S
C799 C798 1.385 . S
C800 C798 1.478 . S
C800 C802 1.381 . S
C800 C806 1.383 . S
C801 C797 1.495 . S
C801 H807 0.959 . S
C801 H808 0.961 . S
C801 H809 0.960 . S
C802 C800 1.381 . S
C802 C803 1.394 . S
C802 H810 0.930 . S
C803 C802 1.394 . S
C803 C804 1.383 . S
C803 H811 0.929 . S
C804 C803 1.383 . S
C804 C805 1.377 . S
C805 H789 0.930 . S
C805 C804 1.377 . S
C805 C806 1.379 . S
C806 H790 0.931 . S
C806 C800 1.383 . S
C806 C805 1.379 . S
H807 C801 0.959 . S
H808 C801 0.961 . S
H809 C801 0.960 . S
H810 C802 0.930 . S
H811 C803 0.929 . S
H812 C820 0.929 . S
H813 C822 0.930 . S
H814 C824 0.930 . S
H815 C827 0.929 . S
H816 C830 0.930 . S
H817 C832 0.960 . S
H818 C832 0.960 . S
H819 C832 0.960 . S
C820 H812 0.929 . S
C820 C821 1.377 . S
C820 C822 1.384 . S
C821 C820 1.377 . S
C821 C827 1.390 . S
C822 H813 0.930 . S
C822 C820 1.384 . S
C822 C823 1.372 . S
C823 C822 1.372 . S
C823 C824 1.400 . S
C823 C828 1.490 . S
C824 H814 0.930 . S
C824 C823 1.400 . S
C824 C827 1.386 . S
H825 C841 0.930 . S
H826 C842 0.931 . S
C827 H815 0.929 . S
C827 C821 1.390 . S
C827 C824 1.386 . S
C828 C823 1.490 . S
C828 C830 1.395 . S
C828 C831 1.403 . S
H829 C835 0.930 . S
C830 H816 0.930 . S
C830 C828 1.395 . S
C830 C833 1.403 . S
C831 C828 1.403 . S
C831 C832 1.524 . S
C831 C835 1.400 . S
C832 H817 0.960 . S
C832 H818 0.960 . S
C832 H819 0.960 . S
C832 C831 1.524 . S
C833 C830 1.403 . S
C833 C834 1.392 . S
C833 C837 1.495 . S
C834 C833 1.392 . S
C834 C835 1.385 . S
C834 C836 1.478 . S
C835 H829 0.930 . S
C835 C831 1.400 . S
C835 C834 1.385 . S
C836 C834 1.478 . S
C836 C838 1.381 . S
C836 C842 1.383 . S
C837 C833 1.495 . S
C837 H843 0.959 . S
C837 H844 0.961 . S
C837 H845 0.960 . S
C838 C836 1.381 . S
C838 C839 1.394 . S
C838 H846 0.930 . S
C839 C838 1.394 . S
C839 C840 1.383 . S
C839 H847 0.929 . S
C840 C839 1.383 . S
C840 C841 1.377 . S
C841 H825 0.930 . S
C841 C840 1.377 . S
C841 C842 1.379 . S
C842 H826 0.931 . S
C842 C836 1.383 . S
C842 C841 1.379 . S
H843 C837 0.959 . S
H844 C837 0.961 . S
H845 C837 0.960 . S
H846 C838 0.930 . S
H847 C839 0.929 . S
H848 C856 0.929 1_545 S
H849 C858 0.932 . S
H850 C860 0.930 . S
H851 C863 0.929 . S
H852 C866 0.930 . S
H853 C868 0.960 . S
H854 C868 0.960 . S
H855 C868 0.960 . S
C856 H848 0.929 1_565 S
C856 C857 1.377 . S
C856 C858 1.384 . S
C857 C856 1.377 . S
C857 C863 1.390 . S
C858 H849 0.932 . S
C858 C856 1.384 . S
C858 C859 1.372 . S
C859 C858 1.372 . S
C859 C860 1.400 . S
C859 C864 1.490 . S
C860 H850 0.930 . S
C860 C859 1.400 . S
C860 C863 1.386 . S
H861 C877 0.930 . S
H862 C878 0.931 . S
C863 H851 0.929 . S
C863 C857 1.390 . S
C863 C860 1.386 . S
C864 C859 1.490 . S
C864 C866 1.395 . S
C864 C867 1.403 . S
H865 C871 0.930 . S
C866 H852 0.930 . S
C866 C864 1.395 . S
C866 C869 1.403 . S
C867 C864 1.403 . S
C867 C868 1.524 . S
C867 C871 1.400 . S
C868 H853 0.960 . S
C868 H854 0.960 . S
C868 H855 0.960 . S
C868 C867 1.524 . S
C869 C866 1.403 . S
C869 C870 1.392 . S
C869 C873 1.495 . S
C870 C869 1.392 . S
C870 C871 1.385 . S
C870 C872 1.478 . S
C871 H865 0.930 . S
C871 C867 1.400 . S
C871 C870 1.385 . S
C872 C870 1.478 . S
C872 C874 1.381 . S
C872 C878 1.383 . S
C873 C869 1.495 . S
C873 H879 0.959 . S
C873 H880 0.961 . S
C873 H881 0.960 . S
C874 C872 1.381 . S
C874 C875 1.394 . S
C874 H882 0.930 . S
C875 C874 1.394 . S
C875 C876 1.383 . S
C875 H883 0.929 . S
C876 C875 1.383 . S
C876 C877 1.377 . S
C877 H861 0.930 . S
C877 C876 1.377 . S
C877 C878 1.379 . S
C878 H862 0.931 . S
C878 C872 1.383 . S
C878 C877 1.379 . S
H879 C873 0.959 . S
H880 C873 0.961 . S
H881 C873 0.960 . S
H882 C874 0.930 . S
H883 C875 0.929 . S
H884 C892 0.929 . S
H885 C894 0.930 . S
H886 C896 0.930 . S
H887 C899 0.929 . S
H888 C902 0.930 . S
H889 C904 0.960 . S
H890 C904 0.947 1_565 S
H891 C904 0.960 . S
C892 H884 0.929 . S
C892 C893 1.377 . S
C892 C894 1.384 . S
C893 C892 1.377 . S
C893 C899 1.390 . S
C894 H885 0.930 . S
C894 C892 1.384 . S
C894 C895 1.372 . S
C895 C894 1.372 . S
C895 C896 1.400 . S
C895 C900 1.490 . S
C896 H886 0.930 . S
C896 C895 1.400 . S
C896 C899 1.386 . S
H897 C913 0.930 . S
H898 C914 0.931 . S
C899 H887 0.929 . S
C899 C893 1.390 . S
C899 C896 1.386 . S
C900 C895 1.490 . S
C900 C902 1.395 . S
C900 C903 1.403 . S
H901 C907 0.930 . S
C902 H888 0.930 . S
C902 C900 1.395 . S
C902 C905 1.403 . S
C903 C900 1.403 . S
C903 C904 1.524 . S
C903 C907 1.400 . S
C904 H889 0.960 . S
C904 H890 0.947 1_545 S
C904 H891 0.960 . S
C904 C903 1.524 . S
C905 C902 1.403 . S
C905 C906 1.392 . S
C905 C909 1.495 . S
C906 C905 1.392 . S
C906 C907 1.385 . S
C906 C908 1.478 . S
C907 H901 0.930 . S
C907 C903 1.400 . S
C907 C906 1.385 . S
C908 C906 1.478 . S
C908 C910 1.381 . S
C908 C914 1.383 . S
C909 C905 1.495 . S
C909 H915 0.959 . S
C909 H916 0.961 . S
C909 H917 0.960 . S
C910 C908 1.381 . S
C910 C911 1.394 . S
C910 H918 0.930 . S
C911 C910 1.394 . S
C911 C912 1.383 . S
C911 H919 0.929 . S
C912 C911 1.383 . S
C912 C913 1.377 . S
C913 H897 0.930 . S
C913 C912 1.377 . S
C913 C914 1.379 . S
C914 H898 0.931 . S
C914 C908 1.383 . S
C914 C913 1.379 . S
H915 C909 0.959 . S
H916 C909 0.961 . S
H917 C909 0.960 . S
H918 C910 0.930 . S
H919 C911 0.929 . S
H920 C928 0.929 . S
H921 C930 0.930 . S
H922 C932 0.930 . S
H923 C935 0.929 . S
H924 C938 0.930 . S
H925 C940 0.960 . S
H926 C940 0.960 1_655 S
H927 C940 0.960 . S
C928 H920 0.929 . S
C928 C929 1.385 . S
C928 C930 1.384 . S
C929 C928 1.385 . S
C929 C935 1.382 1_656 S
C930 H921 0.930 . S
C930 C928 1.384 . S
C930 C931 1.387 . S
C931 C930 1.387 . S
C931 C932 1.385 1_656 S
C931 C936 1.492 . S
C932 H922 0.930 . S
C932 C931 1.385 1_454 S
C932 C935 1.386 . S
H933 C949 0.930 . S
H934 C950 0.932 . S
C935 H923 0.929 . S
C935 C929 1.382 1_454 S
C935 C932 1.386 . S
C936 C931 1.492 . S
C936 C938 1.395 . S
C936 C939 1.403 1_656 S
H937 C943 0.930 . S
C938 H924 0.930 . S
C938 C936 1.395 . S
C938 C941 1.403 . S
C939 C936 1.403 1_454 S
C939 C940 1.524 . S
C939 C943 1.400 . S
C940 H925 0.960 . S
C940 H926 0.960 1_455 S
C940 H927 0.960 . S
C940 C939 1.524 . S
C941 C938 1.403 . S
C941 C942 1.396 . S
C941 C945 1.495 . S
C942 C941 1.396 . S
C942 C943 1.383 1_656 S
C942 C944 1.476 1_655 S
C943 H937 0.930 . S
C943 C939 1.400 . S
C943 C942 1.383 1_454 S
C944 C942 1.476 1_455 S
C944 C946 1.381 1_455 S
C944 C950 1.382 1_556 S
C945 C941 1.495 . S
C945 H951 0.959 . S
C945 H952 0.961 1_655 S
C945 H953 0.960 . S
C946 C944 1.381 1_655 S
C946 C947 1.394 . S
C946 H954 0.930 . S
C947 C946 1.394 . S
C947 C948 1.383 1_655 S
C947 H955 0.929 . S
C948 C947 1.383 1_455 S
C948 C949 1.377 1_556 S
C949 H933 0.930 . S
C949 C948 1.377 1_554 S
C949 C950 1.380 . S
C950 H934 0.932 . S
C950 C944 1.382 1_554 S
C950 C949 1.380 . S
H951 C945 0.959 . S
H952 C945 0.961 1_455 S
H953 C945 0.960 . S
H954 C946 0.930 . S
H955 C947 0.929 . S
H956 C964 0.929 . S
H957 C966 0.930 . S
H958 C968 0.930 . S
H959 C971 0.929 . S
H960 C974 0.930 . S
H961 C976 0.960 . S
H962 C976 0.960 . S
H963 C976 0.960 . S
C964 H956 0.929 . S
C964 C965 1.377 . S
C964 C966 1.384 . S
C965 C964 1.377 . S
C965 C971 1.390 . S
C966 H957 0.930 . S
C966 C964 1.384 . S
C966 C967 1.372 . S
C967 C966 1.372 . S
C967 C968 1.400 . S
C967 C972 1.490 . S
C968 H958 0.930 . S
C968 C967 1.400 . S
C968 C971 1.386 . S
H969 C985 0.930 1_545 S
H970 C986 0.931 . S
C971 H959 0.929 . S
C971 C965 1.390 . S
C971 C968 1.386 . S
C972 C967 1.490 . S
C972 C974 1.395 . S
C972 C975 1.403 . S
H973 C979 0.930 . S
C974 H960 0.930 . S
C974 C972 1.395 . S
C974 C977 1.403 . S
C975 C972 1.403 . S
C975 C976 1.524 . S
C975 C979 1.400 . S
C976 H961 0.960 . S
C976 H962 0.960 . S
C976 H963 0.960 . S
C976 C975 1.524 . S
C977 C974 1.403 . S
C977 C978 1.392 . S
C977 C981 1.495 . S
C978 C977 1.392 . S
C978 C979 1.385 . S
C978 C980 1.478 . S
C979 H973 0.930 . S
C979 C975 1.400 . S
C979 C978 1.385 . S
C980 C978 1.478 . S
C980 C982 1.381 . S
C980 C986 1.383 . S
C981 C977 1.495 . S
C981 H987 0.959 . S
C981 H988 0.961 . S
C981 H989 0.960 . S
C982 C980 1.381 . S
C982 C983 1.394 . S
C982 H990 0.930 . S
C983 C982 1.394 . S
C983 C984 1.383 1_565 S
C983 H991 0.929 1_565 S
C984 C983 1.383 1_545 S
C984 C985 1.377 1_545 S
C985 H969 0.930 1_565 S
C985 C984 1.377 1_565 S
C985 C986 1.379 . S
C986 H970 0.931 . S
C986 C980 1.383 . S
C986 C985 1.379 . S
H987 C981 0.959 . S
H988 C981 0.961 . S
H989 C981 0.960 . S
H990 C982 0.930 . S
H991 C983 0.929 1_545 S
H992 C1000 0.929 1_565 S
H993 C1002 0.930 . S
H994 C1004 0.930 . S
H995 C1007 0.929 1_565 S
H996 C1010 0.930 . S
H997 C1012 0.960 . S
H998 C1012 0.960 . S
H999 C1012 0.960 . S
C1000 H992 0.929 1_545 S
C1000 C1001 1.377 1_545 S
C1000 C1002 1.384 . S
C1001 C1000 1.377 1_565 S
C1001 C1007 1.390 1_565 S
C1002 H993 0.930 . S
C1002 C1000 1.384 . S
C1002 C1003 1.372 . S
C1003 C1002 1.372 . S
C1003 C1004 1.400 . S
C1003 C1008 1.490 . S
C1004 H994 0.930 . S
C1004 C1003 1.400 . S
C1004 C1007 1.386 . S
H1005 C1021 0.930 . S
H1006 C1022 0.931 . S
C1007 H995 0.929 1_545 S
C1007 C1001 1.390 1_545 S
C1007 C1004 1.386 . S
C1008 C1003 1.490 . S
C1008 C1010 1.395 . S
C1008 C1011 1.403 . S
H1009 C1015 0.930 . S
C1010 H996 0.930 . S
C1010 C1008 1.395 . S
C1010 C1013 1.403 . S
C1011 C1008 1.403 . S
C1011 C1012 1.524 . S
C1011 C1015 1.400 . S
C1012 H997 0.960 . S
C1012 H998 0.960 . S
C1012 H999 0.960 . S
C1012 C1011 1.524 . S
C1013 C1010 1.403 . S
C1013 C1014 1.392 . S
C1013 C1017 1.495 . S
C1014 C1013 1.392 . S
C1014 C1015 1.385 . S
C1014 C1016 1.478 . S
C1015 H1009 0.930 . S
C1015 C1011 1.400 . S
C1015 C1014 1.385 . S
C1016 C1014 1.478 . S
C1016 C1018 1.381 . S
C1016 C1022 1.383 . S
C1017 C1013 1.495 . S
C1017 H1023 0.959 . S
C1017 H1024 0.961 . S
C1017 H1025 0.960 . S
C1018 C1016 1.381 . S
C1018 C1019 1.394 . S
C1018 H1026 0.930 . S
C1019 C1018 1.394 . S
C1019 C1020 1.383 . S
C1019 H1027 0.929 . S
C1020 C1019 1.383 . S
C1020 C1021 1.377 . S
C1021 H1005 0.930 . S
C1021 C1020 1.377 . S
C1021 C1022 1.379 . S
C1022 H1006 0.931 . S
C1022 C1016 1.383 . S
C1022 C1021 1.379 . S
H1023 C1017 0.959 . S
H1024 C1017 0.961 . S
H1025 C1017 0.960 . S
H1026 C1018 0.930 . S
H1027 C1019 0.929 . S
H1028 C1036 0.929 . S
H1029 C1038 0.930 . S
H1030 C1040 0.930 . S
H1031 C1043 0.929 . S
H1032 C1046 0.930 . S
H1033 C1048 0.960 . S
H1034 C1048 0.960 . S
H1035 C1048 0.960 . S
C1036 H1028 0.929 . S
C1036 C1037 1.377 . S
C1036 C1038 1.384 . S
C1037 C1036 1.377 . S
C1037 C1043 1.390 1_455 S
C1038 H1029 0.930 . S
C1038 C1036 1.384 . S
C1038 C1039 1.372 . S
C1039 C1038 1.372 . S
C1039 C1040 1.400 1_455 S
C1039 C1044 1.490 . S
C1040 H1030 0.930 . S
C1040 C1039 1.400 1_655 S
C1040 C1043 1.386 . S
H1041 C1057 0.930 . S
H1042 C1058 0.931 . S
C1043 H1031 0.929 . S
C1043 C1037 1.390 1_655 S
C1043 C1040 1.386 . S
C1044 C1039 1.490 . S
C1044 C1046 1.395 . S
C1044 C1047 1.403 1_455 S
H1045 C1051 0.930 . S
C1046 H1032 0.930 . S
C1046 C1044 1.395 . S
C1046 C1049 1.403 1_565 S
C1047 C1044 1.403 1_655 S
C1047 C1048 1.524 . S
C1047 C1051 1.400 1_565 S
C1048 H1033 0.960 . S
C1048 H1034 0.960 . S
C1048 H1035 0.960 . S
C1048 C1047 1.524 . S
C1049 C1046 1.403 1_545 S
C1049 C1050 1.392 . S
C1049 C1053 1.495 . S
C1050 C1049 1.392 . S
C1050 C1051 1.385 1_455 S
C1050 C1052 1.478 . S
C1051 H1045 0.930 . S
C1051 C1047 1.400 1_545 S
C1051 C1050 1.385 1_655 S
C1052 C1050 1.478 . S
C1052 C1054 1.381 . S
C1052 C1058 1.383 1_455 S
C1053 C1049 1.495 . S
C1053 H1059 0.959 . S
C1053 H1060 0.961 . S
C1053 H1061 0.960 . S
C1054 C1052 1.381 . S
C1054 C1055 1.394 . S
C1054 H1062 0.930 . S
C1055 C1054 1.394 . S
C1055 C1056 1.383 1_455 S
C1055 H1063 0.929 . S
C1056 C1055 1.383 1_655 S
C1056 C1057 1.377 . S
C1057 H1041 0.930 . S
C1057 C1056 1.377 . S
C1057 C1058 1.379 . S
C1058 H1042 0.931 . S
C1058 C1052 1.383 1_655 S
C1058 C1057 1.379 . S
H1059 C1053 0.959 . S
H1060 C1053 0.961 . S
H1061 C1053 0.960 . S
H1062 C1054 0.930 . S
H1063 C1055 0.929 . S
H1064 C1072 0.929 1_565 S
H1065 C1074 0.930 . S
H1066 C1076 0.930 . S
H1067 C1079 0.929 1_565 S
H1068 C1082 0.930 . S
H1069 C1084 0.960 . S
H1070 C1084 0.960 . S
H1071 C1084 0.960 . S
C1072 H1064 0.929 1_545 S
C1072 C1073 1.377 1_545 S
C1072 C1074 1.384 . S
C1073 C1072 1.377 1_565 S
C1073 C1079 1.390 1_565 S
C1074 H1065 0.930 . S
C1074 C1072 1.384 . S
C1074 C1075 1.372 . S
C1075 C1074 1.372 . S
C1075 C1076 1.400 . S
C1075 C1080 1.490 . S
C1076 H1066 0.930 . S
C1076 C1075 1.400 . S
C1076 C1079 1.386 . S
H1077 C1093 0.930 . S
H1078 C1094 0.931 . S
C1079 H1067 0.929 1_545 S
C1079 C1073 1.390 1_545 S
C1079 C1076 1.386 . S
C1080 C1075 1.490 . S
C1080 C1082 1.395 . S
C1080 C1083 1.403 . S
H1081 C1087 0.930 . S
C1082 H1068 0.930 . S
C1082 C1080 1.395 . S
C1082 C1085 1.403 . S
C1083 C1080 1.403 . S
C1083 C1084 1.524 . S
C1083 C1087 1.400 . S
C1084 H1069 0.960 . S
C1084 H1070 0.960 . S
C1084 H1071 0.960 . S
C1084 C1083 1.524 . S
C1085 C1082 1.403 . S
C1085 C1086 1.392 . S
C1085 C1089 1.495 . S
C1086 C1085 1.392 . S
C1086 C1087 1.385 . S
C1086 C1088 1.478 . S
C1087 H1081 0.930 . S
C1087 C1083 1.400 . S
C1087 C1086 1.385 . S
C1088 C1086 1.478 . S
C1088 C1090 1.381 . S
C1088 C1094 1.383 . S
C1089 C1085 1.495 . S
C1089 H1095 0.959 . S
C1089 H1096 0.961 . S
C1089 H1097 0.960 . S
C1090 C1088 1.381 . S
C1090 C1091 1.394 . S
C1090 H1098 0.930 . S
C1091 C1090 1.394 . S
C1091 C1092 1.383 . S
C1091 H1099 0.929 . S
C1092 C1091 1.383 . S
C1092 C1093 1.377 . S
C1093 H1077 0.930 . S
C1093 C1092 1.377 . S
C1093 C1094 1.379 . S
C1094 H1078 0.931 . S
C1094 C1088 1.383 . S
C1094 C1093 1.379 . S
H1095 C1089 0.959 . S
H1096 C1089 0.961 . S
H1097 C1089 0.960 . S
H1098 C1090 0.930 . S
H1099 C1091 0.929 . S
H1100 C1108 0.929 . S
H1101 C1110 0.930 . S
H1102 C1112 0.930 . S
H1103 C1115 0.929 . S
H1104 C1118 0.930 . S
H1105 C1120 0.960 . S
H1106 C1120 0.960 . S
H1107 C1120 0.960 . S
C1108 H1100 0.929 . S
C1108 C1109 1.377 . S
C1108 C1110 1.384 . S
C1109 C1108 1.377 . S
C1109 C1115 1.390 . S
C1110 H1101 0.930 . S
C1110 C1108 1.384 . S
C1110 C1111 1.372 . S
C1111 C1110 1.372 . S
C1111 C1112 1.400 . S
C1111 C1116 1.490 . S
C1112 H1102 0.930 . S
C1112 C1111 1.400 . S
C1112 C1115 1.386 . S
H1113 C1129 0.930 1_545 S
H1114 C1130 0.931 . S
C1115 H1103 0.929 . S
C1115 C1109 1.390 . S
C1115 C1112 1.386 . S
C1116 C1111 1.490 . S
C1116 C1118 1.395 . S
C1116 C1119 1.403 . S
H1117 C1123 0.930 . S
C1118 H1104 0.930 . S
C1118 C1116 1.395 . S
C1118 C1121 1.403 . S
C1119 C1116 1.403 . S
C1119 C1120 1.524 . S
C1119 C1123 1.400 . S
C1120 H1105 0.960 . S
C1120 H1106 0.960 . S
C1120 H1107 0.960 . S
C1120 C1119 1.524 . S
C1121 C1118 1.403 . S
C1121 C1122 1.392 . S
C1121 C1125 1.495 . S
C1122 C1121 1.392 . S
C1122 C1123 1.385 . S
C1122 C1124 1.478 . S
C1123 H1117 0.930 . S
C1123 C1119 1.400 . S
C1123 C1122 1.385 . S
C1124 C1122 1.478 . S
C1124 C1126 1.381 . S
C1124 C1130 1.383 . S
C1125 C1121 1.495 . S
C1125 H1131 0.959 . S
C1125 H1132 0.961 . S
C1125 H1133 0.960 . S
C1126 C1124 1.381 . S
C1126 C1127 1.394 . S
C1126 H1134 0.930 . S
C1127 C1126 1.394 . S
C1127 C1128 1.383 1_565 S
C1127 H1135 0.929 1_565 S
C1128 C1127 1.383 1_545 S
C1128 C1129 1.377 1_545 S
C1129 H1113 0.930 1_565 S
C1129 C1128 1.377 1_565 S
C1129 C1130 1.379 . S
C1130 H1114 0.931 . S
C1130 C1124 1.383 . S
C1130 C1129 1.379 . S
H1131 C1125 0.959 . S
H1132 C1125 0.961 . S
H1133 C1125 0.960 . S
H1134 C1126 0.930 . S
H1135 C1127 0.929 1_545 S
H1136 C1144 0.929 . S
H1137 C1146 0.930 . S
H1138 C1148 0.930 . S
H1139 C1151 0.929 . S
H1140 C1154 0.930 . S
H1141 C1156 0.960 . S
H1142 C1156 0.960 . S
H1143 C1156 0.960 . S
C1144 H1136 0.929 . S
C1144 C1145 1.377 . S
C1144 C1146 1.384 . S
C1145 C1144 1.377 . S
C1145 C1151 1.390 . S
C1146 H1137 0.930 . S
C1146 C1144 1.384 . S
C1146 C1147 1.372 . S
C1147 C1146 1.372 . S
C1147 C1148 1.400 . S
C1147 C1152 1.490 . S
C1148 H1138 0.930 . S
C1148 C1147 1.400 . S
C1148 C1151 1.386 . S
H1149 C1165 0.930 . S
H1150 C1166 0.931 . S
C1151 H1139 0.929 . S
C1151 C1145 1.390 . S
C1151 C1148 1.386 . S
C1152 C1147 1.490 . S
C1152 C1154 1.395 . S
C1152 C1155 1.403 . S
H1153 C1159 0.930 . S
C1154 H1140 0.930 . S
C1154 C1152 1.395 . S
C1154 C1157 1.403 . S
C1155 C1152 1.403 . S
C1155 C1156 1.524 . S
C1155 C1159 1.400 . S
C1156 H1141 0.960 . S
C1156 H1142 0.960 . S
C1156 H1143 0.960 . S
C1156 C1155 1.524 . S
C1157 C1154 1.403 . S
C1157 C1158 1.392 . S
C1157 C1161 1.495 . S
C1158 C1157 1.392 . S
C1158 C1159 1.385 . S
C1158 C1160 1.478 . S
C1159 H1153 0.930 . S
C1159 C1155 1.400 . S
C1159 C1158 1.385 . S
C1160 C1158 1.478 . S
C1160 C1162 1.381 . S
C1160 C1166 1.383 . S
C1161 C1157 1.495 . S
C1161 H1167 0.959 . S
C1161 H1168 0.961 . S
C1161 H1169 0.960 . S
C1162 C1160 1.381 . S
C1162 C1163 1.394 . S
C1162 H1170 0.930 . S
C1163 C1162 1.394 . S
C1163 C1164 1.383 . S
C1163 H1171 0.929 . S
C1164 C1163 1.383 . S
C1164 C1165 1.377 . S
C1165 H1149 0.930 . S
C1165 C1164 1.377 . S
C1165 C1166 1.379 . S
C1166 H1150 0.931 . S
C1166 C1160 1.383 . S
C1166 C1165 1.379 . S
H1167 C1161 0.959 . S
H1168 C1161 0.961 . S
H1169 C1161 0.960 . S
H1170 C1162 0.930 . S
H1171 C1163 0.929 . S
H1172 C1180 0.929 . S
H1173 C1182 0.930 . S
H1174 C1184 0.930 . S
H1175 C1187 0.929 . S
H1176 C1190 0.930 . S
H1177 C1192 0.960 . S
H1178 C1192 0.960 . S
H1179 C1192 0.960 . S
C1180 H1172 0.929 . S
C1180 C1181 1.375 1_554 S
C1180 C1182 1.384 . S
C1181 C1180 1.375 1_556 S
C1181 C1187 1.392 . S
C1182 H1173 0.930 . S
C1182 C1180 1.384 . S
C1182 C1183 1.370 1_554 S
C1183 C1182 1.370 1_556 S
C1183 C1184 1.401 . S
C1183 C1188 1.490 . S
C1184 H1174 0.930 . S
C1184 C1183 1.401 . S
C1184 C1187 1.386 . S
H1185 C1201 0.930 . S
H1186 C1202 0.931 . S
C1187 H1175 0.929 . S
C1187 C1181 1.392 . S
C1187 C1184 1.386 . S
C1188 C1183 1.490 . S
C1188 C1190 1.395 . S
C1188 C1191 1.403 1_556 S
H1189 C1195 0.930 . S
C1190 H1176 0.930 . S
C1190 C1188 1.395 . S
C1190 C1193 1.403 1_565 S
C1191 C1188 1.403 1_554 S
C1191 C1192 1.524 . S
C1191 C1195 1.400 1_565 S
C1192 H1177 0.960 . S
C1192 H1178 0.960 . S
C1192 H1179 0.960 . S
C1192 C1191 1.524 . S
C1193 C1190 1.403 1_545 S
C1193 C1194 1.392 . S
C1193 C1197 1.495 . S
C1194 C1193 1.392 . S
C1194 C1195 1.385 1_556 S
C1194 C1196 1.478 . S
C1195 H1189 0.930 . S
C1195 C1191 1.400 1_545 S
C1195 C1194 1.385 1_554 S
C1196 C1194 1.478 . S
C1196 C1198 1.375 1_556 S
C1196 C1202 1.383 . S
C1197 C1193 1.495 . S
C1197 H1203 0.959 . S
C1197 H1204 0.961 . S
C1197 H1205 0.960 . S
C1198 C1196 1.375 1_554 S
C1198 C1199 1.396 . S
C1198 H1206 0.935 . S
C1199 C1198 1.396 . S
C1199 C1200 1.383 1_554 S
C1199 H1207 0.929 . S
C1200 C1199 1.383 1_556 S
C1200 C1201 1.377 . S
C1201 H1185 0.930 . S
C1201 C1200 1.377 . S
C1201 C1202 1.379 . S
C1202 H1186 0.931 . S
C1202 C1196 1.383 . S
C1202 C1201 1.379 . S
H1203 C1197 0.959 . S
H1204 C1197 0.961 . S
H1205 C1197 0.960 . S
H1206 C1198 0.935 . S
H1207 C1199 0.929 . S
H1208 C1216 0.929 . S
H1209 C1218 0.930 . S
H1210 C1220 0.930 . S
H1211 C1223 0.929 . S
H1212 C1226 0.930 . S
H1213 C1228 0.960 . S
H1214 C1228 0.960 1_554 S
H1215 C1228 0.960 . S
C1216 H1208 0.929 . S
C1216 C1217 1.377 . S
C1216 C1218 1.384 . S
C1217 C1216 1.377 . S
C1217 C1223 1.390 1_554 S
C1218 H1209 0.930 . S
C1218 C1216 1.384 . S
C1218 C1219 1.372 . S
C1219 C1218 1.372 . S
C1219 C1220 1.400 1_554 S
C1219 C1224 1.490 . S
C1220 H1210 0.930 . S
C1220 C1219 1.400 1_556 S
C1220 C1223 1.386 . S
H1221 C1237 0.930 . S
H1222 C1238 0.931 . S
C1223 H1211 0.929 . S
C1223 C1217 1.390 1_556 S
C1223 C1220 1.386 . S
C1224 C1219 1.490 . S
C1224 C1226 1.395 . S
C1224 C1227 1.403 . S
H1225 C1231 0.930 1_556 S
C1226 H1212 0.930 . S
C1226 C1224 1.395 . S
C1226 C1229 1.403 . S
C1227 C1224 1.403 . S
C1227 C1228 1.524 1_554 S
C1227 C1231 1.400 . S
C1228 H1213 0.960 . S
C1228 H1214 0.960 1_556 S
C1228 H1215 0.960 . S
C1228 C1227 1.524 1_556 S
C1229 C1226 1.403 . S
C1229 C1230 1.392 . S
C1229 C1233 1.495 . S
C1230 C1229 1.392 . S
C1230 C1231 1.385 . S
C1230 C1232 1.478 . S
C1231 H1225 0.930 1_554 S
C1231 C1227 1.400 . S
C1231 C1230 1.385 . S
C1232 C1230 1.478 . S
C1232 C1234 1.381 . S
C1232 C1238 1.383 1_554 S
C1233 C1229 1.495 . S
C1233 H1239 0.959 . S
C1233 H1240 0.961 . S
C1233 H1241 0.960 . S
C1234 C1232 1.381 . S
C1234 C1235 1.394 . S
C1234 H1242 0.930 . S
C1235 C1234 1.394 . S
C1235 C1236 1.383 . S
C1235 H1243 0.929 . S
C1236 C1235 1.383 . S
C1236 C1237 1.377 1_554 S
C1237 H1221 0.930 . S
C1237 C1236 1.377 1_556 S
C1237 C1238 1.379 . S
C1238 H1222 0.931 . S
C1238 C1232 1.383 1_556 S
C1238 C1237 1.379 . S
H1239 C1233 0.959 . S
H1240 C1233 0.961 . S
H1241 C1233 0.960 . S
H1242 C1234 0.930 . S
H1243 C1235 0.929 . S
H1244 C1252 0.929 . S
H1245 C1254 0.930 . S
H1246 C1256 0.930 . S
H1247 C1259 0.929 . S
H1248 C1262 0.930 . S
H1249 C1264 0.960 . S
H1250 C1264 0.960 . S
H1251 C1264 0.960 . S
C1252 H1244 0.929 . S
C1252 C1253 1.377 1_556 S
C1252 C1254 1.384 . S
C1253 C1252 1.377 1_554 S
C1253 C1259 1.390 . S
C1254 H1245 0.930 . S
C1254 C1252 1.384 . S
C1254 C1255 1.372 1_556 S
C1255 C1254 1.372 1_554 S
C1255 C1256 1.400 . S
C1255 C1260 1.490 . S
C1256 H1246 0.930 . S
C1256 C1255 1.400 . S
C1256 C1259 1.386 . S
H1257 C1273 0.930 . S
H1258 C1274 0.931 . S
C1259 H1247 0.929 . S
C1259 C1253 1.390 . S
C1259 C1256 1.386 . S
C1260 C1255 1.490 . S
C1260 C1262 1.395 . S
C1260 C1263 1.403 1_554 S
H1261 C1267 0.930 . S
C1262 H1248 0.930 . S
C1262 C1260 1.395 . S
C1262 C1265 1.403 . S
C1263 C1260 1.403 1_556 S
C1263 C1264 1.524 . S
C1263 C1267 1.400 . S
C1264 H1249 0.960 . S
C1264 H1250 0.960 . S
C1264 H1251 0.960 . S
C1264 C1263 1.524 . S
C1265 C1262 1.403 . S
C1265 C1266 1.392 . S
C1265 C1269 1.495 . S
C1266 C1265 1.392 . S
C1266 C1267 1.385 1_554 S
C1266 C1268 1.478 . S
C1267 H1261 0.930 . S
C1267 C1263 1.400 . S
C1267 C1266 1.385 1_556 S
C1268 C1266 1.478 . S
C1268 C1270 1.381 1_554 S
C1268 C1274 1.383 . S
C1269 C1265 1.495 . S
C1269 H1275 0.959 . S
C1269 H1276 0.961 . S
C1269 H1277 0.960 . S
C1270 C1268 1.381 1_556 S
C1270 C1271 1.394 . S
C1270 H1278 0.930 . S
C1271 C1270 1.394 . S
C1271 C1272 1.383 1_556 S
C1271 H1279 0.929 . S
C1272 C1271 1.383 1_554 S
C1272 C1273 1.377 . S
C1273 H1257 0.930 . S
C1273 C1272 1.377 . S
C1273 C1274 1.379 . S
C1274 H1258 0.931 . S
C1274 C1268 1.383 . S
C1274 C1273 1.379 . S
H1275 C1269 0.959 . S
H1276 C1269 0.961 . S
H1277 C1269 0.960 . S
H1278 C1270 0.930 . S
H1279 C1271 0.929 . S
H1280 C1288 0.929 . S
H1281 C1290 0.930 . S
H1282 C1292 0.930 . S
H1283 C1295 0.929 . S
H1284 C1298 0.930 . S
H1285 C1300 0.960 . S
H1286 C1300 0.960 . S
H1287 C1300 0.960 . S
C1288 H1280 0.929 . S
C1288 C1289 1.377 . S
C1288 C1290 1.384 . S
C1289 C1288 1.377 . S
C1289 C1295 1.390 . S
C1290 H1281 0.930 . S
C1290 C1288 1.384 . S
C1290 C1291 1.372 . S
C1291 C1290 1.372 . S
C1291 C1292 1.400 . S
C1291 C1296 1.490 . S
C1292 H1282 0.930 . S
C1292 C1291 1.400 . S
C1292 C1295 1.386 . S
H1293 C1309 0.930 . S
H1294 C1310 0.931 . S
C1295 H1283 0.929 . S
C1295 C1289 1.390 . S
C1295 C1292 1.386 . S
C1296 C1291 1.490 . S
C1296 C1298 1.395 . S
C1296 C1299 1.403 . S
H1297 C1303 0.930 . S
C1298 H1284 0.930 . S
C1298 C1296 1.395 . S
C1298 C1301 1.403 1_455 S
C1299 C1296 1.403 . S
C1299 C1300 1.524 . S
C1299 C1303 1.400 1_455 S
C1300 H1285 0.960 . S
C1300 H1286 0.960 . S
C1300 H1287 0.960 . S
C1300 C1299 1.524 . S
C1301 C1298 1.403 1_655 S
C1301 C1302 1.392 . S
C1301 C1305 1.495 . S
C1302 C1301 1.392 . S
C1302 C1303 1.385 . S
C1302 C1304 1.478 . S
C1303 H1297 0.930 . S
C1303 C1299 1.400 1_655 S
C1303 C1302 1.385 . S
C1304 C1302 1.478 . S
C1304 C1306 1.381 . S
C1304 C1310 1.383 . S
C1305 C1301 1.495 . S
C1305 H1311 0.959 . S
C1305 H1312 0.961 . S
C1305 H1313 0.960 . S
C1306 C1304 1.381 . S
C1306 C1307 1.394 . S
C1306 H1314 0.930 . S
C1307 C1306 1.394 . S
C1307 C1308 1.383 . S
C1307 H1315 0.929 . S
C1308 C1307 1.383 . S
C1308 C1309 1.377 . S
C1309 H1293 0.930 . S
C1309 C1308 1.377 . S
C1309 C1310 1.379 . S
C1310 H1294 0.931 . S
C1310 C1304 1.383 . S
C1310 C1309 1.379 . S
H1311 C1305 0.959 . S
H1312 C1305 0.961 . S
H1313 C1305 0.960 . S
H1314 C1306 0.930 . S
H1315 C1307 0.929 . S
H1316 C1324 0.929 . S
H1317 C1326 0.930 . S
H1318 C1328 0.930 . S
H1319 C1331 0.929 . S
H1320 C1334 0.930 . S
H1321 C1336 0.960 . S
H1322 C1336 0.960 . S
H1323 C1336 0.960 . S
C1324 H1316 0.929 . S
C1324 C1325 1.377 . S
C1324 C1326 1.384 . S
C1325 C1324 1.377 . S
C1325 C1331 1.390 . S
C1326 H1317 0.930 . S
C1326 C1324 1.384 . S
C1326 C1327 1.372 . S
C1327 C1326 1.372 . S
C1327 C1328 1.400 . S
C1327 C1332 1.490 . S
C1328 H1318 0.930 . S
C1328 C1327 1.400 . S
C1328 C1331 1.386 . S
H1329 C1345 0.930 . S
H1330 C1346 0.931 . S
C1331 H1319 0.929 . S
C1331 C1325 1.390 . S
C1331 C1328 1.386 . S
C1332 C1327 1.490 . S
C1332 C1334 1.395 . S
C1332 C1335 1.403 . S
H1333 C1339 0.930 . S
C1334 H1320 0.930 . S
C1334 C1332 1.395 . S
C1334 C1337 1.403 . S
C1335 C1332 1.403 . S
C1335 C1336 1.524 . S
C1335 C1339 1.400 . S
C1336 H1321 0.960 . S
C1336 H1322 0.960 . S
C1336 H1323 0.960 . S
C1336 C1335 1.524 . S
C1337 C1334 1.403 . S
C1337 C1338 1.392 . S
C1337 C1341 1.495 . S
C1338 C1337 1.392 . S
C1338 C1339 1.385 . S
C1338 C1340 1.478 . S
C1339 H1333 0.930 . S
C1339 C1335 1.400 . S
C1339 C1338 1.385 . S
C1340 C1338 1.478 . S
C1340 C1342 1.381 . S
C1340 C1346 1.383 . S
C1341 C1337 1.495 . S
C1341 H1347 0.959 . S
C1341 H1348 0.961 . S
C1341 H1349 0.960 . S
C1342 C1340 1.381 . S
C1342 C1343 1.394 . S
C1342 H1350 0.930 . S
C1343 C1342 1.394 . S
C1343 C1344 1.383 . S
C1343 H1351 0.929 . S
C1344 C1343 1.383 . S
C1344 C1345 1.377 . S
C1345 H1329 0.930 . S
C1345 C1344 1.377 . S
C1345 C1346 1.379 . S
C1346 H1330 0.931 . S
C1346 C1340 1.383 . S
C1346 C1345 1.379 . S
H1347 C1341 0.959 . S
H1348 C1341 0.961 . S
H1349 C1341 0.960 . S
H1350 C1342 0.930 . S
H1351 C1343 0.929 . S
H1352 C1360 0.929 . S
H1353 C1362 0.930 . S
H1354 C1364 0.930 . S
H1355 C1367 0.929 . S
H1356 C1370 0.930 . S
H1357 C1372 0.960 . S
H1358 C1372 0.960 . S
H1359 C1372 0.960 . S
C1360 H1352 0.929 . S
C1360 C1361 1.377 . S
C1360 C1362 1.384 . S
C1361 C1360 1.377 . S
C1361 C1367 1.390 . S
C1362 H1353 0.930 . S
C1362 C1360 1.384 . S
C1362 C1363 1.372 . S
C1363 C1362 1.372 . S
C1363 C1364 1.400 . S
C1363 C1368 1.490 . S
C1364 H1354 0.930 . S
C1364 C1363 1.400 . S
C1364 C1367 1.386 . S
H1365 C1381 0.930 . S
H1366 C1382 0.931 . S
C1367 H1355 0.929 . S
C1367 C1361 1.390 . S
C1367 C1364 1.386 . S
C1368 C1363 1.490 . S
C1368 C1370 1.395 . S
C1368 C1371 1.403 . S
H1369 C1375 0.930 . S
C1370 H1356 0.930 . S
C1370 C1368 1.395 . S
C1370 C1373 1.403 . S
C1371 C1368 1.403 . S
C1371 C1372 1.524 . S
C1371 C1375 1.400 . S
C1372 H1357 0.960 . S
C1372 H1358 0.960 . S
C1372 H1359 0.960 . S
C1372 C1371 1.524 . S
C1373 C1370 1.403 . S
C1373 C1374 1.392 . S
C1373 C1377 1.495 . S
C1374 C1373 1.392 . S
C1374 C1375 1.385 . S
C1374 C1376 1.478 . S
C1375 H1369 0.930 . S
C1375 C1371 1.400 . S
C1375 C1374 1.385 . S
C1376 C1374 1.478 . S
C1376 C1378 1.381 . S
C1376 C1382 1.383 . S
C1377 C1373 1.495 . S
C1377 H1383 0.959 . S
C1377 H1384 0.961 . S
C1377 H1385 0.960 . S
C1378 C1376 1.381 . S
C1378 C1379 1.394 . S
C1378 H1386 0.930 . S
C1379 C1378 1.394 . S
C1379 C1380 1.383 . S
C1379 H1387 0.929 . S
C1380 C1379 1.383 . S
C1380 C1381 1.377 . S
C1381 H1365 0.930 . S
C1381 C1380 1.377 . S
C1381 C1382 1.379 . S
C1382 H1366 0.931 . S
C1382 C1376 1.383 . S
C1382 C1381 1.379 . S
H1383 C1377 0.959 . S
H1384 C1377 0.961 . S
H1385 C1377 0.960 . S
H1386 C1378 0.930 . S
H1387 C1379 0.929 . S
H1388 C1396 0.929 . S
H1389 C1398 0.930 . S
H1390 C1400 0.930 . S
H1391 C1403 0.929 . S
H1392 C1406 0.930 . S
H1393 C1408 0.960 . S
H1394 C1408 0.960 . S
H1395 C1408 0.960 . S
C1396 H1388 0.929 . S
C1396 C1397 1.377 1_565 S
C1396 C1398 1.384 . S
C1397 C1396 1.377 1_545 S
C1397 C1403 1.390 . S
C1398 H1389 0.930 . S
C1398 C1396 1.384 . S
C1398 C1399 1.372 1_565 S
C1399 C1398 1.372 1_545 S
C1399 C1400 1.400 . S
C1399 C1404 1.490 . S
C1400 H1390 0.930 . S
C1400 C1399 1.400 . S
C1400 C1403 1.386 . S
H1401 C1417 0.930 . S
H1402 C1418 0.931 . S
C1403 H1391 0.929 . S
C1403 C1397 1.390 . S
C1403 C1400 1.386 . S
C1404 C1399 1.490 . S
C1404 C1406 1.395 . S
C1404 C1407 1.403 1_545 S
H1405 C1411 0.930 . S
C1406 H1392 0.930 . S
C1406 C1404 1.395 . S
C1406 C1409 1.403 1_655 S
C1407 C1404 1.403 1_565 S
C1407 C1408 1.524 . S
C1407 C1411 1.400 1_655 S
C1408 H1393 0.960 . S
C1408 H1394 0.960 . S
C1408 H1395 0.960 . S
C1408 C1407 1.524 . S
C1409 C1406 1.403 1_455 S
C1409 C1410 1.392 1_545 S
C1409 C1413 1.495 . S
C1410 C1409 1.392 1_565 S
C1410 C1411 1.385 . S
C1410 C1412 1.478 . S
C1411 H1405 0.930 . S
C1411 C1407 1.400 1_455 S
C1411 C1410 1.385 . S
C1412 C1410 1.478 . S
C1412 C1414 1.381 . S
C1412 C1418 1.383 1_565 S
C1413 C1409 1.495 . S
C1413 H1419 0.959 . S
C1413 H1420 0.961 . S
C1413 H1421 0.960 . S
C1414 C1412 1.381 . S
C1414 C1415 1.394 . S
C1414 H1422 0.930 . S
C1415 C1414 1.394 . S
C1415 C1416 1.383 . S
C1415 H1423 0.929 . S
C1416 C1415 1.383 . S
C1416 C1417 1.377 1_565 S
C1417 H1401 0.930 . S
C1417 C1416 1.377 1_545 S
C1417 C1418 1.379 . S
C1418 H1402 0.931 . S
C1418 C1412 1.383 1_545 S
C1418 C1417 1.379 . S
H1419 C1413 0.959 . S
H1420 C1413 0.961 . S
H1421 C1413 0.960 . S
H1422 C1414 0.930 . S
H1423 C1415 0.929 . S
H1424 C1432 0.929 . S
H1425 C1434 0.930 . S
H1426 C1436 0.930 . S
H1427 C1439 0.929 . S
H1428 C1442 0.930 . S
H1429 C1444 0.960 . S
H1430 C1444 0.960 . S
H1431 C1444 0.960 . S
C1432 H1424 0.929 . S
C1432 C1433 1.377 . S
C1432 C1434 1.384 . S
C1433 C1432 1.377 . S
C1433 C1439 1.390 . S
C1434 H1425 0.930 . S
C1434 C1432 1.384 . S
C1434 C1435 1.372 . S
C1435 C1434 1.372 . S
C1435 C1436 1.400 . S
C1435 C1440 1.490 . S
C1436 H1426 0.930 . S
C1436 C1435 1.400 . S
C1436 C1439 1.386 . S
H1437 C1453 0.930 . S
H1438 C1454 0.931 . S
C1439 H1427 0.929 . S
C1439 C1433 1.390 . S
C1439 C1436 1.386 . S
C1440 C1435 1.490 . S
C1440 C1442 1.395 . S
C1440 C1443 1.403 . S
H1441 C1447 0.930 . S
C1442 H1428 0.930 . S
C1442 C1440 1.395 . S
C1442 C1445 1.403 . S
C1443 C1440 1.403 . S
C1443 C1444 1.524 . S
C1443 C1447 1.400 . S
C1444 H1429 0.960 . S
C1444 H1430 0.960 . S
C1444 H1431 0.960 . S
C1444 C1443 1.524 . S
C1445 C1442 1.403 . S
C1445 C1446 1.392 . S
C1445 C1449 1.495 . S
C1446 C1445 1.392 . S
C1446 C1447 1.385 . S
C1446 C1448 1.478 . S
C1447 H1441 0.930 . S
C1447 C1443 1.400 . S
C1447 C1446 1.385 . S
C1448 C1446 1.478 . S
C1448 C1450 1.381 . S
C1448 C1454 1.383 . S
C1449 C1445 1.495 . S
C1449 H1455 0.959 . S
C1449 H1456 0.961 . S
C1449 H1457 0.960 . S
C1450 C1448 1.381 . S
C1450 C1451 1.394 . S
C1450 H1458 0.930 . S
C1451 C1450 1.394 . S
C1451 C1452 1.383 . S
C1451 H1459 0.929 . S
C1452 C1451 1.383 . S
C1452 C1453 1.377 . S
C1453 H1437 0.930 . S
C1453 C1452 1.377 . S
C1453 C1454 1.379 . S
C1454 H1438 0.931 . S
C1454 C1448 1.383 . S
C1454 C1453 1.379 . S
H1455 C1449 0.959 . S
H1456 C1449 0.961 . S
H1457 C1449 0.960 . S
H1458 C1450 0.930 . S
H1459 C1451 0.929 . S
H1460 C1468 0.929 . S
H1461 C1470 0.930 . S
H1462 C1472 0.930 . S
H1463 C1475 0.929 . S
H1464 C1478 0.930 . S
H1465 C1480 0.960 . S
H1466 C1480 0.960 . S
H1467 C1480 0.960 . S
C1468 H1460 0.929 . S
C1468 C1469 1.377 . S
C1468 C1470 1.384 . S
C1469 C1468 1.377 . S
C1469 C1475 1.390 . S
C1470 H1461 0.930 . S
C1470 C1468 1.384 . S
C1470 C1471 1.372 . S
C1471 C1470 1.372 . S
C1471 C1472 1.400 . S
C1471 C1476 1.490 . S
C1472 H1462 0.930 . S
C1472 C1471 1.400 . S
C1472 C1475 1.386 . S
H1473 C1489 0.930 . S
H1474 C1490 0.931 . S
C1475 H1463 0.929 . S
C1475 C1469 1.390 . S
C1475 C1472 1.386 . S
C1476 C1471 1.490 . S
C1476 C1478 1.395 1_565 S
C1476 C1479 1.403 . S
H1477 C1483 0.930 . S
C1478 H1464 0.930 . S
C1478 C1476 1.395 1_545 S
C1478 C1481 1.403 . S
C1479 C1476 1.403 . S
C1479 C1480 1.524 . S
C1479 C1483 1.400 . S
C1480 H1465 0.960 . S
C1480 H1466 0.960 . S
C1480 H1467 0.960 . S
C1480 C1479 1.524 . S
C1481 C1478 1.403 . S
C1481 C1482 1.392 . S
C1481 C1485 1.495 . S
C1482 C1481 1.392 . S
C1482 C1483 1.385 1_545 S
C1482 C1484 1.478 . S
C1483 H1477 0.930 . S
C1483 C1479 1.400 . S
C1483 C1482 1.385 1_565 S
C1484 C1482 1.478 . S
C1484 C1486 1.381 . S
C1484 C1490 1.383 . S
C1485 C1481 1.495 . S
C1485 H1491 0.959 . S
C1485 H1492 0.961 . S
C1485 H1493 0.960 . S
C1486 C1484 1.381 . S
C1486 C1487 1.394 . S
C1486 H1494 0.930 . S
C1487 C1486 1.394 . S
C1487 C1488 1.383 . S
C1487 H1495 0.929 . S
C1488 C1487 1.383 . S
C1488 C1489 1.377 . S
C1489 H1473 0.930 . S
C1489 C1488 1.377 . S
C1489 C1490 1.379 . S
C1490 H1474 0.931 . S
C1490 C1484 1.383 . S
C1490 C1489 1.379 . S
H1491 C1485 0.959 . S
H1492 C1485 0.961 . S
H1493 C1485 0.960 . S
H1494 C1486 0.930 . S
H1495 C1487 0.929 . S
C353 C27 1.632 . S
C372 C76 1.757 . S
C389 C32 1.647 1_565 S
C408 C126 1.791 . S
C425 C162 1.776 . S
C444 C70 1.637 . S
C461 C118 1.646 . S
C480 C169 1.773 . S
C497 C156 1.642 . S
C516 C205 1.776 . S
C533 C248 1.776 . S
C552 C161 1.616 . S
C569 C199 1.642 . S
C588 C33 1.762 . S
C605 C242 1.641 . S
C624 C40 1.764 . S
C641 C255 1.778 . S
C660 C285 1.638 . S
C677 C290 1.634 1_565 S
C696 C212 1.765 . S
C713 C334 1.778 . S
C732 C247 1.622 . S
C749 C341 1.777 . S
C768 C204 1.638 . S
C785 C328 1.633 . S
C804 C119 1.756 . S
C821 C83 1.782 . S
C840 C333 1.662 . S
C857 C291 1.782 . S
C876 C113 1.629 . S
C893 C298 1.776 . S
C912 C75 1.672 . S
C929 C13 1.586 . S
C948 C39 1.588 . S
C965 C82 1.584 . S
C984 C56 1.562 . S
C1001 C125 1.598 . S
C1020 C99 1.619 . S
C1037 C168 1.590 . S
C1056 C142 1.615 . S
C1073 C211 1.589 . S
C1092 C185 1.550 . S
C1109 C228 1.585 . S
C1128 C254 1.559 . S
C1145 C271 1.596 . S
C1164 C297 1.578 . S
C1181 C340 1.589 . S
C1200 C314 1.605 . S
C1217 N309 1.263 . S
C1236 N3 1.296 . S
C1253 N8 1.254 . S
C1272 N304 1.232 . S
C1289 N46 1.250 . S
C1308 N94 1.296 . S
C1325 N266 1.248 . S
C1344 N132 1.207 . S
C1361 N137 1.255 . S
C1380 N261 1.279 . S
C1397 N218 1.264 . S
C1416 N175 1.265 . S
C1433 N223 1.245 . S
C1452 N180 1.261 . S
C1469 N89 1.249 . S
C1488 N51 1.215 . S
