# Generated by pormake.
# Topology nov, (5)-cn, num edge types: 1
# Building blocks:
#     Node 0, Type 0, BuildingBlock: XOMCOT_clean_sbu_0, # of connection points: 5
#     Node 1, Type 0, BuildingBlock: XOMCOT_clean_sbu_0, # of connection points: 5
#     Node 2, Type 0, BuildingBlock: XOMCOT_clean_sbu_0, # of connection points: 5
#     Node 3, Type 0, BuildingBlock: XOMCOT_clean_sbu_0, # of connection points: 5
#     Node 4, Type 0, BuildingBlock: XOMCOT_clean_sbu_0, # of connection points: 5
#     Node 5, Type 0, BuildingBlock: XOMCOT_clean_sbu_0, # of connection points: 5
#     Node 6, Type 0, BuildingBlock: XOMCOT_clean_sbu_0, # of connection points: 5
#     Node 7, Type 0, BuildingBlock: XOMCOT_clean_sbu_0, # of connection points: 5
#     Edge 8, Type (0, 0), BuildingBlock: OJICUG_clean_linker_0, # of connection points: 2
#     Edge 9, Type (0, 0), BuildingBlock: OJICUG_clean_linker_0, # of connection points: 2
#     Edge 10, Type (0, 0), BuildingBlock: OJICUG_clean_linker_0, # of connection points: 2
#     Edge 11, Type (0, 0), BuildingBlock: OJICUG_clean_linker_0, # of connection points: 2
#     Edge 12, Type (0, 0), BuildingBlock: OJICUG_clean_linker_0, # of connection points: 2
#     Edge 13, Type (0, 0), BuildingBlock: OJICUG_clean_linker_0, # of connection points: 2
#     Edge 14, Type (0, 0), BuildingBlock: OJICUG_clean_linker_0, # of connection points: 2
#     Edge 15, Type (0, 0), BuildingBlock: OJICUG_clean_linker_0, # of connection points: 2
#     Edge 16, Type (0, 0), BuildingBlock: OJICUG_clean_linker_0, # of connection points: 2
#     Edge 17, Type (0, 0), BuildingBlock: OJICUG_clean_linker_0, # of connection points: 2
#     Edge 18, Type (0, 0), BuildingBlock: OJICUG_clean_linker_0, # of connection points: 2
#     Edge 19, Type (0, 0), BuildingBlock: OJICUG_clean_linker_0, # of connection points: 2
#     Edge 20, Type (0, 0), BuildingBlock: OJICUG_clean_linker_0, # of connection points: 2
#     Edge 21, Type (0, 0), BuildingBlock: OJICUG_clean_linker_0, # of connection points: 2
#     Edge 22, Type (0, 0), BuildingBlock: OJICUG_clean_linker_0, # of connection points: 2
#     Edge 23, Type (0, 0), BuildingBlock: OJICUG_clean_linker_0, # of connection points: 2
#     Edge 24, Type (0, 0), BuildingBlock: OJICUG_clean_linker_0, # of connection points: 2
#     Edge 25, Type (0, 0), BuildingBlock: OJICUG_clean_linker_0, # of connection points: 2
#     Edge 26, Type (0, 0), BuildingBlock: OJICUG_clean_linker_0, # of connection points: 2
#     Edge 27, Type (0, 0), BuildingBlock: OJICUG_clean_linker_0, # of connection points: 2
# Relax obj value: 0.152
# Max RMSD: 0.185
# Mean RMSD: 0.185
data_MOF--net-nov--node1-XOMCOT_clean_sbu_0--edge1-OJICUG_clean_linker_0
_symmetry_space_group_name_H-M    P1
_symmetry_Int_Tables_number       1
_symmetry_cell_setting            triclinic
loop_
_symmetry_equiv_pos_as_xyz
'x, y, z'
_cell_length_a     20.020405
_cell_length_b     41.184056
_cell_length_c     21.737244
_cell_angle_alpha  89.938375
_cell_angle_beta   90.028924
_cell_angle_gamma 89.951233
loop_
_atom_site_label
_atom_site_type_symbol
_atom_site_fract_x
_atom_site_fract_y
_atom_site_fract_z
_atom_type_partial_charge
Co0 Co 0.03946 0.16629 0.1734 0.0
C1 C 0.04783 0.10512 0.09694 0.0
C2 C 0.08619 0.10005 0.18846 0.0
C3 C 0.09088 0.07051 0.15965 0.0
N4 N 0.05995 0.12197 0.14916 0.0
N5 N 0.06668 0.07365 0.10209 0.0
H6 H 0.02417 0.11496 0.05659 0.0
H7 H 0.10065 0.10525 0.23538 0.0
C8 C 0.18686 0.16038 0.1886 0.0
O9 O 0.1892 0.14799 0.13295 0.0
N10 N 0.01925 0.20963 0.2013 0.0
C11 C 0.98626 0.23343 0.17148 0.0
C12 C 0.97849 0.25932 0.21115 0.0
C13 C 0.03032 0.22101 0.25845 0.0
N14 N 1.0059 0.25131 0.26589 0.0
C15 C 0.02749 0.17955 0.04471 0.0
C16 C 0.13071 0.22379 0.03621 0.0
C17 C 0.08968 0.21869 0.98491 0.0
C18 C 0.03789 0.19607 0.98955 0.0
C19 C 0.11796 0.207 0.09104 0.0
N20 N 0.06796 0.18441 0.09448 0.0
H21 H 0.9841 0.16421 0.04812 0.0
H22 H 0.14599 0.2137 0.13147 0.0
H23 H 0.96784 0.23182 0.1248 0.0
H24 H 0.05523 0.20713 0.29402 0.0
O25 O 0.94654 0.15969 0.15405 0.0
O26 O 0.99287 0.1493 0.24454 0.0
O27 O 0.1313 0.17004 0.21102 0.0
C28 C 0.93933 0.14997 0.21049 0.0
H29 H 0.11117 0.04851 0.17954 0.0
H30 H 0.95281 0.28185 0.20108 0.0
H31 H 0.16978 0.24196 0.03508 0.0
H32 H 1.00422 0.1919 0.95133 0.0
Co33 Co 0.57466 0.8815 0.67386 0.0
C34 C 0.56507 0.94272 0.59757 0.0
C35 C 0.5198 0.9465 0.68648 0.0
C36 C 0.51458 0.97608 0.65774 0.0
N37 N 0.55042 0.92528 0.64858 0.0
N38 N 0.5431 0.97373 0.6018 0.0
H39 H 0.59334 0.9338 0.5591 0.0
H40 H 0.50311 0.94089 0.73261 0.0
C41 C 0.42682 0.88421 0.68865 0.0
O42 O 0.42374 0.89542 0.63209 0.0
N43 N 0.59881 0.83876 0.70265 0.0
C44 C 0.64417 0.81828 0.67832 0.0
C45 C 0.65299 0.79258 0.71836 0.0
C46 C 0.58058 0.82542 0.75668 0.0
N47 N 0.61282 0.79719 0.76741 0.0
C48 C 0.58334 0.86832 0.54449 0.0
C49 C 0.48704 0.8204 0.54103 0.0
C50 C 0.5226 0.82757 0.48714 0.0
C51 C 0.57111 0.852 0.4894 0.0
C52 C 0.50047 0.83759 0.59513 0.0
N53 N 0.54656 0.86211 0.59606 0.0
H54 H 0.62545 0.88452 0.54629 0.0
H55 H 0.47578 0.83006 0.63691 0.0
H56 H 0.67052 0.8223 0.63556 0.0
H57 H 0.54681 0.83692 0.78886 0.0
O58 O 0.66675 0.88973 0.65329 0.0
O59 O 0.62076 0.89977 0.74402 0.0
O60 O 0.4832 0.8764 0.71211 0.0
C61 C 0.674 0.89975 0.70954 0.0
H62 H 0.49132 0.99759 0.67662 0.0
H63 H 0.68672 0.77229 0.71222 0.0
H64 H 0.45021 0.80115 0.54181 0.0
H65 H 0.60208 0.85726 0.44978 0.0
Co66 Co 0.03709 0.88161 0.84783 0.0
C67 C 0.047 0.9426 0.92427 0.0
C68 C 0.08868 0.94709 0.83393 0.0
C69 C 0.09403 0.97657 0.86287 0.0
N70 N 0.06002 0.92556 0.87248 0.0
N71 N 0.06771 0.9738 0.91968 0.0
H72 H 0.02116 0.93313 0.96376 0.0
H73 H 0.1042 0.9417 0.78738 0.0
C74 C 0.18519 0.88532 0.83408 0.0
O75 O 0.18769 0.89753 0.88986 0.0
N76 N 1.01432 0.83862 0.81985 0.0
C77 C 0.96901 0.8181 0.84411 0.0
C78 C 0.96081 0.79231 0.80429 0.0
C79 C 0.03314 0.82521 0.76611 0.0
N80 N 1.00132 0.7969 0.75546 0.0
C81 C 0.02319 0.86823 0.9764 0.0
C82 C 0.12431 0.82279 0.98538 0.0
C83 C 0.08368 0.82857 0.03666 0.0
C84 C 0.03275 0.85167 0.0317 0.0
C85 C 0.11229 0.83957 0.93039 0.0
N86 N 0.06365 0.86289 0.92682 0.0
H87 H 0.98055 0.88408 0.9728 0.0
H88 H 0.14001 0.83247 0.89004 0.0
H89 H 0.9421 0.8222 0.88653 0.0
H90 H 0.06686 0.83676 0.73393 0.0
O91 O 0.9445 0.88975 0.86648 0.0
O92 O 0.99201 0.8993 0.77627 0.0
O93 O 0.12924 0.87657 0.81108 0.0
C94 C 0.93817 0.89945 0.80994 0.0
H95 H 0.11604 0.99829 0.84355 0.0
H96 H 0.92712 0.77201 0.81033 0.0
H97 H 0.16262 0.80421 0.98676 0.0
H98 H 0.99929 0.8563 0.06986 0.0
Co99 Co 0.57563 0.16658 0.34867 0.0
C100 C 0.5658 0.10547 0.42542 0.0
C101 C 0.52812 0.10056 0.33363 0.0
C102 C 0.52291 0.07103 0.36247 0.0
N103 N 0.55434 0.12236 0.37305 0.0
N104 N 0.5467 0.07407 0.42017 0.0
H105 H 0.58914 0.11522 0.46596 0.0
H106 H 0.51405 0.10583 0.28662 0.0
C107 C 0.42805 0.16128 0.33449 0.0
O108 O 0.42597 0.14907 0.39033 0.0
N109 N 0.59672 0.20983 0.3208 0.0
C110 C 0.64117 0.23073 0.34519 0.0
C111 C 0.64883 0.25652 0.30519 0.0
C112 C 0.57785 0.22303 0.26679 0.0
N113 N 0.60885 0.25155 0.2561 0.0
C114 C 0.58864 0.17981 0.47725 0.0
C115 C 0.48631 0.22462 0.4858 0.0
C116 C 0.52714 0.21916 0.53714 0.0
C117 C 0.57859 0.19633 0.53244 0.0
C118 C 0.49876 0.20785 0.43096 0.0
N119 N 0.54812 0.1849 0.42757 0.0
H120 H 0.63162 0.16416 0.47382 0.0
H121 H 0.47081 0.21471 0.39053 0.0
H122 H 0.668 0.22685 0.38778 0.0
H123 H 0.54485 0.21115 0.23442 0.0
O124 O 0.66844 0.15929 0.36762 0.0
O125 O 0.62149 0.14947 0.27723 0.0
O126 O 0.48354 0.17074 0.31164 0.0
C127 C 0.67521 0.14974 0.31107 0.0
H128 H 0.5026 0.04909 0.34251 0.0
H129 H 0.68191 0.27705 0.31121 0.0
H130 H 0.44755 0.24297 0.48697 0.0
H131 H 0.61214 0.19191 0.57067 0.0
Co132 Co 0.53833 0.66629 0.17347 0.0
C133 C 0.54704 0.60513 0.09695 0.0
C134 C 0.5849 0.60004 0.18865 0.0
C135 C 0.58977 0.57051 0.15983 0.0
N136 N 0.55885 0.62196 0.14926 0.0
N137 N 0.56588 0.57366 0.10217 0.0
H138 H 0.52365 0.61499 0.05648 0.0
H139 H 0.59914 0.60523 0.23563 0.0
C140 C 0.68571 0.66037 0.18872 0.0
O141 O 0.68806 0.64797 0.13308 0.0
N142 N 0.51811 0.70963 0.20136 0.0
C143 C 0.48512 0.73343 0.17154 0.0
C144 C 0.47734 0.75932 0.21122 0.0
C145 C 0.52918 0.721 0.25852 0.0
N146 N 0.50475 0.75131 0.26596 0.0
C147 C 0.52641 0.67954 0.04479 0.0
C148 C 0.62961 0.72381 0.03633 0.0
C149 C 0.58859 0.71871 0.98502 0.0
C150 C 0.53681 0.69608 0.98964 0.0
C151 C 0.61686 0.707 0.09115 0.0
N152 N 0.56686 0.6844 0.09457 0.0
H153 H 0.48304 0.66418 0.04817 0.0
H154 H 0.64488 0.7137 0.13159 0.0
H155 H 0.4667 0.73182 0.12487 0.0
H156 H 0.55409 0.70712 0.29409 0.0
O157 O 0.44542 0.65968 0.15409 0.0
O158 O 0.49172 0.64931 0.2446 0.0
O159 O 0.63016 0.67004 0.21113 0.0
C160 C 0.43818 0.64997 0.21054 0.0
H161 H 0.60998 0.54852 0.17979 0.0
H162 H 0.45167 0.78185 0.20115 0.0
H163 H 0.66868 0.74198 0.03521 0.0
H164 H 0.50316 0.69191 0.95141 0.0
Co165 Co 0.07557 0.38149 0.67383 0.0
C166 C 0.06554 0.4427 0.59751 0.0
C167 C 0.02086 0.44648 0.68668 0.0
C168 C 0.01541 0.47606 0.65794 0.0
N169 N 0.05127 0.42527 0.64863 0.0
N170 N 0.04356 0.4737 0.60185 0.0
H171 H 0.0935 0.43377 0.55885 0.0
H172 H 1.00443 0.44087 0.73288 0.0
C173 C 0.92775 0.3842 0.68863 0.0
O174 O 0.92468 0.39543 0.63209 0.0
N175 N 0.09976 0.33874 0.70255 0.0
C176 C 0.14515 0.31828 0.67821 0.0
C177 C 0.154 0.29258 0.71823 0.0
C178 C 0.08155 0.32538 0.75657 0.0
N179 N 0.11382 0.29716 0.76728 0.0
C180 C 0.08429 0.36834 0.54446 0.0
C181 C 0.98802 0.32041 0.54093 0.0
C182 C 0.02362 0.32758 0.48706 0.0
C183 C 0.07211 0.35202 0.48935 0.0
C184 C 1.0014 0.3376 0.59504 0.0
N185 N 0.04748 0.36212 0.596 0.0
H186 H 0.12638 0.38456 0.54628 0.0
H187 H 0.97669 0.33007 0.6368 0.0
H188 H 0.1715 0.32232 0.63545 0.0
H189 H 0.04777 0.33687 0.78876 0.0
O190 O 0.16765 0.38975 0.65326 0.0
O191 O 0.12166 0.39974 0.74401 0.0
O192 O 0.98412 0.37636 0.71207 0.0
C193 C 0.1749 0.39975 0.70952 0.0
H194 H 0.99223 0.49756 0.67694 0.0
H195 H 0.18776 0.2723 0.71208 0.0
H196 H 0.9512 0.30116 0.54169 0.0
H197 H 0.1031 0.35729 0.44975 0.0
Co198 Co 0.538 0.38164 0.84778 0.0
C199 C 0.54752 0.44262 0.92423 0.0
C200 C 0.58972 0.44711 0.83409 0.0
C201 C 0.59486 0.4766 0.86306 0.0
N202 N 0.56089 0.42557 0.87252 0.0
N203 N 0.56822 0.47382 0.91974 0.0
H204 H 0.52141 0.43315 0.96357 0.0
H205 H 0.60547 0.44174 0.78761 0.0
C206 C 0.68611 0.38534 0.83405 0.0
O207 O 0.68862 0.39753 0.88986 0.0
N208 N 0.51525 0.33865 0.81973 0.0
C209 C 0.46996 0.31812 0.84396 0.0
C210 C 0.4618 0.29233 0.80411 0.0
C211 C 0.5341 0.32526 0.76597 0.0
N212 N 0.5023 0.29695 0.75529 0.0
C213 C 0.52411 0.36819 0.97633 0.0
C214 C 0.62528 0.32278 0.98526 0.0
C215 C 0.58467 0.32855 0.03656 0.0
C216 C 0.53372 0.35164 0.03163 0.0
C217 C 0.61322 0.33957 0.93028 0.0
N218 N 0.56457 0.36288 0.92674 0.0
H219 H 0.48145 0.38403 0.97276 0.0
H220 H 0.64093 0.33248 0.88991 0.0
H221 H 0.44305 0.3222 0.88639 0.0
H222 H 0.56782 0.33683 0.73381 0.0
O223 O 0.4454 0.38974 0.86643 0.0
O224 O 0.49291 0.39935 0.77625 0.0
O225 O 0.63015 0.37662 0.81103 0.0
C226 C 0.43907 0.39948 0.80991 0.0
H227 H 0.61693 0.49833 0.84383 0.0
H228 H 0.42813 0.27203 0.81013 0.0
H229 H 0.6636 0.3042 0.9866 0.0
H230 H 0.50026 0.35625 0.0698 0.0
Co231 Co 0.0745 0.66659 0.34876 0.0
C232 C 0.06499 0.60546 0.42543 0.0
C233 C 0.02684 0.60058 0.3338 0.0
C234 C 0.0218 0.57103 0.36262 0.0
N235 N 0.05324 0.62237 0.37313 0.0
N236 N 0.04588 0.57405 0.42022 0.0
H237 H 0.08858 0.6152 0.46586 0.0
H238 H 1.01258 0.60586 0.28684 0.0
C239 C 0.92691 0.6613 0.33461 0.0
O240 O 0.92483 0.64909 0.39046 0.0
N241 N 0.09557 0.70984 0.32089 0.0
C242 C 0.14 0.73074 0.34531 0.0
C243 C 0.14767 0.75654 0.30532 0.0
C244 C 0.07672 0.72305 0.26689 0.0
N245 N 0.10771 0.75158 0.25622 0.0
C246 C 0.08756 0.67981 0.47733 0.0
C247 C 0.9852 0.7246 0.48596 0.0
C248 C 0.02605 0.71913 0.53728 0.0
C249 C 0.07751 0.69631 0.53254 0.0
C250 C 0.99764 0.70785 0.43109 0.0
N251 N 0.04702 0.6849 0.42767 0.0
H252 H 0.13057 0.66418 0.47387 0.0
H253 H 0.96968 0.71471 0.39068 0.0
H254 H 0.16682 0.72687 0.3879 0.0
H255 H 0.04374 0.71117 0.23449 0.0
O256 O 0.16732 0.65931 0.36767 0.0
O257 O 0.12033 0.64949 0.27729 0.0
O258 O 0.98239 0.67075 0.31175 0.0
C259 C 0.17407 0.64976 0.31112 0.0
H260 H 1.00143 0.5491 0.34272 0.0
H261 H 0.18074 0.77707 0.31137 0.0
H262 H 0.94642 0.74295 0.48715 0.0
H263 H 0.11108 0.69188 0.57076 0.0
C264 C 0.06108 0.99113 0.02853 0.0
C265 C 0.06348 0.99899 0.96567 0.0
H266 H 0.05914 1.00857 0.12103 0.0
C267 C 0.06381 0.03196 0.94849 0.0
H268 H 0.06114 0.96607 0.04353 0.0
C269 C 0.06355 0.05641 0.99304 0.0
C270 C 0.06292 0.04853 0.05594 0.0
H271 H 0.06454 0.03897 0.90052 0.0
H272 H 0.06557 0.08146 0.9781 0.0
C273 C 0.06078 1.01558 0.07308 0.0
C274 C 0.54772 0.05659 0.52916 0.0
C275 C 0.55 0.04887 0.46626 0.0
H276 H 0.54463 0.03884 0.62156 0.0
C277 C 0.55322 1.01599 0.44897 0.0
H278 H 0.54487 0.0816 0.54414 0.0
C279 C 0.55233 0.99142 0.49334 0.0
C280 C 0.54818 0.99909 0.55617 0.0
H281 H 0.55611 1.00915 0.401 0.0
H282 H 0.55311 0.9664 0.47821 0.0
C283 C 0.54678 0.032 0.57357 0.0
C284 C 0.56019 0.5156 0.07309 0.0
C285 C 0.56242 0.54855 0.05598 0.0
H286 H 0.5608 0.4661 0.04354 0.0
C287 C 0.56348 0.55644 0.99309 0.0
H288 H 0.55823 0.50859 0.12103 0.0
C289 C 0.56407 0.53199 0.94853 0.0
C290 C 0.56365 0.49902 0.9657 0.0
H291 H 0.56558 0.58149 0.97818 0.0
H292 H 0.56513 0.539 0.90057 0.0
C293 C 0.56082 0.49115 0.02855 0.0
C294 C 0.047 0.53197 0.5736 0.0
C295 C 0.0483 0.49907 0.55619 0.0
H296 H 0.04487 0.58157 0.5442 0.0
C297 C 0.052 0.49139 0.49333 0.0
H298 H 0.0452 0.53881 0.6216 0.0
C299 C 0.05257 0.51597 0.44895 0.0
C300 C 0.04947 0.54885 0.46628 0.0
H301 H 0.05269 0.46638 0.4782 0.0
H302 H 0.05513 0.50913 0.40098 0.0
C303 C 0.04763 0.55656 0.5292 0.0
C304 C 0.3034 0.16307 0.32576 0.0
C305 C 0.36636 0.16305 0.29724 0.0
H306 H 0.19716 0.1629 0.31364 0.0
C307 C 0.36981 0.16343 0.23266 0.0
H308 H 0.29924 0.16291 0.37544 0.0
C309 C 0.31144 0.16279 0.19731 0.0
C310 C 0.24849 0.16252 0.22583 0.0
H311 H 0.41766 0.1633 0.20941 0.0
H312 H 0.31561 0.16243 0.14763 0.0
C313 C 0.24502 0.16319 0.29039 0.0
C314 C 0.36849 0.88239 0.79057 0.0
C315 C 0.36519 0.8821 0.72599 0.0
H316 H 0.31407 0.88402 0.87541 0.0
C317 C 0.30225 0.88127 0.69738 0.0
H318 H 0.41627 0.88312 0.81394 0.0
C319 C 0.24377 0.88123 0.73258 0.0
C320 C 0.24702 0.88272 0.79711 0.0
H321 H 0.29813 0.88087 0.64769 0.0
H322 H 0.196 0.88101 0.70916 0.0
C323 C 0.30998 0.88305 0.82576 0.0
C324 C 0.81555 0.908 0.82297 0.0
C325 C 0.87143 0.90617 0.78395 0.0
H326 H 0.70888 0.90798 0.82989 0.0
C327 C 0.86168 0.90682 0.72003 0.0
H328 H 0.82157 0.90774 0.87249 0.0
C329 C 0.79704 0.90678 0.69564 0.0
C330 C 0.74112 0.90635 0.73476 0.0
H331 H 0.90377 0.90546 0.68884 0.0
H332 H 0.79098 0.90553 0.64617 0.0
C333 C 0.75096 0.90823 0.79858 0.0
C334 C 0.79809 0.14224 0.32429 0.0
C335 C 0.74213 0.14355 0.28524 0.0
H336 H 0.90478 0.14275 0.33112 0.0
C337 C 0.75177 0.14273 0.22133 0.0
H338 H 0.79214 0.14267 0.37381 0.0
C339 C 0.81632 0.14298 0.19692 0.0
C340 C 0.87227 0.14377 0.23601 0.0
H341 H 0.7096 0.1437 0.19013 0.0
H342 H 0.82229 0.14396 0.14742 0.0
C343 C 0.86262 0.14221 0.29988 0.0
C344 C 0.80226 0.66309 0.32589 0.0
C345 C 0.86521 0.66306 0.29736 0.0
H346 H 0.69602 0.6629 0.31377 0.0
C347 C 0.86866 0.66343 0.23279 0.0
H348 H 0.79809 0.66293 0.37557 0.0
C349 C 0.81029 0.66278 0.19744 0.0
C350 C 0.74734 0.66251 0.22596 0.0
H351 H 0.91651 0.6633 0.20953 0.0
H352 H 0.81446 0.66242 0.14776 0.0
C353 C 0.74387 0.66319 0.29052 0.0
C354 C 0.86941 0.38237 0.79055 0.0
C355 C 0.86611 0.38209 0.72597 0.0
H356 H 0.81499 0.38399 0.87539 0.0
C357 C 0.80317 0.38129 0.69735 0.0
H358 H 0.91719 0.38306 0.81392 0.0
C359 C 0.74469 0.38127 0.73255 0.0
C360 C 0.74795 0.38274 0.79708 0.0
H361 H 0.79906 0.38091 0.64767 0.0
H362 H 0.69692 0.38107 0.70912 0.0
C363 C 0.8109 0.38303 0.82574 0.0
C364 C 0.31645 0.40801 0.82295 0.0
C365 C 0.37233 0.40619 0.78393 0.0
H366 H 0.20978 0.40796 0.82987 0.0
C367 C 0.36257 0.40686 0.72001 0.0
H368 H 0.32247 0.40774 0.87248 0.0
C369 C 0.29794 0.40681 0.69562 0.0
C370 C 0.24201 0.40636 0.73475 0.0
H371 H 0.40466 0.40551 0.68882 0.0
H372 H 0.29187 0.40556 0.64616 0.0
C373 C 0.25186 0.40823 0.79857 0.0
C374 C 0.25062 0.64277 0.22136 0.0
C375 C 0.24098 0.64357 0.28528 0.0
H376 H 0.32114 0.64402 0.14745 0.0
C377 C 0.29694 0.64223 0.32432 0.0
H378 H 0.20845 0.64376 0.19017 0.0
C379 C 0.36147 0.64219 0.29991 0.0
C380 C 0.37112 0.64378 0.23604 0.0
H381 H 0.29099 0.64263 0.37384 0.0
H382 H 0.40363 0.64271 0.33115 0.0
C383 C 0.31517 0.64301 0.19695 0.0
C384 C 0.16436 0.26106 0.84572 0.0
C385 C 0.10821 0.27709 0.82132 0.0
H386 H 0.20275 0.23032 0.91748 0.0
C387 C 0.04639 0.27376 0.8511 0.0
H388 H 0.21273 0.26352 0.82398 0.0
C389 C 0.04057 0.25461 0.90387 0.0
C390 C 0.09668 0.23875 0.9286 0.0
H391 H 1.00233 0.28573 0.83311 0.0
H392 H 0.99221 0.25253 0.92587 0.0
C393 C 0.15879 0.24232 0.89931 0.0
C394 C 0.51243 0.82317 0.37212 0.0
C395 C 0.51353 0.80807 0.43019 0.0
H396 H 0.50875 0.81691 0.27431 0.0
C397 C 0.50952 0.77404 0.43326 0.0
H398 H 0.51509 0.84936 0.36828 0.0
C399 C 0.50607 0.7555 0.3795 0.0
C400 C 0.50606 0.77055 0.32139 0.0
H401 H 0.51095 0.76163 0.4772 0.0
H402 H 0.50336 0.72934 0.38348 0.0
C403 C 0.50837 0.80462 0.31834 0.0
C404 C 0.03438 0.79326 0.11852 0.0
C405 C 0.09052 0.80889 0.09348 0.0
H406 H 0.9962 0.76258 0.18999 0.0
C407 C 0.15258 0.80552 0.12298 0.0
H408 H 0.98605 0.79524 0.09638 0.0
C409 C 0.15813 0.78718 0.17707 0.0
C410 C 0.102 0.77133 0.20177 0.0
H411 H 0.19655 0.81736 0.10456 0.0
H412 H 0.20648 0.78485 0.19896 0.0
C413 C 0.0402 0.77445 0.17178 0.0
C414 C 0.45209 0.26112 0.67648 0.0
C415 C 0.50817 0.27698 0.70122 0.0
H416 H 0.41391 0.23072 0.60429 0.0
C417 C 0.57013 0.27364 0.67167 0.0
H418 H 0.40362 0.2636 0.69802 0.0
C419 C 0.57614 0.25465 0.61877 0.0
C420 C 0.52006 0.239 0.59367 0.0
H421 H 0.61412 0.28549 0.68993 0.0
H422 H 0.62458 0.25255 0.59694 0.0
C423 C 0.45784 0.24256 0.62275 0.0
C424 C 0.66332 0.76108 0.84586 0.0
C425 C 0.60718 0.77713 0.82146 0.0
H426 H 0.70168 0.73033 0.91762 0.0
C427 C 0.54536 0.77381 0.85123 0.0
H428 H 0.71169 0.76354 0.82413 0.0
C429 C 0.53951 0.75465 0.90399 0.0
C430 C 0.59561 0.73878 0.92872 0.0
H431 H 0.50131 0.78578 0.83324 0.0
H432 H 0.49115 0.75257 0.92598 0.0
C433 C 0.65772 0.74233 0.89944 0.0
C434 C 1.01353 0.32317 0.37204 0.0
C435 C 0.01461 0.30808 0.43011 0.0
H436 H 1.00989 0.31692 0.27423 0.0
C437 C 1.01061 0.27404 0.43318 0.0
H438 H 0.01618 0.34937 0.3682 0.0
C439 C 1.00719 0.2555 0.37942 0.0
C440 C 1.00719 0.27055 0.32131 0.0
H441 H 1.01202 0.26164 0.47713 0.0
H442 H 1.00449 0.22934 0.38341 0.0
C443 C 1.0095 0.30462 0.31826 0.0
C444 C 0.65364 0.30549 0.12283 0.0
C445 C 0.59155 0.30886 0.09336 0.0
H446 H 0.70758 0.28483 0.1988 0.0
C447 C 0.53544 0.29322 0.11844 0.0
H448 H 0.69759 0.31733 0.1044 0.0
C449 C 0.54129 0.27442 0.1717 0.0
C450 C 0.6031 0.27131 0.20166 0.0
H451 H 0.48709 0.29521 0.09632 0.0
H452 H 0.4973 0.26255 0.18993 0.0
C453 C 0.65922 0.28715 0.17693 0.0
C454 C 0.07508 0.7546 0.61892 0.0
C455 C 0.01899 0.73896 0.59382 0.0
H456 H 0.11311 0.78543 0.69008 0.0
C457 C 0.95679 0.74252 0.62293 0.0
H458 H 0.12352 0.7525 0.59707 0.0
C459 C 0.95106 0.76108 0.67667 0.0
C460 C 1.00716 0.77693 0.7014 0.0
H461 H 0.91284 0.73068 0.60448 0.0
H462 H 0.9026 0.76356 0.69823 0.0
C463 C 0.06911 0.77358 0.67183 0.0
loop_
_geom_bond_atom_site_label_1
_geom_bond_atom_site_label_2
_geom_bond_distance
_geom_bond_site_symmetry_2
_ccdc_geom_bond_type
Co0 N4 2.148 . S
Co0 N10 2.128 . S
Co0 N20 2.194 . S
Co0 O25 2.351 1_455 S
Co0 O26 2.155 1_455 S
Co0 O27 2.096 . S
C1 N4 1.301 1_655 S
C1 N5 1.328 1_655 S
C1 H6 0.930 . S
C2 C3 1.333 . S
C2 N4 1.317 . S
C2 H7 0.930 . S
C3 C2 1.333 . S
C3 N5 1.350 . S
C3 H29 0.931 . S
N4 Co0 2.148 . S
N4 C1 1.301 1_455 S
N4 C2 1.317 . S
N5 C1 1.328 1_455 S
N5 C3 1.350 . S
H6 C1 0.930 . S
H7 C2 0.930 . S
C8 O9 1.224 . S
C8 O27 1.247 . S
O9 C8 1.224 . S
N10 Co0 2.128 . S
N10 C11 1.355 1_455 S
N10 C13 1.311 . S
C11 N10 1.355 1_655 S
C11 C12 1.363 . S
C11 H23 0.929 . S
C12 C11 1.363 . S
C12 N14 1.375 1_655 S
C12 H30 0.931 . S
C13 N10 1.311 . S
C13 N14 1.347 . S
C13 H24 0.929 . S
N14 C12 1.375 1_455 S
N14 C13 1.347 . S
C15 C18 1.365 . S
C15 N20 1.328 1_655 S
C15 H21 0.929 . S
C16 C17 1.362 1_554 S
C16 C19 1.378 . S
C16 H31 0.929 . S
C17 C16 1.362 1_556 S
C17 C18 1.366 1_456 S
C18 C15 1.365 . S
C18 C17 1.366 1_654 S
C18 H32 0.930 1_554 S
C19 C16 1.378 . S
C19 N20 1.315 . S
C19 H22 0.930 . S
N20 Co0 2.194 . S
N20 C15 1.328 1_455 S
N20 C19 1.315 . S
H21 C15 0.929 . S
H22 C19 0.930 . S
H23 C11 0.929 . S
H24 C13 0.929 . S
O25 Co0 2.351 1_655 S
O25 C28 1.244 . S
O26 Co0 2.155 1_655 S
O26 C28 1.240 . S
O27 Co0 2.096 . S
O27 C8 1.247 . S
C28 O25 1.244 . S
C28 O26 1.240 . S
H29 C3 0.931 . S
H30 C12 0.931 . S
H31 C16 0.929 . S
H32 C18 0.930 1_556 S
Co33 N37 2.148 . S
Co33 N43 2.128 . S
Co33 N53 2.194 . S
Co33 O58 2.351 . S
Co33 O59 2.155 . S
Co33 O60 2.096 . S
C34 N37 1.301 . S
C34 N38 1.328 . S
C34 H39 0.930 . S
C35 C36 1.333 . S
C35 N37 1.317 . S
C35 H40 0.930 . S
C36 C35 1.333 . S
C36 N38 1.350 . S
C36 H62 0.931 . S
N37 Co33 2.148 . S
N37 C34 1.301 . S
N37 C35 1.317 . S
N38 C34 1.328 . S
N38 C36 1.350 . S
H39 C34 0.930 . S
H40 C35 0.930 . S
C41 O42 1.224 . S
C41 O60 1.247 . S
O42 C41 1.224 . S
N43 Co33 2.128 . S
N43 C44 1.355 . S
N43 C46 1.311 . S
C44 N43 1.355 . S
C44 C45 1.363 . S
C44 H56 0.929 . S
C45 C44 1.363 . S
C45 N47 1.375 . S
C45 H63 0.931 . S
C46 N43 1.311 . S
C46 N47 1.347 . S
C46 H57 0.929 . S
N47 C45 1.375 . S
N47 C46 1.347 . S
C48 C51 1.365 . S
C48 N53 1.328 . S
C48 H54 0.929 . S
C49 C50 1.362 . S
C49 C52 1.378 . S
C49 H64 0.929 . S
C50 C49 1.362 . S
C50 C51 1.366 . S
C51 C48 1.365 . S
C51 C50 1.366 . S
C51 H65 0.930 . S
C52 C49 1.378 . S
C52 N53 1.315 . S
C52 H55 0.930 . S
N53 Co33 2.194 . S
N53 C48 1.328 . S
N53 C52 1.315 . S
H54 C48 0.929 . S
H55 C52 0.930 . S
H56 C44 0.929 . S
H57 C46 0.929 . S
O58 Co33 2.351 . S
O58 C61 1.244 . S
O59 Co33 2.155 . S
O59 C61 1.240 . S
O60 Co33 2.096 . S
O60 C41 1.247 . S
C61 O58 1.244 . S
C61 O59 1.240 . S
H62 C36 0.931 . S
H63 C45 0.931 . S
H64 C49 0.929 . S
H65 C51 0.930 . S
Co66 N70 2.148 . S
Co66 N76 2.128 . S
Co66 N86 2.194 . S
Co66 O91 2.351 1_455 S
Co66 O92 2.155 1_455 S
Co66 O93 2.096 . S
C67 N70 1.301 1_655 S
C67 N71 1.328 1_655 S
C67 H72 0.930 . S
C68 C69 1.333 . S
C68 N70 1.317 . S
C68 H73 0.930 . S
C69 C68 1.333 . S
C69 N71 1.350 . S
C69 H95 0.931 . S
N70 Co66 2.148 . S
N70 C67 1.301 1_455 S
N70 C68 1.317 . S
N71 C67 1.328 1_455 S
N71 C69 1.350 . S
H72 C67 0.930 . S
H73 C68 0.930 . S
C74 O75 1.224 . S
C74 O93 1.247 . S
O75 C74 1.224 . S
N76 Co66 2.128 . S
N76 C77 1.355 1_455 S
N76 C79 1.311 . S
C77 N76 1.355 1_655 S
C77 C78 1.363 . S
C77 H89 0.929 . S
C78 C77 1.363 . S
C78 N80 1.375 1_655 S
C78 H96 0.931 . S
C79 N76 1.311 . S
C79 N80 1.347 . S
C79 H90 0.929 . S
N80 C78 1.375 1_455 S
N80 C79 1.347 . S
C81 C84 1.365 . S
C81 N86 1.328 1_655 S
C81 H87 0.929 . S
C82 C83 1.362 1_556 S
C82 C85 1.378 . S
C82 H97 0.929 . S
C83 C82 1.362 1_554 S
C83 C84 1.366 1_454 S
C84 C81 1.365 . S
C84 C83 1.366 1_656 S
C84 H98 0.930 1_556 S
C85 C82 1.378 . S
C85 N86 1.315 . S
C85 H88 0.930 . S
N86 Co66 2.194 . S
N86 C81 1.328 1_455 S
N86 C85 1.315 . S
H87 C81 0.929 . S
H88 C85 0.930 . S
H89 C77 0.929 . S
H90 C79 0.929 . S
O91 Co66 2.351 1_655 S
O91 C94 1.244 . S
O92 Co66 2.155 1_655 S
O92 C94 1.240 . S
O93 Co66 2.096 . S
O93 C74 1.247 . S
C94 O91 1.244 . S
C94 O92 1.240 . S
H95 C69 0.931 . S
H96 C78 0.931 . S
H97 C82 0.929 . S
H98 C84 0.930 1_554 S
Co99 N103 2.148 . S
Co99 N109 2.128 . S
Co99 N119 2.194 . S
Co99 O124 2.351 . S
Co99 O125 2.155 . S
Co99 O126 2.096 . S
C100 N103 1.301 . S
C100 N104 1.328 . S
C100 H105 0.930 . S
C101 C102 1.333 . S
C101 N103 1.317 . S
C101 H106 0.930 . S
C102 C101 1.333 . S
C102 N104 1.350 . S
C102 H128 0.931 . S
N103 Co99 2.148 . S
N103 C100 1.301 . S
N103 C101 1.317 . S
N104 C100 1.328 . S
N104 C102 1.350 . S
H105 C100 0.930 . S
H106 C101 0.930 . S
C107 O108 1.224 . S
C107 O126 1.247 . S
O108 C107 1.224 . S
N109 Co99 2.128 . S
N109 C110 1.355 . S
N109 C112 1.311 . S
C110 N109 1.355 . S
C110 C111 1.363 . S
C110 H122 0.929 . S
C111 C110 1.363 . S
C111 N113 1.375 . S
C111 H129 0.931 . S
C112 N109 1.311 . S
C112 N113 1.347 . S
C112 H123 0.929 . S
N113 C111 1.375 . S
N113 C112 1.347 . S
C114 C117 1.365 . S
C114 N119 1.328 . S
C114 H120 0.929 . S
C115 C116 1.362 . S
C115 C118 1.378 . S
C115 H130 0.929 . S
C116 C115 1.362 . S
C116 C117 1.366 . S
C117 C114 1.365 . S
C117 C116 1.366 . S
C117 H131 0.930 . S
C118 C115 1.378 . S
C118 N119 1.315 . S
C118 H121 0.930 . S
N119 Co99 2.194 . S
N119 C114 1.328 . S
N119 C118 1.315 . S
H120 C114 0.929 . S
H121 C118 0.930 . S
H122 C110 0.929 . S
H123 C112 0.929 . S
O124 Co99 2.351 . S
O124 C127 1.244 . S
O125 Co99 2.155 . S
O125 C127 1.240 . S
O126 Co99 2.096 . S
O126 C107 1.247 . S
C127 O124 1.244 . S
C127 O125 1.240 . S
H128 C102 0.931 . S
H129 C111 0.931 . S
H130 C115 0.929 . S
H131 C117 0.930 . S
Co132 N136 2.148 . S
Co132 N142 2.128 . S
Co132 N152 2.194 . S
Co132 O157 2.351 . S
Co132 O158 2.155 . S
Co132 O159 2.096 . S
C133 N136 1.301 . S
C133 N137 1.328 . S
C133 H138 0.930 . S
C134 C135 1.333 . S
C134 N136 1.317 . S
C134 H139 0.930 . S
C135 C134 1.333 . S
C135 N137 1.350 . S
C135 H161 0.931 . S
N136 Co132 2.148 . S
N136 C133 1.301 . S
N136 C134 1.317 . S
N137 C133 1.328 . S
N137 C135 1.350 . S
H138 C133 0.930 . S
H139 C134 0.930 . S
C140 O141 1.224 . S
C140 O159 1.247 . S
O141 C140 1.224 . S
N142 Co132 2.128 . S
N142 C143 1.355 . S
N142 C145 1.311 . S
C143 N142 1.355 . S
C143 C144 1.363 . S
C143 H155 0.929 . S
C144 C143 1.363 . S
C144 N146 1.375 . S
C144 H162 0.931 . S
C145 N142 1.311 . S
C145 N146 1.347 . S
C145 H156 0.929 . S
N146 C144 1.375 . S
N146 C145 1.347 . S
C147 C150 1.365 . S
C147 N152 1.328 . S
C147 H153 0.929 . S
C148 C149 1.362 1_554 S
C148 C151 1.378 . S
C148 H163 0.929 . S
C149 C148 1.362 1_556 S
C149 C150 1.366 1_556 S
C150 C147 1.365 . S
C150 C149 1.366 1_554 S
C150 H164 0.930 1_554 S
C151 C148 1.378 . S
C151 N152 1.315 . S
C151 H154 0.930 . S
N152 Co132 2.194 . S
N152 C147 1.328 . S
N152 C151 1.315 . S
H153 C147 0.929 . S
H154 C151 0.930 . S
H155 C143 0.929 . S
H156 C145 0.929 . S
O157 Co132 2.351 . S
O157 C160 1.244 . S
O158 Co132 2.155 . S
O158 C160 1.240 . S
O159 Co132 2.096 . S
O159 C140 1.247 . S
C160 O157 1.244 . S
C160 O158 1.240 . S
H161 C135 0.931 . S
H162 C144 0.931 . S
H163 C148 0.929 . S
H164 C150 0.930 1_556 S
Co165 N169 2.148 . S
Co165 N175 2.128 . S
Co165 N185 2.194 . S
Co165 O190 2.351 . S
Co165 O191 2.155 . S
Co165 O192 2.096 1_455 S
C166 N169 1.301 . S
C166 N170 1.328 . S
C166 H171 0.930 . S
C167 C168 1.333 1_655 S
C167 N169 1.317 1_655 S
C167 H172 0.930 . S
C168 C167 1.333 1_455 S
C168 N170 1.350 . S
C168 H194 0.931 1_455 S
N169 Co165 2.148 . S
N169 C166 1.301 . S
N169 C167 1.317 1_455 S
N170 C166 1.328 . S
N170 C168 1.350 . S
H171 C166 0.930 . S
H172 C167 0.930 . S
C173 O174 1.224 . S
C173 O192 1.247 . S
O174 C173 1.224 . S
N175 Co165 2.128 . S
N175 C176 1.355 . S
N175 C178 1.311 . S
C176 N175 1.355 . S
C176 C177 1.363 . S
C176 H188 0.929 . S
C177 C176 1.363 . S
C177 N179 1.375 . S
C177 H195 0.931 . S
C178 N175 1.311 . S
C178 N179 1.347 . S
C178 H189 0.929 1_455 S
N179 C177 1.375 . S
N179 C178 1.347 . S
C180 C183 1.365 . S
C180 N185 1.328 . S
C180 H186 0.929 . S
C181 C182 1.362 1_655 S
C181 C184 1.378 1_655 S
C181 H196 0.929 . S
C182 C181 1.362 1_455 S
C182 C183 1.366 . S
C183 C180 1.365 . S
C183 C182 1.366 . S
C183 H197 0.930 . S
C184 C181 1.378 1_455 S
C184 N185 1.315 . S
C184 H187 0.930 1_455 S
N185 Co165 2.194 . S
N185 C180 1.328 . S
N185 C184 1.315 . S
H186 C180 0.929 . S
H187 C184 0.930 1_655 S
H188 C176 0.929 . S
H189 C178 0.929 1_655 S
O190 Co165 2.351 . S
O190 C193 1.244 . S
O191 Co165 2.155 . S
O191 C193 1.240 . S
O192 Co165 2.096 1_655 S
O192 C173 1.247 . S
C193 O190 1.244 . S
C193 O191 1.240 . S
H194 C168 0.931 1_655 S
H195 C177 0.931 . S
H196 C181 0.929 . S
H197 C183 0.930 . S
Co198 N202 2.148 . S
Co198 N208 2.128 . S
Co198 N218 2.194 . S
Co198 O223 2.351 . S
Co198 O224 2.155 . S
Co198 O225 2.096 . S
C199 N202 1.301 . S
C199 N203 1.328 . S
C199 H204 0.930 . S
C200 C201 1.333 . S
C200 N202 1.317 . S
C200 H205 0.930 . S
C201 C200 1.333 . S
C201 N203 1.350 . S
C201 H227 0.931 . S
N202 Co198 2.148 . S
N202 C199 1.301 . S
N202 C200 1.317 . S
N203 C199 1.328 . S
N203 C201 1.350 . S
H204 C199 0.930 . S
H205 C200 0.930 . S
C206 O207 1.224 . S
C206 O225 1.247 . S
O207 C206 1.224 . S
N208 Co198 2.128 . S
N208 C209 1.355 . S
N208 C211 1.311 . S
C209 N208 1.355 . S
C209 C210 1.363 . S
C209 H221 0.929 . S
C210 C209 1.363 . S
C210 N212 1.375 . S
C210 H228 0.931 . S
C211 N208 1.311 . S
C211 N212 1.347 . S
C211 H222 0.929 . S
N212 C210 1.375 . S
N212 C211 1.347 . S
C213 C216 1.365 . S
C213 N218 1.328 . S
C213 H219 0.929 . S
C214 C215 1.362 1_556 S
C214 C217 1.378 . S
C214 H229 0.929 . S
C215 C214 1.362 1_554 S
C215 C216 1.366 1_554 S
C216 C213 1.365 . S
C216 C215 1.366 1_556 S
C216 H230 0.930 1_556 S
C217 C214 1.378 . S
C217 N218 1.315 . S
C217 H220 0.930 . S
N218 Co198 2.194 . S
N218 C213 1.328 . S
N218 C217 1.315 . S
H219 C213 0.929 . S
H220 C217 0.930 . S
H221 C209 0.929 . S
H222 C211 0.929 . S
O223 Co198 2.351 . S
O223 C226 1.244 . S
O224 Co198 2.155 . S
O224 C226 1.240 . S
O225 Co198 2.096 . S
O225 C206 1.247 . S
C226 O223 1.244 . S
C226 O224 1.240 . S
H227 C201 0.931 . S
H228 C210 0.931 . S
H229 C214 0.929 . S
H230 C216 0.930 1_554 S
Co231 N235 2.148 . S
Co231 N241 2.128 . S
Co231 N251 2.194 . S
Co231 O256 2.351 . S
Co231 O257 2.155 . S
Co231 O258 2.096 1_455 S
C232 N235 1.301 . S
C232 N236 1.328 . S
C232 H237 0.930 . S
C233 C234 1.333 1_655 S
C233 N235 1.317 1_655 S
C233 H238 0.930 . S
C234 C233 1.333 1_455 S
C234 N236 1.350 . S
C234 H260 0.931 1_455 S
N235 Co231 2.148 . S
N235 C232 1.301 . S
N235 C233 1.317 1_455 S
N236 C232 1.328 . S
N236 C234 1.350 . S
H237 C232 0.930 . S
H238 C233 0.930 . S
C239 O240 1.224 . S
C239 O258 1.247 . S
O240 C239 1.224 . S
N241 Co231 2.128 . S
N241 C242 1.355 . S
N241 C244 1.311 . S
C242 N241 1.355 . S
C242 C243 1.363 . S
C242 H254 0.929 . S
C243 C242 1.363 . S
C243 N245 1.375 . S
C243 H261 0.931 . S
C244 N241 1.311 . S
C244 N245 1.347 . S
C244 H255 0.929 1_455 S
N245 C243 1.375 . S
N245 C244 1.347 . S
C246 C249 1.365 . S
C246 N251 1.328 . S
C246 H252 0.929 . S
C247 C248 1.362 1_655 S
C247 C250 1.378 1_655 S
C247 H262 0.929 . S
C248 C247 1.362 1_455 S
C248 C249 1.366 . S
C249 C246 1.365 . S
C249 C248 1.366 . S
C249 H263 0.930 . S
C250 C247 1.378 1_455 S
C250 N251 1.315 . S
C250 H253 0.930 1_455 S
N251 Co231 2.194 . S
N251 C246 1.328 . S
N251 C250 1.315 . S
H252 C246 0.929 . S
H253 C250 0.930 1_655 S
H254 C242 0.929 . S
H255 C244 0.929 1_655 S
O256 Co231 2.351 . S
O256 C259 1.244 . S
O257 Co231 2.155 . S
O257 C259 1.240 . S
O258 Co231 2.096 1_655 S
O258 C239 1.247 . S
C259 O256 1.244 . S
C259 O257 1.240 . S
H260 C234 0.931 1_655 S
H261 C243 0.931 . S
H262 C247 0.929 . S
H263 C249 0.930 . S
C264 C265 1.387 1_655 S
C264 H268 0.950 . S
C264 C273 1.390 1_566 S
C265 C264 1.387 1_455 S
C265 C267 1.387 . S
H266 C273 0.950 . S
C267 C265 1.387 . S
C267 C269 1.390 1_566 S
C267 H271 0.950 . S
H268 C264 0.950 . S
C269 C267 1.390 1_544 S
C269 C270 1.387 . S
C269 H272 0.950 . S
C270 C269 1.387 . S
C270 C273 1.387 1_455 S
H271 C267 0.950 . S
H272 C269 0.950 . S
C273 C264 1.390 1_544 S
C273 H266 0.950 . S
C273 C270 1.387 1_655 S
C274 C275 1.387 . S
C274 H278 0.950 . S
C274 C283 1.390 1_545 S
C275 C274 1.387 . S
C275 C277 1.387 . S
H276 C283 0.950 . S
C277 C275 1.387 . S
C277 C279 1.390 1_545 S
C277 H281 0.950 . S
H278 C274 0.950 . S
C279 C277 1.390 1_565 S
C279 C280 1.387 . S
C279 H282 0.950 . S
C280 C279 1.387 . S
C280 C283 1.387 . S
H281 C277 0.950 . S
H282 C279 0.950 . S
C283 C274 1.390 1_565 S
C283 H276 0.950 . S
C283 C280 1.387 . S
C284 C285 1.387 . S
C284 H288 0.950 . S
C284 C293 1.390 1_554 S
C285 C284 1.387 . S
C285 C287 1.387 . S
H286 C293 0.950 . S
C287 C285 1.387 . S
C287 C289 1.390 1_554 S
C287 H291 0.950 . S
H288 C284 0.950 . S
C289 C287 1.390 1_556 S
C289 C290 1.387 . S
C289 H292 0.950 . S
C290 C289 1.387 . S
C290 C293 1.387 . S
H291 C287 0.950 . S
H292 C289 0.950 . S
C293 C284 1.390 1_556 S
C293 H286 0.950 . S
C293 C290 1.387 . S
C294 C295 1.387 . S
C294 H298 0.950 1_455 S
C294 C303 1.390 . S
C295 C294 1.387 . S
C295 C297 1.387 . S
H296 C303 0.950 1_655 S
C297 C295 1.387 . S
C297 C299 1.390 . S
C297 H301 0.950 . S
H298 C294 0.950 1_655 S
C299 C297 1.390 . S
C299 C300 1.387 . S
C299 H302 0.950 . S
C300 C299 1.387 . S
C300 C303 1.387 . S
H301 C297 0.950 . S
H302 C299 0.950 . S
C303 C294 1.390 . S
C303 H296 0.950 1_455 S
C303 C300 1.387 . S
C304 C305 1.387 . S
C304 H308 0.950 . S
C304 C313 1.390 . S
C305 C304 1.387 . S
C305 C307 1.387 . S
H306 C313 0.950 . S
C307 C305 1.387 . S
C307 C309 1.390 . S
C307 H311 0.950 . S
H308 C304 0.950 . S
C309 C307 1.390 . S
C309 C310 1.387 . S
C309 H312 0.950 . S
C310 C309 1.387 . S
C310 C313 1.387 . S
H311 C307 0.950 . S
H312 C309 0.950 . S
C313 C304 1.390 . S
C313 H306 0.950 . S
C313 C310 1.387 . S
C314 C315 1.387 . S
C314 H318 0.950 . S
C314 C323 1.390 . S
C315 C314 1.387 . S
C315 C317 1.387 . S
H316 C323 0.950 . S
C317 C315 1.387 . S
C317 C319 1.390 . S
C317 H321 0.950 . S
H318 C314 0.950 . S
C319 C317 1.390 . S
C319 C320 1.387 . S
C319 H322 0.950 . S
C320 C319 1.387 . S
C320 C323 1.387 . S
H321 C317 0.950 . S
H322 C319 0.950 . S
C323 C314 1.390 . S
C323 H316 0.950 . S
C323 C320 1.387 . S
C324 C325 1.387 . S
C324 H328 0.950 . S
C324 C333 1.390 . S
C325 C324 1.387 . S
C325 C327 1.387 . S
H326 C333 0.950 . S
C327 C325 1.387 . S
C327 C329 1.390 . S
C327 H331 0.950 . S
H328 C324 0.950 . S
C329 C327 1.390 . S
C329 C330 1.387 . S
C329 H332 0.950 . S
C330 C329 1.387 . S
C330 C333 1.387 . S
H331 C327 0.950 . S
H332 C329 0.950 . S
C333 C324 1.390 . S
C333 H326 0.950 . S
C333 C330 1.387 . S
C334 C335 1.387 . S
C334 H338 0.950 . S
C334 C343 1.390 . S
C335 C334 1.387 . S
C335 C337 1.387 . S
H336 C343 0.950 . S
C337 C335 1.387 . S
C337 C339 1.390 . S
C337 H341 0.950 . S
H338 C334 0.950 . S
C339 C337 1.390 . S
C339 C340 1.387 . S
C339 H342 0.950 . S
C340 C339 1.387 . S
C340 C343 1.387 . S
H341 C337 0.950 . S
H342 C339 0.950 . S
C343 C334 1.390 . S
C343 H336 0.950 . S
C343 C340 1.387 . S
C344 C345 1.387 . S
C344 H348 0.950 . S
C344 C353 1.390 . S
C345 C344 1.387 . S
C345 C347 1.387 . S
H346 C353 0.950 . S
C347 C345 1.387 . S
C347 C349 1.390 . S
C347 H351 0.950 . S
H348 C344 0.950 . S
C349 C347 1.390 . S
C349 C350 1.387 . S
C349 H352 0.950 . S
C350 C349 1.387 . S
C350 C353 1.387 . S
H351 C347 0.950 . S
H352 C349 0.950 . S
C353 C344 1.390 . S
C353 H346 0.950 . S
C353 C350 1.387 . S
C354 C355 1.387 . S
C354 H358 0.950 . S
C354 C363 1.390 . S
C355 C354 1.387 . S
C355 C357 1.387 . S
H356 C363 0.950 . S
C357 C355 1.387 . S
C357 C359 1.390 . S
C357 H361 0.950 . S
H358 C354 0.950 . S
C359 C357 1.390 . S
C359 C360 1.387 . S
C359 H362 0.950 . S
C360 C359 1.387 . S
C360 C363 1.387 . S
H361 C357 0.950 . S
H362 C359 0.950 . S
C363 C354 1.390 . S
C363 H356 0.950 . S
C363 C360 1.387 . S
C364 C365 1.387 . S
C364 H368 0.950 . S
C364 C373 1.390 . S
C365 C364 1.387 . S
C365 C367 1.387 . S
H366 C373 0.950 . S
C367 C365 1.387 . S
C367 C369 1.390 . S
C367 H371 0.950 . S
H368 C364 0.950 . S
C369 C367 1.390 . S
C369 C370 1.387 . S
C369 H372 0.950 . S
C370 C369 1.387 . S
C370 C373 1.387 . S
H371 C367 0.950 . S
H372 C369 0.950 . S
C373 C364 1.390 . S
C373 H366 0.950 . S
C373 C370 1.387 . S
C374 C375 1.387 . S
C374 H378 0.950 . S
C374 C383 1.390 . S
C375 C374 1.387 . S
C375 C377 1.387 . S
H376 C383 0.950 . S
C377 C375 1.387 . S
C377 C379 1.390 . S
C377 H381 0.950 . S
H378 C374 0.950 . S
C379 C377 1.390 . S
C379 C380 1.387 . S
C379 H382 0.950 . S
C380 C379 1.387 . S
C380 C383 1.387 . S
H381 C377 0.950 . S
H382 C379 0.950 . S
C383 C374 1.390 . S
C383 H376 0.950 . S
C383 C380 1.387 . S
C384 C385 1.387 . S
C384 H388 0.950 . S
C384 C393 1.390 . S
C385 C384 1.387 . S
C385 C387 1.387 1_455 S
H386 C393 0.950 . S
C387 C385 1.387 1_655 S
C387 C389 1.390 . S
C387 H391 0.950 . S
H388 C384 0.950 . S
C389 C387 1.390 . S
C389 C390 1.387 1_655 S
C389 H392 0.950 . S
C390 C389 1.387 1_455 S
C390 C393 1.387 . S
H391 C387 0.950 . S
H392 C389 0.950 . S
C393 C384 1.390 . S
C393 H386 0.950 . S
C393 C390 1.387 . S
C394 C395 1.387 . S
C394 H398 0.950 . S
C394 C403 1.390 . S
C395 C394 1.387 . S
C395 C397 1.387 . S
H396 C403 0.950 . S
C397 C395 1.387 . S
C397 C399 1.390 . S
C397 H401 0.950 . S
H398 C394 0.950 . S
C399 C397 1.390 . S
C399 C400 1.387 . S
C399 H402 0.950 . S
C400 C399 1.387 . S
C400 C403 1.387 . S
H401 C397 0.950 . S
H402 C399 0.950 . S
C403 C394 1.390 . S
C403 H396 0.950 . S
C403 C400 1.387 . S
C404 C405 1.387 1_655 S
C404 H408 0.950 . S
C404 C413 1.390 . S
C405 C404 1.387 1_455 S
C405 C407 1.387 . S
H406 C413 0.950 . S
C407 C405 1.387 . S
C407 C409 1.390 . S
C407 H411 0.950 . S
H408 C404 0.950 . S
C409 C407 1.390 . S
C409 C410 1.387 . S
C409 H412 0.950 . S
C410 C409 1.387 . S
C410 C413 1.387 1_455 S
H411 C407 0.950 . S
H412 C409 0.950 . S
C413 C404 1.390 . S
C413 H406 0.950 . S
C413 C410 1.387 1_655 S
C414 C415 1.387 . S
C414 H418 0.950 . S
C414 C423 1.390 . S
C415 C414 1.387 . S
C415 C417 1.387 . S
H416 C423 0.950 . S
C417 C415 1.387 . S
C417 C419 1.390 . S
C417 H421 0.950 . S
H418 C414 0.950 . S
C419 C417 1.390 . S
C419 C420 1.387 . S
C419 H422 0.950 . S
C420 C419 1.387 . S
C420 C423 1.387 . S
H421 C417 0.950 . S
H422 C419 0.950 . S
C423 C414 1.390 . S
C423 H416 0.950 . S
C423 C420 1.387 . S
C424 C425 1.387 . S
C424 H428 0.950 . S
C424 C433 1.390 . S
C425 C424 1.387 . S
C425 C427 1.387 . S
H426 C433 0.950 . S
C427 C425 1.387 . S
C427 C429 1.390 . S
C427 H431 0.950 . S
H428 C424 0.950 . S
C429 C427 1.390 . S
C429 C430 1.387 . S
C429 H432 0.950 . S
C430 C429 1.387 . S
C430 C433 1.387 . S
H431 C427 0.950 . S
H432 C429 0.950 . S
C433 C424 1.390 . S
C433 H426 0.950 . S
C433 C430 1.387 . S
C434 C435 1.387 . S
C434 H438 0.950 . S
C434 C443 1.390 . S
C435 C434 1.387 . S
C435 C437 1.387 . S
H436 C443 0.950 . S
C437 C435 1.387 . S
C437 C439 1.390 . S
C437 H441 0.950 1_455 S
H438 C434 0.950 . S
C439 C437 1.390 . S
C439 C440 1.387 . S
C439 H442 0.950 1_455 S
C440 C439 1.387 . S
C440 C443 1.387 . S
H441 C437 0.950 1_655 S
H442 C439 0.950 1_655 S
C443 C434 1.390 . S
C443 H436 0.950 . S
C443 C440 1.387 . S
C444 C445 1.387 . S
C444 H448 0.950 . S
C444 C453 1.390 . S
C445 C444 1.387 . S
C445 C447 1.387 . S
H446 C453 0.950 . S
C447 C445 1.387 . S
C447 C449 1.390 . S
C447 H451 0.950 . S
H448 C444 0.950 . S
C449 C447 1.390 . S
C449 C450 1.387 . S
C449 H452 0.950 . S
C450 C449 1.387 . S
C450 C453 1.387 . S
H451 C447 0.950 . S
H452 C449 0.950 . S
C453 C444 1.390 . S
C453 H446 0.950 . S
C453 C450 1.387 . S
C454 C455 1.387 . S
C454 H458 0.950 . S
C454 C463 1.390 . S
C455 C454 1.387 . S
C455 C457 1.387 1_455 S
H456 C463 0.950 . S
C457 C455 1.387 1_655 S
C457 C459 1.390 . S
C457 H461 0.950 . S
H458 C454 0.950 . S
C459 C457 1.390 . S
C459 C460 1.387 1_655 S
C459 H462 0.950 . S
C460 C459 1.387 1_455 S
C460 C463 1.387 . S
H461 C457 0.950 . S
H462 C459 0.950 . S
C463 C454 1.390 . S
C463 H456 0.950 . S
C463 C460 1.387 . S
C265 N71 1.407 . S
C270 N5 1.407 . S
C275 N104 1.409 . S
C280 N38 1.409 . S
C285 N137 1.406 . S
C290 N203 1.406 . S
C295 N170 1.409 . S
C300 N236 1.409 . S
C305 C107 1.603 . S
C310 C8 1.603 . S
C315 C41 1.605 . S
C320 C74 1.605 . S
C325 C94 1.232 . S
C330 C61 1.232 . S
C335 C127 1.231 . S
C340 C28 1.231 . S
C345 C239 1.605 . S
C350 C140 1.605 . S
C355 C173 1.603 . S
C360 C206 1.603 . S
C365 C226 1.231 . S
C370 C193 1.231 . S
C375 C259 1.231 . S
C380 C160 1.231 . S
C385 N179 1.536 . S
C390 C17 1.583 . S
C395 C50 1.583 . S
C400 N146 1.537 . S
C405 C83 1.582 . S
C410 N245 1.535 . S
C415 N212 1.535 . S
C420 C116 1.583 . S
C425 N47 1.535 . S
C430 C149 1.583 . S
C435 C182 1.583 . S
C440 N14 1.536 . S
C445 C215 1.583 . S
C450 N113 1.535 . S
C455 C248 1.583 . S
C460 N80 1.535 . S
