# Generated by pormake.
# Topology srs, (3)-cn, num edge types: 1
# Building blocks:
#     Node 0, Type 0, BuildingBlock: WUSLED_clean_sbu_0, # of connection points: 3
#     Node 1, Type 0, BuildingBlock: WUSLED_clean_sbu_0, # of connection points: 3
#     Node 2, Type 0, BuildingBlock: WUSLED_clean_sbu_0, # of connection points: 3
#     Node 3, Type 0, BuildingBlock: WUSLED_clean_sbu_0, # of connection points: 3
#     Node 4, Type 0, BuildingBlock: WUSLED_clean_sbu_0, # of connection points: 3
#     Node 5, Type 0, BuildingBlock: WUSLED_clean_sbu_0, # of connection points: 3
#     Node 6, Type 0, BuildingBlock: WUSLED_clean_sbu_0, # of connection points: 3
#     Node 7, Type 0, BuildingBlock: WUSLED_clean_sbu_0, # of connection points: 3
#     Edge 8, Type (0, 0), BuildingBlock: AJUNOK_clean_linker_0, # of connection points: 2
#     Edge 9, Type (0, 0), BuildingBlock: AJUNOK_clean_linker_0, # of connection points: 2
#     Edge 10, Type (0, 0), BuildingBlock: AJUNOK_clean_linker_0, # of connection points: 2
#     Edge 11, Type (0, 0), BuildingBlock: AJUNOK_clean_linker_0, # of connection points: 2
#     Edge 12, Type (0, 0), BuildingBlock: AJUNOK_clean_linker_0, # of connection points: 2
#     Edge 13, Type (0, 0), BuildingBlock: AJUNOK_clean_linker_0, # of connection points: 2
#     Edge 14, Type (0, 0), BuildingBlock: AJUNOK_clean_linker_0, # of connection points: 2
#     Edge 15, Type (0, 0), BuildingBlock: AJUNOK_clean_linker_0, # of connection points: 2
#     Edge 16, Type (0, 0), BuildingBlock: AJUNOK_clean_linker_0, # of connection points: 2
#     Edge 17, Type (0, 0), BuildingBlock: AJUNOK_clean_linker_0, # of connection points: 2
#     Edge 18, Type (0, 0), BuildingBlock: AJUNOK_clean_linker_0, # of connection points: 2
#     Edge 19, Type (0, 0), BuildingBlock: AJUNOK_clean_linker_0, # of connection points: 2
# Relax obj value: 0.000
# Max RMSD: 0.008
# Mean RMSD: 0.008
data_MOF--net-srs--node1-WUSLED_clean_sbu_0--edge1-AJUNOK_clean_linker_0
_symmetry_space_group_name_H-M    P1
_symmetry_Int_Tables_number       1
_symmetry_cell_setting            triclinic
loop_
_symmetry_equiv_pos_as_xyz
'x, y, z'
_cell_length_a     53.128154
_cell_length_b     53.391143
_cell_length_c     53.423762
_cell_angle_alpha  89.8161
_cell_angle_beta   90.075082
_cell_angle_gamma 90.021597
loop_
_atom_site_label
_atom_site_type_symbol
_atom_site_fract_x
_atom_site_fract_y
_atom_site_fract_z
_atom_type_partial_charge
C0 C 0.13482 0.11163 0.21213 0.0
C1 C 0.14047 0.08736 0.20366 0.0
C2 C 0.13873 0.07126 0.24647 0.0
C3 C 0.14233 0.06737 0.22066 0.0
C4 C 0.13364 0.09568 0.25486 0.0
C5 C 0.13171 0.1156 0.23788 0.0
U6 U 0.15059 0.15196 0.15381 0.0
O7 O 0.12464 0.16898 0.12633 0.0
O8 O 0.14906 0.19289 0.14925 0.0
C9 C 0.13058 0.19194 0.13287 0.0
C10 C 0.13061 0.13277 0.19461 0.0
C11 C 0.10934 0.20937 0.13681 0.0
C12 C 0.08242 0.23444 0.16382 0.0
C13 C 0.10149 0.21652 0.16087 0.0
C14 C 0.07828 0.23768 0.1188 0.0
C15 C 0.07093 0.24558 0.14279 0.0
C16 C 0.09733 0.21985 0.11586 0.0
C17 C 0.20758 0.13524 0.1124 0.0
C18 C 0.22475 0.1617 0.07937 0.0
C19 C 0.24122 0.11987 0.08571 0.0
C20 C 0.22432 0.11622 0.10546 0.0
C21 C 0.24165 0.14264 0.0724 0.0
C22 C 0.20779 0.158 0.09915 0.0
C23 C 0.19068 0.13109 0.13391 0.0
O24 O 0.14746 0.1508 0.19499 0.0
O25 O 0.12304 0.12707 0.17188 0.0
O26 O 0.16757 0.12413 0.12854 0.0
O27 O 0.19174 0.14794 0.15176 0.0
H28 H 0.14292 0.08373 0.18387 0.0
H29 H 0.14578 0.04873 0.2135 0.0
H30 H 0.13089 0.09934 0.2746 0.0
H31 H 0.1273 0.13413 0.24486 0.0
H32 H 0.07712 0.24009 0.18254 0.0
H33 H 0.11038 0.20859 0.17734 0.0
H34 H 0.06937 0.24541 0.10224 0.0
H35 H 0.10296 0.21449 0.09714 0.0
H36 H 0.22466 0.17944 0.06948 0.0
H37 H 0.25436 0.10504 0.08124 0.0
H38 H 0.22457 0.09859 0.11556 0.0
H39 H 0.19501 0.17294 0.10425 0.0
C40 C 0.12967 0.94557 0.34948 0.0
C41 C 0.15259 0.95861 0.34788 0.0
C42 C 0.13471 0.98673 0.31638 0.0
C43 C 0.15509 0.97903 0.33145 0.0
C44 C 0.11179 0.97367 0.31828 0.0
C45 C 0.10934 0.9533 0.33461 0.0
U46 U 0.14823 0.90339 0.40555 0.0
O47 O 0.12344 0.8849 0.43305 0.0
O48 O 0.14729 0.86229 0.40843 0.0
C49 C 0.12945 0.8623 0.42546 0.0
C50 C 0.1264 0.92378 0.36622 0.0
C51 C 0.10829 0.84495 0.4211 0.0
C52 C 0.07524 0.82769 0.39465 0.0
C53 C 0.09464 0.8451 0.39857 0.0
C54 C 0.08274 0.81009 0.43582 0.0
C55 C 0.06912 0.80993 0.41322 0.0
C56 C 0.10208 0.82744 0.43971 0.0
C57 C 0.20648 0.9187 0.44605 0.0
C58 C 0.21526 0.9073 0.48941 0.0
C59 C 0.24953 0.91852 0.46174 0.0
C60 C 0.23234 0.92235 0.44223 0.0
C61 C 0.24123 0.91094 0.48559 0.0
C62 C 0.19806 0.91103 0.46981 0.0
C63 C 0.18883 0.92366 0.42515 0.0
O64 O 0.14357 0.90612 0.3647 0.0
O65 O 0.11982 0.9288 0.38937 0.0
O66 O 0.16582 0.93041 0.4312 0.0
O67 O 0.18952 0.90771 0.40647 0.0
H68 H 0.16848 0.95302 0.35933 0.0
H69 H 0.17283 0.98899 0.33076 0.0
H70 H 0.09579 0.97906 0.30689 0.0
H71 H 0.09151 0.94349 0.33557 0.0
H72 H 0.06543 0.82777 0.37686 0.0
H73 H 0.09921 0.85843 0.38393 0.0
H74 H 0.07842 0.79675 0.45052 0.0
H75 H 0.11238 0.82704 0.45722 0.0
H76 H 0.20818 0.90196 0.50766 0.0
H77 H 0.26939 0.92134 0.45812 0.0
H78 H 0.23928 0.92829 0.42409 0.0
H79 H 0.17819 0.90813 0.47331 0.0
C80 C 0.38442 0.96181 0.69477 0.0
C81 C 0.39465 0.95351 0.71761 0.0
C82 C 0.3897 0.9953 0.73541 0.0
C83 C 0.39715 0.9701 0.73778 0.0
C84 C 0.3798 1.00354 0.71239 0.0
C85 C 0.37722 0.98697 0.69231 0.0
U86 U 0.40068 0.90485 0.65312 0.0
O87 O 0.3751 0.87718 0.63608 0.0
O88 O 0.39814 0.90151 0.61217 0.0
C89 C 0.38028 0.8845 0.61315 0.0
C90 C 0.38002 0.9446 0.67358 0.0
C91 C 0.35849 0.88863 0.59648 0.0
C92 C 0.32508 0.91496 0.57962 0.0
C93 C 0.34515 0.91133 0.59635 0.0
C94 C 0.33135 0.87319 0.56324 0.0
C95 C 0.31792 0.89589 0.5629 0.0
C96 C 0.35137 0.86961 0.5799 0.0
C97 C 0.45986 0.86488 0.66677 0.0
C98 C 0.469 0.82118 0.65721 0.0
C99 C 0.5032 0.85045 0.66356 0.0
C100 C 0.48582 0.86963 0.66784 0.0
C101 C 0.49501 0.82602 0.65811 0.0
C102 C 0.45156 0.84046 0.66137 0.0
C103 C 0.44213 0.8856 0.67206 0.0
O104 O 0.39626 0.94588 0.65508 0.0
O105 O 0.3735 0.9215 0.67926 0.0
O106 O 0.41945 0.87942 0.67976 0.0
O107 O 0.44208 0.90417 0.65585 0.0
H108 H 0.40039 0.93418 0.71996 0.0
H109 H 0.40484 0.96322 0.75529 0.0
H110 H 0.37336 1.02265 0.7101 0.0
H111 H 0.36914 0.99373 0.67492 0.0
H112 H 0.31511 0.93266 0.57977 0.0
H113 H 0.35038 0.92627 0.60901 0.0
H114 H 0.32674 0.85837 0.55023 0.0
H115 H 0.36154 0.85202 0.57961 0.0
H116 H 0.46216 0.80253 0.65305 0.0
H117 H 0.52311 0.85466 0.66487 0.0
H118 H 0.49269 0.88823 0.67217 0.0
H119 H 0.43164 0.83623 0.66042 0.0
C120 C 0.38135 0.09706 0.8613 0.0
C121 C 0.40463 0.09487 0.84906 0.0
C122 C 0.38677 0.06423 0.82018 0.0
C123 C 0.40733 0.07853 0.82871 0.0
C124 C 0.36351 0.06664 0.83249 0.0
C125 C 0.36085 0.08289 0.8528 0.0
U126 U 0.39934 0.15287 0.90369 0.0
O127 O 0.37455 0.17972 0.92272 0.0
O128 O 0.39893 0.15501 0.94492 0.0
C129 C 0.38065 0.17159 0.94518 0.0
C130 C 0.37797 0.11344 0.88325 0.0
C131 C 0.35964 0.16638 0.96259 0.0
C132 C 0.31607 0.15479 0.97097 0.0
C133 C 0.33582 0.15873 0.95401 0.0
C134 C 0.34372 0.16573 1.00529 0.0
C135 C 0.3198 0.1582 0.99685 0.0
C136 C 0.36338 0.16977 0.98835 0.0
C137 C 0.45656 0.19435 0.88708 0.0
C138 C 0.47381 0.22723 0.91352 0.0
C139 C 0.49079 0.22061 0.87202 0.0
C140 C 0.4737 0.20104 0.86829 0.0
C141 C 0.49102 0.23402 0.89464 0.0
C142 C 0.45665 0.2076 0.90974 0.0
C143 C 0.43918 0.17327 0.88264 0.0
O144 O 0.39535 0.11197 0.90072 0.0
O145 O 0.37084 0.13655 0.87851 0.0
O146 O 0.41597 0.17932 0.87662 0.0
O147 O 0.44042 0.15463 0.89873 0.0
H148 H 0.42073 0.10559 0.85538 0.0
H149 H 0.4256 0.0768 0.81991 0.0
H150 H 0.34728 0.05605 0.82629 0.0
H151 H 0.34273 0.08432 0.86197 0.0
H152 H 0.29778 0.14947 0.96378 0.0
H153 H 0.3324 0.15602 0.93421 0.0
H154 H 0.34727 0.16837 1.02508 0.0
H155 H 0.38157 0.17568 0.99539 0.0
H156 H 0.47356 0.23718 0.93115 0.0
H157 H 0.50417 0.22493 0.85735 0.0
H158 H 0.47403 0.19093 0.85073 0.0
H159 H 0.44356 0.20269 0.92449 0.0
C160 C 0.63127 0.44575 0.84893 0.0
C161 C 0.65477 0.45754 0.84623 0.0
C162 C 0.63689 0.48692 0.81589 0.0
C163 C 0.65757 0.47792 0.8298 0.0
C164 C 0.61342 0.47508 0.81884 0.0
C165 C 0.61067 0.45475 0.83518 0.0
U166 U 0.64878 0.40311 0.90499 0.0
O167 O 0.62374 0.38394 0.93164 0.0
O168 O 0.64832 0.36184 0.90723 0.0
C169 C 0.62993 0.3615 0.92365 0.0
C170 C 0.62777 0.42372 0.86534 0.0
C171 C 0.60896 0.34403 0.91837 0.0
C172 C 0.56551 0.33555 0.90639 0.0
C173 C 0.58525 0.35255 0.91033 0.0
C174 C 0.59298 0.3013 0.91812 0.0
C175 C 0.56917 0.30968 0.91019 0.0
C176 C 0.61263 0.31828 0.92216 0.0
C177 C 0.70561 0.4196 0.94706 0.0
C178 C 0.72568 0.39195 0.97743 0.0
C179 C 0.73708 0.43584 0.97587 0.0
C180 C 0.71995 0.43959 0.95631 0.0
C181 C 0.74017 0.41198 0.98669 0.0
C182 C 0.70846 0.39574 0.95784 0.0
C183 C 0.6884 0.42411 0.92579 0.0
O184 O 0.64515 0.40626 0.86408 0.0
O185 O 0.62043 0.42834 0.88835 0.0
O186 O 0.66515 0.43012 0.93157 0.0
O187 O 0.68982 0.40816 0.90714 0.0
H188 H 0.67096 0.45085 0.85662 0.0
H189 H 0.67598 0.48634 0.82766 0.0
H190 H 0.59711 0.48165 0.80856 0.0
H191 H 0.59238 0.44593 0.83699 0.0
H192 H 0.54729 0.3427 0.90076 0.0
H193 H 0.58189 0.37235 0.90733 0.0
H194 H 0.59648 0.28152 0.92107 0.0
H195 H 0.63074 0.31129 0.92838 0.0
H196 H 0.72766 0.37336 0.98537 0.0
H197 H 0.74835 0.45153 0.98214 0.0
H198 H 0.71814 0.45811 0.94815 0.0
H199 H 0.69754 0.38005 0.95098 0.0
C200 C 0.88598 0.46027 0.196 0.0
C201 C 0.88797 0.45122 0.22069 0.0
C202 C 0.8899 0.49398 0.23672 0.0
C203 C 0.88985 0.46792 0.24084 0.0
C204 C 0.8884 0.5029 0.21197 0.0
C205 C 0.88645 0.48625 0.19189 0.0
U206 U 0.90196 0.404 0.15295 0.0
O207 O 0.87642 0.37719 0.1347 0.0
O208 O 0.89992 0.40206 0.11177 0.0
C209 C 0.88169 0.38543 0.11207 0.0
C210 C 0.88166 0.44339 0.17442 0.0
C211 C 0.86016 0.39043 0.0951 0.0
C212 C 0.81549 0.39767 0.0874 0.0
C213 C 0.83558 0.39415 0.10412 0.0
C214 C 0.84424 0.39414 0.05248 0.0
C215 C 0.8196 0.39772 0.06136 0.0
C216 C 0.86425 0.39053 0.06916 0.0
C217 C 0.96089 0.36331 0.16608 0.0
C218 C 0.97018 0.31981 0.15579 0.0
C219 C 1.00428 0.34899 0.16305 0.0
C220 C 0.98683 0.36806 0.1675 0.0
C221 C 0.99619 0.32466 0.15707 0.0
C222 C 0.95267 0.33899 0.16012 0.0
C223 C 0.9431 0.38389 0.17169 0.0
O224 O 0.89795 0.44498 0.15598 0.0
O225 O 0.87475 0.42023 0.17935 0.0
O226 O 0.92029 0.37757 0.17891 0.0
O227 O 0.94333 0.40294 0.15604 0.0
H228 H 0.88752 0.4313 0.22452 0.0
H229 H 0.89046 0.46041 0.25968 0.0
H230 H 0.88848 0.52284 0.20815 0.0
H231 H 0.88482 0.49373 0.17308 0.0
H232 H 0.79669 0.39988 0.09486 0.0
H233 H 0.83181 0.39406 0.12403 0.0
H234 H 0.84807 0.39423 0.03257 0.0
H235 H 0.88299 0.38763 0.06174 0.0
H236 H 0.96342 0.30124 0.15121 0.0
H237 H 1.02417 0.35319 0.16467 0.0
H238 H 0.99363 0.38658 0.17227 0.0
H239 H 0.93277 0.33475 0.15891 0.0
C240 C 0.88094 0.5974 0.36139 0.0
C241 C 0.90464 0.59318 0.35054 0.0
C242 C 0.88594 0.56404 0.32065 0.0
C243 C 0.90712 0.57662 0.33034 0.0
C244 C 0.86227 0.56861 0.33145 0.0
C245 C 0.85983 0.58505 0.35162 0.0
U246 U 0.89962 0.65319 0.40364 0.0
O247 O 0.87485 0.68108 0.42147 0.0
O248 O 0.89811 0.65617 0.44465 0.0
C249 C 0.8803 0.67326 0.44419 0.0
C250 C 0.87761 0.61417 0.38306 0.0
C251 C 0.85874 0.66942 0.46133 0.0
C252 C 0.83257 0.64277 0.48776 0.0
C253 C 0.8518 0.64549 0.46999 0.0
C254 C 0.82636 0.68767 0.48782 0.0
C255 C 0.81996 0.66388 0.49724 0.0
C256 C 0.8456 0.69039 0.47015 0.0
C257 C 0.95854 0.6928 0.3887 0.0
C258 C 0.96876 0.73361 0.40628 0.0
C259 C 1.00045 0.71044 0.38349 0.0
C260 C 0.98316 0.6911 0.37942 0.0
C261 C 0.99344 0.732 0.39682 0.0
C262 C 0.95146 0.71415 0.40228 0.0
C263 C 0.94071 0.67217 0.38372 0.0
O264 O 0.89445 0.61238 0.40104 0.0
O265 O 0.87136 0.63742 0.37785 0.0
O266 O 0.91788 0.6787 0.3768 0.0
O267 O 0.94094 0.65359 0.39992 0.0
H268 H 0.92118 0.60266 0.35769 0.0
H269 H 0.92553 0.57387 0.32212 0.0
H270 H 0.84563 0.55918 0.32448 0.0
H271 H 0.84139 0.58804 0.35972 0.0
H272 H 0.82803 0.62419 0.49461 0.0
H273 H 0.86153 0.62896 0.4634 0.0
H274 H 0.81659 0.70424 0.49424 0.0
H275 H 0.85051 0.70901 0.46365 0.0
H276 H 0.96294 0.74975 0.41704 0.0
H277 H 1.01928 0.70866 0.37594 0.0
H278 H 0.98901 0.67478 0.36892 0.0
H279 H 0.9326 0.71577 0.40978 0.0
C280 C 0.63522 0.6124 0.71269 0.0
C281 C 0.64473 0.58931 0.70437 0.0
C282 C 0.6404 0.57169 0.74639 0.0
C283 C 0.64719 0.56911 0.72106 0.0
C284 C 0.63126 0.59495 0.75465 0.0
C285 C 0.62873 0.61506 0.73798 0.0
U286 U 0.65108 0.65429 0.65548 0.0
O287 O 0.6252 0.67118 0.62782 0.0
O288 O 0.64838 0.69522 0.65184 0.0
C289 C 0.63031 0.69414 0.63503 0.0
C290 C 0.63071 0.6336 0.69536 0.0
C291 C 0.60854 0.71097 0.63882 0.0
C292 C 0.5815 0.73622 0.66556 0.0
C293 C 0.6008 0.71852 0.6628 0.0
C294 C 0.57681 0.73837 0.62053 0.0
C295 C 0.56965 0.74674 0.64442 0.0
C296 C 0.5961 0.72076 0.61779 0.0
C297 C 0.71021 0.64125 0.6154 0.0
C298 C 0.71928 0.64952 0.57139 0.0
C299 C 0.75347 0.64623 0.6012 0.0
C300 C 0.73615 0.6418 0.62041 0.0
C301 C 0.74526 0.65021 0.57648 0.0
C302 C 0.70189 0.6452 0.59068 0.0
C303 C 0.69257 0.63573 0.63618 0.0
O304 O 0.64684 0.65223 0.69652 0.0
O305 O 0.62412 0.62792 0.67233 0.0
O306 O 0.66991 0.62784 0.63012 0.0
O307 O 0.69249 0.65187 0.65471 0.0
H308 H 0.64992 0.58678 0.68494 0.0
H309 H 0.65428 0.55142 0.71416 0.0
H310 H 0.62535 0.59742 0.77388 0.0
H311 H 0.62121 0.63263 0.74477 0.0
H312 H 0.57635 0.74225 0.68421 0.0
H313 H 0.61001 0.71115 0.67936 0.0
H314 H 0.56764 0.74563 0.60391 0.0
H315 H 0.60164 0.71511 0.59913 0.0
H316 H 0.71242 0.65251 0.55252 0.0
H317 H 0.77337 0.64615 0.60564 0.0
H318 H 0.74306 0.63858 0.63924 0.0
H319 H 0.682 0.64487 0.58622 0.0
C320 C 0.11816 1.02715 0.29879 0.0
C321 C 0.13689 1.0085 0.29893 0.0
C322 C 0.11914 0.04742 0.28203 0.0
C323 C 0.13881 0.04985 0.26453 0.0
H324 H 0.10257 1.02609 0.3118 0.0
H325 H 0.10408 0.06107 0.2825 0.0
S326 S 0.19273 1.00631 0.25733 0.0
N327 N 0.17578 0.99383 0.28008 0.0
N328 N 0.17783 0.03211 0.24882 0.0
C329 C 0.1578 0.03146 0.26459 0.0
C330 C 0.15684 1.01082 0.28175 0.0
C331 C 0.27871 0.92512 0.51065 0.0
C332 C 0.25978 0.90715 0.5063 0.0
C333 C 0.29699 0.92164 0.52937 0.0
C334 C 0.29723 0.89994 0.5444 0.0
H335 H 0.27945 0.94205 0.49944 0.0
H336 H 0.31142 0.93579 0.53166 0.0
S337 S 0.25145 0.84751 0.54123 0.0
N338 N 0.24228 0.86697 0.51893 0.0
N339 N 0.27629 0.86068 0.55435 0.0
C340 C 0.27816 0.88204 0.54058 0.0
C341 C 0.25952 0.8856 0.52154 0.0
C342 C 0.38057 1.0054 0.78036 0.0
C343 C 0.39092 1.01266 0.75721 0.0
C344 C 0.37967 1.02205 0.80064 0.0
C345 C 0.38929 0.04657 0.79871 0.0
H346 H 0.37244 0.98693 0.78262 0.0
H347 H 0.37122 1.01568 0.81798 0.0
S348 S 0.41951 0.07441 0.74254 0.0
N349 N 0.41201 0.04569 0.73387 0.0
N350 N 0.41003 0.07705 0.77184 0.0
C351 C 0.40027 0.05386 0.77586 0.0
C352 C 0.40109 0.03693 0.75516 0.0
C353 C 0.27547 0.16848 0.05198 0.0
C354 C 0.26041 0.14679 0.05203 0.0
C355 C 0.29438 0.17209 0.03398 0.0
C356 C 0.29892 0.15425 1.01513 0.0
H357 H 0.27303 0.18254 0.06635 0.0
H358 H 0.30559 0.18901 0.03486 0.0
S359 S 0.26402 0.09466 1.00637 0.0
N360 N 0.25064 0.10765 0.031 0.0
N361 N 0.28643 0.11419 0.99749 0.0
C362 C 0.28366 0.13269 1.01468 0.0
C363 C 0.26442 0.129 0.03305 0.0
C364 C 1.01323 0.28148 0.16557 0.0
C365 C 1.01492 0.30439 0.15254 0.0
C366 C 0.0314 0.26259 0.16241 0.0
C367 C 0.05176 0.26576 0.14583 0.0
H368 H 0.99801 0.27831 0.17867 0.0
H369 H 0.02941 0.24532 0.17291 0.0
S370 S 0.06448 0.32209 0.10692 0.0
N371 N 0.03831 0.32893 0.12207 0.0
N372 N 0.0725 0.2937 0.11632 0.0
C373 C 0.05349 0.2885 0.13253 0.0
C374 C 0.0351 0.30773 0.13585 0.0
C375 C 0.5246 0.25458 0.92064 0.0
C376 C 0.5098 0.2544 0.89877 0.0
C377 C 0.54351 0.27262 0.92424 0.0
C378 C 0.5483 0.29135 0.90622 0.0
H379 H 0.52195 0.2403 0.93484 0.0
H380 H 0.55452 0.27185 0.94131 0.0
S381 S 0.51413 0.29974 0.84613 0.0
N382 N 0.50054 0.27519 0.85927 0.0
N383 N 0.53634 0.30873 0.8658 0.0
C384 C 0.5333 0.29167 0.88448 0.0
C385 C 0.51407 0.27327 0.8808 0.0
C386 C 0.05446 0.76522 0.41415 0.0
C387 C 0.0493 0.79058 0.40892 0.0
C388 C 0.03631 0.74653 0.41022 0.0
C389 C 1.01214 0.75239 0.40112 0.0
H390 H 0.07282 0.75971 0.42107 0.0
H391 H 0.04121 0.72729 0.41453 0.0
S392 S 0.98894 0.81591 0.38467 0.0
N393 N 1.01808 0.82059 0.39441 0.0
N394 N 0.98407 0.78542 0.38679 0.0
C395 C 1.00666 0.77767 0.39592 0.0
C396 C 1.02521 0.79673 0.39979 0.0
C397 C 0.5303 0.76406 0.66415 0.0
C398 C 0.55042 0.7669 0.64723 0.0
C399 C 0.51217 0.783 0.66719 0.0
C400 C 0.51367 0.80565 0.6537 0.0
H401 H 0.52848 0.747 0.67503 0.0
H402 H 0.49714 0.78008 0.68057 0.0
S403 S 0.56255 0.82246 0.60704 0.0
N404 N 0.57072 0.79426 0.61688 0.0
N405 N 0.5366 0.8296 0.62242 0.0
C406 C 0.5336 0.80867 0.63665 0.0
C407 C 0.55194 0.78937 0.63345 0.0
C408 C 0.63037 0.52694 0.757 0.0
C409 C 0.64145 0.54986 0.76387 0.0
C410 C 0.62933 0.50667 0.77378 0.0
C411 C 0.63953 0.50837 0.79808 0.0
H412 H 0.62178 0.52486 0.73872 0.0
H413 H 0.62033 0.48952 0.7677 0.0
S414 S 0.67174 0.56386 0.82489 0.0
N415 N 0.66383 0.57271 0.79629 0.0
N416 N 0.66159 0.53476 0.82792 0.0
C417 C 0.65123 0.53098 0.80498 0.0
C418 C 0.6522 0.55167 0.7879 0.0
C419 C 0.79605 0.38504 1.02254 0.0
C420 C 0.79837 0.4011 0.0433 0.0
C421 C 0.77685 0.3883 1.00473 0.0
C422 C 0.75926 0.40789 1.00681 0.0
H423 H 0.80926 0.36981 1.01999 0.0
H424 H 0.77615 0.37574 0.98886 0.0
S425 S 0.75644 0.45467 0.05797 0.0
N426 N 0.78106 0.43714 0.06503 0.0
N427 N 0.74477 0.44298 0.03184 0.0
C428 C 0.76105 0.42381 1.0277 0.0
C429 C 0.78058 0.42046 0.04587 0.0
C430 C 0.87245 0.5317 0.25861 0.0
C431 C 0.89 0.51194 0.25809 0.0
C432 C 0.87149 0.5485 0.27873 0.0
C433 C 0.88815 0.54642 0.29914 0.0
H434 H 0.85899 0.53395 0.24353 0.0
H435 H 0.85754 0.5633 0.27829 0.0
S436 S 0.93805 0.49836 0.30677 0.0
N437 N 0.92486 0.49165 0.27959 0.0
N438 N 0.92282 0.52303 0.31755 0.0
C439 C 0.906 0.52695 0.29877 0.0
C440 C 0.90693 0.50974 0.27828 0.0
C441 C 0.78131 0.64323 0.51518 0.0
C442 C 0.80066 0.66114 0.51734 0.0
C443 C 0.76316 0.64016 0.5341 0.0
C444 C 0.76386 0.65466 0.55606 0.0
H445 H 0.78011 0.63155 0.49868 0.0
H446 H 0.74877 0.62598 0.53173 0.0
S447 S 0.81047 0.70422 0.57091 0.0
N448 N 0.81934 0.69355 0.54332 0.0
N449 N 0.78516 0.68798 0.57859 0.0
C450 C 0.78298 0.67273 0.55838 0.0
C451 C 0.80135 0.67595 0.5391 0.0
loop_
_geom_bond_atom_site_label_1
_geom_bond_atom_site_label_2
_geom_bond_distance
_geom_bond_site_symmetry_2
_ccdc_geom_bond_type
C0 C1 1.264 . S
C0 C5 1.479 . S
C0 C10 1.465 . S
C1 C0 1.264 . S
C1 C3 1.339 . S
C1 H28 0.931 . S
C2 C3 1.395 . S
C2 C4 1.320 . S
C3 C1 1.339 . S
C3 C2 1.395 . S
C3 H29 0.929 . S
C4 C2 1.320 . S
C4 C5 1.405 . S
C4 H30 0.930 . S
C5 C0 1.479 . S
C5 C4 1.405 . S
C5 H31 0.931 . S
U6 O7 2.454 . S
U6 O8 2.458 . S
U6 C9 2.984 . S
U6 C10 2.847 . S
U6 C23 2.882 . S
U6 O24 2.441 . S
U6 O25 2.420 . S
U6 O26 2.455 . S
U6 O27 2.449 . S
O7 U6 2.454 . S
O7 C9 1.353 . S
O8 U6 2.458 . S
O8 C9 1.286 . S
C9 U6 2.984 . S
C9 O7 1.353 . S
C9 O8 1.286 . S
C9 C11 1.363 . S
C10 C0 1.465 . S
C10 U6 2.847 . S
C10 O24 1.249 . S
C10 O25 1.202 . S
C11 C9 1.363 . S
C11 C13 1.408 . S
C11 C16 1.342 . S
C12 C13 1.310 . S
C12 C15 1.461 . S
C12 H32 0.932 . S
C13 C11 1.408 . S
C13 C12 1.310 . S
C13 H33 0.930 . S
C14 C15 1.474 . S
C14 C16 1.285 . S
C14 H34 0.929 . S
C15 C12 1.461 . S
C15 C14 1.474 . S
C16 C11 1.342 . S
C16 C14 1.285 . S
C16 H35 0.930 . S
C17 C20 1.424 . S
C17 C22 1.245 . S
C17 C23 1.428 . S
C18 C21 1.260 . S
C18 C22 1.477 . S
C18 H36 0.932 . S
C19 C20 1.384 . S
C19 C21 1.479 . S
C19 H37 0.929 . S
C20 C17 1.424 . S
C20 C19 1.384 . S
C20 H38 0.928 . S
C21 C18 1.260 . S
C21 C19 1.479 . S
C22 C17 1.245 . S
C22 C18 1.477 . S
C22 H39 0.932 . S
C23 U6 2.882 . S
C23 C17 1.428 . S
C23 O26 1.301 . S
C23 O27 1.282 . S
O24 U6 2.441 . S
O24 C10 1.249 . S
O25 U6 2.420 . S
O25 C10 1.202 . S
O26 U6 2.455 . S
O26 C23 1.301 . S
O27 U6 2.449 . S
O27 C23 1.282 . S
H28 C1 0.931 . S
H29 C3 0.929 . S
H30 C4 0.930 . S
H31 C5 0.931 . S
H32 C12 0.932 . S
H33 C13 0.930 . S
H34 C14 0.929 . S
H35 C16 0.930 . S
H36 C18 0.932 . S
H37 C19 0.929 . S
H38 C20 0.928 . S
H39 C22 0.932 . S
C40 C41 1.264 . S
C40 C45 1.479 . S
C40 C50 1.465 . S
C41 C40 1.264 . S
C41 C43 1.339 . S
C41 H68 0.931 . S
C42 C43 1.395 . S
C42 C44 1.320 . S
C43 C41 1.339 . S
C43 C42 1.395 . S
C43 H69 0.929 . S
C44 C42 1.320 . S
C44 C45 1.405 . S
C44 H70 0.930 . S
C45 C40 1.479 . S
C45 C44 1.405 . S
C45 H71 0.931 . S
U46 O47 2.454 . S
U46 O48 2.458 . S
U46 C49 2.984 . S
U46 C50 2.847 . S
U46 C63 2.882 . S
U46 O64 2.441 . S
U46 O65 2.420 . S
U46 O66 2.455 . S
U46 O67 2.449 . S
O47 U46 2.454 . S
O47 C49 1.353 . S
O48 U46 2.458 . S
O48 C49 1.286 . S
C49 U46 2.984 . S
C49 O47 1.353 . S
C49 O48 1.286 . S
C49 C51 1.363 . S
C50 C40 1.465 . S
C50 U46 2.847 . S
C50 O64 1.249 . S
C50 O65 1.202 . S
C51 C49 1.363 . S
C51 C53 1.408 . S
C51 C56 1.342 . S
C52 C53 1.310 . S
C52 C55 1.461 . S
C52 H72 0.932 . S
C53 C51 1.408 . S
C53 C52 1.310 . S
C53 H73 0.930 . S
C54 C55 1.474 . S
C54 C56 1.285 . S
C54 H74 0.929 . S
C55 C52 1.461 . S
C55 C54 1.474 . S
C56 C51 1.342 . S
C56 C54 1.285 . S
C56 H75 0.930 . S
C57 C60 1.424 . S
C57 C62 1.245 . S
C57 C63 1.428 . S
C58 C61 1.260 . S
C58 C62 1.477 . S
C58 H76 0.932 . S
C59 C60 1.384 . S
C59 C61 1.479 . S
C59 H77 0.929 . S
C60 C57 1.424 . S
C60 C59 1.384 . S
C60 H78 0.928 . S
C61 C58 1.260 . S
C61 C59 1.479 . S
C62 C57 1.245 . S
C62 C58 1.477 . S
C62 H79 0.932 . S
C63 U46 2.882 . S
C63 C57 1.428 . S
C63 O66 1.301 . S
C63 O67 1.282 . S
O64 U46 2.441 . S
O64 C50 1.249 . S
O65 U46 2.420 . S
O65 C50 1.202 . S
O66 U46 2.455 . S
O66 C63 1.301 . S
O67 U46 2.449 . S
O67 C63 1.282 . S
H68 C41 0.931 . S
H69 C43 0.929 . S
H70 C44 0.930 . S
H71 C45 0.931 . S
H72 C52 0.932 . S
H73 C53 0.930 . S
H74 C54 0.929 . S
H75 C56 0.930 . S
H76 C58 0.932 . S
H77 C59 0.929 . S
H78 C60 0.928 . S
H79 C62 0.932 . S
C80 C81 1.264 . S
C80 C85 1.479 . S
C80 C90 1.465 . S
C81 C80 1.264 . S
C81 C83 1.339 . S
C81 H108 0.931 . S
C82 C83 1.395 . S
C82 C84 1.320 . S
C83 C81 1.339 . S
C83 C82 1.395 . S
C83 H109 0.929 . S
C84 C82 1.320 . S
C84 C85 1.405 . S
C84 H110 0.930 . S
C85 C80 1.479 . S
C85 C84 1.405 . S
C85 H111 0.931 . S
U86 O87 2.454 . S
U86 O88 2.458 . S
U86 C89 2.984 . S
U86 C90 2.847 . S
U86 C103 2.882 . S
U86 O104 2.441 . S
U86 O105 2.420 . S
U86 O106 2.455 . S
U86 O107 2.449 . S
O87 U86 2.454 . S
O87 C89 1.353 . S
O88 U86 2.458 . S
O88 C89 1.286 . S
C89 U86 2.984 . S
C89 O87 1.353 . S
C89 O88 1.286 . S
C89 C91 1.363 . S
C90 C80 1.465 . S
C90 U86 2.847 . S
C90 O104 1.249 . S
C90 O105 1.202 . S
C91 C89 1.363 . S
C91 C93 1.408 . S
C91 C96 1.342 . S
C92 C93 1.310 . S
C92 C95 1.461 . S
C92 H112 0.932 . S
C93 C91 1.408 . S
C93 C92 1.310 . S
C93 H113 0.930 . S
C94 C95 1.474 . S
C94 C96 1.285 . S
C94 H114 0.929 . S
C95 C92 1.461 . S
C95 C94 1.474 . S
C96 C91 1.342 . S
C96 C94 1.285 . S
C96 H115 0.930 . S
C97 C100 1.424 . S
C97 C102 1.245 . S
C97 C103 1.428 . S
C98 C101 1.260 . S
C98 C102 1.477 . S
C98 H116 0.932 . S
C99 C100 1.384 . S
C99 C101 1.479 . S
C99 H117 0.929 . S
C100 C97 1.424 . S
C100 C99 1.384 . S
C100 H118 0.928 . S
C101 C98 1.260 . S
C101 C99 1.479 . S
C102 C97 1.245 . S
C102 C98 1.477 . S
C102 H119 0.932 . S
C103 U86 2.882 . S
C103 C97 1.428 . S
C103 O106 1.301 . S
C103 O107 1.282 . S
O104 U86 2.441 . S
O104 C90 1.249 . S
O105 U86 2.420 . S
O105 C90 1.202 . S
O106 U86 2.455 . S
O106 C103 1.301 . S
O107 U86 2.449 . S
O107 C103 1.282 . S
H108 C81 0.931 . S
H109 C83 0.929 . S
H110 C84 0.930 . S
H111 C85 0.931 . S
H112 C92 0.932 . S
H113 C93 0.930 . S
H114 C94 0.929 . S
H115 C96 0.930 . S
H116 C98 0.932 . S
H117 C99 0.929 . S
H118 C100 0.928 . S
H119 C102 0.932 . S
C120 C121 1.264 . S
C120 C125 1.479 . S
C120 C130 1.465 . S
C121 C120 1.264 . S
C121 C123 1.339 . S
C121 H148 0.931 . S
C122 C123 1.395 . S
C122 C124 1.320 . S
C123 C121 1.339 . S
C123 C122 1.395 . S
C123 H149 0.929 . S
C124 C122 1.320 . S
C124 C125 1.405 . S
C124 H150 0.930 . S
C125 C120 1.479 . S
C125 C124 1.405 . S
C125 H151 0.931 . S
U126 O127 2.454 . S
U126 O128 2.458 . S
U126 C129 2.984 . S
U126 C130 2.847 . S
U126 C143 2.882 . S
U126 O144 2.441 . S
U126 O145 2.420 . S
U126 O146 2.455 . S
U126 O147 2.449 . S
O127 U126 2.454 . S
O127 C129 1.353 . S
O128 U126 2.458 . S
O128 C129 1.286 . S
C129 U126 2.984 . S
C129 O127 1.353 . S
C129 O128 1.286 . S
C129 C131 1.363 . S
C130 C120 1.465 . S
C130 U126 2.847 . S
C130 O144 1.249 . S
C130 O145 1.202 . S
C131 C129 1.363 . S
C131 C133 1.408 . S
C131 C136 1.342 . S
C132 C133 1.310 . S
C132 C135 1.461 . S
C132 H152 0.932 . S
C133 C131 1.408 . S
C133 C132 1.310 . S
C133 H153 0.930 . S
C134 C135 1.474 . S
C134 C136 1.285 . S
C134 H154 0.929 . S
C135 C132 1.461 . S
C135 C134 1.474 . S
C136 C131 1.342 . S
C136 C134 1.285 . S
C136 H155 0.930 . S
C137 C140 1.424 . S
C137 C142 1.245 . S
C137 C143 1.428 . S
C138 C141 1.260 . S
C138 C142 1.477 . S
C138 H156 0.932 . S
C139 C140 1.384 . S
C139 C141 1.479 . S
C139 H157 0.929 . S
C140 C137 1.424 . S
C140 C139 1.384 . S
C140 H158 0.928 . S
C141 C138 1.260 . S
C141 C139 1.479 . S
C142 C137 1.245 . S
C142 C138 1.477 . S
C142 H159 0.932 . S
C143 U126 2.882 . S
C143 C137 1.428 . S
C143 O146 1.301 . S
C143 O147 1.282 . S
O144 U126 2.441 . S
O144 C130 1.249 . S
O145 U126 2.420 . S
O145 C130 1.202 . S
O146 U126 2.455 . S
O146 C143 1.301 . S
O147 U126 2.449 . S
O147 C143 1.282 . S
H148 C121 0.931 . S
H149 C123 0.929 . S
H150 C124 0.930 . S
H151 C125 0.931 . S
H152 C132 0.932 . S
H153 C133 0.930 . S
H154 C134 0.929 . S
H155 C136 0.930 . S
H156 C138 0.932 . S
H157 C139 0.929 . S
H158 C140 0.928 . S
H159 C142 0.932 . S
C160 C161 1.264 . S
C160 C165 1.479 . S
C160 C170 1.465 . S
C161 C160 1.264 . S
C161 C163 1.339 . S
C161 H188 0.931 . S
C162 C163 1.395 . S
C162 C164 1.320 . S
C163 C161 1.339 . S
C163 C162 1.395 . S
C163 H189 0.929 . S
C164 C162 1.320 . S
C164 C165 1.405 . S
C164 H190 0.930 . S
C165 C160 1.479 . S
C165 C164 1.405 . S
C165 H191 0.931 . S
U166 O167 2.454 . S
U166 O168 2.458 . S
U166 C169 2.984 . S
U166 C170 2.847 . S
U166 C183 2.882 . S
U166 O184 2.441 . S
U166 O185 2.420 . S
U166 O186 2.455 . S
U166 O187 2.449 . S
O167 U166 2.454 . S
O167 C169 1.353 . S
O168 U166 2.458 . S
O168 C169 1.286 . S
C169 U166 2.984 . S
C169 O167 1.353 . S
C169 O168 1.286 . S
C169 C171 1.363 . S
C170 C160 1.465 . S
C170 U166 2.847 . S
C170 O184 1.249 . S
C170 O185 1.202 . S
C171 C169 1.363 . S
C171 C173 1.408 . S
C171 C176 1.342 . S
C172 C173 1.310 . S
C172 C175 1.461 . S
C172 H192 0.932 . S
C173 C171 1.408 . S
C173 C172 1.310 . S
C173 H193 0.930 . S
C174 C175 1.474 . S
C174 C176 1.285 . S
C174 H194 0.929 . S
C175 C172 1.461 . S
C175 C174 1.474 . S
C176 C171 1.342 . S
C176 C174 1.285 . S
C176 H195 0.930 . S
C177 C180 1.424 . S
C177 C182 1.245 . S
C177 C183 1.428 . S
C178 C181 1.260 . S
C178 C182 1.477 . S
C178 H196 0.932 . S
C179 C180 1.384 . S
C179 C181 1.479 . S
C179 H197 0.929 . S
C180 C177 1.424 . S
C180 C179 1.384 . S
C180 H198 0.928 . S
C181 C178 1.260 . S
C181 C179 1.479 . S
C182 C177 1.245 . S
C182 C178 1.477 . S
C182 H199 0.932 . S
C183 U166 2.882 . S
C183 C177 1.428 . S
C183 O186 1.301 . S
C183 O187 1.282 . S
O184 U166 2.441 . S
O184 C170 1.249 . S
O185 U166 2.420 . S
O185 C170 1.202 . S
O186 U166 2.455 . S
O186 C183 1.301 . S
O187 U166 2.449 . S
O187 C183 1.282 . S
H188 C161 0.931 . S
H189 C163 0.929 . S
H190 C164 0.930 . S
H191 C165 0.931 . S
H192 C172 0.932 . S
H193 C173 0.930 . S
H194 C174 0.929 . S
H195 C176 0.930 . S
H196 C178 0.932 . S
H197 C179 0.929 . S
H198 C180 0.928 . S
H199 C182 0.932 . S
C200 C201 1.264 . S
C200 C205 1.479 . S
C200 C210 1.465 . S
C201 C200 1.264 . S
C201 C203 1.339 . S
C201 H228 0.931 . S
C202 C203 1.395 . S
C202 C204 1.320 . S
C203 C201 1.339 . S
C203 C202 1.395 . S
C203 H229 0.929 . S
C204 C202 1.320 . S
C204 C205 1.405 . S
C204 H230 0.930 . S
C205 C200 1.479 . S
C205 C204 1.405 . S
C205 H231 0.931 . S
U206 O207 2.454 . S
U206 O208 2.458 . S
U206 C209 2.984 . S
U206 C210 2.847 . S
U206 C223 2.882 . S
U206 O224 2.441 . S
U206 O225 2.420 . S
U206 O226 2.455 . S
U206 O227 2.449 . S
O207 U206 2.454 . S
O207 C209 1.353 . S
O208 U206 2.458 . S
O208 C209 1.286 . S
C209 U206 2.984 . S
C209 O207 1.353 . S
C209 O208 1.286 . S
C209 C211 1.363 . S
C210 C200 1.465 . S
C210 U206 2.847 . S
C210 O224 1.249 . S
C210 O225 1.202 . S
C211 C209 1.363 . S
C211 C213 1.408 . S
C211 C216 1.342 . S
C212 C213 1.310 . S
C212 C215 1.461 . S
C212 H232 0.932 . S
C213 C211 1.408 . S
C213 C212 1.310 . S
C213 H233 0.930 . S
C214 C215 1.474 . S
C214 C216 1.285 . S
C214 H234 0.929 . S
C215 C212 1.461 . S
C215 C214 1.474 . S
C216 C211 1.342 . S
C216 C214 1.285 . S
C216 H235 0.930 . S
C217 C220 1.424 . S
C217 C222 1.245 . S
C217 C223 1.428 . S
C218 C221 1.260 . S
C218 C222 1.477 . S
C218 H236 0.932 . S
C219 C220 1.384 . S
C219 C221 1.479 . S
C219 H237 0.929 . S
C220 C217 1.424 . S
C220 C219 1.384 . S
C220 H238 0.928 . S
C221 C218 1.260 . S
C221 C219 1.479 . S
C222 C217 1.245 . S
C222 C218 1.477 . S
C222 H239 0.932 . S
C223 U206 2.882 . S
C223 C217 1.428 . S
C223 O226 1.301 . S
C223 O227 1.282 . S
O224 U206 2.441 . S
O224 C210 1.249 . S
O225 U206 2.420 . S
O225 C210 1.202 . S
O226 U206 2.455 . S
O226 C223 1.301 . S
O227 U206 2.449 . S
O227 C223 1.282 . S
H228 C201 0.931 . S
H229 C203 0.929 . S
H230 C204 0.930 . S
H231 C205 0.931 . S
H232 C212 0.932 . S
H233 C213 0.930 . S
H234 C214 0.929 . S
H235 C216 0.930 . S
H236 C218 0.932 . S
H237 C219 0.929 . S
H238 C220 0.928 . S
H239 C222 0.932 . S
C240 C241 1.264 . S
C240 C245 1.479 . S
C240 C250 1.465 . S
C241 C240 1.264 . S
C241 C243 1.339 . S
C241 H268 0.931 . S
C242 C243 1.395 . S
C242 C244 1.320 . S
C243 C241 1.339 . S
C243 C242 1.395 . S
C243 H269 0.929 . S
C244 C242 1.320 . S
C244 C245 1.405 . S
C244 H270 0.930 . S
C245 C240 1.479 . S
C245 C244 1.405 . S
C245 H271 0.931 . S
U246 O247 2.454 . S
U246 O248 2.458 . S
U246 C249 2.984 . S
U246 C250 2.847 . S
U246 C263 2.882 . S
U246 O264 2.441 . S
U246 O265 2.420 . S
U246 O266 2.455 . S
U246 O267 2.449 . S
O247 U246 2.454 . S
O247 C249 1.353 . S
O248 U246 2.458 . S
O248 C249 1.286 . S
C249 U246 2.984 . S
C249 O247 1.353 . S
C249 O248 1.286 . S
C249 C251 1.363 . S
C250 C240 1.465 . S
C250 U246 2.847 . S
C250 O264 1.249 . S
C250 O265 1.202 . S
C251 C249 1.363 . S
C251 C253 1.408 . S
C251 C256 1.342 . S
C252 C253 1.310 . S
C252 C255 1.461 . S
C252 H272 0.932 . S
C253 C251 1.408 . S
C253 C252 1.310 . S
C253 H273 0.930 . S
C254 C255 1.474 . S
C254 C256 1.285 . S
C254 H274 0.929 . S
C255 C252 1.461 . S
C255 C254 1.474 . S
C256 C251 1.342 . S
C256 C254 1.285 . S
C256 H275 0.930 . S
C257 C260 1.424 . S
C257 C262 1.245 . S
C257 C263 1.428 . S
C258 C261 1.260 . S
C258 C262 1.477 . S
C258 H276 0.932 . S
C259 C260 1.384 . S
C259 C261 1.479 . S
C259 H277 0.929 . S
C260 C257 1.424 . S
C260 C259 1.384 . S
C260 H278 0.928 . S
C261 C258 1.260 . S
C261 C259 1.479 . S
C262 C257 1.245 . S
C262 C258 1.477 . S
C262 H279 0.932 . S
C263 U246 2.882 . S
C263 C257 1.428 . S
C263 O266 1.301 . S
C263 O267 1.282 . S
O264 U246 2.441 . S
O264 C250 1.249 . S
O265 U246 2.420 . S
O265 C250 1.202 . S
O266 U246 2.455 . S
O266 C263 1.301 . S
O267 U246 2.449 . S
O267 C263 1.282 . S
H268 C241 0.931 . S
H269 C243 0.929 . S
H270 C244 0.930 . S
H271 C245 0.931 . S
H272 C252 0.932 . S
H273 C253 0.930 . S
H274 C254 0.929 . S
H275 C256 0.930 . S
H276 C258 0.932 . S
H277 C259 0.929 . S
H278 C260 0.928 . S
H279 C262 0.932 . S
C280 C281 1.264 . S
C280 C285 1.479 . S
C280 C290 1.465 . S
C281 C280 1.264 . S
C281 C283 1.339 . S
C281 H308 0.931 . S
C282 C283 1.395 . S
C282 C284 1.320 . S
C283 C281 1.339 . S
C283 C282 1.395 . S
C283 H309 0.929 . S
C284 C282 1.320 . S
C284 C285 1.405 . S
C284 H310 0.930 . S
C285 C280 1.479 . S
C285 C284 1.405 . S
C285 H311 0.931 . S
U286 O287 2.454 . S
U286 O288 2.458 . S
U286 C289 2.984 . S
U286 C290 2.847 . S
U286 C303 2.882 . S
U286 O304 2.441 . S
U286 O305 2.420 . S
U286 O306 2.455 . S
U286 O307 2.449 . S
O287 U286 2.454 . S
O287 C289 1.353 . S
O288 U286 2.458 . S
O288 C289 1.286 . S
C289 U286 2.984 . S
C289 O287 1.353 . S
C289 O288 1.286 . S
C289 C291 1.363 . S
C290 C280 1.465 . S
C290 U286 2.847 . S
C290 O304 1.249 . S
C290 O305 1.202 . S
C291 C289 1.363 . S
C291 C293 1.408 . S
C291 C296 1.342 . S
C292 C293 1.310 . S
C292 C295 1.461 . S
C292 H312 0.932 . S
C293 C291 1.408 . S
C293 C292 1.310 . S
C293 H313 0.930 . S
C294 C295 1.474 . S
C294 C296 1.285 . S
C294 H314 0.929 . S
C295 C292 1.461 . S
C295 C294 1.474 . S
C296 C291 1.342 . S
C296 C294 1.285 . S
C296 H315 0.930 . S
C297 C300 1.424 . S
C297 C302 1.245 . S
C297 C303 1.428 . S
C298 C301 1.260 . S
C298 C302 1.477 . S
C298 H316 0.932 . S
C299 C300 1.384 . S
C299 C301 1.479 . S
C299 H317 0.929 . S
C300 C297 1.424 . S
C300 C299 1.384 . S
C300 H318 0.928 . S
C301 C298 1.260 . S
C301 C299 1.479 . S
C302 C297 1.245 . S
C302 C298 1.477 . S
C302 H319 0.932 . S
C303 U286 2.882 . S
C303 C297 1.428 . S
C303 O306 1.301 . S
C303 O307 1.282 . S
O304 U286 2.441 . S
O304 C290 1.249 . S
O305 U286 2.420 . S
O305 C290 1.202 . S
O306 U286 2.455 . S
O306 C303 1.301 . S
O307 U286 2.449 . S
O307 C303 1.282 . S
H308 C281 0.931 . S
H309 C283 0.929 . S
H310 C284 0.930 . S
H311 C285 0.931 . S
H312 C292 0.932 . S
H313 C293 0.930 . S
H314 C294 0.929 . S
H315 C296 0.930 . S
H316 C298 0.932 . S
H317 C299 0.929 . S
H318 C300 0.928 . S
H319 C302 0.932 . S
C320 C321 1.369 . S
C320 C322 1.419 1_565 S
C320 H324 0.930 . S
C321 C320 1.369 . S
C321 C330 1.429 . S
C322 C320 1.419 1_545 S
C322 C323 1.363 . S
C322 H325 0.929 . S
C323 C322 1.363 . S
C323 C329 1.428 . S
H324 C320 0.930 . S
H325 C322 0.929 . S
S326 N327 1.613 . S
S326 N328 1.580 1_565 S
N327 S326 1.613 . S
N327 C330 1.350 . S
N328 S326 1.580 1_545 S
N328 C329 1.353 . S
C329 C323 1.428 . S
C329 N328 1.353 . S
C329 C330 1.434 1_545 S
C330 C321 1.429 . S
C330 N327 1.350 . S
C330 C329 1.434 1_565 S
C331 C332 1.369 . S
C331 C333 1.419 . S
C331 H335 0.930 . S
C332 C331 1.369 . S
C332 C341 1.429 . S
C333 C331 1.419 . S
C333 C334 1.363 . S
C333 H336 0.929 . S
C334 C333 1.363 . S
C334 C340 1.428 . S
H335 C331 0.930 . S
H336 C333 0.929 . S
S337 N338 1.613 . S
S337 N339 1.610 . S
N338 S337 1.613 . S
N338 C341 1.350 . S
N339 S337 1.610 . S
N339 C340 1.351 . S
C340 C334 1.428 . S
C340 N339 1.351 . S
C340 C341 1.434 . S
C341 C332 1.429 . S
C341 N338 1.350 . S
C341 C340 1.434 . S
C342 C343 1.369 . S
C342 C344 1.419 . S
C342 H346 0.930 . S
C343 C342 1.369 . S
C343 C352 1.429 1_565 S
C344 C342 1.419 . S
C344 C345 1.363 1_565 S
C344 H347 0.929 . S
C345 C344 1.363 1_545 S
C345 C351 1.428 . S
H346 C342 0.930 . S
H347 C344 0.929 . S
S348 N349 1.613 . S
S348 N350 1.610 . S
N349 S348 1.613 . S
N349 C352 1.350 . S
N350 S348 1.610 . S
N350 C351 1.351 . S
C351 C345 1.428 . S
C351 N350 1.351 . S
C351 C352 1.434 . S
C352 C343 1.429 1_545 S
C352 N349 1.350 . S
C352 C351 1.434 . S
C353 C354 1.369 . S
C353 C355 1.419 . S
C353 H357 0.930 . S
C354 C353 1.369 . S
C354 C363 1.429 . S
C355 C353 1.419 . S
C355 C356 1.363 1_554 S
C355 H358 0.929 . S
C356 C355 1.363 1_556 S
C356 C362 1.428 . S
H357 C353 0.930 . S
H358 C355 0.929 . S
S359 N360 1.613 1_556 S
S359 N361 1.610 . S
N360 S359 1.613 1_554 S
N360 C363 1.350 . S
N361 S359 1.610 . S
N361 C362 1.351 . S
C362 C356 1.428 . S
C362 N361 1.351 . S
C362 C363 1.434 1_556 S
C363 C354 1.429 . S
C363 N360 1.350 . S
C363 C362 1.434 1_554 S
C364 C365 1.369 . S
C364 C366 1.419 . S
C364 H368 0.930 . S
C365 C364 1.369 . S
C365 C374 1.429 1_655 S
C366 C364 1.419 . S
C366 C367 1.363 1_655 S
C366 H369 0.929 . S
C367 C366 1.363 1_455 S
C367 C373 1.428 . S
H368 C364 0.930 . S
H369 C366 0.929 . S
S370 N371 1.613 . S
S370 N372 1.610 . S
N371 S370 1.613 . S
N371 C374 1.350 . S
N372 S370 1.610 . S
N372 C373 1.351 . S
C373 C367 1.428 . S
C373 N372 1.351 . S
C373 C374 1.434 . S
C374 C365 1.429 1_455 S
C374 N371 1.350 . S
C374 C373 1.434 . S
C375 C376 1.369 . S
C375 C377 1.419 . S
C375 H379 0.930 . S
C376 C375 1.369 . S
C376 C385 1.429 . S
C377 C375 1.419 . S
C377 C378 1.363 . S
C377 H380 0.929 . S
C378 C377 1.363 . S
C378 C384 1.428 . S
H379 C375 0.930 . S
H380 C377 0.929 . S
S381 N382 1.613 . S
S381 N383 1.610 . S
N382 S381 1.613 . S
N382 C385 1.350 . S
N383 S381 1.610 . S
N383 C384 1.351 . S
C384 C378 1.428 . S
C384 N383 1.351 . S
C384 C385 1.434 . S
C385 C376 1.429 . S
C385 N382 1.350 . S
C385 C384 1.434 . S
C386 C387 1.369 . S
C386 C388 1.419 . S
C386 H390 0.930 . S
C387 C386 1.369 . S
C387 C396 1.429 1_455 S
C388 C386 1.419 . S
C388 C389 1.363 1_455 S
C388 H391 0.929 . S
C389 C388 1.363 1_655 S
C389 C395 1.428 . S
H390 C386 0.930 . S
H391 C388 0.929 . S
S392 N393 1.613 . S
S392 N394 1.610 . S
N393 S392 1.613 . S
N393 C396 1.350 . S
N394 S392 1.610 . S
N394 C395 1.351 . S
C395 C389 1.428 . S
C395 N394 1.351 . S
C395 C396 1.434 . S
C396 C387 1.429 1_655 S
C396 N393 1.350 . S
C396 C395 1.434 . S
C397 C398 1.369 . S
C397 C399 1.419 . S
C397 H401 0.930 . S
C398 C397 1.369 . S
C398 C407 1.429 . S
C399 C397 1.419 . S
C399 C400 1.363 . S
C399 H402 0.929 . S
C400 C399 1.363 . S
C400 C406 1.428 . S
H401 C397 0.930 . S
H402 C399 0.929 . S
S403 N404 1.613 . S
S403 N405 1.610 . S
N404 S403 1.613 . S
N404 C407 1.350 . S
N405 S403 1.610 . S
N405 C406 1.351 . S
C406 C400 1.428 . S
C406 N405 1.351 . S
C406 C407 1.434 . S
C407 C398 1.429 . S
C407 N404 1.350 . S
C407 C406 1.434 . S
C408 C409 1.369 . S
C408 C410 1.419 . S
C408 H412 0.930 . S
C409 C408 1.369 . S
C409 C418 1.429 . S
C410 C408 1.419 . S
C410 C411 1.363 . S
C410 H413 0.929 . S
C411 C410 1.363 . S
C411 C417 1.428 . S
H412 C408 0.930 . S
H413 C410 0.929 . S
S414 N415 1.613 . S
S414 N416 1.610 . S
N415 S414 1.613 . S
N415 C418 1.350 . S
N416 S414 1.610 . S
N416 C417 1.351 . S
C417 C411 1.428 . S
C417 N416 1.351 . S
C417 C418 1.434 . S
C418 C409 1.429 . S
C418 N415 1.350 . S
C418 C417 1.434 . S
C419 C420 1.369 1_556 S
C419 C421 1.419 . S
C419 H423 0.930 . S
C420 C419 1.369 1_554 S
C420 C429 1.429 . S
C421 C419 1.419 . S
C421 C422 1.363 . S
C421 H424 0.929 . S
C422 C421 1.363 . S
C422 C428 1.428 . S
H423 C419 0.930 . S
H424 C421 0.929 . S
S425 N426 1.613 . S
S425 N427 1.610 1_554 S
N426 S425 1.613 . S
N426 C429 1.350 . S
N427 S425 1.610 1_556 S
N427 C428 1.351 . S
C428 C422 1.428 . S
C428 N427 1.351 . S
C428 C429 1.434 1_556 S
C429 C420 1.429 . S
C429 N426 1.350 . S
C429 C428 1.434 1_554 S
C430 C431 1.369 . S
C430 C432 1.419 . S
C430 H434 0.930 . S
C431 C430 1.369 . S
C431 C440 1.429 . S
C432 C430 1.419 . S
C432 C433 1.363 . S
C432 H435 0.929 . S
C433 C432 1.363 . S
C433 C439 1.428 . S
H434 C430 0.930 . S
H435 C432 0.929 . S
S436 N437 1.613 . S
S436 N438 1.610 . S
N437 S436 1.613 . S
N437 C440 1.350 . S
N438 S436 1.610 . S
N438 C439 1.351 . S
C439 C433 1.428 . S
C439 N438 1.351 . S
C439 C440 1.434 . S
C440 C431 1.429 . S
C440 N437 1.350 . S
C440 C439 1.434 . S
C441 C442 1.369 . S
C441 C443 1.419 . S
C441 H445 0.930 . S
C442 C441 1.369 . S
C442 C451 1.429 . S
C443 C441 1.419 . S
C443 C444 1.363 . S
C443 H446 0.929 . S
C444 C443 1.363 . S
C444 C450 1.428 . S
H445 C441 0.930 . S
H446 C443 0.929 . S
S447 N448 1.613 . S
S447 N449 1.610 . S
N448 S447 1.613 . S
N448 C451 1.350 . S
N449 S447 1.610 . S
N449 C450 1.351 . S
C450 C444 1.428 . S
C450 N449 1.351 . S
C450 C451 1.434 . S
C451 C442 1.429 . S
C451 N448 1.350 . S
C451 C450 1.434 . S
C321 C42 1.489 . S
C323 C2 1.488 . S
C332 C61 1.487 . S
C334 C95 1.502 . S
C343 C82 1.489 . S
C345 C122 1.487 . S
C354 C21 1.485 . S
C356 C135 1.502 . S
C365 C221 1.490 . S
C367 C15 1.502 . S
C376 C141 1.486 . S
C378 C175 1.502 . S
C387 C55 1.502 . S
C389 C261 1.486 . S
C398 C295 1.502 . S
C400 C101 1.489 . S
C409 C282 1.490 . S
C411 C162 1.487 . S
C420 C215 1.502 . S
C422 C181 1.486 . S
C431 C202 1.487 . S
C433 C242 1.489 . S
C442 C255 1.502 . S
C444 C301 1.489 . S
