# Generated by pormake.
# Topology reo-e, (6)-cn, num edge types: 1
# Building blocks:
#     Node 0, Type 0, BuildingBlock: IZENUY_clean_sbu_0, # of connection points: 6
#     Node 1, Type 0, BuildingBlock: IZENUY_clean_sbu_0, # of connection points: 6
#     Node 2, Type 0, BuildingBlock: IZENUY_clean_sbu_0, # of connection points: 6
#     Node 3, Type 0, BuildingBlock: IZENUY_clean_sbu_0, # of connection points: 6
#     Node 4, Type 0, BuildingBlock: IZENUY_clean_sbu_0, # of connection points: 6
#     Node 5, Type 0, BuildingBlock: IZENUY_clean_sbu_0, # of connection points: 6
#     Node 6, Type 0, BuildingBlock: IZENUY_clean_sbu_0, # of connection points: 6
#     Node 7, Type 0, BuildingBlock: IZENUY_clean_sbu_0, # of connection points: 6
#     Node 8, Type 0, BuildingBlock: IZENUY_clean_sbu_0, # of connection points: 6
#     Node 9, Type 0, BuildingBlock: IZENUY_clean_sbu_0, # of connection points: 6
#     Node 10, Type 0, BuildingBlock: IZENUY_clean_sbu_0, # of connection points: 6
#     Node 11, Type 0, BuildingBlock: IZENUY_clean_sbu_0, # of connection points: 6
#     Edge 12, Type (0, 0), BuildingBlock: CIFDUS_clean_linker_0, # of connection points: 2
#     Edge 13, Type (0, 0), BuildingBlock: CIFDUS_clean_linker_0, # of connection points: 2
#     Edge 14, Type (0, 0), BuildingBlock: CIFDUS_clean_linker_0, # of connection points: 2
#     Edge 15, Type (0, 0), BuildingBlock: CIFDUS_clean_linker_0, # of connection points: 2
#     Edge 16, Type (0, 0), BuildingBlock: CIFDUS_clean_linker_0, # of connection points: 2
#     Edge 17, Type (0, 0), BuildingBlock: CIFDUS_clean_linker_0, # of connection points: 2
#     Edge 18, Type (0, 0), BuildingBlock: CIFDUS_clean_linker_0, # of connection points: 2
#     Edge 19, Type (0, 0), BuildingBlock: CIFDUS_clean_linker_0, # of connection points: 2
#     Edge 20, Type (0, 0), BuildingBlock: CIFDUS_clean_linker_0, # of connection points: 2
#     Edge 21, Type (0, 0), BuildingBlock: CIFDUS_clean_linker_0, # of connection points: 2
#     Edge 22, Type (0, 0), BuildingBlock: CIFDUS_clean_linker_0, # of connection points: 2
#     Edge 23, Type (0, 0), BuildingBlock: CIFDUS_clean_linker_0, # of connection points: 2
#     Edge 24, Type (0, 0), BuildingBlock: CIFDUS_clean_linker_0, # of connection points: 2
#     Edge 25, Type (0, 0), BuildingBlock: CIFDUS_clean_linker_0, # of connection points: 2
#     Edge 26, Type (0, 0), BuildingBlock: CIFDUS_clean_linker_0, # of connection points: 2
#     Edge 27, Type (0, 0), BuildingBlock: CIFDUS_clean_linker_0, # of connection points: 2
#     Edge 28, Type (0, 0), BuildingBlock: CIFDUS_clean_linker_0, # of connection points: 2
#     Edge 29, Type (0, 0), BuildingBlock: CIFDUS_clean_linker_0, # of connection points: 2
#     Edge 30, Type (0, 0), BuildingBlock: CIFDUS_clean_linker_0, # of connection points: 2
#     Edge 31, Type (0, 0), BuildingBlock: CIFDUS_clean_linker_0, # of connection points: 2
#     Edge 32, Type (0, 0), BuildingBlock: CIFDUS_clean_linker_0, # of connection points: 2
#     Edge 33, Type (0, 0), BuildingBlock: CIFDUS_clean_linker_0, # of connection points: 2
#     Edge 34, Type (0, 0), BuildingBlock: CIFDUS_clean_linker_0, # of connection points: 2
#     Edge 35, Type (0, 0), BuildingBlock: CIFDUS_clean_linker_0, # of connection points: 2
#     Edge 36, Type (0, 0), BuildingBlock: CIFDUS_clean_linker_0, # of connection points: 2
#     Edge 37, Type (0, 0), BuildingBlock: CIFDUS_clean_linker_0, # of connection points: 2
#     Edge 38, Type (0, 0), BuildingBlock: CIFDUS_clean_linker_0, # of connection points: 2
#     Edge 39, Type (0, 0), BuildingBlock: CIFDUS_clean_linker_0, # of connection points: 2
#     Edge 40, Type (0, 0), BuildingBlock: CIFDUS_clean_linker_0, # of connection points: 2
#     Edge 41, Type (0, 0), BuildingBlock: CIFDUS_clean_linker_0, # of connection points: 2
#     Edge 42, Type (0, 0), BuildingBlock: CIFDUS_clean_linker_0, # of connection points: 2
#     Edge 43, Type (0, 0), BuildingBlock: CIFDUS_clean_linker_0, # of connection points: 2
#     Edge 44, Type (0, 0), BuildingBlock: CIFDUS_clean_linker_0, # of connection points: 2
#     Edge 45, Type (0, 0), BuildingBlock: CIFDUS_clean_linker_0, # of connection points: 2
#     Edge 46, Type (0, 0), BuildingBlock: CIFDUS_clean_linker_0, # of connection points: 2
#     Edge 47, Type (0, 0), BuildingBlock: CIFDUS_clean_linker_0, # of connection points: 2
# Relax obj value: 0.074
# Max RMSD: 0.096
# Mean RMSD: 0.095
data_MOF--net-reo-e--node1-IZENUY_clean_sbu_0--edge1-CIFDUS_clean_linker_0
_symmetry_space_group_name_H-M    P1
_symmetry_Int_Tables_number       1
_symmetry_cell_setting            triclinic
loop_
_symmetry_equiv_pos_as_xyz
'x, y, z'
_cell_length_a     33.390763
_cell_length_b     33.451977
_cell_length_c     33.316712
_cell_angle_alpha  89.87847
_cell_angle_beta   90.188604
_cell_angle_gamma 90.198019
loop_
_atom_site_label
_atom_site_type_symbol
_atom_site_fract_x
_atom_site_fract_y
_atom_site_fract_z
_atom_type_partial_charge
Fe0 Fe 0.20882 0.20362 0.56441 0.0
Fe1 Fe 0.25964 0.26246 0.51457 0.0
O2 O 0.22752 0.22026 0.51721 0.0
Fe3 Fe 0.21445 0.19502 0.47205 0.0
O4 O 0.16194 0.20518 0.47985 0.0
O5 O 0.15914 0.19025 0.54446 0.0
O6 O 0.1877 0.25209 0.57664 0.0
C7 C 0.20691 0.28451 0.57743 0.0
C8 C 0.22146 0.13107 0.52796 0.0
O9 O 0.23894 0.2884 0.55788 0.0
C10 C 0.29366 0.20982 0.45845 0.0
O11 O 0.25565 0.21445 0.59176 0.0
O12 O 0.29661 0.23796 0.54546 0.0
O13 O 0.20984 0.14536 0.4948 0.0
O14 O 0.22791 0.15341 0.55761 0.0
C15 C 0.21322 0.2768 0.44893 0.0
O16 O 0.28757 0.24475 0.47127 0.0
O17 O 0.26669 0.18334 0.46102 0.0
C18 C 0.29077 0.22221 0.5794 0.0
O19 O 0.22441 0.28948 0.4829 0.0
O20 O 0.21603 0.24002 0.44048 0.0
C21 C 0.14206 0.19839 0.51134 0.0
Fe22 Fe 0.77902 0.26366 0.52184 0.0
Fe23 Fe 0.83126 0.20311 0.56793 0.0
O24 O 0.81659 0.22631 0.52223 0.0
Fe25 Fe 0.83958 0.21159 0.47664 0.0
O26 O 0.8586 0.26157 0.46744 0.0
O27 O 0.80196 0.29235 0.48069 0.0
O28 O 0.80716 0.29528 0.55689 0.0
C29 C 0.81968 0.28415 0.59104 0.0
C30 C 0.75893 0.22301 0.4528 0.0
O31 O 0.82348 0.24739 0.59907 0.0
C32 C 0.82878 0.13906 0.51273 0.0
O33 O 0.74984 0.24142 0.56293 0.0
O34 O 0.78091 0.18531 0.57768 0.0
O35 O 0.79581 0.22073 0.44491 0.0
O36 O 0.74755 0.23508 0.48686 0.0
C37 C 0.90413 0.21106 0.53189 0.0
O38 O 0.84139 0.15427 0.54518 0.0
O39 O 0.82163 0.16078 0.4826 0.0
C40 C 0.75034 0.20727 0.57951 0.0
O41 O 0.88284 0.21938 0.56189 0.0
O42 O 0.8881 0.19964 0.49942 0.0
C43 C 0.83657 0.29207 0.46497 0.0
Fe44 Fe 0.83004 0.82758 0.57112 0.0
Fe45 Fe 0.82737 0.83616 0.47927 0.0
O46 O 0.80912 0.81405 0.52416 0.0
Fe47 Fe 0.77 0.77855 0.52227 0.0
O48 O 0.74764 0.79348 0.57047 0.0
O49 O 0.78267 0.84601 0.5894 0.0
O50 O 0.84185 0.87926 0.5562 0.0
C51 C 0.82716 0.90091 0.52863 0.0
C52 C 0.81637 0.74418 0.57962 0.0
O53 O 0.81428 0.88552 0.49661 0.0
C54 C 0.81789 0.75931 0.45436 0.0
O55 O 0.87841 0.80976 0.55602 0.0
O56 O 0.87982 0.84075 0.49777 0.0
O57 O 0.80062 0.74066 0.54549 0.0
O58 O 0.82208 0.77844 0.59477 0.0
C59 C 0.74279 0.83014 0.46559 0.0
O60 O 0.84152 0.78839 0.45867 0.0
O61 O 0.78526 0.75737 0.4737 0.0
C62 C 0.89764 0.82226 0.52608 0.0
O63 O 0.77832 0.83481 0.45266 0.0
O64 O 0.73674 0.81392 0.49907 0.0
C65 C 0.75119 0.82522 0.59101 0.0
Fe66 Fe 0.20854 0.82574 0.46559 0.0
Fe67 Fe 0.25475 0.76167 0.51173 0.0
O68 O 0.22266 0.8034 0.51177 0.0
Fe69 Fe 0.20497 0.82277 0.55802 0.0
O70 O 0.15326 0.81361 0.5432 0.0
O71 O 0.15844 0.84017 0.48287 0.0
O72 O 0.18593 0.77987 0.4472 0.0
C73 C 0.20411 0.74703 0.44521 0.0
C74 C 0.22003 0.89254 0.51094 0.0
O75 O 0.2365 0.74165 0.46415 0.0
C76 C 0.28325 0.80733 0.57654 0.0
O77 O 0.25637 0.81547 0.44011 0.0
O78 O 0.29417 0.7897 0.48748 0.0
O79 O 0.203 0.87539 0.54043 0.0
O80 O 0.23001 0.8729 0.48042 0.0
C81 C 0.2048 0.73791 0.57111 0.0
O82 O 0.27902 0.7741 0.55911 0.0
O83 O 0.25575 0.83316 0.57548 0.0
C84 C 0.29073 0.80759 0.45438 0.0
O85 O 0.21754 0.731 0.53626 0.0
O86 O 0.20415 0.77359 0.5843 0.0
C87 C 0.13719 0.82698 0.51147 0.0
Fe88 Fe 0.56543 0.20163 0.20772 0.0
Fe89 Fe 0.52248 0.25765 0.26647 0.0
O90 O 0.52061 0.22279 0.22678 0.0
Fe91 Fe 0.47365 0.20892 0.20606 0.0
O92 O 0.4888 0.15778 0.19357 0.0
O93 O 0.54869 0.1516 0.22029 0.0
O94 O 0.59254 0.20265 0.25662 0.0
C95 C 0.58036 0.20684 0.29253 0.0
C96 C 0.51785 0.21602 0.13781 0.0
O97 O 0.54678 0.22228 0.29933 0.0
C98 C 0.46435 0.29187 0.22053 0.0
O99 O 0.58545 0.24998 0.19404 0.0
O100 O 0.57043 0.28007 0.25078 0.0
O101 O 0.48807 0.22776 0.15759 0.0
O102 O 0.54649 0.19774 0.15521 0.0
C103 C 0.45474 0.20923 0.28543 0.0
O104 O 0.49834 0.29568 0.23649 0.0
O105 O 0.4495 0.25749 0.21472 0.0
C106 C 0.58965 0.27876 0.21801 0.0
O107 O 0.47483 0.24132 0.28921 0.0
O108 O 0.45621 0.18929 0.25347 0.0
C109 C 0.51636 0.13622 0.2081 0.0
Fe110 Fe 0.83157 0.47223 0.21892 0.0
Fe111 Fe 0.77099 0.52028 0.26716 0.0
O112 O 0.81104 0.51917 0.23282 0.0
Fe113 Fe 0.82999 0.56471 0.21304 0.0
O114 O 0.84035 0.5436 0.16286 0.0
O115 O 0.82006 0.48074 0.16663 0.0
O116 O 0.78296 0.44494 0.22229 0.0
C117 C 0.74707 0.45784 0.22181 0.0
C118 C 0.90021 0.52358 0.22321 0.0
O119 O 0.73952 0.49291 0.23303 0.0
C120 C 0.81612 0.58134 0.29616 0.0
O121 O 0.84485 0.46023 0.27078 0.0
O122 O 0.78558 0.47505 0.29403 0.0
O123 O 0.87993 0.55423 0.23093 0.0
O124 O 0.88326 0.49124 0.21252 0.0
C125 C 0.75049 0.58292 0.21407 0.0
O126 O 0.80061 0.54763 0.30276 0.0
O127 O 0.82256 0.59322 0.26036 0.0
C128 C 0.81969 0.45967 0.29895 0.0
O129 O 0.74817 0.56592 0.24777 0.0
O130 O 0.78156 0.57959 0.19314 0.0
C131 C 0.82962 0.51106 0.14618 0.0
Fe132 Fe 0.56839 0.82518 0.20642 0.0
Fe133 Fe 0.47665 0.83204 0.20234 0.0
O134 O 0.52034 0.81152 0.22482 0.0
Fe135 Fe 0.51598 0.77767 0.26558 0.0
O136 O 0.56223 0.79459 0.29117 0.0
O137 O 0.58393 0.84478 0.25436 0.0
O138 O 0.55403 0.87644 0.19308 0.0
C139 C 0.5254 0.89783 0.20542 0.0
C140 C 0.57658 0.74244 0.22332 0.0
O141 O 0.49233 0.88232 0.21512 0.0
C142 C 0.45196 0.75482 0.21306 0.0
O143 O 0.55678 0.80658 0.15698 0.0
O144 O 0.49824 0.83585 0.15181 0.0
O145 O 0.54231 0.73897 0.23864 0.0
O146 O 0.59163 0.77656 0.21662 0.0
C147 C 0.4562 0.82936 0.28516 0.0
O148 O 0.45763 0.78306 0.18846 0.0
O149 O 0.46925 0.75453 0.24707 0.0
C150 C 0.52787 0.81851 0.13593 0.0
O151 O 0.44686 0.83182 0.24842 0.0
O152 O 0.48886 0.81362 0.29575 0.0
C153 C 0.58421 0.82533 0.28669 0.0
Fe154 Fe 0.20872 0.5605 0.2077 0.0
Fe155 Fe 0.26645 0.513 0.26076 0.0
O156 O 0.22825 0.51386 0.22406 0.0
Fe157 Fe 0.20987 0.46817 0.20412 0.0
O158 O 0.20073 0.48867 0.15334 0.0
O159 O 0.22326 0.55056 0.15661 0.0
O160 O 0.25704 0.58808 0.21335 0.0
C161 C 0.29295 0.57558 0.21627 0.0
C162 C 0.1398 0.50963 0.21131 0.0
O163 O 0.29987 0.54066 0.22863 0.0
C164 C 0.21939 0.45213 0.28772 0.0
O165 O 0.19272 0.5737 0.25796 0.0
O166 O 0.24991 0.55817 0.28637 0.0
O167 O 0.15969 0.47899 0.22017 0.0
O168 O 0.15712 0.54136 0.19925 0.0
C169 C 0.28918 0.45022 0.20879 0.0
O170 O 0.2351 0.48558 0.29499 0.0
O171 O 0.21568 0.43986 0.25177 0.0
C172 C 0.21577 0.5742 0.28793 0.0
O173 O 0.29034 0.46737 0.24253 0.0
O174 O 0.2589 0.4534 0.18645 0.0
C175 C 0.21357 0.52024 0.13634 0.0
Fe176 Fe 0.55492 0.83424 0.82836 0.0
Fe177 Fe 0.46307 0.82603 0.82932 0.0
O178 O 0.51031 0.81177 0.80994 0.0
Fe179 Fe 0.51261 0.77514 0.77195 0.0
O180 O 0.5608 0.75427 0.78849 0.0
O181 O 0.57536 0.78657 0.84409 0.0
O182 O 0.53597 0.83973 0.88014 0.0
C183 C 0.50689 0.82276 0.89795 0.0
C184 C 0.56942 0.82653 0.7442 0.0
O185 O 0.477 0.80992 0.87879 0.0
C186 C 0.44476 0.82146 0.75008 0.0
O187 O 0.53786 0.88369 0.81393 0.0
O188 O 0.47774 0.87815 0.83988 0.0
O189 O 0.53636 0.80953 0.73778 0.0
O190 O 0.5818 0.83205 0.77987 0.0
C191 C 0.45471 0.74194 0.81857 0.0
O192 O 0.44606 0.84322 0.7808 0.0
O193 O 0.46482 0.78937 0.74844 0.0
C194 C 0.50582 0.89956 0.82586 0.0
O195 O 0.43942 0.7764 0.82257 0.0
O196 O 0.48901 0.73814 0.8036 0.0
C197 C 0.57965 0.75676 0.82146 0.0
Fe198 Fe 0.19968 0.55722 0.83086 0.0
Fe199 Fe 0.26143 0.51841 0.77492 0.0
O200 O 0.22123 0.51379 0.80932 0.0
Fe201 Fe 0.20214 0.46585 0.82252 0.0
O202 O 0.15269 0.47855 0.80425 0.0
O203 O 0.14913 0.536 0.83546 0.0
O204 O 0.18495 0.57673 0.78215 0.0
C205 C 0.20866 0.58223 0.75316 0.0
C206 C 0.20291 0.50797 0.89635 0.0
O207 O 0.24252 0.56502 0.75203 0.0
C208 C 0.28238 0.44949 0.82186 0.0
O209 O 0.24566 0.58699 0.83023 0.0
O210 O 0.29243 0.54561 0.81078 0.0
O211 O 0.18978 0.47978 0.87451 0.0
O212 O 0.21349 0.54081 0.88089 0.0
C213 C 0.21838 0.45789 0.73921 0.0
O214 O 0.28694 0.47227 0.79162 0.0
O215 O 0.25013 0.44929 0.84141 0.0
C216 C 0.2822 0.57788 0.82733 0.0
O217 O 0.23406 0.49206 0.73602 0.0
O218 O 0.2112 0.44294 0.77336 0.0
C219 C 0.13237 0.5075 0.81692 0.0
Fe220 Fe 0.51599 0.26161 0.76959 0.0
Fe221 Fe 0.47701 0.20781 0.8334 0.0
O222 O 0.52041 0.22591 0.80842 0.0
Fe223 Fe 0.56878 0.20872 0.82222 0.0
O224 O 0.58484 0.25889 0.83647 0.0
O225 O 0.56349 0.28624 0.78052 0.0
O226 O 0.49312 0.2971 0.80287 0.0
C227 C 0.46109 0.29142 0.8219 0.0
C228 C 0.57386 0.21517 0.73725 0.0
O229 O 0.44949 0.25608 0.83039 0.0
C230 C 0.52596 0.13875 0.82238 0.0
O231 O 0.4676 0.24394 0.7516 0.0
O232 O 0.45424 0.19013 0.78701 0.0
O233 O 0.5904 0.21382 0.77156 0.0
O234 O 0.53879 0.22844 0.73351 0.0
C235 C 0.52896 0.21329 0.89718 0.0
O236 O 0.49713 0.15649 0.83981 0.0
O237 O 0.55547 0.15818 0.80885 0.0
C238 C 0.44923 0.21123 0.75604 0.0
O239 O 0.496 0.22397 0.88201 0.0
O240 O 0.55656 0.19976 0.87519 0.0
C241 C 0.58293 0.28853 0.81301 0.0
Fe242 Fe 0.8285 0.47758 0.83629 0.0
Fe243 Fe 0.7707 0.52041 0.77903 0.0
O244 O 0.80707 0.52238 0.8175 0.0
Fe245 Fe 0.82238 0.56924 0.83704 0.0
O246 O 0.87412 0.55343 0.84754 0.0
O247 O 0.87795 0.49351 0.82101 0.0
O248 O 0.82496 0.44984 0.788 0.0
C249 C 0.82028 0.46201 0.75208 0.0
C250 C 0.81926 0.52623 0.90617 0.0
O251 O 0.80465 0.49552 0.74534 0.0
C252 C 0.73858 0.57978 0.82415 0.0
O253 O 0.78043 0.45872 0.85254 0.0
O254 O 0.74872 0.47303 0.79632 0.0
O255 O 0.80588 0.55558 0.88664 0.0
O256 O 0.83551 0.49697 0.88812 0.0
C257 C 0.81878 0.5872 0.75746 0.0
O258 O 0.73404 0.5453 0.80977 0.0
O259 O 0.77344 0.59392 0.82979 0.0
C260 C 0.75058 0.45475 0.82968 0.0
O261 O 0.78641 0.56742 0.75501 0.0
O262 O 0.84002 0.58594 0.7887 0.0
C263 C 0.89457 0.52546 0.83231 0.0
H264 H 0.21461 0.35843 0.45168 0.0
H265 H 0.19322 0.25944 0.37134 0.0
H266 H 0.18968 0.30522 0.31453 0.0
H267 H 0.19954 0.37265 0.28652 0.0
H268 H 0.22128 0.47138 0.36715 0.0
H269 H 0.21742 0.42652 0.42453 0.0
C270 C 0.20861 0.34687 0.42186 0.0
C271 C 0.20486 0.30544 0.41589 0.0
C272 C 0.20702 0.37333 0.38907 0.0
C273 C 0.19671 0.29115 0.37694 0.0
C274 C 0.19474 0.31732 0.34428 0.0
C275 C 0.20288 0.38444 0.31665 0.0
C276 C 0.21139 0.42524 0.32228 0.0
C277 C 0.20096 0.35837 0.3498 0.0
C278 C 0.2153 0.44 0.3617 0.0
C279 C 0.2131 0.41436 0.39469 0.0
H280 H 0.66181 0.19809 0.29118 0.0
H281 H 0.56182 0.20675 0.37238 0.0
H282 H 0.60761 0.21157 0.42935 0.0
H283 H 0.6765 0.21853 0.45605 0.0
H284 H 0.77603 0.20961 0.37412 0.0
H285 H 0.73022 0.19981 0.31826 0.0
C286 C 0.64997 0.20022 0.32137 0.0
C287 C 0.60832 0.20225 0.3272 0.0
C288 C 0.67653 0.20359 0.35418 0.0
C289 C 0.59371 0.20529 0.36675 0.0
C290 C 0.61993 0.20825 0.39948 0.0
C291 C 0.68815 0.21428 0.42603 0.0
C292 C 0.72981 0.21528 0.4196 0.0
C293 C 0.66147 0.20842 0.39354 0.0
C294 C 0.74421 0.20926 0.38032 0.0
C295 C 0.71798 0.20358 0.3481 0.0
H296 H 0.79735 0.68138 0.45464 0.0
H297 H 0.85586 0.77139 0.3828 0.0
H298 H 0.86263 0.72381 0.32745 0.0
H299 H 0.84755 0.65744 0.29801 0.0
H300 H 0.792 0.56732 0.37279 0.0
H301 H 0.78892 0.61388 0.42819 0.0
C302 C 0.81182 0.69043 0.42693 0.0
C303 C 0.82566 0.72978 0.42254 0.0
C304 C 0.81608 0.6629 0.39561 0.0
C305 C 0.84496 0.74111 0.38681 0.0
C306 C 0.84869 0.71399 0.35512 0.0
C307 C 0.83519 0.64792 0.32654 0.0
C308 C 0.8195 0.60904 0.33074 0.0
C309 C 0.83375 0.6749 0.35892 0.0
C310 C 0.80402 0.5971 0.36824 0.0
C311 C 0.8021 0.62375 0.40016 0.0
H312 H 0.29604 0.84555 0.38208 0.0
H313 H 0.36767 0.7859 0.47209 0.0
H314 H 0.4266 0.79185 0.42956 0.0
H315 H 0.45639 0.80807 0.36429 0.0
H316 H 0.38452 0.86666 0.27382 0.0
H317 H 0.32754 0.86763 0.31934 0.0
C318 C 0.32458 0.8341 0.39255 0.0
C319 C 0.32712 0.8147 0.42996 0.0
C320 C 0.35846 0.8374 0.36784 0.0
C321 C 0.36458 0.80058 0.44324 0.0
C322 C 0.39842 0.80397 0.41893 0.0
C323 C 0.42853 0.82175 0.35475 0.0
C324 C 0.42469 0.83679 0.31546 0.0
C325 C 0.39552 0.82151 0.38081 0.0
C326 C 0.38828 0.85449 0.30375 0.0
C327 C 0.35556 0.85492 0.32971 0.0
H328 H 0.17642 0.73708 0.64872 0.0
H329 H 0.22454 0.66025 0.55674 0.0
H330 H 0.22891 0.60544 0.60437 0.0
H331 H 0.22452 0.58024 0.67352 0.0
H332 H 0.17238 0.65425 0.76505 0.0
H333 H 0.16405 0.70877 0.7165 0.0
C334 C 0.18727 0.70819 0.63895 0.0
C335 C 0.20057 0.7033 0.59913 0.0
C336 C 0.18941 0.67617 0.66659 0.0
C337 C 0.2142 0.66533 0.58708 0.0
C338 C 0.21695 0.63378 0.61441 0.0
C339 C 0.21096 0.6082 0.68266 0.0
C340 C 0.19944 0.61338 0.72282 0.0
C341 C 0.20555 0.63908 0.65443 0.0
C342 C 0.18143 0.64953 0.73423 0.0
C343 C 0.17682 0.68078 0.70651 0.0
H344 H 0.29217 0.1881 0.65425 0.0
H345 H 0.36815 0.24344 0.56499 0.0
H346 H 0.42479 0.24031 0.61072 0.0
H347 H 0.45143 0.22791 0.67759 0.0
H348 H 0.37722 0.17306 0.76801 0.0
H349 H 0.32141 0.1691 0.71997 0.0
C350 C 0.32118 0.1992 0.64472 0.0
C351 C 0.32558 0.21667 0.60645 0.0
C352 C 0.35396 0.19735 0.67129 0.0
C353 C 0.3636 0.23031 0.59439 0.0
C354 C 0.39614 0.22852 0.6205 0.0
C355 C 0.42316 0.21458 0.68661 0.0
C356 C 0.41812 0.20125 0.72623 0.0
C357 C 0.39141 0.21299 0.65923 0.0
C358 C 0.38171 0.18346 0.73754 0.0
C359 C 0.34976 0.18155 0.7102 0.0
H360 H 0.83704 0.38174 0.75299 0.0
H361 H 0.81533 0.48048 0.67228 0.0
H362 H 0.81471 0.43503 0.61527 0.0
H363 H 0.81551 0.36636 0.58829 0.0
H364 H 0.83778 0.26789 0.66928 0.0
H365 H 0.84306 0.31388 0.72541 0.0
C366 C 0.83278 0.39344 0.72291 0.0
C367 C 0.82591 0.43457 0.71729 0.0
C368 C 0.83211 0.36701 0.68995 0.0
C369 C 0.82043 0.44898 0.67784 0.0
C370 C 0.81994 0.42295 0.64503 0.0
C371 C 0.8218 0.35498 0.61813 0.0
C372 C 0.8258 0.3135 0.62424 0.0
C373 C 0.8249 0.38174 0.65074 0.0
C374 C 0.83428 0.29953 0.66333 0.0
C375 C 0.83732 0.32587 0.6957 0.0
H376 H 0.67172 0.80997 0.58705 0.0
H377 H 0.76254 0.86137 0.66358 0.0
H378 H 0.71343 0.86977 0.71723 0.0
H379 H 0.64584 0.85683 0.74428 0.0
H380 H 0.55486 0.80779 0.66588 0.0
H381 H 0.60262 0.80485 0.61117 0.0
C382 C 0.68061 0.82333 0.61538 0.0
C383 C 0.72069 0.83452 0.62159 0.0
C384 C 0.65219 0.82847 0.64586 0.0
C385 C 0.73179 0.85244 0.65813 0.0
C386 C 0.70376 0.85713 0.68887 0.0
C387 C 0.63629 0.84611 0.71507 0.0
C388 C 0.5969 0.83193 0.70964 0.0
C389 C 0.66401 0.84447 0.68337 0.0
C390 C 0.58503 0.81855 0.67131 0.0
C391 C 0.61238 0.81668 0.63986 0.0
H392 H 0.45217 0.2344 0.36262 0.0
H393 H 0.39011 0.15907 0.27766 0.0
H394 H 0.33655 0.14752 0.32617 0.0
H395 H 0.30351 0.16545 0.39015 0.0
H396 H 0.36609 0.24167 0.47387 0.0
H397 H 0.42338 0.24555 0.42894 0.0
C398 C 0.42712 0.21515 0.35484 0.0
C399 C 0.42484 0.19826 0.31636 0.0
C400 C 0.39639 0.20874 0.38276 0.0
C401 C 0.39251 0.17276 0.30701 0.0
C402 C 0.36177 0.16616 0.33472 0.0
C403 C 0.33016 0.18192 0.3989 0.0
C404 C 0.33052 0.20353 0.43502 0.0
C405 C 0.36285 0.18484 0.37237 0.0
C406 C 0.36507 0.22508 0.44597 0.0
C407 C 0.39778 0.22749 0.42024 0.0
H408 H 0.87149 0.39715 0.31212 0.0
H409 H 0.78345 0.47132 0.37014 0.0
H410 H 0.7851 0.42866 0.42924 0.0
H411 H 0.80471 0.36608 0.46101 0.0
H412 H 0.89143 0.29003 0.40375 0.0
H413 H 0.89778 0.33789 0.34849 0.0
C414 C 0.85331 0.4043 0.33802 0.0
C415 C 0.82679 0.43687 0.33638 0.0
C416 C 0.8539 0.37915 0.37204 0.0
C417 C 0.80353 0.44593 0.37028 0.0
C418 C 0.80445 0.4216 0.40419 0.0
C419 C 0.82552 0.36025 0.43678 0.0
C420 C 0.84703 0.32428 0.43624 0.0
C421 C 0.82844 0.38742 0.40484 0.0
C422 C 0.87434 0.31747 0.4049 0.0
C423 C 0.87778 0.3447 0.37309 0.0
H424 H 0.58234 0.81209 0.36729 0.0
H425 H 0.65699 0.85958 0.27305 0.0
H426 H 0.71212 0.86855 0.32049 0.0
H427 H 0.74109 0.85753 0.38782 0.0
H428 H 0.6647 0.81328 0.48258 0.0
H429 H 0.60864 0.80918 0.43621 0.0
C430 C 0.61057 0.82476 0.3573 0.0
C431 C 0.61566 0.8347 0.3167 0.0
C432 C 0.64207 0.83041 0.38486 0.0
C433 C 0.65223 0.85164 0.30422 0.0
C434 C 0.6839 0.85667 0.3313 0.0
C435 C 0.71204 0.84765 0.39849 0.0
C436 C 0.70761 0.83512 0.43857 0.0
C437 C 0.67945 0.84545 0.3716 0.0
C438 C 0.66944 0.82276 0.45184 0.0
C439 C 0.63716 0.82021 0.42529 0.0
H440 H 0.22109 0.66889 0.44838 0.0
H441 H 0.16005 0.75682 0.37604 0.0
H442 H 0.15257 0.708 0.32169 0.0
H443 H 0.17298 0.64353 0.2915 0.0
H444 H 0.23774 0.55829 0.36403 0.0
H445 H 0.23386 0.60267 0.42173 0.0
C446 C 0.20562 0.67722 0.42091 0.0
C447 C 0.19188 0.71647 0.41578 0.0
C448 C 0.20246 0.64954 0.38973 0.0
C449 C 0.17112 0.72673 0.38051 0.0
C450 C 0.1671 0.69893 0.34937 0.0
C451 C 0.18536 0.63445 0.32023 0.0
C452 C 0.20615 0.59812 0.32355 0.0
C453 C 0.18405 0.66071 0.3531 0.0
C454 C 0.22216 0.58649 0.36078 0.0
C455 C 0.21997 0.6118 0.39373 0.0
H456 H 0.29306 0.85544 0.6424 0.0
H457 H 0.35456 0.77133 0.56641 0.0
H458 H 0.41173 0.77129 0.61173 0.0
H459 H 0.44139 0.78941 0.67594 0.0
H460 H 0.38069 0.87246 0.75356 0.0
H461 H 0.32651 0.87906 0.70446 0.0
C462 C 0.31927 0.83768 0.63555 0.0
C463 C 0.3193 0.81287 0.60158 0.0
C464 C 0.35208 0.83728 0.66216 0.0
C465 C 0.35351 0.7901 0.59286 0.0
C466 C 0.38628 0.79006 0.6187 0.0
C467 C 0.41648 0.80923 0.682 0.0
C468 C 0.41473 0.82982 0.71856 0.0
C469 C 0.38537 0.81254 0.65399 0.0
C470 C 0.38263 0.856 0.72568 0.0
C471 C 0.35155 0.8597 0.69769 0.0
H472 H 0.23138 0.36183 0.57755 0.0
H473 H 0.16038 0.27714 0.64475 0.0
H474 H 0.15512 0.32483 0.70001 0.0
H475 H 0.17712 0.38763 0.73206 0.0
H476 H 0.24806 0.472 0.66417 0.0
H477 H 0.24672 0.42741 0.60643 0.0
C478 C 0.21422 0.35399 0.60403 0.0
C479 C 0.19675 0.31576 0.60718 0.0
C480 C 0.21172 0.38133 0.63583 0.0
C481 C 0.17416 0.30632 0.64149 0.0
C482 C 0.17141 0.33349 0.67327 0.0
C483 C 0.19197 0.39644 0.70451 0.0
C484 C 0.21323 0.43288 0.70279 0.0
C485 C 0.19112 0.37059 0.67125 0.0
C486 C 0.23173 0.44407 0.66657 0.0
C487 C 0.23106 0.41853 0.63348 0.0
H488 H 0.64298 0.17293 0.73026 0.0
H489 H 0.56048 0.24591 0.66248 0.0
H490 H 0.60646 0.24671 0.60577 0.0
H491 H 0.67334 0.23315 0.57838 0.0
H492 H 0.75508 0.15847 0.64511 0.0
H493 H 0.70601 0.1514 0.69884 0.0
C494 C 0.63485 0.18851 0.70284 0.0
C495 C 0.59866 0.20983 0.70089 0.0
C496 C 0.6614 0.18876 0.67018 0.0
C497 C 0.58822 0.22937 0.66493 0.0
C498 C 0.6146 0.23003 0.63248 0.0
C499 C 0.68012 0.21479 0.6044 0.0
C500 C 0.71797 0.19683 0.60796 0.0
C501 C 0.65175 0.21081 0.63522 0.0
C502 C 0.72617 0.17266 0.64158 0.0
C503 C 0.69821 0.16882 0.6725 0.0
H504 H 0.79439 0.58665 0.6799 0.0
H505 H 0.86485 0.6543 0.76492 0.0
H506 H 0.87362 0.70768 0.71566 0.0
H507 H 0.85556 0.73789 0.65092 0.0
H508 H 0.786 0.66959 0.56554 0.0
H509 H 0.78318 0.61355 0.61225 0.0
C510 C 0.81196 0.61294 0.68746 0.0
C511 C 0.82836 0.61686 0.72611 0.0
C512 C 0.81696 0.64347 0.65902 0.0
C513 C 0.85173 0.65067 0.73537 0.0
C514 C 0.85665 0.68128 0.70729 0.0
C515 C 0.84021 0.71056 0.64235 0.0
C516 C 0.82044 0.70825 0.60513 0.0
C517 C 0.83854 0.67843 0.66939 0.0
C518 C 0.80125 0.67236 0.59415 0.0
C519 C 0.79943 0.6403 0.62091 0.0
H520 H 0.3943 0.29788 0.17878 0.0
H521 H 0.47772 0.36669 0.25023 0.0
H522 H 0.43212 0.42332 0.24943 0.0
H523 H 0.36584 0.45082 0.23456 0.0
H524 H 0.28242 0.38313 0.16238 0.0
H525 H 0.33097 0.32881 0.15685 0.0
C526 C 0.40266 0.32542 0.19381 0.0
C527 C 0.43905 0.32773 0.21513 0.0
C528 C 0.37626 0.35803 0.19325 0.0
C529 C 0.44978 0.36389 0.23385 0.0
C530 C 0.42367 0.39633 0.23353 0.0
C531 C 0.35853 0.42437 0.21716 0.0
C532 C 0.32049 0.42069 0.19939 0.0
C533 C 0.38643 0.39333 0.21427 0.0
C534 C 0.31154 0.38662 0.17639 0.0
C535 C 0.33917 0.35546 0.17345 0.0
H536 H 0.36264 0.57718 0.81121 0.0
H537 H 0.26982 0.64954 0.86392 0.0
H538 H 0.31589 0.70583 0.86879 0.0
H539 H 0.38028 0.73688 0.85173 0.0
H540 H 0.47333 0.66479 0.79915 0.0
H541 H 0.42961 0.60635 0.80104 0.0
C542 C 0.35265 0.60501 0.82439 0.0
C543 C 0.31256 0.60913 0.83654 0.0
C544 C 0.37925 0.63767 0.82679 0.0
C545 C 0.30034 0.64549 0.85382 0.0
C546 C 0.32666 0.67787 0.85657 0.0
C547 C 0.39118 0.70831 0.84107 0.0
C548 C 0.42984 0.70556 0.82473 0.0
C549 C 0.36582 0.67469 0.84205 0.0
C550 C 0.44359 0.66805 0.81158 0.0
C551 C 0.41856 0.63449 0.81256 0.0
H552 H 0.3622 0.45098 0.80506 0.0
H553 H 0.27039 0.3773 0.85841 0.0
H554 H 0.31795 0.32251 0.86616 0.0
H555 H 0.38457 0.29342 0.85259 0.0
H556 H 0.47677 0.36898 0.80201 0.0
H557 H 0.43049 0.42468 0.79901 0.0
C558 C 0.35273 0.42306 0.81874 0.0
C559 C 0.31269 0.41822 0.83071 0.0
C560 C 0.38036 0.3917 0.82355 0.0
C561 C 0.30104 0.38196 0.84889 0.0
C562 C 0.32822 0.35046 0.85322 0.0
C563 C 0.39473 0.32221 0.84153 0.0
C564 C 0.43409 0.32646 0.82698 0.0
C565 C 0.36783 0.35467 0.83995 0.0
C566 C 0.44663 0.36433 0.81305 0.0
C567 C 0.4201 0.39642 0.81116 0.0
H568 H 0.6754 0.45088 0.80077 0.0
H569 H 0.75836 0.38879 0.87811 0.0
H570 H 0.71161 0.3325 0.8836 0.0
H571 H 0.65016 0.29797 0.85978 0.0
H572 H 0.56865 0.36144 0.78168 0.0
H573 H 0.61163 0.4201 0.78346 0.0
C574 C 0.68307 0.4252 0.81919 0.0
C575 C 0.72041 0.42365 0.83843 0.0
C576 C 0.65641 0.39299 0.82183 0.0
C577 C 0.72974 0.39058 0.86283 0.0
C578 C 0.70313 0.3583 0.86581 0.0
C579 C 0.64161 0.32489 0.84375 0.0
C580 C 0.60678 0.32506 0.81995 0.0
C581 C 0.66682 0.35869 0.84447 0.0
C582 C 0.59581 0.36024 0.79953 0.0
C583 C 0.6203 0.39389 0.80054 0.0
H584 H 0.73368 0.65397 0.85831 0.0
H585 H 0.66341 0.56531 0.79524 0.0
H586 H 0.60762 0.61164 0.79051 0.0
H587 H 0.5804 0.67901 0.79932 0.0
H588 H 0.64873 0.76727 0.86454 0.0
H589 H 0.70336 0.71945 0.87357 0.0
C590 C 0.706 0.64463 0.84396 0.0
C591 C 0.70311 0.60631 0.82673 0.0
C592 C 0.67369 0.67147 0.84141 0.0
C593 C 0.66675 0.5946 0.80865 0.0
C594 C 0.63475 0.62117 0.80573 0.0
C595 C 0.60715 0.68765 0.81577 0.0
C596 C 0.61075 0.72671 0.83079 0.0
C597 C 0.6382 0.65993 0.82119 0.0
C598 C 0.64526 0.73735 0.85264 0.0
C599 C 0.67658 0.71006 0.85767 0.0
H600 H 0.64685 0.73605 0.18248 0.0
H601 H 0.56249 0.66757 0.2529 0.0
H602 H 0.60747 0.6104 0.25211 0.0
H603 H 0.67342 0.58238 0.2377 0.0
H604 H 0.75817 0.64999 0.16728 0.0
H605 H 0.71002 0.70473 0.16113 0.0
C606 C 0.63815 0.70849 0.19733 0.0
C607 C 0.60166 0.7064 0.21835 0.0
C608 C 0.66421 0.67561 0.19682 0.0
C609 C 0.59051 0.67021 0.2368 0.0
C610 C 0.61625 0.63746 0.23644 0.0
C611 C 0.68113 0.60889 0.2205 0.0
C612 C 0.71942 0.61244 0.20346 0.0
C613 C 0.65356 0.64023 0.21749 0.0
C614 C 0.72886 0.64659 0.18071 0.0
C615 C 0.70146 0.678 0.17747 0.0
H616 H 0.45115 0.67749 0.23664 0.0
H617 H 0.38174 0.76465 0.17156 0.0
H618 H 0.32629 0.71679 0.16534 0.0
H619 H 0.29589 0.65096 0.1825 0.0
H620 H 0.36848 0.56345 0.24429 0.0
H621 H 0.42394 0.61031 0.2473 0.0
C622 C 0.424 0.68584 0.22075 0.0
C623 C 0.42043 0.72458 0.20488 0.0
C624 C 0.39257 0.65807 0.21682 0.0
C625 C 0.38528 0.7349 0.18394 0.0
C626 C 0.35347 0.70761 0.18058 0.0
C627 C 0.32396 0.64207 0.19625 0.0
C628 C 0.32754 0.60371 0.21347 0.0
C629 C 0.35648 0.66922 0.1975 0.0
C630 C 0.36447 0.59266 0.2308 0.0
C631 C 0.3964 0.61954 0.23273 0.0
H632 H 0.58783 0.35748 0.23494 0.0
H633 H 0.66303 0.26599 0.18481 0.0
H634 H 0.71859 0.31371 0.17943 0.0
H635 H 0.74703 0.38074 0.1936 0.0
H636 H 0.66915 0.4725 0.24004 0.0
H637 H 0.61363 0.42568 0.24167 0.0
C638 C 0.61632 0.34819 0.22252 0.0
C639 C 0.62158 0.3084 0.21067 0.0
C640 C 0.64777 0.37584 0.21891 0.0
C641 C 0.65835 0.29665 0.19408 0.0
C642 C 0.69016 0.32384 0.19116 0.0
C643 C 0.71781 0.39055 0.20362 0.0
C644 C 0.71268 0.42999 0.21719 0.0
C645 C 0.68543 0.36343 0.20413 0.0
C646 C 0.67434 0.44232 0.22961 0.0
C647 C 0.64239 0.41551 0.23074 0.0
H648 H 0.21633 0.94685 0.57267 0.0
H649 H 0.23159 0.93791 0.44428 0.0
H650 H 0.23441 1.01019 0.43865 0.0
H651 H 0.23038 0.07624 0.46917 0.0
H652 H 0.21784 0.08703 0.59747 0.0
H653 H 0.21653 1.01409 0.60409 0.0
C654 C 0.22037 0.96078 0.54354 0.0
C655 C 0.22346 0.93678 0.509 0.0
C656 C 0.22249 1.0028 0.54038 0.0
C657 C 0.22913 0.9554 0.47148 0.0
C658 C 0.23068 0.99689 0.46811 0.0
C659 C 0.22748 0.06267 0.49863 0.0
C660 C 0.22387 0.08705 0.53269 0.0
C661 C 0.22707 0.02087 0.50224 0.0
C662 C 0.22071 0.06894 0.57071 0.0
C663 C 0.21978 0.02721 0.57451 0.0
H664 H 0.08918 0.20609 0.573 0.0
H665 H 0.09553 0.19302 0.44425 0.0
H666 H 0.02277 0.1962 0.43957 0.0
H667 H 0.95757 0.20292 0.47159 0.0
H668 H 0.95021 0.21779 0.60004 0.0
H669 H 0.02323 0.214 0.60519 0.0
C670 C 0.0746 0.20365 0.54397 0.0
C671 C 0.0978 0.19907 0.50907 0.0
C672 C 0.03264 0.20608 0.54138 0.0
C673 C 0.07846 0.19655 0.4716 0.0
C674 C 0.03683 0.19838 0.46887 0.0
C675 C 0.97184 0.2053 0.5008 0.0
C676 C 0.94837 0.21041 0.53539 0.0
C677 C 1.01367 0.20323 0.50351 0.0
C678 C 0.96751 0.21385 0.5729 0.0
C679 C 1.00926 0.21156 0.57588 0.0
H680 H 0.84672 0.08378 0.56976 0.0
H681 H 0.8033 0.09539 0.44802 0.0
H682 H 0.7983 0.02278 0.44257 0.0
H683 H 0.80691 0.95615 0.47205 0.0
H684 H 0.85092 0.94476 0.59361 0.0
H685 H 0.8549 0.01734 0.59933 0.0
C686 C 0.83616 0.07052 0.54197 0.0
C687 C 0.82557 0.09508 0.50931 0.0
C688 C 0.83344 0.02881 0.53898 0.0
C689 C 0.81183 0.07726 0.47361 0.0
C690 C 0.80891 0.03572 0.47046 0.0
C691 C 0.81731 0.96948 0.49986 0.0
C692 C 0.82871 0.94496 0.5323 0.0
C693 C 0.81973 1.01123 0.50292 0.0
C694 C 0.84209 0.96285 0.56809 0.0
C695 C 0.84438 1.00437 0.57142 0.0
H696 H 0.08145 0.79454 0.56151 0.0
H697 H 0.09317 0.86523 0.45363 0.0
H698 H 0.02044 0.86944 0.44776 0.0
H699 H 0.95299 0.85367 0.47375 0.0
H700 H 0.94234 0.7821 0.58132 0.0
H701 H 1.01471 0.77766 0.58647 0.0
C702 C 0.06816 0.81099 0.53677 0.0
C703 C 0.0929 0.82968 0.50826 0.0
C704 C 0.02625 0.81313 0.53335 0.0
C705 C 0.07497 0.85055 0.47616 0.0
C706 C 0.03329 0.85299 0.47271 0.0
C707 C 0.9665 0.83698 0.49819 0.0
C708 C 0.94199 0.81853 0.52714 0.0
C709 C 1.00855 0.83443 0.50116 0.0
C710 C 0.96021 0.79692 0.55861 0.0
C711 C 1.00176 0.79429 0.5617 0.0
H712 H 0.47841 0.24277 0.95397 0.0
H713 H 0.59152 0.18229 0.94052 0.0
H714 H 0.59892 0.17844 1.01334 0.0
H715 H 0.57223 0.19046 0.08144 0.0
H716 H 0.45924 0.25176 0.09365 0.0
H717 H 0.45319 0.25696 0.02126 0.0
C718 C 0.50476 0.22881 0.96688 0.0
C719 C 0.53416 0.21267 0.94158 0.0
C720 C 0.50893 0.22669 1.00886 0.0
C721 C 0.56825 0.19496 0.9591 0.0
C722 C 0.57254 0.19266 1.00086 0.0
C723 C 0.54639 0.20508 0.06828 0.0
C724 C 0.51619 0.22035 0.09332 0.0
C725 C 0.54291 0.20815 0.02614 0.0
C726 C 0.48298 0.23941 0.07546 0.0
C727 C 0.47938 0.24247 0.03386 0.0
H728 H 0.83033 0.46637 0.96142 0.0
H729 H 0.81142 0.59359 0.95113 0.0
H730 H 0.81462 0.60041 0.02374 0.0
H731 H 0.82215 0.57057 0.09075 0.0
H732 H 0.83733 0.44303 0.10186 0.0
H733 H 0.83637 0.43618 0.0289 0.0
C734 C 0.82697 0.49555 0.9751 0.0
C735 C 0.82068 0.52932 0.95066 0.0
C736 C 0.82823 0.49933 1.01724 0.0
C737 C 0.81608 0.56693 0.96903 0.0
C738 C 0.81803 0.57098 1.01068 0.0
C739 C 0.82551 0.54133 0.07717 0.0
C740 C 0.83 0.50746 0.10178 0.0
C741 C 0.82406 0.53743 0.03513 0.0
C742 C 0.83374 0.46967 0.08367 0.0
C743 C 0.83323 0.46568 0.04188 0.0
H744 H 0.46727 0.82266 0.08228 0.0
H745 H 0.59566 0.81091 0.09083 0.0
H746 H 0.6009 0.81231 1.01768 0.0
H747 H 0.56879 0.81798 0.95104 0.0
H748 H 0.44002 0.82619 0.94348 0.0
H749 H 0.43519 0.82531 1.01639 0.0
C750 C 0.49638 0.82036 0.06811 0.0
C751 C 0.53096 0.81694 0.09184 0.0
C752 C 0.49915 0.82074 0.0262 0.0
C753 C 0.5685 0.81347 0.07314 0.0
C754 C 0.57158 0.81445 0.03134 0.0
C755 C 0.53979 0.8197 0.9655 0.0
C756 C 0.50489 0.82232 0.94207 0.0
C757 C 0.5371 0.81833 1.00755 0.0
C758 C 0.46735 0.824 0.96097 0.0
C759 C 0.46451 0.82356 1.00264 0.0
H760 H 0.22752 0.5623 0.95201 0.0
H761 H 0.1782 0.44336 0.94067 0.0
H762 H 0.17752 0.43628 1.01364 0.0
H763 H 0.19032 0.46417 0.08097 0.0
H764 H 0.23973 0.58326 0.09134 0.0
H765 H 0.24092 0.58971 1.01866 0.0
C766 C 0.21658 0.53478 0.9654 0.0
C767 C 0.20278 0.50352 0.94072 0.0
C768 C 0.21624 0.53086 1.00738 0.0
C769 C 0.18891 0.46804 0.95881 0.0
C770 C 0.1885 0.46392 1.00061 0.0
C771 C 0.2014 0.49151 0.06736 0.0
C772 C 0.21475 0.52317 0.09184 0.0
C773 C 0.20201 0.49518 0.02524 0.0
C774 C 0.22908 0.55836 0.07348 0.0
C775 C 0.22982 0.56215 0.03179 0.0
H776 H 0.08461 0.56971 0.21809 0.0
H777 H 0.09515 0.44168 0.20688 0.0
H778 H 0.02266 0.43447 0.20973 0.0
H779 H 0.95575 0.46414 0.21555 0.0
H780 H 0.94493 0.59192 0.22948 0.0
H781 H 1.01741 0.59934 0.22569 0.0
C782 C 0.07097 0.54031 0.21607 0.0
C783 C 0.09541 0.5064 0.21214 0.0
C784 C 0.02899 0.53616 0.21844 0.0
C785 C 0.0772 0.4684 0.21004 0.0
C786 C 0.03562 0.46415 0.21164 0.0
C787 C 0.96922 0.4936 0.21785 0.0
C788 C 0.94466 0.52731 0.22272 0.0
C789 C 1.01116 0.49777 0.21595 0.0
C790 C 0.96288 0.56527 0.22583 0.0
C791 C 1.00447 0.56966 0.22353 0.0
H792 H 0.94728 0.4723 0.80075 0.0
H793 H 0.94129 0.58642 0.86084 0.0
H794 H 1.01417 0.59137 0.86015 0.0
H795 H 0.07951 0.56269 0.84409 0.0
H796 H 0.08566 0.44851 0.78416 0.0
H797 H 1.01268 0.44442 0.78308 0.0
C798 C 0.96186 0.49829 0.81371 0.0
C799 C 0.93877 0.5288 0.83107 0.0
C800 C 1.00379 0.50098 0.81326 0.0
C801 C 0.95825 0.56239 0.84742 0.0
C802 C 0.99996 0.56528 0.84705 0.0
C803 C 0.06496 0.53692 0.83067 0.0
C804 C 0.08812 0.50586 0.81447 0.0
C805 C 0.02301 0.53464 0.83028 0.0
C806 C 0.06864 0.47282 0.797 0.0
C807 C 0.02688 0.47041 0.7964 0.0
H808 H 0.46922 0.08432 0.84721 0.0
H809 H 0.58569 0.09283 0.79163 0.0
H810 H 0.5893 0.02048 0.78736 0.0
H811 H 0.56031 0.95447 0.79972 0.0
H812 H 0.4439 0.94467 0.85491 0.0
H813 H 0.4395 0.01746 0.85874 0.0
C814 C 0.49539 0.07036 0.83419 0.0
C815 C 0.52715 0.09432 0.81998 0.0
C816 C 0.4974 0.02832 0.83164 0.0
C817 C 0.56073 0.07546 0.803 0.0
C818 C 0.56291 0.03391 0.80047 0.0
C819 C 0.53389 0.96814 0.81257 0.0
C820 C 0.50259 0.9439 0.8271 0.0
C821 C 0.53152 1.01003 0.81476 0.0
C822 C 0.46856 0.96242 0.84349 0.0
C823 C 0.466 1.00414 0.84576 0.0
H824 H 0.46675 0.95409 0.2057 0.0
H825 H 0.5952 0.9401 0.20697 0.0
H826 H 0.60385 1.01257 0.20899 0.0
H827 H 0.57498 0.07998 0.21006 0.0
H828 H 0.44661 0.09402 0.20565 0.0
H829 H 0.43791 0.02151 0.20524 0.0
C830 C 0.49662 0.96691 0.20648 0.0
C831 C 0.53026 0.94176 0.20619 0.0
C832 C 0.50142 1.00862 0.20706 0.0
C833 C 0.5688 0.95883 0.20691 0.0
C834 C 0.57379 1.00026 0.20819 0.0
C835 C 0.54512 0.06714 0.20913 0.0
C836 C 0.51151 0.09231 0.20793 0.0
C837 C 0.54033 0.02544 0.20823 0.0
C838 C 0.47299 0.07526 0.20636 0.0
C839 C 0.46797 0.03382 0.20622 0.0
loop_
_geom_bond_atom_site_label_1
_geom_bond_atom_site_label_2
_geom_bond_distance
_geom_bond_site_symmetry_2
_ccdc_geom_bond_type
Fe0 O2 1.918 . S
Fe0 O5 1.997 . S
Fe0 O6 2.002 . S
Fe0 O11 1.976 . S
Fe0 O14 1.996 . S
Fe1 O2 1.918 . S
Fe1 O9 1.997 . S
Fe1 O12 1.996 . S
Fe1 O16 1.976 . S
Fe1 O19 2.002 . S
O2 Fe0 1.918 . S
O2 Fe1 1.918 . S
O2 Fe3 1.918 . S
Fe3 O2 1.918 . S
Fe3 O4 2.002 . S
Fe3 O13 1.976 . S
Fe3 O17 1.996 . S
Fe3 O20 1.997 . S
O4 Fe3 2.002 . S
O4 C21 1.295 . S
O5 Fe0 1.997 . S
O5 C21 1.235 . S
O6 Fe0 2.002 . S
O6 C7 1.295 . S
C7 O6 1.295 . S
C7 O9 1.235 . S
C8 O13 1.287 . S
C8 O14 1.255 . S
O9 Fe1 1.997 . S
O9 C7 1.235 . S
C10 O16 1.287 . S
C10 O17 1.255 . S
O11 Fe0 1.976 . S
O11 C18 1.287 . S
O12 Fe1 1.996 . S
O12 C18 1.255 . S
O13 Fe3 1.976 . S
O13 C8 1.287 . S
O14 Fe0 1.996 . S
O14 C8 1.255 . S
C15 O19 1.295 . S
C15 O20 1.235 . S
O16 Fe1 1.976 . S
O16 C10 1.287 . S
O17 Fe3 1.996 . S
O17 C10 1.255 . S
C18 O11 1.287 . S
C18 O12 1.255 . S
O19 Fe1 2.002 . S
O19 C15 1.295 . S
O20 Fe3 1.997 . S
O20 C15 1.235 . S
C21 O4 1.295 . S
C21 O5 1.235 . S
Fe22 O24 1.918 . S
Fe22 O27 1.997 . S
Fe22 O28 2.002 . S
Fe22 O33 1.976 . S
Fe22 O36 1.996 . S
Fe23 O24 1.918 . S
Fe23 O31 1.997 . S
Fe23 O34 1.996 . S
Fe23 O38 1.976 . S
Fe23 O41 2.002 . S
O24 Fe22 1.918 . S
O24 Fe23 1.918 . S
O24 Fe25 1.918 . S
Fe25 O24 1.918 . S
Fe25 O26 2.002 . S
Fe25 O35 1.976 . S
Fe25 O39 1.996 . S
Fe25 O42 1.997 . S
O26 Fe25 2.002 . S
O26 C43 1.295 . S
O27 Fe22 1.997 . S
O27 C43 1.235 . S
O28 Fe22 2.002 . S
O28 C29 1.295 . S
C29 O28 1.295 . S
C29 O31 1.235 . S
C30 O35 1.287 . S
C30 O36 1.255 . S
O31 Fe23 1.997 . S
O31 C29 1.235 . S
C32 O38 1.287 . S
C32 O39 1.255 . S
O33 Fe22 1.976 . S
O33 C40 1.287 . S
O34 Fe23 1.996 . S
O34 C40 1.255 . S
O35 Fe25 1.976 . S
O35 C30 1.287 . S
O36 Fe22 1.996 . S
O36 C30 1.255 . S
C37 O41 1.295 . S
C37 O42 1.235 . S
O38 Fe23 1.976 . S
O38 C32 1.287 . S
O39 Fe25 1.996 . S
O39 C32 1.255 . S
C40 O33 1.287 . S
C40 O34 1.255 . S
O41 Fe23 2.002 . S
O41 C37 1.295 . S
O42 Fe25 1.997 . S
O42 C37 1.235 . S
C43 O26 1.295 . S
C43 O27 1.235 . S
Fe44 O46 1.918 . S
Fe44 O49 1.997 . S
Fe44 O50 2.002 . S
Fe44 O55 1.976 . S
Fe44 O58 1.996 . S
Fe45 O46 1.918 . S
Fe45 O53 1.997 . S
Fe45 O56 1.996 . S
Fe45 O60 1.976 . S
Fe45 O63 2.002 . S
O46 Fe44 1.918 . S
O46 Fe45 1.918 . S
O46 Fe47 1.918 . S
Fe47 O46 1.918 . S
Fe47 O48 2.002 . S
Fe47 O57 1.976 . S
Fe47 O61 1.996 . S
Fe47 O64 1.997 . S
O48 Fe47 2.002 . S
O48 C65 1.295 . S
O49 Fe44 1.997 . S
O49 C65 1.235 . S
O50 Fe44 2.002 . S
O50 C51 1.295 . S
C51 O50 1.295 . S
C51 O53 1.235 . S
C52 O57 1.287 . S
C52 O58 1.255 . S
O53 Fe45 1.997 . S
O53 C51 1.235 . S
C54 O60 1.287 . S
C54 O61 1.255 . S
O55 Fe44 1.976 . S
O55 C62 1.287 . S
O56 Fe45 1.996 . S
O56 C62 1.255 . S
O57 Fe47 1.976 . S
O57 C52 1.287 . S
O58 Fe44 1.996 . S
O58 C52 1.255 . S
C59 O63 1.295 . S
C59 O64 1.235 . S
O60 Fe45 1.976 . S
O60 C54 1.287 . S
O61 Fe47 1.996 . S
O61 C54 1.255 . S
C62 O55 1.287 . S
C62 O56 1.255 . S
O63 Fe45 2.002 . S
O63 C59 1.295 . S
O64 Fe47 1.997 . S
O64 C59 1.235 . S
C65 O48 1.295 . S
C65 O49 1.235 . S
Fe66 O68 1.918 . S
Fe66 O71 1.997 . S
Fe66 O72 2.002 . S
Fe66 O77 1.976 . S
Fe66 O80 1.996 . S
Fe67 O68 1.918 . S
Fe67 O75 1.997 . S
Fe67 O78 1.996 . S
Fe67 O82 1.976 . S
Fe67 O85 2.002 . S
O68 Fe66 1.918 . S
O68 Fe67 1.918 . S
O68 Fe69 1.918 . S
Fe69 O68 1.918 . S
Fe69 O70 2.002 . S
Fe69 O79 1.976 . S
Fe69 O83 1.996 . S
Fe69 O86 1.997 . S
O70 Fe69 2.002 . S
O70 C87 1.295 . S
O71 Fe66 1.997 . S
O71 C87 1.235 . S
O72 Fe66 2.002 . S
O72 C73 1.295 . S
C73 O72 1.295 . S
C73 O75 1.235 . S
C74 O79 1.287 . S
C74 O80 1.255 . S
O75 Fe67 1.997 . S
O75 C73 1.235 . S
C76 O82 1.287 . S
C76 O83 1.255 . S
O77 Fe66 1.976 . S
O77 C84 1.287 . S
O78 Fe67 1.996 . S
O78 C84 1.255 . S
O79 Fe69 1.976 . S
O79 C74 1.287 . S
O80 Fe66 1.996 . S
O80 C74 1.255 . S
C81 O85 1.295 . S
C81 O86 1.235 . S
O82 Fe67 1.976 . S
O82 C76 1.287 . S
O83 Fe69 1.996 . S
O83 C76 1.255 . S
C84 O77 1.287 . S
C84 O78 1.255 . S
O85 Fe67 2.002 . S
O85 C81 1.295 . S
O86 Fe69 1.997 . S
O86 C81 1.235 . S
C87 O70 1.295 . S
C87 O71 1.235 . S
Fe88 O90 1.918 . S
Fe88 O93 1.997 . S
Fe88 O94 2.002 . S
Fe88 O99 1.976 . S
Fe88 O102 1.996 . S
Fe89 O90 1.918 . S
Fe89 O97 1.997 . S
Fe89 O100 1.996 . S
Fe89 O104 1.976 . S
Fe89 O107 2.002 . S
O90 Fe88 1.918 . S
O90 Fe89 1.918 . S
O90 Fe91 1.918 . S
Fe91 O90 1.918 . S
Fe91 O92 2.002 . S
Fe91 O101 1.976 . S
Fe91 O105 1.996 . S
Fe91 O108 1.997 . S
O92 Fe91 2.002 . S
O92 C109 1.295 . S
O93 Fe88 1.997 . S
O93 C109 1.235 . S
O94 Fe88 2.002 . S
O94 C95 1.295 . S
C95 O94 1.295 . S
C95 O97 1.235 . S
C96 O101 1.287 . S
C96 O102 1.255 . S
O97 Fe89 1.997 . S
O97 C95 1.235 . S
C98 O104 1.287 . S
C98 O105 1.255 . S
O99 Fe88 1.976 . S
O99 C106 1.287 . S
O100 Fe89 1.996 . S
O100 C106 1.255 . S
O101 Fe91 1.976 . S
O101 C96 1.287 . S
O102 Fe88 1.996 . S
O102 C96 1.255 . S
C103 O107 1.295 . S
C103 O108 1.235 . S
O104 Fe89 1.976 . S
O104 C98 1.287 . S
O105 Fe91 1.996 . S
O105 C98 1.255 . S
C106 O99 1.287 . S
C106 O100 1.255 . S
O107 Fe89 2.002 . S
O107 C103 1.295 . S
O108 Fe91 1.997 . S
O108 C103 1.235 . S
C109 O92 1.295 . S
C109 O93 1.235 . S
Fe110 O112 1.918 . S
Fe110 O115 1.997 . S
Fe110 O116 2.002 . S
Fe110 O121 1.976 . S
Fe110 O124 1.996 . S
Fe111 O112 1.918 . S
Fe111 O119 1.997 . S
Fe111 O122 1.996 . S
Fe111 O126 1.976 . S
Fe111 O129 2.002 . S
O112 Fe110 1.918 . S
O112 Fe111 1.918 . S
O112 Fe113 1.918 . S
Fe113 O112 1.918 . S
Fe113 O114 2.002 . S
Fe113 O123 1.976 . S
Fe113 O127 1.996 . S
Fe113 O130 1.997 . S
O114 Fe113 2.002 . S
O114 C131 1.295 . S
O115 Fe110 1.997 . S
O115 C131 1.235 . S
O116 Fe110 2.002 . S
O116 C117 1.295 . S
C117 O116 1.295 . S
C117 O119 1.235 . S
C118 O123 1.287 . S
C118 O124 1.255 . S
O119 Fe111 1.997 . S
O119 C117 1.235 . S
C120 O126 1.287 . S
C120 O127 1.255 . S
O121 Fe110 1.976 . S
O121 C128 1.287 . S
O122 Fe111 1.996 . S
O122 C128 1.255 . S
O123 Fe113 1.976 . S
O123 C118 1.287 . S
O124 Fe110 1.996 . S
O124 C118 1.255 . S
C125 O129 1.295 . S
C125 O130 1.235 . S
O126 Fe111 1.976 . S
O126 C120 1.287 . S
O127 Fe113 1.996 . S
O127 C120 1.255 . S
C128 O121 1.287 . S
C128 O122 1.255 . S
O129 Fe111 2.002 . S
O129 C125 1.295 . S
O130 Fe113 1.997 . S
O130 C125 1.235 . S
C131 O114 1.295 . S
C131 O115 1.235 . S
Fe132 O134 1.918 . S
Fe132 O137 1.997 . S
Fe132 O138 2.002 . S
Fe132 O143 1.976 . S
Fe132 O146 1.996 . S
Fe133 O134 1.918 . S
Fe133 O141 1.997 . S
Fe133 O144 1.996 . S
Fe133 O148 1.976 . S
Fe133 O151 2.002 . S
O134 Fe132 1.918 . S
O134 Fe133 1.918 . S
O134 Fe135 1.918 . S
Fe135 O134 1.918 . S
Fe135 O136 2.002 . S
Fe135 O145 1.976 . S
Fe135 O149 1.996 . S
Fe135 O152 1.997 . S
O136 Fe135 2.002 . S
O136 C153 1.295 . S
O137 Fe132 1.997 . S
O137 C153 1.235 . S
O138 Fe132 2.002 . S
O138 C139 1.295 . S
C139 O138 1.295 . S
C139 O141 1.235 . S
C140 O145 1.287 . S
C140 O146 1.255 . S
O141 Fe133 1.997 . S
O141 C139 1.235 . S
C142 O148 1.287 . S
C142 O149 1.255 . S
O143 Fe132 1.976 . S
O143 C150 1.287 . S
O144 Fe133 1.996 . S
O144 C150 1.255 . S
O145 Fe135 1.976 . S
O145 C140 1.287 . S
O146 Fe132 1.996 . S
O146 C140 1.255 . S
C147 O151 1.295 . S
C147 O152 1.235 . S
O148 Fe133 1.976 . S
O148 C142 1.287 . S
O149 Fe135 1.996 . S
O149 C142 1.255 . S
C150 O143 1.287 . S
C150 O144 1.255 . S
O151 Fe133 2.002 . S
O151 C147 1.295 . S
O152 Fe135 1.997 . S
O152 C147 1.235 . S
C153 O136 1.295 . S
C153 O137 1.235 . S
Fe154 O156 1.918 . S
Fe154 O159 1.997 . S
Fe154 O160 2.002 . S
Fe154 O165 1.976 . S
Fe154 O168 1.996 . S
Fe155 O156 1.918 . S
Fe155 O163 1.997 . S
Fe155 O166 1.996 . S
Fe155 O170 1.976 . S
Fe155 O173 2.002 . S
O156 Fe154 1.918 . S
O156 Fe155 1.918 . S
O156 Fe157 1.918 . S
Fe157 O156 1.918 . S
Fe157 O158 2.002 . S
Fe157 O167 1.976 . S
Fe157 O171 1.996 . S
Fe157 O174 1.997 . S
O158 Fe157 2.002 . S
O158 C175 1.295 . S
O159 Fe154 1.997 . S
O159 C175 1.235 . S
O160 Fe154 2.002 . S
O160 C161 1.295 . S
C161 O160 1.295 . S
C161 O163 1.235 . S
C162 O167 1.287 . S
C162 O168 1.255 . S
O163 Fe155 1.997 . S
O163 C161 1.235 . S
C164 O170 1.287 . S
C164 O171 1.255 . S
O165 Fe154 1.976 . S
O165 C172 1.287 . S
O166 Fe155 1.996 . S
O166 C172 1.255 . S
O167 Fe157 1.976 . S
O167 C162 1.287 . S
O168 Fe154 1.996 . S
O168 C162 1.255 . S
C169 O173 1.295 . S
C169 O174 1.235 . S
O170 Fe155 1.976 . S
O170 C164 1.287 . S
O171 Fe157 1.996 . S
O171 C164 1.255 . S
C172 O165 1.287 . S
C172 O166 1.255 . S
O173 Fe155 2.002 . S
O173 C169 1.295 . S
O174 Fe157 1.997 . S
O174 C169 1.235 . S
C175 O158 1.295 . S
C175 O159 1.235 . S
Fe176 O178 1.918 . S
Fe176 O181 1.997 . S
Fe176 O182 2.002 . S
Fe176 O187 1.976 . S
Fe176 O190 1.996 . S
Fe177 O178 1.918 . S
Fe177 O185 1.997 . S
Fe177 O188 1.996 . S
Fe177 O192 1.976 . S
Fe177 O195 2.002 . S
O178 Fe176 1.918 . S
O178 Fe177 1.918 . S
O178 Fe179 1.918 . S
Fe179 O178 1.918 . S
Fe179 O180 2.002 . S
Fe179 O189 1.976 . S
Fe179 O193 1.996 . S
Fe179 O196 1.997 . S
O180 Fe179 2.002 . S
O180 C197 1.295 . S
O181 Fe176 1.997 . S
O181 C197 1.235 . S
O182 Fe176 2.002 . S
O182 C183 1.295 . S
C183 O182 1.295 . S
C183 O185 1.235 . S
C184 O189 1.287 . S
C184 O190 1.255 . S
O185 Fe177 1.997 . S
O185 C183 1.235 . S
C186 O192 1.287 . S
C186 O193 1.255 . S
O187 Fe176 1.976 . S
O187 C194 1.287 . S
O188 Fe177 1.996 . S
O188 C194 1.255 . S
O189 Fe179 1.976 . S
O189 C184 1.287 . S
O190 Fe176 1.996 . S
O190 C184 1.255 . S
C191 O195 1.295 . S
C191 O196 1.235 . S
O192 Fe177 1.976 . S
O192 C186 1.287 . S
O193 Fe179 1.996 . S
O193 C186 1.255 . S
C194 O187 1.287 . S
C194 O188 1.255 . S
O195 Fe177 2.002 . S
O195 C191 1.295 . S
O196 Fe179 1.997 . S
O196 C191 1.235 . S
C197 O180 1.295 . S
C197 O181 1.235 . S
Fe198 O200 1.918 . S
Fe198 O203 1.997 . S
Fe198 O204 2.002 . S
Fe198 O209 1.976 . S
Fe198 O212 1.996 . S
Fe199 O200 1.918 . S
Fe199 O207 1.997 . S
Fe199 O210 1.996 . S
Fe199 O214 1.976 . S
Fe199 O217 2.002 . S
O200 Fe198 1.918 . S
O200 Fe199 1.918 . S
O200 Fe201 1.918 . S
Fe201 O200 1.918 . S
Fe201 O202 2.002 . S
Fe201 O211 1.976 . S
Fe201 O215 1.996 . S
Fe201 O218 1.997 . S
O202 Fe201 2.002 . S
O202 C219 1.295 . S
O203 Fe198 1.997 . S
O203 C219 1.235 . S
O204 Fe198 2.002 . S
O204 C205 1.295 . S
C205 O204 1.295 . S
C205 O207 1.235 . S
C206 O211 1.287 . S
C206 O212 1.255 . S
O207 Fe199 1.997 . S
O207 C205 1.235 . S
C208 O214 1.287 . S
C208 O215 1.255 . S
O209 Fe198 1.976 . S
O209 C216 1.287 . S
O210 Fe199 1.996 . S
O210 C216 1.255 . S
O211 Fe201 1.976 . S
O211 C206 1.287 . S
O212 Fe198 1.996 . S
O212 C206 1.255 . S
C213 O217 1.295 . S
C213 O218 1.235 . S
O214 Fe199 1.976 . S
O214 C208 1.287 . S
O215 Fe201 1.996 . S
O215 C208 1.255 . S
C216 O209 1.287 . S
C216 O210 1.255 . S
O217 Fe199 2.002 . S
O217 C213 1.295 . S
O218 Fe201 1.997 . S
O218 C213 1.235 . S
C219 O202 1.295 . S
C219 O203 1.235 . S
Fe220 O222 1.918 . S
Fe220 O225 1.997 . S
Fe220 O226 2.002 . S
Fe220 O231 1.976 . S
Fe220 O234 1.996 . S
Fe221 O222 1.918 . S
Fe221 O229 1.997 . S
Fe221 O232 1.996 . S
Fe221 O236 1.976 . S
Fe221 O239 2.002 . S
O222 Fe220 1.918 . S
O222 Fe221 1.918 . S
O222 Fe223 1.918 . S
Fe223 O222 1.918 . S
Fe223 O224 2.002 . S
Fe223 O233 1.976 . S
Fe223 O237 1.996 . S
Fe223 O240 1.997 . S
O224 Fe223 2.002 . S
O224 C241 1.295 . S
O225 Fe220 1.997 . S
O225 C241 1.235 . S
O226 Fe220 2.002 . S
O226 C227 1.295 . S
C227 O226 1.295 . S
C227 O229 1.235 . S
C228 O233 1.287 . S
C228 O234 1.255 . S
O229 Fe221 1.997 . S
O229 C227 1.235 . S
C230 O236 1.287 . S
C230 O237 1.255 . S
O231 Fe220 1.976 . S
O231 C238 1.287 . S
O232 Fe221 1.996 . S
O232 C238 1.255 . S
O233 Fe223 1.976 . S
O233 C228 1.287 . S
O234 Fe220 1.996 . S
O234 C228 1.255 . S
C235 O239 1.295 . S
C235 O240 1.235 . S
O236 Fe221 1.976 . S
O236 C230 1.287 . S
O237 Fe223 1.996 . S
O237 C230 1.255 . S
C238 O231 1.287 . S
C238 O232 1.255 . S
O239 Fe221 2.002 . S
O239 C235 1.295 . S
O240 Fe223 1.997 . S
O240 C235 1.235 . S
C241 O224 1.295 . S
C241 O225 1.235 . S
Fe242 O244 1.918 . S
Fe242 O247 1.997 . S
Fe242 O248 2.002 . S
Fe242 O253 1.976 . S
Fe242 O256 1.996 . S
Fe243 O244 1.918 . S
Fe243 O251 1.997 . S
Fe243 O254 1.996 . S
Fe243 O258 1.976 . S
Fe243 O261 2.002 . S
O244 Fe242 1.918 . S
O244 Fe243 1.918 . S
O244 Fe245 1.918 . S
Fe245 O244 1.918 . S
Fe245 O246 2.002 . S
Fe245 O255 1.976 . S
Fe245 O259 1.996 . S
Fe245 O262 1.997 . S
O246 Fe245 2.002 . S
O246 C263 1.295 . S
O247 Fe242 1.997 . S
O247 C263 1.235 . S
O248 Fe242 2.002 . S
O248 C249 1.295 . S
C249 O248 1.295 . S
C249 O251 1.235 . S
C250 O255 1.287 . S
C250 O256 1.255 . S
O251 Fe243 1.997 . S
O251 C249 1.235 . S
C252 O258 1.287 . S
C252 O259 1.255 . S
O253 Fe242 1.976 . S
O253 C260 1.287 . S
O254 Fe243 1.996 . S
O254 C260 1.255 . S
O255 Fe245 1.976 . S
O255 C250 1.287 . S
O256 Fe242 1.996 . S
O256 C250 1.255 . S
C257 O261 1.295 . S
C257 O262 1.235 . S
O258 Fe243 1.976 . S
O258 C252 1.287 . S
O259 Fe245 1.996 . S
O259 C252 1.255 . S
C260 O253 1.287 . S
C260 O254 1.255 . S
O261 Fe243 2.002 . S
O261 C257 1.295 . S
O262 Fe245 1.997 . S
O262 C257 1.235 . S
C263 O246 1.295 . S
C263 O247 1.235 . S
H264 C270 0.930 . S
H265 C273 0.930 . S
H266 C274 0.930 . S
H267 C275 0.930 . S
H268 C278 0.930 . S
H269 C279 0.930 . S
C270 H264 0.930 . S
C270 C271 1.355 . S
C270 C272 1.415 . S
C271 C270 1.355 . S
C271 C273 1.419 . S
C272 C270 1.415 . S
C272 C277 1.425 . S
C272 C279 1.409 . S
C273 H265 0.930 . S
C273 C271 1.419 . S
C273 C274 1.362 . S
C274 H266 0.930 . S
C274 C273 1.362 . S
C274 C277 1.409 . S
C275 H267 0.930 . S
C275 C276 1.355 . S
C275 C277 1.415 . S
C276 C275 1.355 . S
C276 C278 1.419 . S
C277 C272 1.425 . S
C277 C274 1.409 . S
C277 C275 1.415 . S
C278 H268 0.930 . S
C278 C276 1.419 . S
C278 C279 1.362 . S
C279 H269 0.930 . S
C279 C272 1.409 . S
C279 C278 1.362 . S
H280 C286 0.930 . S
H281 C289 0.930 . S
H282 C290 0.930 . S
H283 C291 0.930 . S
H284 C294 0.930 . S
H285 C295 0.930 . S
C286 H280 0.930 . S
C286 C287 1.355 . S
C286 C288 1.415 . S
C287 C286 1.355 . S
C287 C289 1.419 . S
C288 C286 1.415 . S
C288 C293 1.425 . S
C288 C295 1.409 . S
C289 H281 0.930 . S
C289 C287 1.419 . S
C289 C290 1.362 . S
C290 H282 0.930 . S
C290 C289 1.362 . S
C290 C293 1.409 . S
C291 H283 0.930 . S
C291 C292 1.355 . S
C291 C293 1.415 . S
C292 C291 1.355 . S
C292 C294 1.419 . S
C293 C288 1.425 . S
C293 C290 1.409 . S
C293 C291 1.415 . S
C294 H284 0.930 . S
C294 C292 1.419 . S
C294 C295 1.362 . S
C295 H285 0.930 . S
C295 C288 1.409 . S
C295 C294 1.362 . S
H296 C302 0.930 . S
H297 C305 0.930 . S
H298 C306 0.930 . S
H299 C307 0.930 . S
H300 C310 0.930 . S
H301 C311 0.930 . S
C302 H296 0.930 . S
C302 C303 1.355 . S
C302 C304 1.415 . S
C303 C302 1.355 . S
C303 C305 1.419 . S
C304 C302 1.415 . S
C304 C309 1.425 . S
C304 C311 1.409 . S
C305 H297 0.930 . S
C305 C303 1.419 . S
C305 C306 1.362 . S
C306 H298 0.930 . S
C306 C305 1.362 . S
C306 C309 1.409 . S
C307 H299 0.930 . S
C307 C308 1.355 . S
C307 C309 1.415 . S
C308 C307 1.355 . S
C308 C310 1.419 . S
C309 C304 1.425 . S
C309 C306 1.409 . S
C309 C307 1.415 . S
C310 H300 0.930 . S
C310 C308 1.419 . S
C310 C311 1.362 . S
C311 H301 0.930 . S
C311 C304 1.409 . S
C311 C310 1.362 . S
H312 C318 0.930 . S
H313 C321 0.930 . S
H314 C322 0.930 . S
H315 C323 0.930 . S
H316 C326 0.930 . S
H317 C327 0.930 . S
C318 H312 0.930 . S
C318 C319 1.355 . S
C318 C320 1.415 . S
C319 C318 1.355 . S
C319 C321 1.419 . S
C320 C318 1.415 . S
C320 C325 1.425 . S
C320 C327 1.409 . S
C321 H313 0.930 . S
C321 C319 1.419 . S
C321 C322 1.362 . S
C322 H314 0.930 . S
C322 C321 1.362 . S
C322 C325 1.409 . S
C323 H315 0.930 . S
C323 C324 1.355 . S
C323 C325 1.415 . S
C324 C323 1.355 . S
C324 C326 1.419 . S
C325 C320 1.425 . S
C325 C322 1.409 . S
C325 C323 1.415 . S
C326 H316 0.930 . S
C326 C324 1.419 . S
C326 C327 1.362 . S
C327 H317 0.930 . S
C327 C320 1.409 . S
C327 C326 1.362 . S
H328 C334 0.930 . S
H329 C337 0.930 . S
H330 C338 0.930 . S
H331 C339 0.930 . S
H332 C342 0.930 . S
H333 C343 0.930 . S
C334 H328 0.930 . S
C334 C335 1.355 . S
C334 C336 1.415 . S
C335 C334 1.355 . S
C335 C337 1.419 . S
C336 C334 1.415 . S
C336 C341 1.425 . S
C336 C343 1.409 . S
C337 H329 0.930 . S
C337 C335 1.419 . S
C337 C338 1.362 . S
C338 H330 0.930 . S
C338 C337 1.362 . S
C338 C341 1.409 . S
C339 H331 0.930 . S
C339 C340 1.355 . S
C339 C341 1.415 . S
C340 C339 1.355 . S
C340 C342 1.419 . S
C341 C336 1.425 . S
C341 C338 1.409 . S
C341 C339 1.415 . S
C342 H332 0.930 . S
C342 C340 1.419 . S
C342 C343 1.362 . S
C343 H333 0.930 . S
C343 C336 1.409 . S
C343 C342 1.362 . S
H344 C350 0.930 . S
H345 C353 0.930 . S
H346 C354 0.930 . S
H347 C355 0.930 . S
H348 C358 0.930 . S
H349 C359 0.930 . S
C350 H344 0.930 . S
C350 C351 1.355 . S
C350 C352 1.415 . S
C351 C350 1.355 . S
C351 C353 1.419 . S
C352 C350 1.415 . S
C352 C357 1.425 . S
C352 C359 1.409 . S
C353 H345 0.930 . S
C353 C351 1.419 . S
C353 C354 1.362 . S
C354 H346 0.930 . S
C354 C353 1.362 . S
C354 C357 1.409 . S
C355 H347 0.930 . S
C355 C356 1.355 . S
C355 C357 1.415 . S
C356 C355 1.355 . S
C356 C358 1.419 . S
C357 C352 1.425 . S
C357 C354 1.409 . S
C357 C355 1.415 . S
C358 H348 0.930 . S
C358 C356 1.419 . S
C358 C359 1.362 . S
C359 H349 0.930 . S
C359 C352 1.409 . S
C359 C358 1.362 . S
H360 C366 0.930 . S
H361 C369 0.930 . S
H362 C370 0.930 . S
H363 C371 0.930 . S
H364 C374 0.930 . S
H365 C375 0.930 . S
C366 H360 0.930 . S
C366 C367 1.355 . S
C366 C368 1.415 . S
C367 C366 1.355 . S
C367 C369 1.419 . S
C368 C366 1.415 . S
C368 C373 1.425 . S
C368 C375 1.409 . S
C369 H361 0.930 . S
C369 C367 1.419 . S
C369 C370 1.362 . S
C370 H362 0.930 . S
C370 C369 1.362 . S
C370 C373 1.409 . S
C371 H363 0.930 . S
C371 C372 1.355 . S
C371 C373 1.415 . S
C372 C371 1.355 . S
C372 C374 1.419 . S
C373 C368 1.425 . S
C373 C370 1.409 . S
C373 C371 1.415 . S
C374 H364 0.930 . S
C374 C372 1.419 . S
C374 C375 1.362 . S
C375 H365 0.930 . S
C375 C368 1.409 . S
C375 C374 1.362 . S
H376 C382 0.930 . S
H377 C385 0.930 . S
H378 C386 0.930 . S
H379 C387 0.930 . S
H380 C390 0.930 . S
H381 C391 0.930 . S
C382 H376 0.930 . S
C382 C383 1.355 . S
C382 C384 1.415 . S
C383 C382 1.355 . S
C383 C385 1.419 . S
C384 C382 1.415 . S
C384 C389 1.425 . S
C384 C391 1.409 . S
C385 H377 0.930 . S
C385 C383 1.419 . S
C385 C386 1.362 . S
C386 H378 0.930 . S
C386 C385 1.362 . S
C386 C389 1.409 . S
C387 H379 0.930 . S
C387 C388 1.355 . S
C387 C389 1.415 . S
C388 C387 1.355 . S
C388 C390 1.419 . S
C389 C384 1.425 . S
C389 C386 1.409 . S
C389 C387 1.415 . S
C390 H380 0.930 . S
C390 C388 1.419 . S
C390 C391 1.362 . S
C391 H381 0.930 . S
C391 C384 1.409 . S
C391 C390 1.362 . S
H392 C398 0.930 . S
H393 C401 0.930 . S
H394 C402 0.930 . S
H395 C403 0.930 . S
H396 C406 0.930 . S
H397 C407 0.930 . S
C398 H392 0.930 . S
C398 C399 1.355 . S
C398 C400 1.415 . S
C399 C398 1.355 . S
C399 C401 1.419 . S
C400 C398 1.415 . S
C400 C405 1.425 . S
C400 C407 1.409 . S
C401 H393 0.930 . S
C401 C399 1.419 . S
C401 C402 1.362 . S
C402 H394 0.930 . S
C402 C401 1.362 . S
C402 C405 1.409 . S
C403 H395 0.930 . S
C403 C404 1.355 . S
C403 C405 1.415 . S
C404 C403 1.355 . S
C404 C406 1.419 . S
C405 C400 1.425 . S
C405 C402 1.409 . S
C405 C403 1.415 . S
C406 H396 0.930 . S
C406 C404 1.419 . S
C406 C407 1.362 . S
C407 H397 0.930 . S
C407 C400 1.409 . S
C407 C406 1.362 . S
H408 C414 0.930 . S
H409 C417 0.930 . S
H410 C418 0.930 . S
H411 C419 0.930 . S
H412 C422 0.930 . S
H413 C423 0.930 . S
C414 H408 0.930 . S
C414 C415 1.355 . S
C414 C416 1.415 . S
C415 C414 1.355 . S
C415 C417 1.419 . S
C416 C414 1.415 . S
C416 C421 1.425 . S
C416 C423 1.409 . S
C417 H409 0.930 . S
C417 C415 1.419 . S
C417 C418 1.362 . S
C418 H410 0.930 . S
C418 C417 1.362 . S
C418 C421 1.409 . S
C419 H411 0.930 . S
C419 C420 1.355 . S
C419 C421 1.415 . S
C420 C419 1.355 . S
C420 C422 1.419 . S
C421 C416 1.425 . S
C421 C418 1.409 . S
C421 C419 1.415 . S
C422 H412 0.930 . S
C422 C420 1.419 . S
C422 C423 1.362 . S
C423 H413 0.930 . S
C423 C416 1.409 . S
C423 C422 1.362 . S
H424 C430 0.930 . S
H425 C433 0.930 . S
H426 C434 0.930 . S
H427 C435 0.930 . S
H428 C438 0.930 . S
H429 C439 0.930 . S
C430 H424 0.930 . S
C430 C431 1.355 . S
C430 C432 1.415 . S
C431 C430 1.355 . S
C431 C433 1.419 . S
C432 C430 1.415 . S
C432 C437 1.425 . S
C432 C439 1.409 . S
C433 H425 0.930 . S
C433 C431 1.419 . S
C433 C434 1.362 . S
C434 H426 0.930 . S
C434 C433 1.362 . S
C434 C437 1.409 . S
C435 H427 0.930 . S
C435 C436 1.355 . S
C435 C437 1.415 . S
C436 C435 1.355 . S
C436 C438 1.419 . S
C437 C432 1.425 . S
C437 C434 1.409 . S
C437 C435 1.415 . S
C438 H428 0.930 . S
C438 C436 1.419 . S
C438 C439 1.362 . S
C439 H429 0.930 . S
C439 C432 1.409 . S
C439 C438 1.362 . S
H440 C446 0.930 . S
H441 C449 0.930 . S
H442 C450 0.930 . S
H443 C451 0.930 . S
H444 C454 0.930 . S
H445 C455 0.930 . S
C446 H440 0.930 . S
C446 C447 1.355 . S
C446 C448 1.415 . S
C447 C446 1.355 . S
C447 C449 1.419 . S
C448 C446 1.415 . S
C448 C453 1.425 . S
C448 C455 1.409 . S
C449 H441 0.930 . S
C449 C447 1.419 . S
C449 C450 1.362 . S
C450 H442 0.930 . S
C450 C449 1.362 . S
C450 C453 1.409 . S
C451 H443 0.930 . S
C451 C452 1.355 . S
C451 C453 1.415 . S
C452 C451 1.355 . S
C452 C454 1.419 . S
C453 C448 1.425 . S
C453 C450 1.409 . S
C453 C451 1.415 . S
C454 H444 0.930 . S
C454 C452 1.419 . S
C454 C455 1.362 . S
C455 H445 0.930 . S
C455 C448 1.409 . S
C455 C454 1.362 . S
H456 C462 0.930 . S
H457 C465 0.930 . S
H458 C466 0.930 . S
H459 C467 0.930 . S
H460 C470 0.930 . S
H461 C471 0.930 . S
C462 H456 0.930 . S
C462 C463 1.355 . S
C462 C464 1.415 . S
C463 C462 1.355 . S
C463 C465 1.419 . S
C464 C462 1.415 . S
C464 C469 1.425 . S
C464 C471 1.409 . S
C465 H457 0.930 . S
C465 C463 1.419 . S
C465 C466 1.362 . S
C466 H458 0.930 . S
C466 C465 1.362 . S
C466 C469 1.409 . S
C467 H459 0.930 . S
C467 C468 1.355 . S
C467 C469 1.415 . S
C468 C467 1.355 . S
C468 C470 1.419 . S
C469 C464 1.425 . S
C469 C466 1.409 . S
C469 C467 1.415 . S
C470 H460 0.930 . S
C470 C468 1.419 . S
C470 C471 1.362 . S
C471 H461 0.930 . S
C471 C464 1.409 . S
C471 C470 1.362 . S
H472 C478 0.930 . S
H473 C481 0.930 . S
H474 C482 0.930 . S
H475 C483 0.930 . S
H476 C486 0.930 . S
H477 C487 0.930 . S
C478 H472 0.930 . S
C478 C479 1.355 . S
C478 C480 1.415 . S
C479 C478 1.355 . S
C479 C481 1.419 . S
C480 C478 1.415 . S
C480 C485 1.425 . S
C480 C487 1.409 . S
C481 H473 0.930 . S
C481 C479 1.419 . S
C481 C482 1.362 . S
C482 H474 0.930 . S
C482 C481 1.362 . S
C482 C485 1.409 . S
C483 H475 0.930 . S
C483 C484 1.355 . S
C483 C485 1.415 . S
C484 C483 1.355 . S
C484 C486 1.419 . S
C485 C480 1.425 . S
C485 C482 1.409 . S
C485 C483 1.415 . S
C486 H476 0.930 . S
C486 C484 1.419 . S
C486 C487 1.362 . S
C487 H477 0.930 . S
C487 C480 1.409 . S
C487 C486 1.362 . S
H488 C494 0.930 . S
H489 C497 0.930 . S
H490 C498 0.930 . S
H491 C499 0.930 . S
H492 C502 0.930 . S
H493 C503 0.930 . S
C494 H488 0.930 . S
C494 C495 1.355 . S
C494 C496 1.415 . S
C495 C494 1.355 . S
C495 C497 1.419 . S
C496 C494 1.415 . S
C496 C501 1.425 . S
C496 C503 1.409 . S
C497 H489 0.930 . S
C497 C495 1.419 . S
C497 C498 1.362 . S
C498 H490 0.930 . S
C498 C497 1.362 . S
C498 C501 1.409 . S
C499 H491 0.930 . S
C499 C500 1.355 . S
C499 C501 1.415 . S
C500 C499 1.355 . S
C500 C502 1.419 . S
C501 C496 1.425 . S
C501 C498 1.409 . S
C501 C499 1.415 . S
C502 H492 0.930 . S
C502 C500 1.419 . S
C502 C503 1.362 . S
C503 H493 0.930 . S
C503 C496 1.409 . S
C503 C502 1.362 . S
H504 C510 0.930 . S
H505 C513 0.930 . S
H506 C514 0.930 . S
H507 C515 0.930 . S
H508 C518 0.930 . S
H509 C519 0.930 . S
C510 H504 0.930 . S
C510 C511 1.355 . S
C510 C512 1.415 . S
C511 C510 1.355 . S
C511 C513 1.419 . S
C512 C510 1.415 . S
C512 C517 1.425 . S
C512 C519 1.409 . S
C513 H505 0.930 . S
C513 C511 1.419 . S
C513 C514 1.362 . S
C514 H506 0.930 . S
C514 C513 1.362 . S
C514 C517 1.409 . S
C515 H507 0.930 . S
C515 C516 1.355 . S
C515 C517 1.415 . S
C516 C515 1.355 . S
C516 C518 1.419 . S
C517 C512 1.425 . S
C517 C514 1.409 . S
C517 C515 1.415 . S
C518 H508 0.930 . S
C518 C516 1.419 . S
C518 C519 1.362 . S
C519 H509 0.930 . S
C519 C512 1.409 . S
C519 C518 1.362 . S
H520 C526 0.930 . S
H521 C529 0.930 . S
H522 C530 0.930 . S
H523 C531 0.930 . S
H524 C534 0.930 . S
H525 C535 0.930 . S
C526 H520 0.930 . S
C526 C527 1.355 . S
C526 C528 1.415 . S
C527 C526 1.355 . S
C527 C529 1.419 . S
C528 C526 1.415 . S
C528 C533 1.425 . S
C528 C535 1.409 . S
C529 H521 0.930 . S
C529 C527 1.419 . S
C529 C530 1.362 . S
C530 H522 0.930 . S
C530 C529 1.362 . S
C530 C533 1.409 . S
C531 H523 0.930 . S
C531 C532 1.355 . S
C531 C533 1.415 . S
C532 C531 1.355 . S
C532 C534 1.419 . S
C533 C528 1.425 . S
C533 C530 1.409 . S
C533 C531 1.415 . S
C534 H524 0.930 . S
C534 C532 1.419 . S
C534 C535 1.362 . S
C535 H525 0.930 . S
C535 C528 1.409 . S
C535 C534 1.362 . S
H536 C542 0.930 . S
H537 C545 0.930 . S
H538 C546 0.930 . S
H539 C547 0.930 . S
H540 C550 0.930 . S
H541 C551 0.930 . S
C542 H536 0.930 . S
C542 C543 1.355 . S
C542 C544 1.415 . S
C543 C542 1.355 . S
C543 C545 1.419 . S
C544 C542 1.415 . S
C544 C549 1.425 . S
C544 C551 1.409 . S
C545 H537 0.930 . S
C545 C543 1.419 . S
C545 C546 1.362 . S
C546 H538 0.930 . S
C546 C545 1.362 . S
C546 C549 1.409 . S
C547 H539 0.930 . S
C547 C548 1.355 . S
C547 C549 1.415 . S
C548 C547 1.355 . S
C548 C550 1.419 . S
C549 C544 1.425 . S
C549 C546 1.409 . S
C549 C547 1.415 . S
C550 H540 0.930 . S
C550 C548 1.419 . S
C550 C551 1.362 . S
C551 H541 0.930 . S
C551 C544 1.409 . S
C551 C550 1.362 . S
H552 C558 0.930 . S
H553 C561 0.930 . S
H554 C562 0.930 . S
H555 C563 0.930 . S
H556 C566 0.930 . S
H557 C567 0.930 . S
C558 H552 0.930 . S
C558 C559 1.355 . S
C558 C560 1.415 . S
C559 C558 1.355 . S
C559 C561 1.419 . S
C560 C558 1.415 . S
C560 C565 1.425 . S
C560 C567 1.409 . S
C561 H553 0.930 . S
C561 C559 1.419 . S
C561 C562 1.362 . S
C562 H554 0.930 . S
C562 C561 1.362 . S
C562 C565 1.409 . S
C563 H555 0.930 . S
C563 C564 1.355 . S
C563 C565 1.415 . S
C564 C563 1.355 . S
C564 C566 1.419 . S
C565 C560 1.425 . S
C565 C562 1.409 . S
C565 C563 1.415 . S
C566 H556 0.930 . S
C566 C564 1.419 . S
C566 C567 1.362 . S
C567 H557 0.930 . S
C567 C560 1.409 . S
C567 C566 1.362 . S
H568 C574 0.930 . S
H569 C577 0.930 . S
H570 C578 0.930 . S
H571 C579 0.930 . S
H572 C582 0.930 . S
H573 C583 0.930 . S
C574 H568 0.930 . S
C574 C575 1.355 . S
C574 C576 1.415 . S
C575 C574 1.355 . S
C575 C577 1.419 . S
C576 C574 1.415 . S
C576 C581 1.425 . S
C576 C583 1.409 . S
C577 H569 0.930 . S
C577 C575 1.419 . S
C577 C578 1.362 . S
C578 H570 0.930 . S
C578 C577 1.362 . S
C578 C581 1.409 . S
C579 H571 0.930 . S
C579 C580 1.355 . S
C579 C581 1.415 . S
C580 C579 1.355 . S
C580 C582 1.419 . S
C581 C576 1.425 . S
C581 C578 1.409 . S
C581 C579 1.415 . S
C582 H572 0.930 . S
C582 C580 1.419 . S
C582 C583 1.362 . S
C583 H573 0.930 . S
C583 C576 1.409 . S
C583 C582 1.362 . S
H584 C590 0.930 . S
H585 C593 0.930 . S
H586 C594 0.930 . S
H587 C595 0.930 . S
H588 C598 0.930 . S
H589 C599 0.930 . S
C590 H584 0.930 . S
C590 C591 1.355 . S
C590 C592 1.415 . S
C591 C590 1.355 . S
C591 C593 1.419 . S
C592 C590 1.415 . S
C592 C597 1.425 . S
C592 C599 1.409 . S
C593 H585 0.930 . S
C593 C591 1.419 . S
C593 C594 1.362 . S
C594 H586 0.930 . S
C594 C593 1.362 . S
C594 C597 1.409 . S
C595 H587 0.930 . S
C595 C596 1.355 . S
C595 C597 1.415 . S
C596 C595 1.355 . S
C596 C598 1.419 . S
C597 C592 1.425 . S
C597 C594 1.409 . S
C597 C595 1.415 . S
C598 H588 0.930 . S
C598 C596 1.419 . S
C598 C599 1.362 . S
C599 H589 0.930 . S
C599 C592 1.409 . S
C599 C598 1.362 . S
H600 C606 0.930 . S
H601 C609 0.930 . S
H602 C610 0.930 . S
H603 C611 0.930 . S
H604 C614 0.930 . S
H605 C615 0.930 . S
C606 H600 0.930 . S
C606 C607 1.355 . S
C606 C608 1.415 . S
C607 C606 1.355 . S
C607 C609 1.419 . S
C608 C606 1.415 . S
C608 C613 1.425 . S
C608 C615 1.409 . S
C609 H601 0.930 . S
C609 C607 1.419 . S
C609 C610 1.362 . S
C610 H602 0.930 . S
C610 C609 1.362 . S
C610 C613 1.409 . S
C611 H603 0.930 . S
C611 C612 1.355 . S
C611 C613 1.415 . S
C612 C611 1.355 . S
C612 C614 1.419 . S
C613 C608 1.425 . S
C613 C610 1.409 . S
C613 C611 1.415 . S
C614 H604 0.930 . S
C614 C612 1.419 . S
C614 C615 1.362 . S
C615 H605 0.930 . S
C615 C608 1.409 . S
C615 C614 1.362 . S
H616 C622 0.930 . S
H617 C625 0.930 . S
H618 C626 0.930 . S
H619 C627 0.930 . S
H620 C630 0.930 . S
H621 C631 0.930 . S
C622 H616 0.930 . S
C622 C623 1.355 . S
C622 C624 1.415 . S
C623 C622 1.355 . S
C623 C625 1.419 . S
C624 C622 1.415 . S
C624 C629 1.425 . S
C624 C631 1.409 . S
C625 H617 0.930 . S
C625 C623 1.419 . S
C625 C626 1.362 . S
C626 H618 0.930 . S
C626 C625 1.362 . S
C626 C629 1.409 . S
C627 H619 0.930 . S
C627 C628 1.355 . S
C627 C629 1.415 . S
C628 C627 1.355 . S
C628 C630 1.419 . S
C629 C624 1.425 . S
C629 C626 1.409 . S
C629 C627 1.415 . S
C630 H620 0.930 . S
C630 C628 1.419 . S
C630 C631 1.362 . S
C631 H621 0.930 . S
C631 C624 1.409 . S
C631 C630 1.362 . S
H632 C638 0.930 . S
H633 C641 0.930 . S
H634 C642 0.930 . S
H635 C643 0.930 . S
H636 C646 0.930 . S
H637 C647 0.930 . S
C638 H632 0.930 . S
C638 C639 1.355 . S
C638 C640 1.415 . S
C639 C638 1.355 . S
C639 C641 1.419 . S
C640 C638 1.415 . S
C640 C645 1.425 . S
C640 C647 1.409 . S
C641 H633 0.930 . S
C641 C639 1.419 . S
C641 C642 1.362 . S
C642 H634 0.930 . S
C642 C641 1.362 . S
C642 C645 1.409 . S
C643 H635 0.930 . S
C643 C644 1.355 . S
C643 C645 1.415 . S
C644 C643 1.355 . S
C644 C646 1.419 . S
C645 C640 1.425 . S
C645 C642 1.409 . S
C645 C643 1.415 . S
C646 H636 0.930 . S
C646 C644 1.419 . S
C646 C647 1.362 . S
C647 H637 0.930 . S
C647 C640 1.409 . S
C647 C646 1.362 . S
H648 C654 0.930 . S
H649 C657 0.930 . S
H650 C658 0.930 . S
H651 C659 0.930 . S
H652 C662 0.930 . S
H653 C663 0.930 . S
C654 H648 0.930 . S
C654 C655 1.355 . S
C654 C656 1.415 . S
C655 C654 1.355 . S
C655 C657 1.419 . S
C656 C654 1.415 . S
C656 C661 1.425 1_565 S
C656 C663 1.409 1_565 S
C657 H649 0.930 . S
C657 C655 1.419 . S
C657 C658 1.362 . S
C658 H650 0.930 . S
C658 C657 1.362 . S
C658 C661 1.409 1_565 S
C659 H651 0.930 . S
C659 C660 1.355 . S
C659 C661 1.415 . S
C660 C659 1.355 . S
C660 C662 1.419 . S
C661 C656 1.425 1_545 S
C661 C658 1.409 1_545 S
C661 C659 1.415 . S
C662 H652 0.930 . S
C662 C660 1.419 . S
C662 C663 1.362 . S
C663 H653 0.930 . S
C663 C656 1.409 1_545 S
C663 C662 1.362 . S
H664 C670 0.930 . S
H665 C673 0.930 . S
H666 C674 0.930 . S
H667 C675 0.930 . S
H668 C678 0.930 . S
H669 C679 0.930 . S
C670 H664 0.930 . S
C670 C671 1.355 . S
C670 C672 1.415 . S
C671 C670 1.355 . S
C671 C673 1.419 . S
C672 C670 1.415 . S
C672 C677 1.425 1_455 S
C672 C679 1.409 1_455 S
C673 H665 0.930 . S
C673 C671 1.419 . S
C673 C674 1.362 . S
C674 H666 0.930 . S
C674 C673 1.362 . S
C674 C677 1.409 1_455 S
C675 H667 0.930 . S
C675 C676 1.355 . S
C675 C677 1.415 . S
C676 C675 1.355 . S
C676 C678 1.419 . S
C677 C672 1.425 1_655 S
C677 C674 1.409 1_655 S
C677 C675 1.415 . S
C678 H668 0.930 . S
C678 C676 1.419 . S
C678 C679 1.362 . S
C679 H669 0.930 . S
C679 C672 1.409 1_655 S
C679 C678 1.362 . S
H680 C686 0.930 . S
H681 C689 0.930 . S
H682 C690 0.930 . S
H683 C691 0.930 . S
H684 C694 0.930 . S
H685 C695 0.930 . S
C686 H680 0.930 . S
C686 C687 1.355 . S
C686 C688 1.415 . S
C687 C686 1.355 . S
C687 C689 1.419 . S
C688 C686 1.415 . S
C688 C693 1.425 1_545 S
C688 C695 1.409 1_545 S
C689 H681 0.930 . S
C689 C687 1.419 . S
C689 C690 1.362 . S
C690 H682 0.930 . S
C690 C689 1.362 . S
C690 C693 1.409 1_545 S
C691 H683 0.930 . S
C691 C692 1.355 . S
C691 C693 1.415 . S
C692 C691 1.355 . S
C692 C694 1.419 . S
C693 C688 1.425 1_565 S
C693 C690 1.409 1_565 S
C693 C691 1.415 . S
C694 H684 0.930 . S
C694 C692 1.419 . S
C694 C695 1.362 . S
C695 H685 0.930 . S
C695 C688 1.409 1_565 S
C695 C694 1.362 . S
H696 C702 0.930 . S
H697 C705 0.930 . S
H698 C706 0.930 . S
H699 C707 0.930 . S
H700 C710 0.930 . S
H701 C711 0.930 . S
C702 H696 0.930 . S
C702 C703 1.355 . S
C702 C704 1.415 . S
C703 C702 1.355 . S
C703 C705 1.419 . S
C704 C702 1.415 . S
C704 C709 1.425 1_455 S
C704 C711 1.409 1_455 S
C705 H697 0.930 . S
C705 C703 1.419 . S
C705 C706 1.362 . S
C706 H698 0.930 . S
C706 C705 1.362 . S
C706 C709 1.409 1_455 S
C707 H699 0.930 . S
C707 C708 1.355 . S
C707 C709 1.415 . S
C708 C707 1.355 . S
C708 C710 1.419 . S
C709 C704 1.425 1_655 S
C709 C706 1.409 1_655 S
C709 C707 1.415 . S
C710 H700 0.930 . S
C710 C708 1.419 . S
C710 C711 1.362 . S
C711 H701 0.930 . S
C711 C704 1.409 1_655 S
C711 C710 1.362 . S
H712 C718 0.930 . S
H713 C721 0.930 . S
H714 C722 0.930 . S
H715 C723 0.930 . S
H716 C726 0.930 . S
H717 C727 0.930 . S
C718 H712 0.930 . S
C718 C719 1.355 . S
C718 C720 1.415 . S
C719 C718 1.355 . S
C719 C721 1.419 . S
C720 C718 1.415 . S
C720 C725 1.425 1_556 S
C720 C727 1.409 1_556 S
C721 H713 0.930 . S
C721 C719 1.419 . S
C721 C722 1.362 . S
C722 H714 0.930 . S
C722 C721 1.362 . S
C722 C725 1.409 1_556 S
C723 H715 0.930 . S
C723 C724 1.355 . S
C723 C725 1.415 . S
C724 C723 1.355 . S
C724 C726 1.419 . S
C725 C720 1.425 1_554 S
C725 C722 1.409 1_554 S
C725 C723 1.415 . S
C726 H716 0.930 . S
C726 C724 1.419 . S
C726 C727 1.362 . S
C727 H717 0.930 . S
C727 C720 1.409 1_554 S
C727 C726 1.362 . S
H728 C734 0.930 . S
H729 C737 0.930 . S
H730 C738 0.930 . S
H731 C739 0.930 . S
H732 C742 0.930 . S
H733 C743 0.930 . S
C734 H728 0.930 . S
C734 C735 1.355 . S
C734 C736 1.415 . S
C735 C734 1.355 . S
C735 C737 1.419 . S
C736 C734 1.415 . S
C736 C741 1.425 1_556 S
C736 C743 1.409 1_556 S
C737 H729 0.930 . S
C737 C735 1.419 . S
C737 C738 1.362 . S
C738 H730 0.930 . S
C738 C737 1.362 . S
C738 C741 1.409 1_556 S
C739 H731 0.930 . S
C739 C740 1.355 . S
C739 C741 1.415 . S
C740 C739 1.355 . S
C740 C742 1.419 . S
C741 C736 1.425 1_554 S
C741 C738 1.409 1_554 S
C741 C739 1.415 . S
C742 H732 0.930 . S
C742 C740 1.419 . S
C742 C743 1.362 . S
C743 H733 0.930 . S
C743 C736 1.409 1_554 S
C743 C742 1.362 . S
H744 C750 0.930 . S
H745 C753 0.930 . S
H746 C754 0.930 . S
H747 C755 0.930 . S
H748 C758 0.930 . S
H749 C759 0.930 . S
C750 H744 0.930 . S
C750 C751 1.355 . S
C750 C752 1.415 . S
C751 C750 1.355 . S
C751 C753 1.419 . S
C752 C750 1.415 . S
C752 C757 1.425 1_554 S
C752 C759 1.409 1_554 S
C753 H745 0.930 . S
C753 C751 1.419 . S
C753 C754 1.362 . S
C754 H746 0.930 . S
C754 C753 1.362 . S
C754 C757 1.409 1_554 S
C755 H747 0.930 . S
C755 C756 1.355 . S
C755 C757 1.415 . S
C756 C755 1.355 . S
C756 C758 1.419 . S
C757 C752 1.425 1_556 S
C757 C754 1.409 1_556 S
C757 C755 1.415 . S
C758 H748 0.930 . S
C758 C756 1.419 . S
C758 C759 1.362 . S
C759 H749 0.930 . S
C759 C752 1.409 1_556 S
C759 C758 1.362 . S
H760 C766 0.930 . S
H761 C769 0.930 . S
H762 C770 0.930 . S
H763 C771 0.930 . S
H764 C774 0.930 . S
H765 C775 0.930 . S
C766 H760 0.930 . S
C766 C767 1.355 . S
C766 C768 1.415 . S
C767 C766 1.355 . S
C767 C769 1.419 . S
C768 C766 1.415 . S
C768 C773 1.425 1_556 S
C768 C775 1.409 1_556 S
C769 H761 0.930 . S
C769 C767 1.419 . S
C769 C770 1.362 . S
C770 H762 0.930 . S
C770 C769 1.362 . S
C770 C773 1.409 1_556 S
C771 H763 0.930 . S
C771 C772 1.355 . S
C771 C773 1.415 . S
C772 C771 1.355 . S
C772 C774 1.419 . S
C773 C768 1.425 1_554 S
C773 C770 1.409 1_554 S
C773 C771 1.415 . S
C774 H764 0.930 . S
C774 C772 1.419 . S
C774 C775 1.362 . S
C775 H765 0.930 . S
C775 C768 1.409 1_554 S
C775 C774 1.362 . S
H776 C782 0.930 . S
H777 C785 0.930 . S
H778 C786 0.930 . S
H779 C787 0.930 . S
H780 C790 0.930 . S
H781 C791 0.930 . S
C782 H776 0.930 . S
C782 C783 1.355 . S
C782 C784 1.415 . S
C783 C782 1.355 . S
C783 C785 1.419 . S
C784 C782 1.415 . S
C784 C789 1.425 1_455 S
C784 C791 1.409 1_455 S
C785 H777 0.930 . S
C785 C783 1.419 . S
C785 C786 1.362 . S
C786 H778 0.930 . S
C786 C785 1.362 . S
C786 C789 1.409 1_455 S
C787 H779 0.930 . S
C787 C788 1.355 . S
C787 C789 1.415 . S
C788 C787 1.355 . S
C788 C790 1.419 . S
C789 C784 1.425 1_655 S
C789 C786 1.409 1_655 S
C789 C787 1.415 . S
C790 H780 0.930 . S
C790 C788 1.419 . S
C790 C791 1.362 . S
C791 H781 0.930 . S
C791 C784 1.409 1_655 S
C791 C790 1.362 . S
H792 C798 0.930 . S
H793 C801 0.930 . S
H794 C802 0.930 . S
H795 C803 0.930 . S
H796 C806 0.930 . S
H797 C807 0.930 . S
C798 H792 0.930 . S
C798 C799 1.355 . S
C798 C800 1.415 . S
C799 C798 1.355 . S
C799 C801 1.419 . S
C800 C798 1.415 . S
C800 C805 1.425 1_655 S
C800 C807 1.409 1_655 S
C801 H793 0.930 . S
C801 C799 1.419 . S
C801 C802 1.362 . S
C802 H794 0.930 . S
C802 C801 1.362 . S
C802 C805 1.409 1_655 S
C803 H795 0.930 . S
C803 C804 1.355 . S
C803 C805 1.415 . S
C804 C803 1.355 . S
C804 C806 1.419 . S
C805 C800 1.425 1_455 S
C805 C802 1.409 1_455 S
C805 C803 1.415 . S
C806 H796 0.930 . S
C806 C804 1.419 . S
C806 C807 1.362 . S
C807 H797 0.930 . S
C807 C800 1.409 1_455 S
C807 C806 1.362 . S
H808 C814 0.930 . S
H809 C817 0.930 . S
H810 C818 0.930 . S
H811 C819 0.930 . S
H812 C822 0.930 . S
H813 C823 0.930 . S
C814 H808 0.930 . S
C814 C815 1.355 . S
C814 C816 1.415 . S
C815 C814 1.355 . S
C815 C817 1.419 . S
C816 C814 1.415 . S
C816 C821 1.425 1_545 S
C816 C823 1.409 1_545 S
C817 H809 0.930 . S
C817 C815 1.419 . S
C817 C818 1.362 . S
C818 H810 0.930 . S
C818 C817 1.362 . S
C818 C821 1.409 1_545 S
C819 H811 0.930 . S
C819 C820 1.355 . S
C819 C821 1.415 . S
C820 C819 1.355 . S
C820 C822 1.419 . S
C821 C816 1.425 1_565 S
C821 C818 1.409 1_565 S
C821 C819 1.415 . S
C822 H812 0.930 . S
C822 C820 1.419 . S
C822 C823 1.362 . S
C823 H813 0.930 . S
C823 C816 1.409 1_565 S
C823 C822 1.362 . S
H824 C830 0.930 . S
H825 C833 0.930 . S
H826 C834 0.930 . S
H827 C835 0.930 . S
H828 C838 0.930 . S
H829 C839 0.930 . S
C830 H824 0.930 . S
C830 C831 1.355 . S
C830 C832 1.415 . S
C831 C830 1.355 . S
C831 C833 1.419 . S
C832 C830 1.415 . S
C832 C837 1.425 1_565 S
C832 C839 1.409 1_565 S
C833 H825 0.930 . S
C833 C831 1.419 . S
C833 C834 1.362 . S
C834 H826 0.930 . S
C834 C833 1.362 . S
C834 C837 1.409 1_565 S
C835 H827 0.930 . S
C835 C836 1.355 . S
C835 C837 1.415 . S
C836 C835 1.355 . S
C836 C838 1.419 . S
C837 C832 1.425 1_545 S
C837 C834 1.409 1_545 S
C837 C835 1.415 . S
C838 H828 0.930 . S
C838 C836 1.419 . S
C838 C839 1.362 . S
C839 H829 0.930 . S
C839 C832 1.409 1_545 S
C839 C838 1.362 . S
C271 C15 1.444 . S
C276 C164 1.455 . S
C287 C95 1.493 . S
C292 C30 1.476 . S
C303 C54 1.423 . S
C308 C120 1.391 . S
C319 C84 1.474 . S
C324 C147 1.464 . S
C335 C81 1.507 . S
C340 C205 1.520 . S
C351 C18 1.410 . S
C356 C238 1.424 . S
C367 C249 1.547 . S
C372 C29 1.495 . S
C383 C65 1.446 . S
C388 C184 1.475 . S
C399 C103 1.489 . S
C404 C10 1.484 . S
C415 C128 1.470 . S
C420 C43 1.436 . S
C431 C153 1.513 . S
C436 C59 1.539 . S
C447 C73 1.426 . S
C452 C172 1.466 . S
C463 C76 1.393 . S
C468 C186 1.426 . S
C479 C7 1.486 . S
C484 C213 1.537 . S
C495 C228 1.404 . S
C500 C40 1.422 . S
C511 C257 1.484 . S
C516 C52 1.465 . S
C527 C98 1.491 . S
C532 C169 1.429 . S
C543 C216 1.492 . S
C548 C191 1.454 . S
C559 C208 1.479 . S
C564 C227 1.448 . S
C575 C260 1.479 . S
C580 C241 1.436 . S
C591 C252 1.484 . S
C596 C197 1.442 . S
C607 C140 1.488 . S
C612 C125 1.434 . S
C623 C142 1.488 . S
C628 C161 1.462 . S
C639 C106 1.467 . S
C644 C117 1.456 . S
C655 C74 1.458 . S
C660 C8 1.457 . S
C671 C21 1.532 . S
C676 C37 1.522 . S
C687 C32 1.506 . S
C692 C51 1.502 . S
C703 C87 1.478 . S
C708 C62 1.484 . S
C719 C235 1.467 . S
C724 C96 1.475 . S
C735 C250 1.494 . S
C740 C131 1.488 . S
C751 C150 1.500 . S
C756 C183 1.503 . S
C767 C206 1.514 . S
C772 C175 1.506 . S
C783 C162 1.414 . S
C788 C118 1.413 . S
C799 C263 1.542 . S
C804 C219 1.556 . S
C815 C230 1.441 . S
C820 C194 1.437 . S
C831 C139 1.573 . S
C836 C109 1.577 . S
