# Generated by pormake.
# Topology afw, (4)-cn, num edge types: 1
# Building blocks:
#     Node 0, Type 0, BuildingBlock: QUQFOY_clean_sbu_3, # of connection points: 4
#     Node 1, Type 0, BuildingBlock: QUQFOY_clean_sbu_3, # of connection points: 4
#     Node 2, Type 0, BuildingBlock: QUQFOY_clean_sbu_3, # of connection points: 4
#     Node 3, Type 0, BuildingBlock: QUQFOY_clean_sbu_3, # of connection points: 4
#     Node 4, Type 0, BuildingBlock: QUQFOY_clean_sbu_3, # of connection points: 4
#     Node 5, Type 0, BuildingBlock: QUQFOY_clean_sbu_3, # of connection points: 4
#     Node 6, Type 0, BuildingBlock: QUQFOY_clean_sbu_3, # of connection points: 4
#     Node 7, Type 0, BuildingBlock: QUQFOY_clean_sbu_3, # of connection points: 4
#     Node 8, Type 0, BuildingBlock: QUQFOY_clean_sbu_3, # of connection points: 4
#     Edge 9, Type (0, 0), BuildingBlock: FUNLAD_clean_linker_0, # of connection points: 2
#     Edge 10, Type (0, 0), BuildingBlock: FUNLAD_clean_linker_0, # of connection points: 2
#     Edge 11, Type (0, 0), BuildingBlock: FUNLAD_clean_linker_0, # of connection points: 2
#     Edge 12, Type (0, 0), BuildingBlock: FUNLAD_clean_linker_0, # of connection points: 2
#     Edge 13, Type (0, 0), BuildingBlock: FUNLAD_clean_linker_0, # of connection points: 2
#     Edge 14, Type (0, 0), BuildingBlock: FUNLAD_clean_linker_0, # of connection points: 2
#     Edge 15, Type (0, 0), BuildingBlock: FUNLAD_clean_linker_0, # of connection points: 2
#     Edge 16, Type (0, 0), BuildingBlock: FUNLAD_clean_linker_0, # of connection points: 2
#     Edge 17, Type (0, 0), BuildingBlock: FUNLAD_clean_linker_0, # of connection points: 2
#     Edge 18, Type (0, 0), BuildingBlock: FUNLAD_clean_linker_0, # of connection points: 2
#     Edge 19, Type (0, 0), BuildingBlock: FUNLAD_clean_linker_0, # of connection points: 2
#     Edge 20, Type (0, 0), BuildingBlock: FUNLAD_clean_linker_0, # of connection points: 2
#     Edge 21, Type (0, 0), BuildingBlock: FUNLAD_clean_linker_0, # of connection points: 2
#     Edge 22, Type (0, 0), BuildingBlock: FUNLAD_clean_linker_0, # of connection points: 2
#     Edge 23, Type (0, 0), BuildingBlock: FUNLAD_clean_linker_0, # of connection points: 2
#     Edge 24, Type (0, 0), BuildingBlock: FUNLAD_clean_linker_0, # of connection points: 2
#     Edge 25, Type (0, 0), BuildingBlock: FUNLAD_clean_linker_0, # of connection points: 2
#     Edge 26, Type (0, 0), BuildingBlock: FUNLAD_clean_linker_0, # of connection points: 2
# Relax obj value: 0.197
# Max RMSD: 0.207
# Mean RMSD: 0.200
data_MOF--net-afw--node1-QUQFOY_clean_sbu_3--edge1-FUNLAD_clean_linker_0
_symmetry_space_group_name_H-M    P1
_symmetry_Int_Tables_number       1
_symmetry_cell_setting            triclinic
loop_
_symmetry_equiv_pos_as_xyz
'x, y, z'
_cell_length_a     52.159992
_cell_length_b     52.902231
_cell_length_c     37.901036
_cell_angle_alpha  90.870313
_cell_angle_beta   91.178428
_cell_angle_gamma 120.42182
loop_
_atom_site_label
_atom_site_type_symbol
_atom_site_fract_x
_atom_site_fract_y
_atom_site_fract_z
_atom_type_partial_charge
C0 C 0.04783 0.1718 0.06431 0.0
O1 O 0.03583 0.16723 0.09414 0.0
Cd2 Cd -0.00582 0.17265 0.10716 0.0
O3 O 0.03904 0.18155 0.03913 0.0
Cd4 Cd 0.00228 0.19755 0.03001 0.0
C5 C 0.94652 0.12801 0.03994 0.0
O6 O 0.0058 0.21969 0.08794 0.0
O7 O -0.03235 0.21047 0.05496 0.0
O8 O 0.03973 0.24153 0.00222 0.0
C9 C -0.0169 0.22219 0.08305 0.0
O10 O 0.95253 0.13319 0.07293 0.0
C11 C 0.02396 0.23854 0.9748 0.0
O12 O -0.03763 0.14696 0.01754 0.0
O13 O -0.00156 0.21548 0.9721 0.0
C14 C 0.84821 0.80914 0.95949 0.0
O15 O 0.83918 0.81418 0.93053 0.0
Cd16 Cd 0.79197 0.81123 0.92418 0.0
O17 O 0.83239 0.80255 0.98672 0.0
Cd18 Cd 0.78387 0.79445 0.00515 0.0
C19 C 0.80243 0.86399 0.98596 0.0
O20 O 0.75843 0.76654 0.95219 0.0
O21 O 0.73205 0.77655 0.98654 0.0
O22 O 0.78315 0.75619 0.03985 0.0
C23 C 0.73318 0.7627 0.9596 0.0
O24 O 0.79875 0.85577 0.95357 0.0
C25 C 0.77333 0.76171 0.06747 0.0
O26 O 0.79995 0.84651 0.01014 0.0
O27 O 0.7696 0.78365 0.06683 0.0
C28 C 0.10396 0.91924 0.0437 0.0
O29 O 0.11343 0.92704 0.07545 0.0
Cd30 Cd 0.16258 0.96573 0.09249 0.0
O31 O 0.12045 0.93232 0.01793 0.0
Cd32 Cd 0.1708 0.97216 0.00501 0.0
C33 C 0.16179 0.023 0.05045 0.0
O34 O 0.19244 0.95865 0.05177 0.0
O35 O 0.22358 -0.00334 0.02414 0.0
O36 O 0.16561 0.94171 0.95392 0.0
C37 C 0.21897 -0.02078 0.04896 0.0
O38 O 0.16292 0.01095 0.07885 0.0
C39 C 0.17702 0.96264 0.93261 0.0
O40 O 0.16239 0.01226 0.02034 0.0
O41 O 0.18507 -0.01186 0.94491 0.0
C42 C 0.57896 0.45533 0.28357 0.0
O43 O 0.58994 0.46562 0.25396 0.0
Cd44 Cd 0.63369 0.51344 0.24856 0.0
O45 O 0.58911 0.47132 0.31158 0.0
Cd46 Cd 0.62638 0.52224 0.32955 0.0
C47 C 0.67871 0.5058 0.31014 0.0
O48 O 0.62847 0.55051 0.27824 0.0
O49 O 0.66486 0.57162 0.31694 0.0
O50 O 0.58853 0.52708 0.35862 0.0
C51 C 0.65227 0.57345 0.28892 0.0
O52 O 0.67293 0.50885 0.27819 0.0
C53 C 0.60153 0.53399 0.38885 0.0
O54 O 0.66374 0.50759 0.33522 0.0
O55 O 0.62601 0.53429 0.39207 0.0
C56 C 0.52249 0.13986 0.30356 0.0
O57 O 0.51449 0.14159 0.27222 0.0
Cd58 Cd 0.46833 0.13737 0.25536 0.0
O59 O 0.50537 0.13534 0.32923 0.0
Cd60 Cd 0.45427 0.12537 0.3402 0.0
C61 C 0.47094 0.19202 0.31046 0.0
O62 O 0.43572 0.09602 0.28733 0.0
O63 O 0.40318 0.10239 0.31344 0.0
O64 O 0.45631 0.09084 0.37906 0.0
C65 C 0.40922 0.09047 0.2882 0.0
O66 O 0.47086 0.18141 0.28002 0.0
C67 C 0.44117 0.09309 0.40333 0.0
O68 O 0.46707 0.17714 0.3381 0.0
O69 O 0.43308 0.11191 0.39935 0.0
C70 C 0.80014 0.3616 0.2924 0.0
O71 O 0.79558 0.34583 0.26473 0.0
Cd72 Cd 0.81224 0.31115 0.25823 0.0
O73 O 0.81404 0.35957 0.31919 0.0
Cd74 Cd 0.83765 0.33144 0.33681 0.0
C75 C 0.77486 0.26587 0.32541 0.0
O76 O 0.86203 0.3355 0.28176 0.0
O77 O 0.86378 0.30601 0.31909 0.0
O78 O 0.87571 0.37456 0.3691 0.0
C79 C 0.87176 0.31869 0.28989 0.0
O80 O 0.77938 0.26854 0.29243 0.0
C81 C 0.87218 0.36175 0.39816 0.0
O82 O 0.79122 0.28667 0.34726 0.0
O83 O 0.8521 0.33489 0.39872 0.0
C84 C 0.37467 0.85909 0.74161 0.0
O85 O 0.3629 0.85988 0.77028 0.0
Cd86 Cd 0.3178 0.86175 0.76995 0.0
O87 O 0.36402 0.86153 0.71221 0.0
Cd88 Cd 0.32498 0.87009 0.6879 0.0
C89 C 0.27541 0.8021 0.71362 0.0
O90 O 0.32367 0.90149 0.73471 0.0
O91 O 0.28667 0.88235 0.69678 0.0
O92 O 0.36583 0.9072 0.65593 0.0
C93 C 0.30003 0.90002 0.72266 0.0
O94 O 0.28086 0.81386 0.74451 0.0
C95 C 0.35185 0.90197 0.62647 0.0
O96 O 0.28933 0.81712 0.68723 0.0
O97 O 0.32515 0.88065 0.62481 0.0
C98 C 0.16661 0.46614 0.64278 0.0
O99 O 0.15763 0.46724 0.61175 0.0
Cd100 Cd 0.11543 0.47362 0.60286 0.0
O101 O 0.15175 0.46544 0.66932 0.0
Cd102 Cd 0.10547 0.4623 0.68756 0.0
C103 C 0.13743 0.53257 0.6624 0.0
O104 O 0.07535 0.43811 0.6356 0.0
O105 O 0.05719 0.45655 0.67184 0.0
O106 O 0.09648 0.41759 0.71245 0.0
C107 C 0.05421 0.4423 0.64331 0.0
O108 O 0.1328 0.52138 0.63125 0.0
C109 C 0.0916 0.42281 0.74356 0.0
O110 O 0.13067 0.51644 0.68938 0.0
O111 O 0.094 0.4477 0.74977 0.0
C112 C 0.42738 0.60772 0.70462 0.0
O113 O 0.43381 0.61453 0.7372 0.0
Cd114 Cd 0.48217 0.65439 0.75661 0.0
O115 O 0.44673 0.62112 0.68158 0.0
Cd116 Cd 0.49875 0.65851 0.6751 0.0
C117 C 0.48671 0.711 0.70749 0.0
O118 O 0.51832 0.64743 0.72748 0.0
O119 O 0.54867 0.68673 0.70032 0.0
O120 O 0.49829 0.62177 0.63726 0.0
C121 C 0.54444 0.66914 0.72488 0.0
O122 O 0.48538 0.69968 0.73732 0.0
C123 C 0.51012 0.63796 0.61119 0.0
O124 O 0.48925 0.69927 0.67913 0.0
O125 O 0.51622 0.66446 0.61417 0.0
C126 C 0.15495 0.06175 0.02182 0.0
C127 C 0.15879 0.04934 0.05257 0.0
C128 C 0.14995 0.0853 0.02411 0.0
C129 C 0.14857 0.09681 0.05729 0.0
C130 C 0.154 0.0854 0.08786 0.0
C131 C 0.15891 0.06186 0.0856 0.0
C132 C 0.13979 0.11933 0.06155 0.0
C133 C 0.12258 0.12304 0.03767 0.0
C134 C 0.10743 0.13974 0.04562 0.0
C135 C 0.0972 0.14965 0.01753 0.0
C136 C 0.07905 0.16155 0.02369 0.0
C137 C 0.07043 0.16335 0.05811 0.0
H138 H 0.10644 0.13466 0.10259 0.0
C139 C 0.08164 0.15452 0.08636 0.0
C140 C 0.09985 0.14278 0.08023 0.0
H141 H 0.07542 0.15559 0.11319 0.0
H142 H 0.15521 0.05293 -0.00407 0.0
H143 H 0.14693 0.09413 -0.00014 0.0
H144 H 0.15332 0.094 0.11375 0.0
H145 H 0.16217 0.05311 0.10982 0.0
H146 H 0.14524 0.13108 0.08686 0.0
H147 H 0.11733 0.11173 0.01211 0.0
H148 H 0.10249 0.14734 0.99061 0.0
H149 H 0.07075 0.16811 0.00131 0.0
C150 C 0.81276 0.9139 0.96915 0.0
C151 C 0.8116 0.89479 -0.00472 0.0
C152 C 0.824 0.94361 0.97728 0.0
C153 C 0.8347 0.95496 0.01172 0.0
C154 C 0.83217 0.93552 0.03812 0.0
C155 C 0.82079 0.90581 0.03004 0.0
C156 C 0.84954 -0.0132 0.02128 0.0
C157 C 0.86111 0.00835 -0.00238 0.0
C158 C 0.88026 0.03995 0.00794 0.0
C159 C 0.9002 0.05913 0.9834 0.0
C160 C 0.92093 0.08822 -0.00679 0.0
C161 C 0.92214 0.09869 0.02784 0.0
H162 H 0.86425 0.03762 0.06112 0.0
C163 C 0.901 0.08006 0.05174 0.0
C164 C 0.88011 0.05112 0.04183 0.0
H165 H 0.90094 0.08768 0.0784 0.0
H166 H 0.80541 0.90602 0.94221 0.0
H167 H 0.82441 0.95745 0.95633 0.0
H168 H 0.83988 0.94349 0.06496 0.0
H169 H 0.82004 0.89169 0.05089 0.0
H170 H 0.85346 -0.0075 0.04923 0.0
H171 H 0.8592 0.00276 0.9697 0.0
H172 H 0.90057 0.05131 0.95696 0.0
H173 H 0.9368 0.10209 0.97409 0.0
C174 C 0.88554 0.80084 -0.00863 0.0
C175 C 0.87785 0.81209 0.9623 0.0
C176 C 0.91448 0.80621 -0.00388 0.0
C177 C 0.93648 0.82351 0.97219 0.0
C178 C 0.92823 0.83303 0.94191 0.0
C179 C 0.89918 0.82737 0.93696 0.0
C180 C -0.0315 0.83408 0.97902 0.0
C181 C -0.01957 0.83661 0.01171 0.0
C182 C 0.01283 0.85448 0.02007 0.0
C183 C 0.02214 0.8659 0.05466 0.0
C184 C 0.05198 0.88617 0.06275 0.0
C185 C 0.07309 0.89545 0.03632 0.0
H186 H 0.02843 0.85287 0.96767 0.0
C187 C 0.06414 0.88264 0.00224 0.0
C188 C 0.03437 0.86213 -0.00576 0.0
H189 H 0.08008 0.88881 0.98152 0.0
H190 H 0.86933 0.78832 0.01087 0.0
H191 H 0.91949 0.79725 0.01892 0.0
H192 H 0.94461 0.84606 0.9228 0.0
H193 H 0.89383 0.83606 0.91408 0.0
H194 H -0.01702 0.84379 0.95701 0.0
H195 H -0.03397 0.82884 0.03409 0.0
H196 H 0.0061 0.86012 0.0752 0.0
H197 H 0.05825 0.89543 0.08937 0.0
C198 C 0.79517 0.40088 0.32369 0.0
C199 C 0.78935 0.3826 0.29365 0.0
C200 C 0.78493 0.42069 0.32495 0.0
C201 C 0.76846 0.42245 0.29623 0.0
C202 C 0.76303 0.40446 0.26609 0.0
C203 C 0.77326 0.38469 0.26481 0.0
C204 C 0.75676 0.44282 0.29622 0.0
C205 C 0.75219 0.45448 0.32562 0.0
C206 C 0.73714 0.47188 0.32403 0.0
C207 C 0.71859 0.47006 0.35141 0.0
C208 C 0.70071 0.48266 0.34802 0.0
C209 C 0.70123 0.49731 0.31719 0.0
H210 H 0.75472 0.49188 0.27388 0.0
C211 C 0.72164 0.5012 0.2912 0.0
C212 C 0.73959 0.48882 0.2947 0.0
H213 H 0.72307 0.513 0.26753 0.0
H214 H 0.80776 0.40003 0.34626 0.0
H215 H 0.79036 0.43473 0.34827 0.0
H216 H 0.75056 0.40549 0.24348 0.0
H217 H 0.76848 0.37102 0.24122 0.0
H218 H 0.7495 0.44655 0.27075 0.0
H219 H 0.75659 0.44872 0.35149 0.0
H220 H 0.71672 0.45754 0.37455 0.0
H221 H 0.68535 0.4795 0.36862 0.0
C222 C 0.47855 0.23756 0.28214 0.0
C223 C 0.477 0.2226 0.3131 0.0
C224 C 0.48673 0.26707 0.28362 0.0
C225 C 0.49339 0.28249 0.31625 0.0
C226 C 0.49118 0.26739 0.34732 0.0
C227 C 0.48291 0.2377 0.34582 0.0
C228 C 0.50545 0.31475 0.31846 0.0
C229 C 0.50207 0.32993 0.29224 0.0
C230 C 0.51904 0.36248 0.29114 0.0
C231 C 0.52559 0.37558 0.25807 0.0
C232 C 0.54415 0.40589 0.25553 0.0
C233 C 0.55626 0.42384 0.28612 0.0
H234 H 0.52445 0.37142 0.3478 0.0
C235 C 0.54821 0.41092 0.3193 0.0
C236 C 0.52983 0.38057 0.32182 0.0
H237 H 0.55689 0.42413 0.34344 0.0
H238 H 0.4742 0.2267 0.25642 0.0
H239 H 0.489 0.2778 0.25889 0.0
H240 H 0.49645 0.27874 0.3728 0.0
H241 H 0.482 0.22687 0.37017 0.0
H242 H 0.51904 0.3264 0.34177 0.0
H243 H 0.48829 0.31829 0.26906 0.0
H244 H 0.51731 0.3622 0.234 0.0
H245 H 0.54966 0.4151 0.22957 0.0
C246 C 0.56268 0.14315 0.34441 0.0
C247 C 0.55186 0.14264 0.30995 0.0
C248 C 0.59112 0.14718 0.35008 0.0
C249 C 0.60922 0.15084 0.32131 0.0
C250 C 0.59766 0.14871 0.28693 0.0
C251 C 0.56943 0.14482 0.28129 0.0
C252 C 0.64101 0.15951 0.32536 0.0
C253 C 0.65821 0.17411 0.35406 0.0
C254 C 0.69097 0.19347 0.35202 0.0
C255 C 0.70516 0.21849 0.37448 0.0
C256 C 0.73369 0.24133 0.36748 0.0
C257 C 0.74834 0.23952 0.33774 0.0
H258 H 0.69797 0.17051 0.30844 0.0
C259 C 0.73559 0.21322 0.31765 0.0
C260 C 0.70735 0.19015 0.32509 0.0
H261 H 0.7469 0.21096 0.29521 0.0
H262 H 0.54943 0.14098 0.36704 0.0
H263 H 0.59883 0.14777 0.37696 0.0
H264 H 0.61099 0.15126 0.26423 0.0
H265 H 0.56163 0.14404 0.25436 0.0
H266 H 0.6514 0.15839 0.30136 0.0
H267 H 0.64802 0.17675 0.37742 0.0
H268 H 0.69332 0.22144 0.39582 0.0
H269 H 0.74321 0.26126 0.38372 0.0
C270 C 0.41376 0.85398 0.71054 0.0
C271 C 0.39907 0.85252 0.7418 0.0
C272 C 0.43363 0.84364 0.70921 0.0
C273 C 0.4389 0.83122 0.73908 0.0
C274 C 0.42585 0.83176 0.77094 0.0
C275 C 0.40613 0.84227 0.77232 0.0
C276 C 0.45609 0.81579 0.73787 0.0
C277 C 0.46061 0.8047 0.70785 0.0
C278 C 0.47149 0.78353 0.70717 0.0
C279 C 0.46664 0.76654 0.67615 0.0
C280 C 0.47284 0.74373 0.67558 0.0
C281 C 0.48384 0.73735 0.70618 0.0
H282 H 0.49022 0.79171 0.76095 0.0
C283 C 0.49045 0.75542 0.73652 0.0
C284 C 0.4847 0.77847 0.73694 0.0
H285 H 0.49965 0.75145 0.76026 0.0
H286 H 0.40926 0.86233 0.68672 0.0
H287 H 0.4442 0.84494 0.68453 0.0
H288 H 0.42981 0.82274 0.79452 0.0
H289 H 0.3954 0.84106 0.79691 0.0
H290 H 0.46197 0.81054 0.76318 0.0
H291 H 0.45297 0.80849 0.68274 0.0
H292 H 0.45687 0.77012 0.65264 0.0
H293 H 0.46773 0.73029 0.65172 0.0
C294 C 0.24812 0.75596 0.67589 0.0
C295 C 0.25392 0.7702 0.70916 0.0
C296 C 0.22952 0.72551 0.67243 0.0
C297 C 0.21652 0.70859 0.70229 0.0
C298 C 0.22138 0.72303 0.73521 0.0
C299 C 0.2399 0.75341 0.73867 0.0
C300 C 0.19795 0.676 0.70039 0.0
C301 C 0.19984 0.65943 0.67442 0.0
C302 C 0.18228 0.62686 0.67268 0.0
C303 C 0.17728 0.61274 0.63957 0.0
C304 C 0.16224 0.58225 0.63643 0.0
C305 C 0.15208 0.56494 0.66647 0.0
H306 H 0.17599 0.61978 0.729 0.0
C307 C 0.15695 0.57898 0.69977 0.0
C308 C 0.1719 0.60969 0.70288 0.0
H309 H 0.14957 0.56632 0.72343 0.0
H310 H 0.25822 0.76824 0.65255 0.0
H311 H 0.22544 0.71552 0.64628 0.0
H312 H 0.2114 0.71068 0.75858 0.0
H313 H 0.24366 0.76363 0.76471 0.0
H314 H 0.18301 0.66541 0.72182 0.0
H315 H 0.21482 0.66992 0.65302 0.0
H316 H 0.18517 0.62538 0.61591 0.0
H317 H 0.15904 0.57232 0.6103 0.0
C318 C 0.21582 0.47582 0.62131 0.0
C319 C 0.19594 0.46875 0.6489 0.0
C320 C 0.2454 0.48385 0.62857 0.0
C321 C 0.25559 0.4851 0.66362 0.0
C322 C 0.23501 0.47523 0.69059 0.0
C323 C 0.2055 0.46724 0.68337 0.0
C324 C 0.28764 0.49931 0.67365 0.0
C325 C 0.30861 0.52165 0.65556 0.0
C326 C 0.33951 0.54115 0.66916 0.0
C327 C 0.36151 0.55708 0.64488 0.0
C328 C 0.39013 0.57823 0.65651 0.0
C329 C 0.39732 0.58422 0.6928 0.0
H330 H 0.33018 0.53544 0.72511 0.0
C331 C 0.37545 0.56795 0.71723 0.0
C332 C 0.34677 0.54662 0.70555 0.0
H333 H 0.38028 0.57207 0.74535 0.0
H334 H 0.20899 0.47663 0.59436 0.0
H335 H 0.26038 0.49005 0.60684 0.0
H336 H 0.24217 0.47552 0.71771 0.0
H337 H 0.19059 0.46134 0.70518 0.0
H338 H 0.29357 0.49366 0.69874 0.0
H339 H 0.30273 0.5274 0.63052 0.0
H340 H 0.3564 0.55353 0.61675 0.0
H341 H 0.40644 0.59031 0.63691 0.0
C342 C 0.01566 0.259 0.91944 0.0
C343 C 0.03401 0.26192 0.9487 0.0
C344 C 0.02417 0.28209 0.89638 0.0
C345 C 0.05133 0.30857 0.90206 0.0
C346 C 0.06964 0.31142 0.93128 0.0
C347 C 0.06118 0.2883 0.95426 0.0
C348 C 0.0609 0.33378 0.87851 0.0
C349 C 0.05273 0.33034 0.84409 0.0
C350 C 0.06346 0.355 0.81958 0.0
C351 C 0.06546 0.34925 0.78388 0.0
C352 C 0.07504 0.37149 0.7596 0.0
C353 C 0.0824 0.40001 0.77031 0.0
H354 H 0.06884 0.38853 0.85781 0.0
C355 C 0.08014 0.40586 0.80603 0.0
C356 C 0.07083 0.38353 0.83056 0.0
H357 H 0.08546 0.42758 0.81497 0.0
H358 H -0.00558 0.23909 0.91471 0.0
H359 H 0.00903 0.27934 0.87474 0.0
H360 H 0.09058 0.33161 0.93635 0.0
H361 H 0.07572 0.29134 0.97675 0.0
H362 H 0.07666 0.35552 0.88931 0.0
H363 H 0.03937 0.30835 0.83258 0.0
H364 H 0.05974 0.32746 0.7747 0.0
H365 H 0.0763 0.36613 0.73223 0.0
C366 C 0.70927 0.72883 0.90756 0.0
C367 C 0.70688 0.74421 0.93661 0.0
C368 C 0.68504 0.71258 0.88442 0.0
C369 C 0.658 0.71165 0.88972 0.0
C370 C 0.6551 0.72573 0.91976 0.0
C371 C 0.67941 0.74201 0.943 0.0
C372 C 0.63306 0.6975 0.86344 0.0
C373 C 0.63777 0.69774 0.82866 0.0
C374 C 0.6137 0.68845 0.80161 0.0
C375 C 0.62033 0.70305 0.76958 0.0
C376 C 0.59782 0.6965 0.74441 0.0
C377 C 0.56836 0.67484 0.75064 0.0
H378 H 0.57879 0.65386 0.83146 0.0
C379 C 0.56191 0.65927 0.78202 0.0
C380 C 0.5844 0.66606 0.80739 0.0
H381 H 0.5394 0.64227 0.78732 0.0
H382 H 0.73002 0.72964 0.90235 0.0
H383 H 0.68766 0.70108 0.8622 0.0
H384 H 0.63435 0.72503 0.92455 0.0
H385 H 0.67686 0.75337 0.96546 0.0
H386 H 0.61076 0.68993 0.87253 0.0
H387 H 0.66039 0.70824 0.81946 0.0
H388 H 0.64283 0.7202 0.76447 0.0
H389 H 0.60346 0.70862 0.72026 0.0
C390 C 0.25968 0.91204 0.7276 0.0
C391 C 0.28727 0.91625 0.73966 0.0
C392 C 0.24645 0.92563 0.74528 0.0
C393 C 0.26059 0.94363 0.7754 0.0
C394 C 0.28892 0.94916 0.78618 0.0
C395 C 0.30209 0.93546 0.76862 0.0
C396 C 0.24572 0.95533 0.79763 0.0
C397 C 0.21613 0.94044 0.80202 0.0
C398 C 0.20265 0.94729 0.83189 0.0
C399 C 0.17997 0.92397 0.84985 0.0
C400 C 0.1705 0.92911 0.88191 0.0
C401 C 0.18318 0.95776 0.89615 0.0
H402 H 0.23068 -0.00535 0.83087 0.0
C403 C 0.20398 -0.01864 0.87661 0.0
C404 C 0.21375 -0.02383 0.84474 0.0
H405 H 0.21389 0.00371 0.88682 0.0
H406 H 0.24794 0.89773 0.70497 0.0
H407 H 0.22501 0.92164 0.7356 0.0
H408 H 0.30036 0.96314 0.80917 0.0
H409 H 0.32355 0.93941 0.77824 0.0
H410 H 0.25988 0.97418 0.81487 0.0
H411 H 0.20224 0.91987 0.78746 0.0
H412 H 0.17088 0.90155 0.84023 0.0
H413 H 0.15414 0.91054 0.89621 0.0
C414 C 0.35856 0.06819 0.25934 0.0
C415 C 0.38812 0.07456 0.25856 0.0
C416 C 0.33917 0.05412 0.23036 0.0
C417 C 0.34912 0.0462 0.20018 0.0
C418 C 0.37862 0.05255 0.19954 0.0
C419 C 0.39788 0.06638 0.22852 0.0
C420 C 0.32997 0.03312 0.16808 0.0
C421 C 0.30024 0.01643 0.16894 0.0
C422 C 0.28102 0.00546 0.13655 0.0
C423 C 0.25285 -0.01975 0.13817 0.0
C424 C 0.23315 0.97082 0.109 0.0
C425 C 0.24117 -0.01325 0.07783 0.0
H426 H 0.31061 0.0409 0.10297 0.0
C427 C 0.26967 0.01152 0.07583 0.0
C428 C 0.2894 0.02088 0.10494 0.0
H429 H 0.27637 0.02432 0.05221 0.0
H430 H 0.35053 0.07442 0.28209 0.0
H431 H 0.31677 0.05032 0.23131 0.0
H432 H 0.38684 0.04691 0.17647 0.0
H433 H 0.42061 0.07111 0.22709 0.0
H434 H 0.34093 0.03686 0.14304 0.0
H435 H 0.28951 0.01018 0.19416 0.0
H436 H 0.24585 0.96812 0.16229 0.0
H437 H 0.21126 0.95166 0.11135 0.0
C438 C 0.9478 0.23726 0.10451 0.0
C439 C -0.02657 0.23538 0.11036 0.0
C440 C 0.93817 0.24909 0.13061 0.0
C441 C 0.95415 0.25949 0.16304 0.0
C442 C -0.02036 0.25742 0.16895 0.0
C443 C -0.01067 0.24563 0.14278 0.0
C444 C 0.94392 0.27122 0.19174 0.0
C445 C 0.92777 0.2841 0.18548 0.0
C446 C 0.91553 0.29412 0.21378 0.0
C447 C 0.90762 0.31515 0.20592 0.0
C448 C 0.8941 0.3237 0.231 0.0
C449 C 0.88795 0.31115 0.2644 0.0
H450 H 0.91466 0.2649 0.2542 0.0
C451 C 0.89619 0.29037 0.27252 0.0
C452 C 0.90975 0.28182 0.24743 0.0
H453 H 0.89154 0.28019 0.29798 0.0
H454 H 0.93495 0.2293 0.07989 0.0
H455 H 0.91782 0.24936 0.12553 0.0
H456 H -0.00787 0.26499 0.19385 0.0
H457 H 0.0091 0.24433 0.14809 0.0
H458 H 0.95068 0.26988 0.2186 0.0
H459 H 0.92369 0.28805 0.15846 0.0
H460 H 0.91162 0.32478 0.18013 0.0
H461 H 0.88795 0.33975 0.22395 0.0
C462 C 0.65798 0.59918 0.23238 0.0
C463 C 0.66645 0.60016 0.26798 0.0
C464 C 0.67305 0.62393 0.2119 0.0
C465 C 0.69668 0.65017 0.22678 0.0
C466 C 0.7042 0.65156 0.26274 0.0
C467 C 0.68945 0.62667 0.28311 0.0
C468 C 0.71389 0.67615 0.20504 0.0
C469 C 0.72101 0.67335 0.1719 0.0
C470 C 0.73769 0.6983 0.14845 0.0
C471 C 0.75258 0.69457 0.12028 0.0
C472 C 0.76566 0.71603 0.09507 0.0
C473 C 0.76379 0.74158 0.09726 0.0
H474 H 0.72523 0.7279 0.17267 0.0
C475 C 0.74996 0.74595 0.12624 0.0
C476 C 0.73699 0.72449 0.15166 0.0
H477 H 0.74806 0.76537 0.12853 0.0
H478 H 0.64023 0.57911 0.22009 0.0
H479 H 0.66625 0.62249 0.1844 0.0
H480 H 0.72211 0.67165 0.27481 0.0
H481 H 0.69623 0.6281 0.31062 0.0
H482 H 0.72231 0.69773 0.21726 0.0
H483 H 0.71491 0.65166 0.16156 0.0
H484 H 0.75343 0.67461 0.11721 0.0
H485 H 0.77618 0.71199 0.07308 0.0
C486 C 0.02945 0.42426 0.58408 0.0
C487 C 0.0285 0.43303 0.61891 0.0
C488 C 0.00557 0.41625 0.56051 0.0
C489 C -0.01979 0.41672 0.57139 0.0
C490 C -0.02113 0.42469 0.60643 0.0
C491 C 0.003 0.43314 0.62997 0.0
C492 C 0.95462 0.40782 0.54669 0.0
C493 C 0.9585 0.41437 0.51238 0.0
C494 C 0.93394 0.40244 0.48554 0.0
C495 C 0.93828 0.41717 0.4538 0.0
C496 C 0.91741 0.40457 0.4259 0.0
C497 C 0.89202 0.37677 0.42911 0.0
H498 H 0.90405 0.36285 0.51308 0.0
C499 C 0.88707 0.36249 0.46131 0.0
C500 C 0.90784 0.37519 0.48932 0.0
H501 H 0.86768 0.34101 0.46449 0.0
H502 H 0.04876 0.42383 0.5749 0.0
H503 H 0.00684 0.40929 0.5339 0.0
H504 H 0.95934 0.4248 0.61543 0.0
H505 H 0.00165 0.43961 0.6568 0.0
H506 H 0.93241 0.39603 0.55706 0.0
H507 H -0.01914 0.42874 0.5033 0.0
H508 H 0.95831 0.43809 0.45022 0.0
H509 H 0.92183 0.4161 0.40136 0.0
C510 C 0.56582 0.54808 0.4113 0.0
C511 C 0.58952 0.54317 0.41804 0.0
C512 C 0.55566 0.55889 0.43798 0.0
C513 C 0.56893 0.56487 0.47201 0.0
C514 C 0.59189 0.559 0.47912 0.0
C515 C 0.60235 0.54851 0.45226 0.0
C516 C 0.55851 0.5763 0.50075 0.0
C517 C 0.54786 0.59441 0.49503 0.0
C518 C 0.53688 0.60507 0.52401 0.0
C519 C 0.5408 0.63334 0.5231 0.0
C520 C 0.5316 0.6441 0.55109 0.0
C521 C 0.51789 0.62647 0.58005 0.0
H522 H 0.5179 0.56487 0.55323 0.0
C523 C 0.51283 0.59773 0.58005 0.0
C524 C 0.52221 0.58714 0.55237 0.0
H525 H 0.50204 0.58346 0.60179 0.0
H526 H 0.55539 0.54406 0.38521 0.0
H527 H 0.53726 0.56228 0.43194 0.0
H528 H 0.60215 0.56309 0.50533 0.0
H529 H 0.62057 0.54482 0.45822 0.0
H530 H 0.56091 0.57061 0.52756 0.0
H531 H 0.54845 0.60272 0.46884 0.0
H532 H 0.55169 0.64736 0.5012 0.0
H533 H 0.53563 0.66628 0.55032 0.0
C534 C 0.34778 0.92406 0.57022 0.0
C535 C 0.36553 0.9217 0.59683 0.0
C536 C 0.36071 0.94585 0.54516 0.0
C537 C 0.39165 0.96542 0.54618 0.0
C538 C 0.40945 0.96193 0.57157 0.0
C539 C 0.39652 0.94051 0.5969 0.0
C540 C 0.40611 -0.01048 0.52104 0.0
C541 C 0.39294 0.0039 0.50819 0.0
C542 C 0.40746 0.02828 0.48324 0.0
C543 C 0.3977 0.04858 0.48065 0.0
C544 C 0.40961 0.07067 0.45582 0.0
C545 C 0.43131 0.07264 0.43285 0.0
H546 H 0.43729 0.01517 0.46109 0.0
C547 C 0.44153 0.05275 0.436 0.0
C548 C 0.42969 0.03077 0.46075 0.0
H549 H 0.45806 0.05352 0.41851 0.0
H550 H 0.32383 0.90983 0.56955 0.0
H551 H 0.34648 0.94741 0.52519 0.0
H552 H 0.43337 -0.02355 0.57255 0.0
H553 H 0.41076 0.93908 0.61701 0.0
H554 H 0.42906 -0.00314 0.51506 0.0
H555 H 0.3711 -0.00165 0.5172 0.0
H556 H 0.3805 0.04708 0.49753 0.0
H557 H 0.40113 0.08553 0.45383 0.0
loop_
_geom_bond_atom_site_label_1
_geom_bond_atom_site_label_2
_geom_bond_distance
_geom_bond_site_symmetry_2
_ccdc_geom_bond_type
C0 O1 1.306 . S
C0 O3 1.160 . S
O1 C0 1.306 . S
O1 Cd2 2.228 . S
Cd2 O1 2.228 . S
Cd2 O6 2.273 . S
Cd2 O10 2.277 1_455 S
O3 C0 1.160 . S
O3 Cd4 2.203 . S
Cd4 O3 2.203 . S
Cd4 O6 2.411 . S
Cd4 O7 2.333 1_455 S
Cd4 O8 2.352 1_554 S
Cd4 O12 2.277 1_454 S
Cd4 O13 2.356 1_554 S
C5 O10 1.209 . S
C5 O12 1.226 1_554 S
O6 Cd2 2.273 . S
O6 Cd4 2.411 . S
O6 C9 1.320 1_455 S
O7 Cd4 2.333 1_655 S
O7 C9 1.214 . S
O8 Cd4 2.352 1_556 S
O8 C11 1.258 . S
C9 O6 1.320 1_655 S
C9 O7 1.214 . S
O10 Cd2 2.277 1_655 S
O10 C5 1.209 . S
C11 O8 1.258 . S
C11 O13 1.282 . S
O12 Cd4 2.277 1_656 S
O12 C5 1.226 1_556 S
O13 Cd4 2.356 1_556 S
O13 C11 1.282 . S
C14 O15 1.306 1_554 S
C14 O17 1.160 . S
O15 C14 1.306 1_556 S
O15 Cd16 2.228 . S
Cd16 O15 2.228 . S
Cd16 O20 2.273 . S
Cd16 O24 2.277 . S
O17 C14 1.160 . S
O17 Cd18 2.203 . S
Cd18 O17 2.203 . S
Cd18 O20 2.411 1_554 S
Cd18 O21 2.333 . S
Cd18 O22 2.352 . S
Cd18 O26 2.277 . S
Cd18 O27 2.356 . S
C19 O24 1.209 1_554 S
C19 O26 1.226 . S
O20 Cd16 2.273 . S
O20 Cd18 2.411 1_556 S
O20 C23 1.320 . S
O21 Cd18 2.333 . S
O21 C23 1.214 1_554 S
O22 Cd18 2.352 . S
O22 C25 1.258 . S
C23 O20 1.320 . S
C23 O21 1.214 1_556 S
O24 Cd16 2.277 . S
O24 C19 1.209 1_556 S
C25 O22 1.258 . S
C25 O27 1.282 . S
O26 Cd18 2.277 . S
O26 C19 1.226 . S
O27 Cd18 2.356 . S
O27 C25 1.282 . S
C28 O29 1.306 . S
C28 O31 1.160 1_554 S
O29 C28 1.306 . S
O29 Cd30 2.228 1_565 S
Cd30 O29 2.228 1_545 S
Cd30 O34 2.273 . S
Cd30 O38 2.277 . S
O31 C28 1.160 1_556 S
O31 Cd32 2.203 1_566 S
Cd32 O31 2.203 1_544 S
Cd32 O34 2.411 . S
Cd32 O35 2.333 . S
Cd32 O36 2.352 1_544 S
Cd32 O40 2.277 1_554 S
Cd32 O41 2.356 1_554 S
C33 O38 1.209 . S
C33 O40 1.226 1_554 S
O34 Cd30 2.273 . S
O34 Cd32 2.411 . S
O34 C37 1.320 . S
O35 Cd32 2.333 . S
O35 C37 1.214 . S
O36 Cd32 2.352 1_566 S
O36 C39 1.258 . S
C37 O34 1.320 . S
C37 O35 1.214 . S
O38 Cd30 2.277 . S
O38 C33 1.209 . S
C39 O36 1.258 . S
C39 O41 1.282 1_565 S
O40 Cd32 2.277 1_556 S
O40 C33 1.226 1_556 S
O41 Cd32 2.356 1_556 S
O41 C39 1.282 1_545 S
C42 O43 1.306 . S
C42 O45 1.160 . S
O43 C42 1.306 . S
O43 Cd44 2.228 . S
Cd44 O43 2.228 . S
Cd44 O48 2.273 . S
Cd44 O52 2.277 . S
O45 C42 1.160 . S
O45 Cd46 2.203 . S
Cd46 O45 2.203 . S
Cd46 O48 2.411 . S
Cd46 O49 2.333 . S
Cd46 O50 2.352 . S
Cd46 O54 2.277 . S
Cd46 O55 2.356 . S
C47 O52 1.209 . S
C47 O54 1.226 . S
O48 Cd44 2.273 . S
O48 Cd46 2.411 . S
O48 C51 1.320 . S
O49 Cd46 2.333 . S
O49 C51 1.214 . S
O50 Cd46 2.352 . S
O50 C53 1.258 . S
C51 O48 1.320 . S
C51 O49 1.214 . S
O52 Cd44 2.277 . S
O52 C47 1.209 . S
C53 O50 1.258 . S
C53 O55 1.282 . S
O54 Cd46 2.277 . S
O54 C47 1.226 . S
O55 Cd46 2.356 . S
O55 C53 1.282 . S
C56 O57 1.306 . S
C56 O59 1.160 . S
O57 C56 1.306 . S
O57 Cd58 2.228 . S
Cd58 O57 2.228 . S
Cd58 O62 2.273 . S
Cd58 O66 2.277 . S
O59 C56 1.160 . S
O59 Cd60 2.203 . S
Cd60 O59 2.203 . S
Cd60 O62 2.411 . S
Cd60 O63 2.333 . S
Cd60 O64 2.352 . S
Cd60 O68 2.277 . S
Cd60 O69 2.356 . S
C61 O66 1.209 . S
C61 O68 1.226 . S
O62 Cd58 2.273 . S
O62 Cd60 2.411 . S
O62 C65 1.320 . S
O63 Cd60 2.333 . S
O63 C65 1.214 . S
O64 Cd60 2.352 . S
O64 C67 1.258 . S
C65 O62 1.320 . S
C65 O63 1.214 . S
O66 Cd58 2.277 . S
O66 C61 1.209 . S
C67 O64 1.258 . S
C67 O69 1.282 . S
O68 Cd60 2.277 . S
O68 C61 1.226 . S
O69 Cd60 2.356 . S
O69 C67 1.282 . S
C70 O71 1.306 . S
C70 O73 1.160 . S
O71 C70 1.306 . S
O71 Cd72 2.228 . S
Cd72 O71 2.228 . S
Cd72 O76 2.273 . S
Cd72 O80 2.277 . S
O73 C70 1.160 . S
O73 Cd74 2.203 . S
Cd74 O73 2.203 . S
Cd74 O76 2.411 . S
Cd74 O77 2.333 . S
Cd74 O78 2.352 . S
Cd74 O82 2.277 . S
Cd74 O83 2.356 . S
C75 O80 1.209 . S
C75 O82 1.226 . S
O76 Cd72 2.273 . S
O76 Cd74 2.411 . S
O76 C79 1.320 . S
O77 Cd74 2.333 . S
O77 C79 1.214 . S
O78 Cd74 2.352 . S
O78 C81 1.258 . S
C79 O76 1.320 . S
C79 O77 1.214 . S
O80 Cd72 2.277 . S
O80 C75 1.209 . S
C81 O78 1.258 . S
C81 O83 1.282 . S
O82 Cd74 2.277 . S
O82 C75 1.226 . S
O83 Cd74 2.356 . S
O83 C81 1.282 . S
C84 O85 1.306 . S
C84 O87 1.160 . S
O85 C84 1.306 . S
O85 Cd86 2.228 . S
Cd86 O85 2.228 . S
Cd86 O90 2.273 . S
Cd86 O94 2.277 . S
O87 C84 1.160 . S
O87 Cd88 2.203 . S
Cd88 O87 2.203 . S
Cd88 O90 2.411 . S
Cd88 O91 2.333 . S
Cd88 O92 2.352 . S
Cd88 O96 2.277 . S
Cd88 O97 2.356 . S
C89 O94 1.209 . S
C89 O96 1.226 . S
O90 Cd86 2.273 . S
O90 Cd88 2.411 . S
O90 C93 1.320 . S
O91 Cd88 2.333 . S
O91 C93 1.214 . S
O92 Cd88 2.352 . S
O92 C95 1.258 . S
C93 O90 1.320 . S
C93 O91 1.214 . S
O94 Cd86 2.277 . S
O94 C89 1.209 . S
C95 O92 1.258 . S
C95 O97 1.282 . S
O96 Cd88 2.277 . S
O96 C89 1.226 . S
O97 Cd88 2.356 . S
O97 C95 1.282 . S
C98 O99 1.306 . S
C98 O101 1.160 . S
O99 C98 1.306 . S
O99 Cd100 2.228 . S
Cd100 O99 2.228 . S
Cd100 O104 2.273 . S
Cd100 O108 2.277 . S
O101 C98 1.160 . S
O101 Cd102 2.203 . S
Cd102 O101 2.203 . S
Cd102 O104 2.411 . S
Cd102 O105 2.333 . S
Cd102 O106 2.352 . S
Cd102 O110 2.277 . S
Cd102 O111 2.356 . S
C103 O108 1.209 . S
C103 O110 1.226 . S
O104 Cd100 2.273 . S
O104 Cd102 2.411 . S
O104 C107 1.320 . S
O105 Cd102 2.333 . S
O105 C107 1.214 . S
O106 Cd102 2.352 . S
O106 C109 1.258 . S
C107 O104 1.320 . S
C107 O105 1.214 . S
O108 Cd100 2.277 . S
O108 C103 1.209 . S
C109 O106 1.258 . S
C109 O111 1.282 . S
O110 Cd102 2.277 . S
O110 C103 1.226 . S
O111 Cd102 2.356 . S
O111 C109 1.282 . S
C112 O113 1.306 . S
C112 O115 1.160 . S
O113 C112 1.306 . S
O113 Cd114 2.228 . S
Cd114 O113 2.228 . S
Cd114 O118 2.273 . S
Cd114 O122 2.277 . S
O115 C112 1.160 . S
O115 Cd116 2.203 . S
Cd116 O115 2.203 . S
Cd116 O118 2.411 . S
Cd116 O119 2.333 . S
Cd116 O120 2.352 . S
Cd116 O124 2.277 . S
Cd116 O125 2.356 . S
C117 O122 1.209 . S
C117 O124 1.226 . S
O118 Cd114 2.273 . S
O118 Cd116 2.411 . S
O118 C121 1.320 . S
O119 Cd116 2.333 . S
O119 C121 1.214 . S
O120 Cd116 2.352 . S
O120 C123 1.258 . S
C121 O118 1.320 . S
C121 O119 1.214 . S
O122 Cd114 2.277 . S
O122 C117 1.209 . S
C123 O120 1.258 . S
C123 O125 1.282 . S
O124 Cd116 2.277 . S
O124 C117 1.226 . S
O125 Cd116 2.356 . S
O125 C123 1.282 . S
C126 C127 1.386 1_556 S
C126 C128 1.386 . S
C126 H142 0.951 . S
C127 C126 1.386 1_554 S
C127 C131 1.383 . S
C128 C126 1.386 . S
C128 C129 1.386 1_556 S
C128 H143 0.963 . S
C129 C128 1.386 1_554 S
C129 C130 1.375 . S
C129 C132 1.481 . S
C130 C129 1.375 . S
C130 C131 1.367 . S
C130 H144 0.951 . S
C131 C127 1.383 . S
C131 C130 1.367 . S
C131 H145 0.950 . S
C132 C129 1.481 . S
C132 C133 1.297 . S
C132 H146 0.950 . S
C133 C132 1.297 . S
C133 C134 1.479 . S
C133 H147 0.948 . S
C134 C133 1.479 . S
C134 C135 1.375 1_554 S
C134 C140 1.404 . S
C135 C134 1.375 1_556 S
C135 C136 1.369 . S
C135 H148 0.950 . S
C136 C135 1.369 . S
C136 C137 1.392 1_556 S
C136 H149 0.951 . S
C137 C136 1.392 1_554 S
C137 C139 1.384 . S
H138 C140 0.949 . S
C139 C137 1.384 . S
C139 C140 1.385 . S
C139 H141 0.950 . S
C140 C134 1.404 . S
C140 H138 0.949 . S
C140 C139 1.385 . S
H141 C139 0.950 . S
H142 C126 0.951 . S
H143 C128 0.963 . S
H144 C130 0.951 . S
H145 C131 0.950 . S
H146 C132 0.950 . S
H147 C133 0.948 . S
H148 C135 0.950 . S
H149 C136 0.951 . S
C150 C151 1.386 . S
C150 C152 1.383 . S
C150 H166 0.951 . S
C151 C150 1.386 . S
C151 C155 1.383 . S
C152 C150 1.383 . S
C152 C153 1.402 . S
C152 H167 0.951 . S
C153 C152 1.402 . S
C153 C154 1.375 . S
C153 C156 1.481 1_565 S
C154 C153 1.375 . S
C154 C155 1.367 . S
C154 H168 0.951 . S
C155 C151 1.383 . S
C155 C154 1.367 . S
C155 H169 0.950 . S
C156 C153 1.481 1_545 S
C156 C157 1.297 . S
C156 H170 0.950 . S
C157 C156 1.297 . S
C157 C158 1.479 . S
C157 H171 0.950 . S
C158 C157 1.479 . S
C158 C159 1.375 . S
C158 C164 1.404 . S
C159 C158 1.375 . S
C159 C160 1.369 . S
C159 H172 0.950 . S
C160 C159 1.369 . S
C160 C161 1.392 . S
C160 H173 0.951 . S
C161 C160 1.392 . S
C161 C163 1.384 . S
H162 C164 0.949 . S
C163 C161 1.384 . S
C163 C164 1.385 . S
C163 H165 0.950 . S
C164 C158 1.404 . S
C164 H162 0.949 . S
C164 C163 1.385 . S
H165 C163 0.950 . S
H166 C150 0.951 . S
H167 C152 0.951 . S
H168 C154 0.951 . S
H169 C155 0.950 . S
H170 C156 0.950 . S
H171 C157 0.950 . S
H172 C159 0.950 . S
H173 C160 0.951 . S
C174 C175 1.386 . S
C174 C176 1.383 . S
C174 H190 0.951 . S
C175 C174 1.386 . S
C175 C179 1.383 1_554 S
C176 C174 1.383 . S
C176 C177 1.402 . S
C176 H191 0.951 . S
C177 C176 1.402 . S
C177 C178 1.375 1_554 S
C177 C180 1.484 1_655 S
C178 C177 1.375 1_556 S
C178 C179 1.367 . S
C178 H192 0.951 . S
C179 C175 1.383 1_556 S
C179 C178 1.367 . S
C179 H193 0.950 . S
C180 C177 1.484 1_455 S
C180 C181 1.307 . S
C180 H194 0.936 1_554 S
C181 C180 1.307 . S
C181 C182 1.479 . S
C181 H195 0.950 . S
C182 C181 1.479 . S
C182 C183 1.375 . S
C182 C188 1.404 1_554 S
C183 C182 1.375 . S
C183 C184 1.369 . S
C183 H196 0.950 . S
C184 C183 1.369 . S
C184 C185 1.392 . S
C184 H197 0.951 . S
C185 C184 1.392 . S
C185 C187 1.384 1_554 S
H186 C188 0.949 . S
C187 C185 1.384 1_556 S
C187 C188 1.385 . S
C187 H189 0.950 . S
C188 C182 1.404 1_556 S
C188 H186 0.949 . S
C188 C187 1.385 . S
H189 C187 0.950 . S
H190 C174 0.951 . S
H191 C176 0.951 . S
H192 C178 0.951 . S
H193 C179 0.950 . S
H194 C180 0.936 1_556 S
H195 C181 0.950 . S
H196 C183 0.950 . S
H197 C184 0.951 . S
C198 C199 1.386 . S
C198 C200 1.383 . S
C198 H214 0.951 . S
C199 C198 1.386 . S
C199 C203 1.383 . S
C200 C198 1.383 . S
C200 C201 1.402 . S
C200 H215 0.951 . S
C201 C200 1.402 . S
C201 C202 1.375 . S
C201 C204 1.481 . S
C202 C201 1.375 . S
C202 C203 1.367 . S
C202 H216 0.951 . S
C203 C199 1.383 . S
C203 C202 1.367 . S
C203 H217 0.950 . S
C204 C201 1.481 . S
C204 C205 1.297 . S
C204 H218 0.950 . S
C205 C204 1.297 . S
C205 C206 1.479 . S
C205 H219 0.950 . S
C206 C205 1.479 . S
C206 C207 1.375 . S
C206 C212 1.404 . S
C207 C206 1.375 . S
C207 C208 1.369 . S
C207 H220 0.950 . S
C208 C207 1.369 . S
C208 C209 1.392 . S
C208 H221 0.951 . S
C209 C208 1.392 . S
C209 C211 1.384 . S
H210 C212 0.949 . S
C211 C209 1.384 . S
C211 C212 1.385 . S
C211 H213 0.950 . S
C212 C206 1.404 . S
C212 H210 0.949 . S
C212 C211 1.385 . S
H213 C211 0.950 . S
H214 C198 0.951 . S
H215 C200 0.951 . S
H216 C202 0.951 . S
H217 C203 0.950 . S
H218 C204 0.950 . S
H219 C205 0.950 . S
H220 C207 0.950 . S
H221 C208 0.951 . S
C222 C223 1.386 . S
C222 C224 1.383 . S
C222 H238 0.951 . S
C223 C222 1.386 . S
C223 C227 1.383 . S
C224 C222 1.383 . S
C224 C225 1.402 . S
C224 H239 0.951 . S
C225 C224 1.402 . S
C225 C226 1.375 . S
C225 C228 1.481 . S
C226 C225 1.375 . S
C226 C227 1.367 . S
C226 H240 0.951 . S
C227 C223 1.383 . S
C227 C226 1.367 . S
C227 H241 0.950 . S
C228 C225 1.481 . S
C228 C229 1.297 . S
C228 H242 0.950 . S
C229 C228 1.297 . S
C229 C230 1.479 . S
C229 H243 0.950 . S
C230 C229 1.479 . S
C230 C231 1.375 . S
C230 C236 1.404 . S
C231 C230 1.375 . S
C231 C232 1.369 . S
C231 H244 0.950 . S
C232 C231 1.369 . S
C232 C233 1.392 . S
C232 H245 0.951 . S
C233 C232 1.392 . S
C233 C235 1.384 . S
H234 C236 0.949 . S
C235 C233 1.384 . S
C235 C236 1.385 . S
C235 H237 0.950 . S
C236 C230 1.404 . S
C236 H234 0.949 . S
C236 C235 1.385 . S
H237 C235 0.950 . S
H238 C222 0.951 . S
H239 C224 0.951 . S
H240 C226 0.951 . S
H241 C227 0.950 . S
H242 C228 0.950 . S
H243 C229 0.950 . S
H244 C231 0.950 . S
H245 C232 0.951 . S
C246 C247 1.386 . S
C246 C248 1.383 . S
C246 H262 0.951 . S
C247 C246 1.386 . S
C247 C251 1.383 . S
C248 C246 1.383 . S
C248 C249 1.402 . S
C248 H263 0.951 . S
C249 C248 1.402 . S
C249 C250 1.375 . S
C249 C252 1.481 . S
C250 C249 1.375 . S
C250 C251 1.367 . S
C250 H264 0.951 . S
C251 C247 1.383 . S
C251 C250 1.367 . S
C251 H265 0.950 . S
C252 C249 1.481 . S
C252 C253 1.297 . S
C252 H266 0.950 . S
C253 C252 1.297 . S
C253 C254 1.479 . S
C253 H267 0.950 . S
C254 C253 1.479 . S
C254 C255 1.375 . S
C254 C260 1.404 . S
C255 C254 1.375 . S
C255 C256 1.369 . S
C255 H268 0.950 . S
C256 C255 1.369 . S
C256 C257 1.392 . S
C256 H269 0.951 . S
C257 C256 1.392 . S
C257 C259 1.384 . S
H258 C260 0.949 . S
C259 C257 1.384 . S
C259 C260 1.385 . S
C259 H261 0.950 . S
C260 C254 1.404 . S
C260 H258 0.949 . S
C260 C259 1.385 . S
H261 C259 0.950 . S
H262 C246 0.951 . S
H263 C248 0.951 . S
H264 C250 0.951 . S
H265 C251 0.950 . S
H266 C252 0.950 . S
H267 C253 0.950 . S
H268 C255 0.950 . S
H269 C256 0.951 . S
C270 C271 1.386 . S
C270 C272 1.383 . S
C270 H286 0.951 . S
C271 C270 1.386 . S
C271 C275 1.383 . S
C272 C270 1.383 . S
C272 C273 1.402 . S
C272 H287 0.951 . S
C273 C272 1.402 . S
C273 C274 1.375 . S
C273 C276 1.481 . S
C274 C273 1.375 . S
C274 C275 1.367 . S
C274 H288 0.951 . S
C275 C271 1.383 . S
C275 C274 1.367 . S
C275 H289 0.950 . S
C276 C273 1.481 . S
C276 C277 1.297 . S
C276 H290 0.950 . S
C277 C276 1.297 . S
C277 C278 1.479 . S
C277 H291 0.950 . S
C278 C277 1.479 . S
C278 C279 1.375 . S
C278 C284 1.404 . S
C279 C278 1.375 . S
C279 C280 1.369 . S
C279 H292 0.950 . S
C280 C279 1.369 . S
C280 C281 1.392 . S
C280 H293 0.951 . S
C281 C280 1.392 . S
C281 C283 1.384 . S
H282 C284 0.949 . S
C283 C281 1.384 . S
C283 C284 1.385 . S
C283 H285 0.950 . S
C284 C278 1.404 . S
C284 H282 0.949 . S
C284 C283 1.385 . S
H285 C283 0.950 . S
H286 C270 0.951 . S
H287 C272 0.951 . S
H288 C274 0.951 . S
H289 C275 0.950 . S
H290 C276 0.950 . S
H291 C277 0.950 . S
H292 C279 0.950 . S
H293 C280 0.951 . S
C294 C295 1.386 . S
C294 C296 1.383 . S
C294 H310 0.951 . S
C295 C294 1.386 . S
C295 C299 1.383 . S
C296 C294 1.383 . S
C296 C297 1.402 . S
C296 H311 0.951 . S
C297 C296 1.402 . S
C297 C298 1.375 . S
C297 C300 1.481 . S
C298 C297 1.375 . S
C298 C299 1.367 . S
C298 H312 0.951 . S
C299 C295 1.383 . S
C299 C298 1.367 . S
C299 H313 0.950 . S
C300 C297 1.481 . S
C300 C301 1.297 . S
C300 H314 0.950 . S
C301 C300 1.297 . S
C301 C302 1.479 . S
C301 H315 0.950 . S
C302 C301 1.479 . S
C302 C303 1.375 . S
C302 C308 1.404 . S
C303 C302 1.375 . S
C303 C304 1.369 . S
C303 H316 0.950 . S
C304 C303 1.369 . S
C304 C305 1.392 . S
C304 H317 0.951 . S
C305 C304 1.392 . S
C305 C307 1.384 . S
H306 C308 0.949 . S
C307 C305 1.384 . S
C307 C308 1.385 . S
C307 H309 0.950 . S
C308 C302 1.404 . S
C308 H306 0.949 . S
C308 C307 1.385 . S
H309 C307 0.950 . S
H310 C294 0.951 . S
H311 C296 0.951 . S
H312 C298 0.951 . S
H313 C299 0.950 . S
H314 C300 0.950 . S
H315 C301 0.950 . S
H316 C303 0.950 . S
H317 C304 0.951 . S
C318 C319 1.386 . S
C318 C320 1.383 . S
C318 H334 0.951 . S
C319 C318 1.386 . S
C319 C323 1.383 . S
C320 C318 1.383 . S
C320 C321 1.402 . S
C320 H335 0.951 . S
C321 C320 1.402 . S
C321 C322 1.375 . S
C321 C324 1.481 . S
C322 C321 1.375 . S
C322 C323 1.367 . S
C322 H336 0.951 . S
C323 C319 1.383 . S
C323 C322 1.367 . S
C323 H337 0.950 . S
C324 C321 1.481 . S
C324 C325 1.297 . S
C324 H338 0.950 . S
C325 C324 1.297 . S
C325 C326 1.479 . S
C325 H339 0.950 . S
C326 C325 1.479 . S
C326 C327 1.375 . S
C326 C332 1.404 . S
C327 C326 1.375 . S
C327 C328 1.369 . S
C327 H340 0.950 . S
C328 C327 1.369 . S
C328 C329 1.392 . S
C328 H341 0.951 . S
C329 C328 1.392 . S
C329 C331 1.384 . S
H330 C332 0.949 . S
C331 C329 1.384 . S
C331 C332 1.385 . S
C331 H333 0.950 . S
C332 C326 1.404 . S
C332 H330 0.949 . S
C332 C331 1.385 . S
H333 C331 0.950 . S
H334 C318 0.951 . S
H335 C320 0.951 . S
H336 C322 0.951 . S
H337 C323 0.950 . S
H338 C324 0.950 . S
H339 C325 0.950 . S
H340 C327 0.950 . S
H341 C328 0.951 . S
C342 C343 1.386 . S
C342 C344 1.383 . S
C342 H358 0.951 . S
C343 C342 1.386 . S
C343 C347 1.383 . S
C344 C342 1.383 . S
C344 C345 1.402 . S
C344 H359 0.951 . S
C345 C344 1.402 . S
C345 C346 1.375 . S
C345 C348 1.481 . S
C346 C345 1.375 . S
C346 C347 1.367 . S
C346 H360 0.951 . S
C347 C343 1.383 . S
C347 C346 1.367 . S
C347 H361 0.950 . S
C348 C345 1.481 . S
C348 C349 1.297 . S
C348 H362 0.950 . S
C349 C348 1.297 . S
C349 C350 1.479 . S
C349 H363 0.950 . S
C350 C349 1.479 . S
C350 C351 1.375 . S
C350 C356 1.404 . S
C351 C350 1.375 . S
C351 C352 1.369 . S
C351 H364 0.950 . S
C352 C351 1.369 . S
C352 C353 1.392 . S
C352 H365 0.951 . S
C353 C352 1.392 . S
C353 C355 1.384 . S
H354 C356 0.949 . S
C355 C353 1.384 . S
C355 C356 1.385 . S
C355 H357 0.950 . S
C356 C350 1.404 . S
C356 H354 0.949 . S
C356 C355 1.385 . S
H357 C355 0.950 . S
H358 C342 0.951 . S
H359 C344 0.951 . S
H360 C346 0.951 . S
H361 C347 0.950 . S
H362 C348 0.950 . S
H363 C349 0.950 . S
H364 C351 0.950 . S
H365 C352 0.951 . S
C366 C367 1.386 . S
C366 C368 1.383 . S
C366 H382 0.951 . S
C367 C366 1.386 . S
C367 C371 1.383 . S
C368 C366 1.383 . S
C368 C369 1.402 . S
C368 H383 0.951 . S
C369 C368 1.402 . S
C369 C370 1.375 . S
C369 C372 1.481 . S
C370 C369 1.375 . S
C370 C371 1.367 . S
C370 H384 0.951 . S
C371 C367 1.383 . S
C371 C370 1.367 . S
C371 H385 0.950 . S
C372 C369 1.481 . S
C372 C373 1.297 . S
C372 H386 0.950 . S
C373 C372 1.297 . S
C373 C374 1.479 . S
C373 H387 0.950 . S
C374 C373 1.479 . S
C374 C375 1.375 . S
C374 C380 1.404 . S
C375 C374 1.375 . S
C375 C376 1.369 . S
C375 H388 0.950 . S
C376 C375 1.369 . S
C376 C377 1.392 . S
C376 H389 0.951 . S
C377 C376 1.392 . S
C377 C379 1.384 . S
H378 C380 0.949 . S
C379 C377 1.384 . S
C379 C380 1.385 . S
C379 H381 0.950 . S
C380 C374 1.404 . S
C380 H378 0.949 . S
C380 C379 1.385 . S
H381 C379 0.950 . S
H382 C366 0.951 . S
H383 C368 0.951 . S
H384 C370 0.951 . S
H385 C371 0.950 . S
H386 C372 0.950 . S
H387 C373 0.950 . S
H388 C375 0.950 . S
H389 C376 0.951 . S
C390 C391 1.386 . S
C390 C392 1.383 . S
C390 H406 0.951 . S
C391 C390 1.386 . S
C391 C395 1.383 . S
C392 C390 1.383 . S
C392 C393 1.402 . S
C392 H407 0.951 . S
C393 C392 1.402 . S
C393 C394 1.375 . S
C393 C396 1.481 . S
C394 C393 1.375 . S
C394 C395 1.367 . S
C394 H408 0.951 . S
C395 C391 1.383 . S
C395 C394 1.367 . S
C395 H409 0.950 . S
C396 C393 1.481 . S
C396 C397 1.297 . S
C396 H410 0.950 . S
C397 C396 1.297 . S
C397 C398 1.479 . S
C397 H411 0.950 . S
C398 C397 1.479 . S
C398 C399 1.375 . S
C398 C404 1.404 . S
C399 C398 1.375 . S
C399 C400 1.369 . S
C399 H412 0.950 . S
C400 C399 1.369 . S
C400 C401 1.392 . S
C400 H413 0.951 . S
C401 C400 1.392 . S
C401 C403 1.384 1_565 S
H402 C404 0.949 1_545 S
C403 C401 1.384 1_545 S
C403 C404 1.385 1_545 S
C403 H405 0.950 . S
C404 C398 1.404 . S
C404 H402 0.949 1_565 S
C404 C403 1.385 1_565 S
H405 C403 0.950 . S
H406 C390 0.951 . S
H407 C392 0.951 . S
H408 C394 0.951 . S
H409 C395 0.950 . S
H410 C396 0.950 . S
H411 C397 0.950 . S
H412 C399 0.950 . S
H413 C400 0.951 . S
C414 C415 1.386 . S
C414 C416 1.383 . S
C414 H430 0.951 . S
C415 C414 1.386 . S
C415 C419 1.383 . S
C416 C414 1.383 . S
C416 C417 1.402 . S
C416 H431 0.951 . S
C417 C416 1.402 . S
C417 C418 1.375 . S
C417 C420 1.481 . S
C418 C417 1.375 . S
C418 C419 1.367 . S
C418 H432 0.951 . S
C419 C415 1.383 . S
C419 C418 1.367 . S
C419 H433 0.950 . S
C420 C417 1.481 . S
C420 C421 1.297 . S
C420 H434 0.950 . S
C421 C420 1.297 . S
C421 C422 1.479 . S
C421 H435 0.950 . S
C422 C421 1.479 . S
C422 C423 1.375 . S
C422 C428 1.404 . S
C423 C422 1.375 . S
C423 C424 1.369 . S
C423 H436 0.950 . S
C424 C423 1.369 . S
C424 C425 1.392 . S
C424 H437 0.951 . S
C425 C424 1.392 . S
C425 C427 1.384 . S
H426 C428 0.949 . S
C427 C425 1.384 . S
C427 C428 1.385 . S
C427 H429 0.950 . S
C428 C422 1.404 . S
C428 H426 0.949 . S
C428 C427 1.385 . S
H429 C427 0.950 . S
H430 C414 0.951 . S
H431 C416 0.951 . S
H432 C418 0.951 . S
H433 C419 0.950 . S
H434 C420 0.950 . S
H435 C421 0.950 . S
H436 C423 0.950 . S
H437 C424 0.951 . S
C438 C439 1.386 . S
C438 C440 1.383 . S
C438 H454 0.951 . S
C439 C438 1.386 . S
C439 C443 1.383 1_655 S
C440 C438 1.383 . S
C440 C441 1.402 . S
C440 H455 0.951 . S
C441 C440 1.402 . S
C441 C442 1.375 . S
C441 C444 1.481 . S
C442 C441 1.375 . S
C442 C443 1.367 1_655 S
C442 H456 0.951 1_655 S
C443 C439 1.383 1_455 S
C443 C442 1.367 1_455 S
C443 H457 0.950 . S
C444 C441 1.481 . S
C444 C445 1.297 . S
C444 H458 0.950 . S
C445 C444 1.297 . S
C445 C446 1.479 . S
C445 H459 0.950 . S
C446 C445 1.479 . S
C446 C447 1.375 . S
C446 C452 1.404 . S
C447 C446 1.375 . S
C447 C448 1.369 . S
C447 H460 0.950 . S
C448 C447 1.369 . S
C448 C449 1.392 . S
C448 H461 0.951 . S
C449 C448 1.392 . S
C449 C451 1.384 . S
H450 C452 0.949 . S
C451 C449 1.384 . S
C451 C452 1.385 . S
C451 H453 0.950 . S
C452 C446 1.404 . S
C452 H450 0.949 . S
C452 C451 1.385 . S
H453 C451 0.950 . S
H454 C438 0.951 . S
H455 C440 0.951 . S
H456 C442 0.951 1_455 S
H457 C443 0.950 . S
H458 C444 0.950 . S
H459 C445 0.950 . S
H460 C447 0.950 . S
H461 C448 0.951 . S
C462 C463 1.386 . S
C462 C464 1.383 . S
C462 H478 0.951 . S
C463 C462 1.386 . S
C463 C467 1.383 . S
C464 C462 1.383 . S
C464 C465 1.402 . S
C464 H479 0.951 . S
C465 C464 1.402 . S
C465 C466 1.375 . S
C465 C468 1.481 . S
C466 C465 1.375 . S
C466 C467 1.367 . S
C466 H480 0.951 . S
C467 C463 1.383 . S
C467 C466 1.367 . S
C467 H481 0.950 . S
C468 C465 1.481 . S
C468 C469 1.297 . S
C468 H482 0.950 . S
C469 C468 1.297 . S
C469 C470 1.479 . S
C469 H483 0.950 . S
C470 C469 1.479 . S
C470 C471 1.375 . S
C470 C476 1.404 . S
C471 C470 1.375 . S
C471 C472 1.369 . S
C471 H484 0.950 . S
C472 C471 1.369 . S
C472 C473 1.392 . S
C472 H485 0.951 . S
C473 C472 1.392 . S
C473 C475 1.384 . S
H474 C476 0.949 . S
C475 C473 1.384 . S
C475 C476 1.385 . S
C475 H477 0.950 . S
C476 C470 1.404 . S
C476 H474 0.949 . S
C476 C475 1.385 . S
H477 C475 0.950 . S
H478 C462 0.951 . S
H479 C464 0.951 . S
H480 C466 0.951 . S
H481 C467 0.950 . S
H482 C468 0.950 . S
H483 C469 0.950 . S
H484 C471 0.950 . S
H485 C472 0.951 . S
C486 C487 1.386 . S
C486 C488 1.383 . S
C486 H502 0.951 . S
C487 C486 1.386 . S
C487 C491 1.383 . S
C488 C486 1.383 . S
C488 C489 1.402 . S
C488 H503 0.951 . S
C489 C488 1.402 . S
C489 C490 1.375 . S
C489 C492 1.481 . S
C490 C489 1.375 . S
C490 C491 1.367 . S
C490 H504 0.951 . S
C491 C487 1.383 . S
C491 C490 1.367 . S
C491 H505 0.950 . S
C492 C489 1.481 . S
C492 C493 1.297 . S
C492 H506 0.950 . S
C493 C492 1.297 . S
C493 C494 1.479 1_455 S
C493 H507 0.950 . S
C494 C493 1.479 1_655 S
C494 C495 1.375 . S
C494 C500 1.404 . S
C495 C494 1.375 . S
C495 C496 1.369 . S
C495 H508 0.950 1_655 S
C496 C495 1.369 . S
C496 C497 1.392 . S
C496 H509 0.951 . S
C497 C496 1.392 . S
C497 C499 1.384 . S
H498 C500 0.949 . S
C499 C497 1.384 . S
C499 C500 1.385 . S
C499 H501 0.950 . S
C500 C494 1.404 . S
C500 H498 0.949 . S
C500 C499 1.385 . S
H501 C499 0.950 . S
H502 C486 0.951 . S
H503 C488 0.951 . S
H504 C490 0.951 . S
H505 C491 0.950 . S
H506 C492 0.950 . S
H507 C493 0.950 . S
H508 C495 0.950 1_455 S
H509 C496 0.951 . S
C510 C511 1.386 . S
C510 C512 1.383 . S
C510 H526 0.951 . S
C511 C510 1.386 . S
C511 C515 1.383 . S
C512 C510 1.383 . S
C512 C513 1.402 . S
C512 H527 0.951 . S
C513 C512 1.402 . S
C513 C514 1.375 . S
C513 C516 1.481 . S
C514 C513 1.375 . S
C514 C515 1.367 . S
C514 H528 0.951 . S
C515 C511 1.383 . S
C515 C514 1.367 . S
C515 H529 0.950 . S
C516 C513 1.481 . S
C516 C517 1.297 . S
C516 H530 0.950 . S
C517 C516 1.297 . S
C517 C518 1.479 . S
C517 H531 0.950 . S
C518 C517 1.479 . S
C518 C519 1.375 . S
C518 C524 1.404 . S
C519 C518 1.375 . S
C519 C520 1.369 . S
C519 H532 0.950 . S
C520 C519 1.369 . S
C520 C521 1.392 . S
C520 H533 0.951 . S
C521 C520 1.392 . S
C521 C523 1.384 . S
H522 C524 0.949 . S
C523 C521 1.384 . S
C523 C524 1.385 . S
C523 H525 0.950 . S
C524 C518 1.404 . S
C524 H522 0.949 . S
C524 C523 1.385 . S
H525 C523 0.950 . S
H526 C510 0.951 . S
H527 C512 0.951 . S
H528 C514 0.951 . S
H529 C515 0.950 . S
H530 C516 0.950 . S
H531 C517 0.950 . S
H532 C519 0.950 . S
H533 C520 0.951 . S
C534 C535 1.386 . S
C534 C536 1.383 . S
C534 H550 0.951 . S
C535 C534 1.386 . S
C535 C539 1.383 . S
C536 C534 1.383 . S
C536 C537 1.402 . S
C536 H551 0.951 . S
C537 C536 1.402 . S
C537 C538 1.375 . S
C537 C540 1.481 1_565 S
C538 C537 1.375 . S
C538 C539 1.367 . S
C538 H552 0.951 1_565 S
C539 C535 1.383 . S
C539 C538 1.367 . S
C539 H553 0.950 . S
C540 C537 1.481 1_545 S
C540 C541 1.297 . S
C540 H554 0.950 . S
C541 C540 1.297 . S
C541 C542 1.479 . S
C541 H555 0.950 . S
C542 C541 1.479 . S
C542 C543 1.375 . S
C542 C548 1.404 . S
C543 C542 1.375 . S
C543 C544 1.369 . S
C543 H556 0.950 . S
C544 C543 1.369 . S
C544 C545 1.392 . S
C544 H557 0.951 . S
C545 C544 1.392 . S
C545 C547 1.384 . S
H546 C548 0.949 . S
C547 C545 1.384 . S
C547 C548 1.385 . S
C547 H549 0.950 . S
C548 C542 1.404 . S
C548 H546 0.949 . S
C548 C547 1.385 . S
H549 C547 0.950 . S
H550 C534 0.951 . S
H551 C536 0.951 . S
H552 C538 0.951 1_545 S
H553 C539 0.950 . S
H554 C540 0.950 . S
H555 C541 0.950 . S
H556 C543 0.950 . S
H557 C544 0.951 . S
C127 C33 0.939 . S
C137 C0 0.884 . S
C151 C19 0.960 . S
C161 C5 0.966 . S
C175 C14 0.944 . S
C185 C28 0.997 . S
C199 C70 0.893 . S
C209 C47 0.928 . S
C223 C61 0.923 . S
C233 C42 0.961 . S
C247 C56 0.976 . S
C257 C75 1.001 . S
C271 C84 0.906 . S
C281 C117 0.951 . S
C295 C89 0.885 . S
C305 C103 0.853 . S
C319 C98 0.896 . S
C329 C112 0.822 . S
C343 C11 1.363 . S
C353 C109 1.347 . S
C367 C23 1.395 . S
C377 C121 1.394 . S
C391 C93 1.380 . S
C401 C39 1.375 . S
C415 C65 1.360 . S
C425 C37 1.358 . S
C439 C9 1.416 . S
C449 C79 1.390 . S
C463 C51 1.376 . S
C473 C25 1.378 . S
C487 C107 1.370 . S
C497 C81 1.360 . S
C511 C53 1.360 . S
C521 C123 1.346 . S
C535 C95 1.407 . S
C545 C67 1.382 . S
