# Generated by pormake.
# Topology snk, (6)-cn, num edge types: 1
# Building blocks:
#     Node 0, Type 0, BuildingBlock: KUMBOL_clean_sbu_1, # of connection points: 6
#     Node 1, Type 0, BuildingBlock: KUMBOL_clean_sbu_1, # of connection points: 6
#     Node 2, Type 0, BuildingBlock: KUMBOL_clean_sbu_1, # of connection points: 6
#     Node 3, Type 0, BuildingBlock: KUMBOL_clean_sbu_1, # of connection points: 6
#     Node 4, Type 0, BuildingBlock: KUMBOL_clean_sbu_1, # of connection points: 6
#     Node 5, Type 0, BuildingBlock: KUMBOL_clean_sbu_1, # of connection points: 6
#     Node 6, Type 0, BuildingBlock: KUMBOL_clean_sbu_1, # of connection points: 6
#     Node 7, Type 0, BuildingBlock: KUMBOL_clean_sbu_1, # of connection points: 6
#     Edge 8, Type (0, 0), BuildingBlock: MIFKUJ_clean_linker_0, # of connection points: 2
#     Edge 9, Type (0, 0), BuildingBlock: MIFKUJ_clean_linker_0, # of connection points: 2
#     Edge 10, Type (0, 0), BuildingBlock: MIFKUJ_clean_linker_0, # of connection points: 2
#     Edge 11, Type (0, 0), BuildingBlock: MIFKUJ_clean_linker_0, # of connection points: 2
#     Edge 12, Type (0, 0), BuildingBlock: MIFKUJ_clean_linker_0, # of connection points: 2
#     Edge 13, Type (0, 0), BuildingBlock: MIFKUJ_clean_linker_0, # of connection points: 2
#     Edge 14, Type (0, 0), BuildingBlock: MIFKUJ_clean_linker_0, # of connection points: 2
#     Edge 15, Type (0, 0), BuildingBlock: MIFKUJ_clean_linker_0, # of connection points: 2
#     Edge 16, Type (0, 0), BuildingBlock: MIFKUJ_clean_linker_0, # of connection points: 2
#     Edge 17, Type (0, 0), BuildingBlock: MIFKUJ_clean_linker_0, # of connection points: 2
#     Edge 18, Type (0, 0), BuildingBlock: MIFKUJ_clean_linker_0, # of connection points: 2
#     Edge 19, Type (0, 0), BuildingBlock: MIFKUJ_clean_linker_0, # of connection points: 2
#     Edge 20, Type (0, 0), BuildingBlock: MIFKUJ_clean_linker_0, # of connection points: 2
#     Edge 21, Type (0, 0), BuildingBlock: MIFKUJ_clean_linker_0, # of connection points: 2
#     Edge 22, Type (0, 0), BuildingBlock: MIFKUJ_clean_linker_0, # of connection points: 2
#     Edge 23, Type (0, 0), BuildingBlock: MIFKUJ_clean_linker_0, # of connection points: 2
#     Edge 24, Type (0, 0), BuildingBlock: MIFKUJ_clean_linker_0, # of connection points: 2
#     Edge 25, Type (0, 0), BuildingBlock: MIFKUJ_clean_linker_0, # of connection points: 2
#     Edge 26, Type (0, 0), BuildingBlock: MIFKUJ_clean_linker_0, # of connection points: 2
#     Edge 27, Type (0, 0), BuildingBlock: MIFKUJ_clean_linker_0, # of connection points: 2
#     Edge 28, Type (0, 0), BuildingBlock: MIFKUJ_clean_linker_0, # of connection points: 2
#     Edge 29, Type (0, 0), BuildingBlock: MIFKUJ_clean_linker_0, # of connection points: 2
#     Edge 30, Type (0, 0), BuildingBlock: MIFKUJ_clean_linker_0, # of connection points: 2
#     Edge 31, Type (0, 0), BuildingBlock: MIFKUJ_clean_linker_0, # of connection points: 2
# Relax obj value: 0.009
# Max RMSD: 0.071
# Mean RMSD: 0.070
data_MOF--net-snk--node1-KUMBOL_clean_sbu_1--edge1-MIFKUJ_clean_linker_0
_symmetry_space_group_name_H-M    P1
_symmetry_Int_Tables_number       1
_symmetry_cell_setting            triclinic
loop_
_symmetry_equiv_pos_as_xyz
'x, y, z'
_cell_length_a     51.022325
_cell_length_b     51.043908
_cell_length_c     29.657163
_cell_angle_alpha  90.55708
_cell_angle_beta   90.08552
_cell_angle_gamma 89.881987
loop_
_atom_site_label
_atom_site_type_symbol
_atom_site_fract_x
_atom_site_fract_y
_atom_site_fract_z
_atom_type_partial_charge
C0 C 0.98937 0.92327 0.44885 0.0
C1 C 0.94195 0.91908 0.44883 0.0
C2 C 0.96464 0.93479 0.44986 0.0
C3 C 0.94445 0.89168 0.44684 0.0
C4 C 0.99195 0.89579 0.44628 0.0
C5 C 0.96937 0.88008 0.44547 0.0
N6 N 0.01088 0.93892 0.45055 0.0
C7 C 0.03549 0.92853 0.44823 0.0
C8 C 0.01717 0.88495 0.44441 0.0
C9 C 0.039 0.90144 0.44494 0.0
Gd10 Gd 0.00325 0.02473 0.57216 0.0
Gd11 Gd 0.00288 0.98399 0.45574 0.0
N12 N 0.96284 0.96136 0.45334 0.0
C13 C 0.91742 0.93141 0.44999 0.0
C14 C 0.93902 0.97351 0.45238 0.0
C15 C 0.91597 0.95874 0.45132 0.0
H16 H 0.93768 0.99453 0.45246 0.0
H17 H 0.89709 0.96844 0.45137 0.0
H18 H 0.06748 0.00901 0.58226 0.0
H19 H 0.05241 0.9412 0.44775 0.0
H20 H 0.10984 0.03185 0.58606 0.0
H21 H 0.89952 0.92003 0.44937 0.0
H22 H 0.92724 0.87929 0.44623 0.0
H23 H 0.95739 0.07174 0.57155 0.0
H24 H 0.01999 0.86394 0.44204 0.0
H25 H 0.05854 0.8934 0.44233 0.0
H26 H 0.08707 0.12295 0.58149 0.0
H27 H 0.97097 0.85892 0.4437 0.0
H28 H 0.99608 0.14598 0.5732 0.0
H29 H 0.95519 0.11993 0.57124 0.0
N30 N 0.99893 0.07037 0.57189 0.0
C31 C 0.02163 0.08419 0.57489 0.0
C32 C 0.97529 0.08286 0.57099 0.0
C33 C 0.99715 0.12478 0.57298 0.0
C34 C 0.97403 0.11019 0.57146 0.0
C35 C 0.02134 0.11183 0.575 0.0
H36 H 0.04526 0.14685 0.57719 0.0
N37 N 0.04505 0.04391 0.57591 0.0
C38 C 0.04531 0.07063 0.57733 0.0
C39 C 0.09254 0.0703 0.5827 0.0
C40 C 0.06914 0.08449 0.57996 0.0
C41 C 0.06775 0.03001 0.58025 0.0
C42 C 0.09184 0.04296 0.58309 0.0
O43 O 0.98449 0.96502 0.51759 0.0
O44 O 0.96806 0.99821 0.5627 0.0
O45 O 0.01402 0.01001 0.63848 0.0
O46 O 0.98706 0.04239 0.63282 0.0
O47 O 0.98142 0.02296 0.46016 0.0
O48 O 0.96555 0.02868 0.53249 0.0
O49 O 0.02078 0.04306 0.50893 0.0
O50 O 0.03869 0.00909 0.46807 0.0
O51 O 0.98973 1.0007 0.39232 0.0
O52 O 0.01912 0.97032 0.3919 0.0
O53 O 0.02387 0.98516 0.56952 0.0
O54 O 0.03979 0.97978 0.49715 0.0
C55 C 0.96866 0.9735 0.54968 0.0
C56 C 0.96426 0.03296 0.48875 0.0
C57 C 0.98205 0.01511 0.69565 0.0
C58 C 0.97449 0.00546 0.77531 0.0
C59 C 0.94073 0.99641 0.71912 0.0
C60 C 0.95703 0.00552 0.68511 0.0
C61 C 0.94931 0.99646 0.76385 0.0
C62 C 0.99078 0.01506 0.7408 0.0
C63 C 0.9986 0.0262 0.65999 0.0
C64 C 0.06891 0.11201 0.57973 0.0
C65 C 0.04509 0.12563 0.57724 0.0
H66 H 0.11116 0.08031 0.58529 0.0
C67 C 0.03829 0.03391 0.48021 0.0
C68 C 0.03978 0.97376 0.54024 0.0
C69 C 0.02084 0.00132 0.33344 0.0
C70 C 0.02802 0.01382 0.25469 0.0
C71 C 0.05687 0.03002 0.31435 0.0
C72 C 0.0425 0.0164 0.3464 0.0
C73 C 0.04981 0.0287 0.2689 0.0
C74 C 0.01359 1.00005 0.28755 0.0
C75 C 0.00589 0.98688 0.36773 0.0
H76 H 0.92124 0.98956 0.71076 0.0
H77 H 0.94994 0.00558 0.6507 0.0
H78 H 0.93611 0.98991 0.78983 0.0
H79 H 0.01017 0.02238 0.74895 0.0
H80 H 0.07368 0.0415 0.32474 0.0
H81 H 0.04833 0.01745 0.38134 0.0
H82 H 0.06175 0.03908 0.24479 0.0
H83 H 0.99663 0.9886 0.27766 0.0
C84 C 0.32324 0.7219 0.71091 0.0
C85 C 0.31917 0.67452 0.71214 0.0
C86 C 0.30756 0.69961 0.71071 0.0
C87 C 0.34658 0.67217 0.7142 0.0
C88 C 0.35077 0.71959 0.71265 0.0
C89 C 0.36233 0.69463 0.71441 0.0
N90 N 0.31153 0.74585 0.71063 0.0
C91 C 0.3261 0.76819 0.70996 0.0
C92 C 0.36586 0.74249 0.71293 0.0
C93 C 0.35345 0.76688 0.7112 0.0
Gd94 Gd 0.22592 0.74949 0.82813 0.0
Gd95 Gd 0.26569 0.74614 0.71062 0.0
N96 N 0.28099 0.70252 0.71037 0.0
C97 C 0.30286 0.65252 0.71162 0.0
C98 C 0.26515 0.68109 0.70703 0.0
C99 C 0.27576 0.65584 0.70847 0.0
H100 H 0.24443 0.68321 0.70231 0.0
H101 H 0.26305 0.63892 0.70681 0.0
H102 H 0.23849 0.81398 0.83789 0.0
H103 H 0.3166 0.787 0.70767 0.0
H104 H 0.21375 0.85518 0.8474 0.0
H105 H 0.311 0.63292 0.71282 0.0
H106 H 0.3558 0.65306 0.71559 0.0
H107 H 0.1814 0.70118 0.8305 0.0
H108 H 0.38707 0.74154 0.71418 0.0
H109 H 0.36492 0.78468 0.71063 0.0
H110 H 0.12386 0.82803 0.85201 0.0
H111 H 0.38344 0.69248 0.71599 0.0
H112 H 0.10531 0.73619 0.84027 0.0
H113 H 0.13326 0.69668 0.8334 0.0
N114 N 0.18057 0.74278 0.83237 0.0
C115 C 0.16565 0.76471 0.83739 0.0
C116 C 0.16933 0.71855 0.83176 0.0
C117 C 0.1264 0.73829 0.83821 0.0
C118 C 0.1421 0.71594 0.83418 0.0
C119 C 0.13812 0.76305 0.8403 0.0
H120 H 0.10202 0.78515 0.84757 0.0
N121 N 0.2045 0.79003 0.83537 0.0
C122 C 0.17797 0.78897 0.83976 0.0
C123 C 0.17616 0.83605 0.84787 0.0
C124 C 0.16306 0.81205 0.8453 0.0
C125 C 0.21744 0.81332 0.83909 0.0
C126 C 0.20346 0.8367 0.84488 0.0
O127 O 0.28459 0.73195 0.77564 0.0
O128 O 0.25044 0.71358 0.81349 0.0
O129 O 0.24547 0.75904 0.89144 0.0
O130 O 0.21128 0.73426 0.89145 0.0
O131 O 0.22411 0.73043 0.71415 0.0
O132 O 0.22051 0.71318 0.7851 0.0
O133 O 0.20808 0.77149 0.76895 0.0
O134 O 0.24141 0.78286 0.71986 0.0
O135 O 0.25391 0.73189 0.64437 0.0
O136 O 0.2807 0.76434 0.64971 0.0
O137 O 0.26421 0.77208 0.82333 0.0
O138 O 0.27296 0.78393 0.74918 0.0
C139 C 0.27555 0.71486 0.80452 0.0
C140 C 0.21306 0.71425 0.74268 0.0
C141 C 0.2422 0.72789 0.94954 0.0
C142 C 0.25426 0.71938 0.02799 0.0
C143 C 0.26529 0.68796 0.96868 0.0
C144 C 0.25355 0.70399 0.93659 0.0
C145 C 0.26583 0.69562 0.01403 0.0
C146 C 0.2424 0.73548 0.99532 0.0
C147 C 0.22978 0.74482 0.91568 0.0
C148 C 0.13563 0.81047 0.84798 0.0
C149 C 0.1232 0.78605 0.84539 0.0
H150 H 0.16539 0.85411 0.85276 0.0
C151 C 0.21764 0.78599 0.73633 0.0
C152 C 0.27579 0.7871 0.79325 0.0
C153 C 0.25172 0.76347 0.58733 0.0
C154 C 0.24001 0.76962 0.50786 0.0
C155 C 0.21819 0.79498 0.56697 0.0
C156 C 0.23293 0.7822 0.5997 0.0
C157 C 0.22172 0.78885 0.52143 0.0
C158 C 0.25523 0.75714 0.54133 0.0
C159 C 0.26674 0.74977 0.62259 0.0
H160 H 0.2738 0.66941 0.95839 0.0
H161 H 0.25304 0.69769 0.90174 0.0
H162 H 0.27482 0.68268 0.03834 0.0
H163 H 0.23347 0.7539 1.00544 0.0
H164 H 0.20387 0.80959 0.57695 0.0
H165 H 0.22956 0.78673 0.63477 0.0
H166 H 0.21011 0.79928 0.49681 0.0
H167 H 0.26928 0.74213 0.53184 0.0
C168 C 0.5532 0.05223 0.94642 0.0
C169 C 0.59168 0.02747 0.92475 0.0
C170 C 0.56463 0.02873 0.93414 0.0
C171 C 0.6073 0.04981 0.93173 0.0
C172 C 0.56833 0.07519 0.95018 0.0
C173 C 0.59562 0.07367 0.94442 0.0
N174 N 0.52683 0.05295 0.95122 0.0
C175 C 0.5139 0.07627 0.9555 0.0
C176 C 0.5554 0.09908 0.95768 0.0
C177 C 0.52801 0.09968 0.95936 0.0
Gd178 Gd 0.49818 0.97737 0.07473 0.0
Gd179 Gd 0.5046 0.0128 0.94928 0.0
N180 N 0.54874 0.00786 0.92657 0.0
C181 C 0.60187 0.00429 0.90621 0.0
C182 C 0.55803 0.98649 0.90356 0.0
C183 C 0.58483 0.98395 0.89444 0.0
H184 H 0.54482 0.9712 0.89252 0.0
H185 H 0.59224 0.96646 0.87787 0.0
H186 H 0.43769 0.97986 0.11401 0.0
H187 H 0.49276 0.07659 0.95705 0.0
H188 H 0.39988 0.95009 0.12521 0.0
H189 H 0.62256 0.00246 0.89854 0.0
H190 H 0.6282 0.04914 0.92542 0.0
H191 H 0.55165 0.93819 0.08235 0.0
H192 H 0.5663 0.11721 0.96072 0.0
H193 H 0.51778 0.11811 0.96393 0.0
H194 H 0.43346 0.8654 0.08225 0.0
H195 H 0.6077 0.09101 0.94789 0.0
H196 H 0.52636 0.85874 0.06649 0.0
H197 H 0.5622 0.89112 0.07427 0.0
N198 N 0.51063 0.93274 0.07296 0.0
C199 C 0.49077 0.91508 0.07198 0.0
C200 C 0.53597 0.92431 0.07675 0.0
C201 C 0.5218 0.87941 0.06806 0.0
C202 C 0.54202 0.89763 0.07283 0.0
C203 C 0.49577 0.88795 0.06908 0.0
H204 H 0.47819 0.8493 0.06751 0.0
N205 N 0.4622 0.95002 0.08715 0.0
C206 C 0.46565 0.92404 0.07991 0.0
C207 C 0.42065 0.91595 0.10082 0.0
C208 C 0.44483 0.90627 0.08565 0.0
C209 C 0.43942 0.95936 0.10529 0.0
C210 C 0.41815 0.94254 0.11188 0.0
O211 O 0.51573 0.0342 0.01423 0.0
O212 O 0.53367 1.00096 0.05506 0.0
O213 O 0.49831 0.00532 0.13085 0.0
O214 O 0.5043 0.96439 0.14358 0.0
O215 O 0.51659 0.97041 0.95958 0.0
O216 O 0.5342 0.97079 0.03071 0.0
O217 O 0.4639 0.97368 0.02523 0.0
O218 O 0.48545 0.97342 0.95759 0.0
O219 O 0.50687 0.01785 0.87587 0.0
O220 O 0.46956 0.02234 0.91097 0.0
O221 O 0.47 0.01086 0.06322 0.0
O222 O 0.47324 0.03174 0.99292 0.0
C223 C 0.53225 0.02591 0.04508 0.0
C224 C 0.53343 0.96138 0.98929 0.0
C225 C 0.52299 0.99413 0.19568 0.0
C226 C 0.53465 0.00297 0.27482 0.0
C227 C 0.56831 0.00161 0.2164 0.0
C228 C 0.54942 0.99599 0.18368 0.0
C229 C 0.56108 0.00499 0.26153 0.0
C230 C 0.51563 0.99761 0.24121 0.0
C231 C 0.50306 0.98773 0.16123 0.0
C232 C 0.44929 0.87936 0.07884 0.0
C233 C 0.47476 0.87021 0.07045 0.0
H234 H 0.4042 0.90294 0.10594 0.0
C235 C 0.46439 0.96875 0.98149 0.0
C236 C 0.46294 0.02874 0.03354 0.0
C237 C 0.4684 0.02819 0.82936 0.0
C238 C 0.46597 0.02667 0.7466 0.0
C239 C 0.42877 0.04212 0.7907 0.0
C240 C 0.44264 0.03795 0.83051 0.0
C241 C 0.44022 0.03639 0.74913 0.0
C242 C 0.48023 0.02291 0.78701 0.0
C243 C 0.4819 0.02246 0.8726 0.0
H244 H 0.58873 0.00299 0.20685 0.0
H245 H 0.5554 0.99275 0.14911 0.0
H246 H 0.57638 0.00857 0.28615 0.0
H247 H 0.49512 0.99617 0.25028 0.0
H248 H 0.40893 0.04963 0.79209 0.0
H249 H 0.43306 0.04224 0.86231 0.0
H250 H 0.42894 0.03971 0.71871 0.0
H251 H 0.5 0.01516 0.78549 0.0
C252 C 0.33103 0.26696 0.31576 0.0
C253 C 0.33411 0.31371 0.33035 0.0
C254 C 0.31908 0.29074 0.32534 0.0
C255 C 0.36127 0.31265 0.3229 0.0
C256 C 0.35849 0.26552 0.31098 0.0
C257 C 0.37344 0.28859 0.31315 0.0
N258 N 0.31602 0.24501 0.31466 0.0
C259 C 0.32759 0.22085 0.31454 0.0
C260 C 0.37018 0.24081 0.30615 0.0
C261 C 0.35468 0.21837 0.30902 0.0
Gd262 Gd 0.23801 0.24978 0.19375 0.0
Gd263 Gd 0.27035 0.25164 0.31928 0.0
N264 N 0.29273 0.2912 0.33147 0.0
C265 C 0.32143 0.33688 0.34379 0.0
C266 C 0.28046 0.31323 0.34742 0.0
C267 C 0.29457 0.33652 0.35315 0.0
H268 H 0.25963 0.3129 0.35415 0.0
H269 H 0.28471 0.35417 0.36449 0.0
H270 H 0.27508 0.20395 0.14013 0.0
H271 H 0.316 0.20336 0.31869 0.0
H272 H 0.27165 0.15738 0.11863 0.0
H273 H 0.33228 0.35495 0.34805 0.0
H274 H 0.37314 0.33016 0.32587 0.0
H275 H 0.17733 0.27137 0.20968 0.0
H276 H 0.39121 0.23883 0.30237 0.0
H277 H 0.36354 0.19912 0.30764 0.0
H278 H 0.18153 0.13641 0.14625 0.0
H279 H 0.39452 0.28792 0.30893 0.0
H280 H 0.12459 0.20702 0.19069 0.0
H281 H 0.13208 0.2537 0.20912 0.0
N282 N 0.19479 0.23467 0.19357 0.0
C283 C 0.19108 0.20917 0.18187 0.0
C284 C 0.17404 0.25088 0.20206 0.0
C285 C 0.14439 0.21447 0.19165 0.0
C286 C 0.14853 0.24094 0.20178 0.0
C287 C 0.16577 0.19822 0.18132 0.0
H288 H 0.14339 0.16285 0.16869 0.0
N289 N 0.23644 0.20619 0.16697 0.0
C290 C 0.21264 0.19436 0.16896 0.0
C291 C 0.23117 0.15436 0.13846 0.0
C292 C 0.20939 0.16805 0.1551 0.0
C293 C 0.25706 0.19367 0.14674 0.0
C294 C 0.25499 0.1674 0.13345 0.0
O295 O 0.27471 0.28572 0.27016 0.0
O296 O 0.27915 0.26505 0.20226 0.0
O297 O 0.23618 0.24827 0.1198 0.0
O298 O 0.22923 0.28507 0.15606 0.0
O299 O 0.23071 0.27083 0.31225 0.0
O300 O 0.22553 0.28445 0.23784 0.0
O301 O 0.21554 0.23427 0.25447 0.0
O302 O 0.24714 0.21554 0.29884 0.0
O303 O 0.24748 0.25669 0.38066 0.0
O304 O 0.28558 0.23885 0.38417 0.0
O305 O 0.27877 0.23328 0.20445 0.0
O306 O 0.2778 0.21547 0.27545 0.0
C307 C 0.28538 0.2842 0.22992 0.0
C308 C 0.2201 0.28605 0.28145 0.0
C309 C 0.22715 0.28702 0.0738 0.0
C310 C 0.22956 0.2888 0.99115 0.0
C311 C 0.21887 0.32792 0.03483 0.0
C312 C 0.22081 0.31383 0.07471 0.0
C313 C 0.22339 0.31561 0.99341 0.0
C314 C 0.23117 0.2744 0.03157 0.0
C315 C 0.23117 0.27318 0.11714 0.0
C316 C 0.18438 0.15664 0.15648 0.0
C317 C 0.16261 0.17173 0.16931 0.0
H318 H 0.22951 0.13411 0.12754 0.0
C319 C 0.22315 0.21596 0.28256 0.0
C320 C 0.2865 0.21562 0.23366 0.0
C321 C 0.25479 0.22709 0.44007 0.0
C322 C 0.24463 0.21655 0.51884 0.0
C323 C 0.2359 0.185 0.45824 0.0
C324 C 0.24542 0.2025 0.42636 0.0
C325 C 0.23557 0.19185 0.50401 0.0
C326 C 0.25432 0.23409 0.48622 0.0
C327 C 0.26479 0.24576 0.40659 0.0
H328 H 0.21414 0.3486 0.03606 0.0
H329 H 0.2177 0.3241 0.1064 0.0
H330 H 0.22197 0.32705 0.96291 0.0
H331 H 0.2363 0.2538 0.03015 0.0
H332 H 0.22881 0.16597 0.44746 0.0
H333 H 0.2455 0.19685 0.39104 0.0
H334 H 0.22849 0.17758 0.52782 0.0
H335 H 0.26114 0.25334 0.49646 0.0
C336 C 0.82165 0.21687 0.19674 0.0
C337 C 0.81447 0.17002 0.18907 0.0
C338 C 0.80451 0.19573 0.19299 0.0
C339 C 0.84168 0.1658 0.18993 0.0
C340 C 0.84896 0.21267 0.19776 0.0
C341 C 0.85886 0.18704 0.1944 0.0
N342 N 0.81153 0.24144 0.20119 0.0
C343 C 0.82752 0.26271 0.20529 0.0
C344 C 0.86551 0.23437 0.20267 0.0
C345 C 0.85473 0.25949 0.2063 0.0
Gd346 Gd 0.7298 0.2495 0.31967 0.0
Gd347 Gd 0.76579 0.24466 0.1994 0.0
N348 N 0.77816 0.20032 0.19354 0.0
C349 C 0.79676 0.14931 0.18403 0.0
C350 C 0.76101 0.18031 0.18581 0.0
C351 C 0.76996 0.15451 0.18216 0.0
H352 H 0.74054 0.18403 0.18065 0.0
H353 H 0.7562 0.13869 0.17711 0.0
H354 H 0.74748 0.31329 0.32735 0.0
H355 H 0.81933 0.2822 0.20725 0.0
H356 H 0.72606 0.35637 0.3319 0.0
H357 H 0.80353 0.12933 0.18024 0.0
H358 H 0.84967 0.14619 0.18704 0.0
H359 H 0.68155 0.2051 0.32281 0.0
H360 H 0.8866 0.23196 0.20364 0.0
H361 H 0.86739 0.27639 0.20976 0.0
H362 H 0.63435 0.33645 0.33957 0.0
H363 H 0.87979 0.18344 0.1952 0.0
H364 H 0.60862 0.24624 0.33419 0.0
H365 H 0.63323 0.20458 0.32741 0.0
N366 N 0.68413 0.24665 0.32548 0.0
C367 C 0.67106 0.26978 0.33013 0.0
C368 C 0.67096 0.22341 0.32494 0.0
C369 C 0.62981 0.2466 0.33198 0.0
C370 C 0.64362 0.22304 0.328 0.0
C371 C 0.64348 0.27036 0.33314 0.0
H372 H 0.60925 0.29537 0.33889 0.0
N373 N 0.71181 0.29189 0.32566 0.0
C374 C 0.68527 0.29304 0.33054 0.0
C375 C 0.68708 0.34033 0.33383 0.0
C376 C 0.67219 0.31734 0.33399 0.0
C377 C 0.72647 0.31419 0.3277 0.0
C378 C 0.71434 0.33872 0.33109 0.0
O379 O 0.78625 0.22935 0.26234 0.0
O380 O 0.75305 0.21266 0.30498 0.0
O381 O 0.74822 0.26035 0.38327 0.0
O382 O 0.71597 0.23308 0.38268 0.0
O383 O 0.72466 0.22789 0.2063 0.0
O384 O 0.72274 0.21251 0.27909 0.0
O385 O 0.70925 0.26812 0.25978 0.0
O386 O 0.74144 0.28127 0.21042 0.0
O387 O 0.75223 0.23429 0.13203 0.0
O388 O 0.78327 0.26249 0.14032 0.0
O389 O 0.76944 0.26933 0.3114 0.0
O390 O 0.77292 0.28262 0.23711 0.0
C391 C 0.77756 0.21233 0.29166 0.0
C392 C 0.71432 0.21259 0.23711 0.0
C393 C 0.74737 0.22873 0.44063 0.0
C394 C 0.75951 0.2203 0.5191 0.0
C395 C 0.77492 0.19151 0.45861 0.0
C396 C 0.76173 0.20667 0.42691 0.0
C397 C 0.77381 0.19819 0.50436 0.0
C398 C 0.74631 0.23554 0.48667 0.0
C399 C 0.73362 0.24486 0.40716 0.0
C400 C 0.64473 0.31796 0.33706 0.0
C401 C 0.63043 0.29455 0.33667 0.0
H402 H 0.67775 0.35938 0.3363 0.0
C403 C 0.71766 0.28321 0.22717 0.0
C404 C 0.77942 0.28454 0.28004 0.0
C405 C 0.75548 0.26706 0.07708 0.0
C406 C 0.74462 0.2749 0.99788 0.0
C407 C 0.72996 0.30526 0.05658 0.0
C408 C 0.74202 0.28994 0.08932 0.0
C409 C 0.73124 0.29786 0.01119 0.0
C410 C 0.75678 0.25956 0.03134 0.0
C411 C 0.76772 0.25068 0.11193 0.0
H412 H 0.78592 0.17444 0.44771 0.0
H413 H 0.7626 0.20119 0.39173 0.0
H414 H 0.78383 0.18575 0.52824 0.0
H415 H 0.73543 0.25283 0.49705 0.0
H416 H 0.71966 0.32298 0.0664 0.0
H417 H 0.74094 0.29589 0.12424 0.0
H418 H 0.72205 0.31037 0.98643 0.0
H419 H 0.76693 0.24164 0.02199 0.0
C420 C 0.81878 0.80038 0.80763 0.0
C421 C 0.79827 0.84206 0.82479 0.0
C422 C 0.7968 0.81459 0.82005 0.0
C423 C 0.82148 0.85509 0.81296 0.0
C424 C 0.8426 0.81315 0.79825 0.0
C425 C 0.84361 0.84065 0.79964 0.0
N426 N 0.81698 0.7739 0.80572 0.0
C427 C 0.83862 0.75878 0.79798 0.0
C428 C 0.86469 0.79784 0.78824 0.0
C429 C 0.86276 0.77051 0.78871 0.0
Gd430 Gd 0.7336 0.75269 0.69692 0.0
Gd431 Gd 0.77542 0.7557 0.81739 0.0
N432 N 0.77471 0.80134 0.83127 0.0
C433 C 0.77688 0.85541 0.84359 0.0
C434 C 0.75539 0.81387 0.85486 0.0
C435 C 0.75572 0.84109 0.86007 0.0
H436 H 0.73993 0.8029 0.87059 0.0
H437 H 0.73993 0.85082 0.87777 0.0
H438 H 0.7209 0.68952 0.67482 0.0
H439 H 0.83702 0.73769 0.79798 0.0
H440 H 0.68214 0.66083 0.66525 0.0
H441 H 0.77726 0.87649 0.84805 0.0
H442 H 0.82282 0.87623 0.81556 0.0
H443 H 0.71266 0.81329 0.67712 0.0
H444 H 0.88335 0.80689 0.78074 0.0
H445 H 0.8798 0.7585 0.78161 0.0
H446 H 0.60904 0.72028 0.67256 0.0
H447 H 0.86158 0.85088 0.79169 0.0
H448 H 0.62862 0.81219 0.67208 0.0
H449 H 0.67033 0.83689 0.66992 0.0
N450 N 0.69474 0.77621 0.68575 0.0
C451 C 0.67225 0.76212 0.68445 0.0
C452 C 0.69443 0.80254 0.67858 0.0
C453 C 0.64707 0.80187 0.67574 0.0
C454 C 0.67057 0.81587 0.67434 0.0
C455 C 0.64773 0.77455 0.6797 0.0
H456 H 0.60581 0.76844 0.67393 0.0
N457 N 0.69822 0.72403 0.685 0.0
C458 C 0.67405 0.73509 0.68379 0.0
C459 C 0.65439 0.69248 0.67279 0.0
C460 C 0.65141 0.71963 0.67818 0.0
C461 C 0.70142 0.69788 0.67617 0.0
C462 C 0.67956 0.68164 0.67091 0.0
O463 O 0.7923 0.76486 0.74812 0.0
O464 O 0.7585 0.78714 0.71678 0.0
O465 O 0.76435 0.74971 0.64599 0.0
O466 O 0.72432 0.75608 0.62566 0.0
O467 O 0.73255 0.76746 0.81603 0.0
O468 O 0.72916 0.78638 0.74659 0.0
O469 O 0.72056 0.72291 0.74856 0.0
O470 O 0.7415 0.72714 0.81879 0.0
O471 O 0.77897 0.76241 0.89056 0.0
O472 O 0.79472 0.72684 0.85973 0.0
O473 O 0.76137 0.71881 0.70855 0.0
O474 O 0.78815 0.72202 0.77308 0.0
C475 C 0.78371 0.78392 0.72255 0.0
C476 C 0.72047 0.7832 0.78786 0.0
C477 C 0.75691 0.7734 0.57852 0.0
C478 C 0.76625 0.78488 0.49977 0.0
C479 C 0.76845 0.81799 0.55964 0.0
C480 C 0.76151 0.79942 0.59162 0.0
C481 C 0.77065 0.81091 0.51418 0.0
C482 C 0.75927 0.76616 0.53256 0.0
C483 C 0.7485 0.75409 0.61234 0.0
C484 C 0.62672 0.73183 0.67626 0.0
C485 C 0.62489 0.75926 0.67705 0.0
H486 H 0.63749 0.67989 0.66844 0.0
C487 C 0.72416 0.71635 0.79111 0.0
C488 C 0.78066 0.71071 0.73488 0.0
C489 C 0.80022 0.73104 0.94139 0.0
C490 C 0.79977 0.73211 0.02429 0.0
C491 C 0.82746 0.70097 0.98416 0.0
C492 C 0.81858 0.71051 0.94296 0.0
C493 C 0.81813 0.71164 0.0245 0.0
C494 C 0.79082 0.74195 0.98251 0.0
C495 C 0.79097 0.74028 0.89664 0.0
H496 H 0.77188 0.83808 0.57006 0.0
H497 H 0.75934 0.80542 0.62651 0.0
H498 H 0.77552 0.826 0.49021 0.0
H499 H 0.75575 0.746 0.52252 0.0
H500 H 0.84162 0.68516 0.98483 0.0
H501 H 0.82618 0.70177 0.9122 0.0
H502 H 0.82523 0.70382 0.05613 0.0
H503 H 0.77656 0.75769 0.98209 0.0
C504 C 0.48615 0.42768 0.94236 0.0
C505 C 0.43865 0.4255 0.93759 0.0
C506 C 0.46186 0.44014 0.94284 0.0
C507 C 0.44016 0.39819 0.93196 0.0
C508 C 0.48772 0.40029 0.9365 0.0
C509 C 0.46461 0.38562 0.93142 0.0
N510 N 0.50819 0.44231 0.94801 0.0
C511 C 0.53241 0.43094 0.94672 0.0
C512 C 0.51248 0.38843 0.93593 0.0
C513 C 0.53492 0.40384 0.94087 0.0
Gd514 Gd 0.50261 0.52332 0.07845 0.0
Gd515 Gd 0.50165 0.48743 0.95751 0.0
N516 N 0.46094 0.46651 0.95013 0.0
C517 C 0.4146 0.43875 0.93845 0.0
C518 C 0.43767 0.47966 0.94905 0.0
C519 C 0.41413 0.46597 0.94383 0.0
H520 H 0.43716 0.50065 0.95215 0.0
H521 H 0.39566 0.47641 0.9438 0.0
H522 H 0.56554 0.50422 0.08892 0.0
H523 H 0.54986 0.4428 0.9494 0.0
H524 H 0.60844 0.52442 0.10354 0.0
H525 H 0.39631 0.42819 0.9346 0.0
H526 H 0.42252 0.38659 0.92804 0.0
H527 H 0.45873 0.57245 0.07967 0.0
H528 H 0.51449 0.36743 0.93136 0.0
H529 H 0.55416 0.3949 0.9399 0.0
H530 H 0.58957 0.61634 0.11583 0.0
H531 H 0.46544 0.36454 0.92702 0.0
H532 H 0.50047 0.64427 0.09901 0.0
H533 H 0.45874 0.62064 0.08672 0.0
N534 N 0.50011 0.569 0.08443 0.0
C535 C 0.52323 0.58149 0.09214 0.0
C536 C 0.47711 0.58262 0.08316 0.0
C537 C 0.50062 0.62314 0.09503 0.0
C538 C 0.47703 0.60989 0.08793 0.0
C539 C 0.52408 0.60896 0.09763 0.0
H540 H 0.54921 0.64242 0.11022 0.0
N541 N 0.54495 0.54038 0.0873 0.0
C542 C 0.54621 0.56677 0.0943 0.0
C543 C 0.59293 0.56367 0.10631 0.0
C544 C 0.57037 0.57916 0.10309 0.0
C545 C 0.56681 0.52517 0.09128 0.0
C546 C 0.59115 0.53658 0.10032 0.0
O547 O 0.48071 0.46714 0.01542 0.0
O548 O 0.46618 0.49924 0.06471 0.0
O549 O 0.51481 0.50743 0.14277 0.0
O550 O 0.48406 0.53648 0.14082 0.0
O551 O 0.48334 0.52774 0.96645 0.0
O552 O 0.46587 0.53081 0.03784 0.0
O553 O 0.52329 0.54347 0.01958 0.0
O554 O 0.53841 0.51041 0.973 0.0
O555 O 0.48793 0.50518 0.89562 0.0
O556 O 0.5193 0.47675 0.89305 0.0
O557 O 0.51991 0.48246 0.07119 0.0
O558 O 0.53768 0.47996 0.99987 0.0
C559 C 0.46505 0.47531 0.04796 0.0
C560 C 0.46522 0.53629 0.99452 0.0
C561 C 0.48321 0.50588 0.20025 0.0
C562 C 0.47618 0.49408 0.27917 0.0
C563 C 0.45082 0.47314 0.21924 0.0
C564 C 0.46411 0.48774 0.18704 0.0
C565 C 0.4568 0.47621 0.26495 0.0
C566 C 0.48924 0.50905 0.24631 0.0
C567 C 0.49767 0.52076 0.16608 0.0
C568 C 0.57122 0.60649 0.10886 0.0
C569 C 0.54819 0.62135 0.1058 0.0
H570 H 0.6117 0.57232 0.11439 0.0
C571 C 0.53967 0.53458 0.98857 0.0
C572 C 0.53671 0.47239 0.04214 0.0
C573 C 0.5184 0.50918 0.83662 0.0
C574 C 0.5256 0.52136 0.7579 0.0
C575 C 0.5481 0.54459 0.81884 0.0
C576 C 0.53557 0.52901 0.85057 0.0
C577 C 0.54323 0.54081 0.77286 0.0
C578 C 0.51338 0.50541 0.79033 0.0
C579 C 0.50489 0.49299 0.87015 0.0
H580 H 0.43586 0.45939 0.20872 0.0
H581 H 0.45967 0.48485 0.1518 0.0
H582 H 0.44603 0.46474 0.28922 0.0
H583 H 0.50444 0.52271 0.25638 0.0
H584 H 0.56152 0.55975 0.82992 0.0
H585 H 0.53902 0.53251 0.88602 0.0
H586 H 0.55341 0.55308 0.74902 0.0
H587 H 0.49951 0.4905 0.77979 0.0
C588 C 0.01689 0.58107 0.43004 0.0
C589 C 0.06345 0.57959 0.41328 0.0
C590 C 0.03962 0.56664 0.4219 0.0
C591 C 0.06415 0.6071 0.41316 0.0
C592 C 0.01754 0.60868 0.42994 0.0
C593 C 0.04129 0.6216 0.42152 0.0
N594 N 0.9942 0.56807 0.43837 0.0
C595 C 0.97137 0.58137 0.44571 0.0
C596 C 0.99429 0.62249 0.43841 0.0
C597 C 0.9711 0.60876 0.44619 0.0
Gd598 Gd 1.0 0.48165 0.55354 0.0
Gd599 Gd 0.99674 0.52232 0.43632 0.0
N600 N 0.03852 0.54 0.42365 0.0
C601 C 0.08591 0.56451 0.40518 0.0
C602 C 0.06012 0.52523 0.4139 0.0
C603 C 0.08417 0.53722 0.40513 0.0
H604 H 0.05892 0.50426 0.41173 0.0
H605 H 0.1013 0.52539 0.39782 0.0
H606 H 0.93727 0.50033 0.57377 0.0
H607 H 0.95326 0.57087 0.4504 0.0
H608 H 0.89407 0.47968 0.58067 0.0
H609 H 0.10459 0.57372 0.39838 0.0
H610 H 0.08231 0.61737 0.40672 0.0
H611 H 0.04308 0.43274 0.54266 0.0
H612 H 0.994 0.64371 0.43872 0.0
H613 H 0.95297 0.61926 0.45223 0.0
H614 H 0.91201 0.38757 0.57028 0.0
H615 H 0.04218 0.6428 0.42138 0.0
H616 H 1.00116 0.3603 0.54917 0.0
H617 H 0.04295 0.38438 0.54102 0.0
N618 N 0.00185 0.43592 0.55061 0.0
C619 C 0.97874 0.42315 0.55629 0.0
C620 C 0.02473 0.4224 0.54542 0.0
C621 C 1.0011 0.38153 0.54971 0.0
C622 C 0.02472 0.39503 0.54489 0.0
C623 C 0.97772 0.39556 0.55555 0.0
H624 H 0.95233 0.36171 0.55995 0.0
N625 N 0.95756 0.46449 0.5623 0.0
C626 C 0.95596 0.43783 0.56248 0.0
C627 C 0.90914 0.44046 0.57356 0.0
C628 C 0.93165 0.42513 0.56761 0.0
C629 C 0.93585 0.47944 0.57029 0.0
C630 C 0.9113 0.46771 0.57522 0.0
O631 O 0.01781 0.5418 0.4959 0.0
O632 O 0.03433 0.50755 0.53699 0.0
O633 O 0.99244 0.49399 0.62307 0.0
O634 O 0.02389 0.46697 0.60851 0.0
O635 O 0.01726 0.48273 0.43645 0.0
O636 O 0.03512 0.47754 0.50767 0.0
O637 O 0.98072 0.46245 0.49206 0.0
O638 O 0.96229 0.49691 0.45458 0.0
O639 O 0.00279 0.50807 0.3674 0.0
O640 O 0.97274 0.53678 0.38136 0.0
O641 O 0.98063 0.52178 0.55423 0.0
O642 O 0.96227 0.52638 0.48349 0.0
C643 C 0.03344 0.53259 0.52748 0.0
C644 C 0.03411 0.47171 0.4643 0.0
C645 C 0.00283 0.46272 0.67927 0.0
C646 C 0.99817 0.45762 0.76105 0.0
C647 C 0.9893 0.42099 0.71028 0.0
C648 C 0.99556 0.4364 0.67335 0.0
C649 C 0.99064 0.43142 0.75379 0.0
C650 C 0.0039 0.47337 0.72338 0.0
C651 C 0.01035 0.47871 0.63992 0.0
C652 C 0.93055 0.39764 0.56651 0.0
C653 C 0.95351 0.3829 0.5606 0.0
H654 H 0.89007 0.43147 0.57747 0.0
C655 C 0.96359 0.47179 0.46312 0.0
C656 C 0.96409 0.53313 0.52633 0.0
C657 C 0.99318 0.53867 0.30973 0.0
C658 C 0.99783 0.54179 0.22765 0.0
C659 C 0.00754 0.57935 0.27585 0.0
C660 C 1.00098 0.56494 0.31381 0.0
C661 C 0.00592 0.56794 0.23309 0.0
C662 C 0.99185 0.52702 0.26637 0.0
C663 C 0.98538 0.52381 0.35022 0.0
H664 H 0.98364 0.40074 0.70516 0.0
H665 H 0.99509 0.42754 0.64031 0.0
H666 H 0.98573 0.41897 0.7819 0.0
H667 H 0.00988 0.49355 0.72841 0.0
H668 H 0.0136 0.59957 0.27956 0.0
H669 H 0.0016 0.57457 0.34622 0.0
H670 H 0.01102 0.57964 0.2041 0.0
H671 H 0.98545 0.50688 0.26271 0.0
H672 H 0.08526 0.02204 0.43924 0.0
H673 H 0.11687 0.05235 0.40632 0.0
H674 H 0.0688 0.11775 0.44845 0.0
H675 H 0.03652 0.08752 0.47891 0.0
H676 H 0.08349 0.12476 0.36604 0.0
H677 H 0.13073 0.09913 0.50155 0.0
H678 H 0.15177 0.0677 0.55329 0.0
H679 H 0.20097 0.03963 0.44607 0.0
H680 H 0.18043 0.07084 0.39372 0.0
H681 H 0.17297 0.2259 0.30957 0.0
H682 H 0.14206 0.19563 0.3439 0.0
H683 H 0.19764 0.13243 0.32561 0.0
H684 H 0.22945 0.16352 0.29562 0.0
H685 H 0.17884 0.12386 0.39751 0.0
H686 H 0.12606 0.13824 0.25936 0.0
H687 H 0.10131 0.16289 0.20186 0.0
H688 H 0.06309 0.20768 0.30586 0.0
H689 H 0.08644 0.18229 0.36397 0.0
C690 C 0.08139 0.04289 0.44139 0.0
C691 C 0.05823 0.05226 0.46167 0.0
C692 C 0.0997 0.06028 0.423 0.0
C693 C 0.09559 0.08755 0.42529 0.0
C694 C 0.07261 0.09689 0.44615 0.0
C695 C 0.05417 0.07952 0.46392 0.0
C696 C 0.1143 0.10636 0.40393 0.0
C697 C 0.10433 0.12473 0.37342 0.0
C698 C 0.14169 0.10593 0.41197 0.0
C699 C 0.15391 0.08719 0.44364 0.0
C700 C 0.14593 0.08616 0.48896 0.0
C701 C 0.15776 0.06841 0.51838 0.0
C702 C 0.17751 0.05162 0.50291 0.0
C703 C 0.18563 0.05262 0.45801 0.0
C704 C 0.17398 0.07038 0.42849 0.0
C705 C 0.17846 0.20548 0.31277 0.0
C706 C 0.20363 0.19707 0.30008 0.0
C707 C 0.16054 0.18793 0.33184 0.0
C708 C 0.16683 0.16117 0.33676 0.0
C709 C 0.19195 0.1528 0.3228 0.0
C710 C 0.21022 0.17057 0.30539 0.0
C711 C 0.14816 0.14226 0.35873 0.0
C712 C 0.15807 0.12391 0.38972 0.0
C713 C 0.12073 0.14224 0.35041 0.0
C714 C 0.10832 0.15879 0.3158 0.0
C715 C 0.11257 0.15354 0.26985 0.0
C716 C 0.09863 0.16744 0.23723 0.0
C717 C 0.081 0.1871 0.25017 0.0
C718 C 0.07688 0.19258 0.29585 0.0
C719 C 0.09022 0.17826 0.32864 0.0
H720 H 0.0704 0.19795 0.22479 0.0
H721 H 0.18659 0.0379 0.52576 0.0
H722 H 0.08667 0.95758 0.50331 0.0
H723 H 0.11797 0.92608 0.53458 0.0
H724 H 0.06621 0.91323 0.64715 0.0
H725 H 0.03534 0.94498 0.61664 0.0
H726 H 0.11218 0.9187 0.67842 0.0
H727 H 0.07746 0.863 0.56069 0.0
H728 H 0.06498 0.84868 0.48395 0.0
H729 H 0.14357 0.86206 0.43806 0.0
H730 H 0.15663 0.87589 0.51489 0.0
H731 H 0.16462 0.79284 0.74702 0.0
H732 H 0.13679 0.82696 0.71494 0.0
H733 H 0.20367 0.85985 0.64764 0.0
H734 H 0.23212 0.82691 0.68221 0.0
H735 H 0.15305 0.8454 0.59285 0.0
H736 H 0.18713 0.89535 0.71848 0.0
H737 H 0.1972 0.90567 0.79799 0.0
H738 H 0.11555 0.90026 0.83136 0.0
H739 H 0.10503 0.88943 0.75213 0.0
C740 C 0.08187 0.9478 0.53446 0.0
C741 C 0.0585 0.95384 0.55747 0.0
C742 C 0.09975 0.92967 0.55229 0.0
C743 C 0.0945 0.91696 0.59323 0.0
C744 C 0.07093 0.92276 0.61571 0.0
C745 C 0.05323 0.94099 0.59818 0.0
C746 C 0.11395 0.89871 0.61409 0.0
C747 C 0.12079 0.9025 0.65967 0.0
C748 C 0.12588 0.87782 0.58978 0.0
C749 C 0.1179 0.87079 0.54326 0.0
C750 C 0.092 0.8631 0.53411 0.0
C751 C 0.08489 0.85486 0.49072 0.0
C752 C 0.10342 0.85463 0.45607 0.0
C753 C 0.12921 0.86235 0.46488 0.0
C754 C 0.13652 0.87022 0.50839 0.0
C755 C 0.17363 0.80766 0.72637 0.0
C756 C 0.20073 0.80706 0.71743 0.0
C757 C 0.1576 0.82706 0.70775 0.0
C758 C 0.16818 0.84591 0.67894 0.0
C759 C 0.19514 0.84546 0.66983 0.0
C760 C 0.21133 0.82651 0.68948 0.0
C761 C 0.15078 0.86535 0.65692 0.0
C762 C 0.14441 0.86173 0.61128 0.0
C763 C 0.1389 0.88606 0.6814 0.0
C764 C 0.14532 0.89133 0.72942 0.0
C765 C 0.17136 0.89596 0.74286 0.0
C766 C 0.17713 0.90208 0.78784 0.0
C767 C 0.157 0.90381 0.81962 0.0
C768 C 0.1311 0.89907 0.80663 0.0
C769 C 0.12523 0.89292 0.76171 0.0
H770 H 0.16151 0.90862 0.8544 0.0
H771 H 0.09782 0.8484 0.42243 0.0
H772 H 0.30311 0.82437 0.74542 0.0
H773 H 0.3346 0.85642 0.77492 0.0
H774 H 0.31895 0.83086 0.91023 0.0
H775 H 0.2886 0.79792 0.88121 0.0
H776 H 0.31898 0.88811 0.8957 0.0
H777 H 0.37048 0.80993 0.8704 0.0
H778 H 0.3878 0.77318 0.82479 0.0
H779 H 0.42302 0.82744 0.73335 0.0
H780 H 0.40542 0.86456 0.77793 0.0
H781 H 0.42035 0.94825 0.02091 0.0
H782 H 0.38854 0.91829 0.988 0.0
H783 H 0.42632 0.92564 0.85861 0.0
H784 H 0.4598 0.9535 0.89293 0.0
H785 H 0.4142 0.87827 0.86638 0.0
H786 H 0.36415 0.95697 0.8921 0.0
H787 H 0.3467 0.99392 0.93728 0.0
H788 H 0.30814 0.94003 0.02532 0.0
H789 H 0.32563 0.90277 0.9811 0.0
C790 C 0.30667 0.82517 0.78136 0.0
C791 C 0.29372 0.80794 0.81065 0.0
C792 C 0.32451 0.84372 0.7982 0.0
C793 C 0.32923 0.84589 0.84474 0.0
C794 C 0.31563 0.82948 0.87419 0.0
C795 C 0.29828 0.81058 0.85738 0.0
C796 C 0.34869 0.86491 0.86291 0.0
C797 C 0.33984 0.88595 0.88957 0.0
C798 C 0.37579 0.86234 0.85406 0.0
C799 C 0.38636 0.84003 0.82721 0.0
C800 C 0.38167 0.81404 0.84029 0.0
C801 C 0.3916 0.79314 0.8147 0.0
C802 C 0.40653 0.79798 0.77623 0.0
C803 C 0.41148 0.82373 0.76319 0.0
C804 C 0.40151 0.84471 0.78858 0.0
C805 C 0.42225 0.9431 0.98584 0.0
C806 C 0.44317 0.95277 0.96028 0.0
C807 C 0.40361 0.92631 0.96655 0.0
C808 C 0.40455 0.91981 0.92035 0.0
C809 C 0.42504 0.93011 0.89432 0.0
C810 C 0.44417 0.94624 0.91404 0.0
C811 C 0.38465 0.90187 0.89944 0.0
C812 C 0.39337 0.88085 0.87223 0.0
C813 C 0.35734 0.90464 0.90745 0.0
C814 C 0.34635 0.92708 0.93345 0.0
C815 C 0.35202 0.95301 0.92119 0.0
C816 C 0.34213 0.974 0.94664 0.0
C817 C 0.32638 0.9693 0.98419 0.0
C818 C 0.32037 0.94362 0.99625 0.0
C819 C 0.33023 0.92257 0.97098 0.0
H820 H 0.3188 0.98551 1.00398 0.0
H821 H 0.41423 0.78177 0.75649 0.0
H822 H 0.42179 0.01982 0.08969 0.0
H823 H 0.3917 0.05193 0.12251 0.0
H824 H 0.42837 0.11299 0.04553 0.0
H825 H 0.45875 0.08077 0.01272 0.0
H826 H 0.42356 0.12653 0.13443 0.0
H827 H 0.36832 0.094 0.01846 0.0
H828 H 0.34482 0.06183 0.97103 0.0
H829 H 0.30257 0.03496 0.08675 0.0
H830 H 0.32615 0.06672 0.13511 0.0
H831 H 0.32633 0.22439 0.17548 0.0
H832 H 0.35716 0.1925 0.1439 0.0
H833 H 0.32304 0.13204 0.22562 0.0
H834 H 0.29204 0.16419 0.25769 0.0
H835 H 0.32667 0.11851 0.13422 0.0
H836 H 0.38499 0.15168 0.25011 0.0
H837 H 0.4091 0.18521 0.29395 0.0
H838 H 0.44447 0.21344 0.17257 0.0
H839 H 0.42093 0.1798 0.12808 0.0
C840 C 0.42336 0.04002 0.07948 0.0
C841 C 0.44274 0.04774 0.04874 0.0
C842 C 0.40601 0.05836 0.09806 0.0
C843 C 0.40773 0.08488 0.08646 0.0
C844 C 0.42669 0.09261 0.05496 0.0
C845 C 0.44389 0.07416 0.03594 0.0
C846 C 0.39059 0.10456 0.10912 0.0
C847 C 0.40236 0.12498 0.13383 0.0
C848 C 0.36294 0.10225 0.10914 0.0
C849 C 0.34921 0.08258 0.08052 0.0
C850 C 0.35427 0.08101 0.03394 0.0
C851 C 0.34088 0.0629 1.00685 0.0
C852 C 0.32222 0.04637 0.02587 0.0
C853 C 0.31703 0.04779 0.07208 0.0
C854 C 0.3304 0.06585 0.09935 0.0
C855 C 0.32562 0.20436 0.18716 0.0
C856 C 0.30677 0.19668 0.21889 0.0
C857 C 0.34334 0.18619 0.16926 0.0
C858 C 0.3425 0.15991 0.18252 0.0
C859 C 0.32407 0.15227 0.21504 0.0
C860 C 0.30648 0.1706 0.23347 0.0
C861 C 0.35967 0.14026 0.15989 0.0
C862 C 0.34789 0.11991 0.13501 0.0
C863 C 0.38728 0.14283 0.15921 0.0
C864 C 0.40101 0.1634 0.18575 0.0
C865 C 0.39776 0.16517 0.23274 0.0
C866 C 0.4114 0.18412 0.25771 0.0
C867 C 0.4281 0.20158 0.23601 0.0
C868 C 0.43144 0.19996 0.18932 0.0
C869 C 0.41808 0.18087 0.16425 0.0
H870 H 0.43854 0.2163 0.25541 0.0
H871 H 0.31167 0.03259 1.00473 0.0
H872 H 0.92111 0.9827 0.59103 0.0
H873 H 0.89022 0.95039 0.62012 0.0
H874 H 0.94403 0.88824 0.58423 0.0
H875 H 0.97426 0.92036 0.55361 0.0
H876 H 0.90148 0.87095 0.5636 0.0
H877 H 0.92727 0.90816 0.70583 0.0
H878 H 0.93431 0.93736 0.77153 0.0
H879 H 0.85487 0.96475 0.76206 0.0
H880 H 0.84729 0.93545 0.69673 0.0
H881 H 0.83446 0.77441 0.69709 0.0
H882 H 0.86605 0.80569 0.66647 0.0
H883 H 0.80662 0.86594 0.66849 0.0
H884 H 0.77528 0.83491 0.70018 0.0
H885 H 0.85184 0.88264 0.70585 0.0
H886 H 0.82812 0.835 0.56848 0.0
H887 H 0.82362 0.79382 0.52477 0.0
H888 H 0.90591 0.77878 0.53956 0.0
H889 H 0.91094 0.81965 0.58378 0.0
C890 C 0.92644 0.96216 0.58981 0.0
C891 C 0.95023 0.95421 0.56999 0.0
C892 C 0.90877 0.94358 0.60679 0.0
C893 C 0.91463 0.91655 0.60524 0.0
C894 C 0.93865 0.90876 0.58591 0.0
C895 C 0.95608 0.92726 0.5684 0.0
C896 C 0.8954 0.89633 0.62147 0.0
C897 C 0.89096 0.87359 0.59506 0.0
C898 C 0.88111 0.89924 0.66226 0.0
C899 C 0.88684 0.91991 0.69612 0.0
C900 C 0.9115 0.92084 0.71718 0.0
C901 C 0.91547 0.93714 0.75472 0.0
C902 C 0.89498 0.95277 0.7711 0.0
C903 C 0.87068 0.95258 0.74942 0.0
C904 C 0.86653 0.93611 0.71222 0.0
C905 C 0.82816 0.79432 0.69086 0.0
C906 C 0.80243 0.80225 0.70123 0.0
C907 C 0.84616 0.81215 0.67296 0.0
C908 C 0.83871 0.83821 0.66462 0.0
C909 C 0.81287 0.84597 0.67443 0.0
C910 C 0.79492 0.82818 0.69235 0.0
C911 C 0.85802 0.85786 0.64799 0.0
C912 C 0.86235 0.88039 0.67424 0.0
C913 C 0.8728 0.85424 0.60805 0.0
C914 C 0.86988 0.83035 0.5796 0.0
C915 C 0.84525 0.82291 0.56242 0.0
C916 C 0.8426 0.79963 0.53759 0.0
C917 C 0.86443 0.78373 0.52942 0.0
C918 C 0.88902 0.79114 0.54585 0.0
C919 C 0.8918 0.81438 0.57072 0.0
H920 H 0.86228 0.76567 0.51036 0.0
H921 H 0.89786 0.965 0.80066 0.0
H922 H 0.95984 0.05074 0.40244 0.0
H923 H 0.92706 0.08024 0.37132 0.0
H924 H 0.88933 0.08589 0.50092 0.0
H925 H 0.92149 0.05515 0.53221 0.0
H926 H 0.87173 0.07431 0.36792 0.0
H927 H 0.87001 0.15461 0.50626 0.0
H928 H 0.89915 0.17496 0.56306 0.0
H929 H 0.96645 0.15262 0.48478 0.0
H930 H 0.93773 0.13241 0.42735 0.0
H931 H 0.76603 0.16468 0.32843 0.0
H932 H 0.79642 0.13345 0.36281 0.0
H933 H 0.86129 0.18404 0.33109 0.0
H934 H 0.83092 0.21565 0.2979 0.0
H935 H 0.86446 0.16718 0.41729 0.0
H936 H 0.86081 0.11957 0.26883 0.0
H937 H 0.83747 0.09941 0.20428 0.0
H938 H 0.78619 0.0594 0.29519 0.0
H939 H 0.81014 0.07834 0.36024 0.0
C940 C 0.94457 0.05805 0.42457 0.0
C941 C 0.94374 0.05081 0.47028 0.0
C942 C 0.9258 0.07499 0.40656 0.0
C943 C 0.90589 0.0855 0.43382 0.0
C944 C 0.90474 0.07827 0.47938 0.0
C945 C 0.92329 0.06083 0.4973 0.0
C946 C 0.8863 0.10377 0.41398 0.0
C947 C 0.87001 0.09454 0.37912 0.0
C948 C 0.88421 0.1303 0.42791 0.0
C949 C 0.90171 0.14169 0.46284 0.0
C950 C 0.89103 0.154 0.50125 0.0
C951 C 0.90747 0.16557 0.53349 0.0
C952 C 0.93463 0.16511 0.52749 0.0
C953 C 0.94541 0.15296 0.48937 0.0
C954 C 0.92906 0.14133 0.45708 0.0
C955 C 0.78678 0.16912 0.32875 0.0
C956 C 0.79603 0.19273 0.31064 0.0
C957 C 0.80419 0.15112 0.34806 0.0
C958 C 0.83125 0.15622 0.34933 0.0
C959 C 0.84053 0.17963 0.33064 0.0
C960 C 0.82314 0.19763 0.3114 0.0
C961 C 0.8498 0.13765 0.37144 0.0
C962 C 0.86589 0.14682 0.40672 0.0
C963 C 0.85198 0.11114 0.35769 0.0
C964 C 0.83697 0.10055 0.31911 0.0
C965 C 0.84447 0.10656 0.27491 0.0
C966 C 0.83125 0.09525 0.23832 0.0
C967 C 0.81011 0.07845 0.2456 0.0
C968 C 0.80246 0.07253 0.28957 0.0
C969 C 0.81601 0.08332 0.3263 0.0
H970 H 0.79978 0.06989 0.21719 0.0
H971 H 0.94732 0.17409 0.55246 0.0
H972 H 0.70533 0.16312 0.2686 0.0
H973 H 0.67354 0.13092 0.23952 0.0
H974 H 0.64503 0.18754 0.14428 0.0
H975 H 0.67724 0.21945 0.17218 0.0
H976 H 0.60469 0.15602 0.19807 0.0
H977 H 0.68149 0.14841 0.10119 0.0
H978 H 0.72852 0.14136 0.08626 0.0
H979 H 0.72492 0.06648 0.15069 0.0
H980 H 0.67791 0.07328 0.16658 0.0
H981 H 0.52802 0.07935 0.04928 0.0
H982 H 0.55847 0.11055 0.08332 0.0
H983 H 0.60641 0.0465 0.13006 0.0
H984 H 0.5775 0.01546 0.09147 0.0
H985 H 0.63724 0.08131 0.10557 0.0
H986 H 0.56203 0.08533 0.20053 0.0
H987 H 0.51517 0.09012 0.21914 0.0
H988 H 0.51545 0.16844 0.16758 0.0
H989 H 0.56225 0.164 0.14808 0.0
C990 C 0.69209 0.16874 0.24178 0.0
C991 C 0.69376 0.19376 0.22259 0.0
C992 C 0.67402 0.15034 0.22513 0.0
C993 C 0.65695 0.15685 0.18971 0.0
C994 C 0.65798 0.18213 0.17165 0.0
C995 C 0.67644 0.20029 0.18751 0.0
C996 C 0.63872 0.13704 0.17015 0.0
C997 C 0.61169 0.13976 0.17754 0.0
C998 C 0.64797 0.1154 0.1446 0.0
C999 C 0.67627 0.11148 0.1355 0.0
C1000 C 0.69079 0.13057 0.1126 0.0
C1001 C 0.71741 0.12656 0.10377 0.0
C1002 C 0.72968 0.10345 0.11742 0.0
C1003 C 0.71538 0.08434 0.14006 0.0
C1004 C 0.68875 0.08826 0.14897 0.0
C1005 C 0.5453 0.07193 0.06606 0.0
C1006 C 0.55026 0.04486 0.06755 0.0
C1007 C 0.56251 0.08982 0.08643 0.0
C1008 C 0.5846 0.08106 0.11051 0.0
C1009 C 0.58954 0.05395 0.11203 0.0
C1010 C 0.57273 0.03612 0.09046 0.0
C1011 C 0.60282 0.1001 0.13317 0.0
C1012 C 0.62998 0.09732 0.12639 0.0
C1013 C 0.59367 0.12135 0.16021 0.0
C1014 C 0.56561 0.12425 0.17252 0.0
C1015 C 0.55207 0.10353 0.19295 0.0
C1016 C 0.52552 0.10619 0.20367 0.0
C1017 C 0.51232 0.12955 0.19445 0.0
C1018 C 0.52569 0.15035 0.17466 0.0
C1019 C 0.55224 0.14778 0.16382 0.0
H1020 H 0.49175 0.13156 0.20272 0.0
H1021 H 0.7503 0.1004 0.11059 0.0
H1022 H 0.70374 0.83095 0.75584 0.0
H1023 H 0.6709 0.86014 0.78877 0.0
H1024 H 0.66155 0.80693 0.89993 0.0
H1025 H 0.69182 0.77638 0.86412 0.0
H1026 H 0.61788 0.82296 0.88458 0.0
H1027 H 0.69848 0.87586 0.90797 0.0
H1028 H 0.73827 0.89954 0.8841 0.0
H1029 H 0.69369 0.94015 0.78366 0.0
H1030 H 0.65353 0.91738 0.80802 0.0
H1031 H 0.58411 0.95334 0.01683 0.0
H1032 H 0.61567 0.92169 0.98523 0.0
H1033 H 0.55593 0.89199 0.89532 0.0
H1034 H 0.52445 0.92308 0.92723 0.0
H1035 H 0.63376 0.91839 0.90071 0.0
H1036 H 0.56264 0.8338 0.87157 0.0
H1037 H 0.52646 0.81066 0.90949 0.0
H1038 H 0.55936 0.83071 0.03863 0.0
H1039 H 0.59491 0.85496 1.00148 0.0
C1040 C 0.69395 0.82503 0.78637 0.0
C1041 C 0.69999 0.80098 0.80665 0.0
C1042 C 0.67571 0.84222 0.80612 0.0
C1043 C 0.66393 0.83627 0.84768 0.0
C1044 C 0.67008 0.81219 0.86786 0.0
C1045 C 0.68757 0.79468 0.84738 0.0
C1046 C 0.6447 0.85444 0.86997 0.0
C1047 C 0.6216 0.8438 0.88802 0.0
C1048 C 0.64905 0.88178 0.87501 0.0
C1049 C 0.67323 0.89465 0.85926 0.0
C1050 C 0.69728 0.88969 0.88056 0.0
C1051 C 0.71983 0.90303 0.86711 0.0
C1052 C 0.71859 0.92105 0.83199 0.0
C1053 C 0.69468 0.92607 0.81067 0.0
C1054 C 0.672 0.91312 0.82449 0.0
C1055 C 0.57766 0.93962 0.99103 0.0
C1056 C 0.55187 0.94059 0.97452 0.0
C1057 C 0.59571 0.92171 0.97275 0.0
C1058 C 0.58817 0.90431 0.93804 0.0
C1059 C 0.56217 0.90485 0.92251 0.0
C1060 C 0.54422 0.92275 0.94061 0.0
C1061 C 0.60767 0.88662 0.91606 0.0
C1062 C 0.63041 0.89747 0.89744 0.0
C1063 C 0.60343 0.85939 0.91157 0.0
C1064 C 0.58119 0.84631 0.93383 0.0
C1065 C 0.56188 0.83351 0.90807 0.0
C1066 C 0.54141 0.82036 0.92942 0.0
C1067 C 0.54039 0.8195 0.97649 0.0
C1068 C 0.5598 0.83187 1.00225 0.0
C1069 C 0.57997 0.84551 0.98109 0.0
H1070 H 0.52469 0.80909 0.99299 0.0
H1071 H 0.7361 0.93124 0.82153 0.0
H1072 H 0.58158 0.52194 0.9344 0.0
H1073 H 0.61394 0.55143 0.90154 0.0
H1074 H 0.57782 0.61703 0.9699 0.0
H1075 H 0.54476 0.58786 1.00149 0.0
H1076 H 0.60702 0.59279 0.8445 0.0
H1077 H 0.62513 0.65952 1.00011 0.0
H1078 H 0.63088 0.65675 0.08263 0.0
H1079 H 0.65418 0.57616 0.06915 0.0
H1080 H 0.64818 0.57838 0.98678 0.0
H1081 H 0.67275 0.70754 0.76961 0.0
H1082 H 0.64269 0.67591 0.80255 0.0
H1083 H 0.70464 0.64839 0.88942 0.0
H1084 H 0.73451 0.68072 0.85729 0.0
H1085 H 0.66376 0.65127 0.93653 0.0
H1086 H 0.68015 0.61313 0.791 0.0
H1087 H 0.68261 0.61209 0.70796 0.0
H1088 H 0.60012 0.6281 0.69941 0.0
H1089 H 0.59721 0.62948 0.78244 0.0
C1090 C 0.58046 0.54264 0.94257 0.0
C1091 C 0.56039 0.55241 0.97072 0.0
C1092 C 0.59904 0.55951 0.92365 0.0
C1093 C 0.59847 0.58652 0.93322 0.0
C1094 C 0.57888 0.59627 0.9622 0.0
C1095 C 0.55999 0.57947 0.98046 0.0
C1096 C 0.61782 0.60458 0.91189 0.0
C1097 C 0.6194 0.60562 0.86462 0.0
C1098 C 0.63441 0.62103 0.93782 0.0
C1099 C 0.63597 0.61906 0.98747 0.0
C1100 C 0.63125 0.64117 0.01489 0.0
C1101 C 0.63458 0.6397 0.06159 0.0
C1102 C 0.64293 0.61631 0.08111 0.0
C1103 C 0.64766 0.59425 0.05402 0.0
C1104 C 0.64406 0.59553 1.00739 0.0
C1105 C 0.68009 0.69446 0.79515 0.0
C1106 C 0.70617 0.6964 0.81024 0.0
C1107 C 0.66283 0.6763 0.81411 0.0
C1108 C 0.67132 0.6592 0.84813 0.0
C1109 C 0.69743 0.66121 0.86328 0.0
C1110 C 0.71457 0.67968 0.8448 0.0
C1111 C 0.65292 0.63983 0.86891 0.0
C1112 C 0.65136 0.6386 0.91617 0.0
C1113 C 0.63688 0.62273 0.84284 0.0
C1114 C 0.63851 0.62162 0.79293 0.0
C1115 C 0.66256 0.61655 0.77141 0.0
C1116 C 0.66403 0.61585 0.72435 0.0
C1117 C 0.64154 0.62004 0.69843 0.0
C1118 C 0.61752 0.62485 0.71953 0.0
C1119 C 0.61594 0.62555 0.76659 0.0
H1120 H 0.64274 0.61959 0.662 0.0
H1121 H 0.64565 0.61524 0.11724 0.0
H1122 H 0.72955 0.32694 0.17806 0.0
H1123 H 0.6992 0.35822 0.14463 0.0
H1124 H 0.63426 0.31834 0.20684 0.0
H1125 H 0.66429 0.28533 0.23576 0.0
H1126 H 0.6189 0.33075 0.13079 0.0
H1127 H 0.66174 0.37985 0.24536 0.0
H1128 H 0.69895 0.39786 0.28874 0.0
H1129 H 0.72471 0.44004 0.17243 0.0
H1130 H 0.68787 0.42198 0.12807 0.0
H1131 H 0.5298 0.43923 0.11252 0.0
H1132 H 0.56084 0.40724 0.14262 0.0
H1133 H 0.61696 0.42824 0.04073 0.0
H1134 H 0.58571 0.46016 1.00981 0.0
H1135 H 0.63627 0.4263 0.13657 0.0
H1136 H 0.58915 0.37288 0.02472 0.0
H1137 H 0.54906 0.35447 0.99041 0.0
H1138 H 0.52675 0.32227 0.11782 0.0
H1139 H 0.56675 0.34036 0.15288 0.0
C1140 C 0.70876 0.32446 0.18371 0.0
C1141 C 0.69941 0.3033 0.20901 0.0
C1142 C 0.69137 0.34276 0.16536 0.0
C1143 C 0.66426 0.34109 0.17359 0.0
C1144 C 0.65498 0.3202 0.19965 0.0
C1145 C 0.67228 0.30143 0.21674 0.0
C1146 C 0.64554 0.3607 0.15438 0.0
C1147 C 0.6227 0.35163 0.13271 0.0
C1148 C 0.6502 0.3881 0.15648 0.0
C1149 C 0.67215 0.39937 0.18324 0.0
C1150 C 0.67541 0.39286 0.22893 0.0
C1151 C 0.69644 0.40306 0.25371 0.0
C1152 C 0.71421 0.42001 0.23332 0.0
C1153 C 0.71094 0.42687 0.18815 0.0
C1154 C 0.68997 0.41668 0.16317 0.0
C1155 C 0.54872 0.43701 0.09635 0.0
C1156 C 0.5553 0.45221 0.0587 0.0
C1157 C 0.56642 0.41868 0.1136 0.0
C1158 C 0.59123 0.41538 0.09399 0.0
C1159 C 0.59792 0.43052 0.05641 0.0
C1160 C 0.58001 0.4486 0.03861 0.0
C1161 C 0.6101 0.39615 0.11302 0.0
C1162 C 0.63278 0.40536 0.13476 0.0
C1163 C 0.60484 0.36897 0.11261 0.0
C1164 C 0.58082 0.35813 0.09146 0.0
C1165 C 0.57558 0.36204 0.04547 0.0
C1166 C 0.55287 0.35168 0.02589 0.0
C1167 C 0.53519 0.33749 0.05199 0.0
C1168 C 0.54034 0.33341 0.09767 0.0
C1169 C 0.56308 0.3436 0.11738 0.0
H1170 H 0.5176 0.32954 0.03676 0.0
H1171 H 0.73049 0.42787 0.25256 0.0
H1172 H 0.96268 0.41813 0.46622 0.0
H1173 H 0.93077 0.38838 0.4328 0.0
H1174 H 0.88984 0.45395 0.37457 0.0
H1175 H 0.92092 0.48407 0.41062 0.0
H1176 H 0.85505 0.42096 0.40059 0.0
H1177 H 0.93111 0.41312 0.31188 0.0
H1178 H 0.97784 0.40715 0.29344 0.0
H1179 H 0.97567 0.32923 0.34665 0.0
H1180 H 0.92914 0.33499 0.36648 0.0
H1181 H 0.78871 0.33269 0.24319 0.0
H1182 H 0.81994 0.36614 0.26987 0.0
H1183 H 0.84595 0.31424 0.37469 0.0
H1184 H 0.81438 0.28115 0.34914 0.0
H1185 H 0.88741 0.34251 0.31744 0.0
H1186 H 0.80822 0.3558 0.40858 0.0
H1187 H 0.76056 0.3634 0.41392 0.0
H1188 H 0.76851 0.43463 0.33937 0.0
H1189 H 0.8162 0.42719 0.33292 0.0
C1190 C 0.94666 0.42636 0.44708 0.0
C1191 C 0.9443 0.45361 0.44174 0.0
C1192 C 0.92854 0.40921 0.4273 0.0
C1193 C 0.90798 0.41874 0.40034 0.0
C1194 C 0.90546 0.44598 0.39511 0.0
C1195 C 0.92339 0.46321 0.41556 0.0
C1196 C 0.88946 0.40019 0.3774 0.0
C1197 C 0.86225 0.40403 0.38199 0.0
C1198 C 0.89854 0.3781 0.35247 0.0
C1199 C 0.92666 0.37458 0.34106 0.0
C1200 C 0.94068 0.39481 0.32011 0.0
C1201 C 0.96714 0.39147 0.3094 0.0
C1202 C 0.97977 0.36787 0.319 0.0
C1203 C 0.96595 0.34757 0.33939 0.0
C1204 C 0.93951 0.35085 0.35039 0.0
C1205 C 0.80121 0.32841 0.27175 0.0
C1206 C 0.79905 0.30438 0.29422 0.0
C1207 C 0.81898 0.34751 0.28697 0.0
C1208 C 0.83523 0.34264 0.32425 0.0
C1209 C 0.83361 0.31837 0.34585 0.0
C1210 C 0.81548 0.29955 0.33135 0.0
C1211 C 0.85341 0.36304 0.3419 0.0
C1212 C 0.88045 0.35954 0.33606 0.0
C1213 C 0.84417 0.38581 0.36434 0.0
C1214 C 0.81572 0.39082 0.36995 0.0
C1215 C 0.79979 0.37301 0.39314 0.0
C1216 C 0.77278 0.3773 0.39639 0.0
C1217 C 0.76151 0.39947 0.37695 0.0
C1218 C 0.77726 0.41747 0.35441 0.0
C1219 C 0.80428 0.41324 0.35099 0.0
H1220 H 0.74059 0.40271 0.37936 0.0
H1221 H 1.00022 0.36532 0.31041 0.0
H1222 H 0.82907 0.695 0.76467 0.0
H1223 H 0.85907 0.66431 0.72788 0.0
H1224 H 0.8002 0.64605 0.62813 0.0
H1225 H 0.77006 0.67714 0.66415 0.0
H1226 H 0.8291 0.60142 0.66085 0.0
H1227 H 0.84322 0.68611 0.59774 0.0
H1228 H 0.85098 0.73377 0.60055 0.0
H1229 H 0.92424 0.72113 0.66843 0.0
H1230 H 0.91671 0.67337 0.66667 0.0
H1231 H 0.91445 0.54414 0.49695 0.0
H1232 H 0.88252 0.57405 0.53183 0.0
H1233 H 0.93928 0.59539 0.63355 0.0
H1234 H 0.97116 0.56529 0.5992 0.0
H1235 H 0.91072 0.63892 0.59752 0.0
H1236 H 0.89564 0.55429 0.66234 0.0
H1237 H 0.88715 0.50676 0.66084 0.0
H1238 H 0.81516 0.51968 0.58915 0.0
H1239 H 0.82341 0.56731 0.58972 0.0
C1240 C 0.82225 0.68429 0.73529 0.0
C1241 C 0.79715 0.68887 0.71719 0.0
C1242 C 0.83952 0.66678 0.71421 0.0
C1243 C 0.83197 0.65321 0.67495 0.0
C1244 C 0.80644 0.65645 0.6583 0.0
C1245 C 0.78924 0.67426 0.67898 0.0
C1246 C 0.85121 0.63668 0.65019 0.0
C1247 C 0.84676 0.60965 0.64643 0.0
C1248 C 0.87442 0.64744 0.63198 0.0
C1249 C 0.87926 0.67614 0.63251 0.0
C1250 C 0.86089 0.69349 0.61361 0.0
C1251 C 0.86525 0.72052 0.61495 0.0
C1252 C 0.88805 0.73048 0.63478 0.0
C1253 C 0.90657 0.71339 0.65314 0.0
C1254 C 0.90227 0.68633 0.65194 0.0
C1255 C 0.92017 0.55538 0.52651 0.0
C1256 C 0.94523 0.55231 0.54549 0.0
C1257 C 0.90192 0.57239 0.54646 0.0
C1258 C 0.9085 0.58683 0.58541 0.0
C1259 C 0.9338 0.58443 0.60353 0.0
C1260 C 0.95192 0.56713 0.58403 0.0
C1261 C 0.88866 0.6036 0.60834 0.0
C1262 C 0.89301 0.63071 0.61176 0.0
C1263 C 0.8653 0.59294 0.6261 0.0
C1264 C 0.86029 0.56433 0.62564 0.0
C1265 C 0.87812 0.54698 0.6459 0.0
C1266 C 0.87331 0.52003 0.64534 0.0
C1267 C 0.85064 0.5102 0.62485 0.0
C1268 C 0.83272 0.52732 0.60497 0.0
C1269 C 0.83744 0.5543 0.60543 0.0
H1270 H 0.84697 0.48933 0.62443 0.0
H1271 H 0.89138 0.75142 0.63581 0.0
H1272 H 0.28768 0.33625 0.25356 0.0
H1273 H 0.31835 0.36936 0.22568 0.0
H1274 H 0.35634 0.31053 0.14326 0.0
H1275 H 0.32592 0.27743 0.17135 0.0
H1276 H 0.39217 0.34325 0.18521 0.0
H1277 H 0.3139 0.35119 0.09597 0.0
H1278 H 0.26636 0.35672 0.08445 0.0
H1279 H 0.26915 0.43166 0.15132 0.0
H1280 H 0.31671 0.4264 0.1638 0.0
H1281 H 0.46397 0.42201 0.03676 0.0
H1282 H 0.43276 0.39088 0.06732 0.0
H1283 H 0.39103 0.45415 0.13288 0.0
H1284 H 0.42123 0.48574 0.09941 0.0
H1285 H 0.35702 0.42 0.10316 0.0
H1286 H 0.43626 0.41241 0.19006 0.0
H1287 H 0.48395 0.40668 0.19969 0.0
H1288 H 0.4794 0.33052 0.13733 0.0
H1289 H 0.43179 0.33607 0.12661 0.0
C1290 C 0.3028 0.33035 0.22998 0.0
C1291 C 0.30442 0.30424 0.21474 0.0
C1292 C 0.32022 0.34931 0.2138 0.0
C1293 C 0.33961 0.34253 0.18203 0.0
C1294 C 0.34161 0.3163 0.16769 0.0
C1295 C 0.32409 0.29742 0.18356 0.0
C1296 C 0.35724 0.36281 0.16247 0.0
C1297 C 0.38449 0.35992 0.16698 0.0
C1298 C 0.3473 0.38486 0.1393 0.0
C1299 C 0.31881 0.38829 0.13121 0.0
C1300 C 0.30435 0.36877 0.10848 0.0
C1301 C 0.2774 0.37186 0.10174 0.0
C1302 C 0.26472 0.3945 0.11725 0.0
C1303 C 0.279 0.41413 0.13938 0.0
C1304 C 0.30595 0.41111 0.14626 0.0
C1305 C 0.44795 0.42946 0.05708 0.0
C1306 C 0.44538 0.45649 0.06592 0.0
C1307 C 0.43023 0.4115 0.07514 0.0
C1308 C 0.40982 0.41993 0.10367 0.0
C1309 C 0.40668 0.44699 0.1114 0.0
C1310 C 0.42413 0.46506 0.0925 0.0
C1311 C 0.3921 0.40049 0.12577 0.0
C1312 C 0.36478 0.40349 0.12172 0.0
C1313 C 0.402 0.37852 0.14942 0.0
C1314 C 0.4305 0.37477 0.15721 0.0
C1315 C 0.44548 0.39451 0.17824 0.0
C1316 C 0.4725 0.3913 0.18385 0.0
C1317 C 0.48475 0.36828 0.16899 0.0
C1318 C 0.46994 0.34837 0.14873 0.0
C1319 C 0.44292 0.35153 0.14293 0.0
H1320 H 0.50568 0.36584 0.17324 0.0
H1321 H 0.24385 0.39685 0.11203 0.0
H1322 H 0.42206 0.55662 0.03875 0.0
H1323 H 0.38889 0.58664 1.00892 0.0
H1324 H 0.42733 0.5853 0.87965 0.0
H1325 H 0.461 0.55613 0.90935 0.0
H1326 H 0.39514 0.6375 0.96863 0.0
H1327 H 0.37748 0.58319 0.80008 0.0
H1328 H 0.37999 0.53819 0.76915 0.0
H1329 H 0.3648 0.50704 0.90049 0.0
H1330 H 0.36193 0.55181 0.93208 0.0
H1331 H 0.32845 0.72009 0.81485 0.0
H1332 H 0.35927 0.68897 0.84796 0.0
H1333 H 0.29576 0.63548 0.87318 0.0
H1334 H 0.26488 0.66628 0.8387 0.0
H1335 H 0.33823 0.60967 0.84104 0.0
H1336 H 0.32168 0.67276 0.96001 0.0
H1337 H 0.31857 0.71757 0.99186 0.0
H1338 H 0.4001 0.73003 0.96382 0.0
H1339 H 0.40353 0.68546 0.9313 0.0
C1340 C 0.42377 0.56303 1.00421 0.0
C1341 C 0.44458 0.55422 0.97681 0.0
C1342 C 0.40469 0.58013 0.98715 0.0
C1343 C 0.40563 0.58824 0.94206 0.0
C1344 C 0.42616 0.57926 0.91451 0.0
C1345 C 0.44542 0.56253 0.93166 0.0
C1346 C 0.38505 0.60584 0.92342 0.0
C1347 C 0.38266 0.63141 0.9408 0.0
C1348 C 0.36862 0.59787 0.88732 0.0
C1349 C 0.36974 0.57086 0.86848 0.0
C1350 C 0.37457 0.56673 0.8223 0.0
C1351 C 0.3761 0.54127 0.80468 0.0
C1352 C 0.37268 0.51977 0.83288 0.0
C1353 C 0.36761 0.5237 0.87874 0.0
C1354 C 0.36607 0.54911 0.89652 0.0
C1355 C 0.32102 0.70167 0.82734 0.0
C1356 C 0.29412 0.69583 0.82477 0.0
C1357 C 0.33867 0.68394 0.84652 0.0
C1358 C 0.32983 0.66001 0.86387 0.0
C1359 C 0.30306 0.65386 0.86034 0.0
C1360 C 0.28539 0.67158 0.84098 0.0
C1361 C 0.3485 0.64152 0.88583 0.0
C1362 C 0.35062 0.61578 0.86896 0.0
C1363 C 0.36461 0.64931 0.92257 0.0
C1364 C 0.36275 0.6759 0.94292 0.0
C1365 C 0.33885 0.68516 0.96043 0.0
C1366 C 0.33705 0.71047 0.97862 0.0
C1367 C 0.35911 0.72664 0.97976 0.0
C1368 C 0.38303 0.71749 0.96288 0.0
C1369 C 0.38491 0.69219 0.94463 0.0
H1370 H 0.35767 0.74624 0.9938 0.0
H1371 H 0.37389 0.50007 0.81919 0.0
H1372 H 0.19723 0.66728 0.77839 0.0
H1373 H 0.16541 0.63624 0.74665 0.0
H1374 H 0.15299 0.68735 0.63362 0.0
H1375 H 0.18414 0.71868 0.66571 0.0
H1376 H 0.10709 0.66787 0.66281 0.0
H1377 H 0.19252 0.63248 0.62462 0.0
H1378 H 0.23703 0.61674 0.64248 0.0
H1379 H 0.20482 0.55762 0.72814 0.0
H1380 H 0.16008 0.5731 0.71086 0.0
H1381 H 0.04402 0.58421 0.50903 0.0
H1382 H 0.07458 0.61336 0.54661 0.0
H1383 H 0.09229 0.55311 0.64318 0.0
H1384 H 0.06361 0.52279 0.60224 0.0
H1385 H 0.13456 0.57663 0.62802 0.0
H1386 H 0.04878 0.60979 0.6632 0.0
H1387 H 0.00412 0.62517 0.64528 0.0
H1388 H 0.036 0.68854 0.56874 0.0
H1389 H 0.08084 0.67334 0.58569 0.0
C1390 C 0.18741 0.6721 0.74716 0.0
C1391 C 0.19312 0.69559 0.72481 0.0
C1392 C 0.1694 0.6542 0.72877 0.0
C1393 C 0.1569 0.65928 0.68743 0.0
C1394 C 0.16229 0.68293 0.66552 0.0
C1395 C 0.18025 0.70079 0.68385 0.0
C1396 C 0.13861 0.63989 0.6663 0.0
C1397 C 0.11315 0.64797 0.6549 0.0
C1398 C 0.14618 0.61368 0.65698 0.0
C1399 C 0.173 0.60408 0.66676 0.0
C1400 C 0.19495 0.6162 0.64741 0.0
C1401 C 0.22021 0.60732 0.65741 0.0
C1402 C 0.22377 0.58627 0.68659 0.0
C1403 C 0.20205 0.57395 0.7056 0.0
C1404 C 0.17673 0.58273 0.69563 0.0
C1405 C 0.05479 0.57681 0.53743 0.0
C1406 C 0.05159 0.55083 0.55167 0.0
C1407 C 0.072 0.59383 0.55978 0.0
C1408 C 0.08545 0.58589 0.59878 0.0
C1409 C 0.08223 0.55993 0.61331 0.0
C1410 C 0.06568 0.54257 0.58988 0.0
C1411 C 0.10289 0.60457 0.62405 0.0
C1412 C 0.12826 0.5964 0.63627 0.0
C1413 C 0.09512 0.63067 0.63453 0.0
C1414 C 0.06817 0.64034 0.62554 0.0
C1415 C 0.04626 0.62698 0.64249 0.0
C1416 C 0.02091 0.63565 0.63246 0.0
C1417 C 0.01723 0.6578 0.60584 0.0
C1418 C 0.03888 0.67139 0.58936 0.0
C1419 C 0.06426 0.66279 0.59923 0.0
H1420 H 0.99759 0.66444 0.59803 0.0
H1421 H 0.24335 0.57948 0.69439 0.0
H1422 H 0.20229 0.33054 0.23929 0.0
H1423 H 0.1704 0.3626 0.26864 0.0
H1424 H 0.16099 0.31653 0.38861 0.0
H1425 H 0.19264 0.28474 0.35998 0.0
H1426 H 0.11382 0.33287 0.35355 0.0
H1427 H 0.19783 0.36878 0.39377 0.0
H1428 H 0.24254 0.3843 0.37768 0.0
H1429 H 0.21137 0.44385 0.29138 0.0
H1430 H 0.16644 0.4284 0.30643 0.0
H1431 H 0.08157 0.45654 0.49903 0.0
H1432 H 0.11266 0.42488 0.46666 0.0
H1433 H 0.06058 0.41185 0.35404 0.0
H1434 H 0.02946 0.44338 0.38612 0.0
H1435 H 0.13886 0.42507 0.38544 0.0
H1436 H 0.06703 0.34425 0.32363 0.0
H1437 H 0.02464 0.32447 0.34322 0.0
H1438 H 0.03284 0.35191 0.47962 0.0
H1439 H 0.0757 0.37136 0.46132 0.0
C1440 C 0.19331 0.32723 0.2718 0.0
C1441 C 0.20015 0.30517 0.29738 0.0
C1442 C 0.1752 0.34559 0.28859 0.0
C1443 C 0.16344 0.342 0.33094 0.0
C1444 C 0.16982 0.3197 0.35591 0.0
C1445 C 0.18806 0.3016 0.3395 0.0
C1446 C 0.14463 0.36144 0.3499 0.0
C1447 C 0.11918 0.35311 0.36016 0.0
C1448 C 0.15186 0.38766 0.35933 0.0
C1449 C 0.1788 0.39727 0.35086 0.0
C1450 C 0.20052 0.38507 0.3711 0.0
C1451 C 0.2259 0.39386 0.3622 0.0
C1452 C 0.2298 0.415 0.33341 0.0
C1453 C 0.20831 0.42745 0.31361 0.0
C1454 C 0.18288 0.4187 0.32234 0.0
C1455 C 0.07669 0.44684 0.46748 0.0
C1456 C 0.053 0.45242 0.44525 0.0
C1457 C 0.09454 0.42887 0.44889 0.0
C1458 C 0.0889 0.41588 0.40803 0.0
C1459 C 0.06527 0.42145 0.38576 0.0
C1460 C 0.04755 0.43958 0.40409 0.0
C1461 C 0.10778 0.3966 0.38861 0.0
C1462 C 0.13331 0.40494 0.37832 0.0
C1463 C 0.10066 0.37026 0.37947 0.0
C1464 C 0.07443 0.35967 0.39082 0.0
C1465 C 0.05976 0.34619 0.35781 0.0
C1466 C 0.03566 0.33501 0.36874 0.0
C1467 C 0.02585 0.33732 0.41253 0.0
C1468 C 0.04029 0.35058 0.4456 0.0
C1469 C 0.06453 0.36166 0.43497 0.0
H1470 H 0.00716 0.32866 0.42094 0.0
H1471 H 0.24947 0.42177 0.32653 0.0
H1472 H 0.9989 0.04442 0.82415 0.0
H1473 H 0.0088 0.04498 0.90503 0.0
H1474 H 0.97922 0.96617 0.91613 0.0
H1475 H 0.96888 0.96576 0.83566 0.0
H1476 H 0.9603 0.99393 0.9817 0.0
H1477 H 0.04652 0.9816 0.92224 0.0
H1478 H 0.08499 0.99098 0.87488 0.0
H1479 H 0.09298 0.0665 0.93838 0.0
H1480 H 0.05433 0.05771 0.98574 0.0
H1481 H 0.01018 0.97152 0.2049 0.0
H1482 H 0.00125 0.96942 0.12376 0.0
H1483 H 0.02149 0.05101 0.11193 0.0
H1484 H 0.02982 0.05349 0.1929 0.0
H1485 H 0.04567 0.02089 0.04722 0.0
H1486 H 0.95846 0.03212 0.10645 0.0
H1487 H 0.92053 0.02124 0.15413 0.0
H1488 H 0.91547 0.94536 0.09096 0.0
H1489 H 0.95361 0.95567 0.0433 0.0
C1490 C 0.99491 0.02708 0.84373 0.0
C1491 C 0.98305 0.00508 0.82345 0.0
C1492 C 1.00057 0.02739 0.89005 0.0
C1493 C 0.99493 0.00554 0.91697 0.0
C1494 C 0.98365 0.98335 0.8964 0.0
C1495 C 0.97778 0.98313 0.8503 0.0
C1496 C 0.99977 0.00607 0.96674 0.0
C1497 C 0.97913 0.99945 0.99588 0.0
C1498 C 0.02413 0.01372 0.98568 0.0
C1499 C 0.04737 0.01909 0.95722 0.0
C1500 C 0.05635 1.00029 0.92585 0.0
C1501 C 0.07822 0.00549 0.89905 0.0
C1502 C 0.09138 0.02935 0.90353 0.0
C1503 C 0.08274 0.04804 0.9349 0.0
C1504 C 0.06087 0.04296 0.96176 0.0
C1505 C 0.01233 0.98915 0.18524 0.0
C1506 C 0.02091 0.01264 0.20569 0.0
C1507 C 0.00733 0.98788 0.13872 0.0
C1508 C 0.01074 0.01006 0.1116 0.0
C1509 C 0.01894 0.03357 0.13199 0.0
C1510 C 0.02378 0.03491 0.1784 0.0
C1511 C 0.00623 0.00879 0.0619 0.0
C1512 C 0.02691 0.01529 0.03286 0.0
C1513 C 0.982 1.00077 0.04304 0.0
C1514 C 0.95906 0.99456 0.07165 0.0
C1515 C 0.9494 0.01303 0.103 0.0
C1516 C 0.92783 0.00698 0.12997 0.0
C1517 C 0.91564 0.9826 0.12567 0.0
C1518 C 0.92496 0.96423 0.0943 0.0
C1519 C 0.94653 0.97017 0.06728 0.0
H1520 H 0.89894 0.97796 0.14657 0.0
H1521 H 0.10831 0.03333 0.88276 0.0
H1522 H 0.20091 0.76469 0.44497 0.0
H1523 H 0.20498 0.75628 0.36435 0.0
H1524 H 0.28883 0.74929 0.37865 0.0
H1525 H 0.28499 0.75891 0.45957 0.0
H1526 H 0.27758 0.77768 0.30683 0.0
H1527 H 0.24898 0.69497 0.36148 0.0
H1528 H 0.22113 0.6642 0.40334 0.0
H1529 H 0.15466 0.68627 0.32318 0.0
H1530 H 0.18203 0.71746 0.28123 0.0
H1531 H 0.29509 0.71825 0.08791 0.0
H1532 H 0.29384 0.72727 0.16926 0.0
H1533 H 0.21147 0.74549 0.15979 0.0
H1534 H 0.21264 0.73659 0.07836 0.0
H1535 H 0.22352 0.71032 0.22906 0.0
H1536 H 0.25298 0.79367 0.17536 0.0
H1537 H 0.28163 0.82364 0.13339 0.0
H1538 H 0.3478 0.79878 0.21182 0.0
H1539 H 0.3196 0.76835 0.25385 0.0
C1540 C 0.22029 0.76155 0.43109 0.0
C1541 C 0.24265 0.76266 0.45896 0.0
C1542 C 0.22256 0.75641 0.38487 0.0
C1543 C 0.24719 0.75182 0.36523 0.0
C1544 C 0.26958 0.75269 0.39293 0.0
C1545 C 0.26734 0.75796 0.43932 0.0
C1546 C 0.24944 0.74674 0.31569 0.0
C1547 C 0.26608 0.76263 0.29 0.0
C1548 C 0.23407 0.72748 0.29331 0.0
C1549 C 0.21752 0.70874 0.31848 0.0
C1550 C 0.22837 0.69342 0.35301 0.0
C1551 C 0.21268 0.67587 0.37672 0.0
C1552 C 0.18613 0.67333 0.366 0.0
C1553 C 0.17522 0.68828 0.33148 0.0
C1554 C 0.19083 0.70588 0.30769 0.0
C1555 C 0.27675 0.72432 0.10317 0.0
C1556 C 0.25395 0.72671 0.07673 0.0
C1557 C 0.27608 0.72957 0.1496 0.0
C1558 C 0.25256 0.73709 0.17066 0.0
C1559 C 0.22983 0.73972 0.14428 0.0
C1560 C 0.23056 0.73482 0.09772 0.0
C1561 C 0.25148 0.74136 0.22039 0.0
C1562 C 0.23508 0.72528 0.24604 0.0
C1563 C 0.26721 0.76028 0.2427 0.0
C1564 C 0.28422 0.7785 0.2174 0.0
C1565 C 0.27369 0.79439 0.18336 0.0
C1566 C 0.28983 0.81151 0.15962 0.0
C1567 C 0.31653 0.81306 0.16983 0.0
C1568 C 0.32712 0.79753 0.20389 0.0
C1569 C 0.31106 0.78035 0.2277 0.0
H1570 H 0.329 0.82633 0.15144 0.0
H1571 H 0.17401 0.65973 0.38438 0.0
H1572 H 0.51147 0.04483 0.70869 0.0
H1573 H 0.52559 0.03961 0.62975 0.0
H1574 H 0.45915 0.98967 0.60331 0.0
H1575 H 0.44498 0.99501 0.68171 0.0
H1576 H 0.50453 0.97151 0.56105 0.0
H1577 H 0.45557 0.05208 0.57624 0.0
H1578 H 0.4459 0.09565 0.60885 0.0
H1579 H 0.52153 0.12314 0.56746 0.0
H1580 H 0.53181 0.07957 0.53518 0.0
H1581 H 0.49718 0.97592 0.32253 0.0
H1582 H 0.48714 0.9792 0.40292 0.0
H1583 H 0.54646 0.03861 0.41918 0.0
H1584 H 0.55557 0.03653 0.33852 0.0
H1585 H 0.50673 0.05175 0.46808 0.0
H1586 H 0.55585 0.97235 0.45061 0.0
H1587 H 0.56658 0.92881 0.41887 0.0
H1588 H 0.49286 0.89898 0.46527 0.0
H1589 H 0.48153 0.94246 0.49677 0.0
C1590 C 0.50024 0.03234 0.68619 0.0
C1591 C 0.4771 0.02039 0.7013 0.0
C1592 C 0.50818 0.0295 0.64103 0.0
C1593 C 0.49327 0.01445 0.61034 0.0
C1594 C 0.47097 0.0014 0.62616 0.0
C1595 C 0.46287 0.0045 0.67098 0.0
C1596 C 0.49986 0.01341 0.56127 0.0
C1597 C 0.50483 0.98902 0.54063 0.0
C1598 C 0.50077 0.03627 0.53463 0.0
C1599 C 0.49457 0.06249 0.55377 0.0
C1600 C 0.47022 0.06735 0.57443 0.0
C1601 C 0.46462 0.09205 0.5928 0.0
C1602 C 0.48312 0.11213 0.59034 0.0
C1603 C 0.50724 0.10756 0.56941 0.0
C1604 C 0.51296 0.08287 0.55106 0.0
C1605 C 0.50784 0.99001 0.34295 0.0
C1606 C 0.5274 0.00578 0.32368 0.0
C1607 C 0.50232 0.9916 0.38926 0.0
C1608 C 0.51642 0.00874 0.41771 0.0
C1609 C 0.5354 0.02504 0.39832 0.0
C1610 C 0.54078 0.02362 0.35204 0.0
C1611 C 0.51146 0.00978 0.46752 0.0
C1612 C 0.50669 0.03418 0.48838 0.0
C1613 C 0.51096 0.98692 0.49441 0.0
C1614 C 0.51774 0.96073 0.47567 0.0
C1615 C 0.54185 0.95655 0.45376 0.0
C1616 C 0.54805 0.93188 0.43586 0.0
C1617 C 0.53038 0.91116 0.43995 0.0
C1618 C 0.50651 0.91506 0.46207 0.0
C1619 C 0.5002 0.9397 0.47999 0.0
H1620 H 0.53522 0.89207 0.42606 0.0
H1621 H 0.47874 0.13125 0.60457 0.0
H1622 H 0.20259 0.2492 0.94881 0.0
H1623 H 0.20663 0.23501 0.86978 0.0
H1624 H 0.27218 0.28736 0.85302 0.0
H1625 H 0.26726 0.30229 0.93119 0.0
H1626 H 0.24231 0.29365 0.78627 0.0
H1627 H 0.27693 0.21657 0.85523 0.0
H1628 H 0.27769 0.17883 0.90652 0.0
H1629 H 0.20834 0.14803 0.84346 0.0
H1630 H 0.20696 0.18577 0.79216 0.0
H1631 H 0.28048 0.24533 0.56847 0.0
H1632 H 0.27939 0.25599 0.64908 0.0
H1633 H 0.20651 0.21424 0.66213 0.0
H1634 H 0.20704 0.20404 0.58156 0.0
H1635 H 0.24087 0.20187 0.73011 0.0
H1636 H 0.20719 0.28038 0.66158 0.0
H1637 H 0.20823 0.31793 0.60993 0.0
H1638 H 0.27896 0.34562 0.67273 0.0
H1639 H 0.27853 0.30801 0.72438 0.0
C1640 C 0.21816 0.25721 0.92838 0.0
C1641 C 0.2347 0.27672 0.94613 0.0
C1642 C 0.22053 0.24909 0.88313 0.0
C1643 C 0.23987 0.25992 0.85498 0.0
C1644 C 0.257 0.27872 0.87355 0.0
C1645 C 0.25433 0.28712 0.91839 0.0
C1646 C 0.24136 0.25305 0.8057 0.0
C1647 C 0.24245 0.27351 0.77426 0.0
C1648 C 0.24094 0.22684 0.78932 0.0
C1649 C 0.2417 0.20414 0.82015 0.0
C1650 C 0.26172 0.20185 0.85253 0.0
C1651 C 0.26229 0.18044 0.88156 0.0
C1652 C 0.24304 0.16108 0.87833 0.0
C1653 C 0.22322 0.16306 0.84597 0.0
C1654 C 0.22255 0.18444 0.81688 0.0
C1655 C 0.26401 0.23868 0.58823 0.0
C1656 C 0.24388 0.22373 0.56807 0.0
C1657 C 0.26349 0.2447 0.63452 0.0
C1658 C 0.24283 0.23598 0.66188 0.0
C1659 C 0.22276 0.22105 0.64195 0.0
C1660 C 0.22318 0.21515 0.5957 0.0
C1661 C 0.242 0.24245 0.71117 0.0
C1662 C 0.24091 0.22195 0.74243 0.0
C1663 C 0.24275 0.26859 0.72748 0.0
C1664 C 0.24297 0.29124 0.69653 0.0
C1665 C 0.22308 0.29436 0.66413 0.0
C1666 C 0.22354 0.31568 0.6349 0.0
C1667 C 0.24369 0.33411 0.63796 0.0
C1668 C 0.26339 0.3313 0.67035 0.0
C1669 C 0.26304 0.31 0.69963 0.0
H1670 H 0.244 0.3506 0.6153 0.0
H1671 H 0.24351 0.14452 0.90083 0.0
H1672 H 0.78662 0.25499 0.95071 0.0
H1673 H 0.78913 0.24488 0.86999 0.0
H1674 H 0.70845 0.26841 0.8538 0.0
H1675 H 0.70553 0.27766 0.9346 0.0
H1676 H 0.71819 0.22525 0.80536 0.0
H1677 H 0.75925 0.30925 0.8253 0.0
H1678 H 0.79073 0.34061 0.8584 0.0
H1679 H 0.85488 0.29386 0.80934 0.0
H1680 H 0.82376 0.26201 0.77646 0.0
H1681 H 0.71727 0.23863 0.56761 0.0
H1682 H 0.71498 0.24809 0.64846 0.0
H1683 H 0.79612 0.22582 0.66309 0.0
H1684 H 0.7989 0.21745 0.58203 0.0
H1685 H 0.78632 0.26805 0.71251 0.0
H1686 H 0.7452 0.18415 0.6921 0.0
H1687 H 0.71367 0.15282 0.65905 0.0
H1688 H 0.64961 0.19936 0.70905 0.0
H1689 H 0.68078 0.23116 0.74188 0.0
C1690 C 0.7693 0.25767 0.93011 0.0
C1691 C 0.74593 0.26736 0.94919 0.0
C1692 C 0.77084 0.25213 0.88383 0.0
C1693 C 0.7491 0.2563 0.85557 0.0
C1694 C 0.72554 0.26519 0.87477 0.0
C1695 C 0.72398 0.27069 0.92098 0.0
C1696 C 0.75094 0.25181 0.80594 0.0
C1697 C 0.73291 0.23486 0.785 0.0
C1698 C 0.77044 0.26391 0.77936 0.0
C1699 C 0.78918 0.28312 0.79881 0.0
C1700 C 0.78007 0.30556 0.82185 0.0
C1701 C 0.79785 0.32344 0.84053 0.0
C1702 C 0.82479 0.3192 0.83608 0.0
C1703 C 0.834 0.2971 0.81282 0.0
C1704 C 0.81631 0.27914 0.79412 0.0
C1705 C 0.73476 0.23609 0.58785 0.0
C1706 C 0.75823 0.22707 0.56817 0.0
C1707 C 0.73333 0.24123 0.63426 0.0
C1708 C 0.75525 0.23722 0.66215 0.0
C1709 C 0.77888 0.2289 0.64243 0.0
C1710 C 0.78036 0.22387 0.59605 0.0
C1711 C 0.75358 0.24148 0.71188 0.0
C1712 C 0.77163 0.25841 0.73286 0.0
C1713 C 0.7341 0.22935 0.7385 0.0
C1714 C 0.71533 0.21016 0.71908 0.0
C1715 C 0.72439 0.18779 0.69578 0.0
C1716 C 0.70658 0.16994 0.67712 0.0
C1717 C 0.67965 0.17413 0.68185 0.0
C1718 C 0.67047 0.19615 0.70536 0.0
C1719 C 0.6882 0.21409 0.72404 0.0
H1720 H 0.66589 0.16029 0.66737 0.0
H1721 H 0.83852 0.33306 0.85057 0.0
H1722 H 0.80254 0.80255 0.43885 0.0
H1723 H 0.80431 0.79449 0.35771 0.0
H1724 H 0.73788 0.74284 0.36713 0.0
H1725 H 0.73558 0.75125 0.44864 0.0
H1726 H 0.77567 0.7228 0.31037 0.0
H1727 H 0.72958 0.80373 0.32733 0.0
H1728 H 0.72206 0.84873 0.35537 0.0
H1729 H 0.79185 0.87455 0.28854 0.0
H1730 H 0.80002 0.82958 0.26063 0.0
H1731 H 0.75804 0.71523 0.07316 0.0
H1732 H 0.74855 0.72509 0.15275 0.0
H1733 H 0.81268 0.78001 0.15611 0.0
H1734 H 0.82188 0.77031 0.0764 0.0
H1735 H 0.77246 0.79828 0.20628 0.0
H1736 H 0.81979 0.71695 0.19313 0.0
H1737 H 0.82756 0.67191 0.16534 0.0
H1738 H 0.75541 0.64686 0.2254 0.0
H1739 H 0.74702 0.69188 0.25296 0.0
C1740 C 0.78811 0.78961 0.42382 0.0
C1741 C 0.76865 0.77788 0.4506 0.0
C1742 C 0.78921 0.78495 0.37723 0.0
C1743 C 0.77095 0.7684 0.35588 0.0
C1744 C 0.75214 0.75579 0.38263 0.0
C1745 C 0.75094 0.76053 0.4294 0.0
C1746 C 0.77146 0.76464 0.3057 0.0
C1747 C 0.77451 0.73928 0.28762 0.0
C1748 C 0.77044 0.78611 0.27573 0.0
C1749 C 0.76553 0.81322 0.29222 0.0
C1750 C 0.74344 0.81895 0.31889 0.0
C1751 C 0.73904 0.84447 0.33472 0.0
C1752 C 0.7565 0.86448 0.32384 0.0
C1753 C 0.77836 0.85902 0.29699 0.0
C1754 C 0.78287 0.83353 0.28112 0.0
C1755 C 0.76953 0.73 0.09063 0.0
C1756 C 0.79038 0.74237 0.0685 0.0
C1757 C 0.76434 0.7354 0.13627 0.0
C1758 C 0.78014 0.75303 0.16094 0.0
C1759 C 0.80017 0.76636 0.13806 0.0
C1760 C 0.80535 0.76094 0.09243 0.0
C1761 C 0.77691 0.75646 0.21092 0.0
C1762 C 0.77341 0.78178 0.22898 0.0
C1763 C 0.77753 0.73494 0.24088 0.0
C1764 C 0.78264 0.70783 0.22467 0.0
C1765 C 0.80549 0.70187 0.20012 0.0
C1766 C 0.81002 0.67635 0.18445 0.0
C1767 C 0.79195 0.65655 0.1935 0.0
C1768 C 0.76936 0.66223 0.21835 0.0
C1769 C 0.76471 0.68774 0.23401 0.0
H1770 H 0.79549 0.6368 0.18134 0.0
H1771 H 0.75306 0.88422 0.33612 0.0
H1772 H 0.51967 0.55977 0.69461 0.0
H1773 H 0.51172 0.55463 0.61393 0.0
H1774 H 0.50941 0.47069 0.62872 0.0
H1775 H 0.51851 0.47563 0.70944 0.0
H1776 H 0.53729 0.48308 0.55661 0.0
H1777 H 0.45297 0.50745 0.61369 0.0
H1778 H 0.42098 0.53432 0.65598 0.0
H1779 H 0.43853 0.60045 0.57296 0.0
H1780 H 0.47091 0.57407 0.53056 0.0
H1781 H 0.48111 0.45521 0.34173 0.0
H1782 H 0.48962 0.45977 0.42248 0.0
H1783 H 0.49504 0.5436 0.4084 0.0
H1784 H 0.48575 0.53924 0.32759 0.0
H1785 H 0.46536 0.53086 0.48012 0.0
H1786 H 0.54991 0.50578 0.42308 0.0
H1787 H 0.58135 0.47825 0.38082 0.0
H1788 H 0.56248 0.41253 0.46394 0.0
H1789 H 0.53065 0.43958 0.50632 0.0
C1790 C 0.51772 0.54016 0.68077 0.0
C1791 C 0.51983 0.51811 0.70874 0.0
C1792 C 0.51285 0.53727 0.63457 0.0
C1793 C 0.50962 0.51228 0.61514 0.0
C1794 C 0.51173 0.4902 0.64287 0.0
C1795 C 0.5167 0.49307 0.68916 0.0
C1796 C 0.50452 0.50924 0.56582 0.0
C1797 C 0.52131 0.49323 0.54004 0.0
C1798 C 0.48404 0.52293 0.54382 0.0
C1799 C 0.46455 0.53884 0.56923 0.0
C1800 C 0.45016 0.52778 0.60468 0.0
C1801 C 0.43193 0.54291 0.62863 0.0
C1802 C 0.42778 0.56909 0.61724 0.0
C1803 C 0.4418 0.58017 0.58179 0.0
C1804 C 0.46007 0.56514 0.55776 0.0
C1805 C 0.48398 0.47466 0.35578 0.0
C1806 C 0.48266 0.49687 0.32808 0.0
C1807 C 0.48911 0.47721 0.40196 0.0
C1808 C 0.49322 0.50202 0.42159 0.0
C1809 C 0.492 0.52424 0.39405 0.0
C1810 C 0.48691 0.5217 0.34777 0.0
C1811 C 0.49817 0.50478 0.47096 0.0
C1812 C 0.48133 0.52072 0.49674 0.0
C1813 C 0.51852 0.49093 0.49297 0.0
C1814 C 0.53771 0.47465 0.46759 0.0
C1815 C 0.55231 0.4854 0.43212 0.0
C1816 C 0.57023 0.46989 0.40818 0.0
C1817 C 0.57386 0.44364 0.41961 0.0
C1818 C 0.55962 0.43286 0.45508 0.0
C1819 C 0.54166 0.44828 0.4791 0.0
H1820 H 0.58775 0.43167 0.40104 0.0
H1821 H 0.41365 0.58077 0.63582 0.0
H1822 H 0.97823 0.50341 0.79654 0.0
H1823 H 0.97806 0.51741 0.87594 0.0
H1824 H 0.02275 0.44869 0.91116 0.0
H1825 H 0.02242 0.43446 0.83229 0.0
H1826 H 0.98479 0.45429 0.96848 0.0
H1827 H 0.04973 0.51232 0.90852 0.0
H1828 H 0.06737 0.54554 0.85697 0.0
H1829 H 0.00781 0.59994 0.8994 0.0
H1830 H 0.9896 0.56691 0.95078 0.0
H1831 H 0.01758 0.49539 0.19414 0.0
H1832 H 0.01767 0.48035 0.11521 0.0
H1833 H 0.97245 0.54831 0.07773 0.0
H1834 H 0.97287 0.56355 0.15602 0.0
H1835 H 0.0112 0.54273 0.02176 0.0
H1836 H 0.9463 0.48423 0.08193 0.0
H1837 H 0.92924 0.45089 0.13384 0.0
H1838 H 0.98944 0.39722 0.09137 0.0
H1839 H 0.00707 0.43036 0.03962 0.0
C1840 C 0.98832 0.49153 0.82119 0.0
C1841 C 1.00025 0.4678 0.80818 0.0
C1842 C 0.98823 0.49952 0.86662 0.0
C1843 C 1.00051 0.48418 0.8998 0.0
C1844 C 0.01297 0.46082 0.88648 0.0
C1845 C 0.01283 0.45273 0.84131 0.0
C1846 C 0.99977 0.49189 0.94854 0.0
C1847 C 0.9909 0.47354 0.98014 0.0
C1848 C 0.0072 0.51716 0.96398 0.0
C1849 C 0.01815 0.53705 0.93317 0.0
C1850 C 0.04028 0.5313 0.9066 0.0
C1851 C 0.0504 0.55011 0.87746 0.0
C1852 C 0.03867 0.57481 0.87482 0.0
C1853 C 0.01685 0.58078 0.90142 0.0
C1854 C 0.00663 0.56204 0.93059 0.0
C1855 C 0.00733 0.50684 0.16909 0.0
C1856 C 0.99533 0.5307 0.18121 0.0
C1857 C 0.00737 0.49826 0.12395 0.0
C1858 C 0.99501 0.51315 0.09025 0.0
C1859 C 0.98231 0.53654 0.10281 0.0
C1860 C 0.9825 0.54521 0.14764 0.0
C1861 C 0.9961 0.50519 0.04166 0.0
C1862 C 0.00507 0.52348 1.0101 0.0
C1863 C 0.98883 0.47986 0.0263 0.0
C1864 C 0.97816 0.45988 0.05724 0.0
C1865 C 0.95602 0.46539 0.0839 0.0
C1866 C 0.94623 0.44651 0.11326 0.0
C1867 C 0.9583 0.42198 0.11599 0.0
C1868 C 0.98014 0.41624 0.08927 0.0
C1869 C 0.99002 0.43505 0.0599 0.0
H1870 H 0.95069 0.4074 0.13875 0.0
H1871 H 0.04654 0.58934 0.85224 0.0
loop_
_geom_bond_atom_site_label_1
_geom_bond_atom_site_label_2
_geom_bond_distance
_geom_bond_site_symmetry_2
_ccdc_geom_bond_type
C0 C2 1.422 . S
C0 C4 1.415 . S
C0 N6 1.369 1_655 S
C1 C2 1.421 . S
C1 C3 1.417 . S
C1 C13 1.422 . S
C2 C0 1.422 . S
C2 C1 1.421 . S
C2 N12 1.359 . S
C3 C1 1.417 . S
C3 C5 1.329 . S
C3 H22 0.930 . S
C4 C0 1.415 . S
C4 C5 1.437 . S
C4 C8 1.413 1_655 S
C5 C3 1.329 . S
C5 C4 1.437 . S
C5 H27 0.929 . S
N6 C0 1.369 1_455 S
N6 C7 1.338 . S
N6 Gd11 2.623 . S
C7 N6 1.338 . S
C7 C9 1.378 . S
C7 H19 0.929 . S
C8 C4 1.413 1_455 S
C8 C9 1.348 . S
C8 H24 0.931 . S
C9 C7 1.378 . S
C9 C8 1.348 . S
C9 H25 0.930 . S
Gd10 N30 2.623 . S
Gd10 N37 2.549 1_655 S
Gd10 O44 2.368 1_545 S
Gd10 O45 2.464 1_655 S
Gd10 O46 2.440 . S
Gd10 O48 2.407 . S
Gd10 O49 2.373 1_655 S
Gd10 O53 2.291 1_645 S
Gd10 C63 2.810 . S
Gd11 N6 2.623 . S
Gd11 N12 2.541 1_455 S
Gd11 O43 2.368 1_455 S
Gd11 O47 2.285 1_465 S
Gd11 O50 2.374 1_565 S
Gd11 O51 2.463 1_455 S
Gd11 O52 2.446 . S
Gd11 O54 2.414 . S
Gd11 C75 2.813 . S
N12 C2 1.359 . S
N12 Gd11 2.541 1_655 S
N12 C14 1.343 . S
C13 C1 1.422 . S
C13 C15 1.321 . S
C13 H21 0.931 . S
C14 N12 1.343 . S
C14 C15 1.390 . S
C14 H16 0.931 . S
C15 C13 1.321 . S
C15 C14 1.390 . S
C15 H17 0.930 . S
H16 C14 0.931 . S
H17 C15 0.930 . S
H18 C41 0.931 . S
H19 C7 0.929 . S
H20 C42 0.930 . S
H21 C13 0.931 . S
H22 C3 0.930 . S
H23 C32 0.929 . S
H24 C8 0.931 . S
H25 C9 0.930 . S
H26 C64 0.930 . S
H27 C5 0.929 . S
H28 C33 0.931 . S
H29 C34 0.930 . S
N30 Gd10 2.623 . S
N30 C31 1.369 1_655 S
N30 C32 1.338 . S
C31 N30 1.369 1_455 S
C31 C35 1.415 . S
C31 C38 1.422 . S
C32 H23 0.929 . S
C32 N30 1.338 . S
C32 C34 1.378 . S
C33 H28 0.931 . S
C33 C34 1.348 . S
C33 C35 1.413 1_655 S
C34 H29 0.930 . S
C34 C32 1.378 . S
C34 C33 1.348 . S
C35 C31 1.415 . S
C35 C33 1.413 1_455 S
C35 C65 1.437 . S
H36 C65 0.929 . S
N37 Gd10 2.549 1_455 S
N37 C38 1.359 . S
N37 C41 1.343 . S
C38 C31 1.422 . S
C38 N37 1.359 . S
C38 C40 1.421 . S
C39 C40 1.422 . S
C39 C42 1.321 . S
C39 H66 0.931 . S
C40 C38 1.421 . S
C40 C39 1.422 . S
C40 C64 1.417 . S
C41 H18 0.931 . S
C41 N37 1.343 . S
C41 C42 1.390 . S
C42 H20 0.930 . S
C42 C39 1.321 . S
C42 C41 1.390 . S
O43 Gd11 2.368 1_655 S
O43 C55 1.265 . S
O44 Gd10 2.368 1_565 S
O44 C55 1.242 . S
O45 Gd10 2.464 1_455 S
O45 C63 1.263 1_455 S
O46 Gd10 2.440 . S
O46 C63 1.252 . S
O47 Gd11 2.285 1_645 S
O47 C56 1.261 . S
O48 Gd10 2.407 . S
O48 C56 1.252 . S
O49 Gd10 2.373 1_455 S
O49 C67 1.265 . S
O50 Gd11 2.374 1_545 S
O50 C67 1.242 . S
O51 Gd11 2.463 1_655 S
O51 C75 1.263 1_655 S
O52 Gd11 2.446 . S
O52 C75 1.252 . S
O53 Gd10 2.291 1_465 S
O53 C68 1.261 . S
O54 Gd11 2.414 . S
O54 C68 1.252 . S
C55 O43 1.265 . S
C55 O44 1.242 . S
C56 O47 1.261 . S
C56 O48 1.252 . S
C57 C60 1.394 . S
C57 C62 1.387 . S
C57 C63 1.500 . S
C58 C61 1.382 1_565 S
C58 C62 1.394 1_565 S
C59 C60 1.396 . S
C59 C61 1.365 . S
C59 H76 0.929 . S
C60 C57 1.394 . S
C60 C59 1.396 . S
C60 H77 0.930 . S
C61 C58 1.382 1_545 S
C61 C59 1.365 . S
C61 H78 0.931 . S
C62 C57 1.387 . S
C62 C58 1.394 1_545 S
C62 H79 0.914 1_645 S
C63 Gd10 2.810 . S
C63 O45 1.263 1_655 S
C63 O46 1.252 . S
C63 C57 1.500 . S
C64 H26 0.930 . S
C64 C40 1.417 . S
C64 C65 1.329 . S
C65 C35 1.437 . S
C65 H36 0.929 . S
C65 C64 1.329 . S
H66 C39 0.931 . S
C67 O49 1.265 . S
C67 O50 1.242 . S
C68 O53 1.261 . S
C68 O54 1.252 . S
C69 C72 1.394 . S
C69 C74 1.380 . S
C69 C75 1.500 . S
C70 C73 1.376 1_545 S
C70 C74 1.394 1_545 S
C71 C72 1.396 . S
C71 C73 1.365 . S
C71 H80 0.929 . S
C72 C69 1.394 . S
C72 C71 1.396 . S
C72 H81 0.930 . S
C73 C70 1.376 1_565 S
C73 C71 1.365 . S
C73 H82 0.931 . S
C74 C69 1.380 . S
C74 C70 1.394 1_565 S
C74 H83 0.920 1_465 S
C75 Gd11 2.813 . S
C75 O51 1.263 1_455 S
C75 O52 1.252 . S
C75 C69 1.500 . S
H76 C59 0.929 . S
H77 C60 0.930 . S
H78 C61 0.931 . S
H79 C62 0.914 1_465 S
H80 C71 0.929 . S
H81 C72 0.930 . S
H82 C73 0.931 . S
H83 C74 0.920 1_645 S
C84 C86 1.422 . S
C84 C88 1.415 . S
C84 N90 1.369 . S
C85 C86 1.421 . S
C85 C87 1.417 . S
C85 C97 1.422 . S
C86 C84 1.422 . S
C86 C85 1.421 . S
C86 N96 1.359 . S
C87 C85 1.417 . S
C87 C89 1.329 . S
C87 H106 0.930 . S
C88 C84 1.415 . S
C88 C89 1.437 . S
C88 C92 1.413 . S
C89 C87 1.329 . S
C89 C88 1.437 . S
C89 H111 0.929 . S
N90 C84 1.369 . S
N90 C91 1.338 . S
N90 Gd95 2.622 . S
C91 N90 1.338 . S
C91 C93 1.378 . S
C91 H103 0.929 . S
C92 C88 1.413 . S
C92 C93 1.348 . S
C92 H108 0.931 . S
C93 C91 1.378 . S
C93 C92 1.348 . S
C93 H109 0.930 . S
Gd94 N114 2.622 . S
Gd94 N121 2.570 . S
Gd94 O128 2.353 . S
Gd94 O129 2.468 . S
Gd94 O130 2.427 . S
Gd94 O132 2.388 . S
Gd94 O133 2.386 . S
Gd94 O137 2.307 . S
Gd94 C147 2.805 . S
Gd95 N90 2.622 . S
Gd95 N96 2.570 . S
Gd95 O127 2.386 . S
Gd95 O131 2.307 . S
Gd95 O134 2.353 . S
Gd95 O135 2.468 . S
Gd95 O136 2.427 . S
Gd95 O138 2.388 . S
Gd95 C159 2.805 . S
N96 C86 1.359 . S
N96 Gd95 2.570 . S
N96 C98 1.343 . S
C97 C85 1.422 . S
C97 C99 1.321 . S
C97 H105 0.931 . S
C98 N96 1.343 . S
C98 C99 1.390 . S
C98 H100 0.931 . S
C99 C97 1.321 . S
C99 C98 1.390 . S
C99 H101 0.930 . S
H100 C98 0.931 . S
H101 C99 0.930 . S
H102 C125 0.931 . S
H103 C91 0.929 . S
H104 C126 0.930 . S
H105 C97 0.931 . S
H106 C87 0.930 . S
H107 C116 0.929 . S
H108 C92 0.931 . S
H109 C93 0.930 . S
H110 C148 0.930 . S
H111 C89 0.929 . S
H112 C117 0.931 . S
H113 C118 0.930 . S
N114 Gd94 2.622 . S
N114 C115 1.369 . S
N114 C116 1.338 . S
C115 N114 1.369 . S
C115 C119 1.415 . S
C115 C122 1.422 . S
C116 H107 0.929 . S
C116 N114 1.338 . S
C116 C118 1.378 . S
C117 H112 0.931 . S
C117 C118 1.348 . S
C117 C119 1.413 . S
C118 H113 0.930 . S
C118 C116 1.378 . S
C118 C117 1.348 . S
C119 C115 1.415 . S
C119 C117 1.413 . S
C119 C149 1.437 . S
H120 C149 0.929 . S
N121 Gd94 2.570 . S
N121 C122 1.359 . S
N121 C125 1.343 . S
C122 C115 1.422 . S
C122 N121 1.359 . S
C122 C124 1.421 . S
C123 C124 1.422 . S
C123 C126 1.321 . S
C123 H150 0.931 . S
C124 C122 1.421 . S
C124 C123 1.422 . S
C124 C148 1.417 . S
C125 H102 0.931 . S
C125 N121 1.343 . S
C125 C126 1.390 . S
C126 H104 0.930 . S
C126 C123 1.321 . S
C126 C125 1.390 . S
O127 Gd95 2.386 . S
O127 C139 1.265 . S
O128 Gd94 2.353 . S
O128 C139 1.242 . S
O129 Gd94 2.468 . S
O129 C147 1.263 . S
O130 Gd94 2.427 . S
O130 C147 1.252 . S
O131 Gd95 2.307 . S
O131 C140 1.261 . S
O132 Gd94 2.388 . S
O132 C140 1.252 . S
O133 Gd94 2.386 . S
O133 C151 1.265 . S
O134 Gd95 2.353 . S
O134 C151 1.242 . S
O135 Gd95 2.468 . S
O135 C159 1.263 . S
O136 Gd95 2.427 . S
O136 C159 1.252 . S
O137 Gd94 2.307 . S
O137 C152 1.261 . S
O138 Gd95 2.388 . S
O138 C152 1.252 . S
C139 O127 1.265 . S
C139 O128 1.242 . S
C140 O131 1.261 . S
C140 O132 1.252 . S
C141 C144 1.394 . S
C141 C146 1.370 . S
C141 C147 1.500 . S
C142 C145 1.383 . S
C142 C146 1.395 1_554 S
C143 C144 1.396 1_554 S
C143 C145 1.365 . S
C143 H160 0.929 . S
C144 C141 1.394 . S
C144 C143 1.396 1_556 S
C144 H161 0.930 . S
C145 C142 1.383 . S
C145 C143 1.365 . S
C145 H162 0.931 . S
C146 C141 1.370 . S
C146 C142 1.395 1_556 S
C146 H163 0.930 . S
C147 Gd94 2.805 . S
C147 O129 1.263 . S
C147 O130 1.252 . S
C147 C141 1.500 . S
C148 H110 0.930 . S
C148 C124 1.417 . S
C148 C149 1.329 . S
C149 C119 1.437 . S
C149 H120 0.929 . S
C149 C148 1.329 . S
H150 C123 0.931 . S
C151 O133 1.265 . S
C151 O134 1.242 . S
C152 O137 1.261 . S
C152 O138 1.252 . S
C153 C156 1.394 . S
C153 C158 1.370 . S
C153 C159 1.500 . S
C154 C157 1.383 . S
C154 C158 1.395 . S
C155 C156 1.396 . S
C155 C157 1.365 . S
C155 H164 0.929 . S
C156 C153 1.394 . S
C156 C155 1.396 . S
C156 H165 0.930 . S
C157 C154 1.383 . S
C157 C155 1.365 . S
C157 H166 0.931 . S
C158 C153 1.370 . S
C158 C154 1.395 . S
C158 H167 0.930 . S
C159 Gd95 2.805 . S
C159 O135 1.263 . S
C159 O136 1.252 . S
C159 C153 1.500 . S
H160 C143 0.929 . S
H161 C144 0.930 . S
H162 C145 0.931 . S
H163 C146 0.930 . S
H164 C155 0.929 . S
H165 C156 0.930 . S
H166 C157 0.931 . S
H167 C158 0.930 . S
C168 C170 1.422 . S
C168 C172 1.415 . S
C168 N174 1.369 . S
C169 C170 1.421 . S
C169 C171 1.417 . S
C169 C181 1.422 . S
C170 C168 1.422 . S
C170 C169 1.421 . S
C170 N180 1.359 . S
C171 C169 1.417 . S
C171 C173 1.329 . S
C171 H190 0.930 . S
C172 C168 1.415 . S
C172 C173 1.437 . S
C172 C176 1.413 . S
C173 C171 1.329 . S
C173 C172 1.437 . S
C173 H195 0.929 . S
N174 C168 1.369 . S
N174 C175 1.338 . S
N174 Gd179 2.622 . S
C175 N174 1.338 . S
C175 C177 1.378 . S
C175 H187 0.929 . S
C176 C172 1.413 . S
C176 C177 1.348 . S
C176 H192 0.931 . S
C177 C175 1.378 . S
C177 C176 1.348 . S
C177 H193 0.930 . S
Gd178 N198 2.622 . S
Gd178 N205 2.570 . S
Gd178 O212 2.353 1_565 S
Gd178 O213 2.468 . S
Gd178 O214 2.427 . S
Gd178 O216 2.388 . S
Gd178 O217 2.386 1_554 S
Gd178 O221 2.307 1_565 S
Gd178 C231 2.805 . S
Gd179 N174 2.622 . S
Gd179 N180 2.570 . S
Gd179 O211 2.386 1_556 S
Gd179 O215 2.307 1_545 S
Gd179 O218 2.353 1_545 S
Gd179 O219 2.468 . S
Gd179 O220 2.427 . S
Gd179 O222 2.388 . S
Gd179 C243 2.805 . S
N180 C170 1.359 . S
N180 Gd179 2.570 . S
N180 C182 1.343 . S
C181 C169 1.422 . S
C181 C183 1.321 . S
C181 H189 0.931 . S
C182 N180 1.343 . S
C182 C183 1.390 . S
C182 H184 0.931 . S
C183 C181 1.321 . S
C183 C182 1.390 . S
C183 H185 0.930 . S
H184 C182 0.931 . S
H185 C183 0.930 . S
H186 C209 0.931 . S
H187 C175 0.929 . S
H188 C210 0.930 . S
H189 C181 0.931 . S
H190 C171 0.930 . S
H191 C200 0.929 . S
H192 C176 0.931 . S
H193 C177 0.930 . S
H194 C232 0.930 . S
H195 C173 0.929 . S
H196 C201 0.931 . S
H197 C202 0.930 . S
N198 Gd178 2.622 . S
N198 C199 1.369 . S
N198 C200 1.338 . S
C199 N198 1.369 . S
C199 C203 1.415 . S
C199 C206 1.422 . S
C200 H191 0.929 . S
C200 N198 1.338 . S
C200 C202 1.378 . S
C201 H196 0.931 . S
C201 C202 1.348 . S
C201 C203 1.413 . S
C202 H197 0.930 . S
C202 C200 1.378 . S
C202 C201 1.348 . S
C203 C199 1.415 . S
C203 C201 1.413 . S
C203 C233 1.437 . S
H204 C233 0.929 . S
N205 Gd178 2.570 . S
N205 C206 1.359 . S
N205 C209 1.343 . S
C206 C199 1.422 . S
C206 N205 1.359 . S
C206 C208 1.421 . S
C207 C208 1.422 . S
C207 C210 1.321 . S
C207 H234 0.931 . S
C208 C206 1.421 . S
C208 C207 1.422 . S
C208 C232 1.417 . S
C209 H186 0.931 . S
C209 N205 1.343 . S
C209 C210 1.390 . S
C210 H188 0.930 . S
C210 C207 1.321 . S
C210 C209 1.390 . S
O211 Gd179 2.386 1_554 S
O211 C223 1.265 . S
O212 Gd178 2.353 1_545 S
O212 C223 1.242 . S
O213 Gd178 2.468 . S
O213 C231 1.263 . S
O214 Gd178 2.427 . S
O214 C231 1.252 . S
O215 Gd179 2.307 1_565 S
O215 C224 1.261 . S
O216 Gd178 2.388 . S
O216 C224 1.252 1_554 S
O217 Gd178 2.386 1_556 S
O217 C235 1.265 . S
O218 Gd179 2.353 1_565 S
O218 C235 1.242 . S
O219 Gd179 2.468 . S
O219 C243 1.263 . S
O220 Gd179 2.427 . S
O220 C243 1.252 . S
O221 Gd178 2.307 1_545 S
O221 C236 1.261 . S
O222 Gd179 2.388 . S
O222 C236 1.252 1_556 S
C223 O211 1.265 . S
C223 O212 1.242 . S
C224 O215 1.261 . S
C224 O216 1.252 1_556 S
C225 C228 1.394 . S
C225 C230 1.348 1_565 S
C225 C231 1.500 . S
C226 C229 1.383 1_545 S
C226 C230 1.397 . S
C227 C228 1.396 . S
C227 C229 1.365 . S
C227 H244 0.929 . S
C228 C225 1.394 . S
C228 C227 1.396 . S
C228 H245 0.930 . S
C229 C226 1.383 1_565 S
C229 C227 1.365 . S
C229 H246 0.931 . S
C230 C225 1.348 1_545 S
C230 C226 1.397 . S
C230 H247 0.952 . S
C231 Gd178 2.805 . S
C231 O213 1.263 . S
C231 O214 1.252 . S
C231 C225 1.500 . S
C232 H194 0.930 . S
C232 C208 1.417 . S
C232 C233 1.329 . S
C233 C203 1.437 . S
C233 H204 0.929 . S
C233 C232 1.329 . S
H234 C207 0.931 . S
C235 O217 1.265 . S
C235 O218 1.242 . S
C236 O221 1.261 . S
C236 O222 1.252 1_554 S
C237 C240 1.394 . S
C237 C242 1.355 1_545 S
C237 C243 1.500 . S
C238 C241 1.383 1_565 S
C238 C242 1.396 . S
C239 C240 1.396 . S
C239 C241 1.365 . S
C239 H248 0.929 . S
C240 C237 1.394 . S
C240 C239 1.396 . S
C240 H249 0.930 . S
C241 C238 1.383 1_545 S
C241 C239 1.365 . S
C241 H250 0.931 . S
C242 C237 1.355 1_565 S
C242 C238 1.396 . S
C242 H251 0.946 . S
C243 Gd179 2.805 . S
C243 O219 1.263 . S
C243 O220 1.252 . S
C243 C237 1.500 . S
H244 C227 0.929 . S
H245 C228 0.930 . S
H246 C229 0.931 . S
H247 C230 0.952 . S
H248 C239 0.929 . S
H249 C240 0.930 . S
H250 C241 0.931 . S
H251 C242 0.946 . S
C252 C254 1.422 . S
C252 C256 1.415 . S
C252 N258 1.369 . S
C253 C254 1.421 . S
C253 C255 1.417 . S
C253 C265 1.422 . S
C254 C252 1.422 . S
C254 C253 1.421 . S
C254 N264 1.359 . S
C255 C253 1.417 . S
C255 C257 1.329 . S
C255 H274 0.930 . S
C256 C252 1.415 . S
C256 C257 1.437 . S
C256 C260 1.413 . S
C257 C255 1.329 . S
C257 C256 1.437 . S
C257 H279 0.929 . S
N258 C252 1.369 . S
N258 C259 1.338 . S
N258 Gd263 2.622 . S
C259 N258 1.338 . S
C259 C261 1.378 . S
C259 H271 0.929 . S
C260 C256 1.413 . S
C260 C261 1.348 . S
C260 H276 0.931 . S
C261 C259 1.378 . S
C261 C260 1.348 . S
C261 H277 0.930 . S
Gd262 N282 2.622 . S
Gd262 N289 2.570 . S
Gd262 O296 2.353 . S
Gd262 O297 2.468 . S
Gd262 O298 2.427 . S
Gd262 O300 2.388 . S
Gd262 O301 2.386 . S
Gd262 O305 2.307 . S
Gd262 C315 2.805 . S
Gd263 N258 2.622 . S
Gd263 N264 2.570 . S
Gd263 O295 2.386 . S
Gd263 O299 2.307 . S
Gd263 O302 2.353 . S
Gd263 O303 2.468 . S
Gd263 O304 2.427 . S
Gd263 O306 2.388 . S
Gd263 C327 2.805 . S
N264 C254 1.359 . S
N264 Gd263 2.570 . S
N264 C266 1.343 . S
C265 C253 1.422 . S
C265 C267 1.321 . S
C265 H273 0.931 . S
C266 N264 1.343 . S
C266 C267 1.390 . S
C266 H268 0.931 . S
C267 C265 1.321 . S
C267 C266 1.390 . S
C267 H269 0.930 . S
H268 C266 0.931 . S
H269 C267 0.930 . S
H270 C293 0.931 . S
H271 C259 0.929 . S
H272 C294 0.930 . S
H273 C265 0.931 . S
H274 C255 0.930 . S
H275 C284 0.929 . S
H276 C260 0.931 . S
H277 C261 0.930 . S
H278 C316 0.930 . S
H279 C257 0.929 . S
H280 C285 0.931 . S
H281 C286 0.930 . S
N282 Gd262 2.622 . S
N282 C283 1.369 . S
N282 C284 1.338 . S
C283 N282 1.369 . S
C283 C287 1.415 . S
C283 C290 1.422 . S
C284 H275 0.929 . S
C284 N282 1.338 . S
C284 C286 1.378 . S
C285 H280 0.931 . S
C285 C286 1.348 . S
C285 C287 1.413 . S
C286 H281 0.930 . S
C286 C284 1.378 . S
C286 C285 1.348 . S
C287 C283 1.415 . S
C287 C285 1.413 . S
C287 C317 1.437 . S
H288 C317 0.929 . S
N289 Gd262 2.570 . S
N289 C290 1.359 . S
N289 C293 1.343 . S
C290 C283 1.422 . S
C290 N289 1.359 . S
C290 C292 1.421 . S
C291 C292 1.422 . S
C291 C294 1.321 . S
C291 H318 0.931 . S
C292 C290 1.421 . S
C292 C291 1.422 . S
C292 C316 1.417 . S
C293 H270 0.931 . S
C293 N289 1.343 . S
C293 C294 1.390 . S
C294 H272 0.930 . S
C294 C291 1.321 . S
C294 C293 1.390 . S
O295 Gd263 2.386 . S
O295 C307 1.265 . S
O296 Gd262 2.353 . S
O296 C307 1.242 . S
O297 Gd262 2.468 . S
O297 C315 1.263 . S
O298 Gd262 2.427 . S
O298 C315 1.252 . S
O299 Gd263 2.307 . S
O299 C308 1.261 . S
O300 Gd262 2.388 . S
O300 C308 1.252 . S
O301 Gd262 2.386 . S
O301 C319 1.265 . S
O302 Gd263 2.353 . S
O302 C319 1.242 . S
O303 Gd263 2.468 . S
O303 C327 1.263 . S
O304 Gd263 2.427 . S
O304 C327 1.252 . S
O305 Gd262 2.307 . S
O305 C320 1.261 . S
O306 Gd263 2.388 . S
O306 C320 1.252 . S
C307 O295 1.265 . S
C307 O296 1.242 . S
C308 O299 1.261 . S
C308 O300 1.252 . S
C309 C312 1.394 . S
C309 C314 1.370 . S
C309 C315 1.500 . S
C310 C313 1.383 . S
C310 C314 1.395 1_556 S
C311 C312 1.396 1_556 S
C311 C313 1.365 . S
C311 H328 0.929 . S
C312 C309 1.394 . S
C312 C311 1.396 1_554 S
C312 H329 0.930 . S
C313 C310 1.383 . S
C313 C311 1.365 . S
C313 H330 0.931 . S
C314 C309 1.370 . S
C314 C310 1.395 1_554 S
C314 H331 0.930 . S
C315 Gd262 2.805 . S
C315 O297 1.263 . S
C315 O298 1.252 . S
C315 C309 1.500 . S
C316 H278 0.930 . S
C316 C292 1.417 . S
C316 C317 1.329 . S
C317 C287 1.437 . S
C317 H288 0.929 . S
C317 C316 1.329 . S
H318 C291 0.931 . S
C319 O301 1.265 . S
C319 O302 1.242 . S
C320 O305 1.261 . S
C320 O306 1.252 . S
C321 C324 1.394 . S
C321 C326 1.370 . S
C321 C327 1.500 . S
C322 C325 1.383 . S
C322 C326 1.395 . S
C323 C324 1.396 . S
C323 C325 1.365 . S
C323 H332 0.929 . S
C324 C321 1.394 . S
C324 C323 1.396 . S
C324 H333 0.930 . S
C325 C322 1.383 . S
C325 C323 1.365 . S
C325 H334 0.931 . S
C326 C321 1.370 . S
C326 C322 1.395 . S
C326 H335 0.930 . S
C327 Gd263 2.805 . S
C327 O303 1.263 . S
C327 O304 1.252 . S
C327 C321 1.500 . S
H328 C311 0.929 . S
H329 C312 0.930 . S
H330 C313 0.931 . S
H331 C314 0.930 . S
H332 C323 0.929 . S
H333 C324 0.930 . S
H334 C325 0.931 . S
H335 C326 0.930 . S
C336 C338 1.422 . S
C336 C340 1.415 . S
C336 N342 1.369 . S
C337 C338 1.421 . S
C337 C339 1.417 . S
C337 C349 1.422 . S
C338 C336 1.422 . S
C338 C337 1.421 . S
C338 N348 1.359 . S
C339 C337 1.417 . S
C339 C341 1.329 . S
C339 H358 0.930 . S
C340 C336 1.415 . S
C340 C341 1.437 . S
C340 C344 1.413 . S
C341 C339 1.329 . S
C341 C340 1.437 . S
C341 H363 0.929 . S
N342 C336 1.369 . S
N342 C343 1.338 . S
N342 Gd347 2.622 . S
C343 N342 1.338 . S
C343 C345 1.378 . S
C343 H355 0.929 . S
C344 C340 1.413 . S
C344 C345 1.348 . S
C344 H360 0.931 . S
C345 C343 1.378 . S
C345 C344 1.348 . S
C345 H361 0.930 . S
Gd346 N366 2.622 . S
Gd346 N373 2.570 . S
Gd346 O380 2.353 . S
Gd346 O381 2.468 . S
Gd346 O382 2.427 . S
Gd346 O384 2.388 . S
Gd346 O385 2.386 . S
Gd346 O389 2.307 . S
Gd346 C399 2.805 . S
Gd347 N342 2.622 . S
Gd347 N348 2.570 . S
Gd347 O379 2.386 . S
Gd347 O383 2.307 . S
Gd347 O386 2.353 . S
Gd347 O387 2.468 . S
Gd347 O388 2.427 . S
Gd347 O390 2.388 . S
Gd347 C411 2.805 . S
N348 C338 1.359 . S
N348 Gd347 2.570 . S
N348 C350 1.343 . S
C349 C337 1.422 . S
C349 C351 1.321 . S
C349 H357 0.931 . S
C350 N348 1.343 . S
C350 C351 1.390 . S
C350 H352 0.931 . S
C351 C349 1.321 . S
C351 C350 1.390 . S
C351 H353 0.930 . S
H352 C350 0.931 . S
H353 C351 0.930 . S
H354 C377 0.931 . S
H355 C343 0.929 . S
H356 C378 0.930 . S
H357 C349 0.931 . S
H358 C339 0.930 . S
H359 C368 0.929 . S
H360 C344 0.931 . S
H361 C345 0.930 . S
H362 C400 0.930 . S
H363 C341 0.929 . S
H364 C369 0.931 . S
H365 C370 0.930 . S
N366 Gd346 2.622 . S
N366 C367 1.369 . S
N366 C368 1.338 . S
C367 N366 1.369 . S
C367 C371 1.415 . S
C367 C374 1.422 . S
C368 H359 0.929 . S
C368 N366 1.338 . S
C368 C370 1.378 . S
C369 H364 0.931 . S
C369 C370 1.348 . S
C369 C371 1.413 . S
C370 H365 0.930 . S
C370 C368 1.378 . S
C370 C369 1.348 . S
C371 C367 1.415 . S
C371 C369 1.413 . S
C371 C401 1.437 . S
H372 C401 0.929 . S
N373 Gd346 2.570 . S
N373 C374 1.359 . S
N373 C377 1.343 . S
C374 C367 1.422 . S
C374 N373 1.359 . S
C374 C376 1.421 . S
C375 C376 1.422 . S
C375 C378 1.321 . S
C375 H402 0.931 . S
C376 C374 1.421 . S
C376 C375 1.422 . S
C376 C400 1.417 . S
C377 H354 0.931 . S
C377 N373 1.343 . S
C377 C378 1.390 . S
C378 H356 0.930 . S
C378 C375 1.321 . S
C378 C377 1.390 . S
O379 Gd347 2.386 . S
O379 C391 1.265 . S
O380 Gd346 2.353 . S
O380 C391 1.242 . S
O381 Gd346 2.468 . S
O381 C399 1.263 . S
O382 Gd346 2.427 . S
O382 C399 1.252 . S
O383 Gd347 2.307 . S
O383 C392 1.261 . S
O384 Gd346 2.388 . S
O384 C392 1.252 . S
O385 Gd346 2.386 . S
O385 C403 1.265 . S
O386 Gd347 2.353 . S
O386 C403 1.242 . S
O387 Gd347 2.468 . S
O387 C411 1.263 . S
O388 Gd347 2.427 . S
O388 C411 1.252 . S
O389 Gd346 2.307 . S
O389 C404 1.261 . S
O390 Gd347 2.388 . S
O390 C404 1.252 . S
C391 O379 1.265 . S
C391 O380 1.242 . S
C392 O383 1.261 . S
C392 O384 1.252 . S
C393 C396 1.394 . S
C393 C398 1.370 . S
C393 C399 1.500 . S
C394 C397 1.383 . S
C394 C398 1.395 . S
C395 C396 1.396 . S
C395 C397 1.365 . S
C395 H412 0.929 . S
C396 C393 1.394 . S
C396 C395 1.396 . S
C396 H413 0.930 . S
C397 C394 1.383 . S
C397 C395 1.365 . S
C397 H414 0.931 . S
C398 C393 1.370 . S
C398 C394 1.395 . S
C398 H415 0.930 . S
C399 Gd346 2.805 . S
C399 O381 1.263 . S
C399 O382 1.252 . S
C399 C393 1.500 . S
C400 H362 0.930 . S
C400 C376 1.417 . S
C400 C401 1.329 . S
C401 C371 1.437 . S
C401 H372 0.929 . S
C401 C400 1.329 . S
H402 C375 0.931 . S
C403 O385 1.265 . S
C403 O386 1.242 . S
C404 O389 1.261 . S
C404 O390 1.252 . S
C405 C408 1.394 . S
C405 C410 1.370 . S
C405 C411 1.500 . S
C406 C409 1.383 . S
C406 C410 1.395 1_556 S
C407 C408 1.396 1_556 S
C407 C409 1.365 . S
C407 H416 0.929 . S
C408 C405 1.394 . S
C408 C407 1.396 1_554 S
C408 H417 0.930 . S
C409 C406 1.383 . S
C409 C407 1.365 . S
C409 H418 0.931 . S
C410 C405 1.370 . S
C410 C406 1.395 1_554 S
C410 H419 0.930 . S
C411 Gd347 2.805 . S
C411 O387 1.263 . S
C411 O388 1.252 . S
C411 C405 1.500 . S
H412 C395 0.929 . S
H413 C396 0.930 . S
H414 C397 0.931 . S
H415 C398 0.930 . S
H416 C407 0.929 . S
H417 C408 0.930 . S
H418 C409 0.931 . S
H419 C410 0.930 . S
C420 C422 1.422 . S
C420 C424 1.415 . S
C420 N426 1.369 . S
C421 C422 1.421 . S
C421 C423 1.417 . S
C421 C433 1.422 . S
C422 C420 1.422 . S
C422 C421 1.421 . S
C422 N432 1.359 . S
C423 C421 1.417 . S
C423 C425 1.329 . S
C423 H442 0.930 . S
C424 C420 1.415 . S
C424 C425 1.437 . S
C424 C428 1.413 . S
C425 C423 1.329 . S
C425 C424 1.437 . S
C425 H447 0.929 . S
N426 C420 1.369 . S
N426 C427 1.338 . S
N426 Gd431 2.622 . S
C427 N426 1.338 . S
C427 C429 1.378 . S
C427 H439 0.929 . S
C428 C424 1.413 . S
C428 C429 1.348 . S
C428 H444 0.931 . S
C429 C427 1.378 . S
C429 C428 1.348 . S
C429 H445 0.930 . S
Gd430 N450 2.622 . S
Gd430 N457 2.570 . S
Gd430 O464 2.353 . S
Gd430 O465 2.468 . S
Gd430 O466 2.427 . S
Gd430 O468 2.388 . S
Gd430 O469 2.386 . S
Gd430 O473 2.307 . S
Gd430 C483 2.805 . S
Gd431 N426 2.622 . S
Gd431 N432 2.570 . S
Gd431 O463 2.386 . S
Gd431 O467 2.307 . S
Gd431 O470 2.353 . S
Gd431 O471 2.468 . S
Gd431 O472 2.427 . S
Gd431 O474 2.388 . S
Gd431 C495 2.805 . S
N432 C422 1.359 . S
N432 Gd431 2.570 . S
N432 C434 1.343 . S
C433 C421 1.422 . S
C433 C435 1.321 . S
C433 H441 0.931 . S
C434 N432 1.343 . S
C434 C435 1.390 . S
C434 H436 0.931 . S
C435 C433 1.321 . S
C435 C434 1.390 . S
C435 H437 0.930 . S
H436 C434 0.931 . S
H437 C435 0.930 . S
H438 C461 0.931 . S
H439 C427 0.929 . S
H440 C462 0.930 . S
H441 C433 0.931 . S
H442 C423 0.930 . S
H443 C452 0.929 . S
H444 C428 0.931 . S
H445 C429 0.930 . S
H446 C484 0.930 . S
H447 C425 0.929 . S
H448 C453 0.931 . S
H449 C454 0.930 . S
N450 Gd430 2.622 . S
N450 C451 1.369 . S
N450 C452 1.338 . S
C451 N450 1.369 . S
C451 C455 1.415 . S
C451 C458 1.422 . S
C452 H443 0.929 . S
C452 N450 1.338 . S
C452 C454 1.378 . S
C453 H448 0.931 . S
C453 C454 1.348 . S
C453 C455 1.413 . S
C454 H449 0.930 . S
C454 C452 1.378 . S
C454 C453 1.348 . S
C455 C451 1.415 . S
C455 C453 1.413 . S
C455 C485 1.437 . S
H456 C485 0.929 . S
N457 Gd430 2.570 . S
N457 C458 1.359 . S
N457 C461 1.343 . S
C458 C451 1.422 . S
C458 N457 1.359 . S
C458 C460 1.421 . S
C459 C460 1.422 . S
C459 C462 1.321 . S
C459 H486 0.931 . S
C460 C458 1.421 . S
C460 C459 1.422 . S
C460 C484 1.417 . S
C461 H438 0.931 . S
C461 N457 1.343 . S
C461 C462 1.390 . S
C462 H440 0.930 . S
C462 C459 1.321 . S
C462 C461 1.390 . S
O463 Gd431 2.386 . S
O463 C475 1.265 . S
O464 Gd430 2.353 . S
O464 C475 1.242 . S
O465 Gd430 2.468 . S
O465 C483 1.263 . S
O466 Gd430 2.427 . S
O466 C483 1.252 . S
O467 Gd431 2.307 . S
O467 C476 1.261 . S
O468 Gd430 2.388 . S
O468 C476 1.252 . S
O469 Gd430 2.386 . S
O469 C487 1.265 . S
O470 Gd431 2.353 . S
O470 C487 1.242 . S
O471 Gd431 2.468 . S
O471 C495 1.263 . S
O472 Gd431 2.427 . S
O472 C495 1.252 . S
O473 Gd430 2.307 . S
O473 C488 1.261 . S
O474 Gd431 2.388 . S
O474 C488 1.252 . S
C475 O463 1.265 . S
C475 O464 1.242 . S
C476 O467 1.261 . S
C476 O468 1.252 . S
C477 C480 1.394 . S
C477 C482 1.370 . S
C477 C483 1.500 . S
C478 C481 1.383 . S
C478 C482 1.395 . S
C479 C480 1.396 . S
C479 C481 1.365 . S
C479 H496 0.929 . S
C480 C477 1.394 . S
C480 C479 1.396 . S
C480 H497 0.930 . S
C481 C478 1.383 . S
C481 C479 1.365 . S
C481 H498 0.931 . S
C482 C477 1.370 . S
C482 C478 1.395 . S
C482 H499 0.930 . S
C483 Gd430 2.805 . S
C483 O465 1.263 . S
C483 O466 1.252 . S
C483 C477 1.500 . S
C484 H446 0.930 . S
C484 C460 1.417 . S
C484 C485 1.329 . S
C485 C455 1.437 . S
C485 H456 0.929 . S
C485 C484 1.329 . S
H486 C459 0.931 . S
C487 O469 1.265 . S
C487 O470 1.242 . S
C488 O473 1.261 . S
C488 O474 1.252 . S
C489 C492 1.394 . S
C489 C494 1.370 . S
C489 C495 1.500 . S
C490 C493 1.383 . S
C490 C494 1.395 1_554 S
C491 C492 1.396 1_554 S
C491 C493 1.365 . S
C491 H500 0.929 . S
C492 C489 1.394 . S
C492 C491 1.396 1_556 S
C492 H501 0.930 . S
C493 C490 1.383 . S
C493 C491 1.365 . S
C493 H502 0.931 . S
C494 C489 1.370 . S
C494 C490 1.395 1_556 S
C494 H503 0.930 . S
C495 Gd431 2.805 . S
C495 O471 1.263 . S
C495 O472 1.252 . S
C495 C489 1.500 . S
H496 C479 0.929 . S
H497 C480 0.930 . S
H498 C481 0.931 . S
H499 C482 0.930 . S
H500 C491 0.929 . S
H501 C492 0.930 . S
H502 C493 0.931 . S
H503 C494 0.930 . S
C504 C506 1.422 . S
C504 C508 1.415 . S
C504 N510 1.369 . S
C505 C506 1.421 . S
C505 C507 1.417 . S
C505 C517 1.422 . S
C506 C504 1.422 . S
C506 C505 1.421 . S
C506 N516 1.359 . S
C507 C505 1.417 . S
C507 C509 1.329 . S
C507 H526 0.930 . S
C508 C504 1.415 . S
C508 C509 1.437 . S
C508 C512 1.413 . S
C509 C507 1.329 . S
C509 C508 1.437 . S
C509 H531 0.929 . S
N510 C504 1.369 . S
N510 C511 1.338 . S
N510 Gd515 2.622 . S
C511 N510 1.338 . S
C511 C513 1.378 . S
C511 H523 0.929 . S
C512 C508 1.413 . S
C512 C513 1.348 . S
C512 H528 0.931 . S
C513 C511 1.378 . S
C513 C512 1.348 . S
C513 H529 0.930 . S
Gd514 N534 2.622 . S
Gd514 N541 2.570 . S
Gd514 O548 2.353 . S
Gd514 O549 2.468 . S
Gd514 O550 2.427 . S
Gd514 O552 2.388 . S
Gd514 O553 2.386 1_554 S
Gd514 O557 2.307 . S
Gd514 C567 2.805 . S
Gd515 N510 2.622 . S
Gd515 N516 2.570 . S
Gd515 O547 2.386 1_556 S
Gd515 O551 2.307 . S
Gd515 O554 2.353 . S
Gd515 O555 2.468 . S
Gd515 O556 2.427 . S
Gd515 O558 2.388 . S
Gd515 C579 2.805 . S
N516 C506 1.359 . S
N516 Gd515 2.570 . S
N516 C518 1.343 . S
C517 C505 1.422 . S
C517 C519 1.321 . S
C517 H525 0.931 . S
C518 N516 1.343 . S
C518 C519 1.390 . S
C518 H520 0.931 . S
C519 C517 1.321 . S
C519 C518 1.390 . S
C519 H521 0.930 . S
H520 C518 0.931 . S
H521 C519 0.930 . S
H522 C545 0.931 . S
H523 C511 0.929 . S
H524 C546 0.930 . S
H525 C517 0.931 . S
H526 C507 0.930 . S
H527 C536 0.929 . S
H528 C512 0.931 . S
H529 C513 0.930 . S
H530 C568 0.930 . S
H531 C509 0.929 . S
H532 C537 0.931 . S
H533 C538 0.930 . S
N534 Gd514 2.622 . S
N534 C535 1.369 . S
N534 C536 1.338 . S
C535 N534 1.369 . S
C535 C539 1.415 . S
C535 C542 1.422 . S
C536 H527 0.929 . S
C536 N534 1.338 . S
C536 C538 1.378 . S
C537 H532 0.931 . S
C537 C538 1.348 . S
C537 C539 1.413 . S
C538 H533 0.930 . S
C538 C536 1.378 . S
C538 C537 1.348 . S
C539 C535 1.415 . S
C539 C537 1.413 . S
C539 C569 1.437 . S
H540 C569 0.929 . S
N541 Gd514 2.570 . S
N541 C542 1.359 . S
N541 C545 1.343 . S
C542 C535 1.422 . S
C542 N541 1.359 . S
C542 C544 1.421 . S
C543 C544 1.422 . S
C543 C546 1.321 . S
C543 H570 0.931 . S
C544 C542 1.421 . S
C544 C543 1.422 . S
C544 C568 1.417 . S
C545 H522 0.931 . S
C545 N541 1.343 . S
C545 C546 1.390 . S
C546 H524 0.930 . S
C546 C543 1.321 . S
C546 C545 1.390 . S
O547 Gd515 2.386 1_554 S
O547 C559 1.265 . S
O548 Gd514 2.353 . S
O548 C559 1.242 . S
O549 Gd514 2.468 . S
O549 C567 1.263 . S
O550 Gd514 2.427 . S
O550 C567 1.252 . S
O551 Gd515 2.307 . S
O551 C560 1.261 . S
O552 Gd514 2.388 . S
O552 C560 1.252 1_554 S
O553 Gd514 2.386 1_556 S
O553 C571 1.265 . S
O554 Gd515 2.353 . S
O554 C571 1.242 . S
O555 Gd515 2.468 . S
O555 C579 1.263 . S
O556 Gd515 2.427 . S
O556 C579 1.252 . S
O557 Gd514 2.307 . S
O557 C572 1.261 . S
O558 Gd515 2.388 . S
O558 C572 1.252 1_556 S
C559 O547 1.265 . S
C559 O548 1.242 . S
C560 O551 1.261 . S
C560 O552 1.252 1_556 S
C561 C564 1.394 . S
C561 C566 1.370 . S
C561 C567 1.500 . S
C562 C565 1.383 . S
C562 C566 1.395 . S
C563 C564 1.396 . S
C563 C565 1.365 . S
C563 H580 0.929 . S
C564 C561 1.394 . S
C564 C563 1.396 . S
C564 H581 0.930 . S
C565 C562 1.383 . S
C565 C563 1.365 . S
C565 H582 0.931 . S
C566 C561 1.370 . S
C566 C562 1.395 . S
C566 H583 0.930 . S
C567 Gd514 2.805 . S
C567 O549 1.263 . S
C567 O550 1.252 . S
C567 C561 1.500 . S
C568 H530 0.930 . S
C568 C544 1.417 . S
C568 C569 1.329 . S
C569 C539 1.437 . S
C569 H540 0.929 . S
C569 C568 1.329 . S
H570 C543 0.931 . S
C571 O553 1.265 . S
C571 O554 1.242 . S
C572 O557 1.261 . S
C572 O558 1.252 1_554 S
C573 C576 1.394 . S
C573 C578 1.370 . S
C573 C579 1.500 . S
C574 C577 1.383 . S
C574 C578 1.395 . S
C575 C576 1.396 . S
C575 C577 1.365 . S
C575 H584 0.929 . S
C576 C573 1.394 . S
C576 C575 1.396 . S
C576 H585 0.930 . S
C577 C574 1.383 . S
C577 C575 1.365 . S
C577 H586 0.931 . S
C578 C573 1.370 . S
C578 C574 1.395 . S
C578 H587 0.930 . S
C579 Gd515 2.805 . S
C579 O555 1.263 . S
C579 O556 1.252 . S
C579 C573 1.500 . S
H580 C563 0.929 . S
H581 C564 0.930 . S
H582 C565 0.931 . S
H583 C566 0.930 . S
H584 C575 0.929 . S
H585 C576 0.930 . S
H586 C577 0.931 . S
H587 C578 0.930 . S
C588 C590 1.422 . S
C588 C592 1.415 . S
C588 N594 1.369 1_455 S
C589 C590 1.421 . S
C589 C591 1.417 . S
C589 C601 1.422 . S
C590 C588 1.422 . S
C590 C589 1.421 . S
C590 N600 1.359 . S
C591 C589 1.417 . S
C591 C593 1.329 . S
C591 H610 0.930 . S
C592 C588 1.415 . S
C592 C593 1.437 . S
C592 C596 1.413 1_455 S
C593 C591 1.329 . S
C593 C592 1.437 . S
C593 H615 0.929 . S
N594 C588 1.369 1_655 S
N594 C595 1.338 . S
N594 Gd599 2.623 . S
C595 N594 1.338 . S
C595 C597 1.378 . S
C595 H607 0.929 . S
C596 C592 1.413 1_655 S
C596 C597 1.348 . S
C596 H612 0.931 . S
C597 C595 1.378 . S
C597 C596 1.348 . S
C597 H613 0.930 . S
Gd598 N618 2.623 . S
Gd598 N625 2.541 1_455 S
Gd598 O632 2.374 . S
Gd598 O633 2.463 1_455 S
Gd598 O634 2.446 . S
Gd598 O636 2.414 . S
Gd598 O637 2.368 1_455 S
Gd598 O641 2.285 1_455 S
Gd598 C651 2.813 . S
Gd599 N594 2.623 . S
Gd599 N600 2.550 1_655 S
Gd599 O631 2.373 1_655 S
Gd599 O635 2.291 1_655 S
Gd599 O638 2.368 . S
Gd599 O639 2.464 1_655 S
Gd599 O640 2.440 . S
Gd599 O642 2.407 . S
Gd599 C663 2.810 . S
N600 C590 1.359 . S
N600 Gd599 2.550 1_455 S
N600 C602 1.343 . S
C601 C589 1.422 . S
C601 C603 1.321 . S
C601 H609 0.931 . S
C602 N600 1.343 . S
C602 C603 1.390 . S
C602 H604 0.931 . S
C603 C601 1.321 . S
C603 C602 1.390 . S
C603 H605 0.930 . S
H604 C602 0.931 . S
H605 C603 0.930 . S
H606 C629 0.931 . S
H607 C595 0.929 . S
H608 C630 0.930 . S
H609 C601 0.931 . S
H610 C591 0.930 . S
H611 C620 0.929 . S
H612 C596 0.931 . S
H613 C597 0.930 . S
H614 C652 0.930 . S
H615 C593 0.929 . S
H616 C621 0.931 . S
H617 C622 0.930 . S
N618 Gd598 2.623 . S
N618 C619 1.369 1_455 S
N618 C620 1.338 . S
C619 N618 1.369 1_655 S
C619 C623 1.415 . S
C619 C626 1.422 . S
C620 H611 0.929 . S
C620 N618 1.338 . S
C620 C622 1.378 . S
C621 H616 0.931 . S
C621 C622 1.348 . S
C621 C623 1.413 1_455 S
C622 H617 0.930 . S
C622 C620 1.378 . S
C622 C621 1.348 . S
C623 C619 1.415 . S
C623 C621 1.413 1_655 S
C623 C653 1.437 . S
H624 C653 0.929 . S
N625 Gd598 2.541 1_655 S
N625 C626 1.359 . S
N625 C629 1.343 . S
C626 C619 1.422 . S
C626 N625 1.359 . S
C626 C628 1.421 . S
C627 C628 1.422 . S
C627 C630 1.321 . S
C627 H654 0.931 . S
C628 C626 1.421 . S
C628 C627 1.422 . S
C628 C652 1.417 . S
C629 H606 0.931 . S
C629 N625 1.343 . S
C629 C630 1.390 . S
C630 H608 0.930 . S
C630 C627 1.321 . S
C630 C629 1.390 . S
O631 Gd599 2.373 1_455 S
O631 C643 1.265 . S
O632 Gd598 2.374 . S
O632 C643 1.242 . S
O633 Gd598 2.463 1_655 S
O633 C651 1.263 1_655 S
O634 Gd598 2.446 . S
O634 C651 1.252 . S
O635 Gd599 2.291 1_455 S
O635 C644 1.261 . S
O636 Gd598 2.414 . S
O636 C644 1.252 . S
O637 Gd598 2.368 1_655 S
O637 C655 1.265 . S
O638 Gd599 2.368 . S
O638 C655 1.242 . S
O639 Gd599 2.464 1_455 S
O639 C663 1.263 1_455 S
O640 Gd599 2.440 . S
O640 C663 1.252 . S
O641 Gd598 2.285 1_655 S
O641 C656 1.261 . S
O642 Gd599 2.407 . S
O642 C656 1.252 . S
C643 O631 1.265 . S
C643 O632 1.242 . S
C644 O635 1.261 . S
C644 O636 1.252 . S
C645 C648 1.394 . S
C645 C650 1.370 . S
C645 C651 1.500 . S
C646 C649 1.383 . S
C646 C650 1.395 . S
C647 C648 1.396 . S
C647 C649 1.365 . S
C647 H664 0.929 . S
C648 C645 1.394 . S
C648 C647 1.396 . S
C648 H665 0.930 . S
C649 C646 1.383 . S
C649 C647 1.365 . S
C649 H666 0.931 . S
C650 C645 1.370 . S
C650 C646 1.395 . S
C650 H667 0.930 1_455 S
C651 Gd598 2.813 . S
C651 O633 1.263 1_455 S
C651 O634 1.252 . S
C651 C645 1.500 . S
C652 H614 0.930 . S
C652 C628 1.417 . S
C652 C653 1.329 . S
C653 C623 1.437 . S
C653 H624 0.929 . S
C653 C652 1.329 . S
H654 C627 0.931 . S
C655 O637 1.265 . S
C655 O638 1.242 . S
C656 O641 1.261 . S
C656 O642 1.252 . S
C657 C660 1.394 . S
C657 C662 1.370 . S
C657 C663 1.500 . S
C658 C661 1.383 . S
C658 C662 1.395 . S
C659 C660 1.396 . S
C659 C661 1.365 . S
C659 H668 0.929 . S
C660 C657 1.394 . S
C660 C659 1.396 . S
C660 H669 0.930 . S
C661 C658 1.383 . S
C661 C659 1.365 . S
C661 H670 0.931 . S
C662 C657 1.370 . S
C662 C658 1.395 . S
C662 H671 0.930 1_655 S
C663 Gd599 2.810 . S
C663 O639 1.263 1_655 S
C663 O640 1.252 . S
C663 C657 1.500 . S
H664 C647 0.929 . S
H665 C648 0.930 . S
H666 C649 0.931 . S
H667 C650 0.930 1_655 S
H668 C659 0.929 . S
H669 C660 0.930 . S
H670 C661 0.931 . S
H671 C662 0.930 1_455 S
H672 C690 0.951 . S
H673 C692 0.951 . S
H674 C694 0.950 . S
H675 C695 0.950 . S
H676 C697 0.950 . S
H677 C700 0.950 . S
H678 C701 0.950 . S
H679 C703 0.950 . S
H680 C704 0.950 . S
H681 C705 0.951 . S
H682 C707 0.951 . S
H683 C709 0.950 . S
H684 C710 0.950 . S
H685 C712 0.950 . S
H686 C715 0.950 . S
H687 C716 0.950 . S
H688 C718 0.950 . S
H689 C719 0.950 . S
C690 H672 0.951 . S
C690 C691 1.366 . S
C690 C692 1.388 . S
C691 C690 1.366 . S
C691 C695 1.385 . S
C692 H673 0.951 . S
C692 C690 1.388 . S
C692 C693 1.366 . S
C693 C692 1.366 . S
C693 C694 1.414 . S
C693 C696 1.499 . S
C694 H674 0.950 . S
C694 C693 1.414 . S
C694 C695 1.374 . S
C695 H675 0.950 . S
C695 C691 1.385 . S
C695 C694 1.374 . S
C696 C693 1.499 . S
C696 C697 1.373 . S
C696 C698 1.389 . S
C697 H676 0.950 . S
C697 C696 1.373 . S
C697 C713 1.377 . S
C698 C696 1.389 . S
C698 C699 1.524 . S
C698 C712 1.377 . S
C699 C698 1.524 . S
C699 C700 1.397 . S
C699 C704 1.363 . S
C700 H677 0.950 . S
C700 C699 1.397 . S
C700 C701 1.334 . S
C701 H678 0.950 . S
C701 C700 1.334 . S
C701 C702 1.287 . S
C702 C701 1.287 . S
C702 C703 1.524 . S
C702 H721 0.913 . S
C703 H679 0.950 . S
C703 C702 1.524 . S
C703 C704 1.415 . S
C704 H680 0.950 . S
C704 C699 1.363 . S
C704 C703 1.415 . S
C705 H681 0.951 . S
C705 C706 1.366 . S
C705 C707 1.388 . S
C706 C705 1.366 . S
C706 C710 1.385 . S
C707 H682 0.951 . S
C707 C705 1.388 . S
C707 C708 1.366 . S
C708 C707 1.366 . S
C708 C709 1.414 . S
C708 C711 1.499 . S
C709 H683 0.950 . S
C709 C708 1.414 . S
C709 C710 1.374 . S
C710 H684 0.950 . S
C710 C706 1.385 . S
C710 C709 1.374 . S
C711 C708 1.499 . S
C711 C712 1.373 . S
C711 C713 1.389 . S
C712 H685 0.950 . S
C712 C698 1.377 . S
C712 C711 1.373 . S
C713 C697 1.377 . S
C713 C711 1.389 . S
C713 C714 1.524 . S
C714 C713 1.524 . S
C714 C715 1.397 . S
C714 C719 1.363 . S
C715 H686 0.950 . S
C715 C714 1.397 . S
C715 C716 1.334 . S
C716 H687 0.950 . S
C716 C715 1.334 . S
C716 C717 1.287 . S
C717 C716 1.287 . S
C717 C718 1.524 . S
C717 H720 0.999 . S
C718 H688 0.950 . S
C718 C717 1.524 . S
C718 C719 1.415 . S
C719 H689 0.950 . S
C719 C714 1.363 . S
C719 C718 1.415 . S
H720 C717 0.999 . S
H721 C702 0.913 . S
H722 C740 0.951 . S
H723 C742 0.951 . S
H724 C744 0.950 . S
H725 C745 0.950 . S
H726 C747 0.950 . S
H727 C750 0.950 . S
H728 C751 0.950 . S
H729 C753 0.950 . S
H730 C754 0.950 . S
H731 C755 0.951 . S
H732 C757 0.951 . S
H733 C759 0.950 . S
H734 C760 0.950 . S
H735 C762 0.950 . S
H736 C765 0.950 . S
H737 C766 0.950 . S
H738 C768 0.950 . S
H739 C769 0.950 . S
C740 H722 0.951 . S
C740 C741 1.366 . S
C740 C742 1.388 . S
C741 C740 1.366 . S
C741 C745 1.385 . S
C742 H723 0.951 . S
C742 C740 1.388 . S
C742 C743 1.366 . S
C743 C742 1.366 . S
C743 C744 1.414 . S
C743 C746 1.499 . S
C744 H724 0.950 . S
C744 C743 1.414 . S
C744 C745 1.374 . S
C745 H725 0.950 . S
C745 C741 1.385 . S
C745 C744 1.374 . S
C746 C743 1.499 . S
C746 C747 1.373 . S
C746 C748 1.389 . S
C747 H726 0.950 . S
C747 C746 1.373 . S
C747 C763 1.377 . S
C748 C746 1.389 . S
C748 C749 1.524 . S
C748 C762 1.377 . S
C749 C748 1.524 . S
C749 C750 1.397 . S
C749 C754 1.363 . S
C750 H727 0.950 . S
C750 C749 1.397 . S
C750 C751 1.334 . S
C751 H728 0.950 . S
C751 C750 1.334 . S
C751 C752 1.287 . S
C752 C751 1.287 . S
C752 C753 1.524 . S
C752 H771 0.913 . S
C753 H729 0.950 . S
C753 C752 1.524 . S
C753 C754 1.415 . S
C754 H730 0.950 . S
C754 C749 1.363 . S
C754 C753 1.415 . S
C755 H731 0.951 . S
C755 C756 1.366 . S
C755 C757 1.388 . S
C756 C755 1.366 . S
C756 C760 1.385 . S
C757 H732 0.951 . S
C757 C755 1.388 . S
C757 C758 1.366 . S
C758 C757 1.366 . S
C758 C759 1.414 . S
C758 C761 1.499 . S
C759 H733 0.950 . S
C759 C758 1.414 . S
C759 C760 1.374 . S
C760 H734 0.950 . S
C760 C756 1.385 . S
C760 C759 1.374 . S
C761 C758 1.499 . S
C761 C762 1.373 . S
C761 C763 1.389 . S
C762 H735 0.950 . S
C762 C748 1.377 . S
C762 C761 1.373 . S
C763 C747 1.377 . S
C763 C761 1.389 . S
C763 C764 1.524 . S
C764 C763 1.524 . S
C764 C765 1.397 . S
C764 C769 1.363 . S
C765 H736 0.950 . S
C765 C764 1.397 . S
C765 C766 1.334 . S
C766 H737 0.950 . S
C766 C765 1.334 . S
C766 C767 1.287 . S
C767 C766 1.287 . S
C767 C768 1.524 . S
C767 H770 0.999 . S
C768 H738 0.950 . S
C768 C767 1.524 . S
C768 C769 1.415 . S
C769 H739 0.950 . S
C769 C764 1.363 . S
C769 C768 1.415 . S
H770 C767 0.999 . S
H771 C752 0.913 . S
H772 C790 0.951 . S
H773 C792 0.951 . S
H774 C794 0.950 . S
H775 C795 0.950 . S
H776 C797 0.950 . S
H777 C800 0.950 . S
H778 C801 0.950 . S
H779 C803 0.950 . S
H780 C804 0.950 . S
H781 C805 0.951 1_554 S
H782 C807 0.951 . S
H783 C809 0.950 . S
H784 C810 0.950 . S
H785 C812 0.950 . S
H786 C815 0.950 . S
H787 C816 0.950 . S
H788 C818 0.950 1_554 S
H789 C819 0.950 . S
C790 H772 0.951 . S
C790 C791 1.366 . S
C790 C792 1.388 . S
C791 C790 1.366 . S
C791 C795 1.385 . S
C792 H773 0.951 . S
C792 C790 1.388 . S
C792 C793 1.366 . S
C793 C792 1.366 . S
C793 C794 1.414 . S
C793 C796 1.499 . S
C794 H774 0.950 . S
C794 C793 1.414 . S
C794 C795 1.374 . S
C795 H775 0.950 . S
C795 C791 1.385 . S
C795 C794 1.374 . S
C796 C793 1.499 . S
C796 C797 1.373 . S
C796 C798 1.389 . S
C797 H776 0.950 . S
C797 C796 1.373 . S
C797 C813 1.377 . S
C798 C796 1.389 . S
C798 C799 1.524 . S
C798 C812 1.377 . S
C799 C798 1.524 . S
C799 C800 1.397 . S
C799 C804 1.363 . S
C800 H777 0.950 . S
C800 C799 1.397 . S
C800 C801 1.334 . S
C801 H778 0.950 . S
C801 C800 1.334 . S
C801 C802 1.287 . S
C802 C801 1.287 . S
C802 C803 1.524 . S
C802 H821 0.913 . S
C803 H779 0.950 . S
C803 C802 1.524 . S
C803 C804 1.415 . S
C804 H780 0.950 . S
C804 C799 1.363 . S
C804 C803 1.415 . S
C805 H781 0.951 1_556 S
C805 C806 1.366 . S
C805 C807 1.388 . S
C806 C805 1.366 . S
C806 C810 1.385 . S
C807 H782 0.951 . S
C807 C805 1.388 . S
C807 C808 1.366 . S
C808 C807 1.366 . S
C808 C809 1.414 . S
C808 C811 1.499 . S
C809 H783 0.950 . S
C809 C808 1.414 . S
C809 C810 1.374 . S
C810 H784 0.950 . S
C810 C806 1.385 . S
C810 C809 1.374 . S
C811 C808 1.499 . S
C811 C812 1.373 . S
C811 C813 1.389 . S
C812 H785 0.950 . S
C812 C798 1.377 . S
C812 C811 1.373 . S
C813 C797 1.377 . S
C813 C811 1.389 . S
C813 C814 1.524 . S
C814 C813 1.524 . S
C814 C815 1.397 . S
C814 C819 1.363 . S
C815 H786 0.950 . S
C815 C814 1.397 . S
C815 C816 1.334 . S
C816 H787 0.950 . S
C816 C815 1.334 . S
C816 C817 1.287 . S
C817 C816 1.287 . S
C817 C818 1.524 . S
C817 H820 0.999 . S
C818 H788 0.950 1_556 S
C818 C817 1.524 . S
C818 C819 1.415 . S
C819 H789 0.950 . S
C819 C814 1.363 . S
C819 C818 1.415 . S
H820 C817 0.999 . S
H821 C802 0.913 . S
H822 C840 0.951 . S
H823 C842 0.951 . S
H824 C844 0.950 . S
H825 C845 0.950 . S
H826 C847 0.950 . S
H827 C850 0.950 . S
H828 C851 0.950 . S
H829 C853 0.950 . S
H830 C854 0.950 . S
H831 C855 0.951 . S
H832 C857 0.951 . S
H833 C859 0.950 . S
H834 C860 0.950 . S
H835 C862 0.950 . S
H836 C865 0.950 . S
H837 C866 0.950 . S
H838 C868 0.950 . S
H839 C869 0.950 . S
C840 H822 0.951 . S
C840 C841 1.366 . S
C840 C842 1.388 . S
C841 C840 1.366 . S
C841 C845 1.385 . S
C842 H823 0.951 . S
C842 C840 1.388 . S
C842 C843 1.366 . S
C843 C842 1.366 . S
C843 C844 1.414 . S
C843 C846 1.499 . S
C844 H824 0.950 . S
C844 C843 1.414 . S
C844 C845 1.374 . S
C845 H825 0.950 . S
C845 C841 1.385 . S
C845 C844 1.374 . S
C846 C843 1.499 . S
C846 C847 1.373 . S
C846 C848 1.389 . S
C847 H826 0.950 . S
C847 C846 1.373 . S
C847 C863 1.377 . S
C848 C846 1.389 . S
C848 C849 1.524 . S
C848 C862 1.377 . S
C849 C848 1.524 . S
C849 C850 1.397 . S
C849 C854 1.363 . S
C850 H827 0.950 . S
C850 C849 1.397 . S
C850 C851 1.334 1_554 S
C851 H828 0.950 . S
C851 C850 1.334 1_556 S
C851 C852 1.287 1_556 S
C852 C851 1.287 1_554 S
C852 C853 1.524 . S
C852 H871 0.913 1_554 S
C853 H829 0.950 . S
C853 C852 1.524 . S
C853 C854 1.415 . S
C854 H830 0.950 . S
C854 C849 1.363 . S
C854 C853 1.415 . S
C855 H831 0.951 . S
C855 C856 1.366 . S
C855 C857 1.388 . S
C856 C855 1.366 . S
C856 C860 1.385 . S
C857 H832 0.951 . S
C857 C855 1.388 . S
C857 C858 1.366 . S
C858 C857 1.366 . S
C858 C859 1.414 . S
C858 C861 1.499 . S
C859 H833 0.950 . S
C859 C858 1.414 . S
C859 C860 1.374 . S
C860 H834 0.950 . S
C860 C856 1.385 . S
C860 C859 1.374 . S
C861 C858 1.499 . S
C861 C862 1.373 . S
C861 C863 1.389 . S
C862 H835 0.950 . S
C862 C848 1.377 . S
C862 C861 1.373 . S
C863 C847 1.377 . S
C863 C861 1.389 . S
C863 C864 1.524 . S
C864 C863 1.524 . S
C864 C865 1.397 . S
C864 C869 1.363 . S
C865 H836 0.950 . S
C865 C864 1.397 . S
C865 C866 1.334 . S
C866 H837 0.950 . S
C866 C865 1.334 . S
C866 C867 1.287 . S
C867 C866 1.287 . S
C867 C868 1.524 . S
C867 H870 0.999 . S
C868 H838 0.950 . S
C868 C867 1.524 . S
C868 C869 1.415 . S
C869 H839 0.950 . S
C869 C864 1.363 . S
C869 C868 1.415 . S
H870 C867 0.999 . S
H871 C852 0.913 1_556 S
H872 C890 0.951 . S
H873 C892 0.951 . S
H874 C894 0.950 . S
H875 C895 0.950 . S
H876 C897 0.950 . S
H877 C900 0.950 . S
H878 C901 0.950 . S
H879 C903 0.950 . S
H880 C904 0.950 . S
H881 C905 0.951 . S
H882 C907 0.951 . S
H883 C909 0.950 . S
H884 C910 0.950 . S
H885 C912 0.950 . S
H886 C915 0.950 . S
H887 C916 0.950 . S
H888 C918 0.950 . S
H889 C919 0.950 . S
C890 H872 0.951 . S
C890 C891 1.366 . S
C890 C892 1.388 . S
C891 C890 1.366 . S
C891 C895 1.385 . S
C892 H873 0.951 . S
C892 C890 1.388 . S
C892 C893 1.366 . S
C893 C892 1.366 . S
C893 C894 1.414 . S
C893 C896 1.499 . S
C894 H874 0.950 . S
C894 C893 1.414 . S
C894 C895 1.374 . S
C895 H875 0.950 . S
C895 C891 1.385 . S
C895 C894 1.374 . S
C896 C893 1.499 . S
C896 C897 1.373 . S
C896 C898 1.389 . S
C897 H876 0.950 . S
C897 C896 1.373 . S
C897 C913 1.377 . S
C898 C896 1.389 . S
C898 C899 1.524 . S
C898 C912 1.377 . S
C899 C898 1.524 . S
C899 C900 1.397 . S
C899 C904 1.363 . S
C900 H877 0.950 . S
C900 C899 1.397 . S
C900 C901 1.334 . S
C901 H878 0.950 . S
C901 C900 1.334 . S
C901 C902 1.287 . S
C902 C901 1.287 . S
C902 C903 1.524 . S
C902 H921 0.913 . S
C903 H879 0.950 . S
C903 C902 1.524 . S
C903 C904 1.415 . S
C904 H880 0.950 . S
C904 C899 1.363 . S
C904 C903 1.415 . S
C905 H881 0.951 . S
C905 C906 1.366 . S
C905 C907 1.388 . S
C906 C905 1.366 . S
C906 C910 1.385 . S
C907 H882 0.951 . S
C907 C905 1.388 . S
C907 C908 1.366 . S
C908 C907 1.366 . S
C908 C909 1.414 . S
C908 C911 1.499 . S
C909 H883 0.950 . S
C909 C908 1.414 . S
C909 C910 1.374 . S
C910 H884 0.950 . S
C910 C906 1.385 . S
C910 C909 1.374 . S
C911 C908 1.499 . S
C911 C912 1.373 . S
C911 C913 1.389 . S
C912 H885 0.950 . S
C912 C898 1.377 . S
C912 C911 1.373 . S
C913 C897 1.377 . S
C913 C911 1.389 . S
C913 C914 1.524 . S
C914 C913 1.524 . S
C914 C915 1.397 . S
C914 C919 1.363 . S
C915 H886 0.950 . S
C915 C914 1.397 . S
C915 C916 1.334 . S
C916 H887 0.950 . S
C916 C915 1.334 . S
C916 C917 1.287 . S
C917 C916 1.287 . S
C917 C918 1.524 . S
C917 H920 0.999 . S
C918 H888 0.950 . S
C918 C917 1.524 . S
C918 C919 1.415 . S
C919 H889 0.950 . S
C919 C914 1.363 . S
C919 C918 1.415 . S
H920 C917 0.999 . S
H921 C902 0.913 . S
H922 C940 0.951 . S
H923 C942 0.951 . S
H924 C944 0.950 . S
H925 C945 0.950 . S
H926 C947 0.950 . S
H927 C950 0.950 . S
H928 C951 0.950 . S
H929 C953 0.950 . S
H930 C954 0.950 . S
H931 C955 0.951 . S
H932 C957 0.951 . S
H933 C959 0.950 . S
H934 C960 0.950 . S
H935 C962 0.950 . S
H936 C965 0.950 . S
H937 C966 0.950 . S
H938 C968 0.950 . S
H939 C969 0.950 . S
C940 H922 0.951 . S
C940 C941 1.366 . S
C940 C942 1.388 . S
C941 C940 1.366 . S
C941 C945 1.385 . S
C942 H923 0.951 . S
C942 C940 1.388 . S
C942 C943 1.366 . S
C943 C942 1.366 . S
C943 C944 1.414 . S
C943 C946 1.499 . S
C944 H924 0.950 . S
C944 C943 1.414 . S
C944 C945 1.374 . S
C945 H925 0.950 . S
C945 C941 1.385 . S
C945 C944 1.374 . S
C946 C943 1.499 . S
C946 C947 1.373 . S
C946 C948 1.389 . S
C947 H926 0.950 . S
C947 C946 1.373 . S
C947 C963 1.377 . S
C948 C946 1.389 . S
C948 C949 1.524 . S
C948 C962 1.377 . S
C949 C948 1.524 . S
C949 C950 1.397 . S
C949 C954 1.363 . S
C950 H927 0.950 . S
C950 C949 1.397 . S
C950 C951 1.334 . S
C951 H928 0.950 . S
C951 C950 1.334 . S
C951 C952 1.287 . S
C952 C951 1.287 . S
C952 C953 1.524 . S
C952 H971 0.913 . S
C953 H929 0.950 . S
C953 C952 1.524 . S
C953 C954 1.415 . S
C954 H930 0.950 . S
C954 C949 1.363 . S
C954 C953 1.415 . S
C955 H931 0.951 . S
C955 C956 1.366 . S
C955 C957 1.388 . S
C956 C955 1.366 . S
C956 C960 1.385 . S
C957 H932 0.951 . S
C957 C955 1.388 . S
C957 C958 1.366 . S
C958 C957 1.366 . S
C958 C959 1.414 . S
C958 C961 1.499 . S
C959 H933 0.950 . S
C959 C958 1.414 . S
C959 C960 1.374 . S
C960 H934 0.950 . S
C960 C956 1.385 . S
C960 C959 1.374 . S
C961 C958 1.499 . S
C961 C962 1.373 . S
C961 C963 1.389 . S
C962 H935 0.950 . S
C962 C948 1.377 . S
C962 C961 1.373 . S
C963 C947 1.377 . S
C963 C961 1.389 . S
C963 C964 1.524 . S
C964 C963 1.524 . S
C964 C965 1.397 . S
C964 C969 1.363 . S
C965 H936 0.950 . S
C965 C964 1.397 . S
C965 C966 1.334 . S
C966 H937 0.950 . S
C966 C965 1.334 . S
C966 C967 1.287 . S
C967 C966 1.287 . S
C967 C968 1.524 . S
C967 H970 0.999 . S
C968 H938 0.950 . S
C968 C967 1.524 . S
C968 C969 1.415 . S
C969 H939 0.950 . S
C969 C964 1.363 . S
C969 C968 1.415 . S
H970 C967 0.999 . S
H971 C952 0.913 . S
H972 C990 0.951 . S
H973 C992 0.951 . S
H974 C994 0.950 . S
H975 C995 0.950 . S
H976 C997 0.950 . S
H977 C1000 0.950 . S
H978 C1001 0.950 . S
H979 C1003 0.950 . S
H980 C1004 0.950 . S
H981 C1005 0.951 . S
H982 C1007 0.951 . S
H983 C1009 0.950 . S
H984 C1010 0.950 . S
H985 C1012 0.950 . S
H986 C1015 0.950 . S
H987 C1016 0.950 . S
H988 C1018 0.950 . S
H989 C1019 0.950 . S
C990 H972 0.951 . S
C990 C991 1.366 . S
C990 C992 1.388 . S
C991 C990 1.366 . S
C991 C995 1.385 . S
C992 H973 0.951 . S
C992 C990 1.388 . S
C992 C993 1.366 . S
C993 C992 1.366 . S
C993 C994 1.414 . S
C993 C996 1.499 . S
C994 H974 0.950 . S
C994 C993 1.414 . S
C994 C995 1.374 . S
C995 H975 0.950 . S
C995 C991 1.385 . S
C995 C994 1.374 . S
C996 C993 1.499 . S
C996 C997 1.373 . S
C996 C998 1.389 . S
C997 H976 0.950 . S
C997 C996 1.373 . S
C997 C1013 1.377 . S
C998 C996 1.389 . S
C998 C999 1.524 . S
C998 C1012 1.377 . S
C999 C998 1.524 . S
C999 C1000 1.397 . S
C999 C1004 1.363 . S
C1000 H977 0.950 . S
C1000 C999 1.397 . S
C1000 C1001 1.334 . S
C1001 H978 0.950 . S
C1001 C1000 1.334 . S
C1001 C1002 1.287 . S
C1002 C1001 1.287 . S
C1002 C1003 1.524 . S
C1002 H1021 0.913 . S
C1003 H979 0.950 . S
C1003 C1002 1.524 . S
C1003 C1004 1.415 . S
C1004 H980 0.950 . S
C1004 C999 1.363 . S
C1004 C1003 1.415 . S
C1005 H981 0.951 . S
C1005 C1006 1.366 . S
C1005 C1007 1.388 . S
C1006 C1005 1.366 . S
C1006 C1010 1.385 . S
C1007 H982 0.951 . S
C1007 C1005 1.388 . S
C1007 C1008 1.366 . S
C1008 C1007 1.366 . S
C1008 C1009 1.414 . S
C1008 C1011 1.499 . S
C1009 H983 0.950 . S
C1009 C1008 1.414 . S
C1009 C1010 1.374 . S
C1010 H984 0.950 . S
C1010 C1006 1.385 . S
C1010 C1009 1.374 . S
C1011 C1008 1.499 . S
C1011 C1012 1.373 . S
C1011 C1013 1.389 . S
C1012 H985 0.950 . S
C1012 C998 1.377 . S
C1012 C1011 1.373 . S
C1013 C997 1.377 . S
C1013 C1011 1.389 . S
C1013 C1014 1.524 . S
C1014 C1013 1.524 . S
C1014 C1015 1.397 . S
C1014 C1019 1.363 . S
C1015 H986 0.950 . S
C1015 C1014 1.397 . S
C1015 C1016 1.334 . S
C1016 H987 0.950 . S
C1016 C1015 1.334 . S
C1016 C1017 1.287 . S
C1017 C1016 1.287 . S
C1017 C1018 1.524 . S
C1017 H1020 0.999 . S
C1018 H988 0.950 . S
C1018 C1017 1.524 . S
C1018 C1019 1.415 . S
C1019 H989 0.950 . S
C1019 C1014 1.363 . S
C1019 C1018 1.415 . S
H1020 C1017 0.999 . S
H1021 C1002 0.913 . S
H1022 C1040 0.951 . S
H1023 C1042 0.951 . S
H1024 C1044 0.950 . S
H1025 C1045 0.950 . S
H1026 C1047 0.950 . S
H1027 C1050 0.950 . S
H1028 C1051 0.950 . S
H1029 C1053 0.950 . S
H1030 C1054 0.950 . S
H1031 C1055 0.951 1_554 S
H1032 C1057 0.951 . S
H1033 C1059 0.950 . S
H1034 C1060 0.950 . S
H1035 C1062 0.950 . S
H1036 C1065 0.950 . S
H1037 C1066 0.950 . S
H1038 C1068 0.950 1_554 S
H1039 C1069 0.950 . S
C1040 H1022 0.951 . S
C1040 C1041 1.366 . S
C1040 C1042 1.388 . S
C1041 C1040 1.366 . S
C1041 C1045 1.385 . S
C1042 H1023 0.951 . S
C1042 C1040 1.388 . S
C1042 C1043 1.366 . S
C1043 C1042 1.366 . S
C1043 C1044 1.414 . S
C1043 C1046 1.499 . S
C1044 H1024 0.950 . S
C1044 C1043 1.414 . S
C1044 C1045 1.374 . S
C1045 H1025 0.950 . S
C1045 C1041 1.385 . S
C1045 C1044 1.374 . S
C1046 C1043 1.499 . S
C1046 C1047 1.373 . S
C1046 C1048 1.389 . S
C1047 H1026 0.950 . S
C1047 C1046 1.373 . S
C1047 C1063 1.377 . S
C1048 C1046 1.389 . S
C1048 C1049 1.524 . S
C1048 C1062 1.377 . S
C1049 C1048 1.524 . S
C1049 C1050 1.397 . S
C1049 C1054 1.363 . S
C1050 H1027 0.950 . S
C1050 C1049 1.397 . S
C1050 C1051 1.334 . S
C1051 H1028 0.950 . S
C1051 C1050 1.334 . S
C1051 C1052 1.287 . S
C1052 C1051 1.287 . S
C1052 C1053 1.524 . S
C1052 H1071 0.913 . S
C1053 H1029 0.950 . S
C1053 C1052 1.524 . S
C1053 C1054 1.415 . S
C1054 H1030 0.950 . S
C1054 C1049 1.363 . S
C1054 C1053 1.415 . S
C1055 H1031 0.951 1_556 S
C1055 C1056 1.366 . S
C1055 C1057 1.388 . S
C1056 C1055 1.366 . S
C1056 C1060 1.385 . S
C1057 H1032 0.951 . S
C1057 C1055 1.388 . S
C1057 C1058 1.366 . S
C1058 C1057 1.366 . S
C1058 C1059 1.414 . S
C1058 C1061 1.499 . S
C1059 H1033 0.950 . S
C1059 C1058 1.414 . S
C1059 C1060 1.374 . S
C1060 H1034 0.950 . S
C1060 C1056 1.385 . S
C1060 C1059 1.374 . S
C1061 C1058 1.499 . S
C1061 C1062 1.373 . S
C1061 C1063 1.389 . S
C1062 H1035 0.950 . S
C1062 C1048 1.377 . S
C1062 C1061 1.373 . S
C1063 C1047 1.377 . S
C1063 C1061 1.389 . S
C1063 C1064 1.524 . S
C1064 C1063 1.524 . S
C1064 C1065 1.397 . S
C1064 C1069 1.363 . S
C1065 H1036 0.950 . S
C1065 C1064 1.397 . S
C1065 C1066 1.334 . S
C1066 H1037 0.950 . S
C1066 C1065 1.334 . S
C1066 C1067 1.287 . S
C1067 C1066 1.287 . S
C1067 C1068 1.524 . S
C1067 H1070 0.999 . S
C1068 H1038 0.950 1_556 S
C1068 C1067 1.524 . S
C1068 C1069 1.415 . S
C1069 H1039 0.950 . S
C1069 C1064 1.363 . S
C1069 C1068 1.415 . S
H1070 C1067 0.999 . S
H1071 C1052 0.913 . S
H1072 C1090 0.951 . S
H1073 C1092 0.951 . S
H1074 C1094 0.950 . S
H1075 C1095 0.950 . S
H1076 C1097 0.950 . S
H1077 C1100 0.950 . S
H1078 C1101 0.950 . S
H1079 C1103 0.950 . S
H1080 C1104 0.950 . S
H1081 C1105 0.951 . S
H1082 C1107 0.951 . S
H1083 C1109 0.950 . S
H1084 C1110 0.950 . S
H1085 C1112 0.950 . S
H1086 C1115 0.950 . S
H1087 C1116 0.950 . S
H1088 C1118 0.950 . S
H1089 C1119 0.950 . S
C1090 H1072 0.951 . S
C1090 C1091 1.366 . S
C1090 C1092 1.388 . S
C1091 C1090 1.366 . S
C1091 C1095 1.385 . S
C1092 H1073 0.951 . S
C1092 C1090 1.388 . S
C1092 C1093 1.366 . S
C1093 C1092 1.366 . S
C1093 C1094 1.414 . S
C1093 C1096 1.499 . S
C1094 H1074 0.950 . S
C1094 C1093 1.414 . S
C1094 C1095 1.374 . S
C1095 H1075 0.950 . S
C1095 C1091 1.385 . S
C1095 C1094 1.374 . S
C1096 C1093 1.499 . S
C1096 C1097 1.373 . S
C1096 C1098 1.389 . S
C1097 H1076 0.950 . S
C1097 C1096 1.373 . S
C1097 C1113 1.377 . S
C1098 C1096 1.389 . S
C1098 C1099 1.524 . S
C1098 C1112 1.377 . S
C1099 C1098 1.524 . S
C1099 C1100 1.397 . S
C1099 C1104 1.363 . S
C1100 H1077 0.950 . S
C1100 C1099 1.397 . S
C1100 C1101 1.334 1_556 S
C1101 H1078 0.950 . S
C1101 C1100 1.334 1_554 S
C1101 C1102 1.287 . S
C1102 C1101 1.287 . S
C1102 C1103 1.524 1_554 S
C1102 H1121 0.913 . S
C1103 H1079 0.950 . S
C1103 C1102 1.524 1_556 S
C1103 C1104 1.415 . S
C1104 H1080 0.950 . S
C1104 C1099 1.363 . S
C1104 C1103 1.415 . S
C1105 H1081 0.951 . S
C1105 C1106 1.366 . S
C1105 C1107 1.388 . S
C1106 C1105 1.366 . S
C1106 C1110 1.385 . S
C1107 H1082 0.951 . S
C1107 C1105 1.388 . S
C1107 C1108 1.366 . S
C1108 C1107 1.366 . S
C1108 C1109 1.414 . S
C1108 C1111 1.499 . S
C1109 H1083 0.950 . S
C1109 C1108 1.414 . S
C1109 C1110 1.374 . S
C1110 H1084 0.950 . S
C1110 C1106 1.385 . S
C1110 C1109 1.374 . S
C1111 C1108 1.499 . S
C1111 C1112 1.373 . S
C1111 C1113 1.389 . S
C1112 H1085 0.950 . S
C1112 C1098 1.377 . S
C1112 C1111 1.373 . S
C1113 C1097 1.377 . S
C1113 C1111 1.389 . S
C1113 C1114 1.524 . S
C1114 C1113 1.524 . S
C1114 C1115 1.397 . S
C1114 C1119 1.363 . S
C1115 H1086 0.950 . S
C1115 C1114 1.397 . S
C1115 C1116 1.334 . S
C1116 H1087 0.950 . S
C1116 C1115 1.334 . S
C1116 C1117 1.287 . S
C1117 C1116 1.287 . S
C1117 C1118 1.524 . S
C1117 H1120 0.999 . S
C1118 H1088 0.950 . S
C1118 C1117 1.524 . S
C1118 C1119 1.415 . S
C1119 H1089 0.950 . S
C1119 C1114 1.363 . S
C1119 C1118 1.415 . S
H1120 C1117 0.999 . S
H1121 C1102 0.913 . S
H1122 C1140 0.951 . S
H1123 C1142 0.951 . S
H1124 C1144 0.950 . S
H1125 C1145 0.950 . S
H1126 C1147 0.950 . S
H1127 C1150 0.950 . S
H1128 C1151 0.950 . S
H1129 C1153 0.950 . S
H1130 C1154 0.950 . S
H1131 C1155 0.951 . S
H1132 C1157 0.951 . S
H1133 C1159 0.950 . S
H1134 C1160 0.950 . S
H1135 C1162 0.950 . S
H1136 C1165 0.950 . S
H1137 C1166 0.950 1_556 S
H1138 C1168 0.950 . S
H1139 C1169 0.950 . S
C1140 H1122 0.951 . S
C1140 C1141 1.366 . S
C1140 C1142 1.388 . S
C1141 C1140 1.366 . S
C1141 C1145 1.385 . S
C1142 H1123 0.951 . S
C1142 C1140 1.388 . S
C1142 C1143 1.366 . S
C1143 C1142 1.366 . S
C1143 C1144 1.414 . S
C1143 C1146 1.499 . S
C1144 H1124 0.950 . S
C1144 C1143 1.414 . S
C1144 C1145 1.374 . S
C1145 H1125 0.950 . S
C1145 C1141 1.385 . S
C1145 C1144 1.374 . S
C1146 C1143 1.499 . S
C1146 C1147 1.373 . S
C1146 C1148 1.389 . S
C1147 H1126 0.950 . S
C1147 C1146 1.373 . S
C1147 C1163 1.377 . S
C1148 C1146 1.389 . S
C1148 C1149 1.524 . S
C1148 C1162 1.377 . S
C1149 C1148 1.524 . S
C1149 C1150 1.397 . S
C1149 C1154 1.363 . S
C1150 H1127 0.950 . S
C1150 C1149 1.397 . S
C1150 C1151 1.334 . S
C1151 H1128 0.950 . S
C1151 C1150 1.334 . S
C1151 C1152 1.287 . S
C1152 C1151 1.287 . S
C1152 C1153 1.524 . S
C1152 H1171 0.913 . S
C1153 H1129 0.950 . S
C1153 C1152 1.524 . S
C1153 C1154 1.415 . S
C1154 H1130 0.950 . S
C1154 C1149 1.363 . S
C1154 C1153 1.415 . S
C1155 H1131 0.951 . S
C1155 C1156 1.366 . S
C1155 C1157 1.388 . S
C1156 C1155 1.366 . S
C1156 C1160 1.385 . S
C1157 H1132 0.951 . S
C1157 C1155 1.388 . S
C1157 C1158 1.366 . S
C1158 C1157 1.366 . S
C1158 C1159 1.414 . S
C1158 C1161 1.499 . S
C1159 H1133 0.950 . S
C1159 C1158 1.414 . S
C1159 C1160 1.374 . S
C1160 H1134 0.950 . S
C1160 C1156 1.385 . S
C1160 C1159 1.374 . S
C1161 C1158 1.499 . S
C1161 C1162 1.373 . S
C1161 C1163 1.389 . S
C1162 H1135 0.950 . S
C1162 C1148 1.377 . S
C1162 C1161 1.373 . S
C1163 C1147 1.377 . S
C1163 C1161 1.389 . S
C1163 C1164 1.524 . S
C1164 C1163 1.524 . S
C1164 C1165 1.397 . S
C1164 C1169 1.363 . S
C1165 H1136 0.950 . S
C1165 C1164 1.397 . S
C1165 C1166 1.334 . S
C1166 H1137 0.950 1_554 S
C1166 C1165 1.334 . S
C1166 C1167 1.287 . S
C1167 C1166 1.287 . S
C1167 C1168 1.524 . S
C1167 H1170 1.009 . S
C1168 H1138 0.950 . S
C1168 C1167 1.524 . S
C1168 C1169 1.415 . S
C1169 H1139 0.950 . S
C1169 C1164 1.363 . S
C1169 C1168 1.415 . S
H1170 C1167 1.009 . S
H1171 C1152 0.913 . S
H1172 C1190 0.951 . S
H1173 C1192 0.951 . S
H1174 C1194 0.950 . S
H1175 C1195 0.950 . S
H1176 C1197 0.950 . S
H1177 C1200 0.950 . S
H1178 C1201 0.950 . S
H1179 C1203 0.950 . S
H1180 C1204 0.950 . S
H1181 C1205 0.951 . S
H1182 C1207 0.951 . S
H1183 C1209 0.950 . S
H1184 C1210 0.950 . S
H1185 C1212 0.950 . S
H1186 C1215 0.950 . S
H1187 C1216 0.950 . S
H1188 C1218 0.950 . S
H1189 C1219 0.950 . S
C1190 H1172 0.951 . S
C1190 C1191 1.366 . S
C1190 C1192 1.388 . S
C1191 C1190 1.366 . S
C1191 C1195 1.385 . S
C1192 H1173 0.951 . S
C1192 C1190 1.388 . S
C1192 C1193 1.366 . S
C1193 C1192 1.366 . S
C1193 C1194 1.414 . S
C1193 C1196 1.499 . S
C1194 H1174 0.950 . S
C1194 C1193 1.414 . S
C1194 C1195 1.374 . S
C1195 H1175 0.950 . S
C1195 C1191 1.385 . S
C1195 C1194 1.374 . S
C1196 C1193 1.499 . S
C1196 C1197 1.373 . S
C1196 C1198 1.389 . S
C1197 H1176 0.950 . S
C1197 C1196 1.373 . S
C1197 C1213 1.377 . S
C1198 C1196 1.389 . S
C1198 C1199 1.524 . S
C1198 C1212 1.377 . S
C1199 C1198 1.524 . S
C1199 C1200 1.397 . S
C1199 C1204 1.363 . S
C1200 H1177 0.950 . S
C1200 C1199 1.397 . S
C1200 C1201 1.334 . S
C1201 H1178 0.950 . S
C1201 C1200 1.334 . S
C1201 C1202 1.287 . S
C1202 C1201 1.287 . S
C1202 C1203 1.524 . S
C1202 H1221 0.913 . S
C1203 H1179 0.950 . S
C1203 C1202 1.524 . S
C1203 C1204 1.415 . S
C1204 H1180 0.950 . S
C1204 C1199 1.363 . S
C1204 C1203 1.415 . S
C1205 H1181 0.951 . S
C1205 C1206 1.366 . S
C1205 C1207 1.388 . S
C1206 C1205 1.366 . S
C1206 C1210 1.385 . S
C1207 H1182 0.951 . S
C1207 C1205 1.388 . S
C1207 C1208 1.366 . S
C1208 C1207 1.366 . S
C1208 C1209 1.414 . S
C1208 C1211 1.499 . S
C1209 H1183 0.950 . S
C1209 C1208 1.414 . S
C1209 C1210 1.374 . S
C1210 H1184 0.950 . S
C1210 C1206 1.385 . S
C1210 C1209 1.374 . S
C1211 C1208 1.499 . S
C1211 C1212 1.373 . S
C1211 C1213 1.389 . S
C1212 H1185 0.950 . S
C1212 C1198 1.377 . S
C1212 C1211 1.373 . S
C1213 C1197 1.377 . S
C1213 C1211 1.389 . S
C1213 C1214 1.524 . S
C1214 C1213 1.524 . S
C1214 C1215 1.397 . S
C1214 C1219 1.363 . S
C1215 H1186 0.950 . S
C1215 C1214 1.397 . S
C1215 C1216 1.334 . S
C1216 H1187 0.950 . S
C1216 C1215 1.334 . S
C1216 C1217 1.287 . S
C1217 C1216 1.287 . S
C1217 C1218 1.524 . S
C1217 H1220 0.999 . S
C1218 H1188 0.950 . S
C1218 C1217 1.524 . S
C1218 C1219 1.415 . S
C1219 H1189 0.950 . S
C1219 C1214 1.363 . S
C1219 C1218 1.415 . S
H1220 C1217 0.999 . S
H1221 C1202 0.913 . S
H1222 C1240 0.951 . S
H1223 C1242 0.951 . S
H1224 C1244 0.950 . S
H1225 C1245 0.950 . S
H1226 C1247 0.950 . S
H1227 C1250 0.950 . S
H1228 C1251 0.950 . S
H1229 C1253 0.950 . S
H1230 C1254 0.950 . S
H1231 C1255 0.951 . S
H1232 C1257 0.951 . S
H1233 C1259 0.950 . S
H1234 C1260 0.950 . S
H1235 C1262 0.950 . S
H1236 C1265 0.950 . S
H1237 C1266 0.950 . S
H1238 C1268 0.950 . S
H1239 C1269 0.950 . S
C1240 H1222 0.951 . S
C1240 C1241 1.366 . S
C1240 C1242 1.388 . S
C1241 C1240 1.366 . S
C1241 C1245 1.385 . S
C1242 H1223 0.951 . S
C1242 C1240 1.388 . S
C1242 C1243 1.366 . S
C1243 C1242 1.366 . S
C1243 C1244 1.414 . S
C1243 C1246 1.499 . S
C1244 H1224 0.950 . S
C1244 C1243 1.414 . S
C1244 C1245 1.374 . S
C1245 H1225 0.950 . S
C1245 C1241 1.385 . S
C1245 C1244 1.374 . S
C1246 C1243 1.499 . S
C1246 C1247 1.373 . S
C1246 C1248 1.389 . S
C1247 H1226 0.950 . S
C1247 C1246 1.373 . S
C1247 C1263 1.377 . S
C1248 C1246 1.389 . S
C1248 C1249 1.524 . S
C1248 C1262 1.377 . S
C1249 C1248 1.524 . S
C1249 C1250 1.397 . S
C1249 C1254 1.363 . S
C1250 H1227 0.950 . S
C1250 C1249 1.397 . S
C1250 C1251 1.334 . S
C1251 H1228 0.950 . S
C1251 C1250 1.334 . S
C1251 C1252 1.287 . S
C1252 C1251 1.287 . S
C1252 C1253 1.524 . S
C1252 H1271 0.913 . S
C1253 H1229 0.950 . S
C1253 C1252 1.524 . S
C1253 C1254 1.415 . S
C1254 H1230 0.950 . S
C1254 C1249 1.363 . S
C1254 C1253 1.415 . S
C1255 H1231 0.951 . S
C1255 C1256 1.366 . S
C1255 C1257 1.388 . S
C1256 C1255 1.366 . S
C1256 C1260 1.385 . S
C1257 H1232 0.951 . S
C1257 C1255 1.388 . S
C1257 C1258 1.366 . S
C1258 C1257 1.366 . S
C1258 C1259 1.414 . S
C1258 C1261 1.499 . S
C1259 H1233 0.950 . S
C1259 C1258 1.414 . S
C1259 C1260 1.374 . S
C1260 H1234 0.950 . S
C1260 C1256 1.385 . S
C1260 C1259 1.374 . S
C1261 C1258 1.499 . S
C1261 C1262 1.373 . S
C1261 C1263 1.389 . S
C1262 H1235 0.950 . S
C1262 C1248 1.377 . S
C1262 C1261 1.373 . S
C1263 C1247 1.377 . S
C1263 C1261 1.389 . S
C1263 C1264 1.524 . S
C1264 C1263 1.524 . S
C1264 C1265 1.397 . S
C1264 C1269 1.363 . S
C1265 H1236 0.950 . S
C1265 C1264 1.397 . S
C1265 C1266 1.334 . S
C1266 H1237 0.950 . S
C1266 C1265 1.334 . S
C1266 C1267 1.287 . S
C1267 C1266 1.287 . S
C1267 C1268 1.524 . S
C1267 H1270 0.999 . S
C1268 H1238 0.950 . S
C1268 C1267 1.524 . S
C1268 C1269 1.415 . S
C1269 H1239 0.950 . S
C1269 C1264 1.363 . S
C1269 C1268 1.415 . S
H1270 C1267 0.999 . S
H1271 C1252 0.913 . S
H1272 C1290 0.951 . S
H1273 C1292 0.951 . S
H1274 C1294 0.950 . S
H1275 C1295 0.950 . S
H1276 C1297 0.950 . S
H1277 C1300 0.950 . S
H1278 C1301 0.950 . S
H1279 C1303 0.950 . S
H1280 C1304 0.950 . S
H1281 C1305 0.951 . S
H1282 C1307 0.951 . S
H1283 C1309 0.950 . S
H1284 C1310 0.950 . S
H1285 C1312 0.950 . S
H1286 C1315 0.950 . S
H1287 C1316 0.950 . S
H1288 C1318 0.950 . S
H1289 C1319 0.950 . S
C1290 H1272 0.951 . S
C1290 C1291 1.366 . S
C1290 C1292 1.388 . S
C1291 C1290 1.366 . S
C1291 C1295 1.385 . S
C1292 H1273 0.951 . S
C1292 C1290 1.388 . S
C1292 C1293 1.366 . S
C1293 C1292 1.366 . S
C1293 C1294 1.414 . S
C1293 C1296 1.499 . S
C1294 H1274 0.950 . S
C1294 C1293 1.414 . S
C1294 C1295 1.374 . S
C1295 H1275 0.950 . S
C1295 C1291 1.385 . S
C1295 C1294 1.374 . S
C1296 C1293 1.499 . S
C1296 C1297 1.373 . S
C1296 C1298 1.389 . S
C1297 H1276 0.950 . S
C1297 C1296 1.373 . S
C1297 C1313 1.377 . S
C1298 C1296 1.389 . S
C1298 C1299 1.524 . S
C1298 C1312 1.377 . S
C1299 C1298 1.524 . S
C1299 C1300 1.397 . S
C1299 C1304 1.363 . S
C1300 H1277 0.950 . S
C1300 C1299 1.397 . S
C1300 C1301 1.334 . S
C1301 H1278 0.950 . S
C1301 C1300 1.334 . S
C1301 C1302 1.287 . S
C1302 C1301 1.287 . S
C1302 C1303 1.524 . S
C1302 H1321 0.913 . S
C1303 H1279 0.950 . S
C1303 C1302 1.524 . S
C1303 C1304 1.415 . S
C1304 H1280 0.950 . S
C1304 C1299 1.363 . S
C1304 C1303 1.415 . S
C1305 H1281 0.951 . S
C1305 C1306 1.366 . S
C1305 C1307 1.388 . S
C1306 C1305 1.366 . S
C1306 C1310 1.385 . S
C1307 H1282 0.951 . S
C1307 C1305 1.388 . S
C1307 C1308 1.366 . S
C1308 C1307 1.366 . S
C1308 C1309 1.414 . S
C1308 C1311 1.499 . S
C1309 H1283 0.950 . S
C1309 C1308 1.414 . S
C1309 C1310 1.374 . S
C1310 H1284 0.950 . S
C1310 C1306 1.385 . S
C1310 C1309 1.374 . S
C1311 C1308 1.499 . S
C1311 C1312 1.373 . S
C1311 C1313 1.389 . S
C1312 H1285 0.950 . S
C1312 C1298 1.377 . S
C1312 C1311 1.373 . S
C1313 C1297 1.377 . S
C1313 C1311 1.389 . S
C1313 C1314 1.524 . S
C1314 C1313 1.524 . S
C1314 C1315 1.397 . S
C1314 C1319 1.363 . S
C1315 H1286 0.950 . S
C1315 C1314 1.397 . S
C1315 C1316 1.334 . S
C1316 H1287 0.950 . S
C1316 C1315 1.334 . S
C1316 C1317 1.287 . S
C1317 C1316 1.287 . S
C1317 C1318 1.524 . S
C1317 H1320 0.999 . S
C1318 H1288 0.950 . S
C1318 C1317 1.524 . S
C1318 C1319 1.415 . S
C1319 H1289 0.950 . S
C1319 C1314 1.363 . S
C1319 C1318 1.415 . S
H1320 C1317 0.999 . S
H1321 C1302 0.913 . S
H1322 C1340 0.951 . S
H1323 C1342 0.951 . S
H1324 C1344 0.950 . S
H1325 C1345 0.950 . S
H1326 C1347 0.950 . S
H1327 C1350 0.950 . S
H1328 C1351 0.950 . S
H1329 C1353 0.950 . S
H1330 C1354 0.950 . S
H1331 C1355 0.951 . S
H1332 C1357 0.951 . S
H1333 C1359 0.950 . S
H1334 C1360 0.950 . S
H1335 C1362 0.950 . S
H1336 C1365 0.950 . S
H1337 C1366 0.950 . S
H1338 C1368 0.950 . S
H1339 C1369 0.950 . S
C1340 H1322 0.951 . S
C1340 C1341 1.366 . S
C1340 C1342 1.388 . S
C1341 C1340 1.366 . S
C1341 C1345 1.385 . S
C1342 H1323 0.951 . S
C1342 C1340 1.388 . S
C1342 C1343 1.366 . S
C1343 C1342 1.366 . S
C1343 C1344 1.414 . S
C1343 C1346 1.499 . S
C1344 H1324 0.950 . S
C1344 C1343 1.414 . S
C1344 C1345 1.374 . S
C1345 H1325 0.950 . S
C1345 C1341 1.385 . S
C1345 C1344 1.374 . S
C1346 C1343 1.499 . S
C1346 C1347 1.373 . S
C1346 C1348 1.389 . S
C1347 H1326 0.950 . S
C1347 C1346 1.373 . S
C1347 C1363 1.377 . S
C1348 C1346 1.389 . S
C1348 C1349 1.524 . S
C1348 C1362 1.377 . S
C1349 C1348 1.524 . S
C1349 C1350 1.397 . S
C1349 C1354 1.363 . S
C1350 H1327 0.950 . S
C1350 C1349 1.397 . S
C1350 C1351 1.334 . S
C1351 H1328 0.950 . S
C1351 C1350 1.334 . S
C1351 C1352 1.287 . S
C1352 C1351 1.287 . S
C1352 C1353 1.524 . S
C1352 H1371 0.913 . S
C1353 H1329 0.950 . S
C1353 C1352 1.524 . S
C1353 C1354 1.415 . S
C1354 H1330 0.950 . S
C1354 C1349 1.363 . S
C1354 C1353 1.415 . S
C1355 H1331 0.951 . S
C1355 C1356 1.366 . S
C1355 C1357 1.388 . S
C1356 C1355 1.366 . S
C1356 C1360 1.385 . S
C1357 H1332 0.951 . S
C1357 C1355 1.388 . S
C1357 C1358 1.366 . S
C1358 C1357 1.366 . S
C1358 C1359 1.414 . S
C1358 C1361 1.499 . S
C1359 H1333 0.950 . S
C1359 C1358 1.414 . S
C1359 C1360 1.374 . S
C1360 H1334 0.950 . S
C1360 C1356 1.385 . S
C1360 C1359 1.374 . S
C1361 C1358 1.499 . S
C1361 C1362 1.373 . S
C1361 C1363 1.389 . S
C1362 H1335 0.950 . S
C1362 C1348 1.377 . S
C1362 C1361 1.373 . S
C1363 C1347 1.377 . S
C1363 C1361 1.389 . S
C1363 C1364 1.524 . S
C1364 C1363 1.524 . S
C1364 C1365 1.397 . S
C1364 C1369 1.363 . S
C1365 H1336 0.950 . S
C1365 C1364 1.397 . S
C1365 C1366 1.334 . S
C1366 H1337 0.950 . S
C1366 C1365 1.334 . S
C1366 C1367 1.287 . S
C1367 C1366 1.287 . S
C1367 C1368 1.524 . S
C1367 H1370 0.999 1_556 S
C1368 H1338 0.950 . S
C1368 C1367 1.524 . S
C1368 C1369 1.415 . S
C1369 H1339 0.950 . S
C1369 C1364 1.363 . S
C1369 C1368 1.415 . S
H1370 C1367 0.999 1_554 S
H1371 C1352 0.913 . S
H1372 C1390 0.951 . S
H1373 C1392 0.951 . S
H1374 C1394 0.950 . S
H1375 C1395 0.950 . S
H1376 C1397 0.950 . S
H1377 C1400 0.950 . S
H1378 C1401 0.950 . S
H1379 C1403 0.950 . S
H1380 C1404 0.950 . S
H1381 C1405 0.951 . S
H1382 C1407 0.951 . S
H1383 C1409 0.950 . S
H1384 C1410 0.950 . S
H1385 C1412 0.950 . S
H1386 C1415 0.950 . S
H1387 C1416 0.950 . S
H1388 C1418 0.950 . S
H1389 C1419 0.950 . S
C1390 H1372 0.951 . S
C1390 C1391 1.366 . S
C1390 C1392 1.388 . S
C1391 C1390 1.366 . S
C1391 C1395 1.385 . S
C1392 H1373 0.951 . S
C1392 C1390 1.388 . S
C1392 C1393 1.366 . S
C1393 C1392 1.366 . S
C1393 C1394 1.414 . S
C1393 C1396 1.499 . S
C1394 H1374 0.950 . S
C1394 C1393 1.414 . S
C1394 C1395 1.374 . S
C1395 H1375 0.950 . S
C1395 C1391 1.385 . S
C1395 C1394 1.374 . S
C1396 C1393 1.499 . S
C1396 C1397 1.373 . S
C1396 C1398 1.389 . S
C1397 H1376 0.950 . S
C1397 C1396 1.373 . S
C1397 C1413 1.377 . S
C1398 C1396 1.389 . S
C1398 C1399 1.524 . S
C1398 C1412 1.377 . S
C1399 C1398 1.524 . S
C1399 C1400 1.397 . S
C1399 C1404 1.363 . S
C1400 H1377 0.950 . S
C1400 C1399 1.397 . S
C1400 C1401 1.334 . S
C1401 H1378 0.950 . S
C1401 C1400 1.334 . S
C1401 C1402 1.287 . S
C1402 C1401 1.287 . S
C1402 C1403 1.524 . S
C1402 H1421 0.913 . S
C1403 H1379 0.950 . S
C1403 C1402 1.524 . S
C1403 C1404 1.415 . S
C1404 H1380 0.950 . S
C1404 C1399 1.363 . S
C1404 C1403 1.415 . S
C1405 H1381 0.951 . S
C1405 C1406 1.366 . S
C1405 C1407 1.388 . S
C1406 C1405 1.366 . S
C1406 C1410 1.385 . S
C1407 H1382 0.951 . S
C1407 C1405 1.388 . S
C1407 C1408 1.366 . S
C1408 C1407 1.366 . S
C1408 C1409 1.414 . S
C1408 C1411 1.499 . S
C1409 H1383 0.950 . S
C1409 C1408 1.414 . S
C1409 C1410 1.374 . S
C1410 H1384 0.950 . S
C1410 C1406 1.385 . S
C1410 C1409 1.374 . S
C1411 C1408 1.499 . S
C1411 C1412 1.373 . S
C1411 C1413 1.389 . S
C1412 H1385 0.950 . S
C1412 C1398 1.377 . S
C1412 C1411 1.373 . S
C1413 C1397 1.377 . S
C1413 C1411 1.389 . S
C1413 C1414 1.524 . S
C1414 C1413 1.524 . S
C1414 C1415 1.397 . S
C1414 C1419 1.363 . S
C1415 H1386 0.950 . S
C1415 C1414 1.397 . S
C1415 C1416 1.334 . S
C1416 H1387 0.950 . S
C1416 C1415 1.334 . S
C1416 C1417 1.287 . S
C1417 C1416 1.287 . S
C1417 C1418 1.524 . S
C1417 H1420 0.999 . S
C1418 H1388 0.950 . S
C1418 C1417 1.524 . S
C1418 C1419 1.415 . S
C1419 H1389 0.950 . S
C1419 C1414 1.363 . S
C1419 C1418 1.415 . S
H1420 C1417 0.999 . S
H1421 C1402 0.913 . S
H1422 C1440 0.951 . S
H1423 C1442 0.951 . S
H1424 C1444 0.950 . S
H1425 C1445 0.950 . S
H1426 C1447 0.950 . S
H1427 C1450 0.950 . S
H1428 C1451 0.950 . S
H1429 C1453 0.950 . S
H1430 C1454 0.950 . S
H1431 C1455 0.951 . S
H1432 C1457 0.951 . S
H1433 C1459 0.950 . S
H1434 C1460 0.950 . S
H1435 C1462 0.950 . S
H1436 C1465 0.950 . S
H1437 C1466 0.950 . S
H1438 C1468 0.950 . S
H1439 C1469 0.950 . S
C1440 H1422 0.951 . S
C1440 C1441 1.366 . S
C1440 C1442 1.388 . S
C1441 C1440 1.366 . S
C1441 C1445 1.385 . S
C1442 H1423 0.951 . S
C1442 C1440 1.388 . S
C1442 C1443 1.366 . S
C1443 C1442 1.366 . S
C1443 C1444 1.414 . S
C1443 C1446 1.499 . S
C1444 H1424 0.950 . S
C1444 C1443 1.414 . S
C1444 C1445 1.374 . S
C1445 H1425 0.950 . S
C1445 C1441 1.385 . S
C1445 C1444 1.374 . S
C1446 C1443 1.499 . S
C1446 C1447 1.373 . S
C1446 C1448 1.389 . S
C1447 H1426 0.950 . S
C1447 C1446 1.373 . S
C1447 C1463 1.377 . S
C1448 C1446 1.389 . S
C1448 C1449 1.524 . S
C1448 C1462 1.377 . S
C1449 C1448 1.524 . S
C1449 C1450 1.397 . S
C1449 C1454 1.363 . S
C1450 H1427 0.950 . S
C1450 C1449 1.397 . S
C1450 C1451 1.334 . S
C1451 H1428 0.950 . S
C1451 C1450 1.334 . S
C1451 C1452 1.287 . S
C1452 C1451 1.287 . S
C1452 C1453 1.524 . S
C1452 H1471 0.913 . S
C1453 H1429 0.950 . S
C1453 C1452 1.524 . S
C1453 C1454 1.415 . S
C1454 H1430 0.950 . S
C1454 C1449 1.363 . S
C1454 C1453 1.415 . S
C1455 H1431 0.951 . S
C1455 C1456 1.366 . S
C1455 C1457 1.388 . S
C1456 C1455 1.366 . S
C1456 C1460 1.385 . S
C1457 H1432 0.951 . S
C1457 C1455 1.388 . S
C1457 C1458 1.366 . S
C1458 C1457 1.366 . S
C1458 C1459 1.414 . S
C1458 C1461 1.499 . S
C1459 H1433 0.950 . S
C1459 C1458 1.414 . S
C1459 C1460 1.374 . S
C1460 H1434 0.950 . S
C1460 C1456 1.385 . S
C1460 C1459 1.374 . S
C1461 C1458 1.499 . S
C1461 C1462 1.373 . S
C1461 C1463 1.389 . S
C1462 H1435 0.950 . S
C1462 C1448 1.377 . S
C1462 C1461 1.373 . S
C1463 C1447 1.377 . S
C1463 C1461 1.389 . S
C1463 C1464 1.524 . S
C1464 C1463 1.524 . S
C1464 C1465 1.397 . S
C1464 C1469 1.363 . S
C1465 H1436 0.950 . S
C1465 C1464 1.397 . S
C1465 C1466 1.334 . S
C1466 H1437 0.950 . S
C1466 C1465 1.334 . S
C1466 C1467 1.287 . S
C1467 C1466 1.287 . S
C1467 C1468 1.524 . S
C1467 H1470 0.999 . S
C1468 H1438 0.950 . S
C1468 C1467 1.524 . S
C1468 C1469 1.415 . S
C1469 H1439 0.950 . S
C1469 C1464 1.363 . S
C1469 C1468 1.415 . S
H1470 C1467 0.999 . S
H1471 C1452 0.913 . S
H1472 C1490 0.951 . S
H1473 C1492 0.951 . S
H1474 C1494 0.950 . S
H1475 C1495 0.950 . S
H1476 C1497 0.950 . S
H1477 C1500 0.950 1_565 S
H1478 C1501 0.950 1_565 S
H1479 C1503 0.950 . S
H1480 C1504 0.950 . S
H1481 C1505 0.951 . S
H1482 C1507 0.951 . S
H1483 C1509 0.950 . S
H1484 C1510 0.950 . S
H1485 C1512 0.950 . S
H1486 C1515 0.950 1_545 S
H1487 C1516 0.950 1_545 S
H1488 C1518 0.950 . S
H1489 C1519 0.950 . S
C1490 H1472 0.951 . S
C1490 C1491 1.366 1_445 S
C1490 C1492 1.388 . S
C1491 C1490 1.366 1_665 S
C1491 C1495 1.385 . S
C1492 H1473 0.951 . S
C1492 C1490 1.388 . S
C1492 C1493 1.369 1_545 S
C1493 C1492 1.369 1_565 S
C1493 C1494 1.409 1_455 S
C1493 C1496 1.499 . S
C1494 H1474 0.950 . S
C1494 C1493 1.409 1_655 S
C1494 C1495 1.374 . S
C1495 H1475 0.950 . S
C1495 C1491 1.385 . S
C1495 C1494 1.374 . S
C1496 C1493 1.499 . S
C1496 C1497 1.373 1_455 S
C1496 C1498 1.389 1_565 S
C1497 H1476 0.950 . S
C1497 C1496 1.373 1_655 S
C1497 C1513 1.377 1_556 S
C1498 C1496 1.389 1_545 S
C1498 C1499 1.524 . S
C1498 C1512 1.377 1_556 S
C1499 C1498 1.524 . S
C1499 C1500 1.397 . S
C1499 C1504 1.363 . S
C1500 H1477 0.950 1_545 S
C1500 C1499 1.397 . S
C1500 C1501 1.334 . S
C1501 H1478 0.950 1_545 S
C1501 C1500 1.334 . S
C1501 C1502 1.287 . S
C1502 C1501 1.287 . S
C1502 C1503 1.524 . S
C1502 H1521 0.913 . S
C1503 H1479 0.950 . S
C1503 C1502 1.524 . S
C1503 C1504 1.415 . S
C1504 H1480 0.950 . S
C1504 C1499 1.363 . S
C1504 C1503 1.415 . S
C1505 H1481 0.951 . S
C1505 C1506 1.366 1_665 S
C1505 C1507 1.388 . S
C1506 C1505 1.366 1_445 S
C1506 C1510 1.385 . S
C1507 H1482 0.951 . S
C1507 C1505 1.388 . S
C1507 C1508 1.368 1_565 S
C1508 C1507 1.368 1_545 S
C1508 C1509 1.411 1_655 S
C1508 C1511 1.498 . S
C1509 H1483 0.950 . S
C1509 C1508 1.411 1_455 S
C1509 C1510 1.374 . S
C1510 H1484 0.950 . S
C1510 C1506 1.385 . S
C1510 C1509 1.374 . S
C1511 C1508 1.498 . S
C1511 C1512 1.346 1_655 S
C1511 C1513 1.416 1_545 S
C1512 H1485 0.950 . S
C1512 C1498 1.377 1_554 S
C1512 C1511 1.346 1_455 S
C1513 C1497 1.377 1_554 S
C1513 C1511 1.416 1_565 S
C1513 C1514 1.524 . S
C1514 C1513 1.524 . S
C1514 C1515 1.397 . S
C1514 C1519 1.363 . S
C1515 H1486 0.950 1_565 S
C1515 C1514 1.397 . S
C1515 C1516 1.334 . S
C1516 H1487 0.950 1_565 S
C1516 C1515 1.334 . S
C1516 C1517 1.287 . S
C1517 C1516 1.287 . S
C1517 C1518 1.524 . S
C1517 H1520 0.999 . S
C1518 H1488 0.950 . S
C1518 C1517 1.524 . S
C1518 C1519 1.415 . S
C1519 H1489 0.950 . S
C1519 C1514 1.363 . S
C1519 C1518 1.415 . S
H1520 C1517 0.999 . S
H1521 C1502 0.913 . S
H1522 C1540 0.951 . S
H1523 C1542 0.951 . S
H1524 C1544 0.950 . S
H1525 C1545 0.950 . S
H1526 C1547 0.950 . S
H1527 C1550 0.950 . S
H1528 C1551 0.950 . S
H1529 C1553 0.950 . S
H1530 C1554 0.950 . S
H1531 C1555 0.951 . S
H1532 C1557 0.951 . S
H1533 C1559 0.950 . S
H1534 C1560 0.950 . S
H1535 C1562 0.950 . S
H1536 C1565 0.950 . S
H1537 C1566 0.950 . S
H1538 C1568 0.950 . S
H1539 C1569 0.950 . S
C1540 H1522 0.951 . S
C1540 C1541 1.366 . S
C1540 C1542 1.388 . S
C1541 C1540 1.366 . S
C1541 C1545 1.385 . S
C1542 H1523 0.951 . S
C1542 C1540 1.388 . S
C1542 C1543 1.366 . S
C1543 C1542 1.366 . S
C1543 C1544 1.414 . S
C1543 C1546 1.499 . S
C1544 H1524 0.950 . S
C1544 C1543 1.414 . S
C1544 C1545 1.374 . S
C1545 H1525 0.950 . S
C1545 C1541 1.385 . S
C1545 C1544 1.374 . S
C1546 C1543 1.499 . S
C1546 C1547 1.373 . S
C1546 C1548 1.389 . S
C1547 H1526 0.950 . S
C1547 C1546 1.373 . S
C1547 C1563 1.377 . S
C1548 C1546 1.389 . S
C1548 C1549 1.524 . S
C1548 C1562 1.377 . S
C1549 C1548 1.524 . S
C1549 C1550 1.397 . S
C1549 C1554 1.363 . S
C1550 H1527 0.950 . S
C1550 C1549 1.397 . S
C1550 C1551 1.334 . S
C1551 H1528 0.950 . S
C1551 C1550 1.334 . S
C1551 C1552 1.287 . S
C1552 C1551 1.287 . S
C1552 C1553 1.524 . S
C1552 H1571 0.913 . S
C1553 H1529 0.950 . S
C1553 C1552 1.524 . S
C1553 C1554 1.415 . S
C1554 H1530 0.950 . S
C1554 C1549 1.363 . S
C1554 C1553 1.415 . S
C1555 H1531 0.951 . S
C1555 C1556 1.366 . S
C1555 C1557 1.388 . S
C1556 C1555 1.366 . S
C1556 C1560 1.385 . S
C1557 H1532 0.951 . S
C1557 C1555 1.388 . S
C1557 C1558 1.366 . S
C1558 C1557 1.366 . S
C1558 C1559 1.414 . S
C1558 C1561 1.499 . S
C1559 H1533 0.950 . S
C1559 C1558 1.414 . S
C1559 C1560 1.374 . S
C1560 H1534 0.950 . S
C1560 C1556 1.385 . S
C1560 C1559 1.374 . S
C1561 C1558 1.499 . S
C1561 C1562 1.373 . S
C1561 C1563 1.389 . S
C1562 H1535 0.950 . S
C1562 C1548 1.377 . S
C1562 C1561 1.373 . S
C1563 C1547 1.377 . S
C1563 C1561 1.389 . S
C1563 C1564 1.524 . S
C1564 C1563 1.524 . S
C1564 C1565 1.397 . S
C1564 C1569 1.363 . S
C1565 H1536 0.950 . S
C1565 C1564 1.397 . S
C1565 C1566 1.334 . S
C1566 H1537 0.950 . S
C1566 C1565 1.334 . S
C1566 C1567 1.287 . S
C1567 C1566 1.287 . S
C1567 C1568 1.524 . S
C1567 H1570 0.999 . S
C1568 H1538 0.950 . S
C1568 C1567 1.524 . S
C1568 C1569 1.415 . S
C1569 H1539 0.950 . S
C1569 C1564 1.363 . S
C1569 C1568 1.415 . S
H1570 C1567 0.999 . S
H1571 C1552 0.913 . S
H1572 C1590 0.951 . S
H1573 C1592 0.951 . S
H1574 C1594 0.950 . S
H1575 C1595 0.950 . S
H1576 C1597 0.950 . S
H1577 C1600 0.950 . S
H1578 C1601 0.950 . S
H1579 C1603 0.950 . S
H1580 C1604 0.950 . S
H1581 C1605 0.951 . S
H1582 C1607 0.951 . S
H1583 C1609 0.950 . S
H1584 C1610 0.950 . S
H1585 C1612 0.950 . S
H1586 C1615 0.950 . S
H1587 C1616 0.950 . S
H1588 C1618 0.950 . S
H1589 C1619 0.950 . S
C1590 H1572 0.951 . S
C1590 C1591 1.366 1_545 S
C1590 C1592 1.388 . S
C1591 C1590 1.366 1_565 S
C1591 C1595 1.385 . S
C1592 H1573 0.951 . S
C1592 C1590 1.388 . S
C1592 C1593 1.366 1_545 S
C1593 C1592 1.366 1_565 S
C1593 C1594 1.414 . S
C1593 C1596 1.499 . S
C1594 H1574 0.950 . S
C1594 C1593 1.414 . S
C1594 C1595 1.374 . S
C1595 H1575 0.950 . S
C1595 C1591 1.385 . S
C1595 C1594 1.374 . S
C1596 C1593 1.499 . S
C1596 C1597 1.373 . S
C1596 C1598 1.389 1_565 S
C1597 H1576 0.950 . S
C1597 C1596 1.373 . S
C1597 C1613 1.377 . S
C1598 C1596 1.389 1_545 S
C1598 C1599 1.524 . S
C1598 C1612 1.377 . S
C1599 C1598 1.524 . S
C1599 C1600 1.397 . S
C1599 C1604 1.363 . S
C1600 H1577 0.950 . S
C1600 C1599 1.397 . S
C1600 C1601 1.334 . S
C1601 H1578 0.950 . S
C1601 C1600 1.334 . S
C1601 C1602 1.287 . S
C1602 C1601 1.287 . S
C1602 C1603 1.524 . S
C1602 H1621 0.913 . S
C1603 H1579 0.950 . S
C1603 C1602 1.524 . S
C1603 C1604 1.415 . S
C1604 H1580 0.950 . S
C1604 C1599 1.363 . S
C1604 C1603 1.415 . S
C1605 H1581 0.951 . S
C1605 C1606 1.366 1_565 S
C1605 C1607 1.388 . S
C1606 C1605 1.366 1_545 S
C1606 C1610 1.385 . S
C1607 H1582 0.951 . S
C1607 C1605 1.388 . S
C1607 C1608 1.366 1_565 S
C1608 C1607 1.366 1_545 S
C1608 C1609 1.414 . S
C1608 C1611 1.499 . S
C1609 H1583 0.950 . S
C1609 C1608 1.414 . S
C1609 C1610 1.374 . S
C1610 H1584 0.950 . S
C1610 C1606 1.385 . S
C1610 C1609 1.374 . S
C1611 C1608 1.499 . S
C1611 C1612 1.373 . S
C1611 C1613 1.389 1_545 S
C1612 H1585 0.950 . S
C1612 C1598 1.377 . S
C1612 C1611 1.373 . S
C1613 C1597 1.377 . S
C1613 C1611 1.389 1_565 S
C1613 C1614 1.524 . S
C1614 C1613 1.524 . S
C1614 C1615 1.397 . S
C1614 C1619 1.363 . S
C1615 H1586 0.950 . S
C1615 C1614 1.397 . S
C1615 C1616 1.334 . S
C1616 H1587 0.950 . S
C1616 C1615 1.334 . S
C1616 C1617 1.287 . S
C1617 C1616 1.287 . S
C1617 C1618 1.524 . S
C1617 H1620 0.999 . S
C1618 H1588 0.950 . S
C1618 C1617 1.524 . S
C1618 C1619 1.415 . S
C1619 H1589 0.950 . S
C1619 C1614 1.363 . S
C1619 C1618 1.415 . S
H1620 C1617 0.999 . S
H1621 C1602 0.913 . S
H1622 C1640 0.951 . S
H1623 C1642 0.951 . S
H1624 C1644 0.950 . S
H1625 C1645 0.950 . S
H1626 C1647 0.950 . S
H1627 C1650 0.950 . S
H1628 C1651 0.950 . S
H1629 C1653 0.950 . S
H1630 C1654 0.950 . S
H1631 C1655 0.951 . S
H1632 C1657 0.951 . S
H1633 C1659 0.950 . S
H1634 C1660 0.950 . S
H1635 C1662 0.950 . S
H1636 C1665 0.950 . S
H1637 C1666 0.950 . S
H1638 C1668 0.950 . S
H1639 C1669 0.950 . S
C1640 H1622 0.951 . S
C1640 C1641 1.366 . S
C1640 C1642 1.388 . S
C1641 C1640 1.366 . S
C1641 C1645 1.385 . S
C1642 H1623 0.951 . S
C1642 C1640 1.388 . S
C1642 C1643 1.366 . S
C1643 C1642 1.366 . S
C1643 C1644 1.414 . S
C1643 C1646 1.499 . S
C1644 H1624 0.950 . S
C1644 C1643 1.414 . S
C1644 C1645 1.374 . S
C1645 H1625 0.950 . S
C1645 C1641 1.385 . S
C1645 C1644 1.374 . S
C1646 C1643 1.499 . S
C1646 C1647 1.373 . S
C1646 C1648 1.389 . S
C1647 H1626 0.950 . S
C1647 C1646 1.373 . S
C1647 C1663 1.377 . S
C1648 C1646 1.389 . S
C1648 C1649 1.524 . S
C1648 C1662 1.377 . S
C1649 C1648 1.524 . S
C1649 C1650 1.397 . S
C1649 C1654 1.363 . S
C1650 H1627 0.950 . S
C1650 C1649 1.397 . S
C1650 C1651 1.334 . S
C1651 H1628 0.950 . S
C1651 C1650 1.334 . S
C1651 C1652 1.287 . S
C1652 C1651 1.287 . S
C1652 C1653 1.524 . S
C1652 H1671 0.913 . S
C1653 H1629 0.950 . S
C1653 C1652 1.524 . S
C1653 C1654 1.415 . S
C1654 H1630 0.950 . S
C1654 C1649 1.363 . S
C1654 C1653 1.415 . S
C1655 H1631 0.951 . S
C1655 C1656 1.366 . S
C1655 C1657 1.388 . S
C1656 C1655 1.366 . S
C1656 C1660 1.385 . S
C1657 H1632 0.951 . S
C1657 C1655 1.388 . S
C1657 C1658 1.366 . S
C1658 C1657 1.366 . S
C1658 C1659 1.414 . S
C1658 C1661 1.499 . S
C1659 H1633 0.950 . S
C1659 C1658 1.414 . S
C1659 C1660 1.374 . S
C1660 H1634 0.950 . S
C1660 C1656 1.385 . S
C1660 C1659 1.374 . S
C1661 C1658 1.499 . S
C1661 C1662 1.373 . S
C1661 C1663 1.389 . S
C1662 H1635 0.950 . S
C1662 C1648 1.377 . S
C1662 C1661 1.373 . S
C1663 C1647 1.377 . S
C1663 C1661 1.389 . S
C1663 C1664 1.524 . S
C1664 C1663 1.524 . S
C1664 C1665 1.397 . S
C1664 C1669 1.363 . S
C1665 H1636 0.950 . S
C1665 C1664 1.397 . S
C1665 C1666 1.334 . S
C1666 H1637 0.950 . S
C1666 C1665 1.334 . S
C1666 C1667 1.287 . S
C1667 C1666 1.287 . S
C1667 C1668 1.524 . S
C1667 H1670 0.999 . S
C1668 H1638 0.950 . S
C1668 C1667 1.524 . S
C1668 C1669 1.415 . S
C1669 H1639 0.950 . S
C1669 C1664 1.363 . S
C1669 C1668 1.415 . S
H1670 C1667 0.999 . S
H1671 C1652 0.913 . S
H1672 C1690 0.951 . S
H1673 C1692 0.951 . S
H1674 C1694 0.950 . S
H1675 C1695 0.950 . S
H1676 C1697 0.950 . S
H1677 C1700 0.950 . S
H1678 C1701 0.950 . S
H1679 C1703 0.950 . S
H1680 C1704 0.950 . S
H1681 C1705 0.951 . S
H1682 C1707 0.951 . S
H1683 C1709 0.950 . S
H1684 C1710 0.950 . S
H1685 C1712 0.950 . S
H1686 C1715 0.950 . S
H1687 C1716 0.950 . S
H1688 C1718 0.950 . S
H1689 C1719 0.950 . S
C1690 H1672 0.951 . S
C1690 C1691 1.366 . S
C1690 C1692 1.388 . S
C1691 C1690 1.366 . S
C1691 C1695 1.385 . S
C1692 H1673 0.951 . S
C1692 C1690 1.388 . S
C1692 C1693 1.366 . S
C1693 C1692 1.366 . S
C1693 C1694 1.414 . S
C1693 C1696 1.499 . S
C1694 H1674 0.950 . S
C1694 C1693 1.414 . S
C1694 C1695 1.374 . S
C1695 H1675 0.950 . S
C1695 C1691 1.385 . S
C1695 C1694 1.374 . S
C1696 C1693 1.499 . S
C1696 C1697 1.373 . S
C1696 C1698 1.389 . S
C1697 H1676 0.950 . S
C1697 C1696 1.373 . S
C1697 C1713 1.377 . S
C1698 C1696 1.389 . S
C1698 C1699 1.524 . S
C1698 C1712 1.377 . S
C1699 C1698 1.524 . S
C1699 C1700 1.397 . S
C1699 C1704 1.363 . S
C1700 H1677 0.950 . S
C1700 C1699 1.397 . S
C1700 C1701 1.334 . S
C1701 H1678 0.950 . S
C1701 C1700 1.334 . S
C1701 C1702 1.287 . S
C1702 C1701 1.287 . S
C1702 C1703 1.524 . S
C1702 H1721 0.913 . S
C1703 H1679 0.950 . S
C1703 C1702 1.524 . S
C1703 C1704 1.415 . S
C1704 H1680 0.950 . S
C1704 C1699 1.363 . S
C1704 C1703 1.415 . S
C1705 H1681 0.951 . S
C1705 C1706 1.366 . S
C1705 C1707 1.388 . S
C1706 C1705 1.366 . S
C1706 C1710 1.385 . S
C1707 H1682 0.951 . S
C1707 C1705 1.388 . S
C1707 C1708 1.366 . S
C1708 C1707 1.366 . S
C1708 C1709 1.414 . S
C1708 C1711 1.499 . S
C1709 H1683 0.950 . S
C1709 C1708 1.414 . S
C1709 C1710 1.374 . S
C1710 H1684 0.950 . S
C1710 C1706 1.385 . S
C1710 C1709 1.374 . S
C1711 C1708 1.499 . S
C1711 C1712 1.373 . S
C1711 C1713 1.389 . S
C1712 H1685 0.950 . S
C1712 C1698 1.377 . S
C1712 C1711 1.373 . S
C1713 C1697 1.377 . S
C1713 C1711 1.389 . S
C1713 C1714 1.524 . S
C1714 C1713 1.524 . S
C1714 C1715 1.397 . S
C1714 C1719 1.363 . S
C1715 H1686 0.950 . S
C1715 C1714 1.397 . S
C1715 C1716 1.334 . S
C1716 H1687 0.950 . S
C1716 C1715 1.334 . S
C1716 C1717 1.287 . S
C1717 C1716 1.287 . S
C1717 C1718 1.524 . S
C1717 H1720 0.999 . S
C1718 H1688 0.950 . S
C1718 C1717 1.524 . S
C1718 C1719 1.415 . S
C1719 H1689 0.950 . S
C1719 C1714 1.363 . S
C1719 C1718 1.415 . S
H1720 C1717 0.999 . S
H1721 C1702 0.913 . S
H1722 C1740 0.951 . S
H1723 C1742 0.951 . S
H1724 C1744 0.950 . S
H1725 C1745 0.950 . S
H1726 C1747 0.950 . S
H1727 C1750 0.950 . S
H1728 C1751 0.950 . S
H1729 C1753 0.950 . S
H1730 C1754 0.950 . S
H1731 C1755 0.951 . S
H1732 C1757 0.951 . S
H1733 C1759 0.950 . S
H1734 C1760 0.950 . S
H1735 C1762 0.950 . S
H1736 C1765 0.950 . S
H1737 C1766 0.950 . S
H1738 C1768 0.950 . S
H1739 C1769 0.950 . S
C1740 H1722 0.951 . S
C1740 C1741 1.366 . S
C1740 C1742 1.388 . S
C1741 C1740 1.366 . S
C1741 C1745 1.385 . S
C1742 H1723 0.951 . S
C1742 C1740 1.388 . S
C1742 C1743 1.366 . S
C1743 C1742 1.366 . S
C1743 C1744 1.414 . S
C1743 C1746 1.499 . S
C1744 H1724 0.950 . S
C1744 C1743 1.414 . S
C1744 C1745 1.374 . S
C1745 H1725 0.950 . S
C1745 C1741 1.385 . S
C1745 C1744 1.374 . S
C1746 C1743 1.499 . S
C1746 C1747 1.373 . S
C1746 C1748 1.389 . S
C1747 H1726 0.950 . S
C1747 C1746 1.373 . S
C1747 C1763 1.377 . S
C1748 C1746 1.389 . S
C1748 C1749 1.524 . S
C1748 C1762 1.377 . S
C1749 C1748 1.524 . S
C1749 C1750 1.397 . S
C1749 C1754 1.363 . S
C1750 H1727 0.950 . S
C1750 C1749 1.397 . S
C1750 C1751 1.334 . S
C1751 H1728 0.950 . S
C1751 C1750 1.334 . S
C1751 C1752 1.287 . S
C1752 C1751 1.287 . S
C1752 C1753 1.524 . S
C1752 H1771 0.913 . S
C1753 H1729 0.950 . S
C1753 C1752 1.524 . S
C1753 C1754 1.415 . S
C1754 H1730 0.950 . S
C1754 C1749 1.363 . S
C1754 C1753 1.415 . S
C1755 H1731 0.951 . S
C1755 C1756 1.366 . S
C1755 C1757 1.388 . S
C1756 C1755 1.366 . S
C1756 C1760 1.385 . S
C1757 H1732 0.951 . S
C1757 C1755 1.388 . S
C1757 C1758 1.366 . S
C1758 C1757 1.366 . S
C1758 C1759 1.414 . S
C1758 C1761 1.499 . S
C1759 H1733 0.950 . S
C1759 C1758 1.414 . S
C1759 C1760 1.374 . S
C1760 H1734 0.950 . S
C1760 C1756 1.385 . S
C1760 C1759 1.374 . S
C1761 C1758 1.499 . S
C1761 C1762 1.373 . S
C1761 C1763 1.389 . S
C1762 H1735 0.950 . S
C1762 C1748 1.377 . S
C1762 C1761 1.373 . S
C1763 C1747 1.377 . S
C1763 C1761 1.389 . S
C1763 C1764 1.524 . S
C1764 C1763 1.524 . S
C1764 C1765 1.397 . S
C1764 C1769 1.363 . S
C1765 H1736 0.950 . S
C1765 C1764 1.397 . S
C1765 C1766 1.334 . S
C1766 H1737 0.950 . S
C1766 C1765 1.334 . S
C1766 C1767 1.287 . S
C1767 C1766 1.287 . S
C1767 C1768 1.524 . S
C1767 H1770 0.999 . S
C1768 H1738 0.950 . S
C1768 C1767 1.524 . S
C1768 C1769 1.415 . S
C1769 H1739 0.950 . S
C1769 C1764 1.363 . S
C1769 C1768 1.415 . S
H1770 C1767 0.999 . S
H1771 C1752 0.913 . S
H1772 C1790 0.951 . S
H1773 C1792 0.951 . S
H1774 C1794 0.950 . S
H1775 C1795 0.950 . S
H1776 C1797 0.950 . S
H1777 C1800 0.950 . S
H1778 C1801 0.950 . S
H1779 C1803 0.950 . S
H1780 C1804 0.950 . S
H1781 C1805 0.951 . S
H1782 C1807 0.951 . S
H1783 C1809 0.950 . S
H1784 C1810 0.950 . S
H1785 C1812 0.950 . S
H1786 C1815 0.950 . S
H1787 C1816 0.950 . S
H1788 C1818 0.950 . S
H1789 C1819 0.950 . S
C1790 H1772 0.951 . S
C1790 C1791 1.366 . S
C1790 C1792 1.388 . S
C1791 C1790 1.366 . S
C1791 C1795 1.385 . S
C1792 H1773 0.951 . S
C1792 C1790 1.388 . S
C1792 C1793 1.366 . S
C1793 C1792 1.366 . S
C1793 C1794 1.414 . S
C1793 C1796 1.499 . S
C1794 H1774 0.950 . S
C1794 C1793 1.414 . S
C1794 C1795 1.374 . S
C1795 H1775 0.950 . S
C1795 C1791 1.385 . S
C1795 C1794 1.374 . S
C1796 C1793 1.499 . S
C1796 C1797 1.373 . S
C1796 C1798 1.389 . S
C1797 H1776 0.950 . S
C1797 C1796 1.373 . S
C1797 C1813 1.377 . S
C1798 C1796 1.389 . S
C1798 C1799 1.524 . S
C1798 C1812 1.377 . S
C1799 C1798 1.524 . S
C1799 C1800 1.397 . S
C1799 C1804 1.363 . S
C1800 H1777 0.950 . S
C1800 C1799 1.397 . S
C1800 C1801 1.334 . S
C1801 H1778 0.950 . S
C1801 C1800 1.334 . S
C1801 C1802 1.287 . S
C1802 C1801 1.287 . S
C1802 C1803 1.524 . S
C1802 H1821 0.913 . S
C1803 H1779 0.950 . S
C1803 C1802 1.524 . S
C1803 C1804 1.415 . S
C1804 H1780 0.950 . S
C1804 C1799 1.363 . S
C1804 C1803 1.415 . S
C1805 H1781 0.951 . S
C1805 C1806 1.366 . S
C1805 C1807 1.388 . S
C1806 C1805 1.366 . S
C1806 C1810 1.385 . S
C1807 H1782 0.951 . S
C1807 C1805 1.388 . S
C1807 C1808 1.366 . S
C1808 C1807 1.366 . S
C1808 C1809 1.414 . S
C1808 C1811 1.499 . S
C1809 H1783 0.950 . S
C1809 C1808 1.414 . S
C1809 C1810 1.374 . S
C1810 H1784 0.950 . S
C1810 C1806 1.385 . S
C1810 C1809 1.374 . S
C1811 C1808 1.499 . S
C1811 C1812 1.373 . S
C1811 C1813 1.389 . S
C1812 H1785 0.950 . S
C1812 C1798 1.377 . S
C1812 C1811 1.373 . S
C1813 C1797 1.377 . S
C1813 C1811 1.389 . S
C1813 C1814 1.524 . S
C1814 C1813 1.524 . S
C1814 C1815 1.397 . S
C1814 C1819 1.363 . S
C1815 H1786 0.950 . S
C1815 C1814 1.397 . S
C1815 C1816 1.334 . S
C1816 H1787 0.950 . S
C1816 C1815 1.334 . S
C1816 C1817 1.287 . S
C1817 C1816 1.287 . S
C1817 C1818 1.524 . S
C1817 H1820 0.999 . S
C1818 H1788 0.950 . S
C1818 C1817 1.524 . S
C1818 C1819 1.415 . S
C1819 H1789 0.950 . S
C1819 C1814 1.363 . S
C1819 C1818 1.415 . S
H1820 C1817 0.999 . S
H1821 C1802 0.913 . S
H1822 C1840 0.951 . S
H1823 C1842 0.951 . S
H1824 C1844 0.950 . S
H1825 C1845 0.950 . S
H1826 C1847 0.950 . S
H1827 C1850 0.950 . S
H1828 C1851 0.950 . S
H1829 C1853 0.950 . S
H1830 C1854 0.950 . S
H1831 C1855 0.951 . S
H1832 C1857 0.951 . S
H1833 C1859 0.950 . S
H1834 C1860 0.950 . S
H1835 C1862 0.950 . S
H1836 C1865 0.950 . S
H1837 C1866 0.950 . S
H1838 C1868 0.950 . S
H1839 C1869 0.950 . S
C1840 H1822 0.951 . S
C1840 C1841 1.366 1_655 S
C1840 C1842 1.388 . S
C1841 C1840 1.366 1_455 S
C1841 C1845 1.385 . S
C1842 H1823 0.951 . S
C1842 C1840 1.388 . S
C1842 C1843 1.366 1_655 S
C1843 C1842 1.366 1_455 S
C1843 C1844 1.414 . S
C1843 C1846 1.499 . S
C1844 H1824 0.950 . S
C1844 C1843 1.414 . S
C1844 C1845 1.374 . S
C1845 H1825 0.950 . S
C1845 C1841 1.385 . S
C1845 C1844 1.374 . S
C1846 C1843 1.499 . S
C1846 C1847 1.373 . S
C1846 C1848 1.389 1_455 S
C1847 H1826 0.950 . S
C1847 C1846 1.373 . S
C1847 C1863 1.377 1_556 S
C1848 C1846 1.389 1_655 S
C1848 C1849 1.524 . S
C1848 C1862 1.377 1_556 S
C1849 C1848 1.524 . S
C1849 C1850 1.397 1_655 S
C1849 C1854 1.363 . S
C1850 H1827 0.950 . S
C1850 C1849 1.397 1_455 S
C1850 C1851 1.334 . S
C1851 H1828 0.950 . S
C1851 C1850 1.334 . S
C1851 C1852 1.287 1_455 S
C1852 C1851 1.287 1_655 S
C1852 C1853 1.524 . S
C1852 H1871 0.913 . S
C1853 H1829 0.950 . S
C1853 C1852 1.524 . S
C1853 C1854 1.415 . S
C1854 H1830 0.950 . S
C1854 C1849 1.363 . S
C1854 C1853 1.415 . S
C1855 H1831 0.951 . S
C1855 C1856 1.366 1_455 S
C1855 C1857 1.388 . S
C1856 C1855 1.366 1_655 S
C1856 C1860 1.385 . S
C1857 H1832 0.951 . S
C1857 C1855 1.388 . S
C1857 C1858 1.366 1_455 S
C1858 C1857 1.366 1_655 S
C1858 C1859 1.414 . S
C1858 C1861 1.499 . S
C1859 H1833 0.950 . S
C1859 C1858 1.414 . S
C1859 C1860 1.374 . S
C1860 H1834 0.950 . S
C1860 C1856 1.385 . S
C1860 C1859 1.374 . S
C1861 C1858 1.499 . S
C1861 C1862 1.373 . S
C1861 C1863 1.389 1_655 S
C1862 H1835 0.950 . S
C1862 C1848 1.377 1_554 S
C1862 C1861 1.373 . S
C1863 C1847 1.377 1_554 S
C1863 C1861 1.389 1_455 S
C1863 C1864 1.524 . S
C1864 C1863 1.524 . S
C1864 C1865 1.397 1_455 S
C1864 C1869 1.363 . S
C1865 H1836 0.950 . S
C1865 C1864 1.397 1_655 S
C1865 C1866 1.334 . S
C1866 H1837 0.950 . S
C1866 C1865 1.334 . S
C1866 C1867 1.287 1_655 S
C1867 C1866 1.287 1_455 S
C1867 C1868 1.524 . S
C1867 H1870 0.999 . S
C1868 H1838 0.950 . S
C1868 C1867 1.524 . S
C1868 C1869 1.415 . S
C1869 H1839 0.950 . S
C1869 C1864 1.363 . S
C1869 C1868 1.415 . S
H1870 C1867 0.999 . S
H1871 C1852 0.913 . S
C691 C67 1.506 . S
C706 C319 1.500 . S
C741 C68 1.497 . S
C756 C151 1.506 . S
C791 C152 1.485 . S
C806 C235 1.500 . S
C841 C236 1.485 . S
C856 C320 1.481 . S
C891 C55 1.506 . S
C906 C475 1.513 . S
C941 C56 1.497 . S
C956 C391 1.504 . S
C991 C392 1.485 . S
C1006 C223 1.492 . S
C1041 C476 1.485 . S
C1056 C224 1.490 . S
C1091 C571 1.506 . S
C1106 C487 1.508 . S
C1141 C403 1.505 . S
C1156 C572 1.495 . S
C1191 C655 1.496 . S
C1206 C404 1.488 . S
C1241 C488 1.485 . S
C1256 C656 1.488 . S
C1291 C307 1.506 . S
C1306 C559 1.505 . S
C1341 C560 1.496 . S
C1356 C139 1.507 . S
C1391 C140 1.485 . S
C1406 C643 1.492 . S
C1441 C308 1.485 . S
C1456 C644 1.482 . S
C1491 C58 1.456 . S
C1506 C70 1.459 . S
C1541 C154 1.452 . S
C1556 C142 1.452 . S
C1591 C238 1.460 . S
C1606 C226 1.460 . S
C1641 C310 1.453 . S
C1656 C322 1.453 . S
C1691 C406 1.453 . S
C1706 C394 1.453 . S
C1741 C478 1.454 . S
C1756 C490 1.454 . S
C1791 C574 1.455 . S
C1806 C562 1.455 . S
C1841 C646 1.458 . S
C1856 C658 1.458 . S
