# Generated by pormake.
# Topology vbn, (6)-cn, num edge types: 1
# Building blocks:
#     Node 0, Type 0, BuildingBlock: IZENUY_clean_sbu_0, # of connection points: 6
#     Node 1, Type 0, BuildingBlock: IZENUY_clean_sbu_0, # of connection points: 6
#     Node 2, Type 0, BuildingBlock: IZENUY_clean_sbu_0, # of connection points: 6
#     Node 3, Type 0, BuildingBlock: IZENUY_clean_sbu_0, # of connection points: 6
#     Node 4, Type 0, BuildingBlock: IZENUY_clean_sbu_0, # of connection points: 6
#     Node 5, Type 0, BuildingBlock: IZENUY_clean_sbu_0, # of connection points: 6
#     Node 6, Type 0, BuildingBlock: IZENUY_clean_sbu_0, # of connection points: 6
#     Node 7, Type 0, BuildingBlock: IZENUY_clean_sbu_0, # of connection points: 6
#     Edge 8, Type (0, 0), BuildingBlock: OJICUG_clean_linker_0, # of connection points: 2
#     Edge 9, Type (0, 0), BuildingBlock: OJICUG_clean_linker_0, # of connection points: 2
#     Edge 10, Type (0, 0), BuildingBlock: OJICUG_clean_linker_0, # of connection points: 2
#     Edge 11, Type (0, 0), BuildingBlock: OJICUG_clean_linker_0, # of connection points: 2
#     Edge 12, Type (0, 0), BuildingBlock: OJICUG_clean_linker_0, # of connection points: 2
#     Edge 13, Type (0, 0), BuildingBlock: OJICUG_clean_linker_0, # of connection points: 2
#     Edge 14, Type (0, 0), BuildingBlock: OJICUG_clean_linker_0, # of connection points: 2
#     Edge 15, Type (0, 0), BuildingBlock: OJICUG_clean_linker_0, # of connection points: 2
#     Edge 16, Type (0, 0), BuildingBlock: OJICUG_clean_linker_0, # of connection points: 2
#     Edge 17, Type (0, 0), BuildingBlock: OJICUG_clean_linker_0, # of connection points: 2
#     Edge 18, Type (0, 0), BuildingBlock: OJICUG_clean_linker_0, # of connection points: 2
#     Edge 19, Type (0, 0), BuildingBlock: OJICUG_clean_linker_0, # of connection points: 2
#     Edge 20, Type (0, 0), BuildingBlock: OJICUG_clean_linker_0, # of connection points: 2
#     Edge 21, Type (0, 0), BuildingBlock: OJICUG_clean_linker_0, # of connection points: 2
#     Edge 22, Type (0, 0), BuildingBlock: OJICUG_clean_linker_0, # of connection points: 2
#     Edge 23, Type (0, 0), BuildingBlock: OJICUG_clean_linker_0, # of connection points: 2
#     Edge 24, Type (0, 0), BuildingBlock: OJICUG_clean_linker_0, # of connection points: 2
#     Edge 25, Type (0, 0), BuildingBlock: OJICUG_clean_linker_0, # of connection points: 2
#     Edge 26, Type (0, 0), BuildingBlock: OJICUG_clean_linker_0, # of connection points: 2
#     Edge 27, Type (0, 0), BuildingBlock: OJICUG_clean_linker_0, # of connection points: 2
#     Edge 28, Type (0, 0), BuildingBlock: OJICUG_clean_linker_0, # of connection points: 2
#     Edge 29, Type (0, 0), BuildingBlock: OJICUG_clean_linker_0, # of connection points: 2
#     Edge 30, Type (0, 0), BuildingBlock: OJICUG_clean_linker_0, # of connection points: 2
#     Edge 31, Type (0, 0), BuildingBlock: OJICUG_clean_linker_0, # of connection points: 2
# Relax obj value: 0.241
# Max RMSD: 0.242
# Mean RMSD: 0.242
data_MOF--net-vbn--node1-IZENUY_clean_sbu_0--edge1-OJICUG_clean_linker_0
_symmetry_space_group_name_H-M    P1
_symmetry_Int_Tables_number       1
_symmetry_cell_setting            triclinic
loop_
_symmetry_equiv_pos_as_xyz
'x, y, z'
_cell_length_a     18.722272
_cell_length_b     20.584699
_cell_length_c     34.008073
_cell_angle_alpha  90.003412
_cell_angle_beta   90.000118
_cell_angle_gamma 90.008352
loop_
_atom_site_label
_atom_site_type_symbol
_atom_site_fract_x
_atom_site_fract_y
_atom_site_fract_z
_atom_type_partial_charge
Fe0 Fe 0.4512 0.3835 0.41589 0.0
Fe1 Fe 0.39672 0.28479 0.4745 0.0
O2 O 0.39002 0.3226 0.42844 0.0
Fe3 Fe 0.32132 0.30197 0.39557 0.0
O4 O 0.28551 0.38303 0.39795 0.0
O5 O 0.3874 0.42957 0.38504 0.0
O6 O 0.41865 0.43226 0.45524 0.0
C7 C 0.43214 0.41819 0.49004 0.0
C8 C 0.44567 0.31857 0.34729 0.0
O9 O 0.43581 0.35828 0.49991 0.0
C10 C 0.35087 0.18279 0.42206 0.0
O11 O 0.52596 0.34864 0.44584 0.0
O12 O 0.48338 0.25345 0.46191 0.0
O13 O 0.37739 0.31806 0.35072 0.0
O14 O 0.48411 0.33655 0.37555 0.0
C15 C 0.25427 0.29974 0.47125 0.0
O16 O 0.35845 0.20565 0.4568 0.0
O17 O 0.35269 0.21995 0.3928 0.0
C18 C 0.53566 0.29145 0.45936 0.0
O19 O 0.31074 0.31472 0.48891 0.0
O20 O 0.25568 0.28175 0.43532 0.0
C21 C 0.32074 0.4337 0.39155 0.0
Fe22 Fe 0.21804 0.23609 0.89562 0.0
Fe23 Fe 0.08814 0.15458 0.91588 0.0
O24 O 0.14929 0.2155 0.92844 0.0
Fe25 Fe 0.14249 0.25337 0.9745 0.0
O26 O 0.22845 0.22347 0.98897 0.0
O27 O 0.28362 0.25636 0.93539 0.0
O28 O 0.25385 0.15505 0.89803 0.0
C29 C 0.21864 0.10437 0.89161 0.0
C30 C 0.18842 0.35531 0.92204 0.0
O31 O 0.15199 0.10849 0.88507 0.0
C32 C 1.00358 0.24666 0.95928 0.0
O33 O 0.16205 0.21996 0.85074 0.0
O34 O 0.0553 0.2015 0.87552 0.0
O35 O 0.18078 0.33249 0.95679 0.0
O36 O 0.18667 0.3181 0.8928 0.0
C37 C 0.10706 0.11997 0.99006 0.0
O38 O 1.01332 0.18946 0.94578 0.0
O39 O 0.05585 0.28468 0.96184 0.0
C40 C 0.09378 0.21946 0.84727 0.0
O41 O 0.12062 0.10587 0.95526 0.0
O42 O 0.10337 0.17989 0.99991 0.0
C43 C 0.28495 0.23841 0.97133 0.0
Fe44 Fe 0.95111 0.15485 0.62906 0.0
Fe45 Fe 0.89655 0.25348 0.57044 0.0
O46 O 0.88992 0.21571 0.61652 0.0
Fe47 Fe 0.82126 0.23633 0.64939 0.0
O48 O 0.78545 0.15527 0.64704 0.0
O49 O 0.88736 0.10876 0.65995 0.0
O50 O 0.9185 0.10606 0.58974 0.0
C51 C 0.93195 0.12011 0.55492 0.0
C52 C 0.94565 0.21975 0.69766 0.0
O53 O 0.93564 0.18001 0.54504 0.0
C54 C 0.8508 0.3555 0.62288 0.0
O55 O 0.02584 0.18973 0.59908 0.0
O56 O 0.98321 0.28489 0.58298 0.0
O57 O 0.87736 0.22026 0.69423 0.0
O58 O 0.98406 0.20183 0.66938 0.0
C59 C 0.75412 0.23846 0.57374 0.0
O60 O 0.85827 0.33262 0.58814 0.0
O61 O 0.85266 0.31835 0.65215 0.0
C62 C 0.0355 0.24692 0.58553 0.0
O63 O 0.81057 0.22346 0.55608 0.0
O64 O 0.75558 0.25654 0.60966 0.0
C65 C 0.82068 0.10463 0.6535 0.0
Fe66 Fe 0.58823 0.3832 0.12911 0.0
Fe67 Fe 0.64271 0.28459 0.07044 0.0
O68 O 0.64941 0.32235 0.11653 0.0
Fe69 Fe 0.71813 0.30174 0.14936 0.0
O70 O 0.75392 0.38281 0.147 0.0
O71 O 0.65203 0.4293 0.15998 0.0
O72 O 0.62076 0.432 0.08978 0.0
C73 C 0.60723 0.41796 0.05497 0.0
C74 C 0.59383 0.31827 0.1977 0.0
O75 O 0.60355 0.35806 0.04508 0.0
C76 C 0.68856 0.18257 0.12285 0.0
O77 O 0.51346 0.34831 0.09916 0.0
O78 O 0.55608 0.25316 0.08302 0.0
O79 O 0.6621 0.31779 0.19424 0.0
O80 O 0.55536 0.3362 0.16943 0.0
C81 C 0.78514 0.29964 0.07368 0.0
O82 O 0.68104 0.20546 0.08811 0.0
O83 O 0.68677 0.21971 0.15212 0.0
C84 C 0.50378 0.29112 0.0856 0.0
O85 O 0.72866 0.31463 0.05605 0.0
O86 O 0.78375 0.28155 0.1096 0.0
C87 C 0.71869 0.43345 0.15349 0.0
Fe88 Fe 0.58809 0.6547 0.62941 0.0
Fe89 Fe 0.64242 0.75353 0.57082 0.0
O90 O 0.64924 0.71563 0.61686 0.0
Fe91 Fe 0.71799 0.73621 0.64969 0.0
O92 O 0.7538 0.65517 0.64726 0.0
O93 O 0.65195 0.6086 0.66021 0.0
O94 O 0.62059 0.60602 0.59002 0.0
C95 C 0.60702 0.62013 0.55523 0.0
C96 C 0.59373 0.71955 0.69804 0.0
O97 O 0.60331 0.68006 0.54539 0.0
C98 C 0.68837 0.85544 0.6233 0.0
O99 O 0.51327 0.68958 0.59952 0.0
O100 O 0.55578 0.78482 0.58349 0.0
O101 O 0.662 0.72006 0.69457 0.0
O102 O 0.55525 0.7016 0.66978 0.0
C103 C 0.78489 0.73858 0.57398 0.0
O104 O 0.6807 0.83265 0.58855 0.0
O105 O 0.68662 0.81822 0.65254 0.0
C106 C 0.50352 0.7468 0.58604 0.0
O107 O 0.72839 0.72367 0.55633 0.0
O108 O 0.78356 0.7565 0.60992 0.0
C109 C 0.7186 0.60449 0.65367 0.0
Fe110 Fe 0.9512 0.8834 0.1294 0.0
Fe111 Fe 0.89676 0.78465 0.0708 0.0
O112 O 0.89004 0.82248 0.11686 0.0
Fe113 Fe 0.82134 0.80186 0.14972 0.0
O114 O 0.78551 0.88291 0.14734 0.0
O115 O 0.88739 0.92947 0.16025 0.0
O116 O 0.91865 0.93213 0.09005 0.0
C117 C 0.93216 0.91805 0.05525 0.0
C118 C 0.94567 0.8185 0.19802 0.0
O119 O 0.93584 0.85813 0.04538 0.0
C120 C 0.85092 0.68267 0.12325 0.0
O121 O 0.02598 0.84854 0.09947 0.0
O122 O 0.98342 0.75333 0.0834 0.0
O123 O 0.87739 0.81797 0.19457 0.0
O124 O 0.98411 0.83647 0.16975 0.0
C125 C 0.75431 0.7996 0.07404 0.0
O126 O 0.8585 0.70551 0.08851 0.0
O127 O 0.85271 0.71985 0.15251 0.0
C128 C 0.03569 0.79134 0.08596 0.0
O129 O 0.81078 0.81456 0.05638 0.0
O130 O 0.7557 0.78161 0.10997 0.0
C131 C 0.82073 0.93359 0.15373 0.0
Fe132 Fe 0.08818 0.88329 0.4162 0.0
Fe133 Fe 0.14269 0.7847 0.47486 0.0
O134 O 0.14938 0.82246 0.42878 0.0
Fe135 Fe 0.21811 0.80186 0.39595 0.0
O136 O 0.25387 0.88294 0.39831 0.0
O137 O 0.15196 0.9294 0.38534 0.0
O138 O 0.12069 0.9321 0.45553 0.0
C139 C 0.10716 0.91807 0.49034 0.0
C140 C 0.0938 0.81834 0.34761 0.0
O141 O 0.1035 0.85817 0.50023 0.0
C142 C 0.18858 0.68269 0.42246 0.0
O143 O 1.01341 0.84837 0.44614 0.0
O144 O 0.05607 0.75325 0.46228 0.0
O145 O 0.16208 0.81788 0.35107 0.0
O146 O 0.05533 0.83627 0.37587 0.0
C147 C 0.28511 0.7998 0.47163 0.0
O148 O 0.18105 0.70558 0.4572 0.0
O149 O 0.18678 0.71983 0.39319 0.0
C150 C 1.00376 0.79119 0.45971 0.0
O151 O 0.22863 0.81478 0.48926 0.0
O152 O 0.28373 0.7817 0.43572 0.0
C153 C 0.21863 0.93357 0.39183 0.0
Fe154 Fe 0.39658 0.75335 0.97487 0.0
Fe155 Fe 0.32126 0.73621 0.89593 0.0
O156 O 0.38993 0.71559 0.92878 0.0
Fe157 Fe 0.45112 0.65472 0.91623 0.0
O158 O 0.41852 0.60593 0.95555 0.0
O159 O 0.43569 0.67987 1.00026 0.0
O160 O 0.3106 0.72332 0.98923 0.0
C161 C 0.25415 0.73832 0.97158 0.0
C162 C 0.53553 0.74679 0.95976 0.0
O163 O 0.25559 0.75641 0.93567 0.0
C164 C 0.44562 0.71966 0.84764 0.0
O165 O 0.35829 0.83249 0.95719 0.0
O166 O 0.35265 0.81823 0.89318 0.0
O167 O 0.52586 0.68961 0.9462 0.0
O168 O 0.48323 0.78476 0.96233 0.0
C169 C 0.32068 0.60451 0.8918 0.0
O170 O 0.37734 0.72016 0.85108 0.0
O171 O 0.48405 0.70172 0.87592 0.0
C172 C 0.35081 0.85538 0.92245 0.0
O173 O 0.28545 0.65515 0.89827 0.0
O174 O 0.38735 0.60864 0.88534 0.0
C175 C 0.432 0.61997 0.99036 0.0
C176 C 0.31069 1.00208 0.42567 0.0
C177 C 0.25345 0.99719 0.39872 0.0
H178 H 0.38552 0.06491 0.45518 0.0
C179 C 0.22801 0.0537 0.3807 0.0
H180 H 0.33054 0.95933 0.4407 0.0
C181 C 0.26036 0.11351 0.38854 0.0
C182 C 0.31763 0.1185 0.41537 0.0
H183 H 0.18361 0.0516 0.36031 0.0
H184 H 0.23984 0.15632 0.37384 0.0
C185 C 0.34187 0.06237 0.43433 0.0
C186 C 0.19743 0.47573 0.93431 0.0
C187 C 0.22165 0.4196 0.91535 0.0
H188 H 0.20878 0.57877 0.94068 0.0
C189 C 0.27889 0.42459 0.8885 0.0
H190 H 0.1538 0.47319 0.95518 0.0
C191 C 0.31124 0.48439 0.88065 0.0
C192 C 0.28583 0.5409 0.89869 0.0
H193 H 0.2994 0.38178 0.87379 0.0
H194 H 0.35563 0.48649 0.86026 0.0
C195 C 0.22861 0.53602 0.92564 0.0
C196 C 0.72733 0.48414 0.66409 0.0
C197 C 0.7534 0.54091 0.64663 0.0
H198 H 0.73861 0.38136 0.67034 0.0
C199 C 0.8112 0.53631 0.62002 0.0
H200 H 0.68249 0.486 0.68419 0.0
C201 C 0.84233 0.47609 0.61117 0.0
C202 C 0.81744 0.4197 0.62958 0.0
H203 H 0.83157 0.57925 0.60541 0.0
H204 H 0.88647 0.47378 0.59063 0.0
C205 C 0.75959 0.42438 0.65605 0.0
C206 C 0.78014 0.11381 0.15578 0.0
C207 C 0.72197 0.11838 0.12953 0.0
H208 H 0.85744 0.05226 0.1838 0.0
C209 C 0.69671 0.06191 0.11137 0.0
H210 H 0.80137 0.1569 0.16988 0.0
C211 C 0.72782 1.00169 0.12027 0.0
C212 C 0.78594 0.99718 0.14667 0.0
H213 H 0.65229 0.06414 0.091 0.0
H214 H 0.70716 0.95868 0.10585 0.0
C215 C 0.81235 0.05404 0.16387 0.0
C216 C 0.81108 0.98456 0.66476 0.0
C217 C 0.78582 0.04103 0.64663 0.0
H218 H 0.7991 0.88198 0.67172 0.0
C219 C 0.72872 0.03612 0.6196 0.0
H220 H 0.85538 0.98668 0.68522 0.0
C221 C 0.69752 0.97584 0.61095 0.0
C222 C 0.72158 0.91974 0.63001 0.0
H223 H 0.70901 0.07884 0.60448 0.0
H224 H 0.65399 0.97327 0.59002 0.0
C225 C 0.7787 0.92476 0.65694 0.0
C226 C 0.76041 0.61339 0.15677 0.0
C227 C 0.81769 0.61837 0.12994 0.0
H228 H 0.68366 0.55149 0.18499 0.0
C229 C 0.84195 0.56223 0.111 0.0
H230 H 0.73987 0.6562 0.17146 0.0
C231 C 0.81078 0.50195 0.11967 0.0
C232 C 0.75352 0.49706 0.1466 0.0
H233 H 0.88561 0.56478 0.09016 0.0
H234 H 0.83065 0.4592 0.10465 0.0
C235 C 0.72807 0.55358 0.16461 0.0
C236 C 0.22788 0.50182 0.42506 0.0
C237 C 0.28596 0.4973 0.39863 0.0
H238 H 0.15238 0.56427 0.45434 0.0
C239 C 0.31234 0.55415 0.38141 0.0
H240 H 0.20725 0.45881 0.43949 0.0
C241 C 0.28013 0.61392 0.3895 0.0
C242 C 0.22199 0.6185 0.41578 0.0
H243 H 0.35741 0.55236 0.36146 0.0
H244 H 0.30134 0.657 0.37539 0.0
C245 C 0.19677 0.56203 0.43396 0.0
C246 C 0.31134 0.03621 0.92521 0.0
C247 C 0.25343 0.04078 0.89867 0.0
H248 H 0.38669 0.97371 0.95457 0.0
C249 C 0.22724 0.98398 0.8813 0.0
H250 H 0.33181 0.07918 0.93976 0.0
C251 C 0.25947 0.92421 0.88936 0.0
C252 C 0.31743 0.91957 0.91576 0.0
H253 H 0.18231 0.98581 0.86126 0.0
H254 H 0.2384 0.88117 0.87514 0.0
C255 C 0.34246 0.97599 0.93408 0.0
C256 C 0.46264 0.53507 0.4983 0.0
C257 C 0.47106 0.47009 0.51107 0.0
H258 H 0.50241 0.63273 0.49947 0.0
C259 C 0.52806 0.455 0.53597 0.0
H260 H 0.41948 0.54827 0.4786 0.0
C261 C 0.57653 0.50326 0.54696 0.0
C262 C 0.5681 0.56825 0.53419 0.0
H263 H 0.53675 0.4056 0.5458 0.0
H264 H 0.61968 0.49005 0.56666 0.0
C265 C 0.5111 0.58334 0.50929 0.0
C266 C 0.96268 0.03492 0.047 0.0
C267 C 0.97108 0.96994 0.03422 0.0
H268 H 1.00247 0.13258 0.04583 0.0
C269 C 0.02806 0.95484 1.0093 0.0
H270 H 0.91954 0.04813 0.0667 0.0
C271 C 0.07653 1.0031 0.9983 0.0
C272 C 0.06813 0.06809 1.01108 0.0
H273 H 0.03674 0.90545 0.99947 0.0
H274 H 0.11967 0.98988 0.9786 0.0
C275 C 1.01115 0.08318 0.036 0.0
C276 C 0.96194 1.0032 0.54651 0.0
C277 C 0.97089 0.06822 0.53393 0.0
H278 H 1.00137 0.90543 0.5454 0.0
C279 C 0.02849 0.08329 0.50945 0.0
H280 H 0.91831 0.99003 0.56591 0.0
C281 C 0.07704 0.03496 0.49869 0.0
C282 C 0.06811 0.96994 0.51128 0.0
H283 H 0.03758 0.13271 0.49979 0.0
H284 H 0.12066 0.04813 0.4793 0.0
C285 C 1.01047 0.95486 0.53574 0.0
C286 C 0.46215 0.50307 0.99869 0.0
C287 C 0.47097 0.56808 1.01133 0.0
H288 H 0.50169 0.40535 0.99977 0.0
C289 C 0.52847 0.58316 0.03589 0.0
H290 H 0.41861 0.4899 0.97924 0.0
C291 C 0.57702 0.53485 0.04668 0.0
C292 C 0.5682 0.46985 0.03403 0.0
H293 H 0.53747 0.63257 0.0456 0.0
H294 H 0.62056 0.54803 0.06613 0.0
C295 C 0.5107 0.45476 1.00947 0.0
C296 C 0.59481 0.30703 0.27159 0.0
C297 C 0.55695 0.30883 0.2361 0.0
H298 H 0.58935 0.30775 0.3343 0.0
C299 C 0.48143 0.30671 0.23751 0.0
H300 H 0.65265 0.30817 0.2717 0.0
C301 C 0.44474 0.30685 0.27342 0.0
C302 C 0.48259 0.30902 0.3089 0.0
H303 H 0.4502 0.30709 0.2107 0.0
H304 H 0.38689 0.30783 0.2733 0.0
C305 C 0.55811 0.30708 0.3075 0.0
C306 C 0.09478 0.23094 0.77339 0.0
C307 C 0.05692 0.229 0.80886 0.0
H308 H 0.08933 0.23049 0.71067 0.0
C309 C 0.9814 0.23115 0.80746 0.0
H310 H 0.15262 0.22979 0.77327 0.0
C311 C 0.94471 0.23118 0.77154 0.0
C312 C 0.98256 0.22915 0.73606 0.0
H313 H 0.95016 0.23066 0.83426 0.0
H314 H 0.88687 0.23021 0.77166 0.0
C315 C 0.05809 0.23107 0.73747 0.0
C316 C 0.55806 0.73105 0.80784 0.0
C317 C 0.48253 0.72911 0.80924 0.0
H318 H 0.65258 0.72984 0.77204 0.0
C319 C 0.44467 0.73116 0.77377 0.0
H320 H 0.5893 0.73046 0.83464 0.0
C321 C 0.48135 0.73118 0.73786 0.0
C322 C 0.55687 0.72906 0.73644 0.0
H323 H 0.38683 0.73018 0.77365 0.0
H324 H 0.45011 0.73071 0.71105 0.0
C325 C 0.59474 0.73097 0.77192 0.0
C326 C 0.94473 0.80684 0.27189 0.0
C327 C 0.98258 0.80899 0.23641 0.0
H328 H 0.95018 0.80713 0.3346 0.0
C329 C 0.05811 0.80707 0.23781 0.0
H330 H 0.88689 0.8078 0.272 0.0
C331 C 0.0948 0.80706 0.27372 0.0
C332 C 0.05694 0.80888 0.30921 0.0
H333 H 0.08935 0.80773 0.21101 0.0
H334 H 0.15264 0.80821 0.27361 0.0
C335 C 0.98142 0.80673 0.3078 0.0
C336 C 0.60679 0.21393 0.50036 0.0
C337 C 0.59672 0.27746 0.48589 0.0
H338 H 0.66354 0.15214 0.54054 0.0
C339 C 0.63723 0.32822 0.50228 0.0
H340 H 0.57654 0.17362 0.48843 0.0
C341 C 0.68444 0.31608 0.53339 0.0
C342 C 0.69308 0.25282 0.54814 0.0
H343 H 0.63102 0.3776 0.49188 0.0
H344 H 0.71587 0.3558 0.54516 0.0
C345 C 0.65512 0.20169 0.53082 0.0
C346 C 0.93236 0.3242 1.00023 0.0
C347 C 0.94249 0.26065 0.98579 0.0
H348 H 0.87556 0.386 0.04038 0.0
C349 C 0.90205 0.20989 1.00222 0.0
H350 H 0.96256 0.36451 0.98826 0.0
C351 C 0.85485 0.22203 0.03333 0.0
C352 C 0.84615 0.2853 0.04804 0.0
H353 H 0.9083 0.16049 0.99184 0.0
H354 H 0.82348 0.1823 0.04513 0.0
C355 C 0.88404 0.33644 0.03069 0.0
C356 C 0.13773 0.21026 0.54304 0.0
C357 C 0.0966 0.26095 0.55901 0.0
H358 H 0.21701 0.18262 0.50054 0.0
C359 C 0.10618 0.32432 0.54416 0.0
H360 H 0.13191 0.161 0.55373 0.0
C361 C 0.15462 0.33644 0.51374 0.0
C362 C 0.19323 0.28533 0.49685 0.0
H363 H 0.07546 0.36459 0.55577 0.0
H364 H 0.16262 0.38588 0.50371 0.0
C365 C 0.1851 0.22227 0.51198 0.0
C366 C 0.40153 0.32783 0.04314 0.0
C367 C 0.44266 0.27712 0.0591 0.0
H368 H 0.32224 0.35551 1.00066 0.0
C369 C 0.43305 0.21376 0.04424 0.0
H370 H 0.40739 0.37709 0.05384 0.0
C371 C 0.38459 0.20166 1.01382 0.0
C372 C 0.34598 0.25279 0.99695 0.0
H373 H 0.46376 0.17348 0.05583 0.0
H374 H 0.37657 0.15223 1.00378 0.0
C375 C 0.35414 0.31584 1.01209 0.0
C376 C 0.43228 0.82434 0.54512 0.0
C377 C 0.44243 0.76079 0.55953 0.0
H378 H 0.37548 0.88616 0.50498 0.0
C379 C 0.40201 0.71002 0.54309 0.0
H380 H 0.46247 0.86466 0.5571 0.0
C381 C 0.35483 0.72218 0.51197 0.0
C382 C 0.34611 0.78545 0.49727 0.0
H383 H 0.40827 0.66062 0.55345 0.0
H384 H 0.32347 0.68245 0.50015 0.0
C385 C 0.38397 0.8366 0.51465 0.0
C386 C 0.13722 0.82811 0.04302 0.0
C387 C 0.09677 0.77734 0.05944 0.0
H388 H 0.21581 0.85569 1.00011 0.0
C389 C 0.10689 0.7138 0.045 0.0
H390 H 0.13097 0.8775 0.0534 0.0
C391 C 0.15522 0.70155 1.01454 0.0
C392 C 0.19313 0.75269 0.9972 0.0
H393 H 0.07668 0.67348 0.05696 0.0
H394 H 0.16369 0.65199 1.00485 0.0
C395 C 0.18442 0.81596 1.01191 0.0
C396 C 0.90131 0.82788 0.50204 0.0
C397 C 0.94265 0.77719 0.48623 0.0
H398 H 0.82179 0.85559 0.54439 0.0
C399 C 0.93324 0.7139 0.50123 0.0
H400 H 0.90701 0.87709 0.49124 0.0
C401 C 0.88476 0.70186 0.53165 0.0
C402 C 0.84592 0.75297 0.54837 0.0
H403 H 0.96412 0.67363 0.48976 0.0
H404 H 0.87691 0.65246 0.5418 0.0
C405 C 0.85388 0.81595 0.53307 0.0
C406 C 0.68504 0.72212 0.03335 0.0
C407 C 0.69326 0.78521 0.04844 0.0
H408 H 0.63179 0.66082 0.99165 0.0
C409 C 0.65473 0.83633 0.0315 0.0
H410 H 0.71689 0.68246 0.04484 0.0
C411 C 0.60629 0.82419 1.00108 0.0
C412 C 0.59663 0.7608 0.98628 0.0
H413 H 0.6628 0.88578 0.04149 0.0
H414 H 0.57564 0.86447 0.98944 0.0
C415 C 0.63768 0.7101 1.0023 0.0
loop_
_geom_bond_atom_site_label_1
_geom_bond_atom_site_label_2
_geom_bond_distance
_geom_bond_site_symmetry_2
_ccdc_geom_bond_type
Fe0 O2 1.918 . S
Fe0 O5 1.997 . S
Fe0 O6 2.002 . S
Fe0 O11 1.976 . S
Fe0 O14 1.996 . S
Fe1 O2 1.918 . S
Fe1 O9 1.997 . S
Fe1 O12 1.996 . S
Fe1 O16 1.976 . S
Fe1 O19 2.002 . S
O2 Fe0 1.918 . S
O2 Fe1 1.918 . S
O2 Fe3 1.918 . S
Fe3 O2 1.918 . S
Fe3 O4 2.002 . S
Fe3 O13 1.976 . S
Fe3 O17 1.996 . S
Fe3 O20 1.997 . S
O4 Fe3 2.002 . S
O4 C21 1.295 . S
O5 Fe0 1.997 . S
O5 C21 1.235 . S
O6 Fe0 2.002 . S
O6 C7 1.295 . S
C7 O6 1.295 . S
C7 O9 1.235 . S
C8 O13 1.287 . S
C8 O14 1.255 . S
O9 Fe1 1.997 . S
O9 C7 1.235 . S
C10 O16 1.287 . S
C10 O17 1.255 . S
O11 Fe0 1.976 . S
O11 C18 1.287 . S
O12 Fe1 1.996 . S
O12 C18 1.255 . S
O13 Fe3 1.976 . S
O13 C8 1.287 . S
O14 Fe0 1.996 . S
O14 C8 1.255 . S
C15 O19 1.295 . S
C15 O20 1.235 . S
O16 Fe1 1.976 . S
O16 C10 1.287 . S
O17 Fe3 1.996 . S
O17 C10 1.255 . S
C18 O11 1.287 . S
C18 O12 1.255 . S
O19 Fe1 2.002 . S
O19 C15 1.295 . S
O20 Fe3 1.997 . S
O20 C15 1.235 . S
C21 O4 1.295 . S
C21 O5 1.235 . S
Fe22 O24 1.918 . S
Fe22 O27 1.997 . S
Fe22 O28 2.002 . S
Fe22 O33 1.976 . S
Fe22 O36 1.996 . S
Fe23 O24 1.918 . S
Fe23 O31 1.997 . S
Fe23 O34 1.996 . S
Fe23 O38 1.976 1_455 S
Fe23 O41 2.002 . S
O24 Fe22 1.918 . S
O24 Fe23 1.918 . S
O24 Fe25 1.918 . S
Fe25 O24 1.918 . S
Fe25 O26 2.002 . S
Fe25 O35 1.976 . S
Fe25 O39 1.996 . S
Fe25 O42 1.997 . S
O26 Fe25 2.002 . S
O26 C43 1.295 . S
O27 Fe22 1.997 . S
O27 C43 1.235 . S
O28 Fe22 2.002 . S
O28 C29 1.295 . S
C29 O28 1.295 . S
C29 O31 1.235 . S
C30 O35 1.287 . S
C30 O36 1.255 . S
O31 Fe23 1.997 . S
O31 C29 1.235 . S
C32 O38 1.287 . S
C32 O39 1.255 1_655 S
O33 Fe22 1.976 . S
O33 C40 1.287 . S
O34 Fe23 1.996 . S
O34 C40 1.255 . S
O35 Fe25 1.976 . S
O35 C30 1.287 . S
O36 Fe22 1.996 . S
O36 C30 1.255 . S
C37 O41 1.295 . S
C37 O42 1.235 . S
O38 Fe23 1.976 1_655 S
O38 C32 1.287 . S
O39 Fe25 1.996 . S
O39 C32 1.255 1_455 S
C40 O33 1.287 . S
C40 O34 1.255 . S
O41 Fe23 2.002 . S
O41 C37 1.295 . S
O42 Fe25 1.997 . S
O42 C37 1.235 . S
C43 O26 1.295 . S
C43 O27 1.235 . S
Fe44 O46 1.918 . S
Fe44 O49 1.997 . S
Fe44 O50 2.002 . S
Fe44 O55 1.976 1_655 S
Fe44 O58 1.996 . S
Fe45 O46 1.918 . S
Fe45 O53 1.997 . S
Fe45 O56 1.996 . S
Fe45 O60 1.976 . S
Fe45 O63 2.002 . S
O46 Fe44 1.918 . S
O46 Fe45 1.918 . S
O46 Fe47 1.918 . S
Fe47 O46 1.918 . S
Fe47 O48 2.002 . S
Fe47 O57 1.976 . S
Fe47 O61 1.996 . S
Fe47 O64 1.997 . S
O48 Fe47 2.002 . S
O48 C65 1.295 . S
O49 Fe44 1.997 . S
O49 C65 1.235 . S
O50 Fe44 2.002 . S
O50 C51 1.295 . S
C51 O50 1.295 . S
C51 O53 1.235 . S
C52 O57 1.287 . S
C52 O58 1.255 . S
O53 Fe45 1.997 . S
O53 C51 1.235 . S
C54 O60 1.287 . S
C54 O61 1.255 . S
O55 Fe44 1.976 1_455 S
O55 C62 1.287 . S
O56 Fe45 1.996 . S
O56 C62 1.255 1_655 S
O57 Fe47 1.976 . S
O57 C52 1.287 . S
O58 Fe44 1.996 . S
O58 C52 1.255 . S
C59 O63 1.295 . S
C59 O64 1.235 . S
O60 Fe45 1.976 . S
O60 C54 1.287 . S
O61 Fe47 1.996 . S
O61 C54 1.255 . S
C62 O55 1.287 . S
C62 O56 1.255 1_455 S
O63 Fe45 2.002 . S
O63 C59 1.295 . S
O64 Fe47 1.997 . S
O64 C59 1.235 . S
C65 O48 1.295 . S
C65 O49 1.235 . S
Fe66 O68 1.918 . S
Fe66 O71 1.997 . S
Fe66 O72 2.002 . S
Fe66 O77 1.976 . S
Fe66 O80 1.996 . S
Fe67 O68 1.918 . S
Fe67 O75 1.997 . S
Fe67 O78 1.996 . S
Fe67 O82 1.976 . S
Fe67 O85 2.002 . S
O68 Fe66 1.918 . S
O68 Fe67 1.918 . S
O68 Fe69 1.918 . S
Fe69 O68 1.918 . S
Fe69 O70 2.002 . S
Fe69 O79 1.976 . S
Fe69 O83 1.996 . S
Fe69 O86 1.997 . S
O70 Fe69 2.002 . S
O70 C87 1.295 . S
O71 Fe66 1.997 . S
O71 C87 1.235 . S
O72 Fe66 2.002 . S
O72 C73 1.295 . S
C73 O72 1.295 . S
C73 O75 1.235 . S
C74 O79 1.287 . S
C74 O80 1.255 . S
O75 Fe67 1.997 . S
O75 C73 1.235 . S
C76 O82 1.287 . S
C76 O83 1.255 . S
O77 Fe66 1.976 . S
O77 C84 1.287 . S
O78 Fe67 1.996 . S
O78 C84 1.255 . S
O79 Fe69 1.976 . S
O79 C74 1.287 . S
O80 Fe66 1.996 . S
O80 C74 1.255 . S
C81 O85 1.295 . S
C81 O86 1.235 . S
O82 Fe67 1.976 . S
O82 C76 1.287 . S
O83 Fe69 1.996 . S
O83 C76 1.255 . S
C84 O77 1.287 . S
C84 O78 1.255 . S
O85 Fe67 2.002 . S
O85 C81 1.295 . S
O86 Fe69 1.997 . S
O86 C81 1.235 . S
C87 O70 1.295 . S
C87 O71 1.235 . S
Fe88 O90 1.918 . S
Fe88 O93 1.997 . S
Fe88 O94 2.002 . S
Fe88 O99 1.976 . S
Fe88 O102 1.996 . S
Fe89 O90 1.918 . S
Fe89 O97 1.997 . S
Fe89 O100 1.996 . S
Fe89 O104 1.976 . S
Fe89 O107 2.002 . S
O90 Fe88 1.918 . S
O90 Fe89 1.918 . S
O90 Fe91 1.918 . S
Fe91 O90 1.918 . S
Fe91 O92 2.002 . S
Fe91 O101 1.976 . S
Fe91 O105 1.996 . S
Fe91 O108 1.997 . S
O92 Fe91 2.002 . S
O92 C109 1.295 . S
O93 Fe88 1.997 . S
O93 C109 1.235 . S
O94 Fe88 2.002 . S
O94 C95 1.295 . S
C95 O94 1.295 . S
C95 O97 1.235 . S
C96 O101 1.287 . S
C96 O102 1.255 . S
O97 Fe89 1.997 . S
O97 C95 1.235 . S
C98 O104 1.287 . S
C98 O105 1.255 . S
O99 Fe88 1.976 . S
O99 C106 1.287 . S
O100 Fe89 1.996 . S
O100 C106 1.255 . S
O101 Fe91 1.976 . S
O101 C96 1.287 . S
O102 Fe88 1.996 . S
O102 C96 1.255 . S
C103 O107 1.295 . S
C103 O108 1.235 . S
O104 Fe89 1.976 . S
O104 C98 1.287 . S
O105 Fe91 1.996 . S
O105 C98 1.255 . S
C106 O99 1.287 . S
C106 O100 1.255 . S
O107 Fe89 2.002 . S
O107 C103 1.295 . S
O108 Fe91 1.997 . S
O108 C103 1.235 . S
C109 O92 1.295 . S
C109 O93 1.235 . S
Fe110 O112 1.918 . S
Fe110 O115 1.997 . S
Fe110 O116 2.002 . S
Fe110 O121 1.976 1_655 S
Fe110 O124 1.996 . S
Fe111 O112 1.918 . S
Fe111 O119 1.997 . S
Fe111 O122 1.996 . S
Fe111 O126 1.976 . S
Fe111 O129 2.002 . S
O112 Fe110 1.918 . S
O112 Fe111 1.918 . S
O112 Fe113 1.918 . S
Fe113 O112 1.918 . S
Fe113 O114 2.002 . S
Fe113 O123 1.976 . S
Fe113 O127 1.996 . S
Fe113 O130 1.997 . S
O114 Fe113 2.002 . S
O114 C131 1.295 . S
O115 Fe110 1.997 . S
O115 C131 1.235 . S
O116 Fe110 2.002 . S
O116 C117 1.295 . S
C117 O116 1.295 . S
C117 O119 1.235 . S
C118 O123 1.287 . S
C118 O124 1.255 . S
O119 Fe111 1.997 . S
O119 C117 1.235 . S
C120 O126 1.287 . S
C120 O127 1.255 . S
O121 Fe110 1.976 1_455 S
O121 C128 1.287 . S
O122 Fe111 1.996 . S
O122 C128 1.255 1_655 S
O123 Fe113 1.976 . S
O123 C118 1.287 . S
O124 Fe110 1.996 . S
O124 C118 1.255 . S
C125 O129 1.295 . S
C125 O130 1.235 . S
O126 Fe111 1.976 . S
O126 C120 1.287 . S
O127 Fe113 1.996 . S
O127 C120 1.255 . S
C128 O121 1.287 . S
C128 O122 1.255 1_455 S
O129 Fe111 2.002 . S
O129 C125 1.295 . S
O130 Fe113 1.997 . S
O130 C125 1.235 . S
C131 O114 1.295 . S
C131 O115 1.235 . S
Fe132 O134 1.918 . S
Fe132 O137 1.997 . S
Fe132 O138 2.002 . S
Fe132 O143 1.976 1_455 S
Fe132 O146 1.996 . S
Fe133 O134 1.918 . S
Fe133 O141 1.997 . S
Fe133 O144 1.996 . S
Fe133 O148 1.976 . S
Fe133 O151 2.002 . S
O134 Fe132 1.918 . S
O134 Fe133 1.918 . S
O134 Fe135 1.918 . S
Fe135 O134 1.918 . S
Fe135 O136 2.002 . S
Fe135 O145 1.976 . S
Fe135 O149 1.996 . S
Fe135 O152 1.997 . S
O136 Fe135 2.002 . S
O136 C153 1.295 . S
O137 Fe132 1.997 . S
O137 C153 1.235 . S
O138 Fe132 2.002 . S
O138 C139 1.295 . S
C139 O138 1.295 . S
C139 O141 1.235 . S
C140 O145 1.287 . S
C140 O146 1.255 . S
O141 Fe133 1.997 . S
O141 C139 1.235 . S
C142 O148 1.287 . S
C142 O149 1.255 . S
O143 Fe132 1.976 1_655 S
O143 C150 1.287 . S
O144 Fe133 1.996 . S
O144 C150 1.255 1_455 S
O145 Fe135 1.976 . S
O145 C140 1.287 . S
O146 Fe132 1.996 . S
O146 C140 1.255 . S
C147 O151 1.295 . S
C147 O152 1.235 . S
O148 Fe133 1.976 . S
O148 C142 1.287 . S
O149 Fe135 1.996 . S
O149 C142 1.255 . S
C150 O143 1.287 . S
C150 O144 1.255 1_655 S
O151 Fe133 2.002 . S
O151 C147 1.295 . S
O152 Fe135 1.997 . S
O152 C147 1.235 . S
C153 O136 1.295 . S
C153 O137 1.235 . S
Fe154 O156 1.918 . S
Fe154 O159 1.997 . S
Fe154 O160 2.002 . S
Fe154 O165 1.976 . S
Fe154 O168 1.996 . S
Fe155 O156 1.918 . S
Fe155 O163 1.997 . S
Fe155 O166 1.996 . S
Fe155 O170 1.976 . S
Fe155 O173 2.002 . S
O156 Fe154 1.918 . S
O156 Fe155 1.918 . S
O156 Fe157 1.918 . S
Fe157 O156 1.918 . S
Fe157 O158 2.002 . S
Fe157 O167 1.976 . S
Fe157 O171 1.996 . S
Fe157 O174 1.997 . S
O158 Fe157 2.002 . S
O158 C175 1.295 . S
O159 Fe154 1.997 . S
O159 C175 1.235 . S
O160 Fe154 2.002 . S
O160 C161 1.295 . S
C161 O160 1.295 . S
C161 O163 1.235 . S
C162 O167 1.287 . S
C162 O168 1.255 . S
O163 Fe155 1.997 . S
O163 C161 1.235 . S
C164 O170 1.287 . S
C164 O171 1.255 . S
O165 Fe154 1.976 . S
O165 C172 1.287 . S
O166 Fe155 1.996 . S
O166 C172 1.255 . S
O167 Fe157 1.976 . S
O167 C162 1.287 . S
O168 Fe154 1.996 . S
O168 C162 1.255 . S
C169 O173 1.295 . S
C169 O174 1.235 . S
O170 Fe155 1.976 . S
O170 C164 1.287 . S
O171 Fe157 1.996 . S
O171 C164 1.255 . S
C172 O165 1.287 . S
C172 O166 1.255 . S
O173 Fe155 2.002 . S
O173 C169 1.295 . S
O174 Fe157 1.997 . S
O174 C169 1.235 . S
C175 O158 1.295 . S
C175 O159 1.235 . S
C176 C177 1.387 . S
C176 H180 0.950 . S
C176 C185 1.390 . S
C177 C176 1.387 . S
C177 C179 1.387 . S
H178 C185 0.950 . S
C179 C177 1.387 . S
C179 C181 1.390 . S
C179 H183 0.950 . S
H180 C176 0.950 . S
C181 C179 1.390 . S
C181 C182 1.387 . S
C181 H184 0.950 . S
C182 C181 1.387 . S
C182 C185 1.387 . S
H183 C179 0.950 . S
H184 C181 0.950 . S
C185 C176 1.390 . S
C185 H178 0.950 . S
C185 C182 1.387 . S
C186 C187 1.387 . S
C186 H190 0.950 . S
C186 C195 1.390 . S
C187 C186 1.387 . S
C187 C189 1.387 . S
H188 C195 0.950 . S
C189 C187 1.387 . S
C189 C191 1.390 . S
C189 H193 0.950 . S
H190 C186 0.950 . S
C191 C189 1.390 . S
C191 C192 1.387 . S
C191 H194 0.950 . S
C192 C191 1.387 . S
C192 C195 1.387 . S
H193 C189 0.950 . S
H194 C191 0.950 . S
C195 C186 1.390 . S
C195 H188 0.950 . S
C195 C192 1.387 . S
C196 C197 1.387 . S
C196 H200 0.950 . S
C196 C205 1.390 . S
C197 C196 1.387 . S
C197 C199 1.387 . S
H198 C205 0.950 . S
C199 C197 1.387 . S
C199 C201 1.390 . S
C199 H203 0.950 . S
H200 C196 0.950 . S
C201 C199 1.390 . S
C201 C202 1.387 . S
C201 H204 0.950 . S
C202 C201 1.387 . S
C202 C205 1.387 . S
H203 C199 0.950 . S
H204 C201 0.950 . S
C205 C196 1.390 . S
C205 H198 0.950 . S
C205 C202 1.387 . S
C206 C207 1.387 . S
C206 H210 0.950 . S
C206 C215 1.390 . S
C207 C206 1.387 . S
C207 C209 1.387 . S
H208 C215 0.950 . S
C209 C207 1.387 . S
C209 C211 1.390 . S
C209 H213 0.950 . S
H210 C206 0.950 . S
C211 C209 1.390 . S
C211 C212 1.387 . S
C211 H214 0.950 1_545 S
C212 C211 1.387 . S
C212 C215 1.387 . S
H213 C209 0.950 . S
H214 C211 0.950 1_565 S
C215 C206 1.390 . S
C215 H208 0.950 . S
C215 C212 1.387 . S
C216 C217 1.387 . S
C216 H220 0.950 . S
C216 C225 1.390 . S
C217 C216 1.387 . S
C217 C219 1.387 . S
H218 C225 0.950 . S
C219 C217 1.387 . S
C219 C221 1.390 . S
C219 H223 0.950 . S
H220 C216 0.950 . S
C221 C219 1.390 . S
C221 C222 1.387 . S
C221 H224 0.950 . S
C222 C221 1.387 . S
C222 C225 1.387 . S
H223 C219 0.950 . S
H224 C221 0.950 . S
C225 C216 1.390 . S
C225 H218 0.950 . S
C225 C222 1.387 . S
C226 C227 1.387 . S
C226 H230 0.950 . S
C226 C235 1.390 . S
C227 C226 1.387 . S
C227 C229 1.387 . S
H228 C235 0.950 . S
C229 C227 1.387 . S
C229 C231 1.390 . S
C229 H233 0.950 . S
H230 C226 0.950 . S
C231 C229 1.390 . S
C231 C232 1.387 . S
C231 H234 0.950 . S
C232 C231 1.387 . S
C232 C235 1.387 . S
H233 C229 0.950 . S
H234 C231 0.950 . S
C235 C226 1.390 . S
C235 H228 0.950 . S
C235 C232 1.387 . S
C236 C237 1.387 . S
C236 H240 0.950 . S
C236 C245 1.390 . S
C237 C236 1.387 . S
C237 C239 1.387 . S
H238 C245 0.950 . S
C239 C237 1.387 . S
C239 C241 1.390 . S
C239 H243 0.950 . S
H240 C236 0.950 . S
C241 C239 1.390 . S
C241 C242 1.387 . S
C241 H244 0.950 . S
C242 C241 1.387 . S
C242 C245 1.387 . S
H243 C239 0.950 . S
H244 C241 0.950 . S
C245 C236 1.390 . S
C245 H238 0.950 . S
C245 C242 1.387 . S
C246 C247 1.387 . S
C246 H250 0.950 1_565 S
C246 C255 1.390 . S
C247 C246 1.387 . S
C247 C249 1.387 . S
H248 C255 0.950 . S
C249 C247 1.387 . S
C249 C251 1.390 . S
C249 H253 0.950 . S
H250 C246 0.950 1_545 S
C251 C249 1.390 . S
C251 C252 1.387 . S
C251 H254 0.950 . S
C252 C251 1.387 . S
C252 C255 1.387 . S
H253 C249 0.950 . S
H254 C251 0.950 . S
C255 C246 1.390 . S
C255 H248 0.950 . S
C255 C252 1.387 . S
C256 C257 1.387 . S
C256 H260 0.950 . S
C256 C265 1.390 . S
C257 C256 1.387 . S
C257 C259 1.387 . S
H258 C265 0.950 . S
C259 C257 1.387 . S
C259 C261 1.390 . S
C259 H263 0.950 . S
H260 C256 0.950 . S
C261 C259 1.390 . S
C261 C262 1.387 . S
C261 H264 0.950 . S
C262 C261 1.387 . S
C262 C265 1.387 . S
H263 C259 0.950 . S
H264 C261 0.950 . S
C265 C256 1.390 . S
C265 H258 0.950 . S
C265 C262 1.387 . S
C266 C267 1.387 . S
C266 H270 0.950 . S
C266 C275 1.390 1_665 S
C267 C266 1.387 . S
C267 C269 1.387 1_554 S
H268 C275 0.950 . S
C269 C267 1.387 1_556 S
C269 C271 1.390 1_665 S
C269 H273 0.950 . S
H270 C266 0.950 . S
C271 C269 1.390 1_445 S
C271 C272 1.387 . S
C271 H274 0.950 . S
C272 C271 1.387 . S
C272 C275 1.387 1_556 S
H273 C269 0.950 . S
H274 C271 0.950 . S
C275 C266 1.390 1_445 S
C275 H268 0.950 . S
C275 C272 1.387 1_554 S
C276 C277 1.387 . S
C276 H280 0.950 . S
C276 C285 1.390 1_645 S
C277 C276 1.387 . S
C277 C279 1.387 . S
H278 C285 0.950 . S
C279 C277 1.387 . S
C279 C281 1.390 1_645 S
C279 H283 0.950 . S
H280 C276 0.950 . S
C281 C279 1.390 1_465 S
C281 C282 1.387 . S
C281 H284 0.950 . S
C282 C281 1.387 . S
C282 C285 1.387 . S
H283 C279 0.950 . S
H284 C281 0.950 . S
C285 C276 1.390 1_465 S
C285 H278 0.950 . S
C285 C282 1.387 . S
C286 C287 1.387 . S
C286 H290 0.950 . S
C286 C295 1.390 . S
C287 C286 1.387 . S
C287 C289 1.387 1_556 S
H288 C295 0.950 . S
C289 C287 1.387 1_554 S
C289 C291 1.390 . S
C289 H293 0.950 . S
H290 C286 0.950 . S
C291 C289 1.390 . S
C291 C292 1.387 . S
C291 H294 0.950 . S
C292 C291 1.387 . S
C292 C295 1.387 1_554 S
H293 C289 0.950 . S
H294 C291 0.950 . S
C295 C286 1.390 . S
C295 H288 0.950 . S
C295 C292 1.387 1_556 S
C296 C297 1.387 . S
C296 H300 0.950 . S
C296 C305 1.390 . S
C297 C296 1.387 . S
C297 C299 1.387 . S
H298 C305 0.950 . S
C299 C297 1.387 . S
C299 C301 1.390 . S
C299 H303 0.950 . S
H300 C296 0.950 . S
C301 C299 1.390 . S
C301 C302 1.387 . S
C301 H304 0.950 . S
C302 C301 1.387 . S
C302 C305 1.387 . S
H303 C299 0.950 . S
H304 C301 0.950 . S
C305 C296 1.390 . S
C305 H298 0.950 . S
C305 C302 1.387 . S
C306 C307 1.387 . S
C306 H310 0.950 . S
C306 C315 1.390 1_455 S
C307 C306 1.387 . S
C307 C309 1.387 . S
H308 C315 0.950 . S
C309 C307 1.387 . S
C309 C311 1.390 1_455 S
C309 H313 0.950 . S
H310 C306 0.950 . S
C311 C309 1.390 1_655 S
C311 C312 1.387 . S
C311 H314 0.950 . S
C312 C311 1.387 . S
C312 C315 1.387 . S
H313 C309 0.950 . S
H314 C311 0.950 . S
C315 C306 1.390 1_655 S
C315 H308 0.950 . S
C315 C312 1.387 . S
C316 C317 1.387 . S
C316 H320 0.950 . S
C316 C325 1.390 . S
C317 C316 1.387 . S
C317 C319 1.387 . S
H318 C325 0.950 . S
C319 C317 1.387 . S
C319 C321 1.390 . S
C319 H323 0.950 . S
H320 C316 0.950 . S
C321 C319 1.390 . S
C321 C322 1.387 . S
C321 H324 0.950 . S
C322 C321 1.387 . S
C322 C325 1.387 . S
H323 C319 0.950 . S
H324 C321 0.950 . S
C325 C316 1.390 . S
C325 H318 0.950 . S
C325 C322 1.387 . S
C326 C327 1.387 . S
C326 H330 0.950 . S
C326 C335 1.390 1_655 S
C327 C326 1.387 . S
C327 C329 1.387 . S
H328 C335 0.950 . S
C329 C327 1.387 . S
C329 C331 1.390 1_655 S
C329 H333 0.950 . S
H330 C326 0.950 . S
C331 C329 1.390 1_455 S
C331 C332 1.387 . S
C331 H334 0.950 . S
C332 C331 1.387 . S
C332 C335 1.387 . S
H333 C329 0.950 . S
H334 C331 0.950 . S
C335 C326 1.390 1_455 S
C335 H328 0.950 . S
C335 C332 1.387 . S
C336 C337 1.387 . S
C336 H340 0.950 . S
C336 C345 1.390 . S
C337 C336 1.387 . S
C337 C339 1.387 . S
H338 C345 0.950 . S
C339 C337 1.387 . S
C339 C341 1.390 . S
C339 H343 0.950 . S
H340 C336 0.950 . S
C341 C339 1.390 . S
C341 C342 1.387 . S
C341 H344 0.950 . S
C342 C341 1.387 . S
C342 C345 1.387 . S
H343 C339 0.950 . S
H344 C341 0.950 . S
C345 C336 1.390 . S
C345 H338 0.950 . S
C345 C342 1.387 . S
C346 C347 1.387 . S
C346 H350 0.950 . S
C346 C355 1.390 . S
C347 C346 1.387 . S
C347 C349 1.387 . S
H348 C355 0.946 1_554 S
C349 C347 1.387 . S
C349 C351 1.390 1_556 S
C349 H353 0.950 . S
H350 C346 0.950 . S
C351 C349 1.390 1_554 S
C351 C352 1.387 . S
C351 H354 0.950 . S
C352 C351 1.387 . S
C352 C355 1.387 1_554 S
H353 C349 0.950 . S
H354 C351 0.950 . S
C355 C346 1.390 . S
C355 H348 0.946 1_556 S
C355 C352 1.387 1_556 S
C356 C357 1.387 . S
C356 H360 0.950 . S
C356 C365 1.390 . S
C357 C356 1.387 . S
C357 C359 1.387 . S
H358 C365 0.950 . S
C359 C357 1.387 . S
C359 C361 1.390 . S
C359 H363 0.950 . S
H360 C356 0.950 . S
C361 C359 1.390 . S
C361 C362 1.387 . S
C361 H364 0.950 . S
C362 C361 1.387 . S
C362 C365 1.387 . S
H363 C359 0.950 . S
H364 C361 0.950 . S
C365 C356 1.390 . S
C365 H358 0.950 . S
C365 C362 1.387 . S
C366 C367 1.387 . S
C366 H370 0.950 . S
C366 C375 1.390 . S
C367 C366 1.387 . S
C367 C369 1.387 . S
H368 C375 0.950 . S
C369 C367 1.387 . S
C369 C371 1.390 1_554 S
C369 H373 0.950 . S
H370 C366 0.950 . S
C371 C369 1.390 1_556 S
C371 C372 1.387 . S
C371 H374 0.950 . S
C372 C371 1.387 . S
C372 C375 1.387 1_556 S
H373 C369 0.950 . S
H374 C371 0.950 . S
C375 C366 1.390 . S
C375 H368 0.950 . S
C375 C372 1.387 1_554 S
C376 C377 1.387 . S
C376 H380 0.950 . S
C376 C385 1.390 . S
C377 C376 1.387 . S
C377 C379 1.387 . S
H378 C385 0.950 . S
C379 C377 1.387 . S
C379 C381 1.390 . S
C379 H383 0.950 . S
H380 C376 0.950 . S
C381 C379 1.390 . S
C381 C382 1.387 . S
C381 H384 0.950 . S
C382 C381 1.387 . S
C382 C385 1.387 . S
H383 C379 0.950 . S
H384 C381 0.950 . S
C385 C376 1.390 . S
C385 H378 0.950 . S
C385 C382 1.387 . S
C386 C387 1.387 . S
C386 H390 0.950 . S
C386 C395 1.390 1_554 S
C387 C386 1.387 . S
C387 C389 1.387 . S
H388 C395 0.950 . S
C389 C387 1.387 . S
C389 C391 1.390 . S
C389 H393 0.950 . S
H390 C386 0.950 . S
C391 C389 1.390 . S
C391 C392 1.387 1_554 S
C391 H394 0.950 . S
C392 C391 1.387 1_556 S
C392 C395 1.387 . S
H393 C389 0.950 . S
H394 C391 0.950 . S
C395 C386 1.390 1_556 S
C395 H388 0.950 . S
C395 C392 1.387 . S
C396 C397 1.387 . S
C396 H400 0.950 . S
C396 C405 1.390 . S
C397 C396 1.387 . S
C397 C399 1.387 . S
H398 C405 0.950 . S
C399 C397 1.387 . S
C399 C401 1.390 . S
C399 H403 0.950 . S
H400 C396 0.950 . S
C401 C399 1.390 . S
C401 C402 1.387 . S
C401 H404 0.950 . S
C402 C401 1.387 . S
C402 C405 1.387 . S
H403 C399 0.950 . S
H404 C401 0.950 . S
C405 C396 1.390 . S
C405 H398 0.950 . S
C405 C402 1.387 . S
C406 C407 1.387 . S
C406 H410 0.950 . S
C406 C415 1.390 1_554 S
C407 C406 1.387 . S
C407 C409 1.387 1_554 S
H408 C415 0.950 . S
C409 C407 1.387 1_556 S
C409 C411 1.390 . S
C409 H413 0.950 . S
H410 C406 0.950 . S
C411 C409 1.390 . S
C411 C412 1.387 . S
C411 H414 0.950 . S
C412 C411 1.387 . S
C412 C415 1.387 . S
H413 C409 0.950 . S
H414 C411 0.950 . S
C415 C406 1.390 1_556 S
C415 H408 0.950 . S
C415 C412 1.387 . S
C177 C153 1.635 1_545 S
C182 C10 1.619 . S
C187 C30 1.619 . S
C192 C169 1.635 . S
C197 C109 1.634 . S
C202 C54 1.617 . S
C207 C76 1.617 . S
C212 C131 1.634 1_545 S
C217 C65 1.635 1_565 S
C222 C98 1.619 . S
C227 C120 1.619 . S
C232 C87 1.635 . S
C237 C21 1.634 . S
C242 C142 1.617 . S
C247 C29 1.634 1_565 S
C252 C172 1.617 . S
C257 C7 1.239 . S
C262 C95 1.239 . S
C267 C117 1.241 . S
C272 C37 1.241 . S
C277 C51 1.238 . S
C282 C139 1.238 . S
C287 C175 1.242 . S
C292 C73 1.242 . S
C297 C74 1.562 . S
C302 C8 1.562 . S
C307 C40 1.561 . S
C312 C52 1.561 . S
C317 C164 1.562 . S
C322 C96 1.562 . S
C327 C118 1.563 . S
C332 C140 1.563 . S
C337 C18 1.535 . S
C342 C59 1.587 . S
C347 C32 1.535 . S
C352 C81 1.587 . S
C357 C62 1.539 . S
C362 C15 1.589 . S
C367 C84 1.539 . S
C372 C43 1.588 . S
C377 C106 1.539 . S
C382 C147 1.590 . S
C387 C128 1.536 . S
C392 C161 1.587 . S
C397 C150 1.535 . S
C402 C103 1.588 . S
C407 C125 1.587 . S
C412 C162 1.535 . S
