# Generated by pormake.
# Topology uma, (4)-cn, num edge types: 1
# Building blocks:
#     Node 0, Type 0, BuildingBlock: ESEHIV_clean_sbu_0, # of connection points: 4
#     Node 1, Type 0, BuildingBlock: ESEHIV_clean_sbu_0, # of connection points: 4
#     Node 2, Type 0, BuildingBlock: ESEHIV_clean_sbu_0, # of connection points: 4
#     Node 3, Type 0, BuildingBlock: ESEHIV_clean_sbu_0, # of connection points: 4
#     Node 4, Type 0, BuildingBlock: ESEHIV_clean_sbu_0, # of connection points: 4
#     Node 5, Type 0, BuildingBlock: ESEHIV_clean_sbu_0, # of connection points: 4
#     Node 6, Type 0, BuildingBlock: ESEHIV_clean_sbu_0, # of connection points: 4
#     Node 7, Type 0, BuildingBlock: ESEHIV_clean_sbu_0, # of connection points: 4
#     Node 8, Type 0, BuildingBlock: ESEHIV_clean_sbu_0, # of connection points: 4
#     Node 9, Type 0, BuildingBlock: ESEHIV_clean_sbu_0, # of connection points: 4
#     Node 10, Type 0, BuildingBlock: ESEHIV_clean_sbu_0, # of connection points: 4
#     Node 11, Type 0, BuildingBlock: ESEHIV_clean_sbu_0, # of connection points: 4
#     Node 12, Type 0, BuildingBlock: ESEHIV_clean_sbu_0, # of connection points: 4
#     Node 13, Type 0, BuildingBlock: ESEHIV_clean_sbu_0, # of connection points: 4
#     Node 14, Type 0, BuildingBlock: ESEHIV_clean_sbu_0, # of connection points: 4
#     Node 15, Type 0, BuildingBlock: ESEHIV_clean_sbu_0, # of connection points: 4
#     Node 16, Type 0, BuildingBlock: ESEHIV_clean_sbu_0, # of connection points: 4
#     Node 17, Type 0, BuildingBlock: ESEHIV_clean_sbu_0, # of connection points: 4
#     Node 18, Type 0, BuildingBlock: ESEHIV_clean_sbu_0, # of connection points: 4
#     Node 19, Type 0, BuildingBlock: ESEHIV_clean_sbu_0, # of connection points: 4
#     Node 20, Type 0, BuildingBlock: ESEHIV_clean_sbu_0, # of connection points: 4
#     Node 21, Type 0, BuildingBlock: ESEHIV_clean_sbu_0, # of connection points: 4
#     Node 22, Type 0, BuildingBlock: ESEHIV_clean_sbu_0, # of connection points: 4
#     Node 23, Type 0, BuildingBlock: ESEHIV_clean_sbu_0, # of connection points: 4
#     Node 24, Type 0, BuildingBlock: ESEHIV_clean_sbu_0, # of connection points: 4
#     Node 25, Type 0, BuildingBlock: ESEHIV_clean_sbu_0, # of connection points: 4
#     Node 26, Type 0, BuildingBlock: ESEHIV_clean_sbu_0, # of connection points: 4
#     Node 27, Type 0, BuildingBlock: ESEHIV_clean_sbu_0, # of connection points: 4
#     Node 28, Type 0, BuildingBlock: ESEHIV_clean_sbu_0, # of connection points: 4
#     Node 29, Type 0, BuildingBlock: ESEHIV_clean_sbu_0, # of connection points: 4
#     Node 30, Type 0, BuildingBlock: ESEHIV_clean_sbu_0, # of connection points: 4
#     Node 31, Type 0, BuildingBlock: ESEHIV_clean_sbu_0, # of connection points: 4
#     Node 32, Type 0, BuildingBlock: ESEHIV_clean_sbu_0, # of connection points: 4
#     Node 33, Type 0, BuildingBlock: ESEHIV_clean_sbu_0, # of connection points: 4
#     Node 34, Type 0, BuildingBlock: ESEHIV_clean_sbu_0, # of connection points: 4
#     Node 35, Type 0, BuildingBlock: ESEHIV_clean_sbu_0, # of connection points: 4
#     Edge 36, Type (0, 0), BuildingBlock: XIVTED_clean_linker_0, # of connection points: 2
#     Edge 37, Type (0, 0), BuildingBlock: XIVTED_clean_linker_0, # of connection points: 2
#     Edge 38, Type (0, 0), BuildingBlock: XIVTED_clean_linker_0, # of connection points: 2
#     Edge 39, Type (0, 0), BuildingBlock: XIVTED_clean_linker_0, # of connection points: 2
#     Edge 40, Type (0, 0), BuildingBlock: XIVTED_clean_linker_0, # of connection points: 2
#     Edge 41, Type (0, 0), BuildingBlock: XIVTED_clean_linker_0, # of connection points: 2
#     Edge 42, Type (0, 0), BuildingBlock: XIVTED_clean_linker_0, # of connection points: 2
#     Edge 43, Type (0, 0), BuildingBlock: XIVTED_clean_linker_0, # of connection points: 2
#     Edge 44, Type (0, 0), BuildingBlock: XIVTED_clean_linker_0, # of connection points: 2
#     Edge 45, Type (0, 0), BuildingBlock: XIVTED_clean_linker_0, # of connection points: 2
#     Edge 46, Type (0, 0), BuildingBlock: XIVTED_clean_linker_0, # of connection points: 2
#     Edge 47, Type (0, 0), BuildingBlock: XIVTED_clean_linker_0, # of connection points: 2
#     Edge 48, Type (0, 0), BuildingBlock: XIVTED_clean_linker_0, # of connection points: 2
#     Edge 49, Type (0, 0), BuildingBlock: XIVTED_clean_linker_0, # of connection points: 2
#     Edge 50, Type (0, 0), BuildingBlock: XIVTED_clean_linker_0, # of connection points: 2
#     Edge 51, Type (0, 0), BuildingBlock: XIVTED_clean_linker_0, # of connection points: 2
#     Edge 52, Type (0, 0), BuildingBlock: XIVTED_clean_linker_0, # of connection points: 2
#     Edge 53, Type (0, 0), BuildingBlock: XIVTED_clean_linker_0, # of connection points: 2
#     Edge 54, Type (0, 0), BuildingBlock: XIVTED_clean_linker_0, # of connection points: 2
#     Edge 55, Type (0, 0), BuildingBlock: XIVTED_clean_linker_0, # of connection points: 2
#     Edge 56, Type (0, 0), BuildingBlock: XIVTED_clean_linker_0, # of connection points: 2
#     Edge 57, Type (0, 0), BuildingBlock: XIVTED_clean_linker_0, # of connection points: 2
#     Edge 58, Type (0, 0), BuildingBlock: XIVTED_clean_linker_0, # of connection points: 2
#     Edge 59, Type (0, 0), BuildingBlock: XIVTED_clean_linker_0, # of connection points: 2
#     Edge 60, Type (0, 0), BuildingBlock: XIVTED_clean_linker_0, # of connection points: 2
#     Edge 61, Type (0, 0), BuildingBlock: XIVTED_clean_linker_0, # of connection points: 2
#     Edge 62, Type (0, 0), BuildingBlock: XIVTED_clean_linker_0, # of connection points: 2
#     Edge 63, Type (0, 0), BuildingBlock: XIVTED_clean_linker_0, # of connection points: 2
#     Edge 64, Type (0, 0), BuildingBlock: XIVTED_clean_linker_0, # of connection points: 2
#     Edge 65, Type (0, 0), BuildingBlock: XIVTED_clean_linker_0, # of connection points: 2
#     Edge 66, Type (0, 0), BuildingBlock: XIVTED_clean_linker_0, # of connection points: 2
#     Edge 67, Type (0, 0), BuildingBlock: XIVTED_clean_linker_0, # of connection points: 2
#     Edge 68, Type (0, 0), BuildingBlock: XIVTED_clean_linker_0, # of connection points: 2
#     Edge 69, Type (0, 0), BuildingBlock: XIVTED_clean_linker_0, # of connection points: 2
#     Edge 70, Type (0, 0), BuildingBlock: XIVTED_clean_linker_0, # of connection points: 2
#     Edge 71, Type (0, 0), BuildingBlock: XIVTED_clean_linker_0, # of connection points: 2
#     Edge 72, Type (0, 0), BuildingBlock: XIVTED_clean_linker_0, # of connection points: 2
#     Edge 73, Type (0, 0), BuildingBlock: XIVTED_clean_linker_0, # of connection points: 2
#     Edge 74, Type (0, 0), BuildingBlock: XIVTED_clean_linker_0, # of connection points: 2
#     Edge 75, Type (0, 0), BuildingBlock: XIVTED_clean_linker_0, # of connection points: 2
#     Edge 76, Type (0, 0), BuildingBlock: XIVTED_clean_linker_0, # of connection points: 2
#     Edge 77, Type (0, 0), BuildingBlock: XIVTED_clean_linker_0, # of connection points: 2
#     Edge 78, Type (0, 0), BuildingBlock: XIVTED_clean_linker_0, # of connection points: 2
#     Edge 79, Type (0, 0), BuildingBlock: XIVTED_clean_linker_0, # of connection points: 2
#     Edge 80, Type (0, 0), BuildingBlock: XIVTED_clean_linker_0, # of connection points: 2
#     Edge 81, Type (0, 0), BuildingBlock: XIVTED_clean_linker_0, # of connection points: 2
#     Edge 82, Type (0, 0), BuildingBlock: XIVTED_clean_linker_0, # of connection points: 2
#     Edge 83, Type (0, 0), BuildingBlock: XIVTED_clean_linker_0, # of connection points: 2
#     Edge 84, Type (0, 0), BuildingBlock: XIVTED_clean_linker_0, # of connection points: 2
#     Edge 85, Type (0, 0), BuildingBlock: XIVTED_clean_linker_0, # of connection points: 2
#     Edge 86, Type (0, 0), BuildingBlock: XIVTED_clean_linker_0, # of connection points: 2
#     Edge 87, Type (0, 0), BuildingBlock: XIVTED_clean_linker_0, # of connection points: 2
#     Edge 88, Type (0, 0), BuildingBlock: XIVTED_clean_linker_0, # of connection points: 2
#     Edge 89, Type (0, 0), BuildingBlock: XIVTED_clean_linker_0, # of connection points: 2
#     Edge 90, Type (0, 0), BuildingBlock: XIVTED_clean_linker_0, # of connection points: 2
#     Edge 91, Type (0, 0), BuildingBlock: XIVTED_clean_linker_0, # of connection points: 2
#     Edge 92, Type (0, 0), BuildingBlock: XIVTED_clean_linker_0, # of connection points: 2
#     Edge 93, Type (0, 0), BuildingBlock: XIVTED_clean_linker_0, # of connection points: 2
#     Edge 94, Type (0, 0), BuildingBlock: XIVTED_clean_linker_0, # of connection points: 2
#     Edge 95, Type (0, 0), BuildingBlock: XIVTED_clean_linker_0, # of connection points: 2
#     Edge 96, Type (0, 0), BuildingBlock: XIVTED_clean_linker_0, # of connection points: 2
#     Edge 97, Type (0, 0), BuildingBlock: XIVTED_clean_linker_0, # of connection points: 2
#     Edge 98, Type (0, 0), BuildingBlock: XIVTED_clean_linker_0, # of connection points: 2
#     Edge 99, Type (0, 0), BuildingBlock: XIVTED_clean_linker_0, # of connection points: 2
#     Edge 100, Type (0, 0), BuildingBlock: XIVTED_clean_linker_0, # of connection points: 2
#     Edge 101, Type (0, 0), BuildingBlock: XIVTED_clean_linker_0, # of connection points: 2
#     Edge 102, Type (0, 0), BuildingBlock: XIVTED_clean_linker_0, # of connection points: 2
#     Edge 103, Type (0, 0), BuildingBlock: XIVTED_clean_linker_0, # of connection points: 2
#     Edge 104, Type (0, 0), BuildingBlock: XIVTED_clean_linker_0, # of connection points: 2
#     Edge 105, Type (0, 0), BuildingBlock: XIVTED_clean_linker_0, # of connection points: 2
#     Edge 106, Type (0, 0), BuildingBlock: XIVTED_clean_linker_0, # of connection points: 2
#     Edge 107, Type (0, 0), BuildingBlock: XIVTED_clean_linker_0, # of connection points: 2
# Relax obj value: 0.123
# Max RMSD: 0.141
# Mean RMSD: 0.126
data_MOF--net-uma--node1-ESEHIV_clean_sbu_0--edge1-XIVTED_clean_linker_0
_symmetry_space_group_name_H-M    P1
_symmetry_Int_Tables_number       1
_symmetry_cell_setting            triclinic
loop_
_symmetry_equiv_pos_as_xyz
'x, y, z'
_cell_length_a     96.68498
_cell_length_b     96.751432
_cell_length_c     37.208828
_cell_angle_alpha  90.082911
_cell_angle_beta   89.803872
_cell_angle_gamma 120.05922
loop_
_atom_site_label
_atom_site_type_symbol
_atom_site_fract_x
_atom_site_fract_y
_atom_site_fract_z
_atom_type_partial_charge
Cu0 Cu 0.09885 0.35425 0.05894 0.0
N1 N 0.08384 0.33328 0.0705 0.0
N2 N 0.06022 0.31077 0.06996 0.0
C3 C 0.06997 0.32462 0.05298 0.0
C4 C 0.06829 0.31071 0.09945 0.0
C5 C 0.08294 0.32465 0.09964 0.0
O6 O 0.09172 0.36721 0.08511 0.0
C7 C 0.09988 0.34524 0.9879 0.0
O8 O 0.10316 0.33533 1.00487 0.0
H9 H 0.06668 0.32893 0.02953 0.0
H10 H 0.09192 0.32857 0.12041 0.0
N11 N 0.11886 0.35914 0.07714 0.0
N12 N 0.14394 0.36426 0.08477 0.0
C13 C 0.13163 0.3594 0.06147 0.0
C14 C 0.12325 0.3638 0.1113 0.0
C15 C 0.13867 0.36704 0.11604 0.0
C16 C 0.10038 0.38201 0.09252 0.0
O17 O 0.11474 0.39013 0.07837 0.0
H18 H 0.13207 0.35649 0.03356 0.0
H19 H 0.11572 0.36488 0.13135 0.0
O20 O 0.0984 0.35559 1.0063 0.0
H21 H 0.06371 0.30156 0.12 0.0
H22 H 0.14548 0.37104 0.14069 0.0
Cu23 Cu 0.62957 0.73478 0.03245 0.0
N24 N 0.62155 0.71539 1.00872 0.0
N25 N 0.62458 0.69491 0.99168 0.0
C26 C 0.62611 0.70494 1.01853 0.0
C27 C 0.61846 0.69906 0.96386 0.0
C28 C 0.61665 0.71177 0.97445 0.0
O29 O 0.63019 0.72969 0.08334 0.0
C30 C 0.65113 0.7555 0.98006 0.0
O31 O 0.63872 0.75668 0.9705 0.0
H32 H 0.63266 0.7063 0.04306 0.0
H33 H 0.61383 0.719 0.95718 0.0
N34 N 0.61624 0.7435 0.02649 0.0
N35 N 0.60761 0.76107 0.02371 0.0
C36 C 0.61979 0.75866 0.0328 0.0
C37 C 0.60128 0.73601 1.01341 0.0
C38 C 0.59593 0.74678 1.01166 0.0
C39 C 0.61658 0.72028 0.09742 0.0
O40 O 0.60375 0.71601 0.07796 0.0
H41 H 0.6313 0.76785 0.04253 0.0
H42 H 0.59478 0.72361 1.00534 0.0
O43 O 0.6503 0.74775 1.00852 0.0
H44 H 0.61687 0.69433 0.93687 0.0
H45 H 0.58433 0.74423 1.00215 0.0
Cu46 Cu 0.28296 0.90567 0.03637 0.0
N47 N 0.30152 0.91609 1.00919 0.0
N48 N 0.31773 0.9403 0.98613 0.0
C49 C 0.31111 0.93167 1.01615 0.0
C50 C 0.31285 0.92952 0.95924 0.0
C51 C 0.30274 0.91457 0.97352 0.0
O52 O 0.28998 0.91073 0.08684 0.0
C53 C 0.26337 0.90938 0.9864 0.0
O54 O 0.26152 0.89572 0.97492 0.0
H55 H 0.31071 0.93693 0.04158 0.0
H56 H 0.29477 0.90404 0.95822 0.0
N57 N 0.27202 0.8835 0.02929 0.0
N58 N 0.25226 0.85803 0.02774 0.0
C59 C 0.25651 0.87319 0.03666 0.0
C60 C 0.27779 0.87456 1.01526 0.0
C61 C 0.26566 0.85885 1.01441 0.0
C62 C 0.29822 0.90469 0.09854 0.0
O63 O 0.30043 0.89516 0.07714 0.0
H64 H 0.24852 0.87678 0.04832 0.0
H65 H 0.28995 0.87919 1.00609 0.0
O66 O 0.27085 0.91516 1.01588 0.0
H67 H 0.31435 0.93248 0.93092 0.0
H68 H 0.26656 0.84886 1.00411 0.0
Cu69 Cu 0.38544 0.09844 1.0131 0.0
N70 N 0.36681 0.08038 0.99857 0.0
N71 N 0.35073 0.05508 0.98213 0.0
C72 C 0.36575 0.06632 0.99079 0.0
C73 C 0.34197 0.06239 0.9846 0.0
C74 C 0.35198 0.07808 0.99461 0.0
O75 O 0.40192 0.0952 0.98996 0.0
C76 C 0.3929 0.10903 0.08788 0.0
O77 O 0.40417 0.12285 0.07548 0.0
H78 H 0.37573 0.06425 0.99282 0.0
H79 H 0.34866 0.08708 0.99925 0.0
N80 N 0.38496 0.11625 0.99435 0.0
N81 N 0.38394 0.13877 0.98773 0.0
C82 C 0.38538 0.12885 1.01115 0.0
C83 C 0.38301 0.11821 0.95932 0.0
C84 C 0.38244 0.13204 0.95512 0.0
C85 C 0.41253 0.1049 0.96815 0.0
O86 O 0.41512 0.11955 0.96573 0.0
H87 H 0.38626 0.13052 0.03995 0.0
H88 H 0.382 0.11004 0.93826 0.0
O89 O 0.38479 0.09769 0.06595 0.0
H90 H 0.32924 0.05677 0.97992 0.0
H91 H 0.38119 0.13685 0.92987 0.0
Cu92 Cu 0.91389 0.27861 1.01576 0.0
N93 N 0.92709 0.27039 1.00362 0.0
N94 N 0.94784 0.26626 1.00414 0.0
C95 C 0.93993 0.27237 0.02194 0.0
C96 C 0.93953 0.26004 0.97355 0.0
C97 C 0.92669 0.26256 0.97339 0.0
O98 O 0.92205 0.29971 0.99283 0.0
C99 C 0.92238 0.28614 0.09082 0.0
O100 O 0.93589 0.29822 0.07925 0.0
H101 H 0.94395 0.27902 0.04676 0.0
H102 H 0.918 0.25942 0.95217 0.0
N103 N 0.89379 0.26521 0.99585 0.0
N104 N 0.86867 0.24551 0.98675 0.0
C105 C 0.88137 0.25169 1.00922 0.0
C106 C 0.88885 0.26757 0.96393 0.0
C107 C 0.87342 0.2555 0.95824 0.0
C108 C 0.93614 0.30796 0.97977 0.0
O109 O 0.9467 0.30354 0.98625 0.0
H110 H 0.88157 0.24666 0.03505 0.0
H111 H 0.89603 0.27742 0.94603 0.0
O112 O 0.91157 0.27758 0.06817 0.0
H113 H 0.94273 0.25447 0.95237 0.0
H114 H 0.86631 0.2541 0.93465 0.0
Cu115 Cu 0.72957 0.64122 1.00905 0.0
N116 N 0.72543 0.658 1.0078 0.0
N117 N 0.71102 0.67008 1.00371 0.0
C118 C 0.71185 0.65694 0.99562 0.0
C119 C 0.72462 0.67983 0.02151 0.0
C120 C 0.73356 0.67237 0.02381 0.0
O121 O 0.71242 0.62457 0.97953 0.0
C122 C 0.74215 0.64545 0.07872 0.0
O123 O 0.75458 0.65697 0.06215 0.0
H124 H 0.70224 0.6463 0.98342 0.0
H125 H 0.74477 0.67674 0.03781 0.0
N126 N 0.74958 0.64802 0.98778 0.0
N127 N 0.77357 0.65118 0.97458 0.0
C128 C 0.76056 0.64384 0.99609 0.0
C129 C 0.75584 0.65828 0.96009 0.0
C130 C 0.7706 0.6602 0.95177 0.0
C131 C 0.71499 0.6194 0.95011 0.0
O132 O 0.72962 0.62283 0.9422 0.0
H133 H 0.75901 0.63552 1.01729 0.0
H134 H 0.75002 0.66394 0.94685 0.0
O135 O 0.72967 0.63631 0.06046 0.0
H136 H 0.72757 0.69123 0.0332 0.0
H137 H 0.77864 0.66782 0.93094 0.0
Cu138 Cu 0.91375 0.64611 1.0036 0.0
N139 N 0.92815 0.66728 0.99207 0.0
N140 N 0.95148 0.69009 0.99479 0.0
C141 C 0.94252 0.67518 1.00782 0.0
C142 C 0.94237 0.69163 0.96945 0.0
C143 C 0.92785 0.67749 0.96799 0.0
O144 O 0.9204 0.63306 0.97611 0.0
C145 C 0.91313 0.6551 0.07405 0.0
O146 O 0.90817 0.66364 0.05683 0.0
H147 H 0.9465 0.66978 0.02767 0.0
H148 H 0.91796 0.67475 0.95023 0.0
N149 N 0.89271 0.63972 0.98993 0.0
N150 N 0.86933 0.63824 0.97843 0.0
C151 C 0.88405 0.64712 0.99282 0.0
C152 C 0.88305 0.62574 0.97346 0.0
C153 C 0.86871 0.62484 0.96615 0.0
C154 C 0.9202 0.63415 0.9419 0.0
O155 O 0.91576 0.6438 0.92805 0.0
H156 H 0.88847 0.65883 1.00449 0.0
H157 H 0.88628 0.61681 0.9671 0.0
O158 O 0.91559 0.64528 0.05603 0.0
H159 H 0.94596 0.70211 0.95301 0.0
H160 H 0.85849 0.61498 0.9533 0.0
Cu161 Cu 0.37469 0.27586 0.0265 0.0
N162 N 0.38092 0.29057 0.06368 0.0
N163 N 0.37255 0.30386 0.09833 0.0
C164 C 0.3747 0.30023 0.06454 0.0
C165 C 0.37822 0.29658 0.11976 0.0
C166 C 0.38335 0.28834 0.09827 0.0
O167 O 0.37898 0.28812 0.98155 0.0
C168 C 0.34891 0.25299 0.06611 0.0
O169 O 0.35985 0.24977 0.07728 0.0
H170 H 0.36913 0.30201 0.04116 0.0
H171 H 0.38625 0.27949 0.10742 0.0
N172 N 0.38576 0.26452 0.02788 0.0
N173 N 0.3912 0.24455 0.02568 0.0
C174 C 0.38054 0.24928 1.01772 0.0
C175 C 0.40028 0.26965 0.04225 0.0
C176 C 0.40366 0.25741 0.04096 0.0
C177 C 0.39319 0.29984 0.97786 0.0
O178 O 0.40367 0.30208 1.00289 0.0
H179 H 0.36885 0.24163 1.00623 0.0
H180 H 0.40773 0.28139 0.05367 0.0
O181 O 0.35214 0.2624 0.03937 0.0
H182 H 0.37706 0.29573 0.14872 0.0
H183 H 0.41444 0.25796 0.05076 0.0
Cu184 Cu 0.72602 0.10183 1.0169 0.0
N185 N 0.73041 0.08626 1.00005 0.0
N186 N 0.72624 0.06303 0.97751 0.0
C187 C 0.72058 0.0732 0.98083 0.0
C188 C 0.74047 0.07026 0.9946 0.0
C189 C 0.74302 0.08459 1.00839 0.0
O190 O 0.70549 0.09742 0.99661 0.0
C191 C 0.72109 0.08961 0.08813 0.0
O192 O 0.71288 0.07581 0.07175 0.0
H193 H 0.70903 0.07071 0.97135 0.0
H194 H 0.75294 0.09282 0.02491 0.0
N195 N 0.74134 0.12146 0.99764 0.0
N196 N 0.76258 0.14568 0.98815 0.0
C197 C 0.75532 0.13315 1.01108 0.0
C198 C 0.73986 0.1267 0.96525 0.0
C199 C 0.75286 0.14157 0.95933 0.0
C200 C 0.69228 0.08425 0.99767 0.0
O201 O 0.69088 0.07268 1.01853 0.0
H202 H 0.75989 0.13261 0.03724 0.0
H203 H 0.72992 0.12011 0.9472 0.0
O204 O 0.72719 0.1024 0.06951 0.0
H205 H 0.74819 0.06527 0.99837 0.0
H206 H 0.75507 0.14874 0.93541 0.0
Cu207 Cu 0.63483 0.91386 0.02655 0.0
N208 N 0.63257 0.92612 0.99125 0.0
N209 N 0.64484 0.94967 0.96304 0.0
C210 C 0.64091 0.94205 0.99491 0.0
C211 C 0.63818 0.93804 0.93805 0.0
C212 C 0.63069 0.92345 0.95559 0.0
O213 O 0.63157 0.92192 0.07244 0.0
C214 C 0.65824 0.91093 0.98921 0.0
O215 O 0.64559 0.89822 0.97665 0.0
H216 H 0.64608 0.9478 1.02027 0.0
H217 H 0.62635 0.9119 0.94315 0.0
N218 N 0.62004 0.89201 0.02186 0.0
N219 N 0.60994 0.86551 0.02157 0.0
C220 C 0.62217 0.87983 0.03203 0.0
C221 C 0.60587 0.88521 1.005 0.0
C222 C 0.5996 0.86889 1.0048 0.0
C223 C 0.61832 0.92178 0.07453 0.0
O224 O 0.60828 0.91562 0.04759 0.0
H225 H 0.63294 0.8816 0.04493 0.0
H226 H 0.60069 0.89169 0.99274 0.0
O227 O 0.65652 0.9184 1.01561 0.0
H228 H 0.64038 0.93984 0.90942 0.0
H229 H 0.58843 0.86026 0.99257 0.0
Cu230 Cu 0.09981 0.72674 0.03444 0.0
N231 N 0.08787 0.73691 0.04062 0.0
N232 N 0.06667 0.74033 0.04119 0.0
C233 C 0.07207 0.73007 0.0469 0.0
C234 C 0.07959 0.75422 0.03132 0.0
C235 C 0.09266 0.75208 0.03112 0.0
O236 O 0.09116 0.70712 0.06367 0.0
C237 C 0.08954 0.71984 0.96157 0.0
O238 O 0.07515 0.71352 0.97558 0.0
H239 H 0.06442 0.71752 0.0525 0.0
H240 H 0.1046 0.76064 0.02216 0.0
N241 N 0.12042 0.74016 0.05203 0.0
N242 N 0.14588 0.75956 0.05813 0.0
C243 C 0.13243 0.75385 0.03819 0.0
C244 C 0.12646 0.73723 0.08167 0.0
C245 C 0.14212 0.74912 0.08547 0.0
C246 C 0.07735 0.69462 0.06459 0.0
O247 O 0.06649 0.69284 0.04105 0.0
H248 H 0.13145 0.75926 1.01359 0.0
H249 H 0.11994 0.72702 0.09911 0.0
O250 O 0.10151 0.72467 0.98249 0.0
H251 H 0.07945 0.76487 0.0231 0.0
H252 H 0.15011 0.75004 0.10682 0.0
Cu253 Cu 0.28548 0.36181 0.05588 0.0
N254 N 0.27845 0.34215 0.07783 0.0
N255 N 0.28291 0.32348 0.10114 0.0
C256 C 0.28791 0.33919 0.099 0.0
C257 C 0.26953 0.31621 0.081 0.0
C258 C 0.26675 0.32778 0.06677 0.0
O259 O 0.30694 0.37506 0.07593 0.0
C260 C 0.27819 0.36127 0.97994 0.0
O261 O 0.27165 0.36988 0.98862 0.0
H262 H 0.29951 0.34843 0.10818 0.0
H263 H 0.25805 0.32598 0.04639 0.0
N264 N 0.27219 0.3699 0.06951 0.0
N265 N 0.25139 0.37393 0.07623 0.0
C266 C 0.25685 0.3649 0.06058 0.0
C267 C 0.27641 0.38221 0.09214 0.0
C268 C 0.26372 0.38474 0.09627 0.0
C269 C 0.31629 0.39009 0.07415 0.0
O270 O 0.31235 0.39876 0.05417 0.0
H271 H 0.24994 0.35497 0.04267 0.0
H272 H 0.2879 0.3888 0.10516 0.0
O273 O 0.28535 0.35784 1.00401 0.0
H274 H 0.26329 0.30368 0.07381 0.0
H275 H 0.26358 0.39372 0.11335 0.0
Cu276 Cu 0.76922 0.70436 0.37728 0.0
N277 N 0.76087 0.71373 0.34753 0.0
N278 N 0.73896 0.70935 0.31782 0.0
C279 C 0.74512 0.70829 0.34947 0.0
C280 C 0.75159 0.71629 0.29515 0.0
C281 C 0.76511 0.71893 0.31356 0.0
O282 O 0.76084 0.70462 0.42567 0.0
C283 C 0.76861 0.68338 0.32533 0.0
O284 O 0.78226 0.69616 0.31734 0.0
H285 H 0.73795 0.70111 0.37187 0.0
H286 H 0.77657 0.72221 0.30166 0.0
N287 N 0.79171 0.71548 0.3775 0.0
N288 N 0.81694 0.72055 0.38157 0.0
C289 C 0.8013 0.70946 0.38517 0.0
C290 C 0.80161 0.73086 0.3687 0.0
C291 C 0.81717 0.73404 0.37141 0.0
C292 C 0.76633 0.71841 0.43996 0.0
O293 O 0.77755 0.73083 0.4227 0.0
H294 H 0.79688 0.69718 0.39301 0.0
H295 H 0.79778 0.73913 0.3605 0.0
O296 O 0.76105 0.68354 0.35345 0.0
H297 H 0.75087 0.71775 0.26652 0.0
H298 H 0.8278 0.74532 0.36549 0.0
Cu299 Cu 0.31432 0.07301 0.37136 0.0
N300 N 0.30661 0.05455 0.34414 0.0
N301 N 0.31261 0.03683 0.32088 0.0
C302 C 0.31273 0.04502 0.35035 0.0
C303 C 0.30563 0.04109 0.29513 0.0
C304 C 0.30203 0.05213 0.30952 0.0
O305 O 0.31192 0.06582 0.42191 0.0
C306 C 0.3374 0.09264 0.32127 0.0
O307 O 0.32514 0.09347 0.30893 0.0
H308 H 0.31953 0.0462 0.37434 0.0
H309 H 0.29841 0.05937 0.2946 0.0
N310 N 0.30302 0.08395 0.36459 0.0
N311 N 0.2975 0.1038 0.36442 0.0
C312 C 0.3087 0.09965 0.37044 0.0
C313 C 0.28773 0.07802 0.35437 0.0
C314 C 0.28425 0.09023 0.35454 0.0
C315 C 0.29742 0.05684 0.43198 0.0
O316 O 0.28604 0.05382 0.40877 0.0
H317 H 0.32075 0.10782 0.37937 0.0
H318 H 0.27964 0.06566 0.34754 0.0
O319 O 0.33597 0.08547 0.3511 0.0
H320 H 0.30463 0.03777 0.26708 0.0
H321 H 0.27293 0.08926 0.34759 0.0
Cu322 Cu 0.94361 0.23111 0.36831 0.0
N323 N 0.96224 0.24199 0.34145 0.0
N324 N 0.98116 0.26585 0.32123 0.0
C325 C 0.97264 0.25724 0.34989 0.0
C326 C 0.97615 0.25537 0.29361 0.0
C327 C 0.9644 0.24066 0.30615 0.0
O328 O 0.95078 0.23655 0.41846 0.0
C329 C 0.92338 0.23419 0.31924 0.0
O330 O 0.9213 0.22038 0.30824 0.0
H331 H 0.972 0.26245 0.37516 0.0
H332 H 0.95657 0.23046 0.28979 0.0
N333 N 0.93326 0.20889 0.3611 0.0
N334 N 0.9143 0.18301 0.35905 0.0
C335 C 0.91804 0.1979 0.36953 0.0
C336 C 0.93937 0.2007 0.34488 0.0
C337 C 0.92777 0.1848 0.34361 0.0
C338 C 0.95942 0.23094 0.43001 0.0
O339 O 0.96141 0.22111 0.40912 0.0
H340 H 0.90987 0.20085 0.38276 0.0
H341 H 0.95138 0.20597 0.33423 0.0
O342 O 0.93119 0.24024 0.34817 0.0
H343 H 0.97948 0.25844 0.26573 0.0
H344 H 0.92908 0.17538 0.33127 0.0
Cu345 Cu 0.04127 0.42495 0.34194 0.0
N346 N 0.02286 0.40507 0.33836 0.0
N347 N 0.00841 0.3786 0.33275 0.0
C348 C 0.02223 0.39192 0.32446 0.0
C349 C 0.99996 0.38354 0.35244 0.0
C350 C 0.00889 0.39994 0.3557 0.0
O351 O 0.05757 0.42236 0.31583 0.0
C352 C 0.04213 0.4193 0.41722 0.0
O353 O 0.0395 0.4052 0.40679 0.0
H354 H 0.03225 0.39193 0.31139 0.0
H355 H 1.00595 0.40744 0.37182 0.0
N356 N 0.0376 0.44027 0.32029 0.0
N357 N 0.03698 0.46282 0.31058 0.0
C358 C 0.04208 0.45508 0.33236 0.0
C359 C 0.02937 0.43852 0.28996 0.0
C360 C 0.029 0.45238 0.28384 0.0
C361 C 0.06454 0.42994 0.28718 0.0
O362 O 0.06331 0.44234 0.27765 0.0
H363 H 0.04867 0.45991 0.35702 0.0
H364 H 0.024 0.42788 0.2735 0.0
O365 O 0.04475 0.42985 0.39346 0.0
H366 H 0.98856 0.37578 0.36521 0.0
H367 H 0.02337 0.45459 0.26121 0.0
Cu368 Cu 0.58534 0.61748 0.32949 0.0
N369 N 0.60187 0.6148 0.31117 0.0
N370 N 0.6272 0.6228 0.29646 0.0
C371 C 0.6153 0.62622 0.29535 0.0
C372 C 0.62084 0.60839 0.31255 0.0
C373 C 0.60516 0.60342 0.32133 0.0
O374 O 0.58799 0.63755 0.31015 0.0
C375 C 0.59876 0.62101 0.3995 0.0
O376 O 0.61239 0.62971 0.38261 0.0
H377 H 0.61704 0.63768 0.28722 0.0
H378 H 0.59737 0.5932 0.33773 0.0
N379 N 0.56583 0.60112 0.31184 0.0
N380 N 0.54047 0.58126 0.30725 0.0
C381 C 0.55284 0.58994 0.32975 0.0
C382 C 0.56155 0.59934 0.27705 0.0
C383 C 0.54596 0.58715 0.27413 0.0
C384 C 0.60031 0.65142 0.31289 0.0
O385 O 0.61183 0.65362 0.33489 0.0
H386 H 0.55227 0.58859 0.35868 0.0
H387 H 0.56917 0.6067 0.25541 0.0
O388 O 0.58572 0.61573 0.38203 0.0
H389 H 0.62751 0.60269 0.32079 0.0
H390 H 0.53914 0.58301 0.24952 0.0
Cu391 Cu 0.39873 0.96723 0.34545 0.0
N392 N 0.40255 0.98708 0.3297 0.0
N393 N 0.39534 0.00513 0.31683 0.0
C394 C 0.39115 0.98959 0.31587 0.0
C395 C 0.41005 0.01275 0.33158 0.0
C396 C 0.41451 1.00157 0.33936 0.0
O397 O 0.37758 0.95272 0.32461 0.0
C398 C 0.40349 0.96237 0.42154 0.0
O399 O 0.40651 0.95113 0.41142 0.0
H400 H 0.37926 0.98006 0.30931 0.0
H401 H 0.42497 1.00363 0.35424 0.0
N402 N 0.41456 0.96331 0.3262 0.0
N403 N 0.43505 0.95885 0.31823 0.0
C404 C 0.42717 0.96321 0.34173 0.0
C405 C 0.41488 0.95937 0.29164 0.0
C406 C 0.42733 0.95651 0.28672 0.0
C407 C 0.37303 0.93932 0.30933 0.0
O408 O 0.38185 0.93257 0.3123 0.0
H409 H 0.43038 0.96598 0.36969 0.0
H410 H 0.40641 0.9584 0.27146 0.0
O411 O 0.39926 0.96915 0.39819 0.0
H412 H 0.41652 0.02526 0.33891 0.0
H413 H 0.43045 0.95295 0.26178 0.0
Cu414 Cu 0.57618 0.9584 0.3566 0.0
N415 N 0.58547 0.94611 0.36807 0.0
N416 N 0.60798 0.94487 0.37011 0.0
C417 C 0.60074 0.95319 0.37936 0.0
C418 C 0.59672 0.93183 0.35275 0.0
C419 C 0.58286 0.93264 0.35145 0.0
O420 O 0.58509 0.96572 0.30849 0.0
C421 C 0.57908 0.96934 0.42578 0.0
O422 O 0.57159 0.95381 0.43072 0.0
H423 H 0.6071 0.96538 0.38904 0.0
H424 H 0.5725 0.92518 0.33518 0.0
N425 N 0.55368 0.94712 0.35626 0.0
N426 N 0.52855 0.94257 0.35351 0.0
C427 C 0.54427 0.95372 0.35384 0.0
C428 C 0.54358 0.93127 0.35793 0.0
C429 C 0.52811 0.92843 0.35604 0.0
C430 C 0.57734 0.95749 0.28126 0.0
O431 O 0.56215 0.94681 0.28507 0.0
H432 H 0.54891 0.96645 0.35159 0.0
H433 H 0.54719 0.92239 0.36017 0.0
O434 O 0.58272 0.97472 0.39375 0.0
H435 H 0.5988 0.92319 0.3389 0.0
H436 H 0.51736 0.91683 0.35675 0.0
Cu437 Cu 0.03587 0.60395 0.34106 0.0
N438 N 0.04486 0.62147 0.37155 0.0
N439 N 0.03994 0.63838 0.40257 0.0
C440 C 0.03913 0.63154 0.37045 0.0
C441 C 0.04701 0.63271 0.42467 0.0
C442 C 0.04996 0.6222 0.40547 0.0
O443 O 0.03669 0.61253 0.29256 0.0
C444 C 0.01337 0.58309 0.39104 0.0
O445 O 0.02514 0.58061 0.39916 0.0
H446 H 0.03194 0.63157 0.34823 0.0
H447 H 0.05336 0.61403 0.41676 0.0
N448 N 0.04696 0.59265 0.3417 0.0
N449 N 0.05204 0.57247 0.33831 0.0
C450 C 0.04116 0.57717 0.33301 0.0
C451 C 0.06206 0.598 0.3525 0.0
C452 C 0.06523 0.58562 0.35045 0.0
C453 C 0.05067 0.62255 0.28111 0.0
O454 O 0.06293 0.62554 0.30151 0.0
H455 H 0.029 0.56941 0.32425 0.0
H456 H 0.07014 0.61002 0.36166 0.0
O457 O 0.0147 0.59153 0.36344 0.0
H458 H 0.04836 0.6346 0.45341 0.0
H459 H 0.07642 0.58632 0.35743 0.0
Cu460 Cu 0.39994 0.44281 0.34604 0.0
N461 N 0.37853 0.43163 0.35992 0.0
N462 N 0.35722 0.40752 0.37034 0.0
C463 C 0.3697 0.41648 0.34851 0.0
C464 C 0.35797 0.41762 0.39638 0.0
C465 C 0.37114 0.43253 0.38984 0.0
O466 O 0.39895 0.43568 0.2961 0.0
C467 C 0.41091 0.4416 0.41315 0.0
O468 O 0.40622 0.45208 0.41767 0.0
H469 H 0.37381 0.41155 0.32771 0.0
H470 H 0.37592 0.44265 0.40786 0.0
N471 N 0.4099 0.46516 0.34799 0.0
N472 N 0.42976 0.49061 0.34681 0.0
C473 C 0.42582 0.47511 0.34583 0.0
C474 C 0.40349 0.47467 0.35078 0.0
C475 C 0.41572 0.49039 0.3498 0.0
C476 C 0.3949 0.44246 0.2722 0.0
O477 O 0.39457 0.45543 0.28102 0.0
H478 H 0.43432 0.47101 0.34271 0.0
H479 H 0.39083 0.47045 0.35286 0.0
O480 O 0.41036 0.43613 0.38154 0.0
H481 H 0.35046 0.41418 0.4201 0.0
H482 H 0.41439 0.50084 0.35128 0.0
Cu483 Cu 0.30119 0.24726 0.36985 0.0
N484 N 0.31827 0.26824 0.37168 0.0
N485 N 0.33106 0.29491 0.3726 0.0
C486 C 0.31767 0.2813 0.38189 0.0
C487 C 0.34055 0.29024 0.3564 0.0
C488 C 0.33265 0.27377 0.35599 0.0
O489 O 0.28455 0.24573 0.40231 0.0
C490 C 0.29782 0.25216 0.29548 0.0
O491 O 0.301 0.26642 0.30598 0.0
H492 H 0.30719 0.28092 0.39329 0.0
H493 H 0.33663 0.26636 0.34301 0.0
N494 N 0.3075 0.23333 0.38848 0.0
N495 N 0.30918 0.21135 0.39696 0.0
C496 C 0.30608 0.22001 0.37324 0.0
C497 C 0.31175 0.23311 0.42277 0.0
C498 C 0.31274 0.21954 0.42813 0.0
C499 C 0.27676 0.25309 0.39989 0.0
O500 O 0.27788 0.26102 0.37036 0.0
H501 H 0.30187 0.21622 0.34609 0.0
H502 H 0.3132 0.2418 0.44293 0.0
O503 O 0.29573 0.24176 0.31918 0.0
H504 H 0.35205 0.29814 0.34422 0.0
H505 H 0.31537 0.21571 0.45324 0.0
Cu506 Cu 0.7615 0.05401 0.36965 0.0
N507 N 0.74858 0.03371 0.34999 0.0
N508 N 0.72556 0.01067 0.34235 0.0
C509 C 0.73417 0.02337 0.36396 0.0
C510 C 0.73508 0.01317 0.31349 0.0
C511 C 0.74922 0.02744 0.31818 0.0
O512 O 0.7587 0.05015 0.42166 0.0
C513 C 0.76072 0.07736 0.32372 0.0
O514 O 0.77587 0.08217 0.31832 0.0
H515 H 0.72969 0.02582 0.3884 0.0
H516 H 0.7588 0.03323 0.29879 0.0
N517 N 0.78342 0.06286 0.35907 0.0
N518 N 0.80972 0.08054 0.35679 0.0
C519 C 0.79529 0.07738 0.36946 0.0
C520 C 0.79064 0.05649 0.33976 0.0
C521 C 0.80681 0.06733 0.33828 0.0
C522 C 0.76386 0.04104 0.43259 0.0
O523 O 0.77108 0.0366 0.40919 0.0
H524 H 0.79328 0.08554 0.38557 0.0
H525 H 0.7846 0.04482 0.32741 0.0
O526 O 0.75298 0.0667 0.34755 0.0
H527 H 0.73187 0.00562 0.28995 0.0
H528 H 0.81564 0.06575 0.3238 0.0
Cu529 Cu 0.94876 0.70032 0.39783 0.0
N530 N 0.94583 0.68103 0.41594 0.0
N531 N 0.95352 0.66346 0.43004 0.0
C532 C 0.95725 0.67887 0.43099 0.0
C533 C 0.93892 0.65551 0.41482 0.0
C534 C 0.93414 0.66637 0.40644 0.0
O535 O 0.96919 0.71754 0.41634 0.0
C536 C 0.95152 0.69007 0.32757 0.0
O537 O 0.9595 0.68434 0.34434 0.0
H538 H 0.96891 0.68854 0.43835 0.0
H539 H 0.9238 0.66402 0.39071 0.0
N540 N 0.93279 0.70387 0.41649 0.0
N541 N 0.91228 0.70829 0.42262 0.0
C542 C 0.92025 0.70369 0.40006 0.0
C543 C 0.93261 0.70858 0.45041 0.0
C544 C 0.92004 0.71134 0.45427 0.0
C545 C 0.98292 0.71891 0.41199 0.0
O546 O 0.98457 0.70945 0.38919 0.0
H547 H 0.91738 0.70081 0.37195 0.0
H548 H 0.94129 0.71023 0.47072 0.0
O549 O 0.94684 0.69831 0.34528 0.0
H550 H 0.93292 0.64308 0.40687 0.0
H551 H 0.91691 0.71539 0.47848 0.0
Cu552 Cu 0.44621 0.05232 0.68792 0.0
N553 N 0.43295 0.0575 0.66267 0.0
N554 N 0.40806 0.04939 0.64428 0.0
C555 C 0.4175 0.05058 0.67208 0.0
C556 C 0.41814 0.05628 0.61626 0.0
C557 C 0.43351 0.06117 0.62765 0.0
O558 O 0.44218 0.05439 0.7391 0.0
C559 C 0.44568 0.02878 0.6416 0.0
O560 O 0.45912 0.04083 0.62975 0.0
H561 H 0.41311 0.04425 0.69727 0.0
H562 H 0.44388 0.0651 0.61055 0.0
N563 N 0.46784 0.06627 0.67744 0.0
N564 N 0.49434 0.07647 0.67477 0.0
C565 C 0.48023 0.06437 0.68684 0.0
C566 C 0.47429 0.08011 0.65913 0.0
C567 C 0.4906 0.08641 0.65738 0.0
C568 C 0.44671 0.06864 0.7494 0.0
O569 O 0.45402 0.08026 0.72596 0.0
H570 H 0.47881 0.05407 0.70145 0.0
H571 H 0.4676 0.08529 0.64795 0.0
O572 O 0.43904 0.03071 0.66944 0.0
H573 H 0.41457 0.05634 0.58875 0.0
H574 H 0.49903 0.09753 0.64454 0.0
Cu575 Cu 0.96878 0.39612 0.70365 0.0
N576 N 0.9589 0.37792 0.67534 0.0
N577 N 0.96674 0.36283 0.64597 0.0
C578 C 0.96496 0.36817 0.67818 0.0
C579 C 0.96025 0.3684 0.62208 0.0
C580 C 0.95546 0.37776 0.64027 0.0
O581 O 0.96912 0.3887 0.75277 0.0
C582 C 0.99036 0.41566 0.65039 0.0
O583 O 0.9781 0.41732 0.6419 0.0
H584 H 0.97116 0.36791 0.70214 0.0
H585 H 0.9527 0.38619 0.62784 0.0
N586 N 0.95807 0.40775 0.70287 0.0
N587 N 0.95408 0.42864 0.7051 0.0
C588 C 0.96457 0.42343 0.71013 0.0
C589 C 0.94292 0.40276 0.69311 0.0
C590 C 0.9404 0.4156 0.69449 0.0
C591 C 0.9556 0.38037 0.7683 0.0
O592 O 0.94273 0.37823 0.75154 0.0
H593 H 0.97696 0.43093 0.71759 0.0
H594 H 0.93438 0.3907 0.68504 0.0
O595 O 0.98964 0.40812 0.67919 0.0
H596 H 0.96146 0.36811 0.59319 0.0
H597 H 0.92935 0.41528 0.68803 0.0
Cu598 Cu 0.60477 0.57476 0.71605 0.0
N599 N 0.59261 0.58382 0.73059 0.0
N600 N 0.58963 0.60519 0.7364 0.0
C601 C 0.59976 0.59947 0.73838 0.0
C602 C 0.57538 0.59254 0.72741 0.0
C603 C 0.57723 0.57931 0.72399 0.0
O604 O 0.6233 0.58424 0.7483 0.0
C605 C 0.59772 0.57524 0.64372 0.0
O606 O 0.58372 0.56433 0.65599 0.0
H607 H 0.6126 0.60693 0.7409 0.0
H608 H 0.56841 0.56773 0.71387 0.0
N609 N 0.59442 0.55241 0.72209 0.0
N610 N 0.57746 0.52595 0.72144 0.0
C611 C 0.57926 0.5406 0.71565 0.0
C612 C 0.60221 0.54488 0.73287 0.0
C613 C 0.59189 0.5287 0.73246 0.0
C614 C 0.63644 0.58427 0.74503 0.0
O615 O 0.63915 0.57839 0.71572 0.0
H616 H 0.56987 0.5426 0.70599 0.0
H617 H 0.61468 0.55076 0.74014 0.0
O618 O 0.60961 0.58097 0.66519 0.0
H619 H 0.56474 0.59307 0.72105 0.0
H620 H 0.59481 0.51963 0.7397 0.0
Cu621 Cu 0.69598 0.75646 0.67548 0.0
N622 N 0.67428 0.74188 0.67022 0.0
N623 N 0.65092 0.71945 0.67879 0.0
C624 C 0.66643 0.72806 0.68848 0.0
C625 C 0.64898 0.72825 0.65325 0.0
C626 C 0.66344 0.74213 0.6481 0.0
O627 O 0.70708 0.74727 0.64863 0.0
C628 C 0.70616 0.76999 0.74716 0.0
O629 O 0.71433 0.78404 0.73175 0.0
H630 H 0.67218 0.72423 0.70776 0.0
H631 H 0.66592 0.75163 0.62932 0.0
N632 N 0.70067 0.77613 0.6548 0.0
N633 N 0.7035 0.80027 0.64341 0.0
C634 C 0.69844 0.78804 0.66727 0.0
C635 C 0.70697 0.78082 0.62182 0.0
C636 C 0.70874 0.79555 0.61475 0.0
C637 C 0.72197 0.75457 0.64128 0.0
O638 O 0.73112 0.76896 0.65445 0.0
H639 H 0.6933 0.78774 0.69331 0.0
H640 H 0.70997 0.77389 0.60391 0.0
O641 O 0.69923 0.7575 0.72768 0.0
H642 H 0.63796 0.7249 0.63923 0.0
H643 H 0.71335 0.80208 0.58992 0.0
Cu644 Cu 0.25433 0.95763 0.68432 0.0
N645 N 0.27098 0.95377 0.67531 0.0
N646 N 0.29638 0.96109 0.66377 0.0
C647 C 0.28443 0.96411 0.65789 0.0
C648 C 0.29015 0.94814 0.6854 0.0
C649 C 0.27439 0.94358 0.69235 0.0
O650 O 0.26195 0.9789 0.66305 0.0
C651 C 0.26215 0.96203 0.75906 0.0
O652 O 0.27659 0.97217 0.74731 0.0
H653 H 0.28599 0.97478 0.64476 0.0
H654 H 0.26651 0.93455 0.71127 0.0
N655 N 0.236 0.94202 0.66086 0.0
N656 N 0.21188 0.92085 0.65033 0.0
C657 C 0.22297 0.92947 0.67547 0.0
C658 C 0.23314 0.94114 0.62532 0.0
C659 C 0.21824 0.92819 0.61878 0.0
C660 C 0.25368 0.98314 0.64432 0.0
O661 O 0.23806 0.97397 0.64384 0.0
H662 H 0.22154 0.92687 0.70398 0.0
H663 H 0.24132 0.94944 0.60559 0.0
O664 O 0.25072 0.95561 0.7365 0.0
H665 H 0.29685 0.94319 0.69768 0.0
H666 H 0.21257 0.92436 0.59279 0.0
Cu667 Cu 0.06627 0.30849 0.65689 0.0
N668 N 0.06616 0.32662 0.641 0.0
N669 N 0.05595 0.34163 0.62315 0.0
C670 C 0.05284 0.32687 0.63218 0.0
C671 C 0.07195 0.35106 0.6263 0.0
C672 C 0.07825 0.3417 0.63714 0.0
O673 O 0.04528 0.2912 0.64105 0.0
C674 C 0.06536 0.31799 0.72926 0.0
O675 O 0.0568 0.32368 0.71511 0.0
H676 H 0.04098 0.31655 0.63427 0.0
H677 H 0.09066 0.34565 0.64269 0.0
N678 N 0.08303 0.30786 0.63295 0.0
N679 N 0.10696 0.31077 0.61962 0.0
C680 C 0.09706 0.31024 0.64612 0.0
C681 C 0.08412 0.30689 0.59711 0.0
C682 C 0.09877 0.30859 0.58883 0.0
C683 C 0.04269 0.27906 0.62246 0.0
O684 O 0.05419 0.27571 0.61845 0.0
H685 H 0.10021 0.31226 0.67429 0.0
H686 H 0.075 0.30545 0.57824 0.0
O687 O 0.06987 0.31024 0.7092 0.0
H688 H 0.07857 0.36384 0.62186 0.0
H689 H 0.10311 0.30841 0.56208 0.0
Cu690 Cu 0.25198 0.31794 0.65786 0.0
N691 N 0.27365 0.33246 0.6501 0.0
N692 N 0.29967 0.34073 0.64485 0.0
C693 C 0.28467 0.32895 0.63781 0.0
C694 C 0.29806 0.3522 0.66174 0.0
C695 C 0.28199 0.34709 0.66478 0.0
O696 O 0.24618 0.29962 0.62651 0.0
C697 C 0.26023 0.3153 0.73007 0.0
O698 O 0.27251 0.31516 0.71523 0.0
H699 H 0.28182 0.31739 0.62737 0.0
H700 H 0.27674 0.35297 0.67953 0.0
N701 N 0.23968 0.32698 0.64377 0.0
N702 N 0.21862 0.33026 0.63444 0.0
C703 C 0.22388 0.32098 0.64927 0.0
C704 C 0.24461 0.34052 0.625 0.0
C705 C 0.23167 0.34258 0.61919 0.0
C706 C 0.25136 0.28986 0.62868 0.0
O707 O 0.25937 0.29011 0.65734 0.0
H708 H 0.21636 0.30982 0.66309 0.0
H709 H 0.25673 0.34829 0.61588 0.0
O710 O 0.24922 0.31453 0.70991 0.0
H711 H 0.30776 0.36295 0.67334 0.0
H712 H 0.23192 0.35244 0.60493 0.0
Cu713 Cu 0.70688 0.94479 0.68424 0.0
N714 N 0.68877 0.94705 0.6823 0.0
N715 N 0.675 0.95992 0.67881 0.0
C716 C 0.68784 0.9592 0.66711 0.0
C717 C 0.66723 0.94739 0.70134 0.0
C718 C 0.67571 0.93944 0.7033 0.0
O719 O 0.7238 0.96245 0.65636 0.0
C720 C 0.70982 0.95243 0.7587 0.0
O721 O 0.70688 0.96364 0.74808 0.0
H722 H 0.69712 0.96822 0.6504 0.0
H723 H 0.67332 0.92969 0.72123 0.0
N724 N 0.70228 0.92562 0.66157 0.0
N725 N 0.70052 0.90222 0.64774 0.0
C726 C 0.70396 0.91335 0.67362 0.0
C727 C 0.6975 0.92203 0.62726 0.0
C728 C 0.69644 0.90769 0.61863 0.0
C729 C 0.7282 0.97718 0.66072 0.0
O730 O 0.72316 0.98152 0.68903 0.0
H731 H 0.70818 0.91287 0.70025 0.0
H732 H 0.69528 0.92955 0.6095 0.0
O733 O 0.71145 0.94375 0.73513 0.0
H734 H 0.65678 0.94479 0.71715 0.0
H735 H 0.69304 0.90179 0.59278 0.0
Cu736 Cu 0.07456 0.77504 0.68002 0.0
N737 N 0.05609 0.76536 0.70776 0.0
N738 N 0.03927 0.74116 0.73022 0.0
C739 C 0.04571 0.74998 0.70034 0.0
C740 C 0.04503 0.75169 0.75762 0.0
C741 C 0.05547 0.76662 0.7437 0.0
O742 O 0.06738 0.76864 0.63027 0.0
C743 C 0.09436 0.77166 0.73012 0.0
O744 O 0.09709 0.78579 0.74037 0.0
H745 H 0.04544 0.74481 0.67434 0.0
H746 H 0.06408 0.77678 0.7591 0.0
N747 N 0.08566 0.79737 0.68421 0.0
N748 N 0.10534 0.82287 0.68249 0.0
C749 C 0.10133 0.80745 0.67779 0.0
C750 C 0.07958 0.80673 0.6933 0.0
C751 C 0.09167 0.82246 0.69208 0.0
C752 C 0.05778 0.77296 0.61817 0.0
O753 O 0.05455 0.78208 0.63856 0.0
H754 H 0.10958 0.80356 0.66948 0.0
H755 H 0.0672 0.8024 0.70019 0.0
O756 O 0.08645 0.7656 0.70132 0.0
H757 H 0.04392 0.74843 0.78575 0.0
H758 H 0.09054 0.8328 0.6982 0.0
Cu759 Cu 0.97645 0.58168 0.70721 0.0
N760 N 0.99464 0.60104 0.71789 0.0
N761 N 0.01004 0.62703 0.72973 0.0
C762 C 0.99497 0.61476 0.72593 0.0
C763 C 0.01954 0.6207 0.72389 0.0
C764 C 0.01 0.60469 0.71646 0.0
O765 O 0.95947 0.58234 0.73506 0.0
C766 C 0.96584 0.57074 0.6333 0.0
O767 O 0.95472 0.55707 0.64654 0.0
H768 H 0.98435 0.61582 0.72727 0.0
H769 H 0.01399 0.59637 0.70958 0.0
N770 N 0.97994 0.56516 0.72301 0.0
N771 N 0.9796 0.54194 0.72979 0.0
C772 C 0.97351 0.54986 0.71182 0.0
C773 C 0.99035 0.56685 0.74892 0.0
C774 C 0.99015 0.55266 0.75323 0.0
C775 C 0.96066 0.58239 0.76927 0.0
O776 O 0.97185 0.58018 0.78323 0.0
H777 H 0.96476 0.5447 0.69069 0.0
H778 H 0.99761 0.5777 0.76392 0.0
O779 O 0.97489 0.58199 0.65457 0.0
H780 H 0.03247 0.62721 0.72423 0.0
H781 H 0.99714 0.55043 0.77256 0.0
Cu782 Cu 0.43693 0.3841 0.69524 0.0
N783 N 0.4266 0.36384 0.67445 0.0
N784 N 0.40274 0.3446 0.65496 0.0
C785 C 0.41096 0.35471 0.68187 0.0
C786 C 0.41385 0.34705 0.62982 0.0
C787 C 0.42861 0.35891 0.64198 0.0
O788 O 0.42836 0.37982 0.74463 0.0
C789 C 0.43847 0.39921 0.63218 0.0
O790 O 0.44929 0.39493 0.62784 0.0
H791 H 0.40532 0.35749 0.70368 0.0
H792 H 0.43945 0.36484 0.62618 0.0
N793 N 0.45932 0.39449 0.69658 0.0
N794 N 0.48447 0.41507 0.69877 0.0
C795 C 0.46876 0.41035 0.70132 0.0
C796 C 0.46931 0.38884 0.69076 0.0
C797 C 0.48482 0.40147 0.69225 0.0
C798 C 0.434 0.37312 0.76471 0.0
O799 O 0.44584 0.37149 0.7524 0.0
H800 H 0.46405 0.41829 0.70528 0.0
H801 H 0.46558 0.37647 0.68531 0.0
O802 O 0.43141 0.39659 0.66266 0.0
H803 H 0.4113 0.34195 0.6031 0.0
H804 H 0.49547 0.40062 0.6886 0.0
Cu805 Cu 0.6227 0.05728 0.70119 0.0
N806 N 0.64287 0.06253 0.68422 0.0
N807 N 0.66021 0.05421 0.67219 0.0
C808 C 0.64935 0.05387 0.69554 0.0
C809 C 0.66084 0.06383 0.6452 0.0
C810 C 0.65008 0.06895 0.65269 0.0
O811 O 0.62373 0.05466 0.7532 0.0
C812 C 0.60724 0.04194 0.63964 0.0
O813 O 0.61397 0.05705 0.63047 0.0
H814 H 0.64446 0.04563 0.71789 0.0
H815 H 0.64652 0.07531 0.63452 0.0
N816 N 0.61678 0.07274 0.69347 0.0
N817 N 0.60026 0.08252 0.68859 0.0
C818 C 0.60186 0.07001 0.69875 0.0
C819 C 0.62505 0.08755 0.67958 0.0
C820 C 0.61485 0.09362 0.67647 0.0
C821 C 0.63252 0.06785 0.76948 0.0
O822 O 0.63881 0.08111 0.75062 0.0
H823 H 0.59219 0.05873 0.70844 0.0
H824 H 0.63747 0.09335 0.67154 0.0
O825 O 0.60851 0.03854 0.67222 0.0
H826 H 0.66751 0.06591 0.62045 0.0
H827 H 0.61792 0.10521 0.66581 0.0
H828 H 0.97106 0.26882 0.95868 0.0
H829 H 0.03545 0.29431 0.11607 0.0
H830 H 0.95988 0.26867 0.07107 0.0
H831 H 0.04741 0.30291 1.00351 0.0
H832 H 1.00706 0.2795 0.1002 0.0
H833 H 0.99826 0.27586 0.97498 0.0
C834 C 0.97423 0.26998 0.98683 0.0
C835 C 0.96322 0.26835 1.01354 0.0
C836 C 0.01591 0.28445 0.07895 0.0
C837 C 0.99442 0.2766 0.03238 0.0
C838 C 0.03211 0.29279 0.088 0.0
C839 C 0.04376 0.29999 0.06104 0.0
C840 C 0.01139 0.28324 0.04272 0.0
C841 C 0.03877 0.29776 0.02509 0.0
C842 C 0.98981 0.27412 0.99612 0.0
C843 C 0.96808 0.27013 0.04959 0.0
N844 N 0.02296 0.28971 1.01698 0.0
N845 N 0.98335 0.27429 0.05796 0.0
H846 H 0.69197 0.66276 0.94544 0.0
H847 H 0.62975 0.68021 0.04731 0.0
H848 H 0.69853 0.68096 0.05352 0.0
H849 H 0.63893 0.68978 0.93389 0.0
H850 H 0.64978 0.67185 0.04914 0.0
H851 H 0.66788 0.66526 0.94021 0.0
C852 C 0.68829 0.66726 0.96797 0.0
C853 C 0.69725 0.67187 0.99978 0.0
C854 C 0.64719 0.67554 0.02376 0.0
C855 C 0.66973 0.67422 0.99449 0.0
C856 C 0.63575 0.68025 0.02265 0.0
C857 C 0.63292 0.68606 0.99061 0.0
C858 C 0.6557 0.6764 0.9925 0.0
C859 C 0.64076 0.68548 0.95922 0.0
C860 C 0.67462 0.66865 0.96502 0.0
C861 C 0.69205 0.67756 0.02839 0.0
N862 N 0.65198 0.68094 0.96102 0.0
N863 N 0.67856 0.67848 0.02517 0.0
H864 H 0.36733 0.04214 0.95227 0.0
H865 H 0.30341 0.95505 1.01737 0.0
H866 H 0.32155 0.02995 0.99802 0.0
H867 H 0.34159 0.96296 0.94496 0.0
H868 H 0.31058 0.9828 1.01098 0.0
H869 H 0.35878 0.01367 0.94889 0.0
C870 C 0.35544 0.03347 0.96137 0.0
C871 C 0.34519 0.03842 0.97585 0.0
C872 C 0.31743 0.97856 0.99637 0.0
C873 C 0.33539 0.00592 0.9721 0.0
C874 C 0.31345 0.96272 1.00031 0.0
C875 C 0.32215 0.9568 0.98217 0.0
C876 C 0.33038 0.98875 0.97443 0.0
C877 C 0.33474 0.96718 0.95962 0.0
C878 C 0.35056 0.01724 0.95924 0.0
C879 C 0.32982 0.02669 0.98661 0.0
N880 N 0.33864 0.98277 0.95667 0.0
N881 N 0.32547 0.01101 0.98493 0.0
H882 H 0.04258 0.71998 0.08435 0.0
H883 H 0.97498 0.71261 0.9524 0.0
H884 H 0.05316 0.75087 0.99264 0.0
H885 H 0.96543 0.69254 0.05917 0.0
H886 H 1.00354 0.72789 0.96702 0.0
H887 H 0.01413 0.71048 0.07619 0.0
C888 C 0.03887 0.72486 0.06272 0.0
C889 C 0.05018 0.73616 0.03911 0.0
C890 C 0.99514 0.72029 0.98737 0.0
C891 C 0.01766 0.72526 0.02916 0.0
C892 C 0.97884 0.71163 0.97907 0.0
C893 C 0.96785 0.70104 1.00436 0.0
C894 C 1.00041 0.71824 1.02107 0.0
C895 C 0.97353 0.70021 0.03851 0.0
C896 C 0.02266 0.71951 0.05809 0.0
C897 C 0.04481 0.74223 1.01159 0.0
N898 N 0.9894 0.70851 0.04568 0.0
N899 N 0.0289 0.73653 1.00703 0.0
H900 H 0.36686 0.32433 0.06095 0.0
H901 H 0.30031 0.32866 0.16152 0.0
H902 H 0.35214 0.29474 0.15597 0.0
H903 H 0.2905 0.30598 0.0577 0.0
H904 H 0.32314 0.32409 0.16804 0.0
H905 H 0.34338 0.32745 0.06727 0.0
C906 C 0.35889 0.31877 0.08356 0.0
C907 C 0.36134 0.30903 0.10754 0.0
C908 C 0.31567 0.31978 0.14436 0.0
C909 C 0.33474 0.31283 0.11516 0.0
C910 C 0.30269 0.32229 0.14071 0.0
C911 C 0.29347 0.3175 0.10923 0.0
C912 C 0.31961 0.31293 0.1158 0.0
C913 C 0.29715 0.30959 0.08258 0.0
C914 C 0.34553 0.32053 0.08702 0.0
C915 C 0.35076 0.30237 0.13685 0.0
N916 N 0.31018 0.30789 0.08609 0.0
N917 N 0.33776 0.30428 0.13973 0.0
H918 H 0.6467 0.97178 0.9153 0.0
H919 H 0.73026 0.03825 0.99772 0.0
H920 H 0.67293 0.96379 0.99819 0.0
H921 H 0.70118 0.04999 0.9308 0.0
H922 H 0.71195 0.01011 0.98649 0.0
H923 H 0.66873 0.99971 0.9105 0.0
C924 C 0.65714 0.97589 0.93216 0.0
C925 C 0.65791 0.96564 0.95764 0.0
C926 C 0.70963 0.01884 0.97396 0.0
C927 C 0.68304 0.99716 0.9521 0.0
C928 C 0.72021 0.035 0.98012 0.0
C929 C 0.71715 0.04661 0.96585 0.0
C930 C 0.69579 0.01417 0.95349 0.0
C931 C 0.7038 0.04147 0.94324 0.0
C932 C 0.66966 0.99175 0.92949 0.0
C933 C 0.6717 0.9714 0.97875 0.0
N934 N 0.69348 0.02562 0.93816 0.0
N935 N 0.68365 0.98674 0.97561 0.0
H936 H 0.72577 0.69515 0.25344 0.0
H937 H 0.64907 0.62943 0.34805 0.0
H938 H 0.7138 0.70118 0.36201 0.0
H939 H 0.64283 0.64381 0.24263 0.0
H940 H 0.67622 0.65242 0.34971 0.0
H941 H 0.69789 0.67405 0.24437 0.0
C942 C 0.71727 0.69237 0.27508 0.0
C943 C 0.72223 0.69981 0.30884 0.0
C944 C 0.66895 0.65042 0.32604 0.0
C945 C 0.69068 0.67538 0.29887 0.0
C946 C 0.65361 0.63722 0.32487 0.0
C947 C 0.64386 0.63469 0.29496 0.0
C948 C 0.67471 0.661 0.29685 0.0
C949 C 0.65013 0.64538 0.26596 0.0
C950 C 0.70142 0.68024 0.2699 0.0
C951 C 0.71062 0.69552 0.33589 0.0
N952 N 0.66528 0.65811 0.26745 0.0
N953 N 0.6955 0.68336 0.33061 0.0
H954 H 0.39092 0.02371 0.36416 0.0
H955 H 0.32609 0.03348 0.25886 0.0
H956 H 0.37421 0.99906 0.26322 0.0
H957 H 0.32202 0.02373 0.37283 0.0
H958 H 0.34655 0.02559 0.25504 0.0
H959 H 0.36944 0.03019 0.36284 0.0
C960 C 0.38293 0.02 0.34133 0.0
C961 C 0.38433 0.01095 0.31363 0.0
C962 C 0.34101 0.02509 0.28072 0.0
C963 C 0.3598 0.01821 0.31203 0.0
C964 C 0.32923 0.02946 0.28296 0.0
C965 C 0.32244 0.02956 0.31642 0.0
C966 C 0.34621 0.02115 0.3122 0.0
C967 C 0.32719 0.0243 0.34667 0.0
C968 C 0.3706 0.02351 0.3408 0.0
C969 C 0.37347 0.00611 0.28496 0.0
N970 N 0.33897 0.02062 0.34397 0.0
N971 N 0.36165 0.00987 0.28473 0.0
H972 H 0.99675 0.28661 0.37519 0.0
H973 H 0.0132 0.36552 0.27309 0.0
H974 H 0.9837 0.2846 0.26368 0.0
H975 H 0.99696 0.35535 0.38291 0.0
H976 H 0.00901 0.33825 0.26749 0.0
H977 H 1.00457 0.31484 0.37653 0.0
C978 C 0.99575 0.29214 0.35083 0.0
C979 C 0.98922 0.28307 0.31953 0.0
C980 C 1.00635 0.34204 0.29271 0.0
C981 C 0.99837 0.31544 0.32082 0.0
C982 C 0.0087 0.35749 0.29588 0.0
C983 C 1.00521 0.3625 0.32835 0.0
C984 C 1.00097 0.33183 0.32261 0.0
C985 C 0.99952 0.3518 0.35729 0.0
C986 C 1.00017 0.30822 0.35168 0.0
C987 C 0.98861 0.29103 0.28846 0.0
N988 N 0.99771 0.33701 0.35385 0.0
N989 N 0.993 0.30678 0.28996 0.0
H990 H 0.62924 0.96256 0.42139 0.0
H991 H 0.70423 0.99166 0.29111 0.0
H992 H 0.6257 0.94254 0.31603 0.0
H993 H 0.70859 1.00162 0.40497 0.0
H994 H 0.67568 0.9732 0.29959 0.0
H995 H 0.65843 0.97667 0.41613 0.0
C996 C 0.63466 0.96097 0.39738 0.0
C997 C 0.62506 0.95133 0.36922 0.0
C998 C 0.68293 0.97935 0.32275 0.0
C999 C 0.65845 0.96766 0.36257 0.0
C1000 C 0.69931 0.98989 0.31796 0.0
C1001 C 0.70896 0.99851 0.34725 0.0
C1002 C 0.67605 0.97745 0.35702 0.0
C1003 C 0.70169 0.99564 0.38135 0.0
C1004 C 0.6513 0.96902 0.39433 0.0
C1005 C 0.63265 0.94968 0.33858 0.0
N1006 N 0.68571 0.98553 0.38519 0.0
N1007 N 0.64889 0.95793 0.33587 0.0
H1008 H 0.95941 0.64788 0.37773 0.0
H1009 H 0.02578 0.6368 0.46755 0.0
H1010 H 0.97481 0.66865 0.4828 0.0
H1011 H 0.03121 0.65518 0.3596 0.0
H1012 H 1.00459 0.64331 0.47816 0.0
H1013 H 0.98223 0.64348 0.37452 0.0
C1014 C 0.96738 0.6511 0.40052 0.0
C1015 C 0.9652 0.65844 0.43077 0.0
C1016 C 0.01066 0.64609 0.45242 0.0
C1017 C 0.99129 0.65363 0.42712 0.0
C1018 C 0.02284 0.64253 0.44636 0.0
C1019 C 0.03017 0.64522 0.41233 0.0
C1020 C 1.00563 0.65203 0.42407 0.0
C1021 C 0.02566 0.65253 0.38589 0.0
C1022 C 0.98047 0.64881 0.39847 0.0
C1023 C 0.97611 0.66283 0.45923 0.0
N1024 N 0.01345 0.65534 0.39203 0.0
N1025 N 0.98873 0.66027 0.45687 0.0
H1026 H 0.3488 0.38793 0.31288 0.0
H1027 H 0.32199 0.3081 0.42542 0.0
H1028 H 0.34695 0.38769 0.42871 0.0
H1029 H 0.34486 0.31775 0.3216 0.0
H1030 H 0.32537 0.33511 0.42544 0.0
H1031 H 0.34066 0.35961 0.31375 0.0
C1032 C 0.34641 0.38184 0.33849 0.0
C1033 C 0.34882 0.39028 0.37076 0.0
C1034 C 0.32963 0.33126 0.40272 0.0
C1035 C 0.33949 0.35782 0.37196 0.0
C1036 C 0.32771 0.31592 0.4027 0.0
C1037 C 0.33332 0.3108 0.37364 0.0
C1038 C 0.33686 0.34135 0.37308 0.0
C1039 C 0.34062 0.32133 0.34478 0.0
C1040 C 0.34184 0.36571 0.33897 0.0
C1041 C 0.34526 0.38169 0.40319 0.0
N1042 N 0.3421 0.33604 0.34514 0.0
N1043 N 0.34092 0.36594 0.403 0.0
H1044 H 0.32041 0.97044 0.71148 0.0
H1045 H 0.38985 0.03272 0.58651 0.0
H1046 H 0.30983 0.97816 0.60344 0.0
H1047 H 0.3873 0.0406 0.7 0.0
H1048 H 0.36223 0.01051 0.58901 0.0
H1049 H 0.34758 0.99306 0.70456 0.0
C1050 C 0.32396 0.97667 0.686 0.0
C1051 C 0.31297 0.97244 0.65787 0.0
C1052 C 0.36775 0.01725 0.61319 0.0
C1053 C 0.34382 0.99837 0.64997 0.0
C1054 C 0.38346 0.03004 0.61178 0.0
C1055 C 0.39105 0.03845 0.64328 0.0
C1056 C 0.35976 0.01273 0.64636 0.0
C1057 C 0.3821 0.03424 0.67527 0.0
C1058 C 0.33934 0.98969 0.68224 0.0
C1059 C 0.31805 0.98112 0.62563 0.0
N1060 N 0.36705 0.02152 0.67613 0.0
N1061 N 0.33317 0.9937 0.62244 0.0
H1062 H 0.96681 0.34177 0.59752 0.0
H1063 H 0.05846 0.37013 0.63936 0.0
H1064 H 0.99626 0.37772 0.67485 0.0
H1065 H 0.02642 0.32382 0.5941 0.0
H1066 H 0.03686 0.37624 0.63853 0.0
H1067 H 0.98954 0.3376 0.58412 0.0
C1068 C 0.978 0.3487 0.61163 0.0
C1069 C 0.97956 0.35981 0.63786 0.0
C1070 C 0.03459 0.36478 0.62845 0.0
C1071 C 1.00549 0.35558 0.6221 0.0
C1072 C 0.04698 0.36136 0.62861 0.0
C1073 C 0.04417 0.34635 0.61736 0.0
C1074 C 0.01929 0.35314 0.61689 0.0
C1075 C 0.02897 0.3354 0.60381 0.0
C1076 C 0.99092 0.34639 0.60397 0.0
C1077 C 0.99436 0.36873 0.65512 0.0
N1078 N 0.01702 0.33895 0.60427 0.0
N1079 N 1.0067 0.36644 0.6469 0.0
H1080 H 0.65065 0.70636 0.74344 0.0
H1081 H 0.57949 0.61962 0.6892 0.0
H1082 H 0.62471 0.69647 0.64373 0.0
H1083 H 0.6116 0.62887 0.7777 0.0
H1084 H 0.59213 0.64847 0.67861 0.0
H1085 H 0.63291 0.67885 0.76221 0.0
C1086 C 0.64121 0.69842 0.72546 0.0
C1087 C 0.6394 0.70371 0.69162 0.0
C1088 C 0.59623 0.6442 0.70072 0.0
C1089 C 0.61885 0.67209 0.7132 0.0
C1090 C 0.58891 0.62775 0.707 0.0
C1091 C 0.59458 0.6219 0.73429 0.0
C1092 C 0.60924 0.65482 0.72204 0.0
C1093 C 0.60699 0.63294 0.75622 0.0
C1094 C 0.63101 0.68271 0.73631 0.0
C1095 C 0.6266 0.69295 0.66999 0.0
N1096 N 0.61398 0.64884 0.74946 0.0
N1097 N 0.61692 0.6776 0.68098 0.0
H1098 H 0.37997 0.33192 0.70621 0.0
H1099 H 0.31037 0.33058 0.58905 0.0
H1100 H 0.38688 0.34306 0.59311 0.0
H1101 H 0.32062 0.34705 0.69855 0.0
H1102 H 0.33433 0.3276 0.58879 0.0
H1103 H 0.35322 0.32858 0.70213 0.0
C1104 C 0.37568 0.33325 0.68031 0.0
C1105 C 0.38578 0.33805 0.65014 0.0
C1106 C 0.33125 0.33184 0.6128 0.0
C1107 C 0.35522 0.33426 0.64529 0.0
C1108 C 0.3177 0.33356 0.61292 0.0
C1109 C 0.31377 0.33931 0.64367 0.0
C1110 C 0.34053 0.3354 0.64405 0.0
C1111 C 0.32346 0.34289 0.67413 0.0
C1112 C 0.36049 0.33145 0.67807 0.0
C1113 C 0.37954 0.33939 0.61707 0.0
N1114 N 0.33632 0.34078 0.67363 0.0
N1115 N 0.36469 0.33772 0.61559 0.0
H1116 H 0.68166 0.9793 0.62087 0.0
H1117 H 0.6666 0.04167 0.73026 0.0
H1118 H 0.66394 0.97201 0.72973 0.0
H1119 H 0.66615 0.04048 0.61437 0.0
H1120 H 0.67074 0.01878 0.73088 0.0
H1121 H 0.68016 1.00392 0.61806 0.0
C1122 C 0.67735 0.98282 0.64403 0.0
C1123 C 0.67277 0.97352 0.67546 0.0
C1124 C 0.66985 0.02359 0.70529 0.0
C1125 C 0.67138 1.00172 0.67274 0.0
C1126 C 0.66756 0.0367 0.70492 0.0
C1127 C 0.6658 0.04289 0.67226 0.0
C1128 C 0.67054 0.01662 0.67274 0.0
C1129 C 0.66747 0.03615 0.64018 0.0
C1130 C 0.67652 0.99684 0.64243 0.0
C1131 C 0.66731 0.97863 0.70477 0.0
N1132 N 0.66962 0.02328 0.64121 0.0
N1133 N 0.66688 0.99242 0.70277 0.0
H1134 H 0.01588 0.71839 0.77226 0.0
H1135 H 0.03797 0.65266 0.70843 0.0
H1136 H 0.05261 0.72624 0.69548 0.0
H1137 H 0.99327 0.63952 0.7615 0.0
H1138 H 0.04528 0.68055 0.71242 0.0
H1139 H 0.00877 0.69006 0.77636 0.0
C1140 C 0.02233 0.71412 0.75623 0.0
C1141 C 0.03455 0.72452 0.7329 0.0
C1142 C 0.03387 0.67159 0.72332 0.0
C1143 C 0.02688 0.6926 0.73792 0.0
C1144 C 0.02974 0.65562 0.72134 0.0
C1145 C 0.01492 0.64366 0.73442 0.0
C1146 C 0.02315 0.67576 0.73853 0.0
C1147 C 1.0047 0.64833 0.7505 0.0
C1148 C 0.01832 0.69805 0.75854 0.0
C1149 C 0.04279 0.71855 0.713 0.0
N1150 N 0.00897 0.66404 0.752 0.0
N1151 N 0.03881 0.70306 0.71602 0.0
H1152 H 0.22337 0.34811 0.05367 0.0
H1153 H 0.17174 0.388 0.11055 0.0
H1154 H 0.24364 0.39683 0.09019 0.0
H1155 H 0.15193 0.34559 0.04517 0.0
H1156 H 0.19809 0.39063 0.10478 0.0
H1157 H 0.19707 0.34611 0.05111 0.0
C1158 C 0.22239 0.35842 0.06093 0.0
C1159 C 0.23585 0.3726 0.07272 0.0
C1160 C 0.18805 0.38079 0.09141 0.0
C1161 C 0.20569 0.37029 0.07015 0.0
C1162 C 0.173 0.37926 0.09483 0.0
C1163 C 0.15966 0.36652 0.07846 0.0
C1164 C 0.18985 0.36934 0.07189 0.0
C1165 C 0.16197 0.35562 0.05803 0.0
C1166 C 0.20733 0.35724 0.0595 0.0
C1167 C 0.23369 0.3855 0.08187 0.0
N1168 N 0.17677 0.35716 0.05565 0.0
N1169 N 0.21896 0.38398 0.08064 0.0
H1170 H 0.58945 0.76919 0.98305 0.0
H1171 H 0.62578 0.85662 0.06831 0.0
H1172 H 0.62537 0.78708 0.06603 0.0
H1173 H 0.59207 0.83903 0.9807 0.0
H1174 H 0.62506 0.83101 0.06997 0.0
H1175 H 0.58939 0.79432 0.98426 0.0
C1176 C 0.59724 0.77833 1.00178 0.0
C1177 C 0.60741 0.77591 0.02455 0.0
C1178 C 0.61779 0.83276 0.05046 0.0
C1179 C 0.60753 0.80499 0.02575 0.0
C1180 C 0.61824 0.84744 0.04938 0.0
C1181 C 0.60902 0.85014 0.02423 0.0
C1182 C 0.60804 0.82063 0.02625 0.0
C1183 C 0.59927 0.83758 1.00084 0.0
C1184 C 0.59728 0.79276 1.00229 0.0
C1185 C 0.61745 0.78841 0.04774 0.0
N1186 N 0.59909 0.82345 1.00238 0.0
N1187 N 0.61725 0.80239 0.04775 0.0
H1188 H 0.17491 0.76335 0.07345 0.0
H1189 H 0.22327 0.85614 0.02363 0.0
H1190 H 0.152 0.78774 0.02823 0.0
H1191 H 0.24563 0.82767 0.03958 0.0
H1192 H 0.19699 0.83194 0.02943 0.0
H1193 H 0.20086 0.78744 0.06523 0.0
C1194 C 0.17535 0.77381 0.06184 0.0
C1195 C 0.16126 0.77355 0.05167 0.0
C1196 C 0.20766 0.831 0.03155 0.0
C1197 C 0.19101 0.80128 0.04217 0.0
C1198 C 0.22266 0.84482 0.02852 0.0
C1199 C 0.23669 0.84393 0.03117 0.0
C1200 C 0.20668 0.81621 0.03777 0.0
C1201 C 0.23516 0.8289 0.03703 0.0
C1202 C 0.19018 0.78755 0.05696 0.0
C1203 C 0.16258 0.78741 0.03623 0.0
N1204 N 0.22046 0.81568 0.04034 0.0
N1205 N 0.17719 0.80077 0.03221 0.0
H1206 H 0.37287 0.22203 0.97622 0.0
H1207 H 0.3983 0.1591 0.04379 0.0
H1208 H 0.4053 0.23106 0.06414 0.0
H1209 H 0.36999 0.15231 0.94906 0.0
H1210 H 0.39946 0.18466 0.0543 0.0
H1211 H 0.37023 0.19569 0.96828 0.0
C1212 C 0.37938 0.21847 0.99398 0.0
C1213 C 0.38939 0.22889 1.02078 0.0
C1214 C 0.39297 0.17756 0.03123 0.0
C1215 C 0.38647 0.19868 1.01176 0.0
C1216 C 0.39222 0.16289 0.02536 0.0
C1217 C 0.38412 0.15353 0.99536 0.0
C1218 C 0.38549 0.1829 1.00708 0.0
C1219 C 0.37659 0.1592 0.9722 0.0
C1220 C 0.37793 0.20344 0.98932 0.0
C1221 C 0.39765 0.22361 0.04275 0.0
N1222 N 0.37747 0.17348 0.97852 0.0
N1223 N 0.39599 0.20892 0.03777 0.0
H1224 H 0.86135 0.21871 0.02542 0.0
H1225 H 0.77002 0.1745 0.9611 0.0
H1226 H 0.84045 0.24001 0.95929 0.0
H1227 H 0.78905 0.15092 0.02554 0.0
H1228 H 0.79563 0.19908 0.9642 0.0
H1229 H 0.83501 0.19438 0.02997 0.0
C1230 C 0.85123 0.21834 1.01212 0.0
C1231 C 0.85319 0.2314 0.9916 0.0
C1232 C 0.79429 0.18859 0.97781 0.0
C1233 C 0.82307 0.20362 0.99658 0.0
C1234 C 0.77963 0.17449 0.9759 0.0
C1235 C 0.77742 0.16054 0.99267 0.0
C1236 C 0.80703 0.18889 0.99654 0.0
C1237 C 0.79024 0.1614 1.01224 0.0
C1238 C 0.83622 0.20443 1.01459 0.0
C1239 C 0.83965 0.23018 0.97477 0.0
N1240 N 0.80456 0.17531 1.0134 0.0
N1241 N 0.82526 0.21659 0.97756 0.0
H1242 H 0.84947 0.63274 0.92276 0.0
H1243 H 0.78815 0.64807 0.03366 0.0
H1244 H 0.85995 0.65146 0.03052 0.0
H1245 H 0.79138 0.65142 0.91813 0.0
H1246 H 0.81261 0.64621 0.03474 0.0
H1247 H 0.82633 0.63666 0.92177 0.0
C1248 C 0.84689 0.63776 0.94614 0.0
C1249 C 0.85658 0.64181 0.97675 0.0
C1250 C 0.80797 0.64742 1.0092 0.0
C1251 C 0.83002 0.64606 0.97612 0.0
C1252 C 0.79398 0.64833 1.00856 0.0
C1253 C 0.78776 0.64988 0.97574 0.0
C1254 C 0.81557 0.64771 0.97674 0.0
C1255 C 0.79585 0.65035 0.94398 0.0
C1256 C 0.83375 0.64002 0.94555 0.0
C1257 C 0.85281 0.64833 1.00635 0.0
N1258 N 0.80925 0.64913 0.94523 0.0
N1259 N 0.83968 0.65008 1.0055 0.0
H1260 H 0.81884 0.69384 0.36881 0.0
H1261 H 0.90682 0.73117 0.44907 0.0
H1262 H 0.84628 0.7425 0.40571 0.0
H1263 H 0.88708 0.69034 0.37861 0.0
H1264 H 0.88351 0.7341 0.43823 0.0
H1265 H 0.8424 0.69081 0.37709 0.0
C1266 C 0.82978 0.70385 0.37883 0.0
C1267 C 0.83059 0.71845 0.38663 0.0
C1268 C 0.88426 0.72452 0.425 0.0
C1269 C 0.85754 0.71507 0.39617 0.0
C1270 C 0.89753 0.72279 0.43134 0.0
C1271 C 0.89886 0.71045 0.41482 0.0
C1272 C 0.87201 0.71368 0.40237 0.0
C1273 C 0.88655 0.70006 0.39169 0.0
C1274 C 0.84325 0.70215 0.38326 0.0
C1275 C 0.84515 0.73109 0.39909 0.0
N1276 N 0.87355 0.70181 0.38639 0.0
N1277 N 0.85798 0.72908 0.4037 0.0
H1278 H 0.29424 0.18598 0.44136 0.0
H1279 H 0.32256 0.13198 0.3428 0.0
H1280 H 0.3196 0.20116 0.34069 0.0
H1281 H 0.2765 0.11117 0.39441 0.0
H1282 H 0.3253 0.15859 0.34933 0.0
H1283 H 0.29109 0.15938 0.43246 0.0
C1284 C 0.29919 0.18368 0.41746 0.0
C1285 C 0.30719 0.1957 0.39169 0.0
C1286 C 0.31459 0.14817 0.35912 0.0
C1287 C 0.30389 0.16552 0.38166 0.0
C1288 C 0.31308 0.13307 0.35562 0.0
C1289 C 0.29928 0.11944 0.36808 0.0
C1290 C 0.30242 0.14965 0.37614 0.0
C1291 C 0.28726 0.1214 0.38428 0.0
C1292 C 0.29733 0.16854 0.41232 0.0
C1293 C 0.31329 0.19213 0.36101 0.0
N1294 N 0.28918 0.13625 0.38825 0.0
N1295 N 0.31169 0.17739 0.357 0.0
H1296 H 0.83946 0.08416 0.35365 0.0
H1297 H 0.88467 0.17974 0.36639 0.0
H1298 H 0.81482 0.11064 0.3675 0.0
H1299 H 0.9088 0.15252 0.35823 0.0
H1300 H 0.85905 0.15475 0.36854 0.0
H1301 H 0.86494 0.10915 0.35636 0.0
C1302 C 0.83938 0.09522 0.35722 0.0
C1303 C 0.82489 0.09522 0.3602 0.0
C1304 C 0.86997 0.15426 0.36639 0.0
C1305 C 0.8542 0.12406 0.3635 0.0
C1306 C 0.88465 0.16856 0.36535 0.0
C1307 C 0.89904 0.16836 0.36191 0.0
C1308 C 0.86959 0.13957 0.36397 0.0
C1309 C 0.89811 0.15339 0.36026 0.0
C1310 C 0.85397 0.10952 0.35895 0.0
C1311 C 0.82563 0.10998 0.3654 0.0
N1312 N 0.8837 0.13967 0.36119 0.0
N1313 N 0.84001 0.12378 0.36669 0.0
H1314 H 0.06003 0.4874 0.34972 0.0
H1315 H 0.03001 0.54835 0.29645 0.0
H1316 H 0.01936 0.47489 0.2816 0.0
H1317 H 0.06894 0.56006 0.36956 0.0
H1318 H 0.02624 0.52157 0.28988 0.0
H1319 H 0.06373 0.51416 0.35661 0.0
C1320 C 0.05181 0.49019 0.33633 0.0
C1321 C 0.03935 0.47874 0.315 0.0
C1322 C 0.03562 0.53001 0.30735 0.0
C1323 C 0.04367 0.50958 0.32252 0.0
C1324 C 0.03774 0.54533 0.31127 0.0
C1325 C 0.04982 0.55661 0.33365 0.0
C1326 C 0.04563 0.52583 0.32592 0.0
C1327 C 0.0596 0.55194 0.35166 0.0
C1328 C 0.054 0.50555 0.34014 0.0
C1329 C 0.02926 0.48328 0.29792 0.0
N1330 N 0.05728 0.53695 0.34743 0.0
N1331 N 0.03164 0.49829 0.30206 0.0
H1332 H 0.53145 0.55877 0.35967 0.0
H1333 H 0.43806 0.51913 0.31588 0.0
H1334 H 0.51293 0.57531 0.27517 0.0
H1335 H 0.45767 0.49358 0.37056 0.0
H1336 H 0.46512 0.54195 0.30865 0.0
H1337 H 0.50413 0.53684 0.37188 0.0
C1338 C 0.52162 0.55785 0.34393 0.0
C1339 C 0.52447 0.56879 0.3162 0.0
C1340 C 0.4635 0.53137 0.32233 0.0
C1341 C 0.49327 0.54389 0.33008 0.0
C1342 C 0.44804 0.51838 0.32666 0.0
C1343 C 0.44559 0.50439 0.3437 0.0
C1344 C 0.47664 0.5305 0.33559 0.0
C1345 C 0.45903 0.50405 0.35685 0.0
C1346 C 0.50608 0.54531 0.35073 0.0
C1347 C 0.51131 0.56701 0.29644 0.0
N1348 N 0.47396 0.5169 0.35261 0.0
N1349 N 0.49633 0.55486 0.30381 0.0
H1350 H 0.44061 0.93686 0.28673 0.0
H1351 H 0.52639 0.96825 0.37612 0.0
H1352 H 0.45974 0.9747 0.36522 0.0
H1353 H 0.49984 0.92277 0.32278 0.0
H1354 H 0.50337 0.97227 0.36922 0.0
H1355 H 0.46337 0.93295 0.29636 0.0
C1356 C 0.44965 0.94441 0.30593 0.0
C1357 C 0.44828 0.9562 0.32503 0.0
C1358 C 0.50258 0.96139 0.35917 0.0
C1359 C 0.47454 0.95176 0.3363 0.0
C1360 C 0.51576 0.95914 0.36288 0.0
C1361 C 0.51508 0.94513 0.35002 0.0
C1362 C 0.48869 0.94968 0.34199 0.0
C1363 C 0.50089 0.93366 0.33344 0.0
C1364 C 0.46262 0.9421 0.3116 0.0
C1365 C 0.46028 0.96543 0.35005 0.0
N1366 N 0.48835 0.93623 0.32972 0.0
N1367 N 0.47297 0.96311 0.35476 0.0
H1368 H 0.59246 0.09995 0.64431 0.0
H1369 H 0.504 0.06288 0.72554 0.0
H1370 H 0.57453 0.06648 0.73244 0.0
H1371 H 0.52068 0.09397 0.633 0.0
H1372 H 0.53025 0.06525 0.73046 0.0
H1373 H 0.56691 0.09944 0.64231 0.0
C1374 C 0.58323 0.09261 0.66347 0.0
C1375 C 0.58565 0.08316 0.68842 0.0
C1376 C 0.52818 0.07159 0.70911 0.0
C1377 C 0.55627 0.08239 0.68606 0.0
C1378 C 0.51312 0.07017 0.70615 0.0
C1379 C 0.50999 0.07816 0.67868 0.0
C1380 C 0.54028 0.08109 0.68445 0.0
C1381 C 0.52249 0.08769 0.65481 0.0
C1382 C 0.56859 0.09224 0.66216 0.0
C1383 C 0.57314 0.07375 0.71234 0.0
N1384 N 0.53704 0.08884 0.65819 0.0
N1385 N 0.55902 0.07358 0.7105 0.0
H1386 H 0.93716 0.44157 0.67604 0.0
H1387 H 0.99804 0.52921 0.74869 0.0
H1388 H 0.97811 0.45308 0.74239 0.0
H1389 H 0.95288 0.51707 0.69993 0.0
H1390 H 0.99145 0.50158 0.74303 0.0
H1391 H 0.94308 0.46918 0.68155 0.0
C1392 C 0.94733 0.44979 0.69195 0.0
C1393 C 0.95716 0.44485 0.70867 0.0
C1394 C 0.98294 0.50491 0.73361 0.0
C1395 C 0.96413 0.47665 0.71459 0.0
C1396 C 0.98666 0.52076 0.737 0.0
C1397 C 0.97594 0.52559 0.72516 0.0
C1398 C 0.96839 0.49366 0.71803 0.0
C1399 C 0.96157 0.514 0.70931 0.0
C1400 C 0.95074 0.46562 0.69491 0.0
C1401 C 0.9703 0.45626 0.72849 0.0
N1402 N 0.95821 0.49858 0.70625 0.0
N1403 N 0.97339 0.47157 0.73079 0.0
H1404 H 0.54611 0.51737 0.72941 0.0
H1405 H 0.51522 0.42603 0.67667 0.0
H1406 H 0.57703 0.49898 0.7002 0.0
H1407 H 0.48473 0.44154 0.72578 0.0
H1408 H 0.53752 0.45325 0.68054 0.0
H1409 H 0.52293 0.49032 0.72279 0.0
C1410 C 0.54801 0.50769 0.72136 0.0
C1411 C 0.56355 0.51042 0.7157 0.0
C1412 C 0.52594 0.45069 0.69047 0.0
C1413 C 0.53717 0.47951 0.70811 0.0
C1414 C 0.51313 0.43505 0.68844 0.0
C1415 C 0.49789 0.43125 0.70098 0.0
C1416 C 0.52362 0.4628 0.70499 0.0
C1417 C 0.4961 0.44375 0.71537 0.0
C1418 C 0.53481 0.49225 0.71781 0.0
C1419 C 0.56532 0.4974 0.70549 0.0
N1420 N 0.50877 0.45892 0.71696 0.0
N1421 N 0.55235 0.48258 0.70204 0.0
H1422 H 0.71044 0.89023 0.59448 0.0
H1423 H 0.68817 0.80861 0.69408 0.0
H1424 H 0.69367 0.88172 0.70408 0.0
H1425 H 0.71929 0.82691 0.60146 0.0
H1426 H 0.68812 0.83392 0.6977 0.0
H1427 H 0.71154 0.86561 0.59546 0.0
C1428 C 0.70695 0.88313 0.61879 0.0
C1429 C 0.70188 0.88802 0.64918 0.0
C1430 C 0.69496 0.83231 0.67669 0.0
C1431 C 0.70307 0.85959 0.65055 0.0
C1432 C 0.69502 0.81783 0.67456 0.0
C1433 C 0.70357 0.81528 0.64706 0.0
C1434 C 0.70337 0.84431 0.651 0.0
C1435 C 0.71217 0.82787 0.62265 0.0
C1436 C 0.70766 0.86909 0.61943 0.0
C1437 C 0.69772 0.87841 0.68015 0.0
N1438 N 0.71174 0.84166 0.62508 0.0
N1439 N 0.69825 0.86456 0.67997 0.0
H1440 H 0.13411 0.82599 0.69876 0.0
H1441 H 0.1846 0.91315 0.61478 0.0
H1442 H 0.11203 0.85169 0.65643 0.0
H1443 H 0.20383 0.89665 0.69778 0.0
H1444 H 0.15846 0.88907 0.62293 0.0
H1445 H 0.16043 0.85017 0.69185 0.0
C1446 C 0.13483 0.8367 0.68784 0.0
C1447 C 0.12089 0.83687 0.67817 0.0
C1448 C 0.16839 0.89073 0.63943 0.0
C1449 C 0.15087 0.86445 0.66998 0.0
C1450 C 0.18331 0.90441 0.63465 0.0
C1451 C 0.19638 0.90688 0.65565 0.0
C1452 C 0.16656 0.87924 0.6649 0.0
C1453 C 0.19401 0.89525 0.68129 0.0
C1454 C 0.14981 0.85049 0.68415 0.0
C1455 C 0.12247 0.8511 0.66448 0.0
N1456 N 0.17942 0.88185 0.68499 0.0
N1457 N 0.13717 0.86427 0.66053 0.0
H1458 H 0.19462 0.31334 0.68256 0.0
H1459 H 0.13076 0.3253 0.57047 0.0
H1460 H 0.20544 0.3406 0.58448 0.0
H1461 H 0.1205 0.30382 0.67581 0.0
H1462 H 0.1579 0.33002 0.57481 0.0
H1463 H 0.16725 0.30868 0.68019 0.0
C1464 C 0.19126 0.3183 0.66048 0.0
C1465 C 0.20243 0.32741 0.6337 0.0
C1466 C 0.14976 0.32428 0.59707 0.0
C1467 C 0.1711 0.32217 0.63092 0.0
C1468 C 0.13418 0.32148 0.5945 0.0
C1469 C 0.12323 0.31402 0.62271 0.0
C1470 C 0.15457 0.31953 0.62802 0.0
C1471 C 0.12854 0.30966 0.6535 0.0
C1472 C 0.17565 0.31572 0.65928 0.0
C1473 C 0.19739 0.3337 0.60598 0.0
N1474 N 0.1438 0.3124 0.65527 0.0
N1475 N 0.18214 0.33092 0.60527 0.0
H1476 H 0.06036 0.39964 0.2851 0.0
H1477 H 0.11288 0.41391 0.10729 0.0
H1478 H 0.08423 0.44485 0.22956 0.0
H1479 H 0.07615 0.36722 0.14208 0.0
H1480 H 0.10514 0.42587 0.15589 0.0
H1481 H 0.06911 0.38806 0.23772 0.0
C1482 C 0.06765 0.40721 0.26328 0.0
C1483 C 0.07155 0.42328 0.26142 0.0
C1484 C 0.09874 0.41301 0.15278 0.0
C1485 C 0.08156 0.41002 0.20686 0.0
C1486 C 0.10314 0.40616 0.125 0.0
C1487 C 0.09511 0.38951 0.12035 0.0
C1488 C 0.0864 0.40315 0.17664 0.0
C1489 C 0.08261 0.3801 0.14434 0.0
C1490 C 0.07251 0.40054 0.23604 0.0
C1491 C 0.0809 0.43242 0.23218 0.0
N1492 N 0.07873 0.38703 0.17152 0.0
N1493 N 0.08559 0.42569 0.20616 0.0
H1494 H 0.62847 0.67853 0.29494 0.0
H1495 H 0.58891 0.70154 0.13385 0.0
H1496 H 0.57829 0.65264 0.26873 0.0
H1497 H 0.63988 0.72127 0.14268 0.0
H1498 H 0.58513 0.6866 0.18898 0.0
H1499 H 0.633 0.69704 0.24534 0.0
C1500 C 0.61835 0.67687 0.27919 0.0
C1501 C 0.60294 0.66395 0.28612 0.0
C1502 C 0.59717 0.69424 0.17909 0.0
C1503 C 0.60812 0.68512 0.22912 0.0
C1504 C 0.59938 0.70286 0.14751 0.0
C1505 C 0.61476 0.71265 0.13325 0.0
C1506 C 0.61043 0.69533 0.19701 0.0
C1507 C 0.6278 0.71387 0.15257 0.0
C1508 C 0.62099 0.6874 0.2507 0.0
C1509 C 0.59036 0.66237 0.26447 0.0
N1510 N 0.62534 0.70524 0.18336 0.0
N1511 N 0.59323 0.67277 0.23703 0.0
H1512 H 0.3047 0.93004 0.14416 0.0
H1513 H 0.35965 0.91085 0.27301 0.0
H1514 H 0.31083 0.88901 0.13393 0.0
H1515 H 0.35543 0.95292 0.2858 0.0
H1516 H 0.33966 0.90169 0.22548 0.0
H1517 H 0.3211 0.93769 0.19914 0.0
C1518 C 0.30928 0.92253 0.15367 0.0
C1519 C 0.30642 0.9089 0.13415 0.0
C1520 C 0.34298 0.91288 0.2388 0.0
C1521 C 0.32526 0.91761 0.19688 0.0
C1522 C 0.35441 0.91811 0.26615 0.0
C1523 C 0.35936 0.93273 0.28354 0.0
C1524 C 0.3364 0.92234 0.22829 0.0
C1525 C 0.35203 0.94156 0.27324 0.0
C1526 C 0.31871 0.92694 0.18497 0.0
C1527 C 0.31278 0.89969 0.14775 0.0
N1528 N 0.34105 0.93631 0.24616 0.0
N1529 N 0.32188 0.90424 0.17794 0.0
H1530 H 0.43772 0.1226 0.92305 0.0
H1531 H 0.42534 0.04856 0.80143 0.0
H1532 H 0.40365 0.07378 0.95049 0.0
H1533 H 0.45993 0.09795 0.78047 0.0
H1534 H 0.41834 0.05673 0.85834 0.0
H1535 H 0.44722 0.1131 0.87334 0.0
C1536 C 0.43235 0.10985 0.91892 0.0
C1537 C 0.41984 0.09902 0.94111 0.0
C1538 C 0.42756 0.06573 0.84136 0.0
C1539 C 0.43055 0.08792 0.88334 0.0
C1540 C 0.4316 0.06105 0.80893 0.0
C1541 C 0.44318 0.07257 0.78588 0.0
C1542 C 0.43519 0.08202 0.85078 0.0
C1543 C 0.45083 0.08861 0.79702 0.0
C1544 C 0.43776 0.1044 0.89034 0.0
C1545 C 0.41338 0.0826 0.93423 0.0
N1546 N 0.44666 0.09281 0.82834 0.0
N1547 N 0.41868 0.07756 0.90579 0.0
H1548 H 0.96497 0.32771 0.9472 0.0
H1549 H 0.92888 0.36526 0.81027 0.0
H1550 H 0.91623 0.31781 0.95087 0.0
H1551 H 0.97789 0.37606 0.80593 0.0
H1552 H 0.92478 0.34945 0.86429 0.0
H1553 H 0.97056 0.34687 0.89872 0.0
C1554 C 0.95546 0.32967 0.93814 0.0
C1555 C 0.94006 0.32102 0.95327 0.0
C1556 C 0.93648 0.35533 0.85178 0.0
C1557 C 0.94642 0.343 0.89718 0.0
C1558 C 0.93886 0.36441 0.82078 0.0
C1559 C 0.95377 0.37201 0.80321 0.0
C1560 C 0.94904 0.35364 0.86559 0.0
C1561 C 0.9662 0.37046 0.81847 0.0
C1562 C 0.95868 0.34063 0.91031 0.0
C1563 C 0.92828 0.32415 0.94021 0.0
N1564 N 0.96353 0.36137 0.84858 0.0
N1565 N 0.93168 0.33477 0.91285 0.0
H1566 H 0.71622 0.60592 0.88629 0.0
H1567 H 0.63398 0.59587 0.81087 0.0
H1568 H 0.68514 0.61663 0.94905 0.0
H1569 H 0.66492 0.58441 0.74968 0.0
H1570 H 0.65224 0.60316 0.86189 0.0
H1571 H 0.69707 0.59715 0.83698 0.0
C1572 C 0.70528 0.60627 0.88993 0.0
C1573 C 0.70235 0.61205 0.92205 0.0
C1574 C 0.65505 0.59906 0.83732 0.0
C1575 C 0.68032 0.60216 0.86506 0.0
C1576 C 0.64464 0.59493 0.80803 0.0
C1577 C 0.64788 0.58952 0.77571 0.0
C1578 C 0.66887 0.59779 0.83447 0.0
C1579 C 0.66189 0.58855 0.77389 0.0
C1580 C 0.69435 0.6013 0.86159 0.0
C1581 C 0.68792 0.61221 0.92495 0.0
N1582 N 0.67182 0.59262 0.80277 0.0
N1583 N 0.67752 0.60745 0.89679 0.0
H1584 H 0.93165 0.61387 0.95883 0.0
H1585 H 0.94311 0.59687 0.75212 0.0
H1586 H 0.91888 0.63313 0.86858 0.0
H1587 H 0.958 0.57948 0.84219 0.0
H1588 H 0.93182 0.60814 0.7944 0.0
H1589 H 0.93944 0.5994 0.91665 0.0
C1590 C 0.93043 0.61503 0.93023 0.0
C1591 C 0.92467 0.62483 0.91736 0.0
C1592 C 0.93743 0.60172 0.80489 0.0
C1593 C 0.93353 0.60826 0.86881 0.0
C1594 C 0.94377 0.59518 0.7807 0.0
C1595 C 0.95159 0.58726 0.79354 0.0
C1596 C 0.93889 0.60032 0.8422 0.0
C1597 C 0.95219 0.58558 0.83098 0.0
C1598 C 0.93487 0.60676 0.90612 0.0
C1599 C 0.92333 0.62581 0.8799 0.0
N1600 N 0.94605 0.59211 0.85388 0.0
N1601 N 0.92774 0.6177 0.85707 0.0
H1602 H 0.42284 0.32506 0.96502 0.0
H1603 H 0.40197 0.35535 0.78314 0.0
H1604 H 0.37517 0.30127 0.92105 0.0
H1605 H 0.44937 0.37209 0.82417 0.0
H1606 H 0.39087 0.33782 0.8363 0.0
H1607 H 0.43163 0.34428 0.91644 0.0
C1608 C 0.41415 0.32381 0.94508 0.0
C1609 C 0.3982 0.31136 0.94724 0.0
C1610 C 0.40367 0.34553 0.83386 0.0
C1611 C 0.40837 0.33371 0.89069 0.0
C1612 C 0.40999 0.35569 0.80381 0.0
C1613 C 0.42662 0.36528 0.79941 0.0
C1614 C 0.41409 0.34512 0.85966 0.0
C1615 C 0.43649 0.36495 0.82651 0.0
C1616 C 0.41922 0.3349 0.91718 0.0
C1617 C 0.3876 0.31059 0.92042 0.0
N1618 N 0.43011 0.35505 0.85521 0.0
N1619 N 0.39287 0.32159 0.89318 0.0
H1620 H 0.66815 0.05512 0.9742 0.0
H1621 H 0.64484 0.09398 0.8124 0.0
H1622 H 0.68883 0.10575 0.95645 0.0
H1623 H 0.63146 0.04422 0.81366 0.0
H1624 H 0.65671 0.0973 0.87152 0.0
H1625 H 0.65077 0.04999 0.92202 0.0
C1626 C 0.66883 0.06517 0.95981 0.0
C1627 C 0.68002 0.08093 0.96977 0.0
C1628 C 0.65108 0.08559 0.85915 0.0
C1629 C 0.66019 0.07508 0.9099 0.0
C1630 C 0.64424 0.08366 0.8253 0.0
C1631 C 0.63727 0.06882 0.80775 0.0
C1632 C 0.6511 0.07263 0.87592 0.0
C1633 C 0.63671 0.05587 0.82616 0.0
C1634 C 0.65898 0.0622 0.92986 0.0
C1635 C 0.68045 0.09343 0.94979 0.0
N1636 N 0.64371 0.05811 0.85913 0.0
N1637 N 0.67076 0.09023 0.92085 0.0
H1638 H 0.6352 0.93581 0.13733 0.0
H1639 H 0.56529 0.94964 0.21384 0.0
H1640 H 0.59169 0.92429 0.08135 0.0
H1641 H 0.60796 0.96253 0.27457 0.0
H1642 H 0.57657 0.94276 0.16296 0.0
H1643 H 0.62699 0.94736 0.18647 0.0
C1644 C 0.62398 0.93571 0.1353 0.0
C1645 C 0.6141 0.92894 0.10515 0.0
C1646 C 0.58364 0.94728 0.18716 0.0
C1647 C 0.60473 0.94224 0.16095 0.0
C1648 C 0.57721 0.95133 0.21618 0.0
C1649 C 0.5857 0.95675 0.24842 0.0
C1650 C 0.59864 0.94836 0.19035 0.0
C1651 C 0.60108 0.95859 0.25 0.0
C1652 C 0.61932 0.94234 0.16328 0.0
C1653 C 0.59972 0.92923 0.10398 0.0
N1654 N 0.60699 0.9542 0.22153 0.0
N1655 N 0.59551 0.9357 0.13131 0.0
H1656 H 0.02881 0.62235 0.23228 0.0
H1657 H 0.0975 0.69305 0.11395 0.0
H1658 H 0.07943 0.6437 0.25152 0.0
H1659 H 0.04782 0.66923 0.08345 0.0
H1660 H 0.09059 0.67473 0.16449 0.0
H1661 H 0.0349 0.63894 0.1778 0.0
C1662 C 0.04116 0.63041 0.22503 0.0
C1663 C 0.05359 0.63161 0.24676 0.0
C1664 C 0.08116 0.67341 0.14672 0.0
C1665 C 0.06065 0.65069 0.1846 0.0
C1666 C 0.08512 0.68391 0.11771 0.0
C1667 C 0.07326 0.68275 0.0942 0.0
C1668 C 0.06514 0.6616 0.15279 0.0
C1669 C 0.0574 0.67058 0.10072 0.0
C1670 C 0.04464 0.63989 0.19394 0.0
C1671 C 0.06938 0.64233 0.23592 0.0
N1672 N 0.05379 0.66056 0.12946 0.0
N1673 N 0.07241 0.65141 0.20592 0.0
H1674 H 0.38056 0.41045 0.25452 0.0
H1675 H 0.3384 0.42204 0.08081 0.0
H1676 H 0.39118 0.45619 0.212 0.0
H1677 H 0.32664 0.37585 0.1228 0.0
H1678 H 0.36003 0.4346 0.12459 0.0
H1679 H 0.36334 0.39744 0.20234 0.0
C1680 C 0.37961 0.41779 0.23381 0.0
C1681 C 0.38731 0.43445 0.23776 0.0
C1682 C 0.35282 0.4217 0.12407 0.0
C1683 C 0.36737 0.41964 0.17829 0.0
C1684 C 0.34044 0.41451 0.09897 0.0
C1685 C 0.33054 0.39784 0.09814 0.0
C1686 C 0.35536 0.41221 0.14882 0.0
C1687 C 0.33387 0.38875 0.12245 0.0
C1688 C 0.36964 0.41035 0.20416 0.0
C1689 C 0.38542 0.44331 0.21025 0.0
N1690 N 0.34587 0.39604 0.14691 0.0
N1691 N 0.37558 0.43582 0.182 0.0
H1692 H 0.75313 0.76722 0.61974 0.0
H1693 H 0.73669 0.69966 0.47246 0.0
H1694 H 0.70637 0.72616 0.60335 0.0
H1695 H 0.78107 0.74403 0.48439 0.0
H1696 H 0.72579 0.70713 0.52428 0.0
H1697 H 0.76392 0.75697 0.5744 0.0
C1698 C 0.7451 0.75598 0.6068 0.0
C1699 C 0.72875 0.74763 0.61546 0.0
C1700 C 0.73796 0.71513 0.51568 0.0
C1701 C 0.74114 0.73572 0.5628 0.0
C1702 C 0.74422 0.71081 0.48626 0.0
C1703 C 0.75982 0.72124 0.47388 0.0
C1704 C 0.74742 0.72992 0.53299 0.0
C1705 C 0.76896 0.73563 0.49268 0.0
C1706 C 0.75129 0.75011 0.58074 0.0
C1707 C 0.71904 0.73306 0.5976 0.0
N1708 N 0.76264 0.73951 0.52099 0.0
N1709 N 0.72534 0.72762 0.57205 0.0
H1710 H 0.26876 0.04549 0.46513 0.0
H1711 H 0.28568 1.00085 0.62585 0.0
H1712 H 0.31501 0.04998 0.48078 0.0
H1713 H 0.23989 0.99636 0.60298 0.0
H1714 H 0.29764 0.02077 0.57759 0.0
H1715 H 0.25923 0.02975 0.51978 0.0
C1716 C 0.27701 0.04327 0.48025 0.0
C1717 C 0.29272 0.04904 0.46802 0.0
C1718 C 0.28502 0.01554 0.58341 0.0
C1719 C 0.28168 0.03062 0.53127 0.0
C1720 C 0.27816 1.00419 0.61112 0.0
C1721 C 0.26167 0.99679 0.61858 0.0
C1722 C 0.27535 0.0196 0.56301 0.0
C1723 C 0.2526 1.00162 0.59831 0.0
C1724 C 0.27151 0.03421 0.51162 0.0
C1725 C 0.30282 0.04582 0.48917 0.0
N1726 N 0.25952 0.01259 0.57153 0.0
N1727 N 0.29708 0.03669 0.51958 0.0
H1728 H 0.02005 0.28772 0.60816 0.0
H1729 H 0.97425 0.21728 0.46476 0.0
H1730 H 0.03174 0.25102 0.58536 0.0
H1731 H 0.96629 0.25724 0.47262 0.0
H1732 H 0.9925 0.22773 0.51537 0.0
H1733 H 0.99785 0.27512 0.56531 0.0
C1734 C 0.01782 0.27688 0.59465 0.0
C1735 C 0.02787 0.27046 0.60044 0.0
C1736 C 0.98672 0.23421 0.50633 0.0
C1737 C 1.00245 0.25602 0.55111 0.0
C1738 C 0.97621 0.22822 0.47735 0.0
C1739 C 0.96874 0.23643 0.46406 0.0
C1740 C 0.98998 0.24865 0.52249 0.0
C1741 C 0.97174 0.25049 0.4819 0.0
C1742 C 1.00518 0.26975 0.56999 0.0
C1743 C 0.0244 0.25646 0.58181 0.0
N1744 N 0.98223 0.25624 0.50999 0.0
N1745 N 0.01208 0.24979 0.55803 0.0
H1746 H 0.2604 0.26944 0.40699 0.0
H1747 H 0.26238 0.26874 0.62164 0.0
H1748 H 0.27613 0.24198 0.46811 0.0
H1749 H 0.24061 0.29078 0.56092 0.0
H1750 H 0.26579 0.2573 0.56595 0.0
H1751 H 0.25138 0.27586 0.46285 0.0
C1752 C 0.26177 0.26456 0.43204 0.0
C1753 C 0.26914 0.25522 0.4327 0.0
C1754 C 0.26009 0.26448 0.56484 0.0
C1755 C 0.259 0.26272 0.49704 0.0
C1756 C 0.2581 0.271 0.59672 0.0
C1757 C 0.25128 0.28085 0.59611 0.0
C1758 C 0.25537 0.26792 0.5319 0.0
C1759 C 0.24598 0.28332 0.56284 0.0
C1760 C 0.25664 0.26827 0.464 0.0
C1761 C 0.27057 0.24927 0.46613 0.0
N1762 N 0.2483 0.27707 0.53212 0.0
N1763 N 0.26573 0.25326 0.49688 0.0
H1764 H 0.72907 0.00563 0.64939 0.0
H1765 H 0.77421 0.02187 0.46042 0.0
H1766 H 0.74419 0.97454 0.60238 0.0
H1767 H 0.74607 0.04365 0.48844 0.0
H1768 H 0.76714 0.00784 0.51752 0.0
H1769 H 0.73892 0.02272 0.59596 0.0
C1770 C 0.7347 1.00252 0.62814 0.0
C1771 C 0.73584 0.9886 0.63049 0.0
C1772 C 0.76254 0.01572 0.51136 0.0
C1773 C 0.74709 0.00816 0.56919 0.0
C1774 C 0.7666 0.02383 0.47868 0.0
C1775 C 0.76063 0.03393 0.46927 0.0
C1776 C 0.75246 0.01769 0.53536 0.0
C1777 C 0.75093 0.03598 0.49444 0.0
C1778 C 0.74019 0.01223 0.59752 0.0
C1779 C 0.74306 0.98512 0.60182 0.0
N1780 N 0.74709 0.02787 0.52633 0.0
N1781 N 0.74841 0.99482 0.57247 0.0
H1782 H 0.03762 0.78128 0.58657 0.0
H1783 H 0.01049 0.71809 0.4252 0.0
H1784 H 0.05742 0.75041 0.57126 0.0
H1785 H 0.98511 0.74214 0.45791 0.0
H1786 H 0.03024 0.73232 0.4725 0.0
H1787 H 0.02104 0.76967 0.53373 0.0
C1788 C 0.0386 0.77212 0.57197 0.0
C1789 C 0.04893 0.76677 0.58373 0.0
C1790 C 0.02042 0.73458 0.46909 0.0
C1791 C 0.02971 0.75328 0.52262 0.0
C1792 C 0.00918 0.72654 0.44191 0.0
C1793 C 0.99606 0.72889 0.43747 0.0
C1794 C 0.01865 0.74518 0.49186 0.0
C1795 C 0.99497 0.73989 0.46026 0.0
C1796 C 0.02904 0.76545 0.54171 0.0
C1797 C 0.04964 0.7549 0.56331 0.0
N1798 N 1.00605 0.74757 0.48639 0.0
N1799 N 0.0401 0.7485 0.53385 0.0
H1800 H 0.08604 0.35834 0.94518 0.0
H1801 H 0.08336 0.30865 0.76898 0.0
H1802 H 0.10494 0.32633 0.94132 0.0
H1803 H 0.0596 0.33624 0.77669 0.0
H1804 H 0.09261 0.31611 0.83104 0.0
H1805 H 0.07789 0.3519 0.88213 0.0
C1806 C 0.08864 0.3501 0.93103 0.0
C1807 C 0.09618 0.34286 0.94874 0.0
C1808 C 0.08535 0.32051 0.81915 0.0
C1809 C 0.08675 0.33532 0.87651 0.0
C1810 C 0.08002 0.31621 0.78369 0.0
C1811 C 0.07061 0.32175 0.76744 0.0
C1812 C 0.08134 0.33051 0.83861 0.0
C1813 C 0.06677 0.3316 0.78797 0.0
C1814 C 0.08389 0.34635 0.89506 0.0
C1815 C 0.09912 0.33218 0.92895 0.0
N1816 N 0.07215 0.33567 0.8223 0.0
N1817 N 0.09439 0.32873 0.89409 0.0
H1818 H 0.6649 0.78208 0.93816 0.0
H1819 H 0.69297 0.74331 0.79037 0.0
H1820 H 0.66602 0.73891 0.95971 0.0
H1821 H 0.71037 0.79399 0.79306 0.0
H1822 H 0.68322 0.74119 0.85221 0.0
H1823 H 0.68184 0.78681 0.88529 0.0
C1824 C 0.66907 0.77381 0.93222 0.0
C1825 C 0.6642 0.76019 0.95352 0.0
C1826 C 0.68942 0.75281 0.83945 0.0
C1827 C 0.68308 0.76516 0.89216 0.0
C1828 C 0.69497 0.75403 0.80411 0.0
C1829 C 0.70245 0.76884 0.7863 0.0
C1830 C 0.69103 0.76643 0.85692 0.0
C1831 C 0.70469 0.78232 0.80557 0.0
C1832 C 0.67869 0.77648 0.90196 0.0
C1833 C 0.66973 0.7497 0.9443 0.0
N1834 N 0.69877 0.78074 0.83952 0.0
N1835 N 0.67861 0.75223 0.91388 0.0
H1836 H 0.2799 0.94197 0.97653 0.0
H1837 H 0.23614 0.93592 0.78907 0.0
H1838 H 0.23996 0.89869 0.93588 0.0
H1839 H 0.28313 0.97466 0.81549 0.0
H1840 H 0.23431 0.92458 0.84889 0.0
H1841 H 0.27803 0.95646 0.92424 0.0
C1842 C 0.27044 0.93562 0.95723 0.0
C1843 C 0.26007 0.9191 0.96063 0.0
C1844 C 0.24495 0.93567 0.84176 0.0
C1845 C 0.25795 0.93552 0.90048 0.0
C1846 C 0.24598 0.94221 0.8076 0.0
C1847 C 0.25987 0.95624 0.79697 0.0
C1848 C 0.25785 0.94323 0.86575 0.0
C1849 C 0.27223 0.96377 0.82231 0.0
C1850 C 0.26948 0.94385 0.92715 0.0
C1851 C 0.24821 0.91142 0.93435 0.0
N1852 N 0.27097 0.95714 0.85534 0.0
N1853 N 0.24753 0.91964 0.9054 0.0
H1854 H 0.40012 0.13259 0.13776 0.0
H1855 H 0.34823 0.07306 0.2971 0.0
H1856 H 0.37487 0.08133 0.12634 0.0
H1857 H 0.35528 0.12043 0.28503 0.0
H1858 H 0.36444 0.07728 0.24263 0.0
H1859 H 0.38996 0.12945 0.19943 0.0
C1860 C 0.39265 0.12066 0.14834 0.0
C1861 C 0.38828 0.10721 0.12662 0.0
C1862 C 0.36277 0.08689 0.25248 0.0
C1863 C 0.37671 0.10355 0.19751 0.0
C1864 C 0.35375 0.08458 0.28384 0.0
C1865 C 0.35068 0.09654 0.29589 0.0
C1866 C 0.36892 0.10134 0.23338 0.0
C1867 C 0.35759 0.11102 0.2769 0.0
C1868 C 0.38681 0.11889 0.18354 0.0
C1869 C 0.37848 0.09205 0.14195 0.0
N1870 N 0.36635 0.11301 0.24663 0.0
N1871 N 0.37302 0.09063 0.17637 0.0
H1872 H 0.89885 0.22347 0.27179 0.0
H1873 H 0.94368 0.30022 0.14648 0.0
H1874 H 0.94107 0.26646 0.30578 0.0
H1875 H 0.89733 0.25984 0.12248 0.0
H1876 H 0.94205 0.28934 0.2068 0.0
H1877 H 0.8969 0.23774 0.21974 0.0
C1878 C 0.90749 0.23606 0.26874 0.0
C1879 C 0.92007 0.2438 0.2933 0.0
C1880 C 0.93214 0.28297 0.1885 0.0
C1881 C 0.91827 0.26018 0.23283 0.0
C1882 C 0.93306 0.28919 0.15398 0.0
C1883 C 0.92068 0.2809 0.12907 0.0
C1884 C 0.9188 0.26827 0.19822 0.0
C1885 C 0.90722 0.26665 0.14053 0.0
C1886 C 0.90644 0.2442 0.23885 0.0
C1887 C 0.93104 0.26008 0.28778 0.0
N1888 N 0.90673 0.26074 0.17398 0.0
N1889 N 0.93005 0.26766 0.25782 0.0
H1890 H 0.78321 0.67045 0.28743 0.0
H1891 H 0.71862 0.63933 0.12898 0.0
H1892 H 0.73809 0.66895 0.29779 0.0
H1893 H 0.76751 0.65036 0.11873 0.0
H1894 H 0.72256 0.64382 0.19441 0.0
H1895 H 0.7744 0.65624 0.23042 0.0
C1896 C 0.77121 0.66666 0.27815 0.0
C1897 C 0.76134 0.67079 0.29748 0.0
C1898 C 0.7323 0.64492 0.17787 0.0
C1899 C 0.75133 0.65504 0.23111 0.0
C1900 C 0.73001 0.64223 0.14062 0.0
C1901 C 0.74278 0.64451 0.11844 0.0
C1902 C 0.74739 0.64972 0.1929 0.0
C1903 C 0.75737 0.64853 0.1348 0.0
C1904 C 0.76623 0.65868 0.24536 0.0
C1905 C 0.74598 0.66578 0.28395 0.0
N1906 N 0.75928 0.65107 0.17081 0.0
N1907 N 0.74153 0.65841 0.25123 0.0
H1908 H 0.95886 0.67191 0.28341 0.0
H1909 H 0.90543 0.67228 0.11961 0.0
H1910 H 0.93243 0.69698 0.28519 0.0
H1911 H 0.93118 0.64655 0.11638 0.0
H1912 H 0.91484 0.68083 0.18064 0.0
H1913 H 0.94901 0.66249 0.22271 0.0
C1914 C 0.95107 0.67555 0.271 0.0
C1915 C 0.94651 0.68532 0.28961 0.0
C1916 C 0.91841 0.67325 0.16679 0.0
C1917 C 0.93503 0.67437 0.21987 0.0
C1918 C 0.91299 0.66829 0.13183 0.0
C1919 C 0.91752 0.65866 0.11264 0.0
C1920 C 0.92856 0.66865 0.18302 0.0
C1921 C 0.92731 0.65389 0.13013 0.0
C1922 C 0.94539 0.67008 0.23631 0.0
C1923 C 0.93633 0.68953 0.272 0.0
N1924 N 0.93257 0.65901 0.16425 0.0
N1925 N 0.93093 0.68402 0.23825 0.0
H1926 H 0.29728 0.226 0.26485 0.0
H1927 H 0.33451 0.27094 0.07846 0.0
H1928 H 0.30377 0.27228 0.2382 0.0
H1929 H 0.33398 0.22811 0.11272 0.0
H1930 H 0.31794 0.26871 0.13068 0.0
H1931 H 0.30545 0.22386 0.20378 0.0
C1932 C 0.30014 0.2356 0.24603 0.0
C1933 C 0.29997 0.24942 0.25696 0.0
C1934 C 0.32117 0.25962 0.12636 0.0
C1935 C 0.30953 0.24711 0.1868 0.0
C1936 C 0.33047 0.26077 0.09626 0.0
C1937 C 0.33562 0.24966 0.09118 0.0
C1938 C 0.317 0.24728 0.15151 0.0
C1939 C 0.3303 0.23694 0.11563 0.0
C1940 C 0.30488 0.2344 0.21112 0.0
C1941 C 0.30382 0.26145 0.23118 0.0
N1942 N 0.32144 0.23619 0.14483 0.0
N1943 N 0.3086 0.2601 0.19751 0.0
H1944 H 0.72916 0.06042 0.30328 0.0
H1945 H 0.74427 0.11442 0.12776 0.0
H1946 H 0.7734 0.10379 0.28087 0.0
H1947 H 0.70629 0.06546 0.13724 0.0
H1948 H 0.75203 0.11334 0.18992 0.0
H1949 H 0.71757 0.06498 0.24912 0.0
C1950 C 0.7363 0.07113 0.28757 0.0
C1951 C 0.75232 0.08169 0.29653 0.0
C1952 C 0.74188 0.1029 0.17851 0.0
C1953 C 0.73919 0.08688 0.23429 0.0
C1954 C 0.7374 0.10352 0.14305 0.0
C1955 C 0.7247 0.08996 0.12706 0.0
C1956 C 0.73352 0.08865 0.19831 0.0
C1957 C 0.71626 0.07616 0.14827 0.0
C1958 C 0.72972 0.07364 0.25644 0.0
C1959 C 0.76104 0.09527 0.27485 0.0
N1960 N 0.72087 0.07583 0.18264 0.0
N1961 N 0.75443 0.0974 0.24466 0.0
H1962 H 0.70719 0.92546 0.7901 0.0
H1963 H 0.67844 0.94296 0.97792 0.0
H1964 H 0.70835 0.96954 0.81577 0.0
H1965 H 0.66946 0.89655 0.94427 0.0
H1966 H 0.69582 0.9548 0.92539 0.0
H1967 H 0.69966 0.91676 0.85242 0.0
C1968 C 0.70618 0.93345 0.80895 0.0
C1969 C 0.7082 0.94817 0.79747 0.0
C1970 C 0.69036 0.94207 0.92997 0.0
C1971 C 0.69946 0.93822 0.86891 0.0
C1972 C 0.68059 0.93534 0.96023 0.0
C1973 C 0.67241 0.91874 0.96534 0.0
C1974 C 0.69202 0.93211 0.90481 0.0
C1975 C 0.67547 0.9094 0.94121 0.0
C1976 C 0.70181 0.92844 0.84455 0.0
C1977 C 0.70672 0.95801 0.82324 0.0
N1978 N 0.68484 0.91617 0.9118 0.0
N1979 N 0.70227 0.95279 0.85756 0.0
H1980 H 0.1182 0.7814 0.77942 0.0
H1981 H 0.06729 0.70811 0.90761 0.0
H1982 H 0.07535 0.73958 0.74338 0.0
H1983 H 0.11702 0.74191 0.92719 0.0
H1984 H 0.07029 0.71858 0.84645 0.0
H1985 H 0.11866 0.76655 0.83215 0.0
C1986 C 0.1091 0.76895 0.78217 0.0
C1987 C 0.09677 0.7617 0.75685 0.0
C1988 C 0.08062 0.72352 0.8639 0.0
C1989 C 0.09688 0.74473 0.81792 0.0
C1990 C 0.07892 0.71755 0.89888 0.0
C1991 C 0.0919 0.72417 0.92275 0.0
C1992 C 0.09534 0.73644 0.85278 0.0
C1993 C 0.10668 0.73641 0.90982 0.0
C1994 C 0.10933 0.76048 0.81238 0.0
C1995 C 0.08518 0.74557 0.76199 0.0
N1996 N 0.10792 0.74231 0.87599 0.0
N1997 N 0.08534 0.73773 0.79227 0.0
H1998 H 0.24155 0.32468 0.76679 0.0
H1999 H 0.29145 0.34445 0.95029 0.0
H2000 H 0.28105 0.31636 0.78138 0.0
H2001 H 0.25915 0.36174 0.92599 0.0
H2002 H 0.2861 0.33184 0.89089 0.0
H2003 H 0.24567 0.33542 0.82791 0.0
C2004 C 0.25092 0.32486 0.78298 0.0
C2005 C 0.26098 0.31961 0.76875 0.0
C2006 C 0.28022 0.33842 0.89854 0.0
C2007 C 0.26588 0.3321 0.83884 0.0
C2008 C 0.2833 0.34567 0.93246 0.0
C2009 C 0.27582 0.35427 0.94324 0.0
C2010 C 0.26944 0.33961 0.87523 0.0
C2011 C 0.26529 0.35534 0.9189 0.0
C2012 C 0.25336 0.33114 0.81783 0.0
C2013 C 0.27301 0.32029 0.79109 0.0
N2014 N 0.26239 0.34807 0.88622 0.0
N2015 N 0.27515 0.32646 0.82487 0.0
H2016 H 0.03917 0.44389 0.44608 0.0
H2017 H 0.00953 0.40238 0.63954 0.0
H2018 H 0.03773 0.40007 0.47553 0.0
H2019 H 0.9993 0.43764 0.59671 0.0
H2020 H 0.02536 0.40511 0.58538 0.0
H2021 H 0.03013 0.44544 0.5067 0.0
C2022 C 0.03723 0.43473 0.46541 0.0
C2023 C 0.03912 0.42176 0.45542 0.0
C2024 C 0.01985 0.41243 0.58814 0.0
C2025 C 0.02864 0.42343 0.52514 0.0
C2026 C 0.0109 0.41094 0.61919 0.0
C2027 C 1.00291 0.41964 0.62256 0.0
C2028 C 0.02104 0.42291 0.56053 0.0
C2029 C 1.00512 0.43058 0.59519 0.0
C2030 C 0.03198 0.43558 0.50004 0.0
C2031 C 0.03635 0.41024 0.48184 0.0
N2032 N 0.01386 0.43183 0.56538 0.0
N2033 N 0.03116 0.41128 0.51531 0.0
H2034 H 0.57408 0.56456 0.59371 0.0
H2035 H 0.62433 0.63087 0.44494 0.0
H2036 H 0.62329 0.60096 0.60978 0.0
H2037 H 0.57345 0.5985 0.43936 0.0
H2038 H 0.6247 0.61997 0.50407 0.0
H2039 H 0.57437 0.57626 0.53579 0.0
C2040 C 0.58504 0.57499 0.58501 0.0
C2041 C 0.5987 0.58176 0.60692 0.0
C2042 C 0.61345 0.61533 0.49002 0.0
C2043 C 0.59904 0.5954 0.53993 0.0
C2044 C 0.61319 0.62157 0.45623 0.0
C2045 C 0.59882 0.61562 0.43698 0.0
C2046 C 0.59924 0.60291 0.50471 0.0
C2047 C 0.58481 0.60353 0.45311 0.0
C2048 C 0.58515 0.58172 0.55182 0.0
C2049 C 0.6125 0.59528 0.59385 0.0
N2050 N 0.5854 0.59754 0.48582 0.0
N2051 N 0.61231 0.60167 0.56123 0.0
H2052 H 0.41412 0.01379 0.62214 0.0
H2053 H 0.42299 0.95959 0.47083 0.0
H2054 H 0.45777 0.01301 0.60402 0.0
H2055 H 0.3927 0.9801 0.45729 0.0
H2056 H 0.43148 0.97295 0.52928 0.0
H2057 H 0.40181 0.99513 0.57158 0.0
C2058 C 0.42093 0.00926 0.60834 0.0
C2059 C 0.43695 0.01481 0.6175 0.0
C2060 C 0.42282 0.97435 0.51368 0.0
C2061 C 0.42301 0.99362 0.55961 0.0
C2062 C 0.41789 0.96666 0.48037 0.0
C2063 C 0.40715 0.96877 0.45892 0.0
C2064 C 0.41675 0.98399 0.52611 0.0
C2065 C 0.40106 0.9782 0.47276 0.0
C2066 C 0.41397 0.9988 0.57922 0.0
C2067 C 0.44536 0.00892 0.598 0.0
N2068 N 0.40594 0.98546 0.50542 0.0
N2069 N 0.43831 0.99867 0.57005 0.0
H2070 H 0.5898 1.00161 0.42694 0.0
H2071 H 0.59892 0.01003 0.64126 0.0
H2072 H 0.57695 0.96135 0.49679 0.0
H2073 H 0.60063 0.0464 0.57124 0.0
H2074 H 0.59148 0.99193 0.58929 0.0
H2075 H 0.59521 0.01854 0.48004 0.0
C2076 C 0.58816 0.99634 0.45339 0.0
C2077 C 0.58289 0.98004 0.45735 0.0
C2078 C 0.59336 1.00385 0.5855 0.0
C2079 C 0.58905 0.99933 0.51836 0.0
C2080 C 0.59751 0.01413 0.61519 0.0
C2081 C 0.6005 0.02979 0.61064 0.0
C2082 C 0.59232 0.00934 0.55111 0.0
C2083 C 0.5986 0.03449 0.57611 0.0
C2084 C 0.59117 0.00598 0.48375 0.0
C2085 C 0.58094 0.97386 0.4924 0.0
N2086 N 0.59478 0.0244 0.54777 0.0
N2087 N 0.58406 0.9835 0.5215 0.0
H2088 H 0.98324 0.59834 0.59429 0.0
H2089 H 0.99614 0.55548 0.42838 0.0
H2090 H 0.95668 0.5471 0.58265 0.0
H2091 H 1.00431 0.6034 0.4199 0.0
H2092 H 0.98149 0.55202 0.48463 0.0
H2093 H 0.99127 0.60071 0.53096 0.0
C2094 C 0.97894 0.58759 0.57835 0.0
C2095 C 0.9693 0.57249 0.59397 0.0
C2096 C 0.98614 0.56317 0.47009 0.0
C2097 C 0.97869 0.57512 0.5215 0.0
C2098 C 0.99441 0.5651 0.43787 0.0
C2099 C 1.00118 0.57963 0.41916 0.0
C2100 C 0.98509 0.57606 0.48446 0.0
C2101 C 0.99895 0.59188 0.4331 0.0
C2102 C 0.9835 0.58896 0.54214 0.0
C2103 C 0.96409 0.55899 0.57186 0.0
N2104 N 0.99137 0.58993 0.46527 0.0
N2105 N 0.96905 0.56061 0.53701 0.0
H2106 H 0.40773 0.44757 0.48339 0.0
H2107 H 0.44715 0.39901 0.56282 0.0
H2108 H 0.42351 0.42148 0.41689 0.0
H2109 H 0.41976 0.41356 0.62849 0.0
H2110 H 0.44034 0.40897 0.5099 0.0
H2111 H 0.41382 0.43711 0.53682 0.0
C2112 C 0.41256 0.43968 0.47992 0.0
C2113 C 0.41517 0.43546 0.44538 0.0
C2114 C 0.43578 0.40999 0.53579 0.0
C2115 C 0.42218 0.42341 0.50698 0.0
C2116 C 0.43971 0.40437 0.56626 0.0
C2117 C 0.43408 0.4055 0.60044 0.0
C2118 C 0.42623 0.41702 0.53919 0.0
C2119 C 0.42439 0.41245 0.60278 0.0
C2120 C 0.41594 0.43365 0.51059 0.0
C2121 C 0.42134 0.4251 0.44286 0.0
N2122 N 0.42084 0.41804 0.57256 0.0
N2123 N 0.4247 0.4195 0.47325 0.0
loop_
_geom_bond_atom_site_label_1
_geom_bond_atom_site_label_2
_geom_bond_distance
_geom_bond_site_symmetry_2
_ccdc_geom_bond_type
Cu0 N1 1.999 . S
Cu0 O6 1.974 . S
Cu0 N11 1.985 . S
Cu0 O20 1.959 1_554 S
N1 Cu0 1.999 . S
N1 C3 1.263 . S
N1 C5 1.389 1_554 S
N2 C3 1.358 . S
N2 C4 1.400 1_554 S
C3 N1 1.263 . S
C3 N2 1.358 . S
C3 H9 0.930 . S
C4 N2 1.400 1_556 S
C4 C5 1.351 . S
C4 H21 0.930 . S
C5 N1 1.389 1_556 S
C5 C4 1.351 . S
C5 H10 0.930 . S
O6 Cu0 1.974 . S
O6 C16 1.282 . S
C7 O8 1.261 . S
C7 O20 1.251 . S
O8 C7 1.261 . S
H9 C3 0.930 . S
H10 C5 0.930 . S
N11 Cu0 1.985 . S
N11 C13 1.335 1_554 S
N11 C14 1.390 . S
N12 C13 1.342 1_554 S
N12 C15 1.344 . S
C13 N11 1.335 1_556 S
C13 N12 1.342 1_556 S
C13 H18 0.930 . S
C14 N11 1.390 . S
C14 C15 1.346 . S
C14 H19 0.930 . S
C15 N12 1.344 . S
C15 C14 1.346 . S
C15 H22 0.929 . S
C16 O6 1.282 . S
C16 O17 1.216 . S
O17 C16 1.216 . S
H18 C13 0.930 . S
H19 C14 0.930 . S
O20 Cu0 1.959 1_556 S
O20 C7 1.251 . S
H21 C4 0.930 . S
H22 C15 0.929 . S
Cu23 N24 1.999 . S
Cu23 O29 1.974 . S
Cu23 N34 1.985 . S
Cu23 O43 1.959 1_554 S
N24 Cu23 1.999 . S
N24 C26 1.263 . S
N24 C28 1.389 1_554 S
N25 C26 1.358 . S
N25 C27 1.400 1_554 S
C26 N24 1.263 . S
C26 N25 1.358 . S
C26 H32 0.930 . S
C27 N25 1.400 1_556 S
C27 C28 1.351 . S
C27 H44 0.930 . S
C28 N24 1.389 1_556 S
C28 C27 1.351 . S
C28 H33 0.930 . S
O29 Cu23 1.974 . S
O29 C39 1.282 . S
C30 O31 1.261 . S
C30 O43 1.251 . S
O31 C30 1.261 . S
H32 C26 0.930 . S
H33 C28 0.930 . S
N34 Cu23 1.985 . S
N34 C36 1.335 1_554 S
N34 C37 1.390 . S
N35 C36 1.342 1_554 S
N35 C38 1.344 . S
C36 N34 1.335 1_556 S
C36 N35 1.342 1_556 S
C36 H41 0.930 . S
C37 N34 1.390 . S
C37 C38 1.346 . S
C37 H42 0.930 . S
C38 N35 1.344 . S
C38 C37 1.346 . S
C38 H45 0.929 . S
C39 O29 1.282 . S
C39 O40 1.216 . S
O40 C39 1.216 . S
H41 C36 0.930 . S
H42 C37 0.930 . S
O43 Cu23 1.959 1_556 S
O43 C30 1.251 . S
H44 C27 0.930 . S
H45 C38 0.929 . S
Cu46 N47 1.999 . S
Cu46 O52 1.974 . S
Cu46 N57 1.985 . S
Cu46 O66 1.959 1_554 S
N47 Cu46 1.999 . S
N47 C49 1.263 . S
N47 C51 1.389 1_554 S
N48 C49 1.358 . S
N48 C50 1.400 1_554 S
C49 N47 1.263 . S
C49 N48 1.358 . S
C49 H55 0.930 . S
C50 N48 1.400 1_556 S
C50 C51 1.351 . S
C50 H67 0.930 . S
C51 N47 1.389 1_556 S
C51 C50 1.351 . S
C51 H56 0.930 . S
O52 Cu46 1.974 . S
O52 C62 1.282 . S
C53 O54 1.261 . S
C53 O66 1.251 . S
O54 C53 1.261 . S
H55 C49 0.930 . S
H56 C51 0.930 . S
N57 Cu46 1.985 . S
N57 C59 1.335 1_554 S
N57 C60 1.390 . S
N58 C59 1.342 1_554 S
N58 C61 1.344 . S
C59 N57 1.335 1_556 S
C59 N58 1.342 1_556 S
C59 H64 0.930 . S
C60 N57 1.390 . S
C60 C61 1.346 . S
C60 H65 0.930 . S
C61 N58 1.344 . S
C61 C60 1.346 . S
C61 H68 0.929 . S
C62 O52 1.282 . S
C62 O63 1.216 . S
O63 C62 1.216 . S
H64 C59 0.930 . S
H65 C60 0.930 . S
O66 Cu46 1.959 1_556 S
O66 C53 1.251 . S
H67 C50 0.930 . S
H68 C61 0.929 . S
Cu69 N70 1.999 . S
Cu69 O75 1.974 . S
Cu69 N80 1.985 . S
Cu69 O89 1.959 1_556 S
N70 Cu69 1.999 . S
N70 C72 1.263 . S
N70 C74 1.389 1_556 S
N71 C72 1.358 . S
N71 C73 1.400 1_556 S
C72 N70 1.263 . S
C72 N71 1.358 . S
C72 H78 0.930 . S
C73 N71 1.400 1_554 S
C73 C74 1.351 . S
C73 H90 0.930 . S
C74 N70 1.389 1_554 S
C74 C73 1.351 . S
C74 H79 0.930 . S
O75 Cu69 1.974 . S
O75 C85 1.282 . S
C76 O77 1.261 . S
C76 O89 1.251 . S
O77 C76 1.261 . S
H78 C72 0.930 . S
H79 C74 0.930 . S
N80 Cu69 1.985 . S
N80 C82 1.335 1_556 S
N80 C83 1.390 . S
N81 C82 1.342 1_556 S
N81 C84 1.344 . S
C82 N80 1.335 1_554 S
C82 N81 1.342 1_554 S
C82 H87 0.930 . S
C83 N80 1.390 . S
C83 C84 1.346 . S
C83 H88 0.930 . S
C84 N81 1.344 . S
C84 C83 1.346 . S
C84 H91 0.929 . S
C85 O75 1.282 . S
C85 O86 1.216 . S
O86 C85 1.216 . S
H87 C82 0.930 . S
H88 C83 0.930 . S
O89 Cu69 1.959 1_554 S
O89 C76 1.251 . S
H90 C73 0.930 . S
H91 C84 0.929 . S
Cu92 N93 1.999 . S
Cu92 O98 1.974 . S
Cu92 N103 1.985 . S
Cu92 O112 1.959 1_556 S
N93 Cu92 1.999 . S
N93 C95 1.263 . S
N93 C97 1.389 1_556 S
N94 C95 1.358 . S
N94 C96 1.400 1_556 S
C95 N93 1.263 . S
C95 N94 1.358 . S
C95 H101 0.930 . S
C96 N94 1.400 1_554 S
C96 C97 1.351 . S
C96 H113 0.930 . S
C97 N93 1.389 1_554 S
C97 C96 1.351 . S
C97 H102 0.930 . S
O98 Cu92 1.974 . S
O98 C108 1.282 . S
C99 O100 1.261 . S
C99 O112 1.251 . S
O100 C99 1.261 . S
H101 C95 0.930 . S
H102 C97 0.930 . S
N103 Cu92 1.985 . S
N103 C105 1.335 1_556 S
N103 C106 1.390 . S
N104 C105 1.342 1_556 S
N104 C107 1.344 . S
C105 N103 1.335 1_554 S
C105 N104 1.342 1_554 S
C105 H110 0.930 . S
C106 N103 1.390 . S
C106 C107 1.346 . S
C106 H111 0.930 . S
C107 N104 1.344 . S
C107 C106 1.346 . S
C107 H114 0.929 . S
C108 O98 1.282 . S
C108 O109 1.216 . S
O109 C108 1.216 . S
H110 C105 0.930 . S
H111 C106 0.930 . S
O112 Cu92 1.959 1_554 S
O112 C99 1.251 . S
H113 C96 0.930 . S
H114 C107 0.929 . S
Cu115 N116 1.999 . S
Cu115 O121 1.974 . S
Cu115 N126 1.985 . S
Cu115 O135 1.959 1_556 S
N116 Cu115 1.999 . S
N116 C118 1.263 . S
N116 C120 1.389 1_556 S
N117 C118 1.358 . S
N117 C119 1.400 1_556 S
C118 N116 1.263 . S
C118 N117 1.358 . S
C118 H124 0.930 . S
C119 N117 1.400 1_554 S
C119 C120 1.351 . S
C119 H136 0.930 . S
C120 N116 1.389 1_554 S
C120 C119 1.351 . S
C120 H125 0.930 . S
O121 Cu115 1.974 . S
O121 C131 1.282 . S
C122 O123 1.261 . S
C122 O135 1.251 . S
O123 C122 1.261 . S
H124 C118 0.930 . S
H125 C120 0.930 . S
N126 Cu115 1.985 . S
N126 C128 1.335 1_556 S
N126 C129 1.390 . S
N127 C128 1.342 1_556 S
N127 C130 1.344 . S
C128 N126 1.335 1_554 S
C128 N127 1.342 1_554 S
C128 H133 0.930 . S
C129 N126 1.390 . S
C129 C130 1.346 . S
C129 H134 0.930 . S
C130 N127 1.344 . S
C130 C129 1.346 . S
C130 H137 0.929 . S
C131 O121 1.282 . S
C131 O132 1.216 . S
O132 C131 1.216 . S
H133 C128 0.930 . S
H134 C129 0.930 . S
O135 Cu115 1.959 1_554 S
O135 C122 1.251 . S
H136 C119 0.930 . S
H137 C130 0.929 . S
Cu138 N139 1.999 . S
Cu138 O144 1.974 . S
Cu138 N149 1.985 . S
Cu138 O158 1.959 1_556 S
N139 Cu138 1.999 . S
N139 C141 1.263 . S
N139 C143 1.389 1_556 S
N140 C141 1.358 . S
N140 C142 1.400 1_556 S
C141 N139 1.263 . S
C141 N140 1.358 . S
C141 H147 0.930 . S
C142 N140 1.400 1_554 S
C142 C143 1.351 . S
C142 H159 0.930 . S
C143 N139 1.389 1_554 S
C143 C142 1.351 . S
C143 H148 0.930 . S
O144 Cu138 1.974 . S
O144 C154 1.282 . S
C145 O146 1.261 . S
C145 O158 1.251 . S
O146 C145 1.261 . S
H147 C141 0.930 . S
H148 C143 0.930 . S
N149 Cu138 1.985 . S
N149 C151 1.335 1_556 S
N149 C152 1.390 . S
N150 C151 1.342 1_556 S
N150 C153 1.344 . S
C151 N149 1.335 1_554 S
C151 N150 1.342 1_554 S
C151 H156 0.930 . S
C152 N149 1.390 . S
C152 C153 1.346 . S
C152 H157 0.930 . S
C153 N150 1.344 . S
C153 C152 1.346 . S
C153 H160 0.929 . S
C154 O144 1.282 . S
C154 O155 1.216 . S
O155 C154 1.216 . S
H156 C151 0.930 . S
H157 C152 0.930 . S
O158 Cu138 1.959 1_554 S
O158 C145 1.251 . S
H159 C142 0.930 . S
H160 C153 0.929 . S
Cu161 N162 1.999 . S
Cu161 O167 1.974 . S
Cu161 N172 1.985 . S
Cu161 O181 1.959 1_556 S
N162 Cu161 1.999 . S
N162 C164 1.263 . S
N162 C166 1.389 1_556 S
N163 C164 1.358 . S
N163 C165 1.400 1_556 S
C164 N162 1.263 . S
C164 N163 1.358 . S
C164 H170 0.930 . S
C165 N163 1.400 1_554 S
C165 C166 1.351 . S
C165 H182 0.930 . S
C166 N162 1.389 1_554 S
C166 C165 1.351 . S
C166 H171 0.930 . S
O167 Cu161 1.974 . S
O167 C177 1.282 . S
C168 O169 1.261 . S
C168 O181 1.251 . S
O169 C168 1.261 . S
H170 C164 0.930 . S
H171 C166 0.930 . S
N172 Cu161 1.985 . S
N172 C174 1.335 1_556 S
N172 C175 1.390 . S
N173 C174 1.342 1_556 S
N173 C176 1.344 . S
C174 N172 1.335 1_554 S
C174 N173 1.342 1_554 S
C174 H179 0.930 . S
C175 N172 1.390 . S
C175 C176 1.346 . S
C175 H180 0.930 . S
C176 N173 1.344 . S
C176 C175 1.346 . S
C176 H183 0.929 . S
C177 O167 1.282 . S
C177 O178 1.216 . S
O178 C177 1.216 . S
H179 C174 0.930 . S
H180 C175 0.930 . S
O181 Cu161 1.959 1_554 S
O181 C168 1.251 . S
H182 C165 0.930 . S
H183 C176 0.929 . S
Cu184 N185 1.999 . S
Cu184 O190 1.974 . S
Cu184 N195 1.985 . S
Cu184 O204 1.959 1_556 S
N185 Cu184 1.999 . S
N185 C187 1.263 . S
N185 C189 1.389 1_556 S
N186 C187 1.358 . S
N186 C188 1.400 1_556 S
C187 N185 1.263 . S
C187 N186 1.358 . S
C187 H193 0.930 . S
C188 N186 1.400 1_554 S
C188 C189 1.351 . S
C188 H205 0.930 . S
C189 N185 1.389 1_554 S
C189 C188 1.351 . S
C189 H194 0.930 . S
O190 Cu184 1.974 . S
O190 C200 1.282 . S
C191 O192 1.261 . S
C191 O204 1.251 . S
O192 C191 1.261 . S
H193 C187 0.930 . S
H194 C189 0.930 . S
N195 Cu184 1.985 . S
N195 C197 1.335 1_556 S
N195 C198 1.390 . S
N196 C197 1.342 1_556 S
N196 C199 1.344 . S
C197 N195 1.335 1_554 S
C197 N196 1.342 1_554 S
C197 H202 0.930 . S
C198 N195 1.390 . S
C198 C199 1.346 . S
C198 H203 0.930 . S
C199 N196 1.344 . S
C199 C198 1.346 . S
C199 H206 0.929 . S
C200 O190 1.282 . S
C200 O201 1.216 . S
O201 C200 1.216 . S
H202 C197 0.930 . S
H203 C198 0.930 . S
O204 Cu184 1.959 1_554 S
O204 C191 1.251 . S
H205 C188 0.930 . S
H206 C199 0.929 . S
Cu207 N208 1.999 . S
Cu207 O213 1.974 . S
Cu207 N218 1.985 . S
Cu207 O227 1.959 1_554 S
N208 Cu207 1.999 . S
N208 C210 1.263 . S
N208 C212 1.389 1_554 S
N209 C210 1.358 . S
N209 C211 1.400 1_554 S
C210 N208 1.263 . S
C210 N209 1.358 . S
C210 H216 0.930 . S
C211 N209 1.400 1_556 S
C211 C212 1.351 . S
C211 H228 0.930 . S
C212 N208 1.389 1_556 S
C212 C211 1.351 . S
C212 H217 0.930 . S
O213 Cu207 1.974 . S
O213 C223 1.282 . S
C214 O215 1.261 . S
C214 O227 1.251 . S
O215 C214 1.261 . S
H216 C210 0.930 . S
H217 C212 0.930 . S
N218 Cu207 1.985 . S
N218 C220 1.335 1_554 S
N218 C221 1.390 . S
N219 C220 1.342 1_554 S
N219 C222 1.344 . S
C220 N218 1.335 1_556 S
C220 N219 1.342 1_556 S
C220 H225 0.930 . S
C221 N218 1.390 . S
C221 C222 1.346 . S
C221 H226 0.930 . S
C222 N219 1.344 . S
C222 C221 1.346 . S
C222 H229 0.929 . S
C223 O213 1.282 . S
C223 O224 1.216 . S
O224 C223 1.216 . S
H225 C220 0.930 . S
H226 C221 0.930 . S
O227 Cu207 1.959 1_556 S
O227 C214 1.251 . S
H228 C211 0.930 . S
H229 C222 0.929 . S
Cu230 N231 1.999 . S
Cu230 O236 1.974 . S
Cu230 N241 1.985 . S
Cu230 O250 1.959 1_554 S
N231 Cu230 1.999 . S
N231 C233 1.263 . S
N231 C235 1.389 1_554 S
N232 C233 1.358 . S
N232 C234 1.400 1_554 S
C233 N231 1.263 . S
C233 N232 1.358 . S
C233 H239 0.930 . S
C234 N232 1.400 1_556 S
C234 C235 1.351 . S
C234 H251 0.930 . S
C235 N231 1.389 1_556 S
C235 C234 1.351 . S
C235 H240 0.930 . S
O236 Cu230 1.974 . S
O236 C246 1.282 . S
C237 O238 1.261 . S
C237 O250 1.251 . S
O238 C237 1.261 . S
H239 C233 0.930 . S
H240 C235 0.930 . S
N241 Cu230 1.985 . S
N241 C243 1.335 1_554 S
N241 C244 1.390 . S
N242 C243 1.342 1_554 S
N242 C245 1.344 . S
C243 N241 1.335 1_556 S
C243 N242 1.342 1_556 S
C243 H248 0.930 . S
C244 N241 1.390 . S
C244 C245 1.346 . S
C244 H249 0.930 . S
C245 N242 1.344 . S
C245 C244 1.346 . S
C245 H252 0.929 . S
C246 O236 1.282 . S
C246 O247 1.216 . S
O247 C246 1.216 . S
H248 C243 0.930 . S
H249 C244 0.930 . S
O250 Cu230 1.959 1_556 S
O250 C237 1.251 . S
H251 C234 0.930 . S
H252 C245 0.929 . S
Cu253 N254 1.999 . S
Cu253 O259 1.974 . S
Cu253 N264 1.985 . S
Cu253 O273 1.959 1_554 S
N254 Cu253 1.999 . S
N254 C256 1.263 . S
N254 C258 1.389 1_554 S
N255 C256 1.358 . S
N255 C257 1.400 1_554 S
C256 N254 1.263 . S
C256 N255 1.358 . S
C256 H262 0.930 . S
C257 N255 1.400 1_556 S
C257 C258 1.351 . S
C257 H274 0.930 . S
C258 N254 1.389 1_556 S
C258 C257 1.351 . S
C258 H263 0.930 . S
O259 Cu253 1.974 . S
O259 C269 1.282 . S
C260 O261 1.261 . S
C260 O273 1.251 . S
O261 C260 1.261 . S
H262 C256 0.930 . S
H263 C258 0.930 . S
N264 Cu253 1.985 . S
N264 C266 1.335 1_554 S
N264 C267 1.390 . S
N265 C266 1.342 1_554 S
N265 C268 1.344 . S
C266 N264 1.335 1_556 S
C266 N265 1.342 1_556 S
C266 H271 0.930 . S
C267 N264 1.390 . S
C267 C268 1.346 . S
C267 H272 0.930 . S
C268 N265 1.344 . S
C268 C267 1.346 . S
C268 H275 0.929 . S
C269 O259 1.282 . S
C269 O270 1.216 . S
O270 C269 1.216 . S
H271 C266 0.930 . S
H272 C267 0.930 . S
O273 Cu253 1.959 1_556 S
O273 C260 1.251 . S
H274 C257 0.930 . S
H275 C268 0.929 . S
Cu276 N277 1.999 . S
Cu276 O282 1.974 . S
Cu276 N287 1.985 . S
Cu276 O296 1.959 . S
N277 Cu276 1.999 . S
N277 C279 1.263 . S
N277 C281 1.389 . S
N278 C279 1.358 . S
N278 C280 1.400 . S
C279 N277 1.263 . S
C279 N278 1.358 . S
C279 H285 0.930 . S
C280 N278 1.400 . S
C280 C281 1.351 . S
C280 H297 0.930 . S
C281 N277 1.389 . S
C281 C280 1.351 . S
C281 H286 0.930 . S
O282 Cu276 1.974 . S
O282 C292 1.282 . S
C283 O284 1.261 . S
C283 O296 1.251 . S
O284 C283 1.261 . S
H285 C279 0.930 . S
H286 C281 0.930 . S
N287 Cu276 1.985 . S
N287 C289 1.335 . S
N287 C290 1.390 . S
N288 C289 1.345 . S
N288 C291 1.336 . S
C289 N287 1.335 . S
C289 N288 1.345 . S
C289 H294 0.930 . S
C290 N287 1.390 . S
C290 C291 1.346 . S
C290 H295 0.930 . S
C291 N288 1.336 . S
C291 C290 1.346 . S
C291 H298 0.929 . S
C292 O282 1.282 . S
C292 O293 1.216 . S
O293 C292 1.216 . S
H294 C289 0.930 . S
H295 C290 0.930 . S
O296 Cu276 1.959 . S
O296 C283 1.251 . S
H297 C280 0.930 . S
H298 C291 0.929 . S
Cu299 N300 1.999 . S
Cu299 O305 1.974 . S
Cu299 N310 1.985 . S
Cu299 O319 1.959 . S
N300 Cu299 1.999 . S
N300 C302 1.263 . S
N300 C304 1.389 . S
N301 C302 1.358 . S
N301 C303 1.400 . S
C302 N300 1.263 . S
C302 N301 1.358 . S
C302 H308 0.930 . S
C303 N301 1.400 . S
C303 C304 1.351 . S
C303 H320 0.930 . S
C304 N300 1.389 . S
C304 C303 1.351 . S
C304 H309 0.930 . S
O305 Cu299 1.974 . S
O305 C315 1.282 . S
C306 O307 1.261 . S
C306 O319 1.251 . S
O307 C306 1.261 . S
H308 C302 0.930 . S
H309 C304 0.930 . S
N310 Cu299 1.985 . S
N310 C312 1.335 . S
N310 C313 1.390 . S
N311 C312 1.345 . S
N311 C314 1.336 . S
C312 N310 1.335 . S
C312 N311 1.345 . S
C312 H317 0.930 . S
C313 N310 1.390 . S
C313 C314 1.346 . S
C313 H318 0.930 . S
C314 N311 1.336 . S
C314 C313 1.346 . S
C314 H321 0.929 . S
C315 O305 1.282 . S
C315 O316 1.216 . S
O316 C315 1.216 . S
H317 C312 0.930 . S
H318 C313 0.930 . S
O319 Cu299 1.959 . S
O319 C306 1.251 . S
H320 C303 0.930 . S
H321 C314 0.929 . S
Cu322 N323 1.999 . S
Cu322 O328 1.974 . S
Cu322 N333 1.985 . S
Cu322 O342 1.959 . S
N323 Cu322 1.999 . S
N323 C325 1.263 . S
N323 C327 1.389 . S
N324 C325 1.358 . S
N324 C326 1.400 . S
C325 N323 1.263 . S
C325 N324 1.358 . S
C325 H331 0.930 . S
C326 N324 1.400 . S
C326 C327 1.351 . S
C326 H343 0.930 . S
C327 N323 1.389 . S
C327 C326 1.351 . S
C327 H332 0.930 . S
O328 Cu322 1.974 . S
O328 C338 1.282 . S
C329 O330 1.261 . S
C329 O342 1.251 . S
O330 C329 1.261 . S
H331 C325 0.930 . S
H332 C327 0.930 . S
N333 Cu322 1.985 . S
N333 C335 1.335 . S
N333 C336 1.390 . S
N334 C335 1.345 . S
N334 C337 1.336 . S
C335 N333 1.335 . S
C335 N334 1.345 . S
C335 H340 0.930 . S
C336 N333 1.390 . S
C336 C337 1.346 . S
C336 H341 0.930 . S
C337 N334 1.336 . S
C337 C336 1.346 . S
C337 H344 0.929 . S
C338 O328 1.282 . S
C338 O339 1.216 . S
O339 C338 1.216 . S
H340 C335 0.930 . S
H341 C336 0.930 . S
O342 Cu322 1.959 . S
O342 C329 1.251 . S
H343 C326 0.930 . S
H344 C337 0.929 . S
Cu345 N346 1.999 . S
Cu345 O351 1.974 . S
Cu345 N356 1.985 . S
Cu345 O365 1.959 . S
N346 Cu345 1.999 . S
N346 C348 1.263 . S
N346 C350 1.389 . S
N347 C348 1.358 . S
N347 C349 1.400 . S
C348 N346 1.263 . S
C348 N347 1.358 . S
C348 H354 0.930 . S
C349 N347 1.400 . S
C349 C350 1.351 . S
C349 H366 0.930 . S
C350 N346 1.389 . S
C350 C349 1.351 . S
C350 H355 0.930 . S
O351 Cu345 1.974 . S
O351 C361 1.282 . S
C352 O353 1.261 . S
C352 O365 1.251 . S
O353 C352 1.261 . S
H354 C348 0.930 . S
H355 C350 0.930 . S
N356 Cu345 1.985 . S
N356 C358 1.335 . S
N356 C359 1.390 . S
N357 C358 1.345 . S
N357 C360 1.336 . S
C358 N356 1.335 . S
C358 N357 1.345 . S
C358 H363 0.930 . S
C359 N356 1.390 . S
C359 C360 1.346 . S
C359 H364 0.930 . S
C360 N357 1.336 . S
C360 C359 1.346 . S
C360 H367 0.929 . S
C361 O351 1.282 . S
C361 O362 1.216 . S
O362 C361 1.216 . S
H363 C358 0.930 . S
H364 C359 0.930 . S
O365 Cu345 1.959 . S
O365 C352 1.251 . S
H366 C349 0.930 . S
H367 C360 0.929 . S
Cu368 N369 1.999 . S
Cu368 O374 1.974 . S
Cu368 N379 1.985 . S
Cu368 O388 1.959 . S
N369 Cu368 1.999 . S
N369 C371 1.263 . S
N369 C373 1.389 . S
N370 C371 1.358 . S
N370 C372 1.400 . S
C371 N369 1.263 . S
C371 N370 1.358 . S
C371 H377 0.930 . S
C372 N370 1.400 . S
C372 C373 1.351 . S
C372 H389 0.930 . S
C373 N369 1.389 . S
C373 C372 1.351 . S
C373 H378 0.930 . S
O374 Cu368 1.974 . S
O374 C384 1.282 . S
C375 O376 1.261 . S
C375 O388 1.251 . S
O376 C375 1.261 . S
H377 C371 0.930 . S
H378 C373 0.930 . S
N379 Cu368 1.985 . S
N379 C381 1.335 . S
N379 C382 1.390 . S
N380 C381 1.345 . S
N380 C383 1.336 . S
C381 N379 1.335 . S
C381 N380 1.345 . S
C381 H386 0.930 . S
C382 N379 1.390 . S
C382 C383 1.346 . S
C382 H387 0.930 . S
C383 N380 1.336 . S
C383 C382 1.346 . S
C383 H390 0.929 . S
C384 O374 1.282 . S
C384 O385 1.216 . S
O385 C384 1.216 . S
H386 C381 0.930 . S
H387 C382 0.930 . S
O388 Cu368 1.959 . S
O388 C375 1.251 . S
H389 C372 0.930 . S
H390 C383 0.929 . S
Cu391 N392 1.999 . S
Cu391 O397 1.974 . S
Cu391 N402 1.985 . S
Cu391 O411 1.959 . S
N392 Cu391 1.999 . S
N392 C394 1.263 . S
N392 C396 1.389 . S
N393 C394 1.358 . S
N393 C395 1.400 . S
C394 N392 1.263 . S
C394 N393 1.358 . S
C394 H400 0.930 . S
C395 N393 1.400 . S
C395 C396 1.351 . S
C395 H412 0.930 . S
C396 N392 1.389 . S
C396 C395 1.351 . S
C396 H401 0.930 . S
O397 Cu391 1.974 . S
O397 C407 1.282 . S
C398 O399 1.261 . S
C398 O411 1.251 . S
O399 C398 1.261 . S
H400 C394 0.930 . S
H401 C396 0.930 . S
N402 Cu391 1.985 . S
N402 C404 1.335 . S
N402 C405 1.390 . S
N403 C404 1.345 . S
N403 C406 1.336 . S
C404 N402 1.335 . S
C404 N403 1.345 . S
C404 H409 0.930 . S
C405 N402 1.390 . S
C405 C406 1.346 . S
C405 H410 0.930 . S
C406 N403 1.336 . S
C406 C405 1.346 . S
C406 H413 0.929 . S
C407 O397 1.282 . S
C407 O408 1.216 . S
O408 C407 1.216 . S
H409 C404 0.930 . S
H410 C405 0.930 . S
O411 Cu391 1.959 . S
O411 C398 1.251 . S
H412 C395 0.930 . S
H413 C406 0.929 . S
Cu414 N415 1.999 . S
Cu414 O420 1.974 . S
Cu414 N425 1.985 . S
Cu414 O434 1.959 . S
N415 Cu414 1.999 . S
N415 C417 1.263 . S
N415 C419 1.389 . S
N416 C417 1.358 . S
N416 C418 1.400 . S
C417 N415 1.263 . S
C417 N416 1.358 . S
C417 H423 0.930 . S
C418 N416 1.400 . S
C418 C419 1.351 . S
C418 H435 0.930 . S
C419 N415 1.389 . S
C419 C418 1.351 . S
C419 H424 0.930 . S
O420 Cu414 1.974 . S
O420 C430 1.282 . S
C421 O422 1.261 . S
C421 O434 1.251 . S
O422 C421 1.261 . S
H423 C417 0.930 . S
H424 C419 0.930 . S
N425 Cu414 1.985 . S
N425 C427 1.335 . S
N425 C428 1.390 . S
N426 C427 1.345 . S
N426 C429 1.336 . S
C427 N425 1.335 . S
C427 N426 1.345 . S
C427 H432 0.930 . S
C428 N425 1.390 . S
C428 C429 1.346 . S
C428 H433 0.930 . S
C429 N426 1.336 . S
C429 C428 1.346 . S
C429 H436 0.929 . S
C430 O420 1.282 . S
C430 O431 1.216 . S
O431 C430 1.216 . S
H432 C427 0.930 . S
H433 C428 0.930 . S
O434 Cu414 1.959 . S
O434 C421 1.251 . S
H435 C418 0.930 . S
H436 C429 0.929 . S
Cu437 N438 1.999 . S
Cu437 O443 1.974 . S
Cu437 N448 1.985 . S
Cu437 O457 1.959 . S
N438 Cu437 1.999 . S
N438 C440 1.263 . S
N438 C442 1.389 . S
N439 C440 1.358 . S
N439 C441 1.400 . S
C440 N438 1.263 . S
C440 N439 1.358 . S
C440 H446 0.930 . S
C441 N439 1.400 . S
C441 C442 1.351 . S
C441 H458 0.930 . S
C442 N438 1.389 . S
C442 C441 1.351 . S
C442 H447 0.930 . S
O443 Cu437 1.974 . S
O443 C453 1.282 . S
C444 O445 1.261 . S
C444 O457 1.251 . S
O445 C444 1.261 . S
H446 C440 0.930 . S
H447 C442 0.930 . S
N448 Cu437 1.985 . S
N448 C450 1.335 . S
N448 C451 1.390 . S
N449 C450 1.345 . S
N449 C452 1.336 . S
C450 N448 1.335 . S
C450 N449 1.345 . S
C450 H455 0.930 . S
C451 N448 1.390 . S
C451 C452 1.346 . S
C451 H456 0.930 . S
C452 N449 1.336 . S
C452 C451 1.346 . S
C452 H459 0.929 . S
C453 O443 1.282 . S
C453 O454 1.216 . S
O454 C453 1.216 . S
H455 C450 0.930 . S
H456 C451 0.930 . S
O457 Cu437 1.959 . S
O457 C444 1.251 . S
H458 C441 0.930 . S
H459 C452 0.929 . S
Cu460 N461 1.999 . S
Cu460 O466 1.974 . S
Cu460 N471 1.985 . S
Cu460 O480 1.959 . S
N461 Cu460 1.999 . S
N461 C463 1.263 . S
N461 C465 1.389 . S
N462 C463 1.358 . S
N462 C464 1.400 . S
C463 N461 1.263 . S
C463 N462 1.358 . S
C463 H469 0.930 . S
C464 N462 1.400 . S
C464 C465 1.351 . S
C464 H481 0.930 . S
C465 N461 1.389 . S
C465 C464 1.351 . S
C465 H470 0.930 . S
O466 Cu460 1.974 . S
O466 C476 1.282 . S
C467 O468 1.261 . S
C467 O480 1.251 . S
O468 C467 1.261 . S
H469 C463 0.930 . S
H470 C465 0.930 . S
N471 Cu460 1.985 . S
N471 C473 1.335 . S
N471 C474 1.390 . S
N472 C473 1.345 . S
N472 C475 1.336 . S
C473 N471 1.335 . S
C473 N472 1.345 . S
C473 H478 0.930 . S
C474 N471 1.390 . S
C474 C475 1.346 . S
C474 H479 0.930 . S
C475 N472 1.336 . S
C475 C474 1.346 . S
C475 H482 0.929 . S
C476 O466 1.282 . S
C476 O477 1.216 . S
O477 C476 1.216 . S
H478 C473 0.930 . S
H479 C474 0.930 . S
O480 Cu460 1.959 . S
O480 C467 1.251 . S
H481 C464 0.930 . S
H482 C475 0.929 . S
Cu483 N484 1.999 . S
Cu483 O489 1.974 . S
Cu483 N494 1.985 . S
Cu483 O503 1.959 . S
N484 Cu483 1.999 . S
N484 C486 1.263 . S
N484 C488 1.389 . S
N485 C486 1.358 . S
N485 C487 1.400 . S
C486 N484 1.263 . S
C486 N485 1.358 . S
C486 H492 0.930 . S
C487 N485 1.400 . S
C487 C488 1.351 . S
C487 H504 0.930 . S
C488 N484 1.389 . S
C488 C487 1.351 . S
C488 H493 0.930 . S
O489 Cu483 1.974 . S
O489 C499 1.282 . S
C490 O491 1.261 . S
C490 O503 1.251 . S
O491 C490 1.261 . S
H492 C486 0.930 . S
H493 C488 0.930 . S
N494 Cu483 1.985 . S
N494 C496 1.335 . S
N494 C497 1.390 . S
N495 C496 1.345 . S
N495 C498 1.336 . S
C496 N494 1.335 . S
C496 N495 1.345 . S
C496 H501 0.930 . S
C497 N494 1.390 . S
C497 C498 1.346 . S
C497 H502 0.930 . S
C498 N495 1.336 . S
C498 C497 1.346 . S
C498 H505 0.929 . S
C499 O489 1.282 . S
C499 O500 1.216 . S
O500 C499 1.216 . S
H501 C496 0.930 . S
H502 C497 0.930 . S
O503 Cu483 1.959 . S
O503 C490 1.251 . S
H504 C487 0.930 . S
H505 C498 0.929 . S
Cu506 N507 1.999 . S
Cu506 O512 1.974 . S
Cu506 N517 1.985 . S
Cu506 O526 1.959 . S
N507 Cu506 1.999 . S
N507 C509 1.263 . S
N507 C511 1.389 . S
N508 C509 1.358 . S
N508 C510 1.400 . S
C509 N507 1.263 . S
C509 N508 1.358 . S
C509 H515 0.930 . S
C510 N508 1.400 . S
C510 C511 1.351 . S
C510 H527 0.930 . S
C511 N507 1.389 . S
C511 C510 1.351 . S
C511 H516 0.930 . S
O512 Cu506 1.974 . S
O512 C522 1.282 . S
C513 O514 1.261 . S
C513 O526 1.251 . S
O514 C513 1.261 . S
H515 C509 0.930 . S
H516 C511 0.930 . S
N517 Cu506 1.985 . S
N517 C519 1.335 . S
N517 C520 1.390 . S
N518 C519 1.345 . S
N518 C521 1.336 . S
C519 N517 1.335 . S
C519 N518 1.345 . S
C519 H524 0.930 . S
C520 N517 1.390 . S
C520 C521 1.346 . S
C520 H525 0.930 . S
C521 N518 1.336 . S
C521 C520 1.346 . S
C521 H528 0.929 . S
C522 O512 1.282 . S
C522 O523 1.216 . S
O523 C522 1.216 . S
H524 C519 0.930 . S
H525 C520 0.930 . S
O526 Cu506 1.959 . S
O526 C513 1.251 . S
H527 C510 0.930 . S
H528 C521 0.929 . S
Cu529 N530 1.999 . S
Cu529 O535 1.974 . S
Cu529 N540 1.985 . S
Cu529 O549 1.959 . S
N530 Cu529 1.999 . S
N530 C532 1.263 . S
N530 C534 1.389 . S
N531 C532 1.358 . S
N531 C533 1.400 . S
C532 N530 1.263 . S
C532 N531 1.358 . S
C532 H538 0.930 . S
C533 N531 1.400 . S
C533 C534 1.351 . S
C533 H550 0.930 . S
C534 N530 1.389 . S
C534 C533 1.351 . S
C534 H539 0.930 . S
O535 Cu529 1.974 . S
O535 C545 1.282 . S
C536 O537 1.261 . S
C536 O549 1.251 . S
O537 C536 1.261 . S
H538 C532 0.930 . S
H539 C534 0.930 . S
N540 Cu529 1.985 . S
N540 C542 1.335 . S
N540 C543 1.390 . S
N541 C542 1.345 . S
N541 C544 1.336 . S
C542 N540 1.335 . S
C542 N541 1.345 . S
C542 H547 0.930 . S
C543 N540 1.390 . S
C543 C544 1.346 . S
C543 H548 0.930 . S
C544 N541 1.336 . S
C544 C543 1.346 . S
C544 H551 0.929 . S
C545 O535 1.282 . S
C545 O546 1.216 . S
O546 C545 1.216 . S
H547 C542 0.930 . S
H548 C543 0.930 . S
O549 Cu529 1.959 . S
O549 C536 1.251 . S
H550 C533 0.930 . S
H551 C544 0.929 . S
Cu552 N553 1.999 . S
Cu552 O558 1.974 . S
Cu552 N563 1.985 . S
Cu552 O572 1.959 . S
N553 Cu552 1.999 . S
N553 C555 1.263 . S
N553 C557 1.389 . S
N554 C555 1.358 . S
N554 C556 1.400 . S
C555 N553 1.263 . S
C555 N554 1.358 . S
C555 H561 0.930 . S
C556 N554 1.400 . S
C556 C557 1.351 . S
C556 H573 0.930 . S
C557 N553 1.389 . S
C557 C556 1.351 . S
C557 H562 0.930 . S
O558 Cu552 1.974 . S
O558 C568 1.282 . S
C559 O560 1.261 . S
C559 O572 1.251 . S
O560 C559 1.261 . S
H561 C555 0.930 . S
H562 C557 0.930 . S
N563 Cu552 1.985 . S
N563 C565 1.335 . S
N563 C566 1.390 . S
N564 C565 1.345 . S
N564 C567 1.336 . S
C565 N563 1.335 . S
C565 N564 1.345 . S
C565 H570 0.930 . S
C566 N563 1.390 . S
C566 C567 1.346 . S
C566 H571 0.930 . S
C567 N564 1.336 . S
C567 C566 1.346 . S
C567 H574 0.929 . S
C568 O558 1.282 . S
C568 O569 1.216 . S
O569 C568 1.216 . S
H570 C565 0.930 . S
H571 C566 0.930 . S
O572 Cu552 1.959 . S
O572 C559 1.251 . S
H573 C556 0.930 . S
H574 C567 0.929 . S
Cu575 N576 1.999 . S
Cu575 O581 1.974 . S
Cu575 N586 1.985 . S
Cu575 O595 1.959 . S
N576 Cu575 1.999 . S
N576 C578 1.263 . S
N576 C580 1.389 . S
N577 C578 1.358 . S
N577 C579 1.400 . S
C578 N576 1.263 . S
C578 N577 1.358 . S
C578 H584 0.930 . S
C579 N577 1.400 . S
C579 C580 1.351 . S
C579 H596 0.930 . S
C580 N576 1.389 . S
C580 C579 1.351 . S
C580 H585 0.930 . S
O581 Cu575 1.974 . S
O581 C591 1.282 . S
C582 O583 1.261 . S
C582 O595 1.251 . S
O583 C582 1.261 . S
H584 C578 0.930 . S
H585 C580 0.930 . S
N586 Cu575 1.985 . S
N586 C588 1.335 . S
N586 C589 1.390 . S
N587 C588 1.345 . S
N587 C590 1.336 . S
C588 N586 1.335 . S
C588 N587 1.345 . S
C588 H593 0.930 . S
C589 N586 1.390 . S
C589 C590 1.346 . S
C589 H594 0.930 . S
C590 N587 1.336 . S
C590 C589 1.346 . S
C590 H597 0.929 . S
C591 O581 1.282 . S
C591 O592 1.216 . S
O592 C591 1.216 . S
H593 C588 0.930 . S
H594 C589 0.930 . S
O595 Cu575 1.959 . S
O595 C582 1.251 . S
H596 C579 0.930 . S
H597 C590 0.929 . S
Cu598 N599 1.999 . S
Cu598 O604 1.974 . S
Cu598 N609 1.985 . S
Cu598 O618 1.959 . S
N599 Cu598 1.999 . S
N599 C601 1.263 . S
N599 C603 1.389 . S
N600 C601 1.358 . S
N600 C602 1.400 . S
C601 N599 1.263 . S
C601 N600 1.358 . S
C601 H607 0.930 . S
C602 N600 1.400 . S
C602 C603 1.351 . S
C602 H619 0.930 . S
C603 N599 1.389 . S
C603 C602 1.351 . S
C603 H608 0.930 . S
O604 Cu598 1.974 . S
O604 C614 1.282 . S
C605 O606 1.261 . S
C605 O618 1.251 . S
O606 C605 1.261 . S
H607 C601 0.930 . S
H608 C603 0.930 . S
N609 Cu598 1.985 . S
N609 C611 1.335 . S
N609 C612 1.390 . S
N610 C611 1.345 . S
N610 C613 1.336 . S
C611 N609 1.335 . S
C611 N610 1.345 . S
C611 H616 0.930 . S
C612 N609 1.390 . S
C612 C613 1.346 . S
C612 H617 0.930 . S
C613 N610 1.336 . S
C613 C612 1.346 . S
C613 H620 0.929 . S
C614 O604 1.282 . S
C614 O615 1.216 . S
O615 C614 1.216 . S
H616 C611 0.930 . S
H617 C612 0.930 . S
O618 Cu598 1.959 . S
O618 C605 1.251 . S
H619 C602 0.930 . S
H620 C613 0.929 . S
Cu621 N622 1.999 . S
Cu621 O627 1.974 . S
Cu621 N632 1.985 . S
Cu621 O641 1.959 . S
N622 Cu621 1.999 . S
N622 C624 1.263 . S
N622 C626 1.389 . S
N623 C624 1.358 . S
N623 C625 1.400 . S
C624 N622 1.263 . S
C624 N623 1.358 . S
C624 H630 0.930 . S
C625 N623 1.400 . S
C625 C626 1.351 . S
C625 H642 0.930 . S
C626 N622 1.389 . S
C626 C625 1.351 . S
C626 H631 0.930 . S
O627 Cu621 1.974 . S
O627 C637 1.282 . S
C628 O629 1.261 . S
C628 O641 1.251 . S
O629 C628 1.261 . S
H630 C624 0.930 . S
H631 C626 0.930 . S
N632 Cu621 1.985 . S
N632 C634 1.335 . S
N632 C635 1.390 . S
N633 C634 1.345 . S
N633 C636 1.336 . S
C634 N632 1.335 . S
C634 N633 1.345 . S
C634 H639 0.930 . S
C635 N632 1.390 . S
C635 C636 1.346 . S
C635 H640 0.930 . S
C636 N633 1.336 . S
C636 C635 1.346 . S
C636 H643 0.929 . S
C637 O627 1.282 . S
C637 O638 1.216 . S
O638 C637 1.216 . S
H639 C634 0.930 . S
H640 C635 0.930 . S
O641 Cu621 1.959 . S
O641 C628 1.251 . S
H642 C625 0.930 . S
H643 C636 0.929 . S
Cu644 N645 1.999 . S
Cu644 O650 1.974 . S
Cu644 N655 1.985 . S
Cu644 O664 1.959 . S
N645 Cu644 1.999 . S
N645 C647 1.263 . S
N645 C649 1.389 . S
N646 C647 1.358 . S
N646 C648 1.400 . S
C647 N645 1.263 . S
C647 N646 1.358 . S
C647 H653 0.930 . S
C648 N646 1.400 . S
C648 C649 1.351 . S
C648 H665 0.930 . S
C649 N645 1.389 . S
C649 C648 1.351 . S
C649 H654 0.930 . S
O650 Cu644 1.974 . S
O650 C660 1.282 . S
C651 O652 1.261 . S
C651 O664 1.251 . S
O652 C651 1.261 . S
H653 C647 0.930 . S
H654 C649 0.930 . S
N655 Cu644 1.985 . S
N655 C657 1.335 . S
N655 C658 1.390 . S
N656 C657 1.345 . S
N656 C659 1.336 . S
C657 N655 1.335 . S
C657 N656 1.345 . S
C657 H662 0.930 . S
C658 N655 1.390 . S
C658 C659 1.346 . S
C658 H663 0.930 . S
C659 N656 1.336 . S
C659 C658 1.346 . S
C659 H666 0.929 . S
C660 O650 1.282 . S
C660 O661 1.216 . S
O661 C660 1.216 . S
H662 C657 0.930 . S
H663 C658 0.930 . S
O664 Cu644 1.959 . S
O664 C651 1.251 . S
H665 C648 0.930 . S
H666 C659 0.929 . S
Cu667 N668 1.999 . S
Cu667 O673 1.974 . S
Cu667 N678 1.985 . S
Cu667 O687 1.959 . S
N668 Cu667 1.999 . S
N668 C670 1.263 . S
N668 C672 1.389 . S
N669 C670 1.358 . S
N669 C671 1.400 . S
C670 N668 1.263 . S
C670 N669 1.358 . S
C670 H676 0.930 . S
C671 N669 1.400 . S
C671 C672 1.351 . S
C671 H688 0.930 . S
C672 N668 1.389 . S
C672 C671 1.351 . S
C672 H677 0.930 . S
O673 Cu667 1.974 . S
O673 C683 1.282 . S
C674 O675 1.261 . S
C674 O687 1.251 . S
O675 C674 1.261 . S
H676 C670 0.930 . S
H677 C672 0.930 . S
N678 Cu667 1.985 . S
N678 C680 1.335 . S
N678 C681 1.390 . S
N679 C680 1.345 . S
N679 C682 1.336 . S
C680 N678 1.335 . S
C680 N679 1.345 . S
C680 H685 0.930 . S
C681 N678 1.390 . S
C681 C682 1.346 . S
C681 H686 0.930 . S
C682 N679 1.336 . S
C682 C681 1.346 . S
C682 H689 0.929 . S
C683 O673 1.282 . S
C683 O684 1.216 . S
O684 C683 1.216 . S
H685 C680 0.930 . S
H686 C681 0.930 . S
O687 Cu667 1.959 . S
O687 C674 1.251 . S
H688 C671 0.930 . S
H689 C682 0.929 . S
Cu690 N691 1.999 . S
Cu690 O696 1.974 . S
Cu690 N701 1.985 . S
Cu690 O710 1.959 . S
N691 Cu690 1.999 . S
N691 C693 1.263 . S
N691 C695 1.389 . S
N692 C693 1.358 . S
N692 C694 1.400 . S
C693 N691 1.263 . S
C693 N692 1.358 . S
C693 H699 0.930 . S
C694 N692 1.400 . S
C694 C695 1.351 . S
C694 H711 0.930 . S
C695 N691 1.389 . S
C695 C694 1.351 . S
C695 H700 0.930 . S
O696 Cu690 1.974 . S
O696 C706 1.282 . S
C697 O698 1.261 . S
C697 O710 1.251 . S
O698 C697 1.261 . S
H699 C693 0.930 . S
H700 C695 0.930 . S
N701 Cu690 1.985 . S
N701 C703 1.335 . S
N701 C704 1.390 . S
N702 C703 1.345 . S
N702 C705 1.336 . S
C703 N701 1.335 . S
C703 N702 1.345 . S
C703 H708 0.930 . S
C704 N701 1.390 . S
C704 C705 1.346 . S
C704 H709 0.930 . S
C705 N702 1.336 . S
C705 C704 1.346 . S
C705 H712 0.929 . S
C706 O696 1.282 . S
C706 O707 1.216 . S
O707 C706 1.216 . S
H708 C703 0.930 . S
H709 C704 0.930 . S
O710 Cu690 1.959 . S
O710 C697 1.251 . S
H711 C694 0.930 . S
H712 C705 0.929 . S
Cu713 N714 1.999 . S
Cu713 O719 1.974 . S
Cu713 N724 1.985 . S
Cu713 O733 1.959 . S
N714 Cu713 1.999 . S
N714 C716 1.263 . S
N714 C718 1.389 . S
N715 C716 1.358 . S
N715 C717 1.400 . S
C716 N714 1.263 . S
C716 N715 1.358 . S
C716 H722 0.930 . S
C717 N715 1.400 . S
C717 C718 1.351 . S
C717 H734 0.930 . S
C718 N714 1.389 . S
C718 C717 1.351 . S
C718 H723 0.930 . S
O719 Cu713 1.974 . S
O719 C729 1.282 . S
C720 O721 1.261 . S
C720 O733 1.251 . S
O721 C720 1.261 . S
H722 C716 0.930 . S
H723 C718 0.930 . S
N724 Cu713 1.985 . S
N724 C726 1.335 . S
N724 C727 1.390 . S
N725 C726 1.345 . S
N725 C728 1.336 . S
C726 N724 1.335 . S
C726 N725 1.345 . S
C726 H731 0.930 . S
C727 N724 1.390 . S
C727 C728 1.346 . S
C727 H732 0.930 . S
C728 N725 1.336 . S
C728 C727 1.346 . S
C728 H735 0.929 . S
C729 O719 1.282 . S
C729 O730 1.216 . S
O730 C729 1.216 . S
H731 C726 0.930 . S
H732 C727 0.930 . S
O733 Cu713 1.959 . S
O733 C720 1.251 . S
H734 C717 0.930 . S
H735 C728 0.929 . S
Cu736 N737 1.999 . S
Cu736 O742 1.974 . S
Cu736 N747 1.985 . S
Cu736 O756 1.959 . S
N737 Cu736 1.999 . S
N737 C739 1.263 . S
N737 C741 1.389 . S
N738 C739 1.358 . S
N738 C740 1.400 . S
C739 N737 1.263 . S
C739 N738 1.358 . S
C739 H745 0.930 . S
C740 N738 1.400 . S
C740 C741 1.351 . S
C740 H757 0.930 . S
C741 N737 1.389 . S
C741 C740 1.351 . S
C741 H746 0.930 . S
O742 Cu736 1.974 . S
O742 C752 1.282 . S
C743 O744 1.261 . S
C743 O756 1.251 . S
O744 C743 1.261 . S
H745 C739 0.930 . S
H746 C741 0.930 . S
N747 Cu736 1.985 . S
N747 C749 1.335 . S
N747 C750 1.390 . S
N748 C749 1.345 . S
N748 C751 1.336 . S
C749 N747 1.335 . S
C749 N748 1.345 . S
C749 H754 0.930 . S
C750 N747 1.390 . S
C750 C751 1.346 . S
C750 H755 0.930 . S
C751 N748 1.336 . S
C751 C750 1.346 . S
C751 H758 0.929 . S
C752 O742 1.282 . S
C752 O753 1.216 . S
O753 C752 1.216 . S
H754 C749 0.930 . S
H755 C750 0.930 . S
O756 Cu736 1.959 . S
O756 C743 1.251 . S
H757 C740 0.930 . S
H758 C751 0.929 . S
Cu759 N760 1.999 . S
Cu759 O765 1.974 . S
Cu759 N770 1.985 . S
Cu759 O779 1.959 . S
N760 Cu759 1.999 . S
N760 C762 1.263 . S
N760 C764 1.389 . S
N761 C762 1.358 . S
N761 C763 1.400 . S
C762 N760 1.263 . S
C762 N761 1.358 . S
C762 H768 0.930 . S
C763 N761 1.400 . S
C763 C764 1.351 . S
C763 H780 0.930 . S
C764 N760 1.389 . S
C764 C763 1.351 . S
C764 H769 0.930 . S
O765 Cu759 1.974 . S
O765 C775 1.282 . S
C766 O767 1.261 . S
C766 O779 1.251 . S
O767 C766 1.261 . S
H768 C762 0.930 . S
H769 C764 0.930 . S
N770 Cu759 1.985 . S
N770 C772 1.335 . S
N770 C773 1.390 . S
N771 C772 1.345 . S
N771 C774 1.336 . S
C772 N770 1.335 . S
C772 N771 1.345 . S
C772 H777 0.930 . S
C773 N770 1.390 . S
C773 C774 1.346 . S
C773 H778 0.930 . S
C774 N771 1.336 . S
C774 C773 1.346 . S
C774 H781 0.929 . S
C775 O765 1.282 . S
C775 O776 1.216 . S
O776 C775 1.216 . S
H777 C772 0.930 . S
H778 C773 0.930 . S
O779 Cu759 1.959 . S
O779 C766 1.251 . S
H780 C763 0.930 . S
H781 C774 0.929 . S
Cu782 N783 1.999 . S
Cu782 O788 1.974 . S
Cu782 N793 1.985 . S
Cu782 O802 1.959 . S
N783 Cu782 1.999 . S
N783 C785 1.263 . S
N783 C787 1.389 . S
N784 C785 1.358 . S
N784 C786 1.400 . S
C785 N783 1.263 . S
C785 N784 1.358 . S
C785 H791 0.930 . S
C786 N784 1.400 . S
C786 C787 1.351 . S
C786 H803 0.930 . S
C787 N783 1.389 . S
C787 C786 1.351 . S
C787 H792 0.930 . S
O788 Cu782 1.974 . S
O788 C798 1.282 . S
C789 O790 1.261 . S
C789 O802 1.251 . S
O790 C789 1.261 . S
H791 C785 0.930 . S
H792 C787 0.930 . S
N793 Cu782 1.985 . S
N793 C795 1.335 . S
N793 C796 1.390 . S
N794 C795 1.345 . S
N794 C797 1.336 . S
C795 N793 1.335 . S
C795 N794 1.345 . S
C795 H800 0.930 . S
C796 N793 1.390 . S
C796 C797 1.346 . S
C796 H801 0.930 . S
C797 N794 1.336 . S
C797 C796 1.346 . S
C797 H804 0.929 . S
C798 O788 1.282 . S
C798 O799 1.216 . S
O799 C798 1.216 . S
H800 C795 0.930 . S
H801 C796 0.930 . S
O802 Cu782 1.959 . S
O802 C789 1.251 . S
H803 C786 0.930 . S
H804 C797 0.929 . S
Cu805 N806 1.999 . S
Cu805 O811 1.974 . S
Cu805 N816 1.985 . S
Cu805 O825 1.959 . S
N806 Cu805 1.999 . S
N806 C808 1.263 . S
N806 C810 1.389 . S
N807 C808 1.358 . S
N807 C809 1.400 . S
C808 N806 1.263 . S
C808 N807 1.358 . S
C808 H814 0.930 . S
C809 N807 1.400 . S
C809 C810 1.351 . S
C809 H826 0.930 . S
C810 N806 1.389 . S
C810 C809 1.351 . S
C810 H815 0.930 . S
O811 Cu805 1.974 . S
O811 C821 1.282 . S
C812 O813 1.261 . S
C812 O825 1.251 . S
O813 C812 1.261 . S
H814 C808 0.930 . S
H815 C810 0.930 . S
N816 Cu805 1.985 . S
N816 C818 1.335 . S
N816 C819 1.390 . S
N817 C818 1.345 . S
N817 C820 1.336 . S
C818 N816 1.335 . S
C818 N817 1.345 . S
C818 H823 0.930 . S
C819 N816 1.390 . S
C819 C820 1.346 . S
C819 H824 0.930 . S
C820 N817 1.336 . S
C820 C819 1.346 . S
C820 H827 0.929 . S
C821 O811 1.282 . S
C821 O822 1.216 . S
O822 C821 1.216 . S
H823 C818 0.930 . S
H824 C819 0.930 . S
O825 Cu805 1.959 . S
O825 C812 1.251 . S
H826 C809 0.930 . S
H827 C820 0.929 . S
H828 C834 0.930 . S
H829 C838 0.930 . S
H830 C843 0.929 . S
H831 C841 0.929 . S
H832 C836 0.929 . S
H833 C842 0.929 . S
C834 H828 0.930 . S
C834 C835 1.367 . S
C834 C842 1.378 . S
C835 C834 1.367 . S
C835 C843 1.433 1_556 S
C836 H832 0.929 . S
C836 C838 1.378 . S
C836 C840 1.350 . S
C837 C840 1.463 1_656 S
C837 C842 1.350 . S
C837 N845 1.427 1_556 S
C838 H829 0.930 . S
C838 C836 1.378 . S
C838 C839 1.367 . S
C839 C838 1.367 . S
C839 C841 1.433 1_554 S
C840 C836 1.350 . S
C840 C837 1.463 1_454 S
C840 N844 1.427 1_554 S
C841 H831 0.929 . S
C841 C839 1.433 1_556 S
C841 N844 1.384 . S
C842 H833 0.929 . S
C842 C834 1.378 . S
C842 C837 1.350 . S
C843 H830 0.929 . S
C843 C835 1.433 1_554 S
C843 N845 1.384 . S
N844 C840 1.427 1_556 S
N844 C841 1.384 . S
N845 C837 1.427 1_554 S
N845 C843 1.384 . S
H846 C852 0.930 . S
H847 C856 0.930 . S
H848 C861 0.929 . S
H849 C859 0.929 . S
H850 C854 0.929 . S
H851 C860 0.929 . S
C852 H846 0.930 . S
C852 C853 1.367 . S
C852 C860 1.378 . S
C853 C852 1.367 . S
C853 C861 1.433 1_556 S
C854 H850 0.929 . S
C854 C856 1.378 . S
C854 C858 1.350 . S
C855 C858 1.463 1_556 S
C855 C860 1.350 . S
C855 N863 1.427 1_556 S
C856 H847 0.930 . S
C856 C854 1.378 . S
C856 C857 1.367 . S
C857 C856 1.367 . S
C857 C859 1.433 1_554 S
C858 C854 1.350 . S
C858 C855 1.463 1_554 S
C858 N862 1.427 1_554 S
C859 H849 0.929 . S
C859 C857 1.433 1_556 S
C859 N862 1.384 . S
C860 H851 0.929 . S
C860 C852 1.378 . S
C860 C855 1.350 . S
C861 H848 0.929 . S
C861 C853 1.433 1_554 S
C861 N863 1.384 . S
N862 C858 1.427 1_556 S
N862 C859 1.384 . S
N863 C855 1.427 1_554 S
N863 C861 1.384 . S
H864 C870 0.930 . S
H865 C874 0.930 . S
H866 C879 0.937 . S
H867 C877 0.929 . S
H868 C872 0.929 . S
H869 C878 0.929 . S
C870 H864 0.930 . S
C870 C871 1.367 . S
C870 C878 1.378 . S
C871 C870 1.367 . S
C871 C879 1.422 1_556 S
C872 H868 0.929 . S
C872 C874 1.378 . S
C872 C876 1.350 . S
C873 C876 1.463 1_546 S
C873 C878 1.350 . S
C873 N881 1.427 1_556 S
C874 H865 0.930 . S
C874 C872 1.378 . S
C874 C875 1.367 . S
C875 C874 1.367 . S
C875 C877 1.433 1_554 S
C876 C872 1.350 . S
C876 C873 1.463 1_564 S
C876 N880 1.427 1_554 S
C877 H867 0.929 . S
C877 C875 1.433 1_556 S
C877 N880 1.384 . S
C878 H869 0.929 . S
C878 C870 1.378 . S
C878 C873 1.350 . S
C879 H866 0.937 . S
C879 C871 1.422 1_554 S
C879 N881 1.388 . S
N880 C876 1.427 1_556 S
N880 C877 1.384 . S
N881 C873 1.427 1_554 S
N881 C879 1.388 . S
H882 C888 0.930 . S
H883 C892 0.930 . S
H884 C897 0.929 . S
H885 C895 0.929 . S
H886 C890 0.929 . S
H887 C896 0.929 . S
C888 H882 0.930 . S
C888 C889 1.367 . S
C888 C896 1.378 . S
C889 C888 1.367 . S
C889 C897 1.433 1_554 S
C890 H886 0.929 . S
C890 C892 1.378 . S
C890 C894 1.350 . S
C891 C894 1.463 1_454 S
C891 C896 1.350 . S
C891 N899 1.427 1_554 S
C892 H883 0.930 . S
C892 C890 1.378 . S
C892 C893 1.367 . S
C893 C892 1.367 . S
C893 C895 1.433 1_556 S
C894 C890 1.350 . S
C894 C891 1.463 1_656 S
C894 N898 1.427 1_556 S
C895 H885 0.929 . S
C895 C893 1.433 1_554 S
C895 N898 1.384 . S
C896 H887 0.929 . S
C896 C888 1.378 . S
C896 C891 1.350 . S
C897 H884 0.929 . S
C897 C889 1.433 1_556 S
C897 N899 1.384 . S
N898 C894 1.427 1_554 S
N898 C895 1.384 . S
N899 C891 1.427 1_556 S
N899 C897 1.384 . S
H900 C906 0.930 . S
H901 C910 0.930 . S
H902 C915 0.929 . S
H903 C913 0.929 . S
H904 C908 0.929 . S
H905 C914 0.929 . S
C906 H900 0.930 . S
C906 C907 1.367 . S
C906 C914 1.378 . S
C907 C906 1.367 . S
C907 C915 1.433 1_556 S
C908 H904 0.929 . S
C908 C910 1.378 . S
C908 C912 1.350 . S
C909 C912 1.463 1_556 S
C909 C914 1.350 . S
C909 N917 1.427 1_556 S
C910 H901 0.930 . S
C910 C908 1.378 . S
C910 C911 1.367 . S
C911 C910 1.367 . S
C911 C913 1.433 1_554 S
C912 C908 1.350 . S
C912 C909 1.463 1_554 S
C912 N916 1.427 1_554 S
C913 H903 0.929 . S
C913 C911 1.433 1_556 S
C913 N916 1.384 . S
C914 H905 0.929 . S
C914 C906 1.378 . S
C914 C909 1.350 . S
C915 H902 0.929 . S
C915 C907 1.433 1_554 S
C915 N917 1.384 . S
N916 C912 1.427 1_556 S
N916 C913 1.384 . S
N917 C909 1.427 1_554 S
N917 C915 1.384 . S
H918 C924 0.930 . S
H919 C928 0.930 . S
H920 C933 0.929 . S
H921 C931 0.929 . S
H922 C926 0.929 . S
H923 C932 0.929 . S
C924 H918 0.930 . S
C924 C925 1.367 1_556 S
C924 C932 1.378 . S
C925 C924 1.367 1_554 S
C925 C933 1.433 . S
C926 H922 0.929 . S
C926 C928 1.378 . S
C926 C930 1.350 1_554 S
C927 C930 1.463 1_564 S
C927 C932 1.350 1_554 S
C927 N935 1.427 . S
C928 H919 0.930 . S
C928 C926 1.378 . S
C928 C929 1.367 1_554 S
C929 C928 1.367 1_556 S
C929 C931 1.433 . S
C930 C926 1.350 1_556 S
C930 C927 1.463 1_546 S
C930 N934 1.427 . S
C931 H921 0.929 . S
C931 C929 1.433 . S
C931 N934 1.384 . S
C932 H923 0.929 . S
C932 C924 1.378 . S
C932 C927 1.350 1_556 S
C933 H920 0.929 . S
C933 C925 1.433 . S
C933 N935 1.384 . S
N934 C930 1.427 . S
N934 C931 1.384 . S
N935 C927 1.427 . S
N935 C933 1.384 . S
H936 C942 0.930 . S
H937 C946 0.930 . S
H938 C951 0.929 . S
H939 C949 0.929 . S
H940 C944 0.929 . S
H941 C950 0.929 . S
C942 H936 0.930 . S
C942 C943 1.367 . S
C942 C950 1.378 . S
C943 C942 1.367 . S
C943 C951 1.433 . S
C944 H940 0.929 . S
C944 C946 1.378 . S
C944 C948 1.350 . S
C945 C948 1.463 . S
C945 C950 1.350 . S
C945 N953 1.427 . S
C946 H937 0.930 . S
C946 C944 1.378 . S
C946 C947 1.367 . S
C947 C946 1.367 . S
C947 C949 1.433 . S
C948 C944 1.350 . S
C948 C945 1.463 . S
C948 N952 1.427 . S
C949 H939 0.929 . S
C949 C947 1.433 . S
C949 N952 1.384 . S
C950 H941 0.929 . S
C950 C942 1.378 . S
C950 C945 1.350 . S
C951 H938 0.929 . S
C951 C943 1.433 . S
C951 N953 1.384 . S
N952 C948 1.427 . S
N952 C949 1.384 . S
N953 C945 1.427 . S
N953 C951 1.384 . S
H954 C960 0.930 . S
H955 C964 0.930 . S
H956 C969 0.929 . S
H957 C967 0.929 . S
H958 C962 0.929 . S
H959 C968 0.929 . S
C960 H954 0.930 . S
C960 C961 1.367 . S
C960 C968 1.378 . S
C961 C960 1.367 . S
C961 C969 1.433 . S
C962 H958 0.929 . S
C962 C964 1.378 . S
C962 C966 1.350 . S
C963 C966 1.463 . S
C963 C968 1.350 . S
C963 N971 1.427 . S
C964 H955 0.930 . S
C964 C962 1.378 . S
C964 C965 1.367 1_565 S
C965 C964 1.367 1_545 S
C965 C967 1.433 . S
C966 C962 1.350 . S
C966 C963 1.463 . S
C966 N970 1.427 1_565 S
C967 H957 0.929 . S
C967 C965 1.433 . S
C967 N970 1.384 . S
C968 H959 0.929 . S
C968 C960 1.378 . S
C968 C963 1.350 . S
C969 H956 0.929 . S
C969 C961 1.433 . S
C969 N971 1.384 . S
N970 C966 1.427 1_545 S
N970 C967 1.384 . S
N971 C963 1.427 . S
N971 C969 1.384 . S
H972 C978 0.930 . S
H973 C982 0.930 . S
H974 C987 0.929 . S
H975 C985 0.929 . S
H976 C980 0.929 . S
H977 C986 0.929 . S
C978 H972 0.930 . S
C978 C979 1.367 . S
C978 C986 1.378 1_655 S
C979 C978 1.367 . S
C979 C987 1.433 1_655 S
C980 H976 0.929 . S
C980 C982 1.378 . S
C980 C984 1.350 . S
C981 C984 1.463 . S
C981 C986 1.350 . S
C981 N989 1.427 . S
C982 H973 0.930 . S
C982 C980 1.378 . S
C982 C983 1.367 . S
C983 C982 1.367 . S
C983 C985 1.433 . S
C984 C980 1.350 . S
C984 C981 1.463 . S
C984 N988 1.427 . S
C985 H975 0.929 . S
C985 C983 1.433 . S
C985 N988 1.384 . S
C986 H977 0.929 . S
C986 C978 1.378 1_455 S
C986 C981 1.350 . S
C987 H974 0.929 . S
C987 C979 1.433 1_455 S
C987 N989 1.384 . S
N988 C984 1.427 . S
N988 C985 1.384 . S
N989 C981 1.427 . S
N989 C987 1.384 . S
H990 C996 0.930 . S
H991 C1000 0.930 . S
H992 C1005 0.929 . S
H993 C1003 0.929 . S
H994 C998 0.929 . S
H995 C1004 0.929 . S
C996 H990 0.930 . S
C996 C997 1.367 . S
C996 C1004 1.378 . S
C997 C996 1.367 . S
C997 C1005 1.433 . S
C998 H994 0.929 . S
C998 C1000 1.378 . S
C998 C1002 1.350 . S
C999 C1002 1.463 . S
C999 C1004 1.350 . S
C999 N1007 1.427 . S
C1000 H991 0.930 . S
C1000 C998 1.378 . S
C1000 C1001 1.367 1_565 S
C1001 C1000 1.367 1_545 S
C1001 C1003 1.433 . S
C1002 C998 1.350 . S
C1002 C999 1.463 . S
C1002 N1006 1.427 1_565 S
C1003 H993 0.929 . S
C1003 C1001 1.433 . S
C1003 N1006 1.384 . S
C1004 H995 0.929 . S
C1004 C996 1.378 . S
C1004 C999 1.350 . S
C1005 H992 0.929 . S
C1005 C997 1.433 . S
C1005 N1007 1.384 . S
N1006 C1002 1.427 1_545 S
N1006 C1003 1.384 . S
N1007 C999 1.427 . S
N1007 C1005 1.384 . S
H1008 C1014 0.930 . S
H1009 C1018 0.930 . S
H1010 C1023 0.929 . S
H1011 C1021 0.929 . S
H1012 C1016 0.929 . S
H1013 C1022 0.929 . S
C1014 H1008 0.930 . S
C1014 C1015 1.367 . S
C1014 C1022 1.378 1_655 S
C1015 C1014 1.367 . S
C1015 C1023 1.433 1_655 S
C1016 H1012 0.929 . S
C1016 C1018 1.378 . S
C1016 C1020 1.350 . S
C1017 C1020 1.463 . S
C1017 C1022 1.350 . S
C1017 N1025 1.427 . S
C1018 H1009 0.930 . S
C1018 C1016 1.378 . S
C1018 C1019 1.367 . S
C1019 C1018 1.367 . S
C1019 C1021 1.433 . S
C1020 C1016 1.350 . S
C1020 C1017 1.463 . S
C1020 N1024 1.427 . S
C1021 H1011 0.929 . S
C1021 C1019 1.433 . S
C1021 N1024 1.384 . S
C1022 H1013 0.929 . S
C1022 C1014 1.378 1_455 S
C1022 C1017 1.350 . S
C1023 H1010 0.929 . S
C1023 C1015 1.433 1_455 S
C1023 N1025 1.384 . S
N1024 C1020 1.427 . S
N1024 C1021 1.384 . S
N1025 C1017 1.427 . S
N1025 C1023 1.384 . S
H1026 C1032 0.930 . S
H1027 C1036 0.930 . S
H1028 C1041 0.929 . S
H1029 C1039 0.929 . S
H1030 C1034 0.929 . S
H1031 C1040 0.929 . S
C1032 H1026 0.930 . S
C1032 C1033 1.367 . S
C1032 C1040 1.378 . S
C1033 C1032 1.367 . S
C1033 C1041 1.433 . S
C1034 H1030 0.929 . S
C1034 C1036 1.378 . S
C1034 C1038 1.350 . S
C1035 C1038 1.463 . S
C1035 C1040 1.350 . S
C1035 N1043 1.427 . S
C1036 H1027 0.930 . S
C1036 C1034 1.378 . S
C1036 C1037 1.367 . S
C1037 C1036 1.367 . S
C1037 C1039 1.433 . S
C1038 C1034 1.350 . S
C1038 C1035 1.463 . S
C1038 N1042 1.427 . S
C1039 H1029 0.929 . S
C1039 C1037 1.433 . S
C1039 N1042 1.384 . S
C1040 H1031 0.929 . S
C1040 C1032 1.378 . S
C1040 C1035 1.350 . S
C1041 H1028 0.929 . S
C1041 C1033 1.433 . S
C1041 N1043 1.384 . S
N1042 C1038 1.427 . S
N1042 C1039 1.384 . S
N1043 C1035 1.427 . S
N1043 C1041 1.384 . S
H1044 C1050 0.930 . S
H1045 C1054 0.930 . S
H1046 C1059 0.929 . S
H1047 C1057 0.929 . S
H1048 C1052 0.929 . S
H1049 C1058 0.929 . S
C1050 H1044 0.930 . S
C1050 C1051 1.367 . S
C1050 C1058 1.378 . S
C1051 C1050 1.367 . S
C1051 C1059 1.433 1_565 S
C1052 H1048 0.929 . S
C1052 C1054 1.378 . S
C1052 C1056 1.350 . S
C1053 C1056 1.463 . S
C1053 C1058 1.350 1_545 S
C1053 N1061 1.427 . S
C1054 H1045 0.930 . S
C1054 C1052 1.378 . S
C1054 C1055 1.367 . S
C1055 C1054 1.367 . S
C1055 C1057 1.433 . S
C1056 C1052 1.350 . S
C1056 C1053 1.463 . S
C1056 N1060 1.427 . S
C1057 H1047 0.929 . S
C1057 C1055 1.433 . S
C1057 N1060 1.384 . S
C1058 H1049 0.929 . S
C1058 C1050 1.378 . S
C1058 C1053 1.350 1_565 S
C1059 H1046 0.929 . S
C1059 C1051 1.433 1_545 S
C1059 N1061 1.384 . S
N1060 C1056 1.427 . S
N1060 C1057 1.384 . S
N1061 C1053 1.427 . S
N1061 C1059 1.384 . S
H1062 C1068 0.930 . S
H1063 C1072 0.930 . S
H1064 C1077 0.929 . S
H1065 C1075 0.929 . S
H1066 C1070 0.929 . S
H1067 C1076 0.929 . S
C1068 H1062 0.930 . S
C1068 C1069 1.367 . S
C1068 C1076 1.378 . S
C1069 C1068 1.367 . S
C1069 C1077 1.433 . S
C1070 H1066 0.929 . S
C1070 C1072 1.378 . S
C1070 C1074 1.350 1_455 S
C1071 C1074 1.463 . S
C1071 C1076 1.350 . S
C1071 N1079 1.427 . S
C1072 H1063 0.930 . S
C1072 C1070 1.378 . S
C1072 C1073 1.367 . S
C1073 C1072 1.367 . S
C1073 C1075 1.433 1_455 S
C1074 C1070 1.350 1_655 S
C1074 C1071 1.463 . S
C1074 N1078 1.427 . S
C1075 H1065 0.929 . S
C1075 C1073 1.433 1_655 S
C1075 N1078 1.384 . S
C1076 H1067 0.929 . S
C1076 C1068 1.378 . S
C1076 C1071 1.350 . S
C1077 H1064 0.929 . S
C1077 C1069 1.433 . S
C1077 N1079 1.384 . S
N1078 C1074 1.427 . S
N1078 C1075 1.384 . S
N1079 C1071 1.427 . S
N1079 C1077 1.384 . S
H1080 C1086 0.930 . S
H1081 C1090 0.930 . S
H1082 C1095 0.929 . S
H1083 C1093 0.929 . S
H1084 C1088 0.929 . S
H1085 C1094 0.929 . S
C1086 H1080 0.930 . S
C1086 C1087 1.367 . S
C1086 C1094 1.378 . S
C1087 C1086 1.367 . S
C1087 C1095 1.433 . S
C1088 H1084 0.929 . S
C1088 C1090 1.378 . S
C1088 C1092 1.350 . S
C1089 C1092 1.463 . S
C1089 C1094 1.350 . S
C1089 N1097 1.427 . S
C1090 H1081 0.930 . S
C1090 C1088 1.378 . S
C1090 C1091 1.367 . S
C1091 C1090 1.367 . S
C1091 C1093 1.433 . S
C1092 C1088 1.350 . S
C1092 C1089 1.463 . S
C1092 N1096 1.427 . S
C1093 H1083 0.929 . S
C1093 C1091 1.433 . S
C1093 N1096 1.384 . S
C1094 H1085 0.929 . S
C1094 C1086 1.378 . S
C1094 C1089 1.350 . S
C1095 H1082 0.929 . S
C1095 C1087 1.433 . S
C1095 N1097 1.384 . S
N1096 C1092 1.427 . S
N1096 C1093 1.384 . S
N1097 C1089 1.427 . S
N1097 C1095 1.384 . S
H1098 C1104 0.930 . S
H1099 C1108 0.930 . S
H1100 C1113 0.929 . S
H1101 C1111 0.929 . S
H1102 C1106 0.929 . S
H1103 C1112 0.929 . S
C1104 H1098 0.930 . S
C1104 C1105 1.367 . S
C1104 C1112 1.378 . S
C1105 C1104 1.367 . S
C1105 C1113 1.433 . S
C1106 H1102 0.929 . S
C1106 C1108 1.378 . S
C1106 C1110 1.350 . S
C1107 C1110 1.463 . S
C1107 C1112 1.350 . S
C1107 N1115 1.427 . S
C1108 H1099 0.930 . S
C1108 C1106 1.378 . S
C1108 C1109 1.367 . S
C1109 C1108 1.367 . S
C1109 C1111 1.433 . S
C1110 C1106 1.350 . S
C1110 C1107 1.463 . S
C1110 N1114 1.427 . S
C1111 H1101 0.929 . S
C1111 C1109 1.433 . S
C1111 N1114 1.384 . S
C1112 H1103 0.929 . S
C1112 C1104 1.378 . S
C1112 C1107 1.350 . S
C1113 H1100 0.929 . S
C1113 C1105 1.433 . S
C1113 N1115 1.384 . S
N1114 C1110 1.427 . S
N1114 C1111 1.384 . S
N1115 C1107 1.427 . S
N1115 C1113 1.384 . S
H1116 C1122 0.930 . S
H1117 C1126 0.930 . S
H1118 C1131 0.929 . S
H1119 C1129 0.929 . S
H1120 C1124 0.929 . S
H1121 C1130 0.929 . S
C1122 H1116 0.930 . S
C1122 C1123 1.367 1_545 S
C1122 C1130 1.378 . S
C1123 C1122 1.367 1_565 S
C1123 C1131 1.433 . S
C1124 H1120 0.929 . S
C1124 C1126 1.378 . S
C1124 C1128 1.350 . S
C1125 C1128 1.463 . S
C1125 C1130 1.350 . S
C1125 N1133 1.464 . S
C1126 H1117 0.930 . S
C1126 C1124 1.378 . S
C1126 C1127 1.367 . S
C1127 C1126 1.367 . S
C1127 C1129 1.433 . S
C1128 C1124 1.350 . S
C1128 C1125 1.463 . S
C1128 N1132 1.427 . S
C1129 H1119 0.929 . S
C1129 C1127 1.433 . S
C1129 N1132 1.384 . S
C1130 H1121 0.929 . S
C1130 C1122 1.378 . S
C1130 C1125 1.350 . S
C1131 H1118 0.929 . S
C1131 C1123 1.433 . S
C1131 N1133 1.335 1_565 S
N1132 C1128 1.427 . S
N1132 C1129 1.384 . S
N1133 C1125 1.464 . S
N1133 C1131 1.335 1_545 S
H1134 C1140 0.930 . S
H1135 C1144 0.930 . S
H1136 C1149 0.929 . S
H1137 C1147 0.929 . S
H1138 C1142 0.929 . S
H1139 C1148 0.929 . S
C1140 H1134 0.930 . S
C1140 C1141 1.367 1_655 S
C1140 C1148 1.378 . S
C1141 C1140 1.367 1_455 S
C1141 C1149 1.433 . S
C1142 H1138 0.929 . S
C1142 C1144 1.378 . S
C1142 C1146 1.350 . S
C1143 C1146 1.463 . S
C1143 C1148 1.350 . S
C1143 N1151 1.427 1_655 S
C1144 H1135 0.930 . S
C1144 C1142 1.378 . S
C1144 C1145 1.367 . S
C1145 C1144 1.367 . S
C1145 C1147 1.433 . S
C1146 C1142 1.350 . S
C1146 C1143 1.463 . S
C1146 N1150 1.427 . S
C1147 H1137 0.929 . S
C1147 C1145 1.433 . S
C1147 N1150 1.384 . S
C1148 H1139 0.929 . S
C1148 C1140 1.378 . S
C1148 C1143 1.350 . S
C1149 H1136 0.929 . S
C1149 C1141 1.433 . S
C1149 N1151 1.384 . S
N1150 C1146 1.427 . S
N1150 C1147 1.384 . S
N1151 C1143 1.427 1_455 S
N1151 C1149 1.384 . S
H1152 C1158 0.930 . S
H1153 C1162 0.930 . S
H1154 C1167 0.929 . S
H1155 C1165 0.929 . S
H1156 C1160 0.929 . S
H1157 C1166 0.929 . S
C1158 H1152 0.930 . S
C1158 C1159 1.367 . S
C1158 C1166 1.378 . S
C1159 C1158 1.367 . S
C1159 C1167 1.433 1_556 S
C1160 H1156 0.929 . S
C1160 C1162 1.378 . S
C1160 C1164 1.350 1_554 S
C1161 C1164 1.463 . S
C1161 C1166 1.350 . S
C1161 N1169 1.427 1_556 S
C1162 H1153 0.930 . S
C1162 C1160 1.378 . S
C1162 C1163 1.367 1_554 S
C1163 C1162 1.367 1_556 S
C1163 C1165 1.433 . S
C1164 C1160 1.350 1_556 S
C1164 C1161 1.463 . S
C1164 N1168 1.427 . S
C1165 H1155 0.929 . S
C1165 C1163 1.433 . S
C1165 N1168 1.384 . S
C1166 H1157 0.929 . S
C1166 C1158 1.378 . S
C1166 C1161 1.350 . S
C1167 H1154 0.929 . S
C1167 C1159 1.433 1_554 S
C1167 N1169 1.384 . S
N1168 C1164 1.427 . S
N1168 C1165 1.384 . S
N1169 C1161 1.427 1_554 S
N1169 C1167 1.384 . S
H1170 C1176 0.930 . S
H1171 C1180 0.930 . S
H1172 C1185 0.929 . S
H1173 C1183 0.929 . S
H1174 C1178 0.929 . S
H1175 C1184 0.929 . S
C1176 H1170 0.930 . S
C1176 C1177 1.367 . S
C1176 C1184 1.378 . S
C1177 C1176 1.367 . S
C1177 C1185 1.433 1_556 S
C1178 H1174 0.929 . S
C1178 C1180 1.378 . S
C1178 C1182 1.350 1_554 S
C1179 C1182 1.463 . S
C1179 C1184 1.350 . S
C1179 N1187 1.427 1_556 S
C1180 H1171 0.930 . S
C1180 C1178 1.378 . S
C1180 C1181 1.367 1_554 S
C1181 C1180 1.367 1_556 S
C1181 C1183 1.433 . S
C1182 C1178 1.350 1_556 S
C1182 C1179 1.463 . S
C1182 N1186 1.427 . S
C1183 H1173 0.929 . S
C1183 C1181 1.433 . S
C1183 N1186 1.384 . S
C1184 H1175 0.929 . S
C1184 C1176 1.378 . S
C1184 C1179 1.350 . S
C1185 H1172 0.929 . S
C1185 C1177 1.433 1_554 S
C1185 N1187 1.384 . S
N1186 C1182 1.427 . S
N1186 C1183 1.384 . S
N1187 C1179 1.427 1_554 S
N1187 C1185 1.384 . S
H1188 C1194 0.930 . S
H1189 C1198 0.930 . S
H1190 C1203 0.929 . S
H1191 C1201 0.929 . S
H1192 C1196 0.929 . S
H1193 C1202 0.929 . S
C1194 H1188 0.930 . S
C1194 C1195 1.367 . S
C1194 C1202 1.378 . S
C1195 C1194 1.367 . S
C1195 C1203 1.433 . S
C1196 H1192 0.929 . S
C1196 C1198 1.378 . S
C1196 C1200 1.350 . S
C1197 C1200 1.463 . S
C1197 C1202 1.350 . S
C1197 N1205 1.427 . S
C1198 H1189 0.930 . S
C1198 C1196 1.378 . S
C1198 C1199 1.367 . S
C1199 C1198 1.367 . S
C1199 C1201 1.433 . S
C1200 C1196 1.350 . S
C1200 C1197 1.463 . S
C1200 N1204 1.427 . S
C1201 H1191 0.929 . S
C1201 C1199 1.433 . S
C1201 N1204 1.384 . S
C1202 H1193 0.929 . S
C1202 C1194 1.378 . S
C1202 C1197 1.350 . S
C1203 H1190 0.929 . S
C1203 C1195 1.433 . S
C1203 N1205 1.384 . S
N1204 C1200 1.427 . S
N1204 C1201 1.384 . S
N1205 C1197 1.427 . S
N1205 C1203 1.384 . S
H1206 C1212 0.930 . S
H1207 C1216 0.930 . S
H1208 C1221 0.929 . S
H1209 C1219 0.929 . S
H1210 C1214 0.929 . S
H1211 C1220 0.929 . S
C1212 H1206 0.930 . S
C1212 C1213 1.367 1_556 S
C1212 C1220 1.378 . S
C1213 C1212 1.367 1_554 S
C1213 C1221 1.433 . S
C1214 H1210 0.929 . S
C1214 C1216 1.378 . S
C1214 C1218 1.350 . S
C1215 C1218 1.463 . S
C1215 C1220 1.350 1_554 S
C1215 N1223 1.427 . S
C1216 H1207 0.930 . S
C1216 C1214 1.378 . S
C1216 C1217 1.367 . S
C1217 C1216 1.367 . S
C1217 C1219 1.433 1_554 S
C1218 C1214 1.350 . S
C1218 C1215 1.463 . S
C1218 N1222 1.427 1_554 S
C1219 H1209 0.929 . S
C1219 C1217 1.433 1_556 S
C1219 N1222 1.384 . S
C1220 H1211 0.929 . S
C1220 C1212 1.378 . S
C1220 C1215 1.350 1_556 S
C1221 H1208 0.929 . S
C1221 C1213 1.433 . S
C1221 N1223 1.384 . S
N1222 C1218 1.427 1_556 S
N1222 C1219 1.384 . S
N1223 C1215 1.427 . S
N1223 C1221 1.384 . S
H1224 C1230 0.930 . S
H1225 C1234 0.930 . S
H1226 C1239 0.929 . S
H1227 C1237 0.929 . S
H1228 C1232 0.929 . S
H1229 C1238 0.929 . S
C1230 H1224 0.930 . S
C1230 C1231 1.367 . S
C1230 C1238 1.378 . S
C1231 C1230 1.367 . S
C1231 C1239 1.433 1_554 S
C1232 H1228 0.929 . S
C1232 C1234 1.378 . S
C1232 C1236 1.350 1_556 S
C1233 C1236 1.463 . S
C1233 C1238 1.350 . S
C1233 N1241 1.427 1_554 S
C1234 H1225 0.930 . S
C1234 C1232 1.378 . S
C1234 C1235 1.367 1_556 S
C1235 C1234 1.367 1_554 S
C1235 C1237 1.433 . S
C1236 C1232 1.350 1_554 S
C1236 C1233 1.463 . S
C1236 N1240 1.427 . S
C1237 H1227 0.929 . S
C1237 C1235 1.433 . S
C1237 N1240 1.384 . S
C1238 H1229 0.929 . S
C1238 C1230 1.378 . S
C1238 C1233 1.350 . S
C1239 H1226 0.929 . S
C1239 C1231 1.433 1_556 S
C1239 N1241 1.384 . S
N1240 C1236 1.427 . S
N1240 C1237 1.384 . S
N1241 C1233 1.427 1_556 S
N1241 C1239 1.384 . S
H1242 C1248 0.930 . S
H1243 C1252 0.930 . S
H1244 C1257 0.929 . S
H1245 C1255 0.929 . S
H1246 C1250 0.929 . S
H1247 C1256 0.929 . S
C1248 H1242 0.930 . S
C1248 C1249 1.367 1_556 S
C1248 C1256 1.378 . S
C1249 C1248 1.367 1_554 S
C1249 C1257 1.433 . S
C1250 H1246 0.929 . S
C1250 C1252 1.378 . S
C1250 C1254 1.350 . S
C1251 C1254 1.463 . S
C1251 C1256 1.350 1_554 S
C1251 N1259 1.427 . S
C1252 H1243 0.930 . S
C1252 C1250 1.378 . S
C1252 C1253 1.367 . S
C1253 C1252 1.367 . S
C1253 C1255 1.433 1_554 S
C1254 C1250 1.350 . S
C1254 C1251 1.463 . S
C1254 N1258 1.427 1_554 S
C1255 H1245 0.929 . S
C1255 C1253 1.433 1_556 S
C1255 N1258 1.384 . S
C1256 H1247 0.929 . S
C1256 C1248 1.378 . S
C1256 C1251 1.350 1_556 S
C1257 H1244 0.929 . S
C1257 C1249 1.433 . S
C1257 N1259 1.384 . S
N1258 C1254 1.427 1_556 S
N1258 C1255 1.384 . S
N1259 C1251 1.427 . S
N1259 C1257 1.384 . S
H1260 C1266 0.930 . S
H1261 C1270 0.930 . S
H1262 C1275 0.929 . S
H1263 C1273 0.929 . S
H1264 C1268 0.929 . S
H1265 C1274 0.929 . S
C1266 H1260 0.930 . S
C1266 C1267 1.367 . S
C1266 C1274 1.378 . S
C1267 C1266 1.367 . S
C1267 C1275 1.433 . S
C1268 H1264 0.929 . S
C1268 C1270 1.378 . S
C1268 C1272 1.350 . S
C1269 C1272 1.463 . S
C1269 C1274 1.350 . S
C1269 N1277 1.427 . S
C1270 H1261 0.930 . S
C1270 C1268 1.378 . S
C1270 C1271 1.367 . S
C1271 C1270 1.367 . S
C1271 C1273 1.433 . S
C1272 C1268 1.350 . S
C1272 C1269 1.463 . S
C1272 N1276 1.427 . S
C1273 H1263 0.929 . S
C1273 C1271 1.433 . S
C1273 N1276 1.384 . S
C1274 H1265 0.929 . S
C1274 C1266 1.378 . S
C1274 C1269 1.350 . S
C1275 H1262 0.929 . S
C1275 C1267 1.433 . S
C1275 N1277 1.384 . S
N1276 C1272 1.427 . S
N1276 C1273 1.384 . S
N1277 C1269 1.427 . S
N1277 C1275 1.384 . S
H1278 C1284 0.930 . S
H1279 C1288 0.930 . S
H1280 C1293 0.929 . S
H1281 C1291 0.929 . S
H1282 C1286 0.929 . S
H1283 C1292 0.929 . S
C1284 H1278 0.930 . S
C1284 C1285 1.367 . S
C1284 C1292 1.378 . S
C1285 C1284 1.367 . S
C1285 C1293 1.433 . S
C1286 H1282 0.929 . S
C1286 C1288 1.378 . S
C1286 C1290 1.350 . S
C1287 C1290 1.463 . S
C1287 C1292 1.350 . S
C1287 N1295 1.427 . S
C1288 H1279 0.930 . S
C1288 C1286 1.378 . S
C1288 C1289 1.367 . S
C1289 C1288 1.367 . S
C1289 C1291 1.433 . S
C1290 C1286 1.350 . S
C1290 C1287 1.463 . S
C1290 N1294 1.427 . S
C1291 H1281 0.929 . S
C1291 C1289 1.433 . S
C1291 N1294 1.384 . S
C1292 H1283 0.929 . S
C1292 C1284 1.378 . S
C1292 C1287 1.350 . S
C1293 H1280 0.929 . S
C1293 C1285 1.433 . S
C1293 N1295 1.384 . S
N1294 C1290 1.427 . S
N1294 C1291 1.384 . S
N1295 C1287 1.427 . S
N1295 C1293 1.384 . S
H1296 C1302 0.930 . S
H1297 C1306 0.930 . S
H1298 C1311 0.929 . S
H1299 C1309 0.929 . S
H1300 C1304 0.929 . S
H1301 C1310 0.929 . S
C1302 H1296 0.930 . S
C1302 C1303 1.367 . S
C1302 C1310 1.378 . S
C1303 C1302 1.367 . S
C1303 C1311 1.433 . S
C1304 H1300 0.929 . S
C1304 C1306 1.378 . S
C1304 C1308 1.350 . S
C1305 C1308 1.463 . S
C1305 C1310 1.350 . S
C1305 N1313 1.427 . S
C1306 H1297 0.930 . S
C1306 C1304 1.378 . S
C1306 C1307 1.367 . S
C1307 C1306 1.367 . S
C1307 C1309 1.433 . S
C1308 C1304 1.350 . S
C1308 C1305 1.463 . S
C1308 N1312 1.427 . S
C1309 H1299 0.929 . S
C1309 C1307 1.433 . S
C1309 N1312 1.384 . S
C1310 H1301 0.929 . S
C1310 C1302 1.378 . S
C1310 C1305 1.350 . S
C1311 H1298 0.929 . S
C1311 C1303 1.433 . S
C1311 N1313 1.384 . S
N1312 C1308 1.427 . S
N1312 C1309 1.384 . S
N1313 C1305 1.427 . S
N1313 C1311 1.384 . S
H1314 C1320 0.930 . S
H1315 C1324 0.930 . S
H1316 C1329 0.929 . S
H1317 C1327 0.929 . S
H1318 C1322 0.929 . S
H1319 C1328 0.929 . S
C1320 H1314 0.930 . S
C1320 C1321 1.367 . S
C1320 C1328 1.378 . S
C1321 C1320 1.367 . S
C1321 C1329 1.433 . S
C1322 H1318 0.929 . S
C1322 C1324 1.378 . S
C1322 C1326 1.350 . S
C1323 C1326 1.463 . S
C1323 C1328 1.350 . S
C1323 N1331 1.427 . S
C1324 H1315 0.930 . S
C1324 C1322 1.378 . S
C1324 C1325 1.367 . S
C1325 C1324 1.367 . S
C1325 C1327 1.433 . S
C1326 C1322 1.350 . S
C1326 C1323 1.463 . S
C1326 N1330 1.427 . S
C1327 H1317 0.929 . S
C1327 C1325 1.433 . S
C1327 N1330 1.384 . S
C1328 H1319 0.929 . S
C1328 C1320 1.378 . S
C1328 C1323 1.350 . S
C1329 H1316 0.929 . S
C1329 C1321 1.433 . S
C1329 N1331 1.384 . S
N1330 C1326 1.427 . S
N1330 C1327 1.384 . S
N1331 C1323 1.427 . S
N1331 C1329 1.384 . S
H1332 C1338 0.930 . S
H1333 C1342 0.930 . S
H1334 C1347 0.929 . S
H1335 C1345 0.929 . S
H1336 C1340 0.929 . S
H1337 C1346 0.929 . S
C1338 H1332 0.930 . S
C1338 C1339 1.367 . S
C1338 C1346 1.378 . S
C1339 C1338 1.367 . S
C1339 C1347 1.433 . S
C1340 H1336 0.929 . S
C1340 C1342 1.378 . S
C1340 C1344 1.350 . S
C1341 C1344 1.463 . S
C1341 C1346 1.350 . S
C1341 N1349 1.427 . S
C1342 H1333 0.930 . S
C1342 C1340 1.378 . S
C1342 C1343 1.367 . S
C1343 C1342 1.367 . S
C1343 C1345 1.433 . S
C1344 C1340 1.350 . S
C1344 C1341 1.463 . S
C1344 N1348 1.427 . S
C1345 H1335 0.929 . S
C1345 C1343 1.433 . S
C1345 N1348 1.384 . S
C1346 H1337 0.929 . S
C1346 C1338 1.378 . S
C1346 C1341 1.350 . S
C1347 H1334 0.929 . S
C1347 C1339 1.433 . S
C1347 N1349 1.384 . S
N1348 C1344 1.427 . S
N1348 C1345 1.384 . S
N1349 C1341 1.427 . S
N1349 C1347 1.384 . S
H1350 C1356 0.930 . S
H1351 C1360 0.930 . S
H1352 C1365 0.929 . S
H1353 C1363 0.929 . S
H1354 C1358 0.929 . S
H1355 C1364 0.929 . S
C1356 H1350 0.930 . S
C1356 C1357 1.367 . S
C1356 C1364 1.378 . S
C1357 C1356 1.367 . S
C1357 C1365 1.433 . S
C1358 H1354 0.929 . S
C1358 C1360 1.378 . S
C1358 C1362 1.350 . S
C1359 C1362 1.463 . S
C1359 C1364 1.350 . S
C1359 N1367 1.427 . S
C1360 H1351 0.930 . S
C1360 C1358 1.378 . S
C1360 C1361 1.367 . S
C1361 C1360 1.367 . S
C1361 C1363 1.433 . S
C1362 C1358 1.350 . S
C1362 C1359 1.463 . S
C1362 N1366 1.427 . S
C1363 H1353 0.929 . S
C1363 C1361 1.433 . S
C1363 N1366 1.384 . S
C1364 H1355 0.929 . S
C1364 C1356 1.378 . S
C1364 C1359 1.350 . S
C1365 H1352 0.929 . S
C1365 C1357 1.433 . S
C1365 N1367 1.384 . S
N1366 C1362 1.427 . S
N1366 C1363 1.384 . S
N1367 C1359 1.427 . S
N1367 C1365 1.384 . S
H1368 C1374 0.930 . S
H1369 C1378 0.930 . S
H1370 C1383 0.929 . S
H1371 C1381 0.929 . S
H1372 C1376 0.929 . S
H1373 C1382 0.929 . S
C1374 H1368 0.930 . S
C1374 C1375 1.367 . S
C1374 C1382 1.378 . S
C1375 C1374 1.367 . S
C1375 C1383 1.433 . S
C1376 H1372 0.929 . S
C1376 C1378 1.378 . S
C1376 C1380 1.350 . S
C1377 C1380 1.463 . S
C1377 C1382 1.350 . S
C1377 N1385 1.427 . S
C1378 H1369 0.930 . S
C1378 C1376 1.378 . S
C1378 C1379 1.367 . S
C1379 C1378 1.367 . S
C1379 C1381 1.433 . S
C1380 C1376 1.350 . S
C1380 C1377 1.463 . S
C1380 N1384 1.427 . S
C1381 H1371 0.929 . S
C1381 C1379 1.433 . S
C1381 N1384 1.384 . S
C1382 H1373 0.929 . S
C1382 C1374 1.378 . S
C1382 C1377 1.350 . S
C1383 H1370 0.929 . S
C1383 C1375 1.433 . S
C1383 N1385 1.384 . S
N1384 C1380 1.427 . S
N1384 C1381 1.384 . S
N1385 C1377 1.427 . S
N1385 C1383 1.384 . S
H1386 C1392 0.930 . S
H1387 C1396 0.930 . S
H1388 C1401 0.929 . S
H1389 C1399 0.929 . S
H1390 C1394 0.929 . S
H1391 C1400 0.929 . S
C1392 H1386 0.930 . S
C1392 C1393 1.367 . S
C1392 C1400 1.378 . S
C1393 C1392 1.367 . S
C1393 C1401 1.433 . S
C1394 H1390 0.929 . S
C1394 C1396 1.378 . S
C1394 C1398 1.350 . S
C1395 C1398 1.463 . S
C1395 C1400 1.350 . S
C1395 N1403 1.427 . S
C1396 H1387 0.930 . S
C1396 C1394 1.378 . S
C1396 C1397 1.367 . S
C1397 C1396 1.367 . S
C1397 C1399 1.433 . S
C1398 C1394 1.350 . S
C1398 C1395 1.463 . S
C1398 N1402 1.427 . S
C1399 H1389 0.929 . S
C1399 C1397 1.433 . S
C1399 N1402 1.384 . S
C1400 H1391 0.929 . S
C1400 C1392 1.378 . S
C1400 C1395 1.350 . S
C1401 H1388 0.929 . S
C1401 C1393 1.433 . S
C1401 N1403 1.384 . S
N1402 C1398 1.427 . S
N1402 C1399 1.384 . S
N1403 C1395 1.427 . S
N1403 C1401 1.384 . S
H1404 C1410 0.930 . S
H1405 C1414 0.930 . S
H1406 C1419 0.929 . S
H1407 C1417 0.929 . S
H1408 C1412 0.929 . S
H1409 C1418 0.929 . S
C1410 H1404 0.930 . S
C1410 C1411 1.367 . S
C1410 C1418 1.378 . S
C1411 C1410 1.367 . S
C1411 C1419 1.433 . S
C1412 H1408 0.929 . S
C1412 C1414 1.378 . S
C1412 C1416 1.350 . S
C1413 C1416 1.463 . S
C1413 C1418 1.350 . S
C1413 N1421 1.427 . S
C1414 H1405 0.930 . S
C1414 C1412 1.378 . S
C1414 C1415 1.367 . S
C1415 C1414 1.367 . S
C1415 C1417 1.433 . S
C1416 C1412 1.350 . S
C1416 C1413 1.463 . S
C1416 N1420 1.427 . S
C1417 H1407 0.929 . S
C1417 C1415 1.433 . S
C1417 N1420 1.384 . S
C1418 H1409 0.929 . S
C1418 C1410 1.378 . S
C1418 C1413 1.350 . S
C1419 H1406 0.929 . S
C1419 C1411 1.433 . S
C1419 N1421 1.384 . S
N1420 C1416 1.427 . S
N1420 C1417 1.384 . S
N1421 C1413 1.427 . S
N1421 C1419 1.384 . S
H1422 C1428 0.930 . S
H1423 C1432 0.930 . S
H1424 C1437 0.929 . S
H1425 C1435 0.929 . S
H1426 C1430 0.929 . S
H1427 C1436 0.929 . S
C1428 H1422 0.930 . S
C1428 C1429 1.367 . S
C1428 C1436 1.378 . S
C1429 C1428 1.367 . S
C1429 C1437 1.433 . S
C1430 H1426 0.929 . S
C1430 C1432 1.378 . S
C1430 C1434 1.350 . S
C1431 C1434 1.463 . S
C1431 C1436 1.350 . S
C1431 N1439 1.427 . S
C1432 H1423 0.930 . S
C1432 C1430 1.378 . S
C1432 C1433 1.367 . S
C1433 C1432 1.367 . S
C1433 C1435 1.433 . S
C1434 C1430 1.350 . S
C1434 C1431 1.463 . S
C1434 N1438 1.427 . S
C1435 H1425 0.929 . S
C1435 C1433 1.433 . S
C1435 N1438 1.384 . S
C1436 H1427 0.929 . S
C1436 C1428 1.378 . S
C1436 C1431 1.350 . S
C1437 H1424 0.929 . S
C1437 C1429 1.433 . S
C1437 N1439 1.384 . S
N1438 C1434 1.427 . S
N1438 C1435 1.384 . S
N1439 C1431 1.427 . S
N1439 C1437 1.384 . S
H1440 C1446 0.930 . S
H1441 C1450 0.930 . S
H1442 C1455 0.929 . S
H1443 C1453 0.929 . S
H1444 C1448 0.929 . S
H1445 C1454 0.929 . S
C1446 H1440 0.930 . S
C1446 C1447 1.367 . S
C1446 C1454 1.378 . S
C1447 C1446 1.367 . S
C1447 C1455 1.433 . S
C1448 H1444 0.929 . S
C1448 C1450 1.378 . S
C1448 C1452 1.350 . S
C1449 C1452 1.463 . S
C1449 C1454 1.350 . S
C1449 N1457 1.427 . S
C1450 H1441 0.930 . S
C1450 C1448 1.378 . S
C1450 C1451 1.367 . S
C1451 C1450 1.367 . S
C1451 C1453 1.433 . S
C1452 C1448 1.350 . S
C1452 C1449 1.463 . S
C1452 N1456 1.427 . S
C1453 H1443 0.929 . S
C1453 C1451 1.433 . S
C1453 N1456 1.384 . S
C1454 H1445 0.929 . S
C1454 C1446 1.378 . S
C1454 C1449 1.350 . S
C1455 H1442 0.929 . S
C1455 C1447 1.433 . S
C1455 N1457 1.384 . S
N1456 C1452 1.427 . S
N1456 C1453 1.384 . S
N1457 C1449 1.427 . S
N1457 C1455 1.384 . S
H1458 C1464 0.930 . S
H1459 C1468 0.930 . S
H1460 C1473 0.929 . S
H1461 C1471 0.929 . S
H1462 C1466 0.929 . S
H1463 C1472 0.929 . S
C1464 H1458 0.930 . S
C1464 C1465 1.367 . S
C1464 C1472 1.378 . S
C1465 C1464 1.367 . S
C1465 C1473 1.433 . S
C1466 H1462 0.929 . S
C1466 C1468 1.378 . S
C1466 C1470 1.350 . S
C1467 C1470 1.463 . S
C1467 C1472 1.350 . S
C1467 N1475 1.427 . S
C1468 H1459 0.930 . S
C1468 C1466 1.378 . S
C1468 C1469 1.367 . S
C1469 C1468 1.367 . S
C1469 C1471 1.433 . S
C1470 C1466 1.350 . S
C1470 C1467 1.463 . S
C1470 N1474 1.427 . S
C1471 H1461 0.929 . S
C1471 C1469 1.433 . S
C1471 N1474 1.384 . S
C1472 H1463 0.929 . S
C1472 C1464 1.378 . S
C1472 C1467 1.350 . S
C1473 H1460 0.929 . S
C1473 C1465 1.433 . S
C1473 N1475 1.384 . S
N1474 C1470 1.427 . S
N1474 C1471 1.384 . S
N1475 C1467 1.427 . S
N1475 C1473 1.384 . S
H1476 C1482 0.930 . S
H1477 C1486 0.930 . S
H1478 C1491 0.929 . S
H1479 C1489 0.929 . S
H1480 C1484 0.929 . S
H1481 C1490 0.929 . S
C1482 H1476 0.930 . S
C1482 C1483 1.367 . S
C1482 C1490 1.378 . S
C1483 C1482 1.367 . S
C1483 C1491 1.433 . S
C1484 H1480 0.929 . S
C1484 C1486 1.378 . S
C1484 C1488 1.350 . S
C1485 C1488 1.463 . S
C1485 C1490 1.350 . S
C1485 N1493 1.427 . S
C1486 H1477 0.930 . S
C1486 C1484 1.378 . S
C1486 C1487 1.367 . S
C1487 C1486 1.367 . S
C1487 C1489 1.433 . S
C1488 C1484 1.350 . S
C1488 C1485 1.463 . S
C1488 N1492 1.427 . S
C1489 H1479 0.929 . S
C1489 C1487 1.433 . S
C1489 N1492 1.384 . S
C1490 H1481 0.929 . S
C1490 C1482 1.378 . S
C1490 C1485 1.350 . S
C1491 H1478 0.929 . S
C1491 C1483 1.433 . S
C1491 N1493 1.384 . S
N1492 C1488 1.427 . S
N1492 C1489 1.384 . S
N1493 C1485 1.427 . S
N1493 C1491 1.384 . S
H1494 C1500 0.930 . S
H1495 C1504 0.930 . S
H1496 C1509 0.929 . S
H1497 C1507 0.929 . S
H1498 C1502 0.929 . S
H1499 C1508 0.929 . S
C1500 H1494 0.930 . S
C1500 C1501 1.367 . S
C1500 C1508 1.378 . S
C1501 C1500 1.367 . S
C1501 C1509 1.433 . S
C1502 H1498 0.929 . S
C1502 C1504 1.378 . S
C1502 C1506 1.350 . S
C1503 C1506 1.463 . S
C1503 C1508 1.350 . S
C1503 N1511 1.427 . S
C1504 H1495 0.930 . S
C1504 C1502 1.378 . S
C1504 C1505 1.367 . S
C1505 C1504 1.367 . S
C1505 C1507 1.433 . S
C1506 C1502 1.350 . S
C1506 C1503 1.463 . S
C1506 N1510 1.427 . S
C1507 H1497 0.929 . S
C1507 C1505 1.433 . S
C1507 N1510 1.384 . S
C1508 H1499 0.929 . S
C1508 C1500 1.378 . S
C1508 C1503 1.350 . S
C1509 H1496 0.929 . S
C1509 C1501 1.433 . S
C1509 N1511 1.384 . S
N1510 C1506 1.427 . S
N1510 C1507 1.384 . S
N1511 C1503 1.427 . S
N1511 C1509 1.384 . S
H1512 C1518 0.930 . S
H1513 C1522 0.930 . S
H1514 C1527 0.929 . S
H1515 C1525 0.929 . S
H1516 C1520 0.929 . S
H1517 C1526 0.929 . S
C1518 H1512 0.930 . S
C1518 C1519 1.367 . S
C1518 C1526 1.378 . S
C1519 C1518 1.367 . S
C1519 C1527 1.433 . S
C1520 H1516 0.929 . S
C1520 C1522 1.378 . S
C1520 C1524 1.350 . S
C1521 C1524 1.463 . S
C1521 C1526 1.350 . S
C1521 N1529 1.427 . S
C1522 H1513 0.930 . S
C1522 C1520 1.378 . S
C1522 C1523 1.367 . S
C1523 C1522 1.367 . S
C1523 C1525 1.433 . S
C1524 C1520 1.350 . S
C1524 C1521 1.463 . S
C1524 N1528 1.427 . S
C1525 H1515 0.929 . S
C1525 C1523 1.433 . S
C1525 N1528 1.384 . S
C1526 H1517 0.929 . S
C1526 C1518 1.378 . S
C1526 C1521 1.350 . S
C1527 H1514 0.929 . S
C1527 C1519 1.433 . S
C1527 N1529 1.384 . S
N1528 C1524 1.427 . S
N1528 C1525 1.384 . S
N1529 C1521 1.427 . S
N1529 C1527 1.384 . S
H1530 C1536 0.930 . S
H1531 C1540 0.930 . S
H1532 C1545 0.929 . S
H1533 C1543 0.929 . S
H1534 C1538 0.929 . S
H1535 C1544 0.929 . S
C1536 H1530 0.930 . S
C1536 C1537 1.367 . S
C1536 C1544 1.378 . S
C1537 C1536 1.367 . S
C1537 C1545 1.433 . S
C1538 H1534 0.929 . S
C1538 C1540 1.378 . S
C1538 C1542 1.350 . S
C1539 C1542 1.463 . S
C1539 C1544 1.350 . S
C1539 N1547 1.427 . S
C1540 H1531 0.930 . S
C1540 C1538 1.378 . S
C1540 C1541 1.367 . S
C1541 C1540 1.367 . S
C1541 C1543 1.433 . S
C1542 C1538 1.350 . S
C1542 C1539 1.463 . S
C1542 N1546 1.427 . S
C1543 H1533 0.929 . S
C1543 C1541 1.433 . S
C1543 N1546 1.384 . S
C1544 H1535 0.929 . S
C1544 C1536 1.378 . S
C1544 C1539 1.350 . S
C1545 H1532 0.929 . S
C1545 C1537 1.433 . S
C1545 N1547 1.384 . S
N1546 C1542 1.427 . S
N1546 C1543 1.384 . S
N1547 C1539 1.427 . S
N1547 C1545 1.384 . S
H1548 C1554 0.930 . S
H1549 C1558 0.930 . S
H1550 C1563 0.929 . S
H1551 C1561 0.929 . S
H1552 C1556 0.929 . S
H1553 C1562 0.929 . S
C1554 H1548 0.930 . S
C1554 C1555 1.367 . S
C1554 C1562 1.378 . S
C1555 C1554 1.367 . S
C1555 C1563 1.433 . S
C1556 H1552 0.929 . S
C1556 C1558 1.378 . S
C1556 C1560 1.350 . S
C1557 C1560 1.463 . S
C1557 C1562 1.350 . S
C1557 N1565 1.427 . S
C1558 H1549 0.930 . S
C1558 C1556 1.378 . S
C1558 C1559 1.367 . S
C1559 C1558 1.367 . S
C1559 C1561 1.433 . S
C1560 C1556 1.350 . S
C1560 C1557 1.463 . S
C1560 N1564 1.427 . S
C1561 H1551 0.929 . S
C1561 C1559 1.433 . S
C1561 N1564 1.384 . S
C1562 H1553 0.929 . S
C1562 C1554 1.378 . S
C1562 C1557 1.350 . S
C1563 H1550 0.929 . S
C1563 C1555 1.433 . S
C1563 N1565 1.384 . S
N1564 C1560 1.427 . S
N1564 C1561 1.384 . S
N1565 C1557 1.427 . S
N1565 C1563 1.384 . S
H1566 C1572 0.930 . S
H1567 C1576 0.930 . S
H1568 C1581 0.929 . S
H1569 C1579 0.929 . S
H1570 C1574 0.929 . S
H1571 C1580 0.929 . S
C1572 H1566 0.930 . S
C1572 C1573 1.367 . S
C1572 C1580 1.378 . S
C1573 C1572 1.367 . S
C1573 C1581 1.433 . S
C1574 H1570 0.929 . S
C1574 C1576 1.378 . S
C1574 C1578 1.350 . S
C1575 C1578 1.463 . S
C1575 C1580 1.350 . S
C1575 N1583 1.427 . S
C1576 H1567 0.930 . S
C1576 C1574 1.378 . S
C1576 C1577 1.367 . S
C1577 C1576 1.367 . S
C1577 C1579 1.433 . S
C1578 C1574 1.350 . S
C1578 C1575 1.463 . S
C1578 N1582 1.427 . S
C1579 H1569 0.929 . S
C1579 C1577 1.433 . S
C1579 N1582 1.384 . S
C1580 H1571 0.929 . S
C1580 C1572 1.378 . S
C1580 C1575 1.350 . S
C1581 H1568 0.929 . S
C1581 C1573 1.433 . S
C1581 N1583 1.384 . S
N1582 C1578 1.427 . S
N1582 C1579 1.384 . S
N1583 C1575 1.427 . S
N1583 C1581 1.384 . S
H1584 C1590 0.930 . S
H1585 C1594 0.930 . S
H1586 C1599 0.929 . S
H1587 C1597 0.929 . S
H1588 C1592 0.929 . S
H1589 C1598 0.929 . S
C1590 H1584 0.930 . S
C1590 C1591 1.367 . S
C1590 C1598 1.378 . S
C1591 C1590 1.367 . S
C1591 C1599 1.433 . S
C1592 H1588 0.929 . S
C1592 C1594 1.378 . S
C1592 C1596 1.350 . S
C1593 C1596 1.463 . S
C1593 C1598 1.350 . S
C1593 N1601 1.427 . S
C1594 H1585 0.930 . S
C1594 C1592 1.378 . S
C1594 C1595 1.367 . S
C1595 C1594 1.367 . S
C1595 C1597 1.433 . S
C1596 C1592 1.350 . S
C1596 C1593 1.463 . S
C1596 N1600 1.427 . S
C1597 H1587 0.929 . S
C1597 C1595 1.433 . S
C1597 N1600 1.384 . S
C1598 H1589 0.929 . S
C1598 C1590 1.378 . S
C1598 C1593 1.350 . S
C1599 H1586 0.929 . S
C1599 C1591 1.433 . S
C1599 N1601 1.384 . S
N1600 C1596 1.427 . S
N1600 C1597 1.384 . S
N1601 C1593 1.427 . S
N1601 C1599 1.384 . S
H1602 C1608 0.930 . S
H1603 C1612 0.930 . S
H1604 C1617 0.929 . S
H1605 C1615 0.929 . S
H1606 C1610 0.929 . S
H1607 C1616 0.929 . S
C1608 H1602 0.930 . S
C1608 C1609 1.367 . S
C1608 C1616 1.378 . S
C1609 C1608 1.367 . S
C1609 C1617 1.433 . S
C1610 H1606 0.929 . S
C1610 C1612 1.378 . S
C1610 C1614 1.350 . S
C1611 C1614 1.463 . S
C1611 C1616 1.350 . S
C1611 N1619 1.427 . S
C1612 H1603 0.930 . S
C1612 C1610 1.378 . S
C1612 C1613 1.367 . S
C1613 C1612 1.367 . S
C1613 C1615 1.433 . S
C1614 C1610 1.350 . S
C1614 C1611 1.463 . S
C1614 N1618 1.427 . S
C1615 H1605 0.929 . S
C1615 C1613 1.433 . S
C1615 N1618 1.384 . S
C1616 H1607 0.929 . S
C1616 C1608 1.378 . S
C1616 C1611 1.350 . S
C1617 H1604 0.929 . S
C1617 C1609 1.433 . S
C1617 N1619 1.384 . S
N1618 C1614 1.427 . S
N1618 C1615 1.384 . S
N1619 C1611 1.427 . S
N1619 C1617 1.384 . S
H1620 C1626 0.930 . S
H1621 C1630 0.930 . S
H1622 C1635 0.929 . S
H1623 C1633 0.929 . S
H1624 C1628 0.929 . S
H1625 C1634 0.929 . S
C1626 H1620 0.930 . S
C1626 C1627 1.367 . S
C1626 C1634 1.378 . S
C1627 C1626 1.367 . S
C1627 C1635 1.433 . S
C1628 H1624 0.929 . S
C1628 C1630 1.378 . S
C1628 C1632 1.350 . S
C1629 C1632 1.463 . S
C1629 C1634 1.350 . S
C1629 N1637 1.427 . S
C1630 H1621 0.930 . S
C1630 C1628 1.378 . S
C1630 C1631 1.367 . S
C1631 C1630 1.367 . S
C1631 C1633 1.433 . S
C1632 C1628 1.350 . S
C1632 C1629 1.463 . S
C1632 N1636 1.427 . S
C1633 H1623 0.929 . S
C1633 C1631 1.433 . S
C1633 N1636 1.384 . S
C1634 H1625 0.929 . S
C1634 C1626 1.378 . S
C1634 C1629 1.350 . S
C1635 H1622 0.929 . S
C1635 C1627 1.433 . S
C1635 N1637 1.384 . S
N1636 C1632 1.427 . S
N1636 C1633 1.384 . S
N1637 C1629 1.427 . S
N1637 C1635 1.384 . S
H1638 C1644 0.930 . S
H1639 C1648 0.930 . S
H1640 C1653 0.929 . S
H1641 C1651 0.929 . S
H1642 C1646 0.929 . S
H1643 C1652 0.929 . S
C1644 H1638 0.930 . S
C1644 C1645 1.367 . S
C1644 C1652 1.378 . S
C1645 C1644 1.367 . S
C1645 C1653 1.433 . S
C1646 H1642 0.929 . S
C1646 C1648 1.378 . S
C1646 C1650 1.350 . S
C1647 C1650 1.463 . S
C1647 C1652 1.350 . S
C1647 N1655 1.427 . S
C1648 H1639 0.930 . S
C1648 C1646 1.378 . S
C1648 C1649 1.367 . S
C1649 C1648 1.367 . S
C1649 C1651 1.433 . S
C1650 C1646 1.350 . S
C1650 C1647 1.463 . S
C1650 N1654 1.427 . S
C1651 H1641 0.929 . S
C1651 C1649 1.433 . S
C1651 N1654 1.384 . S
C1652 H1643 0.929 . S
C1652 C1644 1.378 . S
C1652 C1647 1.350 . S
C1653 H1640 0.929 . S
C1653 C1645 1.433 . S
C1653 N1655 1.384 . S
N1654 C1650 1.427 . S
N1654 C1651 1.384 . S
N1655 C1647 1.427 . S
N1655 C1653 1.384 . S
H1656 C1662 0.930 . S
H1657 C1666 0.930 . S
H1658 C1671 0.929 . S
H1659 C1669 0.929 . S
H1660 C1664 0.929 . S
H1661 C1670 0.929 . S
C1662 H1656 0.930 . S
C1662 C1663 1.367 . S
C1662 C1670 1.378 . S
C1663 C1662 1.367 . S
C1663 C1671 1.433 . S
C1664 H1660 0.929 . S
C1664 C1666 1.378 . S
C1664 C1668 1.350 . S
C1665 C1668 1.463 . S
C1665 C1670 1.350 . S
C1665 N1673 1.427 . S
C1666 H1657 0.930 . S
C1666 C1664 1.378 . S
C1666 C1667 1.367 . S
C1667 C1666 1.367 . S
C1667 C1669 1.433 . S
C1668 C1664 1.350 . S
C1668 C1665 1.463 . S
C1668 N1672 1.427 . S
C1669 H1659 0.929 . S
C1669 C1667 1.433 . S
C1669 N1672 1.384 . S
C1670 H1661 0.929 . S
C1670 C1662 1.378 . S
C1670 C1665 1.350 . S
C1671 H1658 0.929 . S
C1671 C1663 1.433 . S
C1671 N1673 1.384 . S
N1672 C1668 1.427 . S
N1672 C1669 1.384 . S
N1673 C1665 1.427 . S
N1673 C1671 1.384 . S
H1674 C1680 0.930 . S
H1675 C1684 0.930 . S
H1676 C1689 0.929 . S
H1677 C1687 0.929 . S
H1678 C1682 0.929 . S
H1679 C1688 0.929 . S
C1680 H1674 0.930 . S
C1680 C1681 1.367 . S
C1680 C1688 1.378 . S
C1681 C1680 1.367 . S
C1681 C1689 1.433 . S
C1682 H1678 0.929 . S
C1682 C1684 1.378 . S
C1682 C1686 1.350 . S
C1683 C1686 1.463 . S
C1683 C1688 1.350 . S
C1683 N1691 1.427 . S
C1684 H1675 0.930 . S
C1684 C1682 1.378 . S
C1684 C1685 1.367 . S
C1685 C1684 1.367 . S
C1685 C1687 1.433 . S
C1686 C1682 1.350 . S
C1686 C1683 1.463 . S
C1686 N1690 1.427 . S
C1687 H1677 0.929 . S
C1687 C1685 1.433 . S
C1687 N1690 1.384 . S
C1688 H1679 0.929 . S
C1688 C1680 1.378 . S
C1688 C1683 1.350 . S
C1689 H1676 0.929 . S
C1689 C1681 1.433 . S
C1689 N1691 1.384 . S
N1690 C1686 1.427 . S
N1690 C1687 1.384 . S
N1691 C1683 1.427 . S
N1691 C1689 1.384 . S
H1692 C1698 0.930 . S
H1693 C1702 0.930 . S
H1694 C1707 0.929 . S
H1695 C1705 0.929 . S
H1696 C1700 0.929 . S
H1697 C1706 0.929 . S
C1698 H1692 0.930 . S
C1698 C1699 1.367 . S
C1698 C1706 1.378 . S
C1699 C1698 1.367 . S
C1699 C1707 1.433 . S
C1700 H1696 0.929 . S
C1700 C1702 1.378 . S
C1700 C1704 1.350 . S
C1701 C1704 1.463 . S
C1701 C1706 1.350 . S
C1701 N1709 1.427 . S
C1702 H1693 0.930 . S
C1702 C1700 1.378 . S
C1702 C1703 1.367 . S
C1703 C1702 1.367 . S
C1703 C1705 1.433 . S
C1704 C1700 1.350 . S
C1704 C1701 1.463 . S
C1704 N1708 1.427 . S
C1705 H1695 0.929 . S
C1705 C1703 1.433 . S
C1705 N1708 1.384 . S
C1706 H1697 0.929 . S
C1706 C1698 1.378 . S
C1706 C1701 1.350 . S
C1707 H1694 0.929 . S
C1707 C1699 1.433 . S
C1707 N1709 1.384 . S
N1708 C1704 1.427 . S
N1708 C1705 1.384 . S
N1709 C1701 1.427 . S
N1709 C1707 1.384 . S
H1710 C1716 0.930 . S
H1711 C1720 0.930 . S
H1712 C1725 0.929 . S
H1713 C1723 0.929 . S
H1714 C1718 0.929 . S
H1715 C1724 0.929 . S
C1716 H1710 0.930 . S
C1716 C1717 1.367 . S
C1716 C1724 1.378 . S
C1717 C1716 1.367 . S
C1717 C1725 1.433 . S
C1718 H1714 0.929 . S
C1718 C1720 1.378 . S
C1718 C1722 1.350 . S
C1719 C1722 1.463 1_545 S
C1719 C1724 1.350 . S
C1719 N1727 1.427 1_545 S
C1720 H1711 0.930 . S
C1720 C1718 1.378 . S
C1720 C1721 1.367 . S
C1721 C1720 1.367 . S
C1721 C1723 1.433 . S
C1722 C1718 1.350 . S
C1722 C1719 1.463 1_565 S
C1722 N1726 1.427 1_565 S
C1723 H1713 0.929 . S
C1723 C1721 1.433 . S
C1723 N1726 1.384 1_565 S
C1724 H1715 0.929 . S
C1724 C1716 1.378 . S
C1724 C1719 1.350 . S
C1725 H1712 0.929 . S
C1725 C1717 1.433 . S
C1725 N1727 1.384 1_545 S
N1726 C1722 1.427 1_545 S
N1726 C1723 1.384 1_545 S
N1727 C1719 1.427 1_565 S
N1727 C1725 1.384 1_565 S
H1728 C1734 0.930 . S
H1729 C1738 0.930 . S
H1730 C1743 0.929 . S
H1731 C1741 0.929 . S
H1732 C1736 0.929 . S
H1733 C1742 0.929 . S
C1734 H1728 0.930 . S
C1734 C1735 1.367 . S
C1734 C1742 1.378 . S
C1735 C1734 1.367 . S
C1735 C1743 1.433 . S
C1736 H1732 0.929 . S
C1736 C1738 1.378 . S
C1736 C1740 1.350 . S
C1737 C1740 1.463 1_455 S
C1737 C1742 1.350 . S
C1737 N1745 1.437 1_455 S
C1738 H1729 0.930 . S
C1738 C1736 1.378 . S
C1738 C1739 1.367 . S
C1739 C1738 1.367 . S
C1739 C1741 1.433 . S
C1740 C1736 1.350 . S
C1740 C1737 1.463 1_655 S
C1740 N1744 1.437 1_655 S
C1741 H1731 0.929 . S
C1741 C1739 1.433 . S
C1741 N1744 1.364 1_655 S
C1742 H1733 0.929 . S
C1742 C1734 1.378 . S
C1742 C1737 1.350 . S
C1743 H1730 0.929 . S
C1743 C1735 1.433 . S
C1743 N1745 1.364 1_455 S
N1744 C1740 1.437 1_455 S
N1744 C1741 1.364 1_455 S
N1745 C1737 1.437 1_655 S
N1745 C1743 1.364 1_655 S
H1746 C1752 0.930 . S
H1747 C1756 0.930 . S
H1748 C1761 0.929 . S
H1749 C1759 0.929 . S
H1750 C1754 0.929 . S
H1751 C1760 0.929 . S
C1752 H1746 0.930 . S
C1752 C1753 1.367 . S
C1752 C1760 1.378 . S
C1753 C1752 1.367 . S
C1753 C1761 1.433 . S
C1754 H1750 0.929 . S
C1754 C1756 1.378 . S
C1754 C1758 1.350 . S
C1755 C1758 1.463 . S
C1755 C1760 1.350 . S
C1755 N1763 1.427 . S
C1756 H1747 0.930 . S
C1756 C1754 1.378 . S
C1756 C1757 1.367 . S
C1757 C1756 1.367 . S
C1757 C1759 1.433 . S
C1758 C1754 1.350 . S
C1758 C1755 1.463 . S
C1758 N1762 1.427 . S
C1759 H1749 0.929 . S
C1759 C1757 1.433 . S
C1759 N1762 1.384 . S
C1760 H1751 0.929 . S
C1760 C1752 1.378 . S
C1760 C1755 1.350 . S
C1761 H1748 0.929 . S
C1761 C1753 1.433 . S
C1761 N1763 1.384 . S
N1762 C1758 1.427 . S
N1762 C1759 1.384 . S
N1763 C1755 1.427 . S
N1763 C1761 1.384 . S
H1764 C1770 0.930 1_545 S
H1765 C1774 0.930 1_565 S
H1766 C1779 0.929 . S
H1767 C1777 0.929 . S
H1768 C1772 0.929 . S
H1769 C1778 0.929 . S
C1770 H1764 0.930 1_565 S
C1770 C1771 1.367 . S
C1770 C1778 1.378 1_565 S
C1771 C1770 1.367 . S
C1771 C1779 1.433 . S
C1772 H1768 0.929 . S
C1772 C1774 1.378 1_565 S
C1772 C1776 1.350 1_565 S
C1773 C1776 1.463 1_565 S
C1773 C1778 1.350 1_565 S
C1773 N1781 1.427 . S
C1774 H1765 0.930 1_545 S
C1774 C1772 1.378 1_545 S
C1774 C1775 1.367 . S
C1775 C1774 1.367 . S
C1775 C1777 1.433 . S
C1776 C1772 1.350 1_545 S
C1776 C1773 1.463 1_545 S
C1776 N1780 1.427 . S
C1777 H1767 0.929 . S
C1777 C1775 1.433 . S
C1777 N1780 1.384 . S
C1778 H1769 0.929 . S
C1778 C1770 1.378 1_545 S
C1778 C1773 1.350 1_545 S
C1779 H1766 0.929 . S
C1779 C1771 1.433 . S
C1779 N1781 1.384 . S
N1780 C1776 1.427 . S
N1780 C1777 1.384 . S
N1781 C1773 1.427 . S
N1781 C1779 1.384 . S
H1782 C1788 0.934 1_655 S
H1783 C1792 0.934 1_455 S
H1784 C1797 0.929 . S
H1785 C1795 0.929 . S
H1786 C1790 0.929 . S
H1787 C1796 0.929 . S
C1788 H1782 0.934 1_455 S
C1788 C1789 1.360 . S
C1788 C1796 1.381 1_455 S
C1789 C1788 1.360 . S
C1789 C1797 1.433 . S
C1790 H1786 0.929 . S
C1790 C1792 1.381 1_455 S
C1790 C1794 1.350 1_455 S
C1791 C1794 1.463 1_455 S
C1791 C1796 1.350 1_455 S
C1791 N1799 1.427 . S
C1792 H1783 0.934 1_655 S
C1792 C1790 1.381 1_655 S
C1792 C1793 1.360 . S
C1793 C1792 1.360 . S
C1793 C1795 1.433 . S
C1794 C1790 1.350 1_655 S
C1794 C1791 1.463 1_655 S
C1794 N1798 1.427 . S
C1795 H1785 0.929 . S
C1795 C1793 1.433 . S
C1795 N1798 1.384 . S
C1796 H1787 0.929 . S
C1796 C1788 1.381 1_655 S
C1796 C1791 1.350 1_655 S
C1797 H1784 0.929 . S
C1797 C1789 1.433 . S
C1797 N1799 1.384 . S
N1798 C1794 1.427 . S
N1798 C1795 1.384 . S
N1799 C1791 1.427 . S
N1799 C1797 1.384 . S
H1800 C1806 0.930 . S
H1801 C1810 0.930 . S
H1802 C1815 0.929 . S
H1803 C1813 0.929 . S
H1804 C1808 0.929 . S
H1805 C1814 0.929 . S
C1806 H1800 0.930 . S
C1806 C1807 1.367 . S
C1806 C1814 1.378 . S
C1807 C1806 1.367 . S
C1807 C1815 1.433 . S
C1808 H1804 0.929 . S
C1808 C1810 1.378 . S
C1808 C1812 1.350 . S
C1809 C1812 1.463 . S
C1809 C1814 1.350 . S
C1809 N1817 1.427 . S
C1810 H1801 0.930 . S
C1810 C1808 1.378 . S
C1810 C1811 1.367 . S
C1811 C1810 1.367 . S
C1811 C1813 1.433 . S
C1812 C1808 1.350 . S
C1812 C1809 1.463 . S
C1812 N1816 1.427 . S
C1813 H1803 0.929 . S
C1813 C1811 1.433 . S
C1813 N1816 1.384 . S
C1814 H1805 0.929 . S
C1814 C1806 1.378 . S
C1814 C1809 1.350 . S
C1815 H1802 0.929 . S
C1815 C1807 1.433 . S
C1815 N1817 1.384 . S
N1816 C1812 1.427 . S
N1816 C1813 1.384 . S
N1817 C1809 1.427 . S
N1817 C1815 1.384 . S
H1818 C1824 0.930 . S
H1819 C1828 0.930 . S
H1820 C1833 0.929 . S
H1821 C1831 0.929 . S
H1822 C1826 0.929 . S
H1823 C1832 0.929 . S
C1824 H1818 0.930 . S
C1824 C1825 1.367 . S
C1824 C1832 1.378 . S
C1825 C1824 1.367 . S
C1825 C1833 1.433 . S
C1826 H1822 0.929 . S
C1826 C1828 1.378 . S
C1826 C1830 1.350 . S
C1827 C1830 1.463 . S
C1827 C1832 1.350 . S
C1827 N1835 1.427 . S
C1828 H1819 0.930 . S
C1828 C1826 1.378 . S
C1828 C1829 1.367 . S
C1829 C1828 1.367 . S
C1829 C1831 1.433 . S
C1830 C1826 1.350 . S
C1830 C1827 1.463 . S
C1830 N1834 1.427 . S
C1831 H1821 0.929 . S
C1831 C1829 1.433 . S
C1831 N1834 1.384 . S
C1832 H1823 0.929 . S
C1832 C1824 1.378 . S
C1832 C1827 1.350 . S
C1833 H1820 0.929 . S
C1833 C1825 1.433 . S
C1833 N1835 1.384 . S
N1834 C1830 1.427 . S
N1834 C1831 1.384 . S
N1835 C1827 1.427 . S
N1835 C1833 1.384 . S
H1836 C1842 0.930 . S
H1837 C1846 0.930 . S
H1838 C1851 0.929 . S
H1839 C1849 0.929 . S
H1840 C1844 0.929 . S
H1841 C1850 0.929 . S
C1842 H1836 0.930 . S
C1842 C1843 1.367 . S
C1842 C1850 1.378 . S
C1843 C1842 1.367 . S
C1843 C1851 1.433 . S
C1844 H1840 0.929 . S
C1844 C1846 1.378 . S
C1844 C1848 1.350 . S
C1845 C1848 1.463 . S
C1845 C1850 1.350 . S
C1845 N1853 1.427 . S
C1846 H1837 0.930 . S
C1846 C1844 1.378 . S
C1846 C1847 1.367 . S
C1847 C1846 1.367 . S
C1847 C1849 1.433 . S
C1848 C1844 1.350 . S
C1848 C1845 1.463 . S
C1848 N1852 1.427 . S
C1849 H1839 0.929 . S
C1849 C1847 1.433 . S
C1849 N1852 1.384 . S
C1850 H1841 0.929 . S
C1850 C1842 1.378 . S
C1850 C1845 1.350 . S
C1851 H1838 0.929 . S
C1851 C1843 1.433 . S
C1851 N1853 1.384 . S
N1852 C1848 1.427 . S
N1852 C1849 1.384 . S
N1853 C1845 1.427 . S
N1853 C1851 1.384 . S
H1854 C1860 0.930 . S
H1855 C1864 0.930 . S
H1856 C1869 0.929 . S
H1857 C1867 0.929 . S
H1858 C1862 0.929 . S
H1859 C1868 0.929 . S
C1860 H1854 0.930 . S
C1860 C1861 1.367 . S
C1860 C1868 1.378 . S
C1861 C1860 1.367 . S
C1861 C1869 1.433 . S
C1862 H1858 0.929 . S
C1862 C1864 1.378 . S
C1862 C1866 1.350 . S
C1863 C1866 1.463 . S
C1863 C1868 1.350 . S
C1863 N1871 1.427 . S
C1864 H1855 0.930 . S
C1864 C1862 1.378 . S
C1864 C1865 1.367 . S
C1865 C1864 1.367 . S
C1865 C1867 1.433 . S
C1866 C1862 1.350 . S
C1866 C1863 1.463 . S
C1866 N1870 1.427 . S
C1867 H1857 0.929 . S
C1867 C1865 1.433 . S
C1867 N1870 1.384 . S
C1868 H1859 0.929 . S
C1868 C1860 1.378 . S
C1868 C1863 1.350 . S
C1869 H1856 0.929 . S
C1869 C1861 1.433 . S
C1869 N1871 1.384 . S
N1870 C1866 1.427 . S
N1870 C1867 1.384 . S
N1871 C1863 1.427 . S
N1871 C1869 1.384 . S
H1872 C1878 0.930 . S
H1873 C1882 0.930 . S
H1874 C1887 0.929 . S
H1875 C1885 0.929 . S
H1876 C1880 0.929 . S
H1877 C1886 0.929 . S
C1878 H1872 0.930 . S
C1878 C1879 1.367 . S
C1878 C1886 1.378 . S
C1879 C1878 1.367 . S
C1879 C1887 1.433 . S
C1880 H1876 0.929 . S
C1880 C1882 1.378 . S
C1880 C1884 1.350 . S
C1881 C1884 1.463 . S
C1881 C1886 1.350 . S
C1881 N1889 1.427 . S
C1882 H1873 0.930 . S
C1882 C1880 1.378 . S
C1882 C1883 1.367 . S
C1883 C1882 1.367 . S
C1883 C1885 1.433 . S
C1884 C1880 1.350 . S
C1884 C1881 1.463 . S
C1884 N1888 1.427 . S
C1885 H1875 0.929 . S
C1885 C1883 1.433 . S
C1885 N1888 1.384 . S
C1886 H1877 0.929 . S
C1886 C1878 1.378 . S
C1886 C1881 1.350 . S
C1887 H1874 0.929 . S
C1887 C1879 1.433 . S
C1887 N1889 1.384 . S
N1888 C1884 1.427 . S
N1888 C1885 1.384 . S
N1889 C1881 1.427 . S
N1889 C1887 1.384 . S
H1890 C1896 0.930 . S
H1891 C1900 0.930 . S
H1892 C1905 0.929 . S
H1893 C1903 0.929 . S
H1894 C1898 0.929 . S
H1895 C1904 0.929 . S
C1896 H1890 0.930 . S
C1896 C1897 1.367 . S
C1896 C1904 1.378 . S
C1897 C1896 1.367 . S
C1897 C1905 1.433 . S
C1898 H1894 0.929 . S
C1898 C1900 1.378 . S
C1898 C1902 1.350 . S
C1899 C1902 1.463 . S
C1899 C1904 1.350 . S
C1899 N1907 1.427 . S
C1900 H1891 0.930 . S
C1900 C1898 1.378 . S
C1900 C1901 1.367 . S
C1901 C1900 1.367 . S
C1901 C1903 1.433 . S
C1902 C1898 1.350 . S
C1902 C1899 1.463 . S
C1902 N1906 1.427 . S
C1903 H1893 0.929 . S
C1903 C1901 1.433 . S
C1903 N1906 1.384 . S
C1904 H1895 0.929 . S
C1904 C1896 1.378 . S
C1904 C1899 1.350 . S
C1905 H1892 0.929 . S
C1905 C1897 1.433 . S
C1905 N1907 1.384 . S
N1906 C1902 1.427 . S
N1906 C1903 1.384 . S
N1907 C1899 1.427 . S
N1907 C1905 1.384 . S
H1908 C1914 0.930 . S
H1909 C1918 0.930 . S
H1910 C1923 0.929 . S
H1911 C1921 0.929 . S
H1912 C1916 0.929 . S
H1913 C1922 0.929 . S
C1914 H1908 0.930 . S
C1914 C1915 1.367 . S
C1914 C1922 1.378 . S
C1915 C1914 1.367 . S
C1915 C1923 1.433 . S
C1916 H1912 0.929 . S
C1916 C1918 1.378 . S
C1916 C1920 1.350 . S
C1917 C1920 1.463 . S
C1917 C1922 1.350 . S
C1917 N1925 1.427 . S
C1918 H1909 0.930 . S
C1918 C1916 1.378 . S
C1918 C1919 1.367 . S
C1919 C1918 1.367 . S
C1919 C1921 1.433 . S
C1920 C1916 1.350 . S
C1920 C1917 1.463 . S
C1920 N1924 1.427 . S
C1921 H1911 0.929 . S
C1921 C1919 1.433 . S
C1921 N1924 1.384 . S
C1922 H1913 0.929 . S
C1922 C1914 1.378 . S
C1922 C1917 1.350 . S
C1923 H1910 0.929 . S
C1923 C1915 1.433 . S
C1923 N1925 1.384 . S
N1924 C1920 1.427 . S
N1924 C1921 1.384 . S
N1925 C1917 1.427 . S
N1925 C1923 1.384 . S
H1926 C1932 0.930 . S
H1927 C1936 0.930 . S
H1928 C1941 0.929 . S
H1929 C1939 0.929 . S
H1930 C1934 0.929 . S
H1931 C1940 0.929 . S
C1932 H1926 0.930 . S
C1932 C1933 1.367 . S
C1932 C1940 1.378 . S
C1933 C1932 1.367 . S
C1933 C1941 1.433 . S
C1934 H1930 0.929 . S
C1934 C1936 1.378 . S
C1934 C1938 1.350 . S
C1935 C1938 1.463 . S
C1935 C1940 1.350 . S
C1935 N1943 1.427 . S
C1936 H1927 0.930 . S
C1936 C1934 1.378 . S
C1936 C1937 1.367 . S
C1937 C1936 1.367 . S
C1937 C1939 1.433 . S
C1938 C1934 1.350 . S
C1938 C1935 1.463 . S
C1938 N1942 1.427 . S
C1939 H1929 0.929 . S
C1939 C1937 1.433 . S
C1939 N1942 1.384 . S
C1940 H1931 0.929 . S
C1940 C1932 1.378 . S
C1940 C1935 1.350 . S
C1941 H1928 0.929 . S
C1941 C1933 1.433 . S
C1941 N1943 1.384 . S
N1942 C1938 1.427 . S
N1942 C1939 1.384 . S
N1943 C1935 1.427 . S
N1943 C1941 1.384 . S
H1944 C1950 0.930 . S
H1945 C1954 0.930 . S
H1946 C1959 0.929 . S
H1947 C1957 0.929 . S
H1948 C1952 0.929 . S
H1949 C1958 0.929 . S
C1950 H1944 0.930 . S
C1950 C1951 1.367 . S
C1950 C1958 1.378 . S
C1951 C1950 1.367 . S
C1951 C1959 1.433 . S
C1952 H1948 0.929 . S
C1952 C1954 1.378 . S
C1952 C1956 1.350 . S
C1953 C1956 1.463 . S
C1953 C1958 1.350 . S
C1953 N1961 1.427 . S
C1954 H1945 0.930 . S
C1954 C1952 1.378 . S
C1954 C1955 1.367 . S
C1955 C1954 1.367 . S
C1955 C1957 1.433 . S
C1956 C1952 1.350 . S
C1956 C1953 1.463 . S
C1956 N1960 1.427 . S
C1957 H1947 0.929 . S
C1957 C1955 1.433 . S
C1957 N1960 1.384 . S
C1958 H1949 0.929 . S
C1958 C1950 1.378 . S
C1958 C1953 1.350 . S
C1959 H1946 0.929 . S
C1959 C1951 1.433 . S
C1959 N1961 1.384 . S
N1960 C1956 1.427 . S
N1960 C1957 1.384 . S
N1961 C1953 1.427 . S
N1961 C1959 1.384 . S
H1962 C1968 0.930 . S
H1963 C1972 0.930 . S
H1964 C1977 0.929 . S
H1965 C1975 0.929 . S
H1966 C1970 0.929 . S
H1967 C1976 0.929 . S
C1968 H1962 0.930 . S
C1968 C1969 1.367 . S
C1968 C1976 1.378 . S
C1969 C1968 1.367 . S
C1969 C1977 1.433 . S
C1970 H1966 0.929 . S
C1970 C1972 1.378 . S
C1970 C1974 1.350 . S
C1971 C1974 1.463 . S
C1971 C1976 1.350 . S
C1971 N1979 1.427 . S
C1972 H1963 0.930 . S
C1972 C1970 1.378 . S
C1972 C1973 1.367 . S
C1973 C1972 1.367 . S
C1973 C1975 1.433 . S
C1974 C1970 1.350 . S
C1974 C1971 1.463 . S
C1974 N1978 1.427 . S
C1975 H1965 0.929 . S
C1975 C1973 1.433 . S
C1975 N1978 1.384 . S
C1976 H1967 0.929 . S
C1976 C1968 1.378 . S
C1976 C1971 1.350 . S
C1977 H1964 0.929 . S
C1977 C1969 1.433 . S
C1977 N1979 1.384 . S
N1978 C1974 1.427 . S
N1978 C1975 1.384 . S
N1979 C1971 1.427 . S
N1979 C1977 1.384 . S
H1980 C1986 0.930 . S
H1981 C1990 0.930 . S
H1982 C1995 0.929 . S
H1983 C1993 0.929 . S
H1984 C1988 0.929 . S
H1985 C1994 0.929 . S
C1986 H1980 0.930 . S
C1986 C1987 1.367 . S
C1986 C1994 1.378 . S
C1987 C1986 1.367 . S
C1987 C1995 1.433 . S
C1988 H1984 0.929 . S
C1988 C1990 1.378 . S
C1988 C1992 1.350 . S
C1989 C1992 1.463 . S
C1989 C1994 1.350 . S
C1989 N1997 1.427 . S
C1990 H1981 0.930 . S
C1990 C1988 1.378 . S
C1990 C1991 1.367 . S
C1991 C1990 1.367 . S
C1991 C1993 1.433 . S
C1992 C1988 1.350 . S
C1992 C1989 1.463 . S
C1992 N1996 1.427 . S
C1993 H1983 0.929 . S
C1993 C1991 1.433 . S
C1993 N1996 1.384 . S
C1994 H1985 0.929 . S
C1994 C1986 1.378 . S
C1994 C1989 1.350 . S
C1995 H1982 0.929 . S
C1995 C1987 1.433 . S
C1995 N1997 1.384 . S
N1996 C1992 1.427 . S
N1996 C1993 1.384 . S
N1997 C1989 1.427 . S
N1997 C1995 1.384 . S
H1998 C2004 0.930 . S
H1999 C2008 0.930 . S
H2000 C2013 0.929 . S
H2001 C2011 0.929 . S
H2002 C2006 0.929 . S
H2003 C2012 0.929 . S
C2004 H1998 0.930 . S
C2004 C2005 1.367 . S
C2004 C2012 1.378 . S
C2005 C2004 1.367 . S
C2005 C2013 1.433 . S
C2006 H2002 0.929 . S
C2006 C2008 1.378 . S
C2006 C2010 1.350 . S
C2007 C2010 1.463 . S
C2007 C2012 1.350 . S
C2007 N2015 1.427 . S
C2008 H1999 0.930 . S
C2008 C2006 1.378 . S
C2008 C2009 1.367 . S
C2009 C2008 1.367 . S
C2009 C2011 1.433 . S
C2010 C2006 1.350 . S
C2010 C2007 1.463 . S
C2010 N2014 1.427 . S
C2011 H2001 0.929 . S
C2011 C2009 1.433 . S
C2011 N2014 1.384 . S
C2012 H2003 0.929 . S
C2012 C2004 1.378 . S
C2012 C2007 1.350 . S
C2013 H2000 0.929 . S
C2013 C2005 1.433 . S
C2013 N2015 1.384 . S
N2014 C2010 1.427 . S
N2014 C2011 1.384 . S
N2015 C2007 1.427 . S
N2015 C2013 1.384 . S
H2016 C2022 0.930 . S
H2017 C2026 0.930 . S
H2018 C2031 0.929 . S
H2019 C2029 0.929 . S
H2020 C2024 0.929 . S
H2021 C2030 0.929 . S
C2022 H2016 0.930 . S
C2022 C2023 1.367 . S
C2022 C2030 1.378 . S
C2023 C2022 1.367 . S
C2023 C2031 1.433 . S
C2024 H2020 0.929 . S
C2024 C2026 1.378 . S
C2024 C2028 1.350 . S
C2025 C2028 1.463 1_455 S
C2025 C2030 1.350 . S
C2025 N2033 1.427 . S
C2026 H2017 0.930 . S
C2026 C2024 1.378 . S
C2026 C2027 1.367 . S
C2027 C2026 1.367 . S
C2027 C2029 1.433 . S
C2028 C2024 1.350 . S
C2028 C2025 1.463 1_655 S
C2028 N2032 1.427 . S
C2029 H2019 0.929 . S
C2029 C2027 1.433 . S
C2029 N2032 1.384 . S
C2030 H2021 0.929 . S
C2030 C2022 1.378 . S
C2030 C2025 1.350 . S
C2031 H2018 0.929 . S
C2031 C2023 1.433 . S
C2031 N2033 1.384 . S
N2032 C2028 1.427 . S
N2032 C2029 1.384 . S
N2033 C2025 1.427 . S
N2033 C2031 1.384 . S
H2034 C2040 0.930 . S
H2035 C2044 0.930 . S
H2036 C2049 0.929 . S
H2037 C2047 0.929 . S
H2038 C2042 0.929 . S
H2039 C2048 0.929 . S
C2040 H2034 0.930 . S
C2040 C2041 1.367 . S
C2040 C2048 1.378 . S
C2041 C2040 1.367 . S
C2041 C2049 1.433 . S
C2042 H2038 0.929 . S
C2042 C2044 1.378 . S
C2042 C2046 1.350 . S
C2043 C2046 1.463 . S
C2043 C2048 1.350 . S
C2043 N2051 1.427 . S
C2044 H2035 0.930 . S
C2044 C2042 1.378 . S
C2044 C2045 1.367 . S
C2045 C2044 1.367 . S
C2045 C2047 1.433 . S
C2046 C2042 1.350 . S
C2046 C2043 1.463 . S
C2046 N2050 1.427 . S
C2047 H2037 0.929 . S
C2047 C2045 1.433 . S
C2047 N2050 1.384 . S
C2048 H2039 0.929 . S
C2048 C2040 1.378 . S
C2048 C2043 1.350 . S
C2049 H2036 0.929 . S
C2049 C2041 1.433 . S
C2049 N2051 1.384 . S
N2050 C2046 1.427 . S
N2050 C2047 1.384 . S
N2051 C2043 1.427 . S
N2051 C2049 1.384 . S
H2052 C2058 0.930 . S
H2053 C2062 0.930 . S
H2054 C2067 0.929 . S
H2055 C2065 0.929 . S
H2056 C2060 0.929 . S
H2057 C2066 0.929 . S
C2058 H2052 0.930 . S
C2058 C2059 1.367 . S
C2058 C2066 1.378 . S
C2059 C2058 1.367 . S
C2059 C2067 1.433 . S
C2060 H2056 0.929 . S
C2060 C2062 1.378 . S
C2060 C2064 1.350 . S
C2061 C2064 1.463 1_545 S
C2061 C2066 1.350 . S
C2061 N2069 1.427 . S
C2062 H2053 0.930 . S
C2062 C2060 1.378 . S
C2062 C2063 1.367 . S
C2063 C2062 1.367 . S
C2063 C2065 1.433 . S
C2064 C2060 1.350 . S
C2064 C2061 1.463 1_565 S
C2064 N2068 1.427 . S
C2065 H2055 0.929 . S
C2065 C2063 1.433 . S
C2065 N2068 1.384 . S
C2066 H2057 0.929 . S
C2066 C2058 1.378 . S
C2066 C2061 1.350 . S
C2067 H2054 0.929 . S
C2067 C2059 1.433 . S
C2067 N2069 1.384 . S
N2068 C2064 1.427 . S
N2068 C2065 1.384 . S
N2069 C2061 1.427 . S
N2069 C2067 1.384 . S
H2070 C2076 0.930 . S
H2071 C2080 0.930 . S
H2072 C2085 0.929 . S
H2073 C2083 0.929 . S
H2074 C2078 0.929 . S
H2075 C2084 0.929 . S
C2076 H2070 0.930 . S
C2076 C2077 1.367 . S
C2076 C2084 1.378 . S
C2077 C2076 1.367 . S
C2077 C2085 1.433 . S
C2078 H2074 0.929 . S
C2078 C2080 1.378 . S
C2078 C2082 1.350 . S
C2079 C2082 1.463 1_565 S
C2079 C2084 1.350 . S
C2079 N2087 1.427 . S
C2080 H2071 0.930 . S
C2080 C2078 1.378 . S
C2080 C2081 1.367 . S
C2081 C2080 1.367 . S
C2081 C2083 1.433 . S
C2082 C2078 1.350 . S
C2082 C2079 1.463 1_545 S
C2082 N2086 1.427 . S
C2083 H2073 0.929 . S
C2083 C2081 1.433 . S
C2083 N2086 1.384 . S
C2084 H2075 0.929 . S
C2084 C2076 1.378 . S
C2084 C2079 1.350 . S
C2085 H2072 0.929 . S
C2085 C2077 1.433 . S
C2085 N2087 1.384 . S
N2086 C2082 1.427 . S
N2086 C2083 1.384 . S
N2087 C2079 1.427 . S
N2087 C2085 1.384 . S
H2088 C2094 0.930 . S
H2089 C2098 0.930 . S
H2090 C2103 0.929 . S
H2091 C2101 0.929 . S
H2092 C2096 0.929 1_655 S
H2093 C2102 0.929 1_455 S
C2094 H2088 0.930 . S
C2094 C2095 1.367 . S
C2094 C2102 1.378 . S
C2095 C2094 1.367 . S
C2095 C2103 1.433 . S
C2096 H2092 0.929 1_455 S
C2096 C2098 1.378 . S
C2096 C2100 1.350 . S
C2097 C2100 1.463 1_655 S
C2097 C2102 1.350 . S
C2097 N2105 1.427 . S
C2098 H2089 0.930 . S
C2098 C2096 1.378 . S
C2098 C2099 1.367 . S
C2099 C2098 1.367 . S
C2099 C2101 1.433 . S
C2100 C2096 1.350 . S
C2100 C2097 1.463 1_455 S
C2100 N2104 1.427 . S
C2101 H2091 0.929 . S
C2101 C2099 1.433 . S
C2101 N2104 1.384 . S
C2102 H2093 0.929 1_655 S
C2102 C2094 1.378 . S
C2102 C2097 1.350 . S
C2103 H2090 0.929 . S
C2103 C2095 1.433 . S
C2103 N2105 1.384 . S
N2104 C2100 1.427 . S
N2104 C2101 1.384 . S
N2105 C2097 1.427 . S
N2105 C2103 1.384 . S
H2106 C2112 0.930 . S
H2107 C2116 0.930 . S
H2108 C2121 0.929 . S
H2109 C2119 0.929 . S
H2110 C2114 0.929 . S
H2111 C2120 0.929 . S
C2112 H2106 0.930 . S
C2112 C2113 1.367 . S
C2112 C2120 1.378 . S
C2113 C2112 1.367 . S
C2113 C2121 1.433 . S
C2114 H2110 0.929 . S
C2114 C2116 1.378 . S
C2114 C2118 1.350 . S
C2115 C2118 1.463 . S
C2115 C2120 1.350 . S
C2115 N2123 1.427 . S
C2116 H2107 0.930 . S
C2116 C2114 1.378 . S
C2116 C2117 1.367 . S
C2117 C2116 1.367 . S
C2117 C2119 1.433 . S
C2118 C2114 1.350 . S
C2118 C2115 1.463 . S
C2118 N2122 1.427 . S
C2119 H2109 0.929 . S
C2119 C2117 1.433 . S
C2119 N2122 1.384 . S
C2120 H2111 0.929 . S
C2120 C2112 1.378 . S
C2120 C2115 1.350 . S
C2121 H2108 0.929 . S
C2121 C2113 1.433 . S
C2121 N2123 1.384 . S
N2122 C2118 1.427 . S
N2122 C2119 1.384 . S
N2123 C2115 1.427 . S
N2123 C2121 1.384 . S
C835 N94 1.155 . S
C839 N2 1.156 . S
C853 N117 1.162 . S
C857 N25 1.146 . S
C871 N71 1.164 . S
C875 N48 1.140 . S
C889 N232 1.154 . S
C893 N140 1.157 . S
C907 N163 1.152 . S
C911 N255 1.158 . S
C925 N209 1.159 . S
C929 N186 1.137 . S
C943 N278 1.144 . S
C947 N370 1.124 . S
C961 N393 1.124 . S
C965 N301 1.146 . S
C979 N324 1.137 . S
C983 N347 1.141 . S
C997 N416 1.123 . S
C1001 N508 1.148 . S
C1015 N531 1.129 . S
C1019 N439 1.138 . S
C1033 N462 1.129 . S
C1037 N485 1.147 . S
C1051 N646 1.125 . S
C1055 N554 1.144 . S
C1069 N577 1.143 . S
C1073 N669 1.125 . S
C1087 N623 1.136 . S
C1091 N600 1.131 . S
C1105 N784 1.133 . S
C1109 N692 1.145 . S
C1123 N715 1.147 . S
C1127 N807 1.130 . S
C1141 N738 1.144 . S
C1145 N761 1.125 . S
C1159 N265 1.669 1_556 S
C1163 N12 1.662 1_556 S
C1177 N35 1.669 1_556 S
C1181 N219 1.662 1_556 S
C1195 N242 1.664 1_556 S
C1199 N58 1.667 1_556 S
C1213 N173 1.663 1_554 S
C1217 N81 1.668 1_554 S
C1231 N104 1.669 1_554 S
C1235 N196 1.662 1_554 S
C1249 N150 1.661 1_554 S
C1253 N127 1.670 1_554 S
C1267 N288 1.755 . S
C1271 N541 1.746 . S
C1285 N495 1.746 . S
C1289 N311 1.755 . S
C1303 N518 1.746 . S
C1307 N334 1.755 . S
C1321 N357 1.721 . S
C1325 N449 1.712 . S
C1339 N380 1.722 . S
C1343 N472 1.712 . S
C1357 N403 1.717 . S
C1361 N426 1.717 . S
C1375 N817 1.719 . S
C1379 N564 1.715 . S
C1393 N587 1.721 . S
C1397 N771 1.712 . S
C1411 N610 1.713 . S
C1415 N794 1.720 . S
C1429 N725 1.753 . S
C1433 N633 1.748 . S
C1447 N748 1.755 . S
C1451 N656 1.746 . S
C1465 N702 1.755 . S
C1469 N679 1.746 . S
C1483 C361 1.928 . S
C1487 C16 1.927 . S
C1501 C384 1.929 . S
C1505 C39 1.927 . S
C1519 C62 1.930 . S
C1523 C407 1.926 . S
C1537 C85 1.930 . S
C1541 C568 1.925 . S
C1555 C108 1.930 . S
C1559 C591 1.926 . S
C1573 C131 1.930 . S
C1577 C614 1.925 . S
C1591 C154 1.930 . S
C1595 C775 1.925 . S
C1609 C177 1.930 . S
C1613 C798 1.925 . S
C1627 C200 1.930 . S
C1631 C821 1.926 . S
C1645 C223 1.930 . S
C1649 C430 1.926 . S
C1663 C453 1.929 . S
C1667 C246 1.927 . S
C1681 C476 1.929 . S
C1685 C269 1.927 . S
C1699 C637 2.265 . S
C1703 C292 2.264 . S
C1717 C315 2.265 . S
C1721 C660 2.264 . S
C1735 C683 2.264 . S
C1739 C338 2.265 . S
C1753 C499 2.264 . S
C1757 C706 2.264 . S
C1771 C729 2.264 . S
C1775 C522 2.264 . S
C1789 C752 2.264 . S
C1793 C545 2.264 . S
C1807 C7 1.936 . S
C1811 C674 1.949 . S
C1825 C30 1.940 . S
C1829 C628 1.946 . S
C1843 C53 1.936 . S
C1847 C651 1.951 . S
C1861 C76 1.948 . S
C1865 C306 1.952 . S
C1879 C329 1.954 . S
C1883 C99 1.942 . S
C1897 C283 1.945 . S
C1901 C122 1.940 . S
C1915 C536 1.952 . S
C1919 C145 1.951 . S
C1933 C490 1.954 . S
C1937 C168 1.941 . S
C1951 C513 1.945 . S
C1955 C191 1.947 . S
C1969 C720 1.954 . S
C1973 C214 1.942 . S
C1987 C743 1.955 . S
C1991 C237 1.943 . S
C2005 C697 1.950 . S
C2009 C260 1.938 . S
C2023 C352 1.629 . S
C2027 C582 1.621 . S
C2041 C605 1.636 . S
C2045 C375 1.632 . S
C2059 C559 1.629 . S
C2063 C398 1.636 . S
C2077 C421 1.631 . S
C2081 C812 1.623 . S
C2095 C766 1.621 . S
C2099 C444 1.625 . S
C2113 C467 1.636 . S
C2117 C789 1.628 . S
