# Generated by pormake.
# Topology irl, (4)-cn, num edge types: 1
# Building blocks:
#     Node 0, Type 0, BuildingBlock: TATPOV_clean_sbu_0, # of connection points: 4
#     Node 1, Type 0, BuildingBlock: TATPOV_clean_sbu_0, # of connection points: 4
#     Node 2, Type 0, BuildingBlock: TATPOV_clean_sbu_0, # of connection points: 4
#     Node 3, Type 0, BuildingBlock: TATPOV_clean_sbu_0, # of connection points: 4
#     Node 4, Type 0, BuildingBlock: TATPOV_clean_sbu_0, # of connection points: 4
#     Node 5, Type 0, BuildingBlock: TATPOV_clean_sbu_0, # of connection points: 4
#     Node 6, Type 0, BuildingBlock: TATPOV_clean_sbu_0, # of connection points: 4
#     Node 7, Type 0, BuildingBlock: TATPOV_clean_sbu_0, # of connection points: 4
#     Edge 8, Type (0, 0), BuildingBlock: FUNLAD_clean_linker_0, # of connection points: 2
#     Edge 9, Type (0, 0), BuildingBlock: FUNLAD_clean_linker_0, # of connection points: 2
#     Edge 10, Type (0, 0), BuildingBlock: FUNLAD_clean_linker_0, # of connection points: 2
#     Edge 11, Type (0, 0), BuildingBlock: FUNLAD_clean_linker_0, # of connection points: 2
#     Edge 12, Type (0, 0), BuildingBlock: FUNLAD_clean_linker_0, # of connection points: 2
#     Edge 13, Type (0, 0), BuildingBlock: FUNLAD_clean_linker_0, # of connection points: 2
#     Edge 14, Type (0, 0), BuildingBlock: FUNLAD_clean_linker_0, # of connection points: 2
#     Edge 15, Type (0, 0), BuildingBlock: FUNLAD_clean_linker_0, # of connection points: 2
#     Edge 16, Type (0, 0), BuildingBlock: FUNLAD_clean_linker_0, # of connection points: 2
#     Edge 17, Type (0, 0), BuildingBlock: FUNLAD_clean_linker_0, # of connection points: 2
#     Edge 18, Type (0, 0), BuildingBlock: FUNLAD_clean_linker_0, # of connection points: 2
#     Edge 19, Type (0, 0), BuildingBlock: FUNLAD_clean_linker_0, # of connection points: 2
#     Edge 20, Type (0, 0), BuildingBlock: FUNLAD_clean_linker_0, # of connection points: 2
#     Edge 21, Type (0, 0), BuildingBlock: FUNLAD_clean_linker_0, # of connection points: 2
#     Edge 22, Type (0, 0), BuildingBlock: FUNLAD_clean_linker_0, # of connection points: 2
#     Edge 23, Type (0, 0), BuildingBlock: FUNLAD_clean_linker_0, # of connection points: 2
# Relax obj value: 0.142
# Max RMSD: 0.156
# Mean RMSD: 0.156
data_MOF--net-irl--node1-TATPOV_clean_sbu_0--edge1-FUNLAD_clean_linker_0
_symmetry_space_group_name_H-M    P1
_symmetry_Int_Tables_number       1
_symmetry_cell_setting            triclinic
loop_
_symmetry_equiv_pos_as_xyz
'x, y, z'
_cell_length_a     47.262515
_cell_length_b     36.196962
_cell_length_c     31.592406
_cell_angle_alpha  90.038461
_cell_angle_beta   89.976181
_cell_angle_gamma 89.939044
loop_
_atom_site_label
_atom_site_type_symbol
_atom_site_fract_x
_atom_site_fract_y
_atom_site_fract_z
_atom_type_partial_charge
Zn0 Zn 0.01253 0.23213 0.02723 0.0
Zn1 Zn 0.06504 0.23233 0.01354 0.0
O2 O 0.0482 0.24625 0.95414 0.0
O3 O 0.00313 0.23541 0.96654 0.0
O4 O 0.10836 0.23509 0.00668 0.0
O5 O 0.01131 0.27728 0.06212 0.0
O6 O 0.05747 0.26997 0.063 0.0
C7 C 0.02269 0.24352 0.94095 0.0
C8 C 0.03428 0.16276 0.0464 0.0
O9 O 0.05587 0.17727 0.02856 0.0
O10 O 0.01279 0.18241 0.05432 0.0
C11 C 0.12377 0.20784 -0.00449 0.0
O12 O 0.11153 0.17616 0.98681 0.0
C13 C 0.03523 0.28636 0.07646 0.0
Zn14 Zn 1.00058 0.76271 -0.00224 0.0
Zn15 Zn 0.94717 0.76127 0.00553 0.0
O16 O 0.95562 0.73333 0.94845 0.0
O17 O 1.00214 0.72998 0.94891 0.0
O18 O 0.90371 0.75915 0.01026 0.0
O19 O 0.00818 0.73936 0.05233 0.0
O20 O 0.96205 0.73254 0.05869 0.0
C21 C 0.97878 0.72167 0.93225 0.0
C22 C 0.98036 0.83492 -0.00257 0.0
O23 O 0.95724 0.81803 0.00575 0.0
O24 O 1.00269 0.81679 0.99025 0.0
C25 C 0.88854 0.77086 0.97971 0.0
O26 O 0.90131 0.78476 0.94639 0.0
C27 C 0.98717 0.72665 0.07219 0.0
Zn28 Zn 0.00437 0.7644 0.49609 0.0
Zn29 Zn 0.05824 0.76765 0.50032 0.0
O30 O 0.04643 0.73967 0.55602 0.0
O31 O 1.00014 0.73679 0.54857 0.0
O32 O 0.10198 0.76825 0.4999 0.0
O33 O 1.00257 0.73503 0.44438 0.0
O34 O 0.04915 0.73689 0.44568 0.0
C35 C 0.02218 0.72895 0.56918 0.0
C36 C 0.02085 0.83864 0.49701 0.0
O37 O 0.04546 0.82379 0.49841 0.0
O38 O 0.99911 0.81842 0.49559 0.0
C39 C 0.11785 0.76243 0.53188 0.0
O40 O 0.10607 0.75676 0.56898 0.0
C41 C 0.0261 0.72575 0.4288 0.0
Zn42 Zn 0.9983 0.25418 0.48807 0.0
Zn43 Zn 0.94303 0.24441 0.48657 0.0
O44 O 0.95162 0.26569 0.54686 0.0
O45 O 0.99768 0.27496 0.54592 0.0
O46 O 0.8995 0.24206 0.4832 0.0
O47 O 0.99886 0.28863 0.43977 0.0
O48 O 0.95311 0.27813 0.43469 0.0
C49 C 0.97427 0.2766 0.56511 0.0
C50 C 0.98304 0.17777 0.47725 0.0
O51 O 0.95777 0.19027 0.48013 0.0
O52 O 0.00383 0.19976 0.47898 0.0
C53 C 0.88324 0.23632 0.51476 0.0
O54 O 0.89461 0.23007 0.55202 0.0
C55 C 0.9756 0.29376 0.42105 0.0
Zn56 Zn 0.51335 0.73975 0.98035 0.0
Zn57 Zn 0.56494 0.74001 -1e-05 0.0
O58 O 0.56153 0.76952 0.94275 0.0
O59 O 0.5156 0.77663 0.93524 0.0
O60 O 0.60771 0.74228 0.01251 0.0
O61 O 0.50019 0.75665 0.03585 0.0
O62 O 0.54494 0.76431 0.0528 0.0
C63 C 0.54045 0.78339 0.92299 0.0
C64 C 0.53382 0.66733 0.97929 0.0
O65 O 0.55542 0.68357 -0.00495 0.0
O66 O 0.51292 0.68615 0.96672 0.0
C67 C 0.62537 0.73377 0.98354 0.0
O68 O 0.61555 0.72277 0.94671 0.0
C69 C 0.51863 0.76745 0.06192 0.0
Zn70 Zn 0.4989 0.26726 0.0205 0.0
Zn71 Zn 0.44572 0.26757 0.01366 0.0
O72 O 0.45934 0.24447 0.95634 0.0
O73 O 0.50521 0.2538 0.96101 0.0
O74 O 0.40215 0.26794 0.01135 0.0
O75 O 0.50064 0.22734 0.06239 0.0
O76 O 0.45453 0.23465 0.06671 0.0
C77 C 0.48411 0.24254 0.94019 0.0
C78 C 0.47984 0.33895 0.03221 0.0
O79 O 0.45689 0.32354 0.02005 0.0
O80 O 0.50165 0.31958 0.03869 0.0
C81 C 0.38755 0.24399 0.99136 0.0
O82 O 0.40078 0.21789 0.97024 0.0
C83 C 0.47738 0.21956 0.0798 0.0
Zn84 Zn 0.50701 0.25183 0.51957 0.0
Zn85 Zn 0.56092 0.25834 0.50618 0.0
O86 O 0.55679 0.2293 0.56313 0.0
O87 O 0.51097 0.22016 0.56958 0.0
O88 O 0.6042 0.25983 0.49848 0.0
O89 O 0.49997 0.22714 0.46528 0.0
O90 O 0.54578 0.23006 0.45278 0.0
C91 C 0.53583 0.21524 0.58295 0.0
C92 C 0.52308 0.32736 0.51881 0.0
O93 O 0.54729 0.31365 0.5095 0.0
O94 O 0.50234 0.3062 0.52588 0.0
C95 C 0.61969 0.27007 0.52937 0.0
O96 O 0.60725 0.28114 0.56438 0.0
C97 C 0.52091 0.21986 0.44189 0.0
Zn98 Zn 0.49431 0.73728 0.49513 0.0
Zn99 Zn 0.43984 0.73405 0.50014 0.0
O100 O 0.45241 0.76029 0.55643 0.0
O101 O 0.49889 0.76058 0.55081 0.0
O102 O 0.39623 0.73516 0.50205 0.0
O103 O 0.49513 0.76981 0.4456 0.0
O104 O 0.4488 0.76395 0.44471 0.0
C105 C 0.47677 0.76875 0.57119 0.0
C106 C 0.47579 0.663 0.49042 0.0
O107 O 0.45157 0.67792 0.49669 0.0
O108 O 0.49763 0.68298 0.48756 0.0
C109 C 0.38175 0.72308 0.53315 0.0
O110 O 0.39514 0.70833 0.56544 0.0
C111 C 0.4716 0.77672 0.42852 0.0
C112 C 0.96941 0.89709 0.02887 0.0
C113 C 0.98246 0.87557 -0.00256 0.0
C114 C 0.97639 0.93459 0.03322 0.0
C115 C 0.99629 0.95105 0.0058 0.0
C116 C 0.00772 0.92992 0.97277 0.0
C117 C 1.00117 0.89256 0.96893 0.0
C118 C 0.00598 0.98989 0.01032 0.0
C119 C 0.00685 0.00817 0.04744 0.0
C120 C 0.01729 0.04679 0.0507 0.0
C121 C 0.00456 0.0707 0.07996 0.0
C122 C 0.01155 0.10818 0.0805 0.0
C123 C 0.03188 0.12237 0.05233 0.0
H124 H 0.05012 0.04236 0.00277 0.0
C125 C 0.0464 0.09788 0.02552 0.0
C126 C 0.0391 0.0604 0.02458 0.0
H127 H 0.06218 0.10798 0.00354 0.0
H128 H 0.95501 0.88455 0.05132 0.0
H129 H 0.96645 0.95039 0.05824 0.0
H130 H 0.02274 0.94198 0.95084 0.0
H131 H 0.01145 0.87659 0.9443 0.0
H132 H 0.01389 0.00334 0.98196 0.0
H133 H 0.99872 0.99527 0.07597 0.0
H134 H 0.9881 0.06079 0.10096 0.0
H135 H 1.00015 0.12637 0.10177 0.0
C136 C 0.03806 0.90436 0.4872 0.0
C137 C 0.01654 0.87926 0.49782 0.0
C138 C 0.03243 0.94252 0.48614 0.0
C139 C 0.00519 0.95609 0.49605 0.0
C140 C 0.98413 0.93094 0.50779 0.0
C141 C 0.98961 0.89315 0.50838 0.0
C142 C 0.99763 0.99603 0.49571 0.0
C143 C 0.01087 0.02167 0.47209 0.0
C144 C 1.00246 0.06137 0.47191 0.0
C145 C 0.02307 0.08792 0.46256 0.0
C146 C 0.01648 0.12551 0.46353 0.0
C147 C 0.98891 0.13761 0.47332 0.0
H148 H 0.9578 0.05362 0.48619 0.0
C149 C 0.96789 0.11104 0.48101 0.0
C150 C 0.97457 0.07328 0.48033 0.0
H151 H 0.94642 0.11941 0.48831 0.0
H152 H 0.05903 0.89452 0.47912 0.0
H153 H 0.04947 0.96114 0.47805 0.0
H154 H 0.96309 0.9405 0.51599 0.0
H155 H 0.97253 0.87475 0.51717 0.0
H156 H 0.97971 0.00426 0.51506 0.0
H157 H 0.029 0.01378 0.45298 0.0
H158 H 0.04459 0.07961 0.45539 0.0
H159 H 0.0332 0.14514 0.457 0.0
C160 C 0.54402 0.60473 0.01005 0.0
C161 C 0.53117 0.62664 0.97882 0.0
C162 C 0.53689 0.56728 0.01391 0.0
C163 C 0.51695 0.55116 0.98632 0.0
C164 C 0.50571 0.5726 0.95344 0.0
C165 C 0.51251 0.60995 0.94995 0.0
C166 C 0.50711 0.51234 0.99063 0.0
C167 C 0.50654 0.49399 0.02768 0.0
C168 C 0.49671 0.45515 0.03126 0.0
C169 C 0.5097 0.43209 0.06109 0.0
C170 C 0.50299 0.39459 0.06282 0.0
C171 C 0.48262 0.3795 0.0354 0.0
H172 H 0.46402 0.45793 0.98298 0.0
C173 C 0.46806 0.40302 0.0076 0.0
C174 C 0.47515 0.44057 0.00535 0.0
H175 H 0.45229 0.39209 0.98611 0.0
H176 H 0.55848 0.61689 0.0327 0.0
H177 H 0.5468 0.55126 0.03872 0.0
H178 H 0.4907 0.5608 0.93133 0.0
H179 H 0.50242 0.6261 0.92533 0.0
H180 H 0.49911 0.49893 0.96229 0.0
H181 H 0.51464 0.50706 0.05615 0.0
H182 H 0.52602 0.44273 0.08185 0.0
H183 H 0.51443 0.37711 0.08477 0.0
C184 C 0.53523 0.39298 0.49878 0.0
C185 C 0.5181 0.36778 0.52078 0.0
C186 C 0.52811 0.43066 0.4978 0.0
C187 C 0.50383 0.44375 0.51913 0.0
C188 C 0.4876 0.4187 0.54257 0.0
C189 C 0.49446 0.38122 0.54312 0.0
C190 C 0.49482 0.48319 0.51846 0.0
C191 C 0.50069 0.50646 0.48642 0.0
C192 C 0.49216 0.54608 0.48618 0.0
C193 C 0.50898 0.57103 0.46354 0.0
C194 C 0.50293 0.60872 0.46409 0.0
C195 C 0.47952 0.62249 0.48666 0.0
H196 H 0.45399 0.54094 0.52426 0.0
C197 C 0.46167 0.59746 0.50759 0.0
C198 C 0.468 0.55952 0.50756 0.0
H199 H 0.44345 0.60728 0.52511 0.0
H200 H 0.55362 0.38347 0.48143 0.0
H201 H 0.54173 0.44933 0.48051 0.0
H202 H 0.46907 0.42799 0.55978 0.0
H203 H 0.48095 0.36264 0.56082 0.0
H204 H 0.48227 0.49295 0.54502 0.0
H205 H 0.51324 0.49672 0.45986 0.0
H206 H 0.52743 0.56148 0.44632 0.0
H207 H 0.51694 0.62725 0.44721 0.0
C208 C 0.05649 0.30693 0.14497 0.0
C209 C 0.03595 0.31138 0.11333 0.0
C210 C 0.05209 0.32209 0.18521 0.0
C211 C 0.02713 0.34174 0.19427 0.0
C212 C 0.00848 0.35014 0.16101 0.0
C213 C 0.0128 0.3349 0.12097 0.0
C214 C 0.01955 0.34868 0.23919 0.0
C215 C 0.99251 0.34732 0.25306 0.0
C216 C 0.98514 0.34105 0.2982 0.0
C217 C 0.9607 0.32056 0.30788 0.0
C218 C 0.95612 0.30741 0.34896 0.0
C219 C 0.97594 0.31468 0.38094 0.0
H220 H 0.02158 0.36879 0.32545 0.0
C221 C 0.99877 0.33836 0.37217 0.0
C222 C 0.00326 0.35162 0.33128 0.0
H223 H 0.01405 0.34518 0.3965 0.0
H224 H 0.0746 0.2891 0.1399 0.0
H225 H 0.06707 0.31579 0.21015 0.0
H226 H 0.98972 0.36665 0.16637 0.0
H227 H 0.99694 0.33948 0.09677 0.0
H228 H 0.03678 0.34818 0.2619 0.0
H229 H 0.97544 0.34435 0.2303 0.0
H230 H 0.94614 0.31251 0.28306 0.0
H231 H 0.93824 0.28943 0.35487 0.0
C232 C 0.04549 0.70834 0.35793 0.0
C233 C 0.02578 0.70286 0.39039 0.0
C234 C 0.04061 0.6932 0.31785 0.0
C235 C 0.01608 0.67191 0.31007 0.0
C236 C 0.99813 0.66348 0.34398 0.0
C237 C 0.00287 0.67887 0.3837 0.0
C238 C 0.0056 0.66422 0.26669 0.0
C239 C 0.02147 0.6685 0.23187 0.0
C240 C 0.00932 0.67556 0.18938 0.0
C241 C 0.02753 0.67363 0.15452 0.0
C242 C 0.0194 0.6883 0.11572 0.0
C243 C 0.99282 0.70528 0.11089 0.0
H244 H 0.96723 0.69283 0.20993 0.0
C245 C 0.97358 0.70461 0.14459 0.0
C246 C 0.98181 0.69009 0.18374 0.0
H247 H 0.95299 0.71753 0.1416 0.0
H248 H 0.0633 0.72675 0.36245 0.0
H249 H 0.05494 0.70085 0.2927 0.0
H250 H 0.97923 0.6471 0.33907 0.0
H251 H 0.98759 0.67373 0.4086 0.0
H252 H 0.98314 0.65865 0.26332 0.0
H253 H 0.04431 0.67035 0.23478 0.0
H254 H 0.04875 0.66264 0.15789 0.0
H255 H 0.03452 0.68785 0.08993 0.0
C256 C 0.03618 0.71436 0.64389 0.0
C257 C 0.0184 0.70853 0.60906 0.0
C258 C 0.02819 0.70146 0.68393 0.0
C259 C 1.00242 0.68228 0.68934 0.0
C260 C 0.98601 0.67401 0.65379 0.0
C261 C 0.99396 0.68681 0.61406 0.0
C262 C 0.98987 0.67585 0.73163 0.0
C263 C 0.00538 0.67326 0.76697 0.0
C264 C 0.99324 0.67747 0.80993 0.0
C265 C 0.00944 0.66552 0.84436 0.0
C266 C 1.00272 0.677 0.88517 0.0
C267 C 0.97975 0.7009 0.8923 0.0
H268 H 0.9557 0.70874 0.79179 0.0
C269 C 0.96176 0.70992 0.85865 0.0
C270 C 0.96853 0.69844 0.81756 0.0
H271 H 0.94408 0.72855 0.8634 0.0
H272 H 0.05503 0.73116 0.64085 0.0
H273 H 0.04117 0.70898 0.71079 0.0
H274 H 0.96617 0.65929 0.65705 0.0
H275 H 0.98004 0.68143 0.58752 0.0
H276 H 0.96693 0.67526 0.73377 0.0
H277 H 0.02821 0.67028 0.7645 0.0
H278 H 0.02845 0.64931 0.83942 0.0
H279 H 0.01678 0.66936 0.91082 0.0
C280 C 0.03153 0.26992 0.86825 0.0
C281 C 0.01505 0.24861 0.89598 0.0
C282 C 0.02257 0.27566 0.82641 0.0
C283 C 0.99716 0.25974 0.81176 0.0
C284 C 0.98128 0.23771 0.83928 0.0
C285 C 0.98994 0.23247 0.88091 0.0
C286 C 0.98707 0.26358 0.76758 0.0
C287 C 0.99238 0.29309 0.74304 0.0
C288 C 0.98395 0.29425 0.69781 0.0
C289 C 1.00176 0.31225 0.66904 0.0
C290 C 0.99728 0.30866 0.62562 0.0
C291 C 0.9746 0.28748 0.61012 0.0
H292 H 0.94492 0.26289 0.70392 0.0
C293 C 0.9551 0.27252 0.63887 0.0
C294 C 0.95976 0.27582 0.68246 0.0
H295 H 0.93733 0.2563 0.62778 0.0
H296 H 0.05101 0.28255 0.87902 0.0
H297 H 0.03577 0.29193 0.80556 0.0
H298 H 0.96189 0.22472 0.82865 0.0
H299 H 0.97688 0.21552 0.90132 0.0
H300 H 0.97462 0.24087 0.75502 0.0
H301 H 0.0051 0.31569 0.75525 0.0
H302 H 0.02021 0.32717 0.68005 0.0
H303 H 0.01245 0.32096 0.60412 0.0
C304 C 0.52741 0.79001 0.13639 0.0
C305 C 0.50868 0.78204 0.10312 0.0
C306 C 0.51685 0.79971 0.17639 0.0
C307 C 0.48742 0.80154 0.18354 0.0
C308 C 0.46893 0.79508 0.14984 0.0
C309 C 0.47938 0.78579 0.11009 0.0
C310 C 0.47522 0.80489 0.22652 0.0
C311 C 0.4877 0.82371 0.25803 0.0
C312 C 0.47957 0.81921 0.30322 0.0
C313 C 0.50004 0.82726 0.33391 0.0
C314 C 0.49626 0.81595 0.37563 0.0
C315 C 0.47182 0.79648 0.38767 0.0
H316 H 0.43666 0.79846 0.29414 0.0
C317 C 0.44988 0.79209 0.35824 0.0
C318 C 0.45365 0.8035 0.31628 0.0
H319 H 0.43061 0.77776 0.36685 0.0
H320 H 0.55005 0.78734 0.13202 0.0
H321 H 0.5317 0.8037 0.20206 0.0
H322 H 0.44623 0.79613 0.15459 0.0
H323 H 0.46424 0.78025 0.08515 0.0
H324 H 0.45608 0.78922 0.23236 0.0
H325 H 0.50665 0.83959 0.2511 0.0
H326 H 0.51992 0.84001 0.32509 0.0
H327 H 0.51333 0.82055 0.39791 0.0
C328 C 0.53378 0.20404 0.36688 0.0
C329 C 0.51535 0.20077 0.40145 0.0
C330 C 0.52549 0.19132 0.3269 0.0
C331 C 0.49872 0.17474 0.32113 0.0
C332 C 0.48132 0.16928 0.3564 0.0
C333 C 0.48953 0.18202 0.3961 0.0
C334 C 0.48645 0.16824 0.27858 0.0
C335 C 0.50214 0.16493 0.24339 0.0
C336 C 0.49063 0.17033 0.20012 0.0
C337 C 0.50775 0.16048 0.16572 0.0
C338 C 0.50164 0.17358 0.1253 0.0
C339 C 0.4783 0.19694 0.11851 0.0
H340 H 0.45192 0.19932 0.21807 0.0
C341 C 0.45943 0.20363 0.15185 0.0
C342 C 0.4656 0.19063 0.19249 0.0
H343 H 0.44136 0.22167 0.14746 0.0
H344 H 0.55375 0.21844 0.37011 0.0
H345 H 0.53933 0.19679 0.30037 0.0
H346 H 0.46065 0.15668 0.35292 0.0
H347 H 0.475 0.17856 0.42233 0.0
H348 H 0.46354 0.16857 0.27614 0.0
H349 H 0.52485 0.16098 0.24623 0.0
H350 H 0.52701 0.14478 0.17056 0.0
H351 H 0.5164 0.16761 0.09992 0.0
C352 C 0.51702 0.2256 0.88193 0.0
C353 C 0.48923 0.22649 0.89784 0.0
C354 C 0.52278 0.21097 0.84218 0.0
C355 C 0.50089 0.19646 0.81714 0.0
C356 C 0.47307 0.197 0.8331 0.0
C357 C 0.46726 0.21178 0.87319 0.0
C358 C 0.50584 0.18472 0.77271 0.0
C359 C 0.5317 0.17761 0.75634 0.0
C360 C 0.53654 0.17797 0.71011 0.0
C361 C 0.56031 0.19663 0.69409 0.0
C362 C 0.56169 0.20607 0.65121 0.0
C363 C 0.53934 0.19669 0.62407 0.0
H364 H 0.49809 0.14889 0.69312 0.0
C365 C 0.51743 0.17401 0.63921 0.0
C366 C 0.51606 0.16463 0.68188 0.0
H367 H 0.50027 0.16557 0.61864 0.0
H368 H 0.53454 0.2368 0.89992 0.0
H369 H 0.54434 0.21258 0.83096 0.0
H370 H 0.45572 0.1865 0.81421 0.0
H371 H 0.44565 0.21197 0.88462 0.0
H372 H 0.48758 0.18548 0.75183 0.0
H373 H 0.55026 0.17694 0.77646 0.0
H374 H 0.57657 0.2067 0.71532 0.0
H375 H 0.57893 0.2233 0.64024 0.0
C376 C 0.52256 0.82814 0.87026 0.0
C377 C 0.54363 0.80288 0.88244 0.0
C378 C 0.519 0.83742 0.82781 0.0
C379 C 0.53634 0.82125 0.79682 0.0
C380 C 0.55966 0.79983 0.80961 0.0
C381 C 0.56329 0.79059 0.85229 0.0
C382 C 0.52872 0.82257 0.75135 0.0
C383 C 0.50149 0.82198 0.73828 0.0
C384 C 0.49324 0.81374 0.69395 0.0
C385 C 0.46737 0.79578 0.68603 0.0
C386 C 0.46088 0.78276 0.6454 0.0
C387 C 0.48027 0.78757 0.61226 0.0
H388 H 0.53086 0.83648 0.66429 0.0
C389 C 0.50504 0.80809 0.61958 0.0
C390 C 0.51138 0.82127 0.65987 0.0
H391 H 0.52006 0.81306 0.59429 0.0
H392 H 0.50742 0.8385 0.89316 0.0
H393 H 0.50162 0.85539 0.81914 0.0
H394 H 0.57363 0.78762 0.78626 0.0
H395 H 0.57971 0.7711 0.86093 0.0
H396 H 0.54568 0.81809 0.72874 0.0
H397 H 0.48459 0.82263 0.7616 0.0
H398 H 0.45281 0.79013 0.71171 0.0
H399 H 0.44157 0.76725 0.64051 0.0
C400 C 0.34017 0.22006 0.96753 0.0
C401 C 0.35598 0.24473 0.99253 0.0
C402 C 0.31052 0.21993 0.969 0.0
C403 C 0.29573 0.24425 -0.00399 0.0
C404 C 0.31158 0.26934 0.02044 0.0
C405 C 0.34127 0.26957 0.0188 0.0
C406 C 0.26399 0.24496 -0.001 0.0
C407 C 0.24706 0.21692 0.98623 0.0
C408 C 0.21535 0.21631 0.98928 0.0
C409 C 0.20131 0.18306 0.97986 0.0
C410 C 0.17179 0.18051 0.98177 0.0
C411 C 0.15521 0.21123 0.99311 0.0
H412 H 0.20832 0.2737 0.00727 0.0
C413 C 0.16908 0.2447 0.00234 0.0
C414 C 0.19875 0.24729 0.00038 0.0
H415 H 0.157 0.26899 0.01106 0.0
H416 H 0.35071 0.2008 0.94651 0.0
H417 H 0.29948 0.20096 0.9484 0.0
H418 H 0.30095 0.28869 0.04126 0.0
H419 H 0.35268 0.28905 0.03844 0.0
H420 H 0.25461 0.26906 0.0138 0.0
H421 H 0.25684 0.19203 0.97388 0.0
H422 H 0.21327 0.15868 0.97101 0.0
H423 H 0.162 0.15425 0.97438 0.0
C424 C 0.67536 0.72812 0.9571 0.0
C425 C 0.65655 0.73709 0.99012 0.0
C426 C 0.70465 0.73192 0.9622 0.0
C427 C 0.71612 0.74507 0.0005 0.0
C428 C 0.69738 0.75324 0.03388 0.0
C429 C 0.66796 0.74951 0.02873 0.0
C430 C 0.7474 0.74966 0.00681 0.0
C431 C 0.76561 0.75591 0.97453 0.0
C432 C 0.797 0.76075 0.9787 0.0
C433 C 0.81178 0.776 0.94431 0.0
C434 C 0.84123 0.77967 0.94516 0.0
C435 C 0.85702 0.76793 0.98039 0.0
H436 H 0.80231 0.73672 0.04128 0.0
C437 C 0.84235 0.75283 0.01515 0.0
C438 C 0.81267 0.74926 0.01436 0.0
H439 H 0.8538 0.74336 0.04277 0.0
H440 H 0.66748 0.71809 0.92703 0.0
H441 H 0.71819 0.72395 0.93612 0.0
H442 H 0.70549 0.76302 0.06393 0.0
H443 H 0.65419 0.75651 0.05494 0.0
H444 H 0.75524 0.74952 0.03909 0.0
H445 H 0.75704 0.75907 0.94286 0.0
H446 H 0.80049 0.785 0.9163 0.0
H447 H 0.85163 0.79141 0.91774 0.0
C448 C 0.1666 0.75473 0.56299 0.0
C449 C 0.1493 0.76064 0.52735 0.0
C450 C 0.19609 0.75207 0.55899 0.0
C451 C 0.20924 0.75493 0.51905 0.0
C452 C 0.19195 0.76149 0.48356 0.0
C453 C 0.16242 0.7642 0.48757 0.0
C454 C 0.24075 0.75231 0.51317 0.0
C455 C 0.25851 0.73637 0.54146 0.0
C456 C 0.29012 0.73327 0.53707 0.0
C457 C 0.30517 0.71495 0.56926 0.0
C458 C 0.33466 0.71152 0.5677 0.0
C459 C 0.35023 0.72627 0.53378 0.0
H460 H 0.29536 0.76248 0.47728 0.0
C461 C 0.33533 0.74445 0.50126 0.0
C462 C 0.30569 0.748 0.50285 0.0
H463 H 0.3466 0.75624 0.47465 0.0
H464 H 0.15736 0.75218 0.59423 0.0
H465 H 0.20837 0.74832 0.58753 0.0
H466 H 0.2013 0.76423 0.4524 0.0
H467 H 0.14987 0.76887 0.4594 0.0
H468 H 0.24917 0.76311 0.48378 0.0
H469 H 0.2495 0.72406 0.5697 0.0
H470 H 0.29405 0.70325 0.59608 0.0
H471 H 0.34526 0.69731 0.59337 0.0
C472 C 0.66549 0.25308 0.49213 0.0
C473 C 0.65122 0.26783 0.52747 0.0
C474 C 0.69517 0.24953 0.49204 0.0
C475 C 0.7113 0.26083 0.52736 0.0
C476 C 0.6969 0.27588 0.56229 0.0
C477 C 0.66743 0.2794 0.56236 0.0
C478 C 0.74281 0.25639 0.53051 0.0
C479 C 0.76045 0.24839 0.498 0.0
C480 C 0.79191 0.24456 0.50297 0.0
C481 C 0.80956 0.2498 0.4676 0.0
C482 C 0.8391 0.24685 0.47115 0.0
C483 C 0.85182 0.23824 0.5102 0.0
H484 H 0.79202 0.22941 0.56961 0.0
C485 C 0.83414 0.23211 0.54536 0.0
C486 C 0.80465 0.23507 0.54183 0.0
H487 H 0.84307 0.22503 0.57587 0.0
H488 H 0.6537 0.24369 0.46478 0.0
H489 H 0.70514 0.23723 0.46464 0.0
H490 H 0.70851 0.28479 0.59004 0.0
H491 H 0.65733 0.29088 0.59021 0.0
H492 H 0.75194 0.26127 0.56152 0.0
H493 H 0.75198 0.24617 0.4662 0.0
H494 H 0.80048 0.25671 0.43713 0.0
H495 H 0.85197 0.25162 0.44332 0.0
loop_
_geom_bond_atom_site_label_1
_geom_bond_atom_site_label_2
_geom_bond_distance
_geom_bond_site_symmetry_2
_ccdc_geom_bond_type
Zn0 O3 2.031 1_654 S
Zn0 O5 2.049 1_655 S
Zn0 O10 2.067 1_655 S
Zn1 O2 1.962 1_554 S
Zn1 O4 1.986 . S
Zn1 O6 1.996 . S
Zn1 O9 1.943 . S
O2 Zn1 1.962 1_556 S
O2 C7 1.254 . S
O3 Zn0 2.031 1_456 S
O3 C7 1.269 . S
O4 Zn1 1.986 . S
O4 C11 1.262 . S
O5 Zn0 2.049 1_455 S
O5 C13 1.267 . S
O6 Zn1 1.996 . S
O6 C13 1.257 . S
C7 O2 1.254 . S
C7 O3 1.269 . S
C8 O9 1.249 . S
C8 O10 1.270 . S
O9 Zn1 1.943 . S
O9 C8 1.249 . S
O10 Zn0 2.067 1_455 S
O10 C8 1.270 . S
C11 O4 1.262 . S
C11 O12 1.232 1_554 S
O12 C11 1.232 1_556 S
C13 O5 1.267 . S
C13 O6 1.257 . S
Zn14 O17 2.031 1_454 S
Zn14 O19 2.049 1_455 S
Zn14 O24 2.067 1_455 S
Zn15 O16 1.962 1_554 S
Zn15 O18 1.986 . S
Zn15 O20 1.996 . S
Zn15 O23 1.943 . S
O16 Zn15 1.962 1_556 S
O16 C21 1.254 . S
O17 Zn14 2.031 1_656 S
O17 C21 1.269 . S
O18 Zn15 1.986 . S
O18 C25 1.262 . S
O19 Zn14 2.049 1_655 S
O19 C27 1.267 . S
O20 Zn15 1.996 . S
O20 C27 1.257 . S
C21 O16 1.254 . S
C21 O17 1.269 . S
C22 O23 1.249 . S
C22 O24 1.270 . S
O23 Zn15 1.943 . S
O23 C22 1.249 . S
O24 Zn14 2.067 1_655 S
O24 C22 1.270 . S
C25 O18 1.262 . S
C25 O26 1.232 1_554 S
O26 C25 1.232 1_556 S
C27 O19 1.267 . S
C27 O20 1.257 . S
Zn28 O31 2.031 1_655 S
Zn28 O33 2.049 1_655 S
Zn28 O38 2.067 1_655 S
Zn29 O30 1.962 . S
Zn29 O32 1.986 . S
Zn29 O34 1.996 . S
Zn29 O37 1.943 . S
O30 Zn29 1.962 . S
O30 C35 1.254 . S
O31 Zn28 2.031 1_455 S
O31 C35 1.269 . S
O32 Zn29 1.986 . S
O32 C39 1.262 . S
O33 Zn28 2.049 1_455 S
O33 C41 1.267 . S
O34 Zn29 1.996 . S
O34 C41 1.257 . S
C35 O30 1.254 . S
C35 O31 1.269 . S
C36 O37 1.249 . S
C36 O38 1.270 . S
O37 Zn29 1.943 . S
O37 C36 1.249 . S
O38 Zn28 2.067 1_455 S
O38 C36 1.270 . S
C39 O32 1.262 . S
C39 O40 1.232 . S
O40 C39 1.232 . S
C41 O33 1.267 . S
C41 O34 1.257 . S
Zn42 O45 2.031 1_455 S
Zn42 O47 2.049 1_455 S
Zn42 O52 2.067 1_455 S
Zn43 O44 1.962 . S
Zn43 O46 1.986 . S
Zn43 O48 1.996 . S
Zn43 O51 1.943 . S
O44 Zn43 1.962 . S
O44 C49 1.254 . S
O45 Zn42 2.031 1_655 S
O45 C49 1.269 . S
O46 Zn43 1.986 . S
O46 C53 1.262 . S
O47 Zn42 2.049 1_655 S
O47 C55 1.267 . S
O48 Zn43 1.996 . S
O48 C55 1.257 . S
C49 O44 1.254 . S
C49 O45 1.269 . S
C50 O51 1.249 . S
C50 O52 1.270 . S
O51 Zn43 1.943 . S
O51 C50 1.249 . S
O52 Zn42 2.067 1_655 S
O52 C50 1.270 . S
C53 O46 1.262 . S
C53 O54 1.232 . S
O54 C53 1.232 . S
C55 O47 1.267 . S
C55 O48 1.257 . S
Zn56 O59 2.031 1_554 S
Zn56 O61 2.049 . S
Zn56 O66 2.067 . S
Zn57 O58 1.962 1_554 S
Zn57 O60 1.986 . S
Zn57 O62 1.996 . S
Zn57 O65 1.943 . S
O58 Zn57 1.962 1_556 S
O58 C63 1.254 . S
O59 Zn56 2.031 1_556 S
O59 C63 1.269 . S
O60 Zn57 1.986 . S
O60 C67 1.262 . S
O61 Zn56 2.049 . S
O61 C69 1.260 . S
O62 Zn57 1.996 . S
O62 C69 1.257 . S
C63 O58 1.254 . S
C63 O59 1.269 . S
C64 O65 1.249 . S
C64 O66 1.270 . S
O65 Zn57 1.943 . S
O65 C64 1.249 . S
O66 Zn56 2.067 . S
O66 C64 1.270 . S
C67 O60 1.262 . S
C67 O68 1.232 1_554 S
O68 C67 1.232 1_556 S
C69 O61 1.260 . S
C69 O62 1.257 . S
Zn70 O73 2.031 1_554 S
Zn70 O75 2.049 . S
Zn70 O80 2.067 . S
Zn71 O72 1.962 1_554 S
Zn71 O74 1.986 . S
Zn71 O76 1.996 . S
Zn71 O79 1.943 . S
O72 Zn71 1.962 1_556 S
O72 C77 1.254 . S
O73 Zn70 2.031 1_556 S
O73 C77 1.269 . S
O74 Zn71 1.986 . S
O74 C81 1.262 . S
O75 Zn70 2.049 . S
O75 C83 1.260 . S
O76 Zn71 1.996 . S
O76 C83 1.257 . S
C77 O72 1.254 . S
C77 O73 1.269 . S
C78 O79 1.249 . S
C78 O80 1.270 . S
O79 Zn71 1.943 . S
O79 C78 1.249 . S
O80 Zn70 2.067 . S
O80 C78 1.270 . S
C81 O74 1.262 . S
C81 O82 1.232 1_554 S
O82 C81 1.232 1_556 S
C83 O75 1.260 . S
C83 O76 1.257 . S
Zn84 O87 2.031 . S
Zn84 O89 2.049 . S
Zn84 O94 2.067 . S
Zn85 O86 1.962 . S
Zn85 O88 1.986 . S
Zn85 O90 1.996 . S
Zn85 O93 1.943 . S
O86 Zn85 1.962 . S
O86 C91 1.254 . S
O87 Zn84 2.031 . S
O87 C91 1.269 . S
O88 Zn85 1.986 . S
O88 C95 1.262 . S
O89 Zn84 2.049 . S
O89 C97 1.260 . S
O90 Zn85 1.996 . S
O90 C97 1.257 . S
C91 O86 1.254 . S
C91 O87 1.269 . S
C92 O93 1.249 . S
C92 O94 1.270 . S
O93 Zn85 1.943 . S
O93 C92 1.249 . S
O94 Zn84 2.067 . S
O94 C92 1.270 . S
C95 O88 1.262 . S
C95 O96 1.232 . S
O96 C95 1.232 . S
C97 O89 1.260 . S
C97 O90 1.257 . S
Zn98 O101 2.031 . S
Zn98 O103 2.049 . S
Zn98 O108 2.067 . S
Zn99 O100 1.962 . S
Zn99 O102 1.986 . S
Zn99 O104 1.996 . S
Zn99 O107 1.943 . S
O100 Zn99 1.962 . S
O100 C105 1.254 . S
O101 Zn98 2.031 . S
O101 C105 1.269 . S
O102 Zn99 1.986 . S
O102 C109 1.262 . S
O103 Zn98 2.049 . S
O103 C111 1.260 . S
O104 Zn99 1.996 . S
O104 C111 1.257 . S
C105 O100 1.254 . S
C105 O101 1.269 . S
C106 O107 1.249 . S
C106 O108 1.270 . S
O107 Zn99 1.943 . S
O107 C106 1.249 . S
O108 Zn98 2.067 . S
O108 C106 1.270 . S
C109 O102 1.262 . S
C109 O110 1.232 . S
O110 C109 1.232 . S
C111 O103 1.260 . S
C111 O104 1.257 . S
C112 C113 1.386 . S
C112 C114 1.383 . S
C112 H128 0.951 . S
C113 C112 1.386 . S
C113 C117 1.383 1_554 S
C114 C112 1.383 . S
C114 C115 1.402 . S
C114 H129 0.951 . S
C115 C114 1.402 . S
C115 C116 1.375 1_654 S
C115 C118 1.481 1_655 S
C116 C115 1.375 1_456 S
C116 C117 1.367 1_455 S
C116 H130 0.951 . S
C117 C113 1.383 1_556 S
C117 C116 1.367 1_655 S
C117 H131 0.955 . S
C118 C115 1.481 1_455 S
C118 C119 1.297 1_565 S
C118 H132 0.950 1_554 S
C119 C118 1.297 1_545 S
C119 C120 1.479 . S
C119 H133 0.950 1_455 S
C120 C119 1.479 . S
C120 C121 1.375 . S
C120 C126 1.404 1_554 S
C121 C120 1.375 . S
C121 C122 1.369 . S
C121 H134 0.950 1_455 S
C122 C121 1.369 . S
C122 C123 1.392 . S
C122 H135 0.951 . S
C123 C122 1.392 . S
C123 C125 1.384 1_554 S
H124 C126 0.949 . S
C125 C123 1.384 1_556 S
C125 C126 1.385 . S
C125 H127 0.950 . S
C126 C120 1.404 1_556 S
C126 H124 0.949 . S
C126 C125 1.385 . S
H127 C125 0.950 . S
H128 C112 0.951 . S
H129 C114 0.951 . S
H130 C116 0.951 . S
H131 C117 0.955 . S
H132 C118 0.950 1_556 S
H133 C119 0.950 1_655 S
H134 C121 0.950 1_655 S
H135 C122 0.951 . S
C136 C137 1.386 . S
C136 C138 1.383 . S
C136 H152 0.951 . S
C137 C136 1.386 . S
C137 C141 1.383 . S
C138 C136 1.383 . S
C138 C139 1.402 . S
C138 H153 0.951 . S
C139 C138 1.402 . S
C139 C140 1.375 1_455 S
C139 C142 1.481 1_455 S
C140 C139 1.375 1_655 S
C140 C141 1.367 1_655 S
C140 H154 0.951 . S
C141 C137 1.383 . S
C141 C140 1.367 1_455 S
C141 H155 0.950 1_455 S
C142 C139 1.481 1_655 S
C142 C143 1.297 1_565 S
C142 H156 0.950 . S
C143 C142 1.297 1_545 S
C143 C144 1.479 . S
C143 H157 0.950 1_655 S
C144 C143 1.479 . S
C144 C145 1.364 1_655 S
C144 C150 1.404 . S
C145 C144 1.364 1_455 S
C145 C146 1.361 1_455 S
C145 H158 0.969 . S
C146 C145 1.361 1_655 S
C146 C147 1.392 . S
C146 H159 0.951 1_655 S
C147 C146 1.392 . S
C147 C149 1.384 . S
H148 C150 0.949 . S
C149 C147 1.384 . S
C149 C150 1.385 . S
C149 H151 0.950 . S
C150 C144 1.404 . S
C150 H148 0.949 . S
C150 C149 1.385 . S
H151 C149 0.950 . S
H152 C136 0.951 . S
H153 C138 0.951 . S
H154 C140 0.951 . S
H155 C141 0.950 1_655 S
H156 C142 0.950 . S
H157 C143 0.950 1_455 S
H158 C145 0.969 . S
H159 C146 0.951 1_455 S
C160 C161 1.386 . S
C160 C162 1.383 . S
C160 H176 0.951 . S
C161 C160 1.386 . S
C161 C165 1.383 1_554 S
C162 C160 1.383 . S
C162 C163 1.402 1_554 S
C162 H177 0.951 . S
C163 C162 1.402 1_556 S
C163 C164 1.375 . S
C163 C166 1.481 . S
C164 C163 1.375 . S
C164 C165 1.367 . S
C164 H178 0.951 . S
C165 C161 1.383 1_556 S
C165 C164 1.367 . S
C165 H179 0.950 . S
C166 C163 1.481 . S
C166 C167 1.297 1_556 S
C166 H180 0.950 . S
C167 C166 1.297 1_554 S
C167 C168 1.479 . S
C167 H181 0.950 . S
C168 C167 1.479 . S
C168 C169 1.375 . S
C168 C174 1.404 1_554 S
C169 C168 1.375 . S
C169 C170 1.369 . S
C169 H182 0.950 . S
C170 C169 1.369 . S
C170 C171 1.392 . S
C170 H183 0.951 . S
C171 C170 1.392 . S
C171 C173 1.384 1_554 S
H172 C174 0.949 . S
C173 C171 1.384 1_556 S
C173 C174 1.385 . S
C173 H175 0.950 . S
C174 C168 1.404 1_556 S
C174 H172 0.949 . S
C174 C173 1.385 . S
H175 C173 0.950 . S
H176 C160 0.951 . S
H177 C162 0.951 . S
H178 C164 0.951 . S
H179 C165 0.950 . S
H180 C166 0.950 . S
H181 C167 0.950 . S
H182 C169 0.950 . S
H183 C170 0.951 . S
C184 C185 1.386 . S
C184 C186 1.383 . S
C184 H200 0.951 . S
C185 C184 1.386 . S
C185 C189 1.383 . S
C186 C184 1.383 . S
C186 C187 1.402 . S
C186 H201 0.951 . S
C187 C186 1.402 . S
C187 C188 1.375 . S
C187 C190 1.481 . S
C188 C187 1.375 . S
C188 C189 1.367 . S
C188 H202 0.951 . S
C189 C185 1.383 . S
C189 C188 1.367 . S
C189 H203 0.950 . S
C190 C187 1.481 . S
C190 C191 1.297 . S
C190 H204 0.950 . S
C191 C190 1.297 . S
C191 C192 1.479 . S
C191 H205 0.950 . S
C192 C191 1.479 . S
C192 C193 1.375 . S
C192 C198 1.404 . S
C193 C192 1.375 . S
C193 C194 1.369 . S
C193 H206 0.950 . S
C194 C193 1.369 . S
C194 C195 1.392 . S
C194 H207 0.951 . S
C195 C194 1.392 . S
C195 C197 1.384 . S
H196 C198 0.949 . S
C197 C195 1.384 . S
C197 C198 1.385 . S
C197 H199 0.950 . S
C198 C192 1.404 . S
C198 H196 0.949 . S
C198 C197 1.385 . S
H199 C197 0.950 . S
H200 C184 0.951 . S
H201 C186 0.951 . S
H202 C188 0.951 . S
H203 C189 0.950 . S
H204 C190 0.950 . S
H205 C191 0.950 . S
H206 C193 0.950 . S
H207 C194 0.951 . S
C208 C209 1.386 . S
C208 C210 1.383 . S
C208 H224 0.951 . S
C209 C208 1.386 . S
C209 C213 1.383 . S
C210 C208 1.383 . S
C210 C211 1.402 . S
C210 H225 0.951 . S
C211 C210 1.402 . S
C211 C212 1.375 . S
C211 C214 1.481 . S
C212 C211 1.375 . S
C212 C213 1.367 . S
C212 H226 0.951 . S
C213 C209 1.383 . S
C213 C212 1.367 . S
C213 H227 0.950 . S
C214 C211 1.481 . S
C214 C215 1.297 . S
C214 H228 0.950 . S
C215 C214 1.297 . S
C215 C216 1.490 . S
C215 H229 0.950 . S
C216 C215 1.490 . S
C216 C217 1.371 1_455 S
C216 C222 1.398 1_455 S
C217 C216 1.371 1_655 S
C217 C218 1.369 . S
C217 H230 0.950 1_655 S
C218 C217 1.369 . S
C218 C219 1.392 . S
C218 H231 0.951 . S
C219 C218 1.392 . S
C219 C221 1.384 . S
H220 C222 0.958 . S
C221 C219 1.384 . S
C221 C222 1.385 . S
C221 H223 0.950 . S
C222 C216 1.398 1_655 S
C222 H220 0.958 . S
C222 C221 1.385 . S
H223 C221 0.950 . S
H224 C208 0.951 . S
H225 C210 0.951 . S
H226 C212 0.951 . S
H227 C213 0.950 . S
H228 C214 0.950 . S
H229 C215 0.950 . S
H230 C217 0.950 1_455 S
H231 C218 0.951 . S
C232 C233 1.386 . S
C232 C234 1.383 . S
C232 H248 0.951 . S
C233 C232 1.386 . S
C233 C237 1.383 . S
C234 C232 1.383 . S
C234 C235 1.402 . S
C234 H249 0.951 . S
C235 C234 1.402 . S
C235 C236 1.375 1_455 S
C235 C238 1.477 1_455 S
C236 C235 1.375 1_655 S
C236 C237 1.367 1_655 S
C236 H250 0.951 . S
C237 C233 1.383 . S
C237 C236 1.367 1_455 S
C237 H251 0.950 1_455 S
C238 C235 1.477 1_655 S
C238 C239 1.292 1_655 S
C238 H252 0.959 . S
C239 C238 1.292 1_455 S
C239 C240 1.470 1_455 S
C239 H253 0.950 . S
C240 C239 1.470 1_655 S
C240 C241 1.366 1_655 S
C240 C246 1.423 . S
C241 C240 1.366 1_455 S
C241 C242 1.369 1_455 S
C241 H254 0.950 . S
C242 C241 1.369 1_655 S
C242 C243 1.392 . S
C242 H255 0.951 1_655 S
C243 C242 1.392 . S
C243 C245 1.384 . S
H244 C246 0.949 . S
C245 C243 1.384 . S
C245 C246 1.385 . S
C245 H247 0.950 . S
C246 C240 1.423 . S
C246 H244 0.949 . S
C246 C245 1.385 . S
H247 C245 0.950 . S
H248 C232 0.951 . S
H249 C234 0.951 . S
H250 C236 0.951 . S
H251 C237 0.950 1_655 S
H252 C238 0.959 . S
H253 C239 0.950 . S
H254 C241 0.950 . S
H255 C242 0.951 1_455 S
C256 C257 1.386 . S
C256 C258 1.383 . S
C256 H272 0.951 . S
C257 C256 1.386 . S
C257 C261 1.383 . S
C258 C256 1.383 . S
C258 C259 1.402 . S
C258 H273 0.951 . S
C259 C258 1.402 . S
C259 C260 1.375 1_455 S
C259 C262 1.481 1_455 S
C260 C259 1.375 1_655 S
C260 C261 1.367 1_655 S
C260 H274 0.951 . S
C261 C257 1.383 . S
C261 C260 1.367 1_455 S
C261 H275 0.950 1_455 S
C262 C259 1.481 1_655 S
C262 C263 1.297 1_655 S
C262 H276 0.950 . S
C263 C262 1.297 1_455 S
C263 C264 1.479 1_455 S
C263 H277 0.950 . S
C264 C263 1.479 1_655 S
C264 C265 1.375 1_655 S
C264 C270 1.404 . S
C265 C264 1.375 1_455 S
C265 C266 1.369 . S
C265 H278 0.950 . S
C266 C265 1.369 . S
C266 C267 1.392 1_455 S
C266 H279 0.951 . S
C267 C266 1.392 1_655 S
C267 C269 1.384 . S
H268 C270 0.949 . S
C269 C267 1.384 . S
C269 C270 1.385 . S
C269 H271 0.950 . S
C270 C264 1.404 . S
C270 H268 0.949 . S
C270 C269 1.385 . S
H271 C269 0.950 . S
H272 C256 0.951 . S
H273 C258 0.951 . S
H274 C260 0.951 . S
H275 C261 0.950 1_655 S
H276 C262 0.950 . S
H277 C263 0.950 . S
H278 C265 0.950 . S
H279 C266 0.951 . S
C280 C281 1.386 . S
C280 C282 1.383 . S
C280 H296 0.951 . S
C281 C280 1.386 . S
C281 C285 1.383 . S
C282 C280 1.383 . S
C282 C283 1.402 . S
C282 H297 0.951 . S
C283 C282 1.402 . S
C283 C284 1.375 . S
C283 C286 1.481 . S
C284 C283 1.375 . S
C284 C285 1.367 . S
C284 H298 0.951 1_455 S
C285 C281 1.383 . S
C285 C284 1.367 . S
C285 H299 0.950 . S
C286 C283 1.481 . S
C286 C287 1.297 . S
C286 H300 0.950 1_455 S
C287 C286 1.297 . S
C287 C288 1.479 . S
C287 H301 0.950 . S
C288 C287 1.479 . S
C288 C289 1.375 . S
C288 C294 1.404 1_455 S
C289 C288 1.375 . S
C289 C290 1.369 1_455 S
C289 H302 0.950 . S
C290 C289 1.369 1_655 S
C290 C291 1.392 . S
C290 H303 0.951 . S
C291 C290 1.392 . S
C291 C293 1.384 . S
H292 C294 0.949 . S
C293 C291 1.384 . S
C293 C294 1.385 . S
C293 H295 0.950 . S
C294 C288 1.404 1_655 S
C294 H292 0.949 . S
C294 C293 1.385 . S
H295 C293 0.950 . S
H296 C280 0.951 . S
H297 C282 0.951 . S
H298 C284 0.951 1_655 S
H299 C285 0.950 . S
H300 C286 0.950 1_655 S
H301 C287 0.950 . S
H302 C289 0.950 . S
H303 C290 0.951 . S
C304 C305 1.386 . S
C304 C306 1.383 . S
C304 H320 0.951 . S
C305 C304 1.386 . S
C305 C309 1.383 . S
C306 C304 1.383 . S
C306 C307 1.402 . S
C306 H321 0.951 . S
C307 C306 1.402 . S
C307 C308 1.375 . S
C307 C310 1.481 . S
C308 C307 1.375 . S
C308 C309 1.367 . S
C308 H322 0.951 . S
C309 C305 1.383 . S
C309 C308 1.367 . S
C309 H323 0.950 . S
C310 C307 1.481 . S
C310 C311 1.297 . S
C310 H324 0.950 . S
C311 C310 1.297 . S
C311 C312 1.479 . S
C311 H325 0.950 . S
C312 C311 1.479 . S
C312 C313 1.375 . S
C312 C318 1.404 . S
C313 C312 1.375 . S
C313 C314 1.369 . S
C313 H326 0.950 . S
C314 C313 1.369 . S
C314 C315 1.392 . S
C314 H327 0.951 . S
C315 C314 1.392 . S
C315 C317 1.384 . S
H316 C318 0.949 . S
C317 C315 1.384 . S
C317 C318 1.385 . S
C317 H319 0.950 . S
C318 C312 1.404 . S
C318 H316 0.949 . S
C318 C317 1.385 . S
H319 C317 0.950 . S
H320 C304 0.951 . S
H321 C306 0.951 . S
H322 C308 0.951 . S
H323 C309 0.950 . S
H324 C310 0.950 . S
H325 C311 0.950 . S
H326 C313 0.950 . S
H327 C314 0.951 . S
C328 C329 1.386 . S
C328 C330 1.383 . S
C328 H344 0.951 . S
C329 C328 1.386 . S
C329 C333 1.383 . S
C330 C328 1.383 . S
C330 C331 1.402 . S
C330 H345 0.951 . S
C331 C330 1.402 . S
C331 C332 1.375 . S
C331 C334 1.481 . S
C332 C331 1.375 . S
C332 C333 1.367 . S
C332 H346 0.951 . S
C333 C329 1.383 . S
C333 C332 1.367 . S
C333 H347 0.950 . S
C334 C331 1.481 . S
C334 C335 1.297 . S
C334 H348 0.950 . S
C335 C334 1.297 . S
C335 C336 1.479 . S
C335 H349 0.950 . S
C336 C335 1.479 . S
C336 C337 1.375 . S
C336 C342 1.404 . S
C337 C336 1.375 . S
C337 C338 1.369 . S
C337 H350 0.950 . S
C338 C337 1.369 . S
C338 C339 1.392 . S
C338 H351 0.951 . S
C339 C338 1.392 . S
C339 C341 1.384 . S
H340 C342 0.949 . S
C341 C339 1.384 . S
C341 C342 1.385 . S
C341 H343 0.950 . S
C342 C336 1.404 . S
C342 H340 0.949 . S
C342 C341 1.385 . S
H343 C341 0.950 . S
H344 C328 0.951 . S
H345 C330 0.951 . S
H346 C332 0.951 . S
H347 C333 0.950 . S
H348 C334 0.950 . S
H349 C335 0.950 . S
H350 C337 0.950 . S
H351 C338 0.951 . S
C352 C353 1.386 . S
C352 C354 1.383 . S
C352 H368 0.951 . S
C353 C352 1.386 . S
C353 C357 1.383 . S
C354 C352 1.383 . S
C354 C355 1.402 . S
C354 H369 0.951 . S
C355 C354 1.402 . S
C355 C356 1.375 . S
C355 C358 1.481 . S
C356 C355 1.375 . S
C356 C357 1.367 . S
C356 H370 0.951 . S
C357 C353 1.383 . S
C357 C356 1.367 . S
C357 H371 0.950 . S
C358 C355 1.481 . S
C358 C359 1.297 . S
C358 H372 0.950 . S
C359 C358 1.297 . S
C359 C360 1.479 . S
C359 H373 0.950 . S
C360 C359 1.479 . S
C360 C361 1.375 . S
C360 C366 1.404 . S
C361 C360 1.375 . S
C361 C362 1.369 . S
C361 H374 0.950 . S
C362 C361 1.369 . S
C362 C363 1.392 . S
C362 H375 0.951 . S
C363 C362 1.392 . S
C363 C365 1.384 . S
H364 C366 0.949 . S
C365 C363 1.384 . S
C365 C366 1.385 . S
C365 H367 0.950 . S
C366 C360 1.404 . S
C366 H364 0.949 . S
C366 C365 1.385 . S
H367 C365 0.950 . S
H368 C352 0.951 . S
H369 C354 0.951 . S
H370 C356 0.951 . S
H371 C357 0.950 . S
H372 C358 0.950 . S
H373 C359 0.950 . S
H374 C361 0.950 . S
H375 C362 0.951 . S
C376 C377 1.386 . S
C376 C378 1.383 . S
C376 H392 0.951 . S
C377 C376 1.386 . S
C377 C381 1.383 . S
C378 C376 1.383 . S
C378 C379 1.402 . S
C378 H393 0.951 . S
C379 C378 1.402 . S
C379 C380 1.375 . S
C379 C382 1.481 . S
C380 C379 1.375 . S
C380 C381 1.367 . S
C380 H394 0.951 . S
C381 C377 1.383 . S
C381 C380 1.367 . S
C381 H395 0.950 . S
C382 C379 1.481 . S
C382 C383 1.297 . S
C382 H396 0.950 . S
C383 C382 1.297 . S
C383 C384 1.479 . S
C383 H397 0.950 . S
C384 C383 1.479 . S
C384 C385 1.375 . S
C384 C390 1.404 . S
C385 C384 1.375 . S
C385 C386 1.369 . S
C385 H398 0.950 . S
C386 C385 1.369 . S
C386 C387 1.392 . S
C386 H399 0.951 . S
C387 C386 1.392 . S
C387 C389 1.384 . S
H388 C390 0.949 . S
C389 C387 1.384 . S
C389 C390 1.385 . S
C389 H391 0.950 . S
C390 C384 1.404 . S
C390 H388 0.949 . S
C390 C389 1.385 . S
H391 C389 0.950 . S
H392 C376 0.951 . S
H393 C378 0.951 . S
H394 C380 0.951 . S
H395 C381 0.950 . S
H396 C382 0.950 . S
H397 C383 0.950 . S
H398 C385 0.950 . S
H399 C386 0.951 . S
C400 C401 1.386 1_556 S
C400 C402 1.382 1_556 S
C400 H416 0.951 . S
C401 C400 1.386 1_554 S
C401 C405 1.383 . S
C402 C400 1.382 1_554 S
C402 C403 1.406 . S
C402 H417 0.948 1_554 S
C403 C402 1.406 . S
C403 C404 1.375 . S
C403 C406 1.481 . S
C404 C403 1.375 . S
C404 C405 1.367 . S
C404 H418 0.951 . S
C405 C401 1.383 . S
C405 C404 1.367 . S
C405 H419 0.950 . S
C406 C403 1.481 . S
C406 C407 1.297 . S
C406 H420 0.950 . S
C407 C406 1.297 . S
C407 C408 1.479 . S
C407 H421 0.950 . S
C408 C407 1.479 . S
C408 C409 1.375 1_554 S
C408 C414 1.404 . S
C409 C408 1.375 1_556 S
C409 C410 1.369 . S
C409 H422 0.950 . S
C410 C409 1.369 . S
C410 C411 1.392 1_556 S
C410 H423 0.951 . S
C411 C410 1.392 1_554 S
C411 C413 1.384 . S
H412 C414 0.949 . S
C413 C411 1.384 . S
C413 C414 1.385 . S
C413 H415 0.950 . S
C414 C408 1.404 . S
C414 H412 0.949 . S
C414 C413 1.385 . S
H415 C413 0.950 . S
H416 C400 0.951 . S
H417 C402 0.948 1_556 S
H418 C404 0.951 . S
H419 C405 0.950 . S
H420 C406 0.950 . S
H421 C407 0.950 . S
H422 C409 0.950 . S
H423 C410 0.951 . S
C424 C425 1.386 1_556 S
C424 C426 1.383 . S
C424 H440 0.951 . S
C425 C424 1.386 1_554 S
C425 C429 1.383 . S
C426 C424 1.383 . S
C426 C427 1.402 1_556 S
C426 H441 0.951 . S
C427 C426 1.402 1_554 S
C427 C428 1.375 . S
C427 C430 1.481 . S
C428 C427 1.375 . S
C428 C429 1.367 . S
C428 H442 0.951 . S
C429 C425 1.383 . S
C429 C428 1.367 . S
C429 H443 0.950 . S
C430 C427 1.481 . S
C430 C431 1.297 1_554 S
C430 H444 0.950 . S
C431 C430 1.297 1_556 S
C431 C432 1.479 . S
C431 H445 0.950 . S
C432 C431 1.479 . S
C432 C433 1.374 . S
C432 C438 1.406 1_556 S
C433 C432 1.374 . S
C433 C434 1.369 . S
C433 H446 0.950 . S
C434 C433 1.369 . S
C434 C435 1.392 1_556 S
C434 H447 0.951 . S
C435 C434 1.392 1_554 S
C435 C437 1.384 . S
H436 C438 0.949 . S
C437 C435 1.384 . S
C437 C438 1.385 . S
C437 H439 0.950 . S
C438 C432 1.406 1_554 S
C438 H436 0.949 . S
C438 C437 1.385 . S
H439 C437 0.950 . S
H440 C424 0.951 . S
H441 C426 0.951 . S
H442 C428 0.951 . S
H443 C429 0.950 . S
H444 C430 0.950 . S
H445 C431 0.950 . S
H446 C433 0.950 . S
H447 C434 0.951 . S
C448 C449 1.386 . S
C448 C450 1.383 . S
C448 H464 0.951 . S
C449 C448 1.386 . S
C449 C453 1.383 . S
C450 C448 1.383 . S
C450 C451 1.402 . S
C450 H465 0.951 . S
C451 C450 1.402 . S
C451 C452 1.375 . S
C451 C454 1.481 . S
C452 C451 1.375 . S
C452 C453 1.367 . S
C452 H466 0.951 . S
C453 C449 1.383 . S
C453 C452 1.367 . S
C453 H467 0.950 . S
C454 C451 1.481 . S
C454 C455 1.297 . S
C454 H468 0.950 . S
C455 C454 1.297 . S
C455 C456 1.479 . S
C455 H469 0.950 . S
C456 C455 1.479 . S
C456 C457 1.375 . S
C456 C462 1.404 . S
C457 C456 1.375 . S
C457 C458 1.369 . S
C457 H470 0.950 . S
C458 C457 1.369 . S
C458 C459 1.392 . S
C458 H471 0.951 . S
C459 C458 1.392 . S
C459 C461 1.384 . S
H460 C462 0.949 . S
C461 C459 1.384 . S
C461 C462 1.385 . S
C461 H463 0.950 . S
C462 C456 1.404 . S
C462 H460 0.949 . S
C462 C461 1.385 . S
H463 C461 0.950 . S
H464 C448 0.951 . S
H465 C450 0.951 . S
H466 C452 0.951 . S
H467 C453 0.950 . S
H468 C454 0.950 . S
H469 C455 0.950 . S
H470 C457 0.950 . S
H471 C458 0.951 . S
C472 C473 1.386 . S
C472 C474 1.383 . S
C472 H488 0.951 . S
C473 C472 1.386 . S
C473 C477 1.383 . S
C474 C472 1.383 . S
C474 C475 1.402 . S
C474 H489 0.951 . S
C475 C474 1.402 . S
C475 C476 1.375 . S
C475 C478 1.481 . S
C476 C475 1.375 . S
C476 C477 1.367 . S
C476 H490 0.951 . S
C477 C473 1.383 . S
C477 C476 1.367 . S
C477 H491 0.950 . S
C478 C475 1.481 . S
C478 C479 1.297 . S
C478 H492 0.950 . S
C479 C478 1.297 . S
C479 C480 1.479 . S
C479 H493 0.950 . S
C480 C479 1.479 . S
C480 C481 1.375 . S
C480 C486 1.404 . S
C481 C480 1.375 . S
C481 C482 1.369 . S
C481 H494 0.950 . S
C482 C481 1.369 . S
C482 C483 1.392 . S
C482 H495 0.951 . S
C483 C482 1.392 . S
C483 C485 1.384 . S
H484 C486 0.949 . S
C485 C483 1.384 . S
C485 C486 1.385 . S
C485 H487 0.950 . S
C486 C480 1.404 . S
C486 H484 0.949 . S
C486 C485 1.385 . S
H487 C485 0.950 . S
H488 C472 0.951 . S
H489 C474 0.951 . S
H490 C476 0.951 . S
H491 C477 0.950 . S
H492 C478 0.950 . S
H493 C479 0.950 . S
H494 C481 0.950 . S
H495 C482 0.951 . S
C113 C22 1.429 . S
C123 C8 1.441 . S
C137 C36 1.426 . S
C147 C50 1.429 . S
C161 C64 1.437 . S
C171 C78 1.460 . S
C185 C92 1.439 . S
C195 C106 1.464 . S
C209 C13 1.181 . S
C219 C55 1.067 . S
C233 C41 1.160 . S
C243 C27 1.111 . S
C257 C35 1.107 . S
C267 C21 1.093 . S
C281 C7 1.107 . S
C291 C49 1.107 . S
C305 C69 1.104 . S
C315 C111 1.200 . S
C329 C97 1.147 . S
C339 C83 1.133 . S
C353 C77 1.148 . S
C363 C91 1.151 . S
C377 C63 1.142 . S
C387 C105 1.159 . S
C401 C81 1.559 . S
C411 C11 1.552 . S
C425 C67 1.560 . S
C435 C25 1.534 . S
C449 C39 1.561 . S
C459 C109 1.538 . S
C473 C95 1.542 . S
C483 C53 1.542 . S
