# Generated by pormake.
# Topology acs-f, (3)-cn, num edge types: 1
# Building blocks:
#     Node 0, Type 0, BuildingBlock: WUSLED_clean_sbu_0, # of connection points: 3
#     Node 1, Type 0, BuildingBlock: WUSLED_clean_sbu_0, # of connection points: 3
#     Node 2, Type 0, BuildingBlock: WUSLED_clean_sbu_0, # of connection points: 3
#     Node 3, Type 0, BuildingBlock: WUSLED_clean_sbu_0, # of connection points: 3
#     Node 4, Type 0, BuildingBlock: WUSLED_clean_sbu_0, # of connection points: 3
#     Node 5, Type 0, BuildingBlock: WUSLED_clean_sbu_0, # of connection points: 3
#     Node 6, Type 0, BuildingBlock: WUSLED_clean_sbu_0, # of connection points: 3
#     Node 7, Type 0, BuildingBlock: WUSLED_clean_sbu_0, # of connection points: 3
#     Node 8, Type 0, BuildingBlock: WUSLED_clean_sbu_0, # of connection points: 3
#     Node 9, Type 0, BuildingBlock: WUSLED_clean_sbu_0, # of connection points: 3
#     Node 10, Type 0, BuildingBlock: WUSLED_clean_sbu_0, # of connection points: 3
#     Node 11, Type 0, BuildingBlock: WUSLED_clean_sbu_0, # of connection points: 3
#     Edge 12, Type (0, 0), BuildingBlock: UVAHIK_clean_linker_0, # of connection points: 2
#     Edge 13, Type (0, 0), BuildingBlock: UVAHIK_clean_linker_0, # of connection points: 2
#     Edge 14, Type (0, 0), BuildingBlock: UVAHIK_clean_linker_0, # of connection points: 2
#     Edge 15, Type (0, 0), BuildingBlock: UVAHIK_clean_linker_0, # of connection points: 2
#     Edge 16, Type (0, 0), BuildingBlock: UVAHIK_clean_linker_0, # of connection points: 2
#     Edge 17, Type (0, 0), BuildingBlock: UVAHIK_clean_linker_0, # of connection points: 2
#     Edge 18, Type (0, 0), BuildingBlock: UVAHIK_clean_linker_0, # of connection points: 2
#     Edge 19, Type (0, 0), BuildingBlock: UVAHIK_clean_linker_0, # of connection points: 2
#     Edge 20, Type (0, 0), BuildingBlock: UVAHIK_clean_linker_0, # of connection points: 2
#     Edge 21, Type (0, 0), BuildingBlock: UVAHIK_clean_linker_0, # of connection points: 2
#     Edge 22, Type (0, 0), BuildingBlock: UVAHIK_clean_linker_0, # of connection points: 2
#     Edge 23, Type (0, 0), BuildingBlock: UVAHIK_clean_linker_0, # of connection points: 2
#     Edge 24, Type (0, 0), BuildingBlock: UVAHIK_clean_linker_0, # of connection points: 2
#     Edge 25, Type (0, 0), BuildingBlock: UVAHIK_clean_linker_0, # of connection points: 2
#     Edge 26, Type (0, 0), BuildingBlock: UVAHIK_clean_linker_0, # of connection points: 2
#     Edge 27, Type (0, 0), BuildingBlock: UVAHIK_clean_linker_0, # of connection points: 2
#     Edge 28, Type (0, 0), BuildingBlock: UVAHIK_clean_linker_0, # of connection points: 2
#     Edge 29, Type (0, 0), BuildingBlock: UVAHIK_clean_linker_0, # of connection points: 2
# Relax obj value: 0.272
# Max RMSD: 0.159
# Mean RMSD: 0.147
data_MOF--net-acs-f--node1-WUSLED_clean_sbu_0--edge1-UVAHIK_clean_linker_0
_symmetry_space_group_name_H-M    P1
_symmetry_Int_Tables_number       1
_symmetry_cell_setting            triclinic
loop_
_symmetry_equiv_pos_as_xyz
'x, y, z'
_cell_length_a     61.76732
_cell_length_b     61.690353
_cell_length_c     77.927467
_cell_angle_alpha  89.833563
_cell_angle_beta   89.832022
_cell_angle_gamma 114.78073
loop_
_atom_site_label
_atom_site_type_symbol
_atom_site_fract_x
_atom_site_fract_y
_atom_site_fract_z
_atom_type_partial_charge
C0 C 0.09036 0.35711 0.1604 0.0
C1 C 0.08717 0.36102 0.1778 0.0
C2 C 0.11553 0.34474 0.186 0.0
C3 C 0.09963 0.35481 0.19052 0.0
C4 C 0.11756 0.33974 0.16862 0.0
C5 C 0.10513 0.34589 0.15598 0.0
U6 U 0.04672 0.38116 0.14168 0.0
O7 O 0.05612 0.41231 0.12466 0.0
O8 O 0.03197 0.37658 0.11543 0.0
C9 C 0.04342 0.39946 0.11184 0.0
C10 C 0.08056 0.36655 0.14651 0.0
C11 C 0.03256 0.41054 0.09976 0.0
C12 C 0.02478 0.41615 0.06986 0.0
C13 C 0.03069 0.40354 0.08254 0.0
C14 C 0.02122 0.44249 0.09152 0.0
C15 C 0.02031 0.43608 0.07406 0.0
C16 C 0.02744 0.42995 0.10424 0.0
C17 C 0.99947 0.38367 0.17433 0.0
C18 C 0.97283 0.40324 0.17162 0.0
C19 C 0.97948 0.3896 0.19948 0.0
C20 C 0.99441 0.38057 0.1919 0.0
C21 C 0.96914 0.40181 0.18955 0.0
C22 C 0.98811 0.39442 0.16406 0.0
C23 C 0.01866 0.3779 0.16782 0.0
O24 O 0.05929 0.35252 0.14078 0.0
O25 O 0.08373 0.38885 0.14819 0.0
O26 O 0.03923 0.39622 0.1652 0.0
O27 O 0.01332 0.36126 0.15604 0.0
H28 H 0.0758 0.36967 0.18148 0.0
H29 H 0.09772 0.35897 0.20378 0.0
H30 H 0.12931 0.33164 0.16472 0.0
H31 H 0.10776 0.34267 0.14264 0.0
H32 H 0.02482 0.4108 0.05665 0.0
H33 H 0.03496 0.38889 0.07872 0.0
H34 H 0.01751 0.45744 0.09537 0.0
H35 H 0.02893 0.43584 0.11744 0.0
H36 H 0.9648 0.41214 0.16353 0.0
H37 H 0.97751 0.38842 0.2133 0.0
H38 H 1.00315 0.37235 0.2 0.0
H39 H 0.99183 0.39689 0.15042 0.0
C40 C 0.65532 0.6949 0.16757 0.0
C41 C 0.65123 0.68695 0.18468 0.0
C42 C 0.66681 0.7282 0.19463 0.0
C43 C 0.65701 0.70347 0.1981 0.0
C44 C 0.6719 0.73591 0.17746 0.0
C45 C 0.66626 0.71941 0.16411 0.0
U46 U 0.63314 0.6328 0.14668 0.0
O47 O 0.60165 0.6163 0.13025 0.0
O48 O 0.63742 0.62389 0.11973 0.0
C49 C 0.61445 0.61626 0.11675 0.0
C50 C 0.64619 0.67829 0.15311 0.0
C51 C 0.6031 0.59892 0.103 0.0
C52 C 0.59301 0.59331 0.07275 0.0
C53 C 0.60622 0.60767 0.08614 0.0
C54 C 0.57399 0.56058 0.09275 0.0
C55 C 0.57634 0.56976 0.0759 0.0
C56 C 0.58716 0.57515 0.10626 0.0
C57 C 0.63427 0.58279 0.17764 0.0
C58 C 0.61855 0.53982 0.17449 0.0
C59 C 0.63171 0.5579 0.20233 0.0
C60 C 0.63826 0.58039 0.19504 0.0
C61 C 0.62117 0.53722 0.19227 0.0
C62 C 0.62487 0.56249 0.16723 0.0
C63 C 0.63833 0.60662 0.17149 0.0
O64 O 0.6607 0.66994 0.14641 0.0
O65 O 0.62422 0.66203 0.15486 0.0
O66 O 0.61926 0.61079 0.16974 0.0
O67 O 0.65448 0.61643 0.15944 0.0
H68 H 0.64287 0.66803 0.18761 0.0
H69 H 0.65329 0.69681 0.21114 0.0
H70 H 0.67912 0.75468 0.17416 0.0
H71 H 0.6695 0.72585 0.15098 0.0
H72 H 0.59557 0.60082 0.05993 0.0
H73 H 0.61829 0.62604 0.08339 0.0
H74 H 0.56125 0.54252 0.09559 0.0
H75 H 0.58435 0.56812 0.11923 0.0
H76 H 0.61086 0.52433 0.16628 0.0
H77 H 0.63362 0.55683 0.21607 0.0
H78 H 0.64545 0.59595 0.20325 0.0
H79 H 0.62174 0.56412 0.15371 0.0
C80 C 0.30054 0.938 0.1711 0.0
C81 C 0.30672 0.92996 0.18642 0.0
C82 C 0.26524 0.91385 0.19613 0.0
C83 C 0.28924 0.91805 0.19884 0.0
C84 C 0.25953 0.92323 0.18122 0.0
C85 C 0.27695 0.93507 0.16886 0.0
U86 U 0.35776 0.97168 0.14148 0.0
O87 O 0.36766 0.9524 0.12158 0.0
O88 O 0.35583 0.98003 0.11413 0.0
C89 C 0.36457 0.96503 0.10901 0.0
C90 C 0.31663 0.94535 0.15604 0.0
C91 C 0.38369 0.97387 0.09602 0.0
C92 C 0.39481 0.97616 0.06597 0.0
C93 C 0.37734 0.97059 0.07869 0.0
C94 C 0.42553 0.98935 0.08772 0.0
C95 C 0.41909 0.98506 0.07031 0.0
C96 C 0.40794 0.98376 0.1005 0.0
C97 C 0.40391 0.01618 0.17399 0.0
C98 C 0.4389 0.04677 0.18698 0.0
C99 C 0.4109 0.01469 0.20448 0.0
C100 C 0.39662 0.00521 0.19005 0.0
C101 C 0.43297 0.03484 0.20291 0.0
C102 C 0.42441 0.03759 0.17275 0.0
C103 C 0.3936 0.00408 0.1579 0.0
O104 O 0.32112 0.96602 0.14867 0.0
O105 O 0.33469 0.93933 0.15561 0.0
O106 O 0.37698 0.00882 0.15048 0.0
O107 O 0.39035 0.98168 0.15657 0.0
H108 H 0.32476 0.93181 0.18843 0.0
H109 H 0.29431 0.911 0.21011 0.0
H110 H 0.2414 0.92081 0.17882 0.0
H111 H 0.27169 0.94088 0.15708 0.0
H112 H 0.38924 0.97312 0.05269 0.0
H113 H 0.35873 0.96308 0.075 0.0
H114 H 0.44405 0.99614 0.09151 0.0
H115 H 0.41321 0.98647 0.11386 0.0
H116 H 0.45569 0.06209 0.18498 0.0
H117 H 0.40526 0.00542 0.21662 0.0
H118 H 0.38072 0.98866 0.19123 0.0
H119 H 0.43032 0.04625 0.1604 0.0
C120 C 0.65131 0.92735 0.34278 0.0
C121 C 0.64393 0.92895 0.326 0.0
C122 C 0.66265 0.90339 0.31568 0.0
C123 C 0.64975 0.91726 0.31254 0.0
C124 C 0.67071 0.90278 0.33249 0.0
C125 C 0.66522 0.91474 0.34579 0.0
U126 U 0.62538 0.96378 0.37185 0.0
O127 O 0.59847 0.94534 0.39155 0.0
O128 O 0.63374 0.97191 0.39926 0.0
C129 C 0.6119 0.95792 0.40414 0.0
C130 C 0.64233 0.93543 0.35784 0.0
C131 C 0.6003 0.96817 0.41616 0.0
C132 C 0.59164 0.9745 0.44565 0.0
C133 C 0.60434 0.9674 0.43377 0.0
C134 C 0.57123 0.9842 0.42242 0.0
C135 C 0.5746 0.98262 0.44018 0.0
C136 C 0.58398 0.97706 0.41051 0.0
C137 C 0.61791 0.01185 0.34076 0.0
C138 C 0.60008 0.03668 0.32882 0.0
C139 C 0.62719 0.02659 0.31152 0.0
C140 C 0.63023 0.01345 0.32534 0.0
C141 C 0.61166 0.03801 0.31302 0.0
C142 C 0.60331 0.02392 0.34248 0.0
C143 C 0.61855 0.99731 0.35542 0.0
O144 O 0.65609 0.95593 0.36491 0.0
O145 O 0.61953 0.93081 0.35813 0.0
O146 O 0.63912 1.00092 0.36243 0.0
O147 O 0.60232 0.97516 0.35635 0.0
H148 H 0.63307 0.93855 0.32342 0.0
H149 H 0.64364 0.91867 0.29976 0.0
H150 H 0.68024 0.89208 0.33568 0.0
H151 H 0.67085 0.91307 0.3587 0.0
H152 H 0.59456 0.97274 0.45918 0.0
H153 H 0.61682 0.96056 0.43837 0.0
H154 H 0.55858 0.99074 0.41771 0.0
H155 H 0.58068 0.97796 0.39693 0.0
H156 H 0.58742 0.04443 0.33053 0.0
H157 H 0.63657 0.02735 0.29962 0.0
H158 H 0.64169 0.00424 0.32387 0.0
H159 H 0.59365 0.0228 0.35434 0.0
C160 C 0.07333 0.70998 0.33895 0.0
C161 C 0.0729 0.7024 0.32195 0.0
C162 C 0.09653 0.7437 0.31279 0.0
C163 C 0.08431 0.71917 0.30894 0.0
C164 C 0.09621 0.75104 0.32982 0.0
C165 C 0.08467 0.73438 0.34268 0.0
U166 U 0.0397 0.65171 0.36788 0.0
O167 O 0.05908 0.6444 0.38903 0.0
O168 O 0.02892 0.65326 0.39467 0.0
C169 C 0.04483 0.64639 0.40084 0.0
C170 C 0.06487 0.69331 0.35355 0.0
C171 C 0.03639 0.62717 0.41373 0.0
C172 C 0.0389 0.61452 0.44285 0.0
C173 C 0.04505 0.63249 0.43046 0.0
C174 C 0.01481 0.58546 0.42197 0.0
C175 C 0.02377 0.59072 0.43881 0.0
C176 C 0.02112 0.60356 0.4095 0.0
C177 C 0.99864 0.5995 0.33666 0.0
C178 C 0.98017 0.56005 0.32422 0.0
C179 C 0.98088 0.5942 0.30835 0.0
C180 C 0.99292 0.60921 0.32198 0.0
C181 C 0.97442 0.5694 0.30935 0.0
C182 C 0.99203 0.57492 0.3377 0.0
C183 C 0.01076 0.61363 0.35162 0.0
O184 O 0.04319 0.68735 0.35956 0.0
O185 O 0.07222 0.6762 0.35461 0.0
O186 O 1.00397 0.62971 0.35764 0.0
O187 O 0.03356 0.61899 0.35356 0.0
H188 H 0.06433 0.68359 0.31884 0.0
H189 H 0.08387 0.71287 0.29594 0.0
H190 H 0.10574 0.76957 0.33343 0.0
H191 H 0.08547 0.74053 0.35578 0.0
H192 H 0.04661 0.61926 0.4555 0.0
H193 H 0.05704 0.65057 0.43388 0.0
H194 H 1.00294 0.56741 0.41842 0.0
H195 H 0.01436 0.59912 0.39656 0.0
H196 H 0.97616 0.54125 0.32534 0.0
H197 H 0.97666 0.60197 0.29708 0.0
H198 H 0.9978 0.62821 0.32105 0.0
H199 H 0.99625 0.56714 0.34899 0.0
C200 C 0.31826 0.35638 0.34031 0.0
C201 C 0.32614 0.35756 0.32329 0.0
C202 C 0.28504 0.34401 0.31305 0.0
C203 C 0.30964 0.35122 0.30977 0.0
C204 C 0.27748 0.3423 0.33027 0.0
C205 C 0.29385 0.34822 0.34366 0.0
U206 U 0.37825 0.38072 0.36674 0.0
O207 O 0.38676 0.40981 0.38522 0.0
O208 O 0.38112 0.3741 0.39436 0.0
C209 C 0.38674 0.39649 0.3984 0.0
C210 C 0.33459 0.36564 0.35491 0.0
C211 C 0.4056 0.40766 0.41126 0.0
C212 C 0.41541 0.41527 0.44145 0.0
C213 C 0.39965 0.40234 0.42859 0.0
C214 C 0.44404 0.43844 0.41982 0.0
C215 C 0.43766 0.43383 0.43728 0.0
C216 C 0.42813 0.4255 0.40691 0.0
C217 C 0.43251 0.38194 0.33655 0.0
C218 C 0.47316 0.40268 0.32634 0.0
C219 C 0.4462 0.36638 0.31232 0.0
C220 C 0.42826 0.36439 0.32403 0.0
C221 C 0.46869 0.38589 0.3131 0.0
C222 C 0.45517 0.40077 0.3379 0.0
C223 C 0.41298 0.38153 0.34744 0.0
O224 O 0.34276 0.3514 0.3623 0.0
O225 O 0.35034 0.38797 0.35396 0.0
O226 O 0.39966 0.3626 0.35653 0.0
O227 O 0.40767 0.40001 0.34862 0.0
H228 H 0.34499 0.36387 0.32045 0.0
H229 H 0.31626 0.35237 0.29678 0.0
H230 H 0.25899 0.33743 0.33355 0.0
H231 H 0.28745 0.34738 0.35672 0.0
H232 H 0.4096 0.41137 0.45467 0.0
H233 H 0.38226 0.38882 0.43221 0.0
H234 H 0.46116 0.4523 0.4161 0.0
H235 H 0.43311 0.42996 0.39358 0.0
H236 H 0.49013 0.41809 0.32719 0.0
H237 H 0.44224 0.35308 0.30235 0.0
H238 H 0.41079 0.34972 0.32284 0.0
H239 H 0.45874 0.41439 0.34759 0.0
C240 C 0.92407 0.65801 0.84759 0.0
C241 C 0.931 0.65739 0.83049 0.0
C242 C 0.90089 0.67057 0.82064 0.0
C243 C 0.91959 0.66373 0.81714 0.0
C244 C 0.89473 0.67187 0.8379 0.0
C245 C 0.90625 0.66573 0.85119 0.0
U246 U 0.96687 0.63339 0.8663 0.0
O247 O 0.98219 0.63808 0.89237 0.0
O248 O 0.95726 0.60242 0.88352 0.0
C249 C 0.97043 0.6153 0.89616 0.0
C250 C 0.93354 0.64874 0.86173 0.0
C251 C 0.98126 0.60405 0.90811 0.0
C252 C 0.98938 0.59847 0.93793 0.0
C253 C 0.98352 0.61119 0.92531 0.0
C254 C 0.99215 0.57177 0.91623 0.0
C255 C 0.99342 0.5783 0.93368 0.0
C256 C 0.98596 0.58442 0.90357 0.0
C257 C 0.01285 0.62878 0.83366 0.0
C258 C 0.03448 0.60395 0.83547 0.0
C259 C 0.03451 0.62448 0.80888 0.0
C260 C 0.02069 0.63465 0.8167 0.0
C261 C 0.04076 0.60825 0.81798 0.0
C262 C 0.02044 0.61404 0.84325 0.0
C263 C 0.99417 0.63551 0.83991 0.0
O264 O 0.92984 0.62626 0.86031 0.0
O265 O 0.95507 0.66254 0.86713 0.0
O266 O 1.00007 0.65244 0.8515 0.0
O267 O 0.97334 0.61766 0.84278 0.0
H268 H 0.94477 0.65145 0.82746 0.0
H269 H 0.92518 0.6629 0.80407 0.0
H270 H 0.88025 0.67662 0.84122 0.0
H271 H 0.9006 0.66617 0.86431 0.0
H272 H 0.98962 0.60393 0.95114 0.0
H273 H 0.97958 0.62602 0.92917 0.0
H274 H 0.99554 0.55664 0.91233 0.0
H275 H 0.98417 0.57844 0.89038 0.0
H276 H 0.03938 0.59184 0.84289 0.0
H277 H 0.03877 0.62801 0.79538 0.0
H278 H 0.01484 0.64596 0.80912 0.0
H279 H 0.01451 0.60936 0.85639 0.0
C280 C 0.35005 0.32166 0.83545 0.0
C281 C 0.35628 0.32844 0.81831 0.0
C282 C 0.33899 0.28642 0.80961 0.0
C283 C 0.35056 0.311 0.80548 0.0
C284 C 0.33197 0.28002 0.82678 0.0
C285 C 0.3373 0.29742 0.83945 0.0
U286 U 0.37514 0.37941 0.86589 0.0
O287 O 0.36832 0.37659 0.89382 0.0
O288 O 0.40388 0.38346 0.88381 0.0
C289 C 0.39065 0.38153 0.89745 0.0
C290 C 0.35944 0.3384 0.84985 0.0
C291 C 0.40185 0.3991 0.91111 0.0
C292 C 0.41255 0.40617 0.94116 0.0
C293 C 0.39976 0.39085 0.92804 0.0
C294 C 0.42905 0.43872 0.92071 0.0
C295 C 0.42787 0.43012 0.93762 0.0
C296 C 0.41615 0.42329 0.90753 0.0
C297 C 0.37523 0.43259 0.83743 0.0
C298 C 0.3818 0.47151 0.82618 0.0
C299 C 0.37449 0.43862 0.80673 0.0
C300 C 0.37225 0.4235 0.82072 0.0
C301 C 0.38036 0.46311 0.80927 0.0
C302 C 0.37909 0.45633 0.84007 0.0
C303 C 0.37792 0.41937 0.85228 0.0
O304 O 0.38176 0.35424 0.84918 0.0
O305 O 0.34522 0.34538 0.85855 0.0
O306 O 0.3953 0.4124 0.85153 0.0
O307 O 0.35859 0.40412 0.86006 0.0
H308 H 0.36623 0.34708 0.81494 0.0
H309 H 0.35578 0.31682 0.7924 0.0
H310 H 0.32347 0.2615 0.83074 0.0
H311 H 0.33259 0.29179 0.85266 0.0
H312 H 0.41077 0.39907 0.95407 0.0
H313 H 0.38876 0.37228 0.93106 0.0
H314 H 0.44068 0.45705 0.91753 0.0
H315 H 0.41796 0.43004 0.8945 0.0
H316 H 0.38662 0.49016 0.82885 0.0
H317 H 0.37259 0.4313 0.79392 0.0
H318 H 0.36922 0.40513 0.81849 0.0
H319 H 0.38154 0.46362 0.85292 0.0
C320 C 0.7131 0.06789 0.83766 0.0
C321 C 0.70741 0.06289 0.82028 0.0
C322 C 0.74785 0.09109 0.81211 0.0
C323 C 0.72474 0.07432 0.80758 0.0
C324 C 0.7532 0.09562 0.82964 0.0
C325 C 0.73611 0.08406 0.84219 0.0
U326 U 0.65405 0.0306 0.86489 0.0
O327 O 0.65498 0.02009 0.8919 0.0
O328 O 0.64396 0.04866 0.88553 0.0
C329 C 0.64663 0.03513 0.89761 0.0
C330 C 0.6956 0.05831 0.85164 0.0
C331 C 0.62746 0.0261 0.91054 0.0
C332 C 0.61631 0.02394 0.94058 0.0
C333 C 0.63377 0.02921 0.92788 0.0
C334 C 0.58565 0.0113 0.91878 0.0
C335 C 0.59209 0.01548 0.9362 0.0
C336 C 0.60324 0.01664 0.90602 0.0
C337 C 0.60964 0.99014 0.82996 0.0
C338 C 0.57772 0.9582 0.81506 0.0
C339 C 0.59793 0.99698 0.80151 0.0
C340 C 0.61304 0.00508 0.81565 0.0
C341 C 0.57915 0.97394 0.8016 0.0
C342 C 0.59288 0.96629 0.82914 0.0
C343 C 0.61878 0.99991 0.84695 0.0
O344 O 0.67735 0.06401 0.85192 0.0
O345 O 0.69086 0.03691 0.85778 0.0
O346 O 0.6217 0.02196 0.84986 0.0
O347 O 0.63509 0.99438 0.85406 0.0
H348 H 0.68964 0.05049 0.81656 0.0
H349 H 0.71996 0.07012 0.79426 0.0
H350 H 0.7704 0.10876 0.83378 0.0
H351 H 0.74073 0.08832 0.85555 0.0
H352 H 0.62186 0.02689 0.95387 0.0
H353 H 0.65236 0.03648 0.9316 0.0
H354 H 0.56716 0.00486 0.91497 0.0
H355 H 0.59801 0.01414 0.89266 0.0
H356 H 0.56344 0.9404 0.81556 0.0
H357 H 0.59972 0.00934 0.79113 0.0
H358 H 0.62599 0.02354 0.81596 0.0
H359 H 0.58997 0.95451 0.8401 0.0
C360 C 0.35306 0.07932 0.66772 0.0
C361 C 0.35347 0.0742 0.68526 0.0
C362 C 0.34214 0.10661 0.69246 0.0
C363 C 0.34781 0.08767 0.69759 0.0
C364 C 0.34086 0.11085 0.67486 0.0
C365 C 0.3462 0.09732 0.66267 0.0
U366 U 0.37754 0.03931 0.63995 0.0
O367 O 0.36947 0.03248 0.61237 0.0
O368 O 0.40505 0.05772 0.62061 0.0
C369 C 0.39156 0.04599 0.60776 0.0
C370 C 0.36193 0.06849 0.65419 0.0
C371 C 0.40275 0.03559 0.59549 0.0
C372 C 0.41072 0.02926 0.56582 0.0
C373 C 0.39831 0.03638 0.57795 0.0
C374 C 0.43159 0.01946 0.5887 0.0
C375 C 0.42787 0.02113 0.571 0.0
C376 C 0.41913 0.0266 0.60083 0.0
C377 C 0.38166 0.99028 0.67117 0.0
C378 C 0.39228 0.95986 0.68322 0.0
C379 C 0.38403 0.98675 0.70201 0.0
C380 C 0.37932 0.99789 0.6877 0.0
C381 C 0.39176 0.96837 0.69987 0.0
C382 C 0.38712 0.97063 0.66907 0.0
C383 C 0.38248 0.00421 0.65578 0.0
O384 O 0.38443 0.07197 0.65453 0.0
O385 O 0.34754 0.04829 0.64705 0.0
O386 O 0.39934 0.02607 0.65506 0.0
O387 O 0.36236 1.00166 0.64853 0.0
H388 H 0.35886 0.06042 0.6894 0.0
H389 H 0.34899 0.08409 0.71108 0.0
H390 H 0.33634 0.12513 0.67051 0.0
H391 H 0.34589 0.10161 0.6492 0.0
H392 H 0.40752 0.03106 0.55236 0.0
H393 H 0.38577 0.04327 0.57357 0.0
H394 H 0.44432 0.01288 0.59318 0.0
H395 H 0.42273 0.02566 0.61435 0.0
H396 H 0.39845 0.94611 0.68085 0.0
H397 H 0.38279 0.99338 0.71465 0.0
H398 H 0.37507 0.01308 0.6895 0.0
H399 H 0.38912 0.96465 0.65633 0.0
C400 C 0.94189 0.29623 0.67138 0.0
C401 C 0.94203 0.30209 0.68879 0.0
C402 C 0.91631 0.26044 0.69555 0.0
C403 C 0.92946 0.2842 0.70086 0.0
C404 C 0.91708 0.2547 0.67821 0.0
C405 C 0.9298 0.2724 0.6663 0.0
U406 U 0.97647 0.35553 0.64303 0.0
O407 O 0.95664 0.36305 0.62227 0.0
O408 O 0.98594 0.35315 0.61603 0.0
C409 C 0.97017 0.36043 0.61019 0.0
C410 C 0.95141 0.31429 0.65772 0.0
C411 C 0.97859 0.37939 0.5971 0.0
C412 C 0.97656 0.39132 0.5677 0.0
C413 C 0.97049 0.37359 0.58028 0.0
C414 C 0.99959 0.42103 0.58856 0.0
C415 C 0.99107 0.41533 0.57164 0.0
C416 C 0.99334 0.40319 0.60121 0.0
C417 C 0.01941 0.40709 0.67366 0.0
C418 C 0.04524 0.44604 0.68461 0.0
C419 C 0.02585 0.41296 0.7043 0.0
C420 C 0.01513 0.39789 0.6904 0.0
C421 C 0.04059 0.43742 0.70157 0.0
C422 C 0.03491 0.43099 0.67087 0.0
C423 C 0.00678 0.39352 0.65867 0.0
O424 O 0.94442 0.33168 0.6571 0.0
O425 O 0.97283 0.3198 0.65134 0.0
O426 O 0.98394 0.38843 0.65738 0.0
O427 O 0.01292 0.37718 0.6523 0.0
H428 H 0.95114 0.32046 0.69292 0.0
H429 H 0.92909 0.2891 0.71415 0.0
H430 H 0.90736 0.23655 0.67378 0.0
H431 H 0.92937 0.26757 0.65289 0.0
H432 H 0.96923 0.38621 0.55498 0.0
H433 H 0.95895 0.35534 0.57693 0.0
H434 H 0.01102 0.43924 0.59204 0.0
H435 H 0.99972 0.40797 0.61421 0.0
H436 H 0.05589 0.46473 0.68184 0.0
H437 H 0.02214 0.40556 0.71715 0.0
H438 H 1.00313 0.37939 0.69273 0.0
H439 H 0.03824 0.43837 0.65798 0.0
C440 C 0.69851 0.66235 0.66732 0.0
C441 C 0.69213 0.66122 0.68474 0.0
C442 C 0.73371 0.67357 0.69289 0.0
C443 C 0.70968 0.66691 0.69746 0.0
C444 C 0.73998 0.67585 0.67541 0.0
C445 C 0.72254 0.67027 0.66278 0.0
U446 U 0.63489 0.63967 0.64831 0.0
O447 O 0.62518 0.64364 0.62154 0.0
O448 O 0.6181 0.608 0.63204 0.0
C449 C 0.61731 0.62061 0.61862 0.0
C450 C 0.68061 0.65298 0.65369 0.0
C451 C 0.59868 0.60925 0.60561 0.0
C452 C 0.5899 0.6029 0.57516 0.0
C453 C 0.60462 0.61603 0.58845 0.0
C454 C 0.5621 0.57659 0.59602 0.0
C455 C 0.5686 0.58269 0.57869 0.0
C456 C 0.57709 0.58963 0.60936 0.0
C457 C 0.58434 0.63937 0.67856 0.0
C458 C 0.54187 0.61489 0.67662 0.0
C459 C 0.55803 0.63952 0.70168 0.0
C460 C 0.58077 0.64808 0.69439 0.0
C461 C 0.53847 0.62209 0.69318 0.0
C462 C 0.56471 0.62336 0.66939 0.0
C463 C 0.60883 0.64466 0.67333 0.0
O464 O 0.66447 0.63105 0.656 0.0
O465 O 0.67187 0.66742 0.64741 0.0
O466 O 0.61853 0.66092 0.66131 0.0
O467 O 0.61378 0.62602 0.67172 0.0
H468 H 0.67358 0.65506 0.68848 0.0
H469 H 0.7043 0.66491 0.71083 0.0
H470 H 0.75836 0.68129 0.67147 0.0
H471 H 0.72777 0.67124 0.64941 0.0
H472 H 0.59592 0.60804 0.56211 0.0
H473 H 0.6214 0.63083 0.58524 0.0
H474 H 0.54565 0.56144 0.59931 0.0
H475 H 0.57219 0.58393 0.62252 0.0
H476 H 0.52706 0.60181 0.66961 0.0
H477 H 0.55614 0.64531 0.71448 0.0
H478 H 0.59582 0.66041 0.70165 0.0
H479 H 0.56719 0.6165 0.65711 0.0
C480 C 0.2432 0.32421 0.30102 0.0
C481 C 0.26744 0.33989 0.29882 0.0
C482 C 0.2262 0.32275 0.28869 0.0
C483 C 0.21855 0.35704 0.25124 0.0
H484 H 0.15974 0.30035 0.24492 0.0
C485 C 0.1558 0.34848 0.19507 0.0
C486 C 0.13152 0.34136 0.19898 0.0
C487 C 0.1714 0.34654 0.20726 0.0
C488 C 0.17605 0.31633 0.24664 0.0
H489 H 0.29261 0.36529 0.28106 0.0
H490 H 0.26358 0.36122 0.25914 0.0
H491 H 0.18934 0.29958 0.26535 0.0
H492 H 0.10454 0.32605 0.21874 0.0
H493 H 0.13202 0.32253 0.24017 0.0
H494 H 0.20551 0.37346 0.23212 0.0
C495 C 0.25738 0.35094 0.27084 0.0
C496 C 0.19305 0.31599 0.25842 0.0
C497 C 0.27429 0.35289 0.28336 0.0
C498 C 0.12315 0.33181 0.21537 0.0
C499 C 0.13881 0.32962 0.22757 0.0
C500 C 0.20182 0.35721 0.2393 0.0
C501 C 0.23295 0.33643 0.27352 0.0
C502 C 0.21466 0.33636 0.26086 0.0
C503 C 0.16318 0.33733 0.22369 0.0
C504 C 0.18043 0.33689 0.23681 0.0
H505 H 0.23711 0.31328 0.31244 0.0
H506 H 0.20768 0.31139 0.2914 0.0
H507 H 0.23443 0.37339 0.25302 0.0
H508 H 0.16294 0.35619 0.18267 0.0
H509 H 0.19003 0.35244 0.20385 0.0
C510 C 0.68839 0.76905 0.2078 0.0
C511 C 0.66992 0.74585 0.20855 0.0
C512 C 0.68948 0.78642 0.2197 0.0
C513 C 0.65031 0.79939 0.25054 0.0
H514 H 0.70957 0.8513 0.26423 0.0
C515 C 0.64876 0.87763 0.28932 0.0
C516 C 0.66617 0.88815 0.302 0.0
C517 C 0.65082 0.86157 0.27753 0.0
C518 C 0.69282 0.83681 0.26074 0.0
H519 H 0.63864 0.72271 0.22308 0.0
H520 H 0.64143 0.7523 0.24431 0.0
H521 H 0.71054 0.81982 0.24595 0.0
H522 H 0.70021 0.89059 0.31142 0.0
H523 H 0.70292 0.86147 0.29174 0.0
H524 H 0.63257 0.81541 0.26599 0.0
C525 C 0.65462 0.75744 0.23413 0.0
C526 C 0.69337 0.81886 0.25 0.0
C527 C 0.6533 0.74022 0.22208 0.0
C528 C 0.68607 0.88254 0.30217 0.0
C529 C 0.68787 0.86604 0.29061 0.0
C530 C 0.64977 0.81702 0.26149 0.0
C531 C 0.67232 0.78099 0.23286 0.0
C532 C 0.67209 0.79992 0.24469 0.0
C533 C 0.67006 0.85501 0.27827 0.0
C534 C 0.67097 0.83615 0.26664 0.0
H535 H 0.70183 0.774 0.19779 0.0
H536 H 0.70334 0.80431 0.21818 0.0
H537 H 0.63347 0.78547 0.24653 0.0
H538 H 0.63299 0.88111 0.28876 0.0
H539 H 0.63704 0.85407 0.26795 0.0
C540 C 0.12385 0.75546 0.28702 0.0
C541 C 0.11082 0.76149 0.29948 0.0
C542 C 0.13883 0.77262 0.27546 0.0
C543 C 0.17155 0.83832 0.26967 0.0
H544 H 0.1803 0.82006 0.22353 0.0
C545 C 0.24968 0.89897 0.2259 0.0
C546 C 0.246 0.89835 0.20808 0.0
C547 C 0.23197 0.88337 0.23689 0.0
C548 C 0.1779 0.82567 0.23627 0.0
H549 H 0.10279 0.79037 0.30899 0.0
H550 H 0.12883 0.8202 0.28886 0.0
H551 H 0.15092 0.79105 0.24228 0.0
H552 H 0.2205 0.88071 0.18793 0.0
H553 H 0.18949 0.85442 0.20701 0.0
H554 H 0.19806 0.87321 0.26343 0.0
C555 C 0.12783 0.80227 0.28823 0.0
C556 C 0.16124 0.80883 0.24716 0.0
C557 C 0.11281 0.78509 0.29979 0.0
C558 C 0.22395 0.88203 0.20159 0.0
C559 C 0.20622 0.8666 0.21256 0.0
C560 C 0.18808 0.85527 0.25869 0.0
C561 C 0.14122 0.79633 0.276 0.0
C562 C 0.15803 0.81479 0.26409 0.0
C563 C 0.21007 0.86677 0.23035 0.0
C564 C 0.19169 0.84912 0.24188 0.0
H565 H 0.12319 0.73766 0.28655 0.0
H566 H 0.14912 0.76739 0.26645 0.0
H567 H 0.16978 0.84358 0.28265 0.0
H568 H 0.26631 0.91145 0.23139 0.0
H569 H 0.23576 0.88394 0.25048 0.0
C570 C 0.76769 0.66524 0.70332 0.0
C571 C 0.75196 0.67604 0.70606 0.0
C572 C 0.78452 0.66665 0.71566 0.0
C573 C 0.81811 0.70024 0.75283 0.0
H574 H 0.82277 0.64092 0.76347 0.0
C575 C 0.87659 0.69121 0.80836 0.0
C576 C 0.8867 0.67468 0.80651 0.0
C577 C 0.86106 0.69302 0.79597 0.0
C578 C 0.82212 0.65778 0.76048 0.0
H579 H 0.7418 0.69711 0.72385 0.0
H580 H 0.77149 0.69962 0.7456 0.0
H581 H 0.794 0.64119 0.74247 0.0
H582 H 0.88893 0.6478 0.78955 0.0
H583 H 0.86323 0.65199 0.76763 0.0
H584 H 0.84662 0.71695 0.77063 0.0
C585 C 0.77071 0.69013 0.73378 0.0
C586 C 0.80544 0.65787 0.74849 0.0
C587 C 0.75363 0.68854 0.72142 0.0
C588 C 0.88175 0.66089 0.79148 0.0
C589 C 0.86655 0.66298 0.77898 0.0
C590 C 0.83507 0.70022 0.76474 0.0
C591 C 0.78612 0.67891 0.73109 0.0
C592 C 0.80334 0.67908 0.74442 0.0
C593 C 0.85545 0.67859 0.78125 0.0
C594 C 0.83743 0.67898 0.76864 0.0
H595 H 0.7667 0.65522 0.69173 0.0
H596 H 0.79629 0.65803 0.71312 0.0
H597 H 0.81696 0.71689 0.74987 0.0
H598 H 0.88032 0.70253 0.81956 0.0
H599 H 0.85288 0.70522 0.79825 0.0
C600 C 0.35291 0.27182 0.78338 0.0
C601 C 0.33598 0.26752 0.79657 0.0
C602 C 0.35153 0.25363 0.77219 0.0
C603 C 0.31222 0.1915 0.75774 0.0
H604 H 0.3729 0.19366 0.7425 0.0
C605 C 0.3246 0.11535 0.71954 0.0
C606 C 0.33963 0.12343 0.70511 0.0
C607 C 0.32237 0.13176 0.7311 0.0
C608 C 0.35579 0.19283 0.74659 0.0
H609 H 0.30342 0.24042 0.80751 0.0
H610 H 0.30196 0.20847 0.78876 0.0
H611 H 0.37222 0.2243 0.76161 0.0
H612 H 0.36424 0.15492 0.69158 0.0
H613 H 0.36061 0.18331 0.71171 0.0
H614 H 0.29602 0.15937 0.74288 0.0
C615 C 0.31611 0.22611 0.78685 0.0
C616 C 0.35535 0.21056 0.75747 0.0
C617 C 0.3172 0.24449 0.79784 0.0
C618 C 0.35241 0.14813 0.70252 0.0
C619 C 0.35044 0.1644 0.71411 0.0
C620 C 0.31271 0.17347 0.74699 0.0
C621 C 0.33353 0.23031 0.77403 0.0
C622 C 0.33359 0.21051 0.76296 0.0
C623 C 0.33552 0.15647 0.72857 0.0
C624 C 0.33453 0.17423 0.74106 0.0
H625 H 0.36783 0.28907 0.78195 0.0
H626 H 0.36492 0.2579 0.7622 0.0
H627 H 0.29509 0.1908 0.76158 0.0
H628 H 0.31444 0.0964 0.72178 0.0
H629 H 0.31079 0.12514 0.74218 0.0
C630 C 0.90852 0.23816 0.7237 0.0
C631 C 0.90043 0.24183 0.70761 0.0
C632 C 0.89335 0.22013 0.73471 0.0
C633 C 0.83472 0.16584 0.73521 0.0
H634 H 0.83959 0.17599 0.78436 0.0
C635 C 0.75945 0.11195 0.78335 0.0
C636 C 0.76613 0.10479 0.79888 0.0
C637 C 0.77676 0.1268 0.77179 0.0
C638 C 0.83815 0.17279 0.77066 0.0
H639 H 0.86997 0.23005 0.69063 0.0
H640 H 0.84335 0.19955 0.7099 0.0
H641 H 0.86807 0.20577 0.76536 0.0
H642 H 0.79663 0.10667 0.81372 0.0
H643 H 0.82657 0.13318 0.7939 0.0
H644 H 0.8041 0.13328 0.74063 0.0
C645 C 0.86159 0.20971 0.71391 0.0
C646 C 0.85459 0.18984 0.75971 0.0
C647 C 0.87683 0.22739 0.70285 0.0
C648 C 0.79064 0.11228 0.80219 0.0
C649 C 0.8079 0.12742 0.79079 0.0
C650 C 0.81807 0.14901 0.74614 0.0
C651 C 0.8696 0.20564 0.72998 0.0
C652 C 0.85298 0.18677 0.74179 0.0
C653 C 0.80116 0.1351 0.77557 0.0
C654 C 0.81949 0.15239 0.76397 0.0
H655 H 0.92669 0.24893 0.72762 0.0
H656 H 0.90039 0.21741 0.74682 0.0
H657 H 0.83317 0.16236 0.72156 0.0
H658 H 0.74086 0.10689 0.78036 0.0
H659 H 0.77102 0.13254 0.7602 0.0
C660 C 1.00427 0.4398 0.04488 0.0
C661 C 0.01597 0.45062 0.06013 0.0
C662 C 1.00185 0.45353 0.03131 0.0
C663 C 0.02695 0.51585 0.01429 0.0
H664 H 0.97059 0.49121 0.98571 0.0
C665 C 0.00964 0.57446 0.96276 0.0
C666 C 0.99771 0.56368 0.94757 0.0
C667 C 0.012 0.56069 0.97632 0.0
C668 C 0.98664 0.4983 0.99337 0.0
H669 H 0.03394 0.48476 0.0729 0.0
H670 H 0.02859 0.50844 0.04969 0.0
H671 H 0.97378 0.4675 0.00971 0.0
H672 H 0.97929 0.52954 0.93489 0.0
H673 H 0.98459 0.50577 0.95805 0.0
H674 H 0.03985 0.54662 0.99794 0.0
C675 C 0.02186 0.48931 0.04802 0.0
C676 C 0.98846 0.48465 0.00723 0.0
C677 C 0.02456 0.4756 0.06153 0.0
C678 C 0.98885 0.53867 0.94621 0.0
C679 C 0.99152 0.52491 0.9597 0.0
C680 C 0.02515 0.5295 1.00042 0.0
C681 C 0.01072 0.47851 0.03262 0.0
C682 C 0.00864 0.49321 0.01791 0.0
C683 C 1.00288 0.53568 0.97505 0.0
C684 C 0.00496 0.52095 0.98974 0.0
H685 H 0.99701 0.42063 0.0433 0.0
H686 H 0.99339 0.44449 0.01964 0.0
H687 H 0.04299 0.52294 0.02196 0.0
H688 H 0.01714 0.59365 0.96431 0.0
H689 H 0.02062 0.56973 0.98795 0.0
C690 C 0.4544 0.43582 0.9631 0.0
C691 C 0.44342 0.44544 0.95142 0.0
C692 C 0.46889 0.44978 0.97619 0.0
C693 C 0.48252 0.50502 1.00105 0.0
H694 H 0.53906 0.49634 0.01372 0.0
C695 C 0.55078 0.56608 0.05011 0.0
C696 C 0.56089 0.55544 0.06172 0.0
C697 C 0.5366 0.55301 0.03655 0.0
C698 C 0.5232 0.4988 0.0105 0.0
H699 H 0.4393 0.47751 0.94435 0.0
H700 H 0.46508 0.50214 0.96708 0.0
H701 H 0.51453 0.47357 0.99004 0.0
H702 H 0.56388 0.52263 0.06815 0.0
H703 H 0.53879 0.49961 0.04459 0.0
H704 H 0.49124 0.53027 0.02153 0.0
C705 C 0.46213 0.48359 0.96622 0.0
C706 C 0.5091 0.48574 0.99688 0.0
C707 C 0.44755 0.46955 0.95307 0.0
C708 C 0.55627 0.53131 0.0595 0.0
C709 C 0.54209 0.51821 0.04588 0.0
C710 C 0.49665 0.51811 0.01467 0.0
C711 C 0.473 0.47386 0.97795 0.0
C712 C 0.48848 0.48854 0.99204 0.0
C713 C 0.5321 0.52891 0.03421 0.0
C714 C 0.51711 0.51508 0.01963 0.0
H715 H 0.45197 0.41744 0.96206 0.0
H716 H 0.47665 0.44153 0.98508 0.0
H717 H 0.46662 0.50742 0.99785 0.0
H718 H 0.55372 0.58456 0.05157 0.0
H719 H 0.52944 0.56193 0.02775 0.0
C720 C 0.43246 0.97183 0.04346 0.0
C721 C 0.43728 0.98864 0.0567 0.0
C722 C 0.44919 0.97497 0.03051 0.0
C723 C 0.51347 0.00746 0.02001 0.0
H724 H 0.49143 0.98964 0.97341 0.0
C725 C 0.57897 0.02921 0.96294 0.0
C726 C 0.57395 0.01226 0.94977 0.0
C727 C 0.56228 0.02638 0.97586 0.0
C728 C 0.4979 0.99443 0.98638 0.0
H729 H 0.46365 0.02198 0.06669 0.0
H730 H 0.4929 0.02763 0.04396 0.0
H731 H 0.46271 0.98513 0.99611 0.0
H732 H 0.5473 0.97903 0.93987 0.0
H733 H 0.51814 0.9739 0.96256 0.0
H734 H 0.54866 0.01672 0.01027 0.0
C735 C 0.47621 0.01181 0.04372 0.0
C736 C 0.4814 0.99187 0.99943 0.0
C737 C 0.45944 0.0086 0.05676 0.0
C738 C 0.55166 0.9925 0.94975 0.0
C739 C 0.53494 0.9896 0.96276 0.0
C740 C 0.52997 0.01001 0.00695 0.0
C741 C 0.47125 0.99505 0.03039 0.0
C742 C 0.48895 0.99829 0.01643 0.0
C743 C 0.54007 0.0065 0.97602 0.0
C744 C 0.52242 1.00353 0.98995 0.0
H745 H 0.41581 0.95596 0.04322 0.0
H746 H 0.44492 0.96141 0.02072 0.0
H747 H 0.51993 0.01223 0.03297 0.0
H748 H 0.59576 0.04493 0.96315 0.0
H749 H 0.5667 0.04004 0.9856 0.0
C750 C 0.43255 0.00484 0.54227 0.0
C751 C 0.44255 0.01563 0.55795 0.0
C752 C 0.4467 1.00122 0.52955 0.0
C753 C 0.50983 0.02242 0.51558 0.0
H754 H 0.48491 0.96575 0.48724 0.0
C755 C 0.56958 0.99916 0.46869 0.0
C756 C 0.55977 0.98828 0.45301 0.0
C757 C 0.5553 1.00288 0.48125 0.0
C758 C 0.49208 0.98185 0.49487 0.0
H759 H 0.47544 0.03079 0.57248 0.0
H760 H 0.49985 0.02366 0.55061 0.0
H761 H 0.46005 0.97074 0.50977 0.0
H762 H 0.52708 0.97311 0.43825 0.0
H763 H 0.50241 0.98042 0.45986 0.0
H764 H 0.54186 0.03352 0.5007 0.0
C765 C 0.48112 0.01843 0.548 0.0
C766 C 0.47779 0.9847 0.50784 0.0
C767 C 0.467 0.02218 0.56069 0.0
C768 C 0.53537 0.98177 0.45007 0.0
C769 C 0.5211 0.98563 0.4626 0.0
C770 C 0.52411 0.01957 0.50262 0.0
C771 C 0.47123 0.00815 0.53218 0.0
C772 C 0.48648 0.00501 0.5184 0.0
C773 C 0.53082 0.99599 0.47844 0.0
C774 C 0.51545 0.99923 0.49209 0.0
H775 H 0.41375 0.99927 0.53977 0.0
H776 H 0.43846 0.99345 0.5175 0.0
H777 H 0.517 0.03851 0.52322 0.0
H778 H 0.58835 0.00472 0.47134 0.0
H779 H 0.56341 0.0107 0.49333 0.0
C780 C 0.9995 0.42935 0.54094 0.0
C781 C 0.99642 0.43419 0.55819 0.0
C782 C 1.00248 0.44619 0.52807 0.0
C783 C 0.99239 0.50043 0.51921 0.0
H784 H 0.0332 0.50635 0.47993 0.0
C785 C 0.01537 0.57641 0.46942 0.0
C786 C 0.01815 0.57164 0.4521 0.0
C787 C 0.01214 0.55934 0.48216 0.0
C788 C 0.02146 0.50472 0.49068 0.0
H789 H 0.99476 0.4611 0.57537 0.0
H790 H 1.0011 0.49087 0.55306 0.0
H791 H 0.02997 0.47807 0.50267 0.0
H792 H 0.019 0.54464 0.43466 0.0
H793 H 0.01237 0.51451 0.4568 0.0
H794 H 0.98396 0.52715 0.50724 0.0
C795 C 1.00051 0.4737 0.54941 0.0
C796 C 0.01963 0.48849 0.50378 0.0
C797 C 0.99726 0.45673 0.56228 0.0
C798 C 0.01676 0.54895 0.44782 0.0
C799 C 0.01332 0.53177 0.46057 0.0
C800 C 0.99425 0.51669 0.50612 0.0
C801 C 1.00281 0.46854 0.53209 0.0
C802 C 0.00508 0.48612 0.51824 0.0
C803 C 0.01129 0.53686 0.47795 0.0
C804 C 0.00883 0.51908 0.49169 0.0
H805 H 0.99941 0.41239 0.53729 0.0
H806 H 1.00396 0.4414 0.51491 0.0
H807 H 0.98064 0.49882 0.52994 0.0
H808 H 0.01589 0.59349 0.47322 0.0
H809 H 0.01088 0.56405 0.49538 0.0
C810 C 0.46624 0.4738 0.44877 0.0
C811 C 0.45335 0.44902 0.45114 0.0
C812 C 0.47945 0.48828 0.46221 0.0
C813 C 0.50537 0.48623 0.505 0.0
H814 H 0.50383 0.54795 0.51075 0.0
C815 C 0.54235 0.54253 0.56607 0.0
C816 C 0.55414 0.56751 0.5643 0.0
C817 C 0.53009 0.52823 0.55225 0.0
C818 C 0.50477 0.53092 0.50926 0.0
H819 H 0.44512 0.42009 0.46951 0.0
H820 H 0.46733 0.44536 0.493 0.0
H821 H 0.48346 0.52303 0.48657 0.0
H822 H 0.56147 0.59688 0.54642 0.0
H823 H 0.54124 0.572 0.52228 0.0
H824 H 0.52672 0.49411 0.52766 0.0
C825 C 0.46754 0.45361 0.48069 0.0
C826 C 0.49304 0.51658 0.49533 0.0
C827 C 0.45449 0.43911 0.46722 0.0
C828 C 0.55301 0.57773 0.54832 0.0
C829 C 0.54103 0.56342 0.53446 0.0
C830 C 0.51715 0.50059 0.51891 0.0
C831 C 0.48003 0.47844 0.47843 0.0
C832 C 0.49311 0.49399 0.49303 0.0
C833 C 0.52946 0.53843 0.53619 0.0
C834 C 0.51696 0.52313 0.52129 0.0
H835 H 0.46562 0.48219 0.43668 0.0
H836 H 0.48913 0.50726 0.45989 0.0
H837 H 0.50617 0.46913 0.50353 0.0
H838 H 0.54302 0.53384 0.57801 0.0
H839 H 0.52108 0.50911 0.55422 0.0
C840 C 0.9716 0.56068 0.27782 0.0
C841 C 0.96359 0.55327 0.29461 0.0
C842 C 0.96532 0.54414 0.26449 0.0
C843 C 0.92843 0.48016 0.25305 0.0
H844 H 0.98374 0.49086 0.22476 0.0
C845 C 0.94575 0.40844 0.214 0.0
C846 C 0.95798 0.41604 0.19827 0.0
C847 C 0.94062 0.42433 0.2242 0.0
C848 C 0.96796 0.48777 0.23233 0.0
H849 H 0.94037 0.52316 0.31016 0.0
H850 H 0.93066 0.49413 0.28721 0.0
H851 H 0.98552 0.52084 0.24525 0.0
H852 H 0.9723 0.44579 0.18032 0.0
H853 H 0.96252 0.47291 0.19772 0.0
H854 H 0.9115 0.44622 0.24048 0.0
C855 C 0.94159 0.51271 0.28421 0.0
C856 C 0.96892 0.50506 0.24406 0.0
C857 C 0.94747 0.52935 0.29746 0.0
C858 C 0.96278 0.43912 0.19225 0.0
C859 C 0.95745 0.45485 0.20234 0.0
C860 C 0.92758 0.46263 0.24135 0.0
C861 C 0.95129 0.51974 0.26772 0.0
C862 C 0.94918 0.5016 0.25455 0.0
C863 C 0.94744 0.448 0.21875 0.0
C864 C 0.94734 0.4664 0.23082 0.0
H865 H 0.98396 0.57893 0.2751 0.0
H866 H 0.97247 0.55033 0.2518 0.0
H867 H 0.91288 0.47691 0.26092 0.0
H868 H 0.9413 0.39061 0.21889 0.0
H869 H 0.93282 0.41858 0.2368 0.0
C870 C 0.51097 0.40127 0.30239 0.0
C871 C 0.48634 0.39067 0.29901 0.0
C872 C 0.5274 0.41078 0.289 0.0
C873 C 0.52805 0.43761 0.24723 0.0
H874 H 0.59321 0.44423 0.24414 0.0
C875 C 0.58802 0.49632 0.19522 0.0
C876 C 0.61017 0.51344 0.20085 0.0
C877 C 0.57494 0.47639 0.20531 0.0
C878 C 0.57504 0.44249 0.24487 0.0
H879 H 0.45986 0.3797 0.27877 0.0
H880 H 0.48847 0.39534 0.25551 0.0
H881 H 0.56602 0.41715 0.26559 0.0
H882 H 0.63711 0.5214 0.22065 0.0
H883 H 0.61358 0.48729 0.23871 0.0
H884 H 0.53695 0.46338 0.22716 0.0
C885 C 0.49506 0.39694 0.26853 0.0
C886 C 0.55951 0.42701 0.25711 0.0
C887 C 0.47866 0.38768 0.28188 0.0
C888 C 0.6198 0.50896 0.21613 0.0
C889 C 0.60647 0.4892 0.22639 0.0
C890 C 0.54344 0.45295 0.2351 0.0
C891 C 0.51947 0.40969 0.27202 0.0
C892 C 0.53584 0.42446 0.25839 0.0
C893 C 0.58343 0.47331 0.22142 0.0
C894 C 0.5671 0.45561 0.23374 0.0
H895 H 0.51746 0.40338 0.31545 0.0
H896 H 0.5461 0.4204 0.29211 0.0
H897 H 0.51021 0.43674 0.24824 0.0
H898 H 0.57987 0.49903 0.18362 0.0
H899 H 0.55747 0.46409 0.20092 0.0
C900 C 0.45303 0.02293 0.22677 0.0
C901 C 0.45143 0.04108 0.21661 0.0
C902 C 0.47306 0.02747 0.23682 0.0
C903 C 0.53019 0.07493 0.25271 0.0
H904 H 0.54695 0.02107 0.25324 0.0
C905 C 0.5969 0.06679 0.30033 0.0
C906 C 0.60478 0.04864 0.29795 0.0
C907 C 0.58303 0.07121 0.28791 0.0
C908 C 0.54317 0.03668 0.25291 0.0
H909 H 0.46881 0.07907 0.21082 0.0
H910 H 0.5045 0.08648 0.22731 0.0
H911 H 0.51218 0.01804 0.23798 0.0
H912 H 0.60811 0.02426 0.27916 0.0
H913 H 0.58643 0.03394 0.25687 0.0
H914 H 0.56211 0.09403 0.26687 0.0
C915 C 0.4901 0.06875 0.22763 0.0
C916 C 0.5226 0.03463 0.2445 0.0
C917 C 0.46968 0.06437 0.21793 0.0
C918 C 0.602 0.03802 0.28171 0.0
C919 C 0.58898 0.0432 0.26899 0.0
C920 C 0.55124 0.07722 0.26081 0.0
C921 C 0.49243 0.05007 0.23662 0.0
C922 C 0.51535 0.05338 0.24476 0.0
C923 C 0.57763 0.05835 0.27246 0.0
C924 C 0.55771 0.05786 0.26143 0.0
H925 H 0.43961 0.00473 0.22622 0.0
H926 H 0.47374 0.01285 0.24417 0.0
H927 H 0.52528 0.08984 0.2531 0.0
H928 H 0.59976 0.0763 0.31237 0.0
H929 H 0.57509 0.08332 0.29116 0.0
C930 C 0.06694 0.60285 0.79505 0.0
C931 C 0.05048 0.59336 0.80858 0.0
C932 C 0.07314 0.58783 0.78468 0.0
C933 C 0.06745 0.52515 0.78182 0.0
H934 H 0.0672 0.53573 0.73277 0.0
C935 C 0.035 0.45161 0.73076 0.0
C936 C 0.0493 0.45457 0.71608 0.0
C937 C 0.0413 0.46952 0.74311 0.0
C938 C 0.06772 0.5328 0.74645 0.0
H939 H 0.02785 0.56068 0.82188 0.0
H940 H 0.03842 0.53474 0.80396 0.0
H941 H 0.06734 0.56639 0.75254 0.0
H942 H 0.08256 0.47816 0.70373 0.0
H943 H 0.09264 0.50993 0.72488 0.0
H944 H 0.06595 0.49074 0.77557 0.0
C945 C 0.04714 0.55377 0.80153 0.0
C946 C 0.06791 0.55037 0.75779 0.0
C947 C 0.04104 0.56872 0.81187 0.0
C948 C 0.0707 0.47545 0.71457 0.0
C949 C 0.07665 0.49361 0.72672 0.0
C950 C 0.0668 0.50744 0.77049 0.0
C951 C 0.06296 0.56303 0.78763 0.0
C952 C 0.06703 0.54642 0.77563 0.0
C953 C 0.06177 0.49091 0.74091 0.0
C954 C 0.06633 0.51091 0.75275 0.0
H955 H 0.07462 0.6218 0.79223 0.0
H956 H 0.08557 0.59559 0.77419 0.0
H957 H 0.0674 0.52177 0.79547 0.0
H958 H 0.01825 0.43608 0.73234 0.0
H959 H 0.02947 0.4672 0.75394 0.0
C960 C 0.50657 0.621 0.71393 0.0
C961 C 0.51563 0.60916 0.70251 0.0
C962 C 0.4865 0.60802 0.72408 0.0
C963 C 0.43658 0.54758 0.72841 0.0
H964 H 0.44124 0.56145 0.77711 0.0
C965 C 0.40044 0.47681 0.78071 0.0
C966 C 0.38788 0.48044 0.79468 0.0
C967 C 0.41064 0.49448 0.76827 0.0
C968 C 0.43944 0.55767 0.76349 0.0
H969 H 0.51084 0.5744 0.69303 0.0
H970 H 0.47623 0.55202 0.71049 0.0
H971 H 0.46988 0.58992 0.75723 0.0
H972 H 0.37512 0.50533 0.80575 0.0
H973 H 0.39423 0.53668 0.78437 0.0
H974 H 0.40731 0.51453 0.73487 0.0
C975 C 0.48404 0.57132 0.71133 0.0
C976 C 0.45579 0.57396 0.75209 0.0
C977 C 0.50396 0.5842 0.70125 0.0
C978 C 0.38509 0.50199 0.79544 0.0
C979 C 0.39585 0.51994 0.78317 0.0
C980 C 0.42052 0.53123 0.73979 0.0
C981 C 0.47513 0.583 0.72295 0.0
C982 C 0.4551 0.56858 0.73451 0.0
C983 C 0.40892 0.51637 0.76961 0.0
C984 C 0.42237 0.53575 0.75746 0.0
H985 H 0.51516 0.64024 0.71519 0.0
H986 H 0.48002 0.61753 0.73289 0.0
H987 H 0.4352 0.54322 0.71489 0.0
H988 H 0.40358 0.46087 0.77976 0.0
H989 H 0.42096 0.49148 0.75802 0.0
C990 C 0.54641 0.94496 0.78308 0.0
C991 C 0.55865 0.96806 0.78984 0.0
C992 C 0.52485 0.93882 0.77434 0.0
C993 C 0.47485 0.95548 0.77304 0.0
H994 H 0.46345 0.93189 0.72637 0.0
C995 C 0.41646 0.97737 0.72657 0.0
C996 C 0.40277 0.96064 0.71428 0.0
C997 C 0.43081 0.97195 0.73797 0.0
C998 C 0.46609 0.93788 0.73957 0.0
H999 H 0.55797 1.0028 0.79252 0.0
H1000 H 0.52085 0.99219 0.77719 0.0
H1001 H 0.49922 0.9345 0.74145 0.0
H1002 H 0.39198 0.92414 0.70552 0.0
H1003 H 0.41797 0.91515 0.72507 0.0
H1004 H 0.44242 0.95988 0.77102 0.0
C1005 C 0.52783 0.97884 0.77868 0.0
C1006 C 0.48656 0.93943 0.74814 0.0
C1007 C 0.54931 0.98501 0.78722 0.0
C1008 C 0.40271 0.93775 0.71448 0.0
C1009 C 0.41749 0.93249 0.72572 0.0
C1010 C 0.45444 0.95386 0.76454 0.0
C1011 C 0.51513 0.95558 0.77253 0.0
C1012 C 0.49155 0.94923 0.76466 0.0
C1013 C 0.43208 0.94977 0.73728 0.0
C1014 C 0.45039 0.94603 0.74748 0.0
H1015 H 0.55319 0.93153 0.78493 0.0
H1016 H 0.51537 0.9208 0.76959 0.0
H1017 H 0.47814 0.96267 0.78592 0.0
H1018 H 0.41748 0.99531 0.72673 0.0
H1019 H 0.44211 0.98577 0.7466 0.0
loop_
_geom_bond_atom_site_label_1
_geom_bond_atom_site_label_2
_geom_bond_distance
_geom_bond_site_symmetry_2
_ccdc_geom_bond_type
C0 C1 1.264 . S
C0 C5 1.479 . S
C0 C10 1.465 . S
C1 C0 1.264 . S
C1 C3 1.339 . S
C1 H28 0.931 . S
C2 C3 1.395 . S
C2 C4 1.320 . S
C3 C1 1.339 . S
C3 C2 1.395 . S
C3 H29 0.929 . S
C4 C2 1.320 . S
C4 C5 1.405 . S
C4 H30 0.930 . S
C5 C0 1.479 . S
C5 C4 1.405 . S
C5 H31 0.931 . S
U6 O7 2.454 . S
U6 O8 2.458 1_455 S
U6 C9 2.984 1_455 S
U6 C10 2.847 . S
U6 C23 2.882 1_455 S
U6 O24 2.441 . S
U6 O25 2.420 . S
U6 O26 2.455 1_455 S
U6 O27 2.449 . S
O7 U6 2.454 . S
O7 C9 1.353 1_455 S
O8 U6 2.458 1_655 S
O8 C9 1.286 . S
C9 U6 2.984 1_655 S
C9 O7 1.353 1_655 S
C9 O8 1.286 . S
C9 C11 1.363 . S
C10 C0 1.465 . S
C10 U6 2.847 . S
C10 O24 1.249 . S
C10 O25 1.202 . S
C11 C9 1.363 . S
C11 C13 1.408 1_655 S
C11 C16 1.342 . S
C12 C13 1.310 1_655 S
C12 C15 1.461 . S
C12 H32 0.932 1_655 S
C13 C11 1.408 1_455 S
C13 C12 1.310 1_455 S
C13 H33 0.930 . S
C14 C15 1.474 . S
C14 C16 1.285 . S
C14 H34 0.929 . S
C15 C12 1.461 . S
C15 C14 1.474 . S
C16 C11 1.342 . S
C16 C14 1.285 . S
C16 H35 0.930 . S
C17 C20 1.424 . S
C17 C22 1.245 . S
C17 C23 1.428 . S
C18 C21 1.260 . S
C18 C22 1.477 . S
C18 H36 0.932 . S
C19 C20 1.384 . S
C19 C21 1.479 . S
C19 H37 0.929 . S
C20 C17 1.424 . S
C20 C19 1.384 . S
C20 H38 0.928 . S
C21 C18 1.260 . S
C21 C19 1.479 . S
C22 C17 1.245 . S
C22 C18 1.477 . S
C22 H39 0.932 . S
C23 U6 2.882 1_655 S
C23 C17 1.428 . S
C23 O26 1.301 . S
C23 O27 1.282 1_655 S
O24 U6 2.441 . S
O24 C10 1.249 . S
O25 U6 2.420 . S
O25 C10 1.202 . S
O26 U6 2.455 1_655 S
O26 C23 1.301 . S
O27 U6 2.449 . S
O27 C23 1.282 1_455 S
H28 C1 0.931 . S
H29 C3 0.929 . S
H30 C4 0.930 . S
H31 C5 0.931 . S
H32 C12 0.932 1_455 S
H33 C13 0.930 . S
H34 C14 0.929 . S
H35 C16 0.930 . S
H36 C18 0.932 . S
H37 C19 0.929 . S
H38 C20 0.928 . S
H39 C22 0.932 . S
C40 C41 1.264 . S
C40 C45 1.479 . S
C40 C50 1.465 . S
C41 C40 1.264 . S
C41 C43 1.339 . S
C41 H68 0.931 . S
C42 C43 1.395 . S
C42 C44 1.320 . S
C43 C41 1.339 . S
C43 C42 1.395 . S
C43 H69 0.929 . S
C44 C42 1.320 . S
C44 C45 1.405 . S
C44 H70 0.930 . S
C45 C40 1.479 . S
C45 C44 1.405 . S
C45 H71 0.931 . S
U46 O47 2.454 . S
U46 O48 2.458 . S
U46 C49 2.984 . S
U46 C50 2.847 . S
U46 C63 2.882 . S
U46 O64 2.441 . S
U46 O65 2.420 . S
U46 O66 2.455 . S
U46 O67 2.449 . S
O47 U46 2.454 . S
O47 C49 1.353 . S
O48 U46 2.458 . S
O48 C49 1.286 . S
C49 U46 2.984 . S
C49 O47 1.353 . S
C49 O48 1.286 . S
C49 C51 1.363 . S
C50 C40 1.465 . S
C50 U46 2.847 . S
C50 O64 1.249 . S
C50 O65 1.202 . S
C51 C49 1.363 . S
C51 C53 1.408 . S
C51 C56 1.342 . S
C52 C53 1.310 . S
C52 C55 1.461 . S
C52 H72 0.932 . S
C53 C51 1.408 . S
C53 C52 1.310 . S
C53 H73 0.930 . S
C54 C55 1.474 . S
C54 C56 1.285 . S
C54 H74 0.929 . S
C55 C52 1.461 . S
C55 C54 1.474 . S
C56 C51 1.342 . S
C56 C54 1.285 . S
C56 H75 0.930 . S
C57 C60 1.424 . S
C57 C62 1.245 . S
C57 C63 1.428 . S
C58 C61 1.260 . S
C58 C62 1.477 . S
C58 H76 0.932 . S
C59 C60 1.384 . S
C59 C61 1.479 . S
C59 H77 0.929 . S
C60 C57 1.424 . S
C60 C59 1.384 . S
C60 H78 0.928 . S
C61 C58 1.260 . S
C61 C59 1.479 . S
C62 C57 1.245 . S
C62 C58 1.477 . S
C62 H79 0.932 . S
C63 U46 2.882 . S
C63 C57 1.428 . S
C63 O66 1.301 . S
C63 O67 1.282 . S
O64 U46 2.441 . S
O64 C50 1.249 . S
O65 U46 2.420 . S
O65 C50 1.202 . S
O66 U46 2.455 . S
O66 C63 1.301 . S
O67 U46 2.449 . S
O67 C63 1.282 . S
H68 C41 0.931 . S
H69 C43 0.929 . S
H70 C44 0.930 . S
H71 C45 0.931 . S
H72 C52 0.932 . S
H73 C53 0.930 . S
H74 C54 0.929 . S
H75 C56 0.930 . S
H76 C58 0.932 . S
H77 C59 0.929 . S
H78 C60 0.928 . S
H79 C62 0.932 . S
C80 C81 1.264 . S
C80 C85 1.479 . S
C80 C90 1.465 . S
C81 C80 1.264 . S
C81 C83 1.339 . S
C81 H108 0.931 . S
C82 C83 1.395 . S
C82 C84 1.320 . S
C83 C81 1.339 . S
C83 C82 1.395 . S
C83 H109 0.929 . S
C84 C82 1.320 . S
C84 C85 1.405 . S
C84 H110 0.930 . S
C85 C80 1.479 . S
C85 C84 1.405 . S
C85 H111 0.931 . S
U86 O87 2.454 . S
U86 O88 2.458 1_565 S
U86 C89 2.984 1_565 S
U86 C90 2.847 . S
U86 C103 2.882 1_565 S
U86 O104 2.441 . S
U86 O105 2.420 . S
U86 O106 2.455 1_565 S
U86 O107 2.449 . S
O87 U86 2.454 . S
O87 C89 1.353 1_565 S
O88 U86 2.458 1_545 S
O88 C89 1.286 . S
C89 U86 2.984 1_545 S
C89 O87 1.353 1_545 S
C89 O88 1.286 . S
C89 C91 1.363 . S
C90 C80 1.465 . S
C90 U86 2.847 . S
C90 O104 1.249 . S
C90 O105 1.202 . S
C91 C89 1.363 . S
C91 C93 1.408 1_545 S
C91 C96 1.342 . S
C92 C93 1.310 1_545 S
C92 C95 1.461 . S
C92 H112 0.932 1_545 S
C93 C91 1.408 1_565 S
C93 C92 1.310 1_565 S
C93 H113 0.930 . S
C94 C95 1.474 . S
C94 C96 1.285 . S
C94 H114 0.929 . S
C95 C92 1.461 . S
C95 C94 1.474 . S
C96 C91 1.342 . S
C96 C94 1.285 . S
C96 H115 0.930 . S
C97 C100 1.424 . S
C97 C102 1.245 . S
C97 C103 1.428 . S
C98 C101 1.260 . S
C98 C102 1.477 . S
C98 H116 0.932 . S
C99 C100 1.384 . S
C99 C101 1.479 . S
C99 H117 0.929 . S
C100 C97 1.424 . S
C100 C99 1.384 . S
C100 H118 0.928 . S
C101 C98 1.260 . S
C101 C99 1.479 . S
C102 C97 1.245 . S
C102 C98 1.477 . S
C102 H119 0.932 . S
C103 U86 2.882 1_545 S
C103 C97 1.428 . S
C103 O106 1.301 . S
C103 O107 1.282 1_545 S
O104 U86 2.441 . S
O104 C90 1.249 . S
O105 U86 2.420 . S
O105 C90 1.202 . S
O106 U86 2.455 1_545 S
O106 C103 1.301 . S
O107 U86 2.449 . S
O107 C103 1.282 1_565 S
H108 C81 0.931 . S
H109 C83 0.929 . S
H110 C84 0.930 . S
H111 C85 0.931 . S
H112 C92 0.932 1_565 S
H113 C93 0.930 . S
H114 C94 0.929 . S
H115 C96 0.930 . S
H116 C98 0.932 . S
H117 C99 0.929 . S
H118 C100 0.928 . S
H119 C102 0.932 . S
C120 C121 1.264 . S
C120 C125 1.479 . S
C120 C130 1.465 . S
C121 C120 1.264 . S
C121 C123 1.339 . S
C121 H148 0.931 . S
C122 C123 1.395 . S
C122 C124 1.320 . S
C123 C121 1.339 . S
C123 C122 1.395 . S
C123 H149 0.929 . S
C124 C122 1.320 . S
C124 C125 1.405 . S
C124 H150 0.930 . S
C125 C120 1.479 . S
C125 C124 1.405 . S
C125 H151 0.931 . S
U126 O127 2.454 . S
U126 O128 2.458 1_565 S
U126 C129 2.984 1_565 S
U126 C130 2.847 . S
U126 C143 2.882 1_565 S
U126 O144 2.441 . S
U126 O145 2.420 . S
U126 O146 2.455 1_565 S
U126 O147 2.449 . S
O127 U126 2.454 . S
O127 C129 1.353 1_565 S
O128 U126 2.458 1_545 S
O128 C129 1.286 . S
C129 U126 2.984 1_545 S
C129 O127 1.353 1_545 S
C129 O128 1.286 . S
C129 C131 1.363 . S
C130 C120 1.465 . S
C130 U126 2.847 . S
C130 O144 1.249 . S
C130 O145 1.202 . S
C131 C129 1.363 . S
C131 C133 1.408 1_545 S
C131 C136 1.342 . S
C132 C133 1.310 1_545 S
C132 C135 1.461 . S
C132 H152 0.932 1_545 S
C133 C131 1.408 1_565 S
C133 C132 1.310 1_565 S
C133 H153 0.930 . S
C134 C135 1.474 . S
C134 C136 1.285 . S
C134 H154 0.929 . S
C135 C132 1.461 . S
C135 C134 1.474 . S
C136 C131 1.342 . S
C136 C134 1.285 . S
C136 H155 0.930 . S
C137 C140 1.424 . S
C137 C142 1.245 . S
C137 C143 1.428 . S
C138 C141 1.260 . S
C138 C142 1.477 . S
C138 H156 0.932 . S
C139 C140 1.384 . S
C139 C141 1.479 . S
C139 H157 0.929 . S
C140 C137 1.424 . S
C140 C139 1.384 . S
C140 H158 0.928 . S
C141 C138 1.260 . S
C141 C139 1.479 . S
C142 C137 1.245 . S
C142 C138 1.477 . S
C142 H159 0.932 . S
C143 U126 2.882 1_545 S
C143 C137 1.428 . S
C143 O146 1.301 . S
C143 O147 1.282 1_545 S
O144 U126 2.441 . S
O144 C130 1.249 . S
O145 U126 2.420 . S
O145 C130 1.202 . S
O146 U126 2.455 1_545 S
O146 C143 1.301 . S
O147 U126 2.449 . S
O147 C143 1.282 1_565 S
H148 C121 0.931 . S
H149 C123 0.929 . S
H150 C124 0.930 . S
H151 C125 0.931 . S
H152 C132 0.932 1_565 S
H153 C133 0.930 . S
H154 C134 0.929 . S
H155 C136 0.930 . S
H156 C138 0.932 . S
H157 C139 0.929 . S
H158 C140 0.928 . S
H159 C142 0.932 . S
C160 C161 1.264 . S
C160 C165 1.479 . S
C160 C170 1.465 . S
C161 C160 1.264 . S
C161 C163 1.339 . S
C161 H188 0.931 . S
C162 C163 1.395 . S
C162 C164 1.320 . S
C163 C161 1.339 . S
C163 C162 1.395 . S
C163 H189 0.929 . S
C164 C162 1.320 . S
C164 C165 1.405 . S
C164 H190 0.930 . S
C165 C160 1.479 . S
C165 C164 1.405 . S
C165 H191 0.931 . S
U166 O167 2.454 . S
U166 O168 2.458 1_455 S
U166 C169 2.984 1_455 S
U166 C170 2.847 . S
U166 C183 2.882 1_455 S
U166 O184 2.441 . S
U166 O185 2.420 . S
U166 O186 2.455 1_455 S
U166 O187 2.449 . S
O167 U166 2.454 . S
O167 C169 1.353 1_455 S
O168 U166 2.458 1_655 S
O168 C169 1.286 . S
C169 U166 2.984 1_655 S
C169 O167 1.353 1_655 S
C169 O168 1.286 . S
C169 C171 1.363 . S
C170 C160 1.465 . S
C170 U166 2.847 . S
C170 O184 1.249 . S
C170 O185 1.202 . S
C171 C169 1.363 . S
C171 C173 1.408 1_655 S
C171 C176 1.342 . S
C172 C173 1.310 1_655 S
C172 C175 1.461 . S
C172 H192 0.932 1_655 S
C173 C171 1.408 1_455 S
C173 C172 1.310 1_455 S
C173 H193 0.930 . S
C174 C175 1.474 . S
C174 C176 1.285 . S
C174 H194 0.929 . S
C175 C172 1.461 . S
C175 C174 1.474 . S
C176 C171 1.342 . S
C176 C174 1.285 . S
C176 H195 0.930 . S
C177 C180 1.424 . S
C177 C182 1.245 . S
C177 C183 1.428 . S
C178 C181 1.260 . S
C178 C182 1.477 . S
C178 H196 0.932 . S
C179 C180 1.384 . S
C179 C181 1.479 . S
C179 H197 0.929 . S
C180 C177 1.424 . S
C180 C179 1.384 . S
C180 H198 0.928 . S
C181 C178 1.260 . S
C181 C179 1.479 . S
C182 C177 1.245 . S
C182 C178 1.477 . S
C182 H199 0.932 . S
C183 U166 2.882 1_655 S
C183 C177 1.428 . S
C183 O186 1.301 . S
C183 O187 1.282 1_655 S
O184 U166 2.441 . S
O184 C170 1.249 . S
O185 U166 2.420 . S
O185 C170 1.202 . S
O186 U166 2.455 1_655 S
O186 C183 1.301 . S
O187 U166 2.449 . S
O187 C183 1.282 1_455 S
H188 C161 0.931 . S
H189 C163 0.929 . S
H190 C164 0.930 . S
H191 C165 0.931 . S
H192 C172 0.932 1_455 S
H193 C173 0.930 . S
H194 C174 0.929 . S
H195 C176 0.930 . S
H196 C178 0.932 . S
H197 C179 0.929 . S
H198 C180 0.928 . S
H199 C182 0.932 . S
C200 C201 1.264 . S
C200 C205 1.479 . S
C200 C210 1.465 . S
C201 C200 1.264 . S
C201 C203 1.339 . S
C201 H228 0.931 . S
C202 C203 1.395 . S
C202 C204 1.320 . S
C203 C201 1.339 . S
C203 C202 1.395 . S
C203 H229 0.929 . S
C204 C202 1.320 . S
C204 C205 1.405 . S
C204 H230 0.930 . S
C205 C200 1.479 . S
C205 C204 1.405 . S
C205 H231 0.931 . S
U206 O207 2.454 . S
U206 O208 2.458 . S
U206 C209 2.984 . S
U206 C210 2.847 . S
U206 C223 2.882 . S
U206 O224 2.441 . S
U206 O225 2.420 . S
U206 O226 2.455 . S
U206 O227 2.449 . S
O207 U206 2.454 . S
O207 C209 1.353 . S
O208 U206 2.458 . S
O208 C209 1.286 . S
C209 U206 2.984 . S
C209 O207 1.353 . S
C209 O208 1.286 . S
C209 C211 1.363 . S
C210 C200 1.465 . S
C210 U206 2.847 . S
C210 O224 1.249 . S
C210 O225 1.202 . S
C211 C209 1.363 . S
C211 C213 1.408 . S
C211 C216 1.342 . S
C212 C213 1.310 . S
C212 C215 1.461 . S
C212 H232 0.932 . S
C213 C211 1.408 . S
C213 C212 1.310 . S
C213 H233 0.930 . S
C214 C215 1.474 . S
C214 C216 1.285 . S
C214 H234 0.929 . S
C215 C212 1.461 . S
C215 C214 1.474 . S
C216 C211 1.342 . S
C216 C214 1.285 . S
C216 H235 0.930 . S
C217 C220 1.424 . S
C217 C222 1.245 . S
C217 C223 1.428 . S
C218 C221 1.260 . S
C218 C222 1.477 . S
C218 H236 0.932 . S
C219 C220 1.384 . S
C219 C221 1.479 . S
C219 H237 0.929 . S
C220 C217 1.424 . S
C220 C219 1.384 . S
C220 H238 0.928 . S
C221 C218 1.260 . S
C221 C219 1.479 . S
C222 C217 1.245 . S
C222 C218 1.477 . S
C222 H239 0.932 . S
C223 U206 2.882 . S
C223 C217 1.428 . S
C223 O226 1.301 . S
C223 O227 1.282 . S
O224 U206 2.441 . S
O224 C210 1.249 . S
O225 U206 2.420 . S
O225 C210 1.202 . S
O226 U206 2.455 . S
O226 C223 1.301 . S
O227 U206 2.449 . S
O227 C223 1.282 . S
H228 C201 0.931 . S
H229 C203 0.929 . S
H230 C204 0.930 . S
H231 C205 0.931 . S
H232 C212 0.932 . S
H233 C213 0.930 . S
H234 C214 0.929 . S
H235 C216 0.930 . S
H236 C218 0.932 . S
H237 C219 0.929 . S
H238 C220 0.928 . S
H239 C222 0.932 . S
C240 C241 1.264 . S
C240 C245 1.479 . S
C240 C250 1.465 . S
C241 C240 1.264 . S
C241 C243 1.339 . S
C241 H268 0.931 . S
C242 C243 1.395 . S
C242 C244 1.320 . S
C243 C241 1.339 . S
C243 C242 1.395 . S
C243 H269 0.929 . S
C244 C242 1.320 . S
C244 C245 1.405 . S
C244 H270 0.930 . S
C245 C240 1.479 . S
C245 C244 1.405 . S
C245 H271 0.931 . S
U246 O247 2.454 1_455 S
U246 O248 2.458 . S
U246 C249 2.984 . S
U246 C250 2.847 1_455 S
U246 C263 2.882 . S
U246 O264 2.441 1_455 S
U246 O265 2.420 1_455 S
U246 O266 2.455 . S
U246 O267 2.449 . S
O247 U246 2.454 1_655 S
O247 C249 1.353 1_655 S
O248 U246 2.458 . S
O248 C249 1.286 . S
C249 U246 2.984 . S
C249 O247 1.353 1_455 S
C249 O248 1.286 . S
C249 C251 1.363 . S
C250 C240 1.465 . S
C250 U246 2.847 1_655 S
C250 O264 1.249 . S
C250 O265 1.202 . S
C251 C249 1.363 . S
C251 C253 1.408 . S
C251 C256 1.342 . S
C252 C253 1.310 . S
C252 C255 1.461 . S
C252 H272 0.932 1_455 S
C253 C251 1.408 . S
C253 C252 1.310 . S
C253 H273 0.930 1_455 S
C254 C255 1.474 . S
C254 C256 1.285 . S
C254 H274 0.929 . S
C255 C252 1.461 . S
C255 C254 1.474 . S
C256 C251 1.342 . S
C256 C254 1.285 . S
C256 H275 0.930 . S
C257 C260 1.424 . S
C257 C262 1.245 . S
C257 C263 1.428 . S
C258 C261 1.260 . S
C258 C262 1.477 . S
C258 H276 0.932 . S
C259 C260 1.384 . S
C259 C261 1.479 . S
C259 H277 0.929 . S
C260 C257 1.424 . S
C260 C259 1.384 . S
C260 H278 0.928 . S
C261 C258 1.260 . S
C261 C259 1.479 . S
C262 C257 1.245 . S
C262 C258 1.477 . S
C262 H279 0.932 . S
C263 U246 2.882 . S
C263 C257 1.428 . S
C263 O266 1.301 . S
C263 O267 1.282 . S
O264 U246 2.441 1_655 S
O264 C250 1.249 . S
O265 U246 2.420 1_655 S
O265 C250 1.202 . S
O266 U246 2.455 . S
O266 C263 1.301 . S
O267 U246 2.449 . S
O267 C263 1.282 . S
H268 C241 0.931 . S
H269 C243 0.929 . S
H270 C244 0.930 . S
H271 C245 0.931 . S
H272 C252 0.932 1_655 S
H273 C253 0.930 1_655 S
H274 C254 0.929 . S
H275 C256 0.930 . S
H276 C258 0.932 . S
H277 C259 0.929 . S
H278 C260 0.928 . S
H279 C262 0.932 . S
C280 C281 1.264 . S
C280 C285 1.479 . S
C280 C290 1.465 . S
C281 C280 1.264 . S
C281 C283 1.339 . S
C281 H308 0.931 . S
C282 C283 1.395 . S
C282 C284 1.320 . S
C283 C281 1.339 . S
C283 C282 1.395 . S
C283 H309 0.929 . S
C284 C282 1.320 . S
C284 C285 1.405 . S
C284 H310 0.930 . S
C285 C280 1.479 . S
C285 C284 1.405 . S
C285 H311 0.931 . S
U286 O287 2.454 . S
U286 O288 2.458 . S
U286 C289 2.984 . S
U286 C290 2.847 . S
U286 C303 2.882 . S
U286 O304 2.441 . S
U286 O305 2.420 . S
U286 O306 2.455 . S
U286 O307 2.449 . S
O287 U286 2.454 . S
O287 C289 1.353 . S
O288 U286 2.458 . S
O288 C289 1.286 . S
C289 U286 2.984 . S
C289 O287 1.353 . S
C289 O288 1.286 . S
C289 C291 1.363 . S
C290 C280 1.465 . S
C290 U286 2.847 . S
C290 O304 1.249 . S
C290 O305 1.202 . S
C291 C289 1.363 . S
C291 C293 1.408 . S
C291 C296 1.342 . S
C292 C293 1.310 . S
C292 C295 1.461 . S
C292 H312 0.932 . S
C293 C291 1.408 . S
C293 C292 1.310 . S
C293 H313 0.930 . S
C294 C295 1.474 . S
C294 C296 1.285 . S
C294 H314 0.929 . S
C295 C292 1.461 . S
C295 C294 1.474 . S
C296 C291 1.342 . S
C296 C294 1.285 . S
C296 H315 0.930 . S
C297 C300 1.424 . S
C297 C302 1.245 . S
C297 C303 1.428 . S
C298 C301 1.260 . S
C298 C302 1.477 . S
C298 H316 0.932 . S
C299 C300 1.384 . S
C299 C301 1.479 . S
C299 H317 0.929 . S
C300 C297 1.424 . S
C300 C299 1.384 . S
C300 H318 0.928 . S
C301 C298 1.260 . S
C301 C299 1.479 . S
C302 C297 1.245 . S
C302 C298 1.477 . S
C302 H319 0.932 . S
C303 U286 2.882 . S
C303 C297 1.428 . S
C303 O306 1.301 . S
C303 O307 1.282 . S
O304 U286 2.441 . S
O304 C290 1.249 . S
O305 U286 2.420 . S
O305 C290 1.202 . S
O306 U286 2.455 . S
O306 C303 1.301 . S
O307 U286 2.449 . S
O307 C303 1.282 . S
H308 C281 0.931 . S
H309 C283 0.929 . S
H310 C284 0.930 . S
H311 C285 0.931 . S
H312 C292 0.932 . S
H313 C293 0.930 . S
H314 C294 0.929 . S
H315 C296 0.930 . S
H316 C298 0.932 . S
H317 C299 0.929 . S
H318 C300 0.928 . S
H319 C302 0.932 . S
C320 C321 1.264 . S
C320 C325 1.479 . S
C320 C330 1.465 . S
C321 C320 1.264 . S
C321 C323 1.339 . S
C321 H348 0.931 . S
C322 C323 1.395 . S
C322 C324 1.320 . S
C323 C321 1.339 . S
C323 C322 1.395 . S
C323 H349 0.929 . S
C324 C322 1.320 . S
C324 C325 1.405 . S
C324 H350 0.930 . S
C325 C320 1.479 . S
C325 C324 1.405 . S
C325 H351 0.931 . S
U326 O327 2.456 . S
U326 O328 2.458 . S
U326 C329 2.984 . S
U326 C330 2.847 1_565 S
U326 C343 2.882 . S
U326 O344 2.441 1_565 S
U326 O345 2.420 1_565 S
U326 O346 2.455 . S
U326 O347 2.449 . S
O327 U326 2.456 . S
O327 C329 1.355 . S
O328 U326 2.458 . S
O328 C329 1.286 . S
C329 U326 2.984 . S
C329 O327 1.355 . S
C329 O328 1.286 . S
C329 C331 1.363 . S
C330 C320 1.465 . S
C330 U326 2.847 1_545 S
C330 O344 1.249 . S
C330 O345 1.202 . S
C331 C329 1.363 . S
C331 C333 1.408 . S
C331 C336 1.342 . S
C332 C333 1.310 . S
C332 C335 1.461 . S
C332 H352 0.932 . S
C333 C331 1.408 . S
C333 C332 1.310 . S
C333 H353 0.930 1_565 S
C334 C335 1.474 . S
C334 C336 1.285 . S
C334 H354 0.929 . S
C335 C332 1.461 . S
C335 C334 1.474 . S
C336 C331 1.342 . S
C336 C334 1.285 . S
C336 H355 0.930 . S
C337 C340 1.424 . S
C337 C342 1.245 . S
C337 C343 1.428 . S
C338 C341 1.260 . S
C338 C342 1.477 . S
C338 H356 0.932 . S
C339 C340 1.384 . S
C339 C341 1.479 . S
C339 H357 0.929 . S
C340 C337 1.424 . S
C340 C339 1.384 . S
C340 H358 0.928 . S
C341 C338 1.260 . S
C341 C339 1.479 . S
C342 C337 1.245 . S
C342 C338 1.477 . S
C342 H359 0.932 . S
C343 U326 2.882 . S
C343 C337 1.428 . S
C343 O346 1.301 . S
C343 O347 1.282 . S
O344 U326 2.441 1_545 S
O344 C330 1.249 . S
O345 U326 2.420 1_545 S
O345 C330 1.202 . S
O346 U326 2.455 . S
O346 C343 1.301 . S
O347 U326 2.449 . S
O347 C343 1.282 . S
H348 C321 0.931 . S
H349 C323 0.929 . S
H350 C324 0.930 . S
H351 C325 0.931 . S
H352 C332 0.932 . S
H353 C333 0.930 1_545 S
H354 C334 0.929 . S
H355 C336 0.930 . S
H356 C338 0.932 . S
H357 C339 0.929 . S
H358 C340 0.928 . S
H359 C342 0.932 . S
C360 C361 1.264 . S
C360 C365 1.479 . S
C360 C370 1.465 . S
C361 C360 1.264 . S
C361 C363 1.339 . S
C361 H388 0.931 . S
C362 C363 1.395 . S
C362 C364 1.320 . S
C363 C361 1.339 . S
C363 C362 1.395 . S
C363 H389 0.929 . S
C364 C362 1.320 . S
C364 C365 1.405 . S
C364 H390 0.930 . S
C365 C360 1.479 . S
C365 C364 1.405 . S
C365 H391 0.931 . S
U366 O367 2.454 1_565 S
U366 O368 2.458 . S
U366 C369 2.984 . S
U366 C370 2.847 1_565 S
U366 C383 2.882 . S
U366 O384 2.441 1_565 S
U366 O385 2.420 1_565 S
U366 O386 2.455 . S
U366 O387 2.449 . S
O367 U366 2.454 1_545 S
O367 C369 1.353 1_545 S
O368 U366 2.458 . S
O368 C369 1.286 . S
C369 U366 2.984 . S
C369 O367 1.353 1_565 S
C369 O368 1.286 . S
C369 C371 1.363 . S
C370 C360 1.465 . S
C370 U366 2.847 1_545 S
C370 O384 1.249 . S
C370 O385 1.202 . S
C371 C369 1.363 . S
C371 C373 1.408 . S
C371 C376 1.342 . S
C372 C373 1.310 . S
C372 C375 1.461 . S
C372 H392 0.932 1_565 S
C373 C371 1.408 . S
C373 C372 1.310 . S
C373 H393 0.930 1_565 S
C374 C375 1.474 . S
C374 C376 1.285 . S
C374 H394 0.929 . S
C375 C372 1.461 . S
C375 C374 1.474 . S
C376 C371 1.342 . S
C376 C374 1.285 . S
C376 H395 0.930 . S
C377 C380 1.424 . S
C377 C382 1.245 . S
C377 C383 1.428 . S
C378 C381 1.260 . S
C378 C382 1.477 . S
C378 H396 0.932 . S
C379 C380 1.384 . S
C379 C381 1.479 . S
C379 H397 0.929 . S
C380 C377 1.424 . S
C380 C379 1.384 . S
C380 H398 0.928 . S
C381 C378 1.260 . S
C381 C379 1.479 . S
C382 C377 1.245 . S
C382 C378 1.477 . S
C382 H399 0.932 . S
C383 U366 2.882 . S
C383 C377 1.428 . S
C383 O386 1.301 . S
C383 O387 1.282 . S
O384 U366 2.441 1_545 S
O384 C370 1.249 . S
O385 U366 2.420 1_545 S
O385 C370 1.202 . S
O386 U366 2.455 . S
O386 C383 1.301 . S
O387 U366 2.449 . S
O387 C383 1.282 . S
H388 C361 0.931 . S
H389 C363 0.929 . S
H390 C364 0.930 . S
H391 C365 0.931 . S
H392 C372 0.932 1_545 S
H393 C373 0.930 1_545 S
H394 C374 0.929 . S
H395 C376 0.930 . S
H396 C378 0.932 . S
H397 C379 0.929 . S
H398 C380 0.928 . S
H399 C382 0.932 . S
C400 C401 1.264 . S
C400 C405 1.479 . S
C400 C410 1.465 . S
C401 C400 1.264 . S
C401 C403 1.339 . S
C401 H428 0.931 . S
C402 C403 1.395 . S
C402 C404 1.320 . S
C403 C401 1.339 . S
C403 C402 1.395 . S
C403 H429 0.929 . S
C404 C402 1.320 . S
C404 C405 1.405 . S
C404 H430 0.930 . S
C405 C400 1.479 . S
C405 C404 1.405 . S
C405 H431 0.931 . S
U406 O407 2.456 . S
U406 O408 2.458 . S
U406 C409 2.984 . S
U406 C410 2.847 1_455 S
U406 C423 2.882 . S
U406 O424 2.441 1_455 S
U406 O425 2.420 1_455 S
U406 O426 2.455 . S
U406 O427 2.449 . S
O407 U406 2.456 . S
O407 C409 1.355 . S
O408 U406 2.458 . S
O408 C409 1.286 . S
C409 U406 2.984 . S
C409 O407 1.355 . S
C409 O408 1.286 . S
C409 C411 1.363 . S
C410 C400 1.465 . S
C410 U406 2.847 1_655 S
C410 O424 1.249 . S
C410 O425 1.202 . S
C411 C409 1.363 . S
C411 C413 1.408 . S
C411 C416 1.342 . S
C412 C413 1.310 . S
C412 C415 1.461 . S
C412 H432 0.932 . S
C413 C411 1.408 . S
C413 C412 1.310 . S
C413 H433 0.930 1_455 S
C414 C415 1.474 . S
C414 C416 1.285 . S
C414 H434 0.929 . S
C415 C412 1.461 . S
C415 C414 1.474 . S
C416 C411 1.342 . S
C416 C414 1.285 . S
C416 H435 0.930 . S
C417 C420 1.424 . S
C417 C422 1.245 . S
C417 C423 1.428 . S
C418 C421 1.260 . S
C418 C422 1.477 . S
C418 H436 0.932 . S
C419 C420 1.384 . S
C419 C421 1.479 . S
C419 H437 0.929 . S
C420 C417 1.424 . S
C420 C419 1.384 . S
C420 H438 0.928 . S
C421 C418 1.260 . S
C421 C419 1.479 . S
C422 C417 1.245 . S
C422 C418 1.477 . S
C422 H439 0.932 . S
C423 U406 2.882 . S
C423 C417 1.428 . S
C423 O426 1.301 . S
C423 O427 1.282 . S
O424 U406 2.441 1_655 S
O424 C410 1.249 . S
O425 U406 2.420 1_655 S
O425 C410 1.202 . S
O426 U406 2.455 . S
O426 C423 1.301 . S
O427 U406 2.449 . S
O427 C423 1.282 . S
H428 C401 0.931 . S
H429 C403 0.929 . S
H430 C404 0.930 . S
H431 C405 0.931 . S
H432 C412 0.932 . S
H433 C413 0.930 1_655 S
H434 C414 0.929 . S
H435 C416 0.930 . S
H436 C418 0.932 . S
H437 C419 0.929 . S
H438 C420 0.928 . S
H439 C422 0.932 . S
C440 C441 1.264 . S
C440 C445 1.479 . S
C440 C450 1.465 . S
C441 C440 1.264 . S
C441 C443 1.339 . S
C441 H468 0.931 . S
C442 C443 1.395 . S
C442 C444 1.320 . S
C443 C441 1.339 . S
C443 C442 1.395 . S
C443 H469 0.929 . S
C444 C442 1.320 . S
C444 C445 1.405 . S
C444 H470 0.930 . S
C445 C440 1.479 . S
C445 C444 1.405 . S
C445 H471 0.931 . S
U446 O447 2.454 . S
U446 O448 2.458 . S
U446 C449 2.984 . S
U446 C450 2.847 . S
U446 C463 2.882 . S
U446 O464 2.441 . S
U446 O465 2.420 . S
U446 O466 2.455 . S
U446 O467 2.449 . S
O447 U446 2.454 . S
O447 C449 1.353 . S
O448 U446 2.458 . S
O448 C449 1.286 . S
C449 U446 2.984 . S
C449 O447 1.353 . S
C449 O448 1.286 . S
C449 C451 1.363 . S
C450 C440 1.465 . S
C450 U446 2.847 . S
C450 O464 1.249 . S
C450 O465 1.202 . S
C451 C449 1.363 . S
C451 C453 1.408 . S
C451 C456 1.342 . S
C452 C453 1.310 . S
C452 C455 1.461 . S
C452 H472 0.932 . S
C453 C451 1.408 . S
C453 C452 1.310 . S
C453 H473 0.930 . S
C454 C455 1.474 . S
C454 C456 1.285 . S
C454 H474 0.929 . S
C455 C452 1.461 . S
C455 C454 1.474 . S
C456 C451 1.342 . S
C456 C454 1.285 . S
C456 H475 0.930 . S
C457 C460 1.424 . S
C457 C462 1.245 . S
C457 C463 1.428 . S
C458 C461 1.260 . S
C458 C462 1.477 . S
C458 H476 0.932 . S
C459 C460 1.384 . S
C459 C461 1.479 . S
C459 H477 0.929 . S
C460 C457 1.424 . S
C460 C459 1.384 . S
C460 H478 0.928 . S
C461 C458 1.260 . S
C461 C459 1.479 . S
C462 C457 1.245 . S
C462 C458 1.477 . S
C462 H479 0.932 . S
C463 U446 2.882 . S
C463 C457 1.428 . S
C463 O466 1.301 . S
C463 O467 1.282 . S
O464 U446 2.441 . S
O464 C450 1.249 . S
O465 U446 2.420 . S
O465 C450 1.202 . S
O466 U446 2.455 . S
O466 C463 1.301 . S
O467 U446 2.449 . S
O467 C463 1.282 . S
H468 C441 0.931 . S
H469 C443 0.929 . S
H470 C444 0.930 . S
H471 C445 0.931 . S
H472 C452 0.932 . S
H473 C453 0.930 . S
H474 C454 0.929 . S
H475 C456 0.930 . S
H476 C458 0.932 . S
H477 C459 0.929 . S
H478 C460 0.928 . S
H479 C462 0.932 . S
C480 C481 1.349 . S
C480 C482 1.327 . S
C480 H505 0.950 . S
C481 C480 1.349 . S
C481 C497 1.349 . S
C482 C480 1.327 . S
C482 C501 1.429 . S
C482 H506 0.950 . S
C483 C500 1.574 . S
C483 C502 1.368 . S
C483 H507 0.949 . S
H484 C488 0.949 . S
C485 C486 1.349 . S
C485 C487 1.327 . S
C485 H508 0.950 . S
C486 C485 1.349 . S
C486 C498 1.349 . S
C487 C485 1.327 . S
C487 C503 1.429 . S
C487 H509 0.950 . S
C488 H484 0.949 . S
C488 C496 1.574 . S
C488 C504 1.368 . S
H489 C497 0.950 . S
H490 C495 0.950 . S
H491 C496 0.949 . S
H492 C498 0.950 . S
H493 C499 0.950 . S
H494 C500 0.949 . S
C495 H490 0.950 . S
C495 C497 1.327 . S
C495 C501 1.429 . S
C496 C488 1.574 . S
C496 H491 0.949 . S
C496 C502 1.368 . S
C497 C481 1.349 . S
C497 H489 0.950 . S
C497 C495 1.327 . S
C498 C486 1.349 . S
C498 H492 0.950 . S
C498 C499 1.327 . S
C499 H493 0.950 . S
C499 C498 1.327 . S
C499 C503 1.429 . S
C500 C483 1.574 . S
C500 H494 0.949 . S
C500 C504 1.368 . S
C501 C482 1.429 . S
C501 C495 1.429 . S
C501 C502 1.523 . S
C502 C483 1.368 . S
C502 C496 1.368 . S
C502 C501 1.523 . S
C503 C487 1.429 . S
C503 C499 1.429 . S
C503 C504 1.523 . S
C504 C488 1.368 . S
C504 C500 1.368 . S
C504 C503 1.523 . S
H505 C480 0.950 . S
H506 C482 0.950 . S
H507 C483 0.949 . S
H508 C485 0.950 . S
H509 C487 0.950 . S
C510 C511 1.349 . S
C510 C512 1.327 . S
C510 H535 0.950 . S
C511 C510 1.349 . S
C511 C527 1.349 . S
C512 C510 1.327 . S
C512 C531 1.429 . S
C512 H536 0.950 . S
C513 C530 1.574 . S
C513 C532 1.368 . S
C513 H537 0.949 . S
H514 C518 0.949 . S
C515 C516 1.349 . S
C515 C517 1.327 . S
C515 H538 0.950 . S
C516 C515 1.349 . S
C516 C528 1.349 . S
C517 C515 1.327 . S
C517 C533 1.429 . S
C517 H539 0.950 . S
C518 H514 0.949 . S
C518 C526 1.574 . S
C518 C534 1.368 . S
H519 C527 0.950 . S
H520 C525 0.950 . S
H521 C526 0.949 . S
H522 C528 0.950 . S
H523 C529 0.950 . S
H524 C530 0.949 . S
C525 H520 0.950 . S
C525 C527 1.327 . S
C525 C531 1.429 . S
C526 C518 1.574 . S
C526 H521 0.949 . S
C526 C532 1.368 . S
C527 C511 1.349 . S
C527 H519 0.950 . S
C527 C525 1.327 . S
C528 C516 1.349 . S
C528 H522 0.950 . S
C528 C529 1.327 . S
C529 H523 0.950 . S
C529 C528 1.327 . S
C529 C533 1.429 . S
C530 C513 1.574 . S
C530 H524 0.949 . S
C530 C534 1.368 . S
C531 C512 1.429 . S
C531 C525 1.429 . S
C531 C532 1.523 . S
C532 C513 1.368 . S
C532 C526 1.368 . S
C532 C531 1.523 . S
C533 C517 1.429 . S
C533 C529 1.429 . S
C533 C534 1.523 . S
C534 C518 1.368 . S
C534 C530 1.368 . S
C534 C533 1.523 . S
H535 C510 0.950 . S
H536 C512 0.950 . S
H537 C513 0.949 . S
H538 C515 0.950 . S
H539 C517 0.950 . S
C540 C541 1.349 . S
C540 C542 1.327 . S
C540 H565 0.950 . S
C541 C540 1.349 . S
C541 C557 1.349 . S
C542 C540 1.327 . S
C542 C561 1.429 . S
C542 H566 0.950 . S
C543 C560 1.574 . S
C543 C562 1.368 . S
C543 H567 0.949 . S
H544 C548 0.949 . S
C545 C546 1.349 . S
C545 C547 1.327 . S
C545 H568 0.950 . S
C546 C545 1.349 . S
C546 C558 1.349 . S
C547 C545 1.327 . S
C547 C563 1.429 . S
C547 H569 0.950 . S
C548 H544 0.949 . S
C548 C556 1.574 . S
C548 C564 1.368 . S
H549 C557 0.950 . S
H550 C555 0.950 . S
H551 C556 0.949 . S
H552 C558 0.950 . S
H553 C559 0.950 . S
H554 C560 0.949 . S
C555 H550 0.950 . S
C555 C557 1.327 . S
C555 C561 1.429 . S
C556 C548 1.574 . S
C556 H551 0.949 . S
C556 C562 1.368 . S
C557 C541 1.349 . S
C557 H549 0.950 . S
C557 C555 1.327 . S
C558 C546 1.349 . S
C558 H552 0.950 . S
C558 C559 1.327 . S
C559 H553 0.950 . S
C559 C558 1.327 . S
C559 C563 1.429 . S
C560 C543 1.574 . S
C560 H554 0.949 . S
C560 C564 1.368 . S
C561 C542 1.429 . S
C561 C555 1.429 . S
C561 C562 1.523 . S
C562 C543 1.368 . S
C562 C556 1.368 . S
C562 C561 1.523 . S
C563 C547 1.429 . S
C563 C559 1.429 . S
C563 C564 1.523 . S
C564 C548 1.368 . S
C564 C560 1.368 . S
C564 C563 1.523 . S
H565 C540 0.950 . S
H566 C542 0.950 . S
H567 C543 0.949 . S
H568 C545 0.950 . S
H569 C547 0.950 . S
C570 C571 1.349 . S
C570 C572 1.327 . S
C570 H595 0.950 . S
C571 C570 1.349 . S
C571 C587 1.349 . S
C572 C570 1.327 . S
C572 C591 1.429 . S
C572 H596 0.950 . S
C573 C590 1.574 . S
C573 C592 1.368 . S
C573 H597 0.949 . S
H574 C578 0.949 . S
C575 C576 1.349 . S
C575 C577 1.327 . S
C575 H598 0.950 . S
C576 C575 1.349 . S
C576 C588 1.349 . S
C577 C575 1.327 . S
C577 C593 1.429 . S
C577 H599 0.950 . S
C578 H574 0.949 . S
C578 C586 1.574 . S
C578 C594 1.368 . S
H579 C587 0.950 . S
H580 C585 0.950 . S
H581 C586 0.949 . S
H582 C588 0.950 . S
H583 C589 0.950 . S
H584 C590 0.949 . S
C585 H580 0.950 . S
C585 C587 1.327 . S
C585 C591 1.429 . S
C586 C578 1.574 . S
C586 H581 0.949 . S
C586 C592 1.368 . S
C587 C571 1.349 . S
C587 H579 0.950 . S
C587 C585 1.327 . S
C588 C576 1.349 . S
C588 H582 0.950 . S
C588 C589 1.327 . S
C589 H583 0.950 . S
C589 C588 1.327 . S
C589 C593 1.429 . S
C590 C573 1.574 . S
C590 H584 0.949 . S
C590 C594 1.368 . S
C591 C572 1.429 . S
C591 C585 1.429 . S
C591 C592 1.523 . S
C592 C573 1.368 . S
C592 C586 1.368 . S
C592 C591 1.523 . S
C593 C577 1.429 . S
C593 C589 1.429 . S
C593 C594 1.523 . S
C594 C578 1.368 . S
C594 C590 1.368 . S
C594 C593 1.523 . S
H595 C570 0.950 . S
H596 C572 0.950 . S
H597 C573 0.949 . S
H598 C575 0.950 . S
H599 C577 0.950 . S
C600 C601 1.349 . S
C600 C602 1.327 . S
C600 H625 0.950 . S
C601 C600 1.349 . S
C601 C617 1.349 . S
C602 C600 1.327 . S
C602 C621 1.429 . S
C602 H626 0.950 . S
C603 C620 1.574 . S
C603 C622 1.368 . S
C603 H627 0.949 . S
H604 C608 0.949 . S
C605 C606 1.349 . S
C605 C607 1.327 . S
C605 H628 0.950 . S
C606 C605 1.349 . S
C606 C618 1.349 . S
C607 C605 1.327 . S
C607 C623 1.429 . S
C607 H629 0.950 . S
C608 H604 0.949 . S
C608 C616 1.574 . S
C608 C624 1.368 . S
H609 C617 0.950 . S
H610 C615 0.950 . S
H611 C616 0.949 . S
H612 C618 0.950 . S
H613 C619 0.950 . S
H614 C620 0.949 . S
C615 H610 0.950 . S
C615 C617 1.327 . S
C615 C621 1.429 . S
C616 C608 1.574 . S
C616 H611 0.949 . S
C616 C622 1.368 . S
C617 C601 1.349 . S
C617 H609 0.950 . S
C617 C615 1.327 . S
C618 C606 1.349 . S
C618 H612 0.950 . S
C618 C619 1.327 . S
C619 H613 0.950 . S
C619 C618 1.327 . S
C619 C623 1.429 . S
C620 C603 1.574 . S
C620 H614 0.949 . S
C620 C624 1.368 . S
C621 C602 1.429 . S
C621 C615 1.429 . S
C621 C622 1.523 . S
C622 C603 1.368 . S
C622 C616 1.368 . S
C622 C621 1.523 . S
C623 C607 1.429 . S
C623 C619 1.429 . S
C623 C624 1.523 . S
C624 C608 1.368 . S
C624 C620 1.368 . S
C624 C623 1.523 . S
H625 C600 0.950 . S
H626 C602 0.950 . S
H627 C603 0.949 . S
H628 C605 0.950 . S
H629 C607 0.950 . S
C630 C631 1.349 . S
C630 C632 1.327 . S
C630 H655 0.950 . S
C631 C630 1.349 . S
C631 C647 1.349 . S
C632 C630 1.327 . S
C632 C651 1.429 . S
C632 H656 0.950 . S
C633 C650 1.574 . S
C633 C652 1.368 . S
C633 H657 0.949 . S
H634 C638 0.949 . S
C635 C636 1.349 . S
C635 C637 1.327 . S
C635 H658 0.950 . S
C636 C635 1.349 . S
C636 C648 1.349 . S
C637 C635 1.327 . S
C637 C653 1.429 . S
C637 H659 0.950 . S
C638 H634 0.949 . S
C638 C646 1.574 . S
C638 C654 1.368 . S
H639 C647 0.950 . S
H640 C645 0.950 . S
H641 C646 0.949 . S
H642 C648 0.950 . S
H643 C649 0.950 . S
H644 C650 0.949 . S
C645 H640 0.950 . S
C645 C647 1.327 . S
C645 C651 1.429 . S
C646 C638 1.574 . S
C646 H641 0.949 . S
C646 C652 1.368 . S
C647 C631 1.349 . S
C647 H639 0.950 . S
C647 C645 1.327 . S
C648 C636 1.349 . S
C648 H642 0.950 . S
C648 C649 1.327 . S
C649 H643 0.950 . S
C649 C648 1.327 . S
C649 C653 1.429 . S
C650 C633 1.574 . S
C650 H644 0.949 . S
C650 C654 1.368 . S
C651 C632 1.429 . S
C651 C645 1.429 . S
C651 C652 1.523 . S
C652 C633 1.368 . S
C652 C646 1.368 . S
C652 C651 1.523 . S
C653 C637 1.429 . S
C653 C649 1.429 . S
C653 C654 1.523 . S
C654 C638 1.368 . S
C654 C650 1.368 . S
C654 C653 1.523 . S
H655 C630 0.950 . S
H656 C632 0.950 . S
H657 C633 0.949 . S
H658 C635 0.950 . S
H659 C637 0.950 . S
C660 C661 1.349 . S
C660 C662 1.327 . S
C660 H685 0.950 . S
C661 C660 1.349 . S
C661 C677 1.344 1_655 S
C662 C660 1.327 . S
C662 C681 1.429 . S
C662 H686 0.950 . S
C663 C680 1.574 . S
C663 C682 1.368 1_455 S
C663 H687 0.949 . S
H664 C668 0.949 . S
C665 C666 1.349 . S
C665 C667 1.327 . S
C665 H688 0.950 . S
C666 C665 1.349 . S
C666 C678 1.348 1_455 S
C667 C665 1.327 . S
C667 C683 1.429 . S
C667 H689 0.950 . S
C668 H664 0.949 . S
C668 C676 1.574 . S
C668 C684 1.368 1_655 S
H669 C677 0.958 . S
H670 C675 0.950 . S
H671 C676 0.949 . S
H672 C678 0.951 . S
H673 C679 0.950 . S
H674 C680 0.949 . S
C675 H670 0.950 . S
C675 C677 1.324 . S
C675 C681 1.429 1_455 S
C676 C668 1.574 . S
C676 H671 0.949 . S
C676 C682 1.368 1_556 S
C677 C661 1.344 1_455 S
C677 H669 0.958 . S
C677 C675 1.324 . S
C678 C666 1.348 1_655 S
C678 H672 0.951 . S
C678 C679 1.326 . S
C679 H673 0.950 . S
C679 C678 1.326 . S
C679 C683 1.429 1_655 S
C680 C663 1.574 . S
C680 H674 0.949 . S
C680 C684 1.368 1_554 S
C681 C662 1.429 . S
C681 C675 1.429 1_655 S
C681 C682 1.523 . S
C682 C663 1.368 1_655 S
C682 C676 1.368 1_554 S
C682 C681 1.523 . S
C683 C667 1.429 . S
C683 C679 1.429 1_455 S
C683 C684 1.523 . S
C684 C668 1.368 1_455 S
C684 C680 1.368 1_556 S
C684 C683 1.523 . S
H685 C660 0.950 . S
H686 C662 0.950 . S
H687 C663 0.949 . S
H688 C665 0.950 . S
H689 C667 0.950 . S
C690 C691 1.349 . S
C690 C692 1.327 . S
C690 H715 0.950 . S
C691 C690 1.349 . S
C691 C707 1.349 . S
C692 C690 1.327 . S
C692 C711 1.429 . S
C692 H716 0.950 . S
C693 C710 1.574 1_556 S
C693 C712 1.368 . S
C693 H717 0.949 . S
H694 C698 0.949 . S
C695 C696 1.349 . S
C695 C697 1.327 . S
C695 H718 0.950 . S
C696 C695 1.349 . S
C696 C708 1.349 . S
C697 C695 1.327 . S
C697 C713 1.429 . S
C697 H719 0.950 . S
C698 H694 0.949 . S
C698 C706 1.574 1_554 S
C698 C714 1.368 . S
H699 C707 0.950 . S
H700 C705 0.950 . S
H701 C706 0.949 . S
H702 C708 0.950 . S
H703 C709 0.950 . S
H704 C710 0.949 . S
C705 H700 0.950 . S
C705 C707 1.327 . S
C705 C711 1.429 . S
C706 C698 1.574 1_556 S
C706 H701 0.949 . S
C706 C712 1.368 . S
C707 C691 1.349 . S
C707 H699 0.950 . S
C707 C705 1.327 . S
C708 C696 1.349 . S
C708 H702 0.950 . S
C708 C709 1.327 . S
C709 H703 0.950 . S
C709 C708 1.327 . S
C709 C713 1.429 . S
C710 C693 1.574 1_554 S
C710 H704 0.949 . S
C710 C714 1.368 . S
C711 C692 1.429 . S
C711 C705 1.429 . S
C711 C712 1.523 . S
C712 C693 1.368 . S
C712 C706 1.368 . S
C712 C711 1.523 . S
C713 C697 1.429 . S
C713 C709 1.429 . S
C713 C714 1.523 . S
C714 C698 1.368 . S
C714 C710 1.368 . S
C714 C713 1.523 . S
H715 C690 0.950 . S
H716 C692 0.950 . S
H717 C693 0.949 . S
H718 C695 0.950 . S
H719 C697 0.950 . S
C720 C721 1.349 1_565 S
C720 C722 1.327 . S
C720 H745 0.950 . S
C721 C720 1.349 1_545 S
C721 C737 1.349 . S
C722 C720 1.327 . S
C722 C741 1.429 1_565 S
C722 H746 0.950 . S
C723 C740 1.572 1_554 S
C723 C742 1.368 . S
C723 H747 0.949 . S
H724 C728 0.949 . S
C725 C726 1.349 1_545 S
C725 C727 1.327 . S
C725 H748 0.950 . S
C726 C725 1.349 1_565 S
C726 C738 1.349 . S
C727 C725 1.327 . S
C727 C743 1.429 1_545 S
C727 H749 0.950 . S
C728 H724 0.949 . S
C728 C736 1.572 1_556 S
C728 C744 1.368 . S
H729 C737 0.950 . S
H730 C735 0.950 . S
H731 C736 0.949 . S
H732 C738 0.950 . S
H733 C739 0.950 . S
H734 C740 0.949 . S
C735 H730 0.950 . S
C735 C737 1.327 . S
C735 C741 1.429 . S
C736 C728 1.572 1_554 S
C736 H731 0.949 . S
C736 C742 1.370 1_565 S
C737 C721 1.349 . S
C737 H729 0.950 . S
C737 C735 1.327 . S
C738 C726 1.349 . S
C738 H732 0.950 . S
C738 C739 1.327 . S
C739 H733 0.950 . S
C739 C738 1.327 . S
C739 C743 1.429 . S
C740 C723 1.572 1_556 S
C740 H734 0.949 . S
C740 C744 1.370 1_545 S
C741 C722 1.429 1_545 S
C741 C735 1.429 . S
C741 C742 1.523 . S
C742 C723 1.368 . S
C742 C736 1.370 1_545 S
C742 C741 1.523 . S
C743 C727 1.429 1_565 S
C743 C739 1.429 . S
C743 C744 1.523 . S
C744 C728 1.368 . S
C744 C740 1.370 1_565 S
C744 C743 1.523 . S
H745 C720 0.950 . S
H746 C722 0.950 . S
H747 C723 0.949 . S
H748 C725 0.950 . S
H749 C727 0.950 . S
C750 C751 1.349 . S
C750 C752 1.327 . S
C750 H775 0.950 . S
C751 C750 1.349 . S
C751 C767 1.340 1_565 S
C752 C750 1.327 . S
C752 C771 1.429 . S
C752 H776 0.950 . S
C753 C770 1.574 . S
C753 C772 1.368 1_545 S
C753 H777 0.949 . S
H754 C758 0.949 . S
C755 C756 1.349 . S
C755 C757 1.327 . S
C755 H778 0.950 . S
C756 C755 1.349 . S
C756 C768 1.344 1_545 S
C757 C755 1.327 . S
C757 C773 1.429 . S
C757 H779 0.950 . S
C758 H754 0.949 . S
C758 C766 1.574 . S
C758 C774 1.368 1_565 S
H759 C767 0.965 . S
H760 C765 0.950 . S
H761 C766 0.949 . S
H762 C768 0.958 . S
H763 C769 0.950 . S
H764 C770 0.949 . S
C765 H760 0.950 . S
C765 C767 1.322 . S
C765 C771 1.429 1_545 S
C766 C758 1.574 . S
C766 H761 0.949 . S
C766 C772 1.368 . S
C767 C751 1.340 1_545 S
C767 H759 0.965 . S
C767 C765 1.322 . S
C768 C756 1.344 1_565 S
C768 H762 0.958 . S
C768 C769 1.324 . S
C769 H763 0.950 . S
C769 C768 1.324 . S
C769 C773 1.429 1_565 S
C770 C753 1.574 . S
C770 H764 0.949 . S
C770 C774 1.368 . S
C771 C752 1.429 . S
C771 C765 1.429 1_565 S
C771 C772 1.523 . S
C772 C753 1.368 1_565 S
C772 C766 1.368 . S
C772 C771 1.523 . S
C773 C757 1.429 . S
C773 C769 1.429 1_545 S
C773 C774 1.523 . S
C774 C758 1.368 1_545 S
C774 C770 1.368 . S
C774 C773 1.523 . S
H775 C750 0.950 . S
H776 C752 0.950 . S
H777 C753 0.949 . S
H778 C755 0.950 . S
H779 C757 0.950 . S
C780 C781 1.349 . S
C780 C782 1.327 . S
C780 H805 0.950 . S
C781 C780 1.349 . S
C781 C797 1.349 . S
C782 C780 1.327 . S
C782 C801 1.429 . S
C782 H806 0.950 . S
C783 C800 1.574 1_455 S
C783 C802 1.368 . S
C783 H807 0.949 . S
H784 C788 0.949 . S
C785 C786 1.349 . S
C785 C787 1.327 . S
C785 H808 0.950 . S
C786 C785 1.349 . S
C786 C798 1.349 . S
C787 C785 1.327 . S
C787 C803 1.429 . S
C787 H809 0.950 . S
C788 H784 0.949 . S
C788 C796 1.574 1_655 S
C788 C804 1.368 . S
H789 C797 0.950 . S
H790 C795 0.950 . S
H791 C796 0.949 . S
H792 C798 0.950 . S
H793 C799 0.950 . S
H794 C800 0.949 . S
C795 H790 0.950 . S
C795 C797 1.327 . S
C795 C801 1.429 . S
C796 C788 1.574 1_455 S
C796 H791 0.949 . S
C796 C802 1.368 . S
C797 C781 1.349 . S
C797 H789 0.950 . S
C797 C795 1.327 . S
C798 C786 1.349 . S
C798 H792 0.950 . S
C798 C799 1.327 . S
C799 H793 0.950 . S
C799 C798 1.327 . S
C799 C803 1.429 . S
C800 C783 1.574 1_655 S
C800 H794 0.949 . S
C800 C804 1.368 . S
C801 C782 1.429 . S
C801 C795 1.429 . S
C801 C802 1.523 . S
C802 C783 1.368 . S
C802 C796 1.368 . S
C802 C801 1.523 . S
C803 C787 1.429 . S
C803 C799 1.429 . S
C803 C804 1.523 . S
C804 C788 1.368 . S
C804 C800 1.368 . S
C804 C803 1.523 . S
H805 C780 0.950 . S
H806 C782 0.950 . S
H807 C783 0.949 . S
H808 C785 0.950 . S
H809 C787 0.950 . S
C810 C811 1.349 . S
C810 C812 1.327 . S
C810 H835 0.950 . S
C811 C810 1.349 . S
C811 C827 1.349 . S
C812 C810 1.327 . S
C812 C831 1.429 . S
C812 H836 0.950 . S
C813 C830 1.574 . S
C813 C832 1.368 . S
C813 H837 0.949 . S
H814 C818 0.949 . S
C815 C816 1.349 . S
C815 C817 1.327 . S
C815 H838 0.950 . S
C816 C815 1.349 . S
C816 C828 1.349 . S
C817 C815 1.327 . S
C817 C833 1.429 . S
C817 H839 0.950 . S
C818 H814 0.949 . S
C818 C826 1.574 . S
C818 C834 1.368 . S
H819 C827 0.950 . S
H820 C825 0.950 . S
H821 C826 0.949 . S
H822 C828 0.950 . S
H823 C829 0.950 . S
H824 C830 0.949 . S
C825 H820 0.950 . S
C825 C827 1.327 . S
C825 C831 1.429 . S
C826 C818 1.574 . S
C826 H821 0.949 . S
C826 C832 1.368 . S
C827 C811 1.349 . S
C827 H819 0.950 . S
C827 C825 1.327 . S
C828 C816 1.349 . S
C828 H822 0.950 . S
C828 C829 1.327 . S
C829 H823 0.950 . S
C829 C828 1.327 . S
C829 C833 1.429 . S
C830 C813 1.574 . S
C830 H824 0.949 . S
C830 C834 1.368 . S
C831 C812 1.429 . S
C831 C825 1.429 . S
C831 C832 1.523 . S
C832 C813 1.368 . S
C832 C826 1.368 . S
C832 C831 1.523 . S
C833 C817 1.429 . S
C833 C829 1.429 . S
C833 C834 1.523 . S
C834 C818 1.368 . S
C834 C830 1.368 . S
C834 C833 1.523 . S
H835 C810 0.950 . S
H836 C812 0.950 . S
H837 C813 0.949 . S
H838 C815 0.950 . S
H839 C817 0.950 . S
C840 C841 1.349 . S
C840 C842 1.327 . S
C840 H865 0.950 . S
C841 C840 1.349 . S
C841 C857 1.349 . S
C842 C840 1.327 . S
C842 C861 1.429 . S
C842 H866 0.950 . S
C843 C860 1.574 . S
C843 C862 1.368 . S
C843 H867 0.949 . S
H844 C848 0.949 . S
C845 C846 1.349 . S
C845 C847 1.327 . S
C845 H868 0.950 . S
C846 C845 1.349 . S
C846 C858 1.349 . S
C847 C845 1.327 . S
C847 C863 1.429 . S
C847 H869 0.950 . S
C848 H844 0.949 . S
C848 C856 1.574 . S
C848 C864 1.368 . S
H849 C857 0.950 . S
H850 C855 0.950 . S
H851 C856 0.949 . S
H852 C858 0.950 . S
H853 C859 0.950 . S
H854 C860 0.949 . S
C855 H850 0.950 . S
C855 C857 1.327 . S
C855 C861 1.429 . S
C856 C848 1.574 . S
C856 H851 0.949 . S
C856 C862 1.368 . S
C857 C841 1.349 . S
C857 H849 0.950 . S
C857 C855 1.327 . S
C858 C846 1.349 . S
C858 H852 0.950 . S
C858 C859 1.327 . S
C859 H853 0.950 . S
C859 C858 1.327 . S
C859 C863 1.429 . S
C860 C843 1.574 . S
C860 H854 0.949 . S
C860 C864 1.368 . S
C861 C842 1.429 . S
C861 C855 1.429 . S
C861 C862 1.523 . S
C862 C843 1.368 . S
C862 C856 1.368 . S
C862 C861 1.523 . S
C863 C847 1.429 . S
C863 C859 1.429 . S
C863 C864 1.523 . S
C864 C848 1.368 . S
C864 C860 1.368 . S
C864 C863 1.523 . S
H865 C840 0.950 . S
H866 C842 0.950 . S
H867 C843 0.949 . S
H868 C845 0.950 . S
H869 C847 0.950 . S
C870 C871 1.349 . S
C870 C872 1.327 . S
C870 H895 0.950 . S
C871 C870 1.349 . S
C871 C887 1.349 . S
C872 C870 1.327 . S
C872 C891 1.429 . S
C872 H896 0.950 . S
C873 C890 1.574 . S
C873 C892 1.368 . S
C873 H897 0.949 . S
H874 C878 0.949 . S
C875 C876 1.349 . S
C875 C877 1.327 . S
C875 H898 0.950 . S
C876 C875 1.349 . S
C876 C888 1.349 . S
C877 C875 1.327 . S
C877 C893 1.429 . S
C877 H899 0.950 . S
C878 H874 0.949 . S
C878 C886 1.574 . S
C878 C894 1.368 . S
H879 C887 0.950 . S
H880 C885 0.950 . S
H881 C886 0.949 . S
H882 C888 0.950 . S
H883 C889 0.950 . S
H884 C890 0.949 . S
C885 H880 0.950 . S
C885 C887 1.327 . S
C885 C891 1.429 . S
C886 C878 1.574 . S
C886 H881 0.949 . S
C886 C892 1.368 . S
C887 C871 1.349 . S
C887 H879 0.950 . S
C887 C885 1.327 . S
C888 C876 1.349 . S
C888 H882 0.950 . S
C888 C889 1.327 . S
C889 H883 0.950 . S
C889 C888 1.327 . S
C889 C893 1.429 . S
C890 C873 1.574 . S
C890 H884 0.949 . S
C890 C894 1.368 . S
C891 C872 1.429 . S
C891 C885 1.429 . S
C891 C892 1.523 . S
C892 C873 1.368 . S
C892 C886 1.368 . S
C892 C891 1.523 . S
C893 C877 1.429 . S
C893 C889 1.429 . S
C893 C894 1.523 . S
C894 C878 1.368 . S
C894 C890 1.368 . S
C894 C893 1.523 . S
H895 C870 0.950 . S
H896 C872 0.950 . S
H897 C873 0.949 . S
H898 C875 0.950 . S
H899 C877 0.950 . S
C900 C901 1.349 . S
C900 C902 1.327 . S
C900 H925 0.950 . S
C901 C900 1.349 . S
C901 C917 1.349 . S
C902 C900 1.327 . S
C902 C921 1.429 . S
C902 H926 0.950 . S
C903 C920 1.574 . S
C903 C922 1.368 . S
C903 H927 0.949 . S
H904 C908 0.949 . S
C905 C906 1.349 . S
C905 C907 1.327 . S
C905 H928 0.950 . S
C906 C905 1.349 . S
C906 C918 1.349 . S
C907 C905 1.327 . S
C907 C923 1.429 . S
C907 H929 0.950 . S
C908 H904 0.949 . S
C908 C916 1.574 . S
C908 C924 1.368 . S
H909 C917 0.950 . S
H910 C915 0.950 . S
H911 C916 0.949 . S
H912 C918 0.950 . S
H913 C919 0.950 . S
H914 C920 0.949 . S
C915 H910 0.950 . S
C915 C917 1.327 . S
C915 C921 1.429 . S
C916 C908 1.574 . S
C916 H911 0.949 . S
C916 C922 1.368 . S
C917 C901 1.349 . S
C917 H909 0.950 . S
C917 C915 1.327 . S
C918 C906 1.349 . S
C918 H912 0.950 . S
C918 C919 1.327 . S
C919 H913 0.950 . S
C919 C918 1.327 . S
C919 C923 1.429 . S
C920 C903 1.574 . S
C920 H914 0.949 . S
C920 C924 1.368 . S
C921 C902 1.429 . S
C921 C915 1.429 . S
C921 C922 1.523 . S
C922 C903 1.368 . S
C922 C916 1.368 . S
C922 C921 1.523 . S
C923 C907 1.429 . S
C923 C919 1.429 . S
C923 C924 1.523 . S
C924 C908 1.368 . S
C924 C920 1.368 . S
C924 C923 1.523 . S
H925 C900 0.950 . S
H926 C902 0.950 . S
H927 C903 0.949 . S
H928 C905 0.950 . S
H929 C907 0.950 . S
C930 C931 1.349 . S
C930 C932 1.327 . S
C930 H955 0.950 . S
C931 C930 1.349 . S
C931 C947 1.349 . S
C932 C930 1.327 . S
C932 C951 1.429 . S
C932 H956 0.950 . S
C933 C950 1.574 . S
C933 C952 1.368 . S
C933 H957 0.949 . S
H934 C938 0.949 . S
C935 C936 1.349 . S
C935 C937 1.327 . S
C935 H958 0.950 . S
C936 C935 1.349 . S
C936 C948 1.349 . S
C937 C935 1.327 . S
C937 C953 1.429 . S
C937 H959 0.950 . S
C938 H934 0.949 . S
C938 C946 1.574 . S
C938 C954 1.368 . S
H939 C947 0.950 . S
H940 C945 0.950 . S
H941 C946 0.949 . S
H942 C948 0.950 . S
H943 C949 0.950 . S
H944 C950 0.949 . S
C945 H940 0.950 . S
C945 C947 1.327 . S
C945 C951 1.429 . S
C946 C938 1.574 . S
C946 H941 0.949 . S
C946 C952 1.368 . S
C947 C931 1.349 . S
C947 H939 0.950 . S
C947 C945 1.327 . S
C948 C936 1.349 . S
C948 H942 0.950 . S
C948 C949 1.327 . S
C949 H943 0.950 . S
C949 C948 1.327 . S
C949 C953 1.429 . S
C950 C933 1.574 . S
C950 H944 0.949 . S
C950 C954 1.368 . S
C951 C932 1.429 . S
C951 C945 1.429 . S
C951 C952 1.523 . S
C952 C933 1.368 . S
C952 C946 1.368 . S
C952 C951 1.523 . S
C953 C937 1.429 . S
C953 C949 1.429 . S
C953 C954 1.523 . S
C954 C938 1.368 . S
C954 C950 1.368 . S
C954 C953 1.523 . S
H955 C930 0.950 . S
H956 C932 0.950 . S
H957 C933 0.949 . S
H958 C935 0.950 . S
H959 C937 0.950 . S
C960 C961 1.349 . S
C960 C962 1.327 . S
C960 H985 0.950 . S
C961 C960 1.349 . S
C961 C977 1.349 . S
C962 C960 1.327 . S
C962 C981 1.429 . S
C962 H986 0.950 . S
C963 C980 1.574 . S
C963 C982 1.368 . S
C963 H987 0.949 . S
H964 C968 0.949 . S
C965 C966 1.349 . S
C965 C967 1.327 . S
C965 H988 0.950 . S
C966 C965 1.349 . S
C966 C978 1.349 . S
C967 C965 1.327 . S
C967 C983 1.429 . S
C967 H989 0.950 . S
C968 H964 0.949 . S
C968 C976 1.574 . S
C968 C984 1.368 . S
H969 C977 0.950 . S
H970 C975 0.950 . S
H971 C976 0.949 . S
H972 C978 0.950 . S
H973 C979 0.950 . S
H974 C980 0.949 . S
C975 H970 0.950 . S
C975 C977 1.327 . S
C975 C981 1.429 . S
C976 C968 1.574 . S
C976 H971 0.949 . S
C976 C982 1.368 . S
C977 C961 1.349 . S
C977 H969 0.950 . S
C977 C975 1.327 . S
C978 C966 1.349 . S
C978 H972 0.950 . S
C978 C979 1.327 . S
C979 H973 0.950 . S
C979 C978 1.327 . S
C979 C983 1.429 . S
C980 C963 1.574 . S
C980 H974 0.949 . S
C980 C984 1.368 . S
C981 C962 1.429 . S
C981 C975 1.429 . S
C981 C982 1.523 . S
C982 C963 1.368 . S
C982 C976 1.368 . S
C982 C981 1.523 . S
C983 C967 1.429 . S
C983 C979 1.429 . S
C983 C984 1.523 . S
C984 C968 1.368 . S
C984 C980 1.368 . S
C984 C983 1.523 . S
H985 C960 0.950 . S
H986 C962 0.950 . S
H987 C963 0.949 . S
H988 C965 0.950 . S
H989 C967 0.950 . S
C990 C991 1.349 . S
C990 C992 1.327 . S
C990 H1015 0.950 . S
C991 C990 1.349 . S
C991 C1007 1.349 . S
C992 C990 1.327 . S
C992 C1011 1.429 . S
C992 H1016 0.950 . S
C993 C1010 1.574 . S
C993 C1012 1.368 . S
C993 H1017 0.949 . S
H994 C998 0.949 . S
C995 C996 1.349 . S
C995 C997 1.327 . S
C995 H1018 0.950 . S
C996 C995 1.349 . S
C996 C1008 1.349 . S
C997 C995 1.327 . S
C997 C1013 1.429 . S
C997 H1019 0.950 . S
C998 H994 0.949 . S
C998 C1006 1.574 . S
C998 C1014 1.368 . S
H999 C1007 0.950 . S
H1000 C1005 0.950 . S
H1001 C1006 0.949 . S
H1002 C1008 0.950 . S
H1003 C1009 0.950 . S
H1004 C1010 0.949 . S
C1005 H1000 0.950 . S
C1005 C1007 1.327 . S
C1005 C1011 1.429 . S
C1006 C998 1.574 . S
C1006 H1001 0.949 . S
C1006 C1012 1.368 . S
C1007 C991 1.349 . S
C1007 H999 0.950 . S
C1007 C1005 1.327 . S
C1008 C996 1.349 . S
C1008 H1002 0.950 . S
C1008 C1009 1.327 . S
C1009 H1003 0.950 . S
C1009 C1008 1.327 . S
C1009 C1013 1.429 . S
C1010 C993 1.574 . S
C1010 H1004 0.949 . S
C1010 C1014 1.368 . S
C1011 C992 1.429 . S
C1011 C1005 1.429 . S
C1011 C1012 1.523 . S
C1012 C993 1.368 . S
C1012 C1006 1.368 . S
C1012 C1011 1.523 . S
C1013 C997 1.429 . S
C1013 C1009 1.429 . S
C1013 C1014 1.523 . S
C1014 C998 1.368 . S
C1014 C1010 1.368 . S
C1014 C1013 1.523 . S
H1015 C990 0.950 . S
H1016 C992 0.950 . S
H1017 C993 0.949 . S
H1018 C995 0.950 . S
H1019 C997 0.950 . S
C481 C202 2.842 . S
C486 C2 2.835 . S
C511 C42 2.842 . S
C516 C122 2.835 . S
C541 C162 2.528 . S
C546 C82 2.523 . S
C571 C442 2.934 . S
C576 C242 2.919 . S
C601 C282 2.934 . S
C606 C362 2.918 . S
C631 C402 2.597 . S
C636 C322 2.591 . S
C661 C15 3.267 . S
C666 C255 3.287 . S
C691 C295 3.364 . S
C696 C55 3.346 . S
C721 C95 2.949 . S
C726 C335 2.959 . S
C751 C375 3.284 . S
C756 C135 3.270 . S
C781 C415 2.964 . S
C786 C175 2.944 . S
C811 C215 3.346 . S
C816 C455 3.364 . S
C841 C181 0.698 . S
C846 C21 0.804 . S
C871 C221 0.632 . S
C876 C61 0.632 . S
C901 C101 0.698 . S
C906 C141 0.804 . S
C931 C261 0.450 . S
C936 C421 0.376 . S
C961 C461 0.285 . S
C966 C301 0.285 . S
C991 C341 0.376 . S
C996 C381 0.450 . S
