# Generated by pormake.
# Topology wju, (5)-cn, num edge types: 1
# Building blocks:
#     Node 0, Type 0, BuildingBlock: XOMCOT_clean_sbu_0, # of connection points: 5
#     Node 1, Type 0, BuildingBlock: XOMCOT_clean_sbu_0, # of connection points: 5
#     Node 2, Type 0, BuildingBlock: XOMCOT_clean_sbu_0, # of connection points: 5
#     Node 3, Type 0, BuildingBlock: XOMCOT_clean_sbu_0, # of connection points: 5
#     Node 4, Type 0, BuildingBlock: XOMCOT_clean_sbu_0, # of connection points: 5
#     Node 5, Type 0, BuildingBlock: XOMCOT_clean_sbu_0, # of connection points: 5
#     Node 6, Type 0, BuildingBlock: XOMCOT_clean_sbu_0, # of connection points: 5
#     Node 7, Type 0, BuildingBlock: XOMCOT_clean_sbu_0, # of connection points: 5
#     Node 8, Type 0, BuildingBlock: XOMCOT_clean_sbu_0, # of connection points: 5
#     Node 9, Type 0, BuildingBlock: XOMCOT_clean_sbu_0, # of connection points: 5
#     Node 10, Type 0, BuildingBlock: XOMCOT_clean_sbu_0, # of connection points: 5
#     Node 11, Type 0, BuildingBlock: XOMCOT_clean_sbu_0, # of connection points: 5
#     Edge 12, Type (0, 0), BuildingBlock: TEMPAE_clean_linker_10, # of connection points: 2
#     Edge 13, Type (0, 0), BuildingBlock: TEMPAE_clean_linker_10, # of connection points: 2
#     Edge 14, Type (0, 0), BuildingBlock: TEMPAE_clean_linker_10, # of connection points: 2
#     Edge 15, Type (0, 0), BuildingBlock: TEMPAE_clean_linker_10, # of connection points: 2
#     Edge 16, Type (0, 0), BuildingBlock: TEMPAE_clean_linker_10, # of connection points: 2
#     Edge 17, Type (0, 0), BuildingBlock: TEMPAE_clean_linker_10, # of connection points: 2
#     Edge 18, Type (0, 0), BuildingBlock: TEMPAE_clean_linker_10, # of connection points: 2
#     Edge 19, Type (0, 0), BuildingBlock: TEMPAE_clean_linker_10, # of connection points: 2
#     Edge 20, Type (0, 0), BuildingBlock: TEMPAE_clean_linker_10, # of connection points: 2
#     Edge 21, Type (0, 0), BuildingBlock: TEMPAE_clean_linker_10, # of connection points: 2
#     Edge 22, Type (0, 0), BuildingBlock: TEMPAE_clean_linker_10, # of connection points: 2
#     Edge 23, Type (0, 0), BuildingBlock: TEMPAE_clean_linker_10, # of connection points: 2
#     Edge 24, Type (0, 0), BuildingBlock: TEMPAE_clean_linker_10, # of connection points: 2
#     Edge 25, Type (0, 0), BuildingBlock: TEMPAE_clean_linker_10, # of connection points: 2
#     Edge 26, Type (0, 0), BuildingBlock: TEMPAE_clean_linker_10, # of connection points: 2
#     Edge 27, Type (0, 0), BuildingBlock: TEMPAE_clean_linker_10, # of connection points: 2
#     Edge 28, Type (0, 0), BuildingBlock: TEMPAE_clean_linker_10, # of connection points: 2
#     Edge 29, Type (0, 0), BuildingBlock: TEMPAE_clean_linker_10, # of connection points: 2
#     Edge 30, Type (0, 0), BuildingBlock: TEMPAE_clean_linker_10, # of connection points: 2
#     Edge 31, Type (0, 0), BuildingBlock: TEMPAE_clean_linker_10, # of connection points: 2
#     Edge 32, Type (0, 0), BuildingBlock: TEMPAE_clean_linker_10, # of connection points: 2
#     Edge 33, Type (0, 0), BuildingBlock: TEMPAE_clean_linker_10, # of connection points: 2
#     Edge 34, Type (0, 0), BuildingBlock: TEMPAE_clean_linker_10, # of connection points: 2
#     Edge 35, Type (0, 0), BuildingBlock: TEMPAE_clean_linker_10, # of connection points: 2
#     Edge 36, Type (0, 0), BuildingBlock: TEMPAE_clean_linker_10, # of connection points: 2
#     Edge 37, Type (0, 0), BuildingBlock: TEMPAE_clean_linker_10, # of connection points: 2
#     Edge 38, Type (0, 0), BuildingBlock: TEMPAE_clean_linker_10, # of connection points: 2
#     Edge 39, Type (0, 0), BuildingBlock: TEMPAE_clean_linker_10, # of connection points: 2
#     Edge 40, Type (0, 0), BuildingBlock: TEMPAE_clean_linker_10, # of connection points: 2
#     Edge 41, Type (0, 0), BuildingBlock: TEMPAE_clean_linker_10, # of connection points: 2
# Relax obj value: 0.107
# Max RMSD: 0.150
# Mean RMSD: 0.150
data_MOF--net-wju--node1-XOMCOT_clean_sbu_0--edge1-TEMPAE_clean_linker_10
_symmetry_space_group_name_H-M    P1
_symmetry_Int_Tables_number       1
_symmetry_cell_setting            triclinic
loop_
_symmetry_equiv_pos_as_xyz
'x, y, z'
_cell_length_a     28.142197
_cell_length_b     28.205322
_cell_length_c     103.75316
_cell_angle_alpha  89.929048
_cell_angle_beta   90.13318
_cell_angle_gamma 119.90648
loop_
_atom_site_label
_atom_site_type_symbol
_atom_site_fract_x
_atom_site_fract_y
_atom_site_fract_z
_atom_type_partial_charge
Co0 Co 0.34871 0.0973 0.10009 0.0
C1 C 0.34978 0.11565 0.12866 0.0
C2 C 0.29325 0.03332 0.12277 0.0
C3 C 0.28899 0.03697 0.13586 0.0
N4 N 0.33115 0.08246 0.11822 0.0
N5 N 0.32417 0.08877 0.13961 0.0
H6 H 0.3801 0.15867 0.12823 0.0
H7 H 0.26974 0.99731 0.1169 0.0
C8 C 0.24464 0.08353 0.08807 0.0
O9 O 0.27453 0.12498 0.08042 0.0
N10 N 0.36442 0.10939 0.08166 0.0
C11 C 0.39 0.15649 0.07483 0.0
C12 C 0.38483 0.14424 0.06188 0.0
C13 C 0.34479 0.06931 0.07266 0.0
N14 N 0.3566 0.08954 0.06057 0.0
C15 C 0.42076 0.21151 0.10284 0.0
C16 C 0.34454 0.24478 0.10623 0.0
C17 C 0.40045 0.28404 0.10572 0.0
C18 C 0.43855 0.2667 0.1043 0.0
C19 C 0.32824 0.18899 0.10503 0.0
N20 N 0.36618 0.17316 0.10265 0.0
H21 H 0.4517 0.20047 0.10117 0.0
H22 H 0.28544 0.15909 0.10608 0.0
H23 H 0.40883 0.19732 0.07867 0.0
H24 H 0.31972 0.02623 0.07486 0.0
O25 O 0.42096 0.10859 0.10337 0.0
O26 O 0.34967 0.02842 0.09856 0.0
O27 O 0.26785 0.0688 0.09654 0.0
C28 C 0.40172 0.05705 0.10133 0.0
H29 H 0.26182 1.00378 0.14213 0.0
H30 H 0.39951 0.17328 0.054 0.0
H31 H 0.31406 0.25703 0.10764 0.0
H32 H 0.48208 0.29597 0.1039 0.0
Co33 Co 0.21302 0.32769 0.43264 0.0
C34 C 0.19448 0.31859 0.46176 0.0
C35 C 0.22814 0.27098 0.45425 0.0
C36 C 0.2232 0.2638 0.46735 0.0
N37 N 0.21086 0.30585 0.45063 0.0
N38 N 0.20219 0.29386 0.4721 0.0
H39 H 0.17689 0.34466 0.46252 0.0
H40 H 0.24307 0.2515 0.44772 0.0
C41 C 0.11449 0.21805 0.4344 0.0
O42 O 0.09956 0.23749 0.44411 0.0
N43 N 0.21663 0.34707 0.41466 0.0
C44 C 0.22211 0.39348 0.40958 0.0
C45 C 0.22756 0.39196 0.3964 0.0
C46 C 0.21937 0.31829 0.4046 0.0
N47 N 0.22602 0.3447 0.39328 0.0
C48 C 0.17134 0.39333 0.44228 0.0
C49 C 0.08278 0.35637 0.42577 0.0
C50 C 0.09958 0.40476 0.43275 0.0
C51 C 0.14282 0.42155 0.4415 0.0
C52 C 0.11227 0.32853 0.42698 0.0
N53 N 0.15661 0.34762 0.43506 0.0
H54 H 0.20808 0.41106 0.44807 0.0
H55 H 0.10252 0.29475 0.42056 0.0
H56 H 0.22343 0.42664 0.4151 0.0
H57 H 0.21743 0.27919 0.40564 0.0
O58 O 0.27421 0.39842 0.4363 0.0
O59 O 0.28159 0.32693 0.43042 0.0
O60 O 0.1587 0.24913 0.42828 0.0
C61 C 0.30561 0.3784 0.43372 0.0
H62 H 0.23328 0.23755 0.47293 0.0
H63 H 0.23441 0.42425 0.38972 0.0
H64 H 0.04987 0.34244 0.41878 0.0
H65 H 0.15678 0.45837 0.44719 0.0
Co66 Co 0.89898 0.21419 0.76631 0.0
C67 C 0.89573 0.21738 0.79538 0.0
C68 C 0.9429 0.18229 0.78836 0.0
C69 C 0.94422 0.18211 0.80155 0.0
N70 N 0.91154 0.20329 0.78435 0.0
N71 N 0.91462 0.20415 0.80603 0.0
H72 H 0.8724 0.23829 0.79569 0.0
H73 H 0.96464 0.16863 0.78225 0.0
C74 C 0.93247 0.14029 0.7512 0.0
O75 O 0.91823 0.15015 0.73992 0.0
N76 N 0.88893 0.22718 0.74837 0.0
C77 C 0.84306 0.21973 0.74242 0.0
C78 C 0.85554 0.23669 0.72978 0.0
C79 C 0.92901 0.25121 0.73948 0.0
N80 N 0.90958 0.25595 0.72791 0.0
C81 C 0.78933 0.16287 0.77542 0.0
C82 C 0.7441 0.07722 0.7581 0.0
C83 C 0.70933 0.08649 0.76606 0.0
C84 C 0.73277 0.1289 0.77505 0.0
C85 C 0.80108 0.11163 0.75901 0.0
N86 N 0.82304 0.15493 0.76736 0.0
H87 H 0.80535 0.19796 0.78162 0.0
H88 H 0.82665 0.10561 0.75231 0.0
H89 H 0.80324 0.20316 0.74689 0.0
H90 H 0.97145 0.2636 0.74139 0.0
O91 O 0.8862 0.27264 0.77097 0.0
O92 O 0.96792 0.28357 0.76636 0.0
O93 O 0.92575 0.16127 0.76151 0.0
C94 C 0.93828 0.30556 0.76955 0.0
H95 H 0.96483 0.16596 0.80738 0.0
H96 H 0.82668 0.23365 0.72246 0.0
H97 H 0.72737 0.04485 0.75097 0.0
H98 H 0.70738 0.13814 0.7812 0.0
Co99 Co 0.72467 0.88182 0.09805 0.0
C100 C 0.7269 0.90312 0.12654 0.0
C101 C 0.7976 0.89987 0.12008 0.0
C102 C 0.80199 0.90852 0.13312 0.0
N103 N 0.75078 0.89685 0.11583 0.0
N104 N 0.75754 0.91025 0.1372 0.0
H105 H 0.68708 0.90017 0.12669 0.0
H106 H 0.82582 0.89349 0.11432 0.0
C107 C 0.82944 0.90255 0.08329 0.0
O108 O 0.80321 0.87518 0.07296 0.0
N109 N 0.70018 0.86916 0.08028 0.0
C110 C 0.65355 0.82765 0.07543 0.0
C111 C 0.649 0.83889 0.06269 0.0
C112 C 0.72211 0.90583 0.07063 0.0
N113 N 0.69234 0.88815 0.05965 0.0
C114 C 0.67266 0.77985 0.11075 0.0
C115 C 0.68013 0.71692 0.09142 0.0
C116 C 0.64363 0.69082 0.10166 0.0
C117 C 0.64262 0.72323 0.11171 0.0
C118 C 0.71065 0.77436 0.09095 0.0
N119 N 0.70489 0.80525 0.1003 0.0
H120 H 0.66582 0.80299 0.11802 0.0
H121 H 0.73445 0.79318 0.08248 0.0
H122 H 0.62405 0.79253 0.08087 0.0
H123 H 0.75929 0.9448 0.07174 0.0
O124 O 0.65451 0.87189 0.10291 0.0
O125 O 0.72569 0.95145 0.09722 0.0
O126 O 0.80351 0.90718 0.09289 0.0
C127 C 0.67433 0.92363 0.10074 0.0
H128 H 0.83372 0.90982 0.13929 0.0
H129 H 0.61526 0.81343 0.05634 0.0
H130 H 0.68229 0.69349 0.08341 0.0
H131 H 0.61622 0.70508 0.11999 0.0
Co132 Co 0.80136 0.70282 0.4319 0.0
C133 C 0.81157 0.69946 0.46093 0.0
C134 C 0.80412 0.76709 0.454 0.0
C135 C 0.8082 0.77036 0.46719 0.0
N136 N 0.80658 0.72294 0.44999 0.0
N137 N 0.81291 0.72788 0.47156 0.0
H138 H 0.81324 0.66218 0.4613 0.0
H139 H 0.79971 0.79525 0.4477 0.0
C140 C 0.87659 0.81291 0.41851 0.0
O141 O 0.87031 0.7911 0.40704 0.0
N142 N 0.79426 0.68372 0.41373 0.0
C143 C 0.8076 0.64986 0.40759 0.0
C144 C 0.7934 0.64712 0.39476 0.0
C145 C 0.77013 0.69914 0.40467 0.0
N146 N 0.77032 0.67861 0.39293 0.0
C147 C 0.84803 0.6385 0.43982 0.0
C148 C 0.94709 0.69577 0.42721 0.0
C149 C 0.93358 0.6463 0.43331 0.0
C150 C 0.88404 0.61837 0.43991 0.0
C151 C 0.91023 0.71557 0.42768 0.0
N152 N 0.86078 0.68646 0.43377 0.0
H153 H 0.80855 0.6135 0.44419 0.0
H154 H 0.92058 0.7524 0.42248 0.0
H155 H 0.82633 0.6285 0.41203 0.0
H156 H 0.75403 0.72615 0.4066 0.0
O157 O 0.74182 0.63095 0.43547 0.0
O158 O 0.73172 0.70212 0.4309 0.0
O159 O 0.8541 0.78325 0.42845 0.0
C160 C 0.70918 0.65026 0.43373 0.0
H161 H 0.8088 0.8023 0.47308 0.0
H162 H 0.80082 0.62477 0.38731 0.0
H163 H 0.98502 0.71811 0.42188 0.0
H164 H 0.87167 0.57937 0.4445 0.0
Co165 Co 0.109 0.80071 0.76585 0.0
C166 C 0.12397 0.82125 0.79469 0.0
C167 C 0.04421 0.80027 0.7877 0.0
C168 C 0.04527 0.80777 0.80078 0.0
N169 N 0.09347 0.80878 0.78377 0.0
N170 N 0.09535 0.82079 0.80522 0.0
H171 H 0.16564 0.82969 0.79514 0.0
H172 H 0.00926 0.78873 0.78151 0.0
C173 C 0.03988 0.84766 0.75784 0.0
O174 O 0.99952 0.79695 0.75698 0.0
N175 N 0.12159 0.79192 0.74788 0.0
C176 C 0.16624 0.79463 0.74241 0.0
C177 C 0.15605 0.7833 0.72943 0.0
C178 C 0.08475 0.77805 0.73825 0.0
N179 N 0.10461 0.77279 0.72681 0.0
C180 C 0.21897 0.8419 0.77394 0.0
C181 C 0.26617 0.93548 0.75904 0.0
C182 C 0.29989 0.91817 0.76495 0.0
C183 C 0.27558 0.87213 0.77289 0.0
C184 C 0.20892 0.90395 0.76044 0.0
N185 N 0.18591 0.8569 0.76761 0.0
H186 H 0.20192 0.80431 0.77934 0.0
H187 H 0.18343 0.91525 0.75496 0.0
H188 H 0.20344 0.80361 0.74746 0.0
H189 H 0.04345 0.76995 0.7397 0.0
O190 O 0.11746 0.73918 0.77027 0.0
O191 O 0.03843 0.73231 0.76483 0.0
O192 O 0.08771 0.85714 0.76104 0.0
C193 C 0.06558 0.7081 0.76831 0.0
H194 H 0.0117 0.80445 0.80652 0.0
H195 H 0.18458 0.78296 0.72252 0.0
H196 H 0.28355 0.97091 0.75278 0.0
H197 H 0.30011 0.85788 0.77782 0.0
Co198 Co 0.89776 0.6802 0.60297 0.0
C199 C 0.8837 0.68968 0.57402 0.0
C200 C 0.96672 0.73255 0.58072 0.0
C201 C 0.96677 0.74059 0.56768 0.0
N202 N 0.91479 0.70032 0.58481 0.0
N203 N 0.91457 0.71364 0.56344 0.0
H204 H 0.83966 0.66712 0.57374 0.0
H205 H 1.00252 0.74972 0.58688 0.0
C206 C 0.91646 0.79303 0.60134 0.0
O207 O 0.88102 0.77507 0.5918 0.0
N208 N 0.88491 0.6624 0.62106 0.0
C209 C 0.8424 0.61885 0.62664 0.0
C210 C 0.85301 0.6201 0.63967 0.0
C211 C 0.92086 0.68908 0.63064 0.0
N212 N 0.90254 0.66424 0.64217 0.0
C213 C 0.78774 0.6213 0.59417 0.0
C214 C 0.74524 0.6675 0.61066 0.0
C215 C 0.70942 0.62231 0.60314 0.0
C216 C 0.73141 0.59999 0.59465 0.0
C217 C 0.80198 0.68873 0.60961 0.0
N218 N 0.82271 0.66577 0.60135 0.0
H219 H 0.80301 0.60003 0.58839 0.0
H220 H 0.82886 0.72101 0.6161 0.0
H221 H 0.80677 0.58789 0.62158 0.0
H222 H 0.96065 0.72473 0.62903 0.0
O223 O 0.88215 0.60723 0.59932 0.0
O224 O 0.96446 0.67541 0.60441 0.0
O225 O 0.92797 0.76018 0.60726 0.0
C226 C 0.93339 0.62388 0.60144 0.0
H227 H 1.00264 0.76425 0.56176 0.0
H228 H 0.8263 0.59044 0.6467 0.0
H229 H 0.72948 0.68499 0.61756 0.0
H230 H 0.70504 0.56395 0.58901 0.0
Co231 Co 0.21857 0.90255 0.93652 0.0
C232 C 0.1989 0.89451 0.90763 0.0
C233 C 0.23707 0.97629 0.91495 0.0
C234 C 0.2304 0.97808 0.90187 0.0
N235 N 0.21803 0.92399 0.91864 0.0
N236 N 0.20654 0.92664 0.89726 0.0
H237 H 0.17804 0.8506 0.90705 0.0
H238 H 0.2544 0.01112 0.92137 0.0
C239 C 0.13223 0.92163 0.94975 0.0
O240 O 0.1315 0.89383 0.95997 0.0
N241 N 0.22097 0.88422 0.95451 0.0
C242 C 0.20698 0.83528 0.95986 0.0
C243 C 0.21739 0.84229 0.97293 0.0
C244 C 0.24178 0.92047 0.96433 0.0
N245 N 0.23943 0.89587 0.97565 0.0
C246 C 0.18416 0.79816 0.92607 0.0
C247 C 0.08443 0.74048 0.93831 0.0
C248 C 0.10776 0.7119 0.93249 0.0
C249 C 0.15662 0.7416 0.92572 0.0
C250 C 0.11335 0.79811 0.93825 0.0
N251 N 0.16412 0.8263 0.9327 0.0
H252 H 0.22304 0.81928 0.92118 0.0
H253 H 0.09638 0.81911 0.94343 0.0
H254 H 0.19123 0.79712 0.95469 0.0
H255 H 0.25718 0.96391 0.96328 0.0
O256 O 0.28158 0.89521 0.93336 0.0
O257 O 0.28629 0.97247 0.9394 0.0
O258 O 0.16203 0.92587 0.94001 0.0
C259 C 0.31176 0.94631 0.93615 0.0
H260 H 0.24261 0.01456 0.89619 0.0
H261 H 0.21048 0.81076 0.97985 0.0
H262 H 0.04613 0.71875 0.94352 0.0
H263 H 0.17507 0.7212 0.92067 0.0
Co264 Co 0.32789 0.23077 0.26893 0.0
C265 C 0.33731 0.21142 0.2409 0.0
C266 C 0.26819 0.22133 0.24532 0.0
C267 C 0.26966 0.21512 0.23224 0.0
N268 N 0.31041 0.21901 0.25076 0.0
N269 N 0.31311 0.20905 0.22941 0.0
H270 H 0.3742 0.20886 0.24206 0.0
H271 H 0.23871 0.22787 0.25054 0.0
C272 C 0.22353 0.14006 0.28055 0.0
O273 O 0.25334 0.1272 0.28796 0.0
N274 N 0.34438 0.2447 0.28735 0.0
C275 C 0.39441 0.26926 0.293 0.0
C276 C 0.38989 0.28185 0.30553 0.0
C277 C 0.31057 0.24518 0.29659 0.0
N278 N 0.33722 0.26695 0.3078 0.0
C279 C 0.39722 0.18571 0.27207 0.0
C280 C 0.32524 0.07903 0.26511 0.0
C281 C 0.37825 0.0934 0.26932 0.0
C282 C 0.41441 0.14762 0.27257 0.0
C283 C 0.30915 0.11905 0.26497 0.0
N284 N 0.34451 0.17127 0.26905 0.0
H285 H 0.42767 0.22745 0.27372 0.0
H286 H 0.26877 0.10821 0.26149 0.0
H287 H 0.43295 0.28234 0.28824 0.0
H288 H 0.26824 0.23369 0.29491 0.0
O289 O 0.40028 0.28815 0.2647 0.0
O290 O 0.32978 0.30091 0.26796 0.0
O291 O 0.247 0.18044 0.27275 0.0
C292 C 0.38189 0.32191 0.2654 0.0
H293 H 0.24057 0.21463 0.22531 0.0
H294 H 0.42343 0.30266 0.31228 0.0
H295 H 0.29679 0.03764 0.26205 0.0
H296 H 0.45658 0.16097 0.27517 0.0
Co297 Co 0.10931 0.30441 0.60422 0.0
C298 C 0.12257 0.30108 0.57525 0.0
C299 C 0.04673 0.23664 0.5827 0.0
C300 C 0.04715 0.22994 0.56962 0.0
N301 N 0.09395 0.28104 0.58633 0.0
N302 N 0.09489 0.27034 0.56491 0.0
H303 H 0.16283 0.33649 0.57462 0.0
H304 H 0.01393 0.21074 0.5892 0.0
C305 C 0.08219 0.19738 0.61829 0.0
O306 O 0.09293 0.21958 0.62979 0.0
N307 N 0.12168 0.32662 0.62223 0.0
C308 C 0.16809 0.36554 0.62787 0.0
C309 C 0.15693 0.37165 0.64049 0.0
C310 C 0.08266 0.3113 0.63141 0.0
N311 N 0.10319 0.33726 0.64272 0.0
C312 C 0.21819 0.37569 0.596 0.0
C313 C 0.26905 0.33045 0.61009 0.0
C314 C 0.30103 0.38201 0.60439 0.0
C315 C 0.27491 0.40314 0.5968 0.0
C316 C 0.21167 0.3036 0.60892 0.0
N317 N 0.18679 0.32723 0.60226 0.0
H318 H 0.19974 0.39567 0.59088 0.0
H319 H 0.18781 0.26621 0.6142 0.0
H320 H 0.20728 0.38891 0.62315 0.0
H321 H 0.03994 0.28157 0.62979 0.0
O322 O 0.11482 0.37312 0.60004 0.0
O323 O 0.03724 0.29868 0.60526 0.0
O324 O 0.08877 0.22605 0.60819 0.0
C325 C 0.06262 0.35015 0.60194 0.0
H326 H 0.0144 0.19803 0.564 0.0
H327 H 0.18633 0.39904 0.6475 0.0
H328 H 0.28783 0.31268 0.61603 0.0
H329 H 0.29808 0.44219 0.59196 0.0
Co330 Co 0.80779 0.117 0.93736 0.0
C331 C 0.81978 0.13926 0.909 0.0
C332 C 0.81671 0.0641 0.9143 0.0
C333 C 0.82137 0.06947 0.90117 0.0
N334 N 0.8159 0.10773 0.91923 0.0
N335 N 0.82301 0.1165 0.89776 0.0
H336 H 0.81949 0.17737 0.90977 0.0
H337 H 0.81391 0.03045 0.91991 0.0
C338 C 0.89934 0.1044 0.94917 0.0
O339 O 0.91131 0.14581 0.95688 0.0
N340 N 0.79816 0.12326 0.95576 0.0
C341 C 0.78373 0.15646 0.96188 0.0
C342 C 0.77061 0.13959 0.97445 0.0
C343 C 0.79212 0.08579 0.96474 0.0
N344 N 0.77581 0.09511 0.97623 0.0
C345 C 0.8498 0.2315 0.93757 0.0
C346 C 0.95877 0.26638 0.93293 0.0
C347 C 0.94247 0.305 0.93556 0.0
C348 C 0.88719 0.28691 0.93755 0.0
C349 C 0.91937 0.21025 0.93322 0.0
N350 N 0.86597 0.19343 0.93629 0.0
H351 H 0.8074 0.21985 0.93851 0.0
H352 H 0.93184 0.18079 0.93087 0.0
H353 H 0.77895 0.18847 0.95754 0.0
H354 H 0.79629 0.05043 0.96269 0.0
O355 O 0.74781 0.12876 0.93357 0.0
O356 O 0.73864 0.04757 0.93755 0.0
O357 O 0.86012 0.08886 0.94105 0.0
C358 C 0.71557 0.07674 0.93494 0.0
H359 H 0.82422 0.04108 0.89465 0.0
H360 H 0.75657 0.15764 0.98162 0.0
H361 H 1.00119 0.27934 0.93083 0.0
H362 H 0.87272 0.31568 0.93896 0.0
Co363 Co 0.70312 0.8161 0.26924 0.0
C364 C 0.70522 0.83232 0.24034 0.0
C365 C 0.76768 0.81674 0.24747 0.0
C366 C 0.77315 0.82295 0.23433 0.0
N367 N 0.72502 0.82236 0.2513 0.0
N368 N 0.73385 0.83271 0.22986 0.0
H369 H 0.67071 0.83878 0.23978 0.0
H370 H 0.7934 0.8089 0.25386 0.0
C371 C 0.80802 0.90342 0.28281 0.0
O372 O 0.78141 0.90193 0.29332 0.0
N373 N 0.6828 0.80836 0.28728 0.0
C374 C 0.64165 0.81228 0.29284 0.0
C375 C 0.63856 0.79787 0.30565 0.0
C376 C 0.7031 0.7903 0.29668 0.0
N377 N 0.67738 0.78421 0.30805 0.0
C378 C 0.62765 0.84782 0.26061 0.0
C379 C 0.66988 0.94695 0.27307 0.0
C380 C 0.61743 0.92363 0.26749 0.0
C381 C 0.59789 0.87479 0.26071 0.0
C382 C 0.69927 0.91857 0.27257 0.0
N383 N 0.67713 0.86843 0.26675 0.0
H384 H 0.60902 0.8088 0.25583 0.0
H385 H 0.73807 0.936 0.27743 0.0
H386 H 0.61486 0.82362 0.28794 0.0
H387 H 0.73572 0.78116 0.29514 0.0
O388 O 0.6346 0.7517 0.26554 0.0
O389 O 0.70997 0.75022 0.27072 0.0
O390 O 0.78217 0.87448 0.27298 0.0
C391 C 0.65828 0.72325 0.26749 0.0
H392 H 0.80438 0.8215 0.22856 0.0
H393 H 0.60996 0.79761 0.31264 0.0
H394 H 0.68676 0.98517 0.27831 0.0
H395 H 0.55844 0.85608 0.25589 0.0
C396 C 0.3126 0.07449 0.03931 0.0
C397 C 0.33848 0.05947 0.04869 0.0
C398 C 0.29515 0.04608 0.02757 0.0
C399 C 0.30552 1.00274 0.02499 0.0
C400 C 0.33202 0.98767 0.03445 0.0
C401 C 0.34734 0.01567 0.04629 0.0
C402 C 0.2655 0.06239 0.01796 0.0
C403 C 0.34525 0.94281 0.03195 0.0
C404 C 0.22236 0.89959 0.9988 0.0
C405 C 0.25661 0.92163 0.98807 0.0
C406 C 0.23763 0.9256 1.01087 0.0
C407 C 0.2892 0.97381 1.01232 0.0
C408 C 0.32453 0.99532 1.00154 0.0
C409 C 0.30737 0.96946 0.98949 0.0
C410 C 0.198 0.90227 0.02199 0.0
C411 C 0.38044 0.04568 1.00272 0.0
H412 H 0.30535 0.10808 0.04128 0.0
H413 H 0.36772 1.00452 0.05357 0.0
H414 H 0.28985 0.07743 1.00898 0.0
H415 H 0.22554 0.0263 1.01535 0.0
H416 H 0.25799 0.09491 0.02174 0.0
H417 H 0.36667 0.93656 0.04022 0.0
H418 H 0.3071 0.90375 0.02994 0.0
H419 H 0.37161 0.95293 0.02328 0.0
H420 H 0.1829 0.86286 0.99761 0.0
H421 H 0.33391 0.98607 0.98117 0.0
H422 H 0.18764 0.93315 0.02552 0.0
H423 H 0.21721 0.89244 0.03013 0.0
H424 H 0.15946 0.86465 0.01926 0.0
H425 H 0.37611 0.08148 1.0053 0.0
H426 H 0.40431 0.05506 0.99363 0.0
H427 H 0.40409 0.04009 1.01056 0.0
C428 C 0.22223 0.34824 0.36947 0.0
C429 C 0.23447 0.32837 0.38067 0.0
C430 C 0.23372 0.33574 0.35716 0.0
C431 C 0.25809 0.30252 0.35597 0.0
C432 C 0.2688 0.28077 0.3672 0.0
C433 C 0.25694 0.29397 0.37939 0.0
C434 C 0.22145 0.3596 0.34543 0.0
C435 C 0.29486 0.24526 0.36639 0.0
C436 C 0.26196 0.24107 0.32348 0.0
C437 C 0.31577 0.27713 0.31946 0.0
C438 C 0.24213 0.24908 0.33526 0.0
C439 C 0.27685 0.29442 0.34313 0.0
C440 C 0.33065 0.3317 0.33892 0.0
C441 C 0.34937 0.32259 0.32718 0.0
C442 C 0.18455 0.20836 0.33942 0.0
C443 C 0.36891 0.38089 0.34693 0.0
H444 H 0.20399 0.37401 0.37032 0.0
H445 H 0.26716 0.2788 0.38793 0.0
H446 H 0.26038 0.38919 0.34067 0.0
H447 H 0.19715 0.32692 0.33833 0.0
H448 H 0.19855 0.381 0.3479 0.0
H449 H 0.29636 0.22788 0.37589 0.0
H450 H 0.27189 0.21114 0.35952 0.0
H451 H 0.33733 0.26978 0.36269 0.0
H452 H 0.23595 0.20577 0.31759 0.0
H453 H 0.39056 0.35131 0.32401 0.0
H454 H 0.16148 0.22973 0.34168 0.0
H455 H 0.18591 0.18741 0.34835 0.0
H456 H 0.1618 0.17696 0.33191 0.0
H457 H 0.3498 0.40631 0.3489 0.0
H458 H 0.40895 0.40681 0.34211 0.0
H459 H 0.37654 0.36732 0.35636 0.0
C460 C 0.92168 0.2938 0.70583 0.0
C461 C 0.93906 0.27244 0.71584 0.0
C462 C 0.94823 0.30705 0.69381 0.0
C463 C 0.9932 0.29864 0.69171 0.0
C464 C 0.01153 0.27799 0.70183 0.0
C465 C 0.9843 0.26517 0.71375 0.0
C466 C 0.92761 0.32925 0.68328 0.0
C467 C 0.05919 0.26822 0.7 0.0
C468 C 0.02831 0.27751 0.65756 0.0
C469 C 0.07426 0.32849 0.65478 0.0
C470 C 1.00106 0.26759 0.66944 0.0
C471 C 0.0201 0.30966 0.67881 0.0
C472 C 0.06589 0.3615 0.67599 0.0
C473 C 0.09242 0.37026 0.66403 0.0
C474 C 0.95253 0.21165 0.67206 0.0
C475 C 0.08733 0.40751 0.68569 0.0
H476 H 0.88722 0.30013 0.7074 0.0
H477 H 0.99756 0.24786 0.7213 0.0
H478 H 0.96144 0.3689 0.67974 0.0
H479 H 0.91302 0.30064 0.67498 0.0
H480 H 0.89351 0.33534 0.68659 0.0
H481 H 0.06957 0.25371 0.70896 0.0
H482 H 0.04929 0.23725 0.69234 0.0
H483 H 0.09595 0.30645 0.69681 0.0
H484 H 0.0144 0.24473 0.65058 0.0
H485 H 0.12737 0.40997 0.66191 0.0
H486 H 0.9163 0.21526 0.67472 0.0
H487 H 0.96171 0.19261 0.68035 0.0
H488 H 0.94169 0.18394 0.66362 0.0
H489 H 0.05413 0.41561 0.6886 0.0
H490 H 0.12213 0.44594 0.68186 0.0
H491 H 0.1012 0.39558 0.69451 0.0
C492 C 0.79276 0.0371 0.99124 0.0
C493 C 0.7624 0.06218 0.98773 0.0
C494 C 0.78159 0.00703 1.00276 0.0
C495 C 0.73847 1.00126 1.01084 0.0
C496 C 0.70678 0.02534 1.00714 0.0
C497 C 0.71936 0.05575 0.99569 0.0
C498 C 0.81675 0.98257 1.00643 0.0
C499 C 0.65988 0.01943 1.01535 0.0
C500 C 0.67936 0.88773 0.03597 0.0
C501 C 0.70403 0.91638 0.04738 0.0
C502 C 0.69032 0.91467 0.02401 0.0
C503 C 0.72745 0.97163 0.02336 0.0
C504 C 0.75296 1.00076 0.03478 0.0
C505 C 0.74066 0.97297 0.04662 0.0
C506 C 0.66184 0.88224 1.01207 0.0
C507 C 0.79301 0.06152 0.0345 0.0
H508 H 0.82625 0.04233 0.98514 0.0
H509 H 0.69518 0.07426 0.99289 0.0
H510 H 0.83847 1.00087 1.01561 0.0
H511 H 0.79073 0.93794 1.00806 0.0
H512 H 0.84765 0.98941 0.99893 0.0
H513 H 0.63778 0.03865 1.01084 0.0
H514 H 0.63025 0.97552 1.01706 0.0
H515 H 0.67552 0.03867 0.0249 0.0
H516 H 0.65166 0.84402 0.03631 0.0
H517 H 0.75947 0.99607 0.05528 0.0
H518 H 0.69261 0.88601 1.00487 0.0
H519 H 0.63744 0.89895 1.00758 0.0
H520 H 0.63412 0.83819 1.01418 0.0
H521 H 0.8266 0.07063 0.02761 0.0
H522 H 0.81126 0.07776 0.04412 0.0
H523 H 0.77201 0.08367 0.0311 0.0
C524 C 0.64791 0.74028 0.32945 0.0
C525 C 0.68915 0.7669 0.32018 0.0
C526 C 0.65908 0.72393 0.34135 0.0
C527 C 0.71284 0.73455 0.34409 0.0
C528 C 0.75457 0.76108 0.33474 0.0
C529 C 0.74222 0.77688 0.32292 0.0
C530 C 0.61341 0.69555 0.35103 0.0
C531 C 0.81249 0.77344 0.3373 0.0
C532 C 0.75715 0.7425 0.37906 0.0
C533 C 0.75389 0.6916 0.38083 0.0
C534 C 0.74342 0.75672 0.36721 0.0
C535 C 0.72587 0.71915 0.35683 0.0
C536 C 0.72189 0.66747 0.35858 0.0
C537 C 0.73605 0.65437 0.37054 0.0
C538 C 0.74855 0.81237 0.36575 0.0
C539 C 0.70312 0.62618 0.34777 0.0
H540 H 0.60667 0.73172 0.32736 0.0
H541 H 0.77452 0.7981 0.31592 0.0
H542 H 0.60849 0.65516 0.35361 0.0
H543 H 0.62382 0.72003 0.36002 0.0
H544 H 0.57361 0.68932 0.34734 0.0
H545 H 0.83995 0.79329 0.32893 0.0
H546 H 0.8295 0.80085 0.34577 0.0
H547 H 0.81274 0.73516 0.33962 0.0
H548 H 0.77181 0.77194 0.38685 0.0
H549 H 0.7329 0.61482 0.37186 0.0
H550 H 0.70871 0.8079 0.36269 0.0
H551 H 0.77883 0.83586 0.35811 0.0
H552 H 0.76169 0.83642 0.37483 0.0
H553 H 0.66202 0.61692 0.34433 0.0
H554 H 0.70103 0.58735 0.35077 0.0
H555 H 0.73163 0.64343 0.3395 0.0
C556 C 0.02937 0.76283 0.71251 0.0
C557 C 0.07608 0.75777 0.71454 0.0
C558 C 1.00051 0.74737 0.70079 0.0
C559 C 0.01911 0.72713 0.69068 0.0
C560 C 0.06649 0.7225 0.69254 0.0
C561 C 0.09415 0.73752 0.70445 0.0
C562 C 0.94994 0.7526 0.69923 0.0
C563 C 0.08795 0.70154 0.68196 0.0
C564 C 0.91832 0.64158 0.66431 0.0
C565 C 0.93128 0.68008 0.6544 0.0
C566 C 0.94642 0.65632 0.67615 0.0
C567 C 0.98895 0.71085 0.67815 0.0
C568 C 1.00237 0.74992 0.66821 0.0
C569 C 0.97326 0.73418 0.65651 0.0
C570 C 0.9306 0.61348 0.68653 0.0
C571 C 0.04757 0.80845 0.66993 0.0
H572 H 0.01531 0.7793 0.72005 0.0
H573 H 0.12961 0.73271 0.70584 0.0
H574 H 0.95567 0.78078 0.69116 0.0
H575 H 0.91416 0.71223 0.69678 0.0
H576 H 0.94025 0.76817 0.70809 0.0
H577 H 0.12594 0.70142 0.68483 0.0
H578 H 0.0564 0.65928 0.67928 0.0
H579 H 0.09669 0.72727 0.67322 0.0
H580 H 0.88665 0.59955 0.66279 0.0
H581 H 0.9832 0.76458 0.64906 0.0
H582 H 0.91852 0.62669 0.6954 0.0
H583 H 0.96627 0.60861 0.68904 0.0
H584 H 0.89613 0.57305 0.68353 0.0
H585 H 0.03795 0.82732 0.67815 0.0
H586 H 0.05368 0.83363 0.66119 0.0
H587 H 0.08668 0.80966 0.67224 0.0
C588 C 0.59277 0.92316 0.10998 0.0
C589 C 0.63802 0.94736 0.10167 0.0
C590 C 0.55369 0.94017 0.11014 0.0
C591 C 0.55924 0.98168 0.10157 0.0
C592 C 0.60523 0.00674 0.09323 0.0
C593 C 0.64449 0.98964 0.09348 0.0
C594 C 0.50622 0.91338 0.11943 0.0
C595 C 0.61224 0.05068 0.08384 0.0
C596 C 0.43038 0.98982 0.09426 0.0
C597 C 0.4389 0.03419 0.10194 0.0
C598 C 0.46955 0.97259 0.0939 0.0
C599 C 0.51755 0.99968 0.10162 0.0
C600 C 0.5253 0.04348 0.10965 0.0
C601 C 0.48624 0.0605 0.1096 0.0
C602 C 0.46017 0.92618 0.08509 0.0
C603 C 0.57502 0.07259 0.11827 0.0
H604 H 0.58771 0.89043 0.11634 0.0
H605 H 0.67898 0.00777 0.08691 0.0
H606 H 0.50508 0.94484 0.12562 0.0
H607 H 0.46699 0.89264 0.11401 0.0
H608 H 0.50874 0.8828 0.12571 0.0
H609 H 0.64974 0.06548 0.07788 0.0
H610 H 0.5761 0.03469 0.07735 0.0
H611 H 0.61454 0.08593 0.08912 0.0
H612 H 0.39417 0.96991 0.08821 0.0
H613 H 0.49285 0.09475 0.11559 0.0
H614 H 0.45892 0.89228 0.09079 0.0
H615 H 0.49475 0.94022 0.07821 0.0
H616 H 0.42136 0.91006 0.07954 0.0
H617 H 0.57754 0.04282 0.12483 0.0
H618 H 0.57421 0.10499 0.12418 0.0
H619 H 0.61286 0.09159 0.11236 0.0
C620 C 0.4006 0.40744 0.42607 0.0
C621 C 0.36545 0.41431 0.43438 0.0
C622 C 0.45685 0.44641 0.42571 0.0
C623 C 0.47804 0.49234 0.43406 0.0
C624 C 0.44275 0.49823 0.44275 0.0
C625 C 0.38685 0.45941 0.44272 0.0
C626 C 0.49334 0.43919 0.41624 0.0
C627 C 0.46389 0.54578 0.45203 0.0
C628 C 0.62949 0.56591 0.44205 0.0
C629 C 0.64956 0.61308 0.43443 0.0
C630 C 0.57377 0.52642 0.44203 0.0
C631 C 0.53735 0.5338 0.43399 0.0
C632 C 0.55729 0.58164 0.42633 0.0
C633 C 0.61333 0.62117 0.42674 0.0
C634 C 0.55395 0.47676 0.4506 0.0
C635 C 0.5196 0.59053 0.41755 0.0
H636 H 0.38383 0.3729 0.41952 0.0
H637 H 0.35961 0.46458 0.44921 0.0
H638 H 0.51283 0.47501 0.40968 0.0
H639 H 0.5268 0.4372 0.42143 0.0
H640 H 0.47045 0.40153 0.41034 0.0
H641 H 0.43113 0.54353 0.45839 0.0
H642 H 0.49679 0.54686 0.45816 0.0
H643 H 0.48208 0.58484 0.4466 0.0
H644 H 0.65759 0.55974 0.44804 0.0
H645 H 0.62908 0.65729 0.4207 0.0
H646 H 0.53492 0.43901 0.44467 0.0
H647 H 0.522 0.47419 0.45727 0.0
H648 H 0.58761 0.47759 0.45639 0.0
H649 H 0.49909 0.55588 0.41069 0.0
H650 H 0.54176 0.62917 0.41197 0.0
H651 H 0.48698 0.59169 0.42328 0.0
C652 C 0.99926 0.61206 0.76144 0.0
C653 C 0.04102 0.64837 0.76968 0.0
C654 C 0.98242 0.55591 0.76154 0.0
C655 C 1.0073 0.53591 0.77026 0.0
C656 C 0.04783 0.57235 0.77895 0.0
C657 C 0.06454 0.62813 0.77845 0.0
C658 C 0.93941 0.51831 0.75205 0.0
C659 C 0.07437 0.55263 0.78862 0.0
C660 C 0.93202 0.38432 0.77814 0.0
C661 C 0.96027 0.36509 0.77063 0.0
C662 C 0.94719 0.4398 0.77819 0.0
C663 C 0.99116 0.47693 0.77035 0.0
C664 C 0.02047 0.4579 0.76288 0.0
C665 C 1.00495 0.40212 0.7632 0.0
C666 C 0.91577 0.45853 0.78654 0.0
C667 C 0.06733 0.49625 0.75433 0.0
H668 H 0.98164 0.62787 0.75454 0.0
H669 H 0.0968 0.65626 0.78486 0.0
H670 H 0.95697 0.49963 0.7456 0.0
H671 H 0.90456 0.48444 0.75722 0.0
H672 H 0.92355 0.54005 0.74604 0.0
H673 H 0.1033 0.58586 0.79512 0.0
H674 H 0.04255 0.51926 0.79458 0.0
H675 H 0.09713 0.53563 0.7835 0.0
H676 H 0.89743 0.35569 0.78392 0.0
H677 H 0.02627 0.38715 0.75724 0.0
H678 H 0.89604 0.47617 0.78043 0.0
H679 H 0.94424 0.49124 0.79319 0.0
H680 H 0.88356 0.42466 0.79234 0.0
H681 H 0.05282 0.51578 0.74725 0.0
H682 H 0.08547 0.47496 0.749 0.0
H683 H 0.09994 0.52945 0.76018 0.0
C684 C 0.99694 0.37878 0.60988 0.0
C685 C 0.03586 0.38335 0.60086 0.0
C686 C 0.97929 0.41749 0.61015 0.0
C687 C 1.00041 0.46073 0.60103 0.0
C688 C 0.03784 0.46374 0.59155 0.0
C689 C 0.05553 0.42535 0.59168 0.0
C690 C 0.93971 0.41338 0.62048 0.0
C691 C 0.06026 0.50827 0.58145 0.0
C692 C 0.9222 0.53513 0.59418 0.0
C693 C 0.9532 0.58436 0.60092 0.0
C694 C 0.93697 0.49451 0.5942 0.0
C695 C 0.98352 0.50296 0.60128 0.0
C696 C 0.01518 0.55269 0.60809 0.0
C697 C 0.99987 0.59315 0.60773 0.0
C698 C 0.90287 0.44267 0.58659 0.0
C699 C 0.06488 0.56286 0.61582 0.0
H700 H 0.98257 0.3468 0.61711 0.0
H701 H 0.08575 0.42877 0.58471 0.0
H702 H 0.95937 0.45041 0.62665 0.0
H703 H 0.903 0.41167 0.61603 0.0
H704 H 0.92628 0.37674 0.62668 0.0
H705 H 0.087 0.50317 0.57439 0.0
H706 H 0.02612 0.50854 0.57614 0.0
H707 H 0.08439 0.54878 0.58615 0.0
H708 H 0.88612 0.52825 0.58885 0.0
H709 H 0.02348 0.63091 0.61306 0.0
H710 H 0.88674 0.40663 0.59306 0.0
H711 H 0.92874 0.43779 0.57925 0.0
H712 H 0.86776 0.44247 0.58161 0.0
H713 H 0.05328 0.52976 0.62302 0.0
H714 H 0.08392 0.60275 0.62094 0.0
H715 H 0.09597 0.56224 0.60938 0.0
C716 C 0.61971 0.00877 0.9416 0.0
C717 C 0.65583 0.05448 0.93434 0.0
C718 C 0.56375 0.99279 0.94233 0.0
C719 C 0.54377 0.02284 0.93546 0.0
C720 C 0.58006 0.06819 0.92787 0.0
C721 C 0.63562 0.0836 0.92748 0.0
C722 C 0.52616 0.94432 0.95056 0.0
C723 C 0.56026 0.10051 0.92017 0.0
C724 C 0.39348 0.9501 0.92645 0.0
C725 C 0.37173 0.97118 0.93544 0.0
C726 C 0.44935 0.96689 0.92633 0.0
C727 C 0.4844 0.00524 0.93557 0.0
C728 C 0.46291 0.02752 0.94457 0.0
C729 C 0.40658 0.01049 0.94433 0.0
C730 C 0.47069 0.94305 0.91638 0.0
C731 C 0.49916 0.06827 0.95462 0.0
H732 H 0.63549 0.9868 0.94707 0.0
H733 H 0.66357 0.11902 0.92183 0.0
H734 H 0.50583 0.95684 0.95787 0.0
H735 H 0.4934 0.91223 0.94451 0.0
H736 H 0.54835 0.92632 0.95559 0.0
H737 H 0.59393 0.13486 0.91479 0.0
H738 H 0.5284 0.07331 0.91318 0.0
H739 H 0.54109 0.11739 0.92667 0.0
H740 H 0.36644 0.91973 0.91953 0.0
H741 H 0.3895 0.0261 0.9514 0.0
H742 H 0.48891 0.92077 0.92124 0.0
H743 H 0.50359 0.97632 0.91061 0.0
H744 H 0.43803 0.9144 0.90972 0.0
H745 H 0.51856 0.05008 0.96066 0.0
H746 H 0.47609 0.08133 0.96098 0.0
H747 H 0.53268 0.10497 0.94988 0.0
C748 C 0.41174 0.41941 0.2709 0.0
C749 C 0.42084 0.38121 0.2644 0.0
C750 C 0.45285 0.47486 0.27143 0.0
C751 C 0.50369 0.49232 0.26515 0.0
C752 C 0.51226 0.45399 0.25827 0.0
C753 C 0.47091 0.39895 0.25806 0.0
C754 C 0.44233 0.51459 0.27889 0.0
C755 C 0.56527 0.47101 0.25122 0.0
C756 C 0.58591 0.64236 0.25625 0.0
C757 C 0.62578 0.66345 0.26599 0.0
C758 C 0.54693 0.58662 0.2557 0.0
C759 C 0.54714 0.55106 0.26528 0.0
C760 C 0.58851 0.5718 0.27493 0.0
C761 C 0.62783 0.62798 0.27512 0.0
C762 C 0.50447 0.56616 0.24507 0.0
C763 C 0.58982 0.53509 0.28535 0.0
H764 H 0.37342 0.40564 0.27597 0.0
H765 H 0.47809 0.36946 0.25301 0.0
H766 H 0.47381 0.53444 0.28654 0.0
H767 H 0.44572 0.54743 0.2724 0.0
H768 H 0.40113 0.4944 0.28344 0.0
H769 H 0.5652 0.43616 0.24622 0.0
H770 H 0.57257 0.5029 0.24397 0.0
H771 H 0.60015 0.48915 0.25809 0.0
H772 H 0.58438 0.66998 0.24919 0.0
H773 H 0.6581 0.64456 0.28277 0.0
H774 H 0.46308 0.5505 0.24927 0.0
H775 H 0.50429 0.53168 0.2399 0.0
H776 H 0.51186 0.59866 0.23798 0.0
H777 H 0.55175 0.51821 0.29116 0.0
H778 H 0.62561 0.55705 0.29189 0.0
H779 H 0.59121 0.49991 0.28099 0.0
C780 C 0.31767 0.22449 0.20594 0.0
C781 C 0.32826 0.20076 0.21666 0.0
C782 C 0.32451 0.21112 0.19332 0.0
C783 C 0.34235 0.17284 0.19128 0.0
C784 C 0.35637 0.15123 0.20207 0.0
C785 C 0.3493 0.16558 0.21464 0.0
C786 C 0.30943 0.23556 0.18217 0.0
C787 C 0.37567 0.11043 0.20034 0.0
C788 C 0.28553 0.08576 0.16116 0.0
C789 C 0.32976 0.11033 0.15254 0.0
C790 C 0.28972 0.10506 0.1738 0.0
C791 C 0.33939 0.15052 0.17805 0.0
C792 C 0.38438 0.17571 0.16944 0.0
C793 C 0.379 0.15541 0.15678 0.0
C794 C 0.24042 0.0772 0.18255 0.0
C795 C 0.438 0.22426 0.1736 0.0
H796 H 0.30254 0.25263 0.20744 0.0
H797 H 0.35747 0.14705 0.22288 0.0
H798 H 0.3423 0.2518 0.17479 0.0
H799 H 0.27157 0.20331 0.17748 0.0
H800 H 0.30214 0.26907 0.18528 0.0
H801 H 0.3917 0.10302 0.20947 0.0
H802 H 0.34099 0.07096 0.19695 0.0
H803 H 0.4082 0.12479 0.1929 0.0
H804 H 0.24691 0.05174 0.15796 0.0
H805 H 0.41352 0.17442 0.15025 0.0
H806 H 0.22674 0.10649 0.18531 0.0
H807 H 0.25146 0.06365 0.19155 0.0
H808 H 0.20546 0.04109 0.17794 0.0
H809 H 0.43156 0.25878 0.1762 0.0
H810 H 0.46965 0.23813 0.16593 0.0
H811 H 0.45374 0.2138 0.18232 0.0
C812 C 0.22117 0.29155 0.49526 0.0
C813 C 0.19013 0.2976 0.48546 0.0
C814 C 0.20806 0.29144 0.50831 0.0
C815 C 0.16265 0.29744 0.51169 0.0
C816 C 0.13218 0.30538 0.50188 0.0
C817 C 0.14634 0.30546 0.48888 0.0
C818 C 0.24187 0.28322 0.51845 0.0
C819 C 0.08339 0.31177 0.50509 0.0
C820 C 0.09205 0.23253 0.54328 0.0
C821 C 0.11236 0.27771 0.5516 0.0
C822 C 0.10762 0.23861 0.53028 0.0
C823 C 0.14474 0.29122 0.52541 0.0
C824 C 0.16561 0.3371 0.53373 0.0
C825 C 0.1492 0.32981 0.54673 0.0
C826 C 0.08462 0.18851 0.52177 0.0
C827 C 0.20531 0.39384 0.5289 0.0
H828 H 0.25573 0.28658 0.49271 0.0
H829 H 0.12193 0.30977 0.48138 0.0
H830 H 0.25641 0.31616 0.52578 0.0
H831 H 0.21617 0.24386 0.52351 0.0
H832 H 0.27797 0.28277 0.51429 0.0
H833 H 0.06669 0.32191 0.49647 0.0
H834 H 0.05048 0.27317 0.50932 0.0
H835 H 0.09481 0.34438 0.5124 0.0
H836 H 0.06442 0.192 0.54696 0.0
H837 H 0.16463 0.36502 0.55303 0.0
H838 H 0.11845 0.18293 0.51805 0.0
H839 H 0.06356 0.19387 0.51332 0.0
H840 H 0.05509 0.15071 0.52696 0.0
H841 H 0.24283 0.39509 0.52517 0.0
H842 H 0.21734 0.42533 0.53655 0.0
H843 H 0.18672 0.40457 0.52078 0.0
C844 C 0.85408 0.20567 0.82322 0.0
C845 C 0.90315 0.20809 0.81946 0.0
C846 C 0.83876 0.2001 0.8363 0.0
C847 C 0.87284 0.19593 0.84578 0.0
C848 C 0.92418 0.20247 0.84211 0.0
C849 C 0.93888 0.20911 0.82906 0.0
C850 C 0.78453 0.19518 0.83984 0.0
C851 C 0.96191 0.19821 0.85184 0.0
C852 C 0.85428 0.19355 0.88224 0.0
C853 C 0.82861 0.13718 0.88476 0.0
C854 C 0.86578 0.21359 0.86949 0.0
C855 C 0.85204 0.17643 0.85908 0.0
C856 C 0.82332 0.11951 0.86157 0.0
C857 C 0.81148 0.10074 0.87431 0.0
C858 C 0.89498 0.27452 0.86724 0.0
C859 C 0.80786 0.07821 0.85082 0.0
H860 H 0.82626 0.20519 0.81592 0.0
H861 H 0.97771 0.21286 0.82633 0.0
H862 H 0.75396 0.1516 0.84161 0.0
H863 H 0.7883 0.2181 0.84883 0.0
H864 H 0.76867 0.21058 0.83204 0.0
H865 H 1.00223 0.20869 0.84761 0.0
H866 H 0.96897 0.22568 0.86014 0.0
H867 H 0.94247 0.15577 0.85562 0.0
H868 H 0.86745 0.2221 0.89021 0.0
H869 H 0.78997 0.05712 0.87609 0.0
H870 H 0.87726 0.28461 0.85882 0.0
H871 H 0.93878 0.28938 0.86511 0.0
H872 H 0.89279 0.29693 0.87581 0.0
H873 H 0.78393 0.08519 0.84331 0.0
H874 H 0.78329 0.0354 0.85431 0.0
H875 H 0.84556 0.08312 0.84618 0.0
C876 C 0.78377 0.94121 0.15945 0.0
C877 C 0.74297 0.90916 0.15051 0.0
C878 C 0.77486 0.93171 0.17271 0.0
C879 C 0.72389 0.88873 0.17712 0.0
C880 C 0.68085 0.85939 0.16818 0.0
C881 C 0.69091 0.87008 0.15492 0.0
C882 C 0.8217 0.96453 0.18189 0.0
C883 C 0.62579 0.8136 0.17249 0.0
C884 C 0.73955 0.81862 0.20664 0.0
C885 C 0.72567 0.84278 0.21663 0.0
C886 C 0.73656 0.83138 0.19371 0.0
C887 C 0.71926 0.86941 0.19067 0.0
C888 C 0.70273 0.89212 0.20067 0.0
C889 C 0.70612 0.87851 0.21356 0.0
C890 C 0.75413 0.80577 0.18335 0.0
C891 C 0.68388 0.93261 0.19781 0.0
H892 H 0.82383 0.97175 0.15599 0.0
H893 H 0.65944 0.84505 0.14799 0.0
H894 H 0.80746 0.97841 0.19028 0.0
H895 H 0.83781 0.93837 0.18562 0.0
H896 H 0.85584 1.00088 0.17716 0.0
H897 H 0.59412 0.80196 0.16486 0.0
H898 H 0.62938 0.77715 0.17489 0.0
H899 H 0.61184 0.8253 0.18131 0.0
H900 H 0.7535 0.79009 0.20894 0.0
H901 H 0.69554 0.89751 0.22125 0.0
H902 H 0.79161 0.83788 0.17853 0.0
H903 H 0.72173 0.7865 0.17588 0.0
H904 H 0.76297 0.77427 0.18726 0.0
H905 H 0.7194 0.97195 0.19468 0.0
H906 H 0.66519 0.94048 0.20638 0.0
H907 H 0.65361 0.91771 0.18982 0.0
C908 C 0.85154 0.69254 0.48795 0.0
C909 C 0.82056 0.71746 0.48483 0.0
C910 C 0.8637 0.68725 0.50085 0.0
C911 C 0.84434 0.70728 0.51088 0.0
C912 C 0.81113 0.73035 0.50781 0.0
C913 C 0.79965 0.73511 0.49485 0.0
C914 C 0.89921 0.66235 0.50372 0.0
C915 C 0.78937 0.75192 0.51819 0.0
C916 C 0.84803 0.66649 0.54577 0.0
C917 C 0.89618 0.71193 0.55035 0.0
C918 C 0.83075 0.66405 0.53293 0.0
C919 C 0.86227 0.70817 0.52446 0.0
C920 C 0.91073 0.7542 0.52905 0.0
C921 C 0.927 0.75551 0.54189 0.0
C922 C 0.77891 0.61423 0.5284 0.0
C923 C 0.94533 0.80236 0.52039 0.0
H924 H 0.86817 0.67914 0.48028 0.0
H925 H 0.77478 0.7534 0.49255 0.0
H926 H 0.93923 0.6942 0.50764 0.0
H927 H 0.87971 0.63 0.51116 0.0
H928 H 0.9069 0.64438 0.49499 0.0
H929 H 0.76096 0.76508 0.51428 0.0
H930 H 0.7675 0.72019 0.52565 0.0
H931 H 0.82402 0.78743 0.52303 0.0
H932 H 0.82433 0.63239 0.55218 0.0
H933 H 0.96371 0.79115 0.54537 0.0
H934 H 0.78817 0.59499 0.52019 0.0
H935 H 0.74925 0.62636 0.52487 0.0
H936 H 0.75914 0.58329 0.53615 0.0
H937 H 0.95865 0.78859 0.51181 0.0
H938 H 0.98231 0.83466 0.52538 0.0
H939 H 0.92072 0.82059 0.51687 0.0
C940 C 0.17903 0.94053 0.87559 0.0
C941 C 0.1921 0.90976 0.88402 0.0
C942 C 0.16526 0.925 0.86266 0.0
C943 C 0.16465 0.87755 0.85799 0.0
C944 C 0.17815 0.84645 0.86641 0.0
C945 C 0.19157 0.86284 0.87933 0.0
C946 C 0.15058 0.959 0.85404 0.0
C947 C 0.17828 0.79579 0.86178 0.0
C948 C 0.07551 0.8109 0.82857 0.0
C949 C 0.11368 0.8321 0.81847 0.0
C950 C 0.09174 0.82439 0.84147 0.0
C951 C 0.14774 0.85956 0.84442 0.0
C952 C 0.18687 0.87958 0.83435 0.0
C953 C 0.16938 0.86577 0.82149 0.0
C954 C 0.04866 0.8021 0.8519 0.0
C955 C 0.24704 0.91683 0.83712 0.0
H956 H 0.17864 0.97638 0.87916 0.0
H957 H 0.2024 0.83931 0.88572 0.0
H958 H 0.17764 0.97296 0.84547 0.0
H959 H 0.10784 0.93379 0.85052 0.0
H960 H 0.15426 0.99544 0.85907 0.0
H961 H 0.19104 0.77689 0.86944 0.0
H962 H 0.13672 0.76511 0.85838 0.0
H963 H 0.20648 0.80603 0.85347 0.0
H964 H 0.0326 0.78382 0.82642 0.0
H965 H 0.19921 0.88268 0.8138 0.0
H966 H 0.04745 0.83633 0.85685 0.0
H967 H 0.05911 0.78021 0.85927 0.0
H968 H 1.00711 0.77362 0.84805 0.0
H969 H 0.2536 0.95616 0.8411 0.0
H970 H 0.27269 0.92553 0.82836 0.0
H971 H 0.2613 0.89823 0.84451 0.0
C972 C 0.54907 0.6123 0.10562 0.0
C973 C 0.60324 0.63105 0.10156 0.0
C974 C 0.51065 0.55629 0.1063 0.0
C975 C 0.52633 0.51777 0.10268 0.0
C976 C 0.58033 0.53628 0.09816 0.0
C977 C 0.61818 0.59274 0.09766 0.0
C978 C 0.45358 0.53836 0.11115 0.0
C979 C 0.59846 0.49637 0.09411 0.0
C980 C 0.45381 0.37401 0.11653 0.0
C981 C 0.4212 0.34347 0.10612 0.0
C982 C 0.48641 0.43111 0.11573 0.0
C983 C 0.48705 0.45809 0.10415 0.0
C984 C 0.45198 0.42757 0.09384 0.0
C985 C 0.41931 0.37045 0.09497 0.0
C986 C 0.52244 0.46216 0.12703 0.0
C987 C 0.45151 0.45473 0.08134 0.0
H988 H 0.53659 0.64159 0.10831 0.0
H989 H 0.65982 0.60681 0.09451 0.0
H990 H 0.42263 0.51138 0.10397 0.0
H991 H 0.44586 0.51424 0.12014 0.0
H992 H 0.44731 0.57353 0.11317 0.0
H993 H 0.64083 0.51726 0.09021 0.0
H994 H 0.59677 0.47112 0.1025 0.0
H995 H 0.57022 0.4681 0.08667 0.0
H996 H 0.45588 0.35279 0.12505 0.0
H997 H 0.39503 0.3465 0.08682 0.0
H998 H 0.51656 0.49707 0.12959 0.0
H999 H 0.56613 0.47923 0.12436 0.0
H1000 H 0.51383 0.43581 0.13567 0.0
H1001 H 0.4462 0.49053 0.0832 0.0
H1002 H 0.41839 0.42621 0.07475 0.0
H1003 H 0.49146 0.47004 0.07639 0.0
C1004 C 0.01968 0.42029 0.42995 0.0
C1005 C 0.07638 0.44098 0.43031 0.0
C1006 C 0.9983 0.45585 0.42909 0.0
C1007 C 0.03461 0.51315 0.42859 0.0
C1008 C 0.09181 0.53388 0.42824 0.0
C1009 C 0.11194 0.49753 0.42903 0.0
C1010 C 0.93697 0.43229 0.42933 0.0
C1011 C 0.13187 0.5946 0.42769 0.0
C1012 C 0.97778 0.6062 0.41978 0.0
C1013 C 0.96748 0.6201 0.432 0.0
C1014 C 1.0003 0.57182 0.41846 0.0
C1015 C 0.01316 0.5516 0.42965 0.0
C1016 C 1.00514 0.56775 0.442 0.0
C1017 C 0.98205 0.60156 0.44302 0.0
C1018 C 1.00808 0.55527 0.40515 0.0
C1019 C 0.01929 0.5479 0.45416 0.0
H1020 H 0.99216 0.37662 0.43087 0.0
H1021 H 0.15588 0.51358 0.42897 0.0
H1022 H 0.92495 0.4434 0.43853 0.0
H1023 H 0.92403 0.44979 0.4214 0.0
H1024 H 0.91441 0.38701 0.42842 0.0
H1025 H 0.1748 0.60376 0.42638 0.0
H1026 H 0.12119 0.61373 0.41969 0.0
H1027 H 0.12956 0.61407 0.43678 0.0
H1028 H 0.96554 0.61985 0.41127 0.0
H1029 H 0.97378 0.61227 0.45245 0.0
H1030 H 0.98029 0.51068 0.40383 0.0
H1031 H 0.05062 0.56327 0.40397 0.0
H1032 H 0.99941 0.57732 0.39745 0.0
H1033 H 0.99375 0.50274 0.45483 0.0
H1034 H 0.01266 0.56614 0.46298 0.0
H1035 H 0.06279 0.55808 0.45392 0.0
C1036 C 0.38261 0.91151 0.75952 0.0
C1037 C 0.35961 0.94448 0.76235 0.0
C1038 C 0.43948 0.9336 0.75878 0.0
C1039 C 0.47442 0.99026 0.76082 0.0
C1040 C 0.45143 0.02439 0.7629 0.0
C1041 C 0.39411 1.00105 0.76362 0.0
C1042 C 0.46213 0.89575 0.75649 0.0
C1043 C 0.48743 0.08512 0.76498 0.0
C1044 C 0.61485 0.03591 0.77522 0.0
C1045 C 0.64894 0.0562 0.7644 0.0
C1046 C 0.55801 0.01391 0.77413 0.0
C1047 C 0.53467 0.01265 0.76193 0.0
C1048 C 0.56876 0.03193 0.75091 0.0
C1049 C 0.62557 0.05327 0.75227 0.0
C1050 C 0.52303 0.99284 0.78609 0.0
C1051 C 0.54543 0.03145 0.73777 0.0
H1052 H 0.35594 0.86784 0.75826 0.0
H1053 H 0.37645 0.02661 0.76578 0.0
H1054 H 0.49275 0.91159 0.74861 0.0
H1055 H 0.48345 0.89376 0.76531 0.0
H1056 H 0.42953 0.85361 0.75399 0.0
H1057 H 0.46348 0.10669 0.76515 0.0
H1058 H 0.50953 0.09251 0.77429 0.0
H1059 H 0.51879 0.10317 0.75728 0.0
H1060 H 0.63293 0.03812 0.7846 0.0
H1061 H 0.652 0.06978 0.74393 0.0
H1062 H 0.49096 0.94944 0.78473 0.0
H1063 H 0.50179 0.01646 0.78782 0.0
H1064 H 0.54744 0.99585 0.79479 0.0
H1065 H 0.51262 0.98948 0.73528 0.0
H1066 H 0.57717 0.04627 0.73011 0.0
H1067 H 0.52652 0.05782 0.73786 0.0
C1068 C 0.6151 0.58031 0.59402 0.0
C1069 C 0.64928 0.59413 0.60485 0.0
C1070 C 0.55829 0.54605 0.59512 0.0
C1071 C 0.53519 0.52459 0.60734 0.0
C1072 C 0.56935 0.53976 0.61839 0.0
C1073 C 0.62614 0.57467 0.61701 0.0
C1074 C 0.52317 0.53173 0.58315 0.0
C1075 C 0.5462 0.51752 0.63155 0.0
C1076 C 0.38282 0.47211 0.60962 0.0
C1077 C 0.36075 0.4163 0.60684 0.0
C1078 C 0.43952 0.50742 0.61036 0.0
C1079 C 0.47519 0.48636 0.60842 0.0
C1080 C 0.4532 0.42946 0.6064 0.0
C1081 C 0.39604 0.39497 0.60562 0.0
C1082 C 0.4612 0.56772 0.61256 0.0
C1083 C 0.49008 0.40548 0.60443 0.0
H1084 H 0.63315 0.59539 0.58462 0.0
H1085 H 0.65273 0.58467 0.62535 0.0
H1086 H 0.50271 0.48702 0.58139 0.0
H1087 H 0.49049 0.54237 0.58448 0.0
H1088 H 0.54734 0.55331 0.57446 0.0
H1089 H 0.57783 0.53545 0.63925 0.0
H1090 H 0.51258 0.52584 0.63387 0.0
H1091 H 0.52841 0.47247 0.63161 0.0
H1092 H 0.35555 0.48853 0.61088 0.0
H1093 H 0.37913 0.35187 0.60352 0.0
H1094 H 0.48226 0.59084 0.60373 0.0
H1095 H 0.49185 0.58304 0.62047 0.0
H1096 H 0.4281 0.57676 0.61498 0.0
H1097 H 0.51221 0.42022 0.59516 0.0
H1098 H 0.4668 0.36005 0.60428 0.0
H1099 H 0.52137 0.41923 0.61219 0.0
C1100 C 0.02984 0.6147 0.93173 0.0
C1101 C 0.08513 0.65216 0.93413 0.0
C1102 C 0.01033 0.55806 0.93218 0.0
C1103 C 0.04701 0.53877 0.93517 0.0
C1104 C 0.10248 0.57654 0.93794 0.0
C1105 C 0.12075 0.63264 0.93744 0.0
C1106 C 0.95072 0.51883 0.92927 0.0
C1107 C 0.14273 0.55773 0.94131 0.0
C1108 C 0.98304 0.39292 0.9473 0.0
C1109 C 0.98067 0.36451 0.93603 0.0
C1110 C 1.00613 0.44987 0.94726 0.0
C1111 C 0.02721 0.47904 0.93562 0.0
C1112 C 0.02787 0.45084 0.92437 0.0
C1113 C 1.00444 0.39364 0.92471 0.0
C1114 C 1.0051 0.47835 0.95948 0.0
C1115 C 0.05054 0.48069 0.91181 0.0
H1116 H 1.00233 0.62968 0.92915 0.0
H1117 H 0.1634 0.66155 0.93953 0.0
H1118 H 0.94727 0.49329 0.9208 0.0
H1119 H 0.93131 0.49074 0.93754 0.0
H1120 H 0.92745 0.5403 0.92724 0.0
H1121 H 0.18449 0.59248 0.94327 0.0
H1122 H 0.12843 0.53096 0.94994 0.0
H1123 H 0.14525 0.53315 0.93328 0.0
H1124 H 0.96393 0.37004 0.95601 0.0
H1125 H 1.00157 0.3714 0.91595 0.0
H1126 H 0.97715 0.49514 0.95822 0.0
H1127 H 0.04646 0.51326 0.96162 0.0
H1128 H 0.991 0.45033 0.96791 0.0
H1129 H 0.02481 0.49775 0.90834 0.0
H1130 H 0.05165 0.45352 0.90422 0.0
H1131 H 0.09263 0.51556 0.91326 0.0
C1132 C 0.52521 0.9118 0.27217 0.0
C1133 C 0.58064 0.94689 0.26912 0.0
C1134 C 0.48764 0.93064 0.27244 0.0
C1135 C 0.50593 0.98622 0.26975 0.0
C1136 C 0.5622 0.0224 0.26708 0.0
C1137 C 0.59901 1.00228 0.26681 0.0
C1138 C 0.42822 0.89085 0.27543 0.0
C1139 C 0.58327 0.08215 0.26431 0.0
C1140 C 0.40548 0.03128 0.25861 0.0
C1141 C 0.39921 0.05468 0.2699 0.0
C1142 C 0.4388 0.00713 0.2585 0.0
C1143 C 0.46629 0.00665 0.26994 0.0
C1144 C 0.45716 0.02724 0.28152 0.0
C1145 C 0.42368 0.05093 0.28136 0.0
C1146 C 0.44696 0.98486 0.246 0.0
C1147 C 0.48524 0.02716 0.29394 0.0
H1148 H 0.51097 0.86907 0.27421 0.0
H1149 H 0.64169 0.02943 0.26441 0.0
H1150 H 0.41503 0.90498 0.28396 0.0
H1151 H 0.40203 0.88901 0.26722 0.0
H1152 H 0.42071 0.84892 0.27737 0.0
H1153 H 0.62822 0.10506 0.26261 0.0
H1154 H 0.56232 0.08633 0.25567 0.0
H1155 H 0.57379 0.10131 0.2725 0.0
H1156 H 0.38727 0.03501 0.24973 0.0
H1157 H 0.41903 0.06946 0.29007 0.0
H1158 H 0.43931 0.94262 0.24739 0.0
H1159 H 0.49008 0.01031 0.24279 0.0
H1160 H 0.41953 0.98448 0.23823 0.0
H1161 H 0.47815 0.98555 0.29603 0.0
H1162 H 0.47071 0.04113 0.30228 0.0
H1163 H 0.53015 0.05459 0.29297 0.0
C1164 C 0.15817 0.07846 0.07981 0.0
C1165 C 0.18366 0.05611 0.08737 0.0
C1166 C 0.10071 0.05356 0.07912 0.0
C1167 C 0.06752 1.0046 0.08603 0.0
C1168 C 0.09294 0.98156 0.0936 0.0
C1169 C 0.15057 0.00769 0.09424 0.0
C1170 C 0.07549 0.07994 0.07105 0.0
C1171 C 0.0592 0.92917 0.10101 0.0
C1172 C 0.92006 0.96654 0.09371 0.0
C1173 C 0.89034 0.9286 0.08396 0.0
C1174 C 0.97751 0.99144 0.0945 0.0
C1175 C 1.00629 0.97786 0.08539 0.0
C1176 C 0.97655 0.93937 0.07558 0.0
C1177 C 0.91911 0.9155 0.07493 0.0
C1178 C 1.0075 0.0327 0.10503 0.0
C1179 C 1.00544 0.92329 0.06575 0.0
H1180 H 0.18317 0.11591 0.07449 0.0
H1181 H 0.16972 0.98992 0.10007 0.0
H1182 H 0.04884 0.05112 0.06349 0.0
H1183 H 0.04919 0.08967 0.07717 0.0
H1184 H 0.10689 0.11817 0.06633 0.0
H1185 H 0.08507 0.91598 0.10627 0.0
H1186 H 0.03272 0.93458 0.10807 0.0
H1187 H 0.03175 0.89602 0.09433 0.0
H1188 H 0.89847 0.97733 0.1007 0.0
H1189 H 0.89669 0.8861 0.0674 0.0
H1190 H 0.03715 0.07269 0.10071 0.0
H1191 H 0.03133 0.01929 0.11103 0.0
H1192 H 0.9792 0.03865 0.11139 0.0
H1193 H 0.03494 0.95977 0.06018 0.0
H1194 H 0.97642 0.89189 0.0589 0.0
H1195 H 0.02932 0.907 0.07069 0.0
C1196 C 0.02389 0.13205 0.43354 0.0
C1197 C 0.0801 0.15985 0.43077 0.0
C1198 C 0.99093 0.07611 0.4308 0.0
C1199 C 0.01505 0.04688 0.42549 0.0
C1200 C 0.07178 0.07489 0.42256 0.0
C1201 C 0.10351 0.13127 0.42508 0.0
C1202 C 0.93039 0.04815 0.43376 0.0
C1203 C 0.09928 0.04497 0.41717 0.0
C1204 C 0.93887 0.89383 0.43202 0.0
C1205 C 0.91313 0.87258 0.42014 0.0
C1206 C 0.97336 0.95033 0.43376 0.0
C1207 C 0.98116 0.98664 0.42348 0.0
C1208 C 0.95515 0.96539 0.41148 0.0
C1209 C 0.92199 0.90854 0.4099 0.0
C1210 C 1.00127 0.97118 0.44662 0.0
C1211 C 0.9613 1.00277 0.40039 0.0
H1212 H 1.00555 0.15412 0.43784 0.0
H1213 H 0.14706 0.15259 0.42301 0.0
H1214 H 0.9062 0.02633 0.4251 0.0
H1215 H 0.92024 0.01713 0.44143 0.0
H1216 H 0.91735 0.07744 0.43701 0.0
H1217 H 0.14345 0.07288 0.41514 0.0
H1218 H 0.09546 0.01335 0.42413 0.0
H1219 H 0.0787 0.02352 0.40813 0.0
H1220 H 0.93252 0.86618 0.43994 0.0
H1221 H 0.90185 0.8923 0.40073 0.0
H1222 H 0.98653 0.99706 0.45116 0.0
H1223 H 0.04618 0.99716 0.44525 0.0
H1224 H 0.99349 0.93744 0.45336 0.0
H1225 H 0.94573 0.03043 0.40327 0.0
H1226 H 0.93874 0.97977 0.39165 0.0
H1227 H 1.00521 0.02891 0.39791 0.0
C1228 C 0.97745 0.09127 0.74143 0.0
C1229 C 0.9529 0.10089 0.75211 0.0
C1230 C 0.99553 0.05292 0.74201 0.0
C1231 C 0.98809 0.02267 0.75348 0.0
C1232 C 0.9638 0.03263 0.76433 0.0
C1233 C 0.94681 0.07176 0.76354 0.0
C1234 C 0.02186 0.04417 0.73028 0.0
C1235 C 0.95441 1.00089 0.7767 0.0
C1236 C 0.97693 0.88264 0.75147 0.0
C1237 C 0.02844 0.8934 0.75598 0.0
C1238 C 0.96378 0.92445 0.75039 0.0
C1239 C 1.00296 0.97862 0.75395 0.0
C1240 C 0.05548 0.99008 0.75826 0.0
C1241 C 0.06764 0.9474 0.7592 0.0
C1242 C 0.90742 0.91037 0.74568 0.0
C1243 C 0.09847 0.04724 0.76212 0.0
H1244 H 0.98268 0.11388 0.73259 0.0
H1245 H 0.92723 0.07834 0.77178 0.0
H1246 H 0.06232 0.04898 0.73286 0.0
H1247 H 0.99597 1.00185 0.72664 0.0
H1248 H 0.02771 0.07321 0.72238 0.0
H1249 H 0.93709 0.015 0.78442 0.0
H1250 H 0.92572 0.9568 0.7749 0.0
H1251 H 0.9935 1.0048 0.78019 0.0
H1252 H 0.9464 0.84121 0.74887 0.0
H1253 H 0.10754 0.95621 0.76271 0.0
H1254 H 0.91088 0.93585 0.73719 0.0
H1255 H 0.88563 0.91953 0.75331 0.0
H1256 H 0.88215 0.86661 0.74295 0.0
H1257 H 0.10561 0.07623 0.75413 0.0
H1258 H 0.13807 0.04996 0.76471 0.0
H1259 H 0.08383 0.06072 0.77051 0.0
C1260 C 0.91471 0.88049 0.6026 0.0
C1261 C 0.94178 0.85118 0.60526 0.0
C1262 C 0.93868 0.93626 0.60563 0.0
C1263 C 0.99175 0.96396 0.61118 0.0
C1264 C 0.0191 0.93444 0.61404 0.0
C1265 C 0.99348 0.87818 0.61119 0.0
C1266 C 0.90745 0.96572 0.60271 0.0
C1267 C 0.07611 0.96265 0.61971 0.0
C1268 C 0.06883 0.11739 0.60509 0.0
C1269 C 0.06252 0.13809 0.61685 0.0
C1270 C 0.04808 0.06106 0.60332 0.0
C1271 C 0.01908 0.02421 0.61346 0.0
C1272 C 0.01329 0.04494 0.62543 0.0
C1273 C 0.03562 0.10168 0.62703 0.0
C1274 C 0.05619 0.04088 0.59049 0.0
C1275 C 0.98167 0.00705 0.63638 0.0
H1276 H 0.87449 0.85971 0.59814 0.0
H1277 H 0.01467 0.85575 0.6132 0.0
H1278 H 0.90505 0.98701 0.61146 0.0
H1279 H 0.92936 0.99734 0.59522 0.0
H1280 H 0.86516 0.93752 0.59923 0.0
H1281 H 0.091 0.93362 0.62181 0.0
H1282 H 0.10496 0.99416 0.61289 0.0
H1283 H 0.07705 0.98402 0.62876 0.0
H1284 H 0.08999 0.1453 0.59721 0.0
H1285 H 0.03031 0.11736 0.63612 0.0
H1286 H 0.01603 0.01635 0.58562 0.0
H1287 H 0.07385 0.0138 0.59194 0.0
H1288 H 0.08362 0.07499 0.58401 0.0
H1289 H 0.93815 0.98087 0.6335 0.0
H1290 H 0.98321 0.02967 0.64528 0.0
H1291 H 0.99808 0.97946 0.63861 0.0
C1292 C 0.91618 0.02843 0.94245 0.0
C1293 C 0.93301 0.07705 0.94937 0.0
C1294 C 0.9478 1.00243 0.94238 0.0
C1295 C 0.99794 0.02577 0.94928 0.0
C1296 C 0.01525 0.07491 0.95626 0.0
C1297 C 0.98249 0.09973 0.95628 0.0
C1298 C 0.92741 0.94981 0.93494 0.0
C1299 C 0.06862 0.10147 0.96365 0.0
C1300 C 0.05743 0.93535 0.95898 0.0
C1301 C 0.09716 0.94748 0.94943 0.0
C1302 C 0.02466 0.96011 0.95898 0.0
C1303 C 0.03204 0.99857 0.94928 0.0
C1304 C 0.07205 0.01101 0.9396 0.0
C1305 C 0.10385 0.98514 0.93974 0.0
C1306 C 0.98206 0.94507 0.96939 0.0
C1307 C 0.08166 0.0521 0.92914 0.0
H1308 H 0.87797 0.01038 0.93711 0.0
H1309 H 0.99607 0.13736 0.96161 0.0
H1310 H 0.95773 0.95483 0.92747 0.0
H1311 H 0.92285 0.91674 0.94151 0.0
H1312 H 0.88738 0.93668 0.93016 0.0
H1313 H 0.07672 0.14002 0.96843 0.0
H1314 H 0.06803 0.07296 0.9711 0.0
H1315 H 0.10311 0.11067 0.95704 0.0
H1316 H 0.05167 0.90621 0.96649 0.0
H1317 H 0.13454 0.99505 0.93234 0.0
H1318 H 0.94093 0.92916 0.96497 0.0
H1319 H 0.99084 0.98196 0.97503 0.0
H1320 H 0.98066 0.9137 0.9761 0.0
H1321 H 0.04333 0.03891 0.92359 0.0
H1322 H 0.11444 0.05746 0.92234 0.0
H1323 H 0.09328 0.09233 0.93352 0.0
C1324 C 0.13646 0.05648 0.28755 0.0
C1325 C 0.16247 0.10667 0.28097 0.0
C1326 C 0.07892 0.02376 0.28776 0.0
C1327 C 0.04617 0.04177 0.28138 0.0
C1328 C 0.07213 0.09266 0.27483 0.0
C1329 C 0.12981 0.12425 0.27463 0.0
C1330 C 0.05317 0.96959 0.29474 0.0
C1331 C 0.03893 0.11383 0.26803 0.0
C1332 C 0.89933 0.9355 0.2721 0.0
C1333 C 0.86877 0.9399 0.28224 0.0
C1334 C 0.95686 0.96838 0.27167 0.0
C1335 C 0.98482 0.00727 0.28155 0.0
C1336 C 0.95414 0.01249 0.29171 0.0
C1337 C 0.89672 0.97862 0.29198 0.0
C1338 C 0.98781 0.96091 0.26074 0.0
C1339 C 0.98205 0.05378 0.30235 0.0
H1340 H 0.16113 0.04225 0.29242 0.0
H1341 H 0.14932 0.16296 0.26954 0.0
H1342 H 0.02572 0.96901 0.30247 0.0
H1343 H 0.02759 0.93599 0.28795 0.0
H1344 H 0.08424 0.96112 0.29912 0.0
H1345 H 0.06517 0.15457 0.26357 0.0
H1346 H 0.01332 0.08471 0.2604 0.0
H1347 H 0.01068 0.11705 0.27496 0.0
H1348 H 0.87837 0.90566 0.26454 0.0
H1349 H 0.8737 0.98265 0.29984 0.0
H1350 H 0.0171 0.94893 0.26462 0.0
H1351 H 0.01216 1.00008 0.2555 0.0
H1352 H 0.96012 0.92923 0.25376 0.0
H1353 H 0.0108 0.04459 0.30765 0.0
H1354 H 0.95234 0.05409 0.30934 0.0
H1355 H 1.00661 0.09537 0.2982 0.0
loop_
_geom_bond_atom_site_label_1
_geom_bond_atom_site_label_2
_geom_bond_distance
_geom_bond_site_symmetry_2
_ccdc_geom_bond_type
Co0 N4 2.148 . S
Co0 N10 2.128 . S
Co0 N20 2.194 . S
Co0 O25 2.351 . S
Co0 O26 2.155 . S
Co0 O27 2.096 . S
C1 N4 1.301 . S
C1 N5 1.328 . S
C1 H6 0.930 . S
C2 C3 1.333 . S
C2 N4 1.317 . S
C2 H7 0.930 . S
C3 C2 1.333 . S
C3 N5 1.350 . S
C3 H29 0.931 . S
N4 Co0 2.148 . S
N4 C1 1.301 . S
N4 C2 1.317 . S
N5 C1 1.328 . S
N5 C3 1.350 . S
H6 C1 0.930 . S
H7 C2 0.930 . S
C8 O9 1.224 . S
C8 O27 1.247 . S
O9 C8 1.224 . S
N10 Co0 2.128 . S
N10 C11 1.355 . S
N10 C13 1.311 . S
C11 N10 1.355 . S
C11 C12 1.363 . S
C11 H23 0.929 . S
C12 C11 1.363 . S
C12 N14 1.375 . S
C12 H30 0.931 . S
C13 N10 1.311 . S
C13 N14 1.347 . S
C13 H24 0.929 . S
N14 C12 1.375 . S
N14 C13 1.347 . S
C15 C18 1.365 . S
C15 N20 1.328 . S
C15 H21 0.929 . S
C16 C17 1.362 . S
C16 C19 1.378 . S
C16 H31 0.929 . S
C17 C16 1.362 . S
C17 C18 1.366 . S
C18 C15 1.365 . S
C18 C17 1.366 . S
C18 H32 0.930 . S
C19 C16 1.378 . S
C19 N20 1.315 . S
C19 H22 0.930 . S
N20 Co0 2.194 . S
N20 C15 1.328 . S
N20 C19 1.315 . S
H21 C15 0.929 . S
H22 C19 0.930 . S
H23 C11 0.929 . S
H24 C13 0.929 . S
O25 Co0 2.351 . S
O25 C28 1.244 . S
O26 Co0 2.155 . S
O26 C28 1.240 . S
O27 Co0 2.096 . S
O27 C8 1.247 . S
C28 O25 1.244 . S
C28 O26 1.240 . S
H29 C3 0.931 . S
H30 C12 0.931 . S
H31 C16 0.929 . S
H32 C18 0.930 . S
Co33 N37 2.148 . S
Co33 N43 2.128 . S
Co33 N53 2.194 . S
Co33 O58 2.351 . S
Co33 O59 2.155 . S
Co33 O60 2.096 . S
C34 N37 1.301 . S
C34 N38 1.328 . S
C34 H39 0.930 . S
C35 C36 1.333 . S
C35 N37 1.317 . S
C35 H40 0.930 . S
C36 C35 1.333 . S
C36 N38 1.350 . S
C36 H62 0.931 . S
N37 Co33 2.148 . S
N37 C34 1.301 . S
N37 C35 1.317 . S
N38 C34 1.328 . S
N38 C36 1.350 . S
H39 C34 0.930 . S
H40 C35 0.930 . S
C41 O42 1.224 . S
C41 O60 1.247 . S
O42 C41 1.224 . S
N43 Co33 2.128 . S
N43 C44 1.355 . S
N43 C46 1.311 . S
C44 N43 1.355 . S
C44 C45 1.363 . S
C44 H56 0.929 . S
C45 C44 1.363 . S
C45 N47 1.375 . S
C45 H63 0.931 . S
C46 N43 1.311 . S
C46 N47 1.347 . S
C46 H57 0.929 . S
N47 C45 1.375 . S
N47 C46 1.347 . S
C48 C51 1.365 . S
C48 N53 1.328 . S
C48 H54 0.929 . S
C49 C50 1.362 . S
C49 C52 1.378 . S
C49 H64 0.929 . S
C50 C49 1.362 . S
C50 C51 1.366 . S
C51 C48 1.365 . S
C51 C50 1.366 . S
C51 H65 0.930 . S
C52 C49 1.378 . S
C52 N53 1.315 . S
C52 H55 0.930 . S
N53 Co33 2.194 . S
N53 C48 1.328 . S
N53 C52 1.315 . S
H54 C48 0.929 . S
H55 C52 0.930 . S
H56 C44 0.929 . S
H57 C46 0.929 . S
O58 Co33 2.351 . S
O58 C61 1.244 . S
O59 Co33 2.155 . S
O59 C61 1.240 . S
O60 Co33 2.096 . S
O60 C41 1.247 . S
C61 O58 1.244 . S
C61 O59 1.240 . S
H62 C36 0.931 . S
H63 C45 0.931 . S
H64 C49 0.929 . S
H65 C51 0.930 . S
Co66 N70 2.148 . S
Co66 N76 2.128 . S
Co66 N86 2.194 . S
Co66 O91 2.351 . S
Co66 O92 2.155 . S
Co66 O93 2.096 . S
C67 N70 1.301 . S
C67 N71 1.328 . S
C67 H72 0.930 . S
C68 C69 1.333 . S
C68 N70 1.317 . S
C68 H73 0.930 . S
C69 C68 1.333 . S
C69 N71 1.350 . S
C69 H95 0.931 . S
N70 Co66 2.148 . S
N70 C67 1.301 . S
N70 C68 1.317 . S
N71 C67 1.328 . S
N71 C69 1.350 . S
H72 C67 0.930 . S
H73 C68 0.930 . S
C74 O75 1.224 . S
C74 O93 1.247 . S
O75 C74 1.224 . S
N76 Co66 2.128 . S
N76 C77 1.355 . S
N76 C79 1.311 . S
C77 N76 1.355 . S
C77 C78 1.363 . S
C77 H89 0.929 . S
C78 C77 1.363 . S
C78 N80 1.375 . S
C78 H96 0.931 . S
C79 N76 1.311 . S
C79 N80 1.347 . S
C79 H90 0.929 . S
N80 C78 1.375 . S
N80 C79 1.347 . S
C81 C84 1.365 . S
C81 N86 1.328 . S
C81 H87 0.929 . S
C82 C83 1.362 . S
C82 C85 1.378 . S
C82 H97 0.929 . S
C83 C82 1.362 . S
C83 C84 1.366 . S
C84 C81 1.365 . S
C84 C83 1.366 . S
C84 H98 0.930 . S
C85 C82 1.378 . S
C85 N86 1.315 . S
C85 H88 0.930 . S
N86 Co66 2.194 . S
N86 C81 1.328 . S
N86 C85 1.315 . S
H87 C81 0.929 . S
H88 C85 0.930 . S
H89 C77 0.929 . S
H90 C79 0.929 . S
O91 Co66 2.351 . S
O91 C94 1.244 . S
O92 Co66 2.155 . S
O92 C94 1.240 . S
O93 Co66 2.096 . S
O93 C74 1.247 . S
C94 O91 1.244 . S
C94 O92 1.240 . S
H95 C69 0.931 . S
H96 C78 0.931 . S
H97 C82 0.929 . S
H98 C84 0.930 . S
Co99 N103 2.148 . S
Co99 N109 2.128 . S
Co99 N119 2.194 . S
Co99 O124 2.351 . S
Co99 O125 2.155 . S
Co99 O126 2.096 . S
C100 N103 1.301 . S
C100 N104 1.328 . S
C100 H105 0.930 . S
C101 C102 1.333 . S
C101 N103 1.317 . S
C101 H106 0.930 . S
C102 C101 1.333 . S
C102 N104 1.350 . S
C102 H128 0.931 . S
N103 Co99 2.148 . S
N103 C100 1.301 . S
N103 C101 1.317 . S
N104 C100 1.328 . S
N104 C102 1.350 . S
H105 C100 0.930 . S
H106 C101 0.930 . S
C107 O108 1.224 . S
C107 O126 1.247 . S
O108 C107 1.224 . S
N109 Co99 2.128 . S
N109 C110 1.355 . S
N109 C112 1.311 . S
C110 N109 1.355 . S
C110 C111 1.363 . S
C110 H122 0.929 . S
C111 C110 1.363 . S
C111 N113 1.375 . S
C111 H129 0.931 . S
C112 N109 1.311 . S
C112 N113 1.347 . S
C112 H123 0.929 . S
N113 C111 1.375 . S
N113 C112 1.347 . S
C114 C117 1.365 . S
C114 N119 1.328 . S
C114 H120 0.929 . S
C115 C116 1.362 . S
C115 C118 1.378 . S
C115 H130 0.929 . S
C116 C115 1.362 . S
C116 C117 1.366 . S
C117 C114 1.365 . S
C117 C116 1.366 . S
C117 H131 0.930 . S
C118 C115 1.378 . S
C118 N119 1.315 . S
C118 H121 0.930 . S
N119 Co99 2.194 . S
N119 C114 1.328 . S
N119 C118 1.315 . S
H120 C114 0.929 . S
H121 C118 0.930 . S
H122 C110 0.929 . S
H123 C112 0.929 . S
O124 Co99 2.351 . S
O124 C127 1.244 . S
O125 Co99 2.155 . S
O125 C127 1.240 . S
O126 Co99 2.096 . S
O126 C107 1.247 . S
C127 O124 1.244 . S
C127 O125 1.240 . S
H128 C102 0.931 . S
H129 C111 0.931 . S
H130 C115 0.929 . S
H131 C117 0.930 . S
Co132 N136 2.148 . S
Co132 N142 2.128 . S
Co132 N152 2.194 . S
Co132 O157 2.351 . S
Co132 O158 2.155 . S
Co132 O159 2.096 . S
C133 N136 1.301 . S
C133 N137 1.328 . S
C133 H138 0.930 . S
C134 C135 1.333 . S
C134 N136 1.317 . S
C134 H139 0.930 . S
C135 C134 1.333 . S
C135 N137 1.350 . S
C135 H161 0.931 . S
N136 Co132 2.148 . S
N136 C133 1.301 . S
N136 C134 1.317 . S
N137 C133 1.328 . S
N137 C135 1.350 . S
H138 C133 0.930 . S
H139 C134 0.930 . S
C140 O141 1.224 . S
C140 O159 1.247 . S
O141 C140 1.224 . S
N142 Co132 2.128 . S
N142 C143 1.355 . S
N142 C145 1.311 . S
C143 N142 1.355 . S
C143 C144 1.363 . S
C143 H155 0.929 . S
C144 C143 1.363 . S
C144 N146 1.375 . S
C144 H162 0.931 . S
C145 N142 1.311 . S
C145 N146 1.347 . S
C145 H156 0.929 . S
N146 C144 1.375 . S
N146 C145 1.347 . S
C147 C150 1.365 . S
C147 N152 1.328 . S
C147 H153 0.929 . S
C148 C149 1.362 . S
C148 C151 1.378 . S
C148 H163 0.929 . S
C149 C148 1.362 . S
C149 C150 1.366 . S
C150 C147 1.365 . S
C150 C149 1.366 . S
C150 H164 0.930 . S
C151 C148 1.378 . S
C151 N152 1.315 . S
C151 H154 0.930 . S
N152 Co132 2.194 . S
N152 C147 1.328 . S
N152 C151 1.315 . S
H153 C147 0.929 . S
H154 C151 0.930 . S
H155 C143 0.929 . S
H156 C145 0.929 . S
O157 Co132 2.351 . S
O157 C160 1.244 . S
O158 Co132 2.155 . S
O158 C160 1.240 . S
O159 Co132 2.096 . S
O159 C140 1.247 . S
C160 O157 1.244 . S
C160 O158 1.240 . S
H161 C135 0.931 . S
H162 C144 0.931 . S
H163 C148 0.929 . S
H164 C150 0.930 . S
Co165 N169 2.148 . S
Co165 N175 2.128 . S
Co165 N185 2.194 . S
Co165 O190 2.351 . S
Co165 O191 2.155 . S
Co165 O192 2.096 . S
C166 N169 1.301 . S
C166 N170 1.328 . S
C166 H171 0.930 . S
C167 C168 1.333 . S
C167 N169 1.317 . S
C167 H172 0.930 . S
C168 C167 1.333 . S
C168 N170 1.350 . S
C168 H194 0.931 . S
N169 Co165 2.148 . S
N169 C166 1.301 . S
N169 C167 1.317 . S
N170 C166 1.328 . S
N170 C168 1.350 . S
H171 C166 0.930 . S
H172 C167 0.930 . S
C173 O174 1.224 . S
C173 O192 1.247 . S
O174 C173 1.224 . S
N175 Co165 2.128 . S
N175 C176 1.355 . S
N175 C178 1.311 . S
C176 N175 1.355 . S
C176 C177 1.363 . S
C176 H188 0.929 . S
C177 C176 1.363 . S
C177 N179 1.375 . S
C177 H195 0.931 . S
C178 N175 1.311 . S
C178 N179 1.347 . S
C178 H189 0.929 . S
N179 C177 1.375 . S
N179 C178 1.347 . S
C180 C183 1.365 . S
C180 N185 1.328 . S
C180 H186 0.929 . S
C181 C182 1.362 . S
C181 C184 1.378 . S
C181 H196 0.929 . S
C182 C181 1.362 . S
C182 C183 1.366 . S
C183 C180 1.365 . S
C183 C182 1.366 . S
C183 H197 0.930 . S
C184 C181 1.378 . S
C184 N185 1.315 . S
C184 H187 0.930 . S
N185 Co165 2.194 . S
N185 C180 1.328 . S
N185 C184 1.315 . S
H186 C180 0.929 . S
H187 C184 0.930 . S
H188 C176 0.929 . S
H189 C178 0.929 . S
O190 Co165 2.351 . S
O190 C193 1.244 . S
O191 Co165 2.155 . S
O191 C193 1.240 . S
O192 Co165 2.096 . S
O192 C173 1.247 . S
C193 O190 1.244 . S
C193 O191 1.240 . S
H194 C168 0.931 . S
H195 C177 0.931 . S
H196 C181 0.929 . S
H197 C183 0.930 . S
Co198 N202 2.148 . S
Co198 N208 2.128 . S
Co198 N218 2.194 . S
Co198 O223 2.351 . S
Co198 O224 2.155 . S
Co198 O225 2.096 . S
C199 N202 1.301 . S
C199 N203 1.328 . S
C199 H204 0.930 . S
C200 C201 1.333 . S
C200 N202 1.317 . S
C200 H205 0.930 . S
C201 C200 1.333 . S
C201 N203 1.350 . S
C201 H227 0.931 . S
N202 Co198 2.148 . S
N202 C199 1.301 . S
N202 C200 1.317 . S
N203 C199 1.328 . S
N203 C201 1.350 . S
H204 C199 0.930 . S
H205 C200 0.930 . S
C206 O207 1.224 . S
C206 O225 1.247 . S
O207 C206 1.224 . S
N208 Co198 2.128 . S
N208 C209 1.355 . S
N208 C211 1.311 . S
C209 N208 1.355 . S
C209 C210 1.363 . S
C209 H221 0.929 . S
C210 C209 1.363 . S
C210 N212 1.375 . S
C210 H228 0.931 . S
C211 N208 1.311 . S
C211 N212 1.347 . S
C211 H222 0.929 . S
N212 C210 1.375 . S
N212 C211 1.347 . S
C213 C216 1.365 . S
C213 N218 1.328 . S
C213 H219 0.929 . S
C214 C215 1.362 . S
C214 C217 1.378 . S
C214 H229 0.929 . S
C215 C214 1.362 . S
C215 C216 1.366 . S
C216 C213 1.365 . S
C216 C215 1.366 . S
C216 H230 0.930 . S
C217 C214 1.378 . S
C217 N218 1.315 . S
C217 H220 0.930 . S
N218 Co198 2.194 . S
N218 C213 1.328 . S
N218 C217 1.315 . S
H219 C213 0.929 . S
H220 C217 0.930 . S
H221 C209 0.929 . S
H222 C211 0.929 . S
O223 Co198 2.351 . S
O223 C226 1.244 . S
O224 Co198 2.155 . S
O224 C226 1.240 . S
O225 Co198 2.096 . S
O225 C206 1.247 . S
C226 O223 1.244 . S
C226 O224 1.240 . S
H227 C201 0.931 . S
H228 C210 0.931 . S
H229 C214 0.929 . S
H230 C216 0.930 . S
Co231 N235 2.148 . S
Co231 N241 2.128 . S
Co231 N251 2.194 . S
Co231 O256 2.351 . S
Co231 O257 2.155 . S
Co231 O258 2.096 . S
C232 N235 1.301 . S
C232 N236 1.328 . S
C232 H237 0.930 . S
C233 C234 1.333 . S
C233 N235 1.317 . S
C233 H238 0.930 . S
C234 C233 1.333 . S
C234 N236 1.350 . S
C234 H260 0.931 . S
N235 Co231 2.148 . S
N235 C232 1.301 . S
N235 C233 1.317 . S
N236 C232 1.328 . S
N236 C234 1.350 . S
H237 C232 0.930 . S
H238 C233 0.930 . S
C239 O240 1.224 . S
C239 O258 1.247 . S
O240 C239 1.224 . S
N241 Co231 2.128 . S
N241 C242 1.355 . S
N241 C244 1.311 . S
C242 N241 1.355 . S
C242 C243 1.363 . S
C242 H254 0.929 . S
C243 C242 1.363 . S
C243 N245 1.375 . S
C243 H261 0.931 . S
C244 N241 1.311 . S
C244 N245 1.347 . S
C244 H255 0.929 . S
N245 C243 1.375 . S
N245 C244 1.347 . S
C246 C249 1.365 . S
C246 N251 1.328 . S
C246 H252 0.929 . S
C247 C248 1.362 . S
C247 C250 1.378 . S
C247 H262 0.929 . S
C248 C247 1.362 . S
C248 C249 1.366 . S
C249 C246 1.365 . S
C249 C248 1.366 . S
C249 H263 0.930 . S
C250 C247 1.378 . S
C250 N251 1.315 . S
C250 H253 0.930 . S
N251 Co231 2.194 . S
N251 C246 1.328 . S
N251 C250 1.315 . S
H252 C246 0.929 . S
H253 C250 0.930 . S
H254 C242 0.929 . S
H255 C244 0.929 . S
O256 Co231 2.351 . S
O256 C259 1.244 . S
O257 Co231 2.155 . S
O257 C259 1.240 . S
O258 Co231 2.096 . S
O258 C239 1.247 . S
C259 O256 1.244 . S
C259 O257 1.240 . S
H260 C234 0.931 . S
H261 C243 0.931 . S
H262 C247 0.929 . S
H263 C249 0.930 . S
Co264 N268 2.148 . S
Co264 N274 2.128 . S
Co264 N284 2.194 . S
Co264 O289 2.351 . S
Co264 O290 2.155 . S
Co264 O291 2.096 . S
C265 N268 1.301 . S
C265 N269 1.328 . S
C265 H270 0.930 . S
C266 C267 1.333 . S
C266 N268 1.317 . S
C266 H271 0.930 . S
C267 C266 1.333 . S
C267 N269 1.350 . S
C267 H293 0.931 . S
N268 Co264 2.148 . S
N268 C265 1.301 . S
N268 C266 1.317 . S
N269 C265 1.328 . S
N269 C267 1.350 . S
H270 C265 0.930 . S
H271 C266 0.930 . S
C272 O273 1.224 . S
C272 O291 1.247 . S
O273 C272 1.224 . S
N274 Co264 2.128 . S
N274 C275 1.355 . S
N274 C277 1.311 . S
C275 N274 1.355 . S
C275 C276 1.363 . S
C275 H287 0.929 . S
C276 C275 1.363 . S
C276 N278 1.375 . S
C276 H294 0.931 . S
C277 N274 1.311 . S
C277 N278 1.347 . S
C277 H288 0.929 . S
N278 C276 1.375 . S
N278 C277 1.347 . S
C279 C282 1.365 . S
C279 N284 1.328 . S
C279 H285 0.929 . S
C280 C281 1.362 . S
C280 C283 1.378 . S
C280 H295 0.929 . S
C281 C280 1.362 . S
C281 C282 1.366 . S
C282 C279 1.365 . S
C282 C281 1.366 . S
C282 H296 0.930 . S
C283 C280 1.378 . S
C283 N284 1.315 . S
C283 H286 0.930 . S
N284 Co264 2.194 . S
N284 C279 1.328 . S
N284 C283 1.315 . S
H285 C279 0.929 . S
H286 C283 0.930 . S
H287 C275 0.929 . S
H288 C277 0.929 . S
O289 Co264 2.351 . S
O289 C292 1.244 . S
O290 Co264 2.155 . S
O290 C292 1.240 . S
O291 Co264 2.096 . S
O291 C272 1.247 . S
C292 O289 1.244 . S
C292 O290 1.240 . S
H293 C267 0.931 . S
H294 C276 0.931 . S
H295 C280 0.929 . S
H296 C282 0.930 . S
Co297 N301 2.148 . S
Co297 N307 2.128 . S
Co297 N317 2.194 . S
Co297 O322 2.351 . S
Co297 O323 2.155 . S
Co297 O324 2.096 . S
C298 N301 1.301 . S
C298 N302 1.328 . S
C298 H303 0.930 . S
C299 C300 1.333 . S
C299 N301 1.317 . S
C299 H304 0.930 . S
C300 C299 1.333 . S
C300 N302 1.350 . S
C300 H326 0.931 . S
N301 Co297 2.148 . S
N301 C298 1.301 . S
N301 C299 1.317 . S
N302 C298 1.328 . S
N302 C300 1.350 . S
H303 C298 0.930 . S
H304 C299 0.930 . S
C305 O306 1.224 . S
C305 O324 1.247 . S
O306 C305 1.224 . S
N307 Co297 2.128 . S
N307 C308 1.355 . S
N307 C310 1.311 . S
C308 N307 1.355 . S
C308 C309 1.363 . S
C308 H320 0.929 . S
C309 C308 1.363 . S
C309 N311 1.375 . S
C309 H327 0.931 . S
C310 N307 1.311 . S
C310 N311 1.347 . S
C310 H321 0.929 . S
N311 C309 1.375 . S
N311 C310 1.347 . S
C312 C315 1.365 . S
C312 N317 1.328 . S
C312 H318 0.929 . S
C313 C314 1.362 . S
C313 C316 1.378 . S
C313 H328 0.929 . S
C314 C313 1.362 . S
C314 C315 1.366 . S
C315 C312 1.365 . S
C315 C314 1.366 . S
C315 H329 0.930 . S
C316 C313 1.378 . S
C316 N317 1.315 . S
C316 H319 0.930 . S
N317 Co297 2.194 . S
N317 C312 1.328 . S
N317 C316 1.315 . S
H318 C312 0.929 . S
H319 C316 0.930 . S
H320 C308 0.929 . S
H321 C310 0.929 . S
O322 Co297 2.351 . S
O322 C325 1.244 . S
O323 Co297 2.155 . S
O323 C325 1.240 . S
O324 Co297 2.096 . S
O324 C305 1.247 . S
C325 O322 1.244 . S
C325 O323 1.240 . S
H326 C300 0.931 . S
H327 C309 0.931 . S
H328 C313 0.929 . S
H329 C315 0.930 . S
Co330 N334 2.148 . S
Co330 N340 2.128 . S
Co330 N350 2.194 . S
Co330 O355 2.351 . S
Co330 O356 2.155 . S
Co330 O357 2.096 . S
C331 N334 1.301 . S
C331 N335 1.328 . S
C331 H336 0.930 . S
C332 C333 1.333 . S
C332 N334 1.317 . S
C332 H337 0.930 . S
C333 C332 1.333 . S
C333 N335 1.350 . S
C333 H359 0.931 . S
N334 Co330 2.148 . S
N334 C331 1.301 . S
N334 C332 1.317 . S
N335 C331 1.328 . S
N335 C333 1.350 . S
H336 C331 0.930 . S
H337 C332 0.930 . S
C338 O339 1.224 . S
C338 O357 1.247 . S
O339 C338 1.224 . S
N340 Co330 2.128 . S
N340 C341 1.355 . S
N340 C343 1.311 . S
C341 N340 1.355 . S
C341 C342 1.363 . S
C341 H353 0.929 . S
C342 C341 1.363 . S
C342 N344 1.375 . S
C342 H360 0.931 . S
C343 N340 1.311 . S
C343 N344 1.347 . S
C343 H354 0.929 . S
N344 C342 1.375 . S
N344 C343 1.347 . S
C345 C348 1.365 . S
C345 N350 1.328 . S
C345 H351 0.929 . S
C346 C347 1.362 . S
C346 C349 1.378 . S
C346 H361 0.929 . S
C347 C346 1.362 . S
C347 C348 1.366 . S
C348 C345 1.365 . S
C348 C347 1.366 . S
C348 H362 0.930 . S
C349 C346 1.378 . S
C349 N350 1.315 . S
C349 H352 0.930 . S
N350 Co330 2.194 . S
N350 C345 1.328 . S
N350 C349 1.315 . S
H351 C345 0.929 . S
H352 C349 0.930 . S
H353 C341 0.929 . S
H354 C343 0.929 . S
O355 Co330 2.351 . S
O355 C358 1.244 . S
O356 Co330 2.155 . S
O356 C358 1.240 . S
O357 Co330 2.096 . S
O357 C338 1.247 . S
C358 O355 1.244 . S
C358 O356 1.240 . S
H359 C333 0.931 . S
H360 C342 0.931 . S
H361 C346 0.929 . S
H362 C348 0.930 . S
Co363 N367 2.148 . S
Co363 N373 2.128 . S
Co363 N383 2.194 . S
Co363 O388 2.351 . S
Co363 O389 2.155 . S
Co363 O390 2.096 . S
C364 N367 1.301 . S
C364 N368 1.328 . S
C364 H369 0.930 . S
C365 C366 1.333 . S
C365 N367 1.317 . S
C365 H370 0.930 . S
C366 C365 1.333 . S
C366 N368 1.350 . S
C366 H392 0.931 . S
N367 Co363 2.148 . S
N367 C364 1.301 . S
N367 C365 1.317 . S
N368 C364 1.328 . S
N368 C366 1.350 . S
H369 C364 0.930 . S
H370 C365 0.930 . S
C371 O372 1.224 . S
C371 O390 1.247 . S
O372 C371 1.224 . S
N373 Co363 2.128 . S
N373 C374 1.355 . S
N373 C376 1.311 . S
C374 N373 1.355 . S
C374 C375 1.363 . S
C374 H386 0.929 . S
C375 C374 1.363 . S
C375 N377 1.375 . S
C375 H393 0.931 . S
C376 N373 1.311 . S
C376 N377 1.347 . S
C376 H387 0.929 . S
N377 C375 1.375 . S
N377 C376 1.347 . S
C378 C381 1.365 . S
C378 N383 1.328 . S
C378 H384 0.929 . S
C379 C380 1.362 . S
C379 C382 1.378 . S
C379 H394 0.929 . S
C380 C379 1.362 . S
C380 C381 1.366 . S
C381 C378 1.365 . S
C381 C380 1.366 . S
C381 H395 0.930 . S
C382 C379 1.378 . S
C382 N383 1.315 . S
C382 H385 0.930 . S
N383 Co363 2.194 . S
N383 C378 1.328 . S
N383 C382 1.315 . S
H384 C378 0.929 . S
H385 C382 0.930 . S
H386 C374 0.929 . S
H387 C376 0.929 . S
O388 Co363 2.351 . S
O388 C391 1.244 . S
O389 Co363 2.155 . S
O389 C391 1.240 . S
O390 Co363 2.096 . S
O390 C371 1.247 . S
C391 O388 1.244 . S
C391 O389 1.240 . S
H392 C366 0.931 . S
H393 C375 0.931 . S
H394 C379 0.929 . S
H395 C381 0.930 . S
C396 C397 1.391 . S
C396 C398 1.394 . S
C396 H412 0.931 . S
C397 C396 1.391 . S
C397 C401 1.376 . S
C398 C396 1.394 . S
C398 C399 1.369 . S
C398 C402 1.531 1_554 S
C399 C398 1.369 . S
C399 C400 1.410 . S
C399 C407 1.503 1_544 S
C400 C399 1.410 . S
C400 C401 1.392 . S
C400 C403 1.511 1_545 S
C401 C397 1.376 . S
C401 C400 1.392 . S
C401 H413 0.929 . S
C402 C398 1.531 1_556 S
C402 H414 0.960 . S
C402 H415 0.962 . S
C402 H416 0.960 . S
C403 C400 1.511 1_565 S
C403 H417 0.961 . S
C403 H418 0.961 . S
C403 H419 0.961 . S
C404 C405 1.370 . S
C404 C406 1.363 . S
C404 H420 0.931 . S
C405 C404 1.370 . S
C405 C409 1.408 . S
C406 C404 1.363 . S
C406 C407 1.370 . S
C406 C410 1.524 1_556 S
C407 C399 1.503 1_566 S
C407 C406 1.370 . S
C407 C408 1.403 1_565 S
C408 C407 1.403 1_545 S
C408 C409 1.404 1_545 S
C408 C411 1.539 . S
C409 C405 1.408 . S
C409 C408 1.404 1_565 S
C409 H421 0.930 . S
C410 C406 1.524 1_554 S
C410 H422 0.956 . S
C410 H423 0.961 . S
C410 H424 0.961 . S
C411 C408 1.539 . S
C411 H425 0.958 . S
C411 H426 0.961 . S
C411 H427 0.960 . S
H412 C396 0.931 . S
H413 C401 0.929 . S
H414 C402 0.960 . S
H415 C402 0.962 . S
H416 C402 0.960 . S
H417 C403 0.961 . S
H418 C403 0.961 . S
H419 C403 0.961 . S
H420 C404 0.931 . S
H421 C409 0.930 . S
H422 C410 0.956 . S
H423 C410 0.961 . S
H424 C410 0.961 . S
H425 C411 0.958 . S
H426 C411 0.961 . S
H427 C411 0.960 . S
C428 C429 1.391 . S
C428 C430 1.394 . S
C428 H444 0.931 . S
C429 C428 1.391 . S
C429 C433 1.376 . S
C430 C428 1.394 . S
C430 C431 1.369 . S
C430 C434 1.531 . S
C431 C430 1.369 . S
C431 C432 1.410 . S
C431 C439 1.503 . S
C432 C431 1.410 . S
C432 C433 1.392 . S
C432 C435 1.511 . S
C433 C429 1.376 . S
C433 C432 1.392 . S
C433 H445 0.929 . S
C434 C430 1.531 . S
C434 H446 0.960 . S
C434 H447 0.962 . S
C434 H448 0.960 . S
C435 C432 1.511 . S
C435 H449 0.961 . S
C435 H450 0.961 . S
C435 H451 0.961 . S
C436 C437 1.370 . S
C436 C438 1.363 . S
C436 H452 0.931 . S
C437 C436 1.370 . S
C437 C441 1.408 . S
C438 C436 1.363 . S
C438 C439 1.370 . S
C438 C442 1.524 . S
C439 C431 1.503 . S
C439 C438 1.370 . S
C439 C440 1.403 . S
C440 C439 1.403 . S
C440 C441 1.404 . S
C440 C443 1.539 . S
C441 C437 1.408 . S
C441 C440 1.404 . S
C441 H453 0.930 . S
C442 C438 1.524 . S
C442 H454 0.956 . S
C442 H455 0.961 . S
C442 H456 0.961 . S
C443 C440 1.539 . S
C443 H457 0.958 . S
C443 H458 0.961 . S
C443 H459 0.960 . S
H444 C428 0.931 . S
H445 C433 0.929 . S
H446 C434 0.960 . S
H447 C434 0.962 . S
H448 C434 0.960 . S
H449 C435 0.961 . S
H450 C435 0.961 . S
H451 C435 0.961 . S
H452 C436 0.931 . S
H453 C441 0.930 . S
H454 C442 0.956 . S
H455 C442 0.961 . S
H456 C442 0.961 . S
H457 C443 0.958 . S
H458 C443 0.961 . S
H459 C443 0.960 . S
C460 C461 1.391 . S
C460 C462 1.394 . S
C460 H476 0.931 . S
C461 C460 1.391 . S
C461 C465 1.376 . S
C462 C460 1.394 . S
C462 C463 1.369 . S
C462 C466 1.531 . S
C463 C462 1.369 . S
C463 C464 1.410 1_655 S
C463 C471 1.503 1_655 S
C464 C463 1.410 1_455 S
C464 C465 1.392 1_455 S
C464 C467 1.511 . S
C465 C461 1.376 . S
C465 C464 1.392 1_655 S
C465 H477 0.929 . S
C466 C462 1.531 . S
C466 H478 0.960 . S
C466 H479 0.962 . S
C466 H480 0.960 . S
C467 C464 1.511 . S
C467 H481 0.961 . S
C467 H482 0.961 . S
C467 H483 0.961 . S
C468 C469 1.370 . S
C468 C470 1.363 . S
C468 H484 0.931 . S
C469 C468 1.370 . S
C469 C473 1.408 . S
C470 C468 1.363 . S
C470 C471 1.370 . S
C470 C474 1.524 1_455 S
C471 C463 1.503 1_455 S
C471 C470 1.370 . S
C471 C472 1.403 . S
C472 C471 1.403 . S
C472 C473 1.404 . S
C472 C475 1.539 . S
C473 C469 1.408 . S
C473 C472 1.404 . S
C473 H485 0.930 . S
C474 C470 1.524 1_655 S
C474 H486 0.956 . S
C474 H487 0.961 . S
C474 H488 0.961 . S
C475 C472 1.539 . S
C475 H489 0.958 . S
C475 H490 0.961 . S
C475 H491 0.960 . S
H476 C460 0.931 . S
H477 C465 0.929 . S
H478 C466 0.960 . S
H479 C466 0.962 . S
H480 C466 0.960 . S
H481 C467 0.961 . S
H482 C467 0.961 . S
H483 C467 0.961 . S
H484 C468 0.931 . S
H485 C473 0.930 . S
H486 C474 0.956 . S
H487 C474 0.961 . S
H488 C474 0.961 . S
H489 C475 0.958 . S
H490 C475 0.961 . S
H491 C475 0.960 . S
C492 C493 1.391 . S
C492 C494 1.394 . S
C492 H508 0.931 . S
C493 C492 1.391 . S
C493 C497 1.376 . S
C494 C492 1.394 . S
C494 C495 1.369 . S
C494 C498 1.531 1_545 S
C495 C494 1.369 . S
C495 C496 1.410 . S
C495 C503 1.503 1_546 S
C496 C495 1.410 . S
C496 C497 1.392 . S
C496 C499 1.498 1_556 S
C497 C493 1.376 . S
C497 C496 1.392 . S
C497 H509 0.929 . S
C498 C494 1.531 1_565 S
C498 H510 0.906 1_556 S
C498 H511 0.962 . S
C498 H512 0.960 1_565 S
C499 C496 1.498 1_554 S
C499 H513 0.948 1_554 S
C499 H514 0.974 . S
C499 H515 0.975 . S
C500 C501 1.370 . S
C500 C502 1.363 . S
C500 H516 0.931 . S
C501 C500 1.370 . S
C501 C505 1.408 . S
C502 C500 1.363 . S
C502 C503 1.370 . S
C502 C506 1.524 1_554 S
C503 C495 1.503 1_564 S
C503 C502 1.370 . S
C503 C504 1.403 1_565 S
C504 C503 1.403 1_545 S
C504 C505 1.404 1_545 S
C504 C507 1.539 . S
C505 C501 1.408 . S
C505 C504 1.404 1_565 S
C505 H517 0.930 . S
C506 C502 1.524 1_556 S
C506 H518 0.956 . S
C506 H519 0.961 . S
C506 H520 0.961 . S
C507 C504 1.539 . S
C507 H521 0.958 . S
C507 H522 0.961 . S
C507 H523 0.960 . S
H508 C492 0.931 . S
H509 C497 0.929 . S
H510 C498 0.906 1_554 S
H511 C498 0.962 . S
H512 C498 0.960 1_545 S
H513 C499 0.948 1_556 S
H514 C499 0.974 . S
H515 C499 0.975 . S
H516 C500 0.931 . S
H517 C505 0.930 . S
H518 C506 0.956 . S
H519 C506 0.961 . S
H520 C506 0.961 . S
H521 C507 0.958 . S
H522 C507 0.961 . S
H523 C507 0.960 . S
C524 C525 1.391 . S
C524 C526 1.394 . S
C524 H540 0.931 . S
C525 C524 1.391 . S
C525 C529 1.376 . S
C526 C524 1.394 . S
C526 C527 1.369 . S
C526 C530 1.531 . S
C527 C526 1.369 . S
C527 C528 1.410 . S
C527 C535 1.503 . S
C528 C527 1.410 . S
C528 C529 1.392 . S
C528 C531 1.511 . S
C529 C525 1.376 . S
C529 C528 1.392 . S
C529 H541 0.929 . S
C530 C526 1.531 . S
C530 H542 0.960 . S
C530 H543 0.962 . S
C530 H544 0.960 . S
C531 C528 1.511 . S
C531 H545 0.961 . S
C531 H546 0.961 . S
C531 H547 0.961 . S
C532 C533 1.370 . S
C532 C534 1.363 . S
C532 H548 0.931 . S
C533 C532 1.370 . S
C533 C537 1.408 . S
C534 C532 1.363 . S
C534 C535 1.370 . S
C534 C538 1.524 . S
C535 C527 1.503 . S
C535 C534 1.370 . S
C535 C536 1.403 . S
C536 C535 1.403 . S
C536 C537 1.404 . S
C536 C539 1.539 . S
C537 C533 1.408 . S
C537 C536 1.404 . S
C537 H549 0.930 . S
C538 C534 1.524 . S
C538 H550 0.956 . S
C538 H551 0.961 . S
C538 H552 0.961 . S
C539 C536 1.539 . S
C539 H553 0.958 . S
C539 H554 0.961 . S
C539 H555 0.960 . S
H540 C524 0.931 . S
H541 C529 0.929 . S
H542 C530 0.960 . S
H543 C530 0.962 . S
H544 C530 0.960 . S
H545 C531 0.961 . S
H546 C531 0.961 . S
H547 C531 0.961 . S
H548 C532 0.931 . S
H549 C537 0.930 . S
H550 C538 0.956 . S
H551 C538 0.961 . S
H552 C538 0.961 . S
H553 C539 0.958 . S
H554 C539 0.961 . S
H555 C539 0.960 . S
C556 C557 1.391 . S
C556 C558 1.394 1_455 S
C556 H572 0.931 . S
C557 C556 1.391 . S
C557 C561 1.376 . S
C558 C556 1.394 1_655 S
C558 C559 1.369 1_655 S
C558 C562 1.531 . S
C559 C558 1.369 1_455 S
C559 C560 1.410 . S
C559 C567 1.503 1_455 S
C560 C559 1.410 . S
C560 C561 1.392 . S
C560 C563 1.511 . S
C561 C557 1.376 . S
C561 C560 1.392 . S
C561 H573 0.929 . S
C562 C558 1.531 . S
C562 H574 0.960 . S
C562 H575 0.962 . S
C562 H576 0.960 . S
C563 C560 1.511 . S
C563 H577 0.961 . S
C563 H578 0.961 . S
C563 H579 0.961 . S
C564 C565 1.370 . S
C564 C566 1.363 . S
C564 H580 0.931 . S
C565 C564 1.370 . S
C565 C569 1.408 . S
C566 C564 1.363 . S
C566 C567 1.370 . S
C566 C570 1.524 . S
C567 C559 1.503 1_655 S
C567 C566 1.370 . S
C567 C568 1.403 . S
C568 C567 1.403 . S
C568 C569 1.404 . S
C568 C571 1.539 1_655 S
C569 C565 1.408 . S
C569 C568 1.404 . S
C569 H581 0.930 . S
C570 C566 1.524 . S
C570 H582 0.956 . S
C570 H583 0.961 . S
C570 H584 0.961 . S
C571 C568 1.539 1_455 S
C571 H585 0.958 1_455 S
C571 H586 0.961 . S
C571 H587 0.960 . S
H572 C556 0.931 . S
H573 C561 0.929 . S
H574 C562 0.960 . S
H575 C562 0.962 . S
H576 C562 0.960 . S
H577 C563 0.961 . S
H578 C563 0.961 . S
H579 C563 0.961 . S
H580 C564 0.931 . S
H581 C569 0.930 . S
H582 C570 0.956 . S
H583 C570 0.961 . S
H584 C570 0.961 . S
H585 C571 0.958 1_655 S
H586 C571 0.961 . S
H587 C571 0.960 . S
C588 C589 1.391 . S
C588 C590 1.394 . S
C588 H604 0.931 . S
C589 C588 1.391 . S
C589 C593 1.376 1_565 S
C590 C588 1.394 . S
C590 C591 1.369 . S
C590 C594 1.531 . S
C591 C590 1.369 . S
C591 C592 1.410 1_565 S
C591 C599 1.503 1_565 S
C592 C591 1.410 1_545 S
C592 C593 1.392 . S
C592 C595 1.511 . S
C593 C589 1.376 1_545 S
C593 C592 1.392 . S
C593 H605 0.929 . S
C594 C590 1.531 . S
C594 H606 0.960 . S
C594 H607 0.962 . S
C594 H608 0.960 . S
C595 C592 1.511 . S
C595 H609 0.961 . S
C595 H610 0.961 . S
C595 H611 0.961 . S
C596 C597 1.370 . S
C596 C598 1.363 . S
C596 H612 0.931 . S
C597 C596 1.370 . S
C597 C601 1.408 . S
C598 C596 1.363 . S
C598 C599 1.370 . S
C598 C602 1.524 1_545 S
C599 C591 1.503 1_545 S
C599 C598 1.370 . S
C599 C600 1.403 . S
C600 C599 1.403 . S
C600 C601 1.404 . S
C600 C603 1.539 . S
C601 C597 1.408 . S
C601 C600 1.404 . S
C601 H613 0.930 . S
C602 C598 1.524 1_565 S
C602 H614 0.956 . S
C602 H615 0.961 1_565 S
C602 H616 0.961 . S
C603 C600 1.539 . S
C603 H617 0.958 . S
C603 H618 0.961 . S
C603 H619 0.960 . S
H604 C588 0.931 . S
H605 C593 0.929 . S
H606 C594 0.960 . S
H607 C594 0.962 . S
H608 C594 0.960 . S
H609 C595 0.961 . S
H610 C595 0.961 . S
H611 C595 0.961 . S
H612 C596 0.931 . S
H613 C601 0.930 . S
H614 C602 0.956 . S
H615 C602 0.961 1_545 S
H616 C602 0.961 . S
H617 C603 0.958 . S
H618 C603 0.961 . S
H619 C603 0.960 . S
C620 C621 1.391 . S
C620 C622 1.394 . S
C620 H636 0.931 . S
C621 C620 1.391 . S
C621 C625 1.376 . S
C622 C620 1.394 . S
C622 C623 1.369 . S
C622 C626 1.531 . S
C623 C622 1.369 . S
C623 C624 1.410 . S
C623 C631 1.503 . S
C624 C623 1.410 . S
C624 C625 1.392 . S
C624 C627 1.511 . S
C625 C621 1.376 . S
C625 C624 1.392 . S
C625 H637 0.929 . S
C626 C622 1.531 . S
C626 H638 0.960 . S
C626 H639 0.962 . S
C626 H640 0.960 . S
C627 C624 1.511 . S
C627 H641 0.961 . S
C627 H642 0.961 . S
C627 H643 0.961 . S
C628 C629 1.370 . S
C628 C630 1.363 . S
C628 H644 0.931 . S
C629 C628 1.370 . S
C629 C633 1.408 . S
C630 C628 1.363 . S
C630 C631 1.370 . S
C630 C634 1.524 . S
C631 C623 1.503 . S
C631 C630 1.370 . S
C631 C632 1.403 . S
C632 C631 1.403 . S
C632 C633 1.404 . S
C632 C635 1.539 . S
C633 C629 1.408 . S
C633 C632 1.404 . S
C633 H645 0.930 . S
C634 C630 1.524 . S
C634 H646 0.956 . S
C634 H647 0.961 . S
C634 H648 0.961 . S
C635 C632 1.539 . S
C635 H649 0.958 . S
C635 H650 0.961 . S
C635 H651 0.960 . S
H636 C620 0.931 . S
H637 C625 0.929 . S
H638 C626 0.960 . S
H639 C626 0.962 . S
H640 C626 0.960 . S
H641 C627 0.961 . S
H642 C627 0.961 . S
H643 C627 0.961 . S
H644 C628 0.931 . S
H645 C633 0.930 . S
H646 C634 0.956 . S
H647 C634 0.961 . S
H648 C634 0.961 . S
H649 C635 0.958 . S
H650 C635 0.961 . S
H651 C635 0.960 . S
C652 C653 1.391 1_655 S
C652 C654 1.394 . S
C652 H668 0.931 . S
C653 C652 1.391 1_455 S
C653 C657 1.376 . S
C654 C652 1.394 . S
C654 C655 1.369 1_655 S
C654 C658 1.531 . S
C655 C654 1.369 1_455 S
C655 C656 1.410 . S
C655 C663 1.503 1_455 S
C656 C655 1.410 . S
C656 C657 1.392 . S
C656 C659 1.511 . S
C657 C653 1.376 . S
C657 C656 1.392 . S
C657 H669 0.929 . S
C658 C654 1.531 . S
C658 H670 0.960 . S
C658 H671 0.962 . S
C658 H672 0.960 . S
C659 C656 1.511 . S
C659 H673 0.961 . S
C659 H674 0.961 . S
C659 H675 0.961 . S
C660 C661 1.370 . S
C660 C662 1.363 . S
C660 H676 0.931 . S
C661 C660 1.370 . S
C661 C665 1.408 . S
C662 C660 1.363 . S
C662 C663 1.370 . S
C662 C666 1.524 . S
C663 C655 1.503 1_655 S
C663 C662 1.370 . S
C663 C664 1.403 . S
C664 C663 1.403 . S
C664 C665 1.404 . S
C664 C667 1.539 1_655 S
C665 C661 1.408 . S
C665 C664 1.404 . S
C665 H677 0.930 . S
C666 C662 1.524 . S
C666 H678 0.956 . S
C666 H679 0.961 1_655 S
C666 H680 0.961 . S
C667 C664 1.539 1_455 S
C667 H681 0.958 1_455 S
C667 H682 0.961 . S
C667 H683 0.960 . S
H668 C652 0.931 . S
H669 C657 0.929 . S
H670 C658 0.960 . S
H671 C658 0.962 . S
H672 C658 0.960 . S
H673 C659 0.961 . S
H674 C659 0.961 . S
H675 C659 0.961 . S
H676 C660 0.931 . S
H677 C665 0.930 . S
H678 C666 0.956 . S
H679 C666 0.961 1_455 S
H680 C666 0.961 . S
H681 C667 0.958 1_655 S
H682 C667 0.961 . S
H683 C667 0.960 . S
C684 C685 1.391 . S
C684 C686 1.394 . S
C684 H700 0.931 . S
C685 C684 1.391 . S
C685 C689 1.376 . S
C686 C684 1.394 . S
C686 C687 1.369 . S
C686 C690 1.531 . S
C687 C686 1.369 . S
C687 C688 1.410 1_455 S
C687 C695 1.503 1_455 S
C688 C687 1.410 1_655 S
C688 C689 1.392 1_655 S
C688 C691 1.511 . S
C689 C685 1.376 . S
C689 C688 1.392 1_455 S
C689 H701 0.929 1_455 S
C690 C686 1.531 . S
C690 H702 0.960 . S
C690 H703 0.962 . S
C690 H704 0.960 . S
C691 C688 1.511 . S
C691 H705 0.961 . S
C691 H706 0.961 . S
C691 H707 0.961 . S
C692 C693 1.370 . S
C692 C694 1.363 . S
C692 H708 0.931 . S
C693 C692 1.370 . S
C693 C697 1.408 . S
C694 C692 1.363 . S
C694 C695 1.370 . S
C694 C698 1.524 . S
C695 C687 1.503 1_655 S
C695 C694 1.370 . S
C695 C696 1.403 1_655 S
C696 C695 1.403 1_455 S
C696 C697 1.404 1_455 S
C696 C699 1.539 . S
C697 C693 1.408 . S
C697 C696 1.404 1_655 S
C697 H709 0.930 . S
C698 C694 1.524 . S
C698 H710 0.956 . S
C698 H711 0.961 . S
C698 H712 0.961 . S
C699 C696 1.539 . S
C699 H713 0.958 . S
C699 H714 0.961 . S
C699 H715 0.960 . S
H700 C684 0.931 . S
H701 C689 0.929 1_655 S
H702 C690 0.960 . S
H703 C690 0.962 . S
H704 C690 0.960 . S
H705 C691 0.961 . S
H706 C691 0.961 . S
H707 C691 0.961 . S
H708 C692 0.931 . S
H709 C697 0.930 . S
H710 C698 0.956 . S
H711 C698 0.961 . S
H712 C698 0.961 . S
H713 C699 0.958 . S
H714 C699 0.961 . S
H715 C699 0.960 . S
C716 C717 1.391 1_565 S
C716 C718 1.394 . S
C716 H732 0.931 . S
C717 C716 1.391 1_545 S
C717 C721 1.376 . S
C718 C716 1.394 . S
C718 C719 1.369 1_565 S
C718 C722 1.531 . S
C719 C718 1.369 1_545 S
C719 C720 1.410 . S
C719 C727 1.503 1_545 S
C720 C719 1.410 . S
C720 C721 1.392 . S
C720 C723 1.511 . S
C721 C717 1.376 . S
C721 C720 1.392 . S
C721 H733 0.929 . S
C722 C718 1.531 . S
C722 H734 0.960 . S
C722 H735 0.962 . S
C722 H736 0.960 . S
C723 C720 1.511 . S
C723 H737 0.961 . S
C723 H738 0.961 . S
C723 H739 0.961 . S
C724 C725 1.370 . S
C724 C726 1.363 . S
C724 H740 0.931 . S
C725 C724 1.370 . S
C725 C729 1.408 . S
C726 C724 1.363 . S
C726 C727 1.370 . S
C726 C730 1.524 . S
C727 C719 1.503 1_565 S
C727 C726 1.370 . S
C727 C728 1.403 . S
C728 C727 1.403 . S
C728 C729 1.404 . S
C728 C731 1.539 1_565 S
C729 C725 1.408 . S
C729 C728 1.404 . S
C729 H741 0.930 . S
C730 C726 1.524 . S
C730 H742 0.956 . S
C730 H743 0.961 1_565 S
C730 H744 0.961 . S
C731 C728 1.539 1_545 S
C731 H745 0.958 1_545 S
C731 H746 0.961 . S
C731 H747 0.960 . S
H732 C716 0.931 . S
H733 C721 0.929 . S
H734 C722 0.960 . S
H735 C722 0.962 . S
H736 C722 0.960 . S
H737 C723 0.961 . S
H738 C723 0.961 . S
H739 C723 0.961 . S
H740 C724 0.931 . S
H741 C729 0.930 . S
H742 C730 0.956 . S
H743 C730 0.961 1_545 S
H744 C730 0.961 . S
H745 C731 0.958 1_565 S
H746 C731 0.961 . S
H747 C731 0.960 . S
C748 C749 1.391 . S
C748 C750 1.394 . S
C748 H764 0.931 . S
C749 C748 1.391 . S
C749 C753 1.376 . S
C750 C748 1.394 . S
C750 C751 1.369 . S
C750 C754 1.531 . S
C751 C750 1.369 . S
C751 C752 1.410 . S
C751 C759 1.503 . S
C752 C751 1.410 . S
C752 C753 1.392 . S
C752 C755 1.511 . S
C753 C749 1.376 . S
C753 C752 1.392 . S
C753 H765 0.929 . S
C754 C750 1.531 . S
C754 H766 0.960 . S
C754 H767 0.962 . S
C754 H768 0.960 . S
C755 C752 1.511 . S
C755 H769 0.961 . S
C755 H770 0.961 . S
C755 H771 0.961 . S
C756 C757 1.370 . S
C756 C758 1.363 . S
C756 H772 0.931 . S
C757 C756 1.370 . S
C757 C761 1.408 . S
C758 C756 1.363 . S
C758 C759 1.370 . S
C758 C762 1.524 . S
C759 C751 1.503 . S
C759 C758 1.370 . S
C759 C760 1.403 . S
C760 C759 1.403 . S
C760 C761 1.404 . S
C760 C763 1.539 . S
C761 C757 1.408 . S
C761 C760 1.404 . S
C761 H773 0.930 . S
C762 C758 1.524 . S
C762 H774 0.956 . S
C762 H775 0.961 . S
C762 H776 0.961 . S
C763 C760 1.539 . S
C763 H777 0.958 . S
C763 H778 0.961 . S
C763 H779 0.960 . S
H764 C748 0.931 . S
H765 C753 0.929 . S
H766 C754 0.960 . S
H767 C754 0.962 . S
H768 C754 0.960 . S
H769 C755 0.961 . S
H770 C755 0.961 . S
H771 C755 0.961 . S
H772 C756 0.931 . S
H773 C761 0.930 . S
H774 C762 0.956 . S
H775 C762 0.961 . S
H776 C762 0.961 . S
H777 C763 0.958 . S
H778 C763 0.961 . S
H779 C763 0.960 . S
C780 C781 1.391 . S
C780 C782 1.394 . S
C780 H796 0.931 . S
C781 C780 1.391 . S
C781 C785 1.376 . S
C782 C780 1.394 . S
C782 C783 1.369 . S
C782 C786 1.531 . S
C783 C782 1.369 . S
C783 C784 1.410 . S
C783 C791 1.503 . S
C784 C783 1.410 . S
C784 C785 1.392 . S
C784 C787 1.511 . S
C785 C781 1.376 . S
C785 C784 1.392 . S
C785 H797 0.929 . S
C786 C782 1.531 . S
C786 H798 0.960 . S
C786 H799 0.962 . S
C786 H800 0.960 . S
C787 C784 1.511 . S
C787 H801 0.961 . S
C787 H802 0.961 . S
C787 H803 0.961 . S
C788 C789 1.370 . S
C788 C790 1.363 . S
C788 H804 0.931 . S
C789 C788 1.370 . S
C789 C793 1.408 . S
C790 C788 1.363 . S
C790 C791 1.370 . S
C790 C794 1.524 . S
C791 C783 1.503 . S
C791 C790 1.370 . S
C791 C792 1.403 . S
C792 C791 1.403 . S
C792 C793 1.404 . S
C792 C795 1.539 . S
C793 C789 1.408 . S
C793 C792 1.404 . S
C793 H805 0.930 . S
C794 C790 1.524 . S
C794 H806 0.956 . S
C794 H807 0.961 . S
C794 H808 0.961 . S
C795 C792 1.539 . S
C795 H809 0.958 . S
C795 H810 0.961 . S
C795 H811 0.960 . S
H796 C780 0.931 . S
H797 C785 0.929 . S
H798 C786 0.960 . S
H799 C786 0.962 . S
H800 C786 0.960 . S
H801 C787 0.961 . S
H802 C787 0.961 . S
H803 C787 0.961 . S
H804 C788 0.931 . S
H805 C793 0.930 . S
H806 C794 0.956 . S
H807 C794 0.961 . S
H808 C794 0.961 . S
H809 C795 0.958 . S
H810 C795 0.961 . S
H811 C795 0.960 . S
C812 C813 1.391 . S
C812 C814 1.394 . S
C812 H828 0.931 . S
C813 C812 1.391 . S
C813 C817 1.376 . S
C814 C812 1.394 . S
C814 C815 1.369 . S
C814 C818 1.531 . S
C815 C814 1.369 . S
C815 C816 1.410 . S
C815 C823 1.503 . S
C816 C815 1.410 . S
C816 C817 1.392 . S
C816 C819 1.511 . S
C817 C813 1.376 . S
C817 C816 1.392 . S
C817 H829 0.929 . S
C818 C814 1.531 . S
C818 H830 0.960 . S
C818 H831 0.962 . S
C818 H832 0.960 . S
C819 C816 1.511 . S
C819 H833 0.961 . S
C819 H834 0.961 . S
C819 H835 0.961 . S
C820 C821 1.370 . S
C820 C822 1.363 . S
C820 H836 0.931 . S
C821 C820 1.370 . S
C821 C825 1.408 . S
C822 C820 1.363 . S
C822 C823 1.370 . S
C822 C826 1.524 . S
C823 C815 1.503 . S
C823 C822 1.370 . S
C823 C824 1.403 . S
C824 C823 1.403 . S
C824 C825 1.404 . S
C824 C827 1.539 . S
C825 C821 1.408 . S
C825 C824 1.404 . S
C825 H837 0.930 . S
C826 C822 1.524 . S
C826 H838 0.956 . S
C826 H839 0.961 . S
C826 H840 0.961 . S
C827 C824 1.539 . S
C827 H841 0.958 . S
C827 H842 0.961 . S
C827 H843 0.960 . S
H828 C812 0.931 . S
H829 C817 0.929 . S
H830 C818 0.960 . S
H831 C818 0.962 . S
H832 C818 0.960 . S
H833 C819 0.961 . S
H834 C819 0.961 . S
H835 C819 0.961 . S
H836 C820 0.931 . S
H837 C825 0.930 . S
H838 C826 0.956 . S
H839 C826 0.961 . S
H840 C826 0.961 . S
H841 C827 0.958 . S
H842 C827 0.961 . S
H843 C827 0.960 . S
C844 C845 1.391 . S
C844 C846 1.394 . S
C844 H860 0.931 . S
C845 C844 1.391 . S
C845 C849 1.376 . S
C846 C844 1.394 . S
C846 C847 1.369 . S
C846 C850 1.531 . S
C847 C846 1.369 . S
C847 C848 1.410 . S
C847 C855 1.503 . S
C848 C847 1.410 . S
C848 C849 1.392 . S
C848 C851 1.511 . S
C849 C845 1.376 . S
C849 C848 1.392 . S
C849 H861 0.929 . S
C850 C846 1.531 . S
C850 H862 0.960 . S
C850 H863 0.962 . S
C850 H864 0.960 . S
C851 C848 1.511 . S
C851 H865 0.961 . S
C851 H866 0.961 . S
C851 H867 0.961 . S
C852 C853 1.370 . S
C852 C854 1.363 . S
C852 H868 0.931 . S
C853 C852 1.370 . S
C853 C857 1.408 . S
C854 C852 1.363 . S
C854 C855 1.370 . S
C854 C858 1.524 . S
C855 C847 1.503 . S
C855 C854 1.370 . S
C855 C856 1.403 . S
C856 C855 1.403 . S
C856 C857 1.404 . S
C856 C859 1.539 . S
C857 C853 1.408 . S
C857 C856 1.404 . S
C857 H869 0.930 . S
C858 C854 1.524 . S
C858 H870 0.956 . S
C858 H871 0.961 . S
C858 H872 0.961 . S
C859 C856 1.539 . S
C859 H873 0.958 . S
C859 H874 0.961 . S
C859 H875 0.960 . S
H860 C844 0.931 . S
H861 C849 0.929 . S
H862 C850 0.960 . S
H863 C850 0.962 . S
H864 C850 0.960 . S
H865 C851 0.961 . S
H866 C851 0.961 . S
H867 C851 0.961 . S
H868 C852 0.931 . S
H869 C857 0.930 . S
H870 C858 0.956 . S
H871 C858 0.961 . S
H872 C858 0.961 . S
H873 C859 0.958 . S
H874 C859 0.961 . S
H875 C859 0.960 . S
C876 C877 1.391 . S
C876 C878 1.394 . S
C876 H892 0.931 . S
C877 C876 1.391 . S
C877 C881 1.376 . S
C878 C876 1.394 . S
C878 C879 1.369 . S
C878 C882 1.531 . S
C879 C878 1.369 . S
C879 C880 1.410 . S
C879 C887 1.503 . S
C880 C879 1.410 . S
C880 C881 1.392 . S
C880 C883 1.511 . S
C881 C877 1.376 . S
C881 C880 1.392 . S
C881 H893 0.929 . S
C882 C878 1.531 . S
C882 H894 0.960 . S
C882 H895 0.962 . S
C882 H896 0.960 . S
C883 C880 1.511 . S
C883 H897 0.961 . S
C883 H898 0.961 . S
C883 H899 0.961 . S
C884 C885 1.370 . S
C884 C886 1.363 . S
C884 H900 0.931 . S
C885 C884 1.370 . S
C885 C889 1.408 . S
C886 C884 1.363 . S
C886 C887 1.370 . S
C886 C890 1.524 . S
C887 C879 1.503 . S
C887 C886 1.370 . S
C887 C888 1.403 . S
C888 C887 1.403 . S
C888 C889 1.404 . S
C888 C891 1.539 . S
C889 C885 1.408 . S
C889 C888 1.404 . S
C889 H901 0.930 . S
C890 C886 1.524 . S
C890 H902 0.956 . S
C890 H903 0.961 . S
C890 H904 0.961 . S
C891 C888 1.539 . S
C891 H905 0.958 . S
C891 H906 0.961 . S
C891 H907 0.960 . S
H892 C876 0.931 . S
H893 C881 0.929 . S
H894 C882 0.960 . S
H895 C882 0.962 . S
H896 C882 0.960 . S
H897 C883 0.961 . S
H898 C883 0.961 . S
H899 C883 0.961 . S
H900 C884 0.931 . S
H901 C889 0.930 . S
H902 C890 0.956 . S
H903 C890 0.961 . S
H904 C890 0.961 . S
H905 C891 0.958 . S
H906 C891 0.961 . S
H907 C891 0.960 . S
C908 C909 1.391 . S
C908 C910 1.394 . S
C908 H924 0.931 . S
C909 C908 1.391 . S
C909 C913 1.376 . S
C910 C908 1.394 . S
C910 C911 1.369 . S
C910 C914 1.531 . S
C911 C910 1.369 . S
C911 C912 1.410 . S
C911 C919 1.503 . S
C912 C911 1.410 . S
C912 C913 1.392 . S
C912 C915 1.511 . S
C913 C909 1.376 . S
C913 C912 1.392 . S
C913 H925 0.929 . S
C914 C910 1.531 . S
C914 H926 0.960 . S
C914 H927 0.962 . S
C914 H928 0.960 . S
C915 C912 1.511 . S
C915 H929 0.961 . S
C915 H930 0.961 . S
C915 H931 0.961 . S
C916 C917 1.370 . S
C916 C918 1.363 . S
C916 H932 0.931 . S
C917 C916 1.370 . S
C917 C921 1.408 . S
C918 C916 1.363 . S
C918 C919 1.370 . S
C918 C922 1.524 . S
C919 C911 1.503 . S
C919 C918 1.370 . S
C919 C920 1.403 . S
C920 C919 1.403 . S
C920 C921 1.404 . S
C920 C923 1.539 . S
C921 C917 1.408 . S
C921 C920 1.404 . S
C921 H933 0.930 . S
C922 C918 1.524 . S
C922 H934 0.956 . S
C922 H935 0.961 . S
C922 H936 0.961 . S
C923 C920 1.539 . S
C923 H937 0.958 . S
C923 H938 0.961 . S
C923 H939 0.960 . S
H924 C908 0.931 . S
H925 C913 0.929 . S
H926 C914 0.960 . S
H927 C914 0.962 . S
H928 C914 0.960 . S
H929 C915 0.961 . S
H930 C915 0.961 . S
H931 C915 0.961 . S
H932 C916 0.931 . S
H933 C921 0.930 . S
H934 C922 0.956 . S
H935 C922 0.961 . S
H936 C922 0.961 . S
H937 C923 0.958 . S
H938 C923 0.961 . S
H939 C923 0.960 . S
C940 C941 1.391 . S
C940 C942 1.394 . S
C940 H956 0.931 . S
C941 C940 1.391 . S
C941 C945 1.376 . S
C942 C940 1.394 . S
C942 C943 1.369 . S
C942 C946 1.531 . S
C943 C942 1.369 . S
C943 C944 1.410 . S
C943 C951 1.503 . S
C944 C943 1.410 . S
C944 C945 1.392 . S
C944 C947 1.511 . S
C945 C941 1.376 . S
C945 C944 1.392 . S
C945 H957 0.929 . S
C946 C942 1.531 . S
C946 H958 0.960 . S
C946 H959 0.962 . S
C946 H960 0.960 . S
C947 C944 1.511 . S
C947 H961 0.961 . S
C947 H962 0.961 . S
C947 H963 0.961 . S
C948 C949 1.370 . S
C948 C950 1.363 . S
C948 H964 0.931 . S
C949 C948 1.370 . S
C949 C953 1.408 . S
C950 C948 1.363 . S
C950 C951 1.370 . S
C950 C954 1.524 . S
C951 C943 1.503 . S
C951 C950 1.370 . S
C951 C952 1.403 . S
C952 C951 1.403 . S
C952 C953 1.404 . S
C952 C955 1.539 . S
C953 C949 1.408 . S
C953 C952 1.404 . S
C953 H965 0.930 . S
C954 C950 1.524 . S
C954 H966 0.956 . S
C954 H967 0.961 . S
C954 H968 0.961 . S
C955 C952 1.539 . S
C955 H969 0.958 . S
C955 H970 0.961 . S
C955 H971 0.960 . S
H956 C940 0.931 . S
H957 C945 0.929 . S
H958 C946 0.960 . S
H959 C946 0.962 . S
H960 C946 0.960 . S
H961 C947 0.961 . S
H962 C947 0.961 . S
H963 C947 0.961 . S
H964 C948 0.931 . S
H965 C953 0.930 . S
H966 C954 0.956 . S
H967 C954 0.961 . S
H968 C954 0.961 . S
H969 C955 0.958 . S
H970 C955 0.961 . S
H971 C955 0.960 . S
C972 C973 1.391 . S
C972 C974 1.394 . S
C972 H988 0.931 . S
C973 C972 1.391 . S
C973 C977 1.376 . S
C974 C972 1.394 . S
C974 C975 1.369 . S
C974 C978 1.531 . S
C975 C974 1.369 . S
C975 C976 1.410 . S
C975 C983 1.503 . S
C976 C975 1.410 . S
C976 C977 1.392 . S
C976 C979 1.511 . S
C977 C973 1.376 . S
C977 C976 1.392 . S
C977 H989 0.929 . S
C978 C974 1.531 . S
C978 H990 0.960 . S
C978 H991 0.962 . S
C978 H992 0.960 . S
C979 C976 1.511 . S
C979 H993 0.961 . S
C979 H994 0.961 . S
C979 H995 0.961 . S
C980 C981 1.370 . S
C980 C982 1.363 . S
C980 H996 0.931 . S
C981 C980 1.370 . S
C981 C985 1.408 . S
C982 C980 1.363 . S
C982 C983 1.370 . S
C982 C986 1.524 . S
C983 C975 1.503 . S
C983 C982 1.370 . S
C983 C984 1.403 . S
C984 C983 1.403 . S
C984 C985 1.404 . S
C984 C987 1.539 . S
C985 C981 1.408 . S
C985 C984 1.404 . S
C985 H997 0.930 . S
C986 C982 1.524 . S
C986 H998 0.956 . S
C986 H999 0.961 . S
C986 H1000 0.961 . S
C987 C984 1.539 . S
C987 H1001 0.958 . S
C987 H1002 0.961 . S
C987 H1003 0.960 . S
H988 C972 0.931 . S
H989 C977 0.929 . S
H990 C978 0.960 . S
H991 C978 0.962 . S
H992 C978 0.960 . S
H993 C979 0.961 . S
H994 C979 0.961 . S
H995 C979 0.961 . S
H996 C980 0.931 . S
H997 C985 0.930 . S
H998 C986 0.956 . S
H999 C986 0.961 . S
H1000 C986 0.961 . S
H1001 C987 0.958 . S
H1002 C987 0.961 . S
H1003 C987 0.960 . S
C1004 C1005 1.391 . S
C1004 C1006 1.394 1_455 S
C1004 H1020 0.931 1_455 S
C1005 C1004 1.391 . S
C1005 C1009 1.376 . S
C1006 C1004 1.394 1_655 S
C1006 C1007 1.369 1_655 S
C1006 C1010 1.531 . S
C1007 C1006 1.369 1_455 S
C1007 C1008 1.410 . S
C1007 C1015 1.503 1_455 S
C1008 C1007 1.410 . S
C1008 C1009 1.392 . S
C1008 C1011 1.511 . S
C1009 C1005 1.376 . S
C1009 C1008 1.392 . S
C1009 H1021 0.929 . S
C1010 C1006 1.531 . S
C1010 H1022 0.960 . S
C1010 H1023 0.962 . S
C1010 H1024 0.960 . S
C1011 C1008 1.511 . S
C1011 H1025 0.961 . S
C1011 H1026 0.961 . S
C1011 H1027 0.961 . S
C1012 C1013 1.370 . S
C1012 C1014 1.363 . S
C1012 H1028 0.931 . S
C1013 C1012 1.370 . S
C1013 C1017 1.408 . S
C1014 C1012 1.363 . S
C1014 C1015 1.370 . S
C1014 C1018 1.524 . S
C1015 C1007 1.503 1_655 S
C1015 C1014 1.370 . S
C1015 C1016 1.402 . S
C1016 C1015 1.402 . S
C1016 C1017 1.405 . S
C1016 C1019 1.538 1_655 S
C1017 C1013 1.408 . S
C1017 C1016 1.405 . S
C1017 H1029 0.930 . S
C1018 C1014 1.524 . S
C1018 H1030 0.956 . S
C1018 H1031 0.961 . S
C1018 H1032 0.961 . S
C1019 C1016 1.538 1_455 S
C1019 H1033 0.958 . S
C1019 H1034 0.961 . S
C1019 H1035 0.960 . S
H1020 C1004 0.931 1_655 S
H1021 C1009 0.929 . S
H1022 C1010 0.960 . S
H1023 C1010 0.962 . S
H1024 C1010 0.960 . S
H1025 C1011 0.961 . S
H1026 C1011 0.961 . S
H1027 C1011 0.961 . S
H1028 C1012 0.931 . S
H1029 C1017 0.930 . S
H1030 C1018 0.956 . S
H1031 C1018 0.961 . S
H1032 C1018 0.961 . S
H1033 C1019 0.958 . S
H1034 C1019 0.961 . S
H1035 C1019 0.960 . S
C1036 C1037 1.391 . S
C1036 C1038 1.394 . S
C1036 H1052 0.931 . S
C1037 C1036 1.391 . S
C1037 C1041 1.376 . S
C1038 C1036 1.394 . S
C1038 C1039 1.369 . S
C1038 C1042 1.531 . S
C1039 C1038 1.369 . S
C1039 C1040 1.410 1_565 S
C1039 C1047 1.503 1_565 S
C1040 C1039 1.410 1_545 S
C1040 C1041 1.392 1_545 S
C1040 C1043 1.511 . S
C1041 C1037 1.376 . S
C1041 C1040 1.392 1_565 S
C1041 H1053 0.929 1_565 S
C1042 C1038 1.531 . S
C1042 H1054 0.960 . S
C1042 H1055 0.962 . S
C1042 H1056 0.960 . S
C1043 C1040 1.511 . S
C1043 H1057 0.961 . S
C1043 H1058 0.961 . S
C1043 H1059 0.961 . S
C1044 C1045 1.370 . S
C1044 C1046 1.363 . S
C1044 H1060 0.931 . S
C1045 C1044 1.370 . S
C1045 C1049 1.408 . S
C1046 C1044 1.363 . S
C1046 C1047 1.370 . S
C1046 C1050 1.524 . S
C1047 C1039 1.503 1_545 S
C1047 C1046 1.370 . S
C1047 C1048 1.403 . S
C1048 C1047 1.403 . S
C1048 C1049 1.404 . S
C1048 C1051 1.539 1_545 S
C1049 C1045 1.408 . S
C1049 C1048 1.404 . S
C1049 H1061 0.930 . S
C1050 C1046 1.524 . S
C1050 H1062 0.956 1_545 S
C1050 H1063 0.961 . S
C1050 H1064 0.961 . S
C1051 C1048 1.539 1_565 S
C1051 H1065 0.958 . S
C1051 H1066 0.961 1_565 S
C1051 H1067 0.960 . S
H1052 C1036 0.931 . S
H1053 C1041 0.929 1_545 S
H1054 C1042 0.960 . S
H1055 C1042 0.962 . S
H1056 C1042 0.960 . S
H1057 C1043 0.961 . S
H1058 C1043 0.961 . S
H1059 C1043 0.961 . S
H1060 C1044 0.931 . S
H1061 C1049 0.930 . S
H1062 C1050 0.956 1_565 S
H1063 C1050 0.961 . S
H1064 C1050 0.961 . S
H1065 C1051 0.958 . S
H1066 C1051 0.961 1_545 S
H1067 C1051 0.960 . S
C1068 C1069 1.391 . S
C1068 C1070 1.394 . S
C1068 H1084 0.931 . S
C1069 C1068 1.391 . S
C1069 C1073 1.376 . S
C1070 C1068 1.394 . S
C1070 C1071 1.369 . S
C1070 C1074 1.531 . S
C1071 C1070 1.369 . S
C1071 C1072 1.410 . S
C1071 C1079 1.503 . S
C1072 C1071 1.410 . S
C1072 C1073 1.392 . S
C1072 C1075 1.511 . S
C1073 C1069 1.376 . S
C1073 C1072 1.392 . S
C1073 H1085 0.929 . S
C1074 C1070 1.531 . S
C1074 H1086 0.960 . S
C1074 H1087 0.962 . S
C1074 H1088 0.960 . S
C1075 C1072 1.511 . S
C1075 H1089 0.961 . S
C1075 H1090 0.961 . S
C1075 H1091 0.961 . S
C1076 C1077 1.370 . S
C1076 C1078 1.363 . S
C1076 H1092 0.931 . S
C1077 C1076 1.370 . S
C1077 C1081 1.408 . S
C1078 C1076 1.363 . S
C1078 C1079 1.370 . S
C1078 C1082 1.524 . S
C1079 C1071 1.503 . S
C1079 C1078 1.370 . S
C1079 C1080 1.403 . S
C1080 C1079 1.403 . S
C1080 C1081 1.404 . S
C1080 C1083 1.539 . S
C1081 C1077 1.408 . S
C1081 C1080 1.404 . S
C1081 H1093 0.930 . S
C1082 C1078 1.524 . S
C1082 H1094 0.956 . S
C1082 H1095 0.961 . S
C1082 H1096 0.961 . S
C1083 C1080 1.539 . S
C1083 H1097 0.958 . S
C1083 H1098 0.961 . S
C1083 H1099 0.960 . S
H1084 C1068 0.931 . S
H1085 C1073 0.929 . S
H1086 C1074 0.960 . S
H1087 C1074 0.962 . S
H1088 C1074 0.960 . S
H1089 C1075 0.961 . S
H1090 C1075 0.961 . S
H1091 C1075 0.961 . S
H1092 C1076 0.931 . S
H1093 C1081 0.930 . S
H1094 C1082 0.956 . S
H1095 C1082 0.961 . S
H1096 C1082 0.961 . S
H1097 C1083 0.958 . S
H1098 C1083 0.961 . S
H1099 C1083 0.960 . S
C1100 C1101 1.391 . S
C1100 C1102 1.394 1_455 S
C1100 H1116 0.931 1_455 S
C1101 C1100 1.391 . S
C1101 C1105 1.376 . S
C1102 C1100 1.394 1_655 S
C1102 C1103 1.369 1_655 S
C1102 C1106 1.531 . S
C1103 C1102 1.369 1_455 S
C1103 C1104 1.410 . S
C1103 C1111 1.503 1_455 S
C1104 C1103 1.410 . S
C1104 C1105 1.392 . S
C1104 C1107 1.511 . S
C1105 C1101 1.376 . S
C1105 C1104 1.392 . S
C1105 H1117 0.929 . S
C1106 C1102 1.531 . S
C1106 H1118 0.960 . S
C1106 H1119 0.962 . S
C1106 H1120 0.960 . S
C1107 C1104 1.511 . S
C1107 H1121 0.961 . S
C1107 H1122 0.961 . S
C1107 H1123 0.961 . S
C1108 C1109 1.370 . S
C1108 C1110 1.363 . S
C1108 H1124 0.931 . S
C1109 C1108 1.370 . S
C1109 C1113 1.408 . S
C1110 C1108 1.363 . S
C1110 C1111 1.370 . S
C1110 C1114 1.524 . S
C1111 C1103 1.503 1_655 S
C1111 C1110 1.370 . S
C1111 C1112 1.403 . S
C1112 C1111 1.403 . S
C1112 C1113 1.404 . S
C1112 C1115 1.539 1_655 S
C1113 C1109 1.408 . S
C1113 C1112 1.404 . S
C1113 H1125 0.930 . S
C1114 C1110 1.524 . S
C1114 H1126 0.956 . S
C1114 H1127 0.961 . S
C1114 H1128 0.961 . S
C1115 C1112 1.539 1_455 S
C1115 H1129 0.958 . S
C1115 H1130 0.961 . S
C1115 H1131 0.960 . S
H1116 C1100 0.931 1_655 S
H1117 C1105 0.929 . S
H1118 C1106 0.960 . S
H1119 C1106 0.962 . S
H1120 C1106 0.960 . S
H1121 C1107 0.961 . S
H1122 C1107 0.961 . S
H1123 C1107 0.961 . S
H1124 C1108 0.931 . S
H1125 C1113 0.930 . S
H1126 C1114 0.956 . S
H1127 C1114 0.961 . S
H1128 C1114 0.961 . S
H1129 C1115 0.958 . S
H1130 C1115 0.961 . S
H1131 C1115 0.960 . S
C1132 C1133 1.391 . S
C1132 C1134 1.394 . S
C1132 H1148 0.931 . S
C1133 C1132 1.391 . S
C1133 C1137 1.376 . S
C1134 C1132 1.394 . S
C1134 C1135 1.369 . S
C1134 C1138 1.531 . S
C1135 C1134 1.369 . S
C1135 C1136 1.410 1_565 S
C1135 C1143 1.503 1_565 S
C1136 C1135 1.410 1_545 S
C1136 C1137 1.392 1_545 S
C1136 C1139 1.511 . S
C1137 C1133 1.376 . S
C1137 C1136 1.392 1_565 S
C1137 H1149 0.929 1_565 S
C1138 C1134 1.531 . S
C1138 H1150 0.960 . S
C1138 H1151 0.962 . S
C1138 H1152 0.960 . S
C1139 C1136 1.511 . S
C1139 H1153 0.961 . S
C1139 H1154 0.961 . S
C1139 H1155 0.961 . S
C1140 C1141 1.370 . S
C1140 C1142 1.363 . S
C1140 H1156 0.931 . S
C1141 C1140 1.370 . S
C1141 C1145 1.408 . S
C1142 C1140 1.363 . S
C1142 C1143 1.370 . S
C1142 C1146 1.524 . S
C1143 C1135 1.503 1_545 S
C1143 C1142 1.370 . S
C1143 C1144 1.403 . S
C1144 C1143 1.403 . S
C1144 C1145 1.404 . S
C1144 C1147 1.539 . S
C1145 C1141 1.408 . S
C1145 C1144 1.404 . S
C1145 H1157 0.930 . S
C1146 C1142 1.524 . S
C1146 H1158 0.956 1_545 S
C1146 H1159 0.961 . S
C1146 H1160 0.961 . S
C1147 C1144 1.539 . S
C1147 H1161 0.958 1_545 S
C1147 H1162 0.961 . S
C1147 H1163 0.960 . S
H1148 C1132 0.931 . S
H1149 C1137 0.929 1_545 S
H1150 C1138 0.960 . S
H1151 C1138 0.962 . S
H1152 C1138 0.960 . S
H1153 C1139 0.961 . S
H1154 C1139 0.961 . S
H1155 C1139 0.961 . S
H1156 C1140 0.931 . S
H1157 C1145 0.930 . S
H1158 C1146 0.956 1_565 S
H1159 C1146 0.961 . S
H1160 C1146 0.961 . S
H1161 C1147 0.958 1_565 S
H1162 C1147 0.961 . S
H1163 C1147 0.960 . S
C1164 C1165 1.391 . S
C1164 C1166 1.394 . S
C1164 H1180 0.931 . S
C1165 C1164 1.391 . S
C1165 C1169 1.376 1_545 S
C1166 C1164 1.394 . S
C1166 C1167 1.369 . S
C1166 C1170 1.531 . S
C1167 C1166 1.369 . S
C1167 C1168 1.410 1_545 S
C1167 C1175 1.503 1_445 S
C1168 C1167 1.410 1_565 S
C1168 C1169 1.392 . S
C1168 C1171 1.511 . S
C1169 C1165 1.376 1_565 S
C1169 C1168 1.392 . S
C1169 H1181 0.929 . S
C1170 C1166 1.531 . S
C1170 H1182 0.960 . S
C1170 H1183 0.962 . S
C1170 H1184 0.960 . S
C1171 C1168 1.511 . S
C1171 H1185 0.961 . S
C1171 H1186 0.961 1_455 S
C1171 H1187 0.961 . S
C1172 C1173 1.370 . S
C1172 C1174 1.363 . S
C1172 H1188 0.931 . S
C1173 C1172 1.370 . S
C1173 C1177 1.408 . S
C1174 C1172 1.363 . S
C1174 C1175 1.370 . S
C1174 C1178 1.524 . S
C1175 C1167 1.503 1_665 S
C1175 C1174 1.370 . S
C1175 C1176 1.403 . S
C1176 C1175 1.403 . S
C1176 C1177 1.404 . S
C1176 C1179 1.539 . S
C1177 C1173 1.408 . S
C1177 C1176 1.404 . S
C1177 H1189 0.930 . S
C1178 C1174 1.524 . S
C1178 H1190 0.956 1_665 S
C1178 H1191 0.966 . S
C1178 H1192 0.961 . S
C1179 C1176 1.539 . S
C1179 H1193 0.958 1_565 S
C1179 H1194 0.961 . S
C1179 H1195 0.960 . S
H1180 C1164 0.931 . S
H1181 C1169 0.929 . S
H1182 C1170 0.960 . S
H1183 C1170 0.962 . S
H1184 C1170 0.960 . S
H1185 C1171 0.961 . S
H1186 C1171 0.961 1_655 S
H1187 C1171 0.961 . S
H1188 C1172 0.931 . S
H1189 C1177 0.930 . S
H1190 C1178 0.956 1_445 S
H1191 C1178 0.966 . S
H1192 C1178 0.961 . S
H1193 C1179 0.958 1_545 S
H1194 C1179 0.961 . S
H1195 C1179 0.960 . S
C1196 C1197 1.391 . S
C1196 C1198 1.394 . S
C1196 H1212 0.931 . S
C1197 C1196 1.391 . S
C1197 C1201 1.376 . S
C1198 C1196 1.394 . S
C1198 C1199 1.369 . S
C1198 C1202 1.531 1_455 S
C1199 C1198 1.369 . S
C1199 C1200 1.410 . S
C1199 C1207 1.503 1_445 S
C1200 C1199 1.410 . S
C1200 C1201 1.392 . S
C1200 C1203 1.511 . S
C1201 C1197 1.376 . S
C1201 C1200 1.392 . S
C1201 H1213 0.929 . S
C1202 C1198 1.531 1_655 S
C1202 H1214 0.960 . S
C1202 H1215 0.962 . S
C1202 H1216 0.960 . S
C1203 C1200 1.511 . S
C1203 H1217 0.961 . S
C1203 H1218 0.961 1_545 S
C1203 H1219 0.961 . S
C1204 C1205 1.370 . S
C1204 C1206 1.363 . S
C1204 H1220 0.931 . S
C1205 C1204 1.370 . S
C1205 C1209 1.408 . S
C1206 C1204 1.363 . S
C1206 C1207 1.370 . S
C1206 C1210 1.524 . S
C1207 C1199 1.503 1_665 S
C1207 C1206 1.370 . S
C1207 C1208 1.403 . S
C1208 C1207 1.403 . S
C1208 C1209 1.404 . S
C1208 C1211 1.539 1_655 S
C1209 C1205 1.408 . S
C1209 C1208 1.404 . S
C1209 H1221 0.930 . S
C1210 C1206 1.524 . S
C1210 H1222 0.956 1_565 S
C1210 H1223 0.961 1_565 S
C1210 H1224 0.961 . S
C1211 C1208 1.539 1_455 S
C1211 H1225 0.958 1_455 S
C1211 H1226 0.961 . S
C1211 H1227 0.960 . S
H1212 C1196 0.931 . S
H1213 C1201 0.929 . S
H1214 C1202 0.960 . S
H1215 C1202 0.962 . S
H1216 C1202 0.960 . S
H1217 C1203 0.961 . S
H1218 C1203 0.961 1_565 S
H1219 C1203 0.961 . S
H1220 C1204 0.931 . S
H1221 C1209 0.930 . S
H1222 C1210 0.956 1_545 S
H1223 C1210 0.961 1_545 S
H1224 C1210 0.961 . S
H1225 C1211 0.958 1_655 S
H1226 C1211 0.961 . S
H1227 C1211 0.960 . S
C1228 C1229 1.391 . S
C1228 C1230 1.394 1_655 S
C1228 H1244 0.931 1_655 S
C1229 C1228 1.391 . S
C1229 C1233 1.376 . S
C1230 C1228 1.394 1_455 S
C1230 C1231 1.369 1_455 S
C1230 C1234 1.531 . S
C1231 C1230 1.369 1_655 S
C1231 C1232 1.410 . S
C1231 C1239 1.503 1_645 S
C1232 C1231 1.410 . S
C1232 C1233 1.392 . S
C1232 C1235 1.511 1_545 S
C1233 C1229 1.376 . S
C1233 C1232 1.392 . S
C1233 H1245 0.929 . S
C1234 C1230 1.531 . S
C1234 H1246 0.960 . S
C1234 H1247 0.962 . S
C1234 H1248 0.960 . S
C1235 C1232 1.511 1_565 S
C1235 H1249 0.961 . S
C1235 H1250 0.961 . S
C1235 H1251 0.961 . S
C1236 C1237 1.370 . S
C1236 C1238 1.363 1_455 S
C1236 H1252 0.931 . S
C1237 C1236 1.370 . S
C1237 C1241 1.408 . S
C1238 C1236 1.363 1_655 S
C1238 C1239 1.370 1_655 S
C1238 C1242 1.524 . S
C1239 C1231 1.503 1_465 S
C1239 C1238 1.370 1_455 S
C1239 C1240 1.403 . S
C1240 C1239 1.403 . S
C1240 C1241 1.404 . S
C1240 C1243 1.539 1_565 S
C1241 C1237 1.408 . S
C1241 C1240 1.404 . S
C1241 H1253 0.930 . S
C1242 C1238 1.524 . S
C1242 H1254 0.956 . S
C1242 H1255 0.961 . S
C1242 H1256 0.961 . S
C1243 C1240 1.539 1_545 S
C1243 H1257 0.958 . S
C1243 H1258 0.961 . S
C1243 H1259 0.960 . S
H1244 C1228 0.931 1_455 S
H1245 C1233 0.929 . S
H1246 C1234 0.960 . S
H1247 C1234 0.962 . S
H1248 C1234 0.960 . S
H1249 C1235 0.961 . S
H1250 C1235 0.961 . S
H1251 C1235 0.961 . S
H1252 C1236 0.931 . S
H1253 C1241 0.930 . S
H1254 C1242 0.956 . S
H1255 C1242 0.961 . S
H1256 C1242 0.961 . S
H1257 C1243 0.958 . S
H1258 C1243 0.961 . S
H1259 C1243 0.960 . S
C1260 C1261 1.391 . S
C1260 C1262 1.394 . S
C1260 H1276 0.931 . S
C1261 C1260 1.391 . S
C1261 C1265 1.376 1_655 S
C1262 C1260 1.394 . S
C1262 C1263 1.369 . S
C1262 C1266 1.531 . S
C1263 C1262 1.369 . S
C1263 C1264 1.410 1_655 S
C1263 C1271 1.503 1_665 S
C1264 C1263 1.410 1_455 S
C1264 C1265 1.392 . S
C1264 C1267 1.511 . S
C1265 C1261 1.376 1_455 S
C1265 C1264 1.392 . S
C1265 H1277 0.929 . S
C1266 C1262 1.531 . S
C1266 H1278 0.960 . S
C1266 H1279 0.962 . S
C1266 H1280 0.960 . S
C1267 C1264 1.511 . S
C1267 H1281 0.961 . S
C1267 H1282 0.961 1_565 S
C1267 H1283 0.961 . S
C1268 C1269 1.370 . S
C1268 C1270 1.363 . S
C1268 H1284 0.931 . S
C1269 C1268 1.370 . S
C1269 C1273 1.408 . S
C1270 C1268 1.363 . S
C1270 C1271 1.370 . S
C1270 C1274 1.524 1_455 S
C1271 C1263 1.503 1_445 S
C1271 C1270 1.370 . S
C1271 C1272 1.403 . S
C1272 C1271 1.403 . S
C1272 C1273 1.404 . S
C1272 C1275 1.539 . S
C1273 C1269 1.408 . S
C1273 C1272 1.404 . S
C1273 H1285 0.930 . S
C1274 C1270 1.524 1_655 S
C1274 H1286 0.956 1_545 S
C1274 H1287 0.978 1_545 S
C1274 H1288 0.961 . S
C1275 C1272 1.539 . S
C1275 H1289 0.958 . S
C1275 H1290 0.961 . S
C1275 H1291 0.960 . S
H1276 C1260 0.931 . S
H1277 C1265 0.929 . S
H1278 C1266 0.960 . S
H1279 C1266 0.962 . S
H1280 C1266 0.960 . S
H1281 C1267 0.961 . S
H1282 C1267 0.961 1_545 S
H1283 C1267 0.961 . S
H1284 C1268 0.931 . S
H1285 C1273 0.930 . S
H1286 C1274 0.956 1_565 S
H1287 C1274 0.978 1_565 S
H1288 C1274 0.961 . S
H1289 C1275 0.958 . S
H1290 C1275 0.961 . S
H1291 C1275 0.960 . S
C1292 C1293 1.391 . S
C1292 C1294 1.394 . S
C1292 H1308 0.931 . S
C1293 C1292 1.391 . S
C1293 C1297 1.376 . S
C1294 C1292 1.394 . S
C1294 C1295 1.369 . S
C1294 C1298 1.530 . S
C1295 C1294 1.369 . S
C1295 C1296 1.410 . S
C1295 C1303 1.503 1_645 S
C1296 C1295 1.410 . S
C1296 C1297 1.392 . S
C1296 C1299 1.511 1_655 S
C1297 C1293 1.376 . S
C1297 C1296 1.392 . S
C1297 H1309 0.929 . S
C1298 C1294 1.530 . S
C1298 H1310 0.960 1_655 S
C1298 H1311 0.962 1_545 S
C1298 H1312 0.960 . S
C1299 C1296 1.511 1_455 S
C1299 H1313 0.961 1_455 S
C1299 H1314 0.961 . S
C1299 H1315 0.961 . S
C1300 C1301 1.370 . S
C1300 C1302 1.363 . S
C1300 H1316 0.931 . S
C1301 C1300 1.370 . S
C1301 C1305 1.408 1_565 S
C1302 C1300 1.363 . S
C1302 C1303 1.370 . S
C1302 C1306 1.524 1_455 S
C1303 C1295 1.503 1_465 S
C1303 C1302 1.370 . S
C1303 C1304 1.403 1_565 S
C1304 C1303 1.403 1_545 S
C1304 C1305 1.404 . S
C1304 C1307 1.539 . S
C1305 C1301 1.408 1_545 S
C1305 C1304 1.404 . S
C1305 H1317 0.930 . S
C1306 C1302 1.524 1_655 S
C1306 H1318 0.956 . S
C1306 H1319 0.961 . S
C1306 H1320 0.961 . S
C1307 C1304 1.539 . S
C1307 H1321 0.958 . S
C1307 H1322 0.961 . S
C1307 H1323 0.960 . S
H1308 C1292 0.931 . S
H1309 C1297 0.929 . S
H1310 C1298 0.960 1_455 S
H1311 C1298 0.962 1_565 S
H1312 C1298 0.960 . S
H1313 C1299 0.961 1_655 S
H1314 C1299 0.961 . S
H1315 C1299 0.961 . S
H1316 C1300 0.931 . S
H1317 C1305 0.930 . S
H1318 C1306 0.956 . S
H1319 C1306 0.961 . S
H1320 C1306 0.961 . S
H1321 C1307 0.958 . S
H1322 C1307 0.961 . S
H1323 C1307 0.960 . S
C1324 C1325 1.391 . S
C1324 C1326 1.392 1_545 S
C1324 H1340 0.931 . S
C1325 C1324 1.391 . S
C1325 C1329 1.376 . S
C1326 C1324 1.392 1_565 S
C1326 C1327 1.355 1_565 S
C1326 C1330 1.547 . S
C1327 C1326 1.355 1_545 S
C1327 C1328 1.410 . S
C1327 C1335 1.503 1_445 S
C1328 C1327 1.410 . S
C1328 C1329 1.392 . S
C1328 C1331 1.511 . S
C1329 C1325 1.376 . S
C1329 C1328 1.392 . S
C1329 H1341 0.929 . S
C1330 C1326 1.547 . S
C1330 H1342 0.960 . S
C1330 H1343 0.962 . S
C1330 H1344 0.960 . S
C1331 C1328 1.511 . S
C1331 H1345 0.961 . S
C1331 H1346 0.961 1_455 S
C1331 H1347 0.961 . S
C1332 C1333 1.370 . S
C1332 C1334 1.363 . S
C1332 H1348 0.931 . S
C1333 C1332 1.370 . S
C1333 C1337 1.408 . S
C1334 C1332 1.363 . S
C1334 C1335 1.370 . S
C1334 C1338 1.524 . S
C1335 C1327 1.503 1_665 S
C1335 C1334 1.370 . S
C1335 C1336 1.403 . S
C1336 C1335 1.403 . S
C1336 C1337 1.404 . S
C1336 C1339 1.539 . S
C1337 C1333 1.408 . S
C1337 C1336 1.404 . S
C1337 H1349 0.930 . S
C1338 C1334 1.524 . S
C1338 H1350 0.956 1_655 S
C1338 H1351 0.960 1_665 S
C1338 H1352 0.961 . S
C1339 C1336 1.539 . S
C1339 H1353 0.958 . S
C1339 H1354 0.961 . S
C1339 H1355 0.960 1_565 S
H1340 C1324 0.931 . S
H1341 C1329 0.929 . S
H1342 C1330 0.960 . S
H1343 C1330 0.962 . S
H1344 C1330 0.960 . S
H1345 C1331 0.961 . S
H1346 C1331 0.961 1_655 S
H1347 C1331 0.961 . S
H1348 C1332 0.931 . S
H1349 C1337 0.930 . S
H1350 C1338 0.956 1_455 S
H1351 C1338 0.960 1_445 S
H1352 C1338 0.961 . S
H1353 C1339 0.958 . S
H1354 C1339 0.961 . S
H1355 C1339 0.960 1_545 S
C397 N14 1.625 . S
C405 N245 1.627 . S
C429 N47 1.609 . S
C437 N278 1.627 . S
C461 N80 1.609 . S
C469 N311 1.633 . S
C493 N344 1.648 . S
C501 N113 1.635 . S
C525 N377 1.609 . S
C533 N146 1.632 . S
C557 N179 1.657 . S
C565 N212 1.643 . S
C589 C127 1.690 . S
C597 C28 1.687 . S
C621 C61 1.670 . S
C629 C160 1.678 . S
C653 C193 1.667 . S
C661 C94 1.679 . S
C685 C325 1.686 . S
C693 C226 1.688 . S
C717 C358 1.667 . S
C725 C259 1.679 . S
C749 C292 1.667 . S
C757 C391 1.680 . S
C781 N269 1.564 . S
C789 N5 1.552 . S
C813 N38 1.562 . S
C821 N302 1.553 . S
C845 N71 1.512 . S
C853 N335 1.532 . S
C877 N104 1.544 . S
C885 N368 1.543 . S
C909 N137 1.515 . S
C917 N203 1.531 . S
C941 N236 1.554 . S
C949 N170 1.547 . S
C973 C116 1.076 . S
C981 C17 1.065 . S
C1005 C50 1.037 . S
C1013 C149 1.056 . S
C1037 C182 1.072 . S
C1045 C83 1.067 . S
C1069 C215 1.038 . S
C1077 C314 1.057 . S
C1101 C248 1.037 . S
C1109 C347 1.056 . S
C1133 C380 1.075 . S
C1141 C281 1.066 . S
C1165 C8 1.338 . S
C1173 C107 1.338 . S
C1197 C41 1.342 . S
C1205 C140 1.336 . S
C1229 C74 1.342 . S
C1237 C173 1.335 . S
C1261 C206 1.341 . S
C1269 C305 1.336 . S
C1293 C338 1.322 . S
C1301 C239 1.344 . S
C1325 C272 1.339 . S
C1333 C371 1.338 . S
