# Generated by pormake.
# Topology wjd, (6)-cn, num edge types: 1
# Building blocks:
#     Node 0, Type 0, BuildingBlock: BETGAK_clean_sbu_0, # of connection points: 6
#     Node 1, Type 0, BuildingBlock: BETGAK_clean_sbu_0, # of connection points: 6
#     Node 2, Type 0, BuildingBlock: BETGAK_clean_sbu_0, # of connection points: 6
#     Node 3, Type 0, BuildingBlock: BETGAK_clean_sbu_0, # of connection points: 6
#     Node 4, Type 0, BuildingBlock: BETGAK_clean_sbu_0, # of connection points: 6
#     Node 5, Type 0, BuildingBlock: BETGAK_clean_sbu_0, # of connection points: 6
#     Node 6, Type 0, BuildingBlock: BETGAK_clean_sbu_0, # of connection points: 6
#     Node 7, Type 0, BuildingBlock: BETGAK_clean_sbu_0, # of connection points: 6
#     Node 8, Type 0, BuildingBlock: BETGAK_clean_sbu_0, # of connection points: 6
#     Node 9, Type 0, BuildingBlock: BETGAK_clean_sbu_0, # of connection points: 6
#     Node 10, Type 0, BuildingBlock: BETGAK_clean_sbu_0, # of connection points: 6
#     Node 11, Type 0, BuildingBlock: BETGAK_clean_sbu_0, # of connection points: 6
#     Edge 12, Type (0, 0), BuildingBlock: UVAHIK_clean_linker_0, # of connection points: 2
#     Edge 13, Type (0, 0), BuildingBlock: UVAHIK_clean_linker_0, # of connection points: 2
#     Edge 14, Type (0, 0), BuildingBlock: UVAHIK_clean_linker_0, # of connection points: 2
#     Edge 15, Type (0, 0), BuildingBlock: UVAHIK_clean_linker_0, # of connection points: 2
#     Edge 16, Type (0, 0), BuildingBlock: UVAHIK_clean_linker_0, # of connection points: 2
#     Edge 17, Type (0, 0), BuildingBlock: UVAHIK_clean_linker_0, # of connection points: 2
#     Edge 18, Type (0, 0), BuildingBlock: UVAHIK_clean_linker_0, # of connection points: 2
#     Edge 19, Type (0, 0), BuildingBlock: UVAHIK_clean_linker_0, # of connection points: 2
#     Edge 20, Type (0, 0), BuildingBlock: UVAHIK_clean_linker_0, # of connection points: 2
#     Edge 21, Type (0, 0), BuildingBlock: UVAHIK_clean_linker_0, # of connection points: 2
#     Edge 22, Type (0, 0), BuildingBlock: UVAHIK_clean_linker_0, # of connection points: 2
#     Edge 23, Type (0, 0), BuildingBlock: UVAHIK_clean_linker_0, # of connection points: 2
#     Edge 24, Type (0, 0), BuildingBlock: UVAHIK_clean_linker_0, # of connection points: 2
#     Edge 25, Type (0, 0), BuildingBlock: UVAHIK_clean_linker_0, # of connection points: 2
#     Edge 26, Type (0, 0), BuildingBlock: UVAHIK_clean_linker_0, # of connection points: 2
#     Edge 27, Type (0, 0), BuildingBlock: UVAHIK_clean_linker_0, # of connection points: 2
#     Edge 28, Type (0, 0), BuildingBlock: UVAHIK_clean_linker_0, # of connection points: 2
#     Edge 29, Type (0, 0), BuildingBlock: UVAHIK_clean_linker_0, # of connection points: 2
#     Edge 30, Type (0, 0), BuildingBlock: UVAHIK_clean_linker_0, # of connection points: 2
#     Edge 31, Type (0, 0), BuildingBlock: UVAHIK_clean_linker_0, # of connection points: 2
#     Edge 32, Type (0, 0), BuildingBlock: UVAHIK_clean_linker_0, # of connection points: 2
#     Edge 33, Type (0, 0), BuildingBlock: UVAHIK_clean_linker_0, # of connection points: 2
#     Edge 34, Type (0, 0), BuildingBlock: UVAHIK_clean_linker_0, # of connection points: 2
#     Edge 35, Type (0, 0), BuildingBlock: UVAHIK_clean_linker_0, # of connection points: 2
#     Edge 36, Type (0, 0), BuildingBlock: UVAHIK_clean_linker_0, # of connection points: 2
#     Edge 37, Type (0, 0), BuildingBlock: UVAHIK_clean_linker_0, # of connection points: 2
#     Edge 38, Type (0, 0), BuildingBlock: UVAHIK_clean_linker_0, # of connection points: 2
#     Edge 39, Type (0, 0), BuildingBlock: UVAHIK_clean_linker_0, # of connection points: 2
#     Edge 40, Type (0, 0), BuildingBlock: UVAHIK_clean_linker_0, # of connection points: 2
#     Edge 41, Type (0, 0), BuildingBlock: UVAHIK_clean_linker_0, # of connection points: 2
#     Edge 42, Type (0, 0), BuildingBlock: UVAHIK_clean_linker_0, # of connection points: 2
#     Edge 43, Type (0, 0), BuildingBlock: UVAHIK_clean_linker_0, # of connection points: 2
#     Edge 44, Type (0, 0), BuildingBlock: UVAHIK_clean_linker_0, # of connection points: 2
#     Edge 45, Type (0, 0), BuildingBlock: UVAHIK_clean_linker_0, # of connection points: 2
#     Edge 46, Type (0, 0), BuildingBlock: UVAHIK_clean_linker_0, # of connection points: 2
#     Edge 47, Type (0, 0), BuildingBlock: UVAHIK_clean_linker_0, # of connection points: 2
# Relax obj value: 0.098
# Max RMSD: 0.206
# Mean RMSD: 0.206
data_MOF--net-wjd--node1-BETGAK_clean_sbu_0--edge1-UVAHIK_clean_linker_0
_symmetry_space_group_name_H-M    P1
_symmetry_Int_Tables_number       1
_symmetry_cell_setting            triclinic
loop_
_symmetry_equiv_pos_as_xyz
'x, y, z'
_cell_length_a     49.161978
_cell_length_b     49.182801
_cell_length_c     67.96746
_cell_angle_alpha  89.92976
_cell_angle_beta   90.054511
_cell_angle_gamma 120.03061
loop_
_atom_site_label
_atom_site_type_symbol
_atom_site_fract_x
_atom_site_fract_y
_atom_site_fract_z
_atom_type_partial_charge
La0 La 0.37461 0.1751 0.1383 0.0
La1 La 0.33668 0.10315 0.14873 0.0
C2 C 0.41027 0.23347 0.1343 0.0
C3 C 0.44051 0.26231 0.13825 0.0
C4 C 0.45487 0.28346 0.12267 0.0
C5 C 0.48073 0.31322 0.12602 0.0
C6 C 0.49296 0.32257 0.14508 0.0
C7 C 0.47953 0.30084 0.16061 0.0
C8 C 0.45333 0.27096 0.15725 0.0
C9 C 0.34967 0.13414 0.10893 0.0
C10 C 0.41061 0.13839 0.14951 0.0
C11 C 0.30051 0.04547 0.14265 0.0
C12 C 0.26754 0.0223 0.14693 0.0
C13 C 0.24794 0.03103 0.15672 0.0
C14 C 0.21569 1.0097 0.1585 0.0
C15 C 0.2025 0.97929 0.15048 0.0
C16 C 0.22251 0.9706 0.14105 0.0
C17 C 0.25467 0.99191 0.13929 0.0
C18 C 0.3511 0.13783 0.18106 0.0
C19 C 0.30255 0.14449 0.14641 0.0
O20 O 0.41006 0.21267 0.12217 0.0
O21 O 0.39005 0.22066 0.14875 0.0
O22 O 0.35143 0.16133 0.10917 0.0
O23 O 0.36218 0.13144 0.12432 0.0
O24 O 0.41077 0.16549 0.14929 0.0
O25 O 0.38454 0.11081 0.14688 0.0
O26 O 0.32003 0.0564 0.15761 0.0
O27 O 0.30429 0.06767 0.13039 0.0
O28 O 0.33691 0.10733 0.18105 0.0
O29 O 0.35614 0.14649 0.16338 0.0
O30 O 0.29983 0.11618 0.14577 0.0
O31 O 0.32995 0.17079 0.14557 0.0
H32 H 0.44532 0.27737 0.10791 0.0
H33 H 0.49084 0.3292 0.1137 0.0
H34 H 0.48843 0.3074 0.17546 0.0
H35 H 0.44257 0.25511 0.16955 0.0
H36 H 0.25746 0.05456 0.16255 0.0
H37 H 0.20108 1.0171 0.16602 0.0
H38 H 0.2132 0.94765 0.13439 0.0
H39 H 0.26936 0.98494 0.13142 0.0
La40 La 0.80026 0.70868 0.41433 0.0
La41 La 0.83192 0.66829 0.4231 0.0
C42 C 0.78027 0.74566 0.42166 0.0
C43 C 0.79217 0.77958 0.41843 0.0
C44 C 0.79406 0.79219 0.39956 0.0
C45 C 0.80725 0.82467 0.397 0.0
C46 C 0.81908 0.84513 0.41322 0.0
C47 C 0.81665 0.8324 0.43207 0.0
C48 C 0.80316 0.80002 0.43465 0.0
C49 C 0.82265 0.69855 0.38138 0.0
C50 C 0.87525 0.7408 0.41829 0.0
C51 C 0.85291 0.63091 0.4253 0.0
C52 C 0.85125 0.6015 0.41841 0.0
C53 C 0.83069 0.57249 0.42731 0.0
C54 C 0.83378 0.54611 0.42375 0.0
C55 C 0.85767 0.54819 0.41135 0.0
C56 C 0.87717 0.57681 0.40171 0.0
C57 C 0.87405 0.60314 0.40524 0.0
C58 C 0.81564 0.6912 0.45351 0.0
C59 C 0.75993 0.63504 0.41056 0.0
O60 O 0.77109 0.72689 0.40628 0.0
O61 O 0.79702 0.73948 0.43396 0.0
O62 O 0.80886 0.71515 0.38246 0.0
O63 O 0.8234 0.68916 0.3985 0.0
O64 O 0.85003 0.74406 0.41951 0.0
O65 O 0.87334 0.71306 0.41742 0.0
O66 O 0.83029 0.629 0.43651 0.0
O67 O 0.86389 0.65486 0.41316 0.0
O68 O 0.84054 0.68851 0.45315 0.0
O69 O 0.80108 0.68047 0.4377 0.0
O70 O 0.78652 0.6342 0.41054 0.0
O71 O 0.7591 0.66126 0.41408 0.0
H72 H 0.7858 0.7771 0.38676 0.0
H73 H 0.80885 0.83386 0.3823 0.0
H74 H 0.82505 0.8475 0.44487 0.0
H75 H 0.80177 0.79096 0.44939 0.0
H76 H 0.81316 0.57047 0.43777 0.0
H77 H 0.8185 0.52454 0.43155 0.0
H78 H 0.89548 0.57913 0.39182 0.0
H79 H 0.89053 0.62519 0.39833 0.0
La80 La 0.86973 0.20735 0.13749 0.0
La81 La 0.9418 0.24305 0.14827 0.0
C82 C 0.81117 0.18365 0.1334 0.0
C83 C 0.78247 0.18558 0.13676 0.0
C84 C 0.76101 0.17735 0.1212 0.0
C85 C 0.73156 0.17445 0.12417 0.0
C86 C 0.72279 0.17977 0.14282 0.0
C87 C 0.7448 0.18931 0.15828 0.0
C88 C 0.77436 0.19202 0.15532 0.0
C89 C 0.91124 0.22366 0.10848 0.0
C90 C 0.90542 0.2805 0.1483 0.0
C91 C 0.9996 0.26469 0.14244 0.0
C92 C 1.02191 0.25367 0.14648 0.0
C93 C 1.01313 0.22685 0.15805 0.0
C94 C 0.03315 0.21437 0.15979 0.0
C95 C 0.06216 0.22833 0.14984 0.0
C96 C 0.07104 0.2556 0.13862 0.0
C97 C 0.05108 0.26809 0.13695 0.0
C98 C 0.90656 0.22267 0.18037 0.0
C99 C 0.90157 0.16748 0.14674 0.0
O100 O 0.8318 0.20304 0.12066 0.0
O101 O 0.82428 0.17785 0.14844 0.0
O102 O 0.8844 0.19777 0.10876 0.0
O103 O 0.91335 0.23908 0.12365 0.0
O104 O 0.87858 0.25327 0.14752 0.0
O105 O 0.93343 0.28269 0.14645 0.0
O106 O 0.98843 0.27247 0.15764 0.0
O107 O 0.97767 0.24755 0.12969 0.0
O108 O 0.93703 0.23969 0.18059 0.0
O109 O 0.89832 0.21842 0.16261 0.0
O110 O 0.92964 0.1934 0.14594 0.0
O111 O 0.87491 0.16781 0.14556 0.0
H112 H 0.76667 0.17215 0.10679 0.0
H113 H 0.71545 0.16763 0.11186 0.0
H114 H 0.73873 0.19352 0.17283 0.0
H115 H 0.79043 0.19826 0.16761 0.0
H116 H 0.99045 0.2151 0.16527 0.0
H117 H 1.02545 0.1932 0.16838 0.0
H118 H 0.09338 0.26719 0.131 0.0
H119 H 0.05811 0.28861 0.12781 0.0
La120 La 0.33853 0.10489 0.41256 0.0
La121 La 0.37424 0.17265 0.42341 0.0
C122 C 0.29935 0.04667 0.41245 0.0
C123 C 0.26479 0.02673 0.41288 0.0
C124 C 0.24518 0.03581 0.40337 0.0
C125 C 0.21246 1.01632 0.40391 0.0
C126 C 0.19872 0.98755 0.41413 0.0
C127 C 0.2185 0.97885 0.42386 0.0
C128 C 0.25117 0.99823 0.4232 0.0
C129 C 0.36434 0.14232 0.38228 0.0
C130 C 0.30269 0.14432 0.41778 0.0
C131 C 0.40967 0.23133 0.4274 0.0
C132 C 0.44081 0.25985 0.42471 0.0
C133 C 0.45396 0.2804 0.4407 0.0
C134 C 0.4803 0.31019 0.43818 0.0
C135 C 0.49423 0.32025 0.41956 0.0
C136 C 0.48204 0.29906 0.40368 0.0
C137 C 0.45543 0.26918 0.4062 0.0
C138 C 0.34897 0.13197 0.45303 0.0
C139 C 0.41138 0.13674 0.41468 0.0
O140 O 0.31181 0.06326 0.39652 0.0
O141 O 0.31232 0.06287 0.42839 0.0
O142 O 0.36115 0.11462 0.3841 0.0
O143 O 0.35153 0.14778 0.39678 0.0
O144 O 0.3006 0.11636 0.417 0.0
O145 O 0.33006 0.17037 0.41847 0.0
O146 O 0.4066 0.21082 0.44076 0.0
O147 O 0.39232 0.21806 0.41185 0.0
O148 O 0.34992 0.15873 0.45225 0.0
O149 O 0.3625 0.12961 0.43806 0.0
O150 O 0.4115 0.1637 0.41393 0.0
O151 O 0.38487 0.10964 0.41713 0.0
H152 H 0.25512 0.05791 0.3955 0.0
H153 H 0.19789 0.0239 0.39647 0.0
H154 H 0.20875 0.95673 0.43168 0.0
H155 H 0.26586 0.99085 0.43071 0.0
H156 H 0.44303 0.27389 0.45508 0.0
H157 H 0.48938 0.32568 0.45078 0.0
H158 H 0.49217 0.30609 0.38914 0.0
H159 H 0.44569 0.25391 0.39355 0.0
La160 La 0.83116 0.66651 0.13981 0.0
La161 La 0.80138 0.70832 0.14868 0.0
C162 C 0.85097 0.6282 0.13726 0.0
C163 C 0.84994 0.5993 0.14466 0.0
C164 C 0.82962 0.56994 0.1361 0.0
C165 C 0.83323 0.54394 0.14004 0.0
C166 C 0.85742 0.54679 0.15249 0.0
C167 C 0.8767 0.57576 0.16178 0.0
C168 C 0.87306 0.60169 0.15788 0.0
C169 C 0.8149 0.68961 0.10945 0.0
C170 C 0.76007 0.63502 0.15353 0.0
C171 C 0.7818 0.74567 0.14141 0.0
C172 C 0.79408 0.77972 0.14448 0.0
C173 C 0.791 0.7916 0.16264 0.0
C174 C 0.80363 0.82397 0.16528 0.0
C175 C 0.81971 0.8451 0.14985 0.0
C176 C 0.82237 0.83313 0.13166 0.0
C177 C 0.80955 0.80086 0.12897 0.0
C178 C 0.82389 0.69812 0.18158 0.0
C179 C 0.87601 0.7388 0.14418 0.0
O180 O 0.82706 0.62564 0.12713 0.0
O181 O 0.86379 0.65323 0.1485 0.0
O182 O 0.83948 0.68641 0.10965 0.0
O183 O 0.8006 0.67931 0.12538 0.0
O184 O 0.78634 0.6336 0.15343 0.0
O185 O 0.7597 0.66136 0.14965 0.0
O186 O 0.77296 0.72724 0.15696 0.0
O187 O 0.79777 0.73881 0.12889 0.0
O188 O 0.81071 0.71528 0.18043 0.0
O189 O 0.82412 0.68823 0.16453 0.0
O190 O 0.8513 0.74292 0.1431 0.0
O191 O 0.87319 0.71069 0.14523 0.0
H192 H 0.81191 0.56735 0.12559 0.0
H193 H 0.81812 0.52207 0.1325 0.0
H194 H 0.89525 0.57866 0.17168 0.0
H195 H 0.88938 0.62402 0.16454 0.0
H196 H 0.77904 0.77596 0.17485 0.0
H197 H 0.80125 0.83252 0.17948 0.0
H198 H 0.83407 0.84872 0.11937 0.0
H199 H 0.81194 0.79248 0.1147 0.0
La200 La 0.93892 0.24258 0.41069 0.0
La201 La 0.87128 0.20666 0.42199 0.0
C202 C 0.99748 0.26382 0.40985 0.0
C203 C 1.01818 0.25011 0.41086 0.0
C204 C 1.00947 0.22078 0.40242 0.0
C205 C 0.02969 0.20844 0.40344 0.0
C206 C 0.05898 0.22512 0.41299 0.0
C207 C 0.06719 0.2542 0.42174 0.0
C208 C 0.04705 0.26654 0.42064 0.0
C209 C 0.90046 0.23099 0.38096 0.0
C210 C 0.90278 0.16721 0.41358 0.0
C211 C 0.81237 0.18076 0.42634 0.0
C212 C 0.78395 0.18378 0.42474 0.0
C213 C 0.76341 0.17464 0.44086 0.0
C214 C 0.7339 0.17212 0.43911 0.0
C215 C 0.72411 0.17864 0.42114 0.0
C216 C 0.74527 0.18916 0.4052 0.0
C217 C 0.77487 0.19159 0.40695 0.0
C218 C 0.91272 0.2216 0.45103 0.0
C219 C 0.90419 0.28048 0.41505 0.0
O220 O 0.98003 0.25761 0.3941 0.0
O221 O 0.98189 0.26174 0.4259 0.0
O222 O 0.92756 0.25628 0.38297 0.0
O223 O 0.8963 0.21216 0.39492 0.0
O224 O 0.92999 0.19393 0.41415 0.0
O225 O 0.87584 0.16677 0.4144 0.0
O226 O 0.83261 0.19627 0.44029 0.0
O227 O 0.82607 0.17965 0.4101 0.0
O228 O 0.88672 0.195 0.44984 0.0
O229 O 0.91395 0.23834 0.43678 0.0
O230 O 0.87788 0.25292 0.41472 0.0
O231 O 0.93213 0.28257 0.41611 0.0
H232 H 0.98715 0.20748 0.39492 0.0
H233 H 1.0226 0.18612 0.39641 0.0
H234 H 0.08917 0.26743 0.42961 0.0
H235 H 0.05406 0.28901 0.42745 0.0
H236 H 0.76975 0.16831 0.4547 0.0
H237 H 0.71849 0.16455 0.45179 0.0
H238 H 0.73846 0.19426 0.39112 0.0
H239 H 0.79013 0.19852 0.39421 0.0
La240 La 0.11051 0.32721 0.64877 0.0
La241 La 0.18259 0.36453 0.63905 0.0
C242 C 0.05273 0.29238 0.64224 0.0
C243 C 0.02932 0.25941 0.64636 0.0
C244 C 0.03759 0.23993 0.65677 0.0
C245 C 1.01623 0.20768 0.65847 0.0
C246 C 0.98626 0.19435 0.64974 0.0
C247 C 0.97802 0.21425 0.63967 0.0
C248 C 0.99936 0.24642 0.63799 0.0
C249 C 0.14399 0.33836 0.68141 0.0
C250 C 0.15093 0.29248 0.64679 0.0
C251 C 0.24116 0.39943 0.63522 0.0
C252 C 0.27021 0.42966 0.63884 0.0
C253 C 0.29136 0.4433 0.62318 0.0
C254 C 0.32122 0.46917 0.62628 0.0
C255 C 0.3307 0.48217 0.64516 0.0
C256 C 0.30899 0.46942 0.66075 0.0
C257 C 0.27901 0.4432 0.65765 0.0
C258 C 0.14209 0.33967 0.60941 0.0
C259 C 0.14663 0.40129 0.65036 0.0
O260 O 0.06383 0.31158 0.65734 0.0
O261 O 0.07488 0.29608 0.62998 0.0
O262 O 0.11352 0.3224 0.68076 0.0
O263 O 0.1536 0.34652 0.66407 0.0
O264 O 0.12289 0.29012 0.64499 0.0
O265 O 0.17743 0.31973 0.64693 0.0
O266 O 0.22063 0.39896 0.6227 0.0
O267 O 0.22796 0.37991 0.64997 0.0
O268 O 0.16892 0.34069 0.61012 0.0
O269 O 0.13942 0.35264 0.62458 0.0
O270 O 0.1736 0.40125 0.64942 0.0
O271 O 0.11878 0.37533 0.64833 0.0
H272 H 0.0608 0.24953 0.66315 0.0
H273 H 1.02328 0.19318 0.6665 0.0
H274 H 0.95543 0.20484 0.63246 0.0
H275 H 0.99277 0.26102 0.62963 0.0
H276 H 0.28517 0.43318 0.60857 0.0
H277 H 0.33715 0.47873 0.6139 0.0
H278 H 0.31563 0.4789 0.67547 0.0
H279 H 0.26317 0.43302 0.67002 0.0
La280 La 0.21918 0.85994 0.92424 0.0
La281 La 0.25049 0.93132 0.91371 0.0
C282 C 0.19769 0.80182 0.92854 0.0
C283 C 0.19871 0.77288 0.92437 0.0
C284 C 0.19198 0.75163 0.93988 0.0
C285 C 0.18784 0.72183 0.93639 0.0
C286 C 0.19045 0.71256 0.91727 0.0
C287 C 0.19867 0.73438 0.9018 0.0
C288 C 0.20256 0.7643 0.90529 0.0
C289 C 0.23583 0.90083 0.95367 0.0
C290 C 0.29062 0.89762 0.91067 0.0
C291 C 0.27229 0.989 0.91976 0.0
C292 C 0.26225 1.01199 0.9156 0.0
C293 C 0.23412 1.0032 0.90551 0.0
C294 C 0.22295 0.02431 0.90374 0.0
C295 C 0.23971 0.05452 0.91209 0.0
C296 C 0.2682 0.06325 0.92186 0.0
C297 C 0.27931 0.04217 0.9236 0.0
C298 C 0.22711 0.89706 0.88154 0.0
C299 C 0.17571 0.88876 0.91874 0.0
O300 O 0.2194 0.82312 0.93994 0.0
O301 O 0.18867 0.81398 0.91454 0.0
O302 O 0.21085 0.87333 0.95373 0.0
O303 O 0.25037 0.90394 0.93791 0.0
O304 O 0.26421 0.87019 0.91196 0.0
O305 O 0.29155 0.92492 0.91313 0.0
O306 O 0.28048 0.97798 0.90467 0.0
O307 O 0.25423 0.9669 0.93219 0.0
O308 O 0.24087 0.92749 0.88199 0.0
O309 O 0.2268 0.8877 0.89885 0.0
O310 O 0.20084 0.91741 0.91876 0.0
O311 O 0.17769 0.86296 0.91876 0.0
H312 H 0.18877 0.75768 0.95469 0.0
H313 H 0.18203 0.70577 0.94866 0.0
H314 H 0.20081 0.72787 0.88691 0.0
H315 H 0.2076 0.78026 0.89306 0.0
H316 H 0.22046 0.9798 0.89941 0.0
H317 H 0.20111 1.01689 0.89596 0.0
H318 H 0.28147 0.08604 0.92878 0.0
H319 H 0.30079 0.04915 0.93172 0.0
La320 La 0.71653 0.79273 0.64903 0.0
La321 La 0.6746 0.82243 0.63936 0.0
C322 C 0.75322 0.77209 0.64233 0.0
C323 C 0.7865 0.7827 0.64611 0.0
C324 C 0.80501 0.80934 0.65767 0.0
C325 C 0.83748 0.82137 0.65917 0.0
C326 C 0.85197 0.80713 0.64895 0.0
C327 C 0.8331 0.78004 0.63773 0.0
C328 C 0.80069 0.76798 0.63632 0.0
C329 C 0.70534 0.81521 0.68153 0.0
C330 C 0.74689 0.86737 0.64427 0.0
C331 C 0.63669 0.84252 0.63575 0.0
C332 C 0.60605 0.83993 0.64019 0.0
C333 C 0.58916 0.84292 0.62453 0.0
C334 C 0.56253 0.84545 0.62799 0.0
C335 C 0.55189 0.84492 0.64728 0.0
C336 C 0.56829 0.84085 0.663 0.0
C337 C 0.59519 0.83848 0.6595 0.0
C338 C 0.69894 0.80656 0.60952 0.0
C339 C 0.64269 0.75091 0.65242 0.0
O340 O 0.73431 0.76349 0.65761 0.0
O341 O 0.74851 0.78997 0.63012 0.0
O342 O 0.72274 0.80226 0.68079 0.0
O343 O 0.69584 0.81522 0.66432 0.0
O344 O 0.75115 0.84271 0.64357 0.0
O345 O 0.71872 0.86451 0.64486 0.0
O346 O 0.63716 0.82174 0.62391 0.0
O347 O 0.65794 0.8516 0.64972 0.0
O348 O 0.69581 0.83119 0.60959 0.0
O349 O 0.68808 0.79209 0.62536 0.0
O350 O 0.64078 0.77687 0.65165 0.0
O351 O 0.66947 0.75091 0.64948 0.0
H352 H 0.79447 0.82131 0.66508 0.0
H353 H 0.85137 0.84241 0.66778 0.0
H354 H 0.84345 0.76826 0.6299 0.0
H355 H 0.7868 0.74759 0.62717 0.0
H356 H 0.59734 0.8446 0.60953 0.0
H357 H 0.5511 0.84915 0.61549 0.0
H358 H 0.5606 0.83991 0.67804 0.0
H359 H 0.60789 0.83634 0.67188 0.0
La360 La 0.18303 0.36732 0.92202 0.0
La361 La 0.11111 0.32627 0.91318 0.0
C362 C 0.24141 0.40473 0.92429 0.0
C363 C 0.26945 0.43307 0.91647 0.0
C364 C 0.27829 0.46316 0.92372 0.0
C365 C 0.30792 0.48885 0.91933 0.0
C366 C 0.32947 0.48495 0.90777 0.0
C367 C 0.31999 0.45517 0.89978 0.0
C368 C 0.2904 0.42956 0.90411 0.0
C369 C 0.14378 0.34428 0.95241 0.0
C370 C 0.14431 0.39983 0.90874 0.0
C371 C 0.05368 0.29076 0.92021 0.0
C372 C 0.03061 0.25764 0.9164 0.0
C373 C 0.03916 0.23828 0.90616 0.0
C374 C 1.01798 0.20601 0.90451 0.0
C375 C 0.98795 0.19258 0.91312 0.0
C376 C 0.97946 0.21236 0.92307 0.0
C377 C 1.00062 0.24455 0.92468 0.0
C378 C 0.14382 0.33633 0.8803 0.0
C379 C 0.15422 0.29478 0.91756 0.0
O380 O 0.22051 0.4081 0.93436 0.0
O381 O 0.22861 0.37937 0.91335 0.0
O382 O 0.17154 0.34742 0.95217 0.0
O383 O 0.1398 0.35477 0.93655 0.0
O384 O 0.17179 0.40083 0.90862 0.0
O385 O 0.11744 0.37367 0.91266 0.0
O386 O 0.06415 0.30959 0.90489 0.0
O387 O 0.07622 0.29511 0.93236 0.0
O388 O 0.11345 0.31933 0.8814 0.0
O389 O 0.15388 0.34605 0.89738 0.0
O390 O 0.12555 0.29106 0.91879 0.0
O391 O 0.17978 0.32271 0.91638 0.0
H392 H 0.26296 0.46665 0.93352 0.0
H393 H 0.31454 0.51141 0.92584 0.0
H394 H 0.3358 0.45143 0.89058 0.0
H395 H 0.28453 0.40666 0.89848 0.0
H396 H 0.06242 0.24801 0.89983 0.0
H397 H 1.02519 0.19157 0.89659 0.0
H398 H 0.9568 0.20283 0.93018 0.0
H399 H 0.99383 0.2591 0.93289 0.0
La400 La 0.25128 0.93346 0.64924 0.0
La401 La 0.22041 0.86152 0.64042 0.0
C402 C 0.27122 0.99046 0.64188 0.0
C403 C 0.25955 1.01269 0.64492 0.0
C404 C 0.2591 0.02476 0.66359 0.0
C405 C 0.24654 0.04462 0.66599 0.0
C406 C 0.23397 0.05252 0.64981 0.0
C407 C 0.2349 0.04081 0.63115 0.0
C408 C 0.24774 0.02135 0.62871 0.0
C409 C 0.2288 0.90066 0.68215 0.0
C410 C 0.1765 0.88997 0.64532 0.0
C411 C 0.20009 0.80327 0.63798 0.0
C412 C 0.20086 0.77527 0.64543 0.0
C413 C 0.22161 0.76642 0.63732 0.0
C414 C 0.21791 0.73679 0.64131 0.0
C415 C 0.1932 0.71519 0.65335 0.0
C416 C 0.17343 0.72467 0.6622 0.0
C417 C 0.17717 0.75428 0.65825 0.0
C418 C 0.23658 0.90083 0.60997 0.0
C419 C 0.29175 0.90065 0.6539 0.0
O420 O 0.28025 0.98086 0.65734 0.0
O421 O 0.25448 0.96752 0.6296 0.0
O422 O 0.24227 0.93104 0.68108 0.0
O423 O 0.22835 0.89066 0.66504 0.0
O424 O 0.20147 0.91859 0.64399 0.0
O425 O 0.17878 0.86436 0.64624 0.0
O426 O 0.22407 0.82445 0.62782 0.0
O427 O 0.18748 0.81571 0.64919 0.0
O428 O 0.21198 0.87305 0.61028 0.0
O429 O 0.25104 0.90478 0.62585 0.0
O430 O 0.26525 0.87315 0.65394 0.0
O431 O 0.29258 0.92755 0.64989 0.0
H432 H 0.26809 0.01863 0.67637 0.0
H433 H 0.24611 0.05331 0.68055 0.0
H434 H 0.22593 0.04694 0.61835 0.0
H435 H 0.24809 1.01272 0.6141 0.0
H436 H 0.2398 0.78176 0.62713 0.0
H437 H 0.23342 0.73021 0.63412 0.0
H438 H 0.15447 0.70884 0.67178 0.0
H439 H 0.16051 0.76013 0.66455 0.0
La440 La 0.67528 0.82289 0.92327 0.0
La441 La 0.71584 0.79237 0.91274 0.0
C442 C 0.63768 0.84342 0.92693 0.0
C443 C 0.60961 0.84371 0.91914 0.0
C444 C 0.5794 0.82257 0.9263 0.0
C445 C 0.55391 0.82682 0.92192 0.0
C446 C 0.55812 0.8525 0.91045 0.0
C447 C 0.58804 0.87277 0.90258 0.0
C448 C 0.61346 0.86848 0.9069 0.0
C449 C 0.69891 0.80556 0.9528 0.0
C450 C 0.64237 0.75244 0.90826 0.0
C451 C 0.75229 0.77114 0.91814 0.0
C452 C 0.78605 0.78329 0.91448 0.0
C453 C 0.79624 0.76333 0.90704 0.0
C454 C 0.82834 0.77421 0.90458 0.0
C455 C 0.85094 0.80525 0.90965 0.0
C456 C 0.84052 0.82535 0.91671 0.0
C457 C 0.80848 0.81453 0.91903 0.0
C458 C 0.70512 0.81621 0.88061 0.0
C459 C 0.74752 0.86683 0.91805 0.0
O460 O 0.63398 0.81809 0.93584 0.0
O461 O 0.66355 0.85732 0.91649 0.0
O462 O 0.69585 0.8302 0.95314 0.0
O463 O 0.68797 0.79156 0.93684 0.0
O464 O 0.64166 0.77902 0.90914 0.0
O465 O 0.66847 0.75128 0.91154 0.0
O466 O 0.73401 0.76411 0.90264 0.0
O467 O 0.74582 0.78616 0.93159 0.0
O468 O 0.72204 0.80276 0.88107 0.0
O469 O 0.69585 0.81611 0.89789 0.0
O470 O 0.75122 0.84185 0.91876 0.0
O471 O 0.71958 0.86446 0.91736 0.0
H472 H 0.57567 0.80354 0.93602 0.0
H473 H 0.53125 0.8109 0.92836 0.0
H474 H 0.59202 0.89249 0.89345 0.0
H475 H 0.63645 0.88545 0.90133 0.0
H476 H 0.77936 0.73921 0.90335 0.0
H477 H 0.83544 0.75821 0.89878 0.0
H478 H 0.85711 0.84923 0.92102 0.0
H479 H 0.80133 0.8305 0.9248 0.0
C480 C 0.08773 0.20266 0.16847 0.0
C481 C 0.08278 0.21416 0.15067 0.0
C482 C 0.10785 0.19019 0.16924 0.0
C483 C 0.14774 0.15848 0.13805 0.0
H484 H 0.20841 0.18672 0.18058 0.0
C485 C 0.24372 0.12216 0.14514 0.0
C486 C 0.27412 0.14752 0.14862 0.0
C487 C 0.21744 0.12618 0.14669 0.0
C488 C 0.19154 0.17851 0.16864 0.0
H489 H 0.09424 0.22045 0.11959 0.0
H490 H 0.12956 0.19918 0.12098 0.0
H491 H 0.16779 0.20133 0.18041 0.0
H492 H 0.3005 0.19671 0.15701 0.0
H493 H 0.25514 0.2035 0.15972 0.0
H494 H 0.17231 0.13655 0.12597 0.0
C495 C 0.11782 0.19963 0.13434 0.0
C496 C 0.16807 0.18666 0.16863 0.0
C497 C 0.09787 0.21223 0.1336 0.0
C498 C 0.27753 0.17665 0.15408 0.0
C499 C 0.25142 0.18053 0.15583 0.0
C500 C 0.17116 0.15016 0.13813 0.0
C501 C 0.12331 0.18871 0.1522 0.0
C502 C 0.14626 0.17732 0.15313 0.0
C503 C 0.22107 0.15547 0.15207 0.0
C504 C 0.19377 0.16071 0.15319 0.0
H505 H 0.07658 0.20389 0.18191 0.0
H506 H 0.11136 0.18177 0.1832 0.0
H507 H 0.13106 0.15055 0.12602 0.0
H508 H 0.24027 0.09941 0.14094 0.0
H509 H 0.1943 0.10638 0.14378 0.0
C510 C 0.14621 0.96064 0.39705 0.0
C511 C 0.16397 0.9663 0.41435 0.0
C512 C 0.11387 0.93923 0.39699 0.0
C513 C 0.04422 0.8963 0.42936 0.0
H514 H 1.01246 0.83584 0.38676 0.0
C515 C 0.91219 0.79932 0.42148 0.0
C516 C 0.90711 0.76909 0.41736 0.0
C517 C 0.9426 0.82558 0.42062 0.0
C518 C 1.02093 0.85258 0.39875 0.0
H519 H 0.16133 0.95475 0.44535 0.0
H520 H 0.10496 0.9173 0.44522 0.0
H521 H 0.06717 0.87787 0.38648 0.0
H522 H 0.93018 0.743 0.40889 0.0
H523 H 0.9826 0.78842 0.40735 0.0
H524 H 0.99798 0.8704 0.44183 0.0
C525 C 0.11603 0.92946 0.43169 0.0
C526 C 0.05224 0.87686 0.3985 0.0
C527 C 0.14841 0.95068 0.43172 0.0
C528 C 0.93306 0.76583 0.41222 0.0
C529 C 0.96321 0.79197 0.41117 0.0
C530 C 1.01275 0.87211 0.42953 0.0
C531 C 0.09841 0.92315 0.41427 0.0
C532 C 0.06443 0.89877 0.41394 0.0
C533 C 0.96843 0.82216 0.41535 0.0
C534 C 1.00091 0.84964 0.41438 0.0
H535 H 0.15747 0.9721 0.3834 0.0
H536 H 0.10096 0.93513 0.38336 0.0
H537 H 0.05279 0.91297 0.44139 0.0
H538 H 0.89275 0.80268 0.42548 0.0
H539 H 0.94586 0.84859 0.42384 0.0
C540 C 0.92431 0.13152 0.14516 0.0
C541 C 0.89928 0.13656 0.14971 0.0
C542 C 0.92076 0.1015 0.14721 0.0
C543 C 0.87231 0.02508 0.17206 0.0
H544 H 0.891 0.98908 0.12697 0.0
C545 C 0.81602 0.89146 0.16179 0.0
C546 C 0.83334 0.87951 0.15249 0.0
C547 C 0.8281 0.92387 0.16321 0.0
C548 C 0.88617 0.99886 0.13987 0.0
H549 H 0.85144 0.11437 0.16075 0.0
H550 H 0.84549 0.06262 0.16441 0.0
H551 H 0.90617 0.04452 0.12666 0.0
H552 H 0.87747 0.89221 0.13811 0.0
H553 H 0.89878 0.94877 0.14082 0.0
H554 H 0.852 0.97953 0.18523 0.0
C555 C 0.86777 0.08163 0.15921 0.0
C556 C 0.89489 0.03067 0.13966 0.0
C557 C 0.87112 0.11131 0.15691 0.0
C558 C 0.86336 0.90071 0.14509 0.0
C559 C 0.87554 0.93313 0.14662 0.0
C560 C 0.8638 0.99338 0.17233 0.0
C561 C 0.89237 0.07625 0.15421 0.0
C562 C 0.88735 0.0439 0.15556 0.0
C563 C 0.85792 0.94516 0.1555 0.0
C564 C 0.86991 0.97964 0.15604 0.0
H565 H 0.94631 0.15054 0.13963 0.0
H566 H 0.94016 0.09801 0.14332 0.0
H567 H 0.8666 0.03476 0.18465 0.0
H568 H 0.79268 0.87574 0.16742 0.0
H569 H 0.81359 0.93219 0.16984 0.0
C570 C 0.27784 0.17775 0.41631 0.0
C571 C 0.27416 0.14752 0.4175 0.0
C572 C 0.25193 0.18203 0.41666 0.0
C573 C 0.16676 0.1441 0.40833 0.0
H574 H 0.17712 0.21581 0.43828 0.0
C575 C 0.07029 0.18038 0.41604 0.0
C576 C 0.08118 0.2127 0.41363 0.0
C577 C 0.09149 0.16918 0.41713 0.0
C578 C 0.17387 0.19577 0.42977 0.0
H579 H 0.23985 0.09788 0.41947 0.0
H580 H 0.19403 0.1055 0.42019 0.0
H581 H 0.21764 0.20127 0.43955 0.0
H582 H 0.12305 0.25821 0.40957 0.0
H583 H 0.15973 0.23882 0.41185 0.0
H584 H 0.12284 0.13895 0.3985 0.0
C585 C 0.21733 0.12584 0.41897 0.0
C586 C 0.1971 0.18741 0.4305 0.0
C587 C 0.24354 0.12148 0.41861 0.0
C588 C 0.11374 0.23333 0.41197 0.0
C589 C 0.13483 0.22219 0.41321 0.0
C590 C 0.14328 0.15243 0.4077 0.0
C591 C 0.22135 0.15629 0.41829 0.0
C592 C 0.19434 0.16205 0.41936 0.0
C593 C 0.12404 0.19006 0.416 0.0
C594 C 0.14704 0.1789 0.41801 0.0
H595 H 0.3009 0.19845 0.41515 0.0
H596 H 0.25594 0.20574 0.41556 0.0
H597 H 0.16393 0.12449 0.39955 0.0
H598 H 0.04542 0.16379 0.41755 0.0
H599 H 0.08247 0.1443 0.41937 0.0
C600 C 0.14632 0.96742 0.14814 0.0
C601 C 0.16794 0.95696 0.15122 0.0
C602 C 0.11396 0.94599 0.14734 0.0
C603 C 0.05902 0.86286 0.13629 0.0
H604 H 0.99626 0.87532 0.16279 0.0
C605 C 0.93404 0.76134 0.14694 0.0
C606 C 0.90842 0.7663 0.14454 0.0
C607 C 0.96475 0.78645 0.14715 0.0
C608 C 1.01346 0.87174 0.15506 0.0
H609 H 0.17213 0.91581 0.15693 0.0
H610 H 0.11598 0.87859 0.15532 0.0
H611 H 0.05189 0.91584 0.16487 0.0
H612 H 0.89528 0.80202 0.14076 0.0
H613 H 0.94949 0.84629 0.14096 0.0
H614 H 1.02103 0.81899 0.12646 0.0
C615 C 0.12407 0.90331 0.15318 0.0
C616 C 0.04532 0.8949 0.1563 0.0
C617 C 0.1563 0.92467 0.15408 0.0
C618 C 0.91444 0.79733 0.14258 0.0
C619 C 0.94547 0.82268 0.14278 0.0
C620 C 0.02736 0.83993 0.13498 0.0
C621 C 0.10254 0.91362 0.14948 0.0
C622 C 0.06849 0.89035 0.14727 0.0
C623 C 0.97099 0.81743 0.14487 0.0
C624 C 1.0042 0.84368 0.14471 0.0
H625 H 0.15442 0.99207 0.14567 0.0
H626 H 0.09799 0.95465 0.14438 0.0
H627 H 0.07619 0.85899 0.12874 0.0
H628 H 0.93053 0.73791 0.14872 0.0
H629 H 0.98369 0.78151 0.14928 0.0
C630 C 0.81929 0.89242 0.39906 0.0
C631 C 0.83382 0.87967 0.41065 0.0
C632 C 0.83227 0.92497 0.39759 0.0
C633 C 0.88665 0.99901 0.42362 0.0
H634 H 0.87607 0.03666 0.37621 0.0
C635 C 0.92643 0.13219 0.41695 0.0
C636 C 0.90167 0.13681 0.41094 0.0
C637 C 0.92352 0.10235 0.41539 0.0
C638 C 0.87936 0.02649 0.38952 0.0
H639 H 0.87408 0.89101 0.42912 0.0
H640 H 0.89716 0.9478 0.42624 0.0
H641 H 0.86093 0.98128 0.3762 0.0
H642 H 0.85521 0.11431 0.39774 0.0
H643 H 0.8505 0.06298 0.39478 0.0
H644 H 0.90484 0.04441 0.43689 0.0
C645 C 0.87526 0.93274 0.41869 0.0
C646 C 0.87045 0.99469 0.38958 0.0
C647 C 0.86209 0.90018 0.42031 0.0
C648 C 0.87462 0.1115 0.4027 0.0
C649 C 0.87198 0.08208 0.40083 0.0
C650 C 0.89586 0.03095 0.42347 0.0
C651 C 0.86034 0.94561 0.40751 0.0
C652 C 0.87314 0.98027 0.40679 0.0
C653 C 0.89616 0.07701 0.40736 0.0
C654 C 0.8915 0.04478 0.40658 0.0
H655 H 0.79731 0.8772 0.39161 0.0
H656 H 0.81973 0.93388 0.38913 0.0
H657 H 0.88882 0.98876 0.43721 0.0
H658 H 0.94757 0.15131 0.42332 0.0
H659 H 0.94254 0.09904 0.42051 0.0
C660 C 0.23584 0.10112 0.66297 0.0
C661 C 0.22007 0.07309 0.65219 0.0
C662 C 0.22369 0.12143 0.66411 0.0
C663 C 0.16926 0.14108 0.63813 0.0
H664 H 0.18264 0.19227 0.68442 0.0
C665 C 0.12912 0.23409 0.64341 0.0
C666 C 0.15335 0.26384 0.64932 0.0
C667 C 0.13282 0.20768 0.64516 0.0
C668 C 0.17866 0.17806 0.6714 0.0
H669 H 0.17851 0.04366 0.63486 0.0
H670 H 0.15693 0.07869 0.63717 0.0
H671 H 0.19727 0.15167 0.6851 0.0
H672 H 0.19986 0.28893 0.66241 0.0
H673 H 0.20603 0.24317 0.66559 0.0
H674 H 0.15081 0.1678 0.62446 0.0
C675 C 0.17912 0.0855 0.64432 0.0
C676 C 0.18723 0.15491 0.67173 0.0
C677 C 0.19143 0.06536 0.64304 0.0
C678 C 0.18082 0.26644 0.65753 0.0
C679 C 0.18428 0.24014 0.65954 0.0
C680 C 0.16043 0.16408 0.63787 0.0
C681 C 0.19529 0.11403 0.65465 0.0
C682 C 0.18334 0.13659 0.65495 0.0
C683 C 0.16052 0.21052 0.65321 0.0
C684 C 0.16573 0.18329 0.65435 0.0
H685 H 0.25812 0.10786 0.67 0.0
H686 H 0.23713 0.1434 0.67192 0.0
H687 H 0.16621 0.12774 0.62484 0.0
H688 H 0.10766 0.23135 0.63707 0.0
H689 H 0.11408 0.18506 0.64023 0.0
C690 C 0.1384 0.90925 0.91277 0.0
C691 C 0.1437 0.88462 0.91804 0.0
C692 C 0.10759 0.90368 0.91059 0.0
C693 C 0.02712 0.83801 0.90113 0.0
H694 H 0.99884 0.89295 0.92201 0.0
C695 C 0.89659 0.79608 0.91346 0.0
C696 C 0.88521 0.8163 0.90838 0.0
C697 C 0.92875 0.80658 0.913 0.0
C698 C 1.00651 0.8776 0.91587 0.0
H699 H 0.12075 0.83529 0.92619 0.0
H700 H 0.06781 0.82591 0.92266 0.0
H701 H 0.05442 0.9082 0.92455 0.0
H702 H 0.89904 0.86348 0.89851 0.0
H703 H 0.95534 0.88191 0.89803 0.0
H704 H 0.97934 0.80712 0.89282 0.0
C705 C 0.08718 0.84928 0.91965 0.0
C706 C 0.03832 0.88635 0.91731 0.0
C707 C 0.11768 0.85476 0.92178 0.0
C708 C 0.90694 0.84735 0.90278 0.0
C709 C 0.93921 0.85794 0.90247 0.0
C710 C 0.99547 0.82926 0.89976 0.0
C711 C 0.08167 0.87341 0.91363 0.0
C712 C 0.04881 0.86625 0.91037 0.0
C713 C 0.95045 0.83765 0.90756 0.0
C714 C 0.98465 0.8486 0.90748 0.0
H715 H 0.15794 0.93253 0.90979 0.0
H716 H 0.10408 0.92279 0.90597 0.0
H717 H 0.03456 0.82235 0.89518 0.0
H718 H 0.88073 0.77226 0.91827 0.0
H719 H 0.93671 0.79051 0.91734 0.0
C720 C 0.80549 0.90592 0.64343 0.0
C721 C 0.77434 0.89982 0.64461 0.0
C722 C 0.83077 0.93699 0.64357 0.0
C723 C 0.84804 0.01853 0.63411 0.0
H724 H 0.92276 0.04423 0.66564 0.0
C725 C 0.9315 0.14805 0.6525 0.0
C726 C 0.96397 0.15978 0.65046 0.0
C727 C 0.91029 0.11578 0.65168 0.0
C728 C 0.90216 0.03733 0.65661 0.0
H729 H 0.74565 0.92187 0.64735 0.0
H730 H 0.78911 0.97509 0.6478 0.0
H731 H 0.88252 0.9885 0.66379 0.0
H732 H 0.99949 0.14638 0.64641 0.0
H733 H 0.96231 0.08991 0.64527 0.0
H734 H 0.86715 0.06714 0.62718 0.0
C735 C 0.79422 0.95616 0.64633 0.0
C736 C 0.87917 1.00541 0.6555 0.0
C737 C 0.76918 0.92542 0.64619 0.0
C738 C 0.9747 0.13822 0.64824 0.0
C739 C 0.9534 0.10584 0.64753 0.0
C740 C 0.87081 0.05026 0.63529 0.0
C741 C 0.82533 0.96248 0.64482 0.0
C742 C 0.85151 0.99573 0.64455 0.0
C743 C 0.92091 0.0943 0.64889 0.0
C744 C 0.89786 0.06016 0.64684 0.0
H745 H 0.81034 0.88679 0.64228 0.0
H746 H 0.85449 0.94107 0.64237 0.0
H747 H 0.82743 1.01187 0.62513 0.0
H748 H 0.9224 0.16383 0.65466 0.0
H749 H 0.88544 0.10763 0.6532 0.0
C750 C 0.13334 0.23611 0.91897 0.0
C751 C 0.15868 0.26704 0.91729 0.0
C752 C 0.13866 0.21054 0.91891 0.0
C753 C 0.20242 0.19249 0.92791 0.0
H754 H 0.15237 0.11755 0.89685 0.0
C755 C 0.2478 0.10901 0.9088 0.0
C756 C 0.22724 0.07661 0.91131 0.0
C757 C 0.2367 0.13014 0.90969 0.0
C758 C 0.16634 0.13821 0.90575 0.0
H759 H 0.20938 0.29503 0.91374 0.0
H760 H 0.2183 0.25109 0.91345 0.0
H761 H 0.13724 0.15804 0.89878 0.0
H762 H 0.17851 0.04107 0.91618 0.0
H763 H 0.15907 0.07813 0.91744 0.0
H764 H 0.23186 0.17323 0.93459 0.0
C765 C 0.19444 0.24638 0.91524 0.0
C766 C 0.15763 0.16134 0.90691 0.0
C767 C 0.1892 0.27169 0.91529 0.0
C768 C 0.195 0.06582 0.914 0.0
C769 C 0.18384 0.08703 0.91478 0.0
C770 C 0.21116 0.1696 0.92667 0.0
C771 C 0.16938 0.2155 0.91727 0.0
C772 C 0.17603 0.18909 0.91765 0.0
C773 C 0.20469 0.11948 0.91302 0.0
C774 C 0.19366 0.1425 0.91526 0.0
H775 H 0.10952 0.23166 0.92045 0.0
H776 H 0.11884 0.18699 0.9205 0.0
H777 H 0.21668 0.21319 0.93673 0.0
H778 H 0.27263 0.11813 0.90625 0.0
H779 H 0.25327 0.15495 0.90785 0.0
C780 C 0.13922 0.9112 0.64312 0.0
C781 C 0.14454 0.886 0.64647 0.0
C782 C 0.10874 0.90674 0.64436 0.0
C783 C 0.0305 0.8534 0.6658 0.0
H784 H 0.99833 0.88374 0.62431 0.0
C785 C 0.90348 0.83168 0.6672 0.0
C786 C 0.88669 0.82082 0.64948 0.0
C787 C 0.93599 0.84358 0.66768 0.0
C788 C 1.007 0.87514 0.63602 0.0
H789 H 0.12183 0.8364 0.65391 0.0
H790 H 0.06929 0.82884 0.65604 0.0
H791 H 0.05342 0.89711 0.62377 0.0
H792 H 0.89113 0.81513 0.61822 0.0
H793 H 0.94764 0.83549 0.61909 0.0
H794 H 0.98401 0.83064 0.67776 0.0
C795 C 0.08855 0.85207 0.65259 0.0
C796 C 0.03862 0.88306 0.63581 0.0
C797 C 0.11877 0.85641 0.65119 0.0
C798 C 0.90328 0.82287 0.63217 0.0
C799 C 0.93576 0.83493 0.63262 0.0
C800 C 0.999 0.84564 0.66608 0.0
C801 C 0.08311 0.87711 0.64922 0.0
C802 C 0.05055 0.87172 0.65048 0.0
C803 C 0.95249 0.84515 0.6504 0.0
C804 C 0.9867 0.85592 0.651 0.0
H805 H 0.15852 0.93429 0.63946 0.0
H806 H 0.10528 0.92653 0.64174 0.0
H807 H 0.03908 0.84459 0.67745 0.0
H808 H 0.89139 0.83033 0.6808 0.0
H809 H 0.94822 0.85149 0.68159 0.0
C810 C 0.97656 0.13658 0.91486 0.0
C811 C 0.96578 0.15805 0.91238 0.0
C812 C 0.95531 0.1042 0.91559 0.0
C813 C 0.87284 0.04883 0.92768 0.0
H814 H 0.88406 0.98688 0.89913 0.0
C815 C 0.77059 0.92492 0.91601 0.0
C816 C 0.77527 0.89905 0.9178 0.0
C817 C 0.7959 0.95548 0.91602 0.0
C818 C 0.88087 1.00386 0.90744 0.0
H819 H 0.92426 0.16203 0.90766 0.0
H820 H 0.88736 0.10582 0.90917 0.0
H821 H 0.92459 0.04255 0.89735 0.0
H822 H 0.81071 0.88533 0.92062 0.0
H823 H 0.85536 0.9393 0.92076 0.0
H824 H 0.8293 1.01058 0.93776 0.0
C825 C 0.9122 0.11404 0.91089 0.0
C826 C 0.90401 0.03571 0.90637 0.0
C827 C 0.93336 0.14628 0.91004 0.0
C828 C 0.80622 0.90467 0.9193 0.0
C829 C 0.83179 0.93556 0.9193 0.0
C830 C 0.84992 1.01717 0.92883 0.0
C831 C 0.92285 0.09265 0.91398 0.0
C832 C 0.89983 0.05858 0.91612 0.0
C833 C 0.8268 0.96131 0.91788 0.0
C834 C 0.85322 0.99435 0.91833 0.0
H835 H 1.00133 0.1448 0.9169 0.0
H836 H 0.96421 0.0883 0.91807 0.0
H837 H 0.8693 0.06577 0.93577 0.0
H838 H 0.74722 0.92174 0.91459 0.0
H839 H 0.79119 0.97466 0.9144 0.0
C840 C 0.39125 0.1535 0.35003 0.0
C841 C 0.37199 0.15849 0.363 0.0
C842 C 0.39479 0.16351 0.3305 0.0
C843 C 0.35146 0.17715 0.29159 0.0
H844 H 0.42768 0.20119 0.26206 0.0
C845 C 0.35106 0.1747 0.20634 0.0
C846 C 0.36393 0.15696 0.19894 0.0
C847 C 0.35676 0.1853 0.22593 0.0
C848 C 0.40622 0.19463 0.27007 0.0
H849 H 0.34232 0.17914 0.36599 0.0
H850 H 0.34833 0.19669 0.33153 0.0
H851 H 0.42906 0.20133 0.29794 0.0
H852 H 0.39369 0.13745 0.20561 0.0
H853 H 0.4044 0.1565 0.23938 0.0
H854 H 0.32837 0.16922 0.26367 0.0
C855 C 0.3607 0.18493 0.33655 0.0
C856 C 0.40699 0.19468 0.29066 0.0
C857 C 0.35747 0.17516 0.3563 0.0
C858 C 0.38402 0.15163 0.21091 0.0
C859 C 0.39009 0.16254 0.23029 0.0
C860 C 0.3507 0.17718 0.27095 0.0
C861 C 0.37892 0.1786 0.32329 0.0
C862 C 0.37939 0.18478 0.30171 0.0
C863 C 0.37568 0.17856 0.23831 0.0
C864 C 0.37784 0.1848 0.25993 0.0
H865 H 0.4027 0.14067 0.3548 0.0
H866 H 0.40865 0.1578 0.32077 0.0
H867 H 0.3297 0.16918 0.29956 0.0
H868 H 0.33492 0.17847 0.19746 0.0
H869 H 0.34541 0.19768 0.23161 0.0
C870 C 0.8495 0.7188 0.34958 0.0
C871 C 0.83554 0.69375 0.36294 0.0
C872 C 0.8564 0.71414 0.33041 0.0
C873 C 0.82673 0.65527 0.29195 0.0
H874 H 0.89907 0.71942 0.26377 0.0
C875 C 0.83007 0.66328 0.20627 0.0
C876 C 0.83669 0.69323 0.20005 0.0
C877 C 0.83616 0.65847 0.22586 0.0
C878 C 0.87881 0.70111 0.2714 0.0
H879 H 0.81837 0.64413 0.36697 0.0
H880 H 0.82986 0.63558 0.3329 0.0
H881 H 0.89873 0.71962 0.29967 0.0
H882 H 0.85622 0.74173 0.20883 0.0
H883 H 0.86771 0.73378 0.2424 0.0
H884 H 0.80609 0.63788 0.26358 0.0
C885 C 0.83591 0.65902 0.33749 0.0
C886 C 0.87863 0.70122 0.29198 0.0
C887 C 0.82962 0.66392 0.35699 0.0
C888 C 0.85118 0.71847 0.21322 0.0
C889 C 0.85782 0.71387 0.23249 0.0
C890 C 0.82689 0.65518 0.27128 0.0
C891 C 0.8489 0.68406 0.32389 0.0
C892 C 0.85205 0.67915 0.30252 0.0
C893 C 0.84959 0.68371 0.23929 0.0
C894 C 0.85239 0.67896 0.26076 0.0
H895 H 0.85401 0.74196 0.35377 0.0
H896 H 0.86596 0.73387 0.32034 0.0
H897 H 0.80582 0.63803 0.2996 0.0
H898 H 0.81841 0.64336 0.19644 0.0
H899 H 0.82956 0.63496 0.23064 0.0
C900 C 0.86886 0.18543 0.20524 0.0
C901 C 0.8869 0.21615 0.19801 0.0
C902 C 0.8578 0.18029 0.22473 0.0
C903 C 0.84773 0.21987 0.26879 0.0
H904 H 0.87384 0.16942 0.29841 0.0
C905 C 0.88891 0.24653 0.34868 0.0
C906 C 0.88438 0.2224 0.36166 0.0
C907 C 0.87882 0.23993 0.32918 0.0
C908 C 0.86566 0.18301 0.29041 0.0
H909 H 0.90636 0.26536 0.2048 0.0
H910 H 0.88646 0.2566 0.23837 0.0
H911 H 0.87381 0.16801 0.26253 0.0
H912 H 0.86434 0.17213 0.3647 0.0
H913 H 0.84661 0.16039 0.33031 0.0
H914 H 0.84082 0.23588 0.29661 0.0
C915 C 0.88057 0.23636 0.22924 0.0
C916 C 0.86564 0.1822 0.26978 0.0
C917 C 0.89198 0.24144 0.20999 0.0
C918 C 0.86803 0.19118 0.355 0.0
C919 C 0.85814 0.18453 0.33529 0.0
C920 C 0.84766 0.22061 0.28937 0.0
C921 C 0.86433 0.20582 0.23713 0.0
C922 C 0.85782 0.20153 0.25871 0.0
C923 C 0.86405 0.20896 0.32202 0.0
C924 C 0.85782 0.20315 0.30046 0.0
H925 H 0.86526 0.16562 0.19635 0.0
H926 H 0.84525 0.15649 0.23033 0.0
H927 H 0.84105 0.23464 0.26073 0.0
H928 H 0.90146 0.27082 0.35343 0.0
H929 H 0.8842 0.25943 0.31944 0.0
C930 C 0.15145 0.31727 0.71261 0.0
C931 C 0.16227 0.34264 0.69952 0.0
C932 C 0.16317 0.32157 0.73174 0.0
C933 C 0.19226 0.38013 0.77048 0.0
H934 H 0.19876 0.315 0.79864 0.0
C935 C 0.18584 0.37086 0.85606 0.0
C936 C 0.16165 0.3411 0.86193 0.0
C937 C 0.19724 0.37577 0.83661 0.0
C938 C 0.19733 0.3336 0.79101 0.0
H939 H 0.19451 0.39238 0.69585 0.0
H940 H 0.21491 0.40028 0.72981 0.0
H941 H 0.19904 0.31534 0.76274 0.0
H942 H 0.13164 0.29297 0.8527 0.0
H943 H 0.15199 0.30109 0.81935 0.0
H944 H 0.18877 0.39731 0.79885 0.0
C945 C 0.19757 0.37689 0.72507 0.0
C946 C 0.19748 0.33379 0.77043 0.0
C947 C 0.18619 0.37236 0.70562 0.0
C948 C 0.15049 0.31608 0.84857 0.0
C949 C 0.16224 0.32076 0.82944 0.0
C950 C 0.19213 0.37995 0.79114 0.0
C951 C 0.18564 0.35158 0.73847 0.0
C952 C 0.1935 0.35619 0.75989 0.0
C953 C 0.18508 0.35081 0.82298 0.0
C954 C 0.19323 0.35582 0.80163 0.0
H955 H 0.13277 0.29418 0.70829 0.0
H956 H 0.15307 0.30163 0.74164 0.0
H957 H 0.18898 0.39763 0.76285 0.0
H958 H 0.19446 0.39061 0.86606 0.0
H959 H 0.21484 0.39919 0.83207 0.0
C960 C 0.22147 0.85626 0.85699 0.0
C961 C 0.21361 0.87858 0.86344 0.0
C962 C 0.21539 0.84544 0.8374 0.0
C963 C 0.17197 0.84481 0.79189 0.0
H964 H 0.2459 0.85692 0.76389 0.0
C965 C 0.20174 0.89347 0.71393 0.0
C966 C 0.21599 0.88277 0.70056 0.0
C967 C 0.19478 0.88164 0.73306 0.0
C968 C 0.22475 0.85266 0.77147 0.0
H969 H 0.19188 0.90576 0.8551 0.0
H970 H 0.18047 0.88648 0.82153 0.0
H971 H 0.24524 0.85581 0.79988 0.0
H972 H 0.23366 0.85076 0.69645 0.0
H973 H 0.22212 0.83029 0.73044 0.0
H974 H 0.15223 0.8436 0.76357 0.0
C975 C 0.19125 0.87711 0.83126 0.0
C976 C 0.22435 0.852 0.79214 0.0
C977 C 0.19781 0.88824 0.85054 0.0
C978 C 0.22218 0.859 0.70644 0.0
C979 C 0.21586 0.84756 0.7259 0.0
C980 C 0.17242 0.84558 0.77131 0.0
C981 C 0.20084 0.85638 0.82417 0.0
C982 C 0.19846 0.84943 0.80261 0.0
C983 C 0.20255 0.85921 0.73952 0.0
C984 C 0.1993 0.85084 0.76085 0.0
H985 H 0.23421 0.84891 0.86659 0.0
H986 H 0.22302 0.82942 0.83243 0.0
H987 H 0.15139 0.84216 0.79945 0.0
H988 H 0.19702 0.91201 0.70979 0.0
H989 H 0.18496 0.89147 0.74315 0.0
C990 C 0.66974 0.82087 0.70578 0.0
C991 C 0.69998 0.82819 0.69974 0.0
C992 C 0.66459 0.82706 0.72524 0.0
C993 C 0.70605 0.8712 0.77061 0.0
H994 H 0.64482 0.79751 0.79912 0.0
C995 C 0.725 0.84538 0.84949 0.0
C996 C 0.69975 0.82949 0.86252 0.0
C997 C 0.72006 0.85193 0.83027 0.0
C998 C 0.6615 0.81861 0.7914 0.0
H999 H 0.7486 0.84908 0.70867 0.0
H1000 H 0.74001 0.86085 0.74203 0.0
H1001 H 0.64486 0.79717 0.76313 0.0
H1002 H 0.64947 0.80861 0.86595 0.0
H1003 H 0.64051 0.81969 0.83188 0.0
H1004 H 0.72378 0.89208 0.79878 0.0
C1005 C 0.72016 0.85028 0.73207 0.0
C1006 C 0.66153 0.81841 0.77073 0.0
C1007 C 0.72512 0.8435 0.71293 0.0
C1008 C 0.66939 0.82143 0.85625 0.0
C1009 C 0.66429 0.82746 0.83672 0.0
C1010 C 0.706 0.87142 0.7912 0.0
C1011 C 0.68974 0.84131 0.73872 0.0
C1012 C 0.6847 0.84421 0.76011 0.0
C1013 C 0.68957 0.84218 0.82337 0.0
C1014 C 0.68463 0.84464 0.80188 0.0
H1015 H 0.64991 0.80856 0.69594 0.0
H1016 H 0.64088 0.81989 0.72992 0.0
H1017 H 0.72388 0.89167 0.76289 0.0
H1018 H 0.74857 0.85146 0.85392 0.0
H1019 H 0.74005 0.86286 0.82044 0.0
C1020 C 0.27624 0.95165 0.96901 0.0
C1021 C 0.24636 0.92454 0.96972 0.0
C1022 C 0.28612 0.97442 0.98386 0.0
C1023 C 0.29296 0.02691 1.01136 0.0
H1024 H 0.28043 1.00089 0.06604 0.0
C1025 C 0.32116 0.1143 0.07662 0.0
C1026 C 0.33702 0.11067 0.09272 0.0
C1027 C 0.30923 0.09182 0.06148 0.0
C1028 C 0.28416 1.00858 0.05084 0.0
H1029 H 0.20379 0.89964 0.98695 0.0
H1030 H 0.22125 0.93914 1.01314 0.0
H1031 H 0.26132 0.96125 0.04003 0.0
H1032 H 0.35361 0.08104 0.10524 0.0
H1033 H 0.33237 0.04169 0.07917 0.0
H1034 H 0.31595 0.07426 1.02219 0.0
C1035 C 0.23694 0.94294 1.00095 0.0
C1036 C 0.27295 0.98582 0.03592 0.0
C1037 C 0.22688 0.92033 0.98593 0.0
C1038 C 0.34104 0.0843 0.09321 0.0
C1039 C 0.32878 0.06167 0.07827 0.0
C1040 C 0.30382 0.04968 1.02629 0.0
C1041 C 0.26663 0.97042 1.00004 0.0
C1042 C 0.27747 0.99466 1.01597 0.0
C1043 C 0.31267 0.06506 0.0622 0.0
C1044 C 0.29986 0.04083 0.04624 0.0
H1045 H 0.29203 0.95535 0.95689 0.0
H1046 H 0.3093 0.99498 0.98281 0.0
H1047 H 0.2966 0.03459 0.99616 0.0
H1048 H 0.31783 0.13444 0.07576 0.0
H1049 H 0.29686 0.09514 0.04936 0.0
C1050 C 0.82472 0.71925 0.48602 0.0
C1051 C 0.80505 0.70369 0.46993 0.0
C1052 C 0.81454 0.73147 0.5012 0.0
C1053 C 0.75716 0.75767 0.51196 0.0
H1054 H 0.77135 0.74569 0.5666 0.0
C1055 C 0.72675 0.8154 0.57695 0.0
C1056 C 0.71193 0.79611 0.59331 0.0
C1057 C 0.73916 0.80531 0.56185 0.0
C1058 C 0.76714 0.74921 0.55142 0.0
H1059 H 0.75889 0.68782 0.45752 0.0
H1060 H 0.7414 0.70946 0.48369 0.0
H1061 H 0.79103 0.7258 0.54056 0.0
H1062 H 0.69769 0.75069 0.60635 0.0
H1063 H 0.71967 0.73334 0.5803 0.0
H1064 H 0.73305 0.78086 0.52282 0.0
C1065 C 0.76483 0.71265 0.48453 0.0
C1066 C 0.77868 0.73804 0.53647 0.0
C1067 C 0.77483 0.70014 0.46955 0.0
C1068 C 0.70941 0.76635 0.59409 0.0
C1069 C 0.72212 0.75643 0.57917 0.0
C1070 C 0.74593 0.76916 0.52691 0.0
C1071 C 0.78454 0.72858 0.50056 0.0
C1072 C 0.77356 0.7418 0.51653 0.0
C1073 C 0.73721 0.77575 0.56283 0.0
C1074 C 0.75045 0.7648 0.54686 0.0
H1075 H 0.84806 0.72224 0.48679 0.0
H1076 H 0.83039 0.74368 0.51327 0.0
H1077 H 0.75304 0.76129 0.49678 0.0
H1078 H 0.72893 0.83839 0.57587 0.0
H1079 H 0.75071 0.82086 0.54954 0.0
C1080 C 0.12377 0.3144 0.98429 0.0
C1081 C 0.12048 0.33131 0.96869 0.0
C1082 C 0.10121 0.30193 0.99938 0.0
C1083 C 0.03797 0.31134 1.02281 0.0
H1084 H 1.01054 0.22861 0.04443 0.0
C1085 C 0.95922 0.26635 0.09197 0.0
C1086 C 0.93496 0.23483 0.09242 0.0
C1087 C 0.98182 0.27738 0.07701 0.0
C1088 C 1.01777 0.25167 0.03848 0.0
H1089 H 0.09121 0.34877 0.95683 0.0
H1090 H 0.05197 0.32702 0.98289 0.0
H1091 H 0.04989 0.24912 1.0182 0.0
H1092 H 0.91528 0.19018 0.07737 0.0
H1093 H 0.9547 0.20946 0.05102 0.0
H1094 H 1.00568 0.31384 0.0428 0.0
C1095 C 0.07196 0.32344 0.98366 0.0
C1096 C 0.04064 0.26361 1.02357 0.0
C1097 C 0.09439 0.33577 0.96862 0.0
C1098 C 0.93374 0.21457 0.07745 0.0
C1099 C 0.95648 0.22561 0.06244 0.0
C1100 C 1.01528 0.2995 0.03773 0.0
C1101 C 0.07499 0.30635 0.99931 0.0
C1102 C 0.05102 0.2936 1.01547 0.0
C1103 C 0.9808 0.25725 0.06197 0.0
C1104 C 1.00481 0.2695 0.04582 0.0
H1105 H 0.14367 0.31065 0.98477 0.0
H1106 H 0.10457 0.28921 1.01127 0.0
H1107 H 0.04554 0.33464 1.01715 0.0
H1108 H 0.96078 0.28261 0.10327 0.0
H1109 H 1.00034 0.30174 0.07737 0.0
C1110 C 0.31992 0.11212 0.48521 0.0
C1111 C 0.33639 0.10871 0.4694 0.0
C1112 C 0.30799 0.08977 0.50046 0.0
C1113 C 0.2839 1.00692 0.51177 0.0
H1114 H 0.29566 0.0334 0.56632 0.0
C1115 C 0.27674 0.95113 0.59395 0.0
C1116 C 0.24688 0.92395 0.59353 0.0
C1117 C 0.28633 0.97362 0.57892 0.0
C1118 C 0.2922 0.02559 0.55116 0.0
H1119 H 0.35411 0.07964 0.4576 0.0
H1120 H 0.33271 0.04044 0.48377 0.0
H1121 H 0.31469 0.07284 0.54009 0.0
H1122 H 0.20414 0.89853 0.57651 0.0
H1123 H 0.22116 0.9375 0.54993 0.0
H1124 H 0.2615 0.95969 0.52283 0.0
C1125 C 0.32867 0.06014 0.48435 0.0
C1126 C 0.30288 0.04822 0.53612 0.0
C1127 C 0.34095 0.08266 0.46932 0.0
C1128 C 0.22721 0.9193 0.57733 0.0
C1129 C 0.237 0.94161 0.5621 0.0
C1130 C 0.27282 0.98429 0.52681 0.0
C1131 C 0.31198 0.06331 0.50014 0.0
C1132 C 0.2992 0.03921 0.51621 0.0
C1133 C 0.26659 0.96924 0.56279 0.0
C1134 C 0.27712 0.99331 0.54672 0.0
H1135 H 0.31614 0.13199 0.48575 0.0
H1136 H 0.29519 0.09293 0.51235 0.0
H1137 H 0.28041 0.9991 0.49662 0.0
H1138 H 0.2927 0.95518 0.60605 0.0
H1139 H 0.30945 0.9943 0.57981 0.0
C1140 C 0.82425 0.71913 0.07744 0.0
C1141 C 0.80416 0.70201 0.09304 0.0
C1142 C 0.81375 0.73104 0.06223 0.0
C1143 C 0.74069 0.71917 0.03811 0.0
H1144 H 0.79374 0.80308 1.01742 0.0
C1145 C 0.70629 0.76361 0.96866 0.0
C1146 C 0.71167 0.7945 0.96883 0.0
C1147 C 0.71817 0.75287 0.98364 0.0
C1148 C 0.77855 0.77965 1.02309 0.0
H1149 H 0.75722 0.68364 0.10477 0.0
H1150 H 0.73894 0.7042 0.07838 0.0
H1151 H 0.81339 0.78342 0.04373 0.0
H1152 H 0.73366 0.83832 0.98493 0.0
H1153 H 0.7545 0.8196 1.0112 0.0
H1154 H 0.70577 0.71539 1.01766 0.0
C1155 C 0.76276 0.70845 0.07776 0.0
C1156 C 0.78995 0.76824 0.03805 0.0
C1157 C 0.77331 0.69679 0.09297 0.0
C1158 C 0.72918 0.81442 0.98438 0.0
C1159 C 0.74129 0.80372 0.99935 0.0
C1160 C 0.72941 0.73046 1.02307 0.0
C1161 C 0.78278 0.72575 0.06214 0.0
C1162 C 0.77112 0.73787 0.04584 0.0
C1163 C 0.73585 0.77272 0.99923 0.0
C1164 C 0.74811 0.76088 1.01535 0.0
H1165 H 0.84814 0.7235 0.07708 0.0
H1166 H 0.82975 0.74399 0.05037 0.0
H1167 H 0.72558 0.69557 0.04356 0.0
H1168 H 0.6928 0.74765 0.95691 0.0
H1169 H 0.71377 0.729 0.98288 0.0
C1170 C 0.12104 0.30828 0.57817 0.0
C1171 C 0.11869 0.32665 0.59315 0.0
C1172 C 0.09865 0.29602 0.56296 0.0
C1173 C 0.03718 0.30751 0.53828 0.0
H1174 H 1.00928 0.22463 0.51688 0.0
C1175 C 0.95981 0.26397 0.46846 0.0
C1176 C 0.93596 0.23233 0.46739 0.0
C1177 C 0.98192 0.27463 0.48372 0.0
C1178 C 1.01657 0.24773 0.52278 0.0
H1179 H 0.09121 0.3469 0.60379 0.0
H1180 H 0.05203 0.32523 0.57769 0.0
H1181 H 0.04766 0.24449 0.54362 0.0
H1182 H 0.91648 0.18706 0.4817 0.0
H1183 H 0.95484 0.2057 0.50866 0.0
H1184 H 1.0057 0.31058 0.51785 0.0
C1185 C 0.07126 0.32045 0.5774 0.0
C1186 C 0.03897 0.25932 0.53799 0.0
C1187 C 0.09363 0.33271 0.59251 0.0
C1188 C 0.93465 0.21156 0.48208 0.0
C1189 C 0.95681 0.22225 0.49745 0.0
C1190 C 1.01484 0.29594 0.52312 0.0
C1191 C 0.07341 0.30197 0.56233 0.0
C1192 C 0.04963 0.28942 0.54599 0.0
C1193 C 0.98075 0.25403 0.49854 0.0
C1194 C 1.00423 0.26592 0.51506 0.0
H1195 H 0.14017 0.30332 0.57821 0.0
H1196 H 0.10143 0.28229 0.55154 0.0
H1197 H 0.04495 0.33092 0.54379 0.0
H1198 H 0.96138 0.28068 0.45748 0.0
H1199 H 1.00015 0.2991 0.48377 0.0
C1200 C 0.68513 0.19564 0.15671 0.0
C1201 C 0.69037 0.17422 0.14604 0.0
C1202 C 0.65464 0.19084 0.15884 0.0
C1203 C 0.57026 0.1299 0.15591 0.0
H1204 H 0.55774 0.20055 0.14638 0.0
C1205 C 0.4461 0.11542 0.14548 0.0
C1206 C 0.44137 0.13985 0.15199 0.0
C1207 C 0.47613 0.11862 0.14619 0.0
C1208 C 0.56073 0.18059 0.14944 0.0
H1209 H 0.66746 0.1303 0.12991 0.0
H1210 H 0.61451 0.12201 0.13358 0.0
H1211 H 0.61058 0.20818 0.14553 0.0
H1212 H 0.46419 0.18611 0.16534 0.0
H1213 H 0.51587 0.19125 0.16716 0.0
H1214 H 0.52042 0.10229 0.15992 0.0
C1215 C 0.63389 0.14255 0.14029 0.0
C1216 C 0.59115 0.18502 0.14891 0.0
C1217 C 0.66432 0.1475 0.13801 0.0
C1218 C 0.46703 0.16697 0.15993 0.0
C1219 C 0.49684 0.17002 0.16085 0.0
C1220 C 0.53981 0.12549 0.1566 0.0
C1221 C 0.62865 0.1643 0.15055 0.0
C1222 C 0.59632 0.15972 0.15202 0.0
C1223 C 0.50206 0.14622 0.15362 0.0
C1224 C 0.53455 0.15077 0.1533 0.0
H1225 H 0.70467 0.21649 0.16304 0.0
H1226 H 0.6514 0.20792 0.16699 0.0
H1227 H 0.57344 0.10995 0.15859 0.0
H1228 H 0.42688 0.09429 0.13919 0.0
H1229 H 0.47915 0.09985 0.14032 0.0
C1230 C 0.70138 0.60038 0.41481 0.0
C1231 C 0.73021 0.60472 0.40783 0.0
C1232 C 0.6743 0.57054 0.41438 0.0
C1233 C 0.63947 0.4913 0.39172 0.0
H1234 H 0.59159 0.46304 0.4401 0.0
C1235 C 0.54693 0.36015 0.40545 0.0
C1236 C 0.52024 0.35325 0.41669 0.0
C1237 C 0.57152 0.39126 0.40332 0.0
C1238 C 0.60427 0.47058 0.42632 0.0
H1239 H 0.75272 0.58129 0.39405 0.0
H1240 H 0.70566 0.52967 0.3931 0.0
H1241 H 0.63504 0.51675 0.43756 0.0
H1242 H 0.49791 0.37388 0.43375 0.0
H1243 H 0.54015 0.42782 0.42975 0.0
H1244 H 0.60867 0.44521 0.38041 0.0
C1245 C 0.7039 0.54919 0.39898 0.0
C1246 C 0.62928 0.50149 0.42489 0.0
C1247 C 0.73097 0.57884 0.39963 0.0
C1248 C 0.51843 0.37826 0.42535 0.0
C1249 C 0.54278 0.40929 0.42307 0.0
C1250 C 0.61426 0.46043 0.39308 0.0
C1251 C 0.67535 0.54448 0.40671 0.0
C1252 C 0.64738 0.5122 0.40764 0.0
C1253 C 0.56988 0.4163 0.4122 0.0
C1254 C 0.59639 0.4495 0.41047 0.0
H1255 H 0.69998 0.61975 0.42129 0.0
H1256 H 0.6526 0.56777 0.42027 0.0
H1257 H 0.65274 0.49887 0.37814 0.0
H1258 H 0.54915 0.34143 0.39868 0.0
H1259 H 0.59209 0.39554 0.39504 0.0
C1260 C 0.92998 0.33952 0.15029 0.0
C1261 C 0.90322 0.30937 0.15094 0.0
C1262 C 0.92709 0.3664 0.15215 0.0
C1263 C 0.87164 0.39242 0.16915 0.0
H1264 H 0.91911 0.46304 0.13423 0.0
C1265 C 0.83929 0.48917 0.15634 0.0
C1266 C 0.86394 0.52039 0.15464 0.0
C1267 C 0.84558 0.46439 0.15735 0.0
C1268 C 0.90596 0.4437 0.14428 0.0
H1269 H 0.85243 0.28406 0.15433 0.0
H1270 H 0.84752 0.33045 0.15731 0.0
H1271 H 0.92803 0.4185 0.13358 0.0
H1272 H 0.91459 0.54991 0.15259 0.0
H1273 H 0.9255 0.5068 0.15462 0.0
H1274 H 0.84919 0.41737 0.1796 0.0
C1275 C 0.87081 0.33352 0.15563 0.0
C1276 C 0.91113 0.41816 0.14393 0.0
C1277 C 0.87366 0.3068 0.15376 0.0
C1278 C 0.89503 0.5262 0.15416 0.0
C1279 C 0.9013 0.50144 0.15507 0.0
C1280 C 0.86642 0.41789 0.16946 0.0
C1281 C 0.89741 0.3637 0.1548 0.0
C1282 C 0.89374 0.39199 0.15619 0.0
C1283 C 0.87666 0.47019 0.15657 0.0
C1284 C 0.88325 0.44371 0.15688 0.0
H1285 H 0.95311 0.34241 0.14817 0.0
H1286 H 0.94813 0.38929 0.15162 0.0
H1287 H 0.85824 0.37297 0.17908 0.0
H1288 H 0.8151 0.48386 0.15686 0.0
H1289 H 0.826 0.44059 0.15831 0.0
C1290 C 0.44651 0.11357 0.42011 0.0
C1291 C 0.44205 0.13788 0.41294 0.0
C1292 C 0.4765 0.11662 0.41985 0.0
C1293 C 0.56111 0.17836 0.41681 0.0
H1294 H 0.57426 0.10793 0.40809 0.0
C1295 C 0.68566 0.19459 0.40871 0.0
C1296 C 0.69153 0.17318 0.41895 0.0
C1297 C 0.65503 0.1895 0.40709 0.0
C1298 C 0.57095 0.12781 0.41068 0.0
H1299 H 0.46527 0.18366 0.39888 0.0
H1300 H 0.51682 0.1885 0.39791 0.0
H1301 H 0.52108 0.09995 0.40675 0.0
H1302 H 0.66945 0.12904 0.43492 0.0
H1303 H 0.61624 0.12039 0.43225 0.0
H1304 H 0.61093 0.20623 0.42064 0.0
C1305 C 0.49764 0.16755 0.40439 0.0
C1306 C 0.54041 0.12322 0.40997 0.0
C1307 C 0.46791 0.16465 0.40483 0.0
C1308 C 0.66589 0.14628 0.42719 0.0
C1309 C 0.63529 0.1411 0.42545 0.0
C1310 C 0.59158 0.18297 0.41739 0.0
C1311 C 0.5026 0.14393 0.41227 0.0
C1312 C 0.53505 0.14845 0.41301 0.0
C1313 C 0.62945 0.16274 0.41551 0.0
C1314 C 0.59694 0.15778 0.41437 0.0
H1315 H 0.42709 0.09269 0.4265 0.0
H1316 H 0.47937 0.09799 0.42617 0.0
H1317 H 0.558 0.19828 0.41968 0.0
H1318 H 0.70483 0.21557 0.40223 0.0
H1319 H 0.65134 0.2065 0.39915 0.0
C1320 C 0.54499 0.36197 0.16006 0.0
C1321 C 0.51859 0.35543 0.14862 0.0
C1322 C 0.56963 0.39298 0.16241 0.0
C1323 C 0.60313 0.47214 0.13922 0.0
H1324 H 0.65165 0.50036 0.1874 0.0
C1325 C 0.70139 0.60128 0.14996 0.0
C1326 C 0.73014 0.60517 0.15676 0.0
C1327 C 0.67401 0.57174 0.15073 0.0
C1328 C 0.63835 0.49279 0.17383 0.0
H1329 H 0.49659 0.37643 0.13154 0.0
H1330 H 0.53888 0.43024 0.13596 0.0
H1331 H 0.60708 0.44692 0.18532 0.0
H1332 H 0.75226 0.58139 0.17065 0.0
H1333 H 0.70465 0.53023 0.17217 0.0
H1334 H 0.63438 0.51804 0.12778 0.0
C1335 C 0.54129 0.41154 0.1426 0.0
C1336 C 0.61286 0.46207 0.17259 0.0
C1337 C 0.51692 0.38062 0.14011 0.0
C1338 C 0.73056 0.57923 0.1652 0.0
C1339 C 0.70319 0.54988 0.16618 0.0
C1340 C 0.6284 0.50289 0.14053 0.0
C1341 C 0.56826 0.4182 0.15354 0.0
C1342 C 0.595 0.45121 0.1552 0.0
C1343 C 0.67472 0.54557 0.15857 0.0
C1344 C 0.64649 0.51354 0.15779 0.0
H1345 H 0.54701 0.34304 0.16673 0.0
H1346 H 0.5901 0.39704 0.17075 0.0
H1347 H 0.59047 0.4646 0.12543 0.0
H1348 H 0.70026 0.62072 0.14332 0.0
H1349 H 0.65236 0.56925 0.14493 0.0
C1350 C 0.8946 0.52677 0.40992 0.0
C1351 C 0.86366 0.5214 0.40959 0.0
C1352 C 0.9004 0.50168 0.40935 0.0
C1353 C 0.86395 0.4174 0.39636 0.0
H1354 H 0.92704 0.41891 0.43138 0.0
C1355 C 0.87181 0.30659 0.41213 0.0
C1356 C 0.9016 0.30929 0.4138 0.0
C1357 C 0.86874 0.33325 0.41073 0.0
C1358 C 0.90966 0.41829 0.4213 0.0
H1359 H 0.81459 0.48527 0.408 0.0
H1360 H 0.82467 0.44145 0.40721 0.0
H1361 H 0.91849 0.46368 0.4304 0.0
H1362 H 0.95161 0.34244 0.41532 0.0
H1363 H 0.94622 0.38921 0.41279 0.0
H1364 H 0.85495 0.37196 0.38734 0.0
C1365 C 0.8445 0.46515 0.40777 0.0
C1366 C 0.90473 0.44397 0.42075 0.0
C1367 C 0.83868 0.49026 0.40841 0.0
C1368 C 0.92831 0.33948 0.41409 0.0
C1369 C 0.9252 0.36629 0.41272 0.0
C1370 C 0.86891 0.39177 0.39689 0.0
C1371 C 0.87544 0.47052 0.40839 0.0
C1372 C 0.88158 0.44372 0.40841 0.0
C1373 C 0.89534 0.36347 0.41094 0.0
C1374 C 0.89157 0.39169 0.40954 0.0
H1375 H 0.91442 0.55039 0.4111 0.0
H1376 H 0.92452 0.50672 0.40965 0.0
H1377 H 0.84636 0.41664 0.38641 0.0
H1378 H 0.85063 0.28379 0.41192 0.0
H1379 H 0.84535 0.33011 0.40976 0.0
C1380 C 0.2114 0.67583 0.65782 0.0
C1381 C 0.18674 0.68228 0.65559 0.0
C1382 C 0.2052 0.64479 0.65898 0.0
C1383 C 0.14546 0.56353 0.64556 0.0
H1384 H 0.19218 0.54084 0.68145 0.0
C1385 C 0.12171 0.43546 0.6521 0.0
C1386 C 0.1485 0.43219 0.65322 0.0
C1387 C 0.12439 0.46516 0.65389 0.0
C1388 C 0.17907 0.54679 0.67122 0.0
H1389 H 0.13617 0.66093 0.65272 0.0
H1390 H 0.1254 0.60696 0.65501 0.0
H1391 H 0.20107 0.59424 0.68159 0.0
H1392 H 0.19913 0.45783 0.65749 0.0
H1393 H 0.2037 0.509 0.66034 0.0
H1394 H 0.12385 0.51622 0.63494 0.0
C1395 C 0.14956 0.62589 0.65577 0.0
C1396 C 0.1842 0.57746 0.6713 0.0
C1397 C 0.15573 0.65689 0.65471 0.0
C1398 C 0.17788 0.45924 0.65652 0.0
C1399 C 0.18053 0.48874 0.65833 0.0
C1400 C 0.14039 0.53284 0.64543 0.0
C1401 C 0.17421 0.61941 0.65782 0.0
C1402 C 0.16772 0.58634 0.65833 0.0
C1403 C 0.15391 0.49222 0.65693 0.0
C1404 C 0.15742 0.52416 0.65809 0.0
H1405 H 0.23553 0.69478 0.65866 0.0
H1406 H 0.22481 0.64069 0.66037 0.0
H1407 H 0.13259 0.56961 0.63521 0.0
H1408 H 0.09872 0.41519 0.64958 0.0
H1409 H 0.10333 0.46691 0.65292 0.0
C1410 C 0.31841 0.86813 0.9026 0.0
C1411 C 0.32007 0.89681 0.90722 0.0
C1412 C 0.34562 0.86612 0.9008 0.0
C1413 C 0.42848 0.90523 0.91653 0.0
H1414 H 0.4329 0.8486 0.87868 0.0
C1415 C 0.53775 0.8903 0.90954 0.0
C1416 C 0.53203 0.85935 0.90781 0.0
C1417 C 0.51318 0.89678 0.90798 0.0
C1418 C 0.43195 0.86434 0.88943 0.0
H1419 H 0.352 0.94615 0.91306 0.0
H1420 H 0.39981 0.94271 0.90972 0.0
H1421 H 0.38844 0.85758 0.87798 0.0
H1422 H 0.4959 0.81103 0.90274 0.0
H1423 H 0.45294 0.82229 0.90014 0.0
H1424 H 0.47193 0.91177 0.92806 0.0
C1425 C 0.37723 0.92166 0.90772 0.0
C1426 C 0.40645 0.86953 0.88903 0.0
C1427 C 0.34984 0.9237 0.90949 0.0
C1428 C 0.50111 0.83509 0.90425 0.0
C1429 C 0.47654 0.8416 0.90258 0.0
C1430 C 0.45407 0.90013 0.91688 0.0
C1431 C 0.37541 0.89273 0.90353 0.0
C1432 C 0.4041 0.88965 0.90278 0.0
C1433 C 0.48224 0.87251 0.90457 0.0
C1434 C 0.45589 0.87927 0.90351 0.0
H1435 H 0.29597 0.84686 0.90068 0.0
H1436 H 0.34317 0.84337 0.89786 0.0
H1437 H 0.42729 0.92054 0.92751 0.0
H1438 H 0.56119 0.90952 0.91254 0.0
H1439 H 0.51845 0.92087 0.90943 0.0
C1440 C 0.5867 0.72105 0.66361 0.0
C1441 C 0.61291 0.72083 0.65549 0.0
C1442 C 0.55748 0.69353 0.66462 0.0
C1443 C 0.51109 0.61796 0.63973 0.0
H1444 H 0.45512 0.59753 0.68439 0.0
C1445 C 0.3888 0.50617 0.6401 0.0
C1446 C 0.3636 0.50797 0.64846 0.0
C1447 C 0.41973 0.53067 0.64239 0.0
C1448 C 0.47027 0.60304 0.67169 0.0
H1449 H 0.62908 0.69116 0.64259 0.0
H1450 H 0.57778 0.64292 0.64422 0.0
H1451 H 0.50843 0.64235 0.68621 0.0
H1452 H 0.35125 0.53685 0.66606 0.0
H1453 H 0.40523 0.58011 0.66974 0.0
H1454 H 0.47289 0.57947 0.62492 0.0
C1455 C 0.57997 0.66456 0.64977 0.0
C1456 C 0.50092 0.62868 0.67278 0.0
C1457 C 0.60941 0.69213 0.64898 0.0
C1458 C 0.37017 0.53469 0.65953 0.0
C1459 C 0.40118 0.55944 0.66168 0.0
C1460 C 0.48039 0.59252 0.63856 0.0
C1461 C 0.55357 0.66505 0.65736 0.0
C1462 C 0.52167 0.63655 0.65677 0.0
C1463 C 0.42641 0.5579 0.65298 0.0
C1464 C 0.45943 0.58472 0.65449 0.0
H1465 H 0.58856 0.74271 0.66885 0.0
H1466 H 0.53765 0.69483 0.67041 0.0
H1467 H 0.52625 0.62368 0.627 0.0
H1468 H 0.3846 0.48562 0.63181 0.0
H1469 H 0.43843 0.52814 0.63588 0.0
C1470 C 0.20302 0.67321 0.90226 0.0
C1471 C 0.18312 0.67971 0.91364 0.0
C1472 C 0.19665 0.64221 0.89995 0.0
C1473 C 0.15087 0.56304 0.92316 0.0
H1474 H 0.17163 0.53488 0.87519 0.0
C1475 C 0.11976 0.43387 0.9124 0.0
C1476 C 0.1446 0.4299 0.9057 0.0
C1477 C 0.1221 0.46347 0.91168 0.0
C1478 C 0.16577 0.54244 0.8887 0.0
H1479 H 0.14005 0.65868 0.93063 0.0
H1480 H 0.12849 0.60488 0.92622 0.0
H1481 H 0.18042 0.58827 0.87715 0.0
H1482 H 0.19073 0.45367 0.8921 0.0
H1483 H 0.19458 0.50495 0.89067 0.0
H1484 H 0.13613 0.51716 0.93465 0.0
C1485 C 0.14965 0.6236 0.91962 0.0
C1486 C 0.17096 0.57313 0.88988 0.0
C1487 C 0.1562 0.6545 0.9221 0.0
C1488 C 0.17117 0.45587 0.89747 0.0
C1489 C 0.17335 0.4853 0.89654 0.0
C1490 C 0.14542 0.53232 0.92191 0.0
C1491 C 0.17001 0.61696 0.90878 0.0
C1492 C 0.16378 0.58397 0.90718 0.0
C1493 C 0.14915 0.48964 0.904 0.0
C1494 C 0.15302 0.52169 0.90473 0.0
H1495 H 0.22402 0.69216 0.89565 0.0
H1496 H 0.21311 0.63818 0.89167 0.0
H1497 H 0.14562 0.57057 0.93689 0.0
H1498 H 0.09901 0.4144 0.91888 0.0
H1499 H 0.10291 0.46599 0.91737 0.0
C1500 C 0.34999 0.92359 0.64925 0.0
C1501 C 0.32139 0.90027 0.65727 0.0
C1502 C 0.37685 0.92053 0.65017 0.0
C1503 C 0.41231 0.879 0.67557 0.0
H1504 H 0.45458 0.8876 0.62588 0.0
C1505 C 0.52484 0.86841 0.66677 0.0
C1506 C 0.52485 0.85024 0.65075 0.0
C1507 C 0.50083 0.8757 0.66893 0.0
C1508 C 0.44302 0.88511 0.63987 0.0
H1509 H 0.29901 0.85635 0.67348 0.0
H1510 H 0.34582 0.85136 0.67536 0.0
H1511 H 0.41243 0.90014 0.62776 0.0
H1512 H 0.49834 0.82418 0.62508 0.0
H1513 H 0.45713 0.83754 0.62863 0.0
H1514 H 0.44277 0.86364 0.6876 0.0
C1515 C 0.34753 0.87189 0.66825 0.0
C1516 C 0.41911 0.89262 0.64099 0.0
C1517 C 0.32065 0.87469 0.66708 0.0
C1518 C 0.49967 0.83885 0.63733 0.0
C1519 C 0.47595 0.84645 0.63936 0.0
C1520 C 0.43655 0.87191 0.6745 0.0
C1521 C 0.37577 0.89437 0.65942 0.0
C1522 C 0.40316 0.88924 0.65879 0.0
C1523 C 0.47645 0.8653 0.65503 0.0
C1524 C 0.45184 0.8744 0.65656 0.0
H1525 H 0.3513 0.94349 0.64152 0.0
H1526 H 0.39836 0.93835 0.64335 0.0
H1527 H 0.40054 0.87628 0.68951 0.0
H1528 H 0.54395 0.87797 0.67729 0.0
H1529 H 0.50191 0.89036 0.68113 0.0
C1530 C 0.58522 0.72493 0.89964 0.0
C1531 C 0.6121 0.72312 0.90451 0.0
C1532 C 0.55589 0.69782 0.89783 0.0
C1533 C 0.51179 0.6151 0.91394 0.0
H1534 H 0.45053 0.61057 0.8761 0.0
C1535 C 0.38772 0.50565 0.90687 0.0
C1536 C 0.36237 0.51121 0.90517 0.0
C1537 C 0.41873 0.53033 0.90535 0.0
C1538 C 0.46729 0.61156 0.88685 0.0
H1539 H 0.62917 0.691 0.91069 0.0
H1540 H 0.57779 0.6434 0.90725 0.0
H1541 H 0.50405 0.65498 0.8753 0.0
H1542 H 0.34991 0.54715 0.90021 0.0
H1543 H 0.4041 0.59033 0.89765 0.0
H1544 H 0.47489 0.57171 0.92554 0.0
C1545 C 0.57948 0.66602 0.90512 0.0
C1546 C 0.49802 0.63703 0.88639 0.0
C1547 C 0.60899 0.69329 0.90693 0.0
C1548 C 0.36886 0.54207 0.90169 0.0
C1549 C 0.39992 0.56676 0.90004 0.0
C1550 C 0.48107 0.58954 0.91434 0.0
C1551 C 0.55248 0.66798 0.90077 0.0
C1552 C 0.52058 0.6394 0.90012 0.0
C1553 C 0.42525 0.56123 0.902 0.0
C1554 C 0.45833 0.58766 0.90096 0.0
H1555 H 0.58656 0.74743 0.89763 0.0
H1556 H 0.53568 0.7004 0.89476 0.0
H1557 H 0.52833 0.61631 0.92493 0.0
H1558 H 0.38363 0.48225 0.90983 0.0
H1559 H 0.43765 0.52519 0.90677 0.0
loop_
_geom_bond_atom_site_label_1
_geom_bond_atom_site_label_2
_geom_bond_distance
_geom_bond_site_symmetry_2
_ccdc_geom_bond_type
La0 C2 2.928 . S
La0 O20 2.521 . S
La0 O21 2.628 . S
La0 O22 2.554 . S
La0 O23 2.757 . S
La0 O24 2.470 . S
La0 O29 2.482 . S
La0 O31 2.503 . S
La1 C11 2.928 . S
La1 O23 2.482 . S
La1 O25 2.503 . S
La1 O26 2.521 . S
La1 O27 2.628 . S
La1 O28 2.554 . S
La1 O29 2.757 . S
La1 O30 2.470 . S
C2 La0 2.928 . S
C2 C3 1.503 . S
C2 O20 1.261 . S
C2 O21 1.243 . S
C3 C2 1.503 . S
C3 C4 1.394 . S
C3 C8 1.373 . S
C4 C3 1.394 . S
C4 C5 1.380 . S
C4 H32 0.930 . S
C5 C4 1.380 . S
C5 C6 1.376 . S
C5 H33 0.930 . S
C6 C5 1.376 . S
C6 C7 1.370 . S
C7 C6 1.370 . S
C7 C8 1.396 . S
C7 H34 0.929 . S
C8 C3 1.373 . S
C8 C7 1.396 . S
C8 H35 0.929 . S
C9 O22 1.240 . S
C9 O23 1.289 . S
C10 O24 1.258 . S
C10 O25 1.256 . S
C11 La1 2.928 . S
C11 C12 1.503 . S
C11 O26 1.261 . S
C11 O27 1.243 . S
C12 C11 1.503 . S
C12 C13 1.394 1_545 S
C12 C17 1.373 . S
C13 C12 1.394 1_565 S
C13 C14 1.380 . S
C13 H36 0.930 1_565 S
C14 C13 1.380 . S
C14 C15 1.376 . S
C14 H37 0.930 . S
C15 C14 1.376 . S
C15 C16 1.370 . S
C16 C15 1.370 . S
C16 C17 1.396 1_565 S
C16 H38 0.929 . S
C17 C12 1.373 . S
C17 C16 1.396 1_545 S
C17 H39 0.929 . S
C18 O28 1.240 . S
C18 O29 1.289 . S
C19 O30 1.258 . S
C19 O31 1.256 . S
O20 La0 2.521 . S
O20 C2 1.261 . S
O21 La0 2.628 . S
O21 C2 1.243 . S
O22 La0 2.554 . S
O22 C9 1.240 . S
O23 La0 2.757 . S
O23 La1 2.482 . S
O23 C9 1.289 . S
O24 La0 2.470 . S
O24 C10 1.258 . S
O25 La1 2.503 . S
O25 C10 1.256 . S
O26 La1 2.521 . S
O26 C11 1.261 . S
O27 La1 2.628 . S
O27 C11 1.243 . S
O28 La1 2.554 . S
O28 C18 1.240 . S
O29 La0 2.482 . S
O29 La1 2.757 . S
O29 C18 1.289 . S
O30 La1 2.470 . S
O30 C19 1.258 . S
O31 La0 2.503 . S
O31 C19 1.256 . S
H32 C4 0.930 . S
H33 C5 0.930 . S
H34 C7 0.929 . S
H35 C8 0.929 . S
H36 C13 0.930 1_545 S
H37 C14 0.930 . S
H38 C16 0.929 . S
H39 C17 0.929 . S
La40 C42 2.928 . S
La40 O60 2.521 . S
La40 O61 2.628 . S
La40 O62 2.554 . S
La40 O63 2.757 . S
La40 O64 2.470 . S
La40 O69 2.482 . S
La40 O71 2.503 . S
La41 C51 2.928 . S
La41 O63 2.482 . S
La41 O65 2.503 . S
La41 O66 2.521 . S
La41 O67 2.628 . S
La41 O68 2.554 . S
La41 O69 2.757 . S
La41 O70 2.470 . S
C42 La40 2.928 . S
C42 C43 1.503 . S
C42 O60 1.261 . S
C42 O61 1.243 . S
C43 C42 1.503 . S
C43 C44 1.394 . S
C43 C48 1.373 . S
C44 C43 1.394 . S
C44 C45 1.380 . S
C44 H72 0.930 . S
C45 C44 1.380 . S
C45 C46 1.376 . S
C45 H73 0.930 . S
C46 C45 1.376 . S
C46 C47 1.370 . S
C47 C46 1.370 . S
C47 C48 1.396 . S
C47 H74 0.929 . S
C48 C43 1.373 . S
C48 C47 1.396 . S
C48 H75 0.929 . S
C49 O62 1.240 . S
C49 O63 1.289 . S
C50 O64 1.258 . S
C50 O65 1.256 . S
C51 La41 2.928 . S
C51 C52 1.503 . S
C51 O66 1.261 . S
C51 O67 1.243 . S
C52 C51 1.503 . S
C52 C53 1.394 . S
C52 C57 1.373 . S
C53 C52 1.394 . S
C53 C54 1.380 . S
C53 H76 0.930 . S
C54 C53 1.380 . S
C54 C55 1.376 . S
C54 H77 0.930 . S
C55 C54 1.376 . S
C55 C56 1.370 . S
C56 C55 1.370 . S
C56 C57 1.396 . S
C56 H78 0.929 . S
C57 C52 1.373 . S
C57 C56 1.396 . S
C57 H79 0.929 . S
C58 O68 1.240 . S
C58 O69 1.289 . S
C59 O70 1.258 . S
C59 O71 1.256 . S
O60 La40 2.521 . S
O60 C42 1.261 . S
O61 La40 2.628 . S
O61 C42 1.243 . S
O62 La40 2.554 . S
O62 C49 1.240 . S
O63 La40 2.757 . S
O63 La41 2.482 . S
O63 C49 1.289 . S
O64 La40 2.470 . S
O64 C50 1.258 . S
O65 La41 2.503 . S
O65 C50 1.256 . S
O66 La41 2.521 . S
O66 C51 1.261 . S
O67 La41 2.628 . S
O67 C51 1.243 . S
O68 La41 2.554 . S
O68 C58 1.240 . S
O69 La40 2.482 . S
O69 La41 2.757 . S
O69 C58 1.289 . S
O70 La41 2.470 . S
O70 C59 1.258 . S
O71 La40 2.503 . S
O71 C59 1.256 . S
H72 C44 0.930 . S
H73 C45 0.930 . S
H74 C47 0.929 . S
H75 C48 0.929 . S
H76 C53 0.930 . S
H77 C54 0.930 . S
H78 C56 0.929 . S
H79 C57 0.929 . S
La80 C82 2.928 . S
La80 O100 2.521 . S
La80 O101 2.628 . S
La80 O102 2.554 . S
La80 O103 2.757 . S
La80 O104 2.470 . S
La80 O109 2.482 . S
La80 O111 2.503 . S
La81 C91 2.928 . S
La81 O103 2.482 . S
La81 O105 2.503 . S
La81 O106 2.521 . S
La81 O107 2.628 . S
La81 O108 2.554 . S
La81 O109 2.757 . S
La81 O110 2.470 . S
C82 La80 2.928 . S
C82 C83 1.503 . S
C82 O100 1.261 . S
C82 O101 1.243 . S
C83 C82 1.503 . S
C83 C84 1.394 . S
C83 C88 1.373 . S
C84 C83 1.394 . S
C84 C85 1.380 . S
C84 H112 0.930 . S
C85 C84 1.380 . S
C85 C86 1.376 . S
C85 H113 0.930 . S
C86 C85 1.376 . S
C86 C87 1.370 . S
C87 C86 1.370 . S
C87 C88 1.396 . S
C87 H114 0.929 . S
C88 C83 1.373 . S
C88 C87 1.396 . S
C88 H115 0.929 . S
C89 O102 1.240 . S
C89 O103 1.289 . S
C90 O104 1.258 . S
C90 O105 1.256 . S
C91 La81 2.928 . S
C91 C92 1.503 . S
C91 O106 1.261 . S
C91 O107 1.243 . S
C92 C91 1.503 . S
C92 C93 1.395 1_655 S
C92 C97 1.373 . S
C93 C92 1.395 1_455 S
C93 C94 1.379 . S
C93 H116 0.931 1_455 S
C94 C93 1.379 . S
C94 C95 1.376 . S
C94 H117 0.930 . S
C95 C94 1.376 . S
C95 C96 1.370 . S
C96 C95 1.370 . S
C96 C97 1.396 1_455 S
C96 H118 0.929 . S
C97 C92 1.373 . S
C97 C96 1.396 1_655 S
C97 H119 0.929 . S
C98 O108 1.240 . S
C98 O109 1.289 . S
C99 O110 1.258 . S
C99 O111 1.256 . S
O100 La80 2.521 . S
O100 C82 1.261 . S
O101 La80 2.628 . S
O101 C82 1.243 . S
O102 La80 2.554 . S
O102 C89 1.240 . S
O103 La80 2.757 . S
O103 La81 2.482 . S
O103 C89 1.289 . S
O104 La80 2.470 . S
O104 C90 1.258 . S
O105 La81 2.503 . S
O105 C90 1.256 . S
O106 La81 2.521 . S
O106 C91 1.261 . S
O107 La81 2.628 . S
O107 C91 1.243 . S
O108 La81 2.554 . S
O108 C98 1.240 . S
O109 La80 2.482 . S
O109 La81 2.757 . S
O109 C98 1.289 . S
O110 La81 2.470 . S
O110 C99 1.258 . S
O111 La80 2.503 . S
O111 C99 1.256 . S
H112 C84 0.930 . S
H113 C85 0.930 . S
H114 C87 0.929 . S
H115 C88 0.929 . S
H116 C93 0.931 1_655 S
H117 C94 0.930 . S
H118 C96 0.929 . S
H119 C97 0.929 . S
La120 C122 2.928 . S
La120 O140 2.521 . S
La120 O141 2.628 . S
La120 O142 2.554 . S
La120 O143 2.757 . S
La120 O144 2.470 . S
La120 O149 2.482 . S
La120 O151 2.503 . S
La121 C131 2.928 . S
La121 O143 2.482 . S
La121 O145 2.503 . S
La121 O146 2.521 . S
La121 O147 2.628 . S
La121 O148 2.554 . S
La121 O149 2.757 . S
La121 O150 2.470 . S
C122 La120 2.928 . S
C122 C123 1.503 . S
C122 O140 1.261 . S
C122 O141 1.243 . S
C123 C122 1.503 . S
C123 C124 1.394 1_545 S
C123 C128 1.373 . S
C124 C123 1.394 1_565 S
C124 C125 1.380 . S
C124 H152 0.930 1_565 S
C125 C124 1.380 . S
C125 C126 1.376 . S
C125 H153 0.930 . S
C126 C125 1.376 . S
C126 C127 1.370 . S
C127 C126 1.370 . S
C127 C128 1.396 1_565 S
C127 H154 0.929 . S
C128 C123 1.373 . S
C128 C127 1.396 1_545 S
C128 H155 0.929 . S
C129 O142 1.240 . S
C129 O143 1.289 . S
C130 O144 1.258 . S
C130 O145 1.256 . S
C131 La121 2.928 . S
C131 C132 1.503 . S
C131 O146 1.261 . S
C131 O147 1.243 . S
C132 C131 1.503 . S
C132 C133 1.394 . S
C132 C137 1.373 . S
C133 C132 1.394 . S
C133 C134 1.380 . S
C133 H156 0.930 . S
C134 C133 1.380 . S
C134 C135 1.376 . S
C134 H157 0.930 . S
C135 C134 1.376 . S
C135 C136 1.370 . S
C136 C135 1.370 . S
C136 C137 1.396 . S
C136 H158 0.929 . S
C137 C132 1.373 . S
C137 C136 1.396 . S
C137 H159 0.929 . S
C138 O148 1.240 . S
C138 O149 1.289 . S
C139 O150 1.258 . S
C139 O151 1.256 . S
O140 La120 2.521 . S
O140 C122 1.261 . S
O141 La120 2.628 . S
O141 C122 1.243 . S
O142 La120 2.554 . S
O142 C129 1.240 . S
O143 La120 2.757 . S
O143 La121 2.482 . S
O143 C129 1.289 . S
O144 La120 2.470 . S
O144 C130 1.258 . S
O145 La121 2.503 . S
O145 C130 1.256 . S
O146 La121 2.521 . S
O146 C131 1.261 . S
O147 La121 2.628 . S
O147 C131 1.243 . S
O148 La121 2.554 . S
O148 C138 1.240 . S
O149 La120 2.482 . S
O149 La121 2.757 . S
O149 C138 1.289 . S
O150 La121 2.470 . S
O150 C139 1.258 . S
O151 La120 2.503 . S
O151 C139 1.256 . S
H152 C124 0.930 1_545 S
H153 C125 0.930 . S
H154 C127 0.929 . S
H155 C128 0.929 . S
H156 C133 0.930 . S
H157 C134 0.930 . S
H158 C136 0.929 . S
H159 C137 0.929 . S
La160 C162 2.928 . S
La160 O180 2.521 . S
La160 O181 2.628 . S
La160 O182 2.554 . S
La160 O183 2.757 . S
La160 O184 2.470 . S
La160 O189 2.482 . S
La160 O191 2.503 . S
La161 C171 2.928 . S
La161 O183 2.482 . S
La161 O185 2.503 . S
La161 O186 2.521 . S
La161 O187 2.628 . S
La161 O188 2.554 . S
La161 O189 2.757 . S
La161 O190 2.470 . S
C162 La160 2.928 . S
C162 C163 1.503 . S
C162 O180 1.261 . S
C162 O181 1.243 . S
C163 C162 1.503 . S
C163 C164 1.394 . S
C163 C168 1.373 . S
C164 C163 1.394 . S
C164 C165 1.380 . S
C164 H192 0.930 . S
C165 C164 1.380 . S
C165 C166 1.376 . S
C165 H193 0.930 . S
C166 C165 1.376 . S
C166 C167 1.370 . S
C167 C166 1.370 . S
C167 C168 1.396 . S
C167 H194 0.929 . S
C168 C163 1.373 . S
C168 C167 1.396 . S
C168 H195 0.929 . S
C169 O182 1.240 . S
C169 O183 1.289 . S
C170 O184 1.258 . S
C170 O185 1.256 . S
C171 La161 2.928 . S
C171 C172 1.503 . S
C171 O186 1.261 . S
C171 O187 1.243 . S
C172 C171 1.503 . S
C172 C173 1.394 . S
C172 C177 1.373 . S
C173 C172 1.394 . S
C173 C174 1.380 . S
C173 H196 0.930 . S
C174 C173 1.380 . S
C174 C175 1.376 . S
C174 H197 0.930 . S
C175 C174 1.376 . S
C175 C176 1.370 . S
C176 C175 1.370 . S
C176 C177 1.396 . S
C176 H198 0.929 . S
C177 C172 1.373 . S
C177 C176 1.396 . S
C177 H199 0.929 . S
C178 O188 1.240 . S
C178 O189 1.289 . S
C179 O190 1.258 . S
C179 O191 1.256 . S
O180 La160 2.521 . S
O180 C162 1.261 . S
O181 La160 2.628 . S
O181 C162 1.243 . S
O182 La160 2.554 . S
O182 C169 1.240 . S
O183 La160 2.757 . S
O183 La161 2.482 . S
O183 C169 1.289 . S
O184 La160 2.470 . S
O184 C170 1.258 . S
O185 La161 2.503 . S
O185 C170 1.256 . S
O186 La161 2.521 . S
O186 C171 1.261 . S
O187 La161 2.628 . S
O187 C171 1.243 . S
O188 La161 2.554 . S
O188 C178 1.240 . S
O189 La160 2.482 . S
O189 La161 2.757 . S
O189 C178 1.289 . S
O190 La161 2.470 . S
O190 C179 1.258 . S
O191 La160 2.503 . S
O191 C179 1.256 . S
H192 C164 0.930 . S
H193 C165 0.930 . S
H194 C167 0.929 . S
H195 C168 0.929 . S
H196 C173 0.930 . S
H197 C174 0.930 . S
H198 C176 0.929 . S
H199 C177 0.929 . S
La200 C202 2.928 . S
La200 O220 2.521 . S
La200 O221 2.628 . S
La200 O222 2.554 . S
La200 O223 2.757 . S
La200 O224 2.470 . S
La200 O229 2.482 . S
La200 O231 2.503 . S
La201 C211 2.928 . S
La201 O223 2.482 . S
La201 O225 2.503 . S
La201 O226 2.521 . S
La201 O227 2.628 . S
La201 O228 2.554 . S
La201 O229 2.757 . S
La201 O230 2.470 . S
C202 La200 2.928 . S
C202 C203 1.503 . S
C202 O220 1.261 . S
C202 O221 1.243 . S
C203 C202 1.503 . S
C203 C204 1.395 1_655 S
C203 C208 1.373 . S
C204 C203 1.395 1_455 S
C204 C205 1.379 . S
C204 H232 0.931 1_455 S
C205 C204 1.379 . S
C205 C206 1.376 . S
C205 H233 0.930 . S
C206 C205 1.376 . S
C206 C207 1.370 . S
C207 C206 1.370 . S
C207 C208 1.396 1_455 S
C207 H234 0.929 . S
C208 C203 1.373 . S
C208 C207 1.396 1_655 S
C208 H235 0.929 . S
C209 O222 1.240 . S
C209 O223 1.289 . S
C210 O224 1.258 . S
C210 O225 1.256 . S
C211 La201 2.928 . S
C211 C212 1.503 . S
C211 O226 1.261 . S
C211 O227 1.243 . S
C212 C211 1.503 . S
C212 C213 1.394 . S
C212 C217 1.373 . S
C213 C212 1.394 . S
C213 C214 1.380 . S
C213 H236 0.930 . S
C214 C213 1.380 . S
C214 C215 1.376 . S
C214 H237 0.930 . S
C215 C214 1.376 . S
C215 C216 1.370 . S
C216 C215 1.370 . S
C216 C217 1.396 . S
C216 H238 0.929 . S
C217 C212 1.373 . S
C217 C216 1.396 . S
C217 H239 0.929 . S
C218 O228 1.240 . S
C218 O229 1.289 . S
C219 O230 1.258 . S
C219 O231 1.256 . S
O220 La200 2.521 . S
O220 C202 1.261 . S
O221 La200 2.628 . S
O221 C202 1.243 . S
O222 La200 2.554 . S
O222 C209 1.240 . S
O223 La200 2.757 . S
O223 La201 2.482 . S
O223 C209 1.289 . S
O224 La200 2.470 . S
O224 C210 1.258 . S
O225 La201 2.503 . S
O225 C210 1.256 . S
O226 La201 2.521 . S
O226 C211 1.261 . S
O227 La201 2.628 . S
O227 C211 1.243 . S
O228 La201 2.554 . S
O228 C218 1.240 . S
O229 La200 2.482 . S
O229 La201 2.757 . S
O229 C218 1.289 . S
O230 La201 2.470 . S
O230 C219 1.258 . S
O231 La200 2.503 . S
O231 C219 1.256 . S
H232 C204 0.931 1_655 S
H233 C205 0.930 . S
H234 C207 0.929 . S
H235 C208 0.929 . S
H236 C213 0.930 . S
H237 C214 0.930 . S
H238 C216 0.929 . S
H239 C217 0.929 . S
La240 C242 2.928 . S
La240 O260 2.521 . S
La240 O261 2.628 . S
La240 O262 2.554 . S
La240 O263 2.757 . S
La240 O264 2.470 . S
La240 O269 2.482 . S
La240 O271 2.503 . S
La241 C251 2.928 . S
La241 O263 2.482 . S
La241 O265 2.503 . S
La241 O266 2.521 . S
La241 O267 2.628 . S
La241 O268 2.554 . S
La241 O269 2.757 . S
La241 O270 2.470 . S
C242 La240 2.928 . S
C242 C243 1.503 . S
C242 O260 1.261 . S
C242 O261 1.243 . S
C243 C242 1.503 . S
C243 C244 1.394 1_455 S
C243 C248 1.373 . S
C244 C243 1.394 1_655 S
C244 C245 1.380 . S
C244 H272 0.930 1_655 S
C245 C244 1.380 . S
C245 C246 1.376 . S
C245 H273 0.930 . S
C246 C245 1.376 . S
C246 C247 1.370 . S
C247 C246 1.370 . S
C247 C248 1.396 1_655 S
C247 H274 0.929 . S
C248 C243 1.373 . S
C248 C247 1.396 1_455 S
C248 H275 0.929 . S
C249 O262 1.240 . S
C249 O263 1.289 . S
C250 O264 1.258 . S
C250 O265 1.256 . S
C251 La241 2.928 . S
C251 C252 1.503 . S
C251 O266 1.261 . S
C251 O267 1.243 . S
C252 C251 1.503 . S
C252 C253 1.394 . S
C252 C257 1.373 . S
C253 C252 1.394 . S
C253 C254 1.380 . S
C253 H276 0.930 . S
C254 C253 1.380 . S
C254 C255 1.376 . S
C254 H277 0.930 . S
C255 C254 1.376 . S
C255 C256 1.370 . S
C256 C255 1.370 . S
C256 C257 1.396 . S
C256 H278 0.929 . S
C257 C252 1.373 . S
C257 C256 1.396 . S
C257 H279 0.929 . S
C258 O268 1.240 . S
C258 O269 1.289 . S
C259 O270 1.258 . S
C259 O271 1.256 . S
O260 La240 2.521 . S
O260 C242 1.261 . S
O261 La240 2.628 . S
O261 C242 1.243 . S
O262 La240 2.554 . S
O262 C249 1.240 . S
O263 La240 2.757 . S
O263 La241 2.482 . S
O263 C249 1.289 . S
O264 La240 2.470 . S
O264 C250 1.258 . S
O265 La241 2.503 . S
O265 C250 1.256 . S
O266 La241 2.521 . S
O266 C251 1.261 . S
O267 La241 2.628 . S
O267 C251 1.243 . S
O268 La241 2.554 . S
O268 C258 1.240 . S
O269 La240 2.482 . S
O269 La241 2.757 . S
O269 C258 1.289 . S
O270 La241 2.470 . S
O270 C259 1.258 . S
O271 La240 2.503 . S
O271 C259 1.256 . S
H272 C244 0.930 1_455 S
H273 C245 0.930 . S
H274 C247 0.929 . S
H275 C248 0.929 . S
H276 C253 0.930 . S
H277 C254 0.930 . S
H278 C256 0.929 . S
H279 C257 0.929 . S
La280 C282 2.928 . S
La280 O300 2.521 . S
La280 O301 2.628 . S
La280 O302 2.554 . S
La280 O303 2.757 . S
La280 O304 2.470 . S
La280 O309 2.482 . S
La280 O311 2.503 . S
La281 C291 2.928 . S
La281 O303 2.482 . S
La281 O305 2.503 . S
La281 O306 2.521 . S
La281 O307 2.628 . S
La281 O308 2.554 . S
La281 O309 2.757 . S
La281 O310 2.470 . S
C282 La280 2.928 . S
C282 C283 1.503 . S
C282 O300 1.261 . S
C282 O301 1.243 . S
C283 C282 1.503 . S
C283 C284 1.394 . S
C283 C288 1.373 . S
C284 C283 1.394 . S
C284 C285 1.380 . S
C284 H312 0.930 . S
C285 C284 1.380 . S
C285 C286 1.376 . S
C285 H313 0.930 . S
C286 C285 1.376 . S
C286 C287 1.370 . S
C287 C286 1.370 . S
C287 C288 1.396 . S
C287 H314 0.929 . S
C288 C283 1.373 . S
C288 C287 1.396 . S
C288 H315 0.929 . S
C289 O302 1.240 . S
C289 O303 1.289 . S
C290 O304 1.258 . S
C290 O305 1.256 . S
C291 La281 2.928 . S
C291 C292 1.503 . S
C291 O306 1.261 . S
C291 O307 1.243 . S
C292 C291 1.503 . S
C292 C293 1.395 1_565 S
C292 C297 1.373 . S
C293 C292 1.395 1_545 S
C293 C294 1.379 . S
C293 H316 0.931 1_545 S
C294 C293 1.379 . S
C294 C295 1.376 . S
C294 H317 0.930 . S
C295 C294 1.376 . S
C295 C296 1.370 . S
C296 C295 1.370 . S
C296 C297 1.396 1_545 S
C296 H318 0.929 . S
C297 C292 1.373 . S
C297 C296 1.396 1_565 S
C297 H319 0.929 . S
C298 O308 1.240 . S
C298 O309 1.289 . S
C299 O310 1.258 . S
C299 O311 1.256 . S
O300 La280 2.521 . S
O300 C282 1.261 . S
O301 La280 2.628 . S
O301 C282 1.243 . S
O302 La280 2.554 . S
O302 C289 1.240 . S
O303 La280 2.757 . S
O303 La281 2.482 . S
O303 C289 1.289 . S
O304 La280 2.470 . S
O304 C290 1.258 . S
O305 La281 2.503 . S
O305 C290 1.256 . S
O306 La281 2.521 . S
O306 C291 1.261 . S
O307 La281 2.628 . S
O307 C291 1.243 . S
O308 La281 2.554 . S
O308 C298 1.240 . S
O309 La280 2.482 . S
O309 La281 2.757 . S
O309 C298 1.289 . S
O310 La281 2.470 . S
O310 C299 1.258 . S
O311 La280 2.503 . S
O311 C299 1.256 . S
H312 C284 0.930 . S
H313 C285 0.930 . S
H314 C287 0.929 . S
H315 C288 0.929 . S
H316 C293 0.931 1_565 S
H317 C294 0.930 . S
H318 C296 0.929 . S
H319 C297 0.929 . S
La320 C322 2.928 . S
La320 O340 2.521 . S
La320 O341 2.628 . S
La320 O342 2.554 . S
La320 O343 2.757 . S
La320 O344 2.470 . S
La320 O349 2.482 . S
La320 O351 2.503 . S
La321 C331 2.928 . S
La321 O343 2.482 . S
La321 O345 2.503 . S
La321 O346 2.521 . S
La321 O347 2.628 . S
La321 O348 2.554 . S
La321 O349 2.757 . S
La321 O350 2.470 . S
C322 La320 2.928 . S
C322 C323 1.503 . S
C322 O340 1.261 . S
C322 O341 1.243 . S
C323 C322 1.503 . S
C323 C324 1.394 . S
C323 C328 1.373 . S
C324 C323 1.394 . S
C324 C325 1.380 . S
C324 H352 0.930 . S
C325 C324 1.380 . S
C325 C326 1.376 . S
C325 H353 0.930 . S
C326 C325 1.376 . S
C326 C327 1.370 . S
C327 C326 1.370 . S
C327 C328 1.396 . S
C327 H354 0.929 . S
C328 C323 1.373 . S
C328 C327 1.396 . S
C328 H355 0.929 . S
C329 O342 1.240 . S
C329 O343 1.289 . S
C330 O344 1.258 . S
C330 O345 1.256 . S
C331 La321 2.928 . S
C331 C332 1.503 . S
C331 O346 1.261 . S
C331 O347 1.243 . S
C332 C331 1.503 . S
C332 C333 1.394 . S
C332 C337 1.373 . S
C333 C332 1.394 . S
C333 C334 1.380 . S
C333 H356 0.930 . S
C334 C333 1.380 . S
C334 C335 1.376 . S
C334 H357 0.930 . S
C335 C334 1.376 . S
C335 C336 1.370 . S
C336 C335 1.370 . S
C336 C337 1.396 . S
C336 H358 0.929 . S
C337 C332 1.373 . S
C337 C336 1.396 . S
C337 H359 0.929 . S
C338 O348 1.240 . S
C338 O349 1.289 . S
C339 O350 1.258 . S
C339 O351 1.256 . S
O340 La320 2.521 . S
O340 C322 1.261 . S
O341 La320 2.628 . S
O341 C322 1.243 . S
O342 La320 2.554 . S
O342 C329 1.240 . S
O343 La320 2.757 . S
O343 La321 2.482 . S
O343 C329 1.289 . S
O344 La320 2.470 . S
O344 C330 1.258 . S
O345 La321 2.503 . S
O345 C330 1.256 . S
O346 La321 2.521 . S
O346 C331 1.261 . S
O347 La321 2.628 . S
O347 C331 1.243 . S
O348 La321 2.554 . S
O348 C338 1.240 . S
O349 La320 2.482 . S
O349 La321 2.757 . S
O349 C338 1.289 . S
O350 La321 2.470 . S
O350 C339 1.258 . S
O351 La320 2.503 . S
O351 C339 1.256 . S
H352 C324 0.930 . S
H353 C325 0.930 . S
H354 C327 0.929 . S
H355 C328 0.929 . S
H356 C333 0.930 . S
H357 C334 0.930 . S
H358 C336 0.929 . S
H359 C337 0.929 . S
La360 C362 2.928 . S
La360 O380 2.521 . S
La360 O381 2.628 . S
La360 O382 2.554 . S
La360 O383 2.757 . S
La360 O384 2.470 . S
La360 O389 2.482 . S
La360 O391 2.503 . S
La361 C371 2.928 . S
La361 O383 2.482 . S
La361 O385 2.503 . S
La361 O386 2.521 . S
La361 O387 2.628 . S
La361 O388 2.554 . S
La361 O389 2.757 . S
La361 O390 2.470 . S
C362 La360 2.928 . S
C362 C363 1.503 . S
C362 O380 1.261 . S
C362 O381 1.243 . S
C363 C362 1.503 . S
C363 C364 1.394 . S
C363 C368 1.373 . S
C364 C363 1.394 . S
C364 C365 1.380 . S
C364 H392 0.930 . S
C365 C364 1.380 . S
C365 C366 1.376 . S
C365 H393 0.930 . S
C366 C365 1.376 . S
C366 C367 1.370 . S
C367 C366 1.370 . S
C367 C368 1.396 . S
C367 H394 0.929 . S
C368 C363 1.373 . S
C368 C367 1.396 . S
C368 H395 0.929 . S
C369 O382 1.240 . S
C369 O383 1.289 . S
C370 O384 1.258 . S
C370 O385 1.256 . S
C371 La361 2.928 . S
C371 C372 1.503 . S
C371 O386 1.261 . S
C371 O387 1.243 . S
C372 C371 1.503 . S
C372 C373 1.394 1_455 S
C372 C377 1.373 . S
C373 C372 1.394 1_655 S
C373 C374 1.380 . S
C373 H396 0.930 1_655 S
C374 C373 1.380 . S
C374 C375 1.376 . S
C374 H397 0.930 . S
C375 C374 1.376 . S
C375 C376 1.370 . S
C376 C375 1.370 . S
C376 C377 1.396 1_655 S
C376 H398 0.929 . S
C377 C372 1.373 . S
C377 C376 1.396 1_455 S
C377 H399 0.929 . S
C378 O388 1.240 . S
C378 O389 1.289 . S
C379 O390 1.258 . S
C379 O391 1.256 . S
O380 La360 2.521 . S
O380 C362 1.261 . S
O381 La360 2.628 . S
O381 C362 1.243 . S
O382 La360 2.554 . S
O382 C369 1.240 . S
O383 La360 2.757 . S
O383 La361 2.482 . S
O383 C369 1.289 . S
O384 La360 2.470 . S
O384 C370 1.258 . S
O385 La361 2.503 . S
O385 C370 1.256 . S
O386 La361 2.521 . S
O386 C371 1.261 . S
O387 La361 2.628 . S
O387 C371 1.243 . S
O388 La361 2.554 . S
O388 C378 1.240 . S
O389 La360 2.482 . S
O389 La361 2.757 . S
O389 C378 1.289 . S
O390 La361 2.470 . S
O390 C379 1.258 . S
O391 La360 2.503 . S
O391 C379 1.256 . S
H392 C364 0.930 . S
H393 C365 0.930 . S
H394 C367 0.929 . S
H395 C368 0.929 . S
H396 C373 0.930 1_455 S
H397 C374 0.930 . S
H398 C376 0.929 . S
H399 C377 0.929 . S
La400 C402 2.928 . S
La400 O420 2.521 . S
La400 O421 2.628 . S
La400 O422 2.554 . S
La400 O423 2.757 . S
La400 O424 2.470 . S
La400 O429 2.482 . S
La400 O431 2.503 . S
La401 C411 2.928 . S
La401 O423 2.482 . S
La401 O425 2.503 . S
La401 O426 2.521 . S
La401 O427 2.628 . S
La401 O428 2.554 . S
La401 O429 2.757 . S
La401 O430 2.470 . S
C402 La400 2.928 . S
C402 C403 1.503 . S
C402 O420 1.261 . S
C402 O421 1.243 . S
C403 C402 1.503 . S
C403 C404 1.395 1_565 S
C403 C408 1.373 . S
C404 C403 1.395 1_545 S
C404 C405 1.379 . S
C404 H432 0.931 1_545 S
C405 C404 1.379 . S
C405 C406 1.376 . S
C405 H433 0.930 . S
C406 C405 1.376 . S
C406 C407 1.370 . S
C407 C406 1.370 . S
C407 C408 1.396 1_545 S
C407 H434 0.929 . S
C408 C403 1.373 . S
C408 C407 1.396 1_565 S
C408 H435 0.929 . S
C409 O422 1.240 . S
C409 O423 1.289 . S
C410 O424 1.258 . S
C410 O425 1.256 . S
C411 La401 2.928 . S
C411 C412 1.503 . S
C411 O426 1.261 . S
C411 O427 1.243 . S
C412 C411 1.503 . S
C412 C413 1.394 . S
C412 C417 1.373 . S
C413 C412 1.394 . S
C413 C414 1.380 . S
C413 H436 0.930 . S
C414 C413 1.380 . S
C414 C415 1.376 . S
C414 H437 0.930 . S
C415 C414 1.376 . S
C415 C416 1.370 . S
C416 C415 1.370 . S
C416 C417 1.396 . S
C416 H438 0.929 . S
C417 C412 1.373 . S
C417 C416 1.396 . S
C417 H439 0.929 . S
C418 O428 1.240 . S
C418 O429 1.289 . S
C419 O430 1.258 . S
C419 O431 1.256 . S
O420 La400 2.521 . S
O420 C402 1.261 . S
O421 La400 2.628 . S
O421 C402 1.243 . S
O422 La400 2.554 . S
O422 C409 1.240 . S
O423 La400 2.757 . S
O423 La401 2.482 . S
O423 C409 1.289 . S
O424 La400 2.470 . S
O424 C410 1.258 . S
O425 La401 2.503 . S
O425 C410 1.256 . S
O426 La401 2.521 . S
O426 C411 1.261 . S
O427 La401 2.628 . S
O427 C411 1.243 . S
O428 La401 2.554 . S
O428 C418 1.240 . S
O429 La400 2.482 . S
O429 La401 2.757 . S
O429 C418 1.289 . S
O430 La401 2.470 . S
O430 C419 1.258 . S
O431 La400 2.503 . S
O431 C419 1.256 . S
H432 C404 0.931 1_565 S
H433 C405 0.930 . S
H434 C407 0.929 . S
H435 C408 0.929 . S
H436 C413 0.930 . S
H437 C414 0.930 . S
H438 C416 0.929 . S
H439 C417 0.929 . S
La440 C442 2.928 . S
La440 O460 2.521 . S
La440 O461 2.628 . S
La440 O462 2.554 . S
La440 O463 2.757 . S
La440 O464 2.470 . S
La440 O469 2.482 . S
La440 O471 2.503 . S
La441 C451 2.928 . S
La441 O463 2.482 . S
La441 O465 2.503 . S
La441 O466 2.521 . S
La441 O467 2.628 . S
La441 O468 2.554 . S
La441 O469 2.757 . S
La441 O470 2.470 . S
C442 La440 2.928 . S
C442 C443 1.503 . S
C442 O460 1.261 . S
C442 O461 1.243 . S
C443 C442 1.503 . S
C443 C444 1.394 . S
C443 C448 1.373 . S
C444 C443 1.394 . S
C444 C445 1.380 . S
C444 H472 0.930 . S
C445 C444 1.380 . S
C445 C446 1.376 . S
C445 H473 0.930 . S
C446 C445 1.376 . S
C446 C447 1.370 . S
C447 C446 1.370 . S
C447 C448 1.396 . S
C447 H474 0.929 . S
C448 C443 1.373 . S
C448 C447 1.396 . S
C448 H475 0.929 . S
C449 O462 1.240 . S
C449 O463 1.289 . S
C450 O464 1.258 . S
C450 O465 1.256 . S
C451 La441 2.928 . S
C451 C452 1.503 . S
C451 O466 1.261 . S
C451 O467 1.243 . S
C452 C451 1.503 . S
C452 C453 1.394 . S
C452 C457 1.373 . S
C453 C452 1.394 . S
C453 C454 1.380 . S
C453 H476 0.930 . S
C454 C453 1.380 . S
C454 C455 1.376 . S
C454 H477 0.930 . S
C455 C454 1.376 . S
C455 C456 1.370 . S
C456 C455 1.370 . S
C456 C457 1.396 . S
C456 H478 0.929 . S
C457 C452 1.373 . S
C457 C456 1.396 . S
C457 H479 0.929 . S
C458 O468 1.240 . S
C458 O469 1.289 . S
C459 O470 1.258 . S
C459 O471 1.256 . S
O460 La440 2.521 . S
O460 C442 1.261 . S
O461 La440 2.628 . S
O461 C442 1.243 . S
O462 La440 2.554 . S
O462 C449 1.240 . S
O463 La440 2.757 . S
O463 La441 2.482 . S
O463 C449 1.289 . S
O464 La440 2.470 . S
O464 C450 1.258 . S
O465 La441 2.503 . S
O465 C450 1.256 . S
O466 La441 2.521 . S
O466 C451 1.261 . S
O467 La441 2.628 . S
O467 C451 1.243 . S
O468 La441 2.554 . S
O468 C458 1.240 . S
O469 La440 2.482 . S
O469 La441 2.757 . S
O469 C458 1.289 . S
O470 La441 2.470 . S
O470 C459 1.258 . S
O471 La440 2.503 . S
O471 C459 1.256 . S
H472 C444 0.930 . S
H473 C445 0.930 . S
H474 C447 0.929 . S
H475 C448 0.929 . S
H476 C453 0.930 . S
H477 C454 0.930 . S
H478 C456 0.929 . S
H479 C457 0.929 . S
C480 C481 1.349 . S
C480 C482 1.327 . S
C480 H505 0.950 . S
C481 C480 1.349 . S
C481 C497 1.349 . S
C482 C480 1.327 . S
C482 C501 1.429 . S
C482 H506 0.950 . S
C483 C500 1.574 . S
C483 C502 1.368 . S
C483 H507 0.949 . S
H484 C488 0.949 . S
C485 C486 1.349 . S
C485 C487 1.327 . S
C485 H508 0.950 . S
C486 C485 1.349 . S
C486 C498 1.349 . S
C487 C485 1.327 . S
C487 C503 1.429 . S
C487 H509 0.950 . S
C488 H484 0.949 . S
C488 C496 1.574 . S
C488 C504 1.368 . S
H489 C497 0.950 . S
H490 C495 0.950 . S
H491 C496 0.949 . S
H492 C498 0.950 . S
H493 C499 0.950 . S
H494 C500 0.949 . S
C495 H490 0.950 . S
C495 C497 1.327 . S
C495 C501 1.429 . S
C496 C488 1.574 . S
C496 H491 0.949 . S
C496 C502 1.368 . S
C497 C481 1.349 . S
C497 H489 0.950 . S
C497 C495 1.327 . S
C498 C486 1.349 . S
C498 H492 0.950 . S
C498 C499 1.327 . S
C499 H493 0.950 . S
C499 C498 1.327 . S
C499 C503 1.429 . S
C500 C483 1.574 . S
C500 H494 0.949 . S
C500 C504 1.368 . S
C501 C482 1.429 . S
C501 C495 1.429 . S
C501 C502 1.523 . S
C502 C483 1.368 . S
C502 C496 1.368 . S
C502 C501 1.523 . S
C503 C487 1.429 . S
C503 C499 1.429 . S
C503 C504 1.523 . S
C504 C488 1.368 . S
C504 C500 1.368 . S
C504 C503 1.523 . S
H505 C480 0.950 . S
H506 C482 0.950 . S
H507 C483 0.949 . S
H508 C485 0.950 . S
H509 C487 0.950 . S
C510 C511 1.349 . S
C510 C512 1.327 . S
C510 H535 0.950 . S
C511 C510 1.349 . S
C511 C527 1.349 . S
C512 C510 1.327 . S
C512 C531 1.429 . S
C512 H536 0.950 . S
C513 C530 1.574 1_455 S
C513 C532 1.368 . S
C513 H537 0.949 . S
H514 C518 0.949 . S
C515 C516 1.349 . S
C515 C517 1.327 . S
C515 H538 0.950 . S
C516 C515 1.349 . S
C516 C528 1.349 . S
C517 C515 1.327 . S
C517 C533 1.429 . S
C517 H539 0.950 . S
C518 H514 0.949 . S
C518 C526 1.574 1_655 S
C518 C534 1.368 . S
H519 C527 0.950 . S
H520 C525 0.950 . S
H521 C526 0.949 . S
H522 C528 0.950 . S
H523 C529 0.950 . S
H524 C530 0.949 . S
C525 H520 0.950 . S
C525 C527 1.327 . S
C525 C531 1.429 . S
C526 C518 1.574 1_455 S
C526 H521 0.949 . S
C526 C532 1.368 . S
C527 C511 1.349 . S
C527 H519 0.950 . S
C527 C525 1.327 . S
C528 C516 1.349 . S
C528 H522 0.950 . S
C528 C529 1.327 . S
C529 H523 0.950 . S
C529 C528 1.327 . S
C529 C533 1.429 . S
C530 C513 1.574 1_655 S
C530 H524 0.949 . S
C530 C534 1.368 . S
C531 C512 1.429 . S
C531 C525 1.429 . S
C531 C532 1.523 . S
C532 C513 1.368 . S
C532 C526 1.368 . S
C532 C531 1.523 . S
C533 C517 1.429 . S
C533 C529 1.429 . S
C533 C534 1.523 . S
C534 C518 1.368 . S
C534 C530 1.368 . S
C534 C533 1.523 . S
H535 C510 0.950 . S
H536 C512 0.950 . S
H537 C513 0.949 . S
H538 C515 0.950 . S
H539 C517 0.950 . S
C540 C541 1.349 . S
C540 C542 1.327 . S
C540 H565 0.950 . S
C541 C540 1.349 . S
C541 C557 1.349 . S
C542 C540 1.327 . S
C542 C561 1.429 . S
C542 H566 0.950 . S
C543 C560 1.574 1_545 S
C543 C562 1.368 . S
C543 H567 0.949 . S
H544 C548 0.949 . S
C545 C546 1.349 . S
C545 C547 1.327 . S
C545 H568 0.950 . S
C546 C545 1.349 . S
C546 C558 1.349 . S
C547 C545 1.327 . S
C547 C563 1.429 . S
C547 H569 0.950 . S
C548 H544 0.949 . S
C548 C556 1.574 1_565 S
C548 C564 1.368 . S
H549 C557 0.950 . S
H550 C555 0.950 . S
H551 C556 0.949 . S
H552 C558 0.950 . S
H553 C559 0.950 . S
H554 C560 0.949 . S
C555 H550 0.950 . S
C555 C557 1.327 . S
C555 C561 1.429 . S
C556 C548 1.574 1_545 S
C556 H551 0.949 . S
C556 C562 1.368 . S
C557 C541 1.349 . S
C557 H549 0.950 . S
C557 C555 1.327 . S
C558 C546 1.349 . S
C558 H552 0.950 . S
C558 C559 1.327 . S
C559 H553 0.950 . S
C559 C558 1.327 . S
C559 C563 1.429 . S
C560 C543 1.574 1_565 S
C560 H554 0.949 . S
C560 C564 1.368 . S
C561 C542 1.429 . S
C561 C555 1.429 . S
C561 C562 1.523 . S
C562 C543 1.368 . S
C562 C556 1.368 . S
C562 C561 1.523 . S
C563 C547 1.429 . S
C563 C559 1.429 . S
C563 C564 1.523 . S
C564 C548 1.368 . S
C564 C560 1.368 . S
C564 C563 1.523 . S
H565 C540 0.950 . S
H566 C542 0.950 . S
H567 C543 0.949 . S
H568 C545 0.950 . S
H569 C547 0.950 . S
C570 C571 1.349 . S
C570 C572 1.327 . S
C570 H595 0.950 . S
C571 C570 1.349 . S
C571 C587 1.349 . S
C572 C570 1.327 . S
C572 C591 1.429 . S
C572 H596 0.950 . S
C573 C590 1.574 . S
C573 C592 1.368 . S
C573 H597 0.949 . S
H574 C578 0.949 . S
C575 C576 1.349 . S
C575 C577 1.327 . S
C575 H598 0.950 . S
C576 C575 1.349 . S
C576 C588 1.349 . S
C577 C575 1.327 . S
C577 C593 1.429 . S
C577 H599 0.950 . S
C578 H574 0.949 . S
C578 C586 1.574 . S
C578 C594 1.368 . S
H579 C587 0.950 . S
H580 C585 0.950 . S
H581 C586 0.949 . S
H582 C588 0.950 . S
H583 C589 0.950 . S
H584 C590 0.949 . S
C585 H580 0.950 . S
C585 C587 1.327 . S
C585 C591 1.429 . S
C586 C578 1.574 . S
C586 H581 0.949 . S
C586 C592 1.368 . S
C587 C571 1.349 . S
C587 H579 0.950 . S
C587 C585 1.327 . S
C588 C576 1.349 . S
C588 H582 0.950 . S
C588 C589 1.327 . S
C589 H583 0.950 . S
C589 C588 1.327 . S
C589 C593 1.429 . S
C590 C573 1.574 . S
C590 H584 0.949 . S
C590 C594 1.368 . S
C591 C572 1.429 . S
C591 C585 1.429 . S
C591 C592 1.523 . S
C592 C573 1.368 . S
C592 C586 1.368 . S
C592 C591 1.523 . S
C593 C577 1.429 . S
C593 C589 1.429 . S
C593 C594 1.523 . S
C594 C578 1.368 . S
C594 C590 1.368 . S
C594 C593 1.523 . S
H595 C570 0.950 . S
H596 C572 0.950 . S
H597 C573 0.949 . S
H598 C575 0.950 . S
H599 C577 0.950 . S
C600 C601 1.349 . S
C600 C602 1.327 . S
C600 H625 0.950 . S
C601 C600 1.349 . S
C601 C617 1.349 . S
C602 C600 1.327 . S
C602 C621 1.429 . S
C602 H626 0.950 . S
C603 C620 1.574 1_455 S
C603 C622 1.368 . S
C603 H627 0.949 . S
H604 C608 0.949 . S
C605 C606 1.349 . S
C605 C607 1.327 . S
C605 H628 0.950 . S
C606 C605 1.349 . S
C606 C618 1.349 . S
C607 C605 1.327 . S
C607 C623 1.429 . S
C607 H629 0.950 . S
C608 H604 0.949 . S
C608 C616 1.574 1_655 S
C608 C624 1.368 . S
H609 C617 0.950 . S
H610 C615 0.950 . S
H611 C616 0.949 . S
H612 C618 0.950 . S
H613 C619 0.950 . S
H614 C620 0.949 . S
C615 H610 0.950 . S
C615 C617 1.327 . S
C615 C621 1.429 . S
C616 C608 1.574 1_455 S
C616 H611 0.949 . S
C616 C622 1.368 . S
C617 C601 1.349 . S
C617 H609 0.950 . S
C617 C615 1.327 . S
C618 C606 1.349 . S
C618 H612 0.950 . S
C618 C619 1.327 . S
C619 H613 0.950 . S
C619 C618 1.327 . S
C619 C623 1.429 . S
C620 C603 1.574 1_655 S
C620 H614 0.949 . S
C620 C624 1.368 . S
C621 C602 1.429 . S
C621 C615 1.429 . S
C621 C622 1.523 . S
C622 C603 1.368 . S
C622 C616 1.368 . S
C622 C621 1.523 . S
C623 C607 1.429 . S
C623 C619 1.429 . S
C623 C624 1.523 . S
C624 C608 1.368 . S
C624 C620 1.368 . S
C624 C623 1.523 . S
H625 C600 0.950 . S
H626 C602 0.950 . S
H627 C603 0.949 . S
H628 C605 0.950 . S
H629 C607 0.950 . S
C630 C631 1.349 . S
C630 C632 1.327 . S
C630 H655 0.950 . S
C631 C630 1.349 . S
C631 C647 1.349 . S
C632 C630 1.327 . S
C632 C651 1.429 . S
C632 H656 0.950 . S
C633 C650 1.574 1_565 S
C633 C652 1.368 . S
C633 H657 0.949 . S
H634 C638 0.949 . S
C635 C636 1.349 . S
C635 C637 1.327 . S
C635 H658 0.950 . S
C636 C635 1.349 . S
C636 C648 1.349 . S
C637 C635 1.327 . S
C637 C653 1.429 . S
C637 H659 0.950 . S
C638 H634 0.949 . S
C638 C646 1.574 1_545 S
C638 C654 1.368 . S
H639 C647 0.950 . S
H640 C645 0.950 . S
H641 C646 0.949 . S
H642 C648 0.950 . S
H643 C649 0.950 . S
H644 C650 0.949 . S
C645 H640 0.950 . S
C645 C647 1.327 . S
C645 C651 1.429 . S
C646 C638 1.574 1_565 S
C646 H641 0.949 . S
C646 C652 1.368 . S
C647 C631 1.349 . S
C647 H639 0.950 . S
C647 C645 1.327 . S
C648 C636 1.349 . S
C648 H642 0.950 . S
C648 C649 1.327 . S
C649 H643 0.950 . S
C649 C648 1.327 . S
C649 C653 1.429 . S
C650 C633 1.574 1_545 S
C650 H644 0.949 . S
C650 C654 1.368 . S
C651 C632 1.429 . S
C651 C645 1.429 . S
C651 C652 1.523 . S
C652 C633 1.368 . S
C652 C646 1.368 . S
C652 C651 1.523 . S
C653 C637 1.429 . S
C653 C649 1.429 . S
C653 C654 1.523 . S
C654 C638 1.368 . S
C654 C650 1.368 . S
C654 C653 1.523 . S
H655 C630 0.950 . S
H656 C632 0.950 . S
H657 C633 0.949 . S
H658 C635 0.950 . S
H659 C637 0.950 . S
C660 C661 1.349 . S
C660 C662 1.327 . S
C660 H685 0.950 . S
C661 C660 1.349 . S
C661 C677 1.349 . S
C662 C660 1.327 . S
C662 C681 1.429 . S
C662 H686 0.950 . S
C663 C680 1.574 . S
C663 C682 1.368 . S
C663 H687 0.949 . S
H664 C668 0.949 . S
C665 C666 1.349 . S
C665 C667 1.327 . S
C665 H688 0.950 . S
C666 C665 1.349 . S
C666 C678 1.349 . S
C667 C665 1.327 . S
C667 C683 1.429 . S
C667 H689 0.950 . S
C668 H664 0.949 . S
C668 C676 1.574 . S
C668 C684 1.368 . S
H669 C677 0.950 . S
H670 C675 0.950 . S
H671 C676 0.949 . S
H672 C678 0.950 . S
H673 C679 0.950 . S
H674 C680 0.949 . S
C675 H670 0.950 . S
C675 C677 1.327 . S
C675 C681 1.429 . S
C676 C668 1.574 . S
C676 H671 0.949 . S
C676 C682 1.368 . S
C677 C661 1.349 . S
C677 H669 0.950 . S
C677 C675 1.327 . S
C678 C666 1.349 . S
C678 H672 0.950 . S
C678 C679 1.327 . S
C679 H673 0.950 . S
C679 C678 1.327 . S
C679 C683 1.429 . S
C680 C663 1.574 . S
C680 H674 0.949 . S
C680 C684 1.368 . S
C681 C662 1.429 . S
C681 C675 1.429 . S
C681 C682 1.523 . S
C682 C663 1.368 . S
C682 C676 1.368 . S
C682 C681 1.523 . S
C683 C667 1.429 . S
C683 C679 1.429 . S
C683 C684 1.523 . S
C684 C668 1.368 . S
C684 C680 1.368 . S
C684 C683 1.523 . S
H685 C660 0.950 . S
H686 C662 0.950 . S
H687 C663 0.949 . S
H688 C665 0.950 . S
H689 C667 0.950 . S
C690 C691 1.349 . S
C690 C692 1.327 . S
C690 H715 0.950 . S
C691 C690 1.349 . S
C691 C707 1.349 . S
C692 C690 1.327 . S
C692 C711 1.429 . S
C692 H716 0.950 . S
C693 C710 1.574 1_455 S
C693 C712 1.368 . S
C693 H717 0.949 . S
H694 C698 0.949 . S
C695 C696 1.349 . S
C695 C697 1.327 . S
C695 H718 0.950 . S
C696 C695 1.349 . S
C696 C708 1.349 . S
C697 C695 1.327 . S
C697 C713 1.429 . S
C697 H719 0.950 . S
C698 H694 0.949 . S
C698 C706 1.574 1_655 S
C698 C714 1.368 . S
H699 C707 0.950 . S
H700 C705 0.950 . S
H701 C706 0.949 . S
H702 C708 0.950 . S
H703 C709 0.950 . S
H704 C710 0.949 . S
C705 H700 0.950 . S
C705 C707 1.327 . S
C705 C711 1.429 . S
C706 C698 1.574 1_455 S
C706 H701 0.949 . S
C706 C712 1.368 . S
C707 C691 1.349 . S
C707 H699 0.950 . S
C707 C705 1.327 . S
C708 C696 1.349 . S
C708 H702 0.950 . S
C708 C709 1.327 . S
C709 H703 0.950 . S
C709 C708 1.327 . S
C709 C713 1.429 . S
C710 C693 1.574 1_655 S
C710 H704 0.949 . S
C710 C714 1.368 . S
C711 C692 1.429 . S
C711 C705 1.429 . S
C711 C712 1.523 . S
C712 C693 1.368 . S
C712 C706 1.368 . S
C712 C711 1.523 . S
C713 C697 1.429 . S
C713 C709 1.429 . S
C713 C714 1.523 . S
C714 C698 1.368 . S
C714 C710 1.368 . S
C714 C713 1.523 . S
H715 C690 0.950 . S
H716 C692 0.950 . S
H717 C693 0.949 . S
H718 C695 0.950 . S
H719 C697 0.950 . S
C720 C721 1.349 . S
C720 C722 1.327 . S
C720 H745 0.950 . S
C721 C720 1.349 . S
C721 C737 1.349 . S
C722 C720 1.327 . S
C722 C741 1.429 . S
C722 H746 0.950 . S
C723 C740 1.574 1_565 S
C723 C742 1.368 . S
C723 H747 0.949 . S
H724 C728 0.949 . S
C725 C726 1.349 . S
C725 C727 1.327 . S
C725 H748 0.950 . S
C726 C725 1.349 . S
C726 C738 1.349 . S
C727 C725 1.327 . S
C727 C743 1.429 . S
C727 H749 0.950 . S
C728 H724 0.949 . S
C728 C736 1.574 1_545 S
C728 C744 1.368 . S
H729 C737 0.950 . S
H730 C735 0.950 . S
H731 C736 0.949 . S
H732 C738 0.950 . S
H733 C739 0.950 . S
H734 C740 0.949 . S
C735 H730 0.950 . S
C735 C737 1.327 . S
C735 C741 1.429 . S
C736 C728 1.574 1_565 S
C736 H731 0.949 . S
C736 C742 1.368 . S
C737 C721 1.349 . S
C737 H729 0.950 . S
C737 C735 1.327 . S
C738 C726 1.349 . S
C738 H732 0.950 . S
C738 C739 1.327 . S
C739 H733 0.950 . S
C739 C738 1.327 . S
C739 C743 1.429 . S
C740 C723 1.574 1_545 S
C740 H734 0.949 . S
C740 C744 1.368 . S
C741 C722 1.429 . S
C741 C735 1.429 . S
C741 C742 1.523 . S
C742 C723 1.368 . S
C742 C736 1.368 . S
C742 C741 1.523 . S
C743 C727 1.429 . S
C743 C739 1.429 . S
C743 C744 1.523 . S
C744 C728 1.368 . S
C744 C740 1.368 . S
C744 C743 1.523 . S
H745 C720 0.950 . S
H746 C722 0.950 . S
H747 C723 0.949 . S
H748 C725 0.950 . S
H749 C727 0.950 . S
C750 C751 1.349 . S
C750 C752 1.327 . S
C750 H775 0.950 . S
C751 C750 1.349 . S
C751 C767 1.349 . S
C752 C750 1.327 . S
C752 C771 1.429 . S
C752 H776 0.950 . S
C753 C770 1.574 . S
C753 C772 1.368 . S
C753 H777 0.949 . S
H754 C758 0.949 . S
C755 C756 1.349 . S
C755 C757 1.327 . S
C755 H778 0.950 . S
C756 C755 1.349 . S
C756 C768 1.349 . S
C757 C755 1.327 . S
C757 C773 1.429 . S
C757 H779 0.950 . S
C758 H754 0.949 . S
C758 C766 1.574 . S
C758 C774 1.368 . S
H759 C767 0.950 . S
H760 C765 0.950 . S
H761 C766 0.949 . S
H762 C768 0.950 . S
H763 C769 0.950 . S
H764 C770 0.949 . S
C765 H760 0.950 . S
C765 C767 1.327 . S
C765 C771 1.429 . S
C766 C758 1.574 . S
C766 H761 0.949 . S
C766 C772 1.368 . S
C767 C751 1.349 . S
C767 H759 0.950 . S
C767 C765 1.327 . S
C768 C756 1.349 . S
C768 H762 0.950 . S
C768 C769 1.327 . S
C769 H763 0.950 . S
C769 C768 1.327 . S
C769 C773 1.429 . S
C770 C753 1.574 . S
C770 H764 0.949 . S
C770 C774 1.368 . S
C771 C752 1.429 . S
C771 C765 1.429 . S
C771 C772 1.523 . S
C772 C753 1.368 . S
C772 C766 1.368 . S
C772 C771 1.523 . S
C773 C757 1.429 . S
C773 C769 1.429 . S
C773 C774 1.523 . S
C774 C758 1.368 . S
C774 C770 1.368 . S
C774 C773 1.523 . S
H775 C750 0.950 . S
H776 C752 0.950 . S
H777 C753 0.949 . S
H778 C755 0.950 . S
H779 C757 0.950 . S
C780 C781 1.349 . S
C780 C782 1.327 . S
C780 H805 0.950 . S
C781 C780 1.349 . S
C781 C797 1.349 . S
C782 C780 1.327 . S
C782 C801 1.429 . S
C782 H806 0.950 . S
C783 C800 1.574 1_455 S
C783 C802 1.368 . S
C783 H807 0.949 . S
H784 C788 0.949 . S
C785 C786 1.349 . S
C785 C787 1.327 . S
C785 H808 0.950 . S
C786 C785 1.349 . S
C786 C798 1.349 . S
C787 C785 1.327 . S
C787 C803 1.429 . S
C787 H809 0.950 . S
C788 H784 0.949 . S
C788 C796 1.574 1_655 S
C788 C804 1.368 . S
H789 C797 0.950 . S
H790 C795 0.950 . S
H791 C796 0.949 . S
H792 C798 0.950 . S
H793 C799 0.950 . S
H794 C800 0.949 . S
C795 H790 0.950 . S
C795 C797 1.327 . S
C795 C801 1.429 . S
C796 C788 1.574 1_455 S
C796 H791 0.949 . S
C796 C802 1.368 . S
C797 C781 1.349 . S
C797 H789 0.950 . S
C797 C795 1.327 . S
C798 C786 1.349 . S
C798 H792 0.950 . S
C798 C799 1.327 . S
C799 H793 0.950 . S
C799 C798 1.327 . S
C799 C803 1.429 . S
C800 C783 1.574 1_655 S
C800 H794 0.949 . S
C800 C804 1.368 . S
C801 C782 1.429 . S
C801 C795 1.429 . S
C801 C802 1.523 . S
C802 C783 1.368 . S
C802 C796 1.368 . S
C802 C801 1.523 . S
C803 C787 1.429 . S
C803 C799 1.429 . S
C803 C804 1.523 . S
C804 C788 1.368 . S
C804 C800 1.368 . S
C804 C803 1.523 . S
H805 C780 0.950 . S
H806 C782 0.950 . S
H807 C783 0.949 . S
H808 C785 0.950 . S
H809 C787 0.950 . S
C810 C811 1.349 . S
C810 C812 1.327 . S
C810 H835 0.950 . S
C811 C810 1.349 . S
C811 C827 1.349 . S
C812 C810 1.327 . S
C812 C831 1.429 . S
C812 H836 0.950 . S
C813 C830 1.574 1_545 S
C813 C832 1.368 . S
C813 H837 0.949 . S
H814 C818 0.949 . S
C815 C816 1.349 . S
C815 C817 1.327 . S
C815 H838 0.950 . S
C816 C815 1.349 . S
C816 C828 1.349 . S
C817 C815 1.327 . S
C817 C833 1.429 . S
C817 H839 0.950 . S
C818 H814 0.949 . S
C818 C826 1.574 1_565 S
C818 C834 1.368 . S
H819 C827 0.950 . S
H820 C825 0.950 . S
H821 C826 0.949 . S
H822 C828 0.950 . S
H823 C829 0.950 . S
H824 C830 0.949 . S
C825 H820 0.950 . S
C825 C827 1.327 . S
C825 C831 1.429 . S
C826 C818 1.574 1_545 S
C826 H821 0.949 . S
C826 C832 1.368 . S
C827 C811 1.349 . S
C827 H819 0.950 . S
C827 C825 1.327 . S
C828 C816 1.349 . S
C828 H822 0.950 . S
C828 C829 1.327 . S
C829 H823 0.950 . S
C829 C828 1.327 . S
C829 C833 1.429 . S
C830 C813 1.574 1_565 S
C830 H824 0.949 . S
C830 C834 1.368 . S
C831 C812 1.429 . S
C831 C825 1.429 . S
C831 C832 1.523 . S
C832 C813 1.368 . S
C832 C826 1.368 . S
C832 C831 1.523 . S
C833 C817 1.429 . S
C833 C829 1.429 . S
C833 C834 1.523 . S
C834 C818 1.368 . S
C834 C830 1.368 . S
C834 C833 1.523 . S
H835 C810 0.950 . S
H836 C812 0.950 . S
H837 C813 0.949 . S
H838 C815 0.950 . S
H839 C817 0.950 . S
C840 C841 1.349 . S
C840 C842 1.327 . S
C840 H865 0.950 . S
C841 C840 1.349 . S
C841 C857 1.349 . S
C842 C840 1.327 . S
C842 C861 1.429 . S
C842 H866 0.950 . S
C843 C860 1.574 . S
C843 C862 1.368 . S
C843 H867 0.949 . S
H844 C848 0.949 . S
C845 C846 1.349 . S
C845 C847 1.327 . S
C845 H868 0.950 . S
C846 C845 1.349 . S
C846 C858 1.349 . S
C847 C845 1.327 . S
C847 C863 1.429 . S
C847 H869 0.950 . S
C848 H844 0.949 . S
C848 C856 1.574 . S
C848 C864 1.368 . S
H849 C857 0.950 . S
H850 C855 0.950 . S
H851 C856 0.949 . S
H852 C858 0.950 . S
H853 C859 0.950 . S
H854 C860 0.949 . S
C855 H850 0.950 . S
C855 C857 1.327 . S
C855 C861 1.429 . S
C856 C848 1.574 . S
C856 H851 0.949 . S
C856 C862 1.368 . S
C857 C841 1.349 . S
C857 H849 0.950 . S
C857 C855 1.327 . S
C858 C846 1.349 . S
C858 H852 0.950 . S
C858 C859 1.327 . S
C859 H853 0.950 . S
C859 C858 1.327 . S
C859 C863 1.429 . S
C860 C843 1.574 . S
C860 H854 0.949 . S
C860 C864 1.368 . S
C861 C842 1.429 . S
C861 C855 1.429 . S
C861 C862 1.523 . S
C862 C843 1.368 . S
C862 C856 1.368 . S
C862 C861 1.523 . S
C863 C847 1.429 . S
C863 C859 1.429 . S
C863 C864 1.523 . S
C864 C848 1.368 . S
C864 C860 1.368 . S
C864 C863 1.523 . S
H865 C840 0.950 . S
H866 C842 0.950 . S
H867 C843 0.949 . S
H868 C845 0.950 . S
H869 C847 0.950 . S
C870 C871 1.349 . S
C870 C872 1.327 . S
C870 H895 0.950 . S
C871 C870 1.349 . S
C871 C887 1.349 . S
C872 C870 1.327 . S
C872 C891 1.429 . S
C872 H896 0.950 . S
C873 C890 1.574 . S
C873 C892 1.368 . S
C873 H897 0.949 . S
H874 C878 0.949 . S
C875 C876 1.349 . S
C875 C877 1.327 . S
C875 H898 0.950 . S
C876 C875 1.349 . S
C876 C888 1.349 . S
C877 C875 1.327 . S
C877 C893 1.429 . S
C877 H899 0.950 . S
C878 H874 0.949 . S
C878 C886 1.574 . S
C878 C894 1.368 . S
H879 C887 0.950 . S
H880 C885 0.950 . S
H881 C886 0.949 . S
H882 C888 0.950 . S
H883 C889 0.950 . S
H884 C890 0.949 . S
C885 H880 0.950 . S
C885 C887 1.327 . S
C885 C891 1.429 . S
C886 C878 1.574 . S
C886 H881 0.949 . S
C886 C892 1.368 . S
C887 C871 1.349 . S
C887 H879 0.950 . S
C887 C885 1.327 . S
C888 C876 1.349 . S
C888 H882 0.950 . S
C888 C889 1.327 . S
C889 H883 0.950 . S
C889 C888 1.327 . S
C889 C893 1.429 . S
C890 C873 1.574 . S
C890 H884 0.949 . S
C890 C894 1.368 . S
C891 C872 1.429 . S
C891 C885 1.429 . S
C891 C892 1.523 . S
C892 C873 1.368 . S
C892 C886 1.368 . S
C892 C891 1.523 . S
C893 C877 1.429 . S
C893 C889 1.429 . S
C893 C894 1.523 . S
C894 C878 1.368 . S
C894 C890 1.368 . S
C894 C893 1.523 . S
H895 C870 0.950 . S
H896 C872 0.950 . S
H897 C873 0.949 . S
H898 C875 0.950 . S
H899 C877 0.950 . S
C900 C901 1.349 . S
C900 C902 1.327 . S
C900 H925 0.950 . S
C901 C900 1.349 . S
C901 C917 1.349 . S
C902 C900 1.327 . S
C902 C921 1.429 . S
C902 H926 0.950 . S
C903 C920 1.574 . S
C903 C922 1.368 . S
C903 H927 0.949 . S
H904 C908 0.949 . S
C905 C906 1.349 . S
C905 C907 1.327 . S
C905 H928 0.950 . S
C906 C905 1.349 . S
C906 C918 1.349 . S
C907 C905 1.327 . S
C907 C923 1.429 . S
C907 H929 0.950 . S
C908 H904 0.949 . S
C908 C916 1.574 . S
C908 C924 1.368 . S
H909 C917 0.950 . S
H910 C915 0.950 . S
H911 C916 0.949 . S
H912 C918 0.950 . S
H913 C919 0.950 . S
H914 C920 0.949 . S
C915 H910 0.950 . S
C915 C917 1.327 . S
C915 C921 1.429 . S
C916 C908 1.574 . S
C916 H911 0.949 . S
C916 C922 1.368 . S
C917 C901 1.349 . S
C917 H909 0.950 . S
C917 C915 1.327 . S
C918 C906 1.349 . S
C918 H912 0.950 . S
C918 C919 1.327 . S
C919 H913 0.950 . S
C919 C918 1.327 . S
C919 C923 1.429 . S
C920 C903 1.574 . S
C920 H914 0.949 . S
C920 C924 1.368 . S
C921 C902 1.429 . S
C921 C915 1.429 . S
C921 C922 1.523 . S
C922 C903 1.368 . S
C922 C916 1.368 . S
C922 C921 1.523 . S
C923 C907 1.429 . S
C923 C919 1.429 . S
C923 C924 1.523 . S
C924 C908 1.368 . S
C924 C920 1.368 . S
C924 C923 1.523 . S
H925 C900 0.950 . S
H926 C902 0.950 . S
H927 C903 0.949 . S
H928 C905 0.950 . S
H929 C907 0.950 . S
C930 C931 1.349 . S
C930 C932 1.327 . S
C930 H955 0.950 . S
C931 C930 1.349 . S
C931 C947 1.349 . S
C932 C930 1.327 . S
C932 C951 1.429 . S
C932 H956 0.950 . S
C933 C950 1.574 . S
C933 C952 1.368 . S
C933 H957 0.949 . S
H934 C938 0.949 . S
C935 C936 1.349 . S
C935 C937 1.327 . S
C935 H958 0.950 . S
C936 C935 1.349 . S
C936 C948 1.349 . S
C937 C935 1.327 . S
C937 C953 1.429 . S
C937 H959 0.950 . S
C938 H934 0.949 . S
C938 C946 1.574 . S
C938 C954 1.368 . S
H939 C947 0.950 . S
H940 C945 0.950 . S
H941 C946 0.949 . S
H942 C948 0.950 . S
H943 C949 0.950 . S
H944 C950 0.949 . S
C945 H940 0.950 . S
C945 C947 1.327 . S
C945 C951 1.429 . S
C946 C938 1.574 . S
C946 H941 0.949 . S
C946 C952 1.368 . S
C947 C931 1.349 . S
C947 H939 0.950 . S
C947 C945 1.327 . S
C948 C936 1.349 . S
C948 H942 0.950 . S
C948 C949 1.327 . S
C949 H943 0.950 . S
C949 C948 1.327 . S
C949 C953 1.429 . S
C950 C933 1.574 . S
C950 H944 0.949 . S
C950 C954 1.368 . S
C951 C932 1.429 . S
C951 C945 1.429 . S
C951 C952 1.523 . S
C952 C933 1.368 . S
C952 C946 1.368 . S
C952 C951 1.523 . S
C953 C937 1.429 . S
C953 C949 1.429 . S
C953 C954 1.523 . S
C954 C938 1.368 . S
C954 C950 1.368 . S
C954 C953 1.523 . S
H955 C930 0.950 . S
H956 C932 0.950 . S
H957 C933 0.949 . S
H958 C935 0.950 . S
H959 C937 0.950 . S
C960 C961 1.349 . S
C960 C962 1.327 . S
C960 H985 0.950 . S
C961 C960 1.349 . S
C961 C977 1.349 . S
C962 C960 1.327 . S
C962 C981 1.429 . S
C962 H986 0.950 . S
C963 C980 1.574 . S
C963 C982 1.368 . S
C963 H987 0.949 . S
H964 C968 0.949 . S
C965 C966 1.349 . S
C965 C967 1.327 . S
C965 H988 0.950 . S
C966 C965 1.349 . S
C966 C978 1.349 . S
C967 C965 1.327 . S
C967 C983 1.429 . S
C967 H989 0.950 . S
C968 H964 0.949 . S
C968 C976 1.574 . S
C968 C984 1.368 . S
H969 C977 0.950 . S
H970 C975 0.950 . S
H971 C976 0.949 . S
H972 C978 0.950 . S
H973 C979 0.950 . S
H974 C980 0.949 . S
C975 H970 0.950 . S
C975 C977 1.327 . S
C975 C981 1.429 . S
C976 C968 1.574 . S
C976 H971 0.949 . S
C976 C982 1.368 . S
C977 C961 1.349 . S
C977 H969 0.950 . S
C977 C975 1.327 . S
C978 C966 1.349 . S
C978 H972 0.950 . S
C978 C979 1.327 . S
C979 H973 0.950 . S
C979 C978 1.327 . S
C979 C983 1.429 . S
C980 C963 1.574 . S
C980 H974 0.949 . S
C980 C984 1.368 . S
C981 C962 1.429 . S
C981 C975 1.429 . S
C981 C982 1.523 . S
C982 C963 1.368 . S
C982 C976 1.368 . S
C982 C981 1.523 . S
C983 C967 1.429 . S
C983 C979 1.429 . S
C983 C984 1.523 . S
C984 C968 1.368 . S
C984 C980 1.368 . S
C984 C983 1.523 . S
H985 C960 0.950 . S
H986 C962 0.950 . S
H987 C963 0.949 . S
H988 C965 0.950 . S
H989 C967 0.950 . S
C990 C991 1.349 . S
C990 C992 1.327 . S
C990 H1015 0.950 . S
C991 C990 1.349 . S
C991 C1007 1.349 . S
C992 C990 1.327 . S
C992 C1011 1.429 . S
C992 H1016 0.950 . S
C993 C1010 1.574 . S
C993 C1012 1.368 . S
C993 H1017 0.949 . S
H994 C998 0.949 . S
C995 C996 1.349 . S
C995 C997 1.327 . S
C995 H1018 0.950 . S
C996 C995 1.349 . S
C996 C1008 1.349 . S
C997 C995 1.327 . S
C997 C1013 1.429 . S
C997 H1019 0.950 . S
C998 H994 0.949 . S
C998 C1006 1.574 . S
C998 C1014 1.368 . S
H999 C1007 0.950 . S
H1000 C1005 0.950 . S
H1001 C1006 0.949 . S
H1002 C1008 0.950 . S
H1003 C1009 0.950 . S
H1004 C1010 0.949 . S
C1005 H1000 0.950 . S
C1005 C1007 1.327 . S
C1005 C1011 1.429 . S
C1006 C998 1.574 . S
C1006 H1001 0.949 . S
C1006 C1012 1.368 . S
C1007 C991 1.349 . S
C1007 H999 0.950 . S
C1007 C1005 1.327 . S
C1008 C996 1.349 . S
C1008 H1002 0.950 . S
C1008 C1009 1.327 . S
C1009 H1003 0.950 . S
C1009 C1008 1.327 . S
C1009 C1013 1.429 . S
C1010 C993 1.574 . S
C1010 H1004 0.949 . S
C1010 C1014 1.368 . S
C1011 C992 1.429 . S
C1011 C1005 1.429 . S
C1011 C1012 1.523 . S
C1012 C993 1.368 . S
C1012 C1006 1.368 . S
C1012 C1011 1.523 . S
C1013 C997 1.429 . S
C1013 C1009 1.429 . S
C1013 C1014 1.523 . S
C1014 C998 1.368 . S
C1014 C1010 1.368 . S
C1014 C1013 1.523 . S
H1015 C990 0.950 . S
H1016 C992 0.950 . S
H1017 C993 0.949 . S
H1018 C995 0.950 . S
H1019 C997 0.950 . S
C1020 C1021 1.349 . S
C1020 C1022 1.327 . S
C1020 H1045 0.950 . S
C1021 C1020 1.349 . S
C1021 C1037 1.349 . S
C1022 C1020 1.327 . S
C1022 C1041 1.429 . S
C1022 H1046 0.950 . S
C1023 C1040 1.574 . S
C1023 C1042 1.368 1_545 S
C1023 H1047 0.949 . S
H1024 C1028 0.949 . S
C1025 C1026 1.349 . S
C1025 C1027 1.327 . S
C1025 H1048 0.950 . S
C1026 C1025 1.349 . S
C1026 C1038 1.349 . S
C1027 C1025 1.327 . S
C1027 C1043 1.429 . S
C1027 H1049 0.950 . S
C1028 H1024 0.949 . S
C1028 C1036 1.574 . S
C1028 C1044 1.368 1_565 S
H1029 C1037 0.950 . S
H1030 C1035 0.950 . S
H1031 C1036 0.949 . S
H1032 C1038 0.950 . S
H1033 C1039 0.950 . S
H1034 C1040 0.949 . S
C1035 H1030 0.950 . S
C1035 C1037 1.327 . S
C1035 C1041 1.429 . S
C1036 C1028 1.574 . S
C1036 H1031 0.949 . S
C1036 C1042 1.368 1_554 S
C1037 C1021 1.349 . S
C1037 H1029 0.950 . S
C1037 C1035 1.327 . S
C1038 C1026 1.349 . S
C1038 H1032 0.950 . S
C1038 C1039 1.327 . S
C1039 H1033 0.950 . S
C1039 C1038 1.327 . S
C1039 C1043 1.429 . S
C1040 C1023 1.574 . S
C1040 H1034 0.949 . S
C1040 C1044 1.368 1_556 S
C1041 C1022 1.429 . S
C1041 C1035 1.429 . S
C1041 C1042 1.523 . S
C1042 C1023 1.368 1_565 S
C1042 C1036 1.368 1_556 S
C1042 C1041 1.523 . S
C1043 C1027 1.429 . S
C1043 C1039 1.429 . S
C1043 C1044 1.523 . S
C1044 C1028 1.368 1_545 S
C1044 C1040 1.368 1_554 S
C1044 C1043 1.523 . S
H1045 C1020 0.950 . S
H1046 C1022 0.950 . S
H1047 C1023 0.949 . S
H1048 C1025 0.950 . S
H1049 C1027 0.950 . S
C1050 C1051 1.349 . S
C1050 C1052 1.327 . S
C1050 H1075 0.950 . S
C1051 C1050 1.349 . S
C1051 C1067 1.349 . S
C1052 C1050 1.327 . S
C1052 C1071 1.429 . S
C1052 H1076 0.950 . S
C1053 C1070 1.574 . S
C1053 C1072 1.368 . S
C1053 H1077 0.949 . S
H1054 C1058 0.949 . S
C1055 C1056 1.349 . S
C1055 C1057 1.327 . S
C1055 H1078 0.950 . S
C1056 C1055 1.349 . S
C1056 C1068 1.349 . S
C1057 C1055 1.327 . S
C1057 C1073 1.429 . S
C1057 H1079 0.950 . S
C1058 H1054 0.949 . S
C1058 C1066 1.574 . S
C1058 C1074 1.368 . S
H1059 C1067 0.950 . S
H1060 C1065 0.950 . S
H1061 C1066 0.949 . S
H1062 C1068 0.950 . S
H1063 C1069 0.950 . S
H1064 C1070 0.949 . S
C1065 H1060 0.950 . S
C1065 C1067 1.327 . S
C1065 C1071 1.429 . S
C1066 C1058 1.574 . S
C1066 H1061 0.949 . S
C1066 C1072 1.368 . S
C1067 C1051 1.349 . S
C1067 H1059 0.950 . S
C1067 C1065 1.327 . S
C1068 C1056 1.349 . S
C1068 H1062 0.950 . S
C1068 C1069 1.327 . S
C1069 H1063 0.950 . S
C1069 C1068 1.327 . S
C1069 C1073 1.429 . S
C1070 C1053 1.574 . S
C1070 H1064 0.949 . S
C1070 C1074 1.368 . S
C1071 C1052 1.429 . S
C1071 C1065 1.429 . S
C1071 C1072 1.523 . S
C1072 C1053 1.368 . S
C1072 C1066 1.368 . S
C1072 C1071 1.523 . S
C1073 C1057 1.429 . S
C1073 C1069 1.429 . S
C1073 C1074 1.523 . S
C1074 C1058 1.368 . S
C1074 C1070 1.368 . S
C1074 C1073 1.523 . S
H1075 C1050 0.950 . S
H1076 C1052 0.950 . S
H1077 C1053 0.949 . S
H1078 C1055 0.950 . S
H1079 C1057 0.950 . S
C1080 C1081 1.349 . S
C1080 C1082 1.327 . S
C1080 H1105 0.950 . S
C1081 C1080 1.349 . S
C1081 C1097 1.349 . S
C1082 C1080 1.327 . S
C1082 C1101 1.429 . S
C1082 H1106 0.950 . S
C1083 C1100 1.574 1_456 S
C1083 C1102 1.368 . S
C1083 H1107 0.949 . S
H1084 C1088 0.949 . S
C1085 C1086 1.349 . S
C1085 C1087 1.327 . S
C1085 H1108 0.950 . S
C1086 C1085 1.349 . S
C1086 C1098 1.349 . S
C1087 C1085 1.327 . S
C1087 C1103 1.429 . S
C1087 H1109 0.950 . S
C1088 H1084 0.949 . S
C1088 C1096 1.574 1_654 S
C1088 C1104 1.368 . S
H1089 C1097 0.950 . S
H1090 C1095 0.950 . S
H1091 C1096 0.949 . S
H1092 C1098 0.950 . S
H1093 C1099 0.950 . S
H1094 C1100 0.949 . S
C1095 H1090 0.950 . S
C1095 C1097 1.327 . S
C1095 C1101 1.429 . S
C1096 C1088 1.574 1_456 S
C1096 H1091 0.949 . S
C1096 C1102 1.368 . S
C1097 C1081 1.349 . S
C1097 H1089 0.950 . S
C1097 C1095 1.327 . S
C1098 C1086 1.349 . S
C1098 H1092 0.950 . S
C1098 C1099 1.327 . S
C1099 H1093 0.950 . S
C1099 C1098 1.327 . S
C1099 C1103 1.429 . S
C1100 C1083 1.574 1_654 S
C1100 H1094 0.949 . S
C1100 C1104 1.368 . S
C1101 C1082 1.429 . S
C1101 C1095 1.429 . S
C1101 C1102 1.523 . S
C1102 C1083 1.368 . S
C1102 C1096 1.368 . S
C1102 C1101 1.523 . S
C1103 C1087 1.429 . S
C1103 C1099 1.429 . S
C1103 C1104 1.523 . S
C1104 C1088 1.368 . S
C1104 C1100 1.368 . S
C1104 C1103 1.523 . S
H1105 C1080 0.950 . S
H1106 C1082 0.950 . S
H1107 C1083 0.949 . S
H1108 C1085 0.950 . S
H1109 C1087 0.950 . S
C1110 C1111 1.349 . S
C1110 C1112 1.327 . S
C1110 H1135 0.950 . S
C1111 C1110 1.349 . S
C1111 C1127 1.349 . S
C1112 C1110 1.327 . S
C1112 C1131 1.429 . S
C1112 H1136 0.950 . S
C1113 C1130 1.574 . S
C1113 C1132 1.368 1_565 S
C1113 H1137 0.949 . S
H1114 C1118 0.949 . S
C1115 C1116 1.349 . S
C1115 C1117 1.327 . S
C1115 H1138 0.950 . S
C1116 C1115 1.349 . S
C1116 C1128 1.349 . S
C1117 C1115 1.327 . S
C1117 C1133 1.429 . S
C1117 H1139 0.950 . S
C1118 H1114 0.949 . S
C1118 C1126 1.574 . S
C1118 C1134 1.368 1_545 S
H1119 C1127 0.950 . S
H1120 C1125 0.950 . S
H1121 C1126 0.949 . S
H1122 C1128 0.950 . S
H1123 C1129 0.950 . S
H1124 C1130 0.949 . S
C1125 H1120 0.950 . S
C1125 C1127 1.327 . S
C1125 C1131 1.429 . S
C1126 C1118 1.574 . S
C1126 H1121 0.949 . S
C1126 C1132 1.368 . S
C1127 C1111 1.349 . S
C1127 H1119 0.950 . S
C1127 C1125 1.327 . S
C1128 C1116 1.349 . S
C1128 H1122 0.950 . S
C1128 C1129 1.327 . S
C1129 H1123 0.950 . S
C1129 C1128 1.327 . S
C1129 C1133 1.429 . S
C1130 C1113 1.574 . S
C1130 H1124 0.949 . S
C1130 C1134 1.368 . S
C1131 C1112 1.429 . S
C1131 C1125 1.429 . S
C1131 C1132 1.523 . S
C1132 C1113 1.368 1_545 S
C1132 C1126 1.368 . S
C1132 C1131 1.523 . S
C1133 C1117 1.429 . S
C1133 C1129 1.429 . S
C1133 C1134 1.523 . S
C1134 C1118 1.368 1_565 S
C1134 C1130 1.368 . S
C1134 C1133 1.523 . S
H1135 C1110 0.950 . S
H1136 C1112 0.950 . S
H1137 C1113 0.949 . S
H1138 C1115 0.950 . S
H1139 C1117 0.950 . S
C1140 C1141 1.349 . S
C1140 C1142 1.327 . S
C1140 H1165 0.950 . S
C1141 C1140 1.349 . S
C1141 C1157 1.349 . S
C1142 C1140 1.327 . S
C1142 C1161 1.429 . S
C1142 H1166 0.950 . S
C1143 C1160 1.574 1_554 S
C1143 C1162 1.368 . S
C1143 H1167 0.949 . S
H1144 C1148 0.949 . S
C1145 C1146 1.349 . S
C1145 C1147 1.327 . S
C1145 H1168 0.950 . S
C1146 C1145 1.349 . S
C1146 C1158 1.349 . S
C1147 C1145 1.327 . S
C1147 C1163 1.429 . S
C1147 H1169 0.950 . S
C1148 H1144 0.949 . S
C1148 C1156 1.574 1_556 S
C1148 C1164 1.368 . S
H1149 C1157 0.950 . S
H1150 C1155 0.950 . S
H1151 C1156 0.949 . S
H1152 C1158 0.950 . S
H1153 C1159 0.950 . S
H1154 C1160 0.949 . S
C1155 H1150 0.950 . S
C1155 C1157 1.327 . S
C1155 C1161 1.429 . S
C1156 C1148 1.574 1_554 S
C1156 H1151 0.949 . S
C1156 C1162 1.368 . S
C1157 C1141 1.349 . S
C1157 H1149 0.950 . S
C1157 C1155 1.327 . S
C1158 C1146 1.349 . S
C1158 H1152 0.950 . S
C1158 C1159 1.327 . S
C1159 H1153 0.950 . S
C1159 C1158 1.327 . S
C1159 C1163 1.429 . S
C1160 C1143 1.574 1_556 S
C1160 H1154 0.949 . S
C1160 C1164 1.368 . S
C1161 C1142 1.429 . S
C1161 C1155 1.429 . S
C1161 C1162 1.523 . S
C1162 C1143 1.368 . S
C1162 C1156 1.368 . S
C1162 C1161 1.523 . S
C1163 C1147 1.429 . S
C1163 C1159 1.429 . S
C1163 C1164 1.523 . S
C1164 C1148 1.368 . S
C1164 C1160 1.368 . S
C1164 C1163 1.523 . S
H1165 C1140 0.950 . S
H1166 C1142 0.950 . S
H1167 C1143 0.949 . S
H1168 C1145 0.950 . S
H1169 C1147 0.950 . S
C1170 C1171 1.349 . S
C1170 C1172 1.327 . S
C1170 H1195 0.950 . S
C1171 C1170 1.349 . S
C1171 C1187 1.349 . S
C1172 C1170 1.327 . S
C1172 C1191 1.429 . S
C1172 H1196 0.950 . S
C1173 C1190 1.574 1_455 S
C1173 C1192 1.368 . S
C1173 H1197 0.949 . S
H1174 C1178 0.949 . S
C1175 C1176 1.349 . S
C1175 C1177 1.327 . S
C1175 H1198 0.950 . S
C1176 C1175 1.349 . S
C1176 C1188 1.349 . S
C1177 C1175 1.327 . S
C1177 C1193 1.429 . S
C1177 H1199 0.950 . S
C1178 H1174 0.949 . S
C1178 C1186 1.574 1_655 S
C1178 C1194 1.368 . S
H1179 C1187 0.950 . S
H1180 C1185 0.950 . S
H1181 C1186 0.949 . S
H1182 C1188 0.950 . S
H1183 C1189 0.950 . S
H1184 C1190 0.949 . S
C1185 H1180 0.950 . S
C1185 C1187 1.327 . S
C1185 C1191 1.429 . S
C1186 C1178 1.574 1_455 S
C1186 H1181 0.949 . S
C1186 C1192 1.368 . S
C1187 C1171 1.349 . S
C1187 H1179 0.950 . S
C1187 C1185 1.327 . S
C1188 C1176 1.349 . S
C1188 H1182 0.950 . S
C1188 C1189 1.327 . S
C1189 H1183 0.950 . S
C1189 C1188 1.327 . S
C1189 C1193 1.429 . S
C1190 C1173 1.574 1_655 S
C1190 H1184 0.949 . S
C1190 C1194 1.368 . S
C1191 C1172 1.429 . S
C1191 C1185 1.429 . S
C1191 C1192 1.523 . S
C1192 C1173 1.368 . S
C1192 C1186 1.368 . S
C1192 C1191 1.523 . S
C1193 C1177 1.429 . S
C1193 C1189 1.429 . S
C1193 C1194 1.523 . S
C1194 C1178 1.368 . S
C1194 C1190 1.368 . S
C1194 C1193 1.523 . S
H1195 C1170 0.950 . S
H1196 C1172 0.950 . S
H1197 C1173 0.949 . S
H1198 C1175 0.950 . S
H1199 C1177 0.950 . S
C1200 C1201 1.349 . S
C1200 C1202 1.327 . S
C1200 H1225 0.950 . S
C1201 C1200 1.349 . S
C1201 C1217 1.349 . S
C1202 C1200 1.327 . S
C1202 C1221 1.429 . S
C1202 H1226 0.950 . S
C1203 C1220 1.574 . S
C1203 C1222 1.368 . S
C1203 H1227 0.949 . S
H1204 C1208 0.949 . S
C1205 C1206 1.349 . S
C1205 C1207 1.327 . S
C1205 H1228 0.950 . S
C1206 C1205 1.349 . S
C1206 C1218 1.349 . S
C1207 C1205 1.327 . S
C1207 C1223 1.429 . S
C1207 H1229 0.950 . S
C1208 H1204 0.949 . S
C1208 C1216 1.574 . S
C1208 C1224 1.368 . S
H1209 C1217 0.950 . S
H1210 C1215 0.950 . S
H1211 C1216 0.949 . S
H1212 C1218 0.950 . S
H1213 C1219 0.950 . S
H1214 C1220 0.949 . S
C1215 H1210 0.950 . S
C1215 C1217 1.327 . S
C1215 C1221 1.429 . S
C1216 C1208 1.574 . S
C1216 H1211 0.949 . S
C1216 C1222 1.368 . S
C1217 C1201 1.349 . S
C1217 H1209 0.950 . S
C1217 C1215 1.327 . S
C1218 C1206 1.349 . S
C1218 H1212 0.950 . S
C1218 C1219 1.327 . S
C1219 H1213 0.950 . S
C1219 C1218 1.327 . S
C1219 C1223 1.429 . S
C1220 C1203 1.574 . S
C1220 H1214 0.949 . S
C1220 C1224 1.368 . S
C1221 C1202 1.429 . S
C1221 C1215 1.429 . S
C1221 C1222 1.523 . S
C1222 C1203 1.368 . S
C1222 C1216 1.368 . S
C1222 C1221 1.523 . S
C1223 C1207 1.429 . S
C1223 C1219 1.429 . S
C1223 C1224 1.523 . S
C1224 C1208 1.368 . S
C1224 C1220 1.368 . S
C1224 C1223 1.523 . S
H1225 C1200 0.950 . S
H1226 C1202 0.950 . S
H1227 C1203 0.949 . S
H1228 C1205 0.950 . S
H1229 C1207 0.950 . S
C1230 C1231 1.349 . S
C1230 C1232 1.327 . S
C1230 H1255 0.950 . S
C1231 C1230 1.349 . S
C1231 C1247 1.349 . S
C1232 C1230 1.327 . S
C1232 C1251 1.429 . S
C1232 H1256 0.950 . S
C1233 C1250 1.574 . S
C1233 C1252 1.368 . S
C1233 H1257 0.949 . S
H1234 C1238 0.949 . S
C1235 C1236 1.349 . S
C1235 C1237 1.327 . S
C1235 H1258 0.950 . S
C1236 C1235 1.349 . S
C1236 C1248 1.349 . S
C1237 C1235 1.327 . S
C1237 C1253 1.429 . S
C1237 H1259 0.950 . S
C1238 H1234 0.949 . S
C1238 C1246 1.574 . S
C1238 C1254 1.368 . S
H1239 C1247 0.950 . S
H1240 C1245 0.950 . S
H1241 C1246 0.949 . S
H1242 C1248 0.950 . S
H1243 C1249 0.950 . S
H1244 C1250 0.949 . S
C1245 H1240 0.950 . S
C1245 C1247 1.327 . S
C1245 C1251 1.429 . S
C1246 C1238 1.574 . S
C1246 H1241 0.949 . S
C1246 C1252 1.368 . S
C1247 C1231 1.349 . S
C1247 H1239 0.950 . S
C1247 C1245 1.327 . S
C1248 C1236 1.349 . S
C1248 H1242 0.950 . S
C1248 C1249 1.327 . S
C1249 H1243 0.950 . S
C1249 C1248 1.327 . S
C1249 C1253 1.429 . S
C1250 C1233 1.574 . S
C1250 H1244 0.949 . S
C1250 C1254 1.368 . S
C1251 C1232 1.429 . S
C1251 C1245 1.429 . S
C1251 C1252 1.523 . S
C1252 C1233 1.368 . S
C1252 C1246 1.368 . S
C1252 C1251 1.523 . S
C1253 C1237 1.429 . S
C1253 C1249 1.429 . S
C1253 C1254 1.523 . S
C1254 C1238 1.368 . S
C1254 C1250 1.368 . S
C1254 C1253 1.523 . S
H1255 C1230 0.950 . S
H1256 C1232 0.950 . S
H1257 C1233 0.949 . S
H1258 C1235 0.950 . S
H1259 C1237 0.950 . S
C1260 C1261 1.349 . S
C1260 C1262 1.327 . S
C1260 H1285 0.950 . S
C1261 C1260 1.349 . S
C1261 C1277 1.349 . S
C1262 C1260 1.327 . S
C1262 C1281 1.429 . S
C1262 H1286 0.950 . S
C1263 C1280 1.574 . S
C1263 C1282 1.368 . S
C1263 H1287 0.949 . S
H1264 C1268 0.949 . S
C1265 C1266 1.349 . S
C1265 C1267 1.327 . S
C1265 H1288 0.950 . S
C1266 C1265 1.349 . S
C1266 C1278 1.349 . S
C1267 C1265 1.327 . S
C1267 C1283 1.429 . S
C1267 H1289 0.950 . S
C1268 H1264 0.949 . S
C1268 C1276 1.574 . S
C1268 C1284 1.368 . S
H1269 C1277 0.950 . S
H1270 C1275 0.950 . S
H1271 C1276 0.949 . S
H1272 C1278 0.950 . S
H1273 C1279 0.950 . S
H1274 C1280 0.949 . S
C1275 H1270 0.950 . S
C1275 C1277 1.327 . S
C1275 C1281 1.429 . S
C1276 C1268 1.574 . S
C1276 H1271 0.949 . S
C1276 C1282 1.368 . S
C1277 C1261 1.349 . S
C1277 H1269 0.950 . S
C1277 C1275 1.327 . S
C1278 C1266 1.349 . S
C1278 H1272 0.950 . S
C1278 C1279 1.327 . S
C1279 H1273 0.950 . S
C1279 C1278 1.327 . S
C1279 C1283 1.429 . S
C1280 C1263 1.574 . S
C1280 H1274 0.949 . S
C1280 C1284 1.368 . S
C1281 C1262 1.429 . S
C1281 C1275 1.429 . S
C1281 C1282 1.523 . S
C1282 C1263 1.368 . S
C1282 C1276 1.368 . S
C1282 C1281 1.523 . S
C1283 C1267 1.429 . S
C1283 C1279 1.429 . S
C1283 C1284 1.523 . S
C1284 C1268 1.368 . S
C1284 C1280 1.368 . S
C1284 C1283 1.523 . S
H1285 C1260 0.950 . S
H1286 C1262 0.950 . S
H1287 C1263 0.949 . S
H1288 C1265 0.950 . S
H1289 C1267 0.950 . S
C1290 C1291 1.349 . S
C1290 C1292 1.327 . S
C1290 H1315 0.950 . S
C1291 C1290 1.349 . S
C1291 C1307 1.349 . S
C1292 C1290 1.327 . S
C1292 C1311 1.429 . S
C1292 H1316 0.950 . S
C1293 C1310 1.574 . S
C1293 C1312 1.368 . S
C1293 H1317 0.949 . S
H1294 C1298 0.949 . S
C1295 C1296 1.349 . S
C1295 C1297 1.327 . S
C1295 H1318 0.950 . S
C1296 C1295 1.349 . S
C1296 C1308 1.349 . S
C1297 C1295 1.327 . S
C1297 C1313 1.429 . S
C1297 H1319 0.950 . S
C1298 H1294 0.949 . S
C1298 C1306 1.574 . S
C1298 C1314 1.368 . S
H1299 C1307 0.950 . S
H1300 C1305 0.950 . S
H1301 C1306 0.949 . S
H1302 C1308 0.950 . S
H1303 C1309 0.950 . S
H1304 C1310 0.949 . S
C1305 H1300 0.950 . S
C1305 C1307 1.327 . S
C1305 C1311 1.429 . S
C1306 C1298 1.574 . S
C1306 H1301 0.949 . S
C1306 C1312 1.368 . S
C1307 C1291 1.349 . S
C1307 H1299 0.950 . S
C1307 C1305 1.327 . S
C1308 C1296 1.349 . S
C1308 H1302 0.950 . S
C1308 C1309 1.327 . S
C1309 H1303 0.950 . S
C1309 C1308 1.327 . S
C1309 C1313 1.429 . S
C1310 C1293 1.574 . S
C1310 H1304 0.949 . S
C1310 C1314 1.368 . S
C1311 C1292 1.429 . S
C1311 C1305 1.429 . S
C1311 C1312 1.523 . S
C1312 C1293 1.368 . S
C1312 C1306 1.368 . S
C1312 C1311 1.523 . S
C1313 C1297 1.429 . S
C1313 C1309 1.429 . S
C1313 C1314 1.523 . S
C1314 C1298 1.368 . S
C1314 C1310 1.368 . S
C1314 C1313 1.523 . S
H1315 C1290 0.950 . S
H1316 C1292 0.950 . S
H1317 C1293 0.949 . S
H1318 C1295 0.950 . S
H1319 C1297 0.950 . S
C1320 C1321 1.349 . S
C1320 C1322 1.327 . S
C1320 H1345 0.950 . S
C1321 C1320 1.349 . S
C1321 C1337 1.349 . S
C1322 C1320 1.327 . S
C1322 C1341 1.429 . S
C1322 H1346 0.950 . S
C1323 C1340 1.574 . S
C1323 C1342 1.368 . S
C1323 H1347 0.949 . S
H1324 C1328 0.949 . S
C1325 C1326 1.349 . S
C1325 C1327 1.327 . S
C1325 H1348 0.950 . S
C1326 C1325 1.349 . S
C1326 C1338 1.349 . S
C1327 C1325 1.327 . S
C1327 C1343 1.429 . S
C1327 H1349 0.950 . S
C1328 H1324 0.949 . S
C1328 C1336 1.574 . S
C1328 C1344 1.368 . S
H1329 C1337 0.950 . S
H1330 C1335 0.950 . S
H1331 C1336 0.949 . S
H1332 C1338 0.950 . S
H1333 C1339 0.950 . S
H1334 C1340 0.949 . S
C1335 H1330 0.950 . S
C1335 C1337 1.327 . S
C1335 C1341 1.429 . S
C1336 C1328 1.574 . S
C1336 H1331 0.949 . S
C1336 C1342 1.368 . S
C1337 C1321 1.349 . S
C1337 H1329 0.950 . S
C1337 C1335 1.327 . S
C1338 C1326 1.349 . S
C1338 H1332 0.950 . S
C1338 C1339 1.327 . S
C1339 H1333 0.950 . S
C1339 C1338 1.327 . S
C1339 C1343 1.429 . S
C1340 C1323 1.574 . S
C1340 H1334 0.949 . S
C1340 C1344 1.368 . S
C1341 C1322 1.429 . S
C1341 C1335 1.429 . S
C1341 C1342 1.523 . S
C1342 C1323 1.368 . S
C1342 C1336 1.368 . S
C1342 C1341 1.523 . S
C1343 C1327 1.429 . S
C1343 C1339 1.429 . S
C1343 C1344 1.523 . S
C1344 C1328 1.368 . S
C1344 C1340 1.368 . S
C1344 C1343 1.523 . S
H1345 C1320 0.950 . S
H1346 C1322 0.950 . S
H1347 C1323 0.949 . S
H1348 C1325 0.950 . S
H1349 C1327 0.950 . S
C1350 C1351 1.349 . S
C1350 C1352 1.327 . S
C1350 H1375 0.950 . S
C1351 C1350 1.349 . S
C1351 C1367 1.349 . S
C1352 C1350 1.327 . S
C1352 C1371 1.429 . S
C1352 H1376 0.950 . S
C1353 C1370 1.574 . S
C1353 C1372 1.368 . S
C1353 H1377 0.949 . S
H1354 C1358 0.949 . S
C1355 C1356 1.349 . S
C1355 C1357 1.327 . S
C1355 H1378 0.950 . S
C1356 C1355 1.349 . S
C1356 C1368 1.349 . S
C1357 C1355 1.327 . S
C1357 C1373 1.429 . S
C1357 H1379 0.950 . S
C1358 H1354 0.949 . S
C1358 C1366 1.574 . S
C1358 C1374 1.368 . S
H1359 C1367 0.950 . S
H1360 C1365 0.950 . S
H1361 C1366 0.949 . S
H1362 C1368 0.950 . S
H1363 C1369 0.950 . S
H1364 C1370 0.949 . S
C1365 H1360 0.950 . S
C1365 C1367 1.327 . S
C1365 C1371 1.429 . S
C1366 C1358 1.574 . S
C1366 H1361 0.949 . S
C1366 C1372 1.368 . S
C1367 C1351 1.349 . S
C1367 H1359 0.950 . S
C1367 C1365 1.327 . S
C1368 C1356 1.349 . S
C1368 H1362 0.950 . S
C1368 C1369 1.327 . S
C1369 H1363 0.950 . S
C1369 C1368 1.327 . S
C1369 C1373 1.429 . S
C1370 C1353 1.574 . S
C1370 H1364 0.949 . S
C1370 C1374 1.368 . S
C1371 C1352 1.429 . S
C1371 C1365 1.429 . S
C1371 C1372 1.523 . S
C1372 C1353 1.368 . S
C1372 C1366 1.368 . S
C1372 C1371 1.523 . S
C1373 C1357 1.429 . S
C1373 C1369 1.429 . S
C1373 C1374 1.523 . S
C1374 C1358 1.368 . S
C1374 C1370 1.368 . S
C1374 C1373 1.523 . S
H1375 C1350 0.950 . S
H1376 C1352 0.950 . S
H1377 C1353 0.949 . S
H1378 C1355 0.950 . S
H1379 C1357 0.950 . S
C1380 C1381 1.349 . S
C1380 C1382 1.327 . S
C1380 H1405 0.950 . S
C1381 C1380 1.349 . S
C1381 C1397 1.349 . S
C1382 C1380 1.327 . S
C1382 C1401 1.429 . S
C1382 H1406 0.950 . S
C1383 C1400 1.574 . S
C1383 C1402 1.368 . S
C1383 H1407 0.949 . S
H1384 C1388 0.949 . S
C1385 C1386 1.349 . S
C1385 C1387 1.327 . S
C1385 H1408 0.950 . S
C1386 C1385 1.349 . S
C1386 C1398 1.349 . S
C1387 C1385 1.327 . S
C1387 C1403 1.429 . S
C1387 H1409 0.950 . S
C1388 H1384 0.949 . S
C1388 C1396 1.574 . S
C1388 C1404 1.368 . S
H1389 C1397 0.950 . S
H1390 C1395 0.950 . S
H1391 C1396 0.949 . S
H1392 C1398 0.950 . S
H1393 C1399 0.950 . S
H1394 C1400 0.949 . S
C1395 H1390 0.950 . S
C1395 C1397 1.327 . S
C1395 C1401 1.429 . S
C1396 C1388 1.574 . S
C1396 H1391 0.949 . S
C1396 C1402 1.368 . S
C1397 C1381 1.349 . S
C1397 H1389 0.950 . S
C1397 C1395 1.327 . S
C1398 C1386 1.349 . S
C1398 H1392 0.950 . S
C1398 C1399 1.327 . S
C1399 H1393 0.950 . S
C1399 C1398 1.327 . S
C1399 C1403 1.429 . S
C1400 C1383 1.574 . S
C1400 H1394 0.949 . S
C1400 C1404 1.368 . S
C1401 C1382 1.429 . S
C1401 C1395 1.429 . S
C1401 C1402 1.523 . S
C1402 C1383 1.368 . S
C1402 C1396 1.368 . S
C1402 C1401 1.523 . S
C1403 C1387 1.429 . S
C1403 C1399 1.429 . S
C1403 C1404 1.523 . S
C1404 C1388 1.368 . S
C1404 C1400 1.368 . S
C1404 C1403 1.523 . S
H1405 C1380 0.950 . S
H1406 C1382 0.950 . S
H1407 C1383 0.949 . S
H1408 C1385 0.950 . S
H1409 C1387 0.950 . S
C1410 C1411 1.349 . S
C1410 C1412 1.327 . S
C1410 H1435 0.950 . S
C1411 C1410 1.349 . S
C1411 C1427 1.349 . S
C1412 C1410 1.327 . S
C1412 C1431 1.429 . S
C1412 H1436 0.950 . S
C1413 C1430 1.574 . S
C1413 C1432 1.368 . S
C1413 H1437 0.949 . S
H1414 C1418 0.949 . S
C1415 C1416 1.349 . S
C1415 C1417 1.327 . S
C1415 H1438 0.950 . S
C1416 C1415 1.349 . S
C1416 C1428 1.349 . S
C1417 C1415 1.327 . S
C1417 C1433 1.429 . S
C1417 H1439 0.950 . S
C1418 H1414 0.949 . S
C1418 C1426 1.574 . S
C1418 C1434 1.368 . S
H1419 C1427 0.950 . S
H1420 C1425 0.950 . S
H1421 C1426 0.949 . S
H1422 C1428 0.950 . S
H1423 C1429 0.950 . S
H1424 C1430 0.949 . S
C1425 H1420 0.950 . S
C1425 C1427 1.327 . S
C1425 C1431 1.429 . S
C1426 C1418 1.574 . S
C1426 H1421 0.949 . S
C1426 C1432 1.368 . S
C1427 C1411 1.349 . S
C1427 H1419 0.950 . S
C1427 C1425 1.327 . S
C1428 C1416 1.349 . S
C1428 H1422 0.950 . S
C1428 C1429 1.327 . S
C1429 H1423 0.950 . S
C1429 C1428 1.327 . S
C1429 C1433 1.429 . S
C1430 C1413 1.574 . S
C1430 H1424 0.949 . S
C1430 C1434 1.368 . S
C1431 C1412 1.429 . S
C1431 C1425 1.429 . S
C1431 C1432 1.523 . S
C1432 C1413 1.368 . S
C1432 C1426 1.368 . S
C1432 C1431 1.523 . S
C1433 C1417 1.429 . S
C1433 C1429 1.429 . S
C1433 C1434 1.523 . S
C1434 C1418 1.368 . S
C1434 C1430 1.368 . S
C1434 C1433 1.523 . S
H1435 C1410 0.950 . S
H1436 C1412 0.950 . S
H1437 C1413 0.949 . S
H1438 C1415 0.950 . S
H1439 C1417 0.950 . S
C1440 C1441 1.349 . S
C1440 C1442 1.327 . S
C1440 H1465 0.950 . S
C1441 C1440 1.349 . S
C1441 C1457 1.349 . S
C1442 C1440 1.327 . S
C1442 C1461 1.429 . S
C1442 H1466 0.950 . S
C1443 C1460 1.574 . S
C1443 C1462 1.368 . S
C1443 H1467 0.949 . S
H1444 C1448 0.949 . S
C1445 C1446 1.349 . S
C1445 C1447 1.327 . S
C1445 H1468 0.950 . S
C1446 C1445 1.349 . S
C1446 C1458 1.349 . S
C1447 C1445 1.327 . S
C1447 C1463 1.429 . S
C1447 H1469 0.950 . S
C1448 H1444 0.949 . S
C1448 C1456 1.574 . S
C1448 C1464 1.368 . S
H1449 C1457 0.950 . S
H1450 C1455 0.950 . S
H1451 C1456 0.949 . S
H1452 C1458 0.950 . S
H1453 C1459 0.950 . S
H1454 C1460 0.949 . S
C1455 H1450 0.950 . S
C1455 C1457 1.327 . S
C1455 C1461 1.429 . S
C1456 C1448 1.574 . S
C1456 H1451 0.949 . S
C1456 C1462 1.368 . S
C1457 C1441 1.349 . S
C1457 H1449 0.950 . S
C1457 C1455 1.327 . S
C1458 C1446 1.349 . S
C1458 H1452 0.950 . S
C1458 C1459 1.327 . S
C1459 H1453 0.950 . S
C1459 C1458 1.327 . S
C1459 C1463 1.429 . S
C1460 C1443 1.574 . S
C1460 H1454 0.949 . S
C1460 C1464 1.368 . S
C1461 C1442 1.429 . S
C1461 C1455 1.429 . S
C1461 C1462 1.523 . S
C1462 C1443 1.368 . S
C1462 C1456 1.368 . S
C1462 C1461 1.523 . S
C1463 C1447 1.429 . S
C1463 C1459 1.429 . S
C1463 C1464 1.523 . S
C1464 C1448 1.368 . S
C1464 C1460 1.368 . S
C1464 C1463 1.523 . S
H1465 C1440 0.950 . S
H1466 C1442 0.950 . S
H1467 C1443 0.949 . S
H1468 C1445 0.950 . S
H1469 C1447 0.950 . S
C1470 C1471 1.349 . S
C1470 C1472 1.327 . S
C1470 H1495 0.950 . S
C1471 C1470 1.349 . S
C1471 C1487 1.349 . S
C1472 C1470 1.327 . S
C1472 C1491 1.429 . S
C1472 H1496 0.950 . S
C1473 C1490 1.574 . S
C1473 C1492 1.368 . S
C1473 H1497 0.949 . S
H1474 C1478 0.949 . S
C1475 C1476 1.349 . S
C1475 C1477 1.327 . S
C1475 H1498 0.950 . S
C1476 C1475 1.349 . S
C1476 C1488 1.349 . S
C1477 C1475 1.327 . S
C1477 C1493 1.429 . S
C1477 H1499 0.950 . S
C1478 H1474 0.949 . S
C1478 C1486 1.574 . S
C1478 C1494 1.368 . S
H1479 C1487 0.950 . S
H1480 C1485 0.950 . S
H1481 C1486 0.949 . S
H1482 C1488 0.950 . S
H1483 C1489 0.950 . S
H1484 C1490 0.949 . S
C1485 H1480 0.950 . S
C1485 C1487 1.327 . S
C1485 C1491 1.429 . S
C1486 C1478 1.574 . S
C1486 H1481 0.949 . S
C1486 C1492 1.368 . S
C1487 C1471 1.349 . S
C1487 H1479 0.950 . S
C1487 C1485 1.327 . S
C1488 C1476 1.349 . S
C1488 H1482 0.950 . S
C1488 C1489 1.327 . S
C1489 H1483 0.950 . S
C1489 C1488 1.327 . S
C1489 C1493 1.429 . S
C1490 C1473 1.574 . S
C1490 H1484 0.949 . S
C1490 C1494 1.368 . S
C1491 C1472 1.429 . S
C1491 C1485 1.429 . S
C1491 C1492 1.523 . S
C1492 C1473 1.368 . S
C1492 C1486 1.368 . S
C1492 C1491 1.523 . S
C1493 C1477 1.429 . S
C1493 C1489 1.429 . S
C1493 C1494 1.523 . S
C1494 C1478 1.368 . S
C1494 C1490 1.368 . S
C1494 C1493 1.523 . S
H1495 C1470 0.950 . S
H1496 C1472 0.950 . S
H1497 C1473 0.949 . S
H1498 C1475 0.950 . S
H1499 C1477 0.950 . S
C1500 C1501 1.349 . S
C1500 C1502 1.327 . S
C1500 H1525 0.950 . S
C1501 C1500 1.349 . S
C1501 C1517 1.349 . S
C1502 C1500 1.327 . S
C1502 C1521 1.429 . S
C1502 H1526 0.950 . S
C1503 C1520 1.574 . S
C1503 C1522 1.368 . S
C1503 H1527 0.949 . S
H1504 C1508 0.949 . S
C1505 C1506 1.349 . S
C1505 C1507 1.327 . S
C1505 H1528 0.950 . S
C1506 C1505 1.349 . S
C1506 C1518 1.349 . S
C1507 C1505 1.327 . S
C1507 C1523 1.429 . S
C1507 H1529 0.950 . S
C1508 H1504 0.949 . S
C1508 C1516 1.574 . S
C1508 C1524 1.368 . S
H1509 C1517 0.950 . S
H1510 C1515 0.950 . S
H1511 C1516 0.949 . S
H1512 C1518 0.950 . S
H1513 C1519 0.950 . S
H1514 C1520 0.949 . S
C1515 H1510 0.950 . S
C1515 C1517 1.327 . S
C1515 C1521 1.429 . S
C1516 C1508 1.574 . S
C1516 H1511 0.949 . S
C1516 C1522 1.368 . S
C1517 C1501 1.349 . S
C1517 H1509 0.950 . S
C1517 C1515 1.327 . S
C1518 C1506 1.349 . S
C1518 H1512 0.950 . S
C1518 C1519 1.327 . S
C1519 H1513 0.950 . S
C1519 C1518 1.327 . S
C1519 C1523 1.429 . S
C1520 C1503 1.574 . S
C1520 H1514 0.949 . S
C1520 C1524 1.368 . S
C1521 C1502 1.429 . S
C1521 C1515 1.429 . S
C1521 C1522 1.523 . S
C1522 C1503 1.368 . S
C1522 C1516 1.368 . S
C1522 C1521 1.523 . S
C1523 C1507 1.429 . S
C1523 C1519 1.429 . S
C1523 C1524 1.523 . S
C1524 C1508 1.368 . S
C1524 C1520 1.368 . S
C1524 C1523 1.523 . S
H1525 C1500 0.950 . S
H1526 C1502 0.950 . S
H1527 C1503 0.949 . S
H1528 C1505 0.950 . S
H1529 C1507 0.950 . S
C1530 C1531 1.349 . S
C1530 C1532 1.327 . S
C1530 H1555 0.950 . S
C1531 C1530 1.349 . S
C1531 C1547 1.349 . S
C1532 C1530 1.327 . S
C1532 C1551 1.429 . S
C1532 H1556 0.950 . S
C1533 C1550 1.574 . S
C1533 C1552 1.368 . S
C1533 H1557 0.949 . S
H1534 C1538 0.949 . S
C1535 C1536 1.349 . S
C1535 C1537 1.327 . S
C1535 H1558 0.950 . S
C1536 C1535 1.349 . S
C1536 C1548 1.349 . S
C1537 C1535 1.327 . S
C1537 C1553 1.429 . S
C1537 H1559 0.950 . S
C1538 H1534 0.949 . S
C1538 C1546 1.574 . S
C1538 C1554 1.368 . S
H1539 C1547 0.950 . S
H1540 C1545 0.950 . S
H1541 C1546 0.949 . S
H1542 C1548 0.950 . S
H1543 C1549 0.950 . S
H1544 C1550 0.949 . S
C1545 H1540 0.950 . S
C1545 C1547 1.327 . S
C1545 C1551 1.429 . S
C1546 C1538 1.574 . S
C1546 H1541 0.949 . S
C1546 C1552 1.368 . S
C1547 C1531 1.349 . S
C1547 H1539 0.950 . S
C1547 C1545 1.327 . S
C1548 C1536 1.349 . S
C1548 H1542 0.950 . S
C1548 C1549 1.327 . S
C1549 H1543 0.950 . S
C1549 C1548 1.327 . S
C1549 C1553 1.429 . S
C1550 C1533 1.574 . S
C1550 H1544 0.949 . S
C1550 C1554 1.368 . S
C1551 C1532 1.429 . S
C1551 C1545 1.429 . S
C1551 C1552 1.523 . S
C1552 C1533 1.368 . S
C1552 C1546 1.368 . S
C1552 C1551 1.523 . S
C1553 C1537 1.429 . S
C1553 C1549 1.429 . S
C1553 C1554 1.523 . S
C1554 C1538 1.368 . S
C1554 C1550 1.368 . S
C1554 C1553 1.523 . S
H1555 C1530 0.950 . S
H1556 C1532 0.950 . S
H1557 C1533 0.949 . S
H1558 C1535 0.950 . S
H1559 C1537 0.950 . S
C481 C95 1.214 . S
C486 C19 1.176 . S
C511 C126 1.214 . S
C516 C50 1.176 . S
C541 C99 1.176 . S
C546 C175 1.214 . S
C571 C130 1.176 . S
C576 C206 1.214 . S
C601 C15 1.214 . S
C606 C179 1.176 . S
C631 C46 1.214 . S
C636 C210 1.176 . S
C661 C406 1.214 . S
C666 C250 1.176 . S
C691 C299 1.176 . S
C696 C455 1.214 . S
C721 C330 1.176 . S
C726 C246 1.214 . S
C751 C379 1.176 . S
C756 C295 1.214 . S
C781 C410 1.176 . S
C786 C326 1.214 . S
C811 C375 1.214 . S
C816 C459 1.176 . S
C841 C129 1.731 . S
C846 C18 1.731 . S
C871 C49 1.731 . S
C876 C178 1.731 . S
C901 C98 1.731 . S
C906 C209 1.731 . S
C931 C249 1.731 . S
C936 C378 1.731 . S
C961 C298 1.731 . S
C966 C409 1.731 . S
C991 C329 1.731 . S
C996 C458 1.731 . S
C1021 C289 2.296 . S
C1026 C9 2.296 . S
C1051 C58 2.296 . S
C1056 C338 2.296 . S
C1081 C369 2.296 . S
C1086 C89 2.296 . S
C1111 C138 2.296 . S
C1116 C418 2.296 . S
C1141 C169 2.296 . S
C1146 C449 2.296 . S
C1171 C258 2.296 . S
C1176 C218 2.296 . S
C1201 C86 1.735 . S
C1206 C10 1.733 . S
C1231 C59 1.733 . S
C1236 C135 1.735 . S
C1261 C90 1.733 . S
C1266 C166 1.735 . S
C1291 C139 1.733 . S
C1296 C215 1.735 . S
C1321 C6 1.735 . S
C1326 C170 1.733 . S
C1351 C55 1.735 . S
C1356 C219 1.733 . S
C1381 C415 1.735 . S
C1386 C259 1.733 . S
C1411 C290 1.733 . S
C1416 C446 1.735 . S
C1441 C339 1.733 . S
C1446 C255 1.735 . S
C1471 C286 1.735 . S
C1476 C370 1.733 . S
C1501 C419 1.733 . S
C1506 C335 1.735 . S
C1531 C450 1.733 . S
C1536 C366 1.735 . S
