# Generated by pormake.
# Topology bcu-h, (3)-cn, num edge types: 1
# Building blocks:
#     Node 0, Type 0, BuildingBlock: OLANEW_clean_sbu_2, # of connection points: 3
#     Node 1, Type 0, BuildingBlock: OLANEW_clean_sbu_2, # of connection points: 3
#     Node 2, Type 0, BuildingBlock: OLANEW_clean_sbu_2, # of connection points: 3
#     Node 3, Type 0, BuildingBlock: OLANEW_clean_sbu_2, # of connection points: 3
#     Node 4, Type 0, BuildingBlock: OLANEW_clean_sbu_2, # of connection points: 3
#     Node 5, Type 0, BuildingBlock: OLANEW_clean_sbu_2, # of connection points: 3
#     Node 6, Type 0, BuildingBlock: OLANEW_clean_sbu_2, # of connection points: 3
#     Node 7, Type 0, BuildingBlock: OLANEW_clean_sbu_2, # of connection points: 3
#     Node 8, Type 0, BuildingBlock: OLANEW_clean_sbu_2, # of connection points: 3
#     Node 9, Type 0, BuildingBlock: OLANEW_clean_sbu_2, # of connection points: 3
#     Node 10, Type 0, BuildingBlock: OLANEW_clean_sbu_2, # of connection points: 3
#     Node 11, Type 0, BuildingBlock: OLANEW_clean_sbu_2, # of connection points: 3
#     Node 12, Type 0, BuildingBlock: OLANEW_clean_sbu_2, # of connection points: 3
#     Node 13, Type 0, BuildingBlock: OLANEW_clean_sbu_2, # of connection points: 3
#     Node 14, Type 0, BuildingBlock: OLANEW_clean_sbu_2, # of connection points: 3
#     Node 15, Type 0, BuildingBlock: OLANEW_clean_sbu_2, # of connection points: 3
#     Edge 16, Type (0, 0), BuildingBlock: MIFKUJ_clean_linker_0, # of connection points: 2
#     Edge 17, Type (0, 0), BuildingBlock: MIFKUJ_clean_linker_0, # of connection points: 2
#     Edge 18, Type (0, 0), BuildingBlock: MIFKUJ_clean_linker_0, # of connection points: 2
#     Edge 19, Type (0, 0), BuildingBlock: MIFKUJ_clean_linker_0, # of connection points: 2
#     Edge 20, Type (0, 0), BuildingBlock: MIFKUJ_clean_linker_0, # of connection points: 2
#     Edge 21, Type (0, 0), BuildingBlock: MIFKUJ_clean_linker_0, # of connection points: 2
#     Edge 22, Type (0, 0), BuildingBlock: MIFKUJ_clean_linker_0, # of connection points: 2
#     Edge 23, Type (0, 0), BuildingBlock: MIFKUJ_clean_linker_0, # of connection points: 2
#     Edge 24, Type (0, 0), BuildingBlock: MIFKUJ_clean_linker_0, # of connection points: 2
#     Edge 25, Type (0, 0), BuildingBlock: MIFKUJ_clean_linker_0, # of connection points: 2
#     Edge 26, Type (0, 0), BuildingBlock: MIFKUJ_clean_linker_0, # of connection points: 2
#     Edge 27, Type (0, 0), BuildingBlock: MIFKUJ_clean_linker_0, # of connection points: 2
#     Edge 28, Type (0, 0), BuildingBlock: MIFKUJ_clean_linker_0, # of connection points: 2
#     Edge 29, Type (0, 0), BuildingBlock: MIFKUJ_clean_linker_0, # of connection points: 2
#     Edge 30, Type (0, 0), BuildingBlock: MIFKUJ_clean_linker_0, # of connection points: 2
#     Edge 31, Type (0, 0), BuildingBlock: MIFKUJ_clean_linker_0, # of connection points: 2
#     Edge 32, Type (0, 0), BuildingBlock: MIFKUJ_clean_linker_0, # of connection points: 2
#     Edge 33, Type (0, 0), BuildingBlock: MIFKUJ_clean_linker_0, # of connection points: 2
#     Edge 34, Type (0, 0), BuildingBlock: MIFKUJ_clean_linker_0, # of connection points: 2
#     Edge 35, Type (0, 0), BuildingBlock: MIFKUJ_clean_linker_0, # of connection points: 2
#     Edge 36, Type (0, 0), BuildingBlock: MIFKUJ_clean_linker_0, # of connection points: 2
#     Edge 37, Type (0, 0), BuildingBlock: MIFKUJ_clean_linker_0, # of connection points: 2
#     Edge 38, Type (0, 0), BuildingBlock: MIFKUJ_clean_linker_0, # of connection points: 2
#     Edge 39, Type (0, 0), BuildingBlock: MIFKUJ_clean_linker_0, # of connection points: 2
# Relax obj value: 0.003
# Max RMSD: 0.066
# Mean RMSD: 0.066
data_MOF--net-bcu-h--node1-OLANEW_clean_sbu_2--edge1-MIFKUJ_clean_linker_0
_symmetry_space_group_name_H-M    P1
_symmetry_Int_Tables_number       1
_symmetry_cell_setting            triclinic
loop_
_symmetry_equiv_pos_as_xyz
'x, y, z'
_cell_length_a     75.33585
_cell_length_b     75.79436
_cell_length_c     60.655052
_cell_angle_alpha  89.942719
_cell_angle_beta   89.639927
_cell_angle_gamma 89.986334
loop_
_atom_site_label
_atom_site_type_symbol
_atom_site_fract_x
_atom_site_fract_y
_atom_site_fract_z
_atom_type_partial_charge
O0 O 0.59323 0.00672 0.12149 0.0
Cd1 Cd 0.60416 -0.00304 0.08551 0.0
O2 O 0.59183 0.03443 0.11083 0.0
Cd3 Cd 0.60874 0.02985 0.08202 0.0
O4 O 0.63529 0.03023 0.06733 0.0
C5 C 0.64183 0.04495 0.06137 0.0
O6 O 0.63187 0.05915 0.06265 0.0
C7 C 0.58869 0.02261 0.12523 0.0
C8 C 0.57519 -0.01043 0.0586 0.0
O9 O 0.58241 0.97747 0.07028 0.0
O10 O 0.58189 0.0051 0.05935 0.0
O11 O 0.43645 0.58649 0.62033 0.0
Cd12 Cd 0.44376 0.59815 0.58375 0.0
O13 O 0.41108 0.60086 0.62155 0.0
Cd14 Cd 0.41683 0.61681 0.5924 0.0
O15 O 0.42463 0.64234 0.57874 0.0
C16 C 0.43635 0.65048 0.58976 0.0
O17 O 0.44318 0.64267 0.60709 0.0
C18 C 0.42191 0.59001 0.63017 0.0
C19 C 0.46263 0.57398 0.55804 0.0
O20 O 0.47071 0.58554 0.56967 0.0
O21 O 0.44562 0.57383 0.55861 0.0
O22 O 0.88296 0.47126 0.13109 0.0
Cd23 Cd 0.87008 0.47833 0.09532 0.0
O24 O 0.88105 0.44273 0.12507 0.0
Cd25 Cd 0.86187 0.44561 0.09852 0.0
O26 O 0.83394 0.44178 0.09039 0.0
C27 C 0.82719 0.42734 0.09707 0.0
O28 O 0.83753 0.41579 0.10682 0.0
C29 C 0.88645 0.45551 0.13682 0.0
C30 C 0.89769 0.48654 0.06622 0.0
O31 O 0.88986 0.49861 0.07742 0.0
O32 O 0.89218 0.47063 0.0684 0.0
O33 O 0.02807 0.86515 0.6569 0.0
Cd34 Cd 0.02167 0.85034 0.62198 0.0
O35 O 0.05544 0.87231 0.64769 0.0
Cd36 Cd 0.05434 0.85617 0.61798 0.0
O37 O 0.05203 0.83216 0.59839 0.0
C38 C 0.06586 0.8242 0.59157 0.0
O39 O 0.08148 0.83125 0.59531 0.0
C40 C 0.0426 0.87289 0.66139 0.0
C41 C 0.01088 0.8746 0.59013 0.0
O42 O -0.00046 0.86695 0.60274 0.0
O43 O 0.0273 0.87065 0.59246 0.0
O44 O 0.08571 0.95552 0.88006 0.0
Cd45 Cd 0.09694 0.96736 0.91476 0.0
O46 O 0.09154 0.92813 0.88959 0.0
Cd47 Cd 0.10856 0.93592 0.91691 0.0
O48 O 0.13593 0.93906 0.92802 0.0
C49 C 0.14701 0.92937 0.91779 0.0
O50 O 0.14106 0.91842 0.90276 0.0
C51 C 0.0848 0.93907 0.8761 0.0
C52 C 0.06882 0.9777 0.94203 0.0
O53 O 0.07479 0.96187 0.94251 0.0
O54 O 0.07626 -0.01132 0.92881 0.0
O55 O 0.52356 0.08694 0.34644 0.0
Cd56 Cd 0.51615 0.1004 0.38194 0.0
O57 O 0.55217 0.08644 0.3534 0.0
Cd58 Cd 0.5494 0.10478 0.38089 0.0
O59 O 0.54994 0.13223 0.39173 0.0
C60 C 0.54098 0.14307 0.3803 0.0
O61 O 0.53135 0.13697 0.364 0.0
C62 C 0.53923 0.08234 0.34104 0.0
C63 C 0.50636 0.0742 0.41201 0.0
O64 O 0.49474 0.08194 0.40006 0.0
O65 O 0.52259 0.07902 0.40995 0.0
O66 O 0.39077 0.54482 0.86987 0.0
Cd67 Cd 0.38204 0.54184 0.90864 0.0
O68 O 0.36854 0.56288 0.86344 0.0
Cd69 Cd 0.35572 0.55967 0.89555 0.0
O70 O 0.33229 0.55346 0.91541 0.0
C71 C 0.32596 0.538 0.91354 0.0
O72 O 0.33453 0.52648 0.90129 0.0
C73 C 0.38235 0.55482 0.85672 0.0
C74 C 0.40481 0.52031 0.9328 0.0
O75 O 0.40799 0.53682 0.93043 0.0
O76 O 0.39093 0.51397 0.9236 0.0
O77 O 0.93947 0.4068 0.36703 0.0
Cd78 Cd 0.9432 0.39503 0.40419 0.0
O79 O 0.93746 0.38068 0.35142 0.0
Cd80 Cd 0.93943 0.36443 0.38098 0.0
O81 O 0.93889 0.3374 0.39341 0.0
C82 C 0.94984 0.32678 0.38451 0.0
O83 O 0.96128 0.33296 0.36999 0.0
C84 C 0.93768 0.3974 0.34985 0.0
C85 C 0.95659 0.42143 0.43145 0.0
O86 O 0.96701 0.41096 0.42098 0.0
O87 O 0.93982 0.41921 0.42931 0.0
O88 O 0.39756 0.94545 0.87007 0.0
Cd89 Cd 0.38723 0.94857 0.90813 0.0
O90 O 0.38376 0.96924 0.85842 0.0
Cd91 Cd 0.36756 0.9711 0.88831 0.0
O92 O 0.34225 0.96665 0.90521 0.0
C93 C 0.3332 0.95387 0.89769 0.0
O94 O 0.33997 0.94437 0.88159 0.0
C95 C 0.39436 0.9565 0.8548 0.0
C96 C 0.41628 0.9554 0.93516 0.0
O97 O 0.41099 0.93957 0.93174 0.0
O98 O 0.40763 0.96801 0.9261 0.0
O99 O 0.58322 0.42302 0.37035 0.0
Cd100 Cd 0.58636 0.4246 0.41041 0.0
O101 O 0.57631 0.39531 0.37543 0.0
Cd102 Cd 0.57042 0.36779 0.36728 0.0
O103 O 0.56504 0.33945 0.36732 0.0
C104 C 0.57297 0.32984 0.38134 0.0
O105 O 0.58425 0.33726 0.39493 0.0
C106 C 0.57886 0.40818 0.3623 0.0
C107 C 0.56464 0.44979 0.43048 0.0
O108 O 0.58054 0.45357 0.42448 0.0
O109 O 0.55894 0.43415 0.42672 0.0
O110 O 0.07455 0.53897 0.87463 0.0
Cd111 Cd 0.0838 0.53528 0.91288 0.0
O112 O 0.0933 0.51913 0.86194 0.0
Cd113 Cd 0.10749 0.51652 0.89305 0.0
O114 O 0.13152 0.51811 0.91291 0.0
C115 C 0.14303 0.50596 0.91081 0.0
O116 O 0.13942 0.49242 0.89809 0.0
C117 C 0.08071 0.52997 0.85864 0.0
C118 C 0.05446 0.52705 0.93919 0.0
O119 O 0.05923 0.5431 0.93614 0.0
O120 O 0.06372 0.51487 0.93002 0.0
O121 O 0.93693 0.04519 0.39151 0.0
Cd122 Cd 0.94249 0.04774 0.43101 0.0
O123 O 0.94042 0.07379 0.39111 0.0
Cd124 Cd 0.9399 0.10072 0.37817 0.0
O125 O 0.94086 0.12939 0.37507 0.0
C126 C 0.92967 0.13859 0.38582 0.0
O127 O 0.9175 0.13051 0.39771 0.0
C128 C 0.93725 0.05958 0.38074 0.0
C129 C 0.95396 0.01664 0.45085 0.0
O130 O 0.93739 0.02038 0.44972 0.0
O131 O 0.96507 0.0275 0.44228 0.0
O132 O 0.89853 0.04749 0.13732 0.0
Cd133 Cd 0.8895 0.04194 0.09929 0.0
O134 O 0.8719 0.05607 0.14792 0.0
Cd135 Cd 0.85855 0.05176 0.11648 0.0
O136 O 0.83508 0.04809 0.09596 0.0
C137 C 0.8275 0.06137 0.08732 0.0
O138 O 0.8347 0.07704 0.0897 0.0
C139 C 0.88812 0.05316 0.15231 0.0
C140 C 0.91834 0.03129 0.07336 0.0
O141 O 0.91413 0.04762 0.07505 0.0
O142 O 0.90885 0.01999 0.08385 0.0
O143 O 0.44218 0.91349 0.61957 0.0
Cd144 Cd 0.44699 0.90229 0.58225 0.0
O145 O 0.44985 0.8885 0.63539 0.0
Cd146 Cd 0.45293 0.87295 0.60532 0.0
O147 O 0.45363 0.8471 0.58937 0.0
C148 C 0.46194 0.83523 0.59992 0.0
O149 O 0.46992 0.83959 0.61834 0.0
C150 C 0.44497 0.90451 0.63693 0.0
C151 C 0.45669 0.92974 0.55391 0.0
O152 O 0.44037 0.92547 0.55666 0.0
O153 O 0.46844 0.92091 0.56441 0.0
O154 O 0.54521 0.38811 0.11943 0.0
Cd155 Cd 0.5431 0.3843 0.07949 0.0
O156 O 0.57258 0.39641 0.11345 0.0
Cd157 Cd 0.60012 0.40363 0.12035 0.0
O158 O 0.6284 0.40983 0.11809 0.0
C159 C 0.63987 0.39801 0.12223 0.0
O160 O 0.63445 0.38232 0.1286 0.0
C161 C 0.56002 0.39325 0.12701 0.0
C162 C 0.51996 0.40779 0.05896 0.0
O163 O 0.51457 0.39267 0.06572 0.0
O164 O 0.53624 0.4119 0.06221 0.0
O165 O 0.04558 0.57864 0.62325 0.0
Cd166 Cd 0.04247 0.59046 0.58598 0.0
O167 O 0.02462 0.59558 0.63713 0.0
Cd168 Cd 0.02257 0.61162 0.60736 0.0
O169 O 0.02615 0.63612 0.58892 0.0
C170 C 0.04176 0.6407 0.58329 0.0
O171 O 0.05501 0.62991 0.58735 0.0
C172 C 0.0359 0.58325 0.6395 0.0
C173 C 0.02819 0.56463 0.55863 0.0
O174 O 0.04502 0.56625 0.56085 0.0
O175 O 0.01812 0.57543 0.5691 0.0
H176 H 0.43692 0.93157 0.95719 0.0
H177 H 0.46379 0.93744 0.97833 0.0
H178 H 0.45854 -0.00692 0.96489 0.0
H179 H 0.43173 -0.01268 0.94354 0.0
H180 H 0.49223 0.98166 0.95796 0.0
H181 H 0.44824 0.97676 0.0153 0.0
H182 H 0.42388 0.96258 0.03609 0.0
H183 H 0.45755 0.91838 0.05049 0.0
H184 H 0.48205 0.9322 0.02952 0.0
H185 H 0.55524 0.01302 0.03507 0.0
H186 H 0.52835 0.00702 0.01407 0.0
H187 H 0.53235 0.95175 0.03045 0.0
H188 H 0.55906 0.95772 0.05189 0.0
H189 H 0.49927 0.96284 0.03578 0.0
H190 H 0.54323 0.96739 0.9786 0.0
H191 H 0.56768 0.98122 0.95762 0.0
H192 H 0.53432 0.02551 0.94256 0.0
H193 H 0.50973 0.01205 0.96371 0.0
C194 C 0.44142 0.94507 0.95881 0.0
C195 C 0.43216 0.95899 0.9487 0.0
C196 C 0.45676 0.94841 0.97097 0.0
C197 C 0.46309 0.96572 0.97333 0.0
C198 C 0.45388 0.97963 0.96328 0.0
C199 C 0.43852 0.97631 0.95115 0.0
C200 C 0.47955 0.96928 0.98588 0.0
C201 C 0.49369 0.97777 0.97507 0.0
C202 C 0.48162 0.96376 0.00801 0.0
C203 C 0.46692 0.95544 0.02065 0.0
C204 C 0.4504 0.96395 0.02275 0.0
C205 C 0.43658 0.95599 0.03459 0.0
C206 C 0.43915 0.93957 0.04455 0.0
C207 C 0.45557 0.93109 0.04274 0.0
C208 C 0.46943 0.93899 0.03089 0.0
C209 C 0.55046 -0.00043 0.03411 0.0
C210 C 0.55932 0.98584 0.04511 0.0
C211 C 0.53511 -0.00386 0.02203 0.0
C212 C 0.52842 0.9789 0.02047 0.0
C213 C 0.53726 0.96516 0.03141 0.0
C214 C 0.55256 0.96859 0.0436 0.0
C215 C 0.51198 0.97524 0.00787 0.0
C216 C 0.49784 0.96673 0.01866 0.0
C217 C 0.50994 0.98067 0.98569 0.0
C218 C 0.52469 -0.01121 0.97292 0.0
C219 C 0.54115 0.98014 0.97096 0.0
C220 C 0.55503 -0.0121 0.95901 0.0
C221 C 0.55257 0.00425 0.94881 0.0
C222 C 0.53621 0.01285 0.95049 0.0
C223 C 0.52229 0.00516 0.96244 0.0
H224 H 0.56333 0.01024 0.93957 0.0
H225 H 0.42844 0.93342 0.05372 0.0
H226 H 0.44978 0.54506 0.53644 0.0
H227 H 0.46644 0.524 0.5138 0.0
H228 H 0.51465 0.55305 0.52569 0.0
H229 H 0.49812 0.57413 0.54845 0.0
H230 H 0.5099 0.54394 0.4813 0.0
H231 H 0.50789 0.51616 0.5529 0.0
H232 H 0.49313 0.50443 0.58622 0.0
H233 H 0.46371 0.4679 0.5466 0.0
H234 H 0.47812 0.47959 0.51298 0.0
H235 H 0.57442 0.48218 0.44596 0.0
H236 H 0.55617 0.5033 0.46633 0.0
H237 H 0.51108 0.46849 0.46103 0.0
H238 H 0.52942 0.44705 0.44118 0.0
H239 H 0.51302 0.48051 0.50119 0.0
H240 H 0.51485 0.50698 0.42982 0.0
H241 H 0.52856 0.51859 0.39577 0.0
H242 H 0.55675 0.55739 0.43338 0.0
H243 H 0.54338 0.54585 0.46771 0.0
C244 C 0.46392 0.54697 0.53425 0.0
C245 C 0.47265 0.56124 0.54429 0.0
C246 C 0.47342 0.5349 0.52135 0.0
C247 C 0.49178 0.53693 0.51819 0.0
C248 C 0.50048 0.55127 0.52795 0.0
C249 C 0.49103 0.56325 0.54101 0.0
C250 C 0.50195 0.52407 0.50473 0.0
C251 C 0.51078 0.5301 0.48574 0.0
C252 C 0.50259 0.50595 0.51021 0.0
C253 C 0.49394 0.49888 0.53041 0.0
C254 C 0.49816 0.50573 0.55127 0.0
C255 C 0.48988 0.49907 0.57021 0.0
C256 C 0.47745 0.48546 0.56852 0.0
C257 C 0.47332 0.47846 0.54788 0.0
C258 C 0.48154 0.48509 0.52888 0.0
C259 C 0.56059 0.47906 0.44901 0.0
C260 C 0.55336 0.46295 0.44192 0.0
C261 C 0.55014 0.49119 0.46057 0.0
C262 C 0.53217 0.48761 0.46498 0.0
C263 C 0.5249 0.47156 0.45781 0.0
C264 C 0.53539 0.45934 0.44642 0.0
C265 C 0.52114 0.50034 0.4777 0.0
C266 C 0.51212 0.49431 0.49659 0.0
C267 C 0.52017 0.51844 0.47198 0.0
C268 C 0.52824 0.52543 0.45137 0.0
C269 C 0.52408 0.5179 0.43085 0.0
C270 C 0.53177 0.52448 0.4115 0.0
C271 C 0.54355 0.53869 0.41241 0.0
C272 C 0.54763 0.54637 0.43269 0.0
C273 C 0.53999 0.53982 0.45211 0.0
H274 H 0.54949 0.54378 0.39741 0.0
H275 H 0.47106 0.48031 0.58321 0.0
H276 H 0.03224 0.54991 0.96067 0.0
H277 H 0.00556 0.54278 0.98197 0.0
H278 H 0.01393 0.48738 0.96939 0.0
H279 H 0.04055 0.49441 0.94781 0.0
H280 H 0.97972 0.4966 0.96303 0.0
H281 H 0.02327 0.50482 0.01945 0.0
H282 H 0.04684 0.52055 0.03946 0.0
H283 H 0.01089 0.56316 0.05328 0.0
H284 H 0.98716 0.54778 0.03308 0.0
H285 H 0.9186 0.46358 0.0429 0.0
H286 H 0.94494 0.47047 0.02082 0.0
H287 H 0.93788 0.52585 0.03473 0.0
H288 H 0.91172 0.51904 0.0572 0.0
H289 H 0.97152 0.51647 0.04033 0.0
H290 H 0.92795 0.50828 0.98387 0.0
H291 H 0.90441 0.49258 0.96375 0.0
H292 H 0.94036 0.44998 0.94991 0.0
H293 H 0.96406 0.46532 0.97022 0.0
C294 C 0.02846 0.5362 0.96249 0.0
C295 C 0.03855 0.52272 0.95259 0.0
C296 C 0.01322 0.53214 0.97474 0.0
C297 C 0.00785 0.51453 0.97744 0.0
C298 C 0.01785 0.50106 0.96752 0.0
C299 C 0.0331 0.5051 0.95526 0.0
C300 C -0.00837 0.51021 0.99035 0.0
C301 C 0.97801 0.50072 0.98003 0.0
C302 C 0.98925 0.51596 0.01236 0.0
C303 C 0.00349 0.52522 0.02456 0.0
C304 C 0.02043 0.51761 0.0266 0.0
C305 C 0.03381 0.52645 0.03801 0.0
C306 C 0.03038 0.54287 0.04759 0.0
C307 C 0.01354 0.55046 0.04583 0.0
C308 C 0.00011 0.54167 0.03442 0.0
C309 C 0.92257 0.47724 0.04114 0.0
C310 C 0.91304 0.49076 0.05179 0.0
C311 C 0.9376 0.48117 0.02844 0.0
C312 C 0.9433 0.4987 0.02594 0.0
C313 C 0.93373 0.51223 0.03642 0.0
C314 C 0.91874 0.50831 0.0492 0.0
C315 C 0.95955 0.5029 0.013 0.0
C316 C 0.9732 0.51234 0.02332 0.0
C317 C 0.96195 0.49712 0.99099 0.0
C318 C 0.94772 0.48787 0.97876 0.0
C319 C 0.93079 0.4955 0.97669 0.0
C320 C 0.91743 0.48668 0.96522 0.0
C321 C 0.92087 0.47028 0.95561 0.0
C322 C 0.9377 0.46268 0.95739 0.0
C323 C 0.95111 0.47144 0.96886 0.0
H324 H 0.91051 0.46347 0.94673 0.0
H325 H 0.04076 0.54969 0.05641 0.0
H326 H 0.03195 0.89399 0.56239 0.0
H327 H 0.0227 0.91685 0.53641 0.0
H328 H 0.96798 0.9083 0.55483 0.0
H329 H 0.97708 0.8853 0.58073 0.0
H330 H 0.97211 0.91207 0.51018 0.0
H331 H -0.00966 0.94259 0.57587 0.0
H332 H 0.0109 0.9504 0.60579 0.0
H333 H 0.04898 0.96908 0.55826 0.0
H334 H 0.02874 0.96115 0.52802 0.0
H335 H 0.93379 -0.00783 0.4727 0.0
H336 H 0.94412 0.96673 0.49375 0.0
H337 H -0.00172 0.9792 0.47619 0.0
H338 H 0.98806 0.00488 0.45541 0.0
H339 H -0.00459 0.97286 0.51905 0.0
H340 H 0.97673 0.94376 0.45329 0.0
H341 H 0.95627 0.936 0.42326 0.0
H342 H 0.91926 0.91465 0.47032 0.0
H343 H 0.93939 0.92251 0.50069 0.0
C344 C 0.01793 0.8969 0.56085 0.0
C345 C 0.00525 0.8879 0.57372 0.0
C346 C 0.01268 0.91 0.54603 0.0
C347 C -0.00532 0.9144 0.54388 0.0
C348 C 0.98195 0.90512 0.55626 0.0
C349 C 0.98718 0.89203 0.57111 0.0
C350 C 0.98914 0.92899 0.52914 0.0
C351 C 0.97704 0.92541 0.51223 0.0
C352 C -0.00406 0.94628 0.53152 0.0
C353 C 0.00811 0.9511 0.54968 0.0
C354 C 0.00316 0.94822 0.57179 0.0
C355 C 0.01474 0.9527 0.58881 0.0
C356 C 0.03126 0.96018 0.58393 0.0
C357 C 0.0362 0.96325 0.56202 0.0
C358 C 0.02467 0.95878 0.54493 0.0
C359 C 0.94789 -0.01057 0.47315 0.0
C360 C 0.9601 0.00057 0.4624 0.0
C361 C 0.95377 0.97481 0.48511 0.0
C362 C 0.97197 0.97095 0.48638 0.0
C363 C 0.98418 0.98192 0.47542 0.0
C364 C 0.97831 -0.00343 0.46351 0.0
C365 C 0.97831 0.956 0.50005 0.0
C366 C -0.00946 0.95951 0.51684 0.0
C367 C 0.97165 0.93865 0.49751 0.0
C368 C 0.95951 0.93388 0.47928 0.0
C369 C 0.96417 0.93754 0.45726 0.0
C370 C 0.95264 0.9331 0.44017 0.0
C371 C 0.93646 0.92488 0.44488 0.0
C372 C 0.93179 0.92104 0.4667 0.0
C373 C 0.94327 0.92547 0.48385 0.0
H374 H 0.92755 0.92144 0.43163 0.0
H375 H 0.04021 0.96364 0.59713 0.0
H376 H 0.05475 0.01075 0.94687 0.0
H377 H 0.0294 0.01953 0.9697 0.0
H378 H 0.02314 0.96578 0.99186 0.0
H379 H 0.04846 0.95685 0.96898 0.0
H380 H -0.00849 0.98066 0.97992 0.0
H381 H 0.04097 -0.00426 0.0256 0.0
H382 H 0.06958 0.00979 0.0344 0.0
H383 H 0.04717 0.06086 0.02166 0.0
H384 H 0.01848 0.04709 0.01247 0.0
H385 H 0.93133 -0.00214 0.0679 0.0
H386 H 0.95694 -0.01133 0.04581 0.0
H387 H 0.9657 0.04263 0.02587 0.0
H388 H 0.94029 0.05198 0.04824 0.0
H389 H -0.00377 0.02733 0.0369 0.0
H390 H 0.94696 0.01251 0.99078 0.0
H391 H 0.91834 -0.00132 0.98152 0.0
H392 H 0.94026 0.94744 0.9945 0.0
H393 H 0.96895 0.96099 0.00414 0.0
C394 C 0.04802 0.00079 0.95664 0.0
C395 C 0.05365 0.9831 0.95615 0.0
C396 C 0.03357 0.00585 0.96974 0.0
C397 C 0.02448 -0.00667 0.98262 0.0
C398 C 0.02999 0.97565 0.98206 0.0
C399 C 0.0445 0.97059 0.96904 0.0
C400 C 0.00907 -0.00133 0.99643 0.0
C401 C -0.00743 -0.00931 0.99261 0.0
C402 C 0.0104 0.01205 0.01258 0.0
C403 C 0.02763 0.02037 0.01814 0.0
C404 C 0.04219 0.00996 0.02449 0.0
C405 C 0.05841 0.01787 0.02959 0.0
C406 C 0.06021 0.0362 0.02853 0.0
C407 C 0.04577 0.04666 0.02244 0.0
C408 C 0.02952 0.03881 0.0173 0.0
C409 C 0.93868 0.00778 0.05879 0.0
C410 C 0.93373 0.02565 0.05978 0.0
C411 C 0.95328 0.00249 0.04609 0.0
C412 C 0.96313 0.01493 0.03397 0.0
C413 C 0.95829 0.0328 0.03506 0.0
C414 C 0.94373 0.03811 0.04781 0.0
C415 C 0.97861 0.00936 0.02037 0.0
C416 C -0.00487 0.0173 0.02423 0.0
C417 C 0.97729 -0.00403 0.00419 0.0
C418 C 0.96005 -0.01221 -0.0016 0.0
C419 C 0.94563 -0.00169 0.99184 0.0
C420 C 0.92941 -0.00948 0.98649 0.0
C421 C 0.92747 0.9722 0.98748 0.0
C422 C 0.94177 0.96163 0.99378 0.0
C423 C 0.95802 0.96936 -0.00084 0.0
H424 H 0.91489 0.96619 0.98333 0.0
H425 H 0.07278 0.0423 0.03249 0.0
H426 H 0.49007 0.94234 0.54542 0.0
H427 H 0.49841 0.96707 0.52163 0.0
H428 H 0.44334 0.97552 0.50565 0.0
H429 H 0.4349 0.95067 0.52921 0.0
H430 H 0.46419 0.97714 0.46932 0.0
H431 H 0.46429 0.00232 0.54195 0.0
H432 H 0.47265 0.00435 0.5811 0.0
H433 H 0.52755 0.00918 0.56262 0.0
H434 H 0.51954 0.00694 0.52334 0.0
H435 H 0.47301 0.06167 0.42074 0.0
H436 H 0.46468 0.03737 0.44519 0.0
H437 H 0.51967 0.0297 0.46215 0.0
H438 H 0.52809 0.05421 0.438 0.0
H439 H 0.49891 0.02767 0.49806 0.0
H440 H 0.49902 0.00236 0.42559 0.0
H441 H 0.49088 0.00014 0.38638 0.0
H442 H 0.43589 -0.00472 0.40444 0.0
H443 H 0.44369 -0.00228 0.44378 0.0
C444 C 0.47972 0.94944 0.53683 0.0
C445 C 0.46181 0.94456 0.53926 0.0
C446 C 0.48451 0.96363 0.52331 0.0
C447 C 0.47148 0.97328 0.51206 0.0
C448 C 0.45361 0.96828 0.51421 0.0
C449 C 0.44881 0.9541 0.52773 0.0
C450 C 0.47647 -0.01149 0.49794 0.0
C451 C 0.47157 -0.01169 0.47567 0.0
C452 C 0.48648 0.00287 0.50611 0.0
C453 C 0.49133 0.00429 0.52971 0.0
C454 C 0.47816 0.00368 0.54624 0.0
C455 C 0.48283 0.00489 0.56846 0.0
C456 C 0.50062 0.00685 0.57435 0.0
C457 C 0.51377 0.00764 0.55803 0.0
C458 C 0.50917 0.00642 0.53579 0.0
C459 C 0.48334 0.05486 0.42971 0.0
C460 C 0.50123 0.05983 0.42735 0.0
C461 C 0.47856 0.04091 0.44361 0.0
C462 C 0.49158 0.03155 0.45526 0.0
C463 C 0.50941 0.03671 0.45328 0.0
C464 C 0.5142 0.0507 0.43943 0.0
C465 C 0.48661 0.01632 0.46942 0.0
C466 C 0.49153 0.01651 0.4917 0.0
C467 C 0.47664 0.00192 0.46125 0.0
C468 C 0.47192 0.0004 0.43762 0.0
C469 C 0.48518 0.00096 0.42119 0.0
C470 C 0.48063 -0.00037 0.39895 0.0
C471 C 0.46287 -0.00239 0.39292 0.0
C472 C 0.44964 -0.00313 0.40914 0.0
C473 C 0.45411 -0.00179 0.43141 0.0
H474 H 0.45938 -0.00341 0.37569 0.0
H475 H 0.50421 0.00779 0.59156 0.0
H476 H 0.48593 0.40142 0.04578 0.0
H477 H 0.46647 0.421 0.02486 0.0
H478 H 0.50708 0.46109 0.02445 0.0
H479 H 0.52665 0.4416 0.04543 0.0
H480 H 0.47366 0.47451 0.03382 0.0
H481 H 0.50111 0.43704 0.97955 0.0
H482 H 0.50994 0.40864 0.96299 0.0
H483 H 0.45517 0.39367 0.95761 0.0
H484 H 0.44602 0.4219 0.97444 0.0
H485 H 0.43701 0.52892 0.95038 0.0
H486 H 0.45653 0.51015 0.97227 0.0
H487 H 0.41892 0.46742 0.96738 0.0
H488 H 0.39956 0.48597 0.94497 0.0
H489 H 0.45117 0.45545 0.96091 0.0
H490 H 0.42341 0.4925 0.01516 0.0
H491 H 0.4142 0.5206 0.0322 0.0
H492 H 0.46878 0.53607 0.03829 0.0
H493 H 0.47831 0.50815 0.021 0.0
C494 C 0.49071 0.41443 0.04134 0.0
C495 C 0.50787 0.41993 0.04718 0.0
C496 C 0.47959 0.42557 0.02932 0.0
C497 C 0.48542 0.44241 0.02292 0.0
C498 C 0.50236 0.44813 0.0292 0.0
C499 C 0.51353 0.43695 0.04113 0.0
C500 C 0.47392 0.45395 0.00936 0.0
C501 C 0.46891 0.47047 0.01775 0.0
C502 C 0.46742 0.44847 0.98864 0.0
C503 C 0.47289 0.43151 0.97846 0.0
C504 C 0.49095 0.42763 0.97501 0.0
C505 C 0.49601 0.41158 0.96554 0.0
C506 C 0.48312 0.39934 0.95931 0.0
C507 C 0.46514 0.40315 0.96248 0.0
C508 C 0.46001 0.41918 0.97196 0.0
C509 C 0.43289 0.51553 0.95397 0.0
C510 C 0.41671 0.50895 0.94598 0.0
C511 C 0.44402 0.50483 0.96659 0.0
C512 C 0.43908 0.48744 0.97177 0.0
C513 C 0.42301 0.4808 0.96364 0.0
C514 C 0.41193 0.49144 0.95086 0.0
C515 C 0.45077 0.47605 0.98538 0.0
C516 C 0.45587 0.45954 0.97699 0.0
C517 C 0.45726 0.48152 0.00615 0.0
C518 C 0.45156 0.49831 0.01658 0.0
C519 C 0.43344 0.50195 0.01997 0.0
C520 C 0.42817 0.51784 0.02971 0.0
C521 C 0.44089 0.53013 0.03627 0.0
C522 C 0.45893 0.52655 0.03317 0.0
C523 C 0.46428 0.51069 0.02342 0.0
H524 H 0.43678 0.54242 0.0438 0.0
H525 H 0.48707 0.38692 0.95198 0.0
H526 H -0.00686 0.55755 0.55114 0.0
H527 H 0.98071 0.53345 0.52937 0.0
H528 H 0.03355 0.51539 0.51345 0.0
H529 H 0.04611 0.53958 0.53494 0.0
H530 H 0.01247 0.51495 0.47769 0.0
H531 H 0.00883 0.49464 0.55272 0.0
H532 H 0.00043 0.49643 0.59201 0.0
H533 H 0.94537 0.49919 0.57444 0.0
H534 H 0.95346 0.49765 0.535 0.0
H535 H -0.00862 0.42947 0.43909 0.0
H536 H 0.0031 0.45402 0.46064 0.0
H537 H 0.94976 0.47089 0.47604 0.0
H538 H 0.93791 0.4462 0.45477 0.0
H539 H 0.9706 0.47227 0.51187 0.0
H540 H 0.97409 0.49222 0.43695 0.0
H541 H 0.98237 0.49055 0.39762 0.0
H542 H 0.03753 0.48864 0.41487 0.0
H543 H 0.02956 0.49006 0.45435 0.0
C544 C 0.00213 0.54849 0.54295 0.0
C545 C 0.02062 0.55044 0.54484 0.0
C546 C -0.00501 0.53468 0.53059 0.0
C547 C 0.00621 0.52249 0.52002 0.0
C548 C 0.02466 0.52462 0.52151 0.0
C549 C 0.03181 0.53843 0.53384 0.0
C550 C -0.00128 0.50746 0.50749 0.0
C551 C 0.00349 0.50549 0.48523 0.0
C552 C 0.98666 0.49536 0.5172 0.0
C553 C 0.98176 0.49621 0.54091 0.0
C554 C -0.00506 0.49577 0.55723 0.0
C555 C -0.00977 0.49671 0.57953 0.0
C556 C 0.97238 0.49797 0.58572 0.0
C557 C 0.95919 0.49824 0.56962 0.0
C558 C 0.96383 0.49732 0.54729 0.0
C559 C 0.98213 0.43836 0.44711 0.0
C560 C 0.96371 0.43592 0.44514 0.0
C561 C 0.98885 0.45244 0.45934 0.0
C562 C 0.9773 0.46443 0.46969 0.0
C563 C 0.95891 0.46182 0.46814 0.0
C564 C 0.95216 0.44772 0.45593 0.0
C565 C 0.98441 0.47972 0.48209 0.0
C566 C 0.97956 0.48174 0.50432 0.0
C567 C -0.00362 0.49188 0.47235 0.0
C568 C 0.00122 0.49107 0.44862 0.0
C569 C 0.98798 0.4913 0.43237 0.0
C570 C -0.00738 0.49043 0.41005 0.0
C571 C 0.01046 0.48944 0.40375 0.0
C572 C 0.02371 0.48938 0.41977 0.0
C573 C 0.01914 0.49024 0.44212 0.0
H574 H 0.01403 0.48877 0.38646 0.0
H575 H 0.96876 0.4987 0.60299 0.0
H576 H 0.58448 0.0019 0.16192 0.0
H577 H 0.57356 0.01089 0.19823 0.0
H578 H 0.56363 0.06333 0.17343 0.0
H579 H 0.5749 0.05457 0.13725 0.0
H580 H 0.58069 0.06526 0.2105 0.0
H581 H 0.52943 0.03426 0.18558 0.0
H582 H 0.5126 0.00926 0.17025 0.0
H583 H 0.52798 0.97688 0.22503 0.0
H584 H 0.5451 0.00162 0.24054 0.0
H585 H 0.51536 0.07496 0.30845 0.0
H586 H 0.52173 0.06335 0.27163 0.0
H587 H 0.57695 0.05771 0.28861 0.0
H588 H 0.5708 0.06957 0.32527 0.0
H589 H 0.53524 0.03334 0.25465 0.0
H590 H 0.6022 0.07009 0.24509 0.0
H591 H 0.61688 0.0969 0.25907 0.0
H592 H 0.56608 0.12108 0.27029 0.0
H593 H 0.55111 0.09452 0.25609 0.0
C594 C 0.57979 0.0153 0.16412 0.0
C595 C 0.58063 0.02754 0.1467 0.0
C596 C 0.57348 0.0204 0.18488 0.0
C597 C 0.56767 0.03776 0.18854 0.0
C598 C 0.56809 0.04987 0.17102 0.0
C599 C 0.5745 0.04483 0.15032 0.0
C600 C 0.56214 0.04361 0.2109 0.0
C601 C 0.57073 0.05827 0.2201 0.0
C602 C 0.54898 0.03466 0.22338 0.0
C603 C 0.53868 0.01975 0.21412 0.0
C604 C 0.52934 0.02177 0.19427 0.0
C605 C 0.51972 0.00765 0.18556 0.0
C606 C 0.51926 -0.00852 0.19663 0.0
C607 C 0.52837 -0.0106 0.21646 0.0
C608 C 0.53801 0.00348 0.22523 0.0
C609 C 0.52883 0.07107 0.30444 0.0
C610 C 0.54261 0.0734 0.31972 0.0
C611 C 0.53243 0.06439 0.2834 0.0
C612 C 0.54985 0.05994 0.27727 0.0
C613 C 0.56346 0.06136 0.29287 0.0
C614 C 0.5599 0.06811 0.31385 0.0
C615 C 0.55399 0.05477 0.25424 0.0
C616 C 0.54519 0.04027 0.24497 0.0
C617 C 0.56667 0.0641 0.24145 0.0
C618 C 0.57555 0.08024 0.24974 0.0
C619 C 0.59418 0.08116 0.25046 0.0
C620 C 0.60254 0.09631 0.25844 0.0
C621 C 0.59242 0.11066 0.26563 0.0
C622 C 0.5739 0.10993 0.26479 0.0
C623 C 0.56547 0.09482 0.2568 0.0
H624 H 0.59892 0.12237 0.27182 0.0
H625 H 0.51181 0.98056 0.18987 0.0
H626 H 0.36613 0.57378 0.82435 0.0
H627 H 0.37442 0.57583 0.78557 0.0
H628 H 0.41952 0.54207 0.79702 0.0
H629 H 0.41135 0.53997 0.83616 0.0
H630 H 0.42768 0.57095 0.77073 0.0
H631 H 0.38432 0.52506 0.77239 0.0
H632 H 0.3558 0.5111 0.78224 0.0
H633 H 0.32774 0.55117 0.7465 0.0
H634 H 0.35608 0.56553 0.73669 0.0
H635 H 0.44235 0.56728 0.65451 0.0
H636 H 0.43694 0.5573 0.69237 0.0
H637 H 0.38765 0.58626 0.69383 0.0
H638 H 0.39274 0.59598 0.65602 0.0
H639 H 0.38369 0.55516 0.71347 0.0
H640 H 0.42618 0.60303 0.71618 0.0
H641 H 0.45434 0.61798 0.70694 0.0
H642 H 0.48365 0.57489 0.73483 0.0
H643 H 0.45564 0.55958 0.74399 0.0
C644 C 0.37785 0.56681 0.81873 0.0
C645 C 0.38803 0.55663 0.83338 0.0
C646 C 0.38252 0.56793 0.79649 0.0
C647 C 0.39741 0.55887 0.78836 0.0
C648 C 0.40791 0.54907 0.80297 0.0
C649 C 0.40321 0.54788 0.8253 0.0
C650 C 0.4019 0.55983 0.76455 0.0
C651 C 0.41823 0.56715 0.75817 0.0
C652 C 0.38943 0.55512 0.74821 0.0
C653 C 0.37234 0.54644 0.75393 0.0
C654 C 0.37207 0.53097 0.76675 0.0
C655 C 0.35593 0.52297 0.77231 0.0
C656 C 0.33997 0.53025 0.76503 0.0
C657 C 0.34011 0.54554 0.75213 0.0
C658 C 0.35621 0.5536 0.74654 0.0
C659 C 0.43026 0.57136 0.66281 0.0
C660 C 0.41804 0.58254 0.65227 0.0
C661 C 0.42724 0.56571 0.68449 0.0
C662 C 0.41202 0.57125 0.69605 0.0
C663 C 0.39949 0.58184 0.68526 0.0
C664 C 0.40246 0.58743 0.66362 0.0
C665 C 0.4093 0.5667 0.71964 0.0
C666 C 0.39328 0.55868 0.726 0.0
C667 C 0.42201 0.57086 0.73595 0.0
C668 C 0.43884 0.58007 0.73052 0.0
C669 C 0.43863 0.59669 0.72018 0.0
C670 C 0.45456 0.60523 0.71499 0.0
C671 C 0.47077 0.59736 0.72023 0.0
C672 C 0.47109 0.58095 0.73074 0.0
C673 C 0.45519 0.57234 0.73594 0.0
H674 H 0.48309 0.604 0.71619 0.0
H675 H 0.32748 0.52404 0.76936 0.0
H676 H 0.93395 0.38095 0.31018 0.0
H677 H 0.92953 0.39443 0.27421 0.0
H678 H 0.9324 0.44619 0.30348 0.0
H679 H 0.9366 0.43275 0.33985 0.0
H680 H 0.90463 0.44349 0.2761 0.0
H681 H 0.96642 0.43119 0.27147 0.0
H682 H -0.00634 0.41337 0.27465 0.0
H683 H 0.97389 0.37706 0.22639 0.0
H684 H 0.9464 0.39452 0.22314 0.0
H685 H 0.89744 0.47932 0.16789 0.0
H686 H 0.91043 0.47288 0.20391 0.0
H687 H 0.90933 0.41722 0.1892 0.0
H688 H 0.89658 0.4235 0.15318 0.0
H689 H 0.93977 0.42648 0.20999 0.0
H690 H 0.8765 0.43616 0.21944 0.0
H691 H 0.84883 0.45341 0.21664 0.0
H692 H 0.87159 0.49445 0.2562 0.0
H693 H 0.89949 0.47752 0.25899 0.0
C694 C 0.93376 0.39521 0.30904 0.0
C695 C 0.93563 0.40577 0.32794 0.0
C696 C 0.93135 0.4029 0.28839 0.0
C697 C 0.93091 0.42132 0.2861 0.0
C698 C 0.9328 0.43194 0.30488 0.0
C699 C 0.93522 0.42424 0.32563 0.0
C700 C 0.92751 0.42926 0.26418 0.0
C701 C 0.91257 0.44012 0.26172 0.0
C702 C 0.93771 0.42463 0.24538 0.0
C703 C 0.95429 0.41413 0.24716 0.0
C704 C 0.96782 0.41934 0.26164 0.0
C705 C 0.98332 0.40931 0.26344 0.0
C706 C 0.9855 0.39408 0.25075 0.0
C707 C 0.97219 0.38886 0.2362 0.0
C708 C 0.95665 0.39884 0.23435 0.0
C709 C 0.90015 0.46572 0.17222 0.0
C710 C 0.89582 0.45191 0.15773 0.0
C711 C 0.90753 0.46208 0.19282 0.0
C712 C 0.91064 0.44457 0.19931 0.0
C713 C 0.90703 0.43083 0.18452 0.0
C714 C 0.89966 0.43445 0.16396 0.0
C715 C 0.91668 0.44031 0.2219 0.0
C716 C 0.93209 0.43014 0.22446 0.0
C717 C 0.90691 0.44555 0.24081 0.0
C718 C 0.89014 0.45569 0.23919 0.0
C719 C 0.87565 0.44893 0.22739 0.0
C720 C 0.85992 0.45863 0.22583 0.0
C721 C 0.85848 0.47504 0.23617 0.0
C722 C 0.87274 0.48175 0.24815 0.0
C723 C 0.88851 0.47211 0.24974 0.0
H724 H 0.84629 0.48253 0.23495 0.0
H725 H -0.0025 0.38633 0.25217 0.0
H726 H 0.07115 0.89196 0.67568 0.0
H727 H 0.07587 0.9042 0.71242 0.0
H728 H 0.02425 0.88558 0.73297 0.0
H729 H 0.01925 0.87361 0.69614 0.0
H730 H 0.0306 0.91739 0.75006 0.0
H731 H 0.06134 0.86216 0.74535 0.0
H732 H 0.08201 0.84037 0.7293 0.0
H733 H 0.12542 0.87633 0.73811 0.0
H734 H 0.10495 0.89843 0.75395 0.0
H735 H 0.0786 0.90492 0.86391 0.0
H736 H 0.06843 0.89422 0.82821 0.0
H737 H 0.06396 0.94784 0.80494 0.0
H738 H 0.07375 0.95868 0.84079 0.0
H739 H 0.08417 0.89723 0.79005 0.0
H740 H 0.03259 0.95034 0.76479 0.0
H741 H 0.01028 0.96969 0.78232 0.0
H742 H 0.00555 0.93361 0.83665 0.0
H743 H 0.02764 0.91393 0.81932 0.0
C744 C 0.06072 0.8906 0.68793 0.0
C745 C 0.04488 0.88165 0.68302 0.0
C746 C 0.06347 0.89757 0.70895 0.0
C747 C 0.05054 0.89554 0.72554 0.0
C748 C 0.03443 0.88726 0.72044 0.0
C749 C 0.03162 0.88037 0.69938 0.0
C750 C 0.05415 0.90132 0.74845 0.0
C751 C 0.04232 0.91303 0.75882 0.0
C752 C 0.06923 0.89529 0.76006 0.0
C753 C 0.08159 0.882 0.75064 0.0
C754 C 0.07527 0.86546 0.74372 0.0
C755 C 0.08696 0.85306 0.73468 0.0
C756 C 0.10501 0.85698 0.73263 0.0
C757 C 0.11143 0.87332 0.73968 0.0
C758 C 0.0998 0.88578 0.7487 0.0
C759 C 0.07524 0.91447 0.85131 0.0
C760 C 0.07704 0.93266 0.8552 0.0
C761 C 0.06947 0.90832 0.83088 0.0
C762 C 0.06539 0.92021 0.81389 0.0
C763 C 0.06678 0.93841 0.81788 0.0
C764 C 0.07244 0.94458 0.83838 0.0
C765 C 0.06074 0.91352 0.79166 0.0
C766 C 0.07243 0.90164 0.78136 0.0
C767 C 0.04532 0.91908 0.78036 0.0
C768 C 0.03191 0.93076 0.79085 0.0
C769 C 0.02674 0.94651 0.78044 0.0
C770 C 0.01414 0.95754 0.79035 0.0
C771 C 0.00655 0.95291 0.81062 0.0
C772 C 0.01149 0.93721 0.821 0.0
C773 C 0.02408 0.92613 0.81115 0.0
H774 H -0.0032 0.96148 0.81827 0.0
H775 H 0.11404 0.84736 0.72563 0.0
H776 H 0.41521 0.92924 0.84044 0.0
H777 H 0.42615 0.92394 0.8031 0.0
H778 H 0.40246 0.97275 0.78143 0.0
H779 H 0.39112 0.97799 0.81872 0.0
H780 H 0.39434 0.94692 0.75421 0.0
H781 H 0.44793 0.96823 0.786 0.0
H782 H 0.47191 0.97007 0.81337 0.0
H783 H 0.48644 0.91634 0.80001 0.0
H784 H 0.46238 0.91409 0.77277 0.0
H785 H 0.43211 0.93746 0.64687 0.0
H786 H 0.42584 0.9496 0.68349 0.0
H787 H 0.44475 0.90156 0.71343 0.0
H788 H 0.45121 0.8894 0.67704 0.0
H789 H 0.45637 0.93051 0.73545 0.0
H790 H 0.40081 0.90854 0.70687 0.0
H791 H 0.37661 0.9065 0.6798 0.0
H792 H 0.36587 0.9618 0.68747 0.0
H793 H 0.39018 0.96422 0.7144 0.0
C794 C 0.41247 0.93896 0.82781 0.0
C795 C 0.40225 0.95402 0.83258 0.0
C796 C 0.41883 0.93595 0.80646 0.0
C797 C 0.41528 0.94804 0.78949 0.0
C798 C 0.40537 0.96326 0.79428 0.0
C799 C 0.39894 0.96624 0.81562 0.0
C800 C 0.42098 0.94419 0.76651 0.0
C801 C 0.40798 0.94371 0.75003 0.0
C802 C 0.43871 0.93965 0.76112 0.0
C803 C 0.45325 0.94096 0.77745 0.0
C804 C 0.45615 0.95677 0.78901 0.0
C805 C 0.46978 0.95789 0.80448 0.0
C806 C 0.48067 0.94332 0.80845 0.0
C807 C 0.47799 0.92761 0.79692 0.0
C808 C 0.46437 0.92641 0.78144 0.0
C809 C 0.43505 0.92953 0.66125 0.0
C810 C 0.44205 0.9124 0.659 0.0
C811 C 0.43142 0.93647 0.68216 0.0
C812 C 0.43467 0.92641 0.70116 0.0
C813 C 0.44215 0.90955 0.69898 0.0
C814 C 0.44575 0.90259 0.67813 0.0
C815 C 0.42969 0.93305 0.72334 0.0
C816 C 0.44279 0.93401 0.73963 0.0
C817 C 0.41206 0.93805 0.72859 0.0
C818 C 0.39745 0.9366 0.71243 0.0
C819 C 0.39339 0.9203 0.70264 0.0
C820 C 0.37963 0.91906 0.68735 0.0
C821 C 0.36975 0.93402 0.68186 0.0
C822 C 0.37357 0.95023 0.6917 0.0
C823 C 0.38732 0.95154 0.70698 0.0
H824 H 0.3591 0.93304 0.67003 0.0
H825 H 0.49121 0.94422 0.82044 0.0
H826 H 0.54267 0.37501 0.15915 0.0
H827 H 0.54626 0.37749 0.19904 0.0
H828 H 0.58605 0.41774 0.18938 0.0
H829 H 0.58241 0.41539 0.14943 0.0
H830 H 0.59625 0.39433 0.22029 0.0
H831 H 0.54416 0.42853 0.20562 0.0
H832 H 0.5144 0.4344 0.1906 0.0
H833 H 0.49264 0.39259 0.23019 0.0
H834 H 0.52234 0.3863 0.24524 0.0
H835 H 0.59649 0.42653 0.33044 0.0
H836 H 0.59372 0.42364 0.29045 0.0
H837 H 0.55476 0.38253 0.29952 0.0
H838 H 0.55711 0.38574 0.33953 0.0
H839 H 0.54444 0.40638 0.26891 0.0
H840 H 0.59678 0.3724 0.28372 0.0
H841 H 0.6266 0.36684 0.29875 0.0
H842 H 0.64795 0.40874 0.25894 0.0
H843 H 0.61819 0.41471 0.2439 0.0
C844 C 0.55219 0.3844 0.16552 0.0
C845 C 0.56248 0.3948 0.15112 0.0
C846 C 0.5542 0.38582 0.18832 0.0
C847 C 0.56634 0.39789 0.19722 0.0
C848 C 0.57669 0.40825 0.18288 0.0
C849 C 0.57472 0.40679 0.16002 0.0
C850 C 0.56818 0.39968 0.22148 0.0
C851 C 0.58497 0.39721 0.2309 0.0
C852 C 0.55339 0.40306 0.23537 0.0
C853 C 0.53551 0.40684 0.22639 0.0
C854 C 0.53306 0.42049 0.21099 0.0
C855 C 0.51619 0.42392 0.2025 0.0
C856 C 0.50165 0.41385 0.20939 0.0
C857 C 0.50393 0.40036 0.22485 0.0
C858 C 0.52077 0.39687 0.23338 0.0
C859 C 0.58738 0.41683 0.32391 0.0
C860 C 0.57732 0.40607 0.33814 0.0
C861 C 0.58588 0.41513 0.30106 0.0
C862 C 0.57425 0.40266 0.29199 0.0
C863 C 0.56397 0.39209 0.30617 0.0
C864 C 0.56551 0.39376 0.32904 0.0
C865 C 0.57249 0.40098 0.26773 0.0
C866 C 0.55572 0.40349 0.2583 0.0
C867 C 0.58731 0.39769 0.25385 0.0
C868 C 0.60522 0.39411 0.26285 0.0
C869 C 0.60781 0.38052 0.27831 0.0
C870 C 0.6247 0.37728 0.2868 0.0
C871 C 0.63915 0.38746 0.27985 0.0
C872 C 0.63674 0.40088 0.26434 0.0
C873 C 0.61986 0.40419 0.25581 0.0
H874 H 0.65223 0.38493 0.28644 0.0
H875 H 0.4886 0.41652 0.2028 0.0
H876 H 0.09141 0.51348 0.82071 0.0
H877 H 0.08193 0.51977 0.78309 0.0
H878 H 0.04546 0.55914 0.80752 0.0
H879 H 0.0547 0.55281 0.84528 0.0
H880 H 0.03091 0.53952 0.77434 0.0
H881 H 0.08516 0.57141 0.78729 0.0
H882 H 0.11651 0.57466 0.79801 0.0
H883 H 0.13224 0.53898 0.74653 0.0
H884 H 0.10093 0.53533 0.73569 0.0
H885 H 0.01962 0.59199 0.67842 0.0
H886 H 0.02548 0.57994 0.71496 0.0
H887 H 0.06346 0.54363 0.68685 0.0
H888 H 0.05794 0.55587 0.65023 0.0
H889 H 0.07704 0.55983 0.72138 0.0
H890 H 0.02277 0.52948 0.70669 0.0
H891 H -0.00859 0.52652 0.6959 0.0
H892 H 0.97557 0.55932 0.75026 0.0
H893 H 0.00687 0.56268 0.7612 0.0
C894 C 0.08125 0.52337 0.81815 0.0
C895 C 0.07393 0.53276 0.83602 0.0
C896 C 0.07589 0.52698 0.79661 0.0
C897 C 0.06318 0.5401 0.7925 0.0
C898 C 0.05532 0.54899 0.81034 0.0
C899 C 0.06067 0.54539 0.8319 0.0
C900 C 0.05868 0.54511 0.76957 0.0
C901 C 0.04094 0.54411 0.76279 0.0
C902 C 0.07186 0.55072 0.75439 0.0
C903 C 0.09069 0.55295 0.76084 0.0
C904 C 0.09529 0.56414 0.77838 0.0
C905 C 0.11305 0.56608 0.78445 0.0
C906 C 0.12635 0.557 0.773 0.0
C907 C 0.12192 0.54599 0.75541 0.0
C908 C 0.10417 0.54399 0.74928 0.0
C909 C 0.02909 0.58131 0.67994 0.0
C910 C 0.03835 0.57493 0.66138 0.0
C911 C 0.03235 0.57436 0.70086 0.0
C912 C 0.04479 0.56076 0.70364 0.0
C913 C 0.0538 0.55412 0.68509 0.0
C914 C 0.0506 0.56111 0.66416 0.0
C915 C 0.04922 0.55427 0.72604 0.0
C916 C 0.06698 0.55507 0.7328 0.0
C917 C 0.03604 0.54849 0.74115 0.0
C918 C 0.01719 0.54645 0.73466 0.0
C919 C 0.01262 0.53618 0.71625 0.0
C920 C -0.00515 0.53441 0.71012 0.0
C921 C 0.98151 0.54276 0.72236 0.0
C922 C 0.98592 0.55287 0.74078 0.0
C923 C 0.00367 0.55469 0.74697 0.0
H924 H 0.96776 0.54137 0.71759 0.0
H925 H 0.1401 0.55852 0.77773 0.0
H926 H 0.92169 0.0476 0.16822 0.0
H927 H 0.93165 0.05026 0.2064 0.0
H928 H 0.87917 0.06695 0.22617 0.0
H929 H 0.86919 0.06461 0.18811 0.0
H930 H 0.90379 0.08593 0.247 0.0
H931 H 0.89242 0.02438 0.23314 0.0
H932 H 0.89579 -0.00389 0.21344 0.0
H933 H 0.95156 -0.00421 0.22766 0.0
H934 H 0.94854 0.02419 0.24722 0.0
H935 H 0.91601 0.03683 0.35851 0.0
H936 H 0.90901 0.03698 0.3192 0.0
H937 H 0.94328 0.08199 0.30964 0.0
H938 H 0.95028 0.08189 0.34897 0.0
H939 H 0.92843 0.0327 0.2834 0.0
H940 H 0.9264 0.10789 0.26868 0.0
H941 H 0.92069 0.13523 0.28963 0.0
H942 H 0.88701 0.10673 0.33457 0.0
H943 H 0.89233 0.07929 0.31372 0.0
C944 C 0.9123 0.05197 0.18066 0.0
C945 C 0.8946 0.05576 0.17511 0.0
C946 C 0.91801 0.05344 0.20248 0.0
C947 C 0.90609 0.05861 0.21918 0.0
C948 C 0.88859 0.06294 0.21356 0.0
C949 C 0.88289 0.06152 0.19178 0.0
C950 C 0.91155 0.05879 0.24266 0.0
C951 C 0.90928 0.07433 0.25494 0.0
C952 C 0.91846 0.04358 0.25311 0.0
C953 C 0.92029 0.02649 0.24143 0.0
C954 C 0.90542 0.01834 0.23192 0.0
C955 C 0.90726 0.00229 0.22081 0.0
C956 C 0.92389 -0.00581 0.21924 0.0
C957 C 0.93869 0.0021 0.22885 0.0
C958 C 0.93693 0.01817 0.23996 0.0
C959 C 0.92203 0.04678 0.34802 0.0
C960 C 0.93333 0.05964 0.3569 0.0
C961 C 0.91806 0.04682 0.32556 0.0
C962 C 0.9254 0.05966 0.31151 0.0
C963 C 0.93711 0.07222 0.32025 0.0
C964 C 0.941 0.07225 0.34276 0.0
C965 C 0.92069 0.05985 0.28778 0.0
C966 C 0.92312 0.04437 0.27543 0.0
C967 C 0.91359 0.07501 0.27741 0.0
C968 C 0.90993 0.09151 0.28977 0.0
C969 C 0.91772 0.10749 0.28297 0.0
C970 C 0.91456 0.12299 0.29484 0.0
C971 C 0.90355 0.1227 0.31347 0.0
C972 C 0.89559 0.10692 0.32019 0.0
C973 C 0.89868 0.09139 0.30836 0.0
H974 H 0.90117 0.13471 0.32267 0.0
H975 H 0.92529 0.98176 0.21063 0.0
H976 H 0.80707 0.08727 0.06893 0.0
H977 H 0.77621 0.08498 0.05709 0.0
H978 H 0.77658 0.02928 0.0717 0.0
H979 H 0.80752 0.03138 0.08328 0.0
H980 H 0.7573 0.03644 0.03464 0.0
H981 H 0.76118 0.05812 0.10933 0.0
H982 H 0.77124 0.07835 0.13853 0.0
H983 H 0.74694 0.12196 0.10501 0.0
H984 H 0.73694 0.102 0.07545 0.0
H985 H 0.66699 0.01886 0.06176 0.0
H986 H 0.69912 0.02238 0.05853 0.0
H987 H 0.69231 0.07802 0.04609 0.0
H988 H 0.66017 0.07466 0.04962 0.0
H989 H 0.7151 0.07274 0.07838 0.0
H990 H 0.70793 0.05006 0.00575 0.0
H991 H 0.69757 0.02947 0.97714 0.0
H992 H 0.72744 -0.01247 0.00675 0.0
H993 H 0.73779 0.0078 0.03574 0.0
C994 C 0.80069 0.07447 0.06931 0.0
C995 C 0.80969 0.05955 0.07734 0.0
C996 C 0.78303 0.07319 0.06256 0.0
C997 C 0.77401 0.05702 0.06387 0.0
C998 C 0.78327 0.0419 0.07061 0.0
C999 C 0.80095 0.04315 0.07731 0.0
C1000 C 0.7546 0.0561 0.06004 0.0
C1001 C 0.74803 0.04429 0.04425 0.0
C1002 C 0.74255 0.06662 0.07228 0.0
C1003 C 0.7485 0.07861 0.09006 0.0
C1004 C 0.75811 0.07205 0.10811 0.0
C1005 C 0.76378 0.08346 0.12473 0.0
C1006 C 0.75978 0.10144 0.12359 0.0
C1007 C 0.75006 0.10804 0.10585 0.0
C1008 C 0.74438 0.09668 0.08916 0.0
C1009 C 0.67229 0.0318 0.05794 0.0
C1010 C 0.66101 0.04651 0.05614 0.0
C1011 C 0.69068 0.03377 0.05598 0.0
C1012 C 0.69814 0.05046 0.05199 0.0
C1013 C 0.68686 0.06502 0.0492 0.0
C1014 C 0.66847 0.06307 0.0512 0.0
C1015 C 0.71767 0.05301 0.05299 0.0
C1016 C 0.7243 0.06507 0.06842 0.0
C1017 C 0.7297 0.04269 0.04045 0.0
C1018 C 0.72353 0.03044 0.02303 0.0
C1019 C 0.71218 0.03641 0.00627 0.0
C1020 C 0.70633 0.0248 0.98996 0.0
C1021 C 0.71182 0.00719 0.99015 0.0
C1022 C 0.7232 0.00117 0.00663 0.0
C1023 C 0.72908 0.01272 0.02299 0.0
H1024 H 0.70727 -0.00177 0.97751 0.0
H1025 H 0.76418 0.11025 0.13648 0.0
H1026 H 0.44494 0.82098 0.56415 0.0
H1027 H 0.44225 0.78966 0.55472 0.0
H1028 H 0.47463 0.776 0.61062 0.0
H1029 H 0.47765 0.8071 0.61987 0.0
H1030 H 0.48321 0.75611 0.5758 0.0
H1031 H 0.42875 0.77447 0.61279 0.0
H1032 H 0.40168 0.7925 0.6171 0.0
H1033 H 0.38337 0.77512 0.55384 0.0
H1034 H 0.41045 0.75714 0.54906 0.0
H1035 H 0.45944 0.67162 0.61182 0.0
H1036 H 0.46529 0.70281 0.60576 0.0
H1037 H 0.42997 0.70274 0.55003 0.0
H1038 H 0.42371 0.67139 0.55632 0.0
H1039 H 0.42293 0.72976 0.57636 0.0
H1040 H 0.47532 0.70707 0.54276 0.0
H1041 H 0.50209 0.68852 0.53944 0.0
H1042 H 0.52437 0.71358 0.59637 0.0
H1043 H 0.49763 0.73211 0.60023 0.0
C1044 C 0.45165 0.8113 0.57428 0.0
C1045 C 0.4614 0.81653 0.59287 0.0
C1046 C 0.45004 0.79341 0.56891 0.0
C1047 C 0.45806 0.78047 0.58213 0.0
C1048 C 0.46834 0.78574 0.60017 0.0
C1049 C 0.46999 0.80356 0.60549 0.0
C1050 C 0.45517 0.76137 0.57807 0.0
C1051 C 0.47004 0.75032 0.57596 0.0
C1052 C 0.43797 0.75387 0.57756 0.0
C1053 C 0.42171 0.76466 0.58045 0.0
C1054 C 0.41901 0.77461 0.59973 0.0
C1055 C 0.40366 0.7848 0.60227 0.0
C1056 C 0.39084 0.785 0.58572 0.0
C1057 C 0.39332 0.77498 0.56662 0.0
C1058 C 0.40866 0.76479 0.56399 0.0
C1059 C 0.45305 0.67813 0.59809 0.0
C1060 C 0.44108 0.669 0.58458 0.0
C1061 C 0.45651 0.69599 0.59456 0.0
C1062 C 0.44826 0.7051 0.57725 0.0
C1063 C 0.43655 0.69596 0.56343 0.0
C1064 C 0.43301 0.67804 0.56702 0.0
C1065 C 0.45101 0.72441 0.57478 0.0
C1066 C 0.43611 0.73552 0.57567 0.0
C1067 C 0.4682 0.73195 0.5742 0.0
C1068 C 0.48441 0.72094 0.57183 0.0
C1069 C 0.48588 0.70856 0.55465 0.0
C1070 C 0.50106 0.69806 0.55266 0.0
C1071 C 0.51491 0.69986 0.5677 0.0
C1072 C 0.51363 0.71221 0.58473 0.0
C1073 C 0.49848 0.72274 0.5868 0.0
H1074 H 0.52665 0.69171 0.56614 0.0
H1075 H 0.37896 0.79289 0.58771 0.0
H1076 H 0.80914 0.39784 0.10987 0.0
H1077 H 0.77709 0.39348 0.11117 0.0
H1078 H 0.76918 0.4452 0.08316 0.0
H1079 H 0.80136 0.4498 0.08207 0.0
H1080 H 0.74839 0.44006 0.1189 0.0
H1081 H 0.76148 0.40827 0.0527 0.0
H1082 H 0.77711 0.38661 0.0293 0.0
H1083 H 0.75964 0.34458 0.0717 0.0
H1084 H 0.7441 0.36602 0.09554 0.0
H1085 H 0.65533 0.42796 0.1057 0.0
H1086 H 0.68689 0.43339 0.09913 0.0
H1087 H 0.69935 0.38181 0.1249 0.0
H1088 H 0.66778 0.37613 0.13112 0.0
H1089 H 0.71753 0.38795 0.08793 0.0
H1090 H 0.70617 0.41957 0.15527 0.0
H1091 H 0.69085 0.44099 0.17932 0.0
H1092 H 0.70536 0.48308 0.13533 0.0
H1093 H 0.72058 0.46186 0.11085 0.0
C1094 C 0.80063 0.40824 0.10376 0.0
C1095 C 0.80782 0.42419 0.0959 0.0
C1096 C 0.78228 0.40569 0.10442 0.0
C1097 C 0.77074 0.41896 0.0971 0.0
C1098 C 0.77786 0.43478 0.08887 0.0
C1099 C 0.79625 0.43736 0.08818 0.0
C1100 C 0.75124 0.4166 0.09918 0.0
C1101 C 0.74157 0.42884 0.11177 0.0
C1102 C 0.74244 0.40172 0.09036 0.0
C1103 C 0.75174 0.38878 0.07601 0.0
C1104 C 0.76108 0.39442 0.05714 0.0
C1105 C 0.76991 0.38218 0.04377 0.0
C1106 C 0.7694 0.36424 0.04903 0.0
C1107 C 0.76003 0.35849 0.06765 0.0
C1108 C 0.75119 0.37068 0.08108 0.0
C1109 C 0.66478 0.41779 0.11007 0.0
C1110 C 0.65903 0.40161 0.11899 0.0
C1111 C 0.68283 0.42094 0.10635 0.0
C1112 C 0.69551 0.40807 0.11171 0.0
C1113 C 0.6898 0.39192 0.12062 0.0
C1114 C 0.67175 0.38873 0.12424 0.0
C1115 C 0.71471 0.41132 0.10783 0.0
C1116 C 0.72432 0.39924 0.0949 0.0
C1117 C 0.72347 0.42632 0.11641 0.0
C1118 C 0.71435 0.4391 0.13111 0.0
C1119 C 0.70597 0.43337 0.15063 0.0
C1120 C 0.69733 0.44548 0.16436 0.0
C1121 C 0.69709 0.46338 0.15883 0.0
C1122 C 0.70553 0.46921 0.13958 0.0
C1123 C 0.71418 0.45715 0.12578 0.0
H1124 H 0.69039 0.47274 0.16948 0.0
H1125 H 0.77624 0.35478 0.03866 0.0
H1126 H 0.0177 0.66713 0.57619 0.0
H1127 H 0.02402 0.69816 0.5688 0.0
H1128 H 0.08003 0.68657 0.56524 0.0
H1129 H 0.07385 0.65551 0.57292 0.0
H1130 H 0.0736 0.71241 0.59351 0.0
H1131 H 0.05738 0.7003 0.51946 0.0
H1132 H 0.03902 0.68874 0.48924 0.0
H1133 H -0.00365 0.72314 0.50836 0.0
H1134 H 0.01435 0.73473 0.53891 0.0
H1135 H 0.09287 0.80247 0.57822 0.0
H1136 H 0.09074 0.77131 0.56819 0.0
H1137 H 0.03374 0.77384 0.57453 0.0
H1138 H 0.0357 0.80503 0.58426 0.0
H1139 H 0.04394 0.75235 0.54036 0.0
H1140 H 0.05837 0.76051 0.61737 0.0
H1141 H 0.07621 0.77183 0.64824 0.0
H1142 H 0.12195 0.74422 0.62352 0.0
H1143 H 0.10441 0.73293 0.59232 0.0
C1144 C 0.03135 0.6711 0.57342 0.0
C1145 C 0.04529 0.65886 0.57537 0.0
C1146 C 0.03493 0.68885 0.56905 0.0
C1147 C 0.05251 0.6947 0.56638 0.0
C1148 C 0.06638 0.68235 0.56725 0.0
C1149 C 0.06281 0.66459 0.57163 0.0
C1150 C 0.05645 0.71386 0.56524 0.0
C1151 C 0.06745 0.72106 0.58151 0.0
C1152 C 0.0481 0.72523 0.54995 0.0
C1153 C 0.03719 0.71829 0.53159 0.0
C1154 C 0.04403 0.7053 0.51734 0.0
C1155 C 0.03369 0.69876 0.50012 0.0
C1156 C 0.01652 0.70517 0.4969 0.0
C1157 C 0.00965 0.71817 0.51088 0.0
C1158 C 0.01993 0.72475 0.52813 0.0
C1159 C 0.07985 0.79649 0.57711 0.0
C1160 C 0.06447 0.80617 0.58237 0.0
C1161 C 0.07867 0.77868 0.57139 0.0
C1162 C 0.0621 0.7702 0.57098 0.0
C1163 C 0.04666 0.78011 0.5748 0.0
C1164 C 0.04782 0.79793 0.58048 0.0
C1165 C 0.0609 0.75076 0.56872 0.0
C1166 C 0.05036 0.74357 0.55198 0.0
C1167 C 0.06962 0.73933 0.58361 0.0
C1168 C 0.08015 0.74606 0.60239 0.0
C1169 C 0.07227 0.75697 0.61843 0.0
C1170 C 0.08231 0.76336 0.636 0.0
C1171 C 0.10022 0.75879 0.6378 0.0
C1172 C 0.1081 0.74778 0.62207 0.0
C1173 C 0.09811 0.74138 0.60445 0.0
H1174 H 0.10798 0.76375 0.65142 0.0
H1175 H 0.00854 0.7001 0.48356 0.0
H1176 H 0.16433 0.95123 0.94671 0.0
H1177 H 0.19648 0.955 0.95065 0.0
H1178 H 0.20542 0.91538 0.90077 0.0
H1179 H 0.17352 0.91129 0.89708 0.0
H1180 H 0.22839 0.91146 0.93355 0.0
H1181 H 0.20659 0.96018 0.88903 0.0
H1182 H 0.188 0.98636 0.88193 0.0
H1183 H 0.21074 0.01255 0.93778 0.0
H1184 H 0.22932 0.98643 0.94535 0.0
H1185 H 0.31023 0.92889 0.8828 0.0
H1186 H 0.27937 0.9245 0.89353 0.0
H1187 H 0.28359 0.96646 0.94122 0.0
H1188 H 0.31458 0.97124 0.93016 0.0
H1189 H 0.25445 0.97021 0.91743 0.0
H1190 H 0.28013 0.92285 0.95774 0.0
H1191 H 0.29901 0.89673 0.96379 0.0
H1192 H 0.26932 0.86782 0.91563 0.0
H1193 H 0.25041 0.89384 0.90905 0.0
C1194 C 0.17316 0.94322 0.93674 0.0
C1195 C 0.16636 0.93105 0.92147 0.0
C1196 C 0.19152 0.94543 0.93895 0.0
C1197 C 0.20336 0.93562 0.92581 0.0
C1198 C 0.19656 0.92309 0.9111 0.0
C1199 C 0.17828 0.92083 0.90895 0.0
C1200 C 0.22281 0.93874 0.92648 0.0
C1201 C 0.23411 0.9243 0.92997 0.0
C1202 C 0.23028 0.9556 0.92251 0.0
C1203 C 0.21917 0.97129 0.91791 0.0
C1204 C 0.20752 0.97148 0.89988 0.0
C1205 C 0.19701 0.98631 0.89576 0.0
C1206 C 0.19815 0.00109 0.90944 0.0
C1207 C 0.20984 0.00108 0.92723 0.0
C1208 C 0.22037 0.98628 0.93144 0.0
C1209 C 0.3047 0.9371 0.89574 0.0
C1210 C 0.31489 0.95044 0.90561 0.0
C1211 C 0.28705 0.93448 0.90198 0.0
C1212 C 0.2792 0.94497 0.91842 0.0
C1213 C 0.28939 0.95815 0.92856 0.0
C1214 C 0.3071 0.96084 0.92225 0.0
C1215 C 0.26007 0.94281 0.92383 0.0
C1216 C 0.2488 0.95744 0.92149 0.0
C1217 C 0.25264 0.9261 0.92881 0.0
C1218 C 0.2639 0.91035 0.93283 0.0
C1219 C 0.27769 0.91096 0.94834 0.0
C1220 C 0.28839 0.89617 0.95188 0.0
C1221 C 0.28537 0.88064 0.94009 0.0
C1222 C 0.27163 0.87986 0.92476 0.0
C1223 C 0.2609 0.89462 0.92115 0.0
H1224 H 0.29368 0.8692 0.94285 0.0
H1225 H 0.19 0.01255 0.90622 0.0
H1226 H 0.5493 0.31057 0.35717 0.0
H1227 H 0.54327 0.27894 0.35978 0.0
H1228 H 0.58227 0.27408 0.4112 0.0
H1229 H 0.58851 0.30566 0.40857 0.0
H1230 H 0.58576 0.24818 0.38102 0.0
H1231 H 0.53852 0.27321 0.42379 0.0
H1232 H 0.51326 0.29302 0.43142 0.0
H1233 H 0.48423 0.26986 0.37807 0.0
H1234 H 0.50943 0.25007 0.36992 0.0
H1235 H 0.56224 0.16042 0.40974 0.0
H1236 H 0.56692 0.19228 0.41271 0.0
H1237 H 0.52866 0.20112 0.36126 0.0
H1238 H 0.52372 0.16938 0.35837 0.0
H1239 H 0.52496 0.22504 0.39391 0.0
H1240 H 0.57276 0.20134 0.34984 0.0
H1241 H 0.59806 0.18166 0.34186 0.0
H1242 H 0.62604 0.2025 0.39752 0.0
H1243 H 0.60079 0.22215 0.40601 0.0
C1244 C 0.5566 0.30279 0.36904 0.0
C1245 C 0.56936 0.31066 0.3827 0.0
C1246 C 0.55307 0.28472 0.37059 0.0
C1247 C 0.56217 0.27419 0.38587 0.0
C1248 C 0.57506 0.28197 0.39934 0.0
C1249 C 0.57857 0.30004 0.39784 0.0
C1250 C 0.55847 0.255 0.38751 0.0
C1251 C 0.57252 0.24312 0.3842 0.0
C1252 C 0.54113 0.24841 0.39124 0.0
C1253 C 0.52593 0.26027 0.39612 0.0
C1254 C 0.52681 0.27244 0.41357 0.0
C1255 C 0.51249 0.28365 0.41801 0.0
C1256 C 0.49716 0.28273 0.4052 0.0
C1257 C 0.49612 0.27057 0.38796 0.0
C1258 C 0.51041 0.25934 0.38344 0.0
C1259 C 0.55468 0.16915 0.39922 0.0
C1260 C 0.54271 0.16234 0.38369 0.0
C1261 C 0.55743 0.18735 0.40087 0.0
C1262 C 0.54833 0.19905 0.38698 0.0
C1263 C 0.53586 0.19233 0.37211 0.0
C1264 C 0.5331 0.17416 0.37044 0.0
C1265 C 0.55223 0.21824 0.38726 0.0
C1266 C 0.53822 0.23012 0.3909 0.0
C1267 C 0.5696 0.22484 0.38381 0.0
C1268 C 0.58481 0.21307 0.3787 0.0
C1269 C 0.58425 0.20162 0.36048 0.0
C1270 C 0.59859 0.19049 0.35585 0.0
C1271 C 0.61363 0.19079 0.36921 0.0
C1272 C 0.61437 0.20226 0.38721 0.0
C1273 C 0.60005 0.2134 0.39193 0.0
H1274 H 0.62472 0.18216 0.36559 0.0
H1275 H 0.48609 0.29141 0.40867 0.0
H1276 H 0.17121 0.4835 0.9068 0.0
H1277 H 0.20192 0.48905 0.91705 0.0
H1278 H 0.18665 0.53892 0.94569 0.0
H1279 H 0.15583 0.5336 0.93511 0.0
H1280 H 0.21323 0.54311 0.91769 0.0
H1281 H 0.20198 0.50471 0.97815 0.0
H1282 H 0.19131 0.47792 -0.00287 0.0
H1283 H 0.22807 0.44637 0.95984 0.0
H1284 H 0.2388 0.47293 0.9404 0.0
H1285 H 0.3039 0.55915 0.93811 0.0
H1286 H 0.27274 0.55369 0.94741 0.0
H1287 H 0.27611 0.50229 0.91719 0.0
H1288 H 0.30729 0.50746 0.90829 0.0
H1289 H 0.25497 0.50125 0.95301 0.0
H1290 H 0.26161 0.53843 0.88822 0.0
H1291 H 0.27196 0.56478 0.86798 0.0
H1292 H 0.24327 0.59816 0.91292 0.0
H1293 H 0.23293 0.57199 0.93359 0.0
C1294 C 0.17429 0.49552 0.91564 0.0
C1295 C 0.16108 0.50817 0.91997 0.0
C1296 C 0.19188 0.49862 0.92163 0.0
C1297 C 0.1966 0.51436 0.93229 0.0
C1298 C 0.18331 0.52668 0.93751 0.0
C1299 C 0.16569 0.5236 0.93147 0.0
C1300 C 0.21561 0.5187 0.93568 0.0
C1301 C 0.22227 0.53417 0.92595 0.0
C1302 C 0.22749 0.50686 0.94602 0.0
C1303 C 0.22112 0.49083 0.95772 0.0
C1304 C 0.2077 0.49205 0.97388 0.0
C1305 C 0.20166 0.4769 0.98474 0.0
C1306 C 0.20899 0.46045 0.97967 0.0
C1307 C 0.22241 0.45912 0.96375 0.0
C1308 C 0.22849 0.47422 0.95283 0.0
C1309 C 0.2981 0.54656 0.9338 0.0
C1310 C 0.30801 0.53384 0.92216 0.0
C1311 C 0.28027 0.54347 0.93909 0.0
C1312 C 0.27201 0.52771 0.93262 0.0
C1313 C 0.28219 0.51457 0.92229 0.0
C1314 C 0.30002 0.51759 0.91712 0.0
C1315 C 0.2525 0.52544 0.93466 0.0
C1316 C 0.2458 0.51037 0.94529 0.0
C1317 C 0.24053 0.53758 0.92505 0.0
C1318 C 0.24669 0.55329 0.91259 0.0
C1319 C 0.25762 0.5514 0.89387 0.0
C1320 C 0.26347 0.5663 0.88231 0.0
C1321 C 0.25832 0.58314 0.8892 0.0
C1322 C 0.24728 0.58511 0.90763 0.0
C1323 C 0.24142 0.57026 0.91927 0.0
H1324 H 0.26286 0.59465 0.88023 0.0
H1325 H 0.20429 0.44874 0.9881 0.0
H1326 H 0.90799 0.16199 0.40726 0.0
H1327 H 0.91112 0.19405 0.40921 0.0
H1328 H 0.95741 0.19138 0.36713 0.0
H1329 H 0.9545 0.15929 0.36524 0.0
H1330 H 0.96295 0.21228 0.40278 0.0
H1331 H 0.91812 0.2056 0.34718 0.0
H1332 H 0.88979 0.19499 0.33198 0.0
H1333 H 0.86113 0.22245 0.38284 0.0
H1334 H 0.88933 0.23303 0.39854 0.0
H1335 H 0.97151 0.30099 0.36827 0.0
H1336 H 0.96779 0.26915 0.37162 0.0
H1337 H 0.92156 0.27698 0.41277 0.0
H1338 H 0.92507 0.30899 0.4093 0.0
H1339 H 0.91517 0.25352 0.38042 0.0
H1340 H 0.9598 0.26165 0.43488 0.0
H1341 H 0.98807 0.27234 0.45016 0.0
H1342 H 0.01703 0.24229 0.40193 0.0
H1343 H 0.98892 0.2316 0.38615 0.0
C1344 C 0.91879 0.16822 0.39831 0.0
C1345 C 0.931 0.15808 0.38608 0.0
C1346 C 0.92053 0.18655 0.39941 0.0
C1347 C 0.93445 0.1951 0.38823 0.0
C1348 C 0.9466 0.18503 0.37592 0.0
C1349 C 0.94486 0.1667 0.37478 0.0
C1350 C 0.93656 0.21452 0.38963 0.0
C1351 C 0.95259 0.22132 0.39766 0.0
C1352 C 0.92281 0.22627 0.38361 0.0
C1353 C 0.90584 0.21994 0.37417 0.0
C1354 C 0.90579 0.20925 0.35524 0.0
C1355 C 0.88975 0.20326 0.34651 0.0
C1356 C 0.87367 0.208 0.35647 0.0
C1357 C 0.8736 0.21877 0.37516 0.0
C1358 C 0.8896 0.22477 0.38397 0.0
C1359 C 0.96066 0.29598 0.37826 0.0
C1360 C 0.94856 0.30754 0.38849 0.0
C1361 C 0.95859 0.27775 0.38022 0.0
C1362 C 0.94446 0.27068 0.39256 0.0
C1363 C 0.93256 0.28217 0.40318 0.0
C1364 C 0.93463 0.30045 0.40125 0.0
C1365 C 0.94166 0.25131 0.39333 0.0
C1366 C 0.9255 0.24451 0.38571 0.0
C1367 C 0.95528 0.23956 0.39976 0.0
C1368 C 0.97223 0.24594 0.40922 0.0
C1369 C 0.97219 0.25743 0.42741 0.0
C1370 C 0.98819 0.26347 0.43619 0.0
C1371 C 0.00433 0.25803 0.42699 0.0
C1372 C 0.00451 0.2465 0.40903 0.0
C1373 C 0.98855 0.24043 0.40018 0.0
H1374 H 0.0167 0.26272 0.43381 0.0
H1375 H 0.86127 0.20336 0.34969 0.0
loop_
_geom_bond_atom_site_label_1
_geom_bond_atom_site_label_2
_geom_bond_distance
_geom_bond_site_symmetry_2
_ccdc_geom_bond_type
O0 Cd1 2.300 . S
O0 C7 1.275 . S
Cd1 O0 2.300 . S
Cd1 O9 2.381 . S
Cd1 O10 2.378 . S
O2 Cd3 2.385 . S
O2 C7 1.255 . S
Cd3 O2 2.385 . S
Cd3 O4 2.317 . S
O4 Cd3 2.317 . S
O4 C5 1.232 . S
C5 O4 1.232 . S
C5 O6 1.218 . S
O6 C5 1.218 . S
C7 O0 1.275 . S
C7 O2 1.255 . S
C8 O9 1.258 . S
C8 O10 1.256 . S
O9 Cd1 2.381 . S
O9 C8 1.258 . S
O10 Cd1 2.378 . S
O10 C8 1.256 . S
O11 Cd12 2.300 . S
O11 C18 1.275 . S
Cd12 O11 2.300 . S
Cd12 O20 2.381 . S
Cd12 O21 2.378 . S
O13 Cd14 2.385 . S
O13 C18 1.255 . S
Cd14 O13 2.385 . S
Cd14 O15 2.317 . S
O15 Cd14 2.317 . S
O15 C16 1.232 . S
C16 O15 1.232 . S
C16 O17 1.218 . S
O17 C16 1.218 . S
C18 O11 1.275 . S
C18 O13 1.255 . S
C19 O20 1.258 . S
C19 O21 1.256 . S
O20 Cd12 2.381 . S
O20 C19 1.258 . S
O21 Cd12 2.378 . S
O21 C19 1.256 . S
O22 Cd23 2.300 . S
O22 C29 1.275 . S
Cd23 O22 2.300 . S
Cd23 O31 2.381 . S
Cd23 O32 2.378 . S
O24 Cd25 2.385 . S
O24 C29 1.255 . S
Cd25 O24 2.385 . S
Cd25 O26 2.317 . S
O26 Cd25 2.317 . S
O26 C27 1.232 . S
C27 O26 1.232 . S
C27 O28 1.218 . S
O28 C27 1.218 . S
C29 O22 1.275 . S
C29 O24 1.255 . S
C30 O31 1.258 . S
C30 O32 1.256 . S
O31 Cd23 2.381 . S
O31 C30 1.258 . S
O32 Cd23 2.378 . S
O32 C30 1.256 . S
O33 Cd34 2.300 . S
O33 C40 1.275 . S
Cd34 O33 2.300 . S
Cd34 O42 2.381 . S
Cd34 O43 2.378 . S
O35 Cd36 2.385 . S
O35 C40 1.255 . S
Cd36 O35 2.385 . S
Cd36 O37 2.317 . S
O37 Cd36 2.317 . S
O37 C38 1.232 . S
C38 O37 1.232 . S
C38 O39 1.218 . S
O39 C38 1.218 . S
C40 O33 1.275 . S
C40 O35 1.255 . S
C41 O42 1.258 . S
C41 O43 1.256 . S
O42 Cd34 2.381 . S
O42 C41 1.258 . S
O43 Cd34 2.378 . S
O43 C41 1.256 . S
O44 Cd45 2.300 . S
O44 C51 1.275 . S
Cd45 O44 2.300 . S
Cd45 O53 2.381 . S
Cd45 O54 2.378 . S
O46 Cd47 2.385 . S
O46 C51 1.255 . S
Cd47 O46 2.385 . S
Cd47 O48 2.317 . S
O48 Cd47 2.317 . S
O48 C49 1.232 . S
C49 O48 1.232 . S
C49 O50 1.218 . S
O50 C49 1.218 . S
C51 O44 1.275 . S
C51 O46 1.255 . S
C52 O53 1.258 . S
C52 O54 1.256 . S
O53 Cd45 2.381 . S
O53 C52 1.258 . S
O54 Cd45 2.378 . S
O54 C52 1.256 . S
O55 Cd56 2.300 . S
O55 C62 1.275 . S
Cd56 O55 2.300 . S
Cd56 O64 2.381 . S
Cd56 O65 2.378 . S
O57 Cd58 2.385 . S
O57 C62 1.255 . S
Cd58 O57 2.385 . S
Cd58 O59 2.317 . S
O59 Cd58 2.317 . S
O59 C60 1.232 . S
C60 O59 1.232 . S
C60 O61 1.218 . S
O61 C60 1.218 . S
C62 O55 1.275 . S
C62 O57 1.255 . S
C63 O64 1.258 . S
C63 O65 1.256 . S
O64 Cd56 2.381 . S
O64 C63 1.258 . S
O65 Cd56 2.378 . S
O65 C63 1.256 . S
O66 Cd67 2.300 . S
O66 C73 1.275 . S
Cd67 O66 2.300 . S
Cd67 O75 2.381 . S
Cd67 O76 2.378 . S
O68 Cd69 2.385 . S
O68 C73 1.255 . S
Cd69 O68 2.385 . S
Cd69 O70 2.317 . S
O70 Cd69 2.317 . S
O70 C71 1.232 . S
C71 O70 1.232 . S
C71 O72 1.218 . S
O72 C71 1.218 . S
C73 O66 1.275 . S
C73 O68 1.255 . S
C74 O75 1.258 . S
C74 O76 1.256 . S
O75 Cd67 2.381 . S
O75 C74 1.258 . S
O76 Cd67 2.378 . S
O76 C74 1.256 . S
O77 Cd78 2.300 . S
O77 C84 1.275 . S
Cd78 O77 2.300 . S
Cd78 O86 2.381 . S
Cd78 O87 2.378 . S
O79 Cd80 2.385 . S
O79 C84 1.255 . S
Cd80 O79 2.385 . S
Cd80 O81 2.317 . S
O81 Cd80 2.317 . S
O81 C82 1.232 . S
C82 O81 1.232 . S
C82 O83 1.218 . S
O83 C82 1.218 . S
C84 O77 1.275 . S
C84 O79 1.255 . S
C85 O86 1.258 . S
C85 O87 1.256 . S
O86 Cd78 2.381 . S
O86 C85 1.258 . S
O87 Cd78 2.378 . S
O87 C85 1.256 . S
O88 Cd89 2.300 . S
O88 C95 1.275 . S
Cd89 O88 2.300 . S
Cd89 O97 2.381 . S
Cd89 O98 2.378 . S
O90 Cd91 2.385 . S
O90 C95 1.255 . S
Cd91 O90 2.385 . S
Cd91 O92 2.317 . S
O92 Cd91 2.317 . S
O92 C93 1.232 . S
C93 O92 1.232 . S
C93 O94 1.218 . S
O94 C93 1.218 . S
C95 O88 1.275 . S
C95 O90 1.255 . S
C96 O97 1.258 . S
C96 O98 1.256 . S
O97 Cd89 2.381 . S
O97 C96 1.258 . S
O98 Cd89 2.378 . S
O98 C96 1.256 . S
O99 Cd100 2.300 . S
O99 C106 1.275 . S
Cd100 O99 2.300 . S
Cd100 O108 2.381 . S
Cd100 O109 2.378 . S
O101 Cd102 2.385 . S
O101 C106 1.255 . S
Cd102 O101 2.385 . S
Cd102 O103 2.317 . S
O103 Cd102 2.317 . S
O103 C104 1.232 . S
C104 O103 1.232 . S
C104 O105 1.218 . S
O105 C104 1.218 . S
C106 O99 1.275 . S
C106 O101 1.255 . S
C107 O108 1.258 . S
C107 O109 1.256 . S
O108 Cd100 2.381 . S
O108 C107 1.258 . S
O109 Cd100 2.378 . S
O109 C107 1.256 . S
O110 Cd111 2.300 . S
O110 C117 1.275 . S
Cd111 O110 2.300 . S
Cd111 O119 2.381 . S
Cd111 O120 2.378 . S
O112 Cd113 2.385 . S
O112 C117 1.255 . S
Cd113 O112 2.385 . S
Cd113 O114 2.317 . S
O114 Cd113 2.317 . S
O114 C115 1.232 . S
C115 O114 1.232 . S
C115 O116 1.218 . S
O116 C115 1.218 . S
C117 O110 1.275 . S
C117 O112 1.255 . S
C118 O119 1.258 . S
C118 O120 1.256 . S
O119 Cd111 2.381 . S
O119 C118 1.258 . S
O120 Cd111 2.378 . S
O120 C118 1.256 . S
O121 Cd122 2.300 . S
O121 C128 1.275 . S
Cd122 O121 2.300 . S
Cd122 O130 2.381 . S
Cd122 O131 2.378 . S
O123 Cd124 2.385 . S
O123 C128 1.255 . S
Cd124 O123 2.385 . S
Cd124 O125 2.317 . S
O125 Cd124 2.317 . S
O125 C126 1.232 . S
C126 O125 1.232 . S
C126 O127 1.218 . S
O127 C126 1.218 . S
C128 O121 1.275 . S
C128 O123 1.255 . S
C129 O130 1.258 . S
C129 O131 1.256 . S
O130 Cd122 2.381 . S
O130 C129 1.258 . S
O131 Cd122 2.378 . S
O131 C129 1.256 . S
O132 Cd133 2.300 . S
O132 C139 1.275 . S
Cd133 O132 2.300 . S
Cd133 O141 2.381 . S
Cd133 O142 2.378 . S
O134 Cd135 2.385 . S
O134 C139 1.255 . S
Cd135 O134 2.385 . S
Cd135 O136 2.317 . S
O136 Cd135 2.317 . S
O136 C137 1.232 . S
C137 O136 1.232 . S
C137 O138 1.218 . S
O138 C137 1.218 . S
C139 O132 1.275 . S
C139 O134 1.255 . S
C140 O141 1.258 . S
C140 O142 1.256 . S
O141 Cd133 2.381 . S
O141 C140 1.258 . S
O142 Cd133 2.378 . S
O142 C140 1.256 . S
O143 Cd144 2.300 . S
O143 C150 1.275 . S
Cd144 O143 2.300 . S
Cd144 O152 2.381 . S
Cd144 O153 2.378 . S
O145 Cd146 2.385 . S
O145 C150 1.255 . S
Cd146 O145 2.385 . S
Cd146 O147 2.317 . S
O147 Cd146 2.317 . S
O147 C148 1.232 . S
C148 O147 1.232 . S
C148 O149 1.218 . S
O149 C148 1.218 . S
C150 O143 1.275 . S
C150 O145 1.255 . S
C151 O152 1.258 . S
C151 O153 1.256 . S
O152 Cd144 2.381 . S
O152 C151 1.258 . S
O153 Cd144 2.378 . S
O153 C151 1.256 . S
O154 Cd155 2.300 . S
O154 C161 1.275 . S
Cd155 O154 2.300 . S
Cd155 O163 2.381 . S
Cd155 O164 2.378 . S
O156 Cd157 2.385 . S
O156 C161 1.255 . S
Cd157 O156 2.385 . S
Cd157 O158 2.317 . S
O158 Cd157 2.317 . S
O158 C159 1.232 . S
C159 O158 1.232 . S
C159 O160 1.218 . S
O160 C159 1.218 . S
C161 O154 1.275 . S
C161 O156 1.255 . S
C162 O163 1.258 . S
C162 O164 1.256 . S
O163 Cd155 2.381 . S
O163 C162 1.258 . S
O164 Cd155 2.378 . S
O164 C162 1.256 . S
O165 Cd166 2.300 . S
O165 C172 1.275 . S
Cd166 O165 2.300 . S
Cd166 O174 2.381 . S
Cd166 O175 2.378 . S
O167 Cd168 2.385 . S
O167 C172 1.255 . S
Cd168 O167 2.385 . S
Cd168 O169 2.317 . S
O169 Cd168 2.317 . S
O169 C170 1.232 . S
C170 O169 1.232 . S
C170 O171 1.218 . S
O171 C170 1.218 . S
C172 O165 1.275 . S
C172 O167 1.255 . S
C173 O174 1.258 . S
C173 O175 1.256 . S
O174 Cd166 2.381 . S
O174 C173 1.258 . S
O175 Cd166 2.378 . S
O175 C173 1.256 . S
H176 C194 0.951 . S
H177 C196 0.951 1_554 S
H178 C198 0.950 . S
H179 C199 0.950 . S
H180 C201 0.950 . S
H181 C204 0.950 1_556 S
H182 C205 0.950 . S
H183 C207 0.950 . S
H184 C208 0.950 . S
H185 C209 0.951 . S
H186 C211 0.951 1_556 S
H187 C213 0.950 . S
H188 C214 0.950 . S
H189 C216 0.950 . S
H190 C219 0.950 1_554 S
H191 C220 0.950 . S
H192 C222 0.950 . S
H193 C223 0.950 . S
C194 H176 0.951 . S
C194 C195 1.366 . S
C194 C196 1.388 . S
C195 C194 1.366 . S
C195 C199 1.385 . S
C196 H177 0.951 1_556 S
C196 C194 1.388 . S
C196 C197 1.366 . S
C197 C196 1.366 . S
C197 C198 1.414 . S
C197 C200 1.499 . S
C198 H178 0.950 . S
C198 C197 1.414 . S
C198 C199 1.374 . S
C199 H179 0.950 . S
C199 C195 1.385 . S
C199 C198 1.374 . S
C200 C197 1.499 . S
C200 C201 1.373 . S
C200 C202 1.389 1_556 S
C201 H180 0.950 . S
C201 C200 1.373 . S
C201 C217 1.377 1_565 S
C202 C200 1.389 1_554 S
C202 C203 1.524 . S
C202 C216 1.377 1_565 S
C203 C202 1.524 . S
C203 C204 1.397 1_565 S
C203 C208 1.363 . S
C204 H181 0.950 1_554 S
C204 C203 1.397 1_545 S
C204 C205 1.334 . S
C205 H182 0.950 . S
C205 C204 1.334 . S
C205 C206 1.271 1_545 S
C206 C205 1.271 1_565 S
C206 C207 1.547 . S
C206 H225 0.916 . S
C207 H183 0.950 . S
C207 C206 1.547 . S
C207 C208 1.415 . S
C208 H184 0.950 . S
C208 C203 1.363 . S
C208 C207 1.415 . S
C209 H185 0.951 . S
C209 C210 1.366 . S
C209 C211 1.388 . S
C210 C209 1.366 . S
C210 C214 1.385 . S
C211 H186 0.951 1_554 S
C211 C209 1.388 . S
C211 C212 1.366 . S
C212 C211 1.366 . S
C212 C213 1.414 . S
C212 C215 1.499 . S
C213 H187 0.950 . S
C213 C212 1.414 . S
C213 C214 1.374 . S
C214 H188 0.950 . S
C214 C210 1.385 . S
C214 C213 1.374 . S
C215 C212 1.499 . S
C215 C216 1.373 . S
C215 C217 1.389 1_554 S
C216 H189 0.950 . S
C216 C202 1.377 1_545 S
C216 C215 1.373 . S
C217 C201 1.377 1_545 S
C217 C215 1.389 1_556 S
C217 C218 1.524 . S
C218 C217 1.524 . S
C218 C219 1.397 1_545 S
C218 C223 1.363 . S
C219 H190 0.950 1_556 S
C219 C218 1.397 1_565 S
C219 C220 1.334 . S
C220 H191 0.950 . S
C220 C219 1.334 . S
C220 C221 1.272 1_565 S
C221 C220 1.272 1_545 S
C221 C222 1.547 . S
C221 H224 1.002 . S
C222 H192 0.950 . S
C222 C221 1.547 . S
C222 C223 1.415 . S
C223 H193 0.950 . S
C223 C218 1.363 . S
C223 C222 1.415 . S
H224 C221 1.002 . S
H225 C206 0.916 . S
H226 C244 0.951 . S
H227 C246 0.951 . S
H228 C248 0.950 . S
H229 C249 0.950 . S
H230 C251 0.950 . S
H231 C254 0.950 . S
H232 C255 0.950 . S
H233 C257 0.950 . S
H234 C258 0.950 . S
H235 C259 0.951 . S
H236 C261 0.951 . S
H237 C263 0.950 . S
H238 C264 0.950 . S
H239 C266 0.950 . S
H240 C269 0.950 . S
H241 C270 0.950 . S
H242 C272 0.950 . S
H243 C273 0.950 . S
C244 H226 0.951 . S
C244 C245 1.366 . S
C244 C246 1.388 . S
C245 C244 1.366 . S
C245 C249 1.385 . S
C246 H227 0.951 . S
C246 C244 1.388 . S
C246 C247 1.366 . S
C247 C246 1.366 . S
C247 C248 1.414 . S
C247 C250 1.499 . S
C248 H228 0.950 . S
C248 C247 1.414 . S
C248 C249 1.374 . S
C249 H229 0.950 . S
C249 C245 1.385 . S
C249 C248 1.374 . S
C250 C247 1.499 . S
C250 C251 1.373 . S
C250 C252 1.389 . S
C251 H230 0.950 . S
C251 C250 1.373 . S
C251 C267 1.377 . S
C252 C250 1.389 . S
C252 C253 1.524 . S
C252 C266 1.377 . S
C253 C252 1.524 . S
C253 C254 1.397 . S
C253 C258 1.363 . S
C254 H231 0.950 . S
C254 C253 1.397 . S
C254 C255 1.334 . S
C255 H232 0.950 . S
C255 C254 1.334 . S
C255 C256 1.287 . S
C256 C255 1.287 . S
C256 C257 1.524 . S
C256 H275 0.913 . S
C257 H233 0.950 . S
C257 C256 1.524 . S
C257 C258 1.415 . S
C258 H234 0.950 . S
C258 C253 1.363 . S
C258 C257 1.415 . S
C259 H235 0.951 . S
C259 C260 1.366 . S
C259 C261 1.388 . S
C260 C259 1.366 . S
C260 C264 1.385 . S
C261 H236 0.951 . S
C261 C259 1.388 . S
C261 C262 1.366 . S
C262 C261 1.366 . S
C262 C263 1.414 . S
C262 C265 1.499 . S
C263 H237 0.950 . S
C263 C262 1.414 . S
C263 C264 1.374 . S
C264 H238 0.950 . S
C264 C260 1.385 . S
C264 C263 1.374 . S
C265 C262 1.499 . S
C265 C266 1.373 . S
C265 C267 1.389 . S
C266 H239 0.950 . S
C266 C252 1.377 . S
C266 C265 1.373 . S
C267 C251 1.377 . S
C267 C265 1.389 . S
C267 C268 1.524 . S
C268 C267 1.524 . S
C268 C269 1.397 . S
C268 C273 1.363 . S
C269 H240 0.950 . S
C269 C268 1.397 . S
C269 C270 1.334 . S
C270 H241 0.950 . S
C270 C269 1.334 . S
C270 C271 1.287 . S
C271 C270 1.287 . S
C271 C272 1.524 . S
C271 H274 0.999 . S
C272 H242 0.950 . S
C272 C271 1.524 . S
C272 C273 1.415 . S
C273 H243 0.950 . S
C273 C268 1.363 . S
C273 C272 1.415 . S
H274 C271 0.999 . S
H275 C256 0.913 . S
H276 C294 0.951 . S
H277 C296 0.951 . S
H278 C298 0.950 . S
H279 C299 0.950 . S
H280 C301 0.954 . S
H281 C304 0.950 . S
H282 C305 0.950 . S
H283 C307 0.950 . S
H284 C308 0.950 . S
H285 C309 0.951 . S
H286 C311 0.951 . S
H287 C313 0.950 . S
H288 C314 0.950 . S
H289 C316 0.954 . S
H290 C319 0.950 . S
H291 C320 0.950 . S
H292 C322 0.950 . S
H293 C323 0.950 . S
C294 H276 0.951 . S
C294 C295 1.366 . S
C294 C296 1.388 . S
C295 C294 1.366 . S
C295 C299 1.385 . S
C296 H277 0.951 . S
C296 C294 1.388 . S
C296 C297 1.366 . S
C297 C296 1.366 . S
C297 C298 1.414 . S
C297 C300 1.499 . S
C298 H278 0.950 . S
C298 C297 1.414 . S
C298 C299 1.374 . S
C299 H279 0.950 . S
C299 C295 1.385 . S
C299 C298 1.374 . S
C300 C297 1.499 . S
C300 C301 1.413 . S
C300 C302 1.389 1_556 S
C301 H280 0.954 . S
C301 C300 1.413 . S
C301 C317 1.336 1_455 S
C302 C300 1.389 1_554 S
C302 C303 1.524 . S
C302 C316 1.336 1_455 S
C303 C302 1.524 . S
C303 C304 1.397 . S
C303 C308 1.363 . S
C304 H281 0.950 . S
C304 C303 1.397 . S
C304 C305 1.334 . S
C305 H282 0.950 . S
C305 C304 1.334 . S
C305 C306 1.287 . S
C306 C305 1.287 . S
C306 C307 1.524 . S
C306 H325 0.913 . S
C307 H283 0.950 . S
C307 C306 1.524 . S
C307 C308 1.415 . S
C308 H284 0.950 . S
C308 C303 1.363 . S
C308 C307 1.415 . S
C309 H285 0.951 . S
C309 C310 1.366 . S
C309 C311 1.388 . S
C310 C309 1.366 . S
C310 C314 1.385 . S
C311 H286 0.951 . S
C311 C309 1.388 . S
C311 C312 1.366 . S
C312 C311 1.366 . S
C312 C313 1.414 . S
C312 C315 1.499 . S
C313 H287 0.950 . S
C313 C312 1.414 . S
C313 C314 1.374 . S
C314 H288 0.950 . S
C314 C310 1.385 . S
C314 C313 1.374 . S
C315 C312 1.499 . S
C315 C316 1.413 . S
C315 C317 1.389 1_554 S
C316 H289 0.954 . S
C316 C302 1.336 1_655 S
C316 C315 1.413 . S
C317 C301 1.336 1_655 S
C317 C315 1.389 1_556 S
C317 C318 1.524 . S
C318 C317 1.524 . S
C318 C319 1.397 . S
C318 C323 1.363 . S
C319 H290 0.950 . S
C319 C318 1.397 . S
C319 C320 1.334 . S
C320 H291 0.950 . S
C320 C319 1.334 . S
C320 C321 1.287 . S
C321 C320 1.287 . S
C321 C322 1.524 . S
C321 H324 0.999 . S
C322 H292 0.950 . S
C322 C321 1.524 . S
C322 C323 1.415 . S
C323 H293 0.950 . S
C323 C318 1.363 . S
C323 C322 1.415 . S
H324 C321 0.999 . S
H325 C306 0.913 . S
H326 C344 0.951 . S
H327 C346 0.951 . S
H328 C348 0.950 . S
H329 C349 0.950 . S
H330 C351 0.950 . S
H331 C354 0.950 . S
H332 C355 0.950 . S
H333 C357 0.955 . S
H334 C358 0.950 . S
H335 C359 0.951 . S
H336 C361 0.951 . S
H337 C363 0.950 . S
H338 C364 0.950 . S
H339 C366 0.950 . S
H340 C369 0.950 . S
H341 C370 0.950 . S
H342 C372 0.955 . S
H343 C373 0.950 . S
C344 H326 0.951 . S
C344 C345 1.366 . S
C344 C346 1.388 . S
C345 C344 1.366 . S
C345 C349 1.385 . S
C346 H327 0.951 . S
C346 C344 1.388 . S
C346 C347 1.366 . S
C347 C346 1.366 . S
C347 C348 1.414 . S
C347 C350 1.499 . S
C348 H328 0.950 . S
C348 C347 1.414 . S
C348 C349 1.374 . S
C349 H329 0.950 . S
C349 C345 1.385 . S
C349 C348 1.374 . S
C350 C347 1.499 . S
C350 C351 1.373 1_455 S
C350 C352 1.389 . S
C351 H330 0.950 . S
C351 C350 1.373 1_655 S
C351 C367 1.377 1_565 S
C352 C350 1.389 . S
C352 C353 1.526 . S
C352 C366 1.377 1_565 S
C353 C352 1.526 . S
C353 C354 1.389 1_565 S
C353 C358 1.367 . S
C354 H331 0.950 . S
C354 C353 1.389 1_545 S
C354 C355 1.334 . S
C355 H332 0.950 . S
C355 C354 1.334 . S
C355 C356 1.287 . S
C356 C355 1.287 . S
C356 C357 1.516 1_545 S
C356 H375 0.913 . S
C357 H333 0.955 . S
C357 C356 1.516 1_565 S
C357 C358 1.419 . S
C358 H334 0.950 . S
C358 C353 1.367 . S
C358 C357 1.419 . S
C359 H335 0.951 . S
C359 C360 1.366 . S
C359 C361 1.388 . S
C360 C359 1.366 . S
C360 C364 1.385 . S
C361 H336 0.951 . S
C361 C359 1.388 . S
C361 C362 1.366 . S
C362 C361 1.366 . S
C362 C363 1.414 . S
C362 C365 1.499 . S
C363 H337 0.950 . S
C363 C362 1.414 . S
C363 C364 1.374 . S
C364 H338 0.950 . S
C364 C360 1.385 . S
C364 C363 1.374 . S
C365 C362 1.499 . S
C365 C366 1.373 1_655 S
C365 C367 1.389 . S
C366 H339 0.950 . S
C366 C352 1.377 1_545 S
C366 C365 1.373 1_455 S
C367 C351 1.377 1_545 S
C367 C365 1.389 . S
C367 C368 1.526 . S
C368 C367 1.526 . S
C368 C369 1.389 1_545 S
C368 C373 1.367 . S
C369 H340 0.950 . S
C369 C368 1.389 1_565 S
C369 C370 1.334 . S
C370 H341 0.950 . S
C370 C369 1.334 . S
C370 C371 1.287 . S
C371 C370 1.287 . S
C371 C372 1.516 1_565 S
C371 H374 0.999 . S
C372 H342 0.955 . S
C372 C371 1.516 1_545 S
C372 C373 1.418 . S
C373 H343 0.950 . S
C373 C368 1.367 . S
C373 C372 1.418 . S
H374 C371 0.999 . S
H375 C356 0.913 . S
H376 C394 0.951 . S
H377 C396 0.951 . S
H378 C398 0.950 . S
H379 C399 0.950 . S
H380 C401 0.950 . S
H381 C404 0.950 . S
H382 C405 0.950 . S
H383 C407 0.950 . S
H384 C408 0.943 1_545 S
H385 C409 0.951 . S
H386 C411 0.951 . S
H387 C413 0.950 . S
H388 C414 0.950 . S
H389 C416 0.950 . S
H390 C419 0.950 . S
H391 C420 0.950 . S
H392 C422 0.950 . S
H393 C423 0.943 1_565 S
C394 H376 0.951 . S
C394 C395 1.366 . S
C394 C396 1.388 . S
C395 C394 1.366 . S
C395 C399 1.385 . S
C396 H377 0.951 . S
C396 C394 1.388 . S
C396 C397 1.366 . S
C397 C396 1.366 . S
C397 C398 1.414 . S
C397 C400 1.499 . S
C398 H378 0.950 . S
C398 C397 1.414 . S
C398 C399 1.374 . S
C399 H379 0.950 . S
C399 C395 1.385 . S
C399 C398 1.374 . S
C400 C397 1.499 . S
C400 C401 1.357 1_455 S
C400 C402 1.389 1_556 S
C401 H380 0.950 . S
C401 C400 1.357 1_655 S
C401 C417 1.392 1_565 S
C402 C400 1.389 1_554 S
C402 C403 1.524 . S
C402 C416 1.392 1_565 S
C403 C402 1.524 . S
C403 C404 1.397 . S
C403 C408 1.363 . S
C404 H381 0.950 . S
C404 C403 1.397 . S
C404 C405 1.334 . S
C405 H382 0.950 . S
C405 C404 1.334 . S
C405 C406 1.287 . S
C406 C405 1.287 . S
C406 C407 1.524 . S
C406 H425 0.913 . S
C407 H383 0.950 . S
C407 C406 1.524 . S
C407 C408 1.415 . S
C408 H384 0.943 1_565 S
C408 C403 1.363 . S
C408 C407 1.415 . S
C409 H385 0.951 . S
C409 C410 1.366 . S
C409 C411 1.388 . S
C410 C409 1.366 . S
C410 C414 1.385 . S
C411 H386 0.951 . S
C411 C409 1.388 . S
C411 C412 1.366 . S
C412 C411 1.366 . S
C412 C413 1.414 . S
C412 C415 1.499 . S
C413 H387 0.950 . S
C413 C412 1.414 . S
C413 C414 1.374 . S
C414 H388 0.950 . S
C414 C410 1.385 . S
C414 C413 1.374 . S
C415 C412 1.499 . S
C415 C416 1.357 1_655 S
C415 C417 1.389 1_554 S
C416 H389 0.950 . S
C416 C402 1.392 1_545 S
C416 C415 1.357 1_455 S
C417 C401 1.392 1_545 S
C417 C415 1.389 1_556 S
C417 C418 1.524 . S
C418 C417 1.524 . S
C418 C419 1.397 . S
C418 C423 1.363 . S
C419 H390 0.950 . S
C419 C418 1.397 . S
C419 C420 1.334 . S
C420 H391 0.950 . S
C420 C419 1.334 . S
C420 C421 1.287 . S
C421 C420 1.287 . S
C421 C422 1.524 . S
C421 H424 0.999 . S
C422 H392 0.950 . S
C422 C421 1.524 . S
C422 C423 1.415 . S
C423 H393 0.943 1_545 S
C423 C418 1.363 . S
C423 C422 1.415 . S
H424 C421 0.999 . S
H425 C406 0.913 . S
H426 C444 0.951 . S
H427 C446 0.951 . S
H428 C448 0.950 . S
H429 C449 0.950 . S
H430 C451 0.950 . S
H431 C454 0.947 1_545 S
H432 C455 0.950 . S
H433 C457 0.950 . S
H434 C458 0.950 . S
H435 C459 0.951 . S
H436 C461 0.951 . S
H437 C463 0.950 . S
H438 C464 0.950 . S
H439 C466 0.950 . S
H440 C469 0.947 1_565 S
H441 C470 0.950 . S
H442 C472 0.950 . S
H443 C473 0.950 . S
C444 H426 0.951 . S
C444 C445 1.366 . S
C444 C446 1.388 . S
C445 C444 1.366 . S
C445 C449 1.385 . S
C446 H427 0.951 . S
C446 C444 1.388 . S
C446 C447 1.366 . S
C447 C446 1.366 . S
C447 C448 1.414 . S
C447 C450 1.499 . S
C448 H428 0.950 . S
C448 C447 1.414 . S
C448 C449 1.374 . S
C449 H429 0.950 . S
C449 C445 1.385 . S
C449 C448 1.374 . S
C450 C447 1.499 . S
C450 C451 1.373 . S
C450 C452 1.389 . S
C451 H430 0.950 . S
C451 C450 1.373 . S
C451 C467 1.377 1_565 S
C452 C450 1.389 . S
C452 C453 1.524 . S
C452 C466 1.377 1_565 S
C453 C452 1.524 . S
C453 C454 1.397 . S
C453 C458 1.363 . S
C454 H431 0.947 1_565 S
C454 C453 1.397 . S
C454 C455 1.334 . S
C455 H432 0.950 . S
C455 C454 1.334 . S
C455 C456 1.287 . S
C456 C455 1.287 . S
C456 C457 1.524 . S
C456 H475 0.913 . S
C457 H433 0.950 . S
C457 C456 1.524 . S
C457 C458 1.415 . S
C458 H434 0.950 . S
C458 C453 1.363 . S
C458 C457 1.415 . S
C459 H435 0.951 . S
C459 C460 1.366 . S
C459 C461 1.388 . S
C460 C459 1.366 . S
C460 C464 1.385 . S
C461 H436 0.951 . S
C461 C459 1.388 . S
C461 C462 1.366 . S
C462 C461 1.366 . S
C462 C463 1.414 . S
C462 C465 1.499 . S
C463 H437 0.950 . S
C463 C462 1.414 . S
C463 C464 1.374 . S
C464 H438 0.950 . S
C464 C460 1.385 . S
C464 C463 1.374 . S
C465 C462 1.499 . S
C465 C466 1.373 . S
C465 C467 1.389 . S
C466 H439 0.950 . S
C466 C452 1.377 1_545 S
C466 C465 1.373 . S
C467 C451 1.377 1_545 S
C467 C465 1.389 . S
C467 C468 1.524 . S
C468 C467 1.524 . S
C468 C469 1.397 . S
C468 C473 1.363 . S
C469 H440 0.947 1_545 S
C469 C468 1.397 . S
C469 C470 1.334 . S
C470 H441 0.950 . S
C470 C469 1.334 . S
C470 C471 1.287 . S
C471 C470 1.287 . S
C471 C472 1.524 . S
C471 H474 0.999 . S
C472 H442 0.950 . S
C472 C471 1.524 . S
C472 C473 1.415 . S
C473 H443 0.950 . S
C473 C468 1.363 . S
C473 C472 1.415 . S
H474 C471 0.999 . S
H475 C456 0.913 . S
H476 C494 0.951 . S
H477 C496 0.951 . S
H478 C498 0.950 . S
H479 C499 0.950 . S
H480 C501 0.950 . S
H481 C504 0.950 . S
H482 C505 0.950 . S
H483 C507 0.950 . S
H484 C508 0.950 . S
H485 C509 0.951 . S
H486 C511 0.951 . S
H487 C513 0.950 . S
H488 C514 0.950 . S
H489 C516 0.950 . S
H490 C519 0.950 . S
H491 C520 0.950 . S
H492 C522 0.950 . S
H493 C523 0.950 . S
C494 H476 0.951 . S
C494 C495 1.366 . S
C494 C496 1.388 . S
C495 C494 1.366 . S
C495 C499 1.385 . S
C496 H477 0.951 . S
C496 C494 1.388 . S
C496 C497 1.366 . S
C497 C496 1.366 . S
C497 C498 1.414 . S
C497 C500 1.499 . S
C498 H478 0.950 . S
C498 C497 1.414 . S
C498 C499 1.374 . S
C499 H479 0.950 . S
C499 C495 1.385 . S
C499 C498 1.374 . S
C500 C497 1.499 . S
C500 C501 1.373 . S
C500 C502 1.389 . S
C501 H480 0.950 . S
C501 C500 1.373 . S
C501 C517 1.377 1_554 S
C502 C500 1.389 . S
C502 C503 1.524 . S
C502 C516 1.377 1_554 S
C503 C502 1.524 . S
C503 C504 1.397 1_554 S
C503 C508 1.363 . S
C504 H481 0.950 . S
C504 C503 1.397 1_556 S
C504 C505 1.334 . S
C505 H482 0.950 . S
C505 C504 1.334 . S
C505 C506 1.287 1_556 S
C506 C505 1.287 1_554 S
C506 C507 1.524 . S
C506 H525 0.913 . S
C507 H483 0.950 . S
C507 C506 1.524 . S
C507 C508 1.415 . S
C508 H484 0.950 . S
C508 C503 1.363 . S
C508 C507 1.415 . S
C509 H485 0.951 . S
C509 C510 1.366 . S
C509 C511 1.388 . S
C510 C509 1.366 . S
C510 C514 1.385 . S
C511 H486 0.951 . S
C511 C509 1.388 . S
C511 C512 1.366 . S
C512 C511 1.366 . S
C512 C513 1.414 . S
C512 C515 1.499 . S
C513 H487 0.950 . S
C513 C512 1.414 . S
C513 C514 1.374 . S
C514 H488 0.950 . S
C514 C510 1.385 . S
C514 C513 1.374 . S
C515 C512 1.499 . S
C515 C516 1.373 . S
C515 C517 1.389 . S
C516 H489 0.950 . S
C516 C502 1.377 1_556 S
C516 C515 1.373 . S
C517 C501 1.377 1_556 S
C517 C515 1.389 . S
C517 C518 1.524 . S
C518 C517 1.524 . S
C518 C519 1.397 1_556 S
C518 C523 1.363 . S
C519 H490 0.950 . S
C519 C518 1.397 1_554 S
C519 C520 1.334 . S
C520 H491 0.950 . S
C520 C519 1.334 . S
C520 C521 1.287 1_554 S
C521 C520 1.287 1_556 S
C521 C522 1.524 . S
C521 H524 0.999 . S
C522 H492 0.950 . S
C522 C521 1.524 . S
C522 C523 1.415 . S
C523 H493 0.950 . S
C523 C518 1.363 . S
C523 C522 1.415 . S
H524 C521 0.999 . S
H525 C506 0.913 . S
H526 C544 0.951 . S
H527 C546 0.951 . S
H528 C548 0.950 . S
H529 C549 0.950 . S
H530 C551 0.950 . S
H531 C554 0.950 . S
H532 C555 0.950 . S
H533 C557 0.950 . S
H534 C558 0.950 . S
H535 C559 0.951 . S
H536 C561 0.951 . S
H537 C563 0.950 . S
H538 C564 0.950 . S
H539 C566 0.950 . S
H540 C569 0.950 . S
H541 C570 0.950 . S
H542 C572 0.950 . S
H543 C573 0.950 . S
C544 H526 0.951 . S
C544 C545 1.366 . S
C544 C546 1.388 . S
C545 C544 1.366 . S
C545 C549 1.385 . S
C546 H527 0.951 . S
C546 C544 1.388 . S
C546 C547 1.366 . S
C547 C546 1.366 . S
C547 C548 1.414 . S
C547 C550 1.499 . S
C548 H528 0.950 . S
C548 C547 1.414 . S
C548 C549 1.374 . S
C549 H529 0.950 . S
C549 C545 1.385 . S
C549 C548 1.374 . S
C550 C547 1.499 . S
C550 C551 1.373 . S
C550 C552 1.389 . S
C551 H530 0.950 . S
C551 C550 1.373 . S
C551 C567 1.377 1_455 S
C552 C550 1.389 . S
C552 C553 1.524 . S
C552 C566 1.377 1_455 S
C553 C552 1.524 . S
C553 C554 1.397 . S
C553 C558 1.363 1_455 S
C554 H531 0.950 . S
C554 C553 1.397 . S
C554 C555 1.334 . S
C555 H532 0.950 . S
C555 C554 1.334 . S
C555 C556 1.287 . S
C556 C555 1.287 . S
C556 C557 1.524 1_455 S
C556 H575 0.913 . S
C557 H533 0.950 . S
C557 C556 1.524 1_655 S
C557 C558 1.415 . S
C558 H534 0.950 . S
C558 C553 1.363 1_655 S
C558 C557 1.415 . S
C559 H535 0.951 . S
C559 C560 1.366 . S
C559 C561 1.388 . S
C560 C559 1.366 . S
C560 C564 1.385 . S
C561 H536 0.951 . S
C561 C559 1.388 . S
C561 C562 1.366 . S
C562 C561 1.366 . S
C562 C563 1.414 . S
C562 C565 1.499 . S
C563 H537 0.950 . S
C563 C562 1.414 . S
C563 C564 1.374 . S
C564 H538 0.950 . S
C564 C560 1.385 . S
C564 C563 1.374 . S
C565 C562 1.499 . S
C565 C566 1.373 . S
C565 C567 1.389 . S
C566 H539 0.950 . S
C566 C552 1.377 1_655 S
C566 C565 1.373 . S
C567 C551 1.377 1_655 S
C567 C565 1.389 . S
C567 C568 1.524 . S
C568 C567 1.524 . S
C568 C569 1.397 . S
C568 C573 1.363 1_655 S
C569 H540 0.950 . S
C569 C568 1.397 . S
C569 C570 1.334 . S
C570 H541 0.950 . S
C570 C569 1.334 . S
C570 C571 1.287 . S
C571 C570 1.287 . S
C571 C572 1.524 1_655 S
C571 H574 0.999 . S
C572 H542 0.950 . S
C572 C571 1.524 1_455 S
C572 C573 1.415 . S
C573 H543 0.950 . S
C573 C568 1.363 1_455 S
C573 C572 1.415 . S
H574 C571 0.999 . S
H575 C556 0.913 . S
H576 C594 0.951 . S
H577 C596 0.951 . S
H578 C598 0.950 . S
H579 C599 0.950 . S
H580 C601 0.950 . S
H581 C604 0.950 . S
H582 C605 0.950 . S
H583 C607 0.950 . S
H584 C608 0.950 . S
H585 C609 0.951 . S
H586 C611 0.951 . S
H587 C613 0.950 . S
H588 C614 0.950 . S
H589 C616 0.950 . S
H590 C619 0.950 . S
H591 C620 0.950 . S
H592 C622 0.950 . S
H593 C623 0.950 . S
C594 H576 0.951 . S
C594 C595 1.366 . S
C594 C596 1.388 . S
C595 C594 1.366 . S
C595 C599 1.385 . S
C596 H577 0.951 . S
C596 C594 1.388 . S
C596 C597 1.366 . S
C597 C596 1.366 . S
C597 C598 1.414 . S
C597 C600 1.499 . S
C598 H578 0.950 . S
C598 C597 1.414 . S
C598 C599 1.374 . S
C599 H579 0.950 . S
C599 C595 1.385 . S
C599 C598 1.374 . S
C600 C597 1.499 . S
C600 C601 1.373 . S
C600 C602 1.389 . S
C601 H580 0.950 . S
C601 C600 1.373 . S
C601 C617 1.377 . S
C602 C600 1.389 . S
C602 C603 1.524 . S
C602 C616 1.377 . S
C603 C602 1.524 . S
C603 C604 1.397 . S
C603 C608 1.363 . S
C604 H581 0.950 . S
C604 C603 1.397 . S
C604 C605 1.334 . S
C605 H582 0.950 . S
C605 C604 1.334 . S
C605 C606 1.287 . S
C606 C605 1.287 . S
C606 C607 1.524 . S
C606 H625 0.913 . S
C607 H583 0.950 . S
C607 C606 1.524 . S
C607 C608 1.415 . S
C608 H584 0.950 . S
C608 C603 1.363 . S
C608 C607 1.415 . S
C609 H585 0.951 . S
C609 C610 1.366 . S
C609 C611 1.388 . S
C610 C609 1.366 . S
C610 C614 1.385 . S
C611 H586 0.951 . S
C611 C609 1.388 . S
C611 C612 1.366 . S
C612 C611 1.366 . S
C612 C613 1.414 . S
C612 C615 1.499 . S
C613 H587 0.950 . S
C613 C612 1.414 . S
C613 C614 1.374 . S
C614 H588 0.950 . S
C614 C610 1.385 . S
C614 C613 1.374 . S
C615 C612 1.499 . S
C615 C616 1.373 . S
C615 C617 1.389 . S
C616 H589 0.950 . S
C616 C602 1.377 . S
C616 C615 1.373 . S
C617 C601 1.377 . S
C617 C615 1.389 . S
C617 C618 1.524 . S
C618 C617 1.524 . S
C618 C619 1.397 . S
C618 C623 1.363 . S
C619 H590 0.950 . S
C619 C618 1.397 . S
C619 C620 1.334 . S
C620 H591 0.950 . S
C620 C619 1.334 . S
C620 C621 1.287 . S
C621 C620 1.287 . S
C621 C622 1.524 . S
C621 H624 0.999 . S
C622 H592 0.950 . S
C622 C621 1.524 . S
C622 C623 1.415 . S
C623 H593 0.950 . S
C623 C618 1.363 . S
C623 C622 1.415 . S
H624 C621 0.999 . S
H625 C606 0.913 . S
H626 C644 0.951 . S
H627 C646 0.951 . S
H628 C648 0.950 . S
H629 C649 0.950 . S
H630 C651 0.950 . S
H631 C654 0.950 . S
H632 C655 0.950 . S
H633 C657 0.950 . S
H634 C658 0.950 . S
H635 C659 0.951 . S
H636 C661 0.951 . S
H637 C663 0.950 . S
H638 C664 0.950 . S
H639 C666 0.950 . S
H640 C669 0.950 . S
H641 C670 0.950 . S
H642 C672 0.950 . S
H643 C673 0.950 . S
C644 H626 0.951 . S
C644 C645 1.366 . S
C644 C646 1.388 . S
C645 C644 1.366 . S
C645 C649 1.385 . S
C646 H627 0.951 . S
C646 C644 1.388 . S
C646 C647 1.366 . S
C647 C646 1.366 . S
C647 C648 1.414 . S
C647 C650 1.499 . S
C648 H628 0.950 . S
C648 C647 1.414 . S
C648 C649 1.374 . S
C649 H629 0.950 . S
C649 C645 1.385 . S
C649 C648 1.374 . S
C650 C647 1.499 . S
C650 C651 1.373 . S
C650 C652 1.389 . S
C651 H630 0.950 . S
C651 C650 1.373 . S
C651 C667 1.377 . S
C652 C650 1.389 . S
C652 C653 1.524 . S
C652 C666 1.377 . S
C653 C652 1.524 . S
C653 C654 1.397 . S
C653 C658 1.363 . S
C654 H631 0.950 . S
C654 C653 1.397 . S
C654 C655 1.334 . S
C655 H632 0.950 . S
C655 C654 1.334 . S
C655 C656 1.287 . S
C656 C655 1.287 . S
C656 C657 1.524 . S
C656 H675 0.913 . S
C657 H633 0.950 . S
C657 C656 1.524 . S
C657 C658 1.415 . S
C658 H634 0.950 . S
C658 C653 1.363 . S
C658 C657 1.415 . S
C659 H635 0.951 . S
C659 C660 1.366 . S
C659 C661 1.388 . S
C660 C659 1.366 . S
C660 C664 1.385 . S
C661 H636 0.951 . S
C661 C659 1.388 . S
C661 C662 1.366 . S
C662 C661 1.366 . S
C662 C663 1.414 . S
C662 C665 1.499 . S
C663 H637 0.950 . S
C663 C662 1.414 . S
C663 C664 1.374 . S
C664 H638 0.950 . S
C664 C660 1.385 . S
C664 C663 1.374 . S
C665 C662 1.499 . S
C665 C666 1.373 . S
C665 C667 1.389 . S
C666 H639 0.950 . S
C666 C652 1.377 . S
C666 C665 1.373 . S
C667 C651 1.377 . S
C667 C665 1.389 . S
C667 C668 1.524 . S
C668 C667 1.524 . S
C668 C669 1.397 . S
C668 C673 1.363 . S
C669 H640 0.950 . S
C669 C668 1.397 . S
C669 C670 1.334 . S
C670 H641 0.950 . S
C670 C669 1.334 . S
C670 C671 1.287 . S
C671 C670 1.287 . S
C671 C672 1.524 . S
C671 H674 0.999 . S
C672 H642 0.950 . S
C672 C671 1.524 . S
C672 C673 1.415 . S
C673 H643 0.950 . S
C673 C668 1.363 . S
C673 C672 1.415 . S
H674 C671 0.999 . S
H675 C656 0.913 . S
H676 C694 0.951 . S
H677 C696 0.951 . S
H678 C698 0.950 . S
H679 C699 0.950 . S
H680 C701 0.950 . S
H681 C704 0.950 . S
H682 C705 0.950 . S
H683 C707 0.950 . S
H684 C708 0.950 . S
H685 C709 0.951 . S
H686 C711 0.951 . S
H687 C713 0.950 . S
H688 C714 0.950 . S
H689 C716 0.950 . S
H690 C719 0.950 . S
H691 C720 0.950 . S
H692 C722 0.950 . S
H693 C723 0.950 . S
C694 H676 0.951 . S
C694 C695 1.366 . S
C694 C696 1.388 . S
C695 C694 1.366 . S
C695 C699 1.385 . S
C696 H677 0.951 . S
C696 C694 1.388 . S
C696 C697 1.366 . S
C697 C696 1.366 . S
C697 C698 1.414 . S
C697 C700 1.499 . S
C698 H678 0.950 . S
C698 C697 1.414 . S
C698 C699 1.374 . S
C699 H679 0.950 . S
C699 C695 1.385 . S
C699 C698 1.374 . S
C700 C697 1.499 . S
C700 C701 1.373 . S
C700 C702 1.389 . S
C701 H680 0.950 . S
C701 C700 1.373 . S
C701 C717 1.377 . S
C702 C700 1.389 . S
C702 C703 1.524 . S
C702 C716 1.377 . S
C703 C702 1.524 . S
C703 C704 1.397 . S
C703 C708 1.363 . S
C704 H681 0.950 . S
C704 C703 1.397 . S
C704 C705 1.334 . S
C705 H682 0.950 . S
C705 C704 1.334 . S
C705 C706 1.287 . S
C706 C705 1.287 . S
C706 C707 1.524 . S
C706 H725 0.913 . S
C707 H683 0.950 . S
C707 C706 1.524 . S
C707 C708 1.415 . S
C708 H684 0.950 . S
C708 C703 1.363 . S
C708 C707 1.415 . S
C709 H685 0.951 . S
C709 C710 1.366 . S
C709 C711 1.388 . S
C710 C709 1.366 . S
C710 C714 1.385 . S
C711 H686 0.951 . S
C711 C709 1.388 . S
C711 C712 1.366 . S
C712 C711 1.366 . S
C712 C713 1.414 . S
C712 C715 1.499 . S
C713 H687 0.950 . S
C713 C712 1.414 . S
C713 C714 1.374 . S
C714 H688 0.950 . S
C714 C710 1.385 . S
C714 C713 1.374 . S
C715 C712 1.499 . S
C715 C716 1.373 . S
C715 C717 1.389 . S
C716 H689 0.950 . S
C716 C702 1.377 . S
C716 C715 1.373 . S
C717 C701 1.377 . S
C717 C715 1.389 . S
C717 C718 1.524 . S
C718 C717 1.524 . S
C718 C719 1.397 . S
C718 C723 1.363 . S
C719 H690 0.950 . S
C719 C718 1.397 . S
C719 C720 1.334 . S
C720 H691 0.950 . S
C720 C719 1.334 . S
C720 C721 1.287 . S
C721 C720 1.287 . S
C721 C722 1.524 . S
C721 H724 0.999 . S
C722 H692 0.950 . S
C722 C721 1.524 . S
C722 C723 1.415 . S
C723 H693 0.950 . S
C723 C718 1.363 . S
C723 C722 1.415 . S
H724 C721 0.999 . S
H725 C706 0.913 . S
H726 C744 0.951 . S
H727 C746 0.951 . S
H728 C748 0.950 . S
H729 C749 0.950 . S
H730 C751 0.950 . S
H731 C754 0.950 . S
H732 C755 0.950 . S
H733 C757 0.950 . S
H734 C758 0.950 . S
H735 C759 0.951 . S
H736 C761 0.951 . S
H737 C763 0.950 . S
H738 C764 0.950 . S
H739 C766 0.950 . S
H740 C769 0.950 . S
H741 C770 0.950 . S
H742 C772 0.950 . S
H743 C773 0.950 . S
C744 H726 0.951 . S
C744 C745 1.366 . S
C744 C746 1.388 . S
C745 C744 1.366 . S
C745 C749 1.385 . S
C746 H727 0.951 . S
C746 C744 1.388 . S
C746 C747 1.366 . S
C747 C746 1.366 . S
C747 C748 1.414 . S
C747 C750 1.499 . S
C748 H728 0.950 . S
C748 C747 1.414 . S
C748 C749 1.374 . S
C749 H729 0.950 . S
C749 C745 1.385 . S
C749 C748 1.374 . S
C750 C747 1.499 . S
C750 C751 1.373 . S
C750 C752 1.389 . S
C751 H730 0.950 . S
C751 C750 1.373 . S
C751 C767 1.377 . S
C752 C750 1.389 . S
C752 C753 1.524 . S
C752 C766 1.377 . S
C753 C752 1.524 . S
C753 C754 1.397 . S
C753 C758 1.363 . S
C754 H731 0.950 . S
C754 C753 1.397 . S
C754 C755 1.334 . S
C755 H732 0.950 . S
C755 C754 1.334 . S
C755 C756 1.287 . S
C756 C755 1.287 . S
C756 C757 1.524 . S
C756 H775 0.913 . S
C757 H733 0.950 . S
C757 C756 1.524 . S
C757 C758 1.415 . S
C758 H734 0.950 . S
C758 C753 1.363 . S
C758 C757 1.415 . S
C759 H735 0.951 . S
C759 C760 1.366 . S
C759 C761 1.388 . S
C760 C759 1.366 . S
C760 C764 1.385 . S
C761 H736 0.951 . S
C761 C759 1.388 . S
C761 C762 1.366 . S
C762 C761 1.366 . S
C762 C763 1.414 . S
C762 C765 1.499 . S
C763 H737 0.950 . S
C763 C762 1.414 . S
C763 C764 1.374 . S
C764 H738 0.950 . S
C764 C760 1.385 . S
C764 C763 1.374 . S
C765 C762 1.499 . S
C765 C766 1.373 . S
C765 C767 1.389 . S
C766 H739 0.950 . S
C766 C752 1.377 . S
C766 C765 1.373 . S
C767 C751 1.377 . S
C767 C765 1.389 . S
C767 C768 1.524 . S
C768 C767 1.524 . S
C768 C769 1.397 . S
C768 C773 1.363 . S
C769 H740 0.950 . S
C769 C768 1.397 . S
C769 C770 1.334 . S
C770 H741 0.950 . S
C770 C769 1.334 . S
C770 C771 1.287 . S
C771 C770 1.287 . S
C771 C772 1.524 . S
C771 H774 0.999 . S
C772 H742 0.950 . S
C772 C771 1.524 . S
C772 C773 1.415 . S
C773 H743 0.950 . S
C773 C768 1.363 . S
C773 C772 1.415 . S
H774 C771 0.999 . S
H775 C756 0.913 . S
H776 C794 0.951 . S
H777 C796 0.951 . S
H778 C798 0.950 . S
H779 C799 0.950 . S
H780 C801 0.950 . S
H781 C804 0.950 . S
H782 C805 0.950 . S
H783 C807 0.950 . S
H784 C808 0.950 . S
H785 C809 0.951 . S
H786 C811 0.951 . S
H787 C813 0.950 . S
H788 C814 0.950 . S
H789 C816 0.950 . S
H790 C819 0.950 . S
H791 C820 0.950 . S
H792 C822 0.950 . S
H793 C823 0.950 . S
C794 H776 0.951 . S
C794 C795 1.366 . S
C794 C796 1.388 . S
C795 C794 1.366 . S
C795 C799 1.385 . S
C796 H777 0.951 . S
C796 C794 1.388 . S
C796 C797 1.366 . S
C797 C796 1.366 . S
C797 C798 1.414 . S
C797 C800 1.499 . S
C798 H778 0.950 . S
C798 C797 1.414 . S
C798 C799 1.374 . S
C799 H779 0.950 . S
C799 C795 1.385 . S
C799 C798 1.374 . S
C800 C797 1.499 . S
C800 C801 1.373 . S
C800 C802 1.389 . S
C801 H780 0.950 . S
C801 C800 1.373 . S
C801 C817 1.377 . S
C802 C800 1.389 . S
C802 C803 1.524 . S
C802 C816 1.377 . S
C803 C802 1.524 . S
C803 C804 1.397 . S
C803 C808 1.363 . S
C804 H781 0.950 . S
C804 C803 1.397 . S
C804 C805 1.334 . S
C805 H782 0.950 . S
C805 C804 1.334 . S
C805 C806 1.287 . S
C806 C805 1.287 . S
C806 C807 1.524 . S
C806 H825 0.913 . S
C807 H783 0.950 . S
C807 C806 1.524 . S
C807 C808 1.415 . S
C808 H784 0.950 . S
C808 C803 1.363 . S
C808 C807 1.415 . S
C809 H785 0.951 . S
C809 C810 1.366 . S
C809 C811 1.388 . S
C810 C809 1.366 . S
C810 C814 1.385 . S
C811 H786 0.951 . S
C811 C809 1.388 . S
C811 C812 1.366 . S
C812 C811 1.366 . S
C812 C813 1.414 . S
C812 C815 1.499 . S
C813 H787 0.950 . S
C813 C812 1.414 . S
C813 C814 1.374 . S
C814 H788 0.950 . S
C814 C810 1.385 . S
C814 C813 1.374 . S
C815 C812 1.499 . S
C815 C816 1.373 . S
C815 C817 1.389 . S
C816 H789 0.950 . S
C816 C802 1.377 . S
C816 C815 1.373 . S
C817 C801 1.377 . S
C817 C815 1.389 . S
C817 C818 1.524 . S
C818 C817 1.524 . S
C818 C819 1.397 . S
C818 C823 1.363 . S
C819 H790 0.950 . S
C819 C818 1.397 . S
C819 C820 1.334 . S
C820 H791 0.950 . S
C820 C819 1.334 . S
C820 C821 1.287 . S
C821 C820 1.287 . S
C821 C822 1.524 . S
C821 H824 0.999 . S
C822 H792 0.950 . S
C822 C821 1.524 . S
C822 C823 1.415 . S
C823 H793 0.950 . S
C823 C818 1.363 . S
C823 C822 1.415 . S
H824 C821 0.999 . S
H825 C806 0.913 . S
H826 C844 0.951 . S
H827 C846 0.951 . S
H828 C848 0.950 . S
H829 C849 0.950 . S
H830 C851 0.950 . S
H831 C854 0.950 . S
H832 C855 0.950 . S
H833 C857 0.950 . S
H834 C858 0.950 . S
H835 C859 0.951 . S
H836 C861 0.951 . S
H837 C863 0.950 . S
H838 C864 0.950 . S
H839 C866 0.950 . S
H840 C869 0.950 . S
H841 C870 0.950 . S
H842 C872 0.950 . S
H843 C873 0.950 . S
C844 H826 0.951 . S
C844 C845 1.366 . S
C844 C846 1.388 . S
C845 C844 1.366 . S
C845 C849 1.385 . S
C846 H827 0.951 . S
C846 C844 1.388 . S
C846 C847 1.366 . S
C847 C846 1.366 . S
C847 C848 1.414 . S
C847 C850 1.499 . S
C848 H828 0.950 . S
C848 C847 1.414 . S
C848 C849 1.374 . S
C849 H829 0.950 . S
C849 C845 1.385 . S
C849 C848 1.374 . S
C850 C847 1.499 . S
C850 C851 1.373 . S
C850 C852 1.389 . S
C851 H830 0.950 . S
C851 C850 1.373 . S
C851 C867 1.377 . S
C852 C850 1.389 . S
C852 C853 1.524 . S
C852 C866 1.377 . S
C853 C852 1.524 . S
C853 C854 1.397 . S
C853 C858 1.363 . S
C854 H831 0.950 . S
C854 C853 1.397 . S
C854 C855 1.334 . S
C855 H832 0.950 . S
C855 C854 1.334 . S
C855 C856 1.287 . S
C856 C855 1.287 . S
C856 C857 1.524 . S
C856 H875 0.913 . S
C857 H833 0.950 . S
C857 C856 1.524 . S
C857 C858 1.415 . S
C858 H834 0.950 . S
C858 C853 1.363 . S
C858 C857 1.415 . S
C859 H835 0.951 . S
C859 C860 1.366 . S
C859 C861 1.388 . S
C860 C859 1.366 . S
C860 C864 1.385 . S
C861 H836 0.951 . S
C861 C859 1.388 . S
C861 C862 1.366 . S
C862 C861 1.366 . S
C862 C863 1.414 . S
C862 C865 1.499 . S
C863 H837 0.950 . S
C863 C862 1.414 . S
C863 C864 1.374 . S
C864 H838 0.950 . S
C864 C860 1.385 . S
C864 C863 1.374 . S
C865 C862 1.499 . S
C865 C866 1.373 . S
C865 C867 1.389 . S
C866 H839 0.950 . S
C866 C852 1.377 . S
C866 C865 1.373 . S
C867 C851 1.377 . S
C867 C865 1.389 . S
C867 C868 1.524 . S
C868 C867 1.524 . S
C868 C869 1.397 . S
C868 C873 1.363 . S
C869 H840 0.950 . S
C869 C868 1.397 . S
C869 C870 1.334 . S
C870 H841 0.950 . S
C870 C869 1.334 . S
C870 C871 1.287 . S
C871 C870 1.287 . S
C871 C872 1.524 . S
C871 H874 0.999 . S
C872 H842 0.950 . S
C872 C871 1.524 . S
C872 C873 1.415 . S
C873 H843 0.950 . S
C873 C868 1.363 . S
C873 C872 1.415 . S
H874 C871 0.999 . S
H875 C856 0.913 . S
H876 C894 0.951 . S
H877 C896 0.951 . S
H878 C898 0.950 . S
H879 C899 0.950 . S
H880 C901 0.950 . S
H881 C904 0.950 . S
H882 C905 0.950 . S
H883 C907 0.950 . S
H884 C908 0.950 . S
H885 C909 0.951 . S
H886 C911 0.951 . S
H887 C913 0.950 . S
H888 C914 0.950 . S
H889 C916 0.950 . S
H890 C919 0.950 . S
H891 C920 0.950 . S
H892 C922 0.950 . S
H893 C923 0.950 . S
C894 H876 0.951 . S
C894 C895 1.366 . S
C894 C896 1.388 . S
C895 C894 1.366 . S
C895 C899 1.385 . S
C896 H877 0.951 . S
C896 C894 1.388 . S
C896 C897 1.366 . S
C897 C896 1.366 . S
C897 C898 1.414 . S
C897 C900 1.499 . S
C898 H878 0.950 . S
C898 C897 1.414 . S
C898 C899 1.374 . S
C899 H879 0.950 . S
C899 C895 1.385 . S
C899 C898 1.374 . S
C900 C897 1.499 . S
C900 C901 1.373 . S
C900 C902 1.389 . S
C901 H880 0.950 . S
C901 C900 1.373 . S
C901 C917 1.377 . S
C902 C900 1.389 . S
C902 C903 1.524 . S
C902 C916 1.377 . S
C903 C902 1.524 . S
C903 C904 1.397 . S
C903 C908 1.363 . S
C904 H881 0.950 . S
C904 C903 1.397 . S
C904 C905 1.334 . S
C905 H882 0.950 . S
C905 C904 1.334 . S
C905 C906 1.287 . S
C906 C905 1.287 . S
C906 C907 1.524 . S
C906 H925 0.913 . S
C907 H883 0.950 . S
C907 C906 1.524 . S
C907 C908 1.415 . S
C908 H884 0.950 . S
C908 C903 1.363 . S
C908 C907 1.415 . S
C909 H885 0.951 . S
C909 C910 1.366 . S
C909 C911 1.388 . S
C910 C909 1.366 . S
C910 C914 1.385 . S
C911 H886 0.951 . S
C911 C909 1.388 . S
C911 C912 1.366 . S
C912 C911 1.366 . S
C912 C913 1.414 . S
C912 C915 1.499 . S
C913 H887 0.950 . S
C913 C912 1.414 . S
C913 C914 1.374 . S
C914 H888 0.950 . S
C914 C910 1.385 . S
C914 C913 1.374 . S
C915 C912 1.499 . S
C915 C916 1.373 . S
C915 C917 1.389 . S
C916 H889 0.950 . S
C916 C902 1.377 . S
C916 C915 1.373 . S
C917 C901 1.377 . S
C917 C915 1.389 . S
C917 C918 1.524 . S
C918 C917 1.524 . S
C918 C919 1.397 . S
C918 C923 1.363 . S
C919 H890 0.950 . S
C919 C918 1.397 . S
C919 C920 1.334 . S
C920 H891 0.950 . S
C920 C919 1.334 . S
C920 C921 1.287 . S
C921 C920 1.287 . S
C921 C922 1.524 . S
C921 H924 0.999 . S
C922 H892 0.950 . S
C922 C921 1.524 . S
C922 C923 1.415 . S
C923 H893 0.950 . S
C923 C918 1.363 . S
C923 C922 1.415 . S
H924 C921 0.999 . S
H925 C906 0.913 . S
H926 C944 0.951 . S
H927 C946 0.951 . S
H928 C948 0.950 . S
H929 C949 0.950 . S
H930 C951 0.950 . S
H931 C954 0.950 . S
H932 C955 0.950 . S
H933 C957 0.950 . S
H934 C958 0.950 . S
H935 C959 0.951 . S
H936 C961 0.951 . S
H937 C963 0.950 . S
H938 C964 0.950 . S
H939 C966 0.950 . S
H940 C969 0.950 . S
H941 C970 0.950 . S
H942 C972 0.950 . S
H943 C973 0.950 . S
C944 H926 0.951 . S
C944 C945 1.366 . S
C944 C946 1.388 . S
C945 C944 1.366 . S
C945 C949 1.385 . S
C946 H927 0.951 . S
C946 C944 1.388 . S
C946 C947 1.366 . S
C947 C946 1.366 . S
C947 C948 1.414 . S
C947 C950 1.499 . S
C948 H928 0.950 . S
C948 C947 1.414 . S
C948 C949 1.374 . S
C949 H929 0.950 . S
C949 C945 1.385 . S
C949 C948 1.374 . S
C950 C947 1.499 . S
C950 C951 1.373 . S
C950 C952 1.389 . S
C951 H930 0.950 . S
C951 C950 1.373 . S
C951 C967 1.377 . S
C952 C950 1.389 . S
C952 C953 1.524 . S
C952 C966 1.377 . S
C953 C952 1.524 . S
C953 C954 1.397 . S
C953 C958 1.363 . S
C954 H931 0.950 . S
C954 C953 1.397 . S
C954 C955 1.334 . S
C955 H932 0.950 . S
C955 C954 1.334 . S
C955 C956 1.287 . S
C956 C955 1.287 . S
C956 C957 1.524 . S
C956 H975 0.913 . S
C957 H933 0.950 . S
C957 C956 1.524 . S
C957 C958 1.415 . S
C958 H934 0.950 . S
C958 C953 1.363 . S
C958 C957 1.415 . S
C959 H935 0.951 . S
C959 C960 1.366 . S
C959 C961 1.388 . S
C960 C959 1.366 . S
C960 C964 1.385 . S
C961 H936 0.951 . S
C961 C959 1.388 . S
C961 C962 1.366 . S
C962 C961 1.366 . S
C962 C963 1.414 . S
C962 C965 1.499 . S
C963 H937 0.950 . S
C963 C962 1.414 . S
C963 C964 1.374 . S
C964 H938 0.950 . S
C964 C960 1.385 . S
C964 C963 1.374 . S
C965 C962 1.499 . S
C965 C966 1.373 . S
C965 C967 1.389 . S
C966 H939 0.950 . S
C966 C952 1.377 . S
C966 C965 1.373 . S
C967 C951 1.377 . S
C967 C965 1.389 . S
C967 C968 1.524 . S
C968 C967 1.524 . S
C968 C969 1.397 . S
C968 C973 1.363 . S
C969 H940 0.950 . S
C969 C968 1.397 . S
C969 C970 1.334 . S
C970 H941 0.950 . S
C970 C969 1.334 . S
C970 C971 1.287 . S
C971 C970 1.287 . S
C971 C972 1.524 . S
C971 H974 0.999 . S
C972 H942 0.950 . S
C972 C971 1.524 . S
C972 C973 1.415 . S
C973 H943 0.950 . S
C973 C968 1.363 . S
C973 C972 1.415 . S
H974 C971 0.999 . S
H975 C956 0.913 . S
H976 C994 0.951 . S
H977 C996 0.951 . S
H978 C998 0.950 . S
H979 C999 0.950 . S
H980 C1001 0.950 . S
H981 C1004 0.950 . S
H982 C1005 0.950 . S
H983 C1007 0.950 . S
H984 C1008 0.950 . S
H985 C1009 0.951 . S
H986 C1011 0.951 . S
H987 C1013 0.950 . S
H988 C1014 0.950 . S
H989 C1016 0.950 . S
H990 C1019 0.950 . S
H991 C1020 0.950 . S
H992 C1022 0.950 . S
H993 C1023 0.950 . S
C994 H976 0.951 . S
C994 C995 1.366 . S
C994 C996 1.388 . S
C995 C994 1.366 . S
C995 C999 1.385 . S
C996 H977 0.951 . S
C996 C994 1.388 . S
C996 C997 1.366 . S
C997 C996 1.366 . S
C997 C998 1.414 . S
C997 C1000 1.499 . S
C998 H978 0.950 . S
C998 C997 1.414 . S
C998 C999 1.374 . S
C999 H979 0.950 . S
C999 C995 1.385 . S
C999 C998 1.374 . S
C1000 C997 1.499 . S
C1000 C1001 1.373 . S
C1000 C1002 1.389 . S
C1001 H980 0.950 . S
C1001 C1000 1.373 . S
C1001 C1017 1.377 . S
C1002 C1000 1.389 . S
C1002 C1003 1.524 . S
C1002 C1016 1.377 . S
C1003 C1002 1.524 . S
C1003 C1004 1.397 . S
C1003 C1008 1.363 . S
C1004 H981 0.950 . S
C1004 C1003 1.397 . S
C1004 C1005 1.334 . S
C1005 H982 0.950 . S
C1005 C1004 1.334 . S
C1005 C1006 1.287 . S
C1006 C1005 1.287 . S
C1006 C1007 1.524 . S
C1006 H1025 0.913 . S
C1007 H983 0.950 . S
C1007 C1006 1.524 . S
C1007 C1008 1.415 . S
C1008 H984 0.950 . S
C1008 C1003 1.363 . S
C1008 C1007 1.415 . S
C1009 H985 0.951 . S
C1009 C1010 1.366 . S
C1009 C1011 1.388 . S
C1010 C1009 1.366 . S
C1010 C1014 1.385 . S
C1011 H986 0.951 . S
C1011 C1009 1.388 . S
C1011 C1012 1.366 . S
C1012 C1011 1.366 . S
C1012 C1013 1.414 . S
C1012 C1015 1.499 . S
C1013 H987 0.950 . S
C1013 C1012 1.414 . S
C1013 C1014 1.374 . S
C1014 H988 0.950 . S
C1014 C1010 1.385 . S
C1014 C1013 1.374 . S
C1015 C1012 1.499 . S
C1015 C1016 1.373 . S
C1015 C1017 1.389 . S
C1016 H989 0.950 . S
C1016 C1002 1.377 . S
C1016 C1015 1.373 . S
C1017 C1001 1.377 . S
C1017 C1015 1.389 . S
C1017 C1018 1.524 . S
C1018 C1017 1.524 . S
C1018 C1019 1.397 . S
C1018 C1023 1.363 . S
C1019 H990 0.950 . S
C1019 C1018 1.397 . S
C1019 C1020 1.334 . S
C1020 H991 0.950 . S
C1020 C1019 1.334 . S
C1020 C1021 1.287 . S
C1021 C1020 1.287 . S
C1021 C1022 1.524 . S
C1021 H1024 0.999 . S
C1022 H992 0.950 . S
C1022 C1021 1.524 . S
C1022 C1023 1.415 . S
C1023 H993 0.950 . S
C1023 C1018 1.363 . S
C1023 C1022 1.415 . S
H1024 C1021 0.999 . S
H1025 C1006 0.913 . S
H1026 C1044 0.951 . S
H1027 C1046 0.951 . S
H1028 C1048 0.950 . S
H1029 C1049 0.950 . S
H1030 C1051 0.950 . S
H1031 C1054 0.950 . S
H1032 C1055 0.950 . S
H1033 C1057 0.950 . S
H1034 C1058 0.950 . S
H1035 C1059 0.951 . S
H1036 C1061 0.951 . S
H1037 C1063 0.950 . S
H1038 C1064 0.950 . S
H1039 C1066 0.950 . S
H1040 C1069 0.950 . S
H1041 C1070 0.950 . S
H1042 C1072 0.950 . S
H1043 C1073 0.950 . S
C1044 H1026 0.951 . S
C1044 C1045 1.366 . S
C1044 C1046 1.388 . S
C1045 C1044 1.366 . S
C1045 C1049 1.385 . S
C1046 H1027 0.951 . S
C1046 C1044 1.388 . S
C1046 C1047 1.366 . S
C1047 C1046 1.366 . S
C1047 C1048 1.414 . S
C1047 C1050 1.499 . S
C1048 H1028 0.950 . S
C1048 C1047 1.414 . S
C1048 C1049 1.374 . S
C1049 H1029 0.950 . S
C1049 C1045 1.385 . S
C1049 C1048 1.374 . S
C1050 C1047 1.499 . S
C1050 C1051 1.373 . S
C1050 C1052 1.389 . S
C1051 H1030 0.950 . S
C1051 C1050 1.373 . S
C1051 C1067 1.377 . S
C1052 C1050 1.389 . S
C1052 C1053 1.524 . S
C1052 C1066 1.377 . S
C1053 C1052 1.524 . S
C1053 C1054 1.397 . S
C1053 C1058 1.363 . S
C1054 H1031 0.950 . S
C1054 C1053 1.397 . S
C1054 C1055 1.334 . S
C1055 H1032 0.950 . S
C1055 C1054 1.334 . S
C1055 C1056 1.287 . S
C1056 C1055 1.287 . S
C1056 C1057 1.524 . S
C1056 H1075 0.913 . S
C1057 H1033 0.950 . S
C1057 C1056 1.524 . S
C1057 C1058 1.415 . S
C1058 H1034 0.950 . S
C1058 C1053 1.363 . S
C1058 C1057 1.415 . S
C1059 H1035 0.951 . S
C1059 C1060 1.366 . S
C1059 C1061 1.388 . S
C1060 C1059 1.366 . S
C1060 C1064 1.385 . S
C1061 H1036 0.951 . S
C1061 C1059 1.388 . S
C1061 C1062 1.366 . S
C1062 C1061 1.366 . S
C1062 C1063 1.414 . S
C1062 C1065 1.499 . S
C1063 H1037 0.950 . S
C1063 C1062 1.414 . S
C1063 C1064 1.374 . S
C1064 H1038 0.950 . S
C1064 C1060 1.385 . S
C1064 C1063 1.374 . S
C1065 C1062 1.499 . S
C1065 C1066 1.373 . S
C1065 C1067 1.389 . S
C1066 H1039 0.950 . S
C1066 C1052 1.377 . S
C1066 C1065 1.373 . S
C1067 C1051 1.377 . S
C1067 C1065 1.389 . S
C1067 C1068 1.524 . S
C1068 C1067 1.524 . S
C1068 C1069 1.397 . S
C1068 C1073 1.363 . S
C1069 H1040 0.950 . S
C1069 C1068 1.397 . S
C1069 C1070 1.334 . S
C1070 H1041 0.950 . S
C1070 C1069 1.334 . S
C1070 C1071 1.287 . S
C1071 C1070 1.287 . S
C1071 C1072 1.524 . S
C1071 H1074 0.999 . S
C1072 H1042 0.950 . S
C1072 C1071 1.524 . S
C1072 C1073 1.415 . S
C1073 H1043 0.950 . S
C1073 C1068 1.363 . S
C1073 C1072 1.415 . S
H1074 C1071 0.999 . S
H1075 C1056 0.913 . S
H1076 C1094 0.951 . S
H1077 C1096 0.951 . S
H1078 C1098 0.950 . S
H1079 C1099 0.950 . S
H1080 C1101 0.950 . S
H1081 C1104 0.950 . S
H1082 C1105 0.950 . S
H1083 C1107 0.950 . S
H1084 C1108 0.950 . S
H1085 C1109 0.951 . S
H1086 C1111 0.951 . S
H1087 C1113 0.950 . S
H1088 C1114 0.950 . S
H1089 C1116 0.950 . S
H1090 C1119 0.950 . S
H1091 C1120 0.950 . S
H1092 C1122 0.950 . S
H1093 C1123 0.950 . S
C1094 H1076 0.951 . S
C1094 C1095 1.366 . S
C1094 C1096 1.388 . S
C1095 C1094 1.366 . S
C1095 C1099 1.385 . S
C1096 H1077 0.951 . S
C1096 C1094 1.388 . S
C1096 C1097 1.366 . S
C1097 C1096 1.366 . S
C1097 C1098 1.414 . S
C1097 C1100 1.499 . S
C1098 H1078 0.950 . S
C1098 C1097 1.414 . S
C1098 C1099 1.374 . S
C1099 H1079 0.950 . S
C1099 C1095 1.385 . S
C1099 C1098 1.374 . S
C1100 C1097 1.499 . S
C1100 C1101 1.373 . S
C1100 C1102 1.389 . S
C1101 H1080 0.950 . S
C1101 C1100 1.373 . S
C1101 C1117 1.377 . S
C1102 C1100 1.389 . S
C1102 C1103 1.524 . S
C1102 C1116 1.377 . S
C1103 C1102 1.524 . S
C1103 C1104 1.397 . S
C1103 C1108 1.363 . S
C1104 H1081 0.950 . S
C1104 C1103 1.397 . S
C1104 C1105 1.334 . S
C1105 H1082 0.950 . S
C1105 C1104 1.334 . S
C1105 C1106 1.287 . S
C1106 C1105 1.287 . S
C1106 C1107 1.524 . S
C1106 H1125 0.913 . S
C1107 H1083 0.950 . S
C1107 C1106 1.524 . S
C1107 C1108 1.415 . S
C1108 H1084 0.950 . S
C1108 C1103 1.363 . S
C1108 C1107 1.415 . S
C1109 H1085 0.951 . S
C1109 C1110 1.366 . S
C1109 C1111 1.388 . S
C1110 C1109 1.366 . S
C1110 C1114 1.385 . S
C1111 H1086 0.951 . S
C1111 C1109 1.388 . S
C1111 C1112 1.366 . S
C1112 C1111 1.366 . S
C1112 C1113 1.414 . S
C1112 C1115 1.499 . S
C1113 H1087 0.950 . S
C1113 C1112 1.414 . S
C1113 C1114 1.374 . S
C1114 H1088 0.950 . S
C1114 C1110 1.385 . S
C1114 C1113 1.374 . S
C1115 C1112 1.499 . S
C1115 C1116 1.373 . S
C1115 C1117 1.389 . S
C1116 H1089 0.950 . S
C1116 C1102 1.377 . S
C1116 C1115 1.373 . S
C1117 C1101 1.377 . S
C1117 C1115 1.389 . S
C1117 C1118 1.524 . S
C1118 C1117 1.524 . S
C1118 C1119 1.397 . S
C1118 C1123 1.363 . S
C1119 H1090 0.950 . S
C1119 C1118 1.397 . S
C1119 C1120 1.334 . S
C1120 H1091 0.950 . S
C1120 C1119 1.334 . S
C1120 C1121 1.287 . S
C1121 C1120 1.287 . S
C1121 C1122 1.524 . S
C1121 H1124 0.999 . S
C1122 H1092 0.950 . S
C1122 C1121 1.524 . S
C1122 C1123 1.415 . S
C1123 H1093 0.950 . S
C1123 C1118 1.363 . S
C1123 C1122 1.415 . S
H1124 C1121 0.999 . S
H1125 C1106 0.913 . S
H1126 C1144 0.951 . S
H1127 C1146 0.951 . S
H1128 C1148 0.950 . S
H1129 C1149 0.950 . S
H1130 C1151 0.950 . S
H1131 C1154 0.950 . S
H1132 C1155 0.950 . S
H1133 C1157 0.950 . S
H1134 C1158 0.950 . S
H1135 C1159 0.951 . S
H1136 C1161 0.951 . S
H1137 C1163 0.950 . S
H1138 C1164 0.950 . S
H1139 C1166 0.950 . S
H1140 C1169 0.950 . S
H1141 C1170 0.950 . S
H1142 C1172 0.950 . S
H1143 C1173 0.950 . S
C1144 H1126 0.951 . S
C1144 C1145 1.366 . S
C1144 C1146 1.388 . S
C1145 C1144 1.366 . S
C1145 C1149 1.385 . S
C1146 H1127 0.951 . S
C1146 C1144 1.388 . S
C1146 C1147 1.366 . S
C1147 C1146 1.366 . S
C1147 C1148 1.414 . S
C1147 C1150 1.499 . S
C1148 H1128 0.950 . S
C1148 C1147 1.414 . S
C1148 C1149 1.374 . S
C1149 H1129 0.950 . S
C1149 C1145 1.385 . S
C1149 C1148 1.374 . S
C1150 C1147 1.499 . S
C1150 C1151 1.373 . S
C1150 C1152 1.389 . S
C1151 H1130 0.950 . S
C1151 C1150 1.373 . S
C1151 C1167 1.377 . S
C1152 C1150 1.389 . S
C1152 C1153 1.524 . S
C1152 C1166 1.377 . S
C1153 C1152 1.524 . S
C1153 C1154 1.397 . S
C1153 C1158 1.363 . S
C1154 H1131 0.950 . S
C1154 C1153 1.397 . S
C1154 C1155 1.334 . S
C1155 H1132 0.950 . S
C1155 C1154 1.334 . S
C1155 C1156 1.287 . S
C1156 C1155 1.287 . S
C1156 C1157 1.524 . S
C1156 H1175 0.913 . S
C1157 H1133 0.950 . S
C1157 C1156 1.524 . S
C1157 C1158 1.415 . S
C1158 H1134 0.950 . S
C1158 C1153 1.363 . S
C1158 C1157 1.415 . S
C1159 H1135 0.951 . S
C1159 C1160 1.366 . S
C1159 C1161 1.388 . S
C1160 C1159 1.366 . S
C1160 C1164 1.385 . S
C1161 H1136 0.951 . S
C1161 C1159 1.388 . S
C1161 C1162 1.366 . S
C1162 C1161 1.366 . S
C1162 C1163 1.414 . S
C1162 C1165 1.499 . S
C1163 H1137 0.950 . S
C1163 C1162 1.414 . S
C1163 C1164 1.374 . S
C1164 H1138 0.950 . S
C1164 C1160 1.385 . S
C1164 C1163 1.374 . S
C1165 C1162 1.499 . S
C1165 C1166 1.373 . S
C1165 C1167 1.389 . S
C1166 H1139 0.950 . S
C1166 C1152 1.377 . S
C1166 C1165 1.373 . S
C1167 C1151 1.377 . S
C1167 C1165 1.389 . S
C1167 C1168 1.524 . S
C1168 C1167 1.524 . S
C1168 C1169 1.397 . S
C1168 C1173 1.363 . S
C1169 H1140 0.950 . S
C1169 C1168 1.397 . S
C1169 C1170 1.334 . S
C1170 H1141 0.950 . S
C1170 C1169 1.334 . S
C1170 C1171 1.287 . S
C1171 C1170 1.287 . S
C1171 C1172 1.524 . S
C1171 H1174 0.999 . S
C1172 H1142 0.950 . S
C1172 C1171 1.524 . S
C1172 C1173 1.415 . S
C1173 H1143 0.950 . S
C1173 C1168 1.363 . S
C1173 C1172 1.415 . S
H1174 C1171 0.999 . S
H1175 C1156 0.913 . S
H1176 C1194 0.951 . S
H1177 C1196 0.951 . S
H1178 C1198 0.950 . S
H1179 C1199 0.950 . S
H1180 C1201 0.950 . S
H1181 C1204 0.950 . S
H1182 C1205 0.950 . S
H1183 C1207 0.950 . S
H1184 C1208 0.950 . S
H1185 C1209 0.951 . S
H1186 C1211 0.951 . S
H1187 C1213 0.950 . S
H1188 C1214 0.950 . S
H1189 C1216 0.950 . S
H1190 C1219 0.950 . S
H1191 C1220 0.950 . S
H1192 C1222 0.950 . S
H1193 C1223 0.950 . S
C1194 H1176 0.951 . S
C1194 C1195 1.366 . S
C1194 C1196 1.388 . S
C1195 C1194 1.366 . S
C1195 C1199 1.385 . S
C1196 H1177 0.951 . S
C1196 C1194 1.388 . S
C1196 C1197 1.366 . S
C1197 C1196 1.366 . S
C1197 C1198 1.414 . S
C1197 C1200 1.499 . S
C1198 H1178 0.950 . S
C1198 C1197 1.414 . S
C1198 C1199 1.374 . S
C1199 H1179 0.950 . S
C1199 C1195 1.385 . S
C1199 C1198 1.374 . S
C1200 C1197 1.499 . S
C1200 C1201 1.373 . S
C1200 C1202 1.389 . S
C1201 H1180 0.950 . S
C1201 C1200 1.373 . S
C1201 C1217 1.377 . S
C1202 C1200 1.389 . S
C1202 C1203 1.524 . S
C1202 C1216 1.377 . S
C1203 C1202 1.524 . S
C1203 C1204 1.397 . S
C1203 C1208 1.363 . S
C1204 H1181 0.950 . S
C1204 C1203 1.397 . S
C1204 C1205 1.334 . S
C1205 H1182 0.950 . S
C1205 C1204 1.334 . S
C1205 C1206 1.287 . S
C1206 C1205 1.287 . S
C1206 C1207 1.524 . S
C1206 H1225 0.913 . S
C1207 H1183 0.950 . S
C1207 C1206 1.524 . S
C1207 C1208 1.415 . S
C1208 H1184 0.950 . S
C1208 C1203 1.363 . S
C1208 C1207 1.415 . S
C1209 H1185 0.951 . S
C1209 C1210 1.366 . S
C1209 C1211 1.388 . S
C1210 C1209 1.366 . S
C1210 C1214 1.385 . S
C1211 H1186 0.951 . S
C1211 C1209 1.388 . S
C1211 C1212 1.366 . S
C1212 C1211 1.366 . S
C1212 C1213 1.414 . S
C1212 C1215 1.499 . S
C1213 H1187 0.950 . S
C1213 C1212 1.414 . S
C1213 C1214 1.374 . S
C1214 H1188 0.950 . S
C1214 C1210 1.385 . S
C1214 C1213 1.374 . S
C1215 C1212 1.499 . S
C1215 C1216 1.373 . S
C1215 C1217 1.389 . S
C1216 H1189 0.950 . S
C1216 C1202 1.377 . S
C1216 C1215 1.373 . S
C1217 C1201 1.377 . S
C1217 C1215 1.389 . S
C1217 C1218 1.524 . S
C1218 C1217 1.524 . S
C1218 C1219 1.397 . S
C1218 C1223 1.363 . S
C1219 H1190 0.950 . S
C1219 C1218 1.397 . S
C1219 C1220 1.334 . S
C1220 H1191 0.950 . S
C1220 C1219 1.334 . S
C1220 C1221 1.287 . S
C1221 C1220 1.287 . S
C1221 C1222 1.524 . S
C1221 H1224 0.999 . S
C1222 H1192 0.950 . S
C1222 C1221 1.524 . S
C1222 C1223 1.415 . S
C1223 H1193 0.950 . S
C1223 C1218 1.363 . S
C1223 C1222 1.415 . S
H1224 C1221 0.999 . S
H1225 C1206 0.913 . S
H1226 C1244 0.951 . S
H1227 C1246 0.951 . S
H1228 C1248 0.950 . S
H1229 C1249 0.950 . S
H1230 C1251 0.950 . S
H1231 C1254 0.950 . S
H1232 C1255 0.950 . S
H1233 C1257 0.950 . S
H1234 C1258 0.950 . S
H1235 C1259 0.951 . S
H1236 C1261 0.951 . S
H1237 C1263 0.950 . S
H1238 C1264 0.950 . S
H1239 C1266 0.950 . S
H1240 C1269 0.950 . S
H1241 C1270 0.950 . S
H1242 C1272 0.950 . S
H1243 C1273 0.950 . S
C1244 H1226 0.951 . S
C1244 C1245 1.366 . S
C1244 C1246 1.388 . S
C1245 C1244 1.366 . S
C1245 C1249 1.385 . S
C1246 H1227 0.951 . S
C1246 C1244 1.388 . S
C1246 C1247 1.366 . S
C1247 C1246 1.366 . S
C1247 C1248 1.414 . S
C1247 C1250 1.499 . S
C1248 H1228 0.950 . S
C1248 C1247 1.414 . S
C1248 C1249 1.374 . S
C1249 H1229 0.950 . S
C1249 C1245 1.385 . S
C1249 C1248 1.374 . S
C1250 C1247 1.499 . S
C1250 C1251 1.373 . S
C1250 C1252 1.389 . S
C1251 H1230 0.950 . S
C1251 C1250 1.373 . S
C1251 C1267 1.377 . S
C1252 C1250 1.389 . S
C1252 C1253 1.524 . S
C1252 C1266 1.377 . S
C1253 C1252 1.524 . S
C1253 C1254 1.397 . S
C1253 C1258 1.363 . S
C1254 H1231 0.950 . S
C1254 C1253 1.397 . S
C1254 C1255 1.334 . S
C1255 H1232 0.950 . S
C1255 C1254 1.334 . S
C1255 C1256 1.287 . S
C1256 C1255 1.287 . S
C1256 C1257 1.524 . S
C1256 H1275 0.913 . S
C1257 H1233 0.950 . S
C1257 C1256 1.524 . S
C1257 C1258 1.415 . S
C1258 H1234 0.950 . S
C1258 C1253 1.363 . S
C1258 C1257 1.415 . S
C1259 H1235 0.951 . S
C1259 C1260 1.366 . S
C1259 C1261 1.388 . S
C1260 C1259 1.366 . S
C1260 C1264 1.385 . S
C1261 H1236 0.951 . S
C1261 C1259 1.388 . S
C1261 C1262 1.366 . S
C1262 C1261 1.366 . S
C1262 C1263 1.414 . S
C1262 C1265 1.499 . S
C1263 H1237 0.950 . S
C1263 C1262 1.414 . S
C1263 C1264 1.374 . S
C1264 H1238 0.950 . S
C1264 C1260 1.385 . S
C1264 C1263 1.374 . S
C1265 C1262 1.499 . S
C1265 C1266 1.373 . S
C1265 C1267 1.389 . S
C1266 H1239 0.950 . S
C1266 C1252 1.377 . S
C1266 C1265 1.373 . S
C1267 C1251 1.377 . S
C1267 C1265 1.389 . S
C1267 C1268 1.524 . S
C1268 C1267 1.524 . S
C1268 C1269 1.397 . S
C1268 C1273 1.363 . S
C1269 H1240 0.950 . S
C1269 C1268 1.397 . S
C1269 C1270 1.334 . S
C1270 H1241 0.950 . S
C1270 C1269 1.334 . S
C1270 C1271 1.287 . S
C1271 C1270 1.287 . S
C1271 C1272 1.524 . S
C1271 H1274 0.999 . S
C1272 H1242 0.950 . S
C1272 C1271 1.524 . S
C1272 C1273 1.415 . S
C1273 H1243 0.950 . S
C1273 C1268 1.363 . S
C1273 C1272 1.415 . S
H1274 C1271 0.999 . S
H1275 C1256 0.913 . S
H1276 C1294 0.951 . S
H1277 C1296 0.951 . S
H1278 C1298 0.950 . S
H1279 C1299 0.950 . S
H1280 C1301 0.950 . S
H1281 C1304 0.950 . S
H1282 C1305 0.950 . S
H1283 C1307 0.950 . S
H1284 C1308 0.950 . S
H1285 C1309 0.951 . S
H1286 C1311 0.951 . S
H1287 C1313 0.950 . S
H1288 C1314 0.950 . S
H1289 C1316 0.950 . S
H1290 C1319 0.950 . S
H1291 C1320 0.950 . S
H1292 C1322 0.950 . S
H1293 C1323 0.950 . S
C1294 H1276 0.951 . S
C1294 C1295 1.366 . S
C1294 C1296 1.388 . S
C1295 C1294 1.366 . S
C1295 C1299 1.385 . S
C1296 H1277 0.951 . S
C1296 C1294 1.388 . S
C1296 C1297 1.366 . S
C1297 C1296 1.366 . S
C1297 C1298 1.414 . S
C1297 C1300 1.499 . S
C1298 H1278 0.950 . S
C1298 C1297 1.414 . S
C1298 C1299 1.374 . S
C1299 H1279 0.950 . S
C1299 C1295 1.385 . S
C1299 C1298 1.374 . S
C1300 C1297 1.499 . S
C1300 C1301 1.373 . S
C1300 C1302 1.389 . S
C1301 H1280 0.950 . S
C1301 C1300 1.373 . S
C1301 C1317 1.377 . S
C1302 C1300 1.389 . S
C1302 C1303 1.524 . S
C1302 C1316 1.377 . S
C1303 C1302 1.524 . S
C1303 C1304 1.397 . S
C1303 C1308 1.363 . S
C1304 H1281 0.950 . S
C1304 C1303 1.397 . S
C1304 C1305 1.334 . S
C1305 H1282 0.950 . S
C1305 C1304 1.334 . S
C1305 C1306 1.287 . S
C1306 C1305 1.287 . S
C1306 C1307 1.524 . S
C1306 H1325 0.913 . S
C1307 H1283 0.950 . S
C1307 C1306 1.524 . S
C1307 C1308 1.415 . S
C1308 H1284 0.950 . S
C1308 C1303 1.363 . S
C1308 C1307 1.415 . S
C1309 H1285 0.951 . S
C1309 C1310 1.366 . S
C1309 C1311 1.388 . S
C1310 C1309 1.366 . S
C1310 C1314 1.385 . S
C1311 H1286 0.951 . S
C1311 C1309 1.388 . S
C1311 C1312 1.366 . S
C1312 C1311 1.366 . S
C1312 C1313 1.414 . S
C1312 C1315 1.499 . S
C1313 H1287 0.950 . S
C1313 C1312 1.414 . S
C1313 C1314 1.374 . S
C1314 H1288 0.950 . S
C1314 C1310 1.385 . S
C1314 C1313 1.374 . S
C1315 C1312 1.499 . S
C1315 C1316 1.373 . S
C1315 C1317 1.389 . S
C1316 H1289 0.950 . S
C1316 C1302 1.377 . S
C1316 C1315 1.373 . S
C1317 C1301 1.377 . S
C1317 C1315 1.389 . S
C1317 C1318 1.524 . S
C1318 C1317 1.524 . S
C1318 C1319 1.397 . S
C1318 C1323 1.363 . S
C1319 H1290 0.950 . S
C1319 C1318 1.397 . S
C1319 C1320 1.334 . S
C1320 H1291 0.950 . S
C1320 C1319 1.334 . S
C1320 C1321 1.287 . S
C1321 C1320 1.287 . S
C1321 C1322 1.524 . S
C1321 H1324 0.999 . S
C1322 H1292 0.950 . S
C1322 C1321 1.524 . S
C1322 C1323 1.415 . S
C1323 H1293 0.950 . S
C1323 C1318 1.363 . S
C1323 C1322 1.415 . S
H1324 C1321 0.999 . S
H1325 C1306 0.913 . S
H1326 C1344 0.951 . S
H1327 C1346 0.951 . S
H1328 C1348 0.950 . S
H1329 C1349 0.950 . S
H1330 C1351 0.950 . S
H1331 C1354 0.950 . S
H1332 C1355 0.950 . S
H1333 C1357 0.950 . S
H1334 C1358 0.950 . S
H1335 C1359 0.951 . S
H1336 C1361 0.951 . S
H1337 C1363 0.950 . S
H1338 C1364 0.950 . S
H1339 C1366 0.950 . S
H1340 C1369 0.950 . S
H1341 C1370 0.950 . S
H1342 C1372 0.950 . S
H1343 C1373 0.950 . S
C1344 H1326 0.951 . S
C1344 C1345 1.366 . S
C1344 C1346 1.388 . S
C1345 C1344 1.366 . S
C1345 C1349 1.385 . S
C1346 H1327 0.951 . S
C1346 C1344 1.388 . S
C1346 C1347 1.366 . S
C1347 C1346 1.366 . S
C1347 C1348 1.414 . S
C1347 C1350 1.499 . S
C1348 H1328 0.950 . S
C1348 C1347 1.414 . S
C1348 C1349 1.374 . S
C1349 H1329 0.950 . S
C1349 C1345 1.385 . S
C1349 C1348 1.374 . S
C1350 C1347 1.499 . S
C1350 C1351 1.373 . S
C1350 C1352 1.389 . S
C1351 H1330 0.950 . S
C1351 C1350 1.373 . S
C1351 C1367 1.377 . S
C1352 C1350 1.389 . S
C1352 C1353 1.524 . S
C1352 C1366 1.377 . S
C1353 C1352 1.524 . S
C1353 C1354 1.397 . S
C1353 C1358 1.363 . S
C1354 H1331 0.950 . S
C1354 C1353 1.397 . S
C1354 C1355 1.334 . S
C1355 H1332 0.950 . S
C1355 C1354 1.334 . S
C1355 C1356 1.287 . S
C1356 C1355 1.287 . S
C1356 C1357 1.524 . S
C1356 H1375 0.913 . S
C1357 H1333 0.950 . S
C1357 C1356 1.524 . S
C1357 C1358 1.415 . S
C1358 H1334 0.950 . S
C1358 C1353 1.363 . S
C1358 C1357 1.415 . S
C1359 H1335 0.951 . S
C1359 C1360 1.366 . S
C1359 C1361 1.388 . S
C1360 C1359 1.366 . S
C1360 C1364 1.385 . S
C1361 H1336 0.951 . S
C1361 C1359 1.388 . S
C1361 C1362 1.366 . S
C1362 C1361 1.366 . S
C1362 C1363 1.414 . S
C1362 C1365 1.499 . S
C1363 H1337 0.950 . S
C1363 C1362 1.414 . S
C1363 C1364 1.374 . S
C1364 H1338 0.950 . S
C1364 C1360 1.385 . S
C1364 C1363 1.374 . S
C1365 C1362 1.499 . S
C1365 C1366 1.373 . S
C1365 C1367 1.389 . S
C1366 H1339 0.950 . S
C1366 C1352 1.377 . S
C1366 C1365 1.373 . S
C1367 C1351 1.377 . S
C1367 C1365 1.389 . S
C1367 C1368 1.524 . S
C1368 C1367 1.524 . S
C1368 C1369 1.397 . S
C1368 C1373 1.363 . S
C1369 H1340 0.950 . S
C1369 C1368 1.397 . S
C1369 C1370 1.334 . S
C1370 H1341 0.950 . S
C1370 C1369 1.334 . S
C1370 C1371 1.287 . S
C1371 C1370 1.287 . S
C1371 C1372 1.524 . S
C1371 H1374 0.999 . S
C1372 H1342 0.950 . S
C1372 C1371 1.524 . S
C1372 C1373 1.415 . S
C1373 H1343 0.950 . S
C1373 C1368 1.363 . S
C1373 C1372 1.415 . S
H1374 C1371 0.999 . S
H1375 C1356 0.913 . S
C195 C96 1.647 . S
C210 C8 1.688 . S
C245 C19 1.688 . S
C260 C107 1.646 . S
C295 C118 1.646 . S
C310 C30 1.688 . S
C345 C41 1.688 . S
C360 C129 1.646 . S
C395 C52 1.688 . S
C410 C140 1.646 . S
C445 C151 1.647 . S
C460 C63 1.689 . S
C495 C162 1.646 . S
C510 C74 1.688 . S
C545 C173 1.647 . S
C560 C85 1.688 . S
C595 C7 1.584 . S
C610 C62 1.584 . S
C645 C73 1.584 . S
C660 C18 1.584 . S
C695 C84 1.584 . S
C710 C29 1.584 . S
C745 C40 1.584 . S
C760 C51 1.584 . S
C795 C95 1.527 . S
C810 C150 1.526 . S
C845 C161 1.528 . S
C860 C106 1.526 . S
C895 C117 1.527 . S
C910 C172 1.528 . S
C945 C139 1.528 . S
C960 C128 1.527 . S
C995 C137 1.374 . S
C1010 C5 1.487 . S
C1045 C148 1.372 . S
C1060 C16 1.486 . S
C1095 C27 1.488 . S
C1110 C159 1.375 . S
C1145 C170 1.372 . S
C1160 C38 1.487 . S
C1195 C49 1.487 . S
C1210 C93 1.373 . S
C1245 C104 1.373 . S
C1260 C60 1.488 . S
C1295 C115 1.374 . S
C1310 C71 1.488 . S
C1345 C126 1.374 . S
C1360 C82 1.487 . S
