# Generated by pormake.
# Topology nfa, (4)-cn, num edge types: 1
# Building blocks:
#     Node 0, Type 0, BuildingBlock: MUDLON_clean_sbu_0, # of connection points: 4
#     Node 1, Type 0, BuildingBlock: MUDLON_clean_sbu_0, # of connection points: 4
#     Node 2, Type 0, BuildingBlock: MUDLON_clean_sbu_0, # of connection points: 4
#     Node 3, Type 0, BuildingBlock: MUDLON_clean_sbu_0, # of connection points: 4
#     Node 4, Type 0, BuildingBlock: MUDLON_clean_sbu_0, # of connection points: 4
#     Node 5, Type 0, BuildingBlock: MUDLON_clean_sbu_0, # of connection points: 4
#     Node 6, Type 0, BuildingBlock: MUDLON_clean_sbu_0, # of connection points: 4
#     Node 7, Type 0, BuildingBlock: MUDLON_clean_sbu_0, # of connection points: 4
#     Node 8, Type 0, BuildingBlock: MUDLON_clean_sbu_0, # of connection points: 4
#     Node 9, Type 0, BuildingBlock: MUDLON_clean_sbu_0, # of connection points: 4
#     Node 10, Type 0, BuildingBlock: MUDLON_clean_sbu_0, # of connection points: 4
#     Node 11, Type 0, BuildingBlock: MUDLON_clean_sbu_0, # of connection points: 4
#     Node 12, Type 0, BuildingBlock: MUDLON_clean_sbu_0, # of connection points: 4
#     Node 13, Type 0, BuildingBlock: MUDLON_clean_sbu_0, # of connection points: 4
#     Node 14, Type 0, BuildingBlock: MUDLON_clean_sbu_0, # of connection points: 4
#     Node 15, Type 0, BuildingBlock: MUDLON_clean_sbu_0, # of connection points: 4
#     Node 16, Type 0, BuildingBlock: MUDLON_clean_sbu_0, # of connection points: 4
#     Node 17, Type 0, BuildingBlock: MUDLON_clean_sbu_0, # of connection points: 4
#     Node 18, Type 0, BuildingBlock: MUDLON_clean_sbu_0, # of connection points: 4
#     Node 19, Type 0, BuildingBlock: MUDLON_clean_sbu_0, # of connection points: 4
#     Node 20, Type 0, BuildingBlock: MUDLON_clean_sbu_0, # of connection points: 4
#     Node 21, Type 0, BuildingBlock: MUDLON_clean_sbu_0, # of connection points: 4
#     Node 22, Type 0, BuildingBlock: MUDLON_clean_sbu_0, # of connection points: 4
#     Node 23, Type 0, BuildingBlock: MUDLON_clean_sbu_0, # of connection points: 4
#     Edge 24, Type (0, 0), BuildingBlock: ZUJKAS_clean_linker_0, # of connection points: 2
#     Edge 25, Type (0, 0), BuildingBlock: ZUJKAS_clean_linker_0, # of connection points: 2
#     Edge 26, Type (0, 0), BuildingBlock: ZUJKAS_clean_linker_0, # of connection points: 2
#     Edge 27, Type (0, 0), BuildingBlock: ZUJKAS_clean_linker_0, # of connection points: 2
#     Edge 28, Type (0, 0), BuildingBlock: ZUJKAS_clean_linker_0, # of connection points: 2
#     Edge 29, Type (0, 0), BuildingBlock: ZUJKAS_clean_linker_0, # of connection points: 2
#     Edge 30, Type (0, 0), BuildingBlock: ZUJKAS_clean_linker_0, # of connection points: 2
#     Edge 31, Type (0, 0), BuildingBlock: ZUJKAS_clean_linker_0, # of connection points: 2
#     Edge 32, Type (0, 0), BuildingBlock: ZUJKAS_clean_linker_0, # of connection points: 2
#     Edge 33, Type (0, 0), BuildingBlock: ZUJKAS_clean_linker_0, # of connection points: 2
#     Edge 34, Type (0, 0), BuildingBlock: ZUJKAS_clean_linker_0, # of connection points: 2
#     Edge 35, Type (0, 0), BuildingBlock: ZUJKAS_clean_linker_0, # of connection points: 2
#     Edge 36, Type (0, 0), BuildingBlock: ZUJKAS_clean_linker_0, # of connection points: 2
#     Edge 37, Type (0, 0), BuildingBlock: ZUJKAS_clean_linker_0, # of connection points: 2
#     Edge 38, Type (0, 0), BuildingBlock: ZUJKAS_clean_linker_0, # of connection points: 2
#     Edge 39, Type (0, 0), BuildingBlock: ZUJKAS_clean_linker_0, # of connection points: 2
#     Edge 40, Type (0, 0), BuildingBlock: ZUJKAS_clean_linker_0, # of connection points: 2
#     Edge 41, Type (0, 0), BuildingBlock: ZUJKAS_clean_linker_0, # of connection points: 2
#     Edge 42, Type (0, 0), BuildingBlock: ZUJKAS_clean_linker_0, # of connection points: 2
#     Edge 43, Type (0, 0), BuildingBlock: ZUJKAS_clean_linker_0, # of connection points: 2
#     Edge 44, Type (0, 0), BuildingBlock: ZUJKAS_clean_linker_0, # of connection points: 2
#     Edge 45, Type (0, 0), BuildingBlock: ZUJKAS_clean_linker_0, # of connection points: 2
#     Edge 46, Type (0, 0), BuildingBlock: ZUJKAS_clean_linker_0, # of connection points: 2
#     Edge 47, Type (0, 0), BuildingBlock: ZUJKAS_clean_linker_0, # of connection points: 2
#     Edge 48, Type (0, 0), BuildingBlock: ZUJKAS_clean_linker_0, # of connection points: 2
#     Edge 49, Type (0, 0), BuildingBlock: ZUJKAS_clean_linker_0, # of connection points: 2
#     Edge 50, Type (0, 0), BuildingBlock: ZUJKAS_clean_linker_0, # of connection points: 2
#     Edge 51, Type (0, 0), BuildingBlock: ZUJKAS_clean_linker_0, # of connection points: 2
#     Edge 52, Type (0, 0), BuildingBlock: ZUJKAS_clean_linker_0, # of connection points: 2
#     Edge 53, Type (0, 0), BuildingBlock: ZUJKAS_clean_linker_0, # of connection points: 2
#     Edge 54, Type (0, 0), BuildingBlock: ZUJKAS_clean_linker_0, # of connection points: 2
#     Edge 55, Type (0, 0), BuildingBlock: ZUJKAS_clean_linker_0, # of connection points: 2
#     Edge 56, Type (0, 0), BuildingBlock: ZUJKAS_clean_linker_0, # of connection points: 2
#     Edge 57, Type (0, 0), BuildingBlock: ZUJKAS_clean_linker_0, # of connection points: 2
#     Edge 58, Type (0, 0), BuildingBlock: ZUJKAS_clean_linker_0, # of connection points: 2
#     Edge 59, Type (0, 0), BuildingBlock: ZUJKAS_clean_linker_0, # of connection points: 2
#     Edge 60, Type (0, 0), BuildingBlock: ZUJKAS_clean_linker_0, # of connection points: 2
#     Edge 61, Type (0, 0), BuildingBlock: ZUJKAS_clean_linker_0, # of connection points: 2
#     Edge 62, Type (0, 0), BuildingBlock: ZUJKAS_clean_linker_0, # of connection points: 2
#     Edge 63, Type (0, 0), BuildingBlock: ZUJKAS_clean_linker_0, # of connection points: 2
#     Edge 64, Type (0, 0), BuildingBlock: ZUJKAS_clean_linker_0, # of connection points: 2
#     Edge 65, Type (0, 0), BuildingBlock: ZUJKAS_clean_linker_0, # of connection points: 2
#     Edge 66, Type (0, 0), BuildingBlock: ZUJKAS_clean_linker_0, # of connection points: 2
#     Edge 67, Type (0, 0), BuildingBlock: ZUJKAS_clean_linker_0, # of connection points: 2
#     Edge 68, Type (0, 0), BuildingBlock: ZUJKAS_clean_linker_0, # of connection points: 2
#     Edge 69, Type (0, 0), BuildingBlock: ZUJKAS_clean_linker_0, # of connection points: 2
#     Edge 70, Type (0, 0), BuildingBlock: ZUJKAS_clean_linker_0, # of connection points: 2
#     Edge 71, Type (0, 0), BuildingBlock: ZUJKAS_clean_linker_0, # of connection points: 2
# Relax obj value: 0.350
# Max RMSD: 0.277
# Mean RMSD: 0.239
data_MOF--net-nfa--node1-MUDLON_clean_sbu_0--edge1-ZUJKAS_clean_linker_0
_symmetry_space_group_name_H-M    P1
_symmetry_Int_Tables_number       1
_symmetry_cell_setting            triclinic
loop_
_symmetry_equiv_pos_as_xyz
'x, y, z'
_cell_length_a     48.903613
_cell_length_b     55.829277
_cell_length_c     49.095216
_cell_angle_alpha  89.837629
_cell_angle_beta   90.237331
_cell_angle_gamma 90.103299
loop_
_atom_site_label
_atom_site_type_symbol
_atom_site_fract_x
_atom_site_fract_y
_atom_site_fract_z
_atom_type_partial_charge
Mg0 Mg 0.15866 0.36745 0.38683 0.0
C1 C 0.20796 0.38312 0.35349 0.0
O2 O 0.18934 0.39358 0.33825 0.0
C3 C 0.13509 0.31771 0.37094 0.0
O4 O 0.16034 0.31039 0.37466 0.0
C5 C 0.13091 0.40486 0.35277 0.0
O6 O 0.12431 0.38495 0.34011 0.0
O7 O 0.14367 0.40326 0.37541 0.0
O8 O 0.20033 0.36782 0.37113 0.0
O9 O 0.16569 0.35962 0.43022 0.0
C10 C 0.18457 0.34418 0.43393 0.0
O11 O 0.19721 0.33572 0.41248 0.0
O12 O 0.12972 0.33994 0.37297 0.0
Mg13 Mg 0.92949 0.91459 0.60017 0.0
C14 C 0.9109 0.96462 0.57856 0.0
O15 O 0.92059 0.95761 0.55498 0.0
C16 C 0.94581 0.89155 0.54784 0.0
O17 O 0.91915 0.89225 0.54453 0.0
C18 C 0.87169 0.8961 0.59438 0.0
O19 O 0.86645 0.91917 0.59425 0.0
O20 O 0.89608 0.88912 0.5983 0.0
O21 O 0.91306 0.95089 0.59917 0.0
O22 O 0.95291 0.90911 0.6371 0.0
C23 C 0.97661 0.91845 0.63775 0.0
O24 O 0.98451 0.93172 0.61707 0.0
O25 O 0.95635 0.90302 0.56762 0.0
Mg26 Mg 0.34445 0.64185 0.91107 0.0
C27 C 0.29203 0.6218 0.88811 0.0
O28 O 0.30943 0.61098 0.87199 0.0
C29 C 0.39309 0.67116 0.90182 0.0
O30 O 0.3994 0.65606 0.92144 0.0
C31 C 0.37296 0.60442 0.87815 0.0
O32 O 0.37917 0.62408 0.86476 0.0
O33 O 0.36022 0.60629 0.90063 0.0
O34 O 0.30071 0.6387 0.90318 0.0
O35 O 0.3438 0.65273 0.95373 0.0
C36 C 0.33865 0.67502 0.95562 0.0
O37 O 0.33596 0.68757 0.93309 0.0
O38 O 0.36938 0.66958 0.89106 0.0
Mg39 Mg 0.57433 0.12418 0.04411 0.0
C40 C 0.52472 0.14491 0.01471 0.0
O41 O 0.51152 0.13398 0.0344 0.0
C42 C 0.60928 0.08886 0.01573 0.0
O43 O 0.61595 0.10912 0.00376 0.0
C44 C 0.53367 0.11056 0.08883 0.0
O45 O 0.52807 0.0928 0.07219 0.0
O46 O 0.55237 0.12538 0.0825 0.0
O47 O 0.55032 0.14168 0.01251 0.0
O48 O 0.6106 0.14619 0.04761 0.0
C49 C 0.61147 0.16715 0.03746 0.0
O50 O 0.58903 0.17658 0.02734 0.0
O51 O 0.59018 0.08902 0.03329 0.0
Mg52 Mg 0.12819 0.62686 0.10947 0.0
C53 C 0.14431 0.60286 0.05573 0.0
O54 O 0.14426 0.62501 0.04659 0.0
C55 C 0.08556 0.66306 0.1212 0.0
O56 O 0.10356 0.66621 0.14082 0.0
C57 C 0.14506 0.59083 0.15241 0.0
O58 O 0.15873 0.58319 0.13116 0.0
O59 O 0.13109 0.60999 0.15003 0.0
O60 O 0.13602 0.59869 0.07983 0.0
O61 O 0.15849 0.65423 0.10016 0.0
C62 C 0.18286 0.65008 0.09252 0.0
O63 O 0.19251 0.62818 0.0942 0.0
O64 O 0.08944 0.64608 0.10437 0.0
Mg65 Mg 0.61232 0.87284 0.45708 0.0
C66 C 0.6282 0.92505 0.46296 0.0
O67 O 0.61355 0.92661 0.44054 0.0
C68 C 0.58978 0.84077 0.50348 0.0
O69 O 0.61386 0.84395 0.51489 0.0
C70 C 0.65119 0.82979 0.45625 0.0
O71 O 0.62933 0.81738 0.4628 0.0
O72 O 0.64875 0.85186 0.45033 0.0
O73 O 0.62891 0.90518 0.47569 0.0
O74 O 0.5909 0.88058 0.41937 0.0
C75 C 0.56687 0.88888 0.4219 0.0
O76 O 0.55759 0.89314 0.4465 0.0
O77 O 0.58413 0.85175 0.48144 0.0
Mg78 Mg 0.3612 0.39956 0.62278 0.0
C79 C 0.42246 0.39046 0.6326 0.0
O80 O 0.41761 0.40293 0.65468 0.0
C81 C 0.32013 0.43327 0.60643 0.0
O82 O 0.3093 0.41867 0.62447 0.0
C83 C 0.34481 0.35051 0.60143 0.0
O84 O 0.37066 0.34629 0.60693 0.0
O85 O 0.33457 0.37046 0.6086 0.0
O86 O 0.40342 0.38786 0.61505 0.0
O87 O 0.3579 0.41166 0.66521 0.0
C88 C 0.36746 0.43275 0.66834 0.0
O89 O 0.37764 0.44373 0.64693 0.0
O90 O 0.34501 0.43 0.59978 0.0
Mg91 Mg 0.91256 0.11521 0.92497 0.0
C92 C 0.96204 0.14248 0.94511 0.0
O93 O 0.96855 0.14009 0.91937 0.0
C94 C 0.90105 0.06016 0.92686 0.0
O95 O 0.92507 0.05788 0.91536 0.0
C96 C 0.9513 0.10386 0.87921 0.0
O97 O 0.96255 0.09125 0.8989 0.0
O98 O 0.92967 0.11564 0.88414 0.0
O99 O 0.94121 0.13133 0.95411 0.0
O100 O 0.87875 0.14002 0.9274 0.0
C101 C 0.87247 0.14524 0.95177 0.0
O102 O 0.88677 0.1357 0.97174 0.0
O103 O 0.89294 0.08082 0.93411 0.0
Mg104 Mg 0.29458 0.16473 0.33685 0.0
C105 C 0.24136 0.14156 0.32146 0.0
O106 O 0.23773 0.14313 0.34788 0.0
C107 C 0.2732 0.19793 0.38089 0.0
O108 O 0.25689 0.17952 0.3847 0.0
C109 C 0.32948 0.16602 0.28687 0.0
O110 O 0.30512 0.16955 0.27623 0.0
O111 O 0.33175 0.16423 0.31262 0.0
O112 O 0.26116 0.15297 0.31076 0.0
O113 O 0.29575 0.13529 0.36517 0.0
C114 C 0.30812 0.13582 0.38789 0.0
O115 O 0.32317 0.15457 0.39407 0.0
O116 O 0.29007 0.19738 0.36118 0.0
Mg117 Mg 0.22005 0.1426 0.67839 0.0
C118 C 0.15734 0.14409 0.68451 0.0
O119 O 0.15715 0.14748 0.65802 0.0
C120 C 0.20545 0.1075 0.63036 0.0
O121 O 0.18278 0.10151 0.64292 0.0
C122 C 0.23714 0.09968 0.70512 0.0
O123 O 0.21311 0.09575 0.69395 0.0
O124 O 0.24708 0.12075 0.70369 0.0
O125 O 0.18002 0.14194 0.69701 0.0
O126 O 0.2323 0.17877 0.66645 0.0
C127 C 0.215 0.19577 0.66715 0.0
O128 O 0.19161 0.19217 0.67958 0.0
O129 O 0.22125 0.12329 0.64043 0.0
Mg130 Mg 0.23854 0.8583 0.86003 0.0
C131 C 0.28746 0.8851 0.83664 0.0
O132 O 0.29543 0.88517 0.8622 0.0
C133 C 0.26547 0.81286 0.88692 0.0
O134 O 0.28923 0.82278 0.88156 0.0
C135 C 0.19713 0.85471 0.81525 0.0
O136 O 0.21922 0.84765 0.80243 0.0
O137 O 0.19882 0.85979 0.84041 0.0
O138 O 0.26712 0.87215 0.82985 0.0
O139 O 0.23821 0.88449 0.89253 0.0
C140 C 0.25631 0.8826 0.91102 0.0
O141 O 0.27339 0.86452 0.91022 0.0
O142 O 0.24362 0.82299 0.87871 0.0
Mg143 Mg 0.29736 0.88103 0.20319 0.0
C144 C 0.35586 0.89194 0.22012 0.0
O145 O 0.35525 0.90464 0.19756 0.0
C146 C 0.29354 0.92487 0.16647 0.0
O147 O 0.28094 0.93402 0.18757 0.0
C148 C 0.27221 0.90987 0.24727 0.0
O149 O 0.29726 0.90696 0.25643 0.0
O150 O 0.26487 0.89841 0.2261 0.0
O151 O 0.33474 0.88017 0.22713 0.0
O152 O 0.28968 0.84549 0.18629 0.0
C153 C 0.31111 0.83561 0.17691 0.0
O154 O 0.33463 0.8467 0.18005 0.0
O155 O 0.3032 0.90376 0.168 0.0
Mg156 Mg 0.38683 0.40197 0.03667 0.0
C157 C 0.35015 0.43458 0.00528 0.0
O158 O 0.34681 0.41427 0.99219 0.0
C159 C 0.43392 0.37859 0.00684 0.0
O160 O 0.44809 0.389 0.02627 0.0
C161 C 0.35121 0.35792 0.03525 0.0
O162 O 0.37358 0.34863 0.02505 0.0
O163 O 0.35195 0.37915 0.04455 0.0
O164 O 0.36785 0.43556 0.02435 0.0
O165 O 0.41286 0.40451 0.07258 0.0
C166 C 0.43098 0.42077 0.07462 0.0
O167 O 0.43262 0.43718 0.05547 0.0
O168 O 0.40863 0.38342 0.00451 0.0
Mg169 Mg 0.82795 0.8723 0.09942 0.0
C170 C 0.88271 0.84903 0.11145 0.0
O171 O 0.87591 0.85604 0.13602 0.0
C172 C 0.78649 0.89823 0.0692 0.0
O173 O 0.77372 0.88678 0.08881 0.0
C174 C 0.80449 0.82267 0.09232 0.0
O175 O 0.82998 0.81647 0.09694 0.0
O176 O 0.79724 0.84401 0.09754 0.0
O177 O 0.8674 0.85491 0.09147 0.0
O178 O 0.82901 0.89636 0.13457 0.0
C179 C 0.82884 0.89235 0.16009 0.0
O180 O 0.82762 0.87019 0.1691 0.0
O181 O 0.81235 0.89591 0.06737 0.0
Mg182 Mg 0.08583 0.65407 0.54076 0.0
C183 C 0.13534 0.62244 0.53322 0.0
O184 O 0.14001 0.63876 0.51449 0.0
C185 C 0.04534 0.65865 0.4897 0.0
O186 O 0.03342 0.64815 0.46887 0.0
C187 C 0.11779 0.69028 0.50857 0.0
O188 O 0.10389 0.67996 0.48888 0.0
O189 O 0.11253 0.68446 0.53305 0.0
O190 O 0.11364 0.62392 0.54738 0.0
O191 O 0.06046 0.6584 0.57684 0.0
C192 C 0.03828 0.64652 0.57798 0.0
O193 O 0.03201 0.63216 0.55773 0.0
O194 O 0.06044 0.64588 0.50523 0.0
Mg195 Mg 0.62452 0.90187 0.88384 0.0
C196 C 0.68472 0.89167 0.88707 0.0
O197 O 0.67663 0.8785 0.90774 0.0
C198 C 0.60111 0.85088 0.87306 0.0
O199 O 0.62581 0.84373 0.87981 0.0
C200 C 0.60556 0.934 0.83977 0.0
O201 O 0.606 0.91274 0.82836 0.0
O202 O 0.61114 0.93552 0.86509 0.0
O203 O 0.6668 0.89974 0.87057 0.0
O204 O 0.63001 0.90143 0.92807 0.0
C205 C 0.61823 0.88553 0.94246 0.0
O206 O 0.59833 0.87296 0.93149 0.0
O207 O 0.59605 0.87322 0.87208 0.0
Mg208 Mg 0.85979 0.12457 0.39014 0.0
C209 C 0.87184 0.08997 0.34474 0.0
O210 O 0.89575 0.09098 0.35702 0.0
C211 C 0.83861 0.17059 0.41137 0.0
O212 O 0.86474 0.17173 0.41752 0.0
C213 C 0.85233 0.07816 0.4229 0.0
O214 O 0.86706 0.06888 0.4033 0.0
O215 O 0.84933 0.10076 0.42379 0.0
O216 O 0.8527 0.10344 0.3532 0.0
O217 O 0.90084 0.14059 0.3911 0.0
C218 C 0.91062 0.14932 0.3692 0.0
O219 O 0.89664 0.14686 0.34647 0.0
O220 O 0.83015 0.15309 0.39706 0.0
Mg221 Mg 0.65785 0.16969 0.62307 0.0
C222 C 0.63214 0.18827 0.57085 0.0
O223 O 0.61539 0.1985 0.58807 0.0
C224 C 0.6263 0.12306 0.64264 0.0
O225 O 0.62342 0.11736 0.61684 0.0
C226 C 0.62301 0.20656 0.64878 0.0
O227 O 0.6096 0.18652 0.65323 0.0
O228 O 0.64674 0.20528 0.63823 0.0
O229 O 0.64884 0.17258 0.57966 0.0
O230 O 0.70066 0.15827 0.62222 0.0
C231 C 0.70181 0.13788 0.61066 0.0
O232 O 0.67891 0.12832 0.60178 0.0
O233 O 0.63787 0.14273 0.64896 0.0
Mg234 Mg 0.05756 0.40742 0.91468 0.0
C235 C 0.04861 0.37765 0.96591 0.0
O236 O 0.07483 0.38199 0.96917 0.0
C237 C 0.08962 0.44734 0.94136 0.0
O238 O 0.09807 0.42905 0.956 0.0
C239 C 0.00723 0.40222 0.88003 0.0
O240 O 0.99662 0.40042 0.9045 0.0
O241 O 0.03281 0.40581 0.87779 0.0
O242 O 0.03578 0.38841 0.94689 0.0
O243 O 0.09471 0.38717 0.90885 0.0
C244 C 0.09548 0.36459 0.91216 0.0
O245 O 0.0726 0.35275 0.91617 0.0
O246 O 0.07108 0.44392 0.9235 0.0
Mg247 Mg 0.41991 0.61024 0.4258 0.0
C248 C 0.44009 0.63216 0.47931 0.0
O249 O 0.41423 0.63033 0.48616 0.0
C250 C 0.3902 0.56422 0.43944 0.0
O251 O 0.37778 0.57866 0.45646 0.0
C252 C 0.46495 0.61622 0.3866 0.0
O253 O 0.47776 0.60878 0.40862 0.0
O254 O 0.43913 0.61863 0.38731 0.0
O255 O 0.44797 0.6231 0.45695 0.0
O256 O 0.38226 0.63008 0.42991 0.0
C257 C 0.38209 0.65258 0.43386 0.0
O258 O 0.40536 0.66437 0.43423 0.0
O259 O 0.41006 0.57226 0.42549 0.0
Mg260 Mg 0.79234 0.64791 0.82623 0.0
C261 C 0.84306 0.63981 0.79401 0.0
O262 O 0.83824 0.61821 0.80356 0.0
C263 C 0.7981 0.60666 0.86643 0.0
O264 O 0.78465 0.59488 0.84751 0.0
C265 C 0.76576 0.62293 0.77825 0.0
O266 O 0.78238 0.63716 0.76482 0.0
O267 O 0.7643 0.62483 0.80399 0.0
O268 O 0.82708 0.65675 0.80062 0.0
O269 O 0.77381 0.67919 0.84499 0.0
C270 C 0.79066 0.69277 0.85735 0.0
O271 O 0.81693 0.68847 0.85474 0.0
O272 O 0.80576 0.62803 0.86164 0.0
Mg273 Mg 0.71221 0.68441 0.16553 0.0
C274 C 0.72083 0.64068 0.13002 0.0
O275 O 0.72509 0.63032 0.15371 0.0
C276 C 0.65378 0.66798 0.17522 0.0
O277 O 0.65991 0.65265 0.15595 0.0
C278 C 0.70662 0.73774 0.15581 0.0
O279 O 0.68552 0.73447 0.17189 0.0
O280 O 0.72287 0.72035 0.1518 0.0
O281 O 0.71411 0.66267 0.12923 0.0
O282 O 0.73874 0.66631 0.19471 0.0
C283 C 0.72908 0.66067 0.21789 0.0
O284 O 0.70585 0.67028 0.22552 0.0
O285 O 0.67127 0.6837 0.18214 0.0
Mg286 Mg 0.70021 0.37139 0.29607 0.0
C287 C 0.73388 0.41612 0.28694 0.0
O288 O 0.74632 0.40133 0.27032 0.0
C289 C 0.68604 0.33081 0.33272 0.0
O290 O 0.68771 0.32036 0.30883 0.0
C291 C 0.66277 0.38896 0.25178 0.0
O292 O 0.68416 0.40276 0.24778 0.0
O293 O 0.66363 0.37344 0.27077 0.0
O294 O 0.71432 0.40823 0.30146 0.0
O295 O 0.73077 0.34993 0.2748 0.0
C296 C 0.74893 0.33739 0.28681 0.0
O297 O 0.76448 0.32309 0.27241 0.0
O298 O 0.68979 0.35333 0.33412 0.0
Mg299 Mg 0.765 0.35485 0.63469 0.0
C300 C 0.81861 0.37055 0.65806 0.0
O301 O 0.8129 0.38862 0.64182 0.0
C302 C 0.75098 0.35803 0.57794 0.0
O303 O 0.7278 0.35463 0.59084 0.0
C304 C 0.7431 0.4045 0.6399 0.0
O305 O 0.75667 0.40609 0.61693 0.0
O306 O 0.74138 0.38421 0.65165 0.0
O307 O 0.80247 0.35266 0.65851 0.0
O308 O 0.74403 0.32071 0.63043 0.0
C309 C 0.75964 0.30305 0.62565 0.0
O310 O 0.78569 0.30509 0.63192 0.0
O311 O 0.77261 0.36134 0.5919 0.0
H312 H 0.15913 0.35198 0.48335 0.0
H313 H 0.16904 0.33178 0.52687 0.0
H314 H 0.23534 0.29365 0.48928 0.0
H315 H 0.22588 0.31352 0.4462 0.0
H316 H 0.20129 0.26393 0.51465 0.0
H317 H 0.2301 0.33818 0.5836 0.0
H318 H 0.19666 0.34186 0.56891 0.0
H319 H 0.22623 0.34229 0.5473 0.0
C320 C 0.17614 0.33963 0.48454 0.0
C321 C 0.19159 0.33433 0.46122 0.0
C322 C 0.18189 0.32818 0.50945 0.0
C323 C 0.20325 0.31139 0.51142 0.0
C324 C 0.21906 0.3067 0.48833 0.0
H325 H 0.25633 0.20511 0.63096 0.0
H326 H 0.25638 0.23541 0.59492 0.0
C327 C 0.21344 0.31806 0.46363 0.0
C328 C 0.20774 0.29687 0.5365 0.0
H329 H 0.22201 0.2999 0.60468 0.0
C330 C 0.20601 0.27184 0.53428 0.0
C331 C 0.21396 0.30715 0.56212 0.0
C332 C 0.21713 0.33383 0.56564 0.0
C333 C 0.2096 0.25685 0.55698 0.0
C334 C 0.21559 0.2671 0.58263 0.0
C335 C 0.21756 0.29211 0.58495 0.0
C336 C 0.21843 0.25186 0.6073 0.0
C337 C 0.20605 0.23016 0.55353 0.0
C338 C 0.19779 0.25183 0.62704 0.0
C339 C 0.19769 0.23453 0.64774 0.0
C340 C 0.21829 0.21697 0.64909 0.0
C341 C 0.24007 0.21825 0.63048 0.0
C342 C 0.2401 0.23553 0.60977 0.0
H343 H 0.19715 0.22549 0.53338 0.0
H344 H 0.22621 0.22122 0.55539 0.0
H345 H 0.19261 0.22282 0.56973 0.0
H346 H 0.18092 0.26432 0.62555 0.0
H347 H 0.18069 0.23419 0.6618 0.0
H348 H 0.02893 0.93459 0.64386 0.0
H349 H 0.0624 0.92247 0.67821 0.0
H350 H 0.00198 0.8774 0.71655 0.0
H351 H 0.96832 0.88917 0.68194 0.0
H352 H 0.06196 0.92612 0.73495 0.0
H353 H 0.06539 0.83122 0.70091 0.0
H354 H 0.04969 0.85459 0.68079 0.0
H355 H 0.03213 0.84235 0.70973 0.0
C356 C 0.02265 0.9222 0.65965 0.0
C357 C 0.99602 0.91269 0.66002 0.0
C358 C 0.04181 0.91532 0.6793 0.0
C359 C 0.03477 0.89876 0.69964 0.0
C360 C 0.00794 0.88986 0.70069 0.0
H361 H 0.14769 0.86941 0.83527 0.0
H362 H 0.10622 0.87878 0.80927 0.0
C363 C 0.98872 0.89672 0.681 0.0
C364 C 0.05589 0.89056 0.71923 0.0
H365 H 0.09342 0.84171 0.73818 0.0
C366 C 0.06872 0.90764 0.73587 0.0
C367 C 0.06481 0.86647 0.72007 0.0
C368 C 0.05251 0.84757 0.7018 0.0
C369 C 0.09057 0.90137 0.75306 0.0
C370 C 0.09948 0.87727 0.75394 0.0
C371 C 0.08636 0.86012 0.73761 0.0
C372 C 0.12366 0.86989 0.77016 0.0
C373 C 0.10465 0.92077 0.76928 0.0
C374 C 0.14681 0.86093 0.75689 0.0
C375 C 0.17043 0.85537 0.77166 0.0
C376 C 0.17132 0.85867 0.80004 0.0
C377 C 0.14774 0.86685 0.81341 0.0
C378 C 0.12407 0.87233 0.79859 0.0
H379 H 0.0992 0.93896 0.76183 0.0
H380 H 0.09837 0.91938 0.79092 0.0
H381 H 0.12721 0.91874 0.76839 0.0
H382 H 0.14686 0.85882 0.73495 0.0
H383 H 0.18818 0.84903 0.76072 0.0
H384 H 0.35384 0.81119 0.15519 0.0
H385 H 0.35232 0.77839 0.1227 0.0
H386 H 0.26434 0.77666 0.12795 0.0
H387 H 0.26561 0.81019 0.16024 0.0
H388 H 0.33236 0.73235 0.12304 0.0
H389 H 0.2774 0.78883 0.04704 0.0
H390 H 0.29369 0.80121 0.07686 0.0
H391 H 0.26158 0.78589 0.07991 0.0
C392 C 0.3341 0.80378 0.14969 0.0
C393 C 0.3098 0.81359 0.16006 0.0
C394 C 0.3333 0.7849 0.13114 0.0
C395 C 0.30822 0.77531 0.12249 0.0
C396 C 0.28392 0.78411 0.13391 0.0
H397 H 0.32126 0.65542 0.0041 0.0
H398 H 0.31032 0.67705 0.04615 0.0
C399 C 0.28468 0.80317 0.15249 0.0
C400 C 0.30796 0.75738 0.10014 0.0
H401 H 0.2909 0.75072 0.03314 0.0
C402 C 0.32298 0.73613 0.10344 0.0
C403 C 0.29607 0.76257 0.07449 0.0
C404 C 0.28144 0.7859 0.06909 0.0
C405 C 0.32743 0.72044 0.08151 0.0
C406 C 0.31574 0.72577 0.05573 0.0
C407 C 0.29964 0.74648 0.05289 0.0
C408 C 0.32233 0.7119 0.03068 0.0
C409 C 0.34605 0.69923 0.08588 0.0
C410 C 0.3323 0.72417 0.00775 0.0
C411 C 0.33811 0.71195 0.98377 0.0
C412 C 0.33441 0.68705 0.98208 0.0
C413 C 0.32478 0.67456 0.00502 0.0
C414 C 0.31852 0.68694 0.02905 0.0
H415 H 0.3587 0.70119 0.10459 0.0
H416 H 0.33348 0.68279 0.08819 0.0
H417 H 0.35994 0.69677 0.06829 0.0
H418 H 0.33555 0.74336 0.00835 0.0
H419 H 0.34539 0.72211 0.96641 0.0
H420 H 0.38252 0.15608 0.30158 0.0
H421 H 0.42113 0.14793 0.27129 0.0
H422 H 0.36884 0.15871 0.2014 0.0
H423 H 0.33041 0.16719 0.23133 0.0
H424 H 0.4258 0.11189 0.23301 0.0
H425 H 0.43434 0.20077 0.18341 0.0
H426 H 0.41498 0.19603 0.21419 0.0
H427 H 0.40038 0.18865 0.18156 0.0
C428 C 0.37933 0.15699 0.27976 0.0
C429 C 0.35339 0.1624 0.26889 0.0
C430 C 0.40139 0.15227 0.26249 0.0
C431 C 0.39795 0.15305 0.23409 0.0
C432 C 0.37212 0.15853 0.22324 0.0
H433 H 0.48777 0.08617 0.1047 0.0
H434 H 0.45707 0.09593 0.1422 0.0
C435 C 0.35011 0.16326 0.24042 0.0
C436 C 0.42094 0.14712 0.21567 0.0
H437 H 0.45694 0.16826 0.16123 0.0
C438 C 0.43285 0.1243 0.2175 0.0
C439 C 0.43037 0.16342 0.19569 0.0
C440 C 0.41956 0.18867 0.19372 0.0
C441 C 0.45322 0.11703 0.19921 0.0
C442 C 0.46155 0.13288 0.17826 0.0
C443 C 0.45035 0.15601 0.1771 0.0
C444 C 0.48129 0.12576 0.15687 0.0
C445 C 0.46566 0.09249 0.20254 0.0
C446 C 0.505 0.1394 0.15243 0.0
C447 C 0.52246 0.134 0.13084 0.0
C448 C 0.51652 0.11488 0.11315 0.0
C449 C 0.49307 0.10091 0.11801 0.0
C450 C 0.47556 0.10638 0.13957 0.0
H451 H 0.46346 0.08575 0.22374 0.0
H452 H 0.45495 0.07975 0.18883 0.0
H453 H 0.4877 0.0926 0.19718 0.0
H454 H 0.50977 0.15449 0.16545 0.0
H455 H 0.54034 0.14515 0.12769 0.0
H456 H 0.30646 0.79231 0.91764 0.0
H457 H 0.30109 0.76336 0.95506 0.0
H458 H 0.21462 0.75928 0.93854 0.0
H459 H 0.21963 0.78796 0.90128 0.0
H460 H 0.23796 0.77445 0.99678 0.0
H461 H 0.27484 0.68799 0.95423 0.0
H462 H 0.28983 0.71631 0.94432 0.0
H463 H 0.2563 0.70855 0.93256 0.0
C464 C 0.28639 0.78487 0.92158 0.0
C465 C 0.26344 0.7926 0.90652 0.0
C466 C 0.28339 0.76836 0.94299 0.0
C467 C 0.25746 0.75927 0.9495 0.0
C468 C 0.2348 0.7661 0.93376 0.0
H469 H 0.16115 0.68914 0.06737 0.0
H470 H 0.18328 0.716 0.03538 0.0
C471 C 0.23774 0.78251 0.91245 0.0
C472 C 0.25312 0.7444 0.97414 0.0
H473 H 0.25237 0.68654 0.99665 0.0
C474 C 0.24138 0.75526 0.99697 0.0
C475 C 0.25811 0.71951 0.97441 0.0
C476 C 0.27053 0.70721 0.95017 0.0
C477 C 0.23329 0.74171 0.01967 0.0
C478 C 0.23646 0.71648 0.01927 0.0
C479 C 0.24977 0.70582 0.99702 0.0
C480 C 0.22371 0.70074 0.04027 0.0
C481 C 0.22131 0.75463 0.04378 0.0
C482 C 0.23867 0.68238 0.05309 0.0
C483 C 0.22573 0.66631 0.07092 0.0
C484 C 0.19765 0.6685 0.07647 0.0
C485 C 0.18293 0.68722 0.06409 0.0
C486 C 0.19568 0.70283 0.04588 0.0
H487 H 0.22818 0.77358 0.04448 0.0
H488 H 0.19871 0.75492 0.04194 0.0
H489 H 0.22697 0.74567 0.06322 0.0
H490 H 0.26022 0.68019 0.0489 0.0
H491 H 0.23757 0.65194 0.07995 0.0
H492 H 0.51429 0.90497 0.42137 0.0
H493 H 0.48294 0.90695 0.38268 0.0
H494 H 0.5468 0.88226 0.3294 0.0
H495 H 0.57838 0.87984 0.36823 0.0
H496 H 0.48541 0.93205 0.33337 0.0
H497 H 0.48498 0.83337 0.31764 0.0
H498 H 0.49893 0.84703 0.34794 0.0
H499 H 0.51795 0.8476 0.31673 0.0
C500 C 0.52179 0.90007 0.40143 0.0
C501 C 0.54877 0.89201 0.39793 0.0
C502 C 0.50383 0.90127 0.37932 0.0
C503 C 0.51244 0.89441 0.35328 0.0
C504 C 0.53964 0.88721 0.34945 0.0
H505 H 0.40449 0.91509 0.21138 0.0
H506 H 0.4446 0.91591 0.24141 0.0
C507 C 0.55766 0.88596 0.37162 0.0
C508 C 0.49245 0.8941 0.33055 0.0
H509 H 0.45728 0.85641 0.28837 0.0
C510 C 0.47941 0.91558 0.3233 0.0
C511 C 0.48453 0.8725 0.31773 0.0
C512 C 0.49711 0.84875 0.32546 0.0
C513 C 0.45823 0.91598 0.30393 0.0
C514 C 0.45021 0.89435 0.29123 0.0
C515 C 0.46364 0.87296 0.29806 0.0
C516 C 0.42658 0.89323 0.27234 0.0
C517 C 0.44384 0.93933 0.29806 0.0
C518 C 0.40351 0.87969 0.27948 0.0
C519 C 0.38066 0.87906 0.26236 0.0
C520 C 0.3805 0.89193 0.2377 0.0
C521 C 0.4039 0.9051 0.23032 0.0
C522 C 0.42679 0.90569 0.24749 0.0
H523 H 0.44875 0.95322 0.3135 0.0
H524 H 0.45033 0.94615 0.27785 0.0
H525 H 0.42133 0.93671 0.29748 0.0
H526 H 0.403 0.8699 0.29856 0.0
H527 H 0.36303 0.86869 0.26863 0.0
H528 H 0.29613 0.35869 0.57461 0.0
H529 H 0.27577 0.33436 0.53821 0.0
H530 H 0.33949 0.28187 0.54862 0.0
H531 H 0.35986 0.30585 0.58486 0.0
H532 H 0.3017 0.32233 0.48957 0.0
H533 H 0.27107 0.24015 0.54494 0.0
H534 H 0.27653 0.2685 0.5618 0.0
H535 H 0.30511 0.24985 0.55302 0.0
C536 C 0.30545 0.34169 0.5696 0.0
C537 C 0.32968 0.33424 0.5827 0.0
C538 C 0.29382 0.32786 0.54871 0.0
C539 C 0.30592 0.30617 0.54085 0.0
C540 C 0.32946 0.2983 0.55463 0.0
H541 H 0.31326 0.23175 0.38839 0.0
H542 H 0.31773 0.25996 0.42613 0.0
C543 C 0.34118 0.31213 0.57532 0.0
C544 C 0.29552 0.29259 0.5169 0.0
H545 H 0.27615 0.23657 0.49685 0.0
C546 C 0.2958 0.30365 0.49116 0.0
C547 C 0.28723 0.26839 0.51899 0.0
C548 C 0.28465 0.25606 0.54621 0.0
C549 C 0.28936 0.2908 0.46735 0.0
C550 C 0.28306 0.26607 0.46925 0.0
C551 C 0.2814 0.2554 0.49518 0.0
C552 C 0.27906 0.25064 0.44478 0.0
C553 C 0.28903 0.304 0.44051 0.0
C554 C 0.25599 0.23572 0.44263 0.0
C555 C 0.25362 0.21926 0.42128 0.0
C556 C 0.27424 0.21738 0.40148 0.0
C557 C 0.29687 0.23289 0.4031 0.0
C558 C 0.29938 0.24917 0.42465 0.0
H559 H 0.28428 0.32329 0.4434 0.0
H560 H 0.30955 0.30283 0.43106 0.0
H561 H 0.27376 0.29626 0.42622 0.0
H562 H 0.24003 0.23644 0.45785 0.0
H563 H 0.2359 0.20761 0.42066 0.0
H564 H 0.15151 0.14103 0.73952 0.0
H565 H 0.1094 0.13617 0.76529 0.0
H566 H 0.06246 0.13802 0.69079 0.0
H567 H 0.10478 0.14282 0.66455 0.0
H568 H 0.06172 0.167 0.76556 0.0
H569 H 0.04028 0.07402 0.73016 0.0
H570 H 0.07364 0.08761 0.72684 0.0
H571 H 0.04624 0.0968 0.70482 0.0
C572 C 0.13228 0.14047 0.72851 0.0
C573 C 0.13152 0.14219 0.69994 0.0
C574 C 0.10823 0.13776 0.74331 0.0
C575 C 0.08292 0.13656 0.7299 0.0
C576 C 0.08188 0.13867 0.70144 0.0
H577 H 0.93849 0.13416 0.83697 0.0
H578 H 0.96607 0.14248 0.79644 0.0
C579 C 0.10604 0.1415 0.68653 0.0
C580 C 0.05794 0.13265 0.74617 0.0
H581 H 0.0124 0.08927 0.76483 0.0
C582 C 0.05052 0.15021 0.7651 0.0
C583 C 0.04365 0.11063 0.74554 0.0
C584 C 0.0513 0.09104 0.72589 0.0
C585 C 0.02992 0.14595 0.78431 0.0
C586 C 0.01623 0.1236 0.78428 0.0
C587 C 0.02286 0.10641 0.7646 0.0
C588 C 0.99755 0.11675 0.8066 0.0
C589 C 0.0241 0.16478 0.8055 0.0
C590 C 0.00564 0.09891 0.82508 0.0
C591 C 0.98999 0.09409 0.84814 0.0
C592 C 0.96587 0.10698 0.8531 0.0
C593 C 0.95705 0.12401 0.8338 0.0
C594 C 0.9728 0.12885 0.8107 0.0
H595 H 0.03934 0.17957 0.80511 0.0
H596 H 0.00357 0.17257 0.80168 0.0
H597 H 0.02403 0.15671 0.8262 0.0
H598 H 0.02468 0.08935 0.82221 0.0
H599 H 0.99726 0.08075 0.86249 0.0
H600 H 0.15884 0.55851 0.07424 0.0
H601 H 0.19115 0.53093 0.05374 0.0
H602 H 0.19637 0.57623 0.98264 0.0
H603 H 0.16462 0.60459 0.00358 0.0
H604 H 0.19449 0.50455 0.00926 0.0
H605 H 0.27491 0.57513 0.00528 0.0
H606 H 0.24251 0.58002 0.02167 0.0
H607 H 0.24489 0.58068 0.98512 0.0
C608 C 0.16648 0.56253 0.05406 0.0
C609 C 0.15946 0.58402 0.04079 0.0
C610 C 0.18501 0.54667 0.04231 0.0
C611 C 0.19682 0.55176 0.01691 0.0
C612 C 0.18819 0.57224 0.00258 0.0
H613 H 0.31195 0.43907 0.96467 0.0
H614 H 0.27529 0.46872 0.96127 0.0
C615 C 0.16984 0.58834 0.01451 0.0
C616 C 0.21937 0.53626 0.00687 0.0
H617 H 0.2882 0.53599 0.99489 0.0
C618 C 0.21488 0.51144 0.00562 0.0
C619 C 0.24609 0.54529 0.00231 0.0
C620 C 0.25257 0.5717 0.00382 0.0
C621 C 0.23647 0.49532 0.00143 0.0
C622 C 0.26334 0.5043 -0.00209 0.0
C623 C 0.26762 0.52916 -0.0023 0.0
C624 C 0.28754 0.4882 -0.00263 0.0
C625 C 0.23047 0.46879 0.0025 0.0
C626 C 0.30761 0.4901 0.01783 0.0
C627 C 0.32888 0.47344 0.01956 0.0
C628 C 0.33044 0.45443 0.00092 0.0
C629 C 0.31119 0.45334 0.97954 0.0
C630 C 0.29008 0.47018 0.97767 0.0
H631 H 0.20991 0.46495 0.01103 0.0
H632 H 0.23109 0.46139 0.98156 0.0
H633 H 0.24598 0.45925 0.01502 0.0
H634 H 0.30619 0.50394 0.03318 0.0
H635 H 0.34335 0.47485 0.03624 0.0
H636 H 0.9121 0.01286 0.91695 0.0
H637 H 0.87921 0.98005 0.91205 0.0
H638 H 0.81334 0.02834 0.93125 0.0
H639 H 0.84611 0.06094 0.93718 0.0
H640 H 0.80471 0.98616 0.95424 0.0
H641 H 0.83186 0.97211 0.84587 0.0
H642 H 0.86018 0.96805 0.86874 0.0
H643 H 0.84464 0.99711 0.8653 0.0
C644 C 0.89064 0.01643 0.92046 0.0
C645 C 0.88174 0.0396 0.92721 0.0
C646 C 0.87182 0.99768 0.91739 0.0
C647 C 0.84367 1.00184 0.92049 0.0
C648 C 0.8349 0.02469 0.92852 0.0
H649 H 0.70484 0.92723 0.85411 0.0
H650 H 0.74533 0.95183 0.86237 0.0
C651 C 0.85371 0.04335 0.93193 0.0
C652 C 0.82318 0.98273 0.9147 0.0
H653 H 0.79985 0.94511 0.86487 0.0
C654 C 0.80374 0.97712 0.93473 0.0
C655 C 0.82154 0.97121 0.88904 0.0
C656 C 0.84047 0.97756 0.8659 0.0
C657 C 0.78264 0.96055 0.92978 0.0
C658 C 0.78149 0.94855 0.9044 0.0
C659 C 0.80102 0.95401 0.88445 0.0
C660 C 0.75902 0.93159 0.89752 0.0
C661 C 0.76109 0.95693 0.95134 0.0
C662 C 0.75393 0.9113 0.91369 0.0
C663 C 0.7307 0.89719 0.90907 0.0
C664 C 0.71221 0.90299 0.88801 0.0
C665 C 0.71854 0.92224 0.87055 0.0
C666 C 0.74169 0.9364 0.8753 0.0
H667 H 0.76065 0.97204 0.966 0.0
H668 H 0.74044 0.95514 0.94208 0.0
H669 H 0.7656 0.9403 0.96293 0.0
H670 H 0.76742 0.90684 0.9305 0.0
H671 H 0.72658 0.88242 0.92281 0.0
H672 H 0.8517 0.02918 0.42524 0.0
H673 H 0.81449 1.00389 0.44198 0.0
H674 H 0.77286 0.06628 0.47232 0.0
H675 H 0.81021 0.09171 0.45621 0.0
H676 H 0.76562 0.02384 0.50536 0.0
H677 H 0.74401 1.00896 0.39549 0.0
H678 H 0.77788 1.00066 0.40612 0.0
H679 H 0.76763 0.03155 0.40729 0.0
C680 C 0.83502 0.0375 0.43613 0.0
C681 C 0.83371 0.06254 0.43887 0.0
C682 C 0.81372 0.02301 0.44561 0.0
C683 C 0.79063 0.0333 0.45777 0.0
C684 C 0.79042 0.058 0.46282 0.0
H685 H 0.62971 0.97063 0.44279 0.0
H686 H 0.66754 0.99912 0.446 0.0
C687 C 0.81182 0.07252 0.45354 0.0
C688 C 0.76545 0.0189 0.46189 0.0
H689 H 0.71689 0.98756 0.42678 0.0
C690 C 0.75489 0.01588 0.48824 0.0
C691 C 0.75118 1.00901 0.43943 0.0
C692 C 0.76054 0.01284 0.41045 0.0
C693 C 0.73069 1.00274 0.49275 0.0
C694 C 0.71695 0.99221 0.47031 0.0
C695 C 0.7274 0.99559 0.44399 0.0
C696 C 0.69195 0.97722 0.47319 0.0
C697 C 0.71984 1.0006 0.52135 0.0
C698 C 0.69259 0.95577 0.48819 0.0
C699 C 0.67081 0.93949 0.48657 0.0
C700 C 0.64818 0.94422 0.46958 0.0
C701 C 0.64687 0.96637 0.45594 0.0
C702 C 0.66851 0.98268 0.45775 0.0
H703 H 0.72783 0.01511 0.53464 0.0
H704 H 0.69714 1.00115 0.52152 0.0
H705 H 0.72644 0.98322 0.53019 0.0
H706 H 0.71061 0.9509 0.49983 0.0
H707 H 0.67256 0.92255 0.49724 0.0
H708 H 0.60338 0.04431 0.03891 0.0
H709 H 0.63548 1.01069 0.03645 0.0
H710 H 0.68631 0.05102 0.98136 0.0
H711 H 0.65443 0.08464 0.98351 0.0
H712 H 0.66123 0.9852 0.98533 0.0
H713 H 0.73256 0.03486 0.0539 0.0
H714 H 0.69648 0.0416 0.05258 0.0
H715 H 0.71821 0.05028 0.02493 0.0
C716 C 0.62113 0.04589 0.0259 0.0
C717 C 0.62642 0.06726 0.01159 0.0
C718 C 0.63941 0.02665 0.02449 0.0
C719 C 0.6633 0.02849 0.00886 0.0
C720 C 0.66802 0.04932 0.99359 0.0
H721 H 0.8053 0.93586 0.03798 0.0
H722 H 0.77734 0.9669 0.0159 0.0
C723 C 0.64973 0.06851 0.99488 0.0
C724 C 0.68434 1.00948 0.01046 0.0
H725 H 0.74447 0.99568 0.04221 0.0
C726 C 0.6796 0.9875 -0.0025 0.0
C727 C 0.70846 0.01272 0.02598 0.0
C728 C 0.7144 0.03606 0.0403 0.0
C729 C 0.69803 0.96834 0.00042 0.0
C730 C 0.72135 0.97108 0.01738 0.0
C731 C 0.72667 0.99351 0.0292 0.0
C732 C 0.73853 0.95044 0.02607 0.0
C733 C 0.69203 0.9453 0.98555 0.0
C734 C 0.72613 0.93066 0.0387 0.0
C735 C 0.74199 0.91305 0.05122 0.0
C736 C 0.77067 0.91487 0.05173 0.0
C737 C 0.78325 0.93396 0.03788 0.0
C738 C 0.76728 0.95172 0.02532 0.0
H739 H 0.68175 0.94892 0.96574 0.0
H740 H 0.71086 0.93478 0.98172 0.0
H741 H 0.67785 0.93427 -0.00203 0.0
H742 H 0.70409 0.92945 0.04025 0.0
H743 H 0.73163 0.89847 0.06154 0.0
H744 H 0.13133 0.58403 0.56804 0.0
H745 H 0.16533 0.55256 0.5761 0.0
H746 H 0.21897 0.58542 0.51735 0.0
H747 H 0.18527 0.61695 0.50921 0.0
H748 H 0.18885 0.52038 0.53637 0.0
H749 H 0.26728 0.5778 0.58655 0.0
H750 H 0.23203 0.58693 0.58295 0.0
H751 H 0.2545 0.58805 0.55416 0.0
C752 C 0.15037 0.58459 0.55686 0.0
C753 C 0.15558 0.60307 0.53804 0.0
C754 C 0.16976 0.56658 0.56147 0.0
C755 C 0.19481 0.56682 0.54757 0.0
C756 C 0.19997 0.5851 0.52861 0.0
H757 H 0.3347 0.46834 0.56927 0.0
H758 H 0.30553 0.50077 0.55144 0.0
C759 C 0.18058 0.60304 0.5239 0.0
C760 C 0.21529 0.54771 0.55265 0.0
H761 H 0.27843 0.53714 0.58025 0.0
C762 C 0.20848 0.52405 0.54586 0.0
C763 C 0.24105 0.55259 0.56468 0.0
C764 C 0.24923 0.57767 0.57273 0.0
C765 C 0.22653 0.50506 0.5512 0.0
C766 C 0.25183 0.50977 0.56428 0.0
C767 C 0.25906 0.53355 0.57023 0.0
C768 C 0.26972 0.4901 0.57427 0.0
C769 C 0.21829 0.48008 0.54281 0.0
C770 C 0.25943 0.47366 0.59327 0.0
C771 C 0.27589 0.45529 0.60337 0.0
C772 C 0.30322 0.45295 0.59494 0.0
C773 C 0.31371 0.46958 0.57607 0.0
C774 C 0.29709 0.48809 0.56591 0.0
H775 H 0.20348 0.48044 0.52558 0.0
H776 H 0.23632 0.46931 0.53675 0.0
H777 H 0.20821 0.47099 0.56023 0.0
H778 H 0.23863 0.47518 0.60057 0.0
H779 H 0.26708 0.44297 0.618 0.0
H780 H 0.24654 0.37478 0.39312 0.0
H781 H 0.28388 0.40159 0.40601 0.0
H782 H 0.26833 0.44488 0.33479 0.0
H783 H 0.23046 0.41852 0.32201 0.0
H784 H 0.33183 0.42125 0.38357 0.0
H785 H 0.25124 0.48992 0.39818 0.0
H786 H 0.24337 0.45883 0.39211 0.0
H787 H 0.25274 0.47811 0.36426 0.0
C788 C 0.25146 0.38962 0.37974 0.0
C789 C 0.23507 0.39479 0.35681 0.0
C790 C 0.27286 0.40496 0.3872 0.0
C791 C 0.27834 0.4256 0.37179 0.0
C792 C 0.26396 0.42936 0.34734 0.0
H793 H 0.40359 0.53394 0.39773 0.0
H794 H 0.37857 0.49835 0.38293 0.0
C795 C 0.24242 0.41416 0.33996 0.0
C796 C 0.29672 0.44444 0.38285 0.0
H797 H 0.29687 0.50241 0.40477 0.0
C798 C 0.32426 0.43902 0.3882 0.0
C799 C 0.28662 0.46744 0.38951 0.0
C800 C 0.25683 0.47393 0.386 0.0
C801 C 0.3421 0.45616 0.39954 0.0
C802 C 0.33215 0.4794 0.40531 0.0
C803 C 0.30453 0.48464 0.40027 0.0
C804 C 0.3498 0.49885 0.41631 0.0
C805 C 0.37122 0.44909 0.40573 0.0
C806 C 0.34211 0.51098 0.4401 0.0
C807 C 0.35616 0.53155 0.44844 0.0
C808 C 0.37823 0.54042 0.43314 0.0
C809 C 0.38677 0.52755 0.41008 0.0
C810 C 0.37256 0.50706 0.40165 0.0
H811 H 0.37335 0.42936 0.40781 0.0
H812 H 0.38454 0.45501 0.38875 0.0
H813 H 0.37865 0.45767 0.42476 0.0
H814 H 0.32459 0.505 0.45174 0.0
H815 H 0.34909 0.54096 0.46633 0.0
H816 H 0.25684 0.63099 0.9304 0.0
H817 H 0.21878 0.60569 0.9456 0.0
H818 H 0.22951 0.56033 0.87556 0.0
H819 H 0.2676 0.58526 0.86034 0.0
H820 H 0.16862 0.58947 0.9213 0.0
H821 H 0.24051 0.51473 0.94119 0.0
H822 H 0.25168 0.54539 0.93711 0.0
H823 H 0.24369 0.52745 0.90775 0.0
C824 C 0.25074 0.61593 0.9179 0.0
C825 C 0.2655 0.61001 0.89426 0.0
C826 C 0.22906 0.60142 0.92672 0.0
C827 C 0.22183 0.58079 0.91208 0.0
C828 C 0.23521 0.57586 0.88751 0.0
H829 H 0.08653 0.48534 0.90598 0.0
H830 H 0.11682 0.5201 0.90407 0.0
C831 C 0.25686 0.59026 0.87872 0.0
C832 C 0.20125 0.56366 0.92285 0.0
H833 H 0.19323 0.50483 0.94005 0.0
C834 C 0.17397 0.571 0.92563 0.0
C835 C 0.20841 0.5398 0.92949 0.0
C836 C 0.23771 0.53137 0.92905 0.0
C837 C 0.15339 0.55466 0.93319 0.0
C838 C 0.1602 0.53027 0.93739 0.0
C839 C 0.18779 0.52338 0.93635 0.0
C840 C 0.13915 0.5112 0.94092 0.0
C841 C 0.12458 0.56373 0.93656 0.0
C842 C 0.14146 0.49448 0.96223 0.0
C843 C 0.12441 0.47434 0.96313 0.0
C844 C 0.10462 0.47047 0.94272 0.0
C845 C 0.10141 0.48782 0.92213 0.0
C846 C 0.11865 0.50786 0.92113 0.0
H847 H 0.1245 0.58285 0.94276 0.0
H848 H 0.11363 0.5624 0.91678 0.0
H849 H 0.11321 0.55312 0.95198 0.0
H850 H 0.15711 0.49657 0.9777 0.0
H851 H 0.1274 0.46138 0.97933 0.0
H852 H 0.66809 0.8982 0.96434 0.0
H853 H 0.69209 0.87849 0.00223 0.0
H854 H 0.62154 0.83381 0.01636 0.0
H855 H 0.59748 0.85332 0.97876 0.0
H856 H 0.68064 0.87006 0.05883 0.0
H857 H 0.68428 0.78623 -0.00052 0.0
H858 H 0.67591 0.81479 0.9843 0.0
H859 H 0.65006 0.79767 0.00171 0.0
C860 C 0.65744 0.88457 0.97593 0.0
C861 C 0.63089 0.87722 0.96836 0.0
C862 C 0.67128 0.87323 -0.00252 0.0
C863 C 0.65883 0.85428 0.01165 0.0
C864 C 0.63174 0.84804 0.00529 0.0
H865 H 0.67535 0.77821 0.15889 0.0
H866 H 0.67061 0.80946 0.12439 0.0
C867 C 0.61794 0.85933 0.98387 0.0
C868 C 0.67421 0.83999 0.03216 0.0
H869 H 0.69068 0.7822 0.04778 0.0
C870 C 0.68317 0.8509 0.05634 0.0
C871 C 0.67855 0.81515 0.02851 0.0
C872 C 0.67199 0.8028 0.00196 0.0
C873 C 0.69439 0.83721 0.07778 0.0
C874 C 0.69599 0.812 0.07514 0.0
C875 C 0.6889 0.80144 0.05016 0.0
C876 C 0.70269 0.79587 0.09842 0.0
C877 C 0.70422 0.84985 0.10309 0.0
C878 C 0.72248 0.77786 0.09563 0.0
C879 C 0.72525 0.75991 0.11537 0.0
C880 C 0.70787 0.75933 0.13812 0.0
C881 C 0.68909 0.77811 0.14165 0.0
C882 C 0.6865 0.79616 0.12198 0.0
H883 H 0.71065 0.86852 0.09846 0.0
H884 H 0.68727 0.8507 0.11801 0.0
H885 H 0.72167 0.84024 0.11265 0.0
H886 H 0.7349 0.77697 0.07752 0.0
H887 H 0.73989 0.74571 0.11189 0.0
H888 H 0.61511 0.36291 0.25342 0.0
H889 H 0.57441 0.36807 0.22468 0.0
H890 H 0.61342 0.42706 0.18325 0.0
H891 H 0.65418 0.42186 0.21145 0.0
H892 H 0.54045 0.40804 0.21821 0.0
H893 H 0.58967 0.38396 0.12052 0.0
H894 H 0.60527 0.37774 0.15315 0.0
H895 H 0.60727 0.40729 0.13859 0.0
C896 C 0.61506 0.37691 0.2381 0.0
C897 C 0.63799 0.39185 0.23459 0.0
C898 C 0.59178 0.37986 0.22174 0.0
C899 C 0.59106 0.3977 0.20154 0.0
C900 C 0.61375 0.41284 0.19831 0.0
H901 H 0.47595 0.4494 0.0812 0.0
H902 H 0.51348 0.44424 0.11375 0.0
C903 C 0.63701 0.40989 0.21456 0.0
C904 C 0.56654 0.40077 0.184 0.0
H905 H 0.54557 0.40175 0.11758 0.0
C906 C 0.54148 0.4065 0.19622 0.0
C907 C 0.56795 0.3987 0.15532 0.0
C908 C 0.59391 0.39136 0.1411 0.0
C909 C 0.51795 0.41087 0.18043 0.0
C910 C 0.51953 0.40921 0.15175 0.0
C911 C 0.5445 0.4032 0.13958 0.0
C912 C 0.49556 0.41349 0.13382 0.0
C913 C 0.49177 0.4178 0.19447 0.0
C914 C 0.47293 0.39802 0.13449 0.0
C915 C 0.45144 0.40089 0.11588 0.0
C916 C 0.45224 0.41925 0.09619 0.0
C917 C 0.47463 0.4351 0.0961 0.0
C918 C 0.49613 0.43216 0.11465 0.0
H919 H 0.49542 0.42352 0.21584 0.0
H920 H 0.48137 0.43255 0.18331 0.0
H921 H 0.47775 0.40215 0.19481 0.0
H922 H 0.47229 0.38326 0.14885 0.0
H923 H 0.43456 0.38831 0.11647 0.0
H924 H 0.71819 0.3056 0.58782 0.0
H925 H 0.71429 0.28154 0.54636 0.0
H926 H 0.77962 0.23606 0.57495 0.0
H927 H 0.78384 0.26011 0.61611 0.0
H928 H 0.75804 0.27956 0.51105 0.0
H929 H 0.72836 0.18741 0.53982 0.0
H930 H 0.72019 0.21318 0.56048 0.0
H931 H 0.75347 0.19952 0.56268 0.0
C932 C 0.73104 0.28995 0.58576 0.0
C933 C 0.7515 0.28485 0.60521 0.0
C934 C 0.72881 0.27625 0.56197 0.0
C935 C 0.74651 0.25688 0.55759 0.0
C936 C 0.76535 0.25061 0.57806 0.0
H937 H 0.85105 0.21079 0.4399 0.0
H938 H 0.82148 0.23311 0.4702 0.0
C939 C 0.76785 0.26445 0.60159 0.0
C940 C 0.74891 0.24572 0.53028 0.0
H941 H 0.75774 0.19126 0.5003 0.0
C942 C 0.75722 0.26028 0.50844 0.0
C943 C 0.74731 0.22065 0.52657 0.0
C944 C 0.73655 0.20431 0.54857 0.0
C945 C 0.76663 0.25025 0.48401 0.0
C946 C 0.76812 0.22504 0.48155 0.0
C947 C 0.75709 0.21059 0.50228 0.0
C948 C 0.78467 0.21342 0.45995 0.0
C949 C 0.7761 0.26676 0.46156 0.0
C950 C 0.774 0.1947 0.44403 0.0
C951 C 0.79111 0.18159 0.42672 0.0
C952 C 0.81924 0.18684 0.42532 0.0
C953 C 0.82951 0.20627 0.44038 0.0
C954 C 0.81249 0.21927 0.4576 0.0
H955 H 0.76516 0.28412 0.46229 0.0
H956 H 0.79819 0.27068 0.46428 0.0
H957 H 0.77295 0.25862 0.44118 0.0
H958 H 0.75265 0.18971 0.44569 0.0
H959 H 0.78259 0.16663 0.41552 0.0
H960 H 0.87936 0.6069 0.77483 0.0
H961 H 0.91485 0.61282 0.74069 0.0
H962 H 0.89375 0.68763 0.73479 0.0
H963 H 0.85776 0.68179 0.76877 0.0
H964 H 0.89743 0.66623 0.68494 0.0
H965 H 0.98932 0.64477 0.74639 0.0
H966 H 0.96385 0.62166 0.74822 0.0
H967 H 0.95652 0.65094 0.76158 0.0
C968 C 0.88241 0.6247 0.76653 0.0
C969 C 0.86572 0.64389 0.77457 0.0
C970 C 0.90288 0.62808 0.74712 0.0
C971 C 0.90728 0.65075 0.73551 0.0
C972 C 0.89083 0.67002 0.74365 0.0
H973 H 0.04431 0.67494 0.6232 0.0
H974 H 0.01275 0.67871 0.66165 0.0
C975 C 0.87029 0.66665 0.76308 0.0
C976 C 0.92779 0.65383 0.71357 0.0
H977 H 0.99469 0.64354 0.69775 0.0
C978 C 0.91877 0.66157 0.68784 0.0
C979 C 0.95572 0.6481 0.71744 0.0
C980 C 0.96701 0.64114 0.74498 0.0
C981 C 0.93665 0.66265 0.66557 0.0
C982 C 0.96416 0.65541 0.66903 0.0
C983 C 0.97351 0.64878 0.69505 0.0
C984 C 0.98316 0.6535 0.64566 0.0
C985 C 0.92586 0.67141 0.63849 0.0
C986 C 0.97717 0.63783 0.62416 0.0
C987 C 0.99508 0.63563 0.60224 0.0
C988 C 0.01951 0.64894 0.60144 0.0
C989 C 0.02564 0.66447 0.62316 0.0
C990 C 0.00765 0.66665 0.64514 0.0
H991 H 0.90751 0.68288 0.64105 0.0
H992 H 0.94166 0.68174 0.62727 0.0
H993 H 0.91984 0.65578 0.62589 0.0
H994 H 0.95869 0.6271 0.62443 0.0
H995 H 0.98977 0.62341 0.58595 0.0
H996 H 0.67187 0.34598 0.3839 0.0
H997 H 0.66364 0.3211 0.42427 0.0
H998 H 0.68264 0.25777 0.37798 0.0
H999 H 0.69027 0.28238 0.33756 0.0
H1000 H 0.63479 0.25349 0.40696 0.0
H1001 H 0.71717 0.28812 0.47499 0.0
H1002 H 0.69665 0.30978 0.45733 0.0
H1003 H 0.71899 0.29081 0.43827 0.0
C1004 C 0.67447 0.32677 0.38242 0.0
C1005 C 0.68161 0.31615 0.35751 0.0
C1006 C 0.66997 0.31257 0.40556 0.0
C1007 C 0.67293 0.28756 0.40428 0.0
C1008 C 0.6803 0.27701 0.37948 0.0
H1009 H 0.67594 0.18303 0.53672 0.0
H1010 H 0.68602 0.20645 0.49568 0.0
C1011 C 0.68456 0.29113 0.35636 0.0
C1012 C 0.66702 0.27209 0.42823 0.0
H1013 H 0.68708 0.25947 0.4935 0.0
C1014 C 0.64623 0.25481 0.42587 0.0
C1015 C 0.68211 0.27369 0.45281 0.0
C1016 C 0.70515 0.29143 0.45613 0.0
C1017 C 0.63987 0.23933 0.44753 0.0
C1018 C 0.65461 0.2412 0.47224 0.0
C1019 C 0.67572 0.25818 0.47453 0.0
C1020 C 0.6479 0.22605 0.49616 0.0
C1021 C 0.61759 0.22089 0.44377 0.0
C1022 C 0.62302 0.22913 0.50983 0.0
C1023 C 0.61726 0.21589 0.53334 0.0
C1024 C 0.63623 0.1992 0.54358 0.0
C1025 C 0.66076 0.19556 0.52926 0.0
C1026 C 0.66666 0.20905 0.50591 0.0
H1027 H 0.61227 0.21832 0.42195 0.0
H1028 H 0.62387 0.20338 0.45256 0.0
H1029 H 0.59894 0.22687 0.45459 0.0
H1030 H 0.60838 0.24231 0.50274 0.0
H1031 H 0.59829 0.21926 0.54396 0.0
H1032 H 0.95224 0.39391 0.87854 0.0
H1033 H 0.92321 0.38802 0.83856 0.0
H1034 H 0.99288 0.39814 0.78621 0.0
H1035 H 0.0223 0.40379 0.82623 0.0
H1036 H 0.9133 0.41939 0.79563 0.0
H1037 H 0.95988 0.33465 0.75923 0.0
H1038 H 0.96604 0.34634 0.79296 0.0
H1039 H 0.98342 0.35903 0.76414 0.0
C1040 C 0.96148 0.39486 0.85856 0.0
C1041 C 0.98964 0.39925 0.8556 0.0
C1042 C 0.94482 0.39148 0.83571 0.0
C1043 C 0.95594 0.39231 0.80944 0.0
C1044 C 0.98398 0.39697 0.80633 0.0
H1045 H 0.85607 0.40671 0.66266 0.0
H1046 H 0.89102 0.41175 0.69792 0.0
C1047 C 0.00071 0.40036 0.82922 0.0
C1048 C 0.93788 0.38879 0.78542 0.0
H1049 H 0.92548 0.35187 0.73134 0.0
C1050 C 0.91601 0.40468 0.78152 0.0
C1051 C 0.9413 0.36941 0.76724 0.0
C1052 C 0.96377 0.35122 0.77112 0.0
C1053 C 0.89742 0.40174 0.75992 0.0
C1054 C 0.90107 0.38259 0.74147 0.0
C1055 C 0.92291 0.36665 0.74538 0.0
C1056 C 0.88178 0.37845 0.71857 0.0
C1057 C 0.8736 0.41878 0.75749 0.0
C1058 C 0.86577 0.35756 0.71783 0.0
C1059 C 0.84585 0.35453 0.69759 0.0
C1060 C 0.84164 0.37234 0.67768 0.0
C1061 C 0.85859 0.39273 0.6778 0.0
C1062 C 0.87851 0.39571 0.69801 0.0
H1063 H 0.87017 0.42884 0.77667 0.0
H1064 H 0.87783 0.43198 0.74109 0.0
H1065 H 0.85453 0.40903 0.75212 0.0
H1066 H 0.86809 0.34396 0.73345 0.0
H1067 H 0.83323 0.33858 0.69804 0.0
H1068 H 0.73902 0.69883 0.87839 0.0
H1069 H 0.72608 0.72424 0.91699 0.0
H1070 H 0.80871 0.75108 0.92179 0.0
H1071 H 0.82158 0.72625 0.88332 0.0
H1072 H 0.74626 0.72117 0.96836 0.0
H1073 H 0.7658 0.81217 0.9295 0.0
H1074 H 0.7627 0.78665 0.90715 0.0
H1075 H 0.79493 0.79358 0.9233 0.0
C1076 C 0.75423 0.71062 0.88726 0.0
C1077 C 0.78135 0.71052 0.87774 0.0
C1078 C 0.74683 0.72505 0.90939 0.0
C1079 C 0.76631 0.73985 0.9221 0.0
C1080 C 0.79311 0.7403 0.91197 0.0
H1081 H 0.81221 0.77607 0.07798 0.0
H1082 H 0.79374 0.75606 0.03791 0.0
C1083 C 0.80051 0.72591 0.89002 0.0
C1084 C 0.75988 0.75307 0.94754 0.0
H1085 H 0.77178 0.80669 0.97856 0.0
C1086 C 0.75119 0.74003 0.97046 0.0
C1087 C 0.76548 0.77782 0.9503 0.0
C1088 C 0.77243 0.79338 0.92612 0.0
C1089 C 0.75051 0.75056 0.99643 0.0
C1090 C 0.75941 0.77452 -0.00037 0.0
C1091 C 0.76549 0.78815 0.97633 0.0
C1092 C 0.76616 0.78481 0.02674 0.0
C1093 C 0.74103 0.7357 0.0203 0.0
C1094 C 0.75661 0.80757 0.03421 0.0
C1095 C 0.76717 0.81909 0.05729 0.0
C1096 C 0.78795 0.80824 0.07298 0.0
C1097 C 0.7962 0.78488 0.06641 0.0
C1098 C 0.78549 0.77333 0.04351 0.0
H1099 H 0.72555 0.72227 0.01379 0.0
H1100 H 0.75869 0.72577 0.02896 0.0
H1101 H 0.73207 0.74703 0.03652 0.0
H1102 H 0.74187 0.81687 0.02152 0.0
H1103 H 0.76036 0.83712 0.06167 0.0
H1104 H 0.52026 0.61757 0.38101 0.0
H1105 H 0.54644 0.62689 0.3402 0.0
H1106 H 0.47156 0.63624 0.29467 0.0
H1107 H 0.44503 0.62741 0.33578 0.0
H1108 H 0.54687 0.60333 0.29145 0.0
H1109 H 0.5134 0.69776 0.27763 0.0
H1110 H 0.50727 0.68119 0.30863 0.0
H1111 H 0.48642 0.67591 0.27903 0.0
C1112 C 0.50929 0.62167 0.36238 0.0
C1113 C 0.48056 0.62183 0.36166 0.0
C1114 C 0.5243 0.62698 0.33905 0.0
C1115 C 0.51095 0.63251 0.31449 0.0
C1116 C 0.48226 0.63247 0.31355 0.0
H1117 H 0.61203 0.63601 0.1668 0.0
H1118 H 0.57353 0.62769 0.19715 0.0
C1119 C 0.46716 0.6273 0.33701 0.0
C1120 C 0.52744 0.63786 0.28998 0.0
H1121 H 0.54421 0.68244 0.24528 0.0
C1122 C 0.54615 0.62054 0.28116 0.0
C1123 C 0.5265 0.66041 0.27678 0.0
C1124 C 0.5075 0.68 0.28605 0.0
C1125 C 0.56458 0.62537 0.26005 0.0
C1126 C 0.56378 0.64797 0.24693 0.0
C1127 C 0.54455 0.66507 0.25523 0.0
C1128 C 0.58454 0.65493 0.22651 0.0
C1129 C 0.58565 0.60668 0.25297 0.0
C1130 C 0.6026 0.6738 0.23228 0.0
C1131 C 0.62439 0.67878 0.21489 0.0
C1132 C 0.62856 0.66491 0.1914 0.0
C1133 C 0.60954 0.64686 0.18488 0.0
C1134 C 0.58762 0.642 0.20224 0.0
H1135 H 0.58717 0.59249 0.26882 0.0
H1136 H 0.57984 0.598 0.23348 0.0
H1137 H 0.60614 0.61496 0.25037 0.0
H1138 H 0.60052 0.68406 0.25085 0.0
H1139 H 0.63856 0.69288 0.22046 0.0
H1140 H 0.9052 1.00046 0.54045 0.0
H1141 H 0.87696 0.03657 0.54371 0.0
H1142 H 0.85198 0.01544 0.62446 0.0
H1143 H 0.8807 0.98 0.62173 0.0
H1144 H 0.82418 0.04006 0.54772 0.0
H1145 H 0.86771 0.08421 0.63822 0.0
H1146 H 0.88491 0.05987 0.62134 0.0
H1147 H 0.8589 0.0539 0.64643 0.0
C1148 C 0.89405 1.00374 0.55907 0.0
C1149 C 0.89535 0.98737 0.58087 0.0
C1150 C 0.87789 0.0244 0.56092 0.0
C1151 C 0.86271 0.02909 0.58457 0.0
C1152 C 0.86416 0.01278 0.60636 0.0
H1153 H 0.70688 0.09049 0.60086 0.0
H1154 H 0.74815 0.06766 0.59247 0.0
C1155 C 0.88046 0.99232 0.60464 0.0
C1156 C 0.84341 0.0497 0.58575 0.0
H1157 H 0.82012 0.09366 0.62802 0.0
C1158 C 0.82368 0.05206 0.56505 0.0
C1159 C 0.84297 0.06589 0.60793 0.0
C1160 C 0.865 0.066 0.62953 0.0
C1161 C 0.80252 0.06893 0.56689 0.0
C1162 C 0.80046 0.08339 0.59048 0.0
C1163 C 0.82129 0.08228 0.6102 0.0
C1164 C 0.77563 0.09791 0.59617 0.0
C1165 C 0.78235 0.07076 0.54362 0.0
C1166 C 0.77728 0.12246 0.60253 0.0
C1167 C 0.75344 0.13567 0.60791 0.0
C1168 C 0.72768 0.12447 0.60697 0.0
C1169 C 0.72632 0.09981 0.60133 0.0
C1170 C 0.74996 0.0867 0.59627 0.0
H1171 H 0.79215 0.06601 0.524 0.0
H1172 H 0.76538 0.05788 0.54701 0.0
H1173 H 0.77368 0.08906 0.54183 0.0
H1174 H 0.79692 0.13144 0.60296 0.0
H1175 H 0.75512 0.15463 0.6122 0.0
H1176 H 0.16956 0.54762 0.16115 0.0
H1177 H 0.16554 0.52128 0.20055 0.0
H1178 H 0.11519 0.57359 0.24079 0.0
H1179 H 0.11851 0.59997 0.20083 0.0
H1180 H 0.17996 0.52544 0.25303 0.0
H1181 H 0.06719 0.51488 0.24556 0.0
H1182 H 0.08704 0.52902 0.21912 0.0
H1183 H 0.07881 0.54519 0.24962 0.0
C1184 C 0.15766 0.55366 0.17836 0.0
C1185 C 0.14417 0.57591 0.17763 0.0
C1186 C 0.15542 0.53852 0.20098 0.0
C1187 C 0.13968 0.54516 0.22358 0.0
C1188 C 0.12693 0.56775 0.2234 0.0
H1189 H 0.15034 0.44937 0.36795 0.0
H1190 H 0.1511 0.48601 0.34019 0.0
C1191 C 0.12902 0.58292 0.20059 0.0
C1192 C 0.13648 0.52802 0.24681 0.0
H1193 H 0.08937 0.4942 0.28111 0.0
C1194 C 0.16012 0.51877 0.25935 0.0
C1195 C 0.11061 0.51909 0.25494 0.0
C1196 C 0.08445 0.52735 0.24151 0.0
C1197 C 0.15872 0.50046 0.27909 0.0
C1198 C 0.13286 0.49145 0.28713 0.0
C1199 C 0.10917 0.5012 0.27517 0.0
C1200 C 0.13003 0.47031 0.30568 0.0
C1201 C 0.18507 0.49009 0.29005 0.0
C1202 C 0.11669 0.44963 0.29626 0.0
C1203 C 0.11583 0.42886 0.31222 0.0
C1204 C 0.12834 0.42815 0.33808 0.0
C1205 C 0.14057 0.44923 0.34812 0.0
C1206 C 0.14128 0.47014 0.33212 0.0
H1207 H 0.20291 0.49515 0.27731 0.0
H1208 H 0.18876 0.497 0.31091 0.0
H1209 H 0.18394 0.47025 0.29115 0.0
H1210 H 0.10771 0.44926 0.27605 0.0
H1211 H 0.10613 0.41306 0.30379 0.0
H1212 H 0.81762 0.90486 0.58517 0.0
H1213 H 0.7842 0.87805 0.56444 0.0
H1214 H 0.84412 0.82149 0.56242 0.0
H1215 H 0.87798 0.84839 0.58295 0.0
H1216 H 0.81984 0.82858 0.51299 0.0
H1217 H 0.74027 0.82139 0.5917 0.0
H1218 H 0.74915 0.85218 0.58623 0.0
H1219 H 0.7745 0.8317 0.5993 0.0
C1220 C 0.8236 0.88659 0.58086 0.0
C1221 C 0.85047 0.87879 0.58569 0.0
C1222 C 0.80438 0.8712 0.56916 0.0
C1223 C 0.81156 0.84765 0.56225 0.0
C1224 C 0.83812 0.83953 0.56783 0.0
H1225 H 0.66429 0.79091 0.4879 0.0
H1226 H 0.70786 0.7847 0.51149 0.0
C1227 C 0.85739 0.85492 0.57962 0.0
C1228 C 0.79199 0.83276 0.54658 0.0
H1229 H 0.72436 0.81839 0.54458 0.0
C1230 C 0.79913 0.82569 0.52012 0.0
C1231 C 0.76523 0.82831 0.55608 0.0
C1232 C 0.75696 0.83356 0.58502 0.0
C1233 C 0.77938 0.8167 0.50199 0.0
C1234 C 0.75182 0.81524 0.51045 0.0
C1235 C 0.7454 0.81981 0.53782 0.0
C1236 C 0.72884 0.81356 0.49072 0.0
C1237 C 0.78806 0.80993 0.47361 0.0
C1238 C 0.72659 0.83097 0.47014 0.0
C1239 C 0.70183 0.83447 0.45656 0.0
C1240 C 0.6787 0.82086 0.46359 0.0
C1241 C 0.68171 0.80175 0.48208 0.0
C1242 C 0.7066 0.79822 0.49567 0.0
H1243 H 0.8089 0.80204 0.47387 0.0
H1244 H 0.77368 0.79692 0.46419 0.0
H1245 H 0.78885 0.82627 0.46071 0.0
H1246 H 0.74317 0.84339 0.46625 0.0
H1247 H 0.70023 0.84923 0.44227 0.0
H1248 H 0.34745 0.56167 0.89006 0.0
H1249 H 0.34747 0.5251 0.86235 0.0
H1250 H 0.40432 0.55808 0.80673 0.0
H1251 H 0.40464 0.59431 0.83426 0.0
H1252 H 0.33048 0.52245 0.8087 0.0
H1253 H 0.43765 0.4922 0.81638 0.0
H1254 H 0.42307 0.51335 0.83999 0.0
H1255 H 0.43567 0.52331 0.80743 0.0
C1256 C 0.36053 0.56086 0.87233 0.0
C1257 C 0.37614 0.5809 0.86444 0.0
C1258 C 0.36038 0.53999 0.85642 0.0
C1259 C 0.37615 0.53868 0.8326 0.0
C1260 C 0.39245 0.55838 0.8253 0.0
H1261 H 0.39287 0.47467 0.6805 0.0
H1262 H 0.39358 0.49615 0.7235 0.0
C1263 C 0.39249 0.5792 0.84103 0.0
C1264 C 0.3739 0.51785 0.81381 0.0
H1265 H 0.41272 0.47946 0.77619 0.0
C1266 C 0.34833 0.5126 0.80206 0.0
C1267 C 0.39716 0.50491 0.80519 0.0
C1268 C 0.42487 0.50856 0.81814 0.0
C1269 C 0.34578 0.49608 0.78057 0.0
C1270 C 0.36938 0.48434 0.77078 0.0
C1271 C 0.39465 0.48854 0.78362 0.0
C1272 C 0.36898 0.4702 0.74515 0.0
C1273 C 0.31822 0.49244 0.76729 0.0
C1274 C 0.35505 0.44822 0.743 0.0
C1275 C 0.35463 0.43568 0.71819 0.0
C1276 C 0.36805 0.44503 0.69517 0.0
C1277 C 0.38217 0.46691 0.69767 0.0
C1278 C 0.3827 0.47925 0.72233 0.0
H1279 H 0.30252 0.50486 0.77538 0.0
H1280 H 0.31976 0.49509 0.74492 0.0
H1281 H 0.31122 0.47379 0.77094 0.0
H1282 H 0.34453 0.44078 0.76046 0.0
H1283 H 0.34362 0.41887 0.71696 0.0
H1284 H 0.83717 0.16733 0.91603 0.0
H1285 H 0.7938 0.18691 0.92715 0.0
H1286 H 0.80897 0.1742 0.01263 0.0
H1287 H 0.85234 0.15559 0.00185 0.0
H1288 H 0.75293 0.16432 0.94893 0.0
H1289 H 0.77695 0.23926 0.01742 0.0
H1290 H 0.80282 0.22522 0.99676 0.0
H1291 H 0.79397 0.21297 0.02965 0.0
C1292 C 0.83152 0.16929 0.93722 0.0
C1293 C 0.84806 0.15974 0.95804 0.0
C1294 C 0.8068 0.18053 0.94354 0.0
C1295 C 0.79828 0.18242 0.97077 0.0
C1296 C 0.81539 0.17373 0.99155 0.0
H1297 H 0.66091 0.15506 0.0593 0.0
H1298 H 0.70584 0.1665 0.04195 0.0
C1299 C 0.8401 0.16273 0.98529 0.0
C1300 C 0.76994 0.18963 0.97747 0.0
H1301 H 0.73287 0.21881 0.02595 0.0
C1302 C 0.74847 0.17688 0.96512 0.0
C1303 C 0.76401 0.20606 -0.00144 0.0
C1304 C 0.78573 0.22181 0.01108 0.0
C1305 C 0.72169 0.17852 0.9749 0.0
C1306 C 0.71631 0.19325 -0.00242 0.0
C1307 C 0.73724 0.20737 0.00869 0.0
C1308 C 0.69001 0.19133 0.01193 0.0
C1309 C 0.69962 0.16315 0.96226 0.0
C1310 C 0.66649 0.20235 0.00147 0.0
C1311 C 0.64074 0.19593 0.01142 0.0
C1312 C 0.6383 0.17817 0.03169 0.0
C1313 C 0.66213 0.16863 0.04354 0.0
C1314 C 0.6878 0.17522 0.03375 0.0
H1315 H 0.70721 0.15263 0.94467 0.0
H1316 H 0.69137 0.15055 0.97773 0.0
H1317 H 0.68248 0.17463 0.9552 0.0
H1318 H 0.66794 0.21475 0.98453 0.0
H1319 H 0.62276 0.20362 0.00189 0.0
H1320 H 0.2743 0.09705 0.38236 0.0
H1321 H 0.25407 0.07342 0.41913 0.0
H1322 H 0.30431 0.11077 0.47762 0.0
H1323 H 0.32474 0.13446 0.44109 0.0
H1324 H 0.29331 0.05814 0.48809 0.0
H1325 H 0.2011 0.11441 0.46767 0.0
H1326 H 0.21586 0.09739 0.44036 0.0
H1327 H 0.23406 0.12255 0.4541 0.0
C1328 C 0.28159 0.09983 0.40297 0.0
C1329 C 0.30075 0.11799 0.40892 0.0
C1330 C 0.27 0.08626 0.42391 0.0
C1331 C 0.27747 0.09064 0.451 0.0
C1332 C 0.29832 0.10719 0.45675 0.0
H1333 H 0.256 0.10701 0.60825 0.0
H1334 H 0.26931 0.09235 0.56394 0.0
C1335 C 0.30991 0.12078 0.43586 0.0
C1336 C 0.26101 0.08115 0.47372 0.0
H1337 H 0.20433 0.09582 0.51008 0.0
C1338 C 0.27345 0.06574 0.49262 0.0
C1339 C 0.23488 0.09075 0.47927 0.0
C1340 C 0.22055 0.10724 0.45941 0.0
C1341 C 0.26153 0.06151 0.51811 0.0
C1342 C 0.23711 0.0736 0.52496 0.0
C1343 C 0.22316 0.08672 0.50487 0.0
C1344 C 0.22946 0.07787 0.55366 0.0
C1345 C 0.27609 0.04536 0.53807 0.0
C1346 C 0.20243 0.07488 0.56272 0.0
C1347 C 0.19457 0.08362 0.58825 0.0
C1348 C 0.21357 0.09583 0.60472 0.0
C1349 C 0.24078 0.09789 0.59596 0.0
C1350 C 0.24859 0.0891 0.57074 0.0
H1351 H 0.28591 0.03019 0.52729 0.0
H1352 H 0.29254 0.05561 0.54846 0.0
H1353 H 0.26191 0.0381 0.55368 0.0
H1354 H 0.18725 0.06661 0.54964 0.0
H1355 H 0.17347 0.08176 0.59454 0.0
H1356 H 0.28278 0.10035 0.73862 0.0
H1357 H 0.3059 0.0654 0.75914 0.0
H1358 H 0.24858 0.01836 0.71902 0.0
H1359 H 0.22558 0.05262 0.69886 0.0
H1360 H 0.27902 0.02996 0.79333 0.0
H1361 H 0.32386 0.98844 0.70172 0.0
H1362 H 0.31423 0.01967 0.70301 0.0
H1363 H 0.28879 0.99696 0.69688 0.0
C1364 C 0.27534 0.08252 0.73406 0.0
C1365 C 0.25229 0.07928 0.71722 0.0
C1366 C 0.28856 0.06262 0.74571 0.0
C1367 C 0.27924 0.03929 0.74015 0.0
C1368 C 0.25649 0.03614 0.72311 0.0
H1369 H 0.26665 0.89696 0.78652 0.0
H1370 H 0.2724 0.93505 0.76276 0.0
C1371 C 0.24318 0.05585 0.71182 0.0
C1372 C 0.29129 0.01798 0.75367 0.0
H1373 H 0.31458 0.96176 0.7395 0.0
C1374 C 0.28757 0.01524 0.78179 0.0
C1375 C 0.30228 0.99882 0.73846 0.0
C1376 C 0.30778 1.00116 0.70837 0.0
C1377 C 0.29242 0.99318 0.79476 0.0
C1378 C 0.30187 0.97352 0.77921 0.0
C1379 C 0.3073 0.97678 0.75139 0.0
C1380 C 0.30282 0.9489 0.79074 0.0
C1381 C 0.28536 0.99065 0.82455 0.0
C1382 C 0.31919 0.94345 0.81347 0.0
C1383 C 0.31584 0.92166 0.82725 0.0
C1384 C 0.2962 0.90489 0.81839 0.0
C1385 C 0.28182 0.90949 0.79406 0.0
C1386 C 0.28506 0.93132 0.78042 0.0
H1387 H 0.27367 1.00626 0.83224 0.0
H1388 H 0.2731 0.97419 0.82813 0.0
H1389 H 0.30448 0.98922 0.83668 0.0
H1390 H 0.33354 0.95651 0.82136 0.0
H1391 H 0.32749 0.91859 0.84574 0.0
H1392 H 0.26183 0.96319 0.15144 0.0
H1393 H 0.25269 0.97688 0.10477 0.0
H1394 H 0.31268 0.92711 0.07465 0.0
H1395 H 0.3221 0.91357 0.1209 0.0
H1396 H 0.30977 0.97232 0.04517 0.0
H1397 H 0.20844 0.9277 0.05929 0.0
H1398 H 0.21831 0.95175 0.08158 0.0
H1399 H 0.23561 0.92349 0.08376 0.0
C1400 C 0.27361 0.95566 0.13492 0.0
C1401 C 0.29228 0.93694 0.13972 0.0
C1402 C 0.26831 0.96348 0.10831 0.0
C1403 C 0.28169 0.9527 0.08632 0.0
C1404 C 0.3021 0.93563 0.09138 0.0
H1405 H 0.29794 0.8873 0.94726 0.0
H1406 H 0.30108 0.91468 0.98546 0.0
C1407 C 0.30734 0.92778 0.11782 0.0
C1408 C 0.27208 0.95586 0.05799 0.0
H1409 H 0.22511 0.93093 0.01512 0.0
C1410 C 0.2908 0.96408 0.0385 0.0
C1411 C 0.2471 0.94544 0.04935 0.0
C1412 C 0.22611 0.93651 0.06945 0.0
C1413 C 0.28659 0.95964 0.01071 0.0
C1414 C 0.26342 0.94629 0.00249 0.0
C1415 C 0.24303 0.94093 0.02156 0.0
C1416 C 0.26301 0.93293 0.97654 0.0
C1417 C 0.30798 0.9677 0.99064 0.0
C1418 C 0.24031 0.93379 0.95896 0.0
C1419 C 0.23833 0.91787 0.93706 0.0
C1420 C 0.2588 0.90063 0.9328 0.0
C1421 C 0.28176 0.90028 0.95005 0.0
C1422 C 0.2838 0.91622 0.97169 0.0
H1423 H 0.31727 0.98496 0.99712 0.0
H1424 H 0.32459 0.9542 0.98993 0.0
H1425 H 0.29928 0.96985 0.96985 0.0
H1426 H 0.22383 0.94629 0.96267 0.0
H1427 H 0.22041 0.91856 0.92403 0.0
H1428 H 0.26102 0.11933 0.27618 0.0
H1429 H 0.24958 0.07927 0.26087 0.0
H1430 H 0.18281 0.07639 0.31802 0.0
H1431 H 0.19533 0.11622 0.33463 0.0
H1432 H 0.21135 0.03992 0.32568 0.0
H1433 H 0.19794 0.0441 0.21493 0.0
H1434 H 0.22969 0.05851 0.22274 0.0
H1435 H 0.19809 0.07089 0.23542 0.0
C1436 C 0.24329 0.11058 0.28488 0.0
C1437 C 0.22922 0.12093 0.3068 0.0
C1438 C 0.23659 0.08757 0.27592 0.0
C1439 C 0.21511 0.07465 0.28804 0.0
C1440 C 0.1995 0.08587 0.30832 0.0
H1441 H 0.22257 0.92631 0.22827 0.0
H1442 H 0.20029 0.96416 0.24017 0.0
C1443 C 0.20658 0.10872 0.31772 0.0
C1444 C 0.21219 0.04846 0.28275 0.0
H1445 H 0.2192 1.00687 0.23246 0.0
C1446 C 0.21228 0.03275 0.3052 0.0
C1447 C 0.21259 0.0387 0.25616 0.0
C1448 C 0.20923 0.05403 0.23103 0.0
C1449 C 0.21528 1.00794 0.30184 0.0
C1450 C 0.21946 0.9986 0.27542 0.0
C1451 C 0.21675 0.01397 0.25285 0.0
C1452 C 0.23003 0.97392 0.27101 0.0
C1453 C 0.21463 0.99215 0.32683 0.0
C1454 C 0.25384 0.9665 0.28469 0.0
C1455 C 0.26631 0.9448 0.27826 0.0
C1456 C 0.25568 0.93018 0.2575 0.0
C1457 C 0.23123 0.93709 0.24446 0.0
C1458 C 0.21855 0.9588 0.25114 0.0
H1459 H 0.2002 0.99938 0.34216 0.0
H1460 H 0.20846 0.97352 0.32183 0.0
H1461 H 0.23524 0.99186 0.33638 0.0
H1462 H 0.26369 0.97804 0.29946 0.0
H1463 H 0.28517 0.94018 0.28864 0.0
H1464 H 0.47097 0.15829 0.01569 0.0
H1465 H 0.45221 0.19681 0.0012 0.0
H1466 H 0.53048 0.21666 0.96777 0.0
H1467 H 0.54918 0.17803 0.98148 0.0
H1468 H 0.47234 0.2365 0.02409 0.0
H1469 H 0.47931 0.24604 0.91209 0.0
H1470 H 0.48128 0.21732 0.92906 0.0
H1471 H 0.5109 0.23643 0.92724 0.0
C1472 C 0.48396 0.17051 0.00444 0.0
C1473 C 0.51168 0.1652 0.00012 0.0
C1474 C 0.47319 0.19254 0.99616 0.0
C1475 C 0.48991 0.20966 0.98338 0.0
C1476 C 0.51701 0.20364 0.97713 0.0
H1477 H 0.48567 0.3605 0.01082 0.0
H1478 H 0.49981 0.31974 -0.00026 0.0
C1479 C 0.52775 0.18153 0.98521 0.0
C1480 C 0.48061 0.23488 0.98105 0.0
H1481 H 0.4753 0.28274 0.93768 0.0
C1482 C 0.47262 0.24645 0.00508 0.0
C1483 C 0.48108 0.24794 0.95629 0.0
C1484 C 0.48835 0.23623 0.92966 0.0
C1485 C 0.46581 0.27078 0.00521 0.0
C1486 C 0.46737 0.28406 0.98073 0.0
C1487 C 0.47453 0.27249 0.95646 0.0
C1488 C 0.46148 0.31001 0.98065 0.0
C1489 C 0.45727 0.28225 0.03166 0.0
C1490 C 0.43577 0.31831 0.97223 0.0
C1491 C 0.42757 0.34164 0.97852 0.0
C1492 C 0.44496 0.3569 0.9935 0.0
C1493 C 0.47168 0.34918 -0.00049 0.0
C1494 C 0.47984 0.3259 0.99316 0.0
H1495 H 0.45261 0.26872 0.04763 0.0
H1496 H 0.47408 0.29387 0.03923 0.0
H1497 H 0.43896 0.29368 0.0285 0.0
H1498 H 0.42133 0.30625 0.96258 0.0
H1499 H 0.40691 0.34704 0.97342 0.0
H1500 H 0.93942 0.16745 0.9875 0.0
H1501 H 0.95333 0.20743 0.00289 0.0
H1502 H 0.02494 0.20378 0.95222 0.0
H1503 H 0.01112 0.16405 0.93652 0.0
H1504 H 0.00612 0.23124 0.02416 0.0
H1505 H 0.97232 0.25747 0.92008 0.0
H1506 H 0.96312 0.22916 0.9354 0.0
H1507 H 0.99666 0.23341 0.92137 0.0
C1508 C 0.95865 0.17478 0.98041 0.0
C1509 C 0.97402 0.16274 0.9605 0.0
C1510 C 0.96652 0.19766 0.98919 0.0
C1511 C 0.98991 0.20865 0.97834 0.0
C1512 C 0.00668 0.19565 0.96063 0.0
H1513 H 0.07499 0.3416 0.99311 0.0
H1514 H 0.05754 0.30141 0.00174 0.0
C1515 C 0.99876 0.17294 0.9517 0.0
C1516 C 0.99467 0.23467 0.98195 0.0
H1517 H 0.99529 0.28696 0.94595 0.0
C1518 C 0.00356 0.24354 0.0072 0.0
C1519 C 0.99075 0.25069 0.95994 0.0
C1520 C 0.97996 0.24233 0.9327 0.0
C1521 C 0.0097 0.26803 0.01064 0.0
C1522 C 0.00715 0.28383 0.98814 0.0
C1523 C 0.99728 0.27494 0.96324 0.0
C1524 C 0.0161 0.30931 0.98893 0.0
C1525 C 0.0188 0.2767 0.03829 0.0
C1526 C 0.99857 0.32743 0.97936 0.0
C1527 C 0.00864 0.3504 0.97392 0.0
C1528 C 0.03645 0.35574 0.97803 0.0
C1529 C 0.05343 0.33816 0.98978 0.0
C1530 C 0.04341 0.31511 0.99492 0.0
H1531 H 0.01079 0.26497 0.05476 0.0
H1532 H 0.04146 0.27624 0.03941 0.0
H1533 H 0.01197 0.29535 0.04204 0.0
H1534 H 0.97741 0.3234 0.97457 0.0
H1535 H 0.99498 0.36354 0.96498 0.0
H1536 H 0.07013 0.69798 0.15657 0.0
H1537 H 0.03551 0.72885 0.15009 0.0
H1538 H 0.01534 0.69953 0.07135 0.0
H1539 H 0.04985 0.66813 0.07792 0.0
H1540 H 0.03415 0.76327 0.11037 0.0
H1541 H 0.94007 0.70742 0.10521 0.0
H1542 H 0.97232 0.69581 0.1174 0.0
H1543 H 0.96638 0.69947 0.08148 0.0
C1544 C 0.05816 0.69785 0.13796 0.0
C1545 C 0.06279 0.68048 0.11779 0.0
C1546 C 0.03837 0.71561 0.13426 0.0
C1547 C 0.02261 0.7165 0.11033 0.0
C1548 C 0.02686 0.699 0.09022 0.0
H1549 H 0.89478 0.82133 0.06682 0.0
H1550 H 0.92976 0.78997 0.06355 0.0
C1551 C 0.04666 0.68108 0.09397 0.0
C1552 C 0.00271 0.73643 0.1063 0.0
H1553 H 0.93469 0.74904 0.09846 0.0
C1554 C 0.01241 0.76012 0.10766 0.0
C1555 C 0.97434 0.73239 0.10257 0.0
C1556 C 0.96252 0.70743 0.10179 0.0
C1557 C 0.99458 0.77978 0.10586 0.0
C1558 C 0.96616 0.77575 0.10294 0.0
C1559 C 0.95649 0.75212 0.10069 0.0
C1560 C 0.94603 0.79571 0.10405 0.0
C1561 C 0.00633 0.80476 0.10717 0.0
C1562 C 0.94359 0.80942 0.12784 0.0
C1563 C 0.92366 0.82727 0.12978 0.0
C1564 C 0.90565 0.83186 0.10797 0.0
C1565 C 0.90847 0.81844 0.0839 0.0
C1566 C 0.92835 0.80041 0.08205 0.0
H1567 H 0.02832 0.80501 0.10157 0.0
H1568 H 0.99505 0.81714 0.09343 0.0
H1569 H 0.00456 0.81158 0.1283 0.0
H1570 H 0.95667 0.80588 0.14525 0.0
H1571 H 0.92202 0.83714 0.14866 0.0
H1572 H 0.4903 0.6482 0.4634 0.0
H1573 H 0.51575 0.68185 0.48183 0.0
H1574 H 0.45706 0.68867 0.54672 0.0
H1575 H 0.43062 0.65541 0.52754 0.0
H1576 H 0.46396 0.7298 0.52454 0.0
H1577 H 0.56707 0.69415 0.54238 0.0
H1578 H 0.55722 0.68712 0.50819 0.0
H1579 H 0.53818 0.67469 0.53634 0.0
C1580 C 0.48308 0.6564 0.48199 0.0
C1581 C 0.4583 0.64913 0.4939 0.0
C1582 C 0.49787 0.67562 0.4927 0.0
C1583 C 0.48866 0.6877 0.51598 0.0
C1584 C 0.46469 0.67963 0.52881 0.0
H1585 H 0.59594 0.81124 0.54801 0.0
H1586 H 0.5691 0.77534 0.55881 0.0
C1587 C 0.44963 0.66055 0.51786 0.0
C1588 C 0.50212 0.71046 0.52445 0.0
H1589 H 0.5649 0.7368 0.52998 0.0
C1590 C 0.48601 0.7312 0.52642 0.0
C1591 C 0.53082 0.71246 0.52772 0.0
C1592 C 0.5492 0.69081 0.52887 0.0
C1593 C 0.49793 0.75395 0.5292 0.0
C1594 C 0.52678 0.75616 0.52902 0.0
C1595 C 0.54279 0.73529 0.52948 0.0
C1596 C 0.54068 0.77967 0.52524 0.0
C1597 C 0.47938 0.77539 0.53171 0.0
C1598 C 0.53346 0.79431 0.50306 0.0
C1599 C 0.54845 0.81493 0.49708 0.0
C1600 C 0.57149 0.82119 0.51278 0.0
C1601 C 0.57827 0.80697 0.53552 0.0
C1602 C 0.563 0.78639 0.54169 0.0
H1603 H 0.46035 0.77057 0.54274 0.0
H1604 H 0.48954 0.79039 0.5426 0.0
H1605 H 0.47332 0.78159 0.51106 0.0
H1606 H 0.51694 0.78923 0.48948 0.0
H1607 H 0.5427 0.8253 0.47931 0.0
H1608 H 0.0517 0.68491 0.53677 0.0
H1609 H 0.04057 0.72707 0.5439 0.0
H1610 H 0.01712 0.73356 0.4595 0.0
H1611 H 0.02848 0.69145 0.45222 0.0
H1612 H 0.04989 0.7739 0.48268 0.0
H1613 H 0.95791 0.7483 0.54266 0.0
H1614 H 0.98984 0.73514 0.55312 0.0
H1615 H 0.97529 0.72745 0.52068 0.0
C1616 C 0.04468 0.69531 0.51967 0.0
C1617 C 0.04096 0.68467 0.49403 0.0
C1618 C 0.03818 0.71943 0.52377 0.0
C1619 C 0.02785 0.73336 0.50225 0.0
C1620 C 0.02508 0.72311 0.47637 0.0
H1621 H 0.92782 0.85975 0.50954 0.0
H1622 H 0.95031 0.82278 0.49561 0.0
C1623 C 0.03144 0.69899 0.47233 0.0
C1624 C 0.01806 0.75809 0.50703 0.0
H1625 H 0.96698 0.78949 0.53772 0.0
C1626 C 0.03184 0.77739 0.49479 0.0
C1627 C 0.99432 0.76247 0.52255 0.0
C1628 C 0.97826 0.7423 0.5354 0.0
C1629 C 0.02254 0.80107 0.49791 0.0
C1630 C 0.99889 0.80541 0.51358 0.0
C1631 C 0.98511 0.78608 0.52569 0.0
C1632 C 0.98774 0.82979 0.5178 0.0
C1633 C 0.03767 0.82123 0.48408 0.0
C1634 C 0.00173 0.84639 0.53415 0.0
C1635 C 0.98891 0.86761 0.54223 0.0
C1636 C 0.9618 0.87249 0.53419 0.0
C1637 C 0.94865 0.85658 0.5162 0.0
C1638 C 0.96144 0.83538 0.50824 0.0
H1639 H 0.05246 0.81455 0.46877 0.0
H1640 H 0.02307 0.83359 0.47388 0.0
H1641 H 0.04912 0.83165 0.49961 0.0
H1642 H 0.02194 0.8423 0.54198 0.0
H1643 H -0.00036 0.87943 0.55611 0.0
H1644 H 0.13923 0.26972 0.35999 0.0
H1645 H 0.10229 0.24015 0.35758 0.0
H1646 H 0.04331 0.29563 0.37364 0.0
H1647 H 0.07995 0.32536 0.37506 0.0
H1648 H 0.06777 0.22559 0.3952 0.0
H1649 H 0.0073 0.26394 0.31032 0.0
H1650 H 0.04124 0.2744 0.31853 0.0
H1651 H 0.01214 0.28513 0.33727 0.0
C1652 C 0.11835 0.2757 0.36259 0.0
C1653 C 0.11258 0.29998 0.36749 0.0
C1654 C 0.09722 0.25873 0.36131 0.0
C1655 C 0.06985 0.26561 0.36501 0.0
C1656 C 0.06408 0.28987 0.36993 0.0
H1657 H 0.93656 0.17 0.41296 0.0
H1658 H 0.97583 0.19726 0.41216 0.0
C1659 C 0.08514 0.30689 0.37087 0.0
C1660 C 0.04754 0.2473 0.36492 0.0
H1661 H 0.98506 0.23411 0.3373 0.0
C1662 C 0.04978 0.22737 0.38237 0.0
C1663 C 0.02416 0.24933 0.34794 0.0
C1664 C 0.02117 0.26922 0.32726 0.0
C1665 C 0.02921 0.20974 0.38365 0.0
C1666 C 0.00523 0.2124 0.36763 0.0
C1667 C 0.00322 0.23211 0.34985 0.0
C1668 C 0.9821 0.19489 0.36859 0.0
C1669 C 0.03373 0.18822 0.40176 0.0
C1670 C 0.97203 0.18473 0.34438 0.0
C1671 C 0.94928 0.16949 0.34475 0.0
C1672 C 0.93609 0.16389 0.36937 0.0
C1673 C 0.94646 0.17367 0.3937 0.0
C1674 C 0.96904 0.1892 0.39327 0.0
H1675 H 0.05585 0.18508 0.40558 0.0
H1676 H 0.02386 0.19137 0.42174 0.0
H1677 H 0.02478 0.17177 0.39267 0.0
H1678 H 0.98164 0.18879 0.32506 0.0
H1679 H 0.94185 0.16229 0.32564 0.0
H1680 H 0.38807 0.70662 0.86261 0.0
H1681 H 0.42118 0.73864 0.85222 0.0
H1682 H 0.47596 0.7106 0.9134 0.0
H1683 H 0.44347 0.67884 0.92379 0.0
H1684 H 0.4638 0.76185 0.91666 0.0
H1685 H 0.49875 0.73231 0.81428 0.0
H1686 H 0.46249 0.73356 0.82053 0.0
H1687 H 0.48301 0.7119 0.83819 0.0
C1688 C 0.40727 0.70719 0.87366 0.0
C1689 C 0.41305 0.69012 0.89403 0.0
C1690 C 0.42619 0.72545 0.86766 0.0
C1691 C 0.4511 0.72692 0.88197 0.0
C1692 C 0.45691 0.7098 0.90208 0.0
H1693 H 0.60453 0.80183 0.87256 0.0
H1694 H 0.56679 0.77289 0.87211 0.0
C1695 C 0.43822 0.6916 0.90796 0.0
C1696 C 0.47097 0.74667 0.8771 0.0
H1697 H 0.51962 0.76681 0.83266 0.0
C1698 C 0.47578 0.76313 0.89816 0.0
C1699 C 0.48677 0.74811 0.85309 0.0
C1700 C 0.48276 0.73052 0.83017 0.0
C1701 C 0.49619 0.78078 0.89601 0.0
C1702 C 0.51219 0.78211 0.87212 0.0
C1703 C 0.50722 0.76583 0.85089 0.0
C1704 C 0.53497 0.79965 0.86957 0.0
C1705 C 0.50114 0.79743 0.9197 0.0
C1706 C 0.52963 0.82429 0.86766 0.0
C1707 C 0.55115 0.84089 0.86779 0.0
C1708 C 0.57849 0.83319 0.86998 0.0
C1709 C 0.58377 0.80842 0.87094 0.0
C1710 C 0.56222 0.79183 0.87063 0.0
H1711 H 0.49002 0.79163 0.93828 0.0
H1712 H 0.52332 0.79849 0.92451 0.0
H1713 H 0.49412 0.8157 0.91416 0.0
H1714 H 0.50876 0.8307 0.86664 0.0
H1715 H 0.54627 0.85979 0.86697 0.0
H1716 H 0.61337 0.9814 0.85338 0.0
H1717 H 0.61172 0.01618 0.82268 0.0
H1718 H 0.58853 0.97009 0.75613 0.0
H1719 H 0.58979 0.93553 0.7865 0.0
H1720 H 0.64373 0.02254 0.77677 0.0
H1721 H 0.53432 0.02464 0.74755 0.0
H1722 H 0.5467 1.00796 0.77664 0.0
H1723 H 0.54953 0.99573 0.7429 0.0
C1724 C 0.6074 0.97876 0.83233 0.0
C1725 C 0.60169 0.95564 0.82245 0.0
C1726 C 0.60655 0.99865 0.81478 0.0
C1727 C 0.59965 0.99584 0.78713 0.0
C1728 C 0.59332 0.97286 0.77746 0.0
H1729 H 0.60743 0.07693 0.6371 0.0
H1730 H 0.59985 0.04733 0.67325 0.0
C1731 C 0.59424 0.95304 0.79489 0.0
C1732 C 0.60119 0.01642 0.7678 0.0
H1733 H 0.56499 0.04676 0.71897 0.0
C1734 C 0.62641 0.02807 0.76441 0.0
C1735 C 0.57864 0.02353 0.7515 0.0
C1736 C 0.5507 0.01247 0.75498 0.0
C1737 C 0.62998 0.04601 0.74456 0.0
C1738 C 0.60756 0.05284 0.72793 0.0
C1739 C 0.58219 0.04149 0.73164 0.0
C1740 C 0.61029 0.07136 0.7062 0.0
C1741 C 0.65803 0.05684 0.74087 0.0
C1742 C 0.61791 0.09492 0.7127 0.0
C1743 C 0.6223 0.11186 0.6921 0.0
C1744 C 0.61899 0.10568 0.66449 0.0
C1745 C 0.61024 0.08233 0.65809 0.0
C1746 C 0.6059 0.06536 0.67875 0.0
H1747 H 0.67424 0.04566 0.75041 0.0
H1748 H 0.66284 0.05916 0.71894 0.0
H1749 H 0.65861 0.07473 0.75063 0.0
H1750 H 0.62083 0.10014 0.73375 0.0
H1751 H 0.62879 0.12971 0.69785 0.0
H1752 H 0.14536 0.37596 0.89163 0.0
H1753 H 0.18972 0.36481 0.91089 0.0
H1754 H 0.14933 0.31921 0.96946 0.0
H1755 H 0.10514 0.32927 0.94922 0.0
H1756 H 0.20219 0.37791 0.95957 0.0
H1757 H 0.21538 0.27963 0.95529 0.0
H1758 H 0.18979 0.29509 0.93535 0.0
H1759 H 0.18346 0.28773 0.97052 0.0
C1760 C 0.1461 0.36282 0.9079 0.0
C1761 C 0.12192 0.35349 0.91898 0.0
C1762 C 0.17141 0.35651 0.91897 0.0
C1763 C 0.17294 0.34116 0.94167 0.0
C1764 C 0.14884 0.33063 0.95161 0.0
H1765 H 0.30201 0.36709 0.0591 0.0
H1766 H 0.25696 0.35863 0.03947 0.0
C1767 C 0.12353 0.33649 0.94008 0.0
C1768 C 0.19885 0.33945 0.95738 0.0
H1769 H 0.24382 0.30065 0.98745 0.0
C1770 C 0.21138 0.36097 0.96539 0.0
C1771 C 0.21088 0.31738 0.96505 0.0
C1772 C 0.19932 0.29367 0.95586 0.0
C1773 C 0.23553 0.36113 0.98074 0.0
C1774 C 0.24694 0.33909 0.98944 0.0
C1775 C 0.23465 0.3175 0.98128 0.0
C1776 C 0.2727 0.33846 0.00537 0.0
C1777 C 0.24893 0.38497 0.98676 0.0
C1778 C 0.29611 0.32799 0.99412 0.0
C1779 C 0.32178 0.33227 0.0057 0.0
C1780 C 0.32437 0.34737 0.02845 0.0
C1781 C 0.30062 0.35569 0.04132 0.0
C1782 C 0.27493 0.351 0.03003 0.0
H1783 H 0.24166 0.39926 0.9727 0.0
H1784 H 0.2438 0.39052 0.00781 0.0
H1785 H 0.27152 0.38378 0.98508 0.0
H1786 H 0.29479 0.31804 0.97524 0.0
H1787 H 0.3397 0.3255 0.99537 0.0
H1788 H 0.82429 0.08093 0.31633 0.0
H1789 H 0.81543 0.04816 0.28433 0.0
H1790 H 0.89837 0.02352 0.29458 0.0
H1791 H 0.90756 0.0564 0.32591 0.0
H1792 H 0.88329 0.02268 0.24195 0.0
H1793 H 0.80342 0.97853 0.30446 0.0
H1794 H 0.79595 1.00916 0.29611 0.0
H1795 H 0.82485 1.00225 0.31749 0.0
C1796 C 0.84069 0.06862 0.31163 0.0
C1797 C 0.86661 0.07129 0.32382 0.0
C1798 C 0.83551 0.04974 0.29352 0.0
C1799 C 0.85606 0.03302 0.28746 0.0
C1800 C 0.88212 0.03607 0.29903 0.0
H1801 H 0.83779 0.89116 0.21543 0.0
H1802 H 0.84406 0.92532 0.24614 0.0
C1803 C 0.88734 0.05494 0.31698 0.0
C1804 C 0.85072 0.01239 0.26895 0.0
H1805 H 0.81082 0.96257 0.26035 0.0
C1806 C 0.86743 1.00955 0.24599 0.0
C1807 C 0.83034 0.99499 0.27443 0.0
C1808 C 0.81277 0.99618 0.29959 0.0
C1809 C 0.86422 0.98999 0.22829 0.0
C1810 C 0.84325 0.973 0.23327 0.0
C1811 C 0.8267 0.97569 0.25637 0.0
C1812 C 0.8384 0.95225 0.21483 0.0
C1813 C 0.88384 0.98742 0.20483 0.0
C1814 C 0.8325 0.95596 0.18713 0.0
C1815 C 0.82912 0.93651 0.16954 0.0
C1816 C 0.83117 0.91283 0.17928 0.0
C1817 C 0.83615 0.90912 0.20722 0.0
C1818 C 0.83973 0.92865 0.22481 0.0
H1819 H 0.90307 0.99758 0.20842 0.0
H1820 H 0.88907 0.96834 0.20128 0.0
H1821 H 0.87418 0.99463 0.18605 0.0
H1822 H 0.83062 0.97395 0.17905 0.0
H1823 H 0.82498 0.94008 0.14822 0.0
H1824 H 0.15513 0.70948 0.54421 0.0
H1825 H 0.20307 0.71817 0.53434 0.0
H1826 H 0.18797 0.70545 0.44894 0.0
H1827 H 0.14012 0.69765 0.45845 0.0
H1828 H 0.23294 0.68302 0.51726 0.0
H1829 H 0.24498 0.756 0.44272 0.0
H1830 H 0.21389 0.75204 0.46198 0.0
H1831 H 0.21925 0.73567 0.43082 0.0
C1832 C 0.16179 0.7095 0.52319 0.0
C1833 C 0.14394 0.70238 0.50218 0.0
C1834 C 0.18922 0.71448 0.51758 0.0
C1835 C 0.19923 0.71243 0.4909 0.0
C1836 C 0.18078 0.70764 0.46961 0.0
H1837 H 0.3308 0.63345 0.43327 0.0
H1838 H 0.28858 0.652 0.44879 0.0
C1839 C 0.15334 0.70291 0.47516 0.0
C1840 C 0.22903 0.71008 0.48599 0.0
H1841 H 0.27884 0.7234 0.43976 0.0
C1842 C 0.24315 0.69241 0.5008 0.0
C1843 C 0.24261 0.72235 0.46468 0.0
C1844 C 0.22939 0.74275 0.44939 0.0
C1845 C 0.26958 0.68539 0.49354 0.0
C1846 C 0.28203 0.69597 0.47054 0.0
C1847 C 0.26895 0.71497 0.45705 0.0
C1848 C 0.3074 0.68592 0.45903 0.0
C1849 C 0.28353 0.666 0.50994 0.0
C1850 C 0.33174 0.69923 0.45864 0.0
C1851 C 0.35601 0.68867 0.44963 0.0
C1852 C 0.35619 0.6647 0.4408 0.0
C1853 C 0.33145 0.65185 0.44015 0.0
C1854 C 0.30731 0.6624 0.4491 0.0
H1855 H 0.27533 0.665 0.53099 0.0
H1856 H 0.27984 0.64843 0.50006 0.0
H1857 H 0.30596 0.66904 0.51104 0.0
H1858 H 0.3321 0.71748 0.46607 0.0
H1859 H 0.37473 0.69907 0.4503 0.0
H1860 H 0.73913 0.59456 0.12383 0.0
H1861 H 0.75311 0.57513 0.08137 0.0
H1862 H 0.73049 0.63854 0.03628 0.0
H1863 H 0.71605 0.65782 0.07822 0.0
H1864 H 0.71422 0.59625 0.01124 0.0
H1865 H 0.82402 0.59356 0.04197 0.0
H1866 H 0.79977 0.57891 0.06387 0.0
H1867 H 0.79914 0.61091 0.06039 0.0
C1868 C 0.73686 0.60424 0.10481 0.0
C1869 C 0.7267 0.62783 0.10442 0.0
C1870 C 0.74501 0.59316 0.08063 0.0
C1871 C 0.74324 0.60555 0.05579 0.0
C1872 C 0.73208 0.62868 0.05527 0.0
H1873 H 0.81907 0.62911 0.91117 0.0
H1874 H 0.80807 0.62049 0.95844 0.0
C1875 C 0.72388 0.6397 0.0793 0.0
C1876 C 0.75391 0.59532 0.03018 0.0
H1877 H 0.81361 0.58479 0.99652 0.0
C1878 C 0.73587 0.59318 0.00804 0.0
C1879 C 0.78219 0.59138 0.02624 0.0
C1880 C 0.80254 0.5939 0.04925 0.0
C1881 C 0.74552 0.58908 0.98162 0.0
C1882 C 0.77399 0.58639 0.9774 0.0
C1883 C 0.79182 0.58672 -0.00012 0.0
C1884 C 0.7858 0.58783 0.9497 0.0
C1885 C 0.72533 0.58971 0.95825 0.0
C1886 C 0.7784 0.57154 0.92922 0.0
C1887 C 0.78438 0.57661 0.90195 0.0
C1888 C 0.7981 0.59791 0.89491 0.0
C1889 C 0.80812 0.61273 0.91581 0.0
C1890 C 0.80192 0.60777 0.94293 0.0
H1891 H 0.7047 0.59563 0.96477 0.0
H1892 H 0.73255 0.602 0.94197 0.0
H1893 H 0.72332 0.57151 0.94944 0.0
H1894 H 0.76656 0.55571 0.93412 0.0
H1895 H 0.77673 0.56464 0.88635 0.0
H1896 H 0.70685 0.45292 0.31208 0.0
H1897 H 0.71417 0.49596 0.30538 0.0
H1898 H 0.78286 0.48107 0.25339 0.0
H1899 H 0.77555 0.4381 0.25966 0.0
H1900 H 0.76058 0.52761 0.31282 0.0
H1901 H 0.7291 0.51863 0.20434 0.0
H1902 H 0.7233 0.49529 0.22916 0.0
H1903 H 0.75673 0.49953 0.21487 0.0
C1904 C 0.72375 0.4588 0.29952 0.0
C1905 C 0.74039 0.44206 0.2861 0.0
C1906 C 0.72792 0.4834 0.29575 0.0
C1907 C 0.74876 0.49167 0.27852 0.0
C1908 C 0.76637 0.47504 0.2664 0.0
H1909 H 0.77168 0.63153 0.20335 0.0
H1910 H 0.78151 0.59154 0.22124 0.0
C1911 C 0.76218 0.45048 0.27006 0.0
C1912 C 0.7508 0.51749 0.27163 0.0
H1913 H 0.74294 0.55684 0.21887 0.0
C1914 C 0.75686 0.53405 0.29227 0.0
C1915 C 0.7459 0.52581 0.24481 0.0
C1916 C 0.73816 0.50897 0.22201 0.0
C1917 C 0.75821 0.55877 0.28675 0.0
C1918 C 0.75291 0.5671 0.25998 0.0
C1919 C 0.74726 0.55045 0.23933 0.0
C1920 C 0.75102 0.59296 0.25301 0.0
C1921 C 0.76545 0.5757 0.30956 0.0
C1922 C 0.73124 0.60739 0.26548 0.0
C1923 C 0.72567 0.63032 0.25538 0.0
C1924 C 0.73953 0.63917 0.23238 0.0
C1925 C 0.7606 0.62531 0.22107 0.0
C1926 C 0.76621 0.60239 0.23123 0.0
H1927 H 0.77739 0.56651 0.32579 0.0
H1928 H 0.77745 0.59124 0.30197 0.0
H1929 H 0.74636 0.58253 0.31885 0.0
H1930 H 0.71887 0.6004 0.28193 0.0
H1931 H 0.70929 0.64046 0.2646 0.0
H1932 H 0.79212 0.37083 0.54287 0.0
H1933 H 0.79274 0.36552 0.49324 0.0
H1934 H 0.71323 0.33208 0.49669 0.0
H1935 H 0.71213 0.33788 0.5457 0.0
H1936 H 0.78996 0.32563 0.46157 0.0
H1937 H 0.70015 0.3835 0.44088 0.0
H1938 H 0.71656 0.38231 0.47381 0.0
H1939 H 0.69279 0.35926 0.46375 0.0
C1940 C 0.77473 0.36251 0.53293 0.0
C1941 C 0.75187 0.3552 0.54808 0.0
C1942 C 0.77514 0.35939 0.50466 0.0
C1943 C 0.75279 0.3488 0.49118 0.0
C1944 C 0.73039 0.34083 0.50646 0.0
H1945 H 0.75298 0.29942 0.32155 0.0
H1946 H 0.75452 0.30062 0.37155 0.0
C1947 C 0.72981 0.34419 0.53455 0.0
C1948 C 0.75278 0.3462 0.46116 0.0
H1949 H 0.71719 0.36121 0.40374 0.0
C1950 C 0.77408 0.33342 0.44886 0.0
C1951 C 0.73207 0.35647 0.44466 0.0
C1952 C 0.70925 0.37134 0.45641 0.0
C1953 C 0.7752 0.3305 0.42048 0.0
C1954 C 0.75433 0.34058 0.40404 0.0
C1955 C 0.73304 0.35333 0.41639 0.0
C1956 C 0.7547 0.33936 0.37388 0.0
C1957 C 0.79906 0.3172 0.40841 0.0
C1958 C 0.75388 0.36066 0.35864 0.0
C1959 C 0.75244 0.35995 0.33029 0.0
C1960 C 0.75181 0.33797 0.31664 0.0
C1961 C 0.75352 0.31661 0.33173 0.0
C1962 C 0.75455 0.31728 0.36022 0.0
H1963 H 0.81657 0.31614 0.42286 0.0
H1964 H 0.7926 0.29862 0.40355 0.0
H1965 H 0.80611 0.32589 0.38932 0.0
H1966 H 0.7541 0.3779 0.36873 0.0
H1967 H 0.75184 0.37659 0.31903 0.0
H1968 H 0.73466 0.58719 0.80085 0.0
H1969 H 0.71956 0.55008 0.77899 0.0
H1970 H 0.75278 0.5745 0.70259 0.0
H1971 H 0.7677 0.61175 0.7241 0.0
H1972 H 0.70094 0.54964 0.69834 0.0
H1973 H 0.77854 0.4999 0.75948 0.0
H1974 H 0.75433 0.51741 0.77832 0.0
H1975 H 0.77871 0.53213 0.75671 0.0
C1976 C 0.73834 0.58488 0.77928 0.0
C1977 C 0.7527 0.60233 0.7643 0.0
C1978 C 0.72978 0.56361 0.76687 0.0
C1979 C 0.7355 0.5594 0.73932 0.0
C1980 C 0.74828 0.57738 0.72392 0.0
H1981 H 0.74518 0.45024 0.62042 0.0
H1982 H 0.73753 0.48713 0.64558 0.0
C1983 C 0.75683 0.59865 0.73628 0.0
C1984 C 0.73033 0.53562 0.72696 0.0
H1985 H 0.75317 0.4779 0.72763 0.0
C1986 C 0.71211 0.53387 0.70489 0.0
C1987 C 0.7449 0.51508 0.73561 0.0
C1988 C 0.76538 0.51609 0.75869 0.0
C1989 C 0.70845 0.51215 0.6909 0.0
C1990 C 0.72385 0.49185 0.69889 0.0
C1991 C 0.74129 0.49344 0.72159 0.0
C1992 C 0.72438 0.46948 0.6826 0.0
C1993 C 0.68826 0.51123 0.66762 0.0
C1994 C 0.71955 0.44716 0.69499 0.0
C1995 C 0.72419 0.42591 0.68067 0.0
C1996 C 0.73397 0.42662 0.65377 0.0
C1997 C 0.73761 0.44901 0.64109 0.0
C1998 C 0.73301 0.47019 0.65539 0.0
H1999 H 0.67182 0.52475 0.67018 0.0
H2000 H 0.69904 0.51536 0.64833 0.0
H2001 H 0.67875 0.49323 0.6658 0.0
H2002 H 0.71307 0.44619 0.71604 0.0
H2003 H 0.72122 0.40897 0.69106 0.0
H2004 H 0.63896 0.25122 0.63051 0.0
H2005 H 0.61092 0.28766 0.62852 0.0
H2006 H 0.54483 0.24997 0.6678 0.0
H2007 H 0.57271 0.21406 0.67057 0.0
H2008 H 0.56353 0.2944 0.60161 0.0
H2009 H 0.54525 0.31068 0.71078 0.0
H2010 H 0.57116 0.2902 0.69912 0.0
H2011 H 0.53606 0.28061 0.70192 0.0
C2012 C 0.61871 0.25092 0.63935 0.0
C2013 C 0.60818 0.22971 0.65084 0.0
C2014 C 0.60262 0.27171 0.63803 0.0
C2015 C 0.57582 0.27174 0.64834 0.0
C2016 C 0.56562 0.25071 0.66032 0.0
H2017 H 0.43313 0.3515 0.60044 0.0
H2018 H 0.47296 0.3252 0.6027 0.0
C2019 C 0.58162 0.23006 0.66175 0.0
C2020 C 0.55764 0.29298 0.64505 0.0
H2021 H 0.51239 0.32794 0.67966 0.0
C2022 C 0.55267 0.30201 0.61874 0.0
C2023 C 0.54373 0.30327 0.66736 0.0
C2024 C 0.54956 0.29585 0.69639 0.0
C2025 C 0.53327 0.32018 0.61402 0.0
C2026 C 0.51786 0.32917 0.63612 0.0
C2027 C 0.52381 0.32091 0.66257 0.0
C2028 C 0.4949 0.34652 0.63245 0.0
C2029 C 0.52962 0.32954 0.58539 0.0
C2030 C 0.49362 0.36727 0.64853 0.0
C2031 C 0.47059 0.38211 0.64765 0.0
C2032 C 0.44831 0.37664 0.63052 0.0
C2033 C 0.45004 0.35641 0.6136 0.0
C2034 C 0.47295 0.34138 0.61478 0.0
H2035 H 0.54865 0.32742 0.57335 0.0
H2036 H 0.51328 0.31913 0.57504 0.0
H2037 H 0.52377 0.34875 0.58527 0.0
H2038 H 0.51019 0.37168 0.66236 0.0
H2039 H 0.46994 0.39754 0.66094 0.0
loop_
_geom_bond_atom_site_label_1
_geom_bond_atom_site_label_2
_geom_bond_distance
_geom_bond_site_symmetry_2
_ccdc_geom_bond_type
Mg0 O7 2.141 . S
Mg0 O8 2.048 . S
Mg0 O9 2.048 . S
Mg0 O12 2.141 . S
C1 O2 1.313 . S
C1 O8 1.195 . S
O2 C1 1.313 . S
C3 O4 1.245 . S
C3 O12 1.289 . S
O4 C3 1.245 . S
C5 O6 1.245 . S
C5 O7 1.289 . S
O6 C5 1.245 . S
O7 Mg0 2.141 . S
O7 C5 1.289 . S
O8 Mg0 2.048 . S
O8 C1 1.195 . S
O9 Mg0 2.048 . S
O9 C10 1.195 . S
C10 O9 1.195 . S
C10 O11 1.313 . S
O11 C10 1.313 . S
O12 Mg0 2.141 . S
O12 C3 1.289 . S
Mg13 O20 2.141 . S
Mg13 O21 2.048 . S
Mg13 O22 2.048 . S
Mg13 O25 2.141 . S
C14 O15 1.313 . S
C14 O21 1.195 . S
O15 C14 1.313 . S
C16 O17 1.245 . S
C16 O25 1.289 . S
O17 C16 1.245 . S
C18 O19 1.245 . S
C18 O20 1.289 . S
O19 C18 1.245 . S
O20 Mg13 2.141 . S
O20 C18 1.289 . S
O21 Mg13 2.048 . S
O21 C14 1.195 . S
O22 Mg13 2.048 . S
O22 C23 1.195 . S
C23 O22 1.195 . S
C23 O24 1.313 . S
O24 C23 1.313 . S
O25 Mg13 2.141 . S
O25 C16 1.289 . S
Mg26 O33 2.141 . S
Mg26 O34 2.048 . S
Mg26 O35 2.048 . S
Mg26 O38 2.141 . S
C27 O28 1.313 . S
C27 O34 1.195 . S
O28 C27 1.313 . S
C29 O30 1.245 . S
C29 O38 1.289 . S
O30 C29 1.245 . S
C31 O32 1.245 . S
C31 O33 1.289 . S
O32 C31 1.245 . S
O33 Mg26 2.141 . S
O33 C31 1.289 . S
O34 Mg26 2.048 . S
O34 C27 1.195 . S
O35 Mg26 2.048 . S
O35 C36 1.195 . S
C36 O35 1.195 . S
C36 O37 1.313 . S
O37 C36 1.313 . S
O38 Mg26 2.141 . S
O38 C29 1.289 . S
Mg39 O46 2.141 . S
Mg39 O47 2.048 . S
Mg39 O48 2.048 . S
Mg39 O51 2.141 . S
C40 O41 1.313 1_554 S
C40 O47 1.195 . S
O41 C40 1.313 1_556 S
C42 O43 1.245 . S
C42 O51 1.289 . S
O43 C42 1.245 . S
C44 O45 1.245 . S
C44 O46 1.289 . S
O45 C44 1.245 . S
O46 Mg39 2.141 . S
O46 C44 1.289 . S
O47 Mg39 2.048 . S
O47 C40 1.195 . S
O48 Mg39 2.048 . S
O48 C49 1.195 1_554 S
C49 O48 1.195 1_556 S
C49 O50 1.313 . S
O50 C49 1.313 . S
O51 Mg39 2.141 . S
O51 C42 1.289 . S
Mg52 O59 2.141 . S
Mg52 O60 2.048 . S
Mg52 O61 2.048 . S
Mg52 O64 2.141 . S
C53 O54 1.313 . S
C53 O60 1.195 . S
O54 C53 1.313 . S
C55 O56 1.245 . S
C55 O64 1.289 . S
O56 C55 1.245 . S
C57 O58 1.245 . S
C57 O59 1.289 . S
O58 C57 1.245 . S
O59 Mg52 2.141 . S
O59 C57 1.289 . S
O60 Mg52 2.048 . S
O60 C53 1.195 . S
O61 Mg52 2.048 . S
O61 C62 1.195 . S
C62 O61 1.195 . S
C62 O63 1.313 . S
O63 C62 1.313 . S
O64 Mg52 2.141 . S
O64 C55 1.289 . S
Mg65 O72 2.141 . S
Mg65 O73 2.048 . S
Mg65 O74 2.048 . S
Mg65 O77 2.141 . S
C66 O67 1.313 . S
C66 O73 1.195 . S
O67 C66 1.313 . S
C68 O69 1.245 . S
C68 O77 1.289 . S
O69 C68 1.245 . S
C70 O71 1.245 . S
C70 O72 1.289 . S
O71 C70 1.245 . S
O72 Mg65 2.141 . S
O72 C70 1.289 . S
O73 Mg65 2.048 . S
O73 C66 1.195 . S
O74 Mg65 2.048 . S
O74 C75 1.195 . S
C75 O74 1.195 . S
C75 O76 1.313 . S
O76 C75 1.313 . S
O77 Mg65 2.141 . S
O77 C68 1.289 . S
Mg78 O85 2.141 . S
Mg78 O86 2.048 . S
Mg78 O87 2.048 . S
Mg78 O90 2.141 . S
C79 O80 1.313 . S
C79 O86 1.195 . S
O80 C79 1.313 . S
C81 O82 1.245 . S
C81 O90 1.289 . S
O82 C81 1.245 . S
C83 O84 1.245 . S
C83 O85 1.289 . S
O84 C83 1.245 . S
O85 Mg78 2.141 . S
O85 C83 1.289 . S
O86 Mg78 2.048 . S
O86 C79 1.195 . S
O87 Mg78 2.048 . S
O87 C88 1.195 . S
C88 O87 1.195 . S
C88 O89 1.313 . S
O89 C88 1.313 . S
O90 Mg78 2.141 . S
O90 C81 1.289 . S
Mg91 O98 2.141 . S
Mg91 O99 2.048 . S
Mg91 O100 2.048 . S
Mg91 O103 2.141 . S
C92 O93 1.313 1_556 S
C92 O99 1.195 . S
O93 C92 1.313 1_554 S
C94 O95 1.245 . S
C94 O103 1.289 . S
O95 C94 1.245 . S
C96 O97 1.245 . S
C96 O98 1.289 . S
O97 C96 1.245 . S
O98 Mg91 2.141 . S
O98 C96 1.289 . S
O99 Mg91 2.048 . S
O99 C92 1.195 . S
O100 Mg91 2.048 . S
O100 C101 1.158 1_556 S
C101 O100 1.158 1_554 S
C101 O102 1.342 . S
O102 C101 1.342 . S
O103 Mg91 2.141 . S
O103 C94 1.289 . S
Mg104 O111 2.141 . S
Mg104 O112 2.048 . S
Mg104 O113 2.048 . S
Mg104 O116 2.141 . S
C105 O106 1.313 . S
C105 O112 1.195 . S
O106 C105 1.313 . S
C107 O108 1.245 . S
C107 O116 1.289 . S
O108 C107 1.245 . S
C109 O110 1.245 . S
C109 O111 1.289 . S
O110 C109 1.245 . S
O111 Mg104 2.141 . S
O111 C109 1.289 . S
O112 Mg104 2.048 . S
O112 C105 1.195 . S
O113 Mg104 2.048 . S
O113 C114 1.195 . S
C114 O113 1.195 . S
C114 O115 1.313 . S
O115 C114 1.313 . S
O116 Mg104 2.141 . S
O116 C107 1.289 . S
Mg117 O124 2.141 . S
Mg117 O125 2.048 . S
Mg117 O126 2.048 . S
Mg117 O129 2.141 . S
C118 O119 1.313 . S
C118 O125 1.195 . S
O119 C118 1.313 . S
C120 O121 1.245 . S
C120 O129 1.289 . S
O121 C120 1.245 . S
C122 O123 1.245 . S
C122 O124 1.289 . S
O123 C122 1.245 . S
O124 Mg117 2.141 . S
O124 C122 1.289 . S
O125 Mg117 2.048 . S
O125 C118 1.195 . S
O126 Mg117 2.048 . S
O126 C127 1.195 . S
C127 O126 1.195 . S
C127 O128 1.313 . S
O128 C127 1.313 . S
O129 Mg117 2.141 . S
O129 C120 1.289 . S
Mg130 O137 2.141 . S
Mg130 O138 2.048 . S
Mg130 O139 2.048 . S
Mg130 O142 2.141 . S
C131 O132 1.313 . S
C131 O138 1.195 . S
O132 C131 1.313 . S
C133 O134 1.245 . S
C133 O142 1.289 . S
O134 C133 1.245 . S
C135 O136 1.245 . S
C135 O137 1.289 . S
O136 C135 1.245 . S
O137 Mg130 2.141 . S
O137 C135 1.289 . S
O138 Mg130 2.048 . S
O138 C131 1.195 . S
O139 Mg130 2.048 . S
O139 C140 1.195 . S
C140 O139 1.195 . S
C140 O141 1.313 . S
O141 C140 1.313 . S
O142 Mg130 2.141 . S
O142 C133 1.289 . S
Mg143 O150 2.141 . S
Mg143 O151 2.048 . S
Mg143 O152 2.048 . S
Mg143 O155 2.141 . S
C144 O145 1.313 . S
C144 O151 1.195 . S
O145 C144 1.313 . S
C146 O147 1.245 . S
C146 O155 1.289 . S
O147 C146 1.245 . S
C148 O149 1.245 . S
C148 O150 1.289 . S
O149 C148 1.245 . S
O150 Mg143 2.141 . S
O150 C148 1.289 . S
O151 Mg143 2.048 . S
O151 C144 1.195 . S
O152 Mg143 2.048 . S
O152 C153 1.195 . S
C153 O152 1.195 . S
C153 O154 1.313 . S
O154 C153 1.313 . S
O155 Mg143 2.141 . S
O155 C146 1.289 . S
Mg156 O163 2.141 . S
Mg156 O164 2.048 . S
Mg156 O165 2.048 . S
Mg156 O168 2.141 . S
C157 O158 1.313 . S
C157 O164 1.195 . S
O158 C157 1.313 . S
C159 O160 1.245 1_554 S
C159 O168 1.289 . S
O160 C159 1.245 1_556 S
C161 O162 1.245 . S
C161 O163 1.289 1_556 S
O162 C161 1.245 . S
O163 Mg156 2.141 . S
O163 C161 1.289 1_554 S
O164 Mg156 2.048 . S
O164 C157 1.195 . S
O165 Mg156 2.048 . S
O165 C166 1.195 . S
C166 O165 1.195 . S
C166 O167 1.313 . S
O167 C166 1.313 . S
O168 Mg156 2.141 . S
O168 C159 1.289 . S
Mg169 O176 2.141 . S
Mg169 O177 2.048 . S
Mg169 O178 2.048 . S
Mg169 O181 2.141 . S
C170 O171 1.313 . S
C170 O177 1.195 . S
O171 C170 1.313 . S
C172 O173 1.245 . S
C172 O181 1.289 . S
O173 C172 1.245 . S
C174 O175 1.245 . S
C174 O176 1.289 . S
O175 C174 1.245 . S
O176 Mg169 2.141 . S
O176 C174 1.289 . S
O177 Mg169 2.048 . S
O177 C170 1.195 . S
O178 Mg169 2.048 . S
O178 C179 1.195 . S
C179 O178 1.195 . S
C179 O180 1.313 . S
O180 C179 1.313 . S
O181 Mg169 2.141 . S
O181 C172 1.289 . S
Mg182 O189 2.141 . S
Mg182 O190 2.048 . S
Mg182 O191 2.048 . S
Mg182 O194 2.141 . S
C183 O184 1.313 . S
C183 O190 1.195 . S
O184 C183 1.313 . S
C185 O186 1.245 . S
C185 O194 1.289 . S
O186 C185 1.245 . S
C187 O188 1.245 . S
C187 O189 1.289 . S
O188 C187 1.245 . S
O189 Mg182 2.141 . S
O189 C187 1.289 . S
O190 Mg182 2.048 . S
O190 C183 1.195 . S
O191 Mg182 2.048 . S
O191 C192 1.195 . S
C192 O191 1.195 . S
C192 O193 1.313 . S
O193 C192 1.313 . S
O194 Mg182 2.141 . S
O194 C185 1.289 . S
Mg195 O202 2.141 . S
Mg195 O203 2.048 . S
Mg195 O204 2.048 . S
Mg195 O207 2.141 . S
C196 O197 1.313 . S
C196 O203 1.195 . S
O197 C196 1.313 . S
C198 O199 1.245 . S
C198 O207 1.289 . S
O199 C198 1.245 . S
C200 O201 1.245 . S
C200 O202 1.289 . S
O201 C200 1.245 . S
O202 Mg195 2.141 . S
O202 C200 1.289 . S
O203 Mg195 2.048 . S
O203 C196 1.195 . S
O204 Mg195 2.048 . S
O204 C205 1.195 . S
C205 O204 1.195 . S
C205 O206 1.313 . S
O206 C205 1.313 . S
O207 Mg195 2.141 . S
O207 C198 1.289 . S
Mg208 O215 2.141 . S
Mg208 O216 2.048 . S
Mg208 O217 2.048 . S
Mg208 O220 2.141 . S
C209 O210 1.313 . S
C209 O216 1.195 . S
O210 C209 1.313 . S
C211 O212 1.245 . S
C211 O220 1.289 . S
O212 C211 1.245 . S
C213 O214 1.245 . S
C213 O215 1.289 . S
O214 C213 1.245 . S
O215 Mg208 2.141 . S
O215 C213 1.289 . S
O216 Mg208 2.048 . S
O216 C209 1.195 . S
O217 Mg208 2.048 . S
O217 C218 1.195 . S
C218 O217 1.195 . S
C218 O219 1.313 . S
O219 C218 1.313 . S
O220 Mg208 2.141 . S
O220 C211 1.289 . S
Mg221 O228 2.141 . S
Mg221 O229 2.048 . S
Mg221 O230 2.048 . S
Mg221 O233 2.141 . S
C222 O223 1.313 . S
C222 O229 1.195 . S
O223 C222 1.313 . S
C224 O225 1.245 . S
C224 O233 1.289 . S
O225 C224 1.245 . S
C226 O227 1.245 . S
C226 O228 1.289 . S
O227 C226 1.245 . S
O228 Mg221 2.141 . S
O228 C226 1.289 . S
O229 Mg221 2.048 . S
O229 C222 1.195 . S
O230 Mg221 2.048 . S
O230 C231 1.195 . S
C231 O230 1.195 . S
C231 O232 1.313 . S
O232 C231 1.313 . S
O233 Mg221 2.141 . S
O233 C224 1.289 . S
Mg234 O241 2.141 . S
Mg234 O242 2.048 . S
Mg234 O243 2.048 . S
Mg234 O246 2.141 . S
C235 O236 1.313 1_556 S
C235 O242 1.195 . S
O236 C235 1.313 1_554 S
C237 O238 1.245 . S
C237 O246 1.289 . S
O238 C237 1.245 . S
C239 O240 1.245 . S
C239 O241 1.289 . S
O240 C239 1.245 . S
O241 Mg234 2.141 . S
O241 C239 1.289 . S
O242 Mg234 2.048 . S
O242 C235 1.195 . S
O243 Mg234 2.048 . S
O243 C244 1.195 . S
C244 O243 1.195 . S
C244 O245 1.313 1_556 S
O245 C244 1.313 1_554 S
O246 Mg234 2.141 . S
O246 C237 1.289 . S
Mg247 O254 2.141 . S
Mg247 O255 2.048 . S
Mg247 O256 2.048 . S
Mg247 O259 2.141 . S
C248 O249 1.313 . S
C248 O255 1.195 . S
O249 C248 1.313 . S
C250 O251 1.245 . S
C250 O259 1.289 . S
O251 C250 1.245 . S
C252 O253 1.245 . S
C252 O254 1.289 . S
O253 C252 1.245 . S
O254 Mg247 2.141 . S
O254 C252 1.289 . S
O255 Mg247 2.048 . S
O255 C248 1.195 . S
O256 Mg247 2.048 . S
O256 C257 1.195 . S
C257 O256 1.195 . S
C257 O258 1.313 . S
O258 C257 1.313 . S
O259 Mg247 2.141 . S
O259 C250 1.289 . S
Mg260 O267 2.141 . S
Mg260 O268 2.048 . S
Mg260 O269 2.048 . S
Mg260 O272 2.141 . S
C261 O262 1.313 . S
C261 O268 1.195 . S
O262 C261 1.313 . S
C263 O264 1.245 . S
C263 O272 1.289 . S
O264 C263 1.245 . S
C265 O266 1.245 . S
C265 O267 1.289 . S
O266 C265 1.245 . S
O267 Mg260 2.141 . S
O267 C265 1.289 . S
O268 Mg260 2.048 . S
O268 C261 1.195 . S
O269 Mg260 2.048 . S
O269 C270 1.195 . S
C270 O269 1.195 . S
C270 O271 1.313 . S
O271 C270 1.313 . S
O272 Mg260 2.141 . S
O272 C263 1.289 . S
Mg273 O280 2.141 . S
Mg273 O281 2.048 . S
Mg273 O282 2.048 . S
Mg273 O285 2.141 . S
C274 O275 1.313 . S
C274 O281 1.195 . S
O275 C274 1.313 . S
C276 O277 1.245 . S
C276 O285 1.289 . S
O277 C276 1.245 . S
C278 O279 1.245 . S
C278 O280 1.289 . S
O279 C278 1.245 . S
O280 Mg273 2.141 . S
O280 C278 1.289 . S
O281 Mg273 2.048 . S
O281 C274 1.195 . S
O282 Mg273 2.048 . S
O282 C283 1.195 . S
C283 O282 1.195 . S
C283 O284 1.313 . S
O284 C283 1.313 . S
O285 Mg273 2.141 . S
O285 C276 1.289 . S
Mg286 O293 2.141 . S
Mg286 O294 2.048 . S
Mg286 O295 2.048 . S
Mg286 O298 2.141 . S
C287 O288 1.313 . S
C287 O294 1.195 . S
O288 C287 1.313 . S
C289 O290 1.245 . S
C289 O298 1.289 . S
O290 C289 1.245 . S
C291 O292 1.245 . S
C291 O293 1.289 . S
O292 C291 1.245 . S
O293 Mg286 2.141 . S
O293 C291 1.289 . S
O294 Mg286 2.048 . S
O294 C287 1.195 . S
O295 Mg286 2.048 . S
O295 C296 1.195 . S
C296 O295 1.195 . S
C296 O297 1.313 . S
O297 C296 1.313 . S
O298 Mg286 2.141 . S
O298 C289 1.289 . S
Mg299 O306 2.141 . S
Mg299 O307 2.048 . S
Mg299 O308 2.048 . S
Mg299 O311 2.141 . S
C300 O301 1.313 . S
C300 O307 1.195 . S
O301 C300 1.313 . S
C302 O303 1.245 . S
C302 O311 1.289 . S
O303 C302 1.245 . S
C304 O305 1.245 . S
C304 O306 1.289 . S
O305 C304 1.245 . S
O306 Mg299 2.141 . S
O306 C304 1.289 . S
O307 Mg299 2.048 . S
O307 C300 1.195 . S
O308 Mg299 2.048 . S
O308 C309 1.195 . S
C309 O308 1.195 . S
C309 O310 1.313 . S
O310 C309 1.313 . S
O311 Mg299 2.141 . S
O311 C302 1.289 . S
H312 C320 0.929 . S
H313 C322 0.930 . S
H314 C324 0.930 . S
H315 C327 0.929 . S
H316 C330 0.930 . S
H317 C332 0.960 . S
H318 C332 0.960 . S
H319 C332 0.960 . S
C320 H312 0.929 . S
C320 C321 1.377 . S
C320 C322 1.384 . S
C321 C320 1.377 . S
C321 C327 1.390 . S
C322 H313 0.930 . S
C322 C320 1.384 . S
C322 C323 1.372 . S
C323 C322 1.372 . S
C323 C324 1.400 . S
C323 C328 1.490 . S
C324 H314 0.930 . S
C324 C323 1.400 . S
C324 C327 1.386 . S
H325 C341 0.930 . S
H326 C342 0.931 . S
C327 H315 0.929 . S
C327 C321 1.390 . S
C327 C324 1.386 . S
C328 C323 1.490 . S
C328 C330 1.395 . S
C328 C331 1.403 . S
H329 C335 0.930 . S
C330 H316 0.930 . S
C330 C328 1.395 . S
C330 C333 1.403 . S
C331 C328 1.403 . S
C331 C332 1.524 . S
C331 C335 1.400 . S
C332 H317 0.960 . S
C332 H318 0.960 . S
C332 H319 0.960 . S
C332 C331 1.524 . S
C333 C330 1.403 . S
C333 C334 1.392 . S
C333 C337 1.495 . S
C334 C333 1.392 . S
C334 C335 1.385 . S
C334 C336 1.478 . S
C335 H329 0.930 . S
C335 C331 1.400 . S
C335 C334 1.385 . S
C336 C334 1.478 . S
C336 C338 1.381 . S
C336 C342 1.383 . S
C337 C333 1.495 . S
C337 H343 0.959 . S
C337 H344 0.961 . S
C337 H345 0.960 . S
C338 C336 1.381 . S
C338 C339 1.394 . S
C338 H346 0.930 . S
C339 C338 1.394 . S
C339 C340 1.383 . S
C339 H347 0.929 . S
C340 C339 1.383 . S
C340 C341 1.377 . S
C341 H325 0.930 . S
C341 C340 1.377 . S
C341 C342 1.379 . S
C342 H326 0.931 . S
C342 C336 1.383 . S
C342 C341 1.379 . S
H343 C337 0.959 . S
H344 C337 0.961 . S
H345 C337 0.960 . S
H346 C338 0.930 . S
H347 C339 0.929 . S
H348 C356 0.929 . S
H349 C358 0.930 . S
H350 C360 0.930 . S
H351 C363 0.929 . S
H352 C366 0.930 . S
H353 C368 0.960 . S
H354 C368 0.960 . S
H355 C368 0.960 . S
C356 H348 0.929 . S
C356 C357 1.377 1_455 S
C356 C358 1.384 . S
C357 C356 1.377 1_655 S
C357 C363 1.390 . S
C358 H349 0.930 . S
C358 C356 1.384 . S
C358 C359 1.372 . S
C359 C358 1.372 . S
C359 C360 1.400 . S
C359 C364 1.490 . S
C360 H350 0.930 . S
C360 C359 1.400 . S
C360 C363 1.386 1_455 S
H361 C377 0.930 . S
H362 C378 0.931 . S
C363 H351 0.929 . S
C363 C357 1.390 . S
C363 C360 1.386 1_655 S
C364 C359 1.490 . S
C364 C366 1.395 . S
C364 C367 1.403 . S
H365 C371 0.930 . S
C366 H352 0.930 . S
C366 C364 1.395 . S
C366 C369 1.403 . S
C367 C364 1.403 . S
C367 C368 1.524 . S
C367 C371 1.400 . S
C368 H353 0.960 . S
C368 H354 0.960 . S
C368 H355 0.960 . S
C368 C367 1.524 . S
C369 C366 1.403 . S
C369 C370 1.392 . S
C369 C373 1.495 . S
C370 C369 1.392 . S
C370 C371 1.385 . S
C370 C372 1.478 . S
C371 H365 0.930 . S
C371 C367 1.400 . S
C371 C370 1.385 . S
C372 C370 1.478 . S
C372 C374 1.381 . S
C372 C378 1.383 . S
C373 C369 1.495 . S
C373 H379 0.959 . S
C373 H380 0.961 . S
C373 H381 0.960 . S
C374 C372 1.381 . S
C374 C375 1.394 . S
C374 H382 0.930 . S
C375 C374 1.394 . S
C375 C376 1.383 . S
C375 H383 0.929 . S
C376 C375 1.383 . S
C376 C377 1.377 . S
C377 H361 0.930 . S
C377 C376 1.377 . S
C377 C378 1.379 . S
C378 H362 0.931 . S
C378 C372 1.383 . S
C378 C377 1.379 . S
H379 C373 0.959 . S
H380 C373 0.961 . S
H381 C373 0.960 . S
H382 C374 0.930 . S
H383 C375 0.929 . S
H384 C392 0.929 . S
H385 C394 0.930 . S
H386 C396 0.930 . S
H387 C399 0.929 . S
H388 C402 0.930 . S
H389 C404 0.960 . S
H390 C404 0.960 . S
H391 C404 0.960 . S
C392 H384 0.929 . S
C392 C393 1.377 . S
C392 C394 1.384 . S
C393 C392 1.377 . S
C393 C399 1.390 . S
C394 H385 0.930 . S
C394 C392 1.384 . S
C394 C395 1.372 . S
C395 C394 1.372 . S
C395 C396 1.400 . S
C395 C400 1.490 . S
C396 H386 0.930 . S
C396 C395 1.400 . S
C396 C399 1.386 . S
H397 C413 0.930 . S
H398 C414 0.931 . S
C399 H387 0.929 . S
C399 C393 1.390 . S
C399 C396 1.386 . S
C400 C395 1.490 . S
C400 C402 1.395 . S
C400 C403 1.403 . S
H401 C407 0.930 . S
C402 H388 0.930 . S
C402 C400 1.395 . S
C402 C405 1.403 . S
C403 C400 1.403 . S
C403 C404 1.524 . S
C403 C407 1.400 . S
C404 H389 0.960 . S
C404 H390 0.960 . S
C404 H391 0.960 . S
C404 C403 1.524 . S
C405 C402 1.403 . S
C405 C406 1.392 . S
C405 C409 1.495 . S
C406 C405 1.392 . S
C406 C407 1.385 . S
C406 C408 1.478 . S
C407 H401 0.930 . S
C407 C403 1.400 . S
C407 C406 1.385 . S
C408 C406 1.478 . S
C408 C410 1.381 1_554 S
C408 C414 1.383 . S
C409 C405 1.495 . S
C409 H415 0.959 . S
C409 H416 0.961 . S
C409 H417 0.960 . S
C410 C408 1.381 1_556 S
C410 C411 1.394 . S
C410 H418 0.930 . S
C411 C410 1.394 . S
C411 C412 1.383 . S
C411 H419 0.929 . S
C412 C411 1.383 . S
C412 C413 1.377 . S
C413 H397 0.930 . S
C413 C412 1.377 . S
C413 C414 1.379 1_556 S
C414 H398 0.931 . S
C414 C408 1.383 . S
C414 C413 1.379 1_554 S
H415 C409 0.959 . S
H416 C409 0.961 . S
H417 C409 0.960 . S
H418 C410 0.930 . S
H419 C411 0.929 . S
H420 C428 0.929 . S
H421 C430 0.930 . S
H422 C432 0.930 . S
H423 C435 0.929 . S
H424 C438 0.930 . S
H425 C440 0.960 . S
H426 C440 0.960 . S
H427 C440 0.960 . S
C428 H420 0.929 . S
C428 C429 1.377 . S
C428 C430 1.384 . S
C429 C428 1.377 . S
C429 C435 1.390 . S
C430 H421 0.930 . S
C430 C428 1.384 . S
C430 C431 1.372 . S
C431 C430 1.372 . S
C431 C432 1.400 . S
C431 C436 1.490 . S
C432 H422 0.930 . S
C432 C431 1.400 . S
C432 C435 1.386 . S
H433 C449 0.930 . S
H434 C450 0.931 . S
C435 H423 0.929 . S
C435 C429 1.390 . S
C435 C432 1.386 . S
C436 C431 1.490 . S
C436 C438 1.395 . S
C436 C439 1.403 . S
H437 C443 0.930 . S
C438 H424 0.930 . S
C438 C436 1.395 . S
C438 C441 1.403 . S
C439 C436 1.403 . S
C439 C440 1.524 . S
C439 C443 1.400 . S
C440 H425 0.960 . S
C440 H426 0.960 . S
C440 H427 0.960 . S
C440 C439 1.524 . S
C441 C438 1.403 . S
C441 C442 1.392 . S
C441 C445 1.495 . S
C442 C441 1.392 . S
C442 C443 1.385 . S
C442 C444 1.478 . S
C443 H437 0.930 . S
C443 C439 1.400 . S
C443 C442 1.385 . S
C444 C442 1.478 . S
C444 C446 1.381 . S
C444 C450 1.383 . S
C445 C441 1.495 . S
C445 H451 0.959 . S
C445 H452 0.961 . S
C445 H453 0.960 . S
C446 C444 1.381 . S
C446 C447 1.394 . S
C446 H454 0.930 . S
C447 C446 1.394 . S
C447 C448 1.383 . S
C447 H455 0.929 . S
C448 C447 1.383 . S
C448 C449 1.377 . S
C449 H433 0.930 . S
C449 C448 1.377 . S
C449 C450 1.379 . S
C450 H434 0.931 . S
C450 C444 1.383 . S
C450 C449 1.379 . S
H451 C445 0.959 . S
H452 C445 0.961 . S
H453 C445 0.960 . S
H454 C446 0.930 . S
H455 C447 0.929 . S
H456 C464 0.929 . S
H457 C466 0.930 . S
H458 C468 0.930 . S
H459 C471 0.929 . S
H460 C474 0.930 . S
H461 C476 0.960 . S
H462 C476 0.960 . S
H463 C476 0.960 . S
C464 H456 0.929 . S
C464 C465 1.377 . S
C464 C466 1.384 . S
C465 C464 1.377 . S
C465 C471 1.390 . S
C466 H457 0.930 . S
C466 C464 1.384 . S
C466 C467 1.372 . S
C467 C466 1.372 . S
C467 C468 1.400 . S
C467 C472 1.490 . S
C468 H458 0.930 . S
C468 C467 1.400 . S
C468 C471 1.386 . S
H469 C485 0.930 . S
H470 C486 0.931 1_556 S
C471 H459 0.929 . S
C471 C465 1.390 . S
C471 C468 1.386 . S
C472 C467 1.490 . S
C472 C474 1.395 . S
C472 C475 1.403 . S
H473 C479 0.930 . S
C474 H460 0.930 . S
C474 C472 1.395 . S
C474 C477 1.403 . S
C475 C472 1.403 . S
C475 C476 1.524 . S
C475 C479 1.400 . S
C476 H461 0.960 . S
C476 H462 0.960 . S
C476 H463 0.960 . S
C476 C475 1.524 . S
C477 C474 1.403 . S
C477 C478 1.392 . S
C477 C481 1.495 1_556 S
C478 C477 1.392 . S
C478 C479 1.385 . S
C478 C480 1.478 1_556 S
C479 H473 0.930 . S
C479 C475 1.400 . S
C479 C478 1.385 . S
C480 C478 1.478 1_554 S
C480 C482 1.381 . S
C480 C486 1.383 . S
C481 C477 1.495 1_554 S
C481 H487 0.959 . S
C481 H488 0.961 . S
C481 H489 0.960 . S
C482 C480 1.381 . S
C482 C483 1.394 . S
C482 H490 0.930 . S
C483 C482 1.394 . S
C483 C484 1.383 . S
C483 H491 0.929 . S
C484 C483 1.383 . S
C484 C485 1.377 . S
C485 H469 0.930 . S
C485 C484 1.377 . S
C485 C486 1.379 . S
C486 H470 0.931 1_554 S
C486 C480 1.383 . S
C486 C485 1.379 . S
H487 C481 0.959 . S
H488 C481 0.961 . S
H489 C481 0.960 . S
H490 C482 0.930 . S
H491 C483 0.929 . S
H492 C500 0.929 . S
H493 C502 0.930 . S
H494 C504 0.930 . S
H495 C507 0.929 . S
H496 C510 0.930 . S
H497 C512 0.960 . S
H498 C512 0.960 . S
H499 C512 0.960 . S
C500 H492 0.929 . S
C500 C501 1.377 . S
C500 C502 1.384 . S
C501 C500 1.377 . S
C501 C507 1.390 . S
C502 H493 0.930 . S
C502 C500 1.384 . S
C502 C503 1.372 . S
C503 C502 1.372 . S
C503 C504 1.400 . S
C503 C508 1.490 . S
C504 H494 0.930 . S
C504 C503 1.400 . S
C504 C507 1.386 . S
H505 C521 0.930 . S
H506 C522 0.931 . S
C507 H495 0.929 . S
C507 C501 1.390 . S
C507 C504 1.386 . S
C508 C503 1.490 . S
C508 C510 1.395 . S
C508 C511 1.403 . S
H509 C515 0.930 . S
C510 H496 0.930 . S
C510 C508 1.395 . S
C510 C513 1.403 . S
C511 C508 1.403 . S
C511 C512 1.524 . S
C511 C515 1.400 . S
C512 H497 0.960 . S
C512 H498 0.960 . S
C512 H499 0.960 . S
C512 C511 1.524 . S
C513 C510 1.403 . S
C513 C514 1.392 . S
C513 C517 1.495 . S
C514 C513 1.392 . S
C514 C515 1.385 . S
C514 C516 1.478 . S
C515 H509 0.930 . S
C515 C511 1.400 . S
C515 C514 1.385 . S
C516 C514 1.478 . S
C516 C518 1.381 . S
C516 C522 1.383 . S
C517 C513 1.495 . S
C517 H523 0.959 . S
C517 H524 0.961 . S
C517 H525 0.960 . S
C518 C516 1.381 . S
C518 C519 1.394 . S
C518 H526 0.930 . S
C519 C518 1.394 . S
C519 C520 1.383 . S
C519 H527 0.929 . S
C520 C519 1.383 . S
C520 C521 1.377 . S
C521 H505 0.930 . S
C521 C520 1.377 . S
C521 C522 1.379 . S
C522 H506 0.931 . S
C522 C516 1.383 . S
C522 C521 1.379 . S
H523 C517 0.959 . S
H524 C517 0.961 . S
H525 C517 0.960 . S
H526 C518 0.930 . S
H527 C519 0.929 . S
H528 C536 0.929 . S
H529 C538 0.930 . S
H530 C540 0.930 . S
H531 C543 0.929 . S
H532 C546 0.930 . S
H533 C548 0.960 . S
H534 C548 0.960 . S
H535 C548 0.960 . S
C536 H528 0.929 . S
C536 C537 1.377 . S
C536 C538 1.384 . S
C537 C536 1.377 . S
C537 C543 1.390 . S
C538 H529 0.930 . S
C538 C536 1.384 . S
C538 C539 1.372 . S
C539 C538 1.372 . S
C539 C540 1.400 . S
C539 C544 1.490 . S
C540 H530 0.930 . S
C540 C539 1.400 . S
C540 C543 1.386 . S
H541 C557 0.930 . S
H542 C558 0.931 . S
C543 H531 0.929 . S
C543 C537 1.390 . S
C543 C540 1.386 . S
C544 C539 1.490 . S
C544 C546 1.395 . S
C544 C547 1.403 . S
H545 C551 0.930 . S
C546 H532 0.930 . S
C546 C544 1.395 . S
C546 C549 1.403 . S
C547 C544 1.403 . S
C547 C548 1.524 . S
C547 C551 1.400 . S
C548 H533 0.960 . S
C548 H534 0.960 . S
C548 H535 0.960 . S
C548 C547 1.524 . S
C549 C546 1.403 . S
C549 C550 1.392 . S
C549 C553 1.495 . S
C550 C549 1.392 . S
C550 C551 1.385 . S
C550 C552 1.478 . S
C551 H545 0.930 . S
C551 C547 1.400 . S
C551 C550 1.385 . S
C552 C550 1.478 . S
C552 C554 1.381 . S
C552 C558 1.383 . S
C553 C549 1.495 . S
C553 H559 0.959 . S
C553 H560 0.961 . S
C553 H561 0.960 . S
C554 C552 1.381 . S
C554 C555 1.394 . S
C554 H562 0.930 . S
C555 C554 1.394 . S
C555 C556 1.383 . S
C555 H563 0.929 . S
C556 C555 1.383 . S
C556 C557 1.377 . S
C557 H541 0.930 . S
C557 C556 1.377 . S
C557 C558 1.379 . S
C558 H542 0.931 . S
C558 C552 1.383 . S
C558 C557 1.379 . S
H559 C553 0.959 . S
H560 C553 0.961 . S
H561 C553 0.960 . S
H562 C554 0.930 . S
H563 C555 0.929 . S
H564 C572 0.929 . S
H565 C574 0.930 . S
H566 C576 0.930 . S
H567 C579 0.929 . S
H568 C582 0.930 . S
H569 C584 0.960 . S
H570 C584 0.960 . S
H571 C584 0.960 . S
C572 H564 0.929 . S
C572 C573 1.377 . S
C572 C574 1.384 . S
C573 C572 1.377 . S
C573 C579 1.390 . S
C574 H565 0.930 . S
C574 C572 1.384 . S
C574 C575 1.372 . S
C575 C574 1.372 . S
C575 C576 1.400 . S
C575 C580 1.490 . S
C576 H566 0.930 . S
C576 C575 1.400 . S
C576 C579 1.386 . S
H577 C593 0.930 1_655 S
H578 C594 0.931 . S
C579 H567 0.929 . S
C579 C573 1.390 . S
C579 C576 1.386 . S
C580 C575 1.490 . S
C580 C582 1.395 . S
C580 C583 1.403 . S
H581 C587 0.930 . S
C582 H568 0.930 . S
C582 C580 1.395 . S
C582 C585 1.403 . S
C583 C580 1.403 . S
C583 C584 1.524 . S
C583 C587 1.400 . S
C584 H569 0.960 . S
C584 H570 0.960 . S
C584 H571 0.960 . S
C584 C583 1.524 . S
C585 C582 1.403 . S
C585 C586 1.392 . S
C585 C589 1.495 . S
C586 C585 1.392 . S
C586 C587 1.385 . S
C586 C588 1.478 . S
C587 H581 0.930 . S
C587 C583 1.400 . S
C587 C586 1.385 . S
C588 C586 1.478 . S
C588 C590 1.381 . S
C588 C594 1.383 . S
C589 C585 1.495 . S
C589 H595 0.959 . S
C589 H596 0.961 . S
C589 H597 0.960 . S
C590 C588 1.381 . S
C590 C591 1.394 . S
C590 H598 0.930 . S
C591 C590 1.394 . S
C591 C592 1.383 . S
C591 H599 0.929 . S
C592 C591 1.383 . S
C592 C593 1.377 . S
C593 H577 0.930 1_455 S
C593 C592 1.377 . S
C593 C594 1.379 . S
C594 H578 0.931 . S
C594 C588 1.383 . S
C594 C593 1.379 . S
H595 C589 0.959 . S
H596 C589 0.961 . S
H597 C589 0.960 . S
H598 C590 0.930 . S
H599 C591 0.929 . S
H600 C608 0.929 . S
H601 C610 0.930 . S
H602 C612 0.930 . S
H603 C615 0.929 . S
H604 C618 0.930 . S
H605 C620 0.960 . S
H606 C620 0.960 . S
H607 C620 0.960 . S
C608 H600 0.929 . S
C608 C609 1.377 . S
C608 C610 1.384 . S
C609 C608 1.377 . S
C609 C615 1.390 . S
C610 H601 0.930 . S
C610 C608 1.384 . S
C610 C611 1.372 . S
C611 C610 1.372 . S
C611 C612 1.400 . S
C611 C616 1.490 . S
C612 H602 0.930 . S
C612 C611 1.400 . S
C612 C615 1.386 . S
H613 C629 0.930 . S
H614 C630 0.931 . S
C615 H603 0.929 . S
C615 C609 1.390 . S
C615 C612 1.386 . S
C616 C611 1.490 . S
C616 C618 1.395 . S
C616 C619 1.403 . S
H617 C623 0.930 . S
C618 H604 0.930 . S
C618 C616 1.395 . S
C618 C621 1.403 . S
C619 C616 1.403 . S
C619 C620 1.524 . S
C619 C623 1.400 . S
C620 H605 0.960 . S
C620 H606 0.960 . S
C620 H607 0.960 . S
C620 C619 1.524 . S
C621 C618 1.403 . S
C621 C622 1.392 . S
C621 C625 1.495 . S
C622 C621 1.392 . S
C622 C623 1.385 . S
C622 C624 1.478 . S
C623 H617 0.930 . S
C623 C619 1.400 . S
C623 C622 1.385 . S
C624 C622 1.478 . S
C624 C626 1.381 . S
C624 C630 1.383 . S
C625 C621 1.495 . S
C625 H631 0.959 . S
C625 H632 0.961 . S
C625 H633 0.960 . S
C626 C624 1.381 . S
C626 C627 1.394 . S
C626 H634 0.930 . S
C627 C626 1.394 . S
C627 C628 1.383 . S
C627 H635 0.929 . S
C628 C627 1.383 . S
C628 C629 1.377 . S
C629 H613 0.930 . S
C629 C628 1.377 . S
C629 C630 1.379 . S
C630 H614 0.931 . S
C630 C624 1.383 . S
C630 C629 1.379 . S
H631 C625 0.959 . S
H632 C625 0.961 . S
H633 C625 0.960 . S
H634 C626 0.930 . S
H635 C627 0.929 . S
H636 C644 0.929 . S
H637 C646 0.930 1_565 S
H638 C648 0.930 . S
H639 C651 0.929 . S
H640 C654 0.930 . S
H641 C656 0.960 . S
H642 C656 0.960 . S
H643 C656 0.960 . S
C644 H636 0.929 . S
C644 C645 1.377 . S
C644 C646 1.384 . S
C645 C644 1.377 . S
C645 C651 1.390 . S
C646 H637 0.930 1_545 S
C646 C644 1.384 . S
C646 C647 1.372 . S
C647 C646 1.372 . S
C647 C648 1.400 . S
C647 C652 1.490 1_545 S
C648 H638 0.930 . S
C648 C647 1.400 . S
C648 C651 1.386 . S
H649 C665 0.930 . S
H650 C666 0.931 . S
C651 H639 0.929 . S
C651 C645 1.390 . S
C651 C648 1.386 . S
C652 C647 1.490 1_565 S
C652 C654 1.395 . S
C652 C655 1.403 1_565 S
H653 C659 0.930 . S
C654 H640 0.930 . S
C654 C652 1.395 . S
C654 C657 1.403 . S
C655 C652 1.403 1_545 S
C655 C656 1.524 . S
C655 C659 1.400 1_545 S
C656 H641 0.960 . S
C656 H642 0.960 . S
C656 H643 0.960 . S
C656 C655 1.524 . S
C657 C654 1.403 . S
C657 C658 1.392 . S
C657 C661 1.495 . S
C658 C657 1.392 . S
C658 C659 1.385 . S
C658 C660 1.478 . S
C659 H653 0.930 . S
C659 C655 1.400 1_565 S
C659 C658 1.385 . S
C660 C658 1.478 . S
C660 C662 1.381 . S
C660 C666 1.383 . S
C661 C657 1.495 . S
C661 H667 0.959 . S
C661 H668 0.961 . S
C661 H669 0.960 . S
C662 C660 1.381 . S
C662 C663 1.394 . S
C662 H670 0.930 . S
C663 C662 1.394 . S
C663 C664 1.383 . S
C663 H671 0.929 . S
C664 C663 1.383 . S
C664 C665 1.377 . S
C665 H649 0.930 . S
C665 C664 1.377 . S
C665 C666 1.379 . S
C666 H650 0.931 . S
C666 C660 1.383 . S
C666 C665 1.379 . S
H667 C661 0.959 . S
H668 C661 0.961 . S
H669 C661 0.960 . S
H670 C662 0.930 . S
H671 C663 0.929 . S
H672 C680 0.929 . S
H673 C682 0.930 . S
H674 C684 0.930 . S
H675 C687 0.929 . S
H676 C690 0.930 . S
H677 C692 0.960 . S
H678 C692 0.960 . S
H679 C692 0.960 . S
C680 H672 0.929 . S
C680 C681 1.377 . S
C680 C682 1.384 . S
C681 C680 1.377 . S
C681 C687 1.390 . S
C682 H673 0.930 . S
C682 C680 1.384 . S
C682 C683 1.372 . S
C683 C682 1.372 . S
C683 C684 1.400 . S
C683 C688 1.490 . S
C684 H674 0.930 . S
C684 C683 1.400 . S
C684 C687 1.386 . S
H685 C701 0.930 . S
H686 C702 0.931 1_545 S
C687 H675 0.929 . S
C687 C681 1.390 . S
C687 C684 1.386 . S
C688 C683 1.490 . S
C688 C690 1.395 . S
C688 C691 1.403 . S
H689 C695 0.930 . S
C690 H676 0.930 . S
C690 C688 1.395 . S
C690 C693 1.403 1_545 S
C691 C688 1.403 . S
C691 C692 1.524 . S
C691 C695 1.400 . S
C692 H677 0.960 . S
C692 H678 0.960 . S
C692 H679 0.960 . S
C692 C691 1.524 . S
C693 C690 1.403 1_565 S
C693 C694 1.392 . S
C693 C697 1.495 . S
C694 C693 1.392 . S
C694 C695 1.385 1_565 S
C694 C696 1.478 . S
C695 H689 0.930 . S
C695 C691 1.400 . S
C695 C694 1.385 1_545 S
C696 C694 1.478 . S
C696 C698 1.381 . S
C696 C702 1.383 . S
C697 C693 1.495 . S
C697 H703 0.959 . S
C697 H704 0.961 . S
C697 H705 0.960 . S
C698 C696 1.381 . S
C698 C699 1.394 . S
C698 H706 0.930 . S
C699 C698 1.394 . S
C699 C700 1.383 . S
C699 H707 0.929 . S
C700 C699 1.383 . S
C700 C701 1.377 . S
C701 H685 0.930 . S
C701 C700 1.377 . S
C701 C702 1.379 . S
C702 H686 0.931 1_565 S
C702 C696 1.383 . S
C702 C701 1.379 . S
H703 C697 0.959 . S
H704 C697 0.961 . S
H705 C697 0.960 . S
H706 C698 0.930 . S
H707 C699 0.929 . S
H708 C716 0.929 . S
H709 C718 0.899 1_565 S
H710 C720 0.930 . S
H711 C723 0.929 . S
H712 C726 0.930 . S
H713 C728 0.960 . S
H714 C728 0.960 . S
H715 C728 0.960 . S
C716 H708 0.929 . S
C716 C717 1.377 . S
C716 C718 1.384 . S
C717 C716 1.377 . S
C717 C723 1.390 . S
C718 H709 0.899 1_545 S
C718 C716 1.384 . S
C718 C719 1.372 . S
C719 C718 1.372 . S
C719 C720 1.400 . S
C719 C724 1.494 . S
C720 H710 0.930 . S
C720 C719 1.400 . S
C720 C723 1.386 . S
H721 C737 0.930 . S
H722 C738 0.931 . S
C723 H711 0.929 . S
C723 C717 1.390 . S
C723 C720 1.386 . S
C724 C719 1.494 . S
C724 C726 1.389 1_545 S
C724 C727 1.404 . S
H725 C731 0.930 . S
C726 H712 0.930 . S
C726 C724 1.389 1_565 S
C726 C729 1.403 . S
C727 C724 1.404 . S
C727 C728 1.524 . S
C727 C731 1.400 1_545 S
C728 H713 0.960 . S
C728 H714 0.960 . S
C728 H715 0.960 . S
C728 C727 1.524 . S
C729 C726 1.403 . S
C729 C730 1.392 . S
C729 C733 1.495 . S
C730 C729 1.392 . S
C730 C731 1.385 . S
C730 C732 1.478 . S
C731 H725 0.930 . S
C731 C727 1.400 1_565 S
C731 C730 1.385 . S
C732 C730 1.478 . S
C732 C734 1.381 . S
C732 C738 1.383 . S
C733 C729 1.495 . S
C733 H739 0.959 . S
C733 H740 0.961 . S
C733 H741 0.960 . S
C734 C732 1.381 . S
C734 C735 1.394 . S
C734 H742 0.930 . S
C735 C734 1.394 . S
C735 C736 1.383 . S
C735 H743 0.929 . S
C736 C735 1.383 . S
C736 C737 1.377 . S
C737 H721 0.930 . S
C737 C736 1.377 . S
C737 C738 1.379 . S
C738 H722 0.931 . S
C738 C732 1.383 . S
C738 C737 1.379 . S
H739 C733 0.959 . S
H740 C733 0.961 . S
H741 C733 0.960 . S
H742 C734 0.930 . S
H743 C735 0.929 . S
H744 C752 0.929 . S
H745 C754 0.930 . S
H746 C756 0.930 . S
H747 C759 0.929 . S
H748 C762 0.930 . S
H749 C764 0.960 . S
H750 C764 0.960 . S
H751 C764 0.960 . S
C752 H744 0.929 . S
C752 C753 1.377 . S
C752 C754 1.384 . S
C753 C752 1.377 . S
C753 C759 1.390 . S
C754 H745 0.930 . S
C754 C752 1.384 . S
C754 C755 1.372 . S
C755 C754 1.372 . S
C755 C756 1.400 . S
C755 C760 1.490 . S
C756 H746 0.930 . S
C756 C755 1.400 . S
C756 C759 1.386 . S
H757 C773 0.930 . S
H758 C774 0.931 . S
C759 H747 0.929 . S
C759 C753 1.390 . S
C759 C756 1.386 . S
C760 C755 1.490 . S
C760 C762 1.395 . S
C760 C763 1.403 . S
H761 C767 0.930 . S
C762 H748 0.930 . S
C762 C760 1.395 . S
C762 C765 1.403 . S
C763 C760 1.403 . S
C763 C764 1.524 . S
C763 C767 1.400 . S
C764 H749 0.960 . S
C764 H750 0.960 . S
C764 H751 0.960 . S
C764 C763 1.524 . S
C765 C762 1.403 . S
C765 C766 1.392 . S
C765 C769 1.495 . S
C766 C765 1.392 . S
C766 C767 1.385 . S
C766 C768 1.478 . S
C767 H761 0.930 . S
C767 C763 1.400 . S
C767 C766 1.385 . S
C768 C766 1.478 . S
C768 C770 1.381 . S
C768 C774 1.383 . S
C769 C765 1.495 . S
C769 H775 0.959 . S
C769 H776 0.961 . S
C769 H777 0.960 . S
C770 C768 1.381 . S
C770 C771 1.394 . S
C770 H778 0.930 . S
C771 C770 1.394 . S
C771 C772 1.383 . S
C771 H779 0.929 . S
C772 C771 1.383 . S
C772 C773 1.377 . S
C773 H757 0.930 . S
C773 C772 1.377 . S
C773 C774 1.379 . S
C774 H758 0.931 . S
C774 C768 1.383 . S
C774 C773 1.379 . S
H775 C769 0.959 . S
H776 C769 0.961 . S
H777 C769 0.960 . S
H778 C770 0.930 . S
H779 C771 0.929 . S
H780 C788 0.929 . S
H781 C790 0.930 . S
H782 C792 0.930 . S
H783 C795 0.929 . S
H784 C798 0.930 . S
H785 C800 0.960 . S
H786 C800 0.960 . S
H787 C800 0.960 . S
C788 H780 0.929 . S
C788 C789 1.377 . S
C788 C790 1.384 . S
C789 C788 1.377 . S
C789 C795 1.390 . S
C790 H781 0.930 . S
C790 C788 1.384 . S
C790 C791 1.372 . S
C791 C790 1.372 . S
C791 C792 1.400 . S
C791 C796 1.490 . S
C792 H782 0.930 . S
C792 C791 1.400 . S
C792 C795 1.386 . S
H793 C809 0.930 . S
H794 C810 0.931 . S
C795 H783 0.929 . S
C795 C789 1.390 . S
C795 C792 1.386 . S
C796 C791 1.490 . S
C796 C798 1.395 . S
C796 C799 1.403 . S
H797 C803 0.930 . S
C798 H784 0.930 . S
C798 C796 1.395 . S
C798 C801 1.403 . S
C799 C796 1.403 . S
C799 C800 1.524 . S
C799 C803 1.400 . S
C800 H785 0.960 . S
C800 H786 0.960 . S
C800 H787 0.960 . S
C800 C799 1.524 . S
C801 C798 1.403 . S
C801 C802 1.392 . S
C801 C805 1.495 . S
C802 C801 1.392 . S
C802 C803 1.385 . S
C802 C804 1.478 . S
C803 H797 0.930 . S
C803 C799 1.400 . S
C803 C802 1.385 . S
C804 C802 1.478 . S
C804 C806 1.381 . S
C804 C810 1.383 . S
C805 C801 1.495 . S
C805 H811 0.959 . S
C805 H812 0.961 . S
C805 H813 0.960 . S
C806 C804 1.381 . S
C806 C807 1.394 . S
C806 H814 0.930 . S
C807 C806 1.394 . S
C807 C808 1.383 . S
C807 H815 0.929 . S
C808 C807 1.383 . S
C808 C809 1.377 . S
C809 H793 0.930 . S
C809 C808 1.377 . S
C809 C810 1.379 . S
C810 H794 0.931 . S
C810 C804 1.383 . S
C810 C809 1.379 . S
H811 C805 0.959 . S
H812 C805 0.961 . S
H813 C805 0.960 . S
H814 C806 0.930 . S
H815 C807 0.929 . S
H816 C824 0.929 . S
H817 C826 0.930 . S
H818 C828 0.930 . S
H819 C831 0.929 . S
H820 C834 0.930 . S
H821 C836 0.960 . S
H822 C836 0.960 . S
H823 C836 0.960 . S
C824 H816 0.929 . S
C824 C825 1.377 . S
C824 C826 1.384 . S
C825 C824 1.377 . S
C825 C831 1.390 . S
C826 H817 0.930 . S
C826 C824 1.384 . S
C826 C827 1.372 . S
C827 C826 1.372 . S
C827 C828 1.400 . S
C827 C832 1.490 . S
C828 H818 0.930 . S
C828 C827 1.400 . S
C828 C831 1.386 . S
H829 C845 0.930 . S
H830 C846 0.931 . S
C831 H819 0.929 . S
C831 C825 1.390 . S
C831 C828 1.386 . S
C832 C827 1.490 . S
C832 C834 1.395 . S
C832 C835 1.403 . S
H833 C839 0.930 . S
C834 H820 0.930 . S
C834 C832 1.395 . S
C834 C837 1.403 . S
C835 C832 1.403 . S
C835 C836 1.524 . S
C835 C839 1.400 . S
C836 H821 0.960 . S
C836 H822 0.960 . S
C836 H823 0.960 . S
C836 C835 1.524 . S
C837 C834 1.403 . S
C837 C838 1.392 . S
C837 C841 1.495 . S
C838 C837 1.392 . S
C838 C839 1.385 . S
C838 C840 1.478 . S
C839 H833 0.930 . S
C839 C835 1.400 . S
C839 C838 1.385 . S
C840 C838 1.478 . S
C840 C842 1.381 . S
C840 C846 1.383 . S
C841 C837 1.495 . S
C841 H847 0.959 . S
C841 H848 0.961 . S
C841 H849 0.960 . S
C842 C840 1.381 . S
C842 C843 1.394 . S
C842 H850 0.930 . S
C843 C842 1.394 . S
C843 C844 1.383 . S
C843 H851 0.929 . S
C844 C843 1.383 . S
C844 C845 1.377 . S
C845 H829 0.930 . S
C845 C844 1.377 . S
C845 C846 1.379 . S
C846 H830 0.931 . S
C846 C840 1.383 . S
C846 C845 1.379 . S
H847 C841 0.959 . S
H848 C841 0.961 . S
H849 C841 0.960 . S
H850 C842 0.930 . S
H851 C843 0.929 . S
H852 C860 0.929 . S
H853 C862 0.930 . S
H854 C864 0.930 . S
H855 C867 0.929 . S
H856 C870 0.930 . S
H857 C872 0.960 . S
H858 C872 0.960 . S
H859 C872 0.960 1_556 S
C860 H852 0.929 . S
C860 C861 1.377 . S
C860 C862 1.384 1_556 S
C861 C860 1.377 . S
C861 C867 1.390 . S
C862 H853 0.930 . S
C862 C860 1.384 1_554 S
C862 C863 1.372 . S
C863 C862 1.372 . S
C863 C864 1.400 1_554 S
C863 C868 1.490 . S
C864 H854 0.930 . S
C864 C863 1.400 1_556 S
C864 C867 1.386 . S
H865 C881 0.930 . S
H866 C882 0.931 . S
C867 H855 0.929 . S
C867 C861 1.390 . S
C867 C864 1.386 . S
C868 C863 1.490 . S
C868 C870 1.395 . S
C868 C871 1.403 . S
H869 C875 0.930 . S
C870 H856 0.930 . S
C870 C868 1.395 . S
C870 C873 1.403 . S
C871 C868 1.403 . S
C871 C872 1.524 . S
C871 C875 1.400 . S
C872 H857 0.960 . S
C872 H858 0.960 . S
C872 H859 0.960 1_554 S
C872 C871 1.524 . S
C873 C870 1.403 . S
C873 C874 1.392 . S
C873 C877 1.495 . S
C874 C873 1.392 . S
C874 C875 1.385 . S
C874 C876 1.478 . S
C875 H869 0.930 . S
C875 C871 1.400 . S
C875 C874 1.385 . S
C876 C874 1.478 . S
C876 C878 1.381 . S
C876 C882 1.383 . S
C877 C873 1.495 . S
C877 H883 0.959 . S
C877 H884 0.961 . S
C877 H885 0.960 . S
C878 C876 1.381 . S
C878 C879 1.394 . S
C878 H886 0.930 . S
C879 C878 1.394 . S
C879 C880 1.383 . S
C879 H887 0.929 . S
C880 C879 1.383 . S
C880 C881 1.377 . S
C881 H865 0.930 . S
C881 C880 1.377 . S
C881 C882 1.379 . S
C882 H866 0.931 . S
C882 C876 1.383 . S
C882 C881 1.379 . S
H883 C877 0.959 . S
H884 C877 0.961 . S
H885 C877 0.960 . S
H886 C878 0.930 . S
H887 C879 0.929 . S
H888 C896 0.929 . S
H889 C898 0.930 . S
H890 C900 0.930 . S
H891 C903 0.929 . S
H892 C906 0.930 . S
H893 C908 0.960 . S
H894 C908 0.960 . S
H895 C908 0.960 . S
C896 H888 0.929 . S
C896 C897 1.377 . S
C896 C898 1.384 . S
C897 C896 1.377 . S
C897 C903 1.390 . S
C898 H889 0.930 . S
C898 C896 1.384 . S
C898 C899 1.372 . S
C899 C898 1.372 . S
C899 C900 1.400 . S
C899 C904 1.490 . S
C900 H890 0.930 . S
C900 C899 1.400 . S
C900 C903 1.386 . S
H901 C917 0.930 . S
H902 C918 0.931 . S
C903 H891 0.929 . S
C903 C897 1.390 . S
C903 C900 1.386 . S
C904 C899 1.490 . S
C904 C906 1.395 . S
C904 C907 1.403 . S
H905 C911 0.930 . S
C906 H892 0.930 . S
C906 C904 1.395 . S
C906 C909 1.403 . S
C907 C904 1.403 . S
C907 C908 1.524 . S
C907 C911 1.400 . S
C908 H893 0.960 . S
C908 H894 0.960 . S
C908 H895 0.960 . S
C908 C907 1.524 . S
C909 C906 1.403 . S
C909 C910 1.392 . S
C909 C913 1.495 . S
C910 C909 1.392 . S
C910 C911 1.385 . S
C910 C912 1.478 . S
C911 H905 0.930 . S
C911 C907 1.400 . S
C911 C910 1.385 . S
C912 C910 1.478 . S
C912 C914 1.381 . S
C912 C918 1.383 . S
C913 C909 1.495 . S
C913 H919 0.959 . S
C913 H920 0.961 . S
C913 H921 0.960 . S
C914 C912 1.381 . S
C914 C915 1.394 . S
C914 H922 0.930 . S
C915 C914 1.394 . S
C915 C916 1.383 . S
C915 H923 0.929 . S
C916 C915 1.383 . S
C916 C917 1.377 . S
C917 H901 0.930 . S
C917 C916 1.377 . S
C917 C918 1.379 . S
C918 H902 0.931 . S
C918 C912 1.383 . S
C918 C917 1.379 . S
H919 C913 0.959 . S
H920 C913 0.961 . S
H921 C913 0.960 . S
H922 C914 0.930 . S
H923 C915 0.929 . S
H924 C932 0.929 . S
H925 C934 0.930 . S
H926 C936 0.930 . S
H927 C939 0.929 . S
H928 C942 0.930 . S
H929 C944 0.960 . S
H930 C944 0.960 . S
H931 C944 0.960 . S
C932 H924 0.929 . S
C932 C933 1.377 . S
C932 C934 1.384 . S
C933 C932 1.377 . S
C933 C939 1.390 . S
C934 H925 0.930 . S
C934 C932 1.384 . S
C934 C935 1.372 . S
C935 C934 1.372 . S
C935 C936 1.400 . S
C935 C940 1.490 . S
C936 H926 0.930 . S
C936 C935 1.400 . S
C936 C939 1.386 . S
H937 C953 0.930 . S
H938 C954 0.931 . S
C939 H927 0.929 . S
C939 C933 1.390 . S
C939 C936 1.386 . S
C940 C935 1.490 . S
C940 C942 1.395 . S
C940 C943 1.403 . S
H941 C947 0.930 . S
C942 H928 0.930 . S
C942 C940 1.395 . S
C942 C945 1.403 . S
C943 C940 1.403 . S
C943 C944 1.524 . S
C943 C947 1.400 . S
C944 H929 0.960 . S
C944 H930 0.960 . S
C944 H931 0.960 . S
C944 C943 1.524 . S
C945 C942 1.403 . S
C945 C946 1.392 . S
C945 C949 1.495 . S
C946 C945 1.392 . S
C946 C947 1.385 . S
C946 C948 1.478 . S
C947 H941 0.930 . S
C947 C943 1.400 . S
C947 C946 1.385 . S
C948 C946 1.478 . S
C948 C950 1.381 . S
C948 C954 1.383 . S
C949 C945 1.495 . S
C949 H955 0.959 . S
C949 H956 0.961 . S
C949 H957 0.960 . S
C950 C948 1.381 . S
C950 C951 1.394 . S
C950 H958 0.930 . S
C951 C950 1.394 . S
C951 C952 1.383 . S
C951 H959 0.929 . S
C952 C951 1.383 . S
C952 C953 1.377 . S
C953 H937 0.930 . S
C953 C952 1.377 . S
C953 C954 1.379 . S
C954 H938 0.931 . S
C954 C948 1.383 . S
C954 C953 1.379 . S
H955 C949 0.959 . S
H956 C949 0.961 . S
H957 C949 0.960 . S
H958 C950 0.930 . S
H959 C951 0.929 . S
H960 C968 0.929 . S
H961 C970 0.930 . S
H962 C972 0.930 . S
H963 C975 0.929 . S
H964 C978 0.930 . S
H965 C980 0.960 . S
H966 C980 0.960 . S
H967 C980 0.960 . S
C968 H960 0.929 . S
C968 C969 1.377 . S
C968 C970 1.384 . S
C969 C968 1.377 . S
C969 C975 1.390 . S
C970 H961 0.930 . S
C970 C968 1.384 . S
C970 C971 1.372 . S
C971 C970 1.372 . S
C971 C972 1.400 . S
C971 C976 1.490 . S
C972 H962 0.930 . S
C972 C971 1.400 . S
C972 C975 1.386 . S
H973 C989 0.930 1_455 S
H974 C990 0.931 . S
C975 H963 0.929 . S
C975 C969 1.390 . S
C975 C972 1.386 . S
C976 C971 1.490 . S
C976 C978 1.395 . S
C976 C979 1.403 . S
H977 C983 0.930 . S
C978 H964 0.930 . S
C978 C976 1.395 . S
C978 C981 1.403 . S
C979 C976 1.403 . S
C979 C980 1.524 . S
C979 C983 1.400 . S
C980 H965 0.960 . S
C980 H966 0.960 . S
C980 H967 0.960 . S
C980 C979 1.524 . S
C981 C978 1.403 . S
C981 C982 1.392 . S
C981 C985 1.495 . S
C982 C981 1.392 . S
C982 C983 1.385 . S
C982 C984 1.478 . S
C983 H977 0.930 . S
C983 C979 1.400 . S
C983 C982 1.385 . S
C984 C982 1.478 . S
C984 C986 1.381 . S
C984 C990 1.383 . S
C985 C981 1.495 . S
C985 H991 0.959 . S
C985 H992 0.961 . S
C985 H993 0.960 . S
C986 C984 1.381 . S
C986 C987 1.394 . S
C986 H994 0.930 . S
C987 C986 1.394 . S
C987 C988 1.383 . S
C987 H995 0.929 . S
C988 C987 1.383 . S
C988 C989 1.377 . S
C989 H973 0.930 1_655 S
C989 C988 1.377 . S
C989 C990 1.379 . S
C990 H974 0.931 . S
C990 C984 1.383 . S
C990 C989 1.379 . S
H991 C985 0.959 . S
H992 C985 0.961 . S
H993 C985 0.960 . S
H994 C986 0.930 . S
H995 C987 0.929 . S
H996 C1004 0.929 . S
H997 C1006 0.930 . S
H998 C1008 0.930 . S
H999 C1011 0.929 . S
H1000 C1014 0.930 . S
H1001 C1016 0.960 . S
H1002 C1016 0.960 . S
H1003 C1016 0.960 . S
C1004 H996 0.929 . S
C1004 C1005 1.377 . S
C1004 C1006 1.384 . S
C1005 C1004 1.377 . S
C1005 C1011 1.390 . S
C1006 H997 0.930 . S
C1006 C1004 1.384 . S
C1006 C1007 1.372 . S
C1007 C1006 1.372 . S
C1007 C1008 1.400 . S
C1007 C1012 1.490 . S
C1008 H998 0.930 . S
C1008 C1007 1.400 . S
C1008 C1011 1.386 . S
H1009 C1025 0.930 . S
H1010 C1026 0.931 . S
C1011 H999 0.929 . S
C1011 C1005 1.390 . S
C1011 C1008 1.386 . S
C1012 C1007 1.490 . S
C1012 C1014 1.395 . S
C1012 C1015 1.403 . S
H1013 C1019 0.930 . S
C1014 H1000 0.930 . S
C1014 C1012 1.395 . S
C1014 C1017 1.403 . S
C1015 C1012 1.403 . S
C1015 C1016 1.524 . S
C1015 C1019 1.400 . S
C1016 H1001 0.960 . S
C1016 H1002 0.960 . S
C1016 H1003 0.960 . S
C1016 C1015 1.524 . S
C1017 C1014 1.403 . S
C1017 C1018 1.392 . S
C1017 C1021 1.495 . S
C1018 C1017 1.392 . S
C1018 C1019 1.385 . S
C1018 C1020 1.478 . S
C1019 H1013 0.930 . S
C1019 C1015 1.400 . S
C1019 C1018 1.385 . S
C1020 C1018 1.478 . S
C1020 C1022 1.381 . S
C1020 C1026 1.383 . S
C1021 C1017 1.495 . S
C1021 H1027 0.959 . S
C1021 H1028 0.961 . S
C1021 H1029 0.960 . S
C1022 C1020 1.381 . S
C1022 C1023 1.394 . S
C1022 H1030 0.930 . S
C1023 C1022 1.394 . S
C1023 C1024 1.383 . S
C1023 H1031 0.929 . S
C1024 C1023 1.383 . S
C1024 C1025 1.377 . S
C1025 H1009 0.930 . S
C1025 C1024 1.377 . S
C1025 C1026 1.379 . S
C1026 H1010 0.931 . S
C1026 C1020 1.383 . S
C1026 C1025 1.379 . S
H1027 C1021 0.959 . S
H1028 C1021 0.961 . S
H1029 C1021 0.960 . S
H1030 C1022 0.930 . S
H1031 C1023 0.929 . S
H1032 C1040 0.929 . S
H1033 C1042 0.930 . S
H1034 C1044 0.930 . S
H1035 C1047 0.929 1_455 S
H1036 C1050 0.930 . S
H1037 C1052 0.960 . S
H1038 C1052 0.960 . S
H1039 C1052 0.960 . S
C1040 H1032 0.929 . S
C1040 C1041 1.377 . S
C1040 C1042 1.384 . S
C1041 C1040 1.377 . S
C1041 C1047 1.390 . S
C1042 H1033 0.930 . S
C1042 C1040 1.384 . S
C1042 C1043 1.372 . S
C1043 C1042 1.372 . S
C1043 C1044 1.400 . S
C1043 C1048 1.490 . S
C1044 H1034 0.930 . S
C1044 C1043 1.400 . S
C1044 C1047 1.386 . S
H1045 C1061 0.930 . S
H1046 C1062 0.931 . S
C1047 H1035 0.929 1_655 S
C1047 C1041 1.390 . S
C1047 C1044 1.386 . S
C1048 C1043 1.490 . S
C1048 C1050 1.395 . S
C1048 C1051 1.403 . S
H1049 C1055 0.930 . S
C1050 H1036 0.930 . S
C1050 C1048 1.395 . S
C1050 C1053 1.403 . S
C1051 C1048 1.403 . S
C1051 C1052 1.524 . S
C1051 C1055 1.400 . S
C1052 H1037 0.960 . S
C1052 H1038 0.960 . S
C1052 H1039 0.960 . S
C1052 C1051 1.524 . S
C1053 C1050 1.403 . S
C1053 C1054 1.392 . S
C1053 C1057 1.495 . S
C1054 C1053 1.392 . S
C1054 C1055 1.385 . S
C1054 C1056 1.478 . S
C1055 H1049 0.930 . S
C1055 C1051 1.400 . S
C1055 C1054 1.385 . S
C1056 C1054 1.478 . S
C1056 C1058 1.381 . S
C1056 C1062 1.383 . S
C1057 C1053 1.495 . S
C1057 H1063 0.959 . S
C1057 H1064 0.961 . S
C1057 H1065 0.960 . S
C1058 C1056 1.381 . S
C1058 C1059 1.394 . S
C1058 H1066 0.930 . S
C1059 C1058 1.394 . S
C1059 C1060 1.383 . S
C1059 H1067 0.929 . S
C1060 C1059 1.383 . S
C1060 C1061 1.377 . S
C1061 H1045 0.930 . S
C1061 C1060 1.377 . S
C1061 C1062 1.379 . S
C1062 H1046 0.931 . S
C1062 C1056 1.383 . S
C1062 C1061 1.379 . S
H1063 C1057 0.959 . S
H1064 C1057 0.961 . S
H1065 C1057 0.960 . S
H1066 C1058 0.930 . S
H1067 C1059 0.929 . S
H1068 C1076 0.929 . S
H1069 C1078 0.930 . S
H1070 C1080 0.930 . S
H1071 C1083 0.929 . S
H1072 C1086 0.930 . S
H1073 C1088 0.960 . S
H1074 C1088 0.960 . S
H1075 C1088 0.960 . S
C1076 H1068 0.929 . S
C1076 C1077 1.377 . S
C1076 C1078 1.384 . S
C1077 C1076 1.377 . S
C1077 C1083 1.390 . S
C1078 H1069 0.930 . S
C1078 C1076 1.384 . S
C1078 C1079 1.372 . S
C1079 C1078 1.372 . S
C1079 C1080 1.400 . S
C1079 C1084 1.490 . S
C1080 H1070 0.930 . S
C1080 C1079 1.400 . S
C1080 C1083 1.386 . S
H1081 C1097 0.930 . S
H1082 C1098 0.931 . S
C1083 H1071 0.929 . S
C1083 C1077 1.390 . S
C1083 C1080 1.386 . S
C1084 C1079 1.490 . S
C1084 C1086 1.395 . S
C1084 C1087 1.403 . S
H1085 C1091 0.930 . S
C1086 H1072 0.930 . S
C1086 C1084 1.395 . S
C1086 C1089 1.403 . S
C1087 C1084 1.403 . S
C1087 C1088 1.524 . S
C1087 C1091 1.400 . S
C1088 H1073 0.960 . S
C1088 H1074 0.960 . S
C1088 H1075 0.960 . S
C1088 C1087 1.524 . S
C1089 C1086 1.403 . S
C1089 C1090 1.392 . S
C1089 C1093 1.495 . S
C1090 C1089 1.392 . S
C1090 C1091 1.385 . S
C1090 C1092 1.478 . S
C1091 H1085 0.930 . S
C1091 C1087 1.400 . S
C1091 C1090 1.385 . S
C1092 C1090 1.478 . S
C1092 C1094 1.381 . S
C1092 C1098 1.383 1_556 S
C1093 C1089 1.495 . S
C1093 H1099 0.959 . S
C1093 H1100 0.961 1_556 S
C1093 H1101 0.960 . S
C1094 C1092 1.381 . S
C1094 C1095 1.394 1_556 S
C1094 H1102 0.930 . S
C1095 C1094 1.394 1_554 S
C1095 C1096 1.383 . S
C1095 H1103 0.929 . S
C1096 C1095 1.383 . S
C1096 C1097 1.377 . S
C1097 H1081 0.930 . S
C1097 C1096 1.377 . S
C1097 C1098 1.379 . S
C1098 H1082 0.931 . S
C1098 C1092 1.383 1_554 S
C1098 C1097 1.379 . S
H1099 C1093 0.959 . S
H1100 C1093 0.961 1_554 S
H1101 C1093 0.960 . S
H1102 C1094 0.930 . S
H1103 C1095 0.929 . S
H1104 C1112 0.929 . S
H1105 C1114 0.930 . S
H1106 C1116 0.930 . S
H1107 C1119 0.929 . S
H1108 C1122 0.930 . S
H1109 C1124 0.960 . S
H1110 C1124 0.960 . S
H1111 C1124 0.960 . S
C1112 H1104 0.929 . S
C1112 C1113 1.377 . S
C1112 C1114 1.384 . S
C1113 C1112 1.377 . S
C1113 C1119 1.390 . S
C1114 H1105 0.930 . S
C1114 C1112 1.384 . S
C1114 C1115 1.372 . S
C1115 C1114 1.372 . S
C1115 C1116 1.400 . S
C1115 C1120 1.490 . S
C1116 H1106 0.930 . S
C1116 C1115 1.400 . S
C1116 C1119 1.386 . S
H1117 C1133 0.930 . S
H1118 C1134 0.931 . S
C1119 H1107 0.929 . S
C1119 C1113 1.390 . S
C1119 C1116 1.386 . S
C1120 C1115 1.490 . S
C1120 C1122 1.395 . S
C1120 C1123 1.403 . S
H1121 C1127 0.930 . S
C1122 H1108 0.930 . S
C1122 C1120 1.395 . S
C1122 C1125 1.403 . S
C1123 C1120 1.403 . S
C1123 C1124 1.524 . S
C1123 C1127 1.400 . S
C1124 H1109 0.960 . S
C1124 H1110 0.960 . S
C1124 H1111 0.960 . S
C1124 C1123 1.524 . S
C1125 C1122 1.403 . S
C1125 C1126 1.392 . S
C1125 C1129 1.495 . S
C1126 C1125 1.392 . S
C1126 C1127 1.385 . S
C1126 C1128 1.478 . S
C1127 H1121 0.930 . S
C1127 C1123 1.400 . S
C1127 C1126 1.385 . S
C1128 C1126 1.478 . S
C1128 C1130 1.381 . S
C1128 C1134 1.383 . S
C1129 C1125 1.495 . S
C1129 H1135 0.959 . S
C1129 H1136 0.961 . S
C1129 H1137 0.960 . S
C1130 C1128 1.381 . S
C1130 C1131 1.394 . S
C1130 H1138 0.930 . S
C1131 C1130 1.394 . S
C1131 C1132 1.383 . S
C1131 H1139 0.929 . S
C1132 C1131 1.383 . S
C1132 C1133 1.377 . S
C1133 H1117 0.930 . S
C1133 C1132 1.377 . S
C1133 C1134 1.379 . S
C1134 H1118 0.931 . S
C1134 C1128 1.383 . S
C1134 C1133 1.379 . S
H1135 C1129 0.959 . S
H1136 C1129 0.961 . S
H1137 C1129 0.960 . S
H1138 C1130 0.930 . S
H1139 C1131 0.929 . S
H1140 C1148 0.929 . S
H1141 C1150 0.930 1_545 S
H1142 C1152 0.930 . S
H1143 C1155 0.929 . S
H1144 C1158 0.930 . S
H1145 C1160 0.960 . S
H1146 C1160 0.960 . S
H1147 C1160 0.917 1_565 S
C1148 H1140 0.929 . S
C1148 C1149 1.377 . S
C1148 C1150 1.384 . S
C1149 C1148 1.377 . S
C1149 C1155 1.390 . S
C1150 H1141 0.930 1_565 S
C1150 C1148 1.384 . S
C1150 C1151 1.372 . S
C1151 C1150 1.372 . S
C1151 C1152 1.400 . S
C1151 C1156 1.490 1_565 S
C1152 H1142 0.930 . S
C1152 C1151 1.400 . S
C1152 C1155 1.386 . S
H1153 C1169 0.930 . S
H1154 C1170 0.931 . S
C1155 H1143 0.929 . S
C1155 C1149 1.390 . S
C1155 C1152 1.386 . S
C1156 C1151 1.490 1_545 S
C1156 C1158 1.395 . S
C1156 C1159 1.403 . S
H1157 C1163 0.930 . S
C1158 H1144 0.930 . S
C1158 C1156 1.395 . S
C1158 C1161 1.403 . S
C1159 C1156 1.403 . S
C1159 C1160 1.524 . S
C1159 C1163 1.400 . S
C1160 H1145 0.960 . S
C1160 H1146 0.960 . S
C1160 H1147 0.917 1_545 S
C1160 C1159 1.524 . S
C1161 C1158 1.403 . S
C1161 C1162 1.392 . S
C1161 C1165 1.495 . S
C1162 C1161 1.392 . S
C1162 C1163 1.385 . S
C1162 C1164 1.478 . S
C1163 H1157 0.930 . S
C1163 C1159 1.400 . S
C1163 C1162 1.385 . S
C1164 C1162 1.478 . S
C1164 C1166 1.381 . S
C1164 C1170 1.383 . S
C1165 C1161 1.495 . S
C1165 H1171 0.959 . S
C1165 H1172 0.961 . S
C1165 H1173 0.960 . S
C1166 C1164 1.381 . S
C1166 C1167 1.394 . S
C1166 H1174 0.930 . S
C1167 C1166 1.394 . S
C1167 C1168 1.383 . S
C1167 H1175 0.929 . S
C1168 C1167 1.383 . S
C1168 C1169 1.377 . S
C1169 H1153 0.930 . S
C1169 C1168 1.377 . S
C1169 C1170 1.379 . S
C1170 H1154 0.931 . S
C1170 C1164 1.383 . S
C1170 C1169 1.379 . S
H1171 C1165 0.959 . S
H1172 C1165 0.961 . S
H1173 C1165 0.960 . S
H1174 C1166 0.930 . S
H1175 C1167 0.929 . S
H1176 C1184 0.929 . S
H1177 C1186 0.930 . S
H1178 C1188 0.930 . S
H1179 C1191 0.929 . S
H1180 C1194 0.930 . S
H1181 C1196 0.960 . S
H1182 C1196 0.960 . S
H1183 C1196 0.960 . S
C1184 H1176 0.929 . S
C1184 C1185 1.377 . S
C1184 C1186 1.384 . S
C1185 C1184 1.377 . S
C1185 C1191 1.390 . S
C1186 H1177 0.930 . S
C1186 C1184 1.384 . S
C1186 C1187 1.372 . S
C1187 C1186 1.372 . S
C1187 C1188 1.400 . S
C1187 C1192 1.490 . S
C1188 H1178 0.930 . S
C1188 C1187 1.400 . S
C1188 C1191 1.386 . S
H1189 C1205 0.930 . S
H1190 C1206 0.931 . S
C1191 H1179 0.929 . S
C1191 C1185 1.390 . S
C1191 C1188 1.386 . S
C1192 C1187 1.490 . S
C1192 C1194 1.395 . S
C1192 C1195 1.403 . S
H1193 C1199 0.930 . S
C1194 H1180 0.930 . S
C1194 C1192 1.395 . S
C1194 C1197 1.403 . S
C1195 C1192 1.403 . S
C1195 C1196 1.524 . S
C1195 C1199 1.400 . S
C1196 H1181 0.960 . S
C1196 H1182 0.960 . S
C1196 H1183 0.960 . S
C1196 C1195 1.524 . S
C1197 C1194 1.403 . S
C1197 C1198 1.392 . S
C1197 C1201 1.495 . S
C1198 C1197 1.392 . S
C1198 C1199 1.385 . S
C1198 C1200 1.478 . S
C1199 H1193 0.930 . S
C1199 C1195 1.400 . S
C1199 C1198 1.385 . S
C1200 C1198 1.478 . S
C1200 C1202 1.381 . S
C1200 C1206 1.383 . S
C1201 C1197 1.495 . S
C1201 H1207 0.959 . S
C1201 H1208 0.961 . S
C1201 H1209 0.960 . S
C1202 C1200 1.381 . S
C1202 C1203 1.394 . S
C1202 H1210 0.930 . S
C1203 C1202 1.394 . S
C1203 C1204 1.383 . S
C1203 H1211 0.929 . S
C1204 C1203 1.383 . S
C1204 C1205 1.377 . S
C1205 H1189 0.930 . S
C1205 C1204 1.377 . S
C1205 C1206 1.379 . S
C1206 H1190 0.931 . S
C1206 C1200 1.383 . S
C1206 C1205 1.379 . S
H1207 C1201 0.959 . S
H1208 C1201 0.961 . S
H1209 C1201 0.960 . S
H1210 C1202 0.930 . S
H1211 C1203 0.929 . S
H1212 C1220 0.929 . S
H1213 C1222 0.930 . S
H1214 C1224 0.930 . S
H1215 C1227 0.929 . S
H1216 C1230 0.930 . S
H1217 C1232 0.960 . S
H1218 C1232 0.960 . S
H1219 C1232 0.960 . S
C1220 H1212 0.929 . S
C1220 C1221 1.377 . S
C1220 C1222 1.384 . S
C1221 C1220 1.377 . S
C1221 C1227 1.390 . S
C1222 H1213 0.930 . S
C1222 C1220 1.384 . S
C1222 C1223 1.372 . S
C1223 C1222 1.372 . S
C1223 C1224 1.400 . S
C1223 C1228 1.490 . S
C1224 H1214 0.930 . S
C1224 C1223 1.400 . S
C1224 C1227 1.386 . S
H1225 C1241 0.930 . S
H1226 C1242 0.931 . S
C1227 H1215 0.929 . S
C1227 C1221 1.390 . S
C1227 C1224 1.386 . S
C1228 C1223 1.490 . S
C1228 C1230 1.395 . S
C1228 C1231 1.403 . S
H1229 C1235 0.930 . S
C1230 H1216 0.930 . S
C1230 C1228 1.395 . S
C1230 C1233 1.403 . S
C1231 C1228 1.403 . S
C1231 C1232 1.524 . S
C1231 C1235 1.400 . S
C1232 H1217 0.960 . S
C1232 H1218 0.960 . S
C1232 H1219 0.960 . S
C1232 C1231 1.524 . S
C1233 C1230 1.403 . S
C1233 C1234 1.392 . S
C1233 C1237 1.495 . S
C1234 C1233 1.392 . S
C1234 C1235 1.385 . S
C1234 C1236 1.478 . S
C1235 H1229 0.930 . S
C1235 C1231 1.400 . S
C1235 C1234 1.385 . S
C1236 C1234 1.478 . S
C1236 C1238 1.381 . S
C1236 C1242 1.383 . S
C1237 C1233 1.495 . S
C1237 H1243 0.959 . S
C1237 H1244 0.961 . S
C1237 H1245 0.960 . S
C1238 C1236 1.381 . S
C1238 C1239 1.394 . S
C1238 H1246 0.930 . S
C1239 C1238 1.394 . S
C1239 C1240 1.383 . S
C1239 H1247 0.929 . S
C1240 C1239 1.383 . S
C1240 C1241 1.377 . S
C1241 H1225 0.930 . S
C1241 C1240 1.377 . S
C1241 C1242 1.379 . S
C1242 H1226 0.931 . S
C1242 C1236 1.383 . S
C1242 C1241 1.379 . S
H1243 C1237 0.959 . S
H1244 C1237 0.961 . S
H1245 C1237 0.960 . S
H1246 C1238 0.930 . S
H1247 C1239 0.929 . S
H1248 C1256 0.929 . S
H1249 C1258 0.930 . S
H1250 C1260 0.930 . S
H1251 C1263 0.929 . S
H1252 C1266 0.930 . S
H1253 C1268 0.960 . S
H1254 C1268 0.960 . S
H1255 C1268 0.960 . S
C1256 H1248 0.929 . S
C1256 C1257 1.377 . S
C1256 C1258 1.384 . S
C1257 C1256 1.377 . S
C1257 C1263 1.390 . S
C1258 H1249 0.930 . S
C1258 C1256 1.384 . S
C1258 C1259 1.372 . S
C1259 C1258 1.372 . S
C1259 C1260 1.400 . S
C1259 C1264 1.490 . S
C1260 H1250 0.930 . S
C1260 C1259 1.400 . S
C1260 C1263 1.386 . S
H1261 C1277 0.930 . S
H1262 C1278 0.931 . S
C1263 H1251 0.929 . S
C1263 C1257 1.390 . S
C1263 C1260 1.386 . S
C1264 C1259 1.490 . S
C1264 C1266 1.395 . S
C1264 C1267 1.403 . S
H1265 C1271 0.930 . S
C1266 H1252 0.930 . S
C1266 C1264 1.395 . S
C1266 C1269 1.403 . S
C1267 C1264 1.403 . S
C1267 C1268 1.524 . S
C1267 C1271 1.400 . S
C1268 H1253 0.960 . S
C1268 H1254 0.960 . S
C1268 H1255 0.960 . S
C1268 C1267 1.524 . S
C1269 C1266 1.403 . S
C1269 C1270 1.392 . S
C1269 C1273 1.495 . S
C1270 C1269 1.392 . S
C1270 C1271 1.385 . S
C1270 C1272 1.478 . S
C1271 H1265 0.930 . S
C1271 C1267 1.400 . S
C1271 C1270 1.385 . S
C1272 C1270 1.478 . S
C1272 C1274 1.381 . S
C1272 C1278 1.383 . S
C1273 C1269 1.495 . S
C1273 H1279 0.959 . S
C1273 H1280 0.961 . S
C1273 H1281 0.960 . S
C1274 C1272 1.381 . S
C1274 C1275 1.394 . S
C1274 H1282 0.930 . S
C1275 C1274 1.394 . S
C1275 C1276 1.383 . S
C1275 H1283 0.929 . S
C1276 C1275 1.383 . S
C1276 C1277 1.377 . S
C1277 H1261 0.930 . S
C1277 C1276 1.377 . S
C1277 C1278 1.379 . S
C1278 H1262 0.931 . S
C1278 C1272 1.383 . S
C1278 C1277 1.379 . S
H1279 C1273 0.959 . S
H1280 C1273 0.961 . S
H1281 C1273 0.960 . S
H1282 C1274 0.930 . S
H1283 C1275 0.929 . S
H1284 C1292 0.929 . S
H1285 C1294 0.930 . S
H1286 C1296 0.930 . S
H1287 C1299 0.929 . S
H1288 C1302 0.930 . S
H1289 C1304 0.960 . S
H1290 C1304 0.960 . S
H1291 C1304 0.960 . S
C1292 H1284 0.929 . S
C1292 C1293 1.377 1_556 S
C1292 C1294 1.384 . S
C1293 C1292 1.377 1_554 S
C1293 C1299 1.390 . S
C1294 H1285 0.930 . S
C1294 C1292 1.384 . S
C1294 C1295 1.384 . S
C1295 C1294 1.384 . S
C1295 C1296 1.386 1_556 S
C1295 C1300 1.492 . S
C1296 H1286 0.930 . S
C1296 C1295 1.386 1_554 S
C1296 C1299 1.386 . S
H1297 C1313 0.930 . S
H1298 C1314 0.931 . S
C1299 H1287 0.929 . S
C1299 C1293 1.390 . S
C1299 C1296 1.386 . S
C1300 C1295 1.492 . S
C1300 C1302 1.395 . S
C1300 C1303 1.403 1_556 S
H1301 C1307 0.930 . S
C1302 H1288 0.930 . S
C1302 C1300 1.395 . S
C1302 C1305 1.403 . S
C1303 C1300 1.403 1_554 S
C1303 C1304 1.524 . S
C1303 C1307 1.400 . S
C1304 H1289 0.960 . S
C1304 H1290 0.960 . S
C1304 H1291 0.960 . S
C1304 C1303 1.524 . S
C1305 C1302 1.403 . S
C1305 C1306 1.392 . S
C1305 C1309 1.495 . S
C1306 C1305 1.392 . S
C1306 C1307 1.385 1_556 S
C1306 C1308 1.478 . S
C1307 H1301 0.930 . S
C1307 C1303 1.400 . S
C1307 C1306 1.385 1_554 S
C1308 C1306 1.478 . S
C1308 C1310 1.381 . S
C1308 C1314 1.383 1_556 S
C1309 C1305 1.495 . S
C1309 H1315 0.959 . S
C1309 H1316 0.961 . S
C1309 H1317 0.960 . S
C1310 C1308 1.381 . S
C1310 C1311 1.394 . S
C1310 H1318 0.930 . S
C1311 C1310 1.394 . S
C1311 C1312 1.383 . S
C1311 H1319 0.929 . S
C1312 C1311 1.383 . S
C1312 C1313 1.377 1_556 S
C1313 H1297 0.930 . S
C1313 C1312 1.377 1_554 S
C1313 C1314 1.379 . S
C1314 H1298 0.931 . S
C1314 C1308 1.383 1_554 S
C1314 C1313 1.379 . S
H1315 C1309 0.959 . S
H1316 C1309 0.961 . S
H1317 C1309 0.960 . S
H1318 C1310 0.930 . S
H1319 C1311 0.929 . S
H1320 C1328 0.929 . S
H1321 C1330 0.930 . S
H1322 C1332 0.930 . S
H1323 C1335 0.929 . S
H1324 C1338 0.930 . S
H1325 C1340 0.960 . S
H1326 C1340 0.960 . S
H1327 C1340 0.960 . S
C1328 H1320 0.929 . S
C1328 C1329 1.377 . S
C1328 C1330 1.384 . S
C1329 C1328 1.377 . S
C1329 C1335 1.390 . S
C1330 H1321 0.930 . S
C1330 C1328 1.384 . S
C1330 C1331 1.372 . S
C1331 C1330 1.372 . S
C1331 C1332 1.400 . S
C1331 C1336 1.490 . S
C1332 H1322 0.930 . S
C1332 C1331 1.400 . S
C1332 C1335 1.386 . S
H1333 C1349 0.930 . S
H1334 C1350 0.931 . S
C1335 H1323 0.929 . S
C1335 C1329 1.390 . S
C1335 C1332 1.386 . S
C1336 C1331 1.490 . S
C1336 C1338 1.395 . S
C1336 C1339 1.403 . S
H1337 C1343 0.930 . S
C1338 H1324 0.930 . S
C1338 C1336 1.395 . S
C1338 C1341 1.403 . S
C1339 C1336 1.403 . S
C1339 C1340 1.524 . S
C1339 C1343 1.400 . S
C1340 H1325 0.960 . S
C1340 H1326 0.960 . S
C1340 H1327 0.960 . S
C1340 C1339 1.524 . S
C1341 C1338 1.403 . S
C1341 C1342 1.392 . S
C1341 C1345 1.495 . S
C1342 C1341 1.392 . S
C1342 C1343 1.385 . S
C1342 C1344 1.478 . S
C1343 H1337 0.930 . S
C1343 C1339 1.400 . S
C1343 C1342 1.385 . S
C1344 C1342 1.478 . S
C1344 C1346 1.381 . S
C1344 C1350 1.383 . S
C1345 C1341 1.495 . S
C1345 H1351 0.959 . S
C1345 H1352 0.961 . S
C1345 H1353 0.960 . S
C1346 C1344 1.381 . S
C1346 C1347 1.394 . S
C1346 H1354 0.930 . S
C1347 C1346 1.394 . S
C1347 C1348 1.383 . S
C1347 H1355 0.929 . S
C1348 C1347 1.383 . S
C1348 C1349 1.377 . S
C1349 H1333 0.930 . S
C1349 C1348 1.377 . S
C1349 C1350 1.379 . S
C1350 H1334 0.931 . S
C1350 C1344 1.383 . S
C1350 C1349 1.379 . S
H1351 C1345 0.959 . S
H1352 C1345 0.961 . S
H1353 C1345 0.960 . S
H1354 C1346 0.930 . S
H1355 C1347 0.929 . S
H1356 C1364 0.929 . S
H1357 C1366 0.930 . S
H1358 C1368 0.930 . S
H1359 C1371 0.929 . S
H1360 C1374 0.930 . S
H1361 C1376 1.000 . S
H1362 C1376 0.933 1_545 S
H1363 C1376 0.946 1_545 S
C1364 H1356 0.929 . S
C1364 C1365 1.377 . S
C1364 C1366 1.384 . S
C1365 C1364 1.377 . S
C1365 C1371 1.390 . S
C1366 H1357 0.930 . S
C1366 C1364 1.384 . S
C1366 C1367 1.372 . S
C1367 C1366 1.372 . S
C1367 C1368 1.400 . S
C1367 C1372 1.490 . S
C1368 H1358 0.930 . S
C1368 C1367 1.400 . S
C1368 C1371 1.386 . S
H1369 C1385 0.930 . S
H1370 C1386 0.931 . S
C1371 H1359 0.929 . S
C1371 C1365 1.390 . S
C1371 C1368 1.386 . S
C1372 C1367 1.490 . S
C1372 C1374 1.395 . S
C1372 C1375 1.403 1_545 S
H1373 C1379 0.930 . S
C1374 H1360 0.930 . S
C1374 C1372 1.395 . S
C1374 C1377 1.403 1_545 S
C1375 C1372 1.403 1_565 S
C1375 C1376 1.528 . S
C1375 C1379 1.400 . S
C1376 H1361 1.000 . S
C1376 H1362 0.933 1_565 S
C1376 H1363 0.946 1_565 S
C1376 C1375 1.528 . S
C1377 C1374 1.403 1_565 S
C1377 C1378 1.392 . S
C1377 C1381 1.495 . S
C1378 C1377 1.392 . S
C1378 C1379 1.385 . S
C1378 C1380 1.478 . S
C1379 H1373 0.930 . S
C1379 C1375 1.400 . S
C1379 C1378 1.385 . S
C1380 C1378 1.478 . S
C1380 C1382 1.381 . S
C1380 C1386 1.383 . S
C1381 C1377 1.495 . S
C1381 H1387 0.959 1_565 S
C1381 H1388 0.961 . S
C1381 H1389 0.960 . S
C1382 C1380 1.381 . S
C1382 C1383 1.394 . S
C1382 H1390 0.930 . S
C1383 C1382 1.394 . S
C1383 C1384 1.383 . S
C1383 H1391 0.929 . S
C1384 C1383 1.383 . S
C1384 C1385 1.377 . S
C1385 H1369 0.930 . S
C1385 C1384 1.377 . S
C1385 C1386 1.379 . S
C1386 H1370 0.931 . S
C1386 C1380 1.383 . S
C1386 C1385 1.379 . S
H1387 C1381 0.959 1_545 S
H1388 C1381 0.961 . S
H1389 C1381 0.960 . S
H1390 C1382 0.930 . S
H1391 C1383 0.929 . S
H1392 C1400 0.929 . S
H1393 C1402 0.930 . S
H1394 C1404 0.930 . S
H1395 C1407 0.929 . S
H1396 C1410 0.930 . S
H1397 C1412 0.960 . S
H1398 C1412 0.960 . S
H1399 C1412 0.960 . S
C1400 H1392 0.929 . S
C1400 C1401 1.377 . S
C1400 C1402 1.384 . S
C1401 C1400 1.377 . S
C1401 C1407 1.390 . S
C1402 H1393 0.930 . S
C1402 C1400 1.384 . S
C1402 C1403 1.372 . S
C1403 C1402 1.372 . S
C1403 C1404 1.400 . S
C1403 C1408 1.490 . S
C1404 H1394 0.930 . S
C1404 C1403 1.400 . S
C1404 C1407 1.386 . S
H1405 C1421 0.930 . S
H1406 C1422 0.931 . S
C1407 H1395 0.929 . S
C1407 C1401 1.390 . S
C1407 C1404 1.386 . S
C1408 C1403 1.490 . S
C1408 C1410 1.395 . S
C1408 C1411 1.403 . S
H1409 C1415 0.930 . S
C1410 H1396 0.930 . S
C1410 C1408 1.395 . S
C1410 C1413 1.403 1_554 S
C1411 C1408 1.403 . S
C1411 C1412 1.524 . S
C1411 C1415 1.400 1_554 S
C1412 H1397 0.960 . S
C1412 H1398 0.960 . S
C1412 H1399 0.960 . S
C1412 C1411 1.524 . S
C1413 C1410 1.403 1_556 S
C1413 C1414 1.392 . S
C1413 C1417 1.495 . S
C1414 C1413 1.392 . S
C1414 C1415 1.385 . S
C1414 C1416 1.478 . S
C1415 H1409 0.930 . S
C1415 C1411 1.400 1_556 S
C1415 C1414 1.385 . S
C1416 C1414 1.478 . S
C1416 C1418 1.381 . S
C1416 C1422 1.383 . S
C1417 C1413 1.495 . S
C1417 H1423 0.959 . S
C1417 H1424 0.961 . S
C1417 H1425 0.960 . S
C1418 C1416 1.381 . S
C1418 C1419 1.394 . S
C1418 H1426 0.930 . S
C1419 C1418 1.394 . S
C1419 C1420 1.383 . S
C1419 H1427 0.929 . S
C1420 C1419 1.383 . S
C1420 C1421 1.377 . S
C1421 H1405 0.930 . S
C1421 C1420 1.377 . S
C1421 C1422 1.379 . S
C1422 H1406 0.931 . S
C1422 C1416 1.383 . S
C1422 C1421 1.379 . S
H1423 C1417 0.959 . S
H1424 C1417 0.961 . S
H1425 C1417 0.960 . S
H1426 C1418 0.930 . S
H1427 C1419 0.929 . S
H1428 C1436 0.929 . S
H1429 C1438 0.930 . S
H1430 C1440 0.930 . S
H1431 C1443 0.929 . S
H1432 C1446 0.930 . S
H1433 C1448 0.960 . S
H1434 C1448 0.960 . S
H1435 C1448 0.960 . S
C1436 H1428 0.929 . S
C1436 C1437 1.377 . S
C1436 C1438 1.384 . S
C1437 C1436 1.377 . S
C1437 C1443 1.390 . S
C1438 H1429 0.930 . S
C1438 C1436 1.384 . S
C1438 C1439 1.372 . S
C1439 C1438 1.372 . S
C1439 C1440 1.400 . S
C1439 C1444 1.490 . S
C1440 H1430 0.930 . S
C1440 C1439 1.400 . S
C1440 C1443 1.386 . S
H1441 C1457 0.930 . S
H1442 C1458 0.931 . S
C1443 H1431 0.929 . S
C1443 C1437 1.390 . S
C1443 C1440 1.386 . S
C1444 C1439 1.490 . S
C1444 C1446 1.395 . S
C1444 C1447 1.403 . S
H1445 C1451 0.930 . S
C1446 H1432 0.930 . S
C1446 C1444 1.395 . S
C1446 C1449 1.403 1_545 S
C1447 C1444 1.403 . S
C1447 C1448 1.524 . S
C1447 C1451 1.400 1_545 S
C1448 H1433 0.960 . S
C1448 H1434 0.960 . S
C1448 H1435 0.960 . S
C1448 C1447 1.524 . S
C1449 C1446 1.403 1_565 S
C1449 C1450 1.392 . S
C1449 C1453 1.495 . S
C1450 C1449 1.392 . S
C1450 C1451 1.385 . S
C1450 C1452 1.478 . S
C1451 H1445 0.930 . S
C1451 C1447 1.400 1_565 S
C1451 C1450 1.385 . S
C1452 C1450 1.478 . S
C1452 C1454 1.381 . S
C1452 C1458 1.383 . S
C1453 C1449 1.495 . S
C1453 H1459 0.959 . S
C1453 H1460 0.961 . S
C1453 H1461 0.960 . S
C1454 C1452 1.381 . S
C1454 C1455 1.394 . S
C1454 H1462 0.930 . S
C1455 C1454 1.394 . S
C1455 C1456 1.383 . S
C1455 H1463 0.929 . S
C1456 C1455 1.383 . S
C1456 C1457 1.377 . S
C1457 H1441 0.930 . S
C1457 C1456 1.377 . S
C1457 C1458 1.379 . S
C1458 H1442 0.931 . S
C1458 C1452 1.383 . S
C1458 C1457 1.379 . S
H1459 C1453 0.959 . S
H1460 C1453 0.961 . S
H1461 C1453 0.960 . S
H1462 C1454 0.930 . S
H1463 C1455 0.929 . S
H1464 C1472 0.929 . S
H1465 C1474 0.930 . S
H1466 C1476 0.930 . S
H1467 C1479 0.929 . S
H1468 C1482 0.930 . S
H1469 C1484 0.960 . S
H1470 C1484 0.960 . S
H1471 C1484 0.960 . S
C1472 H1464 0.929 . S
C1472 C1473 1.377 . S
C1472 C1474 1.384 . S
C1473 C1472 1.377 . S
C1473 C1479 1.390 . S
C1474 H1465 0.930 . S
C1474 C1472 1.384 . S
C1474 C1475 1.372 . S
C1475 C1474 1.372 . S
C1475 C1476 1.400 . S
C1475 C1480 1.490 . S
C1476 H1466 0.930 . S
C1476 C1475 1.400 . S
C1476 C1479 1.386 . S
H1477 C1493 0.930 . S
H1478 C1494 0.931 . S
C1479 H1467 0.929 . S
C1479 C1473 1.390 . S
C1479 C1476 1.386 . S
C1480 C1475 1.490 . S
C1480 C1482 1.395 . S
C1480 C1483 1.403 1_554 S
H1481 C1487 0.930 . S
C1482 H1468 0.930 . S
C1482 C1480 1.395 . S
C1482 C1485 1.403 . S
C1483 C1480 1.403 1_556 S
C1483 C1484 1.524 . S
C1483 C1487 1.400 . S
C1484 H1469 0.960 . S
C1484 H1470 0.960 . S
C1484 H1471 0.960 . S
C1484 C1483 1.524 . S
C1485 C1482 1.403 . S
C1485 C1486 1.392 . S
C1485 C1489 1.495 . S
C1486 C1485 1.392 . S
C1486 C1487 1.385 1_554 S
C1486 C1488 1.478 . S
C1487 H1481 0.930 . S
C1487 C1483 1.400 . S
C1487 C1486 1.385 1_556 S
C1488 C1486 1.478 . S
C1488 C1490 1.381 . S
C1488 C1494 1.383 . S
C1489 C1485 1.495 . S
C1489 H1495 0.959 . S
C1489 H1496 0.961 . S
C1489 H1497 0.960 . S
C1490 C1488 1.381 . S
C1490 C1491 1.394 . S
C1490 H1498 0.930 . S
C1491 C1490 1.394 . S
C1491 C1492 1.383 . S
C1491 H1499 0.929 . S
C1492 C1491 1.383 . S
C1492 C1493 1.377 . S
C1493 H1477 0.930 . S
C1493 C1492 1.377 . S
C1493 C1494 1.379 . S
C1494 H1478 0.931 . S
C1494 C1488 1.383 . S
C1494 C1493 1.379 . S
H1495 C1489 0.959 . S
H1496 C1489 0.961 . S
H1497 C1489 0.960 . S
H1498 C1490 0.930 . S
H1499 C1491 0.929 . S
H1500 C1508 0.929 . S
H1501 C1510 0.930 . S
H1502 C1512 0.945 1_455 S
H1503 C1515 0.914 1_554 S
H1504 C1518 0.930 1_554 S
H1505 C1520 0.960 . S
H1506 C1520 0.960 . S
H1507 C1520 0.960 . S
C1508 H1500 0.929 . S
C1508 C1509 1.377 . S
C1508 C1510 1.384 . S
C1509 C1508 1.377 . S
C1509 C1515 1.390 . S
C1510 H1501 0.930 . S
C1510 C1508 1.384 . S
C1510 C1511 1.372 . S
C1511 C1510 1.372 . S
C1511 C1512 1.400 . S
C1511 C1516 1.490 . S
C1512 H1502 0.945 1_655 S
C1512 C1511 1.400 . S
C1512 C1515 1.386 . S
H1513 C1529 0.930 1_554 S
H1514 C1530 0.931 1_554 S
C1515 H1503 0.914 1_556 S
C1515 C1509 1.390 . S
C1515 C1512 1.386 . S
C1516 C1511 1.490 . S
C1516 C1518 1.395 . S
C1516 C1519 1.403 1_655 S
H1517 C1523 0.930 . S
C1518 H1504 0.930 1_556 S
C1518 C1516 1.395 . S
C1518 C1521 1.403 . S
C1519 C1516 1.403 1_455 S
C1519 C1520 1.524 . S
C1519 C1523 1.400 . S
C1520 H1505 0.960 . S
C1520 H1506 0.960 . S
C1520 H1507 0.960 . S
C1520 C1519 1.524 . S
C1521 C1518 1.403 . S
C1521 C1522 1.392 1_655 S
C1521 C1525 1.495 1_556 S
C1522 C1521 1.392 1_455 S
C1522 C1523 1.385 . S
C1522 C1524 1.478 . S
C1523 H1517 0.930 . S
C1523 C1519 1.400 . S
C1523 C1522 1.385 . S
C1524 C1522 1.478 . S
C1524 C1526 1.381 . S
C1524 C1530 1.383 . S
C1525 C1521 1.495 1_554 S
C1525 H1531 0.959 . S
C1525 H1532 0.961 . S
C1525 H1533 0.960 . S
C1526 C1524 1.381 . S
C1526 C1527 1.394 . S
C1526 H1534 0.930 1_455 S
C1527 C1526 1.394 . S
C1527 C1528 1.383 . S
C1527 H1535 0.929 . S
C1528 C1527 1.383 . S
C1528 C1529 1.377 . S
C1529 H1513 0.930 1_556 S
C1529 C1528 1.377 . S
C1529 C1530 1.379 . S
C1530 H1514 0.931 1_556 S
C1530 C1524 1.383 . S
C1530 C1529 1.379 . S
H1531 C1525 0.959 . S
H1532 C1525 0.961 . S
H1533 C1525 0.960 . S
H1534 C1526 0.930 1_655 S
H1535 C1527 0.929 . S
H1536 C1544 0.929 . S
H1537 C1546 0.930 . S
H1538 C1548 0.930 . S
H1539 C1551 0.929 . S
H1540 C1554 0.930 . S
H1541 C1556 0.960 . S
H1542 C1556 0.960 . S
H1543 C1556 0.960 . S
C1544 H1536 0.929 . S
C1544 C1545 1.377 . S
C1544 C1546 1.384 . S
C1545 C1544 1.377 . S
C1545 C1551 1.390 . S
C1546 H1537 0.930 . S
C1546 C1544 1.384 . S
C1546 C1547 1.372 . S
C1547 C1546 1.372 . S
C1547 C1548 1.400 . S
C1547 C1552 1.490 . S
C1548 H1538 0.930 . S
C1548 C1547 1.400 . S
C1548 C1551 1.386 . S
H1549 C1565 0.930 . S
H1550 C1566 0.931 . S
C1551 H1539 0.929 . S
C1551 C1545 1.390 . S
C1551 C1548 1.386 . S
C1552 C1547 1.490 . S
C1552 C1554 1.395 . S
C1552 C1555 1.403 1_455 S
H1553 C1559 0.930 . S
C1554 H1540 0.930 . S
C1554 C1552 1.395 . S
C1554 C1557 1.403 . S
C1555 C1552 1.403 1_655 S
C1555 C1556 1.524 . S
C1555 C1559 1.400 . S
C1556 H1541 0.960 . S
C1556 H1542 0.960 . S
C1556 H1543 0.960 . S
C1556 C1555 1.524 . S
C1557 C1554 1.403 . S
C1557 C1558 1.392 1_455 S
C1557 C1561 1.495 . S
C1558 C1557 1.392 1_655 S
C1558 C1559 1.385 . S
C1558 C1560 1.478 . S
C1559 H1553 0.930 . S
C1559 C1555 1.400 . S
C1559 C1558 1.385 . S
C1560 C1558 1.478 . S
C1560 C1562 1.381 . S
C1560 C1566 1.383 . S
C1561 C1557 1.495 . S
C1561 H1567 0.959 . S
C1561 H1568 0.961 . S
C1561 H1569 0.960 . S
C1562 C1560 1.381 . S
C1562 C1563 1.394 . S
C1562 H1570 0.930 . S
C1563 C1562 1.394 . S
C1563 C1564 1.383 . S
C1563 H1571 0.929 . S
C1564 C1563 1.383 . S
C1564 C1565 1.377 . S
C1565 H1549 0.930 . S
C1565 C1564 1.377 . S
C1565 C1566 1.379 . S
C1566 H1550 0.931 . S
C1566 C1560 1.383 . S
C1566 C1565 1.379 . S
H1567 C1561 0.959 . S
H1568 C1561 0.961 . S
H1569 C1561 0.960 . S
H1570 C1562 0.930 . S
H1571 C1563 0.929 . S
H1572 C1580 0.929 . S
H1573 C1582 0.930 . S
H1574 C1584 0.930 . S
H1575 C1587 0.929 . S
H1576 C1590 0.930 . S
H1577 C1592 0.960 . S
H1578 C1592 0.960 . S
H1579 C1592 0.960 . S
C1580 H1572 0.929 . S
C1580 C1581 1.377 . S
C1580 C1582 1.384 . S
C1581 C1580 1.377 . S
C1581 C1587 1.390 . S
C1582 H1573 0.930 . S
C1582 C1580 1.384 . S
C1582 C1583 1.372 . S
C1583 C1582 1.372 . S
C1583 C1584 1.400 . S
C1583 C1588 1.490 . S
C1584 H1574 0.930 . S
C1584 C1583 1.400 . S
C1584 C1587 1.386 . S
H1585 C1601 0.930 . S
H1586 C1602 0.931 . S
C1587 H1575 0.929 . S
C1587 C1581 1.390 . S
C1587 C1584 1.386 . S
C1588 C1583 1.490 . S
C1588 C1590 1.395 . S
C1588 C1591 1.403 . S
H1589 C1595 0.930 . S
C1590 H1576 0.930 . S
C1590 C1588 1.395 . S
C1590 C1593 1.403 . S
C1591 C1588 1.403 . S
C1591 C1592 1.524 . S
C1591 C1595 1.400 . S
C1592 H1577 0.960 . S
C1592 H1578 0.960 . S
C1592 H1579 0.960 . S
C1592 C1591 1.524 . S
C1593 C1590 1.403 . S
C1593 C1594 1.392 . S
C1593 C1597 1.495 . S
C1594 C1593 1.392 . S
C1594 C1595 1.385 . S
C1594 C1596 1.478 . S
C1595 H1589 0.930 . S
C1595 C1591 1.400 . S
C1595 C1594 1.385 . S
C1596 C1594 1.478 . S
C1596 C1598 1.381 . S
C1596 C1602 1.383 . S
C1597 C1593 1.495 . S
C1597 H1603 0.959 . S
C1597 H1604 0.961 . S
C1597 H1605 0.960 . S
C1598 C1596 1.381 . S
C1598 C1599 1.394 . S
C1598 H1606 0.930 . S
C1599 C1598 1.394 . S
C1599 C1600 1.383 . S
C1599 H1607 0.929 . S
C1600 C1599 1.383 . S
C1600 C1601 1.377 . S
C1601 H1585 0.930 . S
C1601 C1600 1.377 . S
C1601 C1602 1.379 . S
C1602 H1586 0.931 . S
C1602 C1596 1.383 . S
C1602 C1601 1.379 . S
H1603 C1597 0.959 . S
H1604 C1597 0.961 . S
H1605 C1597 0.960 . S
H1606 C1598 0.930 . S
H1607 C1599 0.929 . S
H1608 C1616 0.929 . S
H1609 C1618 0.930 . S
H1610 C1620 0.930 1_655 S
H1611 C1623 0.929 . S
H1612 C1626 0.930 . S
H1613 C1628 0.960 . S
H1614 C1628 0.960 . S
H1615 C1628 0.960 . S
C1616 H1608 0.929 . S
C1616 C1617 1.377 . S
C1616 C1618 1.384 . S
C1617 C1616 1.377 . S
C1617 C1623 1.390 . S
C1618 H1609 0.930 . S
C1618 C1616 1.384 . S
C1618 C1619 1.372 . S
C1619 C1618 1.372 . S
C1619 C1620 1.400 . S
C1619 C1624 1.490 . S
C1620 H1610 0.930 1_455 S
C1620 C1619 1.400 . S
C1620 C1623 1.386 . S
H1621 C1637 0.930 . S
H1622 C1638 0.931 . S
C1623 H1611 0.929 . S
C1623 C1617 1.390 . S
C1623 C1620 1.386 . S
C1624 C1619 1.490 . S
C1624 C1626 1.395 . S
C1624 C1627 1.403 1_455 S
H1625 C1631 0.930 . S
C1626 H1612 0.930 . S
C1626 C1624 1.395 . S
C1626 C1629 1.403 . S
C1627 C1624 1.403 1_655 S
C1627 C1628 1.524 . S
C1627 C1631 1.400 . S
C1628 H1613 0.960 . S
C1628 H1614 0.960 . S
C1628 H1615 0.960 . S
C1628 C1627 1.524 . S
C1629 C1626 1.403 . S
C1629 C1630 1.392 1_455 S
C1629 C1633 1.495 . S
C1630 C1629 1.392 1_655 S
C1630 C1631 1.385 . S
C1630 C1632 1.478 . S
C1631 H1625 0.930 . S
C1631 C1627 1.400 . S
C1631 C1630 1.385 . S
C1632 C1630 1.478 . S
C1632 C1634 1.381 . S
C1632 C1638 1.383 . S
C1633 C1629 1.495 . S
C1633 H1639 0.959 . S
C1633 H1640 0.961 . S
C1633 H1641 0.960 . S
C1634 C1632 1.381 . S
C1634 C1635 1.394 . S
C1634 H1642 0.930 . S
C1635 C1634 1.394 . S
C1635 C1636 1.383 . S
C1635 H1643 0.929 . S
C1636 C1635 1.383 . S
C1636 C1637 1.377 . S
C1637 H1621 0.930 . S
C1637 C1636 1.377 . S
C1637 C1638 1.379 . S
C1638 H1622 0.931 . S
C1638 C1632 1.383 . S
C1638 C1637 1.379 . S
H1639 C1633 0.959 . S
H1640 C1633 0.961 . S
H1641 C1633 0.960 . S
H1642 C1634 0.930 . S
H1643 C1635 0.929 . S
H1644 C1652 0.929 . S
H1645 C1654 0.930 . S
H1646 C1656 0.930 . S
H1647 C1659 0.929 . S
H1648 C1662 0.930 . S
H1649 C1664 0.960 . S
H1650 C1664 0.960 . S
H1651 C1664 0.960 . S
C1652 H1644 0.929 . S
C1652 C1653 1.377 . S
C1652 C1654 1.384 . S
C1653 C1652 1.377 . S
C1653 C1659 1.390 . S
C1654 H1645 0.930 . S
C1654 C1652 1.384 . S
C1654 C1655 1.372 . S
C1655 C1654 1.372 . S
C1655 C1656 1.400 . S
C1655 C1660 1.490 . S
C1656 H1646 0.930 . S
C1656 C1655 1.400 . S
C1656 C1659 1.386 . S
H1657 C1673 0.930 . S
H1658 C1674 0.931 . S
C1659 H1647 0.929 . S
C1659 C1653 1.390 . S
C1659 C1656 1.386 . S
C1660 C1655 1.490 . S
C1660 C1662 1.395 . S
C1660 C1663 1.403 1_455 S
H1661 C1667 0.930 . S
C1662 H1648 0.930 . S
C1662 C1660 1.395 . S
C1662 C1665 1.403 . S
C1663 C1660 1.403 1_655 S
C1663 C1664 1.524 . S
C1663 C1667 1.400 . S
C1664 H1649 0.960 . S
C1664 H1650 0.960 . S
C1664 H1651 0.960 . S
C1664 C1663 1.524 . S
C1665 C1662 1.403 . S
C1665 C1666 1.392 1_455 S
C1665 C1669 1.495 . S
C1666 C1665 1.392 1_655 S
C1666 C1667 1.385 . S
C1666 C1668 1.478 . S
C1667 H1661 0.930 . S
C1667 C1663 1.400 . S
C1667 C1666 1.385 . S
C1668 C1666 1.478 . S
C1668 C1670 1.381 . S
C1668 C1674 1.383 . S
C1669 C1665 1.495 . S
C1669 H1675 0.959 . S
C1669 H1676 0.961 . S
C1669 H1677 0.960 . S
C1670 C1668 1.381 . S
C1670 C1671 1.394 . S
C1670 H1678 0.930 . S
C1671 C1670 1.394 . S
C1671 C1672 1.383 . S
C1671 H1679 0.929 . S
C1672 C1671 1.383 . S
C1672 C1673 1.377 . S
C1673 H1657 0.930 . S
C1673 C1672 1.377 . S
C1673 C1674 1.379 . S
C1674 H1658 0.931 . S
C1674 C1668 1.383 . S
C1674 C1673 1.379 . S
H1675 C1669 0.959 . S
H1676 C1669 0.961 . S
H1677 C1669 0.960 . S
H1678 C1670 0.930 . S
H1679 C1671 0.929 . S
H1680 C1688 0.929 . S
H1681 C1690 0.930 . S
H1682 C1692 0.930 . S
H1683 C1695 0.929 . S
H1684 C1698 0.930 . S
H1685 C1700 0.960 . S
H1686 C1700 0.960 . S
H1687 C1700 0.960 . S
C1688 H1680 0.929 . S
C1688 C1689 1.377 . S
C1688 C1690 1.384 . S
C1689 C1688 1.377 . S
C1689 C1695 1.390 . S
C1690 H1681 0.930 . S
C1690 C1688 1.384 . S
C1690 C1691 1.372 . S
C1691 C1690 1.372 . S
C1691 C1692 1.400 . S
C1691 C1696 1.490 . S
C1692 H1682 0.930 . S
C1692 C1691 1.400 . S
C1692 C1695 1.386 . S
H1693 C1709 0.930 . S
H1694 C1710 0.931 . S
C1695 H1683 0.929 . S
C1695 C1689 1.390 . S
C1695 C1692 1.386 . S
C1696 C1691 1.490 . S
C1696 C1698 1.395 . S
C1696 C1699 1.403 . S
H1697 C1703 0.930 . S
C1698 H1684 0.930 . S
C1698 C1696 1.395 . S
C1698 C1701 1.403 . S
C1699 C1696 1.403 . S
C1699 C1700 1.524 . S
C1699 C1703 1.400 . S
C1700 H1685 0.960 . S
C1700 H1686 0.960 . S
C1700 H1687 0.960 . S
C1700 C1699 1.524 . S
C1701 C1698 1.403 . S
C1701 C1702 1.392 . S
C1701 C1705 1.495 . S
C1702 C1701 1.392 . S
C1702 C1703 1.385 . S
C1702 C1704 1.478 . S
C1703 H1697 0.930 . S
C1703 C1699 1.400 . S
C1703 C1702 1.385 . S
C1704 C1702 1.478 . S
C1704 C1706 1.381 . S
C1704 C1710 1.383 . S
C1705 C1701 1.495 . S
C1705 H1711 0.959 . S
C1705 H1712 0.961 . S
C1705 H1713 0.960 . S
C1706 C1704 1.381 . S
C1706 C1707 1.394 . S
C1706 H1714 0.930 . S
C1707 C1706 1.394 . S
C1707 C1708 1.383 . S
C1707 H1715 0.929 . S
C1708 C1707 1.383 . S
C1708 C1709 1.377 . S
C1709 H1693 0.930 . S
C1709 C1708 1.377 . S
C1709 C1710 1.379 . S
C1710 H1694 0.931 . S
C1710 C1704 1.383 . S
C1710 C1709 1.379 . S
H1711 C1705 0.959 . S
H1712 C1705 0.961 . S
H1713 C1705 0.960 . S
H1714 C1706 0.930 . S
H1715 C1707 0.929 . S
H1716 C1724 0.929 . S
H1717 C1726 0.930 . S
H1718 C1728 0.930 . S
H1719 C1731 0.929 . S
H1720 C1734 0.930 . S
H1721 C1736 0.960 . S
H1722 C1736 0.960 . S
H1723 C1736 0.960 . S
C1724 H1716 0.929 . S
C1724 C1725 1.377 . S
C1724 C1726 1.384 . S
C1725 C1724 1.377 . S
C1725 C1731 1.390 . S
C1726 H1717 0.930 . S
C1726 C1724 1.384 . S
C1726 C1727 1.372 . S
C1727 C1726 1.372 . S
C1727 C1728 1.400 . S
C1727 C1732 1.490 . S
C1728 H1718 0.930 . S
C1728 C1727 1.400 . S
C1728 C1731 1.386 . S
H1729 C1745 0.930 . S
H1730 C1746 0.931 . S
C1731 H1719 0.929 . S
C1731 C1725 1.390 . S
C1731 C1728 1.386 . S
C1732 C1727 1.490 . S
C1732 C1734 1.395 . S
C1732 C1735 1.403 . S
H1733 C1739 0.930 . S
C1734 H1720 0.930 . S
C1734 C1732 1.395 . S
C1734 C1737 1.403 1_565 S
C1735 C1732 1.403 . S
C1735 C1736 1.524 . S
C1735 C1739 1.400 1_565 S
C1736 H1721 0.960 . S
C1736 H1722 0.960 . S
C1736 H1723 0.960 . S
C1736 C1735 1.524 . S
C1737 C1734 1.403 1_545 S
C1737 C1738 1.392 . S
C1737 C1741 1.495 . S
C1738 C1737 1.392 . S
C1738 C1739 1.385 . S
C1738 C1740 1.478 . S
C1739 H1733 0.930 . S
C1739 C1735 1.400 1_545 S
C1739 C1738 1.385 . S
C1740 C1738 1.478 . S
C1740 C1742 1.381 . S
C1740 C1746 1.383 . S
C1741 C1737 1.495 . S
C1741 H1747 0.959 . S
C1741 H1748 0.961 . S
C1741 H1749 0.960 . S
C1742 C1740 1.381 . S
C1742 C1743 1.394 . S
C1742 H1750 0.930 . S
C1743 C1742 1.394 . S
C1743 C1744 1.383 . S
C1743 H1751 0.929 . S
C1744 C1743 1.383 . S
C1744 C1745 1.377 . S
C1745 H1729 0.930 . S
C1745 C1744 1.377 . S
C1745 C1746 1.379 . S
C1746 H1730 0.931 . S
C1746 C1740 1.383 . S
C1746 C1745 1.379 . S
H1747 C1741 0.959 . S
H1748 C1741 0.961 . S
H1749 C1741 0.960 . S
H1750 C1742 0.930 . S
H1751 C1743 0.929 . S
H1752 C1760 0.929 . S
H1753 C1762 0.930 . S
H1754 C1764 0.930 . S
H1755 C1767 0.929 . S
H1756 C1770 0.930 . S
H1757 C1772 0.960 . S
H1758 C1772 0.960 . S
H1759 C1772 0.960 . S
C1760 H1752 0.929 . S
C1760 C1761 1.377 1_556 S
C1760 C1762 1.384 . S
C1761 C1760 1.377 1_554 S
C1761 C1767 1.390 . S
C1762 H1753 0.930 . S
C1762 C1760 1.384 . S
C1762 C1763 1.372 . S
C1763 C1762 1.372 . S
C1763 C1764 1.400 1_556 S
C1763 C1768 1.490 . S
C1764 H1754 0.930 . S
C1764 C1763 1.400 1_554 S
C1764 C1767 1.386 . S
H1765 C1781 0.930 1_554 S
H1766 C1782 0.932 1_554 S
C1767 H1755 0.929 . S
C1767 C1761 1.390 . S
C1767 C1764 1.386 . S
C1768 C1763 1.490 . S
C1768 C1770 1.395 1_556 S
C1768 C1771 1.403 . S
H1769 C1775 0.930 . S
C1770 H1756 0.930 . S
C1770 C1768 1.395 1_554 S
C1770 C1773 1.403 . S
C1771 C1768 1.403 . S
C1771 C1772 1.524 . S
C1771 C1775 1.400 . S
C1772 H1757 0.960 . S
C1772 H1758 0.960 . S
C1772 H1759 0.960 . S
C1772 C1771 1.524 . S
C1773 C1770 1.403 . S
C1773 C1774 1.392 1_554 S
C1773 C1777 1.495 . S
C1774 C1773 1.392 1_556 S
C1774 C1775 1.385 . S
C1774 C1776 1.478 . S
C1775 H1769 0.930 . S
C1775 C1771 1.400 . S
C1775 C1774 1.385 . S
C1776 C1774 1.478 . S
C1776 C1778 1.381 . S
C1776 C1782 1.382 . S
C1777 C1773 1.495 . S
C1777 H1783 0.959 . S
C1777 H1784 0.961 . S
C1777 H1785 0.960 . S
C1778 C1776 1.381 . S
C1778 C1779 1.394 . S
C1778 H1786 0.930 . S
C1779 C1778 1.394 . S
C1779 C1780 1.383 . S
C1779 H1787 0.929 . S
C1780 C1779 1.383 . S
C1780 C1781 1.377 . S
C1781 H1765 0.930 1_556 S
C1781 C1780 1.377 . S
C1781 C1782 1.379 . S
C1782 H1766 0.932 1_556 S
C1782 C1776 1.382 . S
C1782 C1781 1.379 . S
H1783 C1777 0.959 . S
H1784 C1777 0.961 . S
H1785 C1777 0.960 . S
H1786 C1778 0.930 . S
H1787 C1779 0.929 . S
H1788 C1796 0.929 . S
H1789 C1798 0.930 . S
H1790 C1800 0.930 . S
H1791 C1803 0.929 . S
H1792 C1806 0.930 . S
H1793 C1808 0.960 . S
H1794 C1808 0.960 . S
H1795 C1808 0.960 . S
C1796 H1788 0.929 . S
C1796 C1797 1.377 . S
C1796 C1798 1.384 . S
C1797 C1796 1.377 . S
C1797 C1803 1.390 . S
C1798 H1789 0.930 . S
C1798 C1796 1.384 . S
C1798 C1799 1.372 . S
C1799 C1798 1.372 . S
C1799 C1800 1.400 . S
C1799 C1804 1.490 . S
C1800 H1790 0.930 . S
C1800 C1799 1.400 . S
C1800 C1803 1.386 . S
H1801 C1817 0.930 . S
H1802 C1818 0.931 . S
C1803 H1791 0.929 . S
C1803 C1797 1.390 . S
C1803 C1800 1.386 . S
C1804 C1799 1.490 . S
C1804 C1806 1.395 . S
C1804 C1807 1.403 1_545 S
H1805 C1811 0.930 . S
C1806 H1792 0.930 . S
C1806 C1804 1.395 . S
C1806 C1809 1.403 . S
C1807 C1804 1.403 1_565 S
C1807 C1808 1.524 . S
C1807 C1811 1.400 . S
C1808 H1793 0.960 . S
C1808 H1794 0.960 . S
C1808 H1795 0.960 . S
C1808 C1807 1.524 . S
C1809 C1806 1.403 . S
C1809 C1810 1.392 1_545 S
C1809 C1813 1.495 . S
C1810 C1809 1.392 1_565 S
C1810 C1811 1.385 . S
C1810 C1812 1.478 . S
C1811 H1805 0.930 . S
C1811 C1807 1.400 . S
C1811 C1810 1.385 . S
C1812 C1810 1.478 . S
C1812 C1814 1.381 . S
C1812 C1818 1.383 . S
C1813 C1809 1.495 . S
C1813 H1819 0.959 . S
C1813 H1820 0.961 . S
C1813 H1821 0.960 . S
C1814 C1812 1.381 . S
C1814 C1815 1.394 . S
C1814 H1822 0.930 . S
C1815 C1814 1.394 . S
C1815 C1816 1.383 . S
C1815 H1823 0.929 . S
C1816 C1815 1.383 . S
C1816 C1817 1.377 . S
C1817 H1801 0.930 . S
C1817 C1816 1.377 . S
C1817 C1818 1.379 . S
C1818 H1802 0.931 . S
C1818 C1812 1.383 . S
C1818 C1817 1.379 . S
H1819 C1813 0.959 . S
H1820 C1813 0.961 . S
H1821 C1813 0.960 . S
H1822 C1814 0.930 . S
H1823 C1815 0.929 . S
H1824 C1832 0.929 . S
H1825 C1834 0.930 . S
H1826 C1836 0.930 . S
H1827 C1839 0.929 . S
H1828 C1842 0.930 . S
H1829 C1844 0.960 . S
H1830 C1844 0.960 . S
H1831 C1844 0.960 . S
C1832 H1824 0.929 . S
C1832 C1833 1.377 . S
C1832 C1834 1.384 . S
C1833 C1832 1.377 . S
C1833 C1839 1.390 . S
C1834 H1825 0.930 . S
C1834 C1832 1.384 . S
C1834 C1835 1.372 . S
C1835 C1834 1.372 . S
C1835 C1836 1.400 . S
C1835 C1840 1.490 . S
C1836 H1826 0.930 . S
C1836 C1835 1.400 . S
C1836 C1839 1.386 . S
H1837 C1853 0.930 . S
H1838 C1854 0.931 . S
C1839 H1827 0.929 . S
C1839 C1833 1.390 . S
C1839 C1836 1.386 . S
C1840 C1835 1.490 . S
C1840 C1842 1.395 . S
C1840 C1843 1.403 . S
H1841 C1847 0.930 . S
C1842 H1828 0.930 . S
C1842 C1840 1.395 . S
C1842 C1845 1.403 . S
C1843 C1840 1.403 . S
C1843 C1844 1.524 . S
C1843 C1847 1.400 . S
C1844 H1829 0.960 . S
C1844 H1830 0.960 . S
C1844 H1831 0.960 . S
C1844 C1843 1.524 . S
C1845 C1842 1.403 . S
C1845 C1846 1.392 . S
C1845 C1849 1.495 . S
C1846 C1845 1.392 . S
C1846 C1847 1.385 . S
C1846 C1848 1.478 . S
C1847 H1841 0.930 . S
C1847 C1843 1.400 . S
C1847 C1846 1.385 . S
C1848 C1846 1.478 . S
C1848 C1850 1.381 . S
C1848 C1854 1.383 . S
C1849 C1845 1.495 . S
C1849 H1855 0.959 . S
C1849 H1856 0.961 . S
C1849 H1857 0.960 . S
C1850 C1848 1.381 . S
C1850 C1851 1.394 . S
C1850 H1858 0.930 . S
C1851 C1850 1.394 . S
C1851 C1852 1.383 . S
C1851 H1859 0.929 . S
C1852 C1851 1.383 . S
C1852 C1853 1.377 . S
C1853 H1837 0.930 . S
C1853 C1852 1.377 . S
C1853 C1854 1.379 . S
C1854 H1838 0.931 . S
C1854 C1848 1.383 . S
C1854 C1853 1.379 . S
H1855 C1849 0.959 . S
H1856 C1849 0.961 . S
H1857 C1849 0.960 . S
H1858 C1850 0.930 . S
H1859 C1851 0.929 . S
H1860 C1868 0.929 . S
H1861 C1870 0.930 . S
H1862 C1872 0.930 . S
H1863 C1875 0.929 . S
H1864 C1878 0.930 . S
H1865 C1880 0.960 . S
H1866 C1880 0.960 . S
H1867 C1880 0.960 . S
C1868 H1860 0.929 . S
C1868 C1869 1.377 . S
C1868 C1870 1.384 . S
C1869 C1868 1.377 . S
C1869 C1875 1.390 . S
C1870 H1861 0.930 . S
C1870 C1868 1.384 . S
C1870 C1871 1.372 . S
C1871 C1870 1.372 . S
C1871 C1872 1.400 . S
C1871 C1876 1.490 . S
C1872 H1862 0.930 . S
C1872 C1871 1.400 . S
C1872 C1875 1.386 . S
H1873 C1889 0.930 . S
H1874 C1890 0.931 . S
C1875 H1863 0.929 . S
C1875 C1869 1.390 . S
C1875 C1872 1.386 . S
C1876 C1871 1.490 . S
C1876 C1878 1.395 . S
C1876 C1879 1.403 . S
H1877 C1883 0.930 . S
C1878 H1864 0.930 . S
C1878 C1876 1.395 . S
C1878 C1881 1.403 1_554 S
C1879 C1876 1.403 . S
C1879 C1880 1.524 . S
C1879 C1883 1.400 1_554 S
C1880 H1865 0.960 . S
C1880 H1866 0.960 . S
C1880 H1867 0.960 . S
C1880 C1879 1.524 . S
C1881 C1878 1.403 1_556 S
C1881 C1882 1.392 . S
C1881 C1885 1.495 . S
C1882 C1881 1.392 . S
C1882 C1883 1.385 . S
C1882 C1884 1.478 . S
C1883 H1877 0.930 . S
C1883 C1879 1.400 1_556 S
C1883 C1882 1.385 . S
C1884 C1882 1.478 . S
C1884 C1886 1.381 . S
C1884 C1890 1.383 . S
C1885 C1881 1.495 . S
C1885 H1891 0.959 . S
C1885 H1892 0.961 . S
C1885 H1893 0.960 . S
C1886 C1884 1.381 . S
C1886 C1887 1.394 . S
C1886 H1894 0.930 . S
C1887 C1886 1.394 . S
C1887 C1888 1.383 . S
C1887 H1895 0.929 . S
C1888 C1887 1.383 . S
C1888 C1889 1.377 . S
C1889 H1873 0.930 . S
C1889 C1888 1.377 . S
C1889 C1890 1.379 . S
C1890 H1874 0.931 . S
C1890 C1884 1.383 . S
C1890 C1889 1.379 . S
H1891 C1885 0.959 . S
H1892 C1885 0.961 . S
H1893 C1885 0.960 . S
H1894 C1886 0.930 . S
H1895 C1887 0.929 . S
H1896 C1904 0.929 . S
H1897 C1906 0.930 . S
H1898 C1908 0.930 . S
H1899 C1911 0.929 . S
H1900 C1914 0.930 . S
H1901 C1916 0.960 . S
H1902 C1916 0.960 . S
H1903 C1916 0.960 . S
C1904 H1896 0.929 . S
C1904 C1905 1.377 . S
C1904 C1906 1.384 . S
C1905 C1904 1.377 . S
C1905 C1911 1.390 . S
C1906 H1897 0.930 . S
C1906 C1904 1.384 . S
C1906 C1907 1.372 . S
C1907 C1906 1.372 . S
C1907 C1908 1.400 . S
C1907 C1912 1.490 . S
C1908 H1898 0.930 . S
C1908 C1907 1.400 . S
C1908 C1911 1.386 . S
H1909 C1925 0.930 . S
H1910 C1926 0.931 . S
C1911 H1899 0.929 . S
C1911 C1905 1.390 . S
C1911 C1908 1.386 . S
C1912 C1907 1.490 . S
C1912 C1914 1.395 . S
C1912 C1915 1.403 . S
H1913 C1919 0.930 . S
C1914 H1900 0.930 . S
C1914 C1912 1.395 . S
C1914 C1917 1.403 . S
C1915 C1912 1.403 . S
C1915 C1916 1.524 . S
C1915 C1919 1.400 . S
C1916 H1901 0.960 . S
C1916 H1902 0.960 . S
C1916 H1903 0.960 . S
C1916 C1915 1.524 . S
C1917 C1914 1.403 . S
C1917 C1918 1.392 . S
C1917 C1921 1.495 . S
C1918 C1917 1.392 . S
C1918 C1919 1.385 . S
C1918 C1920 1.478 . S
C1919 H1913 0.930 . S
C1919 C1915 1.400 . S
C1919 C1918 1.385 . S
C1920 C1918 1.478 . S
C1920 C1922 1.381 . S
C1920 C1926 1.383 . S
C1921 C1917 1.495 . S
C1921 H1927 0.959 . S
C1921 H1928 0.961 . S
C1921 H1929 0.960 . S
C1922 C1920 1.381 . S
C1922 C1923 1.394 . S
C1922 H1930 0.930 . S
C1923 C1922 1.394 . S
C1923 C1924 1.383 . S
C1923 H1931 0.929 . S
C1924 C1923 1.383 . S
C1924 C1925 1.377 . S
C1925 H1909 0.930 . S
C1925 C1924 1.377 . S
C1925 C1926 1.379 . S
C1926 H1910 0.931 . S
C1926 C1920 1.383 . S
C1926 C1925 1.379 . S
H1927 C1921 0.959 . S
H1928 C1921 0.961 . S
H1929 C1921 0.960 . S
H1930 C1922 0.930 . S
H1931 C1923 0.929 . S
H1932 C1940 0.929 . S
H1933 C1942 0.930 . S
H1934 C1944 0.930 . S
H1935 C1947 0.929 . S
H1936 C1950 0.930 . S
H1937 C1952 0.960 . S
H1938 C1952 0.960 . S
H1939 C1952 0.960 . S
C1940 H1932 0.929 . S
C1940 C1941 1.377 . S
C1940 C1942 1.384 . S
C1941 C1940 1.377 . S
C1941 C1947 1.390 . S
C1942 H1933 0.930 . S
C1942 C1940 1.384 . S
C1942 C1943 1.372 . S
C1943 C1942 1.372 . S
C1943 C1944 1.400 . S
C1943 C1948 1.490 . S
C1944 H1934 0.930 . S
C1944 C1943 1.400 . S
C1944 C1947 1.386 . S
H1945 C1961 0.930 . S
H1946 C1962 0.931 . S
C1947 H1935 0.929 . S
C1947 C1941 1.390 . S
C1947 C1944 1.386 . S
C1948 C1943 1.490 . S
C1948 C1950 1.395 . S
C1948 C1951 1.403 . S
H1949 C1955 0.930 . S
C1950 H1936 0.930 . S
C1950 C1948 1.395 . S
C1950 C1953 1.403 . S
C1951 C1948 1.403 . S
C1951 C1952 1.524 . S
C1951 C1955 1.400 . S
C1952 H1937 0.960 . S
C1952 H1938 0.960 . S
C1952 H1939 0.960 . S
C1952 C1951 1.524 . S
C1953 C1950 1.403 . S
C1953 C1954 1.392 . S
C1953 C1957 1.495 . S
C1954 C1953 1.392 . S
C1954 C1955 1.385 . S
C1954 C1956 1.478 . S
C1955 H1949 0.930 . S
C1955 C1951 1.400 . S
C1955 C1954 1.385 . S
C1956 C1954 1.478 . S
C1956 C1958 1.381 . S
C1956 C1962 1.383 . S
C1957 C1953 1.495 . S
C1957 H1963 0.959 . S
C1957 H1964 0.961 . S
C1957 H1965 0.960 . S
C1958 C1956 1.381 . S
C1958 C1959 1.394 . S
C1958 H1966 0.930 . S
C1959 C1958 1.394 . S
C1959 C1960 1.383 . S
C1959 H1967 0.929 . S
C1960 C1959 1.383 . S
C1960 C1961 1.377 . S
C1961 H1945 0.930 . S
C1961 C1960 1.377 . S
C1961 C1962 1.379 . S
C1962 H1946 0.931 . S
C1962 C1956 1.383 . S
C1962 C1961 1.379 . S
H1963 C1957 0.959 . S
H1964 C1957 0.961 . S
H1965 C1957 0.960 . S
H1966 C1958 0.930 . S
H1967 C1959 0.929 . S
H1968 C1976 0.929 . S
H1969 C1978 0.930 . S
H1970 C1980 0.930 . S
H1971 C1983 0.929 . S
H1972 C1986 0.930 . S
H1973 C1988 0.960 . S
H1974 C1988 0.960 . S
H1975 C1988 0.960 . S
C1976 H1968 0.929 . S
C1976 C1977 1.377 . S
C1976 C1978 1.384 . S
C1977 C1976 1.377 . S
C1977 C1983 1.390 . S
C1978 H1969 0.930 . S
C1978 C1976 1.384 . S
C1978 C1979 1.372 . S
C1979 C1978 1.372 . S
C1979 C1980 1.400 . S
C1979 C1984 1.490 . S
C1980 H1970 0.930 . S
C1980 C1979 1.400 . S
C1980 C1983 1.386 . S
H1981 C1997 0.930 . S
H1982 C1998 0.931 . S
C1983 H1971 0.929 . S
C1983 C1977 1.390 . S
C1983 C1980 1.386 . S
C1984 C1979 1.490 . S
C1984 C1986 1.395 . S
C1984 C1987 1.403 . S
H1985 C1991 0.930 . S
C1986 H1972 0.930 . S
C1986 C1984 1.395 . S
C1986 C1989 1.403 . S
C1987 C1984 1.403 . S
C1987 C1988 1.524 . S
C1987 C1991 1.400 . S
C1988 H1973 0.960 . S
C1988 H1974 0.960 . S
C1988 H1975 0.960 . S
C1988 C1987 1.524 . S
C1989 C1986 1.403 . S
C1989 C1990 1.392 . S
C1989 C1993 1.495 . S
C1990 C1989 1.392 . S
C1990 C1991 1.385 . S
C1990 C1992 1.478 . S
C1991 H1985 0.930 . S
C1991 C1987 1.400 . S
C1991 C1990 1.385 . S
C1992 C1990 1.478 . S
C1992 C1994 1.381 . S
C1992 C1998 1.383 . S
C1993 C1989 1.495 . S
C1993 H1999 0.959 . S
C1993 H2000 0.961 . S
C1993 H2001 0.960 . S
C1994 C1992 1.381 . S
C1994 C1995 1.394 . S
C1994 H2002 0.930 . S
C1995 C1994 1.394 . S
C1995 C1996 1.383 . S
C1995 H2003 0.929 . S
C1996 C1995 1.383 . S
C1996 C1997 1.377 . S
C1997 H1981 0.930 . S
C1997 C1996 1.377 . S
C1997 C1998 1.379 . S
C1998 H1982 0.931 . S
C1998 C1992 1.383 . S
C1998 C1997 1.379 . S
H1999 C1993 0.959 . S
H2000 C1993 0.961 . S
H2001 C1993 0.960 . S
H2002 C1994 0.930 . S
H2003 C1995 0.929 . S
H2004 C2012 0.929 . S
H2005 C2014 0.930 . S
H2006 C2016 0.930 . S
H2007 C2019 0.929 . S
H2008 C2022 0.930 . S
H2009 C2024 0.960 . S
H2010 C2024 0.960 . S
H2011 C2024 0.960 . S
C2012 H2004 0.929 . S
C2012 C2013 1.377 . S
C2012 C2014 1.384 . S
C2013 C2012 1.377 . S
C2013 C2019 1.390 . S
C2014 H2005 0.930 . S
C2014 C2012 1.384 . S
C2014 C2015 1.372 . S
C2015 C2014 1.372 . S
C2015 C2016 1.400 . S
C2015 C2020 1.490 . S
C2016 H2006 0.930 . S
C2016 C2015 1.400 . S
C2016 C2019 1.386 . S
H2017 C2033 0.930 . S
H2018 C2034 0.931 . S
C2019 H2007 0.929 . S
C2019 C2013 1.390 . S
C2019 C2016 1.386 . S
C2020 C2015 1.490 . S
C2020 C2022 1.395 . S
C2020 C2023 1.403 . S
H2021 C2027 0.930 . S
C2022 H2008 0.930 . S
C2022 C2020 1.395 . S
C2022 C2025 1.403 . S
C2023 C2020 1.403 . S
C2023 C2024 1.524 . S
C2023 C2027 1.400 . S
C2024 H2009 0.960 . S
C2024 H2010 0.960 . S
C2024 H2011 0.960 . S
C2024 C2023 1.524 . S
C2025 C2022 1.403 . S
C2025 C2026 1.392 . S
C2025 C2029 1.495 . S
C2026 C2025 1.392 . S
C2026 C2027 1.385 . S
C2026 C2028 1.478 . S
C2027 H2021 0.930 . S
C2027 C2023 1.400 . S
C2027 C2026 1.385 . S
C2028 C2026 1.478 . S
C2028 C2030 1.381 . S
C2028 C2034 1.383 . S
C2029 C2025 1.495 . S
C2029 H2035 0.959 . S
C2029 H2036 0.961 . S
C2029 H2037 0.960 . S
C2030 C2028 1.381 . S
C2030 C2031 1.394 . S
C2030 H2038 0.930 . S
C2031 C2030 1.394 . S
C2031 C2032 1.383 . S
C2031 H2039 0.929 . S
C2032 C2031 1.383 . S
C2032 C2033 1.377 . S
C2033 H2017 0.930 . S
C2033 C2032 1.377 . S
C2033 C2034 1.379 . S
C2034 H2018 0.931 . S
C2034 C2028 1.383 . S
C2034 C2033 1.379 . S
H2035 C2029 0.959 . S
H2036 C2029 0.961 . S
H2037 C2029 0.960 . S
H2038 C2030 0.930 . S
H2039 C2031 0.929 . S
C321 C10 1.450 . S
C340 C127 1.364 . S
C357 C23 1.726 . S
C376 C135 1.714 . S
C393 C153 1.412 . S
C412 C36 1.470 . S
C429 C109 1.703 . S
C448 C44 1.700 . S
C465 C133 1.387 . S
C484 C62 1.411 . S
C501 C75 1.714 . S
C520 C144 1.647 . S
C537 C83 1.382 . S
C556 C107 1.378 . S
C573 C118 1.684 . S
C592 C96 1.725 1_455 S
C609 C53 1.479 . S
C628 C157 1.447 . S
C645 C94 1.402 . S
C664 C196 1.413 . S
C681 C213 1.438 . S
C700 C66 1.393 . S
C717 C42 1.348 . S
C736 C172 1.346 . S
C753 C183 1.353 . S
C772 C81 1.352 . S
C789 C1 1.431 . S
C808 C250 1.421 . S
C825 C27 1.414 . S
C844 C237 1.388 . S
C861 C205 1.439 . S
C880 C278 1.385 . S
C897 C291 1.729 . S
C916 C166 1.725 . S
C933 C309 1.351 . S
C952 C211 1.381 . S
C969 C261 1.655 . S
C988 C192 1.713 1_655 S
C1005 C289 1.440 . S
C1024 C222 1.446 . S
C1041 C239 1.703 1_655 S
C1060 C300 1.652 . S
C1077 C270 1.341 . S
C1096 C174 1.357 . S
C1113 C252 1.716 . S
C1132 C276 1.618 . S
C1149 C14 1.443 . S
C1168 C231 1.447 . S
C1185 C57 1.487 . S
C1204 C5 1.472 . S
C1221 C18 0.824 . S
C1240 C70 0.804 . S
C1257 C31 1.484 . S
C1276 C88 1.478 . S
C1293 C101 0.916 . S
C1312 C49 0.911 . S
C1329 C114 0.896 . S
C1348 C120 0.879 . S
C1365 C122 0.477 . S
C1384 C131 0.383 . S
C1401 C146 0.819 . S
C1420 C140 0.868 . S
C1437 C105 0.421 . S
C1456 C148 0.430 . S
C1473 C40 0.374 . S
C1492 C159 0.378 . S
C1509 C92 0.433 . S
C1528 C235 0.441 . S
C1545 C55 1.492 . S
C1564 C170 1.509 . S
C1581 C248 0.390 . S
C1600 C68 0.385 . S
C1617 C185 0.319 . S
C1636 C16 0.311 . S
C1653 C3 1.521 . S
C1672 C218 1.517 . S
C1689 C29 1.448 . S
C1708 C198 1.431 . S
C1725 C200 1.460 . S
C1744 C224 1.451 . S
C1761 C244 0.863 1_554 S
C1780 C161 0.832 . S
C1797 C209 1.565 . S
C1816 C179 1.562 . S
C1833 C187 0.841 . S
C1852 C257 0.861 . S
C1869 C274 0.871 . S
C1888 C263 0.888 . S
C1905 C287 0.437 . S
C1924 C283 0.523 . S
C1941 C302 0.827 . S
C1960 C296 0.882 . S
C1977 C265 0.375 . S
C1996 C304 0.449 . S
C2013 C226 1.510 . S
C2032 C79 1.521 . S
