# Generated by pormake.
# Topology reo, (8)-cn, num edge types: 1
# Building blocks:
#     Node 0, Type 0, BuildingBlock: LIZSOE_clean_sbu_0, # of connection points: 8
#     Node 1, Type 0, BuildingBlock: LIZSOE_clean_sbu_0, # of connection points: 8
#     Node 2, Type 0, BuildingBlock: LIZSOE_clean_sbu_0, # of connection points: 8
#     Edge 3, Type (0, 0), BuildingBlock: TEMPAE_clean_linker_10, # of connection points: 2
#     Edge 4, Type (0, 0), BuildingBlock: TEMPAE_clean_linker_10, # of connection points: 2
#     Edge 5, Type (0, 0), BuildingBlock: TEMPAE_clean_linker_10, # of connection points: 2
#     Edge 6, Type (0, 0), BuildingBlock: TEMPAE_clean_linker_10, # of connection points: 2
#     Edge 7, Type (0, 0), BuildingBlock: TEMPAE_clean_linker_10, # of connection points: 2
#     Edge 8, Type (0, 0), BuildingBlock: TEMPAE_clean_linker_10, # of connection points: 2
#     Edge 9, Type (0, 0), BuildingBlock: TEMPAE_clean_linker_10, # of connection points: 2
#     Edge 10, Type (0, 0), BuildingBlock: TEMPAE_clean_linker_10, # of connection points: 2
#     Edge 11, Type (0, 0), BuildingBlock: TEMPAE_clean_linker_10, # of connection points: 2
#     Edge 12, Type (0, 0), BuildingBlock: TEMPAE_clean_linker_10, # of connection points: 2
#     Edge 13, Type (0, 0), BuildingBlock: TEMPAE_clean_linker_10, # of connection points: 2
#     Edge 14, Type (0, 0), BuildingBlock: TEMPAE_clean_linker_10, # of connection points: 2
# Relax obj value: 0.294
# Max RMSD: 0.276
# Mean RMSD: 0.238
data_MOF--net-reo--node1-LIZSOE_clean_sbu_0--edge1-TEMPAE_clean_linker_10
_symmetry_space_group_name_H-M    P1
_symmetry_Int_Tables_number       1
_symmetry_cell_setting            triclinic
loop_
_symmetry_equiv_pos_as_xyz
'x, y, z'
_cell_length_a     28.51107
_cell_length_b     24.110801
_cell_length_c     20.793461
_cell_angle_alpha  89.993436
_cell_angle_beta   104.59925
_cell_angle_gamma 115.00496
loop_
_atom_site_label
_atom_site_type_symbol
_atom_site_fract_x
_atom_site_fract_y
_atom_site_fract_z
_atom_type_partial_charge
Co0 Co 0.06437 0.99882 0.42909 0.0
N1 N 0.1211 0.03728 0.39181 0.0
C2 C 0.15681 0.09732 0.40581 0.0
N3 N 0.18828 0.05347 0.34549 0.0
C4 C 0.14121 0.01163 0.35467 0.0
C5 C 0.19768 0.1074 0.37712 0.0
Co6 Co 0.91805 1.01007 0.6296 0.0
N7 N 0.85741 0.97816 0.66186 0.0
N8 N 0.79443 0.97787 0.70948 0.0
C9 C 0.77605 0.92205 0.67483 0.0
C10 C 0.8146 0.92237 0.64559 0.0
C11 C 0.84434 1.01058 0.70173 0.0
Co12 Co 0.99141 1.00487 0.52874 0.0
C13 C 0.95907 0.09364 0.60373 0.0
H14 H 0.81081 0.88511 0.61258 0.0
O15 O 0.00831 0.95587 0.4597 0.0
O16 O 0.91531 0.9698 0.47039 0.0
O17 O 0.00361 0.08038 0.47987 0.0
O18 O 0.06887 0.03989 0.58561 0.0
O19 O 0.11221 0.02903 0.51412 0.0
O20 O 0.87246 0.97268 0.54414 0.0
O21 O 0.97741 0.0511 0.60196 0.0
O22 O 0.9321 0.94068 0.65013 0.0
O23 O 0.0519 0.06916 0.41864 0.0
O24 O 0.01427 0.96714 0.35312 0.0
O25 O 0.97782 0.93052 0.58095 0.0
O26 O 0.91 0.07548 0.60673 0.0
C27 C 0.02866 0.09865 0.43565 0.0
C28 C 0.88257 0.07425 0.73585 0.0
H29 H 0.87648 0.10852 0.7034 0.0
H30 H 0.87537 0.08209 0.78432 0.0
H31 H 0.92481 0.0812 0.74449 0.0
C32 C 0.8721 0.96085 0.48482 0.0
C33 C 0.1115 0.04263 0.5728 0.0
H34 H 0.15469 0.13118 0.43764 0.0
H35 H 0.12406 0.91763 0.36684 0.0
H36 H 0.12707 0.93708 0.28349 0.0
H37 H 0.06976 0.92783 0.31112 0.0
C38 C 0.11399 0.94478 0.32719 0.0
C39 C 0.99184 0.93267 0.39504 0.0
C40 C 0.95634 0.91326 0.62949 0.0
H41 H 0.23309 0.15054 0.38193 0.0
H42 H 0.73663 0.88434 0.66905 0.0
Co43 Co 0.50042 0.13764 0.06563 0.0
N44 N 0.51769 0.21589 0.04071 0.0
C45 C 0.51423 0.22726 0.97673 0.0
N46 N 0.50257 0.29961 0.02625 0.0
C47 C 0.51414 0.26313 0.07053 0.0
C48 C 0.50385 0.27798 0.96736 0.0
Co49 Co 0.51829 0.90987 0.97773 0.0
N50 N 0.51961 0.8346 0.98122 0.0
N51 N 0.54651 0.76032 0.97875 0.0
C52 C 0.49283 0.73499 0.95239 0.0
C53 C 0.47639 0.78078 0.95385 0.0
C54 C 0.56193 0.82042 0.99711 0.0
Co55 Co 0.505 0.02929 0.0342 0.0
C56 C 0.56918 0.99389 0.95757 0.0
H57 H 0.4361 0.77606 0.93135 0.0
O58 O 0.48083 0.06564 0.09542 0.0
O59 O 0.55195 0.01199 0.11408 0.0
O60 O 0.57039 0.10863 0.03814 0.0
O61 O 0.45605 0.04575 0.95408 0.0
O62 O 0.43326 0.10902 1.00327 0.0
O63 O 0.55478 0.93006 0.06943 0.0
O64 O 0.52373 0.98626 0.96926 0.0
O65 O 0.45266 0.87551 1.00034 0.0
O66 O 0.56754 0.1632 0.12191 0.0
O67 O 0.47342 0.14662 0.13275 0.0
O68 O 0.44238 0.95451 0.03792 0.0
O69 O 0.57979 0.94671 0.95805 0.0
C70 C 0.59425 0.15029 0.08913 0.0
C71 C 0.62003 0.86607 0.02655 0.0
H72 H 0.62461 0.90335 0.06181 0.0
H73 H 0.6439 0.84254 0.05347 0.0
H74 H 0.63761 0.88733 0.98581 0.0
C75 C 0.56741 0.96918 0.11893 0.0
C76 C 0.42511 0.07221 0.95359 0.0
H77 H 0.51223 0.19603 0.93775 0.0
H78 H 0.53932 0.32466 0.16031 0.0
H79 H 0.54889 0.25547 0.17328 0.0
H80 H 0.48242 0.25274 0.1559 0.0
C81 C 0.52178 0.27441 0.14436 0.0
C82 C 0.46497 0.09004 0.13584 0.0
C83 C 0.42742 0.89742 0.02608 0.0
H84 H 0.49089 0.29236 0.91943 0.0
H85 H 0.46824 0.68827 0.92789 0.0
Co86 Co 0.11467 0.47345 0.04792 0.0
N87 N 0.17385 0.46474 0.09497 0.0
C88 C 0.18732 0.44556 0.15474 0.0
N89 N 0.25033 0.45601 0.10526 0.0
C90 C 0.21311 0.47173 0.06657 0.0
C91 C 0.23443 0.44015 0.16113 0.0
Co92 Co 0.90739 0.53998 1.00638 0.0
N93 N 0.84692 0.54233 0.95262 0.0
N94 N 0.78062 0.57064 0.91502 0.0
C95 C 0.75855 0.50917 0.91572 0.0
C96 C 0.79921 0.49208 0.93915 0.0
C97 C 0.83454 0.58972 0.93607 0.0
Co98 Co 0.01299 0.5105 0.03143 0.0
C99 C 0.96044 0.58826 0.09626 0.0
H100 H 0.794 0.4471 0.95264 0.0
O101 O 0.05749 0.47717 0.99303 0.0
O102 O 0.01217 0.56372 0.95332 0.0
O103 O 0.07722 0.58251 0.08647 0.0
O104 O 0.01205 0.45925 0.10953 0.0
O105 O 0.07831 0.43345 0.11083 0.0
O106 O 0.95177 0.59867 0.9617 0.0
O107 O 0.96593 0.54265 0.06668 0.0
O108 O 0.90066 0.48091 0.94251 0.0
O109 O 0.14038 0.54893 0.09776 0.0
O110 O 0.0861 0.40268 0.99912 0.0
O111 O 0.9506 0.43568 0.97965 0.0
O112 O 0.91852 0.59701 0.06795 0.0
C113 C 0.12497 0.58858 0.11165 0.0
C114 C 0.87556 0.65569 0.94184 0.0
H115 H 0.90343 0.65885 0.91181 0.0
H116 H 0.85638 0.68616 0.92244 0.0
H117 H 0.89952 0.67297 0.99466 0.0
C118 C 0.98962 0.60062 0.93836 0.0
C119 C 0.03978 0.42997 0.13282 0.0
H120 H 0.16349 0.43354 0.18997 0.0
H121 H 0.18905 0.45665 0.95947 0.0
H122 H 0.25594 0.51795 0.99539 0.0
H123 H 0.19645 0.52891 0.99365 0.0
C124 C 0.21421 0.49552 1.00005 0.0
C125 C 0.05153 0.42244 0.96871 0.0
C126 C 0.90414 0.43202 0.95689 0.0
H127 H 0.25377 0.42238 0.20197 0.0
H128 H 0.716 0.47986 0.90789 0.0
C129 C 0.98215 0.33217 0.17237 0.0
C130 C 0.02799 0.38913 0.18624 0.0
C131 C 0.97814 0.28584 0.21553 0.0
C132 C 0.0204 0.29714 0.27499 0.0
C133 C 0.06515 0.35615 0.29078 0.0
C134 C 0.06863 0.4008 0.24606 0.0
C135 C 0.92993 0.22374 0.19558 0.0
C136 C 0.11121 0.37105 0.35312 0.0
C137 C 1.00119 0.18629 0.41064 0.0
C138 C 0.0273 0.15131 0.39729 0.0
C139 C 0.9982 0.23348 0.37135 0.0
C140 C 0.02122 0.24588 0.31667 0.0
C141 C 0.04719 0.21034 0.30285 0.0
C142 C 0.05018 0.1643 0.34315 0.0
C143 C 0.97034 0.27015 0.3883 0.0
C144 C 0.07151 0.2204 0.24466 0.0
H145 H 0.95107 0.32231 0.12556 0.0
H146 H 0.1045 0.44436 0.25658 0.0
H147 H 0.94285 0.18614 0.19907 0.0
H148 H 0.90475 0.21704 0.2304 0.0
H149 H 0.90472 0.21929 0.14375 0.0
H150 H 0.13945 0.42092 0.36276 0.0
H151 H 0.09573 0.35724 0.39733 0.0
H152 H 0.13408 0.34465 0.34769 0.0
H153 H 0.9829 0.17672 0.45165 0.0
H154 H 0.07003 0.13763 0.3312 0.0
H155 H 0.93472 0.2624 0.34595 0.0
H156 H 0.99784 0.32015 0.39585 0.0
H157 H 0.95685 0.25736 0.43411 0.0
H158 H 0.04032 0.21483 0.19743 0.0
H159 H 0.08887 0.18778 0.23917 0.0
H160 H 0.10382 0.2681 0.25135 0.0
C161 C 0.82273 0.95396 0.36379 0.0
C162 C 0.82213 0.94953 0.43092 0.0
C163 C 0.77916 0.95596 0.31511 0.0
C164 C 0.73396 0.95381 0.3339 0.0
C165 C 0.7322 0.94691 0.40092 0.0
C166 C 0.77594 0.94444 0.4483 0.0
C167 C 0.78227 0.96245 0.24391 0.0
C168 C 0.68492 0.94436 0.42325 0.0
C169 C 0.64683 0.01959 0.22042 0.0
C170 C 0.60502 0.96603 0.18114 0.0
C171 C 0.68866 0.01634 0.27128 0.0
C172 C 0.68828 0.95817 0.28332 0.0
C173 C 0.64468 0.90394 0.24579 0.0
C174 C 0.60381 0.90856 0.19526 0.0
C175 C 0.73434 0.07528 0.31033 0.0
C176 C 0.64223 0.841 0.25707 0.0
H177 H 0.85816 0.95844 0.34971 0.0
H178 H 0.77474 0.94111 0.49989 0.0
H179 H 0.74622 0.92529 0.20902 0.0
H180 H 0.78258 1.00702 0.23005 0.0
H181 H 0.81889 0.96061 0.23661 0.0
H182 H 0.68895 0.93702 0.47674 0.0
H183 H 0.68127 0.98812 0.41598 0.0
H184 H 0.64692 0.90665 0.3923 0.0
H185 H 0.64836 0.06412 0.20909 0.0
H186 H 0.57155 0.86697 0.16498 0.0
H187 H 0.7725 0.08121 0.30028 0.0
H188 H 0.73967 0.07297 0.36484 0.0
H189 H 0.72751 0.11645 0.29716 0.0
H190 H 0.67667 0.83753 0.24484 0.0
H191 H 0.60425 0.80322 0.22594 0.0
H192 H 0.64573 0.83406 0.3105 0.0
C193 C 0.01878 0.84374 0.40112 0.0
C194 C 0.98085 0.86667 0.37339 0.0
C195 C 0.02274 0.79549 0.3659 0.0
C196 C 0.98789 0.76785 0.30055 0.0
C197 C 0.9476 0.78845 0.27414 0.0
C198 C 0.945 0.83709 0.30999 0.0
C199 C 0.06699 0.77711 0.39713 0.0
C200 C 0.90868 0.76142 0.20566 0.0
C201 C 0.02231 0.69055 0.16502 0.0
C202 C 0.9906 0.62678 0.16391 0.0
C203 C 0.0247 0.73617 0.21139 0.0
C204 C 0.99393 0.71916 0.25871 0.0
C205 C 0.9652 0.65483 0.26131 0.0
C206 C 0.96436 0.6103 0.21511 0.0
C207 C 0.05821 0.8032 0.20717 0.0
C208 C 0.93114 0.63263 0.30925 0.0
H209 H 0.04869 0.86719 0.44813 0.0
H210 H 0.91673 0.85499 0.28606 0.0
H211 H 0.05099 0.72617 0.39338 0.0
H212 H 0.09805 0.79393 0.3695 0.0
H213 H 0.08663 0.79662 0.45058 0.0
H214 H 0.87712 0.77831 0.19381 0.0
H215 H 0.93099 0.77377 0.16713 0.0
H216 H 0.88879 0.71036 0.20209 0.0
H217 H 0.04133 0.70537 0.12506 0.0
H218 H 0.93755 0.5621 0.2141 0.0
H219 H 0.08969 0.82413 0.25539 0.0
H220 H 0.03283 0.82841 0.19883 0.0
H221 H 0.07824 0.80976 0.16648 0.0
H222 H 0.95439 0.65701 0.36038 0.0
H223 H 0.91618 0.58218 0.31131 0.0
H224 H 0.89592 0.64319 0.29316 0.0
C225 C 0.43969 0.07103 0.2411 0.0
C226 C 0.42706 0.05336 0.17261 0.0
C227 C 0.39887 0.05796 0.2728 0.0
C228 C 0.34428 0.02758 0.23445 0.0
C229 C 0.33159 1.00413 0.16672 0.0
C230 C 0.37336 0.01704 0.13651 0.0
C231 C 0.41415 0.08334 0.34522 0.0
C232 C 0.27388 0.97124 0.12456 0.0
C233 C 0.23752 0.9943 0.32709 0.0
C234 C 0.22472 0.04412 0.31467 0.0
C235 C 0.27533 0.98701 0.30018 0.0
C236 C 0.30184 0.03149 0.26109 0.0
C237 C 0.28946 0.08237 0.24916 0.0
C238 C 0.25082 0.08771 0.27573 0.0
C239 C 0.28592 0.93129 0.31351 0.0
C240 C 0.3179 0.13211 0.20957 0.0
H241 H 0.48126 0.10002 0.26846 0.0
H242 H 0.36366 1.00435 0.0831 0.0
H243 H 0.40541 0.12384 0.34812 0.0
H244 H 0.39002 0.04841 0.37312 0.0
H245 H 0.45761 0.09809 0.3702 0.0
H246 H 0.24974 0.93521 0.15155 0.0
H247 H 0.25598 1.00437 0.11548 0.0
H248 H 0.27055 0.95 0.07523 0.0
H249 H 0.21888 0.96167 0.35917 0.0
H250 H 0.24123 0.12649 0.26672 0.0
H251 H 0.32809 0.94101 0.31645 0.0
H252 H 0.25862 0.89387 0.27207 0.0
H253 H 0.27726 0.91404 0.36075 0.0
H254 H 0.36206 0.15307 0.23318 0.0
H255 H 0.30439 0.16927 0.20626 0.0
H256 H 0.31053 0.11196 0.15801 0.0
C257 C 0.93534 0.83942 0.71597 0.0
C258 C 0.96337 0.86288 0.66777 0.0
C259 C 0.94478 0.79659 0.75726 0.0
C260 C 0.98344 0.77597 0.75103 0.0
C261 C 0.01153 0.79885 0.70207 0.0
C262 C 1.00118 0.84171 0.66117 0.0
C263 C 0.91354 0.77383 0.80828 0.0
C264 C 0.05324 0.77875 0.69357 0.0
C265 C 0.03413 0.70581 0.90395 0.0
C266 C 1.00056 0.6425 0.88567 0.0
C267 C 0.03142 0.74948 0.85935 0.0
C268 C 0.99334 0.72977 0.79511 0.0
C269 C 0.96105 0.66557 0.77562 0.0
C270 C 0.96496 0.62303 0.82097 0.0
C271 C 0.06685 0.8171 0.88286 0.0
C272 C 0.91949 0.64187 0.70841 0.0
H273 H 0.90612 0.85514 0.72215 0.0
H274 H 0.02374 0.85975 0.62504 0.0
H275 H 0.89031 0.72293 0.79887 0.0
H276 H 0.94175 0.78515 0.8593 0.0
H277 H 0.88509 0.79435 0.80731 0.0
H278 H 0.07025 0.79873 0.65185 0.0
H279 H 0.08664 0.79309 0.74048 0.0
H280 H 0.03527 0.72773 0.68389 0.0
H281 H 0.06025 0.72157 0.95468 0.0
H282 H 0.93732 0.57456 0.80739 0.0
H283 H 0.04182 0.83973 0.89138 0.0
H284 H 0.08632 0.84007 0.84407 0.0
H285 H 0.09868 0.82468 0.93018 0.0
H286 H 0.88638 0.65489 0.70747 0.0
H287 H 0.90196 0.59092 0.69753 0.0
H288 H 0.9375 0.66313 0.66791 0.0
C289 C 0.38756 0.11352 0.85459 0.0
C290 C 0.38157 0.06469 0.89318 0.0
C291 C 0.34435 0.11169 0.80268 0.0
C292 C 0.29355 0.05984 0.78934 0.0
C293 C 0.28745 1.00974 0.82763 0.0
C294 C 0.33168 0.0128 0.87926 0.0
C295 C 0.35291 0.1658 0.76282 0.0
C296 C 0.23404 0.95345 0.81473 0.0
C297 C 0.16746 0.07611 0.69362 0.0
C298 C 0.16001 0.05253 0.62829 0.0
C299 C 0.21119 0.07964 0.7465 0.0
C300 C 0.2474 0.05753 0.73406 0.0
C301 C 0.2401 0.03393 0.66824 0.0
C302 C 0.19713 0.03243 0.61632 0.0
C303 C 0.21846 0.10655 0.8158 0.0
C304 C 0.27704 1.00892 0.65274 0.0
H305 H 0.42592 0.1538 0.86561 0.0
H306 H 0.32687 0.97553 0.91006 0.0
H307 H 0.34434 0.15041 0.70911 0.0
H308 H 0.32453 0.18518 0.76662 0.0
H309 H 0.3947 0.20301 0.78024 0.0
H310 H 0.2029 0.96691 0.82221 0.0
H311 H 0.22062 0.93242 0.76197 0.0
H312 H 0.23608 0.91814 0.8482 0.0
H313 H 0.13903 0.09152 0.70346 0.0
H314 H 0.19166 0.01328 0.56634 0.0
H315 H 0.25943 0.14493 0.83504 0.0
H316 H 0.21477 0.07095 0.85051 0.0
H317 H 0.18833 0.12412 0.81676 0.0
H318 H 0.31922 0.0452 0.66719 0.0
H319 H 0.26573 0.9919 0.59884 0.0
H320 H 0.27598 0.97039 0.68246 0.0
C321 C 0.98322 0.33375 0.8819 0.0
C322 C 0.02656 0.39318 0.89685 0.0
C323 C 0.97563 0.2904 0.82906 0.0
C324 C 0.01354 0.30479 0.79086 0.0
C325 C 0.05596 0.36559 0.80379 0.0
C326 C 0.06119 0.40872 0.85498 0.0
C327 C 0.92854 0.2276 0.81698 0.0
C328 C 0.09888 0.38374 0.76741 0.0
C329 C 0.02257 0.16495 0.70958 0.0
C330 C 0.99222 0.15748 0.64246 0.0
C331 C 0.03181 0.21369 0.75729 0.0
C332 C 0.00954 0.25636 0.73882 0.0
C333 C 0.98198 0.25129 0.67027 0.0
C334 C 0.97442 0.20314 0.62356 0.0
C335 C 0.06269 0.21696 0.82877 0.0
C336 C 0.95635 0.29381 0.64692 0.0
H337 H 0.95733 0.31931 0.91492 0.0
H338 H 0.09651 0.45286 0.86743 0.0
H339 H 0.90766 0.21455 0.76268 0.0
H340 H 0.94335 0.19292 0.83432 0.0
H341 H 0.89894 0.22573 0.84395 0.0
H342 H 0.12724 0.4335 0.77936 0.0
H343 H 0.1222 0.35647 0.78175 0.0
H344 H 0.08039 0.37311 0.7125 0.0
H345 H 0.03506 0.12949 0.72647 0.0
H346 H 0.94943 0.19746 0.57287 0.0
H347 H 0.03434 0.20127 0.86019 0.0
H348 H 0.09235 0.26517 0.84888 0.0
H349 H 0.08428 0.18745 0.83358 0.0
H350 H 0.92315 0.28486 0.6701 0.0
H351 H 0.9397 0.28737 0.59162 0.0
H352 H 0.98603 0.34263 0.66315 0.0
C353 C 0.57868 0.02692 0.8496 0.0
C354 C 0.59884 0.04146 0.91942 0.0
C355 C 0.61278 0.02928 0.80986 0.0
C356 C 0.66883 0.05087 0.84008 0.0
C357 C 0.69033 0.07747 0.90788 0.0
C358 C 0.65497 0.07238 0.94671 0.0
C359 C 0.58771 1.00023 0.73796 0.0
C360 C 0.75017 0.1056 0.9418 0.0
C361 C 0.73609 0.95949 0.78454 0.0
C362 C 0.76462 0.99775 0.74342 0.0
C363 C 0.70549 0.97683 0.8165 0.0
C364 C 0.70208 0.03336 0.80603 0.0
C365 C 0.7314 0.07266 0.76519 0.0
C366 C 0.76202 0.05424 0.73402 0.0
C367 C 0.6774 0.93496 0.86251 0.0
C368 C 0.73106 0.13446 0.75541 0.0
H369 H 0.5354 1.0029 0.82783 0.0
H370 H 0.67117 0.0838 1.00042 0.0
H371 H 0.61239 0.02739 0.70547 0.0
H372 H 0.58589 0.95337 0.7345 0.0
H373 H 0.54612 0.99592 0.71854 0.0
H374 H 0.76692 0.15622 0.94079 0.0
H375 H 0.75824 0.09656 0.99481 0.0
H376 H 0.77255 0.08855 0.91708 0.0
H377 H 0.73833 0.91611 0.79223 0.0
H378 H 0.78321 0.08357 0.70136 0.0
H379 H 0.63314 0.91814 0.84262 0.0
H380 H 0.68996 0.96073 0.9128 0.0
H381 H 0.68673 0.89476 0.86857 0.0
H382 H 0.68911 0.12846 0.7347 0.0
H383 H 0.75522 0.15937 0.72132 0.0
H384 H 0.74765 0.16337 0.80459 0.0
C385 C 0.34096 0.46051 0.13604 0.0
C386 C 0.29226 0.44662 0.08758 0.0
C387 C 0.37943 0.44403 0.1225 0.0
C388 C 0.36895 0.41366 0.05865 0.0
C389 C 0.32108 0.40248 1.00837 0.0
C390 C 0.2828 0.41792 0.02391 0.0
C391 C 0.42945 0.45525 0.17783 0.0
C392 C 0.30866 0.37055 0.9395 0.0
C393 C 0.48183 0.38916 1.01715 0.0
C394 C 0.46914 0.32895 0.03221 0.0
C395 C 0.44902 0.41754 0.02429 0.0
C396 C 0.40341 0.38478 0.04797 0.0
C397 C 0.39002 0.32333 0.0617 0.0
C398 C 0.42247 0.29588 0.05227 0.0
C399 C 0.46358 0.48256 1.0075 0.0
C400 C 0.34178 0.28661 0.08707 0.0
H401 H 0.34798 0.4823 0.18533 0.0
H402 H 0.24434 0.40455 0.98716 0.0
H403 H 0.42745 0.41044 0.19339 0.0
H404 H 0.46582 0.47769 0.1598 0.0
H405 H 0.43408 0.48453 0.22239 0.0
H406 H 0.27459 0.37469 0.90325 0.0
H407 H 0.34454 0.39005 0.92011 0.0
H408 H 0.29779 0.32084 0.94233 0.0
H409 H 0.51748 0.4139 1.00048 0.0
H410 H 0.41161 0.24827 0.06102 0.0
H411 H 0.48161 0.5147 0.05451 0.0
H412 H 0.42721 0.48743 0.97915 0.0
H413 H 0.49308 0.49666 0.97753 0.0
H414 H 0.34472 0.31144 0.13393 0.0
H415 H 0.33823 0.23995 0.09726 0.0
H416 H 0.30421 0.28128 0.04978 0.0
C417 C 0.16526 0.70155 0.1219 0.0
C418 C 0.16756 0.64829 0.14554 0.0
C419 C 0.2127 0.75222 0.12039 0.0
C420 C 0.26243 0.749 0.14513 0.0
C421 C 0.26506 0.7011 0.1827 0.0
C422 C 0.21697 0.6508 0.18278 0.0
C423 C 0.20779 0.80327 0.0817 0.0
C424 C 0.3176 0.6975 0.21264 0.0
C425 C 0.34916 0.79796 0.02609 0.0
C426 C 0.38596 0.85737 0.05616 0.0
C427 C 0.30921 0.7614 0.05578 0.0
C428 C 0.30731 0.78506 0.11718 0.0
C429 C 0.34628 0.84377 0.1492 0.0
C430 C 0.38511 0.87937 0.11813 0.0
C431 C 0.2684 0.6981 1.02079 0.0
C432 C 0.34562 0.86988 0.21463 0.0
H433 H 0.12685 0.7003 0.09491 0.0
H434 H 0.21836 0.60997 0.20337 0.0
H435 H 0.24674 0.84459 0.09064 0.0
H436 H 0.1925 0.78654 0.02736 0.0
H437 H 0.17818 0.81635 0.09517 0.0
H438 H 0.32765 0.67701 0.17333 0.0
H439 H 0.35113 0.74388 0.23211 0.0
H440 H 0.31467 0.6679 0.25381 0.0
H441 H 0.35084 0.78087 0.97889 0.0
H442 H 0.41524 0.92461 0.14269 0.0
H443 H 0.2272 0.69531 1.0089 0.0
H444 H 0.26958 0.66255 0.05422 0.0
H445 H 0.27574 0.68679 0.97357 0.0
H446 H 0.3088 0.87707 0.20629 0.0
H447 H 0.38132 0.91455 0.23548 0.0
H448 H 0.34388 0.83689 0.25215 0.0
C449 C 0.66059 0.25708 0.09556 0.0
C450 C 0.64937 0.19493 0.09767 0.0
C451 C 0.70979 0.29902 0.08768 0.0
C452 C 0.74801 0.27757 0.08297 0.0
C453 C 0.73972 0.21696 0.09544 0.0
C454 C 0.68953 0.17554 0.10177 0.0
C455 C 0.71846 0.36432 0.07743 0.0
C456 C 0.78277 0.19547 0.0991 0.0
C457 C 0.81577 0.34578 0.94975 0.0
C458 C 0.86508 0.3904 0.98863 0.0
C459 C 0.77767 0.30719 0.98051 0.0
C460 C 0.79004 0.31397 0.05145 0.0
C461 C 0.84038 0.35825 0.09079 0.0
C462 C 0.87727 0.39633 0.05862 0.0
C463 C 0.72365 0.26058 0.93717 0.0
C464 C 0.85526 0.36588 0.16639 0.0
H465 H 0.62947 0.27194 0.09455 0.0
H466 H 0.68094 0.12779 0.10747 0.0
H467 H 0.75976 0.39775 0.10572 0.0
H468 H 0.71397 0.36999 0.02355 0.0
H469 H 0.68895 0.37593 0.09333 0.0
H470 H 0.7677 0.14513 0.102 0.0
H471 H 0.79935 0.20706 0.05546 0.0
H472 H 0.81643 0.21984 0.1446 0.0
H473 H 0.80681 0.34192 0.89561 0.0
H474 H 0.91529 0.43155 0.08839 0.0
H475 H 0.69164 0.27342 0.94255 0.0
H476 H 0.71407 0.21423 0.95362 0.0
H477 H 0.72235 0.25769 0.88338 0.0
H478 H 0.82195 0.36601 0.18465 0.0
H479 H 0.89222 0.40905 0.18866 0.0
H480 H 0.86286 0.3265 0.18498 0.0
C481 C 0.76896 0.65067 0.97257 0.0
C482 C 0.75181 0.60648 0.9174 0.0
C483 C 0.73689 0.679 0.98123 0.0
C484 C 0.68572 0.66049 0.93512 0.0
C485 C 0.66857 0.61688 0.8787 0.0
C486 C 0.70216 0.59051 0.87034 0.0
C487 C 0.75701 0.72735 0.04046 0.0
C488 C 0.61445 0.59745 0.82806 0.0
C489 C 0.57957 0.6816 0.99555 0.0
C490 C 0.58063 0.73433 0.96729 0.0
C491 C 0.61403 0.65699 0.98564 0.0
C492 C 0.6496 0.68612 0.94624 0.0
C493 C 0.64994 0.73894 0.91661 0.0
C494 C 0.61497 0.76215 0.92724 0.0
C495 C 0.61217 0.59979 1.01679 0.0
C496 C 0.68762 0.77228 0.87501 0.0
H497 H 0.80642 0.66119 1.01047 0.0
H498 H 0.68903 0.55571 0.82841 0.0
H499 H 0.75597 0.77041 0.0229 0.0
H500 H 0.7302 0.71128 0.07379 0.0
H501 H 0.79879 0.73816 0.07013 0.0
H502 H 0.607 0.56245 0.7873 0.0
H503 H 0.58187 0.5781 0.85321 0.0
H504 H 0.61205 0.63826 0.80556 0.0
H505 H 0.55222 0.66035 0.02578 0.0
H506 H 0.61425 0.80216 0.90412 0.0
H507 H 0.653 0.60786 0.04723 0.0
H508 H 0.5985 0.56148 0.97671 0.0
H509 H 0.58456 0.58521 0.04928 0.0
H510 H 0.66772 0.79098 0.83372 0.0
H511 H 0.70185 0.74265 0.85278 0.0
H512 H 0.7234 0.81177 0.90735 0.0
loop_
_geom_bond_atom_site_label_1
_geom_bond_atom_site_label_2
_geom_bond_distance
_geom_bond_site_symmetry_2
_ccdc_geom_bond_type
Co0 N1 2.034 . S
Co0 O15 2.262 1_545 S
Co0 O19 1.958 . S
Co0 O23 1.950 . S
Co0 O24 2.057 1_545 S
N1 Co0 2.034 . S
N1 C2 1.366 . S
N1 C4 1.332 . S
C2 N1 1.366 . S
C2 C5 1.377 . S
C2 H34 0.931 . S
N3 C4 1.346 . S
N3 C5 1.337 . S
C4 N1 1.332 . S
C4 N3 1.346 . S
C4 C38 1.361 . S
C5 C2 1.377 . S
C5 N3 1.337 . S
C5 H41 0.930 . S
Co6 N7 2.034 . S
Co6 O20 1.950 . S
Co6 O21 2.262 1_565 S
Co6 O22 1.958 . S
Co6 O26 2.057 1_565 S
N7 Co6 2.034 . S
N7 C10 1.366 . S
N7 C11 1.332 . S
N8 C9 1.337 . S
N8 C11 1.346 . S
C9 N8 1.337 . S
C9 C10 1.377 . S
C9 H42 0.930 . S
C10 N7 1.366 . S
C10 C9 1.377 . S
C10 H14 0.931 . S
C11 N7 1.332 . S
C11 N8 1.346 . S
C11 C28 1.361 1_565 S
Co12 O15 2.097 1_545 S
Co12 O16 2.065 1_445 S
Co12 O17 2.065 . S
Co12 O18 2.042 . S
Co12 O21 2.097 1_455 S
Co12 O25 2.042 1_445 S
C13 O21 1.253 . S
C13 O26 1.263 . S
H14 C10 0.931 . S
O15 Co0 2.262 1_565 S
O15 Co12 2.097 1_565 S
O15 C39 1.253 . S
O16 Co12 2.065 1_665 S
O16 C32 1.221 . S
O17 Co12 2.065 . S
O17 C27 1.221 . S
O18 Co12 2.042 . S
O18 C33 1.237 . S
O19 Co0 1.958 . S
O19 C33 1.278 . S
O20 Co6 1.950 . S
O20 C32 1.277 . S
O21 Co6 2.262 1_545 S
O21 Co12 2.097 1_655 S
O21 C13 1.253 . S
O22 Co6 1.958 . S
O22 C40 1.278 . S
O23 Co0 1.950 . S
O23 C27 1.277 . S
O24 Co0 2.057 1_565 S
O24 C39 1.263 . S
O25 Co12 2.042 1_665 S
O25 C40 1.237 . S
O26 Co6 2.057 1_545 S
O26 C13 1.263 . S
C27 O17 1.221 . S
C27 O23 1.277 . S
C28 C11 1.361 1_545 S
C28 H29 0.960 . S
C28 H30 0.961 . S
C28 H31 0.961 . S
H29 C28 0.960 . S
H30 C28 0.961 . S
H31 C28 0.961 . S
C32 O16 1.221 . S
C32 O20 1.277 . S
C33 O18 1.237 . S
C33 O19 1.278 . S
H34 C2 0.931 . S
H35 C38 0.961 . S
H36 C38 0.961 . S
H37 C38 0.960 . S
C38 C4 1.361 . S
C38 H35 0.961 . S
C38 H36 0.961 . S
C38 H37 0.960 . S
C39 O15 1.253 . S
C39 O24 1.263 . S
C40 O22 1.278 . S
C40 O25 1.237 . S
H41 C5 0.930 . S
H42 C9 0.930 . S
Co43 N44 2.034 1_554 S
Co43 O58 2.262 . S
Co43 O62 1.958 1_554 S
Co43 O66 1.950 . S
Co43 O67 2.057 . S
N44 Co43 2.034 1_556 S
N44 C45 1.366 . S
N44 C47 1.332 1_556 S
C45 N44 1.366 . S
C45 C48 1.377 . S
C45 H77 0.931 . S
N46 C47 1.346 . S
N46 C48 1.337 1_554 S
C47 N44 1.332 1_554 S
C47 N46 1.346 . S
C47 C81 1.361 . S
C48 C45 1.377 . S
C48 N46 1.337 1_556 S
C48 H84 0.930 . S
Co49 N50 2.034 . S
Co49 O63 1.950 . S
Co49 O64 2.262 1_554 S
Co49 O65 1.958 1_554 S
Co49 O69 2.057 1_554 S
N50 Co49 2.034 . S
N50 C53 1.366 . S
N50 C54 1.332 . S
N51 C52 1.337 . S
N51 C54 1.346 . S
C52 N51 1.337 . S
C52 C53 1.377 . S
C52 H85 0.930 . S
C53 N50 1.366 . S
C53 C52 1.377 . S
C53 H57 0.931 . S
C54 N50 1.332 . S
C54 N51 1.346 . S
C54 C71 1.361 . S
Co55 O58 2.097 . S
Co55 O59 2.065 . S
Co55 O60 2.065 . S
Co55 O61 2.042 1_554 S
Co55 O64 2.097 1_544 S
Co55 O68 2.042 1_545 S
C56 O64 1.253 . S
C56 O69 1.263 . S
H57 C53 0.931 . S
O58 Co43 2.262 . S
O58 Co55 2.097 . S
O58 C82 1.253 . S
O59 Co55 2.065 . S
O59 C75 1.221 1_545 S
O60 Co55 2.065 . S
O60 C70 1.221 . S
O61 Co55 2.042 1_556 S
O61 C76 1.237 . S
O62 Co43 1.958 1_556 S
O62 C76 1.278 . S
O63 Co49 1.950 . S
O63 C75 1.277 . S
O64 Co49 2.262 1_556 S
O64 Co55 2.097 1_566 S
O64 C56 1.253 . S
O65 Co49 1.958 1_556 S
O65 C83 1.278 1_556 S
O66 Co43 1.950 . S
O66 C70 1.277 . S
O67 Co43 2.057 . S
O67 C82 1.263 . S
O68 Co55 2.042 1_565 S
O68 C83 1.237 . S
O69 Co49 2.057 1_556 S
O69 C56 1.263 . S
C70 O60 1.221 . S
C70 O66 1.277 . S
C71 C54 1.361 . S
C71 H72 0.960 . S
C71 H73 0.961 . S
C71 H74 0.961 . S
H72 C71 0.960 . S
H73 C71 0.961 . S
H74 C71 0.961 . S
C75 O59 1.221 1_565 S
C75 O63 1.277 . S
C76 O61 1.237 . S
C76 O62 1.278 . S
H77 C45 0.931 . S
H78 C81 0.961 . S
H79 C81 0.961 . S
H80 C81 0.960 . S
C81 C47 1.361 . S
C81 H78 0.961 . S
C81 H79 0.961 . S
C81 H80 0.960 . S
C82 O58 1.253 . S
C82 O67 1.263 . S
C83 O65 1.278 1_554 S
C83 O68 1.237 . S
H84 C48 0.930 . S
H85 C52 0.930 . S
Co86 N87 2.034 . S
Co86 O101 2.262 1_554 S
Co86 O105 1.958 . S
Co86 O109 1.950 . S
Co86 O110 2.057 1_554 S
N87 Co86 2.034 . S
N87 C88 1.366 . S
N87 C90 1.332 . S
C88 N87 1.366 . S
C88 C91 1.377 . S
C88 H120 0.931 . S
N89 C90 1.346 . S
N89 C91 1.337 . S
C90 N87 1.332 . S
C90 N89 1.346 . S
C90 C124 1.361 1_554 S
C91 C88 1.377 . S
C91 N89 1.337 . S
C91 H127 0.930 . S
Co92 N93 2.034 1_554 S
Co92 O106 1.950 1_554 S
Co92 O107 2.262 . S
Co92 O108 1.958 . S
Co92 O112 2.057 . S
N93 Co92 2.034 1_556 S
N93 C96 1.366 . S
N93 C97 1.332 . S
N94 C95 1.337 . S
N94 C97 1.346 . S
C95 N94 1.337 . S
C95 C96 1.377 . S
C95 H128 0.930 . S
C96 N93 1.366 . S
C96 C95 1.377 . S
C96 H100 0.931 . S
C97 N93 1.332 . S
C97 N94 1.346 . S
C97 C114 1.361 . S
Co98 O101 2.097 1_554 S
Co98 O102 2.065 1_454 S
Co98 O103 2.065 . S
Co98 O104 2.042 . S
Co98 O107 2.097 1_455 S
Co98 O111 2.042 1_454 S
C99 O107 1.253 . S
C99 O112 1.263 . S
H100 C96 0.931 . S
O101 Co86 2.262 1_556 S
O101 Co98 2.097 1_556 S
O101 C125 1.253 . S
O102 Co98 2.065 1_656 S
O102 C118 1.221 . S
O103 Co98 2.065 . S
O103 C113 1.221 . S
O104 Co98 2.042 . S
O104 C119 1.237 . S
O105 Co86 1.958 . S
O105 C119 1.278 . S
O106 Co92 1.950 1_556 S
O106 C118 1.277 . S
O107 Co92 2.262 . S
O107 Co98 2.097 1_655 S
O107 C99 1.253 . S
O108 Co92 1.958 . S
O108 C126 1.278 1_554 S
O109 Co86 1.950 . S
O109 C113 1.277 . S
O110 Co86 2.057 1_556 S
O110 C125 1.263 . S
O111 Co98 2.042 1_656 S
O111 C126 1.237 . S
O112 Co92 2.057 . S
O112 C99 1.263 . S
C113 O103 1.221 . S
C113 O109 1.277 . S
C114 C97 1.361 . S
C114 H115 0.960 . S
C114 H116 0.961 . S
C114 H117 0.961 1_556 S
H115 C114 0.960 . S
H116 C114 0.961 . S
H117 C114 0.961 1_554 S
C118 O102 1.221 . S
C118 O106 1.277 . S
C119 O104 1.237 . S
C119 O105 1.278 . S
H120 C88 0.931 . S
H121 C124 0.961 . S
H122 C124 0.961 . S
H123 C124 0.960 . S
C124 C90 1.361 1_556 S
C124 H121 0.961 . S
C124 H122 0.961 . S
C124 H123 0.960 . S
C125 O101 1.253 . S
C125 O110 1.263 . S
C126 O108 1.278 1_556 S
C126 O111 1.237 . S
H127 C91 0.930 . S
H128 C95 0.930 . S
C129 C130 1.391 1_655 S
C129 C131 1.399 . S
C129 H145 0.931 . S
C130 C129 1.391 1_455 S
C130 C134 1.376 . S
C131 C129 1.399 . S
C131 C132 1.358 1_655 S
C131 C135 1.536 . S
C132 C131 1.358 1_455 S
C132 C133 1.410 . S
C132 C140 1.503 . S
C133 C132 1.410 . S
C133 C134 1.392 . S
C133 C136 1.511 . S
C134 C130 1.376 . S
C134 C133 1.392 . S
C134 H146 0.929 . S
C135 C131 1.536 . S
C135 H147 0.960 . S
C135 H148 0.962 . S
C135 H149 0.960 . S
C136 C133 1.511 . S
C136 H150 0.961 . S
C136 H151 0.961 . S
C136 H152 0.961 . S
C137 C138 1.370 . S
C137 C139 1.363 . S
C137 H153 0.931 . S
C138 C137 1.370 . S
C138 C142 1.408 . S
C139 C137 1.363 . S
C139 C140 1.370 . S
C139 C143 1.524 . S
C140 C132 1.503 . S
C140 C139 1.370 . S
C140 C141 1.403 . S
C141 C140 1.403 . S
C141 C142 1.404 . S
C141 C144 1.539 . S
C142 C138 1.408 . S
C142 C141 1.404 . S
C142 H154 0.930 . S
C143 C139 1.524 . S
C143 H155 0.956 1_455 S
C143 H156 0.961 . S
C143 H157 0.961 1_455 S
C144 C141 1.539 . S
C144 H158 0.958 . S
C144 H159 0.961 . S
C144 H160 0.960 . S
H145 C129 0.931 . S
H146 C134 0.929 . S
H147 C135 0.960 . S
H148 C135 0.962 . S
H149 C135 0.960 . S
H150 C136 0.961 . S
H151 C136 0.961 . S
H152 C136 0.961 . S
H153 C137 0.931 . S
H154 C142 0.930 . S
H155 C143 0.956 1_655 S
H156 C143 0.961 . S
H157 C143 0.961 1_655 S
H158 C144 0.958 . S
H159 C144 0.961 . S
H160 C144 0.960 . S
C161 C162 1.391 . S
C161 C163 1.394 . S
C161 H177 0.931 . S
C162 C161 1.391 . S
C162 C166 1.376 1_565 S
C163 C161 1.394 . S
C163 C164 1.369 . S
C163 C167 1.531 . S
C164 C163 1.369 . S
C164 C165 1.410 1_565 S
C164 C172 1.503 . S
C165 C164 1.410 1_545 S
C165 C166 1.392 . S
C165 C168 1.511 . S
C166 C162 1.376 1_545 S
C166 C165 1.392 . S
C166 H178 0.929 . S
C167 C163 1.531 . S
C167 H179 0.960 . S
C167 H180 0.962 . S
C167 H181 0.960 . S
C168 C165 1.511 . S
C168 H182 0.961 . S
C168 H183 0.961 . S
C168 H184 0.961 . S
C169 C170 1.370 . S
C169 C171 1.363 . S
C169 H185 0.931 . S
C170 C169 1.370 . S
C170 C174 1.400 1_545 S
C171 C169 1.363 . S
C171 C172 1.370 1_545 S
C171 C175 1.524 . S
C172 C164 1.503 . S
C172 C171 1.370 1_565 S
C172 C173 1.403 . S
C173 C172 1.403 . S
C173 C174 1.404 . S
C173 C176 1.539 . S
C174 C170 1.400 1_565 S
C174 C173 1.404 . S
C174 H186 0.930 . S
C175 C171 1.524 . S
C175 H187 0.956 . S
C175 H188 0.961 . S
C175 H189 0.961 . S
C176 C173 1.539 . S
C176 H190 0.958 . S
C176 H191 0.961 . S
C176 H192 0.960 . S
H177 C161 0.931 . S
H178 C166 0.929 . S
H179 C167 0.960 . S
H180 C167 0.962 . S
H181 C167 0.960 . S
H182 C168 0.961 . S
H183 C168 0.961 . S
H184 C168 0.961 . S
H185 C169 0.931 . S
H186 C174 0.930 . S
H187 C175 0.956 . S
H188 C175 0.961 . S
H189 C175 0.961 . S
H190 C176 0.958 . S
H191 C176 0.961 . S
H192 C176 0.960 . S
C193 C194 1.391 1_455 S
C193 C195 1.394 . S
C193 H209 0.931 . S
C194 C193 1.391 1_655 S
C194 C198 1.376 . S
C195 C193 1.394 . S
C195 C196 1.369 1_455 S
C195 C199 1.531 . S
C196 C195 1.369 1_655 S
C196 C197 1.410 . S
C196 C204 1.502 1_655 S
C197 C196 1.410 . S
C197 C198 1.392 . S
C197 C200 1.511 . S
C198 C194 1.376 . S
C198 C197 1.392 . S
C198 H210 0.929 . S
C199 C195 1.531 . S
C199 H211 0.960 . S
C199 H212 0.962 . S
C199 H213 0.960 . S
C200 C197 1.511 . S
C200 H214 0.961 . S
C200 H215 0.961 . S
C200 H216 0.961 . S
C201 C202 1.370 . S
C201 C203 1.363 . S
C201 H217 0.931 . S
C202 C201 1.370 . S
C202 C206 1.408 1_455 S
C203 C201 1.363 . S
C203 C204 1.372 . S
C203 C207 1.524 . S
C204 C196 1.502 1_455 S
C204 C203 1.372 . S
C204 C205 1.402 1_455 S
C205 C204 1.402 1_655 S
C205 C206 1.404 . S
C205 C208 1.539 . S
C206 C202 1.408 1_655 S
C206 C205 1.404 . S
C206 H218 0.930 . S
C207 C203 1.524 . S
C207 H219 0.956 . S
C207 H220 0.961 . S
C207 H221 0.961 . S
C208 C205 1.539 . S
C208 H222 0.958 . S
C208 H223 0.961 . S
C208 H224 0.960 . S
H209 C193 0.931 . S
H210 C198 0.929 . S
H211 C199 0.960 . S
H212 C199 0.962 . S
H213 C199 0.960 . S
H214 C200 0.961 . S
H215 C200 0.961 . S
H216 C200 0.961 . S
H217 C201 0.931 . S
H218 C206 0.930 . S
H219 C207 0.956 . S
H220 C207 0.961 . S
H221 C207 0.961 . S
H222 C208 0.958 . S
H223 C208 0.961 . S
H224 C208 0.960 . S
C225 C226 1.391 . S
C225 C227 1.394 . S
C225 H241 0.931 . S
C226 C225 1.391 . S
C226 C230 1.376 1_545 S
C227 C225 1.394 . S
C227 C228 1.369 . S
C227 C231 1.531 . S
C228 C227 1.369 . S
C228 C229 1.410 1_545 S
C228 C236 1.503 . S
C229 C228 1.410 1_565 S
C229 C230 1.392 . S
C229 C232 1.511 . S
C230 C226 1.376 1_565 S
C230 C229 1.392 . S
C230 H242 0.929 . S
C231 C227 1.531 . S
C231 H243 0.960 . S
C231 H244 0.962 . S
C231 H245 0.960 . S
C232 C229 1.511 . S
C232 H246 0.961 . S
C232 H247 0.961 . S
C232 H248 0.961 . S
C233 C234 1.370 . S
C233 C235 1.363 . S
C233 H249 0.931 . S
C234 C233 1.370 . S
C234 C238 1.408 . S
C235 C233 1.363 . S
C235 C236 1.370 . S
C235 C239 1.524 . S
C236 C228 1.503 . S
C236 C235 1.370 . S
C236 C237 1.403 . S
C237 C236 1.403 . S
C237 C238 1.404 . S
C237 C240 1.539 . S
C238 C234 1.408 . S
C238 C237 1.404 . S
C238 H250 0.930 . S
C239 C235 1.524 . S
C239 H251 0.956 . S
C239 H252 0.961 . S
C239 H253 0.961 . S
C240 C237 1.539 . S
C240 H254 0.958 . S
C240 H255 0.961 . S
C240 H256 0.960 . S
H241 C225 0.931 . S
H242 C230 0.929 . S
H243 C231 0.960 . S
H244 C231 0.962 . S
H245 C231 0.960 . S
H246 C232 0.961 . S
H247 C232 0.961 . S
H248 C232 0.961 . S
H249 C233 0.931 . S
H250 C238 0.930 . S
H251 C239 0.956 . S
H252 C239 0.961 . S
H253 C239 0.961 . S
H254 C240 0.958 . S
H255 C240 0.961 . S
H256 C240 0.960 . S
C257 C258 1.391 . S
C257 C259 1.394 . S
C257 H273 0.931 . S
C258 C257 1.391 . S
C258 C262 1.376 . S
C259 C257 1.394 . S
C259 C260 1.369 . S
C259 C263 1.531 . S
C260 C259 1.369 . S
C260 C261 1.410 . S
C260 C268 1.503 . S
C261 C260 1.410 . S
C261 C262 1.392 . S
C261 C264 1.511 . S
C262 C258 1.376 . S
C262 C261 1.392 . S
C262 H274 0.929 . S
C263 C259 1.531 . S
C263 H275 0.960 . S
C263 H276 0.962 . S
C263 H277 0.960 . S
C264 C261 1.511 . S
C264 H278 0.961 . S
C264 H279 0.961 . S
C264 H280 0.961 . S
C265 C266 1.370 1_455 S
C265 C267 1.363 . S
C265 H281 0.931 . S
C266 C265 1.370 1_655 S
C266 C270 1.408 . S
C267 C265 1.363 . S
C267 C268 1.370 1_455 S
C267 C271 1.524 . S
C268 C260 1.503 . S
C268 C267 1.370 1_655 S
C268 C269 1.403 . S
C269 C268 1.403 . S
C269 C270 1.404 . S
C269 C272 1.539 . S
C270 C266 1.408 . S
C270 C269 1.404 . S
C270 H282 0.930 . S
C271 C267 1.524 . S
C271 H283 0.956 . S
C271 H284 0.961 . S
C271 H285 0.961 . S
C272 C269 1.539 . S
C272 H286 0.958 . S
C272 H287 0.961 . S
C272 H288 0.960 . S
H273 C257 0.931 . S
H274 C262 0.929 . S
H275 C263 0.960 . S
H276 C263 0.962 . S
H277 C263 0.960 . S
H278 C264 0.961 . S
H279 C264 0.961 . S
H280 C264 0.961 . S
H281 C265 0.931 . S
H282 C270 0.930 . S
H283 C271 0.956 . S
H284 C271 0.961 . S
H285 C271 0.961 . S
H286 C272 0.958 . S
H287 C272 0.961 . S
H288 C272 0.960 . S
C289 C290 1.391 . S
C289 C291 1.394 . S
C289 H305 0.931 . S
C290 C289 1.391 . S
C290 C294 1.376 1_545 S
C291 C289 1.394 . S
C291 C292 1.369 . S
C291 C295 1.531 . S
C292 C291 1.369 . S
C292 C293 1.410 1_545 S
C292 C300 1.503 . S
C293 C292 1.410 1_565 S
C293 C294 1.392 . S
C293 C296 1.511 . S
C294 C290 1.376 1_565 S
C294 C293 1.392 . S
C294 H306 0.929 . S
C295 C291 1.531 . S
C295 H307 0.960 . S
C295 H308 0.962 . S
C295 H309 0.960 . S
C296 C293 1.511 . S
C296 H310 0.961 . S
C296 H311 0.961 . S
C296 H312 0.961 . S
C297 C298 1.370 . S
C297 C299 1.363 . S
C297 H313 0.931 . S
C298 C297 1.370 . S
C298 C302 1.408 . S
C299 C297 1.363 . S
C299 C300 1.370 . S
C299 C303 1.524 . S
C300 C292 1.503 . S
C300 C299 1.370 . S
C300 C301 1.403 . S
C301 C300 1.403 . S
C301 C302 1.404 . S
C301 C304 1.539 . S
C302 C298 1.408 . S
C302 C301 1.404 . S
C302 H314 0.930 . S
C303 C299 1.524 . S
C303 H315 0.956 . S
C303 H316 0.961 1_545 S
C303 H317 0.961 1_545 S
C304 C301 1.539 . S
C304 H318 0.958 . S
C304 H319 0.961 . S
C304 H320 0.960 . S
H305 C289 0.931 . S
H306 C294 0.929 . S
H307 C295 0.960 . S
H308 C295 0.962 . S
H309 C295 0.960 . S
H310 C296 0.961 . S
H311 C296 0.961 . S
H312 C296 0.961 . S
H313 C297 0.931 . S
H314 C302 0.930 . S
H315 C303 0.956 . S
H316 C303 0.961 1_565 S
H317 C303 0.961 1_565 S
H318 C304 0.958 . S
H319 C304 0.961 . S
H320 C304 0.960 . S
C321 C322 1.391 1_655 S
C321 C323 1.394 . S
C321 H337 0.931 . S
C322 C321 1.391 1_455 S
C322 C326 1.376 . S
C323 C321 1.394 . S
C323 C324 1.369 1_655 S
C323 C327 1.531 . S
C324 C323 1.369 1_455 S
C324 C325 1.410 . S
C324 C332 1.503 . S
C325 C324 1.410 . S
C325 C326 1.392 . S
C325 C328 1.511 . S
C326 C322 1.376 . S
C326 C325 1.392 . S
C326 H338 0.929 . S
C327 C323 1.531 . S
C327 H339 0.960 . S
C327 H340 0.962 . S
C327 H341 0.960 . S
C328 C325 1.511 . S
C328 H342 0.961 . S
C328 H343 0.961 . S
C328 H344 0.961 . S
C329 C330 1.370 . S
C329 C331 1.363 . S
C329 H345 0.927 . S
C330 C329 1.370 . S
C330 C334 1.408 . S
C331 C329 1.363 . S
C331 C332 1.370 . S
C331 C335 1.524 1_455 S
C332 C324 1.503 . S
C332 C331 1.370 . S
C332 C333 1.403 . S
C333 C332 1.403 . S
C333 C334 1.404 . S
C333 C336 1.539 . S
C334 C330 1.408 . S
C334 C333 1.404 . S
C334 H346 0.930 . S
C335 C331 1.524 1_655 S
C335 H347 0.956 . S
C335 H348 0.961 1_655 S
C335 H349 0.961 . S
C336 C333 1.539 . S
C336 H350 0.958 1_455 S
C336 H351 0.961 . S
C336 H352 0.960 . S
H337 C321 0.931 . S
H338 C326 0.929 . S
H339 C327 0.960 . S
H340 C327 0.962 . S
H341 C327 0.960 . S
H342 C328 0.961 . S
H343 C328 0.961 . S
H344 C328 0.961 . S
H345 C329 0.927 . S
H346 C334 0.930 . S
H347 C335 0.956 . S
H348 C335 0.961 1_455 S
H349 C335 0.961 . S
H350 C336 0.958 1_655 S
H351 C336 0.961 . S
H352 C336 0.960 . S
C353 C354 1.391 . S
C353 C355 1.394 . S
C353 H369 0.931 . S
C354 C353 1.391 . S
C354 C358 1.376 1_565 S
C355 C353 1.394 . S
C355 C356 1.369 . S
C355 C359 1.531 . S
C356 C355 1.369 . S
C356 C357 1.410 1_565 S
C356 C364 1.503 . S
C357 C356 1.410 1_545 S
C357 C358 1.392 . S
C357 C360 1.511 . S
C358 C354 1.376 1_545 S
C358 C357 1.392 . S
C358 H370 0.929 . S
C359 C355 1.531 . S
C359 H371 0.960 . S
C359 H372 0.962 . S
C359 H373 0.960 . S
C360 C357 1.511 . S
C360 H374 0.961 . S
C360 H375 0.961 . S
C360 H376 0.961 . S
C361 C362 1.370 . S
C361 C363 1.363 . S
C361 H377 0.931 1_565 S
C362 C361 1.370 . S
C362 C366 1.408 . S
C363 C361 1.363 . S
C363 C364 1.370 . S
C363 C367 1.524 1_565 S
C364 C356 1.503 . S
C364 C363 1.370 . S
C364 C365 1.403 . S
C365 C364 1.403 . S
C365 C366 1.404 . S
C365 C368 1.539 . S
C366 C362 1.408 . S
C366 C365 1.404 . S
C366 H378 0.930 . S
C367 C363 1.524 1_545 S
C367 H379 0.956 1_545 S
C367 H380 0.961 . S
C367 H381 0.961 . S
C368 C365 1.539 . S
C368 H382 0.958 . S
C368 H383 0.961 . S
C368 H384 0.960 . S
H369 C353 0.931 . S
H370 C358 0.929 . S
H371 C359 0.960 . S
H372 C359 0.962 . S
H373 C359 0.960 . S
H374 C360 0.961 . S
H375 C360 0.961 . S
H376 C360 0.961 . S
H377 C361 0.931 1_545 S
H378 C366 0.930 . S
H379 C367 0.956 1_565 S
H380 C367 0.961 . S
H381 C367 0.961 . S
H382 C368 0.958 . S
H383 C368 0.961 . S
H384 C368 0.960 . S
C385 C386 1.391 . S
C385 C387 1.394 . S
C385 H401 0.931 . S
C386 C385 1.391 . S
C386 C390 1.376 1_554 S
C387 C385 1.394 . S
C387 C388 1.369 . S
C387 C391 1.531 . S
C388 C387 1.369 . S
C388 C389 1.410 1_554 S
C388 C396 1.503 . S
C389 C388 1.410 1_556 S
C389 C390 1.392 . S
C389 C392 1.511 . S
C390 C386 1.376 1_556 S
C390 C389 1.392 . S
C390 H402 0.929 . S
C391 C387 1.531 . S
C391 H403 0.960 . S
C391 H404 0.962 . S
C391 H405 0.960 . S
C392 C389 1.511 . S
C392 H406 0.961 . S
C392 H407 0.961 . S
C392 H408 0.961 . S
C393 C394 1.370 . S
C393 C395 1.363 . S
C393 H409 0.931 . S
C394 C393 1.370 . S
C394 C398 1.408 . S
C395 C393 1.363 . S
C395 C396 1.370 . S
C395 C399 1.524 . S
C396 C388 1.503 . S
C396 C395 1.370 . S
C396 C397 1.403 . S
C397 C396 1.403 . S
C397 C398 1.404 . S
C397 C400 1.539 . S
C398 C394 1.408 . S
C398 C397 1.404 . S
C398 H410 0.930 . S
C399 C395 1.524 . S
C399 H411 0.956 . S
C399 H412 0.961 1_554 S
C399 H413 0.961 . S
C400 C397 1.539 . S
C400 H414 0.958 . S
C400 H415 0.961 . S
C400 H416 0.960 . S
H401 C385 0.931 . S
H402 C390 0.929 . S
H403 C391 0.960 . S
H404 C391 0.962 . S
H405 C391 0.960 . S
H406 C392 0.961 . S
H407 C392 0.961 . S
H408 C392 0.961 . S
H409 C393 0.931 . S
H410 C398 0.930 . S
H411 C399 0.956 . S
H412 C399 0.961 1_556 S
H413 C399 0.961 . S
H414 C400 0.958 . S
H415 C400 0.961 . S
H416 C400 0.960 . S
C417 C418 1.391 . S
C417 C419 1.394 . S
C417 H433 0.931 . S
C418 C417 1.391 . S
C418 C422 1.376 . S
C419 C417 1.394 . S
C419 C420 1.369 . S
C419 C423 1.531 . S
C420 C419 1.369 . S
C420 C421 1.410 . S
C420 C428 1.503 . S
C421 C420 1.410 . S
C421 C422 1.392 . S
C421 C424 1.511 . S
C422 C418 1.376 . S
C422 C421 1.392 . S
C422 H434 0.929 . S
C423 C419 1.531 . S
C423 H435 0.960 . S
C423 H436 0.962 . S
C423 H437 0.960 . S
C424 C421 1.511 . S
C424 H438 0.961 1_554 S
C424 H439 0.961 1_554 S
C424 H440 0.961 . S
C425 C426 1.370 1_556 S
C425 C427 1.363 . S
C425 H441 0.931 . S
C426 C425 1.370 1_554 S
C426 C430 1.408 . S
C427 C425 1.363 . S
C427 C428 1.370 1_556 S
C427 C431 1.524 . S
C428 C420 1.503 . S
C428 C427 1.370 1_554 S
C428 C429 1.403 . S
C429 C428 1.403 . S
C429 C430 1.404 . S
C429 C432 1.539 . S
C430 C426 1.408 . S
C430 C429 1.404 . S
C430 H442 0.930 . S
C431 C427 1.524 . S
C431 H443 0.956 . S
C431 H444 0.961 . S
C431 H445 0.961 . S
C432 C429 1.539 . S
C432 H446 0.958 . S
C432 H447 0.961 . S
C432 H448 0.960 . S
H433 C417 0.931 . S
H434 C422 0.929 . S
H435 C423 0.960 . S
H436 C423 0.962 . S
H437 C423 0.960 . S
H438 C424 0.961 1_556 S
H439 C424 0.961 1_556 S
H440 C424 0.961 . S
H441 C425 0.931 . S
H442 C430 0.930 . S
H443 C431 0.956 . S
H444 C431 0.961 . S
H445 C431 0.961 . S
H446 C432 0.958 . S
H447 C432 0.961 . S
H448 C432 0.960 . S
C449 C450 1.391 1_556 S
C449 C451 1.394 . S
C449 H465 0.931 . S
C450 C449 1.391 1_554 S
C450 C454 1.376 . S
C451 C449 1.394 . S
C451 C452 1.369 1_556 S
C451 C455 1.531 . S
C452 C451 1.369 1_554 S
C452 C453 1.410 . S
C452 C460 1.503 . S
C453 C452 1.410 . S
C453 C454 1.392 . S
C453 C456 1.511 . S
C454 C450 1.376 . S
C454 C453 1.392 . S
C454 H466 0.929 . S
C455 C451 1.531 . S
C455 H467 0.960 . S
C455 H468 0.962 . S
C455 H469 0.960 . S
C456 C453 1.511 . S
C456 H470 0.961 . S
C456 H471 0.961 . S
C456 H472 0.961 . S
C457 C458 1.370 . S
C457 C459 1.363 . S
C457 H473 0.931 . S
C458 C457 1.370 . S
C458 C462 1.408 1_556 S
C459 C457 1.363 . S
C459 C460 1.370 1_556 S
C459 C463 1.524 . S
C460 C452 1.503 . S
C460 C459 1.370 1_554 S
C460 C461 1.403 . S
C461 C460 1.403 . S
C461 C462 1.404 . S
C461 C464 1.539 . S
C462 C458 1.408 1_554 S
C462 C461 1.404 . S
C462 H474 0.930 . S
C463 C459 1.524 . S
C463 H475 0.956 . S
C463 H476 0.961 . S
C463 H477 0.961 . S
C464 C461 1.539 . S
C464 H478 0.958 . S
C464 H479 0.961 . S
C464 H480 0.960 . S
H465 C449 0.931 . S
H466 C454 0.929 . S
H467 C455 0.960 . S
H468 C455 0.962 . S
H469 C455 0.960 . S
H470 C456 0.961 . S
H471 C456 0.961 . S
H472 C456 0.961 . S
H473 C457 0.931 . S
H474 C462 0.930 . S
H475 C463 0.956 . S
H476 C463 0.961 . S
H477 C463 0.961 . S
H478 C464 0.958 . S
H479 C464 0.961 . S
H480 C464 0.960 . S
C481 C482 1.391 1_554 S
C481 C483 1.394 . S
C481 H497 0.931 . S
C482 C481 1.391 1_556 S
C482 C486 1.376 . S
C483 C481 1.394 . S
C483 C484 1.369 1_554 S
C483 C487 1.531 . S
C484 C483 1.369 1_556 S
C484 C485 1.410 . S
C484 C492 1.503 . S
C485 C484 1.410 . S
C485 C486 1.392 . S
C485 C488 1.511 . S
C486 C482 1.376 . S
C486 C485 1.392 . S
C486 H498 0.929 . S
C487 C483 1.531 . S
C487 H499 0.960 . S
C487 H500 0.962 . S
C487 H501 0.960 . S
C488 C485 1.511 . S
C488 H502 0.961 . S
C488 H503 0.961 . S
C488 H504 0.961 . S
C489 C490 1.370 . S
C489 C491 1.363 . S
C489 H505 0.931 . S
C490 C489 1.370 . S
C490 C494 1.408 1_554 S
C491 C489 1.363 . S
C491 C492 1.370 1_554 S
C491 C495 1.524 . S
C492 C484 1.503 . S
C492 C491 1.370 1_556 S
C492 C493 1.403 . S
C493 C492 1.403 . S
C493 C494 1.404 . S
C493 C496 1.539 . S
C494 C490 1.408 1_556 S
C494 C493 1.404 . S
C494 H506 0.930 . S
C495 C491 1.524 . S
C495 H507 0.956 . S
C495 H508 0.961 . S
C495 H509 0.961 . S
C496 C493 1.539 . S
C496 H510 0.958 . S
C496 H511 0.961 . S
C496 H512 0.960 . S
H497 C481 0.931 . S
H498 C486 0.929 . S
H499 C487 0.960 . S
H500 C487 0.962 . S
H501 C487 0.960 . S
H502 C488 0.961 . S
H503 C488 0.961 . S
H504 C488 0.961 . S
H505 C489 0.931 . S
H506 C494 0.930 . S
H507 C495 0.956 . S
H508 C495 0.961 . S
H509 C495 0.961 . S
H510 C496 0.958 . S
H511 C496 0.961 . S
H512 C496 0.960 . S
C130 C119 1.738 . S
C138 C27 1.863 . S
C162 C32 1.424 . S
C170 C75 1.377 1_545 S
C194 C39 1.842 1_655 S
C202 C99 1.765 1_455 S
C226 C82 1.053 . S
C234 N3 1.306 . S
C258 C40 1.845 . S
C266 C118 1.784 . S
C290 C76 1.179 . S
C298 C33 1.188 . S
C322 C125 1.853 . S
C330 C13 1.892 1_455 S
C354 C56 1.106 . S
C362 N8 1.236 . S
C386 N89 0.668 . S
C394 N46 0.671 . S
C418 C113 0.640 . S
C426 C83 0.615 . S
C450 C70 0.637 . S
C458 C126 0.609 . S
C482 N94 0.608 . S
C490 N51 0.598 . S
