# Generated by pormake.
# Topology unj, (4)-cn, num edge types: 1
# Building blocks:
#     Node 0, Type 0, BuildingBlock: UXUYUI_clean_sbu_0, # of connection points: 4
#     Node 1, Type 0, BuildingBlock: UXUYUI_clean_sbu_0, # of connection points: 4
#     Node 2, Type 0, BuildingBlock: UXUYUI_clean_sbu_0, # of connection points: 4
#     Node 3, Type 0, BuildingBlock: UXUYUI_clean_sbu_0, # of connection points: 4
#     Node 4, Type 0, BuildingBlock: UXUYUI_clean_sbu_0, # of connection points: 4
#     Node 5, Type 0, BuildingBlock: UXUYUI_clean_sbu_0, # of connection points: 4
#     Edge 6, Type (0, 0), BuildingBlock: XIVTED_clean_linker_0, # of connection points: 2
#     Edge 7, Type (0, 0), BuildingBlock: XIVTED_clean_linker_0, # of connection points: 2
#     Edge 8, Type (0, 0), BuildingBlock: XIVTED_clean_linker_0, # of connection points: 2
#     Edge 9, Type (0, 0), BuildingBlock: XIVTED_clean_linker_0, # of connection points: 2
#     Edge 10, Type (0, 0), BuildingBlock: XIVTED_clean_linker_0, # of connection points: 2
#     Edge 11, Type (0, 0), BuildingBlock: XIVTED_clean_linker_0, # of connection points: 2
#     Edge 12, Type (0, 0), BuildingBlock: XIVTED_clean_linker_0, # of connection points: 2
#     Edge 13, Type (0, 0), BuildingBlock: XIVTED_clean_linker_0, # of connection points: 2
#     Edge 14, Type (0, 0), BuildingBlock: XIVTED_clean_linker_0, # of connection points: 2
#     Edge 15, Type (0, 0), BuildingBlock: XIVTED_clean_linker_0, # of connection points: 2
#     Edge 16, Type (0, 0), BuildingBlock: XIVTED_clean_linker_0, # of connection points: 2
#     Edge 17, Type (0, 0), BuildingBlock: XIVTED_clean_linker_0, # of connection points: 2
# Relax obj value: 0.030
# Max RMSD: 0.052
# Mean RMSD: 0.052
data_MOF--net-unj--node1-UXUYUI_clean_sbu_0--edge1-XIVTED_clean_linker_0
_symmetry_space_group_name_H-M    P1
_symmetry_Int_Tables_number       1
_symmetry_cell_setting            triclinic
loop_
_symmetry_equiv_pos_as_xyz
'x, y, z'
_cell_length_a     51.346496
_cell_length_b     51.35038
_cell_length_c     49.58839
_cell_angle_alpha  90.034659
_cell_angle_beta   89.976833
_cell_angle_gamma 120.00004
loop_
_atom_site_label
_atom_site_type_symbol
_atom_site_fract_x
_atom_site_fract_y
_atom_site_fract_z
_atom_type_partial_charge
Li0 Li 0.45476 0.20638 0.57632 0.0
Li1 Li 0.49477 0.23793 0.60858 0.0
Li2 Li 0.45468 0.25073 0.59612 0.0
Li3 Li 0.49546 0.25937 0.56453 0.0
C4 C 0.42636 0.19263 0.62819 0.0
N5 N 0.37711 0.14817 0.65522 0.0
C6 C 0.43017 0.1752 0.64772 0.0
C7 C 0.39758 0.18776 0.62268 0.0
C8 C 0.40496 0.15273 0.66108 0.0
C9 C 0.37294 0.1651 0.63649 0.0
C10 C 0.5198 0.21448 0.57486 0.0
C11 C 0.57137 0.22647 0.57946 0.0
N12 N 0.56211 0.19661 0.58033 0.0
C13 C 0.51079 0.18391 0.57555 0.0
C14 C 0.55033 0.23596 0.57659 0.0
C15 C 0.53252 0.17533 0.57842 0.0
C16 C 0.4251 0.1635 0.53548 0.0
N17 N 0.43074 0.16664 0.56242 0.0
C18 C 0.40429 0.11325 0.56819 0.0
C19 C 0.42089 0.14226 0.57878 0.0
C20 C 0.39823 0.1093 0.54042 0.0
C21 C 0.40883 0.1349 0.52398 0.0
H22 H 0.43357 0.18327 0.52286 0.0
H23 H 0.42648 0.14523 0.59994 0.0
C24 C 0.53495 0.26204 0.65255 0.0
N25 N 0.5189 0.23694 0.63735 0.0
C26 C 0.55309 0.26216 0.67359 0.0
C27 C 0.53778 0.21053 0.663 0.0
C28 C 0.51958 0.21129 0.64247 0.0
C29 C 0.55495 0.23622 0.67897 0.0
H30 H 0.53352 0.28196 0.64846 0.0
H31 H 0.50601 0.19139 0.63056 0.0
C32 C 0.42837 0.23757 0.54299 0.0
N33 N 0.38147 0.23486 0.51346 0.0
C34 C 0.43392 0.25961 0.52371 0.0
C35 C 0.39904 0.21394 0.54698 0.0
C36 C 0.40988 0.25791 0.50907 0.0
C37 C 0.37562 0.21302 0.53191 0.0
C38 C 0.51958 0.30752 0.59898 0.0
C39 C 0.51041 0.32896 0.59881 0.0
C40 C 0.55017 0.31678 0.59736 0.0
C41 C 0.53205 0.35939 0.5966 0.0
C42 C 0.57111 0.34741 0.59514 0.0
N43 N 0.56169 0.3679 0.59479 0.0
C44 C 0.42436 0.26417 0.63629 0.0
C45 C 0.42102 0.28108 0.5927 0.0
C46 C 0.40793 0.27661 0.64727 0.0
N47 N 0.43051 0.26656 0.60945 0.0
C48 C 0.40432 0.29361 0.60274 0.0
C49 C 0.39771 0.29171 0.63045 0.0
H50 H 0.43263 0.25296 0.64925 0.0
H51 H 0.42682 0.28344 0.57159 0.0
C52 C 0.53537 0.27459 0.52048 0.0
N53 N 0.52036 0.28457 0.5361 0.0
C54 C 0.554 0.29248 0.49961 0.0
C55 C 0.54144 0.3306 0.51128 0.0
C56 C 0.52261 0.31174 0.53158 0.0
C57 C 0.5574 0.32099 0.49502 0.0
H58 H 0.53282 0.2527 0.52421 0.0
H59 H 0.5097 0.31875 0.54365 0.0
O60 O 0.45082 0.21469 0.61495 0.0
O61 O 0.49883 0.22329 0.5722 0.0
O62 O 0.45168 0.23893 0.55746 0.0
O63 O 0.4987 0.27763 0.601 0.0
H64 H 0.45235 0.17885 0.65236 0.0
H65 H 0.3943 0.20149 0.60809 0.0
H66 H 0.40755 0.13893 0.67611 0.0
H67 H 0.35052 0.16104 0.63239 0.0
H68 H 0.59507 0.24285 0.58096 0.0
H69 H 0.48725 0.167 0.57407 0.0
H70 H 0.55768 0.25968 0.57572 0.0
H71 H 0.52587 0.15175 0.57914 0.0
H72 H 0.39702 0.09412 0.58148 0.0
H73 H 0.40455 0.13283 0.50248 0.0
H74 H 0.5652 0.28229 0.68567 0.0
H75 H 0.53857 0.19007 0.66604 0.0
H76 H 0.45654 0.27793 0.52024 0.0
H77 H 0.39444 0.19633 0.56134 0.0
H78 H 0.41382 0.27491 0.49421 0.0
H79 H 0.35279 0.19488 0.53483 0.0
H80 H 0.48683 0.32218 0.60021 0.0
H81 H 0.55765 0.3005 0.59779 0.0
H82 H 0.52527 0.37624 0.5963 0.0
H83 H 0.59485 0.3549 0.59373 0.0
H84 H 0.40395 0.27501 0.6688 0.0
H85 H 0.39671 0.30468 0.58887 0.0
H86 H 0.56596 0.28432 0.48744 0.0
H87 H 0.54312 0.35225 0.50804 0.0
Li88 Li 0.26008 0.4921 0.77521 0.0
Li89 Li 0.25118 0.45183 0.743 0.0
Li90 Li 0.23929 0.49272 0.73082 0.0
Li91 Li 0.20703 0.45222 0.76241 0.0
C92 C 0.30844 0.51708 0.73994 0.0
N93 N 0.36877 0.55994 0.74209 0.0
C94 C 0.33021 0.50833 0.74006 0.0
C95 C 0.31735 0.54762 0.7405 0.0
C96 C 0.3606 0.53034 0.74126 0.0
C97 C 0.34796 0.56895 0.74171 0.0
C98 C 0.23962 0.42499 0.79459 0.0
C99 C 0.2185 0.37205 0.80346 0.0
N100 N 0.24139 0.37849 0.8209 0.0
C101 C 0.26274 0.43114 0.81284 0.0
C102 C 0.21714 0.39525 0.79005 0.0
C103 C 0.26332 0.4073 0.82585 0.0
C104 C 0.27446 0.53002 0.82064 0.0
N105 N 0.28509 0.51642 0.804 0.0
C106 C 0.33148 0.53814 0.82832 0.0
C107 C 0.31279 0.51969 0.80775 0.0
C108 C 0.32134 0.55289 0.84569 0.0
C109 C 0.29223 0.54836 0.84172 0.0
H110 H 0.25208 0.52652 0.81762 0.0
H111 H 0.32042 0.50795 0.7948 0.0
C112 C 0.26137 0.41907 0.70292 0.0
N113 N 0.26673 0.42757 0.72924 0.0
C114 C 0.27364 0.40277 0.69137 0.0
C115 C 0.29658 0.40405 0.73426 0.0
C116 C 0.2841 0.42056 0.7449 0.0
C117 C 0.29159 0.39513 0.70709 0.0
H118 H 0.24791 0.42538 0.69077 0.0
H119 H 0.28902 0.42849 0.76543 0.0
C120 C 0.2175 0.51872 0.76622 0.0
N121 N 0.2034 0.56402 0.76417 0.0
C122 C 0.18745 0.51166 0.76582 0.0
C123 C 0.24037 0.54881 0.76599 0.0
C124 C 0.18078 0.53489 0.76468 0.0
C125 C 0.23278 0.57139 0.76483 0.0
C126 C 0.19196 0.42555 0.71092 0.0
C127 C 0.17488 0.43131 0.69247 0.0
C128 C 0.18492 0.39594 0.7158 0.0
C129 C 0.15057 0.40721 0.67961 0.0
C130 C 0.16045 0.37246 0.70252 0.0
N131 N 0.1439 0.37853 0.68487 0.0
C132 C 0.26375 0.53204 0.68631 0.0
C133 C 0.21446 0.52041 0.69834 0.0
C134 C 0.26443 0.55065 0.66546 0.0
N135 N 0.23913 0.51764 0.7024 0.0
C136 C 0.21429 0.53909 0.67798 0.0
C137 C 0.23954 0.55462 0.66115 0.0
H138 H 0.28282 0.5289 0.68954 0.0
H139 H 0.19483 0.50808 0.7109 0.0
C140 C 0.16217 0.41746 0.80083 0.0
N141 N 0.1668 0.42847 0.77528 0.0
C142 C 0.13302 0.40127 0.81127 0.0
C143 C 0.11395 0.40793 0.76887 0.0
C144 C 0.14344 0.42419 0.75936 0.0
C145 C 0.10835 0.39637 0.79526 0.0
H146 H 0.18118 0.42176 0.81331 0.0
H147 H 0.14771 0.43393 0.73945 0.0
O148 O 0.27859 0.49581 0.73888 0.0
O149 O 0.23876 0.44807 0.78168 0.0
O150 O 0.22444 0.49626 0.76717 0.0
O151 O 0.21579 0.44889 0.72373 0.0
H152 H 0.32372 0.4848 0.73942 0.0
H153 H 0.30084 0.55479 0.7399 0.0
H154 H 0.37769 0.5239 0.74155 0.0
H155 H 0.35517 0.59267 0.74227 0.0
H156 H 0.2013 0.34891 0.80007 0.0
H157 H 0.28018 0.45405 0.81675 0.0
H158 H 0.19872 0.39016 0.7765 0.0
H159 H 0.28119 0.41171 0.83987 0.0
H160 H 0.35376 0.54102 0.83029 0.0
H161 H 0.28303 0.55855 0.8549 0.0
H162 H 0.26916 0.39625 0.67037 0.0
H163 H 0.31078 0.39915 0.74692 0.0
H164 H 0.16947 0.48849 0.76621 0.0
H165 H 0.2637 0.55466 0.7668 0.0
H166 H 0.15763 0.52975 0.76418 0.0
H167 H 0.25026 0.59478 0.76453 0.0
H168 H 0.18022 0.45413 0.68831 0.0
H169 H 0.19833 0.39116 0.72952 0.0
H170 H 0.13701 0.41131 0.66543 0.0
H171 H 0.15468 0.34942 0.70616 0.0
H172 H 0.28412 0.56147 0.65267 0.0
H173 H 0.19465 0.54153 0.67573 0.0
H174 H 0.12999 0.39338 0.8319 0.0
H175 H 0.09576 0.40457 0.75563 0.0
Li176 Li 0.80295 0.24979 0.9104 0.0
Li177 Li 0.77118 0.25862 0.94248 0.0
Li178 Li 0.75867 0.20559 0.93048 0.0
Li179 Li 0.74997 0.23723 0.8982 0.0
C180 C 0.81608 0.23593 0.9635 0.0
N181 N 0.8594 0.23151 0.99286 0.0
C182 C 0.83277 0.25748 0.98308 0.0
C183 C 0.82114 0.21195 0.95905 0.0
C184 C 0.85466 0.2549 0.99765 0.0
C185 C 0.84321 0.21016 0.97405 0.0
C186 C 0.79426 0.3065 0.90664 0.0
C187 C 0.78153 0.34575 0.90783 0.0
N188 N 0.8113 0.36672 0.90781 0.0
C189 C 0.82473 0.32841 0.9064 0.0
C190 C 0.77246 0.31518 0.90714 0.0
C191 C 0.83289 0.35876 0.90708 0.0
C192 C 0.84554 0.26508 0.8692 0.0
N193 N 0.84263 0.26555 0.89642 0.0
C194 C 0.89602 0.29047 0.90196 0.0
C195 C 0.86713 0.27804 0.91284 0.0
C196 C 0.89974 0.2905 0.8739 0.0
C197 C 0.87403 0.27754 0.85744 0.0
H198 H 0.82568 0.25528 0.85661 0.0
H199 H 0.8644 0.27896 0.93431 0.0
C200 C 0.74747 0.27275 0.98784 0.0
N201 N 0.77161 0.28371 0.97105 0.0
C202 C 0.74672 0.2904 0.00894 0.0
C203 C 0.79571 0.33031 0.99512 0.0
C204 C 0.79574 0.31169 0.97459 0.0
C205 C 0.77095 0.31968 0.01258 0.0
H206 H 0.72879 0.25023 0.98488 0.0
H207 H 0.8151 0.31952 0.9616 0.0
C208 C 0.77295 0.19233 0.87762 0.0
N209 N 0.77797 0.14909 0.84867 0.0
C210 C 0.75169 0.17554 0.85788 0.0
C211 C 0.79696 0.18742 0.88243 0.0
C212 C 0.75455 0.15369 0.84352 0.0
C213 C 0.79906 0.16538 0.86763 0.0
C214 C 0.70197 0.2144 0.93389 0.0
C215 C 0.67996 0.18397 0.93418 0.0
C216 C 0.69342 0.2363 0.93319 0.0
C217 C 0.64965 0.17594 0.93334 0.0
C218 C 0.66288 0.22735 0.93236 0.0
N219 N 0.64181 0.19761 0.93243 0.0
C220 C 0.74379 0.16283 0.97156 0.0
C221 C 0.72965 0.14147 0.92792 0.0
C222 C 0.73123 0.13427 0.98316 0.0
N223 N 0.7428 0.16589 0.94441 0.0
C224 C 0.71709 0.11251 0.93862 0.0
C225 C 0.71761 0.10863 0.96661 0.0
H226 H 0.75408 0.18263 0.98423 0.0
H227 H 0.7283 0.14436 0.90652 0.0
C228 C 0.73579 0.26066 0.85271 0.0
N229 N 0.72496 0.23659 0.86951 0.0
C230 C 0.71813 0.26122 0.83154 0.0
C231 C 0.6785 0.2121 0.84529 0.0
C232 C 0.69714 0.21231 0.86589 0.0
C233 C 0.68886 0.23682 0.8277 0.0
H234 H 0.75827 0.2794 0.85563 0.0
H235 H 0.68935 0.19305 0.879 0.0
O236 O 0.79455 0.23813 0.94914 0.0
O237 O 0.78588 0.27671 0.90599 0.0
O238 O 0.77047 0.21384 0.89178 0.0
O239 O 0.73173 0.22266 0.93467 0.0
H240 H 0.82896 0.27607 0.98686 0.0
H241 H 0.80801 0.19478 0.94436 0.0
H242 H 0.86787 0.27149 0.01278 0.0
H243 H 0.84741 0.19174 0.9708 0.0
H244 H 0.7649 0.35281 0.90833 0.0
H245 H 0.84187 0.32203 0.90586 0.0
H246 H 0.7488 0.2985 0.90695 0.0
H247 H 0.85638 0.37597 0.90705 0.0
H248 H 0.91527 0.30071 0.91533 0.0
H249 H 0.87591 0.27698 0.83572 0.0
H250 H 0.72723 0.28143 0.02202 0.0
H251 H 0.81504 0.35258 0.9976 0.0
H252 H 0.73307 0.17925 0.85382 0.0
H253 H 0.81393 0.20063 0.89725 0.0
H254 H 0.73818 0.1404 0.82828 0.0
H255 H 0.8175 0.16129 0.87116 0.0
H256 H 0.68624 0.16676 0.93486 0.0
H257 H 0.71018 0.25993 0.93334 0.0
H258 H 0.63236 0.15247 0.93341 0.0
H259 H 0.65593 0.24405 0.93172 0.0
H260 H 0.73223 0.13226 0.00482 0.0
H261 H 0.70633 0.09334 0.9252 0.0
H262 H 0.72754 0.28047 0.8182 0.0
H263 H 0.6561 0.19286 0.84346 0.0
Li264 Li 0.5558 0.80103 0.0773 0.0
Li265 Li 0.51543 0.76863 0.10898 0.0
Li266 Li 0.55657 0.75704 0.09686 0.0
Li267 Li 0.51614 0.74786 0.06465 0.0
C268 C 0.58286 0.81555 0.12915 0.0
N269 N 0.63046 0.86217 0.15602 0.0
C270 C 0.57764 0.83285 0.1478 0.0
C271 C 0.61221 0.82163 0.12448 0.0
C272 C 0.60202 0.85643 0.16108 0.0
C273 C 0.636 0.84538 0.13819 0.0
C274 C 0.48918 0.79014 0.07365 0.0
C275 C 0.43648 0.77462 0.07581 0.0
N276 N 0.44369 0.80396 0.07589 0.0
C277 C 0.49609 0.82014 0.07348 0.0
C278 C 0.45916 0.76717 0.07458 0.0
C279 C 0.47276 0.82667 0.07472 0.0
C280 C 0.5893 0.84582 0.03845 0.0
N281 N 0.57931 0.84123 0.06435 0.0
C282 C 0.60063 0.89414 0.07113 0.0
C283 C 0.58445 0.86463 0.08062 0.0
C284 C 0.61123 0.89969 0.04441 0.0
C285 C 0.6054 0.87497 0.02802 0.0
H286 H 0.5843 0.82678 0.02571 0.0
H287 H 0.57549 0.86041 0.10084 0.0
C288 C 0.47652 0.74421 0.15376 0.0
N289 N 0.49046 0.76868 0.13742 0.0
C290 C 0.45783 0.74343 0.17462 0.0
C291 C 0.46823 0.79305 0.16147 0.0
C292 C 0.48715 0.7931 0.14122 0.0
C293 C 0.45329 0.76796 0.17845 0.0
H294 H 0.47994 0.7253 0.15061 0.0
H295 H 0.49928 0.81269 0.12859 0.0
C296 C 0.58361 0.76997 0.04457 0.0
N297 N 0.63088 0.77125 0.01679 0.0
C298 C 0.57815 0.74777 0.02548 0.0
C299 C 0.61305 0.79305 0.04927 0.0
C300 C 0.60237 0.74874 0.01172 0.0
C301 C 0.63666 0.79324 0.03509 0.0
C302 C 0.492 0.69944 0.09975 0.0
C303 C 0.50163 0.67835 0.0993 0.0
C304 C 0.46126 0.68967 0.09932 0.0
C305 C 0.48026 0.64776 0.09793 0.0
C306 C 0.4406 0.65889 0.09794 0.0
N307 N 0.45045 0.63875 0.09725 0.0
C308 C 0.58667 0.74444 0.13764 0.0
C309 C 0.59084 0.72709 0.09445 0.0
C310 C 0.60295 0.73218 0.14925 0.0
N311 N 0.58096 0.74171 0.11071 0.0
C312 C 0.6075 0.71481 0.10514 0.0
C313 C 0.61354 0.71708 0.13292 0.0
H314 H 0.5782 0.75581 0.15018 0.0
H315 H 0.58517 0.72422 0.07332 0.0
C316 C 0.47769 0.7328 0.01954 0.0
N317 N 0.49197 0.72269 0.03589 0.0
C318 C 0.45955 0.7149 0.99844 0.0
C319 C 0.47131 0.67656 0.01124 0.0
C320 C 0.48955 0.69539 0.03184 0.0
C321 C 0.4559 0.68617 0.99414 0.0
H322 H 0.48054 0.7549 0.02278 0.0
H323 H 0.50182 0.68819 0.04457 0.0
O324 O 0.55923 0.7924 0.11598 0.0
O325 O 0.51174 0.78335 0.07262 0.0
O326 O 0.56014 0.7693 0.05821 0.0
O327 O 0.5126 0.72947 0.10102 0.0
H328 H 0.555 0.82824 0.15179 0.0
H329 H 0.61657 0.80802 0.11061 0.0
H330 H 0.59835 0.87015 0.17542 0.0
H331 H 0.65885 0.8504 0.13472 0.0
H332 H 0.41314 0.75706 0.07666 0.0
H333 H 0.51921 0.83819 0.07258 0.0
H334 H 0.45344 0.74386 0.07429 0.0
H335 H 0.47777 0.84979 0.07478 0.0
H336 H 0.60473 0.91236 0.08465 0.0
H337 H 0.61252 0.87798 0.00715 0.0
H338 H 0.4467 0.7237 0.18736 0.0
H339 H 0.46567 0.81259 0.16413 0.0
H340 H 0.55546 0.72987 0.02147 0.0
H341 H 0.61761 0.81075 0.06352 0.0
H342 H 0.5985 0.73161 0.99701 0.0
H343 H 0.65957 0.81093 0.03857 0.0
H344 H 0.52533 0.68552 0.0998 0.0
H345 H 0.45343 0.70567 0.10013 0.0
H346 H 0.48739 0.63118 0.0974 0.0
H347 H 0.41673 0.65102 0.09748 0.0
H348 H 0.6072 0.73447 0.17076 0.0
H349 H 0.61477 0.70285 0.09195 0.0
H350 H 0.44883 0.72371 0.98546 0.0
H351 H 0.46912 0.65458 0.00902 0.0
Li352 Li 0.75864 0.55462 0.2435 0.0
Li353 Li 0.75021 0.51423 0.27568 0.0
Li354 Li 0.80304 0.55513 0.26313 0.0
Li355 Li 0.77164 0.51454 0.23083 0.0
C356 C 0.77043 0.58179 0.29481 0.0
N357 N 0.77 0.62941 0.32029 0.0
C358 C 0.74788 0.57647 0.31346 0.0
C359 C 0.79297 0.61126 0.28938 0.0
C360 C 0.74799 0.60087 0.32605 0.0
C361 C 0.79231 0.63505 0.3024 0.0
C362 C 0.70351 0.48682 0.23667 0.0
C363 C 0.66918 0.43349 0.23305 0.0
N364 N 0.6458 0.43879 0.23127 0.0
C365 C 0.67919 0.49179 0.23456 0.0
C366 C 0.69854 0.45749 0.23571 0.0
C367 C 0.65016 0.46718 0.23194 0.0
C368 C 0.74846 0.58927 0.20502 0.0
N369 N 0.74195 0.57807 0.2305 0.0
C370 C 0.70938 0.5983 0.23694 0.0
C371 C 0.72262 0.58201 0.24636 0.0
C372 C 0.71551 0.61012 0.21063 0.0
C373 C 0.73543 0.6054 0.19462 0.0
H374 H 0.76337 0.5852 0.19258 0.0
H375 H 0.71708 0.57213 0.26623 0.0
C376 C 0.73772 0.48042 0.32363 0.0
N377 N 0.72528 0.48951 0.30424 0.0
C378 C 0.72006 0.46204 0.34475 0.0
C379 C 0.67718 0.46283 0.3256 0.0
C380 C 0.69576 0.48158 0.30514 0.0
C381 C 0.68931 0.45279 0.3457 0.0
H382 H 0.76137 0.48742 0.32266 0.0
H383 H 0.68661 0.48992 0.29007 0.0
C384 C 0.81831 0.58068 0.21062 0.0
N385 N 0.8665 0.62525 0.18261 0.0
C386 C 0.83428 0.57314 0.19241 0.0
C387 C 0.82655 0.61081 0.21432 0.0
C388 C 0.85866 0.59602 0.17852 0.0
C389 C 0.85106 0.63303 0.20004 0.0
C390 C 0.7938 0.48926 0.26979 0.0
C391 C 0.82403 0.49697 0.2708 0.0
C392 C 0.77133 0.45912 0.27188 0.0
C393 C 0.83127 0.47424 0.27342 0.0
C394 C 0.77949 0.43706 0.27449 0.0
N395 N 0.80904 0.445 0.27516 0.0
C396 C 0.84604 0.58714 0.30335 0.0
C397 C 0.86722 0.58682 0.26097 0.0
C398 C 0.87466 0.60345 0.31482 0.0
N399 N 0.84286 0.57923 0.27687 0.0
C400 C 0.89624 0.60348 0.2715 0.0
C401 C 0.90021 0.61182 0.2988 0.0
H402 H 0.82629 0.58039 0.31566 0.0
H403 H 0.8642 0.57937 0.24029 0.0
C404 C 0.75072 0.48139 0.18258 0.0
N405 N 0.77209 0.49005 0.20208 0.0
C406 C 0.74994 0.46319 0.16127 0.0
C407 C 0.79328 0.46331 0.1804 0.0
C408 C 0.79348 0.48185 0.2011 0.0
C409 C 0.77126 0.4537 0.16018 0.0
H410 H 0.73422 0.48858 0.18363 0.0
H411 H 0.81087 0.48983 0.21623 0.0
O412 O 0.77063 0.55817 0.28231 0.0
O413 O 0.73203 0.51065 0.23937 0.0
O414 O 0.79437 0.55854 0.22432 0.0
O415 O 0.78636 0.51125 0.26719 0.0
H416 H 0.73039 0.55373 0.31799 0.0
H417 H 0.81088 0.6157 0.2754 0.0
H418 H 0.73058 0.59711 0.34041 0.0
H419 H 0.80957 0.658 0.29834 0.0
H420 H 0.66499 0.41065 0.23235 0.0
H421 H 0.68272 0.5144 0.23512 0.0
H422 H 0.71716 0.45332 0.23683 0.0
H423 H 0.6311 0.47066 0.23044 0.0
H424 H 0.69449 0.60153 0.25021 0.0
H425 H 0.74041 0.61343 0.17405 0.0
H426 H 0.73021 0.45474 0.35992 0.0
H427 H 0.65367 0.4566 0.32595 0.0
H428 H 0.82802 0.54988 0.1892 0.0
H429 H 0.81405 0.61696 0.22792 0.0
H430 H 0.87136 0.59056 0.16449 0.0
H431 H 0.85776 0.65646 0.20275 0.0
H432 H 0.84169 0.52023 0.26937 0.0
H433 H 0.74786 0.45284 0.27167 0.0
H434 H 0.85457 0.47984 0.27405 0.0
H435 H 0.76234 0.41362 0.27605 0.0
H436 H 0.87679 0.60949 0.33596 0.0
H437 H 0.91535 0.60899 0.25861 0.0
H438 H 0.73258 0.45621 0.14605 0.0
H439 H 0.81044 0.45691 0.17997 0.0
Li440 Li 0.2076 0.75737 0.40991 0.0
Li441 Li 0.23948 0.74917 0.44213 0.0
Li442 Li 0.25197 0.80193 0.429 0.0
Li443 Li 0.26055 0.76972 0.39729 0.0
C444 C 0.19295 0.77042 0.46124 0.0
N445 N 0.14564 0.77102 0.48716 0.0
C446 C 0.17597 0.74836 0.48034 0.0
C447 C 0.18617 0.79302 0.4556 0.0
C448 C 0.15204 0.74897 0.49314 0.0
C449 C 0.16209 0.79288 0.46885 0.0
C450 C 0.21809 0.70111 0.40565 0.0
C451 C 0.23401 0.6642 0.40446 0.0
N452 N 0.20473 0.64191 0.40492 0.0
C453 C 0.18815 0.67786 0.40581 0.0
C454 C 0.24122 0.69428 0.40471 0.0
C455 C 0.18186 0.64806 0.40556 0.0
C456 C 0.16299 0.74617 0.37091 0.0
N457 N 0.16746 0.74092 0.39689 0.0
C458 C 0.11449 0.7098 0.40364 0.0
C459 C 0.14397 0.72294 0.41318 0.0
C460 C 0.10903 0.7146 0.37681 0.0
C461 C 0.13387 0.73318 0.3604 0.0
H462 H 0.1821 0.76003 0.35818 0.0
H463 H 0.14809 0.71832 0.43347 0.0
C464 C 0.26249 0.73525 0.48834 0.0
N465 N 0.23886 0.72437 0.47099 0.0
C466 C 0.26272 0.71744 0.50952 0.0
C467 C 0.21412 0.67766 0.49478 0.0
C468 C 0.21469 0.69638 0.47412 0.0
C469 C 0.23839 0.68805 0.51289 0.0
H470 H 0.28111 0.75787 0.48583 0.0
H471 H 0.19576 0.68857 0.4606 0.0
C472 C 0.24078 0.81625 0.37648 0.0
N473 N 0.24313 0.86368 0.34818 0.0
C474 C 0.26397 0.83229 0.35802 0.0
C475 C 0.21855 0.824 0.38026 0.0
C476 C 0.26483 0.8563 0.34399 0.0
C477 C 0.2202 0.84814 0.36584 0.0
C478 C 0.30838 0.79217 0.43466 0.0
C479 C 0.3311 0.82232 0.43557 0.0
C480 C 0.31594 0.76955 0.43528 0.0
C481 C 0.36111 0.82934 0.43661 0.0
C482 C 0.34621 0.77749 0.43633 0.0
N483 N 0.36798 0.80697 0.43694 0.0
C484 C 0.26313 0.84658 0.46788 0.0
C485 C 0.28616 0.86568 0.42556 0.0
C486 C 0.27613 0.87568 0.47845 0.0
N487 N 0.2683 0.84216 0.44185 0.0
C488 C 0.29935 0.89513 0.43517 0.0
C489 C 0.29467 0.90053 0.46207 0.0
H490 H 0.24937 0.82744 0.48061 0.0
H491 H 0.29074 0.86163 0.40523 0.0
C492 C 0.27343 0.7469 0.35047 0.0
N493 N 0.28543 0.76973 0.36871 0.0
C494 C 0.29103 0.74594 0.32941 0.0
C495 C 0.33298 0.79205 0.34625 0.0
C496 C 0.31443 0.7924 0.36666 0.0
C497 C 0.3213 0.76856 0.32735 0.0
H498 H 0.25016 0.7294 0.3523 0.0
H499 H 0.32317 0.81089 0.38075 0.0
O500 O 0.2164 0.77009 0.44851 0.0
O501 O 0.22464 0.7304 0.40596 0.0
O502 O 0.23961 0.79268 0.39034 0.0
O503 O 0.2789 0.78492 0.43354 0.0
H504 H 0.18109 0.73082 0.48505 0.0
H505 H 0.19949 0.8106 0.4413 0.0
H506 H 0.13857 0.73193 0.50783 0.0
H507 H 0.15653 0.8102 0.46463 0.0
H508 H 0.25169 0.65859 0.40382 0.0
H509 H 0.16999 0.68279 0.40633 0.0
H510 H 0.26446 0.712 0.404 0.0
H511 H 0.1588 0.62983 0.40586 0.0
H512 H 0.09623 0.69598 0.41723 0.0
H513 H 0.13098 0.7371 0.33946 0.0
H514 H 0.28161 0.72681 0.52328 0.0
H515 H 0.19495 0.65517 0.4963 0.0
H516 H 0.28122 0.82639 0.35472 0.0
H517 H 0.2001 0.81139 0.39401 0.0
H518 H 0.28275 0.86906 0.32977 0.0
H519 H 0.20319 0.85446 0.36861 0.0
H520 H 0.32561 0.8401 0.43529 0.0
H521 H 0.29863 0.74612 0.4351 0.0
H522 H 0.37894 0.85258 0.43716 0.0
H523 H 0.3524 0.76021 0.43673 0.0
H524 H 0.2723 0.87854 0.49944 0.0
H525 H 0.31315 0.91344 0.42162 0.0
H526 H 0.28125 0.72748 0.31516 0.0
H527 H 0.35609 0.81018 0.345 0.0
H528 H 0.34727 0.05997 0.55939 0.0
H529 H 0.35103 0.94763 0.45024 0.0
H530 H 0.41199 0.08883 0.49466 0.0
H531 H 0.27298 0.92487 0.49935 0.0
H532 H 0.37531 0.99849 0.46848 0.0
H533 H 0.3215 0.00921 0.54013 0.0
C534 C 0.35605 0.0556 0.54113 0.0
C535 C 0.38179 0.07865 0.52859 0.0
C536 C 0.35282 0.98238 0.47519 0.0
C537 C 0.35251 0.02069 0.50651 0.0
C538 C 0.33879 0.9533 0.46465 0.0
C539 C 0.30972 0.93174 0.47309 0.0
C540 C 0.33792 0.99007 0.49459 0.0
C541 C 0.29551 0.94047 0.49244 0.0
C542 C 0.34126 0.02669 0.53009 0.0
C543 C 0.39204 0.07181 0.50484 0.0
N544 N 0.30977 0.9689 0.50257 0.0
N545 N 0.37749 0.04343 0.49467 0.0
H546 H 0.35636 0.27164 0.67187 0.0
H547 H 0.32034 0.40565 0.65846 0.0
H548 H 0.40078 0.34461 0.61497 0.0
H549 H 0.29585 0.34806 0.7283 0.0
H550 H 0.34522 0.37981 0.6394 0.0
H551 H 0.32992 0.29613 0.69041 0.0
C552 C 0.36071 0.29284 0.66331 0.0
C553 C 0.38094 0.30599 0.64174 0.0
C554 C 0.33438 0.3728 0.65889 0.0
C555 C 0.3502 0.33386 0.66265 0.0
C556 C 0.31998 0.38739 0.66968 0.0
C557 C 0.30599 0.37898 0.69501 0.0
C558 C 0.33459 0.34941 0.67338 0.0
C559 C 0.3066 0.35543 0.70883 0.0
C560 C 0.34545 0.30672 0.67385 0.0
C561 C 0.38508 0.33324 0.63123 0.0
N562 N 0.3206 0.3414 0.69781 0.0
N563 N 0.36984 0.34619 0.64174 0.0
H564 H 0.94808 0.2855 0.89017 0.0
H565 H 0.06217 0.4077 0.78576 0.0
H566 H 0.92101 0.32829 0.83041 0.0
H567 H 0.08309 0.34805 0.83006 0.0
H568 H 0.01128 0.381 0.80396 0.0
H569 H 0.99875 0.31061 0.87075 0.0
C570 C 0.95283 0.3002 0.87298 0.0
C571 C 0.9303 0.30481 0.86188 0.0
C572 C 0.02698 0.37369 0.80962 0.0
C573 C 0.98817 0.33364 0.8396 0.0
C574 C 0.05608 0.38882 0.79909 0.0
C575 C 0.07712 0.38012 0.80622 0.0
C576 C 0.01878 0.34978 0.82768 0.0
C577 C 0.06789 0.3559 0.82421 0.0
C578 C 0.98168 0.31439 0.86182 0.0
C579 C 0.9376 0.32386 0.83943 0.0
N580 N 0.03947 0.34166 0.83436 0.0
N581 N 0.96593 0.3377 0.82914 0.0
H582 H 0.60116 0.94643 0.05539 0.0
H583 H 0.72138 0.0599 0.94927 0.0
H584 H 0.65841 0.92445 0.00837 0.0
H585 H 0.68085 0.08759 0.01081 0.0
H586 H 0.6961 0.00915 0.96845 0.0
H587 H 0.62798 0.99738 0.03735 0.0
C588 C 0.61954 0.9523 0.04148 0.0
C589 C 0.62753 0.93095 0.03354 0.0
C590 C 0.69285 0.02637 0.97782 0.0
C591 C 0.658 0.98937 0.0123 0.0
C592 C 0.70713 0.05528 0.96681 0.0
C593 C 0.70322 0.078 0.97848 0.0
C594 C 0.67421 0.02002 1.00048 0.0
C595 C 0.68475 0.07084 1.00134 0.0
C596 C 0.63474 0.98143 0.03106 0.0
C597 C 0.65111 0.9399 0.01486 0.0
N598 N 0.6708 0.04245 0.0115 0.0
N599 N 0.66543 0.96837 0.00484 0.0
H600 H 0.65828 0.59954 0.22069 0.0
H601 H 0.6649 0.71918 0.11453 0.0
H602 H 0.73858 0.65823 0.17553 0.0
H603 H 0.59905 0.68224 0.17828 0.0
H604 H 0.69035 0.69386 0.13377 0.0
H605 H 0.63445 0.62669 0.2028 0.0
C606 C 0.6711 0.61829 0.20724 0.0
C607 C 0.70068 0.62658 0.19979 0.0
C608 C 0.67042 0.69144 0.14361 0.0
C609 C 0.673 0.65736 0.17864 0.0
C610 C 0.65583 0.70574 0.13258 0.0
C611 C 0.62986 0.70282 0.14485 0.0
C612 C 0.6587 0.67371 0.16686 0.0
C613 C 0.61918 0.68533 0.16833 0.0
C614 C 0.65733 0.63368 0.19689 0.0
C615 C 0.71565 0.65063 0.18162 0.0
N616 N 0.63351 0.67127 0.17846 0.0
N617 N 0.70162 0.66508 0.1716 0.0
H618 H 0.06157 0.65849 0.38894 0.0
H619 H 0.95026 0.66093 0.27841 0.0
H620 H 0.08487 0.73636 0.33944 0.0
H621 H 0.91981 0.59988 0.34597 0.0
H622 H 1.00103 0.68663 0.29769 0.0
H623 H 0.01064 0.63453 0.37088 0.0
C624 C 0.05603 0.67077 0.37449 0.0
C625 C 0.07777 0.6997 0.36588 0.0
C626 C 0.98319 0.6677 0.30834 0.0
C627 C 0.01937 0.67182 0.34456 0.0
C628 C 0.95429 0.65296 0.2973 0.0
C629 C 0.93082 0.62827 0.31065 0.0
C630 C 0.98876 0.65738 0.33269 0.0
C631 C 0.9372 0.619 0.33517 0.0
C632 C 0.0269 0.65692 0.36406 0.0
C633 C 0.06916 0.71393 0.34647 0.0
N634 N 0.96561 0.63341 0.3453 0.0
N635 N 0.04071 0.69981 0.3364 0.0
H636 H 0.60111 0.38009 0.49849 0.0
H637 H 0.6348 0.40146 0.3409 0.0
H638 H 0.55893 0.30636 0.44225 0.0
H639 H 0.69976 0.45892 0.40008 0.0
H640 H 0.60276 0.36898 0.37736 0.0
H641 H 0.63378 0.41223 0.46213 0.0
C642 C 0.59871 0.37075 0.47844 0.0
C643 C 0.57737 0.34058 0.47329 0.0
C644 C 0.62407 0.38865 0.38233 0.0
C645 C 0.61435 0.37713 0.43172 0.0
C646 C 0.64224 0.40723 0.3616 0.0
C647 C 0.66993 0.43284 0.36755 0.0
C648 C 0.63341 0.39605 0.40923 0.0
C649 C 0.67866 0.43924 0.39467 0.0
C650 C 0.61742 0.389 0.45779 0.0
C651 C 0.57527 0.32946 0.44705 0.0
N652 N 0.66034 0.42109 0.41455 0.0
N653 N 0.59338 0.3478 0.42716 0.0
H654 H 0.19019 0.64619 0.54257 0.0
H655 H 0.28739 0.60759 0.64268 0.0
H656 H 0.28633 0.68496 0.53422 0.0
H657 H 0.19242 0.54767 0.62941 0.0
H658 H 0.28733 0.63987 0.60659 0.0
H659 H 0.19047 0.61359 0.57819 0.0
C660 C 0.21136 0.64779 0.54801 0.0
C661 C 0.23828 0.66842 0.53511 0.0
C662 C 0.26654 0.61961 0.61161 0.0
C663 C 0.23873 0.63148 0.57651 0.0
C664 C 0.26655 0.60102 0.63213 0.0
C665 C 0.23986 0.57468 0.63923 0.0
C666 C 0.23961 0.61212 0.59823 0.0
C667 C 0.21346 0.56792 0.62511 0.0
C668 C 0.21147 0.62923 0.5685 0.0
C669 C 0.26506 0.66983 0.54373 0.0
N670 N 0.21399 0.58655 0.60539 0.0
N671 N 0.2646 0.65169 0.56391 0.0
H672 H 0.68622 0.28528 0.80701 0.0
H673 H 0.54542 0.18913 0.71212 0.0
H674 H 0.64661 0.18913 0.79762 0.0
H675 H 0.60941 0.28269 0.69661 0.0
H676 H 0.57825 0.18915 0.74768 0.0
H677 H 0.65425 0.28523 0.7706 0.0
C678 C 0.67105 0.26416 0.79726 0.0
C679 C 0.66934 0.23716 0.80555 0.0
C680 C 0.58504 0.20963 0.73642 0.0
C681 C 0.63198 0.23699 0.76424 0.0
C682 C 0.5664 0.20965 0.71595 0.0
C683 C 0.57454 0.23594 0.70108 0.0
C684 C 0.61186 0.23618 0.74246 0.0
C685 C 0.60177 0.26198 0.7077 0.0
C686 C 0.65265 0.26419 0.77655 0.0
C687 C 0.6485 0.21047 0.79242 0.0
N688 N 0.61935 0.26146 0.72794 0.0
N689 N 0.63058 0.21105 0.77254 0.0
H690 H 0.32516 0.60486 0.86544 0.0
H691 H 0.46365 0.6462 0.96277 0.0
H692 H 0.3626 0.54664 0.87647 0.0
H693 H 0.40322 0.68092 0.97464 0.0
H694 H 0.43069 0.61352 0.92721 0.0
H695 H 0.3574 0.63696 0.90169 0.0
C696 C 0.33992 0.59861 0.87553 0.0
C697 C 0.34096 0.5728 0.86775 0.0
C698 C 0.42468 0.62829 0.93766 0.0
C699 C 0.37856 0.6101 0.9089 0.0
C700 C 0.4434 0.64689 0.95813 0.0
C701 C 0.43629 0.66643 0.97199 0.0
C702 C 0.39881 0.62943 0.93064 0.0
C703 C 0.41003 0.6667 0.96437 0.0
C704 C 0.35846 0.61711 0.89615 0.0
C705 C 0.36124 0.56648 0.8813 0.0
N706 N 0.39234 0.64858 0.94417 0.0
N707 N 0.37929 0.58504 0.9011 0.0
H708 H 0.75717 0.30517 0.06574 0.0
H709 H 0.76602 0.45989 0.10595 0.0
H710 H 0.78361 0.37802 0.00931 0.0
H711 H 0.77501 0.40259 0.16426 0.0
H712 H 0.76554 0.42706 0.06976 0.0
H713 H 0.75675 0.33764 0.10183 0.0
C714 C 0.76275 0.32797 0.06097 0.0
C715 C 0.77048 0.339 0.03457 0.0
C716 C 0.76765 0.42173 0.09048 0.0
C717 C 0.76988 0.3761 0.07558 0.0
C718 C 0.76774 0.44031 0.1111 0.0
C719 C 0.77062 0.43393 0.13809 0.0
C720 C 0.76994 0.39632 0.09694 0.0
C721 C 0.77302 0.40842 0.14368 0.0
C722 C 0.76267 0.3465 0.08155 0.0
C723 C 0.77777 0.36878 0.02946 0.0
N724 N 0.77246 0.39044 0.1233 0.0
N725 N 0.77712 0.38626 0.04976 0.0
H726 H 0.37705 0.77464 0.33211 0.0
H727 H 0.40786 0.78082 0.17436 0.0
H728 H 0.30954 0.76089 0.27324 0.0
H729 H 0.45329 0.75419 0.2317 0.0
H730 H 0.37511 0.78033 0.21065 0.0
H731 H 0.40907 0.77389 0.29575 0.0
C732 C 0.36905 0.77153 0.31149 0.0
C733 C 0.34066 0.76779 0.30559 0.0
C734 C 0.39219 0.77452 0.21523 0.0
C735 C 0.37714 0.76718 0.26403 0.0
C736 C 0.41094 0.77495 0.19462 0.0
C737 C 0.43322 0.7675 0.20012 0.0
C738 C 0.39617 0.76716 0.24159 0.0
C739 C 0.43621 0.75986 0.22664 0.0
C740 C 0.38721 0.77095 0.29082 0.0
C741 C 0.33121 0.76363 0.2786 0.0
N742 N 0.41804 0.76011 0.24647 0.0
N743 N 0.34952 0.76368 0.25875 0.0
loop_
_geom_bond_atom_site_label_1
_geom_bond_atom_site_label_2
_geom_bond_distance
_geom_bond_site_symmetry_2
_ccdc_geom_bond_type
Li0 N17 1.990 . S
Li0 O60 1.956 . S
Li0 O61 1.970 . S
Li0 O62 1.961 . S
Li1 N25 1.990 . S
Li1 O60 1.970 . S
Li1 O61 1.956 . S
Li1 O63 1.961 . S
Li2 N47 1.990 . S
Li2 O60 1.961 . S
Li2 O62 1.956 . S
Li2 O63 1.970 . S
Li3 N53 1.990 . S
Li3 O61 1.961 . S
Li3 O62 1.970 . S
Li3 O63 1.956 . S
C4 C6 1.348 . S
C4 C7 1.356 . S
C4 O60 1.325 . S
N5 C8 1.314 . S
N5 C9 1.279 . S
C6 C4 1.348 . S
C6 C8 1.353 . S
C6 H64 0.929 . S
C7 C4 1.356 . S
C7 C9 1.358 . S
C7 H65 0.930 . S
C8 N5 1.314 . S
C8 C6 1.353 . S
C8 H66 0.930 . S
C9 N5 1.279 . S
C9 C7 1.358 . S
C9 H67 0.930 . S
C10 C13 1.348 . S
C10 C14 1.356 . S
C10 O61 1.325 . S
C11 N12 1.279 . S
C11 C14 1.358 . S
C11 H68 0.930 . S
N12 C11 1.279 . S
N12 C15 1.314 . S
C13 C10 1.348 . S
C13 C15 1.353 . S
C13 H69 0.929 . S
C14 C10 1.356 . S
C14 C11 1.358 . S
C14 H70 0.930 . S
C15 N12 1.314 . S
C15 C13 1.353 . S
C15 H71 0.930 . S
C16 N17 1.314 . S
C16 C21 1.353 . S
C16 H22 0.930 . S
N17 Li0 1.990 . S
N17 C16 1.314 . S
N17 C19 1.279 . S
C18 C19 1.358 . S
C18 C20 1.356 . S
C18 H72 0.930 . S
C19 N17 1.279 . S
C19 C18 1.358 . S
C19 H23 0.930 . S
C20 C18 1.356 . S
C20 C21 1.348 . S
C21 C16 1.353 . S
C21 C20 1.348 . S
C21 H73 0.929 . S
H22 C16 0.930 . S
H23 C19 0.930 . S
C24 N25 1.314 . S
C24 C26 1.353 . S
C24 H30 0.930 . S
N25 Li1 1.990 . S
N25 C24 1.314 . S
N25 C28 1.279 . S
C26 C24 1.353 . S
C26 C29 1.348 . S
C26 H74 0.929 . S
C27 C28 1.358 . S
C27 C29 1.356 . S
C27 H75 0.930 . S
C28 N25 1.279 . S
C28 C27 1.358 . S
C28 H31 0.930 . S
C29 C26 1.348 . S
C29 C27 1.356 . S
H30 C24 0.930 . S
H31 C28 0.930 . S
C32 C34 1.348 . S
C32 C35 1.356 . S
C32 O62 1.325 . S
N33 C36 1.314 . S
N33 C37 1.279 . S
C34 C32 1.348 . S
C34 C36 1.353 . S
C34 H76 0.929 . S
C35 C32 1.356 . S
C35 C37 1.358 . S
C35 H77 0.930 . S
C36 N33 1.314 . S
C36 C34 1.353 . S
C36 H78 0.930 . S
C37 N33 1.279 . S
C37 C35 1.358 . S
C37 H79 0.930 . S
C38 C39 1.348 . S
C38 C40 1.356 . S
C38 O63 1.325 . S
C39 C38 1.348 . S
C39 C41 1.353 . S
C39 H80 0.929 . S
C40 C38 1.356 . S
C40 C42 1.358 . S
C40 H81 0.930 . S
C41 C39 1.353 . S
C41 N43 1.314 . S
C41 H82 0.930 . S
C42 C40 1.358 . S
C42 N43 1.279 . S
C42 H83 0.930 . S
N43 C41 1.314 . S
N43 C42 1.279 . S
C44 C46 1.353 . S
C44 N47 1.314 . S
C44 H50 0.930 . S
C45 N47 1.279 . S
C45 C48 1.358 . S
C45 H51 0.930 . S
C46 C44 1.353 . S
C46 C49 1.348 . S
C46 H84 0.929 . S
N47 Li2 1.990 . S
N47 C44 1.314 . S
N47 C45 1.279 . S
C48 C45 1.358 . S
C48 C49 1.356 . S
C48 H85 0.930 . S
C49 C46 1.348 . S
C49 C48 1.356 . S
H50 C44 0.930 . S
H51 C45 0.930 . S
C52 N53 1.314 . S
C52 C54 1.353 . S
C52 H58 0.930 . S
N53 Li3 1.990 . S
N53 C52 1.314 . S
N53 C56 1.279 . S
C54 C52 1.353 . S
C54 C57 1.348 . S
C54 H86 0.929 . S
C55 C56 1.358 . S
C55 C57 1.356 . S
C55 H87 0.930 . S
C56 N53 1.279 . S
C56 C55 1.358 . S
C56 H59 0.930 . S
C57 C54 1.348 . S
C57 C55 1.356 . S
H58 C52 0.930 . S
H59 C56 0.930 . S
O60 Li0 1.956 . S
O60 Li1 1.970 . S
O60 Li2 1.961 . S
O60 C4 1.325 . S
O61 Li0 1.970 . S
O61 Li1 1.956 . S
O61 Li3 1.961 . S
O61 C10 1.325 . S
O62 Li0 1.961 . S
O62 Li2 1.956 . S
O62 Li3 1.970 . S
O62 C32 1.325 . S
O63 Li1 1.961 . S
O63 Li2 1.970 . S
O63 Li3 1.956 . S
O63 C38 1.325 . S
H64 C6 0.929 . S
H65 C7 0.930 . S
H66 C8 0.930 . S
H67 C9 0.930 . S
H68 C11 0.930 . S
H69 C13 0.929 . S
H70 C14 0.930 . S
H71 C15 0.930 . S
H72 C18 0.930 . S
H73 C21 0.929 . S
H74 C26 0.929 . S
H75 C27 0.930 . S
H76 C34 0.929 . S
H77 C35 0.930 . S
H78 C36 0.930 . S
H79 C37 0.930 . S
H80 C39 0.929 . S
H81 C40 0.930 . S
H82 C41 0.930 . S
H83 C42 0.930 . S
H84 C46 0.929 . S
H85 C48 0.930 . S
H86 C54 0.929 . S
H87 C55 0.930 . S
Li88 N105 1.990 . S
Li88 O148 1.956 . S
Li88 O149 1.970 . S
Li88 O150 1.961 . S
Li89 N113 1.990 . S
Li89 O148 1.970 . S
Li89 O149 1.956 . S
Li89 O151 1.961 . S
Li90 N135 1.990 . S
Li90 O148 1.961 . S
Li90 O150 1.956 . S
Li90 O151 1.970 . S
Li91 N141 1.990 . S
Li91 O149 1.961 . S
Li91 O150 1.970 . S
Li91 O151 1.956 . S
C92 C94 1.348 . S
C92 C95 1.356 . S
C92 O148 1.325 . S
N93 C96 1.314 . S
N93 C97 1.279 . S
C94 C92 1.348 . S
C94 C96 1.353 . S
C94 H152 0.929 . S
C95 C92 1.356 . S
C95 C97 1.358 . S
C95 H153 0.930 . S
C96 N93 1.314 . S
C96 C94 1.353 . S
C96 H154 0.930 . S
C97 N93 1.279 . S
C97 C95 1.358 . S
C97 H155 0.930 . S
C98 C101 1.348 . S
C98 C102 1.356 . S
C98 O149 1.325 . S
C99 N100 1.279 . S
C99 C102 1.358 . S
C99 H156 0.930 . S
N100 C99 1.279 . S
N100 C103 1.314 . S
C101 C98 1.348 . S
C101 C103 1.353 . S
C101 H157 0.929 . S
C102 C98 1.356 . S
C102 C99 1.358 . S
C102 H158 0.930 . S
C103 N100 1.314 . S
C103 C101 1.353 . S
C103 H159 0.930 . S
C104 N105 1.314 . S
C104 C109 1.353 . S
C104 H110 0.930 . S
N105 Li88 1.990 . S
N105 C104 1.314 . S
N105 C107 1.279 . S
C106 C107 1.358 . S
C106 C108 1.356 . S
C106 H160 0.930 . S
C107 N105 1.279 . S
C107 C106 1.358 . S
C107 H111 0.930 . S
C108 C106 1.356 . S
C108 C109 1.348 . S
C109 C104 1.353 . S
C109 C108 1.348 . S
C109 H161 0.929 . S
H110 C104 0.930 . S
H111 C107 0.930 . S
C112 N113 1.314 . S
C112 C114 1.353 . S
C112 H118 0.930 . S
N113 Li89 1.990 . S
N113 C112 1.314 . S
N113 C116 1.279 . S
C114 C112 1.353 . S
C114 C117 1.348 . S
C114 H162 0.929 . S
C115 C116 1.358 . S
C115 C117 1.356 . S
C115 H163 0.930 . S
C116 N113 1.279 . S
C116 C115 1.358 . S
C116 H119 0.930 . S
C117 C114 1.348 . S
C117 C115 1.356 . S
H118 C112 0.930 . S
H119 C116 0.930 . S
C120 C122 1.348 . S
C120 C123 1.356 . S
C120 O150 1.325 . S
N121 C124 1.314 . S
N121 C125 1.279 . S
C122 C120 1.348 . S
C122 C124 1.353 . S
C122 H164 0.929 . S
C123 C120 1.356 . S
C123 C125 1.358 . S
C123 H165 0.930 . S
C124 N121 1.314 . S
C124 C122 1.353 . S
C124 H166 0.930 . S
C125 N121 1.279 . S
C125 C123 1.358 . S
C125 H167 0.930 . S
C126 C127 1.348 . S
C126 C128 1.356 . S
C126 O151 1.325 . S
C127 C126 1.348 . S
C127 C129 1.353 . S
C127 H168 0.929 . S
C128 C126 1.356 . S
C128 C130 1.358 . S
C128 H169 0.930 . S
C129 C127 1.353 . S
C129 N131 1.314 . S
C129 H170 0.930 . S
C130 C128 1.358 . S
C130 N131 1.279 . S
C130 H171 0.930 . S
N131 C129 1.314 . S
N131 C130 1.279 . S
C132 C134 1.353 . S
C132 N135 1.314 . S
C132 H138 0.930 . S
C133 N135 1.279 . S
C133 C136 1.358 . S
C133 H139 0.930 . S
C134 C132 1.353 . S
C134 C137 1.348 . S
C134 H172 0.929 . S
N135 Li90 1.990 . S
N135 C132 1.314 . S
N135 C133 1.279 . S
C136 C133 1.358 . S
C136 C137 1.356 . S
C136 H173 0.930 . S
C137 C134 1.348 . S
C137 C136 1.356 . S
H138 C132 0.930 . S
H139 C133 0.930 . S
C140 N141 1.314 . S
C140 C142 1.353 . S
C140 H146 0.930 . S
N141 Li91 1.990 . S
N141 C140 1.314 . S
N141 C144 1.279 . S
C142 C140 1.353 . S
C142 C145 1.348 . S
C142 H174 0.929 . S
C143 C144 1.358 . S
C143 C145 1.356 . S
C143 H175 0.930 . S
C144 N141 1.279 . S
C144 C143 1.358 . S
C144 H147 0.930 . S
C145 C142 1.348 . S
C145 C143 1.356 . S
H146 C140 0.930 . S
H147 C144 0.930 . S
O148 Li88 1.956 . S
O148 Li89 1.970 . S
O148 Li90 1.961 . S
O148 C92 1.325 . S
O149 Li88 1.970 . S
O149 Li89 1.956 . S
O149 Li91 1.961 . S
O149 C98 1.325 . S
O150 Li88 1.961 . S
O150 Li90 1.956 . S
O150 Li91 1.970 . S
O150 C120 1.325 . S
O151 Li89 1.961 . S
O151 Li90 1.970 . S
O151 Li91 1.956 . S
O151 C126 1.325 . S
H152 C94 0.929 . S
H153 C95 0.930 . S
H154 C96 0.930 . S
H155 C97 0.930 . S
H156 C99 0.930 . S
H157 C101 0.929 . S
H158 C102 0.930 . S
H159 C103 0.930 . S
H160 C106 0.930 . S
H161 C109 0.929 . S
H162 C114 0.929 . S
H163 C115 0.930 . S
H164 C122 0.929 . S
H165 C123 0.930 . S
H166 C124 0.930 . S
H167 C125 0.930 . S
H168 C127 0.929 . S
H169 C128 0.930 . S
H170 C129 0.930 . S
H171 C130 0.930 . S
H172 C134 0.929 . S
H173 C136 0.930 . S
H174 C142 0.929 . S
H175 C143 0.930 . S
Li176 N193 1.990 . S
Li176 O236 1.956 . S
Li176 O237 1.970 . S
Li176 O238 1.961 . S
Li177 N201 1.990 . S
Li177 O236 1.970 . S
Li177 O237 1.956 . S
Li177 O239 1.961 . S
Li178 N223 1.990 . S
Li178 O236 1.961 . S
Li178 O238 1.956 . S
Li178 O239 1.970 . S
Li179 N229 1.990 . S
Li179 O237 1.961 . S
Li179 O238 1.970 . S
Li179 O239 1.956 . S
C180 C182 1.348 . S
C180 C183 1.356 . S
C180 O236 1.325 . S
N181 C184 1.314 1_554 S
N181 C185 1.279 1_554 S
C182 C180 1.348 . S
C182 C184 1.351 . S
C182 H240 0.929 . S
C183 C180 1.356 . S
C183 C185 1.358 . S
C183 H241 0.930 . S
C184 N181 1.314 1_556 S
C184 C182 1.351 . S
C184 H242 0.932 1_556 S
C185 N181 1.279 1_556 S
C185 C183 1.358 . S
C185 H243 0.930 . S
C186 C189 1.348 . S
C186 C190 1.356 . S
C186 O237 1.325 . S
C187 N188 1.279 . S
C187 C190 1.358 . S
C187 H244 0.930 . S
N188 C187 1.279 . S
N188 C191 1.314 . S
C189 C186 1.348 . S
C189 C191 1.353 . S
C189 H245 0.929 . S
C190 C186 1.356 . S
C190 C187 1.358 . S
C190 H246 0.930 . S
C191 N188 1.314 . S
C191 C189 1.353 . S
C191 H247 0.930 . S
C192 N193 1.314 . S
C192 C197 1.353 . S
C192 H198 0.930 . S
N193 Li176 1.990 . S
N193 C192 1.314 . S
N193 C195 1.279 . S
C194 C195 1.358 . S
C194 C196 1.356 . S
C194 H248 0.930 . S
C195 N193 1.279 . S
C195 C194 1.358 . S
C195 H199 0.930 . S
C196 C194 1.356 . S
C196 C197 1.348 . S
C197 C192 1.353 . S
C197 C196 1.348 . S
C197 H249 0.929 . S
H198 C192 0.930 . S
H199 C195 0.930 . S
C200 N201 1.314 . S
C200 C202 1.353 1_556 S
C200 H206 0.930 . S
N201 Li177 1.990 . S
N201 C200 1.314 . S
N201 C204 1.279 . S
C202 C200 1.353 1_554 S
C202 C205 1.348 . S
C202 H250 0.929 . S
C203 C204 1.358 . S
C203 C205 1.356 1_556 S
C203 H251 0.930 . S
C204 N201 1.279 . S
C204 C203 1.358 . S
C204 H207 0.930 . S
C205 C202 1.348 . S
C205 C203 1.356 1_554 S
H206 C200 0.930 . S
H207 C204 0.930 . S
C208 C210 1.348 . S
C208 C211 1.356 . S
C208 O238 1.325 . S
N209 C212 1.314 . S
N209 C213 1.279 . S
C210 C208 1.348 . S
C210 C212 1.353 . S
C210 H252 0.929 . S
C211 C208 1.356 . S
C211 C213 1.358 . S
C211 H253 0.930 . S
C212 N209 1.314 . S
C212 C210 1.353 . S
C212 H254 0.930 . S
C213 N209 1.279 . S
C213 C211 1.358 . S
C213 H255 0.930 . S
C214 C215 1.348 . S
C214 C216 1.356 . S
C214 O239 1.325 . S
C215 C214 1.348 . S
C215 C217 1.353 . S
C215 H256 0.929 . S
C216 C214 1.356 . S
C216 C218 1.358 . S
C216 H257 0.930 . S
C217 C215 1.353 . S
C217 N219 1.314 . S
C217 H258 0.930 . S
C218 C216 1.358 . S
C218 N219 1.279 . S
C218 H259 0.930 . S
N219 C217 1.314 . S
N219 C218 1.279 . S
C220 C222 1.353 . S
C220 N223 1.314 . S
C220 H226 0.930 . S
C221 N223 1.279 . S
C221 C224 1.358 . S
C221 H227 0.930 . S
C222 C220 1.353 . S
C222 C225 1.348 . S
C222 H260 0.929 . S
N223 Li178 1.990 . S
N223 C220 1.314 . S
N223 C221 1.279 . S
C224 C221 1.358 . S
C224 C225 1.356 . S
C224 H261 0.930 . S
C225 C222 1.348 . S
C225 C224 1.356 . S
H226 C220 0.930 . S
H227 C221 0.930 . S
C228 N229 1.314 . S
C228 C230 1.353 . S
C228 H234 0.930 . S
N229 Li179 1.990 . S
N229 C228 1.314 . S
N229 C232 1.279 . S
C230 C228 1.353 . S
C230 C233 1.348 . S
C230 H262 0.929 . S
C231 C232 1.358 . S
C231 C233 1.356 . S
C231 H263 0.930 . S
C232 N229 1.279 . S
C232 C231 1.358 . S
C232 H235 0.930 . S
C233 C230 1.348 . S
C233 C231 1.356 . S
H234 C228 0.930 . S
H235 C232 0.930 . S
O236 Li176 1.956 . S
O236 Li177 1.970 . S
O236 Li178 1.961 . S
O236 C180 1.325 . S
O237 Li176 1.970 . S
O237 Li177 1.956 . S
O237 Li179 1.961 . S
O237 C186 1.325 . S
O238 Li176 1.961 . S
O238 Li178 1.956 . S
O238 Li179 1.970 . S
O238 C208 1.325 . S
O239 Li177 1.961 . S
O239 Li178 1.970 . S
O239 Li179 1.956 . S
O239 C214 1.325 . S
H240 C182 0.929 . S
H241 C183 0.930 . S
H242 C184 0.932 1_554 S
H243 C185 0.930 . S
H244 C187 0.930 . S
H245 C189 0.929 . S
H246 C190 0.930 . S
H247 C191 0.930 . S
H248 C194 0.930 . S
H249 C197 0.929 . S
H250 C202 0.929 . S
H251 C203 0.930 . S
H252 C210 0.929 . S
H253 C211 0.930 . S
H254 C212 0.930 . S
H255 C213 0.930 . S
H256 C215 0.929 . S
H257 C216 0.930 . S
H258 C217 0.930 . S
H259 C218 0.930 . S
H260 C222 0.929 . S
H261 C224 0.930 . S
H262 C230 0.929 . S
H263 C231 0.930 . S
Li264 N281 1.990 . S
Li264 O324 1.956 . S
Li264 O325 1.970 . S
Li264 O326 1.961 . S
Li265 N289 1.990 . S
Li265 O324 1.970 . S
Li265 O325 1.956 . S
Li265 O327 1.961 . S
Li266 N311 1.990 . S
Li266 O324 1.961 . S
Li266 O326 1.956 . S
Li266 O327 1.970 . S
Li267 N317 1.990 . S
Li267 O325 1.961 . S
Li267 O326 1.970 . S
Li267 O327 1.956 . S
C268 C270 1.348 . S
C268 C271 1.356 . S
C268 O324 1.325 . S
N269 C272 1.314 . S
N269 C273 1.279 . S
C270 C268 1.348 . S
C270 C272 1.353 . S
C270 H328 0.929 . S
C271 C268 1.356 . S
C271 C273 1.358 . S
C271 H329 0.930 . S
C272 N269 1.314 . S
C272 C270 1.353 . S
C272 H330 0.930 . S
C273 N269 1.279 . S
C273 C271 1.358 . S
C273 H331 0.930 . S
C274 C277 1.348 . S
C274 C278 1.356 . S
C274 O325 1.325 . S
C275 N276 1.279 . S
C275 C278 1.358 . S
C275 H332 0.930 . S
N276 C275 1.279 . S
N276 C279 1.314 . S
C277 C274 1.348 . S
C277 C279 1.353 . S
C277 H333 0.929 . S
C278 C274 1.356 . S
C278 C275 1.358 . S
C278 H334 0.930 . S
C279 N276 1.314 . S
C279 C277 1.353 . S
C279 H335 0.930 . S
C280 N281 1.314 . S
C280 C285 1.353 . S
C280 H286 0.930 . S
N281 Li264 1.990 . S
N281 C280 1.314 . S
N281 C283 1.279 . S
C282 C283 1.358 . S
C282 C284 1.356 . S
C282 H336 0.930 . S
C283 N281 1.279 . S
C283 C282 1.358 . S
C283 H287 0.930 . S
C284 C282 1.356 . S
C284 C285 1.348 . S
C285 C280 1.353 . S
C285 C284 1.348 . S
C285 H337 0.929 . S
H286 C280 0.930 . S
H287 C283 0.930 . S
C288 N289 1.314 . S
C288 C290 1.353 . S
C288 H294 0.930 . S
N289 Li265 1.990 . S
N289 C288 1.314 . S
N289 C292 1.279 . S
C290 C288 1.353 . S
C290 C293 1.348 . S
C290 H338 0.929 . S
C291 C292 1.358 . S
C291 C293 1.356 . S
C291 H339 0.930 . S
C292 N289 1.279 . S
C292 C291 1.358 . S
C292 H295 0.930 . S
C293 C290 1.348 . S
C293 C291 1.356 . S
H294 C288 0.930 . S
H295 C292 0.930 . S
C296 C298 1.348 . S
C296 C299 1.356 . S
C296 O326 1.325 . S
N297 C300 1.315 1_556 S
N297 C301 1.279 1_556 S
C298 C296 1.348 . S
C298 C300 1.351 . S
C298 H340 0.929 . S
C299 C296 1.356 . S
C299 C301 1.358 . S
C299 H341 0.930 . S
C300 N297 1.315 1_554 S
C300 C298 1.351 . S
C300 H342 0.932 1_554 S
C301 N297 1.279 1_554 S
C301 C299 1.358 . S
C301 H343 0.930 . S
C302 C303 1.348 . S
C302 C304 1.356 . S
C302 O327 1.325 . S
C303 C302 1.348 . S
C303 C305 1.353 . S
C303 H344 0.929 . S
C304 C302 1.356 . S
C304 C306 1.358 . S
C304 H345 0.930 . S
C305 C303 1.353 . S
C305 N307 1.314 . S
C305 H346 0.930 . S
C306 C304 1.358 . S
C306 N307 1.279 . S
C306 H347 0.930 . S
N307 C305 1.314 . S
N307 C306 1.279 . S
C308 C310 1.353 . S
C308 N311 1.314 . S
C308 H314 0.930 . S
C309 N311 1.279 . S
C309 C312 1.358 . S
C309 H315 0.930 . S
C310 C308 1.353 . S
C310 C313 1.348 . S
C310 H348 0.929 . S
N311 Li266 1.990 . S
N311 C308 1.314 . S
N311 C309 1.279 . S
C312 C309 1.358 . S
C312 C313 1.356 . S
C312 H349 0.930 . S
C313 C310 1.348 . S
C313 C312 1.356 . S
H314 C308 0.930 . S
H315 C309 0.930 . S
C316 N317 1.314 . S
C316 C318 1.353 1_554 S
C316 H322 0.930 . S
N317 Li267 1.990 . S
N317 C316 1.314 . S
N317 C320 1.279 . S
C318 C316 1.353 1_556 S
C318 C321 1.348 . S
C318 H350 0.929 . S
C319 C320 1.358 . S
C319 C321 1.356 1_554 S
C319 H351 0.930 . S
C320 N317 1.279 . S
C320 C319 1.358 . S
C320 H323 0.930 . S
C321 C318 1.348 . S
C321 C319 1.356 1_556 S
H322 C316 0.930 . S
H323 C320 0.930 . S
O324 Li264 1.956 . S
O324 Li265 1.970 . S
O324 Li266 1.961 . S
O324 C268 1.325 . S
O325 Li264 1.970 . S
O325 Li265 1.956 . S
O325 Li267 1.961 . S
O325 C274 1.325 . S
O326 Li264 1.961 . S
O326 Li266 1.956 . S
O326 Li267 1.970 . S
O326 C296 1.325 . S
O327 Li265 1.961 . S
O327 Li266 1.970 . S
O327 Li267 1.956 . S
O327 C302 1.325 . S
H328 C270 0.929 . S
H329 C271 0.930 . S
H330 C272 0.930 . S
H331 C273 0.930 . S
H332 C275 0.930 . S
H333 C277 0.929 . S
H334 C278 0.930 . S
H335 C279 0.930 . S
H336 C282 0.930 . S
H337 C285 0.929 . S
H338 C290 0.929 . S
H339 C291 0.930 . S
H340 C298 0.929 . S
H341 C299 0.930 . S
H342 C300 0.932 1_556 S
H343 C301 0.930 . S
H344 C303 0.929 . S
H345 C304 0.930 . S
H346 C305 0.930 . S
H347 C306 0.930 . S
H348 C310 0.929 . S
H349 C312 0.930 . S
H350 C318 0.929 . S
H351 C319 0.930 . S
Li352 N369 1.990 . S
Li352 O412 1.956 . S
Li352 O413 1.970 . S
Li352 O414 1.961 . S
Li353 N377 1.990 . S
Li353 O412 1.970 . S
Li353 O413 1.956 . S
Li353 O415 1.961 . S
Li354 N399 1.990 . S
Li354 O412 1.961 . S
Li354 O414 1.956 . S
Li354 O415 1.970 . S
Li355 N405 1.990 . S
Li355 O413 1.961 . S
Li355 O414 1.970 . S
Li355 O415 1.956 . S
C356 C358 1.348 . S
C356 C359 1.356 . S
C356 O412 1.325 . S
N357 C360 1.314 . S
N357 C361 1.279 . S
C358 C356 1.348 . S
C358 C360 1.353 . S
C358 H416 0.929 . S
C359 C356 1.356 . S
C359 C361 1.358 . S
C359 H417 0.930 . S
C360 N357 1.314 . S
C360 C358 1.353 . S
C360 H418 0.930 . S
C361 N357 1.279 . S
C361 C359 1.358 . S
C361 H419 0.930 . S
C362 C365 1.348 . S
C362 C366 1.356 . S
C362 O413 1.325 . S
C363 N364 1.279 . S
C363 C366 1.358 . S
C363 H420 0.930 . S
N364 C363 1.279 . S
N364 C367 1.314 . S
C365 C362 1.348 . S
C365 C367 1.353 . S
C365 H421 0.929 . S
C366 C362 1.356 . S
C366 C363 1.358 . S
C366 H422 0.930 . S
C367 N364 1.314 . S
C367 C365 1.353 . S
C367 H423 0.930 . S
C368 N369 1.314 . S
C368 C373 1.353 . S
C368 H374 0.930 . S
N369 Li352 1.990 . S
N369 C368 1.314 . S
N369 C371 1.279 . S
C370 C371 1.358 . S
C370 C372 1.356 . S
C370 H424 0.930 . S
C371 N369 1.279 . S
C371 C370 1.358 . S
C371 H375 0.930 . S
C372 C370 1.356 . S
C372 C373 1.348 . S
C373 C368 1.353 . S
C373 C372 1.348 . S
C373 H425 0.929 . S
H374 C368 0.930 . S
H375 C371 0.930 . S
C376 N377 1.314 . S
C376 C378 1.353 . S
C376 H382 0.930 . S
N377 Li353 1.990 . S
N377 C376 1.314 . S
N377 C380 1.279 . S
C378 C376 1.353 . S
C378 C381 1.348 . S
C378 H426 0.929 . S
C379 C380 1.358 . S
C379 C381 1.356 . S
C379 H427 0.930 . S
C380 N377 1.279 . S
C380 C379 1.358 . S
C380 H383 0.930 . S
C381 C378 1.348 . S
C381 C379 1.356 . S
H382 C376 0.930 . S
H383 C380 0.930 . S
C384 C386 1.348 . S
C384 C387 1.356 . S
C384 O414 1.325 . S
N385 C388 1.314 . S
N385 C389 1.279 . S
C386 C384 1.348 . S
C386 C388 1.353 . S
C386 H428 0.929 . S
C387 C384 1.356 . S
C387 C389 1.358 . S
C387 H429 0.930 . S
C388 N385 1.314 . S
C388 C386 1.353 . S
C388 H430 0.930 . S
C389 N385 1.279 . S
C389 C387 1.358 . S
C389 H431 0.930 . S
C390 C391 1.348 . S
C390 C392 1.356 . S
C390 O415 1.325 . S
C391 C390 1.348 . S
C391 C393 1.353 . S
C391 H432 0.929 . S
C392 C390 1.356 . S
C392 C394 1.358 . S
C392 H433 0.930 . S
C393 C391 1.353 . S
C393 N395 1.314 . S
C393 H434 0.930 . S
C394 C392 1.358 . S
C394 N395 1.279 . S
C394 H435 0.930 . S
N395 C393 1.314 . S
N395 C394 1.279 . S
C396 C398 1.353 . S
C396 N399 1.314 . S
C396 H402 0.930 . S
C397 N399 1.279 . S
C397 C400 1.358 . S
C397 H403 0.930 . S
C398 C396 1.353 . S
C398 C401 1.348 . S
C398 H436 0.929 . S
N399 Li354 1.990 . S
N399 C396 1.314 . S
N399 C397 1.279 . S
C400 C397 1.358 . S
C400 C401 1.356 . S
C400 H437 0.930 . S
C401 C398 1.348 . S
C401 C400 1.356 . S
H402 C396 0.930 . S
H403 C397 0.930 . S
C404 N405 1.314 . S
C404 C406 1.353 . S
C404 H410 0.930 . S
N405 Li355 1.990 . S
N405 C404 1.314 . S
N405 C408 1.279 . S
C406 C404 1.353 . S
C406 C409 1.348 . S
C406 H438 0.929 . S
C407 C408 1.358 . S
C407 C409 1.356 . S
C407 H439 0.930 . S
C408 N405 1.279 . S
C408 C407 1.358 . S
C408 H411 0.930 . S
C409 C406 1.348 . S
C409 C407 1.356 . S
H410 C404 0.930 . S
H411 C408 0.930 . S
O412 Li352 1.956 . S
O412 Li353 1.970 . S
O412 Li354 1.961 . S
O412 C356 1.325 . S
O413 Li352 1.970 . S
O413 Li353 1.956 . S
O413 Li355 1.961 . S
O413 C362 1.325 . S
O414 Li352 1.961 . S
O414 Li354 1.956 . S
O414 Li355 1.970 . S
O414 C384 1.325 . S
O415 Li353 1.961 . S
O415 Li354 1.970 . S
O415 Li355 1.956 . S
O415 C390 1.325 . S
H416 C358 0.929 . S
H417 C359 0.930 . S
H418 C360 0.930 . S
H419 C361 0.930 . S
H420 C363 0.930 . S
H421 C365 0.929 . S
H422 C366 0.930 . S
H423 C367 0.930 . S
H424 C370 0.930 . S
H425 C373 0.929 . S
H426 C378 0.929 . S
H427 C379 0.930 . S
H428 C386 0.929 . S
H429 C387 0.930 . S
H430 C388 0.930 . S
H431 C389 0.930 . S
H432 C391 0.929 . S
H433 C392 0.930 . S
H434 C393 0.930 . S
H435 C394 0.930 . S
H436 C398 0.929 . S
H437 C400 0.930 . S
H438 C406 0.929 . S
H439 C407 0.930 . S
Li440 N457 1.990 . S
Li440 O500 1.956 . S
Li440 O501 1.970 . S
Li440 O502 1.961 . S
Li441 N465 1.990 . S
Li441 O500 1.970 . S
Li441 O501 1.956 . S
Li441 O503 1.961 . S
Li442 N487 1.990 . S
Li442 O500 1.961 . S
Li442 O502 1.956 . S
Li442 O503 1.970 . S
Li443 N493 1.990 . S
Li443 O501 1.961 . S
Li443 O502 1.970 . S
Li443 O503 1.956 . S
C444 C446 1.348 . S
C444 C447 1.356 . S
C444 O500 1.325 . S
N445 C448 1.314 . S
N445 C449 1.279 . S
C446 C444 1.348 . S
C446 C448 1.353 . S
C446 H504 0.929 . S
C447 C444 1.356 . S
C447 C449 1.358 . S
C447 H505 0.930 . S
C448 N445 1.314 . S
C448 C446 1.353 . S
C448 H506 0.930 . S
C449 N445 1.279 . S
C449 C447 1.358 . S
C449 H507 0.930 . S
C450 C453 1.348 . S
C450 C454 1.356 . S
C450 O501 1.325 . S
C451 N452 1.279 . S
C451 C454 1.358 . S
C451 H508 0.930 . S
N452 C451 1.279 . S
N452 C455 1.314 . S
C453 C450 1.348 . S
C453 C455 1.353 . S
C453 H509 0.929 . S
C454 C450 1.356 . S
C454 C451 1.358 . S
C454 H510 0.930 . S
C455 N452 1.314 . S
C455 C453 1.353 . S
C455 H511 0.930 . S
C456 N457 1.314 . S
C456 C461 1.353 . S
C456 H462 0.930 . S
N457 Li440 1.990 . S
N457 C456 1.314 . S
N457 C459 1.279 . S
C458 C459 1.358 . S
C458 C460 1.356 . S
C458 H512 0.930 . S
C459 N457 1.279 . S
C459 C458 1.358 . S
C459 H463 0.930 . S
C460 C458 1.356 . S
C460 C461 1.348 . S
C461 C456 1.353 . S
C461 C460 1.348 . S
C461 H513 0.929 . S
H462 C456 0.930 . S
H463 C459 0.930 . S
C464 N465 1.314 . S
C464 C466 1.353 . S
C464 H470 0.930 . S
N465 Li441 1.990 . S
N465 C464 1.314 . S
N465 C468 1.279 . S
C466 C464 1.353 . S
C466 C469 1.348 . S
C466 H514 0.929 . S
C467 C468 1.358 . S
C467 C469 1.356 . S
C467 H515 0.930 . S
C468 N465 1.279 . S
C468 C467 1.358 . S
C468 H471 0.930 . S
C469 C466 1.348 . S
C469 C467 1.356 . S
H470 C464 0.930 . S
H471 C468 0.930 . S
C472 C474 1.348 . S
C472 C475 1.356 . S
C472 O502 1.325 . S
N473 C476 1.314 . S
N473 C477 1.279 . S
C474 C472 1.348 . S
C474 C476 1.353 . S
C474 H516 0.929 . S
C475 C472 1.356 . S
C475 C477 1.358 . S
C475 H517 0.930 . S
C476 N473 1.314 . S
C476 C474 1.353 . S
C476 H518 0.930 . S
C477 N473 1.279 . S
C477 C475 1.358 . S
C477 H519 0.930 . S
C478 C479 1.348 . S
C478 C480 1.356 . S
C478 O503 1.325 . S
C479 C478 1.348 . S
C479 C481 1.353 . S
C479 H520 0.929 . S
C480 C478 1.356 . S
C480 C482 1.358 . S
C480 H521 0.930 . S
C481 C479 1.353 . S
C481 N483 1.314 . S
C481 H522 0.930 . S
C482 C480 1.358 . S
C482 N483 1.279 . S
C482 H523 0.930 . S
N483 C481 1.314 . S
N483 C482 1.279 . S
C484 C486 1.353 . S
C484 N487 1.314 . S
C484 H490 0.930 . S
C485 N487 1.279 . S
C485 C488 1.358 . S
C485 H491 0.930 . S
C486 C484 1.353 . S
C486 C489 1.348 . S
C486 H524 0.929 . S
N487 Li442 1.990 . S
N487 C484 1.314 . S
N487 C485 1.279 . S
C488 C485 1.358 . S
C488 C489 1.356 . S
C488 H525 0.930 . S
C489 C486 1.348 . S
C489 C488 1.356 . S
H490 C484 0.930 . S
H491 C485 0.930 . S
C492 N493 1.314 . S
C492 C494 1.353 . S
C492 H498 0.930 . S
N493 Li443 1.990 . S
N493 C492 1.314 . S
N493 C496 1.279 . S
C494 C492 1.353 . S
C494 C497 1.348 . S
C494 H526 0.929 . S
C495 C496 1.358 . S
C495 C497 1.356 . S
C495 H527 0.930 . S
C496 N493 1.279 . S
C496 C495 1.358 . S
C496 H499 0.930 . S
C497 C494 1.348 . S
C497 C495 1.356 . S
H498 C492 0.930 . S
H499 C496 0.930 . S
O500 Li440 1.956 . S
O500 Li441 1.970 . S
O500 Li442 1.961 . S
O500 C444 1.325 . S
O501 Li440 1.970 . S
O501 Li441 1.956 . S
O501 Li443 1.961 . S
O501 C450 1.325 . S
O502 Li440 1.961 . S
O502 Li442 1.956 . S
O502 Li443 1.970 . S
O502 C472 1.325 . S
O503 Li441 1.961 . S
O503 Li442 1.970 . S
O503 Li443 1.956 . S
O503 C478 1.325 . S
H504 C446 0.929 . S
H505 C447 0.930 . S
H506 C448 0.930 . S
H507 C449 0.930 . S
H508 C451 0.930 . S
H509 C453 0.929 . S
H510 C454 0.930 . S
H511 C455 0.930 . S
H512 C458 0.930 . S
H513 C461 0.929 . S
H514 C466 0.929 . S
H515 C467 0.930 . S
H516 C474 0.929 . S
H517 C475 0.930 . S
H518 C476 0.930 . S
H519 C477 0.930 . S
H520 C479 0.929 . S
H521 C480 0.930 . S
H522 C481 0.930 . S
H523 C482 0.930 . S
H524 C486 0.929 . S
H525 C488 0.930 . S
H526 C494 0.929 . S
H527 C495 0.930 . S
H528 C534 0.930 . S
H529 C538 0.930 . S
H530 C543 0.929 . S
H531 C541 0.929 . S
H532 C536 0.929 . S
H533 C542 0.929 . S
C534 H528 0.930 . S
C534 C535 1.367 . S
C534 C542 1.378 . S
C535 C534 1.367 . S
C535 C543 1.433 . S
C536 H532 0.929 . S
C536 C538 1.378 . S
C536 C540 1.350 . S
C537 C540 1.463 1_545 S
C537 C542 1.350 . S
C537 N545 1.427 . S
C538 H529 0.930 . S
C538 C536 1.378 . S
C538 C539 1.367 . S
C539 C538 1.367 . S
C539 C541 1.433 . S
C540 C536 1.350 . S
C540 C537 1.463 1_565 S
C540 N544 1.427 . S
C541 H531 0.929 . S
C541 C539 1.433 . S
C541 N544 1.384 . S
C542 H533 0.929 . S
C542 C534 1.378 . S
C542 C537 1.350 . S
C543 H530 0.929 . S
C543 C535 1.433 . S
C543 N545 1.384 . S
N544 C540 1.427 . S
N544 C541 1.384 . S
N545 C537 1.427 . S
N545 C543 1.384 . S
H546 C552 0.930 . S
H547 C556 0.930 . S
H548 C561 0.929 . S
H549 C559 0.929 . S
H550 C554 0.929 . S
H551 C560 0.929 . S
C552 H546 0.930 . S
C552 C553 1.367 . S
C552 C560 1.378 . S
C553 C552 1.367 . S
C553 C561 1.433 . S
C554 H550 0.929 . S
C554 C556 1.378 . S
C554 C558 1.350 . S
C555 C558 1.463 . S
C555 C560 1.350 . S
C555 N563 1.427 . S
C556 H547 0.930 . S
C556 C554 1.378 . S
C556 C557 1.367 . S
C557 C556 1.367 . S
C557 C559 1.433 . S
C558 C554 1.350 . S
C558 C555 1.463 . S
C558 N562 1.427 . S
C559 H549 0.929 . S
C559 C557 1.433 . S
C559 N562 1.384 . S
C560 H551 0.929 . S
C560 C552 1.378 . S
C560 C555 1.350 . S
C561 H548 0.929 . S
C561 C553 1.433 . S
C561 N563 1.384 . S
N562 C558 1.427 . S
N562 C559 1.384 . S
N563 C555 1.427 . S
N563 C561 1.384 . S
H564 C570 0.930 . S
H565 C574 0.930 . S
H566 C579 0.929 . S
H567 C577 0.929 . S
H568 C572 0.929 . S
H569 C578 0.929 . S
C570 H564 0.930 . S
C570 C571 1.367 . S
C570 C578 1.378 . S
C571 C570 1.367 . S
C571 C579 1.433 . S
C572 H568 0.929 . S
C572 C574 1.378 . S
C572 C576 1.350 . S
C573 C576 1.463 1_655 S
C573 C578 1.350 . S
C573 N581 1.427 . S
C574 H565 0.930 . S
C574 C572 1.378 . S
C574 C575 1.367 . S
C575 C574 1.367 . S
C575 C577 1.433 . S
C576 C572 1.350 . S
C576 C573 1.463 1_455 S
C576 N580 1.427 . S
C577 H567 0.929 . S
C577 C575 1.433 . S
C577 N580 1.384 . S
C578 H569 0.929 . S
C578 C570 1.378 . S
C578 C573 1.350 . S
C579 H566 0.929 . S
C579 C571 1.433 . S
C579 N581 1.384 . S
N580 C576 1.427 . S
N580 C577 1.384 . S
N581 C573 1.427 . S
N581 C579 1.384 . S
H582 C588 0.930 . S
H583 C592 0.930 . S
H584 C597 0.929 . S
H585 C595 0.929 . S
H586 C590 0.929 . S
H587 C596 0.929 . S
C588 H582 0.930 . S
C588 C589 1.367 . S
C588 C596 1.378 . S
C589 C588 1.367 . S
C589 C597 1.433 . S
C590 H586 0.929 . S
C590 C592 1.378 . S
C590 C594 1.350 . S
C591 C594 1.463 1_564 S
C591 C596 1.350 . S
C591 N599 1.427 . S
C592 H583 0.930 . S
C592 C590 1.378 . S
C592 C593 1.367 . S
C593 C592 1.367 . S
C593 C595 1.433 . S
C594 C590 1.350 . S
C594 C591 1.463 1_546 S
C594 N598 1.427 . S
C595 H585 0.929 . S
C595 C593 1.433 . S
C595 N598 1.384 . S
C596 H587 0.929 . S
C596 C588 1.378 . S
C596 C591 1.350 . S
C597 H584 0.929 . S
C597 C589 1.433 . S
C597 N599 1.384 . S
N598 C594 1.427 . S
N598 C595 1.384 . S
N599 C591 1.427 . S
N599 C597 1.384 . S
H600 C606 0.930 . S
H601 C610 0.930 . S
H602 C615 0.929 . S
H603 C613 0.929 . S
H604 C608 0.929 . S
H605 C614 0.929 . S
C606 H600 0.930 . S
C606 C607 1.367 . S
C606 C614 1.378 . S
C607 C606 1.367 . S
C607 C615 1.433 . S
C608 H604 0.929 . S
C608 C610 1.378 . S
C608 C612 1.350 . S
C609 C612 1.463 . S
C609 C614 1.350 . S
C609 N617 1.427 . S
C610 H601 0.930 . S
C610 C608 1.378 . S
C610 C611 1.367 . S
C611 C610 1.367 . S
C611 C613 1.433 . S
C612 C608 1.350 . S
C612 C609 1.463 . S
C612 N616 1.427 . S
C613 H603 0.929 . S
C613 C611 1.433 . S
C613 N616 1.384 . S
C614 H605 0.929 . S
C614 C606 1.378 . S
C614 C609 1.350 . S
C615 H602 0.929 . S
C615 C607 1.433 . S
C615 N617 1.384 . S
N616 C612 1.427 . S
N616 C613 1.384 . S
N617 C609 1.427 . S
N617 C615 1.384 . S
H618 C624 0.930 . S
H619 C628 0.930 . S
H620 C633 0.929 . S
H621 C631 0.929 . S
H622 C626 0.929 . S
H623 C632 0.929 . S
C624 H618 0.930 . S
C624 C625 1.367 . S
C624 C632 1.378 . S
C625 C624 1.367 . S
C625 C633 1.433 . S
C626 H622 0.929 . S
C626 C628 1.378 . S
C626 C630 1.350 . S
C627 C630 1.463 1_455 S
C627 C632 1.350 . S
C627 N635 1.427 . S
C628 H619 0.930 . S
C628 C626 1.378 . S
C628 C629 1.367 . S
C629 C628 1.367 . S
C629 C631 1.433 . S
C630 C626 1.350 . S
C630 C627 1.463 1_655 S
C630 N634 1.427 . S
C631 H621 0.929 . S
C631 C629 1.433 . S
C631 N634 1.384 . S
C632 H623 0.929 . S
C632 C624 1.378 . S
C632 C627 1.350 . S
C633 H620 0.929 . S
C633 C625 1.433 . S
C633 N635 1.384 . S
N634 C630 1.427 . S
N634 C631 1.384 . S
N635 C627 1.427 . S
N635 C633 1.384 . S
H636 C642 0.930 . S
H637 C646 0.930 . S
H638 C651 0.929 . S
H639 C649 0.929 . S
H640 C644 0.929 . S
H641 C650 0.929 . S
C642 H636 0.930 . S
C642 C643 1.367 . S
C642 C650 1.378 . S
C643 C642 1.367 . S
C643 C651 1.433 . S
C644 H640 0.929 . S
C644 C646 1.378 . S
C644 C648 1.350 . S
C645 C648 1.463 . S
C645 C650 1.350 . S
C645 N653 1.427 . S
C646 H637 0.930 . S
C646 C644 1.378 . S
C646 C647 1.367 . S
C647 C646 1.367 . S
C647 C649 1.433 . S
C648 C644 1.350 . S
C648 C645 1.463 . S
C648 N652 1.427 . S
C649 H639 0.929 . S
C649 C647 1.433 . S
C649 N652 1.384 . S
C650 H641 0.929 . S
C650 C642 1.378 . S
C650 C645 1.350 . S
C651 H638 0.929 . S
C651 C643 1.433 . S
C651 N653 1.384 . S
N652 C648 1.427 . S
N652 C649 1.384 . S
N653 C645 1.427 . S
N653 C651 1.384 . S
H654 C660 0.930 . S
H655 C664 0.930 . S
H656 C669 0.929 . S
H657 C667 0.929 . S
H658 C662 0.929 . S
H659 C668 0.929 . S
C660 H654 0.930 . S
C660 C661 1.367 . S
C660 C668 1.378 . S
C661 C660 1.367 . S
C661 C669 1.433 . S
C662 H658 0.929 . S
C662 C664 1.378 . S
C662 C666 1.350 . S
C663 C666 1.463 . S
C663 C668 1.350 . S
C663 N671 1.427 . S
C664 H655 0.930 . S
C664 C662 1.378 . S
C664 C665 1.367 . S
C665 C664 1.367 . S
C665 C667 1.433 . S
C666 C662 1.350 . S
C666 C663 1.463 . S
C666 N670 1.427 . S
C667 H657 0.929 . S
C667 C665 1.433 . S
C667 N670 1.384 . S
C668 H659 0.929 . S
C668 C660 1.378 . S
C668 C663 1.350 . S
C669 H656 0.929 . S
C669 C661 1.433 . S
C669 N671 1.384 . S
N670 C666 1.427 . S
N670 C667 1.384 . S
N671 C663 1.427 . S
N671 C669 1.384 . S
H672 C678 0.930 . S
H673 C682 0.930 . S
H674 C687 0.929 . S
H675 C685 0.929 . S
H676 C680 0.929 . S
H677 C686 0.929 . S
C678 H672 0.930 . S
C678 C679 1.367 . S
C678 C686 1.378 . S
C679 C678 1.367 . S
C679 C687 1.433 . S
C680 H676 0.929 . S
C680 C682 1.378 . S
C680 C684 1.350 . S
C681 C684 1.463 . S
C681 C686 1.350 . S
C681 N689 1.427 . S
C682 H673 0.930 . S
C682 C680 1.378 . S
C682 C683 1.367 . S
C683 C682 1.367 . S
C683 C685 1.433 . S
C684 C680 1.350 . S
C684 C681 1.463 . S
C684 N688 1.427 . S
C685 H675 0.929 . S
C685 C683 1.433 . S
C685 N688 1.384 . S
C686 H677 0.929 . S
C686 C678 1.378 . S
C686 C681 1.350 . S
C687 H674 0.929 . S
C687 C679 1.433 . S
C687 N689 1.384 . S
N688 C684 1.427 . S
N688 C685 1.384 . S
N689 C681 1.427 . S
N689 C687 1.384 . S
H690 C696 0.930 . S
H691 C700 0.930 . S
H692 C705 0.929 . S
H693 C703 0.929 . S
H694 C698 0.929 . S
H695 C704 0.929 . S
C696 H690 0.930 . S
C696 C697 1.367 . S
C696 C704 1.378 . S
C697 C696 1.367 . S
C697 C705 1.433 . S
C698 H694 0.929 . S
C698 C700 1.378 . S
C698 C702 1.350 . S
C699 C702 1.463 . S
C699 C704 1.350 . S
C699 N707 1.427 . S
C700 H691 0.930 . S
C700 C698 1.378 . S
C700 C701 1.367 . S
C701 C700 1.367 . S
C701 C703 1.433 . S
C702 C698 1.350 . S
C702 C699 1.463 . S
C702 N706 1.427 . S
C703 H693 0.929 . S
C703 C701 1.433 . S
C703 N706 1.384 . S
C704 H695 0.929 . S
C704 C696 1.378 . S
C704 C699 1.350 . S
C705 H692 0.929 . S
C705 C697 1.433 . S
C705 N707 1.384 . S
N706 C702 1.427 . S
N706 C703 1.384 . S
N707 C699 1.427 . S
N707 C705 1.384 . S
H708 C714 0.930 . S
H709 C718 0.930 . S
H710 C723 0.929 . S
H711 C721 0.929 . S
H712 C716 0.929 . S
H713 C722 0.929 . S
C714 H708 0.930 . S
C714 C715 1.367 . S
C714 C722 1.378 . S
C715 C714 1.367 . S
C715 C723 1.433 . S
C716 H712 0.929 . S
C716 C718 1.378 . S
C716 C720 1.350 . S
C717 C720 1.463 . S
C717 C722 1.350 . S
C717 N725 1.427 . S
C718 H709 0.930 . S
C718 C716 1.378 . S
C718 C719 1.367 . S
C719 C718 1.367 . S
C719 C721 1.433 . S
C720 C716 1.350 . S
C720 C717 1.463 . S
C720 N724 1.427 . S
C721 H711 0.929 . S
C721 C719 1.433 . S
C721 N724 1.384 . S
C722 H713 0.929 . S
C722 C714 1.378 . S
C722 C717 1.350 . S
C723 H710 0.929 . S
C723 C715 1.433 . S
C723 N725 1.384 . S
N724 C720 1.427 . S
N724 C721 1.384 . S
N725 C717 1.427 . S
N725 C723 1.384 . S
H726 C732 0.930 . S
H727 C736 0.930 . S
H728 C741 0.929 . S
H729 C739 0.929 . S
H730 C734 0.929 . S
H731 C740 0.929 . S
C732 H726 0.930 . S
C732 C733 1.367 . S
C732 C740 1.378 . S
C733 C732 1.367 . S
C733 C741 1.433 . S
C734 H730 0.929 . S
C734 C736 1.378 . S
C734 C738 1.350 . S
C735 C738 1.463 . S
C735 C740 1.350 . S
C735 N743 1.427 . S
C736 H727 0.930 . S
C736 C734 1.378 . S
C736 C737 1.367 . S
C737 C736 1.367 . S
C737 C739 1.433 . S
C738 C734 1.350 . S
C738 C735 1.463 . S
C738 N742 1.427 . S
C739 H729 0.929 . S
C739 C737 1.433 . S
C739 N742 1.384 . S
C740 H731 0.929 . S
C740 C732 1.378 . S
C740 C735 1.350 . S
C741 H728 0.929 . S
C741 C733 1.433 . S
C741 N743 1.384 . S
N742 C738 1.427 . S
N742 C739 1.384 . S
N743 C735 1.427 . S
N743 C741 1.384 . S
C535 C20 1.354 . S
C539 C489 1.353 . S
C553 C49 1.353 . S
C557 C117 1.352 . S
C571 C196 1.354 . S
C575 C145 1.352 . S
C589 C284 1.351 . S
C593 C225 1.354 . S
C607 C372 1.352 . S
C611 C313 1.355 . S
C625 C460 1.351 . S
C629 C401 1.354 . S
C643 C57 1.588 . S
C647 C381 1.589 . S
C661 C469 1.590 . S
C665 C137 1.590 . S
C679 C233 1.590 . S
C683 C29 1.591 . S
C697 C108 1.589 . S
C701 C321 1.589 . S
C715 C205 1.590 . S
C719 C409 1.591 . S
C733 C497 1.588 . S
C737 C293 1.589 . S
