# Generated by pormake.
# Topology wjt, (5)-cn, num edge types: 1
# Building blocks:
#     Node 0, Type 0, BuildingBlock: XOMCOT_clean_sbu_0, # of connection points: 5
#     Node 1, Type 0, BuildingBlock: XOMCOT_clean_sbu_0, # of connection points: 5
#     Node 2, Type 0, BuildingBlock: XOMCOT_clean_sbu_0, # of connection points: 5
#     Node 3, Type 0, BuildingBlock: XOMCOT_clean_sbu_0, # of connection points: 5
#     Node 4, Type 0, BuildingBlock: XOMCOT_clean_sbu_0, # of connection points: 5
#     Node 5, Type 0, BuildingBlock: XOMCOT_clean_sbu_0, # of connection points: 5
#     Node 6, Type 0, BuildingBlock: XOMCOT_clean_sbu_0, # of connection points: 5
#     Node 7, Type 0, BuildingBlock: XOMCOT_clean_sbu_0, # of connection points: 5
#     Node 8, Type 0, BuildingBlock: XOMCOT_clean_sbu_0, # of connection points: 5
#     Node 9, Type 0, BuildingBlock: XOMCOT_clean_sbu_0, # of connection points: 5
#     Node 10, Type 0, BuildingBlock: XOMCOT_clean_sbu_0, # of connection points: 5
#     Node 11, Type 0, BuildingBlock: XOMCOT_clean_sbu_0, # of connection points: 5
#     Edge 12, Type (0, 0), BuildingBlock: OJICUG_clean_linker_0, # of connection points: 2
#     Edge 13, Type (0, 0), BuildingBlock: OJICUG_clean_linker_0, # of connection points: 2
#     Edge 14, Type (0, 0), BuildingBlock: OJICUG_clean_linker_0, # of connection points: 2
#     Edge 15, Type (0, 0), BuildingBlock: OJICUG_clean_linker_0, # of connection points: 2
#     Edge 16, Type (0, 0), BuildingBlock: OJICUG_clean_linker_0, # of connection points: 2
#     Edge 17, Type (0, 0), BuildingBlock: OJICUG_clean_linker_0, # of connection points: 2
#     Edge 18, Type (0, 0), BuildingBlock: OJICUG_clean_linker_0, # of connection points: 2
#     Edge 19, Type (0, 0), BuildingBlock: OJICUG_clean_linker_0, # of connection points: 2
#     Edge 20, Type (0, 0), BuildingBlock: OJICUG_clean_linker_0, # of connection points: 2
#     Edge 21, Type (0, 0), BuildingBlock: OJICUG_clean_linker_0, # of connection points: 2
#     Edge 22, Type (0, 0), BuildingBlock: OJICUG_clean_linker_0, # of connection points: 2
#     Edge 23, Type (0, 0), BuildingBlock: OJICUG_clean_linker_0, # of connection points: 2
#     Edge 24, Type (0, 0), BuildingBlock: OJICUG_clean_linker_0, # of connection points: 2
#     Edge 25, Type (0, 0), BuildingBlock: OJICUG_clean_linker_0, # of connection points: 2
#     Edge 26, Type (0, 0), BuildingBlock: OJICUG_clean_linker_0, # of connection points: 2
#     Edge 27, Type (0, 0), BuildingBlock: OJICUG_clean_linker_0, # of connection points: 2
#     Edge 28, Type (0, 0), BuildingBlock: OJICUG_clean_linker_0, # of connection points: 2
#     Edge 29, Type (0, 0), BuildingBlock: OJICUG_clean_linker_0, # of connection points: 2
#     Edge 30, Type (0, 0), BuildingBlock: OJICUG_clean_linker_0, # of connection points: 2
#     Edge 31, Type (0, 0), BuildingBlock: OJICUG_clean_linker_0, # of connection points: 2
#     Edge 32, Type (0, 0), BuildingBlock: OJICUG_clean_linker_0, # of connection points: 2
#     Edge 33, Type (0, 0), BuildingBlock: OJICUG_clean_linker_0, # of connection points: 2
#     Edge 34, Type (0, 0), BuildingBlock: OJICUG_clean_linker_0, # of connection points: 2
#     Edge 35, Type (0, 0), BuildingBlock: OJICUG_clean_linker_0, # of connection points: 2
#     Edge 36, Type (0, 0), BuildingBlock: OJICUG_clean_linker_0, # of connection points: 2
#     Edge 37, Type (0, 0), BuildingBlock: OJICUG_clean_linker_0, # of connection points: 2
#     Edge 38, Type (0, 0), BuildingBlock: OJICUG_clean_linker_0, # of connection points: 2
#     Edge 39, Type (0, 0), BuildingBlock: OJICUG_clean_linker_0, # of connection points: 2
#     Edge 40, Type (0, 0), BuildingBlock: OJICUG_clean_linker_0, # of connection points: 2
#     Edge 41, Type (0, 0), BuildingBlock: OJICUG_clean_linker_0, # of connection points: 2
# Relax obj value: 0.236
# Max RMSD: 0.186
# Mean RMSD: 0.186
data_MOF--net-wjt--node1-XOMCOT_clean_sbu_0--edge1-OJICUG_clean_linker_0
_symmetry_space_group_name_H-M    P1
_symmetry_Int_Tables_number       1
_symmetry_cell_setting            triclinic
loop_
_symmetry_equiv_pos_as_xyz
'x, y, z'
_cell_length_a     49.755941
_cell_length_b     49.648463
_cell_length_c     13.408527
_cell_angle_alpha  90.077816
_cell_angle_beta   90.155262
_cell_angle_gamma 120.07035
loop_
_atom_site_label
_atom_site_type_symbol
_atom_site_fract_x
_atom_site_fract_y
_atom_site_fract_z
_atom_type_partial_charge
Co0 Co 0.31813 0.42252 0.23019 0.0
C1 C 0.31597 0.4251 0.44928 0.0
C2 C 0.27038 0.40623 0.38722 0.0
C3 C 0.26812 0.40495 0.49012 0.0
N4 N 0.30059 0.41946 0.3618 0.0
N5 N 0.29697 0.41702 0.52848 0.0
H6 H 0.34026 0.43255 0.45598 0.0
H7 H 0.25118 0.39692 0.33505 0.0
C8 C 0.26934 0.44074 0.1772 0.0
O9 O 0.27732 0.45992 0.25349 0.0
N10 N 0.33505 0.42499 0.09941 0.0
C11 C 0.36506 0.44017 0.07188 0.0
C12 C 0.36629 0.44002 0.96905 0.0
C13 C 0.31853 0.41547 0.014 0.0
N14 N 0.33693 0.42467 0.93288 0.0
C15 C 0.36845 0.47796 0.31211 0.0
C16 C 0.36122 0.52171 0.20813 0.0
C17 C 0.38391 0.53184 0.28398 0.0
C18 C 0.38774 0.50927 0.33363 0.0
C19 C 0.3421 0.48958 0.18872 0.0
N20 N 0.34452 0.46794 0.24534 0.0
H21 H 0.37375 0.46196 0.3486 0.0
H22 H 0.32587 0.48241 0.12737 0.0
H23 H 0.38455 0.45171 0.1226 0.0
H24 H 0.29345 0.40356 0.01112 0.0
O25 O 0.34671 0.41112 0.2863 0.0
O26 O 0.30009 0.37716 0.22893 0.0
O27 O 0.28264 0.42477 0.163 0.0
C28 C 0.32578 0.38233 0.27201 0.0
H29 H 0.24691 0.39529 0.53302 0.0
H30 H 0.3872 0.45117 0.92463 0.0
H31 H 0.35828 0.53832 0.1641 0.0
H32 H 0.40632 0.51569 0.38724 0.0
Co33 Co 0.90508 0.31239 0.57577 0.0
C34 C 0.90901 0.3076 0.79468 0.0
C35 C 0.87279 0.26478 0.73454 0.0
C36 C 0.8735 0.26188 0.83663 0.0
N37 N 0.89444 0.29395 0.70841 0.0
N38 N 0.8962 0.28905 0.87441 0.0
H39 H 0.92842 0.331 0.79951 0.0
H40 H 0.8577 0.24646 0.68396 0.0
C41 C 0.83975 0.26215 0.51731 0.0
O42 O 0.82798 0.27165 0.58735 0.0
N43 N 0.916 0.3296 0.4439 0.0
C44 C 0.9294 0.35948 0.41423 0.0
C45 C 0.93162 0.36015 0.31135 0.0
C46 C 0.91066 0.3127 0.36021 0.0
N47 N 0.9195 0.3306 0.27833 0.0
C48 C 0.88811 0.3517 0.67841 0.0
C49 C 0.84816 0.35358 0.53973 0.0
C50 C 0.85526 0.37213 0.62635 0.0
C51 C 0.87558 0.37071 0.69555 0.0
C52 C 0.86153 0.33464 0.52516 0.0
N53 N 0.88074 0.33323 0.59578 0.0
H54 H 0.90563 0.35388 0.72943 0.0
H55 H 0.85705 0.32179 0.45609 0.0
H56 H 0.9364 0.37918 0.46349 0.0
H57 H 0.90043 0.28766 0.35881 0.0
O58 O 0.94358 0.34604 0.62492 0.0
O59 O 0.938 0.30152 0.5694 0.0
O60 O 0.86917 0.27371 0.51174 0.0
C61 C 0.95619 0.32924 0.60649 0.0
H62 H 0.85844 0.24126 0.87921 0.0
H63 H 0.94042 0.38054 0.26442 0.0
H64 H 0.83306 0.35417 0.48261 0.0
H65 H 0.88365 0.38575 0.76043 0.0
Co66 Co 0.601 0.89465 0.92021 0.0
C67 C 0.61661 0.90104 0.13591 0.0
C68 C 0.60691 0.85651 0.0811 0.0
C69 C 0.60969 0.85684 0.18343 0.0
N70 N 0.61029 0.88397 0.05125 0.0
N71 N 0.61513 0.88469 0.21809 0.0
H72 H 0.61948 0.92404 0.13855 0.0
H73 H 0.60085 0.83671 0.03375 0.0
C74 C 0.58453 0.83131 0.8391 0.0
O75 O 0.55928 0.8184 0.89354 0.0
N76 N 0.5945 0.90615 0.78827 0.0
C77 C 0.57877 0.92027 0.75818 0.0
C78 C 0.58015 0.92225 0.65516 0.0
C79 C 0.60623 0.90109 0.7046 0.0
N80 N 0.59727 0.90986 0.6219 0.0
C81 C 0.54474 0.86516 0.03802 0.0
C82 C 0.50279 0.84834 0.88356 0.0
C83 C 0.49234 0.84748 0.98166 0.0
C84 C 0.51359 0.85383 0.05888 0.0
C85 C 0.5343 0.85816 0.86581 0.0
N86 N 0.55556 0.86831 0.9424 0.0
H87 H 0.55979 0.87307 0.10132 0.0
H88 H 0.54155 0.85868 0.7897 0.0
H89 H 0.56636 0.9276 0.80709 0.0
H90 H 0.62138 0.89137 0.70432 0.0
O91 O 0.60373 0.93175 0.97267 0.0
O92 O 0.64409 0.92954 0.91417 0.0
O93 O 0.60529 0.85987 0.85336 0.0
C94 C 0.63315 0.94632 0.95283 0.0
H95 H 0.60553 0.83711 0.22878 0.0
H96 H 0.56863 0.93121 0.60864 0.0
H97 H 0.48734 0.84306 0.82042 0.0
H98 H 0.5068 0.85199 0.13631 0.0
Co99 Co 0.71072 0.59306 0.22199 0.0
C100 C 0.71561 0.59957 0.44109 0.0
C101 C 0.75692 0.60247 0.3829 0.0
C102 C 0.75944 0.60502 0.48571 0.0
N103 N 0.72885 0.59807 0.35504 0.0
N104 N 0.73309 0.60269 0.52137 0.0
H105 H 0.69295 0.59743 0.44622 0.0
H106 H 0.77461 0.60392 0.33326 0.0
C107 C 0.75867 0.57683 0.15337 0.0
O108 O 0.74717 0.55317 0.21514 0.0
N109 N 0.69377 0.58985 0.09024 0.0
C110 C 0.6638 0.57549 0.0616 0.0
C111 C 0.66276 0.57678 0.95899 0.0
C112 C 0.71041 0.60019 0.00584 0.0
N113 N 0.69219 0.59211 0.92402 0.0
C114 C 0.67455 0.53416 0.31802 0.0
C115 C 0.66413 0.49624 0.15494 0.0
C116 C 0.64873 0.48286 0.24471 0.0
C117 C 0.65492 0.50228 0.32713 0.0
C118 C 0.68479 0.52856 0.14991 0.0
N119 N 0.68965 0.54736 0.23106 0.0
H120 H 0.67533 0.54806 0.37999 0.0
H121 H 0.69591 0.53853 0.07965 0.0
H122 H 0.64418 0.56394 0.11133 0.0
H123 H 0.73546 0.61231 0.00418 0.0
O124 O 0.67727 0.5969 0.27612 0.0
O125 O 0.72165 0.63704 0.22711 0.0
O126 O 0.74933 0.59661 0.15657 0.0
C127 C 0.69418 0.6268 0.26643 0.0
H128 H 0.77866 0.60749 0.53065 0.0
H129 H 0.64184 0.56655 0.9141 0.0
H130 H 0.65951 0.48204 0.08871 0.0
H131 H 0.64258 0.49328 0.39666 0.0
Co132 Co 0.12878 0.71136 0.58594 0.0
C133 C 0.12553 0.7163 0.80512 0.0
C134 C 0.16154 0.75917 0.74587 0.0
C135 C 0.16102 0.762 0.84817 0.0
N136 N 0.13986 0.73 0.71899 0.0
N137 N 0.13839 0.7348 0.88531 0.0
H138 H 0.10624 0.69285 0.80959 0.0
H139 H 0.17653 0.77753 0.69571 0.0
C140 C 0.19344 0.76207 0.52618 0.0
O141 O 0.20584 0.75311 0.59593 0.0
N142 N 0.11745 0.69397 0.45399 0.0
C143 C 0.10491 0.66417 0.42363 0.0
C144 C 0.10288 0.6635 0.32062 0.0
C145 C 0.12248 0.7108 0.37053 0.0
N146 N 0.11429 0.69296 0.28821 0.0
C147 C 0.14694 0.67302 0.68768 0.0
C148 C 0.18751 0.6721 0.55036 0.0
C149 C 0.18105 0.654 0.63754 0.0
C150 C 0.16029 0.65483 0.70575 0.0
C151 C 0.1732 0.69017 0.53469 0.0
N152 N 0.15381 0.69123 0.60496 0.0
H153 H 0.12925 0.67042 0.73827 0.0
H154 H 0.17724 0.70271 0.46537 0.0
H155 H 0.09859 0.64458 0.47246 0.0
H156 H 0.13224 0.73577 0.36952 0.0
O157 O 0.09102 0.67754 0.63657 0.0
O158 O 0.09515 0.72136 0.58162 0.0
O159 O 0.16396 0.75023 0.52164 0.0
C160 C 0.07783 0.69399 0.62182 0.0
H161 H 0.17611 0.7826 0.89129 0.0
H162 H 0.09485 0.64321 0.27321 0.0
H163 H 0.20283 0.67184 0.49375 0.0
H164 H 0.15253 0.63995 0.77073 0.0
Co165 Co 0.42965 0.12567 0.92246 0.0
C166 C 0.41624 0.12044 0.13894 0.0
C167 C 0.42642 0.16509 0.08492 0.0
C168 C 0.42402 0.16494 0.18729 0.0
N169 N 0.42225 0.13734 0.05445 0.0
N170 N 0.41814 0.13695 0.22118 0.0
H171 H 0.41275 0.0972 0.14149 0.0
H172 H 0.43238 0.18485 0.03798 0.0
C173 C 0.44148 0.18813 0.8407 0.0
O174 O 0.46795 0.20314 0.88919 0.0
N175 N 0.43527 0.1135 0.79093 0.0
C176 C 0.45314 0.10173 0.7612 0.0
C177 C 0.45192 0.09972 0.65832 0.0
C178 C 0.42264 0.11735 0.70723 0.0
N179 N 0.43292 0.10989 0.6248 0.0
C180 C 0.48706 0.15197 0.03005 0.0
C181 C 0.5266 0.17766 0.87043 0.0
C182 C 0.53888 0.17579 0.96297 0.0
C183 C 0.51877 0.16392 0.04394 0.0
C184 C 0.49455 0.16625 0.86025 0.0
N185 N 0.47485 0.15273 0.93918 0.0
H186 H 0.47237 0.13967 0.09179 0.0
H187 H 0.48549 0.16693 0.78753 0.0
H188 H 0.46719 0.09646 0.81025 0.0
H189 H 0.40647 0.12585 0.70666 0.0
O190 O 0.42816 0.08917 0.9754 0.0
O191 O 0.38683 0.09045 0.92074 0.0
O192 O 0.42311 0.15901 0.85615 0.0
C193 C 0.39848 0.0742 0.95847 0.0
H194 H 0.42843 0.18468 0.23326 0.0
H195 H 0.46517 0.09274 0.61199 0.0
H196 H 0.5414 0.18654 0.80554 0.0
H197 H 0.52702 0.16111 0.11592 0.0
Co198 Co 0.60036 0.71266 0.41788 0.0
C199 C 0.61329 0.7202 0.20124 0.0
C200 C 0.60723 0.75723 0.25631 0.0
C201 C 0.60977 0.75949 0.15399 0.0
N202 N 0.60839 0.73186 0.28599 0.0
N203 N 0.61301 0.73576 0.11934 0.0
H204 H 0.61505 0.69943 0.19861 0.0
H205 H 0.60393 0.77279 0.30385 0.0
C206 C 0.5844 0.76114 0.4904 0.0
O207 O 0.56063 0.75034 0.42891 0.0
N208 N 0.59394 0.69478 0.54899 0.0
C209 C 0.57549 0.66516 0.57851 0.0
C210 C 0.57651 0.66442 0.68141 0.0
C211 C 0.60656 0.71129 0.63273 0.0
N212 N 0.59591 0.6936 0.71509 0.0
C213 C 0.54476 0.67671 0.30697 0.0
C214 C 0.50212 0.66677 0.45365 0.0
C215 C 0.49141 0.65058 0.36251 0.0
C216 C 0.51343 0.6565 0.28854 0.0
C217 C 0.53413 0.68724 0.46903 0.0
N218 N 0.55522 0.69215 0.39563 0.0
H219 H 0.56064 0.67761 0.25151 0.0
H220 H 0.54197 0.69822 0.54121 0.0
H221 H 0.56135 0.64585 0.52925 0.0
H222 H 0.62303 0.73599 0.63312 0.0
O223 O 0.60462 0.67889 0.36733 0.0
O224 O 0.64396 0.72288 0.42495 0.0
O225 O 0.60379 0.75137 0.48456 0.0
C226 C 0.63402 0.69515 0.38727 0.0
H227 H 0.60757 0.77631 0.10871 0.0
H228 H 0.56297 0.64421 0.7276 0.0
H229 H 0.48613 0.66289 0.51384 0.0
H230 H 0.507 0.64374 0.21879 0.0
Co231 Co 0.89749 0.594 0.75051 0.0
C232 C 0.90256 0.60599 0.53366 0.0
C233 C 0.86009 0.60118 0.58852 0.0
C234 C 0.86032 0.60363 0.48616 0.0
N235 N 0.88622 0.6016 0.61827 0.0
N236 N 0.88692 0.60613 0.45168 0.0
H237 H 0.92495 0.60753 0.53141 0.0
H238 H 0.84159 0.59865 0.63611 0.0
C239 C 0.83193 0.57583 0.81777 0.0
O240 O 0.81946 0.55237 0.75479 0.0
N241 N 0.9089 0.58773 0.88173 0.0
C242 C 0.92019 0.56942 0.91143 0.0
C243 C 0.92192 0.57039 0.01429 0.0
C244 C 0.90477 0.60014 0.96526 0.0
N245 N 0.91193 0.58957 0.04774 0.0
C246 C 0.88172 0.53898 0.64126 0.0
C247 C 0.84475 0.49522 0.77998 0.0
C248 C 0.85202 0.48495 0.69123 0.0
C249 C 0.87073 0.50767 0.62181 0.0
C250 C 0.85675 0.52725 0.79725 0.0
N251 N 0.87451 0.54883 0.72691 0.0
H252 H 0.89807 0.55537 0.58934 0.0
H253 H 0.85233 0.53468 0.86814 0.0
H254 H 0.92555 0.55547 0.86227 0.0
H255 H 0.89625 0.61634 0.96529 0.0
O256 O 0.93661 0.60065 0.70222 0.0
O257 O 0.92918 0.63823 0.76008 0.0
O258 O 0.86109 0.59539 0.81533 0.0
C259 C 0.9482 0.62989 0.72323 0.0
H260 H 0.84156 0.60206 0.44084 0.0
H261 H 0.92871 0.55696 0.06059 0.0
H262 H 0.83066 0.47888 0.83705 0.0
H263 H 0.87881 0.50181 0.55486 0.0
Co264 Co 0.31443 0.89185 0.09795 0.0
C265 C 0.30578 0.89668 0.88128 0.0
C266 C 0.27191 0.85185 0.9356 0.0
C267 C 0.26961 0.85183 0.83316 0.0
N268 N 0.29523 0.87981 0.96592 0.0
N269 N 0.29138 0.87993 0.79902 0.0
H270 H 0.32523 0.9201 0.87883 0.0
H271 H 0.25832 0.83211 0.98279 0.0
C272 C 0.26642 0.82885 0.17993 0.0
O273 O 0.27822 0.81491 0.12772 0.0
N274 N 0.3322 0.90432 0.22971 0.0
C275 C 0.36197 0.91707 0.25989 0.0
C276 C 0.36268 0.91888 0.36285 0.0
C277 C 0.31556 0.89969 0.31326 0.0
N278 N 0.33333 0.90758 0.39593 0.0
C279 C 0.34664 0.86694 0.98968 0.0
C280 C 0.36223 0.8424 0.14892 0.0
C281 C 0.37599 0.84436 0.05584 0.0
C282 C 0.36693 0.85569 0.97515 0.0
C283 C 0.34108 0.85312 0.1598 0.0
N284 N 0.33392 0.86599 0.08096 0.0
H285 H 0.3436 0.87885 0.92794 0.0
H286 H 0.33155 0.85225 0.23285 0.0
H287 H 0.38147 0.92317 0.2111 0.0
H288 H 0.29072 0.89034 0.31361 0.0
O289 O 0.34876 0.92884 0.04529 0.0
O290 O 0.30563 0.92631 0.09987 0.0
O291 O 0.2752 0.85756 0.16462 0.0
C292 C 0.33348 0.94316 0.06268 0.0
H293 H 0.25448 0.8319 0.78743 0.0
H294 H 0.38302 0.92654 0.40952 0.0
H295 H 0.3688 0.83394 0.21363 0.0
H296 H 0.37768 0.85858 0.90277 0.0
Co297 Co 0.42799 0.3137 0.43992 0.0
C298 C 0.43104 0.31289 0.22355 0.0
C299 C 0.41128 0.26636 0.27963 0.0
C300 C 0.41076 0.26527 0.17673 0.0
N301 N 0.42396 0.2963 0.30846 0.0
N302 N 0.42314 0.29461 0.14193 0.0
H303 H 0.44048 0.33781 0.22176 0.0
H304 H 0.40229 0.24658 0.32886 0.0
C305 C 0.41346 0.25333 0.53264 0.0
O306 O 0.38419 0.24376 0.51238 0.0
N307 N 0.43214 0.3315 0.57172 0.0
C308 C 0.4448 0.36164 0.59866 0.0
C309 C 0.44464 0.36345 0.70137 0.0
C310 C 0.42368 0.31552 0.65801 0.0
N311 N 0.43142 0.33433 0.73826 0.0
C312 C 0.48255 0.37018 0.38701 0.0
C313 C 0.52304 0.34747 0.37548 0.0
C314 C 0.53293 0.37787 0.34295 0.0
C315 C 0.51238 0.3892 0.35067 0.0
C316 C 0.49247 0.32877 0.41015 0.0
N317 N 0.47252 0.34021 0.41547 0.0
H318 H 0.4672 0.37957 0.38791 0.0
H319 H 0.4848 0.30487 0.42871 0.0
H320 H 0.45371 0.38112 0.54822 0.0
H321 H 0.41266 0.29061 0.6629 0.0
O322 O 0.41444 0.34106 0.38698 0.0
O323 O 0.38262 0.29453 0.44855 0.0
O324 O 0.4345 0.28018 0.50262 0.0
C325 C 0.3863 0.3198 0.40653 0.0
H326 H 0.40161 0.24446 0.13128 0.0
H327 H 0.45365 0.38456 0.74525 0.0
H328 H 0.53837 0.33793 0.37081 0.0
H329 H 0.51924 0.41271 0.3279 0.0
Co330 Co 0.13612 0.43257 0.75946 0.0
C331 C 0.13203 0.42025 0.54195 0.0
C332 C 0.17603 0.4294 0.59848 0.0
C333 C 0.17633 0.42753 0.4959 0.0
N334 N 0.14842 0.42567 0.62757 0.0
N335 N 0.14874 0.42232 0.46046 0.0
H336 H 0.10892 0.41693 0.53826 0.0
H337 H 0.1953 0.43436 0.64666 0.0
C338 C 0.20005 0.44876 0.84021 0.0
O339 O 0.21402 0.47388 0.7851 0.0
N340 N 0.12375 0.43815 0.89028 0.0
C341 C 0.11265 0.45662 0.91996 0.0
C342 C 0.11127 0.45598 0.02293 0.0
C343 C 0.12806 0.42594 0.97413 0.0
N344 N 0.12133 0.43688 0.05654 0.0
C345 C 0.15543 0.48836 0.65221 0.0
C346 C 0.18985 0.53118 0.79769 0.0
C347 C 0.18477 0.54209 0.70633 0.0
C348 C 0.16729 0.51979 0.63363 0.0
C349 C 0.17688 0.49899 0.81405 0.0
N350 N 0.1605 0.47788 0.74036 0.0
H351 H 0.14004 0.47239 0.59695 0.0
H352 H 0.17965 0.49112 0.88648 0.0
H353 H 0.10752 0.47073 0.87082 0.0
H354 H 0.13665 0.4098 0.97477 0.0
O355 O 0.0984 0.42804 0.7056 0.0
O356 O 0.10278 0.38864 0.76195 0.0
O357 O 0.17112 0.42909 0.82765 0.0
C358 C 0.0853 0.39835 0.72085 0.0
H359 H 0.19608 0.43164 0.45105 0.0
H360 H 0.10489 0.46975 0.06926 0.0
H361 H 0.20294 0.54711 0.85737 0.0
H362 H 0.16071 0.52603 0.56423 0.0
Co363 Co 0.71656 0.12916 0.0923 0.0
C364 C 0.72619 0.12352 0.87666 0.0
C365 C 0.75954 0.16864 0.93205 0.0
C366 C 0.762 0.16857 0.82969 0.0
N367 N 0.73641 0.14058 0.96153 0.0
N368 N 0.74052 0.14031 0.79473 0.0
H369 H 0.70677 0.10009 0.87361 0.0
H370 H 0.77236 0.18863 0.97968 0.0
C371 C 0.76312 0.19216 0.17815 0.0
O372 O 0.74967 0.20517 0.12965 0.0
N373 N 0.69869 0.11706 0.22398 0.0
C374 C 0.66881 0.10248 0.25356 0.0
C375 C 0.66823 0.10059 0.35659 0.0
C376 C 0.71552 0.12248 0.30799 0.0
N377 N 0.69778 0.11351 0.39037 0.0
C378 C 0.6888 0.15809 0.97601 0.0
C379 C 0.66341 0.17401 0.13132 0.0
C380 C 0.65353 0.17487 0.03343 0.0
C381 C 0.66851 0.16894 0.95578 0.0
C382 C 0.68551 0.16467 0.14846 0.0
N383 N 0.6969 0.15509 0.0714 0.0
H384 H 0.69588 0.15027 0.91247 0.0
H385 H 0.69239 0.16408 0.22447 0.0
H386 H 0.64904 0.0949 0.20432 0.0
H387 H 0.74046 0.1327 0.30888 0.0
O388 O 0.68242 0.09205 0.03858 0.0
O389 O 0.72524 0.09456 0.09665 0.0
O390 O 0.75568 0.1639 0.15962 0.0
C391 C 0.69758 0.07768 0.05734 0.0
H392 H 0.77679 0.18863 0.78448 0.0
H393 H 0.64772 0.09142 0.40278 0.0
H394 H 0.65314 0.1789 0.19479 0.0
H395 H 0.66325 0.1707 0.87849 0.0
C396 C 0.23109 0.41547 0.03587 0.0
C397 C 0.24938 0.44178 0.09604 0.0
H398 H 0.20044 0.39673 0.90898 0.0
C399 C 0.25069 0.46994 0.07201 0.0
H400 H 0.22976 0.39347 0.05219 0.0
C401 C 0.23498 0.47204 0.98807 0.0
C402 C 0.21681 0.44584 0.92771 0.0
H403 H 0.2648 0.49069 0.11597 0.0
H404 H 0.23685 0.49423 0.97072 0.0
C405 C 0.21444 0.41733 0.95372 0.0
C406 C 0.80991 0.20792 0.29026 0.0
C407 C 0.78283 0.2088 0.26619 0.0
H408 H 0.84964 0.22461 0.38768 0.0
C409 C 0.77391 0.22571 0.32863 0.0
H410 H 0.81727 0.19495 0.24381 0.0
C411 C 0.79167 0.24167 0.41232 0.0
C412 C 0.8194 0.24191 0.43483 0.0
H413 H 0.75292 0.22647 0.31301 0.0
H414 H 0.78414 0.25474 0.45757 0.0
C415 C 0.82834 0.2248 0.37277 0.0
C416 C 0.61365 0.80029 0.62863 0.0
C417 C 0.58582 0.78095 0.57644 0.0
H418 H 0.63542 0.83209 0.75179 0.0
C419 C 0.55822 0.77878 0.61153 0.0
H420 H 0.6353 0.80234 0.60391 0.0
C421 C 0.55816 0.79479 0.69733 0.0
C422 C 0.5858 0.81414 0.74965 0.0
H423 H 0.5363 0.76393 0.57422 0.0
H424 H 0.5363 0.79225 0.72214 0.0
C425 C 0.61372 0.8172 0.71343 0.0
C426 C 0.8192 0.60524 0.94589 0.0
C427 C 0.81293 0.57694 0.90153 0.0
H428 H 0.80647 0.62759 0.05925 0.0
C429 C 0.78926 0.54901 0.94207 0.0
H430 H 0.83745 0.62714 0.91675 0.0
C431 C 0.7725 0.54924 0.02542 0.0
C432 C 0.77832 0.57743 0.06903 0.0
H433 H 0.78411 0.5268 0.91069 0.0
H434 H 0.75445 0.52722 0.05456 0.0
C435 C 0.8016 0.60551 0.02762 0.0
C436 C 0.20399 0.79891 0.38167 0.0
C437 C 0.21298 0.78147 0.44181 0.0
H438 H 0.21419 0.82828 0.25244 0.0
C439 C 0.23974 0.7804 0.41535 0.0
H440 H 0.18337 0.80004 0.39967 0.0
C441 C 0.25652 0.79547 0.32966 0.0
C442 C 0.24757 0.81278 0.2693 0.0
H443 H 0.2472 0.76697 0.45904 0.0
H444 H 0.2768 0.79378 0.311 0.0
C445 C 0.22149 0.81493 0.29724 0.0
C446 C 0.39878 0.2056 0.63649 0.0
C447 C 0.42124 0.23585 0.60684 0.0
H448 H 0.38729 0.1669 0.73317 0.0
C449 C 0.45027 0.25019 0.65529 0.0
H450 H 0.37611 0.19384 0.60121 0.0
C451 C 0.45651 0.23491 0.73205 0.0
C452 C 0.43401 0.20472 0.7622 0.0
H453 H 0.46805 0.27356 0.63543 0.0
H454 H 0.47915 0.2468 0.76745 0.0
C455 C 0.40511 0.19019 0.71278 0.0
C456 C 0.44308 0.60347 0.42549 0.0
C457 C 0.45885 0.6243 0.34749 0.0
H458 H 0.40623 0.55848 0.46714 0.0
C459 C 0.44545 0.61673 0.25118 0.0
H460 H 0.45233 0.60829 0.50067 0.0
C461 C 0.41944 0.58751 0.23115 0.0
C462 C 0.40584 0.56539 0.30739 0.0
H463 H 0.45629 0.63259 0.18956 0.0
H464 H 0.41154 0.58155 0.15474 0.0
C465 C 0.41677 0.57455 0.40579 0.0
C466 C 0.84249 0.43296 0.75509 0.0
C467 C 0.84409 0.45181 0.6746 0.0
H468 H 0.84257 0.39201 0.803 0.0
C469 C 0.84229 0.44013 0.57713 0.0
H470 H 0.84339 0.44051 0.83135 0.0
C471 C 0.84346 0.41285 0.56072 0.0
C472 C 0.84542 0.3959 0.64145 0.0
H473 H 0.84186 0.453 0.51266 0.0
H474 H 0.84506 0.40645 0.4847 0.0
C475 C 0.8426 0.40516 0.73862 0.0
C476 C 0.45726 0.8585 0.08844 0.0
C477 C 0.46094 0.84324 0.00498 0.0
H478 H 0.42757 0.86987 0.17102 0.0
C479 C 0.43492 0.82569 0.94317 0.0
H480 H 0.47665 0.87328 0.13647 0.0
C481 C 0.40658 0.82445 0.96247 0.0
C482 C 0.40345 0.84026 0.04492 0.0
H483 H 0.43649 0.81333 0.87894 0.0
H484 H 0.3873 0.81179 0.91149 0.0
C485 C 0.42892 0.85668 0.10871 0.0
C486 C 0.61964 0.4321 0.33565 0.0
C487 C 0.62247 0.45034 0.25159 0.0
H488 H 0.5888 0.39424 0.43 0.0
C489 C 0.59681 0.44044 0.18768 0.0
H490 H 0.63908 0.43926 0.38625 0.0
C491 C 0.56805 0.41493 0.21332 0.0
C492 C 0.5645 0.39865 0.30268 0.0
H493 H 0.59817 0.45414 0.12306 0.0
H494 H 0.54804 0.40927 0.16686 0.0
C495 C 0.5909 0.40635 0.36076 0.0
C496 C 0.19453 0.59432 0.76956 0.0
C497 C 0.19341 0.57543 0.68962 0.0
H498 H 0.19407 0.6352 0.81591 0.0
C499 C 0.19614 0.58727 0.59201 0.0
H500 H 0.19312 0.58684 0.84602 0.0
C501 C 0.19473 0.61435 0.5744 0.0
C502 C 0.19188 0.63107 0.65425 0.0
H503 H 0.1973 0.57459 0.52802 0.0
H504 H 0.19355 0.62067 0.49798 0.0
C505 C 0.19446 0.62206 0.752 0.0
C506 C 0.60697 0.16338 0.92732 0.0
C507 C 0.626 0.17864 0.01085 0.0
H508 H 0.5655 0.15147 0.84564 0.0
C509 C 0.61725 0.19571 0.07359 0.0
H510 H 0.6118 0.14896 0.87853 0.0
C511 C 0.58979 0.19641 0.05525 0.0
C512 C 0.57075 0.18055 0.97282 0.0
H513 H 0.63124 0.20808 0.13786 0.0
H514 H 0.58298 0.20867 0.10697 0.0
C515 C 0.58009 0.16468 0.90801 0.0
C516 C 0.33899 0.35876 0.41244 0.0
C517 C 0.33122 0.35771 0.31109 0.0
H518 H 0.36173 0.34607 0.5235 0.0
C519 C 0.33601 0.33834 0.24619 0.0
H520 H 0.33599 0.37399 0.46346 0.0
C521 C 0.35098 0.32248 0.28069 0.0
C522 C 0.36077 0.32542 0.38065 0.0
H523 H 0.33095 0.33781 0.16735 0.0
H524 H 0.35731 0.31018 0.22749 0.0
C525 C 0.35353 0.34265 0.44702 0.0
C526 C 0.03986 0.391 0.62211 0.0
C527 C 0.05294 0.3778 0.68452 0.0
H528 H 0.99951 0.38558 0.54755 0.0
C529 C 0.03451 0.34625 0.71135 0.0
H530 H 0.05329 0.41498 0.59796 0.0
C531 C 1.0031 0.329 0.68051 0.0
C532 C 0.99001 0.3432 0.62256 0.0
H533 H 0.04395 0.33536 0.75886 0.0
H534 H 0.98875 0.30531 0.70626 0.0
C535 C 1.00897 0.37405 0.59213 0.0
C536 C 0.69947 0.0279 0.02321 0.0
C537 C 0.68294 0.04401 0.03169 0.0
H538 H 0.69694 0.98404 0.98929 0.0
C539 C 0.65094 0.02783 0.01092 0.0
H540 H 0.7242 0.03978 0.03798 0.0
C541 C 0.63571 0.99664 0.98346 0.0
C542 C 0.65177 0.98022 0.97506 0.0
H543 H 0.63728 0.03924 0.0164 0.0
H544 H 0.61096 0.98531 0.96892 0.0
C545 C 0.68397 0.99616 0.99439 0.0
C546 C 0.68192 0.696 0.31783 0.0
C547 C 0.65355 0.6809 0.3697 0.0
H548 H 0.7174 0.69071 0.24259 0.0
C549 C 0.64064 0.64933 0.39282 0.0
H550 H 0.69212 0.7203 0.29791 0.0
C551 C 0.6547 0.63266 0.36147 0.0
C552 C 0.68212 0.64688 0.30487 0.0
H553 H 0.61886 0.63709 0.43284 0.0
H554 H 0.64337 0.60815 0.37987 0.0
C555 C 0.69617 0.67903 0.28545 0.0
C556 C 0.03284 0.65589 0.72106 0.0
C557 C 0.04533 0.68155 0.65616 0.0
H558 H 0.99263 0.6202 0.79374 0.0
C559 C 0.02607 0.69308 0.62356 0.0
H560 H 0.04696 0.64663 0.74956 0.0
C561 C 0.9944 0.6778 0.65084 0.0
C562 C 0.98192 0.65099 0.71092 0.0
H563 H 0.03505 0.71288 0.57388 0.0
H564 H 0.97942 0.68578 0.62055 0.0
C565 C 1.00166 0.64079 0.74742 0.0
C566 C 0.39638 0.02487 0.00395 0.0
C567 C 0.3801 0.0406 0.98416 0.0
H568 H 0.39457 0.98265 0.04475 0.0
C569 C 0.34748 0.02411 0.99294 0.0
H570 H 0.42145 0.03662 0.99814 0.0
C571 C 0.33169 0.99243 0.02126 0.0
C572 C 0.34839 0.9769 0.03967 0.0
H573 H 0.3343 0.03567 0.9788 0.0
H574 H 0.30662 0.98003 0.02688 0.0
C575 C 0.38085 0.99367 0.03083 0.0
C576 C 0.28675 0.39754 0.70228 0.0
C577 C 0.30642 0.41916 0.63132 0.0
H578 H 0.28135 0.38169 0.85308 0.0
C579 C 0.33627 0.44244 0.66119 0.0
H580 H 0.26379 0.37911 0.6813 0.0
C581 C 0.3464 0.44396 0.75926 0.0
C582 C 0.32691 0.42224 0.8304 0.0
H583 H 0.35181 0.4598 0.60874 0.0
H584 H 0.36931 0.46258 0.77953 0.0
C585 C 0.29692 0.399 0.80067 0.0
C586 C 0.88709 0.29194 0.15133 0.0
C587 C 0.91434 0.3196 0.17716 0.0
H588 H 0.85973 0.26069 0.03533 0.0
C589 C 0.93634 0.3361 0.10338 0.0
H590 H 0.86962 0.27891 0.207 0.0
C591 C 0.93106 0.32533 0.00502 0.0
C592 C 0.90325 0.29816 0.97785 0.0
H593 H 0.95773 0.35718 0.12212 0.0
H594 H 0.94881 0.33856 0.95062 0.0
C595 C 0.88152 0.28141 0.05278 0.0
C596 C 0.60525 0.91583 0.3429 0.0
C597 C 0.61282 0.89263 0.32039 0.0
H598 H 0.59476 0.93971 0.45559 0.0
C599 C 0.61598 0.87593 0.39959 0.0
H600 H 0.60201 0.92898 0.28475 0.0
C601 C 0.61102 0.88168 0.49787 0.0
C602 C 0.60314 0.90462 0.52021 0.0
H603 H 0.62191 0.85806 0.38588 0.0
H604 H 0.61271 0.86747 0.55583 0.0
C605 C 0.60057 0.92177 0.44141 0.0
C606 C 0.7338 0.61634 0.79642 0.0
C607 C 0.70246 0.5958 0.82164 0.0
H608 H 0.76821 0.63429 0.6808 0.0
C609 C 0.68172 0.57773 0.7456 0.0
H610 H 0.75055 0.63107 0.85191 0.0
C611 C 0.69195 0.58001 0.64774 0.0
C612 C 0.7232 0.60027 0.62313 0.0
H613 H 0.65766 0.56126 0.76137 0.0
H614 H 0.67542 0.56541 0.5913 0.0
C615 C 0.7441 0.6183 0.69832 0.0
C616 C 0.14696 0.73178 0.16282 0.0
C617 C 0.11971 0.70403 0.18729 0.0
H618 H 0.17451 0.76317 0.04807 0.0
C619 C 0.09793 0.6875 0.11243 0.0
H620 H 0.16425 0.74483 0.21944 0.0
C621 C 0.10339 0.69835 0.01437 0.0
C622 C 0.13121 0.7256 0.98848 0.0
H623 H 0.07655 0.66637 0.13011 0.0
H624 H 0.08573 0.6851 0.95924 0.0
C625 C 0.15274 0.74237 0.06449 0.0
C626 C 0.4186 0.13757 0.50088 0.0
C627 C 0.42746 0.11536 0.52304 0.0
H628 H 0.40804 0.16132 0.38822 0.0
C629 C 0.43187 0.09945 0.44405 0.0
H630 H 0.41546 0.15076 0.55929 0.0
C631 C 0.42814 0.10599 0.34541 0.0
C632 C 0.41973 0.12855 0.32316 0.0
H633 H 0.43847 0.08209 0.45825 0.0
H634 H 0.43283 0.09392 0.28695 0.0
C635 C 0.41468 0.14399 0.40232 0.0
C636 C 0.60106 0.69432 0.99429 0.0
C637 C 0.61075 0.72564 0.01707 0.0
H638 H 0.58926 0.65978 0.8811 0.0
C639 C 0.61637 0.74634 0.93816 0.0
H640 H 0.59587 0.67735 0.05231 0.0
C641 C 0.61181 0.73592 0.83949 0.0
C642 C 0.60177 0.70454 0.81692 0.0
H643 H 0.62398 0.77058 0.9524 0.0
H644 H 0.61546 0.75247 0.78135 0.0
C645 C 0.59675 0.68398 0.89558 0.0
C646 C 0.92237 0.59023 0.22818 0.0
C647 C 0.90686 0.59533 0.14947 0.0
H648 H 0.92807 0.58909 0.38481 0.0
C649 C 0.88558 0.60533 0.17188 0.0
H650 H 0.93906 0.5828 0.21384 0.0
C651 C 0.87975 0.60977 0.27051 0.0
C652 C 0.89475 0.604 0.34948 0.0
H653 H 0.87271 0.60905 0.11367 0.0
H654 H 0.86318 0.61738 0.28461 0.0
C655 C 0.91631 0.59437 0.32681 0.0
C656 C 0.29167 0.87844 0.51914 0.0
C657 C 0.32237 0.90171 0.49746 0.0
H658 H 0.25759 0.85382 0.63113 0.0
C659 C 0.34227 0.91844 0.57666 0.0
H660 H 0.27572 0.86459 0.46049 0.0
C661 C 0.33195 0.91179 0.67511 0.0
C662 C 0.30134 0.88829 0.69701 0.0
H663 H 0.36592 0.93658 0.56273 0.0
H664 H 0.34844 0.92462 0.73367 0.0
C665 C 0.28128 0.87193 0.61752 0.0
C666 C 0.40582 0.29459 0.86955 0.0
C667 C 0.42855 0.32483 0.84109 0.0
H668 H 0.38623 0.26131 0.98724 0.0
C669 C 0.44944 0.34493 0.91355 0.0
H670 H 0.38903 0.27863 0.81615 0.0
C671 C 0.44784 0.33491 0.01181 0.0
C672 C 0.42528 0.30458 0.03995 0.0
H673 H 0.46755 0.36814 0.89392 0.0
H674 H 0.46464 0.35079 0.06538 0.0
C675 C 0.40426 0.28457 0.9677 0.0
C676 C 0.15634 0.41966 0.27907 0.0
C677 C 0.14068 0.42432 0.35821 0.0
H678 H 0.16305 0.42055 0.12187 0.0
C679 C 0.118 0.43253 0.33578 0.0
H680 H 0.17384 0.41326 0.29319 0.0
C681 C 0.11136 0.43618 0.23717 0.0
C682 C 0.12728 0.43191 0.15826 0.0
H683 H 0.10578 0.43701 0.39406 0.0
H684 H 0.09381 0.4425 0.22286 0.0
C685 C 0.14981 0.42349 0.18041 0.0
C686 C 0.73939 0.14291 0.51487 0.0
C687 C 0.70887 0.11922 0.49224 0.0
H688 H 0.77358 0.16754 0.62742 0.0
C689 C 0.68938 0.10181 0.57089 0.0
H690 H 0.75507 0.15733 0.45693 0.0
C691 C 0.69993 0.10818 0.66957 0.0
C692 C 0.73038 0.13209 0.69235 0.0
H693 H 0.66587 0.08333 0.55644 0.0
H694 H 0.68371 0.09478 0.72762 0.0
C695 C 0.75002 0.14911 0.61335 0.0
loop_
_geom_bond_atom_site_label_1
_geom_bond_atom_site_label_2
_geom_bond_distance
_geom_bond_site_symmetry_2
_ccdc_geom_bond_type
Co0 N4 2.148 . S
Co0 N10 2.128 . S
Co0 N20 2.194 . S
Co0 O25 2.351 . S
Co0 O26 2.155 . S
Co0 O27 2.096 . S
C1 N4 1.301 . S
C1 N5 1.328 . S
C1 H6 0.930 . S
C2 C3 1.333 . S
C2 N4 1.317 . S
C2 H7 0.930 . S
C3 C2 1.333 . S
C3 N5 1.350 . S
C3 H29 0.931 . S
N4 Co0 2.148 . S
N4 C1 1.301 . S
N4 C2 1.317 . S
N5 C1 1.328 . S
N5 C3 1.350 . S
H6 C1 0.930 . S
H7 C2 0.930 . S
C8 O9 1.224 . S
C8 O27 1.247 . S
O9 C8 1.224 . S
N10 Co0 2.128 . S
N10 C11 1.355 . S
N10 C13 1.311 . S
C11 N10 1.355 . S
C11 C12 1.363 1_554 S
C11 H23 0.929 . S
C12 C11 1.363 1_556 S
C12 N14 1.375 . S
C12 H30 0.931 . S
C13 N10 1.311 . S
C13 N14 1.347 1_554 S
C13 H24 0.929 . S
N14 C12 1.375 . S
N14 C13 1.347 1_556 S
C15 C18 1.365 . S
C15 N20 1.328 . S
C15 H21 0.929 . S
C16 C17 1.362 . S
C16 C19 1.378 . S
C16 H31 0.929 . S
C17 C16 1.362 . S
C17 C18 1.366 . S
C18 C15 1.365 . S
C18 C17 1.366 . S
C18 H32 0.930 . S
C19 C16 1.378 . S
C19 N20 1.315 . S
C19 H22 0.930 . S
N20 Co0 2.194 . S
N20 C15 1.328 . S
N20 C19 1.315 . S
H21 C15 0.929 . S
H22 C19 0.930 . S
H23 C11 0.929 . S
H24 C13 0.929 . S
O25 Co0 2.351 . S
O25 C28 1.244 . S
O26 Co0 2.155 . S
O26 C28 1.240 . S
O27 Co0 2.096 . S
O27 C8 1.247 . S
C28 O25 1.244 . S
C28 O26 1.240 . S
H29 C3 0.931 . S
H30 C12 0.931 . S
H31 C16 0.929 . S
H32 C18 0.930 . S
Co33 N37 2.148 . S
Co33 N43 2.128 . S
Co33 N53 2.194 . S
Co33 O58 2.351 . S
Co33 O59 2.155 . S
Co33 O60 2.096 . S
C34 N37 1.301 . S
C34 N38 1.328 . S
C34 H39 0.930 . S
C35 C36 1.333 . S
C35 N37 1.317 . S
C35 H40 0.930 . S
C36 C35 1.333 . S
C36 N38 1.350 . S
C36 H62 0.931 . S
N37 Co33 2.148 . S
N37 C34 1.301 . S
N37 C35 1.317 . S
N38 C34 1.328 . S
N38 C36 1.350 . S
H39 C34 0.930 . S
H40 C35 0.930 . S
C41 O42 1.224 . S
C41 O60 1.247 . S
O42 C41 1.224 . S
N43 Co33 2.128 . S
N43 C44 1.355 . S
N43 C46 1.311 . S
C44 N43 1.355 . S
C44 C45 1.363 . S
C44 H56 0.929 . S
C45 C44 1.363 . S
C45 N47 1.375 . S
C45 H63 0.931 . S
C46 N43 1.311 . S
C46 N47 1.347 . S
C46 H57 0.929 . S
N47 C45 1.375 . S
N47 C46 1.347 . S
C48 C51 1.365 . S
C48 N53 1.328 . S
C48 H54 0.929 . S
C49 C50 1.362 . S
C49 C52 1.378 . S
C49 H64 0.929 . S
C50 C49 1.362 . S
C50 C51 1.366 . S
C51 C48 1.365 . S
C51 C50 1.366 . S
C51 H65 0.930 . S
C52 C49 1.378 . S
C52 N53 1.315 . S
C52 H55 0.930 . S
N53 Co33 2.194 . S
N53 C48 1.328 . S
N53 C52 1.315 . S
H54 C48 0.929 . S
H55 C52 0.930 . S
H56 C44 0.929 . S
H57 C46 0.929 . S
O58 Co33 2.351 . S
O58 C61 1.244 . S
O59 Co33 2.155 . S
O59 C61 1.240 . S
O60 Co33 2.096 . S
O60 C41 1.247 . S
C61 O58 1.244 . S
C61 O59 1.240 . S
H62 C36 0.931 . S
H63 C45 0.931 . S
H64 C49 0.929 . S
H65 C51 0.930 . S
Co66 N70 2.148 1_556 S
Co66 N76 2.128 . S
Co66 N86 2.194 . S
Co66 O91 2.351 . S
Co66 O92 2.155 . S
Co66 O93 2.096 . S
C67 N70 1.301 . S
C67 N71 1.328 . S
C67 H72 0.930 . S
C68 C69 1.333 . S
C68 N70 1.317 . S
C68 H73 0.930 . S
C69 C68 1.333 . S
C69 N71 1.350 . S
C69 H95 0.931 . S
N70 Co66 2.148 1_554 S
N70 C67 1.301 . S
N70 C68 1.317 . S
N71 C67 1.328 . S
N71 C69 1.350 . S
H72 C67 0.930 . S
H73 C68 0.930 . S
C74 O75 1.224 . S
C74 O93 1.247 . S
O75 C74 1.224 . S
N76 Co66 2.128 . S
N76 C77 1.355 . S
N76 C79 1.311 . S
C77 N76 1.355 . S
C77 C78 1.363 . S
C77 H89 0.929 . S
C78 C77 1.363 . S
C78 N80 1.375 . S
C78 H96 0.931 . S
C79 N76 1.311 . S
C79 N80 1.347 . S
C79 H90 0.929 . S
N80 C78 1.375 . S
N80 C79 1.347 . S
C81 C84 1.365 . S
C81 N86 1.328 . S
C81 H87 0.929 1_556 S
C82 C83 1.362 . S
C82 C85 1.378 . S
C82 H97 0.929 . S
C83 C82 1.362 . S
C83 C84 1.366 . S
C84 C81 1.365 . S
C84 C83 1.366 . S
C84 H98 0.930 1_556 S
C85 C82 1.378 . S
C85 N86 1.315 . S
C85 H88 0.930 . S
N86 Co66 2.194 . S
N86 C81 1.328 . S
N86 C85 1.315 . S
H87 C81 0.929 1_554 S
H88 C85 0.930 . S
H89 C77 0.929 . S
H90 C79 0.929 . S
O91 Co66 2.351 . S
O91 C94 1.244 . S
O92 Co66 2.155 . S
O92 C94 1.240 . S
O93 Co66 2.096 . S
O93 C74 1.247 . S
C94 O91 1.244 . S
C94 O92 1.240 . S
H95 C69 0.931 . S
H96 C78 0.931 . S
H97 C82 0.929 . S
H98 C84 0.930 1_554 S
Co99 N103 2.148 . S
Co99 N109 2.128 . S
Co99 N119 2.194 . S
Co99 O124 2.351 . S
Co99 O125 2.155 . S
Co99 O126 2.096 . S
C100 N103 1.301 . S
C100 N104 1.328 . S
C100 H105 0.930 . S
C101 C102 1.333 . S
C101 N103 1.317 . S
C101 H106 0.930 . S
C102 C101 1.333 . S
C102 N104 1.350 . S
C102 H128 0.931 . S
N103 Co99 2.148 . S
N103 C100 1.301 . S
N103 C101 1.317 . S
N104 C100 1.328 . S
N104 C102 1.350 . S
H105 C100 0.930 . S
H106 C101 0.930 . S
C107 O108 1.224 . S
C107 O126 1.247 . S
O108 C107 1.224 . S
N109 Co99 2.128 . S
N109 C110 1.355 . S
N109 C112 1.311 . S
C110 N109 1.355 . S
C110 C111 1.363 1_554 S
C110 H122 0.929 . S
C111 C110 1.363 1_556 S
C111 N113 1.375 . S
C111 H129 0.931 . S
C112 N109 1.311 . S
C112 N113 1.347 1_554 S
C112 H123 0.929 . S
N113 C111 1.375 . S
N113 C112 1.347 1_556 S
C114 C117 1.365 . S
C114 N119 1.328 . S
C114 H120 0.929 . S
C115 C116 1.362 . S
C115 C118 1.378 . S
C115 H130 0.929 . S
C116 C115 1.362 . S
C116 C117 1.366 . S
C117 C114 1.365 . S
C117 C116 1.366 . S
C117 H131 0.930 . S
C118 C115 1.378 . S
C118 N119 1.315 . S
C118 H121 0.930 . S
N119 Co99 2.194 . S
N119 C114 1.328 . S
N119 C118 1.315 . S
H120 C114 0.929 . S
H121 C118 0.930 . S
H122 C110 0.929 . S
H123 C112 0.929 . S
O124 Co99 2.351 . S
O124 C127 1.244 . S
O125 Co99 2.155 . S
O125 C127 1.240 . S
O126 Co99 2.096 . S
O126 C107 1.247 . S
C127 O124 1.244 . S
C127 O125 1.240 . S
H128 C102 0.931 . S
H129 C111 0.931 . S
H130 C115 0.929 . S
H131 C117 0.930 . S
Co132 N136 2.148 . S
Co132 N142 2.128 . S
Co132 N152 2.194 . S
Co132 O157 2.351 . S
Co132 O158 2.155 . S
Co132 O159 2.096 . S
C133 N136 1.301 . S
C133 N137 1.328 . S
C133 H138 0.930 . S
C134 C135 1.333 . S
C134 N136 1.317 . S
C134 H139 0.930 . S
C135 C134 1.333 . S
C135 N137 1.350 . S
C135 H161 0.931 . S
N136 Co132 2.148 . S
N136 C133 1.301 . S
N136 C134 1.317 . S
N137 C133 1.328 . S
N137 C135 1.350 . S
H138 C133 0.930 . S
H139 C134 0.930 . S
C140 O141 1.224 . S
C140 O159 1.247 . S
O141 C140 1.224 . S
N142 Co132 2.128 . S
N142 C143 1.355 . S
N142 C145 1.311 . S
C143 N142 1.355 . S
C143 C144 1.363 . S
C143 H155 0.929 . S
C144 C143 1.363 . S
C144 N146 1.375 . S
C144 H162 0.931 . S
C145 N142 1.311 . S
C145 N146 1.347 . S
C145 H156 0.929 . S
N146 C144 1.375 . S
N146 C145 1.347 . S
C147 C150 1.365 . S
C147 N152 1.328 . S
C147 H153 0.929 . S
C148 C149 1.362 . S
C148 C151 1.378 . S
C148 H163 0.929 . S
C149 C148 1.362 . S
C149 C150 1.366 . S
C150 C147 1.365 . S
C150 C149 1.366 . S
C150 H164 0.930 . S
C151 C148 1.378 . S
C151 N152 1.315 . S
C151 H154 0.930 . S
N152 Co132 2.194 . S
N152 C147 1.328 . S
N152 C151 1.315 . S
H153 C147 0.929 . S
H154 C151 0.930 . S
H155 C143 0.929 . S
H156 C145 0.929 . S
O157 Co132 2.351 . S
O157 C160 1.244 . S
O158 Co132 2.155 . S
O158 C160 1.240 . S
O159 Co132 2.096 . S
O159 C140 1.247 . S
C160 O157 1.244 . S
C160 O158 1.240 . S
H161 C135 0.931 . S
H162 C144 0.931 . S
H163 C148 0.929 . S
H164 C150 0.930 . S
Co165 N169 2.148 1_556 S
Co165 N175 2.128 . S
Co165 N185 2.194 . S
Co165 O190 2.351 . S
Co165 O191 2.155 . S
Co165 O192 2.096 . S
C166 N169 1.301 . S
C166 N170 1.328 . S
C166 H171 0.930 . S
C167 C168 1.333 . S
C167 N169 1.317 . S
C167 H172 0.930 . S
C168 C167 1.333 . S
C168 N170 1.350 . S
C168 H194 0.931 . S
N169 Co165 2.148 1_554 S
N169 C166 1.301 . S
N169 C167 1.317 . S
N170 C166 1.328 . S
N170 C168 1.350 . S
H171 C166 0.930 . S
H172 C167 0.930 . S
C173 O174 1.224 . S
C173 O192 1.247 . S
O174 C173 1.224 . S
N175 Co165 2.128 . S
N175 C176 1.355 . S
N175 C178 1.311 . S
C176 N175 1.355 . S
C176 C177 1.363 . S
C176 H188 0.929 . S
C177 C176 1.363 . S
C177 N179 1.375 . S
C177 H195 0.931 . S
C178 N175 1.311 . S
C178 N179 1.347 . S
C178 H189 0.929 . S
N179 C177 1.375 . S
N179 C178 1.347 . S
C180 C183 1.365 . S
C180 N185 1.328 . S
C180 H186 0.929 1_556 S
C181 C182 1.362 . S
C181 C184 1.378 . S
C181 H196 0.929 . S
C182 C181 1.362 . S
C182 C183 1.366 . S
C183 C180 1.365 . S
C183 C182 1.366 . S
C183 H197 0.930 1_556 S
C184 C181 1.378 . S
C184 N185 1.315 . S
C184 H187 0.930 . S
N185 Co165 2.194 . S
N185 C180 1.328 . S
N185 C184 1.315 . S
H186 C180 0.929 1_554 S
H187 C184 0.930 . S
H188 C176 0.929 . S
H189 C178 0.929 . S
O190 Co165 2.351 . S
O190 C193 1.244 . S
O191 Co165 2.155 . S
O191 C193 1.240 . S
O192 Co165 2.096 . S
O192 C173 1.247 . S
C193 O190 1.244 . S
C193 O191 1.240 . S
H194 C168 0.931 . S
H195 C177 0.931 . S
H196 C181 0.929 . S
H197 C183 0.930 1_554 S
Co198 N202 2.148 . S
Co198 N208 2.128 . S
Co198 N218 2.194 . S
Co198 O223 2.351 . S
Co198 O224 2.155 . S
Co198 O225 2.096 . S
C199 N202 1.301 . S
C199 N203 1.328 . S
C199 H204 0.930 . S
C200 C201 1.333 . S
C200 N202 1.317 . S
C200 H205 0.930 . S
C201 C200 1.333 . S
C201 N203 1.350 . S
C201 H227 0.931 . S
N202 Co198 2.148 . S
N202 C199 1.301 . S
N202 C200 1.317 . S
N203 C199 1.328 . S
N203 C201 1.350 . S
H204 C199 0.930 . S
H205 C200 0.930 . S
C206 O207 1.224 . S
C206 O225 1.247 . S
O207 C206 1.224 . S
N208 Co198 2.128 . S
N208 C209 1.355 . S
N208 C211 1.311 . S
C209 N208 1.355 . S
C209 C210 1.363 . S
C209 H221 0.929 . S
C210 C209 1.363 . S
C210 N212 1.375 . S
C210 H228 0.931 . S
C211 N208 1.311 . S
C211 N212 1.347 . S
C211 H222 0.929 . S
N212 C210 1.375 . S
N212 C211 1.347 . S
C213 C216 1.365 . S
C213 N218 1.328 . S
C213 H219 0.929 . S
C214 C215 1.362 . S
C214 C217 1.378 . S
C214 H229 0.929 . S
C215 C214 1.362 . S
C215 C216 1.366 . S
C216 C213 1.365 . S
C216 C215 1.366 . S
C216 H230 0.930 . S
C217 C214 1.378 . S
C217 N218 1.315 . S
C217 H220 0.930 . S
N218 Co198 2.194 . S
N218 C213 1.328 . S
N218 C217 1.315 . S
H219 C213 0.929 . S
H220 C217 0.930 . S
H221 C209 0.929 . S
H222 C211 0.929 . S
O223 Co198 2.351 . S
O223 C226 1.244 . S
O224 Co198 2.155 . S
O224 C226 1.240 . S
O225 Co198 2.096 . S
O225 C206 1.247 . S
C226 O223 1.244 . S
C226 O224 1.240 . S
H227 C201 0.931 . S
H228 C210 0.931 . S
H229 C214 0.929 . S
H230 C216 0.930 . S
Co231 N235 2.148 . S
Co231 N241 2.128 . S
Co231 N251 2.194 . S
Co231 O256 2.351 . S
Co231 O257 2.155 . S
Co231 O258 2.096 . S
C232 N235 1.301 . S
C232 N236 1.328 . S
C232 H237 0.930 . S
C233 C234 1.333 . S
C233 N235 1.317 . S
C233 H238 0.930 . S
C234 C233 1.333 . S
C234 N236 1.350 . S
C234 H260 0.931 . S
N235 Co231 2.148 . S
N235 C232 1.301 . S
N235 C233 1.317 . S
N236 C232 1.328 . S
N236 C234 1.350 . S
H237 C232 0.930 . S
H238 C233 0.930 . S
C239 O240 1.224 . S
C239 O258 1.247 . S
O240 C239 1.224 . S
N241 Co231 2.128 . S
N241 C242 1.355 . S
N241 C244 1.311 . S
C242 N241 1.355 . S
C242 C243 1.363 1_556 S
C242 H254 0.929 . S
C243 C242 1.363 1_554 S
C243 N245 1.375 . S
C243 H261 0.931 . S
C244 N241 1.311 . S
C244 N245 1.347 1_556 S
C244 H255 0.929 . S
N245 C243 1.375 . S
N245 C244 1.347 1_554 S
C246 C249 1.365 . S
C246 N251 1.328 . S
C246 H252 0.929 . S
C247 C248 1.362 . S
C247 C250 1.378 . S
C247 H262 0.929 . S
C248 C247 1.362 . S
C248 C249 1.366 . S
C249 C246 1.365 . S
C249 C248 1.366 . S
C249 H263 0.930 . S
C250 C247 1.378 . S
C250 N251 1.315 . S
C250 H253 0.930 . S
N251 Co231 2.194 . S
N251 C246 1.328 . S
N251 C250 1.315 . S
H252 C246 0.929 . S
H253 C250 0.930 . S
H254 C242 0.929 . S
H255 C244 0.929 . S
O256 Co231 2.351 . S
O256 C259 1.244 . S
O257 Co231 2.155 . S
O257 C259 1.240 . S
O258 Co231 2.096 . S
O258 C239 1.247 . S
C259 O256 1.244 . S
C259 O257 1.240 . S
H260 C234 0.931 . S
H261 C243 0.931 . S
H262 C247 0.929 . S
H263 C249 0.930 . S
Co264 N268 2.148 1_554 S
Co264 N274 2.128 . S
Co264 N284 2.194 . S
Co264 O289 2.351 . S
Co264 O290 2.155 . S
Co264 O291 2.096 . S
C265 N268 1.301 . S
C265 N269 1.328 . S
C265 H270 0.930 . S
C266 C267 1.333 . S
C266 N268 1.317 . S
C266 H271 0.930 . S
C267 C266 1.333 . S
C267 N269 1.350 . S
C267 H293 0.931 . S
N268 Co264 2.148 1_556 S
N268 C265 1.301 . S
N268 C266 1.317 . S
N269 C265 1.328 . S
N269 C267 1.350 . S
H270 C265 0.930 . S
H271 C266 0.930 . S
C272 O273 1.224 . S
C272 O291 1.247 . S
O273 C272 1.224 . S
N274 Co264 2.128 . S
N274 C275 1.355 . S
N274 C277 1.311 . S
C275 N274 1.355 . S
C275 C276 1.363 . S
C275 H287 0.929 . S
C276 C275 1.363 . S
C276 N278 1.375 . S
C276 H294 0.931 . S
C277 N274 1.311 . S
C277 N278 1.347 . S
C277 H288 0.929 . S
N278 C276 1.375 . S
N278 C277 1.347 . S
C279 C282 1.365 . S
C279 N284 1.328 . S
C279 H285 0.929 1_554 S
C280 C281 1.362 . S
C280 C283 1.378 . S
C280 H295 0.929 . S
C281 C280 1.362 . S
C281 C282 1.366 . S
C282 C279 1.365 . S
C282 C281 1.366 . S
C282 H296 0.930 1_554 S
C283 C280 1.378 . S
C283 N284 1.315 . S
C283 H286 0.930 . S
N284 Co264 2.194 . S
N284 C279 1.328 . S
N284 C283 1.315 . S
H285 C279 0.929 1_556 S
H286 C283 0.930 . S
H287 C275 0.929 . S
H288 C277 0.929 . S
O289 Co264 2.351 . S
O289 C292 1.244 . S
O290 Co264 2.155 . S
O290 C292 1.240 . S
O291 Co264 2.096 . S
O291 C272 1.247 . S
C292 O289 1.244 . S
C292 O290 1.240 . S
H293 C267 0.931 . S
H294 C276 0.931 . S
H295 C280 0.929 . S
H296 C282 0.930 1_556 S
Co297 N301 2.148 . S
Co297 N307 2.128 . S
Co297 N317 2.194 . S
Co297 O322 2.351 . S
Co297 O323 2.155 . S
Co297 O324 2.096 . S
C298 N301 1.301 . S
C298 N302 1.328 . S
C298 H303 0.930 . S
C299 C300 1.333 . S
C299 N301 1.317 . S
C299 H304 0.930 . S
C300 C299 1.333 . S
C300 N302 1.350 . S
C300 H326 0.931 . S
N301 Co297 2.148 . S
N301 C298 1.301 . S
N301 C299 1.317 . S
N302 C298 1.328 . S
N302 C300 1.350 . S
H303 C298 0.930 . S
H304 C299 0.930 . S
C305 O306 1.224 . S
C305 O324 1.247 . S
O306 C305 1.224 . S
N307 Co297 2.128 . S
N307 C308 1.355 . S
N307 C310 1.311 . S
C308 N307 1.355 . S
C308 C309 1.363 . S
C308 H320 0.929 . S
C309 C308 1.363 . S
C309 N311 1.375 . S
C309 H327 0.931 . S
C310 N307 1.311 . S
C310 N311 1.347 . S
C310 H321 0.929 . S
N311 C309 1.375 . S
N311 C310 1.347 . S
C312 C315 1.365 . S
C312 N317 1.328 . S
C312 H318 0.929 . S
C313 C314 1.362 . S
C313 C316 1.378 . S
C313 H328 0.929 . S
C314 C313 1.362 . S
C314 C315 1.366 . S
C315 C312 1.365 . S
C315 C314 1.366 . S
C315 H329 0.930 . S
C316 C313 1.378 . S
C316 N317 1.315 . S
C316 H319 0.930 . S
N317 Co297 2.194 . S
N317 C312 1.328 . S
N317 C316 1.315 . S
H318 C312 0.929 . S
H319 C316 0.930 . S
H320 C308 0.929 . S
H321 C310 0.929 . S
O322 Co297 2.351 . S
O322 C325 1.244 . S
O323 Co297 2.155 . S
O323 C325 1.240 . S
O324 Co297 2.096 . S
O324 C305 1.247 . S
C325 O322 1.244 . S
C325 O323 1.240 . S
H326 C300 0.931 . S
H327 C309 0.931 . S
H328 C313 0.929 . S
H329 C315 0.930 . S
Co330 N334 2.148 . S
Co330 N340 2.128 . S
Co330 N350 2.194 . S
Co330 O355 2.351 . S
Co330 O356 2.155 . S
Co330 O357 2.096 . S
C331 N334 1.301 . S
C331 N335 1.328 . S
C331 H336 0.930 . S
C332 C333 1.333 . S
C332 N334 1.317 . S
C332 H337 0.930 . S
C333 C332 1.333 . S
C333 N335 1.350 . S
C333 H359 0.931 . S
N334 Co330 2.148 . S
N334 C331 1.301 . S
N334 C332 1.317 . S
N335 C331 1.328 . S
N335 C333 1.350 . S
H336 C331 0.930 . S
H337 C332 0.930 . S
C338 O339 1.224 . S
C338 O357 1.247 . S
O339 C338 1.224 . S
N340 Co330 2.128 . S
N340 C341 1.355 . S
N340 C343 1.311 . S
C341 N340 1.355 . S
C341 C342 1.363 1_556 S
C341 H353 0.929 . S
C342 C341 1.363 1_554 S
C342 N344 1.375 . S
C342 H360 0.931 . S
C343 N340 1.311 . S
C343 N344 1.347 1_556 S
C343 H354 0.929 . S
N344 C342 1.375 . S
N344 C343 1.347 1_554 S
C345 C348 1.365 . S
C345 N350 1.328 . S
C345 H351 0.929 . S
C346 C347 1.362 . S
C346 C349 1.378 . S
C346 H361 0.929 . S
C347 C346 1.362 . S
C347 C348 1.366 . S
C348 C345 1.365 . S
C348 C347 1.366 . S
C348 H362 0.930 . S
C349 C346 1.378 . S
C349 N350 1.315 . S
C349 H352 0.930 . S
N350 Co330 2.194 . S
N350 C345 1.328 . S
N350 C349 1.315 . S
H351 C345 0.929 . S
H352 C349 0.930 . S
H353 C341 0.929 . S
H354 C343 0.929 . S
O355 Co330 2.351 . S
O355 C358 1.244 . S
O356 Co330 2.155 . S
O356 C358 1.240 . S
O357 Co330 2.096 . S
O357 C338 1.247 . S
C358 O355 1.244 . S
C358 O356 1.240 . S
H359 C333 0.931 . S
H360 C342 0.931 . S
H361 C346 0.929 . S
H362 C348 0.930 . S
Co363 N367 2.148 1_554 S
Co363 N373 2.128 . S
Co363 N383 2.194 . S
Co363 O388 2.351 . S
Co363 O389 2.155 . S
Co363 O390 2.096 . S
C364 N367 1.301 . S
C364 N368 1.328 . S
C364 H369 0.930 . S
C365 C366 1.333 . S
C365 N367 1.317 . S
C365 H370 0.930 . S
C366 C365 1.333 . S
C366 N368 1.350 . S
C366 H392 0.931 . S
N367 Co363 2.148 1_556 S
N367 C364 1.301 . S
N367 C365 1.317 . S
N368 C364 1.328 . S
N368 C366 1.350 . S
H369 C364 0.930 . S
H370 C365 0.930 . S
C371 O372 1.224 . S
C371 O390 1.247 . S
O372 C371 1.224 . S
N373 Co363 2.128 . S
N373 C374 1.355 . S
N373 C376 1.311 . S
C374 N373 1.355 . S
C374 C375 1.363 . S
C374 H386 0.929 . S
C375 C374 1.363 . S
C375 N377 1.375 . S
C375 H393 0.931 . S
C376 N373 1.311 . S
C376 N377 1.347 . S
C376 H387 0.929 . S
N377 C375 1.375 . S
N377 C376 1.347 . S
C378 C381 1.365 . S
C378 N383 1.328 . S
C378 H384 0.929 1_554 S
C379 C380 1.362 . S
C379 C382 1.378 . S
C379 H394 0.929 . S
C380 C379 1.362 . S
C380 C381 1.366 . S
C381 C378 1.365 . S
C381 C380 1.366 . S
C381 H395 0.930 1_554 S
C382 C379 1.378 . S
C382 N383 1.315 . S
C382 H385 0.930 . S
N383 Co363 2.194 . S
N383 C378 1.328 . S
N383 C382 1.315 . S
H384 C378 0.929 1_556 S
H385 C382 0.930 . S
H386 C374 0.929 . S
H387 C376 0.929 . S
O388 Co363 2.351 . S
O388 C391 1.244 . S
O389 Co363 2.155 . S
O389 C391 1.240 . S
O390 Co363 2.096 . S
O390 C371 1.247 . S
C391 O388 1.244 . S
C391 O389 1.240 . S
H392 C366 0.931 . S
H393 C375 0.931 . S
H394 C379 0.929 . S
H395 C381 0.930 1_556 S
C396 C397 1.387 . S
C396 H400 0.950 . S
C396 C405 1.390 1_554 S
C397 C396 1.387 . S
C397 C399 1.387 . S
H398 C405 0.950 . S
C399 C397 1.387 . S
C399 C401 1.390 1_554 S
C399 H403 0.950 . S
H400 C396 0.950 . S
C401 C399 1.390 1_556 S
C401 C402 1.387 . S
C401 H404 0.950 . S
C402 C401 1.387 . S
C402 C405 1.387 . S
H403 C399 0.950 . S
H404 C401 0.950 . S
C405 C396 1.390 1_556 S
C405 H398 0.950 . S
C405 C402 1.387 . S
C406 C407 1.387 . S
C406 H410 0.950 . S
C406 C415 1.390 . S
C407 C406 1.387 . S
C407 C409 1.387 . S
H408 C415 0.950 . S
C409 C407 1.387 . S
C409 C411 1.390 . S
C409 H413 0.950 . S
H410 C406 0.950 . S
C411 C409 1.390 . S
C411 C412 1.387 . S
C411 H414 0.950 . S
C412 C411 1.387 . S
C412 C415 1.387 . S
H413 C409 0.950 . S
H414 C411 0.950 . S
C415 C406 1.390 . S
C415 H408 0.950 . S
C415 C412 1.387 . S
C416 C417 1.387 . S
C416 H420 0.950 . S
C416 C425 1.390 . S
C417 C416 1.387 . S
C417 C419 1.387 . S
H418 C425 0.950 . S
C419 C417 1.387 . S
C419 C421 1.390 . S
C419 H423 0.950 . S
H420 C416 0.950 . S
C421 C419 1.390 . S
C421 C422 1.387 . S
C421 H424 0.950 . S
C422 C421 1.387 . S
C422 C425 1.387 . S
H423 C419 0.950 . S
H424 C421 0.950 . S
C425 C416 1.390 . S
C425 H418 0.950 . S
C425 C422 1.387 . S
C426 C427 1.387 . S
C426 H430 0.950 . S
C426 C435 1.390 1_556 S
C427 C426 1.387 . S
C427 C429 1.387 . S
H428 C435 0.950 . S
C429 C427 1.387 . S
C429 C431 1.390 1_556 S
C429 H433 0.950 . S
H430 C426 0.950 . S
C431 C429 1.390 1_554 S
C431 C432 1.387 . S
C431 H434 0.950 . S
C432 C431 1.387 . S
C432 C435 1.387 . S
H433 C429 0.950 . S
H434 C431 0.950 . S
C435 C426 1.390 1_554 S
C435 H428 0.950 . S
C435 C432 1.387 . S
C436 C437 1.387 . S
C436 H440 0.950 . S
C436 C445 1.390 . S
C437 C436 1.387 . S
C437 C439 1.387 . S
H438 C445 0.950 . S
C439 C437 1.387 . S
C439 C441 1.390 . S
C439 H443 0.950 . S
H440 C436 0.950 . S
C441 C439 1.390 . S
C441 C442 1.387 . S
C441 H444 0.950 . S
C442 C441 1.387 . S
C442 C445 1.387 . S
H443 C439 0.950 . S
H444 C441 0.950 . S
C445 C436 1.390 . S
C445 H438 0.950 . S
C445 C442 1.387 . S
C446 C447 1.387 . S
C446 H450 0.950 . S
C446 C455 1.390 . S
C447 C446 1.387 . S
C447 C449 1.387 . S
H448 C455 0.950 . S
C449 C447 1.387 . S
C449 C451 1.390 . S
C449 H453 0.950 . S
H450 C446 0.950 . S
C451 C449 1.390 . S
C451 C452 1.387 . S
C451 H454 0.950 . S
C452 C451 1.387 . S
C452 C455 1.387 . S
H453 C449 0.950 . S
H454 C451 0.950 . S
C455 C446 1.390 . S
C455 H448 0.950 . S
C455 C452 1.387 . S
C456 C457 1.387 . S
C456 H460 0.950 . S
C456 C465 1.390 . S
C457 C456 1.387 . S
C457 C459 1.387 . S
H458 C465 0.950 . S
C459 C457 1.387 . S
C459 C461 1.390 . S
C459 H463 0.950 . S
H460 C456 0.950 . S
C461 C459 1.390 . S
C461 C462 1.387 . S
C461 H464 0.950 . S
C462 C461 1.387 . S
C462 C465 1.387 . S
H463 C459 0.950 . S
H464 C461 0.950 . S
C465 C456 1.390 . S
C465 H458 0.950 . S
C465 C462 1.387 . S
C466 C467 1.387 . S
C466 H470 0.950 . S
C466 C475 1.390 . S
C467 C466 1.387 . S
C467 C469 1.387 . S
H468 C475 0.950 . S
C469 C467 1.387 . S
C469 C471 1.390 . S
C469 H473 0.950 . S
H470 C466 0.950 . S
C471 C469 1.390 . S
C471 C472 1.387 . S
C471 H474 0.950 . S
C472 C471 1.387 . S
C472 C475 1.387 . S
H473 C469 0.950 . S
H474 C471 0.950 . S
C475 C466 1.390 . S
C475 H468 0.950 . S
C475 C472 1.387 . S
C476 C477 1.387 . S
C476 H480 0.950 . S
C476 C485 1.390 1_556 S
C477 C476 1.387 . S
C477 C479 1.387 . S
H478 C485 0.950 . S
C479 C477 1.387 . S
C479 C481 1.390 1_556 S
C479 H483 0.950 . S
H480 C476 0.950 . S
C481 C479 1.390 1_554 S
C481 C482 1.387 . S
C481 H484 0.950 . S
C482 C481 1.387 . S
C482 C485 1.387 . S
H483 C479 0.950 . S
H484 C481 0.950 . S
C485 C476 1.390 1_554 S
C485 H478 0.950 . S
C485 C482 1.387 . S
C486 C487 1.387 . S
C486 H490 0.950 . S
C486 C495 1.390 . S
C487 C486 1.387 . S
C487 C489 1.387 . S
H488 C495 0.950 . S
C489 C487 1.387 . S
C489 C491 1.390 . S
C489 H493 0.950 . S
H490 C486 0.950 . S
C491 C489 1.390 . S
C491 C492 1.387 . S
C491 H494 0.950 . S
C492 C491 1.387 . S
C492 C495 1.387 . S
H493 C489 0.950 . S
H494 C491 0.950 . S
C495 C486 1.390 . S
C495 H488 0.950 . S
C495 C492 1.387 . S
C496 C497 1.387 . S
C496 H500 0.950 . S
C496 C505 1.390 . S
C497 C496 1.387 . S
C497 C499 1.387 . S
H498 C505 0.950 . S
C499 C497 1.387 . S
C499 C501 1.390 . S
C499 H503 0.950 . S
H500 C496 0.950 . S
C501 C499 1.390 . S
C501 C502 1.387 . S
C501 H504 0.950 . S
C502 C501 1.387 . S
C502 C505 1.387 . S
H503 C499 0.950 . S
H504 C501 0.950 . S
C505 C496 1.390 . S
C505 H498 0.950 . S
C505 C502 1.387 . S
C506 C507 1.387 . S
C506 H510 0.950 . S
C506 C515 1.390 1_554 S
C507 C506 1.387 . S
C507 C509 1.387 . S
H508 C515 0.950 . S
C509 C507 1.387 . S
C509 C511 1.390 1_554 S
C509 H513 0.950 . S
H510 C506 0.950 . S
C511 C509 1.390 1_556 S
C511 C512 1.387 . S
C511 H514 0.950 . S
C512 C511 1.387 . S
C512 C515 1.387 . S
H513 C509 0.950 . S
H514 C511 0.950 . S
C515 C506 1.390 1_556 S
C515 H508 0.950 . S
C515 C512 1.387 . S
C516 C517 1.387 . S
C516 H520 0.950 . S
C516 C525 1.390 . S
C517 C516 1.387 . S
C517 C519 1.387 . S
H518 C525 0.950 . S
C519 C517 1.387 . S
C519 C521 1.390 . S
C519 H523 0.950 . S
H520 C516 0.950 . S
C521 C519 1.390 . S
C521 C522 1.387 . S
C521 H524 0.950 . S
C522 C521 1.387 . S
C522 C525 1.387 . S
H523 C519 0.950 . S
H524 C521 0.950 . S
C525 C516 1.390 . S
C525 H518 0.950 . S
C525 C522 1.387 . S
C526 C527 1.387 . S
C526 H530 0.950 . S
C526 C535 1.390 1_455 S
C527 C526 1.387 . S
C527 C529 1.387 . S
H528 C535 0.950 . S
C529 C527 1.387 . S
C529 C531 1.390 1_455 S
C529 H533 0.950 . S
H530 C526 0.950 . S
C531 C529 1.390 1_655 S
C531 C532 1.387 . S
C531 H534 0.950 . S
C532 C531 1.387 . S
C532 C535 1.387 . S
H533 C529 0.950 . S
H534 C531 0.950 . S
C535 C526 1.390 1_655 S
C535 H528 0.950 . S
C535 C532 1.387 . S
C536 C537 1.387 . S
C536 H540 0.950 . S
C536 C545 1.390 1_544 S
C537 C536 1.387 . S
C537 C539 1.387 . S
H538 C545 0.950 . S
C539 C537 1.387 . S
C539 C541 1.390 1_544 S
C539 H543 0.950 . S
H540 C536 0.950 . S
C541 C539 1.390 1_566 S
C541 C542 1.387 . S
C541 H544 0.950 . S
C542 C541 1.387 . S
C542 C545 1.387 . S
H543 C539 0.950 . S
H544 C541 0.950 . S
C545 C536 1.390 1_566 S
C545 H538 0.950 . S
C545 C542 1.387 . S
C546 C547 1.387 . S
C546 H550 0.950 . S
C546 C555 1.390 . S
C547 C546 1.387 . S
C547 C549 1.387 . S
H548 C555 0.950 . S
C549 C547 1.387 . S
C549 C551 1.390 . S
C549 H553 0.950 . S
H550 C546 0.950 . S
C551 C549 1.390 . S
C551 C552 1.387 . S
C551 H554 0.950 . S
C552 C551 1.387 . S
C552 C555 1.387 . S
H553 C549 0.950 . S
H554 C551 0.950 . S
C555 C546 1.390 . S
C555 H548 0.950 . S
C555 C552 1.387 . S
C556 C557 1.387 . S
C556 H560 0.950 . S
C556 C565 1.390 1_455 S
C557 C556 1.387 . S
C557 C559 1.387 . S
H558 C565 0.950 . S
C559 C557 1.387 . S
C559 C561 1.390 1_455 S
C559 H563 0.950 . S
H560 C556 0.950 . S
C561 C559 1.390 1_655 S
C561 C562 1.387 . S
C561 H564 0.950 . S
C562 C561 1.387 . S
C562 C565 1.387 . S
H563 C559 0.950 . S
H564 C561 0.950 . S
C565 C556 1.390 1_655 S
C565 H558 0.950 . S
C565 C562 1.387 . S
C566 C567 1.387 . S
C566 H570 0.950 . S
C566 C575 1.390 1_546 S
C567 C566 1.387 . S
C567 C569 1.387 . S
H568 C575 0.950 . S
C569 C567 1.387 . S
C569 C571 1.390 1_546 S
C569 H573 0.950 . S
H570 C566 0.950 . S
C571 C569 1.390 1_564 S
C571 C572 1.387 . S
C571 H574 0.950 . S
C572 C571 1.387 . S
C572 C575 1.387 . S
H573 C569 0.950 . S
H574 C571 0.950 . S
C575 C566 1.390 1_564 S
C575 H568 0.950 . S
C575 C572 1.387 . S
C576 C577 1.387 . S
C576 H580 0.950 . S
C576 C585 1.390 . S
C577 C576 1.387 . S
C577 C579 1.387 . S
H578 C585 0.950 . S
C579 C577 1.387 . S
C579 C581 1.390 . S
C579 H583 0.950 . S
H580 C576 0.950 . S
C581 C579 1.390 . S
C581 C582 1.387 . S
C581 H584 0.950 . S
C582 C581 1.387 . S
C582 C585 1.387 . S
H583 C579 0.950 . S
H584 C581 0.950 . S
C585 C576 1.390 . S
C585 H578 0.950 . S
C585 C582 1.387 . S
C586 C587 1.387 . S
C586 H590 0.950 . S
C586 C595 1.390 . S
C587 C586 1.387 . S
C587 C589 1.387 . S
H588 C595 0.950 . S
C589 C587 1.387 . S
C589 C591 1.390 . S
C589 H593 0.950 . S
H590 C586 0.950 . S
C591 C589 1.390 . S
C591 C592 1.387 1_554 S
C591 H594 0.950 1_554 S
C592 C591 1.387 1_556 S
C592 C595 1.387 1_556 S
H593 C589 0.950 . S
H594 C591 0.950 1_556 S
C595 C586 1.390 . S
C595 H588 0.950 . S
C595 C592 1.387 1_554 S
C596 C597 1.387 . S
C596 H600 0.950 . S
C596 C605 1.390 . S
C597 C596 1.387 . S
C597 C599 1.387 . S
H598 C605 0.950 . S
C599 C597 1.387 . S
C599 C601 1.390 . S
C599 H603 0.950 . S
H600 C596 0.950 . S
C601 C599 1.390 . S
C601 C602 1.387 . S
C601 H604 0.950 . S
C602 C601 1.387 . S
C602 C605 1.387 . S
H603 C599 0.950 . S
H604 C601 0.950 . S
C605 C596 1.390 . S
C605 H598 0.950 . S
C605 C602 1.387 . S
C606 C607 1.387 . S
C606 H610 0.950 . S
C606 C615 1.390 . S
C607 C606 1.387 . S
C607 C609 1.387 . S
H608 C615 0.950 . S
C609 C607 1.387 . S
C609 C611 1.390 . S
C609 H613 0.950 . S
H610 C606 0.950 . S
C611 C609 1.390 . S
C611 C612 1.387 . S
C611 H614 0.950 . S
C612 C611 1.387 . S
C612 C615 1.387 . S
H613 C609 0.950 . S
H614 C611 0.950 . S
C615 C606 1.390 . S
C615 H608 0.950 . S
C615 C612 1.387 . S
C616 C617 1.387 . S
C616 H620 0.950 . S
C616 C625 1.390 . S
C617 C616 1.387 . S
C617 C619 1.387 . S
H618 C625 0.950 . S
C619 C617 1.387 . S
C619 C621 1.390 . S
C619 H623 0.950 . S
H620 C616 0.950 . S
C621 C619 1.390 . S
C621 C622 1.387 1_554 S
C621 H624 0.950 1_554 S
C622 C621 1.387 1_556 S
C622 C625 1.387 1_556 S
H623 C619 0.950 . S
H624 C621 0.950 1_556 S
C625 C616 1.390 . S
C625 H618 0.950 . S
C625 C622 1.387 1_554 S
C626 C627 1.387 . S
C626 H630 0.950 . S
C626 C635 1.390 . S
C627 C626 1.387 . S
C627 C629 1.387 . S
H628 C635 0.950 . S
C629 C627 1.387 . S
C629 C631 1.390 . S
C629 H633 0.950 . S
H630 C626 0.950 . S
C631 C629 1.390 . S
C631 C632 1.387 . S
C631 H634 0.950 . S
C632 C631 1.387 . S
C632 C635 1.387 . S
H633 C629 0.950 . S
H634 C631 0.950 . S
C635 C626 1.390 . S
C635 H628 0.950 . S
C635 C632 1.387 . S
C636 C637 1.387 1_556 S
C636 H640 0.950 1_556 S
C636 C645 1.390 . S
C637 C636 1.387 1_554 S
C637 C639 1.387 1_554 S
H638 C645 0.950 . S
C639 C637 1.387 1_556 S
C639 C641 1.390 . S
C639 H643 0.950 . S
H640 C636 0.950 1_554 S
C641 C639 1.390 . S
C641 C642 1.387 . S
C641 H644 0.950 . S
C642 C641 1.387 . S
C642 C645 1.387 . S
H643 C639 0.950 . S
H644 C641 0.950 . S
C645 C636 1.390 . S
C645 H638 0.950 . S
C645 C642 1.387 . S
C646 C647 1.387 . S
C646 H650 0.950 . S
C646 C655 1.390 . S
C647 C646 1.387 . S
C647 C649 1.387 . S
H648 C655 0.950 . S
C649 C647 1.387 . S
C649 C651 1.390 . S
C649 H653 0.950 . S
H650 C646 0.950 . S
C651 C649 1.390 . S
C651 C652 1.387 . S
C651 H654 0.950 . S
C652 C651 1.387 . S
C652 C655 1.387 . S
H653 C649 0.950 . S
H654 C651 0.950 . S
C655 C646 1.390 . S
C655 H648 0.950 . S
C655 C652 1.387 . S
C656 C657 1.387 . S
C656 H660 0.950 . S
C656 C665 1.390 . S
C657 C656 1.387 . S
C657 C659 1.387 . S
H658 C665 0.950 . S
C659 C657 1.387 . S
C659 C661 1.390 . S
C659 H663 0.950 . S
H660 C656 0.950 . S
C661 C659 1.390 . S
C661 C662 1.387 . S
C661 H664 0.950 . S
C662 C661 1.387 . S
C662 C665 1.387 . S
H663 C659 0.950 . S
H664 C661 0.950 . S
C665 C656 1.390 . S
C665 H658 0.950 . S
C665 C662 1.387 . S
C666 C667 1.387 . S
C666 H670 0.950 . S
C666 C675 1.390 . S
C667 C666 1.387 . S
C667 C669 1.387 . S
H668 C675 0.950 . S
C669 C667 1.387 . S
C669 C671 1.390 . S
C669 H673 0.950 . S
H670 C666 0.950 . S
C671 C669 1.390 . S
C671 C672 1.387 1_556 S
C671 H674 0.950 1_556 S
C672 C671 1.387 1_554 S
C672 C675 1.387 1_554 S
H673 C669 0.950 . S
H674 C671 0.950 1_554 S
C675 C666 1.390 . S
C675 H668 0.950 . S
C675 C672 1.387 1_556 S
C676 C677 1.387 . S
C676 H680 0.950 . S
C676 C685 1.390 . S
C677 C676 1.387 . S
C677 C679 1.387 . S
H678 C685 0.950 . S
C679 C677 1.387 . S
C679 C681 1.390 . S
C679 H683 0.950 . S
H680 C676 0.950 . S
C681 C679 1.390 . S
C681 C682 1.387 . S
C681 H684 0.950 . S
C682 C681 1.387 . S
C682 C685 1.387 . S
H683 C679 0.950 . S
H684 C681 0.950 . S
C685 C676 1.390 . S
C685 H678 0.950 . S
C685 C682 1.387 . S
C686 C687 1.387 . S
C686 H690 0.950 . S
C686 C695 1.390 . S
C687 C686 1.387 . S
C687 C689 1.387 . S
H688 C695 0.950 . S
C689 C687 1.387 . S
C689 C691 1.390 . S
C689 H693 0.950 . S
H690 C686 0.950 . S
C691 C689 1.390 . S
C691 C692 1.387 . S
C691 H694 0.950 . S
C692 C691 1.387 . S
C692 C695 1.387 . S
H693 C689 0.950 . S
H694 C691 0.950 . S
C695 C686 1.390 . S
C695 H688 0.950 . S
C695 C692 1.387 . S
C397 C8 1.524 . S
C402 C338 1.524 . S
C407 C371 1.524 . S
C412 C41 1.524 . S
C417 C206 1.524 . S
C422 C74 1.524 . S
C427 C239 1.524 . S
C432 C107 1.524 . S
C437 C140 1.524 . S
C442 C272 1.525 . S
C447 C305 1.526 . S
C452 C173 1.525 . S
C457 C215 1.616 . S
C462 C17 1.617 . S
C467 C248 1.617 . S
C472 C50 1.618 . S
C477 C83 1.616 . S
C482 C281 1.616 . S
C487 C116 1.618 . S
C492 C314 1.617 . S
C497 C347 1.617 . S
C502 C149 1.618 . S
C507 C380 1.616 . S
C512 C182 1.616 . S
C517 C28 1.517 . S
C522 C325 1.519 . S
C527 C358 1.517 . S
C532 C61 1.519 . S
C537 C391 1.518 . S
C542 C94 1.518 . S
C547 C226 1.517 . S
C552 C127 1.519 . S
C557 C160 1.517 . S
C562 C259 1.518 . S
C567 C193 1.517 . S
C572 C292 1.517 . S
C577 N5 1.244 . S
C582 N14 1.245 . S
C587 N47 1.245 . S
C592 N38 1.243 . S
C597 N71 1.244 . S
C602 N80 1.245 . S
C607 N113 1.245 . S
C612 N104 1.244 . S
C617 N146 1.245 . S
C622 N137 1.243 . S
C627 N179 1.245 . S
C632 N170 1.243 . S
C637 N203 1.244 . S
C642 N212 1.245 . S
C647 N245 1.245 . S
C652 N236 1.243 . S
C657 N278 1.245 . S
C662 N269 1.243 . S
C667 N311 1.245 . S
C672 N302 1.244 . S
C677 N335 1.244 . S
C682 N344 1.245 . S
C687 N377 1.245 . S
C692 N368 1.243 . S
