# Generated by pormake.
# Topology yfc, (5)-cn, num edge types: 1
# Building blocks:
#     Node 0, Type 0, BuildingBlock: XOMCOT_clean_sbu_1, # of connection points: 5
#     Node 1, Type 0, BuildingBlock: XOMCOT_clean_sbu_1, # of connection points: 5
#     Node 2, Type 0, BuildingBlock: XOMCOT_clean_sbu_1, # of connection points: 5
#     Node 3, Type 0, BuildingBlock: XOMCOT_clean_sbu_1, # of connection points: 5
#     Node 4, Type 0, BuildingBlock: XOMCOT_clean_sbu_1, # of connection points: 5
#     Node 5, Type 0, BuildingBlock: XOMCOT_clean_sbu_1, # of connection points: 5
#     Node 6, Type 0, BuildingBlock: XOMCOT_clean_sbu_1, # of connection points: 5
#     Node 7, Type 0, BuildingBlock: XOMCOT_clean_sbu_1, # of connection points: 5
#     Node 8, Type 0, BuildingBlock: XOMCOT_clean_sbu_1, # of connection points: 5
#     Node 9, Type 0, BuildingBlock: XOMCOT_clean_sbu_1, # of connection points: 5
#     Node 10, Type 0, BuildingBlock: XOMCOT_clean_sbu_1, # of connection points: 5
#     Node 11, Type 0, BuildingBlock: XOMCOT_clean_sbu_1, # of connection points: 5
#     Node 12, Type 0, BuildingBlock: XOMCOT_clean_sbu_1, # of connection points: 5
#     Node 13, Type 0, BuildingBlock: XOMCOT_clean_sbu_1, # of connection points: 5
#     Node 14, Type 0, BuildingBlock: XOMCOT_clean_sbu_1, # of connection points: 5
#     Node 15, Type 0, BuildingBlock: XOMCOT_clean_sbu_1, # of connection points: 5
#     Edge 16, Type (0, 0), BuildingBlock: TEMPAE_clean_linker_10, # of connection points: 2
#     Edge 17, Type (0, 0), BuildingBlock: TEMPAE_clean_linker_10, # of connection points: 2
#     Edge 18, Type (0, 0), BuildingBlock: TEMPAE_clean_linker_10, # of connection points: 2
#     Edge 19, Type (0, 0), BuildingBlock: TEMPAE_clean_linker_10, # of connection points: 2
#     Edge 20, Type (0, 0), BuildingBlock: TEMPAE_clean_linker_10, # of connection points: 2
#     Edge 21, Type (0, 0), BuildingBlock: TEMPAE_clean_linker_10, # of connection points: 2
#     Edge 22, Type (0, 0), BuildingBlock: TEMPAE_clean_linker_10, # of connection points: 2
#     Edge 23, Type (0, 0), BuildingBlock: TEMPAE_clean_linker_10, # of connection points: 2
#     Edge 24, Type (0, 0), BuildingBlock: TEMPAE_clean_linker_10, # of connection points: 2
#     Edge 25, Type (0, 0), BuildingBlock: TEMPAE_clean_linker_10, # of connection points: 2
#     Edge 26, Type (0, 0), BuildingBlock: TEMPAE_clean_linker_10, # of connection points: 2
#     Edge 27, Type (0, 0), BuildingBlock: TEMPAE_clean_linker_10, # of connection points: 2
#     Edge 28, Type (0, 0), BuildingBlock: TEMPAE_clean_linker_10, # of connection points: 2
#     Edge 29, Type (0, 0), BuildingBlock: TEMPAE_clean_linker_10, # of connection points: 2
#     Edge 30, Type (0, 0), BuildingBlock: TEMPAE_clean_linker_10, # of connection points: 2
#     Edge 31, Type (0, 0), BuildingBlock: TEMPAE_clean_linker_10, # of connection points: 2
#     Edge 32, Type (0, 0), BuildingBlock: TEMPAE_clean_linker_10, # of connection points: 2
#     Edge 33, Type (0, 0), BuildingBlock: TEMPAE_clean_linker_10, # of connection points: 2
#     Edge 34, Type (0, 0), BuildingBlock: TEMPAE_clean_linker_10, # of connection points: 2
#     Edge 35, Type (0, 0), BuildingBlock: TEMPAE_clean_linker_10, # of connection points: 2
#     Edge 36, Type (0, 0), BuildingBlock: TEMPAE_clean_linker_10, # of connection points: 2
#     Edge 37, Type (0, 0), BuildingBlock: TEMPAE_clean_linker_10, # of connection points: 2
#     Edge 38, Type (0, 0), BuildingBlock: TEMPAE_clean_linker_10, # of connection points: 2
#     Edge 39, Type (0, 0), BuildingBlock: TEMPAE_clean_linker_10, # of connection points: 2
#     Edge 40, Type (0, 0), BuildingBlock: TEMPAE_clean_linker_10, # of connection points: 2
#     Edge 41, Type (0, 0), BuildingBlock: TEMPAE_clean_linker_10, # of connection points: 2
#     Edge 42, Type (0, 0), BuildingBlock: TEMPAE_clean_linker_10, # of connection points: 2
#     Edge 43, Type (0, 0), BuildingBlock: TEMPAE_clean_linker_10, # of connection points: 2
#     Edge 44, Type (0, 0), BuildingBlock: TEMPAE_clean_linker_10, # of connection points: 2
#     Edge 45, Type (0, 0), BuildingBlock: TEMPAE_clean_linker_10, # of connection points: 2
#     Edge 46, Type (0, 0), BuildingBlock: TEMPAE_clean_linker_10, # of connection points: 2
#     Edge 47, Type (0, 0), BuildingBlock: TEMPAE_clean_linker_10, # of connection points: 2
#     Edge 48, Type (0, 0), BuildingBlock: TEMPAE_clean_linker_10, # of connection points: 2
#     Edge 49, Type (0, 0), BuildingBlock: TEMPAE_clean_linker_10, # of connection points: 2
#     Edge 50, Type (0, 0), BuildingBlock: TEMPAE_clean_linker_10, # of connection points: 2
#     Edge 51, Type (0, 0), BuildingBlock: TEMPAE_clean_linker_10, # of connection points: 2
#     Edge 52, Type (0, 0), BuildingBlock: TEMPAE_clean_linker_10, # of connection points: 2
#     Edge 53, Type (0, 0), BuildingBlock: TEMPAE_clean_linker_10, # of connection points: 2
#     Edge 54, Type (0, 0), BuildingBlock: TEMPAE_clean_linker_10, # of connection points: 2
#     Edge 55, Type (0, 0), BuildingBlock: TEMPAE_clean_linker_10, # of connection points: 2
# Relax obj value: 0.647
# Max RMSD: 0.269
# Mean RMSD: 0.269
data_MOF--net-yfc--node1-XOMCOT_clean_sbu_1--edge1-TEMPAE_clean_linker_10
_symmetry_space_group_name_H-M    P1
_symmetry_Int_Tables_number       1
_symmetry_cell_setting            triclinic
loop_
_symmetry_equiv_pos_as_xyz
'x, y, z'
_cell_length_a     41.242932
_cell_length_b     41.251798
_cell_length_c     47.419036
_cell_angle_alpha  90.022395
_cell_angle_beta   89.995893
_cell_angle_gamma 90.011048
loop_
_atom_site_label
_atom_site_type_symbol
_atom_site_fract_x
_atom_site_fract_y
_atom_site_fract_z
_atom_type_partial_charge
C0 C 0.71275 0.97128 0.16248 0.0
C1 C 0.69249 0.94747 0.17277 0.0
N2 N 0.67025 0.96152 0.18961 0.0
N3 N 0.70326 1.0003 0.17262 0.0
C4 C 0.677 0.99355 0.18872 0.0
H5 H 0.73424 0.96737 0.14988 0.0
Co6 Co 0.72689 0.03896 0.17015 0.0
C7 C 0.682 0.0881 0.19282 0.0
O8 O 0.70525 0.09959 0.20896 0.0
N9 N 0.75128 0.07829 0.16702 0.0
C10 C 0.79092 0.11525 0.16661 0.0
C11 C 0.78323 0.08329 0.17188 0.0
C12 C 0.74065 0.10748 0.15751 0.0
N13 N 0.76393 0.13043 0.15789 0.0
O14 O 0.7195 0.04096 0.1305 0.0
H15 H 0.80028 0.06511 0.1787 0.0
H16 H 0.71614 0.11211 0.15047 0.0
O17 O 0.68731 0.06387 0.17669 0.0
C18 C 0.74416 0.0303 0.11722 0.0
O19 O 0.76866 0.01891 0.13193 0.0
N20 N 0.73695 0.0348 0.20879 0.0
C21 C 0.76468 0.03199 0.26224 0.0
C22 C 0.73135 0.03788 0.2591 0.0
C23 C 0.71777 0.03862 0.2321 0.0
C24 C 0.76765 0.02338 0.2119 0.0
C25 C 0.78233 0.02252 0.23828 0.0
H26 H 0.69224 0.04366 0.23026 0.0
H27 H 0.78145 0.01653 0.19346 0.0
H28 H 0.66377 0.01156 0.20059 0.0
H29 H 0.69536 0.92162 0.16972 0.0
H30 H 0.81426 0.12669 0.16979 0.0
H31 H 0.71629 0.04366 0.27713 0.0
H32 H 0.80795 0.01701 0.23932 0.0
C33 C 0.52988 0.70129 0.64623 0.0
C34 C 0.55333 0.68121 0.65722 0.0
N35 N 0.53942 0.66111 0.67616 0.0
N36 N 0.50102 0.69399 0.65785 0.0
C37 C 0.5075 0.66895 0.67549 0.0
H38 H 0.53408 0.72117 0.63186 0.0
Co39 Co 0.46362 0.71977 0.65449 0.0
C40 C 0.41121 0.68119 0.67968 0.0
O41 O 0.40163 0.7073 0.69325 0.0
N42 N 0.42582 0.74645 0.65023 0.0
C43 C 0.39076 0.78775 0.64927 0.0
C44 C 0.42232 0.77867 0.65469 0.0
C45 C 0.39624 0.73713 0.64054 0.0
N46 N 0.37432 0.76141 0.64076 0.0
O47 O 0.46025 0.70953 0.61535 0.0
H48 H 0.44116 0.79495 0.66159 0.0
H49 H 0.39044 0.71264 0.63409 0.0
O50 O 0.43637 0.68239 0.66394 0.0
C51 C 0.47228 0.73223 0.6004 0.0
O52 O 0.48588 0.75695 0.61329 0.0
N53 N 0.46902 0.7322 0.69256 0.0
C54 C 0.4748 0.76107 0.7455 0.0
C55 C 0.46727 0.728 0.74304 0.0
C56 C 0.46457 0.71399 0.71636 0.0
C57 C 0.48199 0.76239 0.69485 0.0
C58 C 0.48413 0.77774 0.72095 0.0
H59 H 0.45777 0.68884 0.71524 0.0
H60 H 0.48921 0.77528 0.67603 0.0
H61 H 0.48944 0.65789 0.68879 0.0
H62 H 0.57888 0.68248 0.65227 0.0
H63 H 0.38036 0.81156 0.65251 0.0
H64 H 0.46181 0.71342 0.76141 0.0
H65 H 0.49089 0.80307 0.72134 0.0
C66 C 0.79294 0.53231 0.15529 0.0
C67 C 0.81317 0.55607 0.16568 0.0
N68 N 0.83655 0.54182 0.1812 0.0
N69 N 0.8035 0.50309 0.16402 0.0
C70 C 0.83041 0.50968 0.17936 0.0
H71 H 0.77067 0.53634 0.1438 0.0
Co72 Co 0.77987 0.46437 0.16162 0.0
C73 C 0.82469 0.4159 0.18551 0.0
O74 O 0.80136 0.405 0.20185 0.0
N75 N 0.75546 0.42495 0.15863 0.0
C76 C 0.71559 0.38821 0.15823 0.0
C77 C 0.72326 0.42037 0.16248 0.0
C78 C 0.76628 0.39525 0.15057 0.0
N79 N 0.74285 0.37244 0.15109 0.0
O80 O 0.78747 0.46203 0.12195 0.0
H81 H 0.70602 0.43898 0.16796 0.0
H82 H 0.79101 0.39008 0.14449 0.0
O83 O 0.81944 0.43947 0.16864 0.0
C84 C 0.76299 0.47319 0.1087 0.0
O85 O 0.73874 0.48501 0.12346 0.0
N86 N 0.76955 0.46894 0.20021 0.0
C87 C 0.74193 0.47178 0.2537 0.0
C88 C 0.77542 0.4669 0.25054 0.0
C89 C 0.78895 0.46625 0.22351 0.0
C90 C 0.73856 0.47955 0.20328 0.0
C91 C 0.72393 0.48035 0.22969 0.0
H92 H 0.81463 0.46207 0.22162 0.0
H93 H 0.72458 0.48597 0.18484 0.0
H94 H 0.84442 0.49141 0.19021 0.0
H95 H 0.80944 0.58195 0.16376 0.0
H96 H 0.69206 0.37706 0.16111 0.0
H97 H 0.7907 0.46187 0.26859 0.0
H98 H 0.69817 0.48519 0.23076 0.0
C99 C 0.97257 0.8004 0.65523 0.0
C100 C 0.94858 0.81988 0.66617 0.0
N101 N 0.96233 0.84199 0.68341 0.0
N102 N 1.00153 0.81008 0.66527 0.0
C103 C 0.99454 0.83584 0.68196 0.0
H104 H 0.96882 0.77941 0.64199 0.0
Co105 Co 0.0403 0.78664 0.66133 0.0
C106 C 0.08934 0.82944 0.68656 0.0
O107 O 0.10042 0.80473 0.70118 0.0
N108 N 0.07968 0.76238 0.65659 0.0
C109 C 0.11559 0.72207 0.65225 0.0
C110 C 0.08384 0.72988 0.65821 0.0
C111 C 0.10923 0.77339 0.64822 0.0
N112 N 0.13156 0.74958 0.64631 0.0
O113 O 0.04177 0.79635 0.62201 0.0
H114 H 0.06512 0.71247 0.66293 0.0
H115 H 0.11451 0.79844 0.64333 0.0
O116 O 0.06535 0.82577 0.66981 0.0
C117 C 0.03048 0.77216 0.60843 0.0
O118 O 0.01941 0.74732 0.62289 0.0
N119 N 0.03655 0.77412 0.6995 0.0
C120 C 0.03528 0.74364 0.75185 0.0
C121 C 0.03958 0.77733 0.74997 0.0
C122 C 0.03957 0.79226 0.72352 0.0
C123 C 0.02639 0.74286 0.70148 0.0
C124 C 0.02647 0.7268 0.72726 0.0
H125 H 0.0436 0.81803 0.72264 0.0
H126 H 0.01956 0.72984 0.68264 0.0
H127 H 0.01251 0.84866 0.69419 0.0
H128 H 0.92286 0.81706 0.66243 0.0
H129 H 0.1263 0.69812 0.65286 0.0
H130 H 0.0446 0.79178 0.76854 0.0
H131 H 0.02198 0.70096 0.72731 0.0
C132 C 0.70529 0.52795 0.85074 0.0
C133 C 0.68456 0.55073 0.8394 0.0
N134 N 0.6633 0.53542 0.82239 0.0
N135 N 0.6971 0.49832 0.84111 0.0
C136 C 0.6711 0.50367 0.82428 0.0
H137 H 0.72635 0.53304 0.86357 0.0
Co138 Co 0.72228 0.46057 0.84412 0.0
C139 C 0.68154 0.40933 0.8202 0.0
O140 O 0.70679 0.3988 0.80596 0.0
N141 N 0.74797 0.42196 0.84757 0.0
C142 C 0.78549 0.3835 0.84218 0.0
C143 C 0.7782 0.41566 0.83794 0.0
C144 C 0.73844 0.39338 0.85926 0.0
N145 N 0.76031 0.36939 0.85534 0.0
O146 O 0.71379 0.4581 0.88366 0.0
H147 H 0.79412 0.43274 0.82779 0.0
H148 H 0.71481 0.38961 0.86865 0.0
O149 O 0.68402 0.43413 0.83619 0.0
C150 C 0.73772 0.47033 0.89696 0.0
O151 O 0.76174 0.48267 0.88223 0.0
N152 N 0.73338 0.46556 0.80573 0.0
C153 C 0.76279 0.46942 0.75299 0.0
C154 C 0.7296 0.46215 0.75532 0.0
C155 C 0.7152 0.46067 0.78197 0.0
C156 C 0.7634 0.47888 0.80332 0.0
C157 C 0.77903 0.48009 0.77734 0.0
H158 H 0.68993 0.45428 0.78318 0.0
H159 H 0.77634 0.48611 0.82214 0.0
H160 H 0.65897 0.48486 0.81246 0.0
H161 H 0.6866 0.57675 0.84178 0.0
H162 H 0.80732 0.37119 0.83538 0.0
H163 H 0.71529 0.45588 0.73698 0.0
H164 H 0.8044 0.48676 0.77705 0.0
C165 C 0.97197 0.70743 0.35689 0.0
C166 C 0.94973 0.68591 0.34595 0.0
N167 N 0.96266 0.67175 0.32289 0.0
N168 N 0.99903 0.70686 0.34099 0.0
C169 C 0.99275 0.68462 0.32068 0.0
H170 H 0.96798 0.72341 0.37461 0.0
Co171 Co 0.03444 0.73529 0.34343 0.0
C172 C 0.09115 0.69834 0.32219 0.0
O173 O 0.10171 0.72424 0.3089 0.0
N174 N 0.07045 0.76412 0.34619 0.0
C175 C 0.10824 0.80084 0.33617 0.0
C176 C 0.0763 0.79214 0.33241 0.0
C177 C 0.09875 0.7576 0.35963 0.0
N178 N 0.12274 0.7786 0.35278 0.0
O179 O 0.03856 0.72697 0.3829 0.0
H180 H 0.05944 0.80444 0.31872 0.0
H181 H 0.10241 0.73588 0.37199 0.0
O182 O 0.064 0.69915 0.33526 0.0
C183 C 0.02575 0.75024 0.39664 0.0
O184 O 0.01133 0.77348 0.3824 0.0
N185 N 0.02779 0.74632 0.30546 0.0
C186 C 0.02152 0.78045 0.25537 0.0
C187 C 0.03789 0.75056 0.25594 0.0
C188 C 0.04002 0.73333 0.28122 0.0
C189 C 0.00708 0.77198 0.30411 0.0
C190 C 0.00339 0.78939 0.27917 0.0
H191 H 0.0527 0.71055 0.28119 0.0
H192 H 0.99567 0.7807 0.3232 0.0
H193 H 0.00929 0.67932 0.30364 0.0
H194 H 0.92556 0.68178 0.35405 0.0
H195 H 0.12037 0.82048 0.32532 0.0
H196 H 0.05136 0.74185 0.23787 0.0
H197 H 0.98908 0.8114 0.27937 0.0
C198 C 0.80609 0.97906 0.8628 0.0
C199 C 0.82793 0.95791 0.85073 0.0
N200 N 0.84171 0.97255 0.82832 0.0
N201 N 0.80613 0.0071 0.84824 0.0
C202 C 0.8283 1.00247 0.82754 0.0
H203 H 0.78998 0.97357 0.88013 0.0
Co204 Co 0.77685 0.04162 0.85207 0.0
C205 C 0.81129 0.09951 0.82995 0.0
O206 O 0.78429 0.11007 0.81843 0.0
N207 N 0.74703 0.07668 0.85621 0.0
C208 C 0.70738 0.11214 0.8488 0.0
C209 C 0.71775 0.08091 0.84414 0.0
C210 C 0.75282 0.10521 0.86958 0.0
N211 N 0.72985 0.12799 0.86431 0.0
O212 O 0.78696 0.04556 0.89122 0.0
H213 H 0.70529 0.0633 0.83128 0.0
H214 H 0.77516 0.1098 0.88079 0.0
O215 O 0.81175 0.07212 0.84261 0.0
C216 C 0.76474 0.0314 0.90529 0.0
O217 O 0.74156 0.0165 0.89135 0.0
N218 N 0.76423 0.03495 0.81449 0.0
C219 C 0.73019 0.02523 0.76465 0.0
C220 C 0.75908 0.04333 0.76476 0.0
C221 C 0.77623 0.0473 0.78991 0.0
C222 C 0.73932 0.01329 0.81381 0.0
C223 C 0.72189 0.008 0.78908 0.0
H224 H 0.79836 0.06108 0.7894 0.0
H225 H 0.7314 1.00195 0.83319 0.0
H226 H 0.83366 0.02031 0.81152 0.0
H227 H 0.83177 0.93296 0.85696 0.0
H228 H 0.68586 0.12264 0.83956 0.0
H229 H 0.76712 0.05642 0.74625 0.0
H230 H 0.70059 0.99267 0.78973 0.0
C231 C 0.52271 0.78745 0.35128 0.0
C232 C 0.54786 0.8073 0.343 0.0
N233 N 0.53646 0.82915 0.32424 0.0
N234 N 0.49538 0.7967 0.33803 0.0
C235 C 0.50442 0.82244 0.32217 0.0
H236 H 0.5247 0.76652 0.36488 0.0
Co237 Co 0.45626 0.7737 0.33657 0.0
C238 C 0.40897 0.81985 0.31366 0.0
O239 O 0.39788 0.79696 0.29694 0.0
N240 N 0.41622 0.75016 0.33539 0.0
C241 C 0.37595 0.71676 0.32345 0.0
C242 C 0.40867 0.72267 0.32126 0.0
C243 C 0.38765 0.75935 0.34727 0.0
N244 N 0.36269 0.74 0.33963 0.0
O245 O 0.45086 0.77855 0.37638 0.0
H246 H 0.42527 0.70797 0.30927 0.0
H247 H 0.38475 0.78129 0.35956 0.0
O248 O 0.43272 0.81415 0.33022 0.0
C249 C 0.45975 0.75262 0.3888 0.0
O250 O 0.47043 0.72848 0.37326 0.0
N251 N 0.46413 0.76602 0.29797 0.0
C252 C 0.47273 0.73996 0.24428 0.0
C253 C 0.46482 0.77288 0.24773 0.0
C254 C 0.4608 0.78556 0.27486 0.0
C255 C 0.47787 0.73627 0.29501 0.0
C256 C 0.48159 0.72237 0.26849 0.0
H257 H 0.45398 0.81065 0.27685 0.0
H258 H 0.48316 0.72204 0.3136 0.0
H259 H 0.48812 0.83476 0.30801 0.0
H260 H 0.57283 0.80478 0.34959 0.0
H261 H 0.36273 0.69735 0.31323 0.0
H262 H 0.45987 0.78827 0.22975 0.0
H263 H 0.48847 0.69709 0.26755 0.0
C264 C 0.30347 0.02859 0.84901 0.0
C265 C 0.32437 0.05134 0.83785 0.0
N266 N 0.34555 0.03608 0.82075 0.0
N267 N 0.31147 0.99899 0.83918 0.0
C268 C 0.33754 0.00435 0.82241 0.0
H269 H 0.28242 0.03369 0.86183 0.0
Co270 Co 0.2858 0.96147 0.84189 0.0
C271 C 0.32617 0.91055 0.81683 0.0
O272 O 0.30106 0.90067 0.80206 0.0
N273 N 0.25956 0.92314 0.84504 0.0
C274 C 0.21947 0.88699 0.84206 0.0
C275 C 0.22807 0.91888 0.83808 0.0
C276 C 0.26877 0.89353 0.85484 0.0
N277 N 0.24528 0.87077 0.85221 0.0
O278 O 0.29464 0.95819 0.88134 0.0
H279 H 0.21195 0.93744 0.83042 0.0
H280 H 0.29294 0.88838 0.86248 0.0
O281 O 0.32362 0.93478 0.83345 0.0
C282 C 0.27117 0.97063 0.89511 0.0
O283 O 0.24712 0.98362 0.88086 0.0
N284 N 0.27443 0.96727 0.80364 0.0
C285 C 0.24532 0.97423 0.75098 0.0
C286 C 0.27829 0.96607 0.75313 0.0
C287 C 0.29257 0.96314 0.77974 0.0
C288 C 0.2445 0.98089 0.80163 0.0
C289 C 0.22906 0.98373 0.77567 0.0
H290 H 0.31777 0.95646 0.78075 0.0
H291 H 0.23174 0.98781 0.82062 0.0
H292 H 0.34955 0.98557 0.81046 0.0
H293 H 0.32247 0.07734 0.84042 0.0
H294 H 0.19596 0.87657 0.83752 0.0
H295 H 0.29249 0.96034 0.73458 0.0
H296 H 0.20384 0.99094 0.77546 0.0
C297 C 0.47419 0.29012 0.34426 0.0
C298 C 0.45052 0.31097 0.33465 0.0
N299 N 0.4646 0.33353 0.31812 0.0
N300 N 0.50318 0.29949 0.33401 0.0
C301 C 0.49658 0.32632 0.31859 0.0
H302 H 0.47012 0.26817 0.35619 0.0
Co303 Co 0.54105 0.27444 0.33431 0.0
C304 C 0.59096 0.31747 0.31068 0.0
O305 O 0.60057 0.29386 0.29403 0.0
N306 N 0.57969 0.24863 0.33501 0.0
C307 C 0.61646 0.20967 0.32873 0.0
C308 C 0.5843 0.21791 0.32595 0.0
C309 C 0.60934 0.25761 0.34477 0.0
N310 N 0.63247 0.23491 0.34017 0.0
O311 O 0.54551 0.28047 0.37404 0.0
H312 H 0.56582 0.20212 0.31761 0.0
H313 H 0.6142 0.28118 0.35381 0.0
O314 O 0.56713 0.31324 0.3275 0.0
C315 C 0.53459 0.25575 0.38709 0.0
O316 O 0.52197 0.23203 0.37217 0.0
N317 N 0.53419 0.26585 0.2957 0.0
C318 C 0.52768 0.23943 0.24201 0.0
C319 C 0.53515 0.27244 0.24544 0.0
C320 C 0.53785 0.28537 0.27261 0.0
C321 C 0.52071 0.23601 0.29254 0.0
C322 C 0.51803 0.22191 0.26601 0.0
H323 H 0.54429 0.31056 0.2747 0.0
H324 H 0.51422 0.22211 0.31103 0.0
H325 H 0.51464 0.33941 0.30667 0.0
H326 H 0.42468 0.30815 0.3378 0.0
H327 H 0.62717 0.18685 0.32244 0.0
H328 H 0.54085 0.28761 0.22749 0.0
H329 H 0.51124 0.19661 0.26491 0.0
C330 C 0.19882 0.47624 0.86055 0.0
C331 C 0.17813 0.45358 0.84903 0.0
N332 N 0.16394 0.46654 0.82602 0.0
N333 N 0.19773 0.50359 0.84504 0.0
C334 C 0.17597 0.49702 0.82437 0.0
H335 H 0.21473 0.47233 0.87832 0.0
Co336 Co 0.22565 0.5395 0.84789 0.0
C337 C 0.18953 0.59301 0.82061 0.0
O338 O 0.21584 0.603 0.80758 0.0
N339 N 0.25391 0.57605 0.85094 0.0
C340 C 0.29499 0.61058 0.8456 0.0
C341 C 0.28498 0.57895 0.84233 0.0
C342 C 0.24635 0.60605 0.86082 0.0
N343 N 0.27044 0.62789 0.8568 0.0
O344 O 0.21395 0.5458 0.88646 0.0
H345 H 0.29946 0.55974 0.83343 0.0
H346 H 0.22261 0.61228 0.86888 0.0
O347 O 0.19022 0.56786 0.8363 0.0
C348 C 0.23564 0.53282 0.90192 0.0
O349 O 0.25962 0.51734 0.88959 0.0
N350 N 0.24005 0.5307 0.8111 0.0
C351 C 0.27783 0.52062 0.76344 0.0
C352 C 0.24745 0.5359 0.76127 0.0
C353 C 0.22837 0.53982 0.78536 0.0
C354 C 0.2664 0.5109 0.8126 0.0
C355 C 0.28566 0.50537 0.78898 0.0
H356 H 0.20509 0.55132 0.78315 0.0
H357 H 0.27397 0.50151 0.83285 0.0
H358 H 0.17051 0.51361 0.8074 0.0
H359 H 0.17465 0.4291 0.85662 0.0
H360 H 0.31836 0.62017 0.83945 0.0
H361 H 0.2395 0.54707 0.74181 0.0
H362 H 0.30793 0.49175 0.79138 0.0
C363 C 0.03253 0.21611 0.34472 0.0
C364 C 0.05682 0.19567 0.33561 0.0
N365 N 0.04406 0.17397 0.31737 0.0
N366 N 0.00438 0.20741 0.33252 0.0
C367 C 0.01207 0.18134 0.31648 0.0
H368 H 0.03563 0.23709 0.35811 0.0
Co369 Co 0.966 0.23178 0.33238 0.0
C370 C 0.91654 0.18651 0.3112 0.0
O371 O 0.90574 0.20909 0.29403 0.0
N372 N 0.92687 0.25685 0.3326 0.0
C373 C 0.8895 0.29496 0.32532 0.0
C374 C 0.92171 0.28701 0.32246 0.0
C375 C 0.89749 0.24795 0.34302 0.0
N376 N 0.87398 0.27009 0.33786 0.0
O377 O 0.96225 0.22759 0.37245 0.0
H378 H 0.93988 0.30258 0.31332 0.0
H379 H 0.89312 0.22479 0.35298 0.0
O380 O 0.94075 0.19212 0.32727 0.0
C381 C 0.97167 0.25369 0.38436 0.0
O382 O 0.9827 0.27721 0.36831 0.0
N383 N 0.97207 0.23888 0.29341 0.0
C384 C 0.9775 0.26424 0.23922 0.0
C385 C 0.96959 0.23144 0.24326 0.0
C386 C 0.96735 0.21906 0.27063 0.0
C387 C 0.98573 0.26853 0.28955 0.0
C388 C 0.98792 0.28209 0.26279 0.0
H389 H 0.96051 0.19403 0.27312 0.0
H390 H 0.99262 0.28281 0.30773 0.0
H391 H 0.99484 0.16924 0.30303 0.0
H392 H 0.08213 0.19771 0.34126 0.0
H393 H 0.87842 0.31734 0.31835 0.0
H394 H 0.96323 0.216 0.22563 0.0
H395 H 0.99495 0.30729 0.2612 0.0
C396 C 0.29695 0.47914 0.14946 0.0
C397 C 0.31772 0.45539 0.15908 0.0
N398 N 0.33355 0.46673 0.18196 0.0
N399 N 0.29968 0.50549 0.16607 0.0
C400 C 0.32237 0.4973 0.18544 0.0
H401 H 0.27996 0.47675 0.13223 0.0
Co402 Co 0.2734 0.54249 0.16623 0.0
C403 C 0.31603 0.59515 0.18754 0.0
O404 O 0.29212 0.60804 0.20204 0.0
N405 N 0.24668 0.58025 0.16638 0.0
C406 C 0.21113 0.61814 0.17922 0.0
C407 C 0.21961 0.586 0.18165 0.0
C408 C 0.25298 0.60904 0.15359 0.0
N409 N 0.23234 0.6327 0.16178 0.0
O410 O 0.27962 0.5481 0.12657 0.0
H411 H 0.20754 0.56865 0.19503 0.0
H412 H 0.27425 0.61335 0.14074 0.0
O413 O 0.31177 0.56904 0.17352 0.0
C414 C 0.25435 0.53844 0.11353 0.0
O415 O 0.23056 0.52594 0.12844 0.0
N416 N 0.26414 0.53446 0.20437 0.0
C417 C 0.22928 0.52941 0.25407 0.0
C418 C 0.25961 0.54501 0.25378 0.0
C419 C 0.27727 0.54644 0.22866 0.0
C420 C 0.23835 0.51391 0.2057 0.0
C421 C 0.2207 0.51063 0.23055 0.0
H422 H 0.30034 0.55856 0.22879 0.0
H423 H 0.22949 0.50267 0.18659 0.0
H424 H 0.3291 0.51285 0.20282 0.0
H425 H 0.3202 0.43133 0.15025 0.0
H426 H 0.19179 0.63024 0.19052 0.0
H427 H 0.26825 0.55868 0.27176 0.0
H428 H 0.19848 0.49664 0.23026 0.0
C429 C 0.03508 0.30347 0.64552 0.0
C430 C 0.05726 0.32347 0.65852 0.0
N431 N 0.04164 0.34173 0.67781 0.0
N432 N 0.00538 0.30905 0.65631 0.0
C433 C 0.01016 0.33265 0.6758 0.0
H434 H 0.04067 0.28489 0.63022 0.0
Co435 Co 0.96809 0.284 0.64939 0.0
C436 C 0.91617 0.32075 0.67821 0.0
O437 O 0.90548 0.29398 0.69003 0.0
N438 N 0.93016 0.25857 0.64191 0.0
C439 C 0.89489 0.21797 0.63612 0.0
C440 C 0.92661 0.22596 0.64221 0.0
C441 C 0.90042 0.26951 0.63408 0.0
N442 N 0.8784 0.24551 0.63141 0.0
O443 O 0.96591 0.29919 0.6114 0.0
H444 H 0.94559 0.20875 0.64673 0.0
H445 H 0.89461 0.2948 0.63081 0.0
O446 O 0.94082 0.32013 0.66189 0.0
C447 C 0.97947 0.27811 0.59563 0.0
O448 O 0.99316 0.25285 0.60759 0.0
N449 N 0.97263 0.26603 0.68564 0.0
C450 C 0.97352 0.22608 0.73265 0.0
C451 C 0.96565 0.25906 0.73541 0.0
C452 C 0.96643 0.27903 0.7116 0.0
C453 C 0.98621 0.23605 0.6838 0.0
C454 C 0.98664 0.21543 0.70701 0.0
H455 H 0.96014 0.30422 0.71405 0.0
H456 H 0.99482 0.22733 0.66364 0.0
H457 H 0.99107 0.34232 0.68895 0.0
H458 H 0.08321 0.32314 0.65512 0.0
H459 H 0.88445 0.19388 0.6363 0.0
H460 H 0.95657 0.26882 0.75508 0.0
H461 H 0.99478 0.19066 0.70432 0.0
C462 C 0.2128 0.03094 0.15077 0.0
C463 C 0.19203 0.0543 0.1611 0.0
N464 N 0.17069 0.03992 0.17861 0.0
N465 N 0.20456 1.00186 0.16153 0.0
C466 C 0.17844 0.00809 0.178 0.0
H467 H 0.23397 0.03533 0.13788 0.0
Co468 Co 0.23021 0.96436 0.16012 0.0
C469 C 0.18926 0.91174 0.18183 0.0
O470 O 0.21398 0.90201 0.19717 0.0
N471 N 0.25658 0.92614 0.15821 0.0
C472 C 0.29286 0.88733 0.16662 0.0
C473 C 0.28559 0.91961 0.17016 0.0
C474 C 0.24798 0.89764 0.14594 0.0
N475 N 0.26882 0.87318 0.15182 0.0
O476 O 0.22377 0.96105 0.12028 0.0
H477 H 0.30031 0.93648 0.18184 0.0
H478 H 0.22553 0.89451 0.13446 0.0
O479 O 0.19181 0.93735 0.16677 0.0
C480 C 0.24828 0.97229 0.10712 0.0
O481 O 0.27215 0.98475 0.12196 0.0
N482 N 0.23902 0.97004 0.19883 0.0
C483 C 0.26471 0.97612 0.25293 0.0
C484 C 0.23201 0.96761 0.24901 0.0
C485 C 0.21957 0.96472 0.22172 0.0
C486 C 0.26842 0.98434 0.20249 0.0
C487 C 0.28221 0.98672 0.2292 0.0
H488 H 0.19475 0.95711 0.21935 0.0
H489 H 0.28242 0.99143 0.1842 0.0
H490 H 0.16622 0.98993 0.19048 0.0
H491 H 0.19414 0.08017 0.15774 0.0
H492 H 0.31334 0.87497 0.17597 0.0
H493 H 0.21662 0.96134 0.26668 0.0
H494 H 0.30729 0.9942 0.23058 0.0
C495 C 0.4792 0.20309 0.64526 0.0
C496 C 0.45572 0.18326 0.65652 0.0
N497 N 0.46971 0.16293 0.67524 0.0
N498 N 0.50818 0.19544 0.65645 0.0
C499 C 0.50171 0.17043 0.67415 0.0
H500 H 0.47498 0.22302 0.63094 0.0
Co501 Co 0.54588 0.22076 0.65234 0.0
C502 C 0.5984 0.18226 0.67695 0.0
O503 O 0.60803 0.20864 0.69011 0.0
N504 N 0.58403 0.24687 0.64729 0.0
C505 C 0.62018 0.28722 0.64585 0.0
C506 C 0.58862 0.27888 0.65215 0.0
C507 C 0.61295 0.23694 0.63658 0.0
N508 N 0.63554 0.26062 0.63645 0.0
O509 O 0.54797 0.21049 0.61308 0.0
H510 H 0.57057 0.29549 0.65996 0.0
H511 H 0.61781 0.2124 0.62971 0.0
O512 O 0.57297 0.18312 0.6615 0.0
C513 C 0.5359 0.23389 0.599 0.0
O514 O 0.52377 0.25866 0.61292 0.0
N515 N 0.54143 0.23344 0.69043 0.0
C516 C 0.53503 0.2622 0.74343 0.0
C517 C 0.54266 0.22915 0.74093 0.0
C518 C 0.54567 0.2152 0.71424 0.0
C519 C 0.52874 0.26375 0.69268 0.0
C520 C 0.52631 0.27903 0.7188 0.0
H521 H 0.55231 0.19001 0.71311 0.0
H522 H 0.52175 0.27673 0.67384 0.0
H523 H 0.51991 0.15909 0.68713 0.0
H524 H 0.43011 0.1848 0.65186 0.0
H525 H 0.63135 0.31068 0.64907 0.0
H526 H 0.54774 0.21445 0.75931 0.0
H527 H 0.5196 0.30437 0.71919 0.0
C528 C 0.64257 0.95738 0.23576 0.0
C529 C 0.64823 0.94514 0.20857 0.0
C530 C 0.62349 0.94025 0.25532 0.0
C531 C 0.60938 0.91026 0.24745 0.0
C532 C 0.61423 0.89827 0.21975 0.0
C533 C 0.63377 0.91571 0.20075 0.0
C534 C 0.61937 0.95372 0.2847 0.0
C535 C 0.59925 0.86667 0.21033 0.0
C536 C 0.58882 0.84754 0.30367 0.0
C537 C 0.55507 0.8512 0.30663 0.0
C538 C 0.60677 0.86705 0.28502 0.0
C539 C 0.59074 0.89072 0.26851 0.0
C540 C 0.5569 0.89511 0.27171 0.0
C541 C 0.53959 0.87558 0.29084 0.0
C542 C 0.64291 0.86182 0.28256 0.0
C543 C 0.53883 0.91999 0.25446 0.0
H544 H 0.65409 0.9798 0.24214 0.0
H545 H 0.6379 0.90628 0.17972 0.0
H546 H 0.59326 0.95558 0.29006 0.0
H547 H 0.63059 0.937 0.30021 0.0
H548 H 0.63064 0.97803 0.28711 0.0
H549 H 0.6038 0.8616 0.18767 0.0
H550 H 0.60929 0.84641 0.22298 0.0
H551 H 0.57267 0.86712 0.21398 0.0
H552 H 0.60135 0.82885 0.31534 0.0
H553 H 0.51378 0.87936 0.29313 0.0
H554 H 0.65596 0.88501 0.28597 0.0
H555 H 0.64895 0.85333 0.26099 0.0
H556 H 0.65206 0.84371 0.29796 0.0
H557 H 0.54939 0.9444 0.25789 0.0
H558 H 0.5126 0.92086 0.25975 0.0
H559 H 0.54138 0.91433 0.23169 0.0
C560 C 0.62684 0.5803 0.8084 0.0
C561 C 0.6416 0.55048 0.80229 0.0
C562 C 0.60804 0.59666 0.78812 0.0
C563 C 0.60416 0.58311 0.76084 0.0
C564 C 0.61827 0.55258 0.75478 0.0
C565 C 0.63668 0.53662 0.77556 0.0
C566 C 0.59313 0.62894 0.79563 0.0
C567 C 0.61512 0.53737 0.72595 0.0
C568 C 0.53836 0.61732 0.71241 0.0
C569 C 0.5558 0.63994 0.69616 0.0
C570 C 0.55369 0.59853 0.73337 0.0
C571 C 0.58742 0.60198 0.73811 0.0
C572 C 0.60534 0.62402 0.72136 0.0
C573 C 0.58939 0.64273 0.70083 0.0
C574 C 0.53365 0.57535 0.75077 0.0
C575 C 0.64141 0.62833 0.72547 0.0
H576 H 0.6303 0.59101 0.82905 0.0
H577 H 0.64837 0.51387 0.77041 0.0
H578 H 0.6045 0.64838 0.78284 0.0
H579 H 0.56685 0.62887 0.79062 0.0
H580 H 0.59627 0.63499 0.8183 0.0
H581 H 0.62544 0.51251 0.72521 0.0
H582 H 0.58928 0.53624 0.71955 0.0
H583 H 0.62794 0.55256 0.71018 0.0
H584 H 0.51261 0.61431 0.70898 0.0
H585 H 0.60344 0.66012 0.68895 0.0
H586 H 0.53497 0.58228 0.77336 0.0
H587 H 0.54353 0.55043 0.74894 0.0
H588 H 0.50778 0.57504 0.74423 0.0
H589 H 0.6463 0.63765 0.74701 0.0
H590 H 0.65214 0.64542 0.70996 0.0
H591 H 0.65392 0.60463 0.72351 0.0
C592 C 0.91239 0.65056 0.30083 0.0
C593 C 0.94639 0.65073 0.30283 0.0
C594 C 0.89623 0.63146 0.2807 0.0
C595 C 0.91435 0.612 0.26181 0.0
C596 C 0.94863 0.6117 0.26382 0.0
C597 C 0.9642 0.63096 0.28429 0.0
C598 C 0.85964 0.63252 0.27939 0.0
C599 C 0.96887 0.59125 0.24414 0.0
C600 C 0.86761 0.54371 0.22593 0.0
C601 C 0.85892 0.55795 0.2001 0.0
C602 C 0.88655 0.56056 0.2458 0.0
C603 C 0.89722 0.59246 0.23977 0.0
C604 C 0.88956 0.6065 0.21332 0.0
C605 C 0.87047 0.58915 0.19389 0.0
C606 C 0.89397 0.54469 0.27374 0.0
C607 C 0.90064 0.64032 0.20589 0.0
H608 H 0.89823 0.66598 0.31457 0.0
H609 H 0.99039 0.63046 0.28577 0.0
H610 H 0.85178 0.64187 0.25855 0.0
H611 H 0.84958 0.60771 0.28164 0.0
H612 H 0.84903 0.64813 0.2961 0.0
H613 H 0.99523 0.5933 0.24865 0.0
H614 H 0.96166 0.56542 0.24589 0.0
H615 H 0.9645 0.59876 0.222 0.0
H616 H 0.85847 0.51986 0.23119 0.0
H617 H 0.86418 0.60018 0.1739 0.0
H618 H 0.88139 0.55797 0.29091 0.0
H619 H 0.92035 0.54587 0.27821 0.0
H620 H 0.88616 0.51893 0.27434 0.0
H621 H 0.88892 0.6581 0.22018 0.0
H622 H 0.89465 0.64689 0.18378 0.0
H623 H 0.92722 0.64255 0.2089 0.0
C624 C 0.96191 0.89075 0.71429 0.0
C625 C 0.94586 0.86377 0.70274 0.0
C626 C 0.94673 0.91081 0.73442 0.0
C627 C 0.91464 0.90388 0.74326 0.0
C628 C 0.8981 0.87712 0.7313 0.0
C629 C 0.91385 0.85745 0.71135 0.0
C630 C 0.9652 0.93915 0.74656 0.0
C631 C 0.86388 0.86878 0.74005 0.0
C632 C 0.88266 0.93149 0.81477 0.0
C633 C 0.86241 0.95749 0.80739 0.0
C634 C 0.90068 0.91463 0.79428 0.0
C635 C 0.89845 0.92386 0.76556 0.0
C636 C 0.87894 0.95079 0.75807 0.0
C637 C 0.86121 0.96725 0.77902 0.0
C638 C 0.92134 0.88625 0.80328 0.0
C639 C 0.87574 0.96142 0.72774 0.0
H640 H 0.98642 0.89622 0.70766 0.0
H641 H 0.90121 0.83651 0.70312 0.0
H642 H 0.9514 0.96192 0.74327 0.0
H643 H 0.96811 0.93594 0.76965 0.0
H644 H 0.98961 0.9419 0.73694 0.0
H645 H 0.85391 0.84794 0.72801 0.0
H646 H 0.86333 0.86269 0.76284 0.0
H647 H 0.84774 0.88998 0.7369 0.0
H648 H 0.88413 0.92405 0.83663 0.0
H649 H 0.84541 0.987 0.77293 0.0
H650 H 0.94645 0.88919 0.79529 0.0
H651 H 0.91153 0.86357 0.79403 0.0
H652 H 0.9222 0.88348 0.82657 0.0
H653 H 0.90005 0.96488 0.71819 0.0
H654 H 0.8618 0.98433 0.72563 0.0
H655 H 0.86323 0.94226 0.71542 0.0
C656 C 0.37243 0.03759 0.77399 0.0
C657 C 0.36739 0.05125 0.80079 0.0
C658 C 0.39091 0.05371 0.75335 0.0
C659 C 0.40499 0.08423 0.75959 0.0
C660 C 0.40101 0.09756 0.78694 0.0
C661 C 0.38215 0.08103 0.8071 0.0
C662 C 0.39418 0.03872 0.72444 0.0
C663 C 0.41586 0.12981 0.79467 0.0
C664 C 0.47084 0.11901 0.71143 0.0
C665 C 0.45338 0.14167 0.69524 0.0
C666 C 0.45552 0.10003 0.73227 0.0
C667 C 0.42175 0.10332 0.73698 0.0
C668 C 0.40383 0.12544 0.72033 0.0
C669 C 0.41977 0.14432 0.6999 0.0
C670 C 0.47557 0.07678 0.74958 0.0
C671 C 0.36774 0.12962 0.72441 0.0
H672 H 0.36075 0.01487 0.76869 0.0
H673 H 0.37863 0.09159 0.82779 0.0
H674 H 0.38135 0.05398 0.70874 0.0
H675 H 0.42004 0.03771 0.71809 0.0
H676 H 0.38393 0.01383 0.72356 0.0
H677 H 0.41266 0.13568 0.81737 0.0
H678 H 0.44215 0.12983 0.7897 0.0
H679 H 0.40448 0.14932 0.78197 0.0
H680 H 0.4966 0.1161 0.70804 0.0
H681 H 0.40567 0.16171 0.68809 0.0
H682 H 0.46576 0.05185 0.74758 0.0
H683 H 0.47417 0.08352 0.7722 0.0
H684 H 0.50146 0.0766 0.74309 0.0
H685 H 0.35528 0.10591 0.72226 0.0
H686 H 0.35701 0.14682 0.709 0.0
H687 H 0.36278 0.13872 0.746 0.0
C688 C 0.46131 0.36397 0.27312 0.0
C689 C 0.44815 0.35606 0.29958 0.0
C690 C 0.44419 0.38342 0.25383 0.0
C691 C 0.4131 0.3954 0.26107 0.0
C692 C 0.40009 0.38832 0.28804 0.0
C693 C 0.4177 0.36872 0.30689 0.0
C694 C 0.45894 0.3902 0.22529 0.0
C695 C 0.36716 0.40079 0.29674 0.0
C696 C 0.37627 0.46515 0.21888 0.0
C697 C 0.35465 0.44884 0.20086 0.0
C698 C 0.39559 0.44815 0.23839 0.0
C699 C 0.39347 0.41392 0.23996 0.0
C700 C 0.37216 0.39726 0.22154 0.0
C701 C 0.35305 0.41485 0.20234 0.0
C702 C 0.41806 0.46686 0.25755 0.0
C703 C 0.36915 0.36079 0.22242 0.0
H704 H 0.48452 0.35394 0.26699 0.0
H705 H 0.40749 0.36302 0.32734 0.0
H706 H 0.44398 0.37871 0.20861 0.0
H707 H 0.45917 0.41665 0.22111 0.0
H708 H 0.48412 0.38084 0.22354 0.0
H709 H 0.3612 0.39459 0.31894 0.0
H710 H 0.36613 0.42751 0.29427 0.0
H711 H 0.34825 0.39031 0.28282 0.0
H712 H 0.37816 0.49128 0.21775 0.0
H713 H 0.33623 0.40188 0.18895 0.0
H714 H 0.44335 0.45831 0.25473 0.0
H715 H 0.41139 0.46247 0.2799 0.0
H716 H 0.41725 0.49337 0.25348 0.0
H717 H 0.39324 0.34944 0.21916 0.0
H718 H 0.35221 0.35137 0.20615 0.0
H719 H 0.36034 0.35305 0.24348 0.0
C720 C 0.08652 0.37776 0.69297 0.0
C721 C 0.05643 0.3631 0.69846 0.0
C722 C 0.10262 0.39629 0.7136 0.0
C723 C 0.08834 0.40052 0.74052 0.0
C724 C 0.05747 0.38675 0.74594 0.0
C725 C 0.04194 0.36822 0.72492 0.0
C726 C 0.13541 0.41058 0.7068 0.0
C727 C 0.04129 0.39067 0.77429 0.0
C728 C 0.14594 0.41623 0.80197 0.0
C729 C 0.14378 0.45 0.80545 0.0
C730 C 0.12773 0.39992 0.78128 0.0
C731 C 0.10664 0.41764 0.76345 0.0
C732 C 0.10391 0.45165 0.76706 0.0
C733 C 0.12251 0.46739 0.78793 0.0
C734 C 0.13161 0.36369 0.77813 0.0
C735 C 0.08159 0.47146 0.74867 0.0
H736 H 0.09774 0.3745 0.67252 0.0
H737 H 0.01893 0.35683 0.72965 0.0
H738 H 0.13539 0.43704 0.711 0.0
H739 H 0.15412 0.39958 0.72062 0.0
H740 H 0.1425 0.4065 0.68448 0.0
H741 H 0.01628 0.38068 0.7745 0.0
H742 H 0.05574 0.37802 0.79067 0.0
H743 H 0.04028 0.41666 0.78023 0.0
H744 H 0.16258 0.40249 0.81494 0.0
H745 H 0.12032 0.49337 0.79058 0.0
H746 H 0.14129 0.35797 0.75687 0.0
H747 H 0.10769 0.35158 0.78002 0.0
H748 H 0.14823 0.35328 0.79418 0.0
H749 H 0.08923 0.46946 0.72631 0.0
H750 H 0.0814 0.49749 0.7547 0.0
H751 H 0.05649 0.46191 0.75007 0.0
C752 C 0.0448 0.12722 0.28411 0.0
C753 C 0.06141 0.15153 0.29912 0.0
C754 C 0.06087 0.10723 0.26447 0.0
C755 C 0.09457 0.11115 0.25988 0.0
C756 C 0.11172 0.1348 0.27557 0.0
C757 C 0.09501 0.15471 0.29479 0.0
C758 C 0.04161 0.08236 0.24818 0.0
C759 C 0.14774 0.13961 0.27161 0.0
C760 C 0.14462 0.04405 0.22554 0.0
C761 C 0.14911 0.05612 0.19812 0.0
C762 C 0.12635 0.06127 0.24565 0.0
C763 C 0.11189 0.09123 0.23818 0.0
C764 C 0.11543 0.10297 0.21025 0.0
C765 C 0.13413 0.08542 0.19067 0.0
C766 C 0.12357 0.04799 0.27522 0.0
C767 C 0.10009 0.13454 0.20123 0.0
H768 H 0.01908 0.12384 0.28743 0.0
H769 H 0.10838 0.17334 0.30581 0.0
H770 H 0.0429 0.08781 0.22529 0.0
H771 H 0.05216 0.05789 0.25129 0.0
H772 H 0.01572 0.08176 0.25461 0.0
H773 H 0.1579 0.1578 0.28646 0.0
H774 H 0.16072 0.11632 0.2747 0.0
H775 H 0.15271 0.14777 0.24974 0.0
H776 H 0.15651 0.02174 0.23168 0.0
H777 H 0.13731 0.09474 0.16949 0.0
H778 H 0.09775 0.0466 0.28165 0.0
H779 H 0.13591 0.06459 0.29019 0.0
H780 H 0.13455 0.02351 0.27723 0.0
H781 H 0.07376 0.13429 0.20602 0.0
H782 H 0.10338 0.13932 0.17835 0.0
H783 H 0.11098 0.15489 0.21325 0.0
C784 C 0.63951 0.1203 0.21631 0.0
C785 C 0.65095 0.1054 0.19183 0.0
C786 C 0.61265 0.14086 0.21549 0.0
C787 C 0.59727 0.14725 0.18929 0.0
C788 C 0.60775 0.13094 0.16465 0.0
C789 C 0.63449 0.10989 0.16627 0.0
C790 C 0.60198 0.15713 0.24256 0.0
C791 C 0.59246 0.13714 0.13627 0.0
C792 C 0.52262 0.19145 0.20974 0.0
C793 C 0.537 0.22151 0.21594 0.0
C794 C 0.54056 0.16705 0.19627 0.0
C795 C 0.57286 0.17362 0.18817 0.0
C796 C 0.58414 0.20598 0.18811 0.0
C797 C 0.56615 0.22967 0.20232 0.0
C798 C 0.52693 0.13317 0.19515 0.0
C799 C 0.61771 0.21438 0.17779 0.0
H800 H 0.65218 0.1165 0.23608 0.0
H801 H 0.6436 0.09846 0.14725 0.0
H802 H 0.60714 0.1835 0.24143 0.0
H803 H 0.57549 0.15412 0.24567 0.0
H804 H 0.61463 0.1472 0.26135 0.0
H805 H 0.59416 0.11533 0.12259 0.0
H806 H 0.56665 0.14438 0.13809 0.0
H807 H 0.60576 0.15706 0.12563 0.0
H808 H 0.49909 0.18554 0.21853 0.0
H809 H 0.5773 0.25308 0.20588 0.0
H810 H 0.53482 0.1197 0.21421 0.0
H811 H 0.53593 0.11989 0.17637 0.0
H812 H 0.49999 0.13347 0.19479 0.0
H813 H 0.63565 0.20791 0.19429 0.0
H814 H 0.62008 0.24071 0.17329 0.0
H815 H 0.62379 0.20051 0.15845 0.0
C816 C 0.29559 0.53239 0.71365 0.0
C817 C 0.30347 0.52718 0.7421 0.0
C818 C 0.31652 0.55004 0.69604 0.0
C819 C 0.34559 0.56274 0.70736 0.0
C820 C 0.35602 0.55281 0.73439 0.0
C821 C 0.3348 0.53518 0.75148 0.0
C822 C 0.30567 0.55845 0.66659 0.0
C823 C 0.38738 0.56499 0.747 0.0
C824 C 0.40451 0.62117 0.67282 0.0
C825 C 0.39286 0.65079 0.68329 0.0
C826 C 0.38806 0.59206 0.67855 0.0
C827 C 0.35974 0.59279 0.69541 0.0
C828 C 0.34694 0.62291 0.7045 0.0
C829 C 0.36359 0.65145 0.69822 0.0
C830 C 0.40207 0.56066 0.66771 0.0
C831 C 0.31663 0.62503 0.72241 0.0
H832 H 0.27201 0.52511 0.70579 0.0
H833 H 0.34161 0.53116 0.77326 0.0
H834 H 0.2938 0.58259 0.66677 0.0
H835 H 0.32667 0.55971 0.65198 0.0
H836 H 0.28793 0.54047 0.65843 0.0
H837 H 0.39439 0.55105 0.76609 0.0
H838 H 0.40737 0.56348 0.73144 0.0
H839 H 0.38451 0.59083 0.75307 0.0
H840 H 0.42694 0.62056 0.66091 0.0
H841 H 0.35404 0.67431 0.70585 0.0
H842 H 0.38317 0.5418 0.66487 0.0
H843 H 0.42022 0.55148 0.68301 0.0
H844 H 0.41473 0.56446 0.64729 0.0
H845 H 0.29615 0.61268 0.71173 0.0
H846 H 0.30936 0.65047 0.72678 0.0
H847 H 0.3207 0.61263 0.74288 0.0
C848 C 0.98288 0.31134 0.206 0.0
C849 C 0.96805 0.28172 0.21297 0.0
C850 C 0.96534 0.33554 0.1919 0.0
C851 C 0.93291 0.32925 0.184 0.0
C852 C 0.92102 0.29713 0.18493 0.0
C853 C 0.93865 0.27365 0.19972 0.0
C854 C 0.97958 0.3691 0.18979 0.0
C855 C 0.88727 0.28894 0.17492 0.0
C856 C 0.86705 0.38479 0.21018 0.0
C857 C 0.85573 0.39855 0.18516 0.0
C858 C 0.8937 0.36394 0.21013 0.0
C859 C 0.909 0.3561 0.18418 0.0
C860 C 0.89874 0.37136 0.15898 0.0
C861 C 0.87219 0.39271 0.15981 0.0
C862 C 0.90415 0.34885 0.23775 0.0
C863 C 0.91402 0.36365 0.13087 0.0
H864 H 0.00656 0.31713 0.21453 0.0
H865 H 0.9271 0.25058 0.20393 0.0
H866 H 0.9708 0.3818 0.17064 0.0
H867 H 0.97196 0.38346 0.20845 0.0
H868 H 0.0065 0.3683 0.18942 0.0
H869 H 0.88432 0.26248 0.17137 0.0
H870 H 0.86949 0.29661 0.19117 0.0
H871 H 0.88148 0.30198 0.1551 0.0
H872 H 0.85438 0.38965 0.22978 0.0
H873 H 0.86318 0.40327 0.14039 0.0
H874 H 0.93068 0.35164 0.24076 0.0
H875 H 0.89863 0.32252 0.23756 0.0
H876 H 0.89164 0.35985 0.25617 0.0
H877 H 0.93976 0.35629 0.133 0.0
H878 H 0.91253 0.38479 0.11641 0.0
H879 H 0.90057 0.34334 0.12094 0.0
C880 C 0.19709 0.98293 0.71948 0.0
C881 C 0.2263 0.96662 0.7251 0.0
C882 C 0.17225 0.96761 0.70427 0.0
C883 C 0.17729 0.93577 0.69418 0.0
C884 C 0.20888 0.92246 0.69452 0.0
C885 C 0.23307 0.93794 0.71024 0.0
C886 C 0.13933 0.98339 0.70291 0.0
C887 C 0.21572 0.88924 0.68255 0.0
C888 C 0.11919 0.86966 0.71473 0.0
C889 C 0.10638 0.86053 0.68867 0.0
C890 C 0.14036 0.89593 0.71695 0.0
C891 C 0.14945 0.91311 0.69226 0.0
C892 C 0.13483 0.90534 0.6661 0.0
C893 C 0.11317 0.87906 0.66463 0.0
C894 C 0.15469 0.90373 0.74553 0.0
C895 C 0.14362 0.92295 0.63931 0.0
H896 H 0.19225 0.00604 0.72951 0.0
H897 H 0.25573 0.92527 0.71363 0.0
H898 H 0.12648 0.97681 0.68316 0.0
H899 H 0.12444 0.97482 0.72093 0.0
H900 H 0.14126 0.0102 0.70431 0.0
H901 H 0.2421 0.88526 0.67929 0.0
H902 H 0.20673 0.87056 0.69746 0.0
H903 H 0.20298 0.88576 0.66218 0.0
H904 H 0.11351 0.85543 0.73332 0.0
H905 H 0.10325 0.87179 0.64441 0.0
H906 H 0.15222 0.92996 0.75018 0.0
H907 H 0.18093 0.89778 0.74562 0.0
H908 H 0.14286 0.88989 0.7628 0.0
H909 H 0.1512 0.94832 0.64339 0.0
H910 H 0.12293 0.92304 0.6243 0.0
H911 H 0.1641 0.91017 0.62897 0.0
C912 C 0.52651 0.31012 0.77551 0.0
C913 C 0.5419 0.28038 0.76996 0.0
C914 C 0.54157 0.33353 0.79252 0.0
C915 C 0.57215 0.32653 0.80448 0.0
C916 C 0.58394 0.29438 0.80398 0.0
C917 C 0.56889 0.27169 0.78639 0.0
C918 C 0.52724 0.3671 0.79404 0.0
C919 C 0.61549 0.28533 0.81804 0.0
C920 C 0.64257 0.38156 0.78931 0.0
C921 C 0.6503 0.39309 0.81615 0.0
C922 C 0.61548 0.36192 0.78505 0.0
C923 C 0.59599 0.35304 0.80846 0.0
C924 C 0.6025 0.36637 0.83541 0.0
C925 C 0.62969 0.38656 0.83892 0.0
C926 C 0.60912 0.34902 0.75569 0.0
C927 C 0.5824 0.35779 0.8609 0.0
H928 H 0.50445 0.31644 0.76438 0.0
H929 H 0.58084 0.24862 0.78317 0.0
H930 H 0.53274 0.37879 0.81457 0.0
H931 H 0.53795 0.38227 0.77711 0.0
H932 H 0.50054 0.36652 0.79094 0.0
H933 H 0.61748 0.2587 0.82101 0.0
H934 H 0.63604 0.29339 0.80462 0.0
H935 H 0.61785 0.29737 0.83885 0.0
H936 H 0.65835 0.38721 0.77167 0.0
H937 H 0.63582 0.39561 0.85972 0.0
H938 H 0.5835 0.35323 0.74962 0.0
H939 H 0.61353 0.32249 0.7552 0.0
H940 H 0.62494 0.36055 0.7396 0.0
H941 H 0.55717 0.35121 0.85517 0.0
H942 H 0.58182 0.37824 0.87615 0.0
H943 H 0.59359 0.33673 0.87171 0.0
C944 C 0.17279 0.54687 0.26435 0.0
C945 C 0.20398 0.53976 0.27457 0.0
C946 C 0.1518 0.56707 0.27935 0.0
C947 C 0.16214 0.58038 0.3053 0.0
C948 C 0.1913 0.56938 0.31776 0.0
C949 C 0.21212 0.54925 0.30212 0.0
C950 C 0.12064 0.57776 0.26539 0.0
C951 C 0.20213 0.58161 0.34621 0.0
C952 C 0.14069 0.6689 0.30721 0.0
C953 C 0.11085 0.66848 0.32132 0.0
C954 C 0.15875 0.64058 0.30365 0.0
C955 C 0.14694 0.61103 0.3149 0.0
C956 C 0.11818 0.61088 0.33121 0.0
C957 C 0.1002 0.63965 0.33399 0.0
C958 C 0.1894 0.64204 0.28615 0.0
C959 C 0.10538 0.58023 0.3445 0.0
H960 H 0.16591 0.53984 0.24317 0.0
H961 H 0.23569 0.54302 0.31063 0.0
H962 H 0.10032 0.57758 0.28068 0.0
H963 H 0.12345 0.60297 0.25756 0.0
H964 H 0.11406 0.56201 0.24726 0.0
H965 H 0.22007 0.56497 0.356 0.0
H966 H 0.21372 0.60571 0.34374 0.0
H967 H 0.18114 0.58448 0.36065 0.0
H968 H 0.14955 0.69124 0.29797 0.0
H969 H 0.07748 0.63931 0.34548 0.0
H970 H 0.18619 0.62763 0.26657 0.0
H971 H 0.21002 0.63143 0.29795 0.0
H972 H 0.19595 0.66724 0.28012 0.0
H973 H 0.08897 0.56783 0.32942 0.0
H974 H 0.09115 0.58573 0.36381 0.0
H975 H 0.12525 0.56324 0.35003 0.0
C976 C 0.96209 0.2092 0.78276 0.0
C977 C 0.96196 0.20219 0.75379 0.0
C978 C 0.9439 0.19034 0.80172 0.0
C979 C 0.92476 0.16451 0.79124 0.0
C980 C 0.92715 0.15549 0.76253 0.0
C981 C 0.94579 0.17435 0.74423 0.0
C982 C 0.94311 0.19976 0.83244 0.0
C983 C 0.90712 0.12816 0.75034 0.0
C984 C 0.87196 0.10429 0.82991 0.0
C985 C 0.84135 0.11821 0.82555 0.0
C986 C 0.90024 0.12064 0.82146 0.0
C987 C 0.89753 0.15118 0.80806 0.0
C988 C 0.86688 0.16646 0.80604 0.0
C989 C 0.83921 0.14984 0.81497 0.0
C990 C 0.93263 0.10416 0.825 0.0
C991 C 0.86279 0.19917 0.79211 0.0
H992 H 0.97505 0.23031 0.7904 0.0
H993 H 0.9452 0.16881 0.72189 0.0
H994 H 0.92193 0.21571 0.83637 0.0
H995 H 0.94064 0.17812 0.84617 0.0
H996 H 0.96534 0.21326 0.83856 0.0
H997 H 0.91428 0.12219 0.72835 0.0
H998 H 0.90955 0.10599 0.76337 0.0
H999 H 0.88113 0.13517 0.75035 0.0
H1000 H 0.87379 0.08005 0.83859 0.0
H1001 H 0.81566 0.16113 0.81235 0.0
H1002 H 0.95202 0.12203 0.82965 0.0
H1003 H 0.93914 0.09151 0.80514 0.0
H1004 H 0.93191 0.08585 0.84217 0.0
H1005 H 0.87993 0.21701 0.80124 0.0
H1006 H 0.83777 0.2088 0.79444 0.0
H1007 H 0.86831 0.19707 0.76927 0.0
C1008 C 0.27341 0.93905 0.29398 0.0
C1009 C 0.28237 0.96731 0.27935 0.0
C1010 C 0.29624 0.92177 0.30979 0.0
C1011 C 0.32871 0.93264 0.3103 0.0
C1012 C 0.33603 0.96428 0.30085 0.0
C1013 C 0.31246 0.98162 0.28575 0.0
C1014 C 0.2868 0.88912 0.32153 0.0
C1015 C 0.36997 0.97765 0.30266 0.0
C1016 C 0.38856 0.86997 0.33743 0.0
C1017 C 0.39359 0.8519 0.31278 0.0
C1018 C 0.369 0.89789 0.337 0.0
C1019 C 0.35469 0.9078 0.31125 0.0
C1020 C 0.36203 0.89088 0.28598 0.0
C1021 C 0.38113 0.86299 0.28717 0.0
C1022 C 0.36207 0.9151 0.3644 0.0
C1023 C 0.34803 0.90087 0.25779 0.0
H1024 H 0.25002 0.9279 0.29037 0.0
H1025 H 0.319 0.00464 0.27634 0.0
H1026 H 0.29322 0.86994 0.30607 0.0
H1027 H 0.2999 0.884 0.34146 0.0
H1028 H 0.26032 0.88781 0.32555 0.0
H1029 H 0.36992 0.00457 0.30198 0.0
H1030 H 0.38225 0.9695 0.32224 0.0
H1031 H 0.38427 0.96869 0.28442 0.0
H1032 H 0.39827 0.86127 0.35729 0.0
H1033 H 0.38554 0.8492 0.26807 0.0
H1034 H 0.34145 0.90295 0.37508 0.0
H1035 H 0.35558 0.94093 0.36116 0.0
H1036 H 0.38332 0.91373 0.37875 0.0
H1037 H 0.32139 0.89702 0.25783 0.0
H1038 H 0.35849 0.8868 0.24 0.0
H1039 H 0.35255 0.92698 0.25385 0.0
C1040 C 0.48191 0.80935 0.77736 0.0
C1041 C 0.46688 0.77946 0.77169 0.0
C1042 C 0.466 0.83298 0.79352 0.0
C1043 C 0.43495 0.82602 0.80457 0.0
C1044 C 0.42327 0.79382 0.80407 0.0
C1045 C 0.4392 0.77091 0.7873 0.0
C1046 C 0.48008 0.86667 0.79497 0.0
C1047 C 0.39108 0.78491 0.81712 0.0
C1048 C 0.37692 0.88704 0.83694 0.0
C1049 C 0.35707 0.89346 0.81363 0.0
C1050 C 0.40387 0.8664 0.83431 0.0
C1051 C 0.41098 0.85252 0.80771 0.0
C1052 C 0.39222 0.86112 0.78377 0.0
C1053 C 0.3653 0.8812 0.78715 0.0
C1054 C 0.42308 0.85798 0.86036 0.0
C1055 C 0.39928 0.84758 0.75475 0.0
H1056 H 0.50439 0.81559 0.76686 0.0
H1057 H 0.42747 0.74774 0.78396 0.0
H1058 H 0.46983 0.88148 0.77758 0.0
H1059 H 0.47382 0.87867 0.81519 0.0
H1060 H 0.50687 0.86624 0.79255 0.0
H1061 H 0.3889 0.75832 0.82037 0.0
H1062 H 0.38774 0.79732 0.83767 0.0
H1063 H 0.37117 0.79271 0.8029 0.0
H1064 H 0.37037 0.89661 0.85746 0.0
H1065 H 0.35009 0.88671 0.76911 0.0
H1066 H 0.44853 0.85153 0.85531 0.0
H1067 H 0.41163 0.83683 0.87085 0.0
H1068 H 0.42302 0.87842 0.87562 0.0
H1069 H 0.42513 0.85135 0.7492 0.0
H1070 H 0.38409 0.85899 0.73815 0.0
H1071 H 0.39455 0.8211 0.75454 0.0
C1072 C 0.73359 0.43241 0.29285 0.0
C1073 C 0.72458 0.46156 0.27972 0.0
C1074 C 0.71078 0.41424 0.30798 0.0
C1075 C 0.67841 0.42539 0.30943 0.0
C1076 C 0.67113 0.45754 0.30132 0.0
C1077 C 0.69458 0.47554 0.28671 0.0
C1078 C 0.71998 0.38075 0.31795 0.0
C1079 C 0.63726 0.47096 0.30387 0.0
C1080 C 0.62244 0.35885 0.28514 0.0
C1081 C 0.60912 0.34804 0.31051 0.0
C1082 C 0.64353 0.3853 0.28453 0.0
C1083 C 0.65205 0.40095 0.31015 0.0
C1084 C 0.63746 0.39105 0.33577 0.0
C1085 C 0.61586 0.36467 0.33561 0.0
C1086 C 0.65791 0.39537 0.25651 0.0
C1087 C 0.64599 0.40668 0.36355 0.0
H1088 H 0.75695 0.42156 0.28837 0.0
H1089 H 0.68801 0.49889 0.27793 0.0
H1090 H 0.70741 0.37467 0.33794 0.0
H1091 H 0.71254 0.36269 0.30183 0.0
H1092 H 0.74658 0.37851 0.32117 0.0
H1093 H 0.63734 0.49789 0.30368 0.0
H1094 H 0.62258 0.46244 0.2857 0.0
H1095 H 0.62534 0.46238 0.32347 0.0
H1096 H 0.61689 0.34605 0.26574 0.0
H1097 H 0.60567 0.35601 0.3553 0.0
H1098 H 0.68434 0.39034 0.25639 0.0
H1099 H 0.65458 0.42176 0.25312 0.0
H1100 H 0.64676 0.38227 0.23847 0.0
H1101 H 0.66707 0.39382 0.37283 0.0
H1102 H 0.62555 0.40482 0.37872 0.0
H1103 H 0.65265 0.43257 0.36103 0.0
C1104 C 0.03272 0.69447 0.78296 0.0
C1105 C 0.04583 0.7252 0.77723 0.0
C1106 C 0.0507 0.67134 0.79793 0.0
C1107 C 0.08186 0.67969 0.808 0.0
C1108 C 0.09208 0.71239 0.80723 0.0
C1109 C 0.0741 0.7348 0.79153 0.0
C1110 C 0.03842 0.63692 0.7992 0.0
C1111 C 0.12443 0.72266 0.81918 0.0
C1112 C 0.13969 0.61842 0.84049 0.0
C1113 C 0.15952 0.61159 0.81725 0.0
C1114 C 0.1134 0.63988 0.83791 0.0
C1115 C 0.10676 0.65407 0.81135 0.0
C1116 C 0.12579 0.64559 0.78754 0.0
C1117 C 0.15224 0.62482 0.79092 0.0
C1118 C 0.0943 0.64875 0.86392 0.0
C1119 C 0.11915 0.65951 0.7586 0.0
H1120 H 0.01001 0.68734 0.77329 0.0
H1121 H 0.08438 0.7586 0.78793 0.0
H1122 H 0.0495 0.62279 0.78176 0.0
H1123 H 0.04533 0.62514 0.81934 0.0
H1124 H 0.01165 0.63586 0.79682 0.0
H1125 H 0.12549 0.74927 0.82268 0.0
H1126 H 0.12941 0.71012 0.83941 0.0
H1127 H 0.14395 0.71602 0.80412 0.0
H1128 H 0.14572 0.60833 0.86094 0.0
H1129 H 0.16759 0.61923 0.77299 0.0
H1130 H 0.06848 0.65364 0.85895 0.0
H1131 H 0.10472 0.67112 0.87323 0.0
H1132 H 0.0956 0.6293 0.88007 0.0
H1133 H 0.09329 0.65612 0.75288 0.0
H1134 H 0.13437 0.6481 0.742 0.0
H1135 H 0.12417 0.68594 0.75866 0.0
C1136 C 0.89334 0.14017 0.33843 0.0
C1137 C 0.8991 0.15557 0.31258 0.0
C1138 C 0.87198 0.11367 0.34011 0.0
C1139 C 0.85659 0.10244 0.31526 0.0
C1140 C 0.86432 0.11669 0.28886 0.0
C1141 C 0.88523 0.14327 0.28796 0.0
C1142 C 0.86448 0.09943 0.36866 0.0
C1143 C 0.84912 0.10516 0.2616 0.0
C1144 C 0.81226 0.02787 0.29497 0.0
C1145 C 0.78244 0.04227 0.28806 0.0
C1146 C 0.83635 0.04584 0.30881 0.0
C1147 C 0.82988 0.07839 0.31619 0.0
C1148 C 0.79766 0.09006 0.31514 0.0
C1149 C 0.7742 0.07189 0.3008 0.0
C1150 C 0.87001 0.03186 0.31114 0.0
C1151 C 0.78932 0.12403 0.32448 0.0
H1152 H 0.90401 0.14995 0.35753 0.0
H1153 H 0.89007 0.1551 0.26796 0.0
H1154 H 0.84421 0.11319 0.37832 0.0
H1155 H 0.85716 0.0736 0.36726 0.0
H1156 H 0.88572 0.10149 0.38297 0.0
H1157 H 0.85971 0.11729 0.24282 0.0
H1158 H 0.85238 0.07861 0.25916 0.0
H1159 H 0.82269 0.11019 0.26187 0.0
H1160 H 0.81822 0.00415 0.28658 0.0
H1161 H 0.75097 0.08307 0.29647 0.0
H1162 H 0.88266 0.04116 0.33015 0.0
H1163 H 0.88432 0.03914 0.29236 0.0
H1164 H 0.86936 0.00495 0.31196 0.0
H1165 H 0.80243 0.13045 0.34413 0.0
H1166 H 0.76285 0.12689 0.32808 0.0
H1167 H 0.79677 0.14143 0.30784 0.0
C1168 C 0.47833 0.69155 0.21236 0.0
C1169 C 0.46468 0.72219 0.21773 0.0
C1170 C 0.46046 0.66777 0.19799 0.0
C1171 C 0.42919 0.67558 0.18792 0.0
C1172 C 0.41944 0.70839 0.18693 0.0
C1173 C 0.43711 0.73141 0.20224 0.0
C1174 C 0.47268 0.63334 0.19788 0.0
C1175 C 0.3874 0.71822 0.17422 0.0
C1176 C 0.36636 0.61423 0.1634 0.0
C1177 C 0.34776 0.61121 0.18799 0.0
C1178 C 0.39417 0.63397 0.16303 0.0
C1179 C 0.40352 0.65038 0.18798 0.0
C1180 C 0.38586 0.64536 0.21331 0.0
C1181 C 0.35799 0.62617 0.21284 0.0
C1182 C 0.41186 0.63876 0.13551 0.0
C1183 C 0.39525 0.66167 0.24072 0.0
H1184 H 0.50096 0.68478 0.22234 0.0
H1185 H 0.42663 0.75526 0.2049 0.0
H1186 H 0.46285 0.62047 0.21657 0.0
H1187 H 0.46451 0.62019 0.17874 0.0
H1188 H 0.49958 0.63252 0.19901 0.0
H1189 H 0.3874 0.7443 0.16844 0.0
H1190 H 0.38185 0.70362 0.15518 0.0
H1191 H 0.3678 0.71413 0.18987 0.0
H1192 H 0.3582 0.60271 0.14411 0.0
H1193 H 0.34368 0.62342 0.23189 0.0
H1194 H 0.43768 0.64532 0.13868 0.0
H1195 H 0.40003 0.65866 0.12361 0.0
H1196 H 0.41055 0.61653 0.12231 0.0
H1197 H 0.42129 0.65759 0.24535 0.0
H1198 H 0.38082 0.65265 0.25888 0.0
H1199 H 0.39133 0.68821 0.23899 0.0
C1200 C 0.81188 0.47446 0.72175 0.0
C1201 C 0.78179 0.45988 0.72752 0.0
C1202 C 0.83572 0.45781 0.7064 0.0
C1203 C 0.82873 0.42652 0.69588 0.0
C1204 C 0.79656 0.41474 0.69686 0.0
C1205 C 0.7735 0.43136 0.71298 0.0
C1206 C 0.8695 0.47174 0.70497 0.0
C1207 C 0.78767 0.38212 0.68464 0.0
C1208 C 0.89035 0.37143 0.66044 0.0
C1209 C 0.89823 0.35092 0.68295 0.0
C1210 C 0.86871 0.39738 0.66431 0.0
C1211 C 0.85541 0.40296 0.69141 0.0
C1212 C 0.86523 0.38346 0.71451 0.0
C1213 C 0.88615 0.35737 0.70986 0.0
C1214 C 0.8585 0.41709 0.63905 0.0
C1215 C 0.85229 0.38896 0.74397 0.0
H1216 H 0.81801 0.49742 0.7315 0.0
H1217 H 0.75028 0.41983 0.71657 0.0
H1218 H 0.88432 0.46118 0.72222 0.0
H1219 H 0.88142 0.46562 0.68469 0.0
H1220 H 0.86929 0.4985 0.70759 0.0
H1221 H 0.7611 0.3799 0.68127 0.0
H1222 H 0.80026 0.37789 0.6643 0.0
H1223 H 0.79527 0.36281 0.69953 0.0
H1224 H 0.89956 0.36606 0.63953 0.0
H1225 H 0.89255 0.34149 0.72722 0.0
H1226 H 0.85348 0.44267 0.64478 0.0
H1227 H 0.83589 0.40663 0.6302 0.0
H1228 H 0.8773 0.41656 0.62227 0.0
H1229 H 0.85494 0.4148 0.75005 0.0
H1230 H 0.86495 0.37383 0.75992 0.0
H1231 H 0.82608 0.38293 0.74464 0.0
C1232 C 0.03718 0.83673 0.24251 0.0
C1233 C 0.03004 0.80502 0.23365 0.0
C1234 C 0.05658 0.85712 0.22613 0.0
C1235 C 0.06903 0.84552 0.20025 0.0
C1236 C 0.05735 0.81598 0.18902 0.0
C1237 C 0.03809 0.79579 0.20601 0.0
C1238 C 0.06772 0.88892 0.23863 0.0
C1239 C 0.06832 0.80398 0.16054 0.0
C1240 C 0.13042 0.90419 0.16971 0.0
C1241 C 0.15885 0.89294 0.18267 0.0
C1242 C 0.10099 0.88739 0.17299 0.0
C1243 C 0.10013 0.85924 0.19004 0.0
C1244 C 0.12929 0.84667 0.20145 0.0
C1245 C 0.15824 0.86356 0.19742 0.0
C1246 C 0.07083 0.90091 0.1594 0.0
C1247 C 0.12976 0.81653 0.21964 0.0
H1248 H 0.03102 0.84449 0.26367 0.0
H1249 H 0.03163 0.77182 0.19852 0.0
H1250 H 0.09315 0.88647 0.24602 0.0
H1251 H 0.06708 0.90841 0.22257 0.0
H1252 H 0.0525 0.89644 0.25683 0.0
H1253 H 0.05092 0.78612 0.15167 0.0
H1254 H 0.07113 0.82442 0.14552 0.0
H1255 H 0.09223 0.7919 0.16267 0.0
H1256 H 0.13087 0.92658 0.15774 0.0
H1257 H 0.18029 0.85419 0.20682 0.0
H1258 H 0.06023 0.91975 0.17331 0.0
H1259 H 0.05225 0.88191 0.15573 0.0
H1260 H 0.07675 0.91265 0.13895 0.0
H1261 H 0.11523 0.82065 0.23902 0.0
H1262 H 0.15471 0.8095 0.22603 0.0
H1263 H 0.11876 0.79586 0.20817 0.0
C1264 C 0.71551 0.03645 0.71409 0.0
C1265 C 0.70585 0.03045 0.74199 0.0
C1266 C 0.69493 0.05311 0.69547 0.0
C1267 C 0.66458 0.0643 0.70535 0.0
C1268 C 0.6527 0.05333 0.73163 0.0
C1269 C 0.67352 0.0365 0.74968 0.0
C1270 C 0.70732 0.06232 0.66666 0.0
C1271 C 0.61995 0.06376 0.74262 0.0
C1272 C 0.64539 0.15284 0.69695 0.0
C1273 C 0.61695 0.15202 0.68084 0.0
C1274 C 0.66212 0.12447 0.70353 0.0
C1275 C 0.65043 0.09433 0.69338 0.0
C1276 C 0.62311 0.0935 0.6753 0.0
C1277 C 0.60641 0.12245 0.66945 0.0
C1278 C 0.6913 0.12676 0.7228 0.0
C1279 C 0.61045 0.0622 0.6631 0.0
H1280 H 0.74002 0.03066 0.70755 0.0
H1281 H 0.66545 0.03171 0.77102 0.0
H1282 H 0.68723 0.06297 0.65109 0.0
H1283 H 0.71826 0.08687 0.6676 0.0
H1284 H 0.7262 0.04511 0.65925 0.0
H1285 H 0.61237 0.04934 0.76127 0.0
H1286 H 0.62102 0.08968 0.74887 0.0
H1287 H 0.6012 0.06128 0.72602 0.0
H1288 H 0.65415 0.17568 0.70532 0.0
H1289 H 0.58471 0.12172 0.65655 0.0
H1290 H 0.7128 0.11572 0.71257 0.0
H1291 H 0.6866 0.11322 0.74261 0.0
H1292 H 0.6974 0.1522 0.72839 0.0
H1293 H 0.62955 0.04332 0.66172 0.0
H1294 H 0.6002 0.06627 0.64173 0.0
H1295 H 0.59057 0.05292 0.67664 0.0
C1296 C 0.77021 0.32244 0.16637 0.0
C1297 C 0.74704 0.33783 0.14943 0.0
C1298 C 0.77267 0.28844 0.16712 0.0
C1299 C 0.75236 0.26937 0.14957 0.0
C1300 C 0.72965 0.28498 0.13168 0.0
C1301 C 0.72679 0.319 0.13229 0.0
C1302 C 0.79629 0.27295 0.18736 0.0
C1303 C 0.70828 0.26576 0.11198 0.0
C1304 C 0.78063 0.18246 0.13675 0.0
C1305 C 0.75977 0.16484 0.15429 0.0
C1306 C 0.77774 0.21635 0.13421 0.0
C1307 C 0.75434 0.23314 0.15056 0.0
C1308 C 0.7334 0.21531 0.16852 0.0
C1309 C 0.73593 0.18133 0.16968 0.0
C1310 C 0.79983 0.23418 0.11412 0.0
C1311 C 0.70895 0.23214 0.18716 0.0
H1312 H 0.78552 0.33708 0.17991 0.0
H1313 H 0.70891 0.33103 0.11922 0.0
H1314 H 0.78344 0.25537 0.20111 0.0
H1315 H 0.81498 0.25927 0.17549 0.0
H1316 H 0.80864 0.2911 0.20094 0.0
H1317 H 0.69408 0.28161 0.09764 0.0
H1318 H 0.72325 0.24903 0.09906 0.0
H1319 H 0.69113 0.25069 0.12433 0.0
H1320 H 0.79901 0.16957 0.12487 0.0
H1321 H 0.72012 0.16762 0.18352 0.0
H1322 H 0.81653 0.25012 0.12612 0.0
H1323 H 0.78535 0.24994 0.09994 0.0
H1324 H 0.81455 0.21736 0.10105 0.0
H1325 H 0.72105 0.25122 0.19989 0.0
H1326 H 0.69659 0.21504 0.20172 0.0
H1327 H 0.69033 0.24423 0.174 0.0
C1328 C 0.32181 0.78103 0.62245 0.0
C1329 C 0.33958 0.75861 0.63834 0.0
C1330 C 0.28768 0.77977 0.62155 0.0
C1331 C 0.2709 0.75634 0.63787 0.0
C1332 C 0.2889 0.73367 0.65401 0.0
C1333 C 0.32299 0.73475 0.65364 0.0
C1334 C 0.26962 0.80365 0.60327 0.0
C1335 C 0.2722 0.70902 0.67254 0.0
C1336 C 0.18358 0.77479 0.65935 0.0
C1337 C 0.16606 0.75304 0.64253 0.0
C1338 C 0.21766 0.77606 0.65814 0.0
C1339 C 0.23457 0.75603 0.63875 0.0
C1340 C 0.21674 0.73498 0.62088 0.0
C1341 C 0.18276 0.73324 0.62343 0.0
C1342 C 0.23555 0.79816 0.67819 0.0
C1343 C 0.23357 0.71412 0.59921 0.0
H1344 H 0.33473 0.79945 0.61066 0.0
H1345 H 0.33677 0.71778 0.6663 0.0
H1346 H 0.25211 0.79069 0.58952 0.0
H1347 H 0.2555 0.82052 0.61671 0.0
H1348 H 0.28621 0.81813 0.58979 0.0
H1349 H 0.2897 0.69315 0.6838 0.0
H1350 H 0.25694 0.72167 0.68838 0.0
H1351 H 0.25588 0.69354 0.65974 0.0
H1352 H 0.1706 0.78981 0.67433 0.0
H1353 H 0.1691 0.71652 0.61041 0.0
H1354 H 0.24794 0.81762 0.6662 0.0
H1355 H 0.25449 0.7844 0.68973 0.0
H1356 H 0.21907 0.80961 0.69382 0.0
H1357 H 0.24967 0.72926 0.58586 0.0
H1358 H 0.2161 0.70116 0.58537 0.0
H1359 H 0.24906 0.69591 0.60989 0.0
C1360 C 0.70685 0.18369 0.86008 0.0
C1361 C 0.73225 0.16296 0.86843 0.0
C1362 C 0.71048 0.21762 0.86003 0.0
C1363 C 0.73995 0.23166 0.86923 0.0
C1364 C 0.76497 0.21122 0.87934 0.0
C1365 C 0.76095 0.1773 0.87866 0.0
C1366 C 0.68325 0.23836 0.84871 0.0
C1367 C 0.79661 0.2251 0.88985 0.0
C1368 C 0.76515 0.31311 0.83829 0.0
C1369 C 0.75548 0.335 0.85932 0.0
C1370 C 0.76004 0.27959 0.84123 0.0
C1371 C 0.74552 0.26739 0.86614 0.0
C1372 C 0.73605 0.28937 0.88765 0.0
C1373 C 0.7407 0.32297 0.88379 0.0
C1374 C 0.76979 0.25728 0.81742 0.0
C1375 C 0.72126 0.27737 0.91482 0.0
H1376 H 0.68421 0.1736 0.85273 0.0
H1377 H 0.78091 0.16227 0.88545 0.0
H1378 H 0.67709 0.25789 0.86386 0.0
H1379 H 0.69112 0.25021 0.82884 0.0
H1380 H 0.66103 0.224 0.84433 0.0
H1381 H 0.81183 0.20656 0.90049 0.0
H1382 H 0.81053 0.23515 0.87184 0.0
H1383 H 0.79206 0.24528 0.90482 0.0
H1384 H 0.77606 0.32237 0.81914 0.0
H1385 H 0.73332 0.33986 0.90008 0.0
H1386 H 0.74838 0.2434 0.80999 0.0
H1387 H 0.78794 0.23944 0.82495 0.0
H1388 H 0.78026 0.27066 0.79924 0.0
H1389 H 0.69827 0.26439 0.91038 0.0
H1390 H 0.71619 0.29742 0.92983 0.0
H1391 H 0.73787 0.2598 0.92507 0.0
C1392 C 0.30691 0.74213 0.32101 0.0
C1393 C 0.32848 0.74584 0.34365 0.0
C1394 C 0.27354 0.74803 0.32422 0.0
C1395 C 0.26117 0.75711 0.35096 0.0
C1396 C 0.28285 0.7606 0.37401 0.0
C1397 C 0.31633 0.75542 0.36996 0.0
C1398 C 0.2516 0.74487 0.29884 0.0
C1399 C 0.27062 0.76942 0.403 0.0
C1400 C 0.17907 0.79972 0.35173 0.0
C1401 C 0.15745 0.77382 0.35587 0.0
C1402 C 0.21282 0.79477 0.35076 0.0
C1403 C 0.22559 0.76319 0.35455 0.0
C1404 C 0.20409 0.73715 0.36002 0.0
C1405 C 0.17041 0.7427 0.36041 0.0
C1406 C 0.23468 0.82316 0.3443 0.0
C1407 C 0.21653 0.70309 0.3644 0.0
H1408 H 0.31634 0.73522 0.30055 0.0
H1409 H 0.33299 0.75817 0.38746 0.0
H1410 H 0.2332 0.72575 0.30262 0.0
H1411 H 0.23835 0.76793 0.29533 0.0
H1412 H 0.26519 0.73872 0.27933 0.0
H1413 H 0.29043 0.77041 0.41885 0.0
H1414 H 0.25839 0.79335 0.40238 0.0
H1415 H 0.25234 0.75138 0.41 0.0
H1416 H 0.16958 0.8239 0.34854 0.0
H1417 H 0.15433 0.72223 0.36319 0.0
H1418 H 0.24635 0.81948 0.32345 0.0
H1419 H 0.25434 0.82499 0.36017 0.0
H1420 H 0.22121 0.84646 0.34387 0.0
H1421 H 0.22608 0.69343 0.34421 0.0
H1422 H 0.19725 0.68643 0.37202 0.0
H1423 H 0.23677 0.70302 0.37982 0.0
C1424 C 0.24668 0.67758 0.87818 0.0
C1425 C 0.2684 0.66293 0.85925 0.0
C1426 C 0.24308 0.71156 0.87934 0.0
C1427 C 0.26144 0.73157 0.86098 0.0
C1428 C 0.28383 0.71698 0.84221 0.0
C1429 C 0.28705 0.68302 0.8416 0.0
C1430 C 0.21914 0.72604 0.89986 0.0
C1431 C 0.30371 0.7372 0.82204 0.0
C1432 C 0.2288 0.81465 0.83995 0.0
C1433 C 0.24827 0.83593 0.85579 0.0
C1434 C 0.23241 0.78081 0.8419 0.0
C1435 C 0.25609 0.76754 0.86019 0.0
C1436 C 0.27546 0.78877 0.87664 0.0
C1437 C 0.27142 0.82262 0.87417 0.0
C1438 C 0.2114 0.75926 0.82372 0.0
C1439 C 0.3008 0.77571 0.89658 0.0
H1440 H 0.23237 0.66244 0.89208 0.0
H1441 H 0.30349 0.67221 0.82651 0.0
H1442 H 0.23113 0.74494 0.91285 0.0
H1443 H 0.1992 0.73798 0.8881 0.0
H1444 H 0.20848 0.70751 0.9141 0.0
H1445 H 0.32118 0.72237 0.80972 0.0
H1446 H 0.28739 0.74993 0.8071 0.0
H1447 H 0.31742 0.75604 0.83374 0.0
H1448 H 0.21124 0.82443 0.82528 0.0
H1449 H 0.2864 0.83866 0.8867 0.0
H1450 H 0.1985 0.74124 0.83697 0.0
H1451 H 0.22683 0.74555 0.80871 0.0
H1452 H 0.19315 0.77322 0.8115 0.0
H1453 H 0.28974 0.75783 0.91118 0.0
H1454 H 0.31244 0.79519 0.90922 0.0
H1455 H 0.31988 0.76286 0.88447 0.0
C1456 C 0.81748 0.28381 0.32432 0.0
C1457 C 0.8392 0.26615 0.34127 0.0
C1458 C 0.7838 0.27893 0.32598 0.0
C1459 C 0.77116 0.25564 0.34496 0.0
C1460 C 0.79276 0.23808 0.36248 0.0
C1461 C 0.82642 0.24354 0.36045 0.0
C1462 C 0.76181 0.29798 0.30664 0.0
C1463 C 0.78034 0.21294 0.38292 0.0
C1464 C 0.68065 0.26158 0.36157 0.0
C1465 C 0.66733 0.23859 0.34301 0.0
C1466 C 0.71438 0.26685 0.36296 0.0
C1467 C 0.73549 0.24873 0.3454 0.0
C1468 C 0.7223 0.22502 0.32709 0.0
C1469 C 0.68855 0.22032 0.32608 0.0
C1470 C 0.72739 0.2924 0.38275 0.0
C1471 C 0.74373 0.20536 0.30772 0.0
H1472 H 0.82677 0.30087 0.30899 0.0
H1473 H 0.84271 0.22993 0.37386 0.0
H1474 H 0.75112 0.28146 0.29068 0.0
H1475 H 0.74147 0.30879 0.31869 0.0
H1476 H 0.7749 0.3177 0.29545 0.0
H1477 H 0.79997 0.20282 0.39634 0.0
H1478 H 0.76146 0.22364 0.39675 0.0
H1479 H 0.76887 0.19274 0.37111 0.0
H1480 H 0.66471 0.27565 0.37496 0.0
H1481 H 0.6788 0.20293 0.31124 0.0
H1482 H 0.73856 0.31231 0.37037 0.0
H1483 H 0.74662 0.28197 0.39636 0.0
H1484 H 0.70815 0.30285 0.3964 0.0
H1485 H 0.75383 0.22136 0.29109 0.0
H1486 H 0.73034 0.18525 0.29736 0.0
H1487 H 0.76449 0.19501 0.31953 0.0
C1488 C 0.24422 0.68025 0.1317 0.0
C1489 C 0.23655 0.66719 0.15814 0.0
C1490 C 0.24866 0.7139 0.12818 0.0
C1491 C 0.24641 0.73484 0.15186 0.0
C1492 C 0.23908 0.72157 0.17869 0.0
C1493 C 0.23387 0.68805 0.1814 0.0
C1494 C 0.25567 0.72708 0.09914 0.0
C1495 C 0.23738 0.74269 0.20469 0.0
C1496 C 0.28945 0.81667 0.1511 0.0
C1497 C 0.26351 0.83857 0.14852 0.0
C1498 C 0.28431 0.78296 0.15163 0.0
C1499 C 0.25246 0.77049 0.14892 0.0
C1500 C 0.22628 0.7923 0.14504 0.0
C1501 C 0.23206 0.82595 0.1451 0.0
C1502 C 0.3129 0.76075 0.15636 0.0
C1503 C 0.19195 0.78016 0.14179 0.0
H1504 H 0.24626 0.66412 0.11375 0.0
H1505 H 0.22854 0.67791 0.20196 0.0
H1506 H 0.23749 0.74585 0.09356 0.0
H1507 H 0.27981 0.73893 0.09887 0.0
H1508 H 0.25529 0.70784 0.08274 0.0
H1509 H 0.23181 0.72855 0.22403 0.0
H1510 H 0.26085 0.75537 0.20779 0.0
H1511 H 0.21849 0.76156 0.20201 0.0
H1512 H 0.31389 0.82587 0.15334 0.0
H1513 H 0.21162 0.84228 0.14348 0.0
H1514 H 0.31401 0.74198 0.13965 0.0
H1515 H 0.31004 0.74797 0.1768 0.0
H1516 H 0.33625 0.77415 0.15663 0.0
H1517 H 0.19085 0.76086 0.1255 0.0
H1518 H 0.17487 0.79984 0.13587 0.0
H1519 H 0.18359 0.76937 0.16194 0.0
C1520 C 0.68758 0.27961 0.61662 0.0
C1521 C 0.67005 0.25704 0.63258 0.0
C1522 C 0.72158 0.27759 0.61432 0.0
C1523 C 0.73862 0.25316 0.62927 0.0
C1524 C 0.72088 0.23029 0.64545 0.0
C1525 C 0.68682 0.2322 0.6465 0.0
C1526 C 0.73928 0.3018 0.59609 0.0
C1527 C 0.7379 0.20457 0.66259 0.0
C1528 C 0.82575 0.22982 0.61059 0.0
C1529 C 0.84365 0.24885 0.62947 0.0
C1530 C 0.79165 0.23175 0.60962 0.0
C1531 C 0.77497 0.25219 0.62884 0.0
C1532 C 0.7931 0.27128 0.6481 0.0
C1533 C 0.82719 0.26986 0.64777 0.0
C1534 C 0.77347 0.21189 0.58807 0.0
C1535 C 0.77654 0.29267 0.66956 0.0
H1536 H 0.67454 0.29879 0.60589 0.0
H1537 H 0.67329 0.21509 0.65924 0.0
H1538 H 0.75439 0.31785 0.60948 0.0
H1539 H 0.75582 0.28904 0.58134 0.0
H1540 H 0.72237 0.31714 0.58366 0.0
H1541 H 0.72061 0.18862 0.67402 0.0
H1542 H 0.75325 0.1893 0.64874 0.0
H1543 H 0.75419 0.21625 0.67822 0.0
H1544 H 0.83856 0.21365 0.59645 0.0
H1545 H 0.84106 0.28426 0.6626 0.0
H1546 H 0.75712 0.22777 0.57563 0.0
H1547 H 0.75806 0.19367 0.59884 0.0
H1548 H 0.79004 0.19904 0.57337 0.0
H1549 H 0.76377 0.31276 0.65871 0.0
H1550 H 0.79396 0.30326 0.68486 0.0
H1551 H 0.75806 0.27861 0.68139 0.0
C1552 C 0.78081 0.05534 0.95202 0.0
C1553 C 0.76335 0.03233 0.93645 0.0
C1554 C 0.77759 0.05712 0.98154 0.0
C1555 C 0.75674 0.03514 0.99568 0.0
C1556 C 0.73934 0.01173 0.98 0.0
C1557 C 0.74276 0.01072 0.95064 0.0
C1558 C 0.79636 0.08253 0.99759 0.0
C1559 C 0.71726 0.98752 0.99425 0.0
C1560 C 0.77148 0.01451 0.07248 0.0
C1561 C 0.74668 0.03174 0.08611 0.0
C1562 C 0.77536 0.01595 0.04316 0.0
C1563 C 0.75408 0.03534 0.02698 0.0
C1564 C 0.72916 0.05312 0.04059 0.0
C1565 C 0.72561 0.05096 0.07004 0.0
C1566 C 0.80191 0.99622 0.02945 0.0
C1567 C 0.70614 0.0742 0.024 0.0
H1568 H 0.7965 0.07229 0.94111 0.0
H1569 H 0.72926 0.99277 0.93876 0.0
H1570 H 0.77948 0.09777 0.0101 0.0
H1571 H 0.81314 0.07069 0.0127 0.0
H1572 H 0.81069 0.09849 0.98342 0.0
H1573 H 0.70513 0.97112 0.97894 0.0
H1574 H 0.73138 0.97254 0.00931 0.0
H1575 H 0.69834 1.00037 0.00656 0.0
H1576 H 0.78785 0.99955 0.08473 0.0
H1577 H 0.70661 0.06457 0.0805 0.0
H1578 H 0.81786 0.01217 0.01672 0.0
H1579 H 0.7911 0.97817 0.01487 0.0
H1580 H 0.81705 0.98316 0.04514 0.0
H1581 H 0.71998 0.09175 0.01098 0.0
H1582 H 0.68921 0.08784 0.03784 0.0
H1583 H 0.6917 0.059 0.00934 0.0
C1584 C 0.47504 0.72273 0.43243 0.0
C1585 C 0.45909 0.74911 0.41989 0.0
C1586 C 0.47558 0.71873 0.46176 0.0
C1587 C 0.45945 0.74146 0.47912 0.0
C1588 C 0.44262 0.76777 0.46663 0.0
C1589 C 0.44282 0.77143 0.43711 0.0
C1590 C 0.49424 0.69064 0.4742 0.0
C1591 C 0.42484 0.7923 0.48448 0.0
C1592 C 0.44425 0.71658 0.55542 0.0
C1593 C 0.46953 0.7327 0.56933 0.0
C1594 C 0.4402 0.71968 0.52606 0.0
C1595 C 0.46231 0.73882 0.51035 0.0
C1596 C 0.4882 0.75459 0.52433 0.0
C1597 C 0.4913 0.75156 0.55363 0.0
C1598 C 0.41209 0.70282 0.51191 0.0
C1599 C 0.51274 0.77462 0.50833 0.0
H1600 H 0.48775 0.70535 0.41932 0.0
H1601 H 0.43024 0.7917 0.42753 0.0
H1602 H 0.51451 0.69995 0.4873 0.0
H1603 H 0.47833 0.67614 0.4882 0.0
H1604 H 0.50442 0.67439 0.45774 0.0
H1605 H 0.41098 0.80993 0.47151 0.0
H1606 H 0.40784 0.77982 0.499 0.0
H1607 H 0.44242 0.80588 0.49768 0.0
H1608 H 0.42714 0.70233 0.56756 0.0
H1609 H 0.51095 0.76399 0.56431 0.0
H1610 H 0.4212 0.68541 0.49594 0.0
H1611 H 0.39691 0.72084 0.50062 0.0
H1612 H 0.3966 0.68951 0.52718 0.0
H1613 H 0.52496 0.7594 0.49222 0.0
H1614 H 0.53153 0.7852 0.52237 0.0
H1615 H 0.50038 0.79465 0.49702 0.0
C1616 C 0.77997 0.45127 0.06143 0.0
C1617 C 0.76028 0.47183 0.07758 0.0
C1618 C 0.77584 0.44897 0.03202 0.0
C1619 C 0.75178 0.46801 0.01852 0.0
C1620 C 0.73203 0.4889 0.03477 0.0
C1621 C 0.73641 0.49042 0.06404 0.0
C1622 C 0.79719 0.42624 0.01538 0.0
C1623 C 0.7065 0.51003 0.0212 0.0
C1624 C 0.76249 0.49029 0.94151 0.0
C1625 C 0.74008 0.46985 0.92811 0.0
C1626 C 0.76672 0.48963 0.97082 0.0
C1627 C 0.74834 0.4677 0.98724 0.0
C1628 C 0.72572 0.44683 0.97388 0.0
C1629 C 0.72167 0.44831 0.94442 0.0
C1630 C 0.79066 0.51269 0.98422 0.0
C1631 C 0.70588 0.42295 0.99071 0.0
H1632 H 0.79822 0.43661 0.07182 0.0
H1633 H 0.72114 0.50645 0.07635 0.0
H1634 H 0.78203 0.40917 0.003 0.0
H1635 H 0.81203 0.44024 1.00013 0.0
H1636 H 0.81372 0.41203 0.02913 0.0
H1637 H 0.69271 0.52449 0.03692 0.0
H1638 H 0.71807 0.52692 0.00603 0.0
H1639 H 0.68915 0.49486 0.00914 0.0
H1640 H 0.77674 0.5071 0.92906 0.0
H1641 H 0.70457 0.43223 0.93412 0.0
H1642 H 0.80905 0.49893 0.99638 0.0
H1643 H 0.77792 0.52887 0.99928 0.0
H1644 H 0.80338 0.52795 0.9684 0.0
H1645 H 0.72214 0.40704 0.0032 0.0
H1646 H 0.6903 0.40754 0.97708 0.0
H1647 H 0.69019 0.43611 0.00588 0.0
C1648 C 0.00715 0.77431 0.44191 0.0
C1649 C 0.02767 0.75263 0.42772 0.0
C1650 C 0.009 0.77837 0.47119 0.0
C1651 C 0.03218 0.76056 0.48675 0.0
C1652 C 0.0532 0.73877 0.47256 0.0
C1653 C 0.05055 0.73488 0.44316 0.0
C1654 C 0.98575 0.8014 0.48552 0.0
C1655 C 0.07838 0.71953 0.48847 0.0
C1656 C 0.05023 0.79104 0.561 0.0
C1657 C 0.03083 0.77034 0.57727 0.0
C1658 C 0.05159 0.78769 0.53148 0.0
C1659 C 0.03282 0.76337 0.51804 0.0
C1660 C 0.0131 0.74261 0.53442 0.0
C1661 C 0.01245 0.74627 0.56376 0.0
C1662 C 0.07305 0.81014 0.51465 0.0
C1663 C 0.99233 0.7167 0.52093 0.0
H1664 H 0.98932 0.78806 0.43012 0.0
H1665 H 0.06668 0.71837 0.43223 0.0
H1666 H 0.97037 0.7879 0.50071 0.0
H1667 H 0.99939 0.81988 0.49769 0.0
H1668 H 0.96968 0.81404 0.47027 0.0
H1669 H 0.09391 0.70486 0.47421 0.0
H1670 H 0.09407 0.73611 0.50087 0.0
H1671 H 0.06631 0.70302 0.50366 0.0
H1672 H 0.0647 0.80947 0.57136 0.0
H1673 H 0.9973 0.73022 0.57617 0.0
H1674 H 0.05808 0.82475 0.49995 0.0
H1675 H 0.09023 0.79581 0.50165 0.0
H1676 H 0.08712 0.82689 0.52833 0.0
H1677 H 0.97459 0.72803 0.50636 0.0
H1678 H 0.97881 0.70214 0.53674 0.0
H1679 H 0.00763 0.7001 0.50822 0.0
C1680 C 0.23112 0.95052 0.05984 0.0
C1681 C 0.25122 0.97067 0.07601 0.0
C1682 C 0.23505 0.94834 0.0304 0.0
C1683 C 0.25933 0.96708 0.01687 0.0
C1684 C 0.27962 0.98742 0.03316 0.0
C1685 C 0.27542 0.98884 0.06246 0.0
C1686 C 0.21311 0.92619 0.01374 0.0
C1687 C 0.30544 0.0082 0.01958 0.0
C1688 C 0.28778 0.94781 0.94215 0.0
C1689 C 0.26943 0.96983 0.9263 0.0
C1690 C 0.28429 0.94607 0.97167 0.0
C1691 C 0.26232 0.96718 0.98555 0.0
C1692 C 0.24405 0.98964 0.96958 0.0
C1693 C 0.2477 0.99055 0.94022 0.0
C1694 C 0.30398 0.92162 0.988 0.0
C1695 C 0.22081 0.01299 0.98354 0.0
H1696 H 0.2126 0.93619 0.07021 0.0
H1697 H 0.29104 0.00454 0.07477 0.0
H1698 H 0.19816 0.94067 0.99893 0.0
H1699 H 0.22782 0.90919 0.00087 0.0
H1700 H 0.19667 0.91191 0.02752 0.0
H1701 H 0.31982 0.02203 0.03532 0.0
H1702 H 0.32222 0.99289 0.00707 0.0
H1703 H 0.29402 0.02566 0.00481 0.0
H1704 H 0.30436 0.93153 0.93147 0.0
H1705 H 0.23352 0.00775 0.92813 0.0
H1706 H 0.28764 0.90576 1.00045 0.0
H1707 H 0.32008 0.93429 0.00316 0.0
H1708 H 0.31913 0.90621 0.97401 0.0
H1709 H 0.20231 0.99941 0.99573 0.0
H1710 H 0.20819 0.02876 0.96805 0.0
H1711 H 0.23411 0.02864 0.99865 0.0
C1712 C 0.51581 0.2565 0.55369 0.0
C1713 C 0.53653 0.23497 0.56782 0.0
C1714 C 0.51686 0.25986 0.52432 0.0
C1715 C 0.53947 0.24151 0.50857 0.0
C1716 C 0.5605 0.21966 0.52265 0.0
C1717 C 0.55862 0.21645 0.55218 0.0
C1718 C 0.49358 0.28297 0.51014 0.0
C1719 C 0.58509 0.19989 0.50655 0.0
C1720 C 0.51828 0.22826 0.43163 0.0
C1721 C 0.53639 0.25256 0.41816 0.0
C1722 C 0.51963 0.22402 0.46092 0.0
C1723 C 0.53985 0.24436 0.47726 0.0
C1724 C 0.55861 0.26867 0.4638 0.0
C1725 C 0.55649 0.27265 0.43437 0.0
C1726 C 0.49882 0.19818 0.47443 0.0
C1727 C 0.58066 0.29065 0.48054 0.0
H1728 H 0.49857 0.2708 0.56565 0.0
H1729 H 0.5749 0.20005 0.56305 0.0
H1730 H 0.50723 0.30149 0.49804 0.0
H1731 H 0.47815 0.26958 0.49491 0.0
H1732 H 0.47757 0.29556 0.52547 0.0
H1733 H 0.60028 0.18469 0.52066 0.0
H1734 H 0.57258 0.18385 0.49124 0.0
H1735 H 0.60118 0.21618 0.49426 0.0
H1736 H 0.50262 0.21265 0.41927 0.0
H1737 H 0.57077 0.29125 0.42406 0.0
H1738 H 0.48115 0.20961 0.48901 0.0
H1739 H 0.51407 0.18154 0.48713 0.0
H1740 H 0.48522 0.18366 0.45863 0.0
H1741 H 0.56605 0.30574 0.49516 0.0
H1742 H 0.59514 0.30695 0.46679 0.0
H1743 H 0.59748 0.27598 0.49361 0.0
C1744 C 0.27471 0.55582 0.0658 0.0
C1745 C 0.25081 0.54115 0.08251 0.0
C1746 C 0.27122 0.55753 0.0363 0.0
C1747 C 0.24331 0.54407 0.02332 0.0
C1748 C 0.21881 0.53001 0.0402 0.0
C1749 C 0.22283 0.52879 0.0695 0.0
C1750 C 0.29776 0.57292 0.01897 0.0
C1751 C 0.18883 0.51512 0.02723 0.0
C1752 C 0.22193 0.56232 0.94669 0.0
C1753 C 0.23545 0.53544 0.93297 0.0
C1754 C 0.2248 0.56591 0.97612 0.0
C1755 C 0.24099 0.54173 0.99205 0.0
C1756 C 0.25404 0.51428 0.97822 0.0
C1757 C 0.25134 0.51164 0.94889 0.0
C1758 C 0.21093 0.59568 0.99013 0.0
C1759 C 0.27083 0.48758 0.99442 0.0
H1760 H 0.29624 0.56568 0.07571 0.0
H1761 H 0.20409 0.51754 0.0822 0.0
H1762 H 0.30983 0.55415 0.00591 0.0
H1763 H 0.28736 0.59115 0.00433 0.0
H1764 H 0.31638 0.58488 0.03232 0.0
H1765 H 0.17108 0.50705 0.04339 0.0
H1766 H 0.17675 0.53275 0.01306 0.0
H1767 H 0.19578 0.49386 0.01422 0.0
H1768 H 0.21002 0.58096 0.93434 0.0
H1769 H 0.26172 0.49075 0.93833 0.0
H1770 H 0.23035 0.60879 0.00164 0.0
H1771 H 0.19239 0.58854 0.0059 0.0
H1772 H 0.19963 0.61254 0.97473 0.0
H1773 H 0.29185 0.49757 0.00615 0.0
H1774 H 0.27957 0.46779 0.98046 0.0
H1775 H 0.25396 0.47705 0.01018 0.0
C1776 C 0.95638 0.23526 0.43324 0.0
C1777 C 0.97019 0.25851 0.41535 0.0
C1778 C 0.95556 0.2401 0.46264 0.0
C1779 C 0.96905 0.26875 0.47433 0.0
C1780 C 0.9824 0.29252 0.45628 0.0
C1781 C 0.98273 0.28715 0.4271 0.0
C1782 C 0.94094 0.21426 0.48123 0.0
C1783 C 0.9973 0.32324 0.46785 0.0
C1784 C 0.95092 0.29239 0.55057 0.0
C1785 C 0.97784 0.27931 0.56454 0.0
C1786 C 0.94751 0.28903 0.52114 0.0
C1787 C 0.97186 0.2727 0.50548 0.0
C1788 C 0.99955 0.26049 0.51952 0.0
C1789 C 1.00204 0.26372 0.54884 0.0
C1790 C 0.91753 0.30212 0.50693 0.0
C1791 C 0.02642 0.24356 0.50362 0.0
H1792 H 0.94641 0.2132 0.42432 0.0
H1793 H 0.99337 0.30539 0.4135 0.0
H1794 H 0.96012 0.20333 0.4946 0.0
H1795 H 0.92268 0.22512 0.49559 0.0
H1796 H 0.92919 0.19467 0.46882 0.0
H1797 H 0.00491 0.34019 0.4509 0.0
H1798 H 0.97983 0.33589 0.48181 0.0
H1799 H 0.01886 0.31713 0.4808 0.0
H1800 H 0.93194 0.30401 0.56274 0.0
H1801 H 0.02292 0.25363 0.55961 0.0
H1802 H 0.90401 0.28198 0.4968 0.0
H1803 H 0.92439 0.31937 0.49001 0.0
H1804 H 0.90112 0.31466 0.52197 0.0
H1805 H 0.01675 0.22166 0.49295 0.0
H1806 H 0.04668 0.23612 0.51763 0.0
H1807 H 0.0362 0.25977 0.487 0.0
loop_
_geom_bond_atom_site_label_1
_geom_bond_atom_site_label_2
_geom_bond_distance
_geom_bond_site_symmetry_2
_ccdc_geom_bond_type
C0 C1 1.351 . S
C0 N3 1.368 1_565 S
C0 H5 0.931 . S
C1 C0 1.351 . S
C1 N2 1.373 . S
C1 H29 0.930 . S
N2 C1 1.373 . S
N2 C4 1.340 . S
N3 C0 1.368 1_545 S
N3 C4 1.321 1_545 S
N3 Co6 2.135 . S
C4 N2 1.340 . S
C4 N3 1.321 1_565 S
C4 H28 0.930 1_565 S
H5 C0 0.931 . S
Co6 N3 2.135 . S
Co6 N9 2.121 . S
Co6 O14 2.055 . S
Co6 O17 2.039 . S
Co6 N20 2.140 . S
C7 O8 1.227 . S
C7 O17 1.265 . S
O8 C7 1.227 . S
N9 Co6 2.121 . S
N9 C11 1.375 . S
N9 C12 1.313 . S
C10 C11 1.338 . S
C10 N13 1.377 . S
C10 H30 0.930 . S
C11 N9 1.375 . S
C11 C10 1.338 . S
C11 H15 0.931 . S
C12 N9 1.313 . S
C12 N13 1.344 . S
C12 H16 0.930 . S
N13 C10 1.377 . S
N13 C12 1.344 . S
O14 Co6 2.055 . S
O14 C18 1.253 . S
H15 C11 0.931 . S
H16 C12 0.930 . S
O17 Co6 2.039 . S
O17 C7 1.265 . S
C18 O14 1.253 . S
C18 O19 1.227 . S
O19 C18 1.227 . S
N20 Co6 2.140 . S
N20 C23 1.346 . S
N20 C24 1.345 . S
C21 C22 1.387 . S
C21 C25 1.391 . S
C22 C21 1.387 . S
C22 C23 1.369 . S
C22 H31 0.929 . S
C23 N20 1.346 . S
C23 C22 1.369 . S
C23 H26 0.928 . S
C24 N20 1.345 . S
C24 C25 1.371 . S
C24 H27 0.931 . S
C25 C21 1.391 . S
C25 C24 1.371 . S
C25 H32 0.930 . S
H26 C23 0.928 . S
H27 C24 0.931 . S
H28 C4 0.930 1_545 S
H29 C1 0.930 . S
H30 C10 0.930 . S
H31 C22 0.929 . S
H32 C25 0.930 . S
C33 C34 1.351 . S
C33 N36 1.368 . S
C33 H38 0.931 . S
C34 C33 1.351 . S
C34 N35 1.373 . S
C34 H62 0.930 . S
N35 C34 1.373 . S
N35 C37 1.340 . S
N36 C33 1.368 . S
N36 C37 1.321 . S
N36 Co39 2.135 . S
C37 N35 1.340 . S
C37 N36 1.321 . S
C37 H61 0.930 . S
H38 C33 0.931 . S
Co39 N36 2.135 . S
Co39 N42 2.121 . S
Co39 O47 2.055 . S
Co39 O50 2.039 . S
Co39 N53 2.140 . S
C40 O41 1.227 . S
C40 O50 1.265 . S
O41 C40 1.227 . S
N42 Co39 2.121 . S
N42 C44 1.375 . S
N42 C45 1.313 . S
C43 C44 1.338 . S
C43 N46 1.377 . S
C43 H63 0.930 . S
C44 N42 1.375 . S
C44 C43 1.338 . S
C44 H48 0.931 . S
C45 N42 1.313 . S
C45 N46 1.344 . S
C45 H49 0.930 . S
N46 C43 1.377 . S
N46 C45 1.344 . S
O47 Co39 2.055 . S
O47 C51 1.253 . S
H48 C44 0.931 . S
H49 C45 0.930 . S
O50 Co39 2.039 . S
O50 C40 1.265 . S
C51 O47 1.253 . S
C51 O52 1.227 . S
O52 C51 1.227 . S
N53 Co39 2.140 . S
N53 C56 1.346 . S
N53 C57 1.345 . S
C54 C55 1.387 . S
C54 C58 1.391 . S
C55 C54 1.387 . S
C55 C56 1.369 . S
C55 H64 0.929 . S
C56 N53 1.346 . S
C56 C55 1.369 . S
C56 H59 0.928 . S
C57 N53 1.345 . S
C57 C58 1.371 . S
C57 H60 0.931 . S
C58 C54 1.391 . S
C58 C57 1.371 . S
C58 H65 0.930 . S
H59 C56 0.928 . S
H60 C57 0.931 . S
H61 C37 0.930 . S
H62 C34 0.930 . S
H63 C43 0.930 . S
H64 C55 0.929 . S
H65 C58 0.930 . S
C66 C67 1.351 . S
C66 N69 1.368 . S
C66 H71 0.931 . S
C67 C66 1.351 . S
C67 N68 1.373 . S
C67 H95 0.930 . S
N68 C67 1.373 . S
N68 C70 1.340 . S
N69 C66 1.368 . S
N69 C70 1.321 . S
N69 Co72 2.135 . S
C70 N68 1.340 . S
C70 N69 1.321 . S
C70 H94 0.930 . S
H71 C66 0.931 . S
Co72 N69 2.135 . S
Co72 N75 2.121 . S
Co72 O80 2.055 . S
Co72 O83 2.039 . S
Co72 N86 2.140 . S
C73 O74 1.227 . S
C73 O83 1.265 . S
O74 C73 1.227 . S
N75 Co72 2.121 . S
N75 C77 1.375 . S
N75 C78 1.313 . S
C76 C77 1.338 . S
C76 N79 1.377 . S
C76 H96 0.930 . S
C77 N75 1.375 . S
C77 C76 1.338 . S
C77 H81 0.931 . S
C78 N75 1.313 . S
C78 N79 1.344 . S
C78 H82 0.930 . S
N79 C76 1.377 . S
N79 C78 1.344 . S
O80 Co72 2.055 . S
O80 C84 1.253 . S
H81 C77 0.931 . S
H82 C78 0.930 . S
O83 Co72 2.039 . S
O83 C73 1.265 . S
C84 O80 1.253 . S
C84 O85 1.227 . S
O85 C84 1.227 . S
N86 Co72 2.140 . S
N86 C89 1.346 . S
N86 C90 1.345 . S
C87 C88 1.387 . S
C87 C91 1.391 . S
C88 C87 1.387 . S
C88 C89 1.369 . S
C88 H97 0.929 . S
C89 N86 1.346 . S
C89 C88 1.369 . S
C89 H92 0.928 . S
C90 N86 1.345 . S
C90 C91 1.371 . S
C90 H93 0.931 . S
C91 C87 1.391 . S
C91 C90 1.371 . S
C91 H98 0.930 . S
H92 C89 0.928 . S
H93 C90 0.931 . S
H94 C70 0.930 . S
H95 C67 0.930 . S
H96 C76 0.930 . S
H97 C88 0.929 . S
H98 C91 0.930 . S
C99 C100 1.351 . S
C99 N102 1.368 1_655 S
C99 H104 0.931 . S
C100 C99 1.351 . S
C100 N101 1.373 . S
C100 H128 0.930 . S
N101 C100 1.373 . S
N101 C103 1.340 . S
N102 C99 1.368 1_455 S
N102 C103 1.321 1_455 S
N102 Co105 2.135 . S
C103 N101 1.340 . S
C103 N102 1.321 1_655 S
C103 H127 0.930 1_655 S
H104 C99 0.931 . S
Co105 N102 2.135 . S
Co105 N108 2.121 . S
Co105 O113 2.055 . S
Co105 O116 2.039 . S
Co105 N119 2.140 . S
C106 O107 1.227 . S
C106 O116 1.265 . S
O107 C106 1.227 . S
N108 Co105 2.121 . S
N108 C110 1.375 . S
N108 C111 1.313 . S
C109 C110 1.338 . S
C109 N112 1.377 . S
C109 H129 0.930 . S
C110 N108 1.375 . S
C110 C109 1.338 . S
C110 H114 0.931 . S
C111 N108 1.313 . S
C111 N112 1.344 . S
C111 H115 0.930 . S
N112 C109 1.377 . S
N112 C111 1.344 . S
O113 Co105 2.055 . S
O113 C117 1.253 . S
H114 C110 0.931 . S
H115 C111 0.930 . S
O116 Co105 2.039 . S
O116 C106 1.265 . S
C117 O113 1.253 . S
C117 O118 1.227 . S
O118 C117 1.227 . S
N119 Co105 2.140 . S
N119 C122 1.346 . S
N119 C123 1.345 . S
C120 C121 1.387 . S
C120 C124 1.391 . S
C121 C120 1.387 . S
C121 C122 1.369 . S
C121 H130 0.929 . S
C122 N119 1.346 . S
C122 C121 1.369 . S
C122 H125 0.928 . S
C123 N119 1.345 . S
C123 C124 1.371 . S
C123 H126 0.931 . S
C124 C120 1.391 . S
C124 C123 1.371 . S
C124 H131 0.930 . S
H125 C122 0.928 . S
H126 C123 0.931 . S
H127 C103 0.930 1_455 S
H128 C100 0.930 . S
H129 C109 0.930 . S
H130 C121 0.929 . S
H131 C124 0.930 . S
C132 C133 1.351 . S
C132 N135 1.368 . S
C132 H137 0.931 . S
C133 C132 1.351 . S
C133 N134 1.373 . S
C133 H161 0.930 . S
N134 C133 1.373 . S
N134 C136 1.340 . S
N135 C132 1.368 . S
N135 C136 1.321 . S
N135 Co138 2.135 . S
C136 N134 1.340 . S
C136 N135 1.321 . S
C136 H160 0.930 . S
H137 C132 0.931 . S
Co138 N135 2.135 . S
Co138 N141 2.121 . S
Co138 O146 2.055 . S
Co138 O149 2.039 . S
Co138 N152 2.140 . S
C139 O140 1.227 . S
C139 O149 1.265 . S
O140 C139 1.227 . S
N141 Co138 2.121 . S
N141 C143 1.375 . S
N141 C144 1.313 . S
C142 C143 1.338 . S
C142 N145 1.377 . S
C142 H162 0.930 . S
C143 N141 1.375 . S
C143 C142 1.338 . S
C143 H147 0.931 . S
C144 N141 1.313 . S
C144 N145 1.344 . S
C144 H148 0.930 . S
N145 C142 1.377 . S
N145 C144 1.344 . S
O146 Co138 2.055 . S
O146 C150 1.253 . S
H147 C143 0.931 . S
H148 C144 0.930 . S
O149 Co138 2.039 . S
O149 C139 1.265 . S
C150 O146 1.253 . S
C150 O151 1.227 . S
O151 C150 1.227 . S
N152 Co138 2.140 . S
N152 C155 1.346 . S
N152 C156 1.345 . S
C153 C154 1.387 . S
C153 C157 1.391 . S
C154 C153 1.387 . S
C154 C155 1.369 . S
C154 H163 0.929 . S
C155 N152 1.346 . S
C155 C154 1.369 . S
C155 H158 0.928 . S
C156 N152 1.345 . S
C156 C157 1.371 . S
C156 H159 0.931 . S
C157 C153 1.391 . S
C157 C156 1.371 . S
C157 H164 0.930 . S
H158 C155 0.928 . S
H159 C156 0.931 . S
H160 C136 0.930 . S
H161 C133 0.930 . S
H162 C142 0.930 . S
H163 C154 0.929 . S
H164 C157 0.930 . S
C165 C166 1.351 . S
C165 N168 1.368 1_655 S
C165 H170 0.931 . S
C166 C165 1.351 . S
C166 N167 1.373 . S
C166 H194 0.930 . S
N167 C166 1.373 . S
N167 C169 1.340 . S
N168 C165 1.368 1_455 S
N168 C169 1.321 1_455 S
N168 Co171 2.135 . S
C169 N167 1.340 . S
C169 N168 1.321 1_655 S
C169 H193 0.930 1_655 S
H170 C165 0.931 . S
Co171 N168 2.135 . S
Co171 N174 2.121 . S
Co171 O179 2.055 . S
Co171 O182 2.039 . S
Co171 N185 2.140 . S
C172 O173 1.227 . S
C172 O182 1.265 . S
O173 C172 1.227 . S
N174 Co171 2.121 . S
N174 C176 1.375 . S
N174 C177 1.313 . S
C175 C176 1.338 . S
C175 N178 1.377 . S
C175 H195 0.930 . S
C176 N174 1.375 . S
C176 C175 1.338 . S
C176 H180 0.931 . S
C177 N174 1.313 . S
C177 N178 1.344 . S
C177 H181 0.930 . S
N178 C175 1.377 . S
N178 C177 1.344 . S
O179 Co171 2.055 . S
O179 C183 1.253 . S
H180 C176 0.931 . S
H181 C177 0.930 . S
O182 Co171 2.039 . S
O182 C172 1.265 . S
C183 O179 1.253 . S
C183 O184 1.227 . S
O184 C183 1.227 . S
N185 Co171 2.140 . S
N185 C188 1.346 . S
N185 C189 1.345 . S
C186 C187 1.387 . S
C186 C190 1.391 . S
C187 C186 1.387 . S
C187 C188 1.369 . S
C187 H196 0.929 . S
C188 N185 1.346 . S
C188 C187 1.369 . S
C188 H191 0.928 . S
C189 N185 1.345 . S
C189 C190 1.371 . S
C189 H192 0.931 . S
C190 C186 1.391 . S
C190 C189 1.371 . S
C190 H197 0.930 . S
H191 C188 0.928 . S
H192 C189 0.931 . S
H193 C169 0.930 1_455 S
H194 C166 0.930 . S
H195 C175 0.930 . S
H196 C187 0.929 . S
H197 C190 0.930 . S
C198 C199 1.351 . S
C198 N201 1.368 1_565 S
C198 H203 0.931 . S
C199 C198 1.351 . S
C199 N200 1.373 . S
C199 H227 0.930 . S
N200 C199 1.373 . S
N200 C202 1.340 . S
N201 C198 1.368 1_545 S
N201 C202 1.321 1_545 S
N201 Co204 2.135 . S
C202 N200 1.340 . S
C202 N201 1.321 1_565 S
C202 H226 0.930 1_565 S
H203 C198 0.931 . S
Co204 N201 2.135 . S
Co204 N207 2.121 . S
Co204 O212 2.055 . S
Co204 O215 2.039 . S
Co204 N218 2.140 . S
C205 O206 1.227 . S
C205 O215 1.265 . S
O206 C205 1.227 . S
N207 Co204 2.121 . S
N207 C209 1.375 . S
N207 C210 1.313 . S
C208 C209 1.338 . S
C208 N211 1.377 . S
C208 H228 0.930 . S
C209 N207 1.375 . S
C209 C208 1.338 . S
C209 H213 0.931 . S
C210 N207 1.313 . S
C210 N211 1.344 . S
C210 H214 0.930 . S
N211 C208 1.377 . S
N211 C210 1.344 . S
O212 Co204 2.055 . S
O212 C216 1.253 . S
H213 C209 0.931 . S
H214 C210 0.930 . S
O215 Co204 2.039 . S
O215 C205 1.265 . S
C216 O212 1.253 . S
C216 O217 1.227 . S
O217 C216 1.227 . S
N218 Co204 2.140 . S
N218 C221 1.346 . S
N218 C222 1.345 . S
C219 C220 1.387 . S
C219 C223 1.391 . S
C220 C219 1.387 . S
C220 C221 1.369 . S
C220 H229 0.929 . S
C221 N218 1.346 . S
C221 C220 1.369 . S
C221 H224 0.928 . S
C222 N218 1.345 . S
C222 C223 1.371 . S
C222 H225 0.931 . S
C223 C219 1.391 . S
C223 C222 1.371 . S
C223 H230 0.930 . S
H224 C221 0.928 . S
H225 C222 0.931 . S
H226 C202 0.930 1_545 S
H227 C199 0.930 . S
H228 C208 0.930 . S
H229 C220 0.929 . S
H230 C223 0.930 . S
C231 C232 1.351 . S
C231 N234 1.368 . S
C231 H236 0.931 . S
C232 C231 1.351 . S
C232 N233 1.373 . S
C232 H260 0.930 . S
N233 C232 1.373 . S
N233 C235 1.340 . S
N234 C231 1.368 . S
N234 C235 1.321 . S
N234 Co237 2.135 . S
C235 N233 1.340 . S
C235 N234 1.321 . S
C235 H259 0.930 . S
H236 C231 0.931 . S
Co237 N234 2.135 . S
Co237 N240 2.121 . S
Co237 O245 2.055 . S
Co237 O248 2.039 . S
Co237 N251 2.140 . S
C238 O239 1.227 . S
C238 O248 1.265 . S
O239 C238 1.227 . S
N240 Co237 2.121 . S
N240 C242 1.375 . S
N240 C243 1.313 . S
C241 C242 1.338 . S
C241 N244 1.377 . S
C241 H261 0.930 . S
C242 N240 1.375 . S
C242 C241 1.338 . S
C242 H246 0.931 . S
C243 N240 1.313 . S
C243 N244 1.344 . S
C243 H247 0.930 . S
N244 C241 1.377 . S
N244 C243 1.344 . S
O245 Co237 2.055 . S
O245 C249 1.253 . S
H246 C242 0.931 . S
H247 C243 0.930 . S
O248 Co237 2.039 . S
O248 C238 1.265 . S
C249 O245 1.253 . S
C249 O250 1.227 . S
O250 C249 1.227 . S
N251 Co237 2.140 . S
N251 C254 1.346 . S
N251 C255 1.345 . S
C252 C253 1.387 . S
C252 C256 1.391 . S
C253 C252 1.387 . S
C253 C254 1.369 . S
C253 H262 0.929 . S
C254 N251 1.346 . S
C254 C253 1.369 . S
C254 H257 0.928 . S
C255 N251 1.345 . S
C255 C256 1.371 . S
C255 H258 0.931 . S
C256 C252 1.391 . S
C256 C255 1.371 . S
C256 H263 0.930 . S
H257 C254 0.928 . S
H258 C255 0.931 . S
H259 C235 0.930 . S
H260 C232 0.930 . S
H261 C241 0.930 . S
H262 C253 0.929 . S
H263 C256 0.930 . S
C264 C265 1.351 . S
C264 N267 1.368 1_545 S
C264 H269 0.931 . S
C265 C264 1.351 . S
C265 N266 1.373 . S
C265 H293 0.930 . S
N266 C265 1.373 . S
N266 C268 1.340 . S
N267 C264 1.368 1_565 S
N267 C268 1.321 1_565 S
N267 Co270 2.135 . S
C268 N266 1.340 . S
C268 N267 1.321 1_545 S
C268 H292 0.930 1_545 S
H269 C264 0.931 . S
Co270 N267 2.135 . S
Co270 N273 2.121 . S
Co270 O278 2.055 . S
Co270 O281 2.039 . S
Co270 N284 2.140 . S
C271 O272 1.227 . S
C271 O281 1.265 . S
O272 C271 1.227 . S
N273 Co270 2.121 . S
N273 C275 1.375 . S
N273 C276 1.313 . S
C274 C275 1.338 . S
C274 N277 1.377 . S
C274 H294 0.930 . S
C275 N273 1.375 . S
C275 C274 1.338 . S
C275 H279 0.931 . S
C276 N273 1.313 . S
C276 N277 1.344 . S
C276 H280 0.930 . S
N277 C274 1.377 . S
N277 C276 1.344 . S
O278 Co270 2.055 . S
O278 C282 1.253 . S
H279 C275 0.931 . S
H280 C276 0.930 . S
O281 Co270 2.039 . S
O281 C271 1.265 . S
C282 O278 1.253 . S
C282 O283 1.227 . S
O283 C282 1.227 . S
N284 Co270 2.140 . S
N284 C287 1.346 . S
N284 C288 1.345 . S
C285 C286 1.387 . S
C285 C289 1.391 . S
C286 C285 1.387 . S
C286 C287 1.369 . S
C286 H295 0.929 . S
C287 N284 1.346 . S
C287 C286 1.369 . S
C287 H290 0.928 . S
C288 N284 1.345 . S
C288 C289 1.371 . S
C288 H291 0.931 . S
C289 C285 1.391 . S
C289 C288 1.371 . S
C289 H296 0.930 . S
H290 C287 0.928 . S
H291 C288 0.931 . S
H292 C268 0.930 1_565 S
H293 C265 0.930 . S
H294 C274 0.930 . S
H295 C286 0.929 . S
H296 C289 0.930 . S
C297 C298 1.351 . S
C297 N300 1.368 . S
C297 H302 0.931 . S
C298 C297 1.351 . S
C298 N299 1.373 . S
C298 H326 0.930 . S
N299 C298 1.373 . S
N299 C301 1.340 . S
N300 C297 1.368 . S
N300 C301 1.321 . S
N300 Co303 2.135 . S
C301 N299 1.340 . S
C301 N300 1.321 . S
C301 H325 0.930 . S
H302 C297 0.931 . S
Co303 N300 2.135 . S
Co303 N306 2.121 . S
Co303 O311 2.055 . S
Co303 O314 2.039 . S
Co303 N317 2.140 . S
C304 O305 1.227 . S
C304 O314 1.265 . S
O305 C304 1.227 . S
N306 Co303 2.121 . S
N306 C308 1.375 . S
N306 C309 1.313 . S
C307 C308 1.338 . S
C307 N310 1.377 . S
C307 H327 0.930 . S
C308 N306 1.375 . S
C308 C307 1.338 . S
C308 H312 0.931 . S
C309 N306 1.313 . S
C309 N310 1.344 . S
C309 H313 0.930 . S
N310 C307 1.377 . S
N310 C309 1.344 . S
O311 Co303 2.055 . S
O311 C315 1.253 . S
H312 C308 0.931 . S
H313 C309 0.930 . S
O314 Co303 2.039 . S
O314 C304 1.265 . S
C315 O311 1.253 . S
C315 O316 1.227 . S
O316 C315 1.227 . S
N317 Co303 2.140 . S
N317 C320 1.346 . S
N317 C321 1.345 . S
C318 C319 1.387 . S
C318 C322 1.391 . S
C319 C318 1.387 . S
C319 C320 1.369 . S
C319 H328 0.929 . S
C320 N317 1.346 . S
C320 C319 1.369 . S
C320 H323 0.928 . S
C321 N317 1.345 . S
C321 C322 1.371 . S
C321 H324 0.931 . S
C322 C318 1.391 . S
C322 C321 1.371 . S
C322 H329 0.930 . S
H323 C320 0.928 . S
H324 C321 0.931 . S
H325 C301 0.930 . S
H326 C298 0.930 . S
H327 C307 0.930 . S
H328 C319 0.929 . S
H329 C322 0.930 . S
C330 C331 1.351 . S
C330 N333 1.368 . S
C330 H335 0.931 . S
C331 C330 1.351 . S
C331 N332 1.373 . S
C331 H359 0.930 . S
N332 C331 1.373 . S
N332 C334 1.340 . S
N333 C330 1.368 . S
N333 C334 1.321 . S
N333 Co336 2.135 . S
C334 N332 1.340 . S
C334 N333 1.321 . S
C334 H358 0.930 . S
H335 C330 0.931 . S
Co336 N333 2.135 . S
Co336 N339 2.121 . S
Co336 O344 2.055 . S
Co336 O347 2.039 . S
Co336 N350 2.140 . S
C337 O338 1.227 . S
C337 O347 1.265 . S
O338 C337 1.227 . S
N339 Co336 2.121 . S
N339 C341 1.375 . S
N339 C342 1.313 . S
C340 C341 1.338 . S
C340 N343 1.377 . S
C340 H360 0.930 . S
C341 N339 1.375 . S
C341 C340 1.338 . S
C341 H345 0.931 . S
C342 N339 1.313 . S
C342 N343 1.344 . S
C342 H346 0.930 . S
N343 C340 1.377 . S
N343 C342 1.344 . S
O344 Co336 2.055 . S
O344 C348 1.253 . S
H345 C341 0.931 . S
H346 C342 0.930 . S
O347 Co336 2.039 . S
O347 C337 1.265 . S
C348 O344 1.253 . S
C348 O349 1.227 . S
O349 C348 1.227 . S
N350 Co336 2.140 . S
N350 C353 1.346 . S
N350 C354 1.345 . S
C351 C352 1.387 . S
C351 C355 1.391 . S
C352 C351 1.387 . S
C352 C353 1.369 . S
C352 H361 0.929 . S
C353 N350 1.346 . S
C353 C352 1.369 . S
C353 H356 0.928 . S
C354 N350 1.345 . S
C354 C355 1.371 . S
C354 H357 0.931 . S
C355 C351 1.391 . S
C355 C354 1.371 . S
C355 H362 0.930 . S
H356 C353 0.928 . S
H357 C354 0.931 . S
H358 C334 0.930 . S
H359 C331 0.930 . S
H360 C340 0.930 . S
H361 C352 0.929 . S
H362 C355 0.930 . S
C363 C364 1.351 . S
C363 N366 1.368 1_455 S
C363 H368 0.931 . S
C364 C363 1.351 . S
C364 N365 1.373 . S
C364 H392 0.930 . S
N365 C364 1.373 . S
N365 C367 1.340 . S
N366 C363 1.368 1_655 S
N366 C367 1.321 1_655 S
N366 Co369 2.135 . S
C367 N365 1.340 . S
C367 N366 1.321 1_455 S
C367 H391 0.930 1_455 S
H368 C363 0.931 . S
Co369 N366 2.135 . S
Co369 N372 2.121 . S
Co369 O377 2.055 . S
Co369 O380 2.039 . S
Co369 N383 2.140 . S
C370 O371 1.227 . S
C370 O380 1.265 . S
O371 C370 1.227 . S
N372 Co369 2.121 . S
N372 C374 1.375 . S
N372 C375 1.313 . S
C373 C374 1.338 . S
C373 N376 1.377 . S
C373 H393 0.930 . S
C374 N372 1.375 . S
C374 C373 1.338 . S
C374 H378 0.931 . S
C375 N372 1.313 . S
C375 N376 1.344 . S
C375 H379 0.930 . S
N376 C373 1.377 . S
N376 C375 1.344 . S
O377 Co369 2.055 . S
O377 C381 1.253 . S
H378 C374 0.931 . S
H379 C375 0.930 . S
O380 Co369 2.039 . S
O380 C370 1.265 . S
C381 O377 1.253 . S
C381 O382 1.227 . S
O382 C381 1.227 . S
N383 Co369 2.140 . S
N383 C386 1.346 . S
N383 C387 1.345 . S
C384 C385 1.387 . S
C384 C388 1.391 . S
C385 C384 1.387 . S
C385 C386 1.369 . S
C385 H394 0.929 . S
C386 N383 1.346 . S
C386 C385 1.369 . S
C386 H389 0.928 . S
C387 N383 1.345 . S
C387 C388 1.371 . S
C387 H390 0.931 . S
C388 C384 1.391 . S
C388 C387 1.371 . S
C388 H395 0.930 . S
H389 C386 0.928 . S
H390 C387 0.931 . S
H391 C367 0.930 1_655 S
H392 C364 0.930 . S
H393 C373 0.930 . S
H394 C385 0.929 . S
H395 C388 0.930 . S
C396 C397 1.351 . S
C396 N399 1.368 . S
C396 H401 0.931 . S
C397 C396 1.351 . S
C397 N398 1.373 . S
C397 H425 0.930 . S
N398 C397 1.373 . S
N398 C400 1.340 . S
N399 C396 1.368 . S
N399 C400 1.321 . S
N399 Co402 2.135 . S
C400 N398 1.340 . S
C400 N399 1.321 . S
C400 H424 0.930 . S
H401 C396 0.931 . S
Co402 N399 2.135 . S
Co402 N405 2.121 . S
Co402 O410 2.055 . S
Co402 O413 2.039 . S
Co402 N416 2.140 . S
C403 O404 1.227 . S
C403 O413 1.265 . S
O404 C403 1.227 . S
N405 Co402 2.121 . S
N405 C407 1.375 . S
N405 C408 1.313 . S
C406 C407 1.338 . S
C406 N409 1.377 . S
C406 H426 0.930 . S
C407 N405 1.375 . S
C407 C406 1.338 . S
C407 H411 0.931 . S
C408 N405 1.313 . S
C408 N409 1.344 . S
C408 H412 0.930 . S
N409 C406 1.377 . S
N409 C408 1.344 . S
O410 Co402 2.055 . S
O410 C414 1.253 . S
H411 C407 0.931 . S
H412 C408 0.930 . S
O413 Co402 2.039 . S
O413 C403 1.265 . S
C414 O410 1.253 . S
C414 O415 1.227 . S
O415 C414 1.227 . S
N416 Co402 2.140 . S
N416 C419 1.346 . S
N416 C420 1.345 . S
C417 C418 1.387 . S
C417 C421 1.391 . S
C418 C417 1.387 . S
C418 C419 1.369 . S
C418 H427 0.929 . S
C419 N416 1.346 . S
C419 C418 1.369 . S
C419 H422 0.928 . S
C420 N416 1.345 . S
C420 C421 1.371 . S
C420 H423 0.931 . S
C421 C417 1.391 . S
C421 C420 1.371 . S
C421 H428 0.930 . S
H422 C419 0.928 . S
H423 C420 0.931 . S
H424 C400 0.930 . S
H425 C397 0.930 . S
H426 C406 0.930 . S
H427 C418 0.929 . S
H428 C421 0.930 . S
C429 C430 1.351 . S
C429 N432 1.368 1_455 S
C429 H434 0.931 . S
C430 C429 1.351 . S
C430 N431 1.373 . S
C430 H458 0.930 . S
N431 C430 1.373 . S
N431 C433 1.340 . S
N432 C429 1.368 1_655 S
N432 C433 1.321 1_655 S
N432 Co435 2.135 . S
C433 N431 1.340 . S
C433 N432 1.321 1_455 S
C433 H457 0.930 1_455 S
H434 C429 0.931 . S
Co435 N432 2.135 . S
Co435 N438 2.121 . S
Co435 O443 2.055 . S
Co435 O446 2.039 . S
Co435 N449 2.140 . S
C436 O437 1.227 . S
C436 O446 1.265 . S
O437 C436 1.227 . S
N438 Co435 2.121 . S
N438 C440 1.375 . S
N438 C441 1.313 . S
C439 C440 1.338 . S
C439 N442 1.377 . S
C439 H459 0.930 . S
C440 N438 1.375 . S
C440 C439 1.338 . S
C440 H444 0.931 . S
C441 N438 1.313 . S
C441 N442 1.344 . S
C441 H445 0.930 . S
N442 C439 1.377 . S
N442 C441 1.344 . S
O443 Co435 2.055 . S
O443 C447 1.253 . S
H444 C440 0.931 . S
H445 C441 0.930 . S
O446 Co435 2.039 . S
O446 C436 1.265 . S
C447 O443 1.253 . S
C447 O448 1.227 . S
O448 C447 1.227 . S
N449 Co435 2.140 . S
N449 C452 1.346 . S
N449 C453 1.345 . S
C450 C451 1.387 . S
C450 C454 1.391 . S
C451 C450 1.387 . S
C451 C452 1.369 . S
C451 H460 0.929 . S
C452 N449 1.346 . S
C452 C451 1.369 . S
C452 H455 0.928 . S
C453 N449 1.345 . S
C453 C454 1.371 . S
C453 H456 0.931 . S
C454 C450 1.391 . S
C454 C453 1.371 . S
C454 H461 0.930 . S
H455 C452 0.928 . S
H456 C453 0.931 . S
H457 C433 0.930 1_655 S
H458 C430 0.930 . S
H459 C439 0.930 . S
H460 C451 0.929 . S
H461 C454 0.930 . S
C462 C463 1.351 . S
C462 N465 1.368 1_545 S
C462 H467 0.931 . S
C463 C462 1.351 . S
C463 N464 1.373 . S
C463 H491 0.930 . S
N464 C463 1.373 . S
N464 C466 1.340 . S
N465 C462 1.368 1_565 S
N465 C466 1.321 1_565 S
N465 Co468 2.135 . S
C466 N464 1.340 . S
C466 N465 1.321 1_545 S
C466 H490 0.930 1_545 S
H467 C462 0.931 . S
Co468 N465 2.135 . S
Co468 N471 2.121 . S
Co468 O476 2.055 . S
Co468 O479 2.039 . S
Co468 N482 2.140 . S
C469 O470 1.227 . S
C469 O479 1.265 . S
O470 C469 1.227 . S
N471 Co468 2.121 . S
N471 C473 1.375 . S
N471 C474 1.313 . S
C472 C473 1.338 . S
C472 N475 1.377 . S
C472 H492 0.930 . S
C473 N471 1.375 . S
C473 C472 1.338 . S
C473 H477 0.931 . S
C474 N471 1.313 . S
C474 N475 1.344 . S
C474 H478 0.930 . S
N475 C472 1.377 . S
N475 C474 1.344 . S
O476 Co468 2.055 . S
O476 C480 1.253 . S
H477 C473 0.931 . S
H478 C474 0.930 . S
O479 Co468 2.039 . S
O479 C469 1.265 . S
C480 O476 1.253 . S
C480 O481 1.227 . S
O481 C480 1.227 . S
N482 Co468 2.140 . S
N482 C485 1.346 . S
N482 C486 1.345 . S
C483 C484 1.387 . S
C483 C487 1.391 . S
C484 C483 1.387 . S
C484 C485 1.369 . S
C484 H493 0.929 . S
C485 N482 1.346 . S
C485 C484 1.369 . S
C485 H488 0.928 . S
C486 N482 1.345 . S
C486 C487 1.371 . S
C486 H489 0.931 . S
C487 C483 1.391 . S
C487 C486 1.371 . S
C487 H494 0.930 . S
H488 C485 0.928 . S
H489 C486 0.931 . S
H490 C466 0.930 1_565 S
H491 C463 0.930 . S
H492 C472 0.930 . S
H493 C484 0.929 . S
H494 C487 0.930 . S
C495 C496 1.351 . S
C495 N498 1.368 . S
C495 H500 0.931 . S
C496 C495 1.351 . S
C496 N497 1.373 . S
C496 H524 0.930 . S
N497 C496 1.373 . S
N497 C499 1.340 . S
N498 C495 1.368 . S
N498 C499 1.321 . S
N498 Co501 2.135 . S
C499 N497 1.340 . S
C499 N498 1.321 . S
C499 H523 0.930 . S
H500 C495 0.931 . S
Co501 N498 2.135 . S
Co501 N504 2.121 . S
Co501 O509 2.055 . S
Co501 O512 2.039 . S
Co501 N515 2.140 . S
C502 O503 1.227 . S
C502 O512 1.265 . S
O503 C502 1.227 . S
N504 Co501 2.121 . S
N504 C506 1.375 . S
N504 C507 1.313 . S
C505 C506 1.338 . S
C505 N508 1.377 . S
C505 H525 0.930 . S
C506 N504 1.375 . S
C506 C505 1.338 . S
C506 H510 0.931 . S
C507 N504 1.313 . S
C507 N508 1.344 . S
C507 H511 0.930 . S
N508 C505 1.377 . S
N508 C507 1.344 . S
O509 Co501 2.055 . S
O509 C513 1.253 . S
H510 C506 0.931 . S
H511 C507 0.930 . S
O512 Co501 2.039 . S
O512 C502 1.265 . S
C513 O509 1.253 . S
C513 O514 1.227 . S
O514 C513 1.227 . S
N515 Co501 2.140 . S
N515 C518 1.346 . S
N515 C519 1.345 . S
C516 C517 1.387 . S
C516 C520 1.391 . S
C517 C516 1.387 . S
C517 C518 1.369 . S
C517 H526 0.929 . S
C518 N515 1.346 . S
C518 C517 1.369 . S
C518 H521 0.928 . S
C519 N515 1.345 . S
C519 C520 1.371 . S
C519 H522 0.931 . S
C520 C516 1.391 . S
C520 C519 1.371 . S
C520 H527 0.930 . S
H521 C518 0.928 . S
H522 C519 0.931 . S
H523 C499 0.930 . S
H524 C496 0.930 . S
H525 C505 0.930 . S
H526 C517 0.929 . S
H527 C520 0.930 . S
C528 C529 1.391 . S
C528 C530 1.394 . S
C528 H544 0.931 . S
C529 C528 1.391 . S
C529 C533 1.376 . S
C530 C528 1.394 . S
C530 C531 1.369 . S
C530 C534 1.531 . S
C531 C530 1.369 . S
C531 C532 1.410 . S
C531 C539 1.503 . S
C532 C531 1.410 . S
C532 C533 1.392 . S
C532 C535 1.511 . S
C533 C529 1.376 . S
C533 C532 1.392 . S
C533 H545 0.929 . S
C534 C530 1.531 . S
C534 H546 0.960 . S
C534 H547 0.962 . S
C534 H548 0.960 . S
C535 C532 1.511 . S
C535 H549 0.961 . S
C535 H550 0.961 . S
C535 H551 0.961 . S
C536 C537 1.370 . S
C536 C538 1.363 . S
C536 H552 0.931 . S
C537 C536 1.370 . S
C537 C541 1.408 . S
C538 C536 1.363 . S
C538 C539 1.370 . S
C538 C542 1.524 . S
C539 C531 1.503 . S
C539 C538 1.370 . S
C539 C540 1.403 . S
C540 C539 1.403 . S
C540 C541 1.404 . S
C540 C543 1.539 . S
C541 C537 1.408 . S
C541 C540 1.404 . S
C541 H553 0.930 . S
C542 C538 1.524 . S
C542 H554 0.956 . S
C542 H555 0.961 . S
C542 H556 0.961 . S
C543 C540 1.539 . S
C543 H557 0.958 . S
C543 H558 0.961 . S
C543 H559 0.960 . S
H544 C528 0.931 . S
H545 C533 0.929 . S
H546 C534 0.960 . S
H547 C534 0.962 . S
H548 C534 0.960 . S
H549 C535 0.961 . S
H550 C535 0.961 . S
H551 C535 0.961 . S
H552 C536 0.931 . S
H553 C541 0.930 . S
H554 C542 0.956 . S
H555 C542 0.961 . S
H556 C542 0.961 . S
H557 C543 0.958 . S
H558 C543 0.961 . S
H559 C543 0.960 . S
C560 C561 1.391 . S
C560 C562 1.394 . S
C560 H576 0.931 . S
C561 C560 1.391 . S
C561 C565 1.376 . S
C562 C560 1.394 . S
C562 C563 1.369 . S
C562 C566 1.531 . S
C563 C562 1.369 . S
C563 C564 1.410 . S
C563 C571 1.503 . S
C564 C563 1.410 . S
C564 C565 1.392 . S
C564 C567 1.511 . S
C565 C561 1.376 . S
C565 C564 1.392 . S
C565 H577 0.929 . S
C566 C562 1.531 . S
C566 H578 0.960 . S
C566 H579 0.962 . S
C566 H580 0.960 . S
C567 C564 1.511 . S
C567 H581 0.961 . S
C567 H582 0.961 . S
C567 H583 0.961 . S
C568 C569 1.370 . S
C568 C570 1.363 . S
C568 H584 0.931 . S
C569 C568 1.370 . S
C569 C573 1.408 . S
C570 C568 1.363 . S
C570 C571 1.370 . S
C570 C574 1.524 . S
C571 C563 1.503 . S
C571 C570 1.370 . S
C571 C572 1.403 . S
C572 C571 1.403 . S
C572 C573 1.404 . S
C572 C575 1.539 . S
C573 C569 1.408 . S
C573 C572 1.404 . S
C573 H585 0.930 . S
C574 C570 1.524 . S
C574 H586 0.956 . S
C574 H587 0.961 . S
C574 H588 0.961 . S
C575 C572 1.539 . S
C575 H589 0.958 . S
C575 H590 0.961 . S
C575 H591 0.960 . S
H576 C560 0.931 . S
H577 C565 0.929 . S
H578 C566 0.960 . S
H579 C566 0.962 . S
H580 C566 0.960 . S
H581 C567 0.961 . S
H582 C567 0.961 . S
H583 C567 0.961 . S
H584 C568 0.931 . S
H585 C573 0.930 . S
H586 C574 0.956 . S
H587 C574 0.961 . S
H588 C574 0.961 . S
H589 C575 0.958 . S
H590 C575 0.961 . S
H591 C575 0.960 . S
C592 C593 1.391 . S
C592 C594 1.394 . S
C592 H608 0.931 . S
C593 C592 1.391 . S
C593 C597 1.376 . S
C594 C592 1.394 . S
C594 C595 1.369 . S
C594 C598 1.531 . S
C595 C594 1.369 . S
C595 C596 1.410 . S
C595 C603 1.503 . S
C596 C595 1.410 . S
C596 C597 1.392 . S
C596 C599 1.511 . S
C597 C593 1.376 . S
C597 C596 1.392 . S
C597 H609 0.929 . S
C598 C594 1.531 . S
C598 H610 0.960 . S
C598 H611 0.962 . S
C598 H612 0.960 . S
C599 C596 1.511 . S
C599 H613 0.961 . S
C599 H614 0.961 . S
C599 H615 0.961 . S
C600 C601 1.370 . S
C600 C602 1.363 . S
C600 H616 0.931 . S
C601 C600 1.370 . S
C601 C605 1.408 . S
C602 C600 1.363 . S
C602 C603 1.370 . S
C602 C606 1.524 . S
C603 C595 1.503 . S
C603 C602 1.370 . S
C603 C604 1.403 . S
C604 C603 1.403 . S
C604 C605 1.404 . S
C604 C607 1.539 . S
C605 C601 1.408 . S
C605 C604 1.404 . S
C605 H617 0.930 . S
C606 C602 1.524 . S
C606 H618 0.956 . S
C606 H619 0.961 . S
C606 H620 0.961 . S
C607 C604 1.539 . S
C607 H621 0.958 . S
C607 H622 0.961 . S
C607 H623 0.960 . S
H608 C592 0.931 . S
H609 C597 0.929 . S
H610 C598 0.960 . S
H611 C598 0.962 . S
H612 C598 0.960 . S
H613 C599 0.961 . S
H614 C599 0.961 . S
H615 C599 0.961 . S
H616 C600 0.931 . S
H617 C605 0.930 . S
H618 C606 0.956 . S
H619 C606 0.961 . S
H620 C606 0.961 . S
H621 C607 0.958 . S
H622 C607 0.961 . S
H623 C607 0.960 . S
C624 C625 1.391 . S
C624 C626 1.394 . S
C624 H640 0.931 . S
C625 C624 1.391 . S
C625 C629 1.376 . S
C626 C624 1.394 . S
C626 C627 1.369 . S
C626 C630 1.531 . S
C627 C626 1.369 . S
C627 C628 1.410 . S
C627 C635 1.503 . S
C628 C627 1.410 . S
C628 C629 1.392 . S
C628 C631 1.511 . S
C629 C625 1.376 . S
C629 C628 1.392 . S
C629 H641 0.929 . S
C630 C626 1.531 . S
C630 H642 0.960 . S
C630 H643 0.962 . S
C630 H644 0.960 . S
C631 C628 1.511 . S
C631 H645 0.961 . S
C631 H646 0.961 . S
C631 H647 0.961 . S
C632 C633 1.370 . S
C632 C634 1.363 . S
C632 H648 0.931 . S
C633 C632 1.370 . S
C633 C637 1.408 . S
C634 C632 1.363 . S
C634 C635 1.370 . S
C634 C638 1.524 . S
C635 C627 1.503 . S
C635 C634 1.370 . S
C635 C636 1.403 . S
C636 C635 1.403 . S
C636 C637 1.404 . S
C636 C639 1.539 . S
C637 C633 1.408 . S
C637 C636 1.404 . S
C637 H649 0.930 . S
C638 C634 1.524 . S
C638 H650 0.956 . S
C638 H651 0.961 . S
C638 H652 0.961 . S
C639 C636 1.539 . S
C639 H653 0.958 . S
C639 H654 0.961 . S
C639 H655 0.960 . S
H640 C624 0.931 . S
H641 C629 0.929 . S
H642 C630 0.960 . S
H643 C630 0.962 . S
H644 C630 0.960 . S
H645 C631 0.961 . S
H646 C631 0.961 . S
H647 C631 0.961 . S
H648 C632 0.931 . S
H649 C637 0.930 . S
H650 C638 0.956 . S
H651 C638 0.961 . S
H652 C638 0.961 . S
H653 C639 0.958 . S
H654 C639 0.961 . S
H655 C639 0.960 . S
C656 C657 1.391 . S
C656 C658 1.394 . S
C656 H672 0.931 . S
C657 C656 1.391 . S
C657 C661 1.376 . S
C658 C656 1.394 . S
C658 C659 1.369 . S
C658 C662 1.531 . S
C659 C658 1.369 . S
C659 C660 1.410 . S
C659 C667 1.503 . S
C660 C659 1.410 . S
C660 C661 1.392 . S
C660 C663 1.511 . S
C661 C657 1.376 . S
C661 C660 1.392 . S
C661 H673 0.929 . S
C662 C658 1.531 . S
C662 H674 0.960 . S
C662 H675 0.962 . S
C662 H676 0.960 . S
C663 C660 1.511 . S
C663 H677 0.961 . S
C663 H678 0.961 . S
C663 H679 0.961 . S
C664 C665 1.370 . S
C664 C666 1.363 . S
C664 H680 0.931 . S
C665 C664 1.370 . S
C665 C669 1.408 . S
C666 C664 1.363 . S
C666 C667 1.370 . S
C666 C670 1.524 . S
C667 C659 1.503 . S
C667 C666 1.370 . S
C667 C668 1.403 . S
C668 C667 1.403 . S
C668 C669 1.404 . S
C668 C671 1.539 . S
C669 C665 1.408 . S
C669 C668 1.404 . S
C669 H681 0.930 . S
C670 C666 1.524 . S
C670 H682 0.956 . S
C670 H683 0.961 . S
C670 H684 0.961 . S
C671 C668 1.539 . S
C671 H685 0.958 . S
C671 H686 0.961 . S
C671 H687 0.960 . S
H672 C656 0.931 . S
H673 C661 0.929 . S
H674 C662 0.960 . S
H675 C662 0.962 . S
H676 C662 0.960 . S
H677 C663 0.961 . S
H678 C663 0.961 . S
H679 C663 0.961 . S
H680 C664 0.931 . S
H681 C669 0.930 . S
H682 C670 0.956 . S
H683 C670 0.961 . S
H684 C670 0.961 . S
H685 C671 0.958 . S
H686 C671 0.961 . S
H687 C671 0.960 . S
C688 C689 1.391 . S
C688 C690 1.394 . S
C688 H704 0.931 . S
C689 C688 1.391 . S
C689 C693 1.376 . S
C690 C688 1.394 . S
C690 C691 1.369 . S
C690 C694 1.531 . S
C691 C690 1.369 . S
C691 C692 1.410 . S
C691 C699 1.503 . S
C692 C691 1.410 . S
C692 C693 1.392 . S
C692 C695 1.511 . S
C693 C689 1.376 . S
C693 C692 1.392 . S
C693 H705 0.929 . S
C694 C690 1.531 . S
C694 H706 0.960 . S
C694 H707 0.962 . S
C694 H708 0.960 . S
C695 C692 1.511 . S
C695 H709 0.961 . S
C695 H710 0.961 . S
C695 H711 0.961 . S
C696 C697 1.370 . S
C696 C698 1.363 . S
C696 H712 0.931 . S
C697 C696 1.370 . S
C697 C701 1.408 . S
C698 C696 1.363 . S
C698 C699 1.370 . S
C698 C702 1.524 . S
C699 C691 1.503 . S
C699 C698 1.370 . S
C699 C700 1.403 . S
C700 C699 1.403 . S
C700 C701 1.404 . S
C700 C703 1.539 . S
C701 C697 1.408 . S
C701 C700 1.404 . S
C701 H713 0.930 . S
C702 C698 1.524 . S
C702 H714 0.956 . S
C702 H715 0.961 . S
C702 H716 0.961 . S
C703 C700 1.539 . S
C703 H717 0.958 . S
C703 H718 0.961 . S
C703 H719 0.960 . S
H704 C688 0.931 . S
H705 C693 0.929 . S
H706 C694 0.960 . S
H707 C694 0.962 . S
H708 C694 0.960 . S
H709 C695 0.961 . S
H710 C695 0.961 . S
H711 C695 0.961 . S
H712 C696 0.931 . S
H713 C701 0.930 . S
H714 C702 0.956 . S
H715 C702 0.961 . S
H716 C702 0.961 . S
H717 C703 0.958 . S
H718 C703 0.961 . S
H719 C703 0.960 . S
C720 C721 1.391 . S
C720 C722 1.394 . S
C720 H736 0.931 . S
C721 C720 1.391 . S
C721 C725 1.376 . S
C722 C720 1.394 . S
C722 C723 1.369 . S
C722 C726 1.531 . S
C723 C722 1.369 . S
C723 C724 1.410 . S
C723 C731 1.503 . S
C724 C723 1.410 . S
C724 C725 1.392 . S
C724 C727 1.511 . S
C725 C721 1.376 . S
C725 C724 1.392 . S
C725 H737 0.929 . S
C726 C722 1.531 . S
C726 H738 0.960 . S
C726 H739 0.962 . S
C726 H740 0.960 . S
C727 C724 1.511 . S
C727 H741 0.961 . S
C727 H742 0.961 . S
C727 H743 0.961 . S
C728 C729 1.370 . S
C728 C730 1.363 . S
C728 H744 0.931 . S
C729 C728 1.370 . S
C729 C733 1.408 . S
C730 C728 1.363 . S
C730 C731 1.370 . S
C730 C734 1.524 . S
C731 C723 1.503 . S
C731 C730 1.370 . S
C731 C732 1.403 . S
C732 C731 1.403 . S
C732 C733 1.404 . S
C732 C735 1.539 . S
C733 C729 1.408 . S
C733 C732 1.404 . S
C733 H745 0.930 . S
C734 C730 1.524 . S
C734 H746 0.956 . S
C734 H747 0.961 . S
C734 H748 0.961 . S
C735 C732 1.539 . S
C735 H749 0.958 . S
C735 H750 0.961 . S
C735 H751 0.960 . S
H736 C720 0.931 . S
H737 C725 0.929 . S
H738 C726 0.960 . S
H739 C726 0.962 . S
H740 C726 0.960 . S
H741 C727 0.961 . S
H742 C727 0.961 . S
H743 C727 0.961 . S
H744 C728 0.931 . S
H745 C733 0.930 . S
H746 C734 0.956 . S
H747 C734 0.961 . S
H748 C734 0.961 . S
H749 C735 0.958 . S
H750 C735 0.961 . S
H751 C735 0.960 . S
C752 C753 1.391 . S
C752 C754 1.394 . S
C752 H768 0.931 . S
C753 C752 1.391 . S
C753 C757 1.376 . S
C754 C752 1.394 . S
C754 C755 1.369 . S
C754 C758 1.531 . S
C755 C754 1.369 . S
C755 C756 1.410 . S
C755 C763 1.503 . S
C756 C755 1.410 . S
C756 C757 1.392 . S
C756 C759 1.511 . S
C757 C753 1.376 . S
C757 C756 1.392 . S
C757 H769 0.929 . S
C758 C754 1.531 . S
C758 H770 0.960 . S
C758 H771 0.962 . S
C758 H772 0.960 . S
C759 C756 1.511 . S
C759 H773 0.961 . S
C759 H774 0.961 . S
C759 H775 0.961 . S
C760 C761 1.370 . S
C760 C762 1.363 . S
C760 H776 0.931 . S
C761 C760 1.370 . S
C761 C765 1.408 . S
C762 C760 1.363 . S
C762 C763 1.370 . S
C762 C766 1.524 . S
C763 C755 1.503 . S
C763 C762 1.370 . S
C763 C764 1.403 . S
C764 C763 1.403 . S
C764 C765 1.404 . S
C764 C767 1.539 . S
C765 C761 1.408 . S
C765 C764 1.404 . S
C765 H777 0.930 . S
C766 C762 1.524 . S
C766 H778 0.956 . S
C766 H779 0.961 . S
C766 H780 0.961 . S
C767 C764 1.539 . S
C767 H781 0.958 . S
C767 H782 0.961 . S
C767 H783 0.960 . S
H768 C752 0.931 . S
H769 C757 0.929 . S
H770 C758 0.960 . S
H771 C758 0.962 . S
H772 C758 0.960 . S
H773 C759 0.961 . S
H774 C759 0.961 . S
H775 C759 0.961 . S
H776 C760 0.931 . S
H777 C765 0.930 . S
H778 C766 0.956 . S
H779 C766 0.961 . S
H780 C766 0.961 . S
H781 C767 0.958 . S
H782 C767 0.961 . S
H783 C767 0.960 . S
C784 C785 1.391 . S
C784 C786 1.394 . S
C784 H800 0.931 . S
C785 C784 1.391 . S
C785 C789 1.376 . S
C786 C784 1.394 . S
C786 C787 1.369 . S
C786 C790 1.531 . S
C787 C786 1.369 . S
C787 C788 1.410 . S
C787 C795 1.503 . S
C788 C787 1.410 . S
C788 C789 1.392 . S
C788 C791 1.511 . S
C789 C785 1.376 . S
C789 C788 1.392 . S
C789 H801 0.929 . S
C790 C786 1.531 . S
C790 H802 0.960 . S
C790 H803 0.962 . S
C790 H804 0.960 . S
C791 C788 1.511 . S
C791 H805 0.961 . S
C791 H806 0.961 . S
C791 H807 0.961 . S
C792 C793 1.370 . S
C792 C794 1.363 . S
C792 H808 0.931 . S
C793 C792 1.370 . S
C793 C797 1.408 . S
C794 C792 1.363 . S
C794 C795 1.370 . S
C794 C798 1.524 . S
C795 C787 1.503 . S
C795 C794 1.370 . S
C795 C796 1.403 . S
C796 C795 1.403 . S
C796 C797 1.404 . S
C796 C799 1.539 . S
C797 C793 1.408 . S
C797 C796 1.404 . S
C797 H809 0.930 . S
C798 C794 1.524 . S
C798 H810 0.956 . S
C798 H811 0.961 . S
C798 H812 0.961 . S
C799 C796 1.539 . S
C799 H813 0.958 . S
C799 H814 0.961 . S
C799 H815 0.960 . S
H800 C784 0.931 . S
H801 C789 0.929 . S
H802 C790 0.960 . S
H803 C790 0.962 . S
H804 C790 0.960 . S
H805 C791 0.961 . S
H806 C791 0.961 . S
H807 C791 0.961 . S
H808 C792 0.931 . S
H809 C797 0.930 . S
H810 C798 0.956 . S
H811 C798 0.961 . S
H812 C798 0.961 . S
H813 C799 0.958 . S
H814 C799 0.961 . S
H815 C799 0.960 . S
C816 C817 1.391 . S
C816 C818 1.394 . S
C816 H832 0.931 . S
C817 C816 1.391 . S
C817 C821 1.376 . S
C818 C816 1.394 . S
C818 C819 1.369 . S
C818 C822 1.531 . S
C819 C818 1.369 . S
C819 C820 1.410 . S
C819 C827 1.503 . S
C820 C819 1.410 . S
C820 C821 1.392 . S
C820 C823 1.511 . S
C821 C817 1.376 . S
C821 C820 1.392 . S
C821 H833 0.929 . S
C822 C818 1.531 . S
C822 H834 0.960 . S
C822 H835 0.962 . S
C822 H836 0.960 . S
C823 C820 1.511 . S
C823 H837 0.961 . S
C823 H838 0.961 . S
C823 H839 0.961 . S
C824 C825 1.370 . S
C824 C826 1.363 . S
C824 H840 0.931 . S
C825 C824 1.370 . S
C825 C829 1.408 . S
C826 C824 1.363 . S
C826 C827 1.370 . S
C826 C830 1.524 . S
C827 C819 1.503 . S
C827 C826 1.370 . S
C827 C828 1.403 . S
C828 C827 1.403 . S
C828 C829 1.404 . S
C828 C831 1.539 . S
C829 C825 1.408 . S
C829 C828 1.404 . S
C829 H841 0.930 . S
C830 C826 1.524 . S
C830 H842 0.956 . S
C830 H843 0.961 . S
C830 H844 0.961 . S
C831 C828 1.539 . S
C831 H845 0.958 . S
C831 H846 0.961 . S
C831 H847 0.960 . S
H832 C816 0.931 . S
H833 C821 0.929 . S
H834 C822 0.960 . S
H835 C822 0.962 . S
H836 C822 0.960 . S
H837 C823 0.961 . S
H838 C823 0.961 . S
H839 C823 0.961 . S
H840 C824 0.931 . S
H841 C829 0.930 . S
H842 C830 0.956 . S
H843 C830 0.961 . S
H844 C830 0.961 . S
H845 C831 0.958 . S
H846 C831 0.961 . S
H847 C831 0.960 . S
C848 C849 1.391 . S
C848 C850 1.394 . S
C848 H864 0.931 . S
C849 C848 1.391 . S
C849 C853 1.376 . S
C850 C848 1.394 . S
C850 C851 1.369 . S
C850 C854 1.531 . S
C851 C850 1.369 . S
C851 C852 1.410 . S
C851 C859 1.503 . S
C852 C851 1.410 . S
C852 C853 1.392 . S
C852 C855 1.511 . S
C853 C849 1.376 . S
C853 C852 1.392 . S
C853 H865 0.929 . S
C854 C850 1.531 . S
C854 H866 0.960 . S
C854 H867 0.962 . S
C854 H868 0.960 . S
C855 C852 1.511 . S
C855 H869 0.961 . S
C855 H870 0.961 . S
C855 H871 0.961 . S
C856 C857 1.370 . S
C856 C858 1.363 . S
C856 H872 0.931 . S
C857 C856 1.370 . S
C857 C861 1.408 . S
C858 C856 1.363 . S
C858 C859 1.370 . S
C858 C862 1.524 . S
C859 C851 1.503 . S
C859 C858 1.370 . S
C859 C860 1.403 . S
C860 C859 1.403 . S
C860 C861 1.404 . S
C860 C863 1.539 . S
C861 C857 1.408 . S
C861 C860 1.404 . S
C861 H873 0.930 . S
C862 C858 1.524 . S
C862 H874 0.956 . S
C862 H875 0.961 . S
C862 H876 0.961 . S
C863 C860 1.539 . S
C863 H877 0.958 . S
C863 H878 0.961 . S
C863 H879 0.960 . S
H864 C848 0.931 . S
H865 C853 0.929 . S
H866 C854 0.960 . S
H867 C854 0.962 . S
H868 C854 0.960 . S
H869 C855 0.961 . S
H870 C855 0.961 . S
H871 C855 0.961 . S
H872 C856 0.931 . S
H873 C861 0.930 . S
H874 C862 0.956 . S
H875 C862 0.961 . S
H876 C862 0.961 . S
H877 C863 0.958 . S
H878 C863 0.961 . S
H879 C863 0.960 . S
C880 C881 1.391 . S
C880 C882 1.394 . S
C880 H896 0.931 . S
C881 C880 1.391 . S
C881 C885 1.376 . S
C882 C880 1.394 . S
C882 C883 1.369 . S
C882 C886 1.531 . S
C883 C882 1.369 . S
C883 C884 1.410 . S
C883 C891 1.503 . S
C884 C883 1.410 . S
C884 C885 1.392 . S
C884 C887 1.511 . S
C885 C881 1.376 . S
C885 C884 1.392 . S
C885 H897 0.929 . S
C886 C882 1.531 . S
C886 H898 0.960 . S
C886 H899 0.962 . S
C886 H900 0.960 . S
C887 C884 1.511 . S
C887 H901 0.961 . S
C887 H902 0.961 . S
C887 H903 0.961 . S
C888 C889 1.370 . S
C888 C890 1.363 . S
C888 H904 0.931 . S
C889 C888 1.370 . S
C889 C893 1.408 . S
C890 C888 1.363 . S
C890 C891 1.370 . S
C890 C894 1.524 . S
C891 C883 1.503 . S
C891 C890 1.370 . S
C891 C892 1.403 . S
C892 C891 1.403 . S
C892 C893 1.404 . S
C892 C895 1.539 . S
C893 C889 1.408 . S
C893 C892 1.404 . S
C893 H905 0.930 . S
C894 C890 1.524 . S
C894 H906 0.956 . S
C894 H907 0.961 . S
C894 H908 0.961 . S
C895 C892 1.539 . S
C895 H909 0.958 . S
C895 H910 0.961 . S
C895 H911 0.960 . S
H896 C880 0.931 . S
H897 C885 0.929 . S
H898 C886 0.960 . S
H899 C886 0.962 . S
H900 C886 0.960 . S
H901 C887 0.961 . S
H902 C887 0.961 . S
H903 C887 0.961 . S
H904 C888 0.931 . S
H905 C893 0.930 . S
H906 C894 0.956 . S
H907 C894 0.961 . S
H908 C894 0.961 . S
H909 C895 0.958 . S
H910 C895 0.961 . S
H911 C895 0.960 . S
C912 C913 1.391 . S
C912 C914 1.394 . S
C912 H928 0.931 . S
C913 C912 1.391 . S
C913 C917 1.376 . S
C914 C912 1.394 . S
C914 C915 1.369 . S
C914 C918 1.531 . S
C915 C914 1.369 . S
C915 C916 1.410 . S
C915 C923 1.503 . S
C916 C915 1.410 . S
C916 C917 1.392 . S
C916 C919 1.511 . S
C917 C913 1.376 . S
C917 C916 1.392 . S
C917 H929 0.929 . S
C918 C914 1.531 . S
C918 H930 0.960 . S
C918 H931 0.962 . S
C918 H932 0.960 . S
C919 C916 1.511 . S
C919 H933 0.961 . S
C919 H934 0.961 . S
C919 H935 0.961 . S
C920 C921 1.370 . S
C920 C922 1.363 . S
C920 H936 0.931 . S
C921 C920 1.370 . S
C921 C925 1.408 . S
C922 C920 1.363 . S
C922 C923 1.370 . S
C922 C926 1.524 . S
C923 C915 1.503 . S
C923 C922 1.370 . S
C923 C924 1.403 . S
C924 C923 1.403 . S
C924 C925 1.404 . S
C924 C927 1.539 . S
C925 C921 1.408 . S
C925 C924 1.404 . S
C925 H937 0.930 . S
C926 C922 1.524 . S
C926 H938 0.956 . S
C926 H939 0.961 . S
C926 H940 0.961 . S
C927 C924 1.539 . S
C927 H941 0.958 . S
C927 H942 0.961 . S
C927 H943 0.960 . S
H928 C912 0.931 . S
H929 C917 0.929 . S
H930 C918 0.960 . S
H931 C918 0.962 . S
H932 C918 0.960 . S
H933 C919 0.961 . S
H934 C919 0.961 . S
H935 C919 0.961 . S
H936 C920 0.931 . S
H937 C925 0.930 . S
H938 C926 0.956 . S
H939 C926 0.961 . S
H940 C926 0.961 . S
H941 C927 0.958 . S
H942 C927 0.961 . S
H943 C927 0.960 . S
C944 C945 1.391 . S
C944 C946 1.394 . S
C944 H960 0.931 . S
C945 C944 1.391 . S
C945 C949 1.376 . S
C946 C944 1.394 . S
C946 C947 1.369 . S
C946 C950 1.531 . S
C947 C946 1.369 . S
C947 C948 1.410 . S
C947 C955 1.503 . S
C948 C947 1.410 . S
C948 C949 1.392 . S
C948 C951 1.511 . S
C949 C945 1.376 . S
C949 C948 1.392 . S
C949 H961 0.929 . S
C950 C946 1.531 . S
C950 H962 0.960 . S
C950 H963 0.962 . S
C950 H964 0.960 . S
C951 C948 1.511 . S
C951 H965 0.961 . S
C951 H966 0.961 . S
C951 H967 0.961 . S
C952 C953 1.370 . S
C952 C954 1.363 . S
C952 H968 0.931 . S
C953 C952 1.370 . S
C953 C957 1.408 . S
C954 C952 1.363 . S
C954 C955 1.370 . S
C954 C958 1.524 . S
C955 C947 1.503 . S
C955 C954 1.370 . S
C955 C956 1.403 . S
C956 C955 1.403 . S
C956 C957 1.404 . S
C956 C959 1.539 . S
C957 C953 1.408 . S
C957 C956 1.404 . S
C957 H969 0.930 . S
C958 C954 1.524 . S
C958 H970 0.956 . S
C958 H971 0.961 . S
C958 H972 0.961 . S
C959 C956 1.539 . S
C959 H973 0.958 . S
C959 H974 0.961 . S
C959 H975 0.960 . S
H960 C944 0.931 . S
H961 C949 0.929 . S
H962 C950 0.960 . S
H963 C950 0.962 . S
H964 C950 0.960 . S
H965 C951 0.961 . S
H966 C951 0.961 . S
H967 C951 0.961 . S
H968 C952 0.931 . S
H969 C957 0.930 . S
H970 C958 0.956 . S
H971 C958 0.961 . S
H972 C958 0.961 . S
H973 C959 0.958 . S
H974 C959 0.961 . S
H975 C959 0.960 . S
C976 C977 1.391 . S
C976 C978 1.394 . S
C976 H992 0.931 . S
C977 C976 1.391 . S
C977 C981 1.376 . S
C978 C976 1.394 . S
C978 C979 1.369 . S
C978 C982 1.531 . S
C979 C978 1.369 . S
C979 C980 1.410 . S
C979 C987 1.503 . S
C980 C979 1.410 . S
C980 C981 1.392 . S
C980 C983 1.511 . S
C981 C977 1.376 . S
C981 C980 1.392 . S
C981 H993 0.929 . S
C982 C978 1.531 . S
C982 H994 0.960 . S
C982 H995 0.962 . S
C982 H996 0.960 . S
C983 C980 1.511 . S
C983 H997 0.961 . S
C983 H998 0.961 . S
C983 H999 0.961 . S
C984 C985 1.370 . S
C984 C986 1.363 . S
C984 H1000 0.931 . S
C985 C984 1.370 . S
C985 C989 1.408 . S
C986 C984 1.363 . S
C986 C987 1.370 . S
C986 C990 1.524 . S
C987 C979 1.503 . S
C987 C986 1.370 . S
C987 C988 1.403 . S
C988 C987 1.403 . S
C988 C989 1.404 . S
C988 C991 1.539 . S
C989 C985 1.408 . S
C989 C988 1.404 . S
C989 H1001 0.930 . S
C990 C986 1.524 . S
C990 H1002 0.956 . S
C990 H1003 0.961 . S
C990 H1004 0.961 . S
C991 C988 1.539 . S
C991 H1005 0.958 . S
C991 H1006 0.961 . S
C991 H1007 0.960 . S
H992 C976 0.931 . S
H993 C981 0.929 . S
H994 C982 0.960 . S
H995 C982 0.962 . S
H996 C982 0.960 . S
H997 C983 0.961 . S
H998 C983 0.961 . S
H999 C983 0.961 . S
H1000 C984 0.931 . S
H1001 C989 0.930 . S
H1002 C990 0.956 . S
H1003 C990 0.961 . S
H1004 C990 0.961 . S
H1005 C991 0.958 . S
H1006 C991 0.961 . S
H1007 C991 0.960 . S
C1008 C1009 1.391 . S
C1008 C1010 1.394 . S
C1008 H1024 0.931 . S
C1009 C1008 1.391 . S
C1009 C1013 1.376 . S
C1010 C1008 1.394 . S
C1010 C1011 1.369 . S
C1010 C1014 1.531 . S
C1011 C1010 1.369 . S
C1011 C1012 1.410 . S
C1011 C1019 1.503 . S
C1012 C1011 1.410 . S
C1012 C1013 1.392 . S
C1012 C1015 1.511 . S
C1013 C1009 1.376 . S
C1013 C1012 1.392 . S
C1013 H1025 0.929 . S
C1014 C1010 1.531 . S
C1014 H1026 0.960 . S
C1014 H1027 0.962 . S
C1014 H1028 0.960 . S
C1015 C1012 1.511 . S
C1015 H1029 0.961 . S
C1015 H1030 0.961 . S
C1015 H1031 0.961 . S
C1016 C1017 1.370 . S
C1016 C1018 1.363 . S
C1016 H1032 0.931 . S
C1017 C1016 1.370 . S
C1017 C1021 1.408 . S
C1018 C1016 1.363 . S
C1018 C1019 1.370 . S
C1018 C1022 1.524 . S
C1019 C1011 1.503 . S
C1019 C1018 1.370 . S
C1019 C1020 1.403 . S
C1020 C1019 1.403 . S
C1020 C1021 1.404 . S
C1020 C1023 1.539 . S
C1021 C1017 1.408 . S
C1021 C1020 1.404 . S
C1021 H1033 0.930 . S
C1022 C1018 1.524 . S
C1022 H1034 0.956 . S
C1022 H1035 0.961 . S
C1022 H1036 0.961 . S
C1023 C1020 1.539 . S
C1023 H1037 0.958 . S
C1023 H1038 0.961 . S
C1023 H1039 0.960 . S
H1024 C1008 0.931 . S
H1025 C1013 0.929 . S
H1026 C1014 0.960 . S
H1027 C1014 0.962 . S
H1028 C1014 0.960 . S
H1029 C1015 0.961 . S
H1030 C1015 0.961 . S
H1031 C1015 0.961 . S
H1032 C1016 0.931 . S
H1033 C1021 0.930 . S
H1034 C1022 0.956 . S
H1035 C1022 0.961 . S
H1036 C1022 0.961 . S
H1037 C1023 0.958 . S
H1038 C1023 0.961 . S
H1039 C1023 0.960 . S
C1040 C1041 1.391 . S
C1040 C1042 1.394 . S
C1040 H1056 0.931 . S
C1041 C1040 1.391 . S
C1041 C1045 1.376 . S
C1042 C1040 1.394 . S
C1042 C1043 1.369 . S
C1042 C1046 1.531 . S
C1043 C1042 1.369 . S
C1043 C1044 1.410 . S
C1043 C1051 1.503 . S
C1044 C1043 1.410 . S
C1044 C1045 1.392 . S
C1044 C1047 1.511 . S
C1045 C1041 1.376 . S
C1045 C1044 1.392 . S
C1045 H1057 0.929 . S
C1046 C1042 1.531 . S
C1046 H1058 0.960 . S
C1046 H1059 0.962 . S
C1046 H1060 0.960 . S
C1047 C1044 1.511 . S
C1047 H1061 0.961 . S
C1047 H1062 0.961 . S
C1047 H1063 0.961 . S
C1048 C1049 1.370 . S
C1048 C1050 1.363 . S
C1048 H1064 0.931 . S
C1049 C1048 1.370 . S
C1049 C1053 1.408 . S
C1050 C1048 1.363 . S
C1050 C1051 1.370 . S
C1050 C1054 1.524 . S
C1051 C1043 1.503 . S
C1051 C1050 1.370 . S
C1051 C1052 1.403 . S
C1052 C1051 1.403 . S
C1052 C1053 1.404 . S
C1052 C1055 1.539 . S
C1053 C1049 1.408 . S
C1053 C1052 1.404 . S
C1053 H1065 0.930 . S
C1054 C1050 1.524 . S
C1054 H1066 0.956 . S
C1054 H1067 0.961 . S
C1054 H1068 0.961 . S
C1055 C1052 1.539 . S
C1055 H1069 0.958 . S
C1055 H1070 0.961 . S
C1055 H1071 0.960 . S
H1056 C1040 0.931 . S
H1057 C1045 0.929 . S
H1058 C1046 0.960 . S
H1059 C1046 0.962 . S
H1060 C1046 0.960 . S
H1061 C1047 0.961 . S
H1062 C1047 0.961 . S
H1063 C1047 0.961 . S
H1064 C1048 0.931 . S
H1065 C1053 0.930 . S
H1066 C1054 0.956 . S
H1067 C1054 0.961 . S
H1068 C1054 0.961 . S
H1069 C1055 0.958 . S
H1070 C1055 0.961 . S
H1071 C1055 0.960 . S
C1072 C1073 1.391 . S
C1072 C1074 1.394 . S
C1072 H1088 0.931 . S
C1073 C1072 1.391 . S
C1073 C1077 1.376 . S
C1074 C1072 1.394 . S
C1074 C1075 1.369 . S
C1074 C1078 1.531 . S
C1075 C1074 1.369 . S
C1075 C1076 1.410 . S
C1075 C1083 1.503 . S
C1076 C1075 1.410 . S
C1076 C1077 1.392 . S
C1076 C1079 1.511 . S
C1077 C1073 1.376 . S
C1077 C1076 1.392 . S
C1077 H1089 0.929 . S
C1078 C1074 1.531 . S
C1078 H1090 0.960 . S
C1078 H1091 0.962 . S
C1078 H1092 0.960 . S
C1079 C1076 1.511 . S
C1079 H1093 0.961 . S
C1079 H1094 0.961 . S
C1079 H1095 0.961 . S
C1080 C1081 1.370 . S
C1080 C1082 1.363 . S
C1080 H1096 0.931 . S
C1081 C1080 1.370 . S
C1081 C1085 1.408 . S
C1082 C1080 1.363 . S
C1082 C1083 1.370 . S
C1082 C1086 1.524 . S
C1083 C1075 1.503 . S
C1083 C1082 1.370 . S
C1083 C1084 1.403 . S
C1084 C1083 1.403 . S
C1084 C1085 1.404 . S
C1084 C1087 1.539 . S
C1085 C1081 1.408 . S
C1085 C1084 1.404 . S
C1085 H1097 0.930 . S
C1086 C1082 1.524 . S
C1086 H1098 0.956 . S
C1086 H1099 0.961 . S
C1086 H1100 0.961 . S
C1087 C1084 1.539 . S
C1087 H1101 0.958 . S
C1087 H1102 0.961 . S
C1087 H1103 0.960 . S
H1088 C1072 0.931 . S
H1089 C1077 0.929 . S
H1090 C1078 0.960 . S
H1091 C1078 0.962 . S
H1092 C1078 0.960 . S
H1093 C1079 0.961 . S
H1094 C1079 0.961 . S
H1095 C1079 0.961 . S
H1096 C1080 0.931 . S
H1097 C1085 0.930 . S
H1098 C1086 0.956 . S
H1099 C1086 0.961 . S
H1100 C1086 0.961 . S
H1101 C1087 0.958 . S
H1102 C1087 0.961 . S
H1103 C1087 0.960 . S
C1104 C1105 1.391 . S
C1104 C1106 1.394 . S
C1104 H1120 0.931 . S
C1105 C1104 1.391 . S
C1105 C1109 1.376 . S
C1106 C1104 1.394 . S
C1106 C1107 1.369 . S
C1106 C1110 1.531 . S
C1107 C1106 1.369 . S
C1107 C1108 1.410 . S
C1107 C1115 1.503 . S
C1108 C1107 1.410 . S
C1108 C1109 1.392 . S
C1108 C1111 1.511 . S
C1109 C1105 1.376 . S
C1109 C1108 1.392 . S
C1109 H1121 0.929 . S
C1110 C1106 1.531 . S
C1110 H1122 0.960 . S
C1110 H1123 0.962 . S
C1110 H1124 0.960 . S
C1111 C1108 1.511 . S
C1111 H1125 0.961 . S
C1111 H1126 0.961 . S
C1111 H1127 0.961 . S
C1112 C1113 1.370 . S
C1112 C1114 1.363 . S
C1112 H1128 0.931 . S
C1113 C1112 1.370 . S
C1113 C1117 1.408 . S
C1114 C1112 1.363 . S
C1114 C1115 1.370 . S
C1114 C1118 1.524 . S
C1115 C1107 1.503 . S
C1115 C1114 1.370 . S
C1115 C1116 1.403 . S
C1116 C1115 1.403 . S
C1116 C1117 1.404 . S
C1116 C1119 1.539 . S
C1117 C1113 1.408 . S
C1117 C1116 1.404 . S
C1117 H1129 0.930 . S
C1118 C1114 1.524 . S
C1118 H1130 0.956 . S
C1118 H1131 0.961 . S
C1118 H1132 0.961 . S
C1119 C1116 1.539 . S
C1119 H1133 0.958 . S
C1119 H1134 0.961 . S
C1119 H1135 0.960 . S
H1120 C1104 0.931 . S
H1121 C1109 0.929 . S
H1122 C1110 0.960 . S
H1123 C1110 0.962 . S
H1124 C1110 0.960 . S
H1125 C1111 0.961 . S
H1126 C1111 0.961 . S
H1127 C1111 0.961 . S
H1128 C1112 0.931 . S
H1129 C1117 0.930 . S
H1130 C1118 0.956 . S
H1131 C1118 0.961 . S
H1132 C1118 0.961 . S
H1133 C1119 0.958 . S
H1134 C1119 0.961 . S
H1135 C1119 0.960 . S
C1136 C1137 1.391 . S
C1136 C1138 1.394 . S
C1136 H1152 0.931 . S
C1137 C1136 1.391 . S
C1137 C1141 1.376 . S
C1138 C1136 1.394 . S
C1138 C1139 1.369 . S
C1138 C1142 1.531 . S
C1139 C1138 1.369 . S
C1139 C1140 1.410 . S
C1139 C1147 1.503 . S
C1140 C1139 1.410 . S
C1140 C1141 1.392 . S
C1140 C1143 1.511 . S
C1141 C1137 1.376 . S
C1141 C1140 1.392 . S
C1141 H1153 0.929 . S
C1142 C1138 1.531 . S
C1142 H1154 0.960 . S
C1142 H1155 0.962 . S
C1142 H1156 0.960 . S
C1143 C1140 1.511 . S
C1143 H1157 0.961 . S
C1143 H1158 0.961 . S
C1143 H1159 0.961 . S
C1144 C1145 1.370 . S
C1144 C1146 1.363 . S
C1144 H1160 0.931 . S
C1145 C1144 1.370 . S
C1145 C1149 1.408 . S
C1146 C1144 1.363 . S
C1146 C1147 1.370 . S
C1146 C1150 1.524 . S
C1147 C1139 1.503 . S
C1147 C1146 1.370 . S
C1147 C1148 1.403 . S
C1148 C1147 1.403 . S
C1148 C1149 1.404 . S
C1148 C1151 1.539 . S
C1149 C1145 1.408 . S
C1149 C1148 1.404 . S
C1149 H1161 0.930 . S
C1150 C1146 1.524 . S
C1150 H1162 0.956 . S
C1150 H1163 0.961 . S
C1150 H1164 0.961 . S
C1151 C1148 1.539 . S
C1151 H1165 0.958 . S
C1151 H1166 0.961 . S
C1151 H1167 0.960 . S
H1152 C1136 0.931 . S
H1153 C1141 0.929 . S
H1154 C1142 0.960 . S
H1155 C1142 0.962 . S
H1156 C1142 0.960 . S
H1157 C1143 0.961 . S
H1158 C1143 0.961 . S
H1159 C1143 0.961 . S
H1160 C1144 0.931 . S
H1161 C1149 0.930 . S
H1162 C1150 0.956 . S
H1163 C1150 0.961 . S
H1164 C1150 0.961 . S
H1165 C1151 0.958 . S
H1166 C1151 0.961 . S
H1167 C1151 0.960 . S
C1168 C1169 1.391 . S
C1168 C1170 1.394 . S
C1168 H1184 0.931 . S
C1169 C1168 1.391 . S
C1169 C1173 1.376 . S
C1170 C1168 1.394 . S
C1170 C1171 1.369 . S
C1170 C1174 1.531 . S
C1171 C1170 1.369 . S
C1171 C1172 1.410 . S
C1171 C1179 1.503 . S
C1172 C1171 1.410 . S
C1172 C1173 1.392 . S
C1172 C1175 1.511 . S
C1173 C1169 1.376 . S
C1173 C1172 1.392 . S
C1173 H1185 0.929 . S
C1174 C1170 1.531 . S
C1174 H1186 0.960 . S
C1174 H1187 0.962 . S
C1174 H1188 0.960 . S
C1175 C1172 1.511 . S
C1175 H1189 0.961 . S
C1175 H1190 0.961 . S
C1175 H1191 0.961 . S
C1176 C1177 1.370 . S
C1176 C1178 1.363 . S
C1176 H1192 0.931 . S
C1177 C1176 1.370 . S
C1177 C1181 1.408 . S
C1178 C1176 1.363 . S
C1178 C1179 1.370 . S
C1178 C1182 1.524 . S
C1179 C1171 1.503 . S
C1179 C1178 1.370 . S
C1179 C1180 1.403 . S
C1180 C1179 1.403 . S
C1180 C1181 1.404 . S
C1180 C1183 1.539 . S
C1181 C1177 1.408 . S
C1181 C1180 1.404 . S
C1181 H1193 0.930 . S
C1182 C1178 1.524 . S
C1182 H1194 0.956 . S
C1182 H1195 0.961 . S
C1182 H1196 0.961 . S
C1183 C1180 1.539 . S
C1183 H1197 0.958 . S
C1183 H1198 0.961 . S
C1183 H1199 0.960 . S
H1184 C1168 0.931 . S
H1185 C1173 0.929 . S
H1186 C1174 0.960 . S
H1187 C1174 0.962 . S
H1188 C1174 0.960 . S
H1189 C1175 0.961 . S
H1190 C1175 0.961 . S
H1191 C1175 0.961 . S
H1192 C1176 0.931 . S
H1193 C1181 0.930 . S
H1194 C1182 0.956 . S
H1195 C1182 0.961 . S
H1196 C1182 0.961 . S
H1197 C1183 0.958 . S
H1198 C1183 0.961 . S
H1199 C1183 0.960 . S
C1200 C1201 1.391 . S
C1200 C1202 1.394 . S
C1200 H1216 0.931 . S
C1201 C1200 1.391 . S
C1201 C1205 1.376 . S
C1202 C1200 1.394 . S
C1202 C1203 1.369 . S
C1202 C1206 1.531 . S
C1203 C1202 1.369 . S
C1203 C1204 1.410 . S
C1203 C1211 1.503 . S
C1204 C1203 1.410 . S
C1204 C1205 1.392 . S
C1204 C1207 1.511 . S
C1205 C1201 1.376 . S
C1205 C1204 1.392 . S
C1205 H1217 0.929 . S
C1206 C1202 1.531 . S
C1206 H1218 0.960 . S
C1206 H1219 0.962 . S
C1206 H1220 0.960 . S
C1207 C1204 1.511 . S
C1207 H1221 0.961 . S
C1207 H1222 0.961 . S
C1207 H1223 0.961 . S
C1208 C1209 1.370 . S
C1208 C1210 1.363 . S
C1208 H1224 0.931 . S
C1209 C1208 1.370 . S
C1209 C1213 1.408 . S
C1210 C1208 1.363 . S
C1210 C1211 1.370 . S
C1210 C1214 1.524 . S
C1211 C1203 1.503 . S
C1211 C1210 1.370 . S
C1211 C1212 1.403 . S
C1212 C1211 1.403 . S
C1212 C1213 1.404 . S
C1212 C1215 1.539 . S
C1213 C1209 1.408 . S
C1213 C1212 1.404 . S
C1213 H1225 0.930 . S
C1214 C1210 1.524 . S
C1214 H1226 0.956 . S
C1214 H1227 0.961 . S
C1214 H1228 0.961 . S
C1215 C1212 1.539 . S
C1215 H1229 0.958 . S
C1215 H1230 0.961 . S
C1215 H1231 0.960 . S
H1216 C1200 0.931 . S
H1217 C1205 0.929 . S
H1218 C1206 0.960 . S
H1219 C1206 0.962 . S
H1220 C1206 0.960 . S
H1221 C1207 0.961 . S
H1222 C1207 0.961 . S
H1223 C1207 0.961 . S
H1224 C1208 0.931 . S
H1225 C1213 0.930 . S
H1226 C1214 0.956 . S
H1227 C1214 0.961 . S
H1228 C1214 0.961 . S
H1229 C1215 0.958 . S
H1230 C1215 0.961 . S
H1231 C1215 0.960 . S
C1232 C1233 1.391 . S
C1232 C1234 1.394 . S
C1232 H1248 0.931 . S
C1233 C1232 1.391 . S
C1233 C1237 1.376 . S
C1234 C1232 1.394 . S
C1234 C1235 1.369 . S
C1234 C1238 1.531 . S
C1235 C1234 1.369 . S
C1235 C1236 1.410 . S
C1235 C1243 1.503 . S
C1236 C1235 1.410 . S
C1236 C1237 1.392 . S
C1236 C1239 1.511 . S
C1237 C1233 1.376 . S
C1237 C1236 1.392 . S
C1237 H1249 0.929 . S
C1238 C1234 1.531 . S
C1238 H1250 0.960 . S
C1238 H1251 0.962 . S
C1238 H1252 0.960 . S
C1239 C1236 1.511 . S
C1239 H1253 0.961 . S
C1239 H1254 0.961 . S
C1239 H1255 0.961 . S
C1240 C1241 1.370 . S
C1240 C1242 1.363 . S
C1240 H1256 0.931 . S
C1241 C1240 1.370 . S
C1241 C1245 1.408 . S
C1242 C1240 1.363 . S
C1242 C1243 1.370 . S
C1242 C1246 1.524 . S
C1243 C1235 1.503 . S
C1243 C1242 1.370 . S
C1243 C1244 1.403 . S
C1244 C1243 1.403 . S
C1244 C1245 1.404 . S
C1244 C1247 1.539 . S
C1245 C1241 1.408 . S
C1245 C1244 1.404 . S
C1245 H1257 0.930 . S
C1246 C1242 1.524 . S
C1246 H1258 0.956 . S
C1246 H1259 0.961 . S
C1246 H1260 0.961 . S
C1247 C1244 1.539 . S
C1247 H1261 0.958 . S
C1247 H1262 0.961 . S
C1247 H1263 0.960 . S
H1248 C1232 0.931 . S
H1249 C1237 0.929 . S
H1250 C1238 0.960 . S
H1251 C1238 0.962 . S
H1252 C1238 0.960 . S
H1253 C1239 0.961 . S
H1254 C1239 0.961 . S
H1255 C1239 0.961 . S
H1256 C1240 0.931 . S
H1257 C1245 0.930 . S
H1258 C1246 0.956 . S
H1259 C1246 0.961 . S
H1260 C1246 0.961 . S
H1261 C1247 0.958 . S
H1262 C1247 0.961 . S
H1263 C1247 0.960 . S
C1264 C1265 1.391 . S
C1264 C1266 1.394 . S
C1264 H1280 0.931 . S
C1265 C1264 1.391 . S
C1265 C1269 1.376 . S
C1266 C1264 1.394 . S
C1266 C1267 1.369 . S
C1266 C1270 1.531 . S
C1267 C1266 1.369 . S
C1267 C1268 1.410 . S
C1267 C1275 1.503 . S
C1268 C1267 1.410 . S
C1268 C1269 1.392 . S
C1268 C1271 1.511 . S
C1269 C1265 1.376 . S
C1269 C1268 1.392 . S
C1269 H1281 0.929 . S
C1270 C1266 1.531 . S
C1270 H1282 0.960 . S
C1270 H1283 0.962 . S
C1270 H1284 0.960 . S
C1271 C1268 1.511 . S
C1271 H1285 0.961 . S
C1271 H1286 0.961 . S
C1271 H1287 0.961 . S
C1272 C1273 1.370 . S
C1272 C1274 1.363 . S
C1272 H1288 0.931 . S
C1273 C1272 1.370 . S
C1273 C1277 1.408 . S
C1274 C1272 1.363 . S
C1274 C1275 1.370 . S
C1274 C1278 1.524 . S
C1275 C1267 1.503 . S
C1275 C1274 1.370 . S
C1275 C1276 1.403 . S
C1276 C1275 1.403 . S
C1276 C1277 1.404 . S
C1276 C1279 1.539 . S
C1277 C1273 1.408 . S
C1277 C1276 1.404 . S
C1277 H1289 0.930 . S
C1278 C1274 1.524 . S
C1278 H1290 0.956 . S
C1278 H1291 0.961 . S
C1278 H1292 0.961 . S
C1279 C1276 1.539 . S
C1279 H1293 0.958 . S
C1279 H1294 0.961 . S
C1279 H1295 0.960 . S
H1280 C1264 0.931 . S
H1281 C1269 0.929 . S
H1282 C1270 0.960 . S
H1283 C1270 0.962 . S
H1284 C1270 0.960 . S
H1285 C1271 0.961 . S
H1286 C1271 0.961 . S
H1287 C1271 0.961 . S
H1288 C1272 0.931 . S
H1289 C1277 0.930 . S
H1290 C1278 0.956 . S
H1291 C1278 0.961 . S
H1292 C1278 0.961 . S
H1293 C1279 0.958 . S
H1294 C1279 0.961 . S
H1295 C1279 0.960 . S
C1296 C1297 1.391 . S
C1296 C1298 1.394 . S
C1296 H1312 0.931 . S
C1297 C1296 1.391 . S
C1297 C1301 1.376 . S
C1298 C1296 1.394 . S
C1298 C1299 1.369 . S
C1298 C1302 1.531 . S
C1299 C1298 1.369 . S
C1299 C1300 1.410 . S
C1299 C1307 1.503 . S
C1300 C1299 1.410 . S
C1300 C1301 1.392 . S
C1300 C1303 1.511 . S
C1301 C1297 1.376 . S
C1301 C1300 1.392 . S
C1301 H1313 0.929 . S
C1302 C1298 1.531 . S
C1302 H1314 0.960 . S
C1302 H1315 0.962 . S
C1302 H1316 0.960 . S
C1303 C1300 1.511 . S
C1303 H1317 0.961 . S
C1303 H1318 0.961 . S
C1303 H1319 0.961 . S
C1304 C1305 1.370 . S
C1304 C1306 1.363 . S
C1304 H1320 0.931 . S
C1305 C1304 1.370 . S
C1305 C1309 1.408 . S
C1306 C1304 1.363 . S
C1306 C1307 1.370 . S
C1306 C1310 1.524 . S
C1307 C1299 1.503 . S
C1307 C1306 1.370 . S
C1307 C1308 1.403 . S
C1308 C1307 1.403 . S
C1308 C1309 1.404 . S
C1308 C1311 1.539 . S
C1309 C1305 1.408 . S
C1309 C1308 1.404 . S
C1309 H1321 0.930 . S
C1310 C1306 1.524 . S
C1310 H1322 0.956 . S
C1310 H1323 0.961 . S
C1310 H1324 0.961 . S
C1311 C1308 1.539 . S
C1311 H1325 0.958 . S
C1311 H1326 0.961 . S
C1311 H1327 0.960 . S
H1312 C1296 0.931 . S
H1313 C1301 0.929 . S
H1314 C1302 0.960 . S
H1315 C1302 0.962 . S
H1316 C1302 0.960 . S
H1317 C1303 0.961 . S
H1318 C1303 0.961 . S
H1319 C1303 0.961 . S
H1320 C1304 0.931 . S
H1321 C1309 0.930 . S
H1322 C1310 0.956 . S
H1323 C1310 0.961 . S
H1324 C1310 0.961 . S
H1325 C1311 0.958 . S
H1326 C1311 0.961 . S
H1327 C1311 0.960 . S
C1328 C1329 1.391 . S
C1328 C1330 1.394 . S
C1328 H1344 0.931 . S
C1329 C1328 1.391 . S
C1329 C1333 1.376 . S
C1330 C1328 1.394 . S
C1330 C1331 1.369 . S
C1330 C1334 1.531 . S
C1331 C1330 1.369 . S
C1331 C1332 1.410 . S
C1331 C1339 1.503 . S
C1332 C1331 1.410 . S
C1332 C1333 1.392 . S
C1332 C1335 1.511 . S
C1333 C1329 1.376 . S
C1333 C1332 1.392 . S
C1333 H1345 0.929 . S
C1334 C1330 1.531 . S
C1334 H1346 0.960 . S
C1334 H1347 0.962 . S
C1334 H1348 0.960 . S
C1335 C1332 1.511 . S
C1335 H1349 0.961 . S
C1335 H1350 0.961 . S
C1335 H1351 0.961 . S
C1336 C1337 1.370 . S
C1336 C1338 1.363 . S
C1336 H1352 0.931 . S
C1337 C1336 1.370 . S
C1337 C1341 1.408 . S
C1338 C1336 1.363 . S
C1338 C1339 1.370 . S
C1338 C1342 1.524 . S
C1339 C1331 1.503 . S
C1339 C1338 1.370 . S
C1339 C1340 1.403 . S
C1340 C1339 1.403 . S
C1340 C1341 1.404 . S
C1340 C1343 1.539 . S
C1341 C1337 1.408 . S
C1341 C1340 1.404 . S
C1341 H1353 0.930 . S
C1342 C1338 1.524 . S
C1342 H1354 0.956 . S
C1342 H1355 0.961 . S
C1342 H1356 0.961 . S
C1343 C1340 1.539 . S
C1343 H1357 0.958 . S
C1343 H1358 0.961 . S
C1343 H1359 0.960 . S
H1344 C1328 0.931 . S
H1345 C1333 0.929 . S
H1346 C1334 0.960 . S
H1347 C1334 0.962 . S
H1348 C1334 0.960 . S
H1349 C1335 0.961 . S
H1350 C1335 0.961 . S
H1351 C1335 0.961 . S
H1352 C1336 0.931 . S
H1353 C1341 0.930 . S
H1354 C1342 0.956 . S
H1355 C1342 0.961 . S
H1356 C1342 0.961 . S
H1357 C1343 0.958 . S
H1358 C1343 0.961 . S
H1359 C1343 0.960 . S
C1360 C1361 1.391 . S
C1360 C1362 1.394 . S
C1360 H1376 0.931 . S
C1361 C1360 1.391 . S
C1361 C1365 1.376 . S
C1362 C1360 1.394 . S
C1362 C1363 1.369 . S
C1362 C1366 1.531 . S
C1363 C1362 1.369 . S
C1363 C1364 1.410 . S
C1363 C1371 1.503 . S
C1364 C1363 1.410 . S
C1364 C1365 1.392 . S
C1364 C1367 1.511 . S
C1365 C1361 1.376 . S
C1365 C1364 1.392 . S
C1365 H1377 0.929 . S
C1366 C1362 1.531 . S
C1366 H1378 0.960 . S
C1366 H1379 0.962 . S
C1366 H1380 0.960 . S
C1367 C1364 1.511 . S
C1367 H1381 0.961 . S
C1367 H1382 0.961 . S
C1367 H1383 0.961 . S
C1368 C1369 1.370 . S
C1368 C1370 1.363 . S
C1368 H1384 0.931 . S
C1369 C1368 1.370 . S
C1369 C1373 1.408 . S
C1370 C1368 1.363 . S
C1370 C1371 1.370 . S
C1370 C1374 1.524 . S
C1371 C1363 1.503 . S
C1371 C1370 1.370 . S
C1371 C1372 1.403 . S
C1372 C1371 1.403 . S
C1372 C1373 1.404 . S
C1372 C1375 1.539 . S
C1373 C1369 1.408 . S
C1373 C1372 1.404 . S
C1373 H1385 0.930 . S
C1374 C1370 1.524 . S
C1374 H1386 0.956 . S
C1374 H1387 0.961 . S
C1374 H1388 0.961 . S
C1375 C1372 1.539 . S
C1375 H1389 0.958 . S
C1375 H1390 0.961 . S
C1375 H1391 0.960 . S
H1376 C1360 0.931 . S
H1377 C1365 0.929 . S
H1378 C1366 0.960 . S
H1379 C1366 0.962 . S
H1380 C1366 0.960 . S
H1381 C1367 0.961 . S
H1382 C1367 0.961 . S
H1383 C1367 0.961 . S
H1384 C1368 0.931 . S
H1385 C1373 0.930 . S
H1386 C1374 0.956 . S
H1387 C1374 0.961 . S
H1388 C1374 0.961 . S
H1389 C1375 0.958 . S
H1390 C1375 0.961 . S
H1391 C1375 0.960 . S
C1392 C1393 1.391 . S
C1392 C1394 1.394 . S
C1392 H1408 0.931 . S
C1393 C1392 1.391 . S
C1393 C1397 1.376 . S
C1394 C1392 1.394 . S
C1394 C1395 1.369 . S
C1394 C1398 1.531 . S
C1395 C1394 1.369 . S
C1395 C1396 1.410 . S
C1395 C1403 1.503 . S
C1396 C1395 1.410 . S
C1396 C1397 1.392 . S
C1396 C1399 1.511 . S
C1397 C1393 1.376 . S
C1397 C1396 1.392 . S
C1397 H1409 0.929 . S
C1398 C1394 1.531 . S
C1398 H1410 0.960 . S
C1398 H1411 0.962 . S
C1398 H1412 0.960 . S
C1399 C1396 1.511 . S
C1399 H1413 0.961 . S
C1399 H1414 0.961 . S
C1399 H1415 0.961 . S
C1400 C1401 1.370 . S
C1400 C1402 1.363 . S
C1400 H1416 0.931 . S
C1401 C1400 1.370 . S
C1401 C1405 1.408 . S
C1402 C1400 1.363 . S
C1402 C1403 1.370 . S
C1402 C1406 1.524 . S
C1403 C1395 1.503 . S
C1403 C1402 1.370 . S
C1403 C1404 1.403 . S
C1404 C1403 1.403 . S
C1404 C1405 1.404 . S
C1404 C1407 1.539 . S
C1405 C1401 1.408 . S
C1405 C1404 1.404 . S
C1405 H1417 0.930 . S
C1406 C1402 1.524 . S
C1406 H1418 0.956 . S
C1406 H1419 0.961 . S
C1406 H1420 0.961 . S
C1407 C1404 1.539 . S
C1407 H1421 0.958 . S
C1407 H1422 0.961 . S
C1407 H1423 0.960 . S
H1408 C1392 0.931 . S
H1409 C1397 0.929 . S
H1410 C1398 0.960 . S
H1411 C1398 0.962 . S
H1412 C1398 0.960 . S
H1413 C1399 0.961 . S
H1414 C1399 0.961 . S
H1415 C1399 0.961 . S
H1416 C1400 0.931 . S
H1417 C1405 0.930 . S
H1418 C1406 0.956 . S
H1419 C1406 0.961 . S
H1420 C1406 0.961 . S
H1421 C1407 0.958 . S
H1422 C1407 0.961 . S
H1423 C1407 0.960 . S
C1424 C1425 1.391 . S
C1424 C1426 1.394 . S
C1424 H1440 0.931 . S
C1425 C1424 1.391 . S
C1425 C1429 1.376 . S
C1426 C1424 1.394 . S
C1426 C1427 1.369 . S
C1426 C1430 1.531 . S
C1427 C1426 1.369 . S
C1427 C1428 1.410 . S
C1427 C1435 1.503 . S
C1428 C1427 1.410 . S
C1428 C1429 1.392 . S
C1428 C1431 1.511 . S
C1429 C1425 1.376 . S
C1429 C1428 1.392 . S
C1429 H1441 0.929 . S
C1430 C1426 1.531 . S
C1430 H1442 0.960 . S
C1430 H1443 0.962 . S
C1430 H1444 0.960 . S
C1431 C1428 1.511 . S
C1431 H1445 0.961 . S
C1431 H1446 0.961 . S
C1431 H1447 0.961 . S
C1432 C1433 1.370 . S
C1432 C1434 1.363 . S
C1432 H1448 0.931 . S
C1433 C1432 1.370 . S
C1433 C1437 1.408 . S
C1434 C1432 1.363 . S
C1434 C1435 1.370 . S
C1434 C1438 1.524 . S
C1435 C1427 1.503 . S
C1435 C1434 1.370 . S
C1435 C1436 1.403 . S
C1436 C1435 1.403 . S
C1436 C1437 1.404 . S
C1436 C1439 1.539 . S
C1437 C1433 1.408 . S
C1437 C1436 1.404 . S
C1437 H1449 0.930 . S
C1438 C1434 1.524 . S
C1438 H1450 0.956 . S
C1438 H1451 0.961 . S
C1438 H1452 0.961 . S
C1439 C1436 1.539 . S
C1439 H1453 0.958 . S
C1439 H1454 0.961 . S
C1439 H1455 0.960 . S
H1440 C1424 0.931 . S
H1441 C1429 0.929 . S
H1442 C1430 0.960 . S
H1443 C1430 0.962 . S
H1444 C1430 0.960 . S
H1445 C1431 0.961 . S
H1446 C1431 0.961 . S
H1447 C1431 0.961 . S
H1448 C1432 0.931 . S
H1449 C1437 0.930 . S
H1450 C1438 0.956 . S
H1451 C1438 0.961 . S
H1452 C1438 0.961 . S
H1453 C1439 0.958 . S
H1454 C1439 0.961 . S
H1455 C1439 0.960 . S
C1456 C1457 1.391 . S
C1456 C1458 1.394 . S
C1456 H1472 0.931 . S
C1457 C1456 1.391 . S
C1457 C1461 1.376 . S
C1458 C1456 1.394 . S
C1458 C1459 1.369 . S
C1458 C1462 1.531 . S
C1459 C1458 1.369 . S
C1459 C1460 1.410 . S
C1459 C1467 1.503 . S
C1460 C1459 1.410 . S
C1460 C1461 1.392 . S
C1460 C1463 1.511 . S
C1461 C1457 1.376 . S
C1461 C1460 1.392 . S
C1461 H1473 0.929 . S
C1462 C1458 1.531 . S
C1462 H1474 0.960 . S
C1462 H1475 0.962 . S
C1462 H1476 0.960 . S
C1463 C1460 1.511 . S
C1463 H1477 0.961 . S
C1463 H1478 0.961 . S
C1463 H1479 0.961 . S
C1464 C1465 1.370 . S
C1464 C1466 1.363 . S
C1464 H1480 0.931 . S
C1465 C1464 1.370 . S
C1465 C1469 1.408 . S
C1466 C1464 1.363 . S
C1466 C1467 1.370 . S
C1466 C1470 1.524 . S
C1467 C1459 1.503 . S
C1467 C1466 1.370 . S
C1467 C1468 1.403 . S
C1468 C1467 1.403 . S
C1468 C1469 1.404 . S
C1468 C1471 1.539 . S
C1469 C1465 1.408 . S
C1469 C1468 1.404 . S
C1469 H1481 0.930 . S
C1470 C1466 1.524 . S
C1470 H1482 0.956 . S
C1470 H1483 0.961 . S
C1470 H1484 0.961 . S
C1471 C1468 1.539 . S
C1471 H1485 0.958 . S
C1471 H1486 0.961 . S
C1471 H1487 0.960 . S
H1472 C1456 0.931 . S
H1473 C1461 0.929 . S
H1474 C1462 0.960 . S
H1475 C1462 0.962 . S
H1476 C1462 0.960 . S
H1477 C1463 0.961 . S
H1478 C1463 0.961 . S
H1479 C1463 0.961 . S
H1480 C1464 0.931 . S
H1481 C1469 0.930 . S
H1482 C1470 0.956 . S
H1483 C1470 0.961 . S
H1484 C1470 0.961 . S
H1485 C1471 0.958 . S
H1486 C1471 0.961 . S
H1487 C1471 0.960 . S
C1488 C1489 1.391 . S
C1488 C1490 1.394 . S
C1488 H1504 0.931 . S
C1489 C1488 1.391 . S
C1489 C1493 1.376 . S
C1490 C1488 1.394 . S
C1490 C1491 1.369 . S
C1490 C1494 1.531 . S
C1491 C1490 1.369 . S
C1491 C1492 1.410 . S
C1491 C1499 1.503 . S
C1492 C1491 1.410 . S
C1492 C1493 1.392 . S
C1492 C1495 1.511 . S
C1493 C1489 1.376 . S
C1493 C1492 1.392 . S
C1493 H1505 0.929 . S
C1494 C1490 1.531 . S
C1494 H1506 0.960 . S
C1494 H1507 0.962 . S
C1494 H1508 0.960 . S
C1495 C1492 1.511 . S
C1495 H1509 0.961 . S
C1495 H1510 0.961 . S
C1495 H1511 0.961 . S
C1496 C1497 1.370 . S
C1496 C1498 1.363 . S
C1496 H1512 0.931 . S
C1497 C1496 1.370 . S
C1497 C1501 1.408 . S
C1498 C1496 1.363 . S
C1498 C1499 1.370 . S
C1498 C1502 1.524 . S
C1499 C1491 1.503 . S
C1499 C1498 1.370 . S
C1499 C1500 1.403 . S
C1500 C1499 1.403 . S
C1500 C1501 1.404 . S
C1500 C1503 1.539 . S
C1501 C1497 1.408 . S
C1501 C1500 1.404 . S
C1501 H1513 0.930 . S
C1502 C1498 1.524 . S
C1502 H1514 0.956 . S
C1502 H1515 0.961 . S
C1502 H1516 0.961 . S
C1503 C1500 1.539 . S
C1503 H1517 0.958 . S
C1503 H1518 0.961 . S
C1503 H1519 0.960 . S
H1504 C1488 0.931 . S
H1505 C1493 0.929 . S
H1506 C1494 0.960 . S
H1507 C1494 0.962 . S
H1508 C1494 0.960 . S
H1509 C1495 0.961 . S
H1510 C1495 0.961 . S
H1511 C1495 0.961 . S
H1512 C1496 0.931 . S
H1513 C1501 0.930 . S
H1514 C1502 0.956 . S
H1515 C1502 0.961 . S
H1516 C1502 0.961 . S
H1517 C1503 0.958 . S
H1518 C1503 0.961 . S
H1519 C1503 0.960 . S
C1520 C1521 1.391 . S
C1520 C1522 1.394 . S
C1520 H1536 0.931 . S
C1521 C1520 1.391 . S
C1521 C1525 1.376 . S
C1522 C1520 1.394 . S
C1522 C1523 1.369 . S
C1522 C1526 1.531 . S
C1523 C1522 1.369 . S
C1523 C1524 1.410 . S
C1523 C1531 1.503 . S
C1524 C1523 1.410 . S
C1524 C1525 1.392 . S
C1524 C1527 1.511 . S
C1525 C1521 1.376 . S
C1525 C1524 1.392 . S
C1525 H1537 0.929 . S
C1526 C1522 1.531 . S
C1526 H1538 0.960 . S
C1526 H1539 0.962 . S
C1526 H1540 0.960 . S
C1527 C1524 1.511 . S
C1527 H1541 0.961 . S
C1527 H1542 0.961 . S
C1527 H1543 0.961 . S
C1528 C1529 1.370 . S
C1528 C1530 1.363 . S
C1528 H1544 0.931 . S
C1529 C1528 1.370 . S
C1529 C1533 1.408 . S
C1530 C1528 1.363 . S
C1530 C1531 1.370 . S
C1530 C1534 1.524 . S
C1531 C1523 1.503 . S
C1531 C1530 1.370 . S
C1531 C1532 1.403 . S
C1532 C1531 1.403 . S
C1532 C1533 1.404 . S
C1532 C1535 1.539 . S
C1533 C1529 1.408 . S
C1533 C1532 1.404 . S
C1533 H1545 0.930 . S
C1534 C1530 1.524 . S
C1534 H1546 0.956 . S
C1534 H1547 0.961 . S
C1534 H1548 0.961 . S
C1535 C1532 1.539 . S
C1535 H1549 0.958 . S
C1535 H1550 0.961 . S
C1535 H1551 0.960 . S
H1536 C1520 0.931 . S
H1537 C1525 0.929 . S
H1538 C1526 0.960 . S
H1539 C1526 0.962 . S
H1540 C1526 0.960 . S
H1541 C1527 0.961 . S
H1542 C1527 0.961 . S
H1543 C1527 0.961 . S
H1544 C1528 0.931 . S
H1545 C1533 0.930 . S
H1546 C1534 0.956 . S
H1547 C1534 0.961 . S
H1548 C1534 0.961 . S
H1549 C1535 0.958 . S
H1550 C1535 0.961 . S
H1551 C1535 0.960 . S
C1552 C1553 1.391 . S
C1552 C1554 1.394 . S
C1552 H1568 0.931 . S
C1553 C1552 1.391 . S
C1553 C1557 1.376 . S
C1554 C1552 1.394 . S
C1554 C1555 1.369 . S
C1554 C1558 1.531 . S
C1555 C1554 1.369 . S
C1555 C1556 1.410 . S
C1555 C1563 1.503 1_556 S
C1556 C1555 1.410 . S
C1556 C1557 1.392 . S
C1556 C1559 1.511 . S
C1557 C1553 1.376 . S
C1557 C1556 1.392 . S
C1557 H1569 0.929 . S
C1558 C1554 1.531 . S
C1558 H1570 0.960 1_556 S
C1558 H1571 0.965 . S
C1558 H1572 0.960 . S
C1559 C1556 1.511 . S
C1559 H1573 0.961 1_545 S
C1559 H1574 0.961 1_545 S
C1559 H1575 0.961 . S
C1560 C1561 1.370 . S
C1560 C1562 1.363 . S
C1560 H1576 0.931 1_545 S
C1561 C1560 1.370 . S
C1561 C1565 1.408 . S
C1562 C1560 1.363 . S
C1562 C1563 1.370 . S
C1562 C1566 1.524 1_545 S
C1563 C1555 1.503 1_554 S
C1563 C1562 1.370 . S
C1563 C1564 1.403 . S
C1564 C1563 1.403 . S
C1564 C1565 1.404 . S
C1564 C1567 1.539 . S
C1565 C1561 1.408 . S
C1565 C1564 1.404 . S
C1565 H1577 0.930 . S
C1566 C1562 1.524 1_565 S
C1566 H1578 0.956 1_565 S
C1566 H1579 0.961 . S
C1566 H1580 0.961 . S
C1567 C1564 1.539 . S
C1567 H1581 0.958 . S
C1567 H1582 0.961 . S
C1567 H1583 0.960 1_554 S
H1568 C1552 0.931 . S
H1569 C1557 0.929 . S
H1570 C1558 0.960 1_554 S
H1571 C1558 0.965 . S
H1572 C1558 0.960 . S
H1573 C1559 0.961 1_565 S
H1574 C1559 0.961 1_565 S
H1575 C1559 0.961 . S
H1576 C1560 0.931 1_565 S
H1577 C1565 0.930 . S
H1578 C1566 0.956 1_545 S
H1579 C1566 0.961 . S
H1580 C1566 0.961 . S
H1581 C1567 0.958 . S
H1582 C1567 0.961 . S
H1583 C1567 0.960 1_556 S
C1584 C1585 1.391 . S
C1584 C1586 1.394 . S
C1584 H1600 0.931 . S
C1585 C1584 1.391 . S
C1585 C1589 1.376 . S
C1586 C1584 1.394 . S
C1586 C1587 1.369 . S
C1586 C1590 1.531 . S
C1587 C1586 1.369 . S
C1587 C1588 1.410 . S
C1587 C1595 1.503 . S
C1588 C1587 1.410 . S
C1588 C1589 1.392 . S
C1588 C1591 1.511 . S
C1589 C1585 1.376 . S
C1589 C1588 1.392 . S
C1589 H1601 0.929 . S
C1590 C1586 1.531 . S
C1590 H1602 0.960 . S
C1590 H1603 0.962 . S
C1590 H1604 0.960 . S
C1591 C1588 1.511 . S
C1591 H1605 0.961 . S
C1591 H1606 0.961 . S
C1591 H1607 0.961 . S
C1592 C1593 1.370 . S
C1592 C1594 1.363 . S
C1592 H1608 0.931 . S
C1593 C1592 1.370 . S
C1593 C1597 1.408 . S
C1594 C1592 1.363 . S
C1594 C1595 1.370 . S
C1594 C1598 1.524 . S
C1595 C1587 1.503 . S
C1595 C1594 1.370 . S
C1595 C1596 1.403 . S
C1596 C1595 1.403 . S
C1596 C1597 1.404 . S
C1596 C1599 1.539 . S
C1597 C1593 1.408 . S
C1597 C1596 1.404 . S
C1597 H1609 0.930 . S
C1598 C1594 1.524 . S
C1598 H1610 0.956 . S
C1598 H1611 0.961 . S
C1598 H1612 0.961 . S
C1599 C1596 1.539 . S
C1599 H1613 0.958 . S
C1599 H1614 0.961 . S
C1599 H1615 0.960 . S
H1600 C1584 0.931 . S
H1601 C1589 0.929 . S
H1602 C1590 0.960 . S
H1603 C1590 0.962 . S
H1604 C1590 0.960 . S
H1605 C1591 0.961 . S
H1606 C1591 0.961 . S
H1607 C1591 0.961 . S
H1608 C1592 0.931 . S
H1609 C1597 0.930 . S
H1610 C1598 0.956 . S
H1611 C1598 0.961 . S
H1612 C1598 0.961 . S
H1613 C1599 0.958 . S
H1614 C1599 0.961 . S
H1615 C1599 0.960 . S
C1616 C1617 1.391 . S
C1616 C1618 1.394 . S
C1616 H1632 0.931 . S
C1617 C1616 1.391 . S
C1617 C1621 1.376 . S
C1618 C1616 1.394 . S
C1618 C1619 1.369 . S
C1618 C1622 1.531 . S
C1619 C1618 1.369 . S
C1619 C1620 1.410 . S
C1619 C1627 1.503 1_554 S
C1620 C1619 1.410 . S
C1620 C1621 1.392 . S
C1620 C1623 1.511 . S
C1621 C1617 1.376 . S
C1621 C1620 1.392 . S
C1621 H1633 0.929 . S
C1622 C1618 1.531 . S
C1622 H1634 0.960 1_554 S
C1622 H1635 0.952 1_554 S
C1622 H1636 0.960 . S
C1623 C1620 1.511 . S
C1623 H1637 0.961 . S
C1623 H1638 0.961 . S
C1623 H1639 0.961 . S
C1624 C1625 1.370 . S
C1624 C1626 1.363 . S
C1624 H1640 0.931 . S
C1625 C1624 1.370 . S
C1625 C1629 1.408 . S
C1626 C1624 1.363 . S
C1626 C1627 1.370 . S
C1626 C1630 1.524 . S
C1627 C1619 1.503 1_556 S
C1627 C1626 1.370 . S
C1627 C1628 1.403 . S
C1628 C1627 1.403 . S
C1628 C1629 1.404 . S
C1628 C1631 1.539 . S
C1629 C1625 1.408 . S
C1629 C1628 1.404 . S
C1629 H1641 0.930 . S
C1630 C1626 1.524 . S
C1630 H1642 0.956 . S
C1630 H1643 0.961 1_556 S
C1630 H1644 0.961 . S
C1631 C1628 1.539 . S
C1631 H1645 0.958 . S
C1631 H1646 0.961 . S
C1631 H1647 0.960 1_556 S
H1632 C1616 0.931 . S
H1633 C1621 0.929 . S
H1634 C1622 0.960 1_556 S
H1635 C1622 0.952 1_556 S
H1636 C1622 0.960 . S
H1637 C1623 0.961 . S
H1638 C1623 0.961 . S
H1639 C1623 0.961 . S
H1640 C1624 0.931 . S
H1641 C1629 0.930 . S
H1642 C1630 0.956 . S
H1643 C1630 0.961 1_554 S
H1644 C1630 0.961 . S
H1645 C1631 0.958 . S
H1646 C1631 0.961 . S
H1647 C1631 0.960 1_554 S
C1648 C1649 1.391 . S
C1648 C1650 1.394 . S
C1648 H1664 0.931 1_455 S
C1649 C1648 1.391 . S
C1649 C1653 1.376 . S
C1650 C1648 1.394 . S
C1650 C1651 1.369 . S
C1650 C1654 1.531 1_455 S
C1651 C1650 1.369 . S
C1651 C1652 1.410 . S
C1651 C1659 1.503 . S
C1652 C1651 1.410 . S
C1652 C1653 1.392 . S
C1652 C1655 1.511 . S
C1653 C1649 1.376 . S
C1653 C1652 1.392 . S
C1653 H1665 0.929 . S
C1654 C1650 1.531 1_655 S
C1654 H1666 0.960 . S
C1654 H1667 0.962 . S
C1654 H1668 0.960 . S
C1655 C1652 1.511 . S
C1655 H1669 0.961 . S
C1655 H1670 0.961 . S
C1655 H1671 0.961 . S
C1656 C1657 1.370 . S
C1656 C1658 1.363 . S
C1656 H1672 0.931 . S
C1657 C1656 1.370 . S
C1657 C1661 1.408 . S
C1658 C1656 1.363 . S
C1658 C1659 1.370 . S
C1658 C1662 1.524 . S
C1659 C1651 1.503 . S
C1659 C1658 1.370 . S
C1659 C1660 1.403 . S
C1660 C1659 1.403 . S
C1660 C1661 1.404 . S
C1660 C1663 1.539 . S
C1661 C1657 1.408 . S
C1661 C1660 1.404 . S
C1661 H1673 0.930 . S
C1662 C1658 1.524 . S
C1662 H1674 0.956 1_455 S
C1662 H1675 0.961 . S
C1662 H1676 0.961 . S
C1663 C1660 1.539 . S
C1663 H1677 0.958 . S
C1663 H1678 0.961 . S
C1663 H1679 0.960 . S
H1664 C1648 0.931 1_655 S
H1665 C1653 0.929 . S
H1666 C1654 0.960 . S
H1667 C1654 0.962 . S
H1668 C1654 0.960 . S
H1669 C1655 0.961 . S
H1670 C1655 0.961 . S
H1671 C1655 0.961 . S
H1672 C1656 0.931 . S
H1673 C1661 0.930 . S
H1674 C1662 0.956 1_655 S
H1675 C1662 0.961 . S
H1676 C1662 0.961 . S
H1677 C1663 0.958 . S
H1678 C1663 0.961 . S
H1679 C1663 0.960 . S
C1680 C1681 1.391 . S
C1680 C1682 1.394 . S
C1680 H1696 0.931 . S
C1681 C1680 1.391 . S
C1681 C1685 1.376 . S
C1682 C1680 1.394 . S
C1682 C1683 1.369 . S
C1682 C1686 1.531 . S
C1683 C1682 1.369 . S
C1683 C1684 1.410 . S
C1683 C1691 1.503 1_554 S
C1684 C1683 1.410 . S
C1684 C1685 1.392 . S
C1684 C1687 1.511 . S
C1685 C1681 1.376 . S
C1685 C1684 1.392 . S
C1685 H1697 0.929 . S
C1686 C1682 1.531 . S
C1686 H1698 0.960 1_554 S
C1686 H1699 0.959 1_554 S
C1686 H1700 0.960 . S
C1687 C1684 1.511 . S
C1687 H1701 0.961 . S
C1687 H1702 0.961 . S
C1687 H1703 0.961 1_565 S
C1688 C1689 1.370 . S
C1688 C1690 1.363 . S
C1688 H1704 0.931 . S
C1689 C1688 1.370 . S
C1689 C1693 1.408 . S
C1690 C1688 1.363 . S
C1690 C1691 1.370 . S
C1690 C1694 1.524 . S
C1691 C1683 1.503 1_556 S
C1691 C1690 1.370 . S
C1691 C1692 1.412 . S
C1692 C1691 1.412 . S
C1692 C1693 1.404 . S
C1692 C1695 1.529 1_565 S
C1693 C1689 1.408 . S
C1693 C1692 1.404 . S
C1693 H1705 0.930 1_565 S
C1694 C1690 1.524 . S
C1694 H1706 0.956 . S
C1694 H1707 0.961 1_556 S
C1694 H1708 0.961 . S
C1695 C1692 1.529 1_545 S
C1695 H1709 0.958 . S
C1695 H1710 0.961 . S
C1695 H1711 0.959 1_556 S
H1696 C1680 0.931 . S
H1697 C1685 0.929 . S
H1698 C1686 0.960 1_556 S
H1699 C1686 0.959 1_556 S
H1700 C1686 0.960 . S
H1701 C1687 0.961 . S
H1702 C1687 0.961 . S
H1703 C1687 0.961 1_545 S
H1704 C1688 0.931 . S
H1705 C1693 0.930 1_545 S
H1706 C1694 0.956 . S
H1707 C1694 0.961 1_554 S
H1708 C1694 0.961 . S
H1709 C1695 0.958 . S
H1710 C1695 0.961 . S
H1711 C1695 0.959 1_554 S
C1712 C1713 1.391 . S
C1712 C1714 1.394 . S
C1712 H1728 0.931 . S
C1713 C1712 1.391 . S
C1713 C1717 1.376 . S
C1714 C1712 1.394 . S
C1714 C1715 1.369 . S
C1714 C1718 1.531 . S
C1715 C1714 1.369 . S
C1715 C1716 1.410 . S
C1715 C1723 1.503 . S
C1716 C1715 1.410 . S
C1716 C1717 1.392 . S
C1716 C1719 1.511 . S
C1717 C1713 1.376 . S
C1717 C1716 1.392 . S
C1717 H1729 0.929 . S
C1718 C1714 1.531 . S
C1718 H1730 0.960 . S
C1718 H1731 0.962 . S
C1718 H1732 0.960 . S
C1719 C1716 1.511 . S
C1719 H1733 0.961 . S
C1719 H1734 0.961 . S
C1719 H1735 0.961 . S
C1720 C1721 1.370 . S
C1720 C1722 1.363 . S
C1720 H1736 0.931 . S
C1721 C1720 1.370 . S
C1721 C1725 1.408 . S
C1722 C1720 1.363 . S
C1722 C1723 1.370 . S
C1722 C1726 1.524 . S
C1723 C1715 1.503 . S
C1723 C1722 1.370 . S
C1723 C1724 1.403 . S
C1724 C1723 1.403 . S
C1724 C1725 1.404 . S
C1724 C1727 1.539 . S
C1725 C1721 1.408 . S
C1725 C1724 1.404 . S
C1725 H1737 0.930 . S
C1726 C1722 1.524 . S
C1726 H1738 0.956 . S
C1726 H1739 0.961 . S
C1726 H1740 0.961 . S
C1727 C1724 1.539 . S
C1727 H1741 0.958 . S
C1727 H1742 0.961 . S
C1727 H1743 0.960 . S
H1728 C1712 0.931 . S
H1729 C1717 0.929 . S
H1730 C1718 0.960 . S
H1731 C1718 0.962 . S
H1732 C1718 0.960 . S
H1733 C1719 0.961 . S
H1734 C1719 0.961 . S
H1735 C1719 0.961 . S
H1736 C1720 0.931 . S
H1737 C1725 0.930 . S
H1738 C1726 0.956 . S
H1739 C1726 0.961 . S
H1740 C1726 0.961 . S
H1741 C1727 0.958 . S
H1742 C1727 0.961 . S
H1743 C1727 0.960 . S
C1744 C1745 1.391 . S
C1744 C1746 1.394 . S
C1744 H1760 0.931 . S
C1745 C1744 1.391 . S
C1745 C1749 1.376 . S
C1746 C1744 1.394 . S
C1746 C1747 1.369 . S
C1746 C1750 1.531 . S
C1747 C1746 1.369 . S
C1747 C1748 1.410 . S
C1747 C1755 1.503 1_554 S
C1748 C1747 1.410 . S
C1748 C1749 1.392 . S
C1748 C1751 1.511 . S
C1749 C1745 1.376 . S
C1749 C1748 1.392 . S
C1749 H1761 0.929 . S
C1750 C1746 1.531 . S
C1750 H1762 0.960 1_554 S
C1750 H1763 0.962 . S
C1750 H1764 0.960 . S
C1751 C1748 1.511 . S
C1751 H1765 0.961 . S
C1751 H1766 0.961 . S
C1751 H1767 0.961 . S
C1752 C1753 1.370 . S
C1752 C1754 1.363 . S
C1752 H1768 0.931 . S
C1753 C1752 1.370 . S
C1753 C1757 1.408 . S
C1754 C1752 1.363 . S
C1754 C1755 1.370 . S
C1754 C1758 1.524 . S
C1755 C1747 1.503 1_556 S
C1755 C1754 1.370 . S
C1755 C1756 1.403 . S
C1756 C1755 1.403 . S
C1756 C1757 1.404 . S
C1756 C1759 1.539 . S
C1757 C1753 1.408 . S
C1757 C1756 1.404 . S
C1757 H1769 0.930 . S
C1758 C1754 1.524 . S
C1758 H1770 0.956 . S
C1758 H1771 0.961 . S
C1758 H1772 0.961 . S
C1759 C1756 1.539 . S
C1759 H1773 0.958 . S
C1759 H1774 0.961 . S
C1759 H1775 0.960 1_556 S
H1760 C1744 0.931 . S
H1761 C1749 0.929 . S
H1762 C1750 0.960 1_556 S
H1763 C1750 0.962 . S
H1764 C1750 0.960 . S
H1765 C1751 0.961 . S
H1766 C1751 0.961 . S
H1767 C1751 0.961 . S
H1768 C1752 0.931 . S
H1769 C1757 0.930 . S
H1770 C1758 0.956 . S
H1771 C1758 0.961 . S
H1772 C1758 0.961 . S
H1773 C1759 0.958 . S
H1774 C1759 0.961 . S
H1775 C1759 0.960 1_554 S
C1776 C1777 1.391 . S
C1776 C1778 1.394 . S
C1776 H1792 0.931 1_655 S
C1777 C1776 1.391 . S
C1777 C1781 1.376 . S
C1778 C1776 1.394 . S
C1778 C1779 1.369 . S
C1778 C1782 1.531 1_655 S
C1779 C1778 1.369 . S
C1779 C1780 1.410 . S
C1779 C1787 1.503 . S
C1780 C1779 1.410 . S
C1780 C1781 1.392 . S
C1780 C1783 1.511 . S
C1781 C1777 1.376 . S
C1781 C1780 1.392 . S
C1781 H1793 0.929 . S
C1782 C1778 1.531 1_455 S
C1782 H1794 0.960 . S
C1782 H1795 0.962 . S
C1782 H1796 0.960 . S
C1783 C1780 1.511 . S
C1783 H1797 0.961 . S
C1783 H1798 0.961 . S
C1783 H1799 0.961 . S
C1784 C1785 1.370 . S
C1784 C1786 1.363 . S
C1784 H1800 0.931 . S
C1785 C1784 1.370 . S
C1785 C1789 1.408 . S
C1786 C1784 1.363 . S
C1786 C1787 1.370 . S
C1786 C1790 1.524 . S
C1787 C1779 1.503 . S
C1787 C1786 1.370 . S
C1787 C1788 1.403 . S
C1788 C1787 1.403 . S
C1788 C1789 1.404 . S
C1788 C1791 1.528 1_655 S
C1789 C1785 1.408 . S
C1789 C1788 1.404 . S
C1789 H1801 0.930 . S
C1790 C1786 1.524 . S
C1790 H1802 0.956 . S
C1790 H1803 0.961 . S
C1790 H1804 0.961 . S
C1791 C1788 1.528 1_455 S
C1791 H1805 0.983 . S
C1791 H1806 0.959 1_455 S
C1791 H1807 0.949 1_455 S
H1792 C1776 0.931 1_455 S
H1793 C1781 0.929 . S
H1794 C1782 0.960 . S
H1795 C1782 0.962 . S
H1796 C1782 0.960 . S
H1797 C1783 0.961 . S
H1798 C1783 0.961 . S
H1799 C1783 0.961 . S
H1800 C1784 0.931 . S
H1801 C1789 0.930 . S
H1802 C1790 0.956 . S
H1803 C1790 0.961 . S
H1804 C1790 0.961 . S
H1805 C1791 0.983 . S
H1806 C1791 0.959 1_655 S
H1807 C1791 0.949 1_655 S
C529 N2 2.003 . S
C537 N233 2.005 . S
C561 N134 2.012 . S
C569 N35 2.012 . S
C593 N167 2.007 . S
C601 N68 2.005 . S
C625 N101 1.999 . S
C633 N200 2.013 . S
C657 N266 2.012 . S
C665 N497 2.012 . S
C689 N299 2.013 . S
C697 N398 2.012 . S
C721 N431 1.996 . S
C729 N332 2.007 . S
C753 N365 2.010 . S
C761 N464 2.006 . S
C785 C7 0.829 . S
C793 C318 0.781 . S
C817 C351 0.776 . S
C825 C40 0.837 . S
C849 C384 0.811 . S
C857 C73 0.840 . S
C881 C285 0.781 . S
C889 C106 0.838 . S
C913 C516 0.794 . S
C921 C139 0.839 . S
C945 C417 0.878 . S
C953 C172 0.844 . S
C977 C450 0.770 . S
C985 C205 0.836 . S
C1009 C483 0.748 . S
C1017 C238 0.827 . S
C1041 C54 0.751 . S
C1049 C271 0.827 . S
C1073 C87 0.800 . S
C1081 C304 0.842 . S
C1105 C120 0.814 . S
C1113 C337 0.829 . S
C1137 C370 0.835 . S
C1145 C21 0.780 . S
C1169 C252 0.721 . S
C1177 C403 0.830 . S
C1201 C153 0.730 . S
C1209 C436 0.828 . S
C1233 C186 0.737 . S
C1241 C469 0.835 . S
C1265 C219 0.858 . S
C1273 C502 0.833 . S
C1297 N79 0.932 . S
C1305 N13 0.915 . S
C1329 N46 0.935 . S
C1337 N112 0.967 . S
C1361 N211 1.004 . S
C1369 N145 0.973 . S
C1393 N244 0.969 . S
C1401 N178 0.925 . S
C1425 N343 1.017 . S
C1433 N277 0.948 . S
C1457 N376 0.887 . S
C1465 N310 0.917 . S
C1489 N409 0.985 . S
C1497 N475 0.923 . S
C1521 N508 0.917 . S
C1529 N442 0.912 . S
C1553 C216 1.241 . S
C1561 C18 1.267 . S
C1585 C249 1.270 . S
C1593 C51 1.276 . S
C1617 C84 1.242 . S
C1625 C150 1.264 . S
C1649 C183 1.271 . S
C1657 C117 1.258 . S
C1681 C480 1.283 . S
C1689 C282 1.275 . S
C1713 C513 1.243 . S
C1721 C315 1.268 . S
C1745 C414 1.266 . S
C1753 C348 1.276 . S
C1777 C381 1.261 . S
C1785 C447 1.275 . S
