# Generated by pormake.
# Topology ana, (4)-cn, num edge types: 1
# Building blocks:
#     Node 0, Type 0, BuildingBlock: CEKHIL_clean_sbu_0, # of connection points: 4
#     Node 1, Type 0, BuildingBlock: CEKHIL_clean_sbu_0, # of connection points: 4
#     Node 2, Type 0, BuildingBlock: CEKHIL_clean_sbu_0, # of connection points: 4
#     Node 3, Type 0, BuildingBlock: CEKHIL_clean_sbu_0, # of connection points: 4
#     Node 4, Type 0, BuildingBlock: CEKHIL_clean_sbu_0, # of connection points: 4
#     Node 5, Type 0, BuildingBlock: CEKHIL_clean_sbu_0, # of connection points: 4
#     Node 6, Type 0, BuildingBlock: CEKHIL_clean_sbu_0, # of connection points: 4
#     Node 7, Type 0, BuildingBlock: CEKHIL_clean_sbu_0, # of connection points: 4
#     Node 8, Type 0, BuildingBlock: CEKHIL_clean_sbu_0, # of connection points: 4
#     Node 9, Type 0, BuildingBlock: CEKHIL_clean_sbu_0, # of connection points: 4
#     Node 10, Type 0, BuildingBlock: CEKHIL_clean_sbu_0, # of connection points: 4
#     Node 11, Type 0, BuildingBlock: CEKHIL_clean_sbu_0, # of connection points: 4
#     Node 12, Type 0, BuildingBlock: CEKHIL_clean_sbu_0, # of connection points: 4
#     Node 13, Type 0, BuildingBlock: CEKHIL_clean_sbu_0, # of connection points: 4
#     Node 14, Type 0, BuildingBlock: CEKHIL_clean_sbu_0, # of connection points: 4
#     Node 15, Type 0, BuildingBlock: CEKHIL_clean_sbu_0, # of connection points: 4
#     Node 16, Type 0, BuildingBlock: CEKHIL_clean_sbu_0, # of connection points: 4
#     Node 17, Type 0, BuildingBlock: CEKHIL_clean_sbu_0, # of connection points: 4
#     Node 18, Type 0, BuildingBlock: CEKHIL_clean_sbu_0, # of connection points: 4
#     Node 19, Type 0, BuildingBlock: CEKHIL_clean_sbu_0, # of connection points: 4
#     Node 20, Type 0, BuildingBlock: CEKHIL_clean_sbu_0, # of connection points: 4
#     Node 21, Type 0, BuildingBlock: CEKHIL_clean_sbu_0, # of connection points: 4
#     Node 22, Type 0, BuildingBlock: CEKHIL_clean_sbu_0, # of connection points: 4
#     Node 23, Type 0, BuildingBlock: CEKHIL_clean_sbu_0, # of connection points: 4
#     Node 24, Type 0, BuildingBlock: CEKHIL_clean_sbu_0, # of connection points: 4
#     Node 25, Type 0, BuildingBlock: CEKHIL_clean_sbu_0, # of connection points: 4
#     Node 26, Type 0, BuildingBlock: CEKHIL_clean_sbu_0, # of connection points: 4
#     Node 27, Type 0, BuildingBlock: CEKHIL_clean_sbu_0, # of connection points: 4
#     Node 28, Type 0, BuildingBlock: CEKHIL_clean_sbu_0, # of connection points: 4
#     Node 29, Type 0, BuildingBlock: CEKHIL_clean_sbu_0, # of connection points: 4
#     Node 30, Type 0, BuildingBlock: CEKHIL_clean_sbu_0, # of connection points: 4
#     Node 31, Type 0, BuildingBlock: CEKHIL_clean_sbu_0, # of connection points: 4
#     Node 32, Type 0, BuildingBlock: CEKHIL_clean_sbu_0, # of connection points: 4
#     Node 33, Type 0, BuildingBlock: CEKHIL_clean_sbu_0, # of connection points: 4
#     Node 34, Type 0, BuildingBlock: CEKHIL_clean_sbu_0, # of connection points: 4
#     Node 35, Type 0, BuildingBlock: CEKHIL_clean_sbu_0, # of connection points: 4
#     Node 36, Type 0, BuildingBlock: CEKHIL_clean_sbu_0, # of connection points: 4
#     Node 37, Type 0, BuildingBlock: CEKHIL_clean_sbu_0, # of connection points: 4
#     Node 38, Type 0, BuildingBlock: CEKHIL_clean_sbu_0, # of connection points: 4
#     Node 39, Type 0, BuildingBlock: CEKHIL_clean_sbu_0, # of connection points: 4
#     Node 40, Type 0, BuildingBlock: CEKHIL_clean_sbu_0, # of connection points: 4
#     Node 41, Type 0, BuildingBlock: CEKHIL_clean_sbu_0, # of connection points: 4
#     Node 42, Type 0, BuildingBlock: CEKHIL_clean_sbu_0, # of connection points: 4
#     Node 43, Type 0, BuildingBlock: CEKHIL_clean_sbu_0, # of connection points: 4
#     Node 44, Type 0, BuildingBlock: CEKHIL_clean_sbu_0, # of connection points: 4
#     Node 45, Type 0, BuildingBlock: CEKHIL_clean_sbu_0, # of connection points: 4
#     Node 46, Type 0, BuildingBlock: CEKHIL_clean_sbu_0, # of connection points: 4
#     Node 47, Type 0, BuildingBlock: CEKHIL_clean_sbu_0, # of connection points: 4
#     Edge 48, Type (0, 0), BuildingBlock: XIVTED_clean_linker_0, # of connection points: 2
#     Edge 49, Type (0, 0), BuildingBlock: XIVTED_clean_linker_0, # of connection points: 2
#     Edge 50, Type (0, 0), BuildingBlock: XIVTED_clean_linker_0, # of connection points: 2
#     Edge 51, Type (0, 0), BuildingBlock: XIVTED_clean_linker_0, # of connection points: 2
#     Edge 52, Type (0, 0), BuildingBlock: XIVTED_clean_linker_0, # of connection points: 2
#     Edge 53, Type (0, 0), BuildingBlock: XIVTED_clean_linker_0, # of connection points: 2
#     Edge 54, Type (0, 0), BuildingBlock: XIVTED_clean_linker_0, # of connection points: 2
#     Edge 55, Type (0, 0), BuildingBlock: XIVTED_clean_linker_0, # of connection points: 2
#     Edge 56, Type (0, 0), BuildingBlock: XIVTED_clean_linker_0, # of connection points: 2
#     Edge 57, Type (0, 0), BuildingBlock: XIVTED_clean_linker_0, # of connection points: 2
#     Edge 58, Type (0, 0), BuildingBlock: XIVTED_clean_linker_0, # of connection points: 2
#     Edge 59, Type (0, 0), BuildingBlock: XIVTED_clean_linker_0, # of connection points: 2
#     Edge 60, Type (0, 0), BuildingBlock: XIVTED_clean_linker_0, # of connection points: 2
#     Edge 61, Type (0, 0), BuildingBlock: XIVTED_clean_linker_0, # of connection points: 2
#     Edge 62, Type (0, 0), BuildingBlock: XIVTED_clean_linker_0, # of connection points: 2
#     Edge 63, Type (0, 0), BuildingBlock: XIVTED_clean_linker_0, # of connection points: 2
#     Edge 64, Type (0, 0), BuildingBlock: XIVTED_clean_linker_0, # of connection points: 2
#     Edge 65, Type (0, 0), BuildingBlock: XIVTED_clean_linker_0, # of connection points: 2
#     Edge 66, Type (0, 0), BuildingBlock: XIVTED_clean_linker_0, # of connection points: 2
#     Edge 67, Type (0, 0), BuildingBlock: XIVTED_clean_linker_0, # of connection points: 2
#     Edge 68, Type (0, 0), BuildingBlock: XIVTED_clean_linker_0, # of connection points: 2
#     Edge 69, Type (0, 0), BuildingBlock: XIVTED_clean_linker_0, # of connection points: 2
#     Edge 70, Type (0, 0), BuildingBlock: XIVTED_clean_linker_0, # of connection points: 2
#     Edge 71, Type (0, 0), BuildingBlock: XIVTED_clean_linker_0, # of connection points: 2
#     Edge 72, Type (0, 0), BuildingBlock: XIVTED_clean_linker_0, # of connection points: 2
#     Edge 73, Type (0, 0), BuildingBlock: XIVTED_clean_linker_0, # of connection points: 2
#     Edge 74, Type (0, 0), BuildingBlock: XIVTED_clean_linker_0, # of connection points: 2
#     Edge 75, Type (0, 0), BuildingBlock: XIVTED_clean_linker_0, # of connection points: 2
#     Edge 76, Type (0, 0), BuildingBlock: XIVTED_clean_linker_0, # of connection points: 2
#     Edge 77, Type (0, 0), BuildingBlock: XIVTED_clean_linker_0, # of connection points: 2
#     Edge 78, Type (0, 0), BuildingBlock: XIVTED_clean_linker_0, # of connection points: 2
#     Edge 79, Type (0, 0), BuildingBlock: XIVTED_clean_linker_0, # of connection points: 2
#     Edge 80, Type (0, 0), BuildingBlock: XIVTED_clean_linker_0, # of connection points: 2
#     Edge 81, Type (0, 0), BuildingBlock: XIVTED_clean_linker_0, # of connection points: 2
#     Edge 82, Type (0, 0), BuildingBlock: XIVTED_clean_linker_0, # of connection points: 2
#     Edge 83, Type (0, 0), BuildingBlock: XIVTED_clean_linker_0, # of connection points: 2
#     Edge 84, Type (0, 0), BuildingBlock: XIVTED_clean_linker_0, # of connection points: 2
#     Edge 85, Type (0, 0), BuildingBlock: XIVTED_clean_linker_0, # of connection points: 2
#     Edge 86, Type (0, 0), BuildingBlock: XIVTED_clean_linker_0, # of connection points: 2
#     Edge 87, Type (0, 0), BuildingBlock: XIVTED_clean_linker_0, # of connection points: 2
#     Edge 88, Type (0, 0), BuildingBlock: XIVTED_clean_linker_0, # of connection points: 2
#     Edge 89, Type (0, 0), BuildingBlock: XIVTED_clean_linker_0, # of connection points: 2
#     Edge 90, Type (0, 0), BuildingBlock: XIVTED_clean_linker_0, # of connection points: 2
#     Edge 91, Type (0, 0), BuildingBlock: XIVTED_clean_linker_0, # of connection points: 2
#     Edge 92, Type (0, 0), BuildingBlock: XIVTED_clean_linker_0, # of connection points: 2
#     Edge 93, Type (0, 0), BuildingBlock: XIVTED_clean_linker_0, # of connection points: 2
#     Edge 94, Type (0, 0), BuildingBlock: XIVTED_clean_linker_0, # of connection points: 2
#     Edge 95, Type (0, 0), BuildingBlock: XIVTED_clean_linker_0, # of connection points: 2
#     Edge 96, Type (0, 0), BuildingBlock: XIVTED_clean_linker_0, # of connection points: 2
#     Edge 97, Type (0, 0), BuildingBlock: XIVTED_clean_linker_0, # of connection points: 2
#     Edge 98, Type (0, 0), BuildingBlock: XIVTED_clean_linker_0, # of connection points: 2
#     Edge 99, Type (0, 0), BuildingBlock: XIVTED_clean_linker_0, # of connection points: 2
#     Edge 100, Type (0, 0), BuildingBlock: XIVTED_clean_linker_0, # of connection points: 2
#     Edge 101, Type (0, 0), BuildingBlock: XIVTED_clean_linker_0, # of connection points: 2
#     Edge 102, Type (0, 0), BuildingBlock: XIVTED_clean_linker_0, # of connection points: 2
#     Edge 103, Type (0, 0), BuildingBlock: XIVTED_clean_linker_0, # of connection points: 2
#     Edge 104, Type (0, 0), BuildingBlock: XIVTED_clean_linker_0, # of connection points: 2
#     Edge 105, Type (0, 0), BuildingBlock: XIVTED_clean_linker_0, # of connection points: 2
#     Edge 106, Type (0, 0), BuildingBlock: XIVTED_clean_linker_0, # of connection points: 2
#     Edge 107, Type (0, 0), BuildingBlock: XIVTED_clean_linker_0, # of connection points: 2
#     Edge 108, Type (0, 0), BuildingBlock: XIVTED_clean_linker_0, # of connection points: 2
#     Edge 109, Type (0, 0), BuildingBlock: XIVTED_clean_linker_0, # of connection points: 2
#     Edge 110, Type (0, 0), BuildingBlock: XIVTED_clean_linker_0, # of connection points: 2
#     Edge 111, Type (0, 0), BuildingBlock: XIVTED_clean_linker_0, # of connection points: 2
#     Edge 112, Type (0, 0), BuildingBlock: XIVTED_clean_linker_0, # of connection points: 2
#     Edge 113, Type (0, 0), BuildingBlock: XIVTED_clean_linker_0, # of connection points: 2
#     Edge 114, Type (0, 0), BuildingBlock: XIVTED_clean_linker_0, # of connection points: 2
#     Edge 115, Type (0, 0), BuildingBlock: XIVTED_clean_linker_0, # of connection points: 2
#     Edge 116, Type (0, 0), BuildingBlock: XIVTED_clean_linker_0, # of connection points: 2
#     Edge 117, Type (0, 0), BuildingBlock: XIVTED_clean_linker_0, # of connection points: 2
#     Edge 118, Type (0, 0), BuildingBlock: XIVTED_clean_linker_0, # of connection points: 2
#     Edge 119, Type (0, 0), BuildingBlock: XIVTED_clean_linker_0, # of connection points: 2
#     Edge 120, Type (0, 0), BuildingBlock: XIVTED_clean_linker_0, # of connection points: 2
#     Edge 121, Type (0, 0), BuildingBlock: XIVTED_clean_linker_0, # of connection points: 2
#     Edge 122, Type (0, 0), BuildingBlock: XIVTED_clean_linker_0, # of connection points: 2
#     Edge 123, Type (0, 0), BuildingBlock: XIVTED_clean_linker_0, # of connection points: 2
#     Edge 124, Type (0, 0), BuildingBlock: XIVTED_clean_linker_0, # of connection points: 2
#     Edge 125, Type (0, 0), BuildingBlock: XIVTED_clean_linker_0, # of connection points: 2
#     Edge 126, Type (0, 0), BuildingBlock: XIVTED_clean_linker_0, # of connection points: 2
#     Edge 127, Type (0, 0), BuildingBlock: XIVTED_clean_linker_0, # of connection points: 2
#     Edge 128, Type (0, 0), BuildingBlock: XIVTED_clean_linker_0, # of connection points: 2
#     Edge 129, Type (0, 0), BuildingBlock: XIVTED_clean_linker_0, # of connection points: 2
#     Edge 130, Type (0, 0), BuildingBlock: XIVTED_clean_linker_0, # of connection points: 2
#     Edge 131, Type (0, 0), BuildingBlock: XIVTED_clean_linker_0, # of connection points: 2
#     Edge 132, Type (0, 0), BuildingBlock: XIVTED_clean_linker_0, # of connection points: 2
#     Edge 133, Type (0, 0), BuildingBlock: XIVTED_clean_linker_0, # of connection points: 2
#     Edge 134, Type (0, 0), BuildingBlock: XIVTED_clean_linker_0, # of connection points: 2
#     Edge 135, Type (0, 0), BuildingBlock: XIVTED_clean_linker_0, # of connection points: 2
#     Edge 136, Type (0, 0), BuildingBlock: XIVTED_clean_linker_0, # of connection points: 2
#     Edge 137, Type (0, 0), BuildingBlock: XIVTED_clean_linker_0, # of connection points: 2
#     Edge 138, Type (0, 0), BuildingBlock: XIVTED_clean_linker_0, # of connection points: 2
#     Edge 139, Type (0, 0), BuildingBlock: XIVTED_clean_linker_0, # of connection points: 2
#     Edge 140, Type (0, 0), BuildingBlock: XIVTED_clean_linker_0, # of connection points: 2
#     Edge 141, Type (0, 0), BuildingBlock: XIVTED_clean_linker_0, # of connection points: 2
#     Edge 142, Type (0, 0), BuildingBlock: XIVTED_clean_linker_0, # of connection points: 2
#     Edge 143, Type (0, 0), BuildingBlock: XIVTED_clean_linker_0, # of connection points: 2
# Relax obj value: 0.099
# Max RMSD: 0.122
# Mean RMSD: 0.112
data_MOF--net-ana--node1-CEKHIL_clean_sbu_0--edge1-XIVTED_clean_linker_0
_symmetry_space_group_name_H-M    P1
_symmetry_Int_Tables_number       1
_symmetry_cell_setting            triclinic
loop_
_symmetry_equiv_pos_as_xyz
'x, y, z'
_cell_length_a     65.505355
_cell_length_b     64.309915
_cell_length_c     64.381005
_cell_angle_alpha  90.041457
_cell_angle_beta   90.040826
_cell_angle_gamma 90.302989
loop_
_atom_site_label
_atom_site_type_symbol
_atom_site_fract_x
_atom_site_fract_y
_atom_site_fract_z
_atom_type_partial_charge
Co0 Co 0.1336 0.16691 0.42143 0.0
O1 O 0.16205 0.16844 0.42827 0.0
O2 O 0.14679 0.14121 0.41376 0.0
C3 C 0.13239 0.1985 0.40674 0.0
O4 O 0.10492 0.15993 0.41127 0.0
Co5 Co 0.10204 0.19805 0.43922 0.0
O6 O 0.08514 0.18802 0.41563 0.0
C7 C 0.11844 0.16436 0.46571 0.0
C8 C 0.16352 0.14986 0.42054 0.0
C9 C 0.08849 0.1702 0.40774 0.0
O10 O 0.12738 0.15607 0.44999 0.0
O11 O 0.10871 0.18158 0.46478 0.0
O12 O 0.13858 0.18264 0.39597 0.0
O13 O 0.12835 0.19499 0.42602 0.0
Co14 Co 0.09367 0.8673 0.65924 0.0
O15 O 0.11711 0.86657 0.67739 0.0
O16 O 0.0866 0.87896 0.68566 0.0
C17 C 0.09598 0.8346 0.64749 0.0
O18 O 0.06575 0.87005 0.64596 0.0
Co19 Co 0.09668 0.86311 0.61171 0.0
O20 O 0.06645 0.8634 0.61175 0.0
C21 C 0.10814 0.90265 0.63135 0.0
C22 C 0.10522 0.87493 0.69121 0.0
C23 C 0.05682 0.86768 0.62835 0.0
O24 O 0.10235 0.89537 0.64894 0.0
O25 O 0.108 0.89208 0.61451 0.0
O26 O 0.08758 0.83854 0.66532 0.0
O27 O 0.10438 0.85026 0.63804 0.0
Co28 Co 0.36493 0.81861 0.91406 0.0
O29 O 0.33629 0.81516 0.91846 0.0
O30 O 0.35073 0.84325 0.90477 0.0
C31 C 0.37007 0.78717 0.90015 0.0
O32 O 0.39398 0.82715 0.90672 0.0
Co33 Co 0.39579 0.78988 0.93685 0.0
O34 O 0.41455 0.80048 0.91504 0.0
C35 C 0.37496 0.82336 0.95981 0.0
C36 C 0.3342 0.83363 0.9107 0.0
C37 C 0.41122 0.81769 0.90588 0.0
O38 O 0.36781 0.83055 0.94269 0.0
O39 O 0.38527 0.80652 0.96096 0.0
O40 O 0.36345 0.80226 0.88857 0.0
O41 O 0.37158 0.79112 0.91973 0.0
Co42 Co 0.40429 0.12366 0.15306 0.0
O43 O 0.38197 0.12641 0.17204 0.0
O44 O 0.4124 0.11377 0.18015 0.0
C45 C 0.40163 0.15546 0.13921 0.0
O46 O 0.43114 0.11929 0.13786 0.0
Co47 Co 0.39664 0.1245 0.10594 0.0
O48 O 0.42681 0.12767 0.1043 0.0
C49 C 0.38381 0.08806 0.13002 0.0
C50 C 0.39398 0.11852 0.18595 0.0
C51 C 0.43826 0.12311 0.11964 0.0
O52 O 0.3942 0.09514 0.14542 0.0
O53 O 0.38125 0.09828 0.11317 0.0
O54 O 0.41154 0.15275 0.15646 0.0
O55 O 0.39218 0.13935 0.13184 0.0
Co56 Co 0.11255 0.82828 0.07556 0.0
O57 O 0.08352 0.82921 0.073 0.0
O58 O 0.10061 0.83792 0.10144 0.0
C59 C 0.11917 0.84377 0.04506 0.0
O60 O 0.14282 0.82998 0.08287 0.0
Co61 Co 0.13649 0.80189 0.0431 0.0
O62 O 0.16048 0.81493 0.05685 0.0
C63 C 0.11242 0.78121 0.07543 0.0
C64 C 0.08312 0.83601 0.09193 0.0
C65 C 0.15971 0.82513 0.07385 0.0
O66 O 0.11087 0.79854 0.08526 0.0
O67 O 0.11996 0.77966 0.05717 0.0
O68 O 0.11506 0.85499 0.06131 0.0
O69 O 0.11711 0.82397 0.0474 0.0
Co70 Co 0.41912 0.88346 0.34284 0.0
O71 O 0.43828 0.87763 0.36453 0.0
O72 O 0.44284 0.87018 0.33117 0.0
C73 C 0.41244 0.91635 0.35165 0.0
O74 O 0.40305 0.88771 0.31628 0.0
Co75 Co 0.37388 0.89251 0.35364 0.0
O76 O 0.37215 0.90072 0.32396 0.0
C77 C 0.38857 0.84945 0.35452 0.0
C78 C 0.44988 0.87006 0.35006 0.0
C79 C 0.38581 0.89554 0.31087 0.0
O80 O 0.4057 0.85578 0.34716 0.0
O81 O 0.3742 0.86178 0.35985 0.0
O82 O 0.42875 0.91182 0.34118 0.0
O83 O 0.40204 0.90067 0.35869 0.0
Co84 Co 0.37826 0.16606 0.57704 0.0
O85 O 0.40679 0.17266 0.57661 0.0
O86 O 0.39108 0.15595 0.60216 0.0
C87 C 0.37729 0.15428 0.54426 0.0
O88 O 0.34926 0.15586 0.58243 0.0
Co89 Co 0.34769 0.18734 0.54702 0.0
O90 O 0.32983 0.16361 0.55474 0.0
C91 C 0.36352 0.21005 0.58376 0.0
C92 C 0.40797 0.16341 0.59446 0.0
C93 C 0.33272 0.154 0.57176 0.0
O94 O 0.37239 0.19357 0.59044 0.0
O95 O 0.35401 0.21096 0.5664 0.0
O96 O 0.38297 0.142 0.55918 0.0
O97 O 0.37358 0.17326 0.54941 0.0
Co98 Co 0.09306 0.12583 0.85359 0.0
O99 O 0.0731 0.12951 0.87513 0.0
O100 O 0.06874 0.13805 0.84204 0.0
C101 C 0.10187 0.09312 0.86094 0.0
O102 O 0.10962 0.12341 0.82696 0.0
Co103 Co 0.13877 0.11925 0.86437 0.0
O104 O 0.14014 0.10984 0.83513 0.0
C105 C 0.12174 0.16128 0.86632 0.0
C106 C 0.0613 0.13692 0.86073 0.0
C107 C 0.12668 0.11498 0.82183 0.0
O108 O 0.10461 0.15415 0.85965 0.0
O109 O 0.13731 0.14993 0.86997 0.0
O110 O 0.08531 0.09697 0.85057 0.0
O111 O 0.11109 0.10914 0.86889 0.0
Co112 Co 0.16421 0.39752 0.13302 0.0
O113 O 0.18407 0.37603 0.12907 0.0
O114 O 0.18903 0.40934 0.12168 0.0
C115 C 0.15436 0.38899 0.16524 0.0
O116 O 0.14747 0.42403 0.13584 0.0
Co117 Co 0.11833 0.38582 0.13838 0.0
O118 O 0.11658 0.41491 0.14825 0.0
C119 C 0.13647 0.38563 0.09662 0.0
C120 C 0.19617 0.39051 0.12219 0.0
C121 C 0.13 0.42861 0.14377 0.0
O122 O 0.15334 0.39251 0.10422 0.0
O123 O 0.12088 0.38099 0.1077 0.0
O124 O 0.17107 0.39954 0.16226 0.0
O125 O 0.14578 0.38158 0.14869 0.0
Co126 Co 0.66715 0.09666 0.86491 0.0
O127 O 0.68867 0.11694 0.86295 0.0
O128 O 0.69133 0.0863 0.87848 0.0
C129 C 0.65759 0.09811 0.8315 0.0
O130 O 0.64892 0.07125 0.86887 0.0
Co131 Co 0.62197 0.10817 0.857 0.0
O132 O 0.61854 0.07768 0.85408 0.0
C133 C 0.64034 0.11686 0.89794 0.0
C134 C 0.70002 0.10353 0.87254 0.0
C135 C 0.63137 0.06522 0.86209 0.0
O136 O 0.65731 0.10908 0.89175 0.0
O137 O 0.62454 0.1185 0.88635 0.0
O138 O 0.67323 0.08715 0.8371 0.0
O139 O 0.64946 0.10954 0.84583 0.0
Co140 Co 0.8501 0.90574 0.38401 0.0
O141 O 0.87401 0.92312 0.38455 0.0
O142 O 0.84497 0.93087 0.36864 0.0
C143 C 0.85029 0.89815 0.41793 0.0
O144 O 0.82193 0.89262 0.38099 0.0
Co145 Co 0.85181 0.85901 0.39442 0.0
O146 O 0.82192 0.86214 0.39791 0.0
C147 C 0.86541 0.87322 0.35338 0.0
C148 C 0.86347 0.93628 0.37372 0.0
C149 C 0.81254 0.877 0.38907 0.0
O150 O 0.86013 0.89178 0.3582 0.0
O151 O 0.86392 0.85772 0.36574 0.0
O152 O 0.8425 0.91547 0.41134 0.0
O153 O 0.85923 0.88674 0.40409 0.0
Co154 Co 0.83884 0.08312 0.11737 0.0
O155 O 0.86121 0.06418 0.11936 0.0
O156 O 0.82955 0.05725 0.12951 0.0
C157 C 0.84506 0.09348 0.08479 0.0
O158 O 0.81173 0.09865 0.11689 0.0
Co159 Co 0.84732 0.13015 0.1118 0.0
O160 O 0.81793 0.13075 0.10459 0.0
C161 C 0.85436 0.11083 0.15241 0.0
C162 C 0.84841 0.05122 0.12773 0.0
C163 C 0.8056 0.11625 0.10973 0.0
O164 O 0.84597 0.09403 0.14572 0.0
O165 O 0.85743 0.12686 0.14104 0.0
O166 O 0.83486 0.07643 0.08817 0.0
O167 O 0.85272 0.10256 0.10094 0.0
Co168 Co 0.34764 0.58766 0.61334 0.0
O169 O 0.37079 0.57002 0.60939 0.0
O170 O 0.34181 0.56045 0.62463 0.0
C171 C 0.34766 0.60101 0.58117 0.0
O172 O 0.32012 0.6013 0.61894 0.0
Co173 Co 0.35303 0.63542 0.61103 0.0
O174 O 0.32283 0.63519 0.61074 0.0
C175 C 0.36678 0.61335 0.64824 0.0
C176 C 0.36015 0.55567 0.61856 0.0
C177 C 0.31223 0.61935 0.61592 0.0
O178 O 0.35877 0.59658 0.64103 0.0
O179 O 0.36717 0.63053 0.63824 0.0
O180 O 0.33923 0.58303 0.58478 0.0
O181 O 0.35742 0.60932 0.59658 0.0
Co182 Co 0.16029 0.59437 0.36936 0.0
O183 O 0.18027 0.61637 0.3697 0.0
O184 O 0.18526 0.58432 0.38137 0.0
C185 C 0.15021 0.59871 0.33638 0.0
O186 O 0.14415 0.56737 0.3709 0.0
Co187 Co 0.11437 0.60266 0.36359 0.0
O188 O 0.11241 0.57228 0.35883 0.0
C189 C 0.13307 0.60935 0.40465 0.0
C190 C 0.19256 0.60279 0.37777 0.0
C191 C 0.12666 0.56039 0.36498 0.0
O192 O 0.15021 0.60314 0.39738 0.0
O193 O 0.11684 0.6109 0.39369 0.0
O194 O 0.16661 0.58838 0.34078 0.0
O195 O 0.14132 0.60789 0.35186 0.0
Co196 Co 0.33124 0.40227 0.86344 0.0
O197 O 0.30945 0.38226 0.86256 0.0
O198 O 0.30709 0.41402 0.87583 0.0
C199 C 0.34153 0.39851 0.83051 0.0
O200 O 0.34994 0.42741 0.86588 0.0
Co201 Co 0.37616 0.38869 0.85794 0.0
O202 O 0.38065 0.41884 0.853 0.0
C203 C 0.35634 0.38305 0.89853 0.0
C204 C 0.29825 0.39648 0.87113 0.0
C205 C 0.36789 0.43231 0.85937 0.0
O206 O 0.34033 0.39191 0.8913 0.0
O207 O 0.37205 0.37906 0.88741 0.0
O208 O 0.32582 0.40988 0.83497 0.0
O209 O 0.34904 0.38775 0.8457 0.0
Co210 Co 0.87293 0.83997 0.60367 0.0
O211 O 0.87692 0.8198 0.62534 0.0
O212 O 0.88656 0.8161 0.59249 0.0
C213 C 0.8402 0.84711 0.61021 0.0
O214 O 0.8707 0.85627 0.57681 0.0
Co215 Co 0.86375 0.88616 0.61282 0.0
O216 O 0.85557 0.88683 0.58317 0.0
C217 C 0.90565 0.87098 0.61747 0.0
C218 C 0.88532 0.80835 0.61108 0.0
C219 C 0.86189 0.87297 0.57063 0.0
O220 O 0.89983 0.85316 0.61065 0.0
O221 O 0.89361 0.88633 0.62022 0.0
O222 O 0.84515 0.83058 0.59981 0.0
O223 O 0.85518 0.8576 0.61833 0.0
Co224 Co 0.91714 0.12157 0.33053 0.0
O225 O 0.89321 0.12139 0.31335 0.0
O226 O 0.92406 0.11159 0.30315 0.0
C227 C 0.91223 0.15343 0.34369 0.0
O228 O 0.94555 0.12105 0.34341 0.0
Co229 Co 0.91333 0.12403 0.37852 0.0
O230 O 0.94332 0.12746 0.37774 0.0
C231 C 0.90508 0.0844 0.35726 0.0
C232 C 0.90499 0.11481 0.29858 0.0
C233 C 0.95368 0.12448 0.3613 0.0
O234 O 0.91099 0.09236 0.33995 0.0
O235 O 0.90367 0.09477 0.37415 0.0
O236 O 0.92063 0.15114 0.32557 0.0
O237 O 0.90543 0.13664 0.35237 0.0
Co238 Co 0.62501 0.16123 0.08855 0.0
O239 O 0.62158 0.1787 0.11254 0.0
O240 O 0.61321 0.1873 0.08028 0.0
C241 C 0.65724 0.15131 0.0949 0.0
O242 O 0.6271 0.14825 0.05995 0.0
Co243 Co 0.63054 0.11396 0.09302 0.0
O244 O 0.63451 0.11424 0.06243 0.0
C245 C 0.58992 0.13158 0.09926 0.0
C246 C 0.61439 0.19248 0.09976 0.0
C247 C 0.63145 0.13061 0.05177 0.0
O248 O 0.59698 0.14909 0.09282 0.0
O249 O 0.60124 0.11571 0.10234 0.0
O250 O 0.65334 0.16918 0.08647 0.0
O251 O 0.64151 0.14091 0.10154 0.0
Co252 Co 0.58333 0.87668 0.83915 0.0
O253 O 0.60652 0.88069 0.82155 0.0
O254 O 0.57434 0.88626 0.81228 0.0
C255 C 0.59249 0.84528 0.8509 0.0
O256 O 0.55558 0.8733 0.85272 0.0
Co257 Co 0.58897 0.87382 0.8867 0.0
O258 O 0.55923 0.86797 0.88707 0.0
C259 C 0.59425 0.91394 0.86586 0.0
C260 C 0.59357 0.88599 0.80726 0.0
C261 C 0.54823 0.86944 0.87082 0.0
O262 O 0.58619 0.90606 0.84943 0.0
O263 O 0.5986 0.90314 0.88194 0.0
O264 O 0.58329 0.84716 0.83314 0.0
O265 O 0.59751 0.86248 0.8601 0.0
Co266 Co 0.88174 0.15045 0.90803 0.0
O267 O 0.88461 0.12882 0.92838 0.0
O268 O 0.86782 0.15838 0.93314 0.0
C269 C 0.91454 0.15103 0.89796 0.0
O270 O 0.87649 0.1768 0.89152 0.0
Co271 Co 0.88889 0.14227 0.86139 0.0
O272 O 0.88896 0.17301 0.85929 0.0
C273 C 0.85006 0.12918 0.88024 0.0
C274 C 0.87398 0.14069 0.94054 0.0
C275 C 0.88139 0.18421 0.87365 0.0
O276 O 0.85587 0.13733 0.89747 0.0
O277 O 0.86128 0.12868 0.86398 0.0
O278 O 0.90883 0.16078 0.91464 0.0
O279 O 0.90073 0.13966 0.88899 0.0
Co280 Co 0.57425 0.10409 0.65275 0.0
O281 O 0.55447 0.10885 0.63135 0.0
O282 O 0.55159 0.11953 0.66401 0.0
C283 C 0.57935 0.07027 0.64606 0.0
O284 O 0.59115 0.10153 0.6791 0.0
Co285 Co 0.61864 0.09112 0.64147 0.0
O286 O 0.62074 0.08558 0.67167 0.0
C287 C 0.60525 0.13433 0.63482 0.0
C288 C 0.54392 0.11851 0.64539 0.0
C289 C 0.60798 0.09293 0.68466 0.0
O290 O 0.58868 0.13061 0.64488 0.0
O291 O 0.6183 0.12026 0.63037 0.0
O292 O 0.56379 0.07601 0.65715 0.0
O293 O 0.58991 0.08509 0.63779 0.0
Co294 Co 0.62462 0.84629 0.40865 0.0
O295 O 0.62245 0.86769 0.42944 0.0
O296 O 0.63554 0.8363 0.43444 0.0
C297 C 0.59289 0.84909 0.39611 0.0
O298 O 0.62829 0.81982 0.39212 0.0
Co299 Co 0.62203 0.85518 0.36179 0.0
O300 O 0.61681 0.82475 0.35971 0.0
C301 C 0.66036 0.8642 0.38382 0.0
C302 C 0.63047 0.85425 0.44207 0.0
C303 C 0.62255 0.81284 0.37437 0.0
O304 O 0.65233 0.85654 0.40033 0.0
O305 O 0.65051 0.86619 0.36676 0.0
O306 O 0.59643 0.83873 0.41303 0.0
O307 O 0.60828 0.85923 0.38835 0.0
Co308 Co 0.91514 0.87862 0.16412 0.0
O309 O 0.93278 0.87962 0.14023 0.0
O310 O 0.94116 0.86655 0.17091 0.0
C311 C 0.90379 0.91151 0.16177 0.0
O312 O 0.90204 0.87548 0.19247 0.0
Co313 Co 0.8681 0.88454 0.16105 0.0
O314 O 0.86842 0.88237 0.19172 0.0
C315 C 0.88709 0.84585 0.14602 0.0
C316 C 0.94643 0.87085 0.15194 0.0
C317 C 0.88466 0.87757 0.20144 0.0
O318 O 0.9041 0.85079 0.15481 0.0
O319 O 0.8718 0.85813 0.14511 0.0
O320 O 0.92136 0.90772 0.17036 0.0
O321 O 0.8946 0.89574 0.15356 0.0
Co322 Co 0.82901 0.58925 0.85809 0.0
O323 O 0.81139 0.61274 0.86141 0.0
O324 O 0.8038 0.58051 0.87107 0.0
C325 C 0.83834 0.59563 0.82515 0.0
O326 O 0.84309 0.56112 0.85664 0.0
Co327 Co 0.87551 0.59599 0.85032 0.0
O328 O 0.87449 0.56604 0.84337 0.0
C329 C 0.85893 0.60145 0.89238 0.0
C330 C 0.79849 0.59995 0.86991 0.0
C331 C 0.85998 0.55415 0.84925 0.0
O332 O 0.84135 0.59511 0.88608 0.0
O333 O 0.87434 0.60393 0.88041 0.0
O334 O 0.82105 0.5864 0.82901 0.0
O335 O 0.84815 0.60256 0.84114 0.0
Co336 Co 0.32889 0.90775 0.12332 0.0
O337 O 0.34913 0.92921 0.12528 0.0
O338 O 0.31608 0.93368 0.13125 0.0
C339 C 0.33946 0.89506 0.09274 0.0
O340 O 0.3036 0.88904 0.12195 0.0
Co341 Co 0.34273 0.8615 0.12313 0.0
O342 O 0.31386 0.85632 0.11547 0.0
C343 C 0.34579 0.88649 0.1613 0.0
C344 C 0.33438 0.94161 0.13023 0.0
C345 C 0.29984 0.86986 0.11743 0.0
O346 O 0.33415 0.90036 0.15321 0.0
O347 O 0.35251 0.87084 0.15115 0.0
O348 O 0.32754 0.91114 0.09326 0.0
O349 O 0.34594 0.88856 0.1105 0.0
Co350 Co 0.17103 0.08868 0.63906 0.0
O351 O 0.19055 0.11108 0.63769 0.0
O352 O 0.19484 0.07967 0.6241 0.0
C353 C 0.16353 0.0923 0.67285 0.0
O354 O 0.1554 0.06144 0.63818 0.0
Co355 Co 0.12541 0.09603 0.6496 0.0
O356 O 0.12292 0.0653 0.64874 0.0
C357 C 0.14106 0.10714 0.60823 0.0
C358 C 0.20208 0.09821 0.62755 0.0
C359 C 0.13768 0.05406 0.6426 0.0
O360 O 0.15805 0.09813 0.61241 0.0
O361 O 0.12683 0.10957 0.6216 0.0
O362 O 0.17979 0.08227 0.66719 0.0
O363 O 0.15341 0.10124 0.65816 0.0
Co364 Co 0.16059 0.91591 0.87503 0.0
O365 O 0.13918 0.93535 0.87026 0.0
O366 O 0.17199 0.94139 0.86388 0.0
C367 C 0.1507 0.90664 0.90707 0.0
O368 O 0.18678 0.8995 0.87896 0.0
Co369 Co 0.14934 0.86917 0.88135 0.0
O370 O 0.17806 0.86778 0.89093 0.0
C371 C 0.14604 0.88828 0.84 0.0
C372 C 0.15327 0.94809 0.86399 0.0
C373 C 0.19137 0.88175 0.88689 0.0
O374 O 0.15633 0.90416 0.84633 0.0
O375 O 0.13998 0.87367 0.85204 0.0
O376 O 0.16143 0.92345 0.90438 0.0
O377 O 0.14467 0.89739 0.89034 0.0
Co378 Co 0.66745 0.41718 0.37623 0.0
O379 O 0.64389 0.43458 0.37579 0.0
O380 O 0.67512 0.44466 0.3668 0.0
C381 C 0.66156 0.40359 0.4078 0.0
O382 O 0.6954 0.40351 0.37552 0.0
Co383 Co 0.66129 0.36917 0.3779 0.0
O384 O 0.69144 0.36902 0.38038 0.0
C385 C 0.65097 0.39238 0.34017 0.0
C386 C 0.65594 0.44924 0.36929 0.0
C387 C 0.70266 0.38511 0.37793 0.0
O388 O 0.66126 0.40808 0.34692 0.0
O389 O 0.64719 0.37626 0.35117 0.0
O390 O 0.67052 0.42159 0.40611 0.0
O391 O 0.65497 0.39554 0.3907 0.0
Co392 Co 0.8233 0.40762 0.63342 0.0
O393 O 0.80657 0.38313 0.63562 0.0
O394 O 0.7968 0.4129 0.62144 0.0
C395 C 0.83512 0.40722 0.66617 0.0
O396 O 0.83592 0.43624 0.62897 0.0
Co397 Co 0.87029 0.40472 0.63796 0.0
O398 O 0.86977 0.4353 0.635 0.0
C399 C 0.85092 0.39137 0.59897 0.0
C400 C 0.79247 0.39376 0.62632 0.0
C401 C 0.85354 0.44506 0.63034 0.0
O402 O 0.83359 0.39767 0.60575 0.0
O403 O 0.86731 0.39174 0.60979 0.0
O404 O 0.81738 0.41512 0.66196 0.0
O405 O 0.84428 0.3981 0.6509 0.0
Co406 Co 0.67 0.59259 0.13686 0.0
O407 O 0.68793 0.61607 0.13366 0.0
O408 O 0.69434 0.58416 0.12232 0.0
C409 C 0.66251 0.59774 0.17048 0.0
O410 O 0.65558 0.56456 0.1377 0.0
Co411 Co 0.62409 0.59908 0.14725 0.0
O412 O 0.62274 0.5683 0.14732 0.0
C413 C 0.63935 0.60842 0.10533 0.0
C414 C 0.70014 0.60346 0.12405 0.0
C415 C 0.63784 0.55708 0.14204 0.0
O416 O 0.6564 0.59972 0.10982 0.0
O417 O 0.62521 0.61146 0.11869 0.0
O418 O 0.6793 0.58839 0.16529 0.0
O419 O 0.65196 0.60533 0.15536 0.0
Co420 Co 0.63522 0.67446 0.91985 0.0
O421 O 0.6641 0.67544 0.92507 0.0
O422 O 0.64759 0.64885 0.91081 0.0
C423 C 0.63334 0.70648 0.90612 0.0
O424 O 0.60607 0.66785 0.91105 0.0
Co425 Co 0.60447 0.70532 0.93965 0.0
O426 O 0.58626 0.69563 0.91694 0.0
C427 C 0.62108 0.67033 0.9644 0.0
C428 C 0.66481 0.65704 0.91678 0.0
C429 C 0.58935 0.67795 0.90864 0.0
O430 O 0.63019 0.66282 0.94838 0.0
O431 O 0.61119 0.68747 0.96422 0.0
O432 O 0.63898 0.69091 0.8946 0.0
O433 O 0.6303 0.70244 0.92547 0.0
Co434 Co 0.59236 0.37058 0.16181 0.0
O435 O 0.61536 0.37075 0.18041 0.0
O436 O 0.58447 0.38258 0.18798 0.0
C437 C 0.59577 0.33776 0.15065 0.0
O438 O 0.56476 0.37233 0.14731 0.0
Co439 Co 0.59785 0.36547 0.1144 0.0
O440 O 0.56805 0.35995 0.11486 0.0
C441 C 0.60785 0.40553 0.13394 0.0
C442 C 0.60316 0.37922 0.19384 0.0
C443 C 0.55707 0.36594 0.13003 0.0
O444 O 0.60088 0.39862 0.15124 0.0
O445 O 0.60883 0.3946 0.11735 0.0
O446 O 0.58679 0.34165 0.16821 0.0
O447 O 0.60411 0.35354 0.14141 0.0
Co448 Co 0.87205 0.32485 0.41375 0.0
O449 O 0.84319 0.32409 0.41 0.0
O450 O 0.86287 0.35128 0.40254 0.0
C451 C 0.87791 0.29361 0.39948 0.0
O452 O 0.90272 0.33012 0.41455 0.0
Co453 Co 0.89187 0.29159 0.44258 0.0
O454 O 0.91734 0.30232 0.42968 0.0
C455 C 0.86853 0.32592 0.46065 0.0
C456 C 0.84478 0.34276 0.40267 0.0
C457 C 0.91852 0.31938 0.41962 0.0
O458 O 0.86861 0.33537 0.44304 0.0
O459 O 0.87499 0.30735 0.46317 0.0
O460 O 0.87578 0.30982 0.38767 0.0
O461 O 0.87439 0.29651 0.41896 0.0
Co462 Co 0.90703 0.62516 0.65143 0.0
O463 O 0.88357 0.62617 0.66923 0.0
O464 O 0.91277 0.61062 0.67695 0.0
C465 C 0.90707 0.65888 0.64276 0.0
O466 O 0.93473 0.62166 0.63745 0.0
Co467 Co 0.90293 0.63399 0.60447 0.0
O468 O 0.93308 0.636 0.6057 0.0
C469 C 0.88849 0.59407 0.6209 0.0
C470 C 0.89431 0.61559 0.68242 0.0
C471 C 0.94323 0.62818 0.62064 0.0
O472 O 0.89609 0.59894 0.63864 0.0
O473 O 0.88873 0.6062 0.60516 0.0
O474 O 0.91523 0.6528 0.66011 0.0
O475 O 0.89749 0.64474 0.63217 0.0
Co476 Co 0.61842 0.32136 0.57293 0.0
O477 O 0.58947 0.31729 0.57102 0.0
O478 O 0.60572 0.32877 0.59901 0.0
C479 C 0.62228 0.33784 0.54245 0.0
O480 O 0.6479 0.32843 0.58022 0.0
Co481 Co 0.64745 0.30078 0.54056 0.0
O482 O 0.66861 0.31805 0.5543 0.0
C483 C 0.62865 0.2753 0.57349 0.0
C484 C 0.58854 0.32385 0.59006 0.0
C485 C 0.66553 0.32739 0.57147 0.0
O486 O 0.62176 0.29172 0.58245 0.0
O487 O 0.63781 0.27557 0.55594 0.0
O488 O 0.61633 0.34811 0.55874 0.0
O489 O 0.62366 0.31797 0.54468 0.0
Co490 Co 0.9101 0.37285 0.84518 0.0
O491 O 0.92884 0.36628 0.86705 0.0
O492 O 0.93404 0.35985 0.8336 0.0
C493 C 0.90334 0.40557 0.85465 0.0
O494 O 0.89456 0.37829 0.81841 0.0
Co495 Co 0.86477 0.38123 0.856 0.0
O496 O 0.86403 0.39168 0.82698 0.0
C497 C 0.87967 0.33841 0.85617 0.0
C498 C 0.94077 0.35923 0.85261 0.0
C499 C 0.87765 0.3872 0.81358 0.0
O500 O 0.89654 0.34506 0.84845 0.0
O501 O 0.86533 0.35049 0.86209 0.0
O502 O 0.9199 0.40116 0.84455 0.0
O503 O 0.89282 0.38974 0.8612 0.0
Co504 Co 0.87669 0.66356 0.07027 0.0
O505 O 0.90573 0.66729 0.07285 0.0
O506 O 0.88556 0.65329 0.09684 0.0
C507 C 0.87672 0.6501 0.03813 0.0
O508 O 0.84651 0.65639 0.07311 0.0
Co509 Co 0.85144 0.68717 0.03684 0.0
O510 O 0.82847 0.66957 0.04648 0.0
C511 C 0.86739 0.70953 0.07348 0.0
C512 C 0.90381 0.65873 0.09103 0.0
C513 C 0.82975 0.65864 0.06291 0.0
O514 O 0.87247 0.69225 0.08203 0.0
O515 O 0.86036 0.71083 0.05497 0.0
O516 O 0.88066 0.63829 0.05399 0.0
O517 O 0.87488 0.6697 0.04198 0.0
Co518 Co 0.58384 0.62206 0.34816 0.0
O519 O 0.56206 0.62454 0.36791 0.0
O520 O 0.56021 0.63388 0.33476 0.0
C521 C 0.59303 0.58959 0.35635 0.0
O522 O 0.60259 0.62057 0.32309 0.0
Co523 Co 0.62871 0.6165 0.3629 0.0
O524 O 0.63325 0.60886 0.3334 0.0
C525 C 0.61019 0.65803 0.36406 0.0
C526 C 0.5513 0.63188 0.35269 0.0
C527 C 0.62056 0.61359 0.31917 0.0
O528 O 0.59416 0.65071 0.35508 0.0
O529 O 0.62511 0.64668 0.36994 0.0
O530 O 0.57737 0.5928 0.3444 0.0
O531 O 0.601 0.60595 0.36486 0.0
Co532 Co 0.66069 0.89157 0.63135 0.0
O533 O 0.68127 0.87059 0.63048 0.0
O534 O 0.6854 0.90308 0.61956 0.0
C535 C 0.65046 0.88623 0.66401 0.0
O536 O 0.64296 0.91749 0.63075 0.0
Co537 Co 0.61522 0.8786 0.63641 0.0
O538 O 0.61187 0.90852 0.64269 0.0
C539 C 0.63478 0.87453 0.59561 0.0
C540 C 0.69313 0.88472 0.62257 0.0
C541 C 0.62499 0.92219 0.63732 0.0
O542 O 0.65102 0.88295 0.60304 0.0
O543 O 0.61889 0.87054 0.60649 0.0
O544 O 0.66674 0.89716 0.66018 0.0
O545 O 0.64242 0.87669 0.64824 0.0
Co546 Co 0.37113 0.33473 0.08769 0.0
O547 O 0.37086 0.31479 0.10998 0.0
O548 O 0.38289 0.30909 0.07823 0.0
C549 C 0.33897 0.34592 0.09194 0.0
O550 O 0.37299 0.35021 0.06039 0.0
Co551 Co 0.367 0.38177 0.09485 0.0
O552 O 0.36148 0.38271 0.06447 0.0
C553 C 0.40622 0.36174 0.10383 0.0
C554 C 0.37919 0.30211 0.09678 0.0
C555 C 0.36705 0.36766 0.05295 0.0
O556 O 0.3989 0.34481 0.09624 0.0
O557 O 0.39556 0.37824 0.10605 0.0
O558 O 0.34267 0.3288 0.08193 0.0
O559 O 0.35457 0.35479 0.10071 0.0
Co560 Co 0.42134 0.61951 0.82883 0.0
O561 O 0.39832 0.61746 0.8106 0.0
O562 O 0.43016 0.60978 0.80189 0.0
C563 C 0.41365 0.6511 0.8411 0.0
O564 O 0.44901 0.62121 0.84312 0.0
Co565 Co 0.41481 0.62236 0.87652 0.0
O566 O 0.4446 0.62763 0.87724 0.0
C567 C 0.40803 0.58268 0.85498 0.0
C568 C 0.41116 0.61181 0.79637 0.0
C569 C 0.45596 0.62537 0.86136 0.0
O570 O 0.41659 0.59014 0.8386 0.0
O571 O 0.40409 0.59365 0.87107 0.0
O572 O 0.42307 0.64919 0.82347 0.0
O573 O 0.40765 0.634 0.84973 0.0
Co574 Co 0.13111 0.6562 0.59445 0.0
O575 O 0.12752 0.67492 0.61747 0.0
O576 O 0.11949 0.68179 0.58471 0.0
C577 C 0.16319 0.64664 0.60192 0.0
O578 O 0.13319 0.64195 0.56652 0.0
Co579 Co 0.1361 0.60934 0.60058 0.0
O580 O 0.13912 0.60778 0.56991 0.0
C581 C 0.09566 0.62738 0.606 0.0
C582 C 0.12044 0.68799 0.60389 0.0
C583 C 0.13658 0.62392 0.55879 0.0
O584 O 0.10304 0.64453 0.59907 0.0
O585 O 0.10671 0.61145 0.60963 0.0
O586 O 0.15939 0.66392 0.5923 0.0
O587 O 0.14738 0.63639 0.60869 0.0
Co588 Co 0.08997 0.36983 0.3394 0.0
O589 O 0.11086 0.37623 0.31978 0.0
O590 O 0.07768 0.38015 0.31401 0.0
C591 C 0.10213 0.33859 0.34835 0.0
O592 O 0.06433 0.36405 0.35646 0.0
Co593 Co 0.10269 0.36524 0.3857 0.0
O594 O 0.07458 0.35397 0.3883 0.0
C595 C 0.10137 0.40667 0.36669 0.0
C596 C 0.09636 0.38159 0.30722 0.0
C597 C 0.06067 0.35662 0.37469 0.0
O598 O 0.09221 0.39879 0.35086 0.0
O599 O 0.10852 0.39568 0.38156 0.0
O600 O 0.09098 0.3406 0.33181 0.0
O601 O 0.10724 0.3557 0.35758 0.0
Co602 Co 0.37558 0.6611 0.40366 0.0
O603 O 0.37656 0.63862 0.42316 0.0
O604 O 0.36579 0.67052 0.43028 0.0
C605 C 0.40679 0.65658 0.39022 0.0
O606 O 0.37294 0.68824 0.38805 0.0
Co607 Co 0.37685 0.6527 0.35649 0.0
O608 O 0.38026 0.68338 0.35433 0.0
C609 C 0.33959 0.64308 0.37987 0.0
C610 C 0.36914 0.65162 0.43658 0.0
C611 C 0.37631 0.69522 0.36969 0.0
O612 O 0.34716 0.65265 0.3956 0.0
O613 O 0.34966 0.63958 0.3632 0.0
O614 O 0.40446 0.66686 0.40743 0.0
O615 O 0.39061 0.64769 0.38277 0.0
Co616 Co 0.06845 0.60727 0.1573 0.0
O617 O 0.04676 0.60598 0.13728 0.0
O618 O 0.04466 0.62094 0.16833 0.0
C619 C 0.07816 0.57401 0.15436 0.0
O620 O 0.08695 0.6105 0.18254 0.0
Co621 Co 0.11354 0.6001 0.14452 0.0
O622 O 0.11744 0.5967 0.17481 0.0
C623 C 0.09445 0.64047 0.13595 0.0
C624 C 0.03597 0.61606 0.15082 0.0
C625 C 0.1047 0.60389 0.18788 0.0
O626 O 0.07813 0.63443 0.14525 0.0
O627 O 0.11008 0.62893 0.13327 0.0
O628 O 0.06259 0.57887 0.16588 0.0
O629 O 0.08596 0.58896 0.14351 0.0
Co630 Co 0.11639 0.35152 0.91197 0.0
O631 O 0.11404 0.37435 0.93127 0.0
O632 O 0.12971 0.34444 0.93747 0.0
C633 C 0.08386 0.3509 0.90121 0.0
O634 O 0.1209 0.32399 0.89748 0.0
Co635 Co 0.11009 0.35602 0.86463 0.0
O636 O 0.11164 0.32522 0.86391 0.0
C637 C 0.14863 0.37034 0.88331 0.0
C638 C 0.12406 0.36257 0.94412 0.0
C639 C 0.11762 0.31526 0.87986 0.0
O640 O 0.14275 0.36318 0.90095 0.0
O641 O 0.13744 0.37006 0.86702 0.0
O642 O 0.08899 0.34239 0.91875 0.0
O643 O 0.09804 0.36137 0.89178 0.0
Co644 Co 0.42307 0.38204 0.65158 0.0
O645 O 0.44129 0.37512 0.62942 0.0
O646 O 0.44618 0.36687 0.6625 0.0
C647 C 0.41848 0.41526 0.64227 0.0
O648 O 0.40789 0.38709 0.67863 0.0
Co649 Co 0.37855 0.39592 0.64211 0.0
O650 O 0.37898 0.40447 0.67168 0.0
C651 C 0.38969 0.35155 0.63909 0.0
C652 C 0.45259 0.36628 0.64337 0.0
C653 C 0.39201 0.39723 0.68446 0.0
O654 O 0.40747 0.35544 0.64672 0.0
O655 O 0.37668 0.3657 0.63476 0.0
O656 O 0.43433 0.4102 0.65328 0.0
O657 O 0.4071 0.40014 0.63593 0.0
Co658 Co 0.33201 0.09585 0.36317 0.0
O659 O 0.31244 0.11736 0.36789 0.0
O660 O 0.30836 0.0843 0.37697 0.0
C661 C 0.33928 0.10363 0.33001 0.0
O662 O 0.34866 0.06949 0.36038 0.0
Co663 Co 0.37725 0.10788 0.35364 0.0
O664 O 0.37978 0.07769 0.34795 0.0
C665 C 0.36129 0.11214 0.39602 0.0
C666 C 0.30117 0.10312 0.37652 0.0
C667 C 0.36633 0.06437 0.35342 0.0
O668 O 0.34507 0.10212 0.39073 0.0
O669 O 0.37506 0.11783 0.38309 0.0
O670 O 0.32305 0.09279 0.33442 0.0
O671 O 0.349 0.11131 0.3457 0.0
H672 H 0.09908 0.30142 0.32829 0.0
H673 H 0.12752 0.23474 0.4276 0.0
H674 H 0.11844 0.32906 0.38621 0.0
H675 H 0.13026 0.20934 0.36559 0.0
H676 H 0.12156 0.26911 0.41298 0.0
H677 H 0.10793 0.26714 0.34191 0.0
C678 C 0.10523 0.30025 0.34387 0.0
C679 C 0.10797 0.31803 0.35622 0.0
C680 C 0.12358 0.25606 0.40256 0.0
C681 C 0.11796 0.27899 0.37184 0.0
C682 C 0.12688 0.23643 0.41087 0.0
C683 C 0.12933 0.21923 0.39774 0.0
C684 C 0.12241 0.25847 0.38095 0.0
C685 C 0.12847 0.22227 0.37621 0.0
C686 C 0.11035 0.28073 0.35157 0.0
C687 C 0.11608 0.31572 0.37621 0.0
N688 N 0.1249 0.24156 0.36844 0.0
N689 N 0.12064 0.29649 0.38349 0.0
H690 H 0.03358 0.88114 0.59573 0.0
H691 H 0.9287 0.84623 0.64179 0.0
H692 H 0.0294 0.85992 0.65918 0.0
H693 H 0.93188 0.90063 0.60284 0.0
H694 H 0.9659 0.84752 0.64594 0.0
H695 H 0.99628 0.88487 0.59497 0.0
C696 C 0.0248 0.87725 0.60945 0.0
C697 C 0.0345 0.87013 0.62752 0.0
C698 C 0.95841 0.85933 0.63673 0.0
C699 C 0.99216 0.87418 0.62666 0.0
C700 C 0.9373 0.8586 0.63437 0.0
C701 C 0.92742 0.87345 0.62211 0.0
C702 C 0.96969 0.87458 0.62616 0.0
C703 C 0.93907 0.88909 0.6126 0.0
C704 C 0.00363 0.87956 0.60906 0.0
C705 C 0.02249 0.86548 0.64496 0.0
N706 N 0.95976 0.88906 0.61452 0.0
N707 N 0.00188 0.8673 0.64401 0.0
H708 H 0.37919 0.75206 0.92153 0.0
H709 H 0.41712 0.68898 0.8224 0.0
H710 H 0.3768 0.77713 0.8594 0.0
H711 H 0.3992 0.65957 0.87987 0.0
H712 H 0.40707 0.72264 0.83677 0.0
H713 H 0.39104 0.71907 0.90739 0.0
C714 C 0.38117 0.7506 0.90489 0.0
C715 C 0.37695 0.76725 0.89156 0.0
C716 C 0.40539 0.7088 0.84621 0.0
C717 C 0.39062 0.72968 0.87536 0.0
C718 C 0.41121 0.68965 0.83809 0.0
C719 C 0.4089 0.67153 0.84998 0.0
C720 C 0.39746 0.7098 0.86642 0.0
C721 C 0.40113 0.67319 0.87018 0.0
C722 C 0.38789 0.73177 0.89685 0.0
C723 C 0.37978 0.76458 0.87016 0.0
N724 N 0.3957 0.69204 0.87779 0.0
N725 N 0.38653 0.74609 0.86268 0.0
H726 H 0.46752 0.10518 0.14435 0.0
H727 H 0.56029 0.15658 0.08338 0.0
H728 H 0.46008 0.14037 0.08778 0.0
H729 H 0.56857 0.1024 0.122 0.0
H730 H 0.5235 0.15349 0.08803 0.0
H731 H 0.50463 0.10629 0.13933 0.0
C732 C 0.47366 0.11308 0.13086 0.0
C733 C 0.46065 0.12272 0.11646 0.0
C734 C 0.53335 0.14224 0.09545 0.0
C735 C 0.50299 0.12422 0.11083 0.0
C736 C 0.55439 0.14405 0.09292 0.0
C737 C 0.56758 0.12972 0.10234 0.0
C738 C 0.52533 0.12618 0.10776 0.0
C739 C 0.55896 0.11374 0.11441 0.0
C740 C 0.49481 0.11363 0.12799 0.0
C741 C 0.46947 0.13266 0.09924 0.0
N742 N 0.53835 0.11247 0.1169 0.0
N743 N 0.49007 0.13331 0.09701 0.0
H744 H 0.06432 0.6619 0.11628 0.0
H745 H 0.12027 0.77072 0.11556 0.0
H746 H 0.12636 0.66759 0.13819 0.0
H747 H 0.09213 0.74782 0.05937 0.0
H748 H 0.11439 0.7366 0.13181 0.0
H749 H 0.06653 0.69758 0.10253 0.0
C750 C 0.07831 0.67075 0.11832 0.0
C751 C 0.09527 0.66191 0.12816 0.0
C752 C 0.10929 0.73927 0.11603 0.0
C753 C 0.09757 0.70243 0.11325 0.0
C754 C 0.1125 0.75863 0.10683 0.0
C755 C 0.10672 0.76189 0.08613 0.0
C756 C 0.0997 0.72343 0.1046 0.0
C757 C 0.09688 0.74575 0.07534 0.0
C758 C 0.07953 0.69095 0.11049 0.0
C759 C 0.11306 0.67388 0.13047 0.0
N760 N 0.09357 0.72715 0.08475 0.0
N761 N 0.11372 0.69368 0.12319 0.0
H762 H 0.46353 0.85577 0.3871 0.0
H763 H 0.58059 0.86692 0.35937 0.0
H764 H 0.4832 0.86854 0.32444 0.0
H765 H 0.5584 0.83181 0.41191 0.0
H766 H 0.54546 0.86879 0.34606 0.0
H767 H 0.49867 0.84783 0.39657 0.0
C768 C 0.47528 0.85669 0.37529 0.0
C769 C 0.47057 0.86287 0.35501 0.0
C770 C 0.5484 0.8605 0.36037 0.0
C771 C 0.51083 0.85417 0.36578 0.0
C772 C 0.56837 0.85952 0.36801 0.0
C773 C 0.57233 0.84941 0.38687 0.0
C774 C 0.53241 0.85153 0.37188 0.0
C775 C 0.55603 0.83992 0.39739 0.0
C776 C 0.49531 0.85212 0.38067 0.0
C777 C 0.48629 0.86375 0.34025 0.0
N778 N 0.53678 0.84141 0.38987 0.0
N779 N 0.50587 0.85975 0.346 0.0
H780 H 0.39119 0.21934 0.61444 0.0
H781 H 0.35357 0.33691 0.6234 0.0
H782 H 0.3397 0.2446 0.58116 0.0
H783 H 0.41269 0.31635 0.64478 0.0
H784 H 0.3452 0.3013 0.61382 0.0
H785 H 0.39599 0.253 0.63162 0.0
C786 C 0.38073 0.23186 0.61096 0.0
C787 C 0.36518 0.22928 0.59614 0.0
C788 C 0.35997 0.30456 0.62071 0.0
C789 C 0.3706 0.26765 0.61567 0.0
C790 C 0.36479 0.32492 0.62619 0.0
C791 C 0.38401 0.32973 0.63464 0.0
C792 C 0.37442 0.28883 0.62367 0.0
C793 C 0.39778 0.31341 0.63811 0.0
C794 C 0.38354 0.25106 0.62069 0.0
C795 C 0.35207 0.246 0.59224 0.0
N796 N 0.39276 0.29368 0.63245 0.0
N797 N 0.35516 0.2645 0.60186 0.0
H798 H 0.0449 0.14617 0.89843 0.0
H799 H 0.93013 0.13679 0.8611 0.0
H800 H 0.02935 0.14027 0.83355 0.0
H801 H 0.94743 0.16716 0.91832 0.0
H802 H 0.96618 0.13632 0.85075 0.0
H803 H 0.00898 0.15238 0.90637 0.0
C804 C 0.03391 0.14635 0.88584 0.0
C805 C 0.04003 0.14264 0.86532 0.0
C806 C 0.96201 0.14326 0.86547 0.0
C807 C 0.99893 0.14941 0.87432 0.0
C808 C 0.94149 0.14346 0.87141 0.0
C809 C 0.93585 0.15188 0.89065 0.0
C810 C 0.97691 0.15123 0.87905 0.0
C811 C 0.95113 0.16044 0.90338 0.0
C812 C 0.01344 0.14994 0.89037 0.0
C813 C 0.02522 0.14311 0.84957 0.0
N814 N 0.97099 0.15967 0.89746 0.0
N815 N 0.00525 0.14615 0.85443 0.0
H816 H 0.41658 0.1125 0.22129 0.0
H817 H 0.31958 0.09406 0.29387 0.0
H818 H 0.35459 0.11668 0.19897 0.0
H819 H 0.37716 0.11666 0.31774 0.0
H820 H 0.3333 0.09654 0.25858 0.0
H821 H 0.40342 0.10811 0.25676 0.0
C822 C 0.40024 0.11237 0.22385 0.0
C823 C 0.38663 0.11506 0.20727 0.0
C824 C 0.34289 0.10094 0.27158 0.0
C825 C 0.37159 0.10989 0.24746 0.0
C826 C 0.3351 0.09951 0.29167 0.0
C827 C 0.34724 0.10524 0.30869 0.0
C828 C 0.36305 0.10784 0.26856 0.0
C829 C 0.36726 0.11218 0.30502 0.0
C830 C 0.39277 0.10997 0.24403 0.0
C831 C 0.3656 0.11481 0.21137 0.0
N832 N 0.3746 0.1132 0.28533 0.0
N833 N 0.35871 0.1122 0.23105 0.0
H834 H 0.09605 0.17199 0.50066 0.0
H835 H 0.16488 0.10092 0.57374 0.0
H836 H 0.1449 0.13359 0.4774 0.0
H837 H 0.10913 0.13035 0.59387 0.0
H838 H 0.15843 0.1133 0.53849 0.0
H839 H 0.10098 0.15711 0.53505 0.0
C840 C 0.10775 0.16034 0.50275 0.0
C841 C 0.12016 0.15411 0.48614 0.0
C842 C 0.14759 0.11697 0.55064 0.0
C843 C 0.12598 0.13711 0.52557 0.0
C844 C 0.1513 0.10999 0.57079 0.0
C845 C 0.13755 0.11464 0.58684 0.0
C846 C 0.1301 0.1288 0.54654 0.0
C847 C 0.12017 0.12638 0.58204 0.0
C848 C 0.11054 0.15182 0.52241 0.0
C849 C 0.13498 0.13884 0.48976 0.0
N850 N 0.11699 0.13311 0.56234 0.0
N851 N 0.13759 0.13098 0.50915 0.0
H852 H 0.1128 0.86909 0.82338 0.0
H853 H 0.14446 0.87839 0.70573 0.0
H854 H 0.1665 0.90436 0.8064 0.0
H855 H 0.0815 0.87974 0.72541 0.0
H856 H 0.15507 0.88283 0.74216 0.0
H857 H 0.10323 0.8671 0.78677 0.0
C858 C 0.12263 0.87633 0.81192 0.0
C859 C 0.14046 0.88691 0.81787 0.0
C860 C 0.13897 0.88229 0.73836 0.0
C861 C 0.12967 0.88451 0.77607 0.0
C862 C 0.13292 0.87969 0.71769 0.0
C863 C 0.1121 0.87868 0.71265 0.0
C864 C 0.12405 0.88333 0.75395 0.0
C865 C 0.09771 0.88051 0.72865 0.0
C866 C 0.11709 0.87529 0.79109 0.0
C867 C 0.15257 0.89615 0.8024 0.0
N868 N 0.10396 0.88249 0.74863 0.0
N869 N 0.14705 0.89457 0.78208 0.0
H870 H 0.35251 0.8589 0.96436 0.0
H871 H 0.3637 0.8611 0.08797 0.0
H872 H 0.38733 0.81406 -0.00059 0.0
H873 H 0.32803 0.9054 0.05326 0.0
H874 H 0.37315 0.84414 0.05551 0.0
H875 H 0.34425 0.87679 0.99662 0.0
C876 C 0.35851 0.85284 0.97881 0.0
C877 C 0.3706 0.83488 0.97915 0.0
C878 C 0.36326 0.85757 0.05497 0.0
C879 C 0.36109 0.8553 0.01616 0.0
C880 C 0.35784 0.86724 0.07349 0.0
C881 C 0.34505 0.88464 0.07325 0.0
C882 C 0.35583 0.86537 0.03607 0.0
C883 C 0.33792 0.89199 0.0541 0.0
C884 C 0.35374 0.86307 -0.00276 0.0
C885 C 0.37791 0.8278 -0.00163 0.0
N886 N 0.34341 0.88229 0.03624 0.0
N887 N 0.37299 0.83801 0.01611 0.0
H888 H 0.35312 0.91475 0.29249 0.0
H889 H 0.37568 0.86524 0.18169 0.0
H890 H 0.4074 0.87964 0.27823 0.0
H891 H 0.33062 0.91322 0.19078 0.0
H892 H 0.38642 0.86941 0.21762 0.0
H893 H 0.34385 0.91397 0.2557 0.0
C894 C 0.36317 0.90702 0.28163 0.0
C895 C 0.38099 0.89709 0.2885 0.0
C896 C 0.37422 0.87909 0.21176 0.0
C897 C 0.37036 0.89602 0.2465 0.0
C898 C 0.36797 0.87663 0.19125 0.0
C899 C 0.35213 0.88883 0.18321 0.0
C900 C 0.36447 0.89371 0.22445 0.0
C901 C 0.34287 0.90346 0.19634 0.0
C902 C 0.35787 0.90661 0.26064 0.0
C903 C 0.39349 0.88744 0.2737 0.0
N904 N 0.34911 0.90541 0.21639 0.0
N905 N 0.38783 0.88698 0.25344 0.0
H906 H 0.37817 0.17857 0.51001 0.0
H907 H 0.34529 0.09203 0.42976 0.0
H908 H 0.37191 0.11463 0.5294 0.0
H909 H 0.38381 0.1439 0.41248 0.0
H910 H 0.3499 0.1014 0.46642 0.0
H911 H 0.37497 0.16756 0.47387 0.0
C912 C 0.37607 0.1622 0.50662 0.0
C913 C 0.37532 0.14744 0.5226 0.0
C914 C 0.35739 0.1106 0.45454 0.0
C915 C 0.37147 0.13484 0.48144 0.0
C916 C 0.35469 0.10538 0.43368 0.0
C917 C 0.36417 0.11727 0.41811 0.0
C918 C 0.36923 0.12806 0.45972 0.0
C919 C 0.37629 0.1343 0.42401 0.0
C920 C 0.37437 0.15594 0.48604 0.0
C921 C 0.37266 0.12642 0.51743 0.0
N922 N 0.37831 0.13933 0.44437 0.0
N923 N 0.37063 0.12071 0.49718 0.0
H924 H 0.10391 0.12607 0.78773 0.0
H925 H 0.18272 0.0764 0.70691 0.0
H926 H 0.15945 0.09469 0.80537 0.0
H927 H 0.13003 0.11195 0.68845 0.0
H928 H 0.17297 0.08095 0.74322 0.0
H929 H 0.11192 0.11928 0.75126 0.0
C930 C 0.11777 0.11776 0.78397 0.0
C931 C 0.13108 0.11106 0.79966 0.0
C932 C 0.1635 0.08771 0.73124 0.0
C933 C 0.14027 0.10318 0.75803 0.0
C934 C 0.16904 0.08508 0.71052 0.0
C935 C 0.15722 0.09391 0.69471 0.0
C936 C 0.146 0.09925 0.73616 0.0
C937 C 0.13962 0.10496 0.70021 0.0
C938 C 0.12232 0.11389 0.76315 0.0
C939 C 0.14878 0.10029 0.79385 0.0
N940 N 0.13457 0.10739 0.72051 0.0
N941 N 0.15285 0.09672 0.77352 0.0
H942 H 0.12424 0.82365 0.0083 0.0
H943 H 0.1582 0.92455 0.94485 0.0
H944 H 0.12824 0.88447 0.03649 0.0
H945 H 0.13473 0.86858 0.91627 0.0
H946 H 0.15177 0.90923 0.97911 0.0
H947 H 0.133 0.839 0.97484 0.0
C948 C 0.12706 0.84024 0.00745 0.0
C949 C 0.1254 0.85287 0.02511 0.0
C950 C 0.14805 0.90036 0.9653 0.0
C951 C 0.13542 0.87049 0.98692 0.0
C952 C 0.15173 0.90905 0.9458 0.0
C953 C 0.14694 0.89779 0.92776 0.0
C954 C 0.13977 0.88023 0.96665 0.0
C955 C 0.1386 0.8778 0.92979 0.0
C956 C 0.13198 0.84899 0.98834 0.0
C957 C 0.12925 0.87425 0.02317 0.0
N958 N 0.13533 0.86962 0.94891 0.0
N959 N 0.1341 0.88244 0.00435 0.0
H960 H 0.30374 0.32684 0.07998 0.0
H961 H 0.22896 0.41699 0.11782 0.0
H962 H 0.32642 0.38307 0.10868 0.0
H963 H 0.21106 0.3526 0.11166 0.0
H964 H 0.26414 0.40737 0.10868 0.0
H965 H 0.26891 0.33887 0.08538 0.0
C966 C 0.30139 0.3418 0.08731 0.0
C967 C 0.31799 0.3539 0.09407 0.0
C968 C 0.25244 0.39543 0.10927 0.0
C969 C 0.2781 0.36779 0.10024 0.0
C970 C 0.2324 0.40089 0.11438 0.0
C971 C 0.21715 0.38553 0.11558 0.0
C972 C 0.25705 0.37455 0.10501 0.0
C973 C 0.22239 0.36491 0.11105 0.0
C974 C 0.2815 0.34862 0.09044 0.0
C975 C 0.31402 0.3732 0.1034 0.0
N976 N 0.24187 0.36004 0.10593 0.0
N977 N 0.29442 0.37958 0.10625 0.0
H978 H 0.72361 0.13021 0.85026 0.0
H979 H 0.82616 0.11393 0.91156 0.0
H980 H 0.72687 0.08416 0.89887 0.0
H981 H 0.8254 0.12813 0.84605 0.0
H982 H 0.78948 0.10619 0.90991 0.0
H983 H 0.76071 0.13399 0.85157 0.0
C984 C 0.73213 0.12105 0.86137 0.0
C985 C 0.7222 0.10689 0.87454 0.0
C986 C 0.79745 0.11075 0.89589 0.0
C987 C 0.76457 0.11116 0.87606 0.0
C988 C 0.81831 0.11518 0.8968 0.0
C989 C 0.82878 0.12171 0.8789 0.0
C990 C 0.78697 0.11343 0.87711 0.0
C991 C 0.81793 0.12305 0.86017 0.0
C992 C 0.75328 0.12306 0.86194 0.0
C993 C 0.734 0.09525 0.88847 0.0
N994 N 0.79752 0.11927 0.85983 0.0
N995 N 0.75463 0.09776 0.88901 0.0
H996 H 0.14924 0.46369 0.12879 0.0
H997 H 0.06494 0.54008 0.176 0.0
H998 H 0.09834 0.44372 0.1666 0.0
H999 H 0.11156 0.56023 0.13304 0.0
H1000 H 0.07923 0.50514 0.17527 0.0
H1001 H 0.13799 0.49975 0.13284 0.0
C1002 C 0.13582 0.46688 0.13806 0.0
C1003 C 0.1246 0.45063 0.14717 0.0
C1004 C 0.08639 0.5172 0.16603 0.0
C1005 C 0.11168 0.49173 0.15184 0.0
C1006 C 0.07822 0.53715 0.16644 0.0
C1007 C 0.087 0.553 0.15445 0.0
C1008 C 0.10346 0.51306 0.15352 0.0
C1009 C 0.10426 0.54838 0.14243 0.0
C1010 C 0.12938 0.48744 0.1403 0.0
C1011 C 0.10734 0.45568 0.15905 0.0
N1012 N 0.1119 0.52879 0.1422 0.0
N1013 N 0.10139 0.47574 0.16095 0.0
H1014 H 0.68477 0.88091 0.35297 0.0
H1015 H 0.78697 0.85391 0.41326 0.0
H1016 H 0.68649 0.8589 0.41637 0.0
H1017 H 0.78682 0.89826 0.36293 0.0
H1018 H 0.74983 0.8528 0.41208 0.0
H1019 H 0.72202 0.88549 0.35412 0.0
C1020 C 0.69288 0.87723 0.36715 0.0
C1021 C 0.68243 0.86933 0.38453 0.0
C1022 C 0.7579 0.86284 0.40132 0.0
C1023 C 0.72487 0.87426 0.38578 0.0
C1024 C 0.77912 0.86337 0.40189 0.0
C1025 C 0.79002 0.87618 0.38816 0.0
C1026 C 0.74741 0.87497 0.38672 0.0
C1027 C 0.77899 0.88822 0.37385 0.0
C1028 C 0.7141 0.87985 0.36778 0.0
C1029 C 0.69378 0.86489 0.40251 0.0
N1030 N 0.75823 0.88722 0.37339 0.0
N1031 N 0.71434 0.8672 0.40257 0.0
H1032 H 0.92274 0.94879 0.16927 0.0
H1033 H 0.82543 0.01696 0.13817 0.0
H1034 H 0.86479 0.92189 0.15155 0.0
H1035 H 0.88754 0.03945 0.13497 0.0
H1036 H 0.83823 0.98306 0.14975 0.0
H1037 H 0.90845 0.9835 0.16372 0.0
C1038 C 0.90696 0.95021 0.16446 0.0
C1039 C 0.89497 0.9325 0.16066 0.0
C1040 C 0.849 0.99549 0.14657 0.0
C1041 C 0.87858 0.97196 0.15434 0.0
C1042 C 0.84171 0.01479 0.14 0.0
C1043 C 0.85547 0.0309 0.1354 0.0
C1044 C 0.87013 0.9925 0.14881 0.0
C1045 C 0.87642 0.02734 0.13811 0.0
C1046 C 0.89885 0.96997 0.16121 0.0
C1047 C 0.87461 0.93517 0.15446 0.0
N1048 N 0.88312 0.00853 0.14464 0.0
N1049 N 0.86705 0.95454 0.15142 0.0
H1050 H 0.17878 0.6086 0.6143 0.0
H1051 H 0.29193 0.65576 0.62065 0.0
H1052 H 0.19609 0.67191 0.60032 0.0
H1053 H 0.2816 0.58954 0.61605 0.0
H1054 H 0.25537 0.66124 0.62022 0.0
H1055 H 0.21511 0.60062 0.62088 0.0
C1056 C 0.19016 0.62078 0.61274 0.0
C1057 C 0.18448 0.6409 0.60665 0.0
C1058 C 0.26101 0.64546 0.61935 0.0
C1059 C 0.22556 0.63205 0.61435 0.0
C1060 C 0.28196 0.64231 0.61962 0.0
C1061 C 0.2899 0.62217 0.61802 0.0
C1062 C 0.2477 0.62841 0.61734 0.0
C1063 C 0.27611 0.60535 0.61716 0.0
C1064 C 0.2108 0.61623 0.61644 0.0
C1065 C 0.19974 0.65613 0.6048 0.0
N1066 N 0.25559 0.60884 0.61659 0.0
N1067 N 0.21947 0.6514 0.60866 0.0
H1068 H 0.08232 0.43581 0.3427 0.0
H1069 H 0.14957 0.53064 0.38436 0.0
H1070 H 0.12649 0.4296 0.39214 0.0
H1071 H 0.09485 0.53855 0.34778 0.0
H1072 H 0.14277 0.49329 0.38574 0.0
H1073 H 0.088 0.4733 0.34287 0.0
C1074 C 0.09318 0.44232 0.35365 0.0
C1075 C 0.10399 0.4295 0.36741 0.0
C1076 C 0.13223 0.50323 0.37748 0.0
C1077 C 0.11063 0.47245 0.36755 0.0
C1078 C 0.13615 0.52454 0.37658 0.0
C1079 C 0.12277 0.53776 0.3659 0.0
C1080 C 0.11495 0.49504 0.36743 0.0
C1081 C 0.10556 0.52897 0.35622 0.0
C1082 C 0.09637 0.46374 0.35375 0.0
C1083 C 0.11779 0.43886 0.38129 0.0
N1084 N 0.1022 0.50814 0.35714 0.0
N1085 N 0.12082 0.45978 0.38091 0.0
H1086 H 0.42022 0.55192 0.82824 0.0
H1087 H 0.34963 0.46468 0.8796 0.0
H1088 H 0.38317 0.56263 0.88266 0.0
H1089 H 0.39984 0.45037 0.83865 0.0
H1090 H 0.35956 0.50132 0.87855 0.0
H1091 H 0.4107 0.51512 0.82943 0.0
C1092 C 0.41008 0.54656 0.84041 0.0
C1093 C 0.40251 0.56039 0.85539 0.0
C1094 C 0.36844 0.49013 0.86986 0.0
C1095 C 0.39152 0.51839 0.85675 0.0
C1096 C 0.36274 0.46923 0.87039 0.0
C1097 C 0.37395 0.45444 0.85922 0.0
C1098 C 0.38529 0.49632 0.85786 0.0
C1099 C 0.39084 0.46123 0.8476 0.0
C1100 C 0.40473 0.52555 0.84112 0.0
C1101 C 0.38946 0.55254 0.87084 0.0
N1102 N 0.39594 0.48171 0.84713 0.0
N1103 N 0.38431 0.53209 0.87107 0.0
H1104 H 0.89587 0.6757 0.60544 0.0
H1105 H 0.89206 0.79063 0.64896 0.0
H1106 H 0.91845 0.69212 0.66631 0.0
H1107 H 0.89363 0.77757 0.58321 0.0
H1108 H 0.90042 0.75428 0.65595 0.0
H1109 H 0.8936 0.71277 0.59694 0.0
C1110 C 0.90048 0.68711 0.61693 0.0
C1111 C 0.9072 0.68091 0.63664 0.0
C1112 C 0.89914 0.75943 0.63999 0.0
C1113 C 0.90446 0.72311 0.62716 0.0
C1114 C 0.89431 0.78013 0.63601 0.0
C1115 C 0.89206 0.78702 0.6155 0.0
C1116 C 0.90134 0.7455 0.62334 0.0
C1117 C 0.89523 0.77284 0.59927 0.0
C1118 C 0.89925 0.70821 0.61207 0.0
C1119 C 0.91311 0.69626 0.65095 0.0
N1120 N 0.89946 0.75264 0.60354 0.0
N1121 N 0.91137 0.71668 0.64602 0.0
H1122 H 0.97951 0.14557 0.33559 0.0
H1123 H 0.0774 0.12923 0.40745 0.0
H1124 H 0.97816 0.10829 0.39121 0.0
H1125 H 0.06178 0.18879 0.38125 0.0
H1126 H 0.04648 0.11423 0.39165 0.0
H1127 H 0.01555 0.15407 0.34264 0.0
C1128 C 0.987 0.13871 0.34892 0.0
C1129 C 0.97599 0.12635 0.36295 0.0
C1130 C 0.05013 0.13047 0.38907 0.0
C1131 C 0.01683 0.1357 0.37085 0.0
C1132 C 0.06772 0.13901 0.39798 0.0
C1133 C 0.07191 0.1603 0.3958 0.0
C1134 C 0.03705 0.14324 0.37753 0.0
C1135 C 0.05887 0.17235 0.38347 0.0
C1136 C 0.00741 0.14365 0.35297 0.0
C1137 C 0.98619 0.11801 0.38015 0.0
N1138 N 0.04194 0.16366 0.37482 0.0
N1139 N 0.00608 0.12288 0.38367 0.0
H1140 H 0.6081 0.20536 0.13961 0.0
H1141 H 0.60771 0.32564 0.11173 0.0
H1142 H 0.60855 0.22736 0.07629 0.0
H1143 H 0.58565 0.30164 0.17019 0.0
H1144 H 0.61007 0.28993 0.0986 0.0
H1145 H 0.60166 0.24082 0.15148 0.0
C1146 C 0.60671 0.21765 0.1282 0.0
C1147 C 0.60891 0.21347 0.10696 0.0
C1148 C 0.60458 0.29254 0.11425 0.0
C1149 C 0.60181 0.25406 0.12042 0.0
C1150 C 0.60332 0.31286 0.12176 0.0
C1151 C 0.59657 0.31654 0.14209 0.0
C1152 C 0.59935 0.27584 0.1273 0.0
C1153 C 0.59096 0.29948 0.15442 0.0
C1154 C 0.603 0.23786 0.13498 0.0
C1155 C 0.60692 0.22994 0.09283 0.0
N1156 N 0.59265 0.27985 0.14689 0.0
N1157 N 0.60369 0.24959 0.09983 0.0
H1158 H 0.43948 0.7998 0.88085 0.0
H1159 H 0.52335 0.88083 0.90269 0.0
H1160 H 0.42263 0.85839 0.90837 0.0
H1161 H 0.52324 0.84917 0.84359 0.0
H1162 H 0.48732 0.87131 0.90725 0.0
H1163 H 0.47132 0.81574 0.86842 0.0
C1164 C 0.4424 0.81611 0.88395 0.0
C1165 C 0.42859 0.82787 0.89562 0.0
C1166 C 0.49514 0.86677 0.89315 0.0
C1167 C 0.46492 0.84586 0.88208 0.0
C1168 C 0.51564 0.87205 0.89061 0.0
C1169 C 0.52617 0.86566 0.8728 0.0
C1170 C 0.48539 0.85448 0.87808 0.0
C1171 C 0.51556 0.8544 0.85752 0.0
C1172 C 0.46044 0.82517 0.87682 0.0
C1173 C 0.43294 0.84891 0.89931 0.0
N1174 N 0.49579 0.84875 0.86071 0.0
N1175 N 0.45103 0.85717 0.89297 0.0
H1176 H 0.89337 0.20654 0.83959 0.0
H1177 H 0.85382 0.31622 0.88179 0.0
H1178 H 0.86268 0.21313 0.8986 0.0
H1179 H 0.8995 0.30874 0.83407 0.0
H1180 H 0.85177 0.27817 0.88508 0.0
H1181 H 0.89031 0.24384 0.83417 0.0
C1182 C 0.88587 0.21578 0.85138 0.0
C1183 C 0.87846 0.20666 0.86969 0.0
C1184 C 0.86214 0.28495 0.87385 0.0
C1185 C 0.87493 0.24951 0.86353 0.0
C1186 C 0.86326 0.30661 0.87192 0.0
C1187 C 0.87699 0.31565 0.85779 0.0
C1188 C 0.8746 0.27239 0.86133 0.0
C1189 C 0.88888 0.30248 0.84537 0.0
C1190 C 0.88418 0.23712 0.84828 0.0
C1191 C 0.8688 0.21951 0.88434 0.0
N1192 N 0.88741 0.28157 0.84744 0.0
N1193 N 0.86737 0.24033 0.88098 0.0
H1194 H 0.44503 0.17551 0.57982 0.0
H1195 H 0.51159 0.1268 0.6712 0.0
H1196 H 0.41658 0.14452 0.63186 0.0
H1197 H 0.53143 0.13143 0.60747 0.0
H1198 H 0.47803 0.14053 0.66082 0.0
H1199 H 0.4784 0.1673 0.59416 0.0
C1200 C 0.44578 0.16714 0.5944 0.0
C1201 C 0.42799 0.16043 0.60453 0.0
C1202 C 0.48985 0.13861 0.64923 0.0
C1203 C 0.46624 0.15102 0.621 0.0
C1204 C 0.50893 0.1309 0.65511 0.0
C1205 C 0.52416 0.12789 0.6401 0.0
C1206 C 0.48631 0.14373 0.62834 0.0
C1207 C 0.52002 0.13334 0.61947 0.0
C1208 C 0.46486 0.16243 0.60252 0.0
C1209 C 0.42994 0.1498 0.62347 0.0
N1210 N 0.50152 0.14105 0.61422 0.0
N1211 N 0.44881 0.14529 0.63109 0.0
H1212 H 0.60211 0.79061 0.34445 0.0
H1213 H 0.63838 0.68006 0.38681 0.0
H1214 H 0.64159 0.78326 0.39768 0.0
H1215 H 0.5864 0.68802 0.34628 0.0
H1216 H 0.64234 0.71782 0.38846 0.0
H1217 H 0.59924 0.75274 0.34187 0.0
C1218 C 0.61033 0.78105 0.35545 0.0
C1219 C 0.62204 0.7901 0.37135 0.0
C1220 C 0.63003 0.71127 0.37928 0.0
C1221 C 0.61874 0.74689 0.36854 0.0
C1222 C 0.62775 0.68972 0.37834 0.0
C1223 C 0.61201 0.68083 0.36642 0.0
C1224 C 0.61664 0.724 0.36804 0.0
C1225 C 0.59869 0.69415 0.35576 0.0
C1226 C 0.60857 0.75946 0.35406 0.0
C1227 C 0.63228 0.77695 0.38525 0.0
N1228 N 0.60138 0.71507 0.35674 0.0
N1229 N 0.63039 0.75601 0.38353 0.0
H1230 H 0.04698 0.84097 0.07221 0.0
H1231 H 0.97992 0.85779 0.17388 0.0
H1232 H 0.07434 0.84391 0.13317 0.0
H1233 H 0.95981 0.87317 0.11193 0.0
H1234 H 0.0139 0.8499 0.16 0.0
H1235 H 0.0142 0.84982 0.08724 0.0
C1236 C 0.04609 0.84347 0.08883 0.0
C1237 C 0.06344 0.84167 0.10148 0.0
C1238 C 0.00204 0.85508 0.14951 0.0
C1239 C 0.0257 0.85183 0.11886 0.0
C1240 C 0.98265 0.85949 0.15737 0.0
C1241 C 0.96702 0.86608 0.144 0.0
C1242 C 0.00568 0.85705 0.12812 0.0
C1243 C 0.97139 0.86813 0.1228 0.0
C1244 C 0.02733 0.84862 0.09739 0.0
C1245 C 0.06133 0.8452 0.12289 0.0
N1246 N 0.99026 0.86352 0.11552 0.0
N1247 N 0.04271 0.85001 0.13097 0.0
H1248 H 0.61259 0.87172 0.67569 0.0
H1249 H 0.63164 0.89715 0.79509 0.0
H1250 H 0.66659 0.90253 0.69919 0.0
H1251 H 0.57167 0.88275 0.77113 0.0
H1252 H 0.64466 0.89855 0.75973 0.0
H1253 H 0.59723 0.87428 0.7104 0.0
C1254 C 0.6212 0.87895 0.68814 0.0
C1255 C 0.6409 0.88683 0.68465 0.0
C1256 C 0.62859 0.8953 0.76212 0.0
C1257 C 0.62353 0.88987 0.72406 0.0
C1258 C 0.62117 0.89452 0.78231 0.0
C1259 C 0.6006 0.88977 0.78595 0.0
C1260 C 0.61543 0.89095 0.74544 0.0
C1261 C 0.58764 0.88654 0.76888 0.0
C1262 C 0.6124 0.88054 0.70785 0.0
C1263 C 0.65138 0.89619 0.70121 0.0
N1264 N 0.59534 0.88693 0.74927 0.0
N1265 N 0.6426 0.89736 0.7202 0.0
H1266 H 0.84243 0.90513 0.55114 0.0
H1267 H 0.86701 0.864 0.43661 0.0
H1268 H 0.87481 0.84809 0.53869 0.0
H1269 H 0.83333 0.92001 0.44969 0.0
H1270 H 0.86877 0.85693 0.47391 0.0
H1271 H 0.838 0.91012 0.5139 0.0
C1272 C 0.84864 0.89365 0.5406 0.0
C1273 C 0.85912 0.87622 0.54809 0.0
C1274 C 0.8609 0.87071 0.4686 0.0
C1275 C 0.85402 0.88182 0.50537 0.0
C1276 C 0.85987 0.87472 0.44733 0.0
C1277 C 0.85015 0.89269 0.44011 0.0
C1278 C 0.85217 0.8848 0.48267 0.0
C1279 C 0.84108 0.90603 0.45461 0.0
C1280 C 0.84605 0.89649 0.51931 0.0
C1281 C 0.8667 0.86181 0.53364 0.0
N1282 N 0.84242 0.90188 0.47521 0.0
N1283 N 0.86405 0.86498 0.51297 0.0
H1284 H 0.85567 0.14416 0.17871 0.0
H1285 H 0.9197 0.09039 0.26712 0.0
H1286 H 0.86908 0.07861 0.17526 0.0
H1287 H 0.8728 0.13498 0.28161 0.0
H1288 H 0.90687 0.08882 0.23119 0.0
H1289 H 0.86773 0.14441 0.21483 0.0
C1290 C 0.86119 0.12987 0.18557 0.0
C1291 C 0.86131 0.11132 0.17414 0.0
C1292 C 0.89941 0.09884 0.24236 0.0
C1293 C 0.8754 0.11162 0.21497 0.0
C1294 C 0.90671 0.09977 0.26273 0.0
C1295 C 0.89721 0.11276 0.27725 0.0
C1296 C 0.88295 0.11143 0.2365 0.0
C1297 C 0.88044 0.12464 0.27088 0.0
C1298 C 0.86796 0.13001 0.2061 0.0
C1299 C 0.86858 0.09318 0.18369 0.0
N1300 N 0.87397 0.1239 0.25087 0.0
N1301 N 0.87556 0.09381 0.20354 0.0
H1302 H 0.6693 0.134 0.92346 0.0
H1303 H 0.61784 0.09917 0.02691 0.0
H1304 H 0.60734 0.1109 0.92281 0.0
H1305 H 0.64767 0.1591 0.02508 0.0
H1306 H 0.61912 0.09781 0.98878 0.0
H1307 H 0.66674 0.13879 0.9613 0.0
C1308 C 0.65512 0.13017 0.93127 0.0
C1309 C 0.63844 0.12219 0.92009 0.0
C1310 C 0.62535 0.11122 0.99682 0.0
C1311 C 0.63576 0.12689 0.96302 0.0
C1312 C 0.62476 0.11194 0.01845 0.0
C1313 C 0.63263 0.12928 0.029 0.0
C1314 C 0.63443 0.12764 0.98581 0.0
C1315 C 0.64135 0.14553 0.0174 0.0
C1316 C 0.6537 0.1329 0.95273 0.0
C1317 C 0.62044 0.11732 0.93088 0.0
N1318 N 0.64226 0.14422 0.99635 0.0
N1319 N 0.61968 0.1194 0.95185 0.0
H1320 H 0.67161 0.0741 0.79995 0.0
H1321 H 0.58868 0.11222 0.71729 0.0
H1322 H 0.62431 0.11808 0.81502 0.0
H1323 H 0.63965 0.07235 0.70291 0.0
H1324 H 0.59951 0.11265 0.7537 0.0
H1325 H 0.65816 0.07149 0.76486 0.0
C1326 C 0.65835 0.08323 0.79586 0.0
C1327 C 0.64913 0.09644 0.81037 0.0
C1328 C 0.60823 0.10376 0.74255 0.0
C1329 C 0.63359 0.09352 0.77008 0.0
C1330 C 0.60205 0.10345 0.72178 0.0
C1331 C 0.61336 0.09235 0.70696 0.0
C1332 C 0.62579 0.09284 0.74851 0.0
C1333 C 0.63053 0.08127 0.71369 0.0
C1334 C 0.65066 0.08172 0.77579 0.0
C1335 C 0.63192 0.10779 0.80424 0.0
N1336 N 0.63623 0.08186 0.73393 0.0
N1337 N 0.62471 0.10613 0.78448 0.0
H1338 H 0.60838 0.88167 0.46504 0.0
H1339 H 0.66671 0.86362 0.57091 0.0
H1340 H 0.65621 0.83604 0.46987 0.0
H1341 H 0.60206 0.87612 0.56934 0.0
H1342 H 0.66629 0.85895 0.53311 0.0
H1343 H 0.60931 0.88606 0.50287 0.0
C1344 C 0.61925 0.8728 0.47405 0.0
C1345 C 0.63224 0.85847 0.46444 0.0
C1346 C 0.65222 0.8626 0.54112 0.0
C1347 C 0.63339 0.86346 0.50739 0.0
C1348 C 0.65243 0.86528 0.56259 0.0
C1349 C 0.63436 0.87017 0.57318 0.0
C1350 C 0.63394 0.86539 0.53017 0.0
C1351 C 0.61626 0.87217 0.56174 0.0
C1352 C 0.61962 0.87516 0.49557 0.0
C1353 C 0.64591 0.84719 0.47678 0.0
N1354 N 0.61654 0.87001 0.54074 0.0
N1355 N 0.64623 0.85001 0.49768 0.0
H1356 H 0.89239 0.89685 0.33185 0.0
H1357 H 0.85229 0.8627 0.22368 0.0
H1358 H 0.85373 0.84264 0.32649 0.0
H1359 H 0.91447 0.88426 0.23031 0.0
H1360 H 0.85053 0.85769 0.26139 0.0
H1361 H 0.89957 0.89482 0.29456 0.0
C1362 C 0.88574 0.8843 0.32282 0.0
C1363 C 0.87251 0.86986 0.33207 0.0
C1364 C 0.8646 0.86331 0.2545 0.0
C1365 C 0.88007 0.86787 0.28963 0.0
C1366 C 0.86555 0.86636 0.23309 0.0
C1367 C 0.8835 0.87405 0.22398 0.0
C1368 C 0.88153 0.8685 0.26683 0.0
C1369 C 0.90035 0.87833 0.23679 0.0
C1370 C 0.88984 0.88314 0.30164 0.0
C1371 C 0.86413 0.85394 0.31983 0.0
N1372 N 0.89885 0.87582 0.25767 0.0
N1373 N 0.8677 0.85361 0.29903 0.0
H1374 H 0.89855 0.11926 0.96668 0.0
H1375 H 0.81907 0.09119 0.05175 0.0
H1376 H 0.83923 0.14779 0.96275 0.0
H1377 H 0.87833 0.11416 0.0703 0.0
H1378 H 0.82552 0.10409 0.01632 0.0
H1379 H 0.891 0.10893 0.0026 0.0
C1380 C 0.88392 0.12324 0.9734 0.0
C1381 C 0.86948 0.1344 0.96195 0.0
C1382 C 0.83698 0.10633 0.02826 0.0
C1383 C 0.86069 0.12231 0.00242 0.0
C1384 C 0.83339 0.09894 0.04832 0.0
C1385 C 0.84823 0.10168 0.06378 0.0
C1386 C 0.85577 0.1158 0.02369 0.0
C1387 C 0.86652 0.11188 0.05873 0.0
C1388 C 0.8797 0.11746 0.9938 0.0
C1389 C 0.85076 0.1393 0.97125 0.0
N1390 N 0.86995 0.1183 0.03895 0.0
N1391 N 0.84674 0.13296 0.99097 0.0
H1392 H 0.78841 0.63988 0.87875 0.0
H1393 H 0.67152 0.6175 0.90229 0.0
H1394 H 0.76436 0.5773 0.88045 0.0
H1395 H 0.70293 0.67332 0.92197 0.0
H1396 H 0.70449 0.60239 0.89255 0.0
H1397 H 0.75616 0.65266 0.89243 0.0
C1398 C 0.7763 0.62882 0.88199 0.0
C1399 C 0.779 0.60751 0.87839 0.0
C1400 C 0.70412 0.61785 0.89922 0.0
C1401 C 0.74198 0.62206 0.89402 0.0
C1402 C 0.68535 0.62649 0.90475 0.0
C1403 C 0.6845 0.64674 0.91283 0.0
C1404 C 0.72203 0.62972 0.90151 0.0
C1405 C 0.70286 0.65769 0.91574 0.0
C1406 C 0.75793 0.63611 0.88992 0.0
C1407 C 0.76285 0.59386 0.88302 0.0
N1408 N 0.72083 0.64912 0.90987 0.0
N1409 N 0.74489 0.60139 0.89045 0.0
H1410 H 0.28664 0.83109 0.10641 0.0
H1411 H 0.16783 0.85817 0.10001 0.0
H1412 H 0.2642 0.89263 0.12023 0.0
H1413 H 0.19645 0.80642 0.06903 0.0
H1414 H 0.20158 0.86918 0.11304 0.0
H1415 H 0.25209 0.81995 0.09852 0.0
C1416 C 0.27445 0.84231 0.10789 0.0
C1417 C 0.27847 0.86295 0.11383 0.0
C1418 C 0.20035 0.85538 0.10346 0.0
C1419 C 0.23856 0.8501 0.10469 0.0
C1420 C 0.18114 0.84903 0.09614 0.0
C1421 C 0.17937 0.83143 0.08331 0.0
C1422 C 0.21772 0.8438 0.09817 0.0
C1423 C 0.1971 0.8202 0.07868 0.0
C1424 C 0.25466 0.83589 0.10332 0.0
C1425 C 0.26187 0.87662 0.11557 0.0
N1426 N 0.21545 0.82656 0.08611 0.0
N1427 N 0.24259 0.86998 0.11093 0.0
H1428 H 0.83774 0.52265 0.86787 0.0
H1429 H 0.92449 0.43981 0.84331 0.0
H1430 H 0.89094 0.53398 0.8298 0.0
H1431 H 0.86597 0.42063 0.86771 0.0
H1432 H 0.9125 0.47524 0.84143 0.0
H1433 H 0.84725 0.48575 0.86991 0.0
C1434 C 0.85124 0.51739 0.85977 0.0
C1435 C 0.8637 0.5315 0.84885 0.0
C1436 C 0.90217 0.46337 0.84719 0.0
C1437 C 0.87467 0.48963 0.85135 0.0
C1438 C 0.90906 0.44308 0.84838 0.0
C1439 C 0.89616 0.42722 0.85556 0.0
C1440 C 0.88216 0.46804 0.85327 0.0
C1441 C 0.87638 0.43246 0.86206 0.0
C1442 C 0.85667 0.49638 0.86101 0.0
C1443 C 0.881 0.52382 0.83865 0.0
N1444 N 0.8699 0.45253 0.86072 0.0
N1445 N 0.886 0.50351 0.84029 0.0
H1446 H 0.22662 0.12852 0.64354 0.0
H1447 H 0.30339 0.13252 0.55054 0.0
H1448 H 0.2239 0.08201 0.59528 0.0
H1449 H 0.32272 0.14876 0.61257 0.0
H1450 H 0.27256 0.11634 0.56504 0.0
H1451 H 0.26033 0.13927 0.6309 0.0
C1452 C 0.23315 0.12058 0.63029 0.0
C1453 C 0.22252 0.10443 0.62036 0.0
C1454 C 0.28371 0.12321 0.57545 0.0
C1455 C 0.26077 0.11674 0.60578 0.0
C1456 C 0.30122 0.13247 0.56722 0.0
C1457 C 0.31552 0.14201 0.58041 0.0
C1458 C 0.28028 0.12405 0.59693 0.0
C1459 C 0.31207 0.14148 0.6019 0.0
C1460 C 0.25239 0.1266 0.62321 0.0
C1461 C 0.23167 0.09452 0.60335 0.0
N1462 N 0.29458 0.13298 0.6095 0.0
N1463 N 0.25021 0.10104 0.59638 0.0
H1464 H 0.11727 0.96167 0.84894 0.0
H1465 H 0.13951 0.0807 0.87525 0.0
H1466 H 0.17674 0.98331 0.86827 0.0
H1467 H 0.08482 0.05803 0.84518 0.0
H1468 H 0.15407 0.04565 0.87276 0.0
H1469 H 0.10591 -0.00251 0.84639 0.0
C1470 C 0.12803 0.97406 0.85236 0.0
C1471 C 0.1479 0.96963 0.85891 0.0
C1472 C 0.13893 0.04844 0.86664 0.0
C1473 C 0.13491 0.01074 0.85652 0.0
C1474 C 0.13057 0.06836 0.86821 0.0
C1475 C 0.11089 0.0722 0.86054 0.0
C1476 C 0.12741 0.03238 0.85748 0.0
C1477 C 0.10001 0.05576 0.85139 0.0
C1478 C 0.12154 0.99453 0.85096 0.0
C1479 C 0.16129 0.9862 0.86309 0.0
N1480 N 0.10838 0.0366 0.85019 0.0
N1481 N 0.15445 0.00613 0.86213 0.0
H1482 H 0.81793 0.3247 0.37699 0.0
H1483 H 0.73327 0.41299 0.38811 0.0
H1484 H 0.83041 0.38269 0.40821 0.0
H1485 H 0.72283 0.35016 0.36685 0.0
H1486 H 0.77011 0.40564 0.38997 0.0
H1487 H 0.78474 0.33771 0.36657 0.0
C1488 C 0.81368 0.34036 0.38142 0.0
C1489 C 0.82669 0.35261 0.39361 0.0
C1490 C 0.75971 0.3936 0.38471 0.0
C1491 C 0.78838 0.36747 0.38232 0.0
C1492 C 0.73874 0.39777 0.38361 0.0
C1493 C 0.72498 0.38204 0.3776 0.0
C1494 C 0.7668 0.37369 0.37947 0.0
C1495 C 0.73282 0.36264 0.37191 0.0
C1496 C 0.7947 0.34778 0.37554 0.0
C1497 C 0.82066 0.37284 0.39879 0.0
N1498 N 0.75312 0.35904 0.37306 0.0
N1499 N 0.80166 0.37959 0.39342 0.0
H1500 H 0.82723 0.47606 0.64127 0.0
H1501 H 0.89192 0.56696 0.58839 0.0
H1502 H 0.88393 0.46461 0.60931 0.0
H1503 H 0.86472 0.57396 0.64898 0.0
H1504 H 0.88024 0.53051 0.58777 0.0
H1505 H 0.83243 0.51365 0.63603 0.0
C1506 C 0.84058 0.48147 0.63291 0.0
C1507 C 0.85533 0.46741 0.62592 0.0
C1508 C 0.87659 0.54022 0.601 0.0
C1509 C 0.86101 0.50985 0.61947 0.0
C1510 C 0.88314 0.56092 0.60132 0.0
C1511 C 0.8794 0.57325 0.61885 0.0
C1512 C 0.86582 0.53216 0.61805 0.0
C1513 C 0.86806 0.56478 0.6353 0.0
C1514 C 0.84353 0.50279 0.62997 0.0
C1515 C 0.87238 0.47508 0.61517 0.0
N1516 N 0.86164 0.5447 0.63452 0.0
N1517 N 0.87476 0.49584 0.61223 0.0
H1518 H 0.60387 0.53758 0.12742 0.0
H1519 H 0.63062 0.42557 0.16298 0.0
H1520 H 0.66421 0.52561 0.15136 0.0
H1521 H 0.60057 0.4347 0.10409 0.0
H1522 H 0.63985 0.46262 0.16356 0.0
H1523 H 0.59846 0.50003 0.12335 0.0
C1524 C 0.61592 0.52701 0.13191 0.0
C1525 C 0.63447 0.53457 0.13982 0.0
C1526 C 0.63143 0.4564 0.15044 0.0
C1527 C 0.62829 0.49193 0.13542 0.0
C1528 C 0.62612 0.4354 0.15013 0.0
C1529 C 0.61487 0.42724 0.13345 0.0
C1530 C 0.62483 0.46934 0.13431 0.0
C1531 C 0.60936 0.44049 0.11713 0.0
C1532 C 0.61289 0.5057 0.1294 0.0
C1533 C 0.64971 0.52031 0.14519 0.0
N1534 N 0.61408 0.46107 0.11814 0.0
N1535 N 0.64617 0.49955 0.14319 0.0
H1536 H 0.62794 0.74209 0.92791 0.0
H1537 H 0.59005 0.80802 0.83093 0.0
H1538 H 0.62773 0.71778 0.8654 0.0
H1539 H 0.60843 0.83597 0.88904 0.0
H1540 H 0.60097 0.77418 0.84394 0.0
H1541 H 0.61829 0.77606 0.91447 0.0
C1542 C 0.62593 0.74395 0.91131 0.0
C1543 C 0.6286 0.72714 0.8977 0.0
C1544 C 0.60264 0.78772 0.85381 0.0
C1545 C 0.6174 0.76593 0.88228 0.0
C1546 C 0.59631 0.80701 0.84648 0.0
C1547 C 0.59835 0.82478 0.85898 0.0
C1548 C 0.61084 0.78618 0.87387 0.0
C1549 C 0.60662 0.82263 0.87892 0.0
C1550 C 0.62047 0.76335 0.90367 0.0
C1551 C 0.62587 0.73039 0.87637 0.0
N1552 N 0.61251 0.80363 0.8858 0.0
N1553 N 0.62025 0.74944 0.86929 0.0
H1554 H 0.52818 0.38751 0.1522 0.0
H1555 H 0.43474 0.33239 0.0947 0.0
H1556 H 0.53485 0.34355 0.10197 0.0
H1557 H 0.42799 0.3918 0.12527 0.0
H1558 H 0.47109 0.33342 0.10213 0.0
H1559 H 0.49102 0.38665 0.14698 0.0
C1560 C 0.52185 0.37765 0.14015 0.0
C1561 C 0.53464 0.36562 0.12746 0.0
C1562 C 0.46167 0.34624 0.10723 0.0
C1563 C 0.49234 0.36445 0.1216 0.0
C1564 C 0.44084 0.34565 0.10308 0.0
C1565 C 0.42821 0.36211 0.10927 0.0
C1566 C 0.47007 0.36329 0.11785 0.0
C1567 C 0.43715 0.37883 0.1201 0.0
C1568 C 0.5007 0.37725 0.13714 0.0
C1569 C 0.52563 0.35319 0.11203 0.0
N1570 N 0.45758 0.37899 0.12409 0.0
N1571 N 0.50506 0.35285 0.10962 0.0
H1572 H 0.89766 0.16251 0.38236 0.0
H1573 H 0.89072 0.28426 0.3602 0.0
H1574 H 0.92028 0.19119 0.32625 0.0
H1575 H 0.88043 0.25704 0.42059 0.0
H1576 H 0.90107 0.25017 0.34716 0.0
H1577 H 0.89085 0.19702 0.39659 0.0
C1578 C 0.90131 0.17608 0.3731 0.0
C1579 C 0.90943 0.17405 0.35308 0.0
C1580 C 0.89665 0.25169 0.36329 0.0
C1581 C 0.90156 0.21347 0.36913 0.0
C1582 C 0.89068 0.27111 0.3707 0.0
C1583 C 0.88464 0.27338 0.39144 0.0
C1584 C 0.89637 0.23447 0.37671 0.0
C1585 C 0.88495 0.25591 0.40445 0.0
C1586 C 0.89744 0.19576 0.38122 0.0
C1587 C 0.91395 0.19211 0.34175 0.0
N1588 N 0.8906 0.23714 0.39683 0.0
N1589 N 0.9098 0.21109 0.34988 0.0
H1590 H 0.96699 0.64647 0.59101 0.0
H1591 H 0.07299 0.59825 0.62777 0.0
H1592 H 0.97075 0.60685 0.64503 0.0
H1593 H 0.06717 0.65385 0.59067 0.0
H1594 H 0.03559 0.59733 0.63163 0.0
H1595 H 0.00388 0.6451 0.58765 0.0
C1596 C 0.97555 0.63739 0.60216 0.0
C1597 C 0.96569 0.62682 0.6184 0.0
C1598 C 0.04263 0.60971 0.62271 0.0
C1599 C 0.00818 0.62522 0.61457 0.0
C1600 C 0.06391 0.61021 0.62044 0.0
C1601 C 0.07326 0.62618 0.60892 0.0
C1602 C 0.03074 0.62506 0.61308 0.0
C1603 C 0.06074 0.6413 0.5998 0.0
C1604 C 0.99667 0.6367 0.60026 0.0
C1605 C 0.97772 0.61534 0.63235 0.0
N1606 N 0.0402 0.64029 0.602 0.0
N1607 N 0.99839 0.6148 0.6301 0.0
H1608 H 0.64839 0.23913 0.56471 0.0
H1609 H 0.58295 0.16956 0.64268 0.0
H1610 H 0.60314 0.26514 0.60588 0.0
H1611 H 0.63677 0.14808 0.61054 0.0
H1612 H 0.58932 0.20452 0.62915 0.0
H1613 H 0.64345 0.20542 0.58099 0.0
C1614 C 0.6374 0.23777 0.5772 0.0
C1615 C 0.62608 0.25499 0.58387 0.0
C1616 C 0.59977 0.19215 0.6252 0.0
C1617 C 0.62034 0.21628 0.60262 0.0
C1618 C 0.59614 0.17217 0.63287 0.0
C1619 C 0.60929 0.15579 0.62766 0.0
C1620 C 0.61656 0.19569 0.61211 0.0
C1621 C 0.62617 0.16015 0.61495 0.0
C1622 C 0.63465 0.21849 0.58656 0.0
C1623 C 0.6122 0.25227 0.60026 0.0
N1624 N 0.62923 0.17963 0.60753 0.0
N1625 N 0.6096 0.2332 0.60901 0.0
H1626 H 0.05098 0.33272 0.91974 0.0
H1627 H 0.97385 0.35725 0.82671 0.0
H1628 H 0.06968 0.36318 0.86308 0.0
H1629 H 0.95524 0.34683 0.89014 0.0
H1630 H 0.00949 0.35174 0.83711 0.0
H1631 H 0.01622 0.33033 0.90625 0.0
C1632 C 0.04779 0.33881 0.90439 0.0
C1633 C 0.06315 0.34841 0.8926 0.0
C1634 C 0.99753 0.35041 0.84865 0.0
C1635 C 0.02345 0.3456 0.87705 0.0
C1636 C 0.97724 0.3534 0.84272 0.0
C1637 C 0.96168 0.35268 0.85766 0.0
C1638 C 0.00214 0.34642 0.86958 0.0
C1639 C 0.96683 0.34773 0.8782 0.0
C1640 C 0.02796 0.33743 0.89672 0.0
C1641 C 0.0582 0.35587 0.87276 0.0
N1642 N 0.98664 0.34489 0.88357 0.0
N1643 N 0.03871 0.3544 0.86561 0.0
H1644 H 0.84836 0.74633 0.06642 0.0
H1645 H 0.91239 0.8118 0.14917 0.0
H1646 H 0.892 0.71723 0.1073 0.0
H1647 H 0.8563 0.83262 0.12078 0.0
H1648 H 0.90748 0.77775 0.13251 0.0
H1649 H 0.8534 0.77898 0.08473 0.0
C1650 C 0.85901 0.7468 0.0793 0.0
C1651 C 0.8698 0.72903 0.08533 0.0
C1652 C 0.89627 0.78982 0.13008 0.0
C1653 C 0.87573 0.76652 0.10638 0.0
C1654 C 0.89909 0.80925 0.13948 0.0
C1655 C 0.88475 0.82512 0.13637 0.0
C1656 C 0.87915 0.78643 0.11734 0.0
C1657 C 0.86776 0.82091 0.12371 0.0
C1658 C 0.86183 0.76546 0.08981 0.0
C1659 C 0.8833 0.73056 0.10223 0.0
N1660 N 0.86551 0.80206 0.11463 0.0
N1661 N 0.88601 0.74908 0.11212 0.0
H1662 H 0.42106 0.62283 0.36941 0.0
H1663 H 0.52951 0.6648 0.33756 0.0
H1664 H 0.43834 0.68435 0.38982 0.0
H1665 H 0.52387 0.60892 0.37414 0.0
H1666 H 0.493 0.67198 0.34392 0.0
H1667 H 0.45629 0.6172 0.35753 0.0
C1668 C 0.43217 0.63527 0.37098 0.0
C1669 C 0.427 0.65399 0.38072 0.0
C1670 C 0.49987 0.65811 0.35033 0.0
C1671 C 0.46671 0.64787 0.3668 0.0
C1672 C 0.52052 0.65401 0.34673 0.0
C1673 C 0.52954 0.63637 0.35552 0.0
C1674 C 0.48827 0.644 0.36207 0.0
C1675 C 0.51741 0.6228 0.36731 0.0
C1676 C 0.45215 0.63202 0.36429 0.0
C1677 C 0.4419 0.66963 0.38254 0.0
N1678 N 0.49729 0.62679 0.3701 0.0
N1679 N 0.46119 0.66625 0.37558 0.0
H1680 H 0.87751 0.60511 0.81415 0.0
H1681 H 0.85434 0.6147 0.69397 0.0
H1682 H 0.81873 0.589 0.78824 0.0
H1683 H 0.91515 0.60415 0.71739 0.0
H1684 H 0.84066 0.60792 0.72865 0.0
H1685 H 0.89142 0.60765 0.77903 0.0
C1686 C 0.86754 0.60208 0.80107 0.0
C1687 C 0.84693 0.59689 0.80406 0.0
C1688 C 0.85698 0.60691 0.72615 0.0
C1689 C 0.86269 0.59994 0.76393 0.0
C1690 C 0.8648 0.61085 0.70641 0.0
C1691 C 0.8859 0.61006 0.7029 0.0
C1692 C 0.8704 0.60255 0.74253 0.0
C1693 C 0.89878 0.6049 0.71949 0.0
C1694 C 0.87552 0.60343 0.78105 0.0
C1695 C 0.83471 0.59305 0.78657 0.0
N1696 N 0.89083 0.60157 0.73871 0.0
N1697 N 0.84274 0.59485 0.7672 0.0
H1698 H 0.66426 0.60302 0.07149 0.0
H1699 H 0.59677 0.67508 -0.0016 0.0
H1700 H 0.60664 0.62975 0.0899 0.0
H1701 H 0.64807 0.63981 0.97571 0.0
H1702 H 0.60021 0.65818 0.03197 0.0
H1703 H 0.65875 0.61598 0.03628 0.0
C1704 C 0.65042 0.61153 0.06815 0.0
C1705 C 0.63595 0.61541 0.08375 0.0
C1706 C 0.61066 0.654 0.01964 0.0
C1707 C 0.62962 0.63028 0.04352 0.0
C1708 C 0.60874 0.66371 0.00046 0.0
C1709 C 0.62227 0.65898 0.98427 0.0
C1710 C 0.62635 0.63958 0.0228 0.0
C1711 C 0.63733 0.64394 0.98778 0.0
C1712 C 0.64728 0.61887 0.04802 0.0
C1713 C 0.61827 0.62644 0.07845 0.0
N1714 N 0.6391 0.6349 0.00677 0.0
N1715 N 0.61568 0.63359 0.05882 0.0
H1716 H 0.64225 0.38567 0.20717 0.0
H1717 H 0.61626 0.37424 0.32554 0.0
H1718 H 0.57987 0.38372 0.2286 0.0
H1719 H 0.66798 0.41121 0.30611 0.0
H1720 H 0.604 0.37364 0.28965 0.0
H1721 H 0.6536 0.39149 0.24306 0.0
C1722 C 0.63096 0.38657 0.21943 0.0
C1723 C 0.61011 0.38413 0.21503 0.0
C1724 C 0.61795 0.382 0.2933 0.0
C1725 C 0.62296 0.39042 0.25584 0.0
C1726 C 0.62501 0.38224 0.31369 0.0
C1727 C 0.64318 0.39273 0.31871 0.0
C1728 C 0.6294 0.39187 0.27774 0.0
C1729 C 0.65387 0.403 0.30283 0.0
C1730 C 0.63743 0.38999 0.2398 0.0
C1731 C 0.59608 0.38554 0.23138 0.0
N1732 N 0.64696 0.40207 0.28292 0.0
N1733 N 0.60278 0.38829 0.25116 0.0
H1734 H 0.8823 0.39561 0.57152 0.0
H1735 H 0.84619 0.3113 0.49315 0.0
H1736 H 0.82189 0.36931 0.57788 0.0
H1737 H 0.87716 0.36618 0.47066 0.0
H1738 H 0.8396 0.32923 0.52613 0.0
H1739 H 0.88395 0.38176 0.53603 0.0
C1740 C 0.86942 0.3869 0.56542 0.0
C1741 C 0.85198 0.38346 0.57756 0.0
C1742 C 0.84757 0.3374 0.51383 0.0
C1743 C 0.85388 0.36751 0.53739 0.0
C1744 C 0.85136 0.32721 0.49512 0.0
C1745 C 0.8622 0.33736 0.4793 0.0
C1746 C 0.85529 0.35754 0.51687 0.0
C1747 C 0.86863 0.35794 0.48251 0.0
C1748 C 0.87031 0.3792 0.5452 0.0
C1749 C 0.8356 0.37227 0.56894 0.0
N1750 N 0.86544 0.36727 0.50116 0.0
N1751 N 0.83707 0.36436 0.54942 0.0
H1752 H 0.89972 0.37597 0.77903 0.0
H1753 H 0.81901 0.42579 0.7004 0.0
H1754 H 0.84602 0.40984 0.79786 0.0
H1755 H 0.86998 0.38858 0.68034 0.0
H1756 H 0.83105 0.42309 0.73611 0.0
H1757 H 0.89126 0.38317 0.74271 0.0
C1758 C 0.88622 0.38499 0.77557 0.0
C1759 C 0.87346 0.39212 0.79155 0.0
C1760 C 0.8397 0.41559 0.72392 0.0
C1761 C 0.86375 0.40043 0.75008 0.0
C1762 C 0.83283 0.41716 0.70351 0.0
C1763 C 0.84341 0.40722 0.68744 0.0
C1764 C 0.85724 0.40392 0.72833 0.0
C1765 C 0.86131 0.39637 0.69232 0.0
C1766 C 0.88141 0.38908 0.75483 0.0
C1767 C 0.85622 0.40381 0.78611 0.0
N1768 N 0.8676 0.39487 0.71239 0.0
N1769 N 0.85185 0.40751 0.76586 0.0
H1770 H 0.89312 0.59781 0.91644 0.0
H1771 H 0.8528 0.6663 0.00772 0.0
H1772 H 0.83008 0.61692 0.91846 0.0
H1773 H 0.89271 0.61484 0.02113 0.0
H1774 H 0.84764 0.65259 0.97269 0.0
H1775 H 0.8968 0.60793 0.95307 0.0
C1776 C 0.88008 0.6041 0.92462 0.0
C1777 C 0.86128 0.60661 0.91451 0.0
C1778 C 0.85743 0.64427 0.98337 0.0
C1779 C 0.8655 0.6184 0.9559 0.0
C1780 C 0.86047 0.65211 0.00328 0.0
C1781 C 0.87319 0.64163 0.01725 0.0
C1782 C 0.86764 0.6262 0.97726 0.0
C1783 C 0.88272 0.62328 0.01075 0.0
C1784 C 0.88216 0.60971 0.94545 0.0
C1785 C 0.8448 0.61469 0.92576 0.0
N1786 N 0.87998 0.61623 0.99103 0.0
N1787 N 0.84737 0.6206 0.94583 0.0
H1788 H 0.65627 0.5973 0.30436 0.0
H1789 H 0.62737 0.61506 0.18503 0.0
H1790 H 0.59919 0.62385 0.284 0.0
H1791 H 0.68245 0.58461 0.20534 0.0
H1792 H 0.6169 0.61872 0.22123 0.0
H1793 H 0.66629 0.59298 0.26819 0.0
C1794 C 0.64583 0.60226 0.29231 0.0
C1795 C 0.62685 0.611 0.29728 0.0
C1796 C 0.63125 0.61119 0.21778 0.0
C1797 C 0.63828 0.60603 0.25576 0.0
C1798 C 0.63724 0.6091 0.19712 0.0
C1799 C 0.65581 0.59954 0.19222 0.0
C1800 C 0.64397 0.60372 0.23364 0.0
C1801 C 0.668 0.59209 0.20847 0.0
C1802 C 0.65157 0.59973 0.27163 0.0
C1803 C 0.61397 0.61705 0.28095 0.0
N1804 N 0.66189 0.59439 0.22848 0.0
N1805 N 0.61994 0.61447 0.26092 0.0
H1806 H 0.62822 0.37949 0.53534 0.0
H1807 H 0.64966 0.36364 0.41462 0.0
H1808 H 0.63128 0.31935 0.5057 0.0
H1809 H 0.66472 0.42069 0.44662 0.0
H1810 H 0.64097 0.34769 0.44781 0.0
H1811 H 0.63948 0.39568 0.50275 0.0
C1812 C 0.63122 0.36973 0.52197 0.0
C1813 C 0.62877 0.34809 0.52313 0.0
C1814 C 0.64631 0.36366 0.44762 0.0
C1815 C 0.64156 0.36638 0.48605 0.0
C1816 C 0.65126 0.37277 0.42868 0.0
C1817 C 0.65787 0.3935 0.42794 0.0
C1818 C 0.64774 0.37545 0.46593 0.0
C1819 C 0.65971 0.40462 0.4466 0.0
C1820 C 0.63774 0.37894 0.50347 0.0
C1821 C 0.63296 0.33611 0.50546 0.0
N1822 N 0.65448 0.3955 0.46489 0.0
N1823 N 0.63906 0.34542 0.48762 0.0
H1824 H 0.70965 0.84673 0.61623 0.0
H1825 H 0.82509 0.88462 0.62363 0.0
H1826 H 0.72544 0.91188 0.61932 0.0
H1827 H 0.80667 0.82496 0.599 0.0
H1828 H 0.78902 0.89496 0.62472 0.0
H1829 H 0.74562 0.83835 0.61216 0.0
C1830 C 0.72073 0.85929 0.61591 0.0
C1831 C 0.71464 0.88001 0.61814 0.0
C1832 C 0.79297 0.87966 0.619 0.0
C1833 C 0.75588 0.87053 0.61377 0.0
C1834 C 0.81348 0.87372 0.61851 0.0
C1835 C 0.8188 0.85388 0.61132 0.0
C1836 C 0.77784 0.86551 0.61252 0.0
C1837 C 0.80323 0.84039 0.60469 0.0
C1838 C 0.74126 0.85451 0.61355 0.0
C1839 C 0.72958 0.89571 0.61754 0.0
N1840 N 0.78347 0.84641 0.60558 0.0
N1841 N 0.74964 0.89063 0.61564 0.0
H1842 H 0.22462 0.57595 0.37778 0.0
H1843 H 0.30926 0.66103 0.40236 0.0
H1844 H 0.2097 0.64087 0.38465 0.0
H1845 H 0.32097 0.61028 0.36017 0.0
H1846 H 0.27333 0.65049 0.40385 0.0
H1847 H 0.26103 0.58509 0.37942 0.0
C1848 C 0.22902 0.59207 0.37997 0.0
C1849 C 0.21425 0.60773 0.38104 0.0
C1850 C 0.28383 0.64166 0.39434 0.0
C1851 C 0.25553 0.61813 0.38307 0.0
C1852 C 0.30428 0.64759 0.39352 0.0
C1853 C 0.31803 0.63654 0.38102 0.0
C1854 C 0.2772 0.6243 0.38299 0.0
C1855 C 0.31079 0.61929 0.36983 0.0
C1856 C 0.24972 0.59724 0.38072 0.0
C1857 C 0.22069 0.62838 0.38367 0.0
N1858 N 0.29082 0.61359 0.37117 0.0
N1859 N 0.24091 0.63301 0.38469 0.0
H1860 H 0.56044 0.03612 0.6625 0.0
H1861 H 0.64607 0.95667 0.62364 0.0
H1862 H 0.61301 0.05482 0.62654 0.0
H1863 H 0.59004 0.93806 0.65393 0.0
H1864 H 0.63509 0.99293 0.62569 0.0
H1865 H 0.57185 8e-05 0.66054 0.0
C1866 C 0.57437 0.03262 0.65416 0.0
C1867 C 0.58579 0.04843 0.64466 0.0
C1868 C 0.62522 0.98086 0.63186 0.0
C1869 C 0.599 0.00731 0.6424 0.0
C1870 C 0.6315 0.96018 0.63073 0.0
C1871 C 0.61894 0.94426 0.63856 0.0
C1872 C 0.60632 0.98564 0.64096 0.0
C1873 C 0.60021 0.94975 0.64759 0.0
C1874 C 0.58089 0.01206 0.65304 0.0
C1875 C 0.60374 0.04307 0.63408 0.0
N1876 N 0.5945 0.96995 0.64854 0.0
N1877 N 0.60982 0.02294 0.63325 0.0
H1878 H 0.17334 0.38608 0.91392 0.0
H1879 H 0.27425 0.36888 0.85051 0.0
H1880 H 0.17254 0.37058 0.84866 0.0
H1881 H 0.27198 0.41709 0.89711 0.0
H1882 H 0.23726 0.36483 0.85307 0.0
H1883 H 0.20994 0.39409 0.91116 0.0
C1884 C 0.18082 0.38457 0.89899 0.0
C1885 C 0.16994 0.37761 0.88148 0.0
C1886 C 0.24487 0.3763 0.86272 0.0
C1887 C 0.2116 0.38624 0.87843 0.0
C1888 C 0.26596 0.37849 0.86142 0.0
C1889 C 0.27612 0.39332 0.87366 0.0
C1890 C 0.23391 0.3887 0.87667 0.0
C1891 C 0.26464 0.40551 0.8874 0.0
C1892 C 0.20161 0.38917 0.89745 0.0
C1893 C 0.18032 0.37597 0.86251 0.0
N1894 N 0.24406 0.4028 0.8887 0.0
N1895 N 0.20066 0.37993 0.86156 0.0
H1896 H 0.41789 0.4468 0.67066 0.0
H1897 H 0.38563 0.53487 0.59294 0.0
H1898 H 0.40407 0.43205 0.60683 0.0
H1899 H 0.35485 0.53 0.65196 0.0
H1900 H 0.40121 0.5008 0.59904 0.0
H1901 H 0.40344 0.48177 0.66536 0.0
C1902 C 0.41217 0.45112 0.65548 0.0
C1903 C 0.4122 0.43681 0.63907 0.0
C1904 C 0.39106 0.50727 0.61062 0.0
C1905 C 0.39608 0.47623 0.63296 0.0
C1906 C 0.3822 0.52659 0.60718 0.0
C1907 C 0.36886 0.535 0.62193 0.0
C1908 C 0.38703 0.49671 0.62919 0.0
C1909 C 0.36489 0.52379 0.64016 0.0
C1910 C 0.4038 0.47084 0.65255 0.0
C1911 C 0.40431 0.4428 0.61978 0.0
N1912 N 0.37415 0.5052 0.64343 0.0
N1913 N 0.39672 0.4622 0.61716 0.0
H1914 H 0.78774 0.14954 0.09117 0.0
H1915 H 0.67204 0.11599 0.11423 0.0
H1916 H 0.77284 0.09208 0.12255 0.0
H1917 H 0.69097 0.17024 0.07966 0.0
H1918 H 0.70821 0.10603 0.1177 0.0
H1919 H 0.75175 0.1566 0.08724 0.0
C1920 C 0.77689 0.13835 0.09731 0.0
C1921 C 0.78344 0.1202 0.10732 0.0
C1922 C 0.70433 0.12005 0.10932 0.0
C1923 C 0.7417 0.12828 0.10276 0.0
C1924 C 0.68375 0.12572 0.10733 0.0
C1925 C 0.67852 0.14403 0.09676 0.0
C1926 C 0.7196 0.13284 0.10065 0.0
C1927 C 0.69423 0.15607 0.08807 0.0
C1928 C 0.75622 0.1424 0.09499 0.0
C1929 C 0.76849 0.10629 0.11475 0.0
N1930 N 0.71395 0.15029 0.09027 0.0
N1931 N 0.74827 0.11065 0.11239 0.0
H1932 H 0.65014 0.03467 0.88482 0.0
H1933 H 0.58073 0.94352 0.83871 0.0
H1934 H 0.59975 0.04509 0.84285 0.0
H1935 H 0.61837 0.93571 0.89324 0.0
H1936 H 0.5894 0.98043 0.83844 0.0
H1937 H 0.64059 -0.00213 0.88657 0.0
C1938 C 0.63708 0.02925 0.87599 0.0
C1939 C 0.62573 0.043 0.86367 0.0
C1940 C 0.59568 0.97066 0.85052 0.0
C1941 C 0.61483 0.00097 0.86553 0.0
C1942 C 0.59079 0.94956 0.85066 0.0
C1943 C 0.59884 0.93647 0.86603 0.0
C1944 C 0.60892 0.97874 0.8657 0.0
C1945 C 0.61175 0.94523 0.88115 0.0
C1946 C 0.63161 0.00827 0.87706 0.0
C1947 C 0.60891 0.0351 0.85261 0.0
N1948 N 0.6165 0.96581 0.88053 0.0
N1949 N 0.60405 0.0146 0.85372 0.0
H1950 H 0.89004 0.05993 0.32587 0.0
H1951 H 0.89631 0.95539 0.3913 0.0
H1952 H 0.90893 0.05814 0.39009 0.0
H1953 H 0.84923 0.96438 0.34526 0.0
H1954 H 0.90786 0.99113 0.38572 0.0
H1955 H 0.8812 0.02276 0.32795 0.0
C1956 C 0.89243 0.05168 0.34033 0.0
C1957 C 0.90008 0.06206 0.35789 0.0
C1958 C 0.8951 0.98519 0.37674 0.0
C1959 C 0.89045 0.01986 0.36018 0.0
C1960 C 0.88857 0.9648 0.37982 0.0
C1961 C 0.8717 0.95703 0.36883 0.0
C1962 C 0.8849 -0.00225 0.36234 0.0
C1963 C 0.8622 0.9699 0.35416 0.0
C1964 C 0.88734 0.0306 0.3415 0.0
C1965 C 0.90287 0.05075 0.37627 0.0
N1966 N 0.86895 0.98973 0.35132 0.0
N1967 N 0.89816 0.0302 0.3769 0.0
H1968 H 0.4117 0.27876 0.08476 0.0
H1969 H 0.36803 0.17111 0.12014 0.0
H1970 H 0.35642 0.27648 0.12105 0.0
H1971 H 0.42956 0.18694 0.13836 0.0
H1972 H 0.36291 0.20727 0.10897 0.0
H1973 H 0.41815 0.24211 0.09375 0.0
C1974 C 0.40094 0.27049 0.09455 0.0
C1975 C 0.38358 0.28048 0.10233 0.0
C1976 C 0.37757 0.20264 0.11519 0.0
C1977 C 0.39045 0.23895 0.11189 0.0
C1978 C 0.38055 0.18212 0.1214 0.0
C1979 C 0.39921 0.17624 0.13019 0.0
C1980 C 0.39358 0.21703 0.11723 0.0
C1981 C 0.41493 0.19104 0.13173 0.0
C1982 C 0.40464 0.24976 0.09965 0.0
C1983 C 0.37006 0.26926 0.11496 0.0
N1984 N 0.41182 0.21085 0.12516 0.0
N1985 N 0.37363 0.24892 0.11916 0.0
H1986 H 0.57941 0.63675 0.90812 0.0
H1987 H 0.48104 0.64836 0.83659 0.0
H1988 H 0.56055 0.69629 0.88421 0.0
H1989 H 0.48038 0.61158 0.89257 0.0
H1990 H 0.51618 0.65943 0.84473 0.0
H1991 H 0.54859 0.6209 0.893 0.0
C1992 C 0.56898 0.64638 0.89934 0.0
C1993 C 0.57232 0.66786 0.89753 0.0
C1994 C 0.5084 0.64861 0.85494 0.0
C1995 C 0.53759 0.64984 0.87998 0.0
C1996 C 0.48852 0.64221 0.85027 0.0
C1997 C 0.47794 0.62914 0.86402 0.0
C1998 C 0.51779 0.64139 0.87312 0.0
C1999 C 0.48809 0.62177 0.88169 0.0
C2000 C 0.55147 0.63736 0.89082 0.0
C2001 C 0.55834 0.67971 0.88611 0.0
N2002 N 0.50752 0.62799 0.88576 0.0
N2003 N 0.54152 0.67052 0.87772 0.0
H2004 H 0.11312 0.70273 0.64289 0.0
H2005 H 0.10923 0.8214 0.60929 0.0
H2006 H 0.11444 0.72146 0.57854 0.0
H2007 H 0.08577 0.79903 0.66784 0.0
H2008 H 0.11323 0.78525 0.59779 0.0
H2009 H 0.10514 0.73848 0.65271 0.0
C2010 C 0.11164 0.71436 0.63083 0.0
C2011 C 0.11447 0.70919 0.60989 0.0
C2012 C 0.10705 0.78832 0.61308 0.0
C2013 C 0.10557 0.75008 0.621 0.0
C2014 C 0.10482 0.8089 0.61965 0.0
C2015 C 0.09728 0.81316 0.63956 0.0
C2016 C 0.10196 0.77202 0.62667 0.0
C2017 C 0.0917 0.79643 0.65237 0.0
C2018 C 0.10702 0.73473 0.63643 0.0
C2019 C 0.11232 0.72483 0.59487 0.0
N2020 N 0.09435 0.7766 0.64578 0.0
N2021 N 0.10819 0.74467 0.60073 0.0
H2022 H 0.04851 0.33328 0.40772 0.0
H2023 H 0.92871 0.34891 0.39031 0.0
H2024 H 0.02455 0.36755 0.35552 0.0
H2025 H 0.95524 0.30593 0.43408 0.0
H2026 H 0.96323 0.35843 0.37868 0.0
H2027 H 0.01395 0.32536 0.4187 0.0
C2028 C 0.03596 0.33917 0.39851 0.0
C2029 C 0.03949 0.35117 0.38066 0.0
C2030 C 0.96141 0.34695 0.39085 0.0
C2031 C -0.00042 0.3421 0.39329 0.0
C2032 C 0.94175 0.34161 0.39758 0.0
C2033 C 0.93906 0.32656 0.41318 0.0
C2034 C 0.97841 0.3373 0.39992 0.0
C2035 C 0.9565 0.31752 0.42195 0.0
C2036 C 0.01616 0.33459 0.40481 0.0
C2037 C 0.02253 0.3582 0.36934 0.0
N2038 N 0.97535 0.32303 0.41521 0.0
N2039 N 0.00325 0.35363 0.3759 0.0
H2040 H 0.40937 0.81922 0.33404 0.0
H2041 H 0.35975 0.72474 0.39514 0.0
H2042 H 0.36046 0.82794 0.37811 0.0
H2043 H 0.39192 0.7175 0.33707 0.0
H2044 H 0.36103 0.76247 0.39066 0.0
H2045 H 0.40463 0.78178 0.33662 0.0
C2046 C 0.39763 0.81326 0.34432 0.0
C2047 C 0.38536 0.82675 0.35601 0.0
C2048 C 0.36765 0.75259 0.37884 0.0
C2049 C 0.3799 0.78377 0.35899 0.0
C2050 C 0.36702 0.73107 0.38141 0.0
C2051 C 0.37587 0.71795 0.36651 0.0
C2052 C 0.37747 0.76105 0.36142 0.0
C2053 C 0.38492 0.72701 0.34895 0.0
C2054 C 0.39486 0.79186 0.34566 0.0
C2055 C 0.37026 0.8181 0.36886 0.0
N2056 N 0.38566 0.74802 0.347 0.0
N2057 N 0.36806 0.79709 0.37016 0.0
H2058 H 0.00692 0.59262 0.13192 0.0
H2059 H 0.93888 0.68146 0.09424 0.0
H2060 H 0.01772 0.65328 0.15842 0.0
H2061 H 0.90957 0.62553 0.11645 0.0
H2062 H 0.97006 0.67161 0.11304 0.0
H2063 H 0.97274 0.60388 0.12115 0.0
C2064 C 0.00196 0.60825 0.1356 0.0
C2065 C 0.01493 0.62209 0.14606 0.0
C2066 C 0.95665 0.66172 0.11399 0.0
C2067 C 0.97648 0.6351 0.13339 0.0
C2068 C 0.93899 0.66723 0.10325 0.0
C2069 C 0.92178 0.65422 0.10386 0.0
C2070 C 0.95719 0.64277 0.12472 0.0
C2071 C 0.92257 0.63597 0.11572 0.0
C2072 C 0.98254 0.61458 0.12957 0.0
C2073 C 0.00797 0.64218 0.15049 0.0
N2074 N 0.9402 0.63051 0.12536 0.0
N2075 N 0.98927 0.6483 0.14372 0.0
H2076 H 0.10924 0.28707 0.90996 0.0
H2077 H 0.15248 0.1875 0.85435 0.0
H2078 H 0.13126 0.29205 0.84698 0.0
H2079 H 0.09424 0.18596 0.88553 0.0
H2080 H 0.15294 0.22571 0.85781 0.0
H2081 H 0.11184 0.24915 0.90755 0.0
C2082 C 0.11483 0.28016 0.89571 0.0
C2083 C 0.11997 0.29258 0.87859 0.0
C2084 C 0.1402 0.21687 0.86399 0.0
C2085 C 0.12334 0.24955 0.87599 0.0
C2086 C 0.13999 0.19522 0.86218 0.0
C2087 C 0.1233 0.18378 0.86971 0.0
C2088 C 0.12393 0.22682 0.87395 0.0
C2089 C 0.10733 0.19435 0.87951 0.0
C2090 C 0.11622 0.25862 0.89436 0.0
C2091 C 0.12701 0.28291 0.86043 0.0
N2092 N 0.10811 0.21533 0.88154 0.0
N2093 N 0.12864 0.26185 0.85963 0.0
H2094 H 0.58064 0.33895 0.62927 0.0
H2095 H 0.46249 0.35121 0.60548 0.0
H2096 H 0.55101 0.3148 0.57433 0.0
H2097 H 0.48654 0.35894 0.66742 0.0
H2098 H 0.49527 0.33767 0.59425 0.0
H2099 H 0.54691 0.34614 0.64425 0.0
C2100 C 0.56707 0.33497 0.62047 0.0
C2101 C 0.56862 0.32649 0.60043 0.0
C2102 C 0.49342 0.34212 0.61036 0.0
C2103 C 0.53021 0.33475 0.61735 0.0
C2104 C 0.47471 0.34993 0.61676 0.0
C2105 C 0.4719 0.35632 0.63735 0.0
C2106 C 0.50966 0.34102 0.62455 0.0
C2107 C 0.48816 0.35415 0.65138 0.0
C2108 C 0.54786 0.33904 0.62903 0.0
C2109 C 0.55058 0.32155 0.58974 0.0
N2110 N 0.50652 0.34693 0.64465 0.0
N2111 N 0.53218 0.32594 0.59824 0.0
H2112 H 0.12981 0.40282 0.29505 0.0
H2113 H 0.1171 0.37218 0.1757 0.0
H2114 H 0.07523 0.37359 0.27121 0.0
H2115 H 0.16826 0.40634 0.20106 0.0
H2116 H 0.10026 0.37393 0.2097 0.0
H2117 H 0.14242 0.40683 0.25977 0.0
C2118 C 0.12033 0.39756 0.28225 0.0
C2119 C 0.10155 0.38778 0.28593 0.0
C2120 C 0.11513 0.3811 0.20775 0.0
C2121 C 0.11611 0.39173 0.24546 0.0
C2122 C 0.12479 0.37999 0.18842 0.0
C2123 C 0.14416 0.38899 0.18563 0.0
C2124 C 0.12499 0.39125 0.22432 0.0
C2125 C 0.15339 0.39906 0.20253 0.0
C2126 C 0.12756 0.39976 0.2621 0.0
C2127 C 0.08978 0.3813 0.2689 0.0
N2128 N 0.14375 0.39985 0.22112 0.0
N2129 N 0.09742 0.38308 0.24931 0.0
H2130 H 0.32928 0.39588 0.92811 0.0
H2131 H 0.38692 0.34438 0.02381 0.0
H2132 H 0.38526 0.3614 0.92071 0.0
H2133 H 0.34548 0.39599 0.03011 0.0
H2134 H 0.38413 0.34713 0.98604 0.0
H2135 H 0.33221 0.39211 0.96559 0.0
C2136 C 0.34211 0.38733 0.93431 0.0
C2137 C 0.35711 0.379 0.92115 0.0
C2138 C 0.37574 0.35789 0.99571 0.0
C2139 C 0.36052 0.37475 0.96422 0.0
C2140 C 0.37728 0.35633 0.01725 0.0
C2141 C 0.3664 0.36999 0.03013 0.0
C2142 C 0.36299 0.373 0.98699 0.0
C2143 C 0.35421 0.38522 0.02078 0.0
C2144 C 0.34382 0.38534 0.95576 0.0
C2145 C 0.37338 0.36814 0.93022 0.0
N2146 N 0.35271 0.38621 -0.00024 0.0
N2147 N 0.37465 0.36632 0.95123 0.0
H2148 H 0.38511 0.58069 0.66774 0.0
H2149 H 0.37766 0.62923 0.77913 0.0
H2150 H 0.36724 0.64454 0.67692 0.0
H2151 H 0.42989 0.59147 0.76402 0.0
H2152 H 0.36809 0.62958 0.7425 0.0
H2153 H 0.39699 0.57946 0.70395 0.0
C2154 C 0.38378 0.59445 0.67736 0.0
C2155 C 0.3752 0.61277 0.66943 0.0
C2156 C 0.38159 0.62117 0.74725 0.0
C2157 C 0.38822 0.61123 0.71059 0.0
C2158 C 0.38698 0.62078 0.76813 0.0
C2159 C 0.4046 0.61029 0.77456 0.0
C2160 C 0.39363 0.61061 0.73276 0.0
C2161 C 0.41621 0.59976 0.75961 0.0
C2162 C 0.3906 0.59373 0.69789 0.0
C2163 C 0.37386 0.63018 0.68244 0.0
N2164 N 0.41043 0.60004 0.7393 0.0
N2165 N 0.38003 0.62889 0.70253 0.0
H2166 H 0.1519 0.65158 0.53088 0.0
H2167 H 0.10227 0.59976 0.4316 0.0
H2168 H 0.12119 0.59223 0.53512 0.0
H2169 H 0.16202 0.62814 0.42854 0.0
H2170 H 0.10309 0.60333 0.46965 0.0
H2171 H 0.15033 0.6492 0.49286 0.0
C2172 C 0.14488 0.63804 0.52376 0.0
C2173 C 0.13679 0.62199 0.53602 0.0
C2174 C 0.1159 0.6089 0.46054 0.0
C2175 C 0.13441 0.61954 0.49289 0.0
C2176 C 0.11536 0.60708 0.43893 0.0
C2177 C 0.1321 0.61371 0.42706 0.0
C2178 C 0.13304 0.61789 0.47012 0.0
C2179 C 0.14884 0.62282 0.43724 0.0
C2180 C 0.144 0.63672 0.50218 0.0
C2181 C 0.1278 0.60479 0.52613 0.0
N2182 N 0.14885 0.62478 0.45823 0.0
N2183 N 0.12663 0.60411 0.50506 0.0
H2184 H 0.08287 0.61859 0.22143 0.0
H2185 H 0.16784 0.58183 0.30238 0.0
H2186 H 0.14026 0.59015 0.20497 0.0
H2187 H 0.11564 0.61789 0.32127 0.0
H2188 H 0.1564 0.58371 0.26666 0.0
H2189 H 0.09325 0.61784 0.25806 0.0
C2190 C 0.09764 0.61226 0.22546 0.0
C2191 C 0.11069 0.60439 0.21005 0.0
C2192 C 0.14738 0.59128 0.27853 0.0
C2193 C 0.12252 0.60342 0.2518 0.0
C2194 C 0.1539 0.59017 0.299 0.0
C2195 C 0.1427 0.59978 0.31482 0.0
C2196 C 0.12943 0.60204 0.27367 0.0
C2197 C 0.12473 0.61032 0.30948 0.0
C2198 C 0.10353 0.61185 0.24636 0.0
C2199 C 0.12964 0.59639 0.2162 0.0
N2200 N 0.11861 0.61118 0.28927 0.0
N2201 N 0.13491 0.59607 0.23654 0.0
H2202 H 0.10211 0.3874 0.07258 0.0
H2203 H 0.15456 0.34943 0.96948 0.0
H2204 H 0.16738 0.37912 0.06898 0.0
H2205 H 0.10174 0.38919 0.96797 0.0
H2206 H 0.1584 0.35671 0.00662 0.0
H2207 H 0.1001 0.38421 0.0347 0.0
C2208 C 0.11599 0.38482 0.06382 0.0
C2209 C 0.13493 0.38343 0.07388 0.0
C2210 C 0.14612 0.36401 -0.00192 0.0
C2211 C 0.1327 0.37971 0.03078 0.0
C2212 C 0.1439 0.35985 0.97697 0.0
C2213 C 0.12781 0.36874 0.96577 0.0
C2214 C 0.13183 0.37669 0.0081 0.0
C2215 C 0.11441 0.38214 0.97611 0.0
C2216 C 0.11484 0.3832 0.04225 0.0
C2217 C 0.15248 0.38031 0.0618 0.0
N2218 N 0.11652 0.38548 0.99684 0.0
N2219 N 0.15091 0.37833 0.04086 0.0
H2220 H 0.3307 0.42376 0.79876 0.0
H2221 H 0.40974 0.37652 0.71716 0.0
H2222 H 0.37379 0.37592 0.81512 0.0
H2223 H 0.36437 0.42287 0.70286 0.0
H2224 H 0.39945 0.37801 0.75373 0.0
H2225 H 0.34533 0.42537 0.76422 0.0
C2226 C 0.34328 0.41354 0.79506 0.0
C2227 C 0.35092 0.39952 0.80976 0.0
C2228 C 0.3919 0.38794 0.74257 0.0
C2229 C 0.36783 0.40127 0.77002 0.0
C2230 C 0.39779 0.38717 0.72172 0.0
C2231 C 0.38773 0.39942 0.70688 0.0
C2232 C 0.37591 0.40111 0.74854 0.0
C2233 C 0.37239 0.41294 0.71367 0.0
C2234 C 0.35169 0.41451 0.7753 0.0
C2235 C 0.36738 0.38684 0.80415 0.0
N2236 N 0.3669 0.41331 0.73395 0.0
N2237 N 0.37525 0.38791 0.7846 0.0
H2238 H 0.36429 0.61201 0.45033 0.0
H2239 H 0.36011 0.6401 0.56984 0.0
H2240 H 0.36286 0.67582 0.47106 0.0
H2241 H 0.33606 0.58264 0.54493 0.0
H2242 H 0.36347 0.65355 0.53434 0.0
H2243 H 0.35667 0.60065 0.48562 0.0
C2244 C 0.36238 0.62363 0.46235 0.0
C2245 C 0.36427 0.64487 0.45785 0.0
C2246 C 0.35726 0.63809 0.53672 0.0
C2247 C 0.35564 0.63199 0.49825 0.0
C2248 C 0.35539 0.6304 0.55691 0.0
C2249 C 0.34794 0.61019 0.56025 0.0
C2250 C 0.35197 0.6253 0.51987 0.0
C2251 C 0.34194 0.59829 0.54303 0.0
C2252 C 0.3579 0.61715 0.48245 0.0
C2253 C 0.3615 0.65929 0.47395 0.0
N2254 N 0.34432 0.60594 0.52355 0.0
N2255 N 0.35751 0.65257 0.49357 0.0
H2256 H 0.17252 0.11163 0.40374 0.0
H2257 H 0.28875 0.14116 0.38919 0.0
H2258 H 0.20047 0.166 0.4313 0.0
H2259 H 0.26856 0.07733 0.38467 0.0
H2260 H 0.25552 0.15063 0.40309 0.0
H2261 H 0.20669 0.09833 0.3956 0.0
C2262 C 0.18581 0.12061 0.40832 0.0
C2263 C 0.18367 0.14006 0.41798 0.0
C2264 C 0.25836 0.1345 0.39923 0.0
C2265 C 0.22252 0.12513 0.40854 0.0
C2266 C 0.27728 0.12912 0.39116 0.0
C2267 C 0.28131 0.10847 0.38569 0.0
C2268 C 0.24316 0.11921 0.40149 0.0
C2269 C 0.26598 0.09345 0.38873 0.0
C2270 C 0.20526 0.11301 0.4037 0.0
C2271 C 0.20137 0.15103 0.42365 0.0
N2272 N 0.2474 0.09916 0.39622 0.0
N2273 N 0.22002 0.14354 0.41861 0.0
H2274 H 0.78401 0.35244 0.62381 0.0
H2275 H 0.66651 0.36283 0.59516 0.0
H2276 H 0.75651 0.41275 0.61572 0.0
H2277 H 0.70479 0.31411 0.57094 0.0
H2278 H 0.69698 0.37948 0.61042 0.0
H2279 H 0.75219 0.33611 0.6123 0.0
C2280 C 0.7712 0.36225 0.6198 0.0
C2281 C 0.77288 0.38397 0.62058 0.0
C2282 C 0.69857 0.3651 0.60182 0.0
C2283 C 0.73649 0.36538 0.60763 0.0
C2284 C 0.68127 0.35557 0.59325 0.0
C2285 C 0.68324 0.33716 0.58174 0.0
C2286 C 0.71773 0.35578 0.59926 0.0
C2287 C 0.70267 0.32839 0.57957 0.0
C2288 C 0.75312 0.35292 0.61317 0.0
C2289 C 0.75583 0.39594 0.61517 0.0
N2290 N 0.71916 0.33772 0.58835 0.0
N2291 N 0.73824 0.38646 0.60894 0.0
H2292 H 0.43318 0.9508 0.33972 0.0
H2293 H 0.344 0.03062 0.36698 0.0
H2294 H 0.37592 0.93114 0.36665 0.0
H2295 H 0.4014 0.04737 0.33829 0.0
H2296 H 0.35478 0.99421 0.36726 0.0
H2297 H 0.42139 0.98646 0.33994 0.0
C2298 C 0.41809 0.95402 0.34576 0.0
C2299 C 0.40547 0.938 0.35314 0.0
C2300 C 0.36494 0.0059 0.36088 0.0
C2301 C 0.39175 0.97897 0.35333 0.0
C2302 C 0.3588 0.02667 0.36064 0.0
C2303 C 0.37185 0.04213 0.35266 0.0
C2304 C 0.38424 0.00062 0.35308 0.0
C2305 C 0.39083 0.03608 0.34468 0.0
C2306 C 0.41133 0.97443 0.34585 0.0
C2307 C 0.38611 0.9431 0.36086 0.0
N2308 N 0.39644 0.01585 0.34516 0.0
N2309 N 0.37977 0.96322 0.3607 0.0
H2310 H 0.82602 0.62445 0.08812 0.0
H2311 H 0.70947 0.64313 0.11301 0.0
H2312 H 0.7906 0.67128 0.05662 0.0
H2313 H 0.73435 0.58115 0.11423 0.0
H2314 H 0.74118 0.65578 0.09738 0.0
H2315 H 0.79429 0.61 0.10267 0.0
C2316 C 0.81159 0.63164 0.08425 0.0
C2317 C 0.8109 0.64907 0.07116 0.0
C2318 C 0.73967 0.63941 0.10105 0.0
C2319 C 0.77489 0.63292 0.08793 0.0
C2320 C 0.72166 0.63221 0.11007 0.0
C2321 C 0.71935 0.61108 0.11488 0.0
C2322 C 0.75562 0.62547 0.09725 0.0
C2323 C 0.73556 0.59755 0.11064 0.0
C2324 C 0.79357 0.62335 0.09246 0.0
C2325 C 0.79182 0.65776 0.06656 0.0
N2326 N 0.75317 0.60502 0.1022 0.0
N2327 N 0.77459 0.64974 0.07513 0.0
H2328 H 0.57706 0.55264 0.34359 0.0
H2329 H 0.6769 0.48629 0.36766 0.0
H2330 H 0.63058 0.5797 0.37219 0.0
H2331 H 0.61651 0.45964 0.36237 0.0
H2332 H 0.662 0.52111 0.36381 0.0
H2333 H 0.5932 0.51856 0.3451 0.0
C2334 C 0.59221 0.55139 0.35021 0.0
C2335 C 0.60248 0.56895 0.35786 0.0
C2336 C 0.6521 0.50757 0.36343 0.0
C2337 C 0.6211 0.53012 0.35942 0.0
C2338 C 0.66058 0.48778 0.36548 0.0
C2339 C 0.64787 0.47017 0.36542 0.0
C2340 C 0.63089 0.50957 0.36097 0.0
C2341 C 0.62682 0.47285 0.36266 0.0
C2342 C 0.6014 0.53196 0.35107 0.0
C2343 C 0.62211 0.56649 0.36623 0.0
N2344 N 0.61899 0.49218 0.36051 0.0
N2345 N 0.63086 0.54739 0.36672 0.0
H2346 H 0.2261 0.90285 0.8745 0.0
H2347 H 0.29919 0.81917 0.92782 0.0
H2348 H 0.20583 0.84967 0.91004 0.0
H2349 H 0.32261 0.86897 0.88958 0.0
H2350 H 0.26501 0.83266 0.92351 0.0
H2351 H 0.26162 0.89307 0.88166 0.0
C2352 C 0.22909 0.88921 0.88385 0.0
C2353 C 0.21295 0.87694 0.8915 0.0
C2354 C 0.27755 0.84075 0.91604 0.0
C2355 C 0.25335 0.8658 0.89976 0.0
C2356 C 0.29713 0.83302 0.9185 0.0
C2357 C 0.31374 0.84285 0.90886 0.0
C2358 C 0.27438 0.85844 0.90372 0.0
C2359 C 0.31015 0.86089 0.89719 0.0
C2360 C 0.24934 0.88365 0.8879 0.0
C2361 C 0.2177 0.85948 0.90358 0.0
N2362 N 0.29076 0.86807 0.89479 0.0
N2363 N 0.23741 0.85446 0.90726 0.0
H2364 H 0.31027 0.9751 0.12093 0.0
H2365 H 0.39389 0.0579 0.15793 0.0
H2366 H 0.36857 0.9583 0.14697 0.0
H2367 H 0.35294 0.07038 0.10687 0.0
H2368 H 0.37946 0.02297 0.16072 0.0
H2369 H 0.32059 0.012 0.1225 0.0
C2370 C 0.32503 0.97924 0.12735 0.0
C2371 C 0.33867 0.96379 0.13375 0.0
C2372 C 0.3736 0.03341 0.14897 0.0
C2373 C 0.3504 0.00549 0.13568 0.0
C2374 C 0.3818 0.05335 0.14735 0.0
C2375 C 0.37477 0.06703 0.13198 0.0
C2376 C 0.35805 0.02712 0.13532 0.0
C2377 C 0.35899 0.06024 0.11877 0.0
C2378 C 0.33096 0.00017 0.12807 0.0
C2379 C 0.3577 0.96981 0.14175 0.0
N2380 N 0.35113 0.04072 0.12074 0.0
N2381 N 0.363 0.9902 0.14251 0.0
H2382 H 0.09861 0.93183 0.60223 0.0
H2383 H 0.16461 0.02301 0.65058 0.0
H2384 H 0.13187 0.92302 0.65938 0.0
H2385 H 0.10336 0.03423 0.62874 0.0
H2386 H 0.15881 0.98548 0.64625 0.0
H2387 H 0.10657 0.96926 0.6039 0.0
C2388 C 0.10787 0.93775 0.61488 0.0
C2389 C 0.11461 0.92452 0.63072 0.0
C2390 C 0.14673 0.99625 0.64237 0.0
C2391 C 0.12387 0.96674 0.63252 0.0
C2392 C 0.15 0.01754 0.64479 0.0
C2393 C 0.13435 0.03158 0.64015 0.0
C2394 C 0.12794 0.98912 0.63467 0.0
C2395 C 0.11569 0.02381 0.6327 0.0
C2396 C 0.11224 0.959 0.6159 0.0
C2397 C 0.12637 0.93285 0.64694 0.0
N2398 N 0.11303 0.00302 0.63001 0.0
N2399 N 0.13076 0.95349 0.64738 0.0
loop_
_geom_bond_atom_site_label_1
_geom_bond_atom_site_label_2
_geom_bond_distance
_geom_bond_site_symmetry_2
_ccdc_geom_bond_type
Co0 O1 2.216 . S
Co0 O2 2.091 . S
Co0 O4 2.004 . S
Co0 O10 2.021 . S
Co0 O12 2.137 . S
Co0 O13 2.244 . S
O1 Co0 2.216 . S
O1 C8 1.247 . S
O2 Co0 2.091 . S
O2 C8 1.261 . S
C3 O12 1.247 . S
C3 O13 1.272 . S
O4 Co0 2.004 . S
O4 C9 1.259 . S
Co5 O6 2.061 . S
Co5 O11 2.052 . S
Co5 O13 2.135 . S
O6 Co5 2.061 . S
O6 C9 1.235 . S
C7 O10 1.238 . S
C7 O11 1.241 . S
C8 O1 1.247 . S
C8 O2 1.261 . S
C9 O4 1.259 . S
C9 O6 1.235 . S
O10 Co0 2.021 . S
O10 C7 1.238 . S
O11 Co5 2.052 . S
O11 C7 1.241 . S
O12 Co0 2.137 . S
O12 C3 1.247 . S
O13 Co0 2.244 . S
O13 C3 1.272 . S
O13 Co5 2.135 . S
Co14 O15 2.216 . S
Co14 O16 2.091 . S
Co14 O18 2.004 . S
Co14 O24 2.021 . S
Co14 O26 2.137 . S
Co14 O27 2.244 . S
O15 Co14 2.216 . S
O15 C22 1.247 . S
O16 Co14 2.091 . S
O16 C22 1.261 . S
C17 O26 1.247 . S
C17 O27 1.272 . S
O18 Co14 2.004 . S
O18 C23 1.259 . S
Co19 O20 2.061 . S
Co19 O25 2.052 . S
Co19 O27 2.135 . S
O20 Co19 2.061 . S
O20 C23 1.235 . S
C21 O24 1.238 . S
C21 O25 1.241 . S
C22 O15 1.247 . S
C22 O16 1.261 . S
C23 O18 1.259 . S
C23 O20 1.235 . S
O24 Co14 2.021 . S
O24 C21 1.238 . S
O25 Co19 2.052 . S
O25 C21 1.241 . S
O26 Co14 2.137 . S
O26 C17 1.247 . S
O27 Co14 2.244 . S
O27 C17 1.272 . S
O27 Co19 2.135 . S
Co28 O29 2.216 . S
Co28 O30 2.091 . S
Co28 O32 2.004 . S
Co28 O38 2.021 . S
Co28 O40 2.137 . S
Co28 O41 2.244 . S
O29 Co28 2.216 . S
O29 C36 1.247 . S
O30 Co28 2.091 . S
O30 C36 1.261 . S
C31 O40 1.247 . S
C31 O41 1.272 . S
O32 Co28 2.004 . S
O32 C37 1.259 . S
Co33 O34 2.061 . S
Co33 O39 2.052 . S
Co33 O41 2.135 . S
O34 Co33 2.061 . S
O34 C37 1.235 . S
C35 O38 1.238 . S
C35 O39 1.241 . S
C36 O29 1.247 . S
C36 O30 1.261 . S
C37 O32 1.259 . S
C37 O34 1.235 . S
O38 Co28 2.021 . S
O38 C35 1.238 . S
O39 Co33 2.052 . S
O39 C35 1.241 . S
O40 Co28 2.137 . S
O40 C31 1.247 . S
O41 Co28 2.244 . S
O41 C31 1.272 . S
O41 Co33 2.135 . S
Co42 O43 2.216 . S
Co42 O44 2.091 . S
Co42 O46 2.004 . S
Co42 O52 2.021 . S
Co42 O54 2.137 . S
Co42 O55 2.244 . S
O43 Co42 2.216 . S
O43 C50 1.247 . S
O44 Co42 2.091 . S
O44 C50 1.261 . S
C45 O54 1.247 . S
C45 O55 1.272 . S
O46 Co42 2.004 . S
O46 C51 1.259 . S
Co47 O48 2.061 . S
Co47 O53 2.052 . S
Co47 O55 2.135 . S
O48 Co47 2.061 . S
O48 C51 1.235 . S
C49 O52 1.238 . S
C49 O53 1.241 . S
C50 O43 1.247 . S
C50 O44 1.261 . S
C51 O46 1.259 . S
C51 O48 1.235 . S
O52 Co42 2.021 . S
O52 C49 1.238 . S
O53 Co47 2.052 . S
O53 C49 1.241 . S
O54 Co42 2.137 . S
O54 C45 1.247 . S
O55 Co42 2.244 . S
O55 C45 1.272 . S
O55 Co47 2.135 . S
Co56 O57 2.216 . S
Co56 O58 2.091 . S
Co56 O60 2.004 . S
Co56 O66 2.021 . S
Co56 O68 2.137 . S
Co56 O69 2.244 . S
O57 Co56 2.216 . S
O57 C64 1.247 . S
O58 Co56 2.091 . S
O58 C64 1.261 . S
C59 O68 1.247 . S
C59 O69 1.272 . S
O60 Co56 2.004 . S
O60 C65 1.259 . S
Co61 O62 2.061 . S
Co61 O67 2.052 . S
Co61 O69 2.135 . S
O62 Co61 2.061 . S
O62 C65 1.235 . S
C63 O66 1.238 . S
C63 O67 1.241 . S
C64 O57 1.247 . S
C64 O58 1.261 . S
C65 O60 1.259 . S
C65 O62 1.235 . S
O66 Co56 2.021 . S
O66 C63 1.238 . S
O67 Co61 2.052 . S
O67 C63 1.241 . S
O68 Co56 2.137 . S
O68 C59 1.247 . S
O69 Co56 2.244 . S
O69 C59 1.272 . S
O69 Co61 2.135 . S
Co70 O71 2.216 . S
Co70 O72 2.091 . S
Co70 O74 2.004 . S
Co70 O80 2.021 . S
Co70 O82 2.137 . S
Co70 O83 2.244 . S
O71 Co70 2.216 . S
O71 C78 1.247 . S
O72 Co70 2.091 . S
O72 C78 1.261 . S
C73 O82 1.247 . S
C73 O83 1.272 . S
O74 Co70 2.004 . S
O74 C79 1.259 . S
Co75 O76 2.061 . S
Co75 O81 2.052 . S
Co75 O83 2.135 . S
O76 Co75 2.061 . S
O76 C79 1.235 . S
C77 O80 1.238 . S
C77 O81 1.241 . S
C78 O71 1.247 . S
C78 O72 1.261 . S
C79 O74 1.259 . S
C79 O76 1.235 . S
O80 Co70 2.021 . S
O80 C77 1.238 . S
O81 Co75 2.052 . S
O81 C77 1.241 . S
O82 Co70 2.137 . S
O82 C73 1.247 . S
O83 Co70 2.244 . S
O83 C73 1.272 . S
O83 Co75 2.135 . S
Co84 O85 2.216 . S
Co84 O86 2.091 . S
Co84 O88 2.004 . S
Co84 O94 2.021 . S
Co84 O96 2.137 . S
Co84 O97 2.244 . S
O85 Co84 2.216 . S
O85 C92 1.247 . S
O86 Co84 2.091 . S
O86 C92 1.261 . S
C87 O96 1.247 . S
C87 O97 1.272 . S
O88 Co84 2.004 . S
O88 C93 1.259 . S
Co89 O90 2.061 . S
Co89 O95 2.052 . S
Co89 O97 2.135 . S
O90 Co89 2.061 . S
O90 C93 1.235 . S
C91 O94 1.238 . S
C91 O95 1.241 . S
C92 O85 1.247 . S
C92 O86 1.261 . S
C93 O88 1.259 . S
C93 O90 1.235 . S
O94 Co84 2.021 . S
O94 C91 1.238 . S
O95 Co89 2.052 . S
O95 C91 1.241 . S
O96 Co84 2.137 . S
O96 C87 1.247 . S
O97 Co84 2.244 . S
O97 C87 1.272 . S
O97 Co89 2.135 . S
Co98 O99 2.216 . S
Co98 O100 2.091 . S
Co98 O102 2.004 . S
Co98 O108 2.021 . S
Co98 O110 2.137 . S
Co98 O111 2.244 . S
O99 Co98 2.216 . S
O99 C106 1.247 . S
O100 Co98 2.091 . S
O100 C106 1.261 . S
C101 O110 1.247 . S
C101 O111 1.272 . S
O102 Co98 2.004 . S
O102 C107 1.259 . S
Co103 O104 2.061 . S
Co103 O109 2.052 . S
Co103 O111 2.135 . S
O104 Co103 2.061 . S
O104 C107 1.235 . S
C105 O108 1.238 . S
C105 O109 1.241 . S
C106 O99 1.247 . S
C106 O100 1.261 . S
C107 O102 1.259 . S
C107 O104 1.235 . S
O108 Co98 2.021 . S
O108 C105 1.238 . S
O109 Co103 2.052 . S
O109 C105 1.241 . S
O110 Co98 2.137 . S
O110 C101 1.247 . S
O111 Co98 2.244 . S
O111 C101 1.272 . S
O111 Co103 2.135 . S
Co112 O113 2.216 . S
Co112 O114 2.091 . S
Co112 O116 2.004 . S
Co112 O122 2.021 . S
Co112 O124 2.137 . S
Co112 O125 2.244 . S
O113 Co112 2.216 . S
O113 C120 1.247 . S
O114 Co112 2.091 . S
O114 C120 1.261 . S
C115 O124 1.247 . S
C115 O125 1.272 . S
O116 Co112 2.004 . S
O116 C121 1.259 . S
Co117 O118 2.061 . S
Co117 O123 2.052 . S
Co117 O125 2.135 . S
O118 Co117 2.061 . S
O118 C121 1.235 . S
C119 O122 1.238 . S
C119 O123 1.241 . S
C120 O113 1.247 . S
C120 O114 1.261 . S
C121 O116 1.259 . S
C121 O118 1.235 . S
O122 Co112 2.021 . S
O122 C119 1.238 . S
O123 Co117 2.052 . S
O123 C119 1.241 . S
O124 Co112 2.137 . S
O124 C115 1.247 . S
O125 Co112 2.244 . S
O125 C115 1.272 . S
O125 Co117 2.135 . S
Co126 O127 2.216 . S
Co126 O128 2.091 . S
Co126 O130 2.004 . S
Co126 O136 2.021 . S
Co126 O138 2.137 . S
Co126 O139 2.244 . S
O127 Co126 2.216 . S
O127 C134 1.247 . S
O128 Co126 2.091 . S
O128 C134 1.261 . S
C129 O138 1.247 . S
C129 O139 1.272 . S
O130 Co126 2.004 . S
O130 C135 1.259 . S
Co131 O132 2.061 . S
Co131 O137 2.052 . S
Co131 O139 2.135 . S
O132 Co131 2.061 . S
O132 C135 1.235 . S
C133 O136 1.238 . S
C133 O137 1.241 . S
C134 O127 1.247 . S
C134 O128 1.261 . S
C135 O130 1.259 . S
C135 O132 1.235 . S
O136 Co126 2.021 . S
O136 C133 1.238 . S
O137 Co131 2.052 . S
O137 C133 1.241 . S
O138 Co126 2.137 . S
O138 C129 1.247 . S
O139 Co126 2.244 . S
O139 C129 1.272 . S
O139 Co131 2.135 . S
Co140 O141 2.216 . S
Co140 O142 2.091 . S
Co140 O144 2.004 . S
Co140 O150 2.021 . S
Co140 O152 2.137 . S
Co140 O153 2.244 . S
O141 Co140 2.216 . S
O141 C148 1.247 . S
O142 Co140 2.091 . S
O142 C148 1.261 . S
C143 O152 1.247 . S
C143 O153 1.272 . S
O144 Co140 2.004 . S
O144 C149 1.259 . S
Co145 O146 2.061 . S
Co145 O151 2.052 . S
Co145 O153 2.135 . S
O146 Co145 2.061 . S
O146 C149 1.235 . S
C147 O150 1.238 . S
C147 O151 1.241 . S
C148 O141 1.247 . S
C148 O142 1.261 . S
C149 O144 1.259 . S
C149 O146 1.235 . S
O150 Co140 2.021 . S
O150 C147 1.238 . S
O151 Co145 2.052 . S
O151 C147 1.241 . S
O152 Co140 2.137 . S
O152 C143 1.247 . S
O153 Co140 2.244 . S
O153 C143 1.272 . S
O153 Co145 2.135 . S
Co154 O155 2.216 . S
Co154 O156 2.091 . S
Co154 O158 2.004 . S
Co154 O164 2.021 . S
Co154 O166 2.137 . S
Co154 O167 2.244 . S
O155 Co154 2.216 . S
O155 C162 1.247 . S
O156 Co154 2.091 . S
O156 C162 1.261 . S
C157 O166 1.247 . S
C157 O167 1.272 . S
O158 Co154 2.004 . S
O158 C163 1.259 . S
Co159 O160 2.061 . S
Co159 O165 2.052 . S
Co159 O167 2.135 . S
O160 Co159 2.061 . S
O160 C163 1.235 . S
C161 O164 1.238 . S
C161 O165 1.241 . S
C162 O155 1.247 . S
C162 O156 1.261 . S
C163 O158 1.259 . S
C163 O160 1.235 . S
O164 Co154 2.021 . S
O164 C161 1.238 . S
O165 Co159 2.052 . S
O165 C161 1.241 . S
O166 Co154 2.137 . S
O166 C157 1.247 . S
O167 Co154 2.244 . S
O167 C157 1.272 . S
O167 Co159 2.135 . S
Co168 O169 2.216 . S
Co168 O170 2.091 . S
Co168 O172 2.004 . S
Co168 O178 2.021 . S
Co168 O180 2.137 . S
Co168 O181 2.244 . S
O169 Co168 2.216 . S
O169 C176 1.247 . S
O170 Co168 2.091 . S
O170 C176 1.261 . S
C171 O180 1.247 . S
C171 O181 1.272 . S
O172 Co168 2.004 . S
O172 C177 1.259 . S
Co173 O174 2.061 . S
Co173 O179 2.052 . S
Co173 O181 2.135 . S
O174 Co173 2.061 . S
O174 C177 1.235 . S
C175 O178 1.238 . S
C175 O179 1.241 . S
C176 O169 1.247 . S
C176 O170 1.261 . S
C177 O172 1.259 . S
C177 O174 1.235 . S
O178 Co168 2.021 . S
O178 C175 1.238 . S
O179 Co173 2.052 . S
O179 C175 1.241 . S
O180 Co168 2.137 . S
O180 C171 1.247 . S
O181 Co168 2.244 . S
O181 C171 1.272 . S
O181 Co173 2.135 . S
Co182 O183 2.216 . S
Co182 O184 2.091 . S
Co182 O186 2.004 . S
Co182 O192 2.021 . S
Co182 O194 2.137 . S
Co182 O195 2.244 . S
O183 Co182 2.216 . S
O183 C190 1.247 . S
O184 Co182 2.091 . S
O184 C190 1.261 . S
C185 O194 1.247 . S
C185 O195 1.272 . S
O186 Co182 2.004 . S
O186 C191 1.259 . S
Co187 O188 2.061 . S
Co187 O193 2.052 . S
Co187 O195 2.135 . S
O188 Co187 2.061 . S
O188 C191 1.235 . S
C189 O192 1.238 . S
C189 O193 1.241 . S
C190 O183 1.247 . S
C190 O184 1.261 . S
C191 O186 1.259 . S
C191 O188 1.235 . S
O192 Co182 2.021 . S
O192 C189 1.238 . S
O193 Co187 2.052 . S
O193 C189 1.241 . S
O194 Co182 2.137 . S
O194 C185 1.247 . S
O195 Co182 2.244 . S
O195 C185 1.272 . S
O195 Co187 2.135 . S
Co196 O197 2.216 . S
Co196 O198 2.091 . S
Co196 O200 2.004 . S
Co196 O206 2.021 . S
Co196 O208 2.137 . S
Co196 O209 2.244 . S
O197 Co196 2.216 . S
O197 C204 1.247 . S
O198 Co196 2.091 . S
O198 C204 1.261 . S
C199 O208 1.247 . S
C199 O209 1.272 . S
O200 Co196 2.004 . S
O200 C205 1.259 . S
Co201 O202 2.061 . S
Co201 O207 2.052 . S
Co201 O209 2.135 . S
O202 Co201 2.061 . S
O202 C205 1.235 . S
C203 O206 1.238 . S
C203 O207 1.241 . S
C204 O197 1.247 . S
C204 O198 1.261 . S
C205 O200 1.259 . S
C205 O202 1.235 . S
O206 Co196 2.021 . S
O206 C203 1.238 . S
O207 Co201 2.052 . S
O207 C203 1.241 . S
O208 Co196 2.137 . S
O208 C199 1.247 . S
O209 Co196 2.244 . S
O209 C199 1.272 . S
O209 Co201 2.135 . S
Co210 O211 2.216 . S
Co210 O212 2.091 . S
Co210 O214 2.004 . S
Co210 O220 2.021 . S
Co210 O222 2.137 . S
Co210 O223 2.244 . S
O211 Co210 2.216 . S
O211 C218 1.247 . S
O212 Co210 2.091 . S
O212 C218 1.261 . S
C213 O222 1.247 . S
C213 O223 1.272 . S
O214 Co210 2.004 . S
O214 C219 1.259 . S
Co215 O216 2.061 . S
Co215 O221 2.052 . S
Co215 O223 2.135 . S
O216 Co215 2.061 . S
O216 C219 1.235 . S
C217 O220 1.238 . S
C217 O221 1.241 . S
C218 O211 1.247 . S
C218 O212 1.261 . S
C219 O214 1.259 . S
C219 O216 1.235 . S
O220 Co210 2.021 . S
O220 C217 1.238 . S
O221 Co215 2.052 . S
O221 C217 1.241 . S
O222 Co210 2.137 . S
O222 C213 1.247 . S
O223 Co210 2.244 . S
O223 C213 1.272 . S
O223 Co215 2.135 . S
Co224 O225 2.216 . S
Co224 O226 2.091 . S
Co224 O228 2.004 . S
Co224 O234 2.021 . S
Co224 O236 2.137 . S
Co224 O237 2.244 . S
O225 Co224 2.216 . S
O225 C232 1.247 . S
O226 Co224 2.091 . S
O226 C232 1.261 . S
C227 O236 1.247 . S
C227 O237 1.272 . S
O228 Co224 2.004 . S
O228 C233 1.259 . S
Co229 O230 2.061 . S
Co229 O235 2.052 . S
Co229 O237 2.135 . S
O230 Co229 2.061 . S
O230 C233 1.235 . S
C231 O234 1.238 . S
C231 O235 1.241 . S
C232 O225 1.247 . S
C232 O226 1.261 . S
C233 O228 1.259 . S
C233 O230 1.235 . S
O234 Co224 2.021 . S
O234 C231 1.238 . S
O235 Co229 2.052 . S
O235 C231 1.241 . S
O236 Co224 2.137 . S
O236 C227 1.247 . S
O237 Co224 2.244 . S
O237 C227 1.272 . S
O237 Co229 2.135 . S
Co238 O239 2.216 . S
Co238 O240 2.091 . S
Co238 O242 2.004 . S
Co238 O248 2.021 . S
Co238 O250 2.137 . S
Co238 O251 2.244 . S
O239 Co238 2.216 . S
O239 C246 1.247 . S
O240 Co238 2.091 . S
O240 C246 1.261 . S
C241 O250 1.247 . S
C241 O251 1.272 . S
O242 Co238 2.004 . S
O242 C247 1.259 . S
Co243 O244 2.061 . S
Co243 O249 2.052 . S
Co243 O251 2.135 . S
O244 Co243 2.061 . S
O244 C247 1.235 . S
C245 O248 1.238 . S
C245 O249 1.241 . S
C246 O239 1.247 . S
C246 O240 1.261 . S
C247 O242 1.259 . S
C247 O244 1.235 . S
O248 Co238 2.021 . S
O248 C245 1.238 . S
O249 Co243 2.052 . S
O249 C245 1.241 . S
O250 Co238 2.137 . S
O250 C241 1.247 . S
O251 Co238 2.244 . S
O251 C241 1.272 . S
O251 Co243 2.135 . S
Co252 O253 2.216 . S
Co252 O254 2.091 . S
Co252 O256 2.004 . S
Co252 O262 2.021 . S
Co252 O264 2.137 . S
Co252 O265 2.244 . S
O253 Co252 2.216 . S
O253 C260 1.247 . S
O254 Co252 2.091 . S
O254 C260 1.261 . S
C255 O264 1.247 . S
C255 O265 1.272 . S
O256 Co252 2.004 . S
O256 C261 1.259 . S
Co257 O258 2.061 . S
Co257 O263 2.052 . S
Co257 O265 2.135 . S
O258 Co257 2.061 . S
O258 C261 1.235 . S
C259 O262 1.238 . S
C259 O263 1.241 . S
C260 O253 1.247 . S
C260 O254 1.261 . S
C261 O256 1.259 . S
C261 O258 1.235 . S
O262 Co252 2.021 . S
O262 C259 1.238 . S
O263 Co257 2.052 . S
O263 C259 1.241 . S
O264 Co252 2.137 . S
O264 C255 1.247 . S
O265 Co252 2.244 . S
O265 C255 1.272 . S
O265 Co257 2.135 . S
Co266 O267 2.216 . S
Co266 O268 2.091 . S
Co266 O270 2.004 . S
Co266 O276 2.021 . S
Co266 O278 2.137 . S
Co266 O279 2.244 . S
O267 Co266 2.216 . S
O267 C274 1.247 . S
O268 Co266 2.091 . S
O268 C274 1.261 . S
C269 O278 1.247 . S
C269 O279 1.272 . S
O270 Co266 2.004 . S
O270 C275 1.259 . S
Co271 O272 2.061 . S
Co271 O277 2.052 . S
Co271 O279 2.135 . S
O272 Co271 2.061 . S
O272 C275 1.235 . S
C273 O276 1.238 . S
C273 O277 1.241 . S
C274 O267 1.247 . S
C274 O268 1.261 . S
C275 O270 1.259 . S
C275 O272 1.235 . S
O276 Co266 2.021 . S
O276 C273 1.238 . S
O277 Co271 2.052 . S
O277 C273 1.241 . S
O278 Co266 2.137 . S
O278 C269 1.247 . S
O279 Co266 2.244 . S
O279 C269 1.272 . S
O279 Co271 2.135 . S
Co280 O281 2.216 . S
Co280 O282 2.091 . S
Co280 O284 2.004 . S
Co280 O290 2.021 . S
Co280 O292 2.137 . S
Co280 O293 2.244 . S
O281 Co280 2.216 . S
O281 C288 1.247 . S
O282 Co280 2.091 . S
O282 C288 1.261 . S
C283 O292 1.247 . S
C283 O293 1.272 . S
O284 Co280 2.004 . S
O284 C289 1.259 . S
Co285 O286 2.061 . S
Co285 O291 2.052 . S
Co285 O293 2.135 . S
O286 Co285 2.061 . S
O286 C289 1.235 . S
C287 O290 1.238 . S
C287 O291 1.241 . S
C288 O281 1.247 . S
C288 O282 1.261 . S
C289 O284 1.259 . S
C289 O286 1.235 . S
O290 Co280 2.021 . S
O290 C287 1.238 . S
O291 Co285 2.052 . S
O291 C287 1.241 . S
O292 Co280 2.137 . S
O292 C283 1.247 . S
O293 Co280 2.244 . S
O293 C283 1.272 . S
O293 Co285 2.135 . S
Co294 O295 2.216 . S
Co294 O296 2.091 . S
Co294 O298 2.004 . S
Co294 O304 2.021 . S
Co294 O306 2.137 . S
Co294 O307 2.244 . S
O295 Co294 2.216 . S
O295 C302 1.247 . S
O296 Co294 2.091 . S
O296 C302 1.261 . S
C297 O306 1.247 . S
C297 O307 1.272 . S
O298 Co294 2.004 . S
O298 C303 1.259 . S
Co299 O300 2.061 . S
Co299 O305 2.052 . S
Co299 O307 2.135 . S
O300 Co299 2.061 . S
O300 C303 1.235 . S
C301 O304 1.238 . S
C301 O305 1.241 . S
C302 O295 1.247 . S
C302 O296 1.261 . S
C303 O298 1.259 . S
C303 O300 1.235 . S
O304 Co294 2.021 . S
O304 C301 1.238 . S
O305 Co299 2.052 . S
O305 C301 1.241 . S
O306 Co294 2.137 . S
O306 C297 1.247 . S
O307 Co294 2.244 . S
O307 C297 1.272 . S
O307 Co299 2.135 . S
Co308 O309 2.216 . S
Co308 O310 2.091 . S
Co308 O312 2.004 . S
Co308 O318 2.021 . S
Co308 O320 2.137 . S
Co308 O321 2.244 . S
O309 Co308 2.216 . S
O309 C316 1.247 . S
O310 Co308 2.091 . S
O310 C316 1.261 . S
C311 O320 1.247 . S
C311 O321 1.272 . S
O312 Co308 2.004 . S
O312 C317 1.259 . S
Co313 O314 2.061 . S
Co313 O319 2.052 . S
Co313 O321 2.135 . S
O314 Co313 2.061 . S
O314 C317 1.235 . S
C315 O318 1.238 . S
C315 O319 1.241 . S
C316 O309 1.247 . S
C316 O310 1.261 . S
C317 O312 1.259 . S
C317 O314 1.235 . S
O318 Co308 2.021 . S
O318 C315 1.238 . S
O319 Co313 2.052 . S
O319 C315 1.241 . S
O320 Co308 2.137 . S
O320 C311 1.247 . S
O321 Co308 2.244 . S
O321 C311 1.272 . S
O321 Co313 2.135 . S
Co322 O323 2.216 . S
Co322 O324 2.091 . S
Co322 O326 2.004 . S
Co322 O332 2.021 . S
Co322 O334 2.137 . S
Co322 O335 2.244 . S
O323 Co322 2.216 . S
O323 C330 1.247 . S
O324 Co322 2.091 . S
O324 C330 1.261 . S
C325 O334 1.247 . S
C325 O335 1.272 . S
O326 Co322 2.004 . S
O326 C331 1.259 . S
Co327 O328 2.061 . S
Co327 O333 2.052 . S
Co327 O335 2.135 . S
O328 Co327 2.061 . S
O328 C331 1.235 . S
C329 O332 1.238 . S
C329 O333 1.241 . S
C330 O323 1.247 . S
C330 O324 1.261 . S
C331 O326 1.259 . S
C331 O328 1.235 . S
O332 Co322 2.021 . S
O332 C329 1.238 . S
O333 Co327 2.052 . S
O333 C329 1.241 . S
O334 Co322 2.137 . S
O334 C325 1.247 . S
O335 Co322 2.244 . S
O335 C325 1.272 . S
O335 Co327 2.135 . S
Co336 O337 2.216 . S
Co336 O338 2.091 . S
Co336 O340 2.004 . S
Co336 O346 2.021 . S
Co336 O348 2.137 . S
Co336 O349 2.244 . S
O337 Co336 2.216 . S
O337 C344 1.247 . S
O338 Co336 2.091 . S
O338 C344 1.261 . S
C339 O348 1.247 . S
C339 O349 1.272 . S
O340 Co336 2.004 . S
O340 C345 1.259 . S
Co341 O342 2.061 . S
Co341 O347 2.052 . S
Co341 O349 2.135 . S
O342 Co341 2.061 . S
O342 C345 1.235 . S
C343 O346 1.238 . S
C343 O347 1.241 . S
C344 O337 1.247 . S
C344 O338 1.261 . S
C345 O340 1.259 . S
C345 O342 1.235 . S
O346 Co336 2.021 . S
O346 C343 1.238 . S
O347 Co341 2.052 . S
O347 C343 1.241 . S
O348 Co336 2.137 . S
O348 C339 1.247 . S
O349 Co336 2.244 . S
O349 C339 1.272 . S
O349 Co341 2.135 . S
Co350 O351 2.216 . S
Co350 O352 2.091 . S
Co350 O354 2.004 . S
Co350 O360 2.021 . S
Co350 O362 2.137 . S
Co350 O363 2.244 . S
O351 Co350 2.216 . S
O351 C358 1.247 . S
O352 Co350 2.091 . S
O352 C358 1.261 . S
C353 O362 1.247 . S
C353 O363 1.272 . S
O354 Co350 2.004 . S
O354 C359 1.259 . S
Co355 O356 2.061 . S
Co355 O361 2.052 . S
Co355 O363 2.135 . S
O356 Co355 2.061 . S
O356 C359 1.235 . S
C357 O360 1.238 . S
C357 O361 1.241 . S
C358 O351 1.247 . S
C358 O352 1.261 . S
C359 O354 1.259 . S
C359 O356 1.235 . S
O360 Co350 2.021 . S
O360 C357 1.238 . S
O361 Co355 2.052 . S
O361 C357 1.241 . S
O362 Co350 2.137 . S
O362 C353 1.247 . S
O363 Co350 2.244 . S
O363 C353 1.272 . S
O363 Co355 2.135 . S
Co364 O365 2.216 . S
Co364 O366 2.091 . S
Co364 O368 2.004 . S
Co364 O374 2.021 . S
Co364 O376 2.137 . S
Co364 O377 2.244 . S
O365 Co364 2.216 . S
O365 C372 1.247 . S
O366 Co364 2.091 . S
O366 C372 1.261 . S
C367 O376 1.247 . S
C367 O377 1.272 . S
O368 Co364 2.004 . S
O368 C373 1.259 . S
Co369 O370 2.061 . S
Co369 O375 2.052 . S
Co369 O377 2.135 . S
O370 Co369 2.061 . S
O370 C373 1.235 . S
C371 O374 1.238 . S
C371 O375 1.241 . S
C372 O365 1.247 . S
C372 O366 1.261 . S
C373 O368 1.259 . S
C373 O370 1.235 . S
O374 Co364 2.021 . S
O374 C371 1.238 . S
O375 Co369 2.052 . S
O375 C371 1.241 . S
O376 Co364 2.137 . S
O376 C367 1.247 . S
O377 Co364 2.244 . S
O377 C367 1.272 . S
O377 Co369 2.135 . S
Co378 O379 2.216 . S
Co378 O380 2.091 . S
Co378 O382 2.004 . S
Co378 O388 2.021 . S
Co378 O390 2.137 . S
Co378 O391 2.244 . S
O379 Co378 2.216 . S
O379 C386 1.247 . S
O380 Co378 2.091 . S
O380 C386 1.261 . S
C381 O390 1.247 . S
C381 O391 1.272 . S
O382 Co378 2.004 . S
O382 C387 1.259 . S
Co383 O384 2.061 . S
Co383 O389 2.052 . S
Co383 O391 2.135 . S
O384 Co383 2.061 . S
O384 C387 1.235 . S
C385 O388 1.238 . S
C385 O389 1.241 . S
C386 O379 1.247 . S
C386 O380 1.261 . S
C387 O382 1.259 . S
C387 O384 1.235 . S
O388 Co378 2.021 . S
O388 C385 1.238 . S
O389 Co383 2.052 . S
O389 C385 1.241 . S
O390 Co378 2.137 . S
O390 C381 1.247 . S
O391 Co378 2.244 . S
O391 C381 1.272 . S
O391 Co383 2.135 . S
Co392 O393 2.216 . S
Co392 O394 2.091 . S
Co392 O396 2.004 . S
Co392 O402 2.021 . S
Co392 O404 2.137 . S
Co392 O405 2.244 . S
O393 Co392 2.216 . S
O393 C400 1.247 . S
O394 Co392 2.091 . S
O394 C400 1.261 . S
C395 O404 1.247 . S
C395 O405 1.272 . S
O396 Co392 2.004 . S
O396 C401 1.259 . S
Co397 O398 2.061 . S
Co397 O403 2.052 . S
Co397 O405 2.135 . S
O398 Co397 2.061 . S
O398 C401 1.235 . S
C399 O402 1.238 . S
C399 O403 1.241 . S
C400 O393 1.247 . S
C400 O394 1.261 . S
C401 O396 1.259 . S
C401 O398 1.235 . S
O402 Co392 2.021 . S
O402 C399 1.238 . S
O403 Co397 2.052 . S
O403 C399 1.241 . S
O404 Co392 2.137 . S
O404 C395 1.247 . S
O405 Co392 2.244 . S
O405 C395 1.272 . S
O405 Co397 2.135 . S
Co406 O407 2.216 . S
Co406 O408 2.091 . S
Co406 O410 2.004 . S
Co406 O416 2.021 . S
Co406 O418 2.137 . S
Co406 O419 2.244 . S
O407 Co406 2.216 . S
O407 C414 1.247 . S
O408 Co406 2.091 . S
O408 C414 1.261 . S
C409 O418 1.247 . S
C409 O419 1.272 . S
O410 Co406 2.004 . S
O410 C415 1.259 . S
Co411 O412 2.061 . S
Co411 O417 2.052 . S
Co411 O419 2.135 . S
O412 Co411 2.061 . S
O412 C415 1.235 . S
C413 O416 1.238 . S
C413 O417 1.241 . S
C414 O407 1.247 . S
C414 O408 1.261 . S
C415 O410 1.259 . S
C415 O412 1.235 . S
O416 Co406 2.021 . S
O416 C413 1.238 . S
O417 Co411 2.052 . S
O417 C413 1.241 . S
O418 Co406 2.137 . S
O418 C409 1.247 . S
O419 Co406 2.244 . S
O419 C409 1.272 . S
O419 Co411 2.135 . S
Co420 O421 2.216 . S
Co420 O422 2.091 . S
Co420 O424 2.004 . S
Co420 O430 2.021 . S
Co420 O432 2.137 . S
Co420 O433 2.244 . S
O421 Co420 2.216 . S
O421 C428 1.247 . S
O422 Co420 2.091 . S
O422 C428 1.261 . S
C423 O432 1.247 . S
C423 O433 1.272 . S
O424 Co420 2.004 . S
O424 C429 1.259 . S
Co425 O426 2.061 . S
Co425 O431 2.052 . S
Co425 O433 2.135 . S
O426 Co425 2.061 . S
O426 C429 1.235 . S
C427 O430 1.238 . S
C427 O431 1.241 . S
C428 O421 1.247 . S
C428 O422 1.261 . S
C429 O424 1.259 . S
C429 O426 1.235 . S
O430 Co420 2.021 . S
O430 C427 1.238 . S
O431 Co425 2.052 . S
O431 C427 1.241 . S
O432 Co420 2.137 . S
O432 C423 1.247 . S
O433 Co420 2.244 . S
O433 C423 1.272 . S
O433 Co425 2.135 . S
Co434 O435 2.216 . S
Co434 O436 2.091 . S
Co434 O438 2.004 . S
Co434 O444 2.021 . S
Co434 O446 2.137 . S
Co434 O447 2.244 . S
O435 Co434 2.216 . S
O435 C442 1.247 . S
O436 Co434 2.091 . S
O436 C442 1.261 . S
C437 O446 1.247 . S
C437 O447 1.272 . S
O438 Co434 2.004 . S
O438 C443 1.259 . S
Co439 O440 2.061 . S
Co439 O445 2.052 . S
Co439 O447 2.135 . S
O440 Co439 2.061 . S
O440 C443 1.235 . S
C441 O444 1.238 . S
C441 O445 1.241 . S
C442 O435 1.247 . S
C442 O436 1.261 . S
C443 O438 1.259 . S
C443 O440 1.235 . S
O444 Co434 2.021 . S
O444 C441 1.238 . S
O445 Co439 2.052 . S
O445 C441 1.241 . S
O446 Co434 2.137 . S
O446 C437 1.247 . S
O447 Co434 2.244 . S
O447 C437 1.272 . S
O447 Co439 2.135 . S
Co448 O449 2.216 . S
Co448 O450 2.091 . S
Co448 O452 2.004 . S
Co448 O458 2.021 . S
Co448 O460 2.137 . S
Co448 O461 2.244 . S
O449 Co448 2.216 . S
O449 C456 1.247 . S
O450 Co448 2.091 . S
O450 C456 1.261 . S
C451 O460 1.247 . S
C451 O461 1.272 . S
O452 Co448 2.004 . S
O452 C457 1.259 . S
Co453 O454 2.061 . S
Co453 O459 2.052 . S
Co453 O461 2.135 . S
O454 Co453 2.061 . S
O454 C457 1.235 . S
C455 O458 1.238 . S
C455 O459 1.241 . S
C456 O449 1.247 . S
C456 O450 1.261 . S
C457 O452 1.259 . S
C457 O454 1.235 . S
O458 Co448 2.021 . S
O458 C455 1.238 . S
O459 Co453 2.052 . S
O459 C455 1.241 . S
O460 Co448 2.137 . S
O460 C451 1.247 . S
O461 Co448 2.244 . S
O461 C451 1.272 . S
O461 Co453 2.135 . S
Co462 O463 2.216 . S
Co462 O464 2.091 . S
Co462 O466 2.004 . S
Co462 O472 2.021 . S
Co462 O474 2.137 . S
Co462 O475 2.244 . S
O463 Co462 2.216 . S
O463 C470 1.247 . S
O464 Co462 2.091 . S
O464 C470 1.261 . S
C465 O474 1.247 . S
C465 O475 1.272 . S
O466 Co462 2.004 . S
O466 C471 1.259 . S
Co467 O468 2.061 . S
Co467 O473 2.052 . S
Co467 O475 2.135 . S
O468 Co467 2.061 . S
O468 C471 1.235 . S
C469 O472 1.238 . S
C469 O473 1.241 . S
C470 O463 1.247 . S
C470 O464 1.261 . S
C471 O466 1.259 . S
C471 O468 1.235 . S
O472 Co462 2.021 . S
O472 C469 1.238 . S
O473 Co467 2.052 . S
O473 C469 1.241 . S
O474 Co462 2.137 . S
O474 C465 1.247 . S
O475 Co462 2.244 . S
O475 C465 1.272 . S
O475 Co467 2.135 . S
Co476 O477 2.216 . S
Co476 O478 2.091 . S
Co476 O480 2.004 . S
Co476 O486 2.021 . S
Co476 O488 2.137 . S
Co476 O489 2.244 . S
O477 Co476 2.216 . S
O477 C484 1.247 . S
O478 Co476 2.091 . S
O478 C484 1.261 . S
C479 O488 1.247 . S
C479 O489 1.272 . S
O480 Co476 2.004 . S
O480 C485 1.259 . S
Co481 O482 2.061 . S
Co481 O487 2.052 . S
Co481 O489 2.135 . S
O482 Co481 2.061 . S
O482 C485 1.235 . S
C483 O486 1.238 . S
C483 O487 1.241 . S
C484 O477 1.247 . S
C484 O478 1.261 . S
C485 O480 1.259 . S
C485 O482 1.235 . S
O486 Co476 2.021 . S
O486 C483 1.238 . S
O487 Co481 2.052 . S
O487 C483 1.241 . S
O488 Co476 2.137 . S
O488 C479 1.247 . S
O489 Co476 2.244 . S
O489 C479 1.272 . S
O489 Co481 2.135 . S
Co490 O491 2.216 . S
Co490 O492 2.091 . S
Co490 O494 2.004 . S
Co490 O500 2.021 . S
Co490 O502 2.137 . S
Co490 O503 2.244 . S
O491 Co490 2.216 . S
O491 C498 1.247 . S
O492 Co490 2.091 . S
O492 C498 1.261 . S
C493 O502 1.247 . S
C493 O503 1.272 . S
O494 Co490 2.004 . S
O494 C499 1.259 . S
Co495 O496 2.061 . S
Co495 O501 2.052 . S
Co495 O503 2.135 . S
O496 Co495 2.061 . S
O496 C499 1.235 . S
C497 O500 1.238 . S
C497 O501 1.241 . S
C498 O491 1.247 . S
C498 O492 1.261 . S
C499 O494 1.259 . S
C499 O496 1.235 . S
O500 Co490 2.021 . S
O500 C497 1.238 . S
O501 Co495 2.052 . S
O501 C497 1.241 . S
O502 Co490 2.137 . S
O502 C493 1.247 . S
O503 Co490 2.244 . S
O503 C493 1.272 . S
O503 Co495 2.135 . S
Co504 O505 2.216 . S
Co504 O506 2.091 . S
Co504 O508 2.004 . S
Co504 O514 2.021 . S
Co504 O516 2.137 . S
Co504 O517 2.244 . S
O505 Co504 2.216 . S
O505 C512 1.247 . S
O506 Co504 2.091 . S
O506 C512 1.261 . S
C507 O516 1.247 . S
C507 O517 1.272 . S
O508 Co504 2.004 . S
O508 C513 1.259 . S
Co509 O510 2.061 . S
Co509 O515 2.052 . S
Co509 O517 2.135 . S
O510 Co509 2.061 . S
O510 C513 1.235 . S
C511 O514 1.238 . S
C511 O515 1.241 . S
C512 O505 1.247 . S
C512 O506 1.261 . S
C513 O508 1.259 . S
C513 O510 1.235 . S
O514 Co504 2.021 . S
O514 C511 1.238 . S
O515 Co509 2.052 . S
O515 C511 1.241 . S
O516 Co504 2.137 . S
O516 C507 1.247 . S
O517 Co504 2.244 . S
O517 C507 1.272 . S
O517 Co509 2.135 . S
Co518 O519 2.216 . S
Co518 O520 2.091 . S
Co518 O522 2.004 . S
Co518 O528 2.021 . S
Co518 O530 2.137 . S
Co518 O531 2.244 . S
O519 Co518 2.216 . S
O519 C526 1.247 . S
O520 Co518 2.091 . S
O520 C526 1.261 . S
C521 O530 1.247 . S
C521 O531 1.272 . S
O522 Co518 2.004 . S
O522 C527 1.259 . S
Co523 O524 2.061 . S
Co523 O529 2.052 . S
Co523 O531 2.135 . S
O524 Co523 2.061 . S
O524 C527 1.235 . S
C525 O528 1.238 . S
C525 O529 1.241 . S
C526 O519 1.247 . S
C526 O520 1.261 . S
C527 O522 1.259 . S
C527 O524 1.235 . S
O528 Co518 2.021 . S
O528 C525 1.238 . S
O529 Co523 2.052 . S
O529 C525 1.241 . S
O530 Co518 2.137 . S
O530 C521 1.247 . S
O531 Co518 2.244 . S
O531 C521 1.272 . S
O531 Co523 2.135 . S
Co532 O533 2.216 . S
Co532 O534 2.091 . S
Co532 O536 2.004 . S
Co532 O542 2.021 . S
Co532 O544 2.137 . S
Co532 O545 2.244 . S
O533 Co532 2.216 . S
O533 C540 1.247 . S
O534 Co532 2.091 . S
O534 C540 1.261 . S
C535 O544 1.247 . S
C535 O545 1.272 . S
O536 Co532 2.004 . S
O536 C541 1.259 . S
Co537 O538 2.061 . S
Co537 O543 2.052 . S
Co537 O545 2.135 . S
O538 Co537 2.061 . S
O538 C541 1.235 . S
C539 O542 1.238 . S
C539 O543 1.241 . S
C540 O533 1.247 . S
C540 O534 1.261 . S
C541 O536 1.259 . S
C541 O538 1.235 . S
O542 Co532 2.021 . S
O542 C539 1.238 . S
O543 Co537 2.052 . S
O543 C539 1.241 . S
O544 Co532 2.137 . S
O544 C535 1.247 . S
O545 Co532 2.244 . S
O545 C535 1.272 . S
O545 Co537 2.135 . S
Co546 O547 2.216 . S
Co546 O548 2.091 . S
Co546 O550 2.004 . S
Co546 O556 2.021 . S
Co546 O558 2.137 . S
Co546 O559 2.244 . S
O547 Co546 2.216 . S
O547 C554 1.247 . S
O548 Co546 2.091 . S
O548 C554 1.261 . S
C549 O558 1.247 . S
C549 O559 1.272 . S
O550 Co546 2.004 . S
O550 C555 1.259 . S
Co551 O552 2.061 . S
Co551 O557 2.052 . S
Co551 O559 2.135 . S
O552 Co551 2.061 . S
O552 C555 1.235 . S
C553 O556 1.238 . S
C553 O557 1.241 . S
C554 O547 1.247 . S
C554 O548 1.261 . S
C555 O550 1.259 . S
C555 O552 1.235 . S
O556 Co546 2.021 . S
O556 C553 1.238 . S
O557 Co551 2.052 . S
O557 C553 1.241 . S
O558 Co546 2.137 . S
O558 C549 1.247 . S
O559 Co546 2.244 . S
O559 C549 1.272 . S
O559 Co551 2.135 . S
Co560 O561 2.216 . S
Co560 O562 2.091 . S
Co560 O564 2.004 . S
Co560 O570 2.021 . S
Co560 O572 2.137 . S
Co560 O573 2.244 . S
O561 Co560 2.216 . S
O561 C568 1.247 . S
O562 Co560 2.091 . S
O562 C568 1.261 . S
C563 O572 1.247 . S
C563 O573 1.272 . S
O564 Co560 2.004 . S
O564 C569 1.259 . S
Co565 O566 2.061 . S
Co565 O571 2.052 . S
Co565 O573 2.135 . S
O566 Co565 2.061 . S
O566 C569 1.235 . S
C567 O570 1.238 . S
C567 O571 1.241 . S
C568 O561 1.247 . S
C568 O562 1.261 . S
C569 O564 1.259 . S
C569 O566 1.235 . S
O570 Co560 2.021 . S
O570 C567 1.238 . S
O571 Co565 2.052 . S
O571 C567 1.241 . S
O572 Co560 2.137 . S
O572 C563 1.247 . S
O573 Co560 2.244 . S
O573 C563 1.272 . S
O573 Co565 2.135 . S
Co574 O575 2.216 . S
Co574 O576 2.091 . S
Co574 O578 2.004 . S
Co574 O584 2.021 . S
Co574 O586 2.137 . S
Co574 O587 2.244 . S
O575 Co574 2.216 . S
O575 C582 1.247 . S
O576 Co574 2.091 . S
O576 C582 1.261 . S
C577 O586 1.247 . S
C577 O587 1.272 . S
O578 Co574 2.004 . S
O578 C583 1.259 . S
Co579 O580 2.061 . S
Co579 O585 2.052 . S
Co579 O587 2.135 . S
O580 Co579 2.061 . S
O580 C583 1.235 . S
C581 O584 1.238 . S
C581 O585 1.241 . S
C582 O575 1.247 . S
C582 O576 1.261 . S
C583 O578 1.259 . S
C583 O580 1.235 . S
O584 Co574 2.021 . S
O584 C581 1.238 . S
O585 Co579 2.052 . S
O585 C581 1.241 . S
O586 Co574 2.137 . S
O586 C577 1.247 . S
O587 Co574 2.244 . S
O587 C577 1.272 . S
O587 Co579 2.135 . S
Co588 O589 2.216 . S
Co588 O590 2.091 . S
Co588 O592 2.004 . S
Co588 O598 2.021 . S
Co588 O600 2.137 . S
Co588 O601 2.244 . S
O589 Co588 2.216 . S
O589 C596 1.247 . S
O590 Co588 2.091 . S
O590 C596 1.261 . S
C591 O600 1.247 . S
C591 O601 1.272 . S
O592 Co588 2.004 . S
O592 C597 1.259 . S
Co593 O594 2.061 . S
Co593 O599 2.052 . S
Co593 O601 2.135 . S
O594 Co593 2.061 . S
O594 C597 1.235 . S
C595 O598 1.238 . S
C595 O599 1.241 . S
C596 O589 1.247 . S
C596 O590 1.261 . S
C597 O592 1.259 . S
C597 O594 1.235 . S
O598 Co588 2.021 . S
O598 C595 1.238 . S
O599 Co593 2.052 . S
O599 C595 1.241 . S
O600 Co588 2.137 . S
O600 C591 1.247 . S
O601 Co588 2.244 . S
O601 C591 1.272 . S
O601 Co593 2.135 . S
Co602 O603 2.216 . S
Co602 O604 2.091 . S
Co602 O606 2.004 . S
Co602 O612 2.021 . S
Co602 O614 2.137 . S
Co602 O615 2.244 . S
O603 Co602 2.216 . S
O603 C610 1.247 . S
O604 Co602 2.091 . S
O604 C610 1.261 . S
C605 O614 1.247 . S
C605 O615 1.272 . S
O606 Co602 2.004 . S
O606 C611 1.259 . S
Co607 O608 2.061 . S
Co607 O613 2.052 . S
Co607 O615 2.135 . S
O608 Co607 2.061 . S
O608 C611 1.235 . S
C609 O612 1.238 . S
C609 O613 1.241 . S
C610 O603 1.247 . S
C610 O604 1.261 . S
C611 O606 1.259 . S
C611 O608 1.235 . S
O612 Co602 2.021 . S
O612 C609 1.238 . S
O613 Co607 2.052 . S
O613 C609 1.241 . S
O614 Co602 2.137 . S
O614 C605 1.247 . S
O615 Co602 2.244 . S
O615 C605 1.272 . S
O615 Co607 2.135 . S
Co616 O617 2.216 . S
Co616 O618 2.091 . S
Co616 O620 2.004 . S
Co616 O626 2.021 . S
Co616 O628 2.137 . S
Co616 O629 2.244 . S
O617 Co616 2.216 . S
O617 C624 1.247 . S
O618 Co616 2.091 . S
O618 C624 1.261 . S
C619 O628 1.247 . S
C619 O629 1.272 . S
O620 Co616 2.004 . S
O620 C625 1.259 . S
Co621 O622 2.061 . S
Co621 O627 2.052 . S
Co621 O629 2.135 . S
O622 Co621 2.061 . S
O622 C625 1.235 . S
C623 O626 1.238 . S
C623 O627 1.241 . S
C624 O617 1.247 . S
C624 O618 1.261 . S
C625 O620 1.259 . S
C625 O622 1.235 . S
O626 Co616 2.021 . S
O626 C623 1.238 . S
O627 Co621 2.052 . S
O627 C623 1.241 . S
O628 Co616 2.137 . S
O628 C619 1.247 . S
O629 Co616 2.244 . S
O629 C619 1.272 . S
O629 Co621 2.135 . S
Co630 O631 2.216 . S
Co630 O632 2.091 . S
Co630 O634 2.004 . S
Co630 O640 2.021 . S
Co630 O642 2.137 . S
Co630 O643 2.244 . S
O631 Co630 2.216 . S
O631 C638 1.247 . S
O632 Co630 2.091 . S
O632 C638 1.261 . S
C633 O642 1.247 . S
C633 O643 1.272 . S
O634 Co630 2.004 . S
O634 C639 1.259 . S
Co635 O636 2.061 . S
Co635 O641 2.052 . S
Co635 O643 2.135 . S
O636 Co635 2.061 . S
O636 C639 1.235 . S
C637 O640 1.238 . S
C637 O641 1.241 . S
C638 O631 1.247 . S
C638 O632 1.261 . S
C639 O634 1.259 . S
C639 O636 1.235 . S
O640 Co630 2.021 . S
O640 C637 1.238 . S
O641 Co635 2.052 . S
O641 C637 1.241 . S
O642 Co630 2.137 . S
O642 C633 1.247 . S
O643 Co630 2.244 . S
O643 C633 1.272 . S
O643 Co635 2.135 . S
Co644 O645 2.216 . S
Co644 O646 2.091 . S
Co644 O648 2.004 . S
Co644 O654 2.021 . S
Co644 O656 2.137 . S
Co644 O657 2.244 . S
O645 Co644 2.216 . S
O645 C652 1.247 . S
O646 Co644 2.091 . S
O646 C652 1.261 . S
C647 O656 1.247 . S
C647 O657 1.272 . S
O648 Co644 2.004 . S
O648 C653 1.259 . S
Co649 O650 2.061 . S
Co649 O655 2.052 . S
Co649 O657 2.135 . S
O650 Co649 2.061 . S
O650 C653 1.235 . S
C651 O654 1.238 . S
C651 O655 1.241 . S
C652 O645 1.247 . S
C652 O646 1.261 . S
C653 O648 1.259 . S
C653 O650 1.235 . S
O654 Co644 2.021 . S
O654 C651 1.238 . S
O655 Co649 2.052 . S
O655 C651 1.241 . S
O656 Co644 2.137 . S
O656 C647 1.247 . S
O657 Co644 2.244 . S
O657 C647 1.272 . S
O657 Co649 2.135 . S
Co658 O659 2.216 . S
Co658 O660 2.091 . S
Co658 O662 2.004 . S
Co658 O668 2.021 . S
Co658 O670 2.137 . S
Co658 O671 2.244 . S
O659 Co658 2.216 . S
O659 C666 1.247 . S
O660 Co658 2.091 . S
O660 C666 1.261 . S
C661 O670 1.247 . S
C661 O671 1.272 . S
O662 Co658 2.004 . S
O662 C667 1.259 . S
Co663 O664 2.061 . S
Co663 O669 2.052 . S
Co663 O671 2.135 . S
O664 Co663 2.061 . S
O664 C667 1.235 . S
C665 O668 1.238 . S
C665 O669 1.241 . S
C666 O659 1.247 . S
C666 O660 1.261 . S
C667 O662 1.259 . S
C667 O664 1.235 . S
O668 Co658 2.021 . S
O668 C665 1.238 . S
O669 Co663 2.052 . S
O669 C665 1.241 . S
O670 Co658 2.137 . S
O670 C661 1.247 . S
O671 Co658 2.244 . S
O671 C661 1.272 . S
O671 Co663 2.135 . S
H672 C678 0.930 . S
H673 C682 0.930 . S
H674 C687 0.929 . S
H675 C685 0.929 . S
H676 C680 0.929 . S
H677 C686 0.929 . S
C678 H672 0.930 . S
C678 C679 1.367 . S
C678 C686 1.378 . S
C679 C678 1.367 . S
C679 C687 1.433 . S
C680 H676 0.929 . S
C680 C682 1.378 . S
C680 C684 1.350 . S
C681 C684 1.463 . S
C681 C686 1.350 . S
C681 N689 1.427 . S
C682 H673 0.930 . S
C682 C680 1.378 . S
C682 C683 1.367 . S
C683 C682 1.367 . S
C683 C685 1.433 . S
C684 C680 1.350 . S
C684 C681 1.463 . S
C684 N688 1.427 . S
C685 H675 0.929 . S
C685 C683 1.433 . S
C685 N688 1.384 . S
C686 H677 0.929 . S
C686 C678 1.378 . S
C686 C681 1.350 . S
C687 H674 0.929 . S
C687 C679 1.433 . S
C687 N689 1.384 . S
N688 C684 1.427 . S
N688 C685 1.384 . S
N689 C681 1.427 . S
N689 C687 1.384 . S
H690 C696 0.930 . S
H691 C700 0.930 . S
H692 C705 0.929 . S
H693 C703 0.929 . S
H694 C698 0.929 . S
H695 C704 0.929 1_655 S
C696 H690 0.930 . S
C696 C697 1.367 . S
C696 C704 1.378 . S
C697 C696 1.367 . S
C697 C705 1.433 . S
C698 H694 0.929 . S
C698 C700 1.378 . S
C698 C702 1.350 . S
C699 C702 1.463 . S
C699 C704 1.350 1_655 S
C699 N707 1.407 1_655 S
C700 H691 0.930 . S
C700 C698 1.378 . S
C700 C701 1.367 . S
C701 C700 1.367 . S
C701 C703 1.433 . S
C702 C698 1.350 . S
C702 C699 1.463 . S
C702 N706 1.427 . S
C703 H693 0.929 . S
C703 C701 1.433 . S
C703 N706 1.384 . S
C704 H695 0.929 1_455 S
C704 C696 1.378 . S
C704 C699 1.350 1_455 S
C705 H692 0.929 . S
C705 C697 1.433 . S
C705 N707 1.439 . S
N706 C702 1.427 . S
N706 C703 1.384 . S
N707 C699 1.407 1_455 S
N707 C705 1.439 . S
H708 C714 0.930 . S
H709 C718 0.930 . S
H710 C723 0.929 . S
H711 C721 0.929 . S
H712 C716 0.929 . S
H713 C722 0.929 . S
C714 H708 0.930 . S
C714 C715 1.367 . S
C714 C722 1.378 . S
C715 C714 1.367 . S
C715 C723 1.433 . S
C716 H712 0.929 . S
C716 C718 1.378 . S
C716 C720 1.350 . S
C717 C720 1.463 . S
C717 C722 1.350 . S
C717 N725 1.427 . S
C718 H709 0.930 . S
C718 C716 1.378 . S
C718 C719 1.367 . S
C719 C718 1.367 . S
C719 C721 1.433 . S
C720 C716 1.350 . S
C720 C717 1.463 . S
C720 N724 1.427 . S
C721 H711 0.929 . S
C721 C719 1.433 . S
C721 N724 1.384 . S
C722 H713 0.929 . S
C722 C714 1.378 . S
C722 C717 1.350 . S
C723 H710 0.929 . S
C723 C715 1.433 . S
C723 N725 1.384 . S
N724 C720 1.427 . S
N724 C721 1.384 . S
N725 C717 1.427 . S
N725 C723 1.384 . S
H726 C732 0.930 . S
H727 C736 0.930 . S
H728 C741 0.929 . S
H729 C739 0.929 . S
H730 C734 0.929 . S
H731 C740 0.929 . S
C732 H726 0.930 . S
C732 C733 1.367 . S
C732 C740 1.378 . S
C733 C732 1.367 . S
C733 C741 1.433 . S
C734 H730 0.929 . S
C734 C736 1.378 . S
C734 C738 1.350 . S
C735 C738 1.463 . S
C735 C740 1.350 . S
C735 N743 1.427 . S
C736 H727 0.930 . S
C736 C734 1.378 . S
C736 C737 1.367 . S
C737 C736 1.367 . S
C737 C739 1.433 . S
C738 C734 1.350 . S
C738 C735 1.463 . S
C738 N742 1.427 . S
C739 H729 0.929 . S
C739 C737 1.433 . S
C739 N742 1.384 . S
C740 H731 0.929 . S
C740 C732 1.378 . S
C740 C735 1.350 . S
C741 H728 0.929 . S
C741 C733 1.433 . S
C741 N743 1.384 . S
N742 C738 1.427 . S
N742 C739 1.384 . S
N743 C735 1.427 . S
N743 C741 1.384 . S
H744 C750 0.930 . S
H745 C754 0.930 . S
H746 C759 0.929 . S
H747 C757 0.929 . S
H748 C752 0.929 . S
H749 C758 0.929 . S
C750 H744 0.930 . S
C750 C751 1.367 . S
C750 C758 1.378 . S
C751 C750 1.367 . S
C751 C759 1.433 . S
C752 H748 0.929 . S
C752 C754 1.378 . S
C752 C756 1.350 . S
C753 C756 1.463 . S
C753 C758 1.350 . S
C753 N761 1.427 . S
C754 H745 0.930 . S
C754 C752 1.378 . S
C754 C755 1.367 . S
C755 C754 1.367 . S
C755 C757 1.433 . S
C756 C752 1.350 . S
C756 C753 1.463 . S
C756 N760 1.427 . S
C757 H747 0.929 . S
C757 C755 1.433 . S
C757 N760 1.384 . S
C758 H749 0.929 . S
C758 C750 1.378 . S
C758 C753 1.350 . S
C759 H746 0.929 . S
C759 C751 1.433 . S
C759 N761 1.384 . S
N760 C756 1.427 . S
N760 C757 1.384 . S
N761 C753 1.427 . S
N761 C759 1.384 . S
H762 C768 0.930 . S
H763 C772 0.930 . S
H764 C777 0.929 . S
H765 C775 0.929 . S
H766 C770 0.929 . S
H767 C776 0.929 . S
C768 H762 0.930 . S
C768 C769 1.367 . S
C768 C776 1.378 . S
C769 C768 1.367 . S
C769 C777 1.433 . S
C770 H766 0.929 . S
C770 C772 1.378 . S
C770 C774 1.350 . S
C771 C774 1.463 . S
C771 C776 1.350 . S
C771 N779 1.427 . S
C772 H763 0.930 . S
C772 C770 1.378 . S
C772 C773 1.367 . S
C773 C772 1.367 . S
C773 C775 1.433 . S
C774 C770 1.350 . S
C774 C771 1.463 . S
C774 N778 1.427 . S
C775 H765 0.929 . S
C775 C773 1.433 . S
C775 N778 1.384 . S
C776 H767 0.929 . S
C776 C768 1.378 . S
C776 C771 1.350 . S
C777 H764 0.929 . S
C777 C769 1.433 . S
C777 N779 1.384 . S
N778 C774 1.427 . S
N778 C775 1.384 . S
N779 C771 1.427 . S
N779 C777 1.384 . S
H780 C786 0.930 . S
H781 C790 0.930 . S
H782 C795 0.929 . S
H783 C793 0.929 . S
H784 C788 0.929 . S
H785 C794 0.929 . S
C786 H780 0.930 . S
C786 C787 1.367 . S
C786 C794 1.378 . S
C787 C786 1.367 . S
C787 C795 1.433 . S
C788 H784 0.929 . S
C788 C790 1.378 . S
C788 C792 1.350 . S
C789 C792 1.463 . S
C789 C794 1.350 . S
C789 N797 1.427 . S
C790 H781 0.930 . S
C790 C788 1.378 . S
C790 C791 1.367 . S
C791 C790 1.367 . S
C791 C793 1.433 . S
C792 C788 1.350 . S
C792 C789 1.463 . S
C792 N796 1.427 . S
C793 H783 0.929 . S
C793 C791 1.433 . S
C793 N796 1.384 . S
C794 H785 0.929 . S
C794 C786 1.378 . S
C794 C789 1.350 . S
C795 H782 0.929 . S
C795 C787 1.433 . S
C795 N797 1.384 . S
N796 C792 1.427 . S
N796 C793 1.384 . S
N797 C789 1.427 . S
N797 C795 1.384 . S
H798 C804 0.930 . S
H799 C808 0.930 . S
H800 C813 0.929 . S
H801 C811 0.929 . S
H802 C806 0.929 . S
H803 C812 0.929 1_655 S
C804 H798 0.930 . S
C804 C805 1.367 . S
C804 C812 1.378 . S
C805 C804 1.367 . S
C805 C813 1.433 . S
C806 H802 0.929 . S
C806 C808 1.378 . S
C806 C810 1.350 . S
C807 C810 1.463 . S
C807 C812 1.350 1_655 S
C807 N815 1.427 . S
C808 H799 0.930 . S
C808 C806 1.378 . S
C808 C809 1.367 . S
C809 C808 1.367 . S
C809 C811 1.433 . S
C810 C806 1.350 . S
C810 C807 1.463 . S
C810 N814 1.427 . S
C811 H801 0.929 . S
C811 C809 1.433 . S
C811 N814 1.384 . S
C812 H803 0.929 1_455 S
C812 C804 1.378 . S
C812 C807 1.350 1_455 S
C813 H800 0.929 . S
C813 C805 1.433 . S
C813 N815 1.384 1_455 S
N814 C810 1.427 . S
N814 C811 1.384 . S
N815 C807 1.427 . S
N815 C813 1.384 1_655 S
H816 C822 0.930 . S
H817 C826 0.930 . S
H818 C831 0.929 . S
H819 C829 0.929 . S
H820 C824 0.929 . S
H821 C830 0.929 . S
C822 H816 0.930 . S
C822 C823 1.367 . S
C822 C830 1.378 . S
C823 C822 1.367 . S
C823 C831 1.433 . S
C824 H820 0.929 . S
C824 C826 1.378 . S
C824 C828 1.350 . S
C825 C828 1.463 . S
C825 C830 1.350 . S
C825 N833 1.427 . S
C826 H817 0.930 . S
C826 C824 1.378 . S
C826 C827 1.367 . S
C827 C826 1.367 . S
C827 C829 1.433 . S
C828 C824 1.350 . S
C828 C825 1.463 . S
C828 N832 1.427 . S
C829 H819 0.929 . S
C829 C827 1.433 . S
C829 N832 1.384 . S
C830 H821 0.929 . S
C830 C822 1.378 . S
C830 C825 1.350 . S
C831 H818 0.929 . S
C831 C823 1.433 . S
C831 N833 1.384 . S
N832 C828 1.427 . S
N832 C829 1.384 . S
N833 C825 1.427 . S
N833 C831 1.384 . S
H834 C840 0.930 . S
H835 C844 0.930 . S
H836 C849 0.929 . S
H837 C847 0.929 . S
H838 C842 0.929 . S
H839 C848 0.929 . S
C840 H834 0.930 . S
C840 C841 1.367 . S
C840 C848 1.378 . S
C841 C840 1.367 . S
C841 C849 1.433 . S
C842 H838 0.929 . S
C842 C844 1.378 . S
C842 C846 1.350 . S
C843 C846 1.463 . S
C843 C848 1.350 . S
C843 N851 1.427 . S
C844 H835 0.930 . S
C844 C842 1.378 . S
C844 C845 1.367 . S
C845 C844 1.367 . S
C845 C847 1.433 . S
C846 C842 1.350 . S
C846 C843 1.463 . S
C846 N850 1.427 . S
C847 H837 0.929 . S
C847 C845 1.433 . S
C847 N850 1.384 . S
C848 H839 0.929 . S
C848 C840 1.378 . S
C848 C843 1.350 . S
C849 H836 0.929 . S
C849 C841 1.433 . S
C849 N851 1.384 . S
N850 C846 1.427 . S
N850 C847 1.384 . S
N851 C843 1.427 . S
N851 C849 1.384 . S
H852 C858 0.930 . S
H853 C862 0.930 . S
H854 C867 0.929 . S
H855 C865 0.929 . S
H856 C860 0.929 . S
H857 C866 0.929 . S
C858 H852 0.930 . S
C858 C859 1.367 . S
C858 C866 1.378 . S
C859 C858 1.367 . S
C859 C867 1.433 . S
C860 H856 0.929 . S
C860 C862 1.378 . S
C860 C864 1.350 . S
C861 C864 1.463 . S
C861 C866 1.350 . S
C861 N869 1.427 . S
C862 H853 0.930 . S
C862 C860 1.378 . S
C862 C863 1.367 . S
C863 C862 1.367 . S
C863 C865 1.433 . S
C864 C860 1.350 . S
C864 C861 1.463 . S
C864 N868 1.427 . S
C865 H855 0.929 . S
C865 C863 1.433 . S
C865 N868 1.384 . S
C866 H857 0.929 . S
C866 C858 1.378 . S
C866 C861 1.350 . S
C867 H854 0.929 . S
C867 C859 1.433 . S
C867 N869 1.384 . S
N868 C864 1.427 . S
N868 C865 1.384 . S
N869 C861 1.427 . S
N869 C867 1.384 . S
H870 C876 0.930 . S
H871 C880 0.930 . S
H872 C885 0.929 . S
H873 C883 0.929 . S
H874 C878 0.929 . S
H875 C884 0.929 . S
C876 H870 0.930 . S
C876 C877 1.367 . S
C876 C884 1.378 . S
C877 C876 1.367 . S
C877 C885 1.433 . S
C878 H874 0.929 . S
C878 C880 1.378 . S
C878 C882 1.350 . S
C879 C882 1.463 . S
C879 C884 1.350 1_554 S
C879 N887 1.427 1_554 S
C880 H871 0.930 . S
C880 C878 1.378 . S
C880 C881 1.367 . S
C881 C880 1.367 . S
C881 C883 1.433 . S
C882 C878 1.350 . S
C882 C879 1.463 . S
C882 N886 1.427 . S
C883 H873 0.929 . S
C883 C881 1.433 . S
C883 N886 1.384 . S
C884 H875 0.929 . S
C884 C876 1.378 . S
C884 C879 1.350 1_556 S
C885 H872 0.929 . S
C885 C877 1.433 . S
C885 N887 1.384 . S
N886 C882 1.427 . S
N886 C883 1.384 . S
N887 C879 1.427 1_556 S
N887 C885 1.384 . S
H888 C894 0.930 . S
H889 C898 0.930 . S
H890 C903 0.929 . S
H891 C901 0.929 . S
H892 C896 0.929 . S
H893 C902 0.929 . S
C894 H888 0.930 . S
C894 C895 1.367 . S
C894 C902 1.378 . S
C895 C894 1.367 . S
C895 C903 1.433 . S
C896 H892 0.929 . S
C896 C898 1.378 . S
C896 C900 1.350 . S
C897 C900 1.463 . S
C897 C902 1.350 . S
C897 N905 1.427 . S
C898 H889 0.930 . S
C898 C896 1.378 . S
C898 C899 1.367 . S
C899 C898 1.367 . S
C899 C901 1.433 . S
C900 C896 1.350 . S
C900 C897 1.463 . S
C900 N904 1.427 . S
C901 H891 0.929 . S
C901 C899 1.433 . S
C901 N904 1.384 . S
C902 H893 0.929 . S
C902 C894 1.378 . S
C902 C897 1.350 . S
C903 H890 0.929 . S
C903 C895 1.433 . S
C903 N905 1.384 . S
N904 C900 1.427 . S
N904 C901 1.384 . S
N905 C897 1.427 . S
N905 C903 1.384 . S
H906 C912 0.930 . S
H907 C916 0.930 . S
H908 C921 0.929 . S
H909 C919 0.929 . S
H910 C914 0.929 . S
H911 C920 0.929 . S
C912 H906 0.930 . S
C912 C913 1.367 . S
C912 C920 1.378 . S
C913 C912 1.367 . S
C913 C921 1.433 . S
C914 H910 0.929 . S
C914 C916 1.378 . S
C914 C918 1.350 . S
C915 C918 1.463 . S
C915 C920 1.350 . S
C915 N923 1.427 . S
C916 H907 0.930 . S
C916 C914 1.378 . S
C916 C917 1.367 . S
C917 C916 1.367 . S
C917 C919 1.433 . S
C918 C914 1.350 . S
C918 C915 1.463 . S
C918 N922 1.427 . S
C919 H909 0.929 . S
C919 C917 1.433 . S
C919 N922 1.384 . S
C920 H911 0.929 . S
C920 C912 1.378 . S
C920 C915 1.350 . S
C921 H908 0.929 . S
C921 C913 1.433 . S
C921 N923 1.384 . S
N922 C918 1.427 . S
N922 C919 1.384 . S
N923 C915 1.427 . S
N923 C921 1.384 . S
H924 C930 0.930 . S
H925 C934 0.930 . S
H926 C939 0.929 . S
H927 C937 0.929 . S
H928 C932 0.929 . S
H929 C938 0.929 . S
C930 H924 0.930 . S
C930 C931 1.367 . S
C930 C938 1.378 . S
C931 C930 1.367 . S
C931 C939 1.433 . S
C932 H928 0.929 . S
C932 C934 1.378 . S
C932 C936 1.350 . S
C933 C936 1.463 . S
C933 C938 1.350 . S
C933 N941 1.427 . S
C934 H925 0.930 . S
C934 C932 1.378 . S
C934 C935 1.367 . S
C935 C934 1.367 . S
C935 C937 1.433 . S
C936 C932 1.350 . S
C936 C933 1.463 . S
C936 N940 1.427 . S
C937 H927 0.929 . S
C937 C935 1.433 . S
C937 N940 1.384 . S
C938 H929 0.929 . S
C938 C930 1.378 . S
C938 C933 1.350 . S
C939 H926 0.929 . S
C939 C931 1.433 . S
C939 N941 1.384 . S
N940 C936 1.427 . S
N940 C937 1.384 . S
N941 C933 1.427 . S
N941 C939 1.384 . S
H942 C948 0.930 . S
H943 C952 0.930 . S
H944 C957 0.929 . S
H945 C955 0.929 . S
H946 C950 0.929 . S
H947 C956 0.929 1_556 S
C948 H942 0.930 . S
C948 C949 1.367 . S
C948 C956 1.378 . S
C949 C948 1.367 . S
C949 C957 1.433 . S
C950 H946 0.929 . S
C950 C952 1.378 . S
C950 C954 1.350 . S
C951 C954 1.463 . S
C951 C956 1.350 1_556 S
C951 N959 1.427 1_556 S
C952 H943 0.930 . S
C952 C950 1.378 . S
C952 C953 1.367 . S
C953 C952 1.367 . S
C953 C955 1.433 . S
C954 C950 1.350 . S
C954 C951 1.463 . S
C954 N958 1.427 . S
C955 H945 0.929 . S
C955 C953 1.433 . S
C955 N958 1.384 . S
C956 H947 0.929 1_554 S
C956 C948 1.378 . S
C956 C951 1.350 1_554 S
C957 H944 0.929 . S
C957 C949 1.433 . S
C957 N959 1.384 . S
N958 C954 1.427 . S
N958 C955 1.384 . S
N959 C951 1.427 1_554 S
N959 C957 1.384 . S
H960 C966 0.930 . S
H961 C970 0.930 . S
H962 C975 0.929 . S
H963 C973 0.929 . S
H964 C968 0.929 . S
H965 C974 0.929 . S
C966 H960 0.930 . S
C966 C967 1.367 . S
C966 C974 1.378 . S
C967 C966 1.367 . S
C967 C975 1.433 . S
C968 H964 0.929 . S
C968 C970 1.378 . S
C968 C972 1.350 . S
C969 C972 1.463 . S
C969 C974 1.350 . S
C969 N977 1.427 . S
C970 H961 0.930 . S
C970 C968 1.378 . S
C970 C971 1.367 . S
C971 C970 1.367 . S
C971 C973 1.433 . S
C972 C968 1.350 . S
C972 C969 1.463 . S
C972 N976 1.427 . S
C973 H963 0.929 . S
C973 C971 1.433 . S
C973 N976 1.384 . S
C974 H965 0.929 . S
C974 C966 1.378 . S
C974 C969 1.350 . S
C975 H962 0.929 . S
C975 C967 1.433 . S
C975 N977 1.384 . S
N976 C972 1.427 . S
N976 C973 1.384 . S
N977 C969 1.427 . S
N977 C975 1.384 . S
H978 C984 0.930 . S
H979 C988 0.930 . S
H980 C993 0.929 . S
H981 C991 0.929 . S
H982 C986 0.929 . S
H983 C992 0.929 . S
C984 H978 0.930 . S
C984 C985 1.367 . S
C984 C992 1.378 . S
C985 C984 1.367 . S
C985 C993 1.433 . S
C986 H982 0.929 . S
C986 C988 1.378 . S
C986 C990 1.350 . S
C987 C990 1.463 . S
C987 C992 1.350 . S
C987 N995 1.427 . S
C988 H979 0.930 . S
C988 C986 1.378 . S
C988 C989 1.367 . S
C989 C988 1.367 . S
C989 C991 1.433 . S
C990 C986 1.350 . S
C990 C987 1.463 . S
C990 N994 1.427 . S
C991 H981 0.929 . S
C991 C989 1.433 . S
C991 N994 1.384 . S
C992 H983 0.929 . S
C992 C984 1.378 . S
C992 C987 1.350 . S
C993 H980 0.929 . S
C993 C985 1.433 . S
C993 N995 1.384 . S
N994 C990 1.427 . S
N994 C991 1.384 . S
N995 C987 1.427 . S
N995 C993 1.384 . S
H996 C1002 0.930 . S
H997 C1006 0.930 . S
H998 C1011 0.929 . S
H999 C1009 0.929 . S
H1000 C1004 0.929 . S
H1001 C1010 0.929 . S
C1002 H996 0.930 . S
C1002 C1003 1.367 . S
C1002 C1010 1.378 . S
C1003 C1002 1.367 . S
C1003 C1011 1.433 . S
C1004 H1000 0.929 . S
C1004 C1006 1.378 . S
C1004 C1008 1.350 . S
C1005 C1008 1.463 . S
C1005 C1010 1.350 . S
C1005 N1013 1.427 . S
C1006 H997 0.930 . S
C1006 C1004 1.378 . S
C1006 C1007 1.367 . S
C1007 C1006 1.367 . S
C1007 C1009 1.433 . S
C1008 C1004 1.350 . S
C1008 C1005 1.463 . S
C1008 N1012 1.427 . S
C1009 H999 0.929 . S
C1009 C1007 1.433 . S
C1009 N1012 1.384 . S
C1010 H1001 0.929 . S
C1010 C1002 1.378 . S
C1010 C1005 1.350 . S
C1011 H998 0.929 . S
C1011 C1003 1.433 . S
C1011 N1013 1.384 . S
N1012 C1008 1.427 . S
N1012 C1009 1.384 . S
N1013 C1005 1.427 . S
N1013 C1011 1.384 . S
H1014 C1020 0.930 . S
H1015 C1024 0.930 . S
H1016 C1029 0.929 . S
H1017 C1027 0.929 . S
H1018 C1022 0.929 . S
H1019 C1028 0.929 . S
C1020 H1014 0.930 . S
C1020 C1021 1.367 . S
C1020 C1028 1.378 . S
C1021 C1020 1.367 . S
C1021 C1029 1.433 . S
C1022 H1018 0.929 . S
C1022 C1024 1.378 . S
C1022 C1026 1.350 . S
C1023 C1026 1.463 . S
C1023 C1028 1.350 . S
C1023 N1031 1.427 . S
C1024 H1015 0.930 . S
C1024 C1022 1.378 . S
C1024 C1025 1.367 . S
C1025 C1024 1.367 . S
C1025 C1027 1.433 . S
C1026 C1022 1.350 . S
C1026 C1023 1.463 . S
C1026 N1030 1.427 . S
C1027 H1017 0.929 . S
C1027 C1025 1.433 . S
C1027 N1030 1.384 . S
C1028 H1019 0.929 . S
C1028 C1020 1.378 . S
C1028 C1023 1.350 . S
C1029 H1016 0.929 . S
C1029 C1021 1.433 . S
C1029 N1031 1.384 . S
N1030 C1026 1.427 . S
N1030 C1027 1.384 . S
N1031 C1023 1.427 . S
N1031 C1029 1.384 . S
H1032 C1038 0.930 . S
H1033 C1042 0.930 . S
H1034 C1047 0.929 . S
H1035 C1045 0.929 . S
H1036 C1040 0.929 . S
H1037 C1046 0.929 . S
C1038 H1032 0.930 . S
C1038 C1039 1.367 . S
C1038 C1046 1.378 . S
C1039 C1038 1.367 . S
C1039 C1047 1.433 . S
C1040 H1036 0.929 . S
C1040 C1042 1.378 1_565 S
C1040 C1044 1.350 . S
C1041 C1044 1.463 . S
C1041 C1046 1.350 . S
C1041 N1049 1.427 . S
C1042 H1033 0.930 . S
C1042 C1040 1.378 1_545 S
C1042 C1043 1.367 . S
C1043 C1042 1.367 . S
C1043 C1045 1.433 . S
C1044 C1040 1.350 . S
C1044 C1041 1.463 . S
C1044 N1048 1.427 1_565 S
C1045 H1035 0.929 . S
C1045 C1043 1.433 . S
C1045 N1048 1.384 . S
C1046 H1037 0.929 . S
C1046 C1038 1.378 . S
C1046 C1041 1.350 . S
C1047 H1034 0.929 . S
C1047 C1039 1.433 . S
C1047 N1049 1.384 . S
N1048 C1044 1.427 1_545 S
N1048 C1045 1.384 . S
N1049 C1041 1.427 . S
N1049 C1047 1.384 . S
H1050 C1056 0.930 . S
H1051 C1060 0.930 . S
H1052 C1065 0.929 . S
H1053 C1063 0.929 . S
H1054 C1058 0.929 . S
H1055 C1064 0.929 . S
C1056 H1050 0.930 . S
C1056 C1057 1.367 . S
C1056 C1064 1.378 . S
C1057 C1056 1.367 . S
C1057 C1065 1.433 . S
C1058 H1054 0.929 . S
C1058 C1060 1.378 . S
C1058 C1062 1.350 . S
C1059 C1062 1.463 . S
C1059 C1064 1.350 . S
C1059 N1067 1.427 . S
C1060 H1051 0.930 . S
C1060 C1058 1.378 . S
C1060 C1061 1.367 . S
C1061 C1060 1.367 . S
C1061 C1063 1.433 . S
C1062 C1058 1.350 . S
C1062 C1059 1.463 . S
C1062 N1066 1.427 . S
C1063 H1053 0.929 . S
C1063 C1061 1.433 . S
C1063 N1066 1.384 . S
C1064 H1055 0.929 . S
C1064 C1056 1.378 . S
C1064 C1059 1.350 . S
C1065 H1052 0.929 . S
C1065 C1057 1.433 . S
C1065 N1067 1.384 . S
N1066 C1062 1.427 . S
N1066 C1063 1.384 . S
N1067 C1059 1.427 . S
N1067 C1065 1.384 . S
H1068 C1074 0.930 . S
H1069 C1078 0.930 . S
H1070 C1083 0.929 . S
H1071 C1081 0.929 . S
H1072 C1076 0.929 . S
H1073 C1082 0.929 . S
C1074 H1068 0.930 . S
C1074 C1075 1.367 . S
C1074 C1082 1.378 . S
C1075 C1074 1.367 . S
C1075 C1083 1.433 . S
C1076 H1072 0.929 . S
C1076 C1078 1.378 . S
C1076 C1080 1.350 . S
C1077 C1080 1.463 . S
C1077 C1082 1.350 . S
C1077 N1085 1.427 . S
C1078 H1069 0.930 . S
C1078 C1076 1.378 . S
C1078 C1079 1.367 . S
C1079 C1078 1.367 . S
C1079 C1081 1.433 . S
C1080 C1076 1.350 . S
C1080 C1077 1.463 . S
C1080 N1084 1.427 . S
C1081 H1071 0.929 . S
C1081 C1079 1.433 . S
C1081 N1084 1.384 . S
C1082 H1073 0.929 . S
C1082 C1074 1.378 . S
C1082 C1077 1.350 . S
C1083 H1070 0.929 . S
C1083 C1075 1.433 . S
C1083 N1085 1.384 . S
N1084 C1080 1.427 . S
N1084 C1081 1.384 . S
N1085 C1077 1.427 . S
N1085 C1083 1.384 . S
H1086 C1092 0.930 . S
H1087 C1096 0.930 . S
H1088 C1101 0.929 . S
H1089 C1099 0.929 . S
H1090 C1094 0.929 . S
H1091 C1100 0.929 . S
C1092 H1086 0.930 . S
C1092 C1093 1.367 . S
C1092 C1100 1.378 . S
C1093 C1092 1.367 . S
C1093 C1101 1.433 . S
C1094 H1090 0.929 . S
C1094 C1096 1.378 . S
C1094 C1098 1.350 . S
C1095 C1098 1.463 . S
C1095 C1100 1.350 . S
C1095 N1103 1.427 . S
C1096 H1087 0.930 . S
C1096 C1094 1.378 . S
C1096 C1097 1.367 . S
C1097 C1096 1.367 . S
C1097 C1099 1.433 . S
C1098 C1094 1.350 . S
C1098 C1095 1.463 . S
C1098 N1102 1.427 . S
C1099 H1089 0.929 . S
C1099 C1097 1.433 . S
C1099 N1102 1.384 . S
C1100 H1091 0.929 . S
C1100 C1092 1.378 . S
C1100 C1095 1.350 . S
C1101 H1088 0.929 . S
C1101 C1093 1.433 . S
C1101 N1103 1.384 . S
N1102 C1098 1.427 . S
N1102 C1099 1.384 . S
N1103 C1095 1.427 . S
N1103 C1101 1.384 . S
H1104 C1110 0.930 . S
H1105 C1114 0.930 . S
H1106 C1119 0.929 . S
H1107 C1117 0.929 . S
H1108 C1112 0.929 . S
H1109 C1118 0.929 . S
C1110 H1104 0.930 . S
C1110 C1111 1.367 . S
C1110 C1118 1.378 . S
C1111 C1110 1.367 . S
C1111 C1119 1.433 . S
C1112 H1108 0.929 . S
C1112 C1114 1.378 . S
C1112 C1116 1.350 . S
C1113 C1116 1.463 . S
C1113 C1118 1.350 . S
C1113 N1121 1.427 . S
C1114 H1105 0.930 . S
C1114 C1112 1.378 . S
C1114 C1115 1.367 . S
C1115 C1114 1.367 . S
C1115 C1117 1.433 . S
C1116 C1112 1.350 . S
C1116 C1113 1.463 . S
C1116 N1120 1.427 . S
C1117 H1107 0.929 . S
C1117 C1115 1.433 . S
C1117 N1120 1.384 . S
C1118 H1109 0.929 . S
C1118 C1110 1.378 . S
C1118 C1113 1.350 . S
C1119 H1106 0.929 . S
C1119 C1111 1.433 . S
C1119 N1121 1.384 . S
N1120 C1116 1.427 . S
N1120 C1117 1.384 . S
N1121 C1113 1.427 . S
N1121 C1119 1.384 . S
H1122 C1128 0.930 . S
H1123 C1132 0.930 . S
H1124 C1137 0.929 . S
H1125 C1135 0.929 . S
H1126 C1130 0.929 . S
H1127 C1136 0.929 . S
C1128 H1122 0.930 . S
C1128 C1129 1.367 . S
C1128 C1136 1.378 . S
C1129 C1128 1.367 . S
C1129 C1137 1.433 . S
C1130 H1126 0.929 . S
C1130 C1132 1.378 . S
C1130 C1134 1.350 . S
C1131 C1134 1.463 . S
C1131 C1136 1.350 1_455 S
C1131 N1139 1.427 1_455 S
C1132 H1123 0.930 . S
C1132 C1130 1.378 . S
C1132 C1133 1.367 . S
C1133 C1132 1.367 . S
C1133 C1135 1.433 . S
C1134 C1130 1.350 . S
C1134 C1131 1.463 . S
C1134 N1138 1.427 . S
C1135 H1125 0.929 . S
C1135 C1133 1.433 . S
C1135 N1138 1.384 . S
C1136 H1127 0.929 . S
C1136 C1128 1.378 . S
C1136 C1131 1.350 1_655 S
C1137 H1124 0.929 . S
C1137 C1129 1.433 . S
C1137 N1139 1.384 . S
N1138 C1134 1.427 . S
N1138 C1135 1.384 . S
N1139 C1131 1.427 1_655 S
N1139 C1137 1.384 . S
H1140 C1146 0.930 . S
H1141 C1150 0.930 . S
H1142 C1155 0.929 . S
H1143 C1153 0.929 . S
H1144 C1148 0.929 . S
H1145 C1154 0.929 . S
C1146 H1140 0.930 . S
C1146 C1147 1.367 . S
C1146 C1154 1.378 . S
C1147 C1146 1.367 . S
C1147 C1155 1.433 . S
C1148 H1144 0.929 . S
C1148 C1150 1.378 . S
C1148 C1152 1.350 . S
C1149 C1152 1.463 . S
C1149 C1154 1.350 . S
C1149 N1157 1.427 . S
C1150 H1141 0.930 . S
C1150 C1148 1.378 . S
C1150 C1151 1.367 . S
C1151 C1150 1.367 . S
C1151 C1153 1.433 . S
C1152 C1148 1.350 . S
C1152 C1149 1.463 . S
C1152 N1156 1.427 . S
C1153 H1143 0.929 . S
C1153 C1151 1.433 . S
C1153 N1156 1.384 . S
C1154 H1145 0.929 . S
C1154 C1146 1.378 . S
C1154 C1149 1.350 . S
C1155 H1142 0.929 . S
C1155 C1147 1.433 . S
C1155 N1157 1.384 . S
N1156 C1152 1.427 . S
N1156 C1153 1.384 . S
N1157 C1149 1.427 . S
N1157 C1155 1.384 . S
H1158 C1164 0.930 . S
H1159 C1168 0.930 . S
H1160 C1173 0.929 . S
H1161 C1171 0.929 . S
H1162 C1166 0.929 . S
H1163 C1172 0.929 . S
C1164 H1158 0.930 . S
C1164 C1165 1.367 . S
C1164 C1172 1.378 . S
C1165 C1164 1.367 . S
C1165 C1173 1.433 . S
C1166 H1162 0.929 . S
C1166 C1168 1.378 . S
C1166 C1170 1.350 . S
C1167 C1170 1.463 . S
C1167 C1172 1.350 . S
C1167 N1175 1.427 . S
C1168 H1159 0.930 . S
C1168 C1166 1.378 . S
C1168 C1169 1.367 . S
C1169 C1168 1.367 . S
C1169 C1171 1.433 . S
C1170 C1166 1.350 . S
C1170 C1167 1.463 . S
C1170 N1174 1.427 . S
C1171 H1161 0.929 . S
C1171 C1169 1.433 . S
C1171 N1174 1.384 . S
C1172 H1163 0.929 . S
C1172 C1164 1.378 . S
C1172 C1167 1.350 . S
C1173 H1160 0.929 . S
C1173 C1165 1.433 . S
C1173 N1175 1.384 . S
N1174 C1170 1.427 . S
N1174 C1171 1.384 . S
N1175 C1167 1.427 . S
N1175 C1173 1.384 . S
H1176 C1182 0.930 . S
H1177 C1186 0.930 . S
H1178 C1191 0.929 . S
H1179 C1189 0.929 . S
H1180 C1184 0.929 . S
H1181 C1190 0.929 . S
C1182 H1176 0.930 . S
C1182 C1183 1.367 . S
C1182 C1190 1.378 . S
C1183 C1182 1.367 . S
C1183 C1191 1.433 . S
C1184 H1180 0.929 . S
C1184 C1186 1.378 . S
C1184 C1188 1.350 . S
C1185 C1188 1.463 . S
C1185 C1190 1.350 . S
C1185 N1193 1.427 . S
C1186 H1177 0.930 . S
C1186 C1184 1.378 . S
C1186 C1187 1.367 . S
C1187 C1186 1.367 . S
C1187 C1189 1.433 . S
C1188 C1184 1.350 . S
C1188 C1185 1.463 . S
C1188 N1192 1.427 . S
C1189 H1179 0.929 . S
C1189 C1187 1.433 . S
C1189 N1192 1.384 . S
C1190 H1181 0.929 . S
C1190 C1182 1.378 . S
C1190 C1185 1.350 . S
C1191 H1178 0.929 . S
C1191 C1183 1.433 . S
C1191 N1193 1.384 . S
N1192 C1188 1.427 . S
N1192 C1189 1.384 . S
N1193 C1185 1.427 . S
N1193 C1191 1.384 . S
H1194 C1200 0.930 . S
H1195 C1204 0.930 . S
H1196 C1209 0.929 . S
H1197 C1207 0.929 . S
H1198 C1202 0.929 . S
H1199 C1208 0.929 . S
C1200 H1194 0.930 . S
C1200 C1201 1.367 . S
C1200 C1208 1.378 . S
C1201 C1200 1.367 . S
C1201 C1209 1.433 . S
C1202 H1198 0.929 . S
C1202 C1204 1.378 . S
C1202 C1206 1.350 . S
C1203 C1206 1.463 . S
C1203 C1208 1.350 . S
C1203 N1211 1.427 . S
C1204 H1195 0.930 . S
C1204 C1202 1.378 . S
C1204 C1205 1.367 . S
C1205 C1204 1.367 . S
C1205 C1207 1.433 . S
C1206 C1202 1.350 . S
C1206 C1203 1.463 . S
C1206 N1210 1.427 . S
C1207 H1197 0.929 . S
C1207 C1205 1.433 . S
C1207 N1210 1.384 . S
C1208 H1199 0.929 . S
C1208 C1200 1.378 . S
C1208 C1203 1.350 . S
C1209 H1196 0.929 . S
C1209 C1201 1.433 . S
C1209 N1211 1.384 . S
N1210 C1206 1.427 . S
N1210 C1207 1.384 . S
N1211 C1203 1.427 . S
N1211 C1209 1.384 . S
H1212 C1218 0.930 . S
H1213 C1222 0.930 . S
H1214 C1227 0.929 . S
H1215 C1225 0.929 . S
H1216 C1220 0.929 . S
H1217 C1226 0.929 . S
C1218 H1212 0.930 . S
C1218 C1219 1.367 . S
C1218 C1226 1.378 . S
C1219 C1218 1.367 . S
C1219 C1227 1.433 . S
C1220 H1216 0.929 . S
C1220 C1222 1.378 . S
C1220 C1224 1.350 . S
C1221 C1224 1.463 . S
C1221 C1226 1.350 . S
C1221 N1229 1.427 . S
C1222 H1213 0.930 . S
C1222 C1220 1.378 . S
C1222 C1223 1.367 . S
C1223 C1222 1.367 . S
C1223 C1225 1.433 . S
C1224 C1220 1.350 . S
C1224 C1221 1.463 . S
C1224 N1228 1.427 . S
C1225 H1215 0.929 . S
C1225 C1223 1.433 . S
C1225 N1228 1.384 . S
C1226 H1217 0.929 . S
C1226 C1218 1.378 . S
C1226 C1221 1.350 . S
C1227 H1214 0.929 . S
C1227 C1219 1.433 . S
C1227 N1229 1.384 . S
N1228 C1224 1.427 . S
N1228 C1225 1.384 . S
N1229 C1221 1.427 . S
N1229 C1227 1.384 . S
H1230 C1236 0.930 . S
H1231 C1240 0.930 . S
H1232 C1245 0.929 . S
H1233 C1243 0.929 . S
H1234 C1238 0.929 1_455 S
H1235 C1244 0.929 . S
C1236 H1230 0.930 . S
C1236 C1237 1.367 . S
C1236 C1244 1.378 . S
C1237 C1236 1.367 . S
C1237 C1245 1.433 . S
C1238 H1234 0.929 1_655 S
C1238 C1240 1.378 . S
C1238 C1242 1.350 1_655 S
C1239 C1242 1.463 . S
C1239 C1244 1.350 . S
C1239 N1247 1.427 . S
C1240 H1231 0.930 . S
C1240 C1238 1.378 . S
C1240 C1241 1.367 . S
C1241 C1240 1.367 . S
C1241 C1243 1.433 . S
C1242 C1238 1.350 1_455 S
C1242 C1239 1.463 . S
C1242 N1246 1.427 1_455 S
C1243 H1233 0.929 . S
C1243 C1241 1.433 . S
C1243 N1246 1.384 . S
C1244 H1235 0.929 . S
C1244 C1236 1.378 . S
C1244 C1239 1.350 . S
C1245 H1232 0.929 . S
C1245 C1237 1.433 . S
C1245 N1247 1.384 . S
N1246 C1242 1.427 1_655 S
N1246 C1243 1.384 . S
N1247 C1239 1.427 . S
N1247 C1245 1.384 . S
H1248 C1254 0.930 . S
H1249 C1258 0.930 . S
H1250 C1263 0.929 . S
H1251 C1261 0.929 . S
H1252 C1256 0.929 . S
H1253 C1262 0.929 . S
C1254 H1248 0.930 . S
C1254 C1255 1.367 . S
C1254 C1262 1.378 . S
C1255 C1254 1.367 . S
C1255 C1263 1.433 . S
C1256 H1252 0.929 . S
C1256 C1258 1.378 . S
C1256 C1260 1.350 . S
C1257 C1260 1.463 . S
C1257 C1262 1.350 . S
C1257 N1265 1.427 . S
C1258 H1249 0.930 . S
C1258 C1256 1.378 . S
C1258 C1259 1.367 . S
C1259 C1258 1.367 . S
C1259 C1261 1.433 . S
C1260 C1256 1.350 . S
C1260 C1257 1.463 . S
C1260 N1264 1.427 . S
C1261 H1251 0.929 . S
C1261 C1259 1.433 . S
C1261 N1264 1.384 . S
C1262 H1253 0.929 . S
C1262 C1254 1.378 . S
C1262 C1257 1.350 . S
C1263 H1250 0.929 . S
C1263 C1255 1.433 . S
C1263 N1265 1.384 . S
N1264 C1260 1.427 . S
N1264 C1261 1.384 . S
N1265 C1257 1.427 . S
N1265 C1263 1.384 . S
H1266 C1272 0.930 . S
H1267 C1276 0.930 . S
H1268 C1281 0.929 . S
H1269 C1279 0.929 . S
H1270 C1274 0.929 . S
H1271 C1280 0.929 . S
C1272 H1266 0.930 . S
C1272 C1273 1.367 . S
C1272 C1280 1.378 . S
C1273 C1272 1.367 . S
C1273 C1281 1.433 . S
C1274 H1270 0.929 . S
C1274 C1276 1.378 . S
C1274 C1278 1.350 . S
C1275 C1278 1.463 . S
C1275 C1280 1.350 . S
C1275 N1283 1.427 . S
C1276 H1267 0.930 . S
C1276 C1274 1.378 . S
C1276 C1277 1.367 . S
C1277 C1276 1.367 . S
C1277 C1279 1.433 . S
C1278 C1274 1.350 . S
C1278 C1275 1.463 . S
C1278 N1282 1.427 . S
C1279 H1269 0.929 . S
C1279 C1277 1.433 . S
C1279 N1282 1.384 . S
C1280 H1271 0.929 . S
C1280 C1272 1.378 . S
C1280 C1275 1.350 . S
C1281 H1268 0.929 . S
C1281 C1273 1.433 . S
C1281 N1283 1.384 . S
N1282 C1278 1.427 . S
N1282 C1279 1.384 . S
N1283 C1275 1.427 . S
N1283 C1281 1.384 . S
H1284 C1290 0.930 . S
H1285 C1294 0.930 . S
H1286 C1299 0.929 . S
H1287 C1297 0.929 . S
H1288 C1292 0.929 . S
H1289 C1298 0.929 . S
C1290 H1284 0.930 . S
C1290 C1291 1.367 . S
C1290 C1298 1.378 . S
C1291 C1290 1.367 . S
C1291 C1299 1.433 . S
C1292 H1288 0.929 . S
C1292 C1294 1.378 . S
C1292 C1296 1.350 . S
C1293 C1296 1.463 . S
C1293 C1298 1.350 . S
C1293 N1301 1.427 . S
C1294 H1285 0.930 . S
C1294 C1292 1.378 . S
C1294 C1295 1.367 . S
C1295 C1294 1.367 . S
C1295 C1297 1.433 . S
C1296 C1292 1.350 . S
C1296 C1293 1.463 . S
C1296 N1300 1.427 . S
C1297 H1287 0.929 . S
C1297 C1295 1.433 . S
C1297 N1300 1.384 . S
C1298 H1289 0.929 . S
C1298 C1290 1.378 . S
C1298 C1293 1.350 . S
C1299 H1286 0.929 . S
C1299 C1291 1.433 . S
C1299 N1301 1.384 . S
N1300 C1296 1.427 . S
N1300 C1297 1.384 . S
N1301 C1293 1.427 . S
N1301 C1299 1.384 . S
H1302 C1308 0.930 . S
H1303 C1312 0.930 . S
H1304 C1317 0.929 . S
H1305 C1315 0.929 . S
H1306 C1310 0.947 . S
H1307 C1316 0.929 . S
C1308 H1302 0.930 . S
C1308 C1309 1.367 . S
C1308 C1316 1.378 . S
C1309 C1308 1.367 . S
C1309 C1317 1.433 . S
C1310 H1306 0.947 . S
C1310 C1312 1.378 . S
C1310 C1314 1.350 1_554 S
C1311 C1314 1.463 . S
C1311 C1316 1.350 . S
C1311 N1319 1.427 . S
C1312 H1303 0.930 . S
C1312 C1310 1.378 . S
C1312 C1313 1.367 . S
C1313 C1312 1.367 . S
C1313 C1315 1.433 . S
C1314 C1310 1.350 1_556 S
C1314 C1311 1.463 . S
C1314 N1318 1.427 1_556 S
C1315 H1305 0.929 . S
C1315 C1313 1.433 . S
C1315 N1318 1.385 . S
C1316 H1307 0.929 . S
C1316 C1308 1.378 . S
C1316 C1311 1.350 . S
C1317 H1304 0.929 . S
C1317 C1309 1.433 . S
C1317 N1319 1.384 . S
N1318 C1314 1.427 1_554 S
N1318 C1315 1.385 . S
N1319 C1311 1.427 . S
N1319 C1317 1.384 . S
H1320 C1326 0.930 . S
H1321 C1330 0.930 . S
H1322 C1335 0.929 . S
H1323 C1333 0.929 . S
H1324 C1328 0.929 . S
H1325 C1334 0.929 . S
C1326 H1320 0.930 . S
C1326 C1327 1.367 . S
C1326 C1334 1.378 . S
C1327 C1326 1.367 . S
C1327 C1335 1.433 . S
C1328 H1324 0.929 . S
C1328 C1330 1.378 . S
C1328 C1332 1.350 . S
C1329 C1332 1.463 . S
C1329 C1334 1.350 . S
C1329 N1337 1.427 . S
C1330 H1321 0.930 . S
C1330 C1328 1.378 . S
C1330 C1331 1.367 . S
C1331 C1330 1.367 . S
C1331 C1333 1.433 . S
C1332 C1328 1.350 . S
C1332 C1329 1.463 . S
C1332 N1336 1.427 . S
C1333 H1323 0.929 . S
C1333 C1331 1.433 . S
C1333 N1336 1.384 . S
C1334 H1325 0.929 . S
C1334 C1326 1.378 . S
C1334 C1329 1.350 . S
C1335 H1322 0.929 . S
C1335 C1327 1.433 . S
C1335 N1337 1.384 . S
N1336 C1332 1.427 . S
N1336 C1333 1.384 . S
N1337 C1329 1.427 . S
N1337 C1335 1.384 . S
H1338 C1344 0.930 . S
H1339 C1348 0.930 . S
H1340 C1353 0.929 . S
H1341 C1351 0.929 . S
H1342 C1346 0.929 . S
H1343 C1352 0.929 . S
C1344 H1338 0.930 . S
C1344 C1345 1.367 . S
C1344 C1352 1.378 . S
C1345 C1344 1.367 . S
C1345 C1353 1.433 . S
C1346 H1342 0.929 . S
C1346 C1348 1.378 . S
C1346 C1350 1.350 . S
C1347 C1350 1.463 . S
C1347 C1352 1.350 . S
C1347 N1355 1.427 . S
C1348 H1339 0.930 . S
C1348 C1346 1.378 . S
C1348 C1349 1.367 . S
C1349 C1348 1.367 . S
C1349 C1351 1.433 . S
C1350 C1346 1.350 . S
C1350 C1347 1.463 . S
C1350 N1354 1.427 . S
C1351 H1341 0.929 . S
C1351 C1349 1.433 . S
C1351 N1354 1.384 . S
C1352 H1343 0.929 . S
C1352 C1344 1.378 . S
C1352 C1347 1.350 . S
C1353 H1340 0.929 . S
C1353 C1345 1.433 . S
C1353 N1355 1.384 . S
N1354 C1350 1.427 . S
N1354 C1351 1.384 . S
N1355 C1347 1.427 . S
N1355 C1353 1.384 . S
H1356 C1362 0.930 . S
H1357 C1366 0.930 . S
H1358 C1371 0.929 . S
H1359 C1369 0.929 . S
H1360 C1364 0.929 . S
H1361 C1370 0.929 . S
C1362 H1356 0.930 . S
C1362 C1363 1.367 . S
C1362 C1370 1.378 . S
C1363 C1362 1.367 . S
C1363 C1371 1.433 . S
C1364 H1360 0.929 . S
C1364 C1366 1.378 . S
C1364 C1368 1.350 . S
C1365 C1368 1.463 . S
C1365 C1370 1.350 . S
C1365 N1373 1.427 . S
C1366 H1357 0.930 . S
C1366 C1364 1.378 . S
C1366 C1367 1.367 . S
C1367 C1366 1.367 . S
C1367 C1369 1.433 . S
C1368 C1364 1.350 . S
C1368 C1365 1.463 . S
C1368 N1372 1.427 . S
C1369 H1359 0.929 . S
C1369 C1367 1.433 . S
C1369 N1372 1.384 . S
C1370 H1361 0.929 . S
C1370 C1362 1.378 . S
C1370 C1365 1.350 . S
C1371 H1358 0.929 . S
C1371 C1363 1.433 . S
C1371 N1373 1.384 . S
N1372 C1368 1.427 . S
N1372 C1369 1.384 . S
N1373 C1365 1.427 . S
N1373 C1371 1.384 . S
H1374 C1380 0.930 . S
H1375 C1384 0.930 . S
H1376 C1389 0.929 . S
H1377 C1387 0.929 . S
H1378 C1382 0.929 . S
H1379 C1388 0.949 . S
C1380 H1374 0.930 . S
C1380 C1381 1.367 . S
C1380 C1388 1.344 1_556 S
C1381 C1380 1.367 . S
C1381 C1389 1.433 . S
C1382 H1378 0.929 . S
C1382 C1384 1.378 . S
C1382 C1386 1.350 . S
C1383 C1386 1.463 . S
C1383 C1388 1.363 . S
C1383 N1391 1.427 1_554 S
C1384 H1375 0.930 . S
C1384 C1382 1.378 . S
C1384 C1385 1.367 . S
C1385 C1384 1.367 . S
C1385 C1387 1.433 . S
C1386 C1382 1.350 . S
C1386 C1383 1.463 . S
C1386 N1390 1.427 . S
C1387 H1377 0.929 . S
C1387 C1385 1.433 . S
C1387 N1390 1.384 . S
C1388 H1379 0.949 . S
C1388 C1380 1.344 1_554 S
C1388 C1383 1.363 . S
C1389 H1376 0.929 . S
C1389 C1381 1.433 . S
C1389 N1391 1.384 . S
N1390 C1386 1.427 . S
N1390 C1387 1.384 . S
N1391 C1383 1.427 1_556 S
N1391 C1389 1.384 . S
H1392 C1398 0.930 . S
H1393 C1402 0.930 . S
H1394 C1407 0.929 . S
H1395 C1405 0.929 . S
H1396 C1400 0.929 . S
H1397 C1406 0.929 . S
C1398 H1392 0.930 . S
C1398 C1399 1.367 . S
C1398 C1406 1.378 . S
C1399 C1398 1.367 . S
C1399 C1407 1.433 . S
C1400 H1396 0.929 . S
C1400 C1402 1.378 . S
C1400 C1404 1.350 . S
C1401 C1404 1.463 . S
C1401 C1406 1.350 . S
C1401 N1409 1.427 . S
C1402 H1393 0.930 . S
C1402 C1400 1.378 . S
C1402 C1403 1.367 . S
C1403 C1402 1.367 . S
C1403 C1405 1.433 . S
C1404 C1400 1.350 . S
C1404 C1401 1.463 . S
C1404 N1408 1.427 . S
C1405 H1395 0.929 . S
C1405 C1403 1.433 . S
C1405 N1408 1.384 . S
C1406 H1397 0.929 . S
C1406 C1398 1.378 . S
C1406 C1401 1.350 . S
C1407 H1394 0.929 . S
C1407 C1399 1.433 . S
C1407 N1409 1.384 . S
N1408 C1404 1.427 . S
N1408 C1405 1.384 . S
N1409 C1401 1.427 . S
N1409 C1407 1.384 . S
H1410 C1416 0.930 . S
H1411 C1420 0.930 . S
H1412 C1425 0.929 . S
H1413 C1423 0.929 . S
H1414 C1418 0.929 . S
H1415 C1424 0.929 . S
C1416 H1410 0.930 . S
C1416 C1417 1.367 . S
C1416 C1424 1.378 . S
C1417 C1416 1.367 . S
C1417 C1425 1.433 . S
C1418 H1414 0.929 . S
C1418 C1420 1.378 . S
C1418 C1422 1.350 . S
C1419 C1422 1.463 . S
C1419 C1424 1.350 . S
C1419 N1427 1.427 . S
C1420 H1411 0.930 . S
C1420 C1418 1.378 . S
C1420 C1421 1.367 . S
C1421 C1420 1.367 . S
C1421 C1423 1.433 . S
C1422 C1418 1.350 . S
C1422 C1419 1.463 . S
C1422 N1426 1.427 . S
C1423 H1413 0.929 . S
C1423 C1421 1.433 . S
C1423 N1426 1.384 . S
C1424 H1415 0.929 . S
C1424 C1416 1.378 . S
C1424 C1419 1.350 . S
C1425 H1412 0.929 . S
C1425 C1417 1.433 . S
C1425 N1427 1.384 . S
N1426 C1422 1.427 . S
N1426 C1423 1.384 . S
N1427 C1419 1.427 . S
N1427 C1425 1.384 . S
H1428 C1434 0.930 . S
H1429 C1438 0.930 . S
H1430 C1443 0.929 . S
H1431 C1441 0.929 . S
H1432 C1436 0.929 . S
H1433 C1442 0.929 . S
C1434 H1428 0.930 . S
C1434 C1435 1.367 . S
C1434 C1442 1.378 . S
C1435 C1434 1.367 . S
C1435 C1443 1.433 . S
C1436 H1432 0.929 . S
C1436 C1438 1.378 . S
C1436 C1440 1.350 . S
C1437 C1440 1.463 . S
C1437 C1442 1.350 . S
C1437 N1445 1.427 . S
C1438 H1429 0.930 . S
C1438 C1436 1.378 . S
C1438 C1439 1.367 . S
C1439 C1438 1.367 . S
C1439 C1441 1.433 . S
C1440 C1436 1.350 . S
C1440 C1437 1.463 . S
C1440 N1444 1.427 . S
C1441 H1431 0.929 . S
C1441 C1439 1.433 . S
C1441 N1444 1.384 . S
C1442 H1433 0.929 . S
C1442 C1434 1.378 . S
C1442 C1437 1.350 . S
C1443 H1430 0.929 . S
C1443 C1435 1.433 . S
C1443 N1445 1.384 . S
N1444 C1440 1.427 . S
N1444 C1441 1.384 . S
N1445 C1437 1.427 . S
N1445 C1443 1.384 . S
H1446 C1452 0.930 . S
H1447 C1456 0.930 . S
H1448 C1461 0.929 . S
H1449 C1459 0.929 . S
H1450 C1454 0.929 . S
H1451 C1460 0.929 . S
C1452 H1446 0.930 . S
C1452 C1453 1.367 . S
C1452 C1460 1.378 . S
C1453 C1452 1.367 . S
C1453 C1461 1.433 . S
C1454 H1450 0.929 . S
C1454 C1456 1.378 . S
C1454 C1458 1.350 . S
C1455 C1458 1.463 . S
C1455 C1460 1.350 . S
C1455 N1463 1.427 . S
C1456 H1447 0.930 . S
C1456 C1454 1.378 . S
C1456 C1457 1.367 . S
C1457 C1456 1.367 . S
C1457 C1459 1.433 . S
C1458 C1454 1.350 . S
C1458 C1455 1.463 . S
C1458 N1462 1.427 . S
C1459 H1449 0.929 . S
C1459 C1457 1.433 . S
C1459 N1462 1.384 . S
C1460 H1451 0.929 . S
C1460 C1452 1.378 . S
C1460 C1455 1.350 . S
C1461 H1448 0.929 . S
C1461 C1453 1.433 . S
C1461 N1463 1.384 . S
N1462 C1458 1.427 . S
N1462 C1459 1.384 . S
N1463 C1455 1.427 . S
N1463 C1461 1.384 . S
H1464 C1470 0.930 . S
H1465 C1474 0.930 . S
H1466 C1479 0.929 . S
H1467 C1477 0.929 . S
H1468 C1472 0.929 . S
H1469 C1478 0.929 . S
C1470 H1464 0.930 . S
C1470 C1471 1.367 . S
C1470 C1478 1.378 . S
C1471 C1470 1.367 . S
C1471 C1479 1.433 . S
C1472 H1468 0.929 . S
C1472 C1474 1.378 . S
C1472 C1476 1.350 . S
C1473 C1476 1.463 . S
C1473 C1478 1.350 1_545 S
C1473 N1481 1.427 . S
C1474 H1465 0.930 . S
C1474 C1472 1.378 . S
C1474 C1475 1.367 . S
C1475 C1474 1.367 . S
C1475 C1477 1.433 . S
C1476 C1472 1.350 . S
C1476 C1473 1.463 . S
C1476 N1480 1.427 . S
C1477 H1467 0.929 . S
C1477 C1475 1.433 . S
C1477 N1480 1.384 . S
C1478 H1469 0.929 . S
C1478 C1470 1.378 . S
C1478 C1473 1.350 1_565 S
C1479 H1466 0.929 . S
C1479 C1471 1.433 . S
C1479 N1481 1.384 1_565 S
N1480 C1476 1.427 . S
N1480 C1477 1.384 . S
N1481 C1473 1.427 . S
N1481 C1479 1.384 1_545 S
H1482 C1488 0.930 . S
H1483 C1492 0.930 . S
H1484 C1497 0.929 . S
H1485 C1495 0.929 . S
H1486 C1490 0.929 . S
H1487 C1496 0.929 . S
C1488 H1482 0.930 . S
C1488 C1489 1.367 . S
C1488 C1496 1.378 . S
C1489 C1488 1.367 . S
C1489 C1497 1.433 . S
C1490 H1486 0.929 . S
C1490 C1492 1.378 . S
C1490 C1494 1.350 . S
C1491 C1494 1.463 . S
C1491 C1496 1.350 . S
C1491 N1499 1.427 . S
C1492 H1483 0.930 . S
C1492 C1490 1.378 . S
C1492 C1493 1.367 . S
C1493 C1492 1.367 . S
C1493 C1495 1.433 . S
C1494 C1490 1.350 . S
C1494 C1491 1.463 . S
C1494 N1498 1.427 . S
C1495 H1485 0.929 . S
C1495 C1493 1.433 . S
C1495 N1498 1.384 . S
C1496 H1487 0.929 . S
C1496 C1488 1.378 . S
C1496 C1491 1.350 . S
C1497 H1484 0.929 . S
C1497 C1489 1.433 . S
C1497 N1499 1.384 . S
N1498 C1494 1.427 . S
N1498 C1495 1.384 . S
N1499 C1491 1.427 . S
N1499 C1497 1.384 . S
H1500 C1506 0.930 . S
H1501 C1510 0.930 . S
H1502 C1515 0.929 . S
H1503 C1513 0.929 . S
H1504 C1508 0.929 . S
H1505 C1514 0.929 . S
C1506 H1500 0.930 . S
C1506 C1507 1.367 . S
C1506 C1514 1.378 . S
C1507 C1506 1.367 . S
C1507 C1515 1.433 . S
C1508 H1504 0.929 . S
C1508 C1510 1.378 . S
C1508 C1512 1.350 . S
C1509 C1512 1.463 . S
C1509 C1514 1.350 . S
C1509 N1517 1.427 . S
C1510 H1501 0.930 . S
C1510 C1508 1.378 . S
C1510 C1511 1.367 . S
C1511 C1510 1.367 . S
C1511 C1513 1.433 . S
C1512 C1508 1.350 . S
C1512 C1509 1.463 . S
C1512 N1516 1.427 . S
C1513 H1503 0.929 . S
C1513 C1511 1.433 . S
C1513 N1516 1.384 . S
C1514 H1505 0.929 . S
C1514 C1506 1.378 . S
C1514 C1509 1.350 . S
C1515 H1502 0.929 . S
C1515 C1507 1.433 . S
C1515 N1517 1.384 . S
N1516 C1512 1.427 . S
N1516 C1513 1.384 . S
N1517 C1509 1.427 . S
N1517 C1515 1.384 . S
H1518 C1524 0.930 . S
H1519 C1528 0.930 . S
H1520 C1533 0.929 . S
H1521 C1531 0.929 . S
H1522 C1526 0.929 . S
H1523 C1532 0.929 . S
C1524 H1518 0.930 . S
C1524 C1525 1.367 . S
C1524 C1532 1.378 . S
C1525 C1524 1.367 . S
C1525 C1533 1.433 . S
C1526 H1522 0.929 . S
C1526 C1528 1.378 . S
C1526 C1530 1.350 . S
C1527 C1530 1.463 . S
C1527 C1532 1.350 . S
C1527 N1535 1.427 . S
C1528 H1519 0.930 . S
C1528 C1526 1.378 . S
C1528 C1529 1.367 . S
C1529 C1528 1.367 . S
C1529 C1531 1.433 . S
C1530 C1526 1.350 . S
C1530 C1527 1.463 . S
C1530 N1534 1.427 . S
C1531 H1521 0.929 . S
C1531 C1529 1.433 . S
C1531 N1534 1.384 . S
C1532 H1523 0.929 . S
C1532 C1524 1.378 . S
C1532 C1527 1.350 . S
C1533 H1520 0.929 . S
C1533 C1525 1.433 . S
C1533 N1535 1.384 . S
N1534 C1530 1.427 . S
N1534 C1531 1.384 . S
N1535 C1527 1.427 . S
N1535 C1533 1.384 . S
H1536 C1542 0.930 . S
H1537 C1546 0.930 . S
H1538 C1551 0.929 . S
H1539 C1549 0.929 . S
H1540 C1544 0.929 . S
H1541 C1550 0.929 . S
C1542 H1536 0.930 . S
C1542 C1543 1.367 . S
C1542 C1550 1.378 . S
C1543 C1542 1.367 . S
C1543 C1551 1.433 . S
C1544 H1540 0.929 . S
C1544 C1546 1.378 . S
C1544 C1548 1.350 . S
C1545 C1548 1.463 . S
C1545 C1550 1.350 . S
C1545 N1553 1.427 . S
C1546 H1537 0.930 . S
C1546 C1544 1.378 . S
C1546 C1547 1.367 . S
C1547 C1546 1.367 . S
C1547 C1549 1.433 . S
C1548 C1544 1.350 . S
C1548 C1545 1.463 . S
C1548 N1552 1.427 . S
C1549 H1539 0.929 . S
C1549 C1547 1.433 . S
C1549 N1552 1.384 . S
C1550 H1541 0.929 . S
C1550 C1542 1.378 . S
C1550 C1545 1.350 . S
C1551 H1538 0.929 . S
C1551 C1543 1.433 . S
C1551 N1553 1.384 . S
N1552 C1548 1.427 . S
N1552 C1549 1.384 . S
N1553 C1545 1.427 . S
N1553 C1551 1.384 . S
H1554 C1560 0.930 . S
H1555 C1564 0.930 . S
H1556 C1569 0.929 . S
H1557 C1567 0.929 . S
H1558 C1562 0.929 . S
H1559 C1568 0.929 . S
C1560 H1554 0.930 . S
C1560 C1561 1.367 . S
C1560 C1568 1.378 . S
C1561 C1560 1.367 . S
C1561 C1569 1.433 . S
C1562 H1558 0.929 . S
C1562 C1564 1.378 . S
C1562 C1566 1.350 . S
C1563 C1566 1.463 . S
C1563 C1568 1.350 . S
C1563 N1571 1.427 . S
C1564 H1555 0.930 . S
C1564 C1562 1.378 . S
C1564 C1565 1.367 . S
C1565 C1564 1.367 . S
C1565 C1567 1.433 . S
C1566 C1562 1.350 . S
C1566 C1563 1.463 . S
C1566 N1570 1.427 . S
C1567 H1557 0.929 . S
C1567 C1565 1.433 . S
C1567 N1570 1.384 . S
C1568 H1559 0.929 . S
C1568 C1560 1.378 . S
C1568 C1563 1.350 . S
C1569 H1556 0.929 . S
C1569 C1561 1.433 . S
C1569 N1571 1.384 . S
N1570 C1566 1.427 . S
N1570 C1567 1.384 . S
N1571 C1563 1.427 . S
N1571 C1569 1.384 . S
H1572 C1578 0.930 . S
H1573 C1582 0.930 . S
H1574 C1587 0.929 . S
H1575 C1585 0.929 . S
H1576 C1580 0.929 . S
H1577 C1586 0.929 . S
C1578 H1572 0.930 . S
C1578 C1579 1.367 . S
C1578 C1586 1.378 . S
C1579 C1578 1.367 . S
C1579 C1587 1.433 . S
C1580 H1576 0.929 . S
C1580 C1582 1.378 . S
C1580 C1584 1.350 . S
C1581 C1584 1.463 . S
C1581 C1586 1.350 . S
C1581 N1589 1.427 . S
C1582 H1573 0.930 . S
C1582 C1580 1.378 . S
C1582 C1583 1.367 . S
C1583 C1582 1.367 . S
C1583 C1585 1.433 . S
C1584 C1580 1.350 . S
C1584 C1581 1.463 . S
C1584 N1588 1.427 . S
C1585 H1575 0.929 . S
C1585 C1583 1.433 . S
C1585 N1588 1.384 . S
C1586 H1577 0.929 . S
C1586 C1578 1.378 . S
C1586 C1581 1.350 . S
C1587 H1574 0.929 . S
C1587 C1579 1.433 . S
C1587 N1589 1.384 . S
N1588 C1584 1.427 . S
N1588 C1585 1.384 . S
N1589 C1581 1.427 . S
N1589 C1587 1.384 . S
H1590 C1596 0.930 . S
H1591 C1600 0.930 . S
H1592 C1605 0.929 . S
H1593 C1603 0.929 . S
H1594 C1598 0.929 . S
H1595 C1604 0.929 1_455 S
C1596 H1590 0.930 . S
C1596 C1597 1.367 . S
C1596 C1604 1.378 . S
C1597 C1596 1.367 . S
C1597 C1605 1.433 . S
C1598 H1594 0.929 . S
C1598 C1600 1.378 . S
C1598 C1602 1.350 . S
C1599 C1602 1.463 . S
C1599 C1604 1.350 1_455 S
C1599 N1607 1.427 . S
C1600 H1591 0.930 . S
C1600 C1598 1.378 . S
C1600 C1601 1.367 . S
C1601 C1600 1.367 . S
C1601 C1603 1.433 . S
C1602 C1598 1.350 . S
C1602 C1599 1.463 . S
C1602 N1606 1.427 . S
C1603 H1593 0.929 . S
C1603 C1601 1.433 . S
C1603 N1606 1.384 . S
C1604 H1595 0.929 1_655 S
C1604 C1596 1.378 . S
C1604 C1599 1.350 1_655 S
C1605 H1592 0.929 . S
C1605 C1597 1.433 . S
C1605 N1607 1.384 1_655 S
N1606 C1602 1.427 . S
N1606 C1603 1.384 . S
N1607 C1599 1.427 . S
N1607 C1605 1.384 1_455 S
H1608 C1614 0.930 . S
H1609 C1618 0.930 . S
H1610 C1623 0.929 . S
H1611 C1621 0.929 . S
H1612 C1616 0.929 . S
H1613 C1622 0.929 . S
C1614 H1608 0.930 . S
C1614 C1615 1.367 . S
C1614 C1622 1.378 . S
C1615 C1614 1.367 . S
C1615 C1623 1.433 . S
C1616 H1612 0.929 . S
C1616 C1618 1.378 . S
C1616 C1620 1.350 . S
C1617 C1620 1.463 . S
C1617 C1622 1.350 . S
C1617 N1625 1.427 . S
C1618 H1609 0.930 . S
C1618 C1616 1.378 . S
C1618 C1619 1.367 . S
C1619 C1618 1.367 . S
C1619 C1621 1.433 . S
C1620 C1616 1.350 . S
C1620 C1617 1.463 . S
C1620 N1624 1.427 . S
C1621 H1611 0.929 . S
C1621 C1619 1.433 . S
C1621 N1624 1.384 . S
C1622 H1613 0.929 . S
C1622 C1614 1.378 . S
C1622 C1617 1.350 . S
C1623 H1610 0.929 . S
C1623 C1615 1.433 . S
C1623 N1625 1.384 . S
N1624 C1620 1.427 . S
N1624 C1621 1.384 . S
N1625 C1617 1.427 . S
N1625 C1623 1.384 . S
H1626 C1632 0.930 . S
H1627 C1636 0.930 . S
H1628 C1641 0.929 . S
H1629 C1639 0.929 . S
H1630 C1634 0.929 . S
H1631 C1640 0.929 . S
C1632 H1626 0.930 . S
C1632 C1633 1.367 . S
C1632 C1640 1.378 . S
C1633 C1632 1.367 . S
C1633 C1641 1.433 . S
C1634 H1630 0.929 . S
C1634 C1636 1.378 1_455 S
C1634 C1638 1.350 . S
C1635 C1638 1.463 . S
C1635 C1640 1.350 . S
C1635 N1643 1.427 . S
C1636 H1627 0.930 . S
C1636 C1634 1.378 1_655 S
C1636 C1637 1.367 . S
C1637 C1636 1.367 . S
C1637 C1639 1.433 . S
C1638 C1634 1.350 . S
C1638 C1635 1.463 . S
C1638 N1642 1.427 1_455 S
C1639 H1629 0.929 . S
C1639 C1637 1.433 . S
C1639 N1642 1.384 . S
C1640 H1631 0.929 . S
C1640 C1632 1.378 . S
C1640 C1635 1.350 . S
C1641 H1628 0.929 . S
C1641 C1633 1.433 . S
C1641 N1643 1.384 . S
N1642 C1638 1.427 1_655 S
N1642 C1639 1.384 . S
N1643 C1635 1.427 . S
N1643 C1641 1.384 . S
H1644 C1650 0.930 . S
H1645 C1654 0.930 . S
H1646 C1659 0.929 . S
H1647 C1657 0.929 . S
H1648 C1652 0.929 . S
H1649 C1658 0.929 . S
C1650 H1644 0.930 . S
C1650 C1651 1.367 . S
C1650 C1658 1.378 . S
C1651 C1650 1.367 . S
C1651 C1659 1.433 . S
C1652 H1648 0.929 . S
C1652 C1654 1.378 . S
C1652 C1656 1.350 . S
C1653 C1656 1.463 . S
C1653 C1658 1.350 . S
C1653 N1661 1.427 . S
C1654 H1645 0.930 . S
C1654 C1652 1.378 . S
C1654 C1655 1.367 . S
C1655 C1654 1.367 . S
C1655 C1657 1.433 . S
C1656 C1652 1.350 . S
C1656 C1653 1.463 . S
C1656 N1660 1.427 . S
C1657 H1647 0.929 . S
C1657 C1655 1.433 . S
C1657 N1660 1.384 . S
C1658 H1649 0.929 . S
C1658 C1650 1.378 . S
C1658 C1653 1.350 . S
C1659 H1646 0.929 . S
C1659 C1651 1.433 . S
C1659 N1661 1.384 . S
N1660 C1656 1.427 . S
N1660 C1657 1.384 . S
N1661 C1653 1.427 . S
N1661 C1659 1.384 . S
H1662 C1668 0.930 . S
H1663 C1672 0.930 . S
H1664 C1677 0.929 . S
H1665 C1675 0.929 . S
H1666 C1670 0.929 . S
H1667 C1676 0.929 . S
C1668 H1662 0.930 . S
C1668 C1669 1.367 . S
C1668 C1676 1.378 . S
C1669 C1668 1.367 . S
C1669 C1677 1.433 . S
C1670 H1666 0.929 . S
C1670 C1672 1.378 . S
C1670 C1674 1.350 . S
C1671 C1674 1.463 . S
C1671 C1676 1.350 . S
C1671 N1679 1.427 . S
C1672 H1663 0.930 . S
C1672 C1670 1.378 . S
C1672 C1673 1.367 . S
C1673 C1672 1.367 . S
C1673 C1675 1.433 . S
C1674 C1670 1.350 . S
C1674 C1671 1.463 . S
C1674 N1678 1.427 . S
C1675 H1665 0.929 . S
C1675 C1673 1.433 . S
C1675 N1678 1.384 . S
C1676 H1667 0.929 . S
C1676 C1668 1.378 . S
C1676 C1671 1.350 . S
C1677 H1664 0.929 . S
C1677 C1669 1.433 . S
C1677 N1679 1.384 . S
N1678 C1674 1.427 . S
N1678 C1675 1.384 . S
N1679 C1671 1.427 . S
N1679 C1677 1.384 . S
H1680 C1686 0.930 . S
H1681 C1690 0.930 . S
H1682 C1695 0.929 . S
H1683 C1693 0.929 . S
H1684 C1688 0.929 . S
H1685 C1694 0.929 . S
C1686 H1680 0.930 . S
C1686 C1687 1.367 . S
C1686 C1694 1.378 . S
C1687 C1686 1.367 . S
C1687 C1695 1.433 . S
C1688 H1684 0.929 . S
C1688 C1690 1.378 . S
C1688 C1692 1.350 . S
C1689 C1692 1.463 . S
C1689 C1694 1.350 . S
C1689 N1697 1.427 . S
C1690 H1681 0.930 . S
C1690 C1688 1.378 . S
C1690 C1691 1.367 . S
C1691 C1690 1.367 . S
C1691 C1693 1.433 . S
C1692 C1688 1.350 . S
C1692 C1689 1.463 . S
C1692 N1696 1.427 . S
C1693 H1683 0.929 . S
C1693 C1691 1.433 . S
C1693 N1696 1.384 . S
C1694 H1685 0.929 . S
C1694 C1686 1.378 . S
C1694 C1689 1.350 . S
C1695 H1682 0.929 . S
C1695 C1687 1.433 . S
C1695 N1697 1.384 . S
N1696 C1692 1.427 . S
N1696 C1693 1.384 . S
N1697 C1689 1.427 . S
N1697 C1695 1.384 . S
H1698 C1704 0.930 . S
H1699 C1708 0.930 . S
H1700 C1713 0.929 . S
H1701 C1711 0.929 . S
H1702 C1706 0.929 . S
H1703 C1712 0.929 . S
C1704 H1698 0.930 . S
C1704 C1705 1.367 . S
C1704 C1712 1.378 . S
C1705 C1704 1.367 . S
C1705 C1713 1.433 . S
C1706 H1702 0.929 . S
C1706 C1708 1.378 . S
C1706 C1710 1.350 1_556 S
C1707 C1710 1.463 . S
C1707 C1712 1.350 . S
C1707 N1715 1.427 . S
C1708 H1699 0.930 . S
C1708 C1706 1.378 . S
C1708 C1709 1.367 . S
C1709 C1708 1.367 . S
C1709 C1711 1.433 . S
C1710 C1706 1.350 1_554 S
C1710 C1707 1.463 . S
C1710 N1714 1.427 1_554 S
C1711 H1701 0.929 . S
C1711 C1709 1.433 . S
C1711 N1714 1.384 . S
C1712 H1703 0.929 . S
C1712 C1704 1.378 . S
C1712 C1707 1.350 . S
C1713 H1700 0.929 . S
C1713 C1705 1.433 . S
C1713 N1715 1.384 . S
N1714 C1710 1.427 1_556 S
N1714 C1711 1.384 . S
N1715 C1707 1.427 . S
N1715 C1713 1.384 . S
H1716 C1722 0.930 . S
H1717 C1726 0.930 . S
H1718 C1731 0.929 . S
H1719 C1729 0.929 . S
H1720 C1724 0.929 . S
H1721 C1730 0.929 . S
C1722 H1716 0.930 . S
C1722 C1723 1.367 . S
C1722 C1730 1.378 . S
C1723 C1722 1.367 . S
C1723 C1731 1.433 . S
C1724 H1720 0.929 . S
C1724 C1726 1.378 . S
C1724 C1728 1.350 . S
C1725 C1728 1.463 . S
C1725 C1730 1.350 . S
C1725 N1733 1.427 . S
C1726 H1717 0.930 . S
C1726 C1724 1.378 . S
C1726 C1727 1.367 . S
C1727 C1726 1.367 . S
C1727 C1729 1.433 . S
C1728 C1724 1.350 . S
C1728 C1725 1.463 . S
C1728 N1732 1.427 . S
C1729 H1719 0.929 . S
C1729 C1727 1.433 . S
C1729 N1732 1.384 . S
C1730 H1721 0.929 . S
C1730 C1722 1.378 . S
C1730 C1725 1.350 . S
C1731 H1718 0.929 . S
C1731 C1723 1.433 . S
C1731 N1733 1.384 . S
N1732 C1728 1.427 . S
N1732 C1729 1.384 . S
N1733 C1725 1.427 . S
N1733 C1731 1.384 . S
H1734 C1740 0.930 . S
H1735 C1744 0.930 . S
H1736 C1749 0.929 . S
H1737 C1747 0.929 . S
H1738 C1742 0.929 . S
H1739 C1748 0.929 . S
C1740 H1734 0.930 . S
C1740 C1741 1.367 . S
C1740 C1748 1.378 . S
C1741 C1740 1.367 . S
C1741 C1749 1.433 . S
C1742 H1738 0.929 . S
C1742 C1744 1.378 . S
C1742 C1746 1.350 . S
C1743 C1746 1.463 . S
C1743 C1748 1.350 . S
C1743 N1751 1.427 . S
C1744 H1735 0.930 . S
C1744 C1742 1.378 . S
C1744 C1745 1.367 . S
C1745 C1744 1.367 . S
C1745 C1747 1.433 . S
C1746 C1742 1.350 . S
C1746 C1743 1.463 . S
C1746 N1750 1.427 . S
C1747 H1737 0.929 . S
C1747 C1745 1.433 . S
C1747 N1750 1.384 . S
C1748 H1739 0.929 . S
C1748 C1740 1.378 . S
C1748 C1743 1.350 . S
C1749 H1736 0.929 . S
C1749 C1741 1.433 . S
C1749 N1751 1.384 . S
N1750 C1746 1.427 . S
N1750 C1747 1.384 . S
N1751 C1743 1.427 . S
N1751 C1749 1.384 . S
H1752 C1758 0.930 . S
H1753 C1762 0.930 . S
H1754 C1767 0.929 . S
H1755 C1765 0.929 . S
H1756 C1760 0.929 . S
H1757 C1766 0.929 . S
C1758 H1752 0.930 . S
C1758 C1759 1.367 . S
C1758 C1766 1.378 . S
C1759 C1758 1.367 . S
C1759 C1767 1.433 . S
C1760 H1756 0.929 . S
C1760 C1762 1.378 . S
C1760 C1764 1.350 . S
C1761 C1764 1.463 . S
C1761 C1766 1.350 . S
C1761 N1769 1.427 . S
C1762 H1753 0.930 . S
C1762 C1760 1.378 . S
C1762 C1763 1.367 . S
C1763 C1762 1.367 . S
C1763 C1765 1.433 . S
C1764 C1760 1.350 . S
C1764 C1761 1.463 . S
C1764 N1768 1.427 . S
C1765 H1755 0.929 . S
C1765 C1763 1.433 . S
C1765 N1768 1.384 . S
C1766 H1757 0.929 . S
C1766 C1758 1.378 . S
C1766 C1761 1.350 . S
C1767 H1754 0.929 . S
C1767 C1759 1.433 . S
C1767 N1769 1.384 . S
N1768 C1764 1.427 . S
N1768 C1765 1.384 . S
N1769 C1761 1.427 . S
N1769 C1767 1.384 . S
H1770 C1776 0.930 . S
H1771 C1780 0.930 . S
H1772 C1785 0.929 . S
H1773 C1783 0.929 . S
H1774 C1778 0.929 1_556 S
H1775 C1784 0.929 . S
C1776 H1770 0.930 . S
C1776 C1777 1.367 . S
C1776 C1784 1.378 . S
C1777 C1776 1.367 . S
C1777 C1785 1.433 . S
C1778 H1774 0.929 1_554 S
C1778 C1780 1.378 . S
C1778 C1782 1.350 1_554 S
C1779 C1782 1.463 . S
C1779 C1784 1.350 . S
C1779 N1787 1.427 . S
C1780 H1771 0.930 . S
C1780 C1778 1.378 . S
C1780 C1781 1.367 . S
C1781 C1780 1.367 . S
C1781 C1783 1.433 . S
C1782 C1778 1.350 1_556 S
C1782 C1779 1.463 . S
C1782 N1786 1.427 1_556 S
C1783 H1773 0.929 . S
C1783 C1781 1.433 . S
C1783 N1786 1.384 . S
C1784 H1775 0.929 . S
C1784 C1776 1.378 . S
C1784 C1779 1.350 . S
C1785 H1772 0.929 . S
C1785 C1777 1.433 . S
C1785 N1787 1.384 . S
N1786 C1782 1.427 1_554 S
N1786 C1783 1.384 . S
N1787 C1779 1.427 . S
N1787 C1785 1.384 . S
H1788 C1794 0.930 . S
H1789 C1798 0.930 . S
H1790 C1803 0.929 . S
H1791 C1801 0.929 . S
H1792 C1796 0.929 . S
H1793 C1802 0.929 . S
C1794 H1788 0.930 . S
C1794 C1795 1.367 . S
C1794 C1802 1.378 . S
C1795 C1794 1.367 . S
C1795 C1803 1.433 . S
C1796 H1792 0.929 . S
C1796 C1798 1.378 . S
C1796 C1800 1.350 . S
C1797 C1800 1.463 . S
C1797 C1802 1.350 . S
C1797 N1805 1.427 . S
C1798 H1789 0.930 . S
C1798 C1796 1.378 . S
C1798 C1799 1.367 . S
C1799 C1798 1.367 . S
C1799 C1801 1.433 . S
C1800 C1796 1.350 . S
C1800 C1797 1.463 . S
C1800 N1804 1.427 . S
C1801 H1791 0.929 . S
C1801 C1799 1.433 . S
C1801 N1804 1.384 . S
C1802 H1793 0.929 . S
C1802 C1794 1.378 . S
C1802 C1797 1.350 . S
C1803 H1790 0.929 . S
C1803 C1795 1.433 . S
C1803 N1805 1.384 . S
N1804 C1800 1.427 . S
N1804 C1801 1.384 . S
N1805 C1797 1.427 . S
N1805 C1803 1.384 . S
H1806 C1812 0.930 . S
H1807 C1816 0.930 . S
H1808 C1821 0.929 . S
H1809 C1819 0.929 . S
H1810 C1814 0.929 . S
H1811 C1820 0.929 . S
C1812 H1806 0.930 . S
C1812 C1813 1.367 . S
C1812 C1820 1.378 . S
C1813 C1812 1.367 . S
C1813 C1821 1.433 . S
C1814 H1810 0.929 . S
C1814 C1816 1.378 . S
C1814 C1818 1.350 . S
C1815 C1818 1.463 . S
C1815 C1820 1.350 . S
C1815 N1823 1.427 . S
C1816 H1807 0.930 . S
C1816 C1814 1.378 . S
C1816 C1817 1.367 . S
C1817 C1816 1.367 . S
C1817 C1819 1.433 . S
C1818 C1814 1.350 . S
C1818 C1815 1.463 . S
C1818 N1822 1.427 . S
C1819 H1809 0.929 . S
C1819 C1817 1.433 . S
C1819 N1822 1.384 . S
C1820 H1811 0.929 . S
C1820 C1812 1.378 . S
C1820 C1815 1.350 . S
C1821 H1808 0.929 . S
C1821 C1813 1.433 . S
C1821 N1823 1.384 . S
N1822 C1818 1.427 . S
N1822 C1819 1.384 . S
N1823 C1815 1.427 . S
N1823 C1821 1.384 . S
H1824 C1830 0.930 . S
H1825 C1834 0.930 . S
H1826 C1839 0.929 . S
H1827 C1837 0.929 . S
H1828 C1832 0.929 . S
H1829 C1838 0.929 . S
C1830 H1824 0.930 . S
C1830 C1831 1.367 . S
C1830 C1838 1.378 . S
C1831 C1830 1.367 . S
C1831 C1839 1.433 . S
C1832 H1828 0.929 . S
C1832 C1834 1.378 . S
C1832 C1836 1.350 . S
C1833 C1836 1.463 . S
C1833 C1838 1.350 . S
C1833 N1841 1.427 . S
C1834 H1825 0.930 . S
C1834 C1832 1.378 . S
C1834 C1835 1.367 . S
C1835 C1834 1.367 . S
C1835 C1837 1.433 . S
C1836 C1832 1.350 . S
C1836 C1833 1.463 . S
C1836 N1840 1.427 . S
C1837 H1827 0.929 . S
C1837 C1835 1.433 . S
C1837 N1840 1.384 . S
C1838 H1829 0.929 . S
C1838 C1830 1.378 . S
C1838 C1833 1.350 . S
C1839 H1826 0.929 . S
C1839 C1831 1.433 . S
C1839 N1841 1.384 . S
N1840 C1836 1.427 . S
N1840 C1837 1.384 . S
N1841 C1833 1.427 . S
N1841 C1839 1.384 . S
H1842 C1848 0.930 . S
H1843 C1852 0.930 . S
H1844 C1857 0.929 . S
H1845 C1855 0.929 . S
H1846 C1850 0.929 . S
H1847 C1856 0.929 . S
C1848 H1842 0.930 . S
C1848 C1849 1.367 . S
C1848 C1856 1.378 . S
C1849 C1848 1.367 . S
C1849 C1857 1.433 . S
C1850 H1846 0.929 . S
C1850 C1852 1.378 . S
C1850 C1854 1.350 . S
C1851 C1854 1.463 . S
C1851 C1856 1.350 . S
C1851 N1859 1.427 . S
C1852 H1843 0.930 . S
C1852 C1850 1.378 . S
C1852 C1853 1.367 . S
C1853 C1852 1.367 . S
C1853 C1855 1.433 . S
C1854 C1850 1.350 . S
C1854 C1851 1.463 . S
C1854 N1858 1.427 . S
C1855 H1845 0.929 . S
C1855 C1853 1.433 . S
C1855 N1858 1.384 . S
C1856 H1847 0.929 . S
C1856 C1848 1.378 . S
C1856 C1851 1.350 . S
C1857 H1844 0.929 . S
C1857 C1849 1.433 . S
C1857 N1859 1.384 . S
N1858 C1854 1.427 . S
N1858 C1855 1.384 . S
N1859 C1851 1.427 . S
N1859 C1857 1.384 . S
H1860 C1866 0.930 . S
H1861 C1870 0.930 . S
H1862 C1875 0.929 . S
H1863 C1873 0.929 . S
H1864 C1868 0.956 . S
H1865 C1874 0.929 . S
C1866 H1860 0.930 . S
C1866 C1867 1.367 . S
C1866 C1874 1.378 . S
C1867 C1866 1.367 . S
C1867 C1875 1.433 . S
C1868 H1864 0.956 . S
C1868 C1870 1.338 1_545 S
C1868 C1872 1.363 . S
C1869 C1872 1.463 . S
C1869 C1874 1.350 . S
C1869 N1877 1.427 . S
C1870 H1861 0.930 . S
C1870 C1868 1.338 1_565 S
C1870 C1871 1.367 . S
C1871 C1870 1.367 . S
C1871 C1873 1.433 . S
C1872 C1868 1.363 . S
C1872 C1869 1.463 . S
C1872 N1876 1.427 1_545 S
C1873 H1863 0.929 . S
C1873 C1871 1.433 . S
C1873 N1876 1.384 . S
C1874 H1865 0.929 . S
C1874 C1866 1.378 . S
C1874 C1869 1.350 . S
C1875 H1862 0.929 . S
C1875 C1867 1.433 . S
C1875 N1877 1.384 . S
N1876 C1872 1.427 1_565 S
N1876 C1873 1.384 . S
N1877 C1869 1.427 . S
N1877 C1875 1.384 . S
H1878 C1884 0.930 . S
H1879 C1888 0.930 . S
H1880 C1893 0.929 . S
H1881 C1891 0.929 . S
H1882 C1886 0.929 . S
H1883 C1892 0.929 . S
C1884 H1878 0.930 . S
C1884 C1885 1.367 . S
C1884 C1892 1.378 . S
C1885 C1884 1.367 . S
C1885 C1893 1.433 . S
C1886 H1882 0.929 . S
C1886 C1888 1.378 . S
C1886 C1890 1.350 . S
C1887 C1890 1.463 . S
C1887 C1892 1.350 . S
C1887 N1895 1.427 . S
C1888 H1879 0.930 . S
C1888 C1886 1.378 . S
C1888 C1889 1.367 . S
C1889 C1888 1.367 . S
C1889 C1891 1.433 . S
C1890 C1886 1.350 . S
C1890 C1887 1.463 . S
C1890 N1894 1.427 . S
C1891 H1881 0.929 . S
C1891 C1889 1.433 . S
C1891 N1894 1.384 . S
C1892 H1883 0.929 . S
C1892 C1884 1.378 . S
C1892 C1887 1.350 . S
C1893 H1880 0.929 . S
C1893 C1885 1.433 . S
C1893 N1895 1.384 . S
N1894 C1890 1.427 . S
N1894 C1891 1.384 . S
N1895 C1887 1.427 . S
N1895 C1893 1.384 . S
H1896 C1902 0.930 . S
H1897 C1906 0.930 . S
H1898 C1911 0.929 . S
H1899 C1909 0.929 . S
H1900 C1904 0.929 . S
H1901 C1910 0.929 . S
C1902 H1896 0.930 . S
C1902 C1903 1.367 . S
C1902 C1910 1.378 . S
C1903 C1902 1.367 . S
C1903 C1911 1.433 . S
C1904 H1900 0.929 . S
C1904 C1906 1.378 . S
C1904 C1908 1.350 . S
C1905 C1908 1.463 . S
C1905 C1910 1.350 . S
C1905 N1913 1.427 . S
C1906 H1897 0.930 . S
C1906 C1904 1.378 . S
C1906 C1907 1.367 . S
C1907 C1906 1.367 . S
C1907 C1909 1.433 . S
C1908 C1904 1.350 . S
C1908 C1905 1.463 . S
C1908 N1912 1.427 . S
C1909 H1899 0.929 . S
C1909 C1907 1.433 . S
C1909 N1912 1.384 . S
C1910 H1901 0.929 . S
C1910 C1902 1.378 . S
C1910 C1905 1.350 . S
C1911 H1898 0.929 . S
C1911 C1903 1.433 . S
C1911 N1913 1.384 . S
N1912 C1908 1.427 . S
N1912 C1909 1.384 . S
N1913 C1905 1.427 . S
N1913 C1911 1.384 . S
H1914 C1920 0.930 . S
H1915 C1924 0.930 . S
H1916 C1929 0.929 . S
H1917 C1927 0.929 . S
H1918 C1922 0.929 . S
H1919 C1928 0.929 . S
C1920 H1914 0.930 . S
C1920 C1921 1.367 . S
C1920 C1928 1.378 . S
C1921 C1920 1.367 . S
C1921 C1929 1.433 . S
C1922 H1918 0.929 . S
C1922 C1924 1.378 . S
C1922 C1926 1.350 . S
C1923 C1926 1.463 . S
C1923 C1928 1.350 . S
C1923 N1931 1.427 . S
C1924 H1915 0.930 . S
C1924 C1922 1.378 . S
C1924 C1925 1.367 . S
C1925 C1924 1.367 . S
C1925 C1927 1.433 . S
C1926 C1922 1.350 . S
C1926 C1923 1.463 . S
C1926 N1930 1.427 . S
C1927 H1917 0.929 . S
C1927 C1925 1.433 . S
C1927 N1930 1.384 . S
C1928 H1919 0.929 . S
C1928 C1920 1.378 . S
C1928 C1923 1.350 . S
C1929 H1916 0.929 . S
C1929 C1921 1.433 . S
C1929 N1931 1.384 . S
N1930 C1926 1.427 . S
N1930 C1927 1.384 . S
N1931 C1923 1.427 . S
N1931 C1929 1.384 . S
H1932 C1938 0.930 . S
H1933 C1942 0.930 . S
H1934 C1947 0.929 . S
H1935 C1945 0.929 . S
H1936 C1940 0.929 . S
H1937 C1946 0.929 1_565 S
C1938 H1932 0.930 . S
C1938 C1939 1.367 . S
C1938 C1946 1.378 . S
C1939 C1938 1.367 . S
C1939 C1947 1.433 . S
C1940 H1936 0.929 . S
C1940 C1942 1.378 . S
C1940 C1944 1.350 . S
C1941 C1944 1.463 . S
C1941 C1946 1.350 1_565 S
C1941 N1949 1.427 1_565 S
C1942 H1933 0.930 . S
C1942 C1940 1.378 . S
C1942 C1943 1.367 . S
C1943 C1942 1.367 . S
C1943 C1945 1.433 . S
C1944 C1940 1.350 . S
C1944 C1941 1.463 . S
C1944 N1948 1.427 . S
C1945 H1935 0.929 . S
C1945 C1943 1.433 . S
C1945 N1948 1.384 . S
C1946 H1937 0.929 1_545 S
C1946 C1938 1.378 . S
C1946 C1941 1.350 1_545 S
C1947 H1934 0.929 . S
C1947 C1939 1.433 . S
C1947 N1949 1.384 . S
N1948 C1944 1.427 . S
N1948 C1945 1.384 . S
N1949 C1941 1.427 1_545 S
N1949 C1947 1.384 . S
H1950 C1956 0.930 . S
H1951 C1960 0.930 . S
H1952 C1965 0.929 . S
H1953 C1963 0.929 . S
H1954 C1958 0.932 1_545 S
H1955 C1964 0.929 . S
C1956 H1950 0.930 . S
C1956 C1957 1.367 . S
C1956 C1964 1.378 . S
C1957 C1956 1.367 . S
C1957 C1965 1.433 . S
C1958 H1954 0.932 1_565 S
C1958 C1960 1.372 . S
C1958 C1962 1.353 1_565 S
C1959 C1962 1.463 . S
C1959 C1964 1.350 . S
C1959 N1967 1.427 . S
C1960 H1951 0.930 . S
C1960 C1958 1.372 . S
C1960 C1961 1.367 . S
C1961 C1960 1.367 . S
C1961 C1963 1.433 . S
C1962 C1958 1.353 1_545 S
C1962 C1959 1.463 . S
C1962 N1966 1.427 1_545 S
C1963 H1953 0.929 . S
C1963 C1961 1.433 . S
C1963 N1966 1.384 . S
C1964 H1955 0.929 . S
C1964 C1956 1.378 . S
C1964 C1959 1.350 . S
C1965 H1952 0.929 . S
C1965 C1957 1.433 . S
C1965 N1967 1.384 . S
N1966 C1962 1.427 1_565 S
N1966 C1963 1.384 . S
N1967 C1959 1.427 . S
N1967 C1965 1.384 . S
H1968 C1974 0.930 . S
H1969 C1978 0.930 . S
H1970 C1983 0.929 . S
H1971 C1981 0.929 . S
H1972 C1976 0.929 . S
H1973 C1982 0.929 . S
C1974 H1968 0.930 . S
C1974 C1975 1.367 . S
C1974 C1982 1.378 . S
C1975 C1974 1.367 . S
C1975 C1983 1.433 . S
C1976 H1972 0.929 . S
C1976 C1978 1.378 . S
C1976 C1980 1.350 . S
C1977 C1980 1.463 . S
C1977 C1982 1.350 . S
C1977 N1985 1.427 . S
C1978 H1969 0.930 . S
C1978 C1976 1.378 . S
C1978 C1979 1.367 . S
C1979 C1978 1.367 . S
C1979 C1981 1.433 . S
C1980 C1976 1.350 . S
C1980 C1977 1.463 . S
C1980 N1984 1.427 . S
C1981 H1971 0.929 . S
C1981 C1979 1.433 . S
C1981 N1984 1.384 . S
C1982 H1973 0.929 . S
C1982 C1974 1.378 . S
C1982 C1977 1.350 . S
C1983 H1970 0.929 . S
C1983 C1975 1.433 . S
C1983 N1985 1.384 . S
N1984 C1980 1.427 . S
N1984 C1981 1.384 . S
N1985 C1977 1.427 . S
N1985 C1983 1.384 . S
H1986 C1992 0.930 . S
H1987 C1996 0.930 . S
H1988 C2001 0.929 . S
H1989 C1999 0.929 . S
H1990 C1994 0.929 . S
H1991 C2000 0.929 . S
C1992 H1986 0.930 . S
C1992 C1993 1.367 . S
C1992 C2000 1.378 . S
C1993 C1992 1.367 . S
C1993 C2001 1.433 . S
C1994 H1990 0.929 . S
C1994 C1996 1.378 . S
C1994 C1998 1.350 . S
C1995 C1998 1.463 . S
C1995 C2000 1.350 . S
C1995 N2003 1.427 . S
C1996 H1987 0.930 . S
C1996 C1994 1.378 . S
C1996 C1997 1.367 . S
C1997 C1996 1.367 . S
C1997 C1999 1.433 . S
C1998 C1994 1.350 . S
C1998 C1995 1.463 . S
C1998 N2002 1.427 . S
C1999 H1989 0.929 . S
C1999 C1997 1.433 . S
C1999 N2002 1.384 . S
C2000 H1991 0.929 . S
C2000 C1992 1.378 . S
C2000 C1995 1.350 . S
C2001 H1988 0.929 . S
C2001 C1993 1.433 . S
C2001 N2003 1.384 . S
N2002 C1998 1.427 . S
N2002 C1999 1.384 . S
N2003 C1995 1.427 . S
N2003 C2001 1.384 . S
H2004 C2010 0.930 . S
H2005 C2014 0.930 . S
H2006 C2019 0.929 . S
H2007 C2017 0.929 . S
H2008 C2012 0.929 . S
H2009 C2018 0.929 . S
C2010 H2004 0.930 . S
C2010 C2011 1.367 . S
C2010 C2018 1.378 . S
C2011 C2010 1.367 . S
C2011 C2019 1.433 . S
C2012 H2008 0.929 . S
C2012 C2014 1.378 . S
C2012 C2016 1.350 . S
C2013 C2016 1.463 . S
C2013 C2018 1.350 . S
C2013 N2021 1.427 . S
C2014 H2005 0.930 . S
C2014 C2012 1.378 . S
C2014 C2015 1.367 . S
C2015 C2014 1.367 . S
C2015 C2017 1.433 . S
C2016 C2012 1.350 . S
C2016 C2013 1.463 . S
C2016 N2020 1.427 . S
C2017 H2007 0.929 . S
C2017 C2015 1.433 . S
C2017 N2020 1.384 . S
C2018 H2009 0.929 . S
C2018 C2010 1.378 . S
C2018 C2013 1.350 . S
C2019 H2006 0.929 . S
C2019 C2011 1.433 . S
C2019 N2021 1.384 . S
N2020 C2016 1.427 . S
N2020 C2017 1.384 . S
N2021 C2013 1.427 . S
N2021 C2019 1.384 . S
H2022 C2028 0.930 . S
H2023 C2032 0.930 . S
H2024 C2037 0.929 . S
H2025 C2035 0.929 . S
H2026 C2030 0.929 . S
H2027 C2036 0.929 . S
C2028 H2022 0.930 . S
C2028 C2029 1.367 . S
C2028 C2036 1.378 . S
C2029 C2028 1.367 . S
C2029 C2037 1.433 . S
C2030 H2026 0.929 . S
C2030 C2032 1.378 . S
C2030 C2034 1.350 . S
C2031 C2034 1.463 . S
C2031 C2036 1.350 1_655 S
C2031 N2039 1.427 1_655 S
C2032 H2023 0.930 . S
C2032 C2030 1.378 . S
C2032 C2033 1.367 . S
C2033 C2032 1.367 . S
C2033 C2035 1.433 . S
C2034 C2030 1.350 . S
C2034 C2031 1.463 . S
C2034 N2038 1.427 . S
C2035 H2025 0.929 . S
C2035 C2033 1.433 . S
C2035 N2038 1.384 . S
C2036 H2027 0.929 . S
C2036 C2028 1.378 . S
C2036 C2031 1.350 1_455 S
C2037 H2024 0.929 . S
C2037 C2029 1.433 . S
C2037 N2039 1.384 . S
N2038 C2034 1.427 . S
N2038 C2035 1.384 . S
N2039 C2031 1.427 1_455 S
N2039 C2037 1.384 . S
H2040 C2046 0.930 . S
H2041 C2050 0.930 . S
H2042 C2055 0.929 . S
H2043 C2053 0.929 . S
H2044 C2048 0.929 . S
H2045 C2054 0.929 . S
C2046 H2040 0.930 . S
C2046 C2047 1.367 . S
C2046 C2054 1.378 . S
C2047 C2046 1.367 . S
C2047 C2055 1.433 . S
C2048 H2044 0.929 . S
C2048 C2050 1.378 . S
C2048 C2052 1.350 . S
C2049 C2052 1.463 . S
C2049 C2054 1.350 . S
C2049 N2057 1.427 . S
C2050 H2041 0.930 . S
C2050 C2048 1.378 . S
C2050 C2051 1.367 . S
C2051 C2050 1.367 . S
C2051 C2053 1.433 . S
C2052 C2048 1.350 . S
C2052 C2049 1.463 . S
C2052 N2056 1.427 . S
C2053 H2043 0.929 . S
C2053 C2051 1.433 . S
C2053 N2056 1.384 . S
C2054 H2045 0.929 . S
C2054 C2046 1.378 . S
C2054 C2049 1.350 . S
C2055 H2042 0.929 . S
C2055 C2047 1.433 . S
C2055 N2057 1.384 . S
N2056 C2052 1.427 . S
N2056 C2053 1.384 . S
N2057 C2049 1.427 . S
N2057 C2055 1.384 . S
H2058 C2064 0.930 . S
H2059 C2068 0.930 . S
H2060 C2073 0.929 . S
H2061 C2071 0.929 . S
H2062 C2066 0.929 . S
H2063 C2072 0.929 1_655 S
C2064 H2058 0.930 . S
C2064 C2065 1.367 . S
C2064 C2072 1.378 . S
C2065 C2064 1.367 . S
C2065 C2073 1.433 . S
C2066 H2062 0.929 . S
C2066 C2068 1.378 . S
C2066 C2070 1.350 . S
C2067 C2070 1.463 . S
C2067 C2072 1.350 1_655 S
C2067 N2075 1.427 1_655 S
C2068 H2059 0.930 . S
C2068 C2066 1.378 . S
C2068 C2069 1.367 . S
C2069 C2068 1.367 . S
C2069 C2071 1.433 . S
C2070 C2066 1.350 . S
C2070 C2067 1.463 . S
C2070 N2074 1.427 . S
C2071 H2061 0.929 . S
C2071 C2069 1.433 . S
C2071 N2074 1.384 . S
C2072 H2063 0.929 1_455 S
C2072 C2064 1.378 . S
C2072 C2067 1.350 1_455 S
C2073 H2060 0.929 . S
C2073 C2065 1.433 . S
C2073 N2075 1.384 . S
N2074 C2070 1.427 . S
N2074 C2071 1.384 . S
N2075 C2067 1.427 1_455 S
N2075 C2073 1.384 . S
H2076 C2082 0.930 . S
H2077 C2086 0.930 . S
H2078 C2091 0.929 . S
H2079 C2089 0.929 . S
H2080 C2084 0.929 . S
H2081 C2090 0.929 . S
C2082 H2076 0.930 . S
C2082 C2083 1.367 . S
C2082 C2090 1.378 . S
C2083 C2082 1.367 . S
C2083 C2091 1.433 . S
C2084 H2080 0.929 . S
C2084 C2086 1.378 . S
C2084 C2088 1.350 . S
C2085 C2088 1.463 . S
C2085 C2090 1.350 . S
C2085 N2093 1.427 . S
C2086 H2077 0.930 . S
C2086 C2084 1.378 . S
C2086 C2087 1.367 . S
C2087 C2086 1.367 . S
C2087 C2089 1.433 . S
C2088 C2084 1.350 . S
C2088 C2085 1.463 . S
C2088 N2092 1.427 . S
C2089 H2079 0.929 . S
C2089 C2087 1.433 . S
C2089 N2092 1.384 . S
C2090 H2081 0.929 . S
C2090 C2082 1.378 . S
C2090 C2085 1.350 . S
C2091 H2078 0.929 . S
C2091 C2083 1.433 . S
C2091 N2093 1.384 . S
N2092 C2088 1.427 . S
N2092 C2089 1.384 . S
N2093 C2085 1.427 . S
N2093 C2091 1.384 . S
H2094 C2100 0.930 . S
H2095 C2104 0.930 . S
H2096 C2109 0.929 . S
H2097 C2107 0.929 . S
H2098 C2102 0.929 . S
H2099 C2108 0.929 . S
C2100 H2094 0.930 . S
C2100 C2101 1.367 . S
C2100 C2108 1.378 . S
C2101 C2100 1.367 . S
C2101 C2109 1.433 . S
C2102 H2098 0.929 . S
C2102 C2104 1.378 . S
C2102 C2106 1.350 . S
C2103 C2106 1.463 . S
C2103 C2108 1.350 . S
C2103 N2111 1.427 . S
C2104 H2095 0.930 . S
C2104 C2102 1.378 . S
C2104 C2105 1.367 . S
C2105 C2104 1.367 . S
C2105 C2107 1.433 . S
C2106 C2102 1.350 . S
C2106 C2103 1.463 . S
C2106 N2110 1.427 . S
C2107 H2097 0.929 . S
C2107 C2105 1.433 . S
C2107 N2110 1.384 . S
C2108 H2099 0.929 . S
C2108 C2100 1.378 . S
C2108 C2103 1.350 . S
C2109 H2096 0.929 . S
C2109 C2101 1.433 . S
C2109 N2111 1.384 . S
N2110 C2106 1.427 . S
N2110 C2107 1.384 . S
N2111 C2103 1.427 . S
N2111 C2109 1.384 . S
H2112 C2118 0.930 . S
H2113 C2122 0.930 . S
H2114 C2127 0.929 . S
H2115 C2125 0.929 . S
H2116 C2120 0.929 . S
H2117 C2126 0.929 . S
C2118 H2112 0.930 . S
C2118 C2119 1.367 . S
C2118 C2126 1.378 . S
C2119 C2118 1.367 . S
C2119 C2127 1.433 . S
C2120 H2116 0.929 . S
C2120 C2122 1.378 . S
C2120 C2124 1.350 . S
C2121 C2124 1.463 . S
C2121 C2126 1.350 . S
C2121 N2129 1.427 . S
C2122 H2113 0.930 . S
C2122 C2120 1.378 . S
C2122 C2123 1.367 . S
C2123 C2122 1.367 . S
C2123 C2125 1.433 . S
C2124 C2120 1.350 . S
C2124 C2121 1.463 . S
C2124 N2128 1.427 . S
C2125 H2115 0.929 . S
C2125 C2123 1.433 . S
C2125 N2128 1.384 . S
C2126 H2117 0.929 . S
C2126 C2118 1.378 . S
C2126 C2121 1.350 . S
C2127 H2114 0.929 . S
C2127 C2119 1.433 . S
C2127 N2129 1.384 . S
N2128 C2124 1.427 . S
N2128 C2125 1.384 . S
N2129 C2121 1.427 . S
N2129 C2127 1.384 . S
H2130 C2136 0.930 . S
H2131 C2140 0.930 . S
H2132 C2145 0.929 . S
H2133 C2143 0.929 . S
H2134 C2138 0.929 . S
H2135 C2144 0.929 . S
C2136 H2130 0.930 . S
C2136 C2137 1.367 . S
C2136 C2144 1.378 . S
C2137 C2136 1.367 . S
C2137 C2145 1.433 . S
C2138 H2134 0.929 . S
C2138 C2140 1.378 1_556 S
C2138 C2142 1.350 . S
C2139 C2142 1.463 . S
C2139 C2144 1.350 . S
C2139 N2147 1.427 . S
C2140 H2131 0.930 . S
C2140 C2138 1.378 1_554 S
C2140 C2141 1.367 . S
C2141 C2140 1.367 . S
C2141 C2143 1.433 . S
C2142 C2138 1.350 . S
C2142 C2139 1.463 . S
C2142 N2146 1.427 1_556 S
C2143 H2133 0.929 . S
C2143 C2141 1.433 . S
C2143 N2146 1.384 . S
C2144 H2135 0.929 . S
C2144 C2136 1.378 . S
C2144 C2139 1.350 . S
C2145 H2132 0.929 . S
C2145 C2137 1.433 . S
C2145 N2147 1.384 . S
N2146 C2142 1.427 1_554 S
N2146 C2143 1.384 . S
N2147 C2139 1.427 . S
N2147 C2145 1.384 . S
H2148 C2154 0.930 . S
H2149 C2158 0.930 . S
H2150 C2163 0.929 . S
H2151 C2161 0.929 . S
H2152 C2156 0.929 . S
H2153 C2162 0.929 . S
C2154 H2148 0.930 . S
C2154 C2155 1.367 . S
C2154 C2162 1.378 . S
C2155 C2154 1.367 . S
C2155 C2163 1.433 . S
C2156 H2152 0.929 . S
C2156 C2158 1.378 . S
C2156 C2160 1.350 . S
C2157 C2160 1.463 . S
C2157 C2162 1.350 . S
C2157 N2165 1.427 . S
C2158 H2149 0.930 . S
C2158 C2156 1.378 . S
C2158 C2159 1.367 . S
C2159 C2158 1.367 . S
C2159 C2161 1.433 . S
C2160 C2156 1.350 . S
C2160 C2157 1.463 . S
C2160 N2164 1.427 . S
C2161 H2151 0.929 . S
C2161 C2159 1.433 . S
C2161 N2164 1.384 . S
C2162 H2153 0.929 . S
C2162 C2154 1.378 . S
C2162 C2157 1.350 . S
C2163 H2150 0.929 . S
C2163 C2155 1.433 . S
C2163 N2165 1.384 . S
N2164 C2160 1.427 . S
N2164 C2161 1.384 . S
N2165 C2157 1.427 . S
N2165 C2163 1.384 . S
H2166 C2172 0.930 . S
H2167 C2176 0.930 . S
H2168 C2181 0.929 . S
H2169 C2179 0.929 . S
H2170 C2174 0.929 . S
H2171 C2180 0.929 . S
C2172 H2166 0.930 . S
C2172 C2173 1.367 . S
C2172 C2180 1.378 . S
C2173 C2172 1.367 . S
C2173 C2181 1.433 . S
C2174 H2170 0.929 . S
C2174 C2176 1.378 . S
C2174 C2178 1.350 . S
C2175 C2178 1.463 . S
C2175 C2180 1.350 . S
C2175 N2183 1.427 . S
C2176 H2167 0.930 . S
C2176 C2174 1.378 . S
C2176 C2177 1.367 . S
C2177 C2176 1.367 . S
C2177 C2179 1.433 . S
C2178 C2174 1.350 . S
C2178 C2175 1.463 . S
C2178 N2182 1.427 . S
C2179 H2169 0.929 . S
C2179 C2177 1.433 . S
C2179 N2182 1.384 . S
C2180 H2171 0.929 . S
C2180 C2172 1.378 . S
C2180 C2175 1.350 . S
C2181 H2168 0.929 . S
C2181 C2173 1.433 . S
C2181 N2183 1.384 . S
N2182 C2178 1.427 . S
N2182 C2179 1.384 . S
N2183 C2175 1.427 . S
N2183 C2181 1.384 . S
H2184 C2190 0.930 . S
H2185 C2194 0.930 . S
H2186 C2199 0.929 . S
H2187 C2197 0.929 . S
H2188 C2192 0.929 . S
H2189 C2198 0.929 . S
C2190 H2184 0.930 . S
C2190 C2191 1.367 . S
C2190 C2198 1.378 . S
C2191 C2190 1.367 . S
C2191 C2199 1.433 . S
C2192 H2188 0.929 . S
C2192 C2194 1.378 . S
C2192 C2196 1.350 . S
C2193 C2196 1.463 . S
C2193 C2198 1.350 . S
C2193 N2201 1.427 . S
C2194 H2185 0.930 . S
C2194 C2192 1.378 . S
C2194 C2195 1.367 . S
C2195 C2194 1.367 . S
C2195 C2197 1.433 . S
C2196 C2192 1.350 . S
C2196 C2193 1.463 . S
C2196 N2200 1.427 . S
C2197 H2187 0.929 . S
C2197 C2195 1.433 . S
C2197 N2200 1.384 . S
C2198 H2189 0.929 . S
C2198 C2190 1.378 . S
C2198 C2193 1.350 . S
C2199 H2186 0.929 . S
C2199 C2191 1.433 . S
C2199 N2201 1.384 . S
N2200 C2196 1.427 . S
N2200 C2197 1.384 . S
N2201 C2193 1.427 . S
N2201 C2199 1.384 . S
H2202 C2208 0.930 . S
H2203 C2212 0.930 . S
H2204 C2217 0.929 . S
H2205 C2215 0.929 . S
H2206 C2210 0.929 1_554 S
H2207 C2216 0.929 . S
C2208 H2202 0.930 . S
C2208 C2209 1.367 . S
C2208 C2216 1.378 . S
C2209 C2208 1.367 . S
C2209 C2217 1.433 . S
C2210 H2206 0.929 1_556 S
C2210 C2212 1.378 . S
C2210 C2214 1.350 1_556 S
C2211 C2214 1.463 . S
C2211 C2216 1.350 . S
C2211 N2219 1.427 . S
C2212 H2203 0.930 . S
C2212 C2210 1.378 . S
C2212 C2213 1.367 . S
C2213 C2212 1.367 . S
C2213 C2215 1.433 . S
C2214 C2210 1.350 1_554 S
C2214 C2211 1.463 . S
C2214 N2218 1.427 . S
C2215 H2205 0.929 . S
C2215 C2213 1.433 . S
C2215 N2218 1.384 1_556 S
C2216 H2207 0.929 . S
C2216 C2208 1.378 . S
C2216 C2211 1.350 . S
C2217 H2204 0.929 . S
C2217 C2209 1.433 . S
C2217 N2219 1.384 . S
N2218 C2214 1.427 . S
N2218 C2215 1.384 1_554 S
N2219 C2211 1.427 . S
N2219 C2217 1.384 . S
H2220 C2226 0.930 . S
H2221 C2230 0.930 . S
H2222 C2235 0.929 . S
H2223 C2233 0.929 . S
H2224 C2228 0.929 . S
H2225 C2234 0.929 . S
C2226 H2220 0.930 . S
C2226 C2227 1.367 . S
C2226 C2234 1.378 . S
C2227 C2226 1.367 . S
C2227 C2235 1.433 . S
C2228 H2224 0.929 . S
C2228 C2230 1.378 . S
C2228 C2232 1.350 . S
C2229 C2232 1.463 . S
C2229 C2234 1.350 . S
C2229 N2237 1.427 . S
C2230 H2221 0.930 . S
C2230 C2228 1.378 . S
C2230 C2231 1.367 . S
C2231 C2230 1.367 . S
C2231 C2233 1.433 . S
C2232 C2228 1.350 . S
C2232 C2229 1.463 . S
C2232 N2236 1.427 . S
C2233 H2223 0.929 . S
C2233 C2231 1.433 . S
C2233 N2236 1.384 . S
C2234 H2225 0.929 . S
C2234 C2226 1.378 . S
C2234 C2229 1.350 . S
C2235 H2222 0.929 . S
C2235 C2227 1.433 . S
C2235 N2237 1.384 . S
N2236 C2232 1.427 . S
N2236 C2233 1.384 . S
N2237 C2229 1.427 . S
N2237 C2235 1.384 . S
H2238 C2244 0.930 . S
H2239 C2248 0.930 . S
H2240 C2253 0.929 . S
H2241 C2251 0.929 . S
H2242 C2246 0.929 . S
H2243 C2252 0.929 . S
C2244 H2238 0.930 . S
C2244 C2245 1.367 . S
C2244 C2252 1.378 . S
C2245 C2244 1.367 . S
C2245 C2253 1.433 . S
C2246 H2242 0.929 . S
C2246 C2248 1.378 . S
C2246 C2250 1.350 . S
C2247 C2250 1.463 . S
C2247 C2252 1.350 . S
C2247 N2255 1.427 . S
C2248 H2239 0.930 . S
C2248 C2246 1.378 . S
C2248 C2249 1.367 . S
C2249 C2248 1.367 . S
C2249 C2251 1.433 . S
C2250 C2246 1.350 . S
C2250 C2247 1.463 . S
C2250 N2254 1.427 . S
C2251 H2241 0.929 . S
C2251 C2249 1.433 . S
C2251 N2254 1.384 . S
C2252 H2243 0.929 . S
C2252 C2244 1.378 . S
C2252 C2247 1.350 . S
C2253 H2240 0.929 . S
C2253 C2245 1.433 . S
C2253 N2255 1.384 . S
N2254 C2250 1.427 . S
N2254 C2251 1.384 . S
N2255 C2247 1.427 . S
N2255 C2253 1.384 . S
H2256 C2262 0.930 . S
H2257 C2266 0.930 . S
H2258 C2271 0.929 . S
H2259 C2269 0.929 . S
H2260 C2264 0.929 . S
H2261 C2270 0.929 . S
C2262 H2256 0.930 . S
C2262 C2263 1.367 . S
C2262 C2270 1.378 . S
C2263 C2262 1.367 . S
C2263 C2271 1.433 . S
C2264 H2260 0.929 . S
C2264 C2266 1.378 . S
C2264 C2268 1.350 . S
C2265 C2268 1.463 . S
C2265 C2270 1.350 . S
C2265 N2273 1.427 . S
C2266 H2257 0.930 . S
C2266 C2264 1.378 . S
C2266 C2267 1.367 . S
C2267 C2266 1.367 . S
C2267 C2269 1.433 . S
C2268 C2264 1.350 . S
C2268 C2265 1.463 . S
C2268 N2272 1.427 . S
C2269 H2259 0.929 . S
C2269 C2267 1.433 . S
C2269 N2272 1.384 . S
C2270 H2261 0.929 . S
C2270 C2262 1.378 . S
C2270 C2265 1.350 . S
C2271 H2258 0.929 . S
C2271 C2263 1.433 . S
C2271 N2273 1.384 . S
N2272 C2268 1.427 . S
N2272 C2269 1.384 . S
N2273 C2265 1.427 . S
N2273 C2271 1.384 . S
H2274 C2280 0.930 . S
H2275 C2284 0.930 . S
H2276 C2289 0.929 . S
H2277 C2287 0.929 . S
H2278 C2282 0.929 . S
H2279 C2288 0.929 . S
C2280 H2274 0.930 . S
C2280 C2281 1.367 . S
C2280 C2288 1.378 . S
C2281 C2280 1.367 . S
C2281 C2289 1.433 . S
C2282 H2278 0.929 . S
C2282 C2284 1.378 . S
C2282 C2286 1.350 . S
C2283 C2286 1.463 . S
C2283 C2288 1.350 . S
C2283 N2291 1.427 . S
C2284 H2275 0.930 . S
C2284 C2282 1.378 . S
C2284 C2285 1.367 . S
C2285 C2284 1.367 . S
C2285 C2287 1.433 . S
C2286 C2282 1.350 . S
C2286 C2283 1.463 . S
C2286 N2290 1.427 . S
C2287 H2277 0.929 . S
C2287 C2285 1.433 . S
C2287 N2290 1.384 . S
C2288 H2279 0.929 . S
C2288 C2280 1.378 . S
C2288 C2283 1.350 . S
C2289 H2276 0.929 . S
C2289 C2281 1.433 . S
C2289 N2291 1.384 . S
N2290 C2286 1.427 . S
N2290 C2287 1.384 . S
N2291 C2283 1.427 . S
N2291 C2289 1.384 . S
H2292 C2298 0.930 . S
H2293 C2302 0.930 . S
H2294 C2307 0.929 . S
H2295 C2305 0.929 . S
H2296 C2300 0.927 . S
H2297 C2306 0.929 . S
C2298 H2292 0.930 . S
C2298 C2299 1.367 . S
C2298 C2306 1.378 . S
C2299 C2298 1.367 . S
C2299 C2307 1.433 . S
C2300 H2296 0.927 . S
C2300 C2302 1.380 1_565 S
C2300 C2304 1.349 . S
C2301 C2304 1.463 . S
C2301 C2306 1.350 . S
C2301 N2309 1.427 . S
C2302 H2293 0.930 . S
C2302 C2300 1.380 1_545 S
C2302 C2303 1.367 . S
C2303 C2302 1.367 . S
C2303 C2305 1.433 . S
C2304 C2300 1.349 . S
C2304 C2301 1.463 . S
C2304 N2308 1.427 1_565 S
C2305 H2295 0.929 . S
C2305 C2303 1.433 . S
C2305 N2308 1.384 . S
C2306 H2297 0.929 . S
C2306 C2298 1.378 . S
C2306 C2301 1.350 . S
C2307 H2294 0.929 . S
C2307 C2299 1.433 . S
C2307 N2309 1.384 . S
N2308 C2304 1.427 1_545 S
N2308 C2305 1.384 . S
N2309 C2301 1.427 . S
N2309 C2307 1.384 . S
H2310 C2316 0.930 . S
H2311 C2320 0.930 . S
H2312 C2325 0.929 . S
H2313 C2323 0.929 . S
H2314 C2318 0.929 . S
H2315 C2324 0.929 . S
C2316 H2310 0.930 . S
C2316 C2317 1.367 . S
C2316 C2324 1.378 . S
C2317 C2316 1.367 . S
C2317 C2325 1.433 . S
C2318 H2314 0.929 . S
C2318 C2320 1.378 . S
C2318 C2322 1.350 . S
C2319 C2322 1.463 . S
C2319 C2324 1.350 . S
C2319 N2327 1.427 . S
C2320 H2311 0.930 . S
C2320 C2318 1.378 . S
C2320 C2321 1.367 . S
C2321 C2320 1.367 . S
C2321 C2323 1.433 . S
C2322 C2318 1.350 . S
C2322 C2319 1.463 . S
C2322 N2326 1.427 . S
C2323 H2313 0.929 . S
C2323 C2321 1.433 . S
C2323 N2326 1.384 . S
C2324 H2315 0.929 . S
C2324 C2316 1.378 . S
C2324 C2319 1.350 . S
C2325 H2312 0.929 . S
C2325 C2317 1.433 . S
C2325 N2327 1.384 . S
N2326 C2322 1.427 . S
N2326 C2323 1.384 . S
N2327 C2319 1.427 . S
N2327 C2325 1.384 . S
H2328 C2334 0.930 . S
H2329 C2338 0.930 . S
H2330 C2343 0.929 . S
H2331 C2341 0.929 . S
H2332 C2336 0.929 . S
H2333 C2342 0.929 . S
C2334 H2328 0.930 . S
C2334 C2335 1.367 . S
C2334 C2342 1.378 . S
C2335 C2334 1.367 . S
C2335 C2343 1.433 . S
C2336 H2332 0.929 . S
C2336 C2338 1.378 . S
C2336 C2340 1.350 . S
C2337 C2340 1.463 . S
C2337 C2342 1.350 . S
C2337 N2345 1.427 . S
C2338 H2329 0.930 . S
C2338 C2336 1.378 . S
C2338 C2339 1.367 . S
C2339 C2338 1.367 . S
C2339 C2341 1.433 . S
C2340 C2336 1.350 . S
C2340 C2337 1.463 . S
C2340 N2344 1.427 . S
C2341 H2331 0.929 . S
C2341 C2339 1.433 . S
C2341 N2344 1.384 . S
C2342 H2333 0.929 . S
C2342 C2334 1.378 . S
C2342 C2337 1.350 . S
C2343 H2330 0.929 . S
C2343 C2335 1.433 . S
C2343 N2345 1.384 . S
N2344 C2340 1.427 . S
N2344 C2341 1.384 . S
N2345 C2337 1.427 . S
N2345 C2343 1.384 . S
H2346 C2352 0.930 . S
H2347 C2356 0.930 . S
H2348 C2361 0.929 . S
H2349 C2359 0.929 . S
H2350 C2354 0.929 . S
H2351 C2360 0.929 . S
C2352 H2346 0.930 . S
C2352 C2353 1.367 . S
C2352 C2360 1.378 . S
C2353 C2352 1.367 . S
C2353 C2361 1.433 . S
C2354 H2350 0.929 . S
C2354 C2356 1.378 . S
C2354 C2358 1.350 . S
C2355 C2358 1.463 . S
C2355 C2360 1.350 . S
C2355 N2363 1.427 . S
C2356 H2347 0.930 . S
C2356 C2354 1.378 . S
C2356 C2357 1.367 . S
C2357 C2356 1.367 . S
C2357 C2359 1.433 . S
C2358 C2354 1.350 . S
C2358 C2355 1.463 . S
C2358 N2362 1.427 . S
C2359 H2349 0.929 . S
C2359 C2357 1.433 . S
C2359 N2362 1.384 . S
C2360 H2351 0.929 . S
C2360 C2352 1.378 . S
C2360 C2355 1.350 . S
C2361 H2348 0.929 . S
C2361 C2353 1.433 . S
C2361 N2363 1.384 . S
N2362 C2358 1.427 . S
N2362 C2359 1.384 . S
N2363 C2355 1.427 . S
N2363 C2361 1.384 . S
H2364 C2370 0.930 . S
H2365 C2374 0.930 . S
H2366 C2379 0.929 . S
H2367 C2377 0.929 . S
H2368 C2372 0.929 . S
H2369 C2378 0.929 . S
C2370 H2364 0.930 . S
C2370 C2371 1.367 . S
C2370 C2378 1.377 1_565 S
C2371 C2370 1.367 . S
C2371 C2379 1.433 . S
C2372 H2368 0.929 . S
C2372 C2374 1.378 . S
C2372 C2376 1.350 . S
C2373 C2376 1.463 . S
C2373 C2378 1.350 . S
C2373 N2381 1.427 1_545 S
C2374 H2365 0.930 . S
C2374 C2372 1.378 . S
C2374 C2375 1.367 . S
C2375 C2374 1.367 . S
C2375 C2377 1.433 . S
C2376 C2372 1.350 . S
C2376 C2373 1.463 . S
C2376 N2380 1.427 . S
C2377 H2367 0.929 . S
C2377 C2375 1.433 . S
C2377 N2380 1.384 . S
C2378 H2369 0.929 . S
C2378 C2370 1.377 1_545 S
C2378 C2373 1.350 . S
C2379 H2366 0.929 . S
C2379 C2371 1.433 . S
C2379 N2381 1.384 . S
N2380 C2376 1.427 . S
N2380 C2377 1.384 . S
N2381 C2373 1.427 1_565 S
N2381 C2379 1.384 . S
H2382 C2388 0.930 . S
H2383 C2392 0.930 . S
H2384 C2397 0.929 . S
H2385 C2395 0.929 . S
H2386 C2390 0.920 1_565 S
H2387 C2396 0.929 . S
C2388 H2382 0.930 . S
C2388 C2389 1.367 . S
C2388 C2396 1.378 . S
C2389 C2388 1.367 . S
C2389 C2397 1.433 . S
C2390 H2386 0.920 1_545 S
C2390 C2392 1.378 . S
C2390 C2394 1.350 1_545 S
C2391 C2394 1.463 . S
C2391 C2396 1.350 . S
C2391 N2399 1.427 . S
C2392 H2383 0.930 . S
C2392 C2390 1.378 . S
C2392 C2393 1.367 . S
C2393 C2392 1.367 . S
C2393 C2395 1.433 . S
C2394 C2390 1.350 1_565 S
C2394 C2391 1.463 . S
C2394 N2398 1.427 1_565 S
C2395 H2385 0.929 . S
C2395 C2393 1.433 . S
C2395 N2398 1.384 . S
C2396 H2387 0.929 . S
C2396 C2388 1.378 . S
C2396 C2391 1.350 . S
C2397 H2384 0.929 . S
C2397 C2389 1.433 . S
C2397 N2399 1.384 . S
N2398 C2394 1.427 1_545 S
N2398 C2395 1.384 . S
N2399 C2391 1.427 . S
N2399 C2397 1.384 . S
C679 C591 1.371 . S
C683 C3 1.395 . S
C697 C23 1.397 . S
C701 C217 1.399 . S
C715 C31 1.385 . S
C719 C563 1.361 . S
C733 C51 1.389 . S
C737 C245 1.385 . S
C751 C623 1.388 . S
C755 C63 1.365 . S
C769 C78 1.390 . S
C773 C297 1.374 . S
C787 C91 1.366 . S
C791 C651 1.383 . S
C805 C106 1.365 . S
C809 C269 1.352 . S
C823 C50 1.368 . S
C827 C661 1.358 . S
C841 C7 1.351 . S
C845 C357 1.379 . S
C859 C371 1.377 . S
C863 C22 1.378 . S
C877 C35 1.355 . S
C881 C339 1.363 . S
C895 C79 1.410 . S
C899 C343 1.411 . S
C913 C87 1.391 . S
C917 C665 1.384 . S
C931 C107 1.409 . S
C935 C353 1.392 . S
C949 C59 1.399 . S
C953 C367 1.374 . S
C967 C549 1.365 . S
C971 C120 1.380 . S
C985 C134 1.362 . S
C989 C273 1.365 . S
C1003 C121 1.382 . S
C1007 C619 1.367 . S
C1021 C301 1.405 . S
C1025 C149 1.408 . S
C1039 C311 1.357 . S
C1043 C162 1.373 . S
C1057 C577 1.393 . S
C1061 C177 1.409 . S
C1075 C595 1.400 . S
C1079 C191 1.404 . S
C1093 C567 1.413 . S
C1097 C205 1.415 . S
C1111 C465 1.336 . S
C1115 C218 1.344 . S
C1129 C233 1.401 . S
C1133 C9 1.370 . S
C1147 C246 1.352 . S
C1151 C437 1.343 . S
C1165 C37 1.373 . S
C1169 C261 1.415 . S
C1183 C275 1.355 . S
C1187 C497 1.356 . S
C1201 C92 1.374 . S
C1205 C288 1.369 . S
C1219 C303 1.351 . S
C1223 C525 1.352 . S
C1237 C64 1.400 . S
C1241 C316 1.396 . S
C1255 C535 1.350 . S
C1259 C260 1.363 . S
C1273 C219 1.369 . S
C1277 C143 1.360 . S
C1291 C161 1.355 . S
C1295 C232 1.356 . S
C1309 C133 1.374 . S
C1313 C247 1.373 . S
C1327 C129 1.380 . S
C1331 C289 1.395 . S
C1345 C302 1.332 . S
C1349 C539 1.332 . S
C1363 C147 1.401 . S
C1367 C317 1.400 . S
C1381 C274 1.321 . S
C1385 C157 1.308 . S
C1399 C330 1.378 . S
C1403 C428 1.382 . S
C1417 C345 1.430 . S
C1421 C65 1.394 . S
C1435 C331 1.383 . S
C1439 C493 1.370 . S
C1453 C358 1.406 . S
C1457 C93 1.366 . S
C1471 C372 1.363 . S
C1475 C101 1.357 . S
C1489 C456 1.396 . S
C1493 C387 1.397 . S
C1507 C401 1.376 . S
C1511 C469 1.373 . S
C1525 C415 1.391 . S
C1529 C441 1.391 . S
C1543 C423 1.398 . S
C1547 C255 1.373 . S
C1561 C443 1.389 . S
C1565 C553 1.390 . S
C1579 C227 1.363 . S
C1583 C451 1.383 . S
C1597 C471 1.393 . S
C1601 C581 1.391 . S
C1615 C483 1.358 . S
C1619 C287 1.387 . S
C1633 C633 1.351 . S
C1637 C498 1.360 . S
C1651 C511 1.348 . S
C1655 C315 1.378 . S
C1669 C605 1.359 . S
C1673 C526 1.366 . S
C1687 C325 1.360 . S
C1691 C470 1.374 . S
C1705 C413 1.378 . S
C1709 C427 1.355 . S
C1723 C442 1.378 . S
C1727 C385 1.376 . S
C1741 C399 1.370 . S
C1745 C455 1.347 . S
C1759 C499 1.408 . S
C1763 C395 1.383 . S
C1777 C329 1.386 . S
C1781 C507 1.394 . S
C1795 C527 1.406 . S
C1799 C409 1.385 . S
C1813 C479 1.394 . S
C1817 C381 1.379 . S
C1831 C540 1.375 . S
C1835 C213 1.368 . S
C1849 C190 1.351 . S
C1853 C609 1.355 . S
C1867 C283 1.366 . S
C1871 C541 1.389 . S
C1885 C637 1.373 . S
C1889 C204 1.369 . S
C1903 C647 1.343 . S
C1907 C176 1.360 . S
C1921 C163 1.406 . S
C1925 C241 1.400 . S
C1939 C135 1.414 . S
C1943 C259 1.414 . S
C1957 C231 1.389 . S
C1961 C148 1.384 . S
C1975 C554 1.338 . S
C1979 C45 1.331 . S
C1993 C429 1.376 . S
C1997 C569 1.407 . S
C2011 C582 1.355 . S
C2015 C17 1.344 . S
C2029 C597 1.403 . S
C2033 C457 1.375 . S
C2047 C77 1.345 . S
C2051 C611 1.350 . S
C2065 C624 1.376 . S
C2069 C512 1.379 . S
C2083 C639 1.354 . S
C2087 C105 1.349 . S
C2101 C484 1.381 . S
C2105 C652 1.376 . S
C2119 C596 1.362 . S
C2123 C115 1.357 . S
C2137 C203 1.369 . S
C2141 C555 1.374 . S
C2155 C175 1.363 . S
C2159 C568 1.362 . S
C2173 C583 1.370 . S
C2177 C189 1.364 . S
C2191 C625 1.394 . S
C2195 C185 1.372 . S
C2209 C119 1.322 . S
C2213 C638 1.325 . S
C2227 C199 1.380 . S
C2231 C653 1.396 . S
C2245 C610 1.327 . S
C2249 C171 1.316 . S
C2263 C8 1.379 . S
C2267 C666 1.378 . S
C2281 C400 1.393 . S
C2285 C485 1.364 . S
C2299 C73 1.384 . S
C2303 C667 1.398 . S
C2317 C513 1.372 . S
C2321 C414 1.403 . S
C2335 C521 1.345 . S
C2339 C386 1.353 . S
C2353 C373 1.390 . S
C2357 C36 1.390 . S
C2371 C344 1.347 . S
C2375 C49 1.350 . S
C2389 C21 1.396 . S
C2393 C359 1.401 . S
