# Generated by pormake.
# Topology vcn, (7)-cn, num edge types: 1
# Building blocks:
#     Node 0, Type 0, BuildingBlock: HICVOG_clean_sbu_0, # of connection points: 7
#     Node 1, Type 0, BuildingBlock: HICVOG_clean_sbu_0, # of connection points: 7
#     Node 2, Type 0, BuildingBlock: HICVOG_clean_sbu_0, # of connection points: 7
#     Node 3, Type 0, BuildingBlock: HICVOG_clean_sbu_0, # of connection points: 7
#     Node 4, Type 0, BuildingBlock: HICVOG_clean_sbu_0, # of connection points: 7
#     Node 5, Type 0, BuildingBlock: HICVOG_clean_sbu_0, # of connection points: 7
#     Node 6, Type 0, BuildingBlock: HICVOG_clean_sbu_0, # of connection points: 7
#     Node 7, Type 0, BuildingBlock: HICVOG_clean_sbu_0, # of connection points: 7
#     Edge 8, Type (0, 0), BuildingBlock: AJUNOK_clean_linker_0, # of connection points: 2
#     Edge 9, Type (0, 0), BuildingBlock: AJUNOK_clean_linker_0, # of connection points: 2
#     Edge 10, Type (0, 0), BuildingBlock: AJUNOK_clean_linker_0, # of connection points: 2
#     Edge 11, Type (0, 0), BuildingBlock: AJUNOK_clean_linker_0, # of connection points: 2
#     Edge 12, Type (0, 0), BuildingBlock: AJUNOK_clean_linker_0, # of connection points: 2
#     Edge 13, Type (0, 0), BuildingBlock: AJUNOK_clean_linker_0, # of connection points: 2
#     Edge 14, Type (0, 0), BuildingBlock: AJUNOK_clean_linker_0, # of connection points: 2
#     Edge 15, Type (0, 0), BuildingBlock: AJUNOK_clean_linker_0, # of connection points: 2
#     Edge 16, Type (0, 0), BuildingBlock: AJUNOK_clean_linker_0, # of connection points: 2
#     Edge 17, Type (0, 0), BuildingBlock: AJUNOK_clean_linker_0, # of connection points: 2
#     Edge 18, Type (0, 0), BuildingBlock: AJUNOK_clean_linker_0, # of connection points: 2
#     Edge 19, Type (0, 0), BuildingBlock: AJUNOK_clean_linker_0, # of connection points: 2
#     Edge 20, Type (0, 0), BuildingBlock: AJUNOK_clean_linker_0, # of connection points: 2
#     Edge 21, Type (0, 0), BuildingBlock: AJUNOK_clean_linker_0, # of connection points: 2
#     Edge 22, Type (0, 0), BuildingBlock: AJUNOK_clean_linker_0, # of connection points: 2
#     Edge 23, Type (0, 0), BuildingBlock: AJUNOK_clean_linker_0, # of connection points: 2
#     Edge 24, Type (0, 0), BuildingBlock: AJUNOK_clean_linker_0, # of connection points: 2
#     Edge 25, Type (0, 0), BuildingBlock: AJUNOK_clean_linker_0, # of connection points: 2
#     Edge 26, Type (0, 0), BuildingBlock: AJUNOK_clean_linker_0, # of connection points: 2
#     Edge 27, Type (0, 0), BuildingBlock: AJUNOK_clean_linker_0, # of connection points: 2
#     Edge 28, Type (0, 0), BuildingBlock: AJUNOK_clean_linker_0, # of connection points: 2
#     Edge 29, Type (0, 0), BuildingBlock: AJUNOK_clean_linker_0, # of connection points: 2
#     Edge 30, Type (0, 0), BuildingBlock: AJUNOK_clean_linker_0, # of connection points: 2
#     Edge 31, Type (0, 0), BuildingBlock: AJUNOK_clean_linker_0, # of connection points: 2
#     Edge 32, Type (0, 0), BuildingBlock: AJUNOK_clean_linker_0, # of connection points: 2
#     Edge 33, Type (0, 0), BuildingBlock: AJUNOK_clean_linker_0, # of connection points: 2
#     Edge 34, Type (0, 0), BuildingBlock: AJUNOK_clean_linker_0, # of connection points: 2
#     Edge 35, Type (0, 0), BuildingBlock: AJUNOK_clean_linker_0, # of connection points: 2
# Relax obj value: 0.244
# Max RMSD: 0.225
# Mean RMSD: 0.225
data_MOF--net-vcn--node1-HICVOG_clean_sbu_0--edge1-AJUNOK_clean_linker_0
_symmetry_space_group_name_H-M    P1
_symmetry_Int_Tables_number       1
_symmetry_cell_setting            triclinic
loop_
_symmetry_equiv_pos_as_xyz
'x, y, z'
_cell_length_a     32.553302
_cell_length_b     48.593868
_cell_length_c     10.550432
_cell_angle_alpha  90.035371
_cell_angle_beta   90.103577
_cell_angle_gamma 89.964103
loop_
_atom_site_label
_atom_site_type_symbol
_atom_site_fract_x
_atom_site_fract_y
_atom_site_fract_z
_atom_type_partial_charge
Zn0 Zn 0.13394 0.3912 0.10567 0.0
C1 C 0.07223 0.32727 0.96304 0.0
N2 N 0.07885 0.33937 0.85092 0.0
C3 C 0.09314 0.36428 0.88359 0.0
N4 N 0.09625 0.36723 1.01109 0.0
N5 N 0.08177 0.3441 0.06054 0.0
C6 C 0.08488 0.29699 0.33661 0.0
O7 O 0.11681 0.31339 0.32738 0.0
O8 O 0.13107 0.43064 0.04402 0.0
Zn9 Zn 0.04844 0.34312 0.21345 0.0
N10 N 0.18973 0.37712 0.07802 0.0
C11 C 0.23265 0.34513 0.96955 0.0
C12 C 0.19391 0.35555 0.99672 0.0
C13 C 0.22324 0.38791 0.13818 0.0
N14 N 0.26591 0.35595 0.02836 0.0
C15 C 0.2626 0.37697 0.11294 0.0
O16 O 0.06948 0.3681 0.3515 0.0
C17 C 0.09792 0.38503 0.37929 0.0
O18 O 0.12431 0.39301 0.298 0.0
H19 H 0.16746 0.34629 0.95289 0.0
H20 H 0.21924 0.40461 0.20495 0.0
C21 C 0.95579 0.3443 0.20898 0.0
C22 C 0.9182 0.35468 0.15982 0.0
C23 C 0.95596 0.385 0.02726 0.0
C24 C 0.9926 0.37505 0.07686 0.0
N25 N 0.99227 0.35463 0.16491 0.0
N26 N 0.91993 0.37472 0.0699 0.0
H27 H 0.95603 0.32831 0.28028 0.0
C28 C 0.10147 0.44615 0.07726 0.0
O29 O 0.07103 0.43545 0.14234 0.0
O30 O 0.05058 0.30478 0.29023 0.0
H31 H 0.02128 0.38368 0.04515 0.0
H32 H 0.23623 0.32819 0.90385 0.0
H33 H 0.95608 0.40107 0.95634 0.0
Zn34 Zn 0.54299 0.61986 0.61238 0.0
C35 C 0.59963 0.68449 0.46787 0.0
N36 N 0.59111 0.67283 0.35583 0.0
C37 C 0.57961 0.64727 0.38808 0.0
N38 N 0.58006 0.64351 0.51542 0.0
N39 N 0.59381 0.66686 0.56481 0.0
C40 C 0.59095 0.71505 0.82765 0.0
O41 O 0.55861 0.69947 0.8076 0.0
O42 O 0.54417 0.58054 0.54959 0.0
Zn43 Zn 0.62879 0.66835 0.71423 0.0
N44 N 0.48734 0.63486 0.5928 0.0
C45 C 0.44471 0.66944 0.50101 0.0
C46 C 0.48336 0.65828 0.52317 0.0
C47 C 0.45378 0.62299 0.64773 0.0
N48 N 0.41138 0.65747 0.55396 0.0
C49 C 0.41455 0.63464 0.62786 0.0
O50 O 0.60979 0.64316 0.8547 0.0
C51 C 0.58162 0.62608 0.88325 0.0
O52 O 0.55507 0.61795 0.80251 0.0
H53 H 0.50982 0.66826 0.48336 0.0
H54 H 0.4576 0.60488 0.70626 0.0
C55 C 0.72124 0.66823 0.70724 0.0
C56 C 0.75903 0.65927 0.65412 0.0
C57 C 0.72186 0.63093 0.51053 0.0
C58 C 0.68506 0.63944 0.56406 0.0
N59 N 0.68497 0.65818 0.65986 0.0
N60 N 0.75767 0.64088 0.55684 0.0
H61 H 0.72067 0.68295 0.78422 0.0
C62 C 0.57424 0.56506 0.57914 0.0
O63 O 0.60554 0.57582 0.64039 0.0
O64 O 0.62605 0.70661 0.79092 0.0
H65 H 0.65663 0.63101 0.52897 0.0
H66 H 0.44125 0.68775 0.44369 0.0
H67 H 0.72203 0.61621 0.43357 0.0
Zn68 Zn 0.05412 0.66817 0.82814 0.0
C69 C 0.09947 0.64579 0.15854 0.0
N70 N 0.08583 0.67078 0.1924 0.0
C71 C 0.07866 0.68296 0.08079 0.0
N72 N 0.08713 0.66617 0.98236 0.0
N73 N 0.10143 0.64284 0.03076 0.0
C74 C 0.10232 0.56513 0.9959 0.0
O75 O 0.06756 0.57745 0.96742 0.0
O76 O 0.05863 0.70635 0.75073 0.0
Zn77 Zn 0.13809 0.61851 0.93488 0.0
N78 N 0.997 0.65884 0.87548 0.0
C79 C 0.95711 0.63286 0.02188 0.0
C80 C 0.99494 0.64086 0.97393 0.0
C81 C 0.96181 0.66864 0.82003 0.0
N82 N 0.92231 0.6424 0.96699 0.0
C83 C 0.92297 0.65987 0.86622 0.0
O84 O 0.12748 0.61677 0.74348 0.0
C85 C 0.1013 0.62512 0.66214 0.0
O86 O 0.07352 0.64258 0.68973 0.0
H87 H 0.02261 0.63268 1.0154 0.0
H88 H 0.96413 0.68307 0.74241 0.0
C89 C 0.22649 0.62133 0.89287 0.0
C90 C 0.2664 0.63169 0.91416 0.0
C91 C 0.23964 0.66215 0.06928 0.0
C92 C 0.20019 0.65259 0.04469 0.0
N93 N 0.19424 0.63192 0.95952 0.0
N94 N 0.27166 0.65162 1.00338 0.0
H95 H 0.22103 0.60521 0.82406 0.0
C96 C 0.09357 0.71351 0.70747 0.0
O97 O 0.12479 0.69655 0.71927 0.0
O98 O 0.13538 0.57906 0.99574 0.0
H99 H 0.17465 0.66179 0.09346 0.0
H100 H 0.95533 0.61881 0.10118 0.0
H101 H 0.24473 0.67824 0.13842 0.0
Zn102 Zn 0.62293 0.34419 0.32731 0.0
C103 C 0.57717 0.36546 0.65726 0.0
N104 N 0.59029 0.3402 0.68931 0.0
C105 C 0.59758 0.32839 0.57685 0.0
N106 N 0.58951 0.34567 0.47998 0.0
N107 N 0.57538 0.36888 0.52976 0.0
C108 C 0.57313 0.44623 0.49485 0.0
O109 O 0.60772 0.43405 0.46369 0.0
O110 O 0.61878 0.30621 0.24906 0.0
Zn111 Zn 0.53815 0.39291 0.43425 0.0
N112 N 0.68 0.35353 0.37619 0.0
C113 C 0.71985 0.37875 0.52616 0.0
C114 C 0.68202 0.37094 0.47694 0.0
C115 C 0.71522 0.34416 0.31966 0.0
N116 N 0.75467 0.36957 0.47041 0.0
C117 C 0.75403 0.3527 0.36743 0.0
O118 O 0.54876 0.39487 0.24285 0.0
C119 C 0.57521 0.38689 0.16172 0.0
O120 O 0.60341 0.36974 0.18932 0.0
H121 H 0.65432 0.37879 0.51929 0.0
H122 H 0.71298 0.33024 0.23996 0.0
C123 C 0.44997 0.38907 0.38904 0.0
C124 C 0.4103 0.37815 0.40815 0.0
C125 C 0.43731 0.34809 0.56461 0.0
C126 C 0.47653 0.35827 0.54248 0.0
N127 N 0.48225 0.37893 0.45735 0.0
N128 N 0.40528 0.35814 0.49694 0.0
H129 H 0.45526 0.40528 0.32073 0.0
C130 C 0.5839 0.29848 0.20711 0.0
O131 O 0.55191 0.31463 0.22249 0.0
O132 O 0.54018 0.43221 0.49633 0.0
H133 H 0.50211 0.34952 0.59291 0.0
H134 H 0.72158 0.39233 0.60724 0.0
H135 H 0.43244 0.33191 0.63336 0.0
Zn136 Zn 0.63499 0.89377 0.11211 0.0
C137 C 0.57997 0.82851 0.96231 0.0
N138 N 0.58728 0.84078 0.85109 0.0
C139 C 0.59886 0.86621 0.88539 0.0
N140 N 0.59934 0.86937 1.01322 0.0
N141 N 0.58631 0.84568 0.06103 0.0
C142 C 0.58982 0.79849 0.34413 0.0
O143 O 0.62036 0.81614 0.34723 0.0
O144 O 0.63288 0.93304 0.04856 0.0
Zn145 Zn 0.55192 0.8434 0.21159 0.0
N146 N 0.69116 0.87977 0.09643 0.0
C147 C 0.73638 0.84732 1.0004 0.0
C148 C 0.69701 0.85747 1.02041 0.0
C149 C 0.72341 0.8913 0.16013 0.0
N150 N 0.76847 0.8591 0.0614 0.0
C151 C 0.76326 0.88071 0.14179 0.0
O152 O 0.56933 0.86907 0.35271 0.0
C153 C 0.59631 0.88697 0.3817 0.0
O154 O 0.62237 0.89577 0.30142 0.0
H155 H 0.67149 0.84765 0.97389 0.0
H156 H 0.7181 0.90838 0.22398 0.0
C157 C 0.45987 0.84276 0.21634 0.0
C158 C 0.42094 0.85075 0.16755 0.0
C159 C 0.45474 0.8759 1.00521 0.0
C160 C 0.49268 0.86868 0.05554 0.0
N161 N 0.49495 0.852 0.15882 0.0
N162 N 0.42006 0.86692 0.06229 0.0
H163 H 0.46238 0.82933 0.29767 0.0
C164 C 0.60292 0.94838 0.0802 0.0
O165 O 0.57227 0.9375 0.14367 0.0
O166 O 0.55659 0.80523 0.2879 0.0
H167 H 0.52018 0.87647 1.0119 0.0
H168 H 0.74137 0.82994 0.93815 0.0
H169 H 0.4528 0.8889 0.92223 0.0
Zn170 Zn 0.03964 0.11819 0.60771 0.0
C171 C 0.09847 0.18303 0.4641 0.0
N172 N 0.09188 0.17089 0.35193 0.0
C173 C 0.07867 0.14572 0.38455 0.0
N174 N 0.07614 0.14267 0.51209 0.0
N175 N 0.08994 0.16601 0.56159 0.0
C176 C 0.08606 0.21346 0.83376 0.0
O177 O 0.05423 0.19708 0.82125 0.0
O178 O 0.04202 0.07884 0.54516 0.0
Zn179 Zn 0.12379 0.16744 0.71395 0.0
N180 N 0.98348 0.13163 0.58429 0.0
C181 C 0.93786 0.16119 0.47147 0.0
C182 C 0.97738 0.15191 0.49739 0.0
C183 C 0.95129 0.12126 0.65193 0.0
N184 N 0.90584 0.15059 0.53697 0.0
C185 C 0.91127 0.131 0.6275 0.0
O186 O 0.10409 0.14223 0.85287 0.0
C187 C 0.07646 0.12472 0.88039 0.0
O188 O 0.05039 0.11625 0.79895 0.0
H189 H 1.00288 0.161 0.44817 0.0
H190 H 0.95678 0.10572 0.72343 0.0
C191 C 0.21639 0.16725 0.71044 0.0
C192 C 0.25422 0.15764 0.6602 0.0
C193 C 0.21728 0.12786 0.52249 0.0
C194 C 0.1804 0.13706 0.57305 0.0
N195 N 0.18019 0.15685 0.66419 0.0
N196 N 0.25303 0.13824 0.56721 0.0
H197 H 0.21576 0.18271 0.78426 0.0
C198 C 0.07461 0.06442 0.5498 0.0
O199 O 0.10916 0.07616 0.58482 0.0
O200 O 0.12075 0.20572 0.79053 0.0
H201 H 0.15198 0.12833 0.53965 0.0
H202 H 0.9327 0.17703 0.40122 0.0
H203 H 0.21758 0.11228 0.44922 0.0
Zn204 Zn 0.54904 0.16876 0.82681 0.0
C205 C 0.59667 0.1486 0.15779 0.0
N206 N 0.58261 0.17363 0.1895 0.0
C207 C 0.57408 0.18503 0.07707 0.0
N208 N 0.5823 0.16771 0.98034 0.0
N209 N 0.59767 0.14485 0.03044 0.0
C210 C 0.60181 0.06723 0.99704 0.0
O211 O 0.56689 0.0791 0.96653 0.0
O212 O 0.55193 0.20689 0.74935 0.0
Zn213 Zn 0.63493 0.12084 0.93488 0.0
N214 N 0.49247 0.15864 0.87569 0.0
C215 C 0.45341 0.13228 0.02276 0.0
C216 C 0.49101 0.14064 0.97422 0.0
C217 C 0.45699 0.1682 0.82122 0.0
N218 N 0.41831 0.14158 0.96873 0.0
C219 C 0.41844 0.15913 0.86823 0.0
O220 O 0.62356 0.11864 0.74503 0.0
C221 C 0.59761 0.1265 0.6621 0.0
O222 O 0.56913 0.14357 0.68771 0.0
H223 H 0.51896 0.13278 1.01556 0.0
H224 H 0.45888 0.18272 0.74382 0.0
C225 C 0.72379 0.12339 0.89842 0.0
C226 C 0.76284 0.13581 0.91002 0.0
C227 C 0.73291 0.17185 0.03069 0.0
C228 C 0.69437 0.16006 1.0151 0.0
N229 N 0.69041 0.13581 0.95193 0.0
N230 N 0.76602 0.15959 0.97755 0.0
H231 H 0.71978 0.10428 0.84723 0.0
C232 C 0.58566 0.21427 0.69838 0.0
O233 O 0.61738 0.19758 0.70346 0.0
O234 O 0.63447 0.08157 0.998 0.0
H235 H 0.66787 0.17021 0.05418 0.0
H236 H 0.45207 0.1182 0.10202 0.0
H237 H 0.73641 0.19091 0.0827 0.0
Zn238 Zn 0.12699 0.84264 0.32302 0.0
C239 C 0.07915 0.86325 0.65292 0.0
N240 N 0.09318 0.8383 0.68573 0.0
C241 C 0.10189 0.82675 0.57384 0.0
N242 N 0.09381 0.84388 0.47629 0.0
N243 N 0.07841 0.86681 0.52549 0.0
C244 C 0.07366 0.9456 0.46369 0.0
O245 O 0.10475 0.93465 0.40239 0.0
O246 O 0.12386 0.80428 0.24717 0.0
Zn247 Zn 0.04155 0.89098 0.42959 0.0
N248 N 0.18318 0.85355 0.37308 0.0
C249 C 0.21979 0.88273 0.51532 0.0
C250 C 0.18306 0.87336 0.46419 0.0
C251 C 0.21951 0.8432 0.32796 0.0
N252 N 0.25569 0.87249 0.47131 0.0
C253 C 0.2572 0.85301 0.37869 0.0
O254 O 0.05243 0.8929 0.23949 0.0
C255 C 0.07817 0.88471 0.15687 0.0
O256 O 0.10649 0.86755 0.18315 0.0
H257 H 0.15448 0.88193 0.49739 0.0
H258 H 0.21906 0.82762 0.25468 0.0
C259 C 0.95227 0.88934 0.39953 0.0
C260 C 0.91317 0.8771 0.41233 0.0
C261 C 0.94368 0.83986 0.52364 0.0
C262 C 0.98227 0.85145 0.50643 0.0
N263 N 0.98596 0.87627 0.44798 0.0
N264 N 0.91024 0.85281 0.47588 0.0
H265 H 0.95605 0.90876 0.35088 0.0
C266 C 0.08846 0.79674 0.20868 0.0
O267 O 0.05716 0.81351 0.22373 0.0
O268 O 0.0434 0.93032 0.49299 0.0
H269 H 1.00899 0.84063 0.5405 0.0
H270 H 0.21983 0.89832 0.58859 0.0
H271 H 0.94036 0.8204 0.57229 0.0
C272 C 0.33532 0.38773 0.38813 0.0
C273 C 0.37412 0.38579 0.32983 0.0
C274 C 0.29895 0.38769 0.31647 0.0
C275 C 0.30007 0.38531 0.18369 0.0
H276 H 0.33295 0.38761 0.49057 0.0
H277 H 0.26988 0.3872 0.36624 0.0
S278 S 0.39373 0.38295 0.98374 0.0
N279 N 0.41141 0.38405 0.13045 0.0
N280 N 0.34318 0.38401 0.99584 0.0
C281 C 0.3387 0.38552 0.12375 0.0
C282 C 0.37573 0.38578 0.19669 0.0
C283 C 0.34112 0.62113 0.89656 0.0
C284 C 0.30256 0.62381 0.83681 0.0
C285 C 0.37775 0.62154 0.8266 0.0
C286 C 0.3771 0.62509 0.6944 0.0
H287 H 0.3431 0.62054 0.99907 0.0
H288 H 0.40667 0.62157 0.8776 0.0
S289 S 0.28429 0.62948 0.49063 0.0
N290 N 0.26603 0.62722 0.63617 0.0
N291 N 0.33479 0.62811 0.5049 0.0
C292 C 0.33873 0.62546 0.63262 0.0
C293 C 0.30144 0.62476 0.7037 0.0
C294 C 0.80734 0.66889 0.83623 0.0
C295 C 0.80045 0.66698 0.70492 0.0
C296 C 0.84743 0.66895 0.88634 0.0
C297 C 0.88246 0.66721 0.80774 0.0
H298 H 0.78176 0.66826 0.90163 0.0
H299 H 0.85093 0.66879 0.98849 0.0
S300 S 0.88115 0.66586 0.45591 0.0
N301 N 0.83219 0.66679 0.49623 0.0
N302 N 0.90713 0.66621 0.5904 0.0
C303 C 0.87602 0.66754 0.67587 0.0
C304 C 0.83517 0.66755 0.62474 0.0
C305 C 0.86958 0.34328 0.33821 0.0
C306 C 0.87666 0.3466 0.20768 0.0
C307 C 0.82942 0.34294 0.38738 0.0
C308 C 0.79452 0.34572 0.30847 0.0
H309 H 0.89512 0.34304 0.40413 0.0
H310 H 0.82576 0.34205 0.48935 0.0
S311 S 0.79631 0.35108 0.9576 0.0
N312 N 0.84522 0.34943 0.99868 0.0
N313 N 0.77014 0.3493 0.0912 0.0
C314 C 0.80113 0.34681 0.17686 0.0
C315 C 0.84204 0.34717 0.12672 0.0
C316 C 0.80006 0.88605 0.3471 0.0
C317 C 0.79936 0.88998 0.21532 0.0
C318 C 0.83747 0.88482 0.41324 0.0
C319 C 0.87539 0.88777 0.35017 0.0
H320 H 0.77196 0.88123 0.39727 0.0
H321 H 0.83684 0.87942 0.51286 0.0
S322 S 0.88889 0.90361 1.00873 0.0
N323 N 0.83873 0.90062 0.02682 0.0
N324 N 0.9091 0.89859 0.15058 0.0
C325 C 0.87464 0.89469 0.22069 0.0
C326 C 0.83654 0.89566 0.15337 0.0
C327 C 0.87558 0.12755 0.83568 0.0
C328 C 0.87521 0.12302 0.70426 0.0
C329 C 0.83873 0.129 0.90425 0.0
C330 C 0.80029 0.12569 0.84422 0.0
H331 H 0.90409 0.13246 0.88378 0.0
H332 H 0.84023 0.13464 1.00354 0.0
S333 S 0.784 0.1083 0.50516 0.0
N334 N 0.83428 0.11146 0.51954 0.0
N335 N 0.76496 0.11403 0.64777 0.0
C336 C 0.79997 0.11835 0.71513 0.0
C337 C 0.83751 0.11713 0.64531 0.0
C338 C 0.30266 0.16778 0.841 0.0
C339 C 0.29552 0.1658 0.70987 0.0
C340 C 0.34287 0.16795 0.89024 0.0
C341 C 0.37772 0.1663 0.81081 0.0
H342 H 0.27719 0.16707 0.90681 0.0
H343 H 0.34663 0.1678 0.9923 0.0
S344 S 0.37554 0.16479 0.45904 0.0
N345 N 0.32668 0.16556 0.5005 0.0
N346 N 0.40187 0.16532 0.59288 0.0
C347 C 0.37097 0.1666 0.67907 0.0
C348 C 0.33001 0.16644 0.62891 0.0
C349 C 0.34548 0.84124 0.14925 0.0
C350 C 0.38054 0.84395 0.22751 0.0
C351 C 0.30543 0.84167 0.19913 0.0
C352 C 0.29863 0.84494 0.32983 0.0
H353 H 0.34891 0.84032 0.0472 0.0
H354 H 0.2798 0.84152 0.13358 0.0
S355 S 0.37942 0.849 0.57867 0.0
N356 N 0.40533 0.84736 0.44453 0.0
N357 N 0.33046 0.84744 0.53837 0.0
C358 C 0.33339 0.84535 0.41019 0.0
C359 C 0.3742 0.84499 0.3593 0.0
C360 C 0.06718 0.52095 0.05312 0.0
C361 C 0.10325 0.5349 1.01786 0.0
C362 C 0.06688 0.49231 0.07093 0.0
C363 C 0.10249 0.47632 0.05234 0.0
H364 H 0.03891 0.53225 0.06812 0.0
H365 H 0.03836 0.48265 0.09931 0.0
S366 S 0.20484 0.50276 0.95597 0.0
N367 N 0.17553 0.53045 0.96314 0.0
N368 N 0.17488 0.47673 0.995 0.0
C369 C 0.13872 0.48999 1.01565 0.0
C370 C 0.13914 0.51921 0.9991 0.0
C371 C 0.6086 0.49043 0.54975 0.0
C372 C 0.57221 0.47641 0.51798 0.0
C373 C 0.60894 0.51903 0.56825 0.0
C374 C 0.57302 0.53493 0.55395 0.0
H375 H 0.63712 0.4792 0.56133 0.0
H376 H 0.63775 0.52874 0.5937 0.0
S377 S 0.46967 0.50828 0.46846 0.0
N378 N 0.49923 0.48068 0.47155 0.0
N379 N 0.49994 0.53437 0.50481 0.0
C380 C 0.53642 0.52119 0.52101 0.0
C381 C 0.53598 0.49199 0.5037 0.0
C382 C 0.56742 0.02283 0.05388 0.0
C383 C 0.60337 0.03706 1.01988 0.0
C384 C 0.5676 0.99422 0.07205 0.0
C385 C 0.60358 0.97853 0.05507 0.0
H386 H 0.53886 0.03389 0.0675 0.0
H387 H 0.53913 0.98434 0.09935 0.0
S388 S 0.70582 0.00578 0.96257 0.0
N389 N 0.67596 0.03323 0.96822 0.0
N390 N 0.6762 0.97951 1.00071 0.0
C391 C 0.63971 0.99248 1.01976 0.0
C392 C 0.63965 0.02169 1.00286 0.0
C393 C 0.10927 0.99128 0.47744 0.0
C394 C 0.07294 0.97574 0.48928 0.0
C395 C 0.10943 0.01988 0.49641 0.0
C396 C 0.07317 0.03426 0.52606 0.0
H397 H 0.13799 0.98128 0.45367 0.0
H398 H 0.13825 0.03082 0.48685 0.0
S399 S 0.96972 1.00341 0.56847 0.0
N400 N 0.99963 0.97703 0.53371 0.0
N401 N 0.99986 0.03071 0.5677 0.0
C402 C 0.03655 0.01904 0.53777 0.0
C403 C 0.03647 0.98984 0.52008 0.0
C404 C 0.03873 0.28288 0.91086 0.0
C405 C 0.07115 0.29703 0.96986 0.0
C406 C 0.04307 0.25527 0.87379 0.0
C407 C 0.08059 0.24122 0.88977 0.0
H408 H 0.01074 0.29373 0.88627 0.0
H409 H 0.01771 0.24546 0.82503 0.0
S410 S 0.17389 0.26867 0.04722 0.0
N411 N 0.14086 0.29446 0.05102 0.0
N412 N 0.1496 0.24291 0.97762 0.0
C413 C 0.11252 0.25474 0.9544 0.0
C414 C 0.10763 0.28257 0.99542 0.0
C415 C 0.56225 0.72837 0.47653 0.0
C416 C 0.60022 0.71461 0.47879 0.0
C417 C 0.55937 0.75588 0.4376 0.0
C418 C 0.59448 0.77073 0.4012 0.0
H419 H 0.53414 0.71717 0.49516 0.0
H420 H 0.5292 0.7652 0.4312 0.0
S421 S 0.7018 0.74471 0.40672 0.0
N422 N 0.67384 0.71807 0.45124 0.0
N423 N 0.66913 0.77029 0.38393 0.0
C424 C 0.63309 0.75779 0.41355 0.0
C425 C 0.63578 0.72955 0.4507 0.0
C426 C 0.11238 0.75634 0.08022 0.0
C427 C 0.08186 0.76892 0.15478 0.0
C428 C 0.10836 0.72889 0.03983 0.0
C429 C 0.07404 0.71304 0.07464 0.0
H430 H 0.14019 0.76744 0.05675 0.0
H431 H 0.13388 0.71933 0.99079 0.0
S432 S 0.98459 0.7367 0.26144 0.0
N433 N 0.01474 0.76396 0.25308 0.0
N434 N 1.00828 0.71214 0.18161 0.0
C435 C 0.04244 0.72581 0.14295 0.0
C436 C 0.04606 0.75384 0.18192 0.0
C437 C 0.62835 0.25585 0.65112 0.0
C438 C 0.59035 0.24209 0.64269 0.0
C439 C 0.63205 0.28366 0.61669 0.0
C440 C 0.59841 0.29821 0.56719 0.0
H441 H 0.65475 0.24562 0.69228 0.0
H442 H 0.66066 0.29427 0.63588 0.0
S443 S 0.49394 0.27066 0.50909 0.0
N444 N 0.5195 0.24447 0.57048 0.0
N445 N 0.52704 0.29634 0.50103 0.0
C446 C 0.56132 0.28404 0.54807 0.0
C447 C 0.55713 0.25605 0.58687 0.0
C448 C 0.5492 0.75754 0.86426 0.0
C449 C 0.58576 0.7427 0.88513 0.0
C450 C 0.54536 0.78504 0.90349 0.0
C451 C 0.57732 0.79833 0.96882 0.0
H452 H 0.52439 0.74848 0.80987 0.0
H453 H 0.51832 0.79653 0.87517 0.0
S454 S 0.67739 0.76776 0.05958 0.0
N455 N 0.65326 0.74273 0.98407 0.0
N456 N 0.6454 0.79415 0.06067 0.0
C457 C 0.61267 0.7831 0.99894 0.0
C458 C 0.61709 0.75534 0.9562 0.0
C459 C 0.12782 0.25533 0.38083 0.0
C460 C 0.08994 0.26916 0.39224 0.0
C461 C 0.13204 0.22767 0.41738 0.0
C462 C 0.09908 0.21327 0.4715 0.0
H463 H 0.15369 0.26536 0.33605 0.0
H464 H 0.16048 0.21702 0.39627 0.0
S465 S 0.9951 0.24092 0.53628 0.0
N466 N 0.0199 0.26693 0.47089 0.0
N467 N 0.02838 0.2153 0.54332 0.0
C468 C 0.06212 0.22747 0.49256 0.0
C469 C 0.05739 0.25535 0.45203 0.0
C470 C 0.542 0.25614 0.16851 0.0
C471 C 0.57861 0.27095 0.14896 0.0
C472 C 0.5385 0.22853 0.13064 0.0
C473 C 0.57081 0.21516 0.06742 0.0
H474 H 0.51695 0.26531 0.22115 0.0
H475 H 0.51151 0.21701 0.15864 0.0
S476 S 0.67083 0.24592 0.97854 0.0
N477 N 0.64631 0.27097 0.05247 0.0
N478 N 0.63902 0.21947 0.97716 0.0
C479 C 0.60605 0.23049 0.03748 0.0
C480 C 0.61016 0.2583 0.0794 0.0
C481 C 0.06783 0.75367 0.58078 0.0
C482 C 0.09964 0.74108 0.65028 0.0
C483 C 0.07137 0.78097 0.53831 0.0
C484 C 0.10655 0.7967 0.56561 0.0
H485 H 0.03939 0.74271 0.56332 0.0
H486 H 0.04493 0.79058 0.4941 0.0
S487 S 0.19941 0.77295 0.7363 0.0
N488 N 0.16877 0.74587 0.73535 0.0
N489 N 0.17445 0.79744 0.65968 0.0
C490 C 0.13937 0.78389 0.62827 0.0
C491 C 0.13617 0.75599 0.66956 0.0
C492 C 0.13879 0.37941 0.71101 0.0
C493 C 0.1032 0.38432 0.78352 0.0
C494 C 0.1389 0.38337 0.57887 0.0
C495 C 0.10317 0.39193 0.51509 0.0
H496 H 0.16482 0.36901 0.75295 0.0
H497 H 0.16535 0.37648 0.52526 0.0
S498 S 1.00533 0.4133 0.66428 0.0
N499 N 0.03433 0.40324 0.78426 0.0
N500 N 0.0339 0.40974 0.53602 0.0
C501 C 0.0694 0.40029 0.58816 0.0
C502 C 0.06974 0.39694 0.72269 0.0
C503 C 0.60985 0.61779 0.22726 0.0
C504 C 0.57363 0.62651 0.28788 0.0
C505 C 0.61149 0.61479 0.09497 0.0
C506 C 0.57652 0.6193 1.01935 0.0
H507 H 0.63854 0.61739 0.27959 0.0
H508 H 0.64109 0.61138 0.05082 0.0
S509 S 0.47179 0.63511 0.1355 0.0
N510 N 0.5005 0.63453 0.26471 0.0
N511 N 0.50291 0.62749 1.01705 0.0
C512 C 0.53878 0.62362 0.08073 0.0
C513 C 0.53744 0.62738 0.2152 0.0
C514 C 0.14367 0.629 0.33177 0.0
C515 C 0.10803 0.62522 0.25778 0.0
C516 C 0.14298 0.62529 0.46406 0.0
C517 C 0.1064 0.61809 0.52644 0.0
H518 H 0.17061 0.63842 0.29067 0.0
H519 H 0.16974 0.63131 0.51866 0.0
S520 S 1.00777 0.5996 0.37323 0.0
N521 N 0.03796 0.60844 0.25436 0.0
N522 N 0.03603 0.60253 0.50277 0.0
C523 C 0.07237 0.6107 0.45205 0.0
C524 C 0.07352 0.61373 0.31742 0.0
C525 C 0.5329 0.38163 0.83161 0.0
C526 C 0.5684 0.38573 0.75771 0.0
C527 C 0.53346 0.3858 0.96361 0.0
C528 C 0.56981 0.3937 0.02591 0.0
H529 H 0.50623 0.37175 0.79082 0.0
H530 H 0.50691 0.37956 1.0183 0.0
S531 S 0.66792 0.41293 0.87268 0.0
N532 N 0.63802 0.40332 0.75403 0.0
N533 N 0.63974 0.41007 1.00207 0.0
C534 C 0.60365 0.40127 0.95144 0.0
C535 C 0.60261 0.39777 0.81701 0.0
C536 C 0.56742 0.89521 0.72508 0.0
C537 C 0.60402 0.88737 0.78663 0.0
C538 C 0.56568 0.89787 0.59263 0.0
C539 C 0.6009 0.89403 0.51776 0.0
H540 H 0.53868 0.89502 0.77686 0.0
H541 H 0.53594 0.90048 0.54788 0.0
S542 S 0.70635 0.88105 0.63612 0.0
N543 N 0.67756 0.88121 0.76485 0.0
N544 N 0.6749 0.88763 0.51692 0.0
C545 C 0.63881 0.89076 0.5799 0.0
C546 C 0.64028 0.88732 0.71455 0.0
C547 C 0.03436 0.12937 0.21052 0.0
C548 C 0.06995 0.12535 0.2845 0.0
C549 C 0.03491 0.12544 0.07839 0.0
C550 C 0.0713 0.11781 1.01608 0.0
H551 H 1.0076 0.13908 0.25134 0.0
H552 H 1.00825 0.13165 0.02373 0.0
S553 S 0.16965 0.09865 0.16927 0.0
N554 N 0.13973 0.10799 0.28806 0.0
N555 N 0.14139 0.10164 0.03977 0.0
C556 C 0.10526 0.11025 0.09047 0.0
C557 C 0.10425 0.11352 0.22501 0.0
C558 C 0.57459 0.11519 0.31607 0.0
C559 C 0.6077 0.12901 0.25874 0.0
C560 C 0.573 0.11159 0.44827 0.0
C561 C 0.60525 0.12067 0.52658 0.0
H562 H 0.54714 0.11086 0.2613 0.0
H563 H 0.54487 0.10396 0.49026 0.0
S564 S 0.70155 0.1539 0.4213 0.0
N565 N 0.67531 0.14875 0.28947 0.0
N566 N 0.6734 0.14066 0.53607 0.0
C567 C 0.64084 0.13097 0.4687 0.0
C568 C 0.64194 0.13526 0.33478 0.0
C569 C 0.10221 0.89614 0.81197 0.0
C570 C 0.0686 0.88313 0.75304 0.0
C571 C 0.10376 0.8994 0.94435 0.0
C572 C 0.07096 0.89082 1.02129 0.0
H573 H 0.12999 0.89997 0.75824 0.0
H574 H 0.13215 0.90634 0.98746 0.0
S575 S 0.97305 0.86034 0.91124 0.0
N576 N 0.99985 0.86508 0.78044 0.0
N577 N 1.0017 0.87255 0.02769 0.0
C578 C 0.03495 0.88152 0.96187 0.0
C579 C 0.03387 0.87758 0.82764 0.0
loop_
_geom_bond_atom_site_label_1
_geom_bond_atom_site_label_2
_geom_bond_distance
_geom_bond_site_symmetry_2
_ccdc_geom_bond_type
Zn0 N4 2.020 . S
Zn0 O8 2.019 . S
Zn0 N10 2.119 . S
Zn0 O18 1.975 . S
C1 N2 1.334 . S
C1 N5 1.336 1_556 S
N2 C1 1.334 . S
N2 C3 1.334 . S
C3 N2 1.334 . S
C3 N4 1.336 1_556 S
N4 Zn0 2.020 . S
N4 C3 1.336 1_554 S
N4 N5 1.354 . S
N5 C1 1.336 1_554 S
N5 N4 1.354 . S
N5 Zn9 2.020 . S
C6 O7 1.244 . S
C6 O30 1.257 . S
O7 C6 1.244 . S
O8 Zn0 2.019 . S
O8 C28 1.257 . S
Zn9 N5 2.020 . S
Zn9 O16 1.975 . S
Zn9 N25 2.119 . S
Zn9 O30 2.019 . S
N10 Zn0 2.119 . S
N10 C12 1.334 . S
N10 C13 1.328 . S
C11 C12 1.391 . S
C11 N14 1.329 . S
C11 H32 0.930 . S
C12 N10 1.334 . S
C12 C11 1.391 . S
C12 H19 0.930 . S
C13 N10 1.328 . S
C13 C15 1.392 . S
C13 H20 0.930 . S
N14 C11 1.329 . S
N14 C15 1.331 . S
C15 C13 1.392 . S
C15 N14 1.331 . S
O16 Zn9 1.975 . S
O16 C17 1.252 . S
C17 O16 1.252 . S
C17 O18 1.252 . S
O18 Zn0 1.975 . S
O18 C17 1.252 . S
H19 C12 0.930 . S
H20 C13 0.930 . S
C21 C22 1.392 . S
C21 N25 1.328 1_655 S
C21 H27 0.930 . S
C22 C21 1.392 . S
C22 N26 1.331 . S
C23 C24 1.391 1_655 S
C23 N26 1.329 . S
C23 H33 0.930 . S
C24 C23 1.391 1_455 S
C24 N25 1.334 . S
C24 H31 0.930 . S
N25 Zn9 2.119 . S
N25 C21 1.328 1_455 S
N25 C24 1.334 . S
N26 C22 1.331 . S
N26 C23 1.329 . S
H27 C21 0.930 . S
C28 O8 1.257 . S
C28 O29 1.244 . S
O29 C28 1.244 . S
O30 C6 1.257 . S
O30 Zn9 2.019 . S
H31 C24 0.930 . S
H32 C11 0.930 . S
H33 C23 0.930 . S
Zn34 N38 2.020 . S
Zn34 O42 2.019 . S
Zn34 N44 2.119 . S
Zn34 O52 1.975 . S
C35 N36 1.334 . S
C35 N39 1.336 . S
N36 C35 1.334 . S
N36 C37 1.334 . S
C37 N36 1.334 . S
C37 N38 1.336 . S
N38 Zn34 2.020 . S
N38 C37 1.336 . S
N38 N39 1.354 . S
N39 C35 1.336 . S
N39 N38 1.354 . S
N39 Zn43 2.020 . S
C40 O41 1.244 . S
C40 O64 1.257 . S
O41 C40 1.244 . S
O42 Zn34 2.019 . S
O42 C62 1.257 . S
Zn43 N39 2.020 . S
Zn43 O50 1.975 . S
Zn43 N59 2.119 . S
Zn43 O64 2.019 . S
N44 Zn34 2.119 . S
N44 C46 1.334 . S
N44 C47 1.328 . S
C45 C46 1.391 . S
C45 N48 1.329 . S
C45 H66 0.930 . S
C46 N44 1.334 . S
C46 C45 1.391 . S
C46 H53 0.930 . S
C47 N44 1.328 . S
C47 C49 1.392 . S
C47 H54 0.930 . S
N48 C45 1.329 . S
N48 C49 1.331 . S
C49 C47 1.392 . S
C49 N48 1.331 . S
O50 Zn43 1.975 . S
O50 C51 1.252 . S
C51 O50 1.252 . S
C51 O52 1.252 . S
O52 Zn34 1.975 . S
O52 C51 1.252 . S
H53 C46 0.930 . S
H54 C47 0.930 . S
C55 C56 1.392 . S
C55 N59 1.328 . S
C55 H61 0.930 . S
C56 C55 1.392 . S
C56 N60 1.331 . S
C57 C58 1.391 . S
C57 N60 1.329 . S
C57 H67 0.930 . S
C58 C57 1.391 . S
C58 N59 1.334 . S
C58 H65 0.930 . S
N59 Zn43 2.119 . S
N59 C55 1.328 . S
N59 C58 1.334 . S
N60 C56 1.331 . S
N60 C57 1.329 . S
H61 C55 0.930 . S
C62 O42 1.257 . S
C62 O63 1.244 . S
O63 C62 1.244 . S
O64 C40 1.257 . S
O64 Zn43 2.019 . S
H65 C58 0.930 . S
H66 C45 0.930 . S
H67 C57 0.930 . S
Zn68 N72 2.020 . S
Zn68 O76 2.019 . S
Zn68 N78 2.119 . S
Zn68 O86 1.975 . S
C69 N70 1.334 . S
C69 N73 1.336 1_554 S
N70 C69 1.334 . S
N70 C71 1.334 . S
C71 N70 1.334 . S
C71 N72 1.336 1_554 S
N72 Zn68 2.020 . S
N72 C71 1.336 1_556 S
N72 N73 1.354 . S
N73 C69 1.336 1_556 S
N73 N72 1.354 . S
N73 Zn77 2.020 . S
C74 O75 1.244 . S
C74 O98 1.257 . S
O75 C74 1.244 . S
O76 Zn68 2.019 . S
O76 C96 1.257 . S
Zn77 N73 2.020 . S
Zn77 O84 1.975 . S
Zn77 N93 2.119 . S
Zn77 O98 2.019 . S
N78 Zn68 2.119 . S
N78 C80 1.334 . S
N78 C81 1.328 1_455 S
C79 C80 1.391 1_655 S
C79 N82 1.329 . S
C79 H100 0.930 . S
C80 N78 1.334 . S
C80 C79 1.391 1_455 S
C80 H87 0.930 . S
C81 N78 1.328 1_655 S
C81 C83 1.392 . S
C81 H88 0.930 . S
N82 C79 1.329 . S
N82 C83 1.331 . S
C83 C81 1.392 . S
C83 N82 1.331 . S
O84 Zn77 1.975 . S
O84 C85 1.252 . S
C85 O84 1.252 . S
C85 O86 1.252 . S
O86 Zn68 1.975 . S
O86 C85 1.252 . S
H87 C80 0.930 . S
H88 C81 0.930 . S
C89 C90 1.392 . S
C89 N93 1.328 . S
C89 H95 0.930 . S
C90 C89 1.392 . S
C90 N94 1.331 . S
C91 C92 1.391 . S
C91 N94 1.329 . S
C91 H101 0.930 . S
C92 C91 1.391 . S
C92 N93 1.334 . S
C92 H99 0.930 . S
N93 Zn77 2.119 . S
N93 C89 1.328 . S
N93 C92 1.334 . S
N94 C90 1.331 . S
N94 C91 1.329 . S
H95 C89 0.930 . S
C96 O76 1.257 . S
C96 O97 1.244 . S
O97 C96 1.244 . S
O98 C74 1.257 . S
O98 Zn77 2.019 . S
H99 C92 0.930 . S
H100 C79 0.930 . S
H101 C91 0.930 . S
Zn102 N106 2.020 . S
Zn102 O110 2.019 . S
Zn102 N112 2.119 . S
Zn102 O120 1.975 . S
C103 N104 1.334 . S
C103 N107 1.336 . S
N104 C103 1.334 . S
N104 C105 1.334 . S
C105 N104 1.334 . S
C105 N106 1.336 . S
N106 Zn102 2.020 . S
N106 C105 1.336 . S
N106 N107 1.354 . S
N107 C103 1.336 . S
N107 N106 1.354 . S
N107 Zn111 2.020 . S
C108 O109 1.244 . S
C108 O132 1.257 . S
O109 C108 1.244 . S
O110 Zn102 2.019 . S
O110 C130 1.257 . S
Zn111 N107 2.020 . S
Zn111 O118 1.975 . S
Zn111 N127 2.119 . S
Zn111 O132 2.019 . S
N112 Zn102 2.119 . S
N112 C114 1.334 . S
N112 C115 1.328 . S
C113 C114 1.391 . S
C113 N116 1.329 . S
C113 H134 0.930 . S
C114 N112 1.334 . S
C114 C113 1.391 . S
C114 H121 0.930 . S
C115 N112 1.328 . S
C115 C117 1.392 . S
C115 H122 0.930 . S
N116 C113 1.329 . S
N116 C117 1.331 . S
C117 C115 1.392 . S
C117 N116 1.331 . S
O118 Zn111 1.975 . S
O118 C119 1.252 . S
C119 O118 1.252 . S
C119 O120 1.252 . S
O120 Zn102 1.975 . S
O120 C119 1.252 . S
H121 C114 0.930 . S
H122 C115 0.930 . S
C123 C124 1.392 . S
C123 N127 1.328 . S
C123 H129 0.930 . S
C124 C123 1.392 . S
C124 N128 1.331 . S
C125 C126 1.391 . S
C125 N128 1.329 . S
C125 H135 0.930 . S
C126 C125 1.391 . S
C126 N127 1.334 . S
C126 H133 0.930 . S
N127 Zn111 2.119 . S
N127 C123 1.328 . S
N127 C126 1.334 . S
N128 C124 1.331 . S
N128 C125 1.329 . S
H129 C123 0.930 . S
C130 O110 1.257 . S
C130 O131 1.244 . S
O131 C130 1.244 . S
O132 C108 1.257 . S
O132 Zn111 2.019 . S
H133 C126 0.930 . S
H134 C113 0.930 . S
H135 C125 0.930 . S
Zn136 N140 2.020 . S
Zn136 O144 2.019 . S
Zn136 N146 2.119 . S
Zn136 O154 1.975 . S
C137 N138 1.334 . S
C137 N141 1.336 1_556 S
N138 C137 1.334 . S
N138 C139 1.334 . S
C139 N138 1.334 . S
C139 N140 1.336 1_556 S
N140 Zn136 2.020 . S
N140 C139 1.336 1_554 S
N140 N141 1.354 . S
N141 C137 1.336 1_554 S
N141 N140 1.354 . S
N141 Zn145 2.020 . S
C142 O143 1.244 . S
C142 O166 1.257 . S
O143 C142 1.244 . S
O144 Zn136 2.019 . S
O144 C164 1.257 . S
Zn145 N141 2.020 . S
Zn145 O152 1.975 . S
Zn145 N161 2.119 . S
Zn145 O166 2.019 . S
N146 Zn136 2.119 . S
N146 C148 1.334 . S
N146 C149 1.328 . S
C147 C148 1.391 . S
C147 N150 1.329 . S
C147 H168 0.930 . S
C148 N146 1.334 . S
C148 C147 1.391 . S
C148 H155 0.930 . S
C149 N146 1.328 . S
C149 C151 1.392 . S
C149 H156 0.930 . S
N150 C147 1.329 . S
N150 C151 1.331 . S
C151 C149 1.392 . S
C151 N150 1.331 . S
O152 Zn145 1.975 . S
O152 C153 1.252 . S
C153 O152 1.252 . S
C153 O154 1.252 . S
O154 Zn136 1.975 . S
O154 C153 1.252 . S
H155 C148 0.930 . S
H156 C149 0.930 . S
C157 C158 1.392 . S
C157 N161 1.328 . S
C157 H163 0.930 . S
C158 C157 1.392 . S
C158 N162 1.331 . S
C159 C160 1.391 . S
C159 N162 1.329 . S
C159 H169 0.930 . S
C160 C159 1.391 . S
C160 N161 1.334 . S
C160 H167 0.930 . S
N161 Zn145 2.119 . S
N161 C157 1.328 . S
N161 C160 1.334 . S
N162 C158 1.331 . S
N162 C159 1.329 . S
H163 C157 0.930 . S
C164 O144 1.257 . S
C164 O165 1.244 . S
O165 C164 1.244 . S
O166 C142 1.257 . S
O166 Zn145 2.019 . S
H167 C160 0.930 . S
H168 C147 0.930 . S
H169 C159 0.930 . S
Zn170 N174 2.020 . S
Zn170 O178 2.019 1_455 S
Zn170 N180 2.119 1_455 S
Zn170 O188 1.975 . S
C171 N172 1.334 . S
C171 N175 1.336 . S
N172 C171 1.334 . S
N172 C173 1.334 . S
C173 N172 1.334 . S
C173 N174 1.336 . S
N174 Zn170 2.020 . S
N174 C173 1.336 . S
N174 N175 1.354 . S
N175 C171 1.336 . S
N175 N174 1.354 . S
N175 Zn179 2.020 . S
C176 O177 1.244 . S
C176 O200 1.257 . S
O177 C176 1.244 . S
O178 Zn170 2.019 1_655 S
O178 C198 1.257 1_655 S
Zn179 N175 2.020 . S
Zn179 O186 1.975 . S
Zn179 N195 2.119 . S
Zn179 O200 2.019 . S
N180 Zn170 2.119 1_655 S
N180 C182 1.334 . S
N180 C183 1.328 . S
C181 C182 1.391 . S
C181 N184 1.329 . S
C181 H202 0.930 . S
C182 N180 1.334 . S
C182 C181 1.391 . S
C182 H189 0.930 . S
C183 N180 1.328 . S
C183 C185 1.392 . S
C183 H190 0.930 . S
N184 C181 1.329 . S
N184 C185 1.331 . S
C185 C183 1.392 . S
C185 N184 1.331 . S
O186 Zn179 1.975 . S
O186 C187 1.252 . S
C187 O186 1.252 . S
C187 O188 1.252 . S
O188 Zn170 1.975 . S
O188 C187 1.252 . S
H189 C182 0.930 . S
H190 C183 0.930 . S
C191 C192 1.392 . S
C191 N195 1.328 . S
C191 H197 0.930 . S
C192 C191 1.392 . S
C192 N196 1.331 . S
C193 C194 1.391 . S
C193 N196 1.329 . S
C193 H203 0.930 . S
C194 C193 1.391 . S
C194 N195 1.334 . S
C194 H201 0.930 . S
N195 Zn179 2.119 . S
N195 C191 1.328 . S
N195 C194 1.334 . S
N196 C192 1.331 . S
N196 C193 1.329 . S
H197 C191 0.930 . S
C198 O178 1.257 1_455 S
C198 O199 1.244 . S
O199 C198 1.244 . S
O200 C176 1.257 . S
O200 Zn179 2.019 . S
H201 C194 0.930 . S
H202 C181 0.930 . S
H203 C193 0.930 . S
Zn204 N208 2.020 . S
Zn204 O212 2.019 . S
Zn204 N214 2.119 . S
Zn204 O222 1.975 . S
C205 N206 1.334 . S
C205 N209 1.336 1_554 S
N206 C205 1.334 . S
N206 C207 1.334 . S
C207 N206 1.334 . S
C207 N208 1.336 1_554 S
N208 Zn204 2.020 . S
N208 C207 1.336 1_556 S
N208 N209 1.354 . S
N209 C205 1.336 1_556 S
N209 N208 1.354 . S
N209 Zn213 2.020 . S
C210 O211 1.244 . S
C210 O234 1.257 . S
O211 C210 1.244 . S
O212 Zn204 2.019 . S
O212 C232 1.257 . S
Zn213 N209 2.020 . S
Zn213 O220 1.975 . S
Zn213 N229 2.119 . S
Zn213 O234 2.019 . S
N214 Zn204 2.119 . S
N214 C216 1.334 . S
N214 C217 1.328 . S
C215 C216 1.391 . S
C215 N218 1.329 . S
C215 H236 0.930 . S
C216 N214 1.334 . S
C216 C215 1.391 . S
C216 H223 0.930 . S
C217 N214 1.328 . S
C217 C219 1.392 . S
C217 H224 0.930 . S
N218 C215 1.329 . S
N218 C219 1.331 . S
C219 C217 1.392 . S
C219 N218 1.331 . S
O220 Zn213 1.975 . S
O220 C221 1.252 . S
C221 O220 1.252 . S
C221 O222 1.252 . S
O222 Zn204 1.975 . S
O222 C221 1.252 . S
H223 C216 0.930 . S
H224 C217 0.930 . S
C225 C226 1.392 . S
C225 N229 1.328 . S
C225 H231 0.930 . S
C226 C225 1.392 . S
C226 N230 1.331 . S
C227 C228 1.391 . S
C227 N230 1.329 . S
C227 H237 0.930 . S
C228 C227 1.391 . S
C228 N229 1.334 . S
C228 H235 0.930 . S
N229 Zn213 2.119 . S
N229 C225 1.328 . S
N229 C228 1.334 . S
N230 C226 1.331 . S
N230 C227 1.329 . S
H231 C225 0.930 . S
C232 O212 1.257 . S
C232 O233 1.244 . S
O233 C232 1.244 . S
O234 C210 1.257 . S
O234 Zn213 2.019 . S
H235 C228 0.930 . S
H236 C215 0.930 . S
H237 C227 0.930 . S
Zn238 N242 2.020 . S
Zn238 O246 2.019 . S
Zn238 N248 2.119 . S
Zn238 O256 1.975 . S
C239 N240 1.334 . S
C239 N243 1.336 . S
N240 C239 1.334 . S
N240 C241 1.334 . S
C241 N240 1.334 . S
C241 N242 1.336 . S
N242 Zn238 2.020 . S
N242 C241 1.336 . S
N242 N243 1.354 . S
N243 C239 1.336 . S
N243 N242 1.354 . S
N243 Zn247 2.020 . S
C244 O245 1.244 . S
C244 O268 1.257 1_455 S
O245 C244 1.244 . S
O246 Zn238 2.019 . S
O246 C266 1.257 . S
Zn247 N243 2.020 . S
Zn247 O254 1.975 . S
Zn247 N263 2.119 1_455 S
Zn247 O268 2.019 1_455 S
N248 Zn238 2.119 . S
N248 C250 1.334 . S
N248 C251 1.328 . S
C249 C250 1.391 . S
C249 N252 1.329 . S
C249 H270 0.930 . S
C250 N248 1.334 . S
C250 C249 1.391 . S
C250 H257 0.930 . S
C251 N248 1.328 . S
C251 C253 1.392 . S
C251 H258 0.930 . S
N252 C249 1.329 . S
N252 C253 1.331 . S
C253 C251 1.392 . S
C253 N252 1.331 . S
O254 Zn247 1.975 . S
O254 C255 1.252 . S
C255 O254 1.252 . S
C255 O256 1.252 . S
O256 Zn238 1.975 . S
O256 C255 1.252 . S
H257 C250 0.930 . S
H258 C251 0.930 . S
C259 C260 1.392 . S
C259 N263 1.328 . S
C259 H265 0.930 . S
C260 C259 1.392 . S
C260 N264 1.331 . S
C261 C262 1.391 . S
C261 N264 1.329 . S
C261 H271 0.930 . S
C262 C261 1.391 . S
C262 N263 1.334 . S
C262 H269 0.930 . S
N263 Zn247 2.119 1_655 S
N263 C259 1.328 . S
N263 C262 1.334 . S
N264 C260 1.331 . S
N264 C261 1.329 . S
H265 C259 0.930 . S
C266 O246 1.257 . S
C266 O267 1.244 . S
O267 C266 1.244 . S
O268 C244 1.257 1_655 S
O268 Zn247 2.019 1_655 S
H269 C262 0.930 . S
H270 C249 0.930 . S
H271 C261 0.930 . S
C272 C273 1.369 . S
C272 C274 1.419 . S
C272 H276 0.930 . S
C273 C272 1.369 . S
C273 C282 1.429 . S
C274 C272 1.419 . S
C274 C275 1.363 . S
C274 H277 0.929 . S
C275 C274 1.363 . S
C275 C281 1.428 . S
H276 C272 0.930 . S
H277 C274 0.929 . S
S278 N279 1.613 . S
S278 N280 1.610 . S
N279 S278 1.613 . S
N279 C282 1.350 . S
N280 S278 1.610 . S
N280 C281 1.351 . S
C281 C275 1.428 . S
C281 N280 1.351 . S
C281 C282 1.434 . S
C282 C273 1.429 . S
C282 N279 1.350 . S
C282 C281 1.434 . S
C283 C284 1.369 . S
C283 C285 1.419 . S
C283 H287 0.930 . S
C284 C283 1.369 . S
C284 C293 1.429 . S
C285 C283 1.419 . S
C285 C286 1.363 . S
C285 H288 0.929 . S
C286 C285 1.363 . S
C286 C292 1.428 . S
H287 C283 0.930 . S
H288 C285 0.929 . S
S289 N290 1.613 . S
S289 N291 1.610 . S
N290 S289 1.613 . S
N290 C293 1.350 . S
N291 S289 1.610 . S
N291 C292 1.351 . S
C292 C286 1.428 . S
C292 N291 1.351 . S
C292 C293 1.434 . S
C293 C284 1.429 . S
C293 N290 1.350 . S
C293 C292 1.434 . S
C294 C295 1.369 . S
C294 C296 1.419 . S
C294 H298 0.930 . S
C295 C294 1.369 . S
C295 C304 1.429 . S
C296 C294 1.419 . S
C296 C297 1.363 . S
C296 H299 0.929 . S
C297 C296 1.363 . S
C297 C303 1.428 . S
H298 C294 0.930 . S
H299 C296 0.929 . S
S300 N301 1.613 . S
S300 N302 1.610 . S
N301 S300 1.613 . S
N301 C304 1.350 . S
N302 S300 1.610 . S
N302 C303 1.351 . S
C303 C297 1.428 . S
C303 N302 1.351 . S
C303 C304 1.434 . S
C304 C295 1.429 . S
C304 N301 1.350 . S
C304 C303 1.434 . S
C305 C306 1.369 . S
C305 C307 1.419 . S
C305 H309 0.930 . S
C306 C305 1.369 . S
C306 C315 1.429 . S
C307 C305 1.419 . S
C307 C308 1.363 . S
C307 H310 0.929 . S
C308 C307 1.363 . S
C308 C314 1.428 . S
H309 C305 0.930 . S
H310 C307 0.929 . S
S311 N312 1.613 1_556 S
S311 N313 1.610 1_556 S
N312 S311 1.613 1_554 S
N312 C315 1.350 . S
N313 S311 1.610 1_554 S
N313 C314 1.351 . S
C314 C308 1.428 . S
C314 N313 1.351 . S
C314 C315 1.434 . S
C315 C306 1.429 . S
C315 N312 1.350 . S
C315 C314 1.434 . S
C316 C317 1.369 . S
C316 C318 1.419 . S
C316 H320 0.930 . S
C317 C316 1.369 . S
C317 C326 1.429 . S
C318 C316 1.419 . S
C318 C319 1.363 . S
C318 H321 0.929 . S
C319 C318 1.363 . S
C319 C325 1.428 . S
H320 C316 0.930 . S
H321 C318 0.929 . S
S322 N323 1.613 . S
S322 N324 1.610 . S
N323 S322 1.613 . S
N323 C326 1.350 . S
N324 S322 1.610 . S
N324 C325 1.351 . S
C325 C319 1.428 . S
C325 N324 1.351 . S
C325 C326 1.434 . S
C326 C317 1.429 . S
C326 N323 1.350 . S
C326 C325 1.434 . S
C327 C328 1.369 . S
C327 C329 1.419 . S
C327 H331 0.930 . S
C328 C327 1.369 . S
C328 C337 1.429 . S
C329 C327 1.419 . S
C329 C330 1.363 . S
C329 H332 0.929 . S
C330 C329 1.363 . S
C330 C336 1.428 . S
H331 C327 0.930 . S
H332 C329 0.929 . S
S333 N334 1.613 . S
S333 N335 1.610 . S
N334 S333 1.613 . S
N334 C337 1.350 . S
N335 S333 1.610 . S
N335 C336 1.351 . S
C336 C330 1.428 . S
C336 N335 1.351 . S
C336 C337 1.434 . S
C337 C328 1.429 . S
C337 N334 1.350 . S
C337 C336 1.434 . S
C338 C339 1.369 . S
C338 C340 1.419 . S
C338 H342 0.930 . S
C339 C338 1.369 . S
C339 C348 1.429 . S
C340 C338 1.419 . S
C340 C341 1.363 . S
C340 H343 0.929 . S
C341 C340 1.363 . S
C341 C347 1.428 . S
H342 C338 0.930 . S
H343 C340 0.929 . S
S344 N345 1.613 . S
S344 N346 1.610 . S
N345 S344 1.613 . S
N345 C348 1.350 . S
N346 S344 1.610 . S
N346 C347 1.351 . S
C347 C341 1.428 . S
C347 N346 1.351 . S
C347 C348 1.434 . S
C348 C339 1.429 . S
C348 N345 1.350 . S
C348 C347 1.434 . S
C349 C350 1.369 . S
C349 C351 1.419 . S
C349 H353 0.930 . S
C350 C349 1.369 . S
C350 C359 1.429 . S
C351 C349 1.419 . S
C351 C352 1.363 . S
C351 H354 0.929 . S
C352 C351 1.363 . S
C352 C358 1.428 . S
H353 C349 0.930 . S
H354 C351 0.929 . S
S355 N356 1.613 . S
S355 N357 1.610 . S
N356 S355 1.613 . S
N356 C359 1.350 . S
N357 S355 1.610 . S
N357 C358 1.351 . S
C358 C352 1.428 . S
C358 N357 1.351 . S
C358 C359 1.434 . S
C359 C350 1.429 . S
C359 N356 1.350 . S
C359 C358 1.434 . S
C360 C361 1.369 1_554 S
C360 C362 1.419 . S
C360 H364 0.930 . S
C361 C360 1.369 1_556 S
C361 C370 1.429 . S
C362 C360 1.419 . S
C362 C363 1.363 . S
C362 H365 0.929 . S
C363 C362 1.363 . S
C363 C369 1.428 1_554 S
H364 C360 0.930 . S
H365 C362 0.929 . S
S366 N367 1.613 . S
S366 N368 1.610 . S
N367 S366 1.613 . S
N367 C370 1.350 . S
N368 S366 1.610 . S
N368 C369 1.351 . S
C369 C363 1.428 1_556 S
C369 N368 1.351 . S
C369 C370 1.434 . S
C370 C361 1.429 . S
C370 N367 1.350 . S
C370 C369 1.434 . S
C371 C372 1.369 . S
C371 C373 1.419 . S
C371 H375 0.930 . S
C372 C371 1.369 . S
C372 C381 1.429 . S
C373 C371 1.419 . S
C373 C374 1.363 . S
C373 H376 0.929 . S
C374 C373 1.363 . S
C374 C380 1.428 . S
H375 C371 0.930 . S
H376 C373 0.929 . S
S377 N378 1.613 . S
S377 N379 1.610 . S
N378 S377 1.613 . S
N378 C381 1.350 . S
N379 S377 1.610 . S
N379 C380 1.351 . S
C380 C374 1.428 . S
C380 N379 1.351 . S
C380 C381 1.434 . S
C381 C372 1.429 . S
C381 N378 1.350 . S
C381 C380 1.434 . S
C382 C383 1.369 1_554 S
C382 C384 1.419 1_545 S
C382 H386 0.930 . S
C383 C382 1.369 1_556 S
C383 C392 1.429 . S
C384 C382 1.419 1_565 S
C384 C385 1.363 . S
C384 H387 0.929 . S
C385 C384 1.363 . S
C385 C391 1.428 1_554 S
H386 C382 0.930 . S
H387 C384 0.929 . S
S388 N389 1.613 1_565 S
S388 N390 1.610 . S
N389 S388 1.613 1_545 S
N389 C392 1.350 . S
N390 S388 1.610 . S
N390 C391 1.351 . S
C391 C385 1.428 1_556 S
C391 N390 1.351 . S
C391 C392 1.434 1_565 S
C392 C383 1.429 . S
C392 N389 1.350 . S
C392 C391 1.434 1_545 S
C393 C394 1.369 . S
C393 C395 1.419 1_565 S
C393 H397 0.930 . S
C394 C393 1.369 . S
C394 C403 1.429 1_455 S
C395 C393 1.419 1_545 S
C395 C396 1.363 . S
C395 H398 0.929 . S
C396 C395 1.363 . S
C396 C402 1.428 1_455 S
H397 C393 0.930 . S
H398 C395 0.929 . S
S399 N400 1.613 . S
S399 N401 1.610 1_565 S
N400 S399 1.613 . S
N400 C403 1.350 . S
N401 S399 1.610 1_545 S
N401 C402 1.351 . S
C402 C396 1.428 1_655 S
C402 N401 1.351 . S
C402 C403 1.434 1_545 S
C403 C394 1.429 1_655 S
C403 N400 1.350 . S
C403 C402 1.434 1_565 S
C404 C405 1.369 . S
C404 C406 1.419 . S
C404 H408 0.930 1_556 S
C405 C404 1.369 . S
C405 C414 1.429 . S
C406 C404 1.419 . S
C406 C407 1.363 . S
C406 H409 0.929 . S
C407 C406 1.363 . S
C407 C413 1.428 . S
H408 C404 0.930 1_554 S
H409 C406 0.929 . S
S410 N411 1.613 . S
S410 N412 1.610 . S
N411 S410 1.613 . S
N411 C414 1.350 . S
N412 S410 1.610 . S
N412 C413 1.351 . S
C413 C407 1.428 . S
C413 N412 1.351 . S
C413 C414 1.434 . S
C414 C405 1.429 . S
C414 N411 1.350 . S
C414 C413 1.434 . S
C415 C416 1.369 . S
C415 C417 1.419 . S
C415 H419 0.930 . S
C416 C415 1.369 . S
C416 C425 1.429 . S
C417 C415 1.419 . S
C417 C418 1.363 . S
C417 H420 0.929 . S
C418 C417 1.363 . S
C418 C424 1.428 . S
H419 C415 0.930 . S
H420 C417 0.929 . S
S421 N422 1.613 . S
S421 N423 1.610 . S
N422 S421 1.613 . S
N422 C425 1.350 . S
N423 S421 1.610 . S
N423 C424 1.351 . S
C424 C418 1.428 . S
C424 N423 1.351 . S
C424 C425 1.434 . S
C425 C416 1.429 . S
C425 N422 1.350 . S
C425 C424 1.434 . S
C426 C427 1.369 . S
C426 C428 1.419 1_554 S
C426 H430 0.930 1_554 S
C427 C426 1.369 . S
C427 C436 1.429 . S
C428 C426 1.419 1_556 S
C428 C429 1.363 1_556 S
C428 H431 0.929 . S
C429 C428 1.363 1_554 S
C429 C435 1.428 . S
H430 C426 0.930 1_556 S
H431 C428 0.929 . S
S432 N433 1.613 . S
S432 N434 1.610 . S
N433 S432 1.613 . S
N433 C436 1.350 . S
N434 S432 1.610 . S
N434 C435 1.351 . S
C435 C429 1.428 . S
C435 N434 1.351 . S
C435 C436 1.434 . S
C436 C427 1.429 . S
C436 N433 1.350 . S
C436 C435 1.434 . S
C437 C438 1.369 . S
C437 C439 1.419 . S
C437 H441 0.930 . S
C438 C437 1.369 . S
C438 C447 1.429 . S
C439 C437 1.419 . S
C439 C440 1.363 . S
C439 H442 0.929 . S
C440 C439 1.363 . S
C440 C446 1.428 . S
H441 C437 0.930 . S
H442 C439 0.929 . S
S443 N444 1.613 . S
S443 N445 1.610 . S
N444 S443 1.613 . S
N444 C447 1.350 . S
N445 S443 1.610 . S
N445 C446 1.351 . S
C446 C440 1.428 . S
C446 N445 1.351 . S
C446 C447 1.434 . S
C447 C438 1.429 . S
C447 N444 1.350 . S
C447 C446 1.434 . S
C448 C449 1.369 . S
C448 C450 1.419 . S
C448 H452 0.930 . S
C449 C448 1.369 . S
C449 C458 1.429 . S
C450 C448 1.419 . S
C450 C451 1.363 . S
C450 H453 0.929 . S
C451 C450 1.363 . S
C451 C457 1.428 1_556 S
H452 C448 0.930 . S
H453 C450 0.929 . S
S454 N455 1.613 . S
S454 N456 1.610 . S
N455 S454 1.613 . S
N455 C458 1.350 1_554 S
N456 S454 1.610 . S
N456 C457 1.351 . S
C457 C451 1.428 1_554 S
C457 N456 1.351 . S
C457 C458 1.434 1_554 S
C458 C449 1.429 . S
C458 N455 1.350 1_556 S
C458 C457 1.434 1_556 S
C459 C460 1.369 . S
C459 C461 1.419 . S
C459 H463 0.930 . S
C460 C459 1.369 . S
C460 C469 1.429 . S
C461 C459 1.419 . S
C461 C462 1.363 . S
C461 H464 0.929 . S
C462 C461 1.363 . S
C462 C468 1.428 . S
H463 C459 0.930 . S
H464 C461 0.929 . S
S465 N466 1.613 . S
S465 N467 1.610 . S
N466 S465 1.613 . S
N466 C469 1.350 . S
N467 S465 1.610 . S
N467 C468 1.351 . S
C468 C462 1.428 . S
C468 N467 1.351 . S
C468 C469 1.434 . S
C469 C460 1.429 . S
C469 N466 1.350 . S
C469 C468 1.434 . S
C470 C471 1.369 . S
C470 C472 1.419 . S
C470 H474 0.930 . S
C471 C470 1.369 . S
C471 C480 1.429 . S
C472 C470 1.419 . S
C472 C473 1.363 . S
C472 H475 0.929 . S
C473 C472 1.363 . S
C473 C479 1.428 . S
H474 C470 0.930 . S
H475 C472 0.929 . S
S476 N477 1.613 . S
S476 N478 1.610 . S
N477 S476 1.613 . S
N477 C480 1.350 . S
N478 S476 1.610 . S
N478 C479 1.351 . S
C479 C473 1.428 . S
C479 N478 1.351 . S
C479 C480 1.434 . S
C480 C471 1.429 . S
C480 N477 1.350 . S
C480 C479 1.434 . S
C481 C482 1.369 . S
C481 C483 1.419 . S
C481 H485 0.930 . S
C482 C481 1.369 . S
C482 C491 1.429 . S
C483 C481 1.419 . S
C483 C484 1.363 . S
C483 H486 0.929 . S
C484 C483 1.363 . S
C484 C490 1.428 . S
H485 C481 0.930 . S
H486 C483 0.929 . S
S487 N488 1.613 . S
S487 N489 1.610 . S
N488 S487 1.613 . S
N488 C491 1.350 . S
N489 S487 1.610 . S
N489 C490 1.351 . S
C490 C484 1.428 . S
C490 N489 1.351 . S
C490 C491 1.434 . S
C491 C482 1.429 . S
C491 N488 1.350 . S
C491 C490 1.434 . S
C492 C493 1.369 . S
C492 C494 1.419 . S
C492 H496 0.930 . S
C493 C492 1.369 . S
C493 C502 1.429 . S
C494 C492 1.419 . S
C494 C495 1.363 . S
C494 H497 0.929 . S
C495 C494 1.363 . S
C495 C501 1.428 . S
H496 C492 0.930 . S
H497 C494 0.929 . S
S498 N499 1.613 . S
S498 N500 1.610 . S
N499 S498 1.613 . S
N499 C502 1.350 . S
N500 S498 1.610 . S
N500 C501 1.351 . S
C501 C495 1.428 . S
C501 N500 1.351 . S
C501 C502 1.434 . S
C502 C493 1.429 . S
C502 N499 1.350 . S
C502 C501 1.434 . S
C503 C504 1.369 . S
C503 C505 1.419 . S
C503 H507 0.930 . S
C504 C503 1.369 . S
C504 C513 1.429 . S
C505 C503 1.419 . S
C505 C506 1.363 . S
C505 H508 0.929 . S
C506 C505 1.363 . S
C506 C512 1.428 . S
H507 C503 0.930 . S
H508 C505 0.929 . S
S509 N510 1.613 . S
S509 N511 1.610 1_554 S
N510 S509 1.613 . S
N510 C513 1.350 . S
N511 S509 1.610 1_556 S
N511 C512 1.351 1_556 S
C512 C506 1.428 . S
C512 N511 1.351 1_554 S
C512 C513 1.434 . S
C513 C504 1.429 . S
C513 N510 1.350 . S
C513 C512 1.434 . S
C514 C515 1.369 . S
C514 C516 1.419 . S
C514 H518 0.930 . S
C515 C514 1.369 . S
C515 C524 1.429 . S
C516 C514 1.419 . S
C516 C517 1.363 . S
C516 H519 0.929 . S
C517 C516 1.363 . S
C517 C523 1.428 . S
H518 C514 0.930 . S
H519 C516 0.929 . S
S520 N521 1.613 . S
S520 N522 1.610 . S
N521 S520 1.613 . S
N521 C524 1.350 . S
N522 S520 1.610 . S
N522 C523 1.351 . S
C523 C517 1.428 . S
C523 N522 1.351 . S
C523 C524 1.434 . S
C524 C515 1.429 . S
C524 N521 1.350 . S
C524 C523 1.434 . S
C525 C526 1.369 . S
C525 C527 1.419 . S
C525 H529 0.930 . S
C526 C525 1.369 . S
C526 C535 1.429 . S
C527 C525 1.419 . S
C527 C528 1.363 . S
C527 H530 0.929 . S
C528 C527 1.363 . S
C528 C534 1.428 . S
H529 C525 0.930 . S
H530 C527 0.929 . S
S531 N532 1.613 . S
S531 N533 1.610 . S
N532 S531 1.613 . S
N532 C535 1.350 . S
N533 S531 1.610 . S
N533 C534 1.351 . S
C534 C528 1.428 . S
C534 N533 1.351 . S
C534 C535 1.434 . S
C535 C526 1.429 . S
C535 N532 1.350 . S
C535 C534 1.434 . S
C536 C537 1.369 . S
C536 C538 1.419 . S
C536 H540 0.930 . S
C537 C536 1.369 . S
C537 C546 1.429 . S
C538 C536 1.419 . S
C538 C539 1.363 . S
C538 H541 0.929 . S
C539 C538 1.363 . S
C539 C545 1.428 . S
H540 C536 0.930 . S
H541 C538 0.929 . S
S542 N543 1.613 . S
S542 N544 1.610 . S
N543 S542 1.613 . S
N543 C546 1.350 . S
N544 S542 1.610 . S
N544 C545 1.351 . S
C545 C539 1.428 . S
C545 N544 1.351 . S
C545 C546 1.434 . S
C546 C537 1.429 . S
C546 N543 1.350 . S
C546 C545 1.434 . S
C547 C548 1.369 . S
C547 C549 1.419 . S
C547 H551 0.930 1_455 S
C548 C547 1.369 . S
C548 C557 1.429 . S
C549 C547 1.419 . S
C549 C550 1.363 . S
C549 H552 0.929 . S
C550 C549 1.363 . S
C550 C556 1.428 . S
H551 C547 0.930 1_655 S
H552 C549 0.929 . S
S553 N554 1.613 . S
S553 N555 1.610 . S
N554 S553 1.613 . S
N554 C557 1.350 . S
N555 S553 1.610 . S
N555 C556 1.351 . S
C556 C550 1.428 . S
C556 N555 1.351 . S
C556 C557 1.434 . S
C557 C548 1.429 . S
C557 N554 1.350 . S
C557 C556 1.434 . S
C558 C559 1.369 . S
C558 C560 1.419 . S
C558 H562 0.930 . S
C559 C558 1.369 . S
C559 C568 1.429 . S
C560 C558 1.419 . S
C560 C561 1.363 . S
C560 H563 0.929 . S
C561 C560 1.363 . S
C561 C567 1.428 . S
H562 C558 0.930 . S
H563 C560 0.929 . S
S564 N565 1.613 . S
S564 N566 1.610 . S
N565 S564 1.613 . S
N565 C568 1.350 . S
N566 S564 1.610 . S
N566 C567 1.351 . S
C567 C561 1.428 . S
C567 N566 1.351 . S
C567 C568 1.434 . S
C568 C559 1.429 . S
C568 N565 1.350 . S
C568 C567 1.434 . S
C569 C570 1.369 . S
C569 C571 1.419 . S
C569 H573 0.930 . S
C570 C569 1.369 . S
C570 C579 1.429 . S
C571 C569 1.419 . S
C571 C572 1.363 . S
C571 H574 0.929 . S
C572 C571 1.363 . S
C572 C578 1.428 . S
H573 C569 0.930 . S
H574 C571 0.929 . S
S575 N576 1.613 . S
S575 N577 1.615 . S
N576 S575 1.613 . S
N576 C579 1.350 1_655 S
N577 S575 1.615 . S
N577 C578 1.347 1_655 S
C578 C572 1.428 . S
C578 N577 1.347 1_455 S
C578 C579 1.434 . S
C579 C570 1.429 . S
C579 N576 1.350 1_455 S
C579 C578 1.434 . S
C273 C124 0.981 . S
C275 C15 0.995 . S
C284 C90 0.984 . S
C286 C49 0.997 . S
C295 C56 2.370 . S
C297 C83 2.373 . S
C306 C22 2.370 . S
C308 C117 2.374 . S
C317 C151 0.984 . S
C319 C260 0.982 . S
C328 C185 0.992 . S
C330 C226 0.981 . S
C339 C192 2.374 . S
C341 C219 2.376 . S
C350 C158 2.374 . S
C352 C253 2.371 . S
C361 C74 1.508 . S
C363 C28 1.508 . S
C372 C108 1.508 . S
C374 C62 1.508 . S
C383 C210 1.507 . S
C385 C164 1.507 . S
C394 C244 1.508 . S
C396 C198 1.508 . S
C405 C1 1.265 . S
C407 C176 1.339 . S
C416 C35 1.276 . S
C418 C142 1.338 . S
C427 C266 1.337 . S
C429 C71 1.269 . S
C438 C232 1.340 . S
C440 C105 1.266 . S
C449 C40 1.341 . S
C451 C137 1.271 . S
C460 C6 1.342 . S
C462 C171 1.272 . S
C471 C130 1.341 . S
C473 C207 1.267 . S
C482 C96 1.337 . S
C484 C241 1.272 . S
C493 C3 1.577 . S
C495 C17 1.727 . S
C504 C37 1.580 . S
C506 C51 1.723 1_554 S
C515 C69 1.567 . S
C517 C85 1.722 . S
C526 C103 1.566 . S
C528 C119 1.722 1_556 S
C537 C139 1.570 . S
C539 C153 1.721 . S
C548 C173 1.567 . S
C550 C187 1.722 1_554 S
C559 C205 1.570 . S
C561 C221 1.721 . S
C570 C239 1.579 . S
C572 C255 1.726 1_556 S
