# Generated by pormake.
# Topology lon, (4)-cn, num edge types: 1
# Building blocks:
#     Node 0, Type 0, BuildingBlock: ICAMEG_clean_sbu_1, # of connection points: 4
#     Node 1, Type 0, BuildingBlock: ICAMEG_clean_sbu_1, # of connection points: 4
#     Node 2, Type 0, BuildingBlock: ICAMEG_clean_sbu_1, # of connection points: 4
#     Node 3, Type 0, BuildingBlock: ICAMEG_clean_sbu_1, # of connection points: 4
#     Edge 4, Type (0, 0), BuildingBlock: CIFDUS_clean_linker_0, # of connection points: 2
#     Edge 5, Type (0, 0), BuildingBlock: CIFDUS_clean_linker_0, # of connection points: 2
#     Edge 6, Type (0, 0), BuildingBlock: CIFDUS_clean_linker_0, # of connection points: 2
#     Edge 7, Type (0, 0), BuildingBlock: CIFDUS_clean_linker_0, # of connection points: 2
#     Edge 8, Type (0, 0), BuildingBlock: CIFDUS_clean_linker_0, # of connection points: 2
#     Edge 9, Type (0, 0), BuildingBlock: CIFDUS_clean_linker_0, # of connection points: 2
#     Edge 10, Type (0, 0), BuildingBlock: CIFDUS_clean_linker_0, # of connection points: 2
#     Edge 11, Type (0, 0), BuildingBlock: CIFDUS_clean_linker_0, # of connection points: 2
# Relax obj value: 0.244
# Max RMSD: 0.268
# Mean RMSD: 0.258
data_MOF--net-lon--node1-ICAMEG_clean_sbu_1--edge1-CIFDUS_clean_linker_0
_symmetry_space_group_name_H-M    P1
_symmetry_Int_Tables_number       1
_symmetry_cell_setting            triclinic
loop_
_symmetry_equiv_pos_as_xyz
'x, y, z'
_cell_length_a     19.626226
_cell_length_b     22.965811
_cell_length_c     39.219347
_cell_angle_alpha  93.725478
_cell_angle_beta   89.528069
_cell_angle_gamma 115.66649
loop_
_atom_site_label
_atom_site_type_symbol
_atom_site_fract_x
_atom_site_fract_y
_atom_site_fract_z
_atom_type_partial_charge
Co0 Co 0.393 0.73392 0.03961 0.0
Co1 Co 0.35122 0.6383 0.10722 0.0
O2 O 0.39961 0.72384 0.08859 0.0
C3 C 0.5501 0.82261 0.02261 0.0
O4 O 0.54772 0.77823 0.99913 0.0
C5 C 0.33449 0.73223 0.16092 0.0
O6 O 0.35944 0.77878 0.13991 0.0
O7 O 0.25209 0.62434 0.08706 0.0
O8 O 0.28961 0.65928 0.0351 0.0
H9 H 0.18169 0.39942 0.10048 0.0
H10 H 0.43205 0.85037 0.0871 0.0
O11 O 0.49551 0.80987 0.04319 0.0
H12 H 0.19588 0.81772 0.02834 0.0
H13 H 0.42011 0.85928 0.9353 0.0
H14 H 0.34673 0.64327 0.97787 0.0
H15 H 0.25499 0.74415 1.0146 0.0
H16 H 0.42708 0.84665 0.99692 0.0
O17 O 0.32688 0.67557 0.15129 0.0
H18 H 0.24574 0.50769 0.07826 0.0
H19 H 0.35062 0.58696 0.1754 0.0
H20 H 0.33873 0.65373 0.91601 0.0
H21 H 0.37577 0.92603 0.10107 0.0
H22 H 0.37564 0.76236 0.89436 0.0
H23 H 0.25654 0.90976 0.07175 0.0
O24 O 0.44044 0.67361 0.02938 0.0
H25 H 0.60012 0.76644 0.1699 0.0
H26 H 0.43643 0.55802 0.10873 0.0
H27 H 0.56015 0.57451 0.13201 0.0
H28 H 0.64281 0.67921 0.16306 0.0
H29 H 0.47662 0.7483 0.1458 0.0
H30 H 0.2872 0.47961 0.19873 0.0
H31 H 0.20228 0.38484 0.16113 0.0
O32 O 0.37395 0.59684 0.06467 0.0
C33 C 0.23799 0.62781 0.05576 0.0
C34 C 0.21874 0.4403 0.11709 0.0
C35 C 0.27786 0.48532 0.17225 0.0
N36 N 0.30227 0.55355 0.12542 0.0
C37 C 0.25531 0.50171 0.10463 0.0
C38 C 0.31346 0.54604 0.1589 0.0
C39 C 0.23025 0.43217 0.15113 0.0
C40 C 0.38044 0.8431 0.07404 0.0
N41 N 0.3466 0.79235 0.05027 0.0
C42 C 0.34869 0.88604 0.08215 0.0
C43 C 0.28177 0.87685 0.06572 0.0
C44 C 0.24763 0.82515 0.04143 0.0
C45 C 0.28105 0.78322 0.03396 0.0
C46 C 0.40385 0.81168 0.94441 0.0
C47 C 0.36291 0.69071 0.96865 0.0
C48 C 0.40767 0.8042 0.97929 0.0
N49 N 0.38742 0.74422 0.99102 0.0
C50 C 0.35823 0.69633 0.9336 0.0
C51 C 0.37892 0.75729 0.92146 0.0
C52 C 0.41813 0.61671 0.03953 0.0
C53 C 0.56436 0.72042 0.15666 0.0
C54 C 0.47195 0.60376 0.12221 0.0
C55 C 0.542 0.61278 0.13535 0.0
C56 C 0.58835 0.67152 0.15276 0.0
N57 N 0.44834 0.65171 0.12644 0.0
C58 C 0.49395 0.70969 0.14313 0.0
Co59 Co 0.60891 0.32049 0.54433 0.0
Co60 Co 0.71176 0.30487 0.60981 0.0
O61 O 0.63744 0.33278 0.59296 0.0
C62 C 0.62029 0.45022 0.53133 0.0
O63 O 0.6703 0.45373 0.50813 0.0
C64 C 0.59292 0.27503 0.66398 0.0
O65 O 0.54321 0.27388 0.64152 0.0
O66 O 0.64714 0.21542 0.59041 0.0
O67 O 0.62243 0.2382 0.53855 0.0
H68 H 0.87571 0.18699 0.59918 0.0
H69 H 0.50353 0.33969 0.59358 0.0
O70 O 0.59269 0.40137 0.54945 0.0
H71 H 0.35473 0.12687 0.53295 0.0
H72 H 0.45462 0.32045 0.44214 0.0
H73 H 0.67226 0.28695 0.48142 0.0
H74 H 0.48764 0.19202 0.51861 0.0
H75 H 0.48819 0.33283 0.50351 0.0
O76 O 0.65899 0.28395 0.65482 0.0
H77 H 0.78493 0.22577 0.57898 0.0
H78 H 0.79192 0.31993 0.67666 0.0
H79 H 0.64046 0.27375 0.41981 0.0
H80 H 0.37016 0.2767 0.60818 0.0
H81 H 0.53094 0.29057 0.39982 0.0
H82 H 0.2949 0.16925 0.57793 0.0
O83 O 0.7169 0.37261 0.53369 0.0
H84 H 0.75639 0.51664 0.67263 0.0
H85 H 0.87678 0.39427 0.60989 0.0
H86 H 0.9552 0.50645 0.63222 0.0
H87 H 0.89508 0.56839 0.66403 0.0
H88 H 0.67994 0.40464 0.64938 0.0
H89 H 0.8821 0.28159 0.698 0.0
H90 H 0.92491 0.2149 0.6591 0.0
O91 O 0.77046 0.32684 0.56623 0.0
C92 C 0.62308 0.19809 0.55955 0.0
C93 C 0.85766 0.21619 0.61635 0.0
C94 C 0.86116 0.2692 0.67182 0.0
N95 N 0.78356 0.27546 0.62651 0.0
C96 C 0.80642 0.23842 0.60503 0.0
C97 C 0.80988 0.2906 0.65961 0.0
C98 C 0.88519 0.23181 0.64998 0.0
C99 C 0.47104 0.29327 0.58005 0.0
N100 N 0.50374 0.2695 0.55544 0.0
C101 C 0.39558 0.25768 0.58854 0.0
C102 C 0.35342 0.19737 0.5716 0.0
C103 C 0.38699 0.17351 0.54641 0.0
C104 C 0.46255 0.21048 0.53858 0.0
C105 C 0.50241 0.31291 0.45053 0.0
C106 C 0.6244 0.29416 0.47292 0.0
C107 C 0.52172 0.31987 0.48525 0.0
N108 N 0.582 0.31037 0.49604 0.0
C109 C 0.60671 0.28669 0.438 0.0
C110 C 0.54527 0.29615 0.42681 0.0
C111 C 0.77386 0.36396 0.54272 0.0
C112 C 0.78329 0.49009 0.65891 0.0
C113 C 0.85006 0.42093 0.62349 0.0
C114 C 0.89484 0.48443 0.63619 0.0
C115 C 0.86108 0.51913 0.65404 0.0
N116 N 0.77378 0.39265 0.62844 0.0
C117 C 0.74028 0.42652 0.64578 0.0
Co118 Co 0.30898 0.712 0.48717 0.0
Co119 Co 0.41648 0.73632 0.41606 0.0
O120 O 0.31738 0.69918 0.43764 0.0
C121 C 0.20817 0.57893 0.50537 0.0
O122 O 0.26327 0.5839 0.52587 0.0
C123 C 0.30414 0.73609 0.36294 0.0
O124 O 0.24733 0.7118 0.38366 0.0
O125 O 0.43253 0.8237 0.43532 0.0
O126 O 0.39837 0.8 0.48917 0.0
H127 H 0.69525 0.88122 0.41448 0.0
H128 H 0.17252 0.67734 0.44358 0.0
O129 O 0.21806 0.62488 0.48631 0.0
H130 H 0.21995 0.88734 0.50344 0.0
H131 H 0.17003 0.70287 0.5969 0.0
H132 H 0.4187 0.75797 0.5454 0.0
H133 H 0.30281 0.83458 0.51408 0.0
H134 H 0.18077 0.68925 0.53449 0.0
O135 O 0.37145 0.75009 0.37293 0.0
H136 H 0.56997 0.83015 0.4405 0.0
H137 H 0.47363 0.72665 0.34596 0.0
H138 H 0.41058 0.77262 0.60793 0.0
H139 H 0.08763 0.72806 0.4325 0.0
H140 H 0.28553 0.74494 0.63407 0.0
H141 H 0.11125 0.83394 0.46247 0.0
O142 O 0.37757 0.67028 0.49418 0.0
H143 H 0.26387 0.51101 0.36217 0.0
H144 H 0.51281 0.66544 0.4102 0.0
H145 H 0.49384 0.55629 0.38878 0.0
H146 H 0.36875 0.47821 0.36427 0.0
H147 H 0.28479 0.61998 0.38443 0.0
H148 H 0.59771 0.77717 0.31885 0.0
H149 H 0.70972 0.85481 0.35322 0.0
O150 O 0.46717 0.72354 0.45742 0.0
C151 C 0.43172 0.8408 0.46688 0.0
C152 C 0.64691 0.84731 0.39926 0.0
C153 C 0.59215 0.789 0.34558 0.0
N154 N 0.51458 0.77511 0.39488 0.0
C155 C 0.57584 0.8181 0.41389 0.0
C156 C 0.52195 0.76073 0.36106 0.0
C157 C 0.65497 0.83253 0.36488 0.0
C158 C 0.18302 0.72328 0.45682 0.0
N159 N 0.24275 0.75297 0.47933 0.0
C160 C 0.13482 0.75183 0.4504 0.0
C161 C 0.14814 0.81125 0.4672 0.0
C162 C 0.20915 0.84126 0.49016 0.0
C163 C 0.25614 0.81127 0.49595 0.0
C164 C 0.22485 0.71518 0.58582 0.0
C165 C 0.36412 0.746 0.55658 0.0
C166 C 0.2313 0.70757 0.5505 0.0
N167 N 0.30038 0.72304 0.53631 0.0
C168 C 0.35986 0.75432 0.592 0.0
C169 C 0.28967 0.73878 0.60665 0.0
C170 C 0.44302 0.68611 0.48187 0.0
C171 C 0.31888 0.54481 0.37246 0.0
C172 C 0.4582 0.63203 0.39953 0.0
C173 C 0.44782 0.57014 0.38744 0.0
C174 C 0.37767 0.52637 0.37371 0.0
N175 N 0.40058 0.65024 0.39785 0.0
C176 C 0.33133 0.60709 0.38487 0.0
Co177 Co 0.64645 0.30183 1.00368 0.0
Co178 Co 0.73111 0.36311 0.92807 0.0
O179 O 0.66978 0.29045 0.9556 0.0
C180 C 0.70077 0.19749 1.00401 0.0
O181 O 0.74969 0.22405 0.98016 0.0
C182 C 0.63369 0.33683 0.86577 0.0
O183 O 0.63131 0.39257 0.87297 0.0
O184 O 0.66513 0.40749 0.94015 0.0
O185 O 0.63036 0.3794 0.99371 0.0
H186 H 0.87309 0.59783 0.90467 0.0
H187 H 0.56339 0.17844 0.96224 0.0
O188 O 0.65839 0.22312 1.0153 0.0
H189 H 0.36681 0.23952 1.00794 0.0
H190 H 0.53031 0.22803 0.11743 0.0
H191 H 0.68975 0.41561 0.05311 0.0
H192 H 0.50141 0.30731 0.02262 0.0
H193 H 0.55664 0.21301 0.05675 0.0
O194 O 0.6654 0.31555 0.8868 0.0
H195 H 0.79669 0.506 0.93881 0.0
H196 H 0.79606 0.37312 0.85814 0.0
H197 H 0.66399 0.4329 0.11367 0.0
H198 H 0.42938 0.10857 0.94727 0.0
H199 H 0.58378 0.33866 0.14624 0.0
H200 H 0.33001 0.13914 0.97006 0.0
O201 O 0.75568 0.3567 1.01506 0.0
H202 H 0.78262 0.17334 0.88915 0.0
H203 H 0.89816 0.40442 0.92896 0.0
H204 H 0.97996 0.34977 0.91576 0.0
H205 H 0.92227 0.23342 0.89552 0.0
H206 H 0.70279 0.22958 0.90328 0.0
H207 H 0.87207 0.46344 0.82307 0.0
H208 H 0.91123 0.5768 0.84633 0.0
O209 O 0.79923 0.41088 0.96806 0.0
C210 C 0.63394 0.41238 0.9682 0.0
C211 C 0.85628 0.54865 0.89423 0.0
C212 C 0.85571 0.47324 0.84843 0.0
N213 N 0.79153 0.43424 0.90045 0.0
C214 C 0.81295 0.49646 0.91343 0.0
C215 C 0.81249 0.42228 0.86839 0.0
C216 C 0.87767 0.53682 0.8615 0.0
C217 C 0.52051 0.19215 0.97219 0.0
N218 N 0.54033 0.24755 0.99281 0.0
C219 C 0.4447 0.15235 0.96365 0.0
C220 C 0.38898 0.16953 0.97645 0.0
C221 C 0.40958 0.22587 0.99765 0.0
C222 C 0.48594 0.26441 1.00564 0.0
C223 C 0.56527 0.26949 0.1035 0.0
C224 C 0.65435 0.37442 0.06705 0.0
C225 C 0.58067 0.26127 0.06916 0.0
N226 N 0.62433 0.31347 0.05132 0.0
C227 C 0.64017 0.38448 0.10137 0.0
C228 C 0.59524 0.33158 0.11964 0.0
C229 C 0.80709 0.40096 0.9991 0.0
C230 C 0.80845 0.22409 0.89786 0.0
C231 C 0.87249 0.35366 0.92055 0.0
C232 C 0.91917 0.32303 0.91291 0.0
C233 C 0.88678 0.25779 0.9015 0.0
N234 N 0.79566 0.32031 0.91692 0.0
C235 C 0.76354 0.25631 0.90574 0.0
H236 H 0.23277 0.65805 0.20601 0.0
H237 H 0.42737 0.84112 0.1985 0.0
H238 H 0.43283 0.861 0.26067 0.0
H239 H 0.38902 0.82146 0.31754 0.0
H240 H 0.18857 0.6426 0.32502 0.0
H241 H 0.17776 0.62626 0.26265 0.0
C242 C 0.27547 0.70274 0.21804 0.0
C243 C 0.32982 0.74791 0.1978 0.0
C244 C 0.27728 0.71449 0.25379 0.0
C245 C 0.38466 0.80583 0.21356 0.0
C246 C 0.38808 0.81704 0.24912 0.0
C247 C 0.3421 0.77968 0.30542 0.0
C248 C 0.28973 0.73327 0.32577 0.0
C249 C 0.33564 0.77111 0.26954 0.0
C250 C 0.22912 0.67933 0.30987 0.0
C251 C 0.22332 0.66968 0.2742 0.0
H252 H 0.64996 0.2335 0.71488 0.0
H253 H 0.50495 0.32572 0.69614 0.0
H254 H 0.49927 0.34887 0.75763 0.0
H255 H 0.54701 0.35302 0.81636 0.0
H256 H 0.68674 0.25538 0.83474 0.0
H257 H 0.68201 0.22357 0.77405 0.0
C258 C 0.616 0.25761 0.72434 0.0
C259 C 0.57844 0.27832 0.70102 0.0
C260 C 0.61242 0.27021 0.75972 0.0
C261 C 0.53415 0.30905 0.71358 0.0
C262 C 0.53131 0.32271 0.74875 0.0
C263 C 0.57522 0.32376 0.80715 0.0
C264 C 0.61786 0.30739 0.83015 0.0
C265 C 0.57186 0.30501 0.77203 0.0
C266 C 0.65348 0.26885 0.81777 0.0
C267 C 0.65127 0.25088 0.78294 0.0
H268 H 0.54247 0.64249 0.99923 0.0
H269 H 0.35088 0.48604 0.04091 0.0
H270 H 0.39756 0.40904 0.0192 0.0
H271 H 0.49662 0.38664 0.99273 0.0
H272 H 0.69157 0.53974 0.95226 0.0
H273 H 0.63901 0.61725 0.96811 0.0
C274 C 0.51049 0.59144 1.00309 0.0
C275 C 0.44362 0.57043 0.02211 0.0
C276 C 0.53835 0.54682 0.99083 0.0
C277 C 0.40293 0.50397 0.02683 0.0
C278 C 0.42949 0.45966 1.01438 0.0
C279 C 0.52778 0.4369 0.98748 0.0
C280 C 0.59849 0.45765 0.97213 0.0
C281 C 0.49789 0.48074 0.99716 0.0
C282 C 0.63697 0.52262 0.96419 0.0
C283 C 0.60711 0.56694 0.97348 0.0
H284 H 0.07331 0.5697 0.481 0.0
H285 H 0.16978 0.46947 0.53928 0.0
H286 H 0.04349 0.39037 0.55318 0.0
H287 H 0.9065 0.3552 0.55316 0.0
H288 H 0.80956 0.45724 0.49658 0.0
H289 H 0.93474 0.52892 0.47724 0.0
C290 C 0.06676 0.52993 0.49624 0.0
C291 C 0.13127 0.52596 0.50923 0.0
C292 C 0.99369 0.48498 0.50469 0.0
C293 C 0.12139 0.4741 0.52907 0.0
C294 C 0.04905 0.4288 0.53712 0.0
C295 C 0.91239 0.39274 0.53638 0.0
C296 C 0.84829 0.4012 0.52691 0.0
C297 C 0.98487 0.43467 0.52578 0.0
C298 C 0.85753 0.44965 0.50464 0.0
C299 C 0.92936 0.49096 0.4936 0.0
H300 H 0.72892 0.10147 0.97093 0.0
H301 H 0.64055 0.14965 0.06415 0.0
H302 H 0.59603 0.03901 0.08065 0.0
H303 H 0.5675 0.92613 0.0654 0.0
H304 H 0.6496 0.87481 0.97118 0.0
H305 H 0.71276 0.98887 0.95885 0.0
C306 C 0.70146 0.088 0.99518 0.0
C307 C 0.68721 0.13359 0.01603 0.0
C308 C 0.67437 0.02347 1.00431 0.0
C309 C 0.6513 0.11532 0.04737 0.0
C310 C 0.62579 0.05198 0.05688 0.0
C311 C 0.60038 0.93982 0.04245 0.0
C312 C 0.60276 0.89165 0.01907 0.0
C313 C 0.6347 1.00519 0.03504 0.0
C314 C 0.64642 0.91066 0.98965 0.0
C315 C 0.68217 0.97598 0.98241 0.0
H316 H 0.67104 0.56436 0.50106 0.0
H317 H 0.48965 0.43828 0.56214 0.0
H318 H 0.42171 0.50424 0.55517 0.0
H319 H 0.40759 0.5908 0.52656 0.0
H320 H 0.58972 0.71669 0.46558 0.0
H321 H 0.66334 0.65811 0.47799 0.0
C322 C 0.61713 0.55178 0.51325 0.0
C323 C 0.58528 0.496 0.53175 0.0
C324 C 0.57795 0.58962 0.50893 0.0
C325 C 0.51564 0.48086 0.54769 0.0
C326 C 0.47644 0.51842 0.54358 0.0
C327 C 0.46383 0.60617 0.51642 0.0
C328 C 0.4921 0.65742 0.49458 0.0
C329 C 0.50611 0.57192 0.52348 0.0
C330 C 0.56564 0.67683 0.48201 0.0
C331 C 0.60801 0.64329 0.48906 0.0
H332 H 0.11208 0.54117 0.08715 0.0
H333 H 0.18656 0.63307 0.99227 0.0
H334 H 0.05998 0.5747 0.96792 0.0
H335 H 0.92964 0.49598 0.97223 0.0
H336 H 0.85271 0.39776 0.06504 0.0
H337 H 0.97836 0.46074 0.09144 0.0
C338 C 0.10052 0.54871 0.06123 0.0
C339 C 0.15929 0.59218 0.04183 0.0
C340 C 0.02707 0.51379 0.04686 0.0
C341 C 0.14298 0.60063 1.00811 0.0
C342 C 0.07034 0.56705 0.99399 0.0
C343 C 0.93981 0.48798 0.99826 0.0
C344 C 0.88145 0.44159 0.01643 0.0
C345 C 1.0122 0.52328 1.013 0.0
C346 C 0.89637 0.4329 0.0503 0.0
C347 C 0.96837 0.46885 0.06542 0.0
H348 H 0.59224 0.14572 0.49378 0.0
H349 H 0.58504 0.09347 0.598 0.0
H350 H 0.52597 0.97885 0.57853 0.0
H351 H 0.47218 0.89328 0.53221 0.0
H352 H 0.4827 0.94554 0.42786 0.0
H353 H 0.54457 0.06019 0.4472 0.0
C354 C 0.57821 0.10936 0.5123 0.0
C355 C 0.59293 0.12853 0.5474 0.0
C356 C 0.54442 0.04339 0.50092 0.0
C357 C 0.57467 0.08044 0.57086 0.0
C358 C 0.54053 0.01474 0.55975 0.0
C359 C 0.48809 0.92966 0.51363 0.0
C360 C 0.47219 0.91052 0.47858 0.0
C361 C 0.52442 0.99563 0.52489 0.0
C362 C 0.49408 0.95861 0.45495 0.0
C363 C 0.52942 0.0243 0.466 0.0
loop_
_geom_bond_atom_site_label_1
_geom_bond_atom_site_label_2
_geom_bond_distance
_geom_bond_site_symmetry_2
_ccdc_geom_bond_type
Co0 O2 2.143 . S
Co0 O8 2.074 . S
Co0 O11 2.093 . S
Co0 O24 2.097 . S
Co0 N41 2.151 . S
Co0 N49 2.214 1_554 S
Co1 O2 2.160 . S
Co1 O7 2.058 . S
Co1 O17 2.057 . S
Co1 O32 2.037 . S
Co1 N36 2.145 . S
Co1 N57 2.257 . S
O2 Co0 2.143 . S
O2 Co1 2.160 . S
C3 O4 1.278 . S
C3 O11 1.224 . S
O4 C3 1.278 . S
C5 O6 1.245 . S
C5 O17 1.232 . S
O6 C5 1.245 . S
O7 Co1 2.058 . S
O7 C33 1.269 . S
O8 Co0 2.074 . S
O8 C33 1.257 . S
H9 C34 0.930 . S
H10 C40 0.930 . S
O11 Co0 2.093 . S
O11 C3 1.224 . S
H12 C44 0.929 . S
H13 C46 0.930 . S
H14 C47 0.930 . S
H15 C45 0.916 1_556 S
H16 C48 0.928 . S
O17 Co1 2.057 . S
O17 C5 1.232 . S
H18 C37 0.929 . S
H19 C38 0.929 . S
H20 C50 0.931 . S
H21 C42 0.929 . S
H22 C51 0.930 . S
H23 C43 0.931 . S
O24 Co0 2.097 . S
O24 C52 1.214 . S
H25 C53 0.929 . S
H26 C54 0.929 . S
H27 C55 0.930 . S
H28 C56 0.929 . S
H29 C58 0.930 . S
H30 C35 0.930 . S
H31 C39 0.930 . S
O32 Co1 2.037 . S
O32 C52 1.234 . S
C33 O7 1.269 . S
C33 O8 1.257 . S
C34 H9 0.930 . S
C34 C37 1.388 . S
C34 C39 1.418 . S
C35 H30 0.930 . S
C35 C38 1.404 . S
C35 C39 1.353 . S
N36 Co1 2.145 . S
N36 C37 1.397 . S
N36 C38 1.334 . S
C37 H18 0.929 . S
C37 C34 1.388 . S
C37 N36 1.397 . S
C38 H19 0.929 . S
C38 C35 1.404 . S
C38 N36 1.334 . S
C39 H31 0.930 . S
C39 C34 1.418 . S
C39 C35 1.353 . S
C40 H10 0.930 . S
C40 N41 1.330 . S
C40 C42 1.446 . S
N41 Co0 2.151 . S
N41 C40 1.330 . S
N41 C45 1.418 . S
C42 H21 0.929 . S
C42 C40 1.446 . S
C42 C43 1.332 . S
C43 H23 0.931 . S
C43 C42 1.332 . S
C43 C44 1.267 . S
C44 H12 0.929 . S
C44 C43 1.267 . S
C44 C45 1.251 . S
C45 H15 0.916 1_554 S
C45 N41 1.418 . S
C45 C44 1.251 . S
C46 H13 0.930 . S
C46 C48 1.406 . S
C46 C51 1.261 . S
C47 H14 0.930 . S
C47 N49 1.325 . S
C47 C50 1.357 . S
C48 H16 0.928 . S
C48 C46 1.406 . S
C48 N49 1.261 . S
N49 Co0 2.214 1_556 S
N49 C47 1.325 . S
N49 C48 1.261 . S
C50 H20 0.931 . S
C50 C47 1.357 . S
C50 C51 1.312 . S
C51 H22 0.930 . S
C51 C46 1.261 . S
C51 C50 1.312 . S
C52 O24 1.214 . S
C52 O32 1.234 . S
C53 H25 0.929 . S
C53 C56 1.391 . S
C53 C58 1.391 . S
C54 H26 0.929 . S
C54 C55 1.390 . S
C54 N57 1.391 . S
C55 H27 0.930 . S
C55 C54 1.390 . S
C55 C56 1.392 . S
C56 H28 0.929 . S
C56 C53 1.391 . S
C56 C55 1.392 . S
N57 Co1 2.257 . S
N57 C54 1.391 . S
N57 C58 1.388 . S
C58 H29 0.930 . S
C58 C53 1.391 . S
C58 N57 1.388 . S
Co59 O61 2.143 . S
Co59 O67 2.074 . S
Co59 O70 2.093 . S
Co59 O83 2.097 . S
Co59 N100 2.151 . S
Co59 N108 2.214 . S
Co60 O61 2.160 . S
Co60 O66 2.058 . S
Co60 O76 2.057 . S
Co60 O91 2.037 . S
Co60 N95 2.145 . S
Co60 N116 2.257 . S
O61 Co59 2.143 . S
O61 Co60 2.160 . S
C62 O63 1.278 . S
C62 O70 1.224 . S
O63 C62 1.278 . S
C64 O65 1.245 . S
C64 O76 1.232 . S
O65 C64 1.245 . S
O66 Co60 2.058 . S
O66 C92 1.269 . S
O67 Co59 2.074 . S
O67 C92 1.257 . S
H68 C93 0.930 . S
H69 C99 0.930 . S
O70 Co59 2.093 . S
O70 C62 1.224 . S
H71 C103 0.929 . S
H72 C105 0.930 . S
H73 C106 0.930 . S
H74 C104 0.929 . S
H75 C107 0.928 . S
O76 Co60 2.057 . S
O76 C64 1.232 . S
H77 C96 0.929 . S
H78 C97 0.929 . S
H79 C109 0.931 . S
H80 C101 0.929 . S
H81 C110 0.930 . S
H82 C102 0.931 . S
O83 Co59 2.097 . S
O83 C111 1.214 . S
H84 C112 0.929 . S
H85 C113 0.929 . S
H86 C114 0.930 . S
H87 C115 0.929 . S
H88 C117 0.930 . S
H89 C94 0.930 . S
H90 C98 0.930 . S
O91 Co60 2.037 . S
O91 C111 1.234 . S
C92 O66 1.269 . S
C92 O67 1.257 . S
C93 H68 0.930 . S
C93 C96 1.388 . S
C93 C98 1.418 . S
C94 H89 0.930 . S
C94 C97 1.404 . S
C94 C98 1.353 . S
N95 Co60 2.145 . S
N95 C96 1.397 . S
N95 C97 1.334 . S
C96 H77 0.929 . S
C96 C93 1.388 . S
C96 N95 1.397 . S
C97 H78 0.929 . S
C97 C94 1.404 . S
C97 N95 1.334 . S
C98 H90 0.930 . S
C98 C93 1.418 . S
C98 C94 1.353 . S
C99 H69 0.930 . S
C99 N100 1.330 . S
C99 C101 1.446 . S
N100 Co59 2.151 . S
N100 C99 1.330 . S
N100 C104 1.418 . S
C101 H80 0.929 . S
C101 C99 1.446 . S
C101 C102 1.332 . S
C102 H82 0.931 . S
C102 C101 1.332 . S
C102 C103 1.267 . S
C103 H71 0.929 . S
C103 C102 1.267 . S
C103 C104 1.251 . S
C104 H74 0.929 . S
C104 N100 1.418 . S
C104 C103 1.251 . S
C105 H72 0.930 . S
C105 C107 1.406 . S
C105 C110 1.261 . S
C106 H73 0.930 . S
C106 N108 1.325 . S
C106 C109 1.357 . S
C107 H75 0.928 . S
C107 C105 1.406 . S
C107 N108 1.261 . S
N108 Co59 2.214 . S
N108 C106 1.325 . S
N108 C107 1.261 . S
C109 H79 0.931 . S
C109 C106 1.357 . S
C109 C110 1.312 . S
C110 H81 0.930 . S
C110 C105 1.261 . S
C110 C109 1.312 . S
C111 O83 1.214 . S
C111 O91 1.234 . S
C112 H84 0.929 . S
C112 C115 1.391 . S
C112 C117 1.391 . S
C113 H85 0.929 . S
C113 C114 1.390 . S
C113 N116 1.391 . S
C114 H86 0.930 . S
C114 C113 1.390 . S
C114 C115 1.392 . S
C115 H87 0.929 . S
C115 C112 1.391 . S
C115 C114 1.392 . S
N116 Co60 2.257 . S
N116 C113 1.391 . S
N116 C117 1.388 . S
C117 H88 0.930 . S
C117 C112 1.391 . S
C117 N116 1.388 . S
Co118 O120 2.143 . S
Co118 O126 2.074 . S
Co118 O129 2.093 . S
Co118 O142 2.097 . S
Co118 N159 2.151 . S
Co118 N167 2.214 . S
Co119 O120 2.160 . S
Co119 O125 2.058 . S
Co119 O135 2.057 . S
Co119 O150 2.037 . S
Co119 N154 2.145 . S
Co119 N175 2.257 . S
O120 Co118 2.143 . S
O120 Co119 2.160 . S
C121 O122 1.278 . S
C121 O129 1.224 . S
O122 C121 1.278 . S
C123 O124 1.245 . S
C123 O135 1.232 . S
O124 C123 1.245 . S
O125 Co119 2.058 . S
O125 C151 1.269 . S
O126 Co118 2.074 . S
O126 C151 1.257 . S
H127 C152 0.930 . S
H128 C158 0.930 . S
O129 Co118 2.093 . S
O129 C121 1.224 . S
H130 C162 0.929 . S
H131 C164 0.930 . S
H132 C165 0.930 . S
H133 C163 0.929 . S
H134 C166 0.928 . S
O135 Co119 2.057 . S
O135 C123 1.232 . S
H136 C155 0.929 . S
H137 C156 0.929 . S
H138 C168 0.931 . S
H139 C160 0.929 . S
H140 C169 0.930 . S
H141 C161 0.931 . S
O142 Co118 2.097 . S
O142 C170 1.214 . S
H143 C171 0.929 . S
H144 C172 0.929 . S
H145 C173 0.930 . S
H146 C174 0.929 . S
H147 C176 0.930 . S
H148 C153 0.930 . S
H149 C157 0.930 . S
O150 Co119 2.037 . S
O150 C170 1.234 . S
C151 O125 1.269 . S
C151 O126 1.257 . S
C152 H127 0.930 . S
C152 C155 1.388 . S
C152 C157 1.418 . S
C153 H148 0.930 . S
C153 C156 1.404 . S
C153 C157 1.353 . S
N154 Co119 2.145 . S
N154 C155 1.397 . S
N154 C156 1.334 . S
C155 H136 0.929 . S
C155 C152 1.388 . S
C155 N154 1.397 . S
C156 H137 0.929 . S
C156 C153 1.404 . S
C156 N154 1.334 . S
C157 H149 0.930 . S
C157 C152 1.418 . S
C157 C153 1.353 . S
C158 H128 0.930 . S
C158 N159 1.330 . S
C158 C160 1.446 . S
N159 Co118 2.151 . S
N159 C158 1.330 . S
N159 C163 1.418 . S
C160 H139 0.929 . S
C160 C158 1.446 . S
C160 C161 1.332 . S
C161 H141 0.931 . S
C161 C160 1.332 . S
C161 C162 1.267 . S
C162 H130 0.929 . S
C162 C161 1.267 . S
C162 C163 1.251 . S
C163 H133 0.929 . S
C163 N159 1.418 . S
C163 C162 1.251 . S
C164 H131 0.930 . S
C164 C166 1.406 . S
C164 C169 1.261 . S
C165 H132 0.930 . S
C165 N167 1.325 . S
C165 C168 1.357 . S
C166 H134 0.928 . S
C166 C164 1.406 . S
C166 N167 1.261 . S
N167 Co118 2.214 . S
N167 C165 1.325 . S
N167 C166 1.261 . S
C168 H138 0.931 . S
C168 C165 1.357 . S
C168 C169 1.312 . S
C169 H140 0.930 . S
C169 C164 1.261 . S
C169 C168 1.312 . S
C170 O142 1.214 . S
C170 O150 1.234 . S
C171 H143 0.929 . S
C171 C174 1.391 . S
C171 C176 1.391 . S
C172 H144 0.929 . S
C172 C173 1.390 . S
C172 N175 1.391 . S
C173 H145 0.930 . S
C173 C172 1.390 . S
C173 C174 1.392 . S
C174 H146 0.929 . S
C174 C171 1.391 . S
C174 C173 1.392 . S
N175 Co119 2.257 . S
N175 C172 1.391 . S
N175 C176 1.388 . S
C176 H147 0.930 . S
C176 C171 1.391 . S
C176 N175 1.388 . S
Co177 O179 2.143 . S
Co177 O185 2.074 . S
Co177 O188 2.093 . S
Co177 O201 2.097 . S
Co177 N218 2.151 . S
Co177 N226 2.214 1_556 S
Co178 O179 2.160 . S
Co178 O184 2.058 . S
Co178 O194 2.057 . S
Co178 O209 2.037 . S
Co178 N213 2.145 . S
Co178 N234 2.257 . S
O179 Co177 2.143 . S
O179 Co178 2.160 . S
C180 O181 1.278 . S
C180 O188 1.224 . S
O181 C180 1.278 . S
C182 O183 1.245 . S
C182 O194 1.232 . S
O183 C182 1.245 . S
O184 Co178 2.058 . S
O184 C210 1.269 . S
O185 Co177 2.074 . S
O185 C210 1.257 . S
H186 C211 0.930 . S
H187 C217 0.930 . S
O188 Co177 2.093 . S
O188 C180 1.224 . S
H189 C221 0.929 . S
H190 C223 0.930 . S
H191 C224 0.930 . S
H192 C222 0.916 1_554 S
H193 C225 0.928 . S
O194 Co178 2.057 . S
O194 C182 1.232 . S
H195 C214 0.929 . S
H196 C215 0.929 . S
H197 C227 0.931 . S
H198 C219 0.929 . S
H199 C228 0.930 . S
H200 C220 0.931 . S
O201 Co177 2.097 . S
O201 C229 1.214 . S
H202 C230 0.929 . S
H203 C231 0.929 . S
H204 C232 0.930 . S
H205 C233 0.929 . S
H206 C235 0.930 . S
H207 C212 0.930 . S
H208 C216 0.930 . S
O209 Co178 2.037 . S
O209 C229 1.234 . S
C210 O184 1.269 . S
C210 O185 1.257 . S
C211 H186 0.930 . S
C211 C214 1.388 . S
C211 C216 1.418 . S
C212 H207 0.930 . S
C212 C215 1.404 . S
C212 C216 1.353 . S
N213 Co178 2.145 . S
N213 C214 1.397 . S
N213 C215 1.334 . S
C214 H195 0.929 . S
C214 C211 1.388 . S
C214 N213 1.397 . S
C215 H196 0.929 . S
C215 C212 1.404 . S
C215 N213 1.334 . S
C216 H208 0.930 . S
C216 C211 1.418 . S
C216 C212 1.353 . S
C217 H187 0.930 . S
C217 N218 1.330 . S
C217 C219 1.446 . S
N218 Co177 2.151 . S
N218 C217 1.330 . S
N218 C222 1.418 . S
C219 H198 0.929 . S
C219 C217 1.446 . S
C219 C220 1.332 . S
C220 H200 0.931 . S
C220 C219 1.332 . S
C220 C221 1.267 . S
C221 H189 0.929 . S
C221 C220 1.267 . S
C221 C222 1.251 . S
C222 H192 0.916 1_556 S
C222 N218 1.418 . S
C222 C221 1.251 . S
C223 H190 0.930 . S
C223 C225 1.406 . S
C223 C228 1.261 . S
C224 H191 0.930 . S
C224 N226 1.325 . S
C224 C227 1.357 . S
C225 H193 0.928 . S
C225 C223 1.406 . S
C225 N226 1.261 . S
N226 Co177 2.214 1_554 S
N226 C224 1.325 . S
N226 C225 1.261 . S
C227 H197 0.931 . S
C227 C224 1.357 . S
C227 C228 1.312 . S
C228 H199 0.930 . S
C228 C223 1.261 . S
C228 C227 1.312 . S
C229 O201 1.214 . S
C229 O209 1.234 . S
C230 H202 0.929 . S
C230 C233 1.391 . S
C230 C235 1.391 . S
C231 H203 0.929 . S
C231 C232 1.390 . S
C231 N234 1.391 . S
C232 H204 0.930 . S
C232 C231 1.390 . S
C232 C233 1.392 . S
C233 H205 0.929 . S
C233 C230 1.391 . S
C233 C232 1.392 . S
N234 Co178 2.257 . S
N234 C231 1.391 . S
N234 C235 1.388 . S
C235 H206 0.930 . S
C235 C230 1.391 . S
C235 N234 1.388 . S
H236 C242 0.930 . S
H237 C245 0.930 . S
H238 C246 0.930 . S
H239 C247 0.930 . S
H240 C250 0.930 . S
H241 C251 0.930 . S
C242 H236 0.930 . S
C242 C243 1.355 . S
C242 C244 1.415 . S
C243 C242 1.355 . S
C243 C245 1.419 . S
C244 C242 1.415 . S
C244 C249 1.425 . S
C244 C251 1.409 . S
C245 H237 0.930 . S
C245 C243 1.419 . S
C245 C246 1.362 . S
C246 H238 0.930 . S
C246 C245 1.362 . S
C246 C249 1.409 . S
C247 H239 0.930 . S
C247 C248 1.355 . S
C247 C249 1.415 . S
C248 C247 1.355 . S
C248 C250 1.419 . S
C249 C244 1.425 . S
C249 C246 1.409 . S
C249 C247 1.415 . S
C250 H240 0.930 . S
C250 C248 1.419 . S
C250 C251 1.362 . S
C251 H241 0.930 . S
C251 C244 1.409 . S
C251 C250 1.362 . S
H252 C258 0.930 . S
H253 C261 0.930 . S
H254 C262 0.930 . S
H255 C263 0.930 . S
H256 C266 0.930 . S
H257 C267 0.930 . S
C258 H252 0.930 . S
C258 C259 1.355 . S
C258 C260 1.415 . S
C259 C258 1.355 . S
C259 C261 1.419 . S
C260 C258 1.415 . S
C260 C265 1.425 . S
C260 C267 1.409 . S
C261 H253 0.930 . S
C261 C259 1.419 . S
C261 C262 1.362 . S
C262 H254 0.930 . S
C262 C261 1.362 . S
C262 C265 1.409 . S
C263 H255 0.930 . S
C263 C264 1.355 . S
C263 C265 1.415 . S
C264 C263 1.355 . S
C264 C266 1.419 . S
C265 C260 1.425 . S
C265 C262 1.409 . S
C265 C263 1.415 . S
C266 H256 0.930 . S
C266 C264 1.419 . S
C266 C267 1.362 . S
C267 H257 0.930 . S
C267 C260 1.409 . S
C267 C266 1.362 . S
H268 C274 0.930 . S
H269 C277 0.930 . S
H270 C278 0.930 . S
H271 C279 0.930 . S
H272 C282 0.930 . S
H273 C283 0.930 . S
C274 H268 0.930 . S
C274 C275 1.355 1_556 S
C274 C276 1.415 . S
C275 C274 1.355 1_554 S
C275 C277 1.419 . S
C276 C274 1.415 . S
C276 C281 1.425 . S
C276 C283 1.409 . S
C277 H269 0.930 . S
C277 C275 1.419 . S
C277 C278 1.362 1_554 S
C278 H270 0.930 . S
C278 C277 1.362 1_556 S
C278 C281 1.409 . S
C279 H271 0.930 . S
C279 C280 1.355 . S
C279 C281 1.415 . S
C280 C279 1.355 . S
C280 C282 1.419 . S
C281 C276 1.425 . S
C281 C278 1.409 . S
C281 C279 1.415 . S
C282 H272 0.930 . S
C282 C280 1.419 . S
C282 C283 1.362 . S
C283 H273 0.930 . S
C283 C276 1.409 . S
C283 C282 1.362 . S
H284 C290 0.930 . S
H285 C293 0.930 . S
H286 C294 0.930 . S
H287 C295 0.930 . S
H288 C298 0.930 . S
H289 C299 0.930 . S
C290 H284 0.930 . S
C290 C291 1.355 . S
C290 C292 1.415 1_455 S
C291 C290 1.355 . S
C291 C293 1.419 . S
C292 C290 1.415 1_655 S
C292 C297 1.425 . S
C292 C299 1.409 . S
C293 H285 0.930 . S
C293 C291 1.419 . S
C293 C294 1.362 . S
C294 H286 0.930 . S
C294 C293 1.362 . S
C294 C297 1.409 1_455 S
C295 H287 0.930 . S
C295 C296 1.355 . S
C295 C297 1.415 . S
C296 C295 1.355 . S
C296 C298 1.419 . S
C297 C292 1.425 . S
C297 C294 1.409 1_655 S
C297 C295 1.415 . S
C298 H288 0.930 . S
C298 C296 1.419 . S
C298 C299 1.362 . S
C299 H289 0.930 . S
C299 C292 1.409 . S
C299 C298 1.362 . S
H300 C306 0.930 . S
H301 C309 0.930 . S
H302 C310 0.930 . S
H303 C311 0.930 . S
H304 C314 0.930 . S
H305 C315 0.930 . S
C306 H300 0.930 . S
C306 C307 1.355 . S
C306 C308 1.415 1_545 S
C307 C306 1.355 . S
C307 C309 1.419 . S
C308 C306 1.415 1_565 S
C308 C313 1.425 1_566 S
C308 C315 1.409 . S
C309 H301 0.930 . S
C309 C307 1.419 . S
C309 C310 1.362 1_556 S
C310 H302 0.930 . S
C310 C309 1.362 1_554 S
C310 C313 1.409 . S
C311 H303 0.930 . S
C311 C312 1.355 . S
C311 C313 1.415 1_565 S
C312 C311 1.355 . S
C312 C314 1.419 . S
C313 C308 1.425 1_544 S
C313 C310 1.409 . S
C313 C311 1.415 1_545 S
C314 H304 0.930 . S
C314 C312 1.419 . S
C314 C315 1.362 1_554 S
C315 H305 0.930 . S
C315 C308 1.409 . S
C315 C314 1.362 1_556 S
H316 C322 0.930 . S
H317 C325 0.930 . S
H318 C326 0.930 . S
H319 C327 0.930 . S
H320 C330 0.930 . S
H321 C331 0.930 . S
C322 H316 0.930 . S
C322 C323 1.355 . S
C322 C324 1.415 . S
C323 C322 1.355 . S
C323 C325 1.419 . S
C324 C322 1.415 . S
C324 C329 1.425 . S
C324 C331 1.409 . S
C325 H317 0.930 . S
C325 C323 1.419 . S
C325 C326 1.362 . S
C326 H318 0.930 . S
C326 C325 1.362 . S
C326 C329 1.409 . S
C327 H319 0.930 . S
C327 C328 1.355 . S
C327 C329 1.415 . S
C328 C327 1.355 . S
C328 C330 1.419 . S
C329 C324 1.425 . S
C329 C326 1.409 . S
C329 C327 1.415 . S
C330 H320 0.930 . S
C330 C328 1.419 . S
C330 C331 1.362 . S
C331 H321 0.930 . S
C331 C324 1.409 . S
C331 C330 1.362 . S
H332 C338 0.930 . S
H333 C341 0.930 1_556 S
H334 C342 0.930 . S
H335 C343 0.930 . S
H336 C346 0.930 . S
H337 C347 0.930 . S
C338 H332 0.930 . S
C338 C339 1.355 . S
C338 C340 1.415 1_455 S
C339 C338 1.355 . S
C339 C341 1.419 . S
C340 C338 1.415 1_655 S
C340 C345 1.434 . S
C340 C347 1.409 . S
C341 H333 0.930 1_554 S
C341 C339 1.419 . S
C341 C342 1.362 1_554 S
C342 H334 0.930 . S
C342 C341 1.362 1_556 S
C342 C345 1.405 1_456 S
C343 H335 0.930 . S
C343 C344 1.355 . S
C343 C345 1.410 1_556 S
C344 C343 1.355 . S
C344 C346 1.419 1_556 S
C345 C340 1.434 . S
C345 C342 1.405 1_654 S
C345 C343 1.410 1_554 S
C346 H336 0.930 . S
C346 C344 1.419 1_554 S
C346 C347 1.362 . S
C347 H337 0.930 . S
C347 C340 1.409 . S
C347 C346 1.362 . S
H348 C354 0.930 . S
H349 C357 0.930 . S
H350 C358 0.920 1_565 S
H351 C359 0.930 . S
H352 C362 0.930 . S
H353 C363 0.920 1_545 S
C354 H348 0.930 . S
C354 C355 1.355 . S
C354 C356 1.415 . S
C355 C354 1.355 . S
C355 C357 1.419 . S
C356 C354 1.415 . S
C356 C361 1.425 1_545 S
C356 C363 1.407 1_545 S
C357 H349 0.930 . S
C357 C355 1.419 . S
C357 C358 1.375 . S
C358 H350 0.920 1_545 S
C358 C357 1.375 . S
C358 C361 1.407 1_545 S
C359 H351 0.930 . S
C359 C360 1.355 . S
C359 C361 1.415 . S
C360 C359 1.355 . S
C360 C362 1.419 . S
C361 C356 1.425 1_565 S
C361 C358 1.407 1_565 S
C361 C359 1.415 . S
C362 H352 0.930 . S
C362 C360 1.419 . S
C362 C363 1.375 . S
C363 H353 0.920 1_565 S
C363 C356 1.407 1_565 S
C363 C362 1.375 . S
C243 C5 1.612 . S
C248 C123 1.611 . S
C259 C64 1.622 . S
C264 C182 1.597 . S
C275 C52 1.718 . S
C280 C210 1.733 . S
C291 C121 1.504 . S
C296 C111 1.480 . S
C307 C180 1.368 . S
C312 C3 1.379 . S
C323 C62 1.532 . S
C328 C170 1.501 . S
C339 C33 1.727 . S
C344 C229 1.725 . S
C355 C92 1.918 . S
C360 C151 1.918 . S
