# Generated by pormake.
# Topology ukb, (4)-cn, num edge types: 1
# Building blocks:
#     Node 0, Type 0, BuildingBlock: CEKHIL_clean_sbu_0, # of connection points: 4
#     Node 1, Type 0, BuildingBlock: CEKHIL_clean_sbu_0, # of connection points: 4
#     Node 2, Type 0, BuildingBlock: CEKHIL_clean_sbu_0, # of connection points: 4
#     Node 3, Type 0, BuildingBlock: CEKHIL_clean_sbu_0, # of connection points: 4
#     Node 4, Type 0, BuildingBlock: CEKHIL_clean_sbu_0, # of connection points: 4
#     Node 5, Type 0, BuildingBlock: CEKHIL_clean_sbu_0, # of connection points: 4
#     Node 6, Type 0, BuildingBlock: CEKHIL_clean_sbu_0, # of connection points: 4
#     Node 7, Type 0, BuildingBlock: CEKHIL_clean_sbu_0, # of connection points: 4
#     Node 8, Type 0, BuildingBlock: CEKHIL_clean_sbu_0, # of connection points: 4
#     Node 9, Type 0, BuildingBlock: CEKHIL_clean_sbu_0, # of connection points: 4
#     Node 10, Type 0, BuildingBlock: CEKHIL_clean_sbu_0, # of connection points: 4
#     Node 11, Type 0, BuildingBlock: CEKHIL_clean_sbu_0, # of connection points: 4
#     Node 12, Type 0, BuildingBlock: CEKHIL_clean_sbu_0, # of connection points: 4
#     Node 13, Type 0, BuildingBlock: CEKHIL_clean_sbu_0, # of connection points: 4
#     Node 14, Type 0, BuildingBlock: CEKHIL_clean_sbu_0, # of connection points: 4
#     Node 15, Type 0, BuildingBlock: CEKHIL_clean_sbu_0, # of connection points: 4
#     Edge 16, Type (0, 0), BuildingBlock: CIFDUS_clean_linker_0, # of connection points: 2
#     Edge 17, Type (0, 0), BuildingBlock: CIFDUS_clean_linker_0, # of connection points: 2
#     Edge 18, Type (0, 0), BuildingBlock: CIFDUS_clean_linker_0, # of connection points: 2
#     Edge 19, Type (0, 0), BuildingBlock: CIFDUS_clean_linker_0, # of connection points: 2
#     Edge 20, Type (0, 0), BuildingBlock: CIFDUS_clean_linker_0, # of connection points: 2
#     Edge 21, Type (0, 0), BuildingBlock: CIFDUS_clean_linker_0, # of connection points: 2
#     Edge 22, Type (0, 0), BuildingBlock: CIFDUS_clean_linker_0, # of connection points: 2
#     Edge 23, Type (0, 0), BuildingBlock: CIFDUS_clean_linker_0, # of connection points: 2
#     Edge 24, Type (0, 0), BuildingBlock: CIFDUS_clean_linker_0, # of connection points: 2
#     Edge 25, Type (0, 0), BuildingBlock: CIFDUS_clean_linker_0, # of connection points: 2
#     Edge 26, Type (0, 0), BuildingBlock: CIFDUS_clean_linker_0, # of connection points: 2
#     Edge 27, Type (0, 0), BuildingBlock: CIFDUS_clean_linker_0, # of connection points: 2
#     Edge 28, Type (0, 0), BuildingBlock: CIFDUS_clean_linker_0, # of connection points: 2
#     Edge 29, Type (0, 0), BuildingBlock: CIFDUS_clean_linker_0, # of connection points: 2
#     Edge 30, Type (0, 0), BuildingBlock: CIFDUS_clean_linker_0, # of connection points: 2
#     Edge 31, Type (0, 0), BuildingBlock: CIFDUS_clean_linker_0, # of connection points: 2
#     Edge 32, Type (0, 0), BuildingBlock: CIFDUS_clean_linker_0, # of connection points: 2
#     Edge 33, Type (0, 0), BuildingBlock: CIFDUS_clean_linker_0, # of connection points: 2
#     Edge 34, Type (0, 0), BuildingBlock: CIFDUS_clean_linker_0, # of connection points: 2
#     Edge 35, Type (0, 0), BuildingBlock: CIFDUS_clean_linker_0, # of connection points: 2
#     Edge 36, Type (0, 0), BuildingBlock: CIFDUS_clean_linker_0, # of connection points: 2
#     Edge 37, Type (0, 0), BuildingBlock: CIFDUS_clean_linker_0, # of connection points: 2
#     Edge 38, Type (0, 0), BuildingBlock: CIFDUS_clean_linker_0, # of connection points: 2
#     Edge 39, Type (0, 0), BuildingBlock: CIFDUS_clean_linker_0, # of connection points: 2
#     Edge 40, Type (0, 0), BuildingBlock: CIFDUS_clean_linker_0, # of connection points: 2
#     Edge 41, Type (0, 0), BuildingBlock: CIFDUS_clean_linker_0, # of connection points: 2
#     Edge 42, Type (0, 0), BuildingBlock: CIFDUS_clean_linker_0, # of connection points: 2
#     Edge 43, Type (0, 0), BuildingBlock: CIFDUS_clean_linker_0, # of connection points: 2
#     Edge 44, Type (0, 0), BuildingBlock: CIFDUS_clean_linker_0, # of connection points: 2
#     Edge 45, Type (0, 0), BuildingBlock: CIFDUS_clean_linker_0, # of connection points: 2
#     Edge 46, Type (0, 0), BuildingBlock: CIFDUS_clean_linker_0, # of connection points: 2
#     Edge 47, Type (0, 0), BuildingBlock: CIFDUS_clean_linker_0, # of connection points: 2
# Relax obj value: 0.092
# Max RMSD: 0.050
# Mean RMSD: 0.050
data_MOF--net-ukb--node1-CEKHIL_clean_sbu_0--edge1-CIFDUS_clean_linker_0
_symmetry_space_group_name_H-M    P1
_symmetry_Int_Tables_number       1
_symmetry_cell_setting            triclinic
loop_
_symmetry_equiv_pos_as_xyz
'x, y, z'
_cell_length_a     38.335164
_cell_length_b     38.350862
_cell_length_c     32.712414
_cell_angle_alpha  90.002716
_cell_angle_beta   90.041865
_cell_angle_gamma 90.01269
loop_
_atom_site_label
_atom_site_type_symbol
_atom_site_fract_x
_atom_site_fract_y
_atom_site_fract_z
_atom_type_partial_charge
Co0 Co 0.52348 0.1851 0.17956 0.0
O1 O 0.49545 0.14353 0.17335 0.0
O2 O 0.49881 0.17578 0.22951 0.0
C3 C 0.50937 0.20965 0.11892 0.0
O4 O 0.54726 0.22955 0.19848 0.0
Co5 Co 0.58471 0.20509 0.12236 0.0
O6 O 0.58571 0.25004 0.15277 0.0
C7 C 0.59321 0.14791 0.18196 0.0
C8 C 0.48591 0.14875 0.21102 0.0
C9 C 0.569 0.25282 0.18627 0.0
O10 O 0.56432 0.15645 0.19934 0.0
O11 O 0.60396 0.16181 0.14866 0.0
O12 O 0.48824 0.21246 0.14987 0.0
O13 O 0.53641 0.1903 0.1248 0.0
Co14 Co 0.31231 0.52476 0.67958 0.0
O15 O 0.3544 0.49743 0.67854 0.0
O16 O 0.31713 0.49955 0.73033 0.0
C17 C 0.29374 0.5107 0.61615 0.0
O18 O 0.26591 0.54833 0.69165 0.0
Co19 Co 0.30056 0.58649 0.61997 0.0
O20 O 0.25191 0.58542 0.64108 0.0
C21 C 0.34823 0.59527 0.68993 0.0
C22 C 0.34594 0.48728 0.71511 0.0
C23 C 0.24445 0.56932 0.67404 0.0
O24 O 0.33839 0.56549 0.70394 0.0
O25 O 0.3385 0.60705 0.65509 0.0
O26 O 0.28825 0.48952 0.64652 0.0
O27 O 0.31274 0.5376 0.62439 0.0
Co28 Co 0.97212 0.32073 0.18238 0.0
O29 O 0.00096 0.36185 0.17851 0.0
O30 O 0.00292 0.32289 0.22865 0.0
C31 C 0.97704 0.30304 0.11679 0.0
O32 O 0.94859 0.27514 0.1972 0.0
Co33 Co 0.90324 0.31138 0.13374 0.0
O34 O 0.90365 0.26295 0.15561 0.0
C35 C 0.90552 0.3593 0.204 0.0
C36 C 0.01441 0.35183 0.2131 0.0
C37 C 0.92418 0.25479 0.18473 0.0
O38 O 0.93576 0.34751 0.21397 0.0
O39 O 0.88988 0.35086 0.17085 0.0
O40 O 0.00183 0.29624 0.1428 0.0
O41 O 0.95237 0.32283 0.13018 0.0
Co42 Co 0.18356 0.977 0.67132 0.0
O43 O 0.13949 0.99955 0.66155 0.0
O44 O 0.17172 0.00608 0.71738 0.0
C45 C 0.20617 0.98745 0.60876 0.0
O46 O 0.23041 0.95936 0.692 0.0
Co47 Co 0.2065 0.91208 0.62179 0.0
O48 O 0.25237 0.91945 0.64885 0.0
C49 C 0.15474 0.9042 0.68791 0.0
C50 C 0.14357 0.01392 0.69717 0.0
C51 C 0.25504 0.93887 0.68032 0.0
O52 O 0.15948 0.93625 0.6981 0.0
O53 O 0.16877 0.89036 0.65629 0.0
O54 O 0.20707 0.01145 0.63681 0.0
O55 O 0.18929 0.95945 0.61827 0.0
Co56 Co 0.52573 0.31921 0.83441 0.0
O57 O 0.49791 0.36113 0.83953 0.0
O58 O 0.49473 0.32305 0.78862 0.0
C59 C 0.52066 0.30038 0.89965 0.0
O60 O 0.54791 0.27341 0.81763 0.0
Co61 Co 0.59462 0.3065 0.88183 0.0
O62 O 0.59407 0.25932 0.85639 0.0
C63 C 0.59382 0.35543 0.81244 0.0
C64 C 0.48403 0.35202 0.8048 0.0
C65 C 0.57267 0.25253 0.82766 0.0
O66 O 0.56275 0.34549 0.80305 0.0
O67 O 0.60952 0.34567 0.84505 0.0
O68 O 0.49554 0.29482 0.87369 0.0
O69 O 0.54594 0.31955 0.88653 0.0
Co70 Co 0.19183 0.52436 0.3273 0.0
O71 O 0.14929 0.49778 0.33335 0.0
O72 O 0.18694 0.49287 0.28215 0.0
C73 C 0.21105 0.52005 0.39242 0.0
O74 O 0.23797 0.54513 0.30979 0.0
Co75 Co 0.20618 0.59383 0.37305 0.0
O76 O 0.25323 0.5916 0.34742 0.0
C77 C 0.15636 0.59245 0.30452 0.0
C78 C 0.1577 0.48335 0.2987 0.0
C79 C 0.25945 0.56951 0.31926 0.0
O80 O 0.16616 0.56135 0.29534 0.0
O81 O 0.16648 0.60843 0.33679 0.0
O82 O 0.21578 0.49431 0.3671 0.0
O83 O 0.19231 0.54548 0.37888 0.0
Co84 Co 0.97359 0.17495 0.84484 0.0
O85 O 0.99833 0.13221 0.85599 0.0
O86 O 0.00047 0.16168 0.79771 0.0
C87 C 0.98661 0.20147 0.90442 0.0
O88 O 0.95367 0.22001 0.82189 0.0
Co89 Co 0.91096 0.20021 0.89692 0.0
O90 O 0.91522 0.24422 0.86512 0.0
C91 C 0.90116 0.14292 0.83767 0.0
C92 C 0.01081 0.13513 0.81922 0.0
C93 C 0.93323 0.24503 0.8324 0.0
O94 O 0.93204 0.14818 0.82346 0.0
O95 O 0.8892 0.15872 0.86919 0.0
O96 O 0.00917 0.20128 0.87479 0.0
O97 O 0.95861 0.18349 0.89836 0.0
Co98 Co 0.31014 0.97217 0.32114 0.0
O99 O 0.35241 0.99914 0.32752 0.0
O100 O 0.31465 0.00435 0.27649 0.0
C101 C 0.29128 0.97567 0.38645 0.0
O102 O 0.26408 0.95085 0.30353 0.0
Co103 Co 0.29713 0.90214 0.36619 0.0
O104 O 0.2495 0.90467 0.34205 0.0
C105 C 0.34686 0.90503 0.2977 0.0
C106 C 0.34383 0.01399 0.29318 0.0
C107 C 0.24279 0.92647 0.31371 0.0
O108 O 0.33625 0.9359 0.28873 0.0
O109 O 0.33715 0.88861 0.32982 0.0
O110 O 0.28598 0.00152 0.36142 0.0
O111 O 0.31026 0.95063 0.37245 0.0
Co112 Co 0.48348 0.82091 0.81476 0.0
O113 O 0.50983 0.86209 0.82722 0.0
O114 O 0.51383 0.83222 0.76936 0.0
C115 C 0.49254 0.79514 0.87571 0.0
O116 O 0.46127 0.7765 0.79224 0.0
Co117 Co 0.4172 0.80303 0.86507 0.0
O118 O 0.42096 0.75731 0.83686 0.0
C119 C 0.41354 0.85702 0.80093 0.0
C120 C 0.52441 0.8582 0.79179 0.0
C121 C 0.43916 0.75346 0.80456 0.0
O122 O 0.44486 0.84958 0.78981 0.0
O123 O 0.39889 0.84357 0.8324 0.0
O124 O 0.516 0.79307 0.84719 0.0
O125 O 0.46612 0.81488 0.8677 0.0
Co126 Co 0.67966 0.48171 0.33299 0.0
O127 O 0.63568 0.50492 0.34086 0.0
O128 O 0.67017 0.51154 0.28694 0.0
C129 C 0.70053 0.49103 0.39645 0.0
O130 O 0.72696 0.4638 0.3147 0.0
Co131 Co 0.7001 0.41589 0.38273 0.0
O132 O 0.74698 0.42316 0.35822 0.0
C133 C 0.65069 0.40946 0.31387 0.0
C134 C 0.6416 0.5199 0.30594 0.0
C135 C 0.75101 0.44305 0.32736 0.0
O136 O 0.6561 0.44153 0.30424 0.0
O137 O 0.66334 0.39523 0.34607 0.0
O138 O 0.7024 0.51545 0.369 0.0
O139 O 0.68341 0.46344 0.38591 0.0
Co140 Co 0.03013 0.67935 0.82757 0.0
O141 O 0.00355 0.63823 0.84014 0.0
O142 O 0.00313 0.66536 0.78033 0.0
C143 C 0.01668 0.70749 0.88602 0.0
O144 O 0.05266 0.72285 0.80364 0.0
Co145 Co 0.09213 0.70302 0.88153 0.0
O146 O 0.08965 0.74674 0.84895 0.0
C147 C 0.10129 0.64454 0.82365 0.0
C148 C 0.99149 0.64014 0.80315 0.0
C149 C 0.07323 0.74751 0.81506 0.0
O150 O 0.07084 0.65027 0.80847 0.0
O151 O 0.11316 0.66059 0.85507 0.0
O152 O 0.99537 0.70838 0.85514 0.0
O153 O 0.04394 0.68814 0.88158 0.0
Co154 Co 0.80645 0.02318 0.31547 0.0
O155 O 0.84889 0.99663 0.31621 0.0
O156 O 0.80964 0.99528 0.26636 0.0
C157 C 0.79104 0.01187 0.38058 0.0
O158 O 0.75923 0.04585 0.30503 0.0
Co159 Co 0.79703 0.08723 0.37287 0.0
O160 O 0.74751 0.08416 0.35526 0.0
C161 C 0.84082 0.09326 0.29912 0.0
C162 C 0.83908 0.98409 0.28119 0.0
C163 C 0.73852 0.06709 0.3235 0.0
O164 O 0.83057 0.06306 0.28692 0.0
O165 O 0.83308 0.10601 0.33415 0.0
O166 O 0.78445 0.98921 0.35205 0.0
O167 O 0.80928 0.03849 0.3695 0.0
Co168 Co 0.47706 0.68632 0.15981 0.0
O169 O 0.50166 0.64343 0.14968 0.0
O170 O 0.51087 0.67873 0.20241 0.0
C171 C 0.47939 0.7069 0.09544 0.0
O172 O 0.45805 0.73267 0.17998 0.0
Co173 Co 0.40604 0.70232 0.11758 0.0
O174 O 0.41206 0.74939 0.14208 0.0
C175 C 0.40905 0.65258 0.18617 0.0
C176 C 0.51863 0.65011 0.18316 0.0
C177 C 0.43439 0.75496 0.17024 0.0
O178 O 0.44093 0.66103 0.19318 0.0
O179 O 0.39175 0.66342 0.15516 0.0
O180 O 0.50618 0.71042 0.11951 0.0
O181 O 0.454 0.68848 0.10959 0.0
Co182 Co 0.82276 0.46677 0.67257 0.0
O183 O 0.86638 0.48946 0.66025 0.0
O184 O 0.83358 0.50036 0.71457 0.0
C185 C 0.79989 0.47046 0.60922 0.0
O186 O 0.77608 0.4501 0.69487 0.0
Co187 Co 0.80142 0.39699 0.63115 0.0
O188 O 0.75512 0.40644 0.65616 0.0
C189 C 0.85372 0.39678 0.6974 0.0
C190 C 0.86161 0.50712 0.69366 0.0
C191 C 0.75177 0.42851 0.68503 0.0
O192 O 0.84763 0.42921 0.70455 0.0
O193 O 0.84043 0.38017 0.66718 0.0
O194 O 0.79858 0.49716 0.63366 0.0
O195 O 0.81759 0.44412 0.62232 0.0
Co196 Co 0.01608 0.8086 0.17322 0.0
O197 O 0.98771 0.84976 0.16658 0.0
O198 O 0.98682 0.8146 0.22042 0.0
C199 C 0.00782 0.78684 0.11004 0.0
O200 O 0.03978 0.76386 0.19118 0.0
Co201 Co 0.08266 0.79544 0.12158 0.0
O202 O 0.08376 0.74924 0.14925 0.0
C203 C 0.08509 0.84525 0.19032 0.0
C204 C 0.97505 0.84241 0.20241 0.0
C205 C 0.06416 0.743 0.17985 0.0
O206 O 0.05397 0.8365 0.20076 0.0
O207 O 0.09993 0.8343 0.15767 0.0
O208 O 0.98454 0.78178 0.13827 0.0
O209 O 0.03348 0.80701 0.11966 0.0
Co210 Co 0.69314 0.03527 0.66935 0.0
O211 O 0.64994 0.01197 0.65765 0.0
O212 O 0.68388 0.00063 0.71093 0.0
C213 C 0.71407 0.03241 0.60516 0.0
O214 O 0.74003 0.05328 0.6901 0.0
Co215 Co 0.71026 0.10605 0.62723 0.0
O216 O 0.75779 0.09694 0.64905 0.0
C217 C 0.66042 0.1039 0.69588 0.0
C218 C 0.65575 0.99357 0.6902 0.0
C219 C 0.76318 0.07538 0.67805 0.0
O220 O 0.6682 0.0718 0.70273 0.0
O221 O 0.67178 0.1211 0.66508 0.0
O222 O 0.71694 0.00571 0.62936 0.0
O223 O 0.69617 0.05826 0.61917 0.0
H224 H 0.43497 0.10892 0.17745 0.0
H225 H 0.48285 0.13571 0.29253 0.0
H226 H 0.4434 0.09606 0.32844 0.0
H227 H 0.39531 0.05342 0.327 0.0
H228 H 0.34468 0.03013 0.21239 0.0
H229 H 0.38489 0.06881 0.17649 0.0
C230 C 0.43675 0.10594 0.21036 0.0
C231 C 0.46185 0.12491 0.23233 0.0
C232 C 0.41338 0.08384 0.2309 0.0
C233 C 0.46365 0.12133 0.27502 0.0
C234 C 0.44115 0.09866 0.29555 0.0
C235 C 0.39309 0.05694 0.2942 0.0
C236 C 0.3672 0.0389 0.27236 0.0
C237 C 0.4159 0.07976 0.27381 0.0
C238 C 0.36433 0.04388 0.22992 0.0
C239 C 0.3874 0.06588 0.20932 0.0
H240 H 0.39015 0.43927 0.68443 0.0
H241 H 0.35209 0.48171 0.79797 0.0
H242 H 0.39196 0.44392 0.83632 0.0
H243 H 0.43879 0.39946 0.83717 0.0
H244 H 0.47308 0.35446 0.7232 0.0
H245 H 0.43359 0.39249 0.68541 0.0
C246 C 0.39059 0.44018 0.71758 0.0
C247 C 0.36854 0.46334 0.73841 0.0
C248 C 0.41295 0.41794 0.73931 0.0
C249 C 0.36889 0.46398 0.78134 0.0
C250 C 0.39173 0.44249 0.80323 0.0
C251 C 0.43749 0.39805 0.80409 0.0
C252 C 0.45891 0.37441 0.78295 0.0
C253 C 0.41406 0.4195 0.78251 0.0
C254 C 0.45675 0.37242 0.74014 0.0
C255 C 0.43426 0.39421 0.71848 0.0
H256 H 0.06244 0.39539 0.18028 0.0
H257 H 0.02407 0.35592 0.29516 0.0
H258 H 0.06476 0.39348 0.33232 0.0
H259 H 0.11053 0.43873 0.33204 0.0
H260 H 0.15212 0.47433 0.21692 0.0
H261 H 0.11113 0.43713 0.17994 0.0
C262 C 0.06313 0.39503 0.21343 0.0
C263 C 0.04025 0.37324 0.23503 0.0
C264 C 0.08716 0.41601 0.23452 0.0
C265 C 0.04158 0.37252 0.27794 0.0
C266 C 0.06473 0.39405 0.29919 0.0
C267 C 0.11058 0.43817 0.29888 0.0
C268 C 0.13404 0.45928 0.27718 0.0
C269 C 0.08751 0.41607 0.27781 0.0
C270 C 0.1343 0.45814 0.23425 0.0
C271 C 0.11081 0.437 0.21308 0.0
H272 H 0.12929 0.02678 0.77695 0.0
H273 H 0.09856 0.05454 0.65435 0.0
H274 H 0.05487 0.09486 0.6813 0.0
H275 H 0.02561 0.12239 0.73972 0.0
H276 H 0.05334 0.09172 0.86236 0.0
H277 H 0.09783 0.05217 0.8355 0.0
C278 C 0.11306 0.04178 0.75624 0.0
C279 C 0.11723 0.03801 0.71381 0.0
C280 C 0.0874 0.06422 0.77195 0.0
C281 C 0.09574 0.05708 0.68717 0.0
C282 C 0.07081 0.08013 0.70254 0.0
C283 C 0.04139 0.107 0.76052 0.0
C284 C 0.03641 0.11005 0.8029 0.0
C285 C 0.06643 0.08391 0.74485 0.0
C286 C 0.05668 0.0897 0.82956 0.0
C287 C 0.08219 0.0672 0.81425 0.0
H288 H 0.54049 0.87791 0.71427 0.0
H289 H 0.57033 0.89232 0.84025 0.0
H290 H 0.61541 0.93382 0.81988 0.0
H291 H 0.64488 0.9679 0.76644 0.0
H292 H 0.61159 0.95744 0.6411 0.0
H293 H 0.56951 0.91265 0.66082 0.0
C294 C 0.55709 0.89 0.7371 0.0
C295 C 0.55226 0.88213 0.77858 0.0
C296 C 0.58224 0.91469 0.72528 0.0
C297 C 0.57354 0.8982 0.80807 0.0
C298 C 0.59934 0.92187 0.79648 0.0
C299 C 0.62855 0.95559 0.7435 0.0
C300 C 0.6313 0.96581 0.70246 0.0
C301 C 0.6037 0.9306 0.75522 0.0
C302 C 0.60977 0.95004 0.67299 0.0
C303 C 0.58575 0.9244 0.6842 0.0
H304 H 0.53223 0.6368 0.26253 0.0
H305 H 0.56188 0.60763 0.14015 0.0
H306 H 0.60383 0.56541 0.16738 0.0
H307 H 0.63129 0.53618 0.22624 0.0
H308 H 0.59735 0.56161 0.34832 0.0
H309 H 0.5577 0.60582 0.32112 0.0
C310 C 0.54812 0.62134 0.24193 0.0
C311 C 0.54443 0.62542 0.19953 0.0
C312 C 0.57118 0.59636 0.25778 0.0
C313 C 0.56449 0.60485 0.17297 0.0
C314 C 0.5884 0.58076 0.1885 0.0
C315 C 0.61523 0.55151 0.24679 0.0
C316 C 0.61727 0.54591 0.28914 0.0
C317 C 0.59185 0.57619 0.23086 0.0
C318 C 0.59606 0.56548 0.31555 0.0
C319 C 0.57351 0.5908 0.30005 0.0
H320 H 0.97784 0.62094 0.72462 0.0
H321 H 0.94603 0.60309 0.84933 0.0
H322 H 0.90199 0.56147 0.82638 0.0
H323 H 0.87297 0.52946 0.77102 0.0
H324 H 0.90754 0.54356 0.64672 0.0
H325 H 0.94996 0.58726 0.66919 0.0
C326 C 0.96115 0.60798 0.74665 0.0
C327 C 0.96504 0.6151 0.78853 0.0
C328 C 0.93643 0.58337 0.73332 0.0
C329 C 0.94358 0.59789 0.8169 0.0
C330 C 0.91835 0.57415 0.80382 0.0
C331 C 0.88972 0.54224 0.74888 0.0
C332 C 0.88708 0.53352 0.70732 0.0
C333 C 0.9146 0.56661 0.76214 0.0
C334 C 0.90921 0.54985 0.67895 0.0
C335 C 0.93341 0.57486 0.69176 0.0
H336 H 0.88189 0.93686 0.31558 0.0
H337 H 0.84447 0.97335 0.19889 0.0
H338 H 0.88351 0.93252 0.16373 0.0
H339 H 0.92975 0.88765 0.16662 0.0
H340 H 0.96366 0.84879 0.28387 0.0
H341 H 0.9244 0.88925 0.3185 0.0
C342 C 0.88226 0.93578 0.28243 0.0
C343 C 0.86073 0.95819 0.25974 0.0
C344 C 0.90413 0.91187 0.26265 0.0
C345 C 0.8609 0.95625 0.21689 0.0
C346 C 0.88327 0.93303 0.19685 0.0
C347 C 0.92839 0.88804 0.19973 0.0
C348 C 0.9497 0.86553 0.22272 0.0
C349 C 0.90522 0.91092 0.21945 0.0
C350 C 0.94744 0.86586 0.26556 0.0
C351 C 0.9251 0.88905 0.28538 0.0
H352 H 0.59709 0.31652 0.1678 0.0
H353 H 0.56035 0.25391 0.26867 0.0
H354 H 0.5803 0.29789 0.31698 0.0
H355 H 0.61239 0.35185 0.33112 0.0
H356 H 0.64707 0.41615 0.23093 0.0
H357 H 0.62338 0.37413 0.18197 0.0
C358 C 0.59316 0.31272 0.20033 0.0
C359 C 0.57756 0.28179 0.21453 0.0
C360 C 0.60441 0.33838 0.22815 0.0
C361 C 0.57223 0.27745 0.25679 0.0
C362 C 0.58378 0.30253 0.28455 0.0
C363 C 0.61437 0.35685 0.29856 0.0
C364 C 0.63174 0.38685 0.28468 0.0
C365 C 0.60051 0.33275 0.27064 0.0
C366 C 0.63373 0.39326 0.24242 0.0
C367 C 0.6204 0.36913 0.21438 0.0
H368 H 0.22975 0.56212 0.75475 0.0
H369 H 0.18512 0.59699 0.6407 0.0
H370 H 0.13388 0.61889 0.67698 0.0
H371 H 0.10512 0.63418 0.74177 0.0
H372 H 0.1527 0.60401 0.85592 0.0
H373 H 0.1991 0.57377 0.81899 0.0
C374 C 0.20853 0.57391 0.7377 0.0
C375 C 0.21137 0.57807 0.69508 0.0
C376 C 0.17972 0.5875 0.75888 0.0
C377 C 0.18373 0.5937 0.67355 0.0
C378 C 0.15442 0.60626 0.69428 0.0
C379 C 0.12521 0.62027 0.7585 0.0
C380 C 0.12552 0.62129 0.80149 0.0
C381 C 0.15259 0.60418 0.73705 0.0
C382 C 0.152 0.60366 0.82282 0.0
C383 C 0.17859 0.58647 0.80172 0.0
H384 H 0.88995 0.14142 0.31716 0.0
H385 H 0.83304 0.09653 0.21634 0.0
H386 H 0.85603 0.14139 0.17044 0.0
H387 H 0.88724 0.19718 0.16108 0.0
H388 H 0.94553 0.24036 0.26217 0.0
H389 H 0.9274 0.19219 0.30559 0.0
C390 C 0.88305 0.14118 0.28498 0.0
C391 C 0.85956 0.11607 0.2702 0.0
C392 C 0.89638 0.16691 0.25887 0.0
C393 C 0.85115 0.11564 0.22838 0.0
C394 C 0.86408 0.14142 0.20221 0.0
C395 C 0.89632 0.19577 0.19245 0.0
C396 C 0.91728 0.22265 0.20845 0.0
C397 C 0.88592 0.16779 0.21741 0.0
C398 C 0.92929 0.22015 0.249 0.0
C399 C 0.91882 0.19266 0.27401 0.0
H400 H 0.31994 0.91602 0.65959 0.0
H401 H 0.25818 0.94966 0.76253 0.0
H402 H 0.30376 0.93039 0.80943 0.0
H403 H 0.35765 0.89709 0.82142 0.0
H404 H 0.42035 0.86506 0.71858 0.0
H405 H 0.37824 0.89101 0.67155 0.0
C406 C 0.31676 0.91969 0.69225 0.0
C407 C 0.2855 0.93377 0.70753 0.0
C408 C 0.34313 0.90857 0.71914 0.0
C409 C 0.28195 0.93886 0.7499 0.0
C410 C 0.30792 0.92762 0.77682 0.0
C411 C 0.36238 0.89635 0.78874 0.0
C412 C 0.3918 0.87872 0.77352 0.0
C413 C 0.33808 0.91138 0.76183 0.0
C414 C 0.39788 0.87842 0.73113 0.0
C415 C 0.37368 0.89306 0.70416 0.0
H416 H 0.60946 0.19317 0.84515 0.0
H417 H 0.55165 0.24426 0.74893 0.0
H418 H 0.5713 0.20074 0.70006 0.0
H419 H 0.61056 0.15243 0.68273 0.0
H420 H 0.66623 0.09906 0.77857 0.0
H421 H 0.64152 0.13882 0.82949 0.0
C422 C 0.60071 0.19439 0.81365 0.0
C423 C 0.57954 0.22226 0.8007 0.0
C424 C 0.61195 0.16902 0.7855 0.0
C425 C 0.568 0.22319 0.75985 0.0
C426 C 0.57939 0.1984 0.7317 0.0
C427 C 0.61671 0.14918 0.71489 0.0
C428 C 0.6404 0.12325 0.72695 0.0
C429 C 0.60221 0.17187 0.7439 0.0
C430 C 0.64795 0.11888 0.76867 0.0
C431 C 0.63403 0.14175 0.79772 0.0
H432 H 0.35976 0.6034 0.17367 0.0
H433 H 0.41516 0.65812 0.26874 0.0
H434 H 0.37528 0.63444 0.32015 0.0
H435 H 0.32006 0.6042 0.33632 0.0
H436 H 0.26663 0.54761 0.24082 0.0
H437 H 0.31058 0.56554 0.19157 0.0
C438 C 0.36344 0.60954 0.20577 0.0
C439 C 0.3899 0.63273 0.21747 0.0
C440 C 0.34061 0.59573 0.23504 0.0
C441 C 0.39488 0.64023 0.25912 0.0
C442 C 0.37195 0.62693 0.28845 0.0
C443 C 0.31843 0.59532 0.3049 0.0
C444 C 0.28982 0.57508 0.2922 0.0
C445 C 0.344 0.60557 0.27655 0.0
C446 C 0.28832 0.56329 0.25149 0.0
C447 C 0.31334 0.57368 0.22314 0.0
H448 H 0.89425 0.34023 0.68297 0.0
H449 H 0.85788 0.40737 0.77971 0.0
H450 H 0.88194 0.36748 0.83082 0.0
H451 H 0.90736 0.31012 0.84778 0.0
H452 H 0.94527 0.24424 0.75043 0.0
H453 H 0.92695 0.28719 0.69995 0.0
C454 C 0.89211 0.34638 0.71525 0.0
C455 C 0.87395 0.37641 0.72758 0.0
C456 C 0.90603 0.3234 0.74439 0.0
C457 C 0.87178 0.38439 0.76944 0.0
C458 C 0.8853 0.36146 0.79869 0.0
C459 C 0.91204 0.30541 0.81555 0.0
C460 C 0.9272 0.27376 0.80294 0.0
C461 C 0.90155 0.33036 0.78652 0.0
C462 C 0.93359 0.2683 0.76108 0.0
C463 C 0.92295 0.29278 0.73209 0.0
H464 H 0.1368 0.89134 0.1733 0.0
H465 H 0.08199 0.84287 0.27336 0.0
H466 H 0.12472 0.86613 0.32172 0.0
H467 H 0.1816 0.89445 0.33427 0.0
H468 H 0.23462 0.9451 0.23419 0.0
H469 H 0.18853 0.92721 0.18739 0.0
C470 C 0.13389 0.88646 0.20579 0.0
C471 C 0.10659 0.86514 0.21971 0.0
C472 C 0.15842 0.90005 0.23342 0.0
C473 C 0.1028 0.8593 0.26191 0.0
C474 C 0.12737 0.87236 0.28955 0.0
C475 C 0.18272 0.90202 0.30235 0.0
C476 C 0.21173 0.92065 0.28769 0.0
C477 C 0.1559 0.89187 0.27549 0.0
C478 C 0.21261 0.93073 0.24635 0.0
C479 C 0.18635 0.92034 0.21942 0.0
H480 H 0.38963 0.6498 0.66728 0.0
H481 H 0.35405 0.59257 0.77297 0.0
H482 H 0.38202 0.63491 0.81797 0.0
H483 H 0.41145 0.69122 0.82736 0.0
H484 H 0.44829 0.74796 0.72198 0.0
H485 H 0.42549 0.7025 0.67691 0.0
C486 C 0.38832 0.64639 0.70016 0.0
C487 C 0.36932 0.61831 0.71668 0.0
C488 C 0.40461 0.6708 0.72596 0.0
C489 C 0.36838 0.61396 0.75936 0.0
C490 C 0.38427 0.63826 0.78518 0.0
C491 C 0.41493 0.6934 0.79455 0.0
C492 C 0.43116 0.72316 0.77805 0.0
C493 C 0.40168 0.66723 0.76882 0.0
C494 C 0.43592 0.72534 0.73552 0.0
C495 C 0.42265 0.69947 0.70968 0.0
H496 H 0.85694 0.40857 0.18776 0.0
H497 H 0.90961 0.35675 0.2872 0.0
H498 H 0.86834 0.382 0.33589 0.0
H499 H 0.81239 0.41173 0.3484 0.0
H500 H 0.7604 0.46391 0.24845 0.0
H501 H 0.80664 0.44609 0.20199 0.0
C502 C 0.85974 0.40335 0.2202 0.0
C503 C 0.88582 0.38038 0.23384 0.0
C504 C 0.83587 0.41775 0.24789 0.0
C505 C 0.88964 0.37429 0.27596 0.0
C506 C 0.8659 0.38851 0.30377 0.0
C507 C 0.81149 0.41972 0.31661 0.0
C508 C 0.78256 0.4385 0.30182 0.0
C509 C 0.83813 0.40919 0.28984 0.0
C510 C 0.78216 0.44922 0.2607 0.0
C511 C 0.80852 0.43888 0.23396 0.0
H512 H 0.09576 0.81322 0.83246 0.0
H513 H 0.06884 0.74543 0.73198 0.0
H514 H 0.0896 0.78897 0.68332 0.0
H515 H 0.1203 0.84407 0.66956 0.0
H516 H 0.14509 0.91292 0.76982 0.0
H517 H 0.11995 0.87144 0.81814 0.0
C518 C 0.09408 0.80818 0.79989 0.0
C519 C 0.08116 0.77597 0.78592 0.0
C520 C 0.10585 0.83345 0.77199 0.0
C521 C 0.07866 0.77 0.7436 0.0
C522 C 0.09071 0.79482 0.71571 0.0
C523 C 0.11983 0.85016 0.70194 0.0
C524 C 0.13493 0.88134 0.71607 0.0
C525 C 0.10511 0.82628 0.72959 0.0
C526 C 0.13365 0.8891 0.75808 0.0
C527 C 0.11945 0.8653 0.7858 0.0
H528 H 0.59916 0.13635 0.26363 0.0
H529 H 0.64144 0.10525 0.14701 0.0
H530 H 0.68758 0.07258 0.18134 0.0
H531 H 0.72023 0.05956 0.24385 0.0
H532 H 0.68088 0.09481 0.36029 0.0
H533 H 0.62912 0.11866 0.32683 0.0
C534 C 0.61802 0.12177 0.2458 0.0
C535 C 0.61705 0.12341 0.20287 0.0
C536 C 0.64526 0.10406 0.26573 0.0
C537 C 0.64184 0.10464 0.18012 0.0
C538 C 0.66827 0.086 0.19972 0.0
C539 C 0.69997 0.07175 0.26204 0.0
C540 C 0.70455 0.07564 0.30445 0.0
C541 C 0.67092 0.08652 0.24245 0.0
C542 C 0.67813 0.09176 0.32752 0.0
C543 C 0.64856 0.10548 0.3084 0.0
H544 H 0.4025 0.81626 0.15094 0.0
H545 H 0.45432 0.76238 0.24964 0.0
H546 H 0.43474 0.80675 0.29777 0.0
H547 H 0.3959 0.85594 0.31328 0.0
H548 H 0.34528 0.91095 0.21475 0.0
H549 H 0.37174 0.87138 0.16505 0.0
C550 C 0.41007 0.81465 0.18284 0.0
C551 C 0.42931 0.78576 0.19678 0.0
C552 C 0.39863 0.84023 0.21047 0.0
C553 C 0.43944 0.78428 0.23807 0.0
C554 C 0.42803 0.80952 0.26573 0.0
C555 C 0.3912 0.8596 0.28085 0.0
C556 C 0.36824 0.88585 0.26769 0.0
C557 C 0.40653 0.83683 0.25251 0.0
C558 C 0.3628 0.89081 0.22561 0.0
C559 C 0.37774 0.86806 0.1972 0.0
H560 H 0.68815 0.40119 0.66585 0.0
H561 H 0.74558 0.44953 0.76427 0.0
H562 H 0.69905 0.43487 0.81205 0.0
H563 H 0.64626 0.40111 0.82757 0.0
H564 H 0.58807 0.35361 0.72936 0.0
H565 H 0.63034 0.37567 0.67975 0.0
C566 C 0.69019 0.40904 0.69762 0.0
C567 C 0.7206 0.42585 0.71158 0.0
C568 C 0.66332 0.40046 0.72505 0.0
C569 C 0.72257 0.43642 0.75269 0.0
C570 C 0.69605 0.42787 0.78014 0.0
C571 C 0.64248 0.3962 0.79521 0.0
C572 C 0.61443 0.37533 0.7822 0.0
C573 C 0.66694 0.40881 0.76693 0.0
C574 C 0.60948 0.3696 0.74016 0.0
C575 C 0.63381 0.38196 0.7118 0.0
H576 H 0.10761 0.64132 0.32118 0.0
H577 H 0.15843 0.58843 0.22134 0.0
H578 H 0.13179 0.62892 0.17261 0.0
H579 H 0.09954 0.68359 0.15965 0.0
H580 H 0.04734 0.73482 0.25998 0.0
H581 H 0.06863 0.69052 0.30706 0.0
C582 C 0.11236 0.63835 0.28867 0.0
C583 C 0.13526 0.61233 0.27485 0.0
C584 C 0.09693 0.66159 0.26094 0.0
C585 C 0.14085 0.60832 0.23266 0.0
C586 C 0.12584 0.63161 0.20483 0.0
C587 C 0.09244 0.68474 0.19171 0.0
C588 C 0.07234 0.71279 0.20633 0.0
C589 C 0.10469 0.65901 0.21878 0.0
C590 C 0.06285 0.71361 0.24785 0.0
C591 C 0.07517 0.68837 0.27493 0.0
H592 H 0.90248 0.12876 0.75634 0.0
H593 H 0.84445 0.10767 0.86655 0.0
H594 H 0.79871 0.07924 0.82659 0.0
H595 H 0.7716 0.06769 0.75981 0.0
H596 H 0.82714 0.09415 0.64952 0.0
H597 H 0.87761 0.11256 0.68984 0.0
C598 C 0.88022 0.11723 0.77169 0.0
C599 C 0.87679 0.1205 0.81433 0.0
C600 C 0.85337 0.1021 0.74837 0.0
C601 C 0.84758 0.10573 0.83372 0.0
C602 C 0.82138 0.08952 0.81088 0.0
C603 C 0.79512 0.07661 0.74464 0.0
C604 C 0.7957 0.0796 0.70182 0.0
C605 C 0.82344 0.08859 0.76809 0.0
C606 C 0.8261 0.09174 0.6825 0.0
C607 C 0.85489 0.10239 0.70554 0.0
H608 H 0.55925 0.22605 0.06463 0.0
H609 H 0.44864 0.23519 0.08538 0.0
H610 H 0.44157 0.26283 0.01803 0.0
H611 H 0.46762 0.28387 0.95249 0.0
H612 H 0.57922 0.27761 0.93698 0.0
H613 H 0.5851 0.24915 0.00278 0.0
C614 C 0.53354 0.23412 0.05461 0.0
C615 C 0.5045 0.22841 0.07982 0.0
C616 C 0.52989 0.25036 0.01655 0.0
C617 C 0.47144 0.23942 0.06648 0.0
C618 C 0.4674 0.25506 0.02793 0.0
C619 C 0.49311 0.27609 0.96362 0.0
C620 C 0.52293 0.28262 0.93966 0.0
C621 C 0.4965 0.26051 0.00253 0.0
C622 C 0.55587 0.27296 0.95463 0.0
C623 C 0.5593 0.25663 0.99237 0.0
H624 H 0.22415 0.46796 0.44744 0.0
H625 H 0.23756 0.57827 0.42713 0.0
H626 H 0.26531 0.58459 0.49344 0.0
H627 H 0.2846 0.55957 0.55791 0.0
H628 H 0.26735 0.45057 0.58287 0.0
H629 H 0.24216 0.44288 0.51444 0.0
C630 C 0.23343 0.49324 0.45759 0.0
C631 C 0.22901 0.52256 0.43227 0.0
C632 C 0.24843 0.49697 0.49674 0.0
C633 C 0.24058 0.5553 0.44593 0.0
C634 C 0.25649 0.55898 0.48394 0.0
C635 C 0.27539 0.53409 0.54844 0.0
C636 C 0.27795 0.50568 0.57531 0.0
C637 C 0.26031 0.53011 0.50969 0.0
C638 C 0.26557 0.47289 0.56269 0.0
C639 C 0.25126 0.46848 0.52355 0.0
H640 H 0.02942 0.27581 0.0697 0.0
H641 H 0.91802 0.292 0.07303 0.0
H642 H 0.91145 0.26204 0.00825 0.0
H643 H 0.93666 0.23025 0.9511 0.0
H644 H 0.04808 0.2177 0.94253 0.0
H645 H 0.05548 0.24747 0.00848 0.0
C646 C 0.00379 0.27271 0.05613 0.0
C647 C 0.97422 0.28569 0.07657 0.0
C648 C 1.0002 0.25623 0.01784 0.0
C649 C 0.94121 0.28209 0.05832 0.0
C650 C 0.93736 0.26493 0.02111 0.0
C651 C 0.96258 0.2341 0.96359 0.0
C652 C 0.99174 0.22157 0.94237 0.0
C653 C 0.96658 0.25176 0.00075 0.0
C654 C 0.02524 0.22722 0.95849 0.0
C655 C 0.02943 0.24408 0.99621 0.0
H656 H 0.27306 0.02849 0.43835 0.0
H657 H 0.27222 0.91652 0.4257 0.0
H658 H 0.24557 0.91049 0.4927 0.0
H659 H 0.22284 0.93655 0.55526 0.0
H660 H 0.22698 0.04799 0.57175 0.0
H661 H 0.25224 0.05475 0.50334 0.0
C662 C 0.26683 0.00286 0.45031 0.0
C663 C 0.27438 0.97302 0.42692 0.0
C664 C 0.25233 0.99946 0.48971 0.0
C665 C 0.26671 0.93992 0.44297 0.0
C666 C 0.25144 0.9364 0.48138 0.0
C667 C 0.22929 0.96233 0.54393 0.0
C668 C 0.22291 0.99172 0.56837 0.0
C669 C 0.24425 0.96592 0.50506 0.0
C670 C 0.23174 0.02494 0.55346 0.0
C671 C 0.24605 0.02882 0.51431 0.0
H672 H 0.44148 0.78156 0.93014 0.0
H673 H 0.55181 0.76841 0.90976 0.0
H674 H 0.55806 0.74125 0.97715 0.0
H675 H 0.53182 0.7216 0.04231 0.0
H676 H 0.42066 0.73116 0.0592 0.0
H677 H 0.41507 0.75966 0.99302 0.0
C678 C 0.46688 0.7727 0.94043 0.0
C679 C 0.49615 0.77711 0.91526 0.0
C680 C 0.47013 0.75668 0.97872 0.0
C681 C 0.52886 0.7652 0.9287 0.0
C682 C 0.53247 0.74982 0.96724 0.0
C683 C 0.50648 0.73013 0.03143 0.0
C684 C 0.47674 0.7246 0.05564 0.0
C685 C 0.50328 0.74556 0.99262 0.0
C686 C 0.44393 0.73515 0.04112 0.0
C687 C 0.44068 0.75145 0.00325 0.0
H688 H 0.7774 0.52493 0.56279 0.0
H689 H 0.7795 0.41252 0.56801 0.0
H690 H 0.74785 0.40915 0.50359 0.0
H691 H 0.72017 0.43783 0.44539 0.0
H692 H 0.72165 0.54996 0.4362 0.0
H693 H 0.7513 0.55385 0.50246 0.0
C694 C 0.77076 0.49976 0.54981 0.0
C695 C 0.78054 0.46904 0.57026 0.0
C696 C 0.75331 0.49797 0.51202 0.0
C697 C 0.77224 0.43656 0.55293 0.0
C698 C 0.75412 0.43458 0.51606 0.0
C699 C 0.72691 0.46313 0.45789 0.0
C700 C 0.71863 0.49356 0.43613 0.0
C701 C 0.74462 0.46508 0.49531 0.0
C702 C 0.72787 0.52616 0.45247 0.0
C703 C 0.74474 0.52838 0.49034 0.0
H704 H 0.98265 0.8057 0.036 0.0
H705 H 0.03484 0.72252 0.09993 0.0
H706 H 0.04285 0.69082 0.03576 0.0
H707 H 0.03693 0.6879 0.96127 0.0
H708 H 0.98103 0.76852 0.89696 0.0
H709 H 0.97223 0.8002 0.96135 0.0
C710 C 0.99535 0.78043 0.03567 0.0
C711 C 0.00845 0.76638 0.0722 0.0
C712 C 0.9993 0.76214 0.99868 0.0
C713 C 0.02486 0.73375 0.07192 0.0
C714 C 0.02942 0.71569 0.0353 0.0
C715 C 0.0228 0.71241 0.96141 0.0
C716 C 0.01 0.72618 0.92458 0.0
C717 C 0.01719 0.72987 0.99847 0.0
C718 C 0.99118 0.75757 0.92508 0.0
C719 C 0.98619 0.77564 0.96182 0.0
H720 H 0.72691 0.97815 0.55409 0.0
H721 H 0.73738 0.08973 0.56525 0.0
H722 H 0.76345 0.0928 0.49739 0.0
H723 H 0.78219 0.06415 0.43468 0.0
H724 H 0.76721 0.95346 0.41959 0.0
H725 H 0.74384 0.9495 0.48923 0.0
C726 C 0.73516 0.00302 0.54162 0.0
C727 C 0.73058 0.03364 0.56461 0.0
C728 C 0.74907 0.00473 0.50193 0.0
C729 C 0.74072 0.06584 0.54808 0.0
C730 C 0.75561 0.06761 0.5093 0.0
C731 C 0.77385 0.03913 0.44655 0.0
C732 C 0.77651 0.00912 0.42218 0.0
C733 C 0.75971 0.03728 0.48592 0.0
C734 C 0.7653 0.97694 0.43787 0.0
C735 C 0.75204 0.97467 0.47764 0.0
loop_
_geom_bond_atom_site_label_1
_geom_bond_atom_site_label_2
_geom_bond_distance
_geom_bond_site_symmetry_2
_ccdc_geom_bond_type
Co0 O1 2.216 . S
Co0 O2 2.091 . S
Co0 O4 2.004 . S
Co0 O10 2.021 . S
Co0 O12 2.137 . S
Co0 O13 2.244 . S
O1 Co0 2.216 . S
O1 C8 1.247 . S
O2 Co0 2.091 . S
O2 C8 1.261 . S
C3 O12 1.247 . S
C3 O13 1.272 . S
O4 Co0 2.004 . S
O4 C9 1.259 . S
Co5 O6 2.061 . S
Co5 O11 2.052 . S
Co5 O13 2.135 . S
O6 Co5 2.061 . S
O6 C9 1.235 . S
C7 O10 1.238 . S
C7 O11 1.241 . S
C8 O1 1.247 . S
C8 O2 1.261 . S
C9 O4 1.259 . S
C9 O6 1.235 . S
O10 Co0 2.021 . S
O10 C7 1.238 . S
O11 Co5 2.052 . S
O11 C7 1.241 . S
O12 Co0 2.137 . S
O12 C3 1.247 . S
O13 Co0 2.244 . S
O13 C3 1.272 . S
O13 Co5 2.135 . S
Co14 O15 2.216 . S
Co14 O16 2.091 . S
Co14 O18 2.004 . S
Co14 O24 2.021 . S
Co14 O26 2.137 . S
Co14 O27 2.244 . S
O15 Co14 2.216 . S
O15 C22 1.247 . S
O16 Co14 2.091 . S
O16 C22 1.261 . S
C17 O26 1.247 . S
C17 O27 1.272 . S
O18 Co14 2.004 . S
O18 C23 1.259 . S
Co19 O20 2.061 . S
Co19 O25 2.052 . S
Co19 O27 2.135 . S
O20 Co19 2.061 . S
O20 C23 1.235 . S
C21 O24 1.238 . S
C21 O25 1.241 . S
C22 O15 1.247 . S
C22 O16 1.261 . S
C23 O18 1.259 . S
C23 O20 1.235 . S
O24 Co14 2.021 . S
O24 C21 1.238 . S
O25 Co19 2.052 . S
O25 C21 1.241 . S
O26 Co14 2.137 . S
O26 C17 1.247 . S
O27 Co14 2.244 . S
O27 C17 1.272 . S
O27 Co19 2.135 . S
Co28 O29 2.216 1_655 S
Co28 O30 2.091 1_655 S
Co28 O32 2.004 . S
Co28 O38 2.021 . S
Co28 O40 2.137 1_655 S
Co28 O41 2.244 . S
O29 Co28 2.216 1_455 S
O29 C36 1.247 . S
O30 Co28 2.091 1_455 S
O30 C36 1.261 . S
C31 O40 1.247 1_655 S
C31 O41 1.272 . S
O32 Co28 2.004 . S
O32 C37 1.259 . S
Co33 O34 2.061 . S
Co33 O39 2.052 . S
Co33 O41 2.135 . S
O34 Co33 2.061 . S
O34 C37 1.235 . S
C35 O38 1.238 . S
C35 O39 1.241 . S
C36 O29 1.247 . S
C36 O30 1.261 . S
C37 O32 1.259 . S
C37 O34 1.235 . S
O38 Co28 2.021 . S
O38 C35 1.238 . S
O39 Co33 2.052 . S
O39 C35 1.241 . S
O40 Co28 2.137 1_455 S
O40 C31 1.247 1_455 S
O41 Co28 2.244 . S
O41 C31 1.272 . S
O41 Co33 2.135 . S
Co42 O43 2.216 1_565 S
Co42 O44 2.091 1_565 S
Co42 O46 2.004 . S
Co42 O52 2.021 . S
Co42 O54 2.137 1_565 S
Co42 O55 2.244 . S
O43 Co42 2.216 1_545 S
O43 C50 1.247 . S
O44 Co42 2.091 1_545 S
O44 C50 1.261 . S
C45 O54 1.247 1_565 S
C45 O55 1.272 . S
O46 Co42 2.004 . S
O46 C51 1.259 . S
Co47 O48 2.061 . S
Co47 O53 2.052 . S
Co47 O55 2.135 . S
O48 Co47 2.061 . S
O48 C51 1.235 . S
C49 O52 1.238 . S
C49 O53 1.241 . S
C50 O43 1.247 . S
C50 O44 1.261 . S
C51 O46 1.259 . S
C51 O48 1.235 . S
O52 Co42 2.021 . S
O52 C49 1.238 . S
O53 Co47 2.052 . S
O53 C49 1.241 . S
O54 Co42 2.137 1_545 S
O54 C45 1.247 1_545 S
O55 Co42 2.244 . S
O55 C45 1.272 . S
O55 Co47 2.135 . S
Co56 O57 2.216 . S
Co56 O58 2.091 . S
Co56 O60 2.004 . S
Co56 O66 2.021 . S
Co56 O68 2.137 . S
Co56 O69 2.244 . S
O57 Co56 2.216 . S
O57 C64 1.247 . S
O58 Co56 2.091 . S
O58 C64 1.261 . S
C59 O68 1.247 . S
C59 O69 1.272 . S
O60 Co56 2.004 . S
O60 C65 1.259 . S
Co61 O62 2.061 . S
Co61 O67 2.052 . S
Co61 O69 2.135 . S
O62 Co61 2.061 . S
O62 C65 1.235 . S
C63 O66 1.238 . S
C63 O67 1.241 . S
C64 O57 1.247 . S
C64 O58 1.261 . S
C65 O60 1.259 . S
C65 O62 1.235 . S
O66 Co56 2.021 . S
O66 C63 1.238 . S
O67 Co61 2.052 . S
O67 C63 1.241 . S
O68 Co56 2.137 . S
O68 C59 1.247 . S
O69 Co56 2.244 . S
O69 C59 1.272 . S
O69 Co61 2.135 . S
Co70 O71 2.216 . S
Co70 O72 2.091 . S
Co70 O74 2.004 . S
Co70 O80 2.021 . S
Co70 O82 2.137 . S
Co70 O83 2.244 . S
O71 Co70 2.216 . S
O71 C78 1.247 . S
O72 Co70 2.091 . S
O72 C78 1.261 . S
C73 O82 1.247 . S
C73 O83 1.272 . S
O74 Co70 2.004 . S
O74 C79 1.259 . S
Co75 O76 2.061 . S
Co75 O81 2.052 . S
Co75 O83 2.135 . S
O76 Co75 2.061 . S
O76 C79 1.235 . S
C77 O80 1.238 . S
C77 O81 1.241 . S
C78 O71 1.247 . S
C78 O72 1.261 . S
C79 O74 1.259 . S
C79 O76 1.235 . S
O80 Co70 2.021 . S
O80 C77 1.238 . S
O81 Co75 2.052 . S
O81 C77 1.241 . S
O82 Co70 2.137 . S
O82 C73 1.247 . S
O83 Co70 2.244 . S
O83 C73 1.272 . S
O83 Co75 2.135 . S
Co84 O85 2.216 1_655 S
Co84 O86 2.091 1_655 S
Co84 O88 2.004 . S
Co84 O94 2.021 . S
Co84 O96 2.137 1_655 S
Co84 O97 2.244 . S
O85 Co84 2.216 1_455 S
O85 C92 1.247 . S
O86 Co84 2.091 1_455 S
O86 C92 1.261 . S
C87 O96 1.247 1_655 S
C87 O97 1.272 . S
O88 Co84 2.004 . S
O88 C93 1.259 . S
Co89 O90 2.061 . S
Co89 O95 2.052 . S
Co89 O97 2.135 . S
O90 Co89 2.061 . S
O90 C93 1.235 . S
C91 O94 1.238 . S
C91 O95 1.241 . S
C92 O85 1.247 . S
C92 O86 1.261 . S
C93 O88 1.259 . S
C93 O90 1.235 . S
O94 Co84 2.021 . S
O94 C91 1.238 . S
O95 Co89 2.052 . S
O95 C91 1.241 . S
O96 Co84 2.137 1_455 S
O96 C87 1.247 1_455 S
O97 Co84 2.244 . S
O97 C87 1.272 . S
O97 Co89 2.135 . S
Co98 O99 2.216 1_565 S
Co98 O100 2.091 1_565 S
Co98 O102 2.004 . S
Co98 O108 2.021 . S
Co98 O110 2.137 1_565 S
Co98 O111 2.244 . S
O99 Co98 2.216 1_545 S
O99 C106 1.247 . S
O100 Co98 2.091 1_545 S
O100 C106 1.261 . S
C101 O110 1.247 1_565 S
C101 O111 1.272 . S
O102 Co98 2.004 . S
O102 C107 1.259 . S
Co103 O104 2.061 . S
Co103 O109 2.052 . S
Co103 O111 2.135 . S
O104 Co103 2.061 . S
O104 C107 1.235 . S
C105 O108 1.238 . S
C105 O109 1.241 . S
C106 O99 1.247 . S
C106 O100 1.261 . S
C107 O102 1.259 . S
C107 O104 1.235 . S
O108 Co98 2.021 . S
O108 C105 1.238 . S
O109 Co103 2.052 . S
O109 C105 1.241 . S
O110 Co98 2.137 1_545 S
O110 C101 1.247 1_545 S
O111 Co98 2.244 . S
O111 C101 1.272 . S
O111 Co103 2.135 . S
Co112 O113 2.216 . S
Co112 O114 2.091 . S
Co112 O116 2.004 . S
Co112 O122 2.021 . S
Co112 O124 2.137 . S
Co112 O125 2.244 . S
O113 Co112 2.216 . S
O113 C120 1.247 . S
O114 Co112 2.091 . S
O114 C120 1.261 . S
C115 O124 1.247 . S
C115 O125 1.272 . S
O116 Co112 2.004 . S
O116 C121 1.259 . S
Co117 O118 2.061 . S
Co117 O123 2.052 . S
Co117 O125 2.135 . S
O118 Co117 2.061 . S
O118 C121 1.235 . S
C119 O122 1.238 . S
C119 O123 1.241 . S
C120 O113 1.247 . S
C120 O114 1.261 . S
C121 O116 1.259 . S
C121 O118 1.235 . S
O122 Co112 2.021 . S
O122 C119 1.238 . S
O123 Co117 2.052 . S
O123 C119 1.241 . S
O124 Co112 2.137 . S
O124 C115 1.247 . S
O125 Co112 2.244 . S
O125 C115 1.272 . S
O125 Co117 2.135 . S
Co126 O127 2.216 . S
Co126 O128 2.091 . S
Co126 O130 2.004 . S
Co126 O136 2.021 . S
Co126 O138 2.137 . S
Co126 O139 2.244 . S
O127 Co126 2.216 . S
O127 C134 1.247 . S
O128 Co126 2.091 . S
O128 C134 1.261 . S
C129 O138 1.247 . S
C129 O139 1.272 . S
O130 Co126 2.004 . S
O130 C135 1.259 . S
Co131 O132 2.061 . S
Co131 O137 2.052 . S
Co131 O139 2.135 . S
O132 Co131 2.061 . S
O132 C135 1.235 . S
C133 O136 1.238 . S
C133 O137 1.241 . S
C134 O127 1.247 . S
C134 O128 1.261 . S
C135 O130 1.259 . S
C135 O132 1.235 . S
O136 Co126 2.021 . S
O136 C133 1.238 . S
O137 Co131 2.052 . S
O137 C133 1.241 . S
O138 Co126 2.137 . S
O138 C129 1.247 . S
O139 Co126 2.244 . S
O139 C129 1.272 . S
O139 Co131 2.135 . S
Co140 O141 2.216 1_455 S
Co140 O142 2.091 1_455 S
Co140 O144 2.004 . S
Co140 O150 2.021 . S
Co140 O152 2.137 1_455 S
Co140 O153 2.244 . S
O141 Co140 2.216 1_655 S
O141 C148 1.247 . S
O142 Co140 2.091 1_655 S
O142 C148 1.261 . S
C143 O152 1.247 1_455 S
C143 O153 1.272 . S
O144 Co140 2.004 . S
O144 C149 1.259 . S
Co145 O146 2.061 . S
Co145 O151 2.052 . S
Co145 O153 2.135 . S
O146 Co145 2.061 . S
O146 C149 1.235 . S
C147 O150 1.238 . S
C147 O151 1.241 . S
C148 O141 1.247 . S
C148 O142 1.261 . S
C149 O144 1.259 . S
C149 O146 1.235 . S
O150 Co140 2.021 . S
O150 C147 1.238 . S
O151 Co145 2.052 . S
O151 C147 1.241 . S
O152 Co140 2.137 1_655 S
O152 C143 1.247 1_655 S
O153 Co140 2.244 . S
O153 C143 1.272 . S
O153 Co145 2.135 . S
Co154 O155 2.216 1_545 S
Co154 O156 2.091 1_545 S
Co154 O158 2.004 . S
Co154 O164 2.021 . S
Co154 O166 2.137 1_545 S
Co154 O167 2.244 . S
O155 Co154 2.216 1_565 S
O155 C162 1.247 . S
O156 Co154 2.091 1_565 S
O156 C162 1.261 . S
C157 O166 1.247 1_545 S
C157 O167 1.272 . S
O158 Co154 2.004 . S
O158 C163 1.259 . S
Co159 O160 2.061 . S
Co159 O165 2.052 . S
Co159 O167 2.135 . S
O160 Co159 2.061 . S
O160 C163 1.235 . S
C161 O164 1.238 . S
C161 O165 1.241 . S
C162 O155 1.247 . S
C162 O156 1.261 . S
C163 O158 1.259 . S
C163 O160 1.235 . S
O164 Co154 2.021 . S
O164 C161 1.238 . S
O165 Co159 2.052 . S
O165 C161 1.241 . S
O166 Co154 2.137 1_565 S
O166 C157 1.247 1_565 S
O167 Co154 2.244 . S
O167 C157 1.272 . S
O167 Co159 2.135 . S
Co168 O169 2.216 . S
Co168 O170 2.091 . S
Co168 O172 2.004 . S
Co168 O178 2.021 . S
Co168 O180 2.137 . S
Co168 O181 2.244 . S
O169 Co168 2.216 . S
O169 C176 1.247 . S
O170 Co168 2.091 . S
O170 C176 1.261 . S
C171 O180 1.247 . S
C171 O181 1.272 . S
O172 Co168 2.004 . S
O172 C177 1.259 . S
Co173 O174 2.061 . S
Co173 O179 2.052 . S
Co173 O181 2.135 . S
O174 Co173 2.061 . S
O174 C177 1.235 . S
C175 O178 1.238 . S
C175 O179 1.241 . S
C176 O169 1.247 . S
C176 O170 1.261 . S
C177 O172 1.259 . S
C177 O174 1.235 . S
O178 Co168 2.021 . S
O178 C175 1.238 . S
O179 Co173 2.052 . S
O179 C175 1.241 . S
O180 Co168 2.137 . S
O180 C171 1.247 . S
O181 Co168 2.244 . S
O181 C171 1.272 . S
O181 Co173 2.135 . S
Co182 O183 2.216 . S
Co182 O184 2.091 . S
Co182 O186 2.004 . S
Co182 O192 2.021 . S
Co182 O194 2.137 . S
Co182 O195 2.244 . S
O183 Co182 2.216 . S
O183 C190 1.247 . S
O184 Co182 2.091 . S
O184 C190 1.261 . S
C185 O194 1.247 . S
C185 O195 1.272 . S
O186 Co182 2.004 . S
O186 C191 1.259 . S
Co187 O188 2.061 . S
Co187 O193 2.052 . S
Co187 O195 2.135 . S
O188 Co187 2.061 . S
O188 C191 1.235 . S
C189 O192 1.238 . S
C189 O193 1.241 . S
C190 O183 1.247 . S
C190 O184 1.261 . S
C191 O186 1.259 . S
C191 O188 1.235 . S
O192 Co182 2.021 . S
O192 C189 1.238 . S
O193 Co187 2.052 . S
O193 C189 1.241 . S
O194 Co182 2.137 . S
O194 C185 1.247 . S
O195 Co182 2.244 . S
O195 C185 1.272 . S
O195 Co187 2.135 . S
Co196 O197 2.216 1_455 S
Co196 O198 2.091 1_455 S
Co196 O200 2.004 . S
Co196 O206 2.021 . S
Co196 O208 2.137 1_455 S
Co196 O209 2.244 . S
O197 Co196 2.216 1_655 S
O197 C204 1.247 . S
O198 Co196 2.091 1_655 S
O198 C204 1.261 . S
C199 O208 1.247 1_455 S
C199 O209 1.272 . S
O200 Co196 2.004 . S
O200 C205 1.259 . S
Co201 O202 2.061 . S
Co201 O207 2.052 . S
Co201 O209 2.135 . S
O202 Co201 2.061 . S
O202 C205 1.235 . S
C203 O206 1.238 . S
C203 O207 1.241 . S
C204 O197 1.247 . S
C204 O198 1.261 . S
C205 O200 1.259 . S
C205 O202 1.235 . S
O206 Co196 2.021 . S
O206 C203 1.238 . S
O207 Co201 2.052 . S
O207 C203 1.241 . S
O208 Co196 2.137 1_655 S
O208 C199 1.247 1_655 S
O209 Co196 2.244 . S
O209 C199 1.272 . S
O209 Co201 2.135 . S
Co210 O211 2.216 1_545 S
Co210 O212 2.091 1_545 S
Co210 O214 2.004 . S
Co210 O220 2.021 . S
Co210 O222 2.137 1_545 S
Co210 O223 2.244 . S
O211 Co210 2.216 1_565 S
O211 C218 1.247 . S
O212 Co210 2.091 1_565 S
O212 C218 1.261 . S
C213 O222 1.247 1_545 S
C213 O223 1.272 . S
O214 Co210 2.004 . S
O214 C219 1.259 . S
Co215 O216 2.061 . S
Co215 O221 2.052 . S
Co215 O223 2.135 . S
O216 Co215 2.061 . S
O216 C219 1.235 . S
C217 O220 1.238 . S
C217 O221 1.241 . S
C218 O211 1.247 . S
C218 O212 1.261 . S
C219 O214 1.259 . S
C219 O216 1.235 . S
O220 Co210 2.021 . S
O220 C217 1.238 . S
O221 Co215 2.052 . S
O221 C217 1.241 . S
O222 Co210 2.137 1_565 S
O222 C213 1.247 1_565 S
O223 Co210 2.244 . S
O223 C213 1.272 . S
O223 Co215 2.135 . S
H224 C230 0.930 . S
H225 C233 0.930 . S
H226 C234 0.930 . S
H227 C235 0.930 . S
H228 C238 0.930 . S
H229 C239 0.930 . S
C230 H224 0.930 . S
C230 C231 1.355 . S
C230 C232 1.415 . S
C231 C230 1.355 . S
C231 C233 1.419 . S
C232 C230 1.415 . S
C232 C237 1.425 . S
C232 C239 1.409 . S
C233 H225 0.930 . S
C233 C231 1.419 . S
C233 C234 1.362 . S
C234 H226 0.930 . S
C234 C233 1.362 . S
C234 C237 1.409 . S
C235 H227 0.930 . S
C235 C236 1.355 . S
C235 C237 1.415 . S
C236 C235 1.355 . S
C236 C238 1.419 . S
C237 C232 1.425 . S
C237 C234 1.409 . S
C237 C235 1.415 . S
C238 H228 0.930 . S
C238 C236 1.419 . S
C238 C239 1.362 . S
C239 H229 0.930 . S
C239 C232 1.409 . S
C239 C238 1.362 . S
H240 C246 0.930 . S
H241 C249 0.930 . S
H242 C250 0.930 . S
H243 C251 0.930 . S
H244 C254 0.930 . S
H245 C255 0.930 . S
C246 H240 0.930 . S
C246 C247 1.355 . S
C246 C248 1.415 . S
C247 C246 1.355 . S
C247 C249 1.419 . S
C248 C246 1.415 . S
C248 C253 1.425 . S
C248 C255 1.409 . S
C249 H241 0.930 . S
C249 C247 1.419 . S
C249 C250 1.362 . S
C250 H242 0.930 . S
C250 C249 1.362 . S
C250 C253 1.409 . S
C251 H243 0.930 . S
C251 C252 1.355 . S
C251 C253 1.415 . S
C252 C251 1.355 . S
C252 C254 1.419 . S
C253 C248 1.425 . S
C253 C250 1.409 . S
C253 C251 1.415 . S
C254 H244 0.930 . S
C254 C252 1.419 . S
C254 C255 1.362 . S
C255 H245 0.930 . S
C255 C248 1.409 . S
C255 C254 1.362 . S
H256 C262 0.930 . S
H257 C265 0.930 . S
H258 C266 0.930 . S
H259 C267 0.930 . S
H260 C270 0.930 . S
H261 C271 0.930 . S
C262 H256 0.930 . S
C262 C263 1.355 . S
C262 C264 1.415 . S
C263 C262 1.355 . S
C263 C265 1.419 . S
C264 C262 1.415 . S
C264 C269 1.425 . S
C264 C271 1.409 . S
C265 H257 0.930 . S
C265 C263 1.419 . S
C265 C266 1.362 . S
C266 H258 0.930 . S
C266 C265 1.362 . S
C266 C269 1.409 . S
C267 H259 0.930 . S
C267 C268 1.355 . S
C267 C269 1.415 . S
C268 C267 1.355 . S
C268 C270 1.419 . S
C269 C264 1.425 . S
C269 C266 1.409 . S
C269 C267 1.415 . S
C270 H260 0.930 . S
C270 C268 1.419 . S
C270 C271 1.362 . S
C271 H261 0.930 . S
C271 C264 1.409 . S
C271 C270 1.362 . S
H272 C278 0.930 . S
H273 C281 0.930 . S
H274 C282 0.930 . S
H275 C283 0.930 . S
H276 C286 0.930 . S
H277 C287 0.930 . S
C278 H272 0.930 . S
C278 C279 1.355 . S
C278 C280 1.415 . S
C279 C278 1.355 . S
C279 C281 1.419 . S
C280 C278 1.415 . S
C280 C285 1.425 . S
C280 C287 1.409 . S
C281 H273 0.930 . S
C281 C279 1.419 . S
C281 C282 1.362 . S
C282 H274 0.930 . S
C282 C281 1.362 . S
C282 C285 1.409 . S
C283 H275 0.930 . S
C283 C284 1.355 . S
C283 C285 1.415 . S
C284 C283 1.355 . S
C284 C286 1.419 . S
C285 C280 1.425 . S
C285 C282 1.409 . S
C285 C283 1.415 . S
C286 H276 0.930 . S
C286 C284 1.419 . S
C286 C287 1.362 . S
C287 H277 0.930 . S
C287 C280 1.409 . S
C287 C286 1.362 . S
H288 C294 0.930 . S
H289 C297 0.930 . S
H290 C298 0.930 . S
H291 C299 0.930 . S
H292 C302 0.930 . S
H293 C303 0.930 . S
C294 H288 0.930 . S
C294 C295 1.355 . S
C294 C296 1.415 . S
C295 C294 1.355 . S
C295 C297 1.419 . S
C296 C294 1.415 . S
C296 C301 1.425 . S
C296 C303 1.409 . S
C297 H289 0.930 . S
C297 C295 1.419 . S
C297 C298 1.362 . S
C298 H290 0.930 . S
C298 C297 1.362 . S
C298 C301 1.409 . S
C299 H291 0.930 . S
C299 C300 1.355 . S
C299 C301 1.415 . S
C300 C299 1.355 . S
C300 C302 1.419 . S
C301 C296 1.425 . S
C301 C298 1.409 . S
C301 C299 1.415 . S
C302 H292 0.930 . S
C302 C300 1.419 . S
C302 C303 1.362 . S
C303 H293 0.930 . S
C303 C296 1.409 . S
C303 C302 1.362 . S
H304 C310 0.930 . S
H305 C313 0.930 . S
H306 C314 0.930 . S
H307 C315 0.930 . S
H308 C318 0.930 . S
H309 C319 0.930 . S
C310 H304 0.930 . S
C310 C311 1.355 . S
C310 C312 1.415 . S
C311 C310 1.355 . S
C311 C313 1.419 . S
C312 C310 1.415 . S
C312 C317 1.425 . S
C312 C319 1.409 . S
C313 H305 0.930 . S
C313 C311 1.419 . S
C313 C314 1.362 . S
C314 H306 0.930 . S
C314 C313 1.362 . S
C314 C317 1.409 . S
C315 H307 0.930 . S
C315 C316 1.355 . S
C315 C317 1.415 . S
C316 C315 1.355 . S
C316 C318 1.419 . S
C317 C312 1.425 . S
C317 C314 1.409 . S
C317 C315 1.415 . S
C318 H308 0.930 . S
C318 C316 1.419 . S
C318 C319 1.362 . S
C319 H309 0.930 . S
C319 C312 1.409 . S
C319 C318 1.362 . S
H320 C326 0.930 . S
H321 C329 0.930 . S
H322 C330 0.930 . S
H323 C331 0.930 . S
H324 C334 0.930 . S
H325 C335 0.930 . S
C326 H320 0.930 . S
C326 C327 1.355 . S
C326 C328 1.415 . S
C327 C326 1.355 . S
C327 C329 1.419 . S
C328 C326 1.415 . S
C328 C333 1.425 . S
C328 C335 1.409 . S
C329 H321 0.930 . S
C329 C327 1.419 . S
C329 C330 1.362 . S
C330 H322 0.930 . S
C330 C329 1.362 . S
C330 C333 1.409 . S
C331 H323 0.930 . S
C331 C332 1.355 . S
C331 C333 1.415 . S
C332 C331 1.355 . S
C332 C334 1.419 . S
C333 C328 1.425 . S
C333 C330 1.409 . S
C333 C331 1.415 . S
C334 H324 0.930 . S
C334 C332 1.419 . S
C334 C335 1.362 . S
C335 H325 0.930 . S
C335 C328 1.409 . S
C335 C334 1.362 . S
H336 C342 0.930 . S
H337 C345 0.930 . S
H338 C346 0.930 . S
H339 C347 0.930 . S
H340 C350 0.930 . S
H341 C351 0.930 . S
C342 H336 0.930 . S
C342 C343 1.355 . S
C342 C344 1.415 . S
C343 C342 1.355 . S
C343 C345 1.419 . S
C344 C342 1.415 . S
C344 C349 1.425 . S
C344 C351 1.409 . S
C345 H337 0.930 . S
C345 C343 1.419 . S
C345 C346 1.362 . S
C346 H338 0.930 . S
C346 C345 1.362 . S
C346 C349 1.409 . S
C347 H339 0.930 . S
C347 C348 1.355 . S
C347 C349 1.415 . S
C348 C347 1.355 . S
C348 C350 1.419 . S
C349 C344 1.425 . S
C349 C346 1.409 . S
C349 C347 1.415 . S
C350 H340 0.930 . S
C350 C348 1.419 . S
C350 C351 1.362 . S
C351 H341 0.930 . S
C351 C344 1.409 . S
C351 C350 1.362 . S
H352 C358 0.930 . S
H353 C361 0.930 . S
H354 C362 0.930 . S
H355 C363 0.930 . S
H356 C366 0.930 . S
H357 C367 0.930 . S
C358 H352 0.930 . S
C358 C359 1.355 . S
C358 C360 1.415 . S
C359 C358 1.355 . S
C359 C361 1.419 . S
C360 C358 1.415 . S
C360 C365 1.425 . S
C360 C367 1.409 . S
C361 H353 0.930 . S
C361 C359 1.419 . S
C361 C362 1.362 . S
C362 H354 0.930 . S
C362 C361 1.362 . S
C362 C365 1.409 . S
C363 H355 0.930 . S
C363 C364 1.355 . S
C363 C365 1.415 . S
C364 C363 1.355 . S
C364 C366 1.419 . S
C365 C360 1.425 . S
C365 C362 1.409 . S
C365 C363 1.415 . S
C366 H356 0.930 . S
C366 C364 1.419 . S
C366 C367 1.362 . S
C367 H357 0.930 . S
C367 C360 1.409 . S
C367 C366 1.362 . S
H368 C374 0.930 . S
H369 C377 0.930 . S
H370 C378 0.930 . S
H371 C379 0.930 . S
H372 C382 0.930 . S
H373 C383 0.930 . S
C374 H368 0.930 . S
C374 C375 1.355 . S
C374 C376 1.415 . S
C375 C374 1.355 . S
C375 C377 1.419 . S
C376 C374 1.415 . S
C376 C381 1.425 . S
C376 C383 1.409 . S
C377 H369 0.930 . S
C377 C375 1.419 . S
C377 C378 1.362 . S
C378 H370 0.930 . S
C378 C377 1.362 . S
C378 C381 1.409 . S
C379 H371 0.930 . S
C379 C380 1.355 . S
C379 C381 1.415 . S
C380 C379 1.355 . S
C380 C382 1.419 . S
C381 C376 1.425 . S
C381 C378 1.409 . S
C381 C379 1.415 . S
C382 H372 0.930 . S
C382 C380 1.419 . S
C382 C383 1.362 . S
C383 H373 0.930 . S
C383 C376 1.409 . S
C383 C382 1.362 . S
H384 C390 0.930 . S
H385 C393 0.930 . S
H386 C394 0.930 . S
H387 C395 0.930 . S
H388 C398 0.930 . S
H389 C399 0.930 . S
C390 H384 0.930 . S
C390 C391 1.355 . S
C390 C392 1.415 . S
C391 C390 1.355 . S
C391 C393 1.419 . S
C392 C390 1.415 . S
C392 C397 1.425 . S
C392 C399 1.409 . S
C393 H385 0.930 . S
C393 C391 1.419 . S
C393 C394 1.362 . S
C394 H386 0.930 . S
C394 C393 1.362 . S
C394 C397 1.409 . S
C395 H387 0.930 . S
C395 C396 1.355 . S
C395 C397 1.415 . S
C396 C395 1.355 . S
C396 C398 1.419 . S
C397 C392 1.425 . S
C397 C394 1.409 . S
C397 C395 1.415 . S
C398 H388 0.930 . S
C398 C396 1.419 . S
C398 C399 1.362 . S
C399 H389 0.930 . S
C399 C392 1.409 . S
C399 C398 1.362 . S
H400 C406 0.930 . S
H401 C409 0.930 . S
H402 C410 0.930 . S
H403 C411 0.930 . S
H404 C414 0.930 . S
H405 C415 0.930 . S
C406 H400 0.930 . S
C406 C407 1.355 . S
C406 C408 1.415 . S
C407 C406 1.355 . S
C407 C409 1.419 . S
C408 C406 1.415 . S
C408 C413 1.425 . S
C408 C415 1.409 . S
C409 H401 0.930 . S
C409 C407 1.419 . S
C409 C410 1.362 . S
C410 H402 0.930 . S
C410 C409 1.362 . S
C410 C413 1.409 . S
C411 H403 0.930 . S
C411 C412 1.355 . S
C411 C413 1.415 . S
C412 C411 1.355 . S
C412 C414 1.419 . S
C413 C408 1.425 . S
C413 C410 1.409 . S
C413 C411 1.415 . S
C414 H404 0.930 . S
C414 C412 1.419 . S
C414 C415 1.362 . S
C415 H405 0.930 . S
C415 C408 1.409 . S
C415 C414 1.362 . S
H416 C422 0.930 . S
H417 C425 0.930 . S
H418 C426 0.930 . S
H419 C427 0.930 . S
H420 C430 0.930 . S
H421 C431 0.930 . S
C422 H416 0.930 . S
C422 C423 1.355 . S
C422 C424 1.415 . S
C423 C422 1.355 . S
C423 C425 1.419 . S
C424 C422 1.415 . S
C424 C429 1.425 . S
C424 C431 1.409 . S
C425 H417 0.930 . S
C425 C423 1.419 . S
C425 C426 1.362 . S
C426 H418 0.930 . S
C426 C425 1.362 . S
C426 C429 1.409 . S
C427 H419 0.930 . S
C427 C428 1.355 . S
C427 C429 1.415 . S
C428 C427 1.355 . S
C428 C430 1.419 . S
C429 C424 1.425 . S
C429 C426 1.409 . S
C429 C427 1.415 . S
C430 H420 0.930 . S
C430 C428 1.419 . S
C430 C431 1.362 . S
C431 H421 0.930 . S
C431 C424 1.409 . S
C431 C430 1.362 . S
H432 C438 0.930 . S
H433 C441 0.930 . S
H434 C442 0.930 . S
H435 C443 0.930 . S
H436 C446 0.930 . S
H437 C447 0.930 . S
C438 H432 0.930 . S
C438 C439 1.355 . S
C438 C440 1.415 . S
C439 C438 1.355 . S
C439 C441 1.419 . S
C440 C438 1.415 . S
C440 C445 1.425 . S
C440 C447 1.409 . S
C441 H433 0.930 . S
C441 C439 1.419 . S
C441 C442 1.362 . S
C442 H434 0.930 . S
C442 C441 1.362 . S
C442 C445 1.409 . S
C443 H435 0.930 . S
C443 C444 1.355 . S
C443 C445 1.415 . S
C444 C443 1.355 . S
C444 C446 1.419 . S
C445 C440 1.425 . S
C445 C442 1.409 . S
C445 C443 1.415 . S
C446 H436 0.930 . S
C446 C444 1.419 . S
C446 C447 1.362 . S
C447 H437 0.930 . S
C447 C440 1.409 . S
C447 C446 1.362 . S
H448 C454 0.930 . S
H449 C457 0.930 . S
H450 C458 0.930 . S
H451 C459 0.930 . S
H452 C462 0.930 . S
H453 C463 0.930 . S
C454 H448 0.930 . S
C454 C455 1.355 . S
C454 C456 1.415 . S
C455 C454 1.355 . S
C455 C457 1.419 . S
C456 C454 1.415 . S
C456 C461 1.425 . S
C456 C463 1.409 . S
C457 H449 0.930 . S
C457 C455 1.419 . S
C457 C458 1.362 . S
C458 H450 0.930 . S
C458 C457 1.362 . S
C458 C461 1.409 . S
C459 H451 0.930 . S
C459 C460 1.355 . S
C459 C461 1.415 . S
C460 C459 1.355 . S
C460 C462 1.419 . S
C461 C456 1.425 . S
C461 C458 1.409 . S
C461 C459 1.415 . S
C462 H452 0.930 . S
C462 C460 1.419 . S
C462 C463 1.362 . S
C463 H453 0.930 . S
C463 C456 1.409 . S
C463 C462 1.362 . S
H464 C470 0.930 . S
H465 C473 0.930 . S
H466 C474 0.930 . S
H467 C475 0.930 . S
H468 C478 0.930 . S
H469 C479 0.930 . S
C470 H464 0.930 . S
C470 C471 1.355 . S
C470 C472 1.415 . S
C471 C470 1.355 . S
C471 C473 1.419 . S
C472 C470 1.415 . S
C472 C477 1.425 . S
C472 C479 1.409 . S
C473 H465 0.930 . S
C473 C471 1.419 . S
C473 C474 1.362 . S
C474 H466 0.930 . S
C474 C473 1.362 . S
C474 C477 1.409 . S
C475 H467 0.930 . S
C475 C476 1.355 . S
C475 C477 1.415 . S
C476 C475 1.355 . S
C476 C478 1.419 . S
C477 C472 1.425 . S
C477 C474 1.409 . S
C477 C475 1.415 . S
C478 H468 0.930 . S
C478 C476 1.419 . S
C478 C479 1.362 . S
C479 H469 0.930 . S
C479 C472 1.409 . S
C479 C478 1.362 . S
H480 C486 0.930 . S
H481 C489 0.930 . S
H482 C490 0.930 . S
H483 C491 0.930 . S
H484 C494 0.930 . S
H485 C495 0.930 . S
C486 H480 0.930 . S
C486 C487 1.355 . S
C486 C488 1.415 . S
C487 C486 1.355 . S
C487 C489 1.419 . S
C488 C486 1.415 . S
C488 C493 1.425 . S
C488 C495 1.409 . S
C489 H481 0.930 . S
C489 C487 1.419 . S
C489 C490 1.362 . S
C490 H482 0.930 . S
C490 C489 1.362 . S
C490 C493 1.409 . S
C491 H483 0.930 . S
C491 C492 1.355 . S
C491 C493 1.415 . S
C492 C491 1.355 . S
C492 C494 1.419 . S
C493 C488 1.425 . S
C493 C490 1.409 . S
C493 C491 1.415 . S
C494 H484 0.930 . S
C494 C492 1.419 . S
C494 C495 1.362 . S
C495 H485 0.930 . S
C495 C488 1.409 . S
C495 C494 1.362 . S
H496 C502 0.930 . S
H497 C505 0.930 . S
H498 C506 0.930 . S
H499 C507 0.930 . S
H500 C510 0.930 . S
H501 C511 0.930 . S
C502 H496 0.930 . S
C502 C503 1.355 . S
C502 C504 1.415 . S
C503 C502 1.355 . S
C503 C505 1.419 . S
C504 C502 1.415 . S
C504 C509 1.425 . S
C504 C511 1.409 . S
C505 H497 0.930 . S
C505 C503 1.419 . S
C505 C506 1.362 . S
C506 H498 0.930 . S
C506 C505 1.362 . S
C506 C509 1.409 . S
C507 H499 0.930 . S
C507 C508 1.355 . S
C507 C509 1.415 . S
C508 C507 1.355 . S
C508 C510 1.419 . S
C509 C504 1.425 . S
C509 C506 1.409 . S
C509 C507 1.415 . S
C510 H500 0.930 . S
C510 C508 1.419 . S
C510 C511 1.362 . S
C511 H501 0.930 . S
C511 C504 1.409 . S
C511 C510 1.362 . S
H512 C518 0.930 . S
H513 C521 0.930 . S
H514 C522 0.930 . S
H515 C523 0.930 . S
H516 C526 0.930 . S
H517 C527 0.930 . S
C518 H512 0.930 . S
C518 C519 1.355 . S
C518 C520 1.415 . S
C519 C518 1.355 . S
C519 C521 1.419 . S
C520 C518 1.415 . S
C520 C525 1.425 . S
C520 C527 1.409 . S
C521 H513 0.930 . S
C521 C519 1.419 . S
C521 C522 1.362 . S
C522 H514 0.930 . S
C522 C521 1.362 . S
C522 C525 1.409 . S
C523 H515 0.930 . S
C523 C524 1.355 . S
C523 C525 1.415 . S
C524 C523 1.355 . S
C524 C526 1.419 . S
C525 C520 1.425 . S
C525 C522 1.409 . S
C525 C523 1.415 . S
C526 H516 0.930 . S
C526 C524 1.419 . S
C526 C527 1.362 . S
C527 H517 0.930 . S
C527 C520 1.409 . S
C527 C526 1.362 . S
H528 C534 0.930 . S
H529 C537 0.930 . S
H530 C538 0.930 . S
H531 C539 0.930 . S
H532 C542 0.930 . S
H533 C543 0.930 . S
C534 H528 0.930 . S
C534 C535 1.355 . S
C534 C536 1.415 . S
C535 C534 1.355 . S
C535 C537 1.419 . S
C536 C534 1.415 . S
C536 C541 1.425 . S
C536 C543 1.409 . S
C537 H529 0.930 . S
C537 C535 1.419 . S
C537 C538 1.362 . S
C538 H530 0.930 . S
C538 C537 1.362 . S
C538 C541 1.409 . S
C539 H531 0.930 . S
C539 C540 1.355 . S
C539 C541 1.415 . S
C540 C539 1.355 . S
C540 C542 1.419 . S
C541 C536 1.425 . S
C541 C538 1.409 . S
C541 C539 1.415 . S
C542 H532 0.930 . S
C542 C540 1.419 . S
C542 C543 1.362 . S
C543 H533 0.930 . S
C543 C536 1.409 . S
C543 C542 1.362 . S
H544 C550 0.930 . S
H545 C553 0.930 . S
H546 C554 0.930 . S
H547 C555 0.930 . S
H548 C558 0.930 . S
H549 C559 0.930 . S
C550 H544 0.930 . S
C550 C551 1.355 . S
C550 C552 1.415 . S
C551 C550 1.355 . S
C551 C553 1.419 . S
C552 C550 1.415 . S
C552 C557 1.425 . S
C552 C559 1.409 . S
C553 H545 0.930 . S
C553 C551 1.419 . S
C553 C554 1.362 . S
C554 H546 0.930 . S
C554 C553 1.362 . S
C554 C557 1.409 . S
C555 H547 0.930 . S
C555 C556 1.355 . S
C555 C557 1.415 . S
C556 C555 1.355 . S
C556 C558 1.419 . S
C557 C552 1.425 . S
C557 C554 1.409 . S
C557 C555 1.415 . S
C558 H548 0.930 . S
C558 C556 1.419 . S
C558 C559 1.362 . S
C559 H549 0.930 . S
C559 C552 1.409 . S
C559 C558 1.362 . S
H560 C566 0.930 . S
H561 C569 0.930 . S
H562 C570 0.930 . S
H563 C571 0.930 . S
H564 C574 0.930 . S
H565 C575 0.930 . S
C566 H560 0.930 . S
C566 C567 1.355 . S
C566 C568 1.415 . S
C567 C566 1.355 . S
C567 C569 1.419 . S
C568 C566 1.415 . S
C568 C573 1.425 . S
C568 C575 1.409 . S
C569 H561 0.930 . S
C569 C567 1.419 . S
C569 C570 1.362 . S
C570 H562 0.930 . S
C570 C569 1.362 . S
C570 C573 1.409 . S
C571 H563 0.930 . S
C571 C572 1.355 . S
C571 C573 1.415 . S
C572 C571 1.355 . S
C572 C574 1.419 . S
C573 C568 1.425 . S
C573 C570 1.409 . S
C573 C571 1.415 . S
C574 H564 0.930 . S
C574 C572 1.419 . S
C574 C575 1.362 . S
C575 H565 0.930 . S
C575 C568 1.409 . S
C575 C574 1.362 . S
H576 C582 0.930 . S
H577 C585 0.930 . S
H578 C586 0.930 . S
H579 C587 0.930 . S
H580 C590 0.930 . S
H581 C591 0.930 . S
C582 H576 0.930 . S
C582 C583 1.355 . S
C582 C584 1.415 . S
C583 C582 1.355 . S
C583 C585 1.419 . S
C584 C582 1.415 . S
C584 C589 1.425 . S
C584 C591 1.409 . S
C585 H577 0.930 . S
C585 C583 1.419 . S
C585 C586 1.362 . S
C586 H578 0.930 . S
C586 C585 1.362 . S
C586 C589 1.409 . S
C587 H579 0.930 . S
C587 C588 1.355 . S
C587 C589 1.415 . S
C588 C587 1.355 . S
C588 C590 1.419 . S
C589 C584 1.425 . S
C589 C586 1.409 . S
C589 C587 1.415 . S
C590 H580 0.930 . S
C590 C588 1.419 . S
C590 C591 1.362 . S
C591 H581 0.930 . S
C591 C584 1.409 . S
C591 C590 1.362 . S
H592 C598 0.930 . S
H593 C601 0.930 . S
H594 C602 0.930 . S
H595 C603 0.930 . S
H596 C606 0.930 . S
H597 C607 0.930 . S
C598 H592 0.930 . S
C598 C599 1.355 . S
C598 C600 1.415 . S
C599 C598 1.355 . S
C599 C601 1.419 . S
C600 C598 1.415 . S
C600 C605 1.425 . S
C600 C607 1.409 . S
C601 H593 0.930 . S
C601 C599 1.419 . S
C601 C602 1.362 . S
C602 H594 0.930 . S
C602 C601 1.362 . S
C602 C605 1.409 . S
C603 H595 0.930 . S
C603 C604 1.355 . S
C603 C605 1.415 . S
C604 C603 1.355 . S
C604 C606 1.419 . S
C605 C600 1.425 . S
C605 C602 1.409 . S
C605 C603 1.415 . S
C606 H596 0.930 . S
C606 C604 1.419 . S
C606 C607 1.362 . S
C607 H597 0.930 . S
C607 C600 1.409 . S
C607 C606 1.362 . S
H608 C614 0.930 . S
H609 C617 0.930 . S
H610 C618 0.930 . S
H611 C619 0.930 . S
H612 C622 0.930 . S
H613 C623 0.930 . S
C614 H608 0.930 . S
C614 C615 1.355 . S
C614 C616 1.415 . S
C615 C614 1.355 . S
C615 C617 1.419 . S
C616 C614 1.415 . S
C616 C621 1.425 1_554 S
C616 C623 1.409 1_554 S
C617 H609 0.930 . S
C617 C615 1.419 . S
C617 C618 1.362 . S
C618 H610 0.930 . S
C618 C617 1.362 . S
C618 C621 1.409 1_554 S
C619 H611 0.930 . S
C619 C620 1.355 . S
C619 C621 1.415 . S
C620 C619 1.355 . S
C620 C622 1.419 . S
C621 C616 1.425 1_556 S
C621 C618 1.409 1_556 S
C621 C619 1.415 . S
C622 H612 0.930 . S
C622 C620 1.419 . S
C622 C623 1.362 . S
C623 H613 0.930 . S
C623 C616 1.409 1_556 S
C623 C622 1.362 . S
H624 C630 0.930 . S
H625 C633 0.930 . S
H626 C634 0.930 . S
H627 C635 0.930 . S
H628 C638 0.930 . S
H629 C639 0.930 . S
C630 H624 0.930 . S
C630 C631 1.355 . S
C630 C632 1.415 . S
C631 C630 1.355 . S
C631 C633 1.419 . S
C632 C630 1.415 . S
C632 C637 1.425 . S
C632 C639 1.409 . S
C633 H625 0.930 . S
C633 C631 1.419 . S
C633 C634 1.362 . S
C634 H626 0.930 . S
C634 C633 1.362 . S
C634 C637 1.409 . S
C635 H627 0.930 . S
C635 C636 1.355 . S
C635 C637 1.415 . S
C636 C635 1.355 . S
C636 C638 1.419 . S
C637 C632 1.425 . S
C637 C634 1.409 . S
C637 C635 1.415 . S
C638 H628 0.930 . S
C638 C636 1.419 . S
C638 C639 1.362 . S
C639 H629 0.930 . S
C639 C632 1.409 . S
C639 C638 1.362 . S
H640 C646 0.930 . S
H641 C649 0.930 . S
H642 C650 0.930 . S
H643 C651 0.930 . S
H644 C654 0.930 . S
H645 C655 0.930 . S
C646 H640 0.930 . S
C646 C647 1.355 1_455 S
C646 C648 1.415 . S
C647 C646 1.355 1_655 S
C647 C649 1.419 . S
C648 C646 1.415 . S
C648 C653 1.425 1_454 S
C648 C655 1.409 1_554 S
C649 H641 0.930 . S
C649 C647 1.419 . S
C649 C650 1.362 . S
C650 H642 0.930 . S
C650 C649 1.362 . S
C650 C653 1.409 1_554 S
C651 H643 0.930 . S
C651 C652 1.355 . S
C651 C653 1.415 . S
C652 C651 1.355 . S
C652 C654 1.419 1_655 S
C653 C648 1.425 1_656 S
C653 C650 1.409 1_556 S
C653 C651 1.415 . S
C654 H644 0.930 . S
C654 C652 1.419 1_455 S
C654 C655 1.362 . S
C655 H645 0.930 . S
C655 C648 1.409 1_556 S
C655 C654 1.362 . S
H656 C662 0.930 . S
H657 C665 0.930 . S
H658 C666 0.930 . S
H659 C667 0.930 . S
H660 C670 0.930 . S
H661 C671 0.930 . S
C662 H656 0.930 . S
C662 C663 1.355 1_545 S
C662 C664 1.415 . S
C663 C662 1.355 1_565 S
C663 C665 1.419 . S
C664 C662 1.415 . S
C664 C669 1.425 1_545 S
C664 C671 1.409 . S
C665 H657 0.930 . S
C665 C663 1.419 . S
C665 C666 1.362 . S
C666 H658 0.930 . S
C666 C665 1.362 . S
C666 C669 1.409 . S
C667 H659 0.930 . S
C667 C668 1.355 . S
C667 C669 1.415 . S
C668 C667 1.355 . S
C668 C670 1.419 1_565 S
C669 C664 1.425 1_565 S
C669 C666 1.409 . S
C669 C667 1.415 . S
C670 H660 0.930 . S
C670 C668 1.419 1_545 S
C670 C671 1.362 . S
C671 H661 0.930 . S
C671 C664 1.409 . S
C671 C670 1.362 . S
H672 C678 0.930 . S
H673 C681 0.930 . S
H674 C682 0.930 . S
H675 C683 0.930 . S
H676 C686 0.930 . S
H677 C687 0.930 . S
C678 H672 0.930 . S
C678 C679 1.355 . S
C678 C680 1.415 . S
C679 C678 1.355 . S
C679 C681 1.419 . S
C680 C678 1.415 . S
C680 C685 1.425 1_556 S
C680 C687 1.409 1_556 S
C681 H673 0.930 . S
C681 C679 1.419 . S
C681 C682 1.362 . S
C682 H674 0.930 . S
C682 C681 1.362 . S
C682 C685 1.409 1_556 S
C683 H675 0.930 . S
C683 C684 1.355 . S
C683 C685 1.415 . S
C684 C683 1.355 . S
C684 C686 1.419 . S
C685 C680 1.425 1_554 S
C685 C682 1.409 1_554 S
C685 C683 1.415 . S
C686 H676 0.930 . S
C686 C684 1.419 . S
C686 C687 1.362 . S
C687 H677 0.930 . S
C687 C680 1.409 1_554 S
C687 C686 1.362 . S
H688 C694 0.930 . S
H689 C697 0.930 . S
H690 C698 0.930 . S
H691 C699 0.930 . S
H692 C702 0.930 . S
H693 C703 0.930 . S
C694 H688 0.930 . S
C694 C695 1.355 . S
C694 C696 1.415 . S
C695 C694 1.355 . S
C695 C697 1.419 . S
C696 C694 1.415 . S
C696 C701 1.425 . S
C696 C703 1.409 . S
C697 H689 0.930 . S
C697 C695 1.419 . S
C697 C698 1.362 . S
C698 H690 0.930 . S
C698 C697 1.362 . S
C698 C701 1.409 . S
C699 H691 0.930 . S
C699 C700 1.355 . S
C699 C701 1.415 . S
C700 C699 1.355 . S
C700 C702 1.419 . S
C701 C696 1.425 . S
C701 C698 1.409 . S
C701 C699 1.415 . S
C702 H692 0.930 . S
C702 C700 1.419 . S
C702 C703 1.362 . S
C703 H693 0.930 . S
C703 C696 1.409 . S
C703 C702 1.362 . S
H704 C710 0.930 . S
H705 C713 0.930 . S
H706 C714 0.930 . S
H707 C715 0.930 . S
H708 C718 0.930 . S
H709 C719 0.930 . S
C710 H704 0.930 . S
C710 C711 1.355 1_655 S
C710 C712 1.415 . S
C711 C710 1.355 1_455 S
C711 C713 1.419 . S
C712 C710 1.415 . S
C712 C717 1.425 1_654 S
C712 C719 1.409 1_554 S
C713 H705 0.930 . S
C713 C711 1.419 . S
C713 C714 1.362 . S
C714 H706 0.930 . S
C714 C713 1.362 . S
C714 C717 1.409 1_554 S
C715 H707 0.930 . S
C715 C716 1.355 . S
C715 C717 1.415 . S
C716 C715 1.355 . S
C716 C718 1.419 1_455 S
C717 C712 1.425 1_456 S
C717 C714 1.409 1_556 S
C717 C715 1.415 . S
C718 H708 0.930 . S
C718 C716 1.419 1_655 S
C718 C719 1.362 . S
C719 H709 0.930 . S
C719 C712 1.409 1_556 S
C719 C718 1.362 . S
H720 C726 0.930 . S
H721 C729 0.930 . S
H722 C730 0.930 . S
H723 C731 0.930 . S
H724 C734 0.930 . S
H725 C735 0.930 . S
C726 H720 0.930 . S
C726 C727 1.355 1_565 S
C726 C728 1.415 . S
C727 C726 1.355 1_545 S
C727 C729 1.419 . S
C728 C726 1.415 . S
C728 C733 1.425 1_565 S
C728 C735 1.409 . S
C729 H721 0.930 . S
C729 C727 1.419 . S
C729 C730 1.362 . S
C730 H722 0.930 . S
C730 C729 1.362 . S
C730 C733 1.409 . S
C731 H723 0.930 . S
C731 C732 1.355 . S
C731 C733 1.415 . S
C732 C731 1.355 . S
C732 C734 1.419 1_545 S
C733 C728 1.425 1_545 S
C733 C730 1.409 . S
C733 C731 1.415 . S
C734 H724 0.930 . S
C734 C732 1.419 1_565 S
C734 C735 1.362 . S
C735 H725 0.930 . S
C735 C728 1.409 . S
C735 C734 1.362 . S
C231 C8 1.335 . S
C236 C106 1.350 . S
C247 C22 1.335 . S
C252 C64 1.350 . S
C263 C36 1.351 . S
C268 C78 1.335 . S
C279 C50 1.344 . S
C284 C92 1.350 . S
C295 C120 1.352 . S
C300 C218 1.336 . S
C311 C176 1.351 . S
C316 C134 1.342 . S
C327 C148 1.341 . S
C332 C190 1.352 . S
C343 C162 1.338 . S
C348 C204 1.352 . S
C359 C9 1.391 . S
C364 C133 1.457 . S
C375 C23 1.398 . S
C380 C147 1.434 . S
C391 C161 1.421 . S
C396 C37 1.448 . S
C407 C51 1.467 . S
C412 C119 1.438 . S
C423 C65 1.391 . S
C428 C217 1.452 . S
C439 C175 1.475 . S
C444 C79 1.402 . S
C455 C189 1.439 . S
C460 C93 1.467 . S
C471 C203 1.474 . S
C476 C107 1.401 . S
C487 C21 1.467 . S
C492 C121 1.394 . S
C503 C35 1.453 . S
C508 C135 1.467 . S
C519 C149 1.415 . S
C524 C49 1.480 . S
C535 C7 1.420 . S
C540 C163 1.421 . S
C551 C177 1.459 . S
C556 C105 1.468 . S
C567 C191 1.421 . S
C572 C63 1.481 . S
C583 C77 1.460 . S
C588 C205 1.465 . S
C599 C91 1.420 . S
C604 C219 1.446 . S
C615 C3 1.603 . S
C620 C59 1.593 . S
C631 C73 1.590 . S
C636 C17 1.599 . S
C647 C31 1.593 . S
C652 C87 1.596 . S
C663 C101 1.591 . S
C668 C45 1.603 . S
C679 C115 1.603 . S
C684 C171 1.594 . S
C695 C185 1.592 . S
C700 C129 1.597 . S
C711 C199 1.599 . S
C716 C143 1.599 . S
C727 C213 1.590 . S
C732 C157 1.601 . S
