# Generated by pormake.
# Topology smd, (6)-cn, num edge types: 1
# Building blocks:
#     Node 0, Type 0, BuildingBlock: NUHQIS_clean_sbu_0, # of connection points: 6
#     Node 1, Type 0, BuildingBlock: NUHQIS_clean_sbu_0, # of connection points: 6
#     Node 2, Type 0, BuildingBlock: NUHQIS_clean_sbu_0, # of connection points: 6
#     Node 3, Type 0, BuildingBlock: NUHQIS_clean_sbu_0, # of connection points: 6
#     Node 4, Type 0, BuildingBlock: NUHQIS_clean_sbu_0, # of connection points: 6
#     Node 5, Type 0, BuildingBlock: NUHQIS_clean_sbu_0, # of connection points: 6
#     Node 6, Type 0, BuildingBlock: NUHQIS_clean_sbu_0, # of connection points: 6
#     Node 7, Type 0, BuildingBlock: NUHQIS_clean_sbu_0, # of connection points: 6
#     Node 8, Type 0, BuildingBlock: NUHQIS_clean_sbu_0, # of connection points: 6
#     Node 9, Type 0, BuildingBlock: NUHQIS_clean_sbu_0, # of connection points: 6
#     Node 10, Type 0, BuildingBlock: NUHQIS_clean_sbu_0, # of connection points: 6
#     Node 11, Type 0, BuildingBlock: NUHQIS_clean_sbu_0, # of connection points: 6
#     Node 12, Type 0, BuildingBlock: NUHQIS_clean_sbu_0, # of connection points: 6
#     Node 13, Type 0, BuildingBlock: NUHQIS_clean_sbu_0, # of connection points: 6
#     Node 14, Type 0, BuildingBlock: NUHQIS_clean_sbu_0, # of connection points: 6
#     Node 15, Type 0, BuildingBlock: NUHQIS_clean_sbu_0, # of connection points: 6
#     Node 16, Type 0, BuildingBlock: NUHQIS_clean_sbu_0, # of connection points: 6
#     Node 17, Type 0, BuildingBlock: NUHQIS_clean_sbu_0, # of connection points: 6
#     Edge 18, Type (0, 0), BuildingBlock: CIFDUS_clean_linker_0, # of connection points: 2
#     Edge 19, Type (0, 0), BuildingBlock: CIFDUS_clean_linker_0, # of connection points: 2
#     Edge 20, Type (0, 0), BuildingBlock: CIFDUS_clean_linker_0, # of connection points: 2
#     Edge 21, Type (0, 0), BuildingBlock: CIFDUS_clean_linker_0, # of connection points: 2
#     Edge 22, Type (0, 0), BuildingBlock: CIFDUS_clean_linker_0, # of connection points: 2
#     Edge 23, Type (0, 0), BuildingBlock: CIFDUS_clean_linker_0, # of connection points: 2
#     Edge 24, Type (0, 0), BuildingBlock: CIFDUS_clean_linker_0, # of connection points: 2
#     Edge 25, Type (0, 0), BuildingBlock: CIFDUS_clean_linker_0, # of connection points: 2
#     Edge 26, Type (0, 0), BuildingBlock: CIFDUS_clean_linker_0, # of connection points: 2
#     Edge 27, Type (0, 0), BuildingBlock: CIFDUS_clean_linker_0, # of connection points: 2
#     Edge 28, Type (0, 0), BuildingBlock: CIFDUS_clean_linker_0, # of connection points: 2
#     Edge 29, Type (0, 0), BuildingBlock: CIFDUS_clean_linker_0, # of connection points: 2
#     Edge 30, Type (0, 0), BuildingBlock: CIFDUS_clean_linker_0, # of connection points: 2
#     Edge 31, Type (0, 0), BuildingBlock: CIFDUS_clean_linker_0, # of connection points: 2
#     Edge 32, Type (0, 0), BuildingBlock: CIFDUS_clean_linker_0, # of connection points: 2
#     Edge 33, Type (0, 0), BuildingBlock: CIFDUS_clean_linker_0, # of connection points: 2
#     Edge 34, Type (0, 0), BuildingBlock: CIFDUS_clean_linker_0, # of connection points: 2
#     Edge 35, Type (0, 0), BuildingBlock: CIFDUS_clean_linker_0, # of connection points: 2
#     Edge 36, Type (0, 0), BuildingBlock: CIFDUS_clean_linker_0, # of connection points: 2
#     Edge 37, Type (0, 0), BuildingBlock: CIFDUS_clean_linker_0, # of connection points: 2
#     Edge 38, Type (0, 0), BuildingBlock: CIFDUS_clean_linker_0, # of connection points: 2
#     Edge 39, Type (0, 0), BuildingBlock: CIFDUS_clean_linker_0, # of connection points: 2
#     Edge 40, Type (0, 0), BuildingBlock: CIFDUS_clean_linker_0, # of connection points: 2
#     Edge 41, Type (0, 0), BuildingBlock: CIFDUS_clean_linker_0, # of connection points: 2
#     Edge 42, Type (0, 0), BuildingBlock: CIFDUS_clean_linker_0, # of connection points: 2
#     Edge 43, Type (0, 0), BuildingBlock: CIFDUS_clean_linker_0, # of connection points: 2
#     Edge 44, Type (0, 0), BuildingBlock: CIFDUS_clean_linker_0, # of connection points: 2
#     Edge 45, Type (0, 0), BuildingBlock: CIFDUS_clean_linker_0, # of connection points: 2
#     Edge 46, Type (0, 0), BuildingBlock: CIFDUS_clean_linker_0, # of connection points: 2
#     Edge 47, Type (0, 0), BuildingBlock: CIFDUS_clean_linker_0, # of connection points: 2
#     Edge 48, Type (0, 0), BuildingBlock: CIFDUS_clean_linker_0, # of connection points: 2
#     Edge 49, Type (0, 0), BuildingBlock: CIFDUS_clean_linker_0, # of connection points: 2
#     Edge 50, Type (0, 0), BuildingBlock: CIFDUS_clean_linker_0, # of connection points: 2
#     Edge 51, Type (0, 0), BuildingBlock: CIFDUS_clean_linker_0, # of connection points: 2
#     Edge 52, Type (0, 0), BuildingBlock: CIFDUS_clean_linker_0, # of connection points: 2
#     Edge 53, Type (0, 0), BuildingBlock: CIFDUS_clean_linker_0, # of connection points: 2
#     Edge 54, Type (0, 0), BuildingBlock: CIFDUS_clean_linker_0, # of connection points: 2
#     Edge 55, Type (0, 0), BuildingBlock: CIFDUS_clean_linker_0, # of connection points: 2
#     Edge 56, Type (0, 0), BuildingBlock: CIFDUS_clean_linker_0, # of connection points: 2
#     Edge 57, Type (0, 0), BuildingBlock: CIFDUS_clean_linker_0, # of connection points: 2
#     Edge 58, Type (0, 0), BuildingBlock: CIFDUS_clean_linker_0, # of connection points: 2
#     Edge 59, Type (0, 0), BuildingBlock: CIFDUS_clean_linker_0, # of connection points: 2
#     Edge 60, Type (0, 0), BuildingBlock: CIFDUS_clean_linker_0, # of connection points: 2
#     Edge 61, Type (0, 0), BuildingBlock: CIFDUS_clean_linker_0, # of connection points: 2
#     Edge 62, Type (0, 0), BuildingBlock: CIFDUS_clean_linker_0, # of connection points: 2
#     Edge 63, Type (0, 0), BuildingBlock: CIFDUS_clean_linker_0, # of connection points: 2
#     Edge 64, Type (0, 0), BuildingBlock: CIFDUS_clean_linker_0, # of connection points: 2
#     Edge 65, Type (0, 0), BuildingBlock: CIFDUS_clean_linker_0, # of connection points: 2
#     Edge 66, Type (0, 0), BuildingBlock: CIFDUS_clean_linker_0, # of connection points: 2
#     Edge 67, Type (0, 0), BuildingBlock: CIFDUS_clean_linker_0, # of connection points: 2
#     Edge 68, Type (0, 0), BuildingBlock: CIFDUS_clean_linker_0, # of connection points: 2
#     Edge 69, Type (0, 0), BuildingBlock: CIFDUS_clean_linker_0, # of connection points: 2
#     Edge 70, Type (0, 0), BuildingBlock: CIFDUS_clean_linker_0, # of connection points: 2
#     Edge 71, Type (0, 0), BuildingBlock: CIFDUS_clean_linker_0, # of connection points: 2
# Relax obj value: 0.274
# Max RMSD: 0.361
# Mean RMSD: 0.332
data_MOF--net-smd--node1-NUHQIS_clean_sbu_0--edge1-CIFDUS_clean_linker_0
_symmetry_space_group_name_H-M    P1
_symmetry_Int_Tables_number       1
_symmetry_cell_setting            triclinic
loop_
_symmetry_equiv_pos_as_xyz
'x, y, z'
_cell_length_a     56.415503
_cell_length_b     56.109111
_cell_length_c     23.412868
_cell_angle_alpha  92.349197
_cell_angle_beta   93.141439
_cell_angle_gamma 120.07109
loop_
_atom_site_label
_atom_site_type_symbol
_atom_site_fract_x
_atom_site_fract_y
_atom_site_fract_z
_atom_type_partial_charge
Tb0 Tb 0.05411 0.27552 0.58262 0.0
Eu1 Eu 1.01681 0.24981 0.45667 0.0
C2 C 0.07617 0.25284 0.48348 0.0
C3 C 0.07089 0.31128 0.47332 0.0
C4 C 0.06538 0.2851 0.7427 0.0
C5 C 0.06918 0.2991 0.84434 0.0
C6 C 0.07777 0.30529 0.78901 0.0
C7 C 0.04381 0.25874 0.75248 0.0
C8 C 1.03517 0.25256 0.80763 0.0
C9 C 0.04797 0.27252 0.85459 0.0
C10 C 0.0756 0.29149 0.68504 0.0
O11 O 1.02731 0.29207 0.56681 0.0
O12 O 0.9906 0.25389 0.52435 0.0
O13 O 1.0068 0.21296 0.50539 0.0
O14 O 1.01716 0.23534 0.59524 0.0
C15 C 1.00077 0.27555 0.56178 0.0
O16 O 0.98964 0.25291 0.39109 0.0
O17 O 1.00034 0.22108 0.37956 0.0
O18 O 0.05642 0.24932 0.44504 0.0
O19 O 0.07738 0.26051 0.53794 0.0
O20 O 0.07912 0.30699 0.5241 0.0
O21 O 0.04649 0.2944 0.44721 0.0
C22 C 1.00429 0.21246 0.56064 0.0
O23 O 0.07537 0.27143 0.65444 0.0
O24 O 0.06689 0.30478 0.65403 0.0
C25 C 0.99597 0.24167 0.29633 0.0
C26 C 1.00962 0.25548 0.18273 0.0
C27 C 0.98907 0.22868 0.19356 0.0
C28 C 0.98234 0.22188 0.24972 0.0
C29 C 1.01649 0.26843 0.28582 0.0
C30 C 1.0232 0.27527 0.22974 0.0
C31 C 0.98911 0.23404 0.35556 0.0
H32 H 0.07971 0.31494 0.87936 0.0
H33 H 0.09445 0.32576 0.78256 0.0
H34 H 1.03371 0.24281 0.71749 0.0
H35 H 1.01844 0.23205 0.81347 0.0
H36 H 0.97791 0.21298 0.15855 0.0
H37 H 0.96647 0.2011 0.25675 0.0
H38 H 1.02742 0.28405 0.32105 0.0
H39 H 0.03936 0.29599 0.22334 0.0
Tb40 Tb 0.81642 0.79261 0.46799 0.0
Eu41 Eu 0.80416 0.81573 0.58822 0.0
C42 C 0.86063 0.81689 0.57127 0.0
C43 C 0.79464 0.75485 0.57489 0.0
C44 C 0.8211 0.78159 0.31287 0.0
C45 C 0.82648 0.77675 0.21134 0.0
C46 C 0.83038 0.77177 0.26835 0.0
C47 C 0.80735 0.79595 0.29955 0.0
C48 C 0.80337 0.80087 0.24267 0.0
C49 C 0.81325 0.79171 0.1978 0.0
C50 C 0.82716 0.77828 0.37321 0.0
O51 O 0.77308 0.77872 0.45519 0.0
O52 O 0.76885 0.80751 0.52186 0.0
O53 O 0.82707 0.85246 0.53684 0.0
O54 O 0.81313 0.82898 0.44799 0.0
C55 C 0.75973 0.79042 0.47485 0.0
O56 O 0.7769 0.81397 0.65286 0.0
O57 O 0.82013 0.84492 0.66423 0.0
O58 O 0.84116 0.81015 0.60621 0.0
O59 O 0.85581 0.81901 0.51699 0.0
O60 O 0.80979 0.76123 0.53038 0.0
O61 O 0.78539 0.77049 0.59458 0.0
C62 C 0.82238 0.85195 0.48121 0.0
O63 O 0.84373 0.80117 0.40417 0.0
O64 O 0.8062 0.762 0.40078 0.0
C65 C 0.79827 0.82528 0.74723 0.0
C66 C 0.79995 0.81004 0.86059 0.0
C67 C 0.78772 0.82586 0.84649 0.0
C68 C 0.78686 0.83335 0.79035 0.0
C69 C 0.8105 0.80953 0.76094 0.0
C70 C 0.81132 0.80197 0.81697 0.0
C71 C 0.79692 0.83285 0.68798 0.0
H72 H 0.83464 0.76964 0.17814 0.0
H73 H 0.84119 0.76079 0.27779 0.0
H74 H 0.8002 0.80384 0.33335 0.0
H75 H 0.79271 0.81206 0.23395 0.0
H76 H 0.77843 0.83214 0.87867 0.0
H77 H 0.77717 0.84537 0.78056 0.0
H78 H 0.81951 0.80316 0.72827 0.0
H79 H 0.82123 0.79012 0.82627 0.0
Tb80 Tb 0.25296 1.0142 0.56893 0.0
Eu81 Eu 0.26653 0.0462 0.45363 0.0
C82 C 0.20695 0.99135 0.46842 0.0
C83 C 0.27209 0.99469 0.45893 0.0
C84 C 0.2514 0.99978 0.72216 0.0
C85 C 0.26626 0.03619 0.79852 0.0
C86 C 0.26121 1.02756 0.74006 0.0
C87 C 0.24683 0.98077 0.76309 0.0
C88 C 0.25188 0.98936 0.82153 0.0
C89 C 0.26158 1.01716 0.83995 0.0
C90 C 0.24661 0.9906 0.66098 0.0
O91 O 0.2861 0.05499 0.59639 0.0
O92 O 0.30622 0.06105 0.51316 0.0
O93 O 0.26183 0.07454 0.51485 0.0
O94 O 0.23532 0.04194 0.5752 0.0
C95 C 0.30817 0.06661 0.56921 0.0
O96 O 0.29552 0.06364 0.38882 0.0
O97 O 0.25895 0.06732 0.38477 0.0
O98 O 0.21987 1.01517 0.44469 0.0
O99 O 0.21885 0.98532 0.51024 0.0
O100 O 0.27682 1.00133 0.51503 0.0
O101 O 0.25999 1.00477 0.42783 0.0
C102 C 0.24503 0.06667 0.55527 0.0
O103 O 0.22712 0.99226 0.63207 0.0
O104 O 0.26866 0.99982 0.63351 0.0
C105 C 0.27501 0.06151 0.29741 0.0
C106 C 0.26629 0.04432 0.17961 0.0
C107 C 0.26133 1.02529 0.22115 0.0
C108 C 0.2656 0.03381 0.27955 0.0
C109 C 0.2799 0.08055 0.25634 0.0
C110 C 0.27557 0.07205 0.19788 0.0
C111 C 0.2802 0.07073 0.35867 0.0
H112 H 0.27347 0.05767 0.81127 0.0
H113 H 0.26494 0.04252 0.70883 0.0
H114 H 0.23951 0.95931 0.74984 0.0
H115 H 0.24849 0.97429 0.85229 0.0
H116 H 0.25451 1.00388 0.20856 0.0
H117 H 0.26178 1.01882 0.31077 0.0
H118 H 0.28711 0.102 0.2695 0.0
H119 H 0.27921 0.08712 0.16699 0.0
Tb120 Tb 0.05381 0.81141 0.59242 0.0
Eu121 Eu 1.01929 0.7905 0.46719 0.0
C122 C 0.07502 0.79302 0.48457 0.0
C123 C 0.07075 0.85391 0.49812 0.0
C124 C 0.06848 0.81713 0.75054 0.0
C125 C 1.03337 0.79056 0.81434 0.0
C126 C 0.04214 0.7954 0.75908 0.0
C127 C 0.08589 0.83399 0.79815 0.0
C128 C 0.07713 0.82921 0.85355 0.0
C129 C 0.05072 0.80744 0.86237 0.0
C130 C 0.07794 0.82212 0.69234 0.0
O131 O 1.02422 0.82659 0.59197 0.0
O132 O 0.99122 0.7965 0.52171 0.0
O133 O 1.00813 0.75332 0.52151 0.0
O134 O 1.01453 0.77666 0.60736 0.0
C135 C 0.99921 0.81499 0.56521 0.0
O136 O 0.99467 0.79207 0.39371 0.0
O137 O 1.00501 0.75969 0.39439 0.0
O138 O 0.06193 0.80169 0.45233 0.0
O139 O 0.06977 0.78938 0.53902 0.0
O140 O 0.07887 0.84574 0.54304 0.0
O141 O 0.04713 0.83761 0.46719 0.0
C142 C 1.0038 0.75325 0.57648 0.0
O143 O 0.07164 0.80016 0.65916 0.0
O144 O 0.07378 0.83966 0.66496 0.0
C145 C 1.00377 0.77738 0.30569 0.0
C146 C 1.02174 0.7865 0.19406 0.0
C147 C 1.03922 0.80326 0.24212 0.0
C148 C 1.03033 0.79871 0.29737 0.0
C149 C 0.98624 0.76065 0.25813 0.0
C150 C 0.9951 0.76515 0.20282 0.0
C151 C 0.99471 0.77186 0.36394 0.0
H152 H 1.01307 0.77338 0.81944 0.0
H153 H 1.0284 0.78207 0.72302 0.0
H154 H 0.10628 0.8509 0.79248 0.0
H155 H 0.0909 0.84283 0.88939 0.0
H156 H 0.05972 0.82008 0.23706 0.0
H157 H 0.04424 0.81177 0.33367 0.0
H158 H 0.96576 0.74391 0.26382 0.0
H159 H 0.98124 0.75156 0.16705 0.0
Tb160 Tb 0.26747 0.24481 0.46346 0.0
Eu161 Eu 0.25907 0.27016 0.58438 0.0
C162 C 0.31393 0.26872 0.57003 0.0
C163 C 0.24914 0.20831 0.56705 0.0
C164 C 0.27134 0.23461 0.30753 0.0
C165 C 0.2849 0.23642 0.21022 0.0
C166 C 0.28473 0.22826 0.26602 0.0
C167 C 0.25816 0.24935 0.29254 0.0
C168 C 0.2583 0.25752 0.23679 0.0
C169 C 0.27167 0.25116 0.1948 0.0
C170 C 0.27188 0.22646 0.36652 0.0
O171 O 0.23371 0.25377 0.448 0.0
O172 O 0.21785 0.24424 0.53562 0.0
O173 O 0.26747 0.30253 0.51885 0.0
O174 O 0.28879 0.28881 0.45526 0.0
C175 C 0.21385 0.24754 0.48191 0.0
O176 O 0.23268 0.26445 0.65344 0.0
O177 O 0.27209 0.30195 0.65526 0.0
O178 O 0.3033 0.28283 0.59107 0.0
O179 O 0.30163 0.25024 0.52533 0.0
O180 O 0.24378 0.20926 0.51223 0.0
O181 O 0.25991 0.23084 0.6023 0.0
C182 C 0.2817 0.30656 0.47341 0.0
O183 O 0.29278 0.24412 0.40142 0.0
O184 O 0.2489 0.21653 0.39096 0.0
C185 C 0.25676 0.28353 0.74387 0.0
C186 C 0.26412 0.2729 0.85859 0.0
C187 C 0.24877 0.28568 0.84446 0.0
C188 C 0.24511 0.29089 0.78761 0.0
C189 C 0.27262 0.27138 0.75777 0.0
C190 C 0.27632 0.26616 0.81457 0.0
C191 C 0.25091 0.28696 0.68361 0.0
H192 H 0.29575 0.23151 0.1794 0.0
H193 H 0.29522 0.2171 0.27687 0.0
H194 H 0.24774 0.25455 0.32397 0.0
H195 H 0.24762 0.26852 0.22643 0.0
H196 H 0.23881 0.29084 0.87702 0.0
H197 H 0.23264 0.30012 0.7776 0.0
H198 H 0.28173 0.26548 0.72451 0.0
H199 H 0.28858 0.25666 0.82393 0.0
Tb200 Tb 0.81466 1.01532 0.58695 0.0
Eu201 Eu 0.81586 0.04365 0.46814 0.0
C202 C 0.76373 0.99304 0.49578 0.0
C203 C 0.83123 0.99546 0.47874 0.0
C204 C 0.81145 0.99714 0.73924 0.0
C205 C 0.80326 0.98093 0.83459 0.0
C206 C 0.80374 0.97584 0.7759 0.0
C207 C 0.81887 1.02374 0.76188 0.0
C208 C 0.8184 1.02889 0.82071 0.0
C209 C 0.81044 1.00748 0.8577 0.0
C210 C 0.81093 0.99101 0.67747 0.0
O211 O 0.85238 0.05668 0.59648 0.0
O212 O 0.85942 0.05924 0.50119 0.0
O213 O 0.81252 0.07154 0.53788 0.0
O214 O 0.79915 0.04219 0.61081 0.0
C215 C 0.86875 0.0674 0.555 0.0
O216 O 0.83572 0.07569 0.40819 0.0
O217 O 0.79395 0.04201 0.38759 0.0
O218 O 0.77278 1.01904 0.49034 0.0
O219 O 0.78005 0.98618 0.52382 0.0
O220 O 0.83768 1.00379 0.53323 0.0
O221 O 0.81811 1.00444 0.44554 0.0
C222 C 0.8035 0.06511 0.5893 0.0
O223 O 0.78989 0.98844 0.64596 0.0
O224 O 0.83386 1.00559 0.65401 0.0
C225 C 0.82073 0.06022 0.30992 0.0
C226 C 0.82668 0.0531 0.19263 0.0
C227 C 0.83235 0.07893 0.21715 0.0
C228 C 0.82931 0.0824 0.27528 0.0
C229 C 0.81597 0.03465 0.28612 0.0
C230 C 0.81885 0.03111 0.22797 0.0
C231 C 0.81488 0.06345 0.36934 0.0
H232 H 0.79743 0.96409 0.86196 0.0
H233 H 0.79798 0.95519 0.75907 0.0
H234 H 0.82482 0.04041 0.73399 0.0
H235 H 0.82378 0.04949 0.83704 0.0
H236 H 0.83822 0.0962 0.19098 0.0
H237 H 0.83295 0.10224 0.29285 0.0
H238 H 0.80942 1.01724 0.31216 0.0
H239 H 0.81472 1.01109 0.21052 0.0
Tb240 Tb 0.68999 0.58219 0.78978 0.0
Eu241 Eu 0.72577 0.60511 0.91612 0.0
C242 C 0.67174 0.54448 0.89258 0.0
C243 C 0.66996 0.60571 0.89304 0.0
C244 C 0.67545 0.57231 0.6316 0.0
C245 C 0.66527 0.56997 0.5284 0.0
C246 C 0.65635 0.56415 0.58356 0.0
C247 C 0.70362 0.58672 0.62382 0.0
C248 C 0.71257 0.5927 0.56884 0.0
C249 C 0.69353 0.58417 0.52017 0.0
C250 C 0.66598 0.56559 0.68952 0.0
O251 O 0.71529 0.62617 0.78382 0.0
O252 O 0.75054 0.63735 0.85311 0.0
O253 O 0.74021 0.57937 0.87059 0.0
O254 O 0.73097 0.58722 0.77954 0.0
C255 C 0.74065 0.64255 0.80556 0.0
O256 O 0.74726 0.63672 0.98757 0.0
O257 O 0.74468 0.59707 0.99107 0.0
O258 O 0.68516 0.56642 0.92923 0.0
O259 O 0.67659 0.54582 0.83822 0.0
O260 O 0.66276 0.58819 0.84691 0.0
O261 O 0.69511 0.61896 0.91732 0.0
C262 C 0.74488 0.58063 0.81637 0.0
O263 O 0.67603 0.55292 0.71882 0.0
O264 O 0.66623 0.58539 0.72116 0.0
C265 C 0.74239 0.61816 0.07808 0.0
C266 C 0.72537 0.61224 0.19083 0.0
C267 C 0.7535 0.62639 0.18154 0.0
C268 C 0.7619 0.62934 0.12572 0.0
C269 C 0.71432 0.60419 0.08697 0.0
C270 C 0.70588 0.60133 0.1427 0.0
C271 C 0.75135 0.62036 1.01946 0.0
H272 H 0.64997 0.56276 0.49209 0.0
H273 H 0.6345 0.55296 0.58862 0.0
H274 H 0.71872 0.59316 0.66031 0.0
H275 H 0.73447 0.60405 0.56455 0.0
H276 H 0.76907 0.63537 0.21744 0.0
H277 H 0.78366 0.64019 0.11978 0.0
H278 H 0.69895 0.59516 0.05074 0.0
H279 H 0.68408 0.59002 0.14807 0.0
Tb280 Tb 0.48173 0.12405 0.79963 0.0
Eu281 Eu 0.4778 0.15269 0.92146 0.0
C282 C 0.53321 0.15594 0.88667 0.0
C283 C 0.4695 0.09187 0.91423 0.0
C284 C 0.48131 0.11028 0.64237 0.0
C285 C 0.48533 0.10342 0.5409 0.0
C286 C 0.4881 0.09789 0.59791 0.0
C287 C 0.47171 0.12832 0.62913 0.0
C288 C 0.46881 0.13377 0.57212 0.0
C289 C 0.47563 0.12142 0.52722 0.0
C290 C 0.48431 0.10424 0.70218 0.0
O291 O 0.43895 0.1063 0.81385 0.0
O292 O 0.44073 0.14364 0.8593 0.0
O293 O 0.49697 0.18699 0.8627 0.0
O294 O 0.47823 0.16029 0.77755 0.0
C295 C 0.428 0.12167 0.82239 0.0
O296 O 0.45315 0.15347 0.98948 0.0
O297 O 0.49658 0.18378 0.9942 0.0
O298 O 0.51742 0.15076 0.92923 0.0
O299 O 0.52319 0.15405 0.83389 0.0
O300 O 0.4813 0.09622 0.86516 0.0
O301 O 0.46155 0.10833 0.93586 0.0
C302 C 0.48939 0.18446 0.80774 0.0
O303 O 0.50555 0.12333 0.73405 0.0
O304 O 0.46229 0.0943 0.72957 0.0
C305 C 0.47724 0.16713 0.08117 0.0
C306 C 0.48169 0.15485 0.19597 0.0
C307 C 0.4715 0.17246 0.18224 0.0
C308 C 0.46927 0.1785 0.12537 0.0
C309 C 0.48741 0.14957 0.09447 0.0
C310 C 0.48958 0.14345 0.15122 0.0
C311 C 0.47428 0.17303 1.02123 0.0
H312 H 0.49044 0.09329 0.50743 0.0
H313 H 0.49549 0.08387 0.60728 0.0
H314 H 0.46651 0.13823 0.66287 0.0
H315 H 0.46159 0.14797 0.56331 0.0
H316 H 0.46558 0.18191 0.21554 0.0
H317 H 0.46134 0.19207 0.11591 0.0
H318 H 0.49361 0.14056 0.06084 0.0
H319 H 0.49715 0.12952 0.15989 0.0
Tb320 Tb 0.93932 0.38287 0.80713 0.0
Eu321 Eu 0.93012 0.34964 0.92273 0.0
C322 C 0.91815 0.40032 0.91197 0.0
C323 C 0.98379 0.40263 0.9114 0.0
C324 C 0.94719 0.40122 0.65444 0.0
C325 C 0.93886 0.40969 0.55646 0.0
C326 C 0.94133 0.41626 0.61552 0.0
C327 C 0.95081 0.37953 0.63339 0.0
C328 C 0.94847 0.37299 0.5741 0.0
C329 C 0.94223 0.38787 0.53493 0.0
C330 C 0.94871 0.40816 0.71652 0.0
O331 O 0.95565 0.35566 0.79354 0.0
O332 O 0.9284 0.32073 0.848 0.0
O333 O 0.88817 0.33378 0.88033 0.0
O334 O 0.89967 0.34325 0.78785 0.0
C335 C 0.94334 0.32956 0.80372 0.0
O336 O 0.94796 0.335 0.98836 0.0
O337 O 0.90692 0.32814 0.99373 0.0
O338 O 0.92854 0.38918 0.9468 0.0
O339 O 0.91513 0.39473 0.85633 0.0
O340 O 0.97016 0.41091 0.87809 0.0
O341 O 0.9744 0.37622 0.90925 0.0
C342 C 0.88138 0.32992 0.82504 0.0
O343 O 0.92532 0.39738 0.7393 0.0
O344 O 0.96748 0.40695 0.74925 0.0
C345 C 0.9335 0.33539 0.08138 0.0
C346 C 0.94333 0.34986 0.20104 0.0
C347 C 0.94671 0.32842 0.1772 0.0
C348 C 0.94181 0.32126 0.11797 0.0
C349 C 0.93074 0.35724 0.10474 0.0
C350 C 0.93559 0.36439 0.16394 0.0
C351 C 0.92715 0.32663 1.01943 0.0
H352 H 0.93441 0.4218 0.52755 0.0
H353 H 0.93848 0.43306 0.63088 0.0
H354 H 0.95522 0.36754 0.66272 0.0
H355 H 0.95093 0.35592 0.55898 0.0
H356 H 0.95245 0.31666 0.20445 0.0
H357 H 0.94411 0.30437 0.10081 0.0
H358 H 0.92462 0.36866 0.07728 0.0
H359 H 0.93327 0.38132 0.18068 0.0
Tb360 Tb 0.72609 0.14917 0.92306 0.0
Eu361 Eu 0.68995 0.12659 0.79674 0.0
C362 C 0.74372 0.12269 0.82133 0.0
C363 C 0.74524 0.18607 0.81925 0.0
C364 C 0.74108 0.15909 0.08098 0.0
C365 C 0.75126 0.16179 0.18428 0.0
C366 C 0.76018 0.16745 0.12908 0.0
C367 C 0.71291 0.14469 0.08875 0.0
C368 C 0.70395 0.13891 0.14377 0.0
C369 C 0.72299 0.14759 0.19248 0.0
C370 C 0.75053 0.16556 0.02297 0.0
O371 O 0.68572 0.14531 0.93375 0.0
O372 O 0.67656 0.15315 0.84262 0.0
O373 O 0.66444 0.09475 0.85947 0.0
O374 O 0.69918 0.10545 0.93004 0.0
C375 C 0.67203 0.15211 0.89692 0.0
O376 O 0.67188 0.13553 0.72174 0.0
O377 O 0.66804 0.09532 0.72483 0.0
O378 O 0.7184 0.11 0.79813 0.0
O379 O 0.75203 0.1412 0.86593 0.0
O380 O 0.74036 0.18538 0.87358 0.0
O381 O 0.73147 0.1639 0.78338 0.0
C382 C 0.67387 0.08939 0.90744 0.0
O383 O 0.74963 0.14541 0.99132 0.0
O384 O 0.74095 0.17867 0.99377 0.0
C385 C 0.67368 0.11421 0.63454 0.0
C386 C 0.69083 0.11996 0.52188 0.0
C387 C 0.66268 0.10604 0.53104 0.0
C388 C 0.65422 0.10319 0.58681 0.0
C389 C 0.70176 0.12793 0.62579 0.0
C390 C 0.71026 0.13071 0.5701 0.0
C391 C 0.66465 0.11214 0.6931 0.0
H392 H 0.76654 0.16911 0.22062 0.0
H393 H 0.78203 0.17862 0.12402 0.0
H394 H 0.69782 0.13811 0.05221 0.0
H395 H 0.68205 0.12756 0.14807 0.0
H396 H 0.64714 0.09718 0.49508 0.0
H397 H 0.63245 0.09253 0.59263 0.0
H398 H 0.71711 0.13683 0.66208 0.0
H399 H 0.73208 0.14183 0.56486 0.0
Tb400 Tb 0.93389 0.60372 0.91574 0.0
Eu401 Eu 0.93729 0.5749 0.79437 0.0
C402 C 0.95106 0.63688 0.80315 0.0
C403 C 0.88294 0.57463 0.82718 0.0
C404 C 0.93577 0.61989 0.07249 0.0
C405 C 0.93544 0.63018 0.17432 0.0
C406 C 0.93171 0.63464 0.11689 0.0
C407 C 0.94397 0.60083 0.08628 0.0
C408 C 0.9478 0.5964 0.14366 0.0
C409 C 0.94335 0.61085 0.18851 0.0
C410 C 0.93034 0.62367 1.01212 0.0
O411 O 0.93517 0.56634 0.93803 0.0
O412 O 0.91723 0.54019 0.852 0.0
O413 O 0.97331 0.58084 0.85611 0.0
O414 O 0.97685 0.61706 0.9122 0.0
C415 C 0.92397 0.54229 0.90733 0.0
O416 O 0.91731 0.54553 0.71904 0.0
O417 O 0.96136 0.57296 0.72625 0.0
O418 O 0.95959 0.62023 0.78629 0.0
O419 O 0.93669 0.632 0.84869 0.0
O420 O 0.89225 0.57546 0.87998 0.0
O421 O 0.8992 0.57976 0.78552 0.0
C422 C 0.98661 0.60125 0.89665 0.0
O423 O 0.95157 0.63563 0.98238 0.0
O424 O 0.9101 0.60219 0.98301 0.0
C425 C 0.93833 0.56272 0.63374 0.0
C426 C 0.93636 0.57772 0.52025 0.0
C427 C 0.94337 0.5575 0.53217 0.0
C428 C 0.94437 0.55012 0.58836 0.0
C429 C 0.93143 0.58296 0.6223 0.0
C430 C 0.9305 0.59043 0.5662 0.0
C431 C 0.93983 0.55514 0.69292 0.0
H432 H 0.9322 0.64196 0.20764 0.0
H433 H 0.92537 0.64944 0.10713 0.0
H434 H 0.94695 0.58902 0.05262 0.0
H435 H 0.95358 0.58114 0.15279 0.0
H436 H 0.94766 0.54701 0.49793 0.0
H437 H 0.94979 0.53448 0.59635 0.0
H438 H 0.92679 0.59301 0.65682 0.0
H439 H 0.92542 0.60635 0.55895 0.0
Tb440 Tb 0.48021 0.3477 0.91759 0.0
Eu441 Eu 0.48485 0.37821 0.80049 0.0
C442 C 0.4311 0.32604 0.82142 0.0
C443 C 0.49583 0.32669 0.80814 0.0
C444 C 0.47532 0.33137 0.07124 0.0
C445 C 0.46028 0.31603 0.16486 0.0
C446 C 0.46105 0.31003 0.10672 0.0
C447 C 0.48886 0.3589 0.09459 0.0
C448 C 0.48815 0.36495 0.15288 0.0
C449 C 0.47379 0.34355 0.18867 0.0
C450 C 0.47535 0.32442 1.00998 0.0
O451 O 0.51897 0.38847 0.92803 0.0
O452 O 0.52717 0.3894 0.83392 0.0
O453 O 0.48491 0.40688 0.87394 0.0
O454 O 0.46257 0.37331 0.93541 0.0
C455 C 0.53616 0.3981 0.88754 0.0
O456 O 0.50849 0.40903 0.74076 0.0
O457 O 0.46445 0.38283 0.72379 0.0
O458 O 0.44068 0.35206 0.81443 0.0
O459 O 0.44592 0.31876 0.85382 0.0
O460 O 0.50068 0.33285 0.8637 0.0
O461 O 0.48541 0.33833 0.77483 0.0
C462 C 0.47192 0.39854 0.9209 0.0
O463 O 0.45465 0.32157 0.97678 0.0
O464 O 0.49854 0.33838 0.98699 0.0
C465 C 0.49038 0.39636 0.64337 0.0
C466 C 0.49368 0.38797 0.52505 0.0
C467 C 0.50629 0.41485 0.55209 0.0
C468 C 0.50455 0.41899 0.61071 0.0
C469 C 0.47837 0.36947 0.61687 0.0
C470 C 0.47991 0.36532 0.55822 0.0
C471 C 0.48719 0.40114 0.70412 0.0
H472 H 0.44935 0.29905 0.19133 0.0
H473 H 0.45046 0.28866 0.0894 0.0
H474 H 0.49992 0.37566 0.06777 0.0
H475 H 0.49851 0.38636 0.16973 0.0
H476 H 0.51688 0.43271 0.52763 0.0
H477 H 0.5139 0.43988 0.63036 0.0
H478 H 0.46748 0.35165 0.64128 0.0
H479 H 0.47034 0.34437 0.53882 0.0
Tb480 Tb 0.39416 0.94047 0.24642 0.0
Eu481 Eu 0.35903 0.92132 0.11935 0.0
C482 C 0.41227 0.91524 0.14753 0.0
C483 C 0.41288 0.9797 0.14208 0.0
C484 C 0.41276 0.95283 0.40602 0.0
C485 C 0.42827 0.96144 0.50765 0.0
C486 C 0.43408 0.96416 0.45015 0.0
C487 C 0.38539 0.93925 0.42024 0.0
C488 C 0.37951 0.93661 0.47795 0.0
C489 C 0.40092 0.94729 0.52241 0.0
C490 C 0.41963 0.95431 0.3458 0.0
O491 O 0.3673 0.95737 0.24793 0.0
O492 O 0.33207 0.92627 0.18395 0.0
O493 O 0.34582 0.88287 0.16461 0.0
O494 O 0.35498 0.90199 0.25735 0.0
C495 C 0.34124 0.94413 0.22975 0.0
O496 O 0.33467 0.92722 0.05134 0.0
O497 O 0.34292 0.89366 0.04101 0.0
O498 O 0.39969 0.9223 0.10837 0.0
O499 O 0.40736 0.91522 0.20158 0.0
O500 O 0.42092 0.97102 0.18704 0.0
O501 O 0.38741 0.96655 0.12002 0.0
C502 C 0.34212 0.88039 0.21928 0.0
O503 O 0.41155 0.93081 0.31697 0.0
O504 O 0.4153 0.97084 0.31519 0.0
C505 C 0.3396 0.9143 0.95705 0.0
C506 C 0.35171 0.92612 0.84212 0.0
C507 C 0.32431 0.91183 0.85661 0.0
C508 C 0.31836 0.90602 0.91342 0.0
C509 C 0.36698 0.92871 0.94314 0.0
C510 C 0.37299 0.93457 0.88628 0.0
C511 C 0.33283 0.90751 1.0165 0.0
H512 H 0.44527 0.97031 0.54065 0.0
H513 H 0.45534 0.97477 0.44011 0.0
H514 H 0.36861 0.93021 0.38674 0.0
H515 H 0.35824 0.92544 0.48765 0.0
H516 H 0.30737 0.90465 0.82385 0.0
H517 H 0.29708 0.89482 0.92322 0.0
H518 H 0.38369 0.93529 0.97622 0.0
H519 H 0.39432 0.94592 0.87703 0.0
Tb520 Tb 0.14457 0.46238 0.14084 0.0
Eu521 Eu 0.14939 0.49341 0.26442 0.0
C522 C 0.19939 0.48807 0.21936 0.0
C523 C 0.13128 0.42915 0.25454 0.0
C524 C 0.14504 0.45085 0.98344 0.0
C525 C 0.15299 0.44366 0.8849 0.0
C526 C 0.14835 0.43491 0.94042 0.0
C527 C 0.147 0.47597 0.9706 0.0
C528 C 0.15146 0.48465 0.91512 0.0
C529 C 0.15427 0.46849 0.87135 0.0
C530 C 0.13799 0.44043 0.04043 0.0
O531 O 0.1044 0.44919 0.16941 0.0
O532 O 0.11532 0.49146 0.20188 0.0
O533 O 0.17483 0.52757 0.21101 0.0
O534 O 0.15298 0.50473 0.1239 0.0
C535 C 0.09741 0.46796 0.17323 0.0
O536 O 0.12752 0.49924 0.33265 0.0
O537 O 0.17201 0.52294 0.33818 0.0
O538 O 0.18574 0.4858 0.26477 0.0
O539 O 0.18812 0.48619 0.16762 0.0
O540 O 0.13953 0.4312 0.20198 0.0
O541 O 0.12931 0.44894 0.28131 0.0
C542 C 0.16848 0.528 0.15671 0.0
O543 O 0.15833 0.44539 0.07757 0.0
O544 O 0.11996 0.44488 0.06362 0.0
C545 C 0.15098 0.50825 0.42399 0.0
C546 C 0.15059 0.49212 0.53659 0.0
C547 C 0.14724 0.51478 0.52554 0.0
C548 C 0.14733 0.5227 0.4696 0.0
C549 C 0.15475 0.48591 0.43485 0.0
C550 C 0.15444 0.47782 0.49062 0.0
C551 C 0.15001 0.51587 0.36496 0.0
H552 H 0.15549 0.43092 0.85257 0.0
H553 H 0.14693 0.41549 0.94955 0.0
H554 H 0.14442 0.4886 1.00312 0.0
H555 H 0.15193 0.50366 0.90622 0.0
H556 H 0.14394 0.52601 0.55996 0.0
H557 H 0.14429 0.53993 0.46188 0.0
H558 H 0.15783 0.47471 0.40006 0.0
H559 H 0.1574 0.4605 0.49783 0.0
Tb560 Tb 0.58151 0.67873 0.22312 0.0
Eu561 Eu 0.5989 0.71117 0.10624 0.0
C562 C 0.54079 0.65674 0.11564 0.0
C563 C 0.60656 0.66009 0.12072 0.0
C564 C 0.57014 0.65847 0.37426 0.0
C565 C 0.55834 0.64267 0.46909 0.0
C566 C 0.55537 0.63722 0.40957 0.0
C567 C 0.58827 0.68527 0.39918 0.0
C568 C 0.59133 0.69076 0.45889 0.0
C569 C 0.57617 0.66954 0.49454 0.0
C570 C 0.56581 0.6523 0.31167 0.0
O571 O 0.62435 0.70786 0.24517 0.0
O572 O 0.63247 0.73931 0.17766 0.0
O573 O 0.57346 0.72507 0.15086 0.0
O574 O 0.58387 0.719 0.24289 0.0
C575 C 0.63946 0.73221 0.22634 0.0
O576 O 0.62881 0.7354 0.04624 0.0
O577 O 0.58638 0.7249 0.0306 0.0
O578 O 0.56143 0.66779 0.08302 0.0
O579 O 0.54445 0.66675 0.16872 0.0
O580 O 0.58895 0.65226 0.16093 0.0
O581 O 0.61782 0.68495 0.10364 0.0
C582 C 0.5757 0.73123 0.20606 0.0
O583 O 0.55242 0.66214 0.28382 0.0
O584 O 0.58699 0.65567 0.28568 0.0
C585 C 0.61077 0.72834 0.94962 0.0
C586 C 0.6101 0.71537 0.83155 0.0
C587 C 0.62604 0.74279 0.85557 0.0
C588 C 0.62631 0.74919 0.91405 0.0
C589 C 0.59534 0.70083 0.92628 0.0
C590 C 0.59493 0.69441 0.86767 0.0
C591 C 0.61045 0.73572 1.01051 0.0
H592 H 0.54669 0.62577 0.49524 0.0
H593 H 0.54133 0.61639 0.39102 0.0
H594 H 0.59976 0.70195 0.37241 0.0
H595 H 0.60505 0.71173 0.477 0.0
H596 H 0.63776 0.75941 0.82887 0.0
H597 H 0.63837 0.77053 0.93138 0.0
H598 H 0.5834 0.68439 0.95322 0.0
H599 H 0.58275 0.67305 0.85061 0.0
Tb600 Tb 0.39091 0.47659 0.25152 0.0
Eu601 Eu 0.35542 0.45224 0.12586 0.0
C602 C 0.40875 0.45167 0.15129 0.0
C603 C 0.40563 0.51529 0.1508 0.0
C604 C 0.40923 0.48429 0.4084 0.0
C605 C 0.41255 0.49727 0.51037 0.0
C606 C 0.42072 0.50429 0.45511 0.0
C607 C 0.38964 0.457 0.41799 0.0
C608 C 0.38148 0.44996 0.47318 0.0
C609 C 0.39262 0.47004 0.52006 0.0
C610 C 0.41696 0.49234 0.34984 0.0
O611 O 0.35085 0.47369 0.2629 0.0
O612 O 0.33734 0.47502 0.16915 0.0
O613 O 0.32902 0.42137 0.18903 0.0
O614 O 0.36381 0.43292 0.26006 0.0
C615 C 0.33511 0.47728 0.22433 0.0
O616 O 0.33299 0.45487 0.04966 0.0
O617 O 0.34159 0.4215 0.05234 0.0
O618 O 0.38243 0.43462 0.14398 0.0
O619 O 0.41747 0.47346 0.18795 0.0
O620 O 0.40117 0.51286 0.20531 0.0
O621 O 0.39417 0.49347 0.11339 0.0
C622 C 0.33838 0.41677 0.23804 0.0
O623 O 0.4172 0.47382 0.31464 0.0
O624 O 0.40535 0.5047 0.32484 0.0
C625 C 0.34309 0.44003 0.9627 0.0
C626 C 0.36244 0.44999 0.85193 0.0
C627 C 0.34061 0.42393 0.86313 0.0
C628 C 0.33107 0.41903 0.91792 0.0
C629 C 0.36499 0.466 0.95194 0.0
C630 C 0.37451 0.47094 0.89723 0.0
C631 C 0.33292 0.43455 1.02041 0.0
H632 H 0.42135 0.51334 0.54524 0.0
H633 H 0.43575 0.52549 0.4487 0.0
H634 H 0.38048 0.44114 0.38276 0.0
H635 H 0.36648 0.42872 0.47917 0.0
H636 H 0.33107 0.40716 0.82975 0.0
H637 H 0.3143 0.39878 0.92536 0.0
H638 H 0.37477 0.48253 0.98586 0.0
H639 H 0.39111 0.49136 0.89031 0.0
Tb640 Tb 0.60739 0.91557 0.1241 0.0
Eu641 Eu 0.59582 0.93827 0.2448 0.0
C642 C 0.65215 0.93995 0.23328 0.0
C643 C 0.58838 0.8777 0.22558 0.0
C644 C 0.61179 0.90528 0.96875 0.0
C645 C 0.61888 0.90203 0.86783 0.0
C646 C 0.62169 0.89604 0.92449 0.0
C647 C 0.5993 0.92085 0.95579 0.0
C648 C 0.5966 0.92699 0.89931 0.0
C649 C 0.60615 0.91748 0.85439 0.0
C650 C 0.61434 0.89854 0.02817 0.0
O651 O 0.57162 0.92111 0.10528 0.0
O652 O 0.55525 0.91246 0.19335 0.0
O653 O 0.60252 0.97057 0.18043 0.0
O654 O 0.62568 0.95946 0.11635 0.0
C655 C 0.55144 0.91441 0.13859 0.0
O656 O 0.5693 0.93018 0.31453 0.0
O657 O 0.60659 0.96977 0.31526 0.0
O658 O 0.64075 0.95382 0.25148 0.0
O659 O 0.64077 0.92134 0.18867 0.0
O660 O 0.58356 0.87931 0.17084 0.0
O661 O 0.59822 0.8997 0.26202 0.0
C662 C 0.61715 0.97591 0.13539 0.0
O663 O 0.63415 0.91825 0.06221 0.0
O664 O 0.59151 0.88625 0.05307 0.0
C665 C 0.59297 0.95139 0.4046 0.0
C666 C 0.60409 0.94573 0.52095 0.0
C667 C 0.5916 0.96121 0.50609 0.0
C668 C 0.58614 0.96403 0.44845 0.0
C669 C 0.60564 0.93613 0.41907 0.0
C670 C 0.61123 0.93339 0.47665 0.0
C671 C 0.58612 0.95349 0.34405 0.0
H672 H 0.62614 0.89404 0.83441 0.0
H673 H 0.63136 0.88394 0.93365 0.0
H674 H 0.59142 0.92806 0.98938 0.0
H675 H 0.58707 0.93926 0.89093 0.0
H676 H 0.58614 0.97126 0.53906 0.0
H677 H 0.57636 0.97591 0.4381 0.0
H678 H 0.6108 0.92598 0.38575 0.0
H679 H 0.62054 0.92104 0.48645 0.0
Tb680 Tb 0.14866 0.68525 0.2549 0.0
Eu681 Eu 0.15734 0.71829 0.13909 0.0
C682 C 0.10231 0.66202 0.14924 0.0
C683 C 0.16564 0.66571 0.14607 0.0
C684 C 0.14519 0.67156 0.40859 0.0
C685 C 0.13917 0.66111 0.50831 0.0
C686 C 0.13749 0.65248 0.45049 0.0
C687 C 0.15428 0.69934 0.42502 0.0
C688 C 0.15593 0.70798 0.48275 0.0
C689 C 0.14859 0.68901 0.52524 0.0
C690 C 0.14366 0.66239 0.34797 0.0
O691 O 0.18403 0.72776 0.27475 0.0
O692 O 0.19872 0.73349 0.18532 0.0
O693 O 0.15101 0.7435 0.21056 0.0
O694 O 0.1276 0.70801 0.26736 0.0
C695 C 0.20363 0.74062 0.24031 0.0
O696 O 0.18275 0.73781 0.06932 0.0
O697 O 0.14457 0.73772 0.07463 0.0
O698 O 0.11278 0.6871 0.13326 0.0
O699 O 0.11478 0.65585 0.19075 0.0
O700 O 0.17152 0.67274 0.20135 0.0
O701 O 0.15522 0.67746 0.11364 0.0
C702 C 0.13591 0.7333 0.25428 0.0
O703 O 0.12306 0.66003 0.31522 0.0
O704 O 0.16654 0.67481 0.32328 0.0
C705 C 0.15782 0.73395 0.98221 0.0
C706 C 0.14702 0.71713 0.86364 0.0
C707 C 0.15865 0.74517 0.88294 0.0
C708 C 0.16401 0.75347 0.94166 0.0
C709 C 0.14572 0.70591 0.96345 0.0
C710 C 0.14035 0.69756 0.90474 0.0
C711 C 0.16497 0.74308 0.04372 0.0
H712 H 0.13366 0.64602 0.53988 0.0
H713 H 0.1304 0.63095 0.43856 0.0
H714 H 0.16023 0.71435 0.39318 0.0
H715 H 0.16289 0.72953 0.49409 0.0
H716 H 0.16362 0.76074 0.85264 0.0
H717 H 0.17328 0.7752 0.95539 0.0
H718 H 0.1409 0.69054 0.99422 0.0
H719 H 0.13166 0.67585 0.89158 0.0
H720 H 0.13672 0.42685 0.36974 0.0
H721 H 0.10746 0.37482 0.21148 0.0
H722 H 0.0882 0.33368 0.26623 0.0
H723 H 0.07604 0.31279 0.35901 0.0
H724 H 0.10591 0.36492 0.51709 0.0
H725 H 0.12895 0.4059 0.46253 0.0
C726 C 0.12637 0.40652 0.34707 0.0
C727 C 0.12328 0.404 0.28633 0.0
C728 C 0.11539 0.38305 0.37893 0.0
C729 C 0.11019 0.37744 0.25792 0.0
C730 C 0.09902 0.35392 0.28933 0.0
C731 C 0.08782 0.33313 0.38157 0.0
C732 C 0.08896 0.33582 0.44218 0.0
C733 C 0.10093 0.35651 0.34979 0.0
C734 C 0.10476 0.36224 0.47075 0.0
C735 C 0.11775 0.38566 0.43942 0.0
H736 H 0.75658 0.79578 0.36125 0.0
H737 H 0.70748 0.77278 0.50551 0.0
H738 H 0.66562 0.75545 0.44012 0.0
H739 H 0.64302 0.74175 0.34127 0.0
H740 H 0.69219 0.76513 0.197 0.0
H741 H 0.73424 0.78794 0.26293 0.0
C742 C 0.73673 0.78743 0.37839 0.0
C743 C 0.73505 0.78533 0.43813 0.0
C744 C 0.7129 0.77753 0.34044 0.0
C745 C 0.7093 0.77475 0.4599 0.0
C746 C 0.68539 0.76467 0.4224 0.0
C747 C 0.66297 0.75238 0.32429 0.0
C748 C 0.66452 0.75163 0.26423 0.0
C749 C 0.68692 0.76522 0.36253 0.0
C750 C 0.69043 0.76561 0.24282 0.0
C751 C 0.71444 0.7784 0.28061 0.0
H752 H 0.25807 0.971 0.34919 0.0
H753 H 0.31517 0.9877 0.49642 0.0
H754 H 0.34063 0.97234 0.43836 0.0
H755 H 0.34895 0.95819 0.34411 0.0
H756 H 0.29158 0.94046 0.19698 0.0
H757 H 0.26395 0.95243 0.25671 0.0
C758 C 0.2759 0.97097 0.36895 0.0
C759 C 0.28476 0.98075 0.42737 0.0
C760 C 0.29057 0.96232 0.33504 0.0
C761 C 0.30776 0.98025 0.45199 0.0
C762 C 0.32247 0.97168 0.41854 0.0
C763 C 0.33029 0.95675 0.32496 0.0
C764 C 0.32259 0.94879 0.26564 0.0
C765 C 0.31444 0.96335 0.35976 0.0
C766 C 0.29808 0.94659 0.24216 0.0
C767 C 0.28233 0.9535 0.2764 0.0
H768 H 0.31725 0.09117 0.677 0.0
H769 H 0.35902 0.07609 0.54349 0.0
H770 H 0.40028 0.09339 0.61021 0.0
H771 H 0.42255 0.10816 0.70873 0.0
H772 H 0.38163 0.12444 0.842 0.0
H773 H 0.34168 0.11112 0.77306 0.0
C774 C 0.33552 0.09204 0.66212 0.0
C775 C 0.3349 0.08208 0.60516 0.0
C776 C 0.35906 0.1018 0.70094 0.0
C777 C 0.35888 0.08367 0.5867 0.0
C778 C 0.38239 0.09332 0.6251 0.0
C779 C 0.40496 0.109 0.72267 0.0
C780 C 0.40483 0.11681 0.78075 0.0
C781 C 0.3824 0.10167 0.68265 0.0
C782 C 0.38217 0.11838 0.79778 0.0
C783 C 0.35936 0.1107 0.75833 0.0
H784 H 0.97208 0.30204 0.80362 0.0
H785 H 0.91694 0.31737 0.69827 0.0
H786 H 0.92708 0.29895 0.6125 0.0
H787 H 0.95688 0.2845 0.56538 0.0
H788 H 1.01241 0.26999 0.67127 0.0
H789 H 0.99682 0.28134 0.75787 0.0
C790 C 0.96146 0.30024 0.76221 0.0
C791 C 0.94338 0.31059 0.75756 0.0
C792 C 0.96788 0.29006 0.71256 0.0
C793 C 0.93051 0.309 0.70316 0.0
C794 C 0.93654 0.29873 0.65388 0.0
C795 C 0.96488 0.28303 0.60744 0.0
C796 C 0.98586 0.27639 0.61181 0.0
C797 C 0.95593 0.29003 0.65762 0.0
C798 C 0.99632 0.27505 0.66677 0.0
C799 C 0.98744 0.28165 0.71646 0.0
H800 H 0.8034 0.75559 0.68982 0.0
H801 H 0.77213 0.70019 0.5365 0.0
H802 H 0.7543 0.66043 0.59542 0.0
H803 H 0.74346 0.64178 0.6906 0.0
H804 H 0.77612 0.69703 0.8441 0.0
H805 H 0.79783 0.73667 0.7853 0.0
C806 C 0.79316 0.73479 0.66931 0.0
C807 C 0.78904 0.73085 0.60868 0.0
C808 C 0.78305 0.71212 0.70363 0.0
C809 C 0.77582 0.70381 0.58277 0.0
C810 C 0.76542 0.6811 0.6166 0.0
C811 C 0.75573 0.66247 0.71124 0.0
C812 C 0.758 0.66642 0.77183 0.0
C813 C 0.76829 0.68504 0.67703 0.0
C814 C 0.77415 0.69335 0.79784 0.0
C815 C 0.78639 0.71602 0.76408 0.0
H816 H 0.98266 0.74704 0.68082 0.0
H817 H 0.99387 0.70121 0.54283 0.0
H818 H 0.97756 0.66124 0.60043 0.0
H819 H 0.96377 0.64075 0.69227 0.0
H820 H 0.95209 0.68598 0.83072 0.0
H821 H 0.96546 0.72504 0.77087 0.0
C822 C 0.98149 0.72829 0.66309 0.0
C823 C 0.9899 0.7274 0.6074 0.0
C824 C 0.97238 0.70547 0.69692 0.0
C825 C 0.98758 0.70263 0.58512 0.0
C826 C 0.97845 0.67982 0.61837 0.0
C827 C 0.96393 0.65903 0.70961 0.0
C828 C 0.95713 0.66036 0.76664 0.0
C829 C 0.97139 0.68123 0.67472 0.0
C830 C 0.95723 0.68426 0.78743 0.0
C831 C 0.96493 0.70663 0.75309 0.0
H832 H 0.31644 0.25632 0.67916 0.0
H833 H 0.36671 0.29129 0.5396 0.0
H834 H 0.40836 0.30962 0.60596 0.0
H835 H 0.42979 0.32148 0.70602 0.0
H836 H 0.37939 0.28714 0.84571 0.0
H837 H 0.33836 0.26246 0.77729 0.0
C838 C 0.33657 0.26712 0.66302 0.0
C839 C 0.33853 0.27216 0.60435 0.0
C840 C 0.3603 0.27802 0.70177 0.0
C841 C 0.36467 0.28663 0.58412 0.0
C842 C 0.38845 0.29741 0.62232 0.0
C843 C 0.40989 0.30794 0.72122 0.0
C844 C 0.40758 0.30599 0.78084 0.0
C845 C 0.38645 0.29407 0.68153 0.0
C846 C 0.38172 0.28865 0.80016 0.0
C847 C 0.35827 0.27475 0.76098 0.0
H848 H 0.75203 0.12923 0.70972 0.0
H849 H 0.77769 0.10387 0.86078 0.0
H850 H 0.80074 0.08577 0.80155 0.0
H851 H 0.80861 0.07242 0.70557 0.0
H852 H 0.78309 0.09806 0.55444 0.0
H853 H 0.76509 0.12111 0.61485 0.0
C854 C 0.76323 0.12029 0.72975 0.0
C855 C 0.76319 0.11786 0.78956 0.0
C856 C 0.77611 0.10976 0.69526 0.0
C857 C 0.77772 0.10627 0.8151 0.0
C858 C 0.79062 0.09568 0.78106 0.0
C859 C 0.79946 0.08339 0.68583 0.0
C860 C 0.79691 0.08323 0.62533 0.0
C861 C 0.7892 0.09657 0.72093 0.0
C862 C 0.78537 0.09789 0.60064 0.0
C863 C 0.77494 0.11092 0.63525 0.0
H864 H 0.65135 0.93111 0.34504 0.0
H865 H 0.70533 0.95677 0.20909 0.0
H866 H 0.74514 0.97207 0.27974 0.0
H867 H 0.76472 0.98405 0.38157 0.0
H868 H 0.71027 0.96001 0.51685 0.0
H869 H 0.67038 0.93775 0.44547 0.0
C870 C 0.67179 0.93942 0.3308 0.0
C871 C 0.6754 0.94275 0.27188 0.0
C872 C 0.69443 0.94857 0.37181 0.0
C873 C 0.70196 0.95364 0.25394 0.0
C874 C 0.72472 0.96263 0.29452 0.0
C875 C 0.74408 0.97313 0.3953 0.0
C876 C 0.7404 0.97328 0.45453 0.0
C877 C 0.72126 0.961 0.35373 0.0
C878 C 0.71362 0.95964 0.47178 0.0
C879 C 0.69083 0.9472 0.43085 0.0
H880 H 0.09694 0.80787 0.38242 0.0
H881 H 0.08926 0.75484 0.5172 0.0
H882 H 0.10852 0.73266 0.45807 0.0
H883 H 0.12346 0.7256 0.36505 0.0
H884 H 0.13182 0.77898 0.23064 0.0
H885 H 0.11603 0.80366 0.29267 0.0
C886 C 0.09979 0.79169 0.39938 0.0
C887 C 0.09142 0.78294 0.45441 0.0
C888 C 0.11057 0.77884 0.36478 0.0
C889 C 0.09558 0.76212 0.47548 0.0
C890 C 0.10636 0.74926 0.44133 0.0
C891 C 0.12205 0.74276 0.34921 0.0
C892 C 0.12854 0.75016 0.29261 0.0
C893 C 0.11325 0.75699 0.38541 0.0
C894 C 0.12691 0.77274 0.2736 0.0
C895 C 0.11784 0.78682 0.30915 0.0
H896 H 0.32992 0.41847 0.3507 0.0
H897 H 0.30829 0.36176 0.20134 0.0
H898 H 0.28759 0.32266 0.26162 0.0
H899 H 0.27978 0.30502 0.35764 0.0
H900 H 0.29932 0.36114 0.5071 0.0
H901 H 0.31633 0.40011 0.44595 0.0
C902 C 0.32022 0.39748 0.33126 0.0
C903 C 0.32073 0.39301 0.2715 0.0
C904 C 0.30826 0.37512 0.3663 0.0
C905 C 0.30794 0.36576 0.24686 0.0
C906 C 0.29634 0.34344 0.28148 0.0
C907 C 0.28752 0.32576 0.3769 0.0
C908 C 0.28861 0.33017 0.43717 0.0
C909 C 0.29702 0.34792 0.34136 0.0
C910 C 0.29828 0.35713 0.46111 0.0
C911 C 0.30818 0.37942 0.42607 0.0
H912 H 1.03447 0.45112 0.93087 0.0
H913 H 0.96848 0.38857 1.01693 0.0
H914 H 0.99653 0.405 0.108 0.0
H915 H 0.04217 0.43287 0.16107 0.0
H916 H 0.10798 0.49681 0.07788 0.0
H917 H 0.07814 0.48476 0.98933 0.0
C918 C 1.02602 0.44173 0.96988 0.0
C919 C 0.99939 0.41835 0.9667 0.0
C920 C 0.04249 0.45148 0.02307 0.0
C921 C 0.98893 0.40633 1.01787 0.0
C922 C 1.00503 0.41571 0.07021 0.0
C923 C 0.04964 0.44485 0.12423 0.0
C924 C 0.07726 0.46613 0.12678 0.0
C925 C 1.03219 0.43765 0.07308 0.0
C926 C 0.08674 0.48094 0.078 0.0
C927 C 0.06965 0.47372 0.02677 0.0
H928 H 0.66165 0.59924 1.00505 0.0
H929 H 0.63333 0.62113 0.85232 0.0
H930 H 0.60788 0.63676 0.91025 0.0
H931 H 0.59914 0.64991 1.00575 0.0
H932 H 0.62759 0.62811 0.15853 0.0
H933 H 0.64729 0.60629 0.09939 0.0
C934 C 0.64939 0.60688 0.98434 0.0
C935 C 0.64946 0.60914 0.9244 0.0
C936 C 0.63503 0.61593 1.01812 0.0
C937 C 0.63343 0.61895 0.89808 0.0
C938 C 0.61909 0.62809 0.93138 0.0
C939 C 0.60897 0.63964 0.02598 0.0
C940 C 0.61182 0.64051 0.08657 0.0
C941 C 0.62046 0.62747 0.99159 0.0
C942 C 0.62476 0.62736 0.11222 0.0
C943 C 0.63628 0.61517 0.0783 0.0
H944 H 0.47726 0.09256 0.02966 0.0
H945 H 0.44932 0.03755 0.87587 0.0
H946 H 0.43198 0.9977 0.93441 0.0
H947 H 0.41974 0.97867 0.02905 0.0
H948 H 0.44825 0.03368 0.18277 0.0
H949 H 0.47087 0.07353 0.12483 0.0
C950 C 0.46789 0.07186 1.00893 0.0
C951 C 0.46446 0.06806 0.94826 0.0
C952 C 0.458 0.04913 0.04302 0.0
C953 C 0.45243 0.04111 0.9222 0.0
C954 C 0.44231 1.01833 0.95579 0.0
C955 C 0.43153 0.99938 0.04993 0.0
C956 C 0.43236 1.00322 0.11027 0.0
C957 C 0.44428 1.02209 1.01615 0.0
C958 C 0.44761 0.03013 0.13673 0.0
C959 C 0.46027 0.0529 0.10342 0.0
H960 H 0.6692 0.08971 1.0218 0.0
H961 H 0.63939 0.03509 0.86736 0.0
H962 H 0.61738 0.99508 0.92505 0.0
H963 H 0.61078 0.97577 1.02002 0.0
H964 H 0.63892 0.0304 0.1743 0.0
H965 H 0.65723 0.07048 0.11627 0.0
C966 C 0.65748 0.06906 1.00072 0.0
C967 C 0.6561 0.06538 0.94024 0.0
C968 C 0.64477 0.04627 0.03428 0.0
C969 C 0.64064 0.03852 0.91356 0.0
C970 C 0.62824 1.01566 0.94669 0.0
C971 C 0.62051 0.99645 0.04091 0.0
C972 C 0.62365 1.0001 0.10154 0.0
C973 C 0.63076 1.01928 1.00711 0.0
C974 C 0.63609 1.027 0.12794 0.0
C975 C 0.64672 0.0499 0.09466 0.0
H976 H 0.10116 0.65034 0.03638 0.0
H977 H 0.04977 0.62748 0.17693 0.0
H978 H 1.00865 0.60261 0.10881 0.0
H979 H 0.98766 0.59407 1.00916 0.0
H980 H 1.039 0.61803 0.86858 0.0
H981 H 0.08004 0.63555 0.93651 0.0
C982 C 0.08096 0.63911 0.05206 0.0
C983 C 0.07843 0.64054 0.11162 0.0
C984 C 0.05754 0.62538 1.01249 0.0
C985 C 0.05222 0.62627 0.13152 0.0
C986 C 1.02875 0.61234 0.09245 0.0
C987 C 1.0078 0.6023 0.99338 0.0
C988 C 1.01035 0.60456 0.93391 0.0
C989 C 1.03117 0.61266 0.03285 0.0
C990 C 1.03651 0.61563 0.91391 0.0
C991 C 0.05994 0.62589 0.95289 0.0
H992 H 0.45459 0.44578 0.15235 0.0
H993 H 0.39743 0.4554 0.04013 0.0
H994 H 0.41449 0.44379 0.95624 0.0
H995 H 0.44094 0.42386 0.91503 0.0
H996 H 0.49806 0.41401 0.02671 0.0
H997 H 0.48632 0.43283 0.10937 0.0
C998 C 0.44657 0.4462 0.10948 0.0
C999 C 0.4247 0.45145 0.10268 0.0
C1000 C 0.45635 0.43905 0.06085 0.0
C1001 C 0.41423 0.45143 0.04665 0.0
C1002 C 0.42392 0.44464 0.99846 0.0
C1003 C 0.45156 0.4269 0.95706 0.0
C1004 C 0.47053 0.41774 0.96458 0.0
C1005 C 0.44433 0.43744 1.00493 0.0
C1006 C 0.48355 0.4211 1.01976 0.0
C1007 C 0.47668 0.43171 0.06723 0.0
H1008 H 0.13042 0.28955 0.50082 0.0
H1009 H 0.07294 0.20713 0.4281 0.0
H1010 H 0.11101 0.19845 0.41483 0.0
H1011 H 0.16071 0.21305 0.43493 0.0
H1012 H 0.21746 0.29655 0.50349 0.0
H1013 H 0.17998 0.30625 0.50665 0.0
C1014 C 0.12632 0.26986 0.48104 0.0
C1015 C 0.09896 0.24893 0.46583 0.0
C1016 C 0.1483 0.26524 0.47295 0.0
C1017 C 0.09386 0.22357 0.43997 0.0
C1018 C 0.11564 0.21859 0.43272 0.0
C1019 C 0.16487 0.23358 0.44866 0.0
C1020 C 0.19193 0.25419 0.46833 0.0
C1021 C 0.14296 0.23907 0.45039 0.0
C1022 C 0.19696 0.28052 0.48724 0.0
C1023 C 0.17545 0.28601 0.48959 0.0
H1024 H 0.79655 0.94516 0.41889 0.0
H1025 H 0.87867 0.99593 0.50037 0.0
H1026 H 0.88451 0.95581 0.50329 0.0
H1027 H 0.86343 0.9053 0.49875 0.0
H1028 H 0.78212 0.85373 0.41475 0.0
H1029 H 0.77878 0.89477 0.39644 0.0
C1030 C 0.81611 0.94758 0.4348 0.0
C1031 C 0.83717 0.97358 0.4594 0.0
C1032 C 0.81921 0.92406 0.43736 0.0
C1033 C 0.86221 0.97621 0.481 0.0
C1034 C 0.86546 0.95318 0.48332 0.0
C1035 C 0.84531 0.90314 0.47501 0.0
C1036 C 0.82302 0.87657 0.45842 0.0
C1037 C 0.84367 0.92683 0.4642 0.0
C1038 C 0.79964 0.87401 0.42764 0.0
C1039 C 0.79766 0.8975 0.41753 0.0
H1040 H 0.10382 0.87415 0.4095 0.0
H1041 H 0.08006 0.89886 0.5626 0.0
H1042 H 0.11806 0.94617 0.5604 0.0
H1043 H 0.16239 0.97835 0.52488 0.0
H1044 H 0.18824 0.95403 0.37485 0.0
H1045 H 0.1452 0.90926 0.36484 0.0
C1046 C 0.10643 0.8902 0.44095 0.0
C1047 C 0.0889 0.88311 0.48579 0.0
C1048 C 0.12898 0.91747 0.44021 0.0
C1049 C 0.09302 0.90391 0.52731 0.0
C1050 C 0.1149 0.93094 0.5263 0.0
C1051 C 0.15799 0.9637 0.48848 0.0
C1052 C 0.17817 0.96976 0.44983 0.0
C1053 C 0.13361 0.93773 0.48428 0.0
C1054 C 0.17269 0.9502 0.40411 0.0
C1055 C 0.14823 0.92439 0.399 0.0
H1056 H 0.21029 0.15502 0.53182 0.0
H1057 H 0.28469 0.20354 0.64297 0.0
H1058 H 0.28781 0.16219 0.65753 0.0
H1059 H 0.27319 0.11361 0.626 0.0
H1060 H 0.19794 0.06486 0.51794 0.0
H1061 H 0.1909 0.10449 0.51586 0.0
C1062 C 0.22678 0.15639 0.56043 0.0
C1063 C 0.24735 0.18243 0.58593 0.0
C1064 C 0.22828 0.13238 0.56909 0.0
C1065 C 0.26852 0.18381 0.62306 0.0
C1066 C 0.27041 0.16015 0.63107 0.0
C1067 C 0.2546 0.11136 0.60433 0.0
C1068 C 0.23579 0.08614 0.57308 0.0
C1069 C 0.2509 0.13447 0.60282 0.0
C1070 C 0.21227 0.08377 0.54358 0.0
C1071 C 0.20851 0.10661 0.54162 0.0
H1072 H 0.89191 0.11458 0.62947 0.0
H1073 H 0.91112 0.07058 0.50207 0.0
H1074 H 0.95656 0.11084 0.4981 0.0
H1075 H 0.9881 0.16035 0.51946 0.0
H1076 H 0.97014 0.20582 0.64553 0.0
H1077 H 0.9275 0.16348 0.66207 0.0
C1078 C 0.90643 0.11361 0.60237 0.0
C1079 C 0.89805 0.08958 0.56591 0.0
C1080 C 0.93268 0.13733 0.5993 0.0
C1081 C 0.91698 0.08881 0.53036 0.0
C1082 C 0.94298 0.1119 0.5278 0.0
C1083 C 0.97517 0.16089 0.55154 0.0
C1084 C 0.98223 0.18627 0.58083 0.0
C1085 C 0.95063 0.13658 0.5603 0.0
C1086 C 0.96531 0.18655 0.62253 0.0
C1087 C 0.94075 0.16234 0.63162 0.0
H1088 H 0.95587 0.79171 0.63095 0.0
H1089 H 0.99814 0.85845 0.52339 0.0
H1090 H 0.95948 0.86682 0.5196 0.0
H1091 H 0.91112 0.85087 0.53592 0.0
H1092 H 0.86905 0.78531 0.64642 0.0
H1093 H 0.91007 0.78097 0.66093 0.0
C1094 C 0.95696 0.80874 0.6086 0.0
C1095 C 0.97998 0.82478 0.5782 0.0
C1096 C 0.93446 0.81332 0.60642 0.0
C1097 C 0.9809 0.84629 0.54808 0.0
C1098 C 0.95864 0.85084 0.54537 0.0
C1099 C 0.91118 0.83607 0.56424 0.0
C1100 C 0.887 0.81831 0.58975 0.0
C1101 C 0.93493 0.83388 0.57271 0.0
C1102 C 0.88741 0.79932 0.62656 0.0
C1103 C 0.91083 0.7967 0.63449 0.0
H1104 H 0.8595 0.596 0.75265 0.0
H1105 H 0.8408 0.53841 0.88302 0.0
H1106 H 0.79552 0.53324 0.88711 0.0
H1107 H 0.76329 0.54903 0.86307 0.0
H1108 H 0.78013 0.60632 0.73317 0.0
H1109 H 0.82354 0.60743 0.71902 0.0
C1110 C 0.84518 0.58177 0.78067 0.0
C1111 C 0.85373 0.56773 0.81776 0.0
C1112 C 0.81887 0.57914 0.7836 0.0
C1113 C 0.83494 0.54961 0.85431 0.0
C1114 C 0.80899 0.54669 0.8569 0.0
C1115 C 0.77622 0.56144 0.83093 0.0
C1116 C 0.76852 0.57773 0.79962 0.0
C1117 C 0.80108 0.56201 0.82327 0.0
C1118 C 0.78546 0.59348 0.75777 0.0
C1119 C 0.81042 0.59426 0.74997 0.0
H1120 H 0.46025 0.27596 0.75106 0.0
H1121 H 0.54397 0.32804 0.82278 0.0
H1122 H 0.55067 0.28837 0.82261 0.0
H1123 H 0.53035 0.23796 0.81885 0.0
H1124 H 0.44709 0.18496 0.74597 0.0
H1125 H 0.44259 0.22551 0.72928 0.0
C1126 C 0.48029 0.27875 0.76401 0.0
C1127 C 0.50169 0.30506 0.78646 0.0
C1128 C 0.48387 0.25546 0.765 0.0
C1129 C 0.52731 0.30815 0.80467 0.0
C1130 C 0.53106 0.28536 0.80529 0.0
C1131 C 0.51151 0.23535 0.79766 0.0
C1132 C 0.48909 0.2085 0.78381 0.0
C1133 C 0.50914 0.25876 0.78813 0.0
C1134 C 0.46476 0.20541 0.75654 0.0
C1135 C 0.46211 0.22864 0.74748 0.0
H1136 H 0.76066 0.23936 0.85059 0.0
H1137 H 0.7834 0.18993 0.74727 0.0
H1138 H 0.82678 0.23142 0.73073 0.0
H1139 H 0.86115 0.28121 0.75773 0.0
H1140 H 0.83683 0.3299 0.8591 0.0
H1141 H 0.79116 0.28975 0.86281 0.0
C1142 C 0.77488 0.23777 0.82347 0.0
C1143 C 0.76892 0.21157 0.80069 0.0
C1144 C 0.7996 0.26175 0.81361 0.0
C1145 C 0.78745 0.20986 0.76523 0.0
C1146 C 0.81235 0.23361 0.756 0.0
C1147 C 0.84541 0.28323 0.7783 0.0
C1148 C 0.85232 0.30865 0.80762 0.0
C1149 C 0.81906 0.25965 0.78131 0.0
C1150 C 0.83192 0.31071 0.83557 0.0
C1151 C 0.80587 0.28762 0.83839 0.0
H1152 H 0.88345 0.48855 0.89059 0.0
H1153 H 0.96425 0.54128 0.97596 0.0
H1154 H 0.96832 0.50078 0.99521 0.0
H1155 H 0.95158 0.45057 0.97285 0.0
H1156 H 0.87022 0.39862 0.88892 0.0
H1157 H 0.86334 0.43813 0.88568 0.0
C1158 C 0.90162 0.49111 0.91491 0.0
C1159 C 0.92355 0.51793 0.93157 0.0
C1160 C 0.90373 0.46767 0.92601 0.0
C1161 C 0.94697 0.5209 0.96302 0.0
C1162 C 0.94939 0.49768 0.97363 0.0
C1163 C 0.93191 0.44774 0.95644 0.0
C1164 C 0.91132 0.42154 0.93157 0.0
C1165 C 0.92826 0.47094 0.95354 0.0
C1166 C 0.88623 0.41843 0.90894 0.0
C1167 C 0.88241 0.44113 0.90635 0.0
H1168 H 0.5585 0.44607 0.95972 0.0
H1169 H 0.57908 0.40162 0.8363 0.0
H1170 H 0.62395 0.44242 0.83056 0.0
H1171 H 0.65493 0.49225 0.85008 0.0
H1172 H 0.63604 0.53785 0.97389 0.0
H1173 H 0.59341 0.49546 0.99032 0.0
C1174 C 0.57321 0.44513 0.93317 0.0
C1175 C 0.56534 0.42073 0.89839 0.0
C1176 C 0.59919 0.46913 0.9292 0.0
C1177 C 0.58454 0.42006 0.86345 0.0
C1178 C 0.6102 0.44349 0.85979 0.0
C1179 C 0.64173 0.49284 0.88144 0.0
C1180 C 0.6486 0.51825 0.91031 0.0
C1181 C 0.61735 0.4684 0.89073 0.0
C1182 C 0.63134 0.51856 0.95118 0.0
C1183 C 0.60683 0.4943 0.96033 0.0
H1184 H 0.65277 0.18255 0.84791 0.0
H1185 H 0.6381 0.12806 0.98285 0.0
H1186 H 0.59473 0.12686 0.99762 0.0
H1187 H 0.55807 0.13698 0.96311 0.0
H1188 H 0.57424 0.19139 0.82709 0.0
H1189 H 0.61979 0.19723 0.82254 0.0
C1190 C 0.64032 0.17075 0.88125 0.0
C1191 C 0.64858 0.15523 0.91381 0.0
C1192 C 0.61544 0.17003 0.88914 0.0
C1193 C 0.6323 0.14028 0.95723 0.0
C1194 C 0.60737 0.13944 0.9654 0.0
C1195 C 0.57191 0.1507 0.93371 0.0
C1196 C 0.5626 0.1636 0.89521 0.0
C1197 C 0.59828 0.15364 0.93047 0.0
C1198 C 0.58073 0.18106 0.8569 0.0
C1199 C 0.60682 0.18436 0.85406 0.0
H1200 H 0.50088 0.8797 0.17025 0.0
H1201 H 0.5434 0.94667 0.0634 0.0
H1202 H 0.50218 0.95091 0.04918 0.0
H1203 H 0.45587 0.93958 0.07948 0.0
H1204 H 0.41487 0.8724 0.1872 0.0
H1205 H 0.45315 0.86392 0.18779 0.0
C1206 C 0.50092 0.89478 0.14266 0.0
C1207 C 0.5252 0.91289 0.11814 0.0
C1208 C 0.4773 0.8972 0.13519 0.0
C1209 C 0.5249 0.9323 0.0824 0.0
C1210 C 0.50137 0.93489 0.07474 0.0
C1211 C 0.45501 0.92255 0.10139 0.0
C1212 C 0.43249 0.90669 0.13347 0.0
C1213 C 0.47765 0.91802 0.10251 0.0
C1214 C 0.43192 0.88495 0.16238 0.0
C1215 C 0.45392 0.88016 0.16302 0.0
H1216 H 0.20503 0.65281 0.17176 0.0
H1217 H 0.12716 0.62222 0.07367 0.0
H1218 H 0.12271 0.57655 0.05884 0.0
H1219 H 0.13773 0.54363 0.08826 0.0
H1220 H 0.21607 0.57542 0.18578 0.0
H1221 H 0.22395 0.6222 0.18479 0.0
C1222 C 0.18747 0.63635 0.14568 0.0
C1223 C 0.16641 0.64088 0.12409 0.0
C1224 C 0.18507 0.61018 0.13752 0.0
C1225 C 0.14378 0.61937 0.09036 0.0
C1226 C 0.14112 0.59313 0.08235 0.0
C1227 C 0.15694 0.56083 0.10732 0.0
C1228 C 0.17615 0.55581 0.13757 0.0
C1229 C 0.16118 0.58797 0.1076 0.0
C1230 C 0.20087 0.57858 0.16247 0.0
C1231 C 0.20532 0.6054 0.16237 0.0
H1232 H 0.49121 0.64172 0.15236 0.0
H1233 H 0.53171 0.61205 0.0439 0.0
H1234 H 0.4913 0.56521 0.03838 0.0
H1235 H 0.44686 0.53144 0.07689 0.0
H1236 H 0.40897 0.56275 0.18953 0.0
H1237 H 0.44556 0.60989 0.18054 0.0
C1238 C 0.49098 0.62515 0.12628 0.0
C1239 C 0.51452 0.63045 0.09867 0.0
C1240 C 0.46809 0.59831 0.12475 0.0
C1241 C 0.5138 0.6087 0.06506 0.0
C1242 C 0.49077 0.58179 0.06255 0.0
C1243 C 0.44631 0.54869 0.09809 0.0
C1244 C 0.42515 0.5435 0.13405 0.0
C1245 C 0.46811 0.57611 0.09392 0.0
C1246 C 0.42498 0.56608 0.16188 0.0
C1247 C 0.44598 0.59311 0.15689 0.0
H1248 H 0.60706 0.77848 0.27879 0.0
H1249 H 0.53183 0.73457 0.16817 0.0
H1250 H 0.52745 0.7756 0.16932 0.0
H1251 H 0.54854 0.82568 0.18883 0.0
H1252 H 0.62322 0.87072 0.30027 0.0
H1253 H 0.62422 0.82791 0.31223 0.0
C1254 C 0.5892 0.77767 0.25692 0.0
C1255 C 0.56973 0.75338 0.22348 0.0
C1256 C 0.58702 0.80182 0.25684 0.0
C1257 C 0.54701 0.7529 0.19435 0.0
C1258 C 0.54461 0.77648 0.19454 0.0
C1259 C 0.56467 0.826 0.21688 0.0
C1260 C 0.58583 0.85137 0.24334 0.0
C1261 C 0.56504 0.80134 0.22358 0.0
C1262 C 0.60657 0.85144 0.2797 0.0
C1263 C 0.60725 0.82695 0.28617 0.0
H1264 H 0.3 0.86416 0.29121 0.0
H1265 H 0.33857 0.83304 0.18013 0.0
H1266 H 0.30051 0.78613 0.18359 0.0
H1267 H 0.25338 0.75486 0.20557 0.0
H1268 H 0.2131 0.78421 0.31532 0.0
H1269 H 0.25448 0.83045 0.32584 0.0
C1270 C 0.3004 0.84696 0.2694 0.0
C1271 C 0.32215 0.85218 0.23521 0.0
C1272 C 0.27786 0.81966 0.27062 0.0
C1273 C 0.32212 0.82966 0.20651 0.0
C1274 C 0.30025 0.80277 0.20822 0.0
C1275 C 0.25392 0.7712 0.2331 0.0
C1276 C 0.23019 0.76609 0.25955 0.0
C1277 C 0.27757 0.79765 0.23823 0.0
C1278 C 0.23119 0.78748 0.295 0.0
C1279 C 0.25479 0.81404 0.30046 0.0
H1280 H 0.3152 0.50573 0.16953 0.0
H1281 H 0.30354 0.45834 0.31624 0.0
H1282 H 0.26143 0.45959 0.33243 0.0
H1283 H 0.225 0.47019 0.29749 0.0
H1284 H 0.23848 0.51747 0.14954 0.0
H1285 H 0.28259 0.52043 0.14177 0.0
C1286 C 0.30368 0.49597 0.20561 0.0
C1287 C 0.31245 0.48179 0.2413 0.0
C1288 C 0.27953 0.49661 0.21423 0.0
C1289 C 0.29738 0.46952 0.2882 0.0
C1290 C 0.27314 0.47007 0.29717 0.0
C1291 C 0.23792 0.48163 0.26445 0.0
C1292 C 0.22816 0.49336 0.22378 0.0
C1293 C 0.26357 0.483 0.25953 0.0
C1294 C 0.24517 0.50796 0.181 0.0
C1295 C 0.2705 0.50967 0.1764 0.0
H1296 H 1.01406 0.22399 0.09612 0.0
H1297 H 1.02168 0.30357 0.13409 0.0
H1298 H 1.03425 0.31593 0.037 0.0
H1299 H 0.04279 0.30408 0.94052 0.0
H1300 H 1.03521 0.22444 0.90326 0.0
H1301 H 1.02229 0.21207 0.99993 0.0
C1302 C 1.01817 0.24394 0.0831 0.0
C1303 C 1.01691 0.26278 0.12283 0.0
C1304 C 1.02528 0.25092 0.02692 0.0
C1305 C 1.02282 0.28873 0.10502 0.0
C1306 C 1.02987 0.29579 0.04923 0.0
C1307 C 1.0385 0.28408 0.9536 0.0
C1308 C 0.0399 0.26522 0.9141 0.0
C1309 C 1.03124 0.27708 1.00978 0.0
C1310 C 1.03389 0.23926 0.93202 0.0
C1311 C 1.02666 0.2322 0.98762 0.0
H1312 H 0.80129 0.75929 0.09738 0.0
H1313 H 0.82024 0.84056 0.16269 0.0
H1314 H 0.8172 0.85304 0.06519 0.0
H1315 H 0.81043 0.84155 0.96107 0.0
H1316 H 0.7917 0.76048 0.89506 0.0
H1317 H 0.79405 0.74761 0.99275 0.0
C1318 C 0.80492 0.77979 0.09033 0.0
C1319 C 0.81087 0.79886 0.13771 0.0
C1320 C 0.80339 0.78701 0.03382 0.0
C1321 C 0.81515 0.82523 0.12742 0.0
C1322 C 0.81363 0.8325 0.07151 0.0
C1323 C 0.80656 0.82095 0.96796 0.0
C1324 C 0.80095 0.80208 0.92047 0.0
C1325 C 0.80782 0.8136 0.02436 0.0
C1326 C 0.79645 0.77561 0.93054 0.0
C1327 C 0.79763 0.76816 0.98652 0.0
H1328 H 0.29861 0.07114 0.09484 0.0
H1329 H 0.22358 0.99703 0.12489 0.0
H1330 H 0.21582 0.98198 0.0229 0.0
H1331 H 0.22973 0.9903 0.925 0.0
H1332 H 0.30474 0.06434 0.89458 0.0
H1333 H 0.31272 0.07932 0.99675 0.0
C1334 C 0.28043 0.05182 0.079 0.0
C1335 C 0.2617 0.03526 0.11749 0.0
C1336 C 0.27598 0.04336 1.02022 0.0
C1337 C 0.23849 1.01003 0.09635 0.0
C1338 C 0.23395 1.00147 0.03798 0.0
C1339 C 0.24798 1.00958 0.94077 0.0
C1340 C 0.26658 1.02616 0.90215 0.0
C1341 C 0.25253 1.01799 0.99954 0.0
C1342 C 0.28989 0.05133 0.92324 0.0
C1343 C 0.29456 0.05985 0.9817 0.0
H1344 H 0.07986 0.80999 0.96203 0.0
H1345 H 0.99987 0.79371 0.89518 0.0
H1346 H 0.98383 0.78542 0.99097 0.0
H1347 H 0.99266 0.78371 0.0942 0.0
H1348 H 0.07254 0.79968 0.1612 0.0
H1349 H 0.08858 0.80785 0.06534 0.0
C1350 C 0.05899 0.80487 0.96845 0.0
C1351 C 0.04115 0.80249 0.9212 0.0
C1352 C 0.04988 0.80025 0.02388 0.0
C1353 C 1.014 0.79536 0.93042 0.0
C1354 C 1.00483 0.79077 0.98535 0.0
C1355 C 1.01351 0.7887 0.08785 0.0
C1356 C 1.03134 0.79114 0.13518 0.0
C1357 C 1.02258 0.79317 0.03242 0.0
C1358 C 0.05843 0.79806 0.12594 0.0
C1359 C 0.0676 0.80258 0.07097 0.0
H1360 H 0.26595 0.2218 0.09384 0.0
H1361 H 0.2775 0.3 0.16138 0.0
H1362 H 0.27646 0.3137 0.06413 0.0
H1363 H 0.2721 0.30348 0.95946 0.0
H1364 H 0.2607 0.22528 0.89234 0.0
H1365 H 0.26267 0.21204 0.98964 0.0
C1366 C 0.26858 0.24199 0.08743 0.0
C1367 C 0.2717 0.25975 0.13522 0.0
C1368 C 0.26815 0.24986 0.03126 0.0
C1369 C 0.27463 0.28567 0.12567 0.0
C1370 C 0.27421 0.29363 0.06994 0.0
C1371 C 0.26992 0.28348 0.96609 0.0
C1372 C 0.2663 0.26546 0.91838 0.0
C1373 C 0.27084 0.27584 1.02236 0.0
C1374 C 0.26391 0.23978 0.92802 0.0
C1375 C 0.26483 0.23207 0.98376 0.0
H1376 H 0.78957 1.00984 0.11975 0.0
H1377 H 0.86629 0.08697 0.1249 0.0
H1378 H 0.86778 0.08006 1.02158 0.0
H1379 H 0.8476 0.05159 0.93001 0.0
H1380 H 0.77062 0.97467 0.92556 0.0
H1381 H 0.76916 0.98182 0.02848 0.0
C1382 C 0.80677 1.025 0.09837 0.0
C1383 C 0.82786 0.0488 0.13004 0.0
C1384 C 0.80748 1.02091 0.03908 0.0
C1385 C 0.84971 0.06855 0.10145 0.0
C1386 C 0.85061 0.06457 0.04242 0.0
C1387 C 0.83039 0.03653 0.95148 0.0
C1388 C 0.80935 1.01255 0.92009 0.0
C1389 C 0.82961 0.04081 1.01079 0.0
C1390 C 0.78732 0.99309 0.94877 0.0
C1391 C 0.78639 0.99722 1.00761 0.0
H1392 H 0.74739 0.59965 0.2836 0.0
H1393 H 0.68287 0.61637 0.23212 0.0
H1394 H 0.66744 0.60935 0.32871 0.0
H1395 H 0.67228 0.59855 0.42823 0.0
H1396 H 0.73648 0.58113 0.47867 0.0
H1397 H 0.75233 0.58905 0.38283 0.0
C1398 C 0.73014 0.60207 0.29358 0.0
C1399 C 0.71636 0.60853 0.25034 0.0
C1400 C 0.72134 0.59801 0.34934 0.0
C1401 C 0.69371 0.61109 0.26413 0.0
C1402 C 0.68494 0.60721 0.31955 0.0
C1403 C 0.68961 0.59627 0.41824 0.0
C1404 C 0.70315 0.58932 0.46117 0.0
C1405 C 0.69852 0.60055 0.3625 0.0
C1406 C 0.72586 0.58689 0.4472 0.0
C1407 C 0.73486 0.59123 0.39208 0.0
H1408 H 0.51088 0.13067 0.44432 0.0
H1409 H 0.43355 0.12537 0.47328 0.0
H1410 H 0.42865 0.13533 0.37413 0.0
H1411 H 0.44605 0.14507 0.27866 0.0
H1412 H 0.5236 0.1507 0.25019 0.0
H1413 H 0.52826 0.14042 0.34901 0.0
C1414 C 0.49282 0.13144 0.42885 0.0
C1415 C 0.47265 0.1273 0.46645 0.0
C1416 C 0.49007 0.1371 0.37162 0.0
C1417 C 0.44959 0.12882 0.44568 0.0
C1418 C 0.44669 0.13437 0.3888 0.0
C1419 C 0.46411 0.14431 0.29414 0.0
C1420 C 0.4844 0.14863 0.25665 0.0
C1421 C 0.46682 0.1386 0.35138 0.0
C1422 C 0.50743 0.14708 0.27754 0.0
C1423 C 0.51023 0.14137 0.33429 0.0
H1424 H 0.91153 0.36144 0.26699 0.0
H1425 H 0.98353 0.35302 0.27786 0.0
H1426 H 0.98917 0.36317 0.38192 0.0
H1427 H 0.97399 0.37522 0.47007 0.0
H1428 H 0.90208 0.38385 0.45798 0.0
H1429 H 0.89637 0.37327 0.35435 0.0
C1430 C 0.92865 0.36212 0.29197 0.0
C1431 C 0.9471 0.35653 0.26442 0.0
C1432 C 0.93183 0.36807 0.35175 0.0
C1433 C 0.96884 0.35697 0.29786 0.0
C1434 C 0.97216 0.36289 0.35741 0.0
C1435 C 0.95695 0.37457 0.44478 0.0
C1436 C 0.9386 0.3805 0.47189 0.0
C1437 C 0.95376 0.36847 0.38489 0.0
C1438 C 0.91677 0.3798 0.43827 0.0
C1439 C 0.9134 0.37362 0.37896 0.0
H1440 H 0.74414 0.13332 0.28476 0.0
H1441 H 0.68011 0.15087 0.23364 0.0
H1442 H 0.6642 0.14314 0.32947 0.0
H1443 H 0.66902 0.13264 0.42883 0.0
H1444 H 0.73327 0.11561 0.48089 0.0
H1445 H 0.74882 0.12254 0.3844 0.0
C1446 C 0.72683 0.13567 0.2946 0.0
C1447 C 0.71336 0.14259 0.25149 0.0
C1448 C 0.71788 0.13146 0.35031 0.0
C1449 C 0.69068 0.14512 0.26528 0.0
C1450 C 0.68165 0.14089 0.32037 0.0
C1451 C 0.68624 0.13013 0.41901 0.0
C1452 C 0.69991 0.12361 0.4624 0.0
C1453 C 0.69509 0.1341 0.36328 0.0
C1454 C 0.72251 0.12094 0.44878 0.0
C1455 C 0.73136 0.12477 0.39341 0.0
H1456 H 0.91059 0.60659 0.27391 0.0
H1457 H 0.9831 0.60265 0.24087 0.0
H1458 H 0.98743 0.59224 0.3399 0.0
H1459 H 0.97057 0.58409 0.43613 0.0
H1460 H 0.89788 0.58783 0.46861 0.0
H1461 H 0.89418 0.59917 0.37028 0.0
C1462 C 0.92755 0.60379 0.28846 0.0
C1463 C 0.94644 0.60537 0.24964 0.0
C1464 C 0.92998 0.59787 0.34564 0.0
C1465 C 0.96801 0.60121 0.26935 0.0
C1466 C 0.9706 0.59538 0.32617 0.0
C1467 C 0.95379 0.58719 0.42165 0.0
C1468 C 0.93456 0.58508 0.46011 0.0
C1469 C 0.95161 0.5935 0.36465 0.0
C1470 C 0.91323 0.58966 0.44052 0.0
C1471 C 0.91097 0.59598 0.38403 0.0
H1472 H 0.51584 0.38119 0.26449 0.0
H1473 H 0.42953 0.31968 0.25216 0.0
H1474 H 0.42813 0.32796 0.35473 0.0
H1475 H 0.45144 0.35225 0.44821 0.0
H1476 H 0.53763 0.41396 0.46101 0.0
H1477 H 0.53894 0.40639 0.35788 0.0
C1478 C 0.49666 0.36982 0.28413 0.0
C1479 C 0.47287 0.34971 0.25067 0.0
C1480 C 0.49597 0.37472 0.34324 0.0
C1481 C 0.44825 0.33496 0.27702 0.0
C1482 C 0.44739 0.33976 0.33565 0.0
C1483 C 0.47056 0.36389 0.42849 0.0
C1484 C 0.49444 0.38352 0.46231 0.0
C1485 C 0.47116 0.35941 0.36926 0.0
C1486 C 0.51892 0.39885 0.43589 0.0
C1487 C 0.51971 0.39445 0.37697 0.0
H1488 H 0.36156 0.95118 0.57939 0.0
H1489 H 0.42698 0.93285 0.60372 0.0
H1490 H 0.41811 0.92545 0.70405 0.0
H1491 H 0.39128 0.92318 0.78487 0.0
H1492 H 0.32603 0.9418 0.76159 0.0
H1493 H 0.33503 0.94956 0.66119 0.0
C1494 C 0.37377 0.94542 0.60656 0.0
C1495 C 0.39503 0.94275 0.58378 0.0
C1496 C 0.36852 0.9411 0.6646 0.0
C1497 C 0.41079 0.93552 0.62003 0.0
C1498 C 0.40563 0.93111 0.6775 0.0
C1499 C 0.37921 0.92926 0.75814 0.0
C1500 C 0.35793 0.93178 0.78114 0.0
C1501 C 0.38457 0.93384 0.70032 0.0
C1502 C 0.34228 0.93927 0.74516 0.0
C1503 C 0.3475 0.94387 0.68765 0.0
H1504 H 0.13128 0.43591 0.77121 0.0
H1505 H 0.18491 0.52078 0.83689 0.0
H1506 H 0.18836 0.53549 0.73959 0.0
H1507 H 0.17575 0.52442 0.63578 0.0
H1508 H 0.12312 0.43951 0.56991 0.0
H1509 H 0.12029 0.42463 0.66719 0.0
C1510 C 0.14409 0.45759 0.76431 0.0
C1511 C 0.15767 0.47718 0.8116 0.0
C1512 C 0.14622 0.46592 0.70811 0.0
C1513 C 0.17382 0.50524 0.80156 0.0
C1514 C 0.17595 0.51369 0.74584 0.0
C1515 C 0.16358 0.50267 0.64279 0.0
C1516 C 0.14958 0.48313 0.5957 0.0
C1517 C 0.16206 0.49425 0.69883 0.0
C1518 C 0.13426 0.45496 0.60537 0.0
C1519 C 0.13252 0.44645 0.66101 0.0
H1520 H 0.56455 0.68181 0.75982 0.0
H1521 H 0.65243 0.73468 0.76212 0.0
H1522 H 0.64981 0.7254 0.65828 0.0
H1523 H 0.62243 0.70224 0.56657 0.0
H1524 H 0.53442 0.64998 0.56493 0.0
H1525 H 0.5373 0.6587 0.66866 0.0
C1526 C 0.58317 0.69105 0.7377 0.0
C1527 C 0.60865 0.70887 0.76874 0.0
C1528 C 0.5815 0.68571 0.67801 0.0
C1529 C 0.63253 0.72106 0.7392 0.0
C1530 C 0.63106 0.7157 0.67983 0.0
C1531 C 0.60387 0.69292 0.58886 0.0
C1532 C 0.57827 0.67535 0.55785 0.0
C1533 C 0.60563 0.69817 0.64871 0.0
C1534 C 0.55446 0.66322 0.58767 0.0
C1535 C 0.55605 0.66831 0.64703 0.0
H1536 H 0.33221 0.43156 0.74757 0.0
H1537 H 0.41566 0.48071 0.82407 0.0
H1538 H 0.43224 0.49124 0.7291 0.0
H1539 H 0.42319 0.48679 0.62394 0.0
H1540 H 0.33984 0.43697 0.5475 0.0
H1541 H 0.32332 0.42586 0.64244 0.0
C1542 C 0.35407 0.44429 0.7436 0.0
C1543 C 0.37255 0.45544 0.79338 0.0
C1544 C 0.36358 0.45009 0.68861 0.0
C1545 C 0.4008 0.47222 0.78691 0.0
C1546 C 0.41037 0.47813 0.73244 0.0
C1547 C 0.40139 0.47362 0.62803 0.0
C1548 C 0.38284 0.46281 0.57836 0.0
C1549 C 0.39195 0.46734 0.68297 0.0
C1550 C 0.35469 0.44538 0.5847 0.0
C1551 C 0.34517 0.43913 0.63912 0.0
H1552 H 0.64164 0.93026 0.77018 0.0
H1553 H 0.5613 0.91684 0.80159 0.0
H1554 H 0.5541 0.92531 0.70265 0.0
H1555 H 0.56983 0.93512 0.60614 0.0
H1556 H 0.64969 0.94767 0.57361 0.0
H1557 H 0.65751 0.94031 0.67344 0.0
C1558 C 0.62246 0.92896 0.75535 0.0
C1559 C 0.60211 0.92297 0.79374 0.0
C1560 C 0.61824 0.93353 0.69792 0.0
C1561 C 0.57756 0.92184 0.77361 0.0
C1562 C 0.5733 0.92648 0.71676 0.0
C1563 C 0.58909 0.93656 0.621 0.0
C1564 C 0.60912 0.94195 0.58226 0.0
C1565 C 0.59345 0.93227 0.67848 0.0
C1566 C 0.63377 0.94326 0.60221 0.0
C1567 C 0.63831 0.93917 0.65942 0.0
H1568 H 0.11335 0.66347 0.60734 0.0
H1569 H 0.19086 0.73584 0.5824 0.0
H1570 H 0.19675 0.75116 0.68383 0.0
H1571 H 0.18083 0.74335 0.78031 0.0
H1572 H 0.10329 0.67117 0.80592 0.0
H1573 H 0.09686 0.65619 0.70398 0.0
C1574 C 0.1316 0.68253 0.62415 0.0
C1575 C 0.15161 0.69846 0.58706 0.0
C1576 C 0.13499 0.69118 0.68281 0.0
C1577 C 0.17493 0.72332 0.60959 0.0
C1578 C 0.17843 0.73203 0.66777 0.0
C1579 C 0.16232 0.72453 0.76358 0.0
C1580 C 0.14262 0.70844 0.80103 0.0
C1581 C 0.15866 0.71609 0.70482 0.0
C1582 C 0.11901 0.68382 0.77844 0.0
C1583 C 0.11522 0.67529 0.72 0.0
loop_
_geom_bond_atom_site_label_1
_geom_bond_atom_site_label_2
_geom_bond_distance
_geom_bond_site_symmetry_2
_ccdc_geom_bond_type
Tb0 C10 2.825 . S
Tb0 O11 2.347 1_455 S
Tb0 O14 2.366 1_455 S
Tb0 O19 2.418 . S
Tb0 O20 2.384 . S
Tb0 O23 2.479 . S
Tb0 O24 2.471 . S
Eu1 O12 2.418 . S
Eu1 O13 2.384 . S
Eu1 O16 2.479 . S
Eu1 O17 2.471 1_655 S
Eu1 O18 2.347 1_655 S
Eu1 O21 2.366 1_655 S
Eu1 C31 2.825 . S
C2 O18 1.259 . S
C2 O19 1.265 . S
C3 O20 1.255 . S
C3 O21 1.265 . S
C4 C6 1.380 . S
C4 C7 1.374 1_455 S
C4 C10 1.507 . S
C5 C6 1.384 . S
C5 C9 1.387 . S
C5 H32 0.930 . S
C6 C4 1.380 . S
C6 C5 1.384 . S
C6 H33 0.931 . S
C7 C4 1.374 1_655 S
C7 C8 1.390 . S
C7 H34 0.930 . S
C8 C7 1.390 . S
C8 C9 1.391 1_655 S
C8 H35 0.930 . S
C9 C5 1.387 . S
C9 C8 1.391 1_455 S
C10 Tb0 2.825 . S
C10 C4 1.507 . S
C10 O23 1.238 . S
C10 O24 1.247 . S
O11 Tb0 2.347 1_655 S
O11 C15 1.259 . S
O12 Eu1 2.418 . S
O12 C15 1.265 . S
O13 Eu1 2.384 . S
O13 C22 1.255 . S
O14 Tb0 2.366 1_655 S
O14 C22 1.265 . S
C15 O11 1.259 . S
C15 O12 1.265 . S
O16 Eu1 2.479 . S
O16 C31 1.238 . S
O17 Eu1 2.471 1_455 S
O17 C31 1.247 1_455 S
O18 Eu1 2.347 1_455 S
O18 C2 1.259 . S
O19 Tb0 2.418 . S
O19 C2 1.265 . S
O20 Tb0 2.384 . S
O20 C3 1.255 . S
O21 Eu1 2.366 1_455 S
O21 C3 1.265 . S
C22 O13 1.255 . S
C22 O14 1.265 . S
O23 Tb0 2.479 . S
O23 C10 1.238 . S
O24 Tb0 2.471 . S
O24 C10 1.247 . S
C25 C28 1.380 . S
C25 C29 1.374 1_655 S
C25 C31 1.507 . S
C26 C27 1.387 1_455 S
C26 C30 1.391 . S
C27 C26 1.387 1_655 S
C27 C28 1.384 . S
C27 H36 0.930 . S
C28 C25 1.380 . S
C28 C27 1.384 . S
C28 H37 0.931 . S
C29 C25 1.374 1_455 S
C29 C30 1.390 . S
C29 H38 0.930 . S
C30 C26 1.391 . S
C30 C29 1.390 . S
C30 H39 0.930 . S
C31 Eu1 2.825 . S
C31 O16 1.238 . S
C31 O17 1.247 1_655 S
C31 C25 1.507 . S
H32 C5 0.930 . S
H33 C6 0.931 . S
H34 C7 0.930 . S
H35 C8 0.930 . S
H36 C27 0.930 . S
H37 C28 0.931 . S
H38 C29 0.930 . S
H39 C30 0.930 . S
Tb40 C50 2.825 . S
Tb40 O51 2.347 . S
Tb40 O54 2.366 . S
Tb40 O59 2.418 . S
Tb40 O60 2.384 . S
Tb40 O63 2.479 . S
Tb40 O64 2.471 . S
Eu41 O52 2.418 . S
Eu41 O53 2.384 . S
Eu41 O56 2.479 . S
Eu41 O57 2.471 . S
Eu41 O58 2.347 . S
Eu41 O61 2.366 . S
Eu41 C71 2.825 . S
C42 O58 1.259 . S
C42 O59 1.265 . S
C43 O60 1.255 . S
C43 O61 1.265 . S
C44 C46 1.380 . S
C44 C47 1.374 . S
C44 C50 1.507 . S
C45 C46 1.384 . S
C45 C49 1.387 . S
C45 H72 0.930 . S
C46 C44 1.380 . S
C46 C45 1.384 . S
C46 H73 0.931 . S
C47 C44 1.374 . S
C47 C48 1.390 . S
C47 H74 0.930 . S
C48 C47 1.390 . S
C48 C49 1.391 . S
C48 H75 0.930 . S
C49 C45 1.387 . S
C49 C48 1.391 . S
C50 Tb40 2.825 . S
C50 C44 1.507 . S
C50 O63 1.238 . S
C50 O64 1.247 . S
O51 Tb40 2.347 . S
O51 C55 1.259 . S
O52 Eu41 2.418 . S
O52 C55 1.265 . S
O53 Eu41 2.384 . S
O53 C62 1.255 . S
O54 Tb40 2.366 . S
O54 C62 1.265 . S
C55 O51 1.259 . S
C55 O52 1.265 . S
O56 Eu41 2.479 . S
O56 C71 1.238 . S
O57 Eu41 2.471 . S
O57 C71 1.247 . S
O58 Eu41 2.347 . S
O58 C42 1.259 . S
O59 Tb40 2.418 . S
O59 C42 1.265 . S
O60 Tb40 2.384 . S
O60 C43 1.255 . S
O61 Eu41 2.366 . S
O61 C43 1.265 . S
C62 O53 1.255 . S
C62 O54 1.265 . S
O63 Tb40 2.479 . S
O63 C50 1.238 . S
O64 Tb40 2.471 . S
O64 C50 1.247 . S
C65 C68 1.380 . S
C65 C69 1.374 . S
C65 C71 1.507 . S
C66 C67 1.387 . S
C66 C70 1.391 . S
C67 C66 1.387 . S
C67 C68 1.384 . S
C67 H76 0.930 . S
C68 C65 1.380 . S
C68 C67 1.384 . S
C68 H77 0.931 . S
C69 C65 1.374 . S
C69 C70 1.390 . S
C69 H78 0.930 . S
C70 C66 1.391 . S
C70 C69 1.390 . S
C70 H79 0.930 . S
C71 Eu41 2.825 . S
C71 O56 1.238 . S
C71 O57 1.247 . S
C71 C65 1.507 . S
H72 C45 0.930 . S
H73 C46 0.931 . S
H74 C47 0.930 . S
H75 C48 0.930 . S
H76 C67 0.930 . S
H77 C68 0.931 . S
H78 C69 0.930 . S
H79 C70 0.930 . S
Tb80 C90 2.825 . S
Tb80 O91 2.347 1_565 S
Tb80 O94 2.366 1_565 S
Tb80 O99 2.418 . S
Tb80 O100 2.384 . S
Tb80 O103 2.479 . S
Tb80 O104 2.471 1_565 S
Eu81 O92 2.418 . S
Eu81 O93 2.384 . S
Eu81 O96 2.479 . S
Eu81 O97 2.471 1_545 S
Eu81 O98 2.347 1_545 S
Eu81 O101 2.366 1_545 S
Eu81 C111 2.825 . S
C82 O98 1.259 . S
C82 O99 1.265 . S
C83 O100 1.255 . S
C83 O101 1.265 . S
C84 C86 1.379 1_545 S
C84 C87 1.375 . S
C84 C90 1.506 1_545 S
C85 C86 1.384 . S
C85 C89 1.387 1_565 S
C85 H112 0.930 . S
C86 C84 1.379 1_565 S
C86 C85 1.384 . S
C86 H113 0.931 . S
C87 C84 1.375 . S
C87 C88 1.390 . S
C87 H114 0.930 . S
C88 C87 1.390 . S
C88 C89 1.391 . S
C88 H115 0.930 . S
C89 C85 1.387 1_545 S
C89 C88 1.391 . S
C90 Tb80 2.825 . S
C90 C84 1.506 1_565 S
C90 O103 1.238 . S
C90 O104 1.247 1_565 S
O91 Tb80 2.347 1_545 S
O91 C95 1.259 . S
O92 Eu81 2.418 . S
O92 C95 1.265 . S
O93 Eu81 2.384 . S
O93 C102 1.255 . S
O94 Tb80 2.366 1_545 S
O94 C102 1.265 . S
C95 O91 1.259 . S
C95 O92 1.265 . S
O96 Eu81 2.479 . S
O96 C111 1.238 . S
O97 Eu81 2.471 1_565 S
O97 C111 1.247 1_565 S
O98 Eu81 2.347 1_565 S
O98 C82 1.259 . S
O99 Tb80 2.418 . S
O99 C82 1.265 . S
O100 Tb80 2.384 . S
O100 C83 1.255 . S
O101 Eu81 2.366 1_565 S
O101 C83 1.265 . S
C102 O93 1.255 . S
C102 O94 1.265 . S
O103 Tb80 2.479 . S
O103 C90 1.238 . S
O104 Tb80 2.471 1_545 S
O104 C90 1.247 1_545 S
C105 C108 1.386 . S
C105 C109 1.363 1_545 S
C105 C111 1.511 . S
C106 C107 1.387 1_565 S
C106 C110 1.391 . S
C107 C106 1.387 1_545 S
C107 C108 1.384 . S
C107 H116 0.930 . S
C108 C105 1.386 . S
C108 C107 1.384 . S
C108 H117 0.931 . S
C109 C105 1.363 1_565 S
C109 C110 1.390 . S
C109 H118 0.930 . S
C110 C106 1.391 . S
C110 C109 1.390 . S
C110 H119 0.930 . S
C111 Eu81 2.825 . S
C111 O96 1.238 . S
C111 O97 1.247 1_545 S
C111 C105 1.511 . S
H112 C85 0.930 . S
H113 C86 0.931 . S
H114 C87 0.930 . S
H115 C88 0.930 . S
H116 C107 0.930 . S
H117 C108 0.931 . S
H118 C109 0.930 . S
H119 C110 0.930 . S
Tb120 C130 2.825 . S
Tb120 O131 2.347 1_455 S
Tb120 O134 2.366 1_455 S
Tb120 O139 2.418 . S
Tb120 O140 2.384 . S
Tb120 O143 2.479 . S
Tb120 O144 2.471 . S
Eu121 O132 2.418 . S
Eu121 O133 2.384 . S
Eu121 O136 2.479 . S
Eu121 O137 2.471 1_655 S
Eu121 O138 2.347 1_655 S
Eu121 O141 2.366 1_655 S
Eu121 C151 2.825 . S
C122 O138 1.259 . S
C122 O139 1.265 . S
C123 O140 1.255 . S
C123 O141 1.265 . S
C124 C126 1.380 . S
C124 C127 1.374 1_455 S
C124 C130 1.507 . S
C125 C126 1.384 . S
C125 C129 1.387 . S
C125 H152 0.930 . S
C126 C124 1.380 . S
C126 C125 1.384 . S
C126 H153 0.931 . S
C127 C124 1.374 1_655 S
C127 C128 1.390 . S
C127 H154 0.930 . S
C128 C127 1.390 . S
C128 C129 1.391 1_655 S
C128 H155 0.930 . S
C129 C125 1.387 . S
C129 C128 1.391 1_455 S
C130 Tb120 2.825 . S
C130 C124 1.507 . S
C130 O143 1.238 . S
C130 O144 1.247 . S
O131 Tb120 2.347 1_655 S
O131 C135 1.259 . S
O132 Eu121 2.418 . S
O132 C135 1.265 . S
O133 Eu121 2.384 . S
O133 C142 1.255 . S
O134 Tb120 2.366 1_655 S
O134 C142 1.265 . S
C135 O131 1.259 . S
C135 O132 1.265 . S
O136 Eu121 2.479 . S
O136 C151 1.238 . S
O137 Eu121 2.471 1_455 S
O137 C151 1.247 1_455 S
O138 Eu121 2.347 1_455 S
O138 C122 1.259 . S
O139 Tb120 2.418 . S
O139 C122 1.265 . S
O140 Tb120 2.384 . S
O140 C123 1.255 . S
O141 Eu121 2.366 1_455 S
O141 C123 1.265 . S
C142 O133 1.255 . S
C142 O134 1.265 . S
O143 Tb120 2.479 . S
O143 C130 1.238 . S
O144 Tb120 2.471 . S
O144 C130 1.247 . S
C145 C148 1.380 . S
C145 C149 1.374 1_655 S
C145 C151 1.507 . S
C146 C147 1.387 1_455 S
C146 C150 1.391 . S
C147 C146 1.387 1_655 S
C147 C148 1.384 . S
C147 H156 0.930 . S
C148 C145 1.380 . S
C148 C147 1.384 . S
C148 H157 0.931 . S
C149 C145 1.374 1_455 S
C149 C150 1.390 . S
C149 H158 0.930 . S
C150 C146 1.391 . S
C150 C149 1.390 . S
C150 H159 0.930 . S
C151 Eu121 2.825 . S
C151 O136 1.238 . S
C151 O137 1.247 1_655 S
C151 C145 1.507 . S
H152 C125 0.930 . S
H153 C126 0.931 . S
H154 C127 0.930 . S
H155 C128 0.930 . S
H156 C147 0.930 . S
H157 C148 0.931 . S
H158 C149 0.930 . S
H159 C150 0.930 . S
Tb160 C170 2.825 . S
Tb160 O171 2.347 . S
Tb160 O174 2.366 . S
Tb160 O179 2.418 . S
Tb160 O180 2.384 . S
Tb160 O183 2.479 . S
Tb160 O184 2.471 . S
Eu161 O172 2.418 . S
Eu161 O173 2.384 . S
Eu161 O176 2.479 . S
Eu161 O177 2.471 . S
Eu161 O178 2.347 . S
Eu161 O181 2.366 . S
Eu161 C191 2.825 . S
C162 O178 1.259 . S
C162 O179 1.265 . S
C163 O180 1.255 . S
C163 O181 1.265 . S
C164 C166 1.380 . S
C164 C167 1.374 . S
C164 C170 1.507 . S
C165 C166 1.384 . S
C165 C169 1.387 . S
C165 H192 0.930 . S
C166 C164 1.380 . S
C166 C165 1.384 . S
C166 H193 0.931 . S
C167 C164 1.374 . S
C167 C168 1.390 . S
C167 H194 0.930 . S
C168 C167 1.390 . S
C168 C169 1.391 . S
C168 H195 0.930 . S
C169 C165 1.387 . S
C169 C168 1.391 . S
C170 Tb160 2.825 . S
C170 C164 1.507 . S
C170 O183 1.238 . S
C170 O184 1.247 . S
O171 Tb160 2.347 . S
O171 C175 1.259 . S
O172 Eu161 2.418 . S
O172 C175 1.265 . S
O173 Eu161 2.384 . S
O173 C182 1.255 . S
O174 Tb160 2.366 . S
O174 C182 1.265 . S
C175 O171 1.259 . S
C175 O172 1.265 . S
O176 Eu161 2.479 . S
O176 C191 1.238 . S
O177 Eu161 2.471 . S
O177 C191 1.247 . S
O178 Eu161 2.347 . S
O178 C162 1.259 . S
O179 Tb160 2.418 . S
O179 C162 1.265 . S
O180 Tb160 2.384 . S
O180 C163 1.255 . S
O181 Eu161 2.366 . S
O181 C163 1.265 . S
C182 O173 1.255 . S
C182 O174 1.265 . S
O183 Tb160 2.479 . S
O183 C170 1.238 . S
O184 Tb160 2.471 . S
O184 C170 1.247 . S
C185 C188 1.380 . S
C185 C189 1.374 . S
C185 C191 1.507 . S
C186 C187 1.387 . S
C186 C190 1.391 . S
C187 C186 1.387 . S
C187 C188 1.384 . S
C187 H196 0.930 . S
C188 C185 1.380 . S
C188 C187 1.384 . S
C188 H197 0.931 . S
C189 C185 1.374 . S
C189 C190 1.390 . S
C189 H198 0.930 . S
C190 C186 1.391 . S
C190 C189 1.390 . S
C190 H199 0.930 . S
C191 Eu161 2.825 . S
C191 O176 1.238 . S
C191 O177 1.247 . S
C191 C185 1.507 . S
H192 C165 0.930 . S
H193 C166 0.931 . S
H194 C167 0.930 . S
H195 C168 0.930 . S
H196 C187 0.930 . S
H197 C188 0.931 . S
H198 C189 0.930 . S
H199 C190 0.930 . S
Tb200 C210 2.825 . S
Tb200 O211 2.347 1_565 S
Tb200 O214 2.366 1_565 S
Tb200 O219 2.418 . S
Tb200 O220 2.384 . S
Tb200 O223 2.479 . S
Tb200 O224 2.471 1_565 S
Eu201 O212 2.418 . S
Eu201 O213 2.384 . S
Eu201 O216 2.479 . S
Eu201 O217 2.471 1_545 S
Eu201 O218 2.347 1_545 S
Eu201 O221 2.366 1_545 S
Eu201 C231 2.825 . S
C202 O218 1.259 . S
C202 O219 1.265 . S
C203 O220 1.255 . S
C203 O221 1.265 . S
C204 C206 1.380 1_545 S
C204 C207 1.374 . S
C204 C210 1.507 1_545 S
C205 C206 1.384 . S
C205 C209 1.387 1_565 S
C205 H232 0.930 . S
C206 C204 1.380 1_565 S
C206 C205 1.384 . S
C206 H233 0.931 . S
C207 C204 1.374 . S
C207 C208 1.390 . S
C207 H234 0.930 . S
C208 C207 1.390 . S
C208 C209 1.391 . S
C208 H235 0.930 . S
C209 C205 1.387 1_545 S
C209 C208 1.391 . S
C210 Tb200 2.825 . S
C210 C204 1.507 1_565 S
C210 O223 1.238 . S
C210 O224 1.247 1_565 S
O211 Tb200 2.347 1_545 S
O211 C215 1.259 . S
O212 Eu201 2.418 . S
O212 C215 1.265 . S
O213 Eu201 2.384 . S
O213 C222 1.255 . S
O214 Tb200 2.366 1_545 S
O214 C222 1.265 . S
C215 O211 1.259 . S
C215 O212 1.265 . S
O216 Eu201 2.479 . S
O216 C231 1.238 . S
O217 Eu201 2.471 1_565 S
O217 C231 1.247 1_565 S
O218 Eu201 2.347 1_565 S
O218 C202 1.259 . S
O219 Tb200 2.418 . S
O219 C202 1.265 . S
O220 Tb200 2.384 . S
O220 C203 1.255 . S
O221 Eu201 2.366 1_565 S
O221 C203 1.265 . S
C222 O213 1.255 . S
C222 O214 1.265 . S
O223 Tb200 2.479 . S
O223 C210 1.238 . S
O224 Tb200 2.471 1_545 S
O224 C210 1.247 1_545 S
C225 C228 1.380 . S
C225 C229 1.374 1_545 S
C225 C231 1.507 . S
C226 C227 1.387 1_565 S
C226 C230 1.391 . S
C227 C226 1.387 1_545 S
C227 C228 1.384 . S
C227 H236 0.930 . S
C228 C225 1.380 . S
C228 C227 1.384 . S
C228 H237 0.931 . S
C229 C225 1.374 1_565 S
C229 C230 1.390 . S
C229 H238 0.930 . S
C230 C226 1.391 . S
C230 C229 1.390 . S
C230 H239 0.930 . S
C231 Eu201 2.825 . S
C231 O216 1.238 . S
C231 O217 1.247 1_545 S
C231 C225 1.507 . S
H232 C205 0.930 . S
H233 C206 0.931 . S
H234 C207 0.930 . S
H235 C208 0.930 . S
H236 C227 0.930 . S
H237 C228 0.931 . S
H238 C229 0.930 . S
H239 C230 0.930 . S
Tb240 C250 2.825 . S
Tb240 O251 2.347 . S
Tb240 O254 2.366 . S
Tb240 O259 2.418 . S
Tb240 O260 2.384 . S
Tb240 O263 2.479 . S
Tb240 O264 2.471 . S
Eu241 O252 2.418 . S
Eu241 O253 2.384 . S
Eu241 O256 2.479 . S
Eu241 O257 2.471 . S
Eu241 O258 2.347 . S
Eu241 O261 2.366 . S
Eu241 C271 2.825 . S
C242 O258 1.259 . S
C242 O259 1.265 . S
C243 O260 1.255 . S
C243 O261 1.265 . S
C244 C246 1.380 . S
C244 C247 1.374 . S
C244 C250 1.507 . S
C245 C246 1.384 . S
C245 C249 1.387 . S
C245 H272 0.930 . S
C246 C244 1.380 . S
C246 C245 1.384 . S
C246 H273 0.931 . S
C247 C244 1.374 . S
C247 C248 1.390 . S
C247 H274 0.930 . S
C248 C247 1.390 . S
C248 C249 1.391 . S
C248 H275 0.930 . S
C249 C245 1.387 . S
C249 C248 1.391 . S
C250 Tb240 2.825 . S
C250 C244 1.507 . S
C250 O263 1.238 . S
C250 O264 1.247 . S
O251 Tb240 2.347 . S
O251 C255 1.259 . S
O252 Eu241 2.418 . S
O252 C255 1.265 . S
O253 Eu241 2.384 . S
O253 C262 1.255 . S
O254 Tb240 2.366 . S
O254 C262 1.265 . S
C255 O251 1.259 . S
C255 O252 1.265 . S
O256 Eu241 2.479 . S
O256 C271 1.238 . S
O257 Eu241 2.471 . S
O257 C271 1.247 . S
O258 Eu241 2.347 . S
O258 C242 1.259 . S
O259 Tb240 2.418 . S
O259 C242 1.265 . S
O260 Tb240 2.384 . S
O260 C243 1.255 . S
O261 Eu241 2.366 . S
O261 C243 1.265 . S
C262 O253 1.255 . S
C262 O254 1.265 . S
O263 Tb240 2.479 . S
O263 C250 1.238 . S
O264 Tb240 2.471 . S
O264 C250 1.247 . S
C265 C268 1.380 . S
C265 C269 1.374 . S
C265 C271 1.507 1_554 S
C266 C267 1.387 . S
C266 C270 1.391 . S
C267 C266 1.387 . S
C267 C268 1.384 . S
C267 H276 0.930 . S
C268 C265 1.380 . S
C268 C267 1.384 . S
C268 H277 0.931 . S
C269 C265 1.374 . S
C269 C270 1.390 . S
C269 H278 0.930 . S
C270 C266 1.391 . S
C270 C269 1.390 . S
C270 H279 0.930 . S
C271 Eu241 2.825 . S
C271 O256 1.238 . S
C271 O257 1.247 . S
C271 C265 1.507 1_556 S
H272 C245 0.930 . S
H273 C246 0.931 . S
H274 C247 0.930 . S
H275 C248 0.930 . S
H276 C267 0.930 . S
H277 C268 0.931 . S
H278 C269 0.930 . S
H279 C270 0.930 . S
Tb280 C290 2.825 . S
Tb280 O291 2.347 . S
Tb280 O294 2.366 . S
Tb280 O299 2.418 . S
Tb280 O300 2.384 . S
Tb280 O303 2.479 . S
Tb280 O304 2.471 . S
Eu281 O292 2.418 . S
Eu281 O293 2.384 . S
Eu281 O296 2.479 . S
Eu281 O297 2.471 . S
Eu281 O298 2.347 . S
Eu281 O301 2.366 . S
Eu281 C311 2.825 . S
C282 O298 1.259 . S
C282 O299 1.265 . S
C283 O300 1.255 . S
C283 O301 1.265 . S
C284 C286 1.380 . S
C284 C287 1.374 . S
C284 C290 1.507 . S
C285 C286 1.384 . S
C285 C289 1.387 . S
C285 H312 0.930 . S
C286 C284 1.380 . S
C286 C285 1.384 . S
C286 H313 0.931 . S
C287 C284 1.374 . S
C287 C288 1.390 . S
C287 H314 0.930 . S
C288 C287 1.390 . S
C288 C289 1.391 . S
C288 H315 0.930 . S
C289 C285 1.387 . S
C289 C288 1.391 . S
C290 Tb280 2.825 . S
C290 C284 1.507 . S
C290 O303 1.238 . S
C290 O304 1.247 . S
O291 Tb280 2.347 . S
O291 C295 1.259 . S
O292 Eu281 2.418 . S
O292 C295 1.265 . S
O293 Eu281 2.384 . S
O293 C302 1.255 . S
O294 Tb280 2.366 . S
O294 C302 1.265 . S
C295 O291 1.259 . S
C295 O292 1.265 . S
O296 Eu281 2.479 . S
O296 C311 1.238 . S
O297 Eu281 2.471 . S
O297 C311 1.247 . S
O298 Eu281 2.347 . S
O298 C282 1.259 . S
O299 Tb280 2.418 . S
O299 C282 1.265 . S
O300 Tb280 2.384 . S
O300 C283 1.255 . S
O301 Eu281 2.366 . S
O301 C283 1.265 . S
C302 O293 1.255 . S
C302 O294 1.265 . S
O303 Tb280 2.479 . S
O303 C290 1.238 . S
O304 Tb280 2.471 . S
O304 C290 1.247 . S
C305 C308 1.380 . S
C305 C309 1.374 . S
C305 C311 1.507 1_554 S
C306 C307 1.387 . S
C306 C310 1.391 . S
C307 C306 1.387 . S
C307 C308 1.384 . S
C307 H316 0.930 . S
C308 C305 1.380 . S
C308 C307 1.384 . S
C308 H317 0.931 . S
C309 C305 1.374 . S
C309 C310 1.390 . S
C309 H318 0.930 . S
C310 C306 1.391 . S
C310 C309 1.390 . S
C310 H319 0.930 . S
C311 Eu281 2.825 . S
C311 O296 1.238 . S
C311 O297 1.247 . S
C311 C305 1.507 1_556 S
H312 C285 0.930 . S
H313 C286 0.931 . S
H314 C287 0.930 . S
H315 C288 0.930 . S
H316 C307 0.930 . S
H317 C308 0.931 . S
H318 C309 0.930 . S
H319 C310 0.930 . S
Tb320 C330 2.825 . S
Tb320 O331 2.347 . S
Tb320 O334 2.366 . S
Tb320 O339 2.418 . S
Tb320 O340 2.384 . S
Tb320 O343 2.479 . S
Tb320 O344 2.471 . S
Eu321 O332 2.418 . S
Eu321 O333 2.384 . S
Eu321 O336 2.479 . S
Eu321 O337 2.471 . S
Eu321 O338 2.347 . S
Eu321 O341 2.366 . S
Eu321 C351 2.825 . S
C322 O338 1.259 . S
C322 O339 1.265 . S
C323 O340 1.255 . S
C323 O341 1.265 . S
C324 C326 1.380 . S
C324 C327 1.374 . S
C324 C330 1.507 . S
C325 C326 1.384 . S
C325 C329 1.387 . S
C325 H352 0.930 . S
C326 C324 1.380 . S
C326 C325 1.384 . S
C326 H353 0.931 . S
C327 C324 1.374 . S
C327 C328 1.390 . S
C327 H354 0.930 . S
C328 C327 1.390 . S
C328 C329 1.391 . S
C328 H355 0.930 . S
C329 C325 1.387 . S
C329 C328 1.391 . S
C330 Tb320 2.825 . S
C330 C324 1.507 . S
C330 O343 1.238 . S
C330 O344 1.247 . S
O331 Tb320 2.347 . S
O331 C335 1.259 . S
O332 Eu321 2.418 . S
O332 C335 1.265 . S
O333 Eu321 2.384 . S
O333 C342 1.255 . S
O334 Tb320 2.366 . S
O334 C342 1.265 . S
C335 O331 1.259 . S
C335 O332 1.265 . S
O336 Eu321 2.479 . S
O336 C351 1.238 . S
O337 Eu321 2.471 . S
O337 C351 1.247 . S
O338 Eu321 2.347 . S
O338 C322 1.259 . S
O339 Tb320 2.418 . S
O339 C322 1.265 . S
O340 Tb320 2.384 . S
O340 C323 1.255 . S
O341 Eu321 2.366 . S
O341 C323 1.265 . S
C342 O333 1.255 . S
C342 O334 1.265 . S
O343 Tb320 2.479 . S
O343 C330 1.238 . S
O344 Tb320 2.471 . S
O344 C330 1.247 . S
C345 C348 1.380 . S
C345 C349 1.374 . S
C345 C351 1.507 1_554 S
C346 C347 1.387 . S
C346 C350 1.391 . S
C347 C346 1.387 . S
C347 C348 1.384 . S
C347 H356 0.930 . S
C348 C345 1.380 . S
C348 C347 1.384 . S
C348 H357 0.931 . S
C349 C345 1.374 . S
C349 C350 1.390 . S
C349 H358 0.930 . S
C350 C346 1.391 . S
C350 C349 1.390 . S
C350 H359 0.930 . S
C351 Eu321 2.825 . S
C351 O336 1.238 . S
C351 O337 1.247 . S
C351 C345 1.507 1_556 S
H352 C325 0.930 . S
H353 C326 0.931 . S
H354 C327 0.930 . S
H355 C328 0.930 . S
H356 C347 0.930 . S
H357 C348 0.931 . S
H358 C349 0.930 . S
H359 C350 0.930 . S
Tb360 C370 2.825 . S
Tb360 O371 2.347 . S
Tb360 O374 2.366 . S
Tb360 O379 2.418 . S
Tb360 O380 2.384 . S
Tb360 O383 2.479 . S
Tb360 O384 2.471 . S
Eu361 O372 2.418 . S
Eu361 O373 2.384 . S
Eu361 O376 2.479 . S
Eu361 O377 2.471 . S
Eu361 O378 2.347 . S
Eu361 O381 2.366 . S
Eu361 C391 2.825 . S
C362 O378 1.259 . S
C362 O379 1.265 . S
C363 O380 1.255 . S
C363 O381 1.265 . S
C364 C366 1.380 . S
C364 C367 1.374 . S
C364 C370 1.507 1_554 S
C365 C366 1.384 . S
C365 C369 1.387 . S
C365 H392 0.930 . S
C366 C364 1.380 . S
C366 C365 1.384 . S
C366 H393 0.931 . S
C367 C364 1.374 . S
C367 C368 1.390 . S
C367 H394 0.930 . S
C368 C367 1.390 . S
C368 C369 1.391 . S
C368 H395 0.930 . S
C369 C365 1.387 . S
C369 C368 1.391 . S
C370 Tb360 2.825 . S
C370 C364 1.507 1_556 S
C370 O383 1.238 . S
C370 O384 1.247 . S
O371 Tb360 2.347 . S
O371 C375 1.259 . S
O372 Eu361 2.418 . S
O372 C375 1.265 . S
O373 Eu361 2.384 . S
O373 C382 1.255 . S
O374 Tb360 2.366 . S
O374 C382 1.265 . S
C375 O371 1.259 . S
C375 O372 1.265 . S
O376 Eu361 2.479 . S
O376 C391 1.238 . S
O377 Eu361 2.471 . S
O377 C391 1.247 . S
O378 Eu361 2.347 . S
O378 C362 1.259 . S
O379 Tb360 2.418 . S
O379 C362 1.265 . S
O380 Tb360 2.384 . S
O380 C363 1.255 . S
O381 Eu361 2.366 . S
O381 C363 1.265 . S
C382 O373 1.255 . S
C382 O374 1.265 . S
O383 Tb360 2.479 . S
O383 C370 1.238 . S
O384 Tb360 2.471 . S
O384 C370 1.247 . S
C385 C388 1.380 . S
C385 C389 1.374 . S
C385 C391 1.507 . S
C386 C387 1.387 . S
C386 C390 1.391 . S
C387 C386 1.387 . S
C387 C388 1.384 . S
C387 H396 0.930 . S
C388 C385 1.380 . S
C388 C387 1.384 . S
C388 H397 0.931 . S
C389 C385 1.374 . S
C389 C390 1.390 . S
C389 H398 0.930 . S
C390 C386 1.391 . S
C390 C389 1.390 . S
C390 H399 0.930 . S
C391 Eu361 2.825 . S
C391 O376 1.238 . S
C391 O377 1.247 . S
C391 C385 1.507 . S
H392 C365 0.930 . S
H393 C366 0.931 . S
H394 C367 0.930 . S
H395 C368 0.930 . S
H396 C387 0.930 . S
H397 C388 0.931 . S
H398 C389 0.930 . S
H399 C390 0.930 . S
Tb400 C410 2.825 1_556 S
Tb400 O411 2.347 . S
Tb400 O414 2.366 . S
Tb400 O419 2.418 . S
Tb400 O420 2.384 . S
Tb400 O423 2.479 . S
Tb400 O424 2.471 . S
Eu401 O412 2.418 . S
Eu401 O413 2.384 . S
Eu401 O416 2.479 . S
Eu401 O417 2.471 . S
Eu401 O418 2.347 . S
Eu401 O421 2.366 . S
Eu401 C431 2.825 . S
C402 O418 1.259 . S
C402 O419 1.265 . S
C403 O420 1.255 . S
C403 O421 1.265 . S
C404 C406 1.380 . S
C404 C407 1.374 . S
C404 C410 1.507 . S
C405 C406 1.384 . S
C405 C409 1.387 . S
C405 H432 0.930 . S
C406 C404 1.380 . S
C406 C405 1.384 . S
C406 H433 0.931 . S
C407 C404 1.374 . S
C407 C408 1.390 . S
C407 H434 0.930 . S
C408 C407 1.390 . S
C408 C409 1.391 . S
C408 H435 0.930 . S
C409 C405 1.387 . S
C409 C408 1.391 . S
C410 Tb400 2.825 1_554 S
C410 C404 1.507 . S
C410 O423 1.238 1_554 S
C410 O424 1.247 1_554 S
O411 Tb400 2.347 . S
O411 C415 1.259 . S
O412 Eu401 2.418 . S
O412 C415 1.265 . S
O413 Eu401 2.384 . S
O413 C422 1.255 . S
O414 Tb400 2.366 . S
O414 C422 1.265 . S
C415 O411 1.259 . S
C415 O412 1.265 . S
O416 Eu401 2.479 . S
O416 C431 1.238 . S
O417 Eu401 2.471 . S
O417 C431 1.247 . S
O418 Eu401 2.347 . S
O418 C402 1.259 . S
O419 Tb400 2.418 . S
O419 C402 1.265 . S
O420 Tb400 2.384 . S
O420 C403 1.255 . S
O421 Eu401 2.366 . S
O421 C403 1.265 . S
C422 O413 1.255 . S
C422 O414 1.265 . S
O423 Tb400 2.479 . S
O423 C410 1.238 1_556 S
O424 Tb400 2.471 . S
O424 C410 1.247 1_556 S
C425 C428 1.380 . S
C425 C429 1.374 . S
C425 C431 1.507 . S
C426 C427 1.387 . S
C426 C430 1.391 . S
C427 C426 1.387 . S
C427 C428 1.384 . S
C427 H436 0.930 . S
C428 C425 1.380 . S
C428 C427 1.384 . S
C428 H437 0.931 . S
C429 C425 1.374 . S
C429 C430 1.390 . S
C429 H438 0.930 . S
C430 C426 1.391 . S
C430 C429 1.390 . S
C430 H439 0.930 . S
C431 Eu401 2.825 . S
C431 O416 1.238 . S
C431 O417 1.247 . S
C431 C425 1.507 . S
H432 C405 0.930 . S
H433 C406 0.931 . S
H434 C407 0.930 . S
H435 C408 0.930 . S
H436 C427 0.930 . S
H437 C428 0.931 . S
H438 C429 0.930 . S
H439 C430 0.930 . S
Tb440 C450 2.825 . S
Tb440 O451 2.347 . S
Tb440 O454 2.366 . S
Tb440 O459 2.418 . S
Tb440 O460 2.384 . S
Tb440 O463 2.479 . S
Tb440 O464 2.471 . S
Eu441 O452 2.418 . S
Eu441 O453 2.384 . S
Eu441 O456 2.479 . S
Eu441 O457 2.471 . S
Eu441 O458 2.347 . S
Eu441 O461 2.366 . S
Eu441 C471 2.825 . S
C442 O458 1.259 . S
C442 O459 1.265 . S
C443 O460 1.255 . S
C443 O461 1.265 . S
C444 C446 1.380 . S
C444 C447 1.374 . S
C444 C450 1.507 1_554 S
C445 C446 1.384 . S
C445 C449 1.387 . S
C445 H472 0.930 . S
C446 C444 1.380 . S
C446 C445 1.384 . S
C446 H473 0.931 . S
C447 C444 1.374 . S
C447 C448 1.390 . S
C447 H474 0.930 . S
C448 C447 1.390 . S
C448 C449 1.391 . S
C448 H475 0.930 . S
C449 C445 1.387 . S
C449 C448 1.391 . S
C450 Tb440 2.825 . S
C450 C444 1.507 1_556 S
C450 O463 1.238 . S
C450 O464 1.247 . S
O451 Tb440 2.347 . S
O451 C455 1.259 . S
O452 Eu441 2.418 . S
O452 C455 1.265 . S
O453 Eu441 2.384 . S
O453 C462 1.255 . S
O454 Tb440 2.366 . S
O454 C462 1.265 . S
C455 O451 1.259 . S
C455 O452 1.265 . S
O456 Eu441 2.479 . S
O456 C471 1.238 . S
O457 Eu441 2.471 . S
O457 C471 1.247 . S
O458 Eu441 2.347 . S
O458 C442 1.259 . S
O459 Tb440 2.418 . S
O459 C442 1.265 . S
O460 Tb440 2.384 . S
O460 C443 1.255 . S
O461 Eu441 2.366 . S
O461 C443 1.265 . S
C462 O453 1.255 . S
C462 O454 1.265 . S
O463 Tb440 2.479 . S
O463 C450 1.238 . S
O464 Tb440 2.471 . S
O464 C450 1.247 . S
C465 C468 1.380 . S
C465 C469 1.374 . S
C465 C471 1.507 . S
C466 C467 1.387 . S
C466 C470 1.391 . S
C467 C466 1.387 . S
C467 C468 1.384 . S
C467 H476 0.930 . S
C468 C465 1.380 . S
C468 C467 1.384 . S
C468 H477 0.931 . S
C469 C465 1.374 . S
C469 C470 1.390 . S
C469 H478 0.930 . S
C470 C466 1.391 . S
C470 C469 1.390 . S
C470 H479 0.930 . S
C471 Eu441 2.825 . S
C471 O456 1.238 . S
C471 O457 1.247 . S
C471 C465 1.507 . S
H472 C445 0.930 . S
H473 C446 0.931 . S
H474 C447 0.930 . S
H475 C448 0.930 . S
H476 C467 0.930 . S
H477 C468 0.931 . S
H478 C469 0.930 . S
H479 C470 0.930 . S
Tb480 C490 2.825 . S
Tb480 O491 2.347 . S
Tb480 O494 2.366 . S
Tb480 O499 2.418 . S
Tb480 O500 2.384 . S
Tb480 O503 2.479 . S
Tb480 O504 2.471 . S
Eu481 O492 2.418 . S
Eu481 O493 2.384 . S
Eu481 O496 2.479 . S
Eu481 O497 2.471 . S
Eu481 O498 2.347 . S
Eu481 O501 2.366 . S
Eu481 C511 2.825 1_554 S
C482 O498 1.259 . S
C482 O499 1.265 . S
C483 O500 1.255 . S
C483 O501 1.265 . S
C484 C486 1.380 . S
C484 C487 1.374 . S
C484 C490 1.507 . S
C485 C486 1.384 . S
C485 C489 1.387 . S
C485 H512 0.930 . S
C486 C484 1.380 . S
C486 C485 1.384 . S
C486 H513 0.931 . S
C487 C484 1.374 . S
C487 C488 1.390 . S
C487 H514 0.930 . S
C488 C487 1.390 . S
C488 C489 1.391 . S
C488 H515 0.930 . S
C489 C485 1.387 . S
C489 C488 1.391 . S
C490 Tb480 2.825 . S
C490 C484 1.507 . S
C490 O503 1.238 . S
C490 O504 1.247 . S
O491 Tb480 2.347 . S
O491 C495 1.259 . S
O492 Eu481 2.418 . S
O492 C495 1.265 . S
O493 Eu481 2.384 . S
O493 C502 1.255 . S
O494 Tb480 2.366 . S
O494 C502 1.265 . S
C495 O491 1.259 . S
C495 O492 1.265 . S
O496 Eu481 2.479 . S
O496 C511 1.238 1_554 S
O497 Eu481 2.471 . S
O497 C511 1.247 1_554 S
O498 Eu481 2.347 . S
O498 C482 1.259 . S
O499 Tb480 2.418 . S
O499 C482 1.265 . S
O500 Tb480 2.384 . S
O500 C483 1.255 . S
O501 Eu481 2.366 . S
O501 C483 1.265 . S
C502 O493 1.255 . S
C502 O494 1.265 . S
O503 Tb480 2.479 . S
O503 C490 1.238 . S
O504 Tb480 2.471 . S
O504 C490 1.247 . S
C505 C508 1.380 . S
C505 C509 1.374 . S
C505 C511 1.507 . S
C506 C507 1.387 . S
C506 C510 1.391 . S
C507 C506 1.387 . S
C507 C508 1.384 . S
C507 H516 0.930 . S
C508 C505 1.380 . S
C508 C507 1.384 . S
C508 H517 0.931 . S
C509 C505 1.374 . S
C509 C510 1.390 . S
C509 H518 0.930 . S
C510 C506 1.391 . S
C510 C509 1.390 . S
C510 H519 0.930 . S
C511 Eu481 2.825 1_556 S
C511 O496 1.238 1_556 S
C511 O497 1.247 1_556 S
C511 C505 1.507 . S
H512 C485 0.930 . S
H513 C486 0.931 . S
H514 C487 0.930 . S
H515 C488 0.930 . S
H516 C507 0.930 . S
H517 C508 0.931 . S
H518 C509 0.930 . S
H519 C510 0.930 . S
Tb520 C530 2.825 1_554 S
Tb520 O531 2.347 . S
Tb520 O534 2.366 . S
Tb520 O539 2.418 . S
Tb520 O540 2.384 . S
Tb520 O543 2.490 . S
Tb520 O544 2.471 1_554 S
Eu521 O532 2.418 . S
Eu521 O533 2.384 . S
Eu521 O536 2.479 . S
Eu521 O537 2.471 . S
Eu521 O538 2.347 . S
Eu521 O541 2.366 . S
Eu521 C551 2.825 . S
C522 O538 1.259 . S
C522 O539 1.265 . S
C523 O540 1.255 . S
C523 O541 1.265 . S
C524 C526 1.380 . S
C524 C527 1.374 . S
C524 C530 1.507 . S
C525 C526 1.384 . S
C525 C529 1.387 . S
C525 H552 0.930 . S
C526 C524 1.380 . S
C526 C525 1.384 . S
C526 H553 0.931 . S
C527 C524 1.374 . S
C527 C528 1.390 . S
C527 H554 0.930 . S
C528 C527 1.390 . S
C528 C529 1.391 . S
C528 H555 0.930 . S
C529 C525 1.387 . S
C529 C528 1.391 . S
C530 Tb520 2.825 1_556 S
C530 C524 1.507 . S
C530 O543 1.232 1_556 S
C530 O544 1.247 . S
O531 Tb520 2.347 . S
O531 C535 1.259 . S
O532 Eu521 2.418 . S
O532 C535 1.265 . S
O533 Eu521 2.384 . S
O533 C542 1.255 . S
O534 Tb520 2.366 . S
O534 C542 1.265 . S
C535 O531 1.259 . S
C535 O532 1.265 . S
O536 Eu521 2.479 . S
O536 C551 1.238 . S
O537 Eu521 2.471 . S
O537 C551 1.247 . S
O538 Eu521 2.347 . S
O538 C522 1.259 . S
O539 Tb520 2.418 . S
O539 C522 1.265 . S
O540 Tb520 2.384 . S
O540 C523 1.255 . S
O541 Eu521 2.366 . S
O541 C523 1.265 . S
C542 O533 1.255 . S
C542 O534 1.265 . S
O543 Tb520 2.490 . S
O543 C530 1.232 1_554 S
O544 Tb520 2.471 1_556 S
O544 C530 1.247 . S
C545 C548 1.380 . S
C545 C549 1.374 . S
C545 C551 1.507 . S
C546 C547 1.387 . S
C546 C550 1.391 . S
C547 C546 1.387 . S
C547 C548 1.384 . S
C547 H556 0.930 . S
C548 C545 1.380 . S
C548 C547 1.384 . S
C548 H557 0.931 . S
C549 C545 1.374 . S
C549 C550 1.390 . S
C549 H558 0.930 . S
C550 C546 1.391 . S
C550 C549 1.390 . S
C550 H559 0.930 . S
C551 Eu521 2.825 . S
C551 O536 1.238 . S
C551 O537 1.247 . S
C551 C545 1.507 . S
H552 C525 0.930 . S
H553 C526 0.931 . S
H554 C527 0.930 . S
H555 C528 0.930 . S
H556 C547 0.930 . S
H557 C548 0.931 . S
H558 C549 0.930 . S
H559 C550 0.930 . S
Tb560 C570 2.825 . S
Tb560 O571 2.347 . S
Tb560 O574 2.366 . S
Tb560 O579 2.418 . S
Tb560 O580 2.384 . S
Tb560 O583 2.479 . S
Tb560 O584 2.471 . S
Eu561 O572 2.418 . S
Eu561 O573 2.384 . S
Eu561 O576 2.479 . S
Eu561 O577 2.471 . S
Eu561 O578 2.347 . S
Eu561 O581 2.366 . S
Eu561 C591 2.825 . S
C562 O578 1.259 . S
C562 O579 1.265 . S
C563 O580 1.255 . S
C563 O581 1.265 . S
C564 C566 1.380 . S
C564 C567 1.374 . S
C564 C570 1.507 . S
C565 C566 1.384 . S
C565 C569 1.387 . S
C565 H592 0.930 . S
C566 C564 1.380 . S
C566 C565 1.384 . S
C566 H593 0.931 . S
C567 C564 1.374 . S
C567 C568 1.390 . S
C567 H594 0.930 . S
C568 C567 1.390 . S
C568 C569 1.391 . S
C568 H595 0.930 . S
C569 C565 1.387 . S
C569 C568 1.391 . S
C570 Tb560 2.825 . S
C570 C564 1.507 . S
C570 O583 1.238 . S
C570 O584 1.247 . S
O571 Tb560 2.347 . S
O571 C575 1.259 . S
O572 Eu561 2.418 . S
O572 C575 1.265 . S
O573 Eu561 2.384 . S
O573 C582 1.255 . S
O574 Tb560 2.366 . S
O574 C582 1.265 . S
C575 O571 1.259 . S
C575 O572 1.265 . S
O576 Eu561 2.479 . S
O576 C591 1.238 . S
O577 Eu561 2.471 . S
O577 C591 1.247 . S
O578 Eu561 2.347 . S
O578 C562 1.259 . S
O579 Tb560 2.418 . S
O579 C562 1.265 . S
O580 Tb560 2.384 . S
O580 C563 1.255 . S
O581 Eu561 2.366 . S
O581 C563 1.265 . S
C582 O573 1.255 . S
C582 O574 1.265 . S
O583 Tb560 2.479 . S
O583 C570 1.238 . S
O584 Tb560 2.471 . S
O584 C570 1.247 . S
C585 C588 1.380 . S
C585 C589 1.374 . S
C585 C591 1.507 1_556 S
C586 C587 1.387 . S
C586 C590 1.391 . S
C587 C586 1.387 . S
C587 C588 1.384 . S
C587 H596 0.930 . S
C588 C585 1.380 . S
C588 C587 1.384 . S
C588 H597 0.931 . S
C589 C585 1.374 . S
C589 C590 1.390 . S
C589 H598 0.930 . S
C590 C586 1.391 . S
C590 C589 1.390 . S
C590 H599 0.930 . S
C591 Eu561 2.825 . S
C591 O576 1.238 . S
C591 O577 1.247 . S
C591 C585 1.507 1_554 S
H592 C565 0.930 . S
H593 C566 0.931 . S
H594 C567 0.930 . S
H595 C568 0.930 . S
H596 C587 0.930 . S
H597 C588 0.931 . S
H598 C589 0.930 . S
H599 C590 0.930 . S
Tb600 C610 2.825 . S
Tb600 O611 2.347 . S
Tb600 O614 2.366 . S
Tb600 O619 2.418 . S
Tb600 O620 2.384 . S
Tb600 O623 2.479 . S
Tb600 O624 2.471 . S
Eu601 O612 2.418 . S
Eu601 O613 2.384 . S
Eu601 O616 2.479 . S
Eu601 O617 2.471 . S
Eu601 O618 2.347 . S
Eu601 O621 2.366 . S
Eu601 C631 2.825 1_554 S
C602 O618 1.259 . S
C602 O619 1.265 . S
C603 O620 1.255 . S
C603 O621 1.265 . S
C604 C606 1.380 . S
C604 C607 1.374 . S
C604 C610 1.507 . S
C605 C606 1.384 . S
C605 C609 1.387 . S
C605 H632 0.930 . S
C606 C604 1.380 . S
C606 C605 1.384 . S
C606 H633 0.931 . S
C607 C604 1.374 . S
C607 C608 1.390 . S
C607 H634 0.930 . S
C608 C607 1.390 . S
C608 C609 1.391 . S
C608 H635 0.930 . S
C609 C605 1.387 . S
C609 C608 1.391 . S
C610 Tb600 2.825 . S
C610 C604 1.507 . S
C610 O623 1.238 . S
C610 O624 1.247 . S
O611 Tb600 2.347 . S
O611 C615 1.259 . S
O612 Eu601 2.418 . S
O612 C615 1.265 . S
O613 Eu601 2.384 . S
O613 C622 1.255 . S
O614 Tb600 2.366 . S
O614 C622 1.265 . S
C615 O611 1.259 . S
C615 O612 1.265 . S
O616 Eu601 2.479 . S
O616 C631 1.238 1_554 S
O617 Eu601 2.471 . S
O617 C631 1.247 1_554 S
O618 Eu601 2.347 . S
O618 C602 1.259 . S
O619 Tb600 2.418 . S
O619 C602 1.265 . S
O620 Tb600 2.384 . S
O620 C603 1.255 . S
O621 Eu601 2.366 . S
O621 C603 1.265 . S
C622 O613 1.255 . S
C622 O614 1.265 . S
O623 Tb600 2.479 . S
O623 C610 1.238 . S
O624 Tb600 2.471 . S
O624 C610 1.247 . S
C625 C628 1.380 . S
C625 C629 1.374 . S
C625 C631 1.507 . S
C626 C627 1.387 . S
C626 C630 1.391 . S
C627 C626 1.387 . S
C627 C628 1.384 . S
C627 H636 0.930 . S
C628 C625 1.380 . S
C628 C627 1.384 . S
C628 H637 0.931 . S
C629 C625 1.374 . S
C629 C630 1.390 . S
C629 H638 0.930 . S
C630 C626 1.391 . S
C630 C629 1.390 . S
C630 H639 0.930 . S
C631 Eu601 2.825 1_556 S
C631 O616 1.238 1_556 S
C631 O617 1.247 1_556 S
C631 C625 1.507 . S
H632 C605 0.930 . S
H633 C606 0.931 . S
H634 C607 0.930 . S
H635 C608 0.930 . S
H636 C627 0.930 . S
H637 C628 0.931 . S
H638 C629 0.930 . S
H639 C630 0.930 . S
Tb640 C650 2.825 . S
Tb640 O651 2.347 . S
Tb640 O654 2.366 . S
Tb640 O659 2.418 . S
Tb640 O660 2.384 . S
Tb640 O663 2.479 . S
Tb640 O664 2.471 . S
Eu641 O652 2.418 . S
Eu641 O653 2.384 . S
Eu641 O656 2.479 . S
Eu641 O657 2.471 . S
Eu641 O658 2.347 . S
Eu641 O661 2.366 . S
Eu641 C671 2.825 . S
C642 O658 1.259 . S
C642 O659 1.265 . S
C643 O660 1.255 . S
C643 O661 1.265 . S
C644 C646 1.380 . S
C644 C647 1.374 . S
C644 C650 1.507 1_556 S
C645 C646 1.384 . S
C645 C649 1.387 . S
C645 H672 0.930 . S
C646 C644 1.380 . S
C646 C645 1.384 . S
C646 H673 0.931 . S
C647 C644 1.374 . S
C647 C648 1.390 . S
C647 H674 0.930 . S
C648 C647 1.390 . S
C648 C649 1.391 . S
C648 H675 0.930 . S
C649 C645 1.387 . S
C649 C648 1.391 . S
C650 Tb640 2.825 . S
C650 C644 1.507 1_554 S
C650 O663 1.238 . S
C650 O664 1.247 . S
O651 Tb640 2.347 . S
O651 C655 1.259 . S
O652 Eu641 2.418 . S
O652 C655 1.265 . S
O653 Eu641 2.384 . S
O653 C662 1.255 . S
O654 Tb640 2.366 . S
O654 C662 1.265 . S
C655 O651 1.259 . S
C655 O652 1.265 . S
O656 Eu641 2.479 . S
O656 C671 1.238 . S
O657 Eu641 2.471 . S
O657 C671 1.247 . S
O658 Eu641 2.347 . S
O658 C642 1.259 . S
O659 Tb640 2.418 . S
O659 C642 1.265 . S
O660 Tb640 2.384 . S
O660 C643 1.255 . S
O661 Eu641 2.366 . S
O661 C643 1.265 . S
C662 O653 1.255 . S
C662 O654 1.265 . S
O663 Tb640 2.479 . S
O663 C650 1.238 . S
O664 Tb640 2.471 . S
O664 C650 1.247 . S
C665 C668 1.380 . S
C665 C669 1.374 . S
C665 C671 1.507 . S
C666 C667 1.387 . S
C666 C670 1.391 . S
C667 C666 1.387 . S
C667 C668 1.384 . S
C667 H676 0.930 . S
C668 C665 1.380 . S
C668 C667 1.384 . S
C668 H677 0.931 . S
C669 C665 1.374 . S
C669 C670 1.390 . S
C669 H678 0.930 . S
C670 C666 1.391 . S
C670 C669 1.390 . S
C670 H679 0.930 . S
C671 Eu641 2.825 . S
C671 O656 1.238 . S
C671 O657 1.247 . S
C671 C665 1.507 . S
H672 C645 0.930 . S
H673 C646 0.931 . S
H674 C647 0.930 . S
H675 C648 0.930 . S
H676 C667 0.930 . S
H677 C668 0.931 . S
H678 C669 0.930 . S
H679 C670 0.930 . S
Tb680 C690 2.825 . S
Tb680 O691 2.347 . S
Tb680 O694 2.366 . S
Tb680 O699 2.418 . S
Tb680 O700 2.384 . S
Tb680 O703 2.479 . S
Tb680 O704 2.471 . S
Eu681 O692 2.418 . S
Eu681 O693 2.384 . S
Eu681 O696 2.479 . S
Eu681 O697 2.471 . S
Eu681 O698 2.347 . S
Eu681 O701 2.366 . S
Eu681 C711 2.825 . S
C682 O698 1.259 . S
C682 O699 1.265 . S
C683 O700 1.255 . S
C683 O701 1.265 . S
C684 C686 1.380 . S
C684 C687 1.374 . S
C684 C690 1.507 . S
C685 C686 1.384 . S
C685 C689 1.387 . S
C685 H712 0.930 . S
C686 C684 1.380 . S
C686 C685 1.384 . S
C686 H713 0.931 . S
C687 C684 1.374 . S
C687 C688 1.390 . S
C687 H714 0.930 . S
C688 C687 1.390 . S
C688 C689 1.391 . S
C688 H715 0.930 . S
C689 C685 1.387 . S
C689 C688 1.391 . S
C690 Tb680 2.825 . S
C690 C684 1.507 . S
C690 O703 1.238 . S
C690 O704 1.247 . S
O691 Tb680 2.347 . S
O691 C695 1.259 . S
O692 Eu681 2.418 . S
O692 C695 1.265 . S
O693 Eu681 2.384 . S
O693 C702 1.255 . S
O694 Tb680 2.366 . S
O694 C702 1.265 . S
C695 O691 1.259 . S
C695 O692 1.265 . S
O696 Eu681 2.479 . S
O696 C711 1.238 . S
O697 Eu681 2.471 . S
O697 C711 1.247 . S
O698 Eu681 2.347 . S
O698 C682 1.259 . S
O699 Tb680 2.418 . S
O699 C682 1.265 . S
O700 Tb680 2.384 . S
O700 C683 1.255 . S
O701 Eu681 2.366 . S
O701 C683 1.265 . S
C702 O693 1.255 . S
C702 O694 1.265 . S
O703 Tb680 2.479 . S
O703 C690 1.238 . S
O704 Tb680 2.471 . S
O704 C690 1.247 . S
C705 C708 1.380 . S
C705 C709 1.374 . S
C705 C711 1.507 1_556 S
C706 C707 1.387 . S
C706 C710 1.391 . S
C707 C706 1.387 . S
C707 C708 1.384 . S
C707 H716 0.930 . S
C708 C705 1.380 . S
C708 C707 1.384 . S
C708 H717 0.931 . S
C709 C705 1.374 . S
C709 C710 1.390 . S
C709 H718 0.930 . S
C710 C706 1.391 . S
C710 C709 1.390 . S
C710 H719 0.930 . S
C711 Eu681 2.825 . S
C711 O696 1.238 . S
C711 O697 1.247 . S
C711 C705 1.507 1_554 S
H712 C685 0.930 . S
H713 C686 0.931 . S
H714 C687 0.930 . S
H715 C688 0.930 . S
H716 C707 0.930 . S
H717 C708 0.931 . S
H718 C709 0.930 . S
H719 C710 0.930 . S
H720 C726 0.930 . S
H721 C729 0.930 . S
H722 C730 0.930 . S
H723 C731 0.930 . S
H724 C734 0.930 . S
H725 C735 0.930 . S
C726 H720 0.930 . S
C726 C727 1.355 . S
C726 C728 1.415 . S
C727 C726 1.355 . S
C727 C729 1.419 . S
C728 C726 1.415 . S
C728 C733 1.425 . S
C728 C735 1.409 . S
C729 H721 0.930 . S
C729 C727 1.419 . S
C729 C730 1.362 . S
C730 H722 0.930 . S
C730 C729 1.362 . S
C730 C733 1.409 . S
C731 H723 0.930 . S
C731 C732 1.355 . S
C731 C733 1.415 . S
C732 C731 1.355 . S
C732 C734 1.419 . S
C733 C728 1.425 . S
C733 C730 1.409 . S
C733 C731 1.415 . S
C734 H724 0.930 . S
C734 C732 1.419 . S
C734 C735 1.362 . S
C735 H725 0.930 . S
C735 C728 1.409 . S
C735 C734 1.362 . S
H736 C742 0.930 . S
H737 C745 0.930 . S
H738 C746 0.930 . S
H739 C747 0.930 . S
H740 C750 0.930 . S
H741 C751 0.930 . S
C742 H736 0.930 . S
C742 C743 1.355 . S
C742 C744 1.415 . S
C743 C742 1.355 . S
C743 C745 1.419 . S
C744 C742 1.415 . S
C744 C749 1.425 . S
C744 C751 1.409 . S
C745 H737 0.930 . S
C745 C743 1.419 . S
C745 C746 1.362 . S
C746 H738 0.930 . S
C746 C745 1.362 . S
C746 C749 1.409 . S
C747 H739 0.930 . S
C747 C748 1.355 . S
C747 C749 1.415 . S
C748 C747 1.355 . S
C748 C750 1.419 . S
C749 C744 1.425 . S
C749 C746 1.409 . S
C749 C747 1.415 . S
C750 H740 0.930 . S
C750 C748 1.419 . S
C750 C751 1.362 . S
C751 H741 0.930 . S
C751 C744 1.409 . S
C751 C750 1.362 . S
H752 C758 0.930 . S
H753 C761 0.930 . S
H754 C762 0.930 . S
H755 C763 0.930 . S
H756 C766 0.930 . S
H757 C767 0.930 . S
C758 H752 0.930 . S
C758 C759 1.355 . S
C758 C760 1.415 . S
C759 C758 1.355 . S
C759 C761 1.419 . S
C760 C758 1.415 . S
C760 C765 1.425 . S
C760 C767 1.409 . S
C761 H753 0.930 . S
C761 C759 1.419 . S
C761 C762 1.362 . S
C762 H754 0.930 . S
C762 C761 1.362 . S
C762 C765 1.409 . S
C763 H755 0.930 . S
C763 C764 1.355 . S
C763 C765 1.415 . S
C764 C763 1.355 . S
C764 C766 1.419 . S
C765 C760 1.425 . S
C765 C762 1.409 . S
C765 C763 1.415 . S
C766 H756 0.930 . S
C766 C764 1.419 . S
C766 C767 1.362 . S
C767 H757 0.930 . S
C767 C760 1.409 . S
C767 C766 1.362 . S
H768 C774 0.930 . S
H769 C777 0.930 . S
H770 C778 0.930 . S
H771 C779 0.930 . S
H772 C782 0.930 . S
H773 C783 0.930 . S
C774 H768 0.930 . S
C774 C775 1.355 . S
C774 C776 1.415 . S
C775 C774 1.355 . S
C775 C777 1.419 . S
C776 C774 1.415 . S
C776 C781 1.425 . S
C776 C783 1.409 . S
C777 H769 0.930 . S
C777 C775 1.419 . S
C777 C778 1.362 . S
C778 H770 0.930 . S
C778 C777 1.362 . S
C778 C781 1.409 . S
C779 H771 0.930 . S
C779 C780 1.355 . S
C779 C781 1.415 . S
C780 C779 1.355 . S
C780 C782 1.419 . S
C781 C776 1.425 . S
C781 C778 1.409 . S
C781 C779 1.415 . S
C782 H772 0.930 . S
C782 C780 1.419 . S
C782 C783 1.362 . S
C783 H773 0.930 . S
C783 C776 1.409 . S
C783 C782 1.362 . S
H784 C790 0.930 . S
H785 C793 0.930 . S
H786 C794 0.930 . S
H787 C795 0.930 . S
H788 C798 0.930 . S
H789 C799 0.930 . S
C790 H784 0.930 . S
C790 C791 1.355 . S
C790 C792 1.415 . S
C791 C790 1.355 . S
C791 C793 1.419 . S
C792 C790 1.415 . S
C792 C797 1.425 . S
C792 C799 1.409 . S
C793 H785 0.930 . S
C793 C791 1.419 . S
C793 C794 1.362 . S
C794 H786 0.930 . S
C794 C793 1.362 . S
C794 C797 1.409 . S
C795 H787 0.930 . S
C795 C796 1.355 . S
C795 C797 1.415 . S
C796 C795 1.355 . S
C796 C798 1.419 . S
C797 C792 1.425 . S
C797 C794 1.409 . S
C797 C795 1.415 . S
C798 H788 0.930 . S
C798 C796 1.419 . S
C798 C799 1.362 . S
C799 H789 0.930 . S
C799 C792 1.409 . S
C799 C798 1.362 . S
H800 C806 0.930 . S
H801 C809 0.930 . S
H802 C810 0.930 . S
H803 C811 0.930 . S
H804 C814 0.930 . S
H805 C815 0.930 . S
C806 H800 0.930 . S
C806 C807 1.355 . S
C806 C808 1.415 . S
C807 C806 1.355 . S
C807 C809 1.419 . S
C808 C806 1.415 . S
C808 C813 1.425 . S
C808 C815 1.409 . S
C809 H801 0.930 . S
C809 C807 1.419 . S
C809 C810 1.362 . S
C810 H802 0.930 . S
C810 C809 1.362 . S
C810 C813 1.409 . S
C811 H803 0.930 . S
C811 C812 1.355 . S
C811 C813 1.415 . S
C812 C811 1.355 . S
C812 C814 1.419 . S
C813 C808 1.425 . S
C813 C810 1.409 . S
C813 C811 1.415 . S
C814 H804 0.930 . S
C814 C812 1.419 . S
C814 C815 1.362 . S
C815 H805 0.930 . S
C815 C808 1.409 . S
C815 C814 1.362 . S
H816 C822 0.930 . S
H817 C825 0.930 . S
H818 C826 0.930 . S
H819 C827 0.930 . S
H820 C830 0.930 . S
H821 C831 0.930 . S
C822 H816 0.930 . S
C822 C823 1.355 . S
C822 C824 1.415 . S
C823 C822 1.355 . S
C823 C825 1.419 . S
C824 C822 1.415 . S
C824 C829 1.425 . S
C824 C831 1.409 . S
C825 H817 0.930 . S
C825 C823 1.419 . S
C825 C826 1.362 . S
C826 H818 0.930 . S
C826 C825 1.362 . S
C826 C829 1.409 . S
C827 H819 0.930 . S
C827 C828 1.355 . S
C827 C829 1.415 . S
C828 C827 1.355 . S
C828 C830 1.419 . S
C829 C824 1.425 . S
C829 C826 1.409 . S
C829 C827 1.415 . S
C830 H820 0.930 . S
C830 C828 1.419 . S
C830 C831 1.362 . S
C831 H821 0.930 . S
C831 C824 1.409 . S
C831 C830 1.362 . S
H832 C838 0.930 . S
H833 C841 0.930 . S
H834 C842 0.930 . S
H835 C843 0.930 . S
H836 C846 0.930 . S
H837 C847 0.930 . S
C838 H832 0.930 . S
C838 C839 1.355 . S
C838 C840 1.415 . S
C839 C838 1.355 . S
C839 C841 1.419 . S
C840 C838 1.415 . S
C840 C845 1.425 . S
C840 C847 1.409 . S
C841 H833 0.930 . S
C841 C839 1.419 . S
C841 C842 1.362 . S
C842 H834 0.930 . S
C842 C841 1.362 . S
C842 C845 1.409 . S
C843 H835 0.930 . S
C843 C844 1.355 . S
C843 C845 1.415 . S
C844 C843 1.355 . S
C844 C846 1.419 . S
C845 C840 1.425 . S
C845 C842 1.409 . S
C845 C843 1.415 . S
C846 H836 0.930 . S
C846 C844 1.419 . S
C846 C847 1.362 . S
C847 H837 0.930 . S
C847 C840 1.409 . S
C847 C846 1.362 . S
H848 C854 0.930 . S
H849 C857 0.930 . S
H850 C858 0.930 . S
H851 C859 0.930 . S
H852 C862 0.930 . S
H853 C863 0.930 . S
C854 H848 0.930 . S
C854 C855 1.355 . S
C854 C856 1.415 . S
C855 C854 1.355 . S
C855 C857 1.419 . S
C856 C854 1.415 . S
C856 C861 1.425 . S
C856 C863 1.409 . S
C857 H849 0.930 . S
C857 C855 1.419 . S
C857 C858 1.362 . S
C858 H850 0.930 . S
C858 C857 1.362 . S
C858 C861 1.409 . S
C859 H851 0.930 . S
C859 C860 1.355 . S
C859 C861 1.415 . S
C860 C859 1.355 . S
C860 C862 1.419 . S
C861 C856 1.425 . S
C861 C858 1.409 . S
C861 C859 1.415 . S
C862 H852 0.930 . S
C862 C860 1.419 . S
C862 C863 1.362 . S
C863 H853 0.930 . S
C863 C856 1.409 . S
C863 C862 1.362 . S
H864 C870 0.930 . S
H865 C873 0.930 . S
H866 C874 0.930 . S
H867 C875 0.930 . S
H868 C878 0.930 . S
H869 C879 0.930 . S
C870 H864 0.930 . S
C870 C871 1.355 . S
C870 C872 1.415 . S
C871 C870 1.355 . S
C871 C873 1.419 . S
C872 C870 1.415 . S
C872 C877 1.425 . S
C872 C879 1.409 . S
C873 H865 0.930 . S
C873 C871 1.419 . S
C873 C874 1.362 . S
C874 H866 0.930 . S
C874 C873 1.362 . S
C874 C877 1.409 . S
C875 H867 0.930 . S
C875 C876 1.355 . S
C875 C877 1.415 . S
C876 C875 1.355 . S
C876 C878 1.419 . S
C877 C872 1.425 . S
C877 C874 1.409 . S
C877 C875 1.415 . S
C878 H868 0.930 . S
C878 C876 1.419 . S
C878 C879 1.362 . S
C879 H869 0.930 . S
C879 C872 1.409 . S
C879 C878 1.362 . S
H880 C886 0.930 . S
H881 C889 0.930 . S
H882 C890 0.930 . S
H883 C891 0.930 . S
H884 C894 0.930 . S
H885 C895 0.930 . S
C886 H880 0.930 . S
C886 C887 1.355 . S
C886 C888 1.415 . S
C887 C886 1.355 . S
C887 C889 1.419 . S
C888 C886 1.415 . S
C888 C893 1.425 . S
C888 C895 1.409 . S
C889 H881 0.930 . S
C889 C887 1.419 . S
C889 C890 1.362 . S
C890 H882 0.930 . S
C890 C889 1.362 . S
C890 C893 1.409 . S
C891 H883 0.930 . S
C891 C892 1.355 . S
C891 C893 1.415 . S
C892 C891 1.355 . S
C892 C894 1.419 . S
C893 C888 1.425 . S
C893 C890 1.409 . S
C893 C891 1.415 . S
C894 H884 0.930 . S
C894 C892 1.419 . S
C894 C895 1.362 . S
C895 H885 0.930 . S
C895 C888 1.409 . S
C895 C894 1.362 . S
H896 C902 0.930 . S
H897 C905 0.930 . S
H898 C906 0.930 . S
H899 C907 0.930 . S
H900 C910 0.930 . S
H901 C911 0.930 . S
C902 H896 0.930 . S
C902 C903 1.355 . S
C902 C904 1.415 . S
C903 C902 1.355 . S
C903 C905 1.419 . S
C904 C902 1.415 . S
C904 C909 1.425 . S
C904 C911 1.409 . S
C905 H897 0.930 . S
C905 C903 1.419 . S
C905 C906 1.362 . S
C906 H898 0.930 . S
C906 C905 1.362 . S
C906 C909 1.409 . S
C907 H899 0.930 . S
C907 C908 1.355 . S
C907 C909 1.415 . S
C908 C907 1.355 . S
C908 C910 1.419 . S
C909 C904 1.425 . S
C909 C906 1.409 . S
C909 C907 1.415 . S
C910 H900 0.930 . S
C910 C908 1.419 . S
C910 C911 1.362 . S
C911 H901 0.930 . S
C911 C904 1.409 . S
C911 C910 1.362 . S
H912 C918 0.930 . S
H913 C921 0.930 . S
H914 C922 0.930 . S
H915 C923 0.930 . S
H916 C926 0.930 . S
H917 C927 0.930 . S
C918 H912 0.930 . S
C918 C919 1.355 . S
C918 C920 1.415 1_655 S
C919 C918 1.355 . S
C919 C921 1.419 . S
C920 C918 1.415 1_455 S
C920 C925 1.425 1_456 S
C920 C927 1.409 . S
C921 H913 0.930 . S
C921 C919 1.419 . S
C921 C922 1.362 1_556 S
C922 H914 0.930 . S
C922 C921 1.362 1_554 S
C922 C925 1.409 . S
C923 H915 0.930 . S
C923 C924 1.355 . S
C923 C925 1.415 1_455 S
C924 C923 1.355 . S
C924 C926 1.419 . S
C925 C920 1.425 1_654 S
C925 C922 1.409 . S
C925 C923 1.415 1_655 S
C926 H916 0.930 . S
C926 C924 1.419 . S
C926 C927 1.362 1_554 S
C927 H917 0.930 . S
C927 C920 1.409 . S
C927 C926 1.362 1_556 S
H928 C934 0.930 . S
H929 C937 0.930 . S
H930 C938 0.930 . S
H931 C939 0.930 . S
H932 C942 0.930 . S
H933 C943 0.930 . S
C934 H928 0.930 . S
C934 C935 1.355 . S
C934 C936 1.415 . S
C935 C934 1.355 . S
C935 C937 1.419 . S
C936 C934 1.415 . S
C936 C941 1.425 1_556 S
C936 C943 1.409 . S
C937 H929 0.930 . S
C937 C935 1.419 . S
C937 C938 1.362 1_556 S
C938 H930 0.930 . S
C938 C937 1.362 1_554 S
C938 C941 1.409 . S
C939 H931 0.930 . S
C939 C940 1.355 . S
C939 C941 1.415 . S
C940 C939 1.355 . S
C940 C942 1.419 . S
C941 C936 1.425 1_554 S
C941 C938 1.409 . S
C941 C939 1.415 . S
C942 H932 0.930 . S
C942 C940 1.419 . S
C942 C943 1.362 1_554 S
C943 H933 0.930 . S
C943 C936 1.409 . S
C943 C942 1.362 1_556 S
H944 C950 0.930 . S
H945 C953 0.930 . S
H946 C954 0.930 . S
H947 C955 0.930 . S
H948 C958 0.930 . S
H949 C959 0.930 . S
C950 H944 0.930 . S
C950 C951 1.355 . S
C950 C952 1.415 . S
C951 C950 1.355 . S
C951 C953 1.419 . S
C952 C950 1.415 . S
C952 C957 1.425 1_545 S
C952 C959 1.409 1_545 S
C953 H945 0.930 . S
C953 C951 1.419 . S
C953 C954 1.362 . S
C954 H946 0.930 . S
C954 C953 1.362 . S
C954 C957 1.409 1_545 S
C955 H947 0.930 . S
C955 C956 1.355 . S
C955 C957 1.415 1_554 S
C956 C955 1.355 . S
C956 C958 1.419 . S
C957 C952 1.425 1_565 S
C957 C954 1.409 1_565 S
C957 C955 1.415 1_556 S
C958 H948 0.930 . S
C958 C956 1.419 . S
C958 C959 1.362 1_554 S
C959 H949 0.930 . S
C959 C952 1.409 1_565 S
C959 C958 1.362 1_556 S
H960 C966 0.930 . S
H961 C969 0.930 . S
H962 C970 0.930 . S
H963 C971 0.930 1_545 S
H964 C974 0.930 . S
H965 C975 0.930 1_556 S
C966 H960 0.930 . S
C966 C967 1.355 . S
C966 C968 1.415 1_545 S
C967 C966 1.355 . S
C967 C969 1.419 . S
C968 C966 1.415 1_565 S
C968 C973 1.425 1_566 S
C968 C975 1.409 1_556 S
C969 H961 0.930 . S
C969 C967 1.419 . S
C969 C970 1.362 1_556 S
C970 H962 0.930 . S
C970 C969 1.362 1_554 S
C970 C973 1.409 . S
C971 H963 0.930 1_565 S
C971 C972 1.355 . S
C971 C973 1.415 1_565 S
C972 C971 1.355 . S
C972 C974 1.419 . S
C973 C968 1.425 1_544 S
C973 C970 1.409 . S
C973 C971 1.415 1_545 S
C974 H964 0.930 . S
C974 C972 1.419 . S
C974 C975 1.362 . S
C975 H965 0.930 1_554 S
C975 C968 1.409 1_554 S
C975 C974 1.362 . S
H976 C982 0.930 . S
H977 C985 0.930 . S
H978 C986 0.930 . S
H979 C987 0.930 . S
H980 C990 0.930 . S
H981 C991 0.954 . S
C982 H976 0.930 . S
C982 C983 1.355 . S
C982 C984 1.415 . S
C983 C982 1.355 . S
C983 C985 1.419 . S
C984 C982 1.415 . S
C984 C989 1.425 1_455 S
C984 C991 1.421 1_455 S
C985 H977 0.930 . S
C985 C983 1.419 . S
C985 C986 1.362 . S
C986 H978 0.930 . S
C986 C985 1.362 . S
C986 C989 1.409 1_455 S
C987 H979 0.930 . S
C987 C988 1.355 . S
C987 C989 1.415 1_556 S
C988 C987 1.355 . S
C988 C990 1.419 . S
C989 C984 1.425 1_655 S
C989 C986 1.409 1_655 S
C989 C987 1.415 1_554 S
C990 H980 0.930 . S
C990 C988 1.419 . S
C990 C991 1.347 1_556 S
C991 H981 0.954 . S
C991 C984 1.421 1_655 S
C991 C990 1.347 1_554 S
H992 C998 0.930 . S
H993 C1001 0.930 . S
H994 C1002 0.930 . S
H995 C1003 0.930 . S
H996 C1006 0.930 . S
H997 C1007 0.930 . S
C998 H992 0.930 . S
C998 C999 1.355 . S
C998 C1000 1.415 . S
C999 C998 1.355 . S
C999 C1001 1.419 . S
C1000 C998 1.415 . S
C1000 C1005 1.425 1_554 S
C1000 C1007 1.409 . S
C1001 H993 0.930 . S
C1001 C999 1.419 . S
C1001 C1002 1.362 1_554 S
C1002 H994 0.930 . S
C1002 C1001 1.362 1_556 S
C1002 C1005 1.409 . S
C1003 H995 0.930 . S
C1003 C1004 1.355 . S
C1003 C1005 1.415 . S
C1004 C1003 1.355 . S
C1004 C1006 1.419 . S
C1005 C1000 1.425 1_556 S
C1005 C1002 1.409 . S
C1005 C1003 1.415 . S
C1006 H996 0.930 . S
C1006 C1004 1.419 . S
C1006 C1007 1.362 1_556 S
C1007 H997 0.930 . S
C1007 C1000 1.409 . S
C1007 C1006 1.362 1_554 S
H1008 C1014 0.930 . S
H1009 C1017 0.930 . S
H1010 C1018 0.930 . S
H1011 C1019 0.930 . S
H1012 C1022 0.930 . S
H1013 C1023 0.930 . S
C1014 H1008 0.930 . S
C1014 C1015 1.355 . S
C1014 C1016 1.415 . S
C1015 C1014 1.355 . S
C1015 C1017 1.419 . S
C1016 C1014 1.415 . S
C1016 C1021 1.425 . S
C1016 C1023 1.409 . S
C1017 H1009 0.930 . S
C1017 C1015 1.419 . S
C1017 C1018 1.362 . S
C1018 H1010 0.930 . S
C1018 C1017 1.362 . S
C1018 C1021 1.409 . S
C1019 H1011 0.930 . S
C1019 C1020 1.355 . S
C1019 C1021 1.415 . S
C1020 C1019 1.355 . S
C1020 C1022 1.419 . S
C1021 C1016 1.425 . S
C1021 C1018 1.409 . S
C1021 C1019 1.415 . S
C1022 H1012 0.930 . S
C1022 C1020 1.419 . S
C1022 C1023 1.362 . S
C1023 H1013 0.930 . S
C1023 C1016 1.409 . S
C1023 C1022 1.362 . S
H1024 C1030 0.930 . S
H1025 C1033 0.930 . S
H1026 C1034 0.930 . S
H1027 C1035 0.930 . S
H1028 C1038 0.930 . S
H1029 C1039 0.930 . S
C1030 H1024 0.930 . S
C1030 C1031 1.355 . S
C1030 C1032 1.415 . S
C1031 C1030 1.355 . S
C1031 C1033 1.419 . S
C1032 C1030 1.415 . S
C1032 C1037 1.425 . S
C1032 C1039 1.409 . S
C1033 H1025 0.930 . S
C1033 C1031 1.419 . S
C1033 C1034 1.362 . S
C1034 H1026 0.930 . S
C1034 C1033 1.362 . S
C1034 C1037 1.409 . S
C1035 H1027 0.930 . S
C1035 C1036 1.355 . S
C1035 C1037 1.415 . S
C1036 C1035 1.355 . S
C1036 C1038 1.419 . S
C1037 C1032 1.425 . S
C1037 C1034 1.409 . S
C1037 C1035 1.415 . S
C1038 H1028 0.930 . S
C1038 C1036 1.419 . S
C1038 C1039 1.362 . S
C1039 H1029 0.930 . S
C1039 C1032 1.409 . S
C1039 C1038 1.362 . S
H1040 C1046 0.930 . S
H1041 C1049 0.930 . S
H1042 C1050 0.930 . S
H1043 C1051 0.930 . S
H1044 C1054 0.930 . S
H1045 C1055 0.930 . S
C1046 H1040 0.930 . S
C1046 C1047 1.355 . S
C1046 C1048 1.415 . S
C1047 C1046 1.355 . S
C1047 C1049 1.419 . S
C1048 C1046 1.415 . S
C1048 C1053 1.425 . S
C1048 C1055 1.409 . S
C1049 H1041 0.930 . S
C1049 C1047 1.419 . S
C1049 C1050 1.362 . S
C1050 H1042 0.930 . S
C1050 C1049 1.362 . S
C1050 C1053 1.409 . S
C1051 H1043 0.930 . S
C1051 C1052 1.355 . S
C1051 C1053 1.415 . S
C1052 C1051 1.355 . S
C1052 C1054 1.419 . S
C1053 C1048 1.425 . S
C1053 C1050 1.409 . S
C1053 C1051 1.415 . S
C1054 H1044 0.930 . S
C1054 C1052 1.419 . S
C1054 C1055 1.362 . S
C1055 H1045 0.930 . S
C1055 C1048 1.409 . S
C1055 C1054 1.362 . S
H1056 C1062 0.930 . S
H1057 C1065 0.930 . S
H1058 C1066 0.930 . S
H1059 C1067 0.930 . S
H1060 C1070 0.930 . S
H1061 C1071 0.930 . S
C1062 H1056 0.930 . S
C1062 C1063 1.355 . S
C1062 C1064 1.415 . S
C1063 C1062 1.355 . S
C1063 C1065 1.419 . S
C1064 C1062 1.415 . S
C1064 C1069 1.425 . S
C1064 C1071 1.409 . S
C1065 H1057 0.930 . S
C1065 C1063 1.419 . S
C1065 C1066 1.362 . S
C1066 H1058 0.930 . S
C1066 C1065 1.362 . S
C1066 C1069 1.409 . S
C1067 H1059 0.930 . S
C1067 C1068 1.355 . S
C1067 C1069 1.415 . S
C1068 C1067 1.355 . S
C1068 C1070 1.419 . S
C1069 C1064 1.425 . S
C1069 C1066 1.409 . S
C1069 C1067 1.415 . S
C1070 H1060 0.930 . S
C1070 C1068 1.419 . S
C1070 C1071 1.362 . S
C1071 H1061 0.930 . S
C1071 C1064 1.409 . S
C1071 C1070 1.362 . S
H1072 C1078 0.930 . S
H1073 C1081 0.930 . S
H1074 C1082 0.930 . S
H1075 C1083 0.930 . S
H1076 C1086 0.930 . S
H1077 C1087 0.930 . S
C1078 H1072 0.930 . S
C1078 C1079 1.355 . S
C1078 C1080 1.415 . S
C1079 C1078 1.355 . S
C1079 C1081 1.419 . S
C1080 C1078 1.415 . S
C1080 C1085 1.425 . S
C1080 C1087 1.409 . S
C1081 H1073 0.930 . S
C1081 C1079 1.419 . S
C1081 C1082 1.362 . S
C1082 H1074 0.930 . S
C1082 C1081 1.362 . S
C1082 C1085 1.409 . S
C1083 H1075 0.930 . S
C1083 C1084 1.355 . S
C1083 C1085 1.415 . S
C1084 C1083 1.355 . S
C1084 C1086 1.419 . S
C1085 C1080 1.425 . S
C1085 C1082 1.409 . S
C1085 C1083 1.415 . S
C1086 H1076 0.930 . S
C1086 C1084 1.419 . S
C1086 C1087 1.362 . S
C1087 H1077 0.930 . S
C1087 C1080 1.409 . S
C1087 C1086 1.362 . S
H1088 C1094 0.930 . S
H1089 C1097 0.930 . S
H1090 C1098 0.930 . S
H1091 C1099 0.930 . S
H1092 C1102 0.930 . S
H1093 C1103 0.930 . S
C1094 H1088 0.930 . S
C1094 C1095 1.355 . S
C1094 C1096 1.415 . S
C1095 C1094 1.355 . S
C1095 C1097 1.419 . S
C1096 C1094 1.415 . S
C1096 C1101 1.425 . S
C1096 C1103 1.409 . S
C1097 H1089 0.930 . S
C1097 C1095 1.419 . S
C1097 C1098 1.362 . S
C1098 H1090 0.930 . S
C1098 C1097 1.362 . S
C1098 C1101 1.409 . S
C1099 H1091 0.930 . S
C1099 C1100 1.355 . S
C1099 C1101 1.415 . S
C1100 C1099 1.355 . S
C1100 C1102 1.419 . S
C1101 C1096 1.425 . S
C1101 C1098 1.409 . S
C1101 C1099 1.415 . S
C1102 H1092 0.930 . S
C1102 C1100 1.419 . S
C1102 C1103 1.362 . S
C1103 H1093 0.930 . S
C1103 C1096 1.409 . S
C1103 C1102 1.362 . S
H1104 C1110 0.930 . S
H1105 C1113 0.930 . S
H1106 C1114 0.930 . S
H1107 C1115 0.930 . S
H1108 C1118 0.930 . S
H1109 C1119 0.930 . S
C1110 H1104 0.930 . S
C1110 C1111 1.355 . S
C1110 C1112 1.415 . S
C1111 C1110 1.355 . S
C1111 C1113 1.419 . S
C1112 C1110 1.415 . S
C1112 C1117 1.425 . S
C1112 C1119 1.409 . S
C1113 H1105 0.930 . S
C1113 C1111 1.419 . S
C1113 C1114 1.362 . S
C1114 H1106 0.930 . S
C1114 C1113 1.362 . S
C1114 C1117 1.409 . S
C1115 H1107 0.930 . S
C1115 C1116 1.355 . S
C1115 C1117 1.415 . S
C1116 C1115 1.355 . S
C1116 C1118 1.419 . S
C1117 C1112 1.425 . S
C1117 C1114 1.409 . S
C1117 C1115 1.415 . S
C1118 H1108 0.930 . S
C1118 C1116 1.419 . S
C1118 C1119 1.362 . S
C1119 H1109 0.930 . S
C1119 C1112 1.409 . S
C1119 C1118 1.362 . S
H1120 C1126 0.930 . S
H1121 C1129 0.930 . S
H1122 C1130 0.930 . S
H1123 C1131 0.930 . S
H1124 C1134 0.930 . S
H1125 C1135 0.930 . S
C1126 H1120 0.930 . S
C1126 C1127 1.355 . S
C1126 C1128 1.415 . S
C1127 C1126 1.355 . S
C1127 C1129 1.419 . S
C1128 C1126 1.415 . S
C1128 C1133 1.425 . S
C1128 C1135 1.409 . S
C1129 H1121 0.930 . S
C1129 C1127 1.419 . S
C1129 C1130 1.362 . S
C1130 H1122 0.930 . S
C1130 C1129 1.362 . S
C1130 C1133 1.409 . S
C1131 H1123 0.930 . S
C1131 C1132 1.355 . S
C1131 C1133 1.415 . S
C1132 C1131 1.355 . S
C1132 C1134 1.419 . S
C1133 C1128 1.425 . S
C1133 C1130 1.409 . S
C1133 C1131 1.415 . S
C1134 H1124 0.930 . S
C1134 C1132 1.419 . S
C1134 C1135 1.362 . S
C1135 H1125 0.930 . S
C1135 C1128 1.409 . S
C1135 C1134 1.362 . S
H1136 C1142 0.930 . S
H1137 C1145 0.930 . S
H1138 C1146 0.930 . S
H1139 C1147 0.930 . S
H1140 C1150 0.930 . S
H1141 C1151 0.930 . S
C1142 H1136 0.930 . S
C1142 C1143 1.355 . S
C1142 C1144 1.415 . S
C1143 C1142 1.355 . S
C1143 C1145 1.419 . S
C1144 C1142 1.415 . S
C1144 C1149 1.425 . S
C1144 C1151 1.409 . S
C1145 H1137 0.930 . S
C1145 C1143 1.419 . S
C1145 C1146 1.362 . S
C1146 H1138 0.930 . S
C1146 C1145 1.362 . S
C1146 C1149 1.409 . S
C1147 H1139 0.930 . S
C1147 C1148 1.355 . S
C1147 C1149 1.415 . S
C1148 C1147 1.355 . S
C1148 C1150 1.419 . S
C1149 C1144 1.425 . S
C1149 C1146 1.409 . S
C1149 C1147 1.415 . S
C1150 H1140 0.930 . S
C1150 C1148 1.419 . S
C1150 C1151 1.362 . S
C1151 H1141 0.930 . S
C1151 C1144 1.409 . S
C1151 C1150 1.362 . S
H1152 C1158 0.930 . S
H1153 C1161 0.930 . S
H1154 C1162 0.930 . S
H1155 C1163 0.930 . S
H1156 C1166 0.930 . S
H1157 C1167 0.930 . S
C1158 H1152 0.930 . S
C1158 C1159 1.355 . S
C1158 C1160 1.415 . S
C1159 C1158 1.355 . S
C1159 C1161 1.419 . S
C1160 C1158 1.415 . S
C1160 C1165 1.425 . S
C1160 C1167 1.409 . S
C1161 H1153 0.930 . S
C1161 C1159 1.419 . S
C1161 C1162 1.362 . S
C1162 H1154 0.930 . S
C1162 C1161 1.362 . S
C1162 C1165 1.409 . S
C1163 H1155 0.930 . S
C1163 C1164 1.355 . S
C1163 C1165 1.415 . S
C1164 C1163 1.355 . S
C1164 C1166 1.419 . S
C1165 C1160 1.425 . S
C1165 C1162 1.409 . S
C1165 C1163 1.415 . S
C1166 H1156 0.930 . S
C1166 C1164 1.419 . S
C1166 C1167 1.362 . S
C1167 H1157 0.930 . S
C1167 C1160 1.409 . S
C1167 C1166 1.362 . S
H1168 C1174 0.930 . S
H1169 C1177 0.930 . S
H1170 C1178 0.930 . S
H1171 C1179 0.930 . S
H1172 C1182 0.930 . S
H1173 C1183 0.930 . S
C1174 H1168 0.930 . S
C1174 C1175 1.355 . S
C1174 C1176 1.415 . S
C1175 C1174 1.355 . S
C1175 C1177 1.419 . S
C1176 C1174 1.415 . S
C1176 C1181 1.425 . S
C1176 C1183 1.409 . S
C1177 H1169 0.930 . S
C1177 C1175 1.419 . S
C1177 C1178 1.362 . S
C1178 H1170 0.930 . S
C1178 C1177 1.362 . S
C1178 C1181 1.409 . S
C1179 H1171 0.930 . S
C1179 C1180 1.355 . S
C1179 C1181 1.415 . S
C1180 C1179 1.355 . S
C1180 C1182 1.419 . S
C1181 C1176 1.425 . S
C1181 C1178 1.409 . S
C1181 C1179 1.415 . S
C1182 H1172 0.930 . S
C1182 C1180 1.419 . S
C1182 C1183 1.362 . S
C1183 H1173 0.930 . S
C1183 C1176 1.409 . S
C1183 C1182 1.362 . S
H1184 C1190 0.930 . S
H1185 C1193 0.930 . S
H1186 C1194 0.930 . S
H1187 C1195 0.930 . S
H1188 C1198 0.930 . S
H1189 C1199 0.930 . S
C1190 H1184 0.930 . S
C1190 C1191 1.355 . S
C1190 C1192 1.415 . S
C1191 C1190 1.355 . S
C1191 C1193 1.419 . S
C1192 C1190 1.415 . S
C1192 C1197 1.425 . S
C1192 C1199 1.409 . S
C1193 H1185 0.930 . S
C1193 C1191 1.419 . S
C1193 C1194 1.362 . S
C1194 H1186 0.930 . S
C1194 C1193 1.362 . S
C1194 C1197 1.409 . S
C1195 H1187 0.930 . S
C1195 C1196 1.355 . S
C1195 C1197 1.415 . S
C1196 C1195 1.355 . S
C1196 C1198 1.419 . S
C1197 C1192 1.425 . S
C1197 C1194 1.409 . S
C1197 C1195 1.415 . S
C1198 H1188 0.930 . S
C1198 C1196 1.419 . S
C1198 C1199 1.362 . S
C1199 H1189 0.930 . S
C1199 C1192 1.409 . S
C1199 C1198 1.362 . S
H1200 C1206 0.930 . S
H1201 C1209 0.930 . S
H1202 C1210 0.930 . S
H1203 C1211 0.930 . S
H1204 C1214 0.930 . S
H1205 C1215 0.930 . S
C1206 H1200 0.930 . S
C1206 C1207 1.355 . S
C1206 C1208 1.415 . S
C1207 C1206 1.355 . S
C1207 C1209 1.419 . S
C1208 C1206 1.415 . S
C1208 C1213 1.425 . S
C1208 C1215 1.409 . S
C1209 H1201 0.930 . S
C1209 C1207 1.419 . S
C1209 C1210 1.362 . S
C1210 H1202 0.930 . S
C1210 C1209 1.362 . S
C1210 C1213 1.409 . S
C1211 H1203 0.930 . S
C1211 C1212 1.355 . S
C1211 C1213 1.415 . S
C1212 C1211 1.355 . S
C1212 C1214 1.419 . S
C1213 C1208 1.425 . S
C1213 C1210 1.409 . S
C1213 C1211 1.415 . S
C1214 H1204 0.930 . S
C1214 C1212 1.419 . S
C1214 C1215 1.362 . S
C1215 H1205 0.930 . S
C1215 C1208 1.409 . S
C1215 C1214 1.362 . S
H1216 C1222 0.930 . S
H1217 C1225 0.930 . S
H1218 C1226 0.930 . S
H1219 C1227 0.930 . S
H1220 C1230 0.930 . S
H1221 C1231 0.930 . S
C1222 H1216 0.930 . S
C1222 C1223 1.355 . S
C1222 C1224 1.415 . S
C1223 C1222 1.355 . S
C1223 C1225 1.419 . S
C1224 C1222 1.415 . S
C1224 C1229 1.425 . S
C1224 C1231 1.409 . S
C1225 H1217 0.930 . S
C1225 C1223 1.419 . S
C1225 C1226 1.362 . S
C1226 H1218 0.930 . S
C1226 C1225 1.362 . S
C1226 C1229 1.409 . S
C1227 H1219 0.930 . S
C1227 C1228 1.355 . S
C1227 C1229 1.415 . S
C1228 C1227 1.355 . S
C1228 C1230 1.419 . S
C1229 C1224 1.425 . S
C1229 C1226 1.409 . S
C1229 C1227 1.415 . S
C1230 H1220 0.930 . S
C1230 C1228 1.419 . S
C1230 C1231 1.362 . S
C1231 H1221 0.930 . S
C1231 C1224 1.409 . S
C1231 C1230 1.362 . S
H1232 C1238 0.930 . S
H1233 C1241 0.930 . S
H1234 C1242 0.930 . S
H1235 C1243 0.930 . S
H1236 C1246 0.930 . S
H1237 C1247 0.930 . S
C1238 H1232 0.930 . S
C1238 C1239 1.355 . S
C1238 C1240 1.415 . S
C1239 C1238 1.355 . S
C1239 C1241 1.419 . S
C1240 C1238 1.415 . S
C1240 C1245 1.425 . S
C1240 C1247 1.409 . S
C1241 H1233 0.930 . S
C1241 C1239 1.419 . S
C1241 C1242 1.362 . S
C1242 H1234 0.930 . S
C1242 C1241 1.362 . S
C1242 C1245 1.409 . S
C1243 H1235 0.930 . S
C1243 C1244 1.355 . S
C1243 C1245 1.415 . S
C1244 C1243 1.355 . S
C1244 C1246 1.419 . S
C1245 C1240 1.425 . S
C1245 C1242 1.409 . S
C1245 C1243 1.415 . S
C1246 H1236 0.930 . S
C1246 C1244 1.419 . S
C1246 C1247 1.362 . S
C1247 H1237 0.930 . S
C1247 C1240 1.409 . S
C1247 C1246 1.362 . S
H1248 C1254 0.930 . S
H1249 C1257 0.930 . S
H1250 C1258 0.930 . S
H1251 C1259 0.930 . S
H1252 C1262 0.930 . S
H1253 C1263 0.930 . S
C1254 H1248 0.930 . S
C1254 C1255 1.355 . S
C1254 C1256 1.415 . S
C1255 C1254 1.355 . S
C1255 C1257 1.419 . S
C1256 C1254 1.415 . S
C1256 C1261 1.425 . S
C1256 C1263 1.409 . S
C1257 H1249 0.930 . S
C1257 C1255 1.419 . S
C1257 C1258 1.362 . S
C1258 H1250 0.930 . S
C1258 C1257 1.362 . S
C1258 C1261 1.409 . S
C1259 H1251 0.930 . S
C1259 C1260 1.355 . S
C1259 C1261 1.415 . S
C1260 C1259 1.355 . S
C1260 C1262 1.419 . S
C1261 C1256 1.425 . S
C1261 C1258 1.409 . S
C1261 C1259 1.415 . S
C1262 H1252 0.930 . S
C1262 C1260 1.419 . S
C1262 C1263 1.362 . S
C1263 H1253 0.930 . S
C1263 C1256 1.409 . S
C1263 C1262 1.362 . S
H1264 C1270 0.930 . S
H1265 C1273 0.930 . S
H1266 C1274 0.930 . S
H1267 C1275 0.930 . S
H1268 C1278 0.930 . S
H1269 C1279 0.930 . S
C1270 H1264 0.930 . S
C1270 C1271 1.355 . S
C1270 C1272 1.415 . S
C1271 C1270 1.355 . S
C1271 C1273 1.419 . S
C1272 C1270 1.415 . S
C1272 C1277 1.425 . S
C1272 C1279 1.409 . S
C1273 H1265 0.930 . S
C1273 C1271 1.419 . S
C1273 C1274 1.362 . S
C1274 H1266 0.930 . S
C1274 C1273 1.362 . S
C1274 C1277 1.409 . S
C1275 H1267 0.930 . S
C1275 C1276 1.355 . S
C1275 C1277 1.415 . S
C1276 C1275 1.355 . S
C1276 C1278 1.419 . S
C1277 C1272 1.425 . S
C1277 C1274 1.409 . S
C1277 C1275 1.415 . S
C1278 H1268 0.930 . S
C1278 C1276 1.419 . S
C1278 C1279 1.362 . S
C1279 H1269 0.930 . S
C1279 C1272 1.409 . S
C1279 C1278 1.362 . S
H1280 C1286 0.930 . S
H1281 C1289 0.930 . S
H1282 C1290 0.930 . S
H1283 C1291 0.930 . S
H1284 C1294 0.930 . S
H1285 C1295 0.930 . S
C1286 H1280 0.930 . S
C1286 C1287 1.355 . S
C1286 C1288 1.415 . S
C1287 C1286 1.355 . S
C1287 C1289 1.419 . S
C1288 C1286 1.415 . S
C1288 C1293 1.425 . S
C1288 C1295 1.409 . S
C1289 H1281 0.930 . S
C1289 C1287 1.419 . S
C1289 C1290 1.362 . S
C1290 H1282 0.930 . S
C1290 C1289 1.362 . S
C1290 C1293 1.409 . S
C1291 H1283 0.930 . S
C1291 C1292 1.355 . S
C1291 C1293 1.415 . S
C1292 C1291 1.355 . S
C1292 C1294 1.419 . S
C1293 C1288 1.425 . S
C1293 C1290 1.409 . S
C1293 C1291 1.415 . S
C1294 H1284 0.930 . S
C1294 C1292 1.419 . S
C1294 C1295 1.362 . S
C1295 H1285 0.930 . S
C1295 C1288 1.409 . S
C1295 C1294 1.362 . S
H1296 C1302 0.930 . S
H1297 C1305 0.930 . S
H1298 C1306 0.930 . S
H1299 C1307 0.930 . S
H1300 C1310 0.930 . S
H1301 C1311 0.930 . S
C1302 H1296 0.930 . S
C1302 C1303 1.355 1_655 S
C1302 C1304 1.415 . S
C1303 C1302 1.355 1_455 S
C1303 C1305 1.419 . S
C1304 C1302 1.415 . S
C1304 C1309 1.425 1_655 S
C1304 C1311 1.409 . S
C1305 H1297 0.930 . S
C1305 C1303 1.419 . S
C1305 C1306 1.362 . S
C1306 H1298 0.930 . S
C1306 C1305 1.362 . S
C1306 C1309 1.409 . S
C1307 H1299 0.930 . S
C1307 C1308 1.355 1_455 S
C1307 C1309 1.415 1_556 S
C1308 C1307 1.355 1_655 S
C1308 C1310 1.419 . S
C1309 C1304 1.425 1_455 S
C1309 C1306 1.409 . S
C1309 C1307 1.415 1_554 S
C1310 H1300 0.930 . S
C1310 C1308 1.419 . S
C1310 C1311 1.362 1_556 S
C1311 H1301 0.930 . S
C1311 C1304 1.409 . S
C1311 C1310 1.362 1_554 S
H1312 C1318 0.930 . S
H1313 C1321 0.930 . S
H1314 C1322 0.930 . S
H1315 C1323 0.930 . S
H1316 C1326 0.930 . S
H1317 C1327 0.930 1_554 S
C1318 H1312 0.930 . S
C1318 C1319 1.355 . S
C1318 C1320 1.415 . S
C1319 C1318 1.355 . S
C1319 C1321 1.419 . S
C1320 C1318 1.415 . S
C1320 C1325 1.425 1_554 S
C1320 C1327 1.409 1_554 S
C1321 H1313 0.930 . S
C1321 C1319 1.419 . S
C1321 C1322 1.362 1_554 S
C1322 H1314 0.930 . S
C1322 C1321 1.362 1_556 S
C1322 C1325 1.409 . S
C1323 H1315 0.930 . S
C1323 C1324 1.355 . S
C1323 C1325 1.415 . S
C1324 C1323 1.355 . S
C1324 C1326 1.419 . S
C1325 C1320 1.425 1_556 S
C1325 C1322 1.409 . S
C1325 C1323 1.415 . S
C1326 H1316 0.930 . S
C1326 C1324 1.419 . S
C1326 C1327 1.362 . S
C1327 H1317 0.930 1_556 S
C1327 C1320 1.409 1_556 S
C1327 C1326 1.362 . S
H1328 C1334 0.946 . S
H1329 C1337 0.930 . S
H1330 C1338 0.930 . S
H1331 C1339 0.930 . S
H1332 C1342 0.930 . S
H1333 C1343 0.930 1_554 S
C1334 H1328 0.946 . S
C1334 C1335 1.355 . S
C1334 C1336 1.415 1_565 S
C1335 C1334 1.355 . S
C1335 C1337 1.419 . S
C1336 C1334 1.415 1_545 S
C1336 C1341 1.425 1_544 S
C1336 C1343 1.409 1_554 S
C1337 H1329 0.930 . S
C1337 C1335 1.419 . S
C1337 C1338 1.362 1_554 S
C1338 H1330 0.930 . S
C1338 C1337 1.362 1_556 S
C1338 C1341 1.409 . S
C1339 H1331 0.930 . S
C1339 C1340 1.355 . S
C1339 C1341 1.415 1_545 S
C1340 C1339 1.355 . S
C1340 C1342 1.419 . S
C1341 C1336 1.425 1_566 S
C1341 C1338 1.409 . S
C1341 C1339 1.415 1_565 S
C1342 H1332 0.930 . S
C1342 C1340 1.419 . S
C1342 C1343 1.362 . S
C1343 H1333 0.930 1_556 S
C1343 C1336 1.409 1_556 S
C1343 C1342 1.362 . S
H1344 C1350 0.930 . S
H1345 C1353 0.930 . S
H1346 C1354 0.930 . S
H1347 C1355 0.930 . S
H1348 C1358 0.930 . S
H1349 C1359 0.930 . S
C1350 H1344 0.930 . S
C1350 C1351 1.355 1_455 S
C1350 C1352 1.415 1_556 S
C1351 C1350 1.355 1_655 S
C1351 C1353 1.419 . S
C1352 C1350 1.415 1_554 S
C1352 C1357 1.425 1_455 S
C1352 C1359 1.409 . S
C1353 H1345 0.930 . S
C1353 C1351 1.419 . S
C1353 C1354 1.362 1_556 S
C1354 H1346 0.930 . S
C1354 C1353 1.362 1_554 S
C1354 C1357 1.409 . S
C1355 H1347 0.930 . S
C1355 C1356 1.355 1_655 S
C1355 C1357 1.415 . S
C1356 C1355 1.355 1_455 S
C1356 C1358 1.419 . S
C1357 C1352 1.425 1_655 S
C1357 C1354 1.409 . S
C1357 C1355 1.415 . S
C1358 H1348 0.930 . S
C1358 C1356 1.419 . S
C1358 C1359 1.362 . S
C1359 H1349 0.930 . S
C1359 C1352 1.409 . S
C1359 C1358 1.362 . S
H1360 C1366 0.930 . S
H1361 C1369 0.930 . S
H1362 C1370 0.930 . S
H1363 C1371 0.930 . S
H1364 C1374 0.930 . S
H1365 C1375 0.930 . S
C1366 H1360 0.930 . S
C1366 C1367 1.355 . S
C1366 C1368 1.415 . S
C1367 C1366 1.355 . S
C1367 C1369 1.419 . S
C1368 C1366 1.415 . S
C1368 C1373 1.425 . S
C1368 C1375 1.409 . S
C1369 H1361 0.930 . S
C1369 C1367 1.419 . S
C1369 C1370 1.362 . S
C1370 H1362 0.930 . S
C1370 C1369 1.362 . S
C1370 C1373 1.409 . S
C1371 H1363 0.930 . S
C1371 C1372 1.355 . S
C1371 C1373 1.415 1_556 S
C1372 C1371 1.355 . S
C1372 C1374 1.419 . S
C1373 C1368 1.425 . S
C1373 C1370 1.409 . S
C1373 C1371 1.415 1_554 S
C1374 H1364 0.930 . S
C1374 C1372 1.419 . S
C1374 C1375 1.362 1_556 S
C1375 H1365 0.930 . S
C1375 C1368 1.409 . S
C1375 C1374 1.362 1_554 S
H1376 C1382 0.930 . S
H1377 C1385 0.930 . S
H1378 C1386 0.930 . S
H1379 C1387 0.930 . S
H1380 C1390 0.930 . S
H1381 C1391 0.930 . S
C1382 H1376 0.930 . S
C1382 C1383 1.355 . S
C1382 C1384 1.415 . S
C1383 C1382 1.355 . S
C1383 C1385 1.419 1_565 S
C1384 C1382 1.415 . S
C1384 C1389 1.425 1_565 S
C1384 C1391 1.409 1_554 S
C1385 H1377 0.930 . S
C1385 C1383 1.419 1_545 S
C1385 C1386 1.362 . S
C1386 H1378 0.930 . S
C1386 C1385 1.362 . S
C1386 C1389 1.409 . S
C1387 H1379 0.930 . S
C1387 C1388 1.355 . S
C1387 C1389 1.415 1_556 S
C1388 C1387 1.355 . S
C1388 C1390 1.419 1_545 S
C1389 C1384 1.425 1_545 S
C1389 C1386 1.409 . S
C1389 C1387 1.415 1_554 S
C1390 H1380 0.930 . S
C1390 C1388 1.419 1_565 S
C1390 C1391 1.362 . S
C1391 H1381 0.930 . S
C1391 C1384 1.409 1_556 S
C1391 C1390 1.362 . S
H1392 C1398 0.930 . S
H1393 C1401 0.930 . S
H1394 C1402 0.930 . S
H1395 C1403 0.930 . S
H1396 C1406 0.930 . S
H1397 C1407 0.930 . S
C1398 H1392 0.930 . S
C1398 C1399 1.355 . S
C1398 C1400 1.415 . S
C1399 C1398 1.355 . S
C1399 C1401 1.419 . S
C1400 C1398 1.415 . S
C1400 C1405 1.425 . S
C1400 C1407 1.409 . S
C1401 H1393 0.930 . S
C1401 C1399 1.419 . S
C1401 C1402 1.362 . S
C1402 H1394 0.930 . S
C1402 C1401 1.362 . S
C1402 C1405 1.409 . S
C1403 H1395 0.930 . S
C1403 C1404 1.355 . S
C1403 C1405 1.415 . S
C1404 C1403 1.355 . S
C1404 C1406 1.419 . S
C1405 C1400 1.425 . S
C1405 C1402 1.409 . S
C1405 C1403 1.415 . S
C1406 H1396 0.930 . S
C1406 C1404 1.419 . S
C1406 C1407 1.362 . S
C1407 H1397 0.930 . S
C1407 C1400 1.409 . S
C1407 C1406 1.362 . S
H1408 C1414 0.930 . S
H1409 C1417 0.930 . S
H1410 C1418 0.930 . S
H1411 C1419 0.930 . S
H1412 C1422 0.930 . S
H1413 C1423 0.930 . S
C1414 H1408 0.930 . S
C1414 C1415 1.355 . S
C1414 C1416 1.415 . S
C1415 C1414 1.355 . S
C1415 C1417 1.419 . S
C1416 C1414 1.415 . S
C1416 C1421 1.425 . S
C1416 C1423 1.409 . S
C1417 H1409 0.930 . S
C1417 C1415 1.419 . S
C1417 C1418 1.362 . S
C1418 H1410 0.930 . S
C1418 C1417 1.362 . S
C1418 C1421 1.409 . S
C1419 H1411 0.930 . S
C1419 C1420 1.355 . S
C1419 C1421 1.415 . S
C1420 C1419 1.355 . S
C1420 C1422 1.419 . S
C1421 C1416 1.425 . S
C1421 C1418 1.409 . S
C1421 C1419 1.415 . S
C1422 H1412 0.930 . S
C1422 C1420 1.419 . S
C1422 C1423 1.362 . S
C1423 H1413 0.930 . S
C1423 C1416 1.409 . S
C1423 C1422 1.362 . S
H1424 C1430 0.930 . S
H1425 C1433 0.930 . S
H1426 C1434 0.930 . S
H1427 C1435 0.930 . S
H1428 C1438 0.930 . S
H1429 C1439 0.930 . S
C1430 H1424 0.930 . S
C1430 C1431 1.355 . S
C1430 C1432 1.415 . S
C1431 C1430 1.355 . S
C1431 C1433 1.419 . S
C1432 C1430 1.415 . S
C1432 C1437 1.425 . S
C1432 C1439 1.409 . S
C1433 H1425 0.930 . S
C1433 C1431 1.419 . S
C1433 C1434 1.362 . S
C1434 H1426 0.930 . S
C1434 C1433 1.362 . S
C1434 C1437 1.409 . S
C1435 H1427 0.930 . S
C1435 C1436 1.355 . S
C1435 C1437 1.415 . S
C1436 C1435 1.355 . S
C1436 C1438 1.419 . S
C1437 C1432 1.425 . S
C1437 C1434 1.409 . S
C1437 C1435 1.415 . S
C1438 H1428 0.930 . S
C1438 C1436 1.419 . S
C1438 C1439 1.362 . S
C1439 H1429 0.930 . S
C1439 C1432 1.409 . S
C1439 C1438 1.362 . S
H1440 C1446 0.930 . S
H1441 C1449 0.930 . S
H1442 C1450 0.930 . S
H1443 C1451 0.930 . S
H1444 C1454 0.930 . S
H1445 C1455 0.930 . S
C1446 H1440 0.930 . S
C1446 C1447 1.355 . S
C1446 C1448 1.415 . S
C1447 C1446 1.355 . S
C1447 C1449 1.419 . S
C1448 C1446 1.415 . S
C1448 C1453 1.425 . S
C1448 C1455 1.409 . S
C1449 H1441 0.930 . S
C1449 C1447 1.419 . S
C1449 C1450 1.362 . S
C1450 H1442 0.930 . S
C1450 C1449 1.362 . S
C1450 C1453 1.409 . S
C1451 H1443 0.930 . S
C1451 C1452 1.355 . S
C1451 C1453 1.415 . S
C1452 C1451 1.355 . S
C1452 C1454 1.419 . S
C1453 C1448 1.425 . S
C1453 C1450 1.409 . S
C1453 C1451 1.415 . S
C1454 H1444 0.930 . S
C1454 C1452 1.419 . S
C1454 C1455 1.362 . S
C1455 H1445 0.930 . S
C1455 C1448 1.409 . S
C1455 C1454 1.362 . S
H1456 C1462 0.930 . S
H1457 C1465 0.930 . S
H1458 C1466 0.930 . S
H1459 C1467 0.930 . S
H1460 C1470 0.930 . S
H1461 C1471 0.930 . S
C1462 H1456 0.930 . S
C1462 C1463 1.355 . S
C1462 C1464 1.415 . S
C1463 C1462 1.355 . S
C1463 C1465 1.419 . S
C1464 C1462 1.415 . S
C1464 C1469 1.425 . S
C1464 C1471 1.409 . S
C1465 H1457 0.930 . S
C1465 C1463 1.419 . S
C1465 C1466 1.362 . S
C1466 H1458 0.930 . S
C1466 C1465 1.362 . S
C1466 C1469 1.409 . S
C1467 H1459 0.930 . S
C1467 C1468 1.355 . S
C1467 C1469 1.415 . S
C1468 C1467 1.355 . S
C1468 C1470 1.419 . S
C1469 C1464 1.425 . S
C1469 C1466 1.409 . S
C1469 C1467 1.415 . S
C1470 H1460 0.930 . S
C1470 C1468 1.419 . S
C1470 C1471 1.362 . S
C1471 H1461 0.930 . S
C1471 C1464 1.409 . S
C1471 C1470 1.362 . S
H1472 C1478 0.930 . S
H1473 C1481 0.930 . S
H1474 C1482 0.930 . S
H1475 C1483 0.930 . S
H1476 C1486 0.930 . S
H1477 C1487 0.930 . S
C1478 H1472 0.930 . S
C1478 C1479 1.355 . S
C1478 C1480 1.415 . S
C1479 C1478 1.355 . S
C1479 C1481 1.419 . S
C1480 C1478 1.415 . S
C1480 C1485 1.425 . S
C1480 C1487 1.409 . S
C1481 H1473 0.930 . S
C1481 C1479 1.419 . S
C1481 C1482 1.362 . S
C1482 H1474 0.930 . S
C1482 C1481 1.362 . S
C1482 C1485 1.409 . S
C1483 H1475 0.930 . S
C1483 C1484 1.355 . S
C1483 C1485 1.415 . S
C1484 C1483 1.355 . S
C1484 C1486 1.419 . S
C1485 C1480 1.425 . S
C1485 C1482 1.409 . S
C1485 C1483 1.415 . S
C1486 H1476 0.930 . S
C1486 C1484 1.419 . S
C1486 C1487 1.362 . S
C1487 H1477 0.930 . S
C1487 C1480 1.409 . S
C1487 C1486 1.362 . S
H1488 C1494 0.930 . S
H1489 C1497 0.930 . S
H1490 C1498 0.930 . S
H1491 C1499 0.930 . S
H1492 C1502 0.930 . S
H1493 C1503 0.930 . S
C1494 H1488 0.930 . S
C1494 C1495 1.355 . S
C1494 C1496 1.415 . S
C1495 C1494 1.355 . S
C1495 C1497 1.419 . S
C1496 C1494 1.415 . S
C1496 C1501 1.425 . S
C1496 C1503 1.409 . S
C1497 H1489 0.930 . S
C1497 C1495 1.419 . S
C1497 C1498 1.362 . S
C1498 H1490 0.930 . S
C1498 C1497 1.362 . S
C1498 C1501 1.409 . S
C1499 H1491 0.930 . S
C1499 C1500 1.355 . S
C1499 C1501 1.415 . S
C1500 C1499 1.355 . S
C1500 C1502 1.419 . S
C1501 C1496 1.425 . S
C1501 C1498 1.409 . S
C1501 C1499 1.415 . S
C1502 H1492 0.930 . S
C1502 C1500 1.419 . S
C1502 C1503 1.362 . S
C1503 H1493 0.930 . S
C1503 C1496 1.409 . S
C1503 C1502 1.362 . S
H1504 C1510 0.930 . S
H1505 C1513 0.930 . S
H1506 C1514 0.930 . S
H1507 C1515 0.930 . S
H1508 C1518 0.930 . S
H1509 C1519 0.930 . S
C1510 H1504 0.930 . S
C1510 C1511 1.355 . S
C1510 C1512 1.415 . S
C1511 C1510 1.355 . S
C1511 C1513 1.419 . S
C1512 C1510 1.415 . S
C1512 C1517 1.425 . S
C1512 C1519 1.409 . S
C1513 H1505 0.930 . S
C1513 C1511 1.419 . S
C1513 C1514 1.362 . S
C1514 H1506 0.930 . S
C1514 C1513 1.362 . S
C1514 C1517 1.409 . S
C1515 H1507 0.930 . S
C1515 C1516 1.355 . S
C1515 C1517 1.415 . S
C1516 C1515 1.355 . S
C1516 C1518 1.419 . S
C1517 C1512 1.425 . S
C1517 C1514 1.409 . S
C1517 C1515 1.415 . S
C1518 H1508 0.930 . S
C1518 C1516 1.419 . S
C1518 C1519 1.362 . S
C1519 H1509 0.930 . S
C1519 C1512 1.409 . S
C1519 C1518 1.362 . S
H1520 C1526 0.930 . S
H1521 C1529 0.930 . S
H1522 C1530 0.930 . S
H1523 C1531 0.930 . S
H1524 C1534 0.930 . S
H1525 C1535 0.930 . S
C1526 H1520 0.930 . S
C1526 C1527 1.355 . S
C1526 C1528 1.415 . S
C1527 C1526 1.355 . S
C1527 C1529 1.419 . S
C1528 C1526 1.415 . S
C1528 C1533 1.425 . S
C1528 C1535 1.409 . S
C1529 H1521 0.930 . S
C1529 C1527 1.419 . S
C1529 C1530 1.362 . S
C1530 H1522 0.930 . S
C1530 C1529 1.362 . S
C1530 C1533 1.409 . S
C1531 H1523 0.930 . S
C1531 C1532 1.355 . S
C1531 C1533 1.415 . S
C1532 C1531 1.355 . S
C1532 C1534 1.419 . S
C1533 C1528 1.425 . S
C1533 C1530 1.409 . S
C1533 C1531 1.415 . S
C1534 H1524 0.930 . S
C1534 C1532 1.419 . S
C1534 C1535 1.362 . S
C1535 H1525 0.930 . S
C1535 C1528 1.409 . S
C1535 C1534 1.362 . S
H1536 C1542 0.930 . S
H1537 C1545 0.930 . S
H1538 C1546 0.930 . S
H1539 C1547 0.930 . S
H1540 C1550 0.930 . S
H1541 C1551 0.930 . S
C1542 H1536 0.930 . S
C1542 C1543 1.355 . S
C1542 C1544 1.415 . S
C1543 C1542 1.355 . S
C1543 C1545 1.419 . S
C1544 C1542 1.415 . S
C1544 C1549 1.425 . S
C1544 C1551 1.409 . S
C1545 H1537 0.930 . S
C1545 C1543 1.419 . S
C1545 C1546 1.362 . S
C1546 H1538 0.930 . S
C1546 C1545 1.362 . S
C1546 C1549 1.409 . S
C1547 H1539 0.930 . S
C1547 C1548 1.355 . S
C1547 C1549 1.415 . S
C1548 C1547 1.355 . S
C1548 C1550 1.419 . S
C1549 C1544 1.425 . S
C1549 C1546 1.409 . S
C1549 C1547 1.415 . S
C1550 H1540 0.930 . S
C1550 C1548 1.419 . S
C1550 C1551 1.362 . S
C1551 H1541 0.930 . S
C1551 C1544 1.409 . S
C1551 C1550 1.362 . S
H1552 C1558 0.930 . S
H1553 C1561 0.930 . S
H1554 C1562 0.930 . S
H1555 C1563 0.930 . S
H1556 C1566 0.930 . S
H1557 C1567 0.930 . S
C1558 H1552 0.930 . S
C1558 C1559 1.355 . S
C1558 C1560 1.415 . S
C1559 C1558 1.355 . S
C1559 C1561 1.419 . S
C1560 C1558 1.415 . S
C1560 C1565 1.425 . S
C1560 C1567 1.409 . S
C1561 H1553 0.930 . S
C1561 C1559 1.419 . S
C1561 C1562 1.362 . S
C1562 H1554 0.930 . S
C1562 C1561 1.362 . S
C1562 C1565 1.409 . S
C1563 H1555 0.930 . S
C1563 C1564 1.355 . S
C1563 C1565 1.415 . S
C1564 C1563 1.355 . S
C1564 C1566 1.419 . S
C1565 C1560 1.425 . S
C1565 C1562 1.409 . S
C1565 C1563 1.415 . S
C1566 H1556 0.930 . S
C1566 C1564 1.419 . S
C1566 C1567 1.362 . S
C1567 H1557 0.930 . S
C1567 C1560 1.409 . S
C1567 C1566 1.362 . S
H1568 C1574 0.930 . S
H1569 C1577 0.930 . S
H1570 C1578 0.930 . S
H1571 C1579 0.930 . S
H1572 C1582 0.930 . S
H1573 C1583 0.930 . S
C1574 H1568 0.930 . S
C1574 C1575 1.355 . S
C1574 C1576 1.415 . S
C1575 C1574 1.355 . S
C1575 C1577 1.419 . S
C1576 C1574 1.415 . S
C1576 C1581 1.425 . S
C1576 C1583 1.409 . S
C1577 H1569 0.930 . S
C1577 C1575 1.419 . S
C1577 C1578 1.362 . S
C1578 H1570 0.930 . S
C1578 C1577 1.362 . S
C1578 C1581 1.409 . S
C1579 H1571 0.930 . S
C1579 C1580 1.355 . S
C1579 C1581 1.415 . S
C1580 C1579 1.355 . S
C1580 C1582 1.419 . S
C1581 C1576 1.425 . S
C1581 C1578 1.409 . S
C1581 C1579 1.415 . S
C1582 H1572 0.930 . S
C1582 C1580 1.419 . S
C1582 C1583 1.362 . S
C1583 H1573 0.930 . S
C1583 C1576 1.409 . S
C1583 C1582 1.362 . S
C727 C523 2.432 . S
C732 C3 2.427 . S
C743 C55 1.890 . S
C748 C575 1.887 . S
C759 C83 2.189 . S
C764 C495 2.210 . S
C775 C95 1.724 . S
C780 C295 1.730 . S
C791 C335 2.014 . S
C796 C15 2.011 . S
C807 C43 2.236 . S
C812 C255 2.267 . S
C823 C142 2.178 . S
C828 C402 2.189 . S
C839 C162 1.628 . S
C844 C442 1.626 . S
C855 C362 1.924 . S
C860 C222 1.905 . S
C871 C642 1.905 . S
C876 C202 1.905 . S
C887 C122 2.186 . S
C892 C702 2.175 . S
C903 C622 2.450 . S
C908 C182 2.448 . S
C919 C323 2.059 . S
C924 C535 2.087 . S
C935 C243 2.319 . S
C940 C563 2.332 . S
C951 C283 2.578 . S
C956 C483 2.581 . S
C967 C382 2.692 . S
C972 C662 2.674 . S
C983 C682 2.211 . S
C988 C422 2.208 . S
C999 C602 2.473 . S
C1004 C462 2.451 . S
C1015 C2 1.490 . S
C1020 C175 1.398 . S
C1031 C203 1.841 . S
C1036 C62 1.798 . S
C1047 C123 1.628 . S
C1052 C82 1.536 . S
C1063 C163 1.889 . S
C1068 C102 1.867 . S
C1079 C215 1.628 . S
C1084 C22 1.725 . S
C1095 C135 1.488 . S
C1100 C42 1.616 . S
C1111 C403 1.892 . S
C1116 C262 1.943 . S
C1127 C443 1.986 . S
C1132 C302 1.974 . S
C1143 C363 2.000 . S
C1148 C342 1.895 . S
C1159 C415 1.539 . S
C1164 C322 1.482 . S
C1175 C455 1.464 . S
C1180 C242 1.530 . S
C1191 C375 1.500 . S
C1196 C282 1.439 . S
C1207 C655 1.611 . S
C1212 C482 1.496 . S
C1223 C683 1.917 . S
C1228 C542 1.823 . S
C1239 C562 1.664 . S
C1244 C603 1.683 . S
C1255 C582 2.033 . S
C1260 C643 1.997 . S
C1271 C502 1.820 . S
C1276 C695 1.648 . S
C1287 C615 1.616 . S
C1292 C522 1.525 . S
C1303 C26 1.308 . S
C1308 C9 1.308 1_655 S
C1319 C49 1.437 . S
C1324 C66 1.437 . S
C1335 C106 1.405 . S
C1340 C89 1.405 . S
C1351 C129 1.380 1_655 S
C1356 C146 1.380 . S
C1367 C169 1.335 . S
C1372 C186 1.335 . S
C1383 C226 1.498 . S
C1388 C209 1.498 . S
C1399 C266 1.554 . S
C1404 C249 1.554 . S
C1415 C289 1.259 . S
C1420 C306 1.259 . S
C1431 C346 1.648 . S
C1436 C329 1.648 . S
C1447 C369 1.216 . S
C1452 C386 1.216 . S
C1463 C409 1.566 . S
C1468 C426 1.566 . S
C1479 C449 1.338 . S
C1484 C466 1.338 . S
C1495 C489 1.236 . S
C1500 C506 1.236 . S
C1511 C529 1.411 . S
C1516 C546 1.411 . S
C1527 C586 1.329 . S
C1532 C569 1.329 . S
C1543 C626 1.324 . S
C1548 C609 1.324 . S
C1559 C649 1.256 . S
C1564 C666 1.256 . S
C1575 C689 1.366 . S
C1580 C706 1.366 . S
