# Generated by pormake.
# Topology cab, (5)-cn, num edge types: 1
# Building blocks:
#     Node 0, Type 0, BuildingBlock: XOMCOT_clean_sbu_1, # of connection points: 5
#     Node 1, Type 0, BuildingBlock: XOMCOT_clean_sbu_1, # of connection points: 5
#     Node 2, Type 0, BuildingBlock: XOMCOT_clean_sbu_1, # of connection points: 5
#     Node 3, Type 0, BuildingBlock: XOMCOT_clean_sbu_1, # of connection points: 5
#     Node 4, Type 0, BuildingBlock: XOMCOT_clean_sbu_1, # of connection points: 5
#     Node 5, Type 0, BuildingBlock: XOMCOT_clean_sbu_1, # of connection points: 5
#     Edge 6, Type (0, 0), BuildingBlock: MIFKUJ_clean_linker_0, # of connection points: 2
#     Edge 7, Type (0, 0), BuildingBlock: MIFKUJ_clean_linker_0, # of connection points: 2
#     Edge 8, Type (0, 0), BuildingBlock: MIFKUJ_clean_linker_0, # of connection points: 2
#     Edge 9, Type (0, 0), BuildingBlock: MIFKUJ_clean_linker_0, # of connection points: 2
#     Edge 10, Type (0, 0), BuildingBlock: MIFKUJ_clean_linker_0, # of connection points: 2
#     Edge 11, Type (0, 0), BuildingBlock: MIFKUJ_clean_linker_0, # of connection points: 2
#     Edge 12, Type (0, 0), BuildingBlock: MIFKUJ_clean_linker_0, # of connection points: 2
#     Edge 13, Type (0, 0), BuildingBlock: MIFKUJ_clean_linker_0, # of connection points: 2
#     Edge 14, Type (0, 0), BuildingBlock: MIFKUJ_clean_linker_0, # of connection points: 2
#     Edge 15, Type (0, 0), BuildingBlock: MIFKUJ_clean_linker_0, # of connection points: 2
#     Edge 16, Type (0, 0), BuildingBlock: MIFKUJ_clean_linker_0, # of connection points: 2
#     Edge 17, Type (0, 0), BuildingBlock: MIFKUJ_clean_linker_0, # of connection points: 2
#     Edge 18, Type (0, 0), BuildingBlock: MIFKUJ_clean_linker_0, # of connection points: 2
#     Edge 19, Type (0, 0), BuildingBlock: MIFKUJ_clean_linker_0, # of connection points: 2
#     Edge 20, Type (0, 0), BuildingBlock: MIFKUJ_clean_linker_0, # of connection points: 2
# Relax obj value: 0.855
# Max RMSD: 0.205
# Mean RMSD: 0.203
data_MOF--net-cab--node1-XOMCOT_clean_sbu_1--edge1-MIFKUJ_clean_linker_0
_symmetry_space_group_name_H-M    P1
_symmetry_Int_Tables_number       1
_symmetry_cell_setting            triclinic
loop_
_symmetry_equiv_pos_as_xyz
'x, y, z'
_cell_length_a     44.925988
_cell_length_b     45.211497
_cell_length_c     44.944883
_cell_angle_alpha  80.582652
_cell_angle_beta   70.378988
_cell_angle_gamma 80.633283
loop_
_atom_site_label
_atom_site_type_symbol
_atom_site_fract_x
_atom_site_fract_y
_atom_site_fract_z
_atom_type_partial_charge
C0 C 0.94314 0.99736 0.46731 0.0
C1 C 0.95179 0.96696 0.46486 0.0
N2 N 0.97072 0.96374 0.43487 0.0
N3 N 0.95659 0.01303 0.43899 0.0
C4 C 0.97321 0.99199 0.41973 0.0
H5 H 0.92717 0.00737 0.48802 0.0
Co6 Co 0.94881 0.05396 0.42796 0.0
C7 C 0.01146 0.07246 0.3859 0.0
O8 O 0.00634 0.09707 0.39981 0.0
N9 N 0.93954 0.09569 0.41619 0.0
C10 C 0.91885 0.14395 0.41347 0.0
C11 C 0.92166 0.11791 0.43345 0.0
C12 C 0.94607 0.10871 0.3857 0.0
N13 N 0.93422 0.13804 0.38339 0.0
O14 O 0.93222 0.04623 0.39704 0.0
H15 H 0.90988 0.11564 0.45872 0.0
H16 H 0.95926 0.09671 0.36542 0.0
O17 O 0.99079 0.0537 0.39535 0.0
C18 C 0.90239 0.05009 0.40222 0.0
O19 O 0.88348 0.05593 0.4306 0.0
N20 N 0.96473 0.06118 0.45945 0.0
C21 C 0.98603 0.08045 0.50351 0.0
C22 C 0.00708 0.06373 0.47965 0.0
C23 C 0.99576 0.05365 0.45824 0.0
C24 C 0.94322 0.07263 0.48557 0.0
C25 C 0.95341 0.0834 0.50746 0.0
H26 H 0.01218 0.04043 0.44033 0.0
H27 H 0.91809 0.07426 0.48889 0.0
H28 H 0.98531 0.99719 0.39457 0.0
H29 H 0.94415 0.94867 0.48341 0.0
H30 H 0.90563 0.16529 0.42052 0.0
H31 H 0.03217 0.05893 0.47716 0.0
H32 H 0.93601 0.09491 0.5264 0.0
C33 C 0.12646 0.05753 0.7577 0.0
C34 C 0.09606 0.05584 0.77851 0.0
N35 N 0.09622 0.0589 0.80779 0.0
N36 N 0.14555 0.06184 0.77383 0.0
C37 C 0.12652 0.0623 0.80426 0.0
H38 H 0.13417 0.05562 0.7325 0.0
Co39 Co 0.18893 0.06468 0.75847 0.0
C40 C 0.19708 0.11475 0.78937 0.0
O41 O 0.21851 0.12463 0.76304 0.0
N42 N 0.23307 0.06657 0.74354 0.0
C43 C 0.2842 0.07131 0.71708 0.0
C44 C 0.25461 0.07093 0.71422 0.0
C45 C 0.25039 0.06344 0.76348 0.0
N46 N 0.28116 0.06701 0.74821 0.0
O47 O 0.19479 0.03118 0.78825 0.0
H48 H 0.24953 0.0742 0.69203 0.0
H49 H 0.24028 0.05951 0.7891 0.0
O50 O 0.18383 0.09156 0.79012 0.0
C51 C 0.19367 0.0049 0.78239 0.0
O52 O 0.19081 0.0017 0.75497 0.0
N53 N 0.18167 0.09688 0.72859 0.0
C54 C 0.15698 0.13455 0.68467 0.0
C55 C 0.15186 0.14309 0.71472 0.0
C56 C 0.1636 0.12357 0.73664 0.0
C57 C 0.18793 0.08882 0.69901 0.0
C58 C 0.1762 0.10745 0.67653 0.0
H59 H 0.15524 0.1289 0.76077 0.0
H60 H 0.1996 0.06651 0.69379 0.0
H61 H 0.13498 0.06418 0.82365 0.0
H62 H 0.07543 0.05287 0.77251 0.0
H63 H 0.30589 0.07556 0.69791 0.0
H64 H 0.1366 0.16347 0.72222 0.0
H65 H 0.17964 0.09924 0.65415 0.0
C66 C 0.37463 0.01369 0.14492 0.0
C67 C 0.34847 0.01404 0.17186 0.0
N68 N 0.32244 0.0132 0.16357 0.0
N69 N 0.36526 0.01229 0.11974 0.0
C70 C 0.33341 0.01203 0.1318 0.0
H71 H 0.39865 0.01584 0.14362 0.0
Co72 Co 0.38985 0.01661 0.07727 0.0
C73 C 0.37006 0.97225 0.04761 0.0
O74 O 0.39931 0.96544 0.02919 0.0
N75 N 0.41447 0.02222 0.03396 0.0
C76 C 0.4525 0.02859 0.98719 0.0
C77 C 0.44624 0.02148 0.01951 0.0
C78 C 0.40207 0.03064 0.00989 0.0
N79 N 0.42458 0.03444 0.98127 0.0
O80 O 0.36117 0.05059 0.07026 0.0
H81 H 0.46403 0.01691 0.03131 0.0
H82 H 0.37679 0.03347 0.01335 0.0
O83 O 0.3642 0.99117 0.06764 0.0
C84 C 0.36881 0.07703 0.06716 0.0
O85 O 0.39717 0.08038 0.06759 0.0
N86 N 0.41852 0.98379 0.08563 0.0
C87 C 0.46746 0.94161 0.09604 0.0
C88 C 0.4399 0.93206 0.09466 0.0
C89 C 0.41504 0.95368 0.09054 0.0
C90 C 0.44404 0.99321 0.08958 0.0
C91 C 0.46896 0.97257 0.09441 0.0
H92 H 0.39329 0.94596 0.0914 0.0
H93 H 0.44544 0.01712 0.08788 0.0
H94 H 0.31849 0.01211 0.11724 0.0
H95 H 0.34854 0.01646 0.19539 0.0
H96 H 0.47574 0.03006 0.96956 0.0
H97 H 0.43765 0.90826 0.09674 0.0
H98 H 0.48983 0.98088 0.0955 0.0
C99 C 0.11227 0.38082 0.06014 0.0
C100 C 0.13959 0.36325 0.06269 0.0
N101 N 0.13802 0.33485 0.05826 0.0
N102 N 0.09387 0.36357 0.05372 0.0
C103 C 0.11001 0.33567 0.0531 0.0
H104 H 0.10629 0.40463 0.0626 0.0
Co105 Co 0.05501 0.37557 0.04698 0.0
C106 C 0.05752 0.34401 0.99332 0.0
O107 O 0.04361 0.36827 0.98068 0.0
N108 N 0.01495 0.38726 0.04102 0.0
C109 C 0.97064 0.40907 0.03083 0.0
C110 C -0.00033 0.41384 0.03221 0.0
C111 C 0.99438 0.36705 0.04536 0.0
N112 N 0.96751 0.37946 0.03895 0.0
O113 O 0.03648 0.347 0.08169 0.0
H114 H 0.00868 0.43543 0.02661 0.0
H115 H -0.00058 0.34332 0.05273 0.0
O116 O 0.0638 0.34465 0.01888 0.0
C117 C 0.02487 0.35414 0.10983 0.0
O118 O 0.02578 0.38176 0.11484 0.0
N119 N 0.07443 0.40408 0.01372 0.0
C120 C 0.11006 0.44888 0.97432 0.0
C121 C 0.11644 0.41924 0.96656 0.0
C122 C 0.09866 0.39702 0.98687 0.0
C123 C 0.06834 0.43269 0.02177 0.0
C124 C 0.08536 0.45553 0.00216 0.0
H125 H 0.10617 0.37392 0.98203 0.0
H126 H 0.0513 0.4374 0.04453 0.0
H127 H 0.10156 0.31636 0.04849 0.0
H128 H 0.15892 0.3707 0.06772 0.0
H129 H 0.95361 0.42603 0.02368 0.0
H130 H 0.13605 0.41297 0.94592 0.0
H131 H 0.08071 0.47773 0.01002 0.0
C132 C 0.71609 0.14555 0.09295 0.0
C133 C 0.71951 0.17471 0.07864 0.0
N134 N 0.7508 0.17774 0.06725 0.0
N135 N 0.74512 0.13057 0.09072 0.0
C136 C 0.76576 0.15063 0.07472 0.0
H137 H 0.6939 0.13668 0.10656 0.0
Co138 Co 0.75341 0.09496 0.11449 0.0
C139 C 0.8075 0.06161 0.06854 0.0
O140 O 0.79373 0.03666 0.07753 0.0
N141 N 0.76157 0.0595 0.14047 0.0
C142 C 0.75728 0.02304 0.1811 0.0
C143 C 0.7409 0.04554 0.1662 0.0
C144 C 0.79045 0.04615 0.14164 0.0
N145 N 0.78852 0.02342 0.16545 0.0
O146 O 0.77585 0.11451 0.13267 0.0
H147 H 0.71564 0.05206 0.17506 0.0
H148 H 0.81269 0.05385 0.12625 0.0
O149 O 0.7937 0.08571 0.08107 0.0
C150 C 0.76265 0.12566 0.15873 0.0
O151 O 0.73156 0.12722 0.17141 0.0
N152 N 0.73058 0.07553 0.09657 0.0
C153 C 0.69982 0.03815 0.07622 0.0
C154 C 0.72511 0.05266 0.05445 0.0
C155 C 0.73956 0.07214 0.06499 0.0
C156 C 0.70299 0.06562 0.11666 0.0
C157 C 0.6877 0.04612 0.10733 0.0
H158 H 0.75878 0.08347 0.04794 0.0
H159 H 0.69308 0.07239 0.14024 0.0
H160 H 0.79093 0.14655 0.07194 0.0
H161 H 0.70052 0.19288 0.07882 0.0
H162 H 0.74692 0.00773 0.2019 0.0
H163 H 0.73395 0.04863 0.02971 0.0
H164 H 0.66738 0.03654 0.12475 0.0
C165 C 0.06378 0.75031 0.08403 0.0
C166 C 0.07034 0.76543 0.05374 0.0
N167 N 0.09289 0.7835 0.0495 0.0
N168 N 0.08214 0.75879 0.09869 0.0
C169 C 0.09958 0.77898 0.07711 0.0
H170 H 0.04671 0.7342 0.09476 0.0
Co171 Co 0.08217 0.74454 0.13967 0.0
C172 C 0.13906 0.76617 0.14462 0.0
O173 O 0.14717 0.74012 0.15941 0.0
N174 N 0.08104 0.73052 0.18164 0.0
C175 C 0.07011 0.70683 0.23099 0.0
C176 C 0.07484 0.70379 0.19959 0.0
C177 C 0.07987 0.74922 0.20266 0.0
N178 N 0.07353 0.73547 0.23261 0.0
O179 O 0.05096 0.77688 0.15473 0.0
H180 H 0.07189 0.68382 0.19111 0.0
H181 H 0.08137 0.77322 0.19644 0.0
O182 O 0.1145 0.76984 0.13564 0.0
C183 C 0.02177 0.7728 0.16593 0.0
O184 O 0.01376 0.74569 0.16787 0.0
N185 N 0.112 0.71235 0.12323 0.0
C186 C 0.14423 0.66763 0.08429 0.0
C187 C 0.15869 0.69306 0.08319 0.0
C188 C 0.14185 0.71558 0.10227 0.0
C189 C 0.09821 0.68705 0.1254 0.0
C190 C 0.11401 0.66426 0.10634 0.0
H191 H 0.15177 0.73664 0.09737 0.0
H192 H 0.0736 0.68589 0.13963 0.0
H193 H 0.11729 0.78985 0.08128 0.0
H194 H 0.05898 0.7636 0.03648 0.0
H195 H 0.06341 0.68974 0.25115 0.0
H196 H 0.18149 0.69688 0.06556 0.0
H197 H 0.10184 0.64516 0.10724 0.0
H198 H 0.01584 0.29631 0.1071 0.0
H199 H 0.99637 0.25785 0.15179 0.0
H200 H 0.9842 0.32179 0.21761 0.0
H201 H 0.0037 0.36029 0.1732 0.0
H202 H 0.01837 0.2682 0.23083 0.0
H203 H 0.92112 0.30114 0.2043 0.0
H204 H 0.88742 0.31039 0.16951 0.0
H205 H 0.9039 0.21643 0.15658 0.0
H206 H 0.93811 0.20666 0.19091 0.0
H207 H 0.93512 0.19832 0.37794 0.0
H208 H 0.94654 0.2331 0.32902 0.0
H209 H 0.95485 0.16006 0.2748 0.0
H210 H 0.94252 0.12511 0.32397 0.0
H211 H 0.92442 0.21384 0.25255 0.0
H212 H 0.01936 0.17913 0.27803 0.0
H213 H 0.05365 0.16702 0.3122 0.0
H214 H 0.04448 0.26072 0.32418 0.0
H215 H 0.00947 0.27334 0.29066 0.0
C216 C 0.00881 0.30225 0.1311 0.0
C217 C 0.01148 0.33132 0.13664 0.0
C218 C 0.99752 0.28028 0.15657 0.0
C219 C 0.98872 0.28703 0.18797 0.0
C220 C 0.99087 0.31615 0.19352 0.0
C221 C 0.002 0.33813 0.16812 0.0
C222 C 0.97919 0.26339 0.21521 0.0
C223 C 0.99759 0.2566 0.23578 0.0
C224 C 0.95294 0.24726 0.22076 0.0
C225 C 0.93258 0.25325 0.19984 0.0
C226 C 0.9179 0.2825 0.19373 0.0
C227 C 0.89862 0.28783 0.17415 0.0
C228 C 0.89365 0.26404 0.16071 0.0
C229 C 0.90791 0.23486 0.16686 0.0
C230 C 0.9272 0.22942 0.18642 0.0
C231 C 0.93874 0.18971 0.35574 0.0
C232 C 0.9383 0.15889 0.35482 0.0
C233 C 0.94545 0.20959 0.32777 0.0
C234 C 0.952 0.19903 0.2983 0.0
C235 C 0.95003 0.16858 0.29733 0.0
C236 C 0.94335 0.14861 0.32538 0.0
C237 C 0.96301 0.21955 0.26858 0.0
C238 C 0.94519 0.22547 0.24747 0.0
C239 C 0.99016 0.23457 0.26209 0.0
C240 C 0.01151 0.22715 0.28203 0.0
C241 C 0.02437 0.19714 0.2882 0.0
C242 C 0.04397 0.19018 0.30744 0.0
C243 C 0.05121 0.21308 0.32039 0.0
C244 C 0.03884 0.243 0.31413 0.0
C245 C 0.01911 0.25007 0.29501 0.0
H246 H 0.06643 0.20766 0.33523 0.0
H247 H 0.87864 0.26818 0.14566 0.0
H248 H 0.74316 0.14337 0.21831 0.0
H249 H 0.7746 0.13639 0.25442 0.0
H250 H 0.85849 0.10756 0.17923 0.0
H251 H 0.82727 0.11422 0.14304 0.0
H252 H 0.84717 0.06568 0.22929 0.0
H253 H 0.85798 0.16964 0.212 0.0
H254 H 0.84256 0.22459 0.20593 0.0
H255 H 0.77988 0.21916 0.30223 0.0
H256 H 0.79471 0.16408 0.30892 0.0
H257 H 0.93587 0.04308 0.34016 0.0
H258 H 0.91744 0.05939 0.29408 0.0
H259 H 0.82338 0.08573 0.35625 0.0
H260 H 0.84154 0.0696 0.4025 0.0
H261 H 0.84818 0.13102 0.30739 0.0
H262 H 0.83791 0.02348 0.32037 0.0
H263 H 0.85855 0.96946 0.32388 0.0
H264 H 0.92684 0.98358 0.23092 0.0
H265 H 0.90686 0.0377 0.227 0.0
C266 C 0.76847 0.13636 0.2092 0.0
C267 C 0.78259 0.12888 0.17799 0.0
C268 C 0.78646 0.13251 0.22983 0.0
C269 C 0.81883 0.12124 0.21952 0.0
C270 C 0.83351 0.1161 0.18767 0.0
C271 C 0.81558 0.11999 0.16703 0.0
C272 C 0.83585 0.11077 0.24303 0.0
C273 C 0.84802 0.08015 0.24595 0.0
C274 C 0.83671 0.12956 0.26484 0.0
C275 C 0.82728 0.16264 0.26088 0.0
C276 C 0.8407 0.18009 0.23183 0.0
C277 C 0.83217 0.21129 0.22831 0.0
C278 C 0.81022 0.22535 0.25363 0.0
C279 C 0.79686 0.20823 0.28261 0.0
C280 C 0.80538 0.17702 0.28632 0.0
C281 C 0.9111 0.05184 0.34409 0.0
C282 C 0.89014 0.05513 0.37498 0.0
C283 C 0.90068 0.06119 0.31772 0.0
C284 C 0.86913 0.07384 0.32187 0.0
C285 C 0.84788 0.07614 0.35267 0.0
C286 C 0.85824 0.0667 0.37905 0.0
C287 C 0.85845 0.08587 0.29412 0.0
C288 C 0.8476 0.11675 0.29043 0.0
C289 C 0.8594 0.06743 0.27122 0.0
C290 C 0.87113 0.03474 0.27355 0.0
C291 C 0.8575 0.01511 0.30078 0.0
C292 C 0.86904 0.98443 0.30282 0.0
C293 C 0.89406 0.97307 0.27768 0.0
C294 C 0.9075 0.99235 0.2504 0.0
C295 C 0.89605 0.02303 0.24825 0.0
H296 H 0.90299 0.94932 0.2793 0.0
H297 H 0.80362 0.2495 0.2508 0.0
H298 H 0.02611 0.95282 0.38816 0.0
H299 H 0.04452 0.90758 0.36051 0.0
H300 H 0.96085 0.86731 0.42125 0.0
H301 H 0.94237 0.91253 0.44898 0.0
H302 H 0.05753 0.84663 0.3813 0.0
H303 H 0.93646 0.83181 0.36744 0.0
H304 H 0.88698 0.86242 0.36328 0.0
H305 H 0.93543 0.94179 0.33219 0.0
H306 H 0.98526 0.91165 0.3356 0.0
H307 H 0.02611 0.72715 0.28836 0.0
H308 H 0.00929 0.75934 0.33157 0.0
H309 H 0.08814 0.81074 0.28168 0.0
H310 H 0.10488 0.77867 0.23873 0.0
H311 H 0.9915 0.82097 0.32224 0.0
H312 H 0.11134 0.83815 0.33546 0.0
H313 H 0.1631 0.80876 0.33364 0.0
H314 H 0.11922 0.72667 0.36064 0.0
H315 H 0.06712 0.75557 0.36307 0.0
C316 C 0.0118 0.9342 0.39571 0.0
C317 C 0.98278 0.93618 0.42059 0.0
C318 C 0.02241 0.90836 0.38009 0.0
C319 C 0.00392 0.88426 0.38874 0.0
C320 C 0.97536 0.88577 0.41417 0.0
C321 C 0.96494 0.91149 0.43008 0.0
C322 C 0.01381 0.85828 0.37001 0.0
C323 C 0.04317 0.84104 0.36829 0.0
C324 C 0.99471 0.8508 0.35352 0.0
C325 C 0.96453 0.86947 0.35241 0.0
C326 C 0.93653 0.85581 0.35986 0.0
C327 C 0.90843 0.87309 0.35753 0.0
C328 C 0.90802 0.90406 0.34766 0.0
C329 C 0.9357 0.91784 0.34012 0.0
C330 C 0.96386 0.90068 0.34241 0.0
C331 C 0.04028 0.74478 0.28718 0.0
C332 C 0.06675 0.75053 0.26032 0.0
C333 C 0.03056 0.76325 0.31167 0.0
C334 C 0.04755 0.78732 0.30985 0.0
C335 C 0.0749 0.79208 0.28375 0.0
C336 C 0.08437 0.77388 0.25921 0.0
C337 C 0.03525 0.80939 0.33339 0.0
C338 C 0.00551 0.82611 0.33583 0.0
C339 C 0.05415 0.81664 0.35018 0.0
C340 C 0.08534 0.79906 0.34922 0.0
C341 C 0.11269 0.81385 0.34118 0.0
C342 C 0.14211 0.79726 0.34 0.0
C343 C 0.14446 0.76586 0.34695 0.0
C344 C 0.11738 0.75098 0.35516 0.0
C345 C 0.08791 0.76746 0.35639 0.0
H346 H 0.16726 0.75307 0.34601 0.0
H347 H 0.88628 0.91735 0.34574 0.0
H348 H 0.30055 0.00031 0.2278 0.0
H349 H 0.24588 0.00841 0.26246 0.0
H350 H 0.21461 0.03944 0.18061 0.0
H351 H 0.26953 0.03318 0.14585 0.0
H352 H 0.18692 0.07543 0.22251 0.0
H353 H 0.19543 0.96745 0.22798 0.0
H354 H 0.22078 0.91508 0.23434 0.0
H355 H 0.21846 0.9262 0.32821 0.0
H356 H 0.19342 0.97869 0.32208 0.0
H357 H 0.02884 0.02555 0.34969 0.0
H358 H 0.07936 0.01435 0.30825 0.0
H359 H 0.11346 0.09263 0.32361 0.0
H360 H 0.0628 0.10439 0.36443 0.0
H361 H 0.1368 -0.00014 0.31099 0.0
H362 H 0.16627 0.12144 0.25549 0.0
H363 H 0.1385 0.17158 0.24416 0.0
H364 H 0.05897 0.13032 0.24405 0.0
H365 H 0.08645 0.07989 0.25486 0.0
C366 C 0.28216 0.00903 0.21708 0.0
C367 C 0.28971 0.01617 0.18391 0.0
C368 C 0.25071 0.0132 0.23698 0.0
C369 C 0.22591 0.02412 0.22421 0.0
C370 C 0.23326 0.03092 0.19109 0.0
C371 C 0.26479 0.02708 0.17116 0.0
C372 C 0.19265 0.03014 0.24555 0.0
C373 C 0.17591 0.05884 0.24175 0.0
C374 C 0.17795 0.00844 0.27043 0.0
C375 C 0.19308 0.97703 0.2743 0.0
C376 C 0.20075 0.95876 0.24974 0.0
C377 C 0.21492 0.92906 0.25337 0.0
C378 C 0.22139 0.91737 0.2816 0.0
C379 C 0.21353 0.93531 0.30631 0.0
C380 C 0.1993 0.96501 0.30278 0.0
C381 C 0.04702 0.04049 0.34412 0.0
C382 C 0.04177 0.06587 0.36038 0.0
C383 C 0.07592 0.03402 0.32045 0.0
C384 C 0.10014 0.05279 0.31256 0.0
C385 C 0.09495 0.07812 0.32881 0.0
C386 C 0.06599 0.08472 0.35231 0.0
C387 C 0.13124 0.04528 0.28818 0.0
C388 C 0.14767 0.01639 0.29158 0.0
C389 C 0.14528 0.0666 0.26248 0.0
C390 C 0.12838 0.09686 0.25622 0.0
C391 C 0.14291 0.12304 0.25294 0.0
C392 C 0.12722 0.15151 0.24659 0.0
C393 C 0.09704 0.15411 0.24331 0.0
C394 C 0.08237 0.12826 0.24657 0.0
C395 C 0.09798 0.09972 0.25287 0.0
H396 H 0.08503 0.17617 0.23822 0.0
H397 H 0.23238 0.89438 0.28438 0.0
H398 H 0.09681 0.78011 0.98848 0.0
H399 H 0.11866 0.81572 0.94188 0.0
H400 H 0.14307 0.86814 0.00056 0.0
H401 H 0.12021 0.83349 0.04731 0.0
H402 H 0.11296 0.90311 0.96288 0.0
H403 H 0.2001 0.82289 0.94956 0.0
H404 H 0.22485 0.77027 0.94446 0.0
H405 H 0.19754 0.77076 0.86161 0.0
H406 H 0.17215 0.82319 0.86644 0.0
H407 H 0.20015 0.00346 0.84095 0.0
H408 H 0.18803 0.96336 0.88533 0.0
H409 H 0.16663 0.90894 0.82636 0.0
H410 H 0.17942 0.94861 0.78165 0.0
H411 H 0.19641 0.87435 0.86398 0.0
H412 H 0.10711 0.95086 0.87745 0.0
H413 H 0.0786 0.00216 0.88203 0.0
H414 H 0.10614 0.00757 0.96349 0.0
H415 H 0.13508 0.95633 0.95924 0.0
C416 C 0.10665 0.79928 0.99152 0.0
C417 C 0.10666 0.80388 0.02173 0.0
C418 C 0.11949 0.81943 0.96479 0.0
C419 C 0.13279 0.8444 0.96772 0.0
C420 C 0.13301 0.84895 0.99776 0.0
C421 C 0.12012 0.82892 0.02447 0.0
C422 C 0.14503 0.86671 0.93984 0.0
C423 C 0.13161 0.89691 0.94146 0.0
C424 C 0.16855 0.85838 0.91152 0.0
C425 C 0.18399 0.8269 0.90853 0.0
C426 C 0.19915 0.81171 0.9304 0.0
C427 C 0.21333 0.78195 0.92754 0.0
C428 C 0.21276 0.76722 0.90277 0.0
C429 C 0.19798 0.78221 0.88079 0.0
C430 C 0.18371 0.81195 0.88356 0.0
C431 C 0.1933 0.98278 0.83729 0.0
C432 C 0.19042 0.97932 0.80789 0.0
C433 C 0.18624 0.95994 0.86271 0.0
C434 C 0.17579 0.93343 0.85932 0.0
C435 C 0.17452 0.92927 0.82953 0.0
C436 C 0.1818 0.952 0.80402 0.0
C437 C 0.16456 0.91078 0.8872 0.0
C438 C 0.17799 0.88056 0.88553 0.0
C439 C 0.14067 0.91895 0.91539 0.0
C440 C 0.12355 0.94989 0.91782 0.0
C441 C 0.10732 0.96309 0.89617 0.0
C442 C 0.09103 0.99215 0.89874 0.0
C443 C 0.09065 0.00817 0.92296 0.0
C444 C 0.10651 0.99515 0.94471 0.0
C445 C 0.12282 0.96609 0.94226 0.0
H446 H 0.07799 0.03063 0.92499 0.0
H447 H 0.22385 0.74423 0.90056 0.0
H448 H 0.46383 0.019 0.92401 0.0
H449 H 0.45301 0.03046 0.8731 0.0
H450 H 0.36246 0.07913 0.91937 0.0
H451 H 0.37353 0.06863 0.96973 0.0
H452 H 0.40553 0.01265 0.85927 0.0
H453 H 0.34019 0.13456 0.87106 0.0
H454 H 0.34443 0.18083 0.891 0.0
H455 H 0.44397 0.15355 0.87625 0.0
H456 H 0.44047 0.1073 0.85578 0.0
H457 H 0.27062 0.0915 0.80195 0.0
H458 H 0.30826 0.09079 0.83041 0.0
H459 H 0.38253 0.0474 0.75623 0.0
H460 H 0.34426 0.04757 0.72773 0.0
H461 H 0.3636 0.11347 0.81762 0.0
H462 H 0.42813 0.99582 0.79488 0.0
H463 H 0.42079 0.94878 0.77829 0.0
H464 H 0.31951 0.96735 0.81952 0.0
H465 H 0.32632 0.01425 0.83664 0.0
C466 C 0.44194 0.03267 0.92311 0.0
C467 C 0.41944 0.04277 0.95091 0.0
C468 C 0.43574 0.03907 0.89409 0.0
C469 C 0.40712 0.05595 0.89235 0.0
C470 C 0.38498 0.06656 0.91997 0.0
C471 C 0.39113 0.06016 0.94888 0.0
C472 C 0.39875 0.06046 0.8626 0.0
C473 C 0.39727 0.0348 0.84951 0.0
C474 C 0.38758 0.08931 0.85014 0.0
C475 C 0.39003 0.11736 0.86196 0.0
C476 C 0.36306 0.13851 0.87183 0.0
C477 C 0.36531 0.16472 0.8833 0.0
C478 C 0.39445 0.17011 0.88493 0.0
C479 C 0.4214 0.14932 0.87504 0.0
C480 C 0.41929 0.12307 0.86354 0.0
C481 C 0.29496 0.08179 0.79169 0.0
C482 C 0.30445 0.06901 0.763 0.0
C483 C 0.31655 0.08174 0.80776 0.0
C484 C 0.34811 0.06883 0.79557 0.0
C485 C 0.35817 0.05727 0.76613 0.0
C486 C 0.33644 0.05744 0.74987 0.0
C487 C 0.36915 0.06561 0.81543 0.0
C488 C 0.373 0.09148 0.82662 0.0
C489 C 0.38214 0.03696 0.82644 0.0
C490 C 0.37775 0.00869 0.8166 0.0
C491 C 0.40433 0.9898 0.80041 0.0
C492 C 0.40026 0.96318 0.79094 0.0
C493 C 0.3697 0.95515 0.79773 0.0
C494 C 0.34316 0.97365 0.81415 0.0
C495 C 0.34711 0.00026 0.82372 0.0
H496 H 0.3666 0.93455 0.79034 0.0
H497 H 0.39614 0.1904 0.89384 0.0
H498 H 0.21579 0.16799 0.79353 0.0
H499 H 0.1907 0.20157 0.83456 0.0
H500 H 0.12464 0.13738 0.88664 0.0
H501 H 0.14938 0.10376 0.84543 0.0
H502 H 0.09369 0.19149 0.88161 0.0
H503 H 0.1823 0.14988 0.91508 0.0
H504 H 0.23812 0.13317 0.91223 0.0
H505 H 0.26057 0.22433 0.8826 0.0
H506 H 0.20499 0.24154 0.88474 0.0
H507 H 0.0851 0.28964 0.01375 0.0
H508 H 0.10593 0.2456 0.98489 0.0
H509 H 0.07565 0.29254 0.90643 0.0
H510 H 0.05438 0.33665 0.93531 0.0
H511 H 0.15245 0.2421 0.93061 0.0
H512 H 0.05894 0.24111 0.86802 0.0
H513 H 0.00128 0.25488 0.87808 0.0
H514 H 0.98536 0.2402 0.97878 0.0
H515 H 0.04286 0.22595 0.96935 0.0
C516 C 0.1962 0.16079 0.81389 0.0
C517 C 0.18443 0.1333 0.81606 0.0
C518 C 0.18195 0.17998 0.83742 0.0
C519 C 0.15587 0.17192 0.86372 0.0
C520 C 0.14469 0.14406 0.86648 0.0
C521 C 0.15892 0.12485 0.84293 0.0
C522 C 0.13918 0.19353 0.88713 0.0
C523 C 0.10646 0.20226 0.89271 0.0
C524 C 0.15574 0.20725 0.90194 0.0
C525 C 0.18949 0.19695 0.89969 0.0
C526 C 0.19921 0.16632 0.90755 0.0
C527 C 0.23081 0.15677 0.90616 0.0
C528 C 0.25291 0.17766 0.89714 0.0
C529 C 0.24344 0.20816 0.88951 0.0
C530 C 0.21189 0.21782 0.89081 0.0
C531 C 0.08266 0.29057 0.99045 0.0
C532 C 0.0683 0.31673 0.97671 0.0
C533 C 0.09456 0.26536 0.97401 0.0
C534 C 0.09218 0.26576 0.94362 0.0
C535 C 0.0773 0.29161 0.93007 0.0
C536 C 0.06532 0.31685 0.94654 0.0
C537 C 0.1071 0.23986 0.92531 0.0
C538 C 0.13959 0.23073 0.92019 0.0
C539 C 0.09006 0.22502 0.912 0.0
C540 C 0.0553 0.23277 0.91794 0.0
C541 C 0.04313 0.24068 0.89231 0.0
C542 C 0.01047 0.24865 0.8979 0.0
C543 C 0.98969 0.24859 0.92904 0.0
C544 C 0.0015 0.24039 0.95466 0.0
C545 C 0.03414 0.23241 0.94921 0.0
H546 H 0.96442 0.25476 0.93332 0.0
H547 H 0.27735 0.17023 0.89613 0.0
H548 H 0.83376 0.02451 0.02225 0.0
H549 H 0.88613 0.02428 0.98202 0.0
H550 H 0.90594 0.09726 0.02106 0.0
H551 H 0.85264 0.09866 0.06026 0.0
H552 H 0.92729 0.10803 0.96189 0.0
H553 H 0.93995 0.02109 0.03194 0.0
H554 H 0.92773 0.97309 0.06587 0.0
H555 H 0.93851 0.93035 0.98372 0.0
H556 H 0.95018 0.97823 0.94932 0.0
H557 H 0.08838 0.087 0.85924 0.0
H558 H 0.04316 0.08675 0.90828 0.0
H559 H -0.0014 0.03024 0.87125 0.0
H560 H 0.04403 0.02989 0.82239 0.0
H561 H 0.99526 0.01183 0.93499 0.0
H562 H 0.97636 0.10689 0.86811 0.0
H563 H 0.99319 0.15551 0.83826 0.0
H564 H 0.0013 0.18239 0.92229 0.0
H565 H 0.98452 0.134 0.95255 0.0
C566 C 0.84932 0.04047 0.02225 0.0
C567 C 0.83923 0.06154 0.04436 0.0
C568 C 0.8794 0.04017 -0.00059 0.0
C569 C 0.90045 0.06026 0.99887 0.0
C570 C 0.89027 0.08145 0.02097 0.0
C571 C 0.85983 0.08223 0.04337 0.0
C572 C 0.93254 0.05974 0.9745 0.0
C573 C 0.9423 0.08697 0.9565 0.0
C574 C 0.95256 0.03239 0.96747 0.0
C575 C 0.94575 0.00338 0.98803 0.0
C576 C 0.9395 0.00153 0.0211 0.0
C577 C 0.93268 0.97433 0.04043 0.0
C578 C 0.93233 0.94871 0.02695 0.0
C579 C 0.93879 0.95023 0.99412 0.0
C580 C 0.94554 0.97739 0.97468 0.0
C581 C 0.06912 0.07427 0.86164 0.0
C582 C 0.06973 0.05856 0.83683 0.0
C583 C 0.0432 0.07432 0.8896 0.0
C584 C 0.01745 0.05866 0.89327 0.0
C585 C 0.01826 0.04249 0.86885 0.0
C586 C 0.04406 0.04256 0.84082 0.0
C587 C 0.98902 0.05984 0.92201 0.0
C588 C 0.98015 0.03276 0.94084 0.0
C589 C 0.9704 0.08737 0.93055 0.0
C590 C 0.97936 0.11683 0.91251 0.0
C591 C 0.98173 0.12321 0.88017 0.0
C592 C 0.99123 0.15074 0.8632 0.0
C593 C -0.0017 0.17206 0.87836 0.0
C594 C 0.99572 0.16596 0.91057 0.0
C595 C 0.98614 0.13853 0.92766 0.0
H596 H 0.00578 0.19329 0.86515 0.0
H597 H 0.92713 0.92765 0.04193 0.0
H598 H 0.38048 0.13569 0.04805 0.0
H599 H 0.34179 0.1798 0.04457 0.0
H600 H 0.26626 0.12258 0.07693 0.0
H601 H 0.30495 0.07831 0.07946 0.0
H602 H 0.25788 0.16245 0.03084 0.0
H603 H 0.28021 0.16613 0.12705 0.0
H604 H 0.3141 0.16661 0.16019 0.0
H605 H 0.34853 0.24819 0.105 0.0
H606 H 0.31514 0.24798 0.07124 0.0
H607 H 0.1275 0.27629 0.07562 0.0
H608 H 0.16742 0.23249 0.07491 0.0
H609 H 0.24178 0.29103 0.03969 0.0
H610 H 0.20182 0.33497 0.04075 0.0
H611 H 0.25143 0.25081 0.08611 0.0
H612 H 0.22523 0.24612 0.99075 0.0
H613 H 0.19007 0.24311 0.95967 0.0
H614 H 0.16003 0.16099 0.0172 0.0
H615 H 0.19475 0.16367 0.04884 0.0
C616 C 0.35563 0.13253 0.05435 0.0
C617 C 0.3457 0.1036 0.06414 0.0
C618 C 0.33353 0.15776 0.05249 0.0
C619 C 0.30104 0.15456 0.06102 0.0
C620 C 0.29119 0.12559 0.07028 0.0
C621 C 0.31332 0.10032 0.07174 0.0
C622 C 0.27726 0.18136 0.06034 0.0
C623 C 0.25622 0.18164 0.04323 0.0
C624 C 0.27544 0.20659 0.07607 0.0
C625 C 0.29542 0.20687 0.09643 0.0
C626 C 0.29518 0.18405 0.12184 0.0
C627 C 0.31427 0.18429 0.14076 0.0
C628 C 0.33352 0.20737 0.13465 0.0
C629 C 0.33364 0.23031 0.10967 0.0
C630 C 0.31462 0.23016 0.09066 0.0
C631 C 0.15236 0.2798 0.06747 0.0
C632 C 0.16154 0.30907 0.05817 0.0
C633 C 0.17518 0.25474 0.06699 0.0
C634 C 0.20765 0.25842 0.05673 0.0
C635 C 0.21686 0.28765 0.04763 0.0
C636 C 0.19402 0.31274 0.04837 0.0
C637 C 0.23199 0.23193 0.05658 0.0
C638 C 0.25315 0.23169 0.07359 0.0
C639 C 0.23357 0.20653 0.04116 0.0
C640 C 0.21237 0.20527 0.02235 0.0
C641 C 0.21091 0.22758 0.99695 0.0
C642 C 0.1911 0.22588 0.97918 0.0
C643 C 0.17275 0.2019 0.98654 0.0
C644 C 0.17422 0.17956 0.01158 0.0
C645 C 0.19397 0.18114 0.0294 0.0
H646 H 0.15738 0.2005 0.97291 0.0
H647 H 0.34828 0.20752 0.14932 0.0
H648 H 0.30656 0.99027 0.06437 0.0
H649 H 0.26406 0.9589 0.07387 0.0
H650 H 0.33411 0.88248 0.04598 0.0
H651 H 0.37666 0.91428 0.0347 0.0
H652 H 0.28463 0.87852 0.02903 0.0
H653 H 0.29883 0.89259 0.12791 0.0
H654 H 0.3039 0.92311 0.16642 0.0
H655 H 0.2127 0.97283 0.17136 0.0
H656 H 0.2068 0.9421 0.13354 0.0
H657 H 0.20291 0.75923 0.13486 0.0
H658 H 0.23922 0.79811 0.11286 0.0
H659 H 0.16015 0.86509 0.10865 0.0
H660 H 0.12373 0.82622 0.12981 0.0
H661 H 0.21011 0.87637 0.13954 0.0
H662 H 0.19513 0.85108 0.04512 0.0
H663 H 0.19337 0.81446 0.01084 0.0
H664 H 0.29134 0.78134 0.99885 0.0
H665 H 0.29352 0.81732 0.03364 0.0
C666 C 0.31281 0.96691 0.05971 0.0
C667 C 0.34478 0.95452 0.04919 0.0
C668 C 0.28857 0.94898 0.06526 0.0
C669 C 0.29591 0.91812 0.06152 0.0
C670 C 0.32787 0.90619 0.04916 0.0
C671 C 0.35216 0.92434 0.04281 0.0
C672 C 0.27058 0.89779 0.07325 0.0
C673 C 0.26838 0.87806 0.05317 0.0
C674 C 0.24929 0.89712 0.10474 0.0
C675 C 0.25239 0.91513 0.128 0.0
C676 C 0.27983 0.90997 0.13738 0.0
C677 C 0.28281 0.9272 0.15914 0.0
C678 C 0.25852 0.94968 0.17155 0.0
C679 C 0.2313 0.95512 0.16209 0.0
C680 C 0.22803 0.9377 0.14065 0.0
C681 C 0.19325 0.78228 0.12951 0.0
C682 C 0.16057 0.7898 0.13405 0.0
C683 C 0.21398 0.80435 0.11681 0.0
C684 C 0.2022 0.83423 0.10904 0.0
C685 C 0.16951 0.84203 0.11445 0.0
C686 C 0.14884 0.81987 0.12652 0.0
C687 C 0.22425 0.8573 0.09534 0.0
C688 C 0.22597 0.87733 0.11519 0.0
C689 C 0.24544 0.85771 0.06391 0.0
C690 C 0.2444 0.83669 0.04225 0.0
C691 C 0.21623 0.83583 0.03539 0.0
C692 C 0.21517 0.81522 0.01583 0.0
C693 C 0.24221 0.79556 0.00275 0.0
C694 C 0.27041 0.79657 0.00904 0.0
C695 C 0.27158 0.81707 0.02867 0.0
H696 H 0.24133 0.77951 0.98776 0.0
H697 H 0.26071 0.96268 0.18868 0.0
H698 H 0.80484 0.18834 0.02014 0.0
H699 H 0.83505 0.23117 0.01238 0.0
H700 H 0.76026 0.27088 0.08874 0.0
H701 H 0.72975 0.22845 0.09598 0.0
H702 H 0.82058 0.29846 0.00383 0.0
H703 H 0.80478 0.28394 0.13696 0.0
H704 H 0.79213 0.24564 0.18393 0.0
H705 H 0.83227 0.17498 0.12379 0.0
H706 H 0.8454 0.21281 0.07664 0.0
H707 H 0.90667 0.40323 0.04291 0.0
H708 H 0.8631 0.37553 0.04546 0.0
H709 H 0.92601 0.29234 0.04023 0.0
H710 H 0.96973 0.31953 0.0361 0.0
H711 H 0.86572 0.29205 0.09182 0.0
H712 H 0.91205 0.31816 0.97761 0.0
H713 H 0.92886 0.3542 0.92929 0.0
H714 H 0.8332 0.39822 0.9492 0.0
H715 H 0.81594 0.36263 0.99791 0.0
C716 C 0.79452 0.20679 0.03444 0.0
C717 C 0.76508 0.20534 0.05848 0.0
C718 C 0.81164 0.23117 0.03 0.0
C719 C 0.79981 0.25399 0.05008 0.0
C720 C 0.7696 0.25347 0.07296 0.0
C721 C 0.75219 0.22937 0.07696 0.0
C722 C 0.82092 0.27587 0.04982 0.0
C723 C 0.83012 0.29741 0.02323 0.0
C724 C 0.83349 0.27419 0.07507 0.0
C725 C 0.82551 0.2512 0.10326 0.0
C726 C 0.8108 0.26021 0.13381 0.0
C727 C 0.80359 0.23858 0.16047 0.0
C728 C 0.81124 0.20787 0.15687 0.0
C729 C 0.82615 0.19873 0.12659 0.0
C730 C 0.83339 0.22027 0.09987 0.0
C731 C 0.91136 0.37912 0.04192 0.0
C732 C 0.94176 0.36368 0.03975 0.0
C733 C 0.8864 0.36335 0.04356 0.0
C734 C 0.89145 0.33196 0.04333 0.0
C735 C 0.92166 0.31657 0.04086 0.0
C736 C 0.94662 0.33224 0.03874 0.0
C737 C 0.86549 0.3146 0.0458 0.0
C738 C 0.85544 0.29378 0.07284 0.0
C739 C 0.85247 0.31676 0.02085 0.0
C740 C 0.8628 0.33802 0.99157 0.0
C741 C 0.89468 0.33572 0.97183 0.0
C742 C 0.90427 0.35601 0.94434 0.0
C743 C 0.88214 0.37856 0.93624 0.0
C744 C 0.85034 0.38079 0.95555 0.0
C745 C 0.84063 0.36056 0.98308 0.0
H746 H 0.8896 0.39425 0.91494 0.0
H747 H 0.80577 0.19119 0.17755 0.0
H748 H 0.03055 0.83194 0.16166 0.0
H749 H 0.98978 0.87535 0.16992 0.0
H750 H 0.91659 0.81597 0.19714 0.0
H751 H 0.95726 0.77238 0.18847 0.0
H752 H 0.90872 0.86026 0.1522 0.0
H753 H 0.92669 0.85385 0.25286 0.0
H754 H 0.96156 0.84899 0.28605 0.0
H755 H 0.99621 0.93315 0.23925 0.0
H756 H 0.96194 0.93823 0.20536 0.0
H757 H 0.79034 0.99137 0.22162 0.0
H758 H 0.83091 0.95021 0.22914 0.0
H759 H 0.88592 0.96727 0.1302 0.0
H760 H 0.84535 0.00772 0.12229 0.0
H761 H 0.89862 0.94239 0.21725 0.0
H762 H 0.90474 0.90102 0.10107 0.0
H763 H 0.87146 0.90501 0.06632 0.0
H764 H 0.78698 0.9141 0.14691 0.0
H765 H 0.81976 0.90982 0.18215 0.0
C766 C 0.00577 0.82805 0.1698 0.0
C767 C 0.99712 0.79873 0.17418 0.0
C768 C 0.98249 0.8529 0.17469 0.0
C769 C 0.95016 0.84886 0.18432 0.0
C770 C 0.94143 0.81954 0.18972 0.0
C771 C 0.9647 0.79467 0.18477 0.0
C772 C 0.92567 0.87531 0.18609 0.0
C773 C 0.9064 0.87806 0.16663 0.0
C774 C 0.92257 0.89852 0.20497 0.0
C775 C 0.9419 0.89632 0.22645 0.0
C776 C 0.94178 0.8713 0.24963 0.0
C777 C 0.96149 0.86847 0.26852 0.0
C778 C 0.9813 0.89061 0.26456 0.0
C779 C 0.98097 0.91593 0.24216 0.0
C780 C 0.96136 0.91883 0.22315 0.0
C781 C 0.81121 0.98651 0.20156 0.0
C782 C 0.81434 0.00248 0.17124 0.0
C783 C 0.8345 0.96325 0.20599 0.0
C784 C 0.86109 0.95554 0.18012 0.0
C785 C 0.86539 0.97281 0.15039 0.0
C786 C 0.8422 0.99602 0.14596 0.0
C787 C 0.88229 0.92735 0.18299 0.0
C788 C 0.90085 0.92436 0.20316 0.0
C789 C 0.88465 0.90369 0.16498 0.0
C790 C 0.86471 0.90528 0.14417 0.0
C791 C 0.87906 0.90367 0.11137 0.0
C792 C 0.86029 0.90605 0.09159 0.0
C793 C 0.82713 0.90988 0.10439 0.0
C794 C 0.81267 0.91122 0.13701 0.0
C795 C 0.83133 0.90884 0.15689 0.0
H796 H 0.81264 0.91176 0.08903 0.0
H797 H 0.99698 0.88812 0.27878 0.0
H798 H 0.09395 0.15545 0.70526 0.0
H799 H 0.05798 0.16396 0.67393 0.0
H800 H 0.13768 0.15461 0.5884 0.0
H801 H 0.17429 0.14667 0.61961 0.0
H802 H 0.07792 0.19321 0.58123 0.0
H803 H 0.11818 0.09348 0.62363 0.0
H804 H 0.129 0.05733 0.66725 0.0
H805 H 0.02977 0.06759 0.72162 0.0
H806 H 0.01851 0.10439 0.67853 0.0
H807 H 0.03971 0.10861 0.48413 0.0
H808 H 0.06134 0.13193 0.51625 0.0
H809 H 0.98103 0.11176 0.59899 0.0
H810 H 0.96002 0.0868 0.56724 0.0
H811 H 0.0335 0.0949 0.61215 0.0
H812 H 0.99174 0.1856 0.56326 0.0
H813 H 0.9812 0.22179 0.51959 0.0
H814 H 0.08109 0.2295 0.47742 0.0
H815 H 0.09232 0.193 0.52058 0.0
C816 C 0.10413 0.15684 0.67963 0.0
C817 C 0.13701 0.14973 0.66494 0.0
C818 C 0.0834 0.16171 0.66175 0.0
C819 C 0.09524 0.15934 0.62907 0.0
C820 C 0.12819 0.15644 0.61369 0.0
C821 C 0.14903 0.15157 0.63157 0.0
C822 C 0.07411 0.15196 0.61307 0.0
C823 C 0.06812 0.17179 0.5878 0.0
C824 C 0.06091 0.12425 0.62233 0.0
C825 C 0.06757 0.10189 0.64806 0.0
C826 C 0.09873 0.08823 0.64501 0.0
C827 C 0.10494 0.06762 0.66961 0.0
C828 C 0.08008 0.06016 0.69717 0.0
C829 C 0.04899 0.07341 0.70025 0.0
C830 C 0.04269 0.09416 0.67577 0.0
C831 C 0.02672 0.10889 0.50922 0.0
C832 C -0.00168 0.09549 0.52321 0.0
C833 C 0.03882 0.12281 0.52743 0.0
C834 C 0.02252 0.12409 0.55991 0.0
C835 C 0.99384 0.11125 0.57388 0.0
C836 C 0.98182 0.09708 0.55569 0.0
C837 C 0.03726 0.136 0.57973 0.0
C838 C 0.04239 0.11677 0.6058 0.0
C839 C 0.04949 0.16429 0.57111 0.0
C840 C 0.04288 0.18639 0.54511 0.0
C841 C 0.0115 0.19483 0.54456 0.0
C842 C 0.0054 0.21544 0.51991 0.0
C843 C 0.03047 0.2279 0.49572 0.0
C844 C 0.06169 0.21983 0.49617 0.0
C845 C 0.06794 0.19921 0.52076 0.0
H846 H 0.02569 0.24385 0.47664 0.0
H847 H 0.08489 0.04399 0.71605 0.0
H848 H 0.63756 0.0286 0.09306 0.0
H849 H 0.61664 0.98559 0.08414 0.0
H850 H 0.71083 0.95069 0.02916 0.0
H851 H 0.73248 0.99324 0.03924 0.0
H852 H 0.63541 0.96273 0.01288 0.0
H853 H 0.70655 0.90106 0.0645 0.0
H854 H 0.73699 0.89247 0.10235 0.0
H855 H 0.65026 0.90541 0.17971 0.0
H856 H 0.61938 0.91462 0.14224 0.0
H857 H 0.49916 0.90075 0.05435 0.0
H858 H 0.5563 0.88424 0.04095 0.0
H859 H 0.55774 0.92067 0.12338 0.0
H860 H 0.5009 0.93592 0.13728 0.0
H861 H 0.60986 0.8824 0.10394 0.0
H862 H 0.55365 0.97244 0.05223 0.0
H863 H 0.51707 0.99205 0.02124 0.0
H864 H 0.56936 0.93305 0.95056 0.0
H865 H 0.60631 0.91313 0.98128 0.0
C866 C 0.65395 0.01177 0.07922 0.0
C867 C 0.68672 0.01417 0.06721 0.0
C868 C 0.64195 0.98729 0.07403 0.0
C869 C 0.66234 0.96487 0.05646 0.0
C870 C 0.69488 0.96766 0.04312 0.0
C871 C 0.70706 0.99213 0.04861 0.0
C872 C 0.64829 0.93888 0.053 0.0
C873 C 0.63095 0.94395 0.03163 0.0
C874 C 0.64243 0.91475 0.07772 0.0
C875 C 0.6607 0.90859 0.10053 0.0
C876 C 0.69401 0.90225 0.08956 0.0
C877 C 0.71133 0.89725 0.11095 0.0
C878 C 0.69557 0.8984 0.14341 0.0
C879 C 0.66244 0.90449 0.15456 0.0
C880 C 0.64501 0.90955 0.13326 0.0
C881 C 0.5114 0.90346 0.07061 0.0
C882 C 0.49609 0.92042 0.09626 0.0
C883 C 0.54411 0.89416 0.06285 0.0
C884 C 0.56156 0.90243 0.08033 0.0
C885 C 0.54501 0.91439 0.10916 0.0
C886 C 0.51244 0.92335 0.11706 0.0
C887 C 0.59539 0.90779 0.06519 0.0
C888 C 0.61621 0.89905 0.08323 0.0
C889 C 0.60412 0.92917 0.03778 0.0
C890 C 0.58247 0.94124 0.01901 0.0
C891 C 0.5573 0.96375 0.03003 0.0
C892 C 0.53649 0.97485 0.01258 0.0
C893 C 0.54078 0.96374 0.98399 0.0
C894 C 0.56602 0.94158 0.97274 0.0
C895 C 0.58692 0.93039 0.99013 0.0
H896 H 0.5246 0.97236 0.97054 0.0
H897 H 0.70902 0.89456 0.15993 0.0
H898 H 0.20386 0.63624 0.06645 0.0
H899 H 0.22503 0.60187 0.02488 0.0
H900 H 0.13664 0.62129 0.00344 0.0
H901 H 0.11559 0.65496 0.04471 0.0
H902 H 0.19613 0.55125 0.02734 0.0
H903 H 0.14844 0.62068 0.92731 0.0
H904 H 0.14668 0.67292 0.90109 0.0
H905 H 0.22721 0.68646 0.9262 0.0
H906 H 0.22989 0.6341 0.95212 0.0
H907 H 0.09462 0.50855 0.95686 0.0
H908 H 0.12816 0.54796 0.94987 0.0
H909 H 0.20896 0.48063 0.94563 0.0
H910 H 0.17514 0.44095 0.95398 0.0
H911 H 0.18379 0.57279 0.91995 0.0
H912 H 0.23678 0.49033 0.00156 0.0
H913 H 0.22989 0.44012 0.03277 0.0
H914 H 0.12888 0.45748 0.05063 0.0
H915 H 0.13524 0.50786 0.01991 0.0
C916 C 0.18924 0.6332 0.05256 0.0
C917 C 0.15796 0.64761 0.05903 0.0
C918 C 0.20137 0.61387 0.02877 0.0
C919 C 0.18261 0.60953 0.01072 0.0
C920 C 0.15179 0.62483 0.01658 0.0
C921 C 0.13957 0.64363 0.04052 0.0
C922 C 0.19242 0.58577 0.9892 0.0
C923 C 0.19498 0.55586 0.00325 0.0
C924 C 0.19047 0.59192 0.95795 0.0
C925 C 0.18942 0.6233 0.94165 0.0
C926 C 0.16605 0.63462 0.92695 0.0
C927 C 0.16481 0.66433 0.91221 0.0
C928 C 0.18682 0.683 0.91196 0.0
C929 C 0.21016 0.67198 0.92642 0.0
C930 C 0.21153 0.64228 0.94117 0.0
C931 C 0.1198 0.50221 0.95319 0.0
C932 C 0.132 0.47173 0.95718 0.0
C933 C 0.1391 0.52479 0.94881 0.0
C934 C 0.17081 0.51712 0.94833 0.0
C935 C 0.18439 0.48695 0.94652 0.0
C936 C 0.16497 0.46426 0.95125 0.0
C937 C 0.18538 0.53875 0.95905 0.0
C938 C 0.18723 0.56812 0.9431 0.0
C939 C 0.19063 0.53238 0.98897 0.0
C940 C 0.18655 0.50259 0.00826 0.0
C941 C 0.21314 0.48341 0.0123 0.0
C942 C 0.20932 0.45495 0.02987 0.0
C943 C 0.17898 0.44559 0.0436 0.0
C944 C 0.15236 0.46473 0.03998 0.0
C945 C 0.15605 0.49324 0.02256 0.0
H946 H 0.17609 0.42354 0.05712 0.0
H947 H 0.18576 0.70599 0.90057 0.0
loop_
_geom_bond_atom_site_label_1
_geom_bond_atom_site_label_2
_geom_bond_distance
_geom_bond_site_symmetry_2
_ccdc_geom_bond_type
C0 C1 1.351 . S
C0 N3 1.368 1_655 S
C0 H5 0.931 . S
C1 C0 1.351 . S
C1 N2 1.373 1_655 S
C1 H29 0.930 . S
N2 C1 1.373 1_455 S
N2 C4 1.340 . S
N3 C0 1.368 1_455 S
N3 C4 1.321 . S
N3 Co6 2.135 1_565 S
C4 N2 1.340 . S
C4 N3 1.321 . S
C4 H28 0.930 . S
H5 C0 0.931 . S
Co6 N3 2.135 1_545 S
Co6 N9 2.121 . S
Co6 O14 2.055 1_455 S
Co6 O17 2.039 . S
Co6 N20 2.140 . S
C7 O8 1.227 . S
C7 O17 1.265 . S
O8 C7 1.227 . S
N9 Co6 2.121 . S
N9 C11 1.375 . S
N9 C12 1.313 1_455 S
C10 C11 1.338 . S
C10 N13 1.377 1_455 S
C10 H30 0.930 . S
C11 N9 1.375 . S
C11 C10 1.338 . S
C11 H15 0.931 . S
C12 N9 1.313 1_655 S
C12 N13 1.344 . S
C12 H16 0.930 . S
N13 C10 1.377 1_655 S
N13 C12 1.344 . S
O14 Co6 2.055 1_655 S
O14 C18 1.253 . S
H15 C11 0.931 . S
H16 C12 0.930 . S
O17 Co6 2.039 . S
O17 C7 1.265 . S
C18 O14 1.253 . S
C18 O19 1.227 . S
O19 C18 1.227 . S
N20 Co6 2.140 . S
N20 C23 1.346 . S
N20 C24 1.345 1_455 S
C21 C22 1.387 . S
C21 C25 1.391 1_455 S
C22 C21 1.387 . S
C22 C23 1.369 . S
C22 H31 0.929 1_545 S
C23 N20 1.346 . S
C23 C22 1.369 . S
C23 H26 0.928 1_545 S
C24 N20 1.345 1_655 S
C24 C25 1.371 . S
C24 H27 0.931 . S
C25 C21 1.391 1_655 S
C25 C24 1.371 . S
C25 H32 0.930 . S
H26 C23 0.928 1_565 S
H27 C24 0.931 . S
H28 C4 0.930 . S
H29 C1 0.930 . S
H30 C10 0.930 . S
H31 C22 0.929 1_565 S
H32 C25 0.930 . S
C33 C34 1.351 . S
C33 N36 1.368 . S
C33 H38 0.931 . S
C34 C33 1.351 . S
C34 N35 1.373 . S
C34 H62 0.930 . S
N35 C34 1.373 . S
N35 C37 1.340 . S
N36 C33 1.368 . S
N36 C37 1.321 . S
N36 Co39 2.135 . S
C37 N35 1.340 . S
C37 N36 1.321 . S
C37 H61 0.930 . S
H38 C33 0.931 . S
Co39 N36 2.135 . S
Co39 N42 2.121 . S
Co39 O47 2.055 . S
Co39 O50 2.039 . S
Co39 N53 2.140 . S
C40 O41 1.227 . S
C40 O50 1.265 . S
O41 C40 1.227 . S
N42 Co39 2.121 . S
N42 C44 1.375 . S
N42 C45 1.313 . S
C43 C44 1.338 . S
C43 N46 1.377 . S
C43 H63 0.930 . S
C44 N42 1.375 . S
C44 C43 1.338 . S
C44 H48 0.931 . S
C45 N42 1.313 . S
C45 N46 1.344 . S
C45 H49 0.930 . S
N46 C43 1.377 . S
N46 C45 1.344 . S
O47 Co39 2.055 . S
O47 C51 1.253 . S
H48 C44 0.931 . S
H49 C45 0.930 . S
O50 Co39 2.039 . S
O50 C40 1.265 . S
C51 O47 1.253 . S
C51 O52 1.227 . S
O52 C51 1.227 . S
N53 Co39 2.140 . S
N53 C56 1.346 . S
N53 C57 1.345 . S
C54 C55 1.387 . S
C54 C58 1.391 . S
C55 C54 1.387 . S
C55 C56 1.369 . S
C55 H64 0.929 . S
C56 N53 1.346 . S
C56 C55 1.369 . S
C56 H59 0.928 . S
C57 N53 1.345 . S
C57 C58 1.371 . S
C57 H60 0.931 . S
C58 C54 1.391 . S
C58 C57 1.371 . S
C58 H65 0.930 . S
H59 C56 0.928 . S
H60 C57 0.931 . S
H61 C37 0.930 . S
H62 C34 0.930 . S
H63 C43 0.930 . S
H64 C55 0.929 . S
H65 C58 0.930 . S
C66 C67 1.351 . S
C66 N69 1.368 . S
C66 H71 0.931 . S
C67 C66 1.351 . S
C67 N68 1.373 . S
C67 H95 0.930 . S
N68 C67 1.373 . S
N68 C70 1.340 . S
N69 C66 1.368 . S
N69 C70 1.321 . S
N69 Co72 2.135 . S
C70 N68 1.340 . S
C70 N69 1.321 . S
C70 H94 0.930 1_545 S
H71 C66 0.931 . S
Co72 N69 2.135 . S
Co72 N75 2.121 1_554 S
Co72 O80 2.055 . S
Co72 O83 2.039 1_545 S
Co72 N86 2.140 . S
C73 O74 1.227 . S
C73 O83 1.265 . S
O74 C73 1.227 . S
N75 Co72 2.121 1_556 S
N75 C77 1.375 . S
N75 C78 1.313 . S
C76 C77 1.338 . S
C76 N79 1.377 . S
C76 H96 0.930 1_545 S
C77 N75 1.375 . S
C77 C76 1.338 . S
C77 H81 0.931 1_545 S
C78 N75 1.313 . S
C78 N79 1.344 . S
C78 H82 0.930 . S
N79 C76 1.377 . S
N79 C78 1.344 . S
O80 Co72 2.055 . S
O80 C84 1.253 1_554 S
H81 C77 0.931 1_565 S
H82 C78 0.930 . S
O83 Co72 2.039 1_565 S
O83 C73 1.265 . S
C84 O80 1.253 1_556 S
C84 O85 1.227 . S
O85 C84 1.227 . S
N86 Co72 2.140 . S
N86 C89 1.346 . S
N86 C90 1.345 1_554 S
C87 C88 1.387 . S
C87 C91 1.391 1_554 S
C88 C87 1.387 . S
C88 C89 1.369 . S
C88 H97 0.929 . S
C89 N86 1.346 . S
C89 C88 1.369 . S
C89 H92 0.928 . S
C90 N86 1.345 1_556 S
C90 C91 1.371 . S
C90 H93 0.931 . S
C91 C87 1.391 1_556 S
C91 C90 1.371 . S
C91 H98 0.930 . S
H92 C89 0.928 . S
H93 C90 0.931 . S
H94 C70 0.930 1_565 S
H95 C67 0.930 . S
H96 C76 0.930 1_565 S
H97 C88 0.929 . S
H98 C91 0.930 . S
C99 C100 1.351 . S
C99 N102 1.368 . S
C99 H104 0.931 . S
C100 C99 1.351 . S
C100 N101 1.373 . S
C100 H128 0.930 . S
N101 C100 1.373 . S
N101 C103 1.340 . S
N102 C99 1.368 . S
N102 C103 1.321 . S
N102 Co105 2.135 . S
C103 N101 1.340 . S
C103 N102 1.321 . S
C103 H127 0.930 1_554 S
H104 C99 0.931 . S
Co105 N102 2.135 . S
Co105 N108 2.121 1_455 S
Co105 O113 2.055 . S
Co105 O116 2.062 . S
Co105 N119 2.140 . S
C106 O107 1.227 . S
C106 O116 1.246 1_556 S
O107 C106 1.227 . S
N108 Co105 2.121 1_655 S
N108 C110 1.375 . S
N108 C111 1.313 . S
C109 C110 1.338 . S
C109 N112 1.377 . S
C109 H129 0.930 . S
C110 N108 1.375 . S
C110 C109 1.338 . S
C110 H114 0.931 1_554 S
C111 N108 1.313 . S
C111 N112 1.344 . S
C111 H115 0.930 . S
N112 C109 1.377 . S
N112 C111 1.344 . S
O113 Co105 2.055 . S
O113 C117 1.253 . S
H114 C110 0.931 1_556 S
H115 C111 0.930 . S
O116 Co105 2.062 . S
O116 C106 1.246 1_554 S
C117 O113 1.253 . S
C117 O118 1.227 . S
O118 C117 1.227 . S
N119 Co105 2.140 . S
N119 C122 1.346 . S
N119 C123 1.345 . S
C120 C121 1.387 . S
C120 C124 1.391 . S
C121 C120 1.387 . S
C121 C122 1.369 . S
C121 H130 0.929 . S
C122 N119 1.346 . S
C122 C121 1.369 . S
C122 H125 0.928 . S
C123 N119 1.345 . S
C123 C124 1.371 . S
C123 H126 0.931 1_455 S
C124 C120 1.391 . S
C124 C123 1.371 . S
C124 H131 0.930 1_455 S
H125 C122 0.928 . S
H126 C123 0.931 1_655 S
H127 C103 0.930 1_556 S
H128 C100 0.930 . S
H129 C109 0.930 . S
H130 C121 0.929 . S
H131 C124 0.930 1_655 S
C132 C133 1.351 . S
C132 N135 1.368 . S
C132 H137 0.931 . S
C133 C132 1.351 . S
C133 N134 1.373 . S
C133 H161 0.930 . S
N134 C133 1.373 . S
N134 C136 1.340 . S
N135 C132 1.368 . S
N135 C136 1.321 . S
N135 Co138 2.135 . S
C136 N134 1.340 . S
C136 N135 1.321 . S
C136 H160 0.930 . S
H137 C132 0.931 . S
Co138 N135 2.135 . S
Co138 N141 2.121 . S
Co138 O146 2.055 . S
Co138 O149 2.039 . S
Co138 N152 2.140 . S
C139 O140 1.227 . S
C139 O149 1.265 . S
O140 C139 1.227 . S
N141 Co138 2.121 . S
N141 C143 1.375 . S
N141 C144 1.313 . S
C142 C143 1.338 . S
C142 N145 1.377 1_545 S
C142 H162 0.930 1_545 S
C143 N141 1.375 . S
C143 C142 1.338 . S
C143 H147 0.931 . S
C144 N141 1.313 . S
C144 N145 1.344 1_545 S
C144 H148 0.930 . S
N145 C142 1.377 1_565 S
N145 C144 1.344 1_565 S
O146 Co138 2.055 . S
O146 C150 1.253 . S
H147 C143 0.931 . S
H148 C144 0.930 . S
O149 Co138 2.039 . S
O149 C139 1.265 . S
C150 O146 1.253 . S
C150 O151 1.227 . S
O151 C150 1.227 . S
N152 Co138 2.140 . S
N152 C155 1.346 . S
N152 C156 1.345 . S
C153 C154 1.387 . S
C153 C157 1.391 . S
C154 C153 1.387 . S
C154 C155 1.369 . S
C154 H163 0.929 . S
C155 N152 1.346 . S
C155 C154 1.369 . S
C155 H158 0.928 . S
C156 N152 1.345 . S
C156 C157 1.371 . S
C156 H159 0.931 . S
C157 C153 1.391 . S
C157 C156 1.371 . S
C157 H164 0.930 . S
H158 C155 0.928 . S
H159 C156 0.931 . S
H160 C136 0.930 . S
H161 C133 0.930 . S
H162 C142 0.930 1_565 S
H163 C154 0.929 . S
H164 C157 0.930 . S
C165 C166 1.351 . S
C165 N168 1.368 . S
C165 H170 0.931 . S
C166 C165 1.351 . S
C166 N167 1.373 . S
C166 H194 0.930 . S
N167 C166 1.373 . S
N167 C169 1.340 . S
N168 C165 1.368 . S
N168 C169 1.321 . S
N168 Co171 2.135 . S
C169 N167 1.340 . S
C169 N168 1.321 . S
C169 H193 0.930 . S
H170 C165 0.931 . S
Co171 N168 2.135 . S
Co171 N174 2.121 . S
Co171 O179 2.055 . S
Co171 O182 2.039 . S
Co171 N185 2.140 . S
C172 O173 1.227 . S
C172 O182 1.265 . S
O173 C172 1.227 . S
N174 Co171 2.121 . S
N174 C176 1.375 . S
N174 C177 1.313 . S
C175 C176 1.338 . S
C175 N178 1.377 . S
C175 H195 0.930 . S
C176 N174 1.375 . S
C176 C175 1.338 . S
C176 H180 0.931 . S
C177 N174 1.313 . S
C177 N178 1.344 . S
C177 H181 0.930 . S
N178 C175 1.377 . S
N178 C177 1.344 . S
O179 Co171 2.055 . S
O179 C183 1.253 . S
H180 C176 0.931 . S
H181 C177 0.930 . S
O182 Co171 2.039 . S
O182 C172 1.265 . S
C183 O179 1.253 . S
C183 O184 1.227 . S
O184 C183 1.227 . S
N185 Co171 2.140 . S
N185 C188 1.346 . S
N185 C189 1.345 . S
C186 C187 1.387 . S
C186 C190 1.391 . S
C187 C186 1.387 . S
C187 C188 1.369 . S
C187 H196 0.929 . S
C188 N185 1.346 . S
C188 C187 1.369 . S
C188 H191 0.928 . S
C189 N185 1.345 . S
C189 C190 1.371 . S
C189 H192 0.931 . S
C190 C186 1.391 . S
C190 C189 1.371 . S
C190 H197 0.930 . S
H191 C188 0.928 . S
H192 C189 0.931 . S
H193 C169 0.930 . S
H194 C166 0.930 . S
H195 C175 0.930 . S
H196 C187 0.929 . S
H197 C190 0.930 . S
H198 C216 0.951 . S
H199 C218 0.951 . S
H200 C220 0.950 1_655 S
H201 C221 0.950 . S
H202 C223 0.950 . S
H203 C226 0.950 . S
H204 C227 0.950 . S
H205 C229 0.950 . S
H206 C230 0.950 . S
H207 C231 0.951 . S
H208 C233 0.951 . S
H209 C235 0.950 . S
H210 C236 0.950 . S
H211 C238 0.950 . S
H212 C241 0.950 . S
H213 C242 0.950 . S
H214 C244 0.950 . S
H215 C245 0.950 . S
C216 H198 0.951 . S
C216 C217 1.366 . S
C216 C218 1.388 . S
C217 C216 1.366 . S
C217 C221 1.385 . S
C218 H199 0.951 . S
C218 C216 1.388 . S
C218 C219 1.366 . S
C219 C218 1.366 . S
C219 C220 1.414 . S
C219 C222 1.499 1_455 S
C220 H200 0.950 1_455 S
C220 C219 1.414 . S
C220 C221 1.374 . S
C221 H201 0.950 . S
C221 C217 1.385 . S
C221 C220 1.374 . S
C222 C219 1.499 1_655 S
C222 C223 1.373 1_655 S
C222 C224 1.389 . S
C223 H202 0.950 . S
C223 C222 1.373 1_455 S
C223 C239 1.377 . S
C224 C222 1.389 . S
C224 C225 1.524 . S
C224 C238 1.377 . S
C225 C224 1.524 . S
C225 C226 1.397 . S
C225 C230 1.363 . S
C226 H203 0.950 . S
C226 C225 1.397 . S
C226 C227 1.334 . S
C227 H204 0.950 . S
C227 C226 1.334 . S
C227 C228 1.287 . S
C228 C227 1.287 . S
C228 C229 1.524 . S
C228 H247 0.913 . S
C229 H205 0.950 . S
C229 C228 1.524 . S
C229 C230 1.415 . S
C230 H206 0.950 . S
C230 C225 1.363 . S
C230 C229 1.415 . S
C231 H207 0.951 . S
C231 C232 1.366 . S
C231 C233 1.388 . S
C232 C231 1.366 . S
C232 C236 1.385 . S
C233 H208 0.951 . S
C233 C231 1.388 . S
C233 C234 1.366 . S
C234 C233 1.366 . S
C234 C235 1.414 . S
C234 C237 1.499 . S
C235 H209 0.950 . S
C235 C234 1.414 . S
C235 C236 1.374 . S
C236 H210 0.950 . S
C236 C232 1.385 . S
C236 C235 1.374 . S
C237 C234 1.499 . S
C237 C238 1.373 . S
C237 C239 1.389 1_655 S
C238 H211 0.950 . S
C238 C224 1.377 . S
C238 C237 1.373 . S
C239 C223 1.377 . S
C239 C237 1.389 1_455 S
C239 C240 1.524 . S
C240 C239 1.524 . S
C240 C241 1.397 . S
C240 C245 1.363 . S
C241 H212 0.950 . S
C241 C240 1.397 . S
C241 C242 1.334 . S
C242 H213 0.950 . S
C242 C241 1.334 . S
C242 C243 1.287 . S
C243 C242 1.287 . S
C243 C244 1.524 . S
C243 H246 0.999 . S
C244 H214 0.950 . S
C244 C243 1.524 . S
C244 C245 1.415 . S
C245 H215 0.950 . S
C245 C240 1.363 . S
C245 C244 1.415 . S
H246 C243 0.999 . S
H247 C228 0.913 . S
H248 C266 0.951 . S
H249 C268 0.951 . S
H250 C270 0.950 . S
H251 C271 0.950 . S
H252 C273 0.950 . S
H253 C276 0.950 . S
H254 C277 0.950 . S
H255 C279 0.950 . S
H256 C280 0.950 . S
H257 C281 0.951 . S
H258 C283 0.951 . S
H259 C285 0.950 . S
H260 C286 0.950 . S
H261 C288 0.950 . S
H262 C291 0.950 . S
H263 C292 0.950 . S
H264 C294 0.950 . S
H265 C295 0.950 . S
C266 H248 0.951 . S
C266 C267 1.366 . S
C266 C268 1.388 . S
C267 C266 1.366 . S
C267 C271 1.385 . S
C268 H249 0.951 . S
C268 C266 1.388 . S
C268 C269 1.366 . S
C269 C268 1.366 . S
C269 C270 1.414 . S
C269 C272 1.499 . S
C270 H250 0.950 . S
C270 C269 1.414 . S
C270 C271 1.374 . S
C271 H251 0.950 . S
C271 C267 1.385 . S
C271 C270 1.374 . S
C272 C269 1.499 . S
C272 C273 1.373 . S
C272 C274 1.389 . S
C273 H252 0.950 . S
C273 C272 1.373 . S
C273 C289 1.377 . S
C274 C272 1.389 . S
C274 C275 1.524 . S
C274 C288 1.377 . S
C275 C274 1.524 . S
C275 C276 1.397 . S
C275 C280 1.363 . S
C276 H253 0.950 . S
C276 C275 1.397 . S
C276 C277 1.334 . S
C277 H254 0.950 . S
C277 C276 1.334 . S
C277 C278 1.287 . S
C278 C277 1.287 . S
C278 C279 1.524 . S
C278 H297 0.913 . S
C279 H255 0.950 . S
C279 C278 1.524 . S
C279 C280 1.415 . S
C280 H256 0.950 . S
C280 C275 1.363 . S
C280 C279 1.415 . S
C281 H257 0.951 . S
C281 C282 1.366 . S
C281 C283 1.388 . S
C282 C281 1.366 . S
C282 C286 1.385 . S
C283 H258 0.951 . S
C283 C281 1.388 . S
C283 C284 1.366 . S
C284 C283 1.366 . S
C284 C285 1.414 . S
C284 C287 1.499 . S
C285 H259 0.950 . S
C285 C284 1.414 . S
C285 C286 1.374 . S
C286 H260 0.950 . S
C286 C282 1.385 . S
C286 C285 1.374 . S
C287 C284 1.499 . S
C287 C288 1.373 . S
C287 C289 1.389 . S
C288 H261 0.950 . S
C288 C274 1.377 . S
C288 C287 1.373 . S
C289 C273 1.377 . S
C289 C287 1.389 . S
C289 C290 1.524 . S
C290 C289 1.524 . S
C290 C291 1.397 1_545 S
C290 C295 1.363 . S
C291 H262 0.950 . S
C291 C290 1.397 1_565 S
C291 C292 1.334 . S
C292 H263 0.950 . S
C292 C291 1.334 . S
C292 C293 1.287 . S
C293 C292 1.287 . S
C293 C294 1.524 1_565 S
C293 H296 0.999 . S
C294 H264 0.950 . S
C294 C293 1.524 1_545 S
C294 C295 1.415 . S
C295 H265 0.950 . S
C295 C290 1.363 . S
C295 C294 1.415 . S
H296 C293 0.999 . S
H297 C278 0.913 . S
H298 C316 0.951 . S
H299 C318 0.951 . S
H300 C320 0.950 . S
H301 C321 0.950 . S
H302 C323 0.950 . S
H303 C326 0.950 . S
H304 C327 0.950 . S
H305 C329 0.950 . S
H306 C330 0.950 . S
H307 C331 0.951 . S
H308 C333 0.951 . S
H309 C335 0.950 . S
H310 C336 0.950 . S
H311 C338 0.950 . S
H312 C341 0.950 . S
H313 C342 0.950 . S
H314 C344 0.950 . S
H315 C345 0.950 . S
C316 H298 0.951 . S
C316 C317 1.366 . S
C316 C318 1.388 . S
C317 C316 1.366 . S
C317 C321 1.385 . S
C318 H299 0.951 . S
C318 C316 1.388 . S
C318 C319 1.366 . S
C319 C318 1.366 . S
C319 C320 1.414 . S
C319 C322 1.499 . S
C320 H300 0.950 . S
C320 C319 1.414 . S
C320 C321 1.374 . S
C321 H301 0.950 . S
C321 C317 1.385 . S
C321 C320 1.374 . S
C322 C319 1.499 . S
C322 C323 1.373 . S
C322 C324 1.389 . S
C323 H302 0.950 . S
C323 C322 1.373 . S
C323 C339 1.377 . S
C324 C322 1.389 . S
C324 C325 1.524 . S
C324 C338 1.377 . S
C325 C324 1.524 . S
C325 C326 1.397 1_455 S
C325 C330 1.363 . S
C326 H303 0.950 . S
C326 C325 1.397 1_655 S
C326 C327 1.334 . S
C327 H304 0.950 . S
C327 C326 1.334 . S
C327 C328 1.287 . S
C328 C327 1.287 . S
C328 C329 1.524 1_655 S
C328 H347 0.913 . S
C329 H305 0.950 . S
C329 C328 1.524 1_455 S
C329 C330 1.415 . S
C330 H306 0.950 . S
C330 C325 1.363 . S
C330 C329 1.415 . S
C331 H307 0.951 . S
C331 C332 1.366 . S
C331 C333 1.388 . S
C332 C331 1.366 . S
C332 C336 1.385 . S
C333 H308 0.951 . S
C333 C331 1.388 . S
C333 C334 1.366 . S
C334 C333 1.366 . S
C334 C335 1.414 . S
C334 C337 1.499 . S
C335 H309 0.950 . S
C335 C334 1.414 . S
C335 C336 1.374 . S
C336 H310 0.950 . S
C336 C332 1.385 . S
C336 C335 1.374 . S
C337 C334 1.499 . S
C337 C338 1.373 . S
C337 C339 1.389 . S
C338 H311 0.950 . S
C338 C324 1.377 . S
C338 C337 1.373 . S
C339 C323 1.377 . S
C339 C337 1.389 . S
C339 C340 1.524 . S
C340 C339 1.524 . S
C340 C341 1.397 . S
C340 C345 1.363 . S
C341 H312 0.950 . S
C341 C340 1.397 . S
C341 C342 1.334 . S
C342 H313 0.950 . S
C342 C341 1.334 . S
C342 C343 1.287 . S
C343 C342 1.287 . S
C343 C344 1.524 . S
C343 H346 0.999 . S
C344 H314 0.950 . S
C344 C343 1.524 . S
C344 C345 1.415 . S
C345 H315 0.950 . S
C345 C340 1.363 . S
C345 C344 1.415 . S
H346 C343 0.999 . S
H347 C328 0.913 . S
H348 C366 0.951 . S
H349 C368 0.951 . S
H350 C370 0.950 . S
H351 C371 0.950 . S
H352 C373 0.950 . S
H353 C376 0.950 . S
H354 C377 0.950 . S
H355 C379 0.950 . S
H356 C380 0.950 . S
H357 C381 0.951 . S
H358 C383 0.951 . S
H359 C385 0.950 . S
H360 C386 0.950 . S
H361 C388 0.950 . S
H362 C391 0.950 . S
H363 C392 0.950 . S
H364 C394 0.950 . S
H365 C395 0.950 . S
C366 H348 0.951 . S
C366 C367 1.366 . S
C366 C368 1.388 . S
C367 C366 1.366 . S
C367 C371 1.385 . S
C368 H349 0.951 . S
C368 C366 1.388 . S
C368 C369 1.366 . S
C369 C368 1.366 . S
C369 C370 1.414 . S
C369 C372 1.499 . S
C370 H350 0.950 . S
C370 C369 1.414 . S
C370 C371 1.374 . S
C371 H351 0.950 . S
C371 C367 1.385 . S
C371 C370 1.374 . S
C372 C369 1.499 . S
C372 C373 1.373 . S
C372 C374 1.389 1_545 S
C373 H352 0.950 . S
C373 C372 1.373 . S
C373 C389 1.377 . S
C374 C372 1.389 1_565 S
C374 C375 1.524 . S
C374 C388 1.377 . S
C375 C374 1.524 . S
C375 C376 1.397 . S
C375 C380 1.363 . S
C376 H353 0.950 . S
C376 C375 1.397 . S
C376 C377 1.334 . S
C377 H354 0.950 . S
C377 C376 1.334 . S
C377 C378 1.287 . S
C378 C377 1.287 . S
C378 C379 1.524 . S
C378 H397 0.913 . S
C379 H355 0.950 . S
C379 C378 1.524 . S
C379 C380 1.415 . S
C380 H356 0.950 . S
C380 C375 1.363 . S
C380 C379 1.415 . S
C381 H357 0.951 . S
C381 C382 1.366 . S
C381 C383 1.388 . S
C382 C381 1.366 . S
C382 C386 1.385 . S
C383 H358 0.951 . S
C383 C381 1.388 . S
C383 C384 1.366 . S
C384 C383 1.366 . S
C384 C385 1.414 . S
C384 C387 1.499 . S
C385 H359 0.950 . S
C385 C384 1.414 . S
C385 C386 1.374 . S
C386 H360 0.950 . S
C386 C382 1.385 . S
C386 C385 1.374 . S
C387 C384 1.499 . S
C387 C388 1.373 1_545 S
C387 C389 1.389 . S
C388 H361 0.950 . S
C388 C374 1.377 . S
C388 C387 1.373 1_565 S
C389 C373 1.377 . S
C389 C387 1.389 . S
C389 C390 1.524 . S
C390 C389 1.524 . S
C390 C391 1.397 . S
C390 C395 1.363 . S
C391 H362 0.950 . S
C391 C390 1.397 . S
C391 C392 1.334 . S
C392 H363 0.950 . S
C392 C391 1.334 . S
C392 C393 1.287 . S
C393 C392 1.287 . S
C393 C394 1.524 . S
C393 H396 0.999 . S
C394 H364 0.950 . S
C394 C393 1.524 . S
C394 C395 1.415 . S
C395 H365 0.950 . S
C395 C390 1.363 . S
C395 C394 1.415 . S
H396 C393 0.999 . S
H397 C378 0.913 . S
H398 C416 0.951 1_554 S
H399 C418 0.951 . S
H400 C420 0.950 . S
H401 C421 0.950 . S
H402 C423 0.950 . S
H403 C426 0.950 . S
H404 C427 0.950 . S
H405 C429 0.950 . S
H406 C430 0.950 . S
H407 C431 0.951 1_545 S
H408 C433 0.951 . S
H409 C435 0.950 . S
H410 C436 0.950 . S
H411 C438 0.950 . S
H412 C441 0.950 . S
H413 C442 0.950 . S
H414 C444 0.950 . S
H415 C445 0.950 . S
C416 H398 0.951 1_556 S
C416 C417 1.366 1_556 S
C416 C418 1.388 . S
C417 C416 1.366 1_554 S
C417 C421 1.385 . S
C418 H399 0.951 . S
C418 C416 1.388 . S
C418 C419 1.366 . S
C419 C418 1.366 . S
C419 C420 1.414 . S
C419 C422 1.499 . S
C420 H400 0.950 . S
C420 C419 1.414 . S
C420 C421 1.374 1_556 S
C421 H401 0.950 . S
C421 C417 1.385 . S
C421 C420 1.374 1_554 S
C422 C419 1.499 . S
C422 C423 1.373 . S
C422 C424 1.389 . S
C423 H402 0.950 . S
C423 C422 1.373 . S
C423 C439 1.377 . S
C424 C422 1.389 . S
C424 C425 1.524 . S
C424 C438 1.377 . S
C425 C424 1.524 . S
C425 C426 1.397 . S
C425 C430 1.363 . S
C426 H403 0.950 . S
C426 C425 1.397 . S
C426 C427 1.334 . S
C427 H404 0.950 . S
C427 C426 1.334 . S
C427 C428 1.287 . S
C428 C427 1.287 . S
C428 C429 1.524 . S
C428 H447 0.913 . S
C429 H405 0.950 . S
C429 C428 1.524 . S
C429 C430 1.415 . S
C430 H406 0.950 . S
C430 C425 1.363 . S
C430 C429 1.415 . S
C431 H407 0.951 1_565 S
C431 C432 1.366 1_565 S
C431 C433 1.388 . S
C432 C431 1.366 1_545 S
C432 C436 1.385 1_545 S
C433 H408 0.951 . S
C433 C431 1.388 . S
C433 C434 1.366 . S
C434 C433 1.366 . S
C434 C435 1.414 . S
C434 C437 1.499 . S
C435 H409 0.950 . S
C435 C434 1.414 . S
C435 C436 1.374 . S
C436 H410 0.950 . S
C436 C432 1.385 1_565 S
C436 C435 1.374 . S
C437 C434 1.499 . S
C437 C438 1.373 . S
C437 C439 1.389 . S
C438 H411 0.950 . S
C438 C424 1.377 . S
C438 C437 1.373 . S
C439 C423 1.377 . S
C439 C437 1.389 . S
C439 C440 1.524 . S
C440 C439 1.524 . S
C440 C441 1.397 . S
C440 C445 1.363 . S
C441 H412 0.950 . S
C441 C440 1.397 . S
C441 C442 1.334 1_565 S
C442 H413 0.950 . S
C442 C441 1.334 1_545 S
C442 C443 1.287 . S
C443 C442 1.287 . S
C443 C444 1.524 1_545 S
C443 H446 0.999 . S
C444 H414 0.950 . S
C444 C443 1.524 1_565 S
C444 C445 1.415 . S
C445 H415 0.950 . S
C445 C440 1.363 . S
C445 C444 1.415 . S
H446 C443 0.999 . S
H447 C428 0.913 . S
H448 C466 0.951 . S
H449 C468 0.951 . S
H450 C470 0.950 . S
H451 C471 0.950 . S
H452 C473 0.950 . S
H453 C476 0.950 . S
H454 C477 0.950 . S
H455 C479 0.950 . S
H456 C480 0.950 . S
H457 C481 0.951 . S
H458 C483 0.951 . S
H459 C485 0.950 . S
H460 C486 0.950 . S
H461 C488 0.950 . S
H462 C491 0.950 . S
H463 C492 0.950 . S
H464 C494 0.950 . S
H465 C495 0.950 . S
C466 H448 0.951 . S
C466 C467 1.366 . S
C466 C468 1.388 . S
C467 C466 1.366 . S
C467 C471 1.385 . S
C468 H449 0.951 . S
C468 C466 1.388 . S
C468 C469 1.366 . S
C469 C468 1.366 . S
C469 C470 1.414 . S
C469 C472 1.499 . S
C470 H450 0.950 . S
C470 C469 1.414 . S
C470 C471 1.374 . S
C471 H451 0.950 . S
C471 C467 1.385 . S
C471 C470 1.374 . S
C472 C469 1.499 . S
C472 C473 1.373 . S
C472 C474 1.389 . S
C473 H452 0.950 . S
C473 C472 1.373 . S
C473 C489 1.377 . S
C474 C472 1.389 . S
C474 C475 1.524 . S
C474 C488 1.377 . S
C475 C474 1.524 . S
C475 C476 1.397 . S
C475 C480 1.363 . S
C476 H453 0.950 . S
C476 C475 1.397 . S
C476 C477 1.334 . S
C477 H454 0.950 . S
C477 C476 1.334 . S
C477 C478 1.287 . S
C478 C477 1.287 . S
C478 C479 1.524 . S
C478 H497 0.913 . S
C479 H455 0.950 . S
C479 C478 1.524 . S
C479 C480 1.415 . S
C480 H456 0.950 . S
C480 C475 1.363 . S
C480 C479 1.415 . S
C481 H457 0.951 . S
C481 C482 1.366 . S
C481 C483 1.388 . S
C482 C481 1.366 . S
C482 C486 1.385 . S
C483 H458 0.951 . S
C483 C481 1.388 . S
C483 C484 1.366 . S
C484 C483 1.366 . S
C484 C485 1.414 . S
C484 C487 1.499 . S
C485 H459 0.950 . S
C485 C484 1.414 . S
C485 C486 1.374 . S
C486 H460 0.950 . S
C486 C482 1.385 . S
C486 C485 1.374 . S
C487 C484 1.499 . S
C487 C488 1.373 . S
C487 C489 1.389 . S
C488 H461 0.950 . S
C488 C474 1.377 . S
C488 C487 1.373 . S
C489 C473 1.377 . S
C489 C487 1.389 . S
C489 C490 1.524 . S
C490 C489 1.524 . S
C490 C491 1.397 1_545 S
C490 C495 1.363 . S
C491 H462 0.950 . S
C491 C490 1.397 1_565 S
C491 C492 1.334 . S
C492 H463 0.950 . S
C492 C491 1.334 . S
C492 C493 1.287 . S
C493 C492 1.287 . S
C493 C494 1.524 . S
C493 H496 0.999 . S
C494 H464 0.950 . S
C494 C493 1.524 . S
C494 C495 1.415 1_565 S
C495 H465 0.950 . S
C495 C490 1.363 . S
C495 C494 1.415 1_545 S
H496 C493 0.999 . S
H497 C478 0.913 . S
H498 C516 0.951 . S
H499 C518 0.951 . S
H500 C520 0.950 . S
H501 C521 0.950 . S
H502 C523 0.950 . S
H503 C526 0.950 . S
H504 C527 0.950 . S
H505 C529 0.950 . S
H506 C530 0.950 . S
H507 C531 0.951 . S
H508 C533 0.951 . S
H509 C535 0.950 . S
H510 C536 0.950 . S
H511 C538 0.950 . S
H512 C541 0.950 . S
H513 C542 0.950 . S
H514 C544 0.951 . S
H515 C545 0.950 . S
C516 H498 0.951 . S
C516 C517 1.366 . S
C516 C518 1.388 . S
C517 C516 1.366 . S
C517 C521 1.385 . S
C518 H499 0.951 . S
C518 C516 1.388 . S
C518 C519 1.366 . S
C519 C518 1.366 . S
C519 C520 1.414 . S
C519 C522 1.499 . S
C520 H500 0.950 . S
C520 C519 1.414 . S
C520 C521 1.374 . S
C521 H501 0.950 . S
C521 C517 1.385 . S
C521 C520 1.374 . S
C522 C519 1.499 . S
C522 C523 1.373 . S
C522 C524 1.389 . S
C523 H502 0.950 . S
C523 C522 1.373 . S
C523 C539 1.377 . S
C524 C522 1.389 . S
C524 C525 1.524 . S
C524 C538 1.377 . S
C525 C524 1.524 . S
C525 C526 1.397 . S
C525 C530 1.363 . S
C526 H503 0.950 . S
C526 C525 1.397 . S
C526 C527 1.334 . S
C527 H504 0.950 . S
C527 C526 1.334 . S
C527 C528 1.287 . S
C528 C527 1.287 . S
C528 C529 1.524 . S
C528 H547 0.913 . S
C529 H505 0.950 . S
C529 C528 1.524 . S
C529 C530 1.415 . S
C530 H506 0.950 . S
C530 C525 1.363 . S
C530 C529 1.415 . S
C531 H507 0.951 . S
C531 C532 1.366 . S
C531 C533 1.388 . S
C532 C531 1.366 . S
C532 C536 1.385 . S
C533 H508 0.951 . S
C533 C531 1.388 . S
C533 C534 1.366 . S
C534 C533 1.366 . S
C534 C535 1.414 . S
C534 C537 1.499 . S
C535 H509 0.950 . S
C535 C534 1.414 . S
C535 C536 1.374 . S
C536 H510 0.950 . S
C536 C532 1.385 . S
C536 C535 1.374 . S
C537 C534 1.499 . S
C537 C538 1.373 . S
C537 C539 1.389 . S
C538 H511 0.950 . S
C538 C524 1.377 . S
C538 C537 1.373 . S
C539 C523 1.377 . S
C539 C537 1.389 . S
C539 C540 1.524 . S
C540 C539 1.524 . S
C540 C541 1.397 . S
C540 C545 1.363 . S
C541 H512 0.950 . S
C541 C540 1.397 . S
C541 C542 1.334 1_455 S
C542 H513 0.950 . S
C542 C541 1.334 1_655 S
C542 C543 1.287 . S
C543 C542 1.287 . S
C543 C544 1.524 1_655 S
C543 H546 0.999 . S
C544 H514 0.951 . S
C544 C543 1.524 1_455 S
C544 C545 1.415 . S
C545 H515 0.950 . S
C545 C540 1.363 . S
C545 C544 1.415 . S
H546 C543 0.999 . S
H547 C528 0.913 . S
H548 C566 0.951 . S
H549 C568 0.951 1_556 S
H550 C570 0.950 . S
H551 C571 0.950 . S
H552 C573 0.950 . S
H553 C576 0.950 1_554 S
H554 C577 0.950 1_554 S
H555 C579 0.950 . S
H556 C580 0.950 . S
H557 C581 0.951 . S
H558 C583 0.951 . S
H559 C585 0.950 . S
H560 C586 0.950 1_655 S
H561 C588 0.950 . S
H562 C591 0.950 . S
H563 C592 0.950 . S
H564 C594 0.950 . S
H565 C595 0.950 1_655 S
C566 H548 0.951 . S
C566 C567 1.366 . S
C566 C568 1.388 . S
C567 C566 1.366 . S
C567 C571 1.385 . S
C568 H549 0.951 1_554 S
C568 C566 1.388 . S
C568 C569 1.366 . S
C569 C568 1.366 . S
C569 C570 1.414 . S
C569 C572 1.499 1_554 S
C570 H550 0.950 . S
C570 C569 1.414 . S
C570 C571 1.374 . S
C571 H551 0.950 . S
C571 C567 1.385 . S
C571 C570 1.374 . S
C572 C569 1.499 1_556 S
C572 C573 1.373 . S
C572 C574 1.389 . S
C573 H552 0.950 . S
C573 C572 1.373 . S
C573 C589 1.377 . S
C574 C572 1.389 . S
C574 C575 1.524 . S
C574 C588 1.377 . S
C575 C574 1.524 . S
C575 C576 1.397 . S
C575 C580 1.363 . S
C576 H553 0.950 1_556 S
C576 C575 1.397 . S
C576 C577 1.334 . S
C577 H554 0.950 1_556 S
C577 C576 1.334 . S
C577 C578 1.287 . S
C578 C577 1.287 . S
C578 C579 1.524 . S
C578 H597 0.913 . S
C579 H555 0.950 . S
C579 C578 1.524 . S
C579 C580 1.415 . S
C580 H556 0.950 . S
C580 C575 1.363 . S
C580 C579 1.415 . S
C581 H557 0.951 . S
C581 C582 1.366 . S
C581 C583 1.388 . S
C582 C581 1.366 . S
C582 C586 1.385 . S
C583 H558 0.951 . S
C583 C581 1.388 . S
C583 C584 1.366 1_455 S
C584 C583 1.366 1_655 S
C584 C585 1.414 . S
C584 C587 1.499 . S
C585 H559 0.950 . S
C585 C584 1.414 . S
C585 C586 1.374 1_655 S
C586 H560 0.950 1_455 S
C586 C582 1.385 . S
C586 C585 1.374 1_455 S
C587 C584 1.499 . S
C587 C588 1.373 . S
C587 C589 1.389 . S
C588 H561 0.950 . S
C588 C574 1.377 . S
C588 C587 1.373 . S
C589 C573 1.377 . S
C589 C587 1.389 . S
C589 C590 1.524 . S
C590 C589 1.524 . S
C590 C591 1.397 . S
C590 C595 1.363 1_655 S
C591 H562 0.950 . S
C591 C590 1.397 . S
C591 C592 1.334 1_655 S
C592 H563 0.950 . S
C592 C591 1.334 1_455 S
C592 C593 1.287 . S
C593 C592 1.287 . S
C593 C594 1.524 . S
C593 H596 0.999 . S
C594 H564 0.950 . S
C594 C593 1.524 . S
C594 C595 1.415 . S
C595 H565 0.950 1_455 S
C595 C590 1.363 1_455 S
C595 C594 1.415 . S
H596 C593 0.999 . S
H597 C578 0.913 . S
H598 C616 0.951 . S
H599 C618 0.951 . S
H600 C620 0.950 . S
H601 C621 0.950 . S
H602 C623 0.950 . S
H603 C626 0.950 . S
H604 C627 0.950 . S
H605 C629 0.950 . S
H606 C630 0.950 . S
H607 C631 0.951 . S
H608 C633 0.951 . S
H609 C635 0.950 . S
H610 C636 0.950 . S
H611 C638 0.950 . S
H612 C641 0.950 . S
H613 C642 0.950 . S
H614 C644 0.950 . S
H615 C645 0.950 1_554 S
C616 H598 0.951 . S
C616 C617 1.366 . S
C616 C618 1.388 . S
C617 C616 1.366 . S
C617 C621 1.385 1_556 S
C618 H599 0.951 . S
C618 C616 1.388 . S
C618 C619 1.367 . S
C619 C618 1.367 . S
C619 C620 1.412 1_556 S
C619 C622 1.499 1_556 S
C620 H600 0.950 . S
C620 C619 1.412 1_554 S
C620 C621 1.374 . S
C621 H601 0.950 . S
C621 C617 1.385 1_554 S
C621 C620 1.374 . S
C622 C619 1.499 1_554 S
C622 C623 1.373 1_554 S
C622 C624 1.389 . S
C623 H602 0.950 . S
C623 C622 1.373 1_556 S
C623 C639 1.377 . S
C624 C622 1.389 . S
C624 C625 1.524 . S
C624 C638 1.377 . S
C625 C624 1.524 . S
C625 C626 1.397 . S
C625 C630 1.363 . S
C626 H603 0.950 . S
C626 C625 1.397 . S
C626 C627 1.334 . S
C627 H604 0.950 . S
C627 C626 1.334 . S
C627 C628 1.287 . S
C628 C627 1.287 . S
C628 C629 1.524 . S
C628 H647 0.913 . S
C629 H605 0.950 . S
C629 C628 1.524 . S
C629 C630 1.415 . S
C630 H606 0.950 . S
C630 C625 1.363 . S
C630 C629 1.415 . S
C631 H607 0.951 . S
C631 C632 1.366 . S
C631 C633 1.388 . S
C632 C631 1.366 . S
C632 C636 1.385 1_554 S
C633 H608 0.951 . S
C633 C631 1.388 . S
C633 C634 1.366 . S
C634 C633 1.366 . S
C634 C635 1.414 1_554 S
C634 C637 1.499 . S
C635 H609 0.950 . S
C635 C634 1.414 1_556 S
C635 C636 1.374 . S
C636 H610 0.950 . S
C636 C632 1.385 1_556 S
C636 C635 1.374 . S
C637 C634 1.499 . S
C637 C638 1.373 . S
C637 C639 1.389 1_554 S
C638 H611 0.950 . S
C638 C624 1.377 . S
C638 C637 1.373 . S
C639 C623 1.377 . S
C639 C637 1.389 1_556 S
C639 C640 1.524 . S
C640 C639 1.524 . S
C640 C641 1.397 . S
C640 C645 1.363 . S
C641 H612 0.950 . S
C641 C640 1.397 . S
C641 C642 1.334 . S
C642 H613 0.950 . S
C642 C641 1.334 . S
C642 C643 1.287 . S
C643 C642 1.287 . S
C643 C644 1.524 . S
C643 H646 0.999 . S
C644 H614 0.950 . S
C644 C643 1.524 . S
C644 C645 1.415 . S
C645 H615 0.950 1_556 S
C645 C640 1.363 . S
C645 C644 1.415 . S
H646 C643 0.999 . S
H647 C628 0.913 . S
H648 C666 0.951 1_556 S
H649 C668 0.951 . S
H650 C670 0.950 . S
H651 C671 0.950 . S
H652 C673 0.950 . S
H653 C676 0.950 . S
H654 C677 0.950 . S
H655 C679 0.950 . S
H656 C680 0.950 . S
H657 C681 0.951 . S
H658 C683 0.951 . S
H659 C685 0.950 . S
H660 C686 0.950 . S
H661 C688 0.950 . S
H662 C691 0.950 . S
H663 C692 0.950 . S
H664 C694 0.950 . S
H665 C695 0.950 . S
C666 H648 0.951 1_554 S
C666 C667 1.366 . S
C666 C668 1.388 . S
C667 C666 1.366 . S
C667 C671 1.385 . S
C668 H649 0.951 . S
C668 C666 1.388 . S
C668 C669 1.366 . S
C669 C668 1.366 . S
C669 C670 1.414 . S
C669 C672 1.499 . S
C670 H650 0.950 . S
C670 C669 1.414 . S
C670 C671 1.374 . S
C671 H651 0.950 . S
C671 C667 1.385 . S
C671 C670 1.374 . S
C672 C669 1.499 . S
C672 C673 1.373 . S
C672 C674 1.389 . S
C673 H652 0.950 . S
C673 C672 1.373 . S
C673 C689 1.377 . S
C674 C672 1.389 . S
C674 C675 1.524 . S
C674 C688 1.377 . S
C675 C674 1.524 . S
C675 C676 1.397 . S
C675 C680 1.363 . S
C676 H653 0.950 . S
C676 C675 1.397 . S
C676 C677 1.334 . S
C677 H654 0.950 . S
C677 C676 1.334 . S
C677 C678 1.287 . S
C678 C677 1.287 . S
C678 C679 1.524 . S
C678 H697 0.913 1_565 S
C679 H655 0.950 . S
C679 C678 1.524 . S
C679 C680 1.415 . S
C680 H656 0.950 . S
C680 C675 1.363 . S
C680 C679 1.415 . S
C681 H657 0.951 . S
C681 C682 1.366 . S
C681 C683 1.388 . S
C682 C681 1.366 . S
C682 C686 1.385 . S
C683 H658 0.951 . S
C683 C681 1.388 . S
C683 C684 1.366 . S
C684 C683 1.366 . S
C684 C685 1.414 . S
C684 C687 1.499 . S
C685 H659 0.950 . S
C685 C684 1.414 . S
C685 C686 1.374 . S
C686 H660 0.950 . S
C686 C682 1.385 . S
C686 C685 1.374 . S
C687 C684 1.499 . S
C687 C688 1.373 . S
C687 C689 1.389 . S
C688 H661 0.950 . S
C688 C674 1.377 . S
C688 C687 1.373 . S
C689 C673 1.377 . S
C689 C687 1.389 . S
C689 C690 1.524 . S
C690 C689 1.524 . S
C690 C691 1.397 . S
C690 C695 1.363 . S
C691 H662 0.950 . S
C691 C690 1.397 . S
C691 C692 1.334 . S
C692 H663 0.950 . S
C692 C691 1.334 . S
C692 C693 1.287 . S
C693 C692 1.287 . S
C693 C694 1.524 . S
C693 H696 0.999 . S
C694 H664 0.950 . S
C694 C693 1.524 . S
C694 C695 1.415 . S
C695 H665 0.950 . S
C695 C690 1.363 . S
C695 C694 1.415 . S
H696 C693 0.999 . S
H697 C678 0.913 1_545 S
H698 C716 0.951 . S
H699 C718 0.951 . S
H700 C720 0.950 . S
H701 C721 0.950 . S
H702 C723 0.950 . S
H703 C726 0.950 . S
H704 C727 0.950 . S
H705 C729 0.950 . S
H706 C730 0.950 . S
H707 C731 0.951 . S
H708 C733 0.951 . S
H709 C735 0.950 . S
H710 C736 0.950 . S
H711 C738 0.950 . S
H712 C741 0.950 . S
H713 C742 0.950 1_556 S
H714 C744 0.950 . S
H715 C745 0.950 . S
C716 H698 0.951 . S
C716 C717 1.366 . S
C716 C718 1.388 . S
C717 C716 1.366 . S
C717 C721 1.385 . S
C718 H699 0.951 . S
C718 C716 1.388 . S
C718 C719 1.366 . S
C719 C718 1.366 . S
C719 C720 1.414 . S
C719 C722 1.499 . S
C720 H700 0.950 . S
C720 C719 1.414 . S
C720 C721 1.374 . S
C721 H701 0.950 . S
C721 C717 1.385 . S
C721 C720 1.374 . S
C722 C719 1.499 . S
C722 C723 1.373 . S
C722 C724 1.389 . S
C723 H702 0.950 . S
C723 C722 1.373 . S
C723 C739 1.377 . S
C724 C722 1.389 . S
C724 C725 1.524 . S
C724 C738 1.377 . S
C725 C724 1.524 . S
C725 C726 1.397 . S
C725 C730 1.363 . S
C726 H703 0.950 . S
C726 C725 1.397 . S
C726 C727 1.334 . S
C727 H704 0.950 . S
C727 C726 1.334 . S
C727 C728 1.287 . S
C728 C727 1.287 . S
C728 C729 1.524 . S
C728 H747 0.913 . S
C729 H705 0.950 . S
C729 C728 1.524 . S
C729 C730 1.415 . S
C730 H706 0.950 . S
C730 C725 1.363 . S
C730 C729 1.415 . S
C731 H707 0.951 . S
C731 C732 1.366 . S
C731 C733 1.388 . S
C732 C731 1.366 . S
C732 C736 1.385 . S
C733 H708 0.951 . S
C733 C731 1.388 . S
C733 C734 1.366 . S
C734 C733 1.366 . S
C734 C735 1.414 . S
C734 C737 1.499 . S
C735 H709 0.950 . S
C735 C734 1.414 . S
C735 C736 1.374 . S
C736 H710 0.950 . S
C736 C732 1.385 . S
C736 C735 1.374 . S
C737 C734 1.499 . S
C737 C738 1.373 . S
C737 C739 1.389 . S
C738 H711 0.950 . S
C738 C724 1.377 . S
C738 C737 1.373 . S
C739 C723 1.377 . S
C739 C737 1.389 . S
C739 C740 1.524 . S
C740 C739 1.524 . S
C740 C741 1.397 . S
C740 C745 1.363 . S
C741 H712 0.950 . S
C741 C740 1.397 . S
C741 C742 1.334 . S
C742 H713 0.950 1_554 S
C742 C741 1.334 . S
C742 C743 1.287 . S
C743 C742 1.287 . S
C743 C744 1.524 . S
C743 H746 0.999 . S
C744 H714 0.950 . S
C744 C743 1.524 . S
C744 C745 1.415 . S
C745 H715 0.950 . S
C745 C740 1.363 . S
C745 C744 1.415 . S
H746 C743 0.999 . S
H747 C728 0.913 . S
H748 C766 0.951 . S
H749 C768 0.951 . S
H750 C770 0.950 . S
H751 C771 0.950 . S
H752 C773 0.950 . S
H753 C776 0.950 . S
H754 C777 0.950 . S
H755 C779 0.950 1_455 S
H756 C780 0.950 . S
H757 C781 0.951 . S
H758 C783 0.951 . S
H759 C785 0.950 . S
H760 C786 0.950 1_545 S
H761 C788 0.950 . S
H762 C791 0.950 . S
H763 C792 0.950 . S
H764 C794 0.950 . S
H765 C795 0.950 . S
C766 H748 0.951 . S
C766 C767 1.366 . S
C766 C768 1.388 . S
C767 C766 1.366 . S
C767 C771 1.385 . S
C768 H749 0.951 . S
C768 C766 1.388 . S
C768 C769 1.366 1_455 S
C769 C768 1.366 1_655 S
C769 C770 1.414 . S
C769 C772 1.499 . S
C770 H750 0.950 . S
C770 C769 1.414 . S
C770 C771 1.374 1_655 S
C771 H751 0.950 . S
C771 C767 1.385 . S
C771 C770 1.374 1_455 S
C772 C769 1.499 . S
C772 C773 1.373 . S
C772 C774 1.389 . S
C773 H752 0.950 . S
C773 C772 1.373 . S
C773 C789 1.377 . S
C774 C772 1.389 . S
C774 C775 1.524 . S
C774 C788 1.377 . S
C775 C774 1.524 . S
C775 C776 1.397 . S
C775 C780 1.363 . S
C776 H753 0.950 . S
C776 C775 1.397 . S
C776 C777 1.334 . S
C777 H754 0.950 . S
C777 C776 1.334 . S
C777 C778 1.273 1_655 S
C778 C777 1.273 1_455 S
C778 C779 1.515 1_455 S
C778 H797 0.942 . S
C779 H755 0.950 1_655 S
C779 C778 1.515 1_655 S
C779 C780 1.415 . S
C780 H756 0.950 . S
C780 C775 1.363 . S
C780 C779 1.415 . S
C781 H757 0.951 . S
C781 C782 1.366 . S
C781 C783 1.388 . S
C782 C781 1.366 . S
C782 C786 1.385 . S
C783 H758 0.951 . S
C783 C781 1.388 . S
C783 C784 1.366 . S
C784 C783 1.366 . S
C784 C785 1.414 . S
C784 C787 1.499 . S
C785 H759 0.950 . S
C785 C784 1.414 . S
C785 C786 1.374 . S
C786 H760 0.950 1_565 S
C786 C782 1.385 . S
C786 C785 1.374 . S
C787 C784 1.499 . S
C787 C788 1.373 . S
C787 C789 1.389 . S
C788 H761 0.950 . S
C788 C774 1.377 . S
C788 C787 1.373 . S
C789 C773 1.377 . S
C789 C787 1.389 . S
C789 C790 1.524 . S
C790 C789 1.524 . S
C790 C791 1.397 . S
C790 C795 1.363 . S
C791 H762 0.950 . S
C791 C790 1.397 . S
C791 C792 1.334 . S
C792 H763 0.950 . S
C792 C791 1.334 . S
C792 C793 1.287 . S
C793 C792 1.287 . S
C793 C794 1.524 . S
C793 H796 0.999 . S
C794 H764 0.950 . S
C794 C793 1.524 . S
C794 C795 1.415 . S
C795 H765 0.950 . S
C795 C790 1.363 . S
C795 C794 1.415 . S
H796 C793 0.999 . S
H797 C778 0.942 . S
H798 C816 0.951 . S
H799 C818 0.951 . S
H800 C820 0.950 . S
H801 C821 0.950 . S
H802 C823 0.950 . S
H803 C826 0.950 . S
H804 C827 0.950 . S
H805 C829 0.950 . S
H806 C830 0.950 . S
H807 C831 0.951 . S
H808 C833 0.951 . S
H809 C835 0.950 . S
H810 C836 0.950 . S
H811 C838 0.950 . S
H812 C841 0.950 . S
H813 C842 0.950 . S
H814 C844 0.950 . S
H815 C845 0.950 . S
C816 H798 0.951 . S
C816 C817 1.366 . S
C816 C818 1.388 . S
C817 C816 1.366 . S
C817 C821 1.385 . S
C818 H799 0.951 . S
C818 C816 1.388 . S
C818 C819 1.366 . S
C819 C818 1.366 . S
C819 C820 1.414 . S
C819 C822 1.499 . S
C820 H800 0.950 . S
C820 C819 1.414 . S
C820 C821 1.374 . S
C821 H801 0.950 . S
C821 C817 1.385 . S
C821 C820 1.374 . S
C822 C819 1.499 . S
C822 C823 1.373 . S
C822 C824 1.389 . S
C823 H802 0.950 . S
C823 C822 1.373 . S
C823 C839 1.377 . S
C824 C822 1.389 . S
C824 C825 1.524 . S
C824 C838 1.377 . S
C825 C824 1.524 . S
C825 C826 1.397 . S
C825 C830 1.363 . S
C826 H803 0.950 . S
C826 C825 1.397 . S
C826 C827 1.334 1_545 S
C827 H804 0.950 . S
C827 C826 1.334 1_565 S
C827 C828 1.287 . S
C828 C827 1.287 . S
C828 C829 1.524 1_565 S
C828 H847 0.913 . S
C829 H805 0.950 . S
C829 C828 1.524 1_545 S
C829 C830 1.415 . S
C830 H806 0.950 . S
C830 C825 1.363 . S
C830 C829 1.415 . S
C831 H807 0.951 . S
C831 C832 1.366 . S
C831 C833 1.388 . S
C832 C831 1.366 . S
C832 C836 1.385 1_455 S
C833 H808 0.951 . S
C833 C831 1.388 . S
C833 C834 1.366 . S
C834 C833 1.366 . S
C834 C835 1.414 . S
C834 C837 1.499 . S
C835 H809 0.950 . S
C835 C834 1.414 . S
C835 C836 1.374 1_455 S
C836 H810 0.950 . S
C836 C832 1.385 1_655 S
C836 C835 1.374 1_655 S
C837 C834 1.499 . S
C837 C838 1.373 . S
C837 C839 1.389 . S
C838 H811 0.950 . S
C838 C824 1.377 . S
C838 C837 1.373 . S
C839 C823 1.377 . S
C839 C837 1.389 . S
C839 C840 1.524 . S
C840 C839 1.524 . S
C840 C841 1.397 . S
C840 C845 1.363 . S
C841 H812 0.950 . S
C841 C840 1.397 . S
C841 C842 1.334 . S
C842 H813 0.950 . S
C842 C841 1.334 . S
C842 C843 1.287 . S
C843 C842 1.287 . S
C843 C844 1.524 . S
C843 H846 0.999 . S
C844 H814 0.950 . S
C844 C843 1.524 . S
C844 C845 1.415 . S
C845 H815 0.950 . S
C845 C840 1.363 . S
C845 C844 1.415 . S
H846 C843 0.999 . S
H847 C828 0.913 . S
H848 C866 0.951 . S
H849 C868 0.951 . S
H850 C870 0.950 . S
H851 C871 0.950 . S
H852 C873 0.950 . S
H853 C876 0.950 . S
H854 C877 0.950 . S
H855 C879 0.950 . S
H856 C880 0.950 . S
H857 C881 0.971 . S
H858 C883 0.951 . S
H859 C885 0.950 . S
H860 C886 0.950 . S
H861 C888 0.950 . S
H862 C891 0.950 . S
H863 C892 0.950 . S
H864 C894 0.950 . S
H865 C895 0.949 1_554 S
C866 H848 0.951 . S
C866 C867 1.366 . S
C866 C868 1.388 . S
C867 C866 1.366 . S
C867 C871 1.385 . S
C868 H849 0.951 . S
C868 C866 1.388 . S
C868 C869 1.366 . S
C869 C868 1.366 . S
C869 C870 1.414 . S
C869 C872 1.499 . S
C870 H850 0.950 . S
C870 C869 1.414 . S
C870 C871 1.374 . S
C871 H851 0.950 . S
C871 C867 1.385 . S
C871 C870 1.374 . S
C872 C869 1.499 . S
C872 C873 1.373 . S
C872 C874 1.389 . S
C873 H852 0.950 . S
C873 C872 1.373 . S
C873 C889 1.377 . S
C874 C872 1.389 . S
C874 C875 1.524 . S
C874 C888 1.377 . S
C875 C874 1.524 . S
C875 C876 1.397 . S
C875 C880 1.363 . S
C876 H853 0.950 . S
C876 C875 1.397 . S
C876 C877 1.334 1_545 S
C877 H854 0.950 . S
C877 C876 1.334 1_565 S
C877 C878 1.287 . S
C878 C877 1.287 . S
C878 C879 1.524 1_565 S
C878 H897 0.913 . S
C879 H855 0.950 . S
C879 C878 1.524 1_545 S
C879 C880 1.415 . S
C880 H856 0.950 . S
C880 C875 1.363 . S
C880 C879 1.415 . S
C881 H857 0.971 . S
C881 C882 1.364 1_556 S
C881 C883 1.370 1_556 S
C882 C881 1.364 1_554 S
C882 C886 1.385 . S
C883 H858 0.951 . S
C883 C881 1.370 1_554 S
C883 C884 1.366 . S
C884 C883 1.366 . S
C884 C885 1.414 . S
C884 C887 1.499 . S
C885 H859 0.950 . S
C885 C884 1.414 . S
C885 C886 1.374 . S
C886 H860 0.950 . S
C886 C882 1.385 . S
C886 C885 1.374 . S
C887 C884 1.499 . S
C887 C888 1.373 . S
C887 C889 1.389 . S
C888 H861 0.950 . S
C888 C874 1.377 . S
C888 C887 1.373 . S
C889 C873 1.377 . S
C889 C887 1.389 . S
C889 C890 1.524 . S
C890 C889 1.524 . S
C890 C891 1.397 . S
C890 C895 1.361 1_554 S
C891 H862 0.950 . S
C891 C890 1.397 . S
C891 C892 1.334 1_554 S
C892 H863 0.950 . S
C892 C891 1.334 1_556 S
C892 C893 1.287 . S
C893 C892 1.287 . S
C893 C894 1.524 . S
C893 H896 0.999 . S
C894 H864 0.950 . S
C894 C893 1.524 . S
C894 C895 1.419 . S
C895 H865 0.949 1_556 S
C895 C890 1.361 1_556 S
C895 C894 1.419 . S
H896 C893 0.999 . S
H897 C878 0.913 . S
H898 C916 0.951 . S
H899 C918 0.951 . S
H900 C920 0.950 . S
H901 C921 0.950 . S
H902 C923 0.950 . S
H903 C926 0.950 . S
H904 C927 0.950 . S
H905 C929 0.950 . S
H906 C930 0.950 . S
H907 C931 0.951 1_655 S
H908 C933 0.951 . S
H909 C935 0.950 . S
H910 C936 0.950 . S
H911 C938 0.950 . S
H912 C941 0.950 . S
H913 C942 0.950 . S
H914 C944 0.950 1_655 S
H915 C945 0.950 . S
C916 H898 0.951 . S
C916 C917 1.366 . S
C916 C918 1.388 . S
C917 C916 1.366 . S
C917 C921 1.385 . S
C918 H899 0.951 . S
C918 C916 1.388 . S
C918 C919 1.366 . S
C919 C918 1.366 . S
C919 C920 1.414 . S
C919 C922 1.499 . S
C920 H900 0.950 . S
C920 C919 1.414 . S
C920 C921 1.374 . S
C921 H901 0.950 . S
C921 C917 1.385 . S
C921 C920 1.374 . S
C922 C919 1.499 . S
C922 C923 1.373 . S
C922 C924 1.389 . S
C923 H902 0.950 . S
C923 C922 1.373 . S
C923 C939 1.377 . S
C924 C922 1.389 . S
C924 C925 1.524 . S
C924 C938 1.377 . S
C925 C924 1.524 . S
C925 C926 1.397 . S
C925 C930 1.363 . S
C926 H903 0.950 . S
C926 C925 1.397 . S
C926 C927 1.334 . S
C927 H904 0.950 . S
C927 C926 1.334 . S
C927 C928 1.287 1_554 S
C928 C927 1.287 1_556 S
C928 C929 1.524 . S
C928 H947 0.913 . S
C929 H905 0.950 . S
C929 C928 1.524 . S
C929 C930 1.415 1_556 S
C930 H906 0.950 . S
C930 C925 1.363 . S
C930 C929 1.415 1_554 S
C931 H907 0.951 1_455 S
C931 C932 1.366 . S
C931 C933 1.388 . S
C932 C931 1.366 . S
C932 C936 1.385 . S
C933 H908 0.951 . S
C933 C931 1.388 . S
C933 C934 1.366 . S
C934 C933 1.366 . S
C934 C935 1.414 . S
C934 C937 1.499 . S
C935 H909 0.950 . S
C935 C934 1.414 . S
C935 C936 1.374 . S
C936 H910 0.950 . S
C936 C932 1.385 . S
C936 C935 1.374 . S
C937 C934 1.499 . S
C937 C938 1.373 . S
C937 C939 1.389 . S
C938 H911 0.950 . S
C938 C924 1.377 . S
C938 C937 1.373 . S
C939 C923 1.377 . S
C939 C937 1.389 . S
C939 C940 1.524 . S
C940 C939 1.524 . S
C940 C941 1.397 . S
C940 C945 1.363 . S
C941 H912 0.950 . S
C941 C940 1.397 . S
C941 C942 1.334 . S
C942 H913 0.950 . S
C942 C941 1.334 . S
C942 C943 1.287 . S
C943 C942 1.287 . S
C943 C944 1.524 . S
C943 H946 0.999 . S
C944 H914 0.950 1_455 S
C944 C943 1.524 . S
C944 C945 1.415 . S
C945 H915 0.950 . S
C945 C940 1.363 . S
C945 C944 1.415 . S
H946 C943 0.999 . S
H947 C928 0.913 . S
C217 C117 1.369 . S
C232 N13 1.216 . S
C267 C150 0.414 . S
C282 C18 0.416 . S
C317 N2 0.622 . S
C332 N178 0.587 . S
C367 N68 1.086 . S
C382 C7 1.217 . S
C417 N167 1.084 . S
C432 C51 1.231 . S
C467 N79 0.624 . S
C482 N46 0.626 . S
C517 C40 0.608 . S
C532 C106 0.616 . S
C567 C139 1.217 . S
C582 N35 1.086 . S
C617 C84 1.231 . S
C632 N101 1.086 . S
C667 C73 0.611 . S
C682 C172 0.615 . S
C717 N134 0.622 . S
C732 N112 0.587 . S
C767 C183 1.369 . S
C782 N145 1.216 . S
C817 C54 0.810 . S
C832 C21 0.810 . S
C867 C153 0.808 . S
C882 C87 0.808 . S
C917 C186 0.772 . S
C932 C120 0.772 . S
