# Generated by pormake.
# Topology wjh, (4)-cn, num edge types: 1
# Building blocks:
#     Node 0, Type 0, BuildingBlock: QUQFOY_clean_sbu_3, # of connection points: 4
#     Node 1, Type 0, BuildingBlock: QUQFOY_clean_sbu_3, # of connection points: 4
#     Node 2, Type 0, BuildingBlock: QUQFOY_clean_sbu_3, # of connection points: 4
#     Node 3, Type 0, BuildingBlock: QUQFOY_clean_sbu_3, # of connection points: 4
#     Node 4, Type 0, BuildingBlock: QUQFOY_clean_sbu_3, # of connection points: 4
#     Node 5, Type 0, BuildingBlock: QUQFOY_clean_sbu_3, # of connection points: 4
#     Node 6, Type 0, BuildingBlock: QUQFOY_clean_sbu_3, # of connection points: 4
#     Node 7, Type 0, BuildingBlock: QUQFOY_clean_sbu_3, # of connection points: 4
#     Node 8, Type 0, BuildingBlock: QUQFOY_clean_sbu_3, # of connection points: 4
#     Node 9, Type 0, BuildingBlock: QUQFOY_clean_sbu_3, # of connection points: 4
#     Node 10, Type 0, BuildingBlock: QUQFOY_clean_sbu_3, # of connection points: 4
#     Node 11, Type 0, BuildingBlock: QUQFOY_clean_sbu_3, # of connection points: 4
#     Edge 12, Type (0, 0), BuildingBlock: EZIPEK_clean_linker_0, # of connection points: 2
#     Edge 13, Type (0, 0), BuildingBlock: EZIPEK_clean_linker_0, # of connection points: 2
#     Edge 14, Type (0, 0), BuildingBlock: EZIPEK_clean_linker_0, # of connection points: 2
#     Edge 15, Type (0, 0), BuildingBlock: EZIPEK_clean_linker_0, # of connection points: 2
#     Edge 16, Type (0, 0), BuildingBlock: EZIPEK_clean_linker_0, # of connection points: 2
#     Edge 17, Type (0, 0), BuildingBlock: EZIPEK_clean_linker_0, # of connection points: 2
#     Edge 18, Type (0, 0), BuildingBlock: EZIPEK_clean_linker_0, # of connection points: 2
#     Edge 19, Type (0, 0), BuildingBlock: EZIPEK_clean_linker_0, # of connection points: 2
#     Edge 20, Type (0, 0), BuildingBlock: EZIPEK_clean_linker_0, # of connection points: 2
#     Edge 21, Type (0, 0), BuildingBlock: EZIPEK_clean_linker_0, # of connection points: 2
#     Edge 22, Type (0, 0), BuildingBlock: EZIPEK_clean_linker_0, # of connection points: 2
#     Edge 23, Type (0, 0), BuildingBlock: EZIPEK_clean_linker_0, # of connection points: 2
#     Edge 24, Type (0, 0), BuildingBlock: EZIPEK_clean_linker_0, # of connection points: 2
#     Edge 25, Type (0, 0), BuildingBlock: EZIPEK_clean_linker_0, # of connection points: 2
#     Edge 26, Type (0, 0), BuildingBlock: EZIPEK_clean_linker_0, # of connection points: 2
#     Edge 27, Type (0, 0), BuildingBlock: EZIPEK_clean_linker_0, # of connection points: 2
#     Edge 28, Type (0, 0), BuildingBlock: EZIPEK_clean_linker_0, # of connection points: 2
#     Edge 29, Type (0, 0), BuildingBlock: EZIPEK_clean_linker_0, # of connection points: 2
#     Edge 30, Type (0, 0), BuildingBlock: EZIPEK_clean_linker_0, # of connection points: 2
#     Edge 31, Type (0, 0), BuildingBlock: EZIPEK_clean_linker_0, # of connection points: 2
#     Edge 32, Type (0, 0), BuildingBlock: EZIPEK_clean_linker_0, # of connection points: 2
#     Edge 33, Type (0, 0), BuildingBlock: EZIPEK_clean_linker_0, # of connection points: 2
#     Edge 34, Type (0, 0), BuildingBlock: EZIPEK_clean_linker_0, # of connection points: 2
#     Edge 35, Type (0, 0), BuildingBlock: EZIPEK_clean_linker_0, # of connection points: 2
# Relax obj value: 0.073
# Max RMSD: 0.098
# Mean RMSD: 0.098
data_MOF--net-wjh--node1-QUQFOY_clean_sbu_3--edge1-EZIPEK_clean_linker_0
_symmetry_space_group_name_H-M    P1
_symmetry_Int_Tables_number       1
_symmetry_cell_setting            triclinic
loop_
_symmetry_equiv_pos_as_xyz
'x, y, z'
_cell_length_a     46.884399
_cell_length_b     46.756449
_cell_length_c     20.032167
_cell_angle_alpha  89.770534
_cell_angle_beta   90.013936
_cell_angle_gamma 120.25162
loop_
_atom_site_label
_atom_site_type_symbol
_atom_site_fract_x
_atom_site_fract_y
_atom_site_fract_z
_atom_type_partial_charge
C0 C 0.54467 0.15824 0.89048 0.0
O1 O 0.56346 0.14902 0.91615 0.0
Cd2 Cd 0.56322 0.13127 0.02684 0.0
O3 O 0.5228 0.16014 0.92508 0.0
Cd4 Cd 0.50499 0.14895 0.04489 0.0
C5 C 0.48208 0.0684 0.03003 0.0
O6 O 0.55926 0.17019 0.09518 0.0
O7 O 0.51753 0.13958 0.1581 0.0
O8 O 0.49927 0.19725 0.06036 0.0
C9 C 0.54848 0.15818 0.15245 0.0
O10 O 0.51264 0.07765 0.03232 0.0
C11 C 0.47038 0.18143 0.08488 0.0
O12 O 0.472 0.0891 0.0295 0.0
O13 O 0.45623 0.15007 0.08601 0.0
C14 C 0.41553 0.57746 0.12738 0.0
O15 O 0.43661 0.5913 0.17348 0.0
Cd16 Cd 0.43536 0.56251 0.2719 0.0
O17 O 0.38939 0.54944 0.13685 0.0
Cd18 Cd 0.36177 0.50975 0.23257 0.0
C19 C 0.4158 0.48628 0.20237 0.0
O20 O 0.38509 0.54629 0.3267 0.0
O21 O 0.3702 0.49521 0.34634 0.0
O22 O 0.31228 0.51361 0.22202 0.0
C23 C 0.37974 0.52389 0.36888 0.0
O24 O 0.43571 0.51321 0.23176 0.0
C25 C 0.29274 0.48387 0.23988 0.0
O26 O 0.38591 0.47812 0.19111 0.0
O27 O 0.30462 0.4648 0.24394 0.0
C28 C 0.83983 0.40909 0.27752 0.0
O29 O 0.84862 0.43191 0.3202 0.0
Cd30 Cd 0.86225 0.42634 0.42902 0.0
O31 O 0.83627 0.38093 0.29338 0.0
Cd32 Cd 0.84243 0.35812 0.40307 0.0
C33 C 0.92241 0.40788 0.39355 0.0
O34 O 0.81271 0.37772 0.46653 0.0
O35 O 0.85543 0.38262 0.51679 0.0
O36 O 0.7943 0.3025 0.39233 0.0
C37 C 0.82893 0.38372 0.51986 0.0
O38 O 0.91513 0.42839 0.41828 0.0
C39 C 0.80625 0.28864 0.42827 0.0
O40 O 0.90005 0.37887 0.37766 0.0
O41 O 0.83615 0.30629 0.44582 0.0
C42 C 0.41364 0.8398 0.45594 0.0
O43 O 0.39933 0.84659 0.50195 0.0
Cd44 Cd 0.41698 0.86125 0.61455 0.0
O45 O 0.4397 0.83822 0.467 0.0
Cd46 Cd 0.47666 0.84458 0.56331 0.0
C47 C 0.49534 0.92497 0.5729 0.0
O48 O 0.43244 0.82204 0.64113 0.0
O49 O 0.4799 0.83971 0.68609 0.0
O50 O 0.48392 0.79959 0.52525 0.0
C51 C 0.4491 0.82727 0.69367 0.0
O52 O 0.46682 0.91525 0.59761 0.0
C53 C 0.51454 0.81375 0.53921 0.0
O54 O 0.50444 0.90467 0.55494 0.0
O55 O 0.52795 0.84353 0.55877 0.0
C56 C 0.59446 0.4497 0.55145 0.0
O57 O 0.56773 0.43329 0.58396 0.0
Cd58 Cd 0.55792 0.43601 0.69947 0.0
O59 O 0.62116 0.47139 0.57949 0.0
Cd60 Cd 0.63704 0.49286 0.69659 0.0
C61 C 0.58116 0.51846 0.70644 0.0
O62 O 0.60506 0.43901 0.7489 0.0
O63 O 0.62644 0.4801 0.81642 0.0
O64 O 0.69161 0.49937 0.69529 0.0
C65 C 0.60997 0.44907 0.80841 0.0
O66 O 0.55868 0.48823 0.71204 0.0
C67 C 0.7061 0.52868 0.71806 0.0
O68 O 0.61121 0.52695 0.69653 0.0
O69 O 0.68926 0.54295 0.72291 0.0
C70 C 0.14892 0.59968 0.73961 0.0
O71 O 0.14265 0.57503 0.77635 0.0
Cd72 Cd 0.12632 0.56764 0.88927 0.0
O73 O 0.14873 0.62508 0.76262 0.0
Cd74 Cd 0.14106 0.64431 0.87488 0.0
C75 C 0.06146 0.58294 0.8701 0.0
O76 O 0.16526 0.61816 0.93849 0.0
O77 O 0.13746 0.6343 -0.00374 0.0
O78 O 0.18775 0.70012 0.8667 0.0
C79 C 0.15571 0.62154 -0.00477 0.0
O80 O 0.072 0.56307 0.88167 0.0
C81 C 0.17215 0.71422 0.88662 0.0
O82 O 0.0811 0.61394 0.86322 0.0
O83 O 0.14118 0.69604 0.89401 0.0
C84 C 0.83659 0.44334 0.00506 0.0
O85 O 0.84468 0.42567 0.97124 0.0
Cd86 Cd 0.85531 0.42901 0.85628 0.0
O87 O 0.83357 0.46658 0.97852 0.0
Cd88 Cd 0.84073 0.48843 0.86214 0.0
C89 C 0.92043 0.50796 0.85516 0.0
O90 O 0.8107 0.43389 0.81428 0.0
O91 O 0.83874 0.47299 0.74477 0.0
O92 O 0.79617 0.50028 0.86552 0.0
C93 C 0.8175 0.44278 0.75438 0.0
O94 O 0.9101 0.4775 0.84447 0.0
C95 C 0.81214 0.52802 0.83579 0.0
O96 O 0.90066 0.51835 0.86784 0.0
O97 O 0.8428 0.53958 0.82675 0.0
C98 C 0.38371 0.8395 0.17934 0.0
O99 O 0.41089 0.84788 0.15028 0.0
Cd100 Cd 0.42623 0.86281 0.03701 0.0
O101 O 0.35898 0.83739 0.14787 0.0
Cd102 Cd 0.3481 0.84682 0.02941 0.0
C103 C 0.41038 0.92718 0.03315 0.0
O104 O 0.37875 0.82359 0.97967 0.0
O105 O 0.3618 0.84723 0.9111 0.0
O106 O 0.29196 0.80084 0.02275 0.0
C107 C 0.37665 0.83123 0.92012 0.0
O108 O 0.431 0.91709 0.03029 0.0
C109 C 0.28 0.81793 -0.00029 0.0
O110 O 0.37938 0.9072 0.0368 0.0
O111 O 0.29884 0.84913 -0.0022 0.0
C112 C 0.56428 0.41614 0.2749 0.0
O113 O 0.57916 0.43796 0.22986 0.0
Cd114 Cd 0.56486 0.43545 0.11502 0.0
O115 O 0.53919 0.38782 0.26169 0.0
Cd116 Cd 0.50559 0.35718 0.1612 0.0
C117 C 0.48476 0.41718 0.14657 0.0
O118 O 0.55222 0.38139 0.0891 0.0
O119 O 0.50662 0.35039 0.03852 0.0
O120 O 0.4978 0.30463 0.20091 0.0
C121 C 0.53746 0.3699 0.03468 0.0
O122 O 0.5138 0.43731 0.12544 0.0
C123 C 0.46764 0.28776 0.18346 0.0
O124 O 0.47602 0.38761 0.16375 0.0
O125 O 0.45466 0.30394 0.16078 0.0
C126 C 0.14411 0.56603 0.46288 0.0
O127 O 0.13391 0.57984 0.42236 0.0
Cd128 Cd 0.11828 0.56409 0.31037 0.0
O129 O 0.14776 0.54177 0.44546 0.0
Cd130 Cd 0.14226 0.50969 0.34108 0.0
C131 C 0.06061 0.48173 0.34386 0.0
O132 O 0.16285 0.5582 0.27345 0.0
O133 O 0.14321 0.51308 0.21791 0.0
O134 O 0.19032 0.50694 0.37235 0.0
C135 C 0.15748 0.54437 0.2174 0.0
O136 O 0.06744 0.51057 0.32503 0.0
C137 C 0.18043 0.47812 0.34938 0.0
O138 O 0.08308 0.4747 0.35517 0.0
O139 O 0.15136 0.46301 0.32609 0.0
C140 C 0.57198 0.15375 0.61614 0.0
O141 O 0.55165 0.14739 0.56879 0.0
Cd142 Cd 0.55596 0.1286 0.46154 0.0
O143 O 0.59874 0.15318 0.60772 0.0
Cd144 Cd 0.62952 0.14381 0.51576 0.0
C145 C 0.56779 0.06462 0.51702 0.0
O146 O 0.61095 0.16685 0.43207 0.0
O147 O 0.6342 0.14082 0.39352 0.0
O148 O 0.67999 0.19061 0.55371 0.0
C149 C 0.62054 0.15776 0.3819 0.0
O150 O 0.55007 0.07465 0.48856 0.0
C151 C 0.6986 0.17898 0.53946 0.0
O152 O 0.59739 0.08454 0.53489 0.0
O153 O 0.68425 0.14921 0.5196 0.0
C154 C 0.44296 0.60979 0.85263 0.0
O155 O 0.42702 0.58076 0.8288 0.0
Cd156 Cd 0.4283 0.55998 0.72161 0.0
O157 O 0.46376 0.63449 0.81755 0.0
Cd158 Cd 0.48444 0.64223 0.69933 0.0
C159 C 0.5123 0.58842 0.71954 0.0
O160 O 0.43296 0.60164 0.65076 0.0
O161 O 0.47473 0.62164 0.58483 0.0
O162 O 0.4849 0.69302 0.67303 0.0
C163 C 0.44422 0.60178 0.59344 0.0
O164 O 0.48238 0.56491 0.71881 0.0
C165 C 0.51479 0.70868 0.65368 0.0
O166 O 0.52008 0.61877 0.718 0.0
O167 O 0.53172 0.69459 0.66107 0.0
C168 C 0.56625 0.12794 0.22865 0.0
C169 C 0.57079 0.1585 0.2046 0.0
C170 C 0.61533 0.18819 0.28504 0.0
C171 C 0.60662 0.15758 0.31609 0.0
N172 N 0.5704 0.09813 0.32295 0.0
N173 N 0.59829 0.21809 0.21146 0.0
C174 C 0.58143 0.12731 0.28909 0.0
C175 C 0.59531 0.18886 0.23253 0.0
N176 N 0.54805 0.09957 0.1929 0.0
N177 N 0.64284 0.21649 0.30564 0.0
H178 H 0.58402 0.21957 0.17314 0.0
H179 H 0.61319 0.24063 0.23509 0.0
H180 H 0.65798 0.21658 0.34396 0.0
H181 H 0.65229 0.23913 0.28097 0.0
H182 H 0.54663 0.07718 0.20487 0.0
H183 H 0.53738 0.09926 0.14715 0.0
H184 H 0.54935 0.07616 0.30922 0.0
H185 H 0.58033 0.09622 0.36803 0.0
C186 C 0.42539 0.54196 0.45148 0.0
C187 C 0.39253 0.53331 0.43701 0.0
C188 C 0.39156 0.56575 0.53044 0.0
C189 C 0.42494 0.57543 0.54451 0.0
N190 N 0.46797 0.56137 0.53564 0.0
N191 N 0.34079 0.52379 0.4797 0.0
C192 C 0.44022 0.55999 0.51041 0.0
C193 C 0.37438 0.54087 0.4823 0.0
N194 N 0.44264 0.53377 0.40831 0.0
N195 N 0.37682 0.58149 0.55913 0.0
H196 H 0.32825 0.50362 0.44779 0.0
H197 H 0.32596 0.52671 0.5146 0.0
H198 H 0.38885 0.60126 0.59193 0.0
H199 H 0.35349 0.57693 0.54506 0.0
H200 H 0.46797 0.54304 0.4123 0.0
H201 H 0.43176 0.51881 0.36677 0.0
H202 H 0.47856 0.54843 0.51515 0.0
H203 H 0.47796 0.572 0.58166 0.0
C204 C 0.81311 0.39164 0.70283 0.0
C205 C 0.80783 0.41893 0.69901 0.0
C206 C 0.80966 0.41878 0.5777 0.0
C207 C 0.81889 0.39399 0.58093 0.0
N208 N 0.82142 0.35116 0.64437 0.0
N209 N 0.78678 0.44797 0.63645 0.0
C210 C 0.81817 0.37865 0.64293 0.0
C211 C 0.8012 0.42882 0.63733 0.0
N212 N 0.81414 0.37869 0.76341 0.0
N213 N 0.8114 0.43477 0.51918 0.0
H214 H 0.78015 0.45517 0.68037 0.0
H215 H 0.77814 0.4535 0.59321 0.0
H216 H 0.8176 0.4292 0.47333 0.0
H217 H 0.80917 0.45581 0.51666 0.0
H218 H 0.82428 0.36363 0.77114 0.0
H219 H 0.80384 0.38217 0.80636 0.0
H220 H 0.81715 0.33641 0.68643 0.0
H221 H 0.82643 0.34144 0.60233 0.0
C222 C 0.44321 0.85904 0.78736 0.0
C223 C 0.4346 0.82802 0.75839 0.0
C224 C 0.39166 0.79885 0.84317 0.0
C225 C 0.398 0.82994 0.86764 0.0
N226 N 0.43018 0.88965 0.86714 0.0
N227 N 0.40164 0.76852 0.75685 0.0
C228 C 0.42414 0.86004 0.84132 0.0
C229 C 0.40929 0.7979 0.78626 0.0
N230 N 0.46947 0.88758 0.763 0.0
N231 N 0.36871 0.77033 0.87431 0.0
H232 H 0.41545 0.76687 0.71777 0.0
H233 H 0.3811 0.74583 0.76909 0.0
H234 H 0.35421 0.77003 0.91408 0.0
H235 H 0.36505 0.74697 0.86363 0.0
H236 H 0.47983 0.91035 0.78686 0.0
H237 H 0.4824 0.8887 0.71998 0.0
H238 H 0.44534 0.91258 0.84492 0.0
H239 H 0.41915 0.89153 0.9107 0.0
C240 C 0.54482 0.40981 0.94403 0.0
C241 C 0.5532 0.38701 0.9718 0.0
C242 C 0.5962 0.4021 0.88691 0.0
C243 C 0.58977 0.42691 0.86307 0.0
N244 N 0.55868 0.45521 0.86752 0.0
N245 N 0.58705 0.36176 0.97344 0.0
C246 C 0.56413 0.43084 0.89098 0.0
C247 C 0.57885 0.38309 0.94401 0.0
N248 N 0.51836 0.41139 0.9683 0.0
N249 N 0.61882 0.39674 0.85473 0.0
H250 H 0.57367 0.34617 0.01303 0.0
H251 H 0.60786 0.36037 0.961 0.0
H252 H 0.63302 0.41119 0.81462 0.0
H253 H 0.62233 0.37689 0.86486 0.0
H254 H 0.50811 0.42395 0.94464 0.0
H255 H 0.50509 0.3987 0.01061 0.0
H256 H 0.54402 0.46289 0.89147 0.0
H257 H 0.57 0.46907 0.82485 0.0
C258 C 0.18745 0.58825 0.13153 0.0
C259 C 0.15719 0.56253 0.15769 0.0
C260 C 0.12638 0.57388 0.07392 0.0
C261 C 0.1563 0.60175 0.052 0.0
N262 N 0.215 0.63814 0.06378 0.0
N263 N 0.09755 0.53475 0.1626 0.0
C264 C 0.18685 0.60966 0.0817 0.0
C265 C 0.12655 0.55631 0.13128 0.0
N266 N 0.21664 0.59166 0.15338 0.0
N267 N 0.09793 0.56327 0.03844 0.0
H268 H 0.09621 0.52109 0.20486 0.0
H269 H 0.07494 0.53252 0.15021 0.0
H270 H 0.09666 0.57532 -0.00414 0.0
H271 H 0.07637 0.54083 0.0475 0.0
H272 H 0.23942 0.60778 0.13173 0.0
H273 H 0.21782 0.57632 0.18993 0.0
H274 H 0.23744 0.64712 0.08842 0.0
H275 H 0.21536 0.6543 0.02727 0.0
C276 C 0.46333 0.23441 0.21698 0.0
C277 C 0.45157 0.25115 0.17676 0.0
C278 C 0.43895 0.21171 0.08643 0.0
C279 C 0.45674 0.19929 0.12113 0.0
N280 N 0.47797 0.19137 0.22483 0.0
N281 N 0.41182 0.24421 0.09287 0.0
C282 C 0.46579 0.2078 0.18898 0.0
C283 C 0.4338 0.23593 0.11777 0.0
N284 N 0.47279 0.24495 0.28092 0.0
N285 N 0.42845 0.20149 0.02278 0.0
H286 H 0.40544 0.25942 0.119 0.0
H287 H 0.39682 0.23267 0.05177 0.0
H288 H 0.43083 0.18276 -2e-05 0.0
H289 H 0.41872 0.21246 -0.00804 0.0
H290 H 0.48273 0.23509 0.31389 0.0
H291 H 0.46933 0.26346 0.30167 0.0
H292 H 0.48571 0.19642 0.27417 0.0
H293 H 0.47945 0.17151 0.20529 0.0
C294 C 0.2305 0.45123 0.25041 0.0
C295 C 0.2618 0.47541 0.27547 0.0
C296 C 0.23503 0.48436 0.37144 0.0
C297 C 0.20451 0.46662 0.33874 0.0
N298 N 0.17087 0.42039 0.26753 0.0
N299 N 0.29405 0.51544 0.3608 0.0
C300 C 0.20135 0.4459 0.28424 0.0
C301 C 0.26415 0.49167 0.33688 0.0
N302 N 0.22877 0.43488 0.19282 0.0
N303 N 0.23581 0.49356 0.43633 0.0
H304 H 0.31656 0.52027 0.34089 0.0
H305 H 0.2964 0.53164 0.39882 0.0
H306 H 0.21412 0.48684 0.46285 0.0
H307 H 0.25713 0.50414 0.46537 0.0
H308 H 0.20688 0.41922 0.16803 0.0
H309 H 0.24977 0.43824 0.1678 0.0
H310 H 0.16661 0.40335 0.23009 0.0
H311 H 0.15013 0.41384 0.29703 0.0
C312 C 0.74747 0.23316 0.56245 0.0
C313 C 0.73486 0.20199 0.53248 0.0
C314 C 0.77775 0.2267 0.44585 0.0
C315 C 0.78401 0.25834 0.46652 0.0
N316 N 0.77366 0.29185 0.54365 0.0
N317 N 0.74676 0.1669 0.4649 0.0
C318 C 0.76914 0.26172 0.52553 0.0
C319 C 0.75294 0.19794 0.48012 0.0
N320 N 0.73783 0.23511 0.62572 0.0
N321 N 0.79474 0.2244 0.39268 0.0
H322 H 0.73195 0.14657 0.49531 0.0
H323 H 0.75821 0.16149 0.4266 0.0
H324 H 0.8131 0.24527 0.36791 0.0
H325 H 0.79081 0.20226 0.37253 0.0
H326 H 0.7481 0.25707 0.65277 0.0
H327 H 0.72209 0.21381 0.65307 0.0
H328 H 0.76038 0.29491 0.5819 0.0
H329 H 0.78869 0.31353 0.51708 0.0
C330 C 0.55063 0.79867 0.60428 0.0
C331 C 0.5308 0.79359 0.54722 0.0
C332 C 0.51599 0.73549 0.54531 0.0
C333 C 0.52686 0.73886 0.61252 0.0
N334 N 0.55849 0.77372 0.70389 0.0
N335 N 0.50467 0.7611 0.45036 0.0
C336 C 0.54607 0.77061 0.641 0.0
C337 C 0.51727 0.76321 0.51279 0.0
N338 N 0.57386 0.83001 0.62232 0.0
N339 N 0.50397 0.70572 0.51388 0.0
H340 H 0.50758 0.7821 0.4255 0.0
H341 H 0.49187 0.73932 0.42324 0.0
H342 H 0.50345 0.6854 0.53683 0.0
H343 H 0.49644 0.70149 0.46432 0.0
H344 H 0.59031 0.83518 0.66156 0.0
H345 H 0.57946 0.85043 0.59219 0.0
H346 H 0.56955 0.79589 0.73023 0.0
H347 H 0.55631 0.75353 0.73075 0.0
C348 C 0.76495 0.54512 0.70433 0.0
C349 C 0.73974 0.54309 0.74604 0.0
C350 C 0.77353 0.54946 0.84433 0.0
C351 C 0.7941 0.54278 0.80385 0.0
N352 N 0.81103 0.5359 0.69363 0.0
N353 N 0.72035 0.54549 0.85676 0.0
C354 C 0.79102 0.54215 0.73309 0.0
C355 C 0.74453 0.54697 0.81631 0.0
N356 N 0.76339 0.54926 0.63717 0.0
N357 N 0.78161 0.55751 0.9098 0.0
H358 H 0.69905 0.54451 0.8388 0.0
H359 H 0.72062 0.54369 0.90855 0.0
H360 H 0.80293 0.55939 0.93057 0.0
H361 H 0.76928 0.56542 0.94118 0.0
H362 H 0.78238 0.55378 0.60415 0.0
H363 H 0.74428 0.5515 0.61578 0.0
H364 H 0.80687 0.53059 0.64293 0.0
H365 H 0.831 0.53434 0.71175 0.0
C366 C 0.21675 0.77246 0.86777 0.0
C367 C 0.19077 0.74923 0.90879 0.0
C368 C 0.21888 0.78096 0.00841 0.0
C369 C 0.2469 0.80123 0.96859 0.0
N370 N 0.2692 0.82395 0.85983 0.0
N371 N 0.16056 0.73971 0.01182 0.0
C372 C 0.24452 0.79986 0.89782 0.0
C373 C 0.18951 0.75642 0.9771 0.0
N374 N 0.21527 0.76704 0.80056 0.0
N375 N 0.221 0.78435 0.07622 0.0
H376 H 0.13834 0.72299 -0.01075 0.0
H377 H 0.15766 0.74525 0.06074 0.0
H378 H 0.24171 0.80345 0.09968 0.0
H379 H 0.20298 0.76777 0.10906 0.0
H380 H 0.23471 0.78052 0.76761 0.0
H381 H 0.19408 0.74812 0.77799 0.0
H382 H 0.26806 0.82559 0.8082 0.0
H383 H 0.29 0.84409 0.88032 0.0
C384 C 0.53326 0.13168 0.71337 0.0
C385 C 0.56232 0.15797 0.68397 0.0
C386 C 0.5755 0.18909 0.78846 0.0
C387 C 0.54647 0.16276 0.8174 0.0
N388 N 0.4932 0.11383 0.80307 0.0
N389 N 0.60698 0.21455 0.68743 0.0
C390 C 0.52367 0.13587 0.77801 0.0
C391 C 0.58218 0.18768 0.71964 0.0
N392 N 0.51624 0.10173 0.68198 0.0
N393 N 0.59706 0.21484 0.82758 0.0
H394 H 0.61229 0.21421 0.63696 0.0
H395 H 0.62048 0.23786 0.70899 0.0
H396 H 0.59166 0.21736 0.87703 0.0
H397 H 0.62056 0.23288 0.81208 0.0
H398 H 0.49722 0.08062 0.70459 0.0
H399 H 0.52301 0.09681 0.63576 0.0
H400 H 0.47439 0.09549 0.77437 0.0
H401 H 0.48555 0.11593 0.85071 0.0
C402 C 0.41044 0.60773 0.95329 0.0
C403 C 0.44042 0.61271 0.92543 0.0
C404 C 0.4543 0.59587 0.0301 0.0
C405 C 0.4246 0.59139 0.05905 0.0
N406 N 0.3779 0.59965 0.05345 0.0
N407 N 0.49495 0.62102 0.94205 0.0
C408 C 0.40373 0.59947 0.02227 0.0
C409 C 0.46387 0.6104 0.96589 0.0
N410 N 0.38806 0.60987 0.91306 0.0
N411 N 0.47195 0.58361 0.06114 0.0
H412 H 0.50262 0.6313 0.8946 0.0
H413 H 0.51402 0.62277 0.97172 0.0
H414 H 0.46492 0.57067 0.10624 0.0
H415 H 0.49165 0.58298 0.03863 0.0
H416 H 0.3641 0.60276 0.92792 0.0
H417 H 0.39333 0.61772 0.86342 0.0
H418 H 0.36348 0.6081 0.03095 0.0
H419 H 0.37256 0.59382 0.10394 0.0
C420 C 0.8626 0.45742 0.1161 0.0
C421 C 0.834 0.43812 0.07756 0.0
C422 C 0.80744 0.40056 0.17221 0.0
C423 C 0.83768 0.41751 0.20753 0.0
N424 N 0.89596 0.45822 0.20867 0.0
N425 N 0.77971 0.3904 0.06524 0.0
C426 C 0.86577 0.44505 0.17845 0.0
C427 C 0.80644 0.40943 0.10466 0.0
N428 N 0.88687 0.48744 0.09277 0.0
N429 N 0.7796 0.37686 0.20375 0.0
H430 H 0.77751 0.39741 0.01683 0.0
H431 H 0.76052 0.36712 0.07926 0.0
H432 H 0.77953 0.3697 0.25316 0.0
H433 H 0.75613 0.36602 0.18274 0.0
H434 H 0.9069 0.50405 0.12151 0.0
H435 H 0.88533 0.4972 0.0469 0.0
H436 H 0.9179 0.47589 0.18616 0.0
H437 H 0.89975 0.44916 0.25342 0.0
C438 C 0.39039 0.808 0.34977 0.0
C439 C 0.4018 0.8376 0.38671 0.0
C440 C 0.38944 0.86314 0.29244 0.0
C441 C 0.38288 0.83558 0.25254 0.0
N442 N 0.37752 0.78188 0.24078 0.0
N443 N 0.41684 0.89525 0.39051 0.0
C444 C 0.38321 0.80787 0.28069 0.0
C445 C 0.40216 0.86559 0.35771 0.0
N446 N 0.38575 0.77993 0.3811 0.0
N447 N 0.38409 0.88729 0.26746 0.0
H448 H 0.42763 0.89869 0.43749 0.0
H449 H 0.42124 0.91735 0.36862 0.0
H450 H 0.37532 0.88657 0.21931 0.0
H451 H 0.38531 0.90634 0.29637 0.0
H452 H 0.37454 0.75676 0.35859 0.0
H453 H 0.39071 0.77928 0.43168 0.0
H454 H 0.38131 0.76273 0.25593 0.0
H455 H 0.37026 0.78028 0.19102 0.0
C456 C 0.58472 0.46391 0.43747 0.0
C457 C 0.59304 0.44455 0.47864 0.0
C458 C 0.58663 0.40875 0.38376 0.0
C459 C 0.57432 0.42565 0.34507 0.0
N460 N 0.5565 0.46593 0.33807 0.0
N461 N 0.6003 0.39751 0.49408 0.0
C462 C 0.57225 0.45255 0.37248 0.0
C463 C 0.59371 0.41672 0.45256 0.0
N464 N 0.5886 0.4931 0.4608 0.0
N465 N 0.59242 0.38583 0.35429 0.0
H466 H 0.60727 0.40372 0.5438 0.0
H467 H 0.59731 0.3747 0.4804 0.0
H468 H 0.58747 0.37944 0.30406 0.0
H469 H 0.60445 0.37503 0.378 0.0
H470 H 0.58613 0.51 0.43094 0.0
H471 H 0.59736 0.50191 0.5086 0.0
H472 H 0.55098 0.48301 0.35857 0.0
H473 H 0.54597 0.45771 0.29112 0.0
C474 C 0.17741 0.59644 0.56348 0.0
C475 C 0.14633 0.57505 0.5338 0.0
C476 C 0.11777 0.57568 0.63541 0.0
C477 C 0.1488 0.5948 0.66705 0.0
N478 N 0.20808 0.62149 0.66526 0.0
N479 N 0.08711 0.54068 0.54251 0.0
C480 C 0.17869 0.60481 0.63215 0.0
C481 C 0.11654 0.56376 0.56999 0.0
N482 N 0.20545 0.60927 0.52553 0.0
N483 N 0.08946 0.56926 0.66793 0.0
H484 H 0.08505 0.53164 0.49417 0.0
H485 H 0.06502 0.52844 0.56902 0.0
H486 H 0.0893 0.57685 0.71673 0.0
H487 H 0.06642 0.55875 0.64518 0.0
H488 H 0.22854 0.62762 0.54198 0.0
H489 H 0.20528 0.6029 0.4756 0.0
H490 H 0.23059 0.62645 0.64509 0.0
H491 H 0.20972 0.62899 0.71479 0.0
C492 C 0.44504 0.01513 0.97158 0.0
C493 C 0.45808 0.03264 0.03194 0.0
C494 C 0.43583 0.98069 0.0946 0.0
C495 C 0.42325 0.96313 0.0341 0.0
N496 N 0.40977 0.96226 0.9178 0.0
N497 N 0.46023 0.03346 0.15204 0.0
C498 C 0.42574 0.97998 0.97343 0.0
C499 C 0.45157 0.01577 0.09395 0.0
N500 N 0.45241 0.03212 0.91242 0.0
N501 N 0.43365 0.9638 0.1521 0.0
H502 H 0.47175 0.05924 0.15295 0.0
H503 H 0.45367 0.02273 0.19929 0.0
H504 H 0.42096 0.938 0.15492 0.0
H505 H 0.44569 0.97513 0.19622 0.0
H506 H 0.447 0.02089 0.86579 0.0
H507 H 0.46556 0.05793 0.9098 0.0
H508 H 0.40802 0.97295 0.87348 0.0
H509 H 0.39604 0.93645 0.91738 0.0
C510 C 0.45174 0.4422 0.10517 0.0
C511 C 0.46222 0.43001 0.15915 0.0
C512 C 0.43366 0.44691 0.23797 0.0
C513 C 0.42766 0.46346 0.18535 0.0
N514 N 0.43226 0.47904 0.06933 0.0
N515 N 0.46681 0.42426 0.27819 0.0
C516 C 0.43671 0.46144 0.1188 0.0
C517 C 0.4538 0.43286 0.22594 0.0
N518 N 0.45566 0.43484 0.04111 0.0
N519 N 0.41994 0.44455 0.29944 0.0
H520 H 0.48213 0.41428 0.27221 0.0
H521 H 0.46474 0.42962 0.32775 0.0
H522 H 0.40505 0.45469 0.30985 0.0
H523 H 0.42065 0.42993 0.33802 0.0
H524 H 0.44594 0.44046 -0.00031 0.0
H525 H 0.46607 0.42028 0.02994 0.0
H526 H 0.44187 0.48175 0.02136 0.0
H527 H 0.42061 0.49275 0.07742 0.0
C528 C 0.0037 0.44573 0.30011 0.0
C529 C 0.02567 0.45648 0.35506 0.0
C530 C 0.97933 0.42531 0.4318 0.0
C531 C 0.95732 0.41942 0.37841 0.0
N532 N 0.94746 0.42355 0.2615 0.0
N533 N 0.03519 0.45743 0.47378 0.0
C534 C 0.96915 0.42898 0.31218 0.0
C535 C 0.0138 0.44602 0.42107 0.0
N536 N 0.01604 0.45124 0.23654 0.0
N537 N 0.96711 0.41087 0.49254 0.0
H538 H 0.06069 0.47202 0.46813 0.0
H539 H 0.02764 0.45414 0.52346 0.0
H540 H 0.94187 0.39553 0.50138 0.0
H541 H 0.98184 0.41152 0.53207 0.0
H542 H 0.00145 0.44146 0.19422 0.0
H543 H 0.04131 0.46321 0.22643 0.0
H544 H 0.95467 0.43368 0.21389 0.0
H545 H 0.92191 0.4102 0.26791 0.0
C546 C 0.52388 0.972 0.49201 0.0
C547 C 0.51706 0.96062 0.55915 0.0
C548 C 0.54435 0.01778 0.59913 0.0
C549 C 0.55276 0.02906 0.53226 0.0
N550 N 0.55705 0.01758 0.41676 0.0
N551 N 0.52635 0.97199 0.67683 0.0
C552 C 0.54455 0.00633 0.47918 0.0
C553 C 0.529 0.98334 0.61286 0.0
N554 N 0.5092 0.9503 0.44051 0.0
N555 N 0.54964 0.03979 0.64905 0.0
H556 H 0.51565 0.9469 0.6883 0.0
H557 H 0.53743 0.98743 0.7176 0.0
H558 H 0.56105 0.06529 0.64117 0.0
H559 H 0.54048 0.03263 0.69732 0.0
H560 H 0.5102 0.95778 0.39111 0.0
H561 H 0.49358 0.92492 0.44743 0.0
H562 H 0.55467 0.00201 0.37747 0.0
H563 H 0.57259 0.04263 0.40593 0.0
C564 C 0.56201 0.54962 0.77564 0.0
C565 C 0.57167 0.54397 0.71232 0.0
C566 C 0.5532 0.57902 0.65909 0.0
C567 C 0.5382 0.57943 0.72023 0.0
N568 N 0.52906 0.56719 0.83772 0.0
N569 N 0.57769 0.55332 0.59347 0.0
C570 C 0.54324 0.56572 0.77915 0.0
C571 C 0.56828 0.55929 0.65402 0.0
N572 N 0.57116 0.53977 0.83209 0.0
N573 N 0.55246 0.59703 0.60587 0.0
H574 H 0.58967 0.53977 0.58834 0.0
H575 H 0.57227 0.56031 0.54798 0.0
H576 H 0.5411 0.61128 0.60792 0.0
H577 H 0.56532 0.60015 0.56158 0.0
H578 H 0.56716 0.54526 0.88027 0.0
H579 H 0.58554 0.52853 0.83053 0.0
H580 H 0.52831 0.55434 0.88083 0.0
H581 H 0.51682 0.58055 0.84244 0.0
C582 C 0.00683 0.55425 0.92659 0.0
C583 C 0.0254 0.56933 0.86807 0.0
C584 C 0.9743 0.55005 0.80442 0.0
C585 C 0.95624 0.53087 0.86047 0.0
N586 N 0.95466 0.51273 0.97409 0.0
N587 N 0.02778 0.5821 0.75073 0.0
C588 C 0.9723 0.53255 0.92153 0.0
C589 C 0.00942 0.56782 0.80689 0.0
N590 N 0.02223 0.56162 -0.01275 0.0
N591 N 0.95781 0.55125 0.74915 0.0
H592 H 0.05344 0.59662 0.75142 0.0
H593 H 0.01785 0.57841 0.70295 0.0
H594 H 0.93212 0.53784 0.74543 0.0
H595 H 0.96925 0.56723 0.70904 0.0
H596 H 0.00975 0.55377 0.0326 0.0
H597 H 0.04735 0.57866 -0.00746 0.0
H598 H 0.96553 0.50997 0.01711 0.0
H599 H 0.92909 0.49719 0.97307 0.0
loop_
_geom_bond_atom_site_label_1
_geom_bond_atom_site_label_2
_geom_bond_distance
_geom_bond_site_symmetry_2
_ccdc_geom_bond_type
C0 O1 1.306 . S
C0 O3 1.160 . S
O1 C0 1.306 . S
O1 Cd2 2.228 1_556 S
Cd2 O1 2.228 1_554 S
Cd2 O6 2.273 . S
Cd2 O10 2.277 . S
O3 C0 1.160 . S
O3 Cd4 2.203 1_556 S
Cd4 O3 2.203 1_554 S
Cd4 O6 2.411 . S
Cd4 O7 2.333 . S
Cd4 O8 2.352 . S
Cd4 O12 2.277 . S
Cd4 O13 2.356 . S
C5 O10 1.209 . S
C5 O12 1.226 . S
O6 Cd2 2.273 . S
O6 Cd4 2.411 . S
O6 C9 1.320 . S
O7 Cd4 2.333 . S
O7 C9 1.214 . S
O8 Cd4 2.352 . S
O8 C11 1.258 . S
C9 O6 1.320 . S
C9 O7 1.214 . S
O10 Cd2 2.277 . S
O10 C5 1.209 . S
C11 O8 1.258 . S
C11 O13 1.282 . S
O12 Cd4 2.277 . S
O12 C5 1.226 . S
O13 Cd4 2.356 . S
O13 C11 1.282 . S
C14 O15 1.306 . S
C14 O17 1.160 . S
O15 C14 1.306 . S
O15 Cd16 2.228 . S
Cd16 O15 2.228 . S
Cd16 O20 2.273 . S
Cd16 O24 2.277 . S
O17 C14 1.160 . S
O17 Cd18 2.203 . S
Cd18 O17 2.203 . S
Cd18 O20 2.411 . S
Cd18 O21 2.333 . S
Cd18 O22 2.352 . S
Cd18 O26 2.277 . S
Cd18 O27 2.356 . S
C19 O24 1.209 . S
C19 O26 1.226 . S
O20 Cd16 2.273 . S
O20 Cd18 2.411 . S
O20 C23 1.320 . S
O21 Cd18 2.333 . S
O21 C23 1.214 . S
O22 Cd18 2.352 . S
O22 C25 1.258 . S
C23 O20 1.320 . S
C23 O21 1.214 . S
O24 Cd16 2.277 . S
O24 C19 1.209 . S
C25 O22 1.258 . S
C25 O27 1.282 . S
O26 Cd18 2.277 . S
O26 C19 1.226 . S
O27 Cd18 2.356 . S
O27 C25 1.282 . S
C28 O29 1.306 . S
C28 O31 1.160 . S
O29 C28 1.306 . S
O29 Cd30 2.228 . S
Cd30 O29 2.228 . S
Cd30 O34 2.273 . S
Cd30 O38 2.277 . S
O31 C28 1.160 . S
O31 Cd32 2.203 . S
Cd32 O31 2.203 . S
Cd32 O34 2.411 . S
Cd32 O35 2.333 . S
Cd32 O36 2.352 . S
Cd32 O40 2.277 . S
Cd32 O41 2.356 . S
C33 O38 1.209 . S
C33 O40 1.226 . S
O34 Cd30 2.273 . S
O34 Cd32 2.411 . S
O34 C37 1.320 . S
O35 Cd32 2.333 . S
O35 C37 1.214 . S
O36 Cd32 2.352 . S
O36 C39 1.258 . S
C37 O34 1.320 . S
C37 O35 1.214 . S
O38 Cd30 2.277 . S
O38 C33 1.209 . S
C39 O36 1.258 . S
C39 O41 1.282 . S
O40 Cd32 2.277 . S
O40 C33 1.226 . S
O41 Cd32 2.356 . S
O41 C39 1.282 . S
C42 O43 1.306 . S
C42 O45 1.160 . S
O43 C42 1.306 . S
O43 Cd44 2.228 . S
Cd44 O43 2.228 . S
Cd44 O48 2.273 . S
Cd44 O52 2.277 . S
O45 C42 1.160 . S
O45 Cd46 2.203 . S
Cd46 O45 2.203 . S
Cd46 O48 2.411 . S
Cd46 O49 2.333 . S
Cd46 O50 2.352 . S
Cd46 O54 2.277 . S
Cd46 O55 2.356 . S
C47 O52 1.209 . S
C47 O54 1.226 . S
O48 Cd44 2.273 . S
O48 Cd46 2.411 . S
O48 C51 1.320 . S
O49 Cd46 2.333 . S
O49 C51 1.214 . S
O50 Cd46 2.352 . S
O50 C53 1.258 . S
C51 O48 1.320 . S
C51 O49 1.214 . S
O52 Cd44 2.277 . S
O52 C47 1.209 . S
C53 O50 1.258 . S
C53 O55 1.282 . S
O54 Cd46 2.277 . S
O54 C47 1.226 . S
O55 Cd46 2.356 . S
O55 C53 1.282 . S
C56 O57 1.306 . S
C56 O59 1.160 . S
O57 C56 1.306 . S
O57 Cd58 2.228 . S
Cd58 O57 2.228 . S
Cd58 O62 2.273 . S
Cd58 O66 2.277 . S
O59 C56 1.160 . S
O59 Cd60 2.203 . S
Cd60 O59 2.203 . S
Cd60 O62 2.411 . S
Cd60 O63 2.333 . S
Cd60 O64 2.352 . S
Cd60 O68 2.277 . S
Cd60 O69 2.356 . S
C61 O66 1.209 . S
C61 O68 1.226 . S
O62 Cd58 2.273 . S
O62 Cd60 2.411 . S
O62 C65 1.320 . S
O63 Cd60 2.333 . S
O63 C65 1.214 . S
O64 Cd60 2.352 . S
O64 C67 1.258 . S
C65 O62 1.320 . S
C65 O63 1.214 . S
O66 Cd58 2.277 . S
O66 C61 1.209 . S
C67 O64 1.258 . S
C67 O69 1.282 . S
O68 Cd60 2.277 . S
O68 C61 1.226 . S
O69 Cd60 2.356 . S
O69 C67 1.282 . S
C70 O71 1.306 . S
C70 O73 1.160 . S
O71 C70 1.306 . S
O71 Cd72 2.228 . S
Cd72 O71 2.228 . S
Cd72 O76 2.273 . S
Cd72 O80 2.277 . S
O73 C70 1.160 . S
O73 Cd74 2.203 . S
Cd74 O73 2.203 . S
Cd74 O76 2.411 . S
Cd74 O77 2.333 1_556 S
Cd74 O78 2.352 . S
Cd74 O82 2.277 . S
Cd74 O83 2.356 . S
C75 O80 1.209 . S
C75 O82 1.226 . S
O76 Cd72 2.273 . S
O76 Cd74 2.411 . S
O76 C79 1.320 1_556 S
O77 Cd74 2.333 1_554 S
O77 C79 1.214 . S
O78 Cd74 2.352 . S
O78 C81 1.258 . S
C79 O76 1.320 1_554 S
C79 O77 1.214 . S
O80 Cd72 2.277 . S
O80 C75 1.209 . S
C81 O78 1.258 . S
C81 O83 1.282 . S
O82 Cd74 2.277 . S
O82 C75 1.226 . S
O83 Cd74 2.356 . S
O83 C81 1.282 . S
C84 O85 1.302 1_554 S
C84 O87 1.157 1_554 S
O85 C84 1.302 1_556 S
O85 Cd86 2.228 . S
Cd86 O85 2.228 . S
Cd86 O90 2.273 . S
Cd86 O94 2.277 . S
O87 C84 1.157 1_556 S
O87 Cd88 2.203 . S
Cd88 O87 2.203 . S
Cd88 O90 2.411 . S
Cd88 O91 2.333 . S
Cd88 O92 2.352 . S
Cd88 O96 2.277 . S
Cd88 O97 2.356 . S
C89 O94 1.209 . S
C89 O96 1.226 . S
O90 Cd86 2.273 . S
O90 Cd88 2.411 . S
O90 C93 1.320 . S
O91 Cd88 2.333 . S
O91 C93 1.214 . S
O92 Cd88 2.352 . S
O92 C95 1.258 . S
C93 O90 1.320 . S
C93 O91 1.214 . S
O94 Cd86 2.277 . S
O94 C89 1.209 . S
C95 O92 1.258 . S
C95 O97 1.282 . S
O96 Cd88 2.277 . S
O96 C89 1.226 . S
O97 Cd88 2.356 . S
O97 C95 1.282 . S
C98 O99 1.306 . S
C98 O101 1.160 . S
O99 C98 1.306 . S
O99 Cd100 2.228 . S
Cd100 O99 2.228 . S
Cd100 O104 2.273 1_554 S
Cd100 O108 2.277 . S
O101 C98 1.160 . S
O101 Cd102 2.203 . S
Cd102 O101 2.203 . S
Cd102 O104 2.411 1_554 S
Cd102 O105 2.333 1_554 S
Cd102 O106 2.352 . S
Cd102 O110 2.277 . S
Cd102 O111 2.356 . S
C103 O108 1.209 . S
C103 O110 1.226 . S
O104 Cd100 2.273 1_556 S
O104 Cd102 2.411 1_556 S
O104 C107 1.320 . S
O105 Cd102 2.333 1_556 S
O105 C107 1.214 . S
O106 Cd102 2.352 . S
O106 C109 1.258 . S
C107 O104 1.320 . S
C107 O105 1.214 . S
O108 Cd100 2.277 . S
O108 C103 1.209 . S
C109 O106 1.258 . S
C109 O111 1.282 . S
O110 Cd102 2.277 . S
O110 C103 1.226 . S
O111 Cd102 2.356 . S
O111 C109 1.282 . S
C112 O113 1.306 . S
C112 O115 1.160 . S
O113 C112 1.306 . S
O113 Cd114 2.228 . S
Cd114 O113 2.228 . S
Cd114 O118 2.273 . S
Cd114 O122 2.277 . S
O115 C112 1.160 . S
O115 Cd116 2.203 . S
Cd116 O115 2.203 . S
Cd116 O118 2.411 . S
Cd116 O119 2.333 . S
Cd116 O120 2.352 . S
Cd116 O124 2.277 . S
Cd116 O125 2.356 . S
C117 O122 1.209 . S
C117 O124 1.226 . S
O118 Cd114 2.273 . S
O118 Cd116 2.411 . S
O118 C121 1.320 . S
O119 Cd116 2.333 . S
O119 C121 1.214 . S
O120 Cd116 2.352 . S
O120 C123 1.258 . S
C121 O118 1.320 . S
C121 O119 1.214 . S
O122 Cd114 2.277 . S
O122 C117 1.209 . S
C123 O120 1.258 . S
C123 O125 1.282 . S
O124 Cd116 2.277 . S
O124 C117 1.226 . S
O125 Cd116 2.356 . S
O125 C123 1.282 . S
C126 O127 1.306 . S
C126 O129 1.160 . S
O127 C126 1.306 . S
O127 Cd128 2.228 . S
Cd128 O127 2.228 . S
Cd128 O132 2.273 . S
Cd128 O136 2.277 . S
O129 C126 1.160 . S
O129 Cd130 2.203 . S
Cd130 O129 2.203 . S
Cd130 O132 2.411 . S
Cd130 O133 2.333 . S
Cd130 O134 2.352 . S
Cd130 O138 2.277 . S
Cd130 O139 2.356 . S
C131 O136 1.209 . S
C131 O138 1.226 . S
O132 Cd128 2.273 . S
O132 Cd130 2.411 . S
O132 C135 1.320 . S
O133 Cd130 2.333 . S
O133 C135 1.214 . S
O134 Cd130 2.352 . S
O134 C137 1.258 . S
C135 O132 1.320 . S
C135 O133 1.214 . S
O136 Cd128 2.277 . S
O136 C131 1.209 . S
C137 O134 1.258 . S
C137 O139 1.282 . S
O138 Cd130 2.277 . S
O138 C131 1.226 . S
O139 Cd130 2.356 . S
O139 C137 1.282 . S
C140 O141 1.306 . S
C140 O143 1.160 . S
O141 C140 1.306 . S
O141 Cd142 2.228 . S
Cd142 O141 2.228 . S
Cd142 O146 2.273 . S
Cd142 O150 2.277 . S
O143 C140 1.160 . S
O143 Cd144 2.203 . S
Cd144 O143 2.203 . S
Cd144 O146 2.411 . S
Cd144 O147 2.333 . S
Cd144 O148 2.352 . S
Cd144 O152 2.277 . S
Cd144 O153 2.356 . S
C145 O150 1.209 . S
C145 O152 1.226 . S
O146 Cd142 2.273 . S
O146 Cd144 2.411 . S
O146 C149 1.320 . S
O147 Cd144 2.333 . S
O147 C149 1.214 . S
O148 Cd144 2.352 . S
O148 C151 1.258 . S
C149 O146 1.320 . S
C149 O147 1.214 . S
O150 Cd142 2.277 . S
O150 C145 1.209 . S
C151 O148 1.258 . S
C151 O153 1.282 . S
O152 Cd144 2.277 . S
O152 C145 1.226 . S
O153 Cd144 2.356 . S
O153 C151 1.282 . S
C154 O155 1.306 . S
C154 O157 1.160 . S
O155 C154 1.306 . S
O155 Cd156 2.228 . S
Cd156 O155 2.228 . S
Cd156 O160 2.273 . S
Cd156 O164 2.277 . S
O157 C154 1.160 . S
O157 Cd158 2.203 . S
Cd158 O157 2.203 . S
Cd158 O160 2.411 . S
Cd158 O161 2.333 . S
Cd158 O162 2.352 . S
Cd158 O166 2.277 . S
Cd158 O167 2.356 . S
C159 O164 1.209 . S
C159 O166 1.226 . S
O160 Cd156 2.273 . S
O160 Cd158 2.411 . S
O160 C163 1.320 . S
O161 Cd158 2.333 . S
O161 C163 1.214 . S
O162 Cd158 2.352 . S
O162 C165 1.258 . S
C163 O160 1.320 . S
C163 O161 1.214 . S
O164 Cd156 2.277 . S
O164 C159 1.209 . S
C165 O162 1.258 . S
C165 O167 1.282 . S
O166 Cd158 2.277 . S
O166 C159 1.226 . S
O167 Cd158 2.356 . S
O167 C165 1.282 . S
C168 C169 1.363 . S
C168 C174 1.379 . S
C168 N176 1.356 . S
C169 C168 1.363 . S
C169 C175 1.363 . S
C170 C171 1.363 . S
C170 C175 1.379 . S
C170 N177 1.356 . S
C171 C170 1.363 . S
C171 C174 1.363 . S
N172 C174 1.356 . S
N172 H184 0.984 . S
N172 H185 0.985 . S
N173 C175 1.356 . S
N173 H178 0.984 . S
N173 H179 0.985 . S
C174 C168 1.379 . S
C174 C171 1.363 . S
C174 N172 1.356 . S
C175 C169 1.363 . S
C175 C170 1.379 . S
C175 N173 1.356 . S
N176 C168 1.356 . S
N176 H182 0.984 . S
N176 H183 0.984 . S
N177 C170 1.356 . S
N177 H180 0.984 . S
N177 H181 0.985 . S
H178 N173 0.984 . S
H179 N173 0.985 . S
H180 N177 0.984 . S
H181 N177 0.985 . S
H182 N176 0.984 . S
H183 N176 0.984 . S
H184 N172 0.984 . S
H185 N172 0.985 . S
C186 C187 1.363 . S
C186 C192 1.379 . S
C186 N194 1.356 . S
C187 C186 1.363 . S
C187 C193 1.363 . S
C188 C189 1.363 . S
C188 C193 1.379 . S
C188 N195 1.356 . S
C189 C188 1.363 . S
C189 C192 1.363 . S
N190 C192 1.356 . S
N190 H202 0.984 . S
N190 H203 0.985 . S
N191 C193 1.356 . S
N191 H196 0.984 . S
N191 H197 0.985 . S
C192 C186 1.379 . S
C192 C189 1.363 . S
C192 N190 1.356 . S
C193 C187 1.363 . S
C193 C188 1.379 . S
C193 N191 1.356 . S
N194 C186 1.356 . S
N194 H200 0.984 . S
N194 H201 0.984 . S
N195 C188 1.356 . S
N195 H198 0.984 . S
N195 H199 0.985 . S
H196 N191 0.984 . S
H197 N191 0.985 . S
H198 N195 0.984 . S
H199 N195 0.985 . S
H200 N194 0.984 . S
H201 N194 0.984 . S
H202 N190 0.984 . S
H203 N190 0.985 . S
C204 C205 1.363 . S
C204 C210 1.379 . S
C204 N212 1.356 . S
C205 C204 1.363 . S
C205 C211 1.363 . S
C206 C207 1.363 . S
C206 C211 1.379 . S
C206 N213 1.356 . S
C207 C206 1.363 . S
C207 C210 1.363 . S
N208 C210 1.356 . S
N208 H220 0.984 . S
N208 H221 0.985 . S
N209 C211 1.356 . S
N209 H214 0.984 . S
N209 H215 0.985 . S
C210 C204 1.379 . S
C210 C207 1.363 . S
C210 N208 1.356 . S
C211 C205 1.363 . S
C211 C206 1.379 . S
C211 N209 1.356 . S
N212 C204 1.356 . S
N212 H218 0.984 . S
N212 H219 0.984 . S
N213 C206 1.356 . S
N213 H216 0.984 . S
N213 H217 0.985 . S
H214 N209 0.984 . S
H215 N209 0.985 . S
H216 N213 0.984 . S
H217 N213 0.985 . S
H218 N212 0.984 . S
H219 N212 0.984 . S
H220 N208 0.984 . S
H221 N208 0.985 . S
C222 C223 1.363 . S
C222 C228 1.379 . S
C222 N230 1.356 . S
C223 C222 1.363 . S
C223 C229 1.363 . S
C224 C225 1.363 . S
C224 C229 1.379 . S
C224 N231 1.356 . S
C225 C224 1.363 . S
C225 C228 1.363 . S
N226 C228 1.356 . S
N226 H238 0.984 . S
N226 H239 0.985 . S
N227 C229 1.356 . S
N227 H232 0.984 . S
N227 H233 0.985 . S
C228 C222 1.379 . S
C228 C225 1.363 . S
C228 N226 1.356 . S
C229 C223 1.363 . S
C229 C224 1.379 . S
C229 N227 1.356 . S
N230 C222 1.356 . S
N230 H236 0.984 . S
N230 H237 0.984 . S
N231 C224 1.356 . S
N231 H234 0.984 . S
N231 H235 0.985 . S
H232 N227 0.984 . S
H233 N227 0.985 . S
H234 N231 0.984 . S
H235 N231 0.985 . S
H236 N230 0.984 . S
H237 N230 0.984 . S
H238 N226 0.984 . S
H239 N226 0.985 . S
C240 C241 1.364 . S
C240 C246 1.377 1_554 S
C240 N248 1.358 . S
C241 C240 1.364 . S
C241 C247 1.363 . S
C242 C243 1.363 . S
C242 C247 1.379 1_556 S
C242 N249 1.356 . S
C243 C242 1.363 . S
C243 C246 1.363 . S
N244 C246 1.356 . S
N244 H256 0.984 . S
N244 H257 0.985 . S
N245 C247 1.356 . S
N245 H250 0.984 . S
N245 H251 0.985 . S
C246 C240 1.377 1_556 S
C246 C243 1.363 . S
C246 N244 1.356 . S
C247 C241 1.363 . S
C247 C242 1.379 1_554 S
C247 N245 1.356 . S
N248 C240 1.358 . S
N248 H254 0.984 . S
N248 H255 0.984 . S
N249 C242 1.356 . S
N249 H252 0.984 . S
N249 H253 0.985 . S
H250 N245 0.984 . S
H251 N245 0.985 . S
H252 N249 0.984 . S
H253 N249 0.985 . S
H254 N248 0.984 . S
H255 N248 0.984 . S
H256 N244 0.984 . S
H257 N244 0.985 . S
C258 C259 1.363 . S
C258 C264 1.379 . S
C258 N266 1.356 . S
C259 C258 1.363 . S
C259 C265 1.363 . S
C260 C261 1.363 . S
C260 C265 1.379 . S
C260 N267 1.356 . S
C261 C260 1.363 . S
C261 C264 1.363 . S
N262 C264 1.356 . S
N262 H274 0.984 . S
N262 H275 0.985 . S
N263 C265 1.356 . S
N263 H268 0.984 . S
N263 H269 0.985 . S
C264 C258 1.379 . S
C264 C261 1.363 . S
C264 N262 1.356 . S
C265 C259 1.363 . S
C265 C260 1.379 . S
C265 N263 1.356 . S
N266 C258 1.356 . S
N266 H272 0.984 . S
N266 H273 0.984 . S
N267 C260 1.356 . S
N267 H270 0.984 1_554 S
N267 H271 0.986 . S
H268 N263 0.984 . S
H269 N263 0.985 . S
H270 N267 0.984 1_556 S
H271 N267 0.986 . S
H272 N266 0.984 . S
H273 N266 0.984 . S
H274 N262 0.984 . S
H275 N262 0.985 . S
C276 C277 1.363 . S
C276 C282 1.379 . S
C276 N284 1.356 . S
C277 C276 1.363 . S
C277 C283 1.363 . S
C278 C279 1.363 . S
C278 C283 1.379 . S
C278 N285 1.356 . S
C279 C278 1.363 . S
C279 C282 1.363 . S
N280 C282 1.356 . S
N280 H292 0.984 . S
N280 H293 0.985 . S
N281 C283 1.356 . S
N281 H286 0.984 . S
N281 H287 0.985 . S
C282 C276 1.379 . S
C282 C279 1.363 . S
C282 N280 1.356 . S
C283 C277 1.363 . S
C283 C278 1.379 . S
C283 N281 1.356 . S
N284 C276 1.356 . S
N284 H290 0.984 . S
N284 H291 0.984 . S
N285 C278 1.356 . S
N285 H288 0.984 1_554 S
N285 H289 0.985 1_554 S
H286 N281 0.984 . S
H287 N281 0.985 . S
H288 N285 0.984 1_556 S
H289 N285 0.985 1_556 S
H290 N284 0.984 . S
H291 N284 0.984 . S
H292 N280 0.984 . S
H293 N280 0.985 . S
C294 C295 1.363 . S
C294 C300 1.379 . S
C294 N302 1.356 . S
C295 C294 1.363 . S
C295 C301 1.363 . S
C296 C297 1.363 . S
C296 C301 1.379 . S
C296 N303 1.356 . S
C297 C296 1.363 . S
C297 C300 1.363 . S
N298 C300 1.356 . S
N298 H310 0.984 . S
N298 H311 0.985 . S
N299 C301 1.356 . S
N299 H304 0.984 . S
N299 H305 0.985 . S
C300 C294 1.379 . S
C300 C297 1.363 . S
C300 N298 1.356 . S
C301 C295 1.363 . S
C301 C296 1.379 . S
C301 N299 1.356 . S
N302 C294 1.356 . S
N302 H308 0.984 . S
N302 H309 0.984 . S
N303 C296 1.356 . S
N303 H306 0.984 . S
N303 H307 0.985 . S
H304 N299 0.984 . S
H305 N299 0.985 . S
H306 N303 0.984 . S
H307 N303 0.985 . S
H308 N302 0.984 . S
H309 N302 0.984 . S
H310 N298 0.984 . S
H311 N298 0.985 . S
C312 C313 1.363 . S
C312 C318 1.379 . S
C312 N320 1.356 . S
C313 C312 1.363 . S
C313 C319 1.363 . S
C314 C315 1.363 . S
C314 C319 1.379 . S
C314 N321 1.356 . S
C315 C314 1.363 . S
C315 C318 1.363 . S
N316 C318 1.356 . S
N316 H328 0.984 . S
N316 H329 0.985 . S
N317 C319 1.356 . S
N317 H322 0.984 . S
N317 H323 0.985 . S
C318 C312 1.379 . S
C318 C315 1.363 . S
C318 N316 1.356 . S
C319 C313 1.363 . S
C319 C314 1.379 . S
C319 N317 1.356 . S
N320 C312 1.356 . S
N320 H326 0.984 . S
N320 H327 0.984 . S
N321 C314 1.356 . S
N321 H324 0.984 . S
N321 H325 0.985 . S
H322 N317 0.984 . S
H323 N317 0.985 . S
H324 N321 0.984 . S
H325 N321 0.985 . S
H326 N320 0.984 . S
H327 N320 0.984 . S
H328 N316 0.984 . S
H329 N316 0.985 . S
C330 C331 1.363 . S
C330 C336 1.379 . S
C330 N338 1.356 . S
C331 C330 1.363 . S
C331 C337 1.363 . S
C332 C333 1.363 . S
C332 C337 1.379 . S
C332 N339 1.356 . S
C333 C332 1.363 . S
C333 C336 1.363 . S
N334 C336 1.356 . S
N334 H346 0.984 . S
N334 H347 0.985 . S
N335 C337 1.356 . S
N335 H340 0.984 . S
N335 H341 0.985 . S
C336 C330 1.379 . S
C336 C333 1.363 . S
C336 N334 1.356 . S
C337 C331 1.363 . S
C337 C332 1.379 . S
C337 N335 1.356 . S
N338 C330 1.356 . S
N338 H344 0.984 . S
N338 H345 0.984 . S
N339 C332 1.356 . S
N339 H342 0.984 . S
N339 H343 0.985 . S
H340 N335 0.984 . S
H341 N335 0.985 . S
H342 N339 0.984 . S
H343 N339 0.985 . S
H344 N338 0.984 . S
H345 N338 0.984 . S
H346 N334 0.984 . S
H347 N334 0.985 . S
C348 C349 1.363 . S
C348 C354 1.379 . S
C348 N356 1.356 . S
C349 C348 1.363 . S
C349 C355 1.363 . S
C350 C351 1.363 . S
C350 C355 1.379 . S
C350 N357 1.356 . S
C351 C350 1.363 . S
C351 C354 1.363 . S
N352 C354 1.356 . S
N352 H364 0.984 . S
N352 H365 0.985 . S
N353 C355 1.356 . S
N353 H358 0.984 . S
N353 H359 0.985 . S
C354 C348 1.379 . S
C354 C351 1.363 . S
C354 N352 1.356 . S
C355 C349 1.363 . S
C355 C350 1.379 . S
C355 N353 1.356 . S
N356 C348 1.356 . S
N356 H362 0.984 . S
N356 H363 0.984 . S
N357 C350 1.356 . S
N357 H360 0.984 . S
N357 H361 0.985 . S
H358 N353 0.984 . S
H359 N353 0.985 . S
H360 N357 0.984 . S
H361 N357 0.985 . S
H362 N356 0.984 . S
H363 N356 0.984 . S
H364 N352 0.984 . S
H365 N352 0.985 . S
C366 C367 1.363 . S
C366 C372 1.379 . S
C366 N374 1.356 . S
C367 C366 1.363 . S
C367 C373 1.363 1_556 S
C368 C369 1.363 . S
C368 C373 1.379 . S
C368 N375 1.356 . S
C369 C368 1.363 . S
C369 C372 1.363 1_554 S
N370 C372 1.356 . S
N370 H382 0.984 . S
N370 H383 0.985 . S
N371 C373 1.356 . S
N371 H376 0.984 1_554 S
N371 H377 0.985 . S
C372 C366 1.379 . S
C372 C369 1.363 1_556 S
C372 N370 1.356 . S
C373 C367 1.363 1_554 S
C373 C368 1.379 . S
C373 N371 1.356 . S
N374 C366 1.356 . S
N374 H380 0.984 . S
N374 H381 0.984 . S
N375 C368 1.356 . S
N375 H378 0.984 . S
N375 H379 0.985 . S
H376 N371 0.984 1_556 S
H377 N371 0.985 . S
H378 N375 0.984 . S
H379 N375 0.985 . S
H380 N374 0.984 . S
H381 N374 0.984 . S
H382 N370 0.984 . S
H383 N370 0.985 . S
C384 C385 1.363 . S
C384 C390 1.379 . S
C384 N392 1.356 . S
C385 C384 1.363 . S
C385 C391 1.363 . S
C386 C387 1.363 . S
C386 C391 1.379 . S
C386 N393 1.356 . S
C387 C386 1.363 . S
C387 C390 1.363 . S
N388 C390 1.356 . S
N388 H400 0.984 . S
N388 H401 0.985 . S
N389 C391 1.356 . S
N389 H394 0.984 . S
N389 H395 0.985 . S
C390 C384 1.379 . S
C390 C387 1.363 . S
C390 N388 1.356 . S
C391 C385 1.363 . S
C391 C386 1.379 . S
C391 N389 1.356 . S
N392 C384 1.356 . S
N392 H398 0.984 . S
N392 H399 0.984 . S
N393 C386 1.356 . S
N393 H396 0.984 . S
N393 H397 0.985 . S
H394 N389 0.984 . S
H395 N389 0.985 . S
H396 N393 0.984 . S
H397 N393 0.985 . S
H398 N392 0.984 . S
H399 N392 0.984 . S
H400 N388 0.984 . S
H401 N388 0.985 . S
C402 C403 1.363 . S
C402 C408 1.379 . S
C402 N410 1.356 . S
C403 C402 1.363 . S
C403 C409 1.363 . S
C404 C405 1.363 . S
C404 C409 1.379 1_554 S
C404 N411 1.356 . S
C405 C404 1.363 . S
C405 C408 1.363 1_554 S
N406 C408 1.356 1_554 S
N406 H418 0.984 1_554 S
N406 H419 0.985 . S
N407 C409 1.356 . S
N407 H412 0.984 . S
N407 H413 0.985 . S
C408 C402 1.379 . S
C408 C405 1.363 1_556 S
C408 N406 1.356 1_556 S
C409 C403 1.363 . S
C409 C404 1.379 1_556 S
C409 N407 1.356 . S
N410 C402 1.356 . S
N410 H416 0.984 . S
N410 H417 0.984 . S
N411 C404 1.356 . S
N411 H414 0.984 . S
N411 H415 0.985 . S
H412 N407 0.984 . S
H413 N407 0.985 . S
H414 N411 0.984 . S
H415 N411 0.985 . S
H416 N410 0.984 . S
H417 N410 0.984 . S
H418 N406 0.984 1_556 S
H419 N406 0.985 . S
C420 C421 1.363 . S
C420 C426 1.379 . S
C420 N428 1.356 . S
C421 C420 1.363 . S
C421 C427 1.363 . S
C422 C423 1.363 . S
C422 C427 1.379 . S
C422 N429 1.356 . S
C423 C422 1.363 . S
C423 C426 1.363 . S
N424 C426 1.356 . S
N424 H436 0.984 . S
N424 H437 0.985 . S
N425 C427 1.356 . S
N425 H430 0.984 . S
N425 H431 0.985 . S
C426 C420 1.379 . S
C426 C423 1.363 . S
C426 N424 1.356 . S
C427 C421 1.363 . S
C427 C422 1.379 . S
C427 N425 1.356 . S
N428 C420 1.356 . S
N428 H434 0.984 . S
N428 H435 0.984 . S
N429 C422 1.356 . S
N429 H432 0.984 . S
N429 H433 0.985 . S
H430 N425 0.984 . S
H431 N425 0.985 . S
H432 N429 0.984 . S
H433 N429 0.985 . S
H434 N428 0.984 . S
H435 N428 0.984 . S
H436 N424 0.984 . S
H437 N424 0.985 . S
C438 C439 1.363 . S
C438 C444 1.379 . S
C438 N446 1.356 . S
C439 C438 1.363 . S
C439 C445 1.363 . S
C440 C441 1.363 . S
C440 C445 1.379 . S
C440 N447 1.356 . S
C441 C440 1.363 . S
C441 C444 1.363 . S
N442 C444 1.356 . S
N442 H454 0.984 . S
N442 H455 0.985 . S
N443 C445 1.356 . S
N443 H448 0.984 . S
N443 H449 0.985 . S
C444 C438 1.379 . S
C444 C441 1.363 . S
C444 N442 1.356 . S
C445 C439 1.363 . S
C445 C440 1.379 . S
C445 N443 1.356 . S
N446 C438 1.356 . S
N446 H452 0.984 . S
N446 H453 0.984 . S
N447 C440 1.356 . S
N447 H450 0.984 . S
N447 H451 0.985 . S
H448 N443 0.984 . S
H449 N443 0.985 . S
H450 N447 0.984 . S
H451 N447 0.985 . S
H452 N446 0.984 . S
H453 N446 0.984 . S
H454 N442 0.984 . S
H455 N442 0.985 . S
C456 C457 1.363 . S
C456 C462 1.379 . S
C456 N464 1.356 . S
C457 C456 1.363 . S
C457 C463 1.363 . S
C458 C459 1.363 . S
C458 C463 1.379 . S
C458 N465 1.356 . S
C459 C458 1.363 . S
C459 C462 1.363 . S
N460 C462 1.356 . S
N460 H472 0.984 . S
N460 H473 0.985 . S
N461 C463 1.356 . S
N461 H466 0.984 . S
N461 H467 0.985 . S
C462 C456 1.379 . S
C462 C459 1.363 . S
C462 N460 1.356 . S
C463 C457 1.363 . S
C463 C458 1.379 . S
C463 N461 1.356 . S
N464 C456 1.356 . S
N464 H470 0.984 . S
N464 H471 0.984 . S
N465 C458 1.356 . S
N465 H468 0.984 . S
N465 H469 0.985 . S
H466 N461 0.984 . S
H467 N461 0.985 . S
H468 N465 0.984 . S
H469 N465 0.985 . S
H470 N464 0.984 . S
H471 N464 0.984 . S
H472 N460 0.984 . S
H473 N460 0.985 . S
C474 C475 1.363 . S
C474 C480 1.379 . S
C474 N482 1.356 . S
C475 C474 1.363 . S
C475 C481 1.363 . S
C476 C477 1.363 . S
C476 C481 1.379 . S
C476 N483 1.356 . S
C477 C476 1.363 . S
C477 C480 1.363 . S
N478 C480 1.356 . S
N478 H490 0.984 . S
N478 H491 0.985 . S
N479 C481 1.356 . S
N479 H484 0.984 . S
N479 H485 0.985 . S
C480 C474 1.379 . S
C480 C477 1.363 . S
C480 N478 1.356 . S
C481 C475 1.363 . S
C481 C476 1.379 . S
C481 N479 1.356 . S
N482 C474 1.356 . S
N482 H488 0.984 . S
N482 H489 0.984 . S
N483 C476 1.356 . S
N483 H486 0.984 . S
N483 H487 0.985 . S
H484 N479 0.984 . S
H485 N479 0.985 . S
H486 N483 0.984 . S
H487 N483 0.985 . S
H488 N482 0.984 . S
H489 N482 0.984 . S
H490 N478 0.984 . S
H491 N478 0.985 . S
C492 C493 1.363 . S
C492 C498 1.379 1_545 S
C492 N500 1.356 1_554 S
C493 C492 1.363 . S
C493 C499 1.363 . S
C494 C495 1.363 . S
C494 C499 1.379 1_565 S
C494 N501 1.356 . S
C495 C494 1.363 . S
C495 C498 1.363 . S
N496 C498 1.356 1_556 S
N496 H508 0.984 . S
N496 H509 0.985 . S
N497 C499 1.356 . S
N497 H502 0.984 . S
N497 H503 0.985 . S
C498 C492 1.379 1_565 S
C498 C495 1.363 . S
C498 N496 1.356 1_554 S
C499 C493 1.363 . S
C499 C494 1.379 1_545 S
C499 N497 1.356 . S
N500 C492 1.356 1_556 S
N500 H506 0.984 . S
N500 H507 0.984 . S
N501 C494 1.356 . S
N501 H504 0.984 . S
N501 H505 0.985 . S
H502 N497 0.984 . S
H503 N497 0.985 . S
H504 N501 0.984 . S
H505 N501 0.985 . S
H506 N500 0.984 . S
H507 N500 0.984 . S
H508 N496 0.984 . S
H509 N496 0.985 . S
C510 C511 1.363 . S
C510 C516 1.379 . S
C510 N518 1.356 . S
C511 C510 1.363 . S
C511 C517 1.363 . S
C512 C513 1.363 . S
C512 C517 1.379 . S
C512 N519 1.356 . S
C513 C512 1.363 . S
C513 C516 1.363 . S
N514 C516 1.356 . S
N514 H526 0.984 . S
N514 H527 0.985 . S
N515 C517 1.356 . S
N515 H520 0.984 . S
N515 H521 0.985 . S
C516 C510 1.379 . S
C516 C513 1.363 . S
C516 N514 1.356 . S
C517 C511 1.363 . S
C517 C512 1.379 . S
C517 N515 1.356 . S
N518 C510 1.356 . S
N518 H524 0.984 . S
N518 H525 0.984 . S
N519 C512 1.356 . S
N519 H522 0.984 . S
N519 H523 0.985 . S
H520 N515 0.984 . S
H521 N515 0.985 . S
H522 N519 0.984 . S
H523 N519 0.985 . S
H524 N518 0.984 . S
H525 N518 0.984 . S
H526 N514 0.984 . S
H527 N514 0.985 . S
C528 C529 1.363 . S
C528 C534 1.379 1_455 S
C528 N536 1.356 . S
C529 C528 1.363 . S
C529 C535 1.363 . S
C530 C531 1.363 . S
C530 C535 1.379 1_655 S
C530 N537 1.356 . S
C531 C530 1.363 . S
C531 C534 1.363 . S
N532 C534 1.356 . S
N532 H544 0.984 . S
N532 H545 0.985 . S
N533 C535 1.356 . S
N533 H538 0.984 . S
N533 H539 0.985 . S
C534 C528 1.379 1_655 S
C534 C531 1.363 . S
C534 N532 1.356 . S
C535 C529 1.363 . S
C535 C530 1.379 1_455 S
C535 N533 1.356 . S
N536 C528 1.356 . S
N536 H542 0.984 . S
N536 H543 0.984 . S
N537 C530 1.356 . S
N537 H540 0.984 . S
N537 H541 0.985 . S
H538 N533 0.984 . S
H539 N533 0.985 . S
H540 N537 0.984 . S
H541 N537 0.985 . S
H542 N536 0.984 . S
H543 N536 0.984 . S
H544 N532 0.984 . S
H545 N532 0.985 . S
C546 C547 1.363 . S
C546 C552 1.379 1_565 S
C546 N554 1.356 . S
C547 C546 1.363 . S
C547 C553 1.363 . S
C548 C549 1.363 . S
C548 C553 1.379 1_545 S
C548 N555 1.356 . S
C549 C548 1.363 . S
C549 C552 1.363 . S
N550 C552 1.356 . S
N550 H562 0.984 . S
N550 H563 0.985 . S
N551 C553 1.356 . S
N551 H556 0.984 . S
N551 H557 0.985 . S
C552 C546 1.379 1_545 S
C552 C549 1.363 . S
C552 N550 1.356 . S
C553 C547 1.363 . S
C553 C548 1.379 1_565 S
C553 N551 1.356 . S
N554 C546 1.356 . S
N554 H560 0.984 . S
N554 H561 0.984 . S
N555 C548 1.356 . S
N555 H558 0.984 . S
N555 H559 0.985 . S
H556 N551 0.984 . S
H557 N551 0.985 . S
H558 N555 0.984 . S
H559 N555 0.985 . S
H560 N554 0.984 . S
H561 N554 0.984 . S
H562 N550 0.984 . S
H563 N550 0.985 . S
C564 C565 1.363 . S
C564 C570 1.379 . S
C564 N572 1.356 . S
C565 C564 1.363 . S
C565 C571 1.363 . S
C566 C567 1.363 . S
C566 C571 1.379 . S
C566 N573 1.356 . S
C567 C566 1.363 . S
C567 C570 1.363 . S
N568 C570 1.356 . S
N568 H580 0.984 . S
N568 H581 0.985 . S
N569 C571 1.356 . S
N569 H574 0.984 . S
N569 H575 0.985 . S
C570 C564 1.379 . S
C570 C567 1.363 . S
C570 N568 1.356 . S
C571 C565 1.363 . S
C571 C566 1.379 . S
C571 N569 1.356 . S
N572 C564 1.356 . S
N572 H578 0.984 . S
N572 H579 0.984 . S
N573 C566 1.356 . S
N573 H576 0.984 . S
N573 H577 0.985 . S
H574 N569 0.984 . S
H575 N569 0.985 . S
H576 N573 0.984 . S
H577 N573 0.985 . S
H578 N572 0.984 . S
H579 N572 0.984 . S
H580 N568 0.984 . S
H581 N568 0.985 . S
C582 C583 1.363 . S
C582 C588 1.379 1_455 S
C582 N590 1.356 . S
C583 C582 1.363 . S
C583 C589 1.363 . S
C584 C585 1.363 . S
C584 C589 1.379 1_655 S
C584 N591 1.356 . S
C585 C584 1.363 . S
C585 C588 1.363 . S
N586 C588 1.356 . S
N586 H598 0.984 1_556 S
N586 H599 0.985 . S
N587 C589 1.356 . S
N587 H592 0.984 . S
N587 H593 0.985 . S
C588 C582 1.379 1_655 S
C588 C585 1.363 . S
C588 N586 1.356 . S
C589 C583 1.363 . S
C589 C584 1.379 1_455 S
C589 N587 1.356 . S
N590 C582 1.356 . S
N590 H596 0.984 1_556 S
N590 H597 0.984 . S
N591 C584 1.356 . S
N591 H594 0.984 . S
N591 H595 0.985 . S
H592 N587 0.984 . S
H593 N587 0.985 . S
H594 N591 0.984 . S
H595 N591 0.985 . S
H596 N590 0.984 1_554 S
H597 N590 0.984 . S
H598 N586 0.984 1_554 S
H599 N586 0.985 . S
C169 C9 1.237 . S
C171 C149 1.237 . S
C187 C23 1.237 . S
C189 C163 1.237 . S
C205 C93 1.237 . S
C207 C37 1.237 . S
C223 C51 1.237 . S
C225 C107 1.237 . S
C241 C121 1.237 . S
C243 C65 1.237 . S
C259 C135 1.237 . S
C261 C79 1.237 . S
C277 C123 1.426 . S
C279 C11 1.426 . S
C295 C25 1.426 . S
C297 C137 1.426 . S
C313 C151 1.426 . S
C315 C39 1.426 . S
C331 C53 1.426 . S
C333 C165 1.426 . S
C349 C67 1.426 . S
C351 C95 1.426 . S
C367 C81 1.426 . S
C369 C109 1.426 . S
C385 C140 1.576 . S
C387 C0 1.576 . S
C403 C154 1.576 . S
C405 C14 1.576 . S
C421 C84 1.584 . S
C423 C28 1.576 . S
C439 C42 1.576 . S
C441 C98 1.576 . S
C457 C56 1.576 . S
C459 C112 1.576 . S
C475 C126 1.576 . S
C477 C70 1.576 . S
C493 C5 1.378 . S
C495 C103 1.378 . S
C511 C117 1.378 . S
C513 C19 1.379 . S
C529 C131 1.378 . S
C531 C33 1.378 . S
C547 C47 1.379 . S
C549 C145 1.379 . S
C565 C61 1.379 . S
C567 C159 1.379 . S
C583 C75 1.379 . S
C585 C89 1.378 . S
