# Generated by pormake.
# Topology vbx, (6)-cn, num edge types: 1
# Building blocks:
#     Node 0, Type 0, BuildingBlock: IZENUY_clean_sbu_0, # of connection points: 6
#     Node 1, Type 0, BuildingBlock: IZENUY_clean_sbu_0, # of connection points: 6
#     Node 2, Type 0, BuildingBlock: IZENUY_clean_sbu_0, # of connection points: 6
#     Node 3, Type 0, BuildingBlock: IZENUY_clean_sbu_0, # of connection points: 6
#     Node 4, Type 0, BuildingBlock: IZENUY_clean_sbu_0, # of connection points: 6
#     Node 5, Type 0, BuildingBlock: IZENUY_clean_sbu_0, # of connection points: 6
#     Node 6, Type 0, BuildingBlock: IZENUY_clean_sbu_0, # of connection points: 6
#     Node 7, Type 0, BuildingBlock: IZENUY_clean_sbu_0, # of connection points: 6
#     Node 8, Type 0, BuildingBlock: IZENUY_clean_sbu_0, # of connection points: 6
#     Node 9, Type 0, BuildingBlock: IZENUY_clean_sbu_0, # of connection points: 6
#     Node 10, Type 0, BuildingBlock: IZENUY_clean_sbu_0, # of connection points: 6
#     Node 11, Type 0, BuildingBlock: IZENUY_clean_sbu_0, # of connection points: 6
#     Node 12, Type 0, BuildingBlock: IZENUY_clean_sbu_0, # of connection points: 6
#     Node 13, Type 0, BuildingBlock: IZENUY_clean_sbu_0, # of connection points: 6
#     Node 14, Type 0, BuildingBlock: IZENUY_clean_sbu_0, # of connection points: 6
#     Node 15, Type 0, BuildingBlock: IZENUY_clean_sbu_0, # of connection points: 6
#     Edge 16, Type (0, 0), BuildingBlock: UVAHIK_clean_linker_0, # of connection points: 2
#     Edge 17, Type (0, 0), BuildingBlock: UVAHIK_clean_linker_0, # of connection points: 2
#     Edge 18, Type (0, 0), BuildingBlock: UVAHIK_clean_linker_0, # of connection points: 2
#     Edge 19, Type (0, 0), BuildingBlock: UVAHIK_clean_linker_0, # of connection points: 2
#     Edge 20, Type (0, 0), BuildingBlock: UVAHIK_clean_linker_0, # of connection points: 2
#     Edge 21, Type (0, 0), BuildingBlock: UVAHIK_clean_linker_0, # of connection points: 2
#     Edge 22, Type (0, 0), BuildingBlock: UVAHIK_clean_linker_0, # of connection points: 2
#     Edge 23, Type (0, 0), BuildingBlock: UVAHIK_clean_linker_0, # of connection points: 2
#     Edge 24, Type (0, 0), BuildingBlock: UVAHIK_clean_linker_0, # of connection points: 2
#     Edge 25, Type (0, 0), BuildingBlock: UVAHIK_clean_linker_0, # of connection points: 2
#     Edge 26, Type (0, 0), BuildingBlock: UVAHIK_clean_linker_0, # of connection points: 2
#     Edge 27, Type (0, 0), BuildingBlock: UVAHIK_clean_linker_0, # of connection points: 2
#     Edge 28, Type (0, 0), BuildingBlock: UVAHIK_clean_linker_0, # of connection points: 2
#     Edge 29, Type (0, 0), BuildingBlock: UVAHIK_clean_linker_0, # of connection points: 2
#     Edge 30, Type (0, 0), BuildingBlock: UVAHIK_clean_linker_0, # of connection points: 2
#     Edge 31, Type (0, 0), BuildingBlock: UVAHIK_clean_linker_0, # of connection points: 2
#     Edge 32, Type (0, 0), BuildingBlock: UVAHIK_clean_linker_0, # of connection points: 2
#     Edge 33, Type (0, 0), BuildingBlock: UVAHIK_clean_linker_0, # of connection points: 2
#     Edge 34, Type (0, 0), BuildingBlock: UVAHIK_clean_linker_0, # of connection points: 2
#     Edge 35, Type (0, 0), BuildingBlock: UVAHIK_clean_linker_0, # of connection points: 2
#     Edge 36, Type (0, 0), BuildingBlock: UVAHIK_clean_linker_0, # of connection points: 2
#     Edge 37, Type (0, 0), BuildingBlock: UVAHIK_clean_linker_0, # of connection points: 2
#     Edge 38, Type (0, 0), BuildingBlock: UVAHIK_clean_linker_0, # of connection points: 2
#     Edge 39, Type (0, 0), BuildingBlock: UVAHIK_clean_linker_0, # of connection points: 2
#     Edge 40, Type (0, 0), BuildingBlock: UVAHIK_clean_linker_0, # of connection points: 2
#     Edge 41, Type (0, 0), BuildingBlock: UVAHIK_clean_linker_0, # of connection points: 2
#     Edge 42, Type (0, 0), BuildingBlock: UVAHIK_clean_linker_0, # of connection points: 2
#     Edge 43, Type (0, 0), BuildingBlock: UVAHIK_clean_linker_0, # of connection points: 2
#     Edge 44, Type (0, 0), BuildingBlock: UVAHIK_clean_linker_0, # of connection points: 2
#     Edge 45, Type (0, 0), BuildingBlock: UVAHIK_clean_linker_0, # of connection points: 2
#     Edge 46, Type (0, 0), BuildingBlock: UVAHIK_clean_linker_0, # of connection points: 2
#     Edge 47, Type (0, 0), BuildingBlock: UVAHIK_clean_linker_0, # of connection points: 2
#     Edge 48, Type (0, 0), BuildingBlock: UVAHIK_clean_linker_0, # of connection points: 2
#     Edge 49, Type (0, 0), BuildingBlock: UVAHIK_clean_linker_0, # of connection points: 2
#     Edge 50, Type (0, 0), BuildingBlock: UVAHIK_clean_linker_0, # of connection points: 2
#     Edge 51, Type (0, 0), BuildingBlock: UVAHIK_clean_linker_0, # of connection points: 2
#     Edge 52, Type (0, 0), BuildingBlock: UVAHIK_clean_linker_0, # of connection points: 2
#     Edge 53, Type (0, 0), BuildingBlock: UVAHIK_clean_linker_0, # of connection points: 2
#     Edge 54, Type (0, 0), BuildingBlock: UVAHIK_clean_linker_0, # of connection points: 2
#     Edge 55, Type (0, 0), BuildingBlock: UVAHIK_clean_linker_0, # of connection points: 2
#     Edge 56, Type (0, 0), BuildingBlock: UVAHIK_clean_linker_0, # of connection points: 2
#     Edge 57, Type (0, 0), BuildingBlock: UVAHIK_clean_linker_0, # of connection points: 2
#     Edge 58, Type (0, 0), BuildingBlock: UVAHIK_clean_linker_0, # of connection points: 2
#     Edge 59, Type (0, 0), BuildingBlock: UVAHIK_clean_linker_0, # of connection points: 2
#     Edge 60, Type (0, 0), BuildingBlock: UVAHIK_clean_linker_0, # of connection points: 2
#     Edge 61, Type (0, 0), BuildingBlock: UVAHIK_clean_linker_0, # of connection points: 2
#     Edge 62, Type (0, 0), BuildingBlock: UVAHIK_clean_linker_0, # of connection points: 2
#     Edge 63, Type (0, 0), BuildingBlock: UVAHIK_clean_linker_0, # of connection points: 2
# Relax obj value: 0.242
# Max RMSD: 0.243
# Mean RMSD: 0.243
data_MOF--net-vbx--node1-IZENUY_clean_sbu_0--edge1-UVAHIK_clean_linker_0
_symmetry_space_group_name_H-M    P1
_symmetry_Int_Tables_number       1
_symmetry_cell_setting            triclinic
loop_
_symmetry_equiv_pos_as_xyz
'x, y, z'
_cell_length_a     59.038462
_cell_length_b     35.498827
_cell_length_c     72.439962
_cell_angle_alpha  89.927982
_cell_angle_beta   90.00401
_cell_angle_gamma 89.855222
loop_
_atom_site_label
_atom_site_type_symbol
_atom_site_fract_x
_atom_site_fract_y
_atom_site_fract_z
_atom_type_partial_charge
Fe0 Fe 0.35443 0.40024 0.10649 0.0
Fe1 Fe 0.35258 0.3276 0.08323 0.0
O2 O 0.33952 0.35985 0.09865 0.0
Fe3 Fe 0.31122 0.35173 0.10604 0.0
O4 O 0.3036 0.40154 0.10875 0.0
O5 O 0.33279 0.4322 0.09779 0.0
O6 O 0.36953 0.40825 0.08461 0.0
C7 C 0.36593 0.39557 0.06853 0.0
C8 C 0.33147 0.37307 0.13834 0.0
O9 O 0.3567 0.364 0.06615 0.0
C10 C 0.33 0.27806 0.10522 0.0
O11 O 0.37752 0.37212 0.11584 0.0
O12 O 0.38117 0.33353 0.09234 0.0
O13 O 0.32022 0.34836 0.12983 0.0
O14 O 0.3418 0.39901 0.12971 0.0
C15 C 0.30839 0.33495 0.06936 0.0
O16 O 0.34903 0.28824 0.09907 0.0
O17 O 0.31323 0.3003 0.10497 0.0
C18 C 0.38871 0.34765 0.10711 0.0
O19 O 0.32647 0.31623 0.07116 0.0
O20 O 0.30059 0.35454 0.08245 0.0
C21 C 0.31213 0.4312 0.10209 0.0
Fe22 Fe 0.66138 0.61715 0.60927 0.0
Fe23 Fe 0.66206 0.68349 0.58232 0.0
O24 O 0.67589 0.65555 0.59921 0.0
Fe25 Fe 0.7041 0.66544 0.6059 0.0
O26 O 0.71385 0.61869 0.59921 0.0
O27 O 0.6867 0.58812 0.61328 0.0
O28 O 0.65876 0.59431 0.58702 0.0
C29 C 0.64933 0.60933 0.57321 0.0
C30 C 0.68174 0.64769 0.63944 0.0
O31 O 0.64526 0.6444 0.57289 0.0
C32 C 0.68819 0.73735 0.6024 0.0
O33 O 0.6332 0.63878 0.60743 0.0
O34 O 0.63966 0.69674 0.59828 0.0
O35 O 0.69982 0.65118 0.6301 0.0
O36 O 0.66341 0.63814 0.63184 0.0
C37 C 0.70419 0.6779 0.56707 0.0
O38 O 0.67677 0.72749 0.58841 0.0
O39 O 0.69673 0.71294 0.613 0.0
C40 C 0.62711 0.67293 0.60619 0.0
O41 O 0.68327 0.67201 0.56526 0.0
O42 O 0.713 0.68173 0.58292 0.0
C43 C 0.70599 0.58846 0.6057 0.0
Fe44 Fe 0.3131 0.66972 0.86953 0.0
Fe45 Fe 0.35629 0.62155 0.86788 0.0
O46 O 0.34118 0.66049 0.87692 0.0
Fe47 Fe 0.3543 0.68989 0.8935 0.0
O48 O 0.33283 0.67905 0.91034 0.0
O49 O 0.30346 0.68745 0.89208 0.0
O50 O 0.30338 0.62371 0.87677 0.0
C51 C 0.31159 0.59296 0.87127 0.0
C52 C 0.32807 0.74193 0.8721 0.0
O53 O 0.33124 0.59164 0.86429 0.0
C54 C 0.38991 0.6784 0.87042 0.0
O55 O 0.31809 0.65373 0.84571 0.0
O56 O 0.35458 0.64065 0.8448 0.0
O57 O 0.33936 0.73332 0.8864 0.0
O58 O 0.3204 0.71656 0.86172 0.0
C59 C 0.36742 0.61663 0.90433 0.0
O60 O 0.38425 0.64401 0.86968 0.0
O61 O 0.37685 0.7024 0.87763 0.0
C62 C 0.33641 0.64966 0.83676 0.0
O63 O 0.35869 0.60051 0.89056 0.0
O64 O 0.37121 0.65178 0.90403 0.0
C65 C 0.3119 0.68417 0.9081 0.0
Fe66 Fe 0.66213 0.40484 0.36769 0.0
Fe67 Fe 0.66165 0.33591 0.39301 0.0
O68 O 0.67621 0.36529 0.3772 0.0
Fe69 Fe 0.70467 0.3558 0.37101 0.0
O70 O 0.71417 0.4018 0.37891 0.0
O71 O 0.6876 0.43372 0.36476 0.0
O72 O 0.65894 0.42557 0.39035 0.0
C73 C 0.64915 0.40944 0.40367 0.0
C74 C 0.68338 0.37666 0.33737 0.0
O75 O 0.64476 0.3745 0.40303 0.0
C76 C 0.68856 0.28373 0.37238 0.0
O77 O 0.63384 0.38377 0.36849 0.0
O78 O 0.6398 0.32482 0.37619 0.0
O79 O 0.70117 0.37213 0.347 0.0
O80 O 0.66483 0.38584 0.34476 0.0
C81 C 0.70324 0.33962 0.40948 0.0
O82 O 0.67634 0.29224 0.38616 0.0
O83 O 0.69769 0.30911 0.36275 0.0
C84 C 0.62768 0.34966 0.36855 0.0
O85 O 0.68221 0.34504 0.41087 0.0
O86 O 0.71274 0.33745 0.39383 0.0
C87 C 0.7066 0.43257 0.37277 0.0
Fe88 Fe 0.66271 0.68795 0.89399 0.0
Fe89 Fe 0.66088 0.62023 0.86805 0.0
O90 O 0.67605 0.65857 0.87752 0.0
Fe91 Fe 0.70436 0.66709 0.87067 0.0
O92 O 0.71355 0.68405 0.89345 0.0
O93 O 0.68367 0.67627 0.9112 0.0
O94 O 0.64529 0.65025 0.9039 0.0
C95 C 0.64899 0.6151 0.90431 0.0
C96 C 0.68951 0.73974 0.87328 0.0
O97 O 0.6579 0.59871 0.89065 0.0
C98 C 0.68166 0.64842 0.83743 0.0
O99 O 0.64066 0.7014 0.87777 0.0
O100 O 0.63304 0.64328 0.86962 0.0
O101 O 0.6977 0.71456 0.86297 0.0
O102 O 0.67808 0.7309 0.88742 0.0
C103 C 0.70519 0.5901 0.8719 0.0
O104 O 0.66322 0.63983 0.84516 0.0
O105 O 0.69979 0.65184 0.84669 0.0
C106 C 0.62758 0.67781 0.87032 0.0
O107 O 0.68579 0.58991 0.86446 0.0
O108 O 0.71345 0.62038 0.87794 0.0
C109 C 0.70469 0.68099 0.90933 0.0
Fe110 Fe 0.35323 0.3271 0.39175 0.0
Fe111 Fe 0.3539 0.40048 0.36887 0.0
O112 O 0.33959 0.35946 0.37666 0.0
Fe113 Fe 0.31125 0.3508 0.36953 0.0
O114 O 0.30106 0.35315 0.39324 0.0
O115 O 0.3274 0.31504 0.40408 0.0
O116 O 0.35749 0.36304 0.40899 0.0
C117 C 0.36617 0.39507 0.40668 0.0
C118 C 0.33051 0.27745 0.36999 0.0
O119 O 0.3691 0.40861 0.39066 0.0
C120 C 0.33091 0.37299 0.33712 0.0
O121 O 0.38162 0.33391 0.38233 0.0
O122 O 0.37718 0.37334 0.35923 0.0
O123 O 0.31363 0.29939 0.37054 0.0
O124 O 0.34963 0.288 0.37578 0.0
C125 C 0.31139 0.43027 0.37353 0.0
O126 O 0.34101 0.39918 0.34574 0.0
O127 O 0.31996 0.34788 0.34565 0.0
C128 C 0.38885 0.34906 0.36769 0.0
O129 O 0.33202 0.43162 0.37787 0.0
O130 O 0.30313 0.40046 0.36686 0.0
C131 C 0.30927 0.33353 0.4062 0.0
Fe132 Fe 0.66168 0.40284 0.10884 0.0
Fe133 Fe 0.70427 0.35328 0.10602 0.0
O134 O 0.67602 0.36349 0.09936 0.0
Fe135 Fe 0.66192 0.33462 0.08311 0.0
O136 O 0.64504 0.37311 0.07312 0.0
O137 O 0.6585 0.42408 0.08626 0.0
O138 O 0.68711 0.43191 0.11176 0.0
C139 C 0.70644 0.43024 0.10426 0.0
C140 C 0.62738 0.34711 0.1072 0.0
O141 O 0.71426 0.39925 0.09862 0.0
C142 C 0.68802 0.28156 0.1038 0.0
O143 O 0.66419 0.38375 0.13184 0.0
O144 O 0.70043 0.3692 0.12996 0.0
O145 O 0.63984 0.32273 0.09957 0.0
O146 O 0.63348 0.38128 0.10781 0.0
C147 C 0.70378 0.33887 0.06739 0.0
O148 O 0.69673 0.30641 0.11396 0.0
O149 O 0.6766 0.29086 0.08971 0.0
C150 C 0.68259 0.37429 0.13941 0.0
O151 O 0.7128 0.33545 0.0832 0.0
O152 O 0.68284 0.3448 0.06569 0.0
C153 C 0.64917 0.4081 0.07272 0.0
Fe154 Fe 0.30964 0.6694 0.60652 0.0
Fe155 Fe 0.34946 0.6926 0.58183 0.0
O156 O 0.33756 0.66127 0.59828 0.0
Fe157 Fe 0.35296 0.62164 0.60649 0.0
O158 O 0.33099 0.58888 0.59909 0.0
O159 O 0.30305 0.62017 0.61151 0.0
O160 O 0.29792 0.66264 0.58358 0.0
C161 C 0.3048 0.6804 0.56954 0.0
C162 C 0.33197 0.65263 0.63835 0.0
O163 O 0.32255 0.70038 0.56999 0.0
C164 C 0.38692 0.67489 0.60516 0.0
O165 O 0.31019 0.72024 0.60334 0.0
O166 O 0.34537 0.73372 0.59666 0.0
O167 O 0.34138 0.62524 0.63003 0.0
O168 O 0.32023 0.67662 0.62966 0.0
C169 C 0.36359 0.62365 0.56828 0.0
O170 O 0.37846 0.68912 0.59068 0.0
O171 O 0.3763 0.65056 0.61444 0.0
C172 C 0.32615 0.74371 0.60258 0.0
O173 O 0.35421 0.65502 0.56548 0.0
O174 O 0.36715 0.61164 0.58449 0.0
C175 C 0.31078 0.59024 0.6046 0.0
Fe176 Fe 0.85453 0.90209 0.10934 0.0
Fe177 Fe 0.85452 0.83427 0.08333 0.0
O178 O 0.84033 0.8629 0.0997 0.0
Fe179 Fe 0.81209 0.85267 0.10629 0.0
O180 O 0.802 0.89875 0.09903 0.0
O181 O 0.82903 0.93114 0.11236 0.0
O182 O 0.85765 0.9237 0.08679 0.0
C183 C 0.86708 0.90792 0.07321 0.0
C184 C 0.83369 0.87285 0.13976 0.0
O185 O 0.87132 0.87293 0.07354 0.0
C186 C 0.82849 0.78096 0.10382 0.0
O187 O 0.88277 0.88047 0.10824 0.0
O188 O 0.87668 0.82203 0.09969 0.0
O189 O 0.81587 0.86823 0.13027 0.0
O190 O 0.85207 0.8826 0.13228 0.0
C191 C 0.81264 0.8387 0.06763 0.0
O192 O 0.83992 0.79042 0.08977 0.0
O193 O 0.81976 0.8057 0.11408 0.0
C194 C 0.889 0.84632 0.10746 0.0
O195 O 0.83355 0.84479 0.06595 0.0
O196 O 0.80364 0.83514 0.08343 0.0
C197 C 0.80975 0.92964 0.10479 0.0
Fe198 Fe 0.16321 0.12288 0.60681 0.0
Fe199 Fe 0.16429 0.1969 0.58435 0.0
O200 O 0.17781 0.16381 0.59914 0.0
Fe201 Fe 0.20633 0.17167 0.606 0.0
O202 O 0.21415 0.12201 0.60809 0.0
O203 O 0.18475 0.09139 0.59754 0.0
O204 O 0.14771 0.11568 0.58506 0.0
C205 C 0.15072 0.12945 0.56909 0.0
C206 C 0.18696 0.14893 0.63851 0.0
O207 O 0.15961 0.16138 0.56695 0.0
C208 C 0.18768 0.24537 0.60627 0.0
O209 O 0.14015 0.15021 0.61674 0.0
O210 O 0.13597 0.19051 0.59394 0.0
O211 O 0.19806 0.17392 0.63002 0.0
O212 O 0.17635 0.12336 0.62985 0.0
C213 C 0.20797 0.19008 0.56944 0.0
O214 O 0.16838 0.23553 0.60054 0.0
O215 O 0.20432 0.22298 0.60543 0.0
C216 C 0.1287 0.17512 0.6085 0.0
O217 O 0.19001 0.20882 0.57186 0.0
O218 O 0.21618 0.1699 0.58218 0.0
C219 C 0.20559 0.09271 0.60121 0.0
Fe220 Fe 0.85518 0.18857 0.89305 0.0
Fe221 Fe 0.81326 0.16704 0.87016 0.0
O222 O 0.84154 0.15819 0.87718 0.0
Fe223 Fe 0.85637 0.11861 0.86842 0.0
O224 O 0.85936 0.09892 0.89132 0.0
O225 O 0.87211 0.15101 0.90394 0.0
O226 O 0.8341 0.17927 0.91045 0.0
C227 C 0.81311 0.18419 0.90851 0.0
C228 C 0.8902 0.17512 0.86952 0.0
O229 O 0.8042 0.18607 0.8926 0.0
C230 C 0.83564 0.14461 0.83727 0.0
O231 O 0.84027 0.23162 0.8855 0.0
O232 O 0.82032 0.2135 0.86158 0.0
O233 O 0.88437 0.14081 0.86943 0.0
O234 O 0.87746 0.19974 0.87664 0.0
C235 C 0.81183 0.09026 0.87295 0.0
O236 O 0.81763 0.14974 0.8465 0.0
O237 O 0.85404 0.13622 0.84513 0.0
C238 C 0.82859 0.23944 0.87131 0.0
O239 O 0.8037 0.1213 0.87819 0.0
O240 O 0.83127 0.0887 0.86564 0.0
C241 C 0.8683 0.11592 0.90474 0.0
Fe242 Fe 0.16374 0.90395 0.36838 0.0
Fe243 Fe 0.1631 0.83591 0.39427 0.0
O244 O 0.17753 0.86408 0.37787 0.0
Fe245 Fe 0.2056 0.85267 0.37114 0.0
O246 O 0.21636 0.89817 0.37838 0.0
O247 O 0.18959 0.93201 0.36537 0.0
O248 O 0.161 0.92537 0.39096 0.0
C249 C 0.15134 0.91 0.40454 0.0
C250 C 0.18401 0.87431 0.33775 0.0
O251 O 0.14672 0.87516 0.40421 0.0
C252 C 0.18865 0.78161 0.37377 0.0
O253 O 0.13524 0.88337 0.36951 0.0
O254 O 0.14079 0.82464 0.37797 0.0
O255 O 0.20185 0.86859 0.34714 0.0
O256 O 0.16585 0.88475 0.34538 0.0
C257 C 0.20498 0.83815 0.40984 0.0
O258 O 0.17724 0.79146 0.38779 0.0
O259 O 0.19729 0.80615 0.36337 0.0
C260 C 0.12867 0.84943 0.37028 0.0
O261 O 0.18423 0.8456 0.41153 0.0
O262 O 0.21394 0.83452 0.39401 0.0
C263 C 0.20895 0.92947 0.37277 0.0
Fe264 Fe 0.16512 0.19828 0.89165 0.0
Fe265 Fe 0.16275 0.1243 0.86932 0.0
O266 O 0.17805 0.16463 0.87683 0.0
Fe267 Fe 0.20663 0.17146 0.86978 0.0
O268 O 0.21666 0.16951 0.89355 0.0
O269 O 0.19115 0.20955 0.90385 0.0
O270 O 0.16029 0.16312 0.90916 0.0
C271 C 0.15106 0.13142 0.90723 0.0
C272 C 0.18871 0.24578 0.86934 0.0
O273 O 0.14766 0.11749 0.89134 0.0
C274 C 0.18661 0.14939 0.8374 0.0
O275 O 0.13657 0.19279 0.88244 0.0
O276 O 0.13991 0.1525 0.85965 0.0
O277 O 0.20518 0.22299 0.87015 0.0
O278 O 0.16941 0.23651 0.87528 0.0
C279 C 0.20472 0.09222 0.87438 0.0
O280 O 0.17547 0.12448 0.84612 0.0
O281 O 0.19824 0.17378 0.84581 0.0
C282 C 0.12888 0.1777 0.86799 0.0
O283 O 0.18393 0.09184 0.87823 0.0
O284 O 0.21386 0.12142 0.86784 0.0
C285 C 0.20881 0.19004 0.90627 0.0
Fe286 Fe 0.8543 0.83613 0.39362 0.0
Fe287 Fe 0.85429 0.90411 0.36755 0.0
O288 O 0.84006 0.86511 0.37739 0.0
Fe289 Fe 0.81169 0.85559 0.37103 0.0
O290 O 0.80331 0.83764 0.39383 0.0
O291 O 0.83343 0.84603 0.41116 0.0
O292 O 0.87093 0.87489 0.40355 0.0
C293 C 0.86696 0.91003 0.4036 0.0
C294 C 0.82785 0.78354 0.37296 0.0
O295 O 0.85757 0.92582 0.38997 0.0
C296 C 0.83318 0.87498 0.33739 0.0
O297 O 0.87647 0.82423 0.37721 0.0
O298 O 0.88254 0.88265 0.3687 0.0
O299 O 0.81891 0.80875 0.36306 0.0
O300 O 0.83973 0.79233 0.38689 0.0
C301 C 0.80973 0.93236 0.37235 0.0
O302 O 0.8517 0.8842 0.34476 0.0
O303 O 0.81533 0.8714 0.347 0.0
C304 C 0.8888 0.84856 0.36949 0.0
O305 O 0.82878 0.93324 0.36435 0.0
O306 O 0.80217 0.90177 0.37864 0.0
C307 C 0.81249 0.84024 0.40958 0.0
Fe308 Fe 0.20568 0.8532 0.10625 0.0
Fe309 Fe 0.16369 0.83672 0.08249 0.0
O310 O 0.17769 0.86449 0.09929 0.0
Fe311 Fe 0.1636 0.90384 0.10898 0.0
O312 O 0.1893 0.93211 0.11239 0.0
O313 O 0.21633 0.89895 0.09935 0.0
O314 O 0.21451 0.83584 0.08341 0.0
C315 C 0.20593 0.84041 0.06751 0.0
C316 C 0.18363 0.87357 0.13958 0.0
O317 O 0.18513 0.8472 0.06557 0.0
C318 C 0.1288 0.84901 0.10625 0.0
O319 O 0.19737 0.80651 0.11368 0.0
O320 O 0.17787 0.79218 0.08892 0.0
O321 O 0.16548 0.88386 0.13187 0.0
O322 O 0.20158 0.86844 0.13028 0.0
C323 C 0.15183 0.91111 0.07269 0.0
O324 O 0.14108 0.82468 0.09841 0.0
O325 O 0.13523 0.88297 0.10741 0.0
C326 C 0.18898 0.78213 0.10309 0.0
O327 O 0.1474 0.87619 0.07258 0.0
O328 O 0.16107 0.92602 0.08656 0.0
C329 C 0.20873 0.92999 0.10507 0.0
Fe330 Fe 0.81277 0.16425 0.60634 0.0
Fe331 Fe 0.85514 0.18692 0.58421 0.0
O332 O 0.84115 0.15567 0.59951 0.0
Fe333 Fe 0.85579 0.11547 0.60785 0.0
O334 O 0.83062 0.08551 0.61006 0.0
O335 O 0.80324 0.11891 0.59775 0.0
O336 O 0.80409 0.18432 0.58399 0.0
C337 C 0.81331 0.18348 0.56818 0.0
C338 C 0.83477 0.14009 0.63914 0.0
O339 O 0.83436 0.17876 0.56643 0.0
C340 C 0.88976 0.17185 0.60788 0.0
O341 O 0.81966 0.21035 0.61547 0.0
O342 O 0.84016 0.22956 0.59206 0.0
O343 O 0.8532 0.13171 0.63133 0.0
O344 O 0.81685 0.14585 0.62987 0.0
C345 C 0.86834 0.11502 0.57168 0.0
O346 O 0.87711 0.197 0.60107 0.0
O347 O 0.88387 0.13758 0.6074 0.0
C348 C 0.82819 0.23673 0.60614 0.0
O349 O 0.87225 0.14998 0.57313 0.0
O350 O 0.85903 0.09719 0.58468 0.0
C351 C 0.81124 0.08755 0.60268 0.0
C352 C 0.3124 0.22746 0.12404 0.0
C353 C 0.32529 0.23793 0.10863 0.0
C354 C 0.30319 0.19131 0.12529 0.0
C355 C 0.30102 0.09669 0.10178 0.0
H356 H 0.24137 0.09529 0.12406 0.0
C357 C 0.24716 0.96013 0.10558 0.0
C358 C 0.22346 0.96369 0.10496 0.0
C359 C 0.26093 0.99215 0.1066 0.0
C360 C 0.25785 0.09511 0.1175 0.0
H361 H 0.33927 0.21889 0.08266 0.0
H362 H 0.3224 0.15638 0.08429 0.0
H363 H 0.26349 0.15225 0.12505 0.0
H364 H 0.19564 1.0035 0.10408 0.0
H365 H 0.21947 0.05921 0.10485 0.0
H366 H 0.29455 0.04015 0.0931 0.0
C367 C 0.31998 0.17526 0.09585 0.0
C368 C 0.27089 0.12781 0.11846 0.0
C369 C 0.32973 0.21115 0.09487 0.0
C370 C 0.21385 0.99988 0.1048 0.0
C371 C 0.22759 0.03186 0.10541 0.0
C372 C 0.28774 0.06411 0.1005 0.0
C373 C 0.30593 0.1652 0.11081 0.0
C374 C 0.29269 0.12925 0.11059 0.0
C375 C 0.25134 0.02855 0.10666 0.0
C376 C 0.26587 0.0629 0.10825 0.0
H377 H 0.30873 0.24777 0.13479 0.0
H378 H 0.29321 0.18445 0.13736 0.0
H379 H 0.31779 0.09627 0.09575 0.0
H380 H 0.25506 0.93256 0.10584 0.0
H381 H 0.27905 0.98819 0.10779 0.0
C382 C 0.70588 0.79014 0.62042 0.0
C383 C 0.69574 0.7771 0.60409 0.0
C384 C 0.71594 0.82582 0.62107 0.0
C385 C 0.72225 0.91645 0.59471 0.0
H386 H 0.77786 0.92305 0.62289 0.0
C387 C 0.77327 0.05575 0.60048 0.0
C388 C 0.79698 0.0532 0.60182 0.0
C389 C 0.75986 0.02322 0.60101 0.0
C390 C 0.76252 0.92171 0.61474 0.0
H391 H 0.68767 0.79192 0.57578 0.0
H392 H 0.70571 0.85325 0.57671 0.0
H393 H 0.75611 0.86532 0.62353 0.0
H394 H 0.82523 0.01435 0.60399 0.0
H395 H 0.8021 0.9578 0.60417 0.0
H396 H 0.72938 0.97222 0.58513 0.0
C397 C 0.70549 0.83656 0.58922 0.0
C398 C 0.74972 0.88863 0.61539 0.0
C399 C 0.69514 0.80116 0.58866 0.0
C400 C 0.807 0.01735 0.60315 0.0
C401 C 0.79365 0.98486 0.60341 0.0
C402 C 0.73522 0.94941 0.59386 0.0
C403 C 0.71646 0.84916 0.60532 0.0
C404 C 0.72942 0.88537 0.60533 0.0
C405 C 0.76985 0.98727 0.60265 0.0
C406 C 0.75565 0.95246 0.60378 0.0
H407 H 0.70651 0.77242 0.63259 0.0
H408 H 0.72365 0.83477 0.63389 0.0
H409 H 0.70659 0.9154 0.58696 0.0
H410 H 0.76499 0.08296 0.59955 0.0
H411 H 0.74163 0.02644 0.60061 0.0
C412 C 0.32845 0.81102 0.88006 0.0
C413 C 0.31914 0.78087 0.87001 0.0
C414 C 0.31771 0.84632 0.88024 0.0
C415 C 0.26241 0.88699 0.87995 0.0
H416 H 0.28805 0.98056 0.86212 0.0
C417 C 0.20781 0.02171 0.87399 0.0
C418 C 0.21822 0.05704 0.87566 0.0
C419 C 0.22083 0.98869 0.87377 0.0
C420 C 0.2807 0.95494 0.86755 0.0
H421 H 0.29156 0.76476 0.85182 0.0
H422 H 0.27269 0.8259 0.85261 0.0
H423 H 0.31037 0.92263 0.86065 0.0
H424 H 0.25036 0.08544 0.87916 0.0
H425 H 0.27296 0.02802 0.87985 0.0
H426 H 0.23315 0.91876 0.88759 0.0
C427 C 0.28838 0.82221 0.86015 0.0
C428 C 0.29352 0.92172 0.86654 0.0
C429 C 0.29932 0.78728 0.85963 0.0
C430 C 0.24186 0.05859 0.87768 0.0
C431 C 0.25485 0.02555 0.87789 0.0
C432 C 0.24979 0.92025 0.88137 0.0
C433 C 0.29725 0.8518 0.87069 0.0
C434 C 0.28434 0.88743 0.87251 0.0
C435 C 0.2446 0.99005 0.87565 0.0
C436 C 0.25858 0.95475 0.87495 0.0
H437 H 0.34364 0.80701 0.88822 0.0
H438 H 0.32483 0.86882 0.88847 0.0
H439 H 0.25509 0.86084 0.88483 0.0
H440 H 0.18963 0.01961 0.87221 0.0
H441 H 0.21218 0.96221 0.87163 0.0
C442 C 0.77499 0.96809 0.3826 0.0
C443 C 0.7952 0.96662 0.37232 0.0
C444 C 0.76118 1.00027 0.38211 0.0
C445 C 0.74798 0.08345 0.35344 0.0
H446 H 0.72521 0.12715 0.39881 0.0
C447 C 0.7129 0.2351 0.35683 0.0
C448 C 0.69589 0.24398 0.36972 0.0
C449 C 0.72244 0.19903 0.35626 0.0
C450 C 0.73102 0.115 0.38595 0.0
H451 H 0.8167 0.99806 0.35352 0.0
H452 H 0.7926 0.05379 0.35263 0.0
H453 H 0.74691 0.06864 0.39992 0.0
H454 H 0.67469 0.22093 0.39141 0.0
H455 H 0.6909 0.15774 0.39007 0.0
H456 H 0.73213 0.12956 0.33942 0.0
C457 C 0.78737 0.03002 0.36098 0.0
C458 C 0.74356 0.08148 0.38662 0.0
C459 C 0.80127 0.99812 0.36162 0.0
C460 C 0.68784 0.21522 0.38137 0.0
C461 C 0.69731 0.17902 0.38072 0.0
C462 C 0.73529 0.11675 0.35275 0.0
C463 C 0.76713 0.03147 0.37117 0.0
C464 C 0.7525 0.06566 0.3704 0.0
C465 C 0.71513 0.17066 0.36847 0.0
C466 C 0.72693 0.13337 0.36902 0.0
H467 H 0.76982 0.94438 0.39101 0.0
H468 H 0.74565 1.00049 0.39007 0.0
H469 H 0.75431 0.0716 0.34066 0.0
H470 H 0.7196 0.25646 0.34766 0.0
H471 H 0.73627 0.19395 0.34676 0.0
C472 C 0.80778 0.0201 0.87225 0.0
C473 C 0.79764 0.05586 0.87334 0.0
C474 C 0.79452 0.98755 0.87164 0.0
C475 C 0.73579 0.95216 0.87986 0.0
H476 H 0.75806 0.86716 0.85162 0.0
C477 C 0.69616 0.80422 0.88612 0.0
C478 C 0.69733 0.77922 0.8711 0.0
C479 C 0.70645 0.83959 0.88523 0.0
C480 C 0.75129 0.89074 0.85932 0.0
H481 H 0.76554 0.08549 0.8747 0.0
H482 H 0.74234 0.02891 0.87298 0.0
H483 H 0.77961 0.92514 0.85221 0.0
H484 H 0.70913 0.77278 0.84296 0.0
H485 H 0.72621 0.83517 0.84106 0.0
H486 H 0.70699 0.91825 0.88634 0.0
C487 C 0.76058 0.02576 0.87308 0.0
C488 C 0.76396 0.92395 0.85997 0.0
C489 C 0.77389 0.05832 0.874 0.0
C490 C 0.70805 0.79125 0.85482 0.0
C491 C 0.71806 0.82695 0.85382 0.0
C492 C 0.72295 0.91911 0.87899 0.0
C493 C 0.7707 0.98986 0.87178 0.0
C494 C 0.7566 0.955 0.87048 0.0
C495 C 0.71791 0.85129 0.86919 0.0
C496 C 0.73066 0.88767 0.86893 0.0
H497 H 0.82605 0.01722 0.87191 0.0
H498 H 0.80304 0.96053 0.87116 0.0
H499 H 0.72955 0.97519 0.88824 0.0
H500 H 0.68823 0.79583 0.89896 0.0
H501 H 0.70619 0.85703 0.89748 0.0
C502 C 0.21429 0.9993 0.37328 0.0
C503 C 0.22382 0.96304 0.37304 0.0
C504 C 0.22809 0.03121 0.37255 0.0
C505 C 0.28837 0.06346 0.37667 0.0
H506 H 0.26374 0.15116 0.35188 0.0
C507 C 0.3306 0.21071 0.38075 0.0
C508 C 0.3259 0.23717 0.36686 0.0
C509 C 0.32083 0.17478 0.38016 0.0
C510 C 0.27124 0.12685 0.35853 0.0
H511 H 0.25534 0.93175 0.372 0.0
H512 H 0.27944 0.9873 0.36988 0.0
H513 H 0.24161 0.09429 0.35348 0.0
H514 H 0.30879 0.24635 0.34086 0.0
H515 H 0.29324 0.18298 0.33894 0.0
H516 H 0.31852 0.09569 0.38088 0.0
C517 C 0.26133 0.99134 0.37119 0.0
C518 C 0.2582 0.09419 0.35985 0.0
C519 C 0.24751 0.95937 0.37232 0.0
C520 C 0.31271 0.2263 0.3517 0.0
C521 C 0.30346 0.19012 0.35083 0.0
C522 C 0.30164 0.09602 0.37504 0.0
C523 C 0.25182 0.0278 0.37111 0.0
C524 C 0.26635 0.06213 0.36918 0.0
C525 C 0.30647 0.16436 0.36546 0.0
C526 C 0.29319 0.12842 0.36612 0.0
H527 H 0.1961 1.00303 0.37409 0.0
H528 H 0.22002 0.0586 0.37313 0.0
H529 H 0.29529 0.03962 0.3841 0.0
H530 H 0.34036 0.21875 0.39278 0.0
H531 H 0.32348 0.15618 0.39181 0.0
C532 C 0.8054 0.99973 0.10594 0.0
C533 C 0.7954 0.964 0.10445 0.0
C534 C 0.79203 0.03227 0.10648 0.0
C535 C 0.7335 0.06815 0.09734 0.0
H536 H 0.75501 0.15237 0.12639 0.0
C537 C 0.69438 0.21694 0.09092 0.0
C538 C 0.69536 0.24176 0.10601 0.0
C539 C 0.70442 0.18128 0.09189 0.0
C540 C 0.74843 0.12903 0.11845 0.0
H541 H 0.76344 0.93443 0.10229 0.0
H542 H 0.74002 0.99104 0.1039 0.0
H543 H 0.77648 0.09419 0.12599 0.0
H544 H 0.70648 0.2476 0.13436 0.0
H545 H 0.72307 0.18474 0.1364 0.0
H546 H 0.70494 0.10254 0.09042 0.0
C547 C 0.75825 0.99415 0.10417 0.0
C548 C 0.76108 0.09568 0.11792 0.0
C549 C 0.77168 0.96158 0.10332 0.0
C550 C 0.70557 0.22926 0.12244 0.0
C551 C 0.71531 0.19329 0.12352 0.0
C552 C 0.72066 0.10135 0.09809 0.0
C553 C 0.76823 0.03001 0.10588 0.0
C554 C 0.75403 0.06492 0.10711 0.0
C555 C 0.71544 0.16913 0.10808 0.0
C556 C 0.7281 0.13253 0.10844 0.0
H557 H 0.82364 1.00261 0.10661 0.0
H558 H 0.80047 0.05926 0.10727 0.0
H559 H 0.72751 0.04534 0.08874 0.0
H560 H 0.68684 0.22572 0.07797 0.0
H561 H 0.70438 0.164 0.07959 0.0
C562 C 0.2105 0.02256 0.59838 0.0
C563 C 0.22003 0.05871 0.59919 0.0
C564 C 0.22441 0.99056 0.59783 0.0
C565 C 0.28363 0.9593 0.60793 0.0
H566 H 0.26354 0.8685 0.58326 0.0
C567 C 0.33184 0.81304 0.59598 0.0
C568 C 0.32004 0.78395 0.60502 0.0
C569 C 0.32259 0.84956 0.5952 0.0
C570 C 0.26941 0.89384 0.59006 0.0
H571 H 0.25165 0.08969 0.59925 0.0
H572 H 0.27582 0.03421 0.59759 0.0
H573 H 0.24107 0.92599 0.58059 0.0
H574 H 0.29036 0.77118 0.62158 0.0
H575 H 0.27435 0.83428 0.61992 0.0
H576 H 0.31216 0.92649 0.61719 0.0
C577 C 0.25765 0.03028 0.59803 0.0
C578 C 0.25643 0.92669 0.58874 0.0
C579 C 0.24375 0.06219 0.59885 0.0
C580 C 0.29978 0.79277 0.61432 0.0
C581 C 0.29054 0.82884 0.61338 0.0
C582 C 0.2968 0.92645 0.60901 0.0
C583 C 0.24822 0.99393 0.59778 0.0
C584 C 0.26307 0.95973 0.59798 0.0
C585 C 0.30147 0.8572 0.60337 0.0
C586 C 0.28954 0.89335 0.60036 0.0
H587 H 0.1923 0.0189 0.59874 0.0
H588 H 0.21642 0.96315 0.59797 0.0
H589 H 0.28921 0.9839 0.61546 0.0
H590 H 0.3474 0.80712 0.58862 0.0
H591 H 0.33128 0.87122 0.58742 0.0
C592 C 0.82198 0.71666 0.09066 0.0
C593 C 0.82113 0.7412 0.10587 0.0
C594 C 0.81184 0.68113 0.09149 0.0
C595 C 0.76779 0.62908 0.11794 0.0
H596 H 0.78851 0.54546 0.08798 0.0
C597 C 0.71074 0.50033 0.1054 0.0
C598 C 0.72075 0.46452 0.10388 0.0
C599 C 0.72409 0.53278 0.10592 0.0
C600 C 0.78257 0.56825 0.09664 0.0
H601 H 0.81013 0.74666 0.13427 0.0
H602 H 0.79338 0.68404 0.13607 0.0
H603 H 0.81115 0.60239 0.08974 0.0
H604 H 0.75272 0.43475 0.10161 0.0
H605 H 0.77611 0.49118 0.10317 0.0
H606 H 0.73973 0.59449 0.12546 0.0
C607 C 0.80112 0.69271 0.12321 0.0
C608 C 0.79545 0.6013 0.09744 0.0
C609 C 0.81095 0.72854 0.12227 0.0
C610 C 0.74447 0.46195 0.10268 0.0
C611 C 0.75788 0.49442 0.1035 0.0
C612 C 0.75511 0.59589 0.11735 0.0
C613 C 0.80085 0.66886 0.10766 0.0
C614 C 0.7881 0.63245 0.1079 0.0
C615 C 0.7479 0.53035 0.10525 0.0
C616 C 0.76209 0.56514 0.10647 0.0
H617 H 0.82948 0.72558 0.07773 0.0
H618 H 0.81179 0.66407 0.07912 0.0
H619 H 0.76128 0.65242 0.12596 0.0
H620 H 0.6925 0.50333 0.10614 0.0
H621 H 0.71565 0.55982 0.10675 0.0
C622 C 0.2761 0.5561 0.61508 0.0
C623 C 0.29642 0.55598 0.60492 0.0
C624 C 0.26232 0.52426 0.6157 0.0
C625 C 0.24789 0.43756 0.59103 0.0
H626 H 0.2251 0.40456 0.63861 0.0
C627 C 0.18517 0.31354 0.59776 0.0
C628 C 0.19288 0.2853 0.60984 0.0
C629 C 0.19514 0.34934 0.59801 0.0
C630 C 0.23123 0.41357 0.62523 0.0
H631 H 0.318 0.52225 0.58721 0.0
H632 H 0.29365 0.46635 0.58818 0.0
H633 H 0.2492 0.46029 0.63674 0.0
H634 H 0.2158 0.27281 0.63237 0.0
H635 H 0.23259 0.33549 0.63325 0.0
H636 H 0.23011 0.39048 0.57957 0.0
C637 C 0.28852 0.49133 0.59568 0.0
C638 C 0.24498 0.4455 0.62414 0.0
C639 C 0.30251 0.52321 0.59521 0.0
C640 C 0.20943 0.29424 0.62303 0.0
C641 C 0.21907 0.33009 0.6235 0.0
C642 C 0.23391 0.40584 0.5921 0.0
C643 C 0.26834 0.49151 0.60604 0.0
C644 C 0.25362 0.45767 0.60706 0.0
C645 C 0.21264 0.35759 0.61054 0.0
C646 C 0.2256 0.39331 0.60923 0.0
H647 H 0.27081 0.58081 0.62273 0.0
H648 H 0.24678 0.52541 0.62364 0.0
H649 H 0.25414 0.44647 0.57767 0.0
H650 H 0.17269 0.30717 0.58726 0.0
H651 H 0.18973 0.37015 0.58797 0.0
C652 C 0.71237 0.52409 0.86103 0.0
C653 C 0.71915 0.55518 0.87167 0.0
C654 C 0.72557 0.49138 0.86039 0.0
C655 C 0.7835 0.45423 0.87037 0.0
H656 H 0.75291 0.35796 0.86706 0.0
C657 C 0.82732 0.30795 0.88029 0.0
C658 C 0.8204 0.27871 0.86846 0.0
C659 C 0.8167 0.34329 0.87964 0.0
C660 C 0.76173 0.38464 0.86777 0.0
H661 H 0.74515 0.57596 0.89016 0.0
H662 H 0.76789 0.51841 0.88948 0.0
H663 H 0.7307 0.41557 0.86891 0.0
H664 H 0.79771 0.26472 0.8459 0.0
H665 H 0.77928 0.32613 0.84486 0.0
H666 H 0.81459 0.42269 0.86973 0.0
C667 C 0.75259 0.51964 0.88126 0.0
C668 C 0.74898 0.4178 0.8688 0.0
C669 C 0.73946 0.5526 0.88176 0.0
C670 C 0.80345 0.28639 0.85531 0.0
C671 C 0.79274 0.32155 0.85478 0.0
C672 C 0.79628 0.42091 0.86954 0.0
C673 C 0.74583 0.48853 0.87055 0.0
C674 C 0.75964 0.45315 0.86996 0.0
C675 C 0.79881 0.35008 0.86725 0.0
C676 C 0.78552 0.38576 0.86808 0.0
H677 H 0.69695 0.52513 0.85294 0.0
H678 H 0.71997 0.46848 0.85166 0.0
H679 H 0.79236 0.48086 0.87101 0.0
H680 H 0.84032 0.30311 0.89059 0.0
H681 H 0.82175 0.36469 0.88945 0.0
C682 C 0.2755 0.46543 0.36626 0.0
C683 C 0.29722 0.46496 0.37427 0.0
C684 C 0.26244 0.49837 0.36614 0.0
C685 C 0.25514 0.59017 0.38927 0.0
H686 H 0.22393 0.61841 0.34417 0.0
C687 C 0.19333 0.71641 0.38678 0.0
C688 C 0.19643 0.74186 0.37208 0.0
C689 C 0.20397 0.68113 0.38669 0.0
C690 C 0.23256 0.61094 0.35686 0.0
H691 H 0.32199 0.49888 0.38878 0.0
H692 H 0.29909 0.55637 0.38866 0.0
H693 H 0.24644 0.56056 0.3451 0.0
H694 H 0.21225 0.74907 0.34528 0.0
H695 H 0.23056 0.68735 0.34504 0.0
H696 H 0.24148 0.64076 0.40097 0.0
C697 C 0.2922 0.53111 0.38247 0.0
C698 C 0.24532 0.57764 0.35744 0.0
C699 C 0.30537 0.49819 0.38247 0.0
C700 C 0.20946 0.73024 0.35684 0.0
C701 C 0.21995 0.6948 0.35668 0.0
C702 C 0.24222 0.62329 0.38874 0.0
C703 C 0.27065 0.53168 0.37415 0.0
C704 C 0.25685 0.56692 0.37363 0.0
C705 C 0.21781 0.67021 0.37182 0.0
C706 C 0.23084 0.63418 0.37251 0.0
H707 H 0.26862 0.44041 0.35984 0.0
H708 H 0.24581 0.49768 0.35983 0.0
H709 H 0.26365 0.58261 0.402 0.0
H710 H 0.18346 0.72432 0.39878 0.0
H711 H 0.20168 0.66261 0.39843 0.0
C712 C 0.30686 0.52287 0.8714 0.0
C713 C 0.29712 0.55896 0.87097 0.0
C714 C 0.29323 0.49073 0.87055 0.0
C715 C 0.23279 0.45868 0.87419 0.0
H716 H 0.25774 0.36944 0.85113 0.0
C717 C 0.18916 0.31298 0.87922 0.0
C718 C 0.19408 0.28565 0.86583 0.0
C719 C 0.1994 0.34849 0.8784 0.0
C720 C 0.25016 0.3942 0.85729 0.0
H721 H 0.26546 0.58975 0.86916 0.0
H722 H 0.24177 0.53402 0.86674 0.0
H723 H 0.28011 0.42615 0.8524 0.0
H724 H 0.21211 0.2745 0.84044 0.0
H725 H 0.22853 0.33721 0.83808 0.0
H726 H 0.20235 0.42719 0.87816 0.0
C727 C 0.25984 0.53016 0.86842 0.0
C728 C 0.26333 0.42677 0.85842 0.0
C729 C 0.27345 0.56227 0.8697 0.0
C730 C 0.20803 0.29524 0.8509 0.0
C731 C 0.21776 0.33103 0.84978 0.0
C732 C 0.21941 0.42629 0.87271 0.0
C733 C 0.2695 0.49383 0.86878 0.0
C734 C 0.25501 0.45941 0.86711 0.0
C735 C 0.21445 0.35767 0.86396 0.0
C736 C 0.22797 0.39335 0.86441 0.0
H737 H 0.32505 0.51946 0.87257 0.0
H738 H 0.30139 0.46346 0.8714 0.0
H739 H 0.22573 0.48292 0.8812 0.0
H740 H 0.17881 0.30593 0.89108 0.0
H741 H 0.19651 0.36776 0.88972 0.0
C742 C 0.80388 0.73502 0.35719 0.0
C743 C 0.82033 0.7439 0.37055 0.0
C744 C 0.79366 0.69957 0.35698 0.0
C745 C 0.79772 0.60116 0.37285 0.0
H746 H 0.73213 0.60601 0.37158 0.0
C747 C 0.74076 0.469 0.38364 0.0
C748 C 0.72087 0.46697 0.373 0.0
C749 C 0.75396 0.50184 0.38363 0.0
C750 C 0.75043 0.60392 0.37167 0.0
H751 H 0.83999 0.72128 0.39334 0.0
H752 H 0.82227 0.65908 0.39275 0.0
H753 H 0.75401 0.66375 0.36983 0.0
H754 H 0.69959 0.49772 0.35371 0.0
H755 H 0.72268 0.55397 0.3533 0.0
H756 H 0.79411 0.54114 0.37436 0.0
C757 C 0.81723 0.67983 0.38256 0.0
C758 C 0.76298 0.63714 0.37071 0.0
C759 C 0.82736 0.7155 0.38289 0.0
C760 C 0.71464 0.49833 0.36225 0.0
C761 C 0.72788 0.53083 0.3621 0.0
C762 C 0.78513 0.56772 0.37361 0.0
C763 C 0.79975 0.67194 0.36998 0.0
C764 C 0.78675 0.63618 0.37113 0.0
C765 C 0.74763 0.53327 0.37289 0.0
C766 C 0.76128 0.56866 0.37287 0.0
H767 H 0.7981 0.75599 0.34738 0.0
H768 H 0.78052 0.69407 0.3469 0.0
H769 H 0.81604 0.59957 0.3732 0.0
H770 H 0.74602 0.44538 0.39211 0.0
H771 H 0.76892 0.50276 0.39226 0.0
C772 C 0.30754 0.50055 0.09551 0.0
C773 C 0.29813 0.46606 0.10119 0.0
C774 C 0.2945 0.53358 0.0956 0.0
C775 C 0.26768 0.60191 0.10871 0.0
H776 H 0.20466 0.60107 0.09357 0.0
C777 C 0.21046 0.73141 0.11987 0.0
C778 C 0.19677 0.74241 0.10489 0.0
C779 C 0.22118 0.69622 0.12001 0.0
C780 C 0.22226 0.60184 0.09778 0.0
H781 H 0.26737 0.43936 0.11105 0.0
H782 H 0.24481 0.49681 0.11133 0.0
H783 H 0.22718 0.54344 0.09145 0.0
H784 H 0.1827 0.72388 0.07877 0.0
H785 H 0.20142 0.66262 0.07901 0.0
H786 H 0.26294 0.6604 0.1147 0.0
C787 C 0.26221 0.49833 0.10665 0.0
C788 C 0.23513 0.5687 0.09672 0.0
C789 C 0.27523 0.46536 0.10659 0.0
C790 C 0.19306 0.7164 0.09056 0.0
C791 C 0.20381 0.68118 0.0907 0.0
C792 C 0.25481 0.63498 0.10981 0.0
C793 C 0.27171 0.53295 0.10132 0.0
C794 C 0.25803 0.56832 0.10215 0.0
C795 C 0.21851 0.67106 0.10518 0.0
C796 C 0.23192 0.63541 0.10439 0.0
H797 H 0.32507 0.50216 0.09117 0.0
H798 H 0.30228 0.55965 0.09115 0.0
H799 H 0.28516 0.60261 0.11321 0.0
H800 H 0.2136 0.75054 0.13122 0.0
H801 H 0.23196 0.68903 0.13159 0.0
C802 C 0.82754 0.30566 0.59792 0.0
C803 C 0.8201 0.27595 0.60928 0.0
C804 C 0.8171 0.34113 0.59872 0.0
C805 C 0.76202 0.38286 0.6101 0.0
H806 H 0.79324 0.47865 0.60746 0.0
C807 C 0.71334 0.52274 0.6169 0.0
C808 C 0.72016 0.55377 0.60619 0.0
C809 C 0.72648 0.48999 0.61764 0.0
C810 C 0.78423 0.45215 0.60794 0.0
H811 H 0.79664 0.26121 0.63119 0.0
H812 H 0.77855 0.3229 0.63255 0.0
H813 H 0.81512 0.42009 0.60882 0.0
H814 H 0.74627 0.57446 0.58777 0.0
H815 H 0.76899 0.51681 0.58866 0.0
H816 H 0.73119 0.41433 0.60876 0.0
C817 C 0.79227 0.31858 0.62285 0.0
C818 C 0.7968 0.4186 0.60882 0.0
C819 C 0.80279 0.28325 0.62216 0.0
C820 C 0.74054 0.55115 0.59621 0.0
C821 C 0.75365 0.51813 0.59682 0.0
C822 C 0.74948 0.41625 0.60906 0.0
C823 C 0.79888 0.34763 0.6108 0.0
C824 C 0.78581 0.38357 0.61005 0.0
C825 C 0.74675 0.48702 0.60752 0.0
C826 C 0.76037 0.45144 0.60811 0.0
H827 H 0.84083 0.30113 0.58785 0.0
H828 H 0.82257 0.36288 0.58923 0.0
H829 H 0.75301 0.35633 0.6106 0.0
H830 H 0.69787 0.52377 0.62492 0.0
H831 H 0.7208 0.4671 0.62636 0.0
C832 C 0.36942 0.40331 0.03429 0.0
C833 C 0.37237 0.41815 0.05212 0.0
C834 C 0.3735 0.42542 0.0187 0.0
C835 C 0.37455 0.52433 0.0039 0.0
H836 H 0.39916 0.48209 0.95878 0.0
C837 C 0.38139 0.61209 0.93699 0.0
C838 C 0.37343 0.59426 0.92092 0.0
C839 C 0.38509 0.59141 0.95316 0.0
C840 C 0.39219 0.49426 0.97126 0.0
H841 H 0.38261 0.46769 0.06748 0.0
H842 H 0.38993 0.50626 0.04018 0.0
H843 H 0.39913 0.44447 0.987 0.0
H844 H 0.36374 0.54045 0.90916 0.0
H845 H 0.3701 0.50453 0.93734 0.0
H846 H 0.36715 0.57379 0.98808 0.0
C847 C 0.38421 0.47755 0.03832 0.0
C848 C 0.39217 0.47272 0.98743 0.0
C849 C 0.38016 0.45536 0.05396 0.0
C850 C 0.36993 0.5551 0.92125 0.0
C851 C 0.3737 0.53443 0.9374 0.0
C852 C 0.3746 0.54588 0.98774 0.0
C853 C 0.38062 0.46298 0.02051 0.0
C854 C 0.38295 0.48723 0.00386 0.0
C855 C 0.38099 0.55243 0.95362 0.0
C856 C 0.38303 0.53085 0.97115 0.0
H857 H 0.36344 0.37478 0.03231 0.0
H858 H 0.37026 0.41342 0.00522 0.0
H859 H 0.36704 0.53621 0.01623 0.0
H860 H 0.38427 0.6422 0.93723 0.0
H861 H 0.39095 0.60602 0.96537 0.0
C862 C 0.65201 0.46731 0.42314 0.0
C863 C 0.64277 0.4314 0.4202 0.0
C864 C 0.648 0.48646 0.43964 0.0
C865 C 0.63229 0.46825 0.48816 0.0
H866 H 0.63082 0.57731 0.49018 0.0
C867 C 0.62763 0.59998 0.54393 0.0
C868 C 0.64284 0.586 0.5572 0.0
C869 C 0.6233 0.5797 0.52781 0.0
C870 C 0.63078 0.54682 0.48993 0.0
H871 H 0.62118 0.38815 0.4319 0.0
H872 H 0.61363 0.42207 0.46048 0.0
H873 H 0.62999 0.54591 0.46045 0.0
H874 H 0.66495 0.53932 0.56427 0.0
H875 H 0.65802 0.50448 0.53595 0.0
H876 H 0.63266 0.46917 0.51767 0.0
C877 C 0.62447 0.43503 0.45025 0.0
C878 C 0.63066 0.52879 0.47282 0.0
C879 C 0.62868 0.41569 0.43381 0.0
C880 C 0.65303 0.55071 0.55434 0.0
C881 C 0.64895 0.53065 0.53811 0.0
C882 C 0.63216 0.48628 0.50529 0.0
C883 C 0.63445 0.47032 0.45352 0.0
C884 C 0.63195 0.48932 0.4717 0.0
C885 C 0.63435 0.54522 0.52448 0.0
C886 C 0.63193 0.52582 0.50639 0.0
H887 H 0.66308 0.48008 0.41299 0.0
H888 H 0.65628 0.51328 0.44176 0.0
H889 H 0.63349 0.43782 0.48787 0.0
H890 H 0.61933 0.62695 0.54583 0.0
H891 H 0.61158 0.5914 0.51782 0.0
C892 C 0.63986 0.41182 0.03917 0.0
C893 C 0.64312 0.43014 0.05614 0.0
C894 C 0.63655 0.43259 0.02302 0.0
C895 C 0.64744 0.52755 0.00403 0.0
H896 H 0.6121 0.49039 0.96277 0.0
C897 C 0.63697 0.61289 0.93732 0.0
C898 C 0.64295 0.59359 0.92108 0.0
C899 C 0.63367 0.59333 0.95379 0.0
C900 C 0.62203 0.50099 0.9742 0.0
H901 H 0.64432 0.48451 0.06968 0.0
H902 H 0.63763 0.52082 0.04162 0.0
H903 H 0.61156 0.45637 -0.00787 0.0
H904 H 0.64917 0.5384 0.90925 0.0
H905 H 0.64308 0.50411 0.93815 0.0
H906 H 0.65773 0.57228 0.98612 0.0
C907 C 0.63837 0.49041 0.04065 0.0
C908 C 0.62182 0.48151 -0.00901 0.0
C909 C 0.64204 0.46963 0.05677 0.0
C910 C 0.6446 0.55408 0.92152 0.0
C911 C 0.64102 0.53444 0.93802 0.0
C912 C 0.64739 0.54723 0.98736 0.0
C913 C 0.63611 0.47219 0.0235 0.0
C914 C 0.63476 0.4943 0.00606 0.0
C915 C 0.63604 0.55402 0.95437 0.0
C916 C 0.63489 0.53394 0.97224 0.0
H917 H 0.64082 0.3814 0.03821 0.0
H918 H 0.63525 0.41753 0.01008 0.0
H919 H 0.65803 0.53786 0.01513 0.0
H920 H 0.63558 0.64332 0.9375 0.0
H921 H 0.62964 0.60903 0.96619 0.0
C922 C 0.37561 0.56191 0.5545 0.0
C923 C 0.37003 0.60016 0.55221 0.0
C924 C 0.37943 0.53893 0.53913 0.0
C925 C 0.39227 0.53984 0.48919 0.0
H926 H 0.35804 0.44684 0.48846 0.0
C927 C 0.37472 0.4567 0.42205 0.0
C928 C 0.37246 0.41737 0.42315 0.0
C929 C 0.37792 0.4781 0.43805 0.0
C930 C 0.36812 0.47227 0.4885 0.0
H931 H 0.365 0.64456 0.53196 0.0
H932 H 0.3718 0.6045 0.50524 0.0
H933 H 0.35792 0.48562 0.51607 0.0
H934 H 0.37307 0.36945 0.44176 0.0
H935 H 0.37944 0.40648 0.46948 0.0
H936 H 0.40244 0.52657 0.46158 0.0
C937 C 0.37326 0.59232 0.51891 0.0
C938 C 0.36799 0.49456 0.50436 0.0
C939 C 0.36923 0.61521 0.53424 0.0
C940 C 0.37453 0.39975 0.44045 0.0
C941 C 0.37801 0.42105 0.45639 0.0
C942 C 0.3926 0.51733 0.47334 0.0
C943 C 0.37797 0.55379 0.52117 0.0
C944 C 0.37981 0.52881 0.50481 0.0
C945 C 0.37917 0.46059 0.45548 0.0
C946 C 0.38028 0.48346 0.47271 0.0
H947 H 0.37634 0.5494 0.56813 0.0
H948 H 0.38322 0.50938 0.54129 0.0
H949 H 0.40172 0.56596 0.48921 0.0
H950 H 0.37303 0.47113 0.40894 0.0
H951 H 0.37847 0.50847 0.4368 0.0
C952 C 0.87622 0.11349 0.9386 0.0
C953 C 0.87424 0.09472 0.92162 0.0
C954 C 0.87921 0.09314 0.95495 0.0
C955 C 0.86966 0.99748 0.9738 0.0
H956 H 0.90234 0.03658 0.01607 0.0
C957 C 0.87986 0.91152 0.04037 0.0
C958 C 0.87309 0.93008 0.05661 0.0
C959 C 0.88316 0.93167 0.02406 0.0
C960 C 0.89314 0.02543 0.00435 0.0
H961 H 0.87505 0.04012 0.90828 0.0
H962 H 0.8812 1.00467 0.93665 0.0
H963 H 0.90308 0.07108 0.98684 0.0
H964 H 0.86544 0.98463 0.06861 0.0
H965 H 0.87149 0.01992 0.04001 0.0
H966 H 0.85989 0.95175 -0.00872 0.0
C967 C 0.87967 0.03502 0.93749 0.0
C968 C 0.89348 0.04519 0.98763 0.0
C969 C 0.87632 0.05533 0.9212 0.0
C970 C 0.87064 0.9695 0.05634 0.0
C971 C 0.87419 0.98973 0.04001 0.0
C972 C 0.86959 0.97756 -0.0096 0.0
C973 C 0.88058 0.05356 0.95465 0.0
C974 C 0.88156 0.03163 0.97217 0.0
C975 C 0.87998 0.97085 0.02363 0.0
C976 C 0.88116 0.99146 0.00587 0.0
H977 H 0.87447 0.14384 0.93938 0.0
H978 H 0.87951 0.10842 0.96787 0.0
H979 H 0.85983 0.98654 0.9624 0.0
H980 H 0.88189 0.88119 0.04007 0.0
H981 H 0.88783 0.91649 0.01165 0.0
C982 C 0.13632 0.91543 0.43682 0.0
C983 C 0.14523 0.93279 0.42094 0.0
C984 C 0.13247 0.93627 0.45288 0.0
C985 C 0.12642 0.03346 0.47088 0.0
H986 H 0.14941 0.99006 0.51634 0.0
C987 C 0.14755 0.12283 0.53477 0.0
C988 C 0.14427 0.10752 0.55249 0.0
C989 C 0.14371 0.10117 0.51902 0.0
C990 C 0.14248 1.00238 0.50387 0.0
H991 H 0.15646 0.986 0.4094 0.0
H992 H 0.14978 0.02227 0.43741 0.0
H993 H 0.14983 0.95287 0.48813 0.0
H994 H 0.1335 0.0577 0.56745 0.0
H995 H 0.1265 0.01999 0.53987 0.0
H996 H 0.11944 0.08322 0.48657 0.0
C997 C 0.14559 0.99258 0.43739 0.0
C998 C 0.14276 0.98104 0.48767 0.0
C999 C 0.14953 0.97172 0.42134 0.0
C1000 C 0.13626 0.07037 0.55403 0.0
C1001 C 0.13239 0.04866 0.53822 0.0
C1002 C 0.12608 0.05477 0.4871 0.0
C1003 C 0.13735 0.97498 0.45343 0.0
C1004 C 0.1351 0.99656 0.47092 0.0
C1005 C 0.13644 0.06362 0.52053 0.0
C1006 C 0.1345 0.03973 0.50373 0.0
H1007 H 0.1328 0.8855 0.43701 0.0
H1008 H 0.12587 0.92198 0.46495 0.0
H1009 H 0.12007 0.046 0.45826 0.0
H1010 H 0.1537 0.15132 0.53302 0.0
H1011 H 0.1473 0.1135 0.50566 0.0
C1012 C 0.14004 0.9178 0.03956 0.0
C1013 C 0.14625 0.93461 0.05638 0.0
C1014 C 0.13715 0.93971 0.02366 0.0
C1015 C 0.15535 0.03079 0.00419 0.0
H1016 H 0.11042 1.01011 0.96649 0.0
C1017 C 0.14608 0.12743 0.94144 0.0
C1018 C 0.14491 0.10993 0.92406 0.0
C1019 C 0.14326 0.10656 0.95759 0.0
C1020 C 0.12314 0.01604 0.97686 0.0
H1021 H 0.15325 0.98788 0.06986 0.0
H1022 H 0.14773 0.02607 0.04229 0.0
H1023 H 0.11074 0.97296 -0.00501 0.0
H1024 H 0.13879 0.05696 0.91006 0.0
H1025 H 0.13397 0.02033 0.93842 0.0
H1026 H 0.1679 0.07353 0.98614 0.0
C1027 C 0.14561 0.99585 0.04125 0.0
C1028 C 0.12334 0.99478 -0.00683 0.0
C1029 C 0.14863 0.97396 0.0571 0.0
C1030 C 0.13975 0.07131 0.92322 0.0
C1031 C 0.13695 0.05034 0.93946 0.0
C1032 C 0.15511 0.05202 0.98798 0.0
C1033 C 0.14034 0.97894 0.02424 0.0
C1034 C 0.13947 1.00194 0.00704 0.0
C1035 C 0.13927 0.06761 0.95683 0.0
C1036 C 0.139 0.04499 0.97412 0.0
H1037 H 0.13819 0.88753 0.03849 0.0
H1038 H 0.1333 0.9257 0.01077 0.0
H1039 H 0.16838 0.0365 0.01433 0.0
H1040 H 0.14977 0.1572 0.94264 0.0
H1041 H 0.14466 0.12087 0.97074 0.0
C1042 C 0.87748 0.91501 0.43689 0.0
C1043 C 0.87351 0.93268 0.41982 0.0
C1044 C 0.8814 0.9364 0.45271 0.0
C1045 C 0.87078 0.03184 0.47111 0.0
H1046 H 0.90756 0.99561 0.51184 0.0
C1047 C 0.88004 0.11572 0.53852 0.0
C1048 C 0.87476 0.09511 0.55454 0.0
C1049 C 0.88373 0.09727 0.52179 0.0
C1050 C 0.89726 1.00602 0.50055 0.0
H1051 H 0.87167 0.98656 0.40577 0.0
H1052 H 0.8793 0.02393 0.43326 0.0
H1053 H 0.90768 0.96146 0.48258 0.0
H1054 H 0.87018 0.03891 0.56573 0.0
H1055 H 0.87691 1.00668 0.53645 0.0
H1056 H 0.8604 0.07637 0.48912 0.0
C1057 C 0.87871 0.99355 0.43456 0.0
C1058 C 0.89723 0.98644 0.48382 0.0
C1059 C 0.87447 0.97215 0.41876 0.0
C1060 C 0.87419 0.05558 0.55363 0.0
C1061 C 0.87815 0.03711 0.53691 0.0
C1062 C 0.87105 0.05163 0.48774 0.0
C1063 C 0.88172 0.97599 0.45182 0.0
C1064 C 0.88365 0.99872 0.46899 0.0
C1065 C 0.88248 0.05784 0.52076 0.0
C1066 C 0.88398 0.03857 0.5027 0.0
H1067 H 0.87666 0.88464 0.43819 0.0
H1068 H 0.88326 0.92184 0.46577 0.0
H1069 H 0.85977 0.04181 0.46019 0.0
H1070 H 0.88055 0.14621 0.53875 0.0
H1071 H 0.88718 0.11387 0.50955 0.0
C1072 C 0.42482 0.36325 0.12379 0.0
C1073 C 0.41226 0.33859 0.11263 0.0
C1074 C 0.44801 0.35715 0.12664 0.0
C1075 C 0.49635 0.3105 0.10372 0.0
H1076 H 0.52889 0.34024 0.14781 0.0
C1077 C 0.59366 0.30398 0.10655 0.0
C1078 C 0.60386 0.33754 0.11256 0.0
C1079 C 0.57052 0.29779 0.1095 0.0
C1080 C 0.52002 0.33178 0.13541 0.0
H1081 H 0.41373 0.28661 0.09696 0.0
H1082 H 0.45386 0.27546 0.10234 0.0
H1083 H 0.48749 0.34088 0.14778 0.0
H1084 H 0.59811 0.38966 0.12749 0.0
H1085 H 0.55793 0.37891 0.13254 0.0
H1086 H 0.52876 0.30217 0.09122 0.0
C1087 C 0.44608 0.3002 0.10839 0.0
C1088 C 0.4963 0.33226 0.13537 0.0
C1089 C 0.42302 0.30649 0.10539 0.0
C1090 C 0.59075 0.36365 0.12253 0.0
C1091 C 0.56771 0.35736 0.12557 0.0
C1092 C 0.51999 0.30986 0.1038 0.0
C1093 C 0.45905 0.32607 0.11855 0.0
C1094 C 0.48417 0.32224 0.1194 0.0
C1095 C 0.55718 0.32486 0.11865 0.0
C1096 C 0.53212 0.32114 0.11952 0.0
H1097 H 0.41703 0.38827 0.12955 0.0
H1098 H 0.45746 0.37784 0.13444 0.0
H1099 H 0.48766 0.30328 0.09105 0.0
H1100 H 0.60328 0.2832 0.0989 0.0
H1101 H 0.56294 0.27223 0.1042 0.0
C1102 C 0.59161 0.71099 0.60155 0.0
C1103 C 0.60349 0.68269 0.61109 0.0
C1104 C 0.56823 0.71552 0.60414 0.0
C1105 C 0.51887 0.65924 0.61922 0.0
H1106 H 0.48631 0.75369 0.61433 0.0
C1107 C 0.42186 0.66389 0.62426 0.0
C1108 C 0.41085 0.68341 0.60992 0.0
C1109 C 0.44513 0.66826 0.62714 0.0
C1110 C 0.4952 0.7271 0.6157 0.0
H1111 H 0.60067 0.63912 0.63193 0.0
H1112 H 0.56026 0.64787 0.63698 0.0
H1113 H 0.52775 0.75367 0.6147 0.0
H1114 H 0.41554 0.72463 0.58809 0.0
H1115 H 0.45609 0.73206 0.5931 0.0
H1116 H 0.48647 0.6326 0.62 0.0
C1117 C 0.56867 0.66565 0.62696 0.0
C1118 C 0.51894 0.72706 0.61587 0.0
C1119 C 0.59188 0.6608 0.62417 0.0
C1120 C 0.42346 0.70897 0.59921 0.0
C1121 C 0.44672 0.71343 0.60214 0.0
C1122 C 0.49523 0.65932 0.61918 0.0
C1123 C 0.55634 0.69211 0.6165 0.0
C1124 C 0.5311 0.69304 0.61748 0.0
C1125 C 0.45794 0.69236 0.61581 0.0
C1126 C 0.48308 0.69316 0.61725 0.0
H1127 H 0.60009 0.7282 0.59132 0.0
H1128 H 0.55933 0.73604 0.59577 0.0
H1129 H 0.52753 0.63236 0.62003 0.0
H1130 H 0.4127 0.64419 0.63289 0.0
H1131 H 0.45322 0.65208 0.638 0.0
C1132 C 0.59476 0.72322 0.8713 0.0
C1133 C 0.60413 0.68886 0.86532 0.0
C1134 C 0.57174 0.73106 0.86851 0.0
C1135 C 0.52057 0.69953 0.84271 0.0
H1136 H 0.48819 0.73179 0.8865 0.0
C1137 C 0.42739 0.66327 0.8561 0.0
C1138 C 0.41346 0.68896 0.86557 0.0
C1139 C 0.45028 0.67102 0.85322 0.0
C1140 C 0.49695 0.72353 0.87401 0.0
H1141 H 0.59696 0.63687 0.85076 0.0
H1142 H 0.55704 0.65038 0.84601 0.0
H1143 H 0.52945 0.73191 0.8864 0.0
H1144 H 0.41252 0.74388 0.87867 0.0
H1145 H 0.45265 0.75739 0.87364 0.0
H1146 H 0.48804 0.68979 0.83057 0.0
C1147 C 0.56738 0.6714 0.85279 0.0
C1148 C 0.52064 0.72361 0.87395 0.0
C1149 C 0.59027 0.66349 0.85565 0.0
C1150 C 0.42278 0.7234 0.87139 0.0
C1151 C 0.4458 0.73106 0.8686 0.0
C1152 C 0.4969 0.69942 0.84277 0.0
C1153 C 0.55769 0.70487 0.85954 0.0
C1154 C 0.53273 0.71056 0.85849 0.0
C1155 C 0.45989 0.70464 0.85977 0.0
C1156 C 0.48481 0.71037 0.85861 0.0
H1157 H 0.60498 0.74344 0.87874 0.0
H1158 H 0.56484 0.75728 0.8737 0.0
H1159 H 0.52938 0.68999 0.83045 0.0
H1160 H 0.42075 0.63657 0.85134 0.0
H1161 H 0.46067 0.64985 0.84655 0.0
C1162 C 0.59206 0.31124 0.37053 0.0
C1163 C 0.60437 0.34084 0.36249 0.0
C1164 C 0.56887 0.30731 0.36692 0.0
C1165 C 0.52031 0.36639 0.35274 0.0
H1166 H 0.48767 0.2718 0.35307 0.0
C1167 C 0.42313 0.36387 0.3484 0.0
C1168 C 0.41256 0.34159 0.36194 0.0
C1169 C 0.44632 0.35989 0.34485 0.0
C1170 C 0.49657 0.29843 0.35295 0.0
H1171 H 0.60259 0.38746 0.34319 0.0
H1172 H 0.56249 0.3799 0.33644 0.0
H1173 H 0.52909 0.27142 0.35328 0.0
H1174 H 0.41785 0.29597 0.38148 0.0
H1175 H 0.45814 0.28929 0.37536 0.0
H1176 H 0.48795 0.39345 0.3528 0.0
C1177 C 0.57041 0.36053 0.34604 0.0
C1178 C 0.5203 0.29822 0.35312 0.0
C1179 C 0.59344 0.36473 0.34982 0.0
C1180 C 0.42544 0.31382 0.37105 0.0
C1181 C 0.44856 0.30976 0.36745 0.0
C1182 C 0.49668 0.36658 0.35249 0.0
C1183 C 0.55762 0.33266 0.35505 0.0
C1184 C 0.53247 0.33225 0.35327 0.0
C1185 C 0.4594 0.33341 0.35466 0.0
C1186 C 0.4845 0.33266 0.35287 0.0
H1187 H 0.60003 0.29246 0.38039 0.0
H1188 H 0.55957 0.28564 0.3742 0.0
H1189 H 0.52901 0.39318 0.35326 0.0
H1190 H 0.41371 0.38537 0.34103 0.0
H1191 H 0.45412 0.37817 0.33471 0.0
C1192 C 0.92425 0.80687 0.1043 0.0
C1193 C 0.91262 0.83701 0.11262 0.0
C1194 C 0.94766 0.80258 0.10685 0.0
C1195 C 0.99687 0.86203 0.11722 0.0
H1196 H 0.03026 0.76797 0.11969 0.0
C1197 C 0.09313 0.86395 0.1232 0.0
C1198 C 0.10515 0.83987 0.11133 0.0
C1199 C 0.06996 0.859 0.12608 0.0
C1200 C 0.02115 0.79444 0.11892 0.0
H1201 H 0.91593 0.8841 0.13145 0.0
H1202 H 0.95644 0.8761 0.13624 0.0
H1203 H 0.98874 0.76717 0.12003 0.0
H1204 H 0.10255 0.79026 0.09403 0.0
H1205 H 0.06184 0.78204 0.09877 0.0
H1206 H 0.02891 0.8894 0.11566 0.0
C1207 C 0.94774 0.85651 0.12726 0.0
C1208 C 0.99739 0.79397 0.11912 0.0
C1209 C 0.92449 0.86098 0.12459 0.0
C1210 C 0.09374 0.80932 0.10325 0.0
C1211 C 0.07042 0.80455 0.10601 0.0
C1212 C 0.02046 0.86249 0.117 0.0
C1213 C 0.95978 0.82819 0.11787 0.0
C1214 C 0.98499 0.82784 0.11831 0.0
C1215 C 0.05814 0.83007 0.11702 0.0
C1216 C 0.03295 0.82878 0.11788 0.0
H1217 H 0.91556 0.78793 0.09499 0.0
H1218 H 0.95642 0.78051 0.09939 0.0
H1219 H 0.98792 0.8886 0.11605 0.0
H1220 H 0.10151 0.88738 0.12988 0.0
H1221 H 0.06117 0.87857 0.13505 0.0
C1222 C 0.92336 0.21533 0.60838 0.0
C1223 C 0.91327 0.18103 0.61347 0.0
C1224 C 0.94649 0.22139 0.61149 0.0
C1225 C 0.99707 0.18504 0.6366 0.0
H1226 H 0.02952 0.21948 0.59328 0.0
C1227 C 0.09269 0.15716 0.62478 0.0
C1228 C 0.10512 0.18325 0.6143 0.0
C1229 C 0.06943 0.16241 0.62767 0.0
C1230 C 0.02081 0.21057 0.60569 0.0
H1231 H 0.91923 0.12728 0.62695 0.0
H1232 H 0.95938 0.13782 0.63231 0.0
H1233 H 0.98841 0.21981 0.59327 0.0
H1234 H 0.10329 0.23678 0.5999 0.0
H1235 H 0.06305 0.24646 0.60537 0.0
H1236 H 0.02958 0.1751 0.64888 0.0
C1237 C 0.94952 0.16006 0.62592 0.0
C1238 C 0.99716 0.21075 0.60566 0.0
C1239 C 0.9265 0.15391 0.62271 0.0
C1240 C 0.09413 0.21584 0.6078 0.0
C1241 C 0.07099 0.22129 0.61085 0.0
C1242 C 0.0208 0.18502 0.63667 0.0
C1243 C 0.95993 0.19343 0.61991 0.0
C1244 C 0.98499 0.19738 0.62098 0.0
C1245 C 0.05816 0.19406 0.62028 0.0
C1246 C 0.03298 0.19721 0.62109 0.0
H1247 H 0.91365 0.23688 0.6013 0.0
H1248 H 0.95397 0.24761 0.6069 0.0
H1249 H 0.98818 0.17494 0.6487 0.0
H1250 H 0.10065 0.13171 0.62994 0.0
H1251 H 0.06011 0.1407 0.63489 0.0
C1252 C 0.09451 0.21886 0.86939 0.0
C1253 C 0.10528 0.18649 0.86244 0.0
C1254 C 0.07139 0.22481 0.86652 0.0
C1255 C 0.02092 0.1909 0.84038 0.0
H1256 H 0.9889 0.22257 0.88448 0.0
C1257 C 0.92688 0.15846 0.85432 0.0
C1258 C 0.91367 0.18481 0.86405 0.0
C1259 C 0.94986 0.165 0.8511 0.0
C1260 C 0.99754 0.21443 0.87191 0.0
H1261 H 0.10044 0.13595 0.84616 0.0
H1262 H 0.05993 0.14583 0.84148 0.0
H1263 H 0.03001 0.22214 0.88427 0.0
H1264 H 0.914 0.23972 0.87713 0.0
H1265 H 0.95426 0.25114 0.87152 0.0
H1266 H 0.98821 0.1818 0.82835 0.0
C1267 C 0.06941 0.16697 0.84895 0.0
C1268 C 0.02119 0.21417 0.87176 0.0
C1269 C 0.09265 0.1612 0.85168 0.0
C1270 C 0.92371 0.21878 0.86967 0.0
C1271 C 0.9468 0.22522 0.86655 0.0
C1272 C 0.9972 0.191 0.84056 0.0
C1273 C 0.05837 0.19834 0.85678 0.0
C1274 C 0.03322 0.20186 0.85611 0.0
C1275 C 0.96023 0.198 0.85759 0.0
C1276 C 0.98525 0.20217 0.85645 0.0
H1277 H 0.10383 0.23919 0.87752 0.0
H1278 H 0.0636 0.24974 0.87235 0.0
H1279 H 0.02961 0.18182 0.82799 0.0
H1280 H 0.91964 0.13211 0.84967 0.0
H1281 H 0.95972 0.1433 0.84431 0.0
C1282 C 0.09351 0.80988 0.37286 0.0
C1283 C 0.10498 0.84076 0.36511 0.0
C1284 C 0.07017 0.80546 0.37011 0.0
C1285 C 0.02031 0.86433 0.35986 0.0
H1286 H 0.98834 0.76935 0.35614 0.0
C1287 C 0.9243 0.86358 0.35243 0.0
C1288 C 0.91241 0.83932 0.36428 0.0
C1289 C 0.94753 0.85909 0.34971 0.0
C1290 C 0.99706 0.79605 0.35724 0.0
H1291 H 0.10141 0.8893 0.34714 0.0
H1292 H 0.06102 0.88108 0.34197 0.0
H1293 H 0.02987 0.76988 0.3563 0.0
H1294 H 0.91531 0.78973 0.38164 0.0
H1295 H 0.95616 0.78224 0.37712 0.0
H1296 H 0.98783 0.89059 0.36116 0.0
C1297 C 0.06979 0.86097 0.35068 0.0
C1298 C 0.02083 0.79636 0.35735 0.0
C1299 C 0.09299 0.86558 0.35356 0.0
C1300 C 0.92402 0.8089 0.37243 0.0
C1301 C 0.94741 0.80457 0.36981 0.0
C1302 C 0.99671 0.86402 0.35973 0.0
C1303 C 0.05792 0.83167 0.35944 0.0
C1304 C 0.03272 0.83058 0.35864 0.0
C1305 C 0.95954 0.83044 0.35891 0.0
C1306 C 0.98475 0.82996 0.3584 0.0
H1307 H 0.10229 0.79026 0.38183 0.0
H1308 H 0.06156 0.78265 0.37712 0.0
H1309 H 0.02883 0.89113 0.36141 0.0
H1310 H 0.91577 0.88692 0.34571 0.0
H1311 H 0.95625 0.87891 0.34083 0.0
C1312 C 0.27275 0.32007 0.05222 0.0
C1313 C 0.29578 0.3296 0.05215 0.0
C1314 C 0.26269 0.30588 0.03616 0.0
C1315 C 0.27976 0.25417 -0.00544 0.0
H1316 H 0.21893 0.27555 0.97743 0.0
C1317 C 0.24396 0.20392 0.92423 0.0
C1318 C 0.22084 0.19518 0.92376 0.0
C1319 C 0.25364 0.21761 0.94053 0.0
C1320 C 0.23586 0.26888 0.98221 0.0
H1321 H 0.32586 0.3353 0.03527 0.0
H1322 H 0.30821 0.31184 0.00722 0.0
H1323 H 0.23369 0.30892 0.00424 0.0
H1324 H 0.19011 0.19041 0.93993 0.0
H1325 H 0.20711 0.21286 0.96844 0.0
H1326 H 0.28194 0.21413 0.97255 0.0
C1327 C 0.29806 0.314 0.01964 0.0
C1328 C 0.24429 0.28811 -0.00249 0.0
C1329 C 0.30808 0.32777 0.03561 0.0
C1330 C 0.20798 0.19735 0.94001 0.0
C1331 C 0.21764 0.21055 0.95625 0.0
C1332 C 0.27132 0.23491 0.97927 0.0
C1333 C 0.27558 0.30136 0.01994 0.0
C1334 C 0.26637 0.28109 0.00377 0.0
C1335 C 0.24029 0.22236 0.9565 0.0
C1336 C 0.24928 0.24206 0.97294 0.0
H1337 H 0.26306 0.32097 0.06491 0.0
H1338 H 0.24529 0.29637 0.03675 0.0
H1339 H 0.29672 0.24762 -0.00069 0.0
H1340 H 0.25407 0.20273 0.91176 0.0
H1341 H 0.27117 0.22653 0.94033 0.0
C1342 C 0.80982 0.83126 0.44374 0.0
C1343 C 0.79962 0.82932 0.42622 0.0
C1344 C 0.79918 0.8156 0.45911 0.0
C1345 C 0.75851 0.74164 0.4708 0.0
H1346 H 0.75975 0.78723 0.5194 0.0
C1347 C 0.70757 0.68543 0.53287 0.0
C1348 C 0.71747 0.6878 0.55049 0.0
C1349 C 0.71856 0.70046 0.51751 0.0
C1350 C 0.75958 0.7739 0.50596 0.0
H1351 H 0.7696 0.81147 0.41134 0.0
H1352 H 0.75091 0.78453 0.43828 0.0
H1353 H 0.77552 0.82127 0.49314 0.0
H1354 H 0.74738 0.70553 0.56557 0.0
H1355 H 0.76668 0.73133 0.53865 0.0
H1356 H 0.74255 0.69429 0.48362 0.0
C1357 C 0.76735 0.79753 0.44 0.0
C1358 C 0.7685 0.79347 0.49092 0.0
C1359 C 0.77797 0.81327 0.42461 0.0
C1360 C 0.73921 0.70345 0.55222 0.0
C1361 C 0.75019 0.71854 0.53684 0.0
C1362 C 0.7496 0.72206 0.48584 0.0
C1363 C 0.77811 0.7977 0.4573 0.0
C1364 C 0.76802 0.77757 0.47319 0.0
C1365 C 0.73969 0.71811 0.51943 0.0
C1366 C 0.75003 0.738 0.50357 0.0
H1367 H 0.82645 0.84362 0.44548 0.0
H1368 H 0.80793 0.81605 0.47225 0.0
H1369 H 0.75831 0.72835 0.45735 0.0
H1370 H 0.69089 0.67335 0.53103 0.0
H1371 H 0.71001 0.69982 0.50429 0.0
C1372 C 0.20988 0.83672 0.03329 0.0
C1373 C 0.21907 0.83033 0.05092 0.0
C1374 C 0.22028 0.82173 0.01767 0.0
C1375 C 0.25651 0.74268 0.00449 0.0
H1376 H 0.26018 0.79474 0.9575 0.0
C1377 C 0.307 0.68726 0.94223 0.0
C1378 C 0.29819 0.69358 0.92447 0.0
C1379 C 0.29599 0.70164 0.9577 0.0
C1380 C 0.25893 0.77967 0.97047 0.0
H1381 H 0.24719 0.80532 0.0659 0.0
H1382 H 0.26554 0.7795 0.0385 0.0
H1383 H 0.24566 0.82792 0.98449 0.0
H1384 H 0.27016 0.71777 0.90907 0.0
H1385 H 0.25077 0.74263 0.93622 0.0
H1386 H 0.26984 0.69446 -0.00952 0.0
C1387 C 0.25003 0.79551 0.03686 0.0
C1388 C 0.25075 0.79873 0.98592 0.0
C1389 C 0.23964 0.81061 0.05251 0.0
C1390 C 0.27741 0.71256 0.92257 0.0
C1391 C 0.26642 0.72708 0.93808 0.0
C1392 C 0.26468 0.72362 -0.01097 0.0
C1393 C 0.2401 0.80007 0.01937 0.0
C1394 C 0.24952 0.78044 0.00309 0.0
C1395 C 0.27595 0.72263 0.95573 0.0
C1396 C 0.26602 0.74196 0.97189 0.0
H1397 H 0.19411 0.85204 0.03159 0.0
H1398 H 0.21219 0.8256 0.00438 0.0
H1399 H 0.2553 0.72763 0.01747 0.0
H1400 H 0.32291 0.67248 0.94415 0.0
H1401 H 0.30379 0.6979 0.97112 0.0
C1402 C 0.81008 0.19234 0.53408 0.0
C1403 C 0.80012 0.19431 0.55168 0.0
C1404 C 0.79893 0.2071 0.51873 0.0
C1405 C 0.76746 0.22625 0.48705 0.0
H1406 H 0.7398 0.32465 0.49335 0.0
C1407 C 0.73793 0.31394 0.42491 0.0
C1408 C 0.71602 0.32925 0.42627 0.0
C1409 C 0.74867 0.29914 0.44048 0.0
C1410 C 0.74731 0.29707 0.49142 0.0
H1411 H 0.7701 0.21154 0.5668 0.0
H1412 H 0.75049 0.23697 0.53986 0.0
H1413 H 0.75618 0.29238 0.51996 0.0
H1414 H 0.68878 0.34314 0.44525 0.0
H1415 H 0.70751 0.31718 0.47235 0.0
H1416 H 0.75865 0.23097 0.45851 0.0
C1417 C 0.76713 0.22457 0.53806 0.0
C1418 C 0.75658 0.27851 0.50665 0.0
C1419 C 0.77827 0.20971 0.55345 0.0
C1420 C 0.70561 0.33132 0.4437 0.0
C1421 C 0.71638 0.31661 0.45926 0.0
C1422 C 0.75821 0.24481 0.47183 0.0
C1423 C 0.77756 0.22412 0.52062 0.0
C1424 C 0.76679 0.24295 0.50461 0.0
C1425 C 0.73777 0.29952 0.45772 0.0
C1426 C 0.7481 0.28045 0.47385 0.0
H1427 H 0.82685 0.18046 0.53222 0.0
H1428 H 0.80747 0.20654 0.5055 0.0
H1429 H 0.77498 0.19868 0.4851 0.0
H1430 H 0.74648 0.31208 0.4117 0.0
H1431 H 0.76536 0.28674 0.43897 0.0
C1432 C 0.80965 0.83171 0.03342 0.0
C1433 C 0.79969 0.82832 0.05097 0.0
C1434 C 0.79906 0.81648 0.01794 0.0
C1435 C 0.75953 0.74136 0.00573 0.0
H1436 H 0.75948 0.78942 0.95764 0.0
C1437 C 0.70846 0.68683 0.94353 0.0
C1438 C 0.71812 0.69033 0.92588 0.0
C1439 C 0.71952 0.7013 0.95896 0.0
C1440 C 0.75969 0.77542 0.97093 0.0
H1441 H 0.77014 0.80843 0.06587 0.0
H1442 H 0.75152 0.78225 0.03874 0.0
H1443 H 0.77495 0.82286 0.98416 0.0
H1444 H 0.74766 0.70949 0.91072 0.0
H1445 H 0.76709 0.73442 0.93777 0.0
H1446 H 0.7442 0.69396 -0.00749 0.0
C1447 C 0.76774 0.79603 0.03706 0.0
C1448 C 0.76842 0.79464 0.98611 0.0
C1449 C 0.77831 0.81133 0.05256 0.0
C1450 C 0.7397 0.70653 0.92412 0.0
C1451 C 0.75075 0.7211 0.93957 0.0
C1452 C 0.75078 0.72214 -0.00945 0.0
C1453 C 0.7783 0.7976 0.0197 0.0
C1454 C 0.76838 0.77783 0.00367 0.0
C1455 C 0.74047 0.71955 0.95704 0.0
C1456 C 0.75075 0.739 0.97301 0.0
H1457 H 0.82606 0.84485 0.0317 0.0
H1458 H 0.80765 0.81801 0.00475 0.0
H1459 H 0.75969 0.72739 0.01904 0.0
H1460 H 0.69191 0.67425 0.94537 0.0
H1461 H 0.71114 0.6998 0.97224 0.0
C1462 C 0.20708 0.20042 0.53586 0.0
C1463 C 0.21999 0.19599 0.55198 0.0
C1464 C 0.21701 0.21378 0.51975 0.0
C1465 C 0.27108 0.23366 0.49647 0.0
H1466 H 0.23587 0.31243 0.47258 0.0
C1467 C 0.30981 0.32408 0.43985 0.0
C1468 C 0.29707 0.32787 0.4236 0.0
C1469 C 0.29979 0.31073 0.45593 0.0
C1470 C 0.24579 0.2903 0.47901 0.0
H1471 H 0.25356 0.19965 0.56382 0.0
H1472 H 0.27116 0.2237 0.53546 0.0
H1473 H 0.22047 0.27989 0.49944 0.0
H1474 H 0.26368 0.32322 0.41151 0.0
H1475 H 0.24592 0.29935 0.43984 0.0
H1476 H 0.29642 0.24415 0.47606 0.0
C1477 C 0.25335 0.2165 0.53529 0.0
C1478 C 0.23699 0.27157 0.49434 0.0
C1479 C 0.24337 0.20267 0.55147 0.0
C1480 C 0.27374 0.32069 0.42395 0.0
C1481 C 0.26367 0.30695 0.44012 0.0
C1482 C 0.27989 0.25241 0.48115 0.0
C1483 C 0.24002 0.22345 0.5195 0.0
C1484 C 0.24952 0.24299 0.50319 0.0
C1485 C 0.27686 0.30055 0.45603 0.0
C1486 C 0.26735 0.28098 0.4723 0.0
H1487 H 0.18902 0.19501 0.53593 0.0
H1488 H 0.20647 0.21779 0.50766 0.0
H1489 H 0.281 0.21151 0.50288 0.0
H1490 H 0.32782 0.32995 0.43991 0.0
H1491 H 0.31021 0.3071 0.46812 0.0
C1492 C 0.73824 0.31175 0.05226 0.0
C1493 C 0.71683 0.32883 0.05072 0.0
C1494 C 0.74897 0.29704 0.03667 0.0
C1495 C 0.74874 0.29773 0.9857 0.0
H1496 H 0.77315 0.19678 -0.00873 0.0
C1497 C 0.77827 0.21126 0.92311 0.0
C1498 C 0.79971 0.1944 0.92496 0.0
C1499 C 0.76716 0.2259 0.93855 0.0
C1500 C 0.76654 0.22505 -0.01046 0.0
H1501 H 0.69056 0.3461 0.03147 0.0
H1502 H 0.70924 0.32029 0.00436 0.0
H1503 H 0.75733 0.22914 0.01801 0.0
H1504 H 0.82567 0.17754 0.94457 0.0
H1505 H 0.80635 0.20321 0.97139 0.0
H1506 H 0.75799 0.29365 0.95723 0.0
C1507 C 0.71773 0.31823 0.01758 0.0
C1508 C 0.75759 0.24365 0.00485 0.0
C1509 C 0.70699 0.33286 0.03314 0.0
C1510 C 0.80923 0.1906 0.94266 0.0
C1511 C 0.7981 0.20513 0.95806 0.0
C1512 C 0.7577 0.27913 0.97038 0.0
C1513 C 0.73854 0.29931 0.01926 0.0
C1514 C 0.74866 0.28021 0.00309 0.0
C1515 C 0.77723 0.22374 0.9561 0.0
C1516 C 0.76672 0.24263 0.97216 0.0
H1517 H 0.74633 0.30836 0.06558 0.0
H1518 H 0.76522 0.28319 0.0383 0.0
H1519 H 0.74215 0.32602 0.98398 0.0
H1520 H 0.77045 0.21451 0.90967 0.0
H1521 H 0.75089 0.23957 0.9367 0.0
C1522 C 0.20713 0.8286 0.44389 0.0
C1523 C 0.21729 0.82526 0.42641 0.0
C1524 C 0.21645 0.81035 0.45914 0.0
C1525 C 0.26803 0.76642 0.47717 0.0
H1526 H 0.22625 0.70881 0.5074 0.0
C1527 C 0.30189 0.67684 0.53576 0.0
C1528 C 0.29112 0.68234 0.55278 0.0
C1529 C 0.29133 0.68797 0.51948 0.0
C1530 C 0.23808 0.72488 0.49913 0.0
H1531 H 0.24599 0.80216 0.41146 0.0
H1532 H 0.2624 0.77054 0.43824 0.0
H1533 H 0.21199 0.74467 0.48101 0.0
H1534 H 0.26053 0.70119 0.56639 0.0
H1535 H 0.24204 0.72173 0.53783 0.0
H1536 H 0.29405 0.74755 0.49539 0.0
C1537 C 0.24714 0.78714 0.44005 0.0
C1538 C 0.22993 0.74547 0.48409 0.0
C1539 C 0.23777 0.80532 0.42474 0.0
C1540 C 0.26895 0.6964 0.5533 0.0
C1541 C 0.25845 0.70816 0.53697 0.0
C1542 C 0.27615 0.74602 0.49222 0.0
C1543 C 0.23618 0.78862 0.45725 0.0
C1544 C 0.24484 0.76658 0.47305 0.0
C1545 C 0.27002 0.7056 0.52001 0.0
C1546 C 0.26127 0.72509 0.5034 0.0
H1547 H 0.19145 0.8441 0.44569 0.0
H1548 H 0.20797 0.81264 0.47236 0.0
H1549 H 0.27983 0.78278 0.469 0.0
H1550 H 0.31902 0.66583 0.53516 0.0
H1551 H 0.30039 0.68467 0.50658 0.0
C1552 C 0.34303 0.40116 0.16862 0.0
C1553 C 0.33138 0.37313 0.15877 0.0
C1554 C 0.34299 0.40115 0.1879 0.0
C1555 C 0.33388 0.33929 0.22813 0.0
H1556 H 0.32608 0.43346 0.25448 0.0
C1557 C 0.31928 0.34505 0.30681 0.0
C1558 C 0.33079 0.37319 0.31669 0.0
C1559 C 0.31936 0.34507 0.28753 0.0
C1560 C 0.32852 0.407 0.24733 0.0
H1561 H 0.31065 0.323 0.1615 0.0
H1562 H 0.31044 0.32327 0.19512 0.0
H1563 H 0.32627 0.43342 0.22083 0.0
H1564 H 0.35156 0.42329 0.31401 0.0
H1565 H 0.35183 0.42308 0.28039 0.0
H1566 H 0.33614 0.31286 0.25463 0.0
C1567 C 0.31977 0.34502 0.18792 0.0
C1568 C 0.32863 0.40697 0.22805 0.0
C1569 C 0.31978 0.34503 0.16864 0.0
C1570 C 0.34241 0.40131 0.30684 0.0
C1571 C 0.34248 0.40131 0.28757 0.0
C1572 C 0.33378 0.33932 0.24741 0.0
C1573 C 0.33136 0.37309 0.19776 0.0
C1574 C 0.3313 0.37312 0.21824 0.0
C1575 C 0.33096 0.37319 0.2777 0.0
C1576 C 0.33109 0.37317 0.25722 0.0
H1577 H 0.35224 0.42311 0.16147 0.0
H1578 H 0.35233 0.42287 0.19509 0.0
H1579 H 0.33632 0.31283 0.22097 0.0
H1580 H 0.31016 0.32295 0.31395 0.0
H1581 H 0.31011 0.32327 0.28033 0.0
C1582 C 0.70301 0.65672 0.80781 0.0
C1583 C 0.68238 0.65111 0.81711 0.0
C1584 C 0.70363 0.6581 0.78855 0.0
C1585 C 0.67142 0.62718 0.74801 0.0
H1586 H 0.70732 0.70099 0.72155 0.0
C1587 C 0.6624 0.64788 0.67007 0.0
C1588 C 0.68245 0.65104 0.65973 0.0
C1589 C 0.66301 0.64946 0.68927 0.0
C1590 C 0.69741 0.68 0.72878 0.0
H1591 H 0.64614 0.64377 0.81349 0.0
H1592 H 0.64725 0.64648 0.77998 0.0
H1593 H 0.70729 0.70087 0.75531 0.0
H1594 H 0.71881 0.65939 0.66143 0.0
H1595 H 0.71985 0.66177 0.69511 0.0
H1596 H 0.6615 0.60625 0.7216 0.0
C1597 C 0.66298 0.6491 0.78756 0.0
C1598 C 0.69739 0.67993 0.74806 0.0
C1599 C 0.66235 0.64771 0.80677 0.0
C1600 C 0.70307 0.65675 0.66901 0.0
C1601 C 0.70367 0.6583 0.68827 0.0
C1602 C 0.67143 0.62726 0.72879 0.0
C1603 C 0.68364 0.65391 0.77825 0.0
C1604 C 0.68424 0.65369 0.75784 0.0
C1605 C 0.68367 0.65419 0.69857 0.0
C1606 C 0.68426 0.65384 0.71898 0.0
H1607 H 0.71874 0.65954 0.81538 0.0
H1608 H 0.71981 0.66159 0.78172 0.0
H1609 H 0.66149 0.60612 0.75518 0.0
H1610 H 0.64619 0.64392 0.66336 0.0
H1611 H 0.64727 0.64693 0.69684 0.0
C1612 C 0.35661 0.65709 0.80669 0.0
C1613 C 0.33622 0.65274 0.81645 0.0
C1614 C 0.35654 0.65971 0.78748 0.0
C1615 C 0.31875 0.67731 0.74737 0.0
H1616 H 0.36684 0.62696 0.7205 0.0
C1617 C 0.34058 0.62322 0.66892 0.0
C1618 C 0.33298 0.65442 0.65869 0.0
C1619 C 0.34135 0.62466 0.68814 0.0
C1620 C 0.35317 0.64089 0.72777 0.0
H1621 H 0.29976 0.64784 0.81375 0.0
H1622 H 0.29968 0.65113 0.78018 0.0
H1623 H 0.36692 0.62574 0.75401 0.0
H1624 H 0.32063 0.7119 0.66057 0.0
H1625 H 0.32255 0.71479 0.69414 0.0
H1626 H 0.30443 0.69092 0.72109 0.0
C1627 C 0.3157 0.65347 0.78737 0.0
C1628 C 0.35339 0.6407 0.74702 0.0
C1629 C 0.31574 0.65132 0.80661 0.0
C1630 C 0.32638 0.68726 0.66809 0.0
C1631 C 0.32738 0.68885 0.68733 0.0
C1632 C 0.31839 0.67718 0.7281 0.0
C1633 C 0.33611 0.65758 0.77756 0.0
C1634 C 0.33614 0.65876 0.75707 0.0
C1635 C 0.33481 0.65751 0.69759 0.0
C1636 C 0.33554 0.65878 0.71807 0.0
H1637 H 0.37265 0.65876 0.81392 0.0
H1638 H 0.37253 0.66362 0.78041 0.0
H1639 H 0.30536 0.69198 0.75465 0.0
H1640 H 0.34566 0.5974 0.6621 0.0
H1641 H 0.34675 0.59975 0.6956 0.0
C1642 C 0.66418 0.3785 0.17037 0.0
C1643 C 0.68377 0.37259 0.15974 0.0
C1644 C 0.66532 0.37817 0.18957 0.0
C1645 C 0.69966 0.34583 0.22882 0.0
H1646 H 0.66647 0.42352 0.25506 0.0
C1647 C 0.70532 0.36796 0.30802 0.0
C1648 C 0.68462 0.37475 0.31704 0.0
C1649 C 0.70634 0.36722 0.28875 0.0
C1650 C 0.67568 0.40148 0.24793 0.0
H1651 H 0.71986 0.36085 0.16096 0.0
H1652 H 0.72182 0.36059 0.1946 0.0
H1653 H 0.66613 0.42287 0.22147 0.0
H1654 H 0.64867 0.385 0.31292 0.0
H1655 H 0.65049 0.38346 0.27946 0.0
H1656 H 0.70909 0.32439 0.2554 0.0
C1657 C 0.70559 0.36526 0.18801 0.0
C1658 C 0.67547 0.40109 0.22871 0.0
C1659 C 0.70446 0.3656 0.16875 0.0
C1660 C 0.66495 0.3801 0.30643 0.0
C1661 C 0.66598 0.37939 0.28724 0.0
C1662 C 0.69987 0.34623 0.2481 0.0
C1663 C 0.68606 0.37193 0.19858 0.0
C1664 C 0.68721 0.37301 0.21896 0.0
C1665 C 0.6867 0.37331 0.2782 0.0
C1666 C 0.68763 0.37379 0.25782 0.0
H1667 H 0.64792 0.38361 0.16388 0.0
H1668 H 0.64991 0.3827 0.19739 0.0
H1669 H 0.70873 0.32371 0.22164 0.0
H1670 H 0.72077 0.36363 0.31582 0.0
H1671 H 0.72255 0.36264 0.28211 0.0
C1672 C 0.81192 0.86156 0.16891 0.0
C1673 C 0.83259 0.86935 0.16006 0.0
C1674 C 0.8109 0.85855 0.1881 0.0
C1675 C 0.84645 0.84192 0.2291 0.0
H1676 H 0.79864 0.89471 0.25525 0.0
C1677 C 0.85175 0.87492 0.30642 0.0
C1678 C 0.83204 0.87111 0.31712 0.0
C1679 C 0.85081 0.87137 0.28728 0.0
C1680 C 0.81189 0.87934 0.24813 0.0
H1681 H 0.86844 0.87958 0.16441 0.0
H1682 H 0.86658 0.87466 0.19787 0.0
H1683 H 0.79883 0.8944 0.22157 0.0
H1684 H 0.7959 0.86011 0.31614 0.0
H1685 H 0.79432 0.85383 0.28261 0.0
H1686 H 0.8597 0.82732 0.25565 0.0
C1687 C 0.85122 0.87054 0.18995 0.0
C1688 C 0.812 0.87917 0.22887 0.0
C1689 C 0.85224 0.87365 0.17079 0.0
C1690 C 0.81137 0.8634 0.30827 0.0
C1691 C 0.81043 0.85992 0.28909 0.0
C1692 C 0.84633 0.84206 0.24835 0.0
C1693 C 0.83054 0.86308 0.1988 0.0
C1694 C 0.82948 0.86095 0.21918 0.0
C1695 C 0.83015 0.86391 0.27842 0.0
C1696 C 0.82925 0.86127 0.25805 0.0
H1697 H 0.79649 0.85791 0.16103 0.0
H1698 H 0.79478 0.85243 0.19456 0.0
H1699 H 0.8599 0.82707 0.22198 0.0
H1700 H 0.86796 0.88079 0.31279 0.0
H1701 H 0.86623 0.87514 0.2794 0.0
C1702 C 0.19915 0.17595 0.807 0.0
C1703 C 0.18694 0.14869 0.81696 0.0
C1704 C 0.19931 0.17552 0.78772 0.0
C1705 C 0.16736 0.14029 0.74756 0.0
H1706 H 0.22329 0.15979 0.72118 0.0
C1707 C 0.1754 0.1205 0.66876 0.0
C1708 C 0.18734 0.14828 0.65895 0.0
C1709 C 0.17549 0.1202 0.68805 0.0
C1710 C 0.20749 0.15468 0.72834 0.0
H1711 H 0.16533 0.09959 0.81441 0.0
H1712 H 0.16582 0.09868 0.78078 0.0
H1713 H 0.22319 0.15984 0.75484 0.0
H1714 H 0.20869 0.19767 0.66177 0.0
H1715 H 0.2087 0.19721 0.69539 0.0
H1716 H 0.15167 0.13517 0.72106 0.0
C1717 C 0.17506 0.12062 0.7879 0.0
C1718 C 0.20743 0.15471 0.74763 0.0
C1719 C 0.1749 0.12103 0.80719 0.0
C1720 C 0.1994 0.17572 0.66887 0.0
C1721 C 0.19951 0.17537 0.68816 0.0
C1722 C 0.16743 0.14025 0.72827 0.0
C1723 C 0.18726 0.14787 0.77795 0.0
C1724 C 0.18736 0.14756 0.75745 0.0
C1725 C 0.18752 0.14765 0.69796 0.0
C1726 C 0.18749 0.14748 0.71845 0.0
H1727 H 0.20851 0.19782 0.81406 0.0
H1728 H 0.20862 0.19721 0.78046 0.0
H1729 H 0.15155 0.13526 0.75472 0.0
H1730 H 0.16593 0.09893 0.66157 0.0
H1731 H 0.16631 0.0982 0.6952 0.0
C1732 C 0.81338 0.14793 0.66877 0.0
C1733 C 0.83384 0.14053 0.65951 0.0
C1734 C 0.81264 0.14824 0.68803 0.0
C1735 C 0.84341 0.11347 0.72882 0.0
H1736 H 0.81103 0.19259 0.75471 0.0
C1737 C 0.85437 0.13811 0.8065 0.0
C1738 C 0.83471 0.14506 0.81691 0.0
C1739 C 0.85347 0.1376 0.78729 0.0
C1740 C 0.81991 0.17009 0.74765 0.0
H1741 H 0.86961 0.12815 0.66321 0.0
H1742 H 0.86828 0.129 0.69674 0.0
H1743 H 0.81074 0.1913 0.721 0.0
H1744 H 0.79874 0.15755 0.81526 0.0
H1745 H 0.7972 0.1564 0.78162 0.0
H1746 H 0.85271 0.09236 0.75541 0.0
C1747 C 0.85276 0.13396 0.68912 0.0
C1748 C 0.81974 0.16933 0.72838 0.0
C1749 C 0.85353 0.13367 0.6699 0.0
C1750 C 0.81419 0.15204 0.80765 0.0
C1751 C 0.81331 0.15157 0.7884 0.0
C1752 C 0.84359 0.11423 0.74805 0.0
C1753 C 0.83231 0.14113 0.69838 0.0
C1754 C 0.83166 0.1412 0.71879 0.0
C1755 C 0.83292 0.14408 0.77804 0.0
C1756 C 0.83202 0.14273 0.75765 0.0
H1757 H 0.79792 0.15336 0.66116 0.0
H1758 H 0.7966 0.15355 0.69483 0.0
H1759 H 0.8524 0.09104 0.7218 0.0
H1760 H 0.8705 0.13291 0.81318 0.0
H1761 H 0.86894 0.13238 0.77964 0.0
C1762 C 0.2051 0.86207 0.3083 0.0
C1763 C 0.18479 0.87119 0.31741 0.0
C1764 C 0.20573 0.85936 0.28906 0.0
C1765 C 0.16895 0.84618 0.24839 0.0
H1766 H 0.21819 0.8936 0.22169 0.0
C1767 C 0.16469 0.87625 0.17046 0.0
C1768 C 0.18436 0.87029 0.15992 0.0
C1769 C 0.16538 0.87361 0.18967 0.0
C1770 C 0.2045 0.87975 0.22896 0.0
H1771 H 0.14916 0.88425 0.31344 0.0
H1772 H 0.15036 0.87988 0.27997 0.0
H1773 H 0.21832 0.89382 0.25537 0.0
H1774 H 0.22015 0.85631 0.16132 0.0
H1775 H 0.22128 0.85155 0.19489 0.0
H1776 H 0.15499 0.83249 0.222 0.0
C1777 C 0.16573 0.87444 0.28769 0.0
C1778 C 0.20458 0.87988 0.24823 0.0
C1779 C 0.1651 0.87722 0.30688 0.0
C1780 C 0.20471 0.86127 0.16903 0.0
C1781 C 0.2054 0.85869 0.18826 0.0
C1782 C 0.16887 0.84604 0.22913 0.0
C1783 C 0.18605 0.86555 0.27857 0.0
C1784 C 0.18667 0.86348 0.25814 0.0
C1785 C 0.18575 0.86494 0.19878 0.0
C1786 C 0.18651 0.86321 0.21921 0.0
H1787 H 0.22055 0.85708 0.316 0.0
H1788 H 0.22158 0.8521 0.28242 0.0
H1789 H 0.15512 0.83273 0.25566 0.0
H1790 H 0.14872 0.88319 0.1639 0.0
H1791 H 0.15003 0.87906 0.1974 0.0
loop_
_geom_bond_atom_site_label_1
_geom_bond_atom_site_label_2
_geom_bond_distance
_geom_bond_site_symmetry_2
_ccdc_geom_bond_type
Fe0 O2 1.918 . S
Fe0 O5 1.997 . S
Fe0 O6 2.002 . S
Fe0 O11 1.976 . S
Fe0 O14 1.996 . S
Fe1 O2 1.918 . S
Fe1 O9 1.997 . S
Fe1 O12 1.996 . S
Fe1 O16 1.976 . S
Fe1 O19 2.002 . S
O2 Fe0 1.918 . S
O2 Fe1 1.918 . S
O2 Fe3 1.918 . S
Fe3 O2 1.918 . S
Fe3 O4 2.002 . S
Fe3 O13 1.976 . S
Fe3 O17 1.996 . S
Fe3 O20 1.997 . S
O4 Fe3 2.002 . S
O4 C21 1.295 . S
O5 Fe0 1.997 . S
O5 C21 1.235 . S
O6 Fe0 2.002 . S
O6 C7 1.295 . S
C7 O6 1.295 . S
C7 O9 1.235 . S
C8 O13 1.287 . S
C8 O14 1.255 . S
O9 Fe1 1.997 . S
O9 C7 1.235 . S
C10 O16 1.287 . S
C10 O17 1.255 . S
O11 Fe0 1.976 . S
O11 C18 1.287 . S
O12 Fe1 1.996 . S
O12 C18 1.255 . S
O13 Fe3 1.976 . S
O13 C8 1.287 . S
O14 Fe0 1.996 . S
O14 C8 1.255 . S
C15 O19 1.295 . S
C15 O20 1.235 . S
O16 Fe1 1.976 . S
O16 C10 1.287 . S
O17 Fe3 1.996 . S
O17 C10 1.255 . S
C18 O11 1.287 . S
C18 O12 1.255 . S
O19 Fe1 2.002 . S
O19 C15 1.295 . S
O20 Fe3 1.997 . S
O20 C15 1.235 . S
C21 O4 1.295 . S
C21 O5 1.235 . S
Fe22 O24 1.918 . S
Fe22 O27 1.997 . S
Fe22 O28 2.002 . S
Fe22 O33 1.976 . S
Fe22 O36 1.996 . S
Fe23 O24 1.918 . S
Fe23 O31 1.997 . S
Fe23 O34 1.996 . S
Fe23 O38 1.976 . S
Fe23 O41 2.002 . S
O24 Fe22 1.918 . S
O24 Fe23 1.918 . S
O24 Fe25 1.918 . S
Fe25 O24 1.918 . S
Fe25 O26 2.002 . S
Fe25 O35 1.976 . S
Fe25 O39 1.996 . S
Fe25 O42 1.997 . S
O26 Fe25 2.002 . S
O26 C43 1.295 . S
O27 Fe22 1.997 . S
O27 C43 1.235 . S
O28 Fe22 2.002 . S
O28 C29 1.295 . S
C29 O28 1.295 . S
C29 O31 1.235 . S
C30 O35 1.287 . S
C30 O36 1.255 . S
O31 Fe23 1.997 . S
O31 C29 1.235 . S
C32 O38 1.287 . S
C32 O39 1.255 . S
O33 Fe22 1.976 . S
O33 C40 1.287 . S
O34 Fe23 1.996 . S
O34 C40 1.255 . S
O35 Fe25 1.976 . S
O35 C30 1.287 . S
O36 Fe22 1.996 . S
O36 C30 1.255 . S
C37 O41 1.295 . S
C37 O42 1.235 . S
O38 Fe23 1.976 . S
O38 C32 1.287 . S
O39 Fe25 1.996 . S
O39 C32 1.255 . S
C40 O33 1.287 . S
C40 O34 1.255 . S
O41 Fe23 2.002 . S
O41 C37 1.295 . S
O42 Fe25 1.997 . S
O42 C37 1.235 . S
C43 O26 1.295 . S
C43 O27 1.235 . S
Fe44 O46 1.918 . S
Fe44 O49 1.997 . S
Fe44 O50 2.002 . S
Fe44 O55 1.976 . S
Fe44 O58 1.996 . S
Fe45 O46 1.918 . S
Fe45 O53 1.997 . S
Fe45 O56 1.996 . S
Fe45 O60 1.976 . S
Fe45 O63 2.002 . S
O46 Fe44 1.918 . S
O46 Fe45 1.918 . S
O46 Fe47 1.918 . S
Fe47 O46 1.918 . S
Fe47 O48 2.002 . S
Fe47 O57 1.976 . S
Fe47 O61 1.996 . S
Fe47 O64 1.997 . S
O48 Fe47 2.002 . S
O48 C65 1.295 . S
O49 Fe44 1.997 . S
O49 C65 1.235 . S
O50 Fe44 2.002 . S
O50 C51 1.295 . S
C51 O50 1.295 . S
C51 O53 1.235 . S
C52 O57 1.287 . S
C52 O58 1.255 . S
O53 Fe45 1.997 . S
O53 C51 1.235 . S
C54 O60 1.287 . S
C54 O61 1.255 . S
O55 Fe44 1.976 . S
O55 C62 1.287 . S
O56 Fe45 1.996 . S
O56 C62 1.255 . S
O57 Fe47 1.976 . S
O57 C52 1.287 . S
O58 Fe44 1.996 . S
O58 C52 1.255 . S
C59 O63 1.295 . S
C59 O64 1.235 . S
O60 Fe45 1.976 . S
O60 C54 1.287 . S
O61 Fe47 1.996 . S
O61 C54 1.255 . S
C62 O55 1.287 . S
C62 O56 1.255 . S
O63 Fe45 2.002 . S
O63 C59 1.295 . S
O64 Fe47 1.997 . S
O64 C59 1.235 . S
C65 O48 1.295 . S
C65 O49 1.235 . S
Fe66 O68 1.918 . S
Fe66 O71 1.997 . S
Fe66 O72 2.002 . S
Fe66 O77 1.976 . S
Fe66 O80 1.996 . S
Fe67 O68 1.918 . S
Fe67 O75 1.997 . S
Fe67 O78 1.996 . S
Fe67 O82 1.976 . S
Fe67 O85 2.002 . S
O68 Fe66 1.918 . S
O68 Fe67 1.918 . S
O68 Fe69 1.918 . S
Fe69 O68 1.918 . S
Fe69 O70 2.002 . S
Fe69 O79 1.976 . S
Fe69 O83 1.996 . S
Fe69 O86 1.997 . S
O70 Fe69 2.002 . S
O70 C87 1.295 . S
O71 Fe66 1.997 . S
O71 C87 1.235 . S
O72 Fe66 2.002 . S
O72 C73 1.295 . S
C73 O72 1.295 . S
C73 O75 1.235 . S
C74 O79 1.287 . S
C74 O80 1.255 . S
O75 Fe67 1.997 . S
O75 C73 1.235 . S
C76 O82 1.287 . S
C76 O83 1.255 . S
O77 Fe66 1.976 . S
O77 C84 1.287 . S
O78 Fe67 1.996 . S
O78 C84 1.255 . S
O79 Fe69 1.976 . S
O79 C74 1.287 . S
O80 Fe66 1.996 . S
O80 C74 1.255 . S
C81 O85 1.295 . S
C81 O86 1.235 . S
O82 Fe67 1.976 . S
O82 C76 1.287 . S
O83 Fe69 1.996 . S
O83 C76 1.255 . S
C84 O77 1.287 . S
C84 O78 1.255 . S
O85 Fe67 2.002 . S
O85 C81 1.295 . S
O86 Fe69 1.997 . S
O86 C81 1.235 . S
C87 O70 1.295 . S
C87 O71 1.235 . S
Fe88 O90 1.918 . S
Fe88 O93 1.997 . S
Fe88 O94 2.002 . S
Fe88 O99 1.976 . S
Fe88 O102 1.996 . S
Fe89 O90 1.918 . S
Fe89 O97 1.997 . S
Fe89 O100 1.996 . S
Fe89 O104 1.976 . S
Fe89 O107 2.002 . S
O90 Fe88 1.918 . S
O90 Fe89 1.918 . S
O90 Fe91 1.918 . S
Fe91 O90 1.918 . S
Fe91 O92 2.002 . S
Fe91 O101 1.976 . S
Fe91 O105 1.996 . S
Fe91 O108 1.997 . S
O92 Fe91 2.002 . S
O92 C109 1.295 . S
O93 Fe88 1.997 . S
O93 C109 1.235 . S
O94 Fe88 2.002 . S
O94 C95 1.295 . S
C95 O94 1.295 . S
C95 O97 1.235 . S
C96 O101 1.287 . S
C96 O102 1.255 . S
O97 Fe89 1.997 . S
O97 C95 1.235 . S
C98 O104 1.287 . S
C98 O105 1.255 . S
O99 Fe88 1.976 . S
O99 C106 1.287 . S
O100 Fe89 1.996 . S
O100 C106 1.255 . S
O101 Fe91 1.976 . S
O101 C96 1.287 . S
O102 Fe88 1.996 . S
O102 C96 1.255 . S
C103 O107 1.295 . S
C103 O108 1.235 . S
O104 Fe89 1.976 . S
O104 C98 1.287 . S
O105 Fe91 1.996 . S
O105 C98 1.255 . S
C106 O99 1.287 . S
C106 O100 1.255 . S
O107 Fe89 2.002 . S
O107 C103 1.295 . S
O108 Fe91 1.997 . S
O108 C103 1.235 . S
C109 O92 1.295 . S
C109 O93 1.235 . S
Fe110 O112 1.918 . S
Fe110 O115 1.997 . S
Fe110 O116 2.002 . S
Fe110 O121 1.976 . S
Fe110 O124 1.996 . S
Fe111 O112 1.918 . S
Fe111 O119 1.997 . S
Fe111 O122 1.996 . S
Fe111 O126 1.976 . S
Fe111 O129 2.002 . S
O112 Fe110 1.918 . S
O112 Fe111 1.918 . S
O112 Fe113 1.918 . S
Fe113 O112 1.918 . S
Fe113 O114 2.002 . S
Fe113 O123 1.976 . S
Fe113 O127 1.996 . S
Fe113 O130 1.997 . S
O114 Fe113 2.002 . S
O114 C131 1.295 . S
O115 Fe110 1.997 . S
O115 C131 1.235 . S
O116 Fe110 2.002 . S
O116 C117 1.295 . S
C117 O116 1.295 . S
C117 O119 1.235 . S
C118 O123 1.287 . S
C118 O124 1.255 . S
O119 Fe111 1.997 . S
O119 C117 1.235 . S
C120 O126 1.287 . S
C120 O127 1.255 . S
O121 Fe110 1.976 . S
O121 C128 1.287 . S
O122 Fe111 1.996 . S
O122 C128 1.255 . S
O123 Fe113 1.976 . S
O123 C118 1.287 . S
O124 Fe110 1.996 . S
O124 C118 1.255 . S
C125 O129 1.295 . S
C125 O130 1.235 . S
O126 Fe111 1.976 . S
O126 C120 1.287 . S
O127 Fe113 1.996 . S
O127 C120 1.255 . S
C128 O121 1.287 . S
C128 O122 1.255 . S
O129 Fe111 2.002 . S
O129 C125 1.295 . S
O130 Fe113 1.997 . S
O130 C125 1.235 . S
C131 O114 1.295 . S
C131 O115 1.235 . S
Fe132 O134 1.918 . S
Fe132 O137 1.997 . S
Fe132 O138 2.002 . S
Fe132 O143 1.976 . S
Fe132 O146 1.996 . S
Fe133 O134 1.918 . S
Fe133 O141 1.997 . S
Fe133 O144 1.996 . S
Fe133 O148 1.976 . S
Fe133 O151 2.002 . S
O134 Fe132 1.918 . S
O134 Fe133 1.918 . S
O134 Fe135 1.918 . S
Fe135 O134 1.918 . S
Fe135 O136 2.002 . S
Fe135 O145 1.976 . S
Fe135 O149 1.996 . S
Fe135 O152 1.997 . S
O136 Fe135 2.002 . S
O136 C153 1.295 . S
O137 Fe132 1.997 . S
O137 C153 1.235 . S
O138 Fe132 2.002 . S
O138 C139 1.295 . S
C139 O138 1.295 . S
C139 O141 1.235 . S
C140 O145 1.287 . S
C140 O146 1.255 . S
O141 Fe133 1.997 . S
O141 C139 1.235 . S
C142 O148 1.287 . S
C142 O149 1.255 . S
O143 Fe132 1.976 . S
O143 C150 1.287 . S
O144 Fe133 1.996 . S
O144 C150 1.255 . S
O145 Fe135 1.976 . S
O145 C140 1.287 . S
O146 Fe132 1.996 . S
O146 C140 1.255 . S
C147 O151 1.295 . S
C147 O152 1.235 . S
O148 Fe133 1.976 . S
O148 C142 1.287 . S
O149 Fe135 1.996 . S
O149 C142 1.255 . S
C150 O143 1.287 . S
C150 O144 1.255 . S
O151 Fe133 2.002 . S
O151 C147 1.295 . S
O152 Fe135 1.997 . S
O152 C147 1.235 . S
C153 O136 1.295 . S
C153 O137 1.235 . S
Fe154 O156 1.918 . S
Fe154 O159 1.997 . S
Fe154 O160 2.002 . S
Fe154 O165 1.976 . S
Fe154 O168 1.996 . S
Fe155 O156 1.918 . S
Fe155 O163 1.997 . S
Fe155 O166 1.996 . S
Fe155 O170 1.976 . S
Fe155 O173 2.002 . S
O156 Fe154 1.918 . S
O156 Fe155 1.918 . S
O156 Fe157 1.918 . S
Fe157 O156 1.918 . S
Fe157 O158 2.002 . S
Fe157 O167 1.976 . S
Fe157 O171 1.996 . S
Fe157 O174 1.997 . S
O158 Fe157 2.002 . S
O158 C175 1.295 . S
O159 Fe154 1.997 . S
O159 C175 1.235 . S
O160 Fe154 2.002 . S
O160 C161 1.295 . S
C161 O160 1.295 . S
C161 O163 1.235 . S
C162 O167 1.287 . S
C162 O168 1.255 . S
O163 Fe155 1.997 . S
O163 C161 1.235 . S
C164 O170 1.287 . S
C164 O171 1.255 . S
O165 Fe154 1.976 . S
O165 C172 1.287 . S
O166 Fe155 1.996 . S
O166 C172 1.255 . S
O167 Fe157 1.976 . S
O167 C162 1.287 . S
O168 Fe154 1.996 . S
O168 C162 1.255 . S
C169 O173 1.295 . S
C169 O174 1.235 . S
O170 Fe155 1.976 . S
O170 C164 1.287 . S
O171 Fe157 1.996 . S
O171 C164 1.255 . S
C172 O165 1.287 . S
C172 O166 1.255 . S
O173 Fe155 2.002 . S
O173 C169 1.295 . S
O174 Fe157 1.997 . S
O174 C169 1.235 . S
C175 O158 1.295 . S
C175 O159 1.235 . S
Fe176 O178 1.918 . S
Fe176 O181 1.997 . S
Fe176 O182 2.002 . S
Fe176 O187 1.976 . S
Fe176 O190 1.996 . S
Fe177 O178 1.918 . S
Fe177 O185 1.997 . S
Fe177 O188 1.996 . S
Fe177 O192 1.976 . S
Fe177 O195 2.002 . S
O178 Fe176 1.918 . S
O178 Fe177 1.918 . S
O178 Fe179 1.918 . S
Fe179 O178 1.918 . S
Fe179 O180 2.002 . S
Fe179 O189 1.976 . S
Fe179 O193 1.996 . S
Fe179 O196 1.997 . S
O180 Fe179 2.002 . S
O180 C197 1.295 . S
O181 Fe176 1.997 . S
O181 C197 1.235 . S
O182 Fe176 2.002 . S
O182 C183 1.295 . S
C183 O182 1.295 . S
C183 O185 1.235 . S
C184 O189 1.287 . S
C184 O190 1.255 . S
O185 Fe177 1.997 . S
O185 C183 1.235 . S
C186 O192 1.287 . S
C186 O193 1.255 . S
O187 Fe176 1.976 . S
O187 C194 1.287 . S
O188 Fe177 1.996 . S
O188 C194 1.255 . S
O189 Fe179 1.976 . S
O189 C184 1.287 . S
O190 Fe176 1.996 . S
O190 C184 1.255 . S
C191 O195 1.295 . S
C191 O196 1.235 . S
O192 Fe177 1.976 . S
O192 C186 1.287 . S
O193 Fe179 1.996 . S
O193 C186 1.255 . S
C194 O187 1.287 . S
C194 O188 1.255 . S
O195 Fe177 2.002 . S
O195 C191 1.295 . S
O196 Fe179 1.997 . S
O196 C191 1.235 . S
C197 O180 1.295 . S
C197 O181 1.235 . S
Fe198 O200 1.918 . S
Fe198 O203 1.997 . S
Fe198 O204 2.002 . S
Fe198 O209 1.976 . S
Fe198 O212 1.996 . S
Fe199 O200 1.918 . S
Fe199 O207 1.997 . S
Fe199 O210 1.996 . S
Fe199 O214 1.976 . S
Fe199 O217 2.002 . S
O200 Fe198 1.918 . S
O200 Fe199 1.918 . S
O200 Fe201 1.918 . S
Fe201 O200 1.918 . S
Fe201 O202 2.002 . S
Fe201 O211 1.976 . S
Fe201 O215 1.996 . S
Fe201 O218 1.997 . S
O202 Fe201 2.002 . S
O202 C219 1.295 . S
O203 Fe198 1.997 . S
O203 C219 1.235 . S
O204 Fe198 2.002 . S
O204 C205 1.295 . S
C205 O204 1.295 . S
C205 O207 1.235 . S
C206 O211 1.287 . S
C206 O212 1.255 . S
O207 Fe199 1.997 . S
O207 C205 1.235 . S
C208 O214 1.287 . S
C208 O215 1.255 . S
O209 Fe198 1.976 . S
O209 C216 1.287 . S
O210 Fe199 1.996 . S
O210 C216 1.255 . S
O211 Fe201 1.976 . S
O211 C206 1.287 . S
O212 Fe198 1.996 . S
O212 C206 1.255 . S
C213 O217 1.295 . S
C213 O218 1.235 . S
O214 Fe199 1.976 . S
O214 C208 1.287 . S
O215 Fe201 1.996 . S
O215 C208 1.255 . S
C216 O209 1.287 . S
C216 O210 1.255 . S
O217 Fe199 2.002 . S
O217 C213 1.295 . S
O218 Fe201 1.997 . S
O218 C213 1.235 . S
C219 O202 1.295 . S
C219 O203 1.235 . S
Fe220 O222 1.918 . S
Fe220 O225 1.997 . S
Fe220 O226 2.002 . S
Fe220 O231 1.976 . S
Fe220 O234 1.996 . S
Fe221 O222 1.918 . S
Fe221 O229 1.997 . S
Fe221 O232 1.996 . S
Fe221 O236 1.976 . S
Fe221 O239 2.002 . S
O222 Fe220 1.918 . S
O222 Fe221 1.918 . S
O222 Fe223 1.918 . S
Fe223 O222 1.918 . S
Fe223 O224 2.002 . S
Fe223 O233 1.976 . S
Fe223 O237 1.996 . S
Fe223 O240 1.997 . S
O224 Fe223 2.002 . S
O224 C241 1.295 . S
O225 Fe220 1.997 . S
O225 C241 1.235 . S
O226 Fe220 2.002 . S
O226 C227 1.295 . S
C227 O226 1.295 . S
C227 O229 1.235 . S
C228 O233 1.287 . S
C228 O234 1.255 . S
O229 Fe221 1.997 . S
O229 C227 1.235 . S
C230 O236 1.287 . S
C230 O237 1.255 . S
O231 Fe220 1.976 . S
O231 C238 1.287 . S
O232 Fe221 1.996 . S
O232 C238 1.255 . S
O233 Fe223 1.976 . S
O233 C228 1.287 . S
O234 Fe220 1.996 . S
O234 C228 1.255 . S
C235 O239 1.295 . S
C235 O240 1.235 . S
O236 Fe221 1.976 . S
O236 C230 1.287 . S
O237 Fe223 1.996 . S
O237 C230 1.255 . S
C238 O231 1.287 . S
C238 O232 1.255 . S
O239 Fe221 2.002 . S
O239 C235 1.295 . S
O240 Fe223 1.997 . S
O240 C235 1.235 . S
C241 O224 1.295 . S
C241 O225 1.235 . S
Fe242 O244 1.918 . S
Fe242 O247 1.997 . S
Fe242 O248 2.002 . S
Fe242 O253 1.976 . S
Fe242 O256 1.996 . S
Fe243 O244 1.918 . S
Fe243 O251 1.997 . S
Fe243 O254 1.996 . S
Fe243 O258 1.976 . S
Fe243 O261 2.002 . S
O244 Fe242 1.918 . S
O244 Fe243 1.918 . S
O244 Fe245 1.918 . S
Fe245 O244 1.918 . S
Fe245 O246 2.002 . S
Fe245 O255 1.976 . S
Fe245 O259 1.996 . S
Fe245 O262 1.997 . S
O246 Fe245 2.002 . S
O246 C263 1.295 . S
O247 Fe242 1.997 . S
O247 C263 1.235 . S
O248 Fe242 2.002 . S
O248 C249 1.295 . S
C249 O248 1.295 . S
C249 O251 1.235 . S
C250 O255 1.287 . S
C250 O256 1.255 . S
O251 Fe243 1.997 . S
O251 C249 1.235 . S
C252 O258 1.287 . S
C252 O259 1.255 . S
O253 Fe242 1.976 . S
O253 C260 1.287 . S
O254 Fe243 1.996 . S
O254 C260 1.255 . S
O255 Fe245 1.976 . S
O255 C250 1.287 . S
O256 Fe242 1.996 . S
O256 C250 1.255 . S
C257 O261 1.295 . S
C257 O262 1.235 . S
O258 Fe243 1.976 . S
O258 C252 1.287 . S
O259 Fe245 1.996 . S
O259 C252 1.255 . S
C260 O253 1.287 . S
C260 O254 1.255 . S
O261 Fe243 2.002 . S
O261 C257 1.295 . S
O262 Fe245 1.997 . S
O262 C257 1.235 . S
C263 O246 1.295 . S
C263 O247 1.235 . S
Fe264 O266 1.918 . S
Fe264 O269 1.997 . S
Fe264 O270 2.002 . S
Fe264 O275 1.976 . S
Fe264 O278 1.996 . S
Fe265 O266 1.918 . S
Fe265 O273 1.997 . S
Fe265 O276 1.996 . S
Fe265 O280 1.976 . S
Fe265 O283 2.002 . S
O266 Fe264 1.918 . S
O266 Fe265 1.918 . S
O266 Fe267 1.918 . S
Fe267 O266 1.918 . S
Fe267 O268 2.002 . S
Fe267 O277 1.976 . S
Fe267 O281 1.996 . S
Fe267 O284 1.997 . S
O268 Fe267 2.002 . S
O268 C285 1.295 . S
O269 Fe264 1.997 . S
O269 C285 1.235 . S
O270 Fe264 2.002 . S
O270 C271 1.295 . S
C271 O270 1.295 . S
C271 O273 1.235 . S
C272 O277 1.287 . S
C272 O278 1.255 . S
O273 Fe265 1.997 . S
O273 C271 1.235 . S
C274 O280 1.287 . S
C274 O281 1.255 . S
O275 Fe264 1.976 . S
O275 C282 1.287 . S
O276 Fe265 1.996 . S
O276 C282 1.255 . S
O277 Fe267 1.976 . S
O277 C272 1.287 . S
O278 Fe264 1.996 . S
O278 C272 1.255 . S
C279 O283 1.295 . S
C279 O284 1.235 . S
O280 Fe265 1.976 . S
O280 C274 1.287 . S
O281 Fe267 1.996 . S
O281 C274 1.255 . S
C282 O275 1.287 . S
C282 O276 1.255 . S
O283 Fe265 2.002 . S
O283 C279 1.295 . S
O284 Fe267 1.997 . S
O284 C279 1.235 . S
C285 O268 1.295 . S
C285 O269 1.235 . S
Fe286 O288 1.918 . S
Fe286 O291 1.997 . S
Fe286 O292 2.002 . S
Fe286 O297 1.976 . S
Fe286 O300 1.996 . S
Fe287 O288 1.918 . S
Fe287 O295 1.997 . S
Fe287 O298 1.996 . S
Fe287 O302 1.976 . S
Fe287 O305 2.002 . S
O288 Fe286 1.918 . S
O288 Fe287 1.918 . S
O288 Fe289 1.918 . S
Fe289 O288 1.918 . S
Fe289 O290 2.002 . S
Fe289 O299 1.976 . S
Fe289 O303 1.996 . S
Fe289 O306 1.997 . S
O290 Fe289 2.002 . S
O290 C307 1.295 . S
O291 Fe286 1.997 . S
O291 C307 1.235 . S
O292 Fe286 2.002 . S
O292 C293 1.295 . S
C293 O292 1.295 . S
C293 O295 1.235 . S
C294 O299 1.287 . S
C294 O300 1.255 . S
O295 Fe287 1.997 . S
O295 C293 1.235 . S
C296 O302 1.287 . S
C296 O303 1.255 . S
O297 Fe286 1.976 . S
O297 C304 1.287 . S
O298 Fe287 1.996 . S
O298 C304 1.255 . S
O299 Fe289 1.976 . S
O299 C294 1.287 . S
O300 Fe286 1.996 . S
O300 C294 1.255 . S
C301 O305 1.295 . S
C301 O306 1.235 . S
O302 Fe287 1.976 . S
O302 C296 1.287 . S
O303 Fe289 1.996 . S
O303 C296 1.255 . S
C304 O297 1.287 . S
C304 O298 1.255 . S
O305 Fe287 2.002 . S
O305 C301 1.295 . S
O306 Fe289 1.997 . S
O306 C301 1.235 . S
C307 O290 1.295 . S
C307 O291 1.235 . S
Fe308 O310 1.918 . S
Fe308 O313 1.997 . S
Fe308 O314 2.002 . S
Fe308 O319 1.976 . S
Fe308 O322 1.996 . S
Fe309 O310 1.918 . S
Fe309 O317 1.997 . S
Fe309 O320 1.996 . S
Fe309 O324 1.976 . S
Fe309 O327 2.002 . S
O310 Fe308 1.918 . S
O310 Fe309 1.918 . S
O310 Fe311 1.918 . S
Fe311 O310 1.918 . S
Fe311 O312 2.002 . S
Fe311 O321 1.976 . S
Fe311 O325 1.996 . S
Fe311 O328 1.997 . S
O312 Fe311 2.002 . S
O312 C329 1.295 . S
O313 Fe308 1.997 . S
O313 C329 1.235 . S
O314 Fe308 2.002 . S
O314 C315 1.295 . S
C315 O314 1.295 . S
C315 O317 1.235 . S
C316 O321 1.287 . S
C316 O322 1.255 . S
O317 Fe309 1.997 . S
O317 C315 1.235 . S
C318 O324 1.287 . S
C318 O325 1.255 . S
O319 Fe308 1.976 . S
O319 C326 1.287 . S
O320 Fe309 1.996 . S
O320 C326 1.255 . S
O321 Fe311 1.976 . S
O321 C316 1.287 . S
O322 Fe308 1.996 . S
O322 C316 1.255 . S
C323 O327 1.295 . S
C323 O328 1.235 . S
O324 Fe309 1.976 . S
O324 C318 1.287 . S
O325 Fe311 1.996 . S
O325 C318 1.255 . S
C326 O319 1.287 . S
C326 O320 1.255 . S
O327 Fe309 2.002 . S
O327 C323 1.295 . S
O328 Fe311 1.997 . S
O328 C323 1.235 . S
C329 O312 1.295 . S
C329 O313 1.235 . S
Fe330 O332 1.918 . S
Fe330 O335 1.997 . S
Fe330 O336 2.002 . S
Fe330 O341 1.976 . S
Fe330 O344 1.996 . S
Fe331 O332 1.918 . S
Fe331 O339 1.997 . S
Fe331 O342 1.996 . S
Fe331 O346 1.976 . S
Fe331 O349 2.002 . S
O332 Fe330 1.918 . S
O332 Fe331 1.918 . S
O332 Fe333 1.918 . S
Fe333 O332 1.918 . S
Fe333 O334 2.002 . S
Fe333 O343 1.976 . S
Fe333 O347 1.996 . S
Fe333 O350 1.997 . S
O334 Fe333 2.002 . S
O334 C351 1.295 . S
O335 Fe330 1.997 . S
O335 C351 1.235 . S
O336 Fe330 2.002 . S
O336 C337 1.295 . S
C337 O336 1.295 . S
C337 O339 1.235 . S
C338 O343 1.287 . S
C338 O344 1.255 . S
O339 Fe331 1.997 . S
O339 C337 1.235 . S
C340 O346 1.287 . S
C340 O347 1.255 . S
O341 Fe330 1.976 . S
O341 C348 1.287 . S
O342 Fe331 1.996 . S
O342 C348 1.255 . S
O343 Fe333 1.976 . S
O343 C338 1.287 . S
O344 Fe330 1.996 . S
O344 C338 1.255 . S
C345 O349 1.295 . S
C345 O350 1.235 . S
O346 Fe331 1.976 . S
O346 C340 1.287 . S
O347 Fe333 1.996 . S
O347 C340 1.255 . S
C348 O341 1.287 . S
C348 O342 1.255 . S
O349 Fe331 2.002 . S
O349 C345 1.295 . S
O350 Fe333 1.997 . S
O350 C345 1.235 . S
C351 O334 1.295 . S
C351 O335 1.235 . S
C352 C353 1.349 . S
C352 C354 1.327 . S
C352 H377 0.950 . S
C353 C352 1.349 . S
C353 C369 1.349 . S
C354 C352 1.327 . S
C354 C373 1.429 . S
C354 H378 0.950 . S
C355 C372 1.574 . S
C355 C374 1.368 . S
C355 H379 0.949 . S
H356 C360 0.949 . S
C357 C358 1.349 . S
C357 C359 1.327 . S
C357 H380 0.950 . S
C358 C357 1.349 . S
C358 C370 1.349 . S
C359 C357 1.327 . S
C359 C375 1.429 1_565 S
C359 H381 0.950 . S
C360 H356 0.949 . S
C360 C368 1.574 . S
C360 C376 1.368 . S
H361 C369 0.950 . S
H362 C367 0.950 . S
H363 C368 0.949 . S
H364 C370 0.950 . S
H365 C371 0.950 1_545 S
H366 C372 0.949 . S
C367 H362 0.950 . S
C367 C369 1.327 . S
C367 C373 1.429 . S
C368 C360 1.574 . S
C368 H363 0.949 . S
C368 C374 1.368 . S
C369 C353 1.349 . S
C369 H361 0.950 . S
C369 C367 1.327 . S
C370 C358 1.349 . S
C370 H364 0.950 . S
C370 C371 1.327 . S
C371 H365 0.950 1_565 S
C371 C370 1.327 . S
C371 C375 1.429 1_565 S
C372 C355 1.574 . S
C372 H366 0.949 . S
C372 C376 1.368 . S
C373 C354 1.429 . S
C373 C367 1.429 . S
C373 C374 1.523 . S
C374 C355 1.368 . S
C374 C368 1.368 . S
C374 C373 1.523 . S
C375 C359 1.429 1_545 S
C375 C371 1.429 1_545 S
C375 C376 1.523 . S
C376 C360 1.368 . S
C376 C372 1.368 . S
C376 C375 1.523 . S
H377 C352 0.950 . S
H378 C354 0.950 . S
H379 C355 0.949 . S
H380 C357 0.950 . S
H381 C359 0.950 . S
C382 C383 1.349 . S
C382 C384 1.327 . S
C382 H407 0.950 . S
C383 C382 1.349 . S
C383 C399 1.349 . S
C384 C382 1.327 . S
C384 C403 1.429 . S
C384 H408 0.950 . S
C385 C402 1.574 . S
C385 C404 1.368 . S
C385 H409 0.949 . S
H386 C390 0.949 . S
C387 C388 1.349 . S
C387 C389 1.327 . S
C387 H410 0.950 . S
C388 C387 1.349 . S
C388 C400 1.349 . S
C389 C387 1.327 . S
C389 C405 1.429 1_545 S
C389 H411 0.950 . S
C390 H386 0.949 . S
C390 C398 1.574 . S
C390 C406 1.368 . S
H391 C399 0.950 . S
H392 C397 0.950 . S
H393 C398 0.949 . S
H394 C400 0.950 . S
H395 C401 0.950 1_565 S
H396 C402 0.949 . S
C397 H392 0.950 . S
C397 C399 1.327 . S
C397 C403 1.429 . S
C398 C390 1.574 . S
C398 H393 0.949 . S
C398 C404 1.368 . S
C399 C383 1.349 . S
C399 H391 0.950 . S
C399 C397 1.327 . S
C400 C388 1.349 . S
C400 H394 0.950 . S
C400 C401 1.327 . S
C401 H395 0.950 1_545 S
C401 C400 1.327 . S
C401 C405 1.429 1_545 S
C402 C385 1.574 . S
C402 H396 0.949 . S
C402 C406 1.368 . S
C403 C384 1.429 . S
C403 C397 1.429 . S
C403 C404 1.523 . S
C404 C385 1.368 . S
C404 C398 1.368 . S
C404 C403 1.523 . S
C405 C389 1.429 1_565 S
C405 C401 1.429 1_565 S
C405 C406 1.523 . S
C406 C390 1.368 . S
C406 C402 1.368 . S
C406 C405 1.523 . S
H407 C382 0.950 . S
H408 C384 0.950 . S
H409 C385 0.949 . S
H410 C387 0.950 . S
H411 C389 0.950 . S
C412 C413 1.349 . S
C412 C414 1.327 . S
C412 H437 0.950 . S
C413 C412 1.349 . S
C413 C429 1.349 . S
C414 C412 1.327 . S
C414 C433 1.429 . S
C414 H438 0.950 . S
C415 C432 1.574 . S
C415 C434 1.368 . S
C415 H439 0.949 . S
H416 C420 0.949 . S
C417 C418 1.349 . S
C417 C419 1.327 . S
C417 H440 0.950 . S
C418 C417 1.349 . S
C418 C430 1.349 . S
C419 C417 1.327 . S
C419 C435 1.429 1_545 S
C419 H441 0.950 1_545 S
C420 H416 0.949 . S
C420 C428 1.574 . S
C420 C436 1.368 . S
H421 C429 0.950 . S
H422 C427 0.950 . S
H423 C428 0.949 . S
H424 C430 0.950 . S
H425 C431 0.950 . S
H426 C432 0.949 . S
C427 H422 0.950 . S
C427 C429 1.327 . S
C427 C433 1.429 . S
C428 C420 1.574 . S
C428 H423 0.949 . S
C428 C434 1.368 . S
C429 C413 1.349 . S
C429 H421 0.950 . S
C429 C427 1.327 . S
C430 C418 1.349 . S
C430 H424 0.950 . S
C430 C431 1.327 . S
C431 H425 0.950 . S
C431 C430 1.327 . S
C431 C435 1.429 1_545 S
C432 C415 1.574 . S
C432 H426 0.949 . S
C432 C436 1.368 . S
C433 C414 1.429 . S
C433 C427 1.429 . S
C433 C434 1.523 . S
C434 C415 1.368 . S
C434 C428 1.368 . S
C434 C433 1.523 . S
C435 C419 1.429 1_565 S
C435 C431 1.429 1_565 S
C435 C436 1.523 . S
C436 C420 1.368 . S
C436 C432 1.368 . S
C436 C435 1.523 . S
H437 C412 0.950 . S
H438 C414 0.950 . S
H439 C415 0.949 . S
H440 C417 0.950 . S
H441 C419 0.950 1_565 S
C442 C443 1.349 . S
C442 C444 1.327 . S
C442 H467 0.950 . S
C443 C442 1.349 . S
C443 C459 1.349 . S
C444 C442 1.327 . S
C444 C463 1.429 1_565 S
C444 H468 0.950 1_565 S
C445 C462 1.574 . S
C445 C464 1.368 . S
C445 H469 0.949 . S
H446 C450 0.949 . S
C447 C448 1.349 . S
C447 C449 1.327 . S
C447 H470 0.950 . S
C448 C447 1.349 . S
C448 C460 1.349 . S
C449 C447 1.327 . S
C449 C465 1.429 . S
C449 H471 0.950 . S
C450 H446 0.949 . S
C450 C458 1.574 . S
C450 C466 1.368 . S
H451 C459 0.950 . S
H452 C457 0.950 . S
H453 C458 0.949 . S
H454 C460 0.950 . S
H455 C461 0.950 . S
H456 C462 0.949 . S
C457 H452 0.950 . S
C457 C459 1.327 . S
C457 C463 1.429 1_565 S
C458 C450 1.574 . S
C458 H453 0.949 . S
C458 C464 1.368 . S
C459 C443 1.349 . S
C459 H451 0.950 . S
C459 C457 1.327 . S
C460 C448 1.349 . S
C460 H454 0.950 . S
C460 C461 1.327 . S
C461 H455 0.950 . S
C461 C460 1.327 . S
C461 C465 1.429 . S
C462 C445 1.574 . S
C462 H456 0.949 . S
C462 C466 1.368 . S
C463 C444 1.429 1_545 S
C463 C457 1.429 1_545 S
C463 C464 1.523 . S
C464 C445 1.368 . S
C464 C458 1.368 . S
C464 C463 1.523 . S
C465 C449 1.429 . S
C465 C461 1.429 . S
C465 C466 1.523 . S
C466 C450 1.368 . S
C466 C462 1.368 . S
C466 C465 1.523 . S
H467 C442 0.950 . S
H468 C444 0.950 1_545 S
H469 C445 0.949 . S
H470 C447 0.950 . S
H471 C449 0.950 . S
C472 C473 1.349 . S
C472 C474 1.327 . S
C472 H497 0.950 . S
C473 C472 1.349 . S
C473 C489 1.349 . S
C474 C472 1.327 . S
C474 C493 1.429 1_545 S
C474 H498 0.950 1_545 S
C475 C492 1.574 . S
C475 C494 1.368 . S
C475 H499 0.949 . S
H476 C480 0.949 . S
C477 C478 1.349 . S
C477 C479 1.327 . S
C477 H500 0.950 . S
C478 C477 1.349 . S
C478 C490 1.349 . S
C479 C477 1.327 . S
C479 C495 1.429 . S
C479 H501 0.950 . S
C480 H476 0.949 . S
C480 C488 1.574 . S
C480 C496 1.368 . S
H481 C489 0.950 . S
H482 C487 0.950 . S
H483 C488 0.949 . S
H484 C490 0.950 . S
H485 C491 0.950 . S
H486 C492 0.949 . S
C487 H482 0.950 . S
C487 C489 1.327 . S
C487 C493 1.429 1_545 S
C488 C480 1.574 . S
C488 H483 0.949 . S
C488 C494 1.368 . S
C489 C473 1.349 . S
C489 H481 0.950 . S
C489 C487 1.327 . S
C490 C478 1.349 . S
C490 H484 0.950 . S
C490 C491 1.327 . S
C491 H485 0.950 . S
C491 C490 1.327 . S
C491 C495 1.429 . S
C492 C475 1.574 . S
C492 H486 0.949 . S
C492 C496 1.368 . S
C493 C474 1.429 1_565 S
C493 C487 1.429 1_565 S
C493 C494 1.523 . S
C494 C475 1.368 . S
C494 C488 1.368 . S
C494 C493 1.523 . S
C495 C479 1.429 . S
C495 C491 1.429 . S
C495 C496 1.523 . S
C496 C480 1.368 . S
C496 C492 1.368 . S
C496 C495 1.523 . S
H497 C472 0.950 . S
H498 C474 0.950 1_565 S
H499 C475 0.949 . S
H500 C477 0.950 . S
H501 C479 0.950 . S
C502 C503 1.349 . S
C502 C504 1.327 . S
C502 H527 0.950 . S
C503 C502 1.349 . S
C503 C519 1.349 . S
C504 C502 1.327 . S
C504 C523 1.429 1_565 S
C504 H528 0.950 1_565 S
C505 C522 1.574 . S
C505 C524 1.368 . S
C505 H529 0.949 . S
H506 C510 0.949 . S
C507 C508 1.349 . S
C507 C509 1.327 . S
C507 H530 0.950 . S
C508 C507 1.349 . S
C508 C520 1.349 . S
C509 C507 1.327 . S
C509 C525 1.429 . S
C509 H531 0.950 . S
C510 H506 0.949 . S
C510 C518 1.574 . S
C510 C526 1.368 . S
H511 C519 0.950 . S
H512 C517 0.950 . S
H513 C518 0.949 . S
H514 C520 0.950 . S
H515 C521 0.950 . S
H516 C522 0.949 . S
C517 H512 0.950 . S
C517 C519 1.327 . S
C517 C523 1.429 1_565 S
C518 C510 1.574 . S
C518 H513 0.949 . S
C518 C524 1.368 . S
C519 C503 1.349 . S
C519 H511 0.950 . S
C519 C517 1.327 . S
C520 C508 1.349 . S
C520 H514 0.950 . S
C520 C521 1.327 . S
C521 H515 0.950 . S
C521 C520 1.327 . S
C521 C525 1.429 . S
C522 C505 1.574 . S
C522 H516 0.949 . S
C522 C526 1.368 . S
C523 C504 1.429 1_545 S
C523 C517 1.429 1_545 S
C523 C524 1.523 . S
C524 C505 1.368 . S
C524 C518 1.368 . S
C524 C523 1.523 . S
C525 C509 1.429 . S
C525 C521 1.429 . S
C525 C526 1.523 . S
C526 C510 1.368 . S
C526 C522 1.368 . S
C526 C525 1.523 . S
H527 C502 0.950 . S
H528 C504 0.950 1_545 S
H529 C505 0.949 . S
H530 C507 0.950 . S
H531 C509 0.950 . S
C532 C533 1.349 . S
C532 C534 1.327 . S
C532 H557 0.950 . S
C533 C532 1.349 . S
C533 C549 1.349 . S
C534 C532 1.327 . S
C534 C553 1.429 1_565 S
C534 H558 0.950 1_565 S
C535 C552 1.574 . S
C535 C554 1.368 . S
C535 H559 0.949 . S
H536 C540 0.949 . S
C537 C538 1.349 . S
C537 C539 1.327 . S
C537 H560 0.950 . S
C538 C537 1.349 . S
C538 C550 1.349 . S
C539 C537 1.327 . S
C539 C555 1.429 . S
C539 H561 0.950 . S
C540 H536 0.949 . S
C540 C548 1.574 . S
C540 C556 1.368 . S
H541 C549 0.950 . S
H542 C547 0.950 . S
H543 C548 0.949 . S
H544 C550 0.950 . S
H545 C551 0.950 . S
H546 C552 0.949 . S
C547 H542 0.950 . S
C547 C549 1.327 . S
C547 C553 1.429 1_565 S
C548 C540 1.574 . S
C548 H543 0.949 . S
C548 C554 1.368 . S
C549 C533 1.349 . S
C549 H541 0.950 . S
C549 C547 1.327 . S
C550 C538 1.349 . S
C550 H544 0.950 . S
C550 C551 1.327 . S
C551 H545 0.950 . S
C551 C550 1.327 . S
C551 C555 1.429 . S
C552 C535 1.574 . S
C552 H546 0.949 . S
C552 C556 1.368 . S
C553 C534 1.429 1_545 S
C553 C547 1.429 1_545 S
C553 C554 1.523 . S
C554 C535 1.368 . S
C554 C548 1.368 . S
C554 C553 1.523 . S
C555 C539 1.429 . S
C555 C551 1.429 . S
C555 C556 1.523 . S
C556 C540 1.368 . S
C556 C552 1.368 . S
C556 C555 1.523 . S
H557 C532 0.950 . S
H558 C534 0.950 1_545 S
H559 C535 0.949 . S
H560 C537 0.950 . S
H561 C539 0.950 . S
C562 C563 1.349 . S
C562 C564 1.327 . S
C562 H587 0.950 . S
C563 C562 1.349 . S
C563 C579 1.349 . S
C564 C562 1.327 . S
C564 C583 1.429 1_545 S
C564 H588 0.950 1_545 S
C565 C582 1.574 . S
C565 C584 1.368 . S
C565 H589 0.949 . S
H566 C570 0.949 . S
C567 C568 1.349 . S
C567 C569 1.327 . S
C567 H590 0.950 . S
C568 C567 1.349 . S
C568 C580 1.349 . S
C569 C567 1.327 . S
C569 C585 1.429 . S
C569 H591 0.950 . S
C570 H566 0.949 . S
C570 C578 1.574 . S
C570 C586 1.368 . S
H571 C579 0.950 . S
H572 C577 0.950 . S
H573 C578 0.949 . S
H574 C580 0.950 . S
H575 C581 0.950 . S
H576 C582 0.949 . S
C577 H572 0.950 . S
C577 C579 1.327 . S
C577 C583 1.429 1_545 S
C578 C570 1.574 . S
C578 H573 0.949 . S
C578 C584 1.368 . S
C579 C563 1.349 . S
C579 H571 0.950 . S
C579 C577 1.327 . S
C580 C568 1.349 . S
C580 H574 0.950 . S
C580 C581 1.327 . S
C581 H575 0.950 . S
C581 C580 1.327 . S
C581 C585 1.429 . S
C582 C565 1.574 . S
C582 H576 0.949 . S
C582 C586 1.368 . S
C583 C564 1.429 1_565 S
C583 C577 1.429 1_565 S
C583 C584 1.523 . S
C584 C565 1.368 . S
C584 C578 1.368 . S
C584 C583 1.523 . S
C585 C569 1.429 . S
C585 C581 1.429 . S
C585 C586 1.523 . S
C586 C570 1.368 . S
C586 C582 1.368 . S
C586 C585 1.523 . S
H587 C562 0.950 . S
H588 C564 0.950 1_565 S
H589 C565 0.949 . S
H590 C567 0.950 . S
H591 C569 0.950 . S
C592 C593 1.349 . S
C592 C594 1.327 . S
C592 H617 0.950 . S
C593 C592 1.349 . S
C593 C609 1.349 . S
C594 C592 1.327 . S
C594 C613 1.429 . S
C594 H618 0.950 . S
C595 C612 1.574 . S
C595 C614 1.368 . S
C595 H619 0.949 . S
H596 C600 0.949 . S
C597 C598 1.349 . S
C597 C599 1.327 . S
C597 H620 0.950 . S
C598 C597 1.349 . S
C598 C610 1.349 . S
C599 C597 1.327 . S
C599 C615 1.429 . S
C599 H621 0.950 . S
C600 H596 0.949 . S
C600 C608 1.574 . S
C600 C616 1.368 . S
H601 C609 0.950 . S
H602 C607 0.950 . S
H603 C608 0.949 . S
H604 C610 0.950 . S
H605 C611 0.950 . S
H606 C612 0.949 . S
C607 H602 0.950 . S
C607 C609 1.327 . S
C607 C613 1.429 . S
C608 C600 1.574 . S
C608 H603 0.949 . S
C608 C614 1.368 . S
C609 C593 1.349 . S
C609 H601 0.950 . S
C609 C607 1.327 . S
C610 C598 1.349 . S
C610 H604 0.950 . S
C610 C611 1.327 . S
C611 H605 0.950 . S
C611 C610 1.327 . S
C611 C615 1.429 . S
C612 C595 1.574 . S
C612 H606 0.949 . S
C612 C616 1.368 . S
C613 C594 1.429 . S
C613 C607 1.429 . S
C613 C614 1.523 . S
C614 C595 1.368 . S
C614 C608 1.368 . S
C614 C613 1.523 . S
C615 C599 1.429 . S
C615 C611 1.429 . S
C615 C616 1.523 . S
C616 C600 1.368 . S
C616 C612 1.368 . S
C616 C615 1.523 . S
H617 C592 0.950 . S
H618 C594 0.950 . S
H619 C595 0.949 . S
H620 C597 0.950 . S
H621 C599 0.950 . S
C622 C623 1.349 . S
C622 C624 1.327 . S
C622 H647 0.950 . S
C623 C622 1.349 . S
C623 C639 1.349 . S
C624 C622 1.327 . S
C624 C643 1.429 . S
C624 H648 0.950 . S
C625 C642 1.574 . S
C625 C644 1.368 . S
C625 H649 0.949 . S
H626 C630 0.949 . S
C627 C628 1.349 . S
C627 C629 1.327 . S
C627 H650 0.950 . S
C628 C627 1.349 . S
C628 C640 1.349 . S
C629 C627 1.327 . S
C629 C645 1.429 . S
C629 H651 0.950 . S
C630 H626 0.949 . S
C630 C638 1.574 . S
C630 C646 1.368 . S
H631 C639 0.950 . S
H632 C637 0.950 . S
H633 C638 0.949 . S
H634 C640 0.950 . S
H635 C641 0.950 . S
H636 C642 0.949 . S
C637 H632 0.950 . S
C637 C639 1.327 . S
C637 C643 1.429 . S
C638 C630 1.574 . S
C638 H633 0.949 . S
C638 C644 1.368 . S
C639 C623 1.349 . S
C639 H631 0.950 . S
C639 C637 1.327 . S
C640 C628 1.349 . S
C640 H634 0.950 . S
C640 C641 1.327 . S
C641 H635 0.950 . S
C641 C640 1.327 . S
C641 C645 1.429 . S
C642 C625 1.574 . S
C642 H636 0.949 . S
C642 C646 1.368 . S
C643 C624 1.429 . S
C643 C637 1.429 . S
C643 C644 1.523 . S
C644 C625 1.368 . S
C644 C638 1.368 . S
C644 C643 1.523 . S
C645 C629 1.429 . S
C645 C641 1.429 . S
C645 C646 1.523 . S
C646 C630 1.368 . S
C646 C642 1.368 . S
C646 C645 1.523 . S
H647 C622 0.950 . S
H648 C624 0.950 . S
H649 C625 0.949 . S
H650 C627 0.950 . S
H651 C629 0.950 . S
C652 C653 1.349 . S
C652 C654 1.327 . S
C652 H677 0.950 . S
C653 C652 1.349 . S
C653 C669 1.349 . S
C654 C652 1.327 . S
C654 C673 1.429 . S
C654 H678 0.950 . S
C655 C672 1.574 . S
C655 C674 1.368 . S
C655 H679 0.949 . S
H656 C660 0.949 . S
C657 C658 1.349 . S
C657 C659 1.327 . S
C657 H680 0.950 . S
C658 C657 1.349 . S
C658 C670 1.349 . S
C659 C657 1.327 . S
C659 C675 1.429 . S
C659 H681 0.950 . S
C660 H656 0.949 . S
C660 C668 1.574 . S
C660 C676 1.368 . S
H661 C669 0.950 . S
H662 C667 0.950 . S
H663 C668 0.949 . S
H664 C670 0.950 . S
H665 C671 0.950 . S
H666 C672 0.949 . S
C667 H662 0.950 . S
C667 C669 1.327 . S
C667 C673 1.429 . S
C668 C660 1.574 . S
C668 H663 0.949 . S
C668 C674 1.368 . S
C669 C653 1.349 . S
C669 H661 0.950 . S
C669 C667 1.327 . S
C670 C658 1.349 . S
C670 H664 0.950 . S
C670 C671 1.327 . S
C671 H665 0.950 . S
C671 C670 1.327 . S
C671 C675 1.429 . S
C672 C655 1.574 . S
C672 H666 0.949 . S
C672 C676 1.368 . S
C673 C654 1.429 . S
C673 C667 1.429 . S
C673 C674 1.523 . S
C674 C655 1.368 . S
C674 C668 1.368 . S
C674 C673 1.523 . S
C675 C659 1.429 . S
C675 C671 1.429 . S
C675 C676 1.523 . S
C676 C660 1.368 . S
C676 C672 1.368 . S
C676 C675 1.523 . S
H677 C652 0.950 . S
H678 C654 0.950 . S
H679 C655 0.949 . S
H680 C657 0.950 . S
H681 C659 0.950 . S
C682 C683 1.349 . S
C682 C684 1.327 . S
C682 H707 0.950 . S
C683 C682 1.349 . S
C683 C699 1.349 . S
C684 C682 1.327 . S
C684 C703 1.429 . S
C684 H708 0.950 . S
C685 C702 1.574 . S
C685 C704 1.368 . S
C685 H709 0.949 . S
H686 C690 0.949 . S
C687 C688 1.349 . S
C687 C689 1.327 . S
C687 H710 0.950 . S
C688 C687 1.349 . S
C688 C700 1.349 . S
C689 C687 1.327 . S
C689 C705 1.429 . S
C689 H711 0.950 . S
C690 H686 0.949 . S
C690 C698 1.574 . S
C690 C706 1.368 . S
H691 C699 0.950 . S
H692 C697 0.950 . S
H693 C698 0.949 . S
H694 C700 0.950 . S
H695 C701 0.950 . S
H696 C702 0.949 . S
C697 H692 0.950 . S
C697 C699 1.327 . S
C697 C703 1.429 . S
C698 C690 1.574 . S
C698 H693 0.949 . S
C698 C704 1.368 . S
C699 C683 1.349 . S
C699 H691 0.950 . S
C699 C697 1.327 . S
C700 C688 1.349 . S
C700 H694 0.950 . S
C700 C701 1.327 . S
C701 H695 0.950 . S
C701 C700 1.327 . S
C701 C705 1.429 . S
C702 C685 1.574 . S
C702 H696 0.949 . S
C702 C706 1.368 . S
C703 C684 1.429 . S
C703 C697 1.429 . S
C703 C704 1.523 . S
C704 C685 1.368 . S
C704 C698 1.368 . S
C704 C703 1.523 . S
C705 C689 1.429 . S
C705 C701 1.429 . S
C705 C706 1.523 . S
C706 C690 1.368 . S
C706 C702 1.368 . S
C706 C705 1.523 . S
H707 C682 0.950 . S
H708 C684 0.950 . S
H709 C685 0.949 . S
H710 C687 0.950 . S
H711 C689 0.950 . S
C712 C713 1.349 . S
C712 C714 1.327 . S
C712 H737 0.950 . S
C713 C712 1.349 . S
C713 C729 1.349 . S
C714 C712 1.327 . S
C714 C733 1.429 . S
C714 H738 0.950 . S
C715 C732 1.574 . S
C715 C734 1.368 . S
C715 H739 0.949 . S
H716 C720 0.949 . S
C717 C718 1.349 . S
C717 C719 1.327 . S
C717 H740 0.950 . S
C718 C717 1.349 . S
C718 C730 1.349 . S
C719 C717 1.327 . S
C719 C735 1.429 . S
C719 H741 0.950 . S
C720 H716 0.949 . S
C720 C728 1.574 . S
C720 C736 1.368 . S
H721 C729 0.950 . S
H722 C727 0.950 . S
H723 C728 0.949 . S
H724 C730 0.950 . S
H725 C731 0.950 . S
H726 C732 0.949 . S
C727 H722 0.950 . S
C727 C729 1.327 . S
C727 C733 1.429 . S
C728 C720 1.574 . S
C728 H723 0.949 . S
C728 C734 1.368 . S
C729 C713 1.349 . S
C729 H721 0.950 . S
C729 C727 1.327 . S
C730 C718 1.349 . S
C730 H724 0.950 . S
C730 C731 1.327 . S
C731 H725 0.950 . S
C731 C730 1.327 . S
C731 C735 1.429 . S
C732 C715 1.574 . S
C732 H726 0.949 . S
C732 C736 1.368 . S
C733 C714 1.429 . S
C733 C727 1.429 . S
C733 C734 1.523 . S
C734 C715 1.368 . S
C734 C728 1.368 . S
C734 C733 1.523 . S
C735 C719 1.429 . S
C735 C731 1.429 . S
C735 C736 1.523 . S
C736 C720 1.368 . S
C736 C732 1.368 . S
C736 C735 1.523 . S
H737 C712 0.950 . S
H738 C714 0.950 . S
H739 C715 0.949 . S
H740 C717 0.950 . S
H741 C719 0.950 . S
C742 C743 1.349 . S
C742 C744 1.327 . S
C742 H767 0.950 . S
C743 C742 1.349 . S
C743 C759 1.349 . S
C744 C742 1.327 . S
C744 C763 1.429 . S
C744 H768 0.950 . S
C745 C762 1.574 . S
C745 C764 1.368 . S
C745 H769 0.949 . S
H746 C750 0.949 . S
C747 C748 1.349 . S
C747 C749 1.327 . S
C747 H770 0.950 . S
C748 C747 1.349 . S
C748 C760 1.349 . S
C749 C747 1.327 . S
C749 C765 1.429 . S
C749 H771 0.950 . S
C750 H746 0.949 . S
C750 C758 1.574 . S
C750 C766 1.368 . S
H751 C759 0.950 . S
H752 C757 0.950 . S
H753 C758 0.949 . S
H754 C760 0.950 . S
H755 C761 0.950 . S
H756 C762 0.949 . S
C757 H752 0.950 . S
C757 C759 1.327 . S
C757 C763 1.429 . S
C758 C750 1.574 . S
C758 H753 0.949 . S
C758 C764 1.368 . S
C759 C743 1.349 . S
C759 H751 0.950 . S
C759 C757 1.327 . S
C760 C748 1.349 . S
C760 H754 0.950 . S
C760 C761 1.327 . S
C761 H755 0.950 . S
C761 C760 1.327 . S
C761 C765 1.429 . S
C762 C745 1.574 . S
C762 H756 0.949 . S
C762 C766 1.368 . S
C763 C744 1.429 . S
C763 C757 1.429 . S
C763 C764 1.523 . S
C764 C745 1.368 . S
C764 C758 1.368 . S
C764 C763 1.523 . S
C765 C749 1.429 . S
C765 C761 1.429 . S
C765 C766 1.523 . S
C766 C750 1.368 . S
C766 C762 1.368 . S
C766 C765 1.523 . S
H767 C742 0.950 . S
H768 C744 0.950 . S
H769 C745 0.949 . S
H770 C747 0.950 . S
H771 C749 0.950 . S
C772 C773 1.349 . S
C772 C774 1.327 . S
C772 H797 0.950 . S
C773 C772 1.349 . S
C773 C789 1.349 . S
C774 C772 1.327 . S
C774 C793 1.429 . S
C774 H798 0.950 . S
C775 C792 1.574 . S
C775 C794 1.368 . S
C775 H799 0.949 . S
H776 C780 0.949 . S
C777 C778 1.349 . S
C777 C779 1.327 . S
C777 H800 0.950 . S
C778 C777 1.349 . S
C778 C790 1.349 . S
C779 C777 1.327 . S
C779 C795 1.429 . S
C779 H801 0.950 . S
C780 H776 0.949 . S
C780 C788 1.574 . S
C780 C796 1.368 . S
H781 C789 0.950 . S
H782 C787 0.950 . S
H783 C788 0.949 . S
H784 C790 0.950 . S
H785 C791 0.950 . S
H786 C792 0.949 . S
C787 H782 0.950 . S
C787 C789 1.327 . S
C787 C793 1.429 . S
C788 C780 1.574 . S
C788 H783 0.949 . S
C788 C794 1.368 . S
C789 C773 1.349 . S
C789 H781 0.950 . S
C789 C787 1.327 . S
C790 C778 1.349 . S
C790 H784 0.950 . S
C790 C791 1.327 . S
C791 H785 0.950 . S
C791 C790 1.327 . S
C791 C795 1.429 . S
C792 C775 1.574 . S
C792 H786 0.949 . S
C792 C796 1.368 . S
C793 C774 1.429 . S
C793 C787 1.429 . S
C793 C794 1.523 . S
C794 C775 1.368 . S
C794 C788 1.368 . S
C794 C793 1.523 . S
C795 C779 1.429 . S
C795 C791 1.429 . S
C795 C796 1.523 . S
C796 C780 1.368 . S
C796 C792 1.368 . S
C796 C795 1.523 . S
H797 C772 0.950 . S
H798 C774 0.950 . S
H799 C775 0.949 . S
H800 C777 0.950 . S
H801 C779 0.950 . S
C802 C803 1.349 . S
C802 C804 1.327 . S
C802 H827 0.950 . S
C803 C802 1.349 . S
C803 C819 1.349 . S
C804 C802 1.327 . S
C804 C823 1.429 . S
C804 H828 0.950 . S
C805 C822 1.574 . S
C805 C824 1.368 . S
C805 H829 0.949 . S
H806 C810 0.949 . S
C807 C808 1.349 . S
C807 C809 1.327 . S
C807 H830 0.950 . S
C808 C807 1.349 . S
C808 C820 1.349 . S
C809 C807 1.327 . S
C809 C825 1.429 . S
C809 H831 0.950 . S
C810 H806 0.949 . S
C810 C818 1.574 . S
C810 C826 1.368 . S
H811 C819 0.950 . S
H812 C817 0.950 . S
H813 C818 0.949 . S
H814 C820 0.950 . S
H815 C821 0.950 . S
H816 C822 0.949 . S
C817 H812 0.950 . S
C817 C819 1.327 . S
C817 C823 1.429 . S
C818 C810 1.574 . S
C818 H813 0.949 . S
C818 C824 1.368 . S
C819 C803 1.349 . S
C819 H811 0.950 . S
C819 C817 1.327 . S
C820 C808 1.349 . S
C820 H814 0.950 . S
C820 C821 1.327 . S
C821 H815 0.950 . S
C821 C820 1.327 . S
C821 C825 1.429 . S
C822 C805 1.574 . S
C822 H816 0.949 . S
C822 C826 1.368 . S
C823 C804 1.429 . S
C823 C817 1.429 . S
C823 C824 1.523 . S
C824 C805 1.368 . S
C824 C818 1.368 . S
C824 C823 1.523 . S
C825 C809 1.429 . S
C825 C821 1.429 . S
C825 C826 1.523 . S
C826 C810 1.368 . S
C826 C822 1.368 . S
C826 C825 1.523 . S
H827 C802 0.950 . S
H828 C804 0.950 . S
H829 C805 0.949 . S
H830 C807 0.950 . S
H831 C809 0.950 . S
C832 C833 1.349 . S
C832 C834 1.327 . S
C832 H857 0.950 . S
C833 C832 1.349 . S
C833 C849 1.349 . S
C834 C832 1.327 . S
C834 C853 1.429 . S
C834 H858 0.950 . S
C835 C852 1.574 1_554 S
C835 C854 1.368 . S
C835 H859 0.949 . S
H836 C840 0.949 . S
C837 C838 1.349 . S
C837 C839 1.327 . S
C837 H860 0.950 . S
C838 C837 1.349 . S
C838 C850 1.349 . S
C839 C837 1.327 . S
C839 C855 1.429 . S
C839 H861 0.950 . S
C840 H836 0.949 . S
C840 C848 1.574 1_556 S
C840 C856 1.368 . S
H841 C849 0.950 . S
H842 C847 0.950 . S
H843 C848 0.949 . S
H844 C850 0.950 . S
H845 C851 0.950 . S
H846 C852 0.949 . S
C847 H842 0.950 . S
C847 C849 1.327 . S
C847 C853 1.429 . S
C848 C840 1.574 1_554 S
C848 H843 0.949 . S
C848 C854 1.368 . S
C849 C833 1.349 . S
C849 H841 0.950 . S
C849 C847 1.327 . S
C850 C838 1.349 . S
C850 H844 0.950 . S
C850 C851 1.327 . S
C851 H845 0.950 . S
C851 C850 1.327 . S
C851 C855 1.429 . S
C852 C835 1.574 1_556 S
C852 H846 0.949 . S
C852 C856 1.368 . S
C853 C834 1.429 . S
C853 C847 1.429 . S
C853 C854 1.523 . S
C854 C835 1.368 . S
C854 C848 1.368 . S
C854 C853 1.523 . S
C855 C839 1.429 . S
C855 C851 1.429 . S
C855 C856 1.523 . S
C856 C840 1.368 . S
C856 C852 1.368 . S
C856 C855 1.523 . S
H857 C832 0.950 . S
H858 C834 0.950 . S
H859 C835 0.949 . S
H860 C837 0.950 . S
H861 C839 0.950 . S
C862 C863 1.349 . S
C862 C864 1.327 . S
C862 H887 0.950 . S
C863 C862 1.349 . S
C863 C879 1.349 . S
C864 C862 1.327 . S
C864 C883 1.429 . S
C864 H888 0.950 . S
C865 C882 1.574 . S
C865 C884 1.368 . S
C865 H889 0.949 . S
H866 C870 0.949 . S
C867 C868 1.349 . S
C867 C869 1.327 . S
C867 H890 0.950 . S
C868 C867 1.349 . S
C868 C880 1.349 . S
C869 C867 1.327 . S
C869 C885 1.429 . S
C869 H891 0.950 . S
C870 H866 0.949 . S
C870 C878 1.574 . S
C870 C886 1.368 . S
H871 C879 0.950 . S
H872 C877 0.950 . S
H873 C878 0.949 . S
H874 C880 0.950 . S
H875 C881 0.950 . S
H876 C882 0.949 . S
C877 H872 0.950 . S
C877 C879 1.327 . S
C877 C883 1.429 . S
C878 C870 1.574 . S
C878 H873 0.949 . S
C878 C884 1.368 . S
C879 C863 1.349 . S
C879 H871 0.950 . S
C879 C877 1.327 . S
C880 C868 1.349 . S
C880 H874 0.950 . S
C880 C881 1.327 . S
C881 H875 0.950 . S
C881 C880 1.327 . S
C881 C885 1.429 . S
C882 C865 1.574 . S
C882 H876 0.949 . S
C882 C886 1.368 . S
C883 C864 1.429 . S
C883 C877 1.429 . S
C883 C884 1.523 . S
C884 C865 1.368 . S
C884 C878 1.368 . S
C884 C883 1.523 . S
C885 C869 1.429 . S
C885 C881 1.429 . S
C885 C886 1.523 . S
C886 C870 1.368 . S
C886 C882 1.368 . S
C886 C885 1.523 . S
H887 C862 0.950 . S
H888 C864 0.950 . S
H889 C865 0.949 . S
H890 C867 0.950 . S
H891 C869 0.950 . S
C892 C893 1.349 . S
C892 C894 1.327 . S
C892 H917 0.950 . S
C893 C892 1.349 . S
C893 C909 1.349 . S
C894 C892 1.327 . S
C894 C913 1.429 . S
C894 H918 0.950 . S
C895 C912 1.574 1_554 S
C895 C914 1.368 . S
C895 H919 0.949 . S
H896 C900 0.949 . S
C897 C898 1.349 . S
C897 C899 1.327 . S
C897 H920 0.950 . S
C898 C897 1.349 . S
C898 C910 1.349 . S
C899 C897 1.327 . S
C899 C915 1.429 . S
C899 H921 0.950 . S
C900 H896 0.949 . S
C900 C908 1.574 1_556 S
C900 C916 1.368 . S
H901 C909 0.950 . S
H902 C907 0.950 . S
H903 C908 0.949 . S
H904 C910 0.950 . S
H905 C911 0.950 . S
H906 C912 0.949 . S
C907 H902 0.950 . S
C907 C909 1.327 . S
C907 C913 1.429 . S
C908 C900 1.574 1_554 S
C908 H903 0.949 . S
C908 C914 1.368 . S
C909 C893 1.349 . S
C909 H901 0.950 . S
C909 C907 1.327 . S
C910 C898 1.349 . S
C910 H904 0.950 . S
C910 C911 1.327 . S
C911 H905 0.950 . S
C911 C910 1.327 . S
C911 C915 1.429 . S
C912 C895 1.574 1_556 S
C912 H906 0.949 . S
C912 C916 1.368 . S
C913 C894 1.429 . S
C913 C907 1.429 . S
C913 C914 1.523 . S
C914 C895 1.368 . S
C914 C908 1.368 . S
C914 C913 1.523 . S
C915 C899 1.429 . S
C915 C911 1.429 . S
C915 C916 1.523 . S
C916 C900 1.368 . S
C916 C912 1.368 . S
C916 C915 1.523 . S
H917 C892 0.950 . S
H918 C894 0.950 . S
H919 C895 0.949 . S
H920 C897 0.950 . S
H921 C899 0.950 . S
C922 C923 1.349 . S
C922 C924 1.327 . S
C922 H947 0.950 . S
C923 C922 1.349 . S
C923 C939 1.349 . S
C924 C922 1.327 . S
C924 C943 1.429 . S
C924 H948 0.950 . S
C925 C942 1.574 . S
C925 C944 1.368 . S
C925 H949 0.949 . S
H926 C930 0.949 . S
C927 C928 1.349 . S
C927 C929 1.327 . S
C927 H950 0.950 . S
C928 C927 1.349 . S
C928 C940 1.349 . S
C929 C927 1.327 . S
C929 C945 1.429 . S
C929 H951 0.950 . S
C930 H926 0.949 . S
C930 C938 1.574 . S
C930 C946 1.368 . S
H931 C939 0.950 . S
H932 C937 0.950 . S
H933 C938 0.949 . S
H934 C940 0.950 . S
H935 C941 0.950 . S
H936 C942 0.949 . S
C937 H932 0.950 . S
C937 C939 1.327 . S
C937 C943 1.429 . S
C938 C930 1.574 . S
C938 H933 0.949 . S
C938 C944 1.368 . S
C939 C923 1.349 . S
C939 H931 0.950 . S
C939 C937 1.327 . S
C940 C928 1.349 . S
C940 H934 0.950 . S
C940 C941 1.327 . S
C941 H935 0.950 . S
C941 C940 1.327 . S
C941 C945 1.429 . S
C942 C925 1.574 . S
C942 H936 0.949 . S
C942 C946 1.368 . S
C943 C924 1.429 . S
C943 C937 1.429 . S
C943 C944 1.523 . S
C944 C925 1.368 . S
C944 C938 1.368 . S
C944 C943 1.523 . S
C945 C929 1.429 . S
C945 C941 1.429 . S
C945 C946 1.523 . S
C946 C930 1.368 . S
C946 C942 1.368 . S
C946 C945 1.523 . S
H947 C922 0.950 . S
H948 C924 0.950 . S
H949 C925 0.949 . S
H950 C927 0.950 . S
H951 C929 0.950 . S
C952 C953 1.349 . S
C952 C954 1.327 . S
C952 H977 0.950 . S
C953 C952 1.349 . S
C953 C969 1.349 . S
C954 C952 1.327 . S
C954 C973 1.429 . S
C954 H978 0.950 . S
C955 C972 1.574 . S
C955 C974 1.368 1_565 S
C955 H979 0.949 . S
H956 C960 0.949 . S
C957 C958 1.349 . S
C957 C959 1.327 . S
C957 H980 0.950 . S
C958 C957 1.349 . S
C958 C970 1.349 . S
C959 C957 1.327 . S
C959 C975 1.429 . S
C959 H981 0.950 . S
C960 H956 0.949 . S
C960 C968 1.574 . S
C960 C976 1.368 1_545 S
H961 C969 0.950 . S
H962 C967 0.950 . S
H963 C968 0.949 . S
H964 C970 0.950 . S
H965 C971 0.950 . S
H966 C972 0.949 . S
C967 H962 0.950 . S
C967 C969 1.327 . S
C967 C973 1.429 . S
C968 C960 1.574 . S
C968 H963 0.949 . S
C968 C974 1.368 1_554 S
C969 C953 1.349 . S
C969 H961 0.950 . S
C969 C967 1.327 . S
C970 C958 1.349 . S
C970 H964 0.950 . S
C970 C971 1.327 . S
C971 H965 0.950 . S
C971 C970 1.327 . S
C971 C975 1.429 . S
C972 C955 1.574 . S
C972 H966 0.949 . S
C972 C976 1.368 1_556 S
C973 C954 1.429 . S
C973 C967 1.429 . S
C973 C974 1.523 . S
C974 C955 1.368 1_545 S
C974 C968 1.368 1_556 S
C974 C973 1.523 . S
C975 C959 1.429 . S
C975 C971 1.429 . S
C975 C976 1.523 . S
C976 C960 1.368 1_565 S
C976 C972 1.368 1_554 S
C976 C975 1.523 . S
H977 C952 0.950 . S
H978 C954 0.950 . S
H979 C955 0.949 . S
H980 C957 0.950 . S
H981 C959 0.950 . S
C982 C983 1.349 . S
C982 C984 1.327 . S
C982 H1007 0.950 . S
C983 C982 1.349 . S
C983 C999 1.349 . S
C984 C982 1.327 . S
C984 C1003 1.429 . S
C984 H1008 0.950 . S
C985 C1002 1.574 . S
C985 C1004 1.368 1_545 S
C985 H1009 0.949 . S
H986 C990 0.949 . S
C987 C988 1.349 . S
C987 C989 1.327 . S
C987 H1010 0.950 . S
C988 C987 1.349 . S
C988 C1000 1.349 . S
C989 C987 1.327 . S
C989 C1005 1.429 . S
C989 H1011 0.950 . S
C990 H986 0.949 . S
C990 C998 1.574 . S
C990 C1006 1.368 1_565 S
H991 C999 0.950 . S
H992 C997 0.950 . S
H993 C998 0.949 . S
H994 C1000 0.950 . S
H995 C1001 0.950 . S
H996 C1002 0.949 . S
C997 H992 0.950 . S
C997 C999 1.327 . S
C997 C1003 1.429 . S
C998 C990 1.574 . S
C998 H993 0.949 . S
C998 C1004 1.368 . S
C999 C983 1.349 . S
C999 H991 0.950 . S
C999 C997 1.327 . S
C1000 C988 1.349 . S
C1000 H994 0.950 . S
C1000 C1001 1.327 . S
C1001 H995 0.950 . S
C1001 C1000 1.327 . S
C1001 C1005 1.429 . S
C1002 C985 1.574 . S
C1002 H996 0.949 . S
C1002 C1006 1.368 . S
C1003 C984 1.429 . S
C1003 C997 1.429 . S
C1003 C1004 1.523 . S
C1004 C985 1.368 1_565 S
C1004 C998 1.368 . S
C1004 C1003 1.523 . S
C1005 C989 1.429 . S
C1005 C1001 1.429 . S
C1005 C1006 1.523 . S
C1006 C990 1.368 1_545 S
C1006 C1002 1.368 . S
C1006 C1005 1.523 . S
H1007 C982 0.950 . S
H1008 C984 0.950 . S
H1009 C985 0.949 . S
H1010 C987 0.950 . S
H1011 C989 0.950 . S
C1012 C1013 1.349 . S
C1012 C1014 1.327 . S
C1012 H1037 0.950 . S
C1013 C1012 1.349 . S
C1013 C1029 1.349 . S
C1014 C1012 1.327 . S
C1014 C1033 1.429 . S
C1014 H1038 0.950 . S
C1015 C1032 1.574 1_564 S
C1015 C1034 1.368 . S
C1015 H1039 0.949 . S
H1016 C1020 0.949 . S
C1017 C1018 1.349 . S
C1017 C1019 1.327 . S
C1017 H1040 0.950 . S
C1018 C1017 1.349 . S
C1018 C1030 1.349 . S
C1019 C1017 1.327 . S
C1019 C1035 1.429 . S
C1019 H1041 0.950 . S
C1020 H1016 0.949 . S
C1020 C1028 1.574 1_546 S
C1020 C1036 1.368 . S
H1021 C1029 0.950 . S
H1022 C1027 0.950 . S
H1023 C1028 0.949 . S
H1024 C1030 0.950 . S
H1025 C1031 0.950 . S
H1026 C1032 0.949 . S
C1027 H1022 0.950 . S
C1027 C1029 1.327 . S
C1027 C1033 1.429 . S
C1028 C1020 1.574 1_564 S
C1028 H1023 0.949 . S
C1028 C1034 1.368 . S
C1029 C1013 1.349 . S
C1029 H1021 0.950 . S
C1029 C1027 1.327 . S
C1030 C1018 1.349 . S
C1030 H1024 0.950 . S
C1030 C1031 1.327 . S
C1031 H1025 0.950 . S
C1031 C1030 1.327 . S
C1031 C1035 1.429 . S
C1032 C1015 1.574 1_546 S
C1032 H1026 0.949 . S
C1032 C1036 1.368 . S
C1033 C1014 1.429 . S
C1033 C1027 1.429 . S
C1033 C1034 1.523 . S
C1034 C1015 1.368 . S
C1034 C1028 1.368 . S
C1034 C1033 1.523 . S
C1035 C1019 1.429 . S
C1035 C1031 1.429 . S
C1035 C1036 1.523 . S
C1036 C1020 1.368 . S
C1036 C1032 1.368 . S
C1036 C1035 1.523 . S
H1037 C1012 0.950 . S
H1038 C1014 0.950 . S
H1039 C1015 0.949 . S
H1040 C1017 0.950 . S
H1041 C1019 0.950 . S
C1042 C1043 1.349 . S
C1042 C1044 1.327 . S
C1042 H1067 0.950 . S
C1043 C1042 1.349 . S
C1043 C1059 1.349 . S
C1044 C1042 1.327 . S
C1044 C1063 1.429 . S
C1044 H1068 0.950 . S
C1045 C1062 1.574 . S
C1045 C1064 1.368 1_545 S
C1045 H1069 0.949 . S
H1046 C1050 0.949 . S
C1047 C1048 1.349 . S
C1047 C1049 1.327 . S
C1047 H1070 0.950 . S
C1048 C1047 1.349 . S
C1048 C1060 1.349 . S
C1049 C1047 1.327 . S
C1049 C1065 1.429 . S
C1049 H1071 0.950 . S
C1050 H1046 0.949 . S
C1050 C1058 1.574 . S
C1050 C1066 1.368 1_565 S
H1051 C1059 0.950 . S
H1052 C1057 0.950 . S
H1053 C1058 0.949 . S
H1054 C1060 0.950 . S
H1055 C1061 0.950 . S
H1056 C1062 0.949 . S
C1057 H1052 0.950 . S
C1057 C1059 1.327 . S
C1057 C1063 1.429 . S
C1058 C1050 1.574 . S
C1058 H1053 0.949 . S
C1058 C1064 1.368 . S
C1059 C1043 1.349 . S
C1059 H1051 0.950 . S
C1059 C1057 1.327 . S
C1060 C1048 1.349 . S
C1060 H1054 0.950 . S
C1060 C1061 1.327 . S
C1061 H1055 0.950 . S
C1061 C1060 1.327 . S
C1061 C1065 1.429 . S
C1062 C1045 1.574 . S
C1062 H1056 0.949 . S
C1062 C1066 1.368 . S
C1063 C1044 1.429 . S
C1063 C1057 1.429 . S
C1063 C1064 1.523 . S
C1064 C1045 1.368 1_565 S
C1064 C1058 1.368 . S
C1064 C1063 1.523 . S
C1065 C1049 1.429 . S
C1065 C1061 1.429 . S
C1065 C1066 1.523 . S
C1066 C1050 1.368 1_545 S
C1066 C1062 1.368 . S
C1066 C1065 1.523 . S
H1067 C1042 0.950 . S
H1068 C1044 0.950 . S
H1069 C1045 0.949 . S
H1070 C1047 0.950 . S
H1071 C1049 0.950 . S
C1072 C1073 1.349 . S
C1072 C1074 1.327 . S
C1072 H1097 0.950 . S
C1073 C1072 1.349 . S
C1073 C1089 1.349 . S
C1074 C1072 1.327 . S
C1074 C1093 1.429 . S
C1074 H1098 0.950 . S
C1075 C1092 1.574 . S
C1075 C1094 1.368 . S
C1075 H1099 0.949 . S
H1076 C1080 0.949 . S
C1077 C1078 1.349 . S
C1077 C1079 1.327 . S
C1077 H1100 0.950 . S
C1078 C1077 1.349 . S
C1078 C1090 1.349 . S
C1079 C1077 1.327 . S
C1079 C1095 1.429 . S
C1079 H1101 0.950 . S
C1080 H1076 0.949 . S
C1080 C1088 1.574 . S
C1080 C1096 1.368 . S
H1081 C1089 0.950 . S
H1082 C1087 0.950 . S
H1083 C1088 0.949 . S
H1084 C1090 0.950 . S
H1085 C1091 0.950 . S
H1086 C1092 0.949 . S
C1087 H1082 0.950 . S
C1087 C1089 1.327 . S
C1087 C1093 1.429 . S
C1088 C1080 1.574 . S
C1088 H1083 0.949 . S
C1088 C1094 1.368 . S
C1089 C1073 1.349 . S
C1089 H1081 0.950 . S
C1089 C1087 1.327 . S
C1090 C1078 1.349 . S
C1090 H1084 0.950 . S
C1090 C1091 1.327 . S
C1091 H1085 0.950 . S
C1091 C1090 1.327 . S
C1091 C1095 1.429 . S
C1092 C1075 1.574 . S
C1092 H1086 0.949 . S
C1092 C1096 1.368 . S
C1093 C1074 1.429 . S
C1093 C1087 1.429 . S
C1093 C1094 1.523 . S
C1094 C1075 1.368 . S
C1094 C1088 1.368 . S
C1094 C1093 1.523 . S
C1095 C1079 1.429 . S
C1095 C1091 1.429 . S
C1095 C1096 1.523 . S
C1096 C1080 1.368 . S
C1096 C1092 1.368 . S
C1096 C1095 1.523 . S
H1097 C1072 0.950 . S
H1098 C1074 0.950 . S
H1099 C1075 0.949 . S
H1100 C1077 0.950 . S
H1101 C1079 0.950 . S
C1102 C1103 1.349 . S
C1102 C1104 1.327 . S
C1102 H1127 0.950 . S
C1103 C1102 1.349 . S
C1103 C1119 1.349 . S
C1104 C1102 1.327 . S
C1104 C1123 1.429 . S
C1104 H1128 0.950 . S
C1105 C1122 1.574 . S
C1105 C1124 1.368 . S
C1105 H1129 0.949 . S
H1106 C1110 0.949 . S
C1107 C1108 1.349 . S
C1107 C1109 1.327 . S
C1107 H1130 0.950 . S
C1108 C1107 1.349 . S
C1108 C1120 1.349 . S
C1109 C1107 1.327 . S
C1109 C1125 1.429 . S
C1109 H1131 0.950 . S
C1110 H1106 0.949 . S
C1110 C1118 1.574 . S
C1110 C1126 1.368 . S
H1111 C1119 0.950 . S
H1112 C1117 0.950 . S
H1113 C1118 0.949 . S
H1114 C1120 0.950 . S
H1115 C1121 0.950 . S
H1116 C1122 0.949 . S
C1117 H1112 0.950 . S
C1117 C1119 1.327 . S
C1117 C1123 1.429 . S
C1118 C1110 1.574 . S
C1118 H1113 0.949 . S
C1118 C1124 1.368 . S
C1119 C1103 1.349 . S
C1119 H1111 0.950 . S
C1119 C1117 1.327 . S
C1120 C1108 1.349 . S
C1120 H1114 0.950 . S
C1120 C1121 1.327 . S
C1121 H1115 0.950 . S
C1121 C1120 1.327 . S
C1121 C1125 1.429 . S
C1122 C1105 1.574 . S
C1122 H1116 0.949 . S
C1122 C1126 1.368 . S
C1123 C1104 1.429 . S
C1123 C1117 1.429 . S
C1123 C1124 1.523 . S
C1124 C1105 1.368 . S
C1124 C1118 1.368 . S
C1124 C1123 1.523 . S
C1125 C1109 1.429 . S
C1125 C1121 1.429 . S
C1125 C1126 1.523 . S
C1126 C1110 1.368 . S
C1126 C1122 1.368 . S
C1126 C1125 1.523 . S
H1127 C1102 0.950 . S
H1128 C1104 0.950 . S
H1129 C1105 0.949 . S
H1130 C1107 0.950 . S
H1131 C1109 0.950 . S
C1132 C1133 1.349 . S
C1132 C1134 1.327 . S
C1132 H1157 0.950 . S
C1133 C1132 1.349 . S
C1133 C1149 1.349 . S
C1134 C1132 1.327 . S
C1134 C1153 1.429 . S
C1134 H1158 0.950 . S
C1135 C1152 1.574 . S
C1135 C1154 1.368 . S
C1135 H1159 0.949 . S
H1136 C1140 0.949 . S
C1137 C1138 1.349 . S
C1137 C1139 1.327 . S
C1137 H1160 0.950 . S
C1138 C1137 1.349 . S
C1138 C1150 1.349 . S
C1139 C1137 1.327 . S
C1139 C1155 1.429 . S
C1139 H1161 0.950 . S
C1140 H1136 0.949 . S
C1140 C1148 1.574 . S
C1140 C1156 1.368 . S
H1141 C1149 0.950 . S
H1142 C1147 0.950 . S
H1143 C1148 0.949 . S
H1144 C1150 0.950 . S
H1145 C1151 0.950 . S
H1146 C1152 0.949 . S
C1147 H1142 0.950 . S
C1147 C1149 1.327 . S
C1147 C1153 1.429 . S
C1148 C1140 1.574 . S
C1148 H1143 0.949 . S
C1148 C1154 1.368 . S
C1149 C1133 1.349 . S
C1149 H1141 0.950 . S
C1149 C1147 1.327 . S
C1150 C1138 1.349 . S
C1150 H1144 0.950 . S
C1150 C1151 1.327 . S
C1151 H1145 0.950 . S
C1151 C1150 1.327 . S
C1151 C1155 1.429 . S
C1152 C1135 1.574 . S
C1152 H1146 0.949 . S
C1152 C1156 1.368 . S
C1153 C1134 1.429 . S
C1153 C1147 1.429 . S
C1153 C1154 1.523 . S
C1154 C1135 1.368 . S
C1154 C1148 1.368 . S
C1154 C1153 1.523 . S
C1155 C1139 1.429 . S
C1155 C1151 1.429 . S
C1155 C1156 1.523 . S
C1156 C1140 1.368 . S
C1156 C1152 1.368 . S
C1156 C1155 1.523 . S
H1157 C1132 0.950 . S
H1158 C1134 0.950 . S
H1159 C1135 0.949 . S
H1160 C1137 0.950 . S
H1161 C1139 0.950 . S
C1162 C1163 1.349 . S
C1162 C1164 1.327 . S
C1162 H1187 0.950 . S
C1163 C1162 1.349 . S
C1163 C1179 1.349 . S
C1164 C1162 1.327 . S
C1164 C1183 1.429 . S
C1164 H1188 0.950 . S
C1165 C1182 1.574 . S
C1165 C1184 1.368 . S
C1165 H1189 0.949 . S
H1166 C1170 0.949 . S
C1167 C1168 1.349 . S
C1167 C1169 1.327 . S
C1167 H1190 0.950 . S
C1168 C1167 1.349 . S
C1168 C1180 1.349 . S
C1169 C1167 1.327 . S
C1169 C1185 1.429 . S
C1169 H1191 0.950 . S
C1170 H1166 0.949 . S
C1170 C1178 1.574 . S
C1170 C1186 1.368 . S
H1171 C1179 0.950 . S
H1172 C1177 0.950 . S
H1173 C1178 0.949 . S
H1174 C1180 0.950 . S
H1175 C1181 0.950 . S
H1176 C1182 0.949 . S
C1177 H1172 0.950 . S
C1177 C1179 1.327 . S
C1177 C1183 1.429 . S
C1178 C1170 1.574 . S
C1178 H1173 0.949 . S
C1178 C1184 1.368 . S
C1179 C1163 1.349 . S
C1179 H1171 0.950 . S
C1179 C1177 1.327 . S
C1180 C1168 1.349 . S
C1180 H1174 0.950 . S
C1180 C1181 1.327 . S
C1181 H1175 0.950 . S
C1181 C1180 1.327 . S
C1181 C1185 1.429 . S
C1182 C1165 1.574 . S
C1182 H1176 0.949 . S
C1182 C1186 1.368 . S
C1183 C1164 1.429 . S
C1183 C1177 1.429 . S
C1183 C1184 1.523 . S
C1184 C1165 1.368 . S
C1184 C1178 1.368 . S
C1184 C1183 1.523 . S
C1185 C1169 1.429 . S
C1185 C1181 1.429 . S
C1185 C1186 1.523 . S
C1186 C1170 1.368 . S
C1186 C1182 1.368 . S
C1186 C1185 1.523 . S
H1187 C1162 0.950 . S
H1188 C1164 0.950 . S
H1189 C1165 0.949 . S
H1190 C1167 0.950 . S
H1191 C1169 0.950 . S
C1192 C1193 1.349 . S
C1192 C1194 1.327 . S
C1192 H1217 0.950 . S
C1193 C1192 1.349 . S
C1193 C1209 1.349 . S
C1194 C1192 1.327 . S
C1194 C1213 1.429 . S
C1194 H1218 0.950 . S
C1195 C1212 1.574 1_655 S
C1195 C1214 1.368 . S
C1195 H1219 0.949 . S
H1196 C1200 0.949 . S
C1197 C1198 1.349 . S
C1197 C1199 1.327 . S
C1197 H1220 0.950 . S
C1198 C1197 1.349 . S
C1198 C1210 1.349 . S
C1199 C1197 1.327 . S
C1199 C1215 1.429 . S
C1199 H1221 0.950 . S
C1200 H1196 0.949 . S
C1200 C1208 1.574 1_455 S
C1200 C1216 1.368 . S
H1201 C1209 0.950 . S
H1202 C1207 0.950 . S
H1203 C1208 0.949 . S
H1204 C1210 0.950 . S
H1205 C1211 0.950 . S
H1206 C1212 0.949 . S
C1207 H1202 0.950 . S
C1207 C1209 1.327 . S
C1207 C1213 1.429 . S
C1208 C1200 1.574 1_655 S
C1208 H1203 0.949 . S
C1208 C1214 1.368 . S
C1209 C1193 1.349 . S
C1209 H1201 0.950 . S
C1209 C1207 1.327 . S
C1210 C1198 1.349 . S
C1210 H1204 0.950 . S
C1210 C1211 1.327 . S
C1211 H1205 0.950 . S
C1211 C1210 1.327 . S
C1211 C1215 1.429 . S
C1212 C1195 1.574 1_455 S
C1212 H1206 0.949 . S
C1212 C1216 1.368 . S
C1213 C1194 1.429 . S
C1213 C1207 1.429 . S
C1213 C1214 1.523 . S
C1214 C1195 1.368 . S
C1214 C1208 1.368 . S
C1214 C1213 1.523 . S
C1215 C1199 1.429 . S
C1215 C1211 1.429 . S
C1215 C1216 1.523 . S
C1216 C1200 1.368 . S
C1216 C1212 1.368 . S
C1216 C1215 1.523 . S
H1217 C1192 0.950 . S
H1218 C1194 0.950 . S
H1219 C1195 0.949 . S
H1220 C1197 0.950 . S
H1221 C1199 0.950 . S
C1222 C1223 1.349 . S
C1222 C1224 1.327 . S
C1222 H1247 0.950 . S
C1223 C1222 1.349 . S
C1223 C1239 1.349 . S
C1224 C1222 1.327 . S
C1224 C1243 1.429 . S
C1224 H1248 0.950 . S
C1225 C1242 1.574 1_655 S
C1225 C1244 1.368 . S
C1225 H1249 0.949 . S
H1226 C1230 0.949 . S
C1227 C1228 1.349 . S
C1227 C1229 1.327 . S
C1227 H1250 0.950 . S
C1228 C1227 1.349 . S
C1228 C1240 1.349 . S
C1229 C1227 1.327 . S
C1229 C1245 1.429 . S
C1229 H1251 0.950 . S
C1230 H1226 0.949 . S
C1230 C1238 1.574 1_455 S
C1230 C1246 1.368 . S
H1231 C1239 0.950 . S
H1232 C1237 0.950 . S
H1233 C1238 0.949 . S
H1234 C1240 0.950 . S
H1235 C1241 0.950 . S
H1236 C1242 0.949 . S
C1237 H1232 0.950 . S
C1237 C1239 1.327 . S
C1237 C1243 1.429 . S
C1238 C1230 1.574 1_655 S
C1238 H1233 0.949 . S
C1238 C1244 1.368 . S
C1239 C1223 1.349 . S
C1239 H1231 0.950 . S
C1239 C1237 1.327 . S
C1240 C1228 1.349 . S
C1240 H1234 0.950 . S
C1240 C1241 1.327 . S
C1241 H1235 0.950 . S
C1241 C1240 1.327 . S
C1241 C1245 1.429 . S
C1242 C1225 1.574 1_455 S
C1242 H1236 0.949 . S
C1242 C1246 1.368 . S
C1243 C1224 1.429 . S
C1243 C1237 1.429 . S
C1243 C1244 1.523 . S
C1244 C1225 1.368 . S
C1244 C1238 1.368 . S
C1244 C1243 1.523 . S
C1245 C1229 1.429 . S
C1245 C1241 1.429 . S
C1245 C1246 1.523 . S
C1246 C1230 1.368 . S
C1246 C1242 1.368 . S
C1246 C1245 1.523 . S
H1247 C1222 0.950 . S
H1248 C1224 0.950 . S
H1249 C1225 0.949 . S
H1250 C1227 0.950 . S
H1251 C1229 0.950 . S
C1252 C1253 1.349 . S
C1252 C1254 1.327 . S
C1252 H1277 0.950 . S
C1253 C1252 1.349 . S
C1253 C1269 1.349 . S
C1254 C1252 1.327 . S
C1254 C1273 1.429 . S
C1254 H1278 0.950 . S
C1255 C1272 1.574 1_455 S
C1255 C1274 1.368 . S
C1255 H1279 0.949 . S
H1256 C1260 0.949 . S
C1257 C1258 1.349 . S
C1257 C1259 1.327 . S
C1257 H1280 0.950 . S
C1258 C1257 1.349 . S
C1258 C1270 1.349 . S
C1259 C1257 1.327 . S
C1259 C1275 1.429 . S
C1259 H1281 0.950 . S
C1260 H1256 0.949 . S
C1260 C1268 1.574 1_655 S
C1260 C1276 1.368 . S
H1261 C1269 0.950 . S
H1262 C1267 0.950 . S
H1263 C1268 0.949 . S
H1264 C1270 0.950 . S
H1265 C1271 0.950 . S
H1266 C1272 0.949 . S
C1267 H1262 0.950 . S
C1267 C1269 1.327 . S
C1267 C1273 1.429 . S
C1268 C1260 1.574 1_455 S
C1268 H1263 0.949 . S
C1268 C1274 1.368 . S
C1269 C1253 1.349 . S
C1269 H1261 0.950 . S
C1269 C1267 1.327 . S
C1270 C1258 1.349 . S
C1270 H1264 0.950 . S
C1270 C1271 1.327 . S
C1271 H1265 0.950 . S
C1271 C1270 1.327 . S
C1271 C1275 1.429 . S
C1272 C1255 1.574 1_655 S
C1272 H1266 0.949 . S
C1272 C1276 1.368 . S
C1273 C1254 1.429 . S
C1273 C1267 1.429 . S
C1273 C1274 1.523 . S
C1274 C1255 1.368 . S
C1274 C1268 1.368 . S
C1274 C1273 1.523 . S
C1275 C1259 1.429 . S
C1275 C1271 1.429 . S
C1275 C1276 1.523 . S
C1276 C1260 1.368 . S
C1276 C1272 1.368 . S
C1276 C1275 1.523 . S
H1277 C1252 0.950 . S
H1278 C1254 0.950 . S
H1279 C1255 0.949 . S
H1280 C1257 0.950 . S
H1281 C1259 0.950 . S
C1282 C1283 1.349 . S
C1282 C1284 1.327 . S
C1282 H1307 0.950 . S
C1283 C1282 1.349 . S
C1283 C1299 1.349 . S
C1284 C1282 1.327 . S
C1284 C1303 1.429 . S
C1284 H1308 0.950 . S
C1285 C1302 1.574 1_455 S
C1285 C1304 1.368 . S
C1285 H1309 0.949 . S
H1286 C1290 0.949 . S
C1287 C1288 1.349 . S
C1287 C1289 1.327 . S
C1287 H1310 0.950 . S
C1288 C1287 1.349 . S
C1288 C1300 1.349 . S
C1289 C1287 1.327 . S
C1289 C1305 1.429 . S
C1289 H1311 0.950 . S
C1290 H1286 0.949 . S
C1290 C1298 1.574 1_655 S
C1290 C1306 1.368 . S
H1291 C1299 0.950 . S
H1292 C1297 0.950 . S
H1293 C1298 0.949 . S
H1294 C1300 0.950 . S
H1295 C1301 0.950 . S
H1296 C1302 0.949 . S
C1297 H1292 0.950 . S
C1297 C1299 1.327 . S
C1297 C1303 1.429 . S
C1298 C1290 1.574 1_455 S
C1298 H1293 0.949 . S
C1298 C1304 1.368 . S
C1299 C1283 1.349 . S
C1299 H1291 0.950 . S
C1299 C1297 1.327 . S
C1300 C1288 1.349 . S
C1300 H1294 0.950 . S
C1300 C1301 1.327 . S
C1301 H1295 0.950 . S
C1301 C1300 1.327 . S
C1301 C1305 1.429 . S
C1302 C1285 1.574 1_655 S
C1302 H1296 0.949 . S
C1302 C1306 1.368 . S
C1303 C1284 1.429 . S
C1303 C1297 1.429 . S
C1303 C1304 1.523 . S
C1304 C1285 1.368 . S
C1304 C1298 1.368 . S
C1304 C1303 1.523 . S
C1305 C1289 1.429 . S
C1305 C1301 1.429 . S
C1305 C1306 1.523 . S
C1306 C1290 1.368 . S
C1306 C1302 1.368 . S
C1306 C1305 1.523 . S
H1307 C1282 0.950 . S
H1308 C1284 0.950 . S
H1309 C1285 0.949 . S
H1310 C1287 0.950 . S
H1311 C1289 0.950 . S
C1312 C1313 1.349 . S
C1312 C1314 1.327 . S
C1312 H1337 0.950 . S
C1313 C1312 1.349 . S
C1313 C1329 1.349 . S
C1314 C1312 1.327 . S
C1314 C1333 1.429 . S
C1314 H1338 0.950 . S
C1315 C1332 1.529 1_554 S
C1315 C1334 1.409 . S
C1315 H1339 0.954 . S
H1316 C1320 0.949 . S
C1317 C1318 1.349 . S
C1317 C1319 1.327 . S
C1317 H1340 0.950 . S
C1318 C1317 1.349 . S
C1318 C1330 1.349 . S
C1319 C1317 1.327 . S
C1319 C1335 1.429 . S
C1319 H1341 0.950 . S
C1320 H1316 0.949 . S
C1320 C1328 1.574 1_556 S
C1320 C1336 1.368 . S
H1321 C1329 0.950 . S
H1322 C1327 0.950 . S
H1323 C1328 0.949 . S
H1324 C1330 0.950 . S
H1325 C1331 0.950 . S
H1326 C1332 0.949 . S
C1327 H1322 0.950 . S
C1327 C1329 1.327 . S
C1327 C1333 1.429 . S
C1328 C1320 1.574 1_554 S
C1328 H1323 0.949 . S
C1328 C1334 1.368 . S
C1329 C1313 1.349 . S
C1329 H1321 0.950 . S
C1329 C1327 1.327 . S
C1330 C1318 1.349 . S
C1330 H1324 0.950 . S
C1330 C1331 1.327 . S
C1331 H1325 0.950 . S
C1331 C1330 1.327 . S
C1331 C1335 1.429 . S
C1332 C1315 1.529 1_556 S
C1332 H1326 0.949 . S
C1332 C1336 1.368 . S
C1333 C1314 1.429 . S
C1333 C1327 1.429 . S
C1333 C1334 1.523 . S
C1334 C1315 1.409 . S
C1334 C1328 1.368 . S
C1334 C1333 1.523 . S
C1335 C1319 1.429 . S
C1335 C1331 1.429 . S
C1335 C1336 1.523 . S
C1336 C1320 1.368 . S
C1336 C1332 1.368 . S
C1336 C1335 1.523 . S
H1337 C1312 0.950 . S
H1338 C1314 0.950 . S
H1339 C1315 0.954 . S
H1340 C1317 0.950 . S
H1341 C1319 0.950 . S
C1342 C1343 1.349 . S
C1342 C1344 1.327 . S
C1342 H1367 0.950 . S
C1343 C1342 1.349 . S
C1343 C1359 1.349 . S
C1344 C1342 1.327 . S
C1344 C1363 1.429 . S
C1344 H1368 0.950 . S
C1345 C1362 1.574 . S
C1345 C1364 1.368 . S
C1345 H1369 0.949 . S
H1346 C1350 0.949 . S
C1347 C1348 1.349 . S
C1347 C1349 1.327 . S
C1347 H1370 0.950 . S
C1348 C1347 1.349 . S
C1348 C1360 1.349 . S
C1349 C1347 1.327 . S
C1349 C1365 1.429 . S
C1349 H1371 0.950 . S
C1350 H1346 0.949 . S
C1350 C1358 1.574 . S
C1350 C1366 1.368 . S
H1351 C1359 0.950 . S
H1352 C1357 0.950 . S
H1353 C1358 0.949 . S
H1354 C1360 0.950 . S
H1355 C1361 0.950 . S
H1356 C1362 0.949 . S
C1357 H1352 0.950 . S
C1357 C1359 1.327 . S
C1357 C1363 1.429 . S
C1358 C1350 1.574 . S
C1358 H1353 0.949 . S
C1358 C1364 1.368 . S
C1359 C1343 1.349 . S
C1359 H1351 0.950 . S
C1359 C1357 1.327 . S
C1360 C1348 1.349 . S
C1360 H1354 0.950 . S
C1360 C1361 1.327 . S
C1361 H1355 0.950 . S
C1361 C1360 1.327 . S
C1361 C1365 1.429 . S
C1362 C1345 1.574 . S
C1362 H1356 0.949 . S
C1362 C1366 1.368 . S
C1363 C1344 1.429 . S
C1363 C1357 1.429 . S
C1363 C1364 1.523 . S
C1364 C1345 1.368 . S
C1364 C1358 1.368 . S
C1364 C1363 1.523 . S
C1365 C1349 1.429 . S
C1365 C1361 1.429 . S
C1365 C1366 1.523 . S
C1366 C1350 1.368 . S
C1366 C1362 1.368 . S
C1366 C1365 1.523 . S
H1367 C1342 0.950 . S
H1368 C1344 0.950 . S
H1369 C1345 0.949 . S
H1370 C1347 0.950 . S
H1371 C1349 0.950 . S
C1372 C1373 1.349 . S
C1372 C1374 1.327 . S
C1372 H1397 0.950 . S
C1373 C1372 1.349 . S
C1373 C1389 1.349 . S
C1374 C1372 1.327 . S
C1374 C1393 1.429 . S
C1374 H1398 0.950 . S
C1375 C1392 1.574 1_554 S
C1375 C1394 1.368 . S
C1375 H1399 0.949 . S
H1376 C1380 0.949 . S
C1377 C1378 1.349 . S
C1377 C1379 1.327 . S
C1377 H1400 0.950 . S
C1378 C1377 1.349 . S
C1378 C1390 1.349 . S
C1379 C1377 1.327 . S
C1379 C1395 1.429 . S
C1379 H1401 0.950 . S
C1380 H1376 0.949 . S
C1380 C1388 1.574 1_556 S
C1380 C1396 1.368 . S
H1381 C1389 0.950 . S
H1382 C1387 0.950 . S
H1383 C1388 0.949 . S
H1384 C1390 0.950 . S
H1385 C1391 0.950 . S
H1386 C1392 0.949 . S
C1387 H1382 0.950 . S
C1387 C1389 1.327 . S
C1387 C1393 1.429 . S
C1388 C1380 1.574 1_554 S
C1388 H1383 0.949 . S
C1388 C1394 1.368 . S
C1389 C1373 1.349 . S
C1389 H1381 0.950 . S
C1389 C1387 1.327 . S
C1390 C1378 1.349 . S
C1390 H1384 0.950 . S
C1390 C1391 1.327 . S
C1391 H1385 0.950 . S
C1391 C1390 1.327 . S
C1391 C1395 1.429 . S
C1392 C1375 1.574 1_556 S
C1392 H1386 0.949 . S
C1392 C1396 1.368 . S
C1393 C1374 1.429 . S
C1393 C1387 1.429 . S
C1393 C1394 1.523 . S
C1394 C1375 1.368 . S
C1394 C1388 1.368 . S
C1394 C1393 1.523 . S
C1395 C1379 1.429 . S
C1395 C1391 1.429 . S
C1395 C1396 1.523 . S
C1396 C1380 1.368 . S
C1396 C1392 1.368 . S
C1396 C1395 1.523 . S
H1397 C1372 0.950 . S
H1398 C1374 0.950 . S
H1399 C1375 0.949 . S
H1400 C1377 0.950 . S
H1401 C1379 0.950 . S
C1402 C1403 1.349 . S
C1402 C1404 1.327 . S
C1402 H1427 0.950 . S
C1403 C1402 1.349 . S
C1403 C1419 1.349 . S
C1404 C1402 1.327 . S
C1404 C1423 1.429 . S
C1404 H1428 0.950 . S
C1405 C1422 1.574 . S
C1405 C1424 1.368 . S
C1405 H1429 0.949 . S
H1406 C1410 0.949 . S
C1407 C1408 1.349 . S
C1407 C1409 1.327 . S
C1407 H1430 0.950 . S
C1408 C1407 1.349 . S
C1408 C1420 1.349 . S
C1409 C1407 1.327 . S
C1409 C1425 1.429 . S
C1409 H1431 0.950 . S
C1410 H1406 0.949 . S
C1410 C1418 1.574 . S
C1410 C1426 1.368 . S
H1411 C1419 0.950 . S
H1412 C1417 0.950 . S
H1413 C1418 0.949 . S
H1414 C1420 0.950 . S
H1415 C1421 0.950 . S
H1416 C1422 0.949 . S
C1417 H1412 0.950 . S
C1417 C1419 1.327 . S
C1417 C1423 1.429 . S
C1418 C1410 1.574 . S
C1418 H1413 0.949 . S
C1418 C1424 1.368 . S
C1419 C1403 1.349 . S
C1419 H1411 0.950 . S
C1419 C1417 1.327 . S
C1420 C1408 1.349 . S
C1420 H1414 0.950 . S
C1420 C1421 1.327 . S
C1421 H1415 0.950 . S
C1421 C1420 1.327 . S
C1421 C1425 1.429 . S
C1422 C1405 1.574 . S
C1422 H1416 0.949 . S
C1422 C1426 1.368 . S
C1423 C1404 1.429 . S
C1423 C1417 1.429 . S
C1423 C1424 1.523 . S
C1424 C1405 1.368 . S
C1424 C1418 1.368 . S
C1424 C1423 1.523 . S
C1425 C1409 1.429 . S
C1425 C1421 1.429 . S
C1425 C1426 1.523 . S
C1426 C1410 1.368 . S
C1426 C1422 1.368 . S
C1426 C1425 1.523 . S
H1427 C1402 0.950 . S
H1428 C1404 0.950 . S
H1429 C1405 0.949 . S
H1430 C1407 0.950 . S
H1431 C1409 0.950 . S
C1432 C1433 1.349 . S
C1432 C1434 1.327 . S
C1432 H1457 0.950 . S
C1433 C1432 1.349 . S
C1433 C1449 1.349 . S
C1434 C1432 1.327 . S
C1434 C1453 1.429 . S
C1434 H1458 0.950 . S
C1435 C1452 1.574 1_554 S
C1435 C1454 1.368 . S
C1435 H1459 0.949 . S
H1436 C1440 0.949 . S
C1437 C1438 1.349 . S
C1437 C1439 1.327 . S
C1437 H1460 0.950 . S
C1438 C1437 1.349 . S
C1438 C1450 1.349 . S
C1439 C1437 1.327 . S
C1439 C1455 1.429 . S
C1439 H1461 0.950 . S
C1440 H1436 0.949 . S
C1440 C1448 1.574 1_556 S
C1440 C1456 1.368 . S
H1441 C1449 0.950 . S
H1442 C1447 0.950 . S
H1443 C1448 0.949 . S
H1444 C1450 0.950 . S
H1445 C1451 0.950 . S
H1446 C1452 0.949 . S
C1447 H1442 0.950 . S
C1447 C1449 1.327 . S
C1447 C1453 1.429 . S
C1448 C1440 1.574 1_554 S
C1448 H1443 0.949 . S
C1448 C1454 1.368 . S
C1449 C1433 1.349 . S
C1449 H1441 0.950 . S
C1449 C1447 1.327 . S
C1450 C1438 1.349 . S
C1450 H1444 0.950 . S
C1450 C1451 1.327 . S
C1451 H1445 0.950 . S
C1451 C1450 1.327 . S
C1451 C1455 1.429 . S
C1452 C1435 1.574 1_556 S
C1452 H1446 0.949 . S
C1452 C1456 1.368 . S
C1453 C1434 1.429 . S
C1453 C1447 1.429 . S
C1453 C1454 1.523 . S
C1454 C1435 1.368 . S
C1454 C1448 1.368 . S
C1454 C1453 1.523 . S
C1455 C1439 1.429 . S
C1455 C1451 1.429 . S
C1455 C1456 1.523 . S
C1456 C1440 1.368 . S
C1456 C1452 1.368 . S
C1456 C1455 1.523 . S
H1457 C1432 0.950 . S
H1458 C1434 0.950 . S
H1459 C1435 0.949 . S
H1460 C1437 0.950 . S
H1461 C1439 0.950 . S
C1462 C1463 1.349 . S
C1462 C1464 1.327 . S
C1462 H1487 0.950 . S
C1463 C1462 1.349 . S
C1463 C1479 1.349 . S
C1464 C1462 1.327 . S
C1464 C1483 1.429 . S
C1464 H1488 0.950 . S
C1465 C1482 1.574 . S
C1465 C1484 1.368 . S
C1465 H1489 0.949 . S
H1466 C1470 0.949 . S
C1467 C1468 1.349 . S
C1467 C1469 1.327 . S
C1467 H1490 0.950 . S
C1468 C1467 1.349 . S
C1468 C1480 1.349 . S
C1469 C1467 1.327 . S
C1469 C1485 1.429 . S
C1469 H1491 0.950 . S
C1470 H1466 0.949 . S
C1470 C1478 1.574 . S
C1470 C1486 1.368 . S
H1471 C1479 0.950 . S
H1472 C1477 0.950 . S
H1473 C1478 0.949 . S
H1474 C1480 0.950 . S
H1475 C1481 0.950 . S
H1476 C1482 0.949 . S
C1477 H1472 0.950 . S
C1477 C1479 1.327 . S
C1477 C1483 1.429 . S
C1478 C1470 1.574 . S
C1478 H1473 0.949 . S
C1478 C1484 1.368 . S
C1479 C1463 1.349 . S
C1479 H1471 0.950 . S
C1479 C1477 1.327 . S
C1480 C1468 1.349 . S
C1480 H1474 0.950 . S
C1480 C1481 1.327 . S
C1481 H1475 0.950 . S
C1481 C1480 1.327 . S
C1481 C1485 1.429 . S
C1482 C1465 1.574 . S
C1482 H1476 0.949 . S
C1482 C1486 1.368 . S
C1483 C1464 1.429 . S
C1483 C1477 1.429 . S
C1483 C1484 1.523 . S
C1484 C1465 1.368 . S
C1484 C1478 1.368 . S
C1484 C1483 1.523 . S
C1485 C1469 1.429 . S
C1485 C1481 1.429 . S
C1485 C1486 1.523 . S
C1486 C1470 1.368 . S
C1486 C1482 1.368 . S
C1486 C1485 1.523 . S
H1487 C1462 0.950 . S
H1488 C1464 0.950 . S
H1489 C1465 0.949 . S
H1490 C1467 0.950 . S
H1491 C1469 0.950 . S
C1492 C1493 1.349 . S
C1492 C1494 1.327 . S
C1492 H1517 0.950 . S
C1493 C1492 1.349 . S
C1493 C1509 1.349 . S
C1494 C1492 1.327 . S
C1494 C1513 1.429 . S
C1494 H1518 0.950 . S
C1495 C1512 1.574 1_554 S
C1495 C1514 1.368 . S
C1495 H1519 0.949 . S
H1496 C1500 0.949 . S
C1497 C1498 1.349 . S
C1497 C1499 1.327 . S
C1497 H1520 0.950 . S
C1498 C1497 1.349 . S
C1498 C1510 1.349 . S
C1499 C1497 1.327 . S
C1499 C1515 1.429 . S
C1499 H1521 0.950 . S
C1500 H1496 0.949 . S
C1500 C1508 1.574 1_556 S
C1500 C1516 1.368 . S
H1501 C1509 0.950 . S
H1502 C1507 0.950 . S
H1503 C1508 0.949 . S
H1504 C1510 0.950 . S
H1505 C1511 0.950 . S
H1506 C1512 0.949 . S
C1507 H1502 0.950 . S
C1507 C1509 1.327 . S
C1507 C1513 1.429 . S
C1508 C1500 1.574 1_554 S
C1508 H1503 0.949 . S
C1508 C1514 1.368 . S
C1509 C1493 1.349 . S
C1509 H1501 0.950 . S
C1509 C1507 1.327 . S
C1510 C1498 1.349 . S
C1510 H1504 0.950 . S
C1510 C1511 1.327 . S
C1511 H1505 0.950 . S
C1511 C1510 1.327 . S
C1511 C1515 1.429 . S
C1512 C1495 1.574 1_556 S
C1512 H1506 0.949 . S
C1512 C1516 1.368 . S
C1513 C1494 1.429 . S
C1513 C1507 1.429 . S
C1513 C1514 1.523 . S
C1514 C1495 1.368 . S
C1514 C1508 1.368 . S
C1514 C1513 1.523 . S
C1515 C1499 1.429 . S
C1515 C1511 1.429 . S
C1515 C1516 1.523 . S
C1516 C1500 1.368 . S
C1516 C1512 1.368 . S
C1516 C1515 1.523 . S
H1517 C1492 0.950 . S
H1518 C1494 0.950 . S
H1519 C1495 0.949 . S
H1520 C1497 0.950 . S
H1521 C1499 0.950 . S
C1522 C1523 1.349 . S
C1522 C1524 1.327 . S
C1522 H1547 0.950 . S
C1523 C1522 1.349 . S
C1523 C1539 1.349 . S
C1524 C1522 1.327 . S
C1524 C1543 1.429 . S
C1524 H1548 0.950 . S
C1525 C1542 1.574 . S
C1525 C1544 1.368 . S
C1525 H1549 0.949 . S
H1526 C1530 0.949 . S
C1527 C1528 1.349 . S
C1527 C1529 1.327 . S
C1527 H1550 0.950 . S
C1528 C1527 1.349 . S
C1528 C1540 1.349 . S
C1529 C1527 1.327 . S
C1529 C1545 1.429 . S
C1529 H1551 0.950 . S
C1530 H1526 0.949 . S
C1530 C1538 1.574 . S
C1530 C1546 1.368 . S
H1531 C1539 0.950 . S
H1532 C1537 0.950 . S
H1533 C1538 0.949 . S
H1534 C1540 0.950 . S
H1535 C1541 0.950 . S
H1536 C1542 0.949 . S
C1537 H1532 0.950 . S
C1537 C1539 1.327 . S
C1537 C1543 1.429 . S
C1538 C1530 1.574 . S
C1538 H1533 0.949 . S
C1538 C1544 1.368 . S
C1539 C1523 1.349 . S
C1539 H1531 0.950 . S
C1539 C1537 1.327 . S
C1540 C1528 1.349 . S
C1540 H1534 0.950 . S
C1540 C1541 1.327 . S
C1541 H1535 0.950 . S
C1541 C1540 1.327 . S
C1541 C1545 1.429 . S
C1542 C1525 1.574 . S
C1542 H1536 0.949 . S
C1542 C1546 1.368 . S
C1543 C1524 1.429 . S
C1543 C1537 1.429 . S
C1543 C1544 1.523 . S
C1544 C1525 1.368 . S
C1544 C1538 1.368 . S
C1544 C1543 1.523 . S
C1545 C1529 1.429 . S
C1545 C1541 1.429 . S
C1545 C1546 1.523 . S
C1546 C1530 1.368 . S
C1546 C1542 1.368 . S
C1546 C1545 1.523 . S
H1547 C1522 0.950 . S
H1548 C1524 0.950 . S
H1549 C1525 0.949 . S
H1550 C1527 0.950 . S
H1551 C1529 0.950 . S
C1552 C1553 1.349 . S
C1552 C1554 1.327 . S
C1552 H1577 0.950 . S
C1553 C1552 1.349 . S
C1553 C1569 1.349 . S
C1554 C1552 1.327 . S
C1554 C1573 1.429 . S
C1554 H1578 0.950 . S
C1555 C1572 1.574 . S
C1555 C1574 1.368 . S
C1555 H1579 0.949 . S
H1556 C1560 0.949 . S
C1557 C1558 1.349 . S
C1557 C1559 1.327 . S
C1557 H1580 0.950 . S
C1558 C1557 1.349 . S
C1558 C1570 1.349 . S
C1559 C1557 1.327 . S
C1559 C1575 1.429 . S
C1559 H1581 0.950 . S
C1560 H1556 0.949 . S
C1560 C1568 1.574 . S
C1560 C1576 1.368 . S
H1561 C1569 0.950 . S
H1562 C1567 0.950 . S
H1563 C1568 0.949 . S
H1564 C1570 0.950 . S
H1565 C1571 0.950 . S
H1566 C1572 0.949 . S
C1567 H1562 0.950 . S
C1567 C1569 1.327 . S
C1567 C1573 1.429 . S
C1568 C1560 1.574 . S
C1568 H1563 0.949 . S
C1568 C1574 1.368 . S
C1569 C1553 1.349 . S
C1569 H1561 0.950 . S
C1569 C1567 1.327 . S
C1570 C1558 1.349 . S
C1570 H1564 0.950 . S
C1570 C1571 1.327 . S
C1571 H1565 0.950 . S
C1571 C1570 1.327 . S
C1571 C1575 1.429 . S
C1572 C1555 1.574 . S
C1572 H1566 0.949 . S
C1572 C1576 1.368 . S
C1573 C1554 1.429 . S
C1573 C1567 1.429 . S
C1573 C1574 1.523 . S
C1574 C1555 1.368 . S
C1574 C1568 1.368 . S
C1574 C1573 1.523 . S
C1575 C1559 1.429 . S
C1575 C1571 1.429 . S
C1575 C1576 1.523 . S
C1576 C1560 1.368 . S
C1576 C1572 1.368 . S
C1576 C1575 1.523 . S
H1577 C1552 0.950 . S
H1578 C1554 0.950 . S
H1579 C1555 0.949 . S
H1580 C1557 0.950 . S
H1581 C1559 0.950 . S
C1582 C1583 1.349 . S
C1582 C1584 1.327 . S
C1582 H1607 0.950 . S
C1583 C1582 1.349 . S
C1583 C1599 1.349 . S
C1584 C1582 1.327 . S
C1584 C1603 1.429 . S
C1584 H1608 0.950 . S
C1585 C1602 1.574 . S
C1585 C1604 1.368 . S
C1585 H1609 0.949 . S
H1586 C1590 0.949 . S
C1587 C1588 1.349 . S
C1587 C1589 1.327 . S
C1587 H1610 0.950 . S
C1588 C1587 1.349 . S
C1588 C1600 1.349 . S
C1589 C1587 1.327 . S
C1589 C1605 1.429 . S
C1589 H1611 0.950 . S
C1590 H1586 0.949 . S
C1590 C1598 1.574 . S
C1590 C1606 1.368 . S
H1591 C1599 0.950 . S
H1592 C1597 0.950 . S
H1593 C1598 0.949 . S
H1594 C1600 0.950 . S
H1595 C1601 0.950 . S
H1596 C1602 0.949 . S
C1597 H1592 0.950 . S
C1597 C1599 1.327 . S
C1597 C1603 1.429 . S
C1598 C1590 1.574 . S
C1598 H1593 0.949 . S
C1598 C1604 1.368 . S
C1599 C1583 1.349 . S
C1599 H1591 0.950 . S
C1599 C1597 1.327 . S
C1600 C1588 1.349 . S
C1600 H1594 0.950 . S
C1600 C1601 1.327 . S
C1601 H1595 0.950 . S
C1601 C1600 1.327 . S
C1601 C1605 1.429 . S
C1602 C1585 1.574 . S
C1602 H1596 0.949 . S
C1602 C1606 1.368 . S
C1603 C1584 1.429 . S
C1603 C1597 1.429 . S
C1603 C1604 1.523 . S
C1604 C1585 1.368 . S
C1604 C1598 1.368 . S
C1604 C1603 1.523 . S
C1605 C1589 1.429 . S
C1605 C1601 1.429 . S
C1605 C1606 1.523 . S
C1606 C1590 1.368 . S
C1606 C1602 1.368 . S
C1606 C1605 1.523 . S
H1607 C1582 0.950 . S
H1608 C1584 0.950 . S
H1609 C1585 0.949 . S
H1610 C1587 0.950 . S
H1611 C1589 0.950 . S
C1612 C1613 1.349 . S
C1612 C1614 1.327 . S
C1612 H1637 0.950 . S
C1613 C1612 1.349 . S
C1613 C1629 1.349 . S
C1614 C1612 1.327 . S
C1614 C1633 1.429 . S
C1614 H1638 0.950 . S
C1615 C1632 1.574 . S
C1615 C1634 1.368 . S
C1615 H1639 0.949 . S
H1616 C1620 0.949 . S
C1617 C1618 1.349 . S
C1617 C1619 1.327 . S
C1617 H1640 0.950 . S
C1618 C1617 1.349 . S
C1618 C1630 1.349 . S
C1619 C1617 1.327 . S
C1619 C1635 1.429 . S
C1619 H1641 0.950 . S
C1620 H1616 0.949 . S
C1620 C1628 1.574 . S
C1620 C1636 1.368 . S
H1621 C1629 0.950 . S
H1622 C1627 0.950 . S
H1623 C1628 0.949 . S
H1624 C1630 0.950 . S
H1625 C1631 0.950 . S
H1626 C1632 0.949 . S
C1627 H1622 0.950 . S
C1627 C1629 1.327 . S
C1627 C1633 1.429 . S
C1628 C1620 1.574 . S
C1628 H1623 0.949 . S
C1628 C1634 1.368 . S
C1629 C1613 1.349 . S
C1629 H1621 0.950 . S
C1629 C1627 1.327 . S
C1630 C1618 1.349 . S
C1630 H1624 0.950 . S
C1630 C1631 1.327 . S
C1631 H1625 0.950 . S
C1631 C1630 1.327 . S
C1631 C1635 1.429 . S
C1632 C1615 1.574 . S
C1632 H1626 0.949 . S
C1632 C1636 1.368 . S
C1633 C1614 1.429 . S
C1633 C1627 1.429 . S
C1633 C1634 1.523 . S
C1634 C1615 1.368 . S
C1634 C1628 1.368 . S
C1634 C1633 1.523 . S
C1635 C1619 1.429 . S
C1635 C1631 1.429 . S
C1635 C1636 1.523 . S
C1636 C1620 1.368 . S
C1636 C1632 1.368 . S
C1636 C1635 1.523 . S
H1637 C1612 0.950 . S
H1638 C1614 0.950 . S
H1639 C1615 0.949 . S
H1640 C1617 0.950 . S
H1641 C1619 0.950 . S
C1642 C1643 1.349 . S
C1642 C1644 1.327 . S
C1642 H1667 0.950 . S
C1643 C1642 1.349 . S
C1643 C1659 1.349 . S
C1644 C1642 1.327 . S
C1644 C1663 1.429 . S
C1644 H1668 0.950 . S
C1645 C1662 1.574 . S
C1645 C1664 1.368 . S
C1645 H1669 0.949 . S
H1646 C1650 0.949 . S
C1647 C1648 1.349 . S
C1647 C1649 1.327 . S
C1647 H1670 0.950 . S
C1648 C1647 1.349 . S
C1648 C1660 1.349 . S
C1649 C1647 1.327 . S
C1649 C1665 1.429 . S
C1649 H1671 0.950 . S
C1650 H1646 0.949 . S
C1650 C1658 1.574 . S
C1650 C1666 1.368 . S
H1651 C1659 0.950 . S
H1652 C1657 0.950 . S
H1653 C1658 0.949 . S
H1654 C1660 0.950 . S
H1655 C1661 0.950 . S
H1656 C1662 0.949 . S
C1657 H1652 0.950 . S
C1657 C1659 1.327 . S
C1657 C1663 1.429 . S
C1658 C1650 1.574 . S
C1658 H1653 0.949 . S
C1658 C1664 1.368 . S
C1659 C1643 1.349 . S
C1659 H1651 0.950 . S
C1659 C1657 1.327 . S
C1660 C1648 1.349 . S
C1660 H1654 0.950 . S
C1660 C1661 1.327 . S
C1661 H1655 0.950 . S
C1661 C1660 1.327 . S
C1661 C1665 1.429 . S
C1662 C1645 1.574 . S
C1662 H1656 0.949 . S
C1662 C1666 1.368 . S
C1663 C1644 1.429 . S
C1663 C1657 1.429 . S
C1663 C1664 1.523 . S
C1664 C1645 1.368 . S
C1664 C1658 1.368 . S
C1664 C1663 1.523 . S
C1665 C1649 1.429 . S
C1665 C1661 1.429 . S
C1665 C1666 1.523 . S
C1666 C1650 1.368 . S
C1666 C1662 1.368 . S
C1666 C1665 1.523 . S
H1667 C1642 0.950 . S
H1668 C1644 0.950 . S
H1669 C1645 0.949 . S
H1670 C1647 0.950 . S
H1671 C1649 0.950 . S
C1672 C1673 1.349 . S
C1672 C1674 1.327 . S
C1672 H1697 0.950 . S
C1673 C1672 1.349 . S
C1673 C1689 1.349 . S
C1674 C1672 1.327 . S
C1674 C1693 1.429 . S
C1674 H1698 0.950 . S
C1675 C1692 1.574 . S
C1675 C1694 1.368 . S
C1675 H1699 0.949 . S
H1676 C1680 0.949 . S
C1677 C1678 1.349 . S
C1677 C1679 1.327 . S
C1677 H1700 0.950 . S
C1678 C1677 1.349 . S
C1678 C1690 1.349 . S
C1679 C1677 1.327 . S
C1679 C1695 1.429 . S
C1679 H1701 0.950 . S
C1680 H1676 0.949 . S
C1680 C1688 1.574 . S
C1680 C1696 1.368 . S
H1681 C1689 0.950 . S
H1682 C1687 0.950 . S
H1683 C1688 0.949 . S
H1684 C1690 0.950 . S
H1685 C1691 0.950 . S
H1686 C1692 0.949 . S
C1687 H1682 0.950 . S
C1687 C1689 1.327 . S
C1687 C1693 1.429 . S
C1688 C1680 1.574 . S
C1688 H1683 0.949 . S
C1688 C1694 1.368 . S
C1689 C1673 1.349 . S
C1689 H1681 0.950 . S
C1689 C1687 1.327 . S
C1690 C1678 1.349 . S
C1690 H1684 0.950 . S
C1690 C1691 1.327 . S
C1691 H1685 0.950 . S
C1691 C1690 1.327 . S
C1691 C1695 1.429 . S
C1692 C1675 1.574 . S
C1692 H1686 0.949 . S
C1692 C1696 1.368 . S
C1693 C1674 1.429 . S
C1693 C1687 1.429 . S
C1693 C1694 1.523 . S
C1694 C1675 1.368 . S
C1694 C1688 1.368 . S
C1694 C1693 1.523 . S
C1695 C1679 1.429 . S
C1695 C1691 1.429 . S
C1695 C1696 1.523 . S
C1696 C1680 1.368 . S
C1696 C1692 1.368 . S
C1696 C1695 1.523 . S
H1697 C1672 0.950 . S
H1698 C1674 0.950 . S
H1699 C1675 0.949 . S
H1700 C1677 0.950 . S
H1701 C1679 0.950 . S
C1702 C1703 1.349 . S
C1702 C1704 1.327 . S
C1702 H1727 0.950 . S
C1703 C1702 1.349 . S
C1703 C1719 1.349 . S
C1704 C1702 1.327 . S
C1704 C1723 1.429 . S
C1704 H1728 0.950 . S
C1705 C1722 1.574 . S
C1705 C1724 1.368 . S
C1705 H1729 0.949 . S
H1706 C1710 0.949 . S
C1707 C1708 1.349 . S
C1707 C1709 1.327 . S
C1707 H1730 0.950 . S
C1708 C1707 1.349 . S
C1708 C1720 1.349 . S
C1709 C1707 1.327 . S
C1709 C1725 1.429 . S
C1709 H1731 0.950 . S
C1710 H1706 0.949 . S
C1710 C1718 1.574 . S
C1710 C1726 1.368 . S
H1711 C1719 0.950 . S
H1712 C1717 0.950 . S
H1713 C1718 0.949 . S
H1714 C1720 0.950 . S
H1715 C1721 0.950 . S
H1716 C1722 0.949 . S
C1717 H1712 0.950 . S
C1717 C1719 1.327 . S
C1717 C1723 1.429 . S
C1718 C1710 1.574 . S
C1718 H1713 0.949 . S
C1718 C1724 1.368 . S
C1719 C1703 1.349 . S
C1719 H1711 0.950 . S
C1719 C1717 1.327 . S
C1720 C1708 1.349 . S
C1720 H1714 0.950 . S
C1720 C1721 1.327 . S
C1721 H1715 0.950 . S
C1721 C1720 1.327 . S
C1721 C1725 1.429 . S
C1722 C1705 1.574 . S
C1722 H1716 0.949 . S
C1722 C1726 1.368 . S
C1723 C1704 1.429 . S
C1723 C1717 1.429 . S
C1723 C1724 1.523 . S
C1724 C1705 1.368 . S
C1724 C1718 1.368 . S
C1724 C1723 1.523 . S
C1725 C1709 1.429 . S
C1725 C1721 1.429 . S
C1725 C1726 1.523 . S
C1726 C1710 1.368 . S
C1726 C1722 1.368 . S
C1726 C1725 1.523 . S
H1727 C1702 0.950 . S
H1728 C1704 0.950 . S
H1729 C1705 0.949 . S
H1730 C1707 0.950 . S
H1731 C1709 0.950 . S
C1732 C1733 1.349 . S
C1732 C1734 1.327 . S
C1732 H1757 0.950 . S
C1733 C1732 1.349 . S
C1733 C1749 1.349 . S
C1734 C1732 1.327 . S
C1734 C1753 1.429 . S
C1734 H1758 0.950 . S
C1735 C1752 1.574 . S
C1735 C1754 1.368 . S
C1735 H1759 0.949 . S
H1736 C1740 0.949 . S
C1737 C1738 1.349 . S
C1737 C1739 1.327 . S
C1737 H1760 0.950 . S
C1738 C1737 1.349 . S
C1738 C1750 1.349 . S
C1739 C1737 1.327 . S
C1739 C1755 1.429 . S
C1739 H1761 0.950 . S
C1740 H1736 0.949 . S
C1740 C1748 1.574 . S
C1740 C1756 1.368 . S
H1741 C1749 0.950 . S
H1742 C1747 0.950 . S
H1743 C1748 0.949 . S
H1744 C1750 0.950 . S
H1745 C1751 0.950 . S
H1746 C1752 0.949 . S
C1747 H1742 0.950 . S
C1747 C1749 1.327 . S
C1747 C1753 1.429 . S
C1748 C1740 1.574 . S
C1748 H1743 0.949 . S
C1748 C1754 1.368 . S
C1749 C1733 1.349 . S
C1749 H1741 0.950 . S
C1749 C1747 1.327 . S
C1750 C1738 1.349 . S
C1750 H1744 0.950 . S
C1750 C1751 1.327 . S
C1751 H1745 0.950 . S
C1751 C1750 1.327 . S
C1751 C1755 1.429 . S
C1752 C1735 1.574 . S
C1752 H1746 0.949 . S
C1752 C1756 1.368 . S
C1753 C1734 1.429 . S
C1753 C1747 1.429 . S
C1753 C1754 1.523 . S
C1754 C1735 1.368 . S
C1754 C1748 1.368 . S
C1754 C1753 1.523 . S
C1755 C1739 1.429 . S
C1755 C1751 1.429 . S
C1755 C1756 1.523 . S
C1756 C1740 1.368 . S
C1756 C1752 1.368 . S
C1756 C1755 1.523 . S
H1757 C1732 0.950 . S
H1758 C1734 0.950 . S
H1759 C1735 0.949 . S
H1760 C1737 0.950 . S
H1761 C1739 0.950 . S
C1762 C1763 1.349 . S
C1762 C1764 1.327 . S
C1762 H1787 0.950 . S
C1763 C1762 1.349 . S
C1763 C1779 1.349 . S
C1764 C1762 1.327 . S
C1764 C1783 1.429 . S
C1764 H1788 0.950 . S
C1765 C1782 1.574 . S
C1765 C1784 1.368 . S
C1765 H1789 0.949 . S
H1766 C1770 0.949 . S
C1767 C1768 1.349 . S
C1767 C1769 1.327 . S
C1767 H1790 0.950 . S
C1768 C1767 1.349 . S
C1768 C1780 1.349 . S
C1769 C1767 1.327 . S
C1769 C1785 1.429 . S
C1769 H1791 0.950 . S
C1770 H1766 0.949 . S
C1770 C1778 1.574 . S
C1770 C1786 1.368 . S
H1771 C1779 0.950 . S
H1772 C1777 0.950 . S
H1773 C1778 0.949 . S
H1774 C1780 0.950 . S
H1775 C1781 0.950 . S
H1776 C1782 0.949 . S
C1777 H1772 0.950 . S
C1777 C1779 1.327 . S
C1777 C1783 1.429 . S
C1778 C1770 1.574 . S
C1778 H1773 0.949 . S
C1778 C1784 1.368 . S
C1779 C1763 1.349 . S
C1779 H1771 0.950 . S
C1779 C1777 1.327 . S
C1780 C1768 1.349 . S
C1780 H1774 0.950 . S
C1780 C1781 1.327 . S
C1781 H1775 0.950 . S
C1781 C1780 1.327 . S
C1781 C1785 1.429 . S
C1782 C1765 1.574 . S
C1782 H1776 0.949 . S
C1782 C1786 1.368 . S
C1783 C1764 1.429 . S
C1783 C1777 1.429 . S
C1783 C1784 1.523 . S
C1784 C1765 1.368 . S
C1784 C1778 1.368 . S
C1784 C1783 1.523 . S
C1785 C1769 1.429 . S
C1785 C1781 1.429 . S
C1785 C1786 1.523 . S
C1786 C1770 1.368 . S
C1786 C1782 1.368 . S
C1786 C1785 1.523 . S
H1787 C1762 0.950 . S
H1788 C1764 0.950 . S
H1789 C1765 0.949 . S
H1790 C1767 0.950 . S
H1791 C1769 0.950 . S
C353 C10 1.543 . S
C358 C329 1.596 . S
C383 C32 1.543 . S
C388 C351 1.596 . S
C413 C52 1.543 . S
C418 C279 1.596 . S
C443 C301 1.596 . S
C448 C76 1.543 . S
C473 C235 1.604 . S
C478 C96 1.555 . S
C503 C263 1.604 . S
C508 C118 1.555 . S
C533 C197 1.604 . S
C538 C142 1.555 . S
C563 C219 1.604 . S
C568 C172 1.555 . S
C593 C186 1.543 . S
C598 C139 1.596 . S
C623 C175 1.596 . S
C628 C208 1.543 . S
C653 C103 1.596 . S
C658 C238 1.543 . S
C683 C125 1.596 . S
C688 C252 1.543 . S
C713 C51 1.604 . S
C718 C272 1.555 . S
C743 C294 1.555 . S
C748 C87 1.604 . S
C773 C21 1.604 . S
C778 C326 1.555 . S
C803 C348 1.555 . S
C808 C43 1.604 . S
C833 C7 1.136 . S
C838 C59 1.136 . S
C863 C73 1.136 . S
C868 C29 1.136 . S
C893 C153 1.143 . S
C898 C95 1.143 . S
C923 C169 1.143 . S
C928 C117 1.143 . S
C953 C241 1.136 . S
C958 C183 1.136 . S
C983 C249 1.136 . S
C988 C205 1.136 . S
C1013 C323 1.143 . S
C1018 C271 1.143 . S
C1043 C293 1.143 . S
C1048 C345 1.143 . S
C1073 C18 1.509 . S
C1078 C140 1.507 . S
C1103 C40 1.509 . S
C1108 C164 1.507 . S
C1133 C106 1.507 . S
C1138 C54 1.509 . S
C1163 C84 1.509 . S
C1168 C128 1.507 . S
C1193 C194 1.509 . S
C1198 C318 1.507 . S
C1223 C340 1.507 . S
C1228 C216 1.509 . S
C1253 C282 1.507 . S
C1258 C228 1.509 . S
C1283 C260 1.509 . S
C1288 C304 1.507 . S
C1313 C15 0.687 . S
C1318 C285 0.685 . S
C1343 C307 0.685 . S
C1348 C37 0.687 . S
C1373 C315 0.685 . S
C1378 C65 0.687 . S
C1403 C337 0.685 . S
C1408 C81 0.687 . S
C1433 C191 0.687 . S
C1438 C109 0.685 . S
C1463 C213 0.687 . S
C1468 C131 0.685 . S
C1493 C147 0.685 . S
C1498 C227 0.687 . S
C1523 C257 0.687 . S
C1528 C161 0.685 . S
C1553 C8 1.405 . S
C1558 C120 1.404 . S
C1583 C98 1.404 . S
C1588 C30 1.405 . S
C1613 C62 1.405 . S
C1618 C162 1.404 . S
C1643 C150 1.404 . S
C1648 C74 1.405 . S
C1673 C184 1.405 . S
C1678 C296 1.404 . S
C1703 C274 1.404 . S
C1708 C206 1.405 . S
C1733 C338 1.404 . S
C1738 C230 1.405 . S
C1763 C250 1.405 . S
C1768 C316 1.404 . S
