# Generated by pormake.
# Topology snk, (6)-cn, num edge types: 1
# Building blocks:
#     Node 0, Type 0, BuildingBlock: UKALOJ_clean_sbu_0, # of connection points: 6
#     Node 1, Type 0, BuildingBlock: UKALOJ_clean_sbu_0, # of connection points: 6
#     Node 2, Type 0, BuildingBlock: UKALOJ_clean_sbu_0, # of connection points: 6
#     Node 3, Type 0, BuildingBlock: UKALOJ_clean_sbu_0, # of connection points: 6
#     Node 4, Type 0, BuildingBlock: UKALOJ_clean_sbu_0, # of connection points: 6
#     Node 5, Type 0, BuildingBlock: UKALOJ_clean_sbu_0, # of connection points: 6
#     Node 6, Type 0, BuildingBlock: UKALOJ_clean_sbu_0, # of connection points: 6
#     Node 7, Type 0, BuildingBlock: UKALOJ_clean_sbu_0, # of connection points: 6
#     Edge 8, Type (0, 0), BuildingBlock: AJUNOK_clean_linker_0, # of connection points: 2
#     Edge 9, Type (0, 0), BuildingBlock: AJUNOK_clean_linker_0, # of connection points: 2
#     Edge 10, Type (0, 0), BuildingBlock: AJUNOK_clean_linker_0, # of connection points: 2
#     Edge 11, Type (0, 0), BuildingBlock: AJUNOK_clean_linker_0, # of connection points: 2
#     Edge 12, Type (0, 0), BuildingBlock: AJUNOK_clean_linker_0, # of connection points: 2
#     Edge 13, Type (0, 0), BuildingBlock: AJUNOK_clean_linker_0, # of connection points: 2
#     Edge 14, Type (0, 0), BuildingBlock: AJUNOK_clean_linker_0, # of connection points: 2
#     Edge 15, Type (0, 0), BuildingBlock: AJUNOK_clean_linker_0, # of connection points: 2
#     Edge 16, Type (0, 0), BuildingBlock: AJUNOK_clean_linker_0, # of connection points: 2
#     Edge 17, Type (0, 0), BuildingBlock: AJUNOK_clean_linker_0, # of connection points: 2
#     Edge 18, Type (0, 0), BuildingBlock: AJUNOK_clean_linker_0, # of connection points: 2
#     Edge 19, Type (0, 0), BuildingBlock: AJUNOK_clean_linker_0, # of connection points: 2
#     Edge 20, Type (0, 0), BuildingBlock: AJUNOK_clean_linker_0, # of connection points: 2
#     Edge 21, Type (0, 0), BuildingBlock: AJUNOK_clean_linker_0, # of connection points: 2
#     Edge 22, Type (0, 0), BuildingBlock: AJUNOK_clean_linker_0, # of connection points: 2
#     Edge 23, Type (0, 0), BuildingBlock: AJUNOK_clean_linker_0, # of connection points: 2
#     Edge 24, Type (0, 0), BuildingBlock: AJUNOK_clean_linker_0, # of connection points: 2
#     Edge 25, Type (0, 0), BuildingBlock: AJUNOK_clean_linker_0, # of connection points: 2
#     Edge 26, Type (0, 0), BuildingBlock: AJUNOK_clean_linker_0, # of connection points: 2
#     Edge 27, Type (0, 0), BuildingBlock: AJUNOK_clean_linker_0, # of connection points: 2
#     Edge 28, Type (0, 0), BuildingBlock: AJUNOK_clean_linker_0, # of connection points: 2
#     Edge 29, Type (0, 0), BuildingBlock: AJUNOK_clean_linker_0, # of connection points: 2
#     Edge 30, Type (0, 0), BuildingBlock: AJUNOK_clean_linker_0, # of connection points: 2
#     Edge 31, Type (0, 0), BuildingBlock: AJUNOK_clean_linker_0, # of connection points: 2
# Relax obj value: 0.209
# Max RMSD: 0.114
# Mean RMSD: 0.107
data_MOF--net-snk--node1-UKALOJ_clean_sbu_0--edge1-AJUNOK_clean_linker_0
_symmetry_space_group_name_H-M    P1
_symmetry_Int_Tables_number       1
_symmetry_cell_setting            triclinic
loop_
_symmetry_equiv_pos_as_xyz
'x, y, z'
_cell_length_a     36.291367
_cell_length_b     36.233737
_cell_length_c     11.359977
_cell_angle_alpha  77.190299
_cell_angle_beta   77.158162
_cell_angle_gamma 94.537382
loop_
_atom_site_label
_atom_site_type_symbol
_atom_site_fract_x
_atom_site_fract_y
_atom_site_fract_z
_atom_type_partial_charge
Zn0 Zn 0.08107 1.02836 0.52084 0.0
O1 O 0.07785 1.02846 0.70794 0.0
C2 C 0.99799 0.98854 0.58794 0.0
Zn3 Zn 1.03868 0.06996 0.52173 0.0
C4 C 0.0573 0.04841 0.76705 0.0
O5 O 1.03593 0.06867 0.71295 0.0
C6 C 0.06388 0.05073 0.27428 0.0
O7 O 0.08633 0.11648 0.46588 0.0
O8 O 0.12871 0.0767 0.46469 0.0
N9 N 1.00062 0.10918 0.51685 0.0
C10 C 0.96949 0.11242 0.47024 0.0
C11 C 0.97768 0.16069 0.54449 0.0
N12 N 1.00546 0.13917 0.56328 0.0
N13 N 0.95455 0.14433 0.48733 0.0
C14 C 0.11831 0.95725 0.62786 0.0
C15 C 0.1658 0.95741 0.47897 0.0
N16 N 0.1182 0.98752 0.53331 0.0
N17 N 0.14776 0.98739 0.44085 0.0
N18 N 0.14783 0.93804 0.59611 0.0
H19 H 0.06225 0.95776 0.74472 0.0
H20 H 0.10024 0.95312 0.82327 0.0
H21 H 0.08167 0.91327 0.7755 0.0
C22 C 0.08863 0.94486 0.74909 0.0
C23 C 0.95521 0.08623 0.40004 0.0
H24 H 0.95645 0.10274 0.30414 0.0
H25 H 0.92492 0.07468 0.44518 0.0
H26 H 0.97193 0.06219 0.39551 0.0
O27 O 1.04273 0.07082 0.33151 0.0
O28 O 0.08419 1.02985 0.3315 0.0
C29 C 0.12133 0.11125 0.44911 0.0
O30 O 1.03258 0.98192 0.57238 0.0
O31 O 0.99189 1.02317 0.57672 0.0
Zn32 Zn 0.24994 0.74552 0.92577 0.0
O33 O 0.20787 0.78443 0.89726 0.0
C34 C 0.27802 0.76943 0.64177 0.0
Zn35 Zn 0.29246 0.79672 0.85424 0.0
C36 C 0.21755 0.82052 0.85924 0.0
O37 O 0.25207 0.83419 0.84154 0.0
C38 C 0.32766 0.72439 0.90941 0.0
O39 O 0.28614 0.79667 0.04717 0.0
O40 O 0.24275 0.74633 0.11626 0.0
N41 N 0.33417 0.84087 0.80004 0.0
C42 C 0.36121 0.8493 0.8572 0.0
C43 C 0.36818 0.89392 0.6928 0.0
N44 N 0.33874 0.86819 0.69693 0.0
N45 N 0.38307 0.88227 0.79117 0.0
C46 C 0.1853 0.69813 0.90444 0.0
C47 C 0.21316 0.64914 0.89685 0.0
N48 N 0.21067 0.69822 0.97398 0.0
N49 N 0.22669 0.66668 0.97386 0.0
N50 N 0.18773 0.66889 0.84899 0.0
H51 H 0.14609 0.72768 0.0093 0.0
H52 H 0.12588 0.7019 0.91343 0.0
H53 H 0.15649 0.74604 0.84339 0.0
C54 C 0.15152 0.71964 0.91877 0.0
C55 C 0.36283 0.82808 0.98572 0.0
H56 H 0.3548 0.79702 0.00107 0.0
H57 H 0.34305 0.83889 0.05578 0.0
H58 H 0.39124 0.8321 0.00394 0.0
O59 O 0.3349 0.76005 0.862 0.0
O60 O 0.29309 0.70932 0.94788 0.0
C61 C 0.26441 0.77189 0.13819 0.0
O62 O 0.25789 0.74334 0.73266 0.0
O63 O 0.29678 0.79699 0.66431 0.0
Zn64 Zn 0.60242 0.10347 0.88119 0.0
O65 O 0.56753 0.14797 0.89507 0.0
C66 C 0.57901 0.07579 0.16595 0.0
Zn67 Zn 0.55548 0.05586 0.95716 0.0
C68 C 0.53211 0.13543 0.93888 0.0
O69 O 0.52117 0.09973 0.96421 0.0
C70 C 0.62438 1.0218 0.90866 0.0
O71 O 0.5548 0.06068 0.76503 0.0
O72 O 0.60073 0.10868 0.69244 0.0
N73 N 0.50912 1.01685 0.01274 0.0
C74 C 0.50114 0.98644 0.96884 0.0
C75 C 0.45187 0.99034 0.10597 0.0
N76 N 0.47878 1.01904 0.09925 0.0
N77 N 0.46546 0.96919 0.0264 0.0
C78 C 0.67065 0.15242 0.89632 0.0
C79 C 0.71234 0.12947 0.7809 0.0
N80 N 0.65322 0.13868 0.81959 0.0
N81 N 0.67976 0.12606 0.74371 0.0
N82 N 0.7072 0.14542 0.87838 0.0
H83 H 0.66865 0.1967 0.99244 0.0
H84 H 0.64947 0.15082 0.09012 0.0
H85 H 0.62225 0.17549 0.98803 0.0
C86 C 0.65113 0.16973 -0.00252 0.0
C87 C 0.52702 0.97488 0.86349 0.0
H88 H 0.51133 0.97017 0.79353 0.0
H89 H 0.53741 0.9479 0.90075 0.0
H90 H 0.55267 0.99541 0.81609 0.0
O91 O 0.58911 1.01174 0.95533 0.0
O92 O 0.63667 0.05725 0.87164 0.0
C93 C 0.57675 0.08483 0.67276 0.0
O94 O 0.60249 0.0987 0.07385 0.0
O95 O 0.55535 0.05177 0.14577 0.0
Zn96 Zn 0.32984 0.28233 0.23528 0.0
O97 O 0.33181 0.28368 0.04807 0.0
C98 C 0.37176 0.36337 0.17054 0.0
Zn99 Zn 0.28881 0.32495 0.23601 0.0
C100 C 0.31218 0.30469 0.98947 0.0
O101 O 0.2919 0.32558 0.04521 0.0
C102 C 0.30679 0.30154 0.4818 0.0
O103 O 0.24043 0.27785 0.29257 0.0
O104 O 0.28126 0.23633 0.29078 0.0
N105 N 0.25452 0.36765 0.21706 0.0
C106 C 0.23003 0.38403 0.2915 0.0
C107 C 0.23771 0.41672 0.10501 0.0
N108 N 0.25909 0.38823 0.10164 0.0
N109 N 0.2191 0.41501 0.22297 0.0
C110 C 0.40094 0.24305 0.15064 0.0
C111 C 0.38941 0.18981 0.28603 0.0
N112 N 0.368 0.24339 0.23406 0.0
N113 N 0.36109 0.21033 0.31852 0.0
N114 N 0.41499 0.20994 0.18189 0.0
H115 H 0.42415 0.26073 0.95281 0.0
H116 H 0.44619 0.28686 0.04071 0.0
H117 H 0.40027 0.29632 0.01709 0.0
C118 C 0.41838 0.27365 0.03388 0.0
C119 C 0.21633 0.36899 0.42959 0.0
H120 H 0.21534 0.33747 0.45516 0.0
H121 H 0.18763 0.37674 0.46407 0.0
H122 H 0.23651 0.38162 0.47495 0.0
O123 O 0.28671 0.32328 0.42606 0.0
O124 O 0.32682 0.28089 0.42344 0.0
C125 C 0.24658 0.2429 0.30796 0.0
O126 O 0.37728 0.32855 0.18446 0.0
O127 O 0.33748 0.37056 0.18253 0.0
Zn128 Zn 0.75209 0.24639 0.37378 0.0
O129 O 0.70833 0.28298 0.35654 0.0
C130 C 0.78065 0.27055 0.08633 0.0
Zn131 Zn 0.7999 0.29303 0.29474 0.0
C132 C 0.72138 0.31845 0.31443 0.0
O133 O 0.75715 0.32873 0.28962 0.0
C134 C 0.83341 0.22354 0.34726 0.0
O135 O 0.7948 0.29199 0.48934 0.0
O136 O 0.74562 0.24728 0.56315 0.0
N137 N 0.84019 0.33822 0.24375 0.0
C138 C 0.87051 0.3443 0.28999 0.0
C139 C 0.86888 0.39502 0.15518 0.0
N140 N 0.83945 0.36944 0.1584 0.0
N141 N 0.88909 0.37971 0.23562 0.0
C142 C 0.70456 0.18191 0.34061 0.0
C143 C 0.73101 0.13867 0.43572 0.0
N144 N 0.71615 0.19568 0.4284 0.0
N145 N 0.73062 0.1677 0.49221 0.0
N146 N 0.71535 0.14726 0.33814 0.0
H147 H 0.67509 0.2294 0.27903 0.0
H148 H 0.65729 0.1836 0.25901 0.0
H149 H 0.70004 0.20903 0.15668 0.0
C150 C 0.68314 0.20273 0.25417 0.0
C151 C 0.88101 0.31668 0.39395 0.0
H152 H 0.88623 0.3312 0.46617 0.0
H153 H 0.90746 0.30558 0.35557 0.0
H154 H 0.85967 0.29153 0.43942 0.0
O155 O 0.84286 0.25849 0.29393 0.0
O156 O 0.79812 0.21107 0.38856 0.0
C157 C 0.77031 0.27057 0.5821 0.0
O158 O 0.758 0.24723 0.17941 0.0
O159 O 0.80444 0.29471 0.10508 0.0
Zn160 Zn 0.82977 0.7813 0.74451 0.0
O161 O 0.83054 0.78388 0.55479 0.0
C162 C 0.87188 0.86196 0.67778 0.0
Zn163 Zn 0.78844 0.82329 0.74391 0.0
C164 C 0.8106 0.80508 0.49782 0.0
O165 O 0.79013 0.82539 0.55551 0.0
C166 C 0.80751 0.80033 0.98988 0.0
O167 O 0.73971 0.77744 0.80069 0.0
O168 O 0.78047 0.73595 0.80019 0.0
N169 N 0.75489 0.86612 0.73374 0.0
C170 C 0.72691 0.87717 0.81321 0.0
C171 C 0.74421 0.9223 0.6478 0.0
N172 N 0.76518 0.89412 0.63088 0.0
N173 N 0.72011 0.91255 0.76169 0.0
C174 C 0.89553 0.73761 0.64773 0.0
C175 C 0.88443 0.68551 0.78861 0.0
N176 N 0.86609 0.74085 0.73974 0.0
N177 N 0.85946 0.70855 0.82756 0.0
N178 N 0.90732 0.70312 0.67602 0.0
H179 H 0.90026 0.75542 0.45193 0.0
H180 H 0.94186 0.77026 0.49828 0.0
H181 H 0.90069 0.79437 0.52721 0.0
C182 C 0.91028 0.76631 0.52489 0.0
C183 C 0.70779 0.85442 0.94253 0.0
H184 H 0.71767 0.82607 0.96258 0.0
H185 H 0.67651 0.85017 0.95357 0.0
H186 H 0.71334 0.87058 0.01046 0.0
O187 O 0.78762 0.82117 0.93102 0.0
O188 O 0.82782 0.77898 0.93538 0.0
C189 C 0.74582 0.74256 0.8166 0.0
O190 O 0.87835 0.82733 0.69253 0.0
O191 O 0.83732 0.86811 0.68969 0.0
Zn192 Zn 0.58053 0.52955 0.02137 0.0
O193 O 0.57757 0.52869 0.20864 0.0
C194 C 0.49779 0.48927 0.08568 0.0
Zn195 Zn 0.5378 0.57049 0.02253 0.0
C196 C 0.55627 0.54786 0.26875 0.0
O197 O 0.5349 0.56805 0.21446 0.0
C198 C 0.56292 0.55211 0.77487 0.0
O199 O 0.5856 0.61685 0.96922 0.0
O200 O 0.62805 0.57728 0.96658 0.0
N201 N 0.50084 0.61049 0.02123 0.0
C202 C 0.46768 0.61357 0.98683 0.0
C203 C 0.48158 0.66381 0.04513 0.0
N204 N 0.50926 0.64171 0.05768 0.0
N205 N 0.45496 0.64671 0.00175 0.0
C206 C 0.61706 0.45633 0.11421 0.0
C207 C 0.67051 0.46587 0.98093 0.0
N208 N 0.61805 0.4895 0.02957 0.0
N209 N 0.65127 0.49514 0.94658 0.0
N210 N 0.64947 0.44088 0.08505 0.0
H211 H 0.59802 0.43377 0.3119 0.0
H212 H 0.57181 0.4124 0.22282 0.0
H213 H 0.56391 0.45915 0.24367 0.0
C214 C 0.58574 0.43994 0.22956 0.0
C215 C 0.44887 0.58511 0.93356 0.0
H216 H 0.4324 0.59925 0.8692 0.0
H217 H 0.42889 0.56352 0.01074 0.0
H218 H 0.47018 0.57003 0.88386 0.0
O219 O 0.54173 0.57237 0.83134 0.0
O220 O 0.58327 0.53152 0.83271 0.0
C221 C 0.62059 0.6117 0.95237 0.0
O222 O 0.53257 0.4835 0.07181 0.0
O223 O 0.49069 0.52366 0.07427 0.0
Zn224 Zn 0.05065 0.55419 0.41074 0.0
O225 O 0.04757 0.55809 0.22153 0.0
C226 C 0.1265 0.52951 0.34742 0.0
Zn227 Zn 0.09451 0.60419 0.33344 0.0
C228 C 0.06855 0.58295 0.12847 0.0
O229 O 0.09142 0.60801 0.14774 0.0
C230 C 0.07571 0.5756 0.61546 0.0
O231 O 0.05148 0.64113 0.35842 0.0
O232 O 1.0088 0.59032 0.43234 0.0
N233 N 0.13736 0.64842 0.27321 0.0
C234 C 0.14191 0.67349 0.34124 0.0
C235 C 0.19642 0.65876 0.27289 0.0
N236 N 0.17165 0.64062 0.22561 0.0
N237 N 0.17815 0.67838 0.35073 0.0
C238 C 1.00461 0.47802 0.43422 0.0
C239 C 0.95626 0.47654 0.58158 0.0
N240 N 1.00996 0.50927 0.47635 0.0
N241 N 0.98037 0.50802 0.56994 0.0
N242 N 0.97089 0.45702 0.49783 0.0
H243 H 1.01657 0.45876 0.26404 0.0
H244 H 0.04717 0.44512 0.36611 0.0
H245 H 0.05357 0.49264 0.27397 0.0
C246 C 1.03189 0.46848 0.32811 0.0
C247 C 0.11006 0.69086 0.40842 0.0
H248 H 0.09223 0.7014 0.34392 0.0
H249 H 0.12107 0.71548 0.43951 0.0
H250 H 0.09216 0.6696 0.49092 0.0
O251 O 0.09755 0.60037 0.52422 0.0
O252 O 0.05312 0.55115 0.59318 0.0
C253 C 1.01696 0.62629 0.40724 0.0
O254 O 0.09166 0.51704 0.39508 0.0
O255 O 0.13682 0.56535 0.31117 0.0
C256 C 0.19181 0.1402 0.39322 0.0
C257 C 0.15286 0.14526 0.41289 0.0
C258 C 0.22143 0.1715 0.36003 0.0
C259 C 0.21402 0.20989 0.34448 0.0
H260 H 0.19966 0.11165 0.40351 0.0
H261 H 0.25059 0.16539 0.34635 0.0
S262 S 0.11714 0.23967 0.38511 0.0
N263 N 0.10894 0.19267 0.41391 0.0
N264 N 0.16391 0.2506 0.3525 0.0
C265 C 0.1752 0.21538 0.36403 0.0
C266 C 0.14502 0.18353 0.39774 0.0
C267 C 0.16998 0.90905 0.78209 0.0
C268 C 0.16 0.90603 0.67141 0.0
C269 C 0.18625 0.87985 0.84865 0.0
C270 C 0.19196 0.84615 0.80891 0.0
H271 H 0.16705 0.93503 0.8135 0.0
H272 H 0.19581 0.88429 0.92889 0.0
S273 S 0.16988 0.82414 0.52643 0.0
N274 N 0.15655 0.86675 0.526 0.0
N275 N 0.18612 0.81153 0.65233 0.0
C276 C 0.18071 0.84227 0.70104 0.0
C277 C 0.16502 0.87232 0.63188 0.0
C278 C 0.39358 0.93878 0.86785 0.0
C279 C 0.40649 0.90574 0.83822 0.0
C280 C 0.41188 0.9584 0.93589 0.0
C281 C 0.44296 0.94491 0.97849 0.0
H282 H 0.36869 0.94889 0.84052 0.0
H283 H 0.40227 0.98469 0.95315 0.0
S284 S 0.48626 0.85872 0.92843 0.0
N285 N 0.45292 0.8613 0.8499 0.0
N286 N 0.48387 0.895 0.99468 0.0
C287 C 0.45529 0.91121 0.95251 0.0
C288 C 0.43819 0.89267 0.87668 0.0
C289 C 0.46447 0.14651 -0.00186 0.0
C290 C 0.50341 0.16009 0.97828 0.0
C291 C 0.43584 0.1636 0.0621 0.0
C292 C 0.44493 0.1951 0.10788 0.0
H293 H 0.45598 0.12136 0.9687 0.0
H294 H 0.40632 0.1516 0.07864 0.0
S295 S 0.54174 0.24336 0.07593 0.0
N296 N 0.54924 0.20839 0.00528 0.0
N297 N 0.49496 0.24053 0.12555 0.0
C298 C 0.4834 0.2103 0.08399 0.0
C299 C 0.51278 0.19285 0.01873 0.0
C300 C 0.97211 0.91826 0.62116 0.0
C301 C 0.96535 0.95656 0.61313 0.0
C302 C 0.94217 0.8882 0.64068 0.0
C303 C 0.90374 0.89469 0.65292 0.0
H304 H 1.00092 0.9113 0.61196 0.0
H305 H 0.94934 0.85951 0.64639 0.0
S306 S 0.86994 0.98958 0.63993 0.0
N307 N 0.91648 0.99882 0.62011 0.0
N308 N 0.86099 0.94313 0.65571 0.0
C309 C 0.89659 0.93288 0.64508 0.0
C310 C 0.92701 0.96342 0.62562 0.0
C311 C 0.93178 0.19629 0.35558 0.0
C312 C 0.924 0.16087 0.44282 0.0
C313 C 0.90225 0.21517 0.32033 0.0
C314 C 0.86362 0.19957 0.37231 0.0
H315 H 0.96098 0.20982 0.3165 0.0
H316 H 0.90988 0.2429 0.25477 0.0
S317 S 0.82865 0.10692 0.60545 0.0
N318 N 0.87556 0.11041 0.57995 0.0
N319 N 0.81961 0.14569 0.51446 0.0
C320 C 0.85559 0.16344 0.45744 0.0
C321 C 0.88589 0.14418 0.49278 0.0
C322 C 0.75275 0.16154 0.12211 0.0
C323 C 0.72739 0.13561 0.22472 0.0
C324 C 0.75019 0.16225 0.00065 0.0
C325 C 0.72458 0.13499 0.97999 0.0
H326 H 0.77052 0.18452 0.13704 0.0
H327 H 0.76481 0.18639 0.92524 0.0
S328 S 0.66737 0.05021 0.21328 0.0
N329 N 0.6853 0.07567 0.29646 0.0
N330 N 0.68418 0.07379 0.06602 0.0
C331 C 0.70664 0.10356 0.07956 0.0
C332 C 0.70718 0.10447 0.20354 0.0
C333 C 0.65741 0.92808 0.85962 0.0
C334 C 0.69706 0.93782 0.81609 0.0
C335 C 0.63425 0.95497 0.89519 0.0
C336 C 0.64995 0.99265 0.88697 0.0
H337 H 0.6441 0.9002 0.86038 0.0
H338 H 0.60369 0.94653 0.92426 0.0
S339 S 0.75303 1.03034 0.79239 0.0
N340 N 0.75153 0.98602 0.77714 0.0
N341 N 0.70826 1.03678 0.84225 0.0
C342 C 0.68985 1.00196 0.84909 0.0
C343 C 0.71331 0.97452 0.81378 0.0
C344 C 0.69095 0.64029 0.89736 0.0
C345 C 0.65206 0.64555 0.91774 0.0
C346 C 0.72063 0.67142 0.86553 0.0
C347 C 0.71326 0.70975 0.8522 0.0
H348 H 0.69873 0.61175 0.90592 0.0
H349 H 0.74977 0.66522 0.851 0.0
S350 S 0.61652 0.73989 0.89618 0.0
N351 N 0.60821 0.69297 0.92234 0.0
N352 N 0.66332 0.75066 0.86338 0.0
C353 C 0.67449 0.71543 0.87262 0.0
C354 C 0.64426 0.68374 0.90496 0.0
C355 C 0.71142 0.38686 0.26451 0.0
C356 C 0.6972 0.3483 0.279 0.0
C357 C 0.69475 0.41681 0.20508 0.0
C358 C 0.66295 0.40959 0.15862 0.0
H359 H 0.73681 0.39408 0.2945 0.0
H360 H 0.70746 0.44597 0.19192 0.0
S361 S 0.61298 0.31447 0.17754 0.0
N362 N 0.64795 0.30483 0.24632 0.0
N363 N 0.61654 0.36155 0.1349 0.0
C364 C 0.64706 0.37146 0.17755 0.0
C365 C 0.66413 0.34071 0.23807 0.0
C366 C 0.91605 0.44762 0.41231 0.0
C367 C 0.9484 0.43403 0.44576 0.0
C368 C 0.89806 0.43101 0.33705 0.0
C369 C 0.91232 0.40082 0.29072 0.0
H370 H 0.90527 0.47203 0.44154 0.0
H371 H 0.87234 0.44125 0.31702 0.0
S372 S 0.99653 0.3554 0.34932 0.0
N373 N 0.99267 0.38735 0.4334 0.0
N374 N 0.96177 0.35943 0.27679 0.0
C375 C 0.94512 0.38754 0.32094 0.0
C376 C 0.96214 0.403 0.4036 0.0
C377 C 0.97233 0.70172 0.55395 0.0
C378 C 0.93377 0.68596 0.59749 0.0
C379 C 0.99879 0.68375 0.48381 0.0
C380 C 0.98765 0.64917 0.45591 0.0
H381 H 0.9823 0.72726 0.57853 0.0
H382 H 1.02842 0.69606 0.45742 0.0
S383 S 0.88877 0.5987 0.53909 0.0
N384 N 0.88494 0.63588 0.60067 0.0
N385 N 0.93439 0.60171 0.46975 0.0
C386 C 0.94866 0.63418 0.49463 0.0
C387 C 0.92184 0.65256 0.56569 0.0
C388 C 0.39794 0.43334 0.13743 0.0
C389 C 0.40455 0.39499 0.14667 0.0
C390 C 0.42784 0.46322 0.11924 0.0
C391 C 0.46614 0.45653 0.1092 0.0
H392 H 0.36924 0.4405 0.14482 0.0
H393 H 0.42072 0.49194 0.11273 0.0
S394 S 0.49952 0.36137 0.12686 0.0
N395 N 0.45305 0.35232 0.14453 0.0
N396 N 0.50865 0.40787 0.10977 0.0
C397 C 0.47319 0.41829 0.11815 0.0
C398 C 0.44273 0.38785 0.1369 0.0
C399 C 0.42828 0.70059 0.89396 0.0
C400 C 0.4227 0.66339 0.97013 0.0
C401 C 0.39736 0.71937 0.87152 0.0
C402 C 0.35945 0.70181 0.92542 0.0
H403 H 0.45693 0.71548 0.85309 0.0
H404 H 0.40335 0.7483 0.81356 0.0
S405 S 0.32975 0.60453 0.13526 0.0
N406 N 0.37685 0.6096 0.10111 0.0
N407 N 0.31831 0.64459 0.05889 0.0
C408 C 0.3535 0.66417 0.00038 0.0
C409 C 0.38521 0.64504 0.02292 0.0
C410 C 0.18556 0.70631 0.64084 0.0
C411 C 0.18371 0.67065 0.72498 0.0
C412 C 0.18586 0.70899 0.51634 0.0
C413 C 0.18526 0.67632 0.47058 0.0
H414 H 0.18815 0.73268 0.66904 0.0
H415 H 0.18627 0.73669 0.45529 0.0
S416 S 0.1815 0.57637 0.64929 0.0
N417 N 0.18211 0.60216 0.75198 0.0
N418 N 0.18297 0.60713 0.51667 0.0
C419 C 0.18432 0.64055 0.55216 0.0
C420 C 0.18362 0.63779 0.67931 0.0
C421 C 0.19832 0.45871 0.35835 0.0
C422 C 0.1949 0.44246 0.25871 0.0
C423 C 0.1771 0.48808 0.38534 0.0
C424 C 0.15231 0.50227 0.31242 0.0
H425 H 0.21797 0.44921 0.41406 0.0
H426 H 0.1798 0.49946 0.464 0.0
S427 S 0.13342 0.47012 0.04138 0.0
N428 N 0.16458 0.44308 0.08791 0.0
N429 N 0.12575 0.49856 0.13691 0.0
C430 C 0.14897 0.48661 0.21247 0.0
C431 C 0.17009 0.45671 0.18579 0.0
C432 C 1.03246 0.06503 0.97087 0.0
C433 C 0.05965 0.04894 0.89573 0.0
C434 C 1.03436 0.06589 0.09233 0.0
C435 C 0.06347 0.05063 0.14384 0.0
H436 H 1.00933 0.07684 0.93609 0.0
H437 H 1.01247 0.07823 0.1467 0.0
S438 S 0.1434 1.00777 0.98282 0.0
N439 N 0.11805 1.01946 0.87961 0.0
N440 N 0.12105 1.0204 0.10794 0.0
C441 C 0.09117 1.03497 0.06912 0.0
C442 C 0.0894 1.03431 0.94524 0.0
C443 C 0.27266 0.8037 0.43017 0.0
C444 C 0.27657 0.76963 0.51198 0.0
C445 C 0.26838 0.80423 0.30968 0.0
C446 C 0.26766 0.77068 0.26688 0.0
H447 H 0.27201 0.83 0.46054 0.0
H448 H 0.26516 0.83099 0.25014 0.0
S449 S 0.28318 0.67554 0.43679 0.0
N450 N 0.2833 0.7024 0.53687 0.0
N451 N 0.27592 0.70352 0.31012 0.0
C452 C 0.27322 0.73682 0.3457 0.0
C453 C 0.27745 0.73625 0.4684 0.0
C454 C 0.57337 0.04775 0.51311 0.0
C455 C 0.57606 0.08325 0.54405 0.0
C456 C 0.5741 0.04546 0.39073 0.0
C457 C 0.57776 0.07861 0.29489 0.0
H458 H 0.57144 1.02156 0.58346 0.0
H459 H 0.57256 1.01762 0.37042 0.0
S460 S 0.57694 0.17757 0.33361 0.0
N461 N 0.57735 0.15173 0.4727 0.0
N462 N 0.57797 0.1474 0.2435 0.0
C463 C 0.57861 0.11411 0.32592 0.0
C464 C 0.57804 0.11645 0.45028 0.0
C465 C 0.28876 0.32619 0.79676 0.0
C466 C 0.31174 0.30371 0.85965 0.0
C467 C 0.28702 0.32502 0.67548 0.0
C468 C 0.30818 0.30132 0.61183 0.0
H469 H 0.27181 0.34485 0.8415 0.0
H470 H 0.26898 0.34299 0.63137 0.0
S471 S 0.37289 0.23665 0.73496 0.0
N472 N 0.35615 0.25689 0.84875 0.0
N473 N 0.35299 0.25471 0.62164 0.0
C474 C 0.3313 0.27863 0.67374 0.0
C475 C 0.33307 0.27984 0.79719 0.0
C476 C 0.81022 0.27097 0.86444 0.0
C477 C 0.7776 0.27099 0.95817 0.0
C478 C 0.8076 0.27118 0.7426 0.0
C479 C 0.77227 0.27128 0.7105 0.0
H480 H 0.83783 0.2703 0.88584 0.0
H481 H 0.83334 0.27057 0.6736 0.0
S482 S 0.67984 0.2789 0.91572 0.0
N483 N 0.70995 0.27668 0.00606 0.0
N484 N 0.7048 0.27544 0.77888 0.0
C485 C 0.73969 0.27245 0.80245 0.0
C486 C 0.74243 0.27279 0.92584 0.0
C487 C 0.82609 0.77661 0.31344 0.0
C488 C 0.81022 0.80504 0.36739 0.0
C489 C 0.82499 0.77518 0.1918 0.0
C490 C 0.80799 0.80211 0.11904 0.0
H491 H 0.8391 0.75492 0.36598 0.0
H492 H 0.8374 0.7526 0.15497 0.0
S493 S 0.76446 0.88389 0.2137 0.0
N494 N 0.77824 0.86169 0.33655 0.0
N495 N 0.77648 0.85926 0.10839 0.0
C496 C 0.79253 0.83107 0.17125 0.0
C497 C 0.79357 0.83247 0.29512 0.0
C498 C 0.53806 0.57226 0.58427 0.0
C499 C 0.56234 0.55106 0.64509 0.0
C500 C 0.53591 0.57074 0.46355 0.0
C501 C 0.55792 0.54793 0.39843 0.0
H502 H 0.52035 0.59015 0.6303 0.0
H503 H 0.5169 0.58776 0.42095 0.0
S504 S 0.62606 0.48664 0.51567 0.0
N505 N 0.60888 0.50636 0.63042 0.0
N506 N 0.60491 0.50352 0.40454 0.0
C507 C 0.58232 0.52651 0.45824 0.0
C508 C 0.58453 0.52809 0.58105 0.0
C509 C 0.09006 0.6095 0.7738 0.0
C510 C 0.07419 0.57667 0.74646 0.0
C511 C 0.08779 0.61146 0.89727 0.0
C512 C 0.06851 0.58112 -0.00124 0.0
H513 H 0.10409 0.63408 0.69933 0.0
H514 H 0.10115 0.63708 0.9131 0.0
S515 S 1.0198 0.48948 0.97778 0.0
N516 N 1.03787 0.51324 0.83168 0.0
N517 N 1.03167 0.51786 0.0624 0.0
C518 C 0.05142 0.54862 0.97251 0.0
C519 C 0.05465 0.54619 0.84695 0.0
loop_
_geom_bond_atom_site_label_1
_geom_bond_atom_site_label_2
_geom_bond_distance
_geom_bond_site_symmetry_2
_ccdc_geom_bond_type
Zn0 O1 2.055 . S
Zn0 O8 2.046 1_565 S
Zn0 N16 2.036 . S
Zn0 O28 2.053 . S
Zn0 O30 2.065 . S
O1 Zn0 2.055 . S
O1 C4 1.259 1_565 S
C2 O30 1.258 1_655 S
C2 O31 1.244 . S
Zn3 O5 2.046 . S
Zn3 O7 2.055 1_655 S
Zn3 N9 2.036 . S
Zn3 O27 2.066 . S
Zn3 O31 2.053 1_545 S
C4 O1 1.259 1_545 S
C4 O5 1.254 1_455 S
O5 Zn3 2.046 . S
O5 C4 1.254 1_655 S
C6 O27 1.256 1_455 S
C6 O28 1.244 1_545 S
O7 Zn3 2.055 1_455 S
O7 C29 1.259 . S
O8 Zn0 2.046 1_545 S
O8 C29 1.254 . S
N9 Zn3 2.036 . S
N9 C10 1.298 . S
N9 N12 1.398 . S
C10 N9 1.298 . S
C10 N13 1.367 . S
C10 C23 1.481 . S
C11 N12 1.299 . S
C11 N13 1.379 . S
N12 N9 1.398 . S
N12 C11 1.299 . S
N13 C10 1.367 . S
N13 C11 1.379 . S
C14 N16 1.298 . S
C14 N18 1.367 . S
C14 C22 1.481 . S
C15 N17 1.299 . S
C15 N18 1.379 . S
N16 Zn0 2.036 . S
N16 C14 1.298 . S
N16 N17 1.398 . S
N17 C15 1.299 . S
N17 N16 1.398 . S
N18 C14 1.367 . S
N18 C15 1.379 . S
H19 C22 0.980 . S
H20 C22 0.981 . S
H21 C22 0.981 . S
C22 C14 1.481 . S
C22 H19 0.980 . S
C22 H20 0.981 . S
C22 H21 0.981 . S
C23 C10 1.481 . S
C23 H24 0.980 . S
C23 H25 0.981 . S
C23 H26 0.981 . S
H24 C23 0.980 . S
H25 C23 0.981 . S
H26 C23 0.981 . S
O27 Zn3 2.066 . S
O27 C6 1.256 1_655 S
O28 Zn0 2.053 . S
O28 C6 1.244 1_565 S
C29 O7 1.259 . S
C29 O8 1.254 . S
O30 Zn0 2.065 . S
O30 C2 1.258 1_455 S
O31 C2 1.244 . S
O31 Zn3 2.053 1_565 S
Zn32 O33 2.055 . S
Zn32 O40 2.046 . S
Zn32 N48 2.036 . S
Zn32 O60 2.053 . S
Zn32 O62 2.066 . S
O33 Zn32 2.055 . S
O33 C36 1.259 . S
C34 O62 1.256 . S
C34 O63 1.244 . S
Zn35 O37 2.046 . S
Zn35 O39 2.055 . S
Zn35 N41 2.036 . S
Zn35 O59 2.066 . S
Zn35 O63 2.053 . S
C36 O33 1.259 . S
C36 O37 1.254 . S
O37 Zn35 2.046 . S
O37 C36 1.254 . S
C38 O59 1.256 . S
C38 O60 1.244 . S
O39 Zn35 2.055 . S
O39 C61 1.259 1_556 S
O40 Zn32 2.046 . S
O40 C61 1.254 1_556 S
N41 Zn35 2.036 . S
N41 C42 1.298 . S
N41 N44 1.398 . S
C42 N41 1.298 . S
C42 N45 1.367 . S
C42 C55 1.481 . S
C43 N44 1.299 . S
C43 N45 1.379 . S
N44 N41 1.398 . S
N44 C43 1.299 . S
N45 C42 1.367 . S
N45 C43 1.379 . S
C46 N48 1.298 . S
C46 N50 1.367 . S
C46 C54 1.481 . S
C47 N49 1.299 . S
C47 N50 1.379 . S
N48 Zn32 2.036 . S
N48 C46 1.298 . S
N48 N49 1.398 . S
N49 C47 1.299 . S
N49 N48 1.398 . S
N50 C46 1.367 . S
N50 C47 1.379 . S
H51 C54 0.980 . S
H52 C54 0.981 . S
H53 C54 0.981 . S
C54 C46 1.481 . S
C54 H51 0.980 . S
C54 H52 0.981 . S
C54 H53 0.981 . S
C55 C42 1.481 . S
C55 H56 0.980 . S
C55 H57 0.981 1_556 S
C55 H58 0.981 . S
H56 C55 0.980 . S
H57 C55 0.981 1_554 S
H58 C55 0.981 . S
O59 Zn35 2.066 . S
O59 C38 1.256 . S
O60 Zn32 2.053 . S
O60 C38 1.244 . S
C61 O39 1.259 1_554 S
C61 O40 1.254 1_554 S
O62 Zn32 2.066 . S
O62 C34 1.256 . S
O63 C34 1.244 . S
O63 Zn35 2.053 . S
Zn64 O65 2.055 1_556 S
Zn64 O72 2.046 . S
Zn64 N80 2.036 . S
Zn64 O92 2.053 1_545 S
Zn64 O94 2.066 1_556 S
O65 Zn64 2.055 1_554 S
O65 C68 1.259 . S
C66 O94 1.255 . S
C66 O95 1.245 1_545 S
Zn67 O69 2.046 1_566 S
Zn67 O71 2.055 . S
Zn67 N73 2.036 1_556 S
Zn67 O91 2.066 . S
Zn67 O95 2.053 1_556 S
C68 O65 1.259 . S
C68 O69 1.254 . S
O69 Zn67 2.046 1_544 S
O69 C68 1.254 . S
C70 O91 1.256 . S
C70 O92 1.244 . S
O71 Zn67 2.055 . S
O71 C93 1.259 1_565 S
O72 Zn64 2.046 . S
O72 C93 1.254 . S
N73 Zn67 2.036 1_554 S
N73 C74 1.298 1_554 S
N73 N76 1.398 . S
C74 N73 1.298 1_556 S
C74 N77 1.367 1_556 S
C74 C87 1.481 . S
C75 N76 1.299 . S
C75 N77 1.379 . S
N76 N73 1.398 . S
N76 C75 1.299 . S
N77 C74 1.367 1_554 S
N77 C75 1.379 . S
C78 N80 1.298 1_554 S
C78 N82 1.367 . S
C78 C86 1.481 . S
C79 N81 1.299 . S
C79 N82 1.379 1_556 S
N80 Zn64 2.036 . S
N80 C78 1.298 1_556 S
N80 N81 1.398 . S
N81 C79 1.299 . S
N81 N80 1.398 . S
N82 C78 1.367 . S
N82 C79 1.379 1_554 S
H83 C86 0.980 . S
H84 C86 0.981 . S
H85 C86 0.981 . S
C86 C78 1.481 . S
C86 H83 0.980 . S
C86 H84 0.981 . S
C86 H85 0.981 . S
C87 C74 1.481 . S
C87 H88 0.980 . S
C87 H89 0.981 . S
C87 H90 0.981 . S
H88 C87 0.980 . S
H89 C87 0.981 . S
H90 C87 0.981 . S
O91 Zn67 2.066 . S
O91 C70 1.256 . S
O92 Zn64 2.053 1_565 S
O92 C70 1.244 . S
C93 O71 1.259 1_545 S
C93 O72 1.254 . S
O94 Zn64 2.066 1_554 S
O94 C66 1.255 . S
O95 C66 1.245 1_565 S
O95 Zn67 2.053 1_554 S
Zn96 O97 2.055 . S
Zn96 O104 2.046 . S
Zn96 N112 2.036 . S
Zn96 O124 2.053 . S
Zn96 O126 2.066 . S
O97 Zn96 2.055 . S
O97 C100 1.259 . S
C98 O126 1.256 . S
C98 O127 1.244 . S
Zn99 O101 2.046 . S
Zn99 O103 2.055 . S
Zn99 N105 2.036 . S
Zn99 O123 2.066 . S
Zn99 O127 2.053 . S
C100 O97 1.259 . S
C100 O101 1.255 . S
O101 Zn99 2.046 . S
O101 C100 1.255 . S
C102 O123 1.256 . S
C102 O124 1.244 . S
O103 Zn99 2.055 . S
O103 C125 1.259 . S
O104 Zn96 2.046 . S
O104 C125 1.254 . S
N105 Zn99 2.036 . S
N105 C106 1.298 . S
N105 N108 1.398 . S
C106 N105 1.298 . S
C106 N109 1.367 . S
C106 C119 1.481 . S
C107 N108 1.299 . S
C107 N109 1.379 . S
N108 N105 1.398 . S
N108 C107 1.299 . S
N109 C106 1.367 . S
N109 C107 1.379 . S
C110 N112 1.298 . S
C110 N114 1.367 . S
C110 C118 1.481 . S
C111 N113 1.299 . S
C111 N114 1.379 . S
N112 Zn96 2.036 . S
N112 C110 1.298 . S
N112 N113 1.398 . S
N113 C111 1.299 . S
N113 N112 1.398 . S
N114 C110 1.367 . S
N114 C111 1.379 . S
H115 C118 0.980 1_556 S
H116 C118 0.981 1_556 S
H117 C118 0.981 . S
C118 C110 1.481 . S
C118 H115 0.980 1_554 S
C118 H116 0.981 1_554 S
C118 H117 0.981 . S
C119 C106 1.481 . S
C119 H120 0.980 . S
C119 H121 0.981 . S
C119 H122 0.981 . S
H120 C119 0.980 . S
H121 C119 0.981 . S
H122 C119 0.981 . S
O123 Zn99 2.066 . S
O123 C102 1.256 . S
O124 Zn96 2.053 . S
O124 C102 1.244 . S
C125 O103 1.259 . S
C125 O104 1.254 . S
O126 Zn96 2.066 . S
O126 C98 1.256 . S
O127 C98 1.244 . S
O127 Zn99 2.053 . S
Zn128 O129 2.055 . S
Zn128 O136 2.046 . S
Zn128 N144 2.036 . S
Zn128 O156 2.053 . S
Zn128 O158 2.066 . S
O129 Zn128 2.055 . S
O129 C132 1.259 . S
C130 O158 1.256 . S
C130 O159 1.244 . S
Zn131 O133 2.046 . S
Zn131 O135 2.055 . S
Zn131 N137 2.036 . S
Zn131 O155 2.066 . S
Zn131 O159 2.053 . S
C132 O129 1.259 . S
C132 O133 1.254 . S
O133 Zn131 2.046 . S
O133 C132 1.254 . S
C134 O155 1.256 . S
C134 O156 1.244 . S
O135 Zn131 2.055 . S
O135 C157 1.259 . S
O136 Zn128 2.046 . S
O136 C157 1.254 . S
N137 Zn131 2.036 . S
N137 C138 1.298 . S
N137 N140 1.398 . S
C138 N137 1.298 . S
C138 N141 1.367 . S
C138 C151 1.481 . S
C139 N140 1.299 . S
C139 N141 1.379 . S
N140 N137 1.398 . S
N140 C139 1.299 . S
N141 C138 1.367 . S
N141 C139 1.379 . S
C142 N144 1.298 . S
C142 N146 1.367 . S
C142 C150 1.481 . S
C143 N145 1.299 . S
C143 N146 1.379 . S
N144 Zn128 2.036 . S
N144 C142 1.298 . S
N144 N145 1.398 . S
N145 C143 1.299 . S
N145 N144 1.398 . S
N146 C142 1.367 . S
N146 C143 1.379 . S
H147 C150 0.980 . S
H148 C150 0.981 . S
H149 C150 0.981 . S
C150 C142 1.481 . S
C150 H147 0.980 . S
C150 H148 0.981 . S
C150 H149 0.981 . S
C151 C138 1.481 . S
C151 H152 0.980 . S
C151 H153 0.981 . S
C151 H154 0.981 . S
H152 C151 0.980 . S
H153 C151 0.981 . S
H154 C151 0.981 . S
O155 Zn131 2.066 . S
O155 C134 1.256 . S
O156 Zn128 2.053 . S
O156 C134 1.244 . S
C157 O135 1.259 . S
C157 O136 1.254 . S
O158 Zn128 2.066 . S
O158 C130 1.256 . S
O159 C130 1.244 . S
O159 Zn131 2.053 . S
Zn160 O161 2.055 . S
Zn160 O168 2.046 . S
Zn160 N176 2.036 . S
Zn160 O188 2.053 . S
Zn160 O190 2.066 . S
O161 Zn160 2.055 . S
O161 C164 1.259 . S
C162 O190 1.256 . S
C162 O191 1.244 . S
Zn163 O165 2.046 . S
Zn163 O167 2.055 . S
Zn163 N169 2.036 . S
Zn163 O187 2.066 . S
Zn163 O191 2.053 . S
C164 O161 1.259 . S
C164 O165 1.254 . S
O165 Zn163 2.046 . S
O165 C164 1.254 . S
C166 O187 1.256 . S
C166 O188 1.244 . S
O167 Zn163 2.055 . S
O167 C189 1.259 . S
O168 Zn160 2.046 . S
O168 C189 1.254 . S
N169 Zn163 2.036 . S
N169 C170 1.298 . S
N169 N172 1.398 . S
C170 N169 1.298 . S
C170 N173 1.367 . S
C170 C183 1.481 . S
C171 N172 1.299 . S
C171 N173 1.379 . S
N172 N169 1.398 . S
N172 C171 1.299 . S
N173 C170 1.367 . S
N173 C171 1.379 . S
C174 N176 1.298 . S
C174 N178 1.367 . S
C174 C182 1.481 . S
C175 N177 1.299 . S
C175 N178 1.379 . S
N176 Zn160 2.036 . S
N176 C174 1.298 . S
N176 N177 1.398 . S
N177 C175 1.299 . S
N177 N176 1.398 . S
N178 C174 1.367 . S
N178 C175 1.379 . S
H179 C182 0.980 . S
H180 C182 0.981 . S
H181 C182 0.981 . S
C182 C174 1.481 . S
C182 H179 0.980 . S
C182 H180 0.981 . S
C182 H181 0.981 . S
C183 C170 1.481 . S
C183 H184 0.980 . S
C183 H185 0.981 . S
C183 H186 0.981 . S
H184 C183 0.980 . S
H185 C183 0.981 . S
H186 C183 0.981 . S
O187 Zn163 2.066 . S
O187 C166 1.256 . S
O188 Zn160 2.053 . S
O188 C166 1.244 . S
C189 O167 1.259 . S
C189 O168 1.254 . S
O190 Zn160 2.066 . S
O190 C162 1.256 . S
O191 C162 1.244 . S
O191 Zn163 2.053 . S
Zn192 O193 2.055 . S
Zn192 O200 2.046 . S
Zn192 N208 2.036 . S
Zn192 O220 2.053 1_554 S
Zn192 O222 2.066 . S
O193 Zn192 2.055 . S
O193 C196 1.259 . S
C194 O222 1.256 . S
C194 O223 1.244 . S
Zn195 O197 2.046 . S
Zn195 O199 2.055 1_554 S
Zn195 N201 2.036 . S
Zn195 O219 2.066 1_554 S
Zn195 O223 2.053 . S
C196 O193 1.259 . S
C196 O197 1.254 . S
O197 Zn195 2.046 . S
O197 C196 1.254 . S
C198 O219 1.256 . S
C198 O220 1.244 . S
O199 Zn195 2.055 1_556 S
O199 C221 1.259 . S
O200 Zn192 2.046 . S
O200 C221 1.254 1_554 S
N201 Zn195 2.036 . S
N201 C202 1.298 1_554 S
N201 N204 1.398 . S
C202 N201 1.298 1_556 S
C202 N205 1.367 . S
C202 C215 1.481 . S
C203 N204 1.299 . S
C203 N205 1.379 1_554 S
N204 N201 1.398 . S
N204 C203 1.299 . S
N205 C202 1.367 . S
N205 C203 1.379 1_556 S
C206 N208 1.298 . S
C206 N210 1.367 . S
C206 C214 1.481 . S
C207 N209 1.299 . S
C207 N210 1.379 1_556 S
N208 Zn192 2.036 . S
N208 C206 1.298 . S
N208 N209 1.398 1_554 S
N209 C207 1.299 . S
N209 N208 1.398 1_556 S
N210 C206 1.367 . S
N210 C207 1.379 1_554 S
H211 C214 0.980 . S
H212 C214 0.981 . S
H213 C214 0.981 . S
C214 C206 1.481 . S
C214 H211 0.980 . S
C214 H212 0.981 . S
C214 H213 0.981 . S
C215 C202 1.481 . S
C215 H216 0.980 . S
C215 H217 0.981 . S
C215 H218 0.981 . S
H216 C215 0.980 . S
H217 C215 0.981 . S
H218 C215 0.981 . S
O219 Zn195 2.066 1_556 S
O219 C198 1.256 . S
O220 Zn192 2.053 1_556 S
O220 C198 1.244 . S
C221 O199 1.259 . S
C221 O200 1.254 1_556 S
O222 Zn192 2.066 . S
O222 C194 1.256 . S
O223 C194 1.244 . S
O223 Zn195 2.053 . S
Zn224 O225 2.055 . S
Zn224 O232 2.046 . S
Zn224 N240 2.036 . S
Zn224 O252 2.053 . S
Zn224 O254 2.066 1_655 S
O225 Zn224 2.055 . S
O225 C228 1.259 1_655 S
C226 O254 1.256 . S
C226 O255 1.244 . S
Zn227 O229 2.046 . S
Zn227 O231 2.055 1_455 S
Zn227 N233 2.036 . S
Zn227 O251 2.066 . S
Zn227 O255 2.053 . S
C228 O225 1.259 1_455 S
C228 O229 1.254 . S
O229 Zn227 2.046 . S
O229 C228 1.254 . S
C230 O251 1.256 . S
C230 O252 1.244 1_455 S
O231 Zn227 2.055 1_655 S
O231 C253 1.259 . S
O232 Zn224 2.046 . S
O232 C253 1.254 . S
N233 Zn227 2.036 . S
N233 C234 1.298 . S
N233 N236 1.398 . S
C234 N233 1.298 . S
C234 N237 1.367 . S
C234 C247 1.481 . S
C235 N236 1.299 . S
C235 N237 1.379 . S
N236 N233 1.398 . S
N236 C235 1.299 . S
N237 C234 1.367 . S
N237 C235 1.379 . S
C238 N240 1.298 . S
C238 N242 1.367 . S
C238 C246 1.481 . S
C239 N241 1.299 . S
C239 N242 1.379 . S
N240 Zn224 2.036 . S
N240 C238 1.298 . S
N240 N241 1.398 . S
N241 C239 1.299 . S
N241 N240 1.398 . S
N242 C238 1.367 . S
N242 C239 1.379 . S
H243 C246 0.980 . S
H244 C246 0.981 . S
H245 C246 0.981 . S
C246 C238 1.481 . S
C246 H243 0.980 . S
C246 H244 0.981 . S
C246 H245 0.981 . S
C247 C234 1.481 . S
C247 H248 0.980 . S
C247 H249 0.981 . S
C247 H250 0.981 . S
H248 C247 0.980 . S
H249 C247 0.981 . S
H250 C247 0.981 . S
O251 Zn227 2.066 . S
O251 C230 1.256 . S
O252 Zn224 2.053 . S
O252 C230 1.244 1_655 S
C253 O231 1.259 . S
C253 O232 1.254 . S
O254 Zn224 2.066 1_455 S
O254 C226 1.256 . S
O255 C226 1.244 . S
O255 Zn227 2.053 . S
C256 C257 1.369 . S
C256 C258 1.419 . S
C256 H260 0.930 . S
C257 C256 1.369 . S
C257 C266 1.429 . S
C258 C256 1.419 . S
C258 C259 1.363 . S
C258 H261 0.929 . S
C259 C258 1.363 . S
C259 C265 1.428 . S
H260 C256 0.930 . S
H261 C258 0.929 . S
S262 N263 1.613 . S
S262 N264 1.610 . S
N263 S262 1.613 . S
N263 C266 1.350 . S
N264 S262 1.610 . S
N264 C265 1.351 . S
C265 C259 1.428 . S
C265 N264 1.351 . S
C265 C266 1.434 . S
C266 C257 1.429 . S
C266 N263 1.350 . S
C266 C265 1.434 . S
C267 C268 1.369 . S
C267 C269 1.419 . S
C267 H271 0.930 . S
C268 C267 1.369 . S
C268 C277 1.429 . S
C269 C267 1.419 . S
C269 C270 1.363 . S
C269 H272 0.929 . S
C270 C269 1.363 . S
C270 C276 1.428 . S
H271 C267 0.930 . S
H272 C269 0.929 . S
S273 N274 1.613 . S
S273 N275 1.610 . S
N274 S273 1.613 . S
N274 C277 1.350 . S
N275 S273 1.610 . S
N275 C276 1.351 . S
C276 C270 1.428 . S
C276 N275 1.351 . S
C276 C277 1.434 . S
C277 C268 1.429 . S
C277 N274 1.350 . S
C277 C276 1.434 . S
C278 C279 1.369 . S
C278 C280 1.419 . S
C278 H282 0.930 . S
C279 C278 1.369 . S
C279 C288 1.429 . S
C280 C278 1.419 . S
C280 C281 1.363 . S
C280 H283 0.929 . S
C281 C280 1.363 . S
C281 C287 1.428 . S
H282 C278 0.930 . S
H283 C280 0.929 . S
S284 N285 1.613 . S
S284 N286 1.610 . S
N285 S284 1.613 . S
N285 C288 1.350 . S
N286 S284 1.610 . S
N286 C287 1.351 . S
C287 C281 1.428 . S
C287 N286 1.351 . S
C287 C288 1.434 . S
C288 C279 1.429 . S
C288 N285 1.350 . S
C288 C287 1.434 . S
C289 C290 1.369 . S
C289 C291 1.419 . S
C289 H293 0.930 . S
C290 C289 1.369 . S
C290 C299 1.429 . S
C291 C289 1.419 . S
C291 C292 1.363 . S
C291 H294 0.929 . S
C292 C291 1.363 . S
C292 C298 1.428 . S
H293 C289 0.930 . S
H294 C291 0.929 . S
S295 N296 1.613 . S
S295 N297 1.610 . S
N296 S295 1.613 . S
N296 C299 1.350 . S
N297 S295 1.610 . S
N297 C298 1.351 . S
C298 C292 1.428 . S
C298 N297 1.351 . S
C298 C299 1.434 . S
C299 C290 1.429 . S
C299 N296 1.350 . S
C299 C298 1.434 . S
C300 C301 1.369 . S
C300 C302 1.419 . S
C300 H304 0.930 . S
C301 C300 1.369 . S
C301 C310 1.429 . S
C302 C300 1.419 . S
C302 C303 1.363 . S
C302 H305 0.929 . S
C303 C302 1.363 . S
C303 C309 1.428 . S
H304 C300 0.930 . S
H305 C302 0.929 . S
S306 N307 1.613 . S
S306 N308 1.610 . S
N307 S306 1.613 . S
N307 C310 1.350 . S
N308 S306 1.610 . S
N308 C309 1.351 . S
C309 C303 1.428 . S
C309 N308 1.351 . S
C309 C310 1.434 . S
C310 C301 1.429 . S
C310 N307 1.350 . S
C310 C309 1.434 . S
C311 C312 1.369 . S
C311 C313 1.419 . S
C311 H315 0.930 . S
C312 C311 1.369 . S
C312 C321 1.429 . S
C313 C311 1.419 . S
C313 C314 1.363 . S
C313 H316 0.929 . S
C314 C313 1.363 . S
C314 C320 1.428 . S
H315 C311 0.930 . S
H316 C313 0.929 . S
S317 N318 1.613 . S
S317 N319 1.610 . S
N318 S317 1.613 . S
N318 C321 1.350 . S
N319 S317 1.610 . S
N319 C320 1.351 . S
C320 C314 1.428 . S
C320 N319 1.351 . S
C320 C321 1.434 . S
C321 C312 1.429 . S
C321 N318 1.350 . S
C321 C320 1.434 . S
C322 C323 1.369 . S
C322 C324 1.419 . S
C322 H326 0.930 . S
C323 C322 1.369 . S
C323 C332 1.429 . S
C324 C322 1.419 . S
C324 C325 1.363 . S
C324 H327 0.929 1_554 S
C325 C324 1.363 . S
C325 C331 1.428 . S
H326 C322 0.930 . S
H327 C324 0.929 1_556 S
S328 N329 1.613 . S
S328 N330 1.610 . S
N329 S328 1.613 . S
N329 C332 1.350 . S
N330 S328 1.610 . S
N330 C331 1.351 . S
C331 C325 1.428 . S
C331 N330 1.351 . S
C331 C332 1.434 . S
C332 C323 1.429 . S
C332 N329 1.350 . S
C332 C331 1.434 . S
C333 C334 1.369 . S
C333 C335 1.419 . S
C333 H337 0.930 . S
C334 C333 1.369 . S
C334 C343 1.429 . S
C335 C333 1.419 . S
C335 C336 1.363 . S
C335 H338 0.929 . S
C336 C335 1.363 . S
C336 C342 1.428 . S
H337 C333 0.930 . S
H338 C335 0.929 . S
S339 N340 1.613 . S
S339 N341 1.610 . S
N340 S339 1.613 . S
N340 C343 1.350 . S
N341 S339 1.610 . S
N341 C342 1.351 . S
C342 C336 1.428 . S
C342 N341 1.351 . S
C342 C343 1.434 . S
C343 C334 1.429 . S
C343 N340 1.350 . S
C343 C342 1.434 . S
C344 C345 1.369 . S
C344 C346 1.419 . S
C344 H348 0.930 . S
C345 C344 1.369 . S
C345 C354 1.429 . S
C346 C344 1.419 . S
C346 C347 1.363 . S
C346 H349 0.929 . S
C347 C346 1.363 . S
C347 C353 1.428 . S
H348 C344 0.930 . S
H349 C346 0.929 . S
S350 N351 1.613 . S
S350 N352 1.610 . S
N351 S350 1.613 . S
N351 C354 1.350 . S
N352 S350 1.610 . S
N352 C353 1.351 . S
C353 C347 1.428 . S
C353 N352 1.351 . S
C353 C354 1.434 . S
C354 C345 1.429 . S
C354 N351 1.350 . S
C354 C353 1.434 . S
C355 C356 1.369 . S
C355 C357 1.419 . S
C355 H359 0.930 . S
C356 C355 1.369 . S
C356 C365 1.429 . S
C357 C355 1.419 . S
C357 C358 1.363 . S
C357 H360 0.929 . S
C358 C357 1.363 . S
C358 C364 1.428 . S
H359 C355 0.930 . S
H360 C357 0.929 . S
S361 N362 1.613 . S
S361 N363 1.610 . S
N362 S361 1.613 . S
N362 C365 1.350 . S
N363 S361 1.610 . S
N363 C364 1.351 . S
C364 C358 1.428 . S
C364 N363 1.351 . S
C364 C365 1.434 . S
C365 C356 1.429 . S
C365 N362 1.350 . S
C365 C364 1.434 . S
C366 C367 1.369 . S
C366 C368 1.419 . S
C366 H370 0.930 . S
C367 C366 1.369 . S
C367 C376 1.429 . S
C368 C366 1.419 . S
C368 C369 1.363 . S
C368 H371 0.929 . S
C369 C368 1.363 . S
C369 C375 1.428 . S
H370 C366 0.930 . S
H371 C368 0.929 . S
S372 N373 1.613 . S
S372 N374 1.610 . S
N373 S372 1.613 . S
N373 C376 1.350 . S
N374 S372 1.610 . S
N374 C375 1.351 . S
C375 C369 1.428 . S
C375 N374 1.351 . S
C375 C376 1.434 . S
C376 C367 1.429 . S
C376 N373 1.350 . S
C376 C375 1.434 . S
C377 C378 1.369 . S
C377 C379 1.419 . S
C377 H381 0.930 . S
C378 C377 1.369 . S
C378 C387 1.429 . S
C379 C377 1.419 . S
C379 C380 1.363 . S
C379 H382 0.929 . S
C380 C379 1.363 . S
C380 C386 1.428 . S
H381 C377 0.930 . S
H382 C379 0.929 . S
S383 N384 1.613 . S
S383 N385 1.610 . S
N384 S383 1.613 . S
N384 C387 1.350 . S
N385 S383 1.610 . S
N385 C386 1.351 . S
C386 C380 1.428 . S
C386 N385 1.351 . S
C386 C387 1.434 . S
C387 C378 1.429 . S
C387 N384 1.350 . S
C387 C386 1.434 . S
C388 C389 1.369 . S
C388 C390 1.419 . S
C388 H392 0.930 1_554 S
C389 C388 1.369 . S
C389 C398 1.429 . S
C390 C388 1.419 . S
C390 C391 1.363 . S
C390 H393 0.929 1_554 S
C391 C390 1.363 . S
C391 C397 1.428 . S
H392 C388 0.930 1_556 S
H393 C390 0.929 1_556 S
S394 N395 1.613 . S
S394 N396 1.610 . S
N395 S394 1.613 . S
N395 C398 1.350 . S
N396 S394 1.610 . S
N396 C397 1.351 . S
C397 C391 1.428 . S
C397 N396 1.351 . S
C397 C398 1.434 . S
C398 C389 1.429 . S
C398 N395 1.350 . S
C398 C397 1.434 . S
C399 C400 1.369 . S
C399 C401 1.419 . S
C399 H403 0.930 1_556 S
C400 C399 1.369 . S
C400 C409 1.429 . S
C401 C399 1.419 . S
C401 C402 1.363 . S
C401 H404 0.929 1_556 S
C402 C401 1.363 . S
C402 C408 1.428 . S
H403 C399 0.930 1_554 S
H404 C401 0.929 1_554 S
S405 N406 1.613 . S
S405 N407 1.610 . S
N406 S405 1.613 . S
N406 C409 1.350 . S
N407 S405 1.610 . S
N407 C408 1.351 . S
C408 C402 1.428 . S
C408 N407 1.351 . S
C408 C409 1.434 . S
C409 C400 1.429 . S
C409 N406 1.350 . S
C409 C408 1.434 . S
C410 C411 1.369 . S
C410 C412 1.419 . S
C410 H414 0.930 . S
C411 C410 1.369 . S
C411 C420 1.429 . S
C412 C410 1.419 . S
C412 C413 1.363 . S
C412 H415 0.929 . S
C413 C412 1.363 . S
C413 C419 1.428 . S
H414 C410 0.930 . S
H415 C412 0.929 . S
S416 N417 1.613 . S
S416 N418 1.610 . S
N417 S416 1.613 . S
N417 C420 1.350 . S
N418 S416 1.610 . S
N418 C419 1.351 . S
C419 C413 1.428 . S
C419 N418 1.351 . S
C419 C420 1.434 . S
C420 C411 1.429 . S
C420 N417 1.350 . S
C420 C419 1.434 . S
C421 C422 1.369 . S
C421 C423 1.419 . S
C421 H425 0.930 . S
C422 C421 1.369 . S
C422 C431 1.429 . S
C423 C421 1.419 . S
C423 C424 1.363 . S
C423 H426 0.929 . S
C424 C423 1.363 . S
C424 C430 1.428 . S
H425 C421 0.930 . S
H426 C423 0.929 . S
S427 N428 1.613 . S
S427 N429 1.610 . S
N428 S427 1.613 . S
N428 C431 1.350 . S
N429 S427 1.610 . S
N429 C430 1.351 . S
C430 C424 1.428 . S
C430 N429 1.351 . S
C430 C431 1.434 . S
C431 C422 1.429 . S
C431 N428 1.350 . S
C431 C430 1.434 . S
C432 C433 1.369 1_655 S
C432 C434 1.419 1_556 S
C432 H436 0.930 . S
C433 C432 1.369 1_455 S
C433 C442 1.429 1_545 S
C434 C432 1.419 1_554 S
C434 C435 1.363 1_655 S
C434 H437 0.929 . S
C435 C434 1.363 1_455 S
C435 C441 1.428 1_545 S
H436 C432 0.930 . S
H437 C434 0.929 . S
S438 N439 1.613 1_554 S
S438 N440 1.610 . S
N439 S438 1.613 1_556 S
N439 C442 1.350 . S
N440 S438 1.610 . S
N440 C441 1.351 . S
C441 C435 1.428 1_565 S
C441 N440 1.351 . S
C441 C442 1.434 1_554 S
C442 C433 1.429 1_565 S
C442 N439 1.350 . S
C442 C441 1.434 1_556 S
C443 C444 1.369 . S
C443 C445 1.419 . S
C443 H447 0.930 . S
C444 C443 1.369 . S
C444 C453 1.429 . S
C445 C443 1.419 . S
C445 C446 1.363 . S
C445 H448 0.929 . S
C446 C445 1.363 . S
C446 C452 1.428 . S
H447 C443 0.930 . S
H448 C445 0.929 . S
S449 N450 1.613 . S
S449 N451 1.610 . S
N450 S449 1.613 . S
N450 C453 1.350 . S
N451 S449 1.610 . S
N451 C452 1.351 . S
C452 C446 1.428 . S
C452 N451 1.351 . S
C452 C453 1.434 . S
C453 C444 1.429 . S
C453 N450 1.350 . S
C453 C452 1.434 . S
C454 C455 1.369 1_565 S
C454 C456 1.419 . S
C454 H458 0.930 . S
C455 C454 1.369 1_545 S
C455 C464 1.429 . S
C456 C454 1.419 . S
C456 C457 1.363 1_565 S
C456 H459 0.929 . S
C457 C456 1.363 1_545 S
C457 C463 1.428 . S
H458 C454 0.930 . S
H459 C456 0.929 . S
S460 N461 1.613 . S
S460 N462 1.610 . S
N461 S460 1.613 . S
N461 C464 1.350 . S
N462 S460 1.610 . S
N462 C463 1.351 . S
C463 C457 1.428 . S
C463 N462 1.351 . S
C463 C464 1.434 . S
C464 C455 1.429 . S
C464 N461 1.350 . S
C464 C463 1.434 . S
C465 C466 1.369 . S
C465 C467 1.419 . S
C465 H469 0.930 . S
C466 C465 1.369 . S
C466 C475 1.429 . S
C467 C465 1.419 . S
C467 C468 1.363 . S
C467 H470 0.929 . S
C468 C467 1.363 . S
C468 C474 1.428 . S
H469 C465 0.930 . S
H470 C467 0.929 . S
S471 N472 1.613 . S
S471 N473 1.610 . S
N472 S471 1.613 . S
N472 C475 1.350 . S
N473 S471 1.610 . S
N473 C474 1.351 . S
C474 C468 1.428 . S
C474 N473 1.351 . S
C474 C475 1.434 . S
C475 C466 1.429 . S
C475 N472 1.350 . S
C475 C474 1.434 . S
C476 C477 1.369 . S
C476 C478 1.419 . S
C476 H480 0.930 . S
C477 C476 1.369 . S
C477 C486 1.429 . S
C478 C476 1.419 . S
C478 C479 1.363 . S
C478 H481 0.929 . S
C479 C478 1.363 . S
C479 C485 1.428 . S
H480 C476 0.930 . S
H481 C478 0.929 . S
S482 N483 1.613 . S
S482 N484 1.610 . S
N483 S482 1.613 . S
N483 C486 1.350 . S
N484 S482 1.610 . S
N484 C485 1.351 . S
C485 C479 1.428 . S
C485 N484 1.351 . S
C485 C486 1.434 . S
C486 C477 1.429 . S
C486 N483 1.350 . S
C486 C485 1.434 . S
C487 C488 1.369 . S
C487 C489 1.419 . S
C487 H491 0.930 . S
C488 C487 1.369 . S
C488 C497 1.429 . S
C489 C487 1.419 . S
C489 C490 1.363 . S
C489 H492 0.929 . S
C490 C489 1.363 . S
C490 C496 1.428 . S
H491 C487 0.930 . S
H492 C489 0.929 . S
S493 N494 1.613 . S
S493 N495 1.610 . S
N494 S493 1.613 . S
N494 C497 1.350 . S
N495 S493 1.610 . S
N495 C496 1.351 . S
C496 C490 1.428 . S
C496 N495 1.351 . S
C496 C497 1.434 . S
C497 C488 1.429 . S
C497 N494 1.350 . S
C497 C496 1.434 . S
C498 C499 1.369 . S
C498 C500 1.419 . S
C498 H502 0.930 . S
C499 C498 1.369 . S
C499 C508 1.429 . S
C500 C498 1.419 . S
C500 C501 1.363 . S
C500 H503 0.929 . S
C501 C500 1.363 . S
C501 C507 1.428 . S
H502 C498 0.930 . S
H503 C500 0.929 . S
S504 N505 1.613 . S
S504 N506 1.610 . S
N505 S504 1.613 . S
N505 C508 1.350 . S
N506 S504 1.610 . S
N506 C507 1.351 . S
C507 C501 1.428 . S
C507 N506 1.351 . S
C507 C508 1.434 . S
C508 C499 1.429 . S
C508 N505 1.350 . S
C508 C507 1.434 . S
C509 C510 1.369 1_655 S
C509 C511 1.419 1_556 S
C509 H513 0.930 . S
C510 C509 1.369 1_455 S
C510 C519 1.429 . S
C511 C509 1.419 1_554 S
C511 C512 1.363 1_655 S
C511 H514 0.929 . S
C512 C511 1.363 1_455 S
C512 C518 1.428 . S
H513 C509 0.930 . S
H514 C511 0.929 . S
S515 N516 1.613 1_554 S
S515 N517 1.610 . S
N516 S515 1.613 1_556 S
N516 C519 1.350 . S
N517 S515 1.610 . S
N517 C518 1.351 . S
C518 C512 1.428 . S
C518 N517 1.351 . S
C518 C519 1.434 1_554 S
C519 C510 1.429 . S
C519 N516 1.350 . S
C519 C518 1.434 1_556 S
C257 C29 2.753 . S
C259 C125 2.754 . S
C268 N18 1.497 . S
C270 C36 1.555 . S
C279 N45 0.844 . S
C281 N77 0.844 1_556 S
C290 C68 1.554 . S
C292 N114 1.501 . S
C301 C2 3.090 . S
C303 C162 3.088 . S
C312 N13 1.458 . S
C314 C134 1.497 . S
C323 N146 0.489 . S
C325 N82 0.479 . S
C334 N173 1.453 . S
C336 C70 1.497 . S
C345 C221 2.755 . S
C347 C189 2.753 . S
C356 C132 1.554 . S
C358 N210 1.502 . S
C367 N242 0.844 . S
C369 N141 0.844 . S
C378 N178 1.495 . S
C380 C253 1.555 . S
C389 C98 3.088 . S
C391 C194 3.090 . S
C400 N205 1.458 . S
C402 C38 1.496 . S
C411 N50 0.491 . S
C413 N237 0.481 . S
C422 N109 1.451 . S
C424 C226 1.497 . S
C433 C4 1.420 . S
C435 C6 1.427 . S
C444 C34 1.458 . S
C446 C61 1.462 . S
C455 C93 1.460 . S
C457 C66 1.458 . S
C466 C100 1.416 1_556 S
C468 C102 1.429 . S
C477 C130 1.456 1_556 S
C479 C157 1.462 . S
C488 C164 1.422 . S
C490 C166 1.426 1_554 S
C499 C198 1.430 . S
C501 C196 1.417 . S
C510 C230 1.460 . S
C512 C228 1.461 . S
