# Generated by pormake.
# Topology uoz, (4)-cn, num edge types: 1
# Building blocks:
#     Node 0, Type 0, BuildingBlock: NAHDIM_clean_sbu_0, # of connection points: 4
#     Node 1, Type 0, BuildingBlock: NAHDIM_clean_sbu_0, # of connection points: 4
#     Node 2, Type 0, BuildingBlock: NAHDIM_clean_sbu_0, # of connection points: 4
#     Node 3, Type 0, BuildingBlock: NAHDIM_clean_sbu_0, # of connection points: 4
#     Node 4, Type 0, BuildingBlock: NAHDIM_clean_sbu_0, # of connection points: 4
#     Node 5, Type 0, BuildingBlock: NAHDIM_clean_sbu_0, # of connection points: 4
#     Node 6, Type 0, BuildingBlock: NAHDIM_clean_sbu_0, # of connection points: 4
#     Node 7, Type 0, BuildingBlock: NAHDIM_clean_sbu_0, # of connection points: 4
#     Node 8, Type 0, BuildingBlock: NAHDIM_clean_sbu_0, # of connection points: 4
#     Node 9, Type 0, BuildingBlock: NAHDIM_clean_sbu_0, # of connection points: 4
#     Node 10, Type 0, BuildingBlock: NAHDIM_clean_sbu_0, # of connection points: 4
#     Node 11, Type 0, BuildingBlock: NAHDIM_clean_sbu_0, # of connection points: 4
#     Node 12, Type 0, BuildingBlock: NAHDIM_clean_sbu_0, # of connection points: 4
#     Node 13, Type 0, BuildingBlock: NAHDIM_clean_sbu_0, # of connection points: 4
#     Node 14, Type 0, BuildingBlock: NAHDIM_clean_sbu_0, # of connection points: 4
#     Node 15, Type 0, BuildingBlock: NAHDIM_clean_sbu_0, # of connection points: 4
#     Edge 16, Type (0, 0), BuildingBlock: XUDNAN_clean_linker_2, # of connection points: 2
#     Edge 17, Type (0, 0), BuildingBlock: XUDNAN_clean_linker_2, # of connection points: 2
#     Edge 18, Type (0, 0), BuildingBlock: XUDNAN_clean_linker_2, # of connection points: 2
#     Edge 19, Type (0, 0), BuildingBlock: XUDNAN_clean_linker_2, # of connection points: 2
#     Edge 20, Type (0, 0), BuildingBlock: XUDNAN_clean_linker_2, # of connection points: 2
#     Edge 21, Type (0, 0), BuildingBlock: XUDNAN_clean_linker_2, # of connection points: 2
#     Edge 22, Type (0, 0), BuildingBlock: XUDNAN_clean_linker_2, # of connection points: 2
#     Edge 23, Type (0, 0), BuildingBlock: XUDNAN_clean_linker_2, # of connection points: 2
#     Edge 24, Type (0, 0), BuildingBlock: XUDNAN_clean_linker_2, # of connection points: 2
#     Edge 25, Type (0, 0), BuildingBlock: XUDNAN_clean_linker_2, # of connection points: 2
#     Edge 26, Type (0, 0), BuildingBlock: XUDNAN_clean_linker_2, # of connection points: 2
#     Edge 27, Type (0, 0), BuildingBlock: XUDNAN_clean_linker_2, # of connection points: 2
#     Edge 28, Type (0, 0), BuildingBlock: XUDNAN_clean_linker_2, # of connection points: 2
#     Edge 29, Type (0, 0), BuildingBlock: XUDNAN_clean_linker_2, # of connection points: 2
#     Edge 30, Type (0, 0), BuildingBlock: XUDNAN_clean_linker_2, # of connection points: 2
#     Edge 31, Type (0, 0), BuildingBlock: XUDNAN_clean_linker_2, # of connection points: 2
#     Edge 32, Type (0, 0), BuildingBlock: XUDNAN_clean_linker_2, # of connection points: 2
#     Edge 33, Type (0, 0), BuildingBlock: XUDNAN_clean_linker_2, # of connection points: 2
#     Edge 34, Type (0, 0), BuildingBlock: XUDNAN_clean_linker_2, # of connection points: 2
#     Edge 35, Type (0, 0), BuildingBlock: XUDNAN_clean_linker_2, # of connection points: 2
#     Edge 36, Type (0, 0), BuildingBlock: XUDNAN_clean_linker_2, # of connection points: 2
#     Edge 37, Type (0, 0), BuildingBlock: XUDNAN_clean_linker_2, # of connection points: 2
#     Edge 38, Type (0, 0), BuildingBlock: XUDNAN_clean_linker_2, # of connection points: 2
#     Edge 39, Type (0, 0), BuildingBlock: XUDNAN_clean_linker_2, # of connection points: 2
#     Edge 40, Type (0, 0), BuildingBlock: XUDNAN_clean_linker_2, # of connection points: 2
#     Edge 41, Type (0, 0), BuildingBlock: XUDNAN_clean_linker_2, # of connection points: 2
#     Edge 42, Type (0, 0), BuildingBlock: XUDNAN_clean_linker_2, # of connection points: 2
#     Edge 43, Type (0, 0), BuildingBlock: XUDNAN_clean_linker_2, # of connection points: 2
#     Edge 44, Type (0, 0), BuildingBlock: XUDNAN_clean_linker_2, # of connection points: 2
#     Edge 45, Type (0, 0), BuildingBlock: XUDNAN_clean_linker_2, # of connection points: 2
#     Edge 46, Type (0, 0), BuildingBlock: XUDNAN_clean_linker_2, # of connection points: 2
#     Edge 47, Type (0, 0), BuildingBlock: XUDNAN_clean_linker_2, # of connection points: 2
# Relax obj value: 0.107
# Max RMSD: 0.095
# Mean RMSD: 0.095
data_MOF--net-uoz--node1-NAHDIM_clean_sbu_0--edge1-XUDNAN_clean_linker_2
_symmetry_space_group_name_H-M    P1
_symmetry_Int_Tables_number       1
_symmetry_cell_setting            triclinic
loop_
_symmetry_equiv_pos_as_xyz
'x, y, z'
_cell_length_a     59.442306
_cell_length_b     59.436802
_cell_length_c     22.626252
_cell_angle_alpha  89.994278
_cell_angle_beta   89.952388
_cell_angle_gamma 90.018863
loop_
_atom_site_label
_atom_site_type_symbol
_atom_site_fract_x
_atom_site_fract_y
_atom_site_fract_z
_atom_type_partial_charge
C0 C 0.05582 0.54733 0.3783 0.0
O1 O 0.07225 0.54627 0.33952 0.0
O2 O 0.07603 0.60448 0.32039 0.0
Zn3 Zn 0.04853 0.58501 0.30758 0.0
O4 O 0.05328 0.56503 0.23727 0.0
C5 C 0.02412 0.61294 0.23295 0.0
O6 O 0.04229 0.60827 0.20226 0.0
O7 O 0.04257 0.56414 0.37672 0.0
C8 C 0.03646 0.55432 0.21718 0.0
O9 O 0.017 0.55603 0.24437 0.0
C10 C 0.09059 0.60664 0.2795 0.0
O11 O 0.08826 0.59501 0.23055 0.0
O12 O 0.02233 0.60517 0.28521 0.0
C13 C 0.72054 0.75172 0.66614 0.0
O14 O 0.717 0.77281 0.65149 0.0
O15 O 0.6854 0.77446 0.55096 0.0
Zn16 Zn 0.70025 0.74397 0.5526 0.0
O17 O 0.727 0.74419 0.49902 0.0
C18 C 0.67757 0.71658 0.46667 0.0
O19 O 0.69223 0.72658 0.43212 0.0
O20 O 0.71309 0.73621 0.63272 0.0
C21 C 0.7374 0.7257 0.49235 0.0
O22 O 0.73028 0.70774 0.52065 0.0
C23 C 0.68192 0.78378 0.50117 0.0
O24 O 0.68893 0.77371 0.4529 0.0
O25 O 0.67769 0.72093 0.52183 0.0
C26 C 0.53003 0.45587 0.88765 0.0
O27 O 0.54486 0.46487 0.85162 0.0
O28 O 0.49888 0.40671 0.76593 0.0
Zn29 Zn 0.52699 0.4222 0.79537 0.0
O30 O 0.53605 0.44507 0.73495 0.0
C31 C 0.54573 0.37797 0.80087 0.0
O32 O 0.52474 0.37299 0.81344 0.0
O33 O 0.5209 0.43724 0.87382 0.0
C34 C 0.5428 0.43779 0.68522 0.0
O35 O 0.54396 0.41597 0.67652 0.0
C36 C 0.48657 0.41327 0.72335 0.0
O37 O 0.49078 0.43267 0.69785 0.0
O38 O 0.55143 0.39855 0.79717 0.0
C39 C 0.83283 0.24217 0.17038 0.0
O40 O 0.83069 0.22442 0.13622 0.0
O41 O 0.87895 0.22747 0.06247 0.0
Zn42 Zn 0.86128 0.25629 0.07486 0.0
O43 O 0.836 0.25622 0.01661 0.0
C44 C 0.88941 0.28831 0.01173 0.0
O45 O 0.88321 0.27643 0.96564 0.0
O46 O 0.84629 0.25775 0.15496 0.0
C47 C 0.82832 0.27276 0.98747 0.0
O48 O 0.83737 0.29279 0.99342 0.0
C49 C 0.88148 0.22045 0.00969 0.0
O50 O 0.8721 0.23161 0.96615 0.0
O51 O 0.88192 0.28306 0.06262 0.0
C52 C 0.02277 0.44279 0.70254 0.0
O53 O 0.01042 0.45327 0.74201 0.0
O54 O 0.06157 0.39659 0.81971 0.0
Zn55 Zn 0.03386 0.41522 0.8032 0.0
O56 O 0.03804 0.44298 0.85242 0.0
C57 C 0.00524 0.39591 0.88793 0.0
O58 O 0.02157 0.40403 0.92076 0.0
O59 O 0.03316 0.42496 0.71755 0.0
C60 C 0.0223 0.4539 0.87728 0.0
O61 O 0.00132 0.44757 0.8697 0.0
C62 C 0.06128 0.37613 0.83611 0.0
O63 O 0.04206 0.36525 0.83795 0.0
O64 O 0.00624 0.3985 0.83211 0.0
C65 C 0.83364 0.75256 0.98208 0.0
O66 O 0.82712 0.76597 0.0249 0.0
O67 O 0.88624 0.77393 0.07463 0.0
Zn68 Zn 0.87029 0.74411 0.06279 0.0
O69 O 0.84924 0.73724 0.13013 0.0
C70 C 0.90272 0.71528 0.11474 0.0
O71 O 0.89577 0.7262 0.16178 0.0
O72 O 0.85217 0.74203 0.98711 0.0
C73 C 0.84868 0.74728 0.17967 0.0
O74 O 0.86242 0.76409 0.19018 0.0
C75 C 0.87727 0.79259 0.08886 0.0
O76 O 0.85528 0.79402 0.09302 0.0
O77 O 0.89418 0.72003 0.06471 0.0
C78 C 0.50288 0.55699 0.22426 0.0
O79 O 0.49035 0.55351 0.27127 0.0
O80 O 0.49061 0.60281 0.32842 0.0
Zn81 Zn 0.52013 0.58802 0.305 0.0
O82 O 0.52762 0.5624 0.35947 0.0
C83 C 0.54778 0.62495 0.34661 0.0
O84 O 0.53163 0.62693 0.3859 0.0
O85 O 0.51717 0.57293 0.22544 0.0
C86 C 0.53805 0.56317 0.40839 0.0
O87 O 0.54446 0.5826 0.43024 0.0
C88 C 0.48425 0.60396 0.38204 0.0
O89 O 0.49693 0.59521 0.42356 0.0
O90 O 0.54606 0.61012 0.30631 0.0
C91 C 0.71688 0.23492 0.4803 0.0
O92 O 0.71441 0.21401 0.49804 0.0
O93 O 0.67403 0.2131 0.58494 0.0
Zn94 Zn 0.68695 0.24447 0.57885 0.0
O95 O 0.70669 0.24717 0.64973 0.0
C96 C 0.66243 0.2851 0.61386 0.0
O97 O 0.68238 0.29325 0.62651 0.0
O98 O 0.7059 0.25042 0.50619 0.0
C99 C 0.72335 0.2603 0.65602 0.0
O100 O 0.72895 0.27405 0.61298 0.0
C101 C 0.66286 0.2109 0.63266 0.0
O102 O 0.661 0.22834 0.66802 0.0
O103 O 0.66091 0.26592 0.58931 0.0
C104 C 0.3346 0.26055 0.46793 0.0
O105 O 0.33784 0.28142 0.48501 0.0
O106 O 0.38165 0.28041 0.55949 0.0
Zn107 Zn 0.36526 0.25071 0.56381 0.0
O108 O 0.34501 0.25251 0.63419 0.0
C109 C 0.39123 0.21659 0.62575 0.0
O110 O 0.37907 0.22312 0.67107 0.0
O111 O 0.3454 0.24481 0.49326 0.0
C112 C 0.33005 0.23777 0.64445 0.0
O113 O 0.32771 0.22076 0.6079 0.0
C114 C 0.39281 0.28508 0.60585 0.0
O115 O 0.39302 0.27047 0.6494 0.0
O116 O 0.38801 0.22565 0.57545 0.0
C117 C 0.24393 0.73561 0.05447 0.0
O118 O 0.24257 0.72333 0.10264 0.0
O119 O 0.19912 0.73286 0.15689 0.0
Zn120 Zn 0.21475 0.76079 0.12543 0.0
O121 O 0.23772 0.77028 0.18536 0.0
C122 C 0.17166 0.78338 0.13015 0.0
O123 O 0.16438 0.76292 0.1407 0.0
O124 O 0.2322 0.75347 0.05108 0.0
C125 C 0.23418 0.78559 0.22345 0.0
O126 O 0.21478 0.79618 0.22388 0.0
C127 C 0.19535 0.7309 0.21204 0.0
O128 O 0.20192 0.74698 0.24785 0.0
O129 O 0.1923 0.78632 0.11718 0.0
C130 C 0.2179 0.25524 0.16102 0.0
O131 O 0.22045 0.27298 0.12707 0.0
O132 O 0.17076 0.2683 0.0495 0.0
Zn133 Zn 0.19015 0.2409 0.06395 0.0
O134 O 0.21543 0.24219 0.00549 0.0
C135 C 0.16012 0.21223 0.00106 0.0
O136 O 0.16177 0.22875 0.96272 0.0
O137 O 0.20451 0.23972 0.14481 0.0
C138 C 0.22179 0.22679 0.97041 0.0
O139 O 0.21147 0.20725 0.97056 0.0
C140 C 0.17914 0.28574 0.02543 0.0
O141 O 0.20093 0.28662 0.01602 0.0
O142 O 0.17113 0.21342 0.04915 0.0
C143 C 0.35367 0.72313 0.73055 0.0
O144 O 0.3612 0.70486 0.70453 0.0
O145 O 0.3797 0.71427 0.59054 0.0
Zn146 Zn 0.36985 0.74446 0.62354 0.0
O147 O 0.34566 0.75746 0.57269 0.0
C148 C 0.41479 0.75948 0.59659 0.0
O149 O 0.41847 0.73775 0.59267 0.0
O150 O 0.35674 0.74209 0.70583 0.0
C151 C 0.34991 0.76252 0.51933 0.0
O152 O 0.36994 0.75828 0.49743 0.0
C153 C 0.36992 0.70365 0.54906 0.0
O154 O 0.35069 0.71117 0.52847 0.0
O155 O 0.39579 0.76633 0.61527 0.0
C156 C 0.53801 0.0583 0.94948 0.0
O157 O 0.55691 0.05628 0.91977 0.0
O158 O 0.5576 0.09744 0.83254 0.0
Zn159 Zn 0.52722 0.08272 0.84587 0.0
O160 O 0.52506 0.0557 0.79335 0.0
C161 C 0.50734 0.11154 0.76515 0.0
O162 O 0.52494 0.10357 0.73689 0.0
O163 O 0.52254 0.07078 0.92861 0.0
C164 C 0.50794 0.05045 0.76275 0.0
O165 O 0.48981 0.06304 0.7647 0.0
C166 C 0.57229 0.08859 0.79877 0.0
O167 O 0.56896 0.06813 0.77871 0.0
O168 O 0.50385 0.10511 0.81807 0.0
C169 C 0.03633 0.96838 0.32803 0.0
O170 O 0.04916 0.97116 0.28128 0.0
O171 O -0.00046 0.90684 0.26485 0.0
Zn172 Zn 0.02632 0.92787 0.26547 0.0
O173 O 0.02498 0.94508 0.18941 0.0
C174 C 0.05787 0.88998 0.27333 0.0
O175 O 0.04071 0.87881 0.29524 0.0
O176 O 0.025 0.9503 0.33287 0.0
C177 C 0.00651 0.94887 0.16302 0.0
O178 O 0.98754 0.94232 0.18734 0.0
C179 C 0.99826 0.89272 0.22269 0.0
O180 O 0.01496 0.89135 0.18476 0.0
O181 O 0.05569 0.9108 0.26185 0.0
C182 C 0.53975 0.94161 0.25699 0.0
O183 O 0.55954 0.94133 0.28279 0.0
O184 O 0.56107 0.8977 0.35966 0.0
Zn185 Zn 0.52955 0.9102 0.34997 0.0
O186 O 0.52551 0.93068 0.41917 0.0
C187 C 0.49193 0.88368 0.39434 0.0
O188 O 0.48552 0.90275 0.41829 0.0
O189 O 0.52438 0.92855 0.27592 0.0
C190 C 0.51272 0.9475 0.42651 0.0
O191 O 0.49924 0.95393 0.38375 0.0
C192 C 0.56447 0.89175 0.41302 0.0
O193 O 0.54808 0.89393 0.45155 0.0
O194 O 0.50885 0.88352 0.35986 0.0
C195 C 0.00648 0.0683 0.66507 0.0
O196 O 0.99182 0.05834 0.69983 0.0
O197 O 0.98877 0.10814 0.80164 0.0
Zn198 Zn 0.01594 0.08987 0.77394 0.0
O199 O 0.01343 0.05914 0.81 0.0
C200 C 0.04827 0.1033 0.86062 0.0
O201 O 0.03531 0.09049 0.89346 0.0
O202 O 0.01809 0.08451 0.68568 0.0
C203 C 0.02928 0.04587 0.82384 0.0
O204 O 0.05026 0.05173 0.81389 0.0
C205 C 0.98035 0.10253 0.85138 0.0
O206 O 0.98824 0.08466 0.87838 0.0
O207 O 0.04372 0.10555 0.80596 0.0
H208 H 0.17793 0.69516 0.15015 0.0
H209 H 0.18277 0.7234 0.32668 0.0
H210 H 0.15873 0.69287 0.36493 0.0
H211 H 0.12104 0.67997 0.15812 0.0
H212 H 0.12407 0.65421 0.11686 0.0
H213 H 0.14323 0.67715 0.10426 0.0
H214 H 0.177 0.65091 0.12663 0.0
H215 H 0.1579 0.62784 0.13924 0.0
H216 H 0.17784 0.63572 0.19556 0.0
H217 H 0.13148 0.6612 0.38246 0.0
H218 H 0.10368 0.63029 0.37784 0.0
H219 H 0.11746 0.62233 0.19054 0.0
C220 C 0.17421 0.69475 0.197 0.0
C221 C 0.18226 0.71167 0.23539 0.0
C222 C 0.17685 0.71061 0.29636 0.0
C223 C 0.16322 0.69331 0.31859 0.0
C224 C 0.1553 0.67708 0.27941 0.0
C225 C 0.16071 0.67756 0.21998 0.0
C226 C 0.14918 0.65871 0.18677 0.0
C227 C 0.13345 0.66808 0.13869 0.0
C228 C 0.16652 0.64232 0.16051 0.0
C229 C 0.13604 0.64789 0.23655 0.0
C230 C 0.13987 0.65864 0.28971 0.0
C231 C 0.12858 0.65244 0.34125 0.0
C232 C 0.1128 0.6349 0.33818 0.0
C233 C 0.10852 0.62379 0.28398 0.0
C234 C 0.12058 0.63024 0.23286 0.0
H235 H 0.59422 0.86614 0.34843 0.0
H236 H 0.58209 0.89371 0.52305 0.0
H237 H 0.61439 0.87246 0.56205 0.0
H238 H 0.60547 0.8123 0.39519 0.0
H239 H 0.62725 0.80616 0.34212 0.0
H240 H 0.60594 0.82658 0.32488 0.0
H241 H 0.63664 0.85657 0.30464 0.0
H242 H 0.65813 0.83614 0.32144 0.0
H243 H 0.65738 0.86254 0.36059 0.0
H244 H 0.64398 0.84455 0.58549 0.0
H245 H 0.66963 0.81197 0.59123 0.0
H246 H 0.66291 0.80204 0.40196 0.0
C247 C 0.59891 0.86825 0.39433 0.0
C248 C 0.58584 0.88167 0.43268 0.0
C249 C 0.59197 0.88353 0.49295 0.0
C250 C 0.61034 0.87161 0.51548 0.0
C251 C 0.62245 0.85789 0.47717 0.0
C252 C 0.61715 0.85623 0.41777 0.0
C253 C 0.63141 0.83844 0.38776 0.0
C254 C 0.61663 0.81977 0.36094 0.0
C255 C 0.64681 0.84906 0.34083 0.0
C256 C 0.64487 0.82986 0.43998 0.0
C257 C 0.63966 0.84153 0.49095 0.0
C258 C 0.64856 0.83554 0.54571 0.0
C259 C 0.66303 0.81695 0.54859 0.0
C260 C 0.66838 0.80457 0.49705 0.0
C261 C 0.65944 0.81141 0.44199 0.0
H262 H 0.47448 0.37182 0.76514 0.0
H263 H 0.46031 0.41956 0.62479 0.0
H264 H 0.43428 0.39216 0.57909 0.0
H265 H 0.47525 0.32319 0.67574 0.0
H266 H 0.46216 0.30535 0.73026 0.0
H267 H 0.47864 0.32919 0.75332 0.0
H268 H 0.44474 0.34453 0.81321 0.0
H269 H 0.4282 0.32063 0.79072 0.0
H270 H 0.41811 0.34873 0.77675 0.0
H271 H 0.41117 0.35833 0.54616 0.0
H272 H 0.39161 0.32191 0.53204 0.0
H273 H 0.42129 0.29714 0.69474 0.0
C274 C 0.46573 0.37669 0.72517 0.0
C275 C 0.46942 0.39788 0.69862 0.0
C276 C 0.45769 0.40346 0.64611 0.0
C277 C 0.44292 0.38798 0.61973 0.0
C278 C 0.44001 0.36707 0.64656 0.0
C279 C 0.45098 0.36152 0.6984 0.0
C280 C 0.4454 0.33785 0.71798 0.0
C281 C 0.46662 0.32303 0.71938 0.0
C282 C 0.43339 0.33795 0.77822 0.0
C283 C 0.42967 0.33084 0.66888 0.0
C284 C 0.42675 0.34784 0.62796 0.0
C285 C 0.41323 0.34496 0.57815 0.0
C286 C 0.40225 0.32421 0.57038 0.0
C287 C 0.40486 0.30671 0.61234 0.0
C288 C 0.41882 0.31019 0.66197 0.0
H289 H 0.90121 0.20947 0.9045 0.0
H290 H 0.893 0.18629 0.08515 0.0
H291 H 0.9158 0.15258 0.06205 0.0
H292 H 0.89948 0.1551 0.83288 0.0
H293 H 0.9209 0.16215 0.77959 0.0
H294 H 0.90306 0.18387 0.80941 0.0
H295 H 0.93818 0.20617 0.84359 0.0
H296 H 0.95613 0.18458 0.81367 0.0
H297 H 0.95868 0.1926 0.89021 0.0
H298 H 0.93919 0.12162 0.01934 0.0
H299 H 0.96432 0.09674 0.96312 0.0
H300 H 0.95898 0.14089 0.81073 0.0
C301 C 0.90406 0.1972 0.93911 0.0
C302 C 0.8952 0.20034 0.99655 0.0
C303 C 0.89962 0.18416 0.04089 0.0
C304 C 0.91246 0.16495 0.02808 0.0
C305 C 0.9209 0.16236 0.97094 0.0
C306 C 0.91709 0.17814 0.92732 0.0
C307 C 0.92905 0.17191 0.87039 0.0
C308 C 0.91211 0.16802 0.8201 0.0
C309 C 0.94655 0.18988 0.8535 0.0
C310 C 0.94024 0.15013 0.88881 0.0
C311 C 0.93507 0.14485 0.94679 0.0
C312 C 0.94338 0.1256 0.97398 0.0
C313 C 0.95765 0.11154 0.94145 0.0
C314 C 0.96371 0.11685 0.8824 0.0
C315 C 0.95467 0.13635 0.85568 0.0
H316 H 0.06529 0.33546 0.89265 0.0
H317 H 0.10407 0.39321 0.83368 0.0
H318 H 0.13813 0.37699 0.87913 0.0
H319 H 0.09244 0.32924 0.03275 0.0
H320 H 0.09179 0.29892 0.03169 0.0
H321 H 0.07046 0.31471 0.9933 0.0
H322 H 0.08003 0.29384 0.89589 0.0
H323 H 0.10119 0.27781 0.93413 0.0
H324 H 0.10863 0.2938 0.86929 0.0
H325 H 0.1679 0.35464 0.93125 0.0
H326 H 0.19171 0.32689 0.98287 0.0
H327 H 0.13336 0.2841 0.00965 0.0
C328 C 0.08097 0.34462 0.88876 0.0
C329 C 0.08201 0.36559 0.85943 0.0
C330 C 0.10285 0.3771 0.85583 0.0
C331 C 0.12229 0.36806 0.88166 0.0
C332 C 0.12059 0.34755 0.91108 0.0
C333 C 0.10051 0.3359 0.91454 0.0
C334 C 0.10323 0.31419 0.94887 0.0
C335 C 0.08861 0.31429 0.00498 0.0
C336 C 0.09796 0.2937 0.9097 0.0
C337 C 0.12801 0.3154 0.96395 0.0
C338 C 0.13769 0.3348 0.94183 0.0
C339 C 0.1605 0.33942 0.94892 0.0
C340 C 0.17388 0.32357 0.9784 0.0
C341 C 0.16439 0.30338 0.00056 0.0
C342 C 0.14107 0.29949 0.99389 0.0
H343 H 0.99338 0.8548 0.15568 0.0
H344 H 0.95601 0.90175 0.26492 0.0
H345 H 0.92063 0.88208 0.23951 0.0
H346 H 0.9531 0.84915 0.04045 0.0
H347 H 0.9578 0.81947 0.02984 0.0
H348 H 0.98019 0.83706 0.05702 0.0
H349 H 0.98456 0.81141 0.14896 0.0
H350 H 0.96239 0.79357 0.12169 0.0
H351 H 0.96036 0.80563 0.19459 0.0
H352 H 0.88916 0.85824 0.19802 0.0
H353 H 0.86446 0.82951 0.15313 0.0
H354 H 0.92281 0.7974 0.07426 0.0
C355 C 0.97777 0.86086 0.17454 0.0
C356 C 0.9774 0.87982 0.21215 0.0
C357 C 0.95667 0.88717 0.23628 0.0
C358 C 0.93649 0.8762 0.22179 0.0
C359 C 0.93741 0.85778 0.18371 0.0
C360 C 0.95756 0.84995 0.1612 0.0
C361 C 0.95405 0.82948 0.12246 0.0
C362 C 0.96174 0.83408 0.05867 0.0
C363 C 0.96605 0.8088 0.1485 0.0
C364 C 0.92875 0.82712 0.12623 0.0
C365 C 0.91942 0.84371 0.16129 0.0
C366 C 0.89629 0.84509 0.17075 0.0
C367 C 0.88239 0.82877 0.14475 0.0
C368 C 0.89169 0.81119 0.11024 0.0
C369 C 0.91517 0.8106 0.10046 0.0
H370 H 0.40753 0.68115 0.58639 0.0
H371 H 0.35991 0.68506 0.44142 0.0
H372 H 0.38291 0.65809 0.38444 0.0
H373 H 0.45621 0.67978 0.50115 0.0
H374 H 0.47113 0.66009 0.54729 0.0
H375 H 0.44986 0.67794 0.57893 0.0
H376 H 0.42868 0.64298 0.61892 0.0
H377 H 0.45003 0.62498 0.58786 0.0
H378 H 0.4209 0.62075 0.56874 0.0
H379 H 0.41357 0.63432 0.33878 0.0
H380 H 0.44777 0.61287 0.31178 0.0
H381 H 0.47422 0.62319 0.48836 0.0
C382 C 0.40168 0.676 0.54313 0.0
C383 C 0.38191 0.6852 0.51839 0.0
C384 C 0.37491 0.67812 0.46149 0.0
C385 C 0.38791 0.66286 0.42868 0.0
C386 C 0.40765 0.65458 0.45377 0.0
C387 C 0.4143 0.66062 0.5101 0.0
C388 C 0.4366 0.64997 0.52616 0.0
C389 C 0.4545 0.66802 0.53912 0.0
C390 C 0.43388 0.6337 0.57852 0.0
C391 C 0.44174 0.63743 0.46954 0.0
C392 C 0.42488 0.64032 0.42821 0.0
C393 C 0.42668 0.6316 0.37116 0.0
C394 C 0.44618 0.61955 0.35612 0.0
C395 C 0.46349 0.61618 0.39817 0.0
C396 C 0.46107 0.62513 0.45563 0.0
H397 H 0.63293 0.20398 0.72196 0.0
H398 H 0.66904 0.16904 0.58272 0.0
H399 H 0.65193 0.13305 0.61522 0.0
H400 H 0.63692 0.16066 0.83305 0.0
H401 H 0.60899 0.16573 0.86115 0.0
H402 H 0.62478 0.18839 0.82826 0.0
H403 H 0.5923 0.19578 0.7543 0.0
H404 H 0.57635 0.17332 0.78732 0.0
H405 H 0.58208 0.173 0.70909 0.0
H406 H 0.63018 0.10103 0.66292 0.0
H407 H 0.60357 0.07625 0.71577 0.0
H408 H 0.58168 0.13288 0.82251 0.0
C409 C 0.63739 0.18877 0.69834 0.0
C410 C 0.65242 0.18928 0.64994 0.0
C411 C 0.65756 0.16903 0.6199 0.0
C412 C 0.64802 0.14852 0.63826 0.0
C413 C 0.63337 0.14865 0.68654 0.0
C414 C 0.62798 0.16832 0.71579 0.0
C415 C 0.61105 0.16425 0.7646 0.0
C416 C 0.62104 0.1701 0.82536 0.0
C417 C 0.58915 0.17736 0.75311 0.0
C418 C 0.60755 0.13918 0.75812 0.0
C419 C 0.62072 0.13042 0.7133 0.0
C420 C 0.61986 0.10772 0.6982 0.0
C421 C 0.60472 0.09376 0.72866 0.0
C422 C 0.59052 0.10259 0.77341 0.0
C423 C 0.59238 0.12553 0.7889 0.0
H424 H 0.97511 0.36702 0.83542 0.0
H425 H 0.99391 0.39588 0.00457 0.0
H426 H 0.96476 0.37309 0.05392 0.0
H427 H 0.91448 0.3627 0.86474 0.0
H428 H 0.91193 0.33613 0.82691 0.0
H429 H 0.93301 0.35612 0.80405 0.0
H430 H 0.96392 0.32582 0.81784 0.0
H431 H 0.94296 0.30579 0.8409 0.0
H432 H 0.96661 0.31181 0.88815 0.0
H433 H 0.93507 0.3458 0.08585 0.0
H434 H 0.90711 0.3154 0.09812 0.0
H435 H 0.90804 0.30382 0.9086 0.0
C436 C 0.97282 0.36881 0.88267 0.0
C437 C 0.9867 0.38329 0.91613 0.0
C438 C 0.98347 0.38488 0.97804 0.0
C439 C 0.96691 0.37206 0.0065 0.0
C440 C 0.95374 0.35769 0.97245 0.0
C441 C 0.95647 0.35598 0.91191 0.0
C442 C 0.94093 0.33831 0.8862 0.0
C443 C 0.92409 0.34896 0.84292 0.0
C444 C 0.95442 0.31931 0.85654 0.0
C445 C 0.9293 0.33018 0.94184 0.0
C446 C 0.93679 0.3417 0.99103 0.0
C447 C 0.92895 0.33674 0.04762 0.0
C448 C 0.91309 0.31943 0.05415 0.0
C449 C 0.90536 0.30722 0.00438 0.0
C450 C 0.91353 0.31286 0.94754 0.0
H451 H 0.4701 0.13337 0.81017 0.0
H452 H 0.50893 0.124 0.64931 0.0
H453 H 0.48287 0.14885 0.59573 0.0
H454 H 0.41532 0.13467 0.74077 0.0
H455 H 0.40444 0.15619 0.78911 0.0
H456 H 0.42593 0.13725 0.8151 0.0
H457 H 0.45125 0.1712 0.84237 0.0
H458 H 0.42982 0.19023 0.81663 0.0
H459 H 0.45789 0.19187 0.7867 0.0
H460 H 0.45289 0.17484 0.55925 0.0
H461 H 0.42148 0.20134 0.54342 0.0
H462 H 0.40226 0.19423 0.72775 0.0
C463 C 0.47309 0.13652 0.76367 0.0
C464 C 0.49156 0.1267 0.734 0.0
C465 C 0.49492 0.13132 0.67314 0.0
C466 C 0.48017 0.14539 0.64216 0.0
C467 C 0.46214 0.15477 0.6726 0.0
C468 C 0.45855 0.15063 0.732 0.0
C469 C 0.4381 0.16325 0.75433 0.0
C470 C 0.41987 0.14686 0.7761 0.0
C471 C 0.44467 0.18014 0.80287 0.0
C472 C 0.43087 0.17517 0.69826 0.0
C473 C 0.4449 0.16995 0.65158 0.0
C474 C 0.44174 0.17905 0.59543 0.0
C475 C 0.42384 0.19407 0.58686 0.0
C476 C 0.40939 0.19988 0.63427 0.0
C477 C 0.41296 0.19012 0.69053 0.0
H478 H 0.56086 0.65049 0.44142 0.0
H479 H 0.58212 0.62915 0.26653 0.0
H480 H 0.61781 0.64988 0.27923 0.0
H481 H 0.58506 0.70621 0.43656 0.0
H482 H 0.59343 0.70584 0.5131 0.0
H483 H 0.56933 0.68984 0.48945 0.0
H484 H 0.58705 0.65372 0.53347 0.0
H485 H 0.61129 0.66956 0.55687 0.0
H486 H 0.6148 0.64524 0.51019 0.0
H487 H 0.65097 0.67288 0.31067 0.0
H488 H 0.6796 0.69671 0.35846 0.0
H489 H 0.63742 0.70214 0.51456 0.0
C490 C 0.57292 0.65033 0.40552 0.0
C491 C 0.56865 0.63829 0.35279 0.0
C492 C 0.585 0.63829 0.30723 0.0
C493 C 0.60533 0.64999 0.31407 0.0
C494 C 0.60909 0.66147 0.36685 0.0
C495 C 0.59337 0.66174 0.41182 0.0
C496 C 0.60175 0.67506 0.46453 0.0
C497 C 0.58649 0.69545 0.47659 0.0
C498 C 0.60385 0.65999 0.51951 0.0
C499 C 0.62464 0.68232 0.44209 0.0
C500 C 0.62847 0.67433 0.38558 0.0
C501 C 0.64819 0.67918 0.35495 0.0
C502 C 0.66434 0.69274 0.38251 0.0
C503 C 0.66077 0.70121 0.44032 0.0
C504 C 0.64072 0.69572 0.47062 0.0
H505 H 0.12917 0.78262 0.17672 0.0
H506 H 0.18119 0.82827 0.11504 0.0
H507 H 0.15806 0.86064 0.14693 0.0
H508 H 0.08127 0.81696 0.13526 0.0
H509 H 0.0653 0.80918 0.19986 0.0
H510 H 0.08557 0.78989 0.16935 0.0
H511 H 0.10538 0.78763 0.27119 0.0
H512 H 0.08537 0.80717 0.3018 0.0
H513 H 0.11506 0.81312 0.30611 0.0
H514 H 0.12954 0.88798 0.1883 0.0
H515 H 0.09714 0.9082 0.23138 0.0
H516 H 0.06446 0.84435 0.268 0.0
C517 C 0.13562 0.79941 0.16905 0.0
C518 C 0.15697 0.8029 0.14305 0.0
C519 C 0.16484 0.82517 0.13455 0.0
C520 C 0.15186 0.84366 0.15274 0.0
C521 C 0.13111 0.83958 0.17946 0.0
C522 C 0.12299 0.818 0.18724 0.0
C523 C 0.10038 0.81808 0.21813 0.0
C524 C 0.08205 0.80793 0.17826 0.0
C525 C 0.10164 0.80577 0.27784 0.0
C526 C 0.09701 0.84311 0.22657 0.0
C527 C 0.11491 0.85523 0.20401 0.0
C528 C 0.11544 0.87865 0.20609 0.0
C529 C 0.09698 0.88998 0.23083 0.0
C530 C 0.07828 0.87788 0.25332 0.0
C531 C 0.07855 0.85411 0.25175 0.0
H532 H 0.99012 0.63696 0.2869 0.0
H533 H 0.01738 0.61882 0.11535 0.0
H534 H 0.98821 0.64154 0.06644 0.0
H535 H 0.93091 0.63784 0.24355 0.0
H536 H 0.9244 0.66201 0.28854 0.0
H537 H 0.94654 0.64306 0.31042 0.0
H538 H 0.9746 0.67641 0.31426 0.0
H539 H 0.95257 0.69543 0.29236 0.0
H540 H 0.9782 0.69395 0.24991 0.0
H541 H 0.9568 0.6668 0.0357 0.0
H542 H 0.92599 0.69442 0.02563 0.0
H543 H 0.91982 0.69735 0.21675 0.0
C544 C 0.98974 0.6376 0.23908 0.0
C545 C 0.00596 0.62609 0.20492 0.0
C546 C 0.00516 0.62757 0.14243 0.0
C547 C 0.9886 0.64035 0.11416 0.0
C548 C 0.973 0.6517 0.14896 0.0
C549 C 0.97344 0.65056 0.21002 0.0
C550 C 0.95538 0.66536 0.23687 0.0
C551 C 0.93829 0.65122 0.27191 0.0
C552 C 0.96582 0.68389 0.27562 0.0
C553 C 0.94492 0.67507 0.18139 0.0
C554 C 0.95518 0.66678 0.13116 0.0
C555 C 0.94857 0.67341 0.07469 0.0
C556 C 0.93106 0.68908 0.0694 0.0
C557 C 0.92055 0.69808 0.12033 0.0
C558 C 0.92756 0.69083 0.17694 0.0
H559 H 0.07149 0.1397 0.81652 0.0
H560 H 0.06731 0.09501 0.96792 0.0
H561 H 0.09691 0.11689 0.01812 0.0
H562 H 0.13241 0.14974 0.82348 0.0
H563 H 0.12976 0.17891 0.80292 0.0
H564 H 0.10954 0.15864 0.77671 0.0
H565 H 0.07723 0.18254 0.82119 0.0
H566 H 0.09733 0.2028 0.84773 0.0
H567 H 0.07792 0.18979 0.89854 0.0
H568 H 0.12551 0.14455 0.0541 0.0
H569 H 0.15094 0.17652 0.07381 0.0
H570 H 0.13603 0.20375 0.90007 0.0
C571 C 0.07708 0.1343 0.8598 0.0
C572 C 0.06717 0.11559 0.8882 0.0
C573 C 0.07467 0.10929 0.94529 0.0
C574 C 0.09152 0.12157 0.97414 0.0
C575 C 0.10068 0.14014 0.94539 0.0
C576 C 0.09378 0.14651 0.8895 0.0
C577 C 0.10553 0.16786 0.86986 0.0
C578 C 0.12018 0.16352 0.81499 0.0
C579 C 0.08848 0.18687 0.85869 0.0
C580 C 0.11986 0.17265 0.92377 0.0
C581 C 0.11696 0.15634 0.9666 0.0
C582 C 0.12804 0.15737 0.02077 0.0
C583 C 0.14243 0.17561 0.03158 0.0
C584 C 0.14549 0.19265 0.98854 0.0
C585 C 0.13409 0.191 0.93387 0.0
H586 H 0.65806 0.32822 0.65657 0.0
H587 H 0.6206 0.26659 0.62566 0.0
H588 H 0.58749 0.28314 0.67472 0.0
H589 H 0.63551 0.3407 0.79898 0.0
H590 H 0.63393 0.37064 0.78711 0.0
H591 H 0.65485 0.35423 0.74891 0.0
H592 H 0.64034 0.36903 0.64816 0.0
H593 H 0.61961 0.38575 0.68611 0.0
H594 H 0.61097 0.36606 0.62995 0.0
H595 H 0.55913 0.30543 0.7312 0.0
H596 H 0.53545 0.33391 0.78 0.0
H597 H 0.59056 0.38183 0.77123 0.0
C598 C 0.64282 0.31829 0.65965 0.0
C599 C 0.64195 0.2961 0.6373 0.0
C600 C 0.62167 0.28367 0.64208 0.0
C601 C 0.6028 0.29286 0.67028 0.0
C602 C 0.60438 0.31458 0.69293 0.0
C603 C 0.6237 0.32731 0.68705 0.0
C604 C 0.62067 0.35047 0.71404 0.0
C605 C 0.63723 0.35422 0.7653 0.0
C606 C 0.62303 0.36891 0.66674 0.0
C607 C 0.59667 0.34868 0.73623 0.0
C608 C 0.58771 0.32773 0.72417 0.0
C609 C 0.5659 0.32195 0.74063 0.0
C610 C 0.55262 0.33823 0.76868 0.0
C611 C 0.56111 0.36014 0.77947 0.0
C612 C 0.58358 0.36524 0.76376 0.0
H613 H 0.41116 0.80557 0.58834 0.0
H614 H 0.45392 0.74936 0.53898 0.0
H615 H 0.47751 0.77489 0.4796 0.0
H616 H 0.41212 0.83335 0.45021 0.0
H617 H 0.41318 0.86138 0.48048 0.0
H618 H 0.40007 0.83904 0.5218 0.0
H619 H 0.42639 0.84687 0.61071 0.0
H620 H 0.43932 0.86951 0.57006 0.0
H621 H 0.45643 0.84714 0.59955 0.0
H622 H 0.49495 0.80585 0.42018 0.0
H623 H 0.50798 0.84118 0.37443 0.0
H624 H 0.45456 0.87756 0.46409 0.0
C625 C 0.4257 0.79868 0.56587 0.0
C626 C 0.43065 0.77542 0.56837 0.0
C627 C 0.44978 0.7671 0.53797 0.0
C628 C 0.46324 0.78144 0.5038 0.0
C629 C 0.45748 0.80412 0.50082 0.0
C630 C 0.43942 0.81279 0.5318 0.0
C631 C 0.43693 0.83783 0.52099 0.0
C632 C 0.41423 0.84321 0.49162 0.0
C633 C 0.43996 0.85112 0.57876 0.0
C634 C 0.45633 0.84182 0.4788 0.0
C635 C 0.46784 0.8221 0.46738 0.0
C636 C 0.48619 0.82144 0.4291 0.0
C637 C 0.49336 0.8416 0.403 0.0
C638 C 0.48232 0.86218 0.41568 0.0
C639 C 0.46336 0.86213 0.45349 0.0
H640 H 0.00342 0.53054 0.1607 0.0
H641 H 0.07416 0.5484 0.14953 0.0
H642 H 0.0775 0.52667 0.05706 0.0
H643 H 0.0093 0.47437 0.10999 0.0
H644 H 0.98332 0.47435 0.06895 0.0
H645 H 0.98631 0.49217 0.13275 0.0
H646 H 0.9759 0.52693 0.06916 0.0
H647 H 0.97301 0.50921 0.005 0.0
H648 H 0.99185 0.53297 0.00323 0.0
H649 H 0.07359 0.50186 0.96869 0.0
H650 H 0.06295 0.47461 0.89141 0.0
H651 H 0.99464 0.47333 0.95956 0.0
C652 C 0.0196 0.52996 0.13874 0.0
C653 C 0.03853 0.54115 0.16228 0.0
C654 C 0.05943 0.53994 0.13228 0.0
C655 C 0.06148 0.52772 0.07964 0.0
C656 C 0.04247 0.51693 0.05759 0.0
C657 C 0.02194 0.51789 0.08616 0.0
C658 C 0.00431 0.50415 0.05418 0.0
C659 C 0.99529 0.48513 0.09383 0.0
C660 C 0.98514 0.51922 0.03155 0.0
C661 C 0.01825 0.49501 0.00366 0.0
C662 C 0.04016 0.50271 0.00625 0.0
C663 C 0.05644 0.49584 0.96587 0.0
C664 C 0.05024 0.48035 0.92221 0.0
C665 C 0.02796 0.47193 0.91942 0.0
C666 C 0.01172 0.47969 0.96012 0.0
H667 H 0.82887 0.77229 0.26635 0.0
H668 H 0.83356 0.7045 0.19633 0.0
H669 H 0.80748 0.69106 0.27382 0.0
H670 H 0.82415 0.75772 0.42199 0.0
H671 H 0.80371 0.77937 0.43715 0.0
H672 H 0.82418 0.78333 0.37928 0.0
H673 H 0.79212 0.79057 0.30401 0.0
H674 H 0.77159 0.78671 0.36163 0.0
H675 H 0.77015 0.76992 0.29541 0.0
H676 H 0.78086 0.68512 0.35817 0.0
H677 H 0.75242 0.68766 0.43756 0.0
H678 H 0.76322 0.75978 0.44806 0.0
C679 C 0.82458 0.75458 0.26789 0.0
C680 C 0.83327 0.73934 0.22598 0.0
C681 C 0.82699 0.71639 0.22826 0.0
C682 C 0.81233 0.7086 0.27221 0.0
C683 C 0.80395 0.72407 0.31286 0.0
C684 C 0.80961 0.74662 0.31067 0.0
C685 C 0.79695 0.76001 0.35678 0.0
C686 C 0.81322 0.77074 0.40145 0.0
C687 C 0.7818 0.77785 0.32771 0.0
C688 C 0.78321 0.74148 0.38501 0.0
C689 C 0.78778 0.72082 0.35971 0.0
C690 C 0.77712 0.70119 0.37836 0.0
C691 C 0.76107 0.70279 0.42353 0.0
C692 C 0.75564 0.72392 0.44864 0.0
C693 C 0.76701 0.74343 0.42941 0.0
H694 H 0.54254 0.55741 0.52778 0.0
H695 H 0.54303 0.52143 0.36094 0.0
H696 H 0.54855 0.48562 0.41419 0.0
H697 H 0.58334 0.52145 0.60693 0.0
H698 H 0.56787 0.52299 0.67537 0.0
H699 H 0.56699 0.54615 0.62401 0.0
H700 H 0.52344 0.5439 0.62205 0.0
H701 H 0.5242 0.52078 0.67331 0.0
H702 H 0.51004 0.51763 0.60339 0.0
H703 H 0.55161 0.4537 0.48491 0.0
H704 H 0.54914 0.42734 0.56882 0.0
H705 H 0.5448 0.48382 0.69007 0.0
C706 C 0.5443 0.54203 0.50254 0.0
C707 C 0.5426 0.54211 0.44038 0.0
C708 C 0.54435 0.52165 0.40869 0.0
C709 C 0.54762 0.50127 0.43846 0.0
C710 C 0.54893 0.50167 0.49988 0.0
C711 C 0.54718 0.52147 0.53166 0.0
C712 C 0.54689 0.51697 0.59752 0.0
C713 C 0.56751 0.52751 0.62773 0.0
C714 C 0.52483 0.52531 0.62569 0.0
C715 C 0.54826 0.49155 0.59765 0.0
C716 C 0.54986 0.4831 0.54092 0.0
C717 C 0.55053 0.46008 0.52961 0.0
C718 C 0.54912 0.44525 0.57757 0.0
C719 C 0.54674 0.45354 0.63592 0.0
C720 C 0.54667 0.477 0.64596 0.0
H721 H 0.81748 0.29727 0.88871 0.0
H722 H 0.79729 0.2393 0.99282 0.0
H723 H 0.76713 0.23112 0.92134 0.0
H724 H 0.76105 0.31385 0.83962 0.0
H725 H 0.77046 0.32146 0.76654 0.0
H726 H 0.78932 0.32402 0.82849 0.0
H727 H 0.81836 0.29876 0.77463 0.0
H728 H 0.79956 0.29602 0.7127 0.0
H729 H 0.80999 0.27122 0.74944 0.0
H730 H 0.7404 0.22822 0.83824 0.0
H731 H 0.71883 0.23005 0.7457 0.0
H732 H 0.75694 0.28908 0.69224 0.0
C733 C 0.80644 0.28311 0.89684 0.0
C734 C 0.80955 0.26899 0.94633 0.0
C735 C 0.79514 0.25031 0.95508 0.0
C736 C 0.77793 0.24557 0.9149 0.0
C737 C 0.77549 0.25958 0.86609 0.0
C738 C 0.78933 0.27793 0.85665 0.0
C739 C 0.78386 0.2894 0.79859 0.0
C740 C 0.77568 0.31362 0.80895 0.0
C741 C 0.80415 0.2888 0.75636 0.0
C742 C 0.76496 0.27446 0.77677 0.0
C743 C 0.76031 0.25752 0.8168 0.0
C744 C 0.74379 0.24144 0.80655 0.0
C745 C 0.73165 0.24264 0.75379 0.0
C746 C 0.73622 0.2597 0.71169 0.0
C747 C 0.75309 0.27583 0.72352 0.0
H748 H 0.23528 0.20118 0.87563 0.0
H749 H 0.24977 0.26316 0.97003 0.0
H750 H 0.27954 0.27211 0.89805 0.0
H751 H 0.29307 0.18817 0.83481 0.0
H752 H 0.28548 0.17755 0.76293 0.0
H753 H 0.2659 0.17541 0.82349 0.0
H754 H 0.23585 0.19647 0.76166 0.0
H755 H 0.25536 0.19876 0.70103 0.0
H756 H 0.24245 0.2237 0.73108 0.0
H757 H 0.30687 0.27499 0.8153 0.0
H758 H 0.33031 0.27166 0.72593 0.0
H759 H 0.29791 0.2081 0.68387 0.0
C760 C 0.24487 0.21651 0.88148 0.0
C761 C 0.24025 0.23144 0.92851 0.0
C762 C 0.25301 0.25147 0.93432 0.0
C763 C 0.26998 0.2567 0.89373 0.0
C764 C 0.27396 0.24177 0.84757 0.0
C765 C 0.26183 0.22208 0.84114 0.0
C766 C 0.2691 0.20932 0.78644 0.0
C767 C 0.27898 0.18625 0.80293 0.0
C768 C 0.24952 0.20693 0.74246 0.0
C769 C 0.28709 0.22501 0.76303 0.0
C770 C 0.28966 0.24356 0.79917 0.0
C771 C 0.30508 0.26052 0.78666 0.0
C772 C 0.31829 0.25847 0.73575 0.0
C773 C 0.31593 0.23963 0.69789 0.0
C774 C 0.3001 0.2227 0.7119 0.0
H775 H 0.34589 0.75842 0.39984 0.0
H776 H 0.31336 0.78683 0.55439 0.0
H777 H 0.28208 0.80036 0.49186 0.0
H778 H 0.32742 0.80124 0.29108 0.0
H779 H 0.32293 0.78042 0.23437 0.0
H780 H 0.34435 0.77608 0.28956 0.0
H781 H 0.32631 0.73778 0.31732 0.0
H782 H 0.30491 0.74199 0.26233 0.0
H783 H 0.29704 0.73681 0.33807 0.0
H784 H 0.25317 0.80819 0.41423 0.0
H785 H 0.22723 0.80691 0.32909 0.0
H786 H 0.27791 0.77164 0.22657 0.0
C787 C 0.33244 0.76797 0.42019 0.0
C788 C 0.33206 0.77185 0.48163 0.0
C789 C 0.31391 0.7838 0.50721 0.0
C790 C 0.29619 0.79166 0.47205 0.0
C791 C 0.29686 0.78727 0.4116 0.0
C792 C 0.31445 0.77557 0.38592 0.0
C793 C 0.30994 0.77083 0.32134 0.0
C794 C 0.32719 0.78287 0.28176 0.0
C795 C 0.30952 0.74535 0.30909 0.0
C796 C 0.28682 0.78115 0.31513 0.0
C797 C 0.27977 0.79099 0.36728 0.0
C798 C 0.25856 0.80073 0.37296 0.0
C799 C 0.24397 0.79995 0.32437 0.0
C800 C 0.25057 0.78915 0.27137 0.0
C801 C 0.27243 0.78006 0.26652 0.0
H802 H 0.48733 0.98392 0.46218 0.0
H803 H 0.53953 0.9378 0.52059 0.0
H804 H 0.54168 0.95757 0.61561 0.0
H805 H 0.51074 0.03286 0.52604 0.0
H806 H 0.48421 0.04496 0.54795 0.0
H807 H 0.4855 0.0263 0.48539 0.0
H808 H 0.45523 0.00076 0.53344 0.0
H809 H 0.45388 0.01935 0.59628 0.0
H810 H 0.45976 0.98987 0.60684 0.0
H811 H 0.54063 0.98351 0.70042 0.0
H812 H 0.53586 0.01442 0.77196 0.0
H813 H 0.48361 0.04338 0.66168 0.0
C814 C 0.49905 0.97788 0.49518 0.0
C815 C 0.51324 0.95932 0.48385 0.0
C816 C 0.52845 0.95197 0.52811 0.0
C817 C 0.52978 0.96304 0.58241 0.0
C818 C 0.5157 0.98132 0.59207 0.0
C819 C 0.50056 0.9887 0.55 0.0
C820 C 0.48803 0.00937 0.57124 0.0
C821 C 0.4924 0.02956 0.53022 0.0
C822 C 0.46272 0.00454 0.57731 0.0
C823 C 0.49892 0.01267 0.63112 0.0
C824 C 0.51476 0.99621 0.64221 0.0
C825 C 0.52806 0.99635 0.69279 0.0
C826 C 0.52528 0.01398 0.733 0.0
C827 C 0.50925 0.03111 0.72243 0.0
C828 C 0.49568 0.03025 0.6713 0.0
H829 H 0.05599 0.02526 0.90591 0.0
H830 H 0.98976 0.02291 0.82576 0.0
H831 H 0.97782 0.99461 0.89907 0.0
H832 H 0.05855 0.96455 0.95251 0.0
H833 H 0.07247 0.97169 0.02073 0.0
H834 H 0.07706 0.98855 0.9556 0.0
H835 H 0.06482 0.02406 0.01374 0.0
H836 H 0.05983 0.00733 0.07865 0.0
H837 H 0.03761 0.02458 0.04899 0.0
H838 H 0.97132 0.97128 0.98851 0.0
H839 H 0.97134 0.95251 0.08581 0.0
H840 H 0.0417 0.97018 0.1086 0.0
C841 C 0.03928 0.01812 0.90247 0.0
C842 C 0.02384 0.02604 0.86003 0.0
C843 C 0.00185 0.01691 0.85792 0.0
C844 C 0.99494 0.00083 0.89925 0.0
C845 C 0.01024 0.99405 0.94222 0.0
C846 C 0.03204 0.00218 0.9438 0.0
C847 C 0.04439 0.99388 0.99808 0.0
C848 C 0.06429 0.97876 0.98067 0.0
C849 C 0.0521 0.01364 0.03715 0.0
C850 C 0.02589 0.98046 0.0276 0.0
C851 C 0.0064 0.9806 0.99439 0.0
C852 C 0.98658 0.97068 0.01448 0.0
C853 C 0.98672 0.96022 0.06996 0.0
C854 C 0.00653 0.95983 0.1046 0.0
C855 C 0.02636 0.96998 0.0828 0.0
H856 H 0.00723 0.4835 0.66223 0.0
H857 H 0.04931 0.42681 0.61279 0.0
H858 H 0.06085 0.44692 0.52232 0.0
H859 H 0.98964 0.4988 0.51078 0.0
H860 H 0.99048 0.52852 0.5265 0.0
H861 H 0.98386 0.5088 0.58447 0.0
H862 H 0.01634 0.52504 0.64772 0.0
H863 H 0.02323 0.54462 0.58979 0.0
H864 H 0.04444 0.52574 0.6177 0.0
H865 H 0.07062 0.47434 0.4429 0.0
H866 H 0.07625 0.50634 0.37551 0.0
H867 H 0.02746 0.54539 0.47506 0.0
C868 C 0.01851 0.47509 0.63182 0.0
C869 C 0.02733 0.45352 0.64463 0.0
C870 C 0.04226 0.44326 0.60392 0.0
C871 C 0.04894 0.45457 0.55242 0.0
C872 C 0.04042 0.47605 0.54204 0.0
C873 C 0.02533 0.48613 0.58016 0.0
C874 C 0.01949 0.50976 0.55989 0.0
C875 C 0.99438 0.51157 0.54448 0.0
C876 C 0.02629 0.52732 0.60656 0.0
C877 C 0.03405 0.51156 0.50507 0.0
C878 C 0.04592 0.49188 0.49563 0.0
C879 C 0.06122 0.48973 0.44941 0.0
C880 C 0.06437 0.50809 0.41154 0.0
C881 C 0.05226 0.5284 0.41987 0.0
C882 C 0.03684 0.53006 0.46727 0.0
H883 H 0.8 0.77973 0.94054 0.0
H884 H 0.83298 0.71569 0.90957 0.0
H885 H 0.80592 0.70742 0.82946 0.0
H886 H 0.74327 0.7618 0.91257 0.0
H887 H 0.73536 0.78734 0.875 0.0
H888 H 0.75687 0.78799 0.93104 0.0
H889 H 0.7848 0.80594 0.8567 0.0
H890 H 0.76331 0.8056 0.8007 0.0
H891 H 0.79001 0.7922 0.78698 0.0
H892 H 0.77442 0.70568 0.75485 0.0
H893 H 0.74419 0.7127 0.6823 0.0
H894 H 0.73321 0.77884 0.75834 0.0
C895 C 0.80153 0.76397 0.91686 0.0
C896 C 0.81851 0.74829 0.93141 0.0
C897 C 0.82014 0.72797 0.89898 0.0
C898 C 0.80476 0.72306 0.85373 0.0
C899 C 0.78803 0.73877 0.841 0.0
C900 C 0.78657 0.75898 0.87094 0.0
C901 C 0.76774 0.77346 0.84672 0.0
C902 C 0.74975 0.7779 0.89417 0.0
C903 C 0.77702 0.79561 0.82125 0.0
C904 C 0.75882 0.75825 0.79842 0.0
C905 C 0.77051 0.73816 0.79648 0.0
C906 C 0.76521 0.72138 0.75581 0.0
C907 C 0.74791 0.72547 0.71502 0.0
C908 C 0.73635 0.74632 0.71464 0.0
C909 C 0.74174 0.76274 0.75752 0.0
H910 H 0.53031 0.55538 0.12591 0.0
H911 H 0.47409 0.5216 0.21073 0.0
H912 H 0.47488 0.4923 0.13378 0.0
H913 H 0.51327 0.54321 0.97372 0.0
H914 H 0.54178 0.53901 0.94883 0.0
H915 H 0.53608 0.55799 0.00907 0.0
H916 H 0.56404 0.53593 0.075 0.0
H917 H 0.56965 0.51674 0.0152 0.0
H918 H 0.56014 0.50611 0.08553 0.0
H919 H 0.48297 0.4655 0.05127 0.0
H920 H 0.49637 0.44422 0.96452 0.0
H921 H 0.54709 0.4954 0.93222 0.0
C922 C 0.51795 0.542 0.12783 0.0
C923 C 0.50212 0.54083 0.17443 0.0
C924 C 0.48637 0.52292 0.17553 0.0
C925 C 0.4867 0.50614 0.13205 0.0
C926 C 0.5028 0.50752 0.08751 0.0
C927 C 0.51801 0.52508 0.08466 0.0
C928 C 0.53383 0.5223 0.03256 0.0
C929 C 0.53106 0.54178 0.98843 0.0
C930 C 0.55837 0.52014 0.05334 0.0
C931 C 0.52524 0.50034 0.00702 0.0
C932 C 0.50737 0.4921 0.03948 0.0
C933 C 0.49687 0.47186 0.02522 0.0
C934 C 0.50467 0.45984 0.97597 0.0
C935 C 0.52276 0.46812 0.94142 0.0
C936 C 0.53319 0.48862 0.95756 0.0
H937 H 0.80617 0.21036 0.22379 0.0
H938 H 0.82486 0.2809 0.23263 0.0
H939 H 0.79693 0.28678 0.31199 0.0
H940 H 0.74757 0.21752 0.24679 0.0
H941 H 0.74431 0.19282 0.29225 0.0
H942 H 0.76624 0.19388 0.23736 0.0
H943 H 0.79614 0.18541 0.31757 0.0
H944 H 0.77428 0.18407 0.37263 0.0
H945 H 0.79768 0.20301 0.38233 0.0
H946 H 0.76526 0.28549 0.38594 0.0
H947 H 0.73487 0.27634 0.45646 0.0
H948 H 0.73784 0.20633 0.40231 0.0
C949 C 0.80455 0.22701 0.24278 0.0
C950 C 0.8177 0.24518 0.22188 0.0
C951 C 0.81507 0.26669 0.24804 0.0
C952 C 0.79916 0.27022 0.29297 0.0
C953 C 0.78618 0.25204 0.31172 0.0
C954 C 0.78893 0.23078 0.28811 0.0
C955 C 0.77297 0.21406 0.31648 0.0
C956 C 0.75682 0.20399 0.27046 0.0
C957 C 0.78605 0.19555 0.34921 0.0
C958 C 0.76063 0.2293 0.3593 0.0
C959 C 0.76839 0.25117 0.35553 0.0
C960 C 0.75917 0.26838 0.38962 0.0
C961 C 0.74182 0.26304 0.42931 0.0
C962 C 0.73399 0.24061 0.43502 0.0
C963 C 0.74352 0.22361 0.3992 0.0
H964 H 0.31387 0.28949 0.39069 0.0
H965 H 0.31535 0.21957 0.44605 0.0
H966 H 0.28435 0.21101 0.37704 0.0
H967 H 0.25405 0.29428 0.37296 0.0
H968 H 0.25583 0.31173 0.30796 0.0
H969 H 0.27795 0.31252 0.36229 0.0
H970 H 0.30737 0.30284 0.28162 0.0
H971 H 0.28538 0.30224 0.22696 0.0
H972 H 0.30341 0.27813 0.23657 0.0
H973 H 0.25249 0.21026 0.30384 0.0
H974 H 0.22474 0.21653 0.22437 0.0
H975 H 0.24499 0.28662 0.2142 0.0
C976 C 0.3077 0.27237 0.38823 0.0
C977 C 0.31699 0.25521 0.42388 0.0
C978 C 0.30856 0.23298 0.41901 0.0
C979 C 0.29086 0.22797 0.3802 0.0
C980 C 0.28191 0.24533 0.34619 0.0
C981 C 0.29022 0.26702 0.34923 0.0
C982 C 0.27813 0.28242 0.30639 0.0
C983 C 0.26576 0.30135 0.33939 0.0
C984 C 0.29455 0.29196 0.26014 0.0
C985 C 0.26171 0.266 0.27882 0.0
C986 C 0.26399 0.24476 0.30286 0.0
C987 C 0.2506 0.22681 0.28455 0.0
C988 C 0.23481 0.23057 0.23957 0.0
C989 C 0.2327 0.25205 0.21297 0.0
C990 C 0.24619 0.27 0.23357 0.0
H991 H 0.32612 0.75541 0.77902 0.0
H992 H 0.34862 0.68648 0.80231 0.0
H993 H 0.32271 0.68222 0.88688 0.0
H994 H 0.31909 0.76869 0.93484 0.0
H995 H 0.29421 0.78538 0.9227 0.0
H996 H 0.3153 0.78331 0.86574 0.0
H997 H 0.28498 0.76938 0.79209 0.0
H998 H 0.26384 0.77119 0.84897 0.0
H999 H 0.26829 0.74503 0.81041 0.0
H1000 H 0.29406 0.68515 0.96752 0.0
H1001 H 0.26498 0.69525 0.04058 0.0
H1002 H 0.26005 0.76196 0.96344 0.0
C1003 C 0.32584 0.73951 0.8024 0.0
C1004 C 0.33952 0.72129 0.78424 0.0
C1005 C 0.33836 0.70068 0.81549 0.0
C1006 C 0.32367 0.69808 0.86353 0.0
C1007 C 0.31015 0.71622 0.8796 0.0
C1008 C 0.31111 0.73656 0.85015 0.0
C1009 C 0.29435 0.7532 0.87556 0.0
C1010 C 0.30646 0.77386 0.90124 0.0
C1011 C 0.27683 0.7601 0.82897 0.0
C1012 C 0.28381 0.73902 0.9239 0.0
C1013 C 0.29324 0.71777 0.92548 0.0
C1014 C 0.28654 0.70173 0.96672 0.0
C1015 C 0.26999 0.70763 0.008 0.0
C1016 C 0.26017 0.72936 0.00762 0.0
C1017 C 0.26707 0.74515 0.96451 0.0
H1018 H 0.56988 0.96564 0.19035 0.0
H1019 H 0.49836 0.95631 0.22033 0.0
H1020 H 0.49015 0.98674 0.14906 0.0
H1021 H 0.56921 0.02568 0.17481 0.0
H1022 H 0.58992 0.02616 0.11658 0.0
H1023 H 0.59024 0.00388 0.17056 0.0
H1024 H 0.5879 0.97412 0.08707 0.0
H1025 H 0.58785 0.99629 0.03284 0.0
H1026 H 0.56548 0.97581 0.03363 0.0
H1027 H 0.48986 0.01913 0.07648 0.0
H1028 H 0.4973 0.04774 -0.00041 0.0
H1029 H 0.56892 0.0347 0.01431 0.0
C1030 C 0.55248 0.96995 0.18182 0.0
C1031 C 0.53476 0.95863 0.21102 0.0
C1032 C 0.51221 0.96467 0.19827 0.0
C1033 C 0.50738 0.98204 0.15817 0.0
C1034 C 0.52527 0.99307 0.13075 0.0
C1035 C 0.54736 0.98703 0.14138 0.0
C1036 C 0.56347 0.00093 0.10449 0.0
C1037 C 0.57913 0.01499 0.14398 0.0
C1038 C 0.57696 0.98589 0.06198 0.0
C1039 C 0.54701 0.01574 0.07142 0.0
C1040 C 0.52507 0.01117 0.08774 0.0
C1041 C 0.50697 0.0228 0.06323 0.0
C1042 C 0.51138 0.03912 0.01984 0.0
C1043 C 0.53369 0.04346 0.00088 0.0
C1044 C 0.55168 0.03178 0.02781 0.0
H1045 H 0.99006 0.02911 0.6185 0.0
H1046 H 0.03562 0.08437 0.5805 0.0
H1047 H 0.04744 0.06526 0.48845 0.0
H1048 H 0.02622 0.98583 0.57191 0.0
H1049 H 0.00434 0.96852 0.54072 0.0
H1050 H 0.99796 0.98739 0.60066 0.0
H1051 H 0.96678 0.00625 0.53789 0.0
H1052 H 0.97289 0.98728 0.4779 0.0
H1053 H 0.97361 0.01724 0.4658 0.0
H1054 H 0.05581 0.03898 0.40349 0.0
H1055 H 0.0594 0.00822 0.33088 0.0
H1056 H 0.00884 0.96984 0.42601 0.0
C1057 C 0.00223 0.03745 0.59038 0.0
C1058 C 0.01182 0.05834 0.60662 0.0
C1059 C 0.02794 0.06845 0.56886 0.0
C1060 C 0.03479 0.05769 0.51655 0.0
C1061 C 0.02536 0.03686 0.50266 0.0
C1062 C 0.00933 0.02691 0.53835 0.0
C1063 C 0.00252 0.00401 0.51495 0.0
C1064 C 0.0081 0.98534 0.55973 0.0
C1065 C 0.97747 0.00369 0.49813 0.0
C1066 C 0.0174 0.00248 0.46076 0.0
C1067 C 0.03037 0.02164 0.45429 0.0
C1068 C 0.04564 0.02397 0.40798 0.0
C1069 C 0.0476 0.00635 0.36702 0.0
C1070 C 0.03442 0.98657 0.37267 0.0
C1071 C 0.01917 0.9847 0.42039 0.0
loop_
_geom_bond_atom_site_label_1
_geom_bond_atom_site_label_2
_geom_bond_distance
_geom_bond_site_symmetry_2
_ccdc_geom_bond_type
C0 O1 1.160 . S
C0 O7 1.185 . S
O1 C0 1.160 . S
O2 Zn3 1.899 . S
O2 C10 1.284 . S
Zn3 O2 1.899 . S
Zn3 O4 2.032 . S
Zn3 O7 2.086 . S
Zn3 O12 1.977 . S
O4 Zn3 2.032 . S
O4 C8 1.278 . S
C5 O6 1.204 1_655 S
C5 O12 1.267 1_655 S
O6 C5 1.204 1_455 S
O7 C0 1.185 . S
O7 Zn3 2.086 . S
C8 O4 1.278 . S
C8 O9 1.211 . S
O9 C8 1.211 . S
C10 O2 1.284 . S
C10 O11 1.273 . S
O11 C10 1.273 . S
O12 Zn3 1.977 . S
O12 C5 1.267 1_455 S
C13 O14 1.160 . S
C13 O20 1.185 . S
O14 C13 1.160 . S
O15 Zn16 1.899 . S
O15 C23 1.284 . S
Zn16 O15 1.899 . S
Zn16 O17 2.032 . S
Zn16 O20 2.086 . S
Zn16 O25 1.977 . S
O17 Zn16 2.032 . S
O17 C21 1.278 . S
C18 O19 1.203 . S
C18 O25 1.267 . S
O19 C18 1.203 . S
O20 C13 1.185 . S
O20 Zn16 2.086 . S
C21 O17 1.278 . S
C21 O22 1.211 . S
O22 C21 1.211 . S
C23 O15 1.284 . S
C23 O24 1.273 . S
O24 C23 1.273 . S
O25 Zn16 1.977 . S
O25 C18 1.267 . S
C26 O27 1.160 . S
C26 O33 1.185 . S
O27 C26 1.160 . S
O28 Zn29 1.899 . S
O28 C36 1.284 . S
Zn29 O28 1.899 . S
Zn29 O30 2.032 . S
Zn29 O33 2.086 . S
Zn29 O38 1.977 . S
O30 Zn29 2.032 . S
O30 C34 1.278 . S
C31 O32 1.203 . S
C31 O38 1.267 . S
O32 C31 1.203 . S
O33 C26 1.185 . S
O33 Zn29 2.086 . S
C34 O30 1.278 . S
C34 O35 1.211 . S
O35 C34 1.211 . S
C36 O28 1.284 . S
C36 O37 1.273 . S
O37 C36 1.273 . S
O38 Zn29 1.977 . S
O38 C31 1.267 . S
C39 O40 1.160 . S
C39 O46 1.185 . S
O40 C39 1.160 . S
O41 Zn42 1.899 . S
O41 C49 1.284 1_554 S
Zn42 O41 1.899 . S
Zn42 O43 2.032 1_554 S
Zn42 O46 2.086 . S
Zn42 O51 1.977 . S
O43 Zn42 2.032 1_556 S
O43 C47 1.278 . S
C44 O45 1.203 . S
C44 O51 1.267 1_556 S
O45 C44 1.203 . S
O46 C39 1.185 . S
O46 Zn42 2.086 . S
C47 O43 1.278 . S
C47 O48 1.211 . S
O48 C47 1.211 . S
C49 O41 1.284 1_556 S
C49 O50 1.273 . S
O50 C49 1.273 . S
O51 Zn42 1.977 . S
O51 C44 1.267 1_554 S
C52 O53 1.160 . S
C52 O59 1.185 . S
O53 C52 1.160 . S
O54 Zn55 1.899 . S
O54 C62 1.284 . S
Zn55 O54 1.899 . S
Zn55 O56 2.032 . S
Zn55 O59 2.086 . S
Zn55 O64 1.977 . S
O56 Zn55 2.032 . S
O56 C60 1.278 . S
C57 O58 1.205 1_655 S
C57 O64 1.267 1_655 S
O58 C57 1.205 1_455 S
O59 C52 1.185 . S
O59 Zn55 2.086 . S
C60 O56 1.278 . S
C60 O61 1.211 . S
O61 C60 1.211 . S
C62 O54 1.284 . S
C62 O63 1.273 . S
O63 C62 1.273 . S
O64 Zn55 1.977 . S
O64 C57 1.267 1_455 S
C65 O66 1.160 1_556 S
C65 O72 1.185 1_556 S
O66 C65 1.160 1_554 S
O67 Zn68 1.899 . S
O67 C75 1.284 . S
Zn68 O67 1.899 . S
Zn68 O69 2.032 . S
Zn68 O72 2.086 . S
Zn68 O77 1.977 . S
O69 Zn68 2.032 . S
O69 C73 1.278 . S
C70 O71 1.203 . S
C70 O77 1.267 . S
O71 C70 1.203 . S
O72 C65 1.185 1_554 S
O72 Zn68 2.086 . S
C73 O69 1.278 . S
C73 O74 1.211 . S
O74 C73 1.211 . S
C75 O67 1.284 . S
C75 O76 1.273 . S
O76 C75 1.273 . S
O77 Zn68 1.977 . S
O77 C70 1.267 . S
C78 O79 1.160 . S
C78 O85 1.185 . S
O79 C78 1.160 . S
O80 Zn81 1.899 . S
O80 C88 1.284 . S
Zn81 O80 1.899 . S
Zn81 O82 2.032 . S
Zn81 O85 2.086 . S
Zn81 O90 1.977 . S
O82 Zn81 2.032 . S
O82 C86 1.278 . S
C83 O84 1.203 . S
C83 O90 1.267 . S
O84 C83 1.203 . S
O85 C78 1.185 . S
O85 Zn81 2.086 . S
C86 O82 1.278 . S
C86 O87 1.211 . S
O87 C86 1.211 . S
C88 O80 1.284 . S
C88 O89 1.273 . S
O89 C88 1.273 . S
O90 Zn81 1.977 . S
O90 C83 1.267 . S
C91 O92 1.160 . S
C91 O98 1.185 . S
O92 C91 1.160 . S
O93 Zn94 1.899 . S
O93 C101 1.284 . S
Zn94 O93 1.899 . S
Zn94 O95 2.032 . S
Zn94 O98 2.086 . S
Zn94 O103 1.977 . S
O95 Zn94 2.032 . S
O95 C99 1.278 . S
C96 O97 1.203 . S
C96 O103 1.267 . S
O97 C96 1.203 . S
O98 C91 1.185 . S
O98 Zn94 2.086 . S
C99 O95 1.278 . S
C99 O100 1.211 . S
O100 C99 1.211 . S
C101 O93 1.284 . S
C101 O102 1.273 . S
O102 C101 1.273 . S
O103 Zn94 1.977 . S
O103 C96 1.267 . S
C104 O105 1.160 . S
C104 O111 1.185 . S
O105 C104 1.160 . S
O106 Zn107 1.899 . S
O106 C114 1.284 . S
Zn107 O106 1.899 . S
Zn107 O108 2.032 . S
Zn107 O111 2.086 . S
Zn107 O116 1.977 . S
O108 Zn107 2.032 . S
O108 C112 1.278 . S
C109 O110 1.203 . S
C109 O116 1.267 . S
O110 C109 1.203 . S
O111 C104 1.185 . S
O111 Zn107 2.086 . S
C112 O108 1.278 . S
C112 O113 1.211 . S
O113 C112 1.211 . S
C114 O106 1.284 . S
C114 O115 1.273 . S
O115 C114 1.273 . S
O116 Zn107 1.977 . S
O116 C109 1.267 . S
C117 O118 1.160 1_556 S
C117 O124 1.185 1_556 S
O118 C117 1.160 1_554 S
O119 Zn120 1.899 . S
O119 C127 1.284 . S
Zn120 O119 1.899 . S
Zn120 O121 2.032 . S
Zn120 O124 2.086 . S
Zn120 O129 1.977 . S
O121 Zn120 2.032 . S
O121 C125 1.278 . S
C122 O123 1.203 . S
C122 O129 1.267 . S
O123 C122 1.203 . S
O124 C117 1.185 1_554 S
O124 Zn120 2.086 . S
C125 O121 1.278 . S
C125 O126 1.211 . S
O126 C125 1.211 . S
C127 O119 1.284 . S
C127 O128 1.273 . S
O128 C127 1.273 . S
O129 Zn120 1.977 . S
O129 C122 1.267 . S
C130 O131 1.160 . S
C130 O137 1.185 . S
O131 C130 1.160 . S
O132 Zn133 1.899 . S
O132 C140 1.284 1_554 S
Zn133 O132 1.899 . S
Zn133 O134 2.032 1_554 S
Zn133 O137 2.086 . S
Zn133 O142 1.977 . S
O134 Zn133 2.032 1_556 S
O134 C138 1.278 . S
C135 O136 1.203 . S
C135 O142 1.267 1_556 S
O136 C135 1.203 . S
O137 C130 1.185 . S
O137 Zn133 2.086 . S
C138 O134 1.278 . S
C138 O139 1.211 . S
O139 C138 1.211 . S
C140 O132 1.284 1_556 S
C140 O141 1.273 . S
O141 C140 1.273 . S
O142 Zn133 1.977 . S
O142 C135 1.267 1_554 S
C143 O144 1.160 . S
C143 O150 1.185 . S
O144 C143 1.160 . S
O145 Zn146 1.899 . S
O145 C153 1.284 . S
Zn146 O145 1.899 . S
Zn146 O147 2.032 . S
Zn146 O150 2.086 . S
Zn146 O155 1.977 . S
O147 Zn146 2.032 . S
O147 C151 1.278 . S
C148 O149 1.203 . S
C148 O155 1.267 . S
O149 C148 1.203 . S
O150 C143 1.185 . S
O150 Zn146 2.086 . S
C151 O147 1.278 . S
C151 O152 1.211 . S
O152 C151 1.211 . S
C153 O145 1.284 . S
C153 O154 1.273 . S
O154 C153 1.273 . S
O155 Zn146 1.977 . S
O155 C148 1.267 . S
C156 O157 1.160 . S
C156 O163 1.185 . S
O157 C156 1.160 . S
O158 Zn159 1.899 . S
O158 C166 1.284 . S
Zn159 O158 1.899 . S
Zn159 O160 2.032 . S
Zn159 O163 2.086 . S
Zn159 O168 1.977 . S
O160 Zn159 2.032 . S
O160 C164 1.278 . S
C161 O162 1.203 . S
C161 O168 1.267 . S
O162 C161 1.203 . S
O163 C156 1.185 . S
O163 Zn159 2.086 . S
C164 O160 1.278 . S
C164 O165 1.211 . S
O165 C164 1.211 . S
C166 O158 1.284 . S
C166 O167 1.273 . S
O167 C166 1.273 . S
O168 Zn159 1.977 . S
O168 C161 1.267 . S
C169 O170 1.160 . S
C169 O176 1.185 . S
O170 C169 1.160 . S
O171 Zn172 1.899 . S
O171 C179 1.284 1_455 S
Zn172 O171 1.899 . S
Zn172 O173 2.032 . S
Zn172 O176 2.086 . S
Zn172 O181 1.977 . S
O173 Zn172 2.032 . S
O173 C177 1.278 . S
C174 O175 1.203 . S
C174 O181 1.267 . S
O175 C174 1.203 . S
O176 C169 1.185 . S
O176 Zn172 2.086 . S
C177 O173 1.278 . S
C177 O178 1.211 . S
O178 C177 1.211 . S
C179 O171 1.284 1_655 S
C179 O180 1.273 . S
O180 C179 1.273 . S
O181 Zn172 1.977 . S
O181 C174 1.267 . S
C182 O183 1.160 . S
C182 O189 1.185 . S
O183 C182 1.160 . S
O184 Zn185 1.899 . S
O184 C192 1.284 . S
Zn185 O184 1.899 . S
Zn185 O186 2.032 . S
Zn185 O189 2.086 . S
Zn185 O194 1.977 . S
O186 Zn185 2.032 . S
O186 C190 1.278 . S
C187 O188 1.203 . S
C187 O194 1.267 . S
O188 C187 1.203 . S
O189 C182 1.185 . S
O189 Zn185 2.086 . S
C190 O186 1.278 . S
C190 O191 1.211 . S
O191 C190 1.211 . S
C192 O184 1.284 . S
C192 O193 1.273 . S
O193 C192 1.273 . S
O194 Zn185 1.977 . S
O194 C187 1.267 . S
C195 O196 1.160 . S
C195 O202 1.185 . S
O196 C195 1.160 . S
O197 Zn198 1.899 . S
O197 C205 1.284 1_455 S
Zn198 O197 1.899 . S
Zn198 O199 2.032 . S
Zn198 O202 2.086 . S
Zn198 O207 1.977 . S
O199 Zn198 2.032 . S
O199 C203 1.278 . S
C200 O201 1.203 . S
C200 O207 1.267 . S
O201 C200 1.203 . S
O202 C195 1.185 . S
O202 Zn198 2.086 . S
C203 O199 1.278 . S
C203 O204 1.211 . S
O204 C203 1.211 . S
C205 O197 1.284 1_655 S
C205 O206 1.273 . S
O206 C205 1.273 . S
O207 Zn198 1.977 . S
O207 C200 1.267 . S
H208 C220 0.930 . S
H209 C222 0.930 . S
H210 C223 0.930 . S
H211 C227 0.959 . S
H212 C227 0.959 . S
H213 C227 0.961 . S
H214 C228 0.960 . S
H215 C228 0.961 . S
H216 C228 0.959 . S
H217 C231 0.929 . S
H218 C232 0.931 . S
H219 C234 0.930 . S
C220 H208 0.930 . S
C220 C221 1.399 . S
C220 C225 1.399 . S
C221 C220 1.399 . S
C221 C222 1.376 . S
C222 H209 0.930 . S
C222 C221 1.376 . S
C222 C223 1.388 . S
C223 H210 0.930 . S
C223 C222 1.388 . S
C223 C224 1.390 . S
C224 C223 1.390 . S
C224 C225 1.394 . S
C224 C230 1.465 . S
C225 C220 1.399 . S
C225 C224 1.394 . S
C225 C226 1.516 . S
C226 C225 1.516 . S
C226 C227 1.502 . S
C226 C228 1.561 . S
C226 C229 1.526 . S
C227 H211 0.959 . S
C227 H212 0.959 . S
C227 H213 0.961 . S
C227 C226 1.502 . S
C228 H214 0.960 . S
C228 H215 0.961 . S
C228 H216 0.959 . S
C228 C226 1.561 . S
C229 C226 1.526 . S
C229 C230 1.396 . S
C229 C234 1.390 . S
C230 C224 1.465 . S
C230 C229 1.396 . S
C230 C231 1.399 . S
C231 H217 0.929 . S
C231 C230 1.399 . S
C231 C232 1.385 . S
C232 H218 0.931 . S
C232 C231 1.385 . S
C232 C233 1.389 . S
C233 C232 1.389 . S
C233 C234 1.387 . S
C234 H219 0.930 . S
C234 C229 1.390 . S
C234 C233 1.387 . S
H235 C247 0.930 . S
H236 C249 0.930 . S
H237 C250 0.930 . S
H238 C254 0.959 . S
H239 C254 0.959 . S
H240 C254 0.961 . S
H241 C255 0.960 . S
H242 C255 0.961 . S
H243 C255 0.959 . S
H244 C258 0.929 . S
H245 C259 0.931 . S
H246 C261 0.930 . S
C247 H235 0.930 . S
C247 C248 1.399 . S
C247 C252 1.399 . S
C248 C247 1.399 . S
C248 C249 1.376 . S
C249 H236 0.930 . S
C249 C248 1.376 . S
C249 C250 1.388 . S
C250 H237 0.930 . S
C250 C249 1.388 . S
C250 C251 1.390 . S
C251 C250 1.390 . S
C251 C252 1.394 . S
C251 C257 1.465 . S
C252 C247 1.399 . S
C252 C251 1.394 . S
C252 C253 1.516 . S
C253 C252 1.516 . S
C253 C254 1.502 . S
C253 C255 1.561 . S
C253 C256 1.526 . S
C254 H238 0.959 . S
C254 H239 0.959 . S
C254 H240 0.961 . S
C254 C253 1.502 . S
C255 H241 0.960 . S
C255 H242 0.961 . S
C255 H243 0.959 . S
C255 C253 1.561 . S
C256 C253 1.526 . S
C256 C257 1.396 . S
C256 C261 1.390 . S
C257 C251 1.465 . S
C257 C256 1.396 . S
C257 C258 1.399 . S
C258 H244 0.929 . S
C258 C257 1.399 . S
C258 C259 1.385 . S
C259 H245 0.931 . S
C259 C258 1.385 . S
C259 C260 1.389 . S
C260 C259 1.389 . S
C260 C261 1.387 . S
C261 H246 0.930 . S
C261 C256 1.390 . S
C261 C260 1.387 . S
H262 C274 0.930 . S
H263 C276 0.930 . S
H264 C277 0.930 . S
H265 C281 0.959 . S
H266 C281 0.959 . S
H267 C281 0.961 . S
H268 C282 0.960 . S
H269 C282 0.961 . S
H270 C282 0.959 . S
H271 C285 0.929 . S
H272 C286 0.931 . S
H273 C288 0.930 . S
C274 H262 0.930 . S
C274 C275 1.399 . S
C274 C279 1.399 . S
C275 C274 1.399 . S
C275 C276 1.376 . S
C276 H263 0.930 . S
C276 C275 1.376 . S
C276 C277 1.388 . S
C277 H264 0.930 . S
C277 C276 1.388 . S
C277 C278 1.390 . S
C278 C277 1.390 . S
C278 C279 1.394 . S
C278 C284 1.465 . S
C279 C274 1.399 . S
C279 C278 1.394 . S
C279 C280 1.516 . S
C280 C279 1.516 . S
C280 C281 1.502 . S
C280 C282 1.561 . S
C280 C283 1.526 . S
C281 H265 0.959 . S
C281 H266 0.959 . S
C281 H267 0.961 . S
C281 C280 1.502 . S
C282 H268 0.960 . S
C282 H269 0.961 . S
C282 H270 0.959 . S
C282 C280 1.561 . S
C283 C280 1.526 . S
C283 C284 1.396 . S
C283 C288 1.390 . S
C284 C278 1.465 . S
C284 C283 1.396 . S
C284 C285 1.399 . S
C285 H271 0.929 . S
C285 C284 1.399 . S
C285 C286 1.385 . S
C286 H272 0.931 . S
C286 C285 1.385 . S
C286 C287 1.389 . S
C287 C286 1.389 . S
C287 C288 1.387 . S
C288 H273 0.930 . S
C288 C283 1.390 . S
C288 C287 1.387 . S
H289 C301 0.930 . S
H290 C303 0.930 . S
H291 C304 0.930 . S
H292 C308 0.959 . S
H293 C308 0.959 . S
H294 C308 0.961 . S
H295 C309 0.960 . S
H296 C309 0.961 . S
H297 C309 0.959 . S
H298 C312 0.929 1_554 S
H299 C313 0.931 . S
H300 C315 0.930 . S
C301 H289 0.930 . S
C301 C302 1.399 . S
C301 C306 1.399 . S
C302 C301 1.399 . S
C302 C303 1.376 1_556 S
C303 H290 0.930 . S
C303 C302 1.376 1_554 S
C303 C304 1.388 . S
C304 H291 0.930 . S
C304 C303 1.388 . S
C304 C305 1.390 1_554 S
C305 C304 1.390 1_556 S
C305 C306 1.394 . S
C305 C311 1.465 . S
C306 C301 1.399 . S
C306 C305 1.394 . S
C306 C307 1.516 . S
C307 C306 1.516 . S
C307 C308 1.502 . S
C307 C309 1.561 . S
C307 C310 1.526 . S
C308 H292 0.959 . S
C308 H293 0.959 . S
C308 H294 0.961 . S
C308 C307 1.502 . S
C309 H295 0.960 . S
C309 H296 0.961 . S
C309 H297 0.959 . S
C309 C307 1.561 . S
C310 C307 1.526 . S
C310 C311 1.396 . S
C310 C315 1.390 . S
C311 C305 1.465 . S
C311 C310 1.396 . S
C311 C312 1.399 . S
C312 H298 0.929 1_556 S
C312 C311 1.399 . S
C312 C313 1.385 . S
C313 H299 0.931 . S
C313 C312 1.385 . S
C313 C314 1.389 . S
C314 C313 1.389 . S
C314 C315 1.387 . S
C315 H300 0.930 . S
C315 C310 1.390 . S
C315 C314 1.387 . S
H316 C328 0.930 . S
H317 C330 0.930 . S
H318 C331 0.930 . S
H319 C335 0.959 . S
H320 C335 0.959 . S
H321 C335 0.961 . S
H322 C336 0.960 . S
H323 C336 0.961 . S
H324 C336 0.959 . S
H325 C339 0.929 . S
H326 C340 0.931 . S
H327 C342 0.930 . S
C328 H316 0.930 . S
C328 C329 1.399 . S
C328 C333 1.399 . S
C329 C328 1.399 . S
C329 C330 1.376 . S
C330 H317 0.930 . S
C330 C329 1.376 . S
C330 C331 1.388 . S
C331 H318 0.930 . S
C331 C330 1.388 . S
C331 C332 1.390 . S
C332 C331 1.390 . S
C332 C333 1.394 . S
C332 C338 1.465 . S
C333 C328 1.399 . S
C333 C332 1.394 . S
C333 C334 1.516 1_556 S
C334 C333 1.516 1_554 S
C334 C335 1.502 . S
C334 C336 1.561 . S
C334 C337 1.526 1_554 S
C335 H319 0.959 . S
C335 H320 0.959 . S
C335 H321 0.961 . S
C335 C334 1.502 . S
C336 H322 0.960 . S
C336 H323 0.961 . S
C336 H324 0.959 . S
C336 C334 1.561 . S
C337 C334 1.526 1_556 S
C337 C338 1.396 . S
C337 C342 1.390 1_556 S
C338 C332 1.465 . S
C338 C337 1.396 . S
C338 C339 1.399 . S
C339 H325 0.929 . S
C339 C338 1.399 . S
C339 C340 1.385 . S
C340 H326 0.931 . S
C340 C339 1.385 . S
C340 C341 1.389 . S
C341 C340 1.389 . S
C341 C342 1.387 1_556 S
C342 H327 0.930 . S
C342 C337 1.390 1_554 S
C342 C341 1.387 1_554 S
H343 C355 0.930 . S
H344 C357 0.930 . S
H345 C358 0.930 . S
H346 C362 0.959 . S
H347 C362 0.959 . S
H348 C362 0.961 . S
H349 C363 0.960 . S
H350 C363 0.961 . S
H351 C363 0.959 . S
H352 C366 0.929 . S
H353 C367 0.931 . S
H354 C369 0.930 . S
C355 H343 0.930 . S
C355 C356 1.399 . S
C355 C360 1.399 . S
C356 C355 1.399 . S
C356 C357 1.376 . S
C357 H344 0.930 . S
C357 C356 1.376 . S
C357 C358 1.388 . S
C358 H345 0.930 . S
C358 C357 1.388 . S
C358 C359 1.390 . S
C359 C358 1.390 . S
C359 C360 1.394 . S
C359 C365 1.465 . S
C360 C355 1.399 . S
C360 C359 1.394 . S
C360 C361 1.516 . S
C361 C360 1.516 . S
C361 C362 1.502 . S
C361 C363 1.561 . S
C361 C364 1.526 . S
C362 H346 0.959 . S
C362 H347 0.959 . S
C362 H348 0.961 . S
C362 C361 1.502 . S
C363 H349 0.960 . S
C363 H350 0.961 . S
C363 H351 0.959 . S
C363 C361 1.561 . S
C364 C361 1.526 . S
C364 C365 1.396 . S
C364 C369 1.390 . S
C365 C359 1.465 . S
C365 C364 1.396 . S
C365 C366 1.399 . S
C366 H352 0.929 . S
C366 C365 1.399 . S
C366 C367 1.385 . S
C367 H353 0.931 . S
C367 C366 1.385 . S
C367 C368 1.389 . S
C368 C367 1.389 . S
C368 C369 1.387 . S
C369 H354 0.930 . S
C369 C364 1.390 . S
C369 C368 1.387 . S
H370 C382 0.930 . S
H371 C384 0.930 . S
H372 C385 0.930 . S
H373 C389 0.959 . S
H374 C389 0.959 . S
H375 C389 0.961 . S
H376 C390 0.960 . S
H377 C390 0.961 . S
H378 C390 0.959 . S
H379 C393 0.929 . S
H380 C394 0.931 . S
H381 C396 0.930 . S
C382 H370 0.930 . S
C382 C383 1.399 . S
C382 C387 1.399 . S
C383 C382 1.399 . S
C383 C384 1.376 . S
C384 H371 0.930 . S
C384 C383 1.376 . S
C384 C385 1.388 . S
C385 H372 0.930 . S
C385 C384 1.388 . S
C385 C386 1.390 . S
C386 C385 1.390 . S
C386 C387 1.394 . S
C386 C392 1.465 . S
C387 C382 1.399 . S
C387 C386 1.394 . S
C387 C388 1.516 . S
C388 C387 1.516 . S
C388 C389 1.502 . S
C388 C390 1.561 . S
C388 C391 1.526 . S
C389 H373 0.959 . S
C389 H374 0.959 . S
C389 H375 0.961 . S
C389 C388 1.502 . S
C390 H376 0.960 . S
C390 H377 0.961 . S
C390 H378 0.959 . S
C390 C388 1.561 . S
C391 C388 1.526 . S
C391 C392 1.396 . S
C391 C396 1.390 . S
C392 C386 1.465 . S
C392 C391 1.396 . S
C392 C393 1.399 . S
C393 H379 0.929 . S
C393 C392 1.399 . S
C393 C394 1.385 . S
C394 H380 0.931 . S
C394 C393 1.385 . S
C394 C395 1.389 . S
C395 C394 1.389 . S
C395 C396 1.387 . S
C396 H381 0.930 . S
C396 C391 1.390 . S
C396 C395 1.387 . S
H397 C409 0.930 . S
H398 C411 0.930 . S
H399 C412 0.930 . S
H400 C416 0.959 . S
H401 C416 0.959 . S
H402 C416 0.961 . S
H403 C417 0.960 . S
H404 C417 0.961 . S
H405 C417 0.959 . S
H406 C420 0.929 . S
H407 C421 0.931 . S
H408 C423 0.930 . S
C409 H397 0.930 . S
C409 C410 1.399 . S
C409 C414 1.399 . S
C410 C409 1.399 . S
C410 C411 1.376 . S
C411 H398 0.930 . S
C411 C410 1.376 . S
C411 C412 1.388 . S
C412 H399 0.930 . S
C412 C411 1.388 . S
C412 C413 1.390 . S
C413 C412 1.390 . S
C413 C414 1.394 . S
C413 C419 1.465 . S
C414 C409 1.399 . S
C414 C413 1.394 . S
C414 C415 1.516 . S
C415 C414 1.516 . S
C415 C416 1.502 . S
C415 C417 1.561 . S
C415 C418 1.526 . S
C416 H400 0.959 . S
C416 H401 0.959 . S
C416 H402 0.961 . S
C416 C415 1.502 . S
C417 H403 0.960 . S
C417 H404 0.961 . S
C417 H405 0.959 . S
C417 C415 1.561 . S
C418 C415 1.526 . S
C418 C419 1.396 . S
C418 C423 1.390 . S
C419 C413 1.465 . S
C419 C418 1.396 . S
C419 C420 1.399 . S
C420 H406 0.929 . S
C420 C419 1.399 . S
C420 C421 1.385 . S
C421 H407 0.931 . S
C421 C420 1.385 . S
C421 C422 1.389 . S
C422 C421 1.389 . S
C422 C423 1.387 . S
C423 H408 0.930 . S
C423 C418 1.390 . S
C423 C422 1.387 . S
H424 C436 0.930 . S
H425 C438 0.908 1_455 S
H426 C439 0.930 1_554 S
H427 C443 0.959 . S
H428 C443 0.959 . S
H429 C443 0.961 . S
H430 C444 0.960 . S
H431 C444 0.961 . S
H432 C444 0.959 . S
H433 C447 0.929 . S
H434 C448 0.931 . S
H435 C450 0.930 . S
C436 H424 0.930 . S
C436 C437 1.399 . S
C436 C441 1.399 . S
C437 C436 1.399 . S
C437 C438 1.376 . S
C438 H425 0.908 1_655 S
C438 C437 1.376 . S
C438 C439 1.388 . S
C439 H426 0.930 1_556 S
C439 C438 1.388 . S
C439 C440 1.390 . S
C440 C439 1.390 . S
C440 C441 1.394 . S
C440 C446 1.465 . S
C441 C436 1.399 . S
C441 C440 1.394 . S
C441 C442 1.516 . S
C442 C441 1.516 . S
C442 C443 1.502 . S
C442 C444 1.561 . S
C442 C445 1.526 . S
C443 H427 0.959 . S
C443 H428 0.959 . S
C443 H429 0.961 . S
C443 C442 1.502 . S
C444 H430 0.960 . S
C444 H431 0.961 . S
C444 H432 0.959 . S
C444 C442 1.561 . S
C445 C442 1.526 . S
C445 C446 1.396 . S
C445 C450 1.390 . S
C446 C440 1.465 . S
C446 C445 1.396 . S
C446 C447 1.399 1_556 S
C447 H433 0.929 . S
C447 C446 1.399 1_554 S
C447 C448 1.385 . S
C448 H434 0.931 . S
C448 C447 1.385 . S
C448 C449 1.389 1_554 S
C449 C448 1.389 1_556 S
C449 C450 1.387 . S
C450 H435 0.930 . S
C450 C445 1.390 . S
C450 C449 1.387 . S
H451 C463 0.930 . S
H452 C465 0.930 . S
H453 C466 0.930 . S
H454 C470 0.959 . S
H455 C470 0.959 . S
H456 C470 0.961 . S
H457 C471 0.960 . S
H458 C471 0.961 . S
H459 C471 0.959 . S
H460 C474 0.929 . S
H461 C475 0.931 . S
H462 C477 0.930 . S
C463 H451 0.930 . S
C463 C464 1.399 . S
C463 C468 1.399 . S
C464 C463 1.399 . S
C464 C465 1.376 . S
C465 H452 0.930 . S
C465 C464 1.376 . S
C465 C466 1.388 . S
C466 H453 0.930 . S
C466 C465 1.388 . S
C466 C467 1.390 . S
C467 C466 1.390 . S
C467 C468 1.394 . S
C467 C473 1.465 . S
C468 C463 1.399 . S
C468 C467 1.394 . S
C468 C469 1.516 . S
C469 C468 1.516 . S
C469 C470 1.502 . S
C469 C471 1.561 . S
C469 C472 1.526 . S
C470 H454 0.959 . S
C470 H455 0.959 . S
C470 H456 0.961 . S
C470 C469 1.502 . S
C471 H457 0.960 . S
C471 H458 0.961 . S
C471 H459 0.959 . S
C471 C469 1.561 . S
C472 C469 1.526 . S
C472 C473 1.396 . S
C472 C477 1.390 . S
C473 C467 1.465 . S
C473 C472 1.396 . S
C473 C474 1.399 . S
C474 H460 0.929 . S
C474 C473 1.399 . S
C474 C475 1.385 . S
C475 H461 0.931 . S
C475 C474 1.385 . S
C475 C476 1.389 . S
C476 C475 1.389 . S
C476 C477 1.387 . S
C477 H462 0.930 . S
C477 C472 1.390 . S
C477 C476 1.387 . S
H478 C490 0.930 . S
H479 C492 0.930 . S
H480 C493 0.930 . S
H481 C497 0.959 . S
H482 C497 0.959 . S
H483 C497 0.961 . S
H484 C498 0.960 . S
H485 C498 0.961 . S
H486 C498 0.959 . S
H487 C501 0.929 . S
H488 C502 0.931 . S
H489 C504 0.930 . S
C490 H478 0.930 . S
C490 C491 1.399 . S
C490 C495 1.399 . S
C491 C490 1.399 . S
C491 C492 1.376 . S
C492 H479 0.930 . S
C492 C491 1.376 . S
C492 C493 1.388 . S
C493 H480 0.930 . S
C493 C492 1.388 . S
C493 C494 1.390 . S
C494 C493 1.390 . S
C494 C495 1.394 . S
C494 C500 1.465 . S
C495 C490 1.399 . S
C495 C494 1.394 . S
C495 C496 1.516 . S
C496 C495 1.516 . S
C496 C497 1.502 . S
C496 C498 1.561 . S
C496 C499 1.526 . S
C497 H481 0.959 . S
C497 H482 0.959 . S
C497 H483 0.961 . S
C497 C496 1.502 . S
C498 H484 0.960 . S
C498 H485 0.961 . S
C498 H486 0.959 . S
C498 C496 1.561 . S
C499 C496 1.526 . S
C499 C500 1.396 . S
C499 C504 1.390 . S
C500 C494 1.465 . S
C500 C499 1.396 . S
C500 C501 1.399 . S
C501 H487 0.929 . S
C501 C500 1.399 . S
C501 C502 1.385 . S
C502 H488 0.931 . S
C502 C501 1.385 . S
C502 C503 1.389 . S
C503 C502 1.389 . S
C503 C504 1.387 . S
C504 H489 0.930 . S
C504 C499 1.390 . S
C504 C503 1.387 . S
H505 C517 0.930 . S
H506 C519 0.930 . S
H507 C520 0.930 . S
H508 C524 0.959 . S
H509 C524 0.959 . S
H510 C524 0.961 . S
H511 C525 0.960 . S
H512 C525 0.961 . S
H513 C525 0.959 . S
H514 C528 0.929 . S
H515 C529 0.931 . S
H516 C531 0.930 . S
C517 H505 0.930 . S
C517 C518 1.399 . S
C517 C522 1.399 . S
C518 C517 1.399 . S
C518 C519 1.376 . S
C519 H506 0.930 . S
C519 C518 1.376 . S
C519 C520 1.388 . S
C520 H507 0.930 . S
C520 C519 1.388 . S
C520 C521 1.390 . S
C521 C520 1.390 . S
C521 C522 1.394 . S
C521 C527 1.465 . S
C522 C517 1.399 . S
C522 C521 1.394 . S
C522 C523 1.516 . S
C523 C522 1.516 . S
C523 C524 1.502 . S
C523 C525 1.561 . S
C523 C526 1.526 . S
C524 H508 0.959 . S
C524 H509 0.959 . S
C524 H510 0.961 . S
C524 C523 1.502 . S
C525 H511 0.960 . S
C525 H512 0.961 . S
C525 H513 0.959 . S
C525 C523 1.561 . S
C526 C523 1.526 . S
C526 C527 1.396 . S
C526 C531 1.390 . S
C527 C521 1.465 . S
C527 C526 1.396 . S
C527 C528 1.399 . S
C528 H514 0.929 . S
C528 C527 1.399 . S
C528 C529 1.385 . S
C529 H515 0.931 . S
C529 C528 1.385 . S
C529 C530 1.389 . S
C530 C529 1.389 . S
C530 C531 1.387 . S
C531 H516 0.930 . S
C531 C526 1.390 . S
C531 C530 1.387 . S
H532 C544 0.930 . S
H533 C546 0.930 . S
H534 C547 0.930 . S
H535 C551 0.959 . S
H536 C551 0.959 . S
H537 C551 0.961 . S
H538 C552 0.960 . S
H539 C552 0.961 . S
H540 C552 0.959 . S
H541 C555 0.929 . S
H542 C556 0.931 . S
H543 C558 0.930 . S
C544 H532 0.930 . S
C544 C545 1.399 . S
C544 C549 1.399 . S
C545 C544 1.399 . S
C545 C546 1.376 . S
C546 H533 0.930 . S
C546 C545 1.376 . S
C546 C547 1.388 . S
C547 H534 0.930 . S
C547 C546 1.388 . S
C547 C548 1.390 . S
C548 C547 1.390 . S
C548 C549 1.394 . S
C548 C554 1.465 . S
C549 C544 1.399 . S
C549 C548 1.394 . S
C549 C550 1.516 . S
C550 C549 1.516 . S
C550 C551 1.502 . S
C550 C552 1.561 . S
C550 C553 1.526 . S
C551 H535 0.959 . S
C551 H536 0.959 . S
C551 H537 0.961 . S
C551 C550 1.502 . S
C552 H538 0.960 . S
C552 H539 0.961 . S
C552 H540 0.959 . S
C552 C550 1.561 . S
C553 C550 1.526 . S
C553 C554 1.396 . S
C553 C558 1.390 . S
C554 C548 1.465 . S
C554 C553 1.396 . S
C554 C555 1.399 . S
C555 H541 0.929 . S
C555 C554 1.399 . S
C555 C556 1.385 . S
C556 H542 0.931 . S
C556 C555 1.385 . S
C556 C557 1.389 . S
C557 C556 1.389 . S
C557 C558 1.387 . S
C558 H543 0.930 . S
C558 C553 1.390 . S
C558 C557 1.387 . S
H559 C571 0.930 . S
H560 C573 0.930 . S
H561 C574 0.930 1_554 S
H562 C578 0.959 . S
H563 C578 0.959 . S
H564 C578 0.961 . S
H565 C579 0.960 . S
H566 C579 0.961 . S
H567 C579 0.959 . S
H568 C582 0.929 . S
H569 C583 0.931 . S
H570 C585 0.930 . S
C571 H559 0.930 . S
C571 C572 1.399 . S
C571 C576 1.399 . S
C572 C571 1.399 . S
C572 C573 1.376 . S
C573 H560 0.930 . S
C573 C572 1.376 . S
C573 C574 1.388 . S
C574 H561 0.930 1_556 S
C574 C573 1.388 . S
C574 C575 1.390 . S
C575 C574 1.390 . S
C575 C576 1.394 . S
C575 C581 1.465 . S
C576 C571 1.399 . S
C576 C575 1.394 . S
C576 C577 1.516 . S
C577 C576 1.516 . S
C577 C578 1.502 . S
C577 C579 1.561 . S
C577 C580 1.526 . S
C578 H562 0.959 . S
C578 H563 0.959 . S
C578 H564 0.961 . S
C578 C577 1.502 . S
C579 H565 0.960 . S
C579 H566 0.961 . S
C579 H567 0.959 . S
C579 C577 1.561 . S
C580 C577 1.526 . S
C580 C581 1.396 . S
C580 C585 1.390 . S
C581 C575 1.465 . S
C581 C580 1.396 . S
C581 C582 1.399 1_556 S
C582 H568 0.929 . S
C582 C581 1.399 1_554 S
C582 C583 1.385 . S
C583 H569 0.931 . S
C583 C582 1.385 . S
C583 C584 1.389 1_554 S
C584 C583 1.389 1_556 S
C584 C585 1.387 . S
C585 H570 0.930 . S
C585 C580 1.390 . S
C585 C584 1.387 . S
H586 C598 0.930 . S
H587 C600 0.930 . S
H588 C601 0.930 . S
H589 C605 0.959 . S
H590 C605 0.959 . S
H591 C605 0.961 . S
H592 C606 0.960 . S
H593 C606 0.961 . S
H594 C606 0.959 . S
H595 C609 0.929 . S
H596 C610 0.931 . S
H597 C612 0.930 . S
C598 H586 0.930 . S
C598 C599 1.399 . S
C598 C603 1.399 . S
C599 C598 1.399 . S
C599 C600 1.376 . S
C600 H587 0.930 . S
C600 C599 1.376 . S
C600 C601 1.388 . S
C601 H588 0.930 . S
C601 C600 1.388 . S
C601 C602 1.390 . S
C602 C601 1.390 . S
C602 C603 1.394 . S
C602 C608 1.465 . S
C603 C598 1.399 . S
C603 C602 1.394 . S
C603 C604 1.516 . S
C604 C603 1.516 . S
C604 C605 1.502 . S
C604 C606 1.561 . S
C604 C607 1.526 . S
C605 H589 0.959 . S
C605 H590 0.959 . S
C605 H591 0.961 . S
C605 C604 1.502 . S
C606 H592 0.960 . S
C606 H593 0.961 . S
C606 H594 0.959 . S
C606 C604 1.561 . S
C607 C604 1.526 . S
C607 C608 1.396 . S
C607 C612 1.390 . S
C608 C602 1.465 . S
C608 C607 1.396 . S
C608 C609 1.399 . S
C609 H595 0.929 . S
C609 C608 1.399 . S
C609 C610 1.385 . S
C610 H596 0.931 . S
C610 C609 1.385 . S
C610 C611 1.389 . S
C611 C610 1.389 . S
C611 C612 1.387 . S
C612 H597 0.930 . S
C612 C607 1.390 . S
C612 C611 1.387 . S
H613 C625 0.930 . S
H614 C627 0.930 . S
H615 C628 0.930 . S
H616 C632 0.959 . S
H617 C632 0.959 . S
H618 C632 0.961 . S
H619 C633 0.960 . S
H620 C633 0.961 . S
H621 C633 0.959 . S
H622 C636 0.929 . S
H623 C637 0.931 . S
H624 C639 0.930 . S
C625 H613 0.930 . S
C625 C626 1.399 . S
C625 C630 1.399 . S
C626 C625 1.399 . S
C626 C627 1.376 . S
C627 H614 0.930 . S
C627 C626 1.376 . S
C627 C628 1.388 . S
C628 H615 0.930 . S
C628 C627 1.388 . S
C628 C629 1.390 . S
C629 C628 1.390 . S
C629 C630 1.394 . S
C629 C635 1.465 . S
C630 C625 1.399 . S
C630 C629 1.394 . S
C630 C631 1.516 . S
C631 C630 1.516 . S
C631 C632 1.502 . S
C631 C633 1.561 . S
C631 C634 1.526 . S
C632 H616 0.959 . S
C632 H617 0.959 . S
C632 H618 0.961 . S
C632 C631 1.502 . S
C633 H619 0.960 . S
C633 H620 0.961 . S
C633 H621 0.959 . S
C633 C631 1.561 . S
C634 C631 1.526 . S
C634 C635 1.396 . S
C634 C639 1.390 . S
C635 C629 1.465 . S
C635 C634 1.396 . S
C635 C636 1.399 . S
C636 H622 0.929 . S
C636 C635 1.399 . S
C636 C637 1.385 . S
C637 H623 0.931 . S
C637 C636 1.385 . S
C637 C638 1.389 . S
C638 C637 1.389 . S
C638 C639 1.387 . S
C639 H624 0.930 . S
C639 C634 1.390 . S
C639 C638 1.387 . S
H640 C652 0.930 . S
H641 C654 0.930 . S
H642 C655 0.930 . S
H643 C659 0.959 . S
H644 C659 0.959 . S
H645 C659 0.961 . S
H646 C660 0.957 1_654 S
H647 C660 0.967 1_655 S
H648 C660 0.962 . S
H649 C663 0.929 . S
H650 C664 0.931 . S
H651 C666 0.930 . S
C652 H640 0.930 . S
C652 C653 1.399 . S
C652 C657 1.399 . S
C653 C652 1.399 . S
C653 C654 1.376 . S
C654 H641 0.930 . S
C654 C653 1.376 . S
C654 C655 1.388 . S
C655 H642 0.930 . S
C655 C654 1.388 . S
C655 C656 1.390 . S
C656 C655 1.390 . S
C656 C657 1.394 . S
C656 C662 1.465 . S
C657 C652 1.399 . S
C657 C656 1.394 . S
C657 C658 1.516 . S
C658 C657 1.516 . S
C658 C659 1.502 1_455 S
C658 C660 1.555 1_554 S
C658 C661 1.526 . S
C659 H643 0.959 . S
C659 H644 0.959 . S
C659 H645 0.961 . S
C659 C658 1.502 1_655 S
C660 H646 0.957 1_456 S
C660 H647 0.967 1_455 S
C660 H648 0.962 . S
C660 C658 1.555 1_556 S
C661 C658 1.526 . S
C661 C662 1.396 . S
C661 C666 1.390 1_554 S
C662 C656 1.465 . S
C662 C661 1.396 . S
C662 C663 1.399 . S
C663 H649 0.929 . S
C663 C662 1.399 . S
C663 C664 1.385 1_554 S
C664 H650 0.931 . S
C664 C663 1.385 1_556 S
C664 C665 1.389 . S
C665 C664 1.389 . S
C665 C666 1.387 . S
C666 H651 0.930 . S
C666 C661 1.390 1_556 S
C666 C665 1.387 . S
H667 C679 0.930 . S
H668 C681 0.930 . S
H669 C682 0.930 . S
H670 C686 0.959 . S
H671 C686 0.959 . S
H672 C686 0.961 . S
H673 C687 0.960 . S
H674 C687 0.961 . S
H675 C687 0.959 . S
H676 C690 0.929 . S
H677 C691 0.931 . S
H678 C693 0.930 . S
C679 H667 0.930 . S
C679 C680 1.399 . S
C679 C684 1.399 . S
C680 C679 1.399 . S
C680 C681 1.376 . S
C681 H668 0.930 . S
C681 C680 1.376 . S
C681 C682 1.388 . S
C682 H669 0.930 . S
C682 C681 1.388 . S
C682 C683 1.390 . S
C683 C682 1.390 . S
C683 C684 1.394 . S
C683 C689 1.465 . S
C684 C679 1.399 . S
C684 C683 1.394 . S
C684 C685 1.516 . S
C685 C684 1.516 . S
C685 C686 1.502 . S
C685 C687 1.561 . S
C685 C688 1.526 . S
C686 H670 0.959 . S
C686 H671 0.959 . S
C686 H672 0.961 . S
C686 C685 1.502 . S
C687 H673 0.960 . S
C687 H674 0.961 . S
C687 H675 0.959 . S
C687 C685 1.561 . S
C688 C685 1.526 . S
C688 C689 1.396 . S
C688 C693 1.390 . S
C689 C683 1.465 . S
C689 C688 1.396 . S
C689 C690 1.399 . S
C690 H676 0.929 . S
C690 C689 1.399 . S
C690 C691 1.385 . S
C691 H677 0.931 . S
C691 C690 1.385 . S
C691 C692 1.389 . S
C692 C691 1.389 . S
C692 C693 1.387 . S
C693 H678 0.930 . S
C693 C688 1.390 . S
C693 C692 1.387 . S
H694 C706 0.930 . S
H695 C708 0.930 . S
H696 C709 0.930 . S
H697 C713 0.959 . S
H698 C713 0.959 . S
H699 C713 0.961 . S
H700 C714 0.960 . S
H701 C714 0.961 . S
H702 C714 0.959 . S
H703 C717 0.929 . S
H704 C718 0.931 . S
H705 C720 0.930 . S
C706 H694 0.930 . S
C706 C707 1.399 . S
C706 C711 1.399 . S
C707 C706 1.399 . S
C707 C708 1.376 . S
C708 H695 0.930 . S
C708 C707 1.376 . S
C708 C709 1.388 . S
C709 H696 0.930 . S
C709 C708 1.388 . S
C709 C710 1.390 . S
C710 C709 1.390 . S
C710 C711 1.394 . S
C710 C716 1.465 . S
C711 C706 1.399 . S
C711 C710 1.394 . S
C711 C712 1.516 . S
C712 C711 1.516 . S
C712 C713 1.502 . S
C712 C714 1.561 . S
C712 C715 1.526 . S
C713 H697 0.959 . S
C713 H698 0.959 . S
C713 H699 0.961 . S
C713 C712 1.502 . S
C714 H700 0.960 . S
C714 H701 0.961 . S
C714 H702 0.959 . S
C714 C712 1.561 . S
C715 C712 1.526 . S
C715 C716 1.396 . S
C715 C720 1.390 . S
C716 C710 1.465 . S
C716 C715 1.396 . S
C716 C717 1.399 . S
C717 H703 0.929 . S
C717 C716 1.399 . S
C717 C718 1.385 . S
C718 H704 0.931 . S
C718 C717 1.385 . S
C718 C719 1.389 . S
C719 C718 1.389 . S
C719 C720 1.387 . S
C720 H705 0.930 . S
C720 C715 1.390 . S
C720 C719 1.387 . S
H721 C733 0.930 . S
H722 C735 0.930 . S
H723 C736 0.930 . S
H724 C740 0.959 . S
H725 C740 0.959 . S
H726 C740 0.961 . S
H727 C741 0.960 . S
H728 C741 0.961 . S
H729 C741 0.959 . S
H730 C744 0.929 . S
H731 C745 0.931 . S
H732 C747 0.930 . S
C733 H721 0.930 . S
C733 C734 1.399 . S
C733 C738 1.399 . S
C734 C733 1.399 . S
C734 C735 1.376 . S
C735 H722 0.930 . S
C735 C734 1.376 . S
C735 C736 1.388 . S
C736 H723 0.930 . S
C736 C735 1.388 . S
C736 C737 1.390 . S
C737 C736 1.390 . S
C737 C738 1.394 . S
C737 C743 1.465 . S
C738 C733 1.399 . S
C738 C737 1.394 . S
C738 C739 1.516 . S
C739 C738 1.516 . S
C739 C740 1.502 . S
C739 C741 1.561 . S
C739 C742 1.526 . S
C740 H724 0.959 . S
C740 H725 0.959 . S
C740 H726 0.961 . S
C740 C739 1.502 . S
C741 H727 0.960 . S
C741 H728 0.961 . S
C741 H729 0.959 . S
C741 C739 1.561 . S
C742 C739 1.526 . S
C742 C743 1.396 . S
C742 C747 1.390 . S
C743 C737 1.465 . S
C743 C742 1.396 . S
C743 C744 1.399 . S
C744 H730 0.929 . S
C744 C743 1.399 . S
C744 C745 1.385 . S
C745 H731 0.931 . S
C745 C744 1.385 . S
C745 C746 1.389 . S
C746 C745 1.389 . S
C746 C747 1.387 . S
C747 H732 0.930 . S
C747 C742 1.390 . S
C747 C746 1.387 . S
H748 C760 0.930 . S
H749 C762 0.930 . S
H750 C763 0.930 . S
H751 C767 0.959 . S
H752 C767 0.959 . S
H753 C767 0.961 . S
H754 C768 0.960 . S
H755 C768 0.961 . S
H756 C768 0.959 . S
H757 C771 0.929 . S
H758 C772 0.931 . S
H759 C774 0.930 . S
C760 H748 0.930 . S
C760 C761 1.399 . S
C760 C765 1.399 . S
C761 C760 1.399 . S
C761 C762 1.376 . S
C762 H749 0.930 . S
C762 C761 1.376 . S
C762 C763 1.388 . S
C763 H750 0.930 . S
C763 C762 1.388 . S
C763 C764 1.390 . S
C764 C763 1.390 . S
C764 C765 1.394 . S
C764 C770 1.465 . S
C765 C760 1.399 . S
C765 C764 1.394 . S
C765 C766 1.516 . S
C766 C765 1.516 . S
C766 C767 1.502 . S
C766 C768 1.561 . S
C766 C769 1.526 . S
C767 H751 0.959 . S
C767 H752 0.959 . S
C767 H753 0.961 . S
C767 C766 1.502 . S
C768 H754 0.960 . S
C768 H755 0.961 . S
C768 H756 0.959 . S
C768 C766 1.561 . S
C769 C766 1.526 . S
C769 C770 1.396 . S
C769 C774 1.390 . S
C770 C764 1.465 . S
C770 C769 1.396 . S
C770 C771 1.399 . S
C771 H757 0.929 . S
C771 C770 1.399 . S
C771 C772 1.385 . S
C772 H758 0.931 . S
C772 C771 1.385 . S
C772 C773 1.389 . S
C773 C772 1.389 . S
C773 C774 1.387 . S
C774 H759 0.930 . S
C774 C769 1.390 . S
C774 C773 1.387 . S
H775 C787 0.930 . S
H776 C789 0.930 . S
H777 C790 0.930 . S
H778 C794 0.959 . S
H779 C794 0.959 . S
H780 C794 0.961 . S
H781 C795 0.960 . S
H782 C795 0.961 . S
H783 C795 0.959 . S
H784 C798 0.929 . S
H785 C799 0.931 . S
H786 C801 0.930 . S
C787 H775 0.930 . S
C787 C788 1.399 . S
C787 C792 1.399 . S
C788 C787 1.399 . S
C788 C789 1.376 . S
C789 H776 0.930 . S
C789 C788 1.376 . S
C789 C790 1.388 . S
C790 H777 0.930 . S
C790 C789 1.388 . S
C790 C791 1.390 . S
C791 C790 1.390 . S
C791 C792 1.394 . S
C791 C797 1.465 . S
C792 C787 1.399 . S
C792 C791 1.394 . S
C792 C793 1.516 . S
C793 C792 1.516 . S
C793 C794 1.502 . S
C793 C795 1.561 . S
C793 C796 1.526 . S
C794 H778 0.959 . S
C794 H779 0.959 . S
C794 H780 0.961 . S
C794 C793 1.502 . S
C795 H781 0.960 . S
C795 H782 0.961 . S
C795 H783 0.959 . S
C795 C793 1.561 . S
C796 C793 1.526 . S
C796 C797 1.396 . S
C796 C801 1.390 . S
C797 C791 1.465 . S
C797 C796 1.396 . S
C797 C798 1.399 . S
C798 H784 0.929 . S
C798 C797 1.399 . S
C798 C799 1.385 . S
C799 H785 0.931 . S
C799 C798 1.385 . S
C799 C800 1.389 . S
C800 C799 1.389 . S
C800 C801 1.387 . S
C801 H786 0.930 . S
C801 C796 1.390 . S
C801 C800 1.387 . S
H802 C814 0.930 . S
H803 C816 0.930 . S
H804 C817 0.930 . S
H805 C821 0.959 . S
H806 C821 0.959 . S
H807 C821 0.961 . S
H808 C822 0.959 1_565 S
H809 C822 0.963 . S
H810 C822 0.957 1_565 S
H811 C825 0.929 1_565 S
H812 C826 0.931 . S
H813 C828 0.930 . S
C814 H802 0.930 . S
C814 C815 1.399 . S
C814 C819 1.399 . S
C815 C814 1.399 . S
C815 C816 1.376 . S
C816 H803 0.930 . S
C816 C815 1.376 . S
C816 C817 1.388 . S
C817 H804 0.930 . S
C817 C816 1.388 . S
C817 C818 1.390 . S
C818 C817 1.390 . S
C818 C819 1.394 . S
C818 C824 1.465 1_565 S
C819 C814 1.399 . S
C819 C818 1.394 . S
C819 C820 1.516 1_565 S
C820 C819 1.516 1_545 S
C820 C821 1.502 . S
C820 C822 1.562 . S
C820 C823 1.526 . S
C821 H805 0.959 . S
C821 H806 0.959 . S
C821 H807 0.961 . S
C821 C820 1.502 . S
C822 H808 0.959 1_545 S
C822 H809 0.963 . S
C822 H810 0.957 1_545 S
C822 C820 1.562 . S
C823 C820 1.526 . S
C823 C824 1.396 . S
C823 C828 1.390 . S
C824 C818 1.465 1_545 S
C824 C823 1.396 . S
C824 C825 1.399 . S
C825 H811 0.929 1_545 S
C825 C824 1.399 . S
C825 C826 1.385 . S
C826 H812 0.931 . S
C826 C825 1.385 . S
C826 C827 1.389 . S
C827 C826 1.389 . S
C827 C828 1.387 . S
C828 H813 0.930 . S
C828 C823 1.390 . S
C828 C827 1.387 . S
H829 C841 0.930 . S
H830 C843 0.930 1_655 S
H831 C844 0.930 1_665 S
H832 C848 0.959 1_565 S
H833 C848 0.959 . S
H834 C848 0.961 . S
H835 C849 0.960 . S
H836 C849 0.961 . S
H837 C849 0.959 . S
H838 C852 0.929 1_655 S
H839 C853 0.931 1_655 S
H840 C855 0.930 . S
C841 H829 0.930 . S
C841 C842 1.399 1_554 S
C841 C846 1.399 . S
C842 C841 1.399 1_556 S
C842 C843 1.376 . S
C843 H830 0.930 1_455 S
C843 C842 1.376 . S
C843 C844 1.388 . S
C844 H831 0.930 1_445 S
C844 C843 1.388 . S
C844 C845 1.390 1_556 S
C845 C844 1.390 1_554 S
C845 C846 1.394 . S
C845 C851 1.465 1_545 S
C846 C841 1.399 . S
C846 C845 1.394 . S
C846 C847 1.516 . S
C847 C846 1.516 . S
C847 C848 1.502 . S
C847 C849 1.561 . S
C847 C850 1.526 1_545 S
C848 H832 0.959 1_545 S
C848 H833 0.959 . S
C848 H834 0.961 . S
C848 C847 1.502 . S
C849 H835 0.960 . S
C849 H836 0.961 . S
C849 H837 0.959 . S
C849 C847 1.561 . S
C850 C847 1.526 1_565 S
C850 C851 1.396 . S
C850 C855 1.390 . S
C851 C845 1.465 1_565 S
C851 C850 1.396 . S
C851 C852 1.399 . S
C852 H838 0.929 1_455 S
C852 C851 1.399 . S
C852 C853 1.385 . S
C853 H839 0.931 1_455 S
C853 C852 1.385 . S
C853 C854 1.389 . S
C854 C853 1.389 . S
C854 C855 1.387 . S
C855 H840 0.930 . S
C855 C850 1.390 . S
C855 C854 1.387 . S
H856 C868 0.930 . S
H857 C870 0.930 . S
H858 C871 0.930 . S
H859 C875 0.963 1_655 S
H860 C875 0.959 . S
H861 C875 0.961 . S
H862 C876 0.960 . S
H863 C876 0.961 . S
H864 C876 0.959 . S
H865 C879 0.929 . S
H866 C880 0.931 . S
H867 C882 0.930 . S
C868 H856 0.930 . S
C868 C869 1.399 . S
C868 C873 1.399 . S
C869 C868 1.399 . S
C869 C870 1.376 . S
C870 H857 0.930 . S
C870 C869 1.376 . S
C870 C871 1.388 . S
C871 H858 0.930 . S
C871 C870 1.388 . S
C871 C872 1.390 . S
C872 C871 1.390 . S
C872 C873 1.394 . S
C872 C878 1.465 . S
C873 C868 1.399 . S
C873 C872 1.394 . S
C873 C874 1.516 . S
C874 C873 1.516 . S
C874 C875 1.502 . S
C874 C876 1.561 . S
C874 C877 1.526 . S
C875 H859 0.963 1_455 S
C875 H860 0.959 . S
C875 H861 0.961 . S
C875 C874 1.502 . S
C876 H862 0.960 . S
C876 H863 0.961 . S
C876 H864 0.959 . S
C876 C874 1.561 . S
C877 C874 1.526 . S
C877 C878 1.396 . S
C877 C882 1.390 . S
C878 C872 1.465 . S
C878 C877 1.396 . S
C878 C879 1.399 . S
C879 H865 0.929 . S
C879 C878 1.399 . S
C879 C880 1.385 . S
C880 H866 0.931 . S
C880 C879 1.385 . S
C880 C881 1.389 . S
C881 C880 1.389 . S
C881 C882 1.387 . S
C882 H867 0.930 . S
C882 C877 1.390 . S
C882 C881 1.387 . S
H883 C895 0.930 . S
H884 C897 0.930 . S
H885 C898 0.930 . S
H886 C902 0.959 . S
H887 C902 0.959 . S
H888 C902 0.961 . S
H889 C903 0.960 . S
H890 C903 0.961 . S
H891 C903 0.959 . S
H892 C906 0.929 . S
H893 C907 0.931 . S
H894 C909 0.930 . S
C895 H883 0.930 . S
C895 C896 1.399 . S
C895 C900 1.399 . S
C896 C895 1.399 . S
C896 C897 1.376 . S
C897 H884 0.930 . S
C897 C896 1.376 . S
C897 C898 1.388 . S
C898 H885 0.930 . S
C898 C897 1.388 . S
C898 C899 1.390 . S
C899 C898 1.390 . S
C899 C900 1.394 . S
C899 C905 1.465 . S
C900 C895 1.399 . S
C900 C899 1.394 . S
C900 C901 1.516 . S
C901 C900 1.516 . S
C901 C902 1.502 . S
C901 C903 1.561 . S
C901 C904 1.526 . S
C902 H886 0.959 . S
C902 H887 0.959 . S
C902 H888 0.961 . S
C902 C901 1.502 . S
C903 H889 0.960 . S
C903 H890 0.961 . S
C903 H891 0.959 . S
C903 C901 1.561 . S
C904 C901 1.526 . S
C904 C905 1.396 . S
C904 C909 1.390 . S
C905 C899 1.465 . S
C905 C904 1.396 . S
C905 C906 1.399 . S
C906 H892 0.929 . S
C906 C905 1.399 . S
C906 C907 1.385 . S
C907 H893 0.931 . S
C907 C906 1.385 . S
C907 C908 1.389 . S
C908 C907 1.389 . S
C908 C909 1.387 . S
C909 H894 0.930 . S
C909 C904 1.390 . S
C909 C908 1.387 . S
H910 C922 0.930 . S
H911 C924 0.930 . S
H912 C925 0.930 . S
H913 C929 0.959 1_554 S
H914 C929 0.959 . S
H915 C929 0.961 1_554 S
H916 C930 0.960 . S
H917 C930 0.961 1_556 S
H918 C930 0.959 . S
H919 C933 0.929 . S
H920 C934 0.931 1_556 S
H921 C936 0.930 . S
C922 H910 0.930 . S
C922 C923 1.399 . S
C922 C927 1.399 . S
C923 C922 1.399 . S
C923 C924 1.376 . S
C924 H911 0.930 . S
C924 C923 1.376 . S
C924 C925 1.388 . S
C925 H912 0.930 . S
C925 C924 1.388 . S
C925 C926 1.390 . S
C926 C925 1.390 . S
C926 C927 1.394 . S
C926 C932 1.465 . S
C927 C922 1.399 . S
C927 C926 1.394 . S
C927 C928 1.516 . S
C928 C927 1.516 . S
C928 C929 1.502 1_554 S
C928 C930 1.561 . S
C928 C931 1.526 . S
C929 H913 0.959 1_556 S
C929 H914 0.959 . S
C929 H915 0.961 1_556 S
C929 C928 1.502 1_556 S
C930 H916 0.960 . S
C930 H917 0.961 1_554 S
C930 H918 0.959 . S
C930 C928 1.561 . S
C931 C928 1.526 . S
C931 C932 1.396 . S
C931 C936 1.390 1_554 S
C932 C926 1.465 . S
C932 C931 1.396 . S
C932 C933 1.399 . S
C933 H919 0.929 . S
C933 C932 1.399 . S
C933 C934 1.385 . S
C934 H920 0.931 1_554 S
C934 C933 1.385 . S
C934 C935 1.389 1_554 S
C935 C934 1.389 1_556 S
C935 C936 1.387 . S
C936 H921 0.930 . S
C936 C931 1.390 1_556 S
C936 C935 1.387 . S
H937 C949 0.930 . S
H938 C951 0.930 . S
H939 C952 0.930 . S
H940 C956 0.959 . S
H941 C956 0.959 . S
H942 C956 0.961 . S
H943 C957 0.960 . S
H944 C957 0.961 . S
H945 C957 0.959 . S
H946 C960 0.929 . S
H947 C961 0.931 . S
H948 C963 0.930 . S
C949 H937 0.930 . S
C949 C950 1.399 . S
C949 C954 1.399 . S
C950 C949 1.399 . S
C950 C951 1.376 . S
C951 H938 0.930 . S
C951 C950 1.376 . S
C951 C952 1.388 . S
C952 H939 0.930 . S
C952 C951 1.388 . S
C952 C953 1.390 . S
C953 C952 1.390 . S
C953 C954 1.394 . S
C953 C959 1.465 . S
C954 C949 1.399 . S
C954 C953 1.394 . S
C954 C955 1.516 . S
C955 C954 1.516 . S
C955 C956 1.502 . S
C955 C957 1.561 . S
C955 C958 1.526 . S
C956 H940 0.959 . S
C956 H941 0.959 . S
C956 H942 0.961 . S
C956 C955 1.502 . S
C957 H943 0.960 . S
C957 H944 0.961 . S
C957 H945 0.959 . S
C957 C955 1.561 . S
C958 C955 1.526 . S
C958 C959 1.396 . S
C958 C963 1.390 . S
C959 C953 1.465 . S
C959 C958 1.396 . S
C959 C960 1.399 . S
C960 H946 0.929 . S
C960 C959 1.399 . S
C960 C961 1.385 . S
C961 H947 0.931 . S
C961 C960 1.385 . S
C961 C962 1.389 . S
C962 C961 1.389 . S
C962 C963 1.387 . S
C963 H948 0.930 . S
C963 C958 1.390 . S
C963 C962 1.387 . S
H964 C976 0.930 . S
H965 C978 0.930 . S
H966 C979 0.930 . S
H967 C983 0.959 . S
H968 C983 0.959 . S
H969 C983 0.961 . S
H970 C984 0.960 . S
H971 C984 0.961 . S
H972 C984 0.959 . S
H973 C987 0.929 . S
H974 C988 0.931 . S
H975 C990 0.930 . S
C976 H964 0.930 . S
C976 C977 1.399 . S
C976 C981 1.399 . S
C977 C976 1.399 . S
C977 C978 1.376 . S
C978 H965 0.930 . S
C978 C977 1.376 . S
C978 C979 1.388 . S
C979 H966 0.930 . S
C979 C978 1.388 . S
C979 C980 1.390 . S
C980 C979 1.390 . S
C980 C981 1.394 . S
C980 C986 1.465 . S
C981 C976 1.399 . S
C981 C980 1.394 . S
C981 C982 1.516 . S
C982 C981 1.516 . S
C982 C983 1.502 . S
C982 C984 1.561 . S
C982 C985 1.526 . S
C983 H967 0.959 . S
C983 H968 0.959 . S
C983 H969 0.961 . S
C983 C982 1.502 . S
C984 H970 0.960 . S
C984 H971 0.961 . S
C984 H972 0.959 . S
C984 C982 1.561 . S
C985 C982 1.526 . S
C985 C986 1.396 . S
C985 C990 1.390 . S
C986 C980 1.465 . S
C986 C985 1.396 . S
C986 C987 1.399 . S
C987 H973 0.929 . S
C987 C986 1.399 . S
C987 C988 1.385 . S
C988 H974 0.931 . S
C988 C987 1.385 . S
C988 C989 1.389 . S
C989 C988 1.389 . S
C989 C990 1.387 . S
C990 H975 0.930 . S
C990 C985 1.390 . S
C990 C989 1.387 . S
H991 C1003 0.930 . S
H992 C1005 0.930 . S
H993 C1006 0.930 . S
H994 C1010 0.959 . S
H995 C1010 0.959 . S
H996 C1010 0.961 . S
H997 C1011 0.960 . S
H998 C1011 0.961 . S
H999 C1011 0.959 . S
H1000 C1014 0.929 . S
H1001 C1015 0.931 . S
H1002 C1017 0.930 . S
C1003 H991 0.930 . S
C1003 C1004 1.399 . S
C1003 C1008 1.399 . S
C1004 C1003 1.399 . S
C1004 C1005 1.376 . S
C1005 H992 0.930 . S
C1005 C1004 1.376 . S
C1005 C1006 1.388 . S
C1006 H993 0.930 . S
C1006 C1005 1.388 . S
C1006 C1007 1.390 . S
C1007 C1006 1.390 . S
C1007 C1008 1.394 . S
C1007 C1013 1.465 . S
C1008 C1003 1.399 . S
C1008 C1007 1.394 . S
C1008 C1009 1.516 . S
C1009 C1008 1.516 . S
C1009 C1010 1.502 . S
C1009 C1011 1.561 . S
C1009 C1012 1.526 . S
C1010 H994 0.959 . S
C1010 H995 0.959 . S
C1010 H996 0.961 . S
C1010 C1009 1.502 . S
C1011 H997 0.960 . S
C1011 H998 0.961 . S
C1011 H999 0.959 . S
C1011 C1009 1.561 . S
C1012 C1009 1.526 . S
C1012 C1013 1.396 . S
C1012 C1017 1.390 . S
C1013 C1007 1.465 . S
C1013 C1012 1.396 . S
C1013 C1014 1.399 . S
C1014 H1000 0.929 . S
C1014 C1013 1.399 . S
C1014 C1015 1.385 . S
C1015 H1001 0.931 . S
C1015 C1014 1.385 . S
C1015 C1016 1.389 . S
C1016 C1015 1.389 . S
C1016 C1017 1.387 . S
C1017 H1002 0.930 . S
C1017 C1012 1.390 . S
C1017 C1016 1.387 . S
H1018 C1030 0.930 . S
H1019 C1032 0.930 . S
H1020 C1033 0.930 . S
H1021 C1037 0.959 . S
H1022 C1037 0.959 . S
H1023 C1037 0.961 . S
H1024 C1038 0.960 . S
H1025 C1038 0.961 . S
H1026 C1038 0.959 . S
H1027 C1041 0.929 . S
H1028 C1042 0.931 . S
H1029 C1044 0.930 1_554 S
C1030 H1018 0.930 . S
C1030 C1031 1.399 . S
C1030 C1035 1.399 . S
C1031 C1030 1.399 . S
C1031 C1032 1.376 . S
C1032 H1019 0.930 . S
C1032 C1031 1.376 . S
C1032 C1033 1.388 . S
C1033 H1020 0.930 . S
C1033 C1032 1.388 . S
C1033 C1034 1.390 . S
C1034 C1033 1.390 . S
C1034 C1035 1.394 . S
C1034 C1040 1.465 . S
C1035 C1030 1.399 . S
C1035 C1034 1.394 . S
C1035 C1036 1.516 1_565 S
C1036 C1035 1.516 1_545 S
C1036 C1037 1.502 . S
C1036 C1038 1.561 . S
C1036 C1039 1.526 . S
C1037 H1021 0.959 . S
C1037 H1022 0.959 . S
C1037 H1023 0.961 . S
C1037 C1036 1.502 . S
C1038 H1024 0.960 . S
C1038 H1025 0.961 . S
C1038 H1026 0.959 . S
C1038 C1036 1.561 . S
C1039 C1036 1.526 . S
C1039 C1040 1.396 1_545 S
C1039 C1044 1.390 1_554 S
C1040 C1034 1.465 . S
C1040 C1039 1.396 1_565 S
C1040 C1041 1.399 1_554 S
C1041 H1027 0.929 . S
C1041 C1040 1.399 1_556 S
C1041 C1042 1.385 1_565 S
C1042 H1028 0.931 . S
C1042 C1041 1.385 1_545 S
C1042 C1043 1.389 . S
C1043 C1042 1.389 . S
C1043 C1044 1.387 . S
C1044 H1029 0.930 1_556 S
C1044 C1039 1.390 1_556 S
C1044 C1043 1.387 . S
H1045 C1057 0.930 . S
H1046 C1059 0.930 . S
H1047 C1060 0.930 . S
H1048 C1064 0.959 . S
H1049 C1064 0.959 . S
H1050 C1064 0.961 . S
H1051 C1065 0.960 . S
H1052 C1065 0.961 . S
H1053 C1065 0.959 1_655 S
H1054 C1068 0.929 . S
H1055 C1069 0.931 . S
H1056 C1071 0.930 . S
C1057 H1045 0.930 . S
C1057 C1058 1.399 . S
C1057 C1062 1.399 . S
C1058 C1057 1.399 . S
C1058 C1059 1.376 . S
C1059 H1046 0.930 . S
C1059 C1058 1.376 . S
C1059 C1060 1.388 . S
C1060 H1047 0.930 . S
C1060 C1059 1.388 . S
C1060 C1061 1.390 . S
C1061 C1060 1.390 . S
C1061 C1062 1.394 . S
C1061 C1067 1.490 . S
C1062 C1057 1.399 . S
C1062 C1061 1.394 . S
C1062 C1063 1.516 1_545 S
C1063 C1062 1.516 1_565 S
C1063 C1064 1.502 . S
C1063 C1065 1.561 . S
C1063 C1066 1.526 . S
C1064 H1048 0.959 . S
C1064 H1049 0.959 . S
C1064 H1050 0.961 . S
C1064 C1063 1.502 . S
C1065 H1051 0.960 . S
C1065 H1052 0.961 . S
C1065 H1053 0.959 1_455 S
C1065 C1063 1.561 . S
C1066 C1063 1.526 . S
C1066 C1067 1.360 1_565 S
C1066 C1071 1.390 . S
C1067 C1061 1.490 . S
C1067 C1066 1.360 1_545 S
C1067 C1068 1.407 . S
C1068 H1054 0.929 . S
C1068 C1067 1.407 . S
C1068 C1069 1.385 1_545 S
C1069 H1055 0.931 . S
C1069 C1068 1.385 1_565 S
C1069 C1070 1.389 . S
C1070 C1069 1.389 . S
C1070 C1071 1.387 . S
C1071 H1056 0.930 . S
C1071 C1066 1.390 . S
C1071 C1070 1.387 . S
C221 C127 1.380 . S
C233 C10 1.443 . S
C248 C192 1.405 . S
C260 C23 1.427 . S
C275 C36 1.397 . S
C287 C114 1.433 . S
C302 C49 1.443 . S
C314 C205 1.381 . S
C329 C62 1.442 . S
C341 C140 1.380 . S
C356 C179 1.434 . S
C368 C75 1.398 . S
C383 C153 1.379 . S
C395 C88 1.442 . S
C410 C101 1.443 . S
C422 C166 1.380 . S
C437 C57 1.377 . S
C449 C44 1.422 . S
C464 C161 1.385 . S
C476 C109 1.439 . S
C491 C83 1.456 . S
C503 C18 1.406 . S
C518 C122 1.457 . S
C530 C174 1.425 . S
C545 C5 1.385 . S
C557 C70 1.442 . S
C572 C200 1.392 . S
C584 C135 1.447 . S
C599 C96 1.413 . S
C611 C31 1.382 . S
C626 C148 1.380 . S
C638 C187 1.425 . S
C653 C8 0.546 . S
C665 C60 0.538 . S
C680 C73 0.500 . S
C692 C21 0.416 . S
C707 C86 0.579 . S
C719 C34 0.473 . S
C734 C47 0.487 . S
C746 C99 0.574 . S
C761 C138 0.505 . S
C773 C112 0.567 . S
C788 C151 0.523 . S
C800 C125 0.407 . S
C815 C190 0.470 . S
C827 C164 0.577 . S
C842 C203 0.564 . S
C854 C177 0.515 . S
C869 C52 1.668 . S
C881 C0 1.680 . S
C896 C65 1.693 . S
C908 C13 1.700 . S
C923 C78 1.693 . S
C935 C26 1.681 . S
C950 C39 1.694 . S
C962 C91 1.701 . S
C977 C104 1.693 . S
C989 C130 1.700 . S
C1004 C143 1.673 . S
C1016 C117 1.665 . S
C1031 C182 1.682 . S
C1043 C156 1.694 . S
C1058 C195 1.667 . S
C1070 C169 1.678 . S
