# Generated by pormake.
# Topology rho, (4)-cn, num edge types: 1
# Building blocks:
#     Node 0, Type 0, BuildingBlock: GALJAG_clean_sbu_0, # of connection points: 4
#     Node 1, Type 0, BuildingBlock: GALJAG_clean_sbu_0, # of connection points: 4
#     Node 2, Type 0, BuildingBlock: GALJAG_clean_sbu_0, # of connection points: 4
#     Node 3, Type 0, BuildingBlock: GALJAG_clean_sbu_0, # of connection points: 4
#     Node 4, Type 0, BuildingBlock: GALJAG_clean_sbu_0, # of connection points: 4
#     Node 5, Type 0, BuildingBlock: GALJAG_clean_sbu_0, # of connection points: 4
#     Node 6, Type 0, BuildingBlock: GALJAG_clean_sbu_0, # of connection points: 4
#     Node 7, Type 0, BuildingBlock: GALJAG_clean_sbu_0, # of connection points: 4
#     Node 8, Type 0, BuildingBlock: GALJAG_clean_sbu_0, # of connection points: 4
#     Node 9, Type 0, BuildingBlock: GALJAG_clean_sbu_0, # of connection points: 4
#     Node 10, Type 0, BuildingBlock: GALJAG_clean_sbu_0, # of connection points: 4
#     Node 11, Type 0, BuildingBlock: GALJAG_clean_sbu_0, # of connection points: 4
#     Node 12, Type 0, BuildingBlock: GALJAG_clean_sbu_0, # of connection points: 4
#     Node 13, Type 0, BuildingBlock: GALJAG_clean_sbu_0, # of connection points: 4
#     Node 14, Type 0, BuildingBlock: GALJAG_clean_sbu_0, # of connection points: 4
#     Node 15, Type 0, BuildingBlock: GALJAG_clean_sbu_0, # of connection points: 4
#     Node 16, Type 0, BuildingBlock: GALJAG_clean_sbu_0, # of connection points: 4
#     Node 17, Type 0, BuildingBlock: GALJAG_clean_sbu_0, # of connection points: 4
#     Node 18, Type 0, BuildingBlock: GALJAG_clean_sbu_0, # of connection points: 4
#     Node 19, Type 0, BuildingBlock: GALJAG_clean_sbu_0, # of connection points: 4
#     Node 20, Type 0, BuildingBlock: GALJAG_clean_sbu_0, # of connection points: 4
#     Node 21, Type 0, BuildingBlock: GALJAG_clean_sbu_0, # of connection points: 4
#     Node 22, Type 0, BuildingBlock: GALJAG_clean_sbu_0, # of connection points: 4
#     Node 23, Type 0, BuildingBlock: GALJAG_clean_sbu_0, # of connection points: 4
#     Node 24, Type 0, BuildingBlock: GALJAG_clean_sbu_0, # of connection points: 4
#     Node 25, Type 0, BuildingBlock: GALJAG_clean_sbu_0, # of connection points: 4
#     Node 26, Type 0, BuildingBlock: GALJAG_clean_sbu_0, # of connection points: 4
#     Node 27, Type 0, BuildingBlock: GALJAG_clean_sbu_0, # of connection points: 4
#     Node 28, Type 0, BuildingBlock: GALJAG_clean_sbu_0, # of connection points: 4
#     Node 29, Type 0, BuildingBlock: GALJAG_clean_sbu_0, # of connection points: 4
#     Node 30, Type 0, BuildingBlock: GALJAG_clean_sbu_0, # of connection points: 4
#     Node 31, Type 0, BuildingBlock: GALJAG_clean_sbu_0, # of connection points: 4
#     Node 32, Type 0, BuildingBlock: GALJAG_clean_sbu_0, # of connection points: 4
#     Node 33, Type 0, BuildingBlock: GALJAG_clean_sbu_0, # of connection points: 4
#     Node 34, Type 0, BuildingBlock: GALJAG_clean_sbu_0, # of connection points: 4
#     Node 35, Type 0, BuildingBlock: GALJAG_clean_sbu_0, # of connection points: 4
#     Node 36, Type 0, BuildingBlock: GALJAG_clean_sbu_0, # of connection points: 4
#     Node 37, Type 0, BuildingBlock: GALJAG_clean_sbu_0, # of connection points: 4
#     Node 38, Type 0, BuildingBlock: GALJAG_clean_sbu_0, # of connection points: 4
#     Node 39, Type 0, BuildingBlock: GALJAG_clean_sbu_0, # of connection points: 4
#     Node 40, Type 0, BuildingBlock: GALJAG_clean_sbu_0, # of connection points: 4
#     Node 41, Type 0, BuildingBlock: GALJAG_clean_sbu_0, # of connection points: 4
#     Node 42, Type 0, BuildingBlock: GALJAG_clean_sbu_0, # of connection points: 4
#     Node 43, Type 0, BuildingBlock: GALJAG_clean_sbu_0, # of connection points: 4
#     Node 44, Type 0, BuildingBlock: GALJAG_clean_sbu_0, # of connection points: 4
#     Node 45, Type 0, BuildingBlock: GALJAG_clean_sbu_0, # of connection points: 4
#     Node 46, Type 0, BuildingBlock: GALJAG_clean_sbu_0, # of connection points: 4
#     Node 47, Type 0, BuildingBlock: GALJAG_clean_sbu_0, # of connection points: 4
#     Edge 48, Type (0, 0), BuildingBlock: CIFDUS_clean_linker_0, # of connection points: 2
#     Edge 49, Type (0, 0), BuildingBlock: CIFDUS_clean_linker_0, # of connection points: 2
#     Edge 50, Type (0, 0), BuildingBlock: CIFDUS_clean_linker_0, # of connection points: 2
#     Edge 51, Type (0, 0), BuildingBlock: CIFDUS_clean_linker_0, # of connection points: 2
#     Edge 52, Type (0, 0), BuildingBlock: CIFDUS_clean_linker_0, # of connection points: 2
#     Edge 53, Type (0, 0), BuildingBlock: CIFDUS_clean_linker_0, # of connection points: 2
#     Edge 54, Type (0, 0), BuildingBlock: CIFDUS_clean_linker_0, # of connection points: 2
#     Edge 55, Type (0, 0), BuildingBlock: CIFDUS_clean_linker_0, # of connection points: 2
#     Edge 56, Type (0, 0), BuildingBlock: CIFDUS_clean_linker_0, # of connection points: 2
#     Edge 57, Type (0, 0), BuildingBlock: CIFDUS_clean_linker_0, # of connection points: 2
#     Edge 58, Type (0, 0), BuildingBlock: CIFDUS_clean_linker_0, # of connection points: 2
#     Edge 59, Type (0, 0), BuildingBlock: CIFDUS_clean_linker_0, # of connection points: 2
#     Edge 60, Type (0, 0), BuildingBlock: CIFDUS_clean_linker_0, # of connection points: 2
#     Edge 61, Type (0, 0), BuildingBlock: CIFDUS_clean_linker_0, # of connection points: 2
#     Edge 62, Type (0, 0), BuildingBlock: CIFDUS_clean_linker_0, # of connection points: 2
#     Edge 63, Type (0, 0), BuildingBlock: CIFDUS_clean_linker_0, # of connection points: 2
#     Edge 64, Type (0, 0), BuildingBlock: CIFDUS_clean_linker_0, # of connection points: 2
#     Edge 65, Type (0, 0), BuildingBlock: CIFDUS_clean_linker_0, # of connection points: 2
#     Edge 66, Type (0, 0), BuildingBlock: CIFDUS_clean_linker_0, # of connection points: 2
#     Edge 67, Type (0, 0), BuildingBlock: CIFDUS_clean_linker_0, # of connection points: 2
#     Edge 68, Type (0, 0), BuildingBlock: CIFDUS_clean_linker_0, # of connection points: 2
#     Edge 69, Type (0, 0), BuildingBlock: CIFDUS_clean_linker_0, # of connection points: 2
#     Edge 70, Type (0, 0), BuildingBlock: CIFDUS_clean_linker_0, # of connection points: 2
#     Edge 71, Type (0, 0), BuildingBlock: CIFDUS_clean_linker_0, # of connection points: 2
#     Edge 72, Type (0, 0), BuildingBlock: CIFDUS_clean_linker_0, # of connection points: 2
#     Edge 73, Type (0, 0), BuildingBlock: CIFDUS_clean_linker_0, # of connection points: 2
#     Edge 74, Type (0, 0), BuildingBlock: CIFDUS_clean_linker_0, # of connection points: 2
#     Edge 75, Type (0, 0), BuildingBlock: CIFDUS_clean_linker_0, # of connection points: 2
#     Edge 76, Type (0, 0), BuildingBlock: CIFDUS_clean_linker_0, # of connection points: 2
#     Edge 77, Type (0, 0), BuildingBlock: CIFDUS_clean_linker_0, # of connection points: 2
#     Edge 78, Type (0, 0), BuildingBlock: CIFDUS_clean_linker_0, # of connection points: 2
#     Edge 79, Type (0, 0), BuildingBlock: CIFDUS_clean_linker_0, # of connection points: 2
#     Edge 80, Type (0, 0), BuildingBlock: CIFDUS_clean_linker_0, # of connection points: 2
#     Edge 81, Type (0, 0), BuildingBlock: CIFDUS_clean_linker_0, # of connection points: 2
#     Edge 82, Type (0, 0), BuildingBlock: CIFDUS_clean_linker_0, # of connection points: 2
#     Edge 83, Type (0, 0), BuildingBlock: CIFDUS_clean_linker_0, # of connection points: 2
#     Edge 84, Type (0, 0), BuildingBlock: CIFDUS_clean_linker_0, # of connection points: 2
#     Edge 85, Type (0, 0), BuildingBlock: CIFDUS_clean_linker_0, # of connection points: 2
#     Edge 86, Type (0, 0), BuildingBlock: CIFDUS_clean_linker_0, # of connection points: 2
#     Edge 87, Type (0, 0), BuildingBlock: CIFDUS_clean_linker_0, # of connection points: 2
#     Edge 88, Type (0, 0), BuildingBlock: CIFDUS_clean_linker_0, # of connection points: 2
#     Edge 89, Type (0, 0), BuildingBlock: CIFDUS_clean_linker_0, # of connection points: 2
#     Edge 90, Type (0, 0), BuildingBlock: CIFDUS_clean_linker_0, # of connection points: 2
#     Edge 91, Type (0, 0), BuildingBlock: CIFDUS_clean_linker_0, # of connection points: 2
#     Edge 92, Type (0, 0), BuildingBlock: CIFDUS_clean_linker_0, # of connection points: 2
#     Edge 93, Type (0, 0), BuildingBlock: CIFDUS_clean_linker_0, # of connection points: 2
#     Edge 94, Type (0, 0), BuildingBlock: CIFDUS_clean_linker_0, # of connection points: 2
#     Edge 95, Type (0, 0), BuildingBlock: CIFDUS_clean_linker_0, # of connection points: 2
#     Edge 96, Type (0, 0), BuildingBlock: CIFDUS_clean_linker_0, # of connection points: 2
#     Edge 97, Type (0, 0), BuildingBlock: CIFDUS_clean_linker_0, # of connection points: 2
#     Edge 98, Type (0, 0), BuildingBlock: CIFDUS_clean_linker_0, # of connection points: 2
#     Edge 99, Type (0, 0), BuildingBlock: CIFDUS_clean_linker_0, # of connection points: 2
#     Edge 100, Type (0, 0), BuildingBlock: CIFDUS_clean_linker_0, # of connection points: 2
#     Edge 101, Type (0, 0), BuildingBlock: CIFDUS_clean_linker_0, # of connection points: 2
#     Edge 102, Type (0, 0), BuildingBlock: CIFDUS_clean_linker_0, # of connection points: 2
#     Edge 103, Type (0, 0), BuildingBlock: CIFDUS_clean_linker_0, # of connection points: 2
#     Edge 104, Type (0, 0), BuildingBlock: CIFDUS_clean_linker_0, # of connection points: 2
#     Edge 105, Type (0, 0), BuildingBlock: CIFDUS_clean_linker_0, # of connection points: 2
#     Edge 106, Type (0, 0), BuildingBlock: CIFDUS_clean_linker_0, # of connection points: 2
#     Edge 107, Type (0, 0), BuildingBlock: CIFDUS_clean_linker_0, # of connection points: 2
#     Edge 108, Type (0, 0), BuildingBlock: CIFDUS_clean_linker_0, # of connection points: 2
#     Edge 109, Type (0, 0), BuildingBlock: CIFDUS_clean_linker_0, # of connection points: 2
#     Edge 110, Type (0, 0), BuildingBlock: CIFDUS_clean_linker_0, # of connection points: 2
#     Edge 111, Type (0, 0), BuildingBlock: CIFDUS_clean_linker_0, # of connection points: 2
#     Edge 112, Type (0, 0), BuildingBlock: CIFDUS_clean_linker_0, # of connection points: 2
#     Edge 113, Type (0, 0), BuildingBlock: CIFDUS_clean_linker_0, # of connection points: 2
#     Edge 114, Type (0, 0), BuildingBlock: CIFDUS_clean_linker_0, # of connection points: 2
#     Edge 115, Type (0, 0), BuildingBlock: CIFDUS_clean_linker_0, # of connection points: 2
#     Edge 116, Type (0, 0), BuildingBlock: CIFDUS_clean_linker_0, # of connection points: 2
#     Edge 117, Type (0, 0), BuildingBlock: CIFDUS_clean_linker_0, # of connection points: 2
#     Edge 118, Type (0, 0), BuildingBlock: CIFDUS_clean_linker_0, # of connection points: 2
#     Edge 119, Type (0, 0), BuildingBlock: CIFDUS_clean_linker_0, # of connection points: 2
#     Edge 120, Type (0, 0), BuildingBlock: CIFDUS_clean_linker_0, # of connection points: 2
#     Edge 121, Type (0, 0), BuildingBlock: CIFDUS_clean_linker_0, # of connection points: 2
#     Edge 122, Type (0, 0), BuildingBlock: CIFDUS_clean_linker_0, # of connection points: 2
#     Edge 123, Type (0, 0), BuildingBlock: CIFDUS_clean_linker_0, # of connection points: 2
#     Edge 124, Type (0, 0), BuildingBlock: CIFDUS_clean_linker_0, # of connection points: 2
#     Edge 125, Type (0, 0), BuildingBlock: CIFDUS_clean_linker_0, # of connection points: 2
#     Edge 126, Type (0, 0), BuildingBlock: CIFDUS_clean_linker_0, # of connection points: 2
#     Edge 127, Type (0, 0), BuildingBlock: CIFDUS_clean_linker_0, # of connection points: 2
#     Edge 128, Type (0, 0), BuildingBlock: CIFDUS_clean_linker_0, # of connection points: 2
#     Edge 129, Type (0, 0), BuildingBlock: CIFDUS_clean_linker_0, # of connection points: 2
#     Edge 130, Type (0, 0), BuildingBlock: CIFDUS_clean_linker_0, # of connection points: 2
#     Edge 131, Type (0, 0), BuildingBlock: CIFDUS_clean_linker_0, # of connection points: 2
#     Edge 132, Type (0, 0), BuildingBlock: CIFDUS_clean_linker_0, # of connection points: 2
#     Edge 133, Type (0, 0), BuildingBlock: CIFDUS_clean_linker_0, # of connection points: 2
#     Edge 134, Type (0, 0), BuildingBlock: CIFDUS_clean_linker_0, # of connection points: 2
#     Edge 135, Type (0, 0), BuildingBlock: CIFDUS_clean_linker_0, # of connection points: 2
#     Edge 136, Type (0, 0), BuildingBlock: CIFDUS_clean_linker_0, # of connection points: 2
#     Edge 137, Type (0, 0), BuildingBlock: CIFDUS_clean_linker_0, # of connection points: 2
#     Edge 138, Type (0, 0), BuildingBlock: CIFDUS_clean_linker_0, # of connection points: 2
#     Edge 139, Type (0, 0), BuildingBlock: CIFDUS_clean_linker_0, # of connection points: 2
#     Edge 140, Type (0, 0), BuildingBlock: CIFDUS_clean_linker_0, # of connection points: 2
#     Edge 141, Type (0, 0), BuildingBlock: CIFDUS_clean_linker_0, # of connection points: 2
#     Edge 142, Type (0, 0), BuildingBlock: CIFDUS_clean_linker_0, # of connection points: 2
#     Edge 143, Type (0, 0), BuildingBlock: CIFDUS_clean_linker_0, # of connection points: 2
# Relax obj value: 0.062
# Max RMSD: 0.056
# Mean RMSD: 0.055
data_MOF--net-rho--node1-GALJAG_clean_sbu_0--edge1-CIFDUS_clean_linker_0
_symmetry_space_group_name_H-M    P1
_symmetry_Int_Tables_number       1
_symmetry_cell_setting            triclinic
loop_
_symmetry_equiv_pos_as_xyz
'x, y, z'
_cell_length_a     63.843475
_cell_length_b     63.885269
_cell_length_c     63.898259
_cell_angle_alpha  90.038958
_cell_angle_beta   90.016879
_cell_angle_gamma 90.141977
loop_
_atom_site_label
_atom_site_type_symbol
_atom_site_fract_x
_atom_site_fract_y
_atom_site_fract_z
_atom_type_partial_charge
In0 In 0.09923 0.24694 0.39145 0.0
O1 O 0.11012 0.26097 0.42277 0.0
O2 O 0.09548 0.23108 0.42296 0.0
C3 C 0.10787 0.27851 0.36468 0.0
C4 C 0.12642 0.21652 0.38096 0.0
C5 C 0.05713 0.24592 0.38812 0.0
O6 O 0.11016 0.28034 0.38423 0.0
O7 O 0.10163 0.26073 0.35873 0.0
O8 O 0.0686 0.23182 0.38041 0.0
O9 O 0.06693 0.26045 0.39727 0.0
C10 C 0.1039 0.24553 0.43346 0.0
O11 O 0.10685 0.21428 0.37925 0.0
O12 O 0.13223 0.23426 0.38748 0.0
In13 In 0.75177 0.10621 0.39797 0.0
O14 O 0.76731 0.07609 0.38626 0.0
O15 O 0.73885 0.07349 0.40324 0.0
C16 C 0.78258 0.13388 0.38932 0.0
C17 C 0.72101 0.11499 0.37053 0.0
C18 C 0.7486 0.11127 0.43976 0.0
O19 O 0.78564 0.11438 0.38956 0.0
O20 O 0.764 0.1393 0.39317 0.0
O21 O 0.7345 0.11714 0.42726 0.0
O22 O 0.76433 0.10302 0.43116 0.0
C23 C 0.75343 0.06418 0.39378 0.0
O24 O 0.71885 0.11717 0.39002 0.0
O25 O 0.73881 0.10858 0.36484 0.0
In26 In 0.89148 0.75615 0.3903 0.0
O27 O 0.8783 0.78773 0.37965 0.0
O28 O 0.85695 0.7631 0.38669 0.0
C29 C 0.93329 0.75994 0.38576 0.0
C30 C 0.88867 0.75741 0.43229 0.0
C31 C 0.88491 0.72372 0.3643 0.0
O32 O 0.9208 0.77314 0.37793 0.0
O33 O 0.9246 0.74517 0.39556 0.0
O34 O 0.8824 0.72225 0.38385 0.0
O35 O 0.89047 0.7416 0.35793 0.0
C36 C 0.85943 0.78188 0.38115 0.0
O37 O 0.88456 0.74105 0.42195 0.0
O38 O 0.89405 0.77299 0.42142 0.0
In39 In 0.25063 0.89341 0.39426 0.0
O40 O 0.23505 0.92491 0.38655 0.0
O41 O 0.26625 0.92476 0.39841 0.0
C42 C 0.22292 0.86275 0.38613 0.0
C43 C 0.27782 0.88596 0.36299 0.0
C44 C 0.25017 0.88995 0.43626 0.0
O45 O 0.21828 0.88188 0.38378 0.0
O46 O 0.24141 0.85936 0.39229 0.0
O47 O 0.2662 0.88499 0.42567 0.0
O48 O 0.23485 0.8964 0.42561 0.0
C49 C 0.25095 0.93547 0.39205 0.0
O50 O 0.28288 0.88328 0.38199 0.0
O51 O 0.25927 0.89212 0.3601 0.0
In52 In 0.10401 0.75073 0.60287 0.0
O53 O 0.07403 0.7669 0.61462 0.0
O54 O 0.07092 0.73981 0.59564 0.0
C55 C 0.13274 0.78063 0.61198 0.0
C56 C 0.11014 0.71869 0.62981 0.0
C57 C 0.10981 0.7487 0.56109 0.0
O58 O 0.11328 0.78399 0.61254 0.0
O59 O 0.13766 0.76208 0.60735 0.0
O60 O 0.1158 0.73438 0.57329 0.0
O61 O 0.1011 0.764 0.57 0.0
C62 C 0.06183 0.7541 0.60573 0.0
O63 O 0.11179 0.71663 0.61026 0.0
O64 O 0.10586 0.73702 0.6358 0.0
In65 In 0.24651 0.09932 0.59754 0.0
O66 O 0.21375 0.10752 0.60993 0.0
O67 O 0.23464 0.13233 0.60204 0.0
C68 C 0.25008 0.05726 0.59962 0.0
C69 C 0.24304 0.10364 0.55582 0.0
C70 C 0.27772 0.1093 0.62402 0.0
O71 O 0.23483 0.06671 0.60802 0.0
O72 O 0.26304 0.06901 0.59048 0.0
O73 O 0.2792 0.1122 0.60451 0.0
O74 O 0.26042 0.10179 0.63004 0.0
C75 C 0.21668 0.12708 0.60846 0.0
O76 O 0.25922 0.10954 0.56563 0.0
O77 O 0.22883 0.0958 0.56709 0.0
In78 In 0.9031 0.24079 0.61006 0.0
O79 O 0.89301 0.27251 0.62286 0.0
O80 O 0.90384 0.24978 0.64455 0.0
C81 C 0.89512 0.24791 0.56918 0.0
C82 C 0.94538 0.23844 0.6105 0.0
C83 C 0.87515 0.20999 0.6179 0.0
O84 O 0.89157 0.2614 0.58316 0.0
O85 O 0.90256 0.23091 0.57586 0.0
O86 O 0.89458 0.20661 0.61668 0.0
O87 O 0.86994 0.22885 0.61539 0.0
C88 C 0.89704 0.26808 0.64167 0.0
O89 O 0.93393 0.22361 0.61685 0.0
O90 O 0.93549 0.25418 0.60397 0.0
In91 In 0.75639 0.89576 0.60721 0.0
O92 O 0.7423 0.88628 0.5755 0.0
O93 O 0.77168 0.90191 0.57573 0.0
C94 C 0.72383 0.88653 0.63263 0.0
C95 C 0.78648 0.86741 0.61589 0.0
C96 C 0.75798 0.93754 0.61343 0.0
O97 O 0.72257 0.88532 0.61295 0.0
O98 O 0.74161 0.89189 0.63943 0.0
O99 O 0.77168 0.92536 0.62078 0.0
O100 O 0.74363 0.92861 0.6032 0.0
C101 C 0.75733 0.89366 0.56496 0.0
O102 O 0.78939 0.88685 0.61787 0.0
O103 O 0.76827 0.86231 0.61013 0.0
In104 In 0.39701 0.10065 0.24942 0.0
O105 O 0.3883 0.11356 0.28163 0.0
O106 O 0.36389 0.10257 0.2617 0.0
C107 C 0.43877 0.10596 0.24757 0.0
C108 C 0.39507 0.05867 0.25229 0.0
C109 C 0.38656 0.12682 0.21823 0.0
O110 O 0.42824 0.11197 0.26321 0.0
O111 O 0.4282 0.09747 0.2332 0.0
O112 O 0.3853 0.10717 0.21626 0.0
O113 O 0.3926 0.13307 0.23598 0.0
C114 C 0.36892 0.11024 0.2792 0.0
O115 O 0.38726 0.06844 0.23696 0.0
O116 O 0.40369 0.07009 0.26589 0.0
In117 In 0.89118 0.39672 0.25101 0.0
O118 O 0.923 0.38883 0.23611 0.0
O119 O 0.92231 0.40247 0.26656 0.0
C120 C 0.86067 0.38672 0.22385 0.0
C121 C 0.88422 0.36689 0.2797 0.0
C122 C 0.88659 0.43842 0.24865 0.0
O123 O 0.87985 0.38521 0.21898 0.0
O124 O 0.85719 0.39288 0.2423 0.0
O125 O 0.88201 0.42848 0.26519 0.0
O126 O 0.89326 0.42727 0.23379 0.0
C127 C 0.9333 0.39547 0.25173 0.0
O128 O 0.88111 0.38607 0.28371 0.0
O129 O 0.89056 0.36307 0.26137 0.0
In130 In 0.60448 0.89949 0.24567 0.0
O131 O 0.61647 0.88964 0.27797 0.0
O132 O 0.63883 0.8981 0.25486 0.0
C133 C 0.56279 0.89381 0.25045 0.0
C134 C 0.60682 0.94156 0.24261 0.0
C135 C 0.61256 0.87176 0.21494 0.0
O136 O 0.57576 0.8885 0.26438 0.0
O137 O 0.57088 0.90186 0.23436 0.0
O138 O 0.61466 0.89124 0.21252 0.0
O139 O 0.60661 0.86624 0.23295 0.0
C140 C 0.63554 0.89221 0.2734 0.0
O141 O 0.61089 0.92961 0.22743 0.0
O142 O 0.60158 0.93228 0.25923 0.0
In143 In 0.10399 0.60335 0.25048 0.0
O144 O 0.11043 0.57144 0.26628 0.0
O145 O 0.10423 0.57258 0.23354 0.0
C146 C 0.10813 0.63476 0.27826 0.0
C147 C 0.13638 0.61286 0.22555 0.0
C148 C 0.0623 0.60506 0.24505 0.0
O149 O 0.11143 0.61591 0.2835 0.0
O150 O 0.10297 0.63733 0.25939 0.0
O151 O 0.07496 0.61109 0.23105 0.0
O152 O 0.07076 0.5983 0.26157 0.0
C153 C 0.10833 0.56141 0.24926 0.0
O154 O 0.11757 0.61482 0.21964 0.0
O155 O 0.13872 0.60636 0.24408 0.0
In156 In 0.39473 0.89517 0.75879 0.0
O157 O 0.38513 0.88469 0.79162 0.0
O158 O 0.39359 0.8613 0.76947 0.0
C159 C 0.38969 0.93701 0.76066 0.0
C160 C 0.437 0.89326 0.75773 0.0
C161 C 0.36484 0.88701 0.73002 0.0
O162 O 0.38465 0.9252 0.77571 0.0
O163 O 0.39715 0.92766 0.74495 0.0
O164 O 0.38415 0.88566 0.72579 0.0
O165 O 0.36083 0.89193 0.74872 0.0
C166 C 0.38783 0.86545 0.78791 0.0
O167 O 0.42594 0.88668 0.74264 0.0
O168 O 0.4267 0.90056 0.77288 0.0
In169 In 0.10871 0.39556 0.75213 0.0
O170 O 0.11547 0.42465 0.73202 0.0
O171 O 0.10477 0.42904 0.76319 0.0
C172 C 0.11516 0.36408 0.72467 0.0
C173 C 0.14055 0.39065 0.77957 0.0
C174 C 0.06692 0.39118 0.75716 0.0
O175 O 0.11761 0.38308 0.71975 0.0
O176 O 0.10983 0.36105 0.74344 0.0
O177 O 0.07967 0.387 0.77171 0.0
O178 O 0.07534 0.39737 0.74041 0.0
C179 C 0.11038 0.43743 0.74623 0.0
O180 O 0.12162 0.38837 0.78487 0.0
O181 O 0.14328 0.39512 0.76054 0.0
In182 In 0.60018 0.10629 0.74941 0.0
O183 O 0.60744 0.07659 0.76796 0.0
O184 O 0.59784 0.0733 0.73629 0.0
C185 C 0.6055 0.135 0.77986 0.0
C186 C 0.63271 0.11379 0.72357 0.0
C187 C 0.55863 0.11032 0.74276 0.0
O188 O 0.60723 0.1156 0.78311 0.0
O189 O 0.60133 0.13992 0.76119 0.0
O190 O 0.57192 0.11556 0.72907 0.0
O191 O 0.56637 0.10328 0.75947 0.0
C192 C 0.60343 0.06436 0.75296 0.0
O193 O 0.61393 0.11582 0.7177 0.0
O194 O 0.63493 0.10841 0.74241 0.0
In195 In 0.88998 0.60146 0.74777 0.0
O196 O 0.92184 0.60814 0.76322 0.0
O197 O 0.92099 0.59618 0.73209 0.0
C198 C 0.86037 0.60962 0.77647 0.0
C199 C 0.88431 0.63339 0.72119 0.0
C200 C 0.88464 0.55986 0.74418 0.0
O201 O 0.87965 0.60958 0.78113 0.0
O202 O 0.85633 0.60577 0.75752 0.0
O203 O 0.87971 0.57226 0.72957 0.0
O204 O 0.89181 0.56857 0.76042 0.0
C205 C 0.93205 0.60232 0.74725 0.0
O206 O 0.87981 0.61472 0.71628 0.0
O207 O 0.89116 0.63584 0.73958 0.0
In208 In 0.25516 0.39654 0.10888 0.0
O209 O 0.28904 0.38853 0.11672 0.0
O210 O 0.26781 0.36338 0.11139 0.0
C211 C 0.25741 0.43837 0.11369 0.0
C212 C 0.25077 0.39267 0.06691 0.0
C213 C 0.22703 0.38842 0.13939 0.0
O214 O 0.27246 0.42646 0.1183 0.0
O215 O 0.24139 0.42917 0.10667 0.0
O216 O 0.22239 0.38736 0.1202 0.0
O217 O 0.24588 0.39306 0.14307 0.0
C218 C 0.2863 0.36899 0.11566 0.0
O219 O 0.23746 0.38527 0.07955 0.0
O220 O 0.26606 0.40178 0.07547 0.0
In221 In 0.24147 0.60758 0.89841 0.0
O222 O 0.25681 0.57625 0.88968 0.0
O223 O 0.22629 0.57593 0.90297 0.0
C224 C 0.27132 0.63607 0.88938 0.0
C225 C 0.21167 0.61603 0.86999 0.0
C226 C 0.23974 0.61213 0.94024 0.0
O227 O 0.27455 0.61663 0.88775 0.0
O228 O 0.2531 0.64093 0.8952 0.0
O229 O 0.22515 0.61824 0.9284 0.0
O230 O 0.2551 0.60396 0.93093 0.0
C231 C 0.24137 0.56544 0.89581 0.0
O232 O 0.20902 0.61906 0.88934 0.0
O233 O 0.22946 0.60903 0.86502 0.0
In234 In 0.38875 0.24226 0.89646 0.0
O235 O 0.38048 0.22399 0.92613 0.0
O236 O 0.39173 0.25516 0.9294 0.0
C237 C 0.38045 0.21278 0.86745 0.0
C238 C 0.35875 0.2711 0.88937 0.0
C239 C 0.43089 0.24453 0.89285 0.0
O240 O 0.37796 0.20965 0.88679 0.0
O241 O 0.38681 0.23091 0.86274 0.0
O242 O 0.41923 0.25956 0.88748 0.0
O243 O 0.42125 0.22876 0.89977 0.0
C244 C 0.38532 0.23876 0.93835 0.0
O245 O 0.37799 0.27516 0.88698 0.0
O246 O 0.35482 0.25255 0.89486 0.0
In247 In 0.75659 0.3909 0.89621 0.0
O248 O 0.78934 0.37862 0.88866 0.0
O249 O 0.76943 0.38654 0.86326 0.0
C250 C 0.75683 0.38531 0.93809 0.0
C251 C 0.75968 0.43293 0.89325 0.0
C252 C 0.72264 0.36773 0.88602 0.0
O253 O 0.76987 0.3764 0.92623 0.0
O254 O 0.74369 0.39667 0.92877 0.0
O255 O 0.72264 0.38746 0.88544 0.0
O256 O 0.73986 0.35969 0.89139 0.0
C257 C 0.78716 0.38012 0.8691 0.0
O258 O 0.74441 0.42288 0.88568 0.0
O259 O 0.77334 0.42177 0.90204 0.0
In260 In 0.61057 0.75148 0.8914 0.0
O261 O 0.62259 0.71948 0.88115 0.0
O262 O 0.64475 0.74262 0.89086 0.0
C263 C 0.56865 0.75086 0.88801 0.0
C264 C 0.61278 0.75047 0.93337 0.0
C265 C 0.61796 0.77902 0.86057 0.0
O266 O 0.57966 0.73529 0.88265 0.0
O267 O 0.57887 0.76637 0.89481 0.0
O268 O 0.61962 0.78416 0.87967 0.0
O269 O 0.61308 0.76012 0.85736 0.0
C270 C 0.64159 0.72414 0.88453 0.0
O271 O 0.61853 0.76652 0.9232 0.0
O272 O 0.6061 0.73551 0.92231 0.0
In273 In 0.74849 0.60202 0.10577 0.0
O274 O 0.76584 0.61414 0.07675 0.0
O275 O 0.73719 0.59758 0.07257 0.0
C276 C 0.77481 0.61144 0.13727 0.0
C277 C 0.71649 0.62862 0.11213 0.0
C278 C 0.75102 0.56002 0.10839 0.0
O279 O 0.77989 0.61377 0.11829 0.0
O280 O 0.75641 0.60483 0.14022 0.0
O281 O 0.73471 0.56978 0.11387 0.0
O282 O 0.7657 0.57145 0.10177 0.0
C283 C 0.75238 0.60696 0.0641 0.0
O284 O 0.71407 0.60898 0.11297 0.0
O285 O 0.73499 0.6346 0.10846 0.0
In286 In 0.39888 0.74661 0.09988 0.0
O287 O 0.39029 0.77863 0.1135 0.0
O288 O 0.39913 0.75423 0.13441 0.0
C289 C 0.39592 0.75034 0.05798 0.0
C290 C 0.44064 0.74187 0.10248 0.0
C291 C 0.36634 0.72081 0.10671 0.0
O292 O 0.39224 0.76561 0.07006 0.0
O293 O 0.40085 0.73356 0.06713 0.0
O294 O 0.38509 0.7149 0.10915 0.0
O295 O 0.36423 0.73956 0.10091 0.0
C296 C 0.39339 0.77298 0.13224 0.0
O297 O 0.42819 0.72701 0.10665 0.0
O298 O 0.43194 0.75877 0.09719 0.0
In299 In 0.60492 0.24319 0.09682 0.0
O300 O 0.57669 0.2629 0.10712 0.0
O301 O 0.57118 0.2323 0.09526 0.0
C302 C 0.63701 0.26956 0.10439 0.0
C303 C 0.61196 0.21277 0.1251 0.0
C304 C 0.60659 0.24159 0.05469 0.0
O305 O 0.6182 0.27443 0.1081 0.0
O306 O 0.63954 0.25139 0.09708 0.0
O307 O 0.61112 0.22599 0.06594 0.0
O308 O 0.60135 0.25776 0.06472 0.0
C309 C 0.56344 0.24891 0.10255 0.0
O310 O 0.61261 0.20937 0.10564 0.0
O311 O 0.60801 0.23145 0.13013 0.0
In312 In 0.89491 0.7434 0.59758 0.0
O313 O 0.88487 0.727 0.56748 0.0
O314 O 0.89539 0.75859 0.56553 0.0
C315 C 0.88748 0.71303 0.6257 0.0
C316 C 0.8652 0.77146 0.60798 0.0
C317 C 0.93722 0.74406 0.59843 0.0
O318 O 0.88399 0.71062 0.60639 0.0
O319 O 0.89468 0.73075 0.63076 0.0
O320 O 0.92652 0.75852 0.60668 0.0
O321 O 0.92656 0.72968 0.59008 0.0
C322 C 0.88863 0.74264 0.55599 0.0
O323 O 0.8845 0.77602 0.60859 0.0
O324 O 0.86122 0.75293 0.60244 0.0
In325 In 0.25743 0.89061 0.6028 0.0
O326 O 0.23807 0.919 0.61349 0.0
O327 O 0.26698 0.92458 0.5981 0.0
C328 C 0.22983 0.85926 0.61014 0.0
C329 C 0.28786 0.88481 0.63171 0.0
C330 C 0.26091 0.88676 0.56077 0.0
O331 O 0.22493 0.87833 0.61175 0.0
O332 O 0.24868 0.85606 0.6052 0.0
O333 O 0.27596 0.88285 0.57298 0.0
O334 O 0.24431 0.89246 0.56979 0.0
C335 C 0.25098 0.93233 0.60662 0.0
O336 O 0.29121 0.88334 0.6123 0.0
O337 O 0.26915 0.88897 0.6365 0.0
In338 In 0.11143 0.25485 0.59944 0.0
O339 O 0.12101 0.27151 0.56909 0.0
O340 O 0.10778 0.24102 0.56692 0.0
C341 C 0.11888 0.28478 0.62834 0.0
C342 C 0.14083 0.22571 0.60799 0.0
C343 C 0.06927 0.25383 0.60225 0.0
O344 O 0.1221 0.28764 0.60904 0.0
O345 O 0.11233 0.26672 0.63303 0.0
O346 O 0.08045 0.2388 0.60862 0.0
O347 O 0.07939 0.26902 0.59474 0.0
C348 C 0.11514 0.25666 0.55738 0.0
O349 O 0.12146 0.22179 0.60937 0.0
O350 O 0.14515 0.24425 0.6027 0.0
In351 In 0.74876 0.10379 0.60605 0.0
O352 O 0.76202 0.07234 0.61744 0.0
O353 O 0.73343 0.07252 0.60027 0.0
C354 C 0.77709 0.13318 0.6166 0.0
C355 C 0.71696 0.11297 0.63197 0.0
C356 C 0.75298 0.10671 0.56428 0.0
O357 O 0.78088 0.11384 0.61859 0.0
O358 O 0.75904 0.13743 0.60981 0.0
O359 O 0.73671 0.11307 0.5736 0.0
O360 O 0.76686 0.09909 0.57605 0.0
C361 C 0.74715 0.06182 0.60955 0.0
O362 O 0.71546 0.11511 0.61235 0.0
O363 O 0.73452 0.10651 0.63835 0.0
In364 In 0.89151 0.25731 0.40301 0.0
O365 O 0.88083 0.29081 0.39593 0.0
O366 O 0.88895 0.27065 0.37057 0.0
C367 C 0.88965 0.25136 0.44461 0.0
C368 C 0.93337 0.25813 0.39883 0.0
C369 C 0.86116 0.23021 0.39245 0.0
O370 O 0.88407 0.26851 0.43639 0.0
O371 O 0.89588 0.23766 0.43185 0.0
O372 O 0.88034 0.22603 0.38973 0.0
O373 O 0.8575 0.24806 0.40011 0.0
C374 C 0.8829 0.28855 0.37634 0.0
O375 O 0.92241 0.24343 0.39121 0.0
O376 O 0.92314 0.27209 0.4083 0.0
In377 In 0.74322 0.8978 0.3993 0.0
O378 O 0.72833 0.88453 0.4292 0.0
O379 O 0.75753 0.90036 0.43167 0.0
C380 C 0.7135 0.88929 0.37051 0.0
C381 C 0.77513 0.87266 0.38805 0.0
C382 C 0.74167 0.93997 0.39829 0.0
O383 O 0.71077 0.88581 0.38977 0.0
O384 O 0.73123 0.8967 0.36588 0.0
O385 O 0.75679 0.92984 0.39061 0.0
O386 O 0.72747 0.92883 0.4063 0.0
C387 C 0.74293 0.89086 0.44098 0.0
O388 O 0.77683 0.89235 0.38842 0.0
O389 O 0.75731 0.86574 0.39315 0.0
In390 In 0.09991 0.75263 0.39493 0.0
O391 O 0.11141 0.71924 0.38881 0.0
O392 O 0.10216 0.73777 0.36276 0.0
C393 C 0.10422 0.75627 0.43673 0.0
C394 C 0.05777 0.75113 0.39234 0.0
C395 C 0.12743 0.78266 0.38367 0.0
O396 O 0.11086 0.74047 0.42686 0.0
O397 O 0.09564 0.77001 0.4255 0.0
O398 O 0.10787 0.7851 0.38191 0.0
O399 O 0.13294 0.76497 0.39047 0.0
C400 C 0.10875 0.72032 0.36924 0.0
O401 O 0.06823 0.7656 0.38376 0.0
O402 O 0.06859 0.73772 0.40192 0.0
In403 In 0.24554 0.10186 0.38975 0.0
O404 O 0.26503 0.10965 0.41883 0.0
O405 O 0.23313 0.10081 0.4229 0.0
C406 C 0.27309 0.10751 0.35846 0.0
C407 C 0.2191 0.13377 0.38254 0.0
C408 C 0.24077 0.05995 0.38748 0.0
O409 O 0.27802 0.1103 0.37742 0.0
O410 O 0.25434 0.10201 0.35542 0.0
O411 O 0.2261 0.07232 0.38269 0.0
O412 O 0.25748 0.06878 0.39327 0.0
C413 C 0.25011 0.10632 0.4314 0.0
O414 O 0.2134 0.11487 0.38081 0.0
O415 O 0.23801 0.13636 0.38765 0.0
In416 In 0.60301 0.89781 0.74611 0.0
O417 O 0.61184 0.8918 0.7802 0.0
O418 O 0.6072 0.86552 0.76016 0.0
C419 C 0.60338 0.93988 0.74374 0.0
C420 C 0.56129 0.89117 0.74344 0.0
C421 C 0.63601 0.88989 0.72104 0.0
O422 O 0.60845 0.93026 0.76025 0.0
O423 O 0.59828 0.92826 0.72859 0.0
O424 O 0.61742 0.8859 0.71535 0.0
O425 O 0.63768 0.89751 0.73917 0.0
C426 C 0.61165 0.87211 0.77828 0.0
O427 O 0.57361 0.88528 0.72908 0.0
O428 O 0.57013 0.9 0.75874 0.0
In429 In 0.09827 0.60416 0.75017 0.0
O430 O 0.10603 0.61604 0.71709 0.0
O431 O 0.10003 0.63821 0.74128 0.0
C432 C 0.10052 0.56206 0.75096 0.0
C433 C 0.05662 0.60784 0.75468 0.0
C434 C 0.13053 0.61163 0.77595 0.0
O435 O 0.10528 0.57229 0.73463 0.0
O436 O 0.09477 0.5731 0.76626 0.0
O437 O 0.11177 0.61506 0.78128 0.0
O438 O 0.13289 0.60471 0.75758 0.0
C439 C 0.10451 0.63512 0.72231 0.0
O440 O 0.0692 0.61312 0.76906 0.0
O441 O 0.06516 0.60099 0.73823 0.0
In442 In 0.39183 0.10282 0.74424 0.0
O443 O 0.42386 0.11103 0.72972 0.0
O444 O 0.42244 0.09947 0.76101 0.0
C445 C 0.3607 0.10965 0.7169 0.0
C446 C 0.3838 0.13389 0.77125 0.0
C447 C 0.38964 0.06084 0.74471 0.0
O448 O 0.37972 0.1124 0.71183 0.0
O449 O 0.35777 0.10379 0.73554 0.0
O450 O 0.38388 0.07171 0.76026 0.0
O451 O 0.3962 0.07123 0.72924 0.0
C452 C 0.43375 0.10593 0.74617 0.0
O453 O 0.38073 0.11486 0.77595 0.0
O454 O 0.39052 0.13704 0.75292 0.0
In455 In 0.89995 0.39414 0.74918 0.0
O456 O 0.89017 0.42565 0.73513 0.0
O457 O 0.90195 0.42493 0.76633 0.0
C458 C 0.89328 0.36546 0.71923 0.0
C459 C 0.86917 0.38343 0.7758 0.0
C460 C 0.9421 0.39291 0.74872 0.0
O461 O 0.88985 0.38474 0.71624 0.0
O462 O 0.89982 0.36084 0.73731 0.0
O463 O 0.93175 0.38605 0.7642 0.0
O464 O 0.93115 0.40019 0.73401 0.0
C465 C 0.8948 0.43582 0.7515 0.0
O466 O 0.8883 0.38183 0.78085 0.0
O467 O 0.86593 0.39 0.75747 0.0
In468 In 0.60449 0.10796 0.25335 0.0
O469 O 0.57537 0.11802 0.27184 0.0
O470 O 0.57154 0.1057 0.24107 0.0
C471 C 0.63731 0.11501 0.27858 0.0
C472 C 0.61136 0.13715 0.22394 0.0
C473 C 0.60551 0.06589 0.25396 0.0
O474 O 0.6187 0.11874 0.28428 0.0
O475 O 0.63919 0.1081 0.26016 0.0
O476 O 0.61019 0.07617 0.23767 0.0
O477 O 0.60049 0.07688 0.26956 0.0
C478 C 0.56291 0.11299 0.25726 0.0
O479 O 0.6125 0.11778 0.21989 0.0
O480 O 0.60707 0.14153 0.24272 0.0
In481 In 0.89549 0.60382 0.25007 0.0
O482 O 0.92796 0.60818 0.23535 0.0
O483 O 0.926 0.59743 0.26679 0.0
C484 C 0.86903 0.61208 0.21842 0.0
C485 C 0.88899 0.63719 0.27485 0.0
C486 C 0.88701 0.56283 0.25497 0.0
O487 O 0.88868 0.61176 0.21591 0.0
O488 O 0.86293 0.60845 0.23686 0.0
O489 O 0.88309 0.57601 0.26921 0.0
O490 O 0.89489 0.57046 0.23855 0.0
C491 C 0.9376 0.60238 0.25162 0.0
O492 O 0.88395 0.61886 0.28041 0.0
O493 O 0.89698 0.63853 0.25685 0.0
In494 In 0.39571 0.89263 0.24684 0.0
O495 O 0.38245 0.92199 0.23132 0.0
O496 O 0.39945 0.92552 0.25971 0.0
C497 C 0.38694 0.86441 0.2167 0.0
C498 C 0.36999 0.88302 0.27907 0.0
C499 C 0.43792 0.89181 0.2442 0.0
O500 O 0.38286 0.88363 0.21482 0.0
O501 O 0.39487 0.85932 0.23408 0.0
O502 O 0.42833 0.88455 0.25992 0.0
O503 O 0.42623 0.89919 0.23015 0.0
C504 C 0.38955 0.93429 0.24508 0.0
O505 O 0.3897 0.88237 0.28076 0.0
O506 O 0.36347 0.88791 0.2611 0.0
In507 In 0.10013 0.39518 0.24655 0.0
O508 O 0.11025 0.38111 0.27799 0.0
O509 O 0.09984 0.36044 0.25408 0.0
C510 C 0.10607 0.43657 0.25354 0.0
C511 C 0.058 0.39342 0.24223 0.0
C512 C 0.12906 0.38833 0.21655 0.0
O513 O 0.10815 0.42316 0.26789 0.0
O514 O 0.10114 0.42905 0.23596 0.0
O515 O 0.10963 0.3881 0.2129 0.0
O516 O 0.1339 0.39183 0.2354 0.0
C517 C 0.10645 0.36246 0.27256 0.0
O518 O 0.07031 0.3887 0.22753 0.0
O519 O 0.06696 0.39908 0.2589 0.0
In520 In 0.74868 0.59871 0.89756 0.0
O521 O 0.71659 0.60787 0.88482 0.0
O522 O 0.73697 0.63214 0.89526 0.0
C523 C 0.74771 0.557 0.89119 0.0
C524 C 0.74606 0.6009 0.93962 0.0
C525 C 0.78057 0.60843 0.87173 0.0
O526 O 0.73329 0.56891 0.88483 0.0
O527 O 0.76248 0.56617 0.9006 0.0
O528 O 0.78283 0.60794 0.89137 0.0
O529 O 0.7623 0.60438 0.86538 0.0
C530 C 0.71936 0.62724 0.88767 0.0
O531 O 0.76144 0.6085 0.92973 0.0
O532 O 0.73231 0.59238 0.92828 0.0
In533 In 0.74654 0.39391 0.10437 0.0
O534 O 0.72941 0.4229 0.11662 0.0
O535 O 0.75924 0.42702 0.10243 0.0
C536 C 0.71724 0.36459 0.11249 0.0
C537 C 0.77862 0.3849 0.13035 0.0
C538 C 0.74554 0.39252 0.06217 0.0
O539 O 0.71456 0.3837 0.11671 0.0
O540 O 0.73485 0.36027 0.10465 0.0
O541 O 0.76014 0.38421 0.07258 0.0
O542 O 0.7317 0.40139 0.07305 0.0
C543 C 0.74364 0.43548 0.11106 0.0
O544 O 0.78084 0.38572 0.11073 0.0
O545 O 0.76022 0.38824 0.13671 0.0
In546 In 0.60732 0.75294 0.09935 0.0
O547 O 0.6179 0.77218 0.07089 0.0
O548 O 0.60655 0.74119 0.06605 0.0
C549 C 0.61272 0.77876 0.1321 0.0
C550 C 0.63699 0.72424 0.10736 0.0
C551 C 0.56516 0.75247 0.0994 0.0
O552 O 0.61715 0.78421 0.11358 0.0
O553 O 0.60592 0.76029 0.13397 0.0
O554 O 0.57565 0.7365 0.10461 0.0
O555 O 0.57599 0.76817 0.09427 0.0
C556 C 0.61368 0.75776 0.05798 0.0
O557 O 0.61772 0.71956 0.10732 0.0
O558 O 0.64101 0.74321 0.10355 0.0
In559 In 0.24918 0.60411 0.10628 0.0
O560 O 0.21687 0.61737 0.11363 0.0
O561 O 0.23664 0.60889 0.13908 0.0
C562 C 0.25062 0.60609 0.06426 0.0
C563 C 0.24632 0.56239 0.11107 0.0
C564 C 0.28079 0.63062 0.11482 0.0
O565 O 0.23576 0.61408 0.07458 0.0
O566 O 0.2645 0.5973 0.07515 0.0
O567 O 0.28214 0.6112 0.1183 0.0
O568 O 0.26339 0.63655 0.10761 0.0
C569 C 0.2191 0.61585 0.13322 0.0
O570 O 0.26225 0.57257 0.11699 0.0
O571 O 0.23199 0.57329 0.10304 0.0
In572 In 0.39659 0.24631 0.10423 0.0
O573 O 0.38691 0.2316 0.07294 0.0
O574 O 0.39927 0.26269 0.07329 0.0
C575 C 0.38906 0.21949 0.13553 0.0
C576 C 0.36641 0.27397 0.11296 0.0
C577 C 0.43856 0.24404 0.10499 0.0
O578 O 0.38571 0.21453 0.1166 0.0
O579 O 0.39601 0.23782 0.13836 0.0
O580 O 0.42906 0.26032 0.11119 0.0
O581 O 0.42685 0.22938 0.09874 0.0
C582 C 0.39204 0.24773 0.06256 0.0
O583 O 0.38563 0.27866 0.11486 0.0
O584 O 0.36275 0.25546 0.10701 0.0
In585 In 0.25487 0.39973 0.89988 0.0
O586 O 0.24146 0.39089 0.93218 0.0
O587 O 0.27122 0.40577 0.93076 0.0
C588 C 0.22309 0.39109 0.87332 0.0
C589 C 0.2836 0.37033 0.89033 0.0
C590 C 0.25629 0.44153 0.89422 0.0
O591 O 0.22103 0.38978 0.89296 0.0
O592 O 0.24118 0.39628 0.86726 0.0
O593 O 0.27091 0.42968 0.88815 0.0
O594 O 0.24119 0.43224 0.90296 0.0
C595 C 0.25706 0.39803 0.94212 0.0
O596 O 0.28689 0.38962 0.88747 0.0
O597 O 0.26575 0.36595 0.89764 0.0
In598 In 0.59651 0.25974 0.88931 0.0
O599 O 0.60418 0.22693 0.87763 0.0
O600 O 0.59701 0.25056 0.85514 0.0
C601 C 0.59952 0.25856 0.93123 0.0
C602 C 0.55456 0.26266 0.88647 0.0
C603 C 0.63032 0.28389 0.88237 0.0
O604 O 0.60334 0.24265 0.92005 0.0
O605 O 0.59428 0.27473 0.9212 0.0
O606 O 0.61191 0.29098 0.8802 0.0
O607 O 0.63132 0.26488 0.88763 0.0
C608 C 0.60183 0.23169 0.85854 0.0
O609 O 0.56633 0.27772 0.88101 0.0
O610 O 0.56406 0.24672 0.89313 0.0
In611 In 0.40301 0.73665 0.89156 0.0
O612 O 0.39265 0.76951 0.88168 0.0
O613 O 0.40005 0.74736 0.85792 0.0
C614 C 0.40098 0.73726 0.93377 0.0
C615 C 0.44482 0.73485 0.88639 0.0
C616 C 0.37293 0.70805 0.88407 0.0
O617 O 0.39541 0.75283 0.92289 0.0
O618 O 0.4074 0.72181 0.92333 0.0
O619 O 0.39213 0.70407 0.88143 0.0
O620 O 0.36905 0.72644 0.89012 0.0
C621 C 0.39435 0.76574 0.86232 0.0
O622 O 0.433 0.71974 0.88143 0.0
O623 O 0.4355 0.75057 0.89381 0.0
H624 H 0.11652 0.36297 0.31405 0.0
H625 H 0.10043 0.3214 0.26322 0.0
H626 H 0.10069 0.29163 0.28705 0.0
H627 H 0.10347 0.27763 0.32256 0.0
H628 H 0.1189 0.31891 0.37379 0.0
H629 H 0.12107 0.34851 0.34958 0.0
C630 C 0.11326 0.34736 0.30819 0.0
C631 C 0.10835 0.34443 0.28692 0.0
C632 C 0.11324 0.33027 0.32206 0.0
C633 C 0.10417 0.32411 0.27953 0.0
C634 C 0.10429 0.30706 0.29316 0.0
C635 C 0.10747 0.29307 0.32842 0.0
C636 C 0.11091 0.29609 0.34994 0.0
C637 C 0.10849 0.31 0.31448 0.0
C638 C 0.11614 0.31618 0.35728 0.0
C639 C 0.11734 0.33312 0.34346 0.0
H640 H 0.72216 0.11106 0.32835 0.0
H641 H 0.68096 0.12663 0.37953 0.0
H642 H 0.65151 0.12953 0.35529 0.0
H643 H 0.63706 0.12531 0.31985 0.0
H644 H 0.67832 0.10906 0.2689 0.0
H645 H 0.70817 0.10894 0.29272 0.0
C646 C 0.70677 0.11526 0.33417 0.0
C647 C 0.70369 0.11848 0.35568 0.0
C648 C 0.68991 0.11672 0.32019 0.0
C649 C 0.6837 0.124 0.36301 0.0
C650 C 0.66685 0.12563 0.34917 0.0
C651 C 0.65262 0.12197 0.31395 0.0
C652 C 0.65547 0.11707 0.29271 0.0
C653 C 0.6697 0.12168 0.32778 0.0
C654 C 0.67571 0.11278 0.28524 0.0
C655 C 0.69279 0.11267 0.29884 0.0
H656 H 0.89105 0.72335 0.32244 0.0
H657 H 0.87365 0.68365 0.37423 0.0
H658 H 0.87212 0.65337 0.35081 0.0
H659 H 0.87758 0.63792 0.31588 0.0
H660 H 0.89587 0.67784 0.26453 0.0
H661 H 0.89507 0.7083 0.2875 0.0
C662 C 0.88677 0.7081 0.32858 0.0
C663 C 0.88256 0.7057 0.35002 0.0
C664 C 0.88614 0.69079 0.31512 0.0
C665 C 0.87702 0.68587 0.35776 0.0
C666 C 0.87616 0.66855 0.3444 0.0
C667 C 0.88119 0.65332 0.30971 0.0
C668 C 0.88685 0.65562 0.28858 0.0
C669 C 0.88096 0.67079 0.32309 0.0
C670 C 0.89154 0.67565 0.28077 0.0
C671 C 0.89111 0.69309 0.29389 0.0
H672 H 0.32771 0.88389 0.27816 0.0
H673 H 0.37994 0.87594 0.3202 0.0
H674 H 0.35591 0.8748 0.35007 0.0
H675 H 0.32003 0.87848 0.36437 0.0
H676 H 0.26836 0.88726 0.32169 0.0
H677 H 0.29217 0.88557 0.29201 0.0
C678 C 0.33386 0.8817 0.29383 0.0
C679 C 0.35557 0.88011 0.29696 0.0
C680 C 0.32003 0.88134 0.31087 0.0
C681 C 0.36327 0.87722 0.31737 0.0
C682 C 0.34954 0.87664 0.33446 0.0
C683 C 0.31401 0.87981 0.34856 0.0
C684 C 0.29247 0.88313 0.34527 0.0
C685 C 0.32789 0.87905 0.33143 0.0
C686 C 0.28488 0.88483 0.32469 0.0
C687 C 0.29848 0.88387 0.30767 0.0
H688 H 0.11165 0.63354 0.68011 0.0
H689 H 0.10298 0.6765 0.73155 0.0
H690 H 0.10503 0.70608 0.70766 0.0
H691 H 0.10762 0.71986 0.67208 0.0
H692 H 0.11602 0.67741 0.62026 0.0
H693 H 0.11589 0.64763 0.64432 0.0
C694 C 0.11035 0.64938 0.68606 0.0
C695 C 0.10704 0.65278 0.70755 0.0
C696 C 0.11144 0.66645 0.67217 0.0
C697 C 0.10543 0.67341 0.71506 0.0
C698 C 0.10659 0.69038 0.70141 0.0
C699 C 0.10957 0.7041 0.66606 0.0
C700 C 0.11173 0.70084 0.64444 0.0
C701 C 0.10934 0.68709 0.67993 0.0
C702 C 0.11431 0.68034 0.63687 0.0
C703 C 0.11419 0.66329 0.65061 0.0
H704 H 0.27639 0.10743 0.66618 0.0
H705 H 0.31841 0.11925 0.61467 0.0
H706 H 0.34795 0.12176 0.63903 0.0
H707 H 0.3621 0.1181 0.67493 0.0
H708 H 0.31942 0.10597 0.72593 0.0
H709 H 0.28993 0.10619 0.70183 0.0
C710 C 0.29198 0.11073 0.66028 0.0
C711 C 0.29525 0.11298 0.63868 0.0
C712 C 0.30882 0.11199 0.6743 0.0
C713 C 0.31551 0.11742 0.63127 0.0
C714 C 0.33241 0.11878 0.64518 0.0
C715 C 0.34632 0.11573 0.68074 0.0
C716 C 0.343 0.11184 0.70216 0.0
C717 C 0.32931 0.11573 0.66672 0.0
C718 C 0.32245 0.10885 0.7095 0.0
C719 C 0.30554 0.10896 0.69574 0.0
H720 H 0.8857 0.30892 0.63864 0.0
H721 H 0.90419 0.26165 0.68315 0.0
H722 H 0.90353 0.28751 0.71127 0.0
H723 H 0.89956 0.32379 0.72285 0.0
H724 H 0.88172 0.3714 0.67846 0.0
H725 H 0.88015 0.34512 0.65062 0.0
C726 C 0.88942 0.30427 0.65452 0.0
C727 C 0.89508 0.28344 0.6588 0.0
C728 C 0.88921 0.31927 0.67059 0.0
C729 C 0.89985 0.2776 0.67945 0.0
C730 C 0.89951 0.29238 0.69553 0.0
C731 C 0.89519 0.32841 0.70711 0.0
C732 C 0.89087 0.34951 0.70268 0.0
C733 C 0.8945 0.31329 0.69122 0.0
C734 C 0.88516 0.35525 0.68224 0.0
C735 C 0.8843 0.34024 0.66633 0.0
H736 H 0.72305 0.88971 0.67486 0.0
H737 H 0.68353 0.87691 0.62159 0.0
H738 H 0.6528 0.87535 0.64443 0.0
H739 H 0.63686 0.88003 0.67939 0.0
H740 H 0.67681 0.89372 0.7322 0.0
H741 H 0.70758 0.8924 0.70974 0.0
C742 C 0.70775 0.88638 0.66826 0.0
C743 C 0.70556 0.88354 0.64657 0.0
C744 C 0.69016 0.88577 0.68142 0.0
C745 C 0.68562 0.87919 0.63826 0.0
C746 C 0.66803 0.87835 0.6513 0.0
C747 C 0.65233 0.88249 0.68598 0.0
C748 C 0.65451 0.88709 0.7074 0.0
C749 C 0.67006 0.88197 0.67288 0.0
C750 C 0.67466 0.89027 0.71573 0.0
C751 C 0.6923 0.88953 0.7029 0.0
H752 H 0.32703 0.10543 0.27623 0.0
H753 H 0.376 0.1221 0.31975 0.0
H754 H 0.35034 0.12384 0.34816 0.0
H755 H 0.31429 0.11832 0.36094 0.0
H756 H 0.26574 0.10117 0.31707 0.0
H757 H 0.29097 0.10198 0.28846 0.0
C758 C 0.33208 0.10963 0.2919 0.0
C759 C 0.35336 0.11349 0.29594 0.0
C760 C 0.31734 0.11038 0.30811 0.0
C761 C 0.35967 0.11903 0.31627 0.0
C762 C 0.34503 0.11995 0.33252 0.0
C763 C 0.30924 0.11492 0.34509 0.0
C764 C 0.28823 0.10954 0.34114 0.0
C765 C 0.32387 0.11529 0.32868 0.0
C766 C 0.28185 0.10526 0.32053 0.0
C767 C 0.29626 0.1057 0.30416 0.0
H768 H 0.88385 0.28528 0.33436 0.0
H769 H 0.87513 0.3301 0.38409 0.0
H770 H 0.87337 0.35851 0.35835 0.0
H771 H 0.87671 0.37069 0.32168 0.0
H772 H 0.88624 0.32516 0.27263 0.0
H773 H 0.88519 0.29695 0.29817 0.0
C774 C 0.88141 0.30125 0.3396 0.0
C775 C 0.87978 0.30562 0.36108 0.0
C776 C 0.88065 0.31739 0.32483 0.0
C777 C 0.87647 0.32635 0.36761 0.0
C778 C 0.87552 0.34259 0.35291 0.0
C779 C 0.87834 0.35457 0.31661 0.0
C780 C 0.88169 0.35004 0.29532 0.0
C781 C 0.87795 0.33832 0.33148 0.0
C782 C 0.88378 0.3291 0.28894 0.0
C783 C 0.88319 0.31293 0.30353 0.0
H784 H 0.71712 0.89394 0.32861 0.0
H785 H 0.67263 0.87808 0.3769 0.0
H786 H 0.64458 0.87633 0.35083 0.0
H787 H 0.63239 0.88157 0.31457 0.0
H788 H 0.67719 0.89778 0.26663 0.0
H789 H 0.70544 0.89701 0.2923 0.0
C790 C 0.70131 0.88993 0.33342 0.0
C791 C 0.69691 0.8863 0.35465 0.0
C792 C 0.68531 0.88911 0.31842 0.0
C793 C 0.67639 0.881 0.36064 0.0
C794 C 0.66035 0.88005 0.34575 0.0
C795 C 0.64837 0.88474 0.30973 0.0
C796 C 0.65267 0.88987 0.28876 0.0
C797 C 0.66457 0.88442 0.32464 0.0
C798 C 0.67345 0.89388 0.28269 0.0
C799 C 0.68962 0.89347 0.29736 0.0
H800 H 0.11662 0.63447 0.32039 0.0
H801 H 0.10257 0.6756 0.26867 0.0
H802 H 0.10267 0.70561 0.29204 0.0
H803 H 0.10508 0.7202 0.32717 0.0
H804 H 0.11879 0.67989 0.37949 0.0
H805 H 0.12068 0.64966 0.35592 0.0
C806 C 0.11372 0.65003 0.31427 0.0
C807 C 0.10948 0.65273 0.29283 0.0
C808 C 0.11371 0.6674 0.32789 0.0
C809 C 0.10579 0.67301 0.28511 0.0
C810 C 0.10583 0.69024 0.29846 0.0
C811 C 0.10864 0.70483 0.33343 0.0
C812 C 0.1117 0.70227 0.35503 0.0
C813 C 0.10953 0.6876 0.31988 0.0
C814 C 0.11637 0.68226 0.36288 0.0
C815 C 0.11738 0.66497 0.34943 0.0
H816 H 0.36915 0.88055 0.68801 0.0
H817 H 0.32282 0.88827 0.73657 0.0
H818 H 0.29492 0.88736 0.71054 0.0
H819 H 0.28368 0.88624 0.6739 0.0
H820 H 0.32971 0.87887 0.62505 0.0
H821 H 0.35765 0.87769 0.65123 0.0
C822 C 0.35293 0.88182 0.69288 0.0
C823 C 0.34809 0.88455 0.71419 0.0
C824 C 0.33689 0.88147 0.67777 0.0
C825 C 0.327 0.88621 0.72027 0.0
C826 C 0.31101 0.88573 0.70539 0.0
C827 C 0.29982 0.88425 0.66898 0.0
C828 C 0.30462 0.88276 0.64757 0.0
C829 C 0.31578 0.88367 0.68408 0.0
C830 C 0.32559 0.8801 0.64145 0.0
C831 C 0.34159 0.87944 0.65641 0.0
H832 H 0.1255 0.36665 0.68339 0.0
H833 H 0.10914 0.32253 0.73186 0.0
H834 H 0.10989 0.29396 0.70651 0.0
H835 H 0.11341 0.28172 0.67031 0.0
H836 H 0.12954 0.32566 0.62163 0.0
H837 H 0.1308 0.35403 0.64732 0.0
C838 C 0.12226 0.35075 0.68841 0.0
C839 C 0.11718 0.34674 0.70945 0.0
C840 C 0.12261 0.33437 0.67371 0.0
C841 C 0.11305 0.32606 0.71575 0.0
C842 C 0.11344 0.3097 0.70125 0.0
C843 C 0.11736 0.29748 0.66534 0.0
C844 C 0.12128 0.3016 0.64409 0.0
C845 C 0.11793 0.31371 0.68016 0.0
C846 C 0.12643 0.32208 0.63791 0.0
C847 C 0.12711 0.33832 0.65258 0.0
H848 H 0.71783 0.11146 0.67422 0.0
H849 H 0.67634 0.12222 0.62204 0.0
H850 H 0.64655 0.12486 0.646 0.0
H851 H 0.63206 0.12173 0.68167 0.0
H852 H 0.67393 0.11049 0.7335 0.0
H853 H 0.70381 0.11057 0.70978 0.0
C854 C 0.70229 0.11455 0.66808 0.0
C855 C 0.69925 0.11648 0.6464 0.0
C856 C 0.6853 0.11589 0.68189 0.0
C857 C 0.67907 0.12062 0.63869 0.0
C858 C 0.66203 0.12208 0.65237 0.0
C859 C 0.64775 0.11953 0.68776 0.0
C860 C 0.65076 0.11597 0.70927 0.0
C861 C 0.66491 0.11939 0.67398 0.0
C862 C 0.67118 0.11316 0.71698 0.0
C863 C 0.68829 0.11317 0.70344 0.0
H864 H 0.89227 0.71556 0.66768 0.0
H865 H 0.87485 0.67285 0.61828 0.0
H866 H 0.87096 0.64456 0.64376 0.0
H867 H 0.87434 0.63161 0.67986 0.0
H868 H 0.89224 0.67447 0.729 0.0
H869 H 0.89392 0.70311 0.70384 0.0
C870 C 0.88751 0.70009 0.6625 0.0
C871 C 0.88399 0.69624 0.64115 0.0
C872 C 0.8854 0.68394 0.67718 0.0
C873 C 0.87773 0.67616 0.63466 0.0
C874 C 0.87551 0.65999 0.64921 0.0
C875 C 0.87839 0.64727 0.68507 0.0
C876 C 0.88325 0.65091 0.70622 0.0
C877 C 0.87955 0.66364 0.67048 0.0
C878 C 0.88849 0.67126 0.71278 0.0
C879 C 0.8895 0.68764 0.6984 0.0
H880 H 0.28351 0.32676 0.11529 0.0
H881 H 0.32788 0.37743 0.12142 0.0
H882 H 0.35675 0.35237 0.12265 0.0
H883 H 0.3695 0.31604 0.11967 0.0
H884 H 0.32473 0.26573 0.11295 0.0
H885 H 0.29596 0.29063 0.11445 0.0
C886 C 0.29949 0.33231 0.11705 0.0
C887 C 0.30358 0.35388 0.11811 0.0
C888 C 0.31597 0.31787 0.11759 0.0
C889 C 0.32434 0.36087 0.12051 0.0
C890 C 0.34086 0.34655 0.12118 0.0
C891 C 0.35343 0.31055 0.11878 0.0
C892 C 0.34926 0.28911 0.11606 0.0
C893 C 0.33688 0.32502 0.1194 0.0
C894 C 0.32837 0.28218 0.11491 0.0
C895 C 0.31188 0.29641 0.11575 0.0
H896 H 0.33119 0.71425 0.88673 0.0
H897 H 0.37734 0.6662 0.87613 0.0
H898 H 0.3497 0.63956 0.87546 0.0
H899 H 0.31257 0.62979 0.88029 0.0
H900 H 0.26688 0.67825 0.89136 0.0
H901 H 0.29419 0.70487 0.88931 0.0
C902 C 0.3352 0.69797 0.8841 0.0
C903 C 0.35626 0.69217 0.88164 0.0
C904 C 0.31931 0.6828 0.88391 0.0
C905 C 0.36121 0.67104 0.87811 0.0
C906 C 0.34543 0.65581 0.87778 0.0
C907 C 0.3086 0.64619 0.88204 0.0
C908 C 0.28776 0.65202 0.88612 0.0
C909 C 0.32445 0.66147 0.88102 0.0
C910 C 0.28281 0.67334 0.88831 0.0
C911 C 0.29842 0.68858 0.88717 0.0
H912 H 0.27877 0.32834 0.8931 0.0
H913 H 0.32467 0.37612 0.87962 0.0
H914 H 0.35196 0.34944 0.87681 0.0
H915 H 0.36313 0.31265 0.88046 0.0
H916 H 0.3169 0.26521 0.89421 0.0
H917 H 0.28941 0.29161 0.89448 0.0
C918 C 0.29472 0.33291 0.88938 0.0
C919 C 0.29973 0.35417 0.88672 0.0
C920 C 0.3103 0.31754 0.88791 0.0
C921 C 0.32042 0.35984 0.88178 0.0
C922 C 0.33605 0.3446 0.88022 0.0
C923 C 0.34701 0.30809 0.8833 0.0
C924 C 0.3421 0.28702 0.88745 0.0
C925 C 0.33123 0.32342 0.88359 0.0
C926 C 0.32112 0.28133 0.89106 0.0
C927 C 0.30538 0.29642 0.89126 0.0
H928 H 0.63322 0.32624 0.87679 0.0
H929 H 0.6705 0.27038 0.88372 0.0
H930 H 0.7024 0.29131 0.88412 0.0
H931 H 0.71966 0.32548 0.88498 0.0
H932 H 0.6829 0.38166 0.87851 0.0
H933 H 0.65095 0.36065 0.87531 0.0
C934 C 0.64835 0.31867 0.87814 0.0
C935 C 0.64945 0.29681 0.88037 0.0
C936 C 0.66675 0.33086 0.87858 0.0
C937 C 0.66917 0.2872 0.8821 0.0
C938 C 0.68746 0.29915 0.88237 0.0
C939 C 0.70468 0.33313 0.88269 0.0
C940 C 0.70362 0.35507 0.88214 0.0
C941 C 0.68642 0.32099 0.88101 0.0
C942 C 0.68411 0.36476 0.87904 0.0
C943 C 0.66583 0.35276 0.87726 0.0
H944 H 0.72299 0.66932 0.89061 0.0
H945 H 0.67886 0.62029 0.87566 0.0
H946 H 0.65098 0.64621 0.87184 0.0
H947 H 0.63871 0.68263 0.87513 0.0
H948 H 0.6831 0.73134 0.89054 0.0
H949 H 0.71132 0.70574 0.89162 0.0
C950 C 0.7073 0.66432 0.88635 0.0
C951 C 0.70294 0.64294 0.88358 0.0
C952 C 0.69138 0.67925 0.88433 0.0
C953 C 0.68259 0.63669 0.87794 0.0
C954 C 0.66663 0.65148 0.8758 0.0
C955 C 0.65461 0.68764 0.87848 0.0
C956 C 0.65878 0.70881 0.88289 0.0
C957 C 0.67078 0.67278 0.8793 0.0
C958 C 0.67945 0.71511 0.88719 0.0
C959 C 0.69561 0.70048 0.88785 0.0
H960 H 0.63327 0.68187 0.11206 0.0
H961 H 0.67867 0.73203 0.10979 0.0
H962 H 0.70712 0.70687 0.11239 0.0
H963 H 0.71927 0.67074 0.11321 0.0
H964 H 0.67451 0.62009 0.11502 0.0
H965 H 0.64565 0.64531 0.11489 0.0
C966 C 0.64939 0.68726 0.11232 0.0
C967 C 0.65384 0.70877 0.11058 0.0
C968 C 0.66578 0.67264 0.11366 0.0
C969 C 0.6748 0.71555 0.11098 0.0
C970 C 0.69111 0.70118 0.11246 0.0
C971 C 0.7032 0.66519 0.11373 0.0
C972 C 0.69901 0.64361 0.11398 0.0
C973 C 0.68679 0.67971 0.11347 0.0
C974 C 0.67812 0.63666 0.11479 0.0
C975 C 0.66163 0.65107 0.11465 0.0
H976 H 0.36641 0.67984 0.11861 0.0
H977 H 0.32537 0.73057 0.10127 0.0
H978 H 0.29513 0.70739 0.10379 0.0
H979 H 0.28054 0.67243 0.10884 0.0
H980 H 0.32113 0.62125 0.12573 0.0
H981 H 0.35133 0.64495 0.12572 0.0
C982 C 0.35082 0.68581 0.11553 0.0
C983 C 0.34815 0.70683 0.10961 0.0
C984 C 0.33344 0.67235 0.11691 0.0
C985 C 0.32787 0.71442 0.10576 0.0
C986 C 0.31055 0.70118 0.10719 0.0
C987 C 0.29596 0.66648 0.11273 0.0
C988 C 0.29865 0.64513 0.11716 0.0
C989 C 0.31319 0.68008 0.11245 0.0
C990 C 0.31869 0.63766 0.12224 0.0
C991 C 0.33596 0.65117 0.12216 0.0
H992 H 0.71987 0.32309 0.10436 0.0
H993 H 0.67709 0.37066 0.12583 0.0
H994 H 0.64856 0.34506 0.1264 0.0
H995 H 0.63534 0.30969 0.11852 0.0
H996 H 0.67825 0.26241 0.09656 0.0
H997 H 0.70718 0.28735 0.09856 0.0
C998 C 0.70435 0.32781 0.10936 0.0
C999 C 0.70055 0.34874 0.11492 0.0
C1000 C 0.68802 0.31309 0.10944 0.0
C1001 C 0.68039 0.35462 0.12144 0.0
C1002 C 0.66406 0.34002 0.1217 0.0
C1003 C 0.65106 0.30482 0.11435 0.0
C1004 C 0.65463 0.2843 0.10726 0.0
C1005 C 0.66762 0.31929 0.11538 0.0
C1006 C 0.67508 0.27816 0.10197 0.0
C1007 C 0.69163 0.29241 0.10309 0.0
H1008 H 0.6152 0.83001 0.7766 0.0
H1009 H 0.61666 0.88204 0.81964 0.0
H1010 H 0.6204 0.85783 0.84909 0.0
H1011 H 0.62092 0.82162 0.8627 0.0
H1012 H 0.61893 0.76997 0.81914 0.0
H1013 H 0.61796 0.79429 0.78984 0.0
C1014 C 0.61647 0.83608 0.79241 0.0
C1015 C 0.61548 0.85774 0.79597 0.0
C1016 C 0.61851 0.82212 0.8092 0.0
C1017 C 0.61731 0.86538 0.81652 0.0
C1018 C 0.61943 0.85156 0.83336 0.0
C1019 C 0.62055 0.81574 0.84678 0.0
C1020 C 0.61986 0.79404 0.84311 0.0
C1021 C 0.61972 0.82986 0.82991 0.0
C1022 C 0.61935 0.78661 0.82241 0.0
C1023 C 0.61875 0.8005 0.80561 0.0
H1024 H 0.21396 0.60991 0.82816 0.0
H1025 H 0.17154 0.6287 0.87723 0.0
H1026 H 0.14278 0.63039 0.85204 0.0
H1027 H 0.12926 0.62414 0.81655 0.0
H1028 H 0.17173 0.60469 0.76776 0.0
H1029 H 0.20094 0.60578 0.79236 0.0
C1030 C 0.19846 0.61456 0.83331 0.0
C1031 C 0.19482 0.61902 0.85452 0.0
C1032 C 0.182 0.61529 0.81882 0.0
C1033 C 0.1747 0.62512 0.86097 0.0
C1034 C 0.15825 0.62604 0.84659 0.0
C1035 C 0.14495 0.62034 0.81128 0.0
C1036 C 0.14832 0.6142 0.79044 0.0
C1037 C 0.16164 0.62079 0.82555 0.0
C1038 C 0.16872 0.60938 0.78377 0.0
C1039 C 0.18543 0.60996 0.79782 0.0
H1040 H 0.37295 0.13122 0.81236 0.0
H1041 H 0.38903 0.17547 0.76391 0.0
H1042 H 0.38808 0.20402 0.78922 0.0
H1043 H 0.38501 0.21612 0.82545 0.0
H1044 H 0.36949 0.17202 0.87419 0.0
H1045 H 0.36774 0.14376 0.84843 0.0
C1046 C 0.37602 0.14714 0.80733 0.0
C1047 C 0.38118 0.1512 0.78634 0.0
C1048 C 0.37566 0.1635 0.82203 0.0
C1049 C 0.38511 0.17191 0.78001 0.0
C1050 C 0.38461 0.18826 0.79448 0.0
C1051 C 0.38106 0.20036 0.83041 0.0
C1052 C 0.37752 0.19613 0.85168 0.0
C1053 C 0.38027 0.18419 0.81557 0.0
C1054 C 0.37234 0.17566 0.85788 0.0
C1055 C 0.37138 0.15948 0.84318 0.0
H1056 H 0.87121 0.37465 0.81761 0.0
H1057 H 0.8277 0.38386 0.76673 0.0
H1058 H 0.79836 0.38188 0.79098 0.0
H1059 H 0.78515 0.38059 0.82683 0.0
H1060 H 0.8282 0.37193 0.87811 0.0
H1061 H 0.85755 0.37041 0.85354 0.0
C1062 C 0.85529 0.37593 0.81183 0.0
C1063 C 0.85167 0.3796 0.79044 0.0
C1064 C 0.8384 0.37501 0.82594 0.0
C1065 C 0.83095 0.38119 0.78316 0.0
C1066 C 0.81413 0.38009 0.79701 0.0
C1067 C 0.80093 0.37813 0.83262 0.0
C1068 C 0.80453 0.37656 0.85424 0.0
C1069 C 0.81769 0.37749 0.81847 0.0
C1070 C 0.82503 0.37324 0.86151 0.0
C1071 C 0.84183 0.37244 0.84748 0.0
H1072 H 0.61218 0.21739 0.16709 0.0
H1073 H 0.61731 0.1708 0.11848 0.0
H1074 H 0.61883 0.14312 0.14491 0.0
H1075 H 0.61666 0.13212 0.18189 0.0
H1076 H 0.61098 0.17916 0.23008 0.0
H1077 H 0.61183 0.2067 0.20375 0.0
C1078 C 0.61378 0.20119 0.16227 0.0
C1079 C 0.61451 0.19612 0.14089 0.0
C1080 C 0.61447 0.18543 0.17748 0.0
C1081 C 0.61667 0.17508 0.13487 0.0
C1082 C 0.6175 0.15925 0.14996 0.0
C1083 C 0.61581 0.14841 0.1866 0.0
C1084 C 0.61364 0.15359 0.20788 0.0
C1085 C 0.61611 0.16423 0.17132 0.0
C1086 C 0.61256 0.17475 0.21379 0.0
C1087 C 0.61302 0.19053 0.19875 0.0
H1088 H 0.82678 0.61273 0.22075 0.0
H1089 H 0.87797 0.61828 0.17703 0.0
H1090 H 0.85311 0.62039 0.14795 0.0
H1091 H 0.81685 0.61807 0.13486 0.0
H1092 H 0.76599 0.61133 0.17885 0.0
H1093 H 0.7907 0.61247 0.20795 0.0
C1094 C 0.83251 0.61458 0.20488 0.0
C1095 C 0.85416 0.6152 0.20101 0.0
C1096 C 0.81818 0.61551 0.18829 0.0
C1097 C 0.86135 0.61769 0.18038 0.0
C1098 C 0.84715 0.61886 0.16376 0.0
C1099 C 0.81119 0.61713 0.15083 0.0
C1100 C 0.78966 0.61451 0.15471 0.0
C1101 C 0.82553 0.61742 0.16751 0.0
C1102 C 0.78251 0.61325 0.17546 0.0
C1103 C 0.79663 0.61386 0.19211 0.0
H1104 H 0.38048 0.81364 0.13224 0.0
H1105 H 0.40151 0.76408 0.17298 0.0
H1106 H 0.40005 0.78765 0.20294 0.0
H1107 H 0.39468 0.82274 0.21733 0.0
H1108 H 0.37377 0.87255 0.17689 0.0
H1109 H 0.37309 0.84846 0.14716 0.0
C1110 C 0.38462 0.808 0.1477 0.0
C1111 C 0.39125 0.78721 0.15035 0.0
C1112 C 0.38378 0.82167 0.16493 0.0
C1113 C 0.39645 0.78006 0.17049 0.0
C1114 C 0.39563 0.79352 0.18766 0.0
C1115 C 0.38977 0.82828 0.20206 0.0
C1116 C 0.38439 0.84939 0.19929 0.0
C1117 C 0.38958 0.81441 0.18502 0.0
C1118 C 0.37801 0.85634 0.17942 0.0
C1119 C 0.37769 0.8426 0.16239 0.0
H1120 H 0.18501 0.38249 0.13537 0.0
H1121 H 0.23402 0.38943 0.1814 0.0
H1122 H 0.20808 0.38892 0.20944 0.0
H1123 H 0.17137 0.38862 0.22079 0.0
H1124 H 0.12222 0.38228 0.17484 0.0
H1125 H 0.14829 0.38035 0.14691 0.0
C1126 C 0.19001 0.38367 0.15156 0.0
C1127 C 0.21139 0.38608 0.15629 0.0
C1128 C 0.17498 0.38361 0.16762 0.0
C1129 C 0.21764 0.38761 0.17733 0.0
C1130 C 0.20282 0.38737 0.19338 0.0
C1131 C 0.16637 0.38667 0.20468 0.0
C1132 C 0.1449 0.38572 0.19988 0.0
C1133 C 0.18143 0.38572 0.1887 0.0
C1134 C 0.13867 0.38312 0.17894 0.0
C1135 C 0.15356 0.38204 0.16295 0.0
H1136 H 0.77796 0.61309 0.82989 0.0
H1137 H 0.82245 0.61132 0.88066 0.0
H1138 H 0.85144 0.61313 0.8556 0.0
H1139 H 0.86399 0.61241 0.81898 0.0
H1140 H 0.81885 0.61346 0.76866 0.0
H1141 H 0.79028 0.61488 0.79385 0.0
C1142 C 0.794 0.6133 0.83551 0.0
C1143 C 0.79809 0.61189 0.85705 0.0
C1144 C 0.81047 0.6141 0.82107 0.0
C1145 C 0.81893 0.61235 0.86411 0.0
C1146 C 0.83549 0.6133 0.84979 0.0
C1147 C 0.8479 0.61319 0.81358 0.0
C1148 C 0.84353 0.61264 0.792 0.0
C1149 C 0.83145 0.61376 0.82819 0.0
C1150 C 0.82263 0.6137 0.78519 0.0
C1151 C 0.80626 0.6145 0.79957 0.0
H1152 H 0.39148 0.82359 0.78269 0.0
H1153 H 0.37983 0.87071 0.82963 0.0
H1154 H 0.37961 0.8438 0.85688 0.0
H1155 H 0.3849 0.80705 0.86754 0.0
H1156 H 0.39692 0.76032 0.82025 0.0
H1157 H 0.3947 0.78689 0.79299 0.0
C1158 C 0.38872 0.82797 0.79886 0.0
C1159 C 0.3858 0.84911 0.80415 0.0
C1160 C 0.38877 0.81248 0.81441 0.0
C1161 C 0.38215 0.85452 0.82516 0.0
C1162 C 0.38208 0.83916 0.84075 0.0
C1163 C 0.38684 0.80268 0.85125 0.0
C1164 C 0.3912 0.78177 0.84595 0.0
C1165 C 0.3857 0.81811 0.83559 0.0
C1166 C 0.39364 0.77632 0.82477 0.0
C1167 C 0.3924 0.79151 0.80915 0.0
H1168 H 0.22469 0.39295 0.83105 0.0
H1169 H 0.18196 0.38289 0.88236 0.0
H1170 H 0.15258 0.38087 0.85779 0.0
H1171 H 0.13887 0.38381 0.82173 0.0
H1172 H 0.18202 0.39436 0.7708 0.0
H1173 H 0.21136 0.39427 0.79521 0.0
C1174 C 0.20897 0.39016 0.83687 0.0
C1175 C 0.2055 0.38816 0.8585 0.0
C1176 C 0.1922 0.3892 0.82271 0.0
C1177 C 0.18504 0.3845 0.86577 0.0
C1178 C 0.16823 0.3834 0.85174 0.0
C1179 C 0.15471 0.38593 0.81599 0.0
C1180 C 0.15823 0.38919 0.79449 0.0
C1181 C 0.17159 0.38601 0.83017 0.0
C1182 C 0.17885 0.3919 0.78727 0.0
C1183 C 0.19567 0.39187 0.80122 0.0
H1184 H 0.60168 0.17709 0.77643 0.0
H1185 H 0.61312 0.12796 0.82128 0.0
H1186 H 0.6139 0.15368 0.84961 0.0
H1187 H 0.6098 0.19 0.8618 0.0
H1188 H 0.59791 0.23891 0.81679 0.0
H1189 H 0.59893 0.21341 0.78839 0.0
C1190 C 0.60447 0.17202 0.79239 0.0
C1191 C 0.60725 0.15067 0.79677 0.0
C1192 C 0.60475 0.18685 0.80859 0.0
C1193 C 0.61089 0.14433 0.81752 0.0
C1194 C 0.61131 0.15902 0.83373 0.0
C1195 C 0.60757 0.19507 0.84576 0.0
C1196 C 0.6037 0.21628 0.84142 0.0
C1197 C 0.60803 0.1803 0.82947 0.0
C1198 C 0.60085 0.22265 0.82056 0.0
C1199 C 0.60141 0.20809 0.80429 0.0
H1200 H 0.86313 0.38152 0.1815 0.0
H1201 H 0.81926 0.38403 0.23282 0.0
H1202 H 0.79003 0.38202 0.2084 0.0
H1203 H 0.77683 0.38236 0.17253 0.0
H1204 H 0.8202 0.38086 0.1208 0.0
H1205 H 0.84968 0.37948 0.14527 0.0
C1206 C 0.84717 0.38134 0.1873 0.0
C1207 C 0.84337 0.38307 0.20891 0.0
C1208 C 0.83034 0.38051 0.1731 0.0
C1209 C 0.82261 0.38286 0.21624 0.0
C1210 C 0.80586 0.38174 0.20229 0.0
C1211 C 0.79272 0.38153 0.16659 0.0
C1212 C 0.79634 0.38187 0.14491 0.0
C1213 C 0.80953 0.38101 0.1807 0.0
C1214 C 0.81701 0.38067 0.13745 0.0
C1215 C 0.83388 0.37994 0.15143 0.0
H1216 H 0.60726 0.82969 0.21626 0.0
H1217 H 0.62491 0.88014 0.17495 0.0
H1218 H 0.62777 0.85554 0.14579 0.0
H1219 H 0.62334 0.81999 0.13164 0.0
H1220 H 0.60496 0.76979 0.17297 0.0
H1221 H 0.60443 0.79398 0.20252 0.0
C1222 C 0.61188 0.83527 0.20091 0.0
C1223 C 0.61576 0.85669 0.19773 0.0
C1224 C 0.6133 0.8211 0.1842 0.0
C1225 C 0.62178 0.86371 0.17777 0.0
C1226 C 0.62339 0.84967 0.16109 0.0
C1227 C 0.61941 0.81433 0.14715 0.0
C1228 C 0.61411 0.79318 0.1501 0.0
C1229 C 0.61891 0.82837 0.16406 0.0
C1230 C 0.60904 0.78604 0.17028 0.0
C1231 C 0.6087 0.79986 0.18719 0.0
H1232 H 0.13532 0.62348 0.18437 0.0
H1233 H 0.17776 0.60983 0.23514 0.0
H1234 H 0.20744 0.61158 0.21118 0.0
H1235 H 0.22096 0.61384 0.17544 0.0
H1236 H 0.17867 0.62658 0.12435 0.0
H1237 H 0.14932 0.62859 0.14885 0.0
C1238 C 0.15109 0.62114 0.19021 0.0
C1239 C 0.15433 0.61633 0.21143 0.0
C1240 C 0.16809 0.62191 0.17629 0.0
C1241 C 0.17485 0.61342 0.21883 0.0
C1242 C 0.19183 0.61438 0.20514 0.0
C1243 C 0.20536 0.61731 0.16968 0.0
C1244 C 0.20193 0.61986 0.14812 0.0
C1245 C 0.18857 0.61813 0.18378 0.0
C1246 C 0.18168 0.62448 0.1409 0.0
C1247 C 0.16489 0.62556 0.15488 0.0
H1248 H 0.38004 0.17772 0.13394 0.0
H1249 H 0.39171 0.22867 0.17684 0.0
H1250 H 0.39019 0.20461 0.20632 0.0
H1251 H 0.38815 0.16898 0.21977 0.0
H1252 H 0.37746 0.11747 0.17738 0.0
H1253 H 0.37574 0.14187 0.14788 0.0
C1254 C 0.38202 0.18354 0.14977 0.0
C1255 C 0.38615 0.2049 0.15319 0.0
C1256 C 0.38138 0.16953 0.16673 0.0
C1257 C 0.38867 0.21226 0.17377 0.0
C1258 C 0.38781 0.19853 0.19066 0.0
C1259 C 0.38523 0.16309 0.20411 0.0
C1260 C 0.38308 0.14147 0.20072 0.0
C1261 C 0.38457 0.17711 0.18729 0.0
C1262 C 0.3792 0.13407 0.18037 0.0
C1263 C 0.37829 0.148 0.1635 0.0
H1264 H 0.86892 0.81314 0.61698 0.0
H1265 H 0.82339 0.76388 0.60796 0.0
H1266 H 0.79499 0.78903 0.61122 0.0
H1267 H 0.78305 0.82524 0.61403 0.0
H1268 H 0.82811 0.87491 0.6227 0.0
H1269 H 0.85666 0.84941 0.62242 0.0
C1270 C 0.85278 0.80792 0.61595 0.0
C1271 C 0.8483 0.78671 0.61205 0.0
C1272 C 0.83642 0.82254 0.6177 0.0
C1273 C 0.8273 0.78014 0.61082 0.0
C1274 C 0.81101 0.79452 0.61267 0.0
C1275 C 0.7991 0.83047 0.61608 0.0
C1276 C 0.80348 0.85192 0.61822 0.0
C1277 C 0.81539 0.81579 0.6157 0.0
C1278 C 0.82434 0.85846 0.62099 0.0
C1279 C 0.84067 0.84389 0.62075 0.0
H1280 H 0.86484 0.18845 0.38483 0.0
H1281 H 0.81938 0.23785 0.39182 0.0
H1282 H 0.79093 0.2124 0.38969 0.0
H1283 H 0.77908 0.17602 0.38883 0.0
H1284 H 0.82423 0.12622 0.38313 0.0
H1285 H 0.85269 0.1519 0.38162 0.0
C1286 C 0.84869 0.19363 0.38558 0.0
C1287 C 0.8442 0.21495 0.38861 0.0
C1288 C 0.83238 0.17884 0.38476 0.0
C1289 C 0.82323 0.22148 0.38963 0.0
C1290 C 0.80695 0.20695 0.38845 0.0
C1291 C 0.79513 0.17078 0.38705 0.0
C1292 C 0.79958 0.14928 0.38626 0.0
C1293 C 0.81136 0.18557 0.3865 0.0
C1294 C 0.82043 0.14272 0.38385 0.0
C1295 C 0.8367 0.15738 0.38303 0.0
H1296 H 0.77415 0.83049 0.38431 0.0
H1297 H 0.81598 0.88353 0.38123 0.0
H1298 H 0.84586 0.86005 0.37678 0.0
H1299 H 0.86032 0.82428 0.37673 0.0
H1300 H 0.81818 0.77149 0.3806 0.0
H1301 H 0.78821 0.79502 0.38152 0.0
C1302 C 0.78978 0.83692 0.38247 0.0
C1303 C 0.79289 0.85868 0.3833 0.0
C1304 C 0.80685 0.82336 0.38012 0.0
C1305 C 0.8132 0.86681 0.38073 0.0
C1306 C 0.83029 0.85339 0.37823 0.0
C1307 C 0.84455 0.81796 0.37745 0.0
C1308 C 0.84148 0.7962 0.37876 0.0
C1309 C 0.82735 0.83162 0.37832 0.0
C1310 C 0.82097 0.7882 0.37971 0.0
C1311 C 0.80381 0.80164 0.38029 0.0
H1312 H 0.16962 0.77987 0.38514 0.0
H1313 H 0.11951 0.82373 0.37439 0.0
H1314 H 0.14487 0.85251 0.37273 0.0
H1315 H 0.18115 0.86546 0.37715 0.0
H1316 H 0.23076 0.82112 0.38857 0.0
H1317 H 0.20575 0.79232 0.38705 0.0
C1318 C 0.16425 0.7957 0.38221 0.0
C1319 C 0.14273 0.79969 0.38004 0.0
C1320 C 0.17883 0.81212 0.38154 0.0
C1321 C 0.13602 0.82026 0.37613 0.0
C1322 C 0.1505 0.83673 0.37527 0.0
C1323 C 0.18647 0.84948 0.37908 0.0
C1324 C 0.20775 0.84547 0.38315 0.0
C1325 C 0.17192 0.8329 0.37838 0.0
C1326 C 0.21445 0.82467 0.38557 0.0
C1327 C 0.20016 0.80816 0.38471 0.0
H1328 H 0.17743 0.13254 0.37338 0.0
H1329 H 0.22847 0.17509 0.38627 0.0
H1330 H 0.20445 0.20466 0.38534 0.0
H1331 H 0.1687 0.2182 0.38334 0.0
H1332 H 0.11737 0.17594 0.37091 0.0
H1333 H 0.14176 0.14654 0.36896 0.0
C1334 C 0.18329 0.14831 0.37578 0.0
C1335 C 0.20465 0.1516 0.38006 0.0
C1336 C 0.16935 0.16529 0.37538 0.0
C1337 C 0.21206 0.17212 0.38306 0.0
C1338 C 0.19834 0.18905 0.38255 0.0
C1339 C 0.16287 0.20259 0.37999 0.0
C1340 C 0.14128 0.19921 0.37743 0.0
C1341 C 0.17692 0.18578 0.3791 0.0
C1342 C 0.13395 0.17892 0.37299 0.0
C1343 C 0.14787 0.1621 0.37194 0.0
H1344 H 0.22123 0.16909 0.60923 0.0
H1345 H 0.17486 0.12032 0.61571 0.0
H1346 H 0.14712 0.14671 0.61765 0.0
H1347 H 0.13593 0.18369 0.61471 0.0
H1348 H 0.18286 0.23193 0.60761 0.0
H1349 H 0.21046 0.20571 0.60882 0.0
C1350 C 0.20507 0.16421 0.61128 0.0
C1351 C 0.20009 0.14279 0.61217 0.0
C1352 C 0.18928 0.1794 0.61214 0.0
C1353 C 0.1791 0.13673 0.61497 0.0
C1354 C 0.16323 0.15181 0.61599 0.0
C1355 C 0.15221 0.18845 0.61367 0.0
C1356 C 0.15731 0.20973 0.6109 0.0
C1357 C 0.1681 0.1732 0.61417 0.0
C1358 C 0.17848 0.21566 0.60961 0.0
C1359 C 0.1943 0.20067 0.61028 0.0
H1360 H 0.81918 0.12852 0.62196 0.0
H1361 H 0.77037 0.17502 0.61879 0.0
H1362 H 0.79644 0.20291 0.62042 0.0
H1363 H 0.83306 0.21412 0.62004 0.0
H1364 H 0.88225 0.16799 0.622 0.0
H1365 H 0.85612 0.13995 0.62368 0.0
C1366 C 0.81428 0.14476 0.62194 0.0
C1367 C 0.7929 0.14971 0.62016 0.0
C1368 C 0.82942 0.16078 0.62249 0.0
C1369 C 0.78675 0.17081 0.62004 0.0
C1370 C 0.80164 0.18678 0.62094 0.0
C1371 C 0.83808 0.19794 0.62102 0.0
C1372 C 0.85953 0.19312 0.62075 0.0
C1373 C 0.82301 0.18195 0.62172 0.0
C1374 C 0.8658 0.17209 0.6221 0.0
C1375 C 0.85087 0.15605 0.62304 0.0
H1376 H 0.18805 0.86242 0.61806 0.0
H1377 H 0.23715 0.81738 0.6073 0.0
H1378 H 0.21158 0.78893 0.60828 0.0
H1379 H 0.17505 0.77701 0.61003 0.0
H1380 H 0.12577 0.82198 0.62017 0.0
H1381 H 0.15161 0.85024 0.62174 0.0
C1382 C 0.19317 0.84636 0.61612 0.0
C1383 C 0.21446 0.84204 0.6125 0.0
C1384 C 0.17833 0.83006 0.61651 0.0
C1385 C 0.22085 0.82115 0.61004 0.0
C1386 C 0.20623 0.80486 0.61056 0.0
C1387 C 0.16998 0.79297 0.61279 0.0
C1388 C 0.14851 0.79739 0.61488 0.0
C1389 C 0.1849 0.80915 0.61346 0.0
C1390 C 0.1422 0.81815 0.61847 0.0
C1391 C 0.15697 0.83433 0.61932 0.0
H1392 H 0.1193 0.27522 0.46022 0.0
H1393 H 0.0928 0.213 0.45839 0.0
H1394 H 0.0947 0.21077 0.49639 0.0
H1395 H 0.10284 0.22668 0.53017 0.0
H1396 H 0.12892 0.28898 0.53274 0.0
H1397 H 0.12833 0.29096 0.49445 0.0
C1398 C 0.11403 0.26117 0.46817 0.0
C1399 C 0.10586 0.24433 0.45649 0.0
C1400 C 0.11506 0.26 0.49014 0.0
C1401 C 0.0991 0.22621 0.46699 0.0
C1402 C 0.10017 0.2249 0.48874 0.0
C1403 C 0.1085 0.24067 0.52237 0.0
C1404 C 0.11588 0.25766 0.53426 0.0
C1405 C 0.10797 0.24173 0.50047 0.0
C1406 C 0.12316 0.27567 0.52392 0.0
C1407 C 0.12279 0.27682 0.50204 0.0
H1408 H 0.72528 0.12115 0.53525 0.0
H1409 H 0.78666 0.09375 0.54189 0.0
H1410 H 0.79095 0.09338 0.50401 0.0
H1411 H 0.77696 0.09978 0.46899 0.0
H1412 H 0.71557 0.12696 0.46188 0.0
H1413 H 0.71163 0.12856 0.49992 0.0
C1414 C 0.73961 0.1152 0.52838 0.0
C1415 C 0.75558 0.10743 0.54134 0.0
C1416 C 0.74197 0.11495 0.50651 0.0
C1417 C 0.77409 0.09978 0.53225 0.0
C1418 C 0.77657 0.09955 0.51058 0.0
C1419 C 0.76275 0.10614 0.47576 0.0
C1420 C 0.74656 0.11317 0.46268 0.0
C1421 C 0.76056 0.10693 0.49757 0.0
C1422 C 0.72826 0.12142 0.47166 0.0
C1423 C 0.72598 0.12231 0.4934 0.0
H1424 H 0.87904 0.72581 0.45916 0.0
H1425 H 0.89696 0.79097 0.45711 0.0
H1426 H 0.89773 0.79229 0.49523 0.0
H1427 H 0.89466 0.7747 0.52906 0.0
H1428 H 0.87701 0.70951 0.53151 0.0
H1429 H 0.87469 0.70845 0.49331 0.0
C1430 C 0.883 0.7403 0.46709 0.0
C1431 C 0.88803 0.75823 0.45535 0.0
C1432 C 0.88352 0.74094 0.48905 0.0
C1433 C 0.89309 0.77693 0.46579 0.0
C1434 C 0.89356 0.77771 0.48759 0.0
C1435 C 0.89021 0.76028 0.52124 0.0
C1436 C 0.8861 0.74219 0.53305 0.0
C1437 C 0.88901 0.75977 0.49936 0.0
C1438 C 0.88028 0.72364 0.52273 0.0
C1439 C 0.87898 0.72301 0.5009 0.0
H1440 H 0.28156 0.88051 0.464 0.0
H1441 H 0.21613 0.89708 0.46044 0.0
H1442 H 0.21368 0.89701 0.49841 0.0
H1443 H 0.23005 0.89328 0.53265 0.0
H1444 H 0.29541 0.87701 0.53716 0.0
H1445 H 0.29795 0.87588 0.4989 0.0
C1446 C 0.26678 0.88399 0.47158 0.0
C1447 C 0.24909 0.88886 0.45938 0.0
C1448 C 0.26545 0.88405 0.4936 0.0
C1449 C 0.23003 0.89336 0.46942 0.0
C1450 C 0.22858 0.89333 0.49117 0.0
C1451 C 0.24486 0.88942 0.52529 0.0
C1452 C 0.26252 0.8853 0.53771 0.0
C1453 C 0.24619 0.88887 0.5034 0.0
C1454 C 0.28157 0.88027 0.52792 0.0
C1455 C 0.28303 0.87964 0.50605 0.0
H1456 H 0.09857 0.77792 0.53267 0.0
H1457 H 0.12572 0.71639 0.53799 0.0
H1458 H 0.12724 0.71352 0.49982 0.0
H1459 H 0.1194 0.72803 0.46489 0.0
H1460 H 0.09189 0.7895 0.46012 0.0
H1461 H 0.09205 0.79287 0.4981 0.0
C1462 C 0.10492 0.76392 0.52549 0.0
C1463 C 0.11192 0.74736 0.53811 0.0
C1464 C 0.10563 0.76234 0.50362 0.0
C1465 C 0.12019 0.72935 0.52858 0.0
C1466 C 0.12103 0.72768 0.50677 0.0
C1467 C 0.11357 0.74219 0.47219 0.0
C1468 C 0.10556 0.75843 0.45971 0.0
C1469 C 0.11358 0.744 0.49412 0.0
C1470 C 0.09807 0.77672 0.46937 0.0
C1471 C 0.09814 0.77868 0.4911 0.0
H1472 H 0.21992 0.09993 0.46025 0.0
H1473 H 0.28506 0.11688 0.45396 0.0
H1474 H 0.28851 0.11857 0.49211 0.0
H1475 H 0.27314 0.1139 0.5273 0.0
H1476 H 0.20807 0.09622 0.53289 0.0
H1477 H 0.20445 0.09628 0.49494 0.0
C1478 C 0.23487 0.10407 0.4672 0.0
C1479 C 0.25223 0.10819 0.45434 0.0
C1480 C 0.23674 0.10487 0.48902 0.0
C1481 C 0.27147 0.1136 0.46357 0.0
C1482 C 0.27345 0.11455 0.48536 0.0
C1483 C 0.25815 0.11021 0.52017 0.0
C1484 C 0.24092 0.10499 0.53286 0.0
C1485 C 0.25622 0.11004 0.49826 0.0
C1486 C 0.2216 0.1002 0.52346 0.0
C1487 C 0.2195 0.10021 0.50175 0.0
H1488 H 0.89979 0.22038 0.53746 0.0
H1489 H 0.88241 0.28427 0.55048 0.0
H1490 H 0.87826 0.29097 0.51298 0.0
H1491 H 0.88099 0.27886 0.47628 0.0
H1492 H 0.89868 0.21482 0.46402 0.0
H1493 H 0.90117 0.20801 0.50138 0.0
C1494 C 0.89501 0.23576 0.53211 0.0
C1495 C 0.89153 0.25182 0.54668 0.0
C1496 C 0.89274 0.23949 0.51063 0.0
C1497 C 0.88523 0.27164 0.53953 0.0
C1498 C 0.88288 0.27549 0.5181 0.0
C1499 C 0.88524 0.26341 0.48183 0.0
C1500 C 0.88975 0.24743 0.46739 0.0
C1501 C 0.88679 0.25957 0.50347 0.0
C1502 C 0.89523 0.22745 0.47479 0.0
C1503 C 0.89668 0.22351 0.49618 0.0
H1504 H 0.77306 0.90285 0.46815 0.0
H1505 H 0.71238 0.87314 0.46538 0.0
H1506 H 0.71164 0.87073 0.50364 0.0
H1507 H 0.72787 0.8783 0.53798 0.0
H1508 H 0.78849 0.90834 0.54007 0.0
H1509 H 0.78962 0.90934 0.50197 0.0
C1510 C 0.7597 0.89575 0.47589 0.0
C1511 C 0.74277 0.88826 0.46397 0.0
C1512 C 0.75935 0.89454 0.49779 0.0
C1513 C 0.7256 0.87905 0.47423 0.0
C1514 C 0.72516 0.87771 0.49609 0.0
C1515 C 0.74135 0.88497 0.53006 0.0
C1516 C 0.75803 0.8933 0.54184 0.0
C1517 C 0.74188 0.88559 0.50805 0.0
C1518 C 0.77541 0.90187 0.53138 0.0
C1519 C 0.77608 0.90246 0.50959 0.0
H1520 H 0.46623 0.11874 0.27789 0.0
H1521 H 0.46283 0.09768 0.21374 0.0
H1522 H 0.50081 0.09897 0.211 0.0
H1523 H 0.53489 0.10458 0.22696 0.0
H1524 H 0.53937 0.12502 0.29116 0.0
H1525 H 0.50103 0.1256 0.29374 0.0
C1526 C 0.47384 0.11458 0.26331 0.0
C1527 C 0.46175 0.10803 0.24608 0.0
C1528 C 0.49583 0.11518 0.26186 0.0
C1529 C 0.47178 0.10267 0.22727 0.0
C1530 C 0.49351 0.1034 0.22566 0.0
C1531 C 0.52752 0.10926 0.24153 0.0
C1532 C 0.53991 0.11465 0.25888 0.0
C1533 C 0.50566 0.10939 0.2429 0.0
C1534 C 0.53012 0.12078 0.27759 0.0
C1535 C 0.50823 0.12107 0.27906 0.0
H1536 H 0.89065 0.53366 0.22485 0.0
H1537 H 0.87599 0.54099 0.29032 0.0
H1538 H 0.87343 0.50286 0.29416 0.0
H1539 H 0.8774 0.46729 0.27902 0.0
H1540 H 0.89253 0.46108 0.21344 0.0
H1541 H 0.89278 0.49891 0.20955 0.0
C1542 C 0.88677 0.52695 0.23997 0.0
C1543 C 0.88367 0.54007 0.25731 0.0
C1544 C 0.88549 0.50519 0.24204 0.0
C1545 C 0.87848 0.53116 0.27673 0.0
C1546 C 0.87708 0.50938 0.27893 0.0
C1547 C 0.88058 0.47427 0.26389 0.0
C1548 C 0.88509 0.46139 0.2466 0.0
C1549 C 0.88085 0.49621 0.26173 0.0
C1550 C 0.88915 0.47062 0.22705 0.0
C1551 C 0.8893 0.49227 0.22477 0.0
H1552 H 0.53325 0.90292 0.22168 0.0
H1553 H 0.54094 0.87879 0.28423 0.0
H1554 H 0.50286 0.87543 0.28781 0.0
H1555 H 0.46722 0.88018 0.27322 0.0
H1556 H 0.46039 0.90461 0.2106 0.0
H1557 H 0.49826 0.90693 0.207 0.0
C1558 C 0.52663 0.89688 0.23611 0.0
C1559 C 0.53988 0.89117 0.25268 0.0
C1560 C 0.50484 0.89505 0.23804 0.0
C1561 C 0.53104 0.88332 0.27124 0.0
C1562 C 0.50928 0.8814 0.27329 0.0
C1563 C 0.47407 0.88591 0.25878 0.0
C1564 C 0.46099 0.89226 0.24224 0.0
C1565 C 0.49599 0.88733 0.25681 0.0
C1566 C 0.47007 0.89967 0.22362 0.0
C1567 C 0.49175 0.90103 0.22152 0.0
H1568 H 0.11131 0.53195 0.28054 0.0
H1569 H 0.10872 0.53909 0.21338 0.0
H1570 H 0.10864 0.50135 0.20894 0.0
H1571 H 0.1076 0.46635 0.22378 0.0
H1572 H 0.11011 0.45795 0.29067 0.0
H1573 H 0.11202 0.49602 0.29556 0.0
C1574 C 0.1109 0.52519 0.26497 0.0
C1575 C 0.10986 0.53837 0.24734 0.0
C1576 C 0.11073 0.50324 0.26245 0.0
C1577 C 0.10936 0.52937 0.22725 0.0
C1578 C 0.10931 0.50775 0.22465 0.0
C1579 C 0.10864 0.47281 0.23945 0.0
C1580 C 0.10856 0.45938 0.25683 0.0
C1581 C 0.1097 0.49456 0.2421 0.0
C1582 C 0.11012 0.468 0.27702 0.0
C1583 C 0.11117 0.48975 0.27982 0.0
H1584 H 0.46392 0.88009 0.72685 0.0
H1585 H 0.46219 0.90578 0.78937 0.0
H1586 H 0.50021 0.90668 0.79048 0.0
H1587 H 0.53387 0.90118 0.77376 0.0
H1588 H 0.53694 0.8758 0.71129 0.0
H1589 H 0.49853 0.87365 0.71014 0.0
C1590 C 0.47192 0.8858 0.7407 0.0
C1591 C 0.46019 0.89292 0.75797 0.0
C1592 C 0.49401 0.88636 0.74127 0.0
C1593 C 0.47077 0.90026 0.77583 0.0
C1594 C 0.49255 0.90079 0.77652 0.0
C1595 C 0.5262 0.8951 0.75987 0.0
C1596 C 0.53823 0.88873 0.74261 0.0
C1597 C 0.5043 0.89403 0.75932 0.0
C1598 C 0.52801 0.88081 0.7248 0.0
C1599 C 0.50606 0.87963 0.72413 0.0
H1600 H 0.09884 0.46645 0.77456 0.0
H1601 H 0.12174 0.45999 0.71142 0.0
H1602 H 0.12081 0.49813 0.70701 0.0
H1603 H 0.11313 0.53349 0.72133 0.0
H1604 H 0.09007 0.53873 0.78466 0.0
H1605 H 0.09139 0.50098 0.78868 0.0
C1606 C 0.10369 0.47335 0.75982 0.0
C1607 C 0.11036 0.46042 0.74336 0.0
C1608 C 0.10303 0.49513 0.75741 0.0
C1609 C 0.11655 0.46963 0.72436 0.0
C1610 C 0.116 0.49143 0.72183 0.0
C1611 C 0.1084 0.52631 0.73597 0.0
C1612 C 0.10151 0.53896 0.75264 0.0
C1613 C 0.1092 0.50437 0.73826 0.0
C1614 C 0.09545 0.52944 0.77154 0.0
C1615 C 0.09619 0.5078 0.7739 0.0
H1616 H 0.4631 0.11683 0.71661 0.0
H1617 H 0.45613 0.09728 0.78095 0.0
H1618 H 0.49386 0.09749 0.78548 0.0
H1619 H 0.52881 0.10224 0.77135 0.0
H1620 H 0.5371 0.12166 0.70726 0.0
H1621 H 0.49896 0.12257 0.70249 0.0
C1622 C 0.4699 0.11271 0.7316 0.0
C1623 C 0.45679 0.10697 0.74837 0.0
C1624 C 0.49183 0.11279 0.73417 0.0
C1625 C 0.46581 0.10168 0.76773 0.0
C1626 C 0.48742 0.10179 0.77039 0.0
C1627 C 0.52232 0.10673 0.75632 0.0
C1628 C 0.53573 0.11179 0.73967 0.0
C1629 C 0.50056 0.10716 0.75372 0.0
C1630 C 0.52706 0.11767 0.72033 0.0
C1631 C 0.50527 0.11816 0.7176 0.0
H1632 H 0.89384 0.5316 0.77404 0.0
H1633 H 0.87288 0.53654 0.71006 0.0
H1634 H 0.87347 0.49831 0.7067 0.0
H1635 H 0.8815 0.46352 0.72174 0.0
H1636 H 0.90291 0.45953 0.78572 0.0
H1637 H 0.90059 0.49737 0.78926 0.0
C1638 C 0.88927 0.52434 0.75937 0.0
C1639 C 0.8834 0.53685 0.7423 0.0
C1640 C 0.88985 0.50251 0.75753 0.0
C1641 C 0.87747 0.52721 0.72344 0.0
C1642 C 0.87786 0.50537 0.7215 0.0
C1643 C 0.88556 0.47096 0.73645 0.0
C1644 C 0.89247 0.45874 0.7534 0.0
C1645 C 0.88427 0.49287 0.73839 0.0
C1646 C 0.89763 0.46857 0.7724 0.0
C1647 C 0.89631 0.49022 0.77446 0.0
H1648 H 0.27657 0.5349 0.123 0.0
H1649 H 0.21244 0.53835 0.10188 0.0
H1650 H 0.21006 0.50027 0.10159 0.0
H1651 H 0.22653 0.46607 0.10581 0.0
H1652 H 0.29076 0.46211 0.12641 0.0
H1653 H 0.29277 0.50032 0.12848 0.0
C1654 C 0.26205 0.52728 0.1185 0.0
C1655 C 0.24475 0.53939 0.11239 0.0
C1656 C 0.26084 0.50533 0.11816 0.0
C1657 C 0.22602 0.52936 0.10657 0.0
C1658 C 0.22463 0.50759 0.10637 0.0
C1659 C 0.24095 0.47356 0.11083 0.0
C1660 C 0.2585 0.46134 0.11584 0.0
C1661 C 0.24201 0.49544 0.11188 0.0
C1662 C 0.27705 0.47123 0.12241 0.0
C1663 C 0.27821 0.49305 0.12358 0.0
H1664 H 0.27222 0.53867 0.88305 0.0
H1665 H 0.20929 0.54032 0.90773 0.0
H1666 H 0.20828 0.50226 0.90881 0.0
H1667 H 0.2254 0.46858 0.90386 0.0
H1668 H 0.28827 0.46607 0.87931 0.0
H1669 H 0.28915 0.50436 0.87698 0.0
C1670 C 0.25828 0.53066 0.88856 0.0
C1671 C 0.2409 0.54232 0.89537 0.0
C1672 C 0.25779 0.50863 0.88922 0.0
C1673 C 0.22292 0.53174 0.90245 0.0
C1674 C 0.2223 0.50995 0.90309 0.0
C1675 C 0.2393 0.47638 0.89794 0.0
C1676 C 0.25677 0.46454 0.89186 0.0
C1677 C 0.23969 0.49827 0.8967 0.0
C1678 C 0.27461 0.47487 0.88411 0.0
C1679 C 0.27513 0.49675 0.88281 0.0
H1680 H 0.45644 0.27715 0.8811 0.0
H1681 H 0.45735 0.21288 0.90203 0.0
H1682 H 0.4954 0.21296 0.90144 0.0
H1683 H 0.52832 0.23108 0.89579 0.0
H1684 H 0.52879 0.2953 0.87507 0.0
H1685 H 0.49031 0.29545 0.87471 0.0
C1686 C 0.46501 0.26318 0.88545 0.0
C1687 C 0.45404 0.24505 0.89165 0.0
C1688 C 0.4871 0.26332 0.88516 0.0
C1689 C 0.46535 0.22706 0.89725 0.0
C1690 C 0.48715 0.22707 0.89693 0.0
C1691 C 0.52007 0.24515 0.89115 0.0
C1692 C 0.53139 0.26317 0.88553 0.0
C1693 C 0.49815 0.2451 0.89104 0.0
C1694 C 0.52041 0.28123 0.87949 0.0
C1695 C 0.49843 0.2813 0.8793 0.0
H1696 H 0.77744 0.52938 0.90298 0.0
H1697 H 0.7168 0.53317 0.87344 0.0
H1698 H 0.71547 0.49498 0.87062 0.0
H1699 H 0.73107 0.46045 0.87784 0.0
H1700 H 0.79158 0.45712 0.90779 0.0
H1701 H 0.79347 0.49522 0.90906 0.0
C1702 C 0.76396 0.52187 0.89584 0.0
C1703 C 0.74721 0.53405 0.88852 0.0
C1704 C 0.76328 0.49999 0.89438 0.0
C1705 C 0.72988 0.52411 0.87923 0.0
C1706 C 0.72911 0.50228 0.87764 0.0
C1707 C 0.74471 0.46809 0.88452 0.0
C1708 C 0.76112 0.45599 0.89278 0.0
C1709 C 0.74564 0.49006 0.88534 0.0
C1710 C 0.77871 0.46608 0.90138 0.0
C1711 C 0.77981 0.48787 0.90214 0.0
H1712 H 0.47169 0.76657 0.89371 0.0
H1713 H 0.46955 0.70196 0.87419 0.0
H1714 H 0.5079 0.70123 0.87218 0.0
H1715 H 0.54214 0.71889 0.87723 0.0
H1716 H 0.5433 0.78354 0.89699 0.0
H1717 H 0.50523 0.78431 0.89756 0.0
C1718 C 0.47958 0.75232 0.88895 0.0
C1719 C 0.46784 0.73432 0.88421 0.0
C1720 C 0.50148 0.75202 0.8879 0.0
C1721 C 0.47828 0.71602 0.87795 0.0
C1722 C 0.50019 0.7156 0.87683 0.0
C1723 C 0.53401 0.73314 0.88153 0.0
C1724 C 0.54554 0.75109 0.88714 0.0
C1725 C 0.51197 0.73348 0.88195 0.0
C1726 C 0.53482 0.76947 0.89268 0.0
C1727 C 0.51303 0.76995 0.89303 0.0
H1728 H 0.7219 0.53141 0.12137 0.0
H1729 H 0.78465 0.53698 0.09675 0.0
H1730 H 0.78807 0.49905 0.0962 0.0
H1731 H 0.77304 0.46434 0.1015 0.0
H1732 H 0.71038 0.45801 0.12596 0.0
H1733 H 0.70717 0.49616 0.12791 0.0
C1734 C 0.73633 0.52428 0.11598 0.0
C1735 C 0.75294 0.53699 0.10903 0.0
C1736 C 0.73822 0.50235 0.11565 0.0
C1737 C 0.77158 0.52756 0.10213 0.0
C1738 C 0.77358 0.50586 0.1018 0.0
C1739 C 0.7587 0.47129 0.10736 0.0
C1740 C 0.74195 0.4584 0.11349 0.0
C1741 C 0.75696 0.49312 0.10834 0.0
C1742 C 0.72351 0.46763 0.12113 0.0
C1743 C 0.72165 0.48943 0.1222 0.0
H1744 H 0.53738 0.72121 0.1093 0.0
H1745 H 0.54103 0.78562 0.0891 0.0
H1746 H 0.50306 0.78786 0.0885 0.0
H1747 H 0.46888 0.77186 0.09347 0.0
H1748 H 0.46407 0.70756 0.11347 0.0
H1749 H 0.50239 0.70495 0.11442 0.0
C1750 C 0.52981 0.73569 0.10478 0.0
C1751 C 0.54203 0.7532 0.09924 0.0
C1752 C 0.50779 0.73693 0.10444 0.0
C1753 C 0.53203 0.77189 0.09342 0.0
C1754 C 0.51029 0.77323 0.09307 0.0
C1755 C 0.47617 0.75724 0.09807 0.0
C1756 C 0.46368 0.73994 0.10339 0.0
C1757 C 0.49804 0.75588 0.09852 0.0
C1758 C 0.47338 0.72112 0.1093 0.0
C1759 C 0.49528 0.71963 0.10983 0.0
H1760 H 0.53348 0.2203 0.09441 0.0
H1761 H 0.54219 0.28354 0.11646 0.0
H1762 H 0.50415 0.28771 0.1197 0.0
H1763 H 0.46825 0.27334 0.11548 0.0
H1764 H 0.46062 0.20993 0.09319 0.0
H1765 H 0.49837 0.20591 0.09088 0.0
C1766 C 0.5271 0.23501 0.09997 0.0
C1767 C 0.5406 0.25159 0.10513 0.0
C1768 C 0.50536 0.23727 0.10174 0.0
C1769 C 0.53208 0.27053 0.11237 0.0
C1770 C 0.51035 0.27292 0.1142 0.0
C1771 C 0.4749 0.25865 0.11021 0.0
C1772 C 0.46161 0.242 0.10448 0.0
C1773 C 0.4968 0.2564 0.10883 0.0
C1774 C 0.47045 0.22304 0.09767 0.0
C1775 C 0.49207 0.22069 0.09632 0.0
H1776 H 0.60672 0.72807 0.02891 0.0
H1777 H 0.6259 0.79249 0.03571 0.0
H1778 H 0.628 0.79602 0.99753 0.0
H1779 H 0.62318 0.7808 0.96205 0.0
H1780 H 0.60357 0.71627 0.95648 0.0
H1781 H 0.60289 0.71284 0.99431 0.0
C1782 C 0.61144 0.7429 0.02208 0.0
C1783 C 0.61608 0.76 0.03509 0.0
C1784 C 0.61248 0.74481 0.00029 0.0
C1785 C 0.62224 0.77907 0.02599 0.0
C1786 C 0.62341 0.7811 0.00418 0.0
C1787 C 0.61886 0.766 0.96917 0.0
C1788 C 0.61335 0.74886 0.95644 0.0
C1789 C 0.61838 0.76409 0.99114 0.0
C1790 C 0.60779 0.72976 0.96587 0.0
C1791 C 0.60739 0.72774 0.98754 0.0
H1792 H 0.26862 0.59847 0.96782 0.0
H1793 H 0.20863 0.6292 0.9642 0.0
H1794 H 0.20681 0.63055 0.00246 0.0
H1795 H 0.22206 0.62217 0.03696 0.0
H1796 H 0.2819 0.59096 0.03991 0.0
H1797 H 0.28397 0.59065 0.00186 0.0
C1798 C 0.25517 0.60555 0.97538 0.0
C1799 C 0.23878 0.6137 0.96325 0.0
C1800 C 0.25418 0.60613 0.99726 0.0
C1801 C 0.22145 0.6228 0.97325 0.0
C1802 C 0.22039 0.62356 0.9951 0.0
C1803 C 0.23556 0.61538 0.02924 0.0
C1804 C 0.25177 0.60658 0.04122 0.0
C1805 C 0.23663 0.61515 0.00727 0.0
C1806 C 0.26918 0.59781 0.03104 0.0
C1807 C 0.2704 0.59762 0.00928 0.0
H1808 H 0.38057 0.21718 0.03479 0.0
H1809 H 0.39974 0.28193 0.03878 0.0
H1810 H 0.39868 0.28492 0.00086 0.0
H1811 H 0.3935 0.26911 0.96655 0.0
H1812 H 0.37463 0.20441 0.96169 0.0
H1813 H 0.3743 0.20146 -9e-05 0.0
C1814 C 0.38439 0.23194 0.02731 0.0
C1815 C 0.39031 0.24926 0.03958 0.0
C1816 C 0.38387 0.23357 0.00536 0.0
C1817 C 0.39523 0.26831 0.02971 0.0
C1818 C 0.39464 0.27007 0.00801 0.0
C1819 C 0.38924 0.25436 0.97384 0.0
C1820 C 0.38418 0.23699 0.96135 0.0
C1821 C 0.38918 0.25278 0.99569 0.0
C1822 C 0.37861 0.21802 0.97101 0.0
C1823 C 0.37845 0.21632 0.99285 0.0
H1824 H 0.77235 0.37331 0.03504 0.0
H1825 H 0.71649 0.4112 0.0375 0.0
H1826 H 0.71481 0.41173 -0.00057 0.0
H1827 H 0.72948 0.40221 0.96548 0.0
H1828 H 0.78523 0.36434 0.96234 0.0
H1829 H 0.78662 0.36291 0.00062 0.0
C1830 C 0.75981 0.38164 0.0272 0.0
C1831 C 0.74462 0.39226 0.03907 0.0
C1832 C 0.7589 0.38188 0.00521 0.0
C1833 C 0.72841 0.40292 0.02874 0.0
C1834 C 0.72742 0.40325 0.00695 0.0
C1835 C 0.7419 0.39356 0.97315 0.0
C1836 C 0.75725 0.38344 0.96112 0.0
C1837 C 0.74262 0.39288 0.99505 0.0
C1838 C 0.77322 0.37226 0.97129 0.0
C1839 C 0.77404 0.37148 0.99316 0.0
H1840 H 0.60937 0.22591 0.957 0.0
H1841 H 0.59236 0.29128 0.95727 0.0
H1842 H 0.59344 0.29176 0.99534 0.0
H1843 H 0.59855 0.27371 0.02853 0.0
H1844 H 0.61548 0.20838 0.02905 0.0
H1845 H 0.61515 0.20779 0.99071 0.0
C1846 C 0.60595 0.24024 0.96543 0.0
C1847 C 0.60074 0.25851 0.95432 0.0
C1848 C 0.60656 0.24043 0.98743 0.0
C1849 C 0.59637 0.27698 0.96543 0.0
C1850 C 0.59698 0.2773 0.98721 0.0
C1851 C 0.60221 0.25933 0.02028 0.0
C1852 C 0.60698 0.24111 0.03158 0.0
C1853 C 0.60195 0.25911 0.99836 0.0
C1854 C 0.61174 0.22262 0.02067 0.0
C1855 C 0.61154 0.22228 0.99876 0.0
H1856 H 0.72471 0.59317 0.03536 0.0
H1857 H 0.78431 0.62456 0.04134 0.0
H1858 H 0.78758 0.62593 0.00314 0.0
H1859 H 0.77367 0.61728 0.96798 0.0
H1860 H 0.71403 0.58565 0.96291 0.0
H1861 H 0.71062 0.58533 0.00083 0.0
C1862 C 0.73841 0.60039 0.02834 0.0
C1863 C 0.75427 0.6087 0.04113 0.0
C1864 C 0.74019 0.60102 0.00651 0.0
C1865 C 0.77189 0.61803 0.03179 0.0
C1866 C 0.77377 0.61879 0.00997 0.0
C1867 C 0.75993 0.61039 0.97522 0.0
C1868 C 0.74416 0.60145 0.96265 0.0
C1869 C 0.75806 0.6102 0.99716 0.0
C1870 C 0.72642 0.5926 0.97221 0.0
C1871 C 0.72443 0.59239 0.99391 0.0
H1872 H 0.3904 0.76894 0.96073 0.0
H1873 H 0.41013 0.70436 0.95876 0.0
H1874 H 0.40989 0.7028 0.99677 0.0
H1875 H 0.40464 0.71957 0.03052 0.0
H1876 H 0.38537 0.78415 0.0336 0.0
H1877 H 0.38481 0.78592 0.99524 0.0
C1878 C 0.39458 0.75455 0.96866 0.0
C1879 C 0.40029 0.73681 0.9569 0.0
C1880 C 0.39451 0.75374 0.9907 0.0
C1881 C 0.40571 0.71826 0.96739 0.0
C1882 C 0.40558 0.71733 0.98916 0.0
C1883 C 0.40026 0.73406 0.02285 0.0
C1884 C 0.39506 0.7517 0.03488 0.0
C1885 C 0.40009 0.73495 0.00095 0.0
C1886 C 0.38944 0.77034 0.02466 0.0
C1887 C 0.38914 0.77135 0.00275 0.0
H1888 H 0.27838 0.40643 0.03801 0.0
H1889 H 0.21847 0.37571 0.04413 0.0
H1890 H 0.21505 0.37434 0.00594 0.0
H1891 H 0.22906 0.38249 0.97068 0.0
H1892 H 0.28914 0.41322 0.96543 0.0
H1893 H 0.29249 0.41394 0.00336 0.0
C1894 C 0.26457 0.39939 0.03102 0.0
C1895 C 0.24868 0.39123 0.04388 0.0
C1896 C 0.26273 0.39868 0.00916 0.0
C1897 C 0.23092 0.38212 0.03456 0.0
C1898 C 0.22896 0.38135 0.01273 0.0
C1899 C 0.24287 0.38929 0.97788 0.0
C1900 C 0.25879 0.39782 0.96522 0.0
C1901 C 0.24474 0.38967 -0.00015 0.0
C1902 C 0.27663 0.40656 0.97477 0.0
C1903 C 0.27858 0.40699 0.99649 0.0
H1904 H 0.02793 0.59672 0.72585 0.0
H1905 H 0.03378 0.62128 0.78847 0.0
H1906 H 0.99553 0.62194 0.7919 0.0
H1907 H 0.96032 0.61498 0.77697 0.0
H1908 H 0.95557 0.59019 0.71424 0.0
H1909 H 0.99348 0.59016 0.71104 0.0
C1910 C 0.02088 0.60228 0.74025 0.0
C1911 C 0.03363 0.60893 0.75687 0.0
C1912 C 0.99904 0.60252 0.74211 0.0
C1913 C 0.02425 0.61608 0.77543 0.0
C1914 C 0.0024 0.61643 0.77741 0.0
C1915 C 0.96764 0.60959 0.76264 0.0
C1916 C 0.95514 0.60258 0.7459 0.0
C1917 C 0.98962 0.60959 0.76085 0.0
C1918 C 0.9648 0.59566 0.72739 0.0
C1919 C 0.98651 0.59563 0.72551 0.0
H1920 H 0.39773 0.96397 0.72922 0.0
H1921 H 0.37661 0.96164 0.79329 0.0
H1922 H 0.3741 -7e-05 0.79401 0.0
H1923 H 0.37885 0.03418 0.77645 0.0
H1924 H 0.40016 0.03559 0.71233 0.0
H1925 H 0.40156 0.99755 0.71162 0.0
C1926 C 0.39253 0.9718 0.74336 0.0
C1927 C 0.38744 0.96002 0.7612 0.0
C1928 C 0.39116 0.99368 0.74364 0.0
C1929 C 0.38064 0.9704 0.77935 0.0
C1930 C 0.37922 0.99228 0.77977 0.0
C1931 C 0.3837 0.02611 0.76233 0.0
C1932 C 0.38944 0.03771 0.7445 0.0
C1933 C 0.38457 0.0041 0.76202 0.0
C1934 C 0.3957 0.02706 0.7263 0.0
C1935 C 0.39653 0.00529 0.72585 0.0
H1936 H 0.03809 0.39982 0.72766 0.0
H1937 H 0.0441 0.37875 0.79147 0.0
H1938 H 0.00583 0.37688 0.79461 0.0
H1939 H 0.97049 0.38196 0.7791 0.0
H1940 H 0.96569 0.40354 0.71524 0.0
H1941 H 0.00361 0.40443 0.71228 0.0
C1942 C 0.03108 0.39477 0.74228 0.0
C1943 C 0.04391 0.38946 0.75931 0.0
C1944 C 0.00922 0.39384 0.74396 0.0
C1945 C 0.03454 0.38293 0.77812 0.0
C1946 C 0.01267 0.38187 0.77992 0.0
C1947 C 0.9778 0.38678 0.76456 0.0
C1948 C 0.96524 0.39272 0.74745 0.0
C1949 C -0.00018 0.38739 0.76294 0.0
C1950 C 0.97493 0.39896 0.72869 0.0
C1951 C 0.99665 0.39947 0.72695 0.0
H1952 H 0.61253 0.96827 0.77422 0.0
H1953 H 0.59332 0.96315 0.70964 0.0
H1954 H 0.59188 0.00117 0.7068 0.0
H1955 H 0.59561 0.03582 0.72266 0.0
H1956 H 0.61466 0.04138 0.78722 0.0
H1957 H 0.61666 0.00324 0.79007 0.0
C1958 C 0.60809 0.97551 0.75953 0.0
C1959 C 0.60302 0.96293 0.74218 0.0
C1960 C 0.60723 0.99743 0.758 0.0
C1961 C 0.59728 0.97249 0.72324 0.0
C1962 C 0.59644 0.99423 0.72159 0.0
C1963 C 0.60023 0.0287 0.73735 0.0
C1964 C 0.60495 0.04137 0.7547 0.0
C1965 C 0.60131 0.00684 0.73888 0.0
C1966 C 0.61093 0.03193 0.77363 0.0
C1967 C 0.61207 0.01013 0.77527 0.0
H1968 H 0.96144 0.38496 0.22114 0.0
H1969 H 0.9571 0.40613 0.28518 0.0
H1970 H 0.99508 0.40723 0.2878 0.0
H1971 H 0.02954 0.40265 0.27206 0.0
H1972 H 0.03476 0.38177 0.20808 0.0
H1973 H 0.99651 0.38012 0.20526 0.0
C1974 C 0.96885 0.38974 0.23565 0.0
C1975 C 0.95644 0.39546 0.25291 0.0
C1976 C 0.99086 0.39046 0.23707 0.0
C1977 C 0.96625 0.40168 0.27162 0.0
C1978 C 0.98801 0.40233 0.27316 0.0
C1979 C 0.02233 0.39773 0.25748 0.0
C1980 C 0.03495 0.39237 0.24031 0.0
C1981 C 0.00045 0.39684 0.25599 0.0
C1982 C 0.02536 0.386 0.22154 0.0
C1983 C 0.0035 0.38505 0.21992 0.0
H1984 H 0.61385 0.03819 0.22249 0.0
H1985 H 0.59716 0.0418 0.28786 0.0
H1986 H 0.5963 0.00377 0.29009 0.0
H1987 H 0.5998 0.9695 0.27356 0.0
H1988 H 0.61638 0.96524 0.20826 0.0
H1989 H 0.61778 0.00347 0.20591 0.0
C1990 C 0.61008 0.03061 0.2372 0.0
C1991 C 0.60555 0.0428 0.25496 0.0
C1992 C 0.60955 0.00864 0.2384 0.0
C1993 C 0.60068 0.03279 0.27394 0.0
C1994 C 0.60018 0.01103 0.27525 0.0
C1995 C 0.60374 0.97692 0.25881 0.0
C1996 C 0.60794 0.96459 0.24112 0.0
C1997 C 0.6045 0.99881 0.25758 0.0
C1998 C 0.61307 0.97443 0.22212 0.0
C1999 C 0.61386 0.99627 0.22076 0.0
H2000 H 0.03325 0.59328 0.27335 0.0
H2001 H 0.03987 0.6185 0.21109 0.0
H2002 H 0.00169 0.61974 0.20739 0.0
H2003 H 0.96638 0.61381 0.22214 0.0
H2004 H 0.96051 0.58876 0.28462 0.0
H2005 H 0.99847 0.58727 0.2879 0.0
C2006 C 0.02637 0.59904 0.25895 0.0
C2007 C 0.03933 0.60581 0.24253 0.0
C2008 C 0.00453 0.59974 0.25697 0.0
C2009 C 0.03018 0.61322 0.22397 0.0
C2010 C 0.00837 0.61393 0.22185 0.0
C2011 C 0.97345 0.60801 0.23644 0.0
C2012 C 0.96066 0.60143 0.25311 0.0
C2013 C 0.99539 0.60725 0.23828 0.0
C2014 C 0.97 0.59395 0.27156 0.0
C2015 C 0.99171 0.59309 0.27347 0.0
H2016 H 0.37792 0.03039 0.22523 0.0
H2017 H 0.41126 0.03538 0.28383 0.0
H2018 H 0.41177 0.9974 0.28706 0.0
H2019 H 0.40374 0.96282 0.2729 0.0
H2020 H 0.37067 0.95721 0.21426 0.0
H2021 H 0.36894 0.99538 0.21145 0.0
C2022 C 0.38522 0.02313 0.23872 0.0
C2023 C 0.3946 0.03566 0.25422 0.0
C2024 C 0.38551 0.0012 0.24048 0.0
C2025 C 0.40397 0.02608 0.27164 0.0
C2026 C 0.40428 0.00435 0.27352 0.0
C2027 C 0.39605 0.96993 0.25954 0.0
C2028 C 0.3874 0.95725 0.24379 0.0
C2029 C 0.39524 0.99178 0.25798 0.0
C2030 C 0.37746 0.96668 0.2266 0.0
C2031 C 0.37651 0.98849 0.22496 0.0
H2032 H 0.77555 0.03426 0.62594 0.0
H2033 H 0.71569 0.03753 0.59464 0.0
H2034 H 0.71357 -0.00047 0.59377 0.0
H2035 H 0.72903 0.96541 0.60064 0.0
H2036 H 0.78885 0.96122 0.63171 0.0
H2037 H 0.79063 -0.00051 0.63402 0.0
C2038 C 0.76202 0.02662 0.61906 0.0
C2039 C 0.74586 0.03873 0.61029 0.0
C2040 C 0.7609 0.00461 0.6185 0.0
C2041 C 0.7284 0.02861 0.60143 0.0
C2042 C 0.72714 0.00686 0.60091 0.0
C2043 C 0.74244 0.97284 0.608 0.0
C2044 C 0.75882 0.96053 0.6159 0.0
C2045 C 0.74337 0.99472 0.6092 0.0
C2046 C 0.77604 0.97039 0.62548 0.0
C2047 C 0.77707 0.99226 0.62677 0.0
H2048 H 0.72481 0.03652 0.40823 0.0
H2049 H 0.78382 0.0402 0.37553 0.0
H2050 H 0.78531 0.00195 0.37367 0.0
H2051 H 0.77003 0.96743 0.38202 0.0
H2052 H 0.71098 0.96428 0.41478 0.0
H2053 H 0.70932 0.00238 0.41591 0.0
C2054 C 0.73799 0.02897 0.40065 0.0
C2055 C 0.7542 0.04114 0.39208 0.0
C2056 C 0.73874 0.00707 0.39968 0.0
C2057 C 0.77114 0.03114 0.38226 0.0
C2058 C 0.77201 0.00929 0.38122 0.0
C2059 C 0.75679 0.97511 0.38935 0.0
C2060 C 0.74068 0.96306 0.39834 0.0
C2061 C 0.75594 0.99709 0.38997 0.0
C2062 C 0.7236 0.9732 0.40776 0.0
C2063 C 0.72263 0.99499 0.40843 0.0
H2064 H 0.96143 0.7326 0.40098 0.0
H2065 H 0.95687 0.79069 0.36694 0.0
H2066 H 0.99522 0.79305 0.36548 0.0
H2067 H 0.03012 0.77869 0.37467 0.0
H2068 H 0.03355 0.72057 0.40898 0.0
H2069 H 0.99555 0.71816 0.40949 0.0
C2070 C 0.96877 0.74579 0.39318 0.0
C2071 C 0.95634 0.76147 0.38412 0.0
C2072 C 0.99065 0.74704 0.39247 0.0
C2073 C 0.96613 0.77841 0.37405 0.0
C2074 C 0.98803 0.77977 0.37323 0.0
C2075 C 0.0225 0.76549 0.38217 0.0
C2076 C 0.03466 0.74986 0.3918 0.0
C2077 C 0.00047 0.76419 0.3825 0.0
C2078 C 0.02459 0.73284 0.40148 0.0
C2079 C 0.00284 0.73143 0.4018 0.0
H2080 H 0.27075 0.03185 0.39674 0.0
H2081 H 0.20651 0.03631 0.37635 0.0
H2082 H 0.20385 0.99799 0.37559 0.0
H2083 H 0.21997 0.96311 0.38121 0.0
H2084 H 0.28431 0.95977 0.4018 0.0
H2085 H 0.28671 0.99774 0.40194 0.0
C2086 C 0.25614 0.02448 0.3921 0.0
C2087 C 0.23885 0.03689 0.38664 0.0
C2088 C 0.25475 0.00261 0.39174 0.0
C2089 C 0.22006 0.02707 0.38064 0.0
C2090 C 0.21854 0.00518 0.38021 0.0
C2091 C 0.23449 0.97074 0.38566 0.0
C2092 C 0.25192 0.9586 0.3915 0.0
C2093 C 0.2358 0.99276 0.38579 0.0
C2094 C 0.27064 0.9687 0.39726 0.0
C2095 C 0.27206 0.99045 0.39736 0.0
H2096 H 0.0304 0.27482 0.40331 0.0
H2097 H 0.0321 0.21559 0.3709 0.0
H2098 H 0.99375 0.21424 0.3708 0.0
H2099 H 0.9597 0.22961 0.3809 0.0
H2100 H 0.95879 0.28881 0.41354 0.0
H2101 H 0.99685 0.29043 0.41253 0.0
C2102 C 0.0224 0.26164 0.39614 0.0
C2103 C 0.03403 0.24532 0.38718 0.0
C2104 C 0.00047 0.26094 0.39623 0.0
C2105 C 0.02345 0.22836 0.37793 0.0
C2106 C 0.00154 0.22757 0.37789 0.0
C2107 C 0.96787 0.24288 0.3877 0.0
C2108 C 0.95643 0.25902 0.39733 0.0
C2109 C 0.98988 0.24371 0.38714 0.0
C2110 C 0.9672 0.27614 0.40608 0.0
C2111 C 0.98899 0.2771 0.40552 0.0
H2112 H 0.22417 0.02732 0.61651 0.0
H2113 H 0.28269 0.03556 0.58361 0.0
H2114 H 0.28815 0.99793 0.58328 0.0
H2115 H 0.2764 0.96266 0.59174 0.0
H2116 H 0.21795 0.95336 0.62428 0.0
H2117 H 0.21242 0.99132 0.6254 0.0
C2118 C 0.23811 0.02083 0.60933 0.0
C2119 C 0.25296 0.03427 0.60008 0.0
C2120 C 0.24119 0.99898 0.60911 0.0
C2121 C 0.27096 0.02563 0.59082 0.0
C2122 C 0.27414 0.00407 0.59061 0.0
C2123 C 0.26245 0.9689 0.59914 0.0
C2124 C 0.24761 0.95522 0.6079 0.0
C2125 C 0.25936 0.99062 0.59963 0.0
C2126 C 0.22962 0.96359 0.61741 0.0
C2127 C 0.22645 0.98529 0.61804 0.0
H2128 H 0.97195 0.26887 0.598 0.0
H2129 H 0.97072 0.20633 0.62337 0.0
H2130 H 0.0091 0.20549 0.62337 0.0
H2131 H 0.0431 0.22266 0.61584 0.0
H2132 H 0.04347 0.28525 0.59037 0.0
H2133 H 0.00537 0.28591 0.59079 0.0
C2134 C 0.98005 0.25504 0.60354 0.0
C2135 C 0.96853 0.23769 0.61065 0.0
C2136 C 0.002 0.25468 0.60349 0.0
C2137 C 0.97926 0.2199 0.6178 0.0
C2138 C 0.0012 0.21941 0.6178 0.0
C2139 C 0.0348 0.23643 0.61044 0.0
C2140 C 0.04612 0.25387 0.60308 0.0
C2141 C 0.01275 0.23672 0.61066 0.0
C2142 C 0.03516 0.2716 0.5961 0.0
C2143 C 0.01335 0.27202 0.59632 0.0
H2144 H 0.03387 0.72794 0.58779 0.0
H2145 H 0.03792 0.78353 0.62593 0.0
H2146 H -0.00042 0.7856 0.62709 0.0
H2147 H 0.96475 0.77139 0.61707 0.0
H2148 H 0.96176 0.71556 0.57904 0.0
H2149 H -0.00022 0.71388 0.57803 0.0
C2150 C 0.0264 0.74053 0.59639 0.0
C2151 C 0.03872 0.75555 0.60675 0.0
C2152 C 0.00449 0.74159 0.59699 0.0
C2153 C 0.02877 0.77175 0.61781 0.0
C2154 C 0.00686 0.77294 0.61847 0.0
C2155 C 0.97247 0.75889 0.60858 0.0
C2156 C 0.9604 0.74363 0.59816 0.0
C2157 C 0.99453 0.75793 0.60809 0.0
C2158 C 0.97062 0.7275 0.58723 0.0
C2159 C 0.9924 0.7265 0.58663 0.0
loop_
_geom_bond_atom_site_label_1
_geom_bond_atom_site_label_2
_geom_bond_distance
_geom_bond_site_symmetry_2
_ccdc_geom_bond_type
In0 O1 2.294 . S
In0 O2 2.326 . S
In0 O6 2.266 . S
In0 O7 2.326 . S
In0 O8 2.266 . S
In0 O9 2.326 . S
In0 O11 2.294 . S
In0 O12 2.326 . S
O1 In0 2.294 . S
O1 C10 1.240 . S
O2 In0 2.326 . S
O2 C10 1.252 . S
C3 O6 1.252 . S
C3 O7 1.260 . S
C4 O11 1.240 . S
C4 O12 1.252 . S
C5 O8 1.252 . S
C5 O9 1.260 . S
O6 In0 2.266 . S
O6 C3 1.252 . S
O7 In0 2.326 . S
O7 C3 1.260 . S
O8 In0 2.266 . S
O8 C5 1.252 . S
O9 In0 2.326 . S
O9 C5 1.260 . S
C10 O1 1.240 . S
C10 O2 1.252 . S
O11 In0 2.294 . S
O11 C4 1.240 . S
O12 In0 2.326 . S
O12 C4 1.252 . S
In13 O14 2.294 . S
In13 O15 2.326 . S
In13 O19 2.266 . S
In13 O20 2.326 . S
In13 O21 2.266 . S
In13 O22 2.326 . S
In13 O24 2.294 . S
In13 O25 2.326 . S
O14 In13 2.294 . S
O14 C23 1.240 . S
O15 In13 2.326 . S
O15 C23 1.252 . S
C16 O19 1.252 . S
C16 O20 1.260 . S
C17 O24 1.240 . S
C17 O25 1.252 . S
C18 O21 1.252 . S
C18 O22 1.260 . S
O19 In13 2.266 . S
O19 C16 1.252 . S
O20 In13 2.326 . S
O20 C16 1.260 . S
O21 In13 2.266 . S
O21 C18 1.252 . S
O22 In13 2.326 . S
O22 C18 1.260 . S
C23 O14 1.240 . S
C23 O15 1.252 . S
O24 In13 2.294 . S
O24 C17 1.240 . S
O25 In13 2.326 . S
O25 C17 1.252 . S
In26 O27 2.294 . S
In26 O28 2.326 . S
In26 O32 2.266 . S
In26 O33 2.326 . S
In26 O34 2.266 . S
In26 O35 2.326 . S
In26 O37 2.294 . S
In26 O38 2.326 . S
O27 In26 2.294 . S
O27 C36 1.240 . S
O28 In26 2.326 . S
O28 C36 1.252 . S
C29 O32 1.252 . S
C29 O33 1.260 . S
C30 O37 1.240 . S
C30 O38 1.252 . S
C31 O34 1.252 . S
C31 O35 1.260 . S
O32 In26 2.266 . S
O32 C29 1.252 . S
O33 In26 2.326 . S
O33 C29 1.260 . S
O34 In26 2.266 . S
O34 C31 1.252 . S
O35 In26 2.326 . S
O35 C31 1.260 . S
C36 O27 1.240 . S
C36 O28 1.252 . S
O37 In26 2.294 . S
O37 C30 1.240 . S
O38 In26 2.326 . S
O38 C30 1.252 . S
In39 O40 2.294 . S
In39 O41 2.326 . S
In39 O45 2.266 . S
In39 O46 2.326 . S
In39 O47 2.266 . S
In39 O48 2.326 . S
In39 O50 2.294 . S
In39 O51 2.326 . S
O40 In39 2.294 . S
O40 C49 1.240 . S
O41 In39 2.326 . S
O41 C49 1.252 . S
C42 O45 1.252 . S
C42 O46 1.260 . S
C43 O50 1.240 . S
C43 O51 1.252 . S
C44 O47 1.252 . S
C44 O48 1.260 . S
O45 In39 2.266 . S
O45 C42 1.252 . S
O46 In39 2.326 . S
O46 C42 1.260 . S
O47 In39 2.266 . S
O47 C44 1.252 . S
O48 In39 2.326 . S
O48 C44 1.260 . S
C49 O40 1.240 . S
C49 O41 1.252 . S
O50 In39 2.294 . S
O50 C43 1.240 . S
O51 In39 2.326 . S
O51 C43 1.252 . S
In52 O53 2.294 . S
In52 O54 2.326 . S
In52 O58 2.266 . S
In52 O59 2.326 . S
In52 O60 2.266 . S
In52 O61 2.326 . S
In52 O63 2.294 . S
In52 O64 2.326 . S
O53 In52 2.294 . S
O53 C62 1.240 . S
O54 In52 2.326 . S
O54 C62 1.252 . S
C55 O58 1.252 . S
C55 O59 1.260 . S
C56 O63 1.240 . S
C56 O64 1.252 . S
C57 O60 1.252 . S
C57 O61 1.260 . S
O58 In52 2.266 . S
O58 C55 1.252 . S
O59 In52 2.326 . S
O59 C55 1.260 . S
O60 In52 2.266 . S
O60 C57 1.252 . S
O61 In52 2.326 . S
O61 C57 1.260 . S
C62 O53 1.240 . S
C62 O54 1.252 . S
O63 In52 2.294 . S
O63 C56 1.240 . S
O64 In52 2.326 . S
O64 C56 1.252 . S
In65 O66 2.294 . S
In65 O67 2.326 . S
In65 O71 2.266 . S
In65 O72 2.326 . S
In65 O73 2.266 . S
In65 O74 2.326 . S
In65 O76 2.294 . S
In65 O77 2.326 . S
O66 In65 2.294 . S
O66 C75 1.240 . S
O67 In65 2.326 . S
O67 C75 1.252 . S
C68 O71 1.252 . S
C68 O72 1.260 . S
C69 O76 1.240 . S
C69 O77 1.252 . S
C70 O73 1.252 . S
C70 O74 1.260 . S
O71 In65 2.266 . S
O71 C68 1.252 . S
O72 In65 2.326 . S
O72 C68 1.260 . S
O73 In65 2.266 . S
O73 C70 1.252 . S
O74 In65 2.326 . S
O74 C70 1.260 . S
C75 O66 1.240 . S
C75 O67 1.252 . S
O76 In65 2.294 . S
O76 C69 1.240 . S
O77 In65 2.326 . S
O77 C69 1.252 . S
In78 O79 2.294 . S
In78 O80 2.326 . S
In78 O84 2.266 . S
In78 O85 2.326 . S
In78 O86 2.266 . S
In78 O87 2.326 . S
In78 O89 2.294 . S
In78 O90 2.326 . S
O79 In78 2.294 . S
O79 C88 1.240 . S
O80 In78 2.326 . S
O80 C88 1.252 . S
C81 O84 1.252 . S
C81 O85 1.260 . S
C82 O89 1.240 . S
C82 O90 1.252 . S
C83 O86 1.252 . S
C83 O87 1.260 . S
O84 In78 2.266 . S
O84 C81 1.252 . S
O85 In78 2.326 . S
O85 C81 1.260 . S
O86 In78 2.266 . S
O86 C83 1.252 . S
O87 In78 2.326 . S
O87 C83 1.260 . S
C88 O79 1.240 . S
C88 O80 1.252 . S
O89 In78 2.294 . S
O89 C82 1.240 . S
O90 In78 2.326 . S
O90 C82 1.252 . S
In91 O92 2.294 . S
In91 O93 2.326 . S
In91 O97 2.266 . S
In91 O98 2.326 . S
In91 O99 2.266 . S
In91 O100 2.326 . S
In91 O102 2.294 . S
In91 O103 2.326 . S
O92 In91 2.294 . S
O92 C101 1.240 . S
O93 In91 2.326 . S
O93 C101 1.252 . S
C94 O97 1.252 . S
C94 O98 1.260 . S
C95 O102 1.240 . S
C95 O103 1.252 . S
C96 O99 1.252 . S
C96 O100 1.260 . S
O97 In91 2.266 . S
O97 C94 1.252 . S
O98 In91 2.326 . S
O98 C94 1.260 . S
O99 In91 2.266 . S
O99 C96 1.252 . S
O100 In91 2.326 . S
O100 C96 1.260 . S
C101 O92 1.240 . S
C101 O93 1.252 . S
O102 In91 2.294 . S
O102 C95 1.240 . S
O103 In91 2.326 . S
O103 C95 1.252 . S
In104 O105 2.294 . S
In104 O106 2.326 . S
In104 O110 2.266 . S
In104 O111 2.326 . S
In104 O112 2.266 . S
In104 O113 2.326 . S
In104 O115 2.294 . S
In104 O116 2.326 . S
O105 In104 2.294 . S
O105 C114 1.240 . S
O106 In104 2.326 . S
O106 C114 1.252 . S
C107 O110 1.252 . S
C107 O111 1.260 . S
C108 O115 1.240 . S
C108 O116 1.252 . S
C109 O112 1.252 . S
C109 O113 1.260 . S
O110 In104 2.266 . S
O110 C107 1.252 . S
O111 In104 2.326 . S
O111 C107 1.260 . S
O112 In104 2.266 . S
O112 C109 1.252 . S
O113 In104 2.326 . S
O113 C109 1.260 . S
C114 O105 1.240 . S
C114 O106 1.252 . S
O115 In104 2.294 . S
O115 C108 1.240 . S
O116 In104 2.326 . S
O116 C108 1.252 . S
In117 O118 2.294 . S
In117 O119 2.326 . S
In117 O123 2.266 . S
In117 O124 2.326 . S
In117 O125 2.266 . S
In117 O126 2.326 . S
In117 O128 2.294 . S
In117 O129 2.326 . S
O118 In117 2.294 . S
O118 C127 1.240 . S
O119 In117 2.326 . S
O119 C127 1.252 . S
C120 O123 1.252 . S
C120 O124 1.260 . S
C121 O128 1.240 . S
C121 O129 1.252 . S
C122 O125 1.252 . S
C122 O126 1.260 . S
O123 In117 2.266 . S
O123 C120 1.252 . S
O124 In117 2.326 . S
O124 C120 1.260 . S
O125 In117 2.266 . S
O125 C122 1.252 . S
O126 In117 2.326 . S
O126 C122 1.260 . S
C127 O118 1.240 . S
C127 O119 1.252 . S
O128 In117 2.294 . S
O128 C121 1.240 . S
O129 In117 2.326 . S
O129 C121 1.252 . S
In130 O131 2.294 . S
In130 O132 2.326 . S
In130 O136 2.266 . S
In130 O137 2.326 . S
In130 O138 2.266 . S
In130 O139 2.326 . S
In130 O141 2.294 . S
In130 O142 2.326 . S
O131 In130 2.294 . S
O131 C140 1.240 . S
O132 In130 2.326 . S
O132 C140 1.252 . S
C133 O136 1.252 . S
C133 O137 1.260 . S
C134 O141 1.240 . S
C134 O142 1.252 . S
C135 O138 1.252 . S
C135 O139 1.260 . S
O136 In130 2.266 . S
O136 C133 1.252 . S
O137 In130 2.326 . S
O137 C133 1.260 . S
O138 In130 2.266 . S
O138 C135 1.252 . S
O139 In130 2.326 . S
O139 C135 1.260 . S
C140 O131 1.240 . S
C140 O132 1.252 . S
O141 In130 2.294 . S
O141 C134 1.240 . S
O142 In130 2.326 . S
O142 C134 1.252 . S
In143 O144 2.294 . S
In143 O145 2.326 . S
In143 O149 2.266 . S
In143 O150 2.326 . S
In143 O151 2.266 . S
In143 O152 2.326 . S
In143 O154 2.294 . S
In143 O155 2.326 . S
O144 In143 2.294 . S
O144 C153 1.240 . S
O145 In143 2.326 . S
O145 C153 1.252 . S
C146 O149 1.252 . S
C146 O150 1.260 . S
C147 O154 1.240 . S
C147 O155 1.252 . S
C148 O151 1.252 . S
C148 O152 1.260 . S
O149 In143 2.266 . S
O149 C146 1.252 . S
O150 In143 2.326 . S
O150 C146 1.260 . S
O151 In143 2.266 . S
O151 C148 1.252 . S
O152 In143 2.326 . S
O152 C148 1.260 . S
C153 O144 1.240 . S
C153 O145 1.252 . S
O154 In143 2.294 . S
O154 C147 1.240 . S
O155 In143 2.326 . S
O155 C147 1.252 . S
In156 O157 2.294 . S
In156 O158 2.326 . S
In156 O162 2.266 . S
In156 O163 2.326 . S
In156 O164 2.266 . S
In156 O165 2.326 . S
In156 O167 2.294 . S
In156 O168 2.326 . S
O157 In156 2.294 . S
O157 C166 1.240 . S
O158 In156 2.326 . S
O158 C166 1.252 . S
C159 O162 1.252 . S
C159 O163 1.260 . S
C160 O167 1.240 . S
C160 O168 1.252 . S
C161 O164 1.252 . S
C161 O165 1.260 . S
O162 In156 2.266 . S
O162 C159 1.252 . S
O163 In156 2.326 . S
O163 C159 1.260 . S
O164 In156 2.266 . S
O164 C161 1.252 . S
O165 In156 2.326 . S
O165 C161 1.260 . S
C166 O157 1.240 . S
C166 O158 1.252 . S
O167 In156 2.294 . S
O167 C160 1.240 . S
O168 In156 2.326 . S
O168 C160 1.252 . S
In169 O170 2.294 . S
In169 O171 2.326 . S
In169 O175 2.266 . S
In169 O176 2.326 . S
In169 O177 2.266 . S
In169 O178 2.326 . S
In169 O180 2.294 . S
In169 O181 2.326 . S
O170 In169 2.294 . S
O170 C179 1.240 . S
O171 In169 2.326 . S
O171 C179 1.252 . S
C172 O175 1.252 . S
C172 O176 1.260 . S
C173 O180 1.240 . S
C173 O181 1.252 . S
C174 O177 1.252 . S
C174 O178 1.260 . S
O175 In169 2.266 . S
O175 C172 1.252 . S
O176 In169 2.326 . S
O176 C172 1.260 . S
O177 In169 2.266 . S
O177 C174 1.252 . S
O178 In169 2.326 . S
O178 C174 1.260 . S
C179 O170 1.240 . S
C179 O171 1.252 . S
O180 In169 2.294 . S
O180 C173 1.240 . S
O181 In169 2.326 . S
O181 C173 1.252 . S
In182 O183 2.294 . S
In182 O184 2.326 . S
In182 O188 2.266 . S
In182 O189 2.326 . S
In182 O190 2.266 . S
In182 O191 2.326 . S
In182 O193 2.294 . S
In182 O194 2.326 . S
O183 In182 2.294 . S
O183 C192 1.240 . S
O184 In182 2.326 . S
O184 C192 1.252 . S
C185 O188 1.252 . S
C185 O189 1.260 . S
C186 O193 1.240 . S
C186 O194 1.252 . S
C187 O190 1.252 . S
C187 O191 1.260 . S
O188 In182 2.266 . S
O188 C185 1.252 . S
O189 In182 2.326 . S
O189 C185 1.260 . S
O190 In182 2.266 . S
O190 C187 1.252 . S
O191 In182 2.326 . S
O191 C187 1.260 . S
C192 O183 1.240 . S
C192 O184 1.252 . S
O193 In182 2.294 . S
O193 C186 1.240 . S
O194 In182 2.326 . S
O194 C186 1.252 . S
In195 O196 2.294 . S
In195 O197 2.326 . S
In195 O201 2.266 . S
In195 O202 2.326 . S
In195 O203 2.266 . S
In195 O204 2.326 . S
In195 O206 2.294 . S
In195 O207 2.326 . S
O196 In195 2.294 . S
O196 C205 1.240 . S
O197 In195 2.326 . S
O197 C205 1.252 . S
C198 O201 1.252 . S
C198 O202 1.260 . S
C199 O206 1.240 . S
C199 O207 1.252 . S
C200 O203 1.252 . S
C200 O204 1.260 . S
O201 In195 2.266 . S
O201 C198 1.252 . S
O202 In195 2.326 . S
O202 C198 1.260 . S
O203 In195 2.266 . S
O203 C200 1.252 . S
O204 In195 2.326 . S
O204 C200 1.260 . S
C205 O196 1.240 . S
C205 O197 1.252 . S
O206 In195 2.294 . S
O206 C199 1.240 . S
O207 In195 2.326 . S
O207 C199 1.252 . S
In208 O209 2.294 . S
In208 O210 2.326 . S
In208 O214 2.266 . S
In208 O215 2.326 . S
In208 O216 2.266 . S
In208 O217 2.326 . S
In208 O219 2.294 . S
In208 O220 2.326 . S
O209 In208 2.294 . S
O209 C218 1.240 . S
O210 In208 2.326 . S
O210 C218 1.252 . S
C211 O214 1.252 . S
C211 O215 1.260 . S
C212 O219 1.240 . S
C212 O220 1.252 . S
C213 O216 1.252 . S
C213 O217 1.260 . S
O214 In208 2.266 . S
O214 C211 1.252 . S
O215 In208 2.326 . S
O215 C211 1.260 . S
O216 In208 2.266 . S
O216 C213 1.252 . S
O217 In208 2.326 . S
O217 C213 1.260 . S
C218 O209 1.240 . S
C218 O210 1.252 . S
O219 In208 2.294 . S
O219 C212 1.240 . S
O220 In208 2.326 . S
O220 C212 1.252 . S
In221 O222 2.294 . S
In221 O223 2.326 . S
In221 O227 2.266 . S
In221 O228 2.326 . S
In221 O229 2.266 . S
In221 O230 2.326 . S
In221 O232 2.294 . S
In221 O233 2.326 . S
O222 In221 2.294 . S
O222 C231 1.240 . S
O223 In221 2.326 . S
O223 C231 1.252 . S
C224 O227 1.252 . S
C224 O228 1.260 . S
C225 O232 1.240 . S
C225 O233 1.252 . S
C226 O229 1.252 . S
C226 O230 1.260 . S
O227 In221 2.266 . S
O227 C224 1.252 . S
O228 In221 2.326 . S
O228 C224 1.260 . S
O229 In221 2.266 . S
O229 C226 1.252 . S
O230 In221 2.326 . S
O230 C226 1.260 . S
C231 O222 1.240 . S
C231 O223 1.252 . S
O232 In221 2.294 . S
O232 C225 1.240 . S
O233 In221 2.326 . S
O233 C225 1.252 . S
In234 O235 2.294 . S
In234 O236 2.326 . S
In234 O240 2.266 . S
In234 O241 2.326 . S
In234 O242 2.266 . S
In234 O243 2.326 . S
In234 O245 2.294 . S
In234 O246 2.326 . S
O235 In234 2.294 . S
O235 C244 1.240 . S
O236 In234 2.326 . S
O236 C244 1.252 . S
C237 O240 1.252 . S
C237 O241 1.260 . S
C238 O245 1.240 . S
C238 O246 1.252 . S
C239 O242 1.252 . S
C239 O243 1.260 . S
O240 In234 2.266 . S
O240 C237 1.252 . S
O241 In234 2.326 . S
O241 C237 1.260 . S
O242 In234 2.266 . S
O242 C239 1.252 . S
O243 In234 2.326 . S
O243 C239 1.260 . S
C244 O235 1.240 . S
C244 O236 1.252 . S
O245 In234 2.294 . S
O245 C238 1.240 . S
O246 In234 2.326 . S
O246 C238 1.252 . S
In247 O248 2.294 . S
In247 O249 2.326 . S
In247 O253 2.266 . S
In247 O254 2.326 . S
In247 O255 2.266 . S
In247 O256 2.326 . S
In247 O258 2.294 . S
In247 O259 2.326 . S
O248 In247 2.294 . S
O248 C257 1.240 . S
O249 In247 2.326 . S
O249 C257 1.252 . S
C250 O253 1.252 . S
C250 O254 1.260 . S
C251 O258 1.240 . S
C251 O259 1.252 . S
C252 O255 1.252 . S
C252 O256 1.260 . S
O253 In247 2.266 . S
O253 C250 1.252 . S
O254 In247 2.326 . S
O254 C250 1.260 . S
O255 In247 2.266 . S
O255 C252 1.252 . S
O256 In247 2.326 . S
O256 C252 1.260 . S
C257 O248 1.240 . S
C257 O249 1.252 . S
O258 In247 2.294 . S
O258 C251 1.240 . S
O259 In247 2.326 . S
O259 C251 1.252 . S
In260 O261 2.294 . S
In260 O262 2.326 . S
In260 O266 2.266 . S
In260 O267 2.326 . S
In260 O268 2.266 . S
In260 O269 2.326 . S
In260 O271 2.294 . S
In260 O272 2.326 . S
O261 In260 2.294 . S
O261 C270 1.240 . S
O262 In260 2.326 . S
O262 C270 1.252 . S
C263 O266 1.252 . S
C263 O267 1.260 . S
C264 O271 1.240 . S
C264 O272 1.252 . S
C265 O268 1.252 . S
C265 O269 1.260 . S
O266 In260 2.266 . S
O266 C263 1.252 . S
O267 In260 2.326 . S
O267 C263 1.260 . S
O268 In260 2.266 . S
O268 C265 1.252 . S
O269 In260 2.326 . S
O269 C265 1.260 . S
C270 O261 1.240 . S
C270 O262 1.252 . S
O271 In260 2.294 . S
O271 C264 1.240 . S
O272 In260 2.326 . S
O272 C264 1.252 . S
In273 O274 2.294 . S
In273 O275 2.326 . S
In273 O279 2.266 . S
In273 O280 2.326 . S
In273 O281 2.266 . S
In273 O282 2.326 . S
In273 O284 2.294 . S
In273 O285 2.326 . S
O274 In273 2.294 . S
O274 C283 1.240 . S
O275 In273 2.326 . S
O275 C283 1.252 . S
C276 O279 1.252 . S
C276 O280 1.260 . S
C277 O284 1.240 . S
C277 O285 1.252 . S
C278 O281 1.252 . S
C278 O282 1.260 . S
O279 In273 2.266 . S
O279 C276 1.252 . S
O280 In273 2.326 . S
O280 C276 1.260 . S
O281 In273 2.266 . S
O281 C278 1.252 . S
O282 In273 2.326 . S
O282 C278 1.260 . S
C283 O274 1.240 . S
C283 O275 1.252 . S
O284 In273 2.294 . S
O284 C277 1.240 . S
O285 In273 2.326 . S
O285 C277 1.252 . S
In286 O287 2.294 . S
In286 O288 2.326 . S
In286 O292 2.266 . S
In286 O293 2.326 . S
In286 O294 2.266 . S
In286 O295 2.326 . S
In286 O297 2.294 . S
In286 O298 2.326 . S
O287 In286 2.294 . S
O287 C296 1.240 . S
O288 In286 2.326 . S
O288 C296 1.252 . S
C289 O292 1.252 . S
C289 O293 1.260 . S
C290 O297 1.240 . S
C290 O298 1.252 . S
C291 O294 1.252 . S
C291 O295 1.260 . S
O292 In286 2.266 . S
O292 C289 1.252 . S
O293 In286 2.326 . S
O293 C289 1.260 . S
O294 In286 2.266 . S
O294 C291 1.252 . S
O295 In286 2.326 . S
O295 C291 1.260 . S
C296 O287 1.240 . S
C296 O288 1.252 . S
O297 In286 2.294 . S
O297 C290 1.240 . S
O298 In286 2.326 . S
O298 C290 1.252 . S
In299 O300 2.294 . S
In299 O301 2.326 . S
In299 O305 2.266 . S
In299 O306 2.326 . S
In299 O307 2.266 . S
In299 O308 2.326 . S
In299 O310 2.294 . S
In299 O311 2.326 . S
O300 In299 2.294 . S
O300 C309 1.240 . S
O301 In299 2.326 . S
O301 C309 1.252 . S
C302 O305 1.252 . S
C302 O306 1.260 . S
C303 O310 1.240 . S
C303 O311 1.252 . S
C304 O307 1.252 . S
C304 O308 1.260 . S
O305 In299 2.266 . S
O305 C302 1.252 . S
O306 In299 2.326 . S
O306 C302 1.260 . S
O307 In299 2.266 . S
O307 C304 1.252 . S
O308 In299 2.326 . S
O308 C304 1.260 . S
C309 O300 1.240 . S
C309 O301 1.252 . S
O310 In299 2.294 . S
O310 C303 1.240 . S
O311 In299 2.326 . S
O311 C303 1.252 . S
In312 O313 2.294 . S
In312 O314 2.326 . S
In312 O318 2.266 . S
In312 O319 2.326 . S
In312 O320 2.266 . S
In312 O321 2.326 . S
In312 O323 2.294 . S
In312 O324 2.326 . S
O313 In312 2.294 . S
O313 C322 1.240 . S
O314 In312 2.326 . S
O314 C322 1.252 . S
C315 O318 1.252 . S
C315 O319 1.260 . S
C316 O323 1.240 . S
C316 O324 1.252 . S
C317 O320 1.252 . S
C317 O321 1.260 . S
O318 In312 2.266 . S
O318 C315 1.252 . S
O319 In312 2.326 . S
O319 C315 1.260 . S
O320 In312 2.266 . S
O320 C317 1.252 . S
O321 In312 2.326 . S
O321 C317 1.260 . S
C322 O313 1.240 . S
C322 O314 1.252 . S
O323 In312 2.294 . S
O323 C316 1.240 . S
O324 In312 2.326 . S
O324 C316 1.252 . S
In325 O326 2.294 . S
In325 O327 2.326 . S
In325 O331 2.266 . S
In325 O332 2.326 . S
In325 O333 2.266 . S
In325 O334 2.326 . S
In325 O336 2.294 . S
In325 O337 2.326 . S
O326 In325 2.294 . S
O326 C335 1.240 . S
O327 In325 2.326 . S
O327 C335 1.252 . S
C328 O331 1.252 . S
C328 O332 1.260 . S
C329 O336 1.240 . S
C329 O337 1.252 . S
C330 O333 1.252 . S
C330 O334 1.260 . S
O331 In325 2.266 . S
O331 C328 1.252 . S
O332 In325 2.326 . S
O332 C328 1.260 . S
O333 In325 2.266 . S
O333 C330 1.252 . S
O334 In325 2.326 . S
O334 C330 1.260 . S
C335 O326 1.240 . S
C335 O327 1.252 . S
O336 In325 2.294 . S
O336 C329 1.240 . S
O337 In325 2.326 . S
O337 C329 1.252 . S
In338 O339 2.294 . S
In338 O340 2.326 . S
In338 O344 2.266 . S
In338 O345 2.326 . S
In338 O346 2.266 . S
In338 O347 2.326 . S
In338 O349 2.294 . S
In338 O350 2.326 . S
O339 In338 2.294 . S
O339 C348 1.240 . S
O340 In338 2.326 . S
O340 C348 1.252 . S
C341 O344 1.252 . S
C341 O345 1.260 . S
C342 O349 1.240 . S
C342 O350 1.252 . S
C343 O346 1.252 . S
C343 O347 1.260 . S
O344 In338 2.266 . S
O344 C341 1.252 . S
O345 In338 2.326 . S
O345 C341 1.260 . S
O346 In338 2.266 . S
O346 C343 1.252 . S
O347 In338 2.326 . S
O347 C343 1.260 . S
C348 O339 1.240 . S
C348 O340 1.252 . S
O349 In338 2.294 . S
O349 C342 1.240 . S
O350 In338 2.326 . S
O350 C342 1.252 . S
In351 O352 2.294 . S
In351 O353 2.326 . S
In351 O357 2.266 . S
In351 O358 2.326 . S
In351 O359 2.266 . S
In351 O360 2.326 . S
In351 O362 2.294 . S
In351 O363 2.326 . S
O352 In351 2.294 . S
O352 C361 1.240 . S
O353 In351 2.326 . S
O353 C361 1.252 . S
C354 O357 1.252 . S
C354 O358 1.260 . S
C355 O362 1.240 . S
C355 O363 1.252 . S
C356 O359 1.252 . S
C356 O360 1.260 . S
O357 In351 2.266 . S
O357 C354 1.252 . S
O358 In351 2.326 . S
O358 C354 1.260 . S
O359 In351 2.266 . S
O359 C356 1.252 . S
O360 In351 2.326 . S
O360 C356 1.260 . S
C361 O352 1.240 . S
C361 O353 1.252 . S
O362 In351 2.294 . S
O362 C355 1.240 . S
O363 In351 2.326 . S
O363 C355 1.252 . S
In364 O365 2.294 . S
In364 O366 2.326 . S
In364 O370 2.266 . S
In364 O371 2.326 . S
In364 O372 2.266 . S
In364 O373 2.326 . S
In364 O375 2.294 . S
In364 O376 2.326 . S
O365 In364 2.294 . S
O365 C374 1.240 . S
O366 In364 2.326 . S
O366 C374 1.252 . S
C367 O370 1.252 . S
C367 O371 1.260 . S
C368 O375 1.240 . S
C368 O376 1.252 . S
C369 O372 1.252 . S
C369 O373 1.260 . S
O370 In364 2.266 . S
O370 C367 1.252 . S
O371 In364 2.326 . S
O371 C367 1.260 . S
O372 In364 2.266 . S
O372 C369 1.252 . S
O373 In364 2.326 . S
O373 C369 1.260 . S
C374 O365 1.240 . S
C374 O366 1.252 . S
O375 In364 2.294 . S
O375 C368 1.240 . S
O376 In364 2.326 . S
O376 C368 1.252 . S
In377 O378 2.294 . S
In377 O379 2.326 . S
In377 O383 2.266 . S
In377 O384 2.326 . S
In377 O385 2.266 . S
In377 O386 2.326 . S
In377 O388 2.294 . S
In377 O389 2.326 . S
O378 In377 2.294 . S
O378 C387 1.240 . S
O379 In377 2.326 . S
O379 C387 1.252 . S
C380 O383 1.252 . S
C380 O384 1.260 . S
C381 O388 1.240 . S
C381 O389 1.252 . S
C382 O385 1.252 . S
C382 O386 1.260 . S
O383 In377 2.266 . S
O383 C380 1.252 . S
O384 In377 2.326 . S
O384 C380 1.260 . S
O385 In377 2.266 . S
O385 C382 1.252 . S
O386 In377 2.326 . S
O386 C382 1.260 . S
C387 O378 1.240 . S
C387 O379 1.252 . S
O388 In377 2.294 . S
O388 C381 1.240 . S
O389 In377 2.326 . S
O389 C381 1.252 . S
In390 O391 2.294 . S
In390 O392 2.326 . S
In390 O396 2.266 . S
In390 O397 2.326 . S
In390 O398 2.266 . S
In390 O399 2.326 . S
In390 O401 2.294 . S
In390 O402 2.326 . S
O391 In390 2.294 . S
O391 C400 1.240 . S
O392 In390 2.326 . S
O392 C400 1.252 . S
C393 O396 1.252 . S
C393 O397 1.260 . S
C394 O401 1.240 . S
C394 O402 1.252 . S
C395 O398 1.252 . S
C395 O399 1.260 . S
O396 In390 2.266 . S
O396 C393 1.252 . S
O397 In390 2.326 . S
O397 C393 1.260 . S
O398 In390 2.266 . S
O398 C395 1.252 . S
O399 In390 2.326 . S
O399 C395 1.260 . S
C400 O391 1.240 . S
C400 O392 1.252 . S
O401 In390 2.294 . S
O401 C394 1.240 . S
O402 In390 2.326 . S
O402 C394 1.252 . S
In403 O404 2.294 . S
In403 O405 2.326 . S
In403 O409 2.266 . S
In403 O410 2.326 . S
In403 O411 2.266 . S
In403 O412 2.326 . S
In403 O414 2.294 . S
In403 O415 2.326 . S
O404 In403 2.294 . S
O404 C413 1.240 . S
O405 In403 2.326 . S
O405 C413 1.252 . S
C406 O409 1.252 . S
C406 O410 1.260 . S
C407 O414 1.240 . S
C407 O415 1.252 . S
C408 O411 1.252 . S
C408 O412 1.260 . S
O409 In403 2.266 . S
O409 C406 1.252 . S
O410 In403 2.326 . S
O410 C406 1.260 . S
O411 In403 2.266 . S
O411 C408 1.252 . S
O412 In403 2.326 . S
O412 C408 1.260 . S
C413 O404 1.240 . S
C413 O405 1.252 . S
O414 In403 2.294 . S
O414 C407 1.240 . S
O415 In403 2.326 . S
O415 C407 1.252 . S
In416 O417 2.294 . S
In416 O418 2.326 . S
In416 O422 2.266 . S
In416 O423 2.326 . S
In416 O424 2.266 . S
In416 O425 2.326 . S
In416 O427 2.294 . S
In416 O428 2.326 . S
O417 In416 2.294 . S
O417 C426 1.240 . S
O418 In416 2.326 . S
O418 C426 1.252 . S
C419 O422 1.252 . S
C419 O423 1.260 . S
C420 O427 1.240 . S
C420 O428 1.252 . S
C421 O424 1.252 . S
C421 O425 1.260 . S
O422 In416 2.266 . S
O422 C419 1.252 . S
O423 In416 2.326 . S
O423 C419 1.260 . S
O424 In416 2.266 . S
O424 C421 1.252 . S
O425 In416 2.326 . S
O425 C421 1.260 . S
C426 O417 1.240 . S
C426 O418 1.252 . S
O427 In416 2.294 . S
O427 C420 1.240 . S
O428 In416 2.326 . S
O428 C420 1.252 . S
In429 O430 2.294 . S
In429 O431 2.326 . S
In429 O435 2.266 . S
In429 O436 2.326 . S
In429 O437 2.266 . S
In429 O438 2.326 . S
In429 O440 2.294 . S
In429 O441 2.326 . S
O430 In429 2.294 . S
O430 C439 1.240 . S
O431 In429 2.326 . S
O431 C439 1.252 . S
C432 O435 1.252 . S
C432 O436 1.260 . S
C433 O440 1.240 . S
C433 O441 1.252 . S
C434 O437 1.252 . S
C434 O438 1.260 . S
O435 In429 2.266 . S
O435 C432 1.252 . S
O436 In429 2.326 . S
O436 C432 1.260 . S
O437 In429 2.266 . S
O437 C434 1.252 . S
O438 In429 2.326 . S
O438 C434 1.260 . S
C439 O430 1.240 . S
C439 O431 1.252 . S
O440 In429 2.294 . S
O440 C433 1.240 . S
O441 In429 2.326 . S
O441 C433 1.252 . S
In442 O443 2.294 . S
In442 O444 2.326 . S
In442 O448 2.266 . S
In442 O449 2.326 . S
In442 O450 2.266 . S
In442 O451 2.326 . S
In442 O453 2.294 . S
In442 O454 2.326 . S
O443 In442 2.294 . S
O443 C452 1.240 . S
O444 In442 2.326 . S
O444 C452 1.252 . S
C445 O448 1.252 . S
C445 O449 1.260 . S
C446 O453 1.240 . S
C446 O454 1.252 . S
C447 O450 1.252 . S
C447 O451 1.260 . S
O448 In442 2.266 . S
O448 C445 1.252 . S
O449 In442 2.326 . S
O449 C445 1.260 . S
O450 In442 2.266 . S
O450 C447 1.252 . S
O451 In442 2.326 . S
O451 C447 1.260 . S
C452 O443 1.240 . S
C452 O444 1.252 . S
O453 In442 2.294 . S
O453 C446 1.240 . S
O454 In442 2.326 . S
O454 C446 1.252 . S
In455 O456 2.294 . S
In455 O457 2.326 . S
In455 O461 2.266 . S
In455 O462 2.326 . S
In455 O463 2.266 . S
In455 O464 2.326 . S
In455 O466 2.294 . S
In455 O467 2.326 . S
O456 In455 2.294 . S
O456 C465 1.240 . S
O457 In455 2.326 . S
O457 C465 1.252 . S
C458 O461 1.252 . S
C458 O462 1.260 . S
C459 O466 1.240 . S
C459 O467 1.252 . S
C460 O463 1.252 . S
C460 O464 1.260 . S
O461 In455 2.266 . S
O461 C458 1.252 . S
O462 In455 2.326 . S
O462 C458 1.260 . S
O463 In455 2.266 . S
O463 C460 1.252 . S
O464 In455 2.326 . S
O464 C460 1.260 . S
C465 O456 1.240 . S
C465 O457 1.252 . S
O466 In455 2.294 . S
O466 C459 1.240 . S
O467 In455 2.326 . S
O467 C459 1.252 . S
In468 O469 2.294 . S
In468 O470 2.326 . S
In468 O474 2.266 . S
In468 O475 2.326 . S
In468 O476 2.266 . S
In468 O477 2.326 . S
In468 O479 2.294 . S
In468 O480 2.326 . S
O469 In468 2.294 . S
O469 C478 1.240 . S
O470 In468 2.326 . S
O470 C478 1.252 . S
C471 O474 1.252 . S
C471 O475 1.260 . S
C472 O479 1.240 . S
C472 O480 1.252 . S
C473 O476 1.252 . S
C473 O477 1.260 . S
O474 In468 2.266 . S
O474 C471 1.252 . S
O475 In468 2.326 . S
O475 C471 1.260 . S
O476 In468 2.266 . S
O476 C473 1.252 . S
O477 In468 2.326 . S
O477 C473 1.260 . S
C478 O469 1.240 . S
C478 O470 1.252 . S
O479 In468 2.294 . S
O479 C472 1.240 . S
O480 In468 2.326 . S
O480 C472 1.252 . S
In481 O482 2.294 . S
In481 O483 2.326 . S
In481 O487 2.266 . S
In481 O488 2.326 . S
In481 O489 2.266 . S
In481 O490 2.326 . S
In481 O492 2.294 . S
In481 O493 2.326 . S
O482 In481 2.294 . S
O482 C491 1.240 . S
O483 In481 2.326 . S
O483 C491 1.252 . S
C484 O487 1.252 . S
C484 O488 1.260 . S
C485 O492 1.240 . S
C485 O493 1.252 . S
C486 O489 1.252 . S
C486 O490 1.260 . S
O487 In481 2.266 . S
O487 C484 1.252 . S
O488 In481 2.326 . S
O488 C484 1.260 . S
O489 In481 2.266 . S
O489 C486 1.252 . S
O490 In481 2.326 . S
O490 C486 1.260 . S
C491 O482 1.240 . S
C491 O483 1.252 . S
O492 In481 2.294 . S
O492 C485 1.240 . S
O493 In481 2.326 . S
O493 C485 1.252 . S
In494 O495 2.294 . S
In494 O496 2.326 . S
In494 O500 2.266 . S
In494 O501 2.326 . S
In494 O502 2.266 . S
In494 O503 2.326 . S
In494 O505 2.294 . S
In494 O506 2.326 . S
O495 In494 2.294 . S
O495 C504 1.240 . S
O496 In494 2.326 . S
O496 C504 1.252 . S
C497 O500 1.252 . S
C497 O501 1.260 . S
C498 O505 1.240 . S
C498 O506 1.252 . S
C499 O502 1.252 . S
C499 O503 1.260 . S
O500 In494 2.266 . S
O500 C497 1.252 . S
O501 In494 2.326 . S
O501 C497 1.260 . S
O502 In494 2.266 . S
O502 C499 1.252 . S
O503 In494 2.326 . S
O503 C499 1.260 . S
C504 O495 1.240 . S
C504 O496 1.252 . S
O505 In494 2.294 . S
O505 C498 1.240 . S
O506 In494 2.326 . S
O506 C498 1.252 . S
In507 O508 2.294 . S
In507 O509 2.326 . S
In507 O513 2.266 . S
In507 O514 2.326 . S
In507 O515 2.266 . S
In507 O516 2.326 . S
In507 O518 2.294 . S
In507 O519 2.326 . S
O508 In507 2.294 . S
O508 C517 1.240 . S
O509 In507 2.326 . S
O509 C517 1.252 . S
C510 O513 1.252 . S
C510 O514 1.260 . S
C511 O518 1.240 . S
C511 O519 1.252 . S
C512 O515 1.252 . S
C512 O516 1.260 . S
O513 In507 2.266 . S
O513 C510 1.252 . S
O514 In507 2.326 . S
O514 C510 1.260 . S
O515 In507 2.266 . S
O515 C512 1.252 . S
O516 In507 2.326 . S
O516 C512 1.260 . S
C517 O508 1.240 . S
C517 O509 1.252 . S
O518 In507 2.294 . S
O518 C511 1.240 . S
O519 In507 2.326 . S
O519 C511 1.252 . S
In520 O521 2.294 . S
In520 O522 2.326 . S
In520 O526 2.266 . S
In520 O527 2.326 . S
In520 O528 2.266 . S
In520 O529 2.326 . S
In520 O531 2.294 . S
In520 O532 2.326 . S
O521 In520 2.294 . S
O521 C530 1.240 . S
O522 In520 2.326 . S
O522 C530 1.252 . S
C523 O526 1.252 . S
C523 O527 1.260 . S
C524 O531 1.240 . S
C524 O532 1.252 . S
C525 O528 1.252 . S
C525 O529 1.260 . S
O526 In520 2.266 . S
O526 C523 1.252 . S
O527 In520 2.326 . S
O527 C523 1.260 . S
O528 In520 2.266 . S
O528 C525 1.252 . S
O529 In520 2.326 . S
O529 C525 1.260 . S
C530 O521 1.240 . S
C530 O522 1.252 . S
O531 In520 2.294 . S
O531 C524 1.240 . S
O532 In520 2.326 . S
O532 C524 1.252 . S
In533 O534 2.294 . S
In533 O535 2.326 . S
In533 O539 2.266 . S
In533 O540 2.326 . S
In533 O541 2.266 . S
In533 O542 2.326 . S
In533 O544 2.294 . S
In533 O545 2.326 . S
O534 In533 2.294 . S
O534 C543 1.240 . S
O535 In533 2.326 . S
O535 C543 1.252 . S
C536 O539 1.252 . S
C536 O540 1.260 . S
C537 O544 1.240 . S
C537 O545 1.252 . S
C538 O541 1.252 . S
C538 O542 1.260 . S
O539 In533 2.266 . S
O539 C536 1.252 . S
O540 In533 2.326 . S
O540 C536 1.260 . S
O541 In533 2.266 . S
O541 C538 1.252 . S
O542 In533 2.326 . S
O542 C538 1.260 . S
C543 O534 1.240 . S
C543 O535 1.252 . S
O544 In533 2.294 . S
O544 C537 1.240 . S
O545 In533 2.326 . S
O545 C537 1.252 . S
In546 O547 2.294 . S
In546 O548 2.326 . S
In546 O552 2.266 . S
In546 O553 2.326 . S
In546 O554 2.266 . S
In546 O555 2.326 . S
In546 O557 2.294 . S
In546 O558 2.326 . S
O547 In546 2.294 . S
O547 C556 1.240 . S
O548 In546 2.326 . S
O548 C556 1.252 . S
C549 O552 1.252 . S
C549 O553 1.260 . S
C550 O557 1.240 . S
C550 O558 1.252 . S
C551 O554 1.252 . S
C551 O555 1.260 . S
O552 In546 2.266 . S
O552 C549 1.252 . S
O553 In546 2.326 . S
O553 C549 1.260 . S
O554 In546 2.266 . S
O554 C551 1.252 . S
O555 In546 2.326 . S
O555 C551 1.260 . S
C556 O547 1.240 . S
C556 O548 1.252 . S
O557 In546 2.294 . S
O557 C550 1.240 . S
O558 In546 2.326 . S
O558 C550 1.252 . S
In559 O560 2.294 . S
In559 O561 2.326 . S
In559 O565 2.266 . S
In559 O566 2.326 . S
In559 O567 2.266 . S
In559 O568 2.326 . S
In559 O570 2.294 . S
In559 O571 2.326 . S
O560 In559 2.294 . S
O560 C569 1.240 . S
O561 In559 2.326 . S
O561 C569 1.252 . S
C562 O565 1.252 . S
C562 O566 1.260 . S
C563 O570 1.240 . S
C563 O571 1.252 . S
C564 O567 1.252 . S
C564 O568 1.260 . S
O565 In559 2.266 . S
O565 C562 1.252 . S
O566 In559 2.326 . S
O566 C562 1.260 . S
O567 In559 2.266 . S
O567 C564 1.252 . S
O568 In559 2.326 . S
O568 C564 1.260 . S
C569 O560 1.240 . S
C569 O561 1.252 . S
O570 In559 2.294 . S
O570 C563 1.240 . S
O571 In559 2.326 . S
O571 C563 1.252 . S
In572 O573 2.294 . S
In572 O574 2.326 . S
In572 O578 2.266 . S
In572 O579 2.326 . S
In572 O580 2.266 . S
In572 O581 2.326 . S
In572 O583 2.294 . S
In572 O584 2.326 . S
O573 In572 2.294 . S
O573 C582 1.240 . S
O574 In572 2.326 . S
O574 C582 1.252 . S
C575 O578 1.252 . S
C575 O579 1.260 . S
C576 O583 1.240 . S
C576 O584 1.252 . S
C577 O580 1.252 . S
C577 O581 1.260 . S
O578 In572 2.266 . S
O578 C575 1.252 . S
O579 In572 2.326 . S
O579 C575 1.260 . S
O580 In572 2.266 . S
O580 C577 1.252 . S
O581 In572 2.326 . S
O581 C577 1.260 . S
C582 O573 1.240 . S
C582 O574 1.252 . S
O583 In572 2.294 . S
O583 C576 1.240 . S
O584 In572 2.326 . S
O584 C576 1.252 . S
In585 O586 2.294 . S
In585 O587 2.326 . S
In585 O591 2.266 . S
In585 O592 2.326 . S
In585 O593 2.266 . S
In585 O594 2.326 . S
In585 O596 2.294 . S
In585 O597 2.326 . S
O586 In585 2.294 . S
O586 C595 1.240 . S
O587 In585 2.326 . S
O587 C595 1.252 . S
C588 O591 1.252 . S
C588 O592 1.260 . S
C589 O596 1.240 . S
C589 O597 1.252 . S
C590 O593 1.252 . S
C590 O594 1.260 . S
O591 In585 2.266 . S
O591 C588 1.252 . S
O592 In585 2.326 . S
O592 C588 1.260 . S
O593 In585 2.266 . S
O593 C590 1.252 . S
O594 In585 2.326 . S
O594 C590 1.260 . S
C595 O586 1.240 . S
C595 O587 1.252 . S
O596 In585 2.294 . S
O596 C589 1.240 . S
O597 In585 2.326 . S
O597 C589 1.252 . S
In598 O599 2.294 . S
In598 O600 2.326 . S
In598 O604 2.266 . S
In598 O605 2.326 . S
In598 O606 2.266 . S
In598 O607 2.326 . S
In598 O609 2.294 . S
In598 O610 2.326 . S
O599 In598 2.294 . S
O599 C608 1.240 . S
O600 In598 2.326 . S
O600 C608 1.252 . S
C601 O604 1.252 . S
C601 O605 1.260 . S
C602 O609 1.240 . S
C602 O610 1.252 . S
C603 O606 1.252 . S
C603 O607 1.260 . S
O604 In598 2.266 . S
O604 C601 1.252 . S
O605 In598 2.326 . S
O605 C601 1.260 . S
O606 In598 2.266 . S
O606 C603 1.252 . S
O607 In598 2.326 . S
O607 C603 1.260 . S
C608 O599 1.240 . S
C608 O600 1.252 . S
O609 In598 2.294 . S
O609 C602 1.240 . S
O610 In598 2.326 . S
O610 C602 1.252 . S
In611 O612 2.294 . S
In611 O613 2.326 . S
In611 O617 2.266 . S
In611 O618 2.326 . S
In611 O619 2.266 . S
In611 O620 2.326 . S
In611 O622 2.294 . S
In611 O623 2.326 . S
O612 In611 2.294 . S
O612 C621 1.240 . S
O613 In611 2.326 . S
O613 C621 1.252 . S
C614 O617 1.252 . S
C614 O618 1.260 . S
C615 O622 1.240 . S
C615 O623 1.252 . S
C616 O619 1.252 . S
C616 O620 1.260 . S
O617 In611 2.266 . S
O617 C614 1.252 . S
O618 In611 2.326 . S
O618 C614 1.260 . S
O619 In611 2.266 . S
O619 C616 1.252 . S
O620 In611 2.326 . S
O620 C616 1.260 . S
C621 O612 1.240 . S
C621 O613 1.252 . S
O622 In611 2.294 . S
O622 C615 1.240 . S
O623 In611 2.326 . S
O623 C615 1.252 . S
H624 C630 0.930 . S
H625 C633 0.930 . S
H626 C634 0.930 . S
H627 C635 0.930 . S
H628 C638 0.930 . S
H629 C639 0.930 . S
C630 H624 0.930 . S
C630 C631 1.355 . S
C630 C632 1.415 . S
C631 C630 1.355 . S
C631 C633 1.419 . S
C632 C630 1.415 . S
C632 C637 1.425 . S
C632 C639 1.409 . S
C633 H625 0.930 . S
C633 C631 1.419 . S
C633 C634 1.362 . S
C634 H626 0.930 . S
C634 C633 1.362 . S
C634 C637 1.409 . S
C635 H627 0.930 . S
C635 C636 1.355 . S
C635 C637 1.415 . S
C636 C635 1.355 . S
C636 C638 1.419 . S
C637 C632 1.425 . S
C637 C634 1.409 . S
C637 C635 1.415 . S
C638 H628 0.930 . S
C638 C636 1.419 . S
C638 C639 1.362 . S
C639 H629 0.930 . S
C639 C632 1.409 . S
C639 C638 1.362 . S
H640 C646 0.930 . S
H641 C649 0.930 . S
H642 C650 0.930 . S
H643 C651 0.930 . S
H644 C654 0.930 . S
H645 C655 0.930 . S
C646 H640 0.930 . S
C646 C647 1.355 . S
C646 C648 1.415 . S
C647 C646 1.355 . S
C647 C649 1.419 . S
C648 C646 1.415 . S
C648 C653 1.425 . S
C648 C655 1.409 . S
C649 H641 0.930 . S
C649 C647 1.419 . S
C649 C650 1.362 . S
C650 H642 0.930 . S
C650 C649 1.362 . S
C650 C653 1.409 . S
C651 H643 0.930 . S
C651 C652 1.355 . S
C651 C653 1.415 . S
C652 C651 1.355 . S
C652 C654 1.419 . S
C653 C648 1.425 . S
C653 C650 1.409 . S
C653 C651 1.415 . S
C654 H644 0.930 . S
C654 C652 1.419 . S
C654 C655 1.362 . S
C655 H645 0.930 . S
C655 C648 1.409 . S
C655 C654 1.362 . S
H656 C662 0.930 . S
H657 C665 0.930 . S
H658 C666 0.930 . S
H659 C667 0.930 . S
H660 C670 0.930 . S
H661 C671 0.930 . S
C662 H656 0.930 . S
C662 C663 1.355 . S
C662 C664 1.415 . S
C663 C662 1.355 . S
C663 C665 1.419 . S
C664 C662 1.415 . S
C664 C669 1.425 . S
C664 C671 1.409 . S
C665 H657 0.930 . S
C665 C663 1.419 . S
C665 C666 1.362 . S
C666 H658 0.930 . S
C666 C665 1.362 . S
C666 C669 1.409 . S
C667 H659 0.930 . S
C667 C668 1.355 . S
C667 C669 1.415 . S
C668 C667 1.355 . S
C668 C670 1.419 . S
C669 C664 1.425 . S
C669 C666 1.409 . S
C669 C667 1.415 . S
C670 H660 0.930 . S
C670 C668 1.419 . S
C670 C671 1.362 . S
C671 H661 0.930 . S
C671 C664 1.409 . S
C671 C670 1.362 . S
H672 C678 0.930 . S
H673 C681 0.930 . S
H674 C682 0.930 . S
H675 C683 0.930 . S
H676 C686 0.930 . S
H677 C687 0.930 . S
C678 H672 0.930 . S
C678 C679 1.355 . S
C678 C680 1.415 . S
C679 C678 1.355 . S
C679 C681 1.419 . S
C680 C678 1.415 . S
C680 C685 1.425 . S
C680 C687 1.409 . S
C681 H673 0.930 . S
C681 C679 1.419 . S
C681 C682 1.362 . S
C682 H674 0.930 . S
C682 C681 1.362 . S
C682 C685 1.409 . S
C683 H675 0.930 . S
C683 C684 1.355 . S
C683 C685 1.415 . S
C684 C683 1.355 . S
C684 C686 1.419 . S
C685 C680 1.425 . S
C685 C682 1.409 . S
C685 C683 1.415 . S
C686 H676 0.930 . S
C686 C684 1.419 . S
C686 C687 1.362 . S
C687 H677 0.930 . S
C687 C680 1.409 . S
C687 C686 1.362 . S
H688 C694 0.930 . S
H689 C697 0.930 . S
H690 C698 0.930 . S
H691 C699 0.930 . S
H692 C702 0.930 . S
H693 C703 0.930 . S
C694 H688 0.930 . S
C694 C695 1.355 . S
C694 C696 1.415 . S
C695 C694 1.355 . S
C695 C697 1.419 . S
C696 C694 1.415 . S
C696 C701 1.425 . S
C696 C703 1.409 . S
C697 H689 0.930 . S
C697 C695 1.419 . S
C697 C698 1.362 . S
C698 H690 0.930 . S
C698 C697 1.362 . S
C698 C701 1.409 . S
C699 H691 0.930 . S
C699 C700 1.355 . S
C699 C701 1.415 . S
C700 C699 1.355 . S
C700 C702 1.419 . S
C701 C696 1.425 . S
C701 C698 1.409 . S
C701 C699 1.415 . S
C702 H692 0.930 . S
C702 C700 1.419 . S
C702 C703 1.362 . S
C703 H693 0.930 . S
C703 C696 1.409 . S
C703 C702 1.362 . S
H704 C710 0.930 . S
H705 C713 0.930 . S
H706 C714 0.930 . S
H707 C715 0.930 . S
H708 C718 0.930 . S
H709 C719 0.930 . S
C710 H704 0.930 . S
C710 C711 1.355 . S
C710 C712 1.415 . S
C711 C710 1.355 . S
C711 C713 1.419 . S
C712 C710 1.415 . S
C712 C717 1.425 . S
C712 C719 1.409 . S
C713 H705 0.930 . S
C713 C711 1.419 . S
C713 C714 1.362 . S
C714 H706 0.930 . S
C714 C713 1.362 . S
C714 C717 1.409 . S
C715 H707 0.930 . S
C715 C716 1.355 . S
C715 C717 1.415 . S
C716 C715 1.355 . S
C716 C718 1.419 . S
C717 C712 1.425 . S
C717 C714 1.409 . S
C717 C715 1.415 . S
C718 H708 0.930 . S
C718 C716 1.419 . S
C718 C719 1.362 . S
C719 H709 0.930 . S
C719 C712 1.409 . S
C719 C718 1.362 . S
H720 C726 0.930 . S
H721 C729 0.930 . S
H722 C730 0.930 . S
H723 C731 0.930 . S
H724 C734 0.930 . S
H725 C735 0.930 . S
C726 H720 0.930 . S
C726 C727 1.355 . S
C726 C728 1.415 . S
C727 C726 1.355 . S
C727 C729 1.419 . S
C728 C726 1.415 . S
C728 C733 1.425 . S
C728 C735 1.409 . S
C729 H721 0.930 . S
C729 C727 1.419 . S
C729 C730 1.362 . S
C730 H722 0.930 . S
C730 C729 1.362 . S
C730 C733 1.409 . S
C731 H723 0.930 . S
C731 C732 1.355 . S
C731 C733 1.415 . S
C732 C731 1.355 . S
C732 C734 1.419 . S
C733 C728 1.425 . S
C733 C730 1.409 . S
C733 C731 1.415 . S
C734 H724 0.930 . S
C734 C732 1.419 . S
C734 C735 1.362 . S
C735 H725 0.930 . S
C735 C728 1.409 . S
C735 C734 1.362 . S
H736 C742 0.930 . S
H737 C745 0.930 . S
H738 C746 0.930 . S
H739 C747 0.930 . S
H740 C750 0.930 . S
H741 C751 0.930 . S
C742 H736 0.930 . S
C742 C743 1.355 . S
C742 C744 1.415 . S
C743 C742 1.355 . S
C743 C745 1.419 . S
C744 C742 1.415 . S
C744 C749 1.425 . S
C744 C751 1.409 . S
C745 H737 0.930 . S
C745 C743 1.419 . S
C745 C746 1.362 . S
C746 H738 0.930 . S
C746 C745 1.362 . S
C746 C749 1.409 . S
C747 H739 0.930 . S
C747 C748 1.355 . S
C747 C749 1.415 . S
C748 C747 1.355 . S
C748 C750 1.419 . S
C749 C744 1.425 . S
C749 C746 1.409 . S
C749 C747 1.415 . S
C750 H740 0.930 . S
C750 C748 1.419 . S
C750 C751 1.362 . S
C751 H741 0.930 . S
C751 C744 1.409 . S
C751 C750 1.362 . S
H752 C758 0.930 . S
H753 C761 0.930 . S
H754 C762 0.930 . S
H755 C763 0.930 . S
H756 C766 0.930 . S
H757 C767 0.930 . S
C758 H752 0.930 . S
C758 C759 1.355 . S
C758 C760 1.415 . S
C759 C758 1.355 . S
C759 C761 1.419 . S
C760 C758 1.415 . S
C760 C765 1.425 . S
C760 C767 1.409 . S
C761 H753 0.930 . S
C761 C759 1.419 . S
C761 C762 1.362 . S
C762 H754 0.930 . S
C762 C761 1.362 . S
C762 C765 1.409 . S
C763 H755 0.930 . S
C763 C764 1.355 . S
C763 C765 1.415 . S
C764 C763 1.355 . S
C764 C766 1.419 . S
C765 C760 1.425 . S
C765 C762 1.409 . S
C765 C763 1.415 . S
C766 H756 0.930 . S
C766 C764 1.419 . S
C766 C767 1.362 . S
C767 H757 0.930 . S
C767 C760 1.409 . S
C767 C766 1.362 . S
H768 C774 0.930 . S
H769 C777 0.930 . S
H770 C778 0.930 . S
H771 C779 0.930 . S
H772 C782 0.930 . S
H773 C783 0.930 . S
C774 H768 0.930 . S
C774 C775 1.355 . S
C774 C776 1.415 . S
C775 C774 1.355 . S
C775 C777 1.419 . S
C776 C774 1.415 . S
C776 C781 1.425 . S
C776 C783 1.409 . S
C777 H769 0.930 . S
C777 C775 1.419 . S
C777 C778 1.362 . S
C778 H770 0.930 . S
C778 C777 1.362 . S
C778 C781 1.409 . S
C779 H771 0.930 . S
C779 C780 1.355 . S
C779 C781 1.415 . S
C780 C779 1.355 . S
C780 C782 1.419 . S
C781 C776 1.425 . S
C781 C778 1.409 . S
C781 C779 1.415 . S
C782 H772 0.930 . S
C782 C780 1.419 . S
C782 C783 1.362 . S
C783 H773 0.930 . S
C783 C776 1.409 . S
C783 C782 1.362 . S
H784 C790 0.930 . S
H785 C793 0.930 . S
H786 C794 0.930 . S
H787 C795 0.930 . S
H788 C798 0.930 . S
H789 C799 0.930 . S
C790 H784 0.930 . S
C790 C791 1.355 . S
C790 C792 1.415 . S
C791 C790 1.355 . S
C791 C793 1.419 . S
C792 C790 1.415 . S
C792 C797 1.425 . S
C792 C799 1.409 . S
C793 H785 0.930 . S
C793 C791 1.419 . S
C793 C794 1.362 . S
C794 H786 0.930 . S
C794 C793 1.362 . S
C794 C797 1.409 . S
C795 H787 0.930 . S
C795 C796 1.355 . S
C795 C797 1.415 . S
C796 C795 1.355 . S
C796 C798 1.419 . S
C797 C792 1.425 . S
C797 C794 1.409 . S
C797 C795 1.415 . S
C798 H788 0.930 . S
C798 C796 1.419 . S
C798 C799 1.362 . S
C799 H789 0.930 . S
C799 C792 1.409 . S
C799 C798 1.362 . S
H800 C806 0.930 . S
H801 C809 0.930 . S
H802 C810 0.930 . S
H803 C811 0.930 . S
H804 C814 0.930 . S
H805 C815 0.930 . S
C806 H800 0.930 . S
C806 C807 1.355 . S
C806 C808 1.415 . S
C807 C806 1.355 . S
C807 C809 1.419 . S
C808 C806 1.415 . S
C808 C813 1.425 . S
C808 C815 1.409 . S
C809 H801 0.930 . S
C809 C807 1.419 . S
C809 C810 1.362 . S
C810 H802 0.930 . S
C810 C809 1.362 . S
C810 C813 1.409 . S
C811 H803 0.930 . S
C811 C812 1.355 . S
C811 C813 1.415 . S
C812 C811 1.355 . S
C812 C814 1.419 . S
C813 C808 1.425 . S
C813 C810 1.409 . S
C813 C811 1.415 . S
C814 H804 0.930 . S
C814 C812 1.419 . S
C814 C815 1.362 . S
C815 H805 0.930 . S
C815 C808 1.409 . S
C815 C814 1.362 . S
H816 C822 0.930 . S
H817 C825 0.930 . S
H818 C826 0.930 . S
H819 C827 0.930 . S
H820 C830 0.930 . S
H821 C831 0.930 . S
C822 H816 0.930 . S
C822 C823 1.355 . S
C822 C824 1.415 . S
C823 C822 1.355 . S
C823 C825 1.419 . S
C824 C822 1.415 . S
C824 C829 1.425 . S
C824 C831 1.409 . S
C825 H817 0.930 . S
C825 C823 1.419 . S
C825 C826 1.362 . S
C826 H818 0.930 . S
C826 C825 1.362 . S
C826 C829 1.409 . S
C827 H819 0.930 . S
C827 C828 1.355 . S
C827 C829 1.415 . S
C828 C827 1.355 . S
C828 C830 1.419 . S
C829 C824 1.425 . S
C829 C826 1.409 . S
C829 C827 1.415 . S
C830 H820 0.930 . S
C830 C828 1.419 . S
C830 C831 1.362 . S
C831 H821 0.930 . S
C831 C824 1.409 . S
C831 C830 1.362 . S
H832 C838 0.930 . S
H833 C841 0.930 . S
H834 C842 0.930 . S
H835 C843 0.930 . S
H836 C846 0.930 . S
H837 C847 0.930 . S
C838 H832 0.930 . S
C838 C839 1.355 . S
C838 C840 1.415 . S
C839 C838 1.355 . S
C839 C841 1.419 . S
C840 C838 1.415 . S
C840 C845 1.425 . S
C840 C847 1.409 . S
C841 H833 0.930 . S
C841 C839 1.419 . S
C841 C842 1.362 . S
C842 H834 0.930 . S
C842 C841 1.362 . S
C842 C845 1.409 . S
C843 H835 0.930 . S
C843 C844 1.355 . S
C843 C845 1.415 . S
C844 C843 1.355 . S
C844 C846 1.419 . S
C845 C840 1.425 . S
C845 C842 1.409 . S
C845 C843 1.415 . S
C846 H836 0.930 . S
C846 C844 1.419 . S
C846 C847 1.362 . S
C847 H837 0.930 . S
C847 C840 1.409 . S
C847 C846 1.362 . S
H848 C854 0.930 . S
H849 C857 0.930 . S
H850 C858 0.930 . S
H851 C859 0.930 . S
H852 C862 0.930 . S
H853 C863 0.930 . S
C854 H848 0.930 . S
C854 C855 1.355 . S
C854 C856 1.415 . S
C855 C854 1.355 . S
C855 C857 1.419 . S
C856 C854 1.415 . S
C856 C861 1.425 . S
C856 C863 1.409 . S
C857 H849 0.930 . S
C857 C855 1.419 . S
C857 C858 1.362 . S
C858 H850 0.930 . S
C858 C857 1.362 . S
C858 C861 1.409 . S
C859 H851 0.930 . S
C859 C860 1.355 . S
C859 C861 1.415 . S
C860 C859 1.355 . S
C860 C862 1.419 . S
C861 C856 1.425 . S
C861 C858 1.409 . S
C861 C859 1.415 . S
C862 H852 0.930 . S
C862 C860 1.419 . S
C862 C863 1.362 . S
C863 H853 0.930 . S
C863 C856 1.409 . S
C863 C862 1.362 . S
H864 C870 0.930 . S
H865 C873 0.930 . S
H866 C874 0.930 . S
H867 C875 0.930 . S
H868 C878 0.930 . S
H869 C879 0.930 . S
C870 H864 0.930 . S
C870 C871 1.355 . S
C870 C872 1.415 . S
C871 C870 1.355 . S
C871 C873 1.419 . S
C872 C870 1.415 . S
C872 C877 1.425 . S
C872 C879 1.409 . S
C873 H865 0.930 . S
C873 C871 1.419 . S
C873 C874 1.362 . S
C874 H866 0.930 . S
C874 C873 1.362 . S
C874 C877 1.409 . S
C875 H867 0.930 . S
C875 C876 1.355 . S
C875 C877 1.415 . S
C876 C875 1.355 . S
C876 C878 1.419 . S
C877 C872 1.425 . S
C877 C874 1.409 . S
C877 C875 1.415 . S
C878 H868 0.930 . S
C878 C876 1.419 . S
C878 C879 1.362 . S
C879 H869 0.930 . S
C879 C872 1.409 . S
C879 C878 1.362 . S
H880 C886 0.930 . S
H881 C889 0.930 . S
H882 C890 0.930 . S
H883 C891 0.930 . S
H884 C894 0.930 . S
H885 C895 0.930 . S
C886 H880 0.930 . S
C886 C887 1.355 . S
C886 C888 1.415 . S
C887 C886 1.355 . S
C887 C889 1.419 . S
C888 C886 1.415 . S
C888 C893 1.425 . S
C888 C895 1.409 . S
C889 H881 0.930 . S
C889 C887 1.419 . S
C889 C890 1.362 . S
C890 H882 0.930 . S
C890 C889 1.362 . S
C890 C893 1.409 . S
C891 H883 0.930 . S
C891 C892 1.355 . S
C891 C893 1.415 . S
C892 C891 1.355 . S
C892 C894 1.419 . S
C893 C888 1.425 . S
C893 C890 1.409 . S
C893 C891 1.415 . S
C894 H884 0.930 . S
C894 C892 1.419 . S
C894 C895 1.362 . S
C895 H885 0.930 . S
C895 C888 1.409 . S
C895 C894 1.362 . S
H896 C902 0.930 . S
H897 C905 0.930 . S
H898 C906 0.930 . S
H899 C907 0.930 . S
H900 C910 0.930 . S
H901 C911 0.930 . S
C902 H896 0.930 . S
C902 C903 1.355 . S
C902 C904 1.415 . S
C903 C902 1.355 . S
C903 C905 1.419 . S
C904 C902 1.415 . S
C904 C909 1.425 . S
C904 C911 1.409 . S
C905 H897 0.930 . S
C905 C903 1.419 . S
C905 C906 1.362 . S
C906 H898 0.930 . S
C906 C905 1.362 . S
C906 C909 1.409 . S
C907 H899 0.930 . S
C907 C908 1.355 . S
C907 C909 1.415 . S
C908 C907 1.355 . S
C908 C910 1.419 . S
C909 C904 1.425 . S
C909 C906 1.409 . S
C909 C907 1.415 . S
C910 H900 0.930 . S
C910 C908 1.419 . S
C910 C911 1.362 . S
C911 H901 0.930 . S
C911 C904 1.409 . S
C911 C910 1.362 . S
H912 C918 0.930 . S
H913 C921 0.930 . S
H914 C922 0.930 . S
H915 C923 0.930 . S
H916 C926 0.930 . S
H917 C927 0.930 . S
C918 H912 0.930 . S
C918 C919 1.355 . S
C918 C920 1.415 . S
C919 C918 1.355 . S
C919 C921 1.419 . S
C920 C918 1.415 . S
C920 C925 1.425 . S
C920 C927 1.409 . S
C921 H913 0.930 . S
C921 C919 1.419 . S
C921 C922 1.362 . S
C922 H914 0.930 . S
C922 C921 1.362 . S
C922 C925 1.409 . S
C923 H915 0.930 . S
C923 C924 1.355 . S
C923 C925 1.415 . S
C924 C923 1.355 . S
C924 C926 1.419 . S
C925 C920 1.425 . S
C925 C922 1.409 . S
C925 C923 1.415 . S
C926 H916 0.930 . S
C926 C924 1.419 . S
C926 C927 1.362 . S
C927 H917 0.930 . S
C927 C920 1.409 . S
C927 C926 1.362 . S
H928 C934 0.930 . S
H929 C937 0.930 . S
H930 C938 0.930 . S
H931 C939 0.930 . S
H932 C942 0.930 . S
H933 C943 0.930 . S
C934 H928 0.930 . S
C934 C935 1.355 . S
C934 C936 1.415 . S
C935 C934 1.355 . S
C935 C937 1.419 . S
C936 C934 1.415 . S
C936 C941 1.425 . S
C936 C943 1.409 . S
C937 H929 0.930 . S
C937 C935 1.419 . S
C937 C938 1.362 . S
C938 H930 0.930 . S
C938 C937 1.362 . S
C938 C941 1.409 . S
C939 H931 0.930 . S
C939 C940 1.355 . S
C939 C941 1.415 . S
C940 C939 1.355 . S
C940 C942 1.419 . S
C941 C936 1.425 . S
C941 C938 1.409 . S
C941 C939 1.415 . S
C942 H932 0.930 . S
C942 C940 1.419 . S
C942 C943 1.362 . S
C943 H933 0.930 . S
C943 C936 1.409 . S
C943 C942 1.362 . S
H944 C950 0.930 . S
H945 C953 0.930 . S
H946 C954 0.930 . S
H947 C955 0.930 . S
H948 C958 0.930 . S
H949 C959 0.930 . S
C950 H944 0.930 . S
C950 C951 1.355 . S
C950 C952 1.415 . S
C951 C950 1.355 . S
C951 C953 1.419 . S
C952 C950 1.415 . S
C952 C957 1.425 . S
C952 C959 1.409 . S
C953 H945 0.930 . S
C953 C951 1.419 . S
C953 C954 1.362 . S
C954 H946 0.930 . S
C954 C953 1.362 . S
C954 C957 1.409 . S
C955 H947 0.930 . S
C955 C956 1.355 . S
C955 C957 1.415 . S
C956 C955 1.355 . S
C956 C958 1.419 . S
C957 C952 1.425 . S
C957 C954 1.409 . S
C957 C955 1.415 . S
C958 H948 0.930 . S
C958 C956 1.419 . S
C958 C959 1.362 . S
C959 H949 0.930 . S
C959 C952 1.409 . S
C959 C958 1.362 . S
H960 C966 0.930 . S
H961 C969 0.930 . S
H962 C970 0.930 . S
H963 C971 0.930 . S
H964 C974 0.930 . S
H965 C975 0.930 . S
C966 H960 0.930 . S
C966 C967 1.355 . S
C966 C968 1.415 . S
C967 C966 1.355 . S
C967 C969 1.419 . S
C968 C966 1.415 . S
C968 C973 1.425 . S
C968 C975 1.409 . S
C969 H961 0.930 . S
C969 C967 1.419 . S
C969 C970 1.362 . S
C970 H962 0.930 . S
C970 C969 1.362 . S
C970 C973 1.409 . S
C971 H963 0.930 . S
C971 C972 1.355 . S
C971 C973 1.415 . S
C972 C971 1.355 . S
C972 C974 1.419 . S
C973 C968 1.425 . S
C973 C970 1.409 . S
C973 C971 1.415 . S
C974 H964 0.930 . S
C974 C972 1.419 . S
C974 C975 1.362 . S
C975 H965 0.930 . S
C975 C968 1.409 . S
C975 C974 1.362 . S
H976 C982 0.930 . S
H977 C985 0.930 . S
H978 C986 0.930 . S
H979 C987 0.930 . S
H980 C990 0.930 . S
H981 C991 0.930 . S
C982 H976 0.930 . S
C982 C983 1.355 . S
C982 C984 1.415 . S
C983 C982 1.355 . S
C983 C985 1.419 . S
C984 C982 1.415 . S
C984 C989 1.425 . S
C984 C991 1.409 . S
C985 H977 0.930 . S
C985 C983 1.419 . S
C985 C986 1.362 . S
C986 H978 0.930 . S
C986 C985 1.362 . S
C986 C989 1.409 . S
C987 H979 0.930 . S
C987 C988 1.355 . S
C987 C989 1.415 . S
C988 C987 1.355 . S
C988 C990 1.419 . S
C989 C984 1.425 . S
C989 C986 1.409 . S
C989 C987 1.415 . S
C990 H980 0.930 . S
C990 C988 1.419 . S
C990 C991 1.362 . S
C991 H981 0.930 . S
C991 C984 1.409 . S
C991 C990 1.362 . S
H992 C998 0.930 . S
H993 C1001 0.930 . S
H994 C1002 0.930 . S
H995 C1003 0.930 . S
H996 C1006 0.930 . S
H997 C1007 0.930 . S
C998 H992 0.930 . S
C998 C999 1.355 . S
C998 C1000 1.415 . S
C999 C998 1.355 . S
C999 C1001 1.419 . S
C1000 C998 1.415 . S
C1000 C1005 1.425 . S
C1000 C1007 1.409 . S
C1001 H993 0.930 . S
C1001 C999 1.419 . S
C1001 C1002 1.362 . S
C1002 H994 0.930 . S
C1002 C1001 1.362 . S
C1002 C1005 1.409 . S
C1003 H995 0.930 . S
C1003 C1004 1.355 . S
C1003 C1005 1.415 . S
C1004 C1003 1.355 . S
C1004 C1006 1.419 . S
C1005 C1000 1.425 . S
C1005 C1002 1.409 . S
C1005 C1003 1.415 . S
C1006 H996 0.930 . S
C1006 C1004 1.419 . S
C1006 C1007 1.362 . S
C1007 H997 0.930 . S
C1007 C1000 1.409 . S
C1007 C1006 1.362 . S
H1008 C1014 0.930 . S
H1009 C1017 0.930 . S
H1010 C1018 0.930 . S
H1011 C1019 0.930 . S
H1012 C1022 0.930 . S
H1013 C1023 0.930 . S
C1014 H1008 0.930 . S
C1014 C1015 1.355 . S
C1014 C1016 1.415 . S
C1015 C1014 1.355 . S
C1015 C1017 1.419 . S
C1016 C1014 1.415 . S
C1016 C1021 1.425 . S
C1016 C1023 1.409 . S
C1017 H1009 0.930 . S
C1017 C1015 1.419 . S
C1017 C1018 1.362 . S
C1018 H1010 0.930 . S
C1018 C1017 1.362 . S
C1018 C1021 1.409 . S
C1019 H1011 0.930 . S
C1019 C1020 1.355 . S
C1019 C1021 1.415 . S
C1020 C1019 1.355 . S
C1020 C1022 1.419 . S
C1021 C1016 1.425 . S
C1021 C1018 1.409 . S
C1021 C1019 1.415 . S
C1022 H1012 0.930 . S
C1022 C1020 1.419 . S
C1022 C1023 1.362 . S
C1023 H1013 0.930 . S
C1023 C1016 1.409 . S
C1023 C1022 1.362 . S
H1024 C1030 0.930 . S
H1025 C1033 0.930 . S
H1026 C1034 0.930 . S
H1027 C1035 0.930 . S
H1028 C1038 0.930 . S
H1029 C1039 0.930 . S
C1030 H1024 0.930 . S
C1030 C1031 1.355 . S
C1030 C1032 1.415 . S
C1031 C1030 1.355 . S
C1031 C1033 1.419 . S
C1032 C1030 1.415 . S
C1032 C1037 1.425 . S
C1032 C1039 1.409 . S
C1033 H1025 0.930 . S
C1033 C1031 1.419 . S
C1033 C1034 1.362 . S
C1034 H1026 0.930 . S
C1034 C1033 1.362 . S
C1034 C1037 1.409 . S
C1035 H1027 0.930 . S
C1035 C1036 1.355 . S
C1035 C1037 1.415 . S
C1036 C1035 1.355 . S
C1036 C1038 1.419 . S
C1037 C1032 1.425 . S
C1037 C1034 1.409 . S
C1037 C1035 1.415 . S
C1038 H1028 0.930 . S
C1038 C1036 1.419 . S
C1038 C1039 1.362 . S
C1039 H1029 0.930 . S
C1039 C1032 1.409 . S
C1039 C1038 1.362 . S
H1040 C1046 0.930 . S
H1041 C1049 0.930 . S
H1042 C1050 0.930 . S
H1043 C1051 0.930 . S
H1044 C1054 0.930 . S
H1045 C1055 0.930 . S
C1046 H1040 0.930 . S
C1046 C1047 1.355 . S
C1046 C1048 1.415 . S
C1047 C1046 1.355 . S
C1047 C1049 1.419 . S
C1048 C1046 1.415 . S
C1048 C1053 1.425 . S
C1048 C1055 1.409 . S
C1049 H1041 0.930 . S
C1049 C1047 1.419 . S
C1049 C1050 1.362 . S
C1050 H1042 0.930 . S
C1050 C1049 1.362 . S
C1050 C1053 1.409 . S
C1051 H1043 0.930 . S
C1051 C1052 1.355 . S
C1051 C1053 1.415 . S
C1052 C1051 1.355 . S
C1052 C1054 1.419 . S
C1053 C1048 1.425 . S
C1053 C1050 1.409 . S
C1053 C1051 1.415 . S
C1054 H1044 0.930 . S
C1054 C1052 1.419 . S
C1054 C1055 1.362 . S
C1055 H1045 0.930 . S
C1055 C1048 1.409 . S
C1055 C1054 1.362 . S
H1056 C1062 0.930 . S
H1057 C1065 0.930 . S
H1058 C1066 0.930 . S
H1059 C1067 0.930 . S
H1060 C1070 0.930 . S
H1061 C1071 0.930 . S
C1062 H1056 0.930 . S
C1062 C1063 1.355 . S
C1062 C1064 1.415 . S
C1063 C1062 1.355 . S
C1063 C1065 1.419 . S
C1064 C1062 1.415 . S
C1064 C1069 1.425 . S
C1064 C1071 1.409 . S
C1065 H1057 0.930 . S
C1065 C1063 1.419 . S
C1065 C1066 1.362 . S
C1066 H1058 0.930 . S
C1066 C1065 1.362 . S
C1066 C1069 1.409 . S
C1067 H1059 0.930 . S
C1067 C1068 1.355 . S
C1067 C1069 1.415 . S
C1068 C1067 1.355 . S
C1068 C1070 1.419 . S
C1069 C1064 1.425 . S
C1069 C1066 1.409 . S
C1069 C1067 1.415 . S
C1070 H1060 0.930 . S
C1070 C1068 1.419 . S
C1070 C1071 1.362 . S
C1071 H1061 0.930 . S
C1071 C1064 1.409 . S
C1071 C1070 1.362 . S
H1072 C1078 0.930 . S
H1073 C1081 0.930 . S
H1074 C1082 0.930 . S
H1075 C1083 0.930 . S
H1076 C1086 0.930 . S
H1077 C1087 0.930 . S
C1078 H1072 0.930 . S
C1078 C1079 1.355 . S
C1078 C1080 1.415 . S
C1079 C1078 1.355 . S
C1079 C1081 1.419 . S
C1080 C1078 1.415 . S
C1080 C1085 1.425 . S
C1080 C1087 1.409 . S
C1081 H1073 0.930 . S
C1081 C1079 1.419 . S
C1081 C1082 1.362 . S
C1082 H1074 0.930 . S
C1082 C1081 1.362 . S
C1082 C1085 1.409 . S
C1083 H1075 0.930 . S
C1083 C1084 1.355 . S
C1083 C1085 1.415 . S
C1084 C1083 1.355 . S
C1084 C1086 1.419 . S
C1085 C1080 1.425 . S
C1085 C1082 1.409 . S
C1085 C1083 1.415 . S
C1086 H1076 0.930 . S
C1086 C1084 1.419 . S
C1086 C1087 1.362 . S
C1087 H1077 0.930 . S
C1087 C1080 1.409 . S
C1087 C1086 1.362 . S
H1088 C1094 0.930 . S
H1089 C1097 0.930 . S
H1090 C1098 0.930 . S
H1091 C1099 0.930 . S
H1092 C1102 0.930 . S
H1093 C1103 0.930 . S
C1094 H1088 0.930 . S
C1094 C1095 1.355 . S
C1094 C1096 1.415 . S
C1095 C1094 1.355 . S
C1095 C1097 1.419 . S
C1096 C1094 1.415 . S
C1096 C1101 1.425 . S
C1096 C1103 1.409 . S
C1097 H1089 0.930 . S
C1097 C1095 1.419 . S
C1097 C1098 1.362 . S
C1098 H1090 0.930 . S
C1098 C1097 1.362 . S
C1098 C1101 1.409 . S
C1099 H1091 0.930 . S
C1099 C1100 1.355 . S
C1099 C1101 1.415 . S
C1100 C1099 1.355 . S
C1100 C1102 1.419 . S
C1101 C1096 1.425 . S
C1101 C1098 1.409 . S
C1101 C1099 1.415 . S
C1102 H1092 0.930 . S
C1102 C1100 1.419 . S
C1102 C1103 1.362 . S
C1103 H1093 0.930 . S
C1103 C1096 1.409 . S
C1103 C1102 1.362 . S
H1104 C1110 0.930 . S
H1105 C1113 0.930 . S
H1106 C1114 0.930 . S
H1107 C1115 0.930 . S
H1108 C1118 0.930 . S
H1109 C1119 0.930 . S
C1110 H1104 0.930 . S
C1110 C1111 1.355 . S
C1110 C1112 1.415 . S
C1111 C1110 1.355 . S
C1111 C1113 1.419 . S
C1112 C1110 1.415 . S
C1112 C1117 1.425 . S
C1112 C1119 1.409 . S
C1113 H1105 0.930 . S
C1113 C1111 1.419 . S
C1113 C1114 1.362 . S
C1114 H1106 0.930 . S
C1114 C1113 1.362 . S
C1114 C1117 1.409 . S
C1115 H1107 0.930 . S
C1115 C1116 1.355 . S
C1115 C1117 1.415 . S
C1116 C1115 1.355 . S
C1116 C1118 1.419 . S
C1117 C1112 1.425 . S
C1117 C1114 1.409 . S
C1117 C1115 1.415 . S
C1118 H1108 0.930 . S
C1118 C1116 1.419 . S
C1118 C1119 1.362 . S
C1119 H1109 0.930 . S
C1119 C1112 1.409 . S
C1119 C1118 1.362 . S
H1120 C1126 0.930 . S
H1121 C1129 0.930 . S
H1122 C1130 0.930 . S
H1123 C1131 0.930 . S
H1124 C1134 0.930 . S
H1125 C1135 0.930 . S
C1126 H1120 0.930 . S
C1126 C1127 1.355 . S
C1126 C1128 1.415 . S
C1127 C1126 1.355 . S
C1127 C1129 1.419 . S
C1128 C1126 1.415 . S
C1128 C1133 1.425 . S
C1128 C1135 1.409 . S
C1129 H1121 0.930 . S
C1129 C1127 1.419 . S
C1129 C1130 1.362 . S
C1130 H1122 0.930 . S
C1130 C1129 1.362 . S
C1130 C1133 1.409 . S
C1131 H1123 0.930 . S
C1131 C1132 1.355 . S
C1131 C1133 1.415 . S
C1132 C1131 1.355 . S
C1132 C1134 1.419 . S
C1133 C1128 1.425 . S
C1133 C1130 1.409 . S
C1133 C1131 1.415 . S
C1134 H1124 0.930 . S
C1134 C1132 1.419 . S
C1134 C1135 1.362 . S
C1135 H1125 0.930 . S
C1135 C1128 1.409 . S
C1135 C1134 1.362 . S
H1136 C1142 0.930 . S
H1137 C1145 0.930 . S
H1138 C1146 0.930 . S
H1139 C1147 0.930 . S
H1140 C1150 0.930 . S
H1141 C1151 0.930 . S
C1142 H1136 0.930 . S
C1142 C1143 1.355 . S
C1142 C1144 1.415 . S
C1143 C1142 1.355 . S
C1143 C1145 1.419 . S
C1144 C1142 1.415 . S
C1144 C1149 1.425 . S
C1144 C1151 1.409 . S
C1145 H1137 0.930 . S
C1145 C1143 1.419 . S
C1145 C1146 1.362 . S
C1146 H1138 0.930 . S
C1146 C1145 1.362 . S
C1146 C1149 1.409 . S
C1147 H1139 0.930 . S
C1147 C1148 1.355 . S
C1147 C1149 1.415 . S
C1148 C1147 1.355 . S
C1148 C1150 1.419 . S
C1149 C1144 1.425 . S
C1149 C1146 1.409 . S
C1149 C1147 1.415 . S
C1150 H1140 0.930 . S
C1150 C1148 1.419 . S
C1150 C1151 1.362 . S
C1151 H1141 0.930 . S
C1151 C1144 1.409 . S
C1151 C1150 1.362 . S
H1152 C1158 0.930 . S
H1153 C1161 0.930 . S
H1154 C1162 0.930 . S
H1155 C1163 0.930 . S
H1156 C1166 0.930 . S
H1157 C1167 0.930 . S
C1158 H1152 0.930 . S
C1158 C1159 1.355 . S
C1158 C1160 1.415 . S
C1159 C1158 1.355 . S
C1159 C1161 1.419 . S
C1160 C1158 1.415 . S
C1160 C1165 1.425 . S
C1160 C1167 1.409 . S
C1161 H1153 0.930 . S
C1161 C1159 1.419 . S
C1161 C1162 1.362 . S
C1162 H1154 0.930 . S
C1162 C1161 1.362 . S
C1162 C1165 1.409 . S
C1163 H1155 0.930 . S
C1163 C1164 1.355 . S
C1163 C1165 1.415 . S
C1164 C1163 1.355 . S
C1164 C1166 1.419 . S
C1165 C1160 1.425 . S
C1165 C1162 1.409 . S
C1165 C1163 1.415 . S
C1166 H1156 0.930 . S
C1166 C1164 1.419 . S
C1166 C1167 1.362 . S
C1167 H1157 0.930 . S
C1167 C1160 1.409 . S
C1167 C1166 1.362 . S
H1168 C1174 0.930 . S
H1169 C1177 0.930 . S
H1170 C1178 0.930 . S
H1171 C1179 0.930 . S
H1172 C1182 0.930 . S
H1173 C1183 0.930 . S
C1174 H1168 0.930 . S
C1174 C1175 1.355 . S
C1174 C1176 1.415 . S
C1175 C1174 1.355 . S
C1175 C1177 1.419 . S
C1176 C1174 1.415 . S
C1176 C1181 1.425 . S
C1176 C1183 1.409 . S
C1177 H1169 0.930 . S
C1177 C1175 1.419 . S
C1177 C1178 1.362 . S
C1178 H1170 0.930 . S
C1178 C1177 1.362 . S
C1178 C1181 1.409 . S
C1179 H1171 0.930 . S
C1179 C1180 1.355 . S
C1179 C1181 1.415 . S
C1180 C1179 1.355 . S
C1180 C1182 1.419 . S
C1181 C1176 1.425 . S
C1181 C1178 1.409 . S
C1181 C1179 1.415 . S
C1182 H1172 0.930 . S
C1182 C1180 1.419 . S
C1182 C1183 1.362 . S
C1183 H1173 0.930 . S
C1183 C1176 1.409 . S
C1183 C1182 1.362 . S
H1184 C1190 0.930 . S
H1185 C1193 0.930 . S
H1186 C1194 0.930 . S
H1187 C1195 0.930 . S
H1188 C1198 0.930 . S
H1189 C1199 0.930 . S
C1190 H1184 0.930 . S
C1190 C1191 1.355 . S
C1190 C1192 1.415 . S
C1191 C1190 1.355 . S
C1191 C1193 1.419 . S
C1192 C1190 1.415 . S
C1192 C1197 1.425 . S
C1192 C1199 1.409 . S
C1193 H1185 0.930 . S
C1193 C1191 1.419 . S
C1193 C1194 1.362 . S
C1194 H1186 0.930 . S
C1194 C1193 1.362 . S
C1194 C1197 1.409 . S
C1195 H1187 0.930 . S
C1195 C1196 1.355 . S
C1195 C1197 1.415 . S
C1196 C1195 1.355 . S
C1196 C1198 1.419 . S
C1197 C1192 1.425 . S
C1197 C1194 1.409 . S
C1197 C1195 1.415 . S
C1198 H1188 0.930 . S
C1198 C1196 1.419 . S
C1198 C1199 1.362 . S
C1199 H1189 0.930 . S
C1199 C1192 1.409 . S
C1199 C1198 1.362 . S
H1200 C1206 0.930 . S
H1201 C1209 0.930 . S
H1202 C1210 0.930 . S
H1203 C1211 0.930 . S
H1204 C1214 0.930 . S
H1205 C1215 0.930 . S
C1206 H1200 0.930 . S
C1206 C1207 1.355 . S
C1206 C1208 1.415 . S
C1207 C1206 1.355 . S
C1207 C1209 1.419 . S
C1208 C1206 1.415 . S
C1208 C1213 1.425 . S
C1208 C1215 1.409 . S
C1209 H1201 0.930 . S
C1209 C1207 1.419 . S
C1209 C1210 1.362 . S
C1210 H1202 0.930 . S
C1210 C1209 1.362 . S
C1210 C1213 1.409 . S
C1211 H1203 0.930 . S
C1211 C1212 1.355 . S
C1211 C1213 1.415 . S
C1212 C1211 1.355 . S
C1212 C1214 1.419 . S
C1213 C1208 1.425 . S
C1213 C1210 1.409 . S
C1213 C1211 1.415 . S
C1214 H1204 0.930 . S
C1214 C1212 1.419 . S
C1214 C1215 1.362 . S
C1215 H1205 0.930 . S
C1215 C1208 1.409 . S
C1215 C1214 1.362 . S
H1216 C1222 0.930 . S
H1217 C1225 0.930 . S
H1218 C1226 0.930 . S
H1219 C1227 0.930 . S
H1220 C1230 0.930 . S
H1221 C1231 0.930 . S
C1222 H1216 0.930 . S
C1222 C1223 1.355 . S
C1222 C1224 1.415 . S
C1223 C1222 1.355 . S
C1223 C1225 1.419 . S
C1224 C1222 1.415 . S
C1224 C1229 1.425 . S
C1224 C1231 1.409 . S
C1225 H1217 0.930 . S
C1225 C1223 1.419 . S
C1225 C1226 1.362 . S
C1226 H1218 0.930 . S
C1226 C1225 1.362 . S
C1226 C1229 1.409 . S
C1227 H1219 0.930 . S
C1227 C1228 1.355 . S
C1227 C1229 1.415 . S
C1228 C1227 1.355 . S
C1228 C1230 1.419 . S
C1229 C1224 1.425 . S
C1229 C1226 1.409 . S
C1229 C1227 1.415 . S
C1230 H1220 0.930 . S
C1230 C1228 1.419 . S
C1230 C1231 1.362 . S
C1231 H1221 0.930 . S
C1231 C1224 1.409 . S
C1231 C1230 1.362 . S
H1232 C1238 0.930 . S
H1233 C1241 0.930 . S
H1234 C1242 0.930 . S
H1235 C1243 0.930 . S
H1236 C1246 0.930 . S
H1237 C1247 0.930 . S
C1238 H1232 0.930 . S
C1238 C1239 1.355 . S
C1238 C1240 1.415 . S
C1239 C1238 1.355 . S
C1239 C1241 1.419 . S
C1240 C1238 1.415 . S
C1240 C1245 1.425 . S
C1240 C1247 1.409 . S
C1241 H1233 0.930 . S
C1241 C1239 1.419 . S
C1241 C1242 1.362 . S
C1242 H1234 0.930 . S
C1242 C1241 1.362 . S
C1242 C1245 1.409 . S
C1243 H1235 0.930 . S
C1243 C1244 1.355 . S
C1243 C1245 1.415 . S
C1244 C1243 1.355 . S
C1244 C1246 1.419 . S
C1245 C1240 1.425 . S
C1245 C1242 1.409 . S
C1245 C1243 1.415 . S
C1246 H1236 0.930 . S
C1246 C1244 1.419 . S
C1246 C1247 1.362 . S
C1247 H1237 0.930 . S
C1247 C1240 1.409 . S
C1247 C1246 1.362 . S
H1248 C1254 0.930 . S
H1249 C1257 0.930 . S
H1250 C1258 0.930 . S
H1251 C1259 0.930 . S
H1252 C1262 0.930 . S
H1253 C1263 0.930 . S
C1254 H1248 0.930 . S
C1254 C1255 1.355 . S
C1254 C1256 1.415 . S
C1255 C1254 1.355 . S
C1255 C1257 1.419 . S
C1256 C1254 1.415 . S
C1256 C1261 1.425 . S
C1256 C1263 1.409 . S
C1257 H1249 0.930 . S
C1257 C1255 1.419 . S
C1257 C1258 1.362 . S
C1258 H1250 0.930 . S
C1258 C1257 1.362 . S
C1258 C1261 1.409 . S
C1259 H1251 0.930 . S
C1259 C1260 1.355 . S
C1259 C1261 1.415 . S
C1260 C1259 1.355 . S
C1260 C1262 1.419 . S
C1261 C1256 1.425 . S
C1261 C1258 1.409 . S
C1261 C1259 1.415 . S
C1262 H1252 0.930 . S
C1262 C1260 1.419 . S
C1262 C1263 1.362 . S
C1263 H1253 0.930 . S
C1263 C1256 1.409 . S
C1263 C1262 1.362 . S
H1264 C1270 0.930 . S
H1265 C1273 0.930 . S
H1266 C1274 0.930 . S
H1267 C1275 0.930 . S
H1268 C1278 0.930 . S
H1269 C1279 0.930 . S
C1270 H1264 0.930 . S
C1270 C1271 1.355 . S
C1270 C1272 1.415 . S
C1271 C1270 1.355 . S
C1271 C1273 1.419 . S
C1272 C1270 1.415 . S
C1272 C1277 1.425 . S
C1272 C1279 1.409 . S
C1273 H1265 0.930 . S
C1273 C1271 1.419 . S
C1273 C1274 1.362 . S
C1274 H1266 0.930 . S
C1274 C1273 1.362 . S
C1274 C1277 1.409 . S
C1275 H1267 0.930 . S
C1275 C1276 1.355 . S
C1275 C1277 1.415 . S
C1276 C1275 1.355 . S
C1276 C1278 1.419 . S
C1277 C1272 1.425 . S
C1277 C1274 1.409 . S
C1277 C1275 1.415 . S
C1278 H1268 0.930 . S
C1278 C1276 1.419 . S
C1278 C1279 1.362 . S
C1279 H1269 0.930 . S
C1279 C1272 1.409 . S
C1279 C1278 1.362 . S
H1280 C1286 0.930 . S
H1281 C1289 0.930 . S
H1282 C1290 0.930 . S
H1283 C1291 0.930 . S
H1284 C1294 0.930 . S
H1285 C1295 0.930 . S
C1286 H1280 0.930 . S
C1286 C1287 1.355 . S
C1286 C1288 1.415 . S
C1287 C1286 1.355 . S
C1287 C1289 1.419 . S
C1288 C1286 1.415 . S
C1288 C1293 1.425 . S
C1288 C1295 1.409 . S
C1289 H1281 0.930 . S
C1289 C1287 1.419 . S
C1289 C1290 1.362 . S
C1290 H1282 0.930 . S
C1290 C1289 1.362 . S
C1290 C1293 1.409 . S
C1291 H1283 0.930 . S
C1291 C1292 1.355 . S
C1291 C1293 1.415 . S
C1292 C1291 1.355 . S
C1292 C1294 1.419 . S
C1293 C1288 1.425 . S
C1293 C1290 1.409 . S
C1293 C1291 1.415 . S
C1294 H1284 0.930 . S
C1294 C1292 1.419 . S
C1294 C1295 1.362 . S
C1295 H1285 0.930 . S
C1295 C1288 1.409 . S
C1295 C1294 1.362 . S
H1296 C1302 0.930 . S
H1297 C1305 0.930 . S
H1298 C1306 0.930 . S
H1299 C1307 0.930 . S
H1300 C1310 0.930 . S
H1301 C1311 0.930 . S
C1302 H1296 0.930 . S
C1302 C1303 1.355 . S
C1302 C1304 1.415 . S
C1303 C1302 1.355 . S
C1303 C1305 1.419 . S
C1304 C1302 1.415 . S
C1304 C1309 1.425 . S
C1304 C1311 1.409 . S
C1305 H1297 0.930 . S
C1305 C1303 1.419 . S
C1305 C1306 1.362 . S
C1306 H1298 0.930 . S
C1306 C1305 1.362 . S
C1306 C1309 1.409 . S
C1307 H1299 0.930 . S
C1307 C1308 1.355 . S
C1307 C1309 1.415 . S
C1308 C1307 1.355 . S
C1308 C1310 1.419 . S
C1309 C1304 1.425 . S
C1309 C1306 1.409 . S
C1309 C1307 1.415 . S
C1310 H1300 0.930 . S
C1310 C1308 1.419 . S
C1310 C1311 1.362 . S
C1311 H1301 0.930 . S
C1311 C1304 1.409 . S
C1311 C1310 1.362 . S
H1312 C1318 0.930 . S
H1313 C1321 0.930 . S
H1314 C1322 0.930 . S
H1315 C1323 0.930 . S
H1316 C1326 0.930 . S
H1317 C1327 0.930 . S
C1318 H1312 0.930 . S
C1318 C1319 1.355 . S
C1318 C1320 1.415 . S
C1319 C1318 1.355 . S
C1319 C1321 1.419 . S
C1320 C1318 1.415 . S
C1320 C1325 1.425 . S
C1320 C1327 1.409 . S
C1321 H1313 0.930 . S
C1321 C1319 1.419 . S
C1321 C1322 1.362 . S
C1322 H1314 0.930 . S
C1322 C1321 1.362 . S
C1322 C1325 1.409 . S
C1323 H1315 0.930 . S
C1323 C1324 1.355 . S
C1323 C1325 1.415 . S
C1324 C1323 1.355 . S
C1324 C1326 1.419 . S
C1325 C1320 1.425 . S
C1325 C1322 1.409 . S
C1325 C1323 1.415 . S
C1326 H1316 0.930 . S
C1326 C1324 1.419 . S
C1326 C1327 1.362 . S
C1327 H1317 0.930 . S
C1327 C1320 1.409 . S
C1327 C1326 1.362 . S
H1328 C1334 0.930 . S
H1329 C1337 0.930 . S
H1330 C1338 0.930 . S
H1331 C1339 0.930 . S
H1332 C1342 0.930 . S
H1333 C1343 0.930 . S
C1334 H1328 0.930 . S
C1334 C1335 1.355 . S
C1334 C1336 1.415 . S
C1335 C1334 1.355 . S
C1335 C1337 1.419 . S
C1336 C1334 1.415 . S
C1336 C1341 1.425 . S
C1336 C1343 1.409 . S
C1337 H1329 0.930 . S
C1337 C1335 1.419 . S
C1337 C1338 1.362 . S
C1338 H1330 0.930 . S
C1338 C1337 1.362 . S
C1338 C1341 1.409 . S
C1339 H1331 0.930 . S
C1339 C1340 1.355 . S
C1339 C1341 1.415 . S
C1340 C1339 1.355 . S
C1340 C1342 1.419 . S
C1341 C1336 1.425 . S
C1341 C1338 1.409 . S
C1341 C1339 1.415 . S
C1342 H1332 0.930 . S
C1342 C1340 1.419 . S
C1342 C1343 1.362 . S
C1343 H1333 0.930 . S
C1343 C1336 1.409 . S
C1343 C1342 1.362 . S
H1344 C1350 0.930 . S
H1345 C1353 0.930 . S
H1346 C1354 0.930 . S
H1347 C1355 0.930 . S
H1348 C1358 0.930 . S
H1349 C1359 0.930 . S
C1350 H1344 0.930 . S
C1350 C1351 1.355 . S
C1350 C1352 1.415 . S
C1351 C1350 1.355 . S
C1351 C1353 1.419 . S
C1352 C1350 1.415 . S
C1352 C1357 1.425 . S
C1352 C1359 1.409 . S
C1353 H1345 0.930 . S
C1353 C1351 1.419 . S
C1353 C1354 1.362 . S
C1354 H1346 0.930 . S
C1354 C1353 1.362 . S
C1354 C1357 1.409 . S
C1355 H1347 0.930 . S
C1355 C1356 1.355 . S
C1355 C1357 1.415 . S
C1356 C1355 1.355 . S
C1356 C1358 1.419 . S
C1357 C1352 1.425 . S
C1357 C1354 1.409 . S
C1357 C1355 1.415 . S
C1358 H1348 0.930 . S
C1358 C1356 1.419 . S
C1358 C1359 1.362 . S
C1359 H1349 0.930 . S
C1359 C1352 1.409 . S
C1359 C1358 1.362 . S
H1360 C1366 0.930 . S
H1361 C1369 0.930 . S
H1362 C1370 0.930 . S
H1363 C1371 0.930 . S
H1364 C1374 0.930 . S
H1365 C1375 0.930 . S
C1366 H1360 0.930 . S
C1366 C1367 1.355 . S
C1366 C1368 1.415 . S
C1367 C1366 1.355 . S
C1367 C1369 1.419 . S
C1368 C1366 1.415 . S
C1368 C1373 1.425 . S
C1368 C1375 1.409 . S
C1369 H1361 0.930 . S
C1369 C1367 1.419 . S
C1369 C1370 1.362 . S
C1370 H1362 0.930 . S
C1370 C1369 1.362 . S
C1370 C1373 1.409 . S
C1371 H1363 0.930 . S
C1371 C1372 1.355 . S
C1371 C1373 1.415 . S
C1372 C1371 1.355 . S
C1372 C1374 1.419 . S
C1373 C1368 1.425 . S
C1373 C1370 1.409 . S
C1373 C1371 1.415 . S
C1374 H1364 0.930 . S
C1374 C1372 1.419 . S
C1374 C1375 1.362 . S
C1375 H1365 0.930 . S
C1375 C1368 1.409 . S
C1375 C1374 1.362 . S
H1376 C1382 0.930 . S
H1377 C1385 0.930 . S
H1378 C1386 0.930 . S
H1379 C1387 0.930 . S
H1380 C1390 0.930 . S
H1381 C1391 0.930 . S
C1382 H1376 0.930 . S
C1382 C1383 1.355 . S
C1382 C1384 1.415 . S
C1383 C1382 1.355 . S
C1383 C1385 1.419 . S
C1384 C1382 1.415 . S
C1384 C1389 1.425 . S
C1384 C1391 1.409 . S
C1385 H1377 0.930 . S
C1385 C1383 1.419 . S
C1385 C1386 1.362 . S
C1386 H1378 0.930 . S
C1386 C1385 1.362 . S
C1386 C1389 1.409 . S
C1387 H1379 0.930 . S
C1387 C1388 1.355 . S
C1387 C1389 1.415 . S
C1388 C1387 1.355 . S
C1388 C1390 1.419 . S
C1389 C1384 1.425 . S
C1389 C1386 1.409 . S
C1389 C1387 1.415 . S
C1390 H1380 0.930 . S
C1390 C1388 1.419 . S
C1390 C1391 1.362 . S
C1391 H1381 0.930 . S
C1391 C1384 1.409 . S
C1391 C1390 1.362 . S
H1392 C1398 0.930 . S
H1393 C1401 0.930 . S
H1394 C1402 0.930 . S
H1395 C1403 0.930 . S
H1396 C1406 0.930 . S
H1397 C1407 0.930 . S
C1398 H1392 0.930 . S
C1398 C1399 1.355 . S
C1398 C1400 1.415 . S
C1399 C1398 1.355 . S
C1399 C1401 1.419 . S
C1400 C1398 1.415 . S
C1400 C1405 1.425 . S
C1400 C1407 1.409 . S
C1401 H1393 0.930 . S
C1401 C1399 1.419 . S
C1401 C1402 1.362 . S
C1402 H1394 0.930 . S
C1402 C1401 1.362 . S
C1402 C1405 1.409 . S
C1403 H1395 0.930 . S
C1403 C1404 1.355 . S
C1403 C1405 1.415 . S
C1404 C1403 1.355 . S
C1404 C1406 1.419 . S
C1405 C1400 1.425 . S
C1405 C1402 1.409 . S
C1405 C1403 1.415 . S
C1406 H1396 0.930 . S
C1406 C1404 1.419 . S
C1406 C1407 1.362 . S
C1407 H1397 0.930 . S
C1407 C1400 1.409 . S
C1407 C1406 1.362 . S
H1408 C1414 0.930 . S
H1409 C1417 0.930 . S
H1410 C1418 0.930 . S
H1411 C1419 0.930 . S
H1412 C1422 0.930 . S
H1413 C1423 0.930 . S
C1414 H1408 0.930 . S
C1414 C1415 1.355 . S
C1414 C1416 1.415 . S
C1415 C1414 1.355 . S
C1415 C1417 1.419 . S
C1416 C1414 1.415 . S
C1416 C1421 1.425 . S
C1416 C1423 1.409 . S
C1417 H1409 0.930 . S
C1417 C1415 1.419 . S
C1417 C1418 1.362 . S
C1418 H1410 0.930 . S
C1418 C1417 1.362 . S
C1418 C1421 1.409 . S
C1419 H1411 0.930 . S
C1419 C1420 1.355 . S
C1419 C1421 1.415 . S
C1420 C1419 1.355 . S
C1420 C1422 1.419 . S
C1421 C1416 1.425 . S
C1421 C1418 1.409 . S
C1421 C1419 1.415 . S
C1422 H1412 0.930 . S
C1422 C1420 1.419 . S
C1422 C1423 1.362 . S
C1423 H1413 0.930 . S
C1423 C1416 1.409 . S
C1423 C1422 1.362 . S
H1424 C1430 0.930 . S
H1425 C1433 0.930 . S
H1426 C1434 0.930 . S
H1427 C1435 0.930 . S
H1428 C1438 0.930 . S
H1429 C1439 0.930 . S
C1430 H1424 0.930 . S
C1430 C1431 1.355 . S
C1430 C1432 1.415 . S
C1431 C1430 1.355 . S
C1431 C1433 1.419 . S
C1432 C1430 1.415 . S
C1432 C1437 1.425 . S
C1432 C1439 1.409 . S
C1433 H1425 0.930 . S
C1433 C1431 1.419 . S
C1433 C1434 1.362 . S
C1434 H1426 0.930 . S
C1434 C1433 1.362 . S
C1434 C1437 1.409 . S
C1435 H1427 0.930 . S
C1435 C1436 1.355 . S
C1435 C1437 1.415 . S
C1436 C1435 1.355 . S
C1436 C1438 1.419 . S
C1437 C1432 1.425 . S
C1437 C1434 1.409 . S
C1437 C1435 1.415 . S
C1438 H1428 0.930 . S
C1438 C1436 1.419 . S
C1438 C1439 1.362 . S
C1439 H1429 0.930 . S
C1439 C1432 1.409 . S
C1439 C1438 1.362 . S
H1440 C1446 0.930 . S
H1441 C1449 0.930 . S
H1442 C1450 0.930 . S
H1443 C1451 0.930 . S
H1444 C1454 0.930 . S
H1445 C1455 0.930 . S
C1446 H1440 0.930 . S
C1446 C1447 1.355 . S
C1446 C1448 1.415 . S
C1447 C1446 1.355 . S
C1447 C1449 1.419 . S
C1448 C1446 1.415 . S
C1448 C1453 1.425 . S
C1448 C1455 1.409 . S
C1449 H1441 0.930 . S
C1449 C1447 1.419 . S
C1449 C1450 1.362 . S
C1450 H1442 0.930 . S
C1450 C1449 1.362 . S
C1450 C1453 1.409 . S
C1451 H1443 0.930 . S
C1451 C1452 1.355 . S
C1451 C1453 1.415 . S
C1452 C1451 1.355 . S
C1452 C1454 1.419 . S
C1453 C1448 1.425 . S
C1453 C1450 1.409 . S
C1453 C1451 1.415 . S
C1454 H1444 0.930 . S
C1454 C1452 1.419 . S
C1454 C1455 1.362 . S
C1455 H1445 0.930 . S
C1455 C1448 1.409 . S
C1455 C1454 1.362 . S
H1456 C1462 0.930 . S
H1457 C1465 0.930 . S
H1458 C1466 0.930 . S
H1459 C1467 0.930 . S
H1460 C1470 0.930 . S
H1461 C1471 0.930 . S
C1462 H1456 0.930 . S
C1462 C1463 1.355 . S
C1462 C1464 1.415 . S
C1463 C1462 1.355 . S
C1463 C1465 1.419 . S
C1464 C1462 1.415 . S
C1464 C1469 1.425 . S
C1464 C1471 1.409 . S
C1465 H1457 0.930 . S
C1465 C1463 1.419 . S
C1465 C1466 1.362 . S
C1466 H1458 0.930 . S
C1466 C1465 1.362 . S
C1466 C1469 1.409 . S
C1467 H1459 0.930 . S
C1467 C1468 1.355 . S
C1467 C1469 1.415 . S
C1468 C1467 1.355 . S
C1468 C1470 1.419 . S
C1469 C1464 1.425 . S
C1469 C1466 1.409 . S
C1469 C1467 1.415 . S
C1470 H1460 0.930 . S
C1470 C1468 1.419 . S
C1470 C1471 1.362 . S
C1471 H1461 0.930 . S
C1471 C1464 1.409 . S
C1471 C1470 1.362 . S
H1472 C1478 0.930 . S
H1473 C1481 0.930 . S
H1474 C1482 0.930 . S
H1475 C1483 0.930 . S
H1476 C1486 0.930 . S
H1477 C1487 0.930 . S
C1478 H1472 0.930 . S
C1478 C1479 1.355 . S
C1478 C1480 1.415 . S
C1479 C1478 1.355 . S
C1479 C1481 1.419 . S
C1480 C1478 1.415 . S
C1480 C1485 1.425 . S
C1480 C1487 1.409 . S
C1481 H1473 0.930 . S
C1481 C1479 1.419 . S
C1481 C1482 1.362 . S
C1482 H1474 0.930 . S
C1482 C1481 1.362 . S
C1482 C1485 1.409 . S
C1483 H1475 0.930 . S
C1483 C1484 1.355 . S
C1483 C1485 1.415 . S
C1484 C1483 1.355 . S
C1484 C1486 1.419 . S
C1485 C1480 1.425 . S
C1485 C1482 1.409 . S
C1485 C1483 1.415 . S
C1486 H1476 0.930 . S
C1486 C1484 1.419 . S
C1486 C1487 1.362 . S
C1487 H1477 0.930 . S
C1487 C1480 1.409 . S
C1487 C1486 1.362 . S
H1488 C1494 0.930 . S
H1489 C1497 0.930 . S
H1490 C1498 0.930 . S
H1491 C1499 0.930 . S
H1492 C1502 0.930 . S
H1493 C1503 0.930 . S
C1494 H1488 0.930 . S
C1494 C1495 1.355 . S
C1494 C1496 1.415 . S
C1495 C1494 1.355 . S
C1495 C1497 1.419 . S
C1496 C1494 1.415 . S
C1496 C1501 1.425 . S
C1496 C1503 1.409 . S
C1497 H1489 0.930 . S
C1497 C1495 1.419 . S
C1497 C1498 1.362 . S
C1498 H1490 0.930 . S
C1498 C1497 1.362 . S
C1498 C1501 1.409 . S
C1499 H1491 0.930 . S
C1499 C1500 1.355 . S
C1499 C1501 1.415 . S
C1500 C1499 1.355 . S
C1500 C1502 1.419 . S
C1501 C1496 1.425 . S
C1501 C1498 1.409 . S
C1501 C1499 1.415 . S
C1502 H1492 0.930 . S
C1502 C1500 1.419 . S
C1502 C1503 1.362 . S
C1503 H1493 0.930 . S
C1503 C1496 1.409 . S
C1503 C1502 1.362 . S
H1504 C1510 0.930 . S
H1505 C1513 0.930 . S
H1506 C1514 0.930 . S
H1507 C1515 0.930 . S
H1508 C1518 0.930 . S
H1509 C1519 0.930 . S
C1510 H1504 0.930 . S
C1510 C1511 1.355 . S
C1510 C1512 1.415 . S
C1511 C1510 1.355 . S
C1511 C1513 1.419 . S
C1512 C1510 1.415 . S
C1512 C1517 1.425 . S
C1512 C1519 1.409 . S
C1513 H1505 0.930 . S
C1513 C1511 1.419 . S
C1513 C1514 1.362 . S
C1514 H1506 0.930 . S
C1514 C1513 1.362 . S
C1514 C1517 1.409 . S
C1515 H1507 0.930 . S
C1515 C1516 1.355 . S
C1515 C1517 1.415 . S
C1516 C1515 1.355 . S
C1516 C1518 1.419 . S
C1517 C1512 1.425 . S
C1517 C1514 1.409 . S
C1517 C1515 1.415 . S
C1518 H1508 0.930 . S
C1518 C1516 1.419 . S
C1518 C1519 1.362 . S
C1519 H1509 0.930 . S
C1519 C1512 1.409 . S
C1519 C1518 1.362 . S
H1520 C1526 0.930 . S
H1521 C1529 0.930 . S
H1522 C1530 0.930 . S
H1523 C1531 0.930 . S
H1524 C1534 0.930 . S
H1525 C1535 0.930 . S
C1526 H1520 0.930 . S
C1526 C1527 1.355 . S
C1526 C1528 1.415 . S
C1527 C1526 1.355 . S
C1527 C1529 1.419 . S
C1528 C1526 1.415 . S
C1528 C1533 1.425 . S
C1528 C1535 1.409 . S
C1529 H1521 0.930 . S
C1529 C1527 1.419 . S
C1529 C1530 1.362 . S
C1530 H1522 0.930 . S
C1530 C1529 1.362 . S
C1530 C1533 1.409 . S
C1531 H1523 0.930 . S
C1531 C1532 1.355 . S
C1531 C1533 1.415 . S
C1532 C1531 1.355 . S
C1532 C1534 1.419 . S
C1533 C1528 1.425 . S
C1533 C1530 1.409 . S
C1533 C1531 1.415 . S
C1534 H1524 0.930 . S
C1534 C1532 1.419 . S
C1534 C1535 1.362 . S
C1535 H1525 0.930 . S
C1535 C1528 1.409 . S
C1535 C1534 1.362 . S
H1536 C1542 0.930 . S
H1537 C1545 0.930 . S
H1538 C1546 0.930 . S
H1539 C1547 0.930 . S
H1540 C1550 0.930 . S
H1541 C1551 0.930 . S
C1542 H1536 0.930 . S
C1542 C1543 1.355 . S
C1542 C1544 1.415 . S
C1543 C1542 1.355 . S
C1543 C1545 1.419 . S
C1544 C1542 1.415 . S
C1544 C1549 1.425 . S
C1544 C1551 1.409 . S
C1545 H1537 0.930 . S
C1545 C1543 1.419 . S
C1545 C1546 1.362 . S
C1546 H1538 0.930 . S
C1546 C1545 1.362 . S
C1546 C1549 1.409 . S
C1547 H1539 0.930 . S
C1547 C1548 1.355 . S
C1547 C1549 1.415 . S
C1548 C1547 1.355 . S
C1548 C1550 1.419 . S
C1549 C1544 1.425 . S
C1549 C1546 1.409 . S
C1549 C1547 1.415 . S
C1550 H1540 0.930 . S
C1550 C1548 1.419 . S
C1550 C1551 1.362 . S
C1551 H1541 0.930 . S
C1551 C1544 1.409 . S
C1551 C1550 1.362 . S
H1552 C1558 0.930 . S
H1553 C1561 0.930 . S
H1554 C1562 0.930 . S
H1555 C1563 0.930 . S
H1556 C1566 0.930 . S
H1557 C1567 0.930 . S
C1558 H1552 0.930 . S
C1558 C1559 1.355 . S
C1558 C1560 1.415 . S
C1559 C1558 1.355 . S
C1559 C1561 1.419 . S
C1560 C1558 1.415 . S
C1560 C1565 1.425 . S
C1560 C1567 1.409 . S
C1561 H1553 0.930 . S
C1561 C1559 1.419 . S
C1561 C1562 1.362 . S
C1562 H1554 0.930 . S
C1562 C1561 1.362 . S
C1562 C1565 1.409 . S
C1563 H1555 0.930 . S
C1563 C1564 1.355 . S
C1563 C1565 1.415 . S
C1564 C1563 1.355 . S
C1564 C1566 1.419 . S
C1565 C1560 1.425 . S
C1565 C1562 1.409 . S
C1565 C1563 1.415 . S
C1566 H1556 0.930 . S
C1566 C1564 1.419 . S
C1566 C1567 1.362 . S
C1567 H1557 0.930 . S
C1567 C1560 1.409 . S
C1567 C1566 1.362 . S
H1568 C1574 0.930 . S
H1569 C1577 0.930 . S
H1570 C1578 0.930 . S
H1571 C1579 0.930 . S
H1572 C1582 0.930 . S
H1573 C1583 0.930 . S
C1574 H1568 0.930 . S
C1574 C1575 1.355 . S
C1574 C1576 1.415 . S
C1575 C1574 1.355 . S
C1575 C1577 1.419 . S
C1576 C1574 1.415 . S
C1576 C1581 1.425 . S
C1576 C1583 1.409 . S
C1577 H1569 0.930 . S
C1577 C1575 1.419 . S
C1577 C1578 1.362 . S
C1578 H1570 0.930 . S
C1578 C1577 1.362 . S
C1578 C1581 1.409 . S
C1579 H1571 0.930 . S
C1579 C1580 1.355 . S
C1579 C1581 1.415 . S
C1580 C1579 1.355 . S
C1580 C1582 1.419 . S
C1581 C1576 1.425 . S
C1581 C1578 1.409 . S
C1581 C1579 1.415 . S
C1582 H1572 0.930 . S
C1582 C1580 1.419 . S
C1582 C1583 1.362 . S
C1583 H1573 0.930 . S
C1583 C1576 1.409 . S
C1583 C1582 1.362 . S
H1584 C1590 0.930 . S
H1585 C1593 0.930 . S
H1586 C1594 0.930 . S
H1587 C1595 0.930 . S
H1588 C1598 0.930 . S
H1589 C1599 0.930 . S
C1590 H1584 0.930 . S
C1590 C1591 1.355 . S
C1590 C1592 1.415 . S
C1591 C1590 1.355 . S
C1591 C1593 1.419 . S
C1592 C1590 1.415 . S
C1592 C1597 1.425 . S
C1592 C1599 1.409 . S
C1593 H1585 0.930 . S
C1593 C1591 1.419 . S
C1593 C1594 1.362 . S
C1594 H1586 0.930 . S
C1594 C1593 1.362 . S
C1594 C1597 1.409 . S
C1595 H1587 0.930 . S
C1595 C1596 1.355 . S
C1595 C1597 1.415 . S
C1596 C1595 1.355 . S
C1596 C1598 1.419 . S
C1597 C1592 1.425 . S
C1597 C1594 1.409 . S
C1597 C1595 1.415 . S
C1598 H1588 0.930 . S
C1598 C1596 1.419 . S
C1598 C1599 1.362 . S
C1599 H1589 0.930 . S
C1599 C1592 1.409 . S
C1599 C1598 1.362 . S
H1600 C1606 0.930 . S
H1601 C1609 0.930 . S
H1602 C1610 0.930 . S
H1603 C1611 0.930 . S
H1604 C1614 0.930 . S
H1605 C1615 0.930 . S
C1606 H1600 0.930 . S
C1606 C1607 1.355 . S
C1606 C1608 1.415 . S
C1607 C1606 1.355 . S
C1607 C1609 1.419 . S
C1608 C1606 1.415 . S
C1608 C1613 1.425 . S
C1608 C1615 1.409 . S
C1609 H1601 0.930 . S
C1609 C1607 1.419 . S
C1609 C1610 1.362 . S
C1610 H1602 0.930 . S
C1610 C1609 1.362 . S
C1610 C1613 1.409 . S
C1611 H1603 0.930 . S
C1611 C1612 1.355 . S
C1611 C1613 1.415 . S
C1612 C1611 1.355 . S
C1612 C1614 1.419 . S
C1613 C1608 1.425 . S
C1613 C1610 1.409 . S
C1613 C1611 1.415 . S
C1614 H1604 0.930 . S
C1614 C1612 1.419 . S
C1614 C1615 1.362 . S
C1615 H1605 0.930 . S
C1615 C1608 1.409 . S
C1615 C1614 1.362 . S
H1616 C1622 0.930 . S
H1617 C1625 0.930 . S
H1618 C1626 0.930 . S
H1619 C1627 0.930 . S
H1620 C1630 0.930 . S
H1621 C1631 0.930 . S
C1622 H1616 0.930 . S
C1622 C1623 1.355 . S
C1622 C1624 1.415 . S
C1623 C1622 1.355 . S
C1623 C1625 1.419 . S
C1624 C1622 1.415 . S
C1624 C1629 1.425 . S
C1624 C1631 1.409 . S
C1625 H1617 0.930 . S
C1625 C1623 1.419 . S
C1625 C1626 1.362 . S
C1626 H1618 0.930 . S
C1626 C1625 1.362 . S
C1626 C1629 1.409 . S
C1627 H1619 0.930 . S
C1627 C1628 1.355 . S
C1627 C1629 1.415 . S
C1628 C1627 1.355 . S
C1628 C1630 1.419 . S
C1629 C1624 1.425 . S
C1629 C1626 1.409 . S
C1629 C1627 1.415 . S
C1630 H1620 0.930 . S
C1630 C1628 1.419 . S
C1630 C1631 1.362 . S
C1631 H1621 0.930 . S
C1631 C1624 1.409 . S
C1631 C1630 1.362 . S
H1632 C1638 0.930 . S
H1633 C1641 0.930 . S
H1634 C1642 0.930 . S
H1635 C1643 0.930 . S
H1636 C1646 0.930 . S
H1637 C1647 0.930 . S
C1638 H1632 0.930 . S
C1638 C1639 1.355 . S
C1638 C1640 1.415 . S
C1639 C1638 1.355 . S
C1639 C1641 1.419 . S
C1640 C1638 1.415 . S
C1640 C1645 1.425 . S
C1640 C1647 1.409 . S
C1641 H1633 0.930 . S
C1641 C1639 1.419 . S
C1641 C1642 1.362 . S
C1642 H1634 0.930 . S
C1642 C1641 1.362 . S
C1642 C1645 1.409 . S
C1643 H1635 0.930 . S
C1643 C1644 1.355 . S
C1643 C1645 1.415 . S
C1644 C1643 1.355 . S
C1644 C1646 1.419 . S
C1645 C1640 1.425 . S
C1645 C1642 1.409 . S
C1645 C1643 1.415 . S
C1646 H1636 0.930 . S
C1646 C1644 1.419 . S
C1646 C1647 1.362 . S
C1647 H1637 0.930 . S
C1647 C1640 1.409 . S
C1647 C1646 1.362 . S
H1648 C1654 0.930 . S
H1649 C1657 0.930 . S
H1650 C1658 0.930 . S
H1651 C1659 0.930 . S
H1652 C1662 0.930 . S
H1653 C1663 0.930 . S
C1654 H1648 0.930 . S
C1654 C1655 1.355 . S
C1654 C1656 1.415 . S
C1655 C1654 1.355 . S
C1655 C1657 1.419 . S
C1656 C1654 1.415 . S
C1656 C1661 1.425 . S
C1656 C1663 1.409 . S
C1657 H1649 0.930 . S
C1657 C1655 1.419 . S
C1657 C1658 1.362 . S
C1658 H1650 0.930 . S
C1658 C1657 1.362 . S
C1658 C1661 1.409 . S
C1659 H1651 0.930 . S
C1659 C1660 1.355 . S
C1659 C1661 1.415 . S
C1660 C1659 1.355 . S
C1660 C1662 1.419 . S
C1661 C1656 1.425 . S
C1661 C1658 1.409 . S
C1661 C1659 1.415 . S
C1662 H1652 0.930 . S
C1662 C1660 1.419 . S
C1662 C1663 1.362 . S
C1663 H1653 0.930 . S
C1663 C1656 1.409 . S
C1663 C1662 1.362 . S
H1664 C1670 0.930 . S
H1665 C1673 0.930 . S
H1666 C1674 0.930 . S
H1667 C1675 0.930 . S
H1668 C1678 0.930 . S
H1669 C1679 0.930 . S
C1670 H1664 0.930 . S
C1670 C1671 1.355 . S
C1670 C1672 1.415 . S
C1671 C1670 1.355 . S
C1671 C1673 1.419 . S
C1672 C1670 1.415 . S
C1672 C1677 1.425 . S
C1672 C1679 1.409 . S
C1673 H1665 0.930 . S
C1673 C1671 1.419 . S
C1673 C1674 1.362 . S
C1674 H1666 0.930 . S
C1674 C1673 1.362 . S
C1674 C1677 1.409 . S
C1675 H1667 0.930 . S
C1675 C1676 1.355 . S
C1675 C1677 1.415 . S
C1676 C1675 1.355 . S
C1676 C1678 1.419 . S
C1677 C1672 1.425 . S
C1677 C1674 1.409 . S
C1677 C1675 1.415 . S
C1678 H1668 0.930 . S
C1678 C1676 1.419 . S
C1678 C1679 1.362 . S
C1679 H1669 0.930 . S
C1679 C1672 1.409 . S
C1679 C1678 1.362 . S
H1680 C1686 0.930 . S
H1681 C1689 0.930 . S
H1682 C1690 0.930 . S
H1683 C1691 0.930 . S
H1684 C1694 0.930 . S
H1685 C1695 0.930 . S
C1686 H1680 0.930 . S
C1686 C1687 1.355 . S
C1686 C1688 1.415 . S
C1687 C1686 1.355 . S
C1687 C1689 1.419 . S
C1688 C1686 1.415 . S
C1688 C1693 1.425 . S
C1688 C1695 1.409 . S
C1689 H1681 0.930 . S
C1689 C1687 1.419 . S
C1689 C1690 1.362 . S
C1690 H1682 0.930 . S
C1690 C1689 1.362 . S
C1690 C1693 1.409 . S
C1691 H1683 0.930 . S
C1691 C1692 1.355 . S
C1691 C1693 1.415 . S
C1692 C1691 1.355 . S
C1692 C1694 1.419 . S
C1693 C1688 1.425 . S
C1693 C1690 1.409 . S
C1693 C1691 1.415 . S
C1694 H1684 0.930 . S
C1694 C1692 1.419 . S
C1694 C1695 1.362 . S
C1695 H1685 0.930 . S
C1695 C1688 1.409 . S
C1695 C1694 1.362 . S
H1696 C1702 0.930 . S
H1697 C1705 0.930 . S
H1698 C1706 0.930 . S
H1699 C1707 0.930 . S
H1700 C1710 0.930 . S
H1701 C1711 0.930 . S
C1702 H1696 0.930 . S
C1702 C1703 1.355 . S
C1702 C1704 1.415 . S
C1703 C1702 1.355 . S
C1703 C1705 1.419 . S
C1704 C1702 1.415 . S
C1704 C1709 1.425 . S
C1704 C1711 1.409 . S
C1705 H1697 0.930 . S
C1705 C1703 1.419 . S
C1705 C1706 1.362 . S
C1706 H1698 0.930 . S
C1706 C1705 1.362 . S
C1706 C1709 1.409 . S
C1707 H1699 0.930 . S
C1707 C1708 1.355 . S
C1707 C1709 1.415 . S
C1708 C1707 1.355 . S
C1708 C1710 1.419 . S
C1709 C1704 1.425 . S
C1709 C1706 1.409 . S
C1709 C1707 1.415 . S
C1710 H1700 0.930 . S
C1710 C1708 1.419 . S
C1710 C1711 1.362 . S
C1711 H1701 0.930 . S
C1711 C1704 1.409 . S
C1711 C1710 1.362 . S
H1712 C1718 0.930 . S
H1713 C1721 0.930 . S
H1714 C1722 0.930 . S
H1715 C1723 0.930 . S
H1716 C1726 0.930 . S
H1717 C1727 0.930 . S
C1718 H1712 0.930 . S
C1718 C1719 1.355 . S
C1718 C1720 1.415 . S
C1719 C1718 1.355 . S
C1719 C1721 1.419 . S
C1720 C1718 1.415 . S
C1720 C1725 1.425 . S
C1720 C1727 1.409 . S
C1721 H1713 0.930 . S
C1721 C1719 1.419 . S
C1721 C1722 1.362 . S
C1722 H1714 0.930 . S
C1722 C1721 1.362 . S
C1722 C1725 1.409 . S
C1723 H1715 0.930 . S
C1723 C1724 1.355 . S
C1723 C1725 1.415 . S
C1724 C1723 1.355 . S
C1724 C1726 1.419 . S
C1725 C1720 1.425 . S
C1725 C1722 1.409 . S
C1725 C1723 1.415 . S
C1726 H1716 0.930 . S
C1726 C1724 1.419 . S
C1726 C1727 1.362 . S
C1727 H1717 0.930 . S
C1727 C1720 1.409 . S
C1727 C1726 1.362 . S
H1728 C1734 0.930 . S
H1729 C1737 0.930 . S
H1730 C1738 0.930 . S
H1731 C1739 0.930 . S
H1732 C1742 0.930 . S
H1733 C1743 0.930 . S
C1734 H1728 0.930 . S
C1734 C1735 1.355 . S
C1734 C1736 1.415 . S
C1735 C1734 1.355 . S
C1735 C1737 1.419 . S
C1736 C1734 1.415 . S
C1736 C1741 1.425 . S
C1736 C1743 1.409 . S
C1737 H1729 0.930 . S
C1737 C1735 1.419 . S
C1737 C1738 1.362 . S
C1738 H1730 0.930 . S
C1738 C1737 1.362 . S
C1738 C1741 1.409 . S
C1739 H1731 0.930 . S
C1739 C1740 1.355 . S
C1739 C1741 1.415 . S
C1740 C1739 1.355 . S
C1740 C1742 1.419 . S
C1741 C1736 1.425 . S
C1741 C1738 1.409 . S
C1741 C1739 1.415 . S
C1742 H1732 0.930 . S
C1742 C1740 1.419 . S
C1742 C1743 1.362 . S
C1743 H1733 0.930 . S
C1743 C1736 1.409 . S
C1743 C1742 1.362 . S
H1744 C1750 0.930 . S
H1745 C1753 0.930 . S
H1746 C1754 0.930 . S
H1747 C1755 0.930 . S
H1748 C1758 0.930 . S
H1749 C1759 0.930 . S
C1750 H1744 0.930 . S
C1750 C1751 1.355 . S
C1750 C1752 1.415 . S
C1751 C1750 1.355 . S
C1751 C1753 1.419 . S
C1752 C1750 1.415 . S
C1752 C1757 1.425 . S
C1752 C1759 1.409 . S
C1753 H1745 0.930 . S
C1753 C1751 1.419 . S
C1753 C1754 1.362 . S
C1754 H1746 0.930 . S
C1754 C1753 1.362 . S
C1754 C1757 1.409 . S
C1755 H1747 0.930 . S
C1755 C1756 1.355 . S
C1755 C1757 1.415 . S
C1756 C1755 1.355 . S
C1756 C1758 1.419 . S
C1757 C1752 1.425 . S
C1757 C1754 1.409 . S
C1757 C1755 1.415 . S
C1758 H1748 0.930 . S
C1758 C1756 1.419 . S
C1758 C1759 1.362 . S
C1759 H1749 0.930 . S
C1759 C1752 1.409 . S
C1759 C1758 1.362 . S
H1760 C1766 0.930 . S
H1761 C1769 0.930 . S
H1762 C1770 0.930 . S
H1763 C1771 0.930 . S
H1764 C1774 0.930 . S
H1765 C1775 0.930 . S
C1766 H1760 0.930 . S
C1766 C1767 1.355 . S
C1766 C1768 1.415 . S
C1767 C1766 1.355 . S
C1767 C1769 1.419 . S
C1768 C1766 1.415 . S
C1768 C1773 1.425 . S
C1768 C1775 1.409 . S
C1769 H1761 0.930 . S
C1769 C1767 1.419 . S
C1769 C1770 1.362 . S
C1770 H1762 0.930 . S
C1770 C1769 1.362 . S
C1770 C1773 1.409 . S
C1771 H1763 0.930 . S
C1771 C1772 1.355 . S
C1771 C1773 1.415 . S
C1772 C1771 1.355 . S
C1772 C1774 1.419 . S
C1773 C1768 1.425 . S
C1773 C1770 1.409 . S
C1773 C1771 1.415 . S
C1774 H1764 0.930 . S
C1774 C1772 1.419 . S
C1774 C1775 1.362 . S
C1775 H1765 0.930 . S
C1775 C1768 1.409 . S
C1775 C1774 1.362 . S
H1776 C1782 0.930 . S
H1777 C1785 0.930 . S
H1778 C1786 0.930 . S
H1779 C1787 0.930 . S
H1780 C1790 0.930 . S
H1781 C1791 0.930 . S
C1782 H1776 0.930 . S
C1782 C1783 1.355 . S
C1782 C1784 1.415 . S
C1783 C1782 1.355 . S
C1783 C1785 1.419 . S
C1784 C1782 1.415 . S
C1784 C1789 1.425 1_554 S
C1784 C1791 1.409 1_554 S
C1785 H1777 0.930 . S
C1785 C1783 1.419 . S
C1785 C1786 1.362 . S
C1786 H1778 0.930 . S
C1786 C1785 1.362 . S
C1786 C1789 1.409 1_554 S
C1787 H1779 0.930 . S
C1787 C1788 1.355 . S
C1787 C1789 1.415 . S
C1788 C1787 1.355 . S
C1788 C1790 1.419 . S
C1789 C1784 1.425 1_556 S
C1789 C1786 1.409 1_556 S
C1789 C1787 1.415 . S
C1790 H1780 0.930 . S
C1790 C1788 1.419 . S
C1790 C1791 1.362 . S
C1791 H1781 0.930 . S
C1791 C1784 1.409 1_556 S
C1791 C1790 1.362 . S
H1792 C1798 0.930 . S
H1793 C1801 0.930 . S
H1794 C1802 0.930 . S
H1795 C1803 0.930 . S
H1796 C1806 0.930 . S
H1797 C1807 0.930 . S
C1798 H1792 0.930 . S
C1798 C1799 1.355 . S
C1798 C1800 1.415 . S
C1799 C1798 1.355 . S
C1799 C1801 1.419 . S
C1800 C1798 1.415 . S
C1800 C1805 1.425 1_556 S
C1800 C1807 1.409 1_556 S
C1801 H1793 0.930 . S
C1801 C1799 1.419 . S
C1801 C1802 1.362 . S
C1802 H1794 0.930 . S
C1802 C1801 1.362 . S
C1802 C1805 1.409 1_556 S
C1803 H1795 0.930 . S
C1803 C1804 1.355 . S
C1803 C1805 1.415 . S
C1804 C1803 1.355 . S
C1804 C1806 1.419 . S
C1805 C1800 1.425 1_554 S
C1805 C1802 1.409 1_554 S
C1805 C1803 1.415 . S
C1806 H1796 0.930 . S
C1806 C1804 1.419 . S
C1806 C1807 1.362 . S
C1807 H1797 0.930 . S
C1807 C1800 1.409 1_554 S
C1807 C1806 1.362 . S
H1808 C1814 0.930 . S
H1809 C1817 0.930 . S
H1810 C1818 0.930 . S
H1811 C1819 0.930 . S
H1812 C1822 0.930 . S
H1813 C1823 0.930 . S
C1814 H1808 0.930 . S
C1814 C1815 1.355 . S
C1814 C1816 1.415 . S
C1815 C1814 1.355 . S
C1815 C1817 1.419 . S
C1816 C1814 1.415 . S
C1816 C1821 1.425 1_554 S
C1816 C1823 1.409 1_554 S
C1817 H1809 0.930 . S
C1817 C1815 1.419 . S
C1817 C1818 1.362 . S
C1818 H1810 0.930 . S
C1818 C1817 1.362 . S
C1818 C1821 1.409 1_554 S
C1819 H1811 0.930 . S
C1819 C1820 1.355 . S
C1819 C1821 1.415 . S
C1820 C1819 1.355 . S
C1820 C1822 1.419 . S
C1821 C1816 1.425 1_556 S
C1821 C1818 1.409 1_556 S
C1821 C1819 1.415 . S
C1822 H1812 0.930 . S
C1822 C1820 1.419 . S
C1822 C1823 1.362 . S
C1823 H1813 0.930 . S
C1823 C1816 1.409 1_556 S
C1823 C1822 1.362 . S
H1824 C1830 0.930 . S
H1825 C1833 0.930 . S
H1826 C1834 0.930 . S
H1827 C1835 0.930 . S
H1828 C1838 0.930 . S
H1829 C1839 0.930 . S
C1830 H1824 0.930 . S
C1830 C1831 1.355 . S
C1830 C1832 1.415 . S
C1831 C1830 1.355 . S
C1831 C1833 1.419 . S
C1832 C1830 1.415 . S
C1832 C1837 1.425 1_554 S
C1832 C1839 1.409 1_554 S
C1833 H1825 0.930 . S
C1833 C1831 1.419 . S
C1833 C1834 1.362 . S
C1834 H1826 0.930 . S
C1834 C1833 1.362 . S
C1834 C1837 1.409 1_554 S
C1835 H1827 0.930 . S
C1835 C1836 1.355 . S
C1835 C1837 1.415 . S
C1836 C1835 1.355 . S
C1836 C1838 1.419 . S
C1837 C1832 1.425 1_556 S
C1837 C1834 1.409 1_556 S
C1837 C1835 1.415 . S
C1838 H1828 0.930 . S
C1838 C1836 1.419 . S
C1838 C1839 1.362 . S
C1839 H1829 0.930 . S
C1839 C1832 1.409 1_556 S
C1839 C1838 1.362 . S
H1840 C1846 0.930 . S
H1841 C1849 0.930 . S
H1842 C1850 0.930 . S
H1843 C1851 0.930 . S
H1844 C1854 0.930 . S
H1845 C1855 0.930 . S
C1846 H1840 0.930 . S
C1846 C1847 1.355 . S
C1846 C1848 1.415 . S
C1847 C1846 1.355 . S
C1847 C1849 1.419 . S
C1848 C1846 1.415 . S
C1848 C1853 1.425 1_556 S
C1848 C1855 1.409 1_556 S
C1849 H1841 0.930 . S
C1849 C1847 1.419 . S
C1849 C1850 1.362 . S
C1850 H1842 0.930 . S
C1850 C1849 1.362 . S
C1850 C1853 1.409 1_556 S
C1851 H1843 0.930 . S
C1851 C1852 1.355 . S
C1851 C1853 1.415 . S
C1852 C1851 1.355 . S
C1852 C1854 1.419 . S
C1853 C1848 1.425 1_554 S
C1853 C1850 1.409 1_554 S
C1853 C1851 1.415 . S
C1854 H1844 0.930 . S
C1854 C1852 1.419 . S
C1854 C1855 1.362 . S
C1855 H1845 0.930 . S
C1855 C1848 1.409 1_554 S
C1855 C1854 1.362 . S
H1856 C1862 0.930 . S
H1857 C1865 0.930 . S
H1858 C1866 0.930 . S
H1859 C1867 0.930 . S
H1860 C1870 0.930 . S
H1861 C1871 0.930 . S
C1862 H1856 0.930 . S
C1862 C1863 1.355 . S
C1862 C1864 1.415 . S
C1863 C1862 1.355 . S
C1863 C1865 1.419 . S
C1864 C1862 1.415 . S
C1864 C1869 1.425 1_554 S
C1864 C1871 1.409 1_554 S
C1865 H1857 0.930 . S
C1865 C1863 1.419 . S
C1865 C1866 1.362 . S
C1866 H1858 0.930 . S
C1866 C1865 1.362 . S
C1866 C1869 1.409 1_554 S
C1867 H1859 0.930 . S
C1867 C1868 1.355 . S
C1867 C1869 1.415 . S
C1868 C1867 1.355 . S
C1868 C1870 1.419 . S
C1869 C1864 1.425 1_556 S
C1869 C1866 1.409 1_556 S
C1869 C1867 1.415 . S
C1870 H1860 0.930 . S
C1870 C1868 1.419 . S
C1870 C1871 1.362 . S
C1871 H1861 0.930 . S
C1871 C1864 1.409 1_556 S
C1871 C1870 1.362 . S
H1872 C1878 0.930 . S
H1873 C1881 0.930 . S
H1874 C1882 0.930 . S
H1875 C1883 0.930 . S
H1876 C1886 0.930 . S
H1877 C1887 0.930 . S
C1878 H1872 0.930 . S
C1878 C1879 1.355 . S
C1878 C1880 1.415 . S
C1879 C1878 1.355 . S
C1879 C1881 1.419 . S
C1880 C1878 1.415 . S
C1880 C1885 1.425 1_556 S
C1880 C1887 1.409 1_556 S
C1881 H1873 0.930 . S
C1881 C1879 1.419 . S
C1881 C1882 1.362 . S
C1882 H1874 0.930 . S
C1882 C1881 1.362 . S
C1882 C1885 1.409 1_556 S
C1883 H1875 0.930 . S
C1883 C1884 1.355 . S
C1883 C1885 1.415 . S
C1884 C1883 1.355 . S
C1884 C1886 1.419 . S
C1885 C1880 1.425 1_554 S
C1885 C1882 1.409 1_554 S
C1885 C1883 1.415 . S
C1886 H1876 0.930 . S
C1886 C1884 1.419 . S
C1886 C1887 1.362 . S
C1887 H1877 0.930 . S
C1887 C1880 1.409 1_554 S
C1887 C1886 1.362 . S
H1888 C1894 0.930 . S
H1889 C1897 0.930 . S
H1890 C1898 0.930 . S
H1891 C1899 0.930 . S
H1892 C1902 0.930 . S
H1893 C1903 0.930 . S
C1894 H1888 0.930 . S
C1894 C1895 1.355 . S
C1894 C1896 1.415 . S
C1895 C1894 1.355 . S
C1895 C1897 1.419 . S
C1896 C1894 1.415 . S
C1896 C1901 1.425 1_554 S
C1896 C1903 1.409 1_554 S
C1897 H1889 0.930 . S
C1897 C1895 1.419 . S
C1897 C1898 1.362 . S
C1898 H1890 0.930 . S
C1898 C1897 1.362 . S
C1898 C1901 1.409 1_554 S
C1899 H1891 0.930 . S
C1899 C1900 1.355 . S
C1899 C1901 1.415 . S
C1900 C1899 1.355 . S
C1900 C1902 1.419 . S
C1901 C1896 1.425 1_556 S
C1901 C1898 1.409 1_556 S
C1901 C1899 1.415 . S
C1902 H1892 0.930 . S
C1902 C1900 1.419 . S
C1902 C1903 1.362 . S
C1903 H1893 0.930 . S
C1903 C1896 1.409 1_556 S
C1903 C1902 1.362 . S
H1904 C1910 0.930 . S
H1905 C1913 0.930 . S
H1906 C1914 0.930 . S
H1907 C1915 0.930 . S
H1908 C1918 0.930 . S
H1909 C1919 0.930 . S
C1910 H1904 0.930 . S
C1910 C1911 1.355 . S
C1910 C1912 1.415 . S
C1911 C1910 1.355 . S
C1911 C1913 1.419 . S
C1912 C1910 1.415 . S
C1912 C1917 1.425 1_455 S
C1912 C1919 1.409 1_455 S
C1913 H1905 0.930 . S
C1913 C1911 1.419 . S
C1913 C1914 1.362 . S
C1914 H1906 0.930 . S
C1914 C1913 1.362 . S
C1914 C1917 1.409 1_455 S
C1915 H1907 0.930 . S
C1915 C1916 1.355 . S
C1915 C1917 1.415 . S
C1916 C1915 1.355 . S
C1916 C1918 1.419 . S
C1917 C1912 1.425 1_655 S
C1917 C1914 1.409 1_655 S
C1917 C1915 1.415 . S
C1918 H1908 0.930 . S
C1918 C1916 1.419 . S
C1918 C1919 1.362 . S
C1919 H1909 0.930 . S
C1919 C1912 1.409 1_655 S
C1919 C1918 1.362 . S
H1920 C1926 0.930 . S
H1921 C1929 0.930 . S
H1922 C1930 0.930 . S
H1923 C1931 0.930 . S
H1924 C1934 0.930 . S
H1925 C1935 0.930 . S
C1926 H1920 0.930 . S
C1926 C1927 1.355 . S
C1926 C1928 1.415 . S
C1927 C1926 1.355 . S
C1927 C1929 1.419 . S
C1928 C1926 1.415 . S
C1928 C1933 1.425 1_565 S
C1928 C1935 1.409 1_565 S
C1929 H1921 0.930 . S
C1929 C1927 1.419 . S
C1929 C1930 1.362 . S
C1930 H1922 0.930 . S
C1930 C1929 1.362 . S
C1930 C1933 1.409 1_565 S
C1931 H1923 0.930 . S
C1931 C1932 1.355 . S
C1931 C1933 1.415 . S
C1932 C1931 1.355 . S
C1932 C1934 1.419 . S
C1933 C1928 1.425 1_545 S
C1933 C1930 1.409 1_545 S
C1933 C1931 1.415 . S
C1934 H1924 0.930 . S
C1934 C1932 1.419 . S
C1934 C1935 1.362 . S
C1935 H1925 0.930 . S
C1935 C1928 1.409 1_545 S
C1935 C1934 1.362 . S
H1936 C1942 0.930 . S
H1937 C1945 0.930 . S
H1938 C1946 0.930 . S
H1939 C1947 0.930 . S
H1940 C1950 0.930 . S
H1941 C1951 0.930 . S
C1942 H1936 0.930 . S
C1942 C1943 1.355 . S
C1942 C1944 1.415 . S
C1943 C1942 1.355 . S
C1943 C1945 1.419 . S
C1944 C1942 1.415 . S
C1944 C1949 1.425 1_455 S
C1944 C1951 1.409 1_455 S
C1945 H1937 0.930 . S
C1945 C1943 1.419 . S
C1945 C1946 1.362 . S
C1946 H1938 0.930 . S
C1946 C1945 1.362 . S
C1946 C1949 1.409 1_455 S
C1947 H1939 0.930 . S
C1947 C1948 1.355 . S
C1947 C1949 1.415 . S
C1948 C1947 1.355 . S
C1948 C1950 1.419 . S
C1949 C1944 1.425 1_655 S
C1949 C1946 1.409 1_655 S
C1949 C1947 1.415 . S
C1950 H1940 0.930 . S
C1950 C1948 1.419 . S
C1950 C1951 1.362 . S
C1951 H1941 0.930 . S
C1951 C1944 1.409 1_655 S
C1951 C1950 1.362 . S
H1952 C1958 0.930 . S
H1953 C1961 0.930 . S
H1954 C1962 0.930 . S
H1955 C1963 0.930 . S
H1956 C1966 0.930 . S
H1957 C1967 0.930 . S
C1958 H1952 0.930 . S
C1958 C1959 1.355 . S
C1958 C1960 1.415 . S
C1959 C1958 1.355 . S
C1959 C1961 1.419 . S
C1960 C1958 1.415 . S
C1960 C1965 1.425 1_565 S
C1960 C1967 1.409 1_565 S
C1961 H1953 0.930 . S
C1961 C1959 1.419 . S
C1961 C1962 1.362 . S
C1962 H1954 0.930 . S
C1962 C1961 1.362 . S
C1962 C1965 1.409 1_565 S
C1963 H1955 0.930 . S
C1963 C1964 1.355 . S
C1963 C1965 1.415 . S
C1964 C1963 1.355 . S
C1964 C1966 1.419 . S
C1965 C1960 1.425 1_545 S
C1965 C1962 1.409 1_545 S
C1965 C1963 1.415 . S
C1966 H1956 0.930 . S
C1966 C1964 1.419 . S
C1966 C1967 1.362 . S
C1967 H1957 0.930 . S
C1967 C1960 1.409 1_545 S
C1967 C1966 1.362 . S
H1968 C1974 0.930 . S
H1969 C1977 0.930 . S
H1970 C1978 0.930 . S
H1971 C1979 0.930 . S
H1972 C1982 0.930 . S
H1973 C1983 0.930 . S
C1974 H1968 0.930 . S
C1974 C1975 1.355 . S
C1974 C1976 1.415 . S
C1975 C1974 1.355 . S
C1975 C1977 1.419 . S
C1976 C1974 1.415 . S
C1976 C1981 1.425 1_655 S
C1976 C1983 1.409 1_655 S
C1977 H1969 0.930 . S
C1977 C1975 1.419 . S
C1977 C1978 1.362 . S
C1978 H1970 0.930 . S
C1978 C1977 1.362 . S
C1978 C1981 1.409 1_655 S
C1979 H1971 0.930 . S
C1979 C1980 1.355 . S
C1979 C1981 1.415 . S
C1980 C1979 1.355 . S
C1980 C1982 1.419 . S
C1981 C1976 1.425 1_455 S
C1981 C1978 1.409 1_455 S
C1981 C1979 1.415 . S
C1982 H1972 0.930 . S
C1982 C1980 1.419 . S
C1982 C1983 1.362 . S
C1983 H1973 0.930 . S
C1983 C1976 1.409 1_455 S
C1983 C1982 1.362 . S
H1984 C1990 0.930 . S
H1985 C1993 0.930 . S
H1986 C1994 0.930 . S
H1987 C1995 0.930 . S
H1988 C1998 0.930 . S
H1989 C1999 0.930 . S
C1990 H1984 0.930 . S
C1990 C1991 1.355 . S
C1990 C1992 1.415 . S
C1991 C1990 1.355 . S
C1991 C1993 1.419 . S
C1992 C1990 1.415 . S
C1992 C1997 1.425 1_545 S
C1992 C1999 1.409 1_545 S
C1993 H1985 0.930 . S
C1993 C1991 1.419 . S
C1993 C1994 1.362 . S
C1994 H1986 0.930 . S
C1994 C1993 1.362 . S
C1994 C1997 1.409 1_545 S
C1995 H1987 0.930 . S
C1995 C1996 1.355 . S
C1995 C1997 1.415 . S
C1996 C1995 1.355 . S
C1996 C1998 1.419 . S
C1997 C1992 1.425 1_565 S
C1997 C1994 1.409 1_565 S
C1997 C1995 1.415 . S
C1998 H1988 0.930 . S
C1998 C1996 1.419 . S
C1998 C1999 1.362 . S
C1999 H1989 0.930 . S
C1999 C1992 1.409 1_565 S
C1999 C1998 1.362 . S
H2000 C2006 0.930 . S
H2001 C2009 0.930 . S
H2002 C2010 0.930 . S
H2003 C2011 0.930 . S
H2004 C2014 0.930 . S
H2005 C2015 0.930 . S
C2006 H2000 0.930 . S
C2006 C2007 1.355 . S
C2006 C2008 1.415 . S
C2007 C2006 1.355 . S
C2007 C2009 1.419 . S
C2008 C2006 1.415 . S
C2008 C2013 1.425 1_455 S
C2008 C2015 1.409 1_455 S
C2009 H2001 0.930 . S
C2009 C2007 1.419 . S
C2009 C2010 1.362 . S
C2010 H2002 0.930 . S
C2010 C2009 1.362 . S
C2010 C2013 1.409 1_455 S
C2011 H2003 0.930 . S
C2011 C2012 1.355 . S
C2011 C2013 1.415 . S
C2012 C2011 1.355 . S
C2012 C2014 1.419 . S
C2013 C2008 1.425 1_655 S
C2013 C2010 1.409 1_655 S
C2013 C2011 1.415 . S
C2014 H2004 0.930 . S
C2014 C2012 1.419 . S
C2014 C2015 1.362 . S
C2015 H2005 0.930 . S
C2015 C2008 1.409 1_655 S
C2015 C2014 1.362 . S
H2016 C2022 0.930 . S
H2017 C2025 0.930 . S
H2018 C2026 0.930 . S
H2019 C2027 0.930 . S
H2020 C2030 0.930 . S
H2021 C2031 0.930 . S
C2022 H2016 0.930 . S
C2022 C2023 1.355 . S
C2022 C2024 1.415 . S
C2023 C2022 1.355 . S
C2023 C2025 1.419 . S
C2024 C2022 1.415 . S
C2024 C2029 1.425 1_545 S
C2024 C2031 1.409 1_545 S
C2025 H2017 0.930 . S
C2025 C2023 1.419 . S
C2025 C2026 1.362 . S
C2026 H2018 0.930 . S
C2026 C2025 1.362 . S
C2026 C2029 1.409 1_545 S
C2027 H2019 0.930 . S
C2027 C2028 1.355 . S
C2027 C2029 1.415 . S
C2028 C2027 1.355 . S
C2028 C2030 1.419 . S
C2029 C2024 1.425 1_565 S
C2029 C2026 1.409 1_565 S
C2029 C2027 1.415 . S
C2030 H2020 0.930 . S
C2030 C2028 1.419 . S
C2030 C2031 1.362 . S
C2031 H2021 0.930 . S
C2031 C2024 1.409 1_565 S
C2031 C2030 1.362 . S
H2032 C2038 0.930 . S
H2033 C2041 0.930 . S
H2034 C2042 0.930 . S
H2035 C2043 0.930 . S
H2036 C2046 0.930 . S
H2037 C2047 0.930 . S
C2038 H2032 0.930 . S
C2038 C2039 1.355 . S
C2038 C2040 1.415 . S
C2039 C2038 1.355 . S
C2039 C2041 1.419 . S
C2040 C2038 1.415 . S
C2040 C2045 1.425 1_545 S
C2040 C2047 1.409 1_545 S
C2041 H2033 0.930 . S
C2041 C2039 1.419 . S
C2041 C2042 1.362 . S
C2042 H2034 0.930 . S
C2042 C2041 1.362 . S
C2042 C2045 1.409 1_545 S
C2043 H2035 0.930 . S
C2043 C2044 1.355 . S
C2043 C2045 1.415 . S
C2044 C2043 1.355 . S
C2044 C2046 1.419 . S
C2045 C2040 1.425 1_565 S
C2045 C2042 1.409 1_565 S
C2045 C2043 1.415 . S
C2046 H2036 0.930 . S
C2046 C2044 1.419 . S
C2046 C2047 1.362 . S
C2047 H2037 0.930 . S
C2047 C2040 1.409 1_565 S
C2047 C2046 1.362 . S
H2048 C2054 0.930 . S
H2049 C2057 0.930 . S
H2050 C2058 0.930 . S
H2051 C2059 0.930 . S
H2052 C2062 0.930 . S
H2053 C2063 0.930 . S
C2054 H2048 0.930 . S
C2054 C2055 1.355 . S
C2054 C2056 1.415 . S
C2055 C2054 1.355 . S
C2055 C2057 1.419 . S
C2056 C2054 1.415 . S
C2056 C2061 1.425 1_545 S
C2056 C2063 1.409 1_545 S
C2057 H2049 0.930 . S
C2057 C2055 1.419 . S
C2057 C2058 1.362 . S
C2058 H2050 0.930 . S
C2058 C2057 1.362 . S
C2058 C2061 1.409 1_545 S
C2059 H2051 0.930 . S
C2059 C2060 1.355 . S
C2059 C2061 1.415 . S
C2060 C2059 1.355 . S
C2060 C2062 1.419 . S
C2061 C2056 1.425 1_565 S
C2061 C2058 1.409 1_565 S
C2061 C2059 1.415 . S
C2062 H2052 0.930 . S
C2062 C2060 1.419 . S
C2062 C2063 1.362 . S
C2063 H2053 0.930 . S
C2063 C2056 1.409 1_565 S
C2063 C2062 1.362 . S
H2064 C2070 0.930 . S
H2065 C2073 0.930 . S
H2066 C2074 0.930 . S
H2067 C2075 0.930 . S
H2068 C2078 0.930 . S
H2069 C2079 0.930 . S
C2070 H2064 0.930 . S
C2070 C2071 1.355 . S
C2070 C2072 1.415 . S
C2071 C2070 1.355 . S
C2071 C2073 1.419 . S
C2072 C2070 1.415 . S
C2072 C2077 1.425 1_655 S
C2072 C2079 1.409 1_655 S
C2073 H2065 0.930 . S
C2073 C2071 1.419 . S
C2073 C2074 1.362 . S
C2074 H2066 0.930 . S
C2074 C2073 1.362 . S
C2074 C2077 1.409 1_655 S
C2075 H2067 0.930 . S
C2075 C2076 1.355 . S
C2075 C2077 1.415 . S
C2076 C2075 1.355 . S
C2076 C2078 1.419 . S
C2077 C2072 1.425 1_455 S
C2077 C2074 1.409 1_455 S
C2077 C2075 1.415 . S
C2078 H2068 0.930 . S
C2078 C2076 1.419 . S
C2078 C2079 1.362 . S
C2079 H2069 0.930 . S
C2079 C2072 1.409 1_455 S
C2079 C2078 1.362 . S
H2080 C2086 0.930 . S
H2081 C2089 0.930 . S
H2082 C2090 0.930 . S
H2083 C2091 0.930 . S
H2084 C2094 0.930 . S
H2085 C2095 0.930 . S
C2086 H2080 0.930 . S
C2086 C2087 1.355 . S
C2086 C2088 1.415 . S
C2087 C2086 1.355 . S
C2087 C2089 1.419 . S
C2088 C2086 1.415 . S
C2088 C2093 1.425 1_545 S
C2088 C2095 1.409 1_545 S
C2089 H2081 0.930 . S
C2089 C2087 1.419 . S
C2089 C2090 1.362 . S
C2090 H2082 0.930 . S
C2090 C2089 1.362 . S
C2090 C2093 1.409 1_545 S
C2091 H2083 0.930 . S
C2091 C2092 1.355 . S
C2091 C2093 1.415 . S
C2092 C2091 1.355 . S
C2092 C2094 1.419 . S
C2093 C2088 1.425 1_565 S
C2093 C2090 1.409 1_565 S
C2093 C2091 1.415 . S
C2094 H2084 0.930 . S
C2094 C2092 1.419 . S
C2094 C2095 1.362 . S
C2095 H2085 0.930 . S
C2095 C2088 1.409 1_565 S
C2095 C2094 1.362 . S
H2096 C2102 0.930 . S
H2097 C2105 0.930 . S
H2098 C2106 0.930 . S
H2099 C2107 0.930 . S
H2100 C2110 0.930 . S
H2101 C2111 0.930 . S
C2102 H2096 0.930 . S
C2102 C2103 1.355 . S
C2102 C2104 1.415 . S
C2103 C2102 1.355 . S
C2103 C2105 1.419 . S
C2104 C2102 1.415 . S
C2104 C2109 1.425 1_455 S
C2104 C2111 1.409 1_455 S
C2105 H2097 0.930 . S
C2105 C2103 1.419 . S
C2105 C2106 1.362 . S
C2106 H2098 0.930 . S
C2106 C2105 1.362 . S
C2106 C2109 1.409 1_455 S
C2107 H2099 0.930 . S
C2107 C2108 1.355 . S
C2107 C2109 1.415 . S
C2108 C2107 1.355 . S
C2108 C2110 1.419 . S
C2109 C2104 1.425 1_655 S
C2109 C2106 1.409 1_655 S
C2109 C2107 1.415 . S
C2110 H2100 0.930 . S
C2110 C2108 1.419 . S
C2110 C2111 1.362 . S
C2111 H2101 0.930 . S
C2111 C2104 1.409 1_655 S
C2111 C2110 1.362 . S
H2112 C2118 0.930 . S
H2113 C2121 0.930 . S
H2114 C2122 0.930 . S
H2115 C2123 0.930 . S
H2116 C2126 0.930 . S
H2117 C2127 0.930 . S
C2118 H2112 0.930 . S
C2118 C2119 1.355 . S
C2118 C2120 1.415 . S
C2119 C2118 1.355 . S
C2119 C2121 1.419 . S
C2120 C2118 1.415 . S
C2120 C2125 1.425 1_545 S
C2120 C2127 1.409 1_545 S
C2121 H2113 0.930 . S
C2121 C2119 1.419 . S
C2121 C2122 1.362 . S
C2122 H2114 0.930 . S
C2122 C2121 1.362 . S
C2122 C2125 1.409 1_545 S
C2123 H2115 0.930 . S
C2123 C2124 1.355 . S
C2123 C2125 1.415 . S
C2124 C2123 1.355 . S
C2124 C2126 1.419 . S
C2125 C2120 1.425 1_565 S
C2125 C2122 1.409 1_565 S
C2125 C2123 1.415 . S
C2126 H2116 0.930 . S
C2126 C2124 1.419 . S
C2126 C2127 1.362 . S
C2127 H2117 0.930 . S
C2127 C2120 1.409 1_565 S
C2127 C2126 1.362 . S
H2128 C2134 0.930 . S
H2129 C2137 0.930 . S
H2130 C2138 0.930 . S
H2131 C2139 0.930 . S
H2132 C2142 0.930 . S
H2133 C2143 0.930 . S
C2134 H2128 0.930 . S
C2134 C2135 1.355 . S
C2134 C2136 1.415 . S
C2135 C2134 1.355 . S
C2135 C2137 1.419 . S
C2136 C2134 1.415 . S
C2136 C2141 1.425 1_655 S
C2136 C2143 1.409 1_655 S
C2137 H2129 0.930 . S
C2137 C2135 1.419 . S
C2137 C2138 1.362 . S
C2138 H2130 0.930 . S
C2138 C2137 1.362 . S
C2138 C2141 1.409 1_655 S
C2139 H2131 0.930 . S
C2139 C2140 1.355 . S
C2139 C2141 1.415 . S
C2140 C2139 1.355 . S
C2140 C2142 1.419 . S
C2141 C2136 1.425 1_455 S
C2141 C2138 1.409 1_455 S
C2141 C2139 1.415 . S
C2142 H2132 0.930 . S
C2142 C2140 1.419 . S
C2142 C2143 1.362 . S
C2143 H2133 0.930 . S
C2143 C2136 1.409 1_455 S
C2143 C2142 1.362 . S
H2144 C2150 0.930 . S
H2145 C2153 0.930 . S
H2146 C2154 0.930 . S
H2147 C2155 0.930 . S
H2148 C2158 0.930 . S
H2149 C2159 0.930 . S
C2150 H2144 0.930 . S
C2150 C2151 1.355 . S
C2150 C2152 1.415 . S
C2151 C2150 1.355 . S
C2151 C2153 1.419 . S
C2152 C2150 1.415 . S
C2152 C2157 1.425 1_455 S
C2152 C2159 1.409 1_455 S
C2153 H2145 0.930 . S
C2153 C2151 1.419 . S
C2153 C2154 1.362 . S
C2154 H2146 0.930 . S
C2154 C2153 1.362 . S
C2154 C2157 1.409 1_455 S
C2155 H2147 0.930 . S
C2155 C2156 1.355 . S
C2155 C2157 1.415 . S
C2156 C2155 1.355 . S
C2156 C2158 1.419 . S
C2157 C2152 1.425 1_655 S
C2157 C2154 1.409 1_655 S
C2157 C2155 1.415 . S
C2158 H2148 0.930 . S
C2158 C2156 1.419 . S
C2158 C2159 1.362 . S
C2159 H2149 0.930 . S
C2159 C2152 1.409 1_655 S
C2159 C2158 1.362 . S
C631 C517 1.408 . S
C636 C3 1.392 . S
C647 C17 1.395 . S
C652 C471 1.397 . S
C663 C31 1.397 . S
C668 C485 1.394 . S
C679 C498 1.382 . S
C684 C43 1.402 . S
C695 C439 1.399 . S
C700 C56 1.381 . S
C711 C70 1.410 . S
C716 C445 1.394 . S
C727 C88 1.396 . S
C732 C458 1.392 . S
C743 C94 1.412 . S
C748 C421 1.396 . S
C759 C114 1.405 . S
C764 C406 1.393 . S
C775 C374 1.401 . S
C780 C121 1.382 . S
C791 C380 1.397 . S
C796 C140 1.394 . S
C807 C146 1.393 . S
C812 C400 1.400 . S
C823 C161 1.387 . S
C828 C329 1.396 . S
C839 C172 1.409 . S
C844 C341 1.394 . S
C855 C355 1.395 . S
C860 C186 1.375 . S
C871 C315 1.395 . S
C876 C199 1.405 . S
C887 C218 1.396 . S
C892 C576 1.394 . S
C903 C616 1.399 . S
C908 C224 1.396 . S
C919 C589 1.393 . S
C924 C238 1.389 . S
C935 C603 1.405 . S
C940 C252 1.391 . S
C951 C530 1.395 . S
C956 C270 1.393 . S
C967 C550 1.398 . S
C972 C277 1.394 . S
C983 C291 1.390 . S
C988 C564 1.402 . S
C999 C536 1.393 . S
C1004 C302 1.400 . S
C1015 C426 1.391 . S
C1020 C265 1.404 . S
C1031 C225 1.403 . S
C1036 C434 1.388 . S
C1047 C446 1.387 . S
C1052 C237 1.401 . S
C1063 C459 1.399 . S
C1068 C257 1.376 . S
C1079 C303 1.396 . S
C1084 C472 1.374 . S
C1095 C484 1.397 . S
C1100 C276 1.406 . S
C1111 C296 1.393 . S
C1116 C497 1.390 . S
C1127 C213 1.401 . S
C1132 C512 1.409 . S
C1143 C525 1.397 . S
C1148 C198 1.413 . S
C1159 C166 1.393 . S
C1164 C621 1.392 . S
C1175 C588 1.391 . S
C1180 C173 1.402 . S
C1191 C185 1.394 . S
C1196 C608 1.401 . S
C1207 C120 1.388 . S
C1212 C537 1.394 . S
C1223 C135 1.410 . S
C1228 C549 1.394 . S
C1239 C147 1.385 . S
C1244 C569 1.386 . S
C1255 C575 1.413 . S
C1260 C109 1.397 . S
C1271 C316 1.400 . S
C1276 C95 1.387 . S
C1287 C369 1.399 . S
C1292 C16 1.399 . S
C1303 C381 1.380 . S
C1308 C36 1.402 . S
C1319 C395 1.392 . S
C1324 C42 1.406 . S
C1335 C407 1.400 . S
C1340 C4 1.384 . S
C1351 C75 1.385 . S
C1356 C342 1.407 . S
C1367 C354 1.404 . S
C1372 C83 1.390 . S
C1383 C328 1.404 . S
C1388 C55 1.390 . S
C1399 C10 1.561 . S
C1404 C348 1.549 . S
C1415 C356 1.555 . S
C1420 C18 1.575 . S
C1431 C30 1.558 . S
C1436 C322 1.549 . S
C1447 C44 1.575 . S
C1452 C330 1.555 . S
C1463 C57 1.563 . S
C1468 C393 1.567 . S
C1479 C413 1.560 . S
C1484 C69 1.550 . S
C1495 C81 1.561 . S
C1500 C367 1.569 . S
C1511 C387 1.560 . S
C1516 C101 1.548 . S
C1527 C107 1.562 . S
C1532 C478 1.556 . S
C1543 C486 1.571 . S
C1548 C122 1.562 . S
C1559 C133 1.562 . S
C1564 C499 1.571 . S
C1575 C153 1.565 . S
C1580 C510 1.547 . S
C1591 C160 1.546 . S
C1596 C420 1.561 . S
C1607 C179 1.568 . S
C1612 C432 1.548 . S
C1623 C452 1.557 . S
C1628 C187 1.567 . S
C1639 C200 1.567 . S
C1644 C465 1.555 . S
C1655 C563 1.554 . S
C1660 C211 1.568 . S
C1671 C231 1.560 . S
C1676 C590 1.558 . S
C1687 C239 1.558 . S
C1692 C602 1.562 . S
C1703 C523 1.568 . S
C1708 C251 1.554 . S
C1719 C615 1.572 . S
C1724 C263 1.551 . S
C1735 C278 1.550 . S
C1740 C543 1.562 . S
C1751 C551 1.546 . S
C1756 C290 1.564 . S
C1767 C309 1.568 . S
C1772 C577 1.547 . S
C1783 C556 1.562 . S
C1788 C264 1.547 . S
C1799 C226 1.575 . S
C1804 C562 1.555 . S
C1815 C582 1.551 . S
C1820 C244 1.558 . S
C1831 C538 1.554 . S
C1836 C250 1.575 . S
C1847 C601 1.562 . S
C1852 C304 1.568 . S
C1863 C283 1.562 . S
C1868 C524 1.549 . S
C1879 C614 1.556 . S
C1884 C289 1.574 . S
C1895 C212 1.559 . S
C1900 C595 1.550 . S
C1911 C433 1.557 . S
C1916 C205 1.545 . S
C1927 C159 1.562 . S
C1932 C447 1.571 . S
C1943 C174 1.572 . S
C1948 C460 1.564 . S
C1959 C419 1.546 . S
C1964 C192 1.567 . S
C1975 C127 1.559 . S
C1980 C511 1.547 . S
C1991 C473 1.563 . S
C1996 C134 1.561 . S
C2007 C148 1.570 . S
C2012 C491 1.555 . S
C2023 C108 1.546 . S
C2028 C504 1.560 . S
C2039 C361 1.554 . S
C2044 C96 1.569 . S
C2055 C23 1.568 . S
C2060 C382 1.548 . S
C2071 C29 1.564 . S
C2076 C394 1.557 . S
C2087 C408 1.561 . S
C2092 C49 1.564 . S
C2103 C5 1.564 . S
C2108 C368 1.563 . S
C2119 C68 1.546 . S
C2124 C335 1.565 . S
C2135 C82 1.557 . S
C2140 C343 1.559 . S
C2151 C62 1.572 . S
C2156 C317 1.552 . S
