# Generated by pormake.
# Topology ske, (6)-cn, num edge types: 1
# Building blocks:
#     Node 0, Type 0, BuildingBlock: HISSIN_clean_sbu_0, # of connection points: 6
#     Node 1, Type 0, BuildingBlock: HISSIN_clean_sbu_0, # of connection points: 6
#     Node 2, Type 0, BuildingBlock: HISSIN_clean_sbu_0, # of connection points: 6
#     Node 3, Type 0, BuildingBlock: HISSIN_clean_sbu_0, # of connection points: 6
#     Node 4, Type 0, BuildingBlock: HISSIN_clean_sbu_0, # of connection points: 6
#     Node 5, Type 0, BuildingBlock: HISSIN_clean_sbu_0, # of connection points: 6
#     Node 6, Type 0, BuildingBlock: HISSIN_clean_sbu_0, # of connection points: 6
#     Node 7, Type 0, BuildingBlock: HISSIN_clean_sbu_0, # of connection points: 6
#     Edge 8, Type (0, 0), BuildingBlock: AJUNOK_clean_linker_0, # of connection points: 2
#     Edge 9, Type (0, 0), BuildingBlock: AJUNOK_clean_linker_0, # of connection points: 2
#     Edge 10, Type (0, 0), BuildingBlock: AJUNOK_clean_linker_0, # of connection points: 2
#     Edge 11, Type (0, 0), BuildingBlock: AJUNOK_clean_linker_0, # of connection points: 2
#     Edge 12, Type (0, 0), BuildingBlock: AJUNOK_clean_linker_0, # of connection points: 2
#     Edge 13, Type (0, 0), BuildingBlock: AJUNOK_clean_linker_0, # of connection points: 2
#     Edge 14, Type (0, 0), BuildingBlock: AJUNOK_clean_linker_0, # of connection points: 2
#     Edge 15, Type (0, 0), BuildingBlock: AJUNOK_clean_linker_0, # of connection points: 2
#     Edge 16, Type (0, 0), BuildingBlock: AJUNOK_clean_linker_0, # of connection points: 2
#     Edge 17, Type (0, 0), BuildingBlock: AJUNOK_clean_linker_0, # of connection points: 2
#     Edge 18, Type (0, 0), BuildingBlock: AJUNOK_clean_linker_0, # of connection points: 2
#     Edge 19, Type (0, 0), BuildingBlock: AJUNOK_clean_linker_0, # of connection points: 2
#     Edge 20, Type (0, 0), BuildingBlock: AJUNOK_clean_linker_0, # of connection points: 2
#     Edge 21, Type (0, 0), BuildingBlock: AJUNOK_clean_linker_0, # of connection points: 2
#     Edge 22, Type (0, 0), BuildingBlock: AJUNOK_clean_linker_0, # of connection points: 2
#     Edge 23, Type (0, 0), BuildingBlock: AJUNOK_clean_linker_0, # of connection points: 2
#     Edge 24, Type (0, 0), BuildingBlock: AJUNOK_clean_linker_0, # of connection points: 2
#     Edge 25, Type (0, 0), BuildingBlock: AJUNOK_clean_linker_0, # of connection points: 2
#     Edge 26, Type (0, 0), BuildingBlock: AJUNOK_clean_linker_0, # of connection points: 2
#     Edge 27, Type (0, 0), BuildingBlock: AJUNOK_clean_linker_0, # of connection points: 2
#     Edge 28, Type (0, 0), BuildingBlock: AJUNOK_clean_linker_0, # of connection points: 2
#     Edge 29, Type (0, 0), BuildingBlock: AJUNOK_clean_linker_0, # of connection points: 2
#     Edge 30, Type (0, 0), BuildingBlock: AJUNOK_clean_linker_0, # of connection points: 2
#     Edge 31, Type (0, 0), BuildingBlock: AJUNOK_clean_linker_0, # of connection points: 2
# Relax obj value: 0.189
# Max RMSD: 0.206
# Mean RMSD: 0.198
data_MOF--net-ske--node1-HISSIN_clean_sbu_0--edge1-AJUNOK_clean_linker_0
_symmetry_space_group_name_H-M    P1
_symmetry_Int_Tables_number       1
_symmetry_cell_setting            triclinic
loop_
_symmetry_equiv_pos_as_xyz
'x, y, z'
_cell_length_a     89.362015
_cell_length_b     22.254392
_cell_length_c     11.428028
_cell_angle_alpha  90.09346
_cell_angle_beta   89.925588
_cell_angle_gamma 97.420869
loop_
_atom_site_label
_atom_site_type_symbol
_atom_site_fract_x
_atom_site_fract_y
_atom_site_fract_z
_atom_type_partial_charge
Eu0 Eu 0.11844 0.23728 0.50556 0.0
Eu1 Eu 0.15612 0.24729 0.50404 0.0
C2 C 0.13918 0.36478 0.50236 0.0
C3 C 0.07375 0.23726 0.47775 0.0
C4 C 0.06822 0.29276 0.49765 0.0
C5 C 0.04836 0.19233 0.42468 0.0
C6 C 0.05284 0.29749 0.48423 0.0
C7 C 0.06369 0.18745 0.43927 0.0
C8 C 0.04267 0.24702 0.44935 0.0
C9 C 0.08901 0.22742 0.51726 0.0
O10 O 0.14968 0.23103 0.69266 0.0
O11 O 0.12539 0.25526 0.69363 0.0
C12 C 0.13761 0.24373 0.74861 0.0
O13 O 0.12503 0.14732 0.55905 0.0
O14 O 0.179 0.29418 0.4738 0.0
O15 O 0.17561 0.19972 0.52684 0.0
O16 O 0.14625 0.15389 0.44779 0.0
C17 C 0.13544 0.12139 0.50527 0.0
O18 O 0.12457 0.22594 0.31507 0.0
O19 O 0.14985 0.26373 0.31745 0.0
O20 O 0.15007 0.33956 0.55209 0.0
O21 O 0.09624 0.18792 0.46375 0.0
O22 O 0.09798 0.27261 0.56188 0.0
O23 O 0.12764 0.332 0.45285 0.0
C24 C 0.19974 0.25458 0.56803 0.0
C25 C 0.20279 0.21248 0.65366 0.0
C26 C 0.22587 0.30143 0.58051 0.0
C27 C 0.2173 0.21406 0.70014 0.0
C28 C 0.21139 0.29939 0.53298 0.0
C29 C 0.22906 0.25834 0.66362 0.0
C30 C 0.1854 0.2466 0.50179 0.0
C31 C 0.13733 0.24495 0.26061 0.0
H32 H 0.07561 0.33178 0.5294 0.0
H33 H 0.04088 0.15265 0.39705 0.0
H34 H 0.04885 0.3399 0.507 0.0
H35 H 0.06755 0.14379 0.42542 0.0
H36 H 0.19416 0.17666 0.68142 0.0
H37 H 0.23465 0.33619 0.55071 0.0
H38 H 0.21942 0.17905 0.76134 0.0
H39 H 0.20943 0.3317 0.46568 0.0
Eu40 Eu 0.90087 0.24434 0.52012 0.0
Eu41 Eu 0.863 0.22569 0.51791 0.0
C42 C 0.8817 0.11647 0.5232 0.0
C43 C 0.94594 0.25132 0.48677 0.0
C44 C 0.952 0.20033 0.44376 0.0
C45 C 0.97136 0.306 0.49429 0.0
C46 C 0.96755 0.20188 0.42776 0.0
C47 C 0.95577 0.30453 0.50985 0.0
C48 C 0.97746 0.25434 0.45488 0.0
C49 C 0.93008 0.24483 0.52767 0.0
O50 O 0.86945 0.21578 0.7068 0.0
O51 O 0.89441 0.25835 0.70829 0.0
C52 C 0.88182 0.2377 0.76304 0.0
O53 O 0.89398 0.33583 0.48296 0.0
O54 O 0.84183 0.16846 0.55653 0.0
O55 O 0.84149 0.25562 0.47142 0.0
O56 O 0.87065 0.32176 0.57155 0.0
C57 C 0.88239 0.3573 0.53097 0.0
O58 O 0.89455 0.22933 0.32947 0.0
O59 O 0.86966 0.2464 0.33146 0.0
O60 O 0.87112 0.13842 0.46434 0.0
O61 O 0.92352 0.29182 0.55752 0.0
O62 O 0.92066 0.1993 0.48989 0.0
O63 O 0.89145 0.15244 0.58375 0.0
C64 C 0.81923 0.21424 0.57571 0.0
C65 C 0.81481 0.27136 0.59995 0.0
C66 C 0.79464 0.16653 0.6412 0.0
C67 C 0.80026 0.27591 0.6421 0.0
C68 C 0.80909 0.16202 0.59849 0.0
C69 C 0.78991 0.2235 0.66039 0.0
C70 C 0.8335 0.20745 0.51469 0.0
C71 C 0.88201 0.23785 0.27497 0.0
H72 H 0.9448 0.15815 0.42736 0.0
H73 H 0.97867 0.34671 0.51871 0.0
H74 H 0.97186 0.16137 0.39691 0.0
H75 H 0.9515 0.34413 0.54544 0.0
H76 H 0.82238 0.31249 0.5831 0.0
H77 H 0.78712 0.12527 0.65791 0.0
H78 H 0.79696 0.32047 0.65669 0.0
H79 H 0.81221 0.11748 0.58015 0.0
Eu80 Eu 0.15539 0.74755 0.56949 0.0
Eu81 Eu 0.11771 0.7349 0.56739 0.0
C82 C 0.13543 0.62159 0.55939 0.0
C83 C 0.19895 0.7514 0.50479 0.0
C84 C 0.20288 0.70153 0.44118 0.0
C85 C 0.22426 0.80366 0.47068 0.0
C86 C 0.21738 0.70228 0.395 0.0
C87 C 0.20977 0.80262 0.51827 0.0
C88 C 0.22828 0.75326 0.4094 0.0
C89 C 0.18465 0.74618 0.57217 0.0
O90 O 0.124 0.72282 0.75742 0.0
O91 O 0.14894 0.76532 0.75537 0.0
C92 C 0.13658 0.74401 0.81218 0.0
O93 O 0.14914 0.83898 0.51804 0.0
O94 O 0.09563 0.68423 0.60867 0.0
O95 O 0.09714 0.76947 0.51274 0.0
O96 O 0.12661 0.83032 0.61618 0.0
C97 C 0.13769 0.86332 0.56173 0.0
O98 O 0.14905 0.7307 0.38047 0.0
O99 O 0.12457 0.75294 0.37925 0.0
O100 O 0.12494 0.64716 0.50645 0.0
O101 O 0.17835 0.79473 0.59512 0.0
O102 O 0.17476 0.69889 0.55229 0.0
O103 O 0.14537 0.6542 0.62464 0.0
C104 C 0.07301 0.73272 0.59669 0.0
C105 C 0.06794 0.78999 0.59373 0.0
C106 C 0.04727 0.68666 0.63423 0.0
C107 C 0.05261 0.79533 0.60987 0.0
C108 C 0.06256 0.68142 0.61927 0.0
C109 C 0.04206 0.74357 0.62865 0.0
C110 C 0.08829 0.72369 0.55641 0.0
C111 C 0.1369 0.74227 0.32433 0.0
H112 H 0.19496 0.66069 0.43108 0.0
H113 H 0.23239 0.84364 0.48335 0.0
H114 H 0.22018 0.66186 0.3518 0.0
H115 H 0.2072 0.84122 0.56882 0.0
H116 H 0.07569 0.83036 0.57477 0.0
H117 H 0.03946 0.64561 0.64478 0.0
H118 H 0.04897 0.83983 0.6052 0.0
H119 H 0.06609 0.63663 0.61925 0.0
Eu120 Eu 0.86254 0.72686 0.56309 0.0
Eu121 Eu 0.90037 0.74294 0.56029 0.0
C122 C 0.88251 0.85716 0.55207 0.0
C123 C 0.81866 0.71689 0.51152 0.0
C124 C 0.81609 0.76951 0.45097 0.0
C125 C 0.79247 0.67525 0.48184 0.0
C126 C 0.80166 0.77515 0.40756 0.0
C127 C 0.8068 0.66969 0.525 0.0
C128 C 0.78964 0.72847 0.42492 0.0
C129 C 0.83307 0.71074 0.56959 0.0
O130 O 0.89385 0.72576 0.74883 0.0
O131 O 0.86928 0.74668 0.75088 0.0
C132 C 0.88166 0.73656 0.80551 0.0
O133 O 0.8702 0.63835 0.61374 0.0
O134 O 0.92312 0.7897 0.52322 0.0
O135 O 0.92003 0.69723 0.59062 0.0
O136 O 0.89082 0.65124 0.49627 0.0
C137 C 0.88083 0.61591 0.55597 0.0
O138 O 0.86869 0.71735 0.37226 0.0
O139 O 0.89387 0.75733 0.37344 0.0
O140 O 0.8938 0.83456 0.60157 0.0
O141 O 0.84111 0.67055 0.52833 0.0
O142 O 0.84128 0.75955 0.60812 0.0
O143 O 0.8708 0.82233 0.50921 0.0
C144 C 0.94542 0.74787 0.59263 0.0
C145 C 0.95173 0.69479 0.61839 0.0
C146 C 0.97055 0.80489 0.60358 0.0
C147 C 0.96726 0.69639 0.6337 0.0
C148 C 0.95496 0.80313 0.58644 0.0
C149 C 0.97692 0.75136 0.6259 0.0
C150 C 0.92955 0.74237 0.55268 0.0
C151 C 0.88135 0.73733 0.31746 0.0
H152 H 0.82511 0.80651 0.43937 0.0
H153 H 0.78355 0.63791 0.49371 0.0
H154 H 0.7998 0.81654 0.36329 0.0
H155 H 0.80857 0.62872 0.57129 0.0
H156 H 0.94475 0.65121 0.62065 0.0
H157 H 0.97767 0.84801 0.597 0.0
H158 H 0.97174 0.65393 0.64639 0.0
H159 H 0.95048 0.84464 0.56458 0.0
Eu160 Eu 0.61886 0.74215 0.11378 0.0
Eu161 Eu 0.65633 0.75224 0.11051 0.0
C162 C 0.63933 0.86771 0.09561 0.0
C163 C 0.57401 0.7439 0.08352 0.0
C164 C 0.56811 0.79808 0.05898 0.0
C165 C 0.54851 0.68991 0.0746 0.0
C166 C 0.55261 0.79851 0.04554 0.0
C167 C 0.56409 0.68949 0.08869 0.0
C168 C 0.54261 0.7448 0.05685 0.0
C169 C 0.58986 0.74743 0.12324 0.0
O170 O 0.65008 0.76456 0.29923 0.0
O171 O 0.62501 0.72488 0.30081 0.0
C172 C 0.63764 0.74409 0.35566 0.0
O173 O 0.62425 0.64937 0.06031 0.0
O174 O 0.67785 0.80767 0.14679 0.0
O175 O 0.67754 0.71833 0.06865 0.0
O176 O 0.64785 0.65356 0.14223 0.0
C177 C 0.63584 0.62264 0.09429 0.0
O178 O 0.62494 0.75356 0.92206 0.0
O179 O 0.64976 0.73519 0.92316 0.0
O180 O 0.64945 0.83976 0.04286 0.0
O181 O 0.59583 0.69913 0.15346 0.0
O182 O 0.59972 0.79116 0.08426 0.0
O183 O 0.62923 0.83667 0.16226 0.0
C184 C 0.7002 0.76066 0.16486 0.0
C185 C 0.70247 0.70883 0.22896 0.0
C186 C 0.72652 0.80082 0.19321 0.0
C187 C 0.71679 0.70291 0.274 0.0
C188 C 0.71229 0.80658 0.14814 0.0
C189 C 0.72898 0.74888 0.25614 0.0
C190 C 0.68583 0.76706 0.10644 0.0
C191 C 0.63742 0.74417 0.86721 0.0
H192 H 0.57541 0.84089 0.05593 0.0
H193 H 0.54102 0.64783 0.08345 0.0
H194 H 0.54839 0.84128 1.02995 0.0
H195 H 0.56828 0.64712 0.1087 0.0
H196 H 0.69329 0.67263 0.24225 0.0
H197 H 0.73563 0.83714 0.17873 0.0
H198 H 0.7184 0.66185 0.32041 0.0
H199 H 0.71077 0.84672 0.09824 0.0
Eu200 Eu 0.40068 0.74257 0.11394 0.0
Eu201 Eu 0.36314 0.73309 0.11295 0.0
C202 C 0.3803 0.617 0.08731 0.0
C203 C 0.44568 0.74445 0.08533 0.0
C204 C 0.45229 0.6913 0.06647 0.0
C205 C 0.47059 0.80282 0.0702 0.0
C206 C 0.46789 0.69356 0.05393 0.0
C207 C 0.45495 0.80043 0.08501 0.0
C208 C 0.47733 0.74918 0.05893 0.0
C209 C 0.42974 0.73886 0.12375 0.0
O210 O 0.36946 0.71851 0.30035 0.0
O211 O 0.39441 0.7597 0.30123 0.0
C212 C 0.38185 0.73966 0.35649 0.0
O213 O 0.39497 0.83416 0.05488 0.0
O214 O 0.34142 0.67898 0.14893 0.0
O215 O 0.3421 0.76912 0.07411 0.0
O216 O 0.37202 0.83131 0.14658 0.0
C217 C 0.38356 0.8614 0.09134 0.0
O218 O 0.39459 0.73183 0.92234 0.0
O219 O 0.36968 0.7492 0.92476 0.0
O220 O 0.3698 0.64563 0.04167 0.0
O221 O 0.42349 0.78617 0.15647 0.0
O222 O 0.42012 0.69513 0.08175 0.0
O223 O 0.39061 0.64655 0.15449 0.0
C224 C 0.31922 0.72742 0.17023 0.0
C225 C 0.31606 0.78274 0.21782 0.0
C226 C 0.29335 0.68371 0.20898 0.0
C227 C 0.30152 0.78858 0.2591 0.0
C228 C 0.3078 0.67791 0.16802 0.0
C229 C 0.28993 0.73942 0.25232 0.0
C230 C 0.33362 0.72073 0.1113 0.0
C231 C 0.38205 0.74071 0.86816 0.0
H232 H 0.44545 0.64738 0.06765 0.0
H233 H 0.47741 0.8467 0.06994 0.0
H234 H 0.4726 0.65127 0.04572 0.0
H235 H 0.4502 0.84219 0.09976 0.0
H236 H 0.32468 0.8217 0.22036 0.0
H237 H 0.28477 0.64463 0.20537 0.0
H238 H 0.2992 0.83197 0.29273 0.0
H239 H 0.30996 0.63489 0.13143 0.0
Eu240 Eu 0.65607 0.25182 0.96648 0.0
Eu241 Eu 0.61862 0.23984 0.96794 0.0
C242 C 0.63619 0.12279 0.98943 0.0
C243 C 0.69965 0.25705 0.90474 0.0
C244 C 0.70354 0.19912 0.88028 0.0
C245 C 0.72448 0.30163 0.83873 0.0
C246 C 0.71791 0.19259 0.83704 0.0
C247 C 0.71021 0.3081 0.8827 0.0
C248 C 0.72856 0.24384 0.81644 0.0
C249 C 0.68556 0.26573 0.96602 0.0
O250 O 0.62523 0.25349 0.15626 0.0
O251 O 0.65008 0.2361 0.15661 0.0
C252 C 0.63754 0.24371 0.21161 0.0
O253 O 0.64924 0.34029 1.03119 0.0
O254 O 0.59594 0.19216 0.93813 0.0
O255 O 0.59889 0.28416 1.01317 0.0
O256 O 0.62793 0.33563 0.92222 0.0
C257 C 0.63839 0.36696 0.98542 0.0
O258 O 0.6495 0.26224 0.77722 0.0
O259 O 0.62435 0.22315 0.77999 0.0
O260 O 0.62491 0.14984 1.02794 0.0
O261 O 0.67757 0.306 0.92466 0.0
O262 O 0.67726 0.21843 1.00949 0.0
O263 O 0.64761 0.15315 0.93341 0.0
C264 C 0.57311 0.23539 0.9887 0.0
C265 C 0.56637 0.28821 0.97169 0.0
C266 C 0.54857 0.18077 1.03634 0.0
C267 C 0.55075 0.28685 0.98326 0.0
C268 C 0.56412 0.18173 1.02116 0.0
C269 C 0.5416 0.23294 1.01492 0.0
C270 C 0.58957 0.23705 0.98116 0.0
C271 C 0.63685 0.24209 0.72287 0.0
H272 H 0.69569 0.15885 0.89779 0.0
H273 H 0.73239 0.34198 0.82321 0.0
H274 H 0.72081 0.14735 0.82329 0.0
H275 H 0.70754 0.35317 0.90247 0.0
H276 H 0.57316 0.3304 0.94835 0.0
H277 H 0.54209 0.1392 0.06634 0.0
H278 H 0.54584 0.32795 0.96593 0.0
H279 H 0.56917 0.14089 0.03795 0.0
Eu280 Eu 0.36304 0.23262 0.9651 0.0
Eu281 Eu 0.4004 0.24197 0.96326 0.0
C282 C 0.38364 0.36161 0.97785 0.0
C283 C 0.31919 0.22823 0.91042 0.0
C284 C 0.31702 0.28051 0.84705 0.0
C285 C 0.29268 0.19015 0.88552 0.0
C286 C 0.30263 0.28764 0.8041 0.0
C287 C 0.30697 0.18293 0.92756 0.0
C288 C 0.29029 0.24296 0.82532 0.0
C289 C 0.33355 0.2207 0.96834 0.0
O290 O 0.39425 0.22983 0.15449 0.0
O291 O 0.36965 0.25064 0.15253 0.0
C292 C 0.38187 0.24055 0.20909 0.0
O293 O 0.36963 0.14416 1.03211 0.0
O294 O 0.42341 0.28486 0.92271 0.0
O295 O 0.41954 0.19325 0.99353 0.0
O296 O 0.39011 0.1472 0.91525 0.0
C297 C 0.37988 0.11618 0.98094 0.0
O298 O 0.36923 0.21933 0.77662 0.0
O299 O 0.39433 0.25881 0.77577 0.0
O300 O 0.39495 0.33489 1.01766 0.0
O301 O 0.34126 0.17909 0.92858 0.0
O302 O 0.34209 0.26879 1.00623 0.0
O303 O 0.37197 0.33026 0.92647 0.0
C304 C 0.44516 0.24137 0.99673 0.0
C305 C 0.45046 0.19059 0.04766 0.0
C306 C 0.47109 0.29025 0.98356 0.0
C307 C 0.4659 0.18918 0.06402 0.0
C308 C 0.45562 0.29177 0.96752 0.0
C309 C 0.47642 0.23815 1.02842 0.0
C310 C 0.42942 0.23684 0.95422 0.0
C311 C 0.38171 0.23975 0.72062 0.0
H312 H 0.3263 0.31613 0.83288 0.0
H313 H 0.28342 0.15456 0.90111 0.0
H314 H 0.30105 0.32867 0.75741 0.0
H315 H 0.30841 0.14231 0.97624 0.0
H316 H 0.44273 0.15064 0.06994 0.0
H317 H 0.47893 0.32871 0.95522 0.0
H318 H 0.46962 0.14897 0.1015 0.0
H319 H 0.45193 0.33119 0.92665 0.0
C320 C 0.25708 0.26578 0.63005 0.0
C321 C 0.24473 0.25793 0.708 0.0
C322 C 0.27187 0.26269 0.66894 0.0
C323 C 0.27482 0.25105 0.78691 0.0
H324 H 0.25529 0.2728 0.53763 0.0
H325 H 0.28098 0.26761 0.6057 0.0
S326 S 0.24683 0.23323 1.02839 0.0
N327 N 0.23675 0.24302 0.91061 0.0
N328 N 0.26443 0.23571 0.98273 0.0
C329 C 0.26268 0.24471 0.8662 0.0
C330 C 0.24767 0.24844 0.827 0.0
C331 C 0.75663 0.27222 0.82721 0.0
C332 C 0.74407 0.23756 0.77506 0.0
C333 C 0.77136 0.26769 0.7893 0.0
C334 C 0.77415 0.22814 0.69803 0.0
H335 H 0.75508 0.30265 0.89904 0.0
H336 H 0.78066 0.29471 0.83311 0.0
S337 S 0.74514 0.1308 0.52651 0.0
N338 N 0.73537 0.16467 0.62349 0.0
N339 N 0.76303 0.15602 0.55213 0.0
C340 C 0.76168 0.19377 0.64409 0.0
C341 C 0.74668 0.19844 0.6827 0.0
C342 C 0.2713 0.77095 0.39773 0.0
C343 C 0.27421 0.74592 0.28825 0.0
C344 C 0.25646 0.77406 0.43555 0.0
C345 C 0.24396 0.7527 0.36488 0.0
H346 H 0.28054 0.78668 0.45597 0.0
H347 H 0.25476 0.7919 0.52211 0.0
S348 S 0.24565 0.6896 0.06494 0.0
N349 N 0.26346 0.70356 0.10608 0.0
N350 N 0.23565 0.71031 0.17604 0.0
C351 C 0.24679 0.72956 0.25349 0.0
C352 C 0.26187 0.72602 0.21545 0.0
C353 C 0.75704 0.75749 0.22858 0.0
C354 C 0.74432 0.74305 0.3012 0.0
C355 C 0.77167 0.7536 0.26958 0.0
C356 C 0.77413 0.73486 0.38456 0.0
H357 H 0.75567 0.77129 0.13878 0.0
H358 H 0.78109 0.76426 0.21015 0.0
S359 S 0.74484 0.69705 0.61276 0.0
N360 N 0.73528 0.7128 0.49565 0.0
N361 N 0.76274 0.70525 0.57266 0.0
C362 C 0.76155 0.72128 0.45865 0.0
C363 C 0.74667 0.72531 0.41696 0.0
C364 C 0.14997 0.96889 0.52085 0.0
C365 C 0.13689 0.92887 0.54658 0.0
C366 C 0.14934 0.03101 0.50567 0.0
C367 C 0.13562 0.05535 0.51575 0.0
H368 H 0.16082 0.95231 0.51369 0.0
H369 H 0.15976 0.06029 0.4881 0.0
S370 S 0.0979 0.9691 0.5701 0.0
N371 N 0.10962 0.9176 0.57341 0.0
N372 N 0.10851 0.0342 0.54531 0.0
C373 C 0.12241 0.01573 0.53884 0.0
C374 C 0.12303 0.95254 0.55416 0.0
C375 C 0.8686 0.44709 0.55348 0.0
C376 C 0.88238 0.4234 0.53998 0.0
C377 C 0.86816 0.50957 0.56106 0.0
C378 C 0.88148 0.55037 0.55473 0.0
H379 H 0.85802 0.41725 0.55643 0.0
H380 H 0.85731 0.52602 0.56915 0.0
S381 S 0.92056 0.51188 0.53325 0.0
N382 N 0.90976 0.44583 0.52992 0.0
N383 N 0.90887 0.56332 0.54354 0.0
C384 C 0.89535 0.52745 0.54447 0.0
C385 C 0.89582 0.4639 0.53712 0.0
C386 C 0.86947 0.94765 0.51395 0.0
C387 C 0.8828 0.92351 0.54327 0.0
C388 C 0.86924 0.01017 0.50562 0.0
C389 C 0.88231 0.05081 0.52687 0.0
H390 H 0.85904 0.91816 0.49853 0.0
H391 H 0.85868 0.02669 0.48466 0.0
S392 S 0.92042 0.01145 0.59613 0.0
N393 N 0.90965 0.94555 0.58641 0.0
N394 N 0.90915 0.06315 0.5712 0.0
C395 C 0.89579 0.02753 0.55375 0.0
C396 C 0.89605 0.96384 0.56192 0.0
C397 C 0.14541 0.52598 0.61707 0.0
C398 C 0.13661 0.55661 0.54091 0.0
C399 C 0.14666 0.46433 0.60159 0.0
C400 C 0.13915 0.4311 0.50948 0.0
H401 H 0.15118 0.54946 0.69052 0.0
H402 H 0.1532 0.44223 0.66437 0.0
S403 S 0.11648 0.49207 0.27621 0.0
N404 N 0.12146 0.55034 0.36349 0.0
N405 N 0.12387 0.43474 0.3342 0.0
C406 C 0.13086 0.4618 0.4298 0.0
C407 C 0.12955 0.52445 0.44567 0.0
C408 C 0.64949 0.53082 0.08054 0.0
C409 C 0.63593 0.5566 0.07069 0.0
C410 C 0.65021 0.4698 0.05216 0.0
C411 C 0.63742 0.43186 1.01197 0.0
H412 H 0.65976 0.55811 0.1089 0.0
H413 H 0.66093 0.45246 0.06081 0.0
S414 S 0.59884 0.47482 0.9796 0.0
N415 N 0.60915 0.5376 1.0241 0.0
N416 N 0.61056 0.42351 0.97003 0.0
C417 C 0.62373 0.45655 1.00353 0.0
C418 C 0.62296 0.51862 1.03313 0.0
C419 C 0.37417 0.9615 0.13004 0.0
C420 C 0.38311 0.9266 0.06301 0.0
C421 C 0.37302 0.02224 0.10183 0.0
C422 C 0.38069 0.05074 1.00494 0.0
H423 H 0.36805 0.94187 0.2056 0.0
H424 H 0.36618 0.04722 0.15755 0.0
S425 S 0.40446 0.97777 0.79439 0.0
N426 N 0.39909 0.92428 0.89112 0.0
N427 N 0.39686 0.03785 0.83779 0.0
C428 C 0.38945 0.01601 0.93584 0.0
C429 C 0.39069 0.95425 0.96497 0.0
C430 C 0.39166 0.45715 0.0925 0.0
C431 C 0.38339 0.42774 0.99916 0.0
C432 C 0.39055 0.51803 0.12075 0.0
C433 C 0.38115 0.55222 0.05683 0.0
H434 H 0.39878 0.43257 0.14623 0.0
H435 H 0.39702 0.53818 0.19425 0.0
S436 S 0.35846 0.49876 0.79574 0.0
N437 N 0.36638 0.43923 0.8372 0.0
N438 N 0.36429 0.553 0.88996 0.0
C439 C 0.37317 0.52385 0.96111 0.0
C440 C 0.37431 0.46194 0.93236 0.0
C441 C 0.64559 0.02295 0.95015 0.0
C442 C 0.63658 0.0576 1.01689 0.0
C443 C 0.64655 0.962 0.97725 0.0
C444 C 0.6386 0.93314 0.07259 0.0
H445 H 0.65189 0.0429 0.87572 0.0
H446 H 0.65347 0.93719 0.92193 0.0
S447 S 0.61435 0.00511 0.28086 0.0
N448 N 0.62008 0.05915 0.18618 0.0
N449 N 0.62199 0.94516 0.23748 0.0
C450 C 0.62973 0.96755 0.14119 0.0
C451 C 0.62868 0.02951 0.11319 0.0
C452 C 0.12413 0.23681 0.06561 0.0
C453 C 0.13768 0.24524 0.13006 0.0
C454 C 0.12419 0.23697 0.94262 0.0
C455 C 0.13779 0.24482 0.8788 0.0
H456 H 0.11335 0.23029 0.11029 0.0
H457 H 0.11346 0.23013 0.89736 0.0
S458 S 0.17642 0.26929 1.00425 0.0
N459 N 0.16515 0.26211 0.11923 0.0
N460 N 0.16518 0.26228 0.88933 0.0
C461 C 0.15141 0.25334 0.94189 0.0
C462 C 0.15138 0.25363 0.06696 0.0
C463 C 0.89525 0.24491 0.08008 0.0
C464 C 0.8817 0.23766 0.14456 0.0
C465 C 0.8952 0.24541 0.95712 0.0
C466 C 0.8816 0.23798 0.89334 0.0
H467 H 0.90602 0.25077 0.12477 0.0
H468 H 0.90595 0.25113 0.91192 0.0
S469 S 0.84294 0.21623 1.01961 0.0
N470 N 0.85423 0.22207 0.13434 0.0
N471 N 0.85418 0.223 0.90451 0.0
C472 C 0.86796 0.23032 0.95669 0.0
C473 C 0.868 0.2302 0.08174 0.0
C474 C 0.12346 0.73532 0.13046 0.0
C475 C 0.13708 0.74299 0.19406 0.0
C476 C 0.12339 0.7353 1.00744 0.0
C477 C 0.13693 0.74375 0.94273 0.0
H478 H 0.11273 0.72865 0.1759 0.0
H479 H 0.11261 0.72907 0.96292 0.0
S480 S 0.17569 0.76634 0.06764 0.0
N481 N 0.16447 0.7596 0.18284 0.0
N482 N 0.1644 0.75967 0.9529 0.0
C483 C 0.15063 0.75164 1.00553 0.0
C484 C 0.15069 0.75119 0.13063 0.0
C485 C 0.86832 0.73683 0.99993 0.0
C486 C 0.88184 0.73674 0.93607 0.0
C487 C 0.86822 0.73652 0.12293 0.0
C488 C 0.88165 0.73685 0.18731 0.0
H489 H 0.85767 0.73678 0.95481 0.0
H490 H 0.85754 0.73672 0.16777 0.0
S491 S 0.92006 0.73511 0.0633 0.0
N492 N 0.90902 0.73591 0.94792 0.0
N493 N 0.90881 0.73547 0.17778 0.0
C494 C 0.89523 0.73651 0.12476 0.0
C495 C 0.89533 0.73637 0.99971 0.0
C496 C 0.62425 0.73961 0.54984 0.0
C497 C 0.63784 0.74371 0.48591 0.0
C498 C 0.62421 0.74016 0.67276 0.0
C499 C 0.63774 0.74419 0.73697 0.0
H500 H 0.61353 0.73655 0.50474 0.0
H501 H 0.61345 0.73699 0.71758 0.0
S502 S 0.67645 0.75577 0.61155 0.0
N503 N 0.66522 0.75179 0.49662 0.0
N504 N 0.66518 0.75289 0.7264 0.0
C505 C 0.65142 0.74825 0.67401 0.0
C506 C 0.65146 0.74804 0.54902 0.0
C507 C 0.39526 0.74372 0.67342 0.0
C508 C 0.38173 0.74069 0.73786 0.0
C509 C 0.39522 0.7439 0.55048 0.0
C510 C 0.38165 0.74037 0.48674 0.0
H511 H 0.40601 0.74632 0.71805 0.0
H512 H 0.40594 0.74616 0.50521 0.0
S513 S 0.34309 0.73167 0.61274 0.0
N514 N 0.35432 0.73401 0.72752 0.0
N515 N 0.35431 0.73441 0.49769 0.0
C516 C 0.36805 0.73723 0.55 0.0
C517 C 0.36807 0.73741 0.67502 0.0
C518 C 0.65053 0.25503 0.40634 0.0
C519 C 0.63716 0.24177 0.34132 0.0
C520 C 0.65031 0.25509 0.5292 0.0
C521 C 0.63672 0.24124 0.59227 0.0
H522 H 0.66125 0.2664 0.36213 0.0
H523 H 0.66092 0.2661 0.57483 0.0
S524 S 0.59861 0.20058 0.46209 0.0
N525 N 0.61 0.21251 0.34851 0.0
N526 N 0.60951 0.21259 0.57842 0.0
C527 C 0.62327 0.22708 0.52774 0.0
C528 C 0.62351 0.22738 0.40274 0.0
C529 C 0.39496 0.23902 0.4036 0.0
C530 C 0.38157 0.24087 0.33949 0.0
C531 C 0.39496 0.23929 0.52654 0.0
C532 C 0.38153 0.24068 0.59056 0.0
H533 H 0.4056 0.23756 0.35872 0.0
H534 H 0.40555 0.23759 0.57163 0.0
S535 S 0.34339 0.24662 0.46611 0.0
N536 N 0.35446 0.24465 0.35087 0.0
N537 N 0.35452 0.24503 0.58075 0.0
C538 C 0.36807 0.24255 0.52784 0.0
C539 C 0.36807 0.24272 0.40282 0.0
C540 C 0.01605 0.20192 0.49379 0.0
C541 C 0.02607 0.24982 0.44644 0.0
C542 C 1.00043 0.20367 0.49511 0.0
C543 C 0.99411 0.25346 0.44943 0.0
H544 H 0.02031 0.16312 0.5325 0.0
H545 H 0.99326 0.16611 0.53457 0.0
S546 S 0.01525 0.38903 0.30932 0.0
N547 N 0.02842 0.34743 0.34812 0.0
N548 N 0.99907 0.35085 0.35142 0.0
C549 C 1.00396 0.30144 0.40093 0.0
C550 C 0.0199 0.2996 0.39924 0.0
C551 C 1.00323 0.78604 0.5536 0.0
C552 C 0.99362 0.75203 0.63396 0.0
C553 C 0.01887 0.7842 0.55432 0.0
C554 C 0.02557 0.74819 0.63526 0.0
H555 H 0.99859 0.8129 0.48709 0.0
H556 H 0.0257 0.80976 0.48844 0.0
S557 S 1.00566 0.65484 0.87086 0.0
N558 N 0.99215 0.68446 0.80186 0.0
N559 N 0.02147 0.68077 0.80265 0.0
C560 C 0.01616 0.71524 0.718 0.0
C561 C 1.00024 0.71721 0.71748 0.0
C562 C 0.51649 0.70858 0.98396 0.0
C563 C 0.52606 0.74696 0.05724 0.0
C564 C 0.50084 0.71051 0.98329 0.0
C565 C 0.4941 0.75028 0.05718 0.0
H566 H 0.52115 0.67733 0.92567 0.0
H567 H 0.49399 0.68067 0.92381 0.0
S568 S 0.51429 0.85602 0.27393 0.0
N569 N 0.52775 0.82381 0.20949 0.0
N570 N 0.49839 0.82612 0.21165 0.0
C571 C 0.50361 0.78808 0.13265 0.0
C572 C 0.51955 0.78665 0.13198 0.0
C573 C 0.50302 0.28273 0.07393 0.0
C574 C 0.49291 0.23395 1.0315 0.0
C575 C 0.51866 0.28136 0.0709 0.0
C576 C 0.52488 0.23142 1.02395 0.0
H577 H 0.49881 0.32242 0.10978 0.0
H578 H 0.52593 0.31997 0.10558 0.0
S579 S 0.50317 0.09246 0.8985 0.0
N580 N 0.49016 0.13423 0.94063 0.0
N581 N 0.51949 0.13209 0.93224 0.0
C582 C 0.51483 0.18201 0.98207 0.0
C583 C 0.4989 0.1832 0.98634 0.0
loop_
_geom_bond_atom_site_label_1
_geom_bond_atom_site_label_2
_geom_bond_distance
_geom_bond_site_symmetry_2
_ccdc_geom_bond_type
Eu0 C9 2.828 . S
Eu0 O11 2.392 . S
Eu0 O13 2.418 . S
Eu0 O18 2.373 . S
Eu0 O21 2.488 . S
Eu0 O22 2.471 . S
Eu0 O23 2.349 . S
Eu1 O10 2.373 . S
Eu1 O14 2.488 . S
Eu1 O15 2.471 . S
Eu1 O16 2.349 . S
Eu1 O19 2.392 . S
Eu1 O20 2.418 . S
Eu1 C30 2.828 . S
C2 O20 1.244 . S
C2 O23 1.265 . S
C3 C4 1.379 . S
C3 C7 1.373 . S
C3 C9 1.505 . S
C4 C3 1.379 . S
C4 C6 1.369 . S
C4 H32 0.930 . S
C5 C7 1.383 . S
C5 C8 1.382 . S
C5 H33 0.930 . S
C6 C4 1.369 . S
C6 C8 1.392 . S
C6 H34 0.930 . S
C7 C3 1.373 . S
C7 C5 1.383 . S
C7 H35 0.931 . S
C8 C5 1.382 . S
C8 C6 1.392 . S
C9 Eu0 2.828 . S
C9 C3 1.505 . S
C9 O21 1.249 . S
C9 O22 1.244 . S
O10 Eu1 2.373 . S
O10 C12 1.258 . S
O11 Eu0 2.392 . S
O11 C12 1.242 . S
C12 O10 1.258 . S
C12 O11 1.242 . S
O13 Eu0 2.418 . S
O13 C17 1.244 . S
O14 Eu1 2.488 . S
O14 C30 1.249 . S
O15 Eu1 2.471 . S
O15 C30 1.244 . S
O16 Eu1 2.349 . S
O16 C17 1.265 . S
C17 O13 1.244 . S
C17 O16 1.265 . S
O18 Eu0 2.373 . S
O18 C31 1.258 . S
O19 Eu1 2.392 . S
O19 C31 1.242 . S
O20 Eu1 2.418 . S
O20 C2 1.244 . S
O21 Eu0 2.488 . S
O21 C9 1.249 . S
O22 Eu0 2.471 . S
O22 C9 1.244 . S
O23 Eu0 2.349 . S
O23 C2 1.265 . S
C24 C25 1.379 . S
C24 C28 1.373 . S
C24 C30 1.505 . S
C25 C24 1.379 . S
C25 C27 1.369 . S
C25 H36 0.930 . S
C26 C28 1.383 . S
C26 C29 1.382 . S
C26 H37 0.930 . S
C27 C25 1.369 . S
C27 C29 1.392 . S
C27 H38 0.930 . S
C28 C24 1.373 . S
C28 C26 1.383 . S
C28 H39 0.931 . S
C29 C26 1.382 . S
C29 C27 1.392 . S
C30 Eu1 2.828 . S
C30 O14 1.249 . S
C30 O15 1.244 . S
C30 C24 1.505 . S
C31 O18 1.258 . S
C31 O19 1.242 . S
H32 C4 0.930 . S
H33 C5 0.930 . S
H34 C6 0.930 . S
H35 C7 0.931 . S
H36 C25 0.930 . S
H37 C26 0.930 . S
H38 C27 0.930 . S
H39 C28 0.931 . S
Eu40 C49 2.828 . S
Eu40 O51 2.392 . S
Eu40 O53 2.418 . S
Eu40 O58 2.373 . S
Eu40 O61 2.488 . S
Eu40 O62 2.471 . S
Eu40 O63 2.349 . S
Eu41 O50 2.373 . S
Eu41 O54 2.488 . S
Eu41 O55 2.471 . S
Eu41 O56 2.349 . S
Eu41 O59 2.392 . S
Eu41 O60 2.418 . S
Eu41 C70 2.828 . S
C42 O60 1.244 . S
C42 O63 1.265 . S
C43 C44 1.379 . S
C43 C47 1.373 . S
C43 C49 1.505 . S
C44 C43 1.379 . S
C44 C46 1.369 . S
C44 H72 0.930 . S
C45 C47 1.383 . S
C45 C48 1.382 . S
C45 H73 0.930 . S
C46 C44 1.369 . S
C46 C48 1.392 . S
C46 H74 0.930 . S
C47 C43 1.373 . S
C47 C45 1.383 . S
C47 H75 0.931 . S
C48 C45 1.382 . S
C48 C46 1.392 . S
C49 Eu40 2.828 . S
C49 C43 1.505 . S
C49 O61 1.249 . S
C49 O62 1.244 . S
O50 Eu41 2.373 . S
O50 C52 1.258 . S
O51 Eu40 2.392 . S
O51 C52 1.242 . S
C52 O50 1.258 . S
C52 O51 1.242 . S
O53 Eu40 2.418 . S
O53 C57 1.244 . S
O54 Eu41 2.488 . S
O54 C70 1.249 . S
O55 Eu41 2.471 . S
O55 C70 1.244 . S
O56 Eu41 2.349 . S
O56 C57 1.265 . S
C57 O53 1.244 . S
C57 O56 1.265 . S
O58 Eu40 2.373 . S
O58 C71 1.258 . S
O59 Eu41 2.392 . S
O59 C71 1.242 . S
O60 Eu41 2.418 . S
O60 C42 1.244 . S
O61 Eu40 2.488 . S
O61 C49 1.249 . S
O62 Eu40 2.471 . S
O62 C49 1.244 . S
O63 Eu40 2.349 . S
O63 C42 1.265 . S
C64 C65 1.379 . S
C64 C68 1.373 . S
C64 C70 1.505 . S
C65 C64 1.379 . S
C65 C67 1.369 . S
C65 H76 0.930 . S
C66 C68 1.383 . S
C66 C69 1.382 . S
C66 H77 0.930 . S
C67 C65 1.369 . S
C67 C69 1.392 . S
C67 H78 0.930 . S
C68 C64 1.373 . S
C68 C66 1.383 . S
C68 H79 0.931 . S
C69 C66 1.382 . S
C69 C67 1.392 . S
C70 Eu41 2.828 . S
C70 O54 1.249 . S
C70 O55 1.244 . S
C70 C64 1.505 . S
C71 O58 1.258 . S
C71 O59 1.242 . S
H72 C44 0.930 . S
H73 C45 0.930 . S
H74 C46 0.930 . S
H75 C47 0.931 . S
H76 C65 0.930 . S
H77 C66 0.930 . S
H78 C67 0.930 . S
H79 C68 0.931 . S
Eu80 C89 2.828 . S
Eu80 O91 2.392 . S
Eu80 O93 2.418 . S
Eu80 O98 2.373 . S
Eu80 O101 2.488 . S
Eu80 O102 2.471 . S
Eu80 O103 2.349 . S
Eu81 O90 2.373 . S
Eu81 O94 2.488 . S
Eu81 O95 2.471 . S
Eu81 O96 2.349 . S
Eu81 O99 2.392 . S
Eu81 O100 2.418 . S
Eu81 C110 2.828 . S
C82 O100 1.244 . S
C82 O103 1.265 . S
C83 C84 1.379 . S
C83 C87 1.373 . S
C83 C89 1.505 . S
C84 C83 1.379 . S
C84 C86 1.369 . S
C84 H112 0.930 . S
C85 C87 1.383 . S
C85 C88 1.382 . S
C85 H113 0.930 . S
C86 C84 1.369 . S
C86 C88 1.392 . S
C86 H114 0.930 . S
C87 C83 1.373 . S
C87 C85 1.383 . S
C87 H115 0.931 . S
C88 C85 1.382 . S
C88 C86 1.392 . S
C89 Eu80 2.828 . S
C89 C83 1.505 . S
C89 O101 1.249 . S
C89 O102 1.244 . S
O90 Eu81 2.373 . S
O90 C92 1.258 . S
O91 Eu80 2.392 . S
O91 C92 1.242 . S
C92 O90 1.258 . S
C92 O91 1.242 . S
O93 Eu80 2.418 . S
O93 C97 1.244 . S
O94 Eu81 2.488 . S
O94 C110 1.249 . S
O95 Eu81 2.471 . S
O95 C110 1.244 . S
O96 Eu81 2.349 . S
O96 C97 1.265 . S
C97 O93 1.244 . S
C97 O96 1.265 . S
O98 Eu80 2.373 . S
O98 C111 1.258 . S
O99 Eu81 2.392 . S
O99 C111 1.242 . S
O100 Eu81 2.418 . S
O100 C82 1.244 . S
O101 Eu80 2.488 . S
O101 C89 1.249 . S
O102 Eu80 2.471 . S
O102 C89 1.244 . S
O103 Eu80 2.349 . S
O103 C82 1.265 . S
C104 C105 1.379 . S
C104 C108 1.373 . S
C104 C110 1.505 . S
C105 C104 1.379 . S
C105 C107 1.369 . S
C105 H116 0.930 . S
C106 C108 1.383 . S
C106 C109 1.382 . S
C106 H117 0.930 . S
C107 C105 1.369 . S
C107 C109 1.392 . S
C107 H118 0.930 . S
C108 C104 1.373 . S
C108 C106 1.383 . S
C108 H119 0.931 . S
C109 C106 1.382 . S
C109 C107 1.392 . S
C110 Eu81 2.828 . S
C110 O94 1.249 . S
C110 O95 1.244 . S
C110 C104 1.505 . S
C111 O98 1.258 . S
C111 O99 1.242 . S
H112 C84 0.930 . S
H113 C85 0.930 . S
H114 C86 0.930 . S
H115 C87 0.931 . S
H116 C105 0.930 . S
H117 C106 0.930 . S
H118 C107 0.930 . S
H119 C108 0.931 . S
Eu120 C129 2.828 . S
Eu120 O131 2.392 . S
Eu120 O133 2.418 . S
Eu120 O138 2.373 . S
Eu120 O141 2.488 . S
Eu120 O142 2.471 . S
Eu120 O143 2.349 . S
Eu121 O130 2.373 . S
Eu121 O134 2.488 . S
Eu121 O135 2.471 . S
Eu121 O136 2.349 . S
Eu121 O139 2.392 . S
Eu121 O140 2.418 . S
Eu121 C150 2.828 . S
C122 O140 1.244 . S
C122 O143 1.265 . S
C123 C124 1.379 . S
C123 C127 1.373 . S
C123 C129 1.505 . S
C124 C123 1.379 . S
C124 C126 1.369 . S
C124 H152 0.930 . S
C125 C127 1.383 . S
C125 C128 1.382 . S
C125 H153 0.930 . S
C126 C124 1.369 . S
C126 C128 1.392 . S
C126 H154 0.930 . S
C127 C123 1.373 . S
C127 C125 1.383 . S
C127 H155 0.931 . S
C128 C125 1.382 . S
C128 C126 1.392 . S
C129 Eu120 2.828 . S
C129 C123 1.505 . S
C129 O141 1.249 . S
C129 O142 1.244 . S
O130 Eu121 2.373 . S
O130 C132 1.258 . S
O131 Eu120 2.392 . S
O131 C132 1.242 . S
C132 O130 1.258 . S
C132 O131 1.242 . S
O133 Eu120 2.418 . S
O133 C137 1.244 . S
O134 Eu121 2.488 . S
O134 C150 1.249 . S
O135 Eu121 2.471 . S
O135 C150 1.244 . S
O136 Eu121 2.349 . S
O136 C137 1.265 . S
C137 O133 1.244 . S
C137 O136 1.265 . S
O138 Eu120 2.373 . S
O138 C151 1.258 . S
O139 Eu121 2.392 . S
O139 C151 1.242 . S
O140 Eu121 2.418 . S
O140 C122 1.244 . S
O141 Eu120 2.488 . S
O141 C129 1.249 . S
O142 Eu120 2.471 . S
O142 C129 1.244 . S
O143 Eu120 2.349 . S
O143 C122 1.265 . S
C144 C145 1.379 . S
C144 C148 1.373 . S
C144 C150 1.505 . S
C145 C144 1.379 . S
C145 C147 1.369 . S
C145 H156 0.930 . S
C146 C148 1.383 . S
C146 C149 1.382 . S
C146 H157 0.930 . S
C147 C145 1.369 . S
C147 C149 1.392 . S
C147 H158 0.930 . S
C148 C144 1.373 . S
C148 C146 1.383 . S
C148 H159 0.931 . S
C149 C146 1.382 . S
C149 C147 1.392 . S
C150 Eu121 2.828 . S
C150 O134 1.249 . S
C150 O135 1.244 . S
C150 C144 1.505 . S
C151 O138 1.258 . S
C151 O139 1.242 . S
H152 C124 0.930 . S
H153 C125 0.930 . S
H154 C126 0.930 . S
H155 C127 0.931 . S
H156 C145 0.930 . S
H157 C146 0.930 . S
H158 C147 0.930 . S
H159 C148 0.931 . S
Eu160 C169 2.828 1_554 S
Eu160 O171 2.392 . S
Eu160 O173 2.418 . S
Eu160 O178 2.373 1_554 S
Eu160 O181 2.488 1_554 S
Eu160 O182 2.471 1_554 S
Eu160 O183 2.349 . S
Eu161 O170 2.373 1_556 S
Eu161 O174 2.488 1_556 S
Eu161 O175 2.471 1_556 S
Eu161 O176 2.349 . S
Eu161 O179 2.392 . S
Eu161 O180 2.418 . S
Eu161 C190 2.828 1_556 S
C162 O180 1.244 1_554 S
C162 O183 1.265 . S
C163 C164 1.379 . S
C163 C167 1.373 . S
C163 C169 1.505 . S
C164 C163 1.379 . S
C164 C166 1.369 . S
C164 H192 0.930 . S
C165 C167 1.383 . S
C165 C168 1.382 . S
C165 H193 0.930 . S
C166 C164 1.369 . S
C166 C168 1.392 . S
C166 H194 0.930 . S
C167 C163 1.373 . S
C167 C165 1.383 . S
C167 H195 0.931 . S
C168 C165 1.382 . S
C168 C166 1.392 . S
C169 Eu160 2.828 1_556 S
C169 C163 1.505 . S
C169 O181 1.249 . S
C169 O182 1.244 . S
O170 Eu161 2.373 1_554 S
O170 C172 1.258 . S
O171 Eu160 2.392 . S
O171 C172 1.242 . S
C172 O170 1.258 . S
C172 O171 1.242 . S
O173 Eu160 2.418 . S
O173 C177 1.244 1_554 S
O174 Eu161 2.488 1_554 S
O174 C190 1.249 . S
O175 Eu161 2.471 1_554 S
O175 C190 1.244 . S
O176 Eu161 2.349 . S
O176 C177 1.265 . S
C177 O173 1.244 1_556 S
C177 O176 1.265 . S
O178 Eu160 2.373 1_556 S
O178 C191 1.258 . S
O179 Eu161 2.392 . S
O179 C191 1.242 . S
O180 Eu161 2.418 . S
O180 C162 1.244 1_556 S
O181 Eu160 2.488 1_556 S
O181 C169 1.249 . S
O182 Eu160 2.471 1_556 S
O182 C169 1.244 . S
O183 Eu160 2.349 . S
O183 C162 1.265 . S
C184 C185 1.379 . S
C184 C188 1.373 . S
C184 C190 1.505 . S
C185 C184 1.379 . S
C185 C187 1.369 . S
C185 H196 0.930 . S
C186 C188 1.383 . S
C186 C189 1.382 . S
C186 H197 0.930 . S
C187 C185 1.369 . S
C187 C189 1.392 . S
C187 H198 0.930 . S
C188 C184 1.373 . S
C188 C186 1.383 . S
C188 H199 0.931 . S
C189 C186 1.382 . S
C189 C187 1.392 . S
C190 Eu161 2.828 1_554 S
C190 O174 1.249 . S
C190 O175 1.244 . S
C190 C184 1.505 . S
C191 O178 1.258 . S
C191 O179 1.242 . S
H192 C164 0.930 . S
H193 C165 0.930 . S
H194 C166 0.930 . S
H195 C167 0.931 . S
H196 C185 0.930 . S
H197 C186 0.930 . S
H198 C187 0.930 . S
H199 C188 0.931 . S
Eu200 C209 2.828 1_554 S
Eu200 O211 2.392 . S
Eu200 O213 2.418 . S
Eu200 O218 2.373 1_554 S
Eu200 O221 2.488 1_554 S
Eu200 O222 2.471 1_554 S
Eu200 O223 2.349 . S
Eu201 O210 2.373 1_556 S
Eu201 O214 2.488 1_556 S
Eu201 O215 2.471 1_556 S
Eu201 O216 2.349 . S
Eu201 O219 2.392 . S
Eu201 O220 2.418 . S
Eu201 C230 2.828 1_556 S
C202 O220 1.244 1_554 S
C202 O223 1.265 . S
C203 C204 1.379 . S
C203 C207 1.373 . S
C203 C209 1.505 . S
C204 C203 1.379 . S
C204 C206 1.369 . S
C204 H232 0.930 . S
C205 C207 1.383 . S
C205 C208 1.382 . S
C205 H233 0.930 . S
C206 C204 1.369 . S
C206 C208 1.392 . S
C206 H234 0.930 . S
C207 C203 1.373 . S
C207 C205 1.383 . S
C207 H235 0.931 . S
C208 C205 1.382 . S
C208 C206 1.392 . S
C209 Eu200 2.828 1_556 S
C209 C203 1.505 . S
C209 O221 1.249 . S
C209 O222 1.244 . S
O210 Eu201 2.373 1_554 S
O210 C212 1.258 . S
O211 Eu200 2.392 . S
O211 C212 1.242 . S
C212 O210 1.258 . S
C212 O211 1.242 . S
O213 Eu200 2.418 . S
O213 C217 1.244 1_554 S
O214 Eu201 2.488 1_554 S
O214 C230 1.249 . S
O215 Eu201 2.471 1_554 S
O215 C230 1.244 . S
O216 Eu201 2.349 . S
O216 C217 1.265 . S
C217 O213 1.244 1_556 S
C217 O216 1.265 . S
O218 Eu200 2.373 1_556 S
O218 C231 1.258 . S
O219 Eu201 2.392 . S
O219 C231 1.242 . S
O220 Eu201 2.418 . S
O220 C202 1.244 1_556 S
O221 Eu200 2.488 1_556 S
O221 C209 1.249 . S
O222 Eu200 2.471 1_556 S
O222 C209 1.244 . S
O223 Eu200 2.349 . S
O223 C202 1.265 . S
C224 C225 1.379 . S
C224 C228 1.373 . S
C224 C230 1.505 . S
C225 C224 1.379 . S
C225 C227 1.369 . S
C225 H236 0.930 . S
C226 C228 1.383 . S
C226 C229 1.382 . S
C226 H237 0.930 . S
C227 C225 1.369 . S
C227 C229 1.392 . S
C227 H238 0.930 . S
C228 C224 1.373 . S
C228 C226 1.383 . S
C228 H239 0.931 . S
C229 C226 1.382 . S
C229 C227 1.392 . S
C230 Eu201 2.828 1_554 S
C230 O214 1.249 . S
C230 O215 1.244 . S
C230 C224 1.505 . S
C231 O218 1.258 . S
C231 O219 1.242 . S
H232 C204 0.930 . S
H233 C205 0.930 . S
H234 C206 0.930 . S
H235 C207 0.931 . S
H236 C225 0.930 . S
H237 C226 0.930 . S
H238 C227 0.930 . S
H239 C228 0.931 . S
Eu240 C249 2.828 1_554 S
Eu240 O251 2.392 . S
Eu240 O253 2.418 . S
Eu240 O258 2.373 1_554 S
Eu240 O261 2.488 1_554 S
Eu240 O262 2.471 1_554 S
Eu240 O263 2.349 . S
Eu241 O250 2.373 1_556 S
Eu241 O254 2.488 1_556 S
Eu241 O255 2.471 1_556 S
Eu241 O256 2.349 . S
Eu241 O259 2.392 . S
Eu241 O260 2.418 . S
Eu241 C270 2.828 1_556 S
C242 O260 1.244 1_554 S
C242 O263 1.265 . S
C243 C244 1.379 . S
C243 C247 1.373 . S
C243 C249 1.505 . S
C244 C243 1.379 . S
C244 C246 1.369 . S
C244 H272 0.930 . S
C245 C247 1.383 . S
C245 C248 1.382 . S
C245 H273 0.930 . S
C246 C244 1.369 . S
C246 C248 1.392 . S
C246 H274 0.930 . S
C247 C243 1.373 . S
C247 C245 1.383 . S
C247 H275 0.931 . S
C248 C245 1.382 . S
C248 C246 1.392 . S
C249 Eu240 2.828 1_556 S
C249 C243 1.505 . S
C249 O261 1.249 . S
C249 O262 1.244 . S
O250 Eu241 2.373 1_554 S
O250 C252 1.258 . S
O251 Eu240 2.392 . S
O251 C252 1.242 . S
C252 O250 1.258 . S
C252 O251 1.242 . S
O253 Eu240 2.418 . S
O253 C257 1.244 1_554 S
O254 Eu241 2.488 1_554 S
O254 C270 1.249 . S
O255 Eu241 2.471 1_554 S
O255 C270 1.244 . S
O256 Eu241 2.349 . S
O256 C257 1.265 . S
C257 O253 1.244 1_556 S
C257 O256 1.265 . S
O258 Eu240 2.373 1_556 S
O258 C271 1.258 . S
O259 Eu241 2.392 . S
O259 C271 1.242 . S
O260 Eu241 2.418 . S
O260 C242 1.244 1_556 S
O261 Eu240 2.488 1_556 S
O261 C249 1.249 . S
O262 Eu240 2.471 1_556 S
O262 C249 1.244 . S
O263 Eu240 2.349 . S
O263 C242 1.265 . S
C264 C265 1.379 . S
C264 C268 1.373 . S
C264 C270 1.505 . S
C265 C264 1.379 . S
C265 C267 1.369 . S
C265 H276 0.930 . S
C266 C268 1.383 . S
C266 C269 1.382 . S
C266 H277 0.930 . S
C267 C265 1.369 . S
C267 C269 1.392 . S
C267 H278 0.930 . S
C268 C264 1.373 . S
C268 C266 1.383 . S
C268 H279 0.931 . S
C269 C266 1.382 . S
C269 C267 1.392 . S
C270 Eu241 2.828 1_554 S
C270 O254 1.249 . S
C270 O255 1.244 . S
C270 C264 1.505 . S
C271 O258 1.258 . S
C271 O259 1.242 . S
H272 C244 0.930 . S
H273 C245 0.930 . S
H274 C246 0.930 . S
H275 C247 0.931 . S
H276 C265 0.930 . S
H277 C266 0.930 . S
H278 C267 0.930 . S
H279 C268 0.931 . S
Eu280 C289 2.828 1_554 S
Eu280 O291 2.392 . S
Eu280 O293 2.418 . S
Eu280 O298 2.373 1_554 S
Eu280 O301 2.488 1_554 S
Eu280 O302 2.471 1_554 S
Eu280 O303 2.349 . S
Eu281 O290 2.373 1_556 S
Eu281 O294 2.488 1_556 S
Eu281 O295 2.471 1_556 S
Eu281 O296 2.349 . S
Eu281 O299 2.392 . S
Eu281 O300 2.418 . S
Eu281 C310 2.828 1_556 S
C282 O300 1.244 1_554 S
C282 O303 1.265 . S
C283 C284 1.379 . S
C283 C287 1.373 . S
C283 C289 1.505 . S
C284 C283 1.379 . S
C284 C286 1.369 . S
C284 H312 0.930 . S
C285 C287 1.383 . S
C285 C288 1.382 . S
C285 H313 0.930 . S
C286 C284 1.369 . S
C286 C288 1.392 . S
C286 H314 0.930 . S
C287 C283 1.373 . S
C287 C285 1.383 . S
C287 H315 0.931 . S
C288 C285 1.382 . S
C288 C286 1.392 . S
C289 Eu280 2.828 1_556 S
C289 C283 1.505 . S
C289 O301 1.249 . S
C289 O302 1.244 . S
O290 Eu281 2.373 1_554 S
O290 C292 1.258 . S
O291 Eu280 2.392 . S
O291 C292 1.242 . S
C292 O290 1.258 . S
C292 O291 1.242 . S
O293 Eu280 2.418 . S
O293 C297 1.244 1_554 S
O294 Eu281 2.488 1_554 S
O294 C310 1.249 . S
O295 Eu281 2.471 1_554 S
O295 C310 1.244 . S
O296 Eu281 2.349 . S
O296 C297 1.265 . S
C297 O293 1.244 1_556 S
C297 O296 1.265 . S
O298 Eu280 2.373 1_556 S
O298 C311 1.258 . S
O299 Eu281 2.392 . S
O299 C311 1.242 . S
O300 Eu281 2.418 . S
O300 C282 1.244 1_556 S
O301 Eu280 2.488 1_556 S
O301 C289 1.249 . S
O302 Eu280 2.471 1_556 S
O302 C289 1.244 . S
O303 Eu280 2.349 . S
O303 C282 1.265 . S
C304 C305 1.379 . S
C304 C308 1.373 . S
C304 C310 1.505 . S
C305 C304 1.379 . S
C305 C307 1.369 . S
C305 H316 0.930 . S
C306 C308 1.383 . S
C306 C309 1.382 . S
C306 H317 0.930 . S
C307 C305 1.369 . S
C307 C309 1.392 . S
C307 H318 0.930 . S
C308 C304 1.373 . S
C308 C306 1.383 . S
C308 H319 0.931 . S
C309 C306 1.382 . S
C309 C307 1.392 . S
C310 Eu281 2.828 1_554 S
C310 O294 1.249 . S
C310 O295 1.244 . S
C310 C304 1.505 . S
C311 O298 1.258 . S
C311 O299 1.242 . S
H312 C284 0.930 . S
H313 C285 0.930 . S
H314 C286 0.930 . S
H315 C287 0.931 . S
H316 C305 0.930 . S
H317 C306 0.930 . S
H318 C307 0.930 . S
H319 C308 0.931 . S
C320 C321 1.369 . S
C320 C322 1.419 . S
C320 H324 0.930 . S
C321 C320 1.369 . S
C321 C330 1.429 . S
C322 C320 1.419 . S
C322 C323 1.363 . S
C322 H325 0.929 . S
C323 C322 1.363 . S
C323 C329 1.428 . S
H324 C320 0.930 . S
H325 C322 0.929 . S
S326 N327 1.613 . S
S326 N328 1.610 . S
N327 S326 1.613 . S
N327 C330 1.350 . S
N328 S326 1.610 . S
N328 C329 1.351 . S
C329 C323 1.428 . S
C329 N328 1.351 . S
C329 C330 1.434 . S
C330 C321 1.429 . S
C330 N327 1.350 . S
C330 C329 1.434 . S
C331 C332 1.369 . S
C331 C333 1.419 . S
C331 H335 0.930 . S
C332 C331 1.369 . S
C332 C341 1.429 . S
C333 C331 1.419 . S
C333 C334 1.363 . S
C333 H336 0.929 . S
C334 C333 1.363 . S
C334 C340 1.428 . S
H335 C331 0.930 . S
H336 C333 0.929 . S
S337 N338 1.613 . S
S337 N339 1.610 . S
N338 S337 1.613 . S
N338 C341 1.350 . S
N339 S337 1.610 . S
N339 C340 1.351 . S
C340 C334 1.428 . S
C340 N339 1.351 . S
C340 C341 1.434 . S
C341 C332 1.429 . S
C341 N338 1.350 . S
C341 C340 1.434 . S
C342 C343 1.369 . S
C342 C344 1.419 . S
C342 H346 0.930 . S
C343 C342 1.369 . S
C343 C352 1.429 . S
C344 C342 1.419 . S
C344 C345 1.363 . S
C344 H347 0.929 . S
C345 C344 1.363 . S
C345 C351 1.428 . S
H346 C342 0.930 . S
H347 C344 0.929 . S
S348 N349 1.613 . S
S348 N350 1.610 . S
N349 S348 1.613 . S
N349 C352 1.350 . S
N350 S348 1.610 . S
N350 C351 1.351 . S
C351 C345 1.428 . S
C351 N350 1.351 . S
C351 C352 1.434 . S
C352 C343 1.429 . S
C352 N349 1.350 . S
C352 C351 1.434 . S
C353 C354 1.369 . S
C353 C355 1.419 . S
C353 H357 0.930 . S
C354 C353 1.369 . S
C354 C363 1.429 . S
C355 C353 1.419 . S
C355 C356 1.363 . S
C355 H358 0.929 . S
C356 C355 1.363 . S
C356 C362 1.428 . S
H357 C353 0.930 . S
H358 C355 0.929 . S
S359 N360 1.613 . S
S359 N361 1.610 . S
N360 S359 1.613 . S
N360 C363 1.350 . S
N361 S359 1.610 . S
N361 C362 1.351 . S
C362 C356 1.428 . S
C362 N361 1.351 . S
C362 C363 1.434 . S
C363 C354 1.429 . S
C363 N360 1.350 . S
C363 C362 1.434 . S
C364 C365 1.369 . S
C364 C366 1.419 1_565 S
C364 H368 0.930 . S
C365 C364 1.369 . S
C365 C374 1.429 . S
C366 C364 1.419 1_545 S
C366 C367 1.363 . S
C366 H369 0.929 . S
C367 C366 1.363 . S
C367 C373 1.428 . S
H368 C364 0.930 . S
H369 C366 0.929 . S
S370 N371 1.613 . S
S370 N372 1.610 1_565 S
N371 S370 1.613 . S
N371 C374 1.350 . S
N372 S370 1.610 1_545 S
N372 C373 1.351 . S
C373 C367 1.428 . S
C373 N372 1.351 . S
C373 C374 1.434 1_545 S
C374 C365 1.429 . S
C374 N371 1.350 . S
C374 C373 1.434 1_565 S
C375 C376 1.369 . S
C375 C377 1.419 . S
C375 H379 0.930 . S
C376 C375 1.369 . S
C376 C385 1.429 . S
C377 C375 1.419 . S
C377 C378 1.363 . S
C377 H380 0.929 . S
C378 C377 1.363 . S
C378 C384 1.428 . S
H379 C375 0.930 . S
H380 C377 0.929 . S
S381 N382 1.613 . S
S381 N383 1.610 . S
N382 S381 1.613 . S
N382 C385 1.350 . S
N383 S381 1.610 . S
N383 C384 1.351 . S
C384 C378 1.428 . S
C384 N383 1.351 . S
C384 C385 1.434 . S
C385 C376 1.429 . S
C385 N382 1.350 . S
C385 C384 1.434 . S
C386 C387 1.369 . S
C386 C388 1.419 1_565 S
C386 H390 0.930 . S
C387 C386 1.369 . S
C387 C396 1.429 . S
C388 C386 1.419 1_545 S
C388 C389 1.363 . S
C388 H391 0.929 . S
C389 C388 1.363 . S
C389 C395 1.428 . S
H390 C386 0.930 . S
H391 C388 0.929 . S
S392 N393 1.613 1_545 S
S392 N394 1.610 . S
N393 S392 1.613 1_565 S
N393 C396 1.350 . S
N394 S392 1.610 . S
N394 C395 1.351 . S
C395 C389 1.428 . S
C395 N394 1.351 . S
C395 C396 1.434 1_545 S
C396 C387 1.429 . S
C396 N393 1.350 . S
C396 C395 1.434 1_565 S
C397 C398 1.369 . S
C397 C399 1.419 . S
C397 H401 0.930 . S
C398 C397 1.369 . S
C398 C407 1.429 . S
C399 C397 1.419 . S
C399 C400 1.363 . S
C399 H402 0.929 . S
C400 C399 1.363 . S
C400 C406 1.428 . S
H401 C397 0.930 . S
H402 C399 0.929 . S
S403 N404 1.613 . S
S403 N405 1.610 . S
N404 S403 1.613 . S
N404 C407 1.350 . S
N405 S403 1.610 . S
N405 C406 1.351 . S
C406 C400 1.428 . S
C406 N405 1.351 . S
C406 C407 1.434 . S
C407 C398 1.429 . S
C407 N404 1.350 . S
C407 C406 1.434 . S
C408 C409 1.369 . S
C408 C410 1.419 . S
C408 H412 0.930 . S
C409 C408 1.369 . S
C409 C418 1.429 1_556 S
C410 C408 1.419 . S
C410 C411 1.363 . S
C410 H413 0.929 . S
C411 C410 1.363 . S
C411 C417 1.428 1_556 S
H412 C408 0.930 . S
H413 C410 0.929 . S
S414 N415 1.613 . S
S414 N416 1.610 . S
N415 S414 1.613 . S
N415 C418 1.350 . S
N416 S414 1.610 . S
N416 C417 1.351 . S
C417 C411 1.428 1_554 S
C417 N416 1.351 . S
C417 C418 1.434 . S
C418 C409 1.429 1_554 S
C418 N415 1.350 . S
C418 C417 1.434 . S
C419 C420 1.369 1_554 S
C419 C421 1.419 1_565 S
C419 H423 0.930 . S
C420 C419 1.369 1_556 S
C420 C429 1.429 . S
C421 C419 1.419 1_545 S
C421 C422 1.363 1_554 S
C421 H424 0.929 . S
C422 C421 1.363 1_556 S
C422 C428 1.428 . S
H423 C419 0.930 . S
H424 C421 0.929 . S
S425 N426 1.625 . S
S425 N427 1.598 1_565 S
N426 S425 1.625 . S
N426 C429 1.350 . S
N427 S425 1.598 1_545 S
N427 C428 1.351 . S
C428 C422 1.428 . S
C428 N427 1.351 . S
C428 C429 1.434 1_545 S
C429 C420 1.429 . S
C429 N426 1.350 . S
C429 C428 1.434 1_565 S
C430 C431 1.369 . S
C430 C432 1.419 . S
C430 H434 0.930 . S
C431 C430 1.369 . S
C431 C440 1.429 1_554 S
C432 C430 1.419 . S
C432 C433 1.363 . S
C432 H435 0.929 . S
C433 C432 1.363 . S
C433 C439 1.428 1_554 S
H434 C430 0.930 . S
H435 C432 0.929 . S
S436 N437 1.613 . S
S436 N438 1.610 . S
N437 S436 1.613 . S
N437 C440 1.350 . S
N438 S436 1.610 . S
N438 C439 1.351 . S
C439 C433 1.428 1_556 S
C439 N438 1.351 . S
C439 C440 1.434 . S
C440 C431 1.429 1_556 S
C440 N437 1.350 . S
C440 C439 1.434 . S
C441 C442 1.369 1_556 S
C441 C443 1.419 1_545 S
C441 H445 0.930 . S
C442 C441 1.369 1_554 S
C442 C451 1.429 . S
C443 C441 1.419 1_565 S
C443 C444 1.363 1_556 S
C443 H446 0.929 . S
C444 C443 1.363 1_554 S
C444 C450 1.428 . S
H445 C441 0.930 . S
H446 C443 0.929 . S
S447 N448 1.613 1_565 S
S447 N449 1.610 . S
N448 S447 1.613 1_545 S
N448 C451 1.350 . S
N449 S447 1.610 . S
N449 C450 1.351 . S
C450 C444 1.428 . S
C450 N449 1.351 . S
C450 C451 1.434 1_565 S
C451 C442 1.429 . S
C451 N448 1.350 . S
C451 C450 1.434 1_545 S
C452 C453 1.369 1_556 S
C452 C454 1.419 . S
C452 H456 0.930 . S
C453 C452 1.369 1_554 S
C453 C462 1.429 1_554 S
C454 C452 1.419 . S
C454 C455 1.363 . S
C454 H457 0.929 . S
C455 C454 1.363 . S
C455 C461 1.428 . S
H456 C452 0.930 . S
H457 C454 0.929 . S
S458 N459 1.613 1_556 S
S458 N460 1.610 . S
N459 S458 1.613 1_554 S
N459 C462 1.350 1_554 S
N460 S458 1.610 . S
N460 C461 1.351 . S
C461 C455 1.428 . S
C461 N460 1.351 . S
C461 C462 1.434 . S
C462 C453 1.429 1_556 S
C462 N459 1.350 1_556 S
C462 C461 1.434 . S
C463 C464 1.369 1_556 S
C463 C465 1.419 . S
C463 H467 0.930 . S
C464 C463 1.369 1_554 S
C464 C473 1.429 . S
C465 C463 1.419 . S
C465 C466 1.363 . S
C465 H468 0.929 . S
C466 C465 1.363 . S
C466 C472 1.428 . S
H467 C463 0.930 . S
H468 C465 0.929 . S
S469 N470 1.607 1_556 S
S469 N471 1.620 . S
N470 S469 1.607 1_554 S
N470 C473 1.350 . S
N471 S469 1.620 . S
N471 C472 1.351 . S
C472 C466 1.428 . S
C472 N471 1.351 . S
C472 C473 1.434 1_556 S
C473 C464 1.429 . S
C473 N470 1.350 . S
C473 C472 1.434 1_554 S
C474 C475 1.369 . S
C474 C476 1.419 . S
C474 H478 0.930 . S
C475 C474 1.369 . S
C475 C484 1.429 . S
C476 C474 1.419 . S
C476 C477 1.363 1_554 S
C476 H479 0.929 . S
C477 C476 1.363 1_556 S
C477 C483 1.428 1_556 S
H478 C474 0.930 . S
H479 C476 0.929 . S
S480 N481 1.613 . S
S480 N482 1.610 1_554 S
N481 S480 1.613 . S
N481 C484 1.350 . S
N482 S480 1.610 1_556 S
N482 C483 1.351 1_556 S
C483 C477 1.428 1_554 S
C483 N482 1.351 1_554 S
C483 C484 1.434 . S
C484 C475 1.429 . S
C484 N481 1.350 . S
C484 C483 1.434 . S
C485 C486 1.369 1_554 S
C485 C487 1.419 . S
C485 H489 0.930 1_554 S
C486 C485 1.369 1_556 S
C486 C495 1.429 1_556 S
C487 C485 1.419 . S
C487 C488 1.363 . S
C487 H490 0.929 . S
C488 C487 1.363 . S
C488 C494 1.428 . S
H489 C485 0.930 1_556 S
H490 C487 0.929 . S
S491 N492 1.607 1_554 S
S491 N493 1.610 . S
N492 S491 1.607 1_556 S
N492 C495 1.347 1_556 S
N493 S491 1.610 . S
N493 C494 1.351 . S
C494 C488 1.428 . S
C494 N493 1.351 . S
C494 C495 1.434 . S
C495 C486 1.429 1_554 S
C495 N492 1.347 1_554 S
C495 C494 1.434 . S
C496 C497 1.369 . S
C496 C498 1.419 . S
C496 H500 0.930 . S
C497 C496 1.369 . S
C497 C506 1.429 . S
C498 C496 1.419 . S
C498 C499 1.363 . S
C498 H501 0.929 . S
C499 C498 1.363 . S
C499 C505 1.428 . S
H500 C496 0.930 . S
H501 C498 0.929 . S
S502 N503 1.613 . S
S502 N504 1.610 . S
N503 S502 1.613 . S
N503 C506 1.350 . S
N504 S502 1.610 . S
N504 C505 1.351 . S
C505 C499 1.428 . S
C505 N504 1.351 . S
C505 C506 1.434 . S
C506 C497 1.429 . S
C506 N503 1.350 . S
C506 C505 1.434 . S
C507 C508 1.369 . S
C507 C509 1.419 . S
C507 H511 0.930 . S
C508 C507 1.369 . S
C508 C517 1.429 . S
C509 C507 1.419 . S
C509 C510 1.363 . S
C509 H512 0.929 . S
C510 C509 1.363 . S
C510 C516 1.428 . S
H511 C507 0.930 . S
H512 C509 0.929 . S
S513 N514 1.613 . S
S513 N515 1.610 . S
N514 S513 1.613 . S
N514 C517 1.350 . S
N515 S513 1.610 . S
N515 C516 1.351 . S
C516 C510 1.428 . S
C516 N515 1.351 . S
C516 C517 1.434 . S
C517 C508 1.429 . S
C517 N514 1.350 . S
C517 C516 1.434 . S
C518 C519 1.369 . S
C518 C520 1.419 . S
C518 H522 0.930 . S
C519 C518 1.369 . S
C519 C528 1.429 . S
C520 C518 1.419 . S
C520 C521 1.363 . S
C520 H523 0.929 . S
C521 C520 1.363 . S
C521 C527 1.428 . S
H522 C518 0.930 . S
H523 C520 0.929 . S
S524 N525 1.613 . S
S524 N526 1.610 . S
N525 S524 1.613 . S
N525 C528 1.350 . S
N526 S524 1.610 . S
N526 C527 1.351 . S
C527 C521 1.428 . S
C527 N526 1.351 . S
C527 C528 1.434 . S
C528 C519 1.429 . S
C528 N525 1.350 . S
C528 C527 1.434 . S
C529 C530 1.369 . S
C529 C531 1.419 . S
C529 H533 0.930 . S
C530 C529 1.369 . S
C530 C539 1.429 . S
C531 C529 1.419 . S
C531 C532 1.363 . S
C531 H534 0.929 . S
C532 C531 1.363 . S
C532 C538 1.428 . S
H533 C529 0.930 . S
H534 C531 0.929 . S
S535 N536 1.613 . S
S535 N537 1.610 . S
N536 S535 1.613 . S
N536 C539 1.350 . S
N537 S535 1.610 . S
N537 C538 1.351 . S
C538 C532 1.428 . S
C538 N537 1.351 . S
C538 C539 1.434 . S
C539 C530 1.429 . S
C539 N536 1.350 . S
C539 C538 1.434 . S
C540 C541 1.369 . S
C540 C542 1.419 1_455 S
C540 H544 0.930 . S
C541 C540 1.369 . S
C541 C550 1.429 . S
C542 C540 1.419 1_655 S
C542 C543 1.363 . S
C542 H545 0.929 . S
C543 C542 1.363 . S
C543 C549 1.428 . S
H544 C540 0.930 . S
H545 C542 0.929 . S
S546 N547 1.613 . S
S546 N548 1.610 1_455 S
N547 S546 1.613 . S
N547 C550 1.350 . S
N548 S546 1.610 1_655 S
N548 C549 1.351 . S
C549 C543 1.428 . S
C549 N548 1.351 . S
C549 C550 1.434 1_655 S
C550 C541 1.429 . S
C550 N547 1.350 . S
C550 C549 1.434 1_455 S
C551 C552 1.369 . S
C551 C553 1.419 1_655 S
C551 H555 0.930 . S
C552 C551 1.369 . S
C552 C561 1.429 . S
C553 C551 1.419 1_455 S
C553 C554 1.363 . S
C553 H556 0.929 . S
C554 C553 1.363 . S
C554 C560 1.428 . S
H555 C551 0.930 . S
H556 C553 0.929 . S
S557 N558 1.613 1_554 S
S557 N559 1.610 1_654 S
N558 S557 1.613 1_556 S
N558 C561 1.350 . S
N559 S557 1.610 1_456 S
N559 C560 1.351 . S
C560 C554 1.428 . S
C560 N559 1.351 . S
C560 C561 1.434 1_455 S
C561 C552 1.429 . S
C561 N558 1.350 . S
C561 C560 1.434 1_655 S
C562 C563 1.369 . S
C562 C564 1.419 . S
C562 H566 0.930 . S
C563 C562 1.369 . S
C563 C572 1.429 . S
C564 C562 1.419 . S
C564 C565 1.363 . S
C564 H567 0.929 . S
C565 C564 1.363 . S
C565 C571 1.428 . S
H566 C562 0.930 . S
H567 C564 0.929 . S
S568 N569 1.613 . S
S568 N570 1.610 . S
N569 S568 1.613 . S
N569 C572 1.350 . S
N570 S568 1.610 . S
N570 C571 1.351 . S
C571 C565 1.428 . S
C571 N570 1.351 . S
C571 C572 1.434 . S
C572 C563 1.429 . S
C572 N569 1.350 . S
C572 C571 1.434 . S
C573 C574 1.369 . S
C573 C575 1.419 . S
C573 H577 0.930 . S
C574 C573 1.369 . S
C574 C583 1.429 . S
C575 C573 1.419 . S
C575 C576 1.363 . S
C575 H578 0.929 . S
C576 C575 1.363 . S
C576 C582 1.428 . S
H577 C573 0.930 . S
H578 C575 0.929 . S
S579 N580 1.613 . S
S579 N581 1.610 . S
N580 S579 1.613 . S
N580 C583 1.350 . S
N581 S579 1.610 . S
N581 C582 1.351 . S
C582 C576 1.428 . S
C582 N581 1.351 . S
C582 C583 1.434 . S
C583 C574 1.429 . S
C583 N580 1.350 . S
C583 C582 1.434 . S
C321 C29 1.664 . S
C323 C288 1.659 . S
C332 C248 1.664 . S
C334 C69 1.659 . S
C343 C229 1.657 . S
C345 C88 1.664 . S
C354 C189 1.664 . S
C356 C128 1.659 . S
C365 C97 1.633 . S
C367 C17 1.600 . S
C376 C57 1.596 . S
C378 C137 1.635 . S
C387 C122 1.601 . S
C389 C42 1.633 . S
C398 C82 1.596 . S
C400 C2 1.635 . S
C409 C177 1.445 . S
C411 C257 1.451 . S
C420 C217 1.448 . S
C422 C297 1.450 . S
C431 C282 1.448 . S
C433 C202 1.449 . S
C442 C242 1.450 . S
C444 C162 1.449 . S
C453 C31 2.065 . S
C455 C12 2.066 . S
C464 C71 2.063 . S
C466 C52 2.068 . S
C475 C111 2.067 . S
C477 C92 2.065 . S
C486 C132 2.066 . S
C488 C151 2.066 . S
C497 C172 2.068 . S
C499 C191 2.063 . S
C508 C231 2.062 . S
C510 C212 2.068 . S
C519 C252 2.067 . S
C521 C271 2.064 . S
C530 C292 2.065 . S
C532 C311 2.066 . S
C541 C8 2.191 . S
C543 C48 2.190 . S
C552 C149 2.193 . S
C554 C109 2.192 . S
C563 C168 2.189 . S
C565 C208 2.190 . S
C574 C309 2.192 . S
C576 C269 2.191 . S
