# Generated by pormake.
# Topology uon, (4)-cn, num edge types: 1
# Building blocks:
#     Node 0, Type 0, BuildingBlock: KOZSID_clean_sbu_0, # of connection points: 4
#     Node 1, Type 0, BuildingBlock: KOZSID_clean_sbu_0, # of connection points: 4
#     Node 2, Type 0, BuildingBlock: KOZSID_clean_sbu_0, # of connection points: 4
#     Node 3, Type 0, BuildingBlock: KOZSID_clean_sbu_0, # of connection points: 4
#     Node 4, Type 0, BuildingBlock: KOZSID_clean_sbu_0, # of connection points: 4
#     Node 5, Type 0, BuildingBlock: KOZSID_clean_sbu_0, # of connection points: 4
#     Edge 6, Type (0, 0), BuildingBlock: KIFKEQ_clean_linker_1, # of connection points: 2
#     Edge 7, Type (0, 0), BuildingBlock: KIFKEQ_clean_linker_1, # of connection points: 2
#     Edge 8, Type (0, 0), BuildingBlock: KIFKEQ_clean_linker_1, # of connection points: 2
#     Edge 9, Type (0, 0), BuildingBlock: KIFKEQ_clean_linker_1, # of connection points: 2
#     Edge 10, Type (0, 0), BuildingBlock: KIFKEQ_clean_linker_1, # of connection points: 2
#     Edge 11, Type (0, 0), BuildingBlock: KIFKEQ_clean_linker_1, # of connection points: 2
#     Edge 12, Type (0, 0), BuildingBlock: KIFKEQ_clean_linker_1, # of connection points: 2
#     Edge 13, Type (0, 0), BuildingBlock: KIFKEQ_clean_linker_1, # of connection points: 2
#     Edge 14, Type (0, 0), BuildingBlock: KIFKEQ_clean_linker_1, # of connection points: 2
#     Edge 15, Type (0, 0), BuildingBlock: KIFKEQ_clean_linker_1, # of connection points: 2
#     Edge 16, Type (0, 0), BuildingBlock: KIFKEQ_clean_linker_1, # of connection points: 2
#     Edge 17, Type (0, 0), BuildingBlock: KIFKEQ_clean_linker_1, # of connection points: 2
# Relax obj value: 0.068
# Max RMSD: 0.128
# Mean RMSD: 0.128
data_MOF--net-uon--node1-KOZSID_clean_sbu_0--edge1-KIFKEQ_clean_linker_1
_symmetry_space_group_name_H-M    P1
_symmetry_Int_Tables_number       1
_symmetry_cell_setting            triclinic
loop_
_symmetry_equiv_pos_as_xyz
'x, y, z'
_cell_length_a     38.65301
_cell_length_b     38.660371
_cell_length_c     34.056493
_cell_angle_alpha  90.019817
_cell_angle_beta   90.065358
_cell_angle_gamma 120.03526
loop_
_atom_site_label
_atom_site_type_symbol
_atom_site_fract_x
_atom_site_fract_y
_atom_site_fract_z
_atom_type_partial_charge
C0 C 0.14861 0.36024 0.03763 0.0
C1 C 0.10956 0.34553 0.02481 0.0
C2 C 0.1117 0.36365 0.98987 0.0
C3 C 0.15167 0.38842 0.98335 0.0
N4 N 0.17536 0.38673 0.01164 0.0
Co5 Co 0.23521 0.41972 0.01473 0.0
N6 N 0.23763 0.45135 0.96704 0.0
C7 C 0.20632 0.44745 0.94577 0.0
C8 C 0.21702 0.47321 0.91465 0.0
C9 C 0.25771 0.49475 0.91584 0.0
C10 C 0.26949 0.48065 0.94769 0.0
N11 N 0.29517 0.45219 0.01731 0.0
C12 C 0.3217 0.48086 0.9927 0.0
C13 C 0.36085 0.49445 1.00429 0.0
C14 C 0.35909 0.47343 0.03718 0.0
C15 C 0.31913 0.44823 0.04376 0.0
N16 N 0.23247 0.38876 0.0631 0.0
C17 C 0.26366 0.39265 0.08465 0.0
C18 C 0.25242 0.36955 0.11789 0.0
C19 C 0.21163 0.35046 0.11811 0.0
C20 C 0.20032 0.36311 0.08491 0.0
N21 N 0.24018 0.38031 0.98055 0.0
C22 C 0.2561 0.33271 0.92815 0.0
C23 C 0.27398 0.34339 0.96526 0.0
C24 C 0.26531 0.36636 0.99076 0.0
C25 C 0.22854 0.34496 0.91861 0.0
C26 C 0.22113 0.3685 0.94493 0.0
N27 N 0.23076 0.45915 0.04892 0.0
C28 C 0.25153 0.50073 0.10714 0.0
C29 C 0.22165 0.51058 0.10182 0.0
C30 C 0.19706 0.49505 0.06864 0.0
C31 C 0.20216 0.46968 0.04271 0.0
C32 C 0.25548 0.47532 0.08074 0.0
H33 H 0.18234 0.45846 0.01812 0.0
H34 H 0.27862 0.46889 0.08704 0.0
H35 H 0.28021 0.37317 0.01825 0.0
H36 H 0.20036 0.37731 0.93553 0.0
C37 C 0.16742 0.41752 0.95416 0.0
C38 C 0.15874 0.35099 0.07611 0.0
C39 C 0.31131 0.49523 0.95745 0.0
C40 C 0.30309 0.42047 0.07441 0.0
H41 H 0.08214 0.32521 0.03975 0.0
H42 H 0.08697 0.36086 0.97247 0.0
H43 H 0.1976 0.47541 0.8931 0.0
H44 H 0.27662 0.51775 0.89517 0.0
H45 H 0.38788 0.51689 0.99011 0.0
H46 H 0.38399 0.47593 0.05405 0.0
H47 H 0.27163 0.36791 0.14006 0.0
H48 H 0.19235 0.33029 0.14063 0.0
H49 H 0.29578 0.33528 0.97452 0.0
H50 H 0.21278 0.33673 0.89084 0.0
H51 H 0.27215 0.51271 0.13161 0.0
H52 H 0.1734 0.50168 0.06306 0.0
C53 C 0.77577 0.13977 0.35748 0.0
C54 C 0.75241 0.10139 0.34265 0.0
C55 C 0.74247 0.10544 0.30496 0.0
C56 C 0.75988 0.14584 0.29895 0.0
N57 N 0.78025 0.16743 0.33048 0.0
Co58 Co 0.80776 0.22647 0.33542 0.0
N59 N 0.7767 0.23087 0.29108 0.0
C60 C 0.75564 0.20217 0.26435 0.0
C61 C 0.73764 0.2136 0.2366 0.0
C62 C 0.74856 0.25217 0.24599 0.0
C63 C 0.77286 0.26223 0.27906 0.0
N64 N 0.83606 0.28564 0.3401 0.0
C65 C 0.82827 0.31273 0.32299 0.0
C66 C 0.85737 0.35141 0.33281 0.0
C67 C 0.88468 0.34835 0.3561 0.0
C68 C 0.87081 0.30813 0.35934 0.0
N69 N 0.83802 0.22141 0.37997 0.0
C70 C 0.87263 0.25061 0.39481 0.0
C71 C 0.8855 0.23812 0.4266 0.0
C72 C 0.85707 0.19866 0.43198 0.0
C73 C 0.82837 0.18936 0.40316 0.0
N74 N 0.84944 0.23179 0.2986 0.0
C75 C 0.91716 0.24975 0.25295 0.0
C76 C 0.90314 0.21962 0.28168 0.0
C77 C 0.8691 0.21092 0.30396 0.0
C78 C 0.89479 0.26859 0.24608 0.0
C79 C 0.86151 0.25943 0.26911 0.0
N80 N 0.76694 0.22194 0.37253 0.0
C81 C 0.75072 0.24106 0.43412 0.0
C82 C 0.70993 0.21406 0.42847 0.0
C83 C 0.69833 0.19145 0.39366 0.0
C84 C 0.72723 0.19589 0.3661 0.0
C85 C 0.77852 0.24446 0.40605 0.0
H86 H 0.71751 0.17794 0.3398 0.0
H87 H 0.80958 0.26522 0.41176 0.0
H88 H 0.85957 0.18834 0.32648 0.0
H89 H 0.84652 0.27602 0.2637 0.0
C90 C 0.75007 0.16373 0.26863 0.0
C91 C 0.79367 0.14942 0.39688 0.0
C92 C 0.79655 0.30333 0.29395 0.0
C93 C 0.8871 0.29033 0.38335 0.0
H94 H 0.74262 0.07331 0.35751 0.0
H95 H 0.72259 0.08168 0.28536 0.0
H96 H 0.71859 0.19594 0.2126 0.0
H97 H 0.74074 0.27119 0.22945 0.0
H98 H 0.85921 0.37898 0.32327 0.0
H99 H 0.91122 0.37258 0.36941 0.0
H100 H 0.91131 0.25602 0.44493 0.0
H101 H 0.85729 0.17903 0.45451 0.0
H102 H 0.91911 0.20391 0.28803 0.0
H103 H 0.90328 0.29102 0.22339 0.0
H104 H 0.7613 0.25988 0.45997 0.0
H105 H 0.66724 0.16995 0.38796 0.0
C106 C 0.64328 0.78429 0.6979 0.0
C107 C 0.65859 0.76058 0.68486 0.0
C108 C 0.64098 0.74507 0.64956 0.0
C109 C 0.61585 0.75986 0.64311 0.0
N110 N 0.61697 0.7847 0.67168 0.0
Co111 Co 0.58231 0.80966 0.67569 0.0
N112 N 0.55138 0.78101 0.62739 0.0
C113 C 0.55724 0.7557 0.60468 0.0
C114 C 0.53197 0.74104 0.57308 0.0
C115 C 0.50878 0.75835 0.57541 0.0
C116 C 0.52142 0.78279 0.60839 0.0
N117 N 0.54743 0.83437 0.67994 0.0
C118 C 0.5177 0.83103 0.65604 0.0
C119 C 0.50194 0.85422 0.66927 0.0
C120 C 0.52259 0.87314 0.70249 0.0
C121 C 0.54971 0.86053 0.70768 0.0
N122 N 0.61327 0.83812 0.72406 0.0
C123 C 0.60906 0.86514 0.7457 0.0
C124 C 0.63273 0.8776 0.77862 0.0
C125 C 0.65255 0.85663 0.77849 0.0
C126 C 0.63969 0.83241 0.74545 0.0
N127 N 0.62046 0.85554 0.64214 0.0
C128 C 0.66804 0.92047 0.59113 0.0
C129 C 0.65345 0.92624 0.62662 0.0
C130 C 0.63048 0.89396 0.65145 0.0
C131 C 0.65931 0.88147 0.58237 0.0
C132 C 0.63572 0.84981 0.60797 0.0
N133 N 0.54435 0.76426 0.70924 0.0
C134 C 0.50744 0.74093 0.77005 0.0
C135 C 0.49646 0.70143 0.76145 0.0
C136 C 0.50872 0.6937 0.72543 0.0
C137 C 0.53259 0.72537 0.69996 0.0
C138 C 0.53086 0.77144 0.74377 0.0
H139 H 0.54175 0.71787 0.67324 0.0
H140 H 0.53815 0.80076 0.75237 0.0
H141 H 0.62057 0.90099 0.67768 0.0
H142 H 0.62985 0.82092 0.59919 0.0
C143 C 0.58749 0.74719 0.61312 0.0
C144 C 0.65192 0.80306 0.7367 0.0
C145 C 0.5046 0.80775 0.61973 0.0
C146 C 0.57893 0.87407 0.73717 0.0
H147 H 0.67901 0.75364 0.69985 0.0
H148 H 0.6444 0.72375 0.6318 0.0
H149 H 0.53093 0.72066 0.55069 0.0
H150 H 0.48552 0.75388 0.55485 0.0
H151 H 0.47846 0.85768 0.65585 0.0
H152 H 0.51885 0.89425 0.72027 0.0
H153 H 0.63387 0.89793 0.80112 0.0
H154 H 0.6731 0.85792 0.80084 0.0
H155 H 0.65863 0.95546 0.63506 0.0
H156 H 0.67051 0.87514 0.55581 0.0
H157 H 0.49789 0.74841 0.79707 0.0
H158 H 0.50083 0.66353 0.71734 0.0
C159 C 0.86378 0.63922 0.02835 0.0
C160 C 0.90248 0.65482 0.01426 0.0
C161 C 0.89927 0.64059 0.97678 0.0
C162 C 0.85902 0.61688 0.97015 0.0
N163 N 0.83672 0.61541 1.0011 0.0
Co164 Co 0.77762 0.58293 1.00494 0.0
N165 N 0.77459 0.54761 0.96099 0.0
C166 C 0.80394 0.55566 0.935 0.0
C167 C 0.79346 0.52624 0.90738 0.0
C168 C 0.75484 0.49817 0.91603 0.0
C169 C 0.74378 0.51215 0.94855 0.0
N170 N 0.71838 0.55108 0.00852 0.0
C171 C 0.69196 0.51605 0.99107 0.0
C172 C 0.65293 0.50575 1.00009 0.0
C173 C 0.65505 0.53579 0.0232 0.0
C174 C 0.6951 0.56268 0.02714 0.0
N175 N 0.78131 0.61809 0.04915 0.0
C176 C 0.75141 0.62273 0.06322 0.0
C177 C 0.76295 0.64827 0.09484 0.0
C178 C 0.80255 0.66031 0.10096 0.0
C179 C 0.8129 0.64128 0.07272 0.0
N180 N 0.77207 0.61871 0.96741 0.0
C181 C 0.75367 0.66722 0.92011 0.0
C182 C 0.78321 0.68403 0.94945 0.0
C183 C 0.79213 0.6593 0.97259 0.0
C184 C 0.73566 0.62601 0.91358 0.0
C185 C 0.74502 0.60253 0.9374 0.0
N186 N 0.78225 0.54708 0.04263 0.0
C187 C 0.76136 0.51024 0.10333 0.0
C188 C 0.78836 0.49649 0.09803 0.0
C189 C 0.81246 0.50884 0.06431 0.0
C190 C 0.80879 0.53392 0.0369 0.0
C191 C 0.75886 0.53543 0.07553 0.0
H192 H 0.82742 0.54269 0.01111 0.0
H193 H 0.73804 0.54567 0.0809 0.0
H194 H 0.81423 0.67286 0.99554 0.0
H195 H 0.72905 0.57093 0.9321 0.0
C196 C 0.84202 0.58895 0.93985 0.0
C197 C 0.85339 0.64772 0.06728 0.0
C198 C 0.70229 0.49424 0.96233 0.0
C199 C 0.712 0.5968 0.05115 0.0
H200 H 0.93024 0.67371 0.02949 0.0
H201 H 0.9235 0.64484 0.95774 0.0
H202 H 0.81177 0.52515 0.88393 0.0
H203 H 0.73643 0.47122 0.89933 0.0
H204 H 0.62575 0.47976 0.99009 0.0
H205 H 0.63034 0.53758 0.03589 0.0
H206 H 0.74436 0.65572 0.11257 0.0
H207 H 0.82161 0.68062 0.12358 0.0
H208 H 0.7983 0.71577 0.95555 0.0
H209 H 0.71372 0.61155 0.89051 0.0
H210 H 0.74255 0.50207 0.12915 0.0
H211 H 0.83357 0.49873 0.0588 0.0
C212 C 0.22837 0.86776 0.35804 0.0
C213 C 0.25101 0.90624 0.34328 0.0
C214 C 0.2608 0.90249 0.30547 0.0
C215 C 0.24405 0.86217 0.29931 0.0
N216 N 0.22427 0.84032 0.33088 0.0
Co217 Co 0.19786 0.78133 0.33554 0.0
N218 N 0.22872 0.77772 0.2906 0.0
C219 C 0.24889 0.80658 0.26382 0.0
C220 C 0.26685 0.79569 0.23555 0.0
C221 C 0.25683 0.75731 0.24464 0.0
C222 C 0.23311 0.74682 0.27809 0.0
N223 N 0.17076 0.72221 0.34005 0.0
C224 C 0.17908 0.69566 0.32256 0.0
C225 C 0.15087 0.65675 0.33263 0.0
C226 C 0.12355 0.65908 0.35646 0.0
C227 C 0.13655 0.69913 0.35978 0.0
N228 N 0.16772 0.78557 0.38065 0.0
C229 C 0.13364 0.75584 0.39572 0.0
C230 C 0.12053 0.7678 0.42767 0.0
C231 C 0.14821 0.80751 0.43295 0.0
C232 C 0.17676 0.81748 0.4039 0.0
N233 N 0.15531 0.77514 0.2992 0.0
C234 C 0.08996 0.75969 0.25085 0.0
C235 C 0.10191 0.78762 0.28153 0.0
C236 C 0.13507 0.7954 0.30495 0.0
C237 C 0.11191 0.74046 0.24445 0.0
C238 C 0.14396 0.74822 0.26898 0.0
N239 N 0.23974 0.78676 0.37197 0.0
C240 C 0.25804 0.76826 0.43282 0.0
C241 C 0.29874 0.79444 0.42559 0.0
C242 C 0.30912 0.81685 0.39072 0.0
C243 C 0.27926 0.81258 0.36439 0.0
C244 C 0.22926 0.76479 0.40579 0.0
H245 H 0.28815 0.83017 0.33788 0.0
H246 H 0.19835 0.7444 0.41251 0.0
H247 H 0.14385 0.81723 0.32817 0.0
H248 H 0.15883 0.73149 0.26377 0.0
C249 C 0.25384 0.84472 0.26857 0.0
C250 C 0.21062 0.85789 0.39749 0.0
C251 C 0.21045 0.70569 0.29302 0.0
C252 C 0.11993 0.71627 0.38418 0.0
H253 H 0.26038 0.93422 0.35824 0.0
H254 H 0.2801 0.92644 0.28582 0.0
H255 H 0.2853 0.81359 0.2114 0.0
H256 H 0.26487 0.73869 0.22771 0.0
H257 H 0.14962 0.62949 0.32291 0.0
H258 H 0.09759 0.63451 0.37007 0.0
H259 H 0.09505 0.74945 0.44615 0.0
H260 H 0.14759 0.82688 0.45556 0.0
H261 H 0.08588 0.80341 0.28725 0.0
H262 H 0.10357 0.71845 0.22129 0.0
H263 H 0.24822 0.75079 0.45954 0.0
H264 H 0.34011 0.83719 0.38346 0.0
C265 C 0.37068 0.23077 0.69191 0.0
C266 C 0.35638 0.25495 0.67771 0.0
C267 C 0.37073 0.26554 0.64025 0.0
C268 C 0.39326 0.24773 0.63376 0.0
N269 N 0.39388 0.2265 0.66478 0.0
Co270 Co 0.42472 0.19822 0.66892 0.0
N271 N 0.46066 0.22982 0.62511 0.0
C272 C 0.45363 0.25178 0.599 0.0
C273 C 0.48328 0.26999 0.57153 0.0
C274 C 0.51039 0.25825 0.58041 0.0
C275 C 0.49565 0.23328 0.61291 0.0
N276 N 0.45485 0.16912 0.67274 0.0
C277 C 0.48956 0.17662 0.65548 0.0
C278 C 0.49859 0.14702 0.66466 0.0
C279 C 0.46803 0.11969 0.68767 0.0
C280 C 0.44213 0.13405 0.6914 0.0
N281 N 0.38903 0.16751 0.71303 0.0
C282 C 0.38313 0.13252 0.7272 0.0
C283 C 0.35752 0.11927 0.75873 0.0
C284 C 0.3468 0.14782 0.76469 0.0
C285 C 0.36663 0.17699 0.73644 0.0
N286 N 0.38809 0.15749 0.63126 0.0
C287 C 0.3376 0.09356 0.58178 0.0
C288 C 0.32183 0.10546 0.61263 0.0
C289 C 0.34752 0.13794 0.63661 0.0
C290 C 0.37886 0.11501 0.57562 0.0
C291 C 0.40343 0.14637 0.60071 0.0
N292 N 0.46134 0.23819 0.70674 0.0
C293 C 0.4975 0.25329 0.76793 0.0
C294 C 0.51197 0.29422 0.76282 0.0
C295 C 0.5005 0.30649 0.72881 0.0
C296 C 0.47541 0.27808 0.70108 0.0
C297 C 0.4723 0.22594 0.73979 0.0
H298 H 0.46727 0.28836 0.67515 0.0
H299 H 0.46136 0.19471 0.74509 0.0
H300 H 0.33464 0.14664 0.66002 0.0
H301 H 0.43505 0.16075 0.59575 0.0
C302 C 0.42113 0.25783 0.6036 0.0
C303 C 0.3617 0.21193 0.73086 0.0
C304 C 0.51222 0.20855 0.62683 0.0
C305 C 0.40802 0.11779 0.71531 0.0
H306 H 0.33835 0.26489 0.69282 0.0
H307 H 0.36742 0.28608 0.62116 0.0
H308 H 0.48512 0.28967 0.54802 0.0
H309 H 0.53718 0.26594 0.56386 0.0
H310 H 0.52408 0.14488 0.65484 0.0
H311 H 0.46529 0.0928 0.70046 0.0
H312 H 0.34919 0.09305 0.77651 0.0
H313 H 0.32683 0.14735 0.7872 0.0
H314 H 0.28997 0.08983 0.61814 0.0
H315 H 0.39233 0.10668 0.5523 0.0
H316 H 0.50501 0.24225 0.79391 0.0
H317 H 0.51122 0.33784 0.72338 0.0
H318 H 0.25954 0.33786 0.84721 0.0
H319 H 0.27862 0.27647 0.94366 0.0
H320 H 0.28157 0.30445 0.80131 0.0
H321 H 0.30266 0.245 0.89762 0.0
H322 H 0.39267 0.24545 0.80196 0.0
H323 H 0.36425 0.27107 0.85075 0.0
H324 H 0.25978 0.23198 0.77781 0.0
H325 H 0.28767 0.20522 0.72987 0.0
C326 C 0.26789 0.317 0.85881 0.0
C327 C 0.26732 0.31033 0.89956 0.0
C328 C 0.2808 0.29801 0.83235 0.0
C329 C 0.29412 0.27231 0.84587 0.0
C330 C 0.2931 0.26508 0.88637 0.0
C331 C 0.27948 0.28344 0.91279 0.0
C332 C 0.36343 0.24195 0.79675 0.0
C333 C 0.34273 0.22424 0.76186 0.0
C334 C 0.34716 0.25656 0.82457 0.0
C335 C 0.31 0.25402 0.81784 0.0
C336 C 0.28873 0.23497 0.78351 0.0
C337 C 0.30466 0.2197 0.75611 0.0
H338 H 0.94896 0.20409 0.22561 0.0
H339 H 0.97278 0.32573 0.23092 0.0
H340 H 0.01043 0.22649 0.18813 0.0
H341 H 0.03219 0.34753 0.19167 0.0
H342 H 0.1527 0.38662 0.14253 0.0
H343 H 0.09778 0.3605 0.18972 0.0
H344 H 0.03821 0.24917 0.12524 0.0
H345 H 0.09449 0.27498 0.07959 0.0
C346 C 0.96723 0.23557 0.21892 0.0
C347 C 0.95537 0.2629 0.23104 0.0
C348 C 1.00236 0.24842 0.19697 0.0
C349 C 0.02659 0.28894 0.18654 0.0
C350 C 0.01497 0.31622 0.1994 0.0
C351 C 0.9802 0.30349 0.22146 0.0
C352 C 0.12812 0.35631 0.13907 0.0
C353 C 0.12743 0.33297 0.10724 0.0
C354 C 0.09634 0.3414 0.16578 0.0
C355 C 0.06283 0.30285 0.16106 0.0
C356 C 0.06335 0.27883 0.13018 0.0
C357 C 0.09545 0.29365 0.10378 0.0
H358 H 0.80181 0.083 0.39731 0.0
H359 H 0.75676 0.14547 0.46611 0.0
H360 H 0.77399 0.02793 0.44477 0.0
H361 H 0.72972 0.0909 0.51431 0.0
H362 H 0.71972 0.99995 0.60865 0.0
H363 H 0.75245 0.0561 0.56347 0.0
H364 H 0.70297 0.97546 0.46517 0.0
H365 H 0.66861 0.91928 0.5101 0.0
C366 C 0.78605 0.08491 0.42276 0.0
C367 C 0.7806 0.11795 0.42773 0.0
C368 C 0.77012 0.05345 0.44987 0.0
C369 C 0.74926 0.05483 0.4831 0.0
C370 C 0.74566 0.08894 0.48905 0.0
C371 C 0.76107 0.12013 0.46155 0.0
C372 C 0.71527 0.99397 0.57746 0.0
C373 C 0.69095 0.95467 0.56335 0.0
C374 C 0.73431 0.02631 0.55155 0.0
C375 C 0.73026 0.0203 0.51074 0.0
C376 C 0.70703 0.98107 0.49647 0.0
C377 C 0.68745 0.94875 0.52237 0.0
H378 H 0.67768 0.64528 0.89649 0.0
H379 H 0.79872 0.7444 0.89177 0.0
H380 H 0.65554 0.68138 0.85524 0.0
H381 H 0.77596 0.78193 0.8521 0.0
H382 H 0.7279 0.81473 0.74121 0.0
H383 H 0.75366 0.78523 0.78819 0.0
H384 H 0.64166 0.73336 0.85123 0.0
H385 H 0.61566 0.76126 0.80283 0.0
C386 C 0.69971 0.67492 0.88674 0.0
C387 C 0.74025 0.69149 0.89709 0.0
C388 C 0.68678 0.69607 0.86349 0.0
C389 C 0.71378 0.73485 0.85011 0.0
C390 C 0.75424 0.75198 0.8613 0.0
C391 C 0.76729 0.7306 0.8845 0.0
C392 C 0.70903 0.7971 0.76529 0.0
C393 C 0.66959 0.78956 0.76806 0.0
C394 C 0.72382 0.78042 0.79247 0.0
C395 C 0.69968 0.75624 0.82346 0.0
C396 C 0.66091 0.7508 0.8273 0.0
C397 C 0.64603 0.76711 0.79985 0.0
H398 H 0.91696 0.72405 0.0659 0.0
H399 H 0.86045 0.61823 0.13771 0.0
H400 H 0.97322 0.75489 0.11203 0.0
H401 H 0.91627 0.64938 0.18463 0.0
H402 H 0.01305 0.73419 0.27426 0.0
H403 H 0.95337 0.70979 0.23247 0.0
H404 H 0.02727 0.7371 0.12931 0.0
H405 H 0.08648 0.76068 0.17097 0.0
C406 C 0.91649 0.70761 0.09184 0.0
C407 C 0.8849 0.66848 0.09791 0.0
C408 C 0.94863 0.7252 0.11821 0.0
C409 C 0.94942 0.70444 0.1518 0.0
C410 C 0.91652 0.66619 0.15909 0.0
C411 C 0.88464 0.64833 0.13229 0.0
C412 C 0.01648 0.73549 0.24264 0.0
C413 C 0.05441 0.74943 0.22585 0.0
C414 C 0.98234 0.72125 0.21875 0.0
C415 C 0.98558 0.72151 0.17757 0.0
C416 C 0.02376 0.73679 0.16089 0.0
C417 C 0.05766 0.7502 0.18472 0.0
H418 H 0.28546 0.01674 0.60469 0.0
H419 H 0.33323 0.09079 0.50187 0.0
H420 H 0.2498 0.95745 0.56254 0.0
H421 H 0.29719 0.03194 0.45983 0.0
H422 H 0.19876 0.92202 0.39626 0.0
H423 H 0.22488 0.97823 0.44245 0.0
H424 H 0.27317 0.92057 0.51446 0.0
H425 H 0.24788 0.86484 0.46746 0.0
C426 C 0.28767 0.02039 0.57309 0.0
C427 C 0.31201 0.05837 0.55653 0.0
C428 C 0.26756 0.98648 0.549 0.0
C429 C 0.27069 0.99 0.50785 0.0
C430 C 0.29389 0.02824 0.49139 0.0
C431 C 0.3146 0.06192 0.51542 0.0
C432 C 0.21493 0.92144 0.42202 0.0
C433 C 0.22222 0.88968 0.4279 0.0
C434 C 0.22983 0.95353 0.44844 0.0
C435 C 0.25143 0.95405 0.48191 0.0
C436 C 0.25659 0.92102 0.489 0.0
C437 C 0.24223 0.8892 0.46215 0.0
H438 H 0.15672 0.6639 0.23569 0.0
H439 H 0.26162 0.67621 0.29322 0.0
H440 H 0.15702 0.61499 0.19015 0.0
H441 H 0.26245 0.62749 0.24756 0.0
H442 H 0.22924 0.51139 0.18201 0.0
H443 H 0.22496 0.55639 0.22924 0.0
H444 H 0.19772 0.61396 0.13531 0.0
H445 H 0.20254 0.56924 0.0878 0.0
C446 C 0.17954 0.65561 0.23876 0.0
C447 C 0.20888 0.67325 0.26809 0.0
C448 C 0.18 0.62798 0.21251 0.0
C449 C 0.20982 0.61733 0.21506 0.0
C450 C 0.23878 0.63462 0.24501 0.0
C451 C 0.23841 0.66247 0.27114 0.0
C452 C 0.22266 0.53383 0.17125 0.0
C453 C 0.21662 0.5368 0.13086 0.0
C454 C 0.22015 0.55964 0.19845 0.0
C455 C 0.21122 0.58899 0.18615 0.0
C456 C 0.20425 0.59143 0.14591 0.0
C457 C 0.20696 0.5657 0.11862 0.0
H458 H 0.49674 0.15647 0.56702 0.0
H459 H 0.59367 0.25515 0.6279 0.0
H460 H 0.54399 0.15539 0.5199 0.0
H461 H 0.64134 0.25449 0.5807 0.0
H462 H 0.71771 0.21667 0.50883 0.0
H463 H 0.67057 0.21361 0.55808 0.0
H464 H 0.58686 0.19843 0.46642 0.0
H465 H 0.63426 0.20224 0.41698 0.0
C466 C 0.52835 0.17756 0.57049 0.0
C467 C 0.54182 0.20563 0.60114 0.0
C468 C 0.55535 0.17724 0.54337 0.0
C469 C 0.59647 0.20496 0.54637 0.0
C470 C 0.60994 0.23247 0.57775 0.0
C471 C 0.58281 0.23293 0.60476 0.0
C472 C 0.68942 0.21304 0.49903 0.0
C473 C 0.68006 0.21 0.45871 0.0
C474 C 0.66234 0.2112 0.52737 0.0
C475 C 0.62496 0.20589 0.51627 0.0
C476 C 0.61521 0.20206 0.47606 0.0
C477 C 0.64241 0.20416 0.44766 0.0
H478 H 0.43185 0.62701 0.74723 0.0
H479 H 0.50694 0.70264 0.84089 0.0
H480 H 0.3898 0.57645 0.79529 0.0
H481 H 0.46556 0.65203 0.88886 0.0
H482 H 0.3548 0.57604 0.9653 0.0
H483 H 0.40132 0.62463 0.918 0.0
H484 H 0.38484 0.52794 0.8419 0.0
H485 H 0.33739 0.47971 0.88909 0.0
C486 C 0.43973 0.63257 0.77803 0.0
C487 C 0.47251 0.66905 0.79021 0.0
C488 C 0.41567 0.60354 0.80567 0.0
C489 C 0.42396 0.61014 0.84617 0.0
C490 C 0.4576 0.64615 0.85811 0.0
C491 C 0.48144 0.67519 0.83055 0.0
C492 C 0.36171 0.56542 0.93865 0.0
C493 C 0.34298 0.52438 0.93077 0.0
C494 C 0.3884 0.59313 0.91153 0.0
C495 C 0.39698 0.58036 0.87592 0.0
C496 C 0.37864 0.53899 0.86864 0.0
C497 C 0.35182 0.51133 0.89575 0.0
H498 H 0.7269 0.43241 0.13504 0.0
H499 H 0.85564 0.49918 0.12811 0.0
H500 H 0.73062 0.38865 0.18414 0.0
H501 H 0.85957 0.45585 0.17794 0.0
H502 H 0.84873 0.34261 0.23498 0.0
H503 H 0.84781 0.39019 0.18841 0.0
H504 H 0.74752 0.38466 0.25029 0.0
H505 H 0.74801 0.33589 0.29596 0.0
C506 C 0.75607 0.438 0.14431 0.0
C507 C 0.79097 0.46937 0.1276 0.0
C508 C 0.75824 0.41297 0.17269 0.0
C509 C 0.79541 0.41868 0.18542 0.0
C510 C 0.83037 0.45009 0.16861 0.0
C511 C 0.82816 0.47499 0.13998 0.0
C512 C 0.82695 0.35217 0.23879 0.0
C513 C 0.79867 0.33605 0.26909 0.0
C514 C 0.8264 0.3795 0.21221 0.0
C515 C 0.79751 0.39138 0.21532 0.0
C516 C 0.76982 0.37581 0.24648 0.0
C517 C 0.77028 0.34827 0.27295 0.0
H518 H 0.2993 0.73496 0.4692 0.0
H519 H 0.36891 0.86187 0.4472 0.0
H520 H 0.34852 0.74059 0.5172 0.0
H521 H 0.41856 0.86733 0.49503 0.0
H522 H 0.5186 0.84932 0.55147 0.0
H523 H 0.46936 0.84762 0.50485 0.0
H524 H 0.37413 0.76802 0.58234 0.0
H525 H 0.42368 0.76965 0.62851 0.0
C526 C 0.32489 0.76419 0.47479 0.0
C527 C 0.3298 0.79799 0.45427 0.0
C528 C 0.3532 0.7674 0.50242 0.0
C529 C 0.38747 0.80446 0.51029 0.0
C530 C 0.39273 0.83824 0.4895 0.0
C531 C 0.36425 0.83506 0.46193 0.0
C532 C 0.4871 0.83195 0.55856 0.0
C533 C 0.47474 0.80978 0.59349 0.0
C534 C 0.4589 0.83099 0.532 0.0
C535 C 0.41768 0.80753 0.53968 0.0
C536 C 0.40555 0.78598 0.57519 0.0
C537 C 0.4338 0.78713 0.60181 0.0
H538 H 0.50977 0.35921 0.79232 0.0
H539 H 0.57479 0.29569 0.80166 0.0
H540 H 0.55253 0.40607 0.84275 0.0
H541 H 0.61805 0.34283 0.8514 0.0
H542 H 0.66948 0.41301 0.96392 0.0
H543 H 0.62157 0.36405 0.91732 0.0
H544 H 0.61808 0.45943 0.85441 0.0
H545 H 0.66475 0.50761 0.90189 0.0
C546 C 0.53347 0.35549 0.80485 0.0
C547 C 0.53876 0.32362 0.79291 0.0
C548 C 0.55807 0.3824 0.83383 0.0
C549 C 0.58887 0.37837 0.85148 0.0
C550 C 0.59422 0.34655 0.83927 0.0
C551 C 0.56946 0.31953 0.81053 0.0
C552 C 0.65776 0.42311 0.94044 0.0
C553 C 0.67027 0.4638 0.93659 0.0
C554 C 0.6307 0.39527 0.91344 0.0
C555 C 0.61589 0.40762 0.88176 0.0
C556 C 0.62815 0.44851 0.87859 0.0
C557 C 0.65498 0.47621 0.9057 0.0
loop_
_geom_bond_atom_site_label_1
_geom_bond_atom_site_label_2
_geom_bond_distance
_geom_bond_site_symmetry_2
_ccdc_geom_bond_type
C0 C1 1.443 . S
C0 N4 1.376 . S
C0 C38 1.389 . S
C1 C0 1.443 . S
C1 C2 1.340 1_554 S
C1 H41 0.951 . S
C2 C1 1.340 1_556 S
C2 C3 1.439 . S
C2 H42 0.950 . S
C3 C2 1.439 . S
C3 N4 1.374 1_556 S
C3 C37 1.395 . S
N4 C0 1.376 . S
N4 C3 1.374 1_554 S
N4 Co5 2.008 . S
Co5 N4 2.008 . S
Co5 N6 1.995 1_554 S
Co5 N11 2.008 . S
Co5 N16 1.995 . S
Co5 N21 2.282 1_554 S
Co5 N27 2.282 . S
N6 Co5 1.995 1_556 S
N6 C7 1.376 . S
N6 C10 1.383 . S
C7 N6 1.376 . S
C7 C8 1.446 . S
C7 C37 1.391 . S
C8 C7 1.446 . S
C8 C9 1.339 . S
C8 H43 0.949 . S
C9 C8 1.339 . S
C9 C10 1.439 . S
C9 H44 0.950 . S
C10 N6 1.383 . S
C10 C9 1.439 . S
C10 C39 1.392 . S
N11 Co5 2.008 . S
N11 C12 1.376 1_554 S
N11 C15 1.374 . S
C12 N11 1.376 1_556 S
C12 C13 1.443 . S
C12 C39 1.389 . S
C13 C12 1.443 . S
C13 C14 1.340 1_556 S
C13 H45 0.951 . S
C14 C13 1.340 1_554 S
C14 C15 1.439 . S
C14 H46 0.950 . S
C15 N11 1.374 . S
C15 C14 1.439 . S
C15 C40 1.395 . S
N16 Co5 1.995 . S
N16 C17 1.376 . S
N16 C20 1.383 . S
C17 N16 1.376 . S
C17 C18 1.446 . S
C17 C40 1.391 . S
C18 C17 1.446 . S
C18 C19 1.339 . S
C18 H47 0.949 . S
C19 C18 1.339 . S
C19 C20 1.439 . S
C19 H48 0.950 . S
C20 N16 1.383 . S
C20 C19 1.439 . S
C20 C38 1.392 . S
N21 Co5 2.282 1_556 S
N21 C24 1.332 . S
N21 C26 1.332 . S
C22 C23 1.386 . S
C22 C25 1.388 . S
C23 C22 1.386 . S
C23 C24 1.382 . S
C23 H49 0.950 . S
C24 N21 1.332 . S
C24 C23 1.382 . S
C24 H35 0.952 1_556 S
C25 C22 1.388 . S
C25 C26 1.382 . S
C25 H50 0.950 . S
C26 N21 1.332 . S
C26 C25 1.382 . S
C26 H36 0.948 . S
N27 Co5 2.282 . S
N27 C31 1.332 . S
N27 C32 1.332 . S
C28 C29 1.388 . S
C28 C32 1.382 . S
C28 H51 0.950 . S
C29 C28 1.388 . S
C29 C30 1.386 . S
C30 C29 1.386 . S
C30 C31 1.382 . S
C30 H52 0.950 . S
C31 N27 1.332 . S
C31 C30 1.382 . S
C31 H33 0.952 . S
C32 N27 1.332 . S
C32 C28 1.382 . S
C32 H34 0.948 . S
H33 C31 0.952 . S
H34 C32 0.948 . S
H35 C24 0.952 1_554 S
H36 C26 0.948 . S
C37 C3 1.395 . S
C37 C7 1.391 . S
C38 C0 1.389 . S
C38 C20 1.392 . S
C39 C10 1.392 . S
C39 C12 1.389 . S
C40 C15 1.395 . S
C40 C17 1.391 . S
H41 C1 0.951 . S
H42 C2 0.950 . S
H43 C8 0.949 . S
H44 C9 0.950 . S
H45 C13 0.951 . S
H46 C14 0.950 . S
H47 C18 0.949 . S
H48 C19 0.950 . S
H49 C23 0.950 . S
H50 C25 0.950 . S
H51 C28 0.950 . S
H52 C30 0.950 . S
C53 C54 1.443 . S
C53 N57 1.376 . S
C53 C91 1.389 . S
C54 C53 1.443 . S
C54 C55 1.340 . S
C54 H94 0.951 . S
C55 C54 1.340 . S
C55 C56 1.439 . S
C55 H95 0.950 . S
C56 C55 1.439 . S
C56 N57 1.374 . S
C56 C90 1.395 . S
N57 C53 1.376 . S
N57 C56 1.374 . S
N57 Co58 2.008 . S
Co58 N57 2.008 . S
Co58 N59 1.995 . S
Co58 N64 2.008 . S
Co58 N69 1.995 . S
Co58 N74 2.282 . S
Co58 N80 2.282 . S
N59 Co58 1.995 . S
N59 C60 1.376 . S
N59 C63 1.383 . S
C60 N59 1.376 . S
C60 C61 1.446 . S
C60 C90 1.391 . S
C61 C60 1.446 . S
C61 C62 1.339 . S
C61 H96 0.949 . S
C62 C61 1.339 . S
C62 C63 1.439 . S
C62 H97 0.950 . S
C63 N59 1.383 . S
C63 C62 1.439 . S
C63 C92 1.392 . S
N64 Co58 2.008 . S
N64 C65 1.376 . S
N64 C68 1.374 . S
C65 N64 1.376 . S
C65 C66 1.443 . S
C65 C92 1.389 . S
C66 C65 1.443 . S
C66 C67 1.340 . S
C66 H98 0.951 . S
C67 C66 1.340 . S
C67 C68 1.439 . S
C67 H99 0.950 . S
C68 N64 1.374 . S
C68 C67 1.439 . S
C68 C93 1.395 . S
N69 Co58 1.995 . S
N69 C70 1.376 . S
N69 C73 1.383 . S
C70 N69 1.376 . S
C70 C71 1.446 . S
C70 C93 1.391 . S
C71 C70 1.446 . S
C71 C72 1.339 . S
C71 H100 0.949 . S
C72 C71 1.339 . S
C72 C73 1.439 . S
C72 H101 0.950 . S
C73 N69 1.383 . S
C73 C72 1.439 . S
C73 C91 1.392 . S
N74 Co58 2.282 . S
N74 C77 1.332 . S
N74 C79 1.332 . S
C75 C76 1.386 . S
C75 C78 1.388 . S
C76 C75 1.386 . S
C76 C77 1.382 . S
C76 H102 0.950 . S
C77 N74 1.332 . S
C77 C76 1.382 . S
C77 H88 0.952 . S
C78 C75 1.388 . S
C78 C79 1.382 . S
C78 H103 0.950 . S
C79 N74 1.332 . S
C79 C78 1.382 . S
C79 H89 0.948 . S
N80 Co58 2.282 . S
N80 C84 1.332 . S
N80 C85 1.332 . S
C81 C82 1.388 . S
C81 C85 1.382 . S
C81 H104 0.950 . S
C82 C81 1.388 . S
C82 C83 1.386 . S
C83 C82 1.386 . S
C83 C84 1.382 . S
C83 H105 0.950 . S
C84 N80 1.332 . S
C84 C83 1.382 . S
C84 H86 0.952 . S
C85 N80 1.332 . S
C85 C81 1.382 . S
C85 H87 0.948 . S
H86 C84 0.952 . S
H87 C85 0.948 . S
H88 C77 0.952 . S
H89 C79 0.948 . S
C90 C56 1.395 . S
C90 C60 1.391 . S
C91 C53 1.389 . S
C91 C73 1.392 . S
C92 C63 1.392 . S
C92 C65 1.389 . S
C93 C68 1.395 . S
C93 C70 1.391 . S
H94 C54 0.951 . S
H95 C55 0.950 . S
H96 C61 0.949 . S
H97 C62 0.950 . S
H98 C66 0.951 . S
H99 C67 0.950 . S
H100 C71 0.949 . S
H101 C72 0.950 . S
H102 C76 0.950 . S
H103 C78 0.950 . S
H104 C81 0.950 . S
H105 C83 0.950 . S
C106 C107 1.443 . S
C106 N110 1.376 . S
C106 C144 1.389 . S
C107 C106 1.443 . S
C107 C108 1.340 . S
C107 H147 0.951 . S
C108 C107 1.340 . S
C108 C109 1.439 . S
C108 H148 0.950 . S
C109 C108 1.439 . S
C109 N110 1.374 . S
C109 C143 1.395 . S
N110 C106 1.376 . S
N110 C109 1.374 . S
N110 Co111 2.008 . S
Co111 N110 2.008 . S
Co111 N112 1.995 . S
Co111 N117 2.008 . S
Co111 N122 1.995 . S
Co111 N127 2.282 . S
Co111 N133 2.282 . S
N112 Co111 1.995 . S
N112 C113 1.376 . S
N112 C116 1.383 . S
C113 N112 1.376 . S
C113 C114 1.446 . S
C113 C143 1.391 . S
C114 C113 1.446 . S
C114 C115 1.339 . S
C114 H149 0.949 . S
C115 C114 1.339 . S
C115 C116 1.439 . S
C115 H150 0.950 . S
C116 N112 1.383 . S
C116 C115 1.439 . S
C116 C145 1.392 . S
N117 Co111 2.008 . S
N117 C118 1.376 . S
N117 C121 1.374 . S
C118 N117 1.376 . S
C118 C119 1.443 . S
C118 C145 1.389 . S
C119 C118 1.443 . S
C119 C120 1.340 . S
C119 H151 0.951 . S
C120 C119 1.340 . S
C120 C121 1.439 . S
C120 H152 0.950 . S
C121 N117 1.374 . S
C121 C120 1.439 . S
C121 C146 1.395 . S
N122 Co111 1.995 . S
N122 C123 1.376 . S
N122 C126 1.383 . S
C123 N122 1.376 . S
C123 C124 1.446 . S
C123 C146 1.391 . S
C124 C123 1.446 . S
C124 C125 1.339 . S
C124 H153 0.949 . S
C125 C124 1.339 . S
C125 C126 1.439 . S
C125 H154 0.950 . S
C126 N122 1.383 . S
C126 C125 1.439 . S
C126 C144 1.392 . S
N127 Co111 2.282 . S
N127 C130 1.332 . S
N127 C132 1.332 . S
C128 C129 1.386 . S
C128 C131 1.388 . S
C129 C128 1.386 . S
C129 C130 1.382 . S
C129 H155 0.950 . S
C130 N127 1.332 . S
C130 C129 1.382 . S
C130 H141 0.952 . S
C131 C128 1.388 . S
C131 C132 1.382 . S
C131 H156 0.950 . S
C132 N127 1.332 . S
C132 C131 1.382 . S
C132 H142 0.948 . S
N133 Co111 2.282 . S
N133 C137 1.332 . S
N133 C138 1.332 . S
C134 C135 1.388 . S
C134 C138 1.382 . S
C134 H157 0.950 . S
C135 C134 1.388 . S
C135 C136 1.386 . S
C136 C135 1.386 . S
C136 C137 1.382 . S
C136 H158 0.950 . S
C137 N133 1.332 . S
C137 C136 1.382 . S
C137 H139 0.952 . S
C138 N133 1.332 . S
C138 C134 1.382 . S
C138 H140 0.948 . S
H139 C137 0.952 . S
H140 C138 0.948 . S
H141 C130 0.952 . S
H142 C132 0.948 . S
C143 C109 1.395 . S
C143 C113 1.391 . S
C144 C106 1.389 . S
C144 C126 1.392 . S
C145 C116 1.392 . S
C145 C118 1.389 . S
C146 C121 1.395 . S
C146 C123 1.391 . S
H147 C107 0.951 . S
H148 C108 0.950 . S
H149 C114 0.949 . S
H150 C115 0.950 . S
H151 C119 0.951 . S
H152 C120 0.950 . S
H153 C124 0.949 . S
H154 C125 0.950 . S
H155 C129 0.950 . S
H156 C131 0.950 . S
H157 C134 0.950 . S
H158 C136 0.950 . S
C159 C160 1.443 . S
C159 N163 1.376 . S
C159 C197 1.389 . S
C160 C159 1.443 . S
C160 C161 1.340 1_554 S
C160 H200 0.951 . S
C161 C160 1.340 1_556 S
C161 C162 1.439 . S
C161 H201 0.950 . S
C162 C161 1.439 . S
C162 N163 1.374 1_556 S
C162 C196 1.395 . S
N163 C159 1.376 . S
N163 C162 1.374 1_554 S
N163 Co164 2.008 . S
Co164 N163 2.008 . S
Co164 N165 1.995 1_554 S
Co164 N170 2.008 . S
Co164 N175 1.995 . S
Co164 N180 2.282 1_554 S
Co164 N186 2.282 . S
N165 Co164 1.995 1_556 S
N165 C166 1.376 . S
N165 C169 1.383 . S
C166 N165 1.376 . S
C166 C167 1.446 . S
C166 C196 1.391 . S
C167 C166 1.446 . S
C167 C168 1.339 . S
C167 H202 0.949 . S
C168 C167 1.339 . S
C168 C169 1.439 . S
C168 H203 0.950 . S
C169 N165 1.383 . S
C169 C168 1.439 . S
C169 C198 1.392 . S
N170 Co164 2.008 . S
N170 C171 1.376 1_554 S
N170 C174 1.374 . S
C171 N170 1.376 1_556 S
C171 C172 1.443 . S
C171 C198 1.389 . S
C172 C171 1.443 . S
C172 C173 1.340 1_556 S
C172 H204 0.951 . S
C173 C172 1.340 1_554 S
C173 C174 1.439 . S
C173 H205 0.950 . S
C174 N170 1.374 . S
C174 C173 1.439 . S
C174 C199 1.395 . S
N175 Co164 1.995 . S
N175 C176 1.376 . S
N175 C179 1.383 . S
C176 N175 1.376 . S
C176 C177 1.446 . S
C176 C199 1.391 . S
C177 C176 1.446 . S
C177 C178 1.339 . S
C177 H206 0.949 . S
C178 C177 1.339 . S
C178 C179 1.439 . S
C178 H207 0.950 . S
C179 N175 1.383 . S
C179 C178 1.439 . S
C179 C197 1.392 . S
N180 Co164 2.282 1_556 S
N180 C183 1.332 . S
N180 C185 1.332 . S
C181 C182 1.386 . S
C181 C184 1.388 . S
C182 C181 1.386 . S
C182 C183 1.382 . S
C182 H208 0.950 . S
C183 N180 1.332 . S
C183 C182 1.382 . S
C183 H194 0.952 1_556 S
C184 C181 1.388 . S
C184 C185 1.382 . S
C184 H209 0.950 . S
C185 N180 1.332 . S
C185 C184 1.382 . S
C185 H195 0.948 . S
N186 Co164 2.282 . S
N186 C190 1.332 . S
N186 C191 1.332 . S
C187 C188 1.388 . S
C187 C191 1.382 . S
C187 H210 0.950 . S
C188 C187 1.388 . S
C188 C189 1.386 . S
C189 C188 1.386 . S
C189 C190 1.382 . S
C189 H211 0.950 . S
C190 N186 1.332 . S
C190 C189 1.382 . S
C190 H192 0.952 . S
C191 N186 1.332 . S
C191 C187 1.382 . S
C191 H193 0.948 . S
H192 C190 0.952 . S
H193 C191 0.948 . S
H194 C183 0.952 1_554 S
H195 C185 0.948 . S
C196 C162 1.395 . S
C196 C166 1.391 . S
C197 C159 1.389 . S
C197 C179 1.392 . S
C198 C169 1.392 . S
C198 C171 1.389 . S
C199 C174 1.395 . S
C199 C176 1.391 . S
H200 C160 0.951 . S
H201 C161 0.950 . S
H202 C167 0.949 . S
H203 C168 0.950 . S
H204 C172 0.951 . S
H205 C173 0.950 . S
H206 C177 0.949 . S
H207 C178 0.950 . S
H208 C182 0.950 . S
H209 C184 0.950 . S
H210 C187 0.950 . S
H211 C189 0.950 . S
C212 C213 1.443 . S
C212 N216 1.376 . S
C212 C250 1.389 . S
C213 C212 1.443 . S
C213 C214 1.340 . S
C213 H253 0.951 . S
C214 C213 1.340 . S
C214 C215 1.439 . S
C214 H254 0.950 . S
C215 C214 1.439 . S
C215 N216 1.374 . S
C215 C249 1.395 . S
N216 C212 1.376 . S
N216 C215 1.374 . S
N216 Co217 2.008 . S
Co217 N216 2.008 . S
Co217 N218 1.995 . S
Co217 N223 2.008 . S
Co217 N228 1.995 . S
Co217 N233 2.282 . S
Co217 N239 2.282 . S
N218 Co217 1.995 . S
N218 C219 1.376 . S
N218 C222 1.383 . S
C219 N218 1.376 . S
C219 C220 1.446 . S
C219 C249 1.391 . S
C220 C219 1.446 . S
C220 C221 1.339 . S
C220 H255 0.949 . S
C221 C220 1.339 . S
C221 C222 1.439 . S
C221 H256 0.950 . S
C222 N218 1.383 . S
C222 C221 1.439 . S
C222 C251 1.392 . S
N223 Co217 2.008 . S
N223 C224 1.376 . S
N223 C227 1.374 . S
C224 N223 1.376 . S
C224 C225 1.443 . S
C224 C251 1.389 . S
C225 C224 1.443 . S
C225 C226 1.340 . S
C225 H257 0.951 . S
C226 C225 1.340 . S
C226 C227 1.439 . S
C226 H258 0.950 . S
C227 N223 1.374 . S
C227 C226 1.439 . S
C227 C252 1.395 . S
N228 Co217 1.995 . S
N228 C229 1.376 . S
N228 C232 1.383 . S
C229 N228 1.376 . S
C229 C230 1.446 . S
C229 C252 1.391 . S
C230 C229 1.446 . S
C230 C231 1.339 . S
C230 H259 0.949 . S
C231 C230 1.339 . S
C231 C232 1.439 . S
C231 H260 0.950 . S
C232 N228 1.383 . S
C232 C231 1.439 . S
C232 C250 1.392 . S
N233 Co217 2.282 . S
N233 C236 1.332 . S
N233 C238 1.332 . S
C234 C235 1.386 . S
C234 C237 1.388 . S
C235 C234 1.386 . S
C235 C236 1.382 . S
C235 H261 0.950 . S
C236 N233 1.332 . S
C236 C235 1.382 . S
C236 H247 0.952 . S
C237 C234 1.388 . S
C237 C238 1.382 . S
C237 H262 0.950 . S
C238 N233 1.332 . S
C238 C237 1.382 . S
C238 H248 0.948 . S
N239 Co217 2.282 . S
N239 C243 1.332 . S
N239 C244 1.332 . S
C240 C241 1.388 . S
C240 C244 1.382 . S
C240 H263 0.950 . S
C241 C240 1.388 . S
C241 C242 1.386 . S
C242 C241 1.386 . S
C242 C243 1.382 . S
C242 H264 0.950 . S
C243 N239 1.332 . S
C243 C242 1.382 . S
C243 H245 0.952 . S
C244 N239 1.332 . S
C244 C240 1.382 . S
C244 H246 0.948 . S
H245 C243 0.952 . S
H246 C244 0.948 . S
H247 C236 0.952 . S
H248 C238 0.948 . S
C249 C215 1.395 . S
C249 C219 1.391 . S
C250 C212 1.389 . S
C250 C232 1.392 . S
C251 C222 1.392 . S
C251 C224 1.389 . S
C252 C227 1.395 . S
C252 C229 1.391 . S
H253 C213 0.951 . S
H254 C214 0.950 . S
H255 C220 0.949 . S
H256 C221 0.950 . S
H257 C225 0.951 . S
H258 C226 0.950 . S
H259 C230 0.949 . S
H260 C231 0.950 . S
H261 C235 0.950 . S
H262 C237 0.950 . S
H263 C240 0.950 . S
H264 C242 0.950 . S
C265 C266 1.443 . S
C265 N269 1.376 . S
C265 C303 1.389 . S
C266 C265 1.443 . S
C266 C267 1.340 . S
C266 H306 0.951 . S
C267 C266 1.340 . S
C267 C268 1.439 . S
C267 H307 0.950 . S
C268 C267 1.439 . S
C268 N269 1.374 . S
C268 C302 1.395 . S
N269 C265 1.376 . S
N269 C268 1.374 . S
N269 Co270 2.008 . S
Co270 N269 2.008 . S
Co270 N271 1.995 . S
Co270 N276 2.008 . S
Co270 N281 1.995 . S
Co270 N286 2.282 . S
Co270 N292 2.282 . S
N271 Co270 1.995 . S
N271 C272 1.376 . S
N271 C275 1.383 . S
C272 N271 1.376 . S
C272 C273 1.446 . S
C272 C302 1.391 . S
C273 C272 1.446 . S
C273 C274 1.339 . S
C273 H308 0.949 . S
C274 C273 1.339 . S
C274 C275 1.439 . S
C274 H309 0.950 . S
C275 N271 1.383 . S
C275 C274 1.439 . S
C275 C304 1.392 . S
N276 Co270 2.008 . S
N276 C277 1.376 . S
N276 C280 1.374 . S
C277 N276 1.376 . S
C277 C278 1.443 . S
C277 C304 1.389 . S
C278 C277 1.443 . S
C278 C279 1.340 . S
C278 H310 0.951 . S
C279 C278 1.340 . S
C279 C280 1.439 . S
C279 H311 0.950 . S
C280 N276 1.374 . S
C280 C279 1.439 . S
C280 C305 1.395 . S
N281 Co270 1.995 . S
N281 C282 1.376 . S
N281 C285 1.383 . S
C282 N281 1.376 . S
C282 C283 1.446 . S
C282 C305 1.391 . S
C283 C282 1.446 . S
C283 C284 1.339 . S
C283 H312 0.949 . S
C284 C283 1.339 . S
C284 C285 1.439 . S
C284 H313 0.950 . S
C285 N281 1.383 . S
C285 C284 1.439 . S
C285 C303 1.392 . S
N286 Co270 2.282 . S
N286 C289 1.332 . S
N286 C291 1.332 . S
C287 C288 1.386 . S
C287 C290 1.388 . S
C288 C287 1.386 . S
C288 C289 1.382 . S
C288 H314 0.950 . S
C289 N286 1.332 . S
C289 C288 1.382 . S
C289 H300 0.952 . S
C290 C287 1.388 . S
C290 C291 1.382 . S
C290 H315 0.950 . S
C291 N286 1.332 . S
C291 C290 1.382 . S
C291 H301 0.948 . S
N292 Co270 2.282 . S
N292 C296 1.332 . S
N292 C297 1.332 . S
C293 C294 1.388 . S
C293 C297 1.382 . S
C293 H316 0.950 . S
C294 C293 1.388 . S
C294 C295 1.386 . S
C295 C294 1.386 . S
C295 C296 1.382 . S
C295 H317 0.950 . S
C296 N292 1.332 . S
C296 C295 1.382 . S
C296 H298 0.952 . S
C297 N292 1.332 . S
C297 C293 1.382 . S
C297 H299 0.948 . S
H298 C296 0.952 . S
H299 C297 0.948 . S
H300 C289 0.952 . S
H301 C291 0.948 . S
C302 C268 1.395 . S
C302 C272 1.391 . S
C303 C265 1.389 . S
C303 C285 1.392 . S
C304 C275 1.392 . S
C304 C277 1.389 . S
C305 C280 1.395 . S
C305 C282 1.391 . S
H306 C266 0.951 . S
H307 C267 0.950 . S
H308 C273 0.949 . S
H309 C274 0.950 . S
H310 C278 0.951 . S
H311 C279 0.950 . S
H312 C283 0.949 . S
H313 C284 0.950 . S
H314 C288 0.950 . S
H315 C290 0.950 . S
H316 C293 0.950 . S
H317 C295 0.950 . S
H318 C326 0.950 . S
H319 C331 0.950 . S
H320 C328 0.950 . S
H321 C330 0.950 . S
H322 C332 0.950 . S
H323 C334 0.950 . S
H324 C336 0.950 . S
H325 C337 0.950 . S
C326 H318 0.950 . S
C326 C327 1.386 . S
C326 C328 1.391 . S
C327 C326 1.386 . S
C327 C331 1.393 . S
C328 H320 0.950 . S
C328 C326 1.391 . S
C328 C329 1.400 . S
C329 C328 1.400 . S
C329 C330 1.398 . S
C329 C335 1.491 . S
C330 H321 0.950 . S
C330 C329 1.398 . S
C330 C331 1.391 . S
C331 H319 0.950 . S
C331 C327 1.393 . S
C331 C330 1.391 . S
C332 H322 0.950 . S
C332 C333 1.386 . S
C332 C334 1.391 . S
C333 C332 1.386 . S
C333 C337 1.393 . S
C334 H323 0.950 . S
C334 C332 1.391 . S
C334 C335 1.400 . S
C335 C329 1.491 . S
C335 C334 1.400 . S
C335 C336 1.398 . S
C336 H324 0.950 . S
C336 C335 1.398 . S
C336 C337 1.391 . S
C337 H325 0.950 . S
C337 C333 1.393 . S
C337 C336 1.391 . S
H338 C346 0.950 . S
H339 C351 0.950 . S
H340 C348 0.950 . S
H341 C350 0.950 . S
H342 C352 0.950 . S
H343 C354 0.950 . S
H344 C356 0.950 . S
H345 C357 0.950 . S
C346 H338 0.950 . S
C346 C347 1.386 . S
C346 C348 1.391 1_655 S
C347 C346 1.386 . S
C347 C351 1.393 . S
C348 H340 0.950 . S
C348 C346 1.391 1_455 S
C348 C349 1.408 . S
C349 C348 1.408 . S
C349 C350 1.374 1_455 S
C349 C355 1.507 . S
C350 H341 0.950 . S
C350 C349 1.374 1_655 S
C350 C351 1.391 . S
C351 H339 0.950 . S
C351 C347 1.393 . S
C351 C350 1.391 . S
C352 H342 0.950 . S
C352 C353 1.386 . S
C352 C354 1.391 . S
C353 C352 1.386 . S
C353 C357 1.393 . S
C354 H343 0.950 . S
C354 C352 1.391 . S
C354 C355 1.400 . S
C355 C349 1.507 . S
C355 C354 1.400 . S
C355 C356 1.398 . S
C356 H344 0.950 . S
C356 C355 1.398 . S
C356 C357 1.391 . S
C357 H345 0.950 . S
C357 C353 1.393 . S
C357 C356 1.391 . S
H358 C366 0.950 . S
H359 C371 0.950 . S
H360 C368 0.950 . S
H361 C370 0.950 . S
H362 C372 0.950 . S
H363 C374 0.950 . S
H364 C376 0.950 . S
H365 C377 0.950 . S
C366 H358 0.950 . S
C366 C367 1.386 . S
C366 C368 1.391 . S
C367 C366 1.386 . S
C367 C371 1.393 . S
C368 H360 0.950 . S
C368 C366 1.391 . S
C368 C369 1.400 . S
C369 C368 1.400 . S
C369 C370 1.398 . S
C369 C375 1.491 . S
C370 H361 0.950 . S
C370 C369 1.398 . S
C370 C371 1.391 . S
C371 H359 0.950 . S
C371 C367 1.393 . S
C371 C370 1.391 . S
C372 H362 0.950 . S
C372 C373 1.386 . S
C372 C374 1.391 1_565 S
C373 C372 1.386 . S
C373 C377 1.393 . S
C374 H363 0.950 . S
C374 C372 1.391 1_545 S
C374 C375 1.400 . S
C375 C369 1.491 . S
C375 C374 1.400 . S
C375 C376 1.398 1_545 S
C376 H364 0.950 . S
C376 C375 1.398 1_565 S
C376 C377 1.391 . S
C377 H365 0.950 . S
C377 C373 1.393 . S
C377 C376 1.391 . S
H378 C386 0.950 . S
H379 C391 0.950 . S
H380 C388 0.950 . S
H381 C390 0.950 . S
H382 C392 0.950 . S
H383 C394 0.950 . S
H384 C396 0.950 . S
H385 C397 0.950 . S
C386 H378 0.950 . S
C386 C387 1.386 . S
C386 C388 1.391 . S
C387 C386 1.386 . S
C387 C391 1.393 . S
C388 H380 0.950 . S
C388 C386 1.391 . S
C388 C389 1.400 . S
C389 C388 1.400 . S
C389 C390 1.398 . S
C389 C395 1.491 . S
C390 H381 0.950 . S
C390 C389 1.398 . S
C390 C391 1.391 . S
C391 H379 0.950 . S
C391 C387 1.393 . S
C391 C390 1.391 . S
C392 H382 0.950 . S
C392 C393 1.386 . S
C392 C394 1.391 . S
C393 C392 1.386 . S
C393 C397 1.393 . S
C394 H383 0.950 . S
C394 C392 1.391 . S
C394 C395 1.400 . S
C395 C389 1.491 . S
C395 C394 1.400 . S
C395 C396 1.398 . S
C396 H384 0.950 . S
C396 C395 1.398 . S
C396 C397 1.391 . S
C397 H385 0.950 . S
C397 C393 1.393 . S
C397 C396 1.391 . S
H398 C406 0.950 . S
H399 C411 0.950 . S
H400 C408 0.950 . S
H401 C410 0.950 . S
H402 C412 0.950 . S
H403 C414 0.950 . S
H404 C416 0.950 . S
H405 C417 0.950 . S
C406 H398 0.950 . S
C406 C407 1.386 . S
C406 C408 1.391 . S
C407 C406 1.386 . S
C407 C411 1.393 . S
C408 H400 0.950 . S
C408 C406 1.391 . S
C408 C409 1.400 . S
C409 C408 1.400 . S
C409 C410 1.398 . S
C409 C415 1.508 . S
C410 H401 0.950 . S
C410 C409 1.398 . S
C410 C411 1.391 . S
C411 H399 0.950 . S
C411 C407 1.393 . S
C411 C410 1.391 . S
C412 H402 0.950 . S
C412 C413 1.386 . S
C412 C414 1.391 1_455 S
C413 C412 1.386 . S
C413 C417 1.393 . S
C414 H403 0.950 . S
C414 C412 1.391 1_655 S
C414 C415 1.397 . S
C415 C409 1.508 . S
C415 C414 1.397 . S
C415 C416 1.384 1_655 S
C416 H404 0.950 . S
C416 C415 1.384 1_455 S
C416 C417 1.391 . S
C417 H405 0.950 . S
C417 C413 1.393 . S
C417 C416 1.391 . S
H418 C426 0.950 . S
H419 C431 0.950 . S
H420 C428 0.937 1_565 S
H421 C430 0.950 . S
H422 C432 0.950 . S
H423 C434 0.950 . S
H424 C436 0.950 . S
H425 C437 0.950 . S
C426 H418 0.950 . S
C426 C427 1.386 . S
C426 C428 1.400 . S
C427 C426 1.386 . S
C427 C431 1.393 . S
C428 H420 0.937 1_545 S
C428 C426 1.400 . S
C428 C429 1.403 1_545 S
C429 C428 1.403 1_565 S
C429 C430 1.398 1_565 S
C429 C435 1.491 . S
C430 H421 0.950 . S
C430 C429 1.398 1_545 S
C430 C431 1.391 . S
C431 H419 0.950 . S
C431 C427 1.393 . S
C431 C430 1.391 . S
C432 H422 0.950 . S
C432 C433 1.386 . S
C432 C434 1.391 . S
C433 C432 1.386 . S
C433 C437 1.393 . S
C434 H423 0.950 . S
C434 C432 1.391 . S
C434 C435 1.400 . S
C435 C429 1.491 . S
C435 C434 1.400 . S
C435 C436 1.398 . S
C436 H424 0.950 . S
C436 C435 1.398 . S
C436 C437 1.391 . S
C437 H425 0.950 . S
C437 C433 1.393 . S
C437 C436 1.391 . S
H438 C446 0.950 . S
H439 C451 0.950 . S
H440 C448 0.950 . S
H441 C450 0.950 . S
H442 C452 0.950 . S
H443 C454 0.950 . S
H444 C456 0.950 . S
H445 C457 0.950 . S
C446 H438 0.950 . S
C446 C447 1.386 . S
C446 C448 1.391 . S
C447 C446 1.386 . S
C447 C451 1.393 . S
C448 H440 0.950 . S
C448 C446 1.391 . S
C448 C449 1.400 . S
C449 C448 1.400 . S
C449 C450 1.398 . S
C449 C455 1.491 . S
C450 H441 0.950 . S
C450 C449 1.398 . S
C450 C451 1.391 . S
C451 H439 0.950 . S
C451 C447 1.393 . S
C451 C450 1.391 . S
C452 H442 0.950 . S
C452 C453 1.386 . S
C452 C454 1.391 . S
C453 C452 1.386 . S
C453 C457 1.393 . S
C454 H443 0.950 . S
C454 C452 1.391 . S
C454 C455 1.400 . S
C455 C449 1.491 . S
C455 C454 1.400 . S
C455 C456 1.398 . S
C456 H444 0.950 . S
C456 C455 1.398 . S
C456 C457 1.391 . S
C457 H445 0.950 . S
C457 C453 1.393 . S
C457 C456 1.391 . S
H458 C466 0.950 . S
H459 C471 0.950 . S
H460 C468 0.950 . S
H461 C470 0.950 . S
H462 C472 0.950 . S
H463 C474 0.950 . S
H464 C476 0.950 . S
H465 C477 0.950 . S
C466 H458 0.950 . S
C466 C467 1.386 . S
C466 C468 1.391 . S
C467 C466 1.386 . S
C467 C471 1.393 . S
C468 H460 0.950 . S
C468 C466 1.391 . S
C468 C469 1.400 . S
C469 C468 1.400 . S
C469 C470 1.398 . S
C469 C475 1.491 . S
C470 H461 0.950 . S
C470 C469 1.398 . S
C470 C471 1.391 . S
C471 H459 0.950 . S
C471 C467 1.393 . S
C471 C470 1.391 . S
C472 H462 0.950 . S
C472 C473 1.386 . S
C472 C474 1.391 . S
C473 C472 1.386 . S
C473 C477 1.393 . S
C474 H463 0.950 . S
C474 C472 1.391 . S
C474 C475 1.400 . S
C475 C469 1.491 . S
C475 C474 1.400 . S
C475 C476 1.398 . S
C476 H464 0.950 . S
C476 C475 1.398 . S
C476 C477 1.391 . S
C477 H465 0.950 . S
C477 C473 1.393 . S
C477 C476 1.391 . S
H478 C486 0.950 . S
H479 C491 0.950 . S
H480 C488 0.950 . S
H481 C490 0.950 . S
H482 C492 0.950 . S
H483 C494 0.950 . S
H484 C496 0.950 . S
H485 C497 0.950 . S
C486 H478 0.950 . S
C486 C487 1.386 . S
C486 C488 1.391 . S
C487 C486 1.386 . S
C487 C491 1.393 . S
C488 H480 0.950 . S
C488 C486 1.391 . S
C488 C489 1.400 . S
C489 C488 1.400 . S
C489 C490 1.398 . S
C489 C495 1.491 . S
C490 H481 0.950 . S
C490 C489 1.398 . S
C490 C491 1.391 . S
C491 H479 0.950 . S
C491 C487 1.393 . S
C491 C490 1.391 . S
C492 H482 0.950 . S
C492 C493 1.386 . S
C492 C494 1.391 . S
C493 C492 1.386 . S
C493 C497 1.393 . S
C494 H483 0.950 . S
C494 C492 1.391 . S
C494 C495 1.400 . S
C495 C489 1.491 . S
C495 C494 1.400 . S
C495 C496 1.398 . S
C496 H484 0.950 . S
C496 C495 1.398 . S
C496 C497 1.391 . S
C497 H485 0.950 . S
C497 C493 1.393 . S
C497 C496 1.391 . S
H498 C506 0.950 . S
H499 C511 0.950 . S
H500 C508 0.950 . S
H501 C510 0.950 . S
H502 C512 0.950 . S
H503 C514 0.950 . S
H504 C516 0.950 . S
H505 C517 0.950 . S
C506 H498 0.950 . S
C506 C507 1.386 . S
C506 C508 1.391 . S
C507 C506 1.386 . S
C507 C511 1.393 . S
C508 H500 0.950 . S
C508 C506 1.391 . S
C508 C509 1.400 . S
C509 C508 1.400 . S
C509 C510 1.398 . S
C509 C515 1.491 . S
C510 H501 0.950 . S
C510 C509 1.398 . S
C510 C511 1.391 . S
C511 H499 0.950 . S
C511 C507 1.393 . S
C511 C510 1.391 . S
C512 H502 0.950 . S
C512 C513 1.386 . S
C512 C514 1.391 . S
C513 C512 1.386 . S
C513 C517 1.393 . S
C514 H503 0.950 . S
C514 C512 1.391 . S
C514 C515 1.400 . S
C515 C509 1.491 . S
C515 C514 1.400 . S
C515 C516 1.398 . S
C516 H504 0.950 . S
C516 C515 1.398 . S
C516 C517 1.391 . S
C517 H505 0.950 . S
C517 C513 1.393 . S
C517 C516 1.391 . S
H518 C526 0.950 . S
H519 C531 0.950 . S
H520 C528 0.950 . S
H521 C530 0.950 . S
H522 C532 0.950 . S
H523 C534 0.950 . S
H524 C536 0.950 . S
H525 C537 0.950 . S
C526 H518 0.950 . S
C526 C527 1.386 . S
C526 C528 1.391 . S
C527 C526 1.386 . S
C527 C531 1.393 . S
C528 H520 0.950 . S
C528 C526 1.391 . S
C528 C529 1.400 . S
C529 C528 1.400 . S
C529 C530 1.398 . S
C529 C535 1.491 . S
C530 H521 0.950 . S
C530 C529 1.398 . S
C530 C531 1.391 . S
C531 H519 0.950 . S
C531 C527 1.393 . S
C531 C530 1.391 . S
C532 H522 0.950 . S
C532 C533 1.386 . S
C532 C534 1.391 . S
C533 C532 1.386 . S
C533 C537 1.393 . S
C534 H523 0.950 . S
C534 C532 1.391 . S
C534 C535 1.400 . S
C535 C529 1.491 . S
C535 C534 1.400 . S
C535 C536 1.398 . S
C536 H524 0.950 . S
C536 C535 1.398 . S
C536 C537 1.391 . S
C537 H525 0.950 . S
C537 C533 1.393 . S
C537 C536 1.391 . S
H538 C546 0.950 . S
H539 C551 0.950 . S
H540 C548 0.950 . S
H541 C550 0.950 . S
H542 C552 0.950 . S
H543 C554 0.950 . S
H544 C556 0.950 . S
H545 C557 0.950 . S
C546 H538 0.950 . S
C546 C547 1.386 . S
C546 C548 1.391 . S
C547 C546 1.386 . S
C547 C551 1.393 . S
C548 H540 0.950 . S
C548 C546 1.391 . S
C548 C549 1.400 . S
C549 C548 1.400 . S
C549 C550 1.398 . S
C549 C555 1.491 . S
C550 H541 0.950 . S
C550 C549 1.398 . S
C550 C551 1.391 . S
C551 H539 0.950 . S
C551 C547 1.393 . S
C551 C550 1.391 . S
C552 H542 0.950 . S
C552 C553 1.386 . S
C552 C554 1.391 . S
C553 C552 1.386 . S
C553 C557 1.393 . S
C554 H543 0.950 . S
C554 C552 1.391 . S
C554 C555 1.400 . S
C555 C549 1.491 . S
C555 C554 1.400 . S
C555 C556 1.398 . S
C556 H544 0.950 . S
C556 C555 1.398 . S
C556 C557 1.391 . S
C557 H545 0.950 . S
C557 C553 1.393 . S
C557 C556 1.391 . S
C327 C22 1.440 . S
C333 C303 1.456 . S
C347 C75 1.451 . S
C353 C38 1.451 . S
C367 C91 1.457 . S
C373 C128 1.440 . S
C387 C181 1.443 . S
C393 C144 1.454 . S
C407 C197 1.457 . S
C413 C234 1.441 . S
C427 C287 1.451 . S
C433 C250 1.449 . S
C447 C251 1.502 . S
C453 C29 1.507 . S
C467 C304 1.502 . S
C473 C82 1.506 . S
C487 C135 1.506 . S
C493 C39 1.502 . S
C507 C188 1.503 . S
C513 C92 1.503 . S
C527 C241 1.503 . S
C533 C145 1.503 . S
C547 C294 1.501 . S
C553 C198 1.509 . S
