# Generated by pormake.
# Topology uoc, (4)-cn, num edge types: 1
# Building blocks:
#     Node 0, Type 0, BuildingBlock: CEKHIL_clean_sbu_0, # of connection points: 4
#     Node 1, Type 0, BuildingBlock: CEKHIL_clean_sbu_0, # of connection points: 4
#     Node 2, Type 0, BuildingBlock: CEKHIL_clean_sbu_0, # of connection points: 4
#     Node 3, Type 0, BuildingBlock: CEKHIL_clean_sbu_0, # of connection points: 4
#     Node 4, Type 0, BuildingBlock: CEKHIL_clean_sbu_0, # of connection points: 4
#     Node 5, Type 0, BuildingBlock: CEKHIL_clean_sbu_0, # of connection points: 4
#     Node 6, Type 0, BuildingBlock: CEKHIL_clean_sbu_0, # of connection points: 4
#     Node 7, Type 0, BuildingBlock: CEKHIL_clean_sbu_0, # of connection points: 4
#     Edge 8, Type (0, 0), BuildingBlock: FUNLAD_clean_linker_0, # of connection points: 2
#     Edge 9, Type (0, 0), BuildingBlock: FUNLAD_clean_linker_0, # of connection points: 2
#     Edge 10, Type (0, 0), BuildingBlock: FUNLAD_clean_linker_0, # of connection points: 2
#     Edge 11, Type (0, 0), BuildingBlock: FUNLAD_clean_linker_0, # of connection points: 2
#     Edge 12, Type (0, 0), BuildingBlock: FUNLAD_clean_linker_0, # of connection points: 2
#     Edge 13, Type (0, 0), BuildingBlock: FUNLAD_clean_linker_0, # of connection points: 2
#     Edge 14, Type (0, 0), BuildingBlock: FUNLAD_clean_linker_0, # of connection points: 2
#     Edge 15, Type (0, 0), BuildingBlock: FUNLAD_clean_linker_0, # of connection points: 2
#     Edge 16, Type (0, 0), BuildingBlock: FUNLAD_clean_linker_0, # of connection points: 2
#     Edge 17, Type (0, 0), BuildingBlock: FUNLAD_clean_linker_0, # of connection points: 2
#     Edge 18, Type (0, 0), BuildingBlock: FUNLAD_clean_linker_0, # of connection points: 2
#     Edge 19, Type (0, 0), BuildingBlock: FUNLAD_clean_linker_0, # of connection points: 2
#     Edge 20, Type (0, 0), BuildingBlock: FUNLAD_clean_linker_0, # of connection points: 2
#     Edge 21, Type (0, 0), BuildingBlock: FUNLAD_clean_linker_0, # of connection points: 2
#     Edge 22, Type (0, 0), BuildingBlock: FUNLAD_clean_linker_0, # of connection points: 2
#     Edge 23, Type (0, 0), BuildingBlock: FUNLAD_clean_linker_0, # of connection points: 2
# Relax obj value: 0.097
# Max RMSD: 0.108
# Mean RMSD: 0.108
data_MOF--net-uoc--node1-CEKHIL_clean_sbu_0--edge1-FUNLAD_clean_linker_0
_symmetry_space_group_name_H-M    P1
_symmetry_Int_Tables_number       1
_symmetry_cell_setting            triclinic
loop_
_symmetry_equiv_pos_as_xyz
'x, y, z'
_cell_length_a     31.344916
_cell_length_b     31.342553
_cell_length_c     63.944775
_cell_angle_alpha  90.122642
_cell_angle_beta   90.058739
_cell_angle_gamma 92.496033
loop_
_atom_site_label
_atom_site_type_symbol
_atom_site_fract_x
_atom_site_fract_y
_atom_site_fract_z
_atom_type_partial_charge
Co0 Co 0.11341 0.26382 0.10982 0.0
O1 O 0.12179 0.32483 0.10943 0.0
O2 O 0.06495 0.2905 0.12268 0.0
C3 C 0.13225 0.25266 0.07646 0.0
O4 O 0.09409 0.20062 0.11201 0.0
Co5 Co 0.19229 0.20841 0.10296 0.0
O6 O 0.14754 0.16232 0.09935 0.0
C7 C 0.18025 0.24995 0.14367 0.0
C8 C 0.08508 0.32679 0.11858 0.0
C9 C 0.10926 0.16506 0.10581 0.0
O10 O 0.14338 0.26166 0.13763 0.0
O11 O 0.20615 0.23114 0.13164 0.0
O12 O 0.09376 0.26357 0.08087 0.0
O13 O 0.15883 0.25356 0.09191 0.0
Co14 Co 0.76828 0.62247 0.36776 0.0
O15 O 0.82912 0.63214 0.36664 0.0
O16 O 0.79431 0.57275 0.35629 0.0
C17 C 0.75901 0.64647 0.40044 0.0
O18 O 0.70605 0.60086 0.36738 0.0
Co19 Co 0.70998 0.69967 0.37222 0.0
O20 O 0.66474 0.65441 0.37708 0.0
C21 C 0.75163 0.68353 0.33208 0.0
C22 C 0.83057 0.59396 0.35887 0.0
C23 C 0.66964 0.61526 0.37258 0.0
O24 O 0.76285 0.64723 0.339 0.0
O25 O 0.73377 0.71124 0.34348 0.0
O26 O 0.77128 0.60792 0.39726 0.0
O27 O 0.75756 0.67044 0.38405 0.0
Co28 Co 0.37895 0.22663 0.60908 0.0
O29 O 0.36916 0.16575 0.60782 0.0
O30 O 0.42914 0.19876 0.61867 0.0
C31 C 0.35285 0.2411 0.57734 0.0
O32 O 0.40119 0.28851 0.61163 0.0
Co33 Co 0.30269 0.28634 0.60849 0.0
O34 O 0.3478 0.33208 0.60481 0.0
C35 C 0.32106 0.2386 0.6467 0.0
C36 C 0.4077 0.16303 0.61499 0.0
C37 C 0.38709 0.32592 0.60833 0.0
O38 O 0.356 0.22704 0.63837 0.0
O39 O 0.29347 0.25978 0.63682 0.0
O40 O 0.39159 0.22849 0.57936 0.0
O41 O 0.32994 0.24017 0.59415 0.0
Co42 Co 0.73028 0.88512 0.87039 0.0
O43 O 0.66899 0.88115 0.86953 0.0
O44 O 0.70859 0.93594 0.85758 0.0
C45 C 0.73662 0.86388 0.90371 0.0
O46 O 0.79434 0.90075 0.86956 0.0
Co47 Co 0.78098 0.80344 0.87754 0.0
O48 O 0.82977 0.84498 0.88167 0.0
C49 C 0.74327 0.8189 0.83621 0.0
C50 C 0.67069 0.9185 0.86083 0.0
C51 C 0.82896 0.8837 0.87566 0.0
O52 O 0.73276 0.85612 0.84235 0.0
O53 O 0.76015 0.79182 0.84831 0.0
O54 O 0.72919 0.90342 0.89952 0.0
O55 O 0.73592 0.83804 0.88794 0.0
Co56 Co 0.62177 0.7602 0.61037 0.0
O57 O 0.63103 0.82099 0.60805 0.0
O58 O 0.57178 0.78845 0.61996 0.0
C59 C 0.64668 0.74361 0.57867 0.0
O60 O 0.60006 0.69838 0.6141 0.0
Co61 Co 0.69846 0.70106 0.61011 0.0
O62 O 0.65359 0.6548 0.60751 0.0
C63 C 0.68125 0.75133 0.64772 0.0
C64 C 0.59281 0.82401 0.61554 0.0
C65 C 0.61439 0.66088 0.61126 0.0
O66 O 0.64608 0.76241 0.63942 0.0
O67 O 0.70837 0.72909 0.63809 0.0
O68 O 0.60786 0.75593 0.58082 0.0
O69 O 0.67028 0.74593 0.59527 0.0
Co70 Co 0.25989 0.11456 0.87009 0.0
O71 O 0.32119 0.11827 0.86918 0.0
O72 O 0.28134 0.06275 0.85808 0.0
C73 C 0.25369 0.13833 0.90303 0.0
O74 O 0.19583 0.09909 0.86946 0.0
Co75 Co 0.20954 0.19697 0.87589 0.0
O76 O 0.16052 0.15592 0.88049 0.0
C77 C 0.24738 0.17839 0.83495 0.0
C78 C 0.3193 0.08032 0.86104 0.0
C79 C 0.16125 0.11673 0.87516 0.0
O80 O 0.2572 0.14137 0.84159 0.0
O81 O 0.23122 0.20663 0.84668 0.0
O82 O 0.26107 0.09848 0.8995 0.0
O83 O 0.25445 0.16294 0.88686 0.0
Co84 Co 0.8782 0.73431 0.10941 0.0
O85 O 0.8721 0.67353 0.10618 0.0
O86 O 0.92772 0.7072 0.12103 0.0
C87 C 0.85851 0.75121 0.07682 0.0
O88 O 0.89489 0.79742 0.11445 0.0
Co89 Co 0.79596 0.78615 0.10574 0.0
O90 O 0.83789 0.83545 0.10607 0.0
C91 C 0.81062 0.73668 0.14364 0.0
C92 C 0.90876 0.67116 0.11535 0.0
C93 C 0.877 0.83326 0.11137 0.0
O94 O 0.84871 0.7302 0.13731 0.0
O95 O 0.78277 0.7547 0.13244 0.0
O96 O 0.89747 0.74081 0.08056 0.0
O97 O 0.83213 0.74605 0.09218 0.0
Co98 Co 0.23319 0.38363 0.36935 0.0
O99 O 0.17237 0.37312 0.36889 0.0
O100 O 0.20571 0.43406 0.3598 0.0
C101 C 0.24473 0.35592 0.40105 0.0
O102 O 0.29504 0.40657 0.36866 0.0
Co103 Co 0.29358 0.30789 0.37045 0.0
O104 O 0.33797 0.35327 0.37659 0.0
C105 C 0.24994 0.32821 0.33125 0.0
C106 C 0.1699 0.41204 0.36226 0.0
C107 C 0.33201 0.39262 0.37317 0.0
O108 O 0.23693 0.3624 0.33981 0.0
O109 O 0.27043 0.30027 0.34127 0.0
O110 O 0.23187 0.3946 0.39925 0.0
O111 O 0.24575 0.33397 0.38392 0.0
C112 C 0.18699 0.23342 0.05027 0.0
C113 C 0.14387 0.23652 0.05571 0.0
C114 C 0.19818 0.21759 0.03071 0.0
C115 C 0.16636 0.20413 0.01635 0.0
C116 C 0.12328 0.2065 0.02194 0.0
C117 C 0.11207 0.22308 0.04137 0.0
C118 C 0.17743 0.18648 -0.00429 0.0
C119 C 0.21099 0.20197 0.9846 0.0
C120 C 0.22161 0.18499 0.96376 0.0
C121 C 0.23717 0.21321 0.9483 0.0
C122 C 0.24721 0.19802 0.92845 0.0
C123 C 0.243 0.15418 0.92396 0.0
H124 H 0.20638 0.11848 0.9711 0.0
C125 C 0.22836 0.12576 0.93957 0.0
C126 C 0.21744 0.14106 0.95929 0.0
H127 H 0.2249 0.09179 0.93648 0.0
H128 H 0.21211 0.24332 0.06112 0.0
H129 H 0.2317 0.21517 0.02701 0.0
H130 H 0.09827 0.19596 0.01116 0.0
H131 H 0.07857 0.22475 0.04528 0.0
H132 H 0.15601 0.16191 0.98897 0.0
H133 H 0.22967 0.22962 -0.00968 0.0
H134 H 0.24095 0.24713 0.9515 0.0
H135 H 0.2587 0.22054 0.9167 0.0
C136 C 0.7612 0.65959 0.29523 0.0
C137 C 0.75917 0.69309 0.30979 0.0
C138 C 0.76866 0.66826 0.27413 0.0
C139 C 0.77486 0.7106 0.26726 0.0
C140 C 0.77343 0.74406 0.2818 0.0
C141 C 0.765 0.73545 0.30287 0.0
C142 C 0.78498 0.72026 0.24517 0.0
C143 C 0.76677 0.69806 0.22925 0.0
C144 C 0.77829 0.70714 0.20727 0.0
C145 C 0.74635 0.70651 0.19189 0.0
C146 C 0.75673 0.71604 0.17112 0.0
C147 C 0.79942 0.72502 0.16534 0.0
H148 H 0.84636 0.71531 0.213 0.0
C149 C 0.83151 0.72412 0.18067 0.0
C150 C 0.82101 0.71561 0.20148 0.0
H151 H 0.86469 0.73094 0.17669 0.0
H152 H 0.75684 0.62662 0.30012 0.0
H153 H 0.77058 0.64177 0.26332 0.0
H154 H 0.77856 0.77691 0.27682 0.0
H155 H 0.76394 0.76185 0.31379 0.0
H156 H 0.80685 0.74731 0.24191 0.0
H157 H 0.74154 0.674 0.23232 0.0
H158 H 0.71327 0.69959 0.19604 0.0
H159 H 0.73141 0.71622 0.15957 0.0
C160 C 0.36277 0.25673 0.53941 0.0
C161 C 0.33673 0.2568 0.55725 0.0
C162 C 0.34773 0.27147 0.52032 0.0
C163 C 0.30616 0.28636 0.51867 0.0
C164 C 0.28042 0.28705 0.53661 0.0
C165 C 0.29545 0.27219 0.55572 0.0
C166 C 0.28936 0.3029 0.49873 0.0
C167 C 0.30313 0.29022 0.47986 0.0
C168 C 0.28712 0.30745 0.45989 0.0
C169 C 0.2896 0.28264 0.44167 0.0
C170 C 0.27555 0.29819 0.42251 0.0
C171 C 0.25918 0.33909 0.42123 0.0
H172 H 0.27002 0.36929 0.47206 0.0
C173 C 0.25716 0.36415 0.43939 0.0
C174 C 0.27109 0.34859 0.45853 0.0
H175 H 0.24506 0.39598 0.43883 0.0
H176 H 0.39491 0.24546 0.54017 0.0
H177 H 0.3691 0.27185 0.50704 0.0
H178 H 0.24847 0.29883 0.53582 0.0
H179 H 0.27477 0.27284 0.56926 0.0
H180 H 0.26359 0.32487 0.49972 0.0
H181 H 0.32575 0.26502 0.47885 0.0
H182 H 0.30227 0.25104 0.44226 0.0
H183 H 0.27771 0.27826 0.40873 0.0
C184 C 0.71333 0.83355 0.80075 0.0
C185 C 0.73653 0.80729 0.81397 0.0
C186 C 0.70791 0.82333 0.77964 0.0
C187 C 0.72607 0.78678 0.77117 0.0
C188 C 0.74851 0.76014 0.78448 0.0
C189 C 0.75375 0.77025 0.80563 0.0
C190 C 0.72151 0.77465 0.74877 0.0
C191 C 0.71074 0.80197 0.73362 0.0
C192 C 0.70468 0.78879 0.71153 0.0
C193 C 0.6746 0.80949 0.69942 0.0
C194 C 0.66712 0.79735 0.6787 0.0
C195 C 0.6902 0.7647 0.66953 0.0
H196 H 0.75284 0.74097 0.71102 0.0
C197 C 0.72132 0.74483 0.68146 0.0
C198 C 0.72844 0.75667 0.7023 0.0
H199 H 0.73982 0.71977 0.67481 0.0
H200 H 0.69911 0.86202 0.80671 0.0
H201 H 0.68895 0.84399 0.77025 0.0
H202 H 0.76244 0.73156 0.77846 0.0
H203 H 0.77175 0.74922 0.81536 0.0
H204 H 0.72735 0.74176 0.74467 0.0
H205 H 0.70443 0.83484 0.73738 0.0
H206 H 0.65625 0.83464 0.70612 0.0
H207 H 0.64325 0.81367 0.66987 0.0
C208 C 0.25271 0.28389 0.29852 0.0
C209 C 0.24079 0.32129 0.30874 0.0
C210 C 0.24345 0.27747 0.27732 0.0
C211 C 0.22238 0.3086 0.26584 0.0
C212 C 0.21042 0.34581 0.27612 0.0
C213 C 0.21953 0.35216 0.29726 0.0
C214 C 0.21066 0.30314 0.24345 0.0
C215 C 0.22807 0.27476 0.2305 0.0
C216 C 0.21532 0.26965 0.20822 0.0
C217 C 0.24365 0.25114 0.19424 0.0
C218 C 0.23258 0.24519 0.17323 0.0
C219 C 0.1927 0.25741 0.16577 0.0
H220 H 0.15172 0.29439 0.21113 0.0
C221 C 0.16421 0.27569 0.17981 0.0
C222 C 0.17522 0.28149 0.2008 0.0
H223 H 0.13302 0.28504 0.17469 0.0
H224 H 0.26884 0.2593 0.30692 0.0
H225 H 0.25218 0.24774 0.27026 0.0
H226 H 0.19386 0.37018 0.26775 0.0
H227 H 0.20972 0.38134 0.30458 0.0
H228 H 0.18767 0.32479 0.23729 0.0
H229 H 0.25381 0.25563 0.236 0.0
H230 H 0.27455 0.24131 0.19956 0.0
H231 H 0.25525 0.23076 0.16291 0.0
C232 C 0.63647 0.72825 0.54068 0.0
C233 C 0.66258 0.7279 0.55853 0.0
C234 C 0.6517 0.71449 0.52144 0.0
C235 C 0.69349 0.70024 0.51965 0.0
C236 C 0.71915 0.69882 0.53762 0.0
C237 C 0.70395 0.71278 0.55687 0.0
C238 C 0.71078 0.68571 0.49942 0.0
C239 C 0.69786 0.70092 0.48089 0.0
C240 C 0.71484 0.68659 0.46055 0.0
C241 C 0.71311 0.71395 0.44325 0.0
C242 C 0.72796 0.70119 0.42373 0.0
C243 C 0.7444 0.66057 0.42112 0.0
H244 H 0.73168 0.62324 0.47065 0.0
C245 C 0.74584 0.63301 0.43836 0.0
C246 C 0.73111 0.6458 0.45788 0.0
H247 H 0.75797 0.60133 0.43675 0.0
H248 H 0.60425 0.73931 0.54154 0.0
H249 H 0.63044 0.71459 0.50809 0.0
H250 H 0.75125 0.68747 0.53669 0.0
H251 H 0.72467 0.71186 0.57042 0.0
H252 H 0.73645 0.66357 0.49996 0.0
H253 H 0.67534 0.7263 0.48054 0.0
H254 H 0.70034 0.74536 0.44485 0.0
H255 H 0.72625 0.72302 0.41068 0.0
C256 C 0.27594 0.23991 0.67912 0.0
C257 C 0.31303 0.22732 0.66887 0.0
C258 C 0.26899 0.22974 0.70014 0.0
C259 C 0.29921 0.20701 0.7114 0.0
C260 C 0.33574 0.19373 0.70104 0.0
C261 C 0.3427 0.20385 0.68006 0.0
C262 C 0.29348 0.19564 0.73377 0.0
C263 C 0.26902 0.21732 0.74703 0.0
C264 C 0.26439 0.20652 0.76954 0.0
C265 C 0.25139 0.23809 0.78345 0.0
C266 C 0.24627 0.22918 0.8047 0.0
C267 C 0.25389 0.18831 0.81252 0.0
H268 H 0.28017 0.13971 0.76707 0.0
C269 C 0.26665 0.15658 0.79857 0.0
C270 C 0.27158 0.16545 0.77731 0.0
H271 H 0.27227 0.12458 0.80398 0.0
H272 H 0.25219 0.25761 0.67092 0.0
H273 H 0.23968 0.23929 0.70734 0.0
H274 H 0.3593 0.17578 0.70927 0.0
H275 H 0.37151 0.19333 0.67268 0.0
H276 H 0.31225 0.16996 0.73966 0.0
H277 H 0.25347 0.24551 0.74159 0.0
H278 H 0.2453 0.26988 0.77787 0.0
H279 H 0.23625 0.25438 0.81497 0.0
C280 C 0.80247 0.77232 0.05165 0.0
C281 C 0.84584 0.77007 0.05682 0.0
C282 C 0.7904 0.7896 0.03255 0.0
C283 C 0.82155 0.80537 0.01842 0.0
C284 C 0.86483 0.8043 0.02387 0.0
C285 C 0.87694 0.78631 0.04282 0.0
C286 C 0.80965 0.82315 -0.00206 0.0
C287 C 0.77718 0.80598 0.98654 0.0
C288 C 0.76683 0.82166 0.96543 0.0
C289 C 0.75286 0.7922 0.95011 0.0
C290 C 0.74344 0.80594 0.92995 0.0
C291 C 0.74676 0.84956 0.92496 0.0
H292 H 0.77986 0.88888 0.97215 0.0
C293 C 0.75979 0.87921 0.94042 0.0
C294 C 0.77004 0.86536 0.96048 0.0
H295 H 0.76248 0.91304 0.93696 0.0
H296 H 0.77787 0.76032 0.06226 0.0
H297 H 0.75672 0.79097 0.02895 0.0
H298 H 0.88932 0.81662 0.01327 0.0
H299 H 0.91061 0.78538 0.04655 0.0
H300 H 0.83011 0.84864 -0.0086 0.0
H301 H 0.75973 0.77751 -0.00789 0.0
H302 H 0.74989 0.7584 0.95365 0.0
H303 H 0.73318 0.78247 0.91833 0.0
C304 C 0.04407 0.12186 0.11804 0.0
C305 C 0.08241 0.12482 0.10665 0.0
C306 C 0.02071 0.08274 0.1196 0.0
C307 C 0.03506 0.04583 0.10958 0.0
C308 C 0.07309 0.0492 0.09805 0.0
C309 C 0.09637 0.088 0.09657 0.0
C310 C 0.01238 0.00301 0.11081 0.0
C311 C 0.9718 0.99627 0.11734 0.0
C312 C 0.94885 0.9536 0.11671 0.0
C313 C 0.90419 0.9521 0.11531 0.0
C314 C 0.88118 0.91309 0.11382 0.0
C315 C 0.90216 0.87426 0.11394 0.0
H316 H 0.0043 0.91445 0.1192 0.0
C317 C 0.94685 0.87554 0.11606 0.0
C318 C 0.97 0.91479 0.11744 0.0
H319 H 0.96401 0.8463 0.11639 0.0
H320 H 0.03259 0.14948 0.12614 0.0
H321 H 0.99207 0.08169 0.12902 0.0
H322 H 0.08505 0.02155 0.09012 0.0
H323 H 0.12562 0.08893 0.08754 0.0
H324 H 0.02944 0.97611 0.10488 0.0
H325 H 0.95326 0.02323 0.12181 0.0
H326 H 0.88696 0.98133 0.11493 0.0
H327 H 0.84676 0.91355 0.11245 0.0
C328 C 0.12506 0.47342 0.35274 0.0
C329 C 0.12803 0.4303 0.35818 0.0
C330 C 0.08513 0.49095 0.35001 0.0
C331 C 0.04723 0.4655 0.35258 0.0
C332 C 0.05055 0.42216 0.35756 0.0
C333 C 0.09038 0.40475 0.36033 0.0
C334 C 0.00369 0.48274 0.35149 0.0
C335 C 0.99524 0.52266 0.34544 0.0
C336 C 0.95215 0.54023 0.34728 0.0
C337 C 0.94922 0.58405 0.35114 0.0
C338 C 0.90962 0.60151 0.35453 0.0
C339 C 0.87193 0.57558 0.35382 0.0
H340 H 0.91521 0.48077 0.34213 0.0
C341 C 0.87454 0.53203 0.349 0.0
C342 C 0.9143 0.51445 0.34577 0.0
H343 H 0.84598 0.51137 0.34814 0.0
H344 H 0.15356 0.49391 0.351 0.0
H345 H 0.08462 0.52456 0.34644 0.0
H346 H 0.02212 0.40168 0.35967 0.0
H347 H 0.09156 0.37131 0.36444 0.0
H348 H 0.97751 0.46181 0.35694 0.0
H349 H 0.02083 0.54464 0.34045 0.0
H350 H 0.9778 0.6047 0.35218 0.0
H351 H 0.90865 0.6353 0.358 0.0
C352 C 0.40258 0.40505 0.60657 0.0
C353 C 0.41746 0.36357 0.6088 0.0
C354 C 0.43099 0.44065 0.60686 0.0
C355 C 0.47506 0.43566 0.60947 0.0
C356 C 0.48998 0.39425 0.61148 0.0
C357 C 0.46154 0.35861 0.61127 0.0
C358 C 0.50654 0.47255 0.60926 0.0
C359 C 0.49687 0.51268 0.61462 0.0
C360 C 0.52793 0.55005 0.61404 0.0
C361 C 0.51225 0.59139 0.61446 0.0
C362 C 0.54013 0.62745 0.6137 0.0
C363 C 0.58448 0.62297 0.61253 0.0
H364 H 0.58632 0.51473 0.61374 0.0
C365 C 0.60023 0.58163 0.61247 0.0
C366 C 0.57243 0.54566 0.61335 0.0
H367 H 0.63424 0.5769 0.61188 0.0
H368 H 0.3689 0.41016 0.60447 0.0
H369 H 0.41824 0.4718 0.60454 0.0
H370 H 0.5238 0.38943 0.6133 0.0
H371 H 0.4742 0.32718 0.61292 0.0
H372 H 0.53877 0.46573 0.6046 0.0
H373 H 0.46454 0.51893 0.61945 0.0
H374 H 0.47819 0.59586 0.61518 0.0
H375 H 0.52686 0.65878 0.61384 0.0
C376 C 0.59113 0.91976 0.86008 0.0
C377 C 0.63094 0.94023 0.85579 0.0
C378 C 0.55327 0.94075 0.85694 0.0
C379 C 0.55417 0.98279 0.8492 0.0
C380 C 0.59401 0.00292 0.84449 0.0
C381 C 0.63201 0.98186 0.84769 0.0
C382 C 0.51487 0.00782 0.84763 0.0
C383 C 0.47472 0.99022 0.84781 0.0
C384 C 0.43548 0.01532 0.84951 0.0
C385 C 0.39552 0.99513 0.84503 0.0
C386 C 0.35763 0.01635 0.84827 0.0
C387 C 0.35894 0.05822 0.85617 0.0
H388 H 0.46631 0.07411 0.8614 0.0
C389 C 0.39886 0.07869 0.86029 0.0
C390 C 0.43662 0.05754 0.85711 0.0
H391 H 0.40105 0.11091 0.86649 0.0
H392 H 0.58912 0.88772 0.86643 0.0
H393 H 0.5237 0.92421 0.8614 0.0
H394 H 0.59583 0.03539 0.83867 0.0
H395 H 0.66218 0.99852 0.84425 0.0
H396 H 0.51963 0.04224 0.84656 0.0
H397 H 0.46991 0.95579 0.84693 0.0
H398 H 0.39353 0.96252 0.83935 0.0
H399 H 0.32737 0.99969 0.84497 0.0
C400 C 0.96641 0.62474 0.12908 0.0
C401 C 0.92697 0.6289 0.119 0.0
C402 C 0.98286 0.58421 0.13211 0.0
C403 C 0.96015 0.54707 0.12497 0.0
C404 C 0.92044 0.55153 0.11527 0.0
C405 C 0.90414 0.59176 0.11227 0.0
C406 C 0.97623 0.50309 0.12696 0.0
C407 C 0.01745 0.49447 0.13024 0.0
C408 C 0.03393 0.45057 0.12899 0.0
C409 C 0.07706 0.44639 0.12391 0.0
C410 C 0.09355 0.40616 0.12101 0.0
C411 C 0.06746 0.36884 0.12337 0.0
H412 H 0.97498 0.41487 0.13681 0.0
C413 C 0.02472 0.37268 0.12941 0.0
C414 C 0.00805 0.41316 0.1322 0.0
H415 H 0.00394 0.3445 0.13154 0.0
H416 H 0.98454 0.65273 0.13463 0.0
H417 H 0.01306 0.58235 0.14015 0.0
H418 H 0.90204 0.52372 0.10969 0.0
H419 H 0.87353 0.59362 0.10453 0.0
H420 H 0.95344 0.47681 0.12376 0.0
H421 H 0.04101 0.52066 0.13188 0.0
H422 H 0.09792 0.47445 0.12156 0.0
H423 H 0.12678 0.40441 0.11659 0.0
C424 C 0.40945 0.40936 0.38065 0.0
C425 C 0.36957 0.42306 0.37391 0.0
C426 C 0.44527 0.43744 0.3809 0.0
C427 C 0.44223 0.47993 0.37418 0.0
C428 C 0.40221 0.49389 0.36789 0.0
C429 C 0.36628 0.4658 0.36771 0.0
C430 C 0.47967 0.51081 0.37407 0.0
C431 C 0.52052 0.49894 0.37336 0.0
C432 C 0.55814 0.5296 0.37328 0.0
C433 C 0.59756 0.51555 0.36618 0.0
C434 C 0.63383 0.54315 0.36601 0.0
C435 C 0.63153 0.58552 0.37302 0.0
H436 H 0.52682 0.58362 0.38699 0.0
C437 C 0.59221 0.59941 0.38043 0.0
C438 C 0.55603 0.57178 0.38067 0.0
H439 H 0.58931 0.63166 0.38621 0.0
H440 H 0.41312 0.37685 0.38584 0.0
H441 H 0.475 0.42569 0.38665 0.0
H442 H 0.39878 0.52657 0.36289 0.0
H443 H 0.33606 0.47753 0.36252 0.0
H444 H 0.47292 0.54446 0.3736 0.0
H445 H 0.52704 0.46534 0.37188 0.0
H446 H 0.60029 0.48311 0.36061 0.0
H447 H 0.66357 0.53129 0.36026 0.0
C448 C 0.46765 0.11794 0.62638 0.0
C449 C 0.42609 0.12102 0.61847 0.0
C450 C 0.48521 0.07799 0.62895 0.0
C451 C 0.46156 0.04032 0.62347 0.0
C452 C 0.41959 0.04355 0.61618 0.0
C453 C 0.40208 0.08339 0.61365 0.0
C454 C 0.47929 0.99715 0.62485 0.0
C455 C 0.52141 0.99029 0.62447 0.0
C456 C 0.53908 0.94706 0.62326 0.0
C457 C 0.5805 0.94345 0.61534 0.0
C458 C 0.59794 0.90352 0.61302 0.0
C459 C 0.57441 0.86616 0.61868 0.0
H460 H 0.48449 0.91105 0.63638 0.0
C461 C 0.53341 0.86963 0.62717 0.0
C462 C 0.51593 0.90969 0.62953 0.0
H463 H 0.51475 0.84142 0.63193 0.0
H464 H 0.48672 0.14638 0.6305 0.0
H465 H 0.51712 0.07695 0.63531 0.0
H466 H 0.40047 0.01515 0.61202 0.0
H467 H 0.36982 0.08463 0.60766 0.0
H468 H 0.45649 0.97009 0.62433 0.0
H469 H 0.54411 0.0173 0.6232 0.0
H470 H 0.59924 0.97162 0.61056 0.0
H471 H 0.62978 0.90198 0.60657 0.0
C472 C 0.87241 0.95158 0.86805 0.0
C473 C 0.87009 0.90918 0.87526 0.0
C474 C 0.91166 0.97477 0.86739 0.0
C475 C 0.94946 0.95607 0.87405 0.0
C476 C 0.94703 0.91371 0.88111 0.0
C477 C 0.90797 0.89063 0.88179 0.0
C478 C 0.99216 0.9789 0.87348 0.0
C479 C 0.99787 0.02176 0.87354 0.0
C480 C 0.04062 0.04454 0.87403 0.0
C481 C 0.04325 0.08695 0.88112 0.0
C482 C 0.08237 0.10998 0.88169 0.0
C483 C 0.12008 0.09131 0.87502 0.0
H484 H 0.07762 0.99354 0.8611 0.0
C485 C 0.11757 0.04884 0.86782 0.0
C486 C 0.07827 0.02573 0.86725 0.0
H487 H 0.14584 0.03355 0.86238 0.0
H488 H 0.84399 0.96677 0.86273 0.0
H489 H 0.91218 0.00693 0.86127 0.0
H490 H 0.97553 0.89833 0.88622 0.0
H491 H 0.90766 0.85804 0.8874 0.0
H492 H 0.01984 0.95934 0.87433 0.0
H493 H 0.97021 0.04132 0.87451 0.0
H494 H 0.01487 0.1024 0.88633 0.0
H495 H 0.08287 0.14262 0.88731 0.0
loop_
_geom_bond_atom_site_label_1
_geom_bond_atom_site_label_2
_geom_bond_distance
_geom_bond_site_symmetry_2
_ccdc_geom_bond_type
Co0 O1 2.216 . S
Co0 O2 2.091 . S
Co0 O4 2.004 . S
Co0 O10 2.021 . S
Co0 O12 2.137 . S
Co0 O13 2.244 . S
O1 Co0 2.216 . S
O1 C8 1.247 . S
O2 Co0 2.091 . S
O2 C8 1.261 . S
C3 O12 1.247 . S
C3 O13 1.272 . S
O4 Co0 2.004 . S
O4 C9 1.259 . S
Co5 O6 2.061 . S
Co5 O11 2.052 . S
Co5 O13 2.135 . S
O6 Co5 2.061 . S
O6 C9 1.235 . S
C7 O10 1.238 . S
C7 O11 1.241 . S
C8 O1 1.247 . S
C8 O2 1.261 . S
C9 O4 1.259 . S
C9 O6 1.235 . S
O10 Co0 2.021 . S
O10 C7 1.238 . S
O11 Co5 2.052 . S
O11 C7 1.241 . S
O12 Co0 2.137 . S
O12 C3 1.247 . S
O13 Co0 2.244 . S
O13 C3 1.272 . S
O13 Co5 2.135 . S
Co14 O15 2.216 . S
Co14 O16 2.091 . S
Co14 O18 2.004 . S
Co14 O24 2.021 . S
Co14 O26 2.137 . S
Co14 O27 2.244 . S
O15 Co14 2.216 . S
O15 C22 1.247 . S
O16 Co14 2.091 . S
O16 C22 1.261 . S
C17 O26 1.247 . S
C17 O27 1.272 . S
O18 Co14 2.004 . S
O18 C23 1.259 . S
Co19 O20 2.061 . S
Co19 O25 2.052 . S
Co19 O27 2.135 . S
O20 Co19 2.061 . S
O20 C23 1.235 . S
C21 O24 1.238 . S
C21 O25 1.241 . S
C22 O15 1.247 . S
C22 O16 1.261 . S
C23 O18 1.259 . S
C23 O20 1.235 . S
O24 Co14 2.021 . S
O24 C21 1.238 . S
O25 Co19 2.052 . S
O25 C21 1.241 . S
O26 Co14 2.137 . S
O26 C17 1.247 . S
O27 Co14 2.244 . S
O27 C17 1.272 . S
O27 Co19 2.135 . S
Co28 O29 2.216 . S
Co28 O30 2.091 . S
Co28 O32 2.004 . S
Co28 O38 2.021 . S
Co28 O40 2.137 . S
Co28 O41 2.244 . S
O29 Co28 2.216 . S
O29 C36 1.247 . S
O30 Co28 2.091 . S
O30 C36 1.261 . S
C31 O40 1.247 . S
C31 O41 1.272 . S
O32 Co28 2.004 . S
O32 C37 1.259 . S
Co33 O34 2.061 . S
Co33 O39 2.052 . S
Co33 O41 2.135 . S
O34 Co33 2.061 . S
O34 C37 1.235 . S
C35 O38 1.238 . S
C35 O39 1.241 . S
C36 O29 1.247 . S
C36 O30 1.261 . S
C37 O32 1.259 . S
C37 O34 1.235 . S
O38 Co28 2.021 . S
O38 C35 1.238 . S
O39 Co33 2.052 . S
O39 C35 1.241 . S
O40 Co28 2.137 . S
O40 C31 1.247 . S
O41 Co28 2.244 . S
O41 C31 1.272 . S
O41 Co33 2.135 . S
Co42 O43 2.216 . S
Co42 O44 2.091 . S
Co42 O46 2.004 . S
Co42 O52 2.021 . S
Co42 O54 2.137 . S
Co42 O55 2.244 . S
O43 Co42 2.216 . S
O43 C50 1.247 . S
O44 Co42 2.091 . S
O44 C50 1.261 . S
C45 O54 1.247 . S
C45 O55 1.272 . S
O46 Co42 2.004 . S
O46 C51 1.259 . S
Co47 O48 2.061 . S
Co47 O53 2.052 . S
Co47 O55 2.135 . S
O48 Co47 2.061 . S
O48 C51 1.235 . S
C49 O52 1.238 . S
C49 O53 1.241 . S
C50 O43 1.247 . S
C50 O44 1.261 . S
C51 O46 1.259 . S
C51 O48 1.235 . S
O52 Co42 2.021 . S
O52 C49 1.238 . S
O53 Co47 2.052 . S
O53 C49 1.241 . S
O54 Co42 2.137 . S
O54 C45 1.247 . S
O55 Co42 2.244 . S
O55 C45 1.272 . S
O55 Co47 2.135 . S
Co56 O57 2.216 . S
Co56 O58 2.091 . S
Co56 O60 2.004 . S
Co56 O66 2.021 . S
Co56 O68 2.137 . S
Co56 O69 2.244 . S
O57 Co56 2.216 . S
O57 C64 1.247 . S
O58 Co56 2.091 . S
O58 C64 1.261 . S
C59 O68 1.247 . S
C59 O69 1.272 . S
O60 Co56 2.004 . S
O60 C65 1.259 . S
Co61 O62 2.061 . S
Co61 O67 2.052 . S
Co61 O69 2.135 . S
O62 Co61 2.061 . S
O62 C65 1.235 . S
C63 O66 1.238 . S
C63 O67 1.241 . S
C64 O57 1.247 . S
C64 O58 1.261 . S
C65 O60 1.259 . S
C65 O62 1.235 . S
O66 Co56 2.021 . S
O66 C63 1.238 . S
O67 Co61 2.052 . S
O67 C63 1.241 . S
O68 Co56 2.137 . S
O68 C59 1.247 . S
O69 Co56 2.244 . S
O69 C59 1.272 . S
O69 Co61 2.135 . S
Co70 O71 2.216 . S
Co70 O72 2.091 . S
Co70 O74 2.004 . S
Co70 O80 2.021 . S
Co70 O82 2.137 . S
Co70 O83 2.244 . S
O71 Co70 2.216 . S
O71 C78 1.247 . S
O72 Co70 2.091 . S
O72 C78 1.261 . S
C73 O82 1.247 . S
C73 O83 1.272 . S
O74 Co70 2.004 . S
O74 C79 1.259 . S
Co75 O76 2.061 . S
Co75 O81 2.052 . S
Co75 O83 2.135 . S
O76 Co75 2.061 . S
O76 C79 1.235 . S
C77 O80 1.238 . S
C77 O81 1.241 . S
C78 O71 1.247 . S
C78 O72 1.261 . S
C79 O74 1.259 . S
C79 O76 1.235 . S
O80 Co70 2.021 . S
O80 C77 1.238 . S
O81 Co75 2.052 . S
O81 C77 1.241 . S
O82 Co70 2.137 . S
O82 C73 1.247 . S
O83 Co70 2.244 . S
O83 C73 1.272 . S
O83 Co75 2.135 . S
Co84 O85 2.216 . S
Co84 O86 2.091 . S
Co84 O88 2.004 . S
Co84 O94 2.021 . S
Co84 O96 2.137 . S
Co84 O97 2.244 . S
O85 Co84 2.216 . S
O85 C92 1.247 . S
O86 Co84 2.091 . S
O86 C92 1.261 . S
C87 O96 1.247 . S
C87 O97 1.272 . S
O88 Co84 2.004 . S
O88 C93 1.259 . S
Co89 O90 2.061 . S
Co89 O95 2.052 . S
Co89 O97 2.135 . S
O90 Co89 2.061 . S
O90 C93 1.235 . S
C91 O94 1.238 . S
C91 O95 1.241 . S
C92 O85 1.247 . S
C92 O86 1.261 . S
C93 O88 1.259 . S
C93 O90 1.235 . S
O94 Co84 2.021 . S
O94 C91 1.238 . S
O95 Co89 2.052 . S
O95 C91 1.241 . S
O96 Co84 2.137 . S
O96 C87 1.247 . S
O97 Co84 2.244 . S
O97 C87 1.272 . S
O97 Co89 2.135 . S
Co98 O99 2.216 . S
Co98 O100 2.091 . S
Co98 O102 2.004 . S
Co98 O108 2.021 . S
Co98 O110 2.137 . S
Co98 O111 2.244 . S
O99 Co98 2.216 . S
O99 C106 1.247 . S
O100 Co98 2.091 . S
O100 C106 1.261 . S
C101 O110 1.247 . S
C101 O111 1.272 . S
O102 Co98 2.004 . S
O102 C107 1.259 . S
Co103 O104 2.061 . S
Co103 O109 2.052 . S
Co103 O111 2.135 . S
O104 Co103 2.061 . S
O104 C107 1.235 . S
C105 O108 1.238 . S
C105 O109 1.241 . S
C106 O99 1.247 . S
C106 O100 1.261 . S
C107 O102 1.259 . S
C107 O104 1.235 . S
O108 Co98 2.021 . S
O108 C105 1.238 . S
O109 Co103 2.052 . S
O109 C105 1.241 . S
O110 Co98 2.137 . S
O110 C101 1.247 . S
O111 Co98 2.244 . S
O111 C101 1.272 . S
O111 Co103 2.135 . S
C112 C113 1.386 . S
C112 C114 1.383 . S
C112 H128 0.951 . S
C113 C112 1.386 . S
C113 C117 1.383 . S
C114 C112 1.383 . S
C114 C115 1.402 . S
C114 H129 0.951 . S
C115 C114 1.402 . S
C115 C116 1.375 . S
C115 C118 1.481 . S
C116 C115 1.375 . S
C116 C117 1.367 . S
C116 H130 0.951 . S
C117 C113 1.383 . S
C117 C116 1.367 . S
C117 H131 0.950 . S
C118 C115 1.481 . S
C118 C119 1.297 1_554 S
C118 H132 0.950 1_554 S
C119 C118 1.297 1_556 S
C119 C120 1.479 . S
C119 H133 0.950 1_556 S
C120 C119 1.479 . S
C120 C121 1.375 . S
C120 C126 1.404 . S
C121 C120 1.375 . S
C121 C122 1.369 . S
C121 H134 0.950 . S
C122 C121 1.369 . S
C122 C123 1.392 . S
C122 H135 0.951 . S
C123 C122 1.392 . S
C123 C125 1.384 . S
H124 C126 0.949 . S
C125 C123 1.384 . S
C125 C126 1.385 . S
C125 H127 0.950 . S
C126 C120 1.404 . S
C126 H124 0.949 . S
C126 C125 1.385 . S
H127 C125 0.950 . S
H128 C112 0.951 . S
H129 C114 0.951 . S
H130 C116 0.951 . S
H131 C117 0.950 . S
H132 C118 0.950 1_556 S
H133 C119 0.950 1_554 S
H134 C121 0.950 . S
H135 C122 0.951 . S
C136 C137 1.386 . S
C136 C138 1.383 . S
C136 H152 0.951 . S
C137 C136 1.386 . S
C137 C141 1.383 . S
C138 C136 1.383 . S
C138 C139 1.402 . S
C138 H153 0.951 . S
C139 C138 1.402 . S
C139 C140 1.375 . S
C139 C142 1.481 . S
C140 C139 1.375 . S
C140 C141 1.367 . S
C140 H154 0.951 . S
C141 C137 1.383 . S
C141 C140 1.367 . S
C141 H155 0.950 . S
C142 C139 1.481 . S
C142 C143 1.297 . S
C142 H156 0.950 . S
C143 C142 1.297 . S
C143 C144 1.479 . S
C143 H157 0.950 . S
C144 C143 1.479 . S
C144 C145 1.375 . S
C144 C150 1.404 . S
C145 C144 1.375 . S
C145 C146 1.369 . S
C145 H158 0.950 . S
C146 C145 1.369 . S
C146 C147 1.392 . S
C146 H159 0.951 . S
C147 C146 1.392 . S
C147 C149 1.384 . S
H148 C150 0.949 . S
C149 C147 1.384 . S
C149 C150 1.385 . S
C149 H151 0.950 . S
C150 C144 1.404 . S
C150 H148 0.949 . S
C150 C149 1.385 . S
H151 C149 0.950 . S
H152 C136 0.951 . S
H153 C138 0.951 . S
H154 C140 0.951 . S
H155 C141 0.950 . S
H156 C142 0.950 . S
H157 C143 0.950 . S
H158 C145 0.950 . S
H159 C146 0.951 . S
C160 C161 1.386 . S
C160 C162 1.383 . S
C160 H176 0.951 . S
C161 C160 1.386 . S
C161 C165 1.383 . S
C162 C160 1.383 . S
C162 C163 1.402 . S
C162 H177 0.951 . S
C163 C162 1.402 . S
C163 C164 1.375 . S
C163 C166 1.481 . S
C164 C163 1.375 . S
C164 C165 1.367 . S
C164 H178 0.951 . S
C165 C161 1.383 . S
C165 C164 1.367 . S
C165 H179 0.950 . S
C166 C163 1.481 . S
C166 C167 1.297 . S
C166 H180 0.950 . S
C167 C166 1.297 . S
C167 C168 1.479 . S
C167 H181 0.950 . S
C168 C167 1.479 . S
C168 C169 1.375 . S
C168 C174 1.404 . S
C169 C168 1.375 . S
C169 C170 1.369 . S
C169 H182 0.950 . S
C170 C169 1.369 . S
C170 C171 1.392 . S
C170 H183 0.951 . S
C171 C170 1.392 . S
C171 C173 1.384 . S
H172 C174 0.949 . S
C173 C171 1.384 . S
C173 C174 1.385 . S
C173 H175 0.950 . S
C174 C168 1.404 . S
C174 H172 0.949 . S
C174 C173 1.385 . S
H175 C173 0.950 . S
H176 C160 0.951 . S
H177 C162 0.951 . S
H178 C164 0.951 . S
H179 C165 0.950 . S
H180 C166 0.950 . S
H181 C167 0.950 . S
H182 C169 0.950 . S
H183 C170 0.951 . S
C184 C185 1.386 . S
C184 C186 1.383 . S
C184 H200 0.951 . S
C185 C184 1.386 . S
C185 C189 1.383 . S
C186 C184 1.383 . S
C186 C187 1.402 . S
C186 H201 0.951 . S
C187 C186 1.402 . S
C187 C188 1.375 . S
C187 C190 1.481 . S
C188 C187 1.375 . S
C188 C189 1.367 . S
C188 H202 0.951 . S
C189 C185 1.383 . S
C189 C188 1.367 . S
C189 H203 0.950 . S
C190 C187 1.481 . S
C190 C191 1.297 . S
C190 H204 0.950 . S
C191 C190 1.297 . S
C191 C192 1.479 . S
C191 H205 0.950 . S
C192 C191 1.479 . S
C192 C193 1.375 . S
C192 C198 1.404 . S
C193 C192 1.375 . S
C193 C194 1.369 . S
C193 H206 0.950 . S
C194 C193 1.369 . S
C194 C195 1.392 . S
C194 H207 0.951 . S
C195 C194 1.392 . S
C195 C197 1.384 . S
H196 C198 0.949 . S
C197 C195 1.384 . S
C197 C198 1.385 . S
C197 H199 0.950 . S
C198 C192 1.404 . S
C198 H196 0.949 . S
C198 C197 1.385 . S
H199 C197 0.950 . S
H200 C184 0.951 . S
H201 C186 0.951 . S
H202 C188 0.951 . S
H203 C189 0.950 . S
H204 C190 0.950 . S
H205 C191 0.950 . S
H206 C193 0.950 . S
H207 C194 0.951 . S
C208 C209 1.386 . S
C208 C210 1.383 . S
C208 H224 0.951 . S
C209 C208 1.386 . S
C209 C213 1.383 . S
C210 C208 1.383 . S
C210 C211 1.402 . S
C210 H225 0.951 . S
C211 C210 1.402 . S
C211 C212 1.375 . S
C211 C214 1.481 . S
C212 C211 1.375 . S
C212 C213 1.367 . S
C212 H226 0.951 . S
C213 C209 1.383 . S
C213 C212 1.367 . S
C213 H227 0.950 . S
C214 C211 1.481 . S
C214 C215 1.297 . S
C214 H228 0.950 . S
C215 C214 1.297 . S
C215 C216 1.479 . S
C215 H229 0.950 . S
C216 C215 1.479 . S
C216 C217 1.375 . S
C216 C222 1.404 . S
C217 C216 1.375 . S
C217 C218 1.369 . S
C217 H230 0.950 . S
C218 C217 1.369 . S
C218 C219 1.392 . S
C218 H231 0.951 . S
C219 C218 1.392 . S
C219 C221 1.384 . S
H220 C222 0.949 . S
C221 C219 1.384 . S
C221 C222 1.385 . S
C221 H223 0.950 . S
C222 C216 1.404 . S
C222 H220 0.949 . S
C222 C221 1.385 . S
H223 C221 0.950 . S
H224 C208 0.951 . S
H225 C210 0.951 . S
H226 C212 0.951 . S
H227 C213 0.950 . S
H228 C214 0.950 . S
H229 C215 0.950 . S
H230 C217 0.950 . S
H231 C218 0.951 . S
C232 C233 1.386 . S
C232 C234 1.383 . S
C232 H248 0.951 . S
C233 C232 1.386 . S
C233 C237 1.383 . S
C234 C232 1.383 . S
C234 C235 1.402 . S
C234 H249 0.951 . S
C235 C234 1.402 . S
C235 C236 1.375 . S
C235 C238 1.481 . S
C236 C235 1.375 . S
C236 C237 1.367 . S
C236 H250 0.951 . S
C237 C233 1.383 . S
C237 C236 1.367 . S
C237 H251 0.950 . S
C238 C235 1.481 . S
C238 C239 1.297 . S
C238 H252 0.950 . S
C239 C238 1.297 . S
C239 C240 1.479 . S
C239 H253 0.950 . S
C240 C239 1.479 . S
C240 C241 1.375 . S
C240 C246 1.404 . S
C241 C240 1.375 . S
C241 C242 1.369 . S
C241 H254 0.950 . S
C242 C241 1.369 . S
C242 C243 1.392 . S
C242 H255 0.951 . S
C243 C242 1.392 . S
C243 C245 1.384 . S
H244 C246 0.949 . S
C245 C243 1.384 . S
C245 C246 1.385 . S
C245 H247 0.950 . S
C246 C240 1.404 . S
C246 H244 0.949 . S
C246 C245 1.385 . S
H247 C245 0.950 . S
H248 C232 0.951 . S
H249 C234 0.951 . S
H250 C236 0.951 . S
H251 C237 0.950 . S
H252 C238 0.950 . S
H253 C239 0.950 . S
H254 C241 0.950 . S
H255 C242 0.951 . S
C256 C257 1.386 . S
C256 C258 1.383 . S
C256 H272 0.951 . S
C257 C256 1.386 . S
C257 C261 1.383 . S
C258 C256 1.383 . S
C258 C259 1.402 . S
C258 H273 0.951 . S
C259 C258 1.402 . S
C259 C260 1.375 . S
C259 C262 1.481 . S
C260 C259 1.375 . S
C260 C261 1.367 . S
C260 H274 0.951 . S
C261 C257 1.383 . S
C261 C260 1.367 . S
C261 H275 0.950 . S
C262 C259 1.481 . S
C262 C263 1.297 . S
C262 H276 0.950 . S
C263 C262 1.297 . S
C263 C264 1.479 . S
C263 H277 0.950 . S
C264 C263 1.479 . S
C264 C265 1.375 . S
C264 C270 1.404 . S
C265 C264 1.375 . S
C265 C266 1.369 . S
C265 H278 0.950 . S
C266 C265 1.369 . S
C266 C267 1.392 . S
C266 H279 0.951 . S
C267 C266 1.392 . S
C267 C269 1.384 . S
H268 C270 0.949 . S
C269 C267 1.384 . S
C269 C270 1.385 . S
C269 H271 0.950 . S
C270 C264 1.404 . S
C270 H268 0.949 . S
C270 C269 1.385 . S
H271 C269 0.950 . S
H272 C256 0.951 . S
H273 C258 0.951 . S
H274 C260 0.951 . S
H275 C261 0.950 . S
H276 C262 0.950 . S
H277 C263 0.950 . S
H278 C265 0.950 . S
H279 C266 0.951 . S
C280 C281 1.386 . S
C280 C282 1.383 . S
C280 H296 0.951 . S
C281 C280 1.386 . S
C281 C285 1.383 . S
C282 C280 1.383 . S
C282 C283 1.402 . S
C282 H297 0.951 . S
C283 C282 1.402 . S
C283 C284 1.375 . S
C283 C286 1.481 . S
C284 C283 1.375 . S
C284 C285 1.367 . S
C284 H298 0.951 . S
C285 C281 1.383 . S
C285 C284 1.367 . S
C285 H299 0.950 . S
C286 C283 1.481 . S
C286 C287 1.297 1_554 S
C286 H300 0.972 . S
C287 C286 1.297 1_556 S
C287 C288 1.479 . S
C287 H301 0.950 1_556 S
C288 C287 1.479 . S
C288 C289 1.375 . S
C288 C294 1.404 . S
C289 C288 1.375 . S
C289 C290 1.369 . S
C289 H302 0.950 . S
C290 C289 1.369 . S
C290 C291 1.392 . S
C290 H303 0.951 . S
C291 C290 1.392 . S
C291 C293 1.384 . S
H292 C294 0.949 . S
C293 C291 1.384 . S
C293 C294 1.385 . S
C293 H295 0.950 . S
C294 C288 1.404 . S
C294 H292 0.949 . S
C294 C293 1.385 . S
H295 C293 0.950 . S
H296 C280 0.951 . S
H297 C282 0.951 . S
H298 C284 0.951 . S
H299 C285 0.950 . S
H300 C286 0.972 . S
H301 C287 0.950 1_554 S
H302 C289 0.950 . S
H303 C290 0.951 . S
C304 C305 1.386 . S
C304 C306 1.383 . S
C304 H320 0.951 . S
C305 C304 1.386 . S
C305 C309 1.383 . S
C306 C304 1.383 . S
C306 C307 1.402 . S
C306 H321 0.951 1_455 S
C307 C306 1.402 . S
C307 C308 1.375 . S
C307 C310 1.481 . S
C308 C307 1.375 . S
C308 C309 1.367 . S
C308 H322 0.951 . S
C309 C305 1.383 . S
C309 C308 1.367 . S
C309 H323 0.950 . S
C310 C307 1.481 . S
C310 C311 1.297 1_445 S
C310 H324 0.950 1_545 S
C311 C310 1.297 1_665 S
C311 C312 1.479 . S
C311 H325 0.950 1_565 S
C312 C311 1.479 . S
C312 C313 1.375 . S
C312 C318 1.404 . S
C313 C312 1.375 . S
C313 C314 1.369 . S
C313 H326 0.950 . S
C314 C313 1.369 . S
C314 C315 1.392 . S
C314 H327 0.951 . S
C315 C314 1.392 . S
C315 C317 1.384 . S
H316 C318 0.949 . S
C317 C315 1.384 . S
C317 C318 1.385 . S
C317 H319 0.950 . S
C318 C312 1.404 . S
C318 H316 0.949 . S
C318 C317 1.385 . S
H319 C317 0.950 . S
H320 C304 0.951 . S
H321 C306 0.951 1_655 S
H322 C308 0.951 . S
H323 C309 0.950 . S
H324 C310 0.950 1_565 S
H325 C311 0.950 1_545 S
H326 C313 0.950 . S
H327 C314 0.951 . S
C328 C329 1.386 . S
C328 C330 1.383 . S
C328 H344 0.951 . S
C329 C328 1.386 . S
C329 C333 1.383 . S
C330 C328 1.383 . S
C330 C331 1.402 . S
C330 H345 0.951 . S
C331 C330 1.402 . S
C331 C332 1.375 . S
C331 C334 1.481 . S
C332 C331 1.375 . S
C332 C333 1.367 . S
C332 H346 0.951 . S
C333 C329 1.383 . S
C333 C332 1.367 . S
C333 H347 0.950 . S
C334 C331 1.481 . S
C334 C335 1.295 1_455 S
C334 H348 0.950 1_455 S
C335 C334 1.295 1_655 S
C335 C336 1.489 . S
C335 H349 0.942 1_655 S
C336 C335 1.489 . S
C336 C337 1.375 . S
C336 C342 1.404 . S
C337 C336 1.375 . S
C337 C338 1.369 . S
C337 H350 0.950 . S
C338 C337 1.369 . S
C338 C339 1.392 . S
C338 H351 0.951 . S
C339 C338 1.392 . S
C339 C341 1.384 . S
H340 C342 0.949 . S
C341 C339 1.384 . S
C341 C342 1.385 . S
C341 H343 0.950 . S
C342 C336 1.404 . S
C342 H340 0.949 . S
C342 C341 1.385 . S
H343 C341 0.950 . S
H344 C328 0.951 . S
H345 C330 0.951 . S
H346 C332 0.951 . S
H347 C333 0.950 . S
H348 C334 0.950 1_655 S
H349 C335 0.942 1_455 S
H350 C337 0.950 . S
H351 C338 0.951 . S
C352 C353 1.386 . S
C352 C354 1.383 . S
C352 H368 0.951 . S
C353 C352 1.386 . S
C353 C357 1.383 . S
C354 C352 1.383 . S
C354 C355 1.402 . S
C354 H369 0.951 . S
C355 C354 1.402 . S
C355 C356 1.375 . S
C355 C358 1.481 . S
C356 C355 1.375 . S
C356 C357 1.367 . S
C356 H370 0.951 . S
C357 C353 1.383 . S
C357 C356 1.367 . S
C357 H371 0.950 . S
C358 C355 1.481 . S
C358 C359 1.297 . S
C358 H372 0.950 . S
C359 C358 1.297 . S
C359 C360 1.479 . S
C359 H373 0.950 . S
C360 C359 1.479 . S
C360 C361 1.375 . S
C360 C366 1.404 . S
C361 C360 1.375 . S
C361 C362 1.369 . S
C361 H374 0.950 . S
C362 C361 1.369 . S
C362 C363 1.392 . S
C362 H375 0.951 . S
C363 C362 1.392 . S
C363 C365 1.384 . S
H364 C366 0.949 . S
C365 C363 1.384 . S
C365 C366 1.385 . S
C365 H367 0.950 . S
C366 C360 1.404 . S
C366 H364 0.949 . S
C366 C365 1.385 . S
H367 C365 0.950 . S
H368 C352 0.951 . S
H369 C354 0.951 . S
H370 C356 0.951 . S
H371 C357 0.950 . S
H372 C358 0.950 . S
H373 C359 0.950 . S
H374 C361 0.950 . S
H375 C362 0.951 . S
C376 C377 1.386 . S
C376 C378 1.383 . S
C376 H392 0.951 . S
C377 C376 1.386 . S
C377 C381 1.383 . S
C378 C376 1.383 . S
C378 C379 1.402 . S
C378 H393 0.951 . S
C379 C378 1.402 . S
C379 C380 1.375 . S
C379 C382 1.481 . S
C380 C379 1.375 . S
C380 C381 1.367 . S
C380 H394 0.951 . S
C381 C377 1.383 . S
C381 C380 1.367 . S
C381 H395 0.950 . S
C382 C379 1.481 . S
C382 C383 1.297 . S
C382 H396 0.950 1_565 S
C383 C382 1.297 . S
C383 C384 1.479 1_565 S
C383 H397 0.950 . S
C384 C383 1.479 1_545 S
C384 C385 1.375 . S
C384 C390 1.404 . S
C385 C384 1.375 . S
C385 C386 1.369 . S
C385 H398 0.950 . S
C386 C385 1.369 . S
C386 C387 1.392 . S
C386 H399 0.951 . S
C387 C386 1.392 . S
C387 C389 1.384 . S
H388 C390 0.949 . S
C389 C387 1.384 . S
C389 C390 1.385 . S
C389 H391 0.950 . S
C390 C384 1.404 . S
C390 H388 0.949 . S
C390 C389 1.385 . S
H391 C389 0.950 . S
H392 C376 0.951 . S
H393 C378 0.951 . S
H394 C380 0.951 . S
H395 C381 0.950 . S
H396 C382 0.950 1_545 S
H397 C383 0.950 . S
H398 C385 0.950 . S
H399 C386 0.951 . S
C400 C401 1.386 . S
C400 C402 1.383 . S
C400 H416 0.951 . S
C401 C400 1.386 . S
C401 C405 1.383 . S
C402 C400 1.383 . S
C402 C403 1.402 . S
C402 H417 0.951 . S
C403 C402 1.402 . S
C403 C404 1.375 . S
C403 C406 1.481 . S
C404 C403 1.375 . S
C404 C405 1.367 . S
C404 H418 0.951 . S
C405 C401 1.383 . S
C405 C404 1.367 . S
C405 H419 0.950 . S
C406 C403 1.481 . S
C406 C407 1.297 . S
C406 H420 0.950 . S
C407 C406 1.297 . S
C407 C408 1.479 1_655 S
C407 H421 0.950 . S
C408 C407 1.479 1_455 S
C408 C409 1.375 . S
C408 C414 1.404 . S
C409 C408 1.375 . S
C409 C410 1.369 . S
C409 H422 0.950 . S
C410 C409 1.369 . S
C410 C411 1.392 . S
C410 H423 0.951 . S
C411 C410 1.392 . S
C411 C413 1.384 . S
H412 C414 0.949 . S
C413 C411 1.384 . S
C413 C414 1.385 . S
C413 H415 0.950 . S
C414 C408 1.404 . S
C414 H412 0.949 . S
C414 C413 1.385 . S
H415 C413 0.950 . S
H416 C400 0.951 . S
H417 C402 0.951 . S
H418 C404 0.951 . S
H419 C405 0.950 . S
H420 C406 0.950 . S
H421 C407 0.950 . S
H422 C409 0.950 . S
H423 C410 0.951 . S
C424 C425 1.386 . S
C424 C426 1.383 . S
C424 H440 0.951 . S
C425 C424 1.386 . S
C425 C429 1.383 . S
C426 C424 1.383 . S
C426 C427 1.402 . S
C426 H441 0.951 . S
C427 C426 1.402 . S
C427 C428 1.375 . S
C427 C430 1.481 . S
C428 C427 1.375 . S
C428 C429 1.367 . S
C428 H442 0.951 . S
C429 C425 1.383 . S
C429 C428 1.367 . S
C429 H443 0.950 . S
C430 C427 1.481 . S
C430 C431 1.297 . S
C430 H444 0.950 . S
C431 C430 1.297 . S
C431 C432 1.479 . S
C431 H445 0.950 . S
C432 C431 1.479 . S
C432 C433 1.375 . S
C432 C438 1.404 . S
C433 C432 1.375 . S
C433 C434 1.369 . S
C433 H446 0.950 . S
C434 C433 1.369 . S
C434 C435 1.392 . S
C434 H447 0.951 . S
C435 C434 1.392 . S
C435 C437 1.384 . S
H436 C438 0.949 . S
C437 C435 1.384 . S
C437 C438 1.385 . S
C437 H439 0.950 . S
C438 C432 1.404 . S
C438 H436 0.949 . S
C438 C437 1.385 . S
H439 C437 0.950 . S
H440 C424 0.951 . S
H441 C426 0.951 . S
H442 C428 0.951 . S
H443 C429 0.950 . S
H444 C430 0.950 . S
H445 C431 0.950 . S
H446 C433 0.950 . S
H447 C434 0.951 . S
C448 C449 1.386 . S
C448 C450 1.383 . S
C448 H464 0.951 . S
C449 C448 1.386 . S
C449 C453 1.383 . S
C450 C448 1.383 . S
C450 C451 1.402 . S
C450 H465 0.951 . S
C451 C450 1.402 . S
C451 C452 1.375 . S
C451 C454 1.481 1_545 S
C452 C451 1.375 . S
C452 C453 1.367 . S
C452 H466 0.951 . S
C453 C449 1.383 . S
C453 C452 1.367 . S
C453 H467 0.950 . S
C454 C451 1.481 1_565 S
C454 C455 1.297 . S
C454 H468 0.950 . S
C455 C454 1.297 . S
C455 C456 1.479 . S
C455 H469 0.950 . S
C456 C455 1.479 . S
C456 C457 1.375 . S
C456 C462 1.404 . S
C457 C456 1.375 . S
C457 C458 1.369 . S
C457 H470 0.950 . S
C458 C457 1.369 . S
C458 C459 1.392 . S
C458 H471 0.951 . S
C459 C458 1.392 . S
C459 C461 1.384 . S
H460 C462 0.949 . S
C461 C459 1.384 . S
C461 C462 1.385 . S
C461 H463 0.950 . S
C462 C456 1.404 . S
C462 H460 0.949 . S
C462 C461 1.385 . S
H463 C461 0.950 . S
H464 C448 0.951 . S
H465 C450 0.951 . S
H466 C452 0.951 . S
H467 C453 0.950 . S
H468 C454 0.950 . S
H469 C455 0.950 . S
H470 C457 0.950 . S
H471 C458 0.951 . S
C472 C473 1.386 . S
C472 C474 1.383 . S
C472 H488 0.951 . S
C473 C472 1.386 . S
C473 C477 1.383 . S
C474 C472 1.383 . S
C474 C475 1.402 . S
C474 H489 0.951 1_565 S
C475 C474 1.402 . S
C475 C476 1.375 . S
C475 C478 1.481 . S
C476 C475 1.375 . S
C476 C477 1.367 . S
C476 H490 0.951 . S
C477 C473 1.383 . S
C477 C476 1.367 . S
C477 H491 0.950 . S
C478 C475 1.481 . S
C478 C479 1.297 1_665 S
C478 H492 0.950 1_655 S
C479 C478 1.297 1_445 S
C479 C480 1.479 . S
C479 H493 0.950 1_455 S
C480 C479 1.479 . S
C480 C481 1.375 . S
C480 C486 1.404 . S
C481 C480 1.375 . S
C481 C482 1.369 . S
C481 H494 0.950 . S
C482 C481 1.369 . S
C482 C483 1.392 . S
C482 H495 0.951 . S
C483 C482 1.392 . S
C483 C485 1.384 . S
H484 C486 0.949 1_565 S
C485 C483 1.384 . S
C485 C486 1.385 . S
C485 H487 0.950 . S
C486 C480 1.404 . S
C486 H484 0.949 1_545 S
C486 C485 1.385 . S
H487 C485 0.950 . S
H488 C472 0.951 . S
H489 C474 0.951 1_545 S
H490 C476 0.951 . S
H491 C477 0.950 . S
H492 C478 0.950 1_455 S
H493 C479 0.950 1_655 S
H494 C481 0.950 . S
H495 C482 0.951 . S
C113 C3 1.131 . S
C123 C73 1.102 . S
C137 C21 1.174 . S
C147 C91 1.154 . S
C161 C31 1.167 . S
C171 C101 1.186 . S
C185 C49 1.162 . S
C195 C63 1.175 . S
C209 C105 1.179 . S
C219 C7 1.162 . S
C233 C59 1.166 . S
C243 C17 1.150 . S
C257 C35 1.189 . S
C267 C77 1.136 . S
C281 C87 1.139 . S
C291 C45 1.108 . S
C305 C9 1.571 . S
C315 C93 1.555 . S
C329 C106 1.581 . S
C339 C22 1.583 . S
C353 C37 1.587 . S
C363 C65 1.582 . S
C377 C50 1.585 . S
C387 C78 1.553 . S
C401 C92 1.589 . S
C411 C8 1.552 . S
C425 C107 1.583 . S
C435 C23 1.570 . S
C449 C36 1.591 . S
C459 C64 1.555 . S
C473 C51 1.569 . S
C483 C79 1.556 . S
