# Generated by pormake.
# Topology lcy-a, (4)-cn, num edge types: 1
# Building blocks:
#     Node 0, Type 0, BuildingBlock: CEKHIL_clean_sbu_0, # of connection points: 4
#     Node 1, Type 0, BuildingBlock: CEKHIL_clean_sbu_0, # of connection points: 4
#     Node 2, Type 0, BuildingBlock: CEKHIL_clean_sbu_0, # of connection points: 4
#     Node 3, Type 0, BuildingBlock: CEKHIL_clean_sbu_0, # of connection points: 4
#     Node 4, Type 0, BuildingBlock: CEKHIL_clean_sbu_0, # of connection points: 4
#     Node 5, Type 0, BuildingBlock: CEKHIL_clean_sbu_0, # of connection points: 4
#     Node 6, Type 0, BuildingBlock: CEKHIL_clean_sbu_0, # of connection points: 4
#     Node 7, Type 0, BuildingBlock: CEKHIL_clean_sbu_0, # of connection points: 4
#     Node 8, Type 0, BuildingBlock: CEKHIL_clean_sbu_0, # of connection points: 4
#     Node 9, Type 0, BuildingBlock: CEKHIL_clean_sbu_0, # of connection points: 4
#     Node 10, Type 0, BuildingBlock: CEKHIL_clean_sbu_0, # of connection points: 4
#     Node 11, Type 0, BuildingBlock: CEKHIL_clean_sbu_0, # of connection points: 4
#     Node 12, Type 0, BuildingBlock: CEKHIL_clean_sbu_0, # of connection points: 4
#     Node 13, Type 0, BuildingBlock: CEKHIL_clean_sbu_0, # of connection points: 4
#     Node 14, Type 0, BuildingBlock: CEKHIL_clean_sbu_0, # of connection points: 4
#     Node 15, Type 0, BuildingBlock: CEKHIL_clean_sbu_0, # of connection points: 4
#     Node 16, Type 0, BuildingBlock: CEKHIL_clean_sbu_0, # of connection points: 4
#     Node 17, Type 0, BuildingBlock: CEKHIL_clean_sbu_0, # of connection points: 4
#     Node 18, Type 0, BuildingBlock: CEKHIL_clean_sbu_0, # of connection points: 4
#     Node 19, Type 0, BuildingBlock: CEKHIL_clean_sbu_0, # of connection points: 4
#     Node 20, Type 0, BuildingBlock: CEKHIL_clean_sbu_0, # of connection points: 4
#     Node 21, Type 0, BuildingBlock: CEKHIL_clean_sbu_0, # of connection points: 4
#     Node 22, Type 0, BuildingBlock: CEKHIL_clean_sbu_0, # of connection points: 4
#     Node 23, Type 0, BuildingBlock: CEKHIL_clean_sbu_0, # of connection points: 4
#     Edge 24, Type (0, 0), BuildingBlock: XUDNAN_clean_linker_2, # of connection points: 2
#     Edge 25, Type (0, 0), BuildingBlock: XUDNAN_clean_linker_2, # of connection points: 2
#     Edge 26, Type (0, 0), BuildingBlock: XUDNAN_clean_linker_2, # of connection points: 2
#     Edge 27, Type (0, 0), BuildingBlock: XUDNAN_clean_linker_2, # of connection points: 2
#     Edge 28, Type (0, 0), BuildingBlock: XUDNAN_clean_linker_2, # of connection points: 2
#     Edge 29, Type (0, 0), BuildingBlock: XUDNAN_clean_linker_2, # of connection points: 2
#     Edge 30, Type (0, 0), BuildingBlock: XUDNAN_clean_linker_2, # of connection points: 2
#     Edge 31, Type (0, 0), BuildingBlock: XUDNAN_clean_linker_2, # of connection points: 2
#     Edge 32, Type (0, 0), BuildingBlock: XUDNAN_clean_linker_2, # of connection points: 2
#     Edge 33, Type (0, 0), BuildingBlock: XUDNAN_clean_linker_2, # of connection points: 2
#     Edge 34, Type (0, 0), BuildingBlock: XUDNAN_clean_linker_2, # of connection points: 2
#     Edge 35, Type (0, 0), BuildingBlock: XUDNAN_clean_linker_2, # of connection points: 2
#     Edge 36, Type (0, 0), BuildingBlock: XUDNAN_clean_linker_2, # of connection points: 2
#     Edge 37, Type (0, 0), BuildingBlock: XUDNAN_clean_linker_2, # of connection points: 2
#     Edge 38, Type (0, 0), BuildingBlock: XUDNAN_clean_linker_2, # of connection points: 2
#     Edge 39, Type (0, 0), BuildingBlock: XUDNAN_clean_linker_2, # of connection points: 2
#     Edge 40, Type (0, 0), BuildingBlock: XUDNAN_clean_linker_2, # of connection points: 2
#     Edge 41, Type (0, 0), BuildingBlock: XUDNAN_clean_linker_2, # of connection points: 2
#     Edge 42, Type (0, 0), BuildingBlock: XUDNAN_clean_linker_2, # of connection points: 2
#     Edge 43, Type (0, 0), BuildingBlock: XUDNAN_clean_linker_2, # of connection points: 2
#     Edge 44, Type (0, 0), BuildingBlock: XUDNAN_clean_linker_2, # of connection points: 2
#     Edge 45, Type (0, 0), BuildingBlock: XUDNAN_clean_linker_2, # of connection points: 2
#     Edge 46, Type (0, 0), BuildingBlock: XUDNAN_clean_linker_2, # of connection points: 2
#     Edge 47, Type (0, 0), BuildingBlock: XUDNAN_clean_linker_2, # of connection points: 2
#     Edge 48, Type (0, 0), BuildingBlock: XUDNAN_clean_linker_2, # of connection points: 2
#     Edge 49, Type (0, 0), BuildingBlock: XUDNAN_clean_linker_2, # of connection points: 2
#     Edge 50, Type (0, 0), BuildingBlock: XUDNAN_clean_linker_2, # of connection points: 2
#     Edge 51, Type (0, 0), BuildingBlock: XUDNAN_clean_linker_2, # of connection points: 2
#     Edge 52, Type (0, 0), BuildingBlock: XUDNAN_clean_linker_2, # of connection points: 2
#     Edge 53, Type (0, 0), BuildingBlock: XUDNAN_clean_linker_2, # of connection points: 2
#     Edge 54, Type (0, 0), BuildingBlock: XUDNAN_clean_linker_2, # of connection points: 2
#     Edge 55, Type (0, 0), BuildingBlock: XUDNAN_clean_linker_2, # of connection points: 2
#     Edge 56, Type (0, 0), BuildingBlock: XUDNAN_clean_linker_2, # of connection points: 2
#     Edge 57, Type (0, 0), BuildingBlock: XUDNAN_clean_linker_2, # of connection points: 2
#     Edge 58, Type (0, 0), BuildingBlock: XUDNAN_clean_linker_2, # of connection points: 2
#     Edge 59, Type (0, 0), BuildingBlock: XUDNAN_clean_linker_2, # of connection points: 2
#     Edge 60, Type (0, 0), BuildingBlock: XUDNAN_clean_linker_2, # of connection points: 2
#     Edge 61, Type (0, 0), BuildingBlock: XUDNAN_clean_linker_2, # of connection points: 2
#     Edge 62, Type (0, 0), BuildingBlock: XUDNAN_clean_linker_2, # of connection points: 2
#     Edge 63, Type (0, 0), BuildingBlock: XUDNAN_clean_linker_2, # of connection points: 2
#     Edge 64, Type (0, 0), BuildingBlock: XUDNAN_clean_linker_2, # of connection points: 2
#     Edge 65, Type (0, 0), BuildingBlock: XUDNAN_clean_linker_2, # of connection points: 2
#     Edge 66, Type (0, 0), BuildingBlock: XUDNAN_clean_linker_2, # of connection points: 2
#     Edge 67, Type (0, 0), BuildingBlock: XUDNAN_clean_linker_2, # of connection points: 2
#     Edge 68, Type (0, 0), BuildingBlock: XUDNAN_clean_linker_2, # of connection points: 2
#     Edge 69, Type (0, 0), BuildingBlock: XUDNAN_clean_linker_2, # of connection points: 2
#     Edge 70, Type (0, 0), BuildingBlock: XUDNAN_clean_linker_2, # of connection points: 2
#     Edge 71, Type (0, 0), BuildingBlock: XUDNAN_clean_linker_2, # of connection points: 2
# Relax obj value: 0.422
# Max RMSD: 0.179
# Mean RMSD: 0.179
data_MOF--net-lcy-a--node1-CEKHIL_clean_sbu_0--edge1-XUDNAN_clean_linker_2
_symmetry_space_group_name_H-M    P1
_symmetry_Int_Tables_number       1
_symmetry_cell_setting            triclinic
loop_
_symmetry_equiv_pos_as_xyz
'x, y, z'
_cell_length_a     55.858731
_cell_length_b     55.840472
_cell_length_c     55.906718
_cell_angle_alpha  89.824945
_cell_angle_beta   89.931473
_cell_angle_gamma 90.096783
loop_
_atom_site_label
_atom_site_type_symbol
_atom_site_fract_x
_atom_site_fract_y
_atom_site_fract_z
_atom_type_partial_charge
Co0 Co 0.20069 0.27068 0.40067 0.0
O1 O 0.18994 0.25409 0.42889 0.0
O2 O 0.16724 0.27651 0.40509 0.0
C3 C 0.22274 0.24108 0.38464 0.0
O4 O 0.20454 0.28957 0.36981 0.0
Co5 Co 0.25437 0.28113 0.3906 0.0
O6 O 0.24277 0.28764 0.35758 0.0
C7 C 0.22849 0.30903 0.42696 0.0
C8 C 0.16914 0.26344 0.42426 0.0
C9 C 0.22082 0.29251 0.35381 0.0
O10 O 0.20847 0.29967 0.4206 0.0
O11 O 0.2488 0.30298 0.41835 0.0
O12 O 0.19961 0.24112 0.38175 0.0
O13 O 0.23091 0.257 0.39914 0.0
Co14 Co 0.98558 0.97258 0.6613 0.0
O15 O 0.00139 0.96815 0.69158 0.0
O16 O 0.97805 0.94147 0.67356 0.0
C17 C 0.01656 0.9881 0.64053 0.0
O18 O 0.96708 0.96922 0.63039 0.0
Co19 Co 0.97796 0.02181 0.63697 0.0
O20 O 0.97072 0.00243 0.60809 0.0
C21 C 0.94643 0.00698 0.67687 0.0
C22 C 0.9914 0.94706 0.69169 0.0
C23 C 0.9648 0.98052 0.61053 0.0
O24 O 0.95689 0.98653 0.67814 0.0
O25 O 0.95266 0.02364 0.66236 0.0
O26 O 0.01487 0.96506 0.64368 0.0
O27 O 0.00117 0.00084 0.6521 0.0
Co28 Co 0.2742 0.73092 0.90181 0.0
O29 O 0.28365 0.73883 0.93372 0.0
O30 O 0.30505 0.71708 0.90827 0.0
C31 C 0.26221 0.76767 0.89082 0.0
O32 O 0.2708 0.71994 0.86728 0.0
Co33 Co 0.22178 0.73577 0.88472 0.0
O34 O 0.23626 0.73397 0.85228 0.0
C35 C 0.23545 0.69498 0.91547 0.0
C36 C 0.30311 0.72696 0.92922 0.0
C37 C 0.25683 0.72454 0.84956 0.0
O38 O 0.25753 0.7014 0.91417 0.0
O39 O 0.21831 0.70686 0.90596 0.0
O40 O 0.28479 0.76215 0.89009 0.0
O41 O 0.24829 0.7518 0.90042 0.0
Co42 Co 0.51338 0.01728 0.15992 0.0
O43 O 0.49344 0.01802 0.18799 0.0
O44 O 0.51568 0.04815 0.17438 0.0
C45 C 0.4866 -0.00043 0.13562 0.0
O46 O 0.53528 0.0243 0.13181 0.0
Co47 Co 0.52901 0.96956 0.13624 0.0
O48 O 0.54067 0.99088 0.11021 0.0
C49 C 0.55206 0.98551 0.18081 0.0
C50 C 0.50082 0.03999 0.19034 0.0
C51 C 0.54297 0.01336 0.11322 0.0
O52 O 0.54112 0.00567 0.17967 0.0
O53 O 0.54864 0.96824 0.16622 0.0
O54 O 0.48559 0.02254 0.13915 0.0
O55 O 0.50222 0.98805 0.14811 0.0
Co56 Co 0.70365 0.21934 0.59211 0.0
O57 O 0.6975 0.23319 0.56114 0.0
O58 O 0.67253 0.20972 0.58144 0.0
C59 C 0.7188 0.25265 0.60913 0.0
O60 O 0.70227 0.20259 0.6243 0.0
Co61 Co 0.75466 0.21597 0.61389 0.0
O62 O 0.73731 0.20666 0.64354 0.0
C63 C 0.74041 0.18371 0.57456 0.0
C64 C 0.67696 0.22224 0.56232 0.0
C65 C 0.71533 0.20064 0.64302 0.0
O66 O 0.71844 0.19036 0.57654 0.0
O67 O 0.75755 0.19336 0.58631 0.0
O68 O 0.69572 0.24968 0.60809 0.0
O69 O 0.73148 0.23662 0.5986 0.0
Co70 Co 0.02462 0.46034 0.84139 0.0
O71 O 0.01211 0.4588 0.8094 0.0
O72 O 0.02772 0.42825 0.82945 0.0
C73 C 0.99386 0.48114 0.85713 0.0
O74 O 0.03833 0.45433 0.87444 0.0
Co75 Co 0.03653 0.50896 0.86587 0.0
O76 O 0.03939 0.48884 0.89505 0.0
C77 C 0.06965 0.48867 0.82999 0.0
C78 C 0.01748 0.43618 0.81013 0.0
C79 C 0.0412 0.46614 0.89386 0.0
O80 O 0.05738 0.46918 0.82877 0.0
O81 O 0.06348 0.50694 0.84229 0.0
O82 O 0.99219 0.45806 0.85486 0.0
O83 O 0.01289 0.49085 0.84836 0.0
Co84 Co 0.77724 0.76018 0.09316 0.0
O85 O 0.78659 0.74455 0.06377 0.0
O86 O 0.80805 0.77146 0.08357 0.0
C87 C 0.76352 0.72722 0.11232 0.0
O88 O 0.77596 0.77943 0.12369 0.0
Co89 Co 0.72559 0.76181 0.11328 0.0
O90 O 0.74088 0.77473 0.14265 0.0
C91 C 0.73905 0.79246 0.07209 0.0
C92 C 0.80611 0.75724 0.06539 0.0
C93 C 0.76238 0.78224 0.14188 0.0
O94 O 0.76125 0.7867 0.07447 0.0
O95 O 0.72224 0.783 0.08453 0.0
O96 O 0.78635 0.73187 0.11209 0.0
O97 O 0.75028 0.74146 0.09995 0.0
Co98 Co 0.4831 0.5327 0.34024 0.0
O99 O 0.49388 0.54538 0.31037 0.0
O100 O 0.47199 0.56532 0.33691 0.0
C101 C 0.51783 0.51596 0.35167 0.0
O102 O 0.46903 0.52513 0.37297 0.0
Co103 Co 0.48305 0.47763 0.3487 0.0
O104 O 0.47761 0.4869 0.38266 0.0
C105 C 0.44681 0.49962 0.31731 0.0
C106 C 0.48256 0.56479 0.31616 0.0
C107 C 0.46984 0.50766 0.38801 0.0
O108 O 0.45331 0.52054 0.32424 0.0
O109 O 0.45779 0.48037 0.32322 0.0
O110 O 0.5142 0.53867 0.35525 0.0
O111 O 0.50175 0.5052 0.33912 0.0
Co112 Co 0.39968 0.20929 0.255 0.0
O113 O 0.42752 0.19361 0.2424 0.0
O114 O 0.39987 0.17667 0.26558 0.0
C115 C 0.38844 0.22823 0.22128 0.0
O116 O 0.3684 0.21828 0.2707 0.0
Co117 Co 0.39464 0.26456 0.25736 0.0
O118 O 0.36168 0.25791 0.26922 0.0
C119 C 0.42759 0.23951 0.28991 0.0
C120 C 0.41986 0.17477 0.25388 0.0
C121 C 0.35518 0.23662 0.27427 0.0
O122 O 0.41856 0.21919 0.28405 0.0
O123 O 0.42204 0.25935 0.27989 0.0
O124 O 0.38255 0.20591 0.22461 0.0
O125 O 0.40235 0.23744 0.23715 0.0
Co126 Co 0.0129 0.16156 0.51338 0.0
O127 O 0.01716 0.19313 0.50061 0.0
O128 O 0.04499 0.17222 0.51979 0.0
C129 C 0.99495 0.14602 0.48102 0.0
O130 O 0.01543 0.12829 0.52825 0.0
Co131 Co 0.9628 0.139 0.52089 0.0
O132 O 0.98108 0.10851 0.5215 0.0
C133 C 0.98138 0.1743 0.55572 0.0
C134 C 0.03894 0.19173 0.50857 0.0
C135 C 0.00306 0.10884 0.52748 0.0
O136 O 0.00138 0.17554 0.54441 0.0
O137 O 0.96361 0.16151 0.54887 0.0
O138 O 0.01815 0.14752 0.48187 0.0
O139 O 0.98356 0.15572 0.49862 0.0
Co140 Co 0.08879 0.78542 0.77163 0.0
O141 O 0.05703 0.7927 0.75986 0.0
O142 O 0.08074 0.81744 0.77996 0.0
C143 C 0.10253 0.76716 0.7383 0.0
O144 O 0.12196 0.78687 0.78574 0.0
Co145 Co 0.11073 0.73484 0.77709 0.0
O146 O 0.14147 0.75217 0.78163 0.0
C147 C 0.07635 0.75286 0.81332 0.0
C148 C 0.06045 0.81369 0.76941 0.0
C149 C 0.14108 0.77438 0.78653 0.0
O150 O 0.07509 0.77338 0.80285 0.0
O151 O 0.08848 0.73522 0.80519 0.0
O152 O 0.10269 0.79042 0.73964 0.0
O153 O 0.09299 0.75605 0.75613 0.0
Co154 Co 0.46748 0.83061 0.99528 0.0
O155 O 0.45825 0.80191 0.97856 0.0
O156 O 0.43619 0.82118 0.00542 0.0
C157 C 0.48271 0.85132 0.96415 0.0
O158 O 0.46949 0.86054 0.01547 0.0
Co159 Co 0.51991 0.84817 -0.00061 0.0
O160 O 0.50519 0.87843 0.01112 0.0
C161 C 0.50352 0.8069 0.0283 0.0
C162 C 0.43863 0.8031 0.99109 0.0
C163 C 0.48362 0.87838 0.01862 0.0
O164 O 0.48182 0.8107 0.02168 0.0
O165 O 0.52138 0.81867 0.01995 0.0
O166 O 0.45966 0.85076 0.9676 0.0
O167 O 0.49508 0.83738 0.97775 0.0
Co168 Co 0.89727 0.28421 0.73186 0.0
O169 O 0.92584 0.29354 0.74864 0.0
O170 O 0.90804 0.31475 0.72015 0.0
C171 C 0.87552 0.27202 0.76372 0.0
O172 O 0.86747 0.28172 0.71133 0.0
Co173 Co 0.8782 0.23197 0.73191 0.0
O174 O 0.84851 0.24714 0.71941 0.0
C175 C 0.91953 0.24495 0.70146 0.0
C176 C 0.9254 0.31278 0.73547 0.0
C177 C 0.84908 0.26797 0.71002 0.0
O178 O 0.91701 0.26721 0.70683 0.0
O179 O 0.90705 0.2282 0.71103 0.0
O180 O 0.87688 0.29469 0.75846 0.0
O181 O 0.88931 0.25825 0.75143 0.0
Co182 Co 0.96935 0.65744 0.98647 0.0
O183 O 0.96162 0.68563 0.00445 0.0
O184 O 0.93901 0.66968 0.97591 0.0
C185 C 0.98078 0.63389 0.01718 0.0
O186 O 0.97047 0.62848 0.9647 0.0
Co187 Co 0.02075 0.63657 0.98484 0.0
O188 O 0.00427 0.60789 0.97167 0.0
C189 C 0.00903 0.67962 0.95627 0.0
C190 C 0.94209 0.68629 0.99184 0.0
C191 C 0.98347 0.60967 0.9625 0.0
O192 O 0.98678 0.67766 0.96203 0.0
O193 O 0.0254 0.66605 0.96482 0.0
O194 O 0.95818 0.6365 0.01233 0.0
O195 O 0.99514 0.64763 0.00532 0.0
Co196 Co 0.57858 0.71783 0.2211 0.0
O197 O 0.54767 0.71622 0.2364 0.0
O198 O 0.56677 0.68569 0.2195 0.0
C199 C 0.597 0.73998 0.24918 0.0
O200 O 0.61073 0.71175 0.20504 0.0
Co201 Co 0.60255 0.76557 0.20539 0.0
O202 O 0.63207 0.7458 0.20596 0.0
C203 C 0.56543 0.74326 0.17487 0.0
C204 C 0.54808 0.69367 0.23079 0.0
C205 C 0.63065 0.72319 0.20335 0.0
O206 O 0.56321 0.72538 0.18928 0.0
O207 O 0.5793 0.76112 0.17863 0.0
O208 O 0.59476 0.71697 0.25227 0.0
O209 O 0.58616 0.74869 0.23081 0.0
Co210 Co 0.53143 0.33049 0.46554 0.0
O211 O 0.53418 0.29975 0.4806 0.0
O212 O 0.5632 0.31818 0.46051 0.0
C213 C 0.51326 0.34892 0.49628 0.0
O214 O 0.53569 0.36242 0.44851 0.0
Co215 Co 0.48134 0.35264 0.45548 0.0
O216 O 0.50023 0.38153 0.44688 0.0
C217 C 0.49821 0.31119 0.42773 0.0
C218 C 0.55607 0.29965 0.47276 0.0
C219 C 0.52284 0.38094 0.44401 0.0
O220 O 0.51965 0.31448 0.43547 0.0
O221 O 0.48014 0.32295 0.43547 0.0
O222 O 0.53643 0.34687 0.49622 0.0
O223 O 0.5021 0.33833 0.47917 0.0
Co224 Co 0.27239 0.414 0.20677 0.0
O225 O 0.25452 0.443 0.20111 0.0
O226 O 0.28076 0.42677 0.17608 0.0
C227 C 0.24175 0.39189 0.22115 0.0
O228 O 0.29333 0.38448 0.20489 0.0
Co229 Co 0.27869 0.39205 0.25751 0.0
O230 O 0.29247 0.36447 0.2398 0.0
C231 C 0.30509 0.43564 0.24401 0.0
C232 C 0.26582 0.44393 0.18077 0.0
C233 C 0.29825 0.36615 0.21781 0.0
O234 O 0.29895 0.43299 0.22203 0.0
O235 O 0.29729 0.42255 0.26114 0.0
O236 O 0.24455 0.39421 0.19816 0.0
O237 O 0.25605 0.40428 0.23428 0.0
Co238 Co 0.76474 0.08839 0.78446 0.0
O239 O 0.75507 0.05761 0.79634 0.0
O240 O 0.77777 0.08353 0.81601 0.0
C241 C 0.72863 0.09966 0.77068 0.0
O242 O 0.77737 0.1222 0.77864 0.0
Co243 Co 0.76099 0.10208 0.7308 0.0
O244 O 0.7638 0.13536 0.74314 0.0
C245 C 0.79987 0.07004 0.74735 0.0
C246 C 0.7668 0.06297 0.81564 0.0
C247 C 0.77332 0.13912 0.76349 0.0
O248 O 0.79404 0.07374 0.76932 0.0
O249 O 0.78791 0.07838 0.72965 0.0
O250 O 0.7337 0.10211 0.79323 0.0
O251 O 0.74446 0.08858 0.75811 0.0
Co252 Co 0.15631 0.51263 0.02522 0.0
O253 O 0.18841 0.5036 0.03311 0.0
O254 O 0.16492 0.52642 0.05559 0.0
C255 C 0.14349 0.47617 0.01414 0.0
O256 O 0.12209 0.52502 0.02337 0.0
Co257 Co 0.13643 0.5079 0.97376 0.0
O258 O 0.10486 0.51127 0.9898 0.0
C259 C 0.1689 0.54796 0.98554 0.0
C260 C 0.18544 0.51589 0.05256 0.0
C261 C 0.10355 0.52115 0.01027 0.0
O262 O 0.16888 0.54156 0.00766 0.0
O263 O 0.15799 0.53638 0.96908 0.0
O264 O 0.14394 0.48191 0.03664 0.0
O265 O 0.15288 0.49159 -0.00038 0.0
Co266 Co 0.7346 0.90608 0.28166 0.0
O267 O 0.74528 0.93425 0.29806 0.0
O268 O 0.72132 0.90621 0.31322 0.0
C269 C 0.76948 0.8941 0.26562 0.0
O270 O 0.72033 0.87453 0.27121 0.0
Co271 Co 0.73667 0.90186 0.22641 0.0
O272 O 0.72665 0.86806 0.23204 0.0
C273 C 0.6998 0.93189 0.24878 0.0
C274 C 0.73254 0.9264 0.31596 0.0
C275 C 0.71957 0.8612 0.2526 0.0
O276 O 0.70579 0.92381 0.26944 0.0
O277 O 0.71136 0.92711 0.2296 0.0
O278 O 0.76477 0.8897 0.28801 0.0
O279 O 0.75485 0.90862 0.25515 0.0
Co280 Co 0.3335 0.47018 0.53287 0.0
O281 O 0.30769 0.48925 0.5453 0.0
O282 O 0.32609 0.45982 0.56472 0.0
C283 C 0.35618 0.49959 0.51711 0.0
O284 O 0.36108 0.44746 0.52711 0.0
Co285 Co 0.34483 0.46709 0.4787 0.0
O286 O 0.37596 0.45412 0.49036 0.0
C287 C 0.30285 0.44165 0.49826 0.0
C288 C 0.30968 0.47628 0.56457 0.0
C289 C 0.37764 0.44527 0.51134 0.0
O290 O 0.30981 0.44649 0.51961 0.0
O291 O 0.31326 0.44987 0.47952 0.0
O292 O 0.35689 0.49523 0.53997 0.0
O293 O 0.33962 0.48843 0.50549 0.0
Co294 Co 0.22977 0.58956 0.71874 0.0
O295 O 0.24906 0.56176 0.71352 0.0
O296 O 0.21927 0.57373 0.69004 0.0
C297 C 0.25975 0.61521 0.72709 0.0
O298 O 0.20666 0.61759 0.71789 0.0
Co299 Co 0.22876 0.61384 0.76861 0.0
O300 O 0.21388 0.64048 0.75012 0.0
C301 C 0.20497 0.5674 0.76159 0.0
C302 C 0.2361 0.5583 0.69458 0.0
C303 C 0.20433 0.63717 0.72967 0.0
O304 O 0.20699 0.56982 0.73878 0.0
O305 O 0.21454 0.58176 0.77662 0.0
O306 O 0.25434 0.61066 0.70495 0.0
O307 O 0.24876 0.60235 0.74285 0.0
Co308 Co 0.65888 0.97807 0.96898 0.0
O309 O 0.69091 0.99068 0.96805 0.0
O310 O 0.67231 0.97336 0.93765 0.0
C311 C 0.64311 0.00999 0.98767 0.0
O312 O 0.62587 0.96372 0.9625 0.0
Co313 Co 0.63148 0.96867 0.01633 0.0
O314 O 0.60295 0.9671 0.99532 0.0
C315 C 0.66856 0.93442 -0.00021 0.0
C316 C 0.69131 0.98403 0.94583 0.0
C317 C 0.60545 0.96287 0.97312 0.0
O318 O 0.67145 0.94613 0.98013 0.0
O319 O 0.65452 0.94115 0.01661 0.0
O320 O 0.64569 0.01035 0.96457 0.0
O321 O 0.65092 0.99122 -0.00143 0.0
Co322 Co 0.83263 0.0032 0.475 0.0
O323 O 0.80321 0.98531 0.47389 0.0
O324 O 0.81745 0.00869 0.44492 0.0
C325 C 0.85559 0.97376 0.49004 0.0
O326 O 0.86199 0.02358 0.46851 0.0
Co327 Co 0.85907 0.01395 0.52252 0.0
O328 O 0.88531 0.02481 0.50118 0.0
C329 C 0.81665 0.0424 0.50905 0.0
C330 C 0.80066 0.99451 0.45265 0.0
C331 C 0.88162 0.02886 0.47909 0.0
O332 O 0.8151 0.03131 0.48902 0.0
O333 O 0.83219 0.03752 0.52514 0.0
O334 O 0.85134 0.97458 0.4672 0.0
O335 O 0.84451 0.98929 0.50298 0.0
H336 H 0.08753 0.18858 0.51145 0.0
H337 H 0.02983 0.23644 0.49135 0.0
H338 H 0.05904 0.2642 0.47331 0.0
H339 H 0.13536 0.23743 0.52047 0.0
H340 H 0.15796 0.21821 0.50787 0.0
H341 H 0.13358 0.20548 0.52485 0.0
H342 H 0.12329 0.17802 0.48905 0.0
H343 H 0.1472 0.1909 0.47181 0.0
H344 H 0.11708 0.1913 0.46027 0.0
H345 H 0.09202 0.28145 0.44985 0.0
H346 H 0.12752 0.28874 0.42463 0.0
H347 H 0.16438 0.23006 0.45977 0.0
C348 C 0.0812 0.20541 0.50419 0.0
C349 C 0.05652 0.21046 0.50278 0.0
C350 C 0.04872 0.23231 0.49261 0.0
C351 C 0.06519 0.24824 0.48243 0.0
C352 C 0.08934 0.24212 0.48284 0.0
C353 C 0.09744 0.22144 0.49383 0.0
C354 C 0.12376 0.21736 0.48884 0.0
C355 C 0.13854 0.21978 0.51188 0.0
C356 C 0.12805 0.19297 0.47677 0.0
C357 C 0.12867 0.23795 0.47188 0.0
C358 C 0.10873 0.25232 0.46911 0.0
C359 C 0.10799 0.27079 0.45235 0.0
C360 C 0.12812 0.27462 0.43794 0.0
C361 C 0.14862 0.25997 0.44037 0.0
C362 C 0.14904 0.24173 0.45785 0.0
H363 H 0.98459 0.89898 0.68972 0.0
H364 H 0.00903 0.95583 0.73641 0.0
H365 H 0.02071 0.92573 0.76666 0.0
H366 H 0.96573 0.85472 0.73862 0.0
H367 H 0.97698 0.82996 0.72135 0.0
H368 H 0.96444 0.85572 0.70641 0.0
H369 H 0.00359 0.86074 0.68196 0.0
H370 H 0.01615 0.83514 0.69674 0.0
H371 H 0.03171 0.86344 0.69755 0.0
H372 H 0.03642 0.89063 0.78779 0.0
H373 H 0.05818 0.8535 0.79691 0.0
H374 H 0.02496 0.81879 0.7361 0.0
C375 C 0.99159 0.9051 0.70669 0.0
C376 C 0.99577 0.92964 0.71093 0.0
C377 C 0.00564 0.93705 0.73295 0.0
C378 C 0.01206 0.92011 0.75029 0.0
C379 C 0.00844 0.89591 0.74527 0.0
C380 C -0.00159 0.88839 0.72398 0.0
C381 C 0.00028 0.86149 0.72112 0.0
C382 C 0.97537 0.84978 0.72193 0.0
C383 C 0.01375 0.85484 0.69799 0.0
C384 C 0.01459 0.85527 0.74323 0.0
C385 C 0.01826 0.87527 0.75736 0.0
C386 C 0.03324 0.87475 0.77721 0.0
C387 C 0.04563 0.8536 0.78216 0.0
C388 C 0.04318 0.83338 0.76715 0.0
C389 C 0.02671 0.83389 0.74809 0.0
H390 H 0.35041 0.72311 0.91875 0.0
H391 H 0.30069 0.73407 0.9772 0.0
H392 H 0.33402 0.74618 0.00327 0.0
H393 H 0.4059 0.70681 0.95825 0.0
H394 H 0.42506 0.72316 0.938 0.0
H395 H 0.39933 0.70726 0.9267 0.0
H396 H 0.38439 0.74639 0.90682 0.0
H397 H 0.4096 0.76251 0.91836 0.0
H398 H 0.37969 0.77258 0.92505 0.0
H399 H 0.36872 0.76745 0.01867 0.0
H400 H 0.40312 0.79461 0.02325 0.0
H401 H 0.43137 0.77093 0.95504 0.0
C402 C 0.34684 0.72678 0.93742 0.0
C403 C 0.32317 0.72754 0.94613 0.0
C404 C 0.31881 0.73328 0.97033 0.0
C405 C 0.33766 0.74005 0.98529 0.0
C406 C 0.36071 0.74084 0.97574 0.0
C407 C 0.3655 0.73394 0.95245 0.0
C408 C 0.3908 0.74066 0.9452 0.0
C409 C 0.40619 0.71813 0.94185 0.0
C410 C 0.3911 0.75648 0.92255 0.0
C411 C 0.39856 0.75447 0.96711 0.0
C412 C 0.38124 0.75362 0.98482 0.0
C413 C 0.38276 0.76763 0.00532 0.0
C414 C 0.40222 0.78321 0.00763 0.0
C415 C 0.41982 0.78474 0.98948 0.0
C416 C 0.41834 0.76969 0.96935 0.0
H417 H 0.51234 0.0866 0.19772 0.0
H418 H 0.46769 0.02895 0.22482 0.0
H419 H 0.44697 0.05752 0.25128 0.0
H420 H 0.51271 0.12415 0.25529 0.0
H421 H 0.51152 0.15131 0.23784 0.0
H422 H 0.52731 0.12556 0.22655 0.0
H423 H 0.50177 0.1272 0.18793 0.0
H424 H 0.48571 0.15257 0.19913 0.0
H425 H 0.46958 0.12607 0.19023 0.0
H426 H 0.42568 0.09275 0.26749 0.0
H427 H 0.40564 0.13172 0.27241 0.0
H428 H 0.46359 0.16656 0.23394 0.0
C429 C 0.49881 0.07983 0.20988 0.0
C430 C 0.49153 0.05566 0.20926 0.0
C431 C 0.47354 0.04745 0.22511 0.0
C432 C 0.46179 0.06351 0.24029 0.0
C433 C 0.46853 0.08756 0.23955 0.0
C434 C 0.48689 0.09564 0.22498 0.0
C435 C 0.48828 0.12268 0.22462 0.0
C436 C 0.51132 0.13143 0.23681 0.0
C437 C 0.48618 0.13268 0.19897 0.0
C438 C 0.46652 0.12858 0.2395 0.0
C439 C 0.45587 0.10813 0.24868 0.0
C440 C 0.43416 0.10892 0.26093 0.0
C441 C 0.42283 0.13111 0.26347 0.0
C442 C 0.43308 0.15205 0.25343 0.0
C443 C 0.45546 0.15081 0.24188 0.0
H444 H 0.67694 0.25427 0.52533 0.0
H445 H 0.63568 0.19667 0.55744 0.0
H446 H 0.60229 0.20532 0.53007 0.0
H447 H 0.63349 0.29424 0.52339 0.0
H448 H 0.64069 0.30801 0.49506 0.0
H449 H 0.66368 0.29332 0.51195 0.0
H450 H 0.67335 0.26611 0.47576 0.0
H451 H 0.65035 0.2809 0.4586 0.0
H452 H 0.6498 0.24881 0.4621 0.0
H453 H 0.57099 0.22534 0.50686 0.0
H454 H 0.54392 0.2554 0.48934 0.0
H455 H 0.60489 0.30024 0.47153 0.0
C456 C 0.66122 0.24291 0.52592 0.0
C457 C 0.65883 0.22483 0.54342 0.0
C458 C 0.63784 0.21064 0.54413 0.0
C459 C 0.61886 0.21528 0.5285 0.0
C460 C 0.62129 0.23398 0.51213 0.0
C461 C 0.64206 0.24743 0.51049 0.0
C462 C 0.63878 0.26875 0.49402 0.0
C463 C 0.64448 0.29246 0.50689 0.0
C464 C 0.65397 0.26597 0.47127 0.0
C465 C 0.61237 0.26639 0.48845 0.0
C466 C 0.60284 0.24576 0.49841 0.0
C467 C 0.57832 0.24118 0.49837 0.0
C468 C 0.56307 0.25843 0.48854 0.0
C469 C 0.57241 0.28002 0.47905 0.0
C470 C 0.59739 0.28363 0.47823 0.0
H471 H 0.96174 0.31472 0.76807 0.0
H472 H 0.92864 0.3547 0.71028 0.0
H473 H 0.95508 0.38903 0.71877 0.0
H474 H 0.9637 0.35981 0.80789 0.0
H475 H 0.9922 0.35245 0.82109 0.0
H476 H 0.97458 0.32942 0.80729 0.0
H477 H 0.01019 0.31874 0.77954 0.0
H478 H 0.028 0.34185 0.79333 0.0
H479 H 0.0238 0.34177 0.76137 0.0
H480 H 0.97936 0.42097 0.73784 0.0
H481 H -0.00074 0.44812 0.76634 0.0
H482 H 0.01718 0.38738 0.81141 0.0
C483 C 0.96056 0.33044 0.75674 0.0
C484 C 0.94319 0.33207 0.73851 0.0
C485 C 0.94188 0.35306 0.72432 0.0
C486 C 0.95693 0.3726 0.7289 0.0
C487 C 0.97339 0.37072 0.74752 0.0
C488 C 0.97546 0.35007 0.76108 0.0
C489 C 0.99246 0.35359 0.78184 0.0
C490 C 0.97998 0.34854 0.80593 0.0
C491 C 0.01495 0.33807 0.77883 0.0
C492 C -0.00168 0.37988 0.77879 0.0
C493 C 0.98764 0.38929 0.75854 0.0
C494 C 0.98831 0.41372 0.75341 0.0
C495 C -0.00043 0.42902 0.76975 0.0
C496 C 0.00983 0.41979 0.79099 0.0
C497 C 0.00988 0.39486 0.79509 0.0
H498 H 0.81278 0.72236 0.0316 0.0
H499 H 0.845 0.78626 0.06169 0.0
H500 H 0.88187 0.77865 0.03897 0.0
H501 H 0.86025 0.68678 0.03709 0.0
H502 H 0.85724 0.67045 0.00949 0.0
H503 H 0.83136 0.68374 0.02305 0.0
H504 H 0.82257 0.70727 0.98404 0.0
H505 H 0.84844 0.69384 0.9702 0.0
H506 H 0.84553 0.72597 0.97107 0.0
H507 H 0.91738 0.75968 0.02169 0.0
H508 H 0.94869 0.73157 0.00833 0.0
H509 H 0.89399 0.68073 0.98726 0.0
C510 C 0.82728 0.73521 0.03261 0.0
C511 C 0.8261 0.75484 0.04838 0.0
C512 C 0.84556 0.77105 0.04973 0.0
C513 C 0.86655 0.76698 0.03676 0.0
C514 C 0.86766 0.74683 0.02224 0.0
C515 C 0.84841 0.7314 0.01969 0.0
C516 C 0.85534 0.7095 0.00535 0.0
C517 C 0.85079 0.68627 0.01962 0.0
C518 C 0.84219 0.70913 0.98123 0.0
C519 C 0.88184 0.71419 0.00193 0.0
C520 C 0.88846 0.73607 0.01139 0.0
C521 C 0.91238 0.7429 0.01345 0.0
C522 C 0.93003 0.72679 0.00601 0.0
C523 C 0.92359 0.70428 -0.00349 0.0
C524 C 0.89924 0.69819 0.99382 0.0
H525 H 0.52591 0.69061 0.27396 0.0
H526 H 0.52842 0.65918 0.20333 0.0
H527 H 0.50159 0.62672 0.21673 0.0
H528 H 0.53447 0.64023 0.30339 0.0
H529 H 0.51525 0.64556 0.32875 0.0
H530 H 0.52741 0.67041 0.31235 0.0
H531 H 0.48475 0.68685 0.30495 0.0
H532 H 0.47236 0.66202 0.3216 0.0
H533 H 0.4624 0.66787 0.29149 0.0
H534 H 0.4842 0.59376 0.2388 0.0
H535 H 0.47797 0.56163 0.26836 0.0
H536 H 0.48666 0.61258 0.32598 0.0
C537 C 0.51973 0.67746 0.26116 0.0
C538 C 0.5287 0.67737 0.23759 0.0
C539 C 0.52139 0.65949 0.2214 0.0
C540 C 0.50603 0.64115 0.22882 0.0
C541 C 0.49834 0.64092 0.25255 0.0
C542 C 0.5048 0.65867 0.26855 0.0
C543 C 0.4981 0.65174 0.29396 0.0
C544 C 0.52012 0.65198 0.31056 0.0
C545 C 0.47821 0.6681 0.30356 0.0
C546 C 0.48883 0.62655 0.28995 0.0
C547 C 0.48833 0.62108 0.26581 0.0
C548 C 0.48377 0.59799 0.25767 0.0
C549 C 0.48044 0.57983 0.27456 0.0
C550 C 0.48165 0.58487 0.29927 0.0
C551 C 0.48499 0.6086 0.30711 0.0
H552 H 0.22665 0.47296 0.17763 0.0
H553 H 0.29446 0.45682 0.14357 0.0
H554 H 0.28415 0.48353 0.11007 0.0
H555 H 0.19323 0.46788 0.12949 0.0
H556 H 0.17241 0.49184 0.13519 0.0
H557 H 0.18768 0.4778 0.15966 0.0
H558 H 0.20411 0.51898 0.17322 0.0
H559 H 0.18873 0.53325 0.14868 0.0
H560 H 0.22052 0.53743 0.15235 0.0
H561 H 0.2634 0.50248 0.07681 0.0
H562 H 0.23341 0.51221 0.04601 0.0
H563 H 0.17867 0.51739 0.10069 0.0
C564 C 0.23969 0.47592 0.16358 0.0
C565 C 0.26133 0.46298 0.16312 0.0
C566 C 0.27775 0.46662 0.14419 0.0
C567 C 0.27215 0.48195 0.12521 0.0
C568 C 0.25014 0.49362 0.12551 0.0
C569 C 0.23421 0.49104 0.14433 0.0
C570 C 0.21021 0.5022 0.13843 0.0
C571 C 0.1897 0.48382 0.14081 0.0
C572 C 0.20563 0.52428 0.1541 0.0
C573 C 0.21447 0.5094 0.11262 0.0
C574 C 0.23789 0.50504 0.10582 0.0
C575 C 0.24525 0.50675 0.08205 0.0
C576 C 0.2281 0.51214 0.06466 0.0
C577 C 0.20393 0.51578 0.07117 0.0
C578 C 0.19724 0.5154 0.09548 0.0
H579 H 0.69533 0.97555 0.89799 0.0
H580 H 0.73211 0.00822 0.9579 0.0
H581 H 0.76164 0.02591 0.93019 0.0
H582 H 0.75101 0.9665 0.85881 0.0
H583 H 0.73403 0.9737 0.83236 0.0
H584 H 0.71976 0.95859 0.85713 0.0
H585 H 0.68757 0.99193 0.85867 0.0
H586 H 0.70176 0.00717 0.83418 0.0
H587 H 0.69686 0.02269 0.86198 0.0
H588 H 0.78111 0.0471 0.8962 0.0
H589 H 0.78931 0.06921 0.85874 0.0
H590 H 0.74045 0.02231 0.82086 0.0
C591 C 0.71014 0.98565 0.90534 0.0
C592 C 0.71147 0.99051 0.93003 0.0
C593 C 0.73082 0.00419 0.93901 0.0
C594 C 0.74776 0.01422 0.92341 0.0
C595 C 0.74529 0.01008 0.89897 0.0
C596 C 0.72717 0.99577 0.89 0.0
C597 C 0.72638 -0.00323 0.86298 0.0
C598 C 0.73321 0.97244 0.85218 0.0
C599 C 0.7017 0.00515 0.85395 0.0
C600 C 0.74561 0.01529 0.85826 0.0
C601 C 0.75678 0.02229 0.87917 0.0
C602 C 0.77302 0.04129 0.87961 0.0
C603 C 0.77749 0.05382 0.85828 0.0
C604 C 0.76558 0.04737 0.83692 0.0
C605 C 0.75012 0.02737 0.83684 0.0
H606 H 0.7522 0.96979 0.32594 0.0
H607 H 0.71188 0.91135 0.35766 0.0
H608 H 0.71704 0.92933 0.39749 0.0
H609 H 0.79552 0.97124 0.36464 0.0
H610 H 0.79988 0.0032 0.36631 0.0
H611 H 0.78686 0.99034 0.34006 0.0
H612 H 0.7497 0.01768 0.34462 0.0
H613 H 0.76276 0.03083 0.371 0.0
H614 H 0.73326 0.01778 0.37238 0.0
H615 H 0.73515 0.94691 0.43347 0.0
H616 H 0.76424 0.96306 0.46243 0.0
H617 H 0.79217 0.01077 0.40773 0.0
C618 C 0.7437 0.9613 0.34118 0.0
C619 C 0.73179 0.9392 0.33885 0.0
C620 C 0.72109 0.92836 0.35912 0.0
C621 C 0.72375 0.93855 0.38179 0.0
C622 C 0.73673 0.95978 0.38374 0.0
C623 C 0.74616 0.97131 0.36388 0.0
C624 C 0.76252 0.99165 0.37098 0.0
C625 C 0.78766 0.9889 0.35986 0.0
C626 C 0.75139 0.01593 0.36435 0.0
C627 C 0.76286 0.98808 0.39777 0.0
C628 C 0.74718 0.97022 0.4049 0.0
C629 C 0.74692 0.96144 0.42828 0.0
C630 C 0.7636 0.97059 0.44457 0.0
C631 C 0.78041 0.98807 0.4372 0.0
C632 C 0.77932 -0.00243 0.41386 0.0
H633 H 0.22857 0.55667 0.64653 0.0
H634 H 0.25688 0.51591 0.70619 0.0
H635 H 0.27221 0.48545 0.67827 0.0
H636 H 0.21588 0.5033 0.60531 0.0
H637 H 0.22561 0.52026 0.57958 0.0
H638 H 0.21109 0.5352 0.60419 0.0
H639 H 0.24729 0.56404 0.60772 0.0
H640 H 0.26199 0.54912 0.58342 0.0
H641 H 0.27686 0.55182 0.61189 0.0
H642 H 0.29071 0.46398 0.64468 0.0
H643 H 0.31225 0.45352 0.60771 0.0
H644 H 0.27364 0.50902 0.56939 0.0
C645 C 0.2371 0.54078 0.65367 0.0
C646 C 0.24139 0.53837 0.67839 0.0
C647 C 0.25336 0.5179 0.68723 0.0
C648 C 0.26196 0.50045 0.67154 0.0
C649 C 0.25843 0.50382 0.6471 0.0
C650 C 0.24616 0.52341 0.63816 0.0
C651 C 0.24821 0.52486 0.61118 0.0
C652 C 0.22374 0.52065 0.59937 0.0
C653 C 0.25926 0.54887 0.60311 0.0
C654 C 0.26495 0.5041 0.60659 0.0
C655 C 0.26993 0.49171 0.62744 0.0
C656 C 0.28658 0.47319 0.62813 0.0
C657 C 0.29882 0.46747 0.60707 0.0
C658 C 0.29462 0.48053 0.58575 0.0
C659 C 0.27705 0.49864 0.58541 0.0
H660 H 0.27603 0.43474 0.45818 0.0
H661 H 0.28619 0.40844 0.53052 0.0
H662 H 0.25922 0.37448 0.52204 0.0
H663 H 0.21143 0.41182 0.45119 0.0
H664 H 0.21705 0.40479 0.42025 0.0
H665 H 0.23169 0.43012 0.43388 0.0
H666 H 0.27296 0.41306 0.42126 0.0
H667 H 0.25853 0.38783 0.40775 0.0
H668 H 0.28104 0.38313 0.43036 0.0
H669 H 0.23958 0.33912 0.50313 0.0
H670 H 0.22875 0.30623 0.47548 0.0
H671 H 0.23079 0.3557 0.41589 0.0
C672 C 0.27192 0.42228 0.47249 0.0
C673 C 0.28323 0.42418 0.49495 0.0
C674 C 0.27758 0.40745 0.5132 0.0
C675 C 0.2622 0.38812 0.50857 0.0
C676 C 0.2522 0.38613 0.48581 0.0
C677 C 0.25652 0.40306 0.46819 0.0
C678 C 0.24639 0.39533 0.44436 0.0
C679 C 0.22539 0.41148 0.43699 0.0
C680 C 0.2659 0.39479 0.42482 0.0
C681 C 0.23771 0.37049 0.45076 0.0
C682 C 0.24044 0.36574 0.47493 0.0
C683 C 0.23654 0.34289 0.48438 0.0
C684 C 0.23039 0.32434 0.46864 0.0
C685 C 0.22843 0.32889 0.44388 0.0
C686 C 0.23143 0.35224 0.43496 0.0
H687 H 0.90383 0.0245 0.66248 0.0
H688 H 0.94198 -0.0005 0.72513 0.0
H689 H 0.90728 0.01064 0.75065 0.0
H690 H 0.87662 0.07432 0.68686 0.0
H691 H 0.84851 0.07062 0.6715 0.0
H692 H 0.87555 0.05906 0.65849 0.0
H693 H 0.8565 0.01675 0.65619 0.0
H694 H 0.82929 0.02822 0.66913 0.0
H695 H 0.84433 0.0032 0.68287 0.0
H696 H 0.86955 0.02866 0.76928 0.0
H697 H 0.83162 0.04933 0.77907 0.0
H698 H 0.81828 0.05995 0.70325 0.0
C699 C 0.90471 0.02116 0.68156 0.0
C700 C 0.92542 0.01138 0.69203 0.0
C701 C 0.92608 0.00696 0.71693 0.0
C702 C 0.90652 0.01323 0.73148 0.0
C703 C 0.88638 0.02326 0.72061 0.0
C704 C 0.88524 0.02672 0.69613 0.0
C705 C 0.86182 0.03792 0.68869 0.0
C706 C 0.86589 0.0619 0.67563 0.0
C707 C 0.84712 0.02048 0.67331 0.0
C708 C 0.8504 0.04147 0.7129 0.0
C709 C 0.86462 0.03273 0.73114 0.0
C710 C 0.85811 0.03522 0.7551 0.0
C711 C 0.83656 0.04704 0.76048 0.0
C712 C 0.82187 0.05626 0.74196 0.0
C713 C 0.82891 0.05306 0.71791 0.0
H714 H 0.19687 0.6654 0.90895 0.0
H715 H 0.26077 0.67471 0.95207 0.0
H716 H 0.25036 0.63835 0.9752 0.0
H717 H 0.15822 0.64354 0.95544 0.0
H718 H 0.14339 0.62203 0.93657 0.0
H719 H 0.15558 0.64906 0.92376 0.0
H720 H 0.18079 0.6239 0.89413 0.0
H721 H 0.16863 0.59679 0.9068 0.0
H722 H 0.2006 0.60111 0.90553 0.0
H723 H 0.23201 0.60204 0.99471 0.0
H724 H 0.20903 0.56605 0.00677 0.0
H725 H 0.15872 0.57908 0.94911 0.0
C726 C 0.20862 0.65982 0.92331 0.0
C727 C 0.22953 0.67292 0.92886 0.0
C728 C 0.24467 0.66488 0.94752 0.0
C729 C 0.23887 0.64433 0.96081 0.0
C730 C 0.21806 0.63189 0.95495 0.0
C731 C 0.20334 0.63914 0.93645 0.0
C732 C 0.18247 0.62212 0.93326 0.0
C733 C 0.1585 0.63496 0.93752 0.0
C734 C 0.18318 0.61028 0.90846 0.0
C735 C 0.1877 0.60422 0.95293 0.0
C736 C 0.20814 0.61033 0.96544 0.0
C737 C 0.2161 0.59694 0.98493 0.0
C738 C 0.20291 0.57662 0.9917 0.0
C739 C 0.18227 0.56974 0.97873 0.0
C740 C 0.17463 0.58376 0.95913 0.0
H741 H 0.59876 0.99258 0.17221 0.0
H742 H 0.54864 0.97102 0.22728 0.0
H743 H 0.58251 0.96099 0.25423 0.0
H744 H 0.63763 0.94693 0.17918 0.0
H745 H 0.66469 0.96378 0.17388 0.0
H746 H 0.63692 0.97382 0.16125 0.0
H747 H 0.64214 0.01504 0.18184 0.0
H748 H 0.6701 0.00512 0.19453 0.0
H749 H 0.64675 0.01635 0.21372 0.0
H750 H 0.62153 0.94813 0.27244 0.0
H751 H 0.66187 0.93175 0.27984 0.0
H752 H 0.68624 0.96134 0.21219 0.0
C753 C 0.59508 0.98651 0.19027 0.0
C754 C 0.57144 0.98285 0.19808 0.0
C755 C 0.56684 0.97425 0.2214 0.0
C756 C 0.58592 0.96862 0.23674 0.0
C757 C 0.60925 0.97196 0.22836 0.0
C758 C 0.61386 0.98089 0.20569 0.0
C759 C 0.64026 0.98021 0.19984 0.0
C760 C 0.64514 0.96529 0.17722 0.0
C761 C 0.65041 0.0057 0.19734 0.0
C762 C 0.64968 0.96806 0.22208 0.0
C763 C 0.63169 0.9641 0.23865 0.0
C764 C 0.63585 0.95156 0.25982 0.0
C765 C 0.65883 0.94234 0.26387 0.0
C766 C 0.67716 0.94531 0.24657 0.0
C767 C 0.6726 0.9589 0.22578 0.0
H768 H 0.78496 0.16921 0.56122 0.0
H769 H 0.7097 0.15137 0.55333 0.0
H770 H 0.72095 0.11453 0.53151 0.0
H771 H 0.80521 0.14418 0.50309 0.0
H772 H 0.8329 0.13391 0.51602 0.0
H773 H 0.81864 0.16046 0.52743 0.0
H774 H 0.81863 0.14193 0.57003 0.0
H775 H 0.83266 0.11532 0.55876 0.0
H776 H 0.80475 0.11313 0.57486 0.0
H777 H 0.74107 0.07769 0.51357 0.0
H778 H 0.76806 0.04404 0.50282 0.0
H779 H 0.82929 0.08608 0.52512 0.0
C780 C 0.77073 0.15785 0.55458 0.0
C781 C 0.74644 0.16318 0.55903 0.0
C782 C 0.72845 0.14773 0.55001 0.0
C783 C 0.73467 0.12679 0.53757 0.0
C784 C 0.7589 0.12178 0.53414 0.0
C785 C 0.7766 0.13703 0.54228 0.0
C786 C 0.8013 0.12689 0.5382 0.0
C787 C 0.81534 0.14227 0.52011 0.0
C788 C 0.81512 0.12415 0.56187 0.0
C789 C 0.79479 0.10293 0.52768 0.0
C790 C 0.77032 0.10048 0.52476 0.0
C791 C 0.76024 0.07952 0.51564 0.0
C792 C 0.77561 0.06055 0.50962 0.0
C793 C 0.80055 0.06262 0.51344 0.0
C794 C 0.8102 0.08411 0.52229 0.0
H795 H 0.16151 0.55268 0.74502 0.0
H796 H 0.21391 0.53976 0.80064 0.0
H797 H 0.18644 0.51085 0.81995 0.0
H798 H 0.11392 0.55613 0.78289 0.0
H799 H 0.09224 0.54231 0.76343 0.0
H800 H 0.11782 0.55729 0.75088 0.0
H801 H 0.1294 0.5186 0.72815 0.0
H802 H 0.10376 0.50343 0.74073 0.0
H803 H 0.13328 0.49102 0.74452 0.0
H804 H 0.1519 0.48827 0.83624 0.0
H805 H 0.11154 0.47663 0.85034 0.0
H806 H 0.08044 0.50583 0.7857 0.0
C807 C 0.16746 0.54301 0.76075 0.0
C808 C 0.1899 0.54797 0.77117 0.0
C809 C 0.19683 0.5359 0.79232 0.0
C810 C 0.18143 0.51936 0.80328 0.0
C811 C 0.1591 0.51526 0.79296 0.0
C812 C 0.15204 0.52685 0.77222 0.0
C813 C 0.12582 0.52228 0.76696 0.0
C814 C 0.11163 0.5459 0.76601 0.0
C815 C 0.1229 0.50798 0.74371 0.0
C816 C 0.11898 0.50729 0.78854 0.0
C817 C 0.13864 0.50281 0.8029 0.0
C818 C 0.13649 0.49112 0.82487 0.0
C819 C 0.11359 0.4845 0.83271 0.0
C820 C 0.09325 0.48981 0.8187 0.0
C821 C 0.09596 0.50087 0.79619 0.0
H822 H 0.6546 0.89614 0.02631 0.0
H823 H 0.71303 0.92251 0.98236 0.0
H824 H 0.73702 0.88673 0.99319 0.0
H825 H 0.68833 0.875 0.07331 0.0
H826 H 0.67013 0.84892 0.07902 0.0
H827 H 0.657 0.87505 0.06559 0.0
H828 H 0.64238 0.84956 0.02974 0.0
H829 H 0.65539 0.82326 0.04316 0.0
H830 H 0.66362 0.83187 0.01316 0.0
H831 H 0.75614 0.8503 0.01339 0.0
H832 H 0.76756 0.81579 0.03889 0.0
H833 H 0.69536 0.81362 0.06773 0.0
C834 C 0.67232 0.89423 0.01866 0.0
C835 C 0.68207 0.91207 0.00364 0.0
C836 C 0.70523 0.90891 0.99384 0.0
C837 C 0.71896 0.8887 -8e-05 0.0
C838 C 0.70898 0.87169 0.01535 0.0
C839 C 0.68599 0.87414 0.02423 0.0
C840 C 0.67958 0.85411 0.04126 0.0
C841 C 0.67341 0.86386 0.06626 0.0
C842 C 0.65903 0.83879 0.03122 0.0
C843 C 0.70287 0.84045 0.0414 0.0
C844 C 0.71963 0.85065 0.02629 0.0
C845 C 0.743 0.84192 0.02495 0.0
C846 C 0.74934 0.82238 0.03955 0.0
C847 C 0.73235 0.81185 0.05525 0.0
C848 C 0.70877 0.82094 0.05576 0.0
H849 H 0.35248 0.42867 0.23959 0.0
H850 H 0.29958 0.47983 0.26345 0.0
H851 H 0.33183 0.50554 0.27989 0.0
H852 H 0.38579 0.42975 0.29011 0.0
H853 H 0.4147 0.42664 0.27611 0.0
H854 H 0.38846 0.41529 0.26144 0.0
H855 H 0.39807 0.4409 0.22388 0.0
H856 H 0.42458 0.45221 0.23838 0.0
H857 H 0.40249 0.47274 0.2269 0.0
H858 H 0.36913 0.52281 0.29784 0.0
H859 H 0.40789 0.52913 0.31814 0.0
H860 H 0.43588 0.46497 0.28475 0.0
C861 C 0.34793 0.4458 0.24741 0.0
C862 C 0.3239 0.45285 0.24978 0.0
C863 C 0.31811 0.47467 0.26105 0.0
C864 C 0.33627 0.4893 0.27037 0.0
C865 C 0.35994 0.48161 0.26831 0.0
C866 C 0.3658 0.46035 0.25707 0.0
C867 C 0.39204 0.45443 0.2601 0.0
C868 C 0.39542 0.4301 0.2727 0.0
C869 C 0.40506 0.45512 0.23587 0.0
C870 C 0.39978 0.47499 0.27582 0.0
C871 C 0.38124 0.49088 0.27974 0.0
C872 C 0.38387 0.51068 0.29462 0.0
C873 C 0.40592 0.51412 0.30607 0.0
C874 C 0.42478 0.49749 0.303 0.0
C875 C 0.42173 0.47794 0.28739 0.0
H876 H 0.45595 0.28988 0.41638 0.0
H877 H 0.53056 0.29372 0.39503 0.0
H878 H 0.5215 0.2688 0.35962 0.0
H879 H 0.44434 0.22759 0.39376 0.0
H880 H 0.4145 0.23564 0.38451 0.0
H881 H 0.42782 0.24988 0.41017 0.0
H882 H 0.42025 0.29153 0.39102 0.0
H883 H 0.40697 0.27747 0.36543 0.0
H884 H 0.43181 0.29776 0.36152 0.0
H885 H 0.50282 0.25002 0.32322 0.0
H886 H 0.47624 0.23853 0.28962 0.0
H887 H 0.41442 0.24606 0.33561 0.0
C888 C 0.47053 0.28503 0.40457 0.0
C889 C 0.49393 0.29378 0.40837 0.0
C890 C 0.51251 0.28708 0.3925 0.0
C891 C 0.50753 0.27289 0.3724 0.0
C892 C 0.48403 0.26519 0.36879 0.0
C893 C 0.46591 0.27079 0.38466 0.0
C894 C 0.44178 0.26245 0.37573 0.0
C895 C 0.43151 0.24271 0.39201 0.0
C896 C 0.42419 0.28356 0.37327 0.0
C897 C 0.44887 0.25253 0.35166 0.0
C898 C 0.47338 0.25381 0.34809 0.0
C899 C 0.48373 0.24821 0.32608 0.0
C900 C 0.4686 0.24169 0.30715 0.0
C901 C 0.44356 0.24084 0.31052 0.0
C902 C 0.43365 0.24578 0.33307 0.0
H903 H 0.95949 0.15983 0.59658 0.0
H904 H -0.00297 0.21987 0.56453 0.0
H905 H 0.98913 0.2441 0.60082 0.0
H906 H 0.91372 0.19078 0.62343 0.0
H907 H 0.9128 0.17292 0.65032 0.0
H908 H 0.92358 0.16005 0.62295 0.0
H909 H 0.96342 0.14863 0.64384 0.0
H910 H 0.95273 0.16154 0.67136 0.0
H911 H 0.98071 0.17147 0.65864 0.0
H912 H 0.97217 0.263 0.6386 0.0
H913 H 0.94948 0.27418 0.67493 0.0
H914 H 0.92589 0.2004 0.68264 0.0
C915 C 0.9663 0.17799 0.59738 0.0
C916 C 0.97867 0.18815 0.57788 0.0
C917 C 0.98755 0.21184 0.57946 0.0
C918 C 0.98318 0.22567 0.59996 0.0
C919 C 0.97053 0.21522 0.61883 0.0
C920 C 0.96264 0.19174 0.61784 0.0
C921 C 0.94882 0.18482 0.64003 0.0
C922 C 0.92322 0.17669 0.6338 0.0
C923 C 0.96222 0.16547 0.65431 0.0
C924 C 0.94892 0.20845 0.6531 0.0
C925 C 0.96172 0.22576 0.64082 0.0
C926 C 0.96252 0.24946 0.64862 0.0
C927 C 0.94955 0.25566 0.66926 0.0
C928 C 0.93594 0.23818 0.68177 0.0
C929 C 0.93627 0.21421 0.67376 0.0
H930 H 0.0519 0.68234 0.93312 0.0
H931 H 0.98189 0.71584 0.93636 0.0
H932 H 0.9931 0.74199 0.90227 0.0
H933 H 0.08645 0.73556 0.91452 0.0
H934 H 0.10528 0.71805 0.89509 0.0
H935 H 0.09288 0.70476 0.92179 0.0
H936 H 0.07412 0.67084 0.89634 0.0
H937 H 0.08632 0.68404 0.86962 0.0
H938 H 0.0546 0.67848 0.87182 0.0
H939 H 0.01136 0.7623 0.86539 0.0
H940 H 0.03388 0.77277 0.82846 0.0
H941 H 0.09046 0.72408 0.84963 0.0
C942 C 0.03904 0.69553 0.92714 0.0
C943 C 0.01606 0.69713 0.93757 0.0
C944 C -0.00034 0.71435 0.92873 0.0
C945 C 0.00589 0.72934 0.90943 0.0
C946 C 0.02857 0.72686 0.89924 0.0
C947 C 0.04484 0.71034 0.90788 0.0
C948 C 0.06713 0.70935 0.89262 0.0
C949 C 0.08924 0.71742 0.90686 0.0
C950 C 0.07073 0.68419 0.88197 0.0
C951 C 0.06064 0.7274 0.87359 0.0
C952 C 0.03859 0.73775 0.87784 0.0
C953 C 0.02872 0.75442 0.86201 0.0
C954 C 0.04159 0.76028 0.84114 0.0
C955 C 0.06375 0.74907 0.8362 0.0
C956 C 0.07345 0.7328 0.85289 0.0
H957 H 0.58291 0.75586 0.13186 0.0
H958 H 0.51812 0.73197 0.16727 0.0
H959 H 0.49508 0.7399 0.13009 0.0
H960 H 0.56011 0.80354 0.10379 0.0
H961 H 0.57701 0.80084 0.07644 0.0
H962 H 0.58872 0.78864 0.10373 0.0
H963 H 0.59246 0.74684 0.08401 0.0
H964 H 0.58092 0.759 0.05643 0.0
H965 H 0.56664 0.73341 0.07009 0.0
H966 H 0.47862 0.75778 0.09161 0.0
H967 H 0.47049 0.7821 0.05551 0.0
H968 H 0.54687 0.79282 0.04568 0.0
C969 C 0.56398 0.75163 0.13151 0.0
C970 C 0.55215 0.7434 0.15221 0.0
C971 C 0.52742 0.7381 0.15137 0.0
C972 C 0.51427 0.74255 0.13037 0.0
C973 C 0.52638 0.75165 0.11041 0.0
C974 C 0.55083 0.75563 0.11075 0.0
C975 C 0.55947 0.76755 0.08805 0.0
C976 C 0.57204 0.79156 0.09334 0.0
C977 C 0.57584 0.75069 0.0738 0.0
C978 C 0.53588 0.77121 0.07546 0.0
C979 C 0.517 0.76155 0.0883 0.0
C980 C 0.49333 0.76489 0.08114 0.0
C981 C 0.48889 0.7788 0.06064 0.0
C982 C 0.50806 0.78941 0.04772 0.0
C983 C 0.5318 0.78488 0.05498 0.0
H984 H 0.24427 0.2886 0.3112 0.0
H985 H 0.18259 0.32165 0.3446 0.0
H986 H 0.17508 0.34484 0.30775 0.0
H987 H 0.2661 0.33802 0.28638 0.0
H988 H 0.27698 0.32465 0.25927 0.0
H989 H 0.2736 0.30661 0.28545 0.0
H990 H 0.24638 0.27751 0.26204 0.0
H991 H 0.24902 0.29571 0.23546 0.0
H992 H 0.21987 0.28861 0.24738 0.0
H993 H 0.18066 0.37144 0.27258 0.0
H994 H 0.19828 0.39791 0.24168 0.0
H995 H 0.25324 0.34535 0.228 0.0
C996 C 0.22875 0.30018 0.31043 0.0
C997 C 0.21411 0.30348 0.33072 0.0
C998 C 0.19401 0.3188 0.3292 0.0
C999 C 0.18952 0.33196 0.30828 0.0
C1000 C 0.20491 0.32908 0.28884 0.0
C1001 C 0.22383 0.31314 0.28956 0.0
C1002 C 0.23966 0.31569 0.26773 0.0
C1003 C 0.26557 0.32162 0.27516 0.0
C1004 C 0.23866 0.29302 0.25224 0.0
C1005 C 0.2276 0.33662 0.25534 0.0
C1006 C 0.20737 0.34389 0.26763 0.0
C1007 C 0.19581 0.36536 0.26216 0.0
C1008 C 0.20579 0.38025 0.24449 0.0
C1009 C 0.22676 0.37332 0.23224 0.0
C1010 C 0.23696 0.35073 0.23685 0.0
H1011 H 0.9028 0.98359 0.48675 0.0
H1012 H 0.85164 0.93521 0.51897 0.0
H1013 H 0.88185 0.92265 0.54849 0.0
H1014 H 0.96159 0.95015 0.50716 0.0
H1015 H 0.97548 0.97862 0.51336 0.0
H1016 H 0.95498 0.97576 0.48861 0.0
H1017 H 0.9304 0.01065 0.50576 0.0
H1018 H 0.94995 0.01329 0.53077 0.0
H1019 H 0.91837 0.00855 0.53567 0.0
H1020 H 0.91106 0.92458 0.58066 0.0
H1021 H 0.93583 0.94121 0.61291 0.0
H1022 H 0.96721 0.99191 0.56299 0.0
C1023 C 0.8986 0.96941 0.49925 0.0
C1024 C 0.87525 0.95994 0.50046 0.0
C1025 C 0.86974 0.94205 0.51744 0.0
C1026 C 0.88683 0.93489 0.53429 0.0
C1027 C 0.90917 0.94614 0.5341 0.0
C1028 C 0.91524 0.96294 0.51681 0.0
C1029 C 0.93776 0.97652 0.52376 0.0
C1030 C 0.9587 0.96984 0.50725 0.0
C1031 C 0.93381 0.00384 0.52404 0.0
C1032 C 0.94164 0.96677 0.54872 0.0
C1033 C 0.9258 0.94836 0.55381 0.0
C1034 C 0.92397 0.93851 0.57667 0.0
C1035 C 0.93801 0.94822 0.59495 0.0
C1036 C 0.95322 0.96802 0.59041 0.0
C1037 C 0.95567 0.97678 0.56685 0.0
H1038 H 0.28966 0.62149 0.76406 0.0
H1039 H 0.25169 0.65971 0.70854 0.0
H1040 H 0.25501 0.69706 0.73182 0.0
H1041 H 0.26216 0.64185 0.8089 0.0
H1042 H 0.28627 0.64545 0.83 0.0
H1043 H 0.2892 0.62445 0.80607 0.0
H1044 H 0.32802 0.64511 0.79135 0.0
H1045 H 0.32579 0.66596 0.81584 0.0
H1046 H 0.32815 0.67688 0.78555 0.0
H1047 H 0.24924 0.72456 0.76639 0.0
H1048 H 0.24196 0.7423 0.80621 0.0
H1049 H 0.28627 0.68753 0.83867 0.0
C1050 C 0.28354 0.63813 0.75619 0.0
C1051 C 0.27061 0.63793 0.73462 0.0
C1052 C 0.26211 0.65969 0.72487 0.0
C1053 C 0.26376 0.68095 0.73811 0.0
C1054 C 0.27468 0.68014 0.76056 0.0
C1055 C 0.28541 0.65946 0.76906 0.0
C1056 C 0.29294 0.66211 0.79493 0.0
C1057 C 0.28196 0.64231 0.81087 0.0
C1058 C 0.32036 0.66255 0.79703 0.0
C1059 C 0.28243 0.68639 0.80044 0.0
C1060 C 0.27235 0.69678 0.78034 0.0
C1061 C 0.258 0.71717 0.78201 0.0
C1062 C 0.25375 0.72698 0.80472 0.0
C1063 C 0.26384 0.71641 0.82543 0.0
C1064 C 0.27894 0.69637 0.82306 0.0
H1065 H 0.53425 0.01367 0.06569 0.0
H1066 H 0.58099 0.04318 0.11965 0.0
H1067 H 0.60813 0.05823 0.08802 0.0
H1068 H 0.57481 0.9884 0.03443 0.0
H1069 H 0.56297 0.99353 0.00492 0.0
H1070 H 0.54325 0.99343 0.02988 0.0
H1071 H 0.52826 0.03571 0.01912 0.0
H1072 H 0.5478 0.03604 0.99341 0.0
H1073 H 0.54942 0.05981 0.01511 0.0
H1074 H 0.63527 0.05751 0.05363 0.0
H1075 H 0.65928 0.04145 0.02035 0.0
H1076 H 0.59513 0.01446 0.98679 0.0
C1077 C 0.54979 0.02402 0.07066 0.0
C1078 C 0.55582 0.02712 0.09485 0.0
C1079 C 0.57611 0.04084 0.10106 0.0
C1080 C 0.59151 0.04953 0.08318 0.0
C1081 C 0.58594 0.04482 0.05929 0.0
C1082 C 0.56518 0.03284 0.05299 0.0
C1083 C 0.56535 0.02589 0.02687 0.0
C1084 C 0.56143 -0.00128 0.02391 0.0
C1085 C 0.54659 0.04023 0.0128 0.0
C1086 C 0.59048 0.03343 0.02 0.0
C1087 C 0.60178 0.04513 0.03871 0.0
C1088 C 0.62639 0.04944 0.03846 0.0
C1089 C 0.63993 0.04034 0.01946 0.0
C1090 C 0.62879 0.02742 0.00089 0.0
C1091 C 0.60372 0.0252 0.00041 0.0
H1092 H 0.70535 0.15388 0.64901 0.0
H1093 H 0.70306 0.22226 0.68498 0.0
H1094 H 0.69413 0.2019 0.72324 0.0
H1095 H 0.6589 0.12177 0.68981 0.0
H1096 H 0.67602 0.0945 0.6881 0.0
H1097 H 0.67497 0.11459 0.66279 0.0
H1098 H 0.72139 0.11668 0.6623 0.0
H1099 H 0.72248 0.09658 0.68725 0.0
H1100 H 0.73701 0.12537 0.68914 0.0
H1101 H 0.69637 0.1745 0.75797 0.0
H1102 H 0.71119 0.1431 0.78529 0.0
H1103 H 0.70965 0.09195 0.72732 0.0
C1104 C 0.70184 0.16447 0.66483 0.0
C1105 C 0.70501 0.18942 0.66437 0.0
C1106 C 0.70098 0.203 0.68524 0.0
C1107 C 0.69555 0.1916 0.70694 0.0
C1108 C 0.69372 0.16668 0.70723 0.0
C1109 C 0.69639 0.15328 0.68657 0.0
C1110 C 0.69778 0.12682 0.69212 0.0
C1111 C 0.67559 0.11365 0.68265 0.0
C1112 C 0.72104 0.11576 0.68214 0.0
C1113 C 0.69773 0.12756 0.71917 0.0
C1114 C 0.69452 0.15061 0.72763 0.0
C1115 C 0.69798 0.15625 0.75171 0.0
C1116 C 0.70629 0.13827 0.7672 0.0
C1117 C 0.71133 0.11516 0.75831 0.0
C1118 C 0.70542 0.10943 0.73452 0.0
H1119 H 0.14839 0.45106 0.97362 0.0
H1120 H 0.0999 0.46393 0.03245 0.0
H1121 H 0.06628 0.44915 0.00821 0.0
H1122 H 0.11902 0.47542 0.93354 0.0
H1123 H 0.12385 0.45562 0.90858 0.0
H1124 H 0.14493 0.45618 0.93253 0.0
H1125 H 0.13961 0.41067 0.93947 0.0
H1126 H 0.11869 0.4097 0.91493 0.0
H1127 H 0.11009 0.39835 0.94391 0.0
H1128 H 0.0381 0.44954 0.97488 0.0
H1129 H 0.0186 0.46044 0.93677 0.0
H1130 H 0.08423 0.44574 0.89863 0.0
C1131 C 0.1309 0.4491 0.98178 0.0
C1132 C 0.12658 0.45842 0.00472 0.0
C1133 C 0.10357 0.45639 0.015 0.0
C1134 C 0.08433 0.44807 0.00126 0.0
C1135 C 0.08866 0.44126 0.97762 0.0
C1136 C 0.11164 0.4408 0.9682 0.0
C1137 C 0.11124 0.43756 0.94132 0.0
C1138 C 0.12556 0.45739 0.92828 0.0
C1139 C 0.12044 0.41258 0.93451 0.0
C1140 C 0.08466 0.43959 0.93672 0.0
C1141 C 0.07182 0.44081 0.95792 0.0
C1142 C 0.04773 0.4475 0.95821 0.0
C1143 C 0.03684 0.45393 0.93656 0.0
C1144 C 0.05005 0.45356 0.91504 0.0
C1145 C 0.07376 0.44523 0.91495 0.0
H1146 H 0.77978 0.89764 0.21836 0.0
H1147 H 0.78716 0.85048 0.27961 0.0
H1148 H 0.79459 0.81655 0.2526 0.0
H1149 H 0.74433 0.86292 0.18743 0.0
H1150 H 0.75589 0.86939 0.15806 0.0
H1151 H 0.75952 0.89087 0.18154 0.0
H1152 H 0.80557 0.89049 0.17438 0.0
H1153 H 0.80162 0.8688 0.15087 0.0
H1154 H 0.82156 0.86249 0.17541 0.0
H1155 H 0.79022 0.78672 0.22013 0.0
H1156 H 0.77727 0.76391 0.1846 0.0
H1157 H 0.76985 0.82996 0.1446 0.0
C1158 C 0.78422 0.88041 0.22608 0.0
C1159 C 0.7828 0.87664 0.25101 0.0
C1160 C 0.78836 0.85383 0.26056 0.0
C1161 C 0.79252 0.83439 0.2453 0.0
C1162 C 0.79144 0.83824 0.22066 0.0
C1163 C 0.78795 0.86084 0.21106 0.0
C1164 C 0.7834 0.85971 0.18437 0.0
C1165 C 0.75937 0.87141 0.17751 0.0
C1166 C 0.80429 0.87104 0.17043 0.0
C1167 C 0.7827 0.8329 0.18087 0.0
C1168 C 0.78817 0.82083 0.20181 0.0
C1169 C 0.78636 0.79598 0.20355 0.0
C1170 C 0.77856 0.78321 0.18347 0.0
C1171 C 0.77205 0.79541 0.1623 0.0
C1172 C 0.77478 0.8204 0.16075 0.0
H1173 H 0.35703 0.51711 0.47193 0.0
H1174 H 0.40294 0.50002 0.53202 0.0
H1175 H 0.43851 0.5041 0.50593 0.0
H1176 H 0.38723 0.48351 0.43104 0.0
H1177 H 0.3832 0.50348 0.40598 0.0
H1178 H 0.36182 0.50335 0.43004 0.0
H1179 H 0.36825 0.54884 0.43651 0.0
H1180 H 0.38937 0.54927 0.41212 0.0
H1181 H 0.39811 0.56025 0.44113 0.0
H1182 H 0.46791 0.50191 0.47133 0.0
H1183 H 0.4891 0.49955 0.43228 0.0
H1184 H 0.42416 0.52085 0.39583 0.0
C1185 C 0.37464 0.51529 0.47982 0.0
C1186 C 0.3773 0.5086 0.50401 0.0
C1187 C 0.40055 0.5057 0.51364 0.0
C1188 C 0.42084 0.50777 0.49889 0.0
C1189 C 0.41751 0.51325 0.47475 0.0
C1190 C 0.39498 0.51754 0.46545 0.0
C1191 C 0.39584 0.52113 0.43864 0.0
C1192 C 0.38116 0.50171 0.42568 0.0
C1193 C 0.3874 0.54638 0.4317 0.0
C1194 C 0.42233 0.51801 0.4342 0.0
C1195 C 0.43457 0.51313 0.45515 0.0
C1196 C 0.45869 0.50655 0.45495 0.0
C1197 C 0.47054 0.50516 0.4328 0.0
C1198 C 0.45831 0.51075 0.41138 0.0
C1199 C 0.43404 0.51743 0.41215 0.0
H1200 H 0.27087 0.24177 0.38693 0.0
H1201 H 0.21218 0.21782 0.34223 0.0
H1202 H 0.24094 0.21007 0.30928 0.0
H1203 H 0.29544 0.27675 0.34355 0.0
H1204 H 0.32613 0.27243 0.35251 0.0
H1205 H 0.30254 0.26984 0.37425 0.0
H1206 H 0.3165 0.22693 0.38538 0.0
H1207 H 0.34056 0.22958 0.36403 0.0
H1208 H 0.31988 0.20484 0.36217 0.0
H1209 H 0.27674 0.20828 0.28021 0.0
H1210 H 0.31453 0.21513 0.25762 0.0
H1211 H 0.34628 0.24772 0.32015 0.0
C1212 C 0.26404 0.23417 0.3705 0.0
C1213 C 0.23932 0.23027 0.36716 0.0
C1214 C 0.23113 0.22059 0.34527 0.0
C1215 C 0.24733 0.21629 0.32645 0.0
C1216 C 0.27145 0.22201 0.32988 0.0
C1217 C 0.27966 0.2308 0.35145 0.0
C1218 C 0.30532 0.2392 0.34987 0.0
C1219 C 0.30746 0.26615 0.35536 0.0
C1220 C 0.32152 0.22424 0.36634 0.0
C1221 C 0.31034 0.23416 0.32391 0.0
C1222 C 0.29093 0.2236 0.31274 0.0
C1223 C 0.29188 0.21678 0.28877 0.0
C1224 C 0.31322 0.22092 0.27605 0.0
C1225 C 0.33265 0.2328 0.28707 0.0
C1226 C 0.33125 0.2393 0.31125 0.0
H1227 H 0.03765 0.03139 0.6369 0.0
H1228 H 0.01765 0.96907 0.59569 0.0
H1229 H 0.0199 0.99301 0.55859 0.0
H1230 H 0.00395 0.06999 0.61117 0.0
H1231 H 0.02366 0.09557 0.61037 0.0
H1232 H 0.02812 0.07264 0.63238 0.0
H1233 H 0.07171 0.06625 0.61807 0.0
H1234 H 0.06774 0.08979 0.59627 0.0
H1235 H 0.07765 0.06058 0.58689 0.0
H1236 H 0.01069 0.02582 0.52966 0.0
H1237 H -0.00133 0.06356 0.50965 0.0
H1238 H 0.02881 0.10426 0.56811 0.0
C1239 C 0.03536 0.02251 0.61986 0.0
C1240 C 0.02768 -0.00151 0.61901 0.0
C1241 C 0.02407 0.98737 0.59661 0.0
C1242 C 0.02513 0.00091 0.57544 0.0
C1243 C 0.03085 0.02521 0.57703 0.0
C1244 C 0.03695 0.03568 0.5986 0.0
C1245 C 0.03952 0.06257 0.59611 0.0
C1246 C 0.02281 0.07594 0.61352 0.0
C1247 C 0.06572 0.07024 0.59953 0.0
C1248 C 0.03178 0.06587 0.57041 0.0
C1249 C 0.02703 0.04411 0.55957 0.0
C1250 C 0.01548 0.04288 0.53746 0.0
C1251 C 0.00855 0.06434 0.5263 0.0
C1252 C 0.01348 0.08666 0.53714 0.0
C1253 C 0.0258 0.08739 0.55907 0.0
H1254 H 0.22014 0.78989 0.89626 0.0
H1255 H 0.2801 0.78285 0.84788 0.0
H1256 H 0.25486 0.79641 0.81447 0.0
H1257 H 0.18331 0.76181 0.86594 0.0
H1258 H 0.15622 0.77861 0.8709 0.0
H1259 H 0.17989 0.7801 0.89228 0.0
H1260 H 0.18198 0.82622 0.88821 0.0
H1261 H 0.15756 0.82511 0.86714 0.0
H1262 H 0.18521 0.83975 0.85906 0.0
H1263 H 0.22162 0.79556 0.78568 0.0
H1264 H 0.18419 0.78408 0.76499 0.0
H1265 H 0.14524 0.78964 0.83159 0.0
C1266 C 0.22822 0.79289 0.87889 0.0
C1267 C 0.25184 0.78545 0.8745 0.0
C1268 C 0.26207 0.78889 0.85162 0.0
C1269 C 0.24776 0.79651 0.83249 0.0
C1270 C 0.22357 0.80107 0.8368 0.0
C1271 C 0.21401 0.80014 0.8597 0.0
C1272 C 0.18692 0.80048 0.85921 0.0
C1273 C 0.176 0.77897 0.87285 0.0
C1274 C 0.17736 0.82432 0.86897 0.0
C1275 C 0.18273 0.79867 0.83262 0.0
C1276 C 0.20397 0.80004 0.81988 0.0
C1277 C 0.20486 0.79513 0.79541 0.0
C1278 C 0.18372 0.78805 0.78391 0.0
C1279 C 0.16232 0.7854 0.79708 0.0
C1280 C 0.16157 0.7918 0.82133 0.0
H1281 H 0.501 -0.00137 0.08952 0.0
H1282 H 0.44669 0.97196 0.13786 0.0
H1283 H 0.43396 0.94246 0.10745 0.0
H1284 H 0.47226 0.98304 0.02989 0.0
H1285 H 0.50077 0.97328 0.01839 0.0
H1286 H 0.49941 -0.00279 0.03996 0.0
H1287 H 0.52892 0.97277 0.06739 0.0
H1288 H 0.52953 0.94934 0.04563 0.0
H1289 H 0.52084 0.94283 0.07604 0.0
H1290 H 0.43293 0.91102 0.07614 0.0
H1291 H 0.44453 0.87919 0.04808 0.0
H1292 H 0.5031 0.92336 0.02212 0.0
C1293 C 0.4859 0.98713 0.09324 0.0
C1294 C 0.47448 0.9877 0.11567 0.0
C1295 C 0.45512 0.97212 0.1204 0.0
C1296 C 0.44788 0.95531 0.10325 0.0
C1297 C 0.46059 0.95409 0.08176 0.0
C1298 C 0.47929 0.96959 0.07675 0.0
C1299 C 0.49334 0.96149 0.05503 0.0
C1300 C 0.49133 0.97984 0.0346 0.0
C1301 C 0.51968 0.95631 0.06141 0.0
C1302 C 0.48021 0.9386 0.0491 0.0
C1303 C 0.46098 0.93497 0.06431 0.0
C1304 C 0.44765 0.91389 0.06386 0.0
C1305 C 0.45447 0.89585 0.04789 0.0
C1306 C 0.47483 0.89876 0.03298 0.0
C1307 C 0.48742 0.92067 0.03323 0.0
H1308 H 0.72102 0.24926 0.65728 0.0
H1309 H 0.74582 0.29085 0.59689 0.0
H1310 H 0.77839 0.30758 0.6215 0.0
H1311 H 0.74499 0.29044 0.70806 0.0
H1312 H 0.75401 0.26452 0.72509 0.0
H1313 H 0.72758 0.26326 0.70663 0.0
H1314 H 0.74504 0.22617 0.68562 0.0
H1315 H 0.77163 0.22759 0.7031 0.0
H1316 H 0.77372 0.22813 0.67091 0.0
H1317 H 0.81363 0.3109 0.64786 0.0
H1318 H 0.84807 0.30076 0.67357 0.0
H1319 H 0.80273 0.25384 0.71581 0.0
C1320 C 0.73251 0.26295 0.64983 0.0
C1321 C 0.73065 0.26935 0.62551 0.0
C1322 C 0.74655 0.28646 0.61577 0.0
C1323 C 0.76518 0.29591 0.62962 0.0
C1324 C 0.76783 0.28775 0.65308 0.0
C1325 C 0.75175 0.27176 0.66326 0.0
C1326 C 0.76127 0.26186 0.68672 0.0
C1327 C 0.74606 0.27055 0.70788 0.0
C1328 C 0.76304 0.23433 0.68649 0.0
C1329 C 0.78586 0.27317 0.68705 0.0
C1330 C 0.78899 0.28875 0.66803 0.0
C1331 C 0.81117 0.29922 0.66315 0.0
C1332 C 0.83068 0.29323 0.67774 0.0
C1333 C 0.828 0.2764 0.69655 0.0
C1334 C 0.80519 0.26679 0.70156 0.0
H1335 H 0.99475 0.48223 0.90547 0.0
H1336 H 0.96045 0.51332 0.84352 0.0
H1337 H 0.94527 0.54647 0.8684 0.0
H1338 H 0.95343 0.50809 0.95455 0.0
H1339 H 0.97899 0.5141 0.97329 0.0
H1340 H 0.97898 0.48842 0.95379 0.0
H1341 H 0.01871 0.50326 0.93551 0.0
H1342 H 0.01864 0.52929 0.95397 0.0
H1343 H 0.02021 0.53252 0.92189 0.0
H1344 H 0.94225 0.58031 0.8965 0.0
H1345 H 0.95298 0.61263 0.92453 0.0
H1346 H 0.994 0.56219 0.96691 0.0
C1347 C 0.98311 0.49547 0.89754 0.0
C1348 C 0.97824 0.49513 0.87283 0.0
C1349 C 0.96364 0.51302 0.86263 0.0
C1350 C 0.95504 0.53192 0.87665 0.0
C1351 C 0.96166 0.53282 0.90069 0.0
C1352 C 0.97537 0.51498 0.91114 0.0
C1353 C 0.98459 0.52265 0.93547 0.0
C1354 C 0.97331 0.50741 0.95546 0.0
C1355 C 0.01215 0.52191 0.93672 0.0
C1356 C 0.97545 0.5481 0.93623 0.0
C1357 C 0.96141 0.55329 0.91653 0.0
C1358 C 0.95277 0.57631 0.91224 0.0
C1359 C 0.95905 0.59458 0.92819 0.0
C1360 C 0.97442 0.58983 0.94773 0.0
C1361 C 0.9822 0.56621 0.95208 0.0
H1362 H 0.67664 0.73363 0.21461 0.0
H1363 H 0.63314 0.68465 0.17342 0.0
H1364 H 0.66923 0.67026 0.15252 0.0
H1365 H 0.70742 0.75468 0.1722 0.0
H1366 H 0.73614 0.75739 0.18663 0.0
H1367 H 0.70968 0.75691 0.20431 0.0
H1368 H 0.72583 0.72105 0.22849 0.0
H1369 H 0.75292 0.72151 0.21088 0.0
H1370 H 0.73554 0.69437 0.21325 0.0
H1371 H 0.70545 0.67139 0.12783 0.0
H1372 H 0.73797 0.68741 0.10259 0.0
H1373 H 0.76041 0.73364 0.16012 0.0
C1374 C 0.67502 0.7191 0.20192 0.0
C1375 C 0.65228 0.71035 0.19543 0.0
C1376 C 0.65049 0.69149 0.17872 0.0
C1377 C 0.67096 0.68313 0.16685 0.0
C1378 C 0.6931 0.69333 0.17241 0.0
C1379 C 0.69535 0.71045 0.19014 0.0
C1380 C 0.71998 0.72179 0.1898 0.0
C1381 C 0.71816 0.74929 0.18806 0.0
C1382 C 0.73442 0.71421 0.21192 0.0
C1383 C 0.73023 0.71063 0.1673 0.0
C1384 C 0.71482 0.69349 0.15812 0.0
C1385 C 0.71819 0.68391 0.13533 0.0
C1386 C 0.7368 0.69299 0.1211 0.0
C1387 C 0.75199 0.71121 0.12978 0.0
C1388 C 0.74953 0.71907 0.15358 0.0
H1389 H 0.53504 0.47218 0.3418 0.0
H1390 H 0.5339 0.52671 0.3966 0.0
H1391 H 0.54642 0.49678 0.42655 0.0
H1392 H 0.50597 0.43269 0.37076 0.0
H1393 H 0.52123 0.4059 0.36132 0.0
H1394 H 0.52203 0.43203 0.34276 0.0
H1395 H 0.56835 0.43204 0.34313 0.0
H1396 H 0.56786 0.40531 0.36133 0.0
H1397 H 0.58413 0.43135 0.37123 0.0
H1398 H 0.54532 0.4604 0.45148 0.0
H1399 H 0.53401 0.42124 0.46871 0.0
H1400 H 0.53564 0.38951 0.39827 0.0
C1401 C 0.5389 0.47801 0.35985 0.0
C1402 C 0.53372 0.50162 0.36696 0.0
C1403 C 0.53824 0.50876 0.39075 0.0
C1404 C 0.54528 0.4918 0.4079 0.0
C1405 C 0.54816 0.46803 0.40076 0.0
C1406 C 0.54574 0.46124 0.37708 0.0
C1407 C 0.5451 0.43424 0.37456 0.0
C1408 C 0.52222 0.42576 0.36162 0.0
C1409 C 0.56772 0.4252 0.36181 0.0
C1410 C 0.54508 0.42693 0.4006 0.0
C1411 C 0.54764 0.4466 0.41544 0.0
C1412 C 0.5443 0.44478 0.44012 0.0
C1413 C 0.5377 0.42253 0.44975 0.0
C1414 C 0.53447 0.40253 0.4347 0.0
C1415 C 0.53888 0.40454 0.41004 0.0
H1416 H 0.34043 0.23396 0.21947 0.0
H1417 H 0.40725 0.26066 0.19078 0.0
H1418 H 0.38701 0.29732 0.17694 0.0
H1419 H 0.29799 0.26865 0.17458 0.0
H1420 H 0.2772 0.2738 0.1987 0.0
H1421 H 0.29396 0.24625 0.19753 0.0
H1422 H 0.30919 0.25438 0.24012 0.0
H1423 H 0.29328 0.28202 0.24147 0.0
H1424 H 0.32512 0.28176 0.24655 0.0
H1425 H 0.36358 0.33462 0.1771 0.0
H1426 H 0.3386 0.36864 0.19049 0.0
H1427 H 0.28708 0.31888 0.2203 0.0
C1428 C 0.35024 0.24682 0.20871 0.0
C1429 C 0.37512 0.24436 0.20544 0.0
C1430 C 0.388 0.26207 0.19273 0.0
C1431 C 0.37663 0.28297 0.18487 0.0
C1432 C 0.35237 0.28586 0.18995 0.0
C1433 C 0.33913 0.26804 0.20121 0.0
C1434 C 0.31484 0.27737 0.20891 0.0
C1435 C 0.29481 0.26584 0.19403 0.0
C1436 C 0.31042 0.2737 0.23587 0.0
C1437 C 0.31762 0.30358 0.20271 0.0
C1438 C 0.33889 0.308 0.19084 0.0
C1439 C 0.34657 0.33129 0.18578 0.0
C1440 C 0.3324 0.35049 0.19355 0.0
C1441 C 0.31125 0.34619 0.20675 0.0
C1442 C 0.30342 0.32253 0.21062 0.0
H1443 H 0.8134 0.15159 0.78798 0.0
H1444 H 0.7527 0.1816 0.75027 0.0
H1445 H 0.76896 0.22239 0.75647 0.0
H1446 H 0.82518 0.20273 0.83032 0.0
H1447 H 0.85708 0.19954 0.82671 0.0
H1448 H 0.83789 0.17361 0.8248 0.0
H1449 H 0.8551 0.16378 0.78279 0.0
H1450 H 0.87452 0.18927 0.78491 0.0
H1451 H 0.8545 0.18649 0.7598 0.0
H1452 H 0.79424 0.25922 0.76238 0.0
H1453 H 0.82899 0.2865 0.75942 0.0
H1454 H 0.87429 0.23192 0.79051 0.0
C1455 C 0.80312 0.16684 0.78184 0.0
C1456 C 0.78162 0.16358 0.76909 0.0
C1457 C 0.76912 0.18382 0.76033 0.0
C1458 C 0.7781 0.20704 0.764 0.0
C1459 C 0.79965 0.20968 0.77635 0.0
C1460 C 0.81214 0.19002 0.78484 0.0
C1461 C 0.83688 0.19698 0.79332 0.0
C1462 C 0.83939 0.19298 0.8204 0.0
C1463 C 0.85638 0.18334 0.77936 0.0
C1464 C 0.83687 0.22341 0.78726 0.0
C1465 C 0.8149 0.23067 0.77845 0.0
C1466 C 0.81137 0.25383 0.76964 0.0
C1467 C 0.83116 0.26937 0.76828 0.0
C1468 C 0.85419 0.26126 0.77494 0.0
C1469 C 0.85672 0.2386 0.7858 0.0
H1470 H 0.02176 0.62891 0.04204 0.0
H1471 H 0.96243 0.58879 0.01262 0.0
H1472 H 0.98631 0.55172 0.01494 0.0
H1473 H 0.06388 0.60558 0.01032 0.0
H1474 H 0.08732 0.60382 0.03238 0.0
H1475 H 0.06384 0.62537 0.03575 0.0
H1476 H 0.05318 0.60845 0.07759 0.0
H1477 H 0.0772 0.5871 0.07477 0.0
H1478 H 0.04723 0.5769 0.08116 0.0
H1479 H 0.02006 0.52316 0.00829 0.0
H1480 H 0.0589 0.50363 -4e-05 0.0
H1481 H 0.09576 0.56122 0.03647 0.0
C1482 C 0.01336 0.61202 0.03756 0.0
C1483 C 0.99031 0.61155 0.0274 0.0
C1484 C 0.97991 0.58938 0.02098 0.0
C1485 C 0.99345 0.56825 0.02207 0.0
C1486 C 0.01697 0.5696 0.0304 0.0
C1487 C 0.02653 0.5908 0.03894 0.0
C1488 C 0.05302 0.58837 0.04404 0.0
C1489 C 0.06785 0.60686 0.02976 0.0
C1490 C 0.05794 0.59031 0.071 0.0
C1491 C 0.05732 0.56319 0.0352 0.0
C1492 C 0.0363 0.5525 0.02761 0.0
C1493 C 0.03646 0.53087 0.01515 0.0
C1494 C 0.05859 0.52001 0.01031 0.0
C1495 C 0.08021 0.53075 0.01801 0.0
C1496 C 0.07942 0.55224 0.03113 0.0
H1497 H 0.67275 0.85714 0.24454 0.0
H1498 H 0.73509 0.8165 0.2659 0.0
H1499 H 0.70939 0.78052 0.27248 0.0
H1500 H 0.63182 0.8323 0.28695 0.0
H1501 H 0.60694 0.83234 0.26644 0.0
H1502 H 0.63043 0.85425 0.26327 0.0
H1503 H 0.6378 0.84103 0.21937 0.0
H1504 H 0.61387 0.81963 0.22223 0.0
H1505 H 0.64319 0.80985 0.21306 0.0
H1506 H 0.67591 0.74859 0.27445 0.0
H1507 H 0.63923 0.72397 0.26934 0.0
H1508 H 0.59957 0.78785 0.25025 0.0
C1509 C 0.68093 0.84055 0.25042 0.0
C1510 C 0.70566 0.83915 0.25445 0.0
C1511 C 0.71603 0.8175 0.26246 0.0
C1512 C 0.70158 0.79718 0.2664 0.0
C1513 C 0.67694 0.79921 0.26258 0.0
C1514 C 0.66684 0.82042 0.25468 0.0
C1515 C 0.64019 0.81822 0.25132 0.0
C1516 C 0.62655 0.83529 0.268 0.0
C1517 C 0.63337 0.82242 0.22494 0.0
C1518 C 0.63666 0.79243 0.25857 0.0
C1519 C 0.65795 0.78155 0.26493 0.0
C1520 C 0.65909 0.75705 0.26996 0.0
C1521 C 0.63813 0.74323 0.26732 0.0
C1522 C 0.61656 0.75413 0.25973 0.0
C1523 C 0.61573 0.77913 0.2565 0.0
H1524 H 0.42279 0.45099 0.4933 0.0
H1525 H 0.38136 0.40952 0.54442 0.0
H1526 H 0.41709 0.38546 0.55396 0.0
H1527 H 0.45453 0.40588 0.46862 0.0
H1528 H 0.48224 0.42232 0.46567 0.0
H1529 H 0.45441 0.43813 0.46656 0.0
H1530 H 0.47106 0.46301 0.50207 0.0
H1531 H 0.49855 0.44611 0.50146 0.0
H1532 H 0.48131 0.44787 0.52867 0.0
H1533 H 0.45336 0.36064 0.55101 0.0
H1534 H 0.48722 0.33707 0.53528 0.0
H1535 H 0.50768 0.39643 0.48997 0.0
C1536 C 0.42143 0.43709 0.50679 0.0
C1537 C 0.39936 0.4319 0.51797 0.0
C1538 C 0.39815 0.41375 0.53565 0.0
C1539 C 0.41839 0.40013 0.54133 0.0
C1540 C 0.43985 0.40537 0.5297 0.0
C1541 C 0.44161 0.42366 0.51304 0.0
C1542 C 0.46609 0.42412 0.50141 0.0
C1543 C 0.46417 0.42246 0.47396 0.0
C1544 C 0.48008 0.44661 0.50887 0.0
C1545 C 0.47692 0.40175 0.51237 0.0
C1546 C 0.46175 0.39159 0.52918 0.0
C1547 C 0.46589 0.36883 0.53867 0.0
C1548 C 0.48522 0.35558 0.52978 0.0
C1549 C 0.50023 0.36532 0.51192 0.0
C1550 C 0.49682 0.38906 0.50414 0.0
H1551 H 0.21065 0.68483 0.736 0.0
H1552 H 0.16493 0.63326 0.70072 0.0
H1553 H 0.13741 0.66587 0.6889 0.0
H1554 H 0.16876 0.715 0.76246 0.0
H1555 H 0.18185 0.74433 0.75955 0.0
H1556 H 0.20067 0.71869 0.7589 0.0
H1557 H 0.2176 0.73201 0.71798 0.0
H1558 H 0.19868 0.75816 0.71846 0.0
H1559 H 0.19752 0.7379 0.69344 0.0
H1560 H 0.11064 0.70119 0.69048 0.0
H1561 H 0.08717 0.73538 0.70549 0.0
H1562 H 0.15108 0.76578 0.73671 0.0
C1563 C 0.19528 0.68059 0.72504 0.0
C1564 C 0.18978 0.65665 0.71937 0.0
C1565 C 0.16946 0.65157 0.70519 0.0
C1566 C 0.15385 0.67002 0.69826 0.0
C1567 C 0.15927 0.69347 0.70501 0.0
C1568 C 0.17986 0.69883 0.71763 0.0
C1569 C 0.17994 0.72455 0.72596 0.0
C1570 C 0.18292 0.72566 0.75332 0.0
C1571 C 0.19961 0.73901 0.71318 0.0
C1572 C 0.15524 0.73241 0.7179 0.0
C1573 C 0.14387 0.71439 0.70522 0.0
C1574 C 0.11963 0.7158 0.69945 0.0
C1575 C 0.10642 0.73538 0.70788 0.0
C1576 C 0.11751 0.75344 0.72162 0.0
C1577 C 0.14244 0.7526 0.7255 0.0
H1578 H 0.52779 0.85154 0.9472 0.0
H1579 H 0.46597 0.89704 0.95726 0.0
H1580 H 0.49136 0.93279 0.95082 0.0
H1581 H 0.5638 0.88194 0.98146 0.0
H1582 H 0.59113 0.87821 0.9647 0.0
H1583 H 0.56758 0.8566 0.9619 0.0
H1584 H 0.56641 0.86311 0.91602 0.0
H1585 H 0.59041 0.88461 0.91854 0.0
H1586 H 0.56279 0.89292 0.90411 0.0
H1587 H 0.52456 0.96274 0.95417 0.0
H1588 H 0.56191 0.98376 0.96543 0.0
H1589 H 0.6022 0.91875 0.95399 0.0
C1590 C 0.51941 0.86901 0.94669 0.0
C1591 C 0.49495 0.8716 0.95238 0.0
C1592 C 0.48458 0.89467 0.95235 0.0
C1593 C 0.49894 0.91508 0.94883 0.0
C1594 C 0.52347 0.91198 0.94493 0.0
C1595 C 0.53352 0.88941 0.94335 0.0
C1596 C 0.56061 0.8906 0.94322 0.0
C1597 C 0.57138 0.876 0.96406 0.0
C1598 C 0.57064 0.88233 0.91903 0.0
C1599 C 0.56434 0.91718 0.94664 0.0
C1600 C 0.54275 0.92934 0.94703 0.0
C1601 C 0.54155 0.9535 0.95323 0.0
C1602 C 0.56276 0.96525 0.95988 0.0
C1603 C 0.58473 0.95276 0.96047 0.0
C1604 C 0.58565 0.92877 0.9529 0.0
H1605 H 0.87949 0.07542 0.4678 0.0
H1606 H 0.92473 0.01294 0.46276 0.0
H1607 H 0.95865 0.03839 0.44995 0.0
H1608 H 0.91202 0.11353 0.41865 0.0
H1609 H 0.9077 0.14003 0.43645 0.0
H1610 H 0.88536 0.11666 0.43655 0.0
H1611 H 0.88818 0.11401 0.48278 0.0
H1612 H 0.91031 0.13718 0.48277 0.0
H1613 H 0.91692 0.10867 0.49648 0.0
H1614 H 0.9891 0.07028 0.44875 0.0
H1615 H 0.01315 0.10493 0.46181 0.0
H1616 H 0.94865 0.14729 0.46797 0.0
C1617 C 0.89627 0.06716 0.4627 0.0
C1618 C 0.89974 0.04248 0.46597 0.0
C1619 C 0.92193 0.03195 0.4602 0.0
C1620 C 0.94116 0.04625 0.45267 0.0
C1621 C 0.9377 0.07094 0.45085 0.0
C1622 C 0.91563 0.0813 0.45545 0.0
C1623 C 0.91756 0.10825 0.45716 0.0
C1624 C 0.90491 0.12032 0.43593 0.0
C1625 C 0.9077 0.11753 0.48122 0.0
C1626 C 0.9444 0.11123 0.45533 0.0
C1627 C 0.95566 0.08969 0.45055 0.0
C1628 C 0.98053 0.08739 0.45166 0.0
C1629 C 0.99409 0.10717 0.45904 0.0
C1630 C 0.98259 0.12867 0.4657 0.0
C1631 C 0.95773 0.13107 0.46252 0.0
loop_
_geom_bond_atom_site_label_1
_geom_bond_atom_site_label_2
_geom_bond_distance
_geom_bond_site_symmetry_2
_ccdc_geom_bond_type
Co0 O1 2.216 . S
Co0 O2 2.091 . S
Co0 O4 2.004 . S
Co0 O10 2.021 . S
Co0 O12 2.137 . S
Co0 O13 2.244 . S
O1 Co0 2.216 . S
O1 C8 1.247 . S
O2 Co0 2.091 . S
O2 C8 1.261 . S
C3 O12 1.247 . S
C3 O13 1.272 . S
O4 Co0 2.004 . S
O4 C9 1.259 . S
Co5 O6 2.061 . S
Co5 O11 2.052 . S
Co5 O13 2.135 . S
O6 Co5 2.061 . S
O6 C9 1.235 . S
C7 O10 1.238 . S
C7 O11 1.241 . S
C8 O1 1.247 . S
C8 O2 1.261 . S
C9 O4 1.259 . S
C9 O6 1.235 . S
O10 Co0 2.021 . S
O10 C7 1.238 . S
O11 Co5 2.052 . S
O11 C7 1.241 . S
O12 Co0 2.137 . S
O12 C3 1.247 . S
O13 Co0 2.244 . S
O13 C3 1.272 . S
O13 Co5 2.135 . S
Co14 O15 2.216 . S
Co14 O16 2.091 . S
Co14 O18 2.004 . S
Co14 O24 2.021 . S
Co14 O26 2.137 . S
Co14 O27 2.244 . S
O15 Co14 2.216 . S
O15 C22 1.247 . S
O16 Co14 2.091 . S
O16 C22 1.261 . S
C17 O26 1.247 . S
C17 O27 1.272 . S
O18 Co14 2.004 . S
O18 C23 1.259 . S
Co19 O20 2.061 . S
Co19 O25 2.052 . S
Co19 O27 2.135 . S
O20 Co19 2.061 . S
O20 C23 1.235 . S
C21 O24 1.238 . S
C21 O25 1.241 . S
C22 O15 1.247 . S
C22 O16 1.261 . S
C23 O18 1.259 . S
C23 O20 1.235 . S
O24 Co14 2.021 . S
O24 C21 1.238 . S
O25 Co19 2.052 . S
O25 C21 1.241 . S
O26 Co14 2.137 . S
O26 C17 1.247 . S
O27 Co14 2.244 . S
O27 C17 1.272 . S
O27 Co19 2.135 . S
Co28 O29 2.216 . S
Co28 O30 2.091 . S
Co28 O32 2.004 . S
Co28 O38 2.021 . S
Co28 O40 2.137 . S
Co28 O41 2.244 . S
O29 Co28 2.216 . S
O29 C36 1.247 . S
O30 Co28 2.091 . S
O30 C36 1.261 . S
C31 O40 1.247 . S
C31 O41 1.272 . S
O32 Co28 2.004 . S
O32 C37 1.259 . S
Co33 O34 2.061 . S
Co33 O39 2.052 . S
Co33 O41 2.135 . S
O34 Co33 2.061 . S
O34 C37 1.235 . S
C35 O38 1.238 . S
C35 O39 1.241 . S
C36 O29 1.247 . S
C36 O30 1.261 . S
C37 O32 1.259 . S
C37 O34 1.235 . S
O38 Co28 2.021 . S
O38 C35 1.238 . S
O39 Co33 2.052 . S
O39 C35 1.241 . S
O40 Co28 2.137 . S
O40 C31 1.247 . S
O41 Co28 2.244 . S
O41 C31 1.272 . S
O41 Co33 2.135 . S
Co42 O43 2.216 . S
Co42 O44 2.091 . S
Co42 O46 2.004 . S
Co42 O52 2.021 . S
Co42 O54 2.137 . S
Co42 O55 2.244 . S
O43 Co42 2.216 . S
O43 C50 1.247 . S
O44 Co42 2.091 . S
O44 C50 1.261 . S
C45 O54 1.247 . S
C45 O55 1.272 . S
O46 Co42 2.004 . S
O46 C51 1.259 . S
Co47 O48 2.061 . S
Co47 O53 2.052 . S
Co47 O55 2.135 . S
O48 Co47 2.061 . S
O48 C51 1.235 . S
C49 O52 1.238 . S
C49 O53 1.241 . S
C50 O43 1.247 . S
C50 O44 1.261 . S
C51 O46 1.259 . S
C51 O48 1.235 . S
O52 Co42 2.021 . S
O52 C49 1.238 . S
O53 Co47 2.052 . S
O53 C49 1.241 . S
O54 Co42 2.137 . S
O54 C45 1.247 . S
O55 Co42 2.244 . S
O55 C45 1.272 . S
O55 Co47 2.135 . S
Co56 O57 2.216 . S
Co56 O58 2.091 . S
Co56 O60 2.004 . S
Co56 O66 2.021 . S
Co56 O68 2.137 . S
Co56 O69 2.244 . S
O57 Co56 2.216 . S
O57 C64 1.247 . S
O58 Co56 2.091 . S
O58 C64 1.261 . S
C59 O68 1.247 . S
C59 O69 1.272 . S
O60 Co56 2.004 . S
O60 C65 1.259 . S
Co61 O62 2.061 . S
Co61 O67 2.052 . S
Co61 O69 2.135 . S
O62 Co61 2.061 . S
O62 C65 1.235 . S
C63 O66 1.238 . S
C63 O67 1.241 . S
C64 O57 1.247 . S
C64 O58 1.261 . S
C65 O60 1.259 . S
C65 O62 1.235 . S
O66 Co56 2.021 . S
O66 C63 1.238 . S
O67 Co61 2.052 . S
O67 C63 1.241 . S
O68 Co56 2.137 . S
O68 C59 1.247 . S
O69 Co56 2.244 . S
O69 C59 1.272 . S
O69 Co61 2.135 . S
Co70 O71 2.216 . S
Co70 O72 2.091 . S
Co70 O74 2.004 . S
Co70 O80 2.021 . S
Co70 O82 2.137 . S
Co70 O83 2.244 . S
O71 Co70 2.216 . S
O71 C78 1.247 . S
O72 Co70 2.091 . S
O72 C78 1.261 . S
C73 O82 1.247 . S
C73 O83 1.272 . S
O74 Co70 2.004 . S
O74 C79 1.259 . S
Co75 O76 2.061 . S
Co75 O81 2.052 . S
Co75 O83 2.135 . S
O76 Co75 2.061 . S
O76 C79 1.235 . S
C77 O80 1.238 . S
C77 O81 1.241 . S
C78 O71 1.247 . S
C78 O72 1.261 . S
C79 O74 1.259 . S
C79 O76 1.235 . S
O80 Co70 2.021 . S
O80 C77 1.238 . S
O81 Co75 2.052 . S
O81 C77 1.241 . S
O82 Co70 2.137 . S
O82 C73 1.247 . S
O83 Co70 2.244 . S
O83 C73 1.272 . S
O83 Co75 2.135 . S
Co84 O85 2.216 . S
Co84 O86 2.091 . S
Co84 O88 2.004 . S
Co84 O94 2.021 . S
Co84 O96 2.137 . S
Co84 O97 2.244 . S
O85 Co84 2.216 . S
O85 C92 1.247 . S
O86 Co84 2.091 . S
O86 C92 1.261 . S
C87 O96 1.247 . S
C87 O97 1.272 . S
O88 Co84 2.004 . S
O88 C93 1.259 . S
Co89 O90 2.061 . S
Co89 O95 2.052 . S
Co89 O97 2.135 . S
O90 Co89 2.061 . S
O90 C93 1.235 . S
C91 O94 1.238 . S
C91 O95 1.241 . S
C92 O85 1.247 . S
C92 O86 1.261 . S
C93 O88 1.259 . S
C93 O90 1.235 . S
O94 Co84 2.021 . S
O94 C91 1.238 . S
O95 Co89 2.052 . S
O95 C91 1.241 . S
O96 Co84 2.137 . S
O96 C87 1.247 . S
O97 Co84 2.244 . S
O97 C87 1.272 . S
O97 Co89 2.135 . S
Co98 O99 2.216 . S
Co98 O100 2.091 . S
Co98 O102 2.004 . S
Co98 O108 2.021 . S
Co98 O110 2.137 . S
Co98 O111 2.244 . S
O99 Co98 2.216 . S
O99 C106 1.247 . S
O100 Co98 2.091 . S
O100 C106 1.261 . S
C101 O110 1.247 . S
C101 O111 1.272 . S
O102 Co98 2.004 . S
O102 C107 1.259 . S
Co103 O104 2.061 . S
Co103 O109 2.052 . S
Co103 O111 2.135 . S
O104 Co103 2.061 . S
O104 C107 1.235 . S
C105 O108 1.238 . S
C105 O109 1.241 . S
C106 O99 1.247 . S
C106 O100 1.261 . S
C107 O102 1.259 . S
C107 O104 1.235 . S
O108 Co98 2.021 . S
O108 C105 1.238 . S
O109 Co103 2.052 . S
O109 C105 1.241 . S
O110 Co98 2.137 . S
O110 C101 1.247 . S
O111 Co98 2.244 . S
O111 C101 1.272 . S
O111 Co103 2.135 . S
Co112 O113 2.216 . S
Co112 O114 2.091 . S
Co112 O116 2.004 . S
Co112 O122 2.021 . S
Co112 O124 2.137 . S
Co112 O125 2.244 . S
O113 Co112 2.216 . S
O113 C120 1.247 . S
O114 Co112 2.091 . S
O114 C120 1.261 . S
C115 O124 1.247 . S
C115 O125 1.272 . S
O116 Co112 2.004 . S
O116 C121 1.259 . S
Co117 O118 2.061 . S
Co117 O123 2.052 . S
Co117 O125 2.135 . S
O118 Co117 2.061 . S
O118 C121 1.235 . S
C119 O122 1.238 . S
C119 O123 1.241 . S
C120 O113 1.247 . S
C120 O114 1.261 . S
C121 O116 1.259 . S
C121 O118 1.235 . S
O122 Co112 2.021 . S
O122 C119 1.238 . S
O123 Co117 2.052 . S
O123 C119 1.241 . S
O124 Co112 2.137 . S
O124 C115 1.247 . S
O125 Co112 2.244 . S
O125 C115 1.272 . S
O125 Co117 2.135 . S
Co126 O127 2.216 . S
Co126 O128 2.091 . S
Co126 O130 2.004 . S
Co126 O136 2.021 . S
Co126 O138 2.137 . S
Co126 O139 2.244 . S
O127 Co126 2.216 . S
O127 C134 1.247 . S
O128 Co126 2.091 . S
O128 C134 1.261 . S
C129 O138 1.247 . S
C129 O139 1.272 . S
O130 Co126 2.004 . S
O130 C135 1.259 . S
Co131 O132 2.061 . S
Co131 O137 2.052 . S
Co131 O139 2.135 . S
O132 Co131 2.061 . S
O132 C135 1.235 . S
C133 O136 1.238 . S
C133 O137 1.241 . S
C134 O127 1.247 . S
C134 O128 1.261 . S
C135 O130 1.259 . S
C135 O132 1.235 . S
O136 Co126 2.021 . S
O136 C133 1.238 . S
O137 Co131 2.052 . S
O137 C133 1.241 . S
O138 Co126 2.137 . S
O138 C129 1.247 . S
O139 Co126 2.244 . S
O139 C129 1.272 . S
O139 Co131 2.135 . S
Co140 O141 2.216 . S
Co140 O142 2.091 . S
Co140 O144 2.004 . S
Co140 O150 2.021 . S
Co140 O152 2.137 . S
Co140 O153 2.244 . S
O141 Co140 2.216 . S
O141 C148 1.247 . S
O142 Co140 2.091 . S
O142 C148 1.261 . S
C143 O152 1.247 . S
C143 O153 1.272 . S
O144 Co140 2.004 . S
O144 C149 1.259 . S
Co145 O146 2.061 . S
Co145 O151 2.052 . S
Co145 O153 2.135 . S
O146 Co145 2.061 . S
O146 C149 1.235 . S
C147 O150 1.238 . S
C147 O151 1.241 . S
C148 O141 1.247 . S
C148 O142 1.261 . S
C149 O144 1.259 . S
C149 O146 1.235 . S
O150 Co140 2.021 . S
O150 C147 1.238 . S
O151 Co145 2.052 . S
O151 C147 1.241 . S
O152 Co140 2.137 . S
O152 C143 1.247 . S
O153 Co140 2.244 . S
O153 C143 1.272 . S
O153 Co145 2.135 . S
Co154 O155 2.216 . S
Co154 O156 2.091 . S
Co154 O158 2.004 . S
Co154 O164 2.021 . S
Co154 O166 2.137 . S
Co154 O167 2.244 . S
O155 Co154 2.216 . S
O155 C162 1.247 . S
O156 Co154 2.091 . S
O156 C162 1.261 . S
C157 O166 1.247 . S
C157 O167 1.272 . S
O158 Co154 2.004 . S
O158 C163 1.259 . S
Co159 O160 2.061 . S
Co159 O165 2.052 . S
Co159 O167 2.135 . S
O160 Co159 2.061 . S
O160 C163 1.235 . S
C161 O164 1.238 . S
C161 O165 1.241 . S
C162 O155 1.247 . S
C162 O156 1.261 . S
C163 O158 1.259 . S
C163 O160 1.235 . S
O164 Co154 2.021 . S
O164 C161 1.238 . S
O165 Co159 2.052 . S
O165 C161 1.241 . S
O166 Co154 2.137 . S
O166 C157 1.247 . S
O167 Co154 2.244 . S
O167 C157 1.272 . S
O167 Co159 2.135 . S
Co168 O169 2.216 . S
Co168 O170 2.091 . S
Co168 O172 2.004 . S
Co168 O178 2.021 . S
Co168 O180 2.137 . S
Co168 O181 2.244 . S
O169 Co168 2.216 . S
O169 C176 1.247 . S
O170 Co168 2.091 . S
O170 C176 1.261 . S
C171 O180 1.247 . S
C171 O181 1.272 . S
O172 Co168 2.004 . S
O172 C177 1.259 . S
Co173 O174 2.061 . S
Co173 O179 2.052 . S
Co173 O181 2.135 . S
O174 Co173 2.061 . S
O174 C177 1.235 . S
C175 O178 1.238 . S
C175 O179 1.241 . S
C176 O169 1.247 . S
C176 O170 1.261 . S
C177 O172 1.259 . S
C177 O174 1.235 . S
O178 Co168 2.021 . S
O178 C175 1.238 . S
O179 Co173 2.052 . S
O179 C175 1.241 . S
O180 Co168 2.137 . S
O180 C171 1.247 . S
O181 Co168 2.244 . S
O181 C171 1.272 . S
O181 Co173 2.135 . S
Co182 O183 2.216 . S
Co182 O184 2.091 . S
Co182 O186 2.004 . S
Co182 O192 2.021 . S
Co182 O194 2.137 . S
Co182 O195 2.244 . S
O183 Co182 2.216 . S
O183 C190 1.247 . S
O184 Co182 2.091 . S
O184 C190 1.261 . S
C185 O194 1.247 . S
C185 O195 1.272 . S
O186 Co182 2.004 . S
O186 C191 1.259 . S
Co187 O188 2.061 . S
Co187 O193 2.052 . S
Co187 O195 2.135 . S
O188 Co187 2.061 . S
O188 C191 1.235 . S
C189 O192 1.238 . S
C189 O193 1.241 . S
C190 O183 1.247 . S
C190 O184 1.261 . S
C191 O186 1.259 . S
C191 O188 1.235 . S
O192 Co182 2.021 . S
O192 C189 1.238 . S
O193 Co187 2.052 . S
O193 C189 1.241 . S
O194 Co182 2.137 . S
O194 C185 1.247 . S
O195 Co182 2.244 . S
O195 C185 1.272 . S
O195 Co187 2.135 . S
Co196 O197 2.216 . S
Co196 O198 2.091 . S
Co196 O200 2.004 . S
Co196 O206 2.021 . S
Co196 O208 2.137 . S
Co196 O209 2.244 . S
O197 Co196 2.216 . S
O197 C204 1.247 . S
O198 Co196 2.091 . S
O198 C204 1.261 . S
C199 O208 1.247 . S
C199 O209 1.272 . S
O200 Co196 2.004 . S
O200 C205 1.259 . S
Co201 O202 2.061 . S
Co201 O207 2.052 . S
Co201 O209 2.135 . S
O202 Co201 2.061 . S
O202 C205 1.235 . S
C203 O206 1.238 . S
C203 O207 1.241 . S
C204 O197 1.247 . S
C204 O198 1.261 . S
C205 O200 1.259 . S
C205 O202 1.235 . S
O206 Co196 2.021 . S
O206 C203 1.238 . S
O207 Co201 2.052 . S
O207 C203 1.241 . S
O208 Co196 2.137 . S
O208 C199 1.247 . S
O209 Co196 2.244 . S
O209 C199 1.272 . S
O209 Co201 2.135 . S
Co210 O211 2.216 . S
Co210 O212 2.091 . S
Co210 O214 2.004 . S
Co210 O220 2.021 . S
Co210 O222 2.137 . S
Co210 O223 2.244 . S
O211 Co210 2.216 . S
O211 C218 1.247 . S
O212 Co210 2.091 . S
O212 C218 1.261 . S
C213 O222 1.247 . S
C213 O223 1.272 . S
O214 Co210 2.004 . S
O214 C219 1.259 . S
Co215 O216 2.061 . S
Co215 O221 2.052 . S
Co215 O223 2.135 . S
O216 Co215 2.061 . S
O216 C219 1.235 . S
C217 O220 1.238 . S
C217 O221 1.241 . S
C218 O211 1.247 . S
C218 O212 1.261 . S
C219 O214 1.259 . S
C219 O216 1.235 . S
O220 Co210 2.021 . S
O220 C217 1.238 . S
O221 Co215 2.052 . S
O221 C217 1.241 . S
O222 Co210 2.137 . S
O222 C213 1.247 . S
O223 Co210 2.244 . S
O223 C213 1.272 . S
O223 Co215 2.135 . S
Co224 O225 2.216 . S
Co224 O226 2.091 . S
Co224 O228 2.004 . S
Co224 O234 2.021 . S
Co224 O236 2.137 . S
Co224 O237 2.244 . S
O225 Co224 2.216 . S
O225 C232 1.247 . S
O226 Co224 2.091 . S
O226 C232 1.261 . S
C227 O236 1.247 . S
C227 O237 1.272 . S
O228 Co224 2.004 . S
O228 C233 1.259 . S
Co229 O230 2.061 . S
Co229 O235 2.052 . S
Co229 O237 2.135 . S
O230 Co229 2.061 . S
O230 C233 1.235 . S
C231 O234 1.238 . S
C231 O235 1.241 . S
C232 O225 1.247 . S
C232 O226 1.261 . S
C233 O228 1.259 . S
C233 O230 1.235 . S
O234 Co224 2.021 . S
O234 C231 1.238 . S
O235 Co229 2.052 . S
O235 C231 1.241 . S
O236 Co224 2.137 . S
O236 C227 1.247 . S
O237 Co224 2.244 . S
O237 C227 1.272 . S
O237 Co229 2.135 . S
Co238 O239 2.216 . S
Co238 O240 2.091 . S
Co238 O242 2.004 . S
Co238 O248 2.021 . S
Co238 O250 2.137 . S
Co238 O251 2.244 . S
O239 Co238 2.216 . S
O239 C246 1.247 . S
O240 Co238 2.091 . S
O240 C246 1.261 . S
C241 O250 1.247 . S
C241 O251 1.272 . S
O242 Co238 2.004 . S
O242 C247 1.259 . S
Co243 O244 2.061 . S
Co243 O249 2.052 . S
Co243 O251 2.135 . S
O244 Co243 2.061 . S
O244 C247 1.235 . S
C245 O248 1.238 . S
C245 O249 1.241 . S
C246 O239 1.247 . S
C246 O240 1.261 . S
C247 O242 1.259 . S
C247 O244 1.235 . S
O248 Co238 2.021 . S
O248 C245 1.238 . S
O249 Co243 2.052 . S
O249 C245 1.241 . S
O250 Co238 2.137 . S
O250 C241 1.247 . S
O251 Co238 2.244 . S
O251 C241 1.272 . S
O251 Co243 2.135 . S
Co252 O253 2.216 . S
Co252 O254 2.091 . S
Co252 O256 2.004 . S
Co252 O262 2.021 . S
Co252 O264 2.137 . S
Co252 O265 2.244 . S
O253 Co252 2.216 . S
O253 C260 1.247 . S
O254 Co252 2.091 . S
O254 C260 1.261 . S
C255 O264 1.247 . S
C255 O265 1.272 . S
O256 Co252 2.004 . S
O256 C261 1.259 . S
Co257 O258 2.061 . S
Co257 O263 2.052 . S
Co257 O265 2.135 . S
O258 Co257 2.061 . S
O258 C261 1.235 . S
C259 O262 1.238 . S
C259 O263 1.241 . S
C260 O253 1.247 . S
C260 O254 1.261 . S
C261 O256 1.259 . S
C261 O258 1.235 . S
O262 Co252 2.021 . S
O262 C259 1.238 . S
O263 Co257 2.052 . S
O263 C259 1.241 . S
O264 Co252 2.137 . S
O264 C255 1.247 . S
O265 Co252 2.244 . S
O265 C255 1.272 . S
O265 Co257 2.135 . S
Co266 O267 2.216 . S
Co266 O268 2.091 . S
Co266 O270 2.004 . S
Co266 O276 2.021 . S
Co266 O278 2.137 . S
Co266 O279 2.244 . S
O267 Co266 2.216 . S
O267 C274 1.247 . S
O268 Co266 2.091 . S
O268 C274 1.261 . S
C269 O278 1.247 . S
C269 O279 1.272 . S
O270 Co266 2.004 . S
O270 C275 1.259 . S
Co271 O272 2.061 . S
Co271 O277 2.052 . S
Co271 O279 2.135 . S
O272 Co271 2.061 . S
O272 C275 1.235 . S
C273 O276 1.238 . S
C273 O277 1.241 . S
C274 O267 1.247 . S
C274 O268 1.261 . S
C275 O270 1.259 . S
C275 O272 1.235 . S
O276 Co266 2.021 . S
O276 C273 1.238 . S
O277 Co271 2.052 . S
O277 C273 1.241 . S
O278 Co266 2.137 . S
O278 C269 1.247 . S
O279 Co266 2.244 . S
O279 C269 1.272 . S
O279 Co271 2.135 . S
Co280 O281 2.216 . S
Co280 O282 2.091 . S
Co280 O284 2.004 . S
Co280 O290 2.021 . S
Co280 O292 2.137 . S
Co280 O293 2.244 . S
O281 Co280 2.216 . S
O281 C288 1.247 . S
O282 Co280 2.091 . S
O282 C288 1.261 . S
C283 O292 1.247 . S
C283 O293 1.272 . S
O284 Co280 2.004 . S
O284 C289 1.259 . S
Co285 O286 2.061 . S
Co285 O291 2.052 . S
Co285 O293 2.135 . S
O286 Co285 2.061 . S
O286 C289 1.235 . S
C287 O290 1.238 . S
C287 O291 1.241 . S
C288 O281 1.247 . S
C288 O282 1.261 . S
C289 O284 1.259 . S
C289 O286 1.235 . S
O290 Co280 2.021 . S
O290 C287 1.238 . S
O291 Co285 2.052 . S
O291 C287 1.241 . S
O292 Co280 2.137 . S
O292 C283 1.247 . S
O293 Co280 2.244 . S
O293 C283 1.272 . S
O293 Co285 2.135 . S
Co294 O295 2.216 . S
Co294 O296 2.091 . S
Co294 O298 2.004 . S
Co294 O304 2.021 . S
Co294 O306 2.137 . S
Co294 O307 2.244 . S
O295 Co294 2.216 . S
O295 C302 1.247 . S
O296 Co294 2.091 . S
O296 C302 1.261 . S
C297 O306 1.247 . S
C297 O307 1.272 . S
O298 Co294 2.004 . S
O298 C303 1.259 . S
Co299 O300 2.061 . S
Co299 O305 2.052 . S
Co299 O307 2.135 . S
O300 Co299 2.061 . S
O300 C303 1.235 . S
C301 O304 1.238 . S
C301 O305 1.241 . S
C302 O295 1.247 . S
C302 O296 1.261 . S
C303 O298 1.259 . S
C303 O300 1.235 . S
O304 Co294 2.021 . S
O304 C301 1.238 . S
O305 Co299 2.052 . S
O305 C301 1.241 . S
O306 Co294 2.137 . S
O306 C297 1.247 . S
O307 Co294 2.244 . S
O307 C297 1.272 . S
O307 Co299 2.135 . S
Co308 O309 2.216 . S
Co308 O310 2.091 . S
Co308 O312 2.004 . S
Co308 O318 2.021 . S
Co308 O320 2.137 . S
Co308 O321 2.244 . S
O309 Co308 2.216 . S
O309 C316 1.247 . S
O310 Co308 2.091 . S
O310 C316 1.261 . S
C311 O320 1.247 . S
C311 O321 1.272 . S
O312 Co308 2.004 . S
O312 C317 1.259 . S
Co313 O314 2.061 . S
Co313 O319 2.052 . S
Co313 O321 2.135 . S
O314 Co313 2.061 . S
O314 C317 1.235 . S
C315 O318 1.238 . S
C315 O319 1.241 . S
C316 O309 1.247 . S
C316 O310 1.261 . S
C317 O312 1.259 . S
C317 O314 1.235 . S
O318 Co308 2.021 . S
O318 C315 1.238 . S
O319 Co313 2.052 . S
O319 C315 1.241 . S
O320 Co308 2.137 . S
O320 C311 1.247 . S
O321 Co308 2.244 . S
O321 C311 1.272 . S
O321 Co313 2.135 . S
Co322 O323 2.216 . S
Co322 O324 2.091 . S
Co322 O326 2.004 . S
Co322 O332 2.021 . S
Co322 O334 2.137 . S
Co322 O335 2.244 . S
O323 Co322 2.216 . S
O323 C330 1.247 . S
O324 Co322 2.091 . S
O324 C330 1.261 . S
C325 O334 1.247 . S
C325 O335 1.272 . S
O326 Co322 2.004 . S
O326 C331 1.259 . S
Co327 O328 2.061 . S
Co327 O333 2.052 . S
Co327 O335 2.135 . S
O328 Co327 2.061 . S
O328 C331 1.235 . S
C329 O332 1.238 . S
C329 O333 1.241 . S
C330 O323 1.247 . S
C330 O324 1.261 . S
C331 O326 1.259 . S
C331 O328 1.235 . S
O332 Co322 2.021 . S
O332 C329 1.238 . S
O333 Co327 2.052 . S
O333 C329 1.241 . S
O334 Co322 2.137 . S
O334 C325 1.247 . S
O335 Co322 2.244 . S
O335 C325 1.272 . S
O335 Co327 2.135 . S
H336 C348 0.930 . S
H337 C350 0.930 . S
H338 C351 0.930 . S
H339 C355 0.959 . S
H340 C355 0.959 . S
H341 C355 0.961 . S
H342 C356 0.960 . S
H343 C356 0.961 . S
H344 C356 0.959 . S
H345 C359 0.929 . S
H346 C360 0.931 . S
H347 C362 0.930 . S
C348 H336 0.930 . S
C348 C349 1.399 . S
C348 C353 1.399 . S
C349 C348 1.399 . S
C349 C350 1.376 . S
C350 H337 0.930 . S
C350 C349 1.376 . S
C350 C351 1.388 . S
C351 H338 0.930 . S
C351 C350 1.388 . S
C351 C352 1.390 . S
C352 C351 1.390 . S
C352 C353 1.394 . S
C352 C358 1.465 . S
C353 C348 1.399 . S
C353 C352 1.394 . S
C353 C354 1.516 . S
C354 C353 1.516 . S
C354 C355 1.502 . S
C354 C356 1.561 . S
C354 C357 1.526 . S
C355 H339 0.959 . S
C355 H340 0.959 . S
C355 H341 0.961 . S
C355 C354 1.502 . S
C356 H342 0.960 . S
C356 H343 0.961 . S
C356 H344 0.959 . S
C356 C354 1.561 . S
C357 C354 1.526 . S
C357 C358 1.396 . S
C357 C362 1.390 . S
C358 C352 1.465 . S
C358 C357 1.396 . S
C358 C359 1.399 . S
C359 H345 0.929 . S
C359 C358 1.399 . S
C359 C360 1.385 . S
C360 H346 0.931 . S
C360 C359 1.385 . S
C360 C361 1.389 . S
C361 C360 1.389 . S
C361 C362 1.387 . S
C362 H347 0.930 . S
C362 C357 1.390 . S
C362 C361 1.387 . S
H363 C375 0.930 . S
H364 C377 0.930 1_655 S
H365 C378 0.930 . S
H366 C382 0.959 . S
H367 C382 0.959 1_455 S
H368 C382 0.961 . S
H369 C383 0.960 . S
H370 C383 0.961 . S
H371 C383 0.959 . S
H372 C386 0.929 . S
H373 C387 0.931 . S
H374 C389 0.930 . S
C375 H363 0.930 . S
C375 C376 1.399 . S
C375 C380 1.399 1_655 S
C376 C375 1.399 . S
C376 C377 1.376 1_655 S
C377 H364 0.930 1_455 S
C377 C376 1.376 1_455 S
C377 C378 1.388 . S
C378 H365 0.930 . S
C378 C377 1.388 . S
C378 C379 1.390 . S
C379 C378 1.390 . S
C379 C380 1.394 . S
C379 C385 1.465 . S
C380 C375 1.399 1_455 S
C380 C379 1.394 . S
C380 C381 1.516 . S
C381 C380 1.516 . S
C381 C382 1.502 1_455 S
C381 C383 1.561 . S
C381 C384 1.526 . S
C382 H366 0.959 . S
C382 H367 0.959 1_655 S
C382 H368 0.961 . S
C382 C381 1.502 1_655 S
C383 H369 0.960 . S
C383 H370 0.961 . S
C383 H371 0.959 . S
C383 C381 1.561 . S
C384 C381 1.526 . S
C384 C385 1.396 . S
C384 C389 1.390 . S
C385 C379 1.465 . S
C385 C384 1.396 . S
C385 C386 1.399 . S
C386 H372 0.929 . S
C386 C385 1.399 . S
C386 C387 1.385 . S
C387 H373 0.931 . S
C387 C386 1.385 . S
C387 C388 1.389 . S
C388 C387 1.389 . S
C388 C389 1.387 . S
C389 H374 0.930 . S
C389 C384 1.390 . S
C389 C388 1.387 . S
H390 C402 0.930 . S
H391 C404 0.930 . S
H392 C405 0.930 . S
H393 C409 0.959 1_554 S
H394 C409 0.959 1_554 S
H395 C409 0.961 . S
H396 C410 0.960 . S
H397 C410 0.961 . S
H398 C410 0.959 . S
H399 C413 0.929 . S
H400 C414 0.931 . S
H401 C416 0.930 . S
C402 H390 0.930 . S
C402 C403 1.399 . S
C402 C407 1.399 . S
C403 C402 1.399 . S
C403 C404 1.376 . S
C404 H391 0.930 . S
C404 C403 1.376 . S
C404 C405 1.388 . S
C405 H392 0.930 . S
C405 C404 1.388 . S
C405 C406 1.390 . S
C406 C405 1.390 . S
C406 C407 1.394 . S
C406 C412 1.465 . S
C407 C402 1.399 . S
C407 C406 1.394 . S
C407 C408 1.516 . S
C408 C407 1.516 . S
C408 C409 1.502 . S
C408 C410 1.561 . S
C408 C411 1.526 . S
C409 H393 0.959 1_556 S
C409 H394 0.959 1_556 S
C409 H395 0.961 . S
C409 C408 1.502 . S
C410 H396 0.960 . S
C410 H397 0.961 . S
C410 H398 0.959 . S
C410 C408 1.561 . S
C411 C408 1.526 . S
C411 C412 1.396 . S
C411 C416 1.390 1_556 S
C412 C406 1.465 . S
C412 C411 1.396 . S
C412 C413 1.399 . S
C413 H399 0.929 . S
C413 C412 1.399 . S
C413 C414 1.385 1_556 S
C414 H400 0.931 . S
C414 C413 1.385 1_554 S
C414 C415 1.389 . S
C415 C414 1.389 . S
C415 C416 1.387 . S
C416 H401 0.930 . S
C416 C411 1.390 1_554 S
C416 C415 1.387 . S
H417 C429 0.930 . S
H418 C431 0.930 . S
H419 C432 0.930 . S
H420 C436 0.959 . S
H421 C436 0.959 . S
H422 C436 0.961 . S
H423 C437 0.960 . S
H424 C437 0.961 . S
H425 C437 0.959 . S
H426 C440 0.929 . S
H427 C441 0.931 . S
H428 C443 0.930 . S
C429 H417 0.930 . S
C429 C430 1.399 . S
C429 C434 1.399 . S
C430 C429 1.399 . S
C430 C431 1.376 . S
C431 H418 0.930 . S
C431 C430 1.376 . S
C431 C432 1.388 . S
C432 H419 0.930 . S
C432 C431 1.388 . S
C432 C433 1.390 . S
C433 C432 1.390 . S
C433 C434 1.394 . S
C433 C439 1.465 . S
C434 C429 1.399 . S
C434 C433 1.394 . S
C434 C435 1.516 . S
C435 C434 1.516 . S
C435 C436 1.502 . S
C435 C437 1.561 . S
C435 C438 1.526 . S
C436 H420 0.959 . S
C436 H421 0.959 . S
C436 H422 0.961 . S
C436 C435 1.502 . S
C437 H423 0.960 . S
C437 H424 0.961 . S
C437 H425 0.959 . S
C437 C435 1.561 . S
C438 C435 1.526 . S
C438 C439 1.396 . S
C438 C443 1.390 . S
C439 C433 1.465 . S
C439 C438 1.396 . S
C439 C440 1.399 . S
C440 H426 0.929 . S
C440 C439 1.399 . S
C440 C441 1.385 . S
C441 H427 0.931 . S
C441 C440 1.385 . S
C441 C442 1.389 . S
C442 C441 1.389 . S
C442 C443 1.387 . S
C443 H428 0.930 . S
C443 C438 1.390 . S
C443 C442 1.387 . S
H444 C456 0.930 . S
H445 C458 0.930 . S
H446 C459 0.930 . S
H447 C463 0.959 . S
H448 C463 0.959 . S
H449 C463 0.961 . S
H450 C464 0.960 . S
H451 C464 0.961 . S
H452 C464 0.959 . S
H453 C467 0.929 . S
H454 C468 0.931 . S
H455 C470 0.930 . S
C456 H444 0.930 . S
C456 C457 1.399 . S
C456 C461 1.399 . S
C457 C456 1.399 . S
C457 C458 1.376 . S
C458 H445 0.930 . S
C458 C457 1.376 . S
C458 C459 1.388 . S
C459 H446 0.930 . S
C459 C458 1.388 . S
C459 C460 1.390 . S
C460 C459 1.390 . S
C460 C461 1.394 . S
C460 C466 1.465 . S
C461 C456 1.399 . S
C461 C460 1.394 . S
C461 C462 1.516 . S
C462 C461 1.516 . S
C462 C463 1.502 . S
C462 C464 1.561 . S
C462 C465 1.526 . S
C463 H447 0.959 . S
C463 H448 0.959 . S
C463 H449 0.961 . S
C463 C462 1.502 . S
C464 H450 0.960 . S
C464 H451 0.961 . S
C464 H452 0.959 . S
C464 C462 1.561 . S
C465 C462 1.526 . S
C465 C466 1.396 . S
C465 C470 1.390 . S
C466 C460 1.465 . S
C466 C465 1.396 . S
C466 C467 1.399 . S
C467 H453 0.929 . S
C467 C466 1.399 . S
C467 C468 1.385 . S
C468 H454 0.931 . S
C468 C467 1.385 . S
C468 C469 1.389 . S
C469 C468 1.389 . S
C469 C470 1.387 . S
C470 H455 0.930 . S
C470 C465 1.390 . S
C470 C469 1.387 . S
H471 C483 0.930 . S
H472 C485 0.930 . S
H473 C486 0.930 . S
H474 C490 0.959 . S
H475 C490 0.959 . S
H476 C490 0.961 . S
H477 C491 0.960 . S
H478 C491 0.961 . S
H479 C491 0.959 . S
H480 C494 0.929 . S
H481 C495 0.931 . S
H482 C497 0.930 . S
C483 H471 0.930 . S
C483 C484 1.399 . S
C483 C488 1.399 . S
C484 C483 1.399 . S
C484 C485 1.376 . S
C485 H472 0.930 . S
C485 C484 1.376 . S
C485 C486 1.388 . S
C486 H473 0.930 . S
C486 C485 1.388 . S
C486 C487 1.390 . S
C487 C486 1.390 . S
C487 C488 1.394 . S
C487 C493 1.465 . S
C488 C483 1.399 . S
C488 C487 1.394 . S
C488 C489 1.516 . S
C489 C488 1.516 . S
C489 C490 1.502 . S
C489 C491 1.561 . S
C489 C492 1.526 . S
C490 H474 0.959 . S
C490 H475 0.959 . S
C490 H476 0.961 . S
C490 C489 1.502 . S
C491 H477 0.960 . S
C491 H478 0.961 . S
C491 H479 0.959 . S
C491 C489 1.561 . S
C492 C489 1.526 . S
C492 C493 1.396 . S
C492 C497 1.390 . S
C493 C487 1.465 . S
C493 C492 1.396 . S
C493 C494 1.399 1_655 S
C494 H480 0.929 . S
C494 C493 1.399 1_455 S
C494 C495 1.385 . S
C495 H481 0.931 . S
C495 C494 1.385 . S
C495 C496 1.389 . S
C496 C495 1.389 . S
C496 C497 1.387 1_455 S
C497 H482 0.930 . S
C497 C492 1.390 . S
C497 C496 1.387 1_655 S
H498 C510 0.930 . S
H499 C512 0.930 . S
H500 C513 0.930 . S
H501 C517 0.959 . S
H502 C517 0.959 . S
H503 C517 0.961 . S
H504 C518 0.960 . S
H505 C518 0.961 . S
H506 C518 0.959 . S
H507 C521 0.929 . S
H508 C522 0.931 . S
H509 C524 0.930 . S
C510 H498 0.930 . S
C510 C511 1.399 . S
C510 C515 1.399 . S
C511 C510 1.399 . S
C511 C512 1.376 . S
C512 H499 0.930 . S
C512 C511 1.376 . S
C512 C513 1.388 . S
C513 H500 0.930 . S
C513 C512 1.388 . S
C513 C514 1.390 . S
C514 C513 1.390 . S
C514 C515 1.394 . S
C514 C520 1.465 . S
C515 C510 1.399 . S
C515 C514 1.394 . S
C515 C516 1.516 . S
C516 C515 1.516 . S
C516 C517 1.502 . S
C516 C518 1.561 . S
C516 C519 1.526 . S
C517 H501 0.959 . S
C517 H502 0.959 . S
C517 H503 0.961 . S
C517 C516 1.502 . S
C518 H504 0.960 . S
C518 H505 0.961 . S
C518 H506 0.959 . S
C518 C516 1.561 . S
C519 C516 1.526 . S
C519 C520 1.396 . S
C519 C524 1.390 . S
C520 C514 1.465 . S
C520 C519 1.396 . S
C520 C521 1.399 1_554 S
C521 H507 0.929 . S
C521 C520 1.399 1_556 S
C521 C522 1.385 . S
C522 H508 0.931 . S
C522 C521 1.385 . S
C522 C523 1.389 . S
C523 C522 1.389 . S
C523 C524 1.387 1_556 S
C524 H509 0.930 . S
C524 C519 1.390 . S
C524 C523 1.387 1_554 S
H525 C537 0.930 . S
H526 C539 0.930 . S
H527 C540 0.930 . S
H528 C544 0.959 . S
H529 C544 0.959 . S
H530 C544 0.961 . S
H531 C545 0.960 . S
H532 C545 0.961 . S
H533 C545 0.959 . S
H534 C548 0.929 . S
H535 C549 0.931 . S
H536 C551 0.930 . S
C537 H525 0.930 . S
C537 C538 1.399 . S
C537 C542 1.399 . S
C538 C537 1.399 . S
C538 C539 1.376 . S
C539 H526 0.930 . S
C539 C538 1.376 . S
C539 C540 1.388 . S
C540 H527 0.930 . S
C540 C539 1.388 . S
C540 C541 1.390 . S
C541 C540 1.390 . S
C541 C542 1.394 . S
C541 C547 1.465 . S
C542 C537 1.399 . S
C542 C541 1.394 . S
C542 C543 1.516 . S
C543 C542 1.516 . S
C543 C544 1.502 . S
C543 C545 1.561 . S
C543 C546 1.526 . S
C544 H528 0.959 . S
C544 H529 0.959 . S
C544 H530 0.961 . S
C544 C543 1.502 . S
C545 H531 0.960 . S
C545 H532 0.961 . S
C545 H533 0.959 . S
C545 C543 1.561 . S
C546 C543 1.526 . S
C546 C547 1.396 . S
C546 C551 1.390 . S
C547 C541 1.465 . S
C547 C546 1.396 . S
C547 C548 1.399 . S
C548 H534 0.929 . S
C548 C547 1.399 . S
C548 C549 1.385 . S
C549 H535 0.931 . S
C549 C548 1.385 . S
C549 C550 1.389 . S
C550 C549 1.389 . S
C550 C551 1.387 . S
C551 H536 0.930 . S
C551 C546 1.390 . S
C551 C550 1.387 . S
H552 C564 0.930 . S
H553 C566 0.930 . S
H554 C567 0.930 . S
H555 C571 0.959 . S
H556 C571 0.959 . S
H557 C571 0.961 . S
H558 C572 0.960 . S
H559 C572 0.961 . S
H560 C572 0.959 . S
H561 C575 0.929 . S
H562 C576 0.931 . S
H563 C578 0.930 . S
C564 H552 0.930 . S
C564 C565 1.399 . S
C564 C569 1.399 . S
C565 C564 1.399 . S
C565 C566 1.376 . S
C566 H553 0.930 . S
C566 C565 1.376 . S
C566 C567 1.388 . S
C567 H554 0.930 . S
C567 C566 1.388 . S
C567 C568 1.390 . S
C568 C567 1.390 . S
C568 C569 1.394 . S
C568 C574 1.465 . S
C569 C564 1.399 . S
C569 C568 1.394 . S
C569 C570 1.516 . S
C570 C569 1.516 . S
C570 C571 1.502 . S
C570 C572 1.561 . S
C570 C573 1.526 . S
C571 H555 0.959 . S
C571 H556 0.959 . S
C571 H557 0.961 . S
C571 C570 1.502 . S
C572 H558 0.960 . S
C572 H559 0.961 . S
C572 H560 0.959 . S
C572 C570 1.561 . S
C573 C570 1.526 . S
C573 C574 1.396 . S
C573 C578 1.390 . S
C574 C568 1.465 . S
C574 C573 1.396 . S
C574 C575 1.399 . S
C575 H561 0.929 . S
C575 C574 1.399 . S
C575 C576 1.385 . S
C576 H562 0.931 . S
C576 C575 1.385 . S
C576 C577 1.389 . S
C577 C576 1.389 . S
C577 C578 1.387 . S
C578 H563 0.930 . S
C578 C573 1.390 . S
C578 C577 1.387 . S
H579 C591 0.930 . S
H580 C593 0.930 . S
H581 C594 0.930 . S
H582 C598 0.959 . S
H583 C598 0.959 . S
H584 C598 0.961 . S
H585 C599 0.960 1_565 S
H586 C599 0.961 . S
H587 C599 0.959 . S
H588 C602 0.929 . S
H589 C603 0.931 . S
H590 C605 0.930 . S
C591 H579 0.930 . S
C591 C592 1.399 . S
C591 C596 1.399 1_565 S
C592 C591 1.399 . S
C592 C593 1.376 1_565 S
C593 H580 0.930 . S
C593 C592 1.376 1_545 S
C593 C594 1.388 . S
C594 H581 0.930 . S
C594 C593 1.388 . S
C594 C595 1.390 . S
C595 C594 1.390 . S
C595 C596 1.394 . S
C595 C601 1.465 . S
C596 C591 1.399 1_545 S
C596 C595 1.394 . S
C596 C597 1.516 . S
C597 C596 1.516 . S
C597 C598 1.502 1_545 S
C597 C599 1.561 . S
C597 C600 1.526 . S
C598 H582 0.959 . S
C598 H583 0.959 . S
C598 H584 0.961 . S
C598 C597 1.502 1_565 S
C599 H585 0.960 1_545 S
C599 H586 0.961 . S
C599 H587 0.959 . S
C599 C597 1.561 . S
C600 C597 1.526 . S
C600 C601 1.396 . S
C600 C605 1.390 . S
C601 C595 1.465 . S
C601 C600 1.396 . S
C601 C602 1.399 . S
C602 H588 0.929 . S
C602 C601 1.399 . S
C602 C603 1.385 . S
C603 H589 0.931 . S
C603 C602 1.385 . S
C603 C604 1.389 . S
C604 C603 1.389 . S
C604 C605 1.387 . S
C605 H590 0.930 . S
C605 C600 1.390 . S
C605 C604 1.387 . S
H606 C618 0.930 . S
H607 C620 0.930 . S
H608 C621 0.930 . S
H609 C625 0.959 . S
H610 C625 0.959 . S
H611 C625 0.961 . S
H612 C626 0.960 . S
H613 C626 0.961 . S
H614 C626 0.959 1_545 S
H615 C629 0.933 . S
H616 C630 0.931 . S
H617 C632 0.930 . S
C618 H606 0.930 . S
C618 C619 1.399 . S
C618 C623 1.399 . S
C619 C618 1.399 . S
C619 C620 1.376 . S
C620 H607 0.930 . S
C620 C619 1.376 . S
C620 C621 1.388 . S
C621 H608 0.930 . S
C621 C620 1.388 . S
C621 C622 1.390 . S
C622 C621 1.390 . S
C622 C623 1.394 . S
C622 C628 1.465 . S
C623 C618 1.399 . S
C623 C622 1.394 . S
C623 C624 1.516 . S
C624 C623 1.516 . S
C624 C625 1.502 . S
C624 C626 1.561 . S
C624 C627 1.526 . S
C625 H609 0.959 . S
C625 H610 0.959 . S
C625 H611 0.961 . S
C625 C624 1.502 . S
C626 H612 0.960 . S
C626 H613 0.961 . S
C626 H614 0.959 1_565 S
C626 C624 1.561 . S
C627 C624 1.526 . S
C627 C628 1.396 . S
C627 C632 1.390 1_565 S
C628 C622 1.465 . S
C628 C627 1.396 . S
C628 C629 1.422 . S
C629 H615 0.933 . S
C629 C628 1.422 . S
C629 C630 1.360 1_565 S
C630 H616 0.931 . S
C630 C629 1.360 1_545 S
C630 C631 1.389 . S
C631 C630 1.389 . S
C631 C632 1.387 . S
C632 H617 0.930 . S
C632 C627 1.390 1_545 S
C632 C631 1.387 . S
H633 C645 0.930 . S
H634 C647 0.930 . S
H635 C648 0.930 . S
H636 C652 0.959 . S
H637 C652 0.959 . S
H638 C652 0.961 . S
H639 C653 0.960 . S
H640 C653 0.961 . S
H641 C653 0.959 . S
H642 C656 0.929 . S
H643 C657 0.931 . S
H644 C659 0.930 . S
C645 H633 0.930 . S
C645 C646 1.399 . S
C645 C650 1.399 . S
C646 C645 1.399 . S
C646 C647 1.376 . S
C647 H634 0.930 . S
C647 C646 1.376 . S
C647 C648 1.388 . S
C648 H635 0.930 . S
C648 C647 1.388 . S
C648 C649 1.390 . S
C649 C648 1.390 . S
C649 C650 1.394 . S
C649 C655 1.465 . S
C650 C645 1.399 . S
C650 C649 1.394 . S
C650 C651 1.516 . S
C651 C650 1.516 . S
C651 C652 1.502 . S
C651 C653 1.561 . S
C651 C654 1.526 . S
C652 H636 0.959 . S
C652 H637 0.959 . S
C652 H638 0.961 . S
C652 C651 1.502 . S
C653 H639 0.960 . S
C653 H640 0.961 . S
C653 H641 0.959 . S
C653 C651 1.561 . S
C654 C651 1.526 . S
C654 C655 1.396 . S
C654 C659 1.390 . S
C655 C649 1.465 . S
C655 C654 1.396 . S
C655 C656 1.399 . S
C656 H642 0.929 . S
C656 C655 1.399 . S
C656 C657 1.385 . S
C657 H643 0.931 . S
C657 C656 1.385 . S
C657 C658 1.389 . S
C658 C657 1.389 . S
C658 C659 1.387 . S
C659 H644 0.930 . S
C659 C654 1.390 . S
C659 C658 1.387 . S
H660 C672 0.930 . S
H661 C674 0.930 . S
H662 C675 0.930 . S
H663 C679 0.959 . S
H664 C679 0.959 . S
H665 C679 0.961 . S
H666 C680 0.960 . S
H667 C680 0.961 . S
H668 C680 0.959 . S
H669 C683 0.929 . S
H670 C684 0.931 . S
H671 C686 0.930 . S
C672 H660 0.930 . S
C672 C673 1.399 . S
C672 C677 1.399 . S
C673 C672 1.399 . S
C673 C674 1.376 . S
C674 H661 0.930 . S
C674 C673 1.376 . S
C674 C675 1.388 . S
C675 H662 0.930 . S
C675 C674 1.388 . S
C675 C676 1.390 . S
C676 C675 1.390 . S
C676 C677 1.394 . S
C676 C682 1.465 . S
C677 C672 1.399 . S
C677 C676 1.394 . S
C677 C678 1.516 . S
C678 C677 1.516 . S
C678 C679 1.502 . S
C678 C680 1.561 . S
C678 C681 1.526 . S
C679 H663 0.959 . S
C679 H664 0.959 . S
C679 H665 0.961 . S
C679 C678 1.502 . S
C680 H666 0.960 . S
C680 H667 0.961 . S
C680 H668 0.959 . S
C680 C678 1.561 . S
C681 C678 1.526 . S
C681 C682 1.396 . S
C681 C686 1.390 . S
C682 C676 1.465 . S
C682 C681 1.396 . S
C682 C683 1.399 . S
C683 H669 0.929 . S
C683 C682 1.399 . S
C683 C684 1.385 . S
C684 H670 0.931 . S
C684 C683 1.385 . S
C684 C685 1.389 . S
C685 C684 1.389 . S
C685 C686 1.387 . S
C686 H671 0.930 . S
C686 C681 1.390 . S
C686 C685 1.387 . S
H687 C699 0.930 . S
H688 C701 0.930 . S
H689 C702 0.930 . S
H690 C706 0.959 . S
H691 C706 0.959 . S
H692 C706 0.961 . S
H693 C707 0.960 . S
H694 C707 0.961 . S
H695 C707 0.959 . S
H696 C710 0.929 . S
H697 C711 0.931 . S
H698 C713 0.930 . S
C699 H687 0.930 . S
C699 C700 1.399 . S
C699 C704 1.399 . S
C700 C699 1.399 . S
C700 C701 1.376 . S
C701 H688 0.930 . S
C701 C700 1.376 . S
C701 C702 1.388 1_565 S
C702 H689 0.930 . S
C702 C701 1.388 1_545 S
C702 C703 1.390 . S
C703 C702 1.390 . S
C703 C704 1.394 1_545 S
C703 C709 1.465 . S
C704 C699 1.399 . S
C704 C703 1.394 1_565 S
C704 C705 1.516 . S
C705 C704 1.516 . S
C705 C706 1.502 . S
C705 C707 1.561 . S
C705 C708 1.526 1_565 S
C706 H690 0.959 . S
C706 H691 0.959 . S
C706 H692 0.961 . S
C706 C705 1.502 . S
C707 H693 0.960 . S
C707 H694 0.961 . S
C707 H695 0.959 . S
C707 C705 1.561 . S
C708 C705 1.526 1_545 S
C708 C709 1.396 . S
C708 C713 1.390 . S
C709 C703 1.465 . S
C709 C708 1.396 . S
C709 C710 1.399 . S
C710 H696 0.929 . S
C710 C709 1.399 . S
C710 C711 1.385 . S
C711 H697 0.931 . S
C711 C710 1.385 . S
C711 C712 1.389 . S
C712 C711 1.389 . S
C712 C713 1.387 . S
C713 H698 0.930 . S
C713 C708 1.390 . S
C713 C712 1.387 . S
H714 C726 0.930 . S
H715 C728 0.930 . S
H716 C729 0.930 . S
H717 C733 0.959 . S
H718 C733 0.959 . S
H719 C733 0.961 . S
H720 C734 0.960 . S
H721 C734 0.961 1_554 S
H722 C734 0.959 . S
H723 C737 0.929 . S
H724 C738 0.931 . S
H725 C740 0.930 . S
C726 H714 0.930 . S
C726 C727 1.399 . S
C726 C731 1.399 . S
C727 C726 1.399 . S
C727 C728 1.376 . S
C728 H715 0.930 . S
C728 C727 1.376 . S
C728 C729 1.388 . S
C729 H716 0.930 . S
C729 C728 1.388 . S
C729 C730 1.390 . S
C730 C729 1.390 . S
C730 C731 1.394 . S
C730 C736 1.465 . S
C731 C726 1.399 . S
C731 C730 1.394 . S
C731 C732 1.551 . S
C732 C731 1.551 . S
C732 C733 1.467 1_556 S
C732 C734 1.578 . S
C732 C735 1.515 1_556 S
C733 H717 0.959 . S
C733 H718 0.959 . S
C733 H719 0.961 . S
C733 C732 1.467 1_554 S
C734 H720 0.960 . S
C734 H721 0.961 1_556 S
C734 H722 0.959 . S
C734 C732 1.578 . S
C735 C732 1.515 1_554 S
C735 C736 1.396 1_554 S
C735 C740 1.390 . S
C736 C730 1.465 . S
C736 C735 1.396 1_556 S
C736 C737 1.399 . S
C737 H723 0.929 . S
C737 C736 1.399 . S
C737 C738 1.385 1_556 S
C738 H724 0.931 . S
C738 C737 1.385 1_554 S
C738 C739 1.389 . S
C739 C738 1.389 . S
C739 C740 1.387 . S
C740 H725 0.930 . S
C740 C735 1.390 . S
C740 C739 1.387 . S
H741 C753 0.930 . S
H742 C755 0.930 . S
H743 C756 0.930 . S
H744 C760 0.959 . S
H745 C760 0.959 . S
H746 C760 0.961 . S
H747 C761 0.960 . S
H748 C761 0.961 . S
H749 C761 0.958 1_565 S
H750 C764 0.929 . S
H751 C765 0.931 . S
H752 C767 0.930 . S
C753 H741 0.930 . S
C753 C754 1.399 . S
C753 C758 1.399 . S
C754 C753 1.399 . S
C754 C755 1.376 . S
C755 H742 0.930 . S
C755 C754 1.376 . S
C755 C756 1.388 1_545 S
C756 H743 0.930 . S
C756 C755 1.388 1_565 S
C756 C757 1.390 . S
C757 C756 1.390 . S
C757 C758 1.394 1_565 S
C757 C763 1.465 . S
C758 C753 1.399 . S
C758 C757 1.394 1_545 S
C758 C759 1.516 . S
C759 C758 1.516 . S
C759 C760 1.502 . S
C759 C761 1.561 . S
C759 C762 1.526 1_545 S
C760 H744 0.959 . S
C760 H745 0.959 . S
C760 H746 0.961 . S
C760 C759 1.502 . S
C761 H747 0.960 . S
C761 H748 0.961 . S
C761 H749 0.958 1_545 S
C761 C759 1.561 . S
C762 C759 1.526 1_565 S
C762 C763 1.396 . S
C762 C767 1.390 . S
C763 C757 1.465 . S
C763 C762 1.396 . S
C763 C764 1.399 . S
C764 H750 0.929 . S
C764 C763 1.399 . S
C764 C765 1.385 . S
C765 H751 0.931 . S
C765 C764 1.385 . S
C765 C766 1.389 . S
C766 C765 1.389 . S
C766 C767 1.387 . S
C767 H752 0.930 . S
C767 C762 1.390 . S
C767 C766 1.387 . S
H768 C780 0.930 . S
H769 C782 0.930 . S
H770 C783 0.930 . S
H771 C787 0.959 . S
H772 C787 0.959 . S
H773 C787 0.961 . S
H774 C788 0.960 . S
H775 C788 0.961 . S
H776 C788 0.959 . S
H777 C791 0.929 . S
H778 C792 0.931 . S
H779 C794 0.930 . S
C780 H768 0.930 . S
C780 C781 1.399 . S
C780 C785 1.399 . S
C781 C780 1.399 . S
C781 C782 1.376 . S
C782 H769 0.930 . S
C782 C781 1.376 . S
C782 C783 1.388 . S
C783 H770 0.930 . S
C783 C782 1.388 . S
C783 C784 1.390 . S
C784 C783 1.390 . S
C784 C785 1.394 . S
C784 C790 1.465 . S
C785 C780 1.399 . S
C785 C784 1.394 . S
C785 C786 1.516 . S
C786 C785 1.516 . S
C786 C787 1.502 . S
C786 C788 1.561 . S
C786 C789 1.526 . S
C787 H771 0.959 . S
C787 H772 0.959 . S
C787 H773 0.961 . S
C787 C786 1.502 . S
C788 H774 0.960 . S
C788 H775 0.961 . S
C788 H776 0.959 . S
C788 C786 1.561 . S
C789 C786 1.526 . S
C789 C790 1.396 . S
C789 C794 1.390 . S
C790 C784 1.465 . S
C790 C789 1.396 . S
C790 C791 1.399 . S
C791 H777 0.929 . S
C791 C790 1.399 . S
C791 C792 1.385 . S
C792 H778 0.931 . S
C792 C791 1.385 . S
C792 C793 1.389 . S
C793 C792 1.389 . S
C793 C794 1.387 . S
C794 H779 0.930 . S
C794 C789 1.390 . S
C794 C793 1.387 . S
H795 C807 0.930 . S
H796 C809 0.930 . S
H797 C810 0.930 . S
H798 C814 0.959 . S
H799 C814 0.959 . S
H800 C814 0.961 . S
H801 C815 0.960 . S
H802 C815 0.961 . S
H803 C815 0.959 . S
H804 C818 0.929 . S
H805 C819 0.931 . S
H806 C821 0.930 . S
C807 H795 0.930 . S
C807 C808 1.399 . S
C807 C812 1.399 . S
C808 C807 1.399 . S
C808 C809 1.376 . S
C809 H796 0.930 . S
C809 C808 1.376 . S
C809 C810 1.388 . S
C810 H797 0.930 . S
C810 C809 1.388 . S
C810 C811 1.390 . S
C811 C810 1.390 . S
C811 C812 1.394 . S
C811 C817 1.465 . S
C812 C807 1.399 . S
C812 C811 1.394 . S
C812 C813 1.516 . S
C813 C812 1.516 . S
C813 C814 1.502 . S
C813 C815 1.561 . S
C813 C816 1.526 . S
C814 H798 0.959 . S
C814 H799 0.959 . S
C814 H800 0.961 . S
C814 C813 1.502 . S
C815 H801 0.960 . S
C815 H802 0.961 . S
C815 H803 0.959 . S
C815 C813 1.561 . S
C816 C813 1.526 . S
C816 C817 1.396 . S
C816 C821 1.390 . S
C817 C811 1.465 . S
C817 C816 1.396 . S
C817 C818 1.399 . S
C818 H804 0.929 . S
C818 C817 1.399 . S
C818 C819 1.385 . S
C819 H805 0.931 . S
C819 C818 1.385 . S
C819 C820 1.389 . S
C820 C819 1.389 . S
C820 C821 1.387 . S
C821 H806 0.930 . S
C821 C816 1.390 . S
C821 C820 1.387 . S
H822 C834 0.930 . S
H823 C836 0.930 . S
H824 C837 0.930 . S
H825 C841 0.959 . S
H826 C841 0.959 . S
H827 C841 0.961 1_556 S
H828 C842 0.960 . S
H829 C842 0.961 . S
H830 C842 0.959 . S
H831 C845 0.929 . S
H832 C846 0.931 . S
H833 C848 0.930 . S
C834 H822 0.930 . S
C834 C835 1.399 . S
C834 C839 1.399 . S
C835 C834 1.399 . S
C835 C836 1.376 . S
C836 H823 0.930 . S
C836 C835 1.376 . S
C836 C837 1.388 1_556 S
C837 H824 0.930 . S
C837 C836 1.388 1_554 S
C837 C838 1.390 . S
C838 C837 1.390 . S
C838 C839 1.394 1_554 S
C838 C844 1.465 . S
C839 C834 1.399 . S
C839 C838 1.394 1_556 S
C839 C840 1.516 . S
C840 C839 1.516 . S
C840 C841 1.502 1_556 S
C840 C842 1.561 . S
C840 C843 1.526 1_556 S
C841 H825 0.959 . S
C841 H826 0.959 . S
C841 H827 0.961 1_554 S
C841 C840 1.502 1_554 S
C842 H828 0.960 . S
C842 H829 0.961 . S
C842 H830 0.959 . S
C842 C840 1.561 . S
C843 C840 1.526 1_554 S
C843 C844 1.396 . S
C843 C848 1.390 . S
C844 C838 1.465 . S
C844 C843 1.396 . S
C844 C845 1.399 . S
C845 H831 0.929 . S
C845 C844 1.399 . S
C845 C846 1.385 . S
C846 H832 0.931 . S
C846 C845 1.385 . S
C846 C847 1.389 . S
C847 C846 1.389 . S
C847 C848 1.387 . S
C848 H833 0.930 . S
C848 C843 1.390 . S
C848 C847 1.387 . S
H849 C861 0.930 . S
H850 C863 0.930 . S
H851 C864 0.930 . S
H852 C868 0.959 . S
H853 C868 0.959 . S
H854 C868 0.961 . S
H855 C869 0.960 . S
H856 C869 0.961 . S
H857 C869 0.959 . S
H858 C872 0.929 . S
H859 C873 0.931 . S
H860 C875 0.930 . S
C861 H849 0.930 . S
C861 C862 1.399 . S
C861 C866 1.399 . S
C862 C861 1.399 . S
C862 C863 1.376 . S
C863 H850 0.930 . S
C863 C862 1.376 . S
C863 C864 1.388 . S
C864 H851 0.930 . S
C864 C863 1.388 . S
C864 C865 1.390 . S
C865 C864 1.390 . S
C865 C866 1.394 . S
C865 C871 1.465 . S
C866 C861 1.399 . S
C866 C865 1.394 . S
C866 C867 1.516 . S
C867 C866 1.516 . S
C867 C868 1.502 . S
C867 C869 1.561 . S
C867 C870 1.526 . S
C868 H852 0.959 . S
C868 H853 0.959 . S
C868 H854 0.961 . S
C868 C867 1.502 . S
C869 H855 0.960 . S
C869 H856 0.961 . S
C869 H857 0.959 . S
C869 C867 1.561 . S
C870 C867 1.526 . S
C870 C871 1.396 . S
C870 C875 1.390 . S
C871 C865 1.465 . S
C871 C870 1.396 . S
C871 C872 1.399 . S
C872 H858 0.929 . S
C872 C871 1.399 . S
C872 C873 1.385 . S
C873 H859 0.931 . S
C873 C872 1.385 . S
C873 C874 1.389 . S
C874 C873 1.389 . S
C874 C875 1.387 . S
C875 H860 0.930 . S
C875 C870 1.390 . S
C875 C874 1.387 . S
H876 C888 0.930 . S
H877 C890 0.930 . S
H878 C891 0.930 . S
H879 C895 0.959 . S
H880 C895 0.959 . S
H881 C895 0.961 . S
H882 C896 0.960 . S
H883 C896 0.961 . S
H884 C896 0.959 . S
H885 C899 0.929 . S
H886 C900 0.931 . S
H887 C902 0.930 . S
C888 H876 0.930 . S
C888 C889 1.399 . S
C888 C893 1.399 . S
C889 C888 1.399 . S
C889 C890 1.376 . S
C890 H877 0.930 . S
C890 C889 1.376 . S
C890 C891 1.388 . S
C891 H878 0.930 . S
C891 C890 1.388 . S
C891 C892 1.390 . S
C892 C891 1.390 . S
C892 C893 1.394 . S
C892 C898 1.465 . S
C893 C888 1.399 . S
C893 C892 1.394 . S
C893 C894 1.516 . S
C894 C893 1.516 . S
C894 C895 1.502 . S
C894 C896 1.561 . S
C894 C897 1.526 . S
C895 H879 0.959 . S
C895 H880 0.959 . S
C895 H881 0.961 . S
C895 C894 1.502 . S
C896 H882 0.960 . S
C896 H883 0.961 . S
C896 H884 0.959 . S
C896 C894 1.561 . S
C897 C894 1.526 . S
C897 C898 1.396 . S
C897 C902 1.390 . S
C898 C892 1.465 . S
C898 C897 1.396 . S
C898 C899 1.399 . S
C899 H885 0.929 . S
C899 C898 1.399 . S
C899 C900 1.385 . S
C900 H886 0.931 . S
C900 C899 1.385 . S
C900 C901 1.389 . S
C901 C900 1.389 . S
C901 C902 1.387 . S
C902 H887 0.930 . S
C902 C897 1.390 . S
C902 C901 1.387 . S
H903 C915 0.930 . S
H904 C917 0.930 . S
H905 C918 0.930 . S
H906 C922 0.936 1_655 S
H907 C922 0.955 1_655 S
H908 C922 0.985 . S
H909 C923 0.960 . S
H910 C923 0.961 . S
H911 C923 0.959 . S
H912 C926 0.929 . S
H913 C927 0.931 . S
H914 C929 0.930 . S
C915 H903 0.930 . S
C915 C916 1.399 . S
C915 C920 1.399 . S
C916 C915 1.399 . S
C916 C917 1.376 . S
C917 H904 0.930 . S
C917 C916 1.376 . S
C917 C918 1.388 1_455 S
C918 H905 0.930 . S
C918 C917 1.388 1_655 S
C918 C919 1.390 . S
C919 C918 1.390 . S
C919 C920 1.394 1_655 S
C919 C925 1.465 . S
C920 C915 1.399 . S
C920 C919 1.394 1_455 S
C920 C921 1.516 . S
C921 C920 1.516 . S
C921 C922 1.505 . S
C921 C923 1.561 . S
C921 C924 1.526 1_455 S
C922 H906 0.936 1_455 S
C922 H907 0.955 1_455 S
C922 H908 0.985 . S
C922 C921 1.505 . S
C923 H909 0.960 . S
C923 H910 0.961 . S
C923 H911 0.959 . S
C923 C921 1.561 . S
C924 C921 1.526 1_655 S
C924 C925 1.396 . S
C924 C929 1.390 . S
C925 C919 1.465 . S
C925 C924 1.396 . S
C925 C926 1.399 . S
C926 H912 0.929 . S
C926 C925 1.399 . S
C926 C927 1.385 . S
C927 H913 0.931 . S
C927 C926 1.385 . S
C927 C928 1.389 . S
C928 C927 1.389 . S
C928 C929 1.387 . S
C929 H914 0.930 . S
C929 C924 1.390 . S
C929 C928 1.387 . S
H930 C942 0.930 . S
H931 C944 0.930 . S
H932 C945 0.930 . S
H933 C949 0.959 . S
H934 C949 0.959 . S
H935 C949 0.961 . S
H936 C950 0.960 . S
H937 C950 0.961 . S
H938 C950 0.959 . S
H939 C953 0.929 . S
H940 C954 0.931 . S
H941 C956 0.930 . S
C942 H930 0.930 . S
C942 C943 1.399 . S
C942 C947 1.399 1_655 S
C943 C942 1.399 . S
C943 C944 1.376 . S
C944 H931 0.930 . S
C944 C943 1.376 . S
C944 C945 1.388 . S
C945 H932 0.930 . S
C945 C944 1.388 . S
C945 C946 1.390 . S
C946 C945 1.390 . S
C946 C947 1.394 1_655 S
C946 C952 1.465 1_655 S
C947 C942 1.399 1_455 S
C947 C946 1.394 1_455 S
C947 C948 1.516 . S
C948 C947 1.516 . S
C948 C949 1.502 . S
C948 C950 1.561 . S
C948 C951 1.526 . S
C949 H933 0.959 . S
C949 H934 0.959 . S
C949 H935 0.961 . S
C949 C948 1.502 . S
C950 H936 0.960 . S
C950 H937 0.961 . S
C950 H938 0.959 . S
C950 C948 1.561 . S
C951 C948 1.526 . S
C951 C952 1.396 . S
C951 C956 1.390 . S
C952 C946 1.465 1_455 S
C952 C951 1.396 . S
C952 C953 1.399 . S
C953 H939 0.929 . S
C953 C952 1.399 . S
C953 C954 1.385 . S
C954 H940 0.931 . S
C954 C953 1.385 . S
C954 C955 1.389 . S
C955 C954 1.389 . S
C955 C956 1.387 . S
C956 H941 0.930 . S
C956 C951 1.390 . S
C956 C955 1.387 . S
H957 C969 0.930 . S
H958 C971 0.930 . S
H959 C972 0.930 . S
H960 C976 0.959 . S
H961 C976 0.959 . S
H962 C976 0.961 . S
H963 C977 0.960 . S
H964 C977 0.961 . S
H965 C977 0.959 . S
H966 C980 0.929 . S
H967 C981 0.931 . S
H968 C983 0.930 . S
C969 H957 0.930 . S
C969 C970 1.399 . S
C969 C974 1.399 . S
C970 C969 1.399 . S
C970 C971 1.376 . S
C971 H958 0.930 . S
C971 C970 1.376 . S
C971 C972 1.388 . S
C972 H959 0.930 . S
C972 C971 1.388 . S
C972 C973 1.390 . S
C973 C972 1.390 . S
C973 C974 1.394 . S
C973 C979 1.465 . S
C974 C969 1.399 . S
C974 C973 1.394 . S
C974 C975 1.516 . S
C975 C974 1.516 . S
C975 C976 1.502 . S
C975 C977 1.561 . S
C975 C978 1.526 . S
C976 H960 0.959 . S
C976 H961 0.959 . S
C976 H962 0.961 . S
C976 C975 1.502 . S
C977 H963 0.960 . S
C977 H964 0.961 . S
C977 H965 0.959 . S
C977 C975 1.561 . S
C978 C975 1.526 . S
C978 C979 1.396 . S
C978 C983 1.390 . S
C979 C973 1.465 . S
C979 C978 1.396 . S
C979 C980 1.399 . S
C980 H966 0.929 . S
C980 C979 1.399 . S
C980 C981 1.385 . S
C981 H967 0.931 . S
C981 C980 1.385 . S
C981 C982 1.389 . S
C982 C981 1.389 . S
C982 C983 1.387 . S
C983 H968 0.930 . S
C983 C978 1.390 . S
C983 C982 1.387 . S
H984 C996 0.930 . S
H985 C998 0.930 . S
H986 C999 0.930 . S
H987 C1003 0.959 . S
H988 C1003 0.959 . S
H989 C1003 0.961 . S
H990 C1004 0.960 . S
H991 C1004 0.961 . S
H992 C1004 0.959 . S
H993 C1007 0.929 . S
H994 C1008 0.931 . S
H995 C1010 0.930 . S
C996 H984 0.930 . S
C996 C997 1.399 . S
C996 C1001 1.399 . S
C997 C996 1.399 . S
C997 C998 1.376 . S
C998 H985 0.930 . S
C998 C997 1.376 . S
C998 C999 1.388 . S
C999 H986 0.930 . S
C999 C998 1.388 . S
C999 C1000 1.390 . S
C1000 C999 1.390 . S
C1000 C1001 1.394 . S
C1000 C1006 1.465 . S
C1001 C996 1.399 . S
C1001 C1000 1.394 . S
C1001 C1002 1.516 . S
C1002 C1001 1.516 . S
C1002 C1003 1.502 . S
C1002 C1004 1.561 . S
C1002 C1005 1.526 . S
C1003 H987 0.959 . S
C1003 H988 0.959 . S
C1003 H989 0.961 . S
C1003 C1002 1.502 . S
C1004 H990 0.960 . S
C1004 H991 0.961 . S
C1004 H992 0.959 . S
C1004 C1002 1.561 . S
C1005 C1002 1.526 . S
C1005 C1006 1.396 . S
C1005 C1010 1.390 . S
C1006 C1000 1.465 . S
C1006 C1005 1.396 . S
C1006 C1007 1.399 . S
C1007 H993 0.929 . S
C1007 C1006 1.399 . S
C1007 C1008 1.385 . S
C1008 H994 0.931 . S
C1008 C1007 1.385 . S
C1008 C1009 1.389 . S
C1009 C1008 1.389 . S
C1009 C1010 1.387 . S
C1010 H995 0.930 . S
C1010 C1005 1.390 . S
C1010 C1009 1.387 . S
H1011 C1023 0.930 . S
H1012 C1025 0.930 . S
H1013 C1026 0.930 . S
H1014 C1030 0.959 . S
H1015 C1030 0.959 . S
H1016 C1030 0.961 . S
H1017 C1031 0.960 . S
H1018 C1031 0.961 . S
H1019 C1031 0.959 . S
H1020 C1034 0.929 . S
H1021 C1035 0.931 . S
H1022 C1037 0.930 . S
C1023 H1011 0.930 . S
C1023 C1024 1.399 . S
C1023 C1028 1.399 1_545 S
C1024 C1023 1.399 . S
C1024 C1025 1.376 1_545 S
C1025 H1012 0.930 . S
C1025 C1024 1.376 1_565 S
C1025 C1026 1.388 . S
C1026 H1013 0.930 . S
C1026 C1025 1.388 . S
C1026 C1027 1.390 . S
C1027 C1026 1.390 . S
C1027 C1028 1.394 . S
C1027 C1033 1.465 . S
C1028 C1023 1.399 1_565 S
C1028 C1027 1.394 . S
C1028 C1029 1.516 1_565 S
C1029 C1028 1.516 1_545 S
C1029 C1030 1.502 . S
C1029 C1031 1.561 . S
C1029 C1032 1.526 1_545 S
C1030 H1014 0.959 . S
C1030 H1015 0.959 . S
C1030 H1016 0.961 . S
C1030 C1029 1.502 . S
C1031 H1017 0.960 . S
C1031 H1018 0.961 . S
C1031 H1019 0.959 . S
C1031 C1029 1.561 . S
C1032 C1029 1.526 1_565 S
C1032 C1033 1.396 . S
C1032 C1037 1.390 . S
C1033 C1027 1.465 . S
C1033 C1032 1.396 . S
C1033 C1034 1.399 . S
C1034 H1020 0.929 . S
C1034 C1033 1.399 . S
C1034 C1035 1.385 . S
C1035 H1021 0.931 . S
C1035 C1034 1.385 . S
C1035 C1036 1.389 . S
C1036 C1035 1.389 . S
C1036 C1037 1.387 . S
C1037 H1022 0.930 . S
C1037 C1032 1.390 . S
C1037 C1036 1.387 . S
H1038 C1050 0.930 . S
H1039 C1052 0.930 . S
H1040 C1053 0.930 . S
H1041 C1057 0.959 . S
H1042 C1057 0.959 . S
H1043 C1057 0.961 . S
H1044 C1058 0.960 . S
H1045 C1058 0.961 . S
H1046 C1058 0.959 . S
H1047 C1061 0.929 . S
H1048 C1062 0.931 . S
H1049 C1064 0.930 . S
C1050 H1038 0.930 . S
C1050 C1051 1.399 . S
C1050 C1055 1.399 . S
C1051 C1050 1.399 . S
C1051 C1052 1.376 . S
C1052 H1039 0.930 . S
C1052 C1051 1.376 . S
C1052 C1053 1.388 . S
C1053 H1040 0.930 . S
C1053 C1052 1.388 . S
C1053 C1054 1.390 . S
C1054 C1053 1.390 . S
C1054 C1055 1.394 . S
C1054 C1060 1.465 . S
C1055 C1050 1.399 . S
C1055 C1054 1.394 . S
C1055 C1056 1.516 . S
C1056 C1055 1.516 . S
C1056 C1057 1.502 . S
C1056 C1058 1.561 . S
C1056 C1059 1.526 . S
C1057 H1041 0.959 . S
C1057 H1042 0.959 . S
C1057 H1043 0.961 . S
C1057 C1056 1.502 . S
C1058 H1044 0.960 . S
C1058 H1045 0.961 . S
C1058 H1046 0.959 . S
C1058 C1056 1.561 . S
C1059 C1056 1.526 . S
C1059 C1060 1.396 . S
C1059 C1064 1.390 . S
C1060 C1054 1.465 . S
C1060 C1059 1.396 . S
C1060 C1061 1.399 . S
C1061 H1047 0.929 . S
C1061 C1060 1.399 . S
C1061 C1062 1.385 . S
C1062 H1048 0.931 . S
C1062 C1061 1.385 . S
C1062 C1063 1.389 . S
C1063 C1062 1.389 . S
C1063 C1064 1.387 . S
C1064 H1049 0.930 . S
C1064 C1059 1.390 . S
C1064 C1063 1.387 . S
H1065 C1077 0.930 . S
H1066 C1079 0.930 . S
H1067 C1080 0.930 . S
H1068 C1084 0.959 . S
H1069 C1084 0.959 . S
H1070 C1084 0.961 . S
H1071 C1085 0.960 . S
H1072 C1085 0.946 1_565 S
H1073 C1085 0.959 . S
H1074 C1088 0.929 . S
H1075 C1089 0.931 . S
H1076 C1091 0.935 . S
C1077 H1065 0.930 . S
C1077 C1078 1.399 . S
C1077 C1082 1.399 . S
C1078 C1077 1.399 . S
C1078 C1079 1.376 . S
C1079 H1066 0.930 . S
C1079 C1078 1.376 . S
C1079 C1080 1.388 . S
C1080 H1067 0.930 . S
C1080 C1079 1.388 . S
C1080 C1081 1.390 . S
C1081 C1080 1.390 . S
C1081 C1082 1.394 . S
C1081 C1087 1.465 . S
C1082 C1077 1.399 . S
C1082 C1081 1.394 . S
C1082 C1083 1.516 . S
C1083 C1082 1.516 . S
C1083 C1084 1.502 1_545 S
C1083 C1085 1.561 . S
C1083 C1086 1.526 . S
C1084 H1068 0.959 . S
C1084 H1069 0.959 . S
C1084 H1070 0.961 . S
C1084 C1083 1.502 1_565 S
C1085 H1071 0.960 . S
C1085 H1072 0.946 1_545 S
C1085 H1073 0.959 . S
C1085 C1083 1.561 . S
C1086 C1083 1.526 . S
C1086 C1087 1.396 . S
C1086 C1091 1.360 1_544 S
C1087 C1081 1.465 . S
C1087 C1086 1.396 . S
C1087 C1088 1.399 . S
C1088 H1074 0.929 . S
C1088 C1087 1.399 . S
C1088 C1089 1.385 1_554 S
C1089 H1075 0.931 . S
C1089 C1088 1.385 1_556 S
C1089 C1090 1.389 1_545 S
C1090 C1089 1.389 1_565 S
C1090 C1091 1.412 . S
C1091 H1076 0.935 . S
C1091 C1086 1.360 1_566 S
C1091 C1090 1.412 . S
H1092 C1104 0.930 . S
H1093 C1106 0.930 . S
H1094 C1107 0.930 . S
H1095 C1111 0.959 . S
H1096 C1111 0.959 . S
H1097 C1111 0.961 . S
H1098 C1112 0.960 . S
H1099 C1112 0.961 . S
H1100 C1112 0.959 . S
H1101 C1115 0.929 . S
H1102 C1116 0.931 . S
H1103 C1118 0.930 . S
C1104 H1092 0.930 . S
C1104 C1105 1.399 . S
C1104 C1109 1.399 . S
C1105 C1104 1.399 . S
C1105 C1106 1.376 . S
C1106 H1093 0.930 . S
C1106 C1105 1.376 . S
C1106 C1107 1.388 . S
C1107 H1094 0.930 . S
C1107 C1106 1.388 . S
C1107 C1108 1.390 . S
C1108 C1107 1.390 . S
C1108 C1109 1.394 . S
C1108 C1114 1.465 . S
C1109 C1104 1.399 . S
C1109 C1108 1.394 . S
C1109 C1110 1.516 . S
C1110 C1109 1.516 . S
C1110 C1111 1.502 . S
C1110 C1112 1.561 . S
C1110 C1113 1.526 . S
C1111 H1095 0.959 . S
C1111 H1096 0.959 . S
C1111 H1097 0.961 . S
C1111 C1110 1.502 . S
C1112 H1098 0.960 . S
C1112 H1099 0.961 . S
C1112 H1100 0.959 . S
C1112 C1110 1.561 . S
C1113 C1110 1.526 . S
C1113 C1114 1.396 . S
C1113 C1118 1.390 . S
C1114 C1108 1.465 . S
C1114 C1113 1.396 . S
C1114 C1115 1.399 . S
C1115 H1101 0.929 . S
C1115 C1114 1.399 . S
C1115 C1116 1.385 . S
C1116 H1102 0.931 . S
C1116 C1115 1.385 . S
C1116 C1117 1.389 . S
C1117 C1116 1.389 . S
C1117 C1118 1.387 . S
C1118 H1103 0.930 . S
C1118 C1113 1.390 . S
C1118 C1117 1.387 . S
H1119 C1131 0.929 1_554 S
H1120 C1133 0.930 . S
H1121 C1134 0.930 . S
H1122 C1138 0.959 . S
H1123 C1138 0.959 . S
H1124 C1138 0.961 . S
H1125 C1139 0.960 . S
H1126 C1139 0.961 . S
H1127 C1139 0.959 . S
H1128 C1142 0.929 . S
H1129 C1143 0.931 . S
H1130 C1145 0.930 . S
C1131 H1119 0.929 1_556 S
C1131 C1132 1.396 1_556 S
C1131 C1136 1.402 . S
C1132 C1131 1.396 1_554 S
C1132 C1133 1.376 . S
C1133 H1120 0.930 . S
C1133 C1132 1.376 . S
C1133 C1134 1.388 1_554 S
C1134 H1121 0.930 . S
C1134 C1133 1.388 1_556 S
C1134 C1135 1.390 . S
C1135 C1134 1.390 . S
C1135 C1136 1.394 . S
C1135 C1141 1.465 . S
C1136 C1131 1.402 . S
C1136 C1135 1.394 . S
C1136 C1137 1.516 . S
C1137 C1136 1.516 . S
C1137 C1138 1.502 . S
C1137 C1139 1.561 . S
C1137 C1140 1.526 . S
C1138 H1122 0.959 . S
C1138 H1123 0.959 . S
C1138 H1124 0.961 . S
C1138 C1137 1.502 . S
C1139 H1125 0.960 . S
C1139 H1126 0.961 . S
C1139 H1127 0.959 . S
C1139 C1137 1.561 . S
C1140 C1137 1.526 . S
C1140 C1141 1.396 . S
C1140 C1145 1.390 . S
C1141 C1135 1.465 . S
C1141 C1140 1.396 . S
C1141 C1142 1.399 . S
C1142 H1128 0.929 . S
C1142 C1141 1.399 . S
C1142 C1143 1.385 . S
C1143 H1129 0.931 . S
C1143 C1142 1.385 . S
C1143 C1144 1.389 . S
C1144 C1143 1.389 . S
C1144 C1145 1.387 . S
C1145 H1130 0.930 . S
C1145 C1140 1.390 . S
C1145 C1144 1.387 . S
H1146 C1158 0.930 . S
H1147 C1160 0.930 . S
H1148 C1161 0.930 . S
H1149 C1165 0.959 . S
H1150 C1165 0.959 . S
H1151 C1165 0.961 . S
H1152 C1166 0.960 . S
H1153 C1166 0.961 . S
H1154 C1166 0.959 . S
H1155 C1169 0.929 . S
H1156 C1170 0.931 . S
H1157 C1172 0.930 . S
C1158 H1146 0.930 . S
C1158 C1159 1.399 . S
C1158 C1163 1.399 . S
C1159 C1158 1.399 . S
C1159 C1160 1.376 . S
C1160 H1147 0.930 . S
C1160 C1159 1.376 . S
C1160 C1161 1.388 . S
C1161 H1148 0.930 . S
C1161 C1160 1.388 . S
C1161 C1162 1.390 . S
C1162 C1161 1.390 . S
C1162 C1163 1.394 . S
C1162 C1168 1.465 . S
C1163 C1158 1.399 . S
C1163 C1162 1.394 . S
C1163 C1164 1.516 . S
C1164 C1163 1.516 . S
C1164 C1165 1.502 . S
C1164 C1166 1.561 . S
C1164 C1167 1.526 . S
C1165 H1149 0.959 . S
C1165 H1150 0.959 . S
C1165 H1151 0.961 . S
C1165 C1164 1.502 . S
C1166 H1152 0.960 . S
C1166 H1153 0.961 . S
C1166 H1154 0.959 . S
C1166 C1164 1.561 . S
C1167 C1164 1.526 . S
C1167 C1168 1.396 . S
C1167 C1172 1.390 . S
C1168 C1162 1.465 . S
C1168 C1167 1.396 . S
C1168 C1169 1.399 . S
C1169 H1155 0.929 . S
C1169 C1168 1.399 . S
C1169 C1170 1.385 . S
C1170 H1156 0.931 . S
C1170 C1169 1.385 . S
C1170 C1171 1.389 . S
C1171 C1170 1.389 . S
C1171 C1172 1.387 . S
C1172 H1157 0.930 . S
C1172 C1167 1.390 . S
C1172 C1171 1.387 . S
H1173 C1185 0.930 . S
H1174 C1187 0.930 . S
H1175 C1188 0.930 . S
H1176 C1192 0.959 . S
H1177 C1192 0.959 . S
H1178 C1192 0.961 . S
H1179 C1193 0.960 . S
H1180 C1193 0.961 . S
H1181 C1193 0.959 . S
H1182 C1196 0.929 . S
H1183 C1197 0.931 . S
H1184 C1199 0.930 . S
C1185 H1173 0.930 . S
C1185 C1186 1.399 . S
C1185 C1190 1.399 . S
C1186 C1185 1.399 . S
C1186 C1187 1.376 . S
C1187 H1174 0.930 . S
C1187 C1186 1.376 . S
C1187 C1188 1.388 . S
C1188 H1175 0.930 . S
C1188 C1187 1.388 . S
C1188 C1189 1.390 . S
C1189 C1188 1.390 . S
C1189 C1190 1.394 . S
C1189 C1195 1.465 . S
C1190 C1185 1.399 . S
C1190 C1189 1.394 . S
C1190 C1191 1.516 . S
C1191 C1190 1.516 . S
C1191 C1192 1.502 . S
C1191 C1193 1.561 . S
C1191 C1194 1.526 . S
C1192 H1176 0.959 . S
C1192 H1177 0.959 . S
C1192 H1178 0.961 . S
C1192 C1191 1.502 . S
C1193 H1179 0.960 . S
C1193 H1180 0.961 . S
C1193 H1181 0.959 . S
C1193 C1191 1.561 . S
C1194 C1191 1.526 . S
C1194 C1195 1.396 . S
C1194 C1199 1.390 . S
C1195 C1189 1.465 . S
C1195 C1194 1.396 . S
C1195 C1196 1.399 . S
C1196 H1182 0.929 . S
C1196 C1195 1.399 . S
C1196 C1197 1.385 . S
C1197 H1183 0.931 . S
C1197 C1196 1.385 . S
C1197 C1198 1.389 . S
C1198 C1197 1.389 . S
C1198 C1199 1.387 . S
C1199 H1184 0.930 . S
C1199 C1194 1.390 . S
C1199 C1198 1.387 . S
H1200 C1212 0.930 . S
H1201 C1214 0.930 . S
H1202 C1215 0.930 . S
H1203 C1219 0.959 . S
H1204 C1219 0.959 . S
H1205 C1219 0.961 . S
H1206 C1220 0.960 . S
H1207 C1220 0.961 . S
H1208 C1220 0.959 . S
H1209 C1223 0.929 . S
H1210 C1224 0.931 . S
H1211 C1226 0.930 . S
C1212 H1200 0.930 . S
C1212 C1213 1.399 . S
C1212 C1217 1.399 . S
C1213 C1212 1.399 . S
C1213 C1214 1.376 . S
C1214 H1201 0.930 . S
C1214 C1213 1.376 . S
C1214 C1215 1.388 . S
C1215 H1202 0.930 . S
C1215 C1214 1.388 . S
C1215 C1216 1.390 . S
C1216 C1215 1.390 . S
C1216 C1217 1.394 . S
C1216 C1222 1.465 . S
C1217 C1212 1.399 . S
C1217 C1216 1.394 . S
C1217 C1218 1.516 . S
C1218 C1217 1.516 . S
C1218 C1219 1.502 . S
C1218 C1220 1.561 . S
C1218 C1221 1.526 . S
C1219 H1203 0.959 . S
C1219 H1204 0.959 . S
C1219 H1205 0.961 . S
C1219 C1218 1.502 . S
C1220 H1206 0.960 . S
C1220 H1207 0.961 . S
C1220 H1208 0.959 . S
C1220 C1218 1.561 . S
C1221 C1218 1.526 . S
C1221 C1222 1.396 . S
C1221 C1226 1.390 . S
C1222 C1216 1.465 . S
C1222 C1221 1.396 . S
C1222 C1223 1.399 . S
C1223 H1209 0.929 . S
C1223 C1222 1.399 . S
C1223 C1224 1.385 . S
C1224 H1210 0.931 . S
C1224 C1223 1.385 . S
C1224 C1225 1.389 . S
C1225 C1224 1.389 . S
C1225 C1226 1.387 . S
C1226 H1211 0.930 . S
C1226 C1221 1.390 . S
C1226 C1225 1.387 . S
H1227 C1239 0.930 . S
H1228 C1241 0.930 . S
H1229 C1242 0.930 . S
H1230 C1246 0.959 . S
H1231 C1246 0.961 . S
H1232 C1246 0.961 . S
H1233 C1247 0.960 . S
H1234 C1247 0.961 . S
H1235 C1247 0.959 . S
H1236 C1250 0.929 . S
H1237 C1251 0.931 . S
H1238 C1253 0.930 . S
C1239 H1227 0.930 . S
C1239 C1240 1.399 1_545 S
C1239 C1244 1.399 1_655 S
C1240 C1239 1.399 1_565 S
C1240 C1241 1.376 1_655 S
C1241 H1228 0.930 . S
C1241 C1240 1.376 1_455 S
C1241 C1242 1.388 . S
C1242 H1229 0.930 . S
C1242 C1241 1.388 . S
C1242 C1243 1.390 1_565 S
C1243 C1242 1.390 1_545 S
C1243 C1244 1.394 . S
C1243 C1249 1.465 . S
C1244 C1239 1.399 1_455 S
C1244 C1243 1.394 . S
C1244 C1245 1.516 . S
C1245 C1244 1.516 . S
C1245 C1246 1.502 1_455 S
C1245 C1247 1.561 . S
C1245 C1248 1.526 . S
C1246 H1230 0.959 . S
C1246 H1231 0.961 . S
C1246 H1232 0.961 . S
C1246 C1245 1.502 1_655 S
C1247 H1233 0.960 . S
C1247 H1234 0.961 . S
C1247 H1235 0.959 . S
C1247 C1245 1.561 . S
C1248 C1245 1.526 . S
C1248 C1249 1.396 . S
C1248 C1253 1.390 . S
C1249 C1243 1.465 . S
C1249 C1248 1.396 . S
C1249 C1250 1.399 . S
C1250 H1236 0.929 . S
C1250 C1249 1.399 . S
C1250 C1251 1.385 . S
C1251 H1237 0.931 . S
C1251 C1250 1.385 . S
C1251 C1252 1.389 . S
C1252 C1251 1.389 . S
C1252 C1253 1.387 . S
C1253 H1238 0.930 . S
C1253 C1248 1.390 . S
C1253 C1252 1.387 . S
H1254 C1266 0.930 . S
H1255 C1268 0.930 . S
H1256 C1269 0.930 . S
H1257 C1273 0.959 . S
H1258 C1273 0.959 . S
H1259 C1273 0.961 . S
H1260 C1274 0.960 . S
H1261 C1274 0.961 . S
H1262 C1274 0.959 . S
H1263 C1277 0.929 . S
H1264 C1278 0.931 . S
H1265 C1280 0.930 . S
C1266 H1254 0.930 . S
C1266 C1267 1.399 . S
C1266 C1271 1.399 . S
C1267 C1266 1.399 . S
C1267 C1268 1.376 . S
C1268 H1255 0.930 . S
C1268 C1267 1.376 . S
C1268 C1269 1.388 . S
C1269 H1256 0.930 . S
C1269 C1268 1.388 . S
C1269 C1270 1.390 . S
C1270 C1269 1.390 . S
C1270 C1271 1.394 . S
C1270 C1276 1.465 . S
C1271 C1266 1.399 . S
C1271 C1270 1.394 . S
C1271 C1272 1.516 . S
C1272 C1271 1.516 . S
C1272 C1273 1.502 . S
C1272 C1274 1.561 . S
C1272 C1275 1.526 . S
C1273 H1257 0.959 . S
C1273 H1258 0.959 . S
C1273 H1259 0.961 . S
C1273 C1272 1.502 . S
C1274 H1260 0.960 . S
C1274 H1261 0.961 . S
C1274 H1262 0.959 . S
C1274 C1272 1.561 . S
C1275 C1272 1.526 . S
C1275 C1276 1.396 . S
C1275 C1280 1.390 . S
C1276 C1270 1.465 . S
C1276 C1275 1.396 . S
C1276 C1277 1.399 . S
C1277 H1263 0.929 . S
C1277 C1276 1.399 . S
C1277 C1278 1.385 . S
C1278 H1264 0.931 . S
C1278 C1277 1.385 . S
C1278 C1279 1.389 . S
C1279 C1278 1.389 . S
C1279 C1280 1.387 . S
C1280 H1265 0.930 . S
C1280 C1275 1.390 . S
C1280 C1279 1.387 . S
H1281 C1293 0.929 . S
H1282 C1295 0.930 . S
H1283 C1296 0.930 . S
H1284 C1300 0.959 . S
H1285 C1300 0.959 . S
H1286 C1300 0.961 . S
H1287 C1301 0.960 . S
H1288 C1301 0.961 . S
H1289 C1301 0.959 . S
H1290 C1304 0.929 . S
H1291 C1305 0.931 . S
H1292 C1307 0.930 . S
C1293 H1281 0.929 . S
C1293 C1294 1.396 . S
C1293 C1298 1.403 1_545 S
C1294 C1293 1.396 . S
C1294 C1295 1.376 . S
C1295 H1282 0.930 . S
C1295 C1294 1.376 . S
C1295 C1296 1.388 1_545 S
C1296 H1283 0.930 . S
C1296 C1295 1.388 1_565 S
C1296 C1297 1.390 . S
C1297 C1296 1.390 . S
C1297 C1298 1.394 . S
C1297 C1303 1.465 . S
C1298 C1293 1.403 1_565 S
C1298 C1297 1.394 . S
C1298 C1299 1.516 . S
C1299 C1298 1.516 . S
C1299 C1300 1.502 . S
C1299 C1301 1.561 . S
C1299 C1302 1.526 . S
C1300 H1284 0.959 . S
C1300 H1285 0.959 . S
C1300 H1286 0.961 . S
C1300 C1299 1.502 . S
C1301 H1287 0.960 . S
C1301 H1288 0.961 . S
C1301 H1289 0.959 . S
C1301 C1299 1.561 . S
C1302 C1299 1.526 . S
C1302 C1303 1.396 . S
C1302 C1307 1.390 . S
C1303 C1297 1.465 . S
C1303 C1302 1.396 . S
C1303 C1304 1.399 . S
C1304 H1290 0.929 . S
C1304 C1303 1.399 . S
C1304 C1305 1.385 . S
C1305 H1291 0.931 . S
C1305 C1304 1.385 . S
C1305 C1306 1.389 . S
C1306 C1305 1.389 . S
C1306 C1307 1.387 . S
C1307 H1292 0.930 . S
C1307 C1302 1.390 . S
C1307 C1306 1.387 . S
H1308 C1320 0.930 . S
H1309 C1322 0.930 . S
H1310 C1323 0.930 . S
H1311 C1327 0.959 . S
H1312 C1327 0.959 . S
H1313 C1327 0.961 . S
H1314 C1328 0.960 . S
H1315 C1328 0.961 . S
H1316 C1328 0.959 . S
H1317 C1331 0.929 . S
H1318 C1332 0.931 . S
H1319 C1334 0.930 . S
C1320 H1308 0.930 . S
C1320 C1321 1.399 . S
C1320 C1325 1.399 . S
C1321 C1320 1.399 . S
C1321 C1322 1.376 . S
C1322 H1309 0.930 . S
C1322 C1321 1.376 . S
C1322 C1323 1.388 . S
C1323 H1310 0.930 . S
C1323 C1322 1.388 . S
C1323 C1324 1.390 . S
C1324 C1323 1.390 . S
C1324 C1325 1.394 . S
C1324 C1330 1.465 . S
C1325 C1320 1.399 . S
C1325 C1324 1.394 . S
C1325 C1326 1.516 . S
C1326 C1325 1.516 . S
C1326 C1327 1.502 . S
C1326 C1328 1.561 . S
C1326 C1329 1.526 . S
C1327 H1311 0.959 . S
C1327 H1312 0.959 . S
C1327 H1313 0.961 . S
C1327 C1326 1.502 . S
C1328 H1314 0.960 . S
C1328 H1315 0.961 . S
C1328 H1316 0.959 . S
C1328 C1326 1.561 . S
C1329 C1326 1.526 . S
C1329 C1330 1.396 . S
C1329 C1334 1.390 . S
C1330 C1324 1.465 . S
C1330 C1329 1.396 . S
C1330 C1331 1.399 . S
C1331 H1317 0.929 . S
C1331 C1330 1.399 . S
C1331 C1332 1.385 . S
C1332 H1318 0.931 . S
C1332 C1331 1.385 . S
C1332 C1333 1.389 . S
C1333 C1332 1.389 . S
C1333 C1334 1.387 . S
C1334 H1319 0.930 . S
C1334 C1329 1.390 . S
C1334 C1333 1.387 . S
H1335 C1347 0.930 . S
H1336 C1349 0.930 . S
H1337 C1350 0.930 . S
H1338 C1354 0.959 . S
H1339 C1354 0.959 . S
H1340 C1354 0.961 . S
H1341 C1355 0.960 . S
H1342 C1355 0.961 . S
H1343 C1355 0.959 . S
H1344 C1358 0.929 1_455 S
H1345 C1359 0.931 . S
H1346 C1361 0.930 . S
C1347 H1335 0.930 . S
C1347 C1348 1.399 1_655 S
C1347 C1352 1.399 . S
C1348 C1347 1.399 1_455 S
C1348 C1349 1.376 . S
C1349 H1336 0.930 . S
C1349 C1348 1.376 . S
C1349 C1350 1.388 . S
C1350 H1337 0.930 . S
C1350 C1349 1.388 . S
C1350 C1351 1.390 1_455 S
C1351 C1350 1.390 1_655 S
C1351 C1352 1.394 . S
C1351 C1357 1.465 . S
C1352 C1347 1.399 . S
C1352 C1351 1.394 . S
C1352 C1353 1.516 . S
C1353 C1352 1.516 . S
C1353 C1354 1.502 . S
C1353 C1355 1.561 . S
C1353 C1356 1.526 . S
C1354 H1338 0.959 . S
C1354 H1339 0.959 . S
C1354 H1340 0.961 . S
C1354 C1353 1.502 . S
C1355 H1341 0.960 . S
C1355 H1342 0.961 . S
C1355 H1343 0.959 . S
C1355 C1353 1.561 . S
C1356 C1353 1.526 . S
C1356 C1357 1.396 . S
C1356 C1361 1.390 . S
C1357 C1351 1.465 . S
C1357 C1356 1.396 . S
C1357 C1358 1.399 . S
C1358 H1344 0.929 1_655 S
C1358 C1357 1.399 . S
C1358 C1359 1.385 . S
C1359 H1345 0.931 . S
C1359 C1358 1.385 . S
C1359 C1360 1.389 . S
C1360 C1359 1.389 . S
C1360 C1361 1.387 . S
C1361 H1346 0.930 . S
C1361 C1356 1.390 . S
C1361 C1360 1.387 . S
H1362 C1374 0.930 . S
H1363 C1376 0.930 . S
H1364 C1377 0.930 . S
H1365 C1381 0.959 . S
H1366 C1381 0.959 . S
H1367 C1381 0.961 . S
H1368 C1382 0.960 . S
H1369 C1382 0.961 . S
H1370 C1382 0.959 . S
H1371 C1385 0.929 . S
H1372 C1386 0.931 . S
H1373 C1388 0.930 . S
C1374 H1362 0.930 . S
C1374 C1375 1.399 . S
C1374 C1379 1.399 . S
C1375 C1374 1.399 . S
C1375 C1376 1.376 . S
C1376 H1363 0.930 . S
C1376 C1375 1.376 . S
C1376 C1377 1.388 . S
C1377 H1364 0.930 . S
C1377 C1376 1.388 . S
C1377 C1378 1.390 . S
C1378 C1377 1.390 . S
C1378 C1379 1.394 . S
C1378 C1384 1.465 . S
C1379 C1374 1.399 . S
C1379 C1378 1.394 . S
C1379 C1380 1.516 . S
C1380 C1379 1.516 . S
C1380 C1381 1.502 . S
C1380 C1382 1.561 . S
C1380 C1383 1.526 . S
C1381 H1365 0.959 . S
C1381 H1366 0.959 . S
C1381 H1367 0.961 . S
C1381 C1380 1.502 . S
C1382 H1368 0.960 . S
C1382 H1369 0.961 . S
C1382 H1370 0.959 . S
C1382 C1380 1.561 . S
C1383 C1380 1.526 . S
C1383 C1384 1.396 . S
C1383 C1388 1.390 . S
C1384 C1378 1.465 . S
C1384 C1383 1.396 . S
C1384 C1385 1.399 . S
C1385 H1371 0.929 . S
C1385 C1384 1.399 . S
C1385 C1386 1.385 . S
C1386 H1372 0.931 . S
C1386 C1385 1.385 . S
C1386 C1387 1.389 . S
C1387 C1386 1.389 . S
C1387 C1388 1.387 . S
C1388 H1373 0.930 . S
C1388 C1383 1.390 . S
C1388 C1387 1.387 . S
H1389 C1401 0.930 . S
H1390 C1403 0.930 . S
H1391 C1404 0.930 . S
H1392 C1408 0.959 . S
H1393 C1408 0.959 . S
H1394 C1408 0.961 . S
H1395 C1409 0.960 . S
H1396 C1409 0.961 . S
H1397 C1409 0.959 . S
H1398 C1412 0.929 . S
H1399 C1413 0.931 . S
H1400 C1415 0.930 . S
C1401 H1389 0.930 . S
C1401 C1402 1.399 . S
C1401 C1406 1.399 . S
C1402 C1401 1.399 . S
C1402 C1403 1.376 . S
C1403 H1390 0.930 . S
C1403 C1402 1.376 . S
C1403 C1404 1.388 . S
C1404 H1391 0.930 . S
C1404 C1403 1.388 . S
C1404 C1405 1.390 . S
C1405 C1404 1.390 . S
C1405 C1406 1.394 . S
C1405 C1411 1.465 . S
C1406 C1401 1.399 . S
C1406 C1405 1.394 . S
C1406 C1407 1.516 . S
C1407 C1406 1.516 . S
C1407 C1408 1.502 . S
C1407 C1409 1.561 . S
C1407 C1410 1.526 . S
C1408 H1392 0.959 . S
C1408 H1393 0.959 . S
C1408 H1394 0.961 . S
C1408 C1407 1.502 . S
C1409 H1395 0.960 . S
C1409 H1396 0.961 . S
C1409 H1397 0.959 . S
C1409 C1407 1.561 . S
C1410 C1407 1.526 . S
C1410 C1411 1.396 . S
C1410 C1415 1.390 . S
C1411 C1405 1.465 . S
C1411 C1410 1.396 . S
C1411 C1412 1.399 . S
C1412 H1398 0.929 . S
C1412 C1411 1.399 . S
C1412 C1413 1.385 . S
C1413 H1399 0.931 . S
C1413 C1412 1.385 . S
C1413 C1414 1.389 . S
C1414 C1413 1.389 . S
C1414 C1415 1.387 . S
C1415 H1400 0.930 . S
C1415 C1410 1.390 . S
C1415 C1414 1.387 . S
H1416 C1428 0.930 . S
H1417 C1430 0.930 . S
H1418 C1431 0.930 . S
H1419 C1435 0.959 . S
H1420 C1435 0.959 . S
H1421 C1435 0.961 . S
H1422 C1436 0.960 . S
H1423 C1436 0.961 . S
H1424 C1436 0.959 . S
H1425 C1439 0.929 . S
H1426 C1440 0.931 . S
H1427 C1442 0.930 . S
C1428 H1416 0.930 . S
C1428 C1429 1.399 . S
C1428 C1433 1.399 . S
C1429 C1428 1.399 . S
C1429 C1430 1.376 . S
C1430 H1417 0.930 . S
C1430 C1429 1.376 . S
C1430 C1431 1.388 . S
C1431 H1418 0.930 . S
C1431 C1430 1.388 . S
C1431 C1432 1.390 . S
C1432 C1431 1.390 . S
C1432 C1433 1.394 . S
C1432 C1438 1.465 . S
C1433 C1428 1.399 . S
C1433 C1432 1.394 . S
C1433 C1434 1.516 . S
C1434 C1433 1.516 . S
C1434 C1435 1.502 . S
C1434 C1436 1.561 . S
C1434 C1437 1.526 . S
C1435 H1419 0.959 . S
C1435 H1420 0.959 . S
C1435 H1421 0.961 . S
C1435 C1434 1.502 . S
C1436 H1422 0.960 . S
C1436 H1423 0.961 . S
C1436 H1424 0.959 . S
C1436 C1434 1.561 . S
C1437 C1434 1.526 . S
C1437 C1438 1.396 . S
C1437 C1442 1.390 . S
C1438 C1432 1.465 . S
C1438 C1437 1.396 . S
C1438 C1439 1.399 . S
C1439 H1425 0.929 . S
C1439 C1438 1.399 . S
C1439 C1440 1.385 . S
C1440 H1426 0.931 . S
C1440 C1439 1.385 . S
C1440 C1441 1.389 . S
C1441 C1440 1.389 . S
C1441 C1442 1.387 . S
C1442 H1427 0.930 . S
C1442 C1437 1.390 . S
C1442 C1441 1.387 . S
H1443 C1455 0.930 . S
H1444 C1457 0.930 . S
H1445 C1458 0.930 . S
H1446 C1462 0.959 . S
H1447 C1462 0.959 . S
H1448 C1462 0.961 . S
H1449 C1463 0.960 . S
H1450 C1463 0.961 . S
H1451 C1463 0.959 . S
H1452 C1466 0.929 . S
H1453 C1467 0.931 . S
H1454 C1469 0.930 . S
C1455 H1443 0.930 . S
C1455 C1456 1.399 . S
C1455 C1460 1.399 . S
C1456 C1455 1.399 . S
C1456 C1457 1.376 . S
C1457 H1444 0.930 . S
C1457 C1456 1.376 . S
C1457 C1458 1.388 . S
C1458 H1445 0.930 . S
C1458 C1457 1.388 . S
C1458 C1459 1.390 . S
C1459 C1458 1.390 . S
C1459 C1460 1.394 . S
C1459 C1465 1.465 . S
C1460 C1455 1.399 . S
C1460 C1459 1.394 . S
C1460 C1461 1.516 . S
C1461 C1460 1.516 . S
C1461 C1462 1.502 . S
C1461 C1463 1.561 . S
C1461 C1464 1.526 . S
C1462 H1446 0.959 . S
C1462 H1447 0.959 . S
C1462 H1448 0.961 . S
C1462 C1461 1.502 . S
C1463 H1449 0.960 . S
C1463 H1450 0.961 . S
C1463 H1451 0.959 . S
C1463 C1461 1.561 . S
C1464 C1461 1.526 . S
C1464 C1465 1.396 . S
C1464 C1469 1.390 . S
C1465 C1459 1.465 . S
C1465 C1464 1.396 . S
C1465 C1466 1.399 . S
C1466 H1452 0.929 . S
C1466 C1465 1.399 . S
C1466 C1467 1.385 . S
C1467 H1453 0.931 . S
C1467 C1466 1.385 . S
C1467 C1468 1.389 . S
C1468 C1467 1.389 . S
C1468 C1469 1.387 . S
C1469 H1454 0.930 . S
C1469 C1464 1.390 . S
C1469 C1468 1.387 . S
H1470 C1482 0.930 . S
H1471 C1484 0.930 . S
H1472 C1485 0.930 . S
H1473 C1489 0.959 . S
H1474 C1489 0.959 . S
H1475 C1489 0.961 . S
H1476 C1490 0.934 1_556 S
H1477 C1490 0.957 1_556 S
H1478 C1490 0.988 . S
H1479 C1493 0.929 . S
H1480 C1494 0.931 . S
H1481 C1496 0.930 . S
C1482 H1470 0.930 . S
C1482 C1483 1.399 1_455 S
C1482 C1487 1.399 1_556 S
C1483 C1482 1.399 1_655 S
C1483 C1484 1.376 1_556 S
C1484 H1471 0.930 . S
C1484 C1483 1.376 1_554 S
C1484 C1485 1.388 . S
C1485 H1472 0.930 . S
C1485 C1484 1.388 . S
C1485 C1486 1.390 1_655 S
C1486 C1485 1.390 1_455 S
C1486 C1487 1.394 . S
C1486 C1492 1.465 . S
C1487 C1482 1.399 1_554 S
C1487 C1486 1.394 . S
C1487 C1488 1.516 . S
C1488 C1487 1.516 . S
C1488 C1489 1.502 1_554 S
C1488 C1490 1.563 . S
C1488 C1491 1.526 . S
C1489 H1473 0.959 . S
C1489 H1474 0.959 . S
C1489 H1475 0.961 . S
C1489 C1488 1.502 1_556 S
C1490 H1476 0.934 1_554 S
C1490 H1477 0.957 1_554 S
C1490 H1478 0.988 . S
C1490 C1488 1.563 . S
C1491 C1488 1.526 . S
C1491 C1492 1.396 . S
C1491 C1496 1.390 . S
C1492 C1486 1.465 . S
C1492 C1491 1.396 . S
C1492 C1493 1.399 . S
C1493 H1479 0.929 . S
C1493 C1492 1.399 . S
C1493 C1494 1.385 . S
C1494 H1480 0.931 . S
C1494 C1493 1.385 . S
C1494 C1495 1.389 . S
C1495 C1494 1.389 . S
C1495 C1496 1.387 . S
C1496 H1481 0.930 . S
C1496 C1491 1.390 . S
C1496 C1495 1.387 . S
H1497 C1509 0.930 . S
H1498 C1511 0.930 . S
H1499 C1512 0.930 . S
H1500 C1516 0.959 . S
H1501 C1516 0.959 . S
H1502 C1516 0.961 . S
H1503 C1517 0.960 . S
H1504 C1517 0.961 . S
H1505 C1517 0.959 . S
H1506 C1520 0.929 . S
H1507 C1521 0.931 . S
H1508 C1523 0.930 . S
C1509 H1497 0.930 . S
C1509 C1510 1.399 . S
C1509 C1514 1.399 . S
C1510 C1509 1.399 . S
C1510 C1511 1.376 . S
C1511 H1498 0.930 . S
C1511 C1510 1.376 . S
C1511 C1512 1.388 . S
C1512 H1499 0.930 . S
C1512 C1511 1.388 . S
C1512 C1513 1.390 . S
C1513 C1512 1.390 . S
C1513 C1514 1.394 . S
C1513 C1519 1.465 . S
C1514 C1509 1.399 . S
C1514 C1513 1.394 . S
C1514 C1515 1.516 . S
C1515 C1514 1.516 . S
C1515 C1516 1.502 . S
C1515 C1517 1.561 . S
C1515 C1518 1.526 . S
C1516 H1500 0.959 . S
C1516 H1501 0.959 . S
C1516 H1502 0.961 . S
C1516 C1515 1.502 . S
C1517 H1503 0.960 . S
C1517 H1504 0.961 . S
C1517 H1505 0.959 . S
C1517 C1515 1.561 . S
C1518 C1515 1.526 . S
C1518 C1519 1.396 . S
C1518 C1523 1.390 . S
C1519 C1513 1.465 . S
C1519 C1518 1.396 . S
C1519 C1520 1.399 . S
C1520 H1506 0.929 . S
C1520 C1519 1.399 . S
C1520 C1521 1.385 . S
C1521 H1507 0.931 . S
C1521 C1520 1.385 . S
C1521 C1522 1.389 . S
C1522 C1521 1.389 . S
C1522 C1523 1.387 . S
C1523 H1508 0.930 . S
C1523 C1518 1.390 . S
C1523 C1522 1.387 . S
H1524 C1536 0.930 . S
H1525 C1538 0.930 . S
H1526 C1539 0.930 . S
H1527 C1543 0.959 . S
H1528 C1543 0.959 . S
H1529 C1543 0.961 . S
H1530 C1544 0.960 . S
H1531 C1544 0.961 . S
H1532 C1544 0.959 . S
H1533 C1547 0.929 . S
H1534 C1548 0.931 . S
H1535 C1550 0.930 . S
C1536 H1524 0.930 . S
C1536 C1537 1.399 . S
C1536 C1541 1.399 . S
C1537 C1536 1.399 . S
C1537 C1538 1.376 . S
C1538 H1525 0.930 . S
C1538 C1537 1.376 . S
C1538 C1539 1.388 . S
C1539 H1526 0.930 . S
C1539 C1538 1.388 . S
C1539 C1540 1.390 . S
C1540 C1539 1.390 . S
C1540 C1541 1.394 . S
C1540 C1546 1.465 . S
C1541 C1536 1.399 . S
C1541 C1540 1.394 . S
C1541 C1542 1.516 . S
C1542 C1541 1.516 . S
C1542 C1543 1.502 . S
C1542 C1544 1.561 . S
C1542 C1545 1.526 . S
C1543 H1527 0.959 . S
C1543 H1528 0.959 . S
C1543 H1529 0.961 . S
C1543 C1542 1.502 . S
C1544 H1530 0.960 . S
C1544 H1531 0.961 . S
C1544 H1532 0.959 . S
C1544 C1542 1.561 . S
C1545 C1542 1.526 . S
C1545 C1546 1.396 . S
C1545 C1550 1.390 . S
C1546 C1540 1.465 . S
C1546 C1545 1.396 . S
C1546 C1547 1.399 . S
C1547 H1533 0.929 . S
C1547 C1546 1.399 . S
C1547 C1548 1.385 . S
C1548 H1534 0.931 . S
C1548 C1547 1.385 . S
C1548 C1549 1.389 . S
C1549 C1548 1.389 . S
C1549 C1550 1.387 . S
C1550 H1535 0.930 . S
C1550 C1545 1.390 . S
C1550 C1549 1.387 . S
H1551 C1563 0.930 . S
H1552 C1565 0.930 . S
H1553 C1566 0.930 . S
H1554 C1570 0.959 . S
H1555 C1570 0.959 . S
H1556 C1570 0.961 . S
H1557 C1571 0.960 . S
H1558 C1571 0.961 . S
H1559 C1571 0.959 . S
H1560 C1574 0.929 . S
H1561 C1575 0.931 . S
H1562 C1577 0.930 . S
C1563 H1551 0.930 . S
C1563 C1564 1.399 . S
C1563 C1568 1.399 . S
C1564 C1563 1.399 . S
C1564 C1565 1.376 . S
C1565 H1552 0.930 . S
C1565 C1564 1.376 . S
C1565 C1566 1.388 . S
C1566 H1553 0.930 . S
C1566 C1565 1.388 . S
C1566 C1567 1.390 . S
C1567 C1566 1.390 . S
C1567 C1568 1.394 . S
C1567 C1573 1.465 . S
C1568 C1563 1.399 . S
C1568 C1567 1.394 . S
C1568 C1569 1.516 . S
C1569 C1568 1.516 . S
C1569 C1570 1.502 . S
C1569 C1571 1.561 . S
C1569 C1572 1.526 . S
C1570 H1554 0.959 . S
C1570 H1555 0.959 . S
C1570 H1556 0.961 . S
C1570 C1569 1.502 . S
C1571 H1557 0.960 . S
C1571 H1558 0.961 . S
C1571 H1559 0.959 . S
C1571 C1569 1.561 . S
C1572 C1569 1.526 . S
C1572 C1573 1.396 . S
C1572 C1577 1.390 . S
C1573 C1567 1.465 . S
C1573 C1572 1.396 . S
C1573 C1574 1.399 . S
C1574 H1560 0.929 . S
C1574 C1573 1.399 . S
C1574 C1575 1.385 . S
C1575 H1561 0.931 . S
C1575 C1574 1.385 . S
C1575 C1576 1.389 . S
C1576 C1575 1.389 . S
C1576 C1577 1.387 . S
C1577 H1562 0.930 . S
C1577 C1572 1.390 . S
C1577 C1576 1.387 . S
H1578 C1590 0.930 . S
H1579 C1592 0.930 . S
H1580 C1593 0.930 . S
H1581 C1597 0.959 . S
H1582 C1597 0.959 . S
H1583 C1597 0.961 . S
H1584 C1598 0.960 . S
H1585 C1598 0.961 . S
H1586 C1598 0.959 . S
H1587 C1601 0.929 . S
H1588 C1602 0.931 . S
H1589 C1604 0.930 . S
C1590 H1578 0.930 . S
C1590 C1591 1.399 . S
C1590 C1595 1.399 1_554 S
C1591 C1590 1.399 . S
C1591 C1592 1.376 1_554 S
C1592 H1579 0.930 . S
C1592 C1591 1.376 1_556 S
C1592 C1593 1.388 . S
C1593 H1580 0.930 . S
C1593 C1592 1.388 . S
C1593 C1594 1.390 . S
C1594 C1593 1.390 . S
C1594 C1595 1.394 . S
C1594 C1600 1.465 . S
C1595 C1590 1.399 1_556 S
C1595 C1594 1.394 . S
C1595 C1596 1.516 . S
C1596 C1595 1.516 . S
C1596 C1597 1.502 1_556 S
C1596 C1598 1.561 . S
C1596 C1599 1.526 . S
C1597 H1581 0.959 . S
C1597 H1582 0.959 . S
C1597 H1583 0.961 . S
C1597 C1596 1.502 1_554 S
C1598 H1584 0.960 . S
C1598 H1585 0.961 . S
C1598 H1586 0.959 . S
C1598 C1596 1.561 . S
C1599 C1596 1.526 . S
C1599 C1600 1.396 . S
C1599 C1604 1.390 . S
C1600 C1594 1.465 . S
C1600 C1599 1.396 . S
C1600 C1601 1.399 . S
C1601 H1587 0.929 . S
C1601 C1600 1.399 . S
C1601 C1602 1.385 . S
C1602 H1588 0.931 . S
C1602 C1601 1.385 . S
C1602 C1603 1.389 . S
C1603 C1602 1.389 . S
C1603 C1604 1.387 . S
C1604 H1589 0.930 . S
C1604 C1599 1.390 . S
C1604 C1603 1.387 . S
H1605 C1617 0.930 . S
H1606 C1619 0.930 . S
H1607 C1620 0.930 . S
H1608 C1624 0.959 . S
H1609 C1624 0.959 . S
H1610 C1624 0.961 . S
H1611 C1625 0.960 . S
H1612 C1625 0.961 . S
H1613 C1625 0.959 . S
H1614 C1628 0.929 . S
H1615 C1629 0.931 . S
H1616 C1631 0.930 . S
C1617 H1605 0.930 . S
C1617 C1618 1.399 . S
C1617 C1622 1.399 . S
C1618 C1617 1.399 . S
C1618 C1619 1.376 . S
C1619 H1606 0.930 . S
C1619 C1618 1.376 . S
C1619 C1620 1.388 . S
C1620 H1607 0.930 . S
C1620 C1619 1.388 . S
C1620 C1621 1.390 . S
C1621 C1620 1.390 . S
C1621 C1622 1.394 . S
C1621 C1627 1.465 . S
C1622 C1617 1.399 . S
C1622 C1621 1.394 . S
C1622 C1623 1.516 . S
C1623 C1622 1.516 . S
C1623 C1624 1.502 . S
C1623 C1625 1.561 . S
C1623 C1626 1.526 . S
C1624 H1608 0.959 . S
C1624 H1609 0.959 . S
C1624 H1610 0.961 . S
C1624 C1623 1.502 . S
C1625 H1611 0.960 . S
C1625 H1612 0.961 . S
C1625 H1613 0.959 . S
C1625 C1623 1.561 . S
C1626 C1623 1.526 . S
C1626 C1627 1.396 . S
C1626 C1631 1.390 . S
C1627 C1621 1.465 . S
C1627 C1626 1.396 . S
C1627 C1628 1.399 1_655 S
C1628 H1614 0.929 . S
C1628 C1627 1.399 1_455 S
C1628 C1629 1.385 . S
C1629 H1615 0.931 . S
C1629 C1628 1.385 . S
C1629 C1630 1.389 . S
C1630 C1629 1.389 . S
C1630 C1631 1.387 1_455 S
C1631 H1616 0.930 . S
C1631 C1626 1.390 . S
C1631 C1630 1.387 1_655 S
C349 C134 1.171 . S
C361 C8 1.214 . S
C376 C22 1.160 . S
C388 C148 1.222 . S
C403 C36 1.171 . S
C415 C162 1.211 . S
C430 C50 1.157 . S
C442 C120 1.226 . S
C457 C64 1.226 . S
C469 C218 1.158 . S
C484 C176 1.183 . S
C496 C78 1.204 . S
C511 C92 1.192 . S
C523 C190 1.195 . S
C538 C204 1.220 . S
C550 C106 1.166 . S
C565 C232 1.227 . S
C577 C260 1.157 . S
C592 C316 1.170 . S
C604 C246 1.212 . S
C619 C274 1.218 . S
C631 C330 1.168 . S
C646 C302 1.163 . S
C658 C288 1.219 . S
C673 C287 1.678 . S
C685 C7 1.658 . S
C700 C21 1.644 . S
C712 C245 1.656 . S
C727 C35 1.679 . S
C739 C259 1.659 . S
C754 C49 1.644 . S
C766 C273 1.653 . S
C781 C63 1.648 . S
C793 C329 1.645 . S
C808 C301 1.649 . S
C820 C77 1.665 . S
C835 C315 1.685 . S
C847 C91 1.709 . S
C862 C231 1.644 . S
C874 C105 1.653 . S
C889 C217 1.682 . S
C901 C119 1.661 . S
C916 C133 1.679 . S
C928 C175 1.702 . S
C943 C189 1.711 . S
C955 C147 1.688 . S
C970 C203 1.686 . S
C982 C161 1.709 . S
C997 C9 1.133 . S
C1009 C227 1.151 . S
C1024 C325 1.152 . S
C1036 C23 1.132 . S
C1051 C297 1.167 . S
C1063 C37 1.045 . S
C1078 C51 1.133 . S
C1090 C311 1.154 . S
C1105 C65 0.979 . S
C1117 C241 1.145 . S
C1132 C255 1.163 . S
C1144 C79 1.022 . S
C1159 C269 1.170 . S
C1171 C93 1.069 . S
C1186 C283 1.158 . S
C1198 C107 1.128 . S
C1213 C3 1.154 . S
C1225 C121 0.996 . S
C1240 C17 1.169 . S
C1252 C135 1.061 . S
C1267 C31 1.130 . S
C1279 C149 0.975 . S
C1294 C45 1.137 . S
C1306 C163 1.124 . S
C1321 C59 1.117 . S
C1333 C177 1.071 . S
C1348 C73 1.116 . S
C1360 C191 1.005 . S
C1375 C205 1.131 . S
C1387 C87 1.144 . S
C1402 C101 1.170 . S
C1414 C219 1.091 . S
C1429 C115 1.114 . S
C1441 C233 1.026 . S
C1456 C247 1.030 . S
C1468 C171 1.165 . S
C1483 C185 1.166 . S
C1495 C261 1.112 . S
C1510 C275 1.073 . S
C1522 C199 1.170 . S
C1537 C289 1.040 . S
C1549 C213 1.115 . S
C1564 C303 1.006 . S
C1576 C143 1.116 . S
C1591 C157 1.170 . S
C1603 C317 1.064 . S
C1618 C331 1.037 . S
C1630 C129 1.166 . S
