# Generated by pormake.
# Topology uos, (4)-cn, num edge types: 1
# Building blocks:
#     Node 0, Type 0, BuildingBlock: QUQFOY_clean_sbu_1, # of connection points: 4
#     Node 1, Type 0, BuildingBlock: QUQFOY_clean_sbu_1, # of connection points: 4
#     Node 2, Type 0, BuildingBlock: QUQFOY_clean_sbu_1, # of connection points: 4
#     Node 3, Type 0, BuildingBlock: QUQFOY_clean_sbu_1, # of connection points: 4
#     Node 4, Type 0, BuildingBlock: QUQFOY_clean_sbu_1, # of connection points: 4
#     Node 5, Type 0, BuildingBlock: QUQFOY_clean_sbu_1, # of connection points: 4
#     Node 6, Type 0, BuildingBlock: QUQFOY_clean_sbu_1, # of connection points: 4
#     Node 7, Type 0, BuildingBlock: QUQFOY_clean_sbu_1, # of connection points: 4
#     Node 8, Type 0, BuildingBlock: QUQFOY_clean_sbu_1, # of connection points: 4
#     Node 9, Type 0, BuildingBlock: QUQFOY_clean_sbu_1, # of connection points: 4
#     Node 10, Type 0, BuildingBlock: QUQFOY_clean_sbu_1, # of connection points: 4
#     Node 11, Type 0, BuildingBlock: QUQFOY_clean_sbu_1, # of connection points: 4
#     Node 12, Type 0, BuildingBlock: QUQFOY_clean_sbu_1, # of connection points: 4
#     Node 13, Type 0, BuildingBlock: QUQFOY_clean_sbu_1, # of connection points: 4
#     Node 14, Type 0, BuildingBlock: QUQFOY_clean_sbu_1, # of connection points: 4
#     Node 15, Type 0, BuildingBlock: QUQFOY_clean_sbu_1, # of connection points: 4
#     Node 16, Type 0, BuildingBlock: QUQFOY_clean_sbu_1, # of connection points: 4
#     Node 17, Type 0, BuildingBlock: QUQFOY_clean_sbu_1, # of connection points: 4
#     Node 18, Type 0, BuildingBlock: QUQFOY_clean_sbu_1, # of connection points: 4
#     Node 19, Type 0, BuildingBlock: QUQFOY_clean_sbu_1, # of connection points: 4
#     Node 20, Type 0, BuildingBlock: QUQFOY_clean_sbu_1, # of connection points: 4
#     Node 21, Type 0, BuildingBlock: QUQFOY_clean_sbu_1, # of connection points: 4
#     Node 22, Type 0, BuildingBlock: QUQFOY_clean_sbu_1, # of connection points: 4
#     Node 23, Type 0, BuildingBlock: QUQFOY_clean_sbu_1, # of connection points: 4
#     Node 24, Type 0, BuildingBlock: QUQFOY_clean_sbu_1, # of connection points: 4
#     Node 25, Type 0, BuildingBlock: QUQFOY_clean_sbu_1, # of connection points: 4
#     Node 26, Type 0, BuildingBlock: QUQFOY_clean_sbu_1, # of connection points: 4
#     Node 27, Type 0, BuildingBlock: QUQFOY_clean_sbu_1, # of connection points: 4
#     Node 28, Type 0, BuildingBlock: QUQFOY_clean_sbu_1, # of connection points: 4
#     Node 29, Type 0, BuildingBlock: QUQFOY_clean_sbu_1, # of connection points: 4
#     Node 30, Type 0, BuildingBlock: QUQFOY_clean_sbu_1, # of connection points: 4
#     Node 31, Type 0, BuildingBlock: QUQFOY_clean_sbu_1, # of connection points: 4
#     Edge 32, Type (0, 0), BuildingBlock: OJICUG_clean_linker_0, # of connection points: 2
#     Edge 33, Type (0, 0), BuildingBlock: OJICUG_clean_linker_0, # of connection points: 2
#     Edge 34, Type (0, 0), BuildingBlock: OJICUG_clean_linker_0, # of connection points: 2
#     Edge 35, Type (0, 0), BuildingBlock: OJICUG_clean_linker_0, # of connection points: 2
#     Edge 36, Type (0, 0), BuildingBlock: OJICUG_clean_linker_0, # of connection points: 2
#     Edge 37, Type (0, 0), BuildingBlock: OJICUG_clean_linker_0, # of connection points: 2
#     Edge 38, Type (0, 0), BuildingBlock: OJICUG_clean_linker_0, # of connection points: 2
#     Edge 39, Type (0, 0), BuildingBlock: OJICUG_clean_linker_0, # of connection points: 2
#     Edge 40, Type (0, 0), BuildingBlock: OJICUG_clean_linker_0, # of connection points: 2
#     Edge 41, Type (0, 0), BuildingBlock: OJICUG_clean_linker_0, # of connection points: 2
#     Edge 42, Type (0, 0), BuildingBlock: OJICUG_clean_linker_0, # of connection points: 2
#     Edge 43, Type (0, 0), BuildingBlock: OJICUG_clean_linker_0, # of connection points: 2
#     Edge 44, Type (0, 0), BuildingBlock: OJICUG_clean_linker_0, # of connection points: 2
#     Edge 45, Type (0, 0), BuildingBlock: OJICUG_clean_linker_0, # of connection points: 2
#     Edge 46, Type (0, 0), BuildingBlock: OJICUG_clean_linker_0, # of connection points: 2
#     Edge 47, Type (0, 0), BuildingBlock: OJICUG_clean_linker_0, # of connection points: 2
#     Edge 48, Type (0, 0), BuildingBlock: OJICUG_clean_linker_0, # of connection points: 2
#     Edge 49, Type (0, 0), BuildingBlock: OJICUG_clean_linker_0, # of connection points: 2
#     Edge 50, Type (0, 0), BuildingBlock: OJICUG_clean_linker_0, # of connection points: 2
#     Edge 51, Type (0, 0), BuildingBlock: OJICUG_clean_linker_0, # of connection points: 2
#     Edge 52, Type (0, 0), BuildingBlock: OJICUG_clean_linker_0, # of connection points: 2
#     Edge 53, Type (0, 0), BuildingBlock: OJICUG_clean_linker_0, # of connection points: 2
#     Edge 54, Type (0, 0), BuildingBlock: OJICUG_clean_linker_0, # of connection points: 2
#     Edge 55, Type (0, 0), BuildingBlock: OJICUG_clean_linker_0, # of connection points: 2
#     Edge 56, Type (0, 0), BuildingBlock: OJICUG_clean_linker_0, # of connection points: 2
#     Edge 57, Type (0, 0), BuildingBlock: OJICUG_clean_linker_0, # of connection points: 2
#     Edge 58, Type (0, 0), BuildingBlock: OJICUG_clean_linker_0, # of connection points: 2
#     Edge 59, Type (0, 0), BuildingBlock: OJICUG_clean_linker_0, # of connection points: 2
#     Edge 60, Type (0, 0), BuildingBlock: OJICUG_clean_linker_0, # of connection points: 2
#     Edge 61, Type (0, 0), BuildingBlock: OJICUG_clean_linker_0, # of connection points: 2
#     Edge 62, Type (0, 0), BuildingBlock: OJICUG_clean_linker_0, # of connection points: 2
#     Edge 63, Type (0, 0), BuildingBlock: OJICUG_clean_linker_0, # of connection points: 2
#     Edge 64, Type (0, 0), BuildingBlock: OJICUG_clean_linker_0, # of connection points: 2
#     Edge 65, Type (0, 0), BuildingBlock: OJICUG_clean_linker_0, # of connection points: 2
#     Edge 66, Type (0, 0), BuildingBlock: OJICUG_clean_linker_0, # of connection points: 2
#     Edge 67, Type (0, 0), BuildingBlock: OJICUG_clean_linker_0, # of connection points: 2
#     Edge 68, Type (0, 0), BuildingBlock: OJICUG_clean_linker_0, # of connection points: 2
#     Edge 69, Type (0, 0), BuildingBlock: OJICUG_clean_linker_0, # of connection points: 2
#     Edge 70, Type (0, 0), BuildingBlock: OJICUG_clean_linker_0, # of connection points: 2
#     Edge 71, Type (0, 0), BuildingBlock: OJICUG_clean_linker_0, # of connection points: 2
#     Edge 72, Type (0, 0), BuildingBlock: OJICUG_clean_linker_0, # of connection points: 2
#     Edge 73, Type (0, 0), BuildingBlock: OJICUG_clean_linker_0, # of connection points: 2
#     Edge 74, Type (0, 0), BuildingBlock: OJICUG_clean_linker_0, # of connection points: 2
#     Edge 75, Type (0, 0), BuildingBlock: OJICUG_clean_linker_0, # of connection points: 2
#     Edge 76, Type (0, 0), BuildingBlock: OJICUG_clean_linker_0, # of connection points: 2
#     Edge 77, Type (0, 0), BuildingBlock: OJICUG_clean_linker_0, # of connection points: 2
#     Edge 78, Type (0, 0), BuildingBlock: OJICUG_clean_linker_0, # of connection points: 2
#     Edge 79, Type (0, 0), BuildingBlock: OJICUG_clean_linker_0, # of connection points: 2
#     Edge 80, Type (0, 0), BuildingBlock: OJICUG_clean_linker_0, # of connection points: 2
#     Edge 81, Type (0, 0), BuildingBlock: OJICUG_clean_linker_0, # of connection points: 2
#     Edge 82, Type (0, 0), BuildingBlock: OJICUG_clean_linker_0, # of connection points: 2
#     Edge 83, Type (0, 0), BuildingBlock: OJICUG_clean_linker_0, # of connection points: 2
#     Edge 84, Type (0, 0), BuildingBlock: OJICUG_clean_linker_0, # of connection points: 2
#     Edge 85, Type (0, 0), BuildingBlock: OJICUG_clean_linker_0, # of connection points: 2
#     Edge 86, Type (0, 0), BuildingBlock: OJICUG_clean_linker_0, # of connection points: 2
#     Edge 87, Type (0, 0), BuildingBlock: OJICUG_clean_linker_0, # of connection points: 2
#     Edge 88, Type (0, 0), BuildingBlock: OJICUG_clean_linker_0, # of connection points: 2
#     Edge 89, Type (0, 0), BuildingBlock: OJICUG_clean_linker_0, # of connection points: 2
#     Edge 90, Type (0, 0), BuildingBlock: OJICUG_clean_linker_0, # of connection points: 2
#     Edge 91, Type (0, 0), BuildingBlock: OJICUG_clean_linker_0, # of connection points: 2
#     Edge 92, Type (0, 0), BuildingBlock: OJICUG_clean_linker_0, # of connection points: 2
#     Edge 93, Type (0, 0), BuildingBlock: OJICUG_clean_linker_0, # of connection points: 2
#     Edge 94, Type (0, 0), BuildingBlock: OJICUG_clean_linker_0, # of connection points: 2
#     Edge 95, Type (0, 0), BuildingBlock: OJICUG_clean_linker_0, # of connection points: 2
# Relax obj value: 0.058
# Max RMSD: 0.127
# Mean RMSD: 0.127
data_MOF--net-uos--node1-QUQFOY_clean_sbu_1--edge1-OJICUG_clean_linker_0
_symmetry_space_group_name_H-M    P1
_symmetry_Int_Tables_number       1
_symmetry_cell_setting            triclinic
loop_
_symmetry_equiv_pos_as_xyz
'x, y, z'
_cell_length_a     67.108559
_cell_length_b     67.102764
_cell_length_c     17.976715
_cell_angle_alpha  89.998087
_cell_angle_beta   89.997993
_cell_angle_gamma 90.020988
loop_
_atom_site_label
_atom_site_type_symbol
_atom_site_fract_x
_atom_site_fract_y
_atom_site_fract_z
_atom_type_partial_charge
O0 O 0.15895 0.1272 0.20937 0.0
Cd1 Cd 0.17491 0.13591 0.11854 0.0
Cd2 Cd 0.168 0.1734 0.18171 0.0
O3 O 0.1477 0.15683 0.2421 0.0
O4 O 0.17382 0.11281 0.04864 0.0
O5 O 0.15971 0.14192 0.02454 0.0
C6 C 0.16293 0.12363 0.00544 0.0
C7 C 0.15994 0.20732 0.16857 0.0
C8 C 0.14804 0.13804 0.25035 0.0
C9 C 0.21007 0.15566 0.18456 0.0
O10 O 0.19786 0.16895 0.20611 0.0
O11 O 0.2044 0.14157 0.14222 0.0
O12 O 0.16394 0.19943 0.23188 0.0
O13 O 0.16017 0.19585 0.11098 0.0
O14 O 0.12512 0.91211 0.46286 0.0
Cd15 Cd 0.11635 0.92753 0.37083 0.0
Cd16 Cd 0.07886 0.91963 0.43266 0.0
O17 O 0.09575 0.89994 0.4945 0.0
O18 O 0.1397 0.92681 0.30207 0.0
O19 O 0.111 0.91197 0.27711 0.0
C20 C 0.12927 0.91559 0.25869 0.0
C21 C 0.04498 0.91132 0.42076 0.0
C22 C 0.11448 0.90098 0.50384 0.0
C23 C 0.09549 0.96218 0.43478 0.0
O24 O 0.08258 0.94957 0.45622 0.0
O25 O 0.10985 0.95693 0.39302 0.0
O26 O 0.05301 0.91543 0.4837 0.0
O27 O 0.05634 0.91136 0.36288 0.0
O28 O 0.34126 0.86963 0.70329 0.0
Cd29 Cd 0.32518 0.86113 0.61255 0.0
Cd30 Cd 0.33142 0.82355 0.68015 0.0
O31 O 0.3519 0.84008 0.74003 0.0
O32 O 0.32612 0.88471 0.54469 0.0
O33 O 0.34002 0.85577 0.51703 0.0
C34 C 0.33677 0.87418 0.49981 0.0
C35 C 0.33811 0.78921 0.6696 0.0
C36 C 0.35178 0.85894 0.74622 0.0
C37 C 0.28979 0.84245 0.68116 0.0
O38 O 0.30176 0.82909 0.7038 0.0
O39 O 0.29563 0.85611 0.63718 0.0
O40 O 0.33444 0.7976 0.73229 0.0
O41 O 0.33853 0.80042 0.61132 0.0
O42 O 0.37581 0.08817 0.95709 0.0
Cd43 Cd 0.38465 0.07248 0.86574 0.0
Cd44 Cd 0.42223 0.07965 0.92993 0.0
O45 O 0.40532 0.09952 0.99103 0.0
O46 O 0.36142 0.07338 0.7963 0.0
O47 O 0.39031 0.08788 0.77177 0.0
C48 C 0.37203 0.08445 0.75299 0.0
C49 C 0.45613 0.08804 0.91843 0.0
C50 C 0.38652 0.09901 0.99886 0.0
C51 C 0.40485 0.03738 0.93068 0.0
O52 O 0.41801 0.04967 0.9526 0.0
O53 O 0.39066 0.043 0.88869 0.0
O54 O 0.44811 0.08374 0.98123 0.0
O55 O 0.4448 0.08796 0.86046 0.0
O56 O 0.1628 0.87555 0.79898 0.0
Cd57 Cd 0.17862 0.86663 0.88985 0.0
Cd58 Cd 0.1702 0.82931 0.82916 0.0
O59 O 0.15011 0.84627 0.76944 0.0
O60 O 0.17793 0.88961 0.96024 0.0
O61 O 0.16329 0.86069 0.98352 0.0
C62 C 0.16682 0.8789 0.00307 0.0
C63 C 0.16207 0.79535 0.83991 0.0
C64 C 0.15126 0.86496 0.75946 0.0
C65 C 0.2128 0.84578 0.82329 0.0
O66 O 0.19997 0.83298 0.80285 0.0
O67 O 0.20791 0.86013 0.8657 0.0
O68 O 0.16576 0.80366 0.77713 0.0
O69 O 0.1624 0.80647 0.8984 0.0
O70 O 0.37684 0.90796 0.03986 0.0
Cd71 Cd 0.38535 0.92401 0.13078 0.0
Cd72 Cd 0.42297 0.91716 0.06818 0.0
O73 O 0.40654 0.89677 0.00769 0.0
O74 O 0.36221 0.92283 0.20054 0.0
O75 O 0.39137 0.90885 0.22487 0.0
C76 C 0.37305 0.912 0.24384 0.0
C77 C 0.45693 0.90933 0.08146 0.0
C78 C 0.38776 0.89705 0.99915 0.0
C79 C 0.40513 0.9592 0.065 0.0
O80 O 0.41844 0.947 0.04372 0.0
O81 O 0.39098 0.95353 0.10707 0.0
O82 O 0.44903 0.91325 0.0181 0.0
O83 O 0.44545 0.90948 0.139 0.0
O84 O 0.3386 0.12553 0.29337 0.0
Cd85 Cd 0.32301 0.13445 0.38484 0.0
Cd86 Cd 0.33047 0.17192 0.32107 0.0
O87 O 0.3503 0.15495 0.26002 0.0
O88 O 0.32378 0.11122 0.45428 0.0
O89 O 0.33847 0.14001 0.47871 0.0
C90 C 0.33493 0.12175 0.49752 0.0
C91 C 0.33896 0.20577 0.33341 0.0
C92 C 0.34958 0.13617 0.25186 0.0
C93 C 0.28809 0.15489 0.31981 0.0
O94 O 0.30051 0.16793 0.29784 0.0
O95 O 0.29357 0.14069 0.36199 0.0
O96 O 0.33477 0.19784 0.27033 0.0
O97 O 0.33875 0.19437 0.39116 0.0
O98 O 0.12083 0.09126 0.54603 0.0
Cd99 Cd 0.11215 0.07545 0.63724 0.0
Cd100 Cd 0.07458 0.08185 0.57015 0.0
O101 O 0.09131 0.10203 0.50966 0.0
O102 O 0.13566 0.07637 0.70533 0.0
O103 O 0.1068 0.09057 0.73212 0.0
C104 C 0.12518 0.08722 0.7497 0.0
C105 C 0.04039 0.08921 0.57986 0.0
C106 C 0.11015 0.10179 0.50315 0.0
C107 C 0.093 0.04002 0.57069 0.0
O108 O 0.07969 0.05202 0.54778 0.0
O109 O 0.10679 0.0459 0.61392 0.0
O110 O 0.04877 0.08515 0.5175 0.0
O111 O 0.05152 0.08955 0.63835 0.0
O112 O 0.84727 0.87016 0.79596 0.0
Cd113 Cd 0.82757 0.86429 0.88 0.0
Cd114 Cd 0.83049 0.82456 0.8209 0.0
O115 O 0.84966 0.83954 0.75133 0.0
O116 O 0.82902 0.88794 0.94741 0.0
O117 O 0.83962 0.85791 0.97971 0.0
C118 C 0.8377 0.87661 0.99544 0.0
C119 C 0.83787 0.79049 0.83379 0.0
C120 C 0.85435 0.85784 0.74945 0.0
C121 C 0.79035 0.84558 0.81674 0.0
O122 O 0.8007 0.83008 0.80476 0.0
O123 O 0.79798 0.86085 0.84777 0.0
O124 O 0.83238 0.79818 0.77174 0.0
O125 O 0.8393 0.80217 0.89048 0.0
O126 O 0.87455 0.08985 0.53467 0.0
Cd127 Cd 0.88281 0.07408 0.62663 0.0
Cd128 Cd 0.92059 0.08102 0.56441 0.0
O129 O 0.90423 0.10142 0.50383 0.0
O130 O 0.85954 0.07552 0.6957 0.0
O131 O 0.8887 0.08949 0.72026 0.0
C132 C 0.87034 0.08643 0.73891 0.0
C133 C 0.95469 0.08861 0.57679 0.0
C134 C 0.88549 0.10087 0.49437 0.0
C135 C 0.90254 0.03891 0.5619 0.0
O136 O 0.91574 0.05122 0.54034 0.0
O137 O 0.88846 0.04449 0.60443 0.0
O138 O 0.94666 0.08461 0.51373 0.0
O139 O 0.94328 0.08869 0.6345 0.0
O140 O 0.66031 0.12489 0.29518 0.0
Cd141 Cd 0.67624 0.13363 0.38606 0.0
Cd142 Cd 0.66824 0.17107 0.32552 0.0
O143 O 0.64793 0.15432 0.26588 0.0
O144 O 0.6753 0.11067 0.45658 0.0
O145 O 0.66095 0.13974 0.47968 0.0
C146 C 0.66428 0.1215 0.49932 0.0
C147 C 0.6603 0.20503 0.33758 0.0
C148 C 0.64886 0.13562 0.25584 0.0
C149 C 0.71067 0.15419 0.31946 0.0
O150 O 0.69799 0.16714 0.29902 0.0
O151 O 0.70559 0.13989 0.36185 0.0
O152 O 0.66391 0.19688 0.27443 0.0
O153 O 0.66066 0.19376 0.39566 0.0
O154 O 0.62262 0.91055 0.04435 0.0
Cd155 Cd 0.61363 0.92605 0.13585 0.0
Cd156 Cd 0.57627 0.91845 0.07144 0.0
O157 O 0.5933 0.89872 0.01033 0.0
O158 O 0.63704 0.92558 0.20441 0.0
O159 O 0.60846 0.91065 0.2302 0.0
C160 C 0.62673 0.9144 0.24826 0.0
C161 C 0.54242 0.90994 0.08321 0.0
C162 C 0.61208 0.89958 0.00243 0.0
C163 C 0.59322 0.96085 0.07011 0.0
O164 O 0.58024 0.94839 0.04794 0.0
O165 O 0.60733 0.95544 0.1128 0.0
O166 O 0.55042 0.91413 0.02027 0.0
O167 O 0.55374 0.91015 0.14116 0.0
O168 O 0.83885 0.12819 0.19825 0.0
Cd169 Cd 0.82276 0.13715 0.10814 0.0
Cd170 Cd 0.82969 0.17451 0.17531 0.0
O171 O 0.8499 0.1576 0.23476 0.0
O172 O 0.82331 0.1138 0.03919 0.0
O173 O 0.83763 0.14264 0.0128 0.0
C174 C 0.83412 0.12432 0.99478 0.0
C175 C 0.83747 0.20862 0.16544 0.0
C176 C 0.84958 0.13875 0.24091 0.0
C177 C 0.78772 0.15643 0.1772 0.0
O178 O 0.79991 0.16966 0.19942 0.0
O179 O 0.79333 0.14263 0.13345 0.0
O180 O 0.83351 0.20026 0.22794 0.0
O181 O 0.83742 0.19753 0.10684 0.0
O182 O 0.62187 0.08918 0.95885 0.0
Cd183 Cd 0.61307 0.07359 0.86729 0.0
Cd184 Cd 0.57559 0.0808 0.93201 0.0
O185 O 0.59246 0.1006 0.99354 0.0
O186 O 0.63656 0.07422 0.79906 0.0
O187 O 0.6079 0.0889 0.77273 0.0
C188 C 0.62622 0.08529 0.75496 0.0
C189 C 0.54165 0.08892 0.91966 0.0
C190 C 0.61126 0.09995 0.00116 0.0
C191 C 0.59292 0.03857 0.9329 0.0
O192 O 0.57983 0.05089 0.95512 0.0
O193 O 0.607 0.04413 0.89033 0.0
O194 O 0.54961 0.08481 0.98274 0.0
O195 O 0.55307 0.0889 0.86196 0.0
O196 O 0.66093 0.87473 0.70797 0.0
Cd197 Cd 0.67696 0.8662 0.61704 0.0
Cd198 Cd 0.6698 0.82864 0.6797 0.0
O199 O 0.64932 0.84512 0.73936 0.0
O200 O 0.6757 0.88926 0.54703 0.0
O201 O 0.66179 0.86003 0.52313 0.0
C202 C 0.66487 0.87835 0.50393 0.0
C203 C 0.66205 0.79458 0.66697 0.0
C204 C 0.64983 0.86388 0.74828 0.0
C205 C 0.71191 0.8466 0.68397 0.0
O206 O 0.69953 0.83342 0.70518 0.0
O207 O 0.70647 0.8606 0.64083 0.0
O208 O 0.66591 0.80259 0.7302 0.0
O209 O 0.66224 0.806 0.60925 0.0
O210 O 0.87989 0.90271 0.45691 0.0
Cd211 Cd 0.88557 0.92232 0.37235 0.0
Cd212 Cd 0.9254 0.91986 0.43205 0.0
O213 O 0.91047 0.90081 0.50225 0.0
O214 O 0.86182 0.92066 0.30551 0.0
O215 O 0.89184 0.91018 0.27267 0.0
C216 C 0.87311 0.91199 0.25732 0.0
C217 C 0.95951 0.91258 0.42007 0.0
C218 C 0.89223 0.8959 0.50393 0.0
C219 C 0.90407 0.95986 0.43414 0.0
O220 O 0.91966 0.94967 0.4465 0.0
O221 O 0.88885 0.952 0.40362 0.0
O222 O 0.95174 0.91831 0.48166 0.0
O223 O 0.94789 0.91087 0.36329 0.0
O224 O 0.65959 0.6285 0.69811 0.0
Cd225 Cd 0.67552 0.63743 0.60757 0.0
Cd226 Cd 0.66856 0.67478 0.67486 0.0
O227 O 0.64838 0.65785 0.73454 0.0
O228 O 0.67501 0.61398 0.5391 0.0
O229 O 0.66057 0.64272 0.51228 0.0
C230 C 0.66414 0.62439 0.49456 0.0
C231 C 0.66102 0.70892 0.66445 0.0
C232 C 0.64883 0.63901 0.74084 0.0
C233 C 0.71055 0.65681 0.67611 0.0
O234 O 0.69833 0.66995 0.69876 0.0
O235 O 0.70496 0.64304 0.63222 0.0
O236 O 0.66485 0.7006 0.72713 0.0
O237 O 0.66097 0.69775 0.60605 0.0
O238 O 0.62034 0.4024 0.95795 0.0
Cd239 Cd 0.61445 0.4219 0.87328 0.0
Cd240 Cd 0.57478 0.41909 0.93268 0.0
O241 O 0.58977 0.40018 0.00319 0.0
O242 O 0.63817 0.4204 0.80632 0.0
O243 O 0.60821 0.40963 0.7738 0.0
C244 C 0.62693 0.4116 0.75831 0.0
C245 C 0.54079 0.41145 0.91916 0.0
C246 C 0.60806 0.39546 0.00494 0.0
C247 C 0.59566 0.4593 0.93478 0.0
O248 O 0.58018 0.44896 0.94731 0.0
O249 O 0.61094 0.45157 0.90423 0.0
O250 O 0.54831 0.41719 0.98117 0.0
O251 O 0.5526 0.40991 0.86286 0.0
O252 O 0.84035 0.37426 0.21422 0.0
Cd253 Cd 0.82417 0.36611 0.12308 0.0
Cd254 Cd 0.83098 0.32839 0.1843 0.0
O255 O 0.85182 0.34448 0.2439 0.0
O256 O 0.82577 0.38916 0.05308 0.0
O257 O 0.8393 0.35975 0.02931 0.0
C258 C 0.83646 0.3781 0.01005 0.0
C259 C 0.83819 0.29427 0.17038 0.0
C260 C 0.85147 0.36321 0.25366 0.0
C261 C 0.78904 0.3467 0.18931 0.0
O262 O 0.80132 0.33341 0.21028 0.0
O263 O 0.79459 0.36073 0.14651 0.0
O264 O 0.83459 0.3022 0.23395 0.0
O265 O 0.83809 0.30581 0.113 0.0
O266 O 0.87391 0.58711 0.45676 0.0
Cd267 Cd 0.88253 0.57146 0.36512 0.0
Cd268 Cd 0.92001 0.57973 0.4243 0.0
O269 O 0.90329 0.59976 0.4852 0.0
O270 O 0.85942 0.57239 0.29539 0.0
O271 O 0.88837 0.58693 0.27174 0.0
C272 C 0.87011 0.58353 0.25256 0.0
C273 C 0.95395 0.58779 0.41242 0.0
C274 C 0.88464 0.59858 0.49605 0.0
C275 C 0.90348 0.53715 0.43004 0.0
O276 O 0.91635 0.54993 0.45021 0.0
O277 O 0.88902 0.54211 0.38828 0.0
O278 O 0.94581 0.58402 0.47543 0.0
O279 O 0.94268 0.58757 0.35435 0.0
O280 O 0.6532 0.36996 0.29708 0.0
Cd281 Cd 0.67283 0.3641 0.38134 0.0
Cd282 Cd 0.67009 0.32445 0.32228 0.0
O283 O 0.65103 0.33936 0.25211 0.0
O284 O 0.67126 0.38771 0.44879 0.0
O285 O 0.66068 0.35765 0.48083 0.0
C286 C 0.66255 0.37635 0.49665 0.0
C287 C 0.66249 0.29045 0.33597 0.0
C288 C 0.64624 0.35764 0.25031 0.0
C289 C 0.71021 0.34549 0.31903 0.0
O290 O 0.69992 0.32995 0.30687 0.0
O291 O 0.70247 0.36074 0.34972 0.0
O292 O 0.66816 0.29798 0.27386 0.0
O293 O 0.66104 0.30226 0.39231 0.0
O294 O 0.87969 0.40874 0.55053 0.0
Cd295 Cd 0.88832 0.42481 0.64114 0.0
Cd296 Cd 0.92579 0.41847 0.57236 0.0
O297 O 0.90912 0.39809 0.51253 0.0
O298 O 0.86463 0.42416 0.7085 0.0
O299 O 0.89339 0.41005 0.73711 0.0
C300 C 0.87498 0.41348 0.75385 0.0
C301 C 0.96013 0.41172 0.58257 0.0
C302 C 0.89025 0.39827 0.507 0.0
C303 C 0.90699 0.46013 0.57187 0.0
O304 O 0.92029 0.44814 0.54887 0.0
O305 O 0.89342 0.45433 0.61626 0.0
O306 O 0.9517 0.4154 0.51995 0.0
O307 O 0.94896 0.41131 0.64094 0.0
O308 O 0.83771 0.62493 0.79306 0.0
Cd309 Cd 0.82202 0.63398 0.88404 0.0
Cd310 Cd 0.83025 0.67122 0.82172 0.0
O311 O 0.85006 0.65418 0.76106 0.0
O312 O 0.82242 0.61077 0.95348 0.0
O313 O 0.83732 0.63945 0.97823 0.0
C314 C 0.83358 0.62123 0.99697 0.0
C315 C 0.83873 0.70505 0.83402 0.0
C316 C 0.84898 0.63544 0.7522 0.0
C317 C 0.78768 0.65476 0.81751 0.0
O318 O 0.8004 0.6676 0.79639 0.0
O319 O 0.79273 0.64049 0.86007 0.0
O320 O 0.83482 0.69704 0.77087 0.0
O321 O 0.83836 0.69371 0.89192 0.0
O322 O 0.62417 0.58977 0.03442 0.0
Cd323 Cd 0.61595 0.57386 0.12611 0.0
Cd324 Cd 0.57814 0.58047 0.06341 0.0
O325 O 0.59442 0.601 0.00307 0.0
O326 O 0.63915 0.57543 0.19544 0.0
O327 O 0.60988 0.58915 0.21983 0.0
C328 C 0.62825 0.58622 0.23864 0.0
C329 C 0.54398 0.58784 0.07552 0.0
C330 C 0.61318 0.60068 0.99398 0.0
C331 C 0.59651 0.53851 0.06123 0.0
O332 O 0.5832 0.55069 0.03956 0.0
O333 O 0.61053 0.54423 0.10374 0.0
O334 O 0.55207 0.58388 0.01252 0.0
O335 O 0.55537 0.588 0.13332 0.0
O336 O 0.33927 0.37147 0.29491 0.0
Cd337 Cd 0.32362 0.36248 0.38606 0.0
Cd338 Cd 0.33094 0.32514 0.32122 0.0
O339 O 0.35077 0.3421 0.26018 0.0
O340 O 0.32419 0.38584 0.45483 0.0
O341 O 0.33889 0.35714 0.48054 0.0
C342 C 0.33525 0.37542 0.49872 0.0
C343 C 0.33925 0.29126 0.33349 0.0
C344 C 0.35011 0.36091 0.25271 0.0
C345 C 0.28869 0.34237 0.31986 0.0
O346 O 0.30104 0.32931 0.29763 0.0
O347 O 0.29421 0.35642 0.36265 0.0
O348 O 0.33514 0.29922 0.27041 0.0
O349 O 0.33907 0.30265 0.39128 0.0
O350 O 0.37783 0.58867 0.04553 0.0
Cd351 Cd 0.38693 0.57298 0.13642 0.0
Cd352 Cd 0.42422 0.57993 0.06778 0.0
O353 O 0.40708 0.59979 0.00745 0.0
O354 O 0.36335 0.57328 0.20433 0.0
O355 O 0.39187 0.58806 0.23178 0.0
C356 C 0.37357 0.58427 0.2491 0.0
C357 C 0.4583 0.5878 0.07777 0.0
C358 C 0.38822 0.59929 0.00189 0.0
C359 C 0.40645 0.53784 0.06883 0.0
O360 O 0.41952 0.55003 0.04544 0.0
O361 O 0.39269 0.54352 0.11262 0.0
O362 O 0.45001 0.58368 0.01528 0.0
O363 O 0.44713 0.58795 0.13617 0.0
O364 O 0.14779 0.63212 0.79372 0.0
Cd365 Cd 0.16959 0.63471 0.87315 0.0
Cd366 Cd 0.16874 0.67552 0.82043 0.0
O367 O 0.14878 0.66267 0.74827 0.0
O368 O 0.16565 0.60993 0.9331 0.0
O369 O 0.16215 0.64029 0.97971 0.0
C370 C 0.16097 0.62121 0.98843 0.0
C371 C 0.16307 0.70984 0.83581 0.0
C372 C 0.14196 0.64506 0.74718 0.0
C373 C 0.20747 0.65178 0.80985 0.0
O374 O 0.19817 0.66821 0.80492 0.0
O375 O 0.19887 0.63622 0.83488 0.0
O376 O 0.16872 0.70227 0.77379 0.0
O377 O 0.16074 0.69792 0.89142 0.0
O378 O 0.12615 0.41222 0.54185 0.0
Cd379 Cd 0.118 0.42819 0.63351 0.0
Cd380 Cd 0.08011 0.42156 0.57123 0.0
O381 O 0.09634 0.40098 0.51112 0.0
O382 O 0.14108 0.42639 0.70324 0.0
O383 O 0.11164 0.4129 0.72697 0.0
C384 C 0.13001 0.41566 0.74614 0.0
C385 C 0.0459 0.41412 0.58225 0.0
C386 C 0.11509 0.40128 0.50173 0.0
C387 C 0.09874 0.46353 0.56855 0.0
O388 O 0.0854 0.45132 0.54731 0.0
O389 O 0.11276 0.45785 0.61113 0.0
O390 O 0.05411 0.41825 0.51962 0.0
O391 O 0.05717 0.41394 0.64037 0.0
O392 O 0.33807 0.62315 0.70941 0.0
Cd393 Cd 0.32208 0.63124 0.61772 0.0
Cd394 Cd 0.32859 0.66919 0.67996 0.0
O395 O 0.34927 0.653 0.73982 0.0
O396 O 0.32396 0.60821 0.54782 0.0
O397 O 0.33738 0.6377 0.5244 0.0
C398 C 0.33467 0.61933 0.50506 0.0
C399 C 0.3359 0.70342 0.66922 0.0
C400 C 0.34904 0.63425 0.74929 0.0
C401 C 0.28665 0.65045 0.68227 0.0
O402 O 0.29882 0.66382 0.70366 0.0
O403 O 0.29239 0.63643 0.63982 0.0
O404 O 0.33181 0.69516 0.73179 0.0
O405 O 0.33613 0.69219 0.61101 0.0
O406 O 0.11735 0.60202 0.45362 0.0
Cd407 Cd 0.11467 0.58018 0.37444 0.0
Cd408 Cd 0.07384 0.58117 0.42756 0.0
O409 O 0.08683 0.60115 0.49932 0.0
O410 O 0.13948 0.58401 0.31457 0.0
O411 O 0.10914 0.58752 0.26773 0.0
C412 C 0.12823 0.58865 0.25913 0.0
C413 C 0.03948 0.58681 0.41343 0.0
C414 C 0.10445 0.60792 0.50022 0.0
C415 C 0.09755 0.54241 0.43845 0.0
O416 O 0.08113 0.55175 0.44329 0.0
O417 O 0.11312 0.55094 0.41321 0.0
O418 O 0.04722 0.58119 0.47519 0.0
O419 O 0.05124 0.58912 0.35737 0.0
O420 O 0.16118 0.37298 0.20571 0.0
Cd421 Cd 0.17665 0.36365 0.11458 0.0
Cd422 Cd 0.16861 0.32656 0.18002 0.0
O423 O 0.149 0.34389 0.24059 0.0
O424 O 0.17659 0.38704 0.04588 0.0
O425 O 0.16129 0.35867 0.01997 0.0
C426 C 0.16533 0.37688 0.00188 0.0
C427 C 0.1599 0.29278 0.16776 0.0
C428 C 0.15008 0.36268 0.24793 0.0
C429 C 0.21115 0.34303 0.18144 0.0
O430 O 0.19854 0.33027 0.20404 0.0
O431 O 0.20594 0.35707 0.13809 0.0
O432 O 0.16395 0.30073 0.23092 0.0
O433 O 0.1603 0.30414 0.10991 0.0
O434 O 0.3752 0.40975 0.95849 0.0
Cd435 Cd 0.3839 0.42544 0.86701 0.0
Cd436 Cd 0.42142 0.41772 0.92799 0.0
O437 O 0.40467 0.39759 0.98847 0.0
O438 O 0.36085 0.4244 0.79702 0.0
O439 O 0.38986 0.40999 0.77366 0.0
C440 C 0.3716 0.41332 0.75428 0.0
C441 C 0.45537 0.40969 0.91671 0.0
C442 C 0.38596 0.39847 0.99835 0.0
C443 C 0.40446 0.46013 0.93174 0.0
O444 O 0.41746 0.44758 0.95277 0.0
O445 O 0.39014 0.45486 0.88985 0.0
O446 O 0.44719 0.41358 0.97957 0.0
O447 O 0.44414 0.40984 0.8585 0.0
C448 C 0.25807 0.13722 0.27073 0.0
C449 C 0.26772 0.15517 0.28867 0.0
H450 H 0.23255 0.12335 0.22097 0.0
C451 C 0.25854 0.17331 0.27 0.0
H452 H 0.26496 0.12302 0.28338 0.0
C453 C 0.23988 0.1735 0.23528 0.0
C454 C 0.23038 0.15555 0.21622 0.0
H455 H 0.26576 0.18735 0.28264 0.0
H456 H 0.23294 0.18769 0.22282 0.0
C457 C 0.23969 0.13741 0.23393 0.0
C458 C 0.11253 0.99239 0.48524 0.0
C459 C 0.09481 0.9825 0.46609 0.0
H460 H 0.1258 0.01805 0.5362 0.0
C461 C 0.07645 0.99137 0.48392 0.0
H462 H 0.12688 0.98572 0.47325 0.0
C463 C 0.07584 0.00996 0.51899 0.0
C464 C 0.09356 0.0197 0.53921 0.0
H465 H 0.06257 0.98396 0.47035 0.0
H466 H 0.0615 0.01668 0.53072 0.0
C467 C 0.11191 0.0107 0.52237 0.0
C468 C 0.24148 0.82647 0.77171 0.0
C469 C 0.23292 0.84492 0.79025 0.0
H470 H 0.26633 0.81124 0.72285 0.0
C471 C 0.24285 0.86254 0.77013 0.0
H472 H 0.23401 0.81267 0.78599 0.0
C473 C 0.26093 0.86172 0.73142 0.0
C474 C 0.26963 0.84327 0.71393 0.0
H475 H 0.23641 0.87696 0.78264 0.0
H476 H 0.26835 0.87553 0.71693 0.0
C477 C 0.25983 0.82565 0.73504 0.0
C478 C 0.38698 0.00739 0.97923 0.0
C479 C 0.40499 0.01697 0.96161 0.0
H480 H 0.37294 0.98188 0.02849 0.0
C481 C 0.42306 0.00768 0.98036 0.0
H482 H 0.37283 0.01437 0.9665 0.0
C483 C 0.42313 0.98899 0.01485 0.0
C484 C 0.40512 0.97955 0.03356 0.0
H485 H 0.43715 0.01484 0.96798 0.0
H486 H 0.43727 0.98196 0.02739 0.0
C487 C 0.38704 0.98898 0.01577 0.0
C488 C 0.76147 0.86416 0.76157 0.0
C489 C 0.76979 0.84619 0.78707 0.0
H490 H 0.73687 0.87829 0.70654 0.0
C491 C 0.7591 0.82838 0.77692 0.0
H492 H 0.76951 0.87806 0.76763 0.0
C493 C 0.74044 0.82852 0.7425 0.0
C494 C 0.73224 0.84641 0.7158 0.0
H495 H 0.7652 0.81429 0.79554 0.0
H496 H 0.73248 0.81457 0.73632 0.0
C497 C 0.74296 0.86423 0.72553 0.0
C498 C 0.8853 0.98889 0.48728 0.0
C499 C 0.90333 0.98054 0.46263 0.0
H500 H 0.87098 0.0137 0.54041 0.0
C501 C 0.92107 0.99136 0.47236 0.0
H502 H 0.87143 0.98076 0.48151 0.0
C503 C 0.9208 0.01018 0.50552 0.0
C504 C 0.90285 0.01843 0.53135 0.0
H505 H 0.93521 0.98525 0.45436 0.0
H506 H 0.93471 0.01824 0.5114 0.0
C507 C 0.88509 0.00758 0.52206 0.0
C508 C 0.7405 0.13704 0.2664 0.0
C509 C 0.7308 0.15479 0.28642 0.0
H510 H 0.7658 0.12369 0.2133 0.0
C511 C 0.73964 0.17312 0.26787 0.0
H512 H 0.73384 0.12271 0.27894 0.0
C513 C 0.75802 0.17368 0.23125 0.0
C514 C 0.76757 0.15593 0.21019 0.0
H515 H 0.73237 0.18702 0.28208 0.0
H516 H 0.76473 0.188 0.21902 0.0
C517 C 0.75859 0.1376 0.22774 0.0
C518 C 0.5749 0.0089 0.98367 0.0
C519 C 0.59291 0.01827 0.96455 0.0
H520 H 0.56088 0.9832 0.03176 0.0
C521 C 0.61099 0.00892 0.98277 0.0
H522 H 0.56076 0.01589 0.97086 0.0
C523 C 0.61106 0.99065 0.02021 0.0
C524 C 0.59305 0.98113 0.03832 0.0
H525 H 0.62509 0.01598 0.9698 0.0
H526 H 0.62521 0.98372 0.0333 0.0
C527 C 0.57497 0.99033 0.01904 0.0
C528 C 0.74028 0.67415 0.72949 0.0
C529 C 0.73073 0.65637 0.70881 0.0
H530 H 0.76598 0.68757 0.77984 0.0
C531 C 0.73971 0.63807 0.72656 0.0
H532 H 0.73356 0.68845 0.71709 0.0
C533 C 0.75782 0.63756 0.76507 0.0
C534 C 0.76752 0.65535 0.78472 0.0
H535 H 0.73248 0.62414 0.7124 0.0
H536 H 0.76448 0.62325 0.77775 0.0
C537 C 0.75869 0.67365 0.76594 0.0
C538 C 0.61417 0.48857 0.98746 0.0
C539 C 0.59621 0.48001 0.96297 0.0
H540 H 0.62827 0.51357 0.04012 0.0
C541 C 0.57838 0.49068 0.97249 0.0
H542 H 0.62811 0.48056 0.98183 0.0
C543 C 0.57849 0.50955 0.00527 0.0
C544 C 0.59637 0.518 0.03094 0.0
H545 H 0.56429 0.48441 0.9546 0.0
H546 H 0.56451 0.51749 0.01101 0.0
C547 C 0.61422 0.5073 0.02187 0.0
C548 C 0.73925 0.36415 0.26528 0.0
C549 C 0.73085 0.34615 0.29013 0.0
H550 H 0.76402 0.37837 0.21153 0.0
C551 C 0.74158 0.32837 0.28021 0.0
H552 H 0.73119 0.37804 0.27119 0.0
C553 C 0.76035 0.32856 0.24665 0.0
C554 C 0.76863 0.34648 0.22058 0.0
H555 H 0.73543 0.31425 0.29836 0.0
H556 H 0.76833 0.31462 0.24058 0.0
C557 C 0.75788 0.36429 0.23009 0.0
C558 C 0.88767 0.48905 0.52234 0.0
C559 C 0.90614 0.48028 0.53907 0.0
H560 H 0.87235 0.51362 0.47182 0.0
C561 C 0.92372 0.49002 0.51718 0.0
H562 H 0.87388 0.48167 0.53744 0.0
C563 C 0.92285 0.50838 0.48054 0.0
C564 C 0.90437 0.517 0.46283 0.0
H565 H 0.93815 0.48348 0.52876 0.0
H566 H 0.93663 0.5158 0.46569 0.0
C567 C 0.88678 0.50712 0.48368 0.0
C568 C 0.25922 0.36056 0.2693 0.0
C569 C 0.26844 0.34243 0.28784 0.0
H570 H 0.23417 0.37489 0.21823 0.0
C571 C 0.25899 0.32446 0.26875 0.0
H572 H 0.26635 0.37463 0.28225 0.0
C573 C 0.24046 0.32461 0.23311 0.0
C574 C 0.2314 0.34274 0.21351 0.0
H575 H 0.2659 0.31029 0.28181 0.0
H576 H 0.23326 0.31057 0.22043 0.0
C577 C 0.241 0.36071 0.23156 0.0
C578 C 0.38774 0.50838 0.02058 0.0
C579 C 0.40603 0.51754 0.03719 0.0
H580 H 0.37293 0.48331 0.97133 0.0
C581 C 0.42382 0.50799 0.01653 0.0
H582 H 0.37381 0.51559 0.03476 0.0
C583 C 0.42332 0.48942 0.98121 0.0
C584 C 0.40502 0.48041 0.96356 0.0
H585 H 0.43811 0.51484 0.02807 0.0
H586 H 0.43724 0.48216 0.96726 0.0
C587 C 0.38723 0.4901 0.98319 0.0
C588 C 0.25819 0.66833 0.74198 0.0
C589 C 0.26611 0.65064 0.71253 0.0
H590 H 0.23362 0.68248 0.7961 0.0
C591 C 0.25483 0.633 0.71771 0.0
H592 H 0.26653 0.68214 0.7393 0.0
C593 C 0.23606 0.63309 0.75204 0.0
C594 C 0.22809 0.6509 0.78056 0.0
H595 H 0.26066 0.61907 0.69642 0.0
H596 H 0.22761 0.61936 0.7547 0.0
C597 C 0.23936 0.66849 0.77495 0.0
C598 C 0.08091 0.49187 0.50787 0.0
C599 C 0.09858 0.48401 0.53774 0.0
H600 H 0.06683 0.51632 0.45275 0.0
C601 C 0.11623 0.49525 0.53226 0.0
H602 H 0.0671 0.48355 0.51072 0.0
C603 C 0.11618 0.51394 0.49725 0.0
C604 C 0.0984 0.52185 0.46831 0.0
H605 H 0.13015 0.48946 0.55384 0.0
H606 H 0.12992 0.52237 0.4944 0.0
C607 C 0.08079 0.51061 0.4742 0.0
C608 C 0.13607 0.12299 0.90824 0.0
C609 C 0.15356 0.11479 0.93852 0.0
H610 H 0.11303 0.12036 0.82597 0.0
C611 C 0.16137 0.09729 0.90706 0.0
H612 H 0.12958 0.13635 0.93183 0.0
C613 C 0.15204 0.08829 0.84615 0.0
C614 C 0.13443 0.09632 0.81637 0.0
H615 H 0.17479 0.09057 0.92932 0.0
H616 H 0.15858 0.07494 0.82263 0.0
C617 C 0.12647 0.11371 0.84823 0.0
C618 C 0.16538 0.90531 0.10123 0.0
C619 C 0.15752 0.88779 0.07006 0.0
H620 H 0.16266 0.92776 0.1853 0.0
C621 C 0.14005 0.87962 0.10064 0.0
H622 H 0.17878 0.912 0.07875 0.0
C623 C 0.13051 0.88895 0.16066 0.0
C624 C 0.1385 0.90639 0.19216 0.0
H625 H 0.13352 0.86625 0.07731 0.0
H626 H 0.11708 0.88232 0.18313 0.0
C627 C 0.1561 0.91438 0.16208 0.0
C628 C 0.37242 0.88509 0.34087 0.0
C629 C 0.36423 0.9026 0.31077 0.0
H630 H 0.36983 0.86202 0.42307 0.0
C631 C 0.34675 0.91042 0.34242 0.0
H632 H 0.38576 0.87859 0.31714 0.0
C633 C 0.33779 0.90108 0.40341 0.0
C634 C 0.34581 0.88344 0.43302 0.0
H635 H 0.34004 0.92385 0.32029 0.0
H636 H 0.32447 0.90762 0.42711 0.0
C637 C 0.36318 0.87548 0.40093 0.0
C638 C 0.3711 0.11118 0.65519 0.0
C639 C 0.36298 0.09375 0.68626 0.0
H640 H 0.36828 0.13405 0.57232 0.0
C641 C 0.34538 0.08588 0.65568 0.0
H642 H 0.38453 0.11771 0.67805 0.0
C643 C 0.33622 0.0951 0.59485 0.0
C644 C 0.34418 0.11264 0.56422 0.0
H645 H 0.33872 0.07251 0.67853 0.0
H646 H 0.3228 0.08852 0.57205 0.0
C647 C 0.36168 0.12066 0.59522 0.0
C648 C 0.86362 0.87698 0.09568 0.0
C649 C 0.84635 0.88524 0.06395 0.0
H650 H 0.88602 0.87942 0.18039 0.0
C651 C 0.83823 0.90261 0.09529 0.0
H652 H 0.87034 0.86374 0.07208 0.0
C653 C 0.84699 0.91137 0.15792 0.0
C654 C 0.86443 0.9033 0.18898 0.0
H655 H 0.82499 0.90934 0.07171 0.0
H656 H 0.84022 0.92457 0.18169 0.0
C657 C 0.87273 0.88609 0.15701 0.0
C658 C 0.83489 0.09762 0.89762 0.0
C659 C 0.84308 0.11513 0.92773 0.0
H660 H 0.83703 0.07491 0.81427 0.0
C661 C 0.86056 0.12298 0.89602 0.0
H662 H 0.82148 0.09117 0.921 0.0
C663 C 0.86978 0.11335 0.83598 0.0
C664 C 0.86146 0.09593 0.80551 0.0
H665 H 0.86733 0.13634 0.91853 0.0
H666 H 0.88322 0.11973 0.81263 0.0
C667 C 0.84385 0.08826 0.83668 0.0
C668 C 0.62771 0.11178 0.6564 0.0
C669 C 0.63557 0.09435 0.68838 0.0
H670 H 0.63095 0.13437 0.57272 0.0
C671 C 0.65317 0.08625 0.65877 0.0
H672 H 0.61428 0.11849 0.67851 0.0
C673 C 0.66258 0.0952 0.5979 0.0
C674 C 0.65485 0.11272 0.56628 0.0
H675 H 0.65964 0.07288 0.68237 0.0
H676 H 0.67598 0.08843 0.57578 0.0
C677 C 0.63737 0.12099 0.5964 0.0
C678 C 0.63806 0.87865 0.40647 0.0
C679 C 0.65541 0.88709 0.43699 0.0
H680 H 0.61504 0.88099 0.32402 0.0
C681 C 0.66299 0.90473 0.40578 0.0
H682 H 0.63175 0.86518 0.42984 0.0
C683 C 0.65356 0.91365 0.34491 0.0
C684 C 0.63608 0.90538 0.31488 0.0
H685 H 0.67629 0.91163 0.42822 0.0
H686 H 0.65992 0.92711 0.32162 0.0
C687 C 0.62837 0.88783 0.34647 0.0
C688 C 0.6635 0.5976 0.39775 0.0
C689 C 0.65523 0.61509 0.42764 0.0
H690 H 0.66151 0.57485 0.31449 0.0
C691 C 0.63774 0.62283 0.39576 0.0
H692 H 0.67692 0.59123 0.42128 0.0
C693 C 0.6286 0.61313 0.33569 0.0
C694 C 0.63702 0.59575 0.30538 0.0
H695 H 0.6309 0.63617 0.41811 0.0
H696 H 0.61514 0.61944 0.31216 0.0
C697 C 0.65463 0.58817 0.33678 0.0
C698 C 0.65305 0.41109 0.65897 0.0
C699 C 0.63565 0.40293 0.69 0.0
H700 H 0.67509 0.40916 0.57286 0.0
C701 C 0.62743 0.38567 0.65807 0.0
H702 H 0.65975 0.42433 0.6827 0.0
C703 C 0.6366 0.3766 0.59679 0.0
C704 C 0.65383 0.38494 0.5651 0.0
H705 H 0.61416 0.37894 0.68144 0.0
H706 H 0.62994 0.36332 0.57321 0.0
C707 C 0.66187 0.40236 0.59641 0.0
C708 C 0.87326 0.38726 0.8533 0.0
C709 C 0.86554 0.40466 0.82069 0.0
H710 H 0.86978 0.36486 0.93756 0.0
C711 C 0.84798 0.41296 0.84985 0.0
H712 H 0.88666 0.3804 0.83151 0.0
C713 C 0.83847 0.40421 0.9109 0.0
C714 C 0.84603 0.3867 0.94308 0.0
H715 H 0.84163 0.42632 0.82574 0.0
H716 H 0.8251 0.41113 0.93269 0.0
C717 C 0.86347 0.37824 0.91342 0.0
C718 C 0.84353 0.58524 0.15509 0.0
C719 C 0.86118 0.59294 0.18588 0.0
H720 H 0.82104 0.58811 0.07125 0.0
C721 C 0.86947 0.61032 0.15506 0.0
H722 H 0.83674 0.57192 0.17778 0.0
C723 C 0.86018 0.6199 0.09506 0.0
C724 C 0.84265 0.61205 0.06382 0.0
H725 H 0.88294 0.61672 0.17809 0.0
H726 H 0.86693 0.63324 0.0723 0.0
C727 C 0.8345 0.59457 0.09426 0.0
C728 C 0.36176 0.3768 0.5972 0.0
C729 C 0.34431 0.38468 0.56545 0.0
H730 H 0.3844 0.38 0.68066 0.0
C731 C 0.33621 0.40225 0.59534 0.0
H732 H 0.36846 0.3634 0.57486 0.0
C733 C 0.3452 0.41162 0.65619 0.0
C734 C 0.36275 0.40389 0.68752 0.0
H735 H 0.32282 0.40873 0.57193 0.0
H736 H 0.33843 0.42501 0.67848 0.0
C737 C 0.371 0.38643 0.65719 0.0
C738 C 0.33704 0.59315 0.40633 0.0
C739 C 0.34438 0.61081 0.43823 0.0
H740 H 0.34045 0.57101 0.32147 0.0
C741 C 0.36169 0.61949 0.40837 0.0
H742 H 0.32377 0.58607 0.42826 0.0
C743 C 0.37157 0.61056 0.34827 0.0
C744 C 0.36407 0.59302 0.31593 0.0
H745 H 0.36782 0.63298 0.43229 0.0
H746 H 0.38485 0.61759 0.32629 0.0
C747 C 0.34664 0.58449 0.34535 0.0
C748 C 0.15941 0.61961 0.12741 0.0
C749 C 0.1532 0.61245 0.0579 0.0
H750 H 0.15675 0.61703 0.24603 0.0
C751 C 0.13893 0.59712 0.05481 0.0
H752 H 0.17037 0.63143 0.13107 0.0
C753 C 0.1306 0.58944 0.12024 0.0
C754 C 0.13703 0.5964 0.18974 0.0
H755 H 0.13381 0.59147 0.00167 0.0
H756 H 0.11931 0.57794 0.11659 0.0
C757 C 0.15168 0.61135 0.19288 0.0
C758 C 0.12989 0.38876 0.84331 0.0
C759 C 0.13861 0.40599 0.81291 0.0
H760 H 0.1318 0.3657 0.92574 0.0
C761 C 0.15636 0.41327 0.84422 0.0
H762 H 0.11631 0.38269 0.81986 0.0
C763 C 0.16509 0.40369 0.90513 0.0
C764 C 0.15652 0.38635 0.93509 0.0
H765 H 0.16348 0.42647 0.82189 0.0
H766 H 0.17865 0.40982 0.92853 0.0
C767 C 0.13887 0.37892 0.90335 0.0
C768 C 0.1587 0.26047 0.09629 0.0
C769 C 0.15637 0.27107 0.16325 0.0
H770 H 0.16161 0.23165 0.04504 0.0
C771 C 0.15268 0.26045 0.2291 0.0
H772 H 0.16155 0.26829 0.04467 0.0
C773 C 0.15272 0.23972 0.22931 0.0
C774 C 0.15646 0.22903 0.16368 0.0
H775 H 0.15053 0.26816 0.28146 0.0
H776 H 0.1506 0.23208 0.28182 0.0
C777 C 0.15874 0.23953 0.0965 0.0
C778 C 0.99178 0.91005 0.34879 0.0
C779 C 0.98119 0.90896 0.41618 0.0
H780 H 0.02064 0.91163 0.29695 0.0
C781 C 0.99175 0.9061 0.48269 0.0
H782 H 0.98397 0.91222 0.29669 0.0
C783 C 0.01246 0.90567 0.48284 0.0
C784 C 0.02321 0.90818 0.4165 0.0
H785 H 0.98402 0.90487 0.53541 0.0
H786 H 0.02006 0.90417 0.53572 0.0
C787 C 0.01272 0.9097 0.34896 0.0
C788 C 0.34241 0.75654 0.73258 0.0
C789 C 0.34044 0.7673 0.66601 0.0
H790 H 0.34276 0.72811 0.78536 0.0
C791 C 0.33901 0.75677 0.59851 0.0
H792 H 0.34378 0.76414 0.7855 0.0
C793 C 0.33842 0.73583 0.59843 0.0
C794 C 0.33924 0.72521 0.66584 0.0
H795 H 0.33749 0.76468 0.54631 0.0
H796 H 0.33648 0.72805 0.54616 0.0
C797 C 0.34181 0.73581 0.73251 0.0
C798 C 0.48848 0.08989 0.84733 0.0
C799 C 0.47784 0.09166 0.91443 0.0
H800 H 0.51735 0.08771 0.79594 0.0
C801 C 0.4884 0.09504 0.98065 0.0
H802 H 0.48071 0.08731 0.79543 0.0
C803 C 0.50912 0.09528 0.98094 0.0
C804 C 0.51989 0.09214 0.91502 0.0
H805 H 0.48065 0.09675 0.03315 0.0
H806 H 0.51672 0.09716 0.03366 0.0
C807 C 0.50942 0.09013 0.84763 0.0
C808 C 0.15648 0.76307 0.77622 0.0
C809 C 0.15906 0.77355 0.84311 0.0
H810 H 0.15557 0.73486 0.72208 0.0
C811 C 0.16072 0.76279 0.91002 0.0
H812 H 0.15488 0.77087 0.72379 0.0
C813 C 0.16105 0.74185 0.90901 0.0
C814 C 0.15982 0.73155 0.84106 0.0
H815 H 0.16271 0.7705 0.96242 0.0
H816 H 0.16323 0.73382 0.96063 0.0
C817 C 0.15691 0.74238 0.7752 0.0
C818 C 0.48911 0.9083 0.15382 0.0
C819 C 0.47868 0.90607 0.08646 0.0
H820 H 0.51781 0.91121 0.20605 0.0
C821 C 0.48945 0.9026 0.02081 0.0
H822 H 0.48116 0.91097 0.20529 0.0
C823 C 0.51018 0.90273 0.02125 0.0
C824 C 0.52071 0.90634 0.08734 0.0
H825 H 0.48188 0.90052 0.96815 0.0
H826 H 0.51794 0.90076 0.96891 0.0
C827 C 0.51005 0.90844 0.15425 0.0
C828 C 0.34045 0.23804 0.40512 0.0
C829 C 0.34252 0.22748 0.33795 0.0
H830 H 0.33787 0.26683 0.45682 0.0
C831 C 0.34605 0.23813 0.27206 0.0
H832 H 0.33774 0.23019 0.45678 0.0
C833 C 0.34613 0.25886 0.27208 0.0
C834 C 0.34267 0.26953 0.338 0.0
H835 H 0.348 0.23046 0.21953 0.0
H836 H 0.34812 0.26653 0.21956 0.0
C837 C 0.34053 0.25897 0.40515 0.0
C838 C 0.9873 0.09449 0.51525 0.0
C839 C 0.97648 0.0918 0.58132 0.0
H840 H 0.01582 0.09609 0.46347 0.0
C841 C 0.98688 0.09051 0.6491 0.0
H842 H 0.97977 0.09581 0.46217 0.0
C843 C 0.00782 0.09067 0.64985 0.0
C844 C 0.01855 0.09213 0.58283 0.0
H845 H 0.97891 0.08846 0.70092 0.0
H846 H 0.01555 0.08874 0.70224 0.0
C847 C 0.00803 0.09466 0.51599 0.0
C848 C 0.84015 0.73734 0.90568 0.0
C849 C 0.84202 0.7268 0.83838 0.0
H850 H 0.83744 0.76613 0.95744 0.0
C851 C 0.84503 0.73748 0.77219 0.0
H852 H 0.83784 0.72947 0.95756 0.0
C853 C 0.84472 0.75819 0.77212 0.0
C854 C 0.84147 0.76881 0.83825 0.0
H855 H 0.84682 0.72984 0.71953 0.0
H856 H 0.8463 0.76589 0.71945 0.0
C857 C 0.83991 0.75828 0.90563 0.0
C858 C 0.6595 0.23742 0.40877 0.0
C859 C 0.65738 0.22684 0.34167 0.0
H860 H 0.6627 0.26624 0.46002 0.0
C861 C 0.65448 0.23749 0.27535 0.0
H862 H 0.66173 0.22957 0.46074 0.0
C863 C 0.65513 0.25819 0.27492 0.0
C864 C 0.6586 0.26883 0.34084 0.0
H865 H 0.65251 0.22982 0.22282 0.0
H866 H 0.65361 0.26585 0.22216 0.0
C867 C 0.66007 0.25836 0.40837 0.0
C868 C 0.83915 0.2622 0.09715 0.0
C869 C 0.8411 0.27247 0.16499 0.0
H870 H 0.83653 0.23364 0.04363 0.0
C871 C 0.84414 0.2615 0.23052 0.0
H872 H 0.83682 0.27028 0.04574 0.0
C873 C 0.84397 0.24077 0.22932 0.0
C874 C 0.84077 0.2304 0.16256 0.0
H875 H 0.84598 0.26892 0.28359 0.0
H876 H 0.84568 0.23287 0.28151 0.0
C877 C 0.83899 0.24126 0.09594 0.0
C878 C 0.65999 0.74145 0.59409 0.0
C879 C 0.65811 0.73076 0.66106 0.0
H880 H 0.66267 0.77032 0.54302 0.0
C881 C 0.65527 0.74132 0.72761 0.0
H882 H 0.66219 0.73368 0.54193 0.0
C883 C 0.65555 0.76205 0.72824 0.0
C884 C 0.65869 0.77283 0.66232 0.0
H885 H 0.65351 0.73357 0.78007 0.0
H886 H 0.65399 0.76962 0.78115 0.0
C887 C 0.66028 0.76238 0.59472 0.0
C888 C 0.50845 0.40446 0.98021 0.0
C889 C 0.51916 0.40764 0.91425 0.0
H890 H 0.48002 0.40218 0.03212 0.0
C891 C 0.50874 0.40894 0.84655 0.0
H892 H 0.51605 0.40307 0.03313 0.0
C893 C 0.48781 0.40849 0.84595 0.0
C894 C 0.47716 0.40665 0.91303 0.0
H895 H 0.51667 0.41136 0.79486 0.0
H896 H 0.48002 0.41058 0.79378 0.0
C897 C 0.48775 0.40392 0.9796 0.0
C898 C 0.9864 0.59328 0.47503 0.0
C899 C 0.97575 0.59078 0.40848 0.0
H900 H 0.01474 0.59414 0.52817 0.0
C901 C 0.98633 0.58919 0.34116 0.0
H902 H 0.97873 0.59482 0.52777 0.0
C903 C 0.00727 0.58887 0.34141 0.0
C904 C 0.01775 0.59003 0.40901 0.0
H905 H 0.97849 0.58727 0.28901 0.0
H906 H 0.01517 0.58675 0.28947 0.0
C907 C 0.00709 0.59285 0.4753 0.0
C908 C 0.99277 0.40745 0.51933 0.0
C909 C 0.98205 0.4094 0.58598 0.0
H910 H 0.02117 0.40716 0.46633 0.0
C911 C 0.99261 0.41087 0.65339 0.0
H912 H 0.98514 0.40605 0.46648 0.0
C913 C 0.01354 0.41151 0.6533 0.0
C914 C 0.02412 0.41071 0.58581 0.0
H915 H 0.98472 0.41239 0.70565 0.0
H916 H 0.02135 0.41348 0.70551 0.0
C917 C 0.0135 0.4081 0.51924 0.0
C918 C 0.49065 0.59364 0.0143 0.0
C919 C 0.48011 0.59095 0.081 0.0
H920 H 0.51895 0.59505 0.96077 0.0
C921 C 0.4908 0.5895 0.14809 0.0
H922 H 0.48289 0.59507 0.96173 0.0
C923 C 0.51174 0.58948 0.14754 0.0
C924 C 0.52218 0.59091 0.07988 0.0
H925 H 0.48305 0.58744 0.20037 0.0
H926 H 0.51969 0.58742 0.1994 0.0
C927 C 0.51139 0.59362 0.01375 0.0
C928 C 0.12042 0.13747 0.34442 0.0
C929 C 0.13763 0.12886 0.31359 0.0
H930 H 0.09787 0.13539 0.42894 0.0
C931 C 0.14574 0.1117 0.34628 0.0
H932 H 0.11397 0.15077 0.32022 0.0
C933 C 0.13701 0.10339 0.40909 0.0
C934 C 0.11968 0.11176 0.43962 0.0
H935 H 0.15913 0.10489 0.32423 0.0
H936 H 0.14364 0.09013 0.4329 0.0
C937 C 0.11129 0.12876 0.40648 0.0
C938 C 0.11523 0.87415 0.60099 0.0
C939 C 0.12376 0.89113 0.56815 0.0
H940 H 0.11745 0.85226 0.68775 0.0
C941 C 0.1409 0.89957 0.59981 0.0
H942 H 0.10193 0.86745 0.5777 0.0
C943 C 0.14933 0.89134 0.66335 0.0
C944 C 0.14108 0.8742 0.69576 0.0
H945 H 0.14765 0.91282 0.57629 0.0
H946 H 0.16262 0.89819 0.68614 0.0
C947 C 0.12402 0.86555 0.66388 0.0
C948 C 0.36155 0.89464 0.90284 0.0
C949 C 0.37867 0.88658 0.93584 0.0
H950 H 0.34005 0.89246 0.81601 0.0
C951 C 0.38734 0.86936 0.90527 0.0
H952 H 0.35469 0.90804 0.92467 0.0
C953 C 0.37869 0.86017 0.84317 0.0
C954 C 0.36172 0.86851 0.80974 0.0
H955 H 0.40062 0.86294 0.92971 0.0
H956 H 0.38535 0.84673 0.82093 0.0
C957 C 0.35331 0.88585 0.84001 0.0
C958 C 0.38575 0.12623 0.09445 0.0
C959 C 0.37716 0.10919 0.06227 0.0
H960 H 0.38351 0.14847 0.18003 0.0
C961 C 0.35984 0.10105 0.09369 0.0
H962 H 0.39917 0.13272 0.07128 0.0
C963 C 0.35134 0.10959 0.15653 0.0
C964 C 0.35969 0.12676 0.18837 0.0
H965 H 0.35303 0.08777 0.07059 0.0
H966 H 0.33795 0.10294 0.17934 0.0
C967 C 0.37687 0.13516 0.15655 0.0
C968 C 0.89041 0.8889 0.63909 0.0
C969 C 0.88478 0.88397 0.56616 0.0
H970 H 0.88469 0.8846 0.75538 0.0
C971 C 0.87052 0.86906 0.55409 0.0
H972 H 0.90128 0.90052 0.64938 0.0
C973 C 0.86158 0.85953 0.61445 0.0
C974 C 0.86629 0.86536 0.68736 0.0
H975 H 0.86597 0.86514 0.49813 0.0
H976 H 0.85016 0.84845 0.60413 0.0
C977 C 0.88094 0.87989 0.69944 0.0
C978 C 0.87637 0.13766 0.33826 0.0
C979 C 0.8596 0.12909 0.30406 0.0
H980 H 0.89806 0.13518 0.42571 0.0
C981 C 0.85143 0.11154 0.33355 0.0
H982 H 0.88286 0.15126 0.31662 0.0
C983 C 0.85963 0.10281 0.39657 0.0
C984 C 0.87649 0.11117 0.43052 0.0
H985 H 0.83835 0.10473 0.30893 0.0
H986 H 0.85295 0.08927 0.41791 0.0
C987 C 0.88498 0.12855 0.40055 0.0
C988 C 0.64674 0.10953 0.15878 0.0
C989 C 0.6385 0.12652 0.19228 0.0
H990 H 0.64483 0.08825 0.0711 0.0
C991 C 0.62125 0.13512 0.16171 0.0
H992 H 0.66017 0.10273 0.18056 0.0
C993 C 0.61224 0.12659 0.0991 0.0
C994 C 0.62074 0.10976 0.06518 0.0
H995 H 0.6147 0.14829 0.18647 0.0
H996 H 0.59878 0.13323 0.07686 0.0
C997 C 0.63809 0.10139 0.09548 0.0
C998 C 0.62242 0.86412 0.84318 0.0
C999 C 0.63941 0.87299 0.81167 0.0
H1000 H 0.6001 0.86582 0.92866 0.0
C1001 C 0.64736 0.89026 0.84406 0.0
H1002 H 0.61608 0.85072 0.81926 0.0
C1003 C 0.6387 0.89844 0.90725 0.0
C1004 C 0.6216 0.88979 0.93851 0.0
H1005 H 0.6606 0.89728 0.82152 0.0
H1006 H 0.64521 0.9118 0.9308 0.0
C1007 C 0.61336 0.87267 0.90566 0.0
C1008 C 0.61345 0.62839 0.90021 0.0
C1009 C 0.62214 0.61115 0.93041 0.0
H1010 H 0.61533 0.65109 0.81615 0.0
C1011 C 0.6392 0.60307 0.89689 0.0
H1012 H 0.60022 0.63481 0.92505 0.0
C1013 C 0.64735 0.6119 0.83399 0.0
C1014 C 0.63893 0.62929 0.80416 0.0
H1015 H 0.64606 0.58964 0.91843 0.0
H1016 H 0.66056 0.6053 0.80963 0.0
C1017 C 0.622 0.63761 0.83803 0.0
C1018 C 0.61954 0.37954 0.20039 0.0
C1019 C 0.63427 0.36511 0.18822 0.0
H1020 H 0.59903 0.40002 0.15046 0.0
C1021 C 0.63899 0.35932 0.11529 0.0
H1022 H 0.61577 0.38421 0.25636 0.0
C1023 C 0.62997 0.36879 0.05499 0.0
C1024 C 0.61561 0.38359 0.06715 0.0
H1025 H 0.65048 0.34832 0.10491 0.0
H1026 H 0.63451 0.3649 0.99901 0.0
C1027 C 0.60997 0.38848 0.1401 0.0
C1028 C 0.88879 0.37171 0.40867 0.0
C1029 C 0.8805 0.38853 0.44344 0.0
H1030 H 0.88582 0.35015 0.32094 0.0
C1031 C 0.86304 0.39701 0.41436 0.0
H1032 H 0.90231 0.365 0.42995 0.0
C1033 C 0.8541 0.38902 0.35142 0.0
C1034 C 0.86211 0.37206 0.31707 0.0
H1035 H 0.85647 0.41015 0.43938 0.0
H1036 H 0.84062 0.39592 0.33056 0.0
C1037 C 0.87944 0.36331 0.34643 0.0
C1038 C 0.8757 0.63465 0.65459 0.0
C1039 C 0.85889 0.62602 0.68827 0.0
H1040 H 0.89733 0.63253 0.56687 0.0
C1041 C 0.85057 0.6087 0.65747 0.0
H1042 H 0.88231 0.64808 0.67719 0.0
C1043 C 0.8587 0.60026 0.59379 0.0
C1044 C 0.87561 0.60867 0.56034 0.0
H1045 H 0.83746 0.60185 0.68166 0.0
H1046 H 0.85191 0.58686 0.57157 0.0
C1047 C 0.8842 0.62585 0.59154 0.0
C1048 C 0.37685 0.36192 0.15523 0.0
C1049 C 0.36001 0.37044 0.189 0.0
H1050 H 0.3986 0.36435 0.068 0.0
C1051 C 0.35169 0.38782 0.15872 0.0
H1052 H 0.38345 0.34844 0.17746 0.0
C1053 C 0.35989 0.39646 0.0955 0.0
C1054 C 0.37687 0.38818 0.06208 0.0
H1055 H 0.33855 0.39458 0.18301 0.0
H1056 H 0.35312 0.40991 0.07366 0.0
C1057 C 0.38543 0.37093 0.09271 0.0
C1058 C 0.36094 0.60035 0.90942 0.0
C1059 C 0.37832 0.60897 0.93851 0.0
H1060 H 0.33846 0.60133 0.82572 0.0
C1061 C 0.38643 0.62592 0.90402 0.0
H1062 H 0.3545 0.58712 0.93428 0.0
C1063 C 0.37699 0.6343 0.84201 0.0
C1064 C 0.35973 0.62543 0.81258 0.0
H1065 H 0.3999 0.63274 0.92533 0.0
H1066 H 0.38325 0.64755 0.81671 0.0
C1067 C 0.35188 0.60834 0.84667 0.0
C1068 C 0.11435 0.62444 0.69604 0.0
C1069 C 0.12936 0.63867 0.68493 0.0
H1070 H 0.09402 0.60402 0.64489 0.0
C1071 C 0.13417 0.6447 0.61231 0.0
H1072 H 0.11047 0.61958 0.75167 0.0
C1073 C 0.12526 0.63539 0.55138 0.0
C1074 C 0.11094 0.62046 0.56249 0.0
H1075 H 0.14585 0.65555 0.60254 0.0
H1076 H 0.13011 0.63927 0.49574 0.0
C1077 C 0.10493 0.61564 0.63512 0.0
C1078 C 0.14921 0.3896 0.34197 0.0
C1079 C 0.14042 0.37246 0.31158 0.0
H1080 H 0.14835 0.41173 0.42697 0.0
C1081 C 0.1233 0.36443 0.34514 0.0
H1082 H 0.16257 0.39598 0.31786 0.0
C1083 C 0.11492 0.3737 0.40751 0.0
C1084 C 0.12396 0.39071 0.43821 0.0
H1085 H 0.11634 0.35115 0.32283 0.0
H1086 H 0.10154 0.3675 0.43203 0.0
C1087 C 0.14121 0.39849 0.40505 0.0
loop_
_geom_bond_atom_site_label_1
_geom_bond_atom_site_label_2
_geom_bond_distance
_geom_bond_site_symmetry_2
_ccdc_geom_bond_type
O0 Cd1 2.223 . S
O0 C8 1.315 . S
Cd1 O0 2.223 . S
Cd1 O4 2.297 . S
Cd1 O5 2.439 . S
Cd1 O11 2.240 . S
Cd2 O3 2.240 . S
Cd2 O10 2.223 . S
Cd2 O12 2.297 . S
Cd2 O13 2.439 . S
O3 Cd2 2.240 . S
O3 C8 1.279 . S
O4 Cd1 2.297 . S
O4 C6 1.247 1_554 S
O5 Cd1 2.439 . S
O5 C6 1.208 1_554 S
C6 O4 1.247 1_556 S
C6 O5 1.208 1_556 S
C7 O12 1.247 . S
C7 O13 1.208 . S
C8 O0 1.315 . S
C8 O3 1.279 . S
C9 O10 1.315 . S
C9 O11 1.279 . S
O10 Cd2 2.223 . S
O10 C9 1.315 . S
O11 Cd1 2.240 . S
O11 C9 1.279 . S
O12 Cd2 2.297 . S
O12 C7 1.247 . S
O13 Cd2 2.439 . S
O13 C7 1.208 . S
O14 Cd15 2.223 . S
O14 C22 1.315 . S
Cd15 O14 2.223 . S
Cd15 O18 2.297 . S
Cd15 O19 2.439 . S
Cd15 O25 2.240 . S
Cd16 O17 2.240 . S
Cd16 O24 2.223 . S
Cd16 O26 2.297 . S
Cd16 O27 2.439 . S
O17 Cd16 2.240 . S
O17 C22 1.279 . S
O18 Cd15 2.297 . S
O18 C20 1.247 . S
O19 Cd15 2.439 . S
O19 C20 1.208 . S
C20 O18 1.247 . S
C20 O19 1.208 . S
C21 O26 1.247 . S
C21 O27 1.208 . S
C22 O14 1.315 . S
C22 O17 1.279 . S
C23 O24 1.315 . S
C23 O25 1.279 . S
O24 Cd16 2.223 . S
O24 C23 1.315 . S
O25 Cd15 2.240 . S
O25 C23 1.279 . S
O26 Cd16 2.297 . S
O26 C21 1.247 . S
O27 Cd16 2.439 . S
O27 C21 1.208 . S
O28 Cd29 2.223 . S
O28 C36 1.315 . S
Cd29 O28 2.223 . S
Cd29 O32 2.297 . S
Cd29 O33 2.439 . S
Cd29 O39 2.240 . S
Cd30 O31 2.240 . S
Cd30 O38 2.223 . S
Cd30 O40 2.297 . S
Cd30 O41 2.439 . S
O31 Cd30 2.240 . S
O31 C36 1.279 . S
O32 Cd29 2.297 . S
O32 C34 1.247 . S
O33 Cd29 2.439 . S
O33 C34 1.208 . S
C34 O32 1.247 . S
C34 O33 1.208 . S
C35 O40 1.247 . S
C35 O41 1.208 . S
C36 O28 1.315 . S
C36 O31 1.279 . S
C37 O38 1.315 . S
C37 O39 1.279 . S
O38 Cd30 2.223 . S
O38 C37 1.315 . S
O39 Cd29 2.240 . S
O39 C37 1.279 . S
O40 Cd30 2.297 . S
O40 C35 1.247 . S
O41 Cd30 2.439 . S
O41 C35 1.208 . S
O42 Cd43 2.223 . S
O42 C50 1.315 . S
Cd43 O42 2.223 . S
Cd43 O46 2.297 . S
Cd43 O47 2.439 . S
Cd43 O53 2.240 . S
Cd44 O45 2.240 . S
Cd44 O52 2.223 1_556 S
Cd44 O54 2.297 . S
Cd44 O55 2.439 . S
O45 Cd44 2.240 . S
O45 C50 1.279 . S
O46 Cd43 2.297 . S
O46 C48 1.247 . S
O47 Cd43 2.439 . S
O47 C48 1.208 . S
C48 O46 1.247 . S
C48 O47 1.208 . S
C49 O54 1.247 . S
C49 O55 1.208 . S
C50 O42 1.315 . S
C50 O45 1.279 . S
C51 O52 1.315 1_556 S
C51 O53 1.279 . S
O52 Cd44 2.223 1_554 S
O52 C51 1.315 1_554 S
O53 Cd43 2.240 . S
O53 C51 1.279 . S
O54 Cd44 2.297 . S
O54 C49 1.247 . S
O55 Cd44 2.439 . S
O55 C49 1.208 . S
O56 Cd57 2.223 . S
O56 C64 1.315 . S
Cd57 O56 2.223 . S
Cd57 O60 2.297 . S
Cd57 O61 2.439 . S
Cd57 O67 2.240 . S
Cd58 O59 2.240 . S
Cd58 O66 2.223 . S
Cd58 O68 2.297 . S
Cd58 O69 2.439 . S
O59 Cd58 2.240 . S
O59 C64 1.279 . S
O60 Cd57 2.297 . S
O60 C62 1.247 1_556 S
O61 Cd57 2.439 . S
O61 C62 1.208 1_556 S
C62 O60 1.247 1_554 S
C62 O61 1.208 1_554 S
C63 O68 1.247 . S
C63 O69 1.208 . S
C64 O56 1.315 . S
C64 O59 1.279 . S
C65 O66 1.315 . S
C65 O67 1.279 . S
O66 Cd58 2.223 . S
O66 C65 1.315 . S
O67 Cd57 2.240 . S
O67 C65 1.279 . S
O68 Cd58 2.297 . S
O68 C63 1.247 . S
O69 Cd58 2.439 . S
O69 C63 1.208 . S
O70 Cd71 2.223 . S
O70 C78 1.315 . S
Cd71 O70 2.223 . S
Cd71 O74 2.297 . S
Cd71 O75 2.439 . S
Cd71 O81 2.240 . S
Cd72 O73 2.240 . S
Cd72 O80 2.223 1_554 S
Cd72 O82 2.297 . S
Cd72 O83 2.439 . S
O73 Cd72 2.240 . S
O73 C78 1.279 . S
O74 Cd71 2.297 . S
O74 C76 1.247 . S
O75 Cd71 2.439 . S
O75 C76 1.208 . S
C76 O74 1.247 . S
C76 O75 1.208 . S
C77 O82 1.247 . S
C77 O83 1.208 . S
C78 O70 1.315 . S
C78 O73 1.279 . S
C79 O80 1.315 1_554 S
C79 O81 1.279 . S
O80 Cd72 2.223 1_556 S
O80 C79 1.315 1_556 S
O81 Cd71 2.240 . S
O81 C79 1.279 . S
O82 Cd72 2.297 . S
O82 C77 1.247 . S
O83 Cd72 2.439 . S
O83 C77 1.208 . S
O84 Cd85 2.223 . S
O84 C92 1.315 . S
Cd85 O84 2.223 . S
Cd85 O88 2.297 . S
Cd85 O89 2.439 . S
Cd85 O95 2.240 . S
Cd86 O87 2.240 . S
Cd86 O94 2.223 . S
Cd86 O96 2.297 . S
Cd86 O97 2.439 . S
O87 Cd86 2.240 . S
O87 C92 1.279 . S
O88 Cd85 2.297 . S
O88 C90 1.247 . S
O89 Cd85 2.439 . S
O89 C90 1.208 . S
C90 O88 1.247 . S
C90 O89 1.208 . S
C91 O96 1.247 . S
C91 O97 1.208 . S
C92 O84 1.315 . S
C92 O87 1.279 . S
C93 O94 1.315 . S
C93 O95 1.279 . S
O94 Cd86 2.223 . S
O94 C93 1.315 . S
O95 Cd85 2.240 . S
O95 C93 1.279 . S
O96 Cd86 2.297 . S
O96 C91 1.247 . S
O97 Cd86 2.439 . S
O97 C91 1.208 . S
O98 Cd99 2.223 . S
O98 C106 1.315 . S
Cd99 O98 2.223 . S
Cd99 O102 2.297 . S
Cd99 O103 2.439 . S
Cd99 O109 2.240 . S
Cd100 O101 2.240 . S
Cd100 O108 2.223 . S
Cd100 O110 2.297 . S
Cd100 O111 2.439 . S
O101 Cd100 2.240 . S
O101 C106 1.279 . S
O102 Cd99 2.297 . S
O102 C104 1.247 . S
O103 Cd99 2.439 . S
O103 C104 1.208 . S
C104 O102 1.247 . S
C104 O103 1.208 . S
C105 O110 1.247 . S
C105 O111 1.208 . S
C106 O98 1.315 . S
C106 O101 1.279 . S
C107 O108 1.315 . S
C107 O109 1.279 . S
O108 Cd100 2.223 . S
O108 C107 1.315 . S
O109 Cd99 2.240 . S
O109 C107 1.279 . S
O110 Cd100 2.297 . S
O110 C105 1.247 . S
O111 Cd100 2.439 . S
O111 C105 1.208 . S
O112 Cd113 2.223 . S
O112 C120 1.315 . S
Cd113 O112 2.223 . S
Cd113 O116 2.297 . S
Cd113 O117 2.439 . S
Cd113 O123 2.240 . S
Cd114 O115 2.240 . S
Cd114 O122 2.223 . S
Cd114 O124 2.297 . S
Cd114 O125 2.439 . S
O115 Cd114 2.240 . S
O115 C120 1.279 . S
O116 Cd113 2.297 . S
O116 C118 1.247 1_556 S
O117 Cd113 2.439 . S
O117 C118 1.208 1_556 S
C118 O116 1.247 1_554 S
C118 O117 1.208 1_554 S
C119 O124 1.247 . S
C119 O125 1.208 . S
C120 O112 1.315 . S
C120 O115 1.279 . S
C121 O122 1.315 . S
C121 O123 1.279 . S
O122 Cd114 2.223 . S
O122 C121 1.315 . S
O123 Cd113 2.240 . S
O123 C121 1.279 . S
O124 Cd114 2.297 . S
O124 C119 1.247 . S
O125 Cd114 2.439 . S
O125 C119 1.208 . S
O126 Cd127 2.223 . S
O126 C134 1.315 . S
Cd127 O126 2.223 . S
Cd127 O130 2.297 . S
Cd127 O131 2.439 . S
Cd127 O137 2.240 . S
Cd128 O129 2.240 . S
Cd128 O136 2.223 . S
Cd128 O138 2.297 . S
Cd128 O139 2.439 . S
O129 Cd128 2.240 . S
O129 C134 1.279 . S
O130 Cd127 2.297 . S
O130 C132 1.247 . S
O131 Cd127 2.439 . S
O131 C132 1.208 . S
C132 O130 1.247 . S
C132 O131 1.208 . S
C133 O138 1.247 . S
C133 O139 1.208 . S
C134 O126 1.315 . S
C134 O129 1.279 . S
C135 O136 1.315 . S
C135 O137 1.279 . S
O136 Cd128 2.223 . S
O136 C135 1.315 . S
O137 Cd127 2.240 . S
O137 C135 1.279 . S
O138 Cd128 2.297 . S
O138 C133 1.247 . S
O139 Cd128 2.439 . S
O139 C133 1.208 . S
O140 Cd141 2.223 . S
O140 C148 1.315 . S
Cd141 O140 2.223 . S
Cd141 O144 2.297 . S
Cd141 O145 2.439 . S
Cd141 O151 2.240 . S
Cd142 O143 2.240 . S
Cd142 O150 2.223 . S
Cd142 O152 2.297 . S
Cd142 O153 2.439 . S
O143 Cd142 2.240 . S
O143 C148 1.279 . S
O144 Cd141 2.297 . S
O144 C146 1.247 . S
O145 Cd141 2.439 . S
O145 C146 1.208 . S
C146 O144 1.247 . S
C146 O145 1.208 . S
C147 O152 1.247 . S
C147 O153 1.208 . S
C148 O140 1.315 . S
C148 O143 1.279 . S
C149 O150 1.315 . S
C149 O151 1.279 . S
O150 Cd142 2.223 . S
O150 C149 1.315 . S
O151 Cd141 2.240 . S
O151 C149 1.279 . S
O152 Cd142 2.297 . S
O152 C147 1.247 . S
O153 Cd142 2.439 . S
O153 C147 1.208 . S
O154 Cd155 2.223 . S
O154 C162 1.315 . S
Cd155 O154 2.223 . S
Cd155 O158 2.297 . S
Cd155 O159 2.439 . S
Cd155 O165 2.240 . S
Cd156 O157 2.240 . S
Cd156 O164 2.223 1_554 S
Cd156 O166 2.297 . S
Cd156 O167 2.439 . S
O157 Cd156 2.240 . S
O157 C162 1.279 . S
O158 Cd155 2.297 . S
O158 C160 1.247 . S
O159 Cd155 2.439 . S
O159 C160 1.208 . S
C160 O158 1.247 . S
C160 O159 1.208 . S
C161 O166 1.247 . S
C161 O167 1.208 . S
C162 O154 1.315 . S
C162 O157 1.279 . S
C163 O164 1.315 1_554 S
C163 O165 1.279 . S
O164 Cd156 2.223 1_556 S
O164 C163 1.315 1_556 S
O165 Cd155 2.240 . S
O165 C163 1.279 . S
O166 Cd156 2.297 . S
O166 C161 1.247 . S
O167 Cd156 2.439 . S
O167 C161 1.208 . S
O168 Cd169 2.223 . S
O168 C176 1.315 . S
Cd169 O168 2.223 . S
Cd169 O172 2.297 . S
Cd169 O173 2.439 . S
Cd169 O179 2.240 . S
Cd170 O171 2.240 . S
Cd170 O178 2.223 . S
Cd170 O180 2.297 . S
Cd170 O181 2.439 . S
O171 Cd170 2.240 . S
O171 C176 1.279 . S
O172 Cd169 2.297 . S
O172 C174 1.247 1_554 S
O173 Cd169 2.439 . S
O173 C174 1.208 1_554 S
C174 O172 1.247 1_556 S
C174 O173 1.208 1_556 S
C175 O180 1.247 . S
C175 O181 1.208 . S
C176 O168 1.315 . S
C176 O171 1.279 . S
C177 O178 1.315 . S
C177 O179 1.279 . S
O178 Cd170 2.223 . S
O178 C177 1.315 . S
O179 Cd169 2.240 . S
O179 C177 1.279 . S
O180 Cd170 2.297 . S
O180 C175 1.247 . S
O181 Cd170 2.439 . S
O181 C175 1.208 . S
O182 Cd183 2.223 . S
O182 C190 1.315 . S
Cd183 O182 2.223 . S
Cd183 O186 2.297 . S
Cd183 O187 2.439 . S
Cd183 O193 2.240 . S
Cd184 O185 2.240 . S
Cd184 O192 2.223 1_556 S
Cd184 O194 2.297 . S
Cd184 O195 2.439 . S
O185 Cd184 2.240 . S
O185 C190 1.279 . S
O186 Cd183 2.297 . S
O186 C188 1.247 . S
O187 Cd183 2.439 . S
O187 C188 1.208 . S
C188 O186 1.247 . S
C188 O187 1.208 . S
C189 O194 1.247 . S
C189 O195 1.208 . S
C190 O182 1.315 . S
C190 O185 1.279 . S
C191 O192 1.315 1_556 S
C191 O193 1.279 . S
O192 Cd184 2.223 1_554 S
O192 C191 1.315 1_554 S
O193 Cd183 2.240 . S
O193 C191 1.279 . S
O194 Cd184 2.297 . S
O194 C189 1.247 . S
O195 Cd184 2.439 . S
O195 C189 1.208 . S
O196 Cd197 2.223 . S
O196 C204 1.315 . S
Cd197 O196 2.223 . S
Cd197 O200 2.297 . S
Cd197 O201 2.439 . S
Cd197 O207 2.240 . S
Cd198 O199 2.240 . S
Cd198 O206 2.223 . S
Cd198 O208 2.297 . S
Cd198 O209 2.439 . S
O199 Cd198 2.240 . S
O199 C204 1.279 . S
O200 Cd197 2.297 . S
O200 C202 1.247 . S
O201 Cd197 2.439 . S
O201 C202 1.208 . S
C202 O200 1.247 . S
C202 O201 1.208 . S
C203 O208 1.247 . S
C203 O209 1.208 . S
C204 O196 1.315 . S
C204 O199 1.279 . S
C205 O206 1.315 . S
C205 O207 1.279 . S
O206 Cd198 2.223 . S
O206 C205 1.315 . S
O207 Cd197 2.240 . S
O207 C205 1.279 . S
O208 Cd198 2.297 . S
O208 C203 1.247 . S
O209 Cd198 2.439 . S
O209 C203 1.208 . S
O210 Cd211 2.223 . S
O210 C218 1.315 . S
Cd211 O210 2.223 . S
Cd211 O214 2.297 . S
Cd211 O215 2.439 . S
Cd211 O221 2.240 . S
Cd212 O213 2.240 . S
Cd212 O220 2.223 . S
Cd212 O222 2.297 . S
Cd212 O223 2.439 . S
O213 Cd212 2.240 . S
O213 C218 1.279 . S
O214 Cd211 2.297 . S
O214 C216 1.247 . S
O215 Cd211 2.439 . S
O215 C216 1.208 . S
C216 O214 1.247 . S
C216 O215 1.208 . S
C217 O222 1.247 . S
C217 O223 1.208 . S
C218 O210 1.315 . S
C218 O213 1.279 . S
C219 O220 1.315 . S
C219 O221 1.279 . S
O220 Cd212 2.223 . S
O220 C219 1.315 . S
O221 Cd211 2.240 . S
O221 C219 1.279 . S
O222 Cd212 2.297 . S
O222 C217 1.247 . S
O223 Cd212 2.439 . S
O223 C217 1.208 . S
O224 Cd225 2.223 . S
O224 C232 1.315 . S
Cd225 O224 2.223 . S
Cd225 O228 2.297 . S
Cd225 O229 2.439 . S
Cd225 O235 2.240 . S
Cd226 O227 2.240 . S
Cd226 O234 2.223 . S
Cd226 O236 2.297 . S
Cd226 O237 2.439 . S
O227 Cd226 2.240 . S
O227 C232 1.279 . S
O228 Cd225 2.297 . S
O228 C230 1.247 . S
O229 Cd225 2.439 . S
O229 C230 1.208 . S
C230 O228 1.247 . S
C230 O229 1.208 . S
C231 O236 1.247 . S
C231 O237 1.208 . S
C232 O224 1.315 . S
C232 O227 1.279 . S
C233 O234 1.315 . S
C233 O235 1.279 . S
O234 Cd226 2.223 . S
O234 C233 1.315 . S
O235 Cd225 2.240 . S
O235 C233 1.279 . S
O236 Cd226 2.297 . S
O236 C231 1.247 . S
O237 Cd226 2.439 . S
O237 C231 1.208 . S
O238 Cd239 2.223 . S
O238 C246 1.315 . S
Cd239 O238 2.223 . S
Cd239 O242 2.297 . S
Cd239 O243 2.439 . S
Cd239 O249 2.240 . S
Cd240 O241 2.240 . S
Cd240 O248 2.223 1_556 S
Cd240 O250 2.297 . S
Cd240 O251 2.439 . S
O241 Cd240 2.240 . S
O241 C246 1.279 . S
O242 Cd239 2.297 . S
O242 C244 1.247 . S
O243 Cd239 2.439 . S
O243 C244 1.208 . S
C244 O242 1.247 . S
C244 O243 1.208 . S
C245 O250 1.247 . S
C245 O251 1.208 . S
C246 O238 1.315 . S
C246 O241 1.279 . S
C247 O248 1.315 1_556 S
C247 O249 1.279 . S
O248 Cd240 2.223 1_554 S
O248 C247 1.315 1_554 S
O249 Cd239 2.240 . S
O249 C247 1.279 . S
O250 Cd240 2.297 . S
O250 C245 1.247 . S
O251 Cd240 2.439 . S
O251 C245 1.208 . S
O252 Cd253 2.223 . S
O252 C260 1.315 . S
Cd253 O252 2.223 . S
Cd253 O256 2.297 . S
Cd253 O257 2.439 . S
Cd253 O263 2.240 . S
Cd254 O255 2.240 . S
Cd254 O262 2.223 . S
Cd254 O264 2.297 . S
Cd254 O265 2.439 . S
O255 Cd254 2.240 . S
O255 C260 1.279 . S
O256 Cd253 2.297 . S
O256 C258 1.247 1_554 S
O257 Cd253 2.439 . S
O257 C258 1.208 1_554 S
C258 O256 1.247 1_556 S
C258 O257 1.208 1_556 S
C259 O264 1.247 . S
C259 O265 1.208 . S
C260 O252 1.315 . S
C260 O255 1.279 . S
C261 O262 1.315 . S
C261 O263 1.279 . S
O262 Cd254 2.223 . S
O262 C261 1.315 . S
O263 Cd253 2.240 . S
O263 C261 1.279 . S
O264 Cd254 2.297 . S
O264 C259 1.247 . S
O265 Cd254 2.439 . S
O265 C259 1.208 . S
O266 Cd267 2.223 . S
O266 C274 1.315 . S
Cd267 O266 2.223 . S
Cd267 O270 2.297 . S
Cd267 O271 2.439 . S
Cd267 O277 2.240 . S
Cd268 O269 2.240 . S
Cd268 O276 2.223 . S
Cd268 O278 2.297 . S
Cd268 O279 2.439 . S
O269 Cd268 2.240 . S
O269 C274 1.279 . S
O270 Cd267 2.297 . S
O270 C272 1.247 . S
O271 Cd267 2.439 . S
O271 C272 1.208 . S
C272 O270 1.247 . S
C272 O271 1.208 . S
C273 O278 1.247 . S
C273 O279 1.208 . S
C274 O266 1.315 . S
C274 O269 1.279 . S
C275 O276 1.315 . S
C275 O277 1.279 . S
O276 Cd268 2.223 . S
O276 C275 1.315 . S
O277 Cd267 2.240 . S
O277 C275 1.279 . S
O278 Cd268 2.297 . S
O278 C273 1.247 . S
O279 Cd268 2.439 . S
O279 C273 1.208 . S
O280 Cd281 2.223 . S
O280 C288 1.315 . S
Cd281 O280 2.223 . S
Cd281 O284 2.297 . S
Cd281 O285 2.439 . S
Cd281 O291 2.240 . S
Cd282 O283 2.240 . S
Cd282 O290 2.223 . S
Cd282 O292 2.297 . S
Cd282 O293 2.439 . S
O283 Cd282 2.240 . S
O283 C288 1.279 . S
O284 Cd281 2.297 . S
O284 C286 1.247 . S
O285 Cd281 2.439 . S
O285 C286 1.208 . S
C286 O284 1.247 . S
C286 O285 1.208 . S
C287 O292 1.247 . S
C287 O293 1.208 . S
C288 O280 1.315 . S
C288 O283 1.279 . S
C289 O290 1.315 . S
C289 O291 1.279 . S
O290 Cd282 2.223 . S
O290 C289 1.315 . S
O291 Cd281 2.240 . S
O291 C289 1.279 . S
O292 Cd282 2.297 . S
O292 C287 1.247 . S
O293 Cd282 2.439 . S
O293 C287 1.208 . S
O294 Cd295 2.223 . S
O294 C302 1.315 . S
Cd295 O294 2.223 . S
Cd295 O298 2.297 . S
Cd295 O299 2.439 . S
Cd295 O305 2.240 . S
Cd296 O297 2.240 . S
Cd296 O304 2.223 . S
Cd296 O306 2.297 . S
Cd296 O307 2.439 . S
O297 Cd296 2.240 . S
O297 C302 1.279 . S
O298 Cd295 2.297 . S
O298 C300 1.247 . S
O299 Cd295 2.439 . S
O299 C300 1.208 . S
C300 O298 1.247 . S
C300 O299 1.208 . S
C301 O306 1.247 . S
C301 O307 1.208 . S
C302 O294 1.315 . S
C302 O297 1.279 . S
C303 O304 1.315 . S
C303 O305 1.279 . S
O304 Cd296 2.223 . S
O304 C303 1.315 . S
O305 Cd295 2.240 . S
O305 C303 1.279 . S
O306 Cd296 2.297 . S
O306 C301 1.247 . S
O307 Cd296 2.439 . S
O307 C301 1.208 . S
O308 Cd309 2.223 . S
O308 C316 1.315 . S
Cd309 O308 2.223 . S
Cd309 O312 2.297 . S
Cd309 O313 2.439 . S
Cd309 O319 2.240 . S
Cd310 O311 2.240 . S
Cd310 O318 2.223 . S
Cd310 O320 2.297 . S
Cd310 O321 2.439 . S
O311 Cd310 2.240 . S
O311 C316 1.279 . S
O312 Cd309 2.297 . S
O312 C314 1.247 1_556 S
O313 Cd309 2.439 . S
O313 C314 1.208 1_556 S
C314 O312 1.247 1_554 S
C314 O313 1.208 1_554 S
C315 O320 1.247 . S
C315 O321 1.208 . S
C316 O308 1.315 . S
C316 O311 1.279 . S
C317 O318 1.315 . S
C317 O319 1.279 . S
O318 Cd310 2.223 . S
O318 C317 1.315 . S
O319 Cd309 2.240 . S
O319 C317 1.279 . S
O320 Cd310 2.297 . S
O320 C315 1.247 . S
O321 Cd310 2.439 . S
O321 C315 1.208 . S
O322 Cd323 2.223 . S
O322 C330 1.315 . S
Cd323 O322 2.223 . S
Cd323 O326 2.297 . S
Cd323 O327 2.439 . S
Cd323 O333 2.240 . S
Cd324 O325 2.240 . S
Cd324 O332 2.223 1_554 S
Cd324 O334 2.297 . S
Cd324 O335 2.439 . S
O325 Cd324 2.240 . S
O325 C330 1.279 . S
O326 Cd323 2.297 . S
O326 C328 1.247 . S
O327 Cd323 2.439 . S
O327 C328 1.208 . S
C328 O326 1.247 . S
C328 O327 1.208 . S
C329 O334 1.247 . S
C329 O335 1.208 . S
C330 O322 1.315 . S
C330 O325 1.279 . S
C331 O332 1.315 1_554 S
C331 O333 1.279 . S
O332 Cd324 2.223 1_556 S
O332 C331 1.315 1_556 S
O333 Cd323 2.240 . S
O333 C331 1.279 . S
O334 Cd324 2.297 . S
O334 C329 1.247 . S
O335 Cd324 2.439 . S
O335 C329 1.208 . S
O336 Cd337 2.223 . S
O336 C344 1.315 . S
Cd337 O336 2.223 . S
Cd337 O340 2.297 . S
Cd337 O341 2.439 . S
Cd337 O347 2.240 . S
Cd338 O339 2.240 . S
Cd338 O346 2.223 . S
Cd338 O348 2.297 . S
Cd338 O349 2.439 . S
O339 Cd338 2.240 . S
O339 C344 1.279 . S
O340 Cd337 2.297 . S
O340 C342 1.247 . S
O341 Cd337 2.439 . S
O341 C342 1.208 . S
C342 O340 1.247 . S
C342 O341 1.208 . S
C343 O348 1.247 . S
C343 O349 1.208 . S
C344 O336 1.315 . S
C344 O339 1.279 . S
C345 O346 1.315 . S
C345 O347 1.279 . S
O346 Cd338 2.223 . S
O346 C345 1.315 . S
O347 Cd337 2.240 . S
O347 C345 1.279 . S
O348 Cd338 2.297 . S
O348 C343 1.247 . S
O349 Cd338 2.439 . S
O349 C343 1.208 . S
O350 Cd351 2.223 . S
O350 C358 1.315 . S
Cd351 O350 2.223 . S
Cd351 O354 2.297 . S
Cd351 O355 2.439 . S
Cd351 O361 2.240 . S
Cd352 O353 2.240 . S
Cd352 O360 2.223 1_554 S
Cd352 O362 2.297 . S
Cd352 O363 2.439 . S
O353 Cd352 2.240 . S
O353 C358 1.279 . S
O354 Cd351 2.297 . S
O354 C356 1.247 . S
O355 Cd351 2.439 . S
O355 C356 1.208 . S
C356 O354 1.247 . S
C356 O355 1.208 . S
C357 O362 1.247 . S
C357 O363 1.208 . S
C358 O350 1.315 . S
C358 O353 1.279 . S
C359 O360 1.315 1_554 S
C359 O361 1.279 . S
O360 Cd352 2.223 1_556 S
O360 C359 1.315 1_556 S
O361 Cd351 2.240 . S
O361 C359 1.279 . S
O362 Cd352 2.297 . S
O362 C357 1.247 . S
O363 Cd352 2.439 . S
O363 C357 1.208 . S
O364 Cd365 2.223 . S
O364 C372 1.315 . S
Cd365 O364 2.223 . S
Cd365 O368 2.297 . S
Cd365 O369 2.439 . S
Cd365 O375 2.240 . S
Cd366 O367 2.240 . S
Cd366 O374 2.223 . S
Cd366 O376 2.297 . S
Cd366 O377 2.439 . S
O367 Cd366 2.240 . S
O367 C372 1.279 . S
O368 Cd365 2.297 . S
O368 C370 1.247 1_556 S
O369 Cd365 2.439 . S
O369 C370 1.208 1_556 S
C370 O368 1.247 1_554 S
C370 O369 1.208 1_554 S
C371 O376 1.247 . S
C371 O377 1.208 . S
C372 O364 1.315 . S
C372 O367 1.279 . S
C373 O374 1.315 . S
C373 O375 1.279 . S
O374 Cd366 2.223 . S
O374 C373 1.315 . S
O375 Cd365 2.240 . S
O375 C373 1.279 . S
O376 Cd366 2.297 . S
O376 C371 1.247 . S
O377 Cd366 2.439 . S
O377 C371 1.208 . S
O378 Cd379 2.223 . S
O378 C386 1.315 . S
Cd379 O378 2.223 . S
Cd379 O382 2.297 . S
Cd379 O383 2.439 . S
Cd379 O389 2.240 . S
Cd380 O381 2.240 . S
Cd380 O388 2.223 . S
Cd380 O390 2.297 . S
Cd380 O391 2.439 . S
O381 Cd380 2.240 . S
O381 C386 1.279 . S
O382 Cd379 2.297 . S
O382 C384 1.247 . S
O383 Cd379 2.439 . S
O383 C384 1.208 . S
C384 O382 1.247 . S
C384 O383 1.208 . S
C385 O390 1.247 . S
C385 O391 1.208 . S
C386 O378 1.315 . S
C386 O381 1.279 . S
C387 O388 1.315 . S
C387 O389 1.279 . S
O388 Cd380 2.223 . S
O388 C387 1.315 . S
O389 Cd379 2.240 . S
O389 C387 1.279 . S
O390 Cd380 2.297 . S
O390 C385 1.247 . S
O391 Cd380 2.439 . S
O391 C385 1.208 . S
O392 Cd393 2.223 . S
O392 C400 1.315 . S
Cd393 O392 2.223 . S
Cd393 O396 2.297 . S
Cd393 O397 2.439 . S
Cd393 O403 2.240 . S
Cd394 O395 2.240 . S
Cd394 O402 2.223 . S
Cd394 O404 2.297 . S
Cd394 O405 2.439 . S
O395 Cd394 2.240 . S
O395 C400 1.279 . S
O396 Cd393 2.297 . S
O396 C398 1.247 . S
O397 Cd393 2.439 . S
O397 C398 1.208 . S
C398 O396 1.247 . S
C398 O397 1.208 . S
C399 O404 1.247 . S
C399 O405 1.208 . S
C400 O392 1.315 . S
C400 O395 1.279 . S
C401 O402 1.315 . S
C401 O403 1.279 . S
O402 Cd394 2.223 . S
O402 C401 1.315 . S
O403 Cd393 2.240 . S
O403 C401 1.279 . S
O404 Cd394 2.297 . S
O404 C399 1.247 . S
O405 Cd394 2.439 . S
O405 C399 1.208 . S
O406 Cd407 2.223 . S
O406 C414 1.315 . S
Cd407 O406 2.223 . S
Cd407 O410 2.297 . S
Cd407 O411 2.439 . S
Cd407 O417 2.240 . S
Cd408 O409 2.240 . S
Cd408 O416 2.223 . S
Cd408 O418 2.297 . S
Cd408 O419 2.439 . S
O409 Cd408 2.240 . S
O409 C414 1.279 . S
O410 Cd407 2.297 . S
O410 C412 1.247 . S
O411 Cd407 2.439 . S
O411 C412 1.208 . S
C412 O410 1.247 . S
C412 O411 1.208 . S
C413 O418 1.247 . S
C413 O419 1.208 . S
C414 O406 1.315 . S
C414 O409 1.279 . S
C415 O416 1.315 . S
C415 O417 1.279 . S
O416 Cd408 2.223 . S
O416 C415 1.315 . S
O417 Cd407 2.240 . S
O417 C415 1.279 . S
O418 Cd408 2.297 . S
O418 C413 1.247 . S
O419 Cd408 2.439 . S
O419 C413 1.208 . S
O420 Cd421 2.223 . S
O420 C428 1.315 . S
Cd421 O420 2.223 . S
Cd421 O424 2.297 . S
Cd421 O425 2.439 . S
Cd421 O431 2.240 . S
Cd422 O423 2.240 . S
Cd422 O430 2.223 . S
Cd422 O432 2.297 . S
Cd422 O433 2.439 . S
O423 Cd422 2.240 . S
O423 C428 1.279 . S
O424 Cd421 2.297 . S
O424 C426 1.247 1_554 S
O425 Cd421 2.439 . S
O425 C426 1.208 1_554 S
C426 O424 1.247 1_556 S
C426 O425 1.208 1_556 S
C427 O432 1.247 . S
C427 O433 1.208 . S
C428 O420 1.315 . S
C428 O423 1.279 . S
C429 O430 1.315 . S
C429 O431 1.279 . S
O430 Cd422 2.223 . S
O430 C429 1.315 . S
O431 Cd421 2.240 . S
O431 C429 1.279 . S
O432 Cd422 2.297 . S
O432 C427 1.247 . S
O433 Cd422 2.439 . S
O433 C427 1.208 . S
O434 Cd435 2.223 . S
O434 C442 1.315 . S
Cd435 O434 2.223 . S
Cd435 O438 2.297 . S
Cd435 O439 2.439 . S
Cd435 O445 2.240 . S
Cd436 O437 2.240 . S
Cd436 O444 2.223 1_556 S
Cd436 O446 2.297 . S
Cd436 O447 2.439 . S
O437 Cd436 2.240 . S
O437 C442 1.279 . S
O438 Cd435 2.297 . S
O438 C440 1.247 . S
O439 Cd435 2.439 . S
O439 C440 1.208 . S
C440 O438 1.247 . S
C440 O439 1.208 . S
C441 O446 1.247 . S
C441 O447 1.208 . S
C442 O434 1.315 . S
C442 O437 1.279 . S
C443 O444 1.315 1_556 S
C443 O445 1.279 . S
O444 Cd436 2.223 1_554 S
O444 C443 1.315 1_554 S
O445 Cd435 2.240 . S
O445 C443 1.279 . S
O446 Cd436 2.297 . S
O446 C441 1.247 . S
O447 Cd436 2.439 . S
O447 C441 1.208 . S
C448 C449 1.387 . S
C448 H452 0.950 . S
C448 C457 1.390 . S
C449 C448 1.387 . S
C449 C451 1.387 . S
H450 C457 0.950 . S
C451 C449 1.387 . S
C451 C453 1.390 . S
C451 H455 0.950 . S
H452 C448 0.950 . S
C453 C451 1.390 . S
C453 C454 1.387 . S
C453 H456 0.950 . S
C454 C453 1.387 . S
C454 C457 1.387 . S
H455 C451 0.950 . S
H456 C453 0.950 . S
C457 C448 1.390 . S
C457 H450 0.950 . S
C457 C454 1.387 . S
C458 C459 1.387 . S
C458 H462 0.950 . S
C458 C467 1.390 1_565 S
C459 C458 1.387 . S
C459 C461 1.387 . S
H460 C467 0.950 . S
C461 C459 1.387 . S
C461 C463 1.390 1_565 S
C461 H465 0.950 . S
H462 C458 0.950 . S
C463 C461 1.390 1_545 S
C463 C464 1.387 . S
C463 H466 0.950 . S
C464 C463 1.387 . S
C464 C467 1.387 . S
H465 C461 0.950 . S
H466 C463 0.950 . S
C467 C458 1.390 1_545 S
C467 H460 0.950 . S
C467 C464 1.387 . S
C468 C469 1.387 . S
C468 H472 0.950 . S
C468 C477 1.390 . S
C469 C468 1.387 . S
C469 C471 1.387 . S
H470 C477 0.950 . S
C471 C469 1.387 . S
C471 C473 1.390 . S
C471 H475 0.950 . S
H472 C468 0.950 . S
C473 C471 1.390 . S
C473 C474 1.387 . S
C473 H476 0.950 . S
C474 C473 1.387 . S
C474 C477 1.387 . S
H475 C471 0.950 . S
H476 C473 0.950 . S
C477 C468 1.390 . S
C477 H470 0.950 . S
C477 C474 1.387 . S
C478 C479 1.387 . S
C478 H482 0.950 . S
C478 C487 1.390 1_546 S
C479 C478 1.387 . S
C479 C481 1.387 . S
H480 C487 0.950 . S
C481 C479 1.387 . S
C481 C483 1.390 1_546 S
C481 H485 0.950 . S
H482 C478 0.950 . S
C483 C481 1.390 1_564 S
C483 C484 1.387 . S
C483 H486 0.950 . S
C484 C483 1.387 . S
C484 C487 1.387 . S
H485 C481 0.950 . S
H486 C483 0.950 . S
C487 C478 1.390 1_564 S
C487 H480 0.950 . S
C487 C484 1.387 . S
C488 C489 1.387 . S
C488 H492 0.950 . S
C488 C497 1.390 . S
C489 C488 1.387 . S
C489 C491 1.387 . S
H490 C497 0.950 . S
C491 C489 1.387 . S
C491 C493 1.390 . S
C491 H495 0.950 . S
H492 C488 0.950 . S
C493 C491 1.390 . S
C493 C494 1.387 . S
C493 H496 0.950 . S
C494 C493 1.387 . S
C494 C497 1.387 . S
H495 C491 0.950 . S
H496 C493 0.950 . S
C497 C488 1.390 . S
C497 H490 0.950 . S
C497 C494 1.387 . S
C498 C499 1.387 . S
C498 H502 0.950 . S
C498 C507 1.390 1_565 S
C499 C498 1.387 . S
C499 C501 1.387 . S
H500 C507 0.950 . S
C501 C499 1.387 . S
C501 C503 1.390 1_565 S
C501 H505 0.950 . S
H502 C498 0.950 . S
C503 C501 1.390 1_545 S
C503 C504 1.387 . S
C503 H506 0.950 . S
C504 C503 1.387 . S
C504 C507 1.387 . S
H505 C501 0.950 . S
H506 C503 0.950 . S
C507 C498 1.390 1_545 S
C507 H500 0.950 . S
C507 C504 1.387 . S
C508 C509 1.387 . S
C508 H512 0.950 . S
C508 C517 1.390 . S
C509 C508 1.387 . S
C509 C511 1.387 . S
H510 C517 0.950 . S
C511 C509 1.387 . S
C511 C513 1.390 . S
C511 H515 0.950 . S
H512 C508 0.950 . S
C513 C511 1.390 . S
C513 C514 1.387 . S
C513 H516 0.950 . S
C514 C513 1.387 . S
C514 C517 1.387 . S
H515 C511 0.950 . S
H516 C513 0.950 . S
C517 C508 1.390 . S
C517 H510 0.950 . S
C517 C514 1.387 . S
C518 C519 1.387 . S
C518 H522 0.950 . S
C518 C527 1.390 1_546 S
C519 C518 1.387 . S
C519 C521 1.387 . S
H520 C527 0.950 . S
C521 C519 1.387 . S
C521 C523 1.390 1_546 S
C521 H525 0.950 . S
H522 C518 0.950 . S
C523 C521 1.390 1_564 S
C523 C524 1.387 . S
C523 H526 0.950 . S
C524 C523 1.387 . S
C524 C527 1.387 . S
H525 C521 0.950 . S
H526 C523 0.950 . S
C527 C518 1.390 1_564 S
C527 H520 0.950 . S
C527 C524 1.387 . S
C528 C529 1.387 . S
C528 H532 0.950 . S
C528 C537 1.390 . S
C529 C528 1.387 . S
C529 C531 1.387 . S
H530 C537 0.950 . S
C531 C529 1.387 . S
C531 C533 1.390 . S
C531 H535 0.950 . S
H532 C528 0.950 . S
C533 C531 1.390 . S
C533 C534 1.387 . S
C533 H536 0.950 . S
C534 C533 1.387 . S
C534 C537 1.387 . S
H535 C531 0.950 . S
H536 C533 0.950 . S
C537 C528 1.390 . S
C537 H530 0.950 . S
C537 C534 1.387 . S
C538 C539 1.387 . S
C538 H542 0.950 . S
C538 C547 1.390 1_556 S
C539 C538 1.387 . S
C539 C541 1.387 . S
H540 C547 0.950 . S
C541 C539 1.387 . S
C541 C543 1.390 1_556 S
C541 H545 0.950 . S
H542 C538 0.950 . S
C543 C541 1.390 1_554 S
C543 C544 1.387 . S
C543 H546 0.950 . S
C544 C543 1.387 . S
C544 C547 1.387 . S
H545 C541 0.950 . S
H546 C543 0.950 . S
C547 C538 1.390 1_554 S
C547 H540 0.950 . S
C547 C544 1.387 . S
C548 C549 1.387 . S
C548 H552 0.950 . S
C548 C557 1.390 . S
C549 C548 1.387 . S
C549 C551 1.387 . S
H550 C557 0.950 . S
C551 C549 1.387 . S
C551 C553 1.390 . S
C551 H555 0.950 . S
H552 C548 0.950 . S
C553 C551 1.390 . S
C553 C554 1.387 . S
C553 H556 0.950 . S
C554 C553 1.387 . S
C554 C557 1.387 . S
H555 C551 0.950 . S
H556 C553 0.950 . S
C557 C548 1.390 . S
C557 H550 0.950 . S
C557 C554 1.387 . S
C558 C559 1.387 . S
C558 H562 0.950 . S
C558 C567 1.390 . S
C559 C558 1.387 . S
C559 C561 1.387 . S
H560 C567 0.950 . S
C561 C559 1.387 . S
C561 C563 1.390 . S
C561 H565 0.950 . S
H562 C558 0.950 . S
C563 C561 1.390 . S
C563 C564 1.387 . S
C563 H566 0.950 . S
C564 C563 1.387 . S
C564 C567 1.387 . S
H565 C561 0.950 . S
H566 C563 0.950 . S
C567 C558 1.390 . S
C567 H560 0.950 . S
C567 C564 1.387 . S
C568 C569 1.387 . S
C568 H572 0.950 . S
C568 C577 1.390 . S
C569 C568 1.387 . S
C569 C571 1.387 . S
H570 C577 0.950 . S
C571 C569 1.387 . S
C571 C573 1.390 . S
C571 H575 0.950 . S
H572 C568 0.950 . S
C573 C571 1.390 . S
C573 C574 1.387 . S
C573 H576 0.950 . S
C574 C573 1.387 . S
C574 C577 1.387 . S
H575 C571 0.950 . S
H576 C573 0.950 . S
C577 C568 1.390 . S
C577 H570 0.950 . S
C577 C574 1.387 . S
C578 C579 1.387 . S
C578 H582 0.950 . S
C578 C587 1.390 1_554 S
C579 C578 1.387 . S
C579 C581 1.387 . S
H580 C587 0.950 . S
C581 C579 1.387 . S
C581 C583 1.390 1_554 S
C581 H585 0.950 . S
H582 C578 0.950 . S
C583 C581 1.390 1_556 S
C583 C584 1.387 . S
C583 H586 0.950 . S
C584 C583 1.387 . S
C584 C587 1.387 . S
H585 C581 0.950 . S
H586 C583 0.950 . S
C587 C578 1.390 1_556 S
C587 H580 0.950 . S
C587 C584 1.387 . S
C588 C589 1.387 . S
C588 H592 0.950 . S
C588 C597 1.390 . S
C589 C588 1.387 . S
C589 C591 1.387 . S
H590 C597 0.950 . S
C591 C589 1.387 . S
C591 C593 1.390 . S
C591 H595 0.950 . S
H592 C588 0.950 . S
C593 C591 1.390 . S
C593 C594 1.387 . S
C593 H596 0.950 . S
C594 C593 1.387 . S
C594 C597 1.387 . S
H595 C591 0.950 . S
H596 C593 0.950 . S
C597 C588 1.390 . S
C597 H590 0.950 . S
C597 C594 1.387 . S
C598 C599 1.387 . S
C598 H602 0.950 . S
C598 C607 1.390 . S
C599 C598 1.387 . S
C599 C601 1.387 . S
H600 C607 0.950 . S
C601 C599 1.387 . S
C601 C603 1.390 . S
C601 H605 0.950 . S
H602 C598 0.950 . S
C603 C601 1.390 . S
C603 C604 1.387 . S
C603 H606 0.950 . S
C604 C603 1.387 . S
C604 C607 1.387 . S
H605 C601 0.950 . S
H606 C603 0.950 . S
C607 C598 1.390 . S
C607 H600 0.950 . S
C607 C604 1.387 . S
C608 C609 1.387 . S
C608 H612 0.950 . S
C608 C617 1.390 . S
C609 C608 1.387 . S
C609 C611 1.387 . S
H610 C617 0.950 . S
C611 C609 1.387 . S
C611 C613 1.390 . S
C611 H615 0.950 . S
H612 C608 0.950 . S
C613 C611 1.390 . S
C613 C614 1.387 . S
C613 H616 0.950 . S
C614 C613 1.387 . S
C614 C617 1.387 . S
H615 C611 0.950 . S
H616 C613 0.950 . S
C617 C608 1.390 . S
C617 H610 0.950 . S
C617 C614 1.387 . S
C618 C619 1.387 . S
C618 H622 0.950 . S
C618 C627 1.390 . S
C619 C618 1.387 . S
C619 C621 1.387 . S
H620 C627 0.950 . S
C621 C619 1.387 . S
C621 C623 1.390 . S
C621 H625 0.950 . S
H622 C618 0.950 . S
C623 C621 1.390 . S
C623 C624 1.387 . S
C623 H626 0.950 . S
C624 C623 1.387 . S
C624 C627 1.387 . S
H625 C621 0.950 . S
H626 C623 0.950 . S
C627 C618 1.390 . S
C627 H620 0.950 . S
C627 C624 1.387 . S
C628 C629 1.387 . S
C628 H632 0.950 . S
C628 C637 1.390 . S
C629 C628 1.387 . S
C629 C631 1.387 . S
H630 C637 0.950 . S
C631 C629 1.387 . S
C631 C633 1.390 . S
C631 H635 0.950 . S
H632 C628 0.950 . S
C633 C631 1.390 . S
C633 C634 1.387 . S
C633 H636 0.950 . S
C634 C633 1.387 . S
C634 C637 1.387 . S
H635 C631 0.950 . S
H636 C633 0.950 . S
C637 C628 1.390 . S
C637 H630 0.950 . S
C637 C634 1.387 . S
C638 C639 1.387 . S
C638 H642 0.950 . S
C638 C647 1.390 . S
C639 C638 1.387 . S
C639 C641 1.387 . S
H640 C647 0.950 . S
C641 C639 1.387 . S
C641 C643 1.390 . S
C641 H645 0.950 . S
H642 C638 0.950 . S
C643 C641 1.390 . S
C643 C644 1.387 . S
C643 H646 0.950 . S
C644 C643 1.387 . S
C644 C647 1.387 . S
H645 C641 0.950 . S
H646 C643 0.950 . S
C647 C638 1.390 . S
C647 H640 0.950 . S
C647 C644 1.387 . S
C648 C649 1.387 . S
C648 H652 0.950 . S
C648 C657 1.390 . S
C649 C648 1.387 . S
C649 C651 1.387 . S
H650 C657 0.950 . S
C651 C649 1.387 . S
C651 C653 1.390 . S
C651 H655 0.950 . S
H652 C648 0.950 . S
C653 C651 1.390 . S
C653 C654 1.387 . S
C653 H656 0.950 . S
C654 C653 1.387 . S
C654 C657 1.387 . S
H655 C651 0.950 . S
H656 C653 0.950 . S
C657 C648 1.390 . S
C657 H650 0.950 . S
C657 C654 1.387 . S
C658 C659 1.387 . S
C658 H662 0.950 . S
C658 C667 1.390 . S
C659 C658 1.387 . S
C659 C661 1.387 . S
H660 C667 0.950 . S
C661 C659 1.387 . S
C661 C663 1.390 . S
C661 H665 0.950 . S
H662 C658 0.950 . S
C663 C661 1.390 . S
C663 C664 1.387 . S
C663 H666 0.950 . S
C664 C663 1.387 . S
C664 C667 1.387 . S
H665 C661 0.950 . S
H666 C663 0.950 . S
C667 C658 1.390 . S
C667 H660 0.950 . S
C667 C664 1.387 . S
C668 C669 1.387 . S
C668 H672 0.950 . S
C668 C677 1.390 . S
C669 C668 1.387 . S
C669 C671 1.387 . S
H670 C677 0.950 . S
C671 C669 1.387 . S
C671 C673 1.390 . S
C671 H675 0.950 . S
H672 C668 0.950 . S
C673 C671 1.390 . S
C673 C674 1.387 . S
C673 H676 0.950 . S
C674 C673 1.387 . S
C674 C677 1.387 . S
H675 C671 0.950 . S
H676 C673 0.950 . S
C677 C668 1.390 . S
C677 H670 0.950 . S
C677 C674 1.387 . S
C678 C679 1.387 . S
C678 H682 0.950 . S
C678 C687 1.390 . S
C679 C678 1.387 . S
C679 C681 1.387 . S
H680 C687 0.950 . S
C681 C679 1.387 . S
C681 C683 1.390 . S
C681 H685 0.950 . S
H682 C678 0.950 . S
C683 C681 1.390 . S
C683 C684 1.387 . S
C683 H686 0.950 . S
C684 C683 1.387 . S
C684 C687 1.387 . S
H685 C681 0.950 . S
H686 C683 0.950 . S
C687 C678 1.390 . S
C687 H680 0.950 . S
C687 C684 1.387 . S
C688 C689 1.387 . S
C688 H692 0.950 . S
C688 C697 1.390 . S
C689 C688 1.387 . S
C689 C691 1.387 . S
H690 C697 0.950 . S
C691 C689 1.387 . S
C691 C693 1.390 . S
C691 H695 0.950 . S
H692 C688 0.950 . S
C693 C691 1.390 . S
C693 C694 1.387 . S
C693 H696 0.950 . S
C694 C693 1.387 . S
C694 C697 1.387 . S
H695 C691 0.950 . S
H696 C693 0.950 . S
C697 C688 1.390 . S
C697 H690 0.950 . S
C697 C694 1.387 . S
C698 C699 1.387 . S
C698 H702 0.950 . S
C698 C707 1.390 . S
C699 C698 1.387 . S
C699 C701 1.387 . S
H700 C707 0.950 . S
C701 C699 1.387 . S
C701 C703 1.390 . S
C701 H705 0.950 . S
H702 C698 0.950 . S
C703 C701 1.390 . S
C703 C704 1.387 . S
C703 H706 0.950 . S
C704 C703 1.387 . S
C704 C707 1.387 . S
H705 C701 0.950 . S
H706 C703 0.950 . S
C707 C698 1.390 . S
C707 H700 0.950 . S
C707 C704 1.387 . S
C708 C709 1.387 . S
C708 H712 0.950 . S
C708 C717 1.390 . S
C709 C708 1.387 . S
C709 C711 1.387 . S
H710 C717 0.950 . S
C711 C709 1.387 . S
C711 C713 1.390 . S
C711 H715 0.950 . S
H712 C708 0.950 . S
C713 C711 1.390 . S
C713 C714 1.387 . S
C713 H716 0.950 . S
C714 C713 1.387 . S
C714 C717 1.387 . S
H715 C711 0.950 . S
H716 C713 0.950 . S
C717 C708 1.390 . S
C717 H710 0.950 . S
C717 C714 1.387 . S
C718 C719 1.387 . S
C718 H722 0.950 . S
C718 C727 1.390 . S
C719 C718 1.387 . S
C719 C721 1.387 . S
H720 C727 0.950 . S
C721 C719 1.387 . S
C721 C723 1.390 . S
C721 H725 0.950 . S
H722 C718 0.950 . S
C723 C721 1.390 . S
C723 C724 1.387 . S
C723 H726 0.950 . S
C724 C723 1.387 . S
C724 C727 1.387 . S
H725 C721 0.950 . S
H726 C723 0.950 . S
C727 C718 1.390 . S
C727 H720 0.950 . S
C727 C724 1.387 . S
C728 C729 1.387 . S
C728 H732 0.950 . S
C728 C737 1.390 . S
C729 C728 1.387 . S
C729 C731 1.387 . S
H730 C737 0.950 . S
C731 C729 1.387 . S
C731 C733 1.390 . S
C731 H735 0.950 . S
H732 C728 0.950 . S
C733 C731 1.390 . S
C733 C734 1.387 . S
C733 H736 0.950 . S
C734 C733 1.387 . S
C734 C737 1.387 . S
H735 C731 0.950 . S
H736 C733 0.950 . S
C737 C728 1.390 . S
C737 H730 0.950 . S
C737 C734 1.387 . S
C738 C739 1.387 . S
C738 H742 0.950 . S
C738 C747 1.390 . S
C739 C738 1.387 . S
C739 C741 1.387 . S
H740 C747 0.950 . S
C741 C739 1.387 . S
C741 C743 1.390 . S
C741 H745 0.950 . S
H742 C738 0.950 . S
C743 C741 1.390 . S
C743 C744 1.387 . S
C743 H746 0.950 . S
C744 C743 1.387 . S
C744 C747 1.387 . S
H745 C741 0.950 . S
H746 C743 0.950 . S
C747 C738 1.390 . S
C747 H740 0.950 . S
C747 C744 1.387 . S
C748 C749 1.387 . S
C748 H752 0.950 . S
C748 C757 1.390 . S
C749 C748 1.387 . S
C749 C751 1.387 . S
H750 C757 0.950 . S
C751 C749 1.387 . S
C751 C753 1.390 . S
C751 H755 0.950 . S
H752 C748 0.950 . S
C753 C751 1.390 . S
C753 C754 1.387 . S
C753 H756 0.950 . S
C754 C753 1.387 . S
C754 C757 1.387 . S
H755 C751 0.950 . S
H756 C753 0.950 . S
C757 C748 1.390 . S
C757 H750 0.950 . S
C757 C754 1.387 . S
C758 C759 1.387 . S
C758 H762 0.950 . S
C758 C767 1.390 . S
C759 C758 1.387 . S
C759 C761 1.387 . S
H760 C767 0.950 . S
C761 C759 1.387 . S
C761 C763 1.390 . S
C761 H765 0.950 . S
H762 C758 0.950 . S
C763 C761 1.390 . S
C763 C764 1.387 . S
C763 H766 0.950 . S
C764 C763 1.387 . S
C764 C767 1.387 . S
H765 C761 0.950 . S
H766 C763 0.950 . S
C767 C758 1.390 . S
C767 H760 0.950 . S
C767 C764 1.387 . S
C768 C769 1.387 . S
C768 H772 0.950 . S
C768 C777 1.390 . S
C769 C768 1.387 . S
C769 C771 1.387 . S
H770 C777 0.950 . S
C771 C769 1.387 . S
C771 C773 1.390 . S
C771 H775 0.950 . S
H772 C768 0.950 . S
C773 C771 1.390 . S
C773 C774 1.387 . S
C773 H776 0.950 . S
C774 C773 1.387 . S
C774 C777 1.387 . S
H775 C771 0.950 . S
H776 C773 0.950 . S
C777 C768 1.390 . S
C777 H770 0.950 . S
C777 C774 1.387 . S
C778 C779 1.387 . S
C778 H782 0.950 . S
C778 C787 1.390 1_655 S
C779 C778 1.387 . S
C779 C781 1.387 . S
H780 C787 0.950 . S
C781 C779 1.387 . S
C781 C783 1.390 1_655 S
C781 H785 0.950 . S
H782 C778 0.950 . S
C783 C781 1.390 1_455 S
C783 C784 1.387 . S
C783 H786 0.950 . S
C784 C783 1.387 . S
C784 C787 1.387 . S
H785 C781 0.950 . S
H786 C783 0.950 . S
C787 C778 1.390 1_455 S
C787 H780 0.950 . S
C787 C784 1.387 . S
C788 C789 1.387 . S
C788 H792 0.950 . S
C788 C797 1.390 . S
C789 C788 1.387 . S
C789 C791 1.387 . S
H790 C797 0.950 . S
C791 C789 1.387 . S
C791 C793 1.390 . S
C791 H795 0.950 . S
H792 C788 0.950 . S
C793 C791 1.390 . S
C793 C794 1.387 . S
C793 H796 0.950 . S
C794 C793 1.387 . S
C794 C797 1.387 . S
H795 C791 0.950 . S
H796 C793 0.950 . S
C797 C788 1.390 . S
C797 H790 0.950 . S
C797 C794 1.387 . S
C798 C799 1.387 . S
C798 H802 0.950 . S
C798 C807 1.390 . S
C799 C798 1.387 . S
C799 C801 1.387 . S
H800 C807 0.950 . S
C801 C799 1.387 . S
C801 C803 1.390 . S
C801 H805 0.950 . S
H802 C798 0.950 . S
C803 C801 1.390 . S
C803 C804 1.387 . S
C803 H806 0.950 . S
C804 C803 1.387 . S
C804 C807 1.387 . S
H805 C801 0.950 . S
H806 C803 0.950 . S
C807 C798 1.390 . S
C807 H800 0.950 . S
C807 C804 1.387 . S
C808 C809 1.387 . S
C808 H812 0.950 . S
C808 C817 1.390 . S
C809 C808 1.387 . S
C809 C811 1.387 . S
H810 C817 0.950 . S
C811 C809 1.387 . S
C811 C813 1.390 . S
C811 H815 0.950 . S
H812 C808 0.950 . S
C813 C811 1.390 . S
C813 C814 1.387 . S
C813 H816 0.950 . S
C814 C813 1.387 . S
C814 C817 1.387 . S
H815 C811 0.950 . S
H816 C813 0.950 . S
C817 C808 1.390 . S
C817 H810 0.950 . S
C817 C814 1.387 . S
C818 C819 1.387 . S
C818 H822 0.950 . S
C818 C827 1.390 . S
C819 C818 1.387 . S
C819 C821 1.387 . S
H820 C827 0.950 . S
C821 C819 1.387 . S
C821 C823 1.390 . S
C821 H825 0.950 . S
H822 C818 0.950 . S
C823 C821 1.390 . S
C823 C824 1.387 . S
C823 H826 0.950 . S
C824 C823 1.387 . S
C824 C827 1.387 . S
H825 C821 0.950 . S
H826 C823 0.950 . S
C827 C818 1.390 . S
C827 H820 0.950 . S
C827 C824 1.387 . S
C828 C829 1.387 . S
C828 H832 0.950 . S
C828 C837 1.390 . S
C829 C828 1.387 . S
C829 C831 1.387 . S
H830 C837 0.950 . S
C831 C829 1.387 . S
C831 C833 1.390 . S
C831 H835 0.950 . S
H832 C828 0.950 . S
C833 C831 1.390 . S
C833 C834 1.387 . S
C833 H836 0.950 . S
C834 C833 1.387 . S
C834 C837 1.387 . S
H835 C831 0.950 . S
H836 C833 0.950 . S
C837 C828 1.390 . S
C837 H830 0.950 . S
C837 C834 1.387 . S
C838 C839 1.387 . S
C838 H842 0.950 . S
C838 C847 1.390 1_655 S
C839 C838 1.387 . S
C839 C841 1.387 . S
H840 C847 0.950 . S
C841 C839 1.387 . S
C841 C843 1.390 1_655 S
C841 H845 0.950 . S
H842 C838 0.950 . S
C843 C841 1.390 1_455 S
C843 C844 1.387 . S
C843 H846 0.950 . S
C844 C843 1.387 . S
C844 C847 1.387 . S
H845 C841 0.950 . S
H846 C843 0.950 . S
C847 C838 1.390 1_455 S
C847 H840 0.950 . S
C847 C844 1.387 . S
C848 C849 1.387 . S
C848 H852 0.950 . S
C848 C857 1.390 . S
C849 C848 1.387 . S
C849 C851 1.387 . S
H850 C857 0.950 . S
C851 C849 1.387 . S
C851 C853 1.390 . S
C851 H855 0.950 . S
H852 C848 0.950 . S
C853 C851 1.390 . S
C853 C854 1.387 . S
C853 H856 0.950 . S
C854 C853 1.387 . S
C854 C857 1.387 . S
H855 C851 0.950 . S
H856 C853 0.950 . S
C857 C848 1.390 . S
C857 H850 0.950 . S
C857 C854 1.387 . S
C858 C859 1.387 . S
C858 H862 0.950 . S
C858 C867 1.390 . S
C859 C858 1.387 . S
C859 C861 1.387 . S
H860 C867 0.950 . S
C861 C859 1.387 . S
C861 C863 1.390 . S
C861 H865 0.950 . S
H862 C858 0.950 . S
C863 C861 1.390 . S
C863 C864 1.387 . S
C863 H866 0.950 . S
C864 C863 1.387 . S
C864 C867 1.387 . S
H865 C861 0.950 . S
H866 C863 0.950 . S
C867 C858 1.390 . S
C867 H860 0.950 . S
C867 C864 1.387 . S
C868 C869 1.387 . S
C868 H872 0.950 . S
C868 C877 1.390 . S
C869 C868 1.387 . S
C869 C871 1.387 . S
H870 C877 0.950 . S
C871 C869 1.387 . S
C871 C873 1.390 . S
C871 H875 0.950 . S
H872 C868 0.950 . S
C873 C871 1.390 . S
C873 C874 1.387 . S
C873 H876 0.950 . S
C874 C873 1.387 . S
C874 C877 1.387 . S
H875 C871 0.950 . S
H876 C873 0.950 . S
C877 C868 1.390 . S
C877 H870 0.950 . S
C877 C874 1.387 . S
C878 C879 1.387 . S
C878 H882 0.950 . S
C878 C887 1.390 . S
C879 C878 1.387 . S
C879 C881 1.387 . S
H880 C887 0.950 . S
C881 C879 1.387 . S
C881 C883 1.390 . S
C881 H885 0.950 . S
H882 C878 0.950 . S
C883 C881 1.390 . S
C883 C884 1.387 . S
C883 H886 0.950 . S
C884 C883 1.387 . S
C884 C887 1.387 . S
H885 C881 0.950 . S
H886 C883 0.950 . S
C887 C878 1.390 . S
C887 H880 0.950 . S
C887 C884 1.387 . S
C888 C889 1.387 . S
C888 H892 0.950 . S
C888 C897 1.390 . S
C889 C888 1.387 . S
C889 C891 1.387 . S
H890 C897 0.950 . S
C891 C889 1.387 . S
C891 C893 1.390 . S
C891 H895 0.950 . S
H892 C888 0.950 . S
C893 C891 1.390 . S
C893 C894 1.387 . S
C893 H896 0.950 . S
C894 C893 1.387 . S
C894 C897 1.387 . S
H895 C891 0.950 . S
H896 C893 0.950 . S
C897 C888 1.390 . S
C897 H890 0.950 . S
C897 C894 1.387 . S
C898 C899 1.387 . S
C898 H902 0.950 . S
C898 C907 1.390 1_655 S
C899 C898 1.387 . S
C899 C901 1.387 . S
H900 C907 0.950 . S
C901 C899 1.387 . S
C901 C903 1.390 1_655 S
C901 H905 0.950 . S
H902 C898 0.950 . S
C903 C901 1.390 1_455 S
C903 C904 1.387 . S
C903 H906 0.950 . S
C904 C903 1.387 . S
C904 C907 1.387 . S
H905 C901 0.950 . S
H906 C903 0.950 . S
C907 C898 1.390 1_455 S
C907 H900 0.950 . S
C907 C904 1.387 . S
C908 C909 1.387 . S
C908 H912 0.950 . S
C908 C917 1.390 1_655 S
C909 C908 1.387 . S
C909 C911 1.387 . S
H910 C917 0.950 . S
C911 C909 1.387 . S
C911 C913 1.390 1_655 S
C911 H915 0.950 . S
H912 C908 0.950 . S
C913 C911 1.390 1_455 S
C913 C914 1.387 . S
C913 H916 0.950 . S
C914 C913 1.387 . S
C914 C917 1.387 . S
H915 C911 0.950 . S
H916 C913 0.950 . S
C917 C908 1.390 1_455 S
C917 H910 0.950 . S
C917 C914 1.387 . S
C918 C919 1.387 . S
C918 H922 0.950 . S
C918 C927 1.390 . S
C919 C918 1.387 . S
C919 C921 1.387 . S
H920 C927 0.950 . S
C921 C919 1.387 . S
C921 C923 1.390 . S
C921 H925 0.950 . S
H922 C918 0.950 . S
C923 C921 1.390 . S
C923 C924 1.387 . S
C923 H926 0.950 . S
C924 C923 1.387 . S
C924 C927 1.387 . S
H925 C921 0.950 . S
H926 C923 0.950 . S
C927 C918 1.390 . S
C927 H920 0.950 . S
C927 C924 1.387 . S
C928 C929 1.387 . S
C928 H932 0.950 . S
C928 C937 1.390 . S
C929 C928 1.387 . S
C929 C931 1.387 . S
H930 C937 0.950 . S
C931 C929 1.387 . S
C931 C933 1.390 . S
C931 H935 0.950 . S
H932 C928 0.950 . S
C933 C931 1.390 . S
C933 C934 1.387 . S
C933 H936 0.950 . S
C934 C933 1.387 . S
C934 C937 1.387 . S
H935 C931 0.950 . S
H936 C933 0.950 . S
C937 C928 1.390 . S
C937 H930 0.950 . S
C937 C934 1.387 . S
C938 C939 1.387 . S
C938 H942 0.950 . S
C938 C947 1.390 . S
C939 C938 1.387 . S
C939 C941 1.387 . S
H940 C947 0.950 . S
C941 C939 1.387 . S
C941 C943 1.390 . S
C941 H945 0.950 . S
H942 C938 0.950 . S
C943 C941 1.390 . S
C943 C944 1.387 . S
C943 H946 0.950 . S
C944 C943 1.387 . S
C944 C947 1.387 . S
H945 C941 0.950 . S
H946 C943 0.950 . S
C947 C938 1.390 . S
C947 H940 0.950 . S
C947 C944 1.387 . S
C948 C949 1.387 . S
C948 H952 0.950 . S
C948 C957 1.390 . S
C949 C948 1.387 . S
C949 C951 1.387 . S
H950 C957 0.950 . S
C951 C949 1.387 . S
C951 C953 1.390 . S
C951 H955 0.950 . S
H952 C948 0.950 . S
C953 C951 1.390 . S
C953 C954 1.387 . S
C953 H956 0.950 . S
C954 C953 1.387 . S
C954 C957 1.387 . S
H955 C951 0.950 . S
H956 C953 0.950 . S
C957 C948 1.390 . S
C957 H950 0.950 . S
C957 C954 1.387 . S
C958 C959 1.387 . S
C958 H962 0.950 . S
C958 C967 1.390 . S
C959 C958 1.387 . S
C959 C961 1.387 . S
H960 C967 0.950 . S
C961 C959 1.387 . S
C961 C963 1.390 . S
C961 H965 0.950 . S
H962 C958 0.950 . S
C963 C961 1.390 . S
C963 C964 1.387 . S
C963 H966 0.950 . S
C964 C963 1.387 . S
C964 C967 1.387 . S
H965 C961 0.950 . S
H966 C963 0.950 . S
C967 C958 1.390 . S
C967 H960 0.950 . S
C967 C964 1.387 . S
C968 C969 1.387 . S
C968 H972 0.950 . S
C968 C977 1.390 . S
C969 C968 1.387 . S
C969 C971 1.387 . S
H970 C977 0.950 . S
C971 C969 1.387 . S
C971 C973 1.390 . S
C971 H975 0.950 . S
H972 C968 0.950 . S
C973 C971 1.390 . S
C973 C974 1.387 . S
C973 H976 0.950 . S
C974 C973 1.387 . S
C974 C977 1.387 . S
H975 C971 0.950 . S
H976 C973 0.950 . S
C977 C968 1.390 . S
C977 H970 0.950 . S
C977 C974 1.387 . S
C978 C979 1.387 . S
C978 H982 0.950 . S
C978 C987 1.390 . S
C979 C978 1.387 . S
C979 C981 1.387 . S
H980 C987 0.950 . S
C981 C979 1.387 . S
C981 C983 1.390 . S
C981 H985 0.950 . S
H982 C978 0.950 . S
C983 C981 1.390 . S
C983 C984 1.387 . S
C983 H986 0.950 . S
C984 C983 1.387 . S
C984 C987 1.387 . S
H985 C981 0.950 . S
H986 C983 0.950 . S
C987 C978 1.390 . S
C987 H980 0.950 . S
C987 C984 1.387 . S
C988 C989 1.387 . S
C988 H992 0.950 . S
C988 C997 1.390 . S
C989 C988 1.387 . S
C989 C991 1.387 . S
H990 C997 0.950 . S
C991 C989 1.387 . S
C991 C993 1.390 . S
C991 H995 0.950 . S
H992 C988 0.950 . S
C993 C991 1.390 . S
C993 C994 1.387 . S
C993 H996 0.950 . S
C994 C993 1.387 . S
C994 C997 1.387 . S
H995 C991 0.950 . S
H996 C993 0.950 . S
C997 C988 1.390 . S
C997 H990 0.950 . S
C997 C994 1.387 . S
C998 C999 1.387 . S
C998 H1002 0.950 . S
C998 C1007 1.390 . S
C999 C998 1.387 . S
C999 C1001 1.387 . S
H1000 C1007 0.950 . S
C1001 C999 1.387 . S
C1001 C1003 1.390 . S
C1001 H1005 0.950 . S
H1002 C998 0.950 . S
C1003 C1001 1.390 . S
C1003 C1004 1.387 . S
C1003 H1006 0.950 . S
C1004 C1003 1.387 . S
C1004 C1007 1.387 . S
H1005 C1001 0.950 . S
H1006 C1003 0.950 . S
C1007 C998 1.390 . S
C1007 H1000 0.950 . S
C1007 C1004 1.387 . S
C1008 C1009 1.387 . S
C1008 H1012 0.950 . S
C1008 C1017 1.390 . S
C1009 C1008 1.387 . S
C1009 C1011 1.387 . S
H1010 C1017 0.950 . S
C1011 C1009 1.387 . S
C1011 C1013 1.390 . S
C1011 H1015 0.950 . S
H1012 C1008 0.950 . S
C1013 C1011 1.390 . S
C1013 C1014 1.387 . S
C1013 H1016 0.950 . S
C1014 C1013 1.387 . S
C1014 C1017 1.387 . S
H1015 C1011 0.950 . S
H1016 C1013 0.950 . S
C1017 C1008 1.390 . S
C1017 H1010 0.950 . S
C1017 C1014 1.387 . S
C1018 C1019 1.387 . S
C1018 H1022 0.950 . S
C1018 C1027 1.390 . S
C1019 C1018 1.387 . S
C1019 C1021 1.387 . S
H1020 C1027 0.950 . S
C1021 C1019 1.387 . S
C1021 C1023 1.390 . S
C1021 H1025 0.950 . S
H1022 C1018 0.950 . S
C1023 C1021 1.390 . S
C1023 C1024 1.387 . S
C1023 H1026 0.950 . S
C1024 C1023 1.387 . S
C1024 C1027 1.387 . S
H1025 C1021 0.950 . S
H1026 C1023 0.950 . S
C1027 C1018 1.390 . S
C1027 H1020 0.950 . S
C1027 C1024 1.387 . S
C1028 C1029 1.387 . S
C1028 H1032 0.950 . S
C1028 C1037 1.390 . S
C1029 C1028 1.387 . S
C1029 C1031 1.387 . S
H1030 C1037 0.950 . S
C1031 C1029 1.387 . S
C1031 C1033 1.390 . S
C1031 H1035 0.950 . S
H1032 C1028 0.950 . S
C1033 C1031 1.390 . S
C1033 C1034 1.387 . S
C1033 H1036 0.950 . S
C1034 C1033 1.387 . S
C1034 C1037 1.387 . S
H1035 C1031 0.950 . S
H1036 C1033 0.950 . S
C1037 C1028 1.390 . S
C1037 H1030 0.950 . S
C1037 C1034 1.387 . S
C1038 C1039 1.387 . S
C1038 H1042 0.950 . S
C1038 C1047 1.390 . S
C1039 C1038 1.387 . S
C1039 C1041 1.387 . S
H1040 C1047 0.950 . S
C1041 C1039 1.387 . S
C1041 C1043 1.390 . S
C1041 H1045 0.950 . S
H1042 C1038 0.950 . S
C1043 C1041 1.390 . S
C1043 C1044 1.387 . S
C1043 H1046 0.950 . S
C1044 C1043 1.387 . S
C1044 C1047 1.387 . S
H1045 C1041 0.950 . S
H1046 C1043 0.950 . S
C1047 C1038 1.390 . S
C1047 H1040 0.950 . S
C1047 C1044 1.387 . S
C1048 C1049 1.387 . S
C1048 H1052 0.950 . S
C1048 C1057 1.390 . S
C1049 C1048 1.387 . S
C1049 C1051 1.387 . S
H1050 C1057 0.950 . S
C1051 C1049 1.387 . S
C1051 C1053 1.390 . S
C1051 H1055 0.950 . S
H1052 C1048 0.950 . S
C1053 C1051 1.390 . S
C1053 C1054 1.387 . S
C1053 H1056 0.950 . S
C1054 C1053 1.387 . S
C1054 C1057 1.387 . S
H1055 C1051 0.950 . S
H1056 C1053 0.950 . S
C1057 C1048 1.390 . S
C1057 H1050 0.950 . S
C1057 C1054 1.387 . S
C1058 C1059 1.387 . S
C1058 H1062 0.950 . S
C1058 C1067 1.390 . S
C1059 C1058 1.387 . S
C1059 C1061 1.387 . S
H1060 C1067 0.950 . S
C1061 C1059 1.387 . S
C1061 C1063 1.390 . S
C1061 H1065 0.950 . S
H1062 C1058 0.950 . S
C1063 C1061 1.390 . S
C1063 C1064 1.387 . S
C1063 H1066 0.950 . S
C1064 C1063 1.387 . S
C1064 C1067 1.387 . S
H1065 C1061 0.950 . S
H1066 C1063 0.950 . S
C1067 C1058 1.390 . S
C1067 H1060 0.950 . S
C1067 C1064 1.387 . S
C1068 C1069 1.387 . S
C1068 H1072 0.950 . S
C1068 C1077 1.390 . S
C1069 C1068 1.387 . S
C1069 C1071 1.387 . S
H1070 C1077 0.950 . S
C1071 C1069 1.387 . S
C1071 C1073 1.390 . S
C1071 H1075 0.950 . S
H1072 C1068 0.950 . S
C1073 C1071 1.390 . S
C1073 C1074 1.387 . S
C1073 H1076 0.950 . S
C1074 C1073 1.387 . S
C1074 C1077 1.387 . S
H1075 C1071 0.950 . S
H1076 C1073 0.950 . S
C1077 C1068 1.390 . S
C1077 H1070 0.950 . S
C1077 C1074 1.387 . S
C1078 C1079 1.387 . S
C1078 H1082 0.950 . S
C1078 C1087 1.390 . S
C1079 C1078 1.387 . S
C1079 C1081 1.387 . S
H1080 C1087 0.950 . S
C1081 C1079 1.387 . S
C1081 C1083 1.390 . S
C1081 H1085 0.950 . S
H1082 C1078 0.950 . S
C1083 C1081 1.390 . S
C1083 C1084 1.387 . S
C1083 H1086 0.950 . S
C1084 C1083 1.387 . S
C1084 C1087 1.387 . S
H1085 C1081 0.950 . S
H1086 C1083 0.950 . S
C1087 C1078 1.390 . S
C1087 H1080 0.950 . S
C1087 C1084 1.387 . S
C449 C93 1.387 . S
C454 C9 1.387 . S
C459 C23 1.386 . S
C464 C107 1.386 . S
C469 C65 1.387 . S
C474 C37 1.387 . S
C479 C51 1.386 . S
C484 C79 1.386 . S
C489 C121 1.387 . S
C494 C205 1.387 . S
C499 C219 1.386 . S
C504 C135 1.386 . S
C509 C149 1.387 . S
C514 C177 1.387 . S
C519 C191 1.386 . S
C524 C163 1.386 . S
C529 C233 1.387 . S
C534 C317 1.387 . S
C539 C247 1.386 . S
C544 C331 1.386 . S
C549 C289 1.387 . S
C554 C261 1.387 . S
C559 C303 1.386 . S
C564 C275 1.386 . S
C569 C345 1.387 . S
C574 C429 1.387 . S
C579 C359 1.386 . S
C584 C443 1.386 . S
C589 C401 1.387 . S
C594 C373 1.387 . S
C599 C387 1.386 . S
C604 C415 1.386 . S
C609 C6 1.345 . S
C614 C104 1.343 . S
C619 C62 1.345 . S
C624 C20 1.342 . S
C629 C76 1.343 . S
C634 C34 1.344 . S
C639 C48 1.342 . S
C644 C90 1.345 . S
C649 C118 1.343 . S
C654 C216 1.344 . S
C659 C174 1.343 . S
C664 C132 1.345 . S
C669 C188 1.342 . S
C674 C146 1.345 . S
C679 C202 1.343 . S
C684 C160 1.345 . S
C689 C230 1.345 . S
C694 C328 1.342 . S
C699 C244 1.344 . S
C704 C286 1.343 . S
C709 C300 1.344 . S
C714 C258 1.344 . S
C719 C272 1.342 . S
C724 C314 1.345 . S
C729 C342 1.342 . S
C734 C440 1.345 . S
C739 C398 1.345 . S
C744 C356 1.342 . S
C749 C370 1.342 . S
C754 C412 1.345 . S
C759 C384 1.344 . S
C764 C426 1.343 . S
C769 C427 1.563 . S
C774 C7 1.562 . S
C779 C217 1.562 . S
C784 C21 1.564 . S
C789 C35 1.563 . S
C794 C399 1.561 . S
C799 C49 1.563 . S
C804 C189 1.562 . S
C809 C63 1.563 . S
C814 C371 1.562 . S
C819 C77 1.564 . S
C824 C161 1.562 . S
C829 C91 1.563 . S
C834 C343 1.562 . S
C839 C133 1.564 . S
C844 C105 1.561 . S
C849 C315 1.564 . S
C854 C119 1.561 . S
C859 C147 1.563 . S
C864 C287 1.562 . S
C869 C259 1.561 . S
C874 C175 1.564 . S
C879 C231 1.562 . S
C884 C203 1.563 . S
C889 C245 1.561 . S
C894 C441 1.564 . S
C899 C273 1.563 . S
C904 C413 1.562 . S
C909 C301 1.564 . S
C914 C385 1.562 . S
C919 C357 1.563 . S
C924 C329 1.562 . S
C929 C8 1.955 . S
C934 C106 1.955 . S
C939 C22 1.955 . S
C944 C64 1.955 . S
C949 C78 1.954 1_556 S
C954 C36 1.954 . S
C959 C50 1.955 1_554 S
C964 C92 1.955 . S
C969 C218 1.955 . S
C974 C120 1.954 . S
C979 C176 1.954 . S
C984 C134 1.954 . S
C989 C148 1.955 . S
C994 C190 1.955 1_554 S
C999 C204 1.954 . S
C1004 C162 1.954 1_556 S
C1009 C330 1.955 1_556 S
C1014 C232 1.955 . S
C1019 C288 1.954 . S
C1024 C246 1.954 1_554 S
C1029 C302 1.955 . S
C1034 C260 1.955 . S
C1039 C316 1.955 . S
C1044 C274 1.955 . S
C1049 C344 1.954 . S
C1054 C442 1.954 1_554 S
C1059 C358 1.955 1_556 S
C1064 C400 1.955 . S
C1069 C372 1.955 . S
C1074 C414 1.955 . S
C1079 C428 1.955 . S
C1084 C386 1.955 . S
