# Generated by pormake.
# Topology xfw, (5)-cn, num edge types: 1
# Building blocks:
#     Node 0, Type 0, BuildingBlock: BEQFEK_clean_sbu_0, # of connection points: 5
#     Node 1, Type 0, BuildingBlock: BEQFEK_clean_sbu_0, # of connection points: 5
#     Node 2, Type 0, BuildingBlock: BEQFEK_clean_sbu_0, # of connection points: 5
#     Node 3, Type 0, BuildingBlock: BEQFEK_clean_sbu_0, # of connection points: 5
#     Node 4, Type 0, BuildingBlock: BEQFEK_clean_sbu_0, # of connection points: 5
#     Node 5, Type 0, BuildingBlock: BEQFEK_clean_sbu_0, # of connection points: 5
#     Node 6, Type 0, BuildingBlock: BEQFEK_clean_sbu_0, # of connection points: 5
#     Node 7, Type 0, BuildingBlock: BEQFEK_clean_sbu_0, # of connection points: 5
#     Edge 8, Type (0, 0), BuildingBlock: CIFDUS_clean_linker_0, # of connection points: 2
#     Edge 9, Type (0, 0), BuildingBlock: CIFDUS_clean_linker_0, # of connection points: 2
#     Edge 10, Type (0, 0), BuildingBlock: CIFDUS_clean_linker_0, # of connection points: 2
#     Edge 11, Type (0, 0), BuildingBlock: CIFDUS_clean_linker_0, # of connection points: 2
#     Edge 12, Type (0, 0), BuildingBlock: CIFDUS_clean_linker_0, # of connection points: 2
#     Edge 13, Type (0, 0), BuildingBlock: CIFDUS_clean_linker_0, # of connection points: 2
#     Edge 14, Type (0, 0), BuildingBlock: CIFDUS_clean_linker_0, # of connection points: 2
#     Edge 15, Type (0, 0), BuildingBlock: CIFDUS_clean_linker_0, # of connection points: 2
#     Edge 16, Type (0, 0), BuildingBlock: CIFDUS_clean_linker_0, # of connection points: 2
#     Edge 17, Type (0, 0), BuildingBlock: CIFDUS_clean_linker_0, # of connection points: 2
#     Edge 18, Type (0, 0), BuildingBlock: CIFDUS_clean_linker_0, # of connection points: 2
#     Edge 19, Type (0, 0), BuildingBlock: CIFDUS_clean_linker_0, # of connection points: 2
#     Edge 20, Type (0, 0), BuildingBlock: CIFDUS_clean_linker_0, # of connection points: 2
#     Edge 21, Type (0, 0), BuildingBlock: CIFDUS_clean_linker_0, # of connection points: 2
#     Edge 22, Type (0, 0), BuildingBlock: CIFDUS_clean_linker_0, # of connection points: 2
#     Edge 23, Type (0, 0), BuildingBlock: CIFDUS_clean_linker_0, # of connection points: 2
#     Edge 24, Type (0, 0), BuildingBlock: CIFDUS_clean_linker_0, # of connection points: 2
#     Edge 25, Type (0, 0), BuildingBlock: CIFDUS_clean_linker_0, # of connection points: 2
#     Edge 26, Type (0, 0), BuildingBlock: CIFDUS_clean_linker_0, # of connection points: 2
#     Edge 27, Type (0, 0), BuildingBlock: CIFDUS_clean_linker_0, # of connection points: 2
# Relax obj value: 0.336
# Max RMSD: 0.189
# Mean RMSD: 0.189
data_MOF--net-xfw--node1-BEQFEK_clean_sbu_0--edge1-CIFDUS_clean_linker_0
_symmetry_space_group_name_H-M    P1
_symmetry_Int_Tables_number       1
_symmetry_cell_setting            triclinic
loop_
_symmetry_equiv_pos_as_xyz
'x, y, z'
_cell_length_a     26.111011
_cell_length_b     26.066459
_cell_length_c     55.287771
_cell_angle_alpha  89.925388
_cell_angle_beta   89.995242
_cell_angle_gamma 89.618714
loop_
_atom_site_label
_atom_site_type_symbol
_atom_site_fract_x
_atom_site_fract_y
_atom_site_fract_z
_atom_type_partial_charge
Co0 Co 0.20771 0.02715 0.59043 0.0
Co1 Co 0.21135 0.11989 0.62717 0.0
C2 C 0.12314 0.04425 0.62417 0.0
O3 O 0.14394 0.01618 0.60808 0.0
O4 O 0.14442 0.08477 0.63206 0.0
C5 C 0.19988 0.92909 0.56484 0.0
O6 O 0.17351 0.91337 0.58366 0.0
C7 C 0.22263 0.14832 0.67768 0.0
C8 C 0.22605 0.23289 0.6768 0.0
C9 C 0.22698 0.19116 0.69239 0.0
N10 N 0.21993 0.16387 0.65453 0.0
N11 N 0.2221 0.21451 0.65407 0.0
C12 C 0.21708 0.09359 0.68549 0.0
H13 H 0.20125 0.06994 0.67066 0.0
H14 H 0.25515 0.07767 0.69041 0.0
H15 H 0.192 0.09116 0.70166 0.0
C16 C 0.30316 0.00047 0.6147 0.0
N17 N 0.2618 0.03067 0.61229 0.0
N18 N 0.26672 0.07161 0.62595 0.0
C19 C 0.31317 0.06993 0.63663 0.0
C20 C 0.33765 0.02455 0.62994 0.0
C21 C 0.30899 0.94957 0.60245 0.0
H22 H 0.27227 0.92857 0.60339 0.0
H23 H 0.33942 0.9259 0.61106 0.0
H24 H 0.31849 0.95568 0.5831 0.0
O25 O 0.20322 0.09202 0.57208 0.0
O26 O 0.20606 0.1597 0.59651 0.0
H27 H 0.37819 0.11627 0.64617 0.0
H28 H 0.33168 0.10801 0.6697 0.0
C29 C 0.33654 0.11391 0.64998 0.0
H30 H 0.31792 0.15059 0.64471 0.0
H31 H 0.2202 0.23652 0.63832 0.0
O32 O 0.21852 0.97401 0.56495 0.0
C33 C 0.20313 0.14032 0.57541 0.0
Co34 Co 0.00681 0.75823 0.43523 0.0
Co35 Co 0.1008 0.76509 0.39944 0.0
C36 C 0.02139 0.84816 0.40292 0.0
O37 O -0.00507 0.82333 0.4182 0.0
O38 O 0.06379 0.83108 0.39486 0.0
C39 C 0.9027 0.76144 0.45141 0.0
O40 O 0.89433 0.78004 0.42965 0.0
C41 C 0.14689 0.78074 0.35185 0.0
C42 C 0.2161 0.73164 0.35295 0.0
C43 C 0.1878 0.76374 0.33801 0.0
N44 N 0.1507 0.75987 0.37405 0.0
N45 N 0.19251 0.73097 0.37468 0.0
C46 C 0.10172 0.81145 0.34331 0.0
H47 H 0.06595 0.79523 0.35088 0.0
H48 H 0.09913 0.81195 0.32328 0.0
H49 H 0.10541 0.85147 0.34987 0.0
C50 C 0.98785 0.66407 0.40836 0.0
N51 N 0.01586 0.70601 0.41267 0.0
N52 N 0.05394 0.70849 0.39712 0.0
C53 C 0.05061 0.66794 0.38199 0.0
C54 C 0.00828 0.6389 0.3885 0.0
C55 C 0.94524 0.64635 0.42443 0.0
H56 H 0.95427 0.65518 0.44355 0.0
H57 H 0.90944 0.66689 0.41939 0.0
H58 H 0.93892 0.60447 0.42283 0.0
O59 O 0.06719 0.76401 0.45593 0.0
O60 O 0.13547 0.76935 0.43202 0.0
H61 H 0.12529 0.65043 0.36839 0.0
H62 H 0.07377 0.62473 0.3503 0.0
C63 C 0.08622 0.65793 0.36131 0.0
H64 H 0.08761 0.69224 0.3495 0.0
H65 H 0.20399 0.70941 0.38967 0.0
O66 O 0.94775 0.74721 0.45709 0.0
C67 C 0.11524 0.76843 0.45306 0.0
Co68 Co 0.76785 0.94854 0.58848 0.0
Co69 Co 0.76049 0.85655 0.62595 0.0
C70 C 0.84812 0.93122 0.62547 0.0
O71 O 0.82882 0.95797 0.60849 0.0
O72 O 0.82653 0.89086 0.63334 0.0
C73 C 0.77865 0.05076 0.56971 0.0
O74 O 0.79612 0.0598 0.59157 0.0
C75 C 0.75832 0.81772 0.67546 0.0
C76 C 0.71604 0.74495 0.67241 0.0
C77 C 0.73946 0.77716 0.6889 0.0
N78 N 0.74686 0.80999 0.65205 0.0
N79 N 0.7219 0.76615 0.6503 0.0
C80 C 0.78329 0.86516 0.68489 0.0
H81 H 0.77127 0.89888 0.67395 0.0
H82 H 0.77348 0.87173 0.70417 0.0
H83 H 0.82546 0.86079 0.6833 0.0
C84 C 0.66608 0.97056 0.60729 0.0
N85 N 0.71012 0.94394 0.60812 0.0
N86 N 0.70544 0.90507 0.62318 0.0
C87 C 0.65741 0.90559 0.63221 0.0
C88 C 0.63103 0.94699 0.62232 0.0
C89 C 0.65656 0.01523 0.5908 0.0
H90 H 0.68591 0.04487 0.59414 0.0
H91 H 0.61818 0.03263 0.59375 0.0
H92 H 0.66002 0.0025 0.57172 0.0
O93 O 0.77542 0.88484 0.56968 0.0
O94 O 0.77068 0.81844 0.59497 0.0
H95 H 0.59421 0.87054 0.6514 0.0
H96 H 0.65681 0.86063 0.66454 0.0
C97 C 0.63526 0.86357 0.64731 0.0
H98 H 0.63931 0.8266 0.63758 0.0
H99 H 0.70792 0.75126 0.6341 0.0
O100 O 0.76296 0.00598 0.56463 0.0
C101 C 0.77606 0.83672 0.5737 0.0
Co102 Co 0.95159 0.22835 0.43983 0.0
Co103 Co 0.86901 0.21477 0.39853 0.0
C104 C 0.95745 0.14166 0.40509 0.0
O105 O 0.97676 0.16718 0.42243 0.0
O106 O 0.91581 0.15532 0.39488 0.0
C107 C 0.04848 0.23734 0.46474 0.0
O108 O 0.06813 0.21965 0.4445 0.0
C109 C 0.83196 0.19653 0.34902 0.0
C110 C 0.76095 0.243 0.34777 0.0
C111 C 0.79249 0.212 0.33384 0.0
N112 N 0.82418 0.2174 0.37099 0.0
N113 N 0.78133 0.24469 0.37017 0.0
C114 C 0.87908 0.16694 0.34216 0.0
H115 H 0.87665 0.12766 0.34982 0.0
H116 H 0.91336 0.18569 0.34993 0.0
H117 H 0.88353 0.16426 0.32225 0.0
C118 C 0.96693 0.326 0.4152 0.0
N119 N 0.9412 0.28202 0.41797 0.0
N120 N 0.90839 0.27661 0.40008 0.0
C121 C 0.91324 0.31707 0.38495 0.0
C122 C 0.95089 0.34927 0.39396 0.0
C123 C 0.00499 0.34589 0.4331 0.0
H124 H -0.00805 0.33742 0.45174 0.0
H125 H 0.04242 0.32654 0.43012 0.0
H126 H 0.01007 0.38793 0.4313 0.0
O127 O 0.88813 0.21061 0.4564 0.0
O128 O 0.82764 0.20086 0.42861 0.0
H129 H 0.84428 0.32848 0.36482 0.0
H130 H 0.90041 0.35524 0.35059 0.0
C131 C 0.88572 0.32255 0.36135 0.0
H132 H 0.89054 0.28692 0.35067 0.0
H133 H 0.76684 0.26577 0.3847 0.0
O134 O 0.00054 0.24549 0.46597 0.0
C135 C 0.84227 0.20022 0.45065 0.0
Co136 Co 0.75752 0.02121 0.08973 0.0
Co137 Co 0.76834 0.11111 0.12813 0.0
C138 C 0.84461 0.02505 0.12461 0.0
O139 O 0.81984 0.00269 0.10791 0.0
O140 O 0.82969 0.06756 0.13352 0.0
C141 C 0.75759 0.91952 0.06986 0.0
O142 O 0.77306 0.90703 0.09171 0.0
C143 C 0.78276 0.15781 0.17643 0.0
C144 C 0.73248 0.22608 0.17416 0.0
C145 C 0.76307 0.19833 0.19003 0.0
N146 N 0.76323 0.16067 0.15389 0.0
N147 N 0.73396 0.20213 0.15259 0.0
C148 C 0.82168 0.11856 0.18408 0.0
H149 H 0.85245 0.11628 0.17032 0.0
H150 H 0.80322 0.08042 0.18532 0.0
H151 H 0.83984 0.12837 0.20156 0.0
C152 C 0.65763 0.01068 0.11314 0.0
N153 N 0.70356 0.0331 0.11123 0.0
N154 N 0.7078 0.06934 0.1277 0.0
C155 C 0.66457 0.07003 0.1411 0.0
C156 C 0.63144 0.03304 0.13228 0.0
C157 C 0.63793 0.97206 0.09545 0.0
H158 H 0.65153 0.98151 0.077 0.0
H159 H 0.65305 0.93356 0.10038 0.0
H160 H 0.59549 0.9709 0.0953 0.0
O161 O 0.76935 0.08326 0.07082 0.0
O162 O 0.77827 0.14814 0.09656 0.0
H163 H 0.64826 0.1438 0.1561 0.0
H164 H 0.62238 0.09116 0.17334 0.0
C165 C 0.65562 0.10409 0.16247 0.0
H166 H 0.69001 0.10398 0.17419 0.0
H167 H 0.71354 0.21311 0.13718 0.0
O168 O 0.74516 0.96587 0.06559 0.0
C169 C 0.77694 0.1305 0.07505 0.0
Co170 Co 0.03718 0.21555 0.93885 0.0
Co171 Co 0.12612 0.21294 0.90038 0.0
C172 C 0.03594 0.13901 0.90042 0.0
O173 O 0.01376 0.15976 0.91842 0.0
O174 O 0.07908 0.15469 0.89263 0.0
C175 C 0.94117 0.21567 0.96527 0.0
O176 O 0.9227 0.19291 0.94599 0.0
C177 C 0.15522 0.22665 0.84992 0.0
C178 C 0.23939 0.21823 0.8506 0.0
C179 C 0.1982 0.22606 0.83516 0.0
N180 N 0.17027 0.21998 0.87297 0.0
N181 N 0.2207 0.21526 0.8733 0.0
C182 C 0.10031 0.22869 0.84211 0.0
H183 H 0.0939 0.20118 0.82712 0.0
H184 H 0.07438 0.21996 0.85742 0.0
H185 H 0.09079 0.26761 0.83532 0.0
C186 C 0.02057 0.31638 0.91787 0.0
N187 N 0.04783 0.27288 0.91953 0.0
N188 N 0.08781 0.2751 0.90513 0.0
C189 C 0.08901 0.32222 0.89493 0.0
C190 C 0.04614 0.34991 0.90262 0.0
C191 C 0.9684 0.32277 0.92879 0.0
H192 H 0.94728 0.2862 0.92739 0.0
H193 H 0.94577 0.35302 0.91945 0.0
H194 H 0.97225 0.33258 0.94823 0.0
O195 O 0.10082 0.19517 0.95572 0.0
O196 O 0.16589 0.19291 0.92985 0.0
H197 H 0.16793 0.31982 0.8837 0.0
H198 H 0.13875 0.383 0.88332 0.0
C199 C 0.13228 0.34164 0.87979 0.0
H200 H 0.12263 0.33717 0.86039 0.0
H201 H 0.24223 0.20881 0.88892 0.0
O202 O 0.98766 0.22972 0.96535 0.0
C203 C 0.148 0.18746 0.95115 0.0
Co204 Co 0.21991 0.95127 0.09301 0.0
Co205 Co 0.20866 0.86302 0.13233 0.0
C206 C 0.13481 0.95124 0.12904 0.0
O207 O 0.1594 0.97228 0.11188 0.0
O208 O 0.14898 0.90865 0.13821 0.0
C209 C 0.22356 0.053 0.07342 0.0
O210 O 0.20969 0.06545 0.09551 0.0
C211 C 0.19684 0.81739 0.18104 0.0
C212 C 0.24327 0.74659 0.17785 0.0
C213 C 0.21561 0.77584 0.19427 0.0
N214 N 0.21409 0.81357 0.15814 0.0
N215 N 0.2411 0.77069 0.1563 0.0
C216 C 0.1609 0.85871 0.18942 0.0
H217 H 0.12901 0.86272 0.17633 0.0
H218 H 0.18155 0.89575 0.19016 0.0
H219 H 0.14396 0.84994 0.20731 0.0
C220 C 0.3216 0.95883 0.1148 0.0
N221 N 0.27491 0.93779 0.11371 0.0
N222 N 0.2706 0.90228 0.13056 0.0
C223 C 0.31464 0.90061 0.14335 0.0
C224 C 0.34825 0.93634 0.13376 0.0
C225 C 0.3413 -0.00349 0.09662 0.0
H226 H 0.3271 0.03544 0.10134 0.0
H227 H 0.38375 -0.00313 0.09608 0.0
H228 H 0.32682 0.98672 0.07836 0.0
O229 O 0.20344 0.88942 0.07472 0.0
O230 O 0.1945 0.82596 0.1013 0.0
H231 H 0.32888 0.82677 0.1588 0.0
H232 H 0.35849 0.87879 0.17502 0.0
C233 C 0.32384 0.86699 0.16488 0.0
H234 H 0.29043 0.86905 0.17719 0.0
H235 H 0.25945 0.75871 0.1405 0.0
O236 O 0.23316 0.00621 0.06868 0.0
C237 C 0.194 0.84275 0.07961 0.0
Co238 Co 0.96107 0.77782 0.93598 0.0
Co239 Co 0.87458 0.77683 0.89561 0.0
C240 C 0.95998 0.85464 0.89693 0.0
O241 O 0.98129 0.83462 0.91529 0.0
O242 O 0.91833 0.83737 0.88835 0.0
C243 C 0.06095 0.78067 0.95684 0.0
O244 O 0.07361 0.79542 0.93492 0.0
C245 C 0.83887 0.78126 0.84504 0.0
C246 C 0.77055 0.73187 0.8455 0.0
C247 C 0.80217 0.75927 0.8301 0.0
N248 N 0.83044 0.766 0.86799 0.0
N249 N 0.78888 0.73729 0.86817 0.0
C250 C 0.87848 0.81998 0.83816 0.0
H251 H 0.87443 0.85406 0.84997 0.0
H252 H 0.91728 0.8033 0.84085 0.0
H253 H 0.87413 0.83362 0.81929 0.0
C254 C 0.97685 0.67365 0.91918 0.0
N255 N 0.95314 0.71919 0.91729 0.0
N256 N 0.91658 0.71666 0.90092 0.0
C257 C 0.91588 0.66831 0.89204 0.0
C258 C 0.95389 0.63973 0.90348 0.0
C259 C 0.01929 0.66225 0.93665 0.0
H260 H 0.05134 0.6889 0.93322 0.0
H261 H 0.03409 0.62247 0.9348 0.0
H262 H 0.00544 0.66838 0.95541 0.0
O263 O 0.89631 0.79402 0.95265 0.0
O264 O 0.83352 0.79419 0.92535 0.0
H265 H 0.88576 0.6085 0.8691 0.0
H266 H 0.87592 0.67336 0.85837 0.0
C267 C 0.87696 0.6485 0.87464 0.0
H268 H 0.83869 0.64954 0.88331 0.0
H269 H 0.77385 0.72015 0.88366 0.0
O270 O 0.01459 0.76931 0.96124 0.0
C271 C 0.84925 0.79947 0.94709 0.0
H272 H 0.16584 0.83157 0.55835 0.0
H273 H 0.23827 0.95672 0.52066 0.0
H274 H 0.22792 0.91188 0.48228 0.0
H275 H 0.18538 0.84382 0.45881 0.0
H276 H 0.10887 0.72164 0.4966 0.0
H277 H 0.13498 0.75758 0.53541 0.0
C278 C 0.18018 0.84868 0.54181 0.0
C279 C 0.20183 0.89791 0.54239 0.0
C280 C 0.17338 0.82304 0.5197 0.0
C281 C 0.22086 0.91913 0.52078 0.0
C282 C 0.21491 0.89351 0.49875 0.0
C283 C 0.1763 0.82407 0.47554 0.0
C284 C 0.14535 0.78018 0.47492 0.0
C285 C 0.18951 0.84631 0.49787 0.0
C286 C 0.13284 0.75542 0.4967 0.0
C287 C 0.14729 0.77627 0.5189 0.0
H288 H 0.74793 0.84791 0.52712 0.0
H289 H 0.83758 0.75171 0.57464 0.0
H290 H 0.88082 0.71321 0.53972 0.0
H291 H 0.90343 0.719 0.49648 0.0
H292 H 0.81367 0.81641 0.44931 0.0
H293 H 0.75954 0.84165 0.48323 0.0
C294 C 0.77591 0.81743 0.52975 0.0
C295 C 0.79019 0.8031 0.55332 0.0
C296 C 0.80109 0.7963 0.50968 0.0
C297 C 0.82597 0.76326 0.55662 0.0
C298 C 0.85107 0.74169 0.53667 0.0
C299 C 0.87135 0.74491 0.49354 0.0
C300 C 0.86339 0.76678 0.47052 0.0
C301 C 0.84061 0.75975 0.51322 0.0
C302 C 0.82107 0.79947 0.46688 0.0
C303 C 0.79018 0.81414 0.4863 0.0
H304 H 0.74377 0.04635 0.52304 0.0
H305 H 0.82114 0.1455 0.57358 0.0
H306 H 0.83896 0.20625 0.54123 0.0
H307 H 0.84404 0.22476 0.49796 0.0
H308 H 0.76945 0.12549 0.44679 0.0
H309 H 0.73762 0.07224 0.48004 0.0
C310 C 0.76386 0.08162 0.52704 0.0
C311 C 0.78205 0.09074 0.55066 0.0
C312 C 0.77443 0.11645 0.50822 0.0
C313 C 0.80728 0.13704 0.55557 0.0
C314 C 0.81753 0.17192 0.53705 0.0
C315 C 0.81957 0.19227 0.49413 0.0
C316 C 0.80957 0.17873 0.46997 0.0
C317 C 0.80289 0.16112 0.51322 0.0
C318 C 0.77749 0.13687 0.46524 0.0
C319 C 0.75992 0.10599 0.48425 0.0
H320 H 0.13041 0.21387 0.57055 0.0
H321 H 0.25144 0.13558 0.53228 0.0
H322 H 0.21837 0.16763 0.49374 0.0
H323 H 0.14617 0.20322 0.47092 0.0
H324 H 0.0204 0.27475 0.50903 0.0
H325 H 0.0642 0.26077 0.54749 0.0
C326 C 0.15053 0.20567 0.55381 0.0
C327 C 0.19322 0.17267 0.5541 0.0
C328 C 0.12964 0.22197 0.53163 0.0
C329 C 0.21856 0.16118 0.53235 0.0
C330 C 0.19937 0.17906 0.51034 0.0
C331 C 0.12882 0.21682 0.48757 0.0
C332 C 0.07962 0.23898 0.48712 0.0
C333 C 0.15347 0.20721 0.50969 0.0
C334 C 0.05793 0.25679 0.50887 0.0
C335 C 0.08292 0.24875 0.53092 0.0
H336 H 0.84875 0.76754 0.9934 0.0
H337 H 0.77302 0.87167 0.94429 0.0
H338 H 0.73182 0.91533 0.9785 0.0
H339 H 0.72853 0.93149 0.02258 0.0
H340 H 0.80463 0.82595 0.07122 0.0
H341 H 0.83371 0.77478 0.03701 0.0
C342 C 0.82217 0.799 0.99019 0.0
C343 C 0.81424 0.81679 0.96646 0.0
C344 C 0.79922 0.82403 1.00989 0.0
C345 C 0.77948 0.85722 0.96242 0.0
C346 C 0.75638 0.88247 0.982 0.0
C347 C 0.75062 0.89674 0.02572 0.0
C348 C 0.76526 0.88328 0.04947 0.0
C349 C 0.76762 0.86744 1.00586 0.0
C350 C 0.79321 0.83766 0.05319 0.0
C351 C 0.8101 0.80837 0.03361 0.0
H352 H 0.8572 0.19526 0.07102 0.0
H353 H 0.72865 0.13409 0.03192 0.0
H354 H 0.76545 0.1631 0.99373 0.0
H355 H 0.84118 0.19064 0.97129 0.0
H356 H 0.9728 0.24672 1.01009 0.0
H357 H 0.92786 0.23551 0.04841 0.0
C358 C 0.83644 0.19024 0.0542 0.0
C359 C 0.79045 0.16264 0.05415 0.0
C360 C 0.85907 0.20489 0.03218 0.0
C361 C 0.76415 0.15538 0.03227 0.0
C362 C 0.78542 0.17148 1.01043 0.0
C363 C 0.85973 0.20131 0.98808 0.0
C364 C 0.91065 0.21835 0.98783 0.0
C365 C 0.83407 0.1938 1.01009 0.0
C366 C 0.93381 0.23281 1.00975 0.0
C367 C 0.90816 0.22634 0.03173 0.0
H368 H 0.14475 0.21478 0.99807 0.0
H369 H 0.22137 0.11236 0.94858 0.0
H370 H 0.25709 0.06373 0.98271 0.0
H371 H 0.25549 0.04347 0.02647 0.0
H372 H 0.17908 0.14764 0.07551 0.0
H373 H 0.155 0.20281 0.04176 0.0
C374 C 0.17035 0.18256 0.9948 0.0
C375 C 0.18009 0.16677 0.97093 0.0
C376 C 0.1902 0.15472 0.01443 0.0
C377 C 0.21356 0.12531 0.96683 0.0
C378 C 0.23351 0.09722 0.98635 0.0
C379 C 0.23438 0.07872 0.02981 0.0
C380 C 0.21825 0.09079 0.05348 0.0
C381 C 0.22043 0.11045 1.01022 0.0
C382 C 0.19162 0.13705 0.05752 0.0
C383 C 0.17762 0.16863 0.03819 0.0
H384 H 0.05102 0.74427 1.00291 0.0
H385 H 0.15614 0.82242 0.95536 0.0
H386 H 0.21241 0.84031 0.98939 0.0
H387 H 0.22449 0.84594 0.03316 0.0
H388 H 0.11955 0.76965 0.0812 0.0
H389 H 0.07124 0.73754 0.04645 0.0
C390 C 0.08665 0.76449 0.99995 0.0
C391 C 0.09875 0.78306 0.97672 0.0
C392 C 0.11882 0.77504 0.01969 0.0
C393 C 0.14552 0.80828 0.97308 0.0
C394 C 0.17776 0.81863 0.99255 0.0
C395 C 0.19185 0.82106 0.03597 0.0
C396 C 0.17509 0.81068 0.05961 0.0
C397 C 0.16376 0.80395 0.01601 0.0
C398 C 0.13319 0.77801 0.06313 0.0
C399 C 0.10522 0.76023 0.04326 0.0
H400 H 0.56665 0.97372 0.65884 0.0
H401 H 0.57214 0.93692 0.58289 0.0
H402 H 0.48167 0.95892 0.57859 0.0
H403 H 0.40342 -0.00652 0.5957 0.0
H404 H 0.39328 0.02565 0.67198 0.0
H405 H 0.48403 0.00232 0.67695 0.0
C406 C 0.54749 0.96999 0.64154 0.0
C407 C 0.5754 0.95443 0.62113 0.0
C408 C 0.49537 0.98266 0.63923 0.0
C409 C 0.55094 0.94941 0.5987 0.0
C410 C 0.49949 0.96206 0.59623 0.0
C411 C 0.42061 -0.00589 0.61355 0.0
C412 C 0.39183 0.01035 0.63351 0.0
C413 C 0.47167 0.97942 0.61627 0.0
C414 C 0.41506 0.01319 0.65636 0.0
C415 C 0.46666 -0.00041 0.6592 0.0
H416 H 0.06684 0.55428 0.38206 0.0
H417 H 0.91236 0.61142 0.37508 0.0
H418 H 0.88027 0.52375 0.37196 0.0
H419 H 0.8953 0.43184 0.37973 0.0
H420 H 0.04999 0.37493 0.38618 0.0
H421 H 0.08329 0.46149 0.38046 0.0
C422 C 0.02647 0.54749 0.37884 0.0
C423 C -0.00824 0.5887 0.37923 0.0
C424 C 0.00837 0.4971 0.3774 0.0
C425 C 0.93949 0.57979 0.37517 0.0
C426 C 0.92116 0.52978 0.37351 0.0
C427 C 0.93628 0.43829 0.37898 0.0
C428 C 0.97026 0.3978 0.38394 0.0
C429 C 0.95502 0.48816 0.3759 0.0
C430 C 0.02328 0.40616 0.38291 0.0
C431 C 0.04228 0.45552 0.37968 0.0
H432 H 0.58718 0.94161 0.14095 0.0
H433 H 0.55598 0.10411 0.13846 0.0
H434 H 0.46436 0.08813 0.14304 0.0
H435 H 0.39291 0.02755 0.1418 0.0
H436 H 0.42374 0.86502 0.13966 0.0
H437 H 0.51567 0.88096 0.1432 0.0
C438 C 0.56018 0.97339 0.14175 0.0
C439 C 0.57782 0.02381 0.13922 0.0
C440 C 0.5076 0.96376 0.14337 0.0
C441 C 0.54303 0.06496 0.14055 0.0
C442 C 0.49071 0.05582 0.14294 0.0
C443 C 0.41991 -0.00424 0.14246 0.0
C444 C 0.40211 0.94535 0.14028 0.0
C445 C 0.47252 0.00536 0.14348 0.0
C446 C 0.43688 0.90416 0.14144 0.0
C447 C 0.48934 0.91329 0.14324 0.0
H448 H 0.00811 0.41736 0.93459 0.0
H449 H 0.05256 0.40393 0.85976 0.0
H450 H 0.02522 0.49294 0.85256 0.0
H451 H 0.98876 0.57513 0.86834 0.0
H452 H 0.93383 0.58057 0.94184 0.0
H453 H 0.96162 0.49222 0.94842 0.0
C454 C 0.01047 0.43314 0.91648 0.0
C455 C 0.03178 0.40392 0.89772 0.0
C456 C -0.00835 0.48243 0.91218 0.0
C457 C 0.03682 0.42592 0.87463 0.0
C458 C 0.02051 0.47649 0.87043 0.0
C459 C 0.98184 0.5562 0.8855 0.0
C460 C 0.95986 0.58379 0.9047 0.0
C461 C -0.00239 0.50508 0.8891 0.0
C462 C 0.9509 0.55958 0.92694 0.0
C463 C 0.96719 0.50945 0.93077 0.0
H464 H 0.08449 0.95046 0.63342 0.0
H465 H 0.04504 0.11129 0.63168 0.0
H466 H 0.95422 0.09043 0.6355 0.0
H467 H 0.88632 0.02581 0.63262 0.0
H468 H 0.92565 0.86507 0.636 0.0
H469 H 0.01653 0.88638 0.63886 0.0
C470 C 0.05594 0.98082 0.63445 0.0
C471 C 0.07084 0.03214 0.63186 0.0
C472 C 0.00404 0.96854 0.6368 0.0
C473 C 0.03407 0.07147 0.63358 0.0
C474 C 0.98224 0.05956 0.63561 0.0
C475 C 0.91484 -0.00437 0.63464 0.0
C476 C 0.89986 0.94409 0.63371 0.0
C477 C 0.96677 0.00817 0.63625 0.0
C478 C 0.93662 0.90506 0.63666 0.0
C479 C 0.98851 0.9172 0.63807 0.0
H480 H 0.07854 0.93362 0.40123 0.0
H481 H 0.92528 0.87761 0.39058 0.0
H482 H 0.89337 0.96552 0.3858 0.0
H483 H 0.90728 0.05759 0.39032 0.0
H484 H 0.05819 0.11362 0.40708 0.0
H485 H 0.09329 0.02661 0.40352 0.0
C486 C 0.03843 0.9409 0.39729 0.0
C487 C 0.00414 0.89978 0.39614 0.0
C488 C 0.02005 -0.00853 0.39593 0.0
C489 C 0.9521 0.9091 0.39151 0.0
C490 C 0.93393 0.9592 0.38886 0.0
C491 C 0.94805 0.05086 0.39263 0.0
C492 C 0.98022 0.09163 0.39894 0.0
C493 C 0.96727 0.00065 0.39185 0.0
C494 C 0.0328 0.08254 0.40228 0.0
C495 C 0.05278 0.03289 0.40032 0.0
H496 H 0.04784 0.89942 0.13691 0.0
H497 H 0.11018 0.05203 0.13463 0.0
H498 H 0.02386 0.08883 0.13752 0.0
H499 H 0.93084 0.07715 0.13454 0.0
H500 H 0.86923 0.92439 0.13034 0.0
H501 H 0.95481 0.88774 0.13638 0.0
C502 C 0.04243 0.9407 0.13774 0.0
C503 C 0.08487 0.97315 0.13572 0.0
C504 C -0.00725 0.96136 0.13788 0.0
C505 C 0.07773 0.02654 0.13624 0.0
C506 C 0.0285 0.04748 0.13775 0.0
C507 C 0.93618 0.03588 0.13552 0.0
C508 C 0.89422 0.00335 0.13204 0.0
C509 C 0.98569 0.01525 0.13767 0.0
C510 C 0.90132 0.94997 0.13291 0.0
C511 C 0.95012 0.92909 0.13632 0.0
H512 H 0.90793 0.94122 0.88676 0.0
H513 H 0.05967 0.87534 0.88789 0.0
H514 H 0.09718 0.96049 0.88313 0.0
H515 H 0.0868 0.05355 0.88711 0.0
H516 H 0.93532 0.11906 0.89286 0.0
H517 H 0.89737 0.03477 0.88604 0.0
C518 C 0.94909 0.94562 0.88511 0.0
C519 C 0.9812 0.90266 0.88765 0.0
C520 C 0.97028 -0.00518 0.88402 0.0
C521 C 0.03448 0.90831 0.88597 0.0
C522 C 0.05585 0.9569 0.88341 0.0
C523 C 0.04552 0.04944 0.88607 0.0
C524 C 0.01373 0.09193 0.89054 0.0
C525 C 0.02419 0.00053 0.88367 0.0
C526 C 0.96032 0.08646 0.88956 0.0
C527 C 0.9387 0.03835 0.88578 0.0
H528 H 0.17716 0.2571 0.72218 0.0
H529 H 0.2842 0.13048 0.72247 0.0
H530 H 0.28569 0.13103 0.76663 0.0
H531 H 0.25464 0.16603 0.80533 0.0
H532 H 0.14771 0.2927 0.80513 0.0
H533 H 0.14808 0.29382 0.76093 0.0
C534 C 0.20093 0.22981 0.73197 0.0
C535 C 0.22961 0.19305 0.71912 0.0
C536 C 0.20141 0.23025 0.7574 0.0
C537 C 0.26048 0.15806 0.73195 0.0
C538 C 0.26171 0.15866 0.75721 0.0
C539 C 0.23163 0.19398 0.79556 0.0
C540 C 0.2003 0.22846 0.80843 0.0
C541 C 0.23193 0.19423 0.77014 0.0
C542 C 0.17081 0.26464 0.79562 0.0
C543 C 0.1714 0.26562 0.77034 0.0
H544 H 0.21693 0.84467 0.23154 0.0
H545 H 0.2094 0.6827 0.21628 0.0
H546 H 0.20402 0.66409 0.2596 0.0
H547 H 0.19773 0.69433 0.30188 0.0
H548 H 0.19763 0.8566 0.3165 0.0
H549 H 0.20838 0.87495 0.27333 0.0
C550 C 0.21242 0.8054 0.23757 0.0
C551 C 0.21156 0.76525 0.2206 0.0
C552 C 0.20814 0.79512 0.26244 0.0
C553 C 0.20926 0.71437 0.22895 0.0
C554 C 0.20616 0.7037 0.25371 0.0
C555 C 0.2005 0.7336 0.29551 0.0
C556 C 0.19713 0.77416 0.31215 0.0
C557 C 0.20514 0.74379 0.27062 0.0
C558 C 0.20014 0.82494 0.30387 0.0
C559 C 0.2062 0.83537 0.27925 0.0
H560 H 0.71606 0.75777 0.80228 0.0
H561 H 0.88092 0.75818 0.79739 0.0
H562 H 0.87591 0.76594 0.75357 0.0
H563 H 0.82473 0.77427 0.71641 0.0
H564 H 0.66046 0.76373 0.7203 0.0
H565 H 0.66492 0.75731 0.76457 0.0
C566 C 0.75083 0.75958 0.79159 0.0
C567 C 0.79875 0.76057 0.80326 0.0
C568 C 0.7477 0.76186 0.76618 0.0
C569 C 0.84347 0.76094 0.78908 0.0
C570 C 0.8407 0.76448 0.76393 0.0
C571 C 0.79003 0.77045 0.72704 0.0
C572 C 0.74234 0.77009 0.71536 0.0
C573 C 0.79305 0.76568 0.7523 0.0
C574 C 0.69755 0.7642 0.72908 0.0
C575 C 0.70013 0.76068 0.75433 0.0
H576 H 0.7794 0.28049 0.29749 0.0
H577 H 0.79186 0.11855 0.3122 0.0
H578 H 0.7825 0.09962 0.26903 0.0
H579 H 0.76967 0.12932 0.22731 0.0
H580 H 0.76447 0.29156 0.21201 0.0
H581 H 0.77052 0.31034 0.25525 0.0
C582 C 0.77993 0.24113 0.29114 0.0
C583 C 0.78632 0.20088 0.30782 0.0
C584 C 0.77579 0.2307 0.26626 0.0
C585 C 0.78729 0.15002 0.29954 0.0
C586 C 0.78188 0.13925 0.27492 0.0
C587 C 0.77173 0.16882 0.23328 0.0
C588 C 0.76856 0.20901 0.2163 0.0
C589 C 0.77643 0.17931 0.2581 0.0
C590 C 0.76768 0.25992 0.22465 0.0
C591 C 0.77117 0.27069 0.24938 0.0
loop_
_geom_bond_atom_site_label_1
_geom_bond_atom_site_label_2
_geom_bond_distance
_geom_bond_site_symmetry_2
_ccdc_geom_bond_type
Co0 O3 1.970 . S
Co0 N17 1.989 . S
Co0 O25 1.967 . S
Co0 O32 1.920 . S
Co1 O4 1.966 . S
Co1 N10 2.022 . S
Co1 N18 1.993 . S
Co1 O26 1.941 . S
C2 O3 1.258 . S
C2 O4 1.263 . S
O3 Co0 1.970 . S
O3 C2 1.258 . S
O4 Co1 1.966 . S
O4 C2 1.263 . S
C5 O6 1.235 . S
C5 O32 1.289 1_565 S
O6 C5 1.235 . S
C7 C9 1.400 . S
C7 N10 1.351 . S
C7 C12 1.501 . S
C8 C9 1.387 . S
C8 N11 1.341 . S
C9 C7 1.400 . S
C9 C8 1.387 . S
N10 Co1 2.022 . S
N10 C7 1.351 . S
N10 N11 1.365 . S
N11 C8 1.341 . S
N11 N10 1.365 . S
N11 H31 0.862 . S
C12 C7 1.501 . S
C12 H13 0.961 . S
C12 H14 0.961 . S
C12 H15 0.960 . S
H13 C12 0.961 . S
H14 C12 0.961 . S
H15 C12 0.960 . S
C16 N17 1.342 . S
C16 C20 1.401 . S
C16 C21 1.499 . S
N17 Co0 1.989 . S
N17 C16 1.342 . S
N17 N18 1.388 . S
N18 Co1 1.993 . S
N18 N17 1.388 . S
N18 C19 1.346 . S
C19 N18 1.346 . S
C19 C20 1.396 . S
C19 C29 1.510 . S
C20 C16 1.401 . S
C20 C19 1.396 . S
C21 C16 1.499 . S
C21 H22 0.959 . S
C21 H23 0.960 1_545 S
C21 H24 0.961 . S
H22 C21 0.959 . S
H23 C21 0.960 1_565 S
H24 C21 0.961 . S
O25 Co0 1.967 . S
O25 C33 1.258 . S
O26 Co1 1.941 . S
O26 C33 1.266 . S
H27 C29 0.959 . S
H28 C29 0.961 . S
C29 C19 1.510 . S
C29 H27 0.959 . S
C29 H28 0.961 . S
C29 H30 0.960 . S
H30 C29 0.960 . S
H31 N11 0.862 . S
O32 Co0 1.920 . S
O32 C5 1.289 1_545 S
C33 O25 1.258 . S
C33 O26 1.266 . S
Co34 O37 1.970 . S
Co34 N51 1.989 . S
Co34 O59 1.967 . S
Co34 O66 1.920 . S
Co35 O38 1.966 . S
Co35 N44 2.022 . S
Co35 N52 1.993 . S
Co35 O60 1.941 . S
C36 O37 1.258 . S
C36 O38 1.263 . S
O37 Co34 1.970 . S
O37 C36 1.258 . S
O38 Co35 1.966 . S
O38 C36 1.263 . S
C39 O40 1.235 . S
C39 O66 1.289 1_655 S
O40 C39 1.235 . S
C41 C43 1.400 . S
C41 N44 1.351 . S
C41 C46 1.501 . S
C42 C43 1.387 . S
C42 N45 1.341 . S
C43 C41 1.400 . S
C43 C42 1.387 . S
N44 Co35 2.022 . S
N44 C41 1.351 . S
N44 N45 1.365 . S
N45 C42 1.341 . S
N45 N44 1.365 . S
N45 H65 0.862 . S
C46 C41 1.501 . S
C46 H47 0.961 . S
C46 H48 0.961 . S
C46 H49 0.960 . S
H47 C46 0.961 . S
H48 C46 0.961 . S
H49 C46 0.960 . S
C50 N51 1.342 . S
C50 C54 1.401 . S
C50 C55 1.499 . S
N51 Co34 1.989 . S
N51 C50 1.342 . S
N51 N52 1.388 . S
N52 Co35 1.993 . S
N52 N51 1.388 . S
N52 C53 1.346 . S
C53 N52 1.346 . S
C53 C54 1.396 . S
C53 C63 1.510 . S
C54 C50 1.401 . S
C54 C53 1.396 . S
C55 C50 1.499 . S
C55 H56 0.959 . S
C55 H57 0.960 1_455 S
C55 H58 0.961 . S
H56 C55 0.959 . S
H57 C55 0.960 1_655 S
H58 C55 0.961 . S
O59 Co34 1.967 . S
O59 C67 1.258 . S
O60 Co35 1.941 . S
O60 C67 1.266 . S
H61 C63 0.959 . S
H62 C63 0.961 . S
C63 C53 1.510 . S
C63 H61 0.959 . S
C63 H62 0.961 . S
C63 H64 0.960 . S
H64 C63 0.960 . S
H65 N45 0.862 . S
O66 Co34 1.920 . S
O66 C39 1.289 1_455 S
C67 O59 1.258 . S
C67 O60 1.266 . S
Co68 O71 1.970 . S
Co68 N85 1.989 . S
Co68 O93 1.967 . S
Co68 O100 1.920 . S
Co69 O72 1.966 . S
Co69 N78 2.022 . S
Co69 N86 1.993 . S
Co69 O94 1.941 . S
C70 O71 1.258 . S
C70 O72 1.263 . S
O71 Co68 1.970 . S
O71 C70 1.258 . S
O72 Co69 1.966 . S
O72 C70 1.263 . S
C73 O74 1.235 . S
C73 O100 1.289 1_545 S
O74 C73 1.235 . S
C75 C77 1.400 . S
C75 N78 1.351 . S
C75 C80 1.501 . S
C76 C77 1.387 . S
C76 N79 1.341 . S
C77 C75 1.400 . S
C77 C76 1.387 . S
N78 Co69 2.022 . S
N78 C75 1.351 . S
N78 N79 1.365 . S
N79 C76 1.341 . S
N79 N78 1.365 . S
N79 H99 0.862 . S
C80 C75 1.501 . S
C80 H81 0.961 . S
C80 H82 0.961 . S
C80 H83 0.960 . S
H81 C80 0.961 . S
H82 C80 0.961 . S
H83 C80 0.960 . S
C84 N85 1.342 . S
C84 C88 1.401 . S
C84 C89 1.499 . S
N85 Co68 1.989 . S
N85 C84 1.342 . S
N85 N86 1.388 . S
N86 Co69 1.993 . S
N86 N85 1.388 . S
N86 C87 1.346 . S
C87 N86 1.346 . S
C87 C88 1.396 . S
C87 C97 1.510 . S
C88 C84 1.401 . S
C88 C87 1.396 . S
C89 C84 1.499 . S
C89 H90 0.959 . S
C89 H91 0.960 1_565 S
C89 H92 0.961 . S
H90 C89 0.959 . S
H91 C89 0.960 1_545 S
H92 C89 0.961 . S
O93 Co68 1.967 . S
O93 C101 1.258 . S
O94 Co69 1.941 . S
O94 C101 1.266 . S
H95 C97 0.959 . S
H96 C97 0.961 . S
C97 C87 1.510 . S
C97 H95 0.959 . S
C97 H96 0.961 . S
C97 H98 0.960 . S
H98 C97 0.960 . S
H99 N79 0.862 . S
O100 Co68 1.920 . S
O100 C73 1.289 1_565 S
C101 O93 1.258 . S
C101 O94 1.266 . S
Co102 O105 1.970 . S
Co102 N119 1.989 . S
Co102 O127 1.967 . S
Co102 O134 1.920 . S
Co103 O106 1.966 . S
Co103 N112 2.022 . S
Co103 N120 1.993 . S
Co103 O128 1.941 . S
C104 O105 1.258 . S
C104 O106 1.263 . S
O105 Co102 1.970 . S
O105 C104 1.258 . S
O106 Co103 1.966 . S
O106 C104 1.263 . S
C107 O108 1.235 . S
C107 O134 1.289 1_455 S
O108 C107 1.235 . S
C109 C111 1.400 . S
C109 N112 1.351 . S
C109 C114 1.501 . S
C110 C111 1.387 . S
C110 N113 1.341 . S
C111 C109 1.400 . S
C111 C110 1.387 . S
N112 Co103 2.022 . S
N112 C109 1.351 . S
N112 N113 1.365 . S
N113 C110 1.341 . S
N113 N112 1.365 . S
N113 H133 0.862 . S
C114 C109 1.501 . S
C114 H115 0.961 . S
C114 H116 0.961 . S
C114 H117 0.960 . S
H115 C114 0.961 . S
H116 C114 0.961 . S
H117 C114 0.960 . S
C118 N119 1.342 . S
C118 C122 1.401 . S
C118 C123 1.499 . S
N119 Co102 1.989 . S
N119 C118 1.342 . S
N119 N120 1.388 . S
N120 Co103 1.993 . S
N120 N119 1.388 . S
N120 C121 1.346 . S
C121 N120 1.346 . S
C121 C122 1.396 . S
C121 C131 1.510 . S
C122 C118 1.401 . S
C122 C121 1.396 . S
C123 C118 1.499 . S
C123 H124 0.959 . S
C123 H125 0.960 1_655 S
C123 H126 0.961 . S
H124 C123 0.959 . S
H125 C123 0.960 1_455 S
H126 C123 0.961 . S
O127 Co102 1.967 . S
O127 C135 1.258 . S
O128 Co103 1.941 . S
O128 C135 1.266 . S
H129 C131 0.959 . S
H130 C131 0.961 . S
C131 C121 1.510 . S
C131 H129 0.959 . S
C131 H130 0.961 . S
C131 H132 0.960 . S
H132 C131 0.960 . S
H133 N113 0.862 . S
O134 Co102 1.920 . S
O134 C107 1.289 1_655 S
C135 O127 1.258 . S
C135 O128 1.266 . S
Co136 O139 1.970 . S
Co136 N153 1.989 . S
Co136 O161 1.967 . S
Co136 O168 1.920 . S
Co137 O140 1.966 . S
Co137 N146 2.022 . S
Co137 N154 1.993 . S
Co137 O162 1.941 . S
C138 O139 1.258 . S
C138 O140 1.263 . S
O139 Co136 1.970 . S
O139 C138 1.258 . S
O140 Co137 1.966 . S
O140 C138 1.263 . S
C141 O142 1.235 . S
C141 O168 1.289 1_565 S
O142 C141 1.235 . S
C143 C145 1.400 . S
C143 N146 1.351 . S
C143 C148 1.501 . S
C144 C145 1.387 . S
C144 N147 1.341 . S
C145 C143 1.400 . S
C145 C144 1.387 . S
N146 Co137 2.022 . S
N146 C143 1.351 . S
N146 N147 1.365 . S
N147 C144 1.341 . S
N147 N146 1.365 . S
N147 H167 0.862 . S
C148 C143 1.501 . S
C148 H149 0.961 . S
C148 H150 0.961 . S
C148 H151 0.960 . S
H149 C148 0.961 . S
H150 C148 0.961 . S
H151 C148 0.960 . S
C152 N153 1.342 . S
C152 C156 1.401 . S
C152 C157 1.499 . S
N153 Co136 1.989 . S
N153 C152 1.342 . S
N153 N154 1.388 . S
N154 Co137 1.993 . S
N154 N153 1.388 . S
N154 C155 1.346 . S
C155 N154 1.346 . S
C155 C156 1.396 . S
C155 C165 1.510 . S
C156 C152 1.401 . S
C156 C155 1.396 . S
C157 C152 1.499 . S
C157 H158 0.959 . S
C157 H159 0.960 1_545 S
C157 H160 0.961 . S
H158 C157 0.959 . S
H159 C157 0.960 1_565 S
H160 C157 0.961 . S
O161 Co136 1.967 . S
O161 C169 1.258 . S
O162 Co137 1.941 . S
O162 C169 1.266 . S
H163 C165 0.959 . S
H164 C165 0.961 . S
C165 C155 1.510 . S
C165 H163 0.959 . S
C165 H164 0.961 . S
C165 H166 0.960 . S
H166 C165 0.960 . S
H167 N147 0.862 . S
O168 Co136 1.920 . S
O168 C141 1.289 1_545 S
C169 O161 1.258 . S
C169 O162 1.266 . S
Co170 O173 1.970 . S
Co170 N187 1.989 . S
Co170 O195 1.967 . S
Co170 O202 1.920 . S
Co171 O174 1.966 . S
Co171 N180 2.022 . S
Co171 N188 1.993 . S
Co171 O196 1.941 . S
C172 O173 1.258 . S
C172 O174 1.263 . S
O173 Co170 1.970 . S
O173 C172 1.258 . S
O174 Co171 1.966 . S
O174 C172 1.263 . S
C175 O176 1.235 . S
C175 O202 1.289 1_655 S
O176 C175 1.235 . S
C177 C179 1.400 . S
C177 N180 1.351 . S
C177 C182 1.501 . S
C178 C179 1.387 . S
C178 N181 1.341 . S
C179 C177 1.400 . S
C179 C178 1.387 . S
N180 Co171 2.022 . S
N180 C177 1.351 . S
N180 N181 1.365 . S
N181 C178 1.341 . S
N181 N180 1.365 . S
N181 H201 0.862 . S
C182 C177 1.501 . S
C182 H183 0.961 . S
C182 H184 0.961 . S
C182 H185 0.960 . S
H183 C182 0.961 . S
H184 C182 0.961 . S
H185 C182 0.960 . S
C186 N187 1.342 . S
C186 C190 1.401 . S
C186 C191 1.499 . S
N187 Co170 1.989 . S
N187 C186 1.342 . S
N187 N188 1.388 . S
N188 Co171 1.993 . S
N188 N187 1.388 . S
N188 C189 1.346 . S
C189 N188 1.346 . S
C189 C190 1.396 . S
C189 C199 1.510 . S
C190 C186 1.401 . S
C190 C189 1.396 . S
C191 C186 1.499 . S
C191 H192 0.959 . S
C191 H193 0.960 1_455 S
C191 H194 0.961 . S
H192 C191 0.959 . S
H193 C191 0.960 1_655 S
H194 C191 0.961 . S
O195 Co170 1.967 . S
O195 C203 1.258 . S
O196 Co171 1.941 . S
O196 C203 1.266 . S
H197 C199 0.959 . S
H198 C199 0.961 . S
C199 C189 1.510 . S
C199 H197 0.959 . S
C199 H198 0.961 . S
C199 H200 0.960 . S
H200 C199 0.960 . S
H201 N181 0.862 . S
O202 Co170 1.920 . S
O202 C175 1.289 1_455 S
C203 O195 1.258 . S
C203 O196 1.266 . S
Co204 O207 1.970 . S
Co204 N221 1.989 . S
Co204 O229 1.967 . S
Co204 O236 1.920 . S
Co205 O208 1.966 . S
Co205 N214 2.022 . S
Co205 N222 1.993 . S
Co205 O230 1.941 . S
C206 O207 1.258 . S
C206 O208 1.263 . S
O207 Co204 1.970 . S
O207 C206 1.258 . S
O208 Co205 1.966 . S
O208 C206 1.263 . S
C209 O210 1.235 . S
C209 O236 1.289 1_545 S
O210 C209 1.235 . S
C211 C213 1.400 . S
C211 N214 1.351 . S
C211 C216 1.501 . S
C212 C213 1.387 . S
C212 N215 1.341 . S
C213 C211 1.400 . S
C213 C212 1.387 . S
N214 Co205 2.022 . S
N214 C211 1.351 . S
N214 N215 1.365 . S
N215 C212 1.341 . S
N215 N214 1.365 . S
N215 H235 0.862 . S
C216 C211 1.501 . S
C216 H217 0.961 . S
C216 H218 0.961 . S
C216 H219 0.960 . S
H217 C216 0.961 . S
H218 C216 0.961 . S
H219 C216 0.960 . S
C220 N221 1.342 . S
C220 C224 1.401 . S
C220 C225 1.499 . S
N221 Co204 1.989 . S
N221 C220 1.342 . S
N221 N222 1.388 . S
N222 Co205 1.993 . S
N222 N221 1.388 . S
N222 C223 1.346 . S
C223 N222 1.346 . S
C223 C224 1.396 . S
C223 C233 1.510 . S
C224 C220 1.401 . S
C224 C223 1.396 . S
C225 C220 1.499 . S
C225 H226 0.959 . S
C225 H227 0.960 1_565 S
C225 H228 0.961 . S
H226 C225 0.959 . S
H227 C225 0.960 1_545 S
H228 C225 0.961 . S
O229 Co204 1.967 . S
O229 C237 1.258 . S
O230 Co205 1.941 . S
O230 C237 1.266 . S
H231 C233 0.959 . S
H232 C233 0.961 . S
C233 C223 1.510 . S
C233 H231 0.959 . S
C233 H232 0.961 . S
C233 H234 0.960 . S
H234 C233 0.960 . S
H235 N215 0.862 . S
O236 Co204 1.920 . S
O236 C209 1.289 1_565 S
C237 O229 1.258 . S
C237 O230 1.266 . S
Co238 O241 1.970 . S
Co238 N255 1.989 . S
Co238 O263 1.967 . S
Co238 O270 1.920 . S
Co239 O242 1.966 . S
Co239 N248 2.022 . S
Co239 N256 1.993 . S
Co239 O264 1.941 . S
C240 O241 1.258 . S
C240 O242 1.263 . S
O241 Co238 1.970 . S
O241 C240 1.258 . S
O242 Co239 1.966 . S
O242 C240 1.263 . S
C243 O244 1.235 . S
C243 O270 1.289 1_455 S
O244 C243 1.235 . S
C245 C247 1.400 . S
C245 N248 1.351 . S
C245 C250 1.501 . S
C246 C247 1.387 . S
C246 N249 1.341 . S
C247 C245 1.400 . S
C247 C246 1.387 . S
N248 Co239 2.022 . S
N248 C245 1.351 . S
N248 N249 1.365 . S
N249 C246 1.341 . S
N249 N248 1.365 . S
N249 H269 0.862 . S
C250 C245 1.501 . S
C250 H251 0.961 . S
C250 H252 0.961 . S
C250 H253 0.960 . S
H251 C250 0.961 . S
H252 C250 0.961 . S
H253 C250 0.960 . S
C254 N255 1.342 . S
C254 C258 1.401 . S
C254 C259 1.499 . S
N255 Co238 1.989 . S
N255 C254 1.342 . S
N255 N256 1.388 . S
N256 Co239 1.993 . S
N256 N255 1.388 . S
N256 C257 1.346 . S
C257 N256 1.346 . S
C257 C258 1.396 . S
C257 C267 1.510 . S
C258 C254 1.401 . S
C258 C257 1.396 . S
C259 C254 1.499 . S
C259 H260 0.959 . S
C259 H261 0.960 1_655 S
C259 H262 0.961 . S
H260 C259 0.959 . S
H261 C259 0.960 1_455 S
H262 C259 0.961 . S
O263 Co238 1.967 . S
O263 C271 1.258 . S
O264 Co239 1.941 . S
O264 C271 1.266 . S
H265 C267 0.959 . S
H266 C267 0.961 . S
C267 C257 1.510 . S
C267 H265 0.959 . S
C267 H266 0.961 . S
C267 H268 0.960 . S
H268 C267 0.960 . S
H269 N249 0.862 . S
O270 Co238 1.920 . S
O270 C243 1.289 1_655 S
C271 O263 1.258 . S
C271 O264 1.266 . S
H272 C278 0.930 . S
H273 C281 0.930 . S
H274 C282 0.930 . S
H275 C283 0.930 . S
H276 C286 0.930 . S
H277 C287 0.930 . S
C278 H272 0.930 . S
C278 C279 1.355 . S
C278 C280 1.415 . S
C279 C278 1.355 . S
C279 C281 1.419 . S
C280 C278 1.415 . S
C280 C285 1.425 . S
C280 C287 1.409 . S
C281 H273 0.930 . S
C281 C279 1.419 . S
C281 C282 1.362 . S
C282 H274 0.930 . S
C282 C281 1.362 . S
C282 C285 1.409 . S
C283 H275 0.930 . S
C283 C284 1.355 . S
C283 C285 1.415 . S
C284 C283 1.355 . S
C284 C286 1.419 . S
C285 C280 1.425 . S
C285 C282 1.409 . S
C285 C283 1.415 . S
C286 H276 0.930 . S
C286 C284 1.419 . S
C286 C287 1.362 . S
C287 H277 0.930 . S
C287 C280 1.409 . S
C287 C286 1.362 . S
H288 C294 0.930 . S
H289 C297 0.930 . S
H290 C298 0.930 . S
H291 C299 0.930 . S
H292 C302 0.930 . S
H293 C303 0.930 . S
C294 H288 0.930 . S
C294 C295 1.355 . S
C294 C296 1.415 . S
C295 C294 1.355 . S
C295 C297 1.419 . S
C296 C294 1.415 . S
C296 C301 1.425 . S
C296 C303 1.409 . S
C297 H289 0.930 . S
C297 C295 1.419 . S
C297 C298 1.362 . S
C298 H290 0.930 . S
C298 C297 1.362 . S
C298 C301 1.409 . S
C299 H291 0.930 . S
C299 C300 1.355 . S
C299 C301 1.415 . S
C300 C299 1.355 . S
C300 C302 1.419 . S
C301 C296 1.425 . S
C301 C298 1.409 . S
C301 C299 1.415 . S
C302 H292 0.930 . S
C302 C300 1.419 . S
C302 C303 1.362 . S
C303 H293 0.930 . S
C303 C296 1.409 . S
C303 C302 1.362 . S
H304 C310 0.930 . S
H305 C313 0.930 . S
H306 C314 0.930 . S
H307 C315 0.930 . S
H308 C318 0.930 . S
H309 C319 0.930 . S
C310 H304 0.930 . S
C310 C311 1.355 . S
C310 C312 1.415 . S
C311 C310 1.355 . S
C311 C313 1.419 . S
C312 C310 1.415 . S
C312 C317 1.425 . S
C312 C319 1.409 . S
C313 H305 0.930 . S
C313 C311 1.419 . S
C313 C314 1.362 . S
C314 H306 0.930 . S
C314 C313 1.362 . S
C314 C317 1.409 . S
C315 H307 0.930 . S
C315 C316 1.355 . S
C315 C317 1.415 . S
C316 C315 1.355 . S
C316 C318 1.419 . S
C317 C312 1.425 . S
C317 C314 1.409 . S
C317 C315 1.415 . S
C318 H308 0.930 . S
C318 C316 1.419 . S
C318 C319 1.362 . S
C319 H309 0.930 . S
C319 C312 1.409 . S
C319 C318 1.362 . S
H320 C326 0.930 . S
H321 C329 0.930 . S
H322 C330 0.930 . S
H323 C331 0.930 . S
H324 C334 0.930 1_655 S
H325 C335 0.930 . S
C326 H320 0.930 . S
C326 C327 1.355 . S
C326 C328 1.415 . S
C327 C326 1.355 . S
C327 C329 1.419 . S
C328 C326 1.415 . S
C328 C333 1.425 . S
C328 C335 1.409 . S
C329 H321 0.930 . S
C329 C327 1.419 . S
C329 C330 1.362 . S
C330 H322 0.930 . S
C330 C329 1.362 . S
C330 C333 1.409 . S
C331 H323 0.930 . S
C331 C332 1.355 . S
C331 C333 1.415 . S
C332 C331 1.355 . S
C332 C334 1.419 . S
C333 C328 1.425 . S
C333 C330 1.409 . S
C333 C331 1.415 . S
C334 H324 0.930 1_455 S
C334 C332 1.419 . S
C334 C335 1.362 . S
C335 H325 0.930 . S
C335 C328 1.409 . S
C335 C334 1.362 . S
H336 C342 0.930 . S
H337 C345 0.930 . S
H338 C346 0.930 . S
H339 C347 0.947 . S
H340 C350 0.930 . S
H341 C351 0.930 . S
C342 H336 0.930 . S
C342 C343 1.355 . S
C342 C344 1.415 . S
C343 C342 1.355 . S
C343 C345 1.419 . S
C344 C342 1.415 . S
C344 C349 1.425 . S
C344 C351 1.409 1_556 S
C345 H337 0.930 . S
C345 C343 1.419 . S
C345 C346 1.362 . S
C346 H338 0.930 . S
C346 C345 1.362 . S
C346 C349 1.409 . S
C347 H339 0.947 . S
C347 C348 1.355 1_556 S
C347 C349 1.415 . S
C348 C347 1.355 1_554 S
C348 C350 1.419 . S
C349 C344 1.425 . S
C349 C346 1.409 . S
C349 C347 1.415 . S
C350 H340 0.930 . S
C350 C348 1.419 . S
C350 C351 1.362 . S
C351 H341 0.930 . S
C351 C344 1.409 1_554 S
C351 C350 1.362 . S
H352 C358 0.930 . S
H353 C361 0.930 . S
H354 C362 0.930 . S
H355 C363 0.930 . S
H356 C366 0.933 1_455 S
H357 C367 0.930 . S
C358 H352 0.930 . S
C358 C359 1.355 . S
C358 C360 1.415 . S
C359 C358 1.355 . S
C359 C361 1.419 . S
C360 C358 1.415 . S
C360 C365 1.425 . S
C360 C367 1.409 . S
C361 H353 0.930 . S
C361 C359 1.419 . S
C361 C362 1.362 . S
C362 H354 0.930 . S
C362 C361 1.362 . S
C362 C365 1.409 . S
C363 H355 0.930 . S
C363 C364 1.355 . S
C363 C365 1.415 1_556 S
C364 C363 1.355 . S
C364 C366 1.428 . S
C365 C360 1.425 . S
C365 C362 1.409 . S
C365 C363 1.415 1_554 S
C366 H356 0.933 1_655 S
C366 C364 1.428 . S
C366 C367 1.351 1_556 S
C367 H357 0.930 . S
C367 C360 1.409 . S
C367 C366 1.351 1_554 S
H368 C374 0.930 . S
H369 C377 0.930 . S
H370 C378 0.930 . S
H371 C379 0.946 . S
H372 C382 0.930 . S
H373 C383 0.930 . S
C374 H368 0.930 . S
C374 C375 1.355 . S
C374 C376 1.415 . S
C375 C374 1.355 . S
C375 C377 1.419 . S
C376 C374 1.415 . S
C376 C381 1.425 . S
C376 C383 1.409 1_556 S
C377 H369 0.930 . S
C377 C375 1.419 . S
C377 C378 1.362 . S
C378 H370 0.930 . S
C378 C377 1.362 . S
C378 C381 1.409 . S
C379 H371 0.946 . S
C379 C380 1.355 1_556 S
C379 C381 1.415 . S
C380 C379 1.355 1_554 S
C380 C382 1.419 . S
C381 C376 1.425 . S
C381 C378 1.409 . S
C381 C379 1.415 . S
C382 H372 0.930 . S
C382 C380 1.419 . S
C382 C383 1.362 . S
C383 H373 0.930 . S
C383 C376 1.409 1_554 S
C383 C382 1.362 . S
H384 C390 0.930 . S
H385 C393 0.930 . S
H386 C394 0.930 . S
H387 C395 0.930 . S
H388 C398 0.930 . S
H389 C399 0.930 . S
C390 H384 0.930 . S
C390 C391 1.355 1_554 S
C390 C392 1.415 . S
C391 C390 1.355 1_556 S
C391 C393 1.419 . S
C392 C390 1.415 . S
C392 C397 1.425 . S
C392 C399 1.409 . S
C393 H385 0.930 . S
C393 C391 1.419 . S
C393 C394 1.362 . S
C394 H386 0.930 . S
C394 C393 1.362 . S
C394 C397 1.409 1_556 S
C395 H387 0.930 . S
C395 C396 1.355 . S
C395 C397 1.415 . S
C396 C395 1.355 . S
C396 C398 1.419 . S
C397 C392 1.425 . S
C397 C394 1.409 1_554 S
C397 C395 1.415 . S
C398 H388 0.930 . S
C398 C396 1.419 . S
C398 C399 1.362 . S
C399 H389 0.930 . S
C399 C392 1.409 . S
C399 C398 1.362 . S
H400 C406 0.930 . S
H401 C409 0.930 . S
H402 C410 0.930 . S
H403 C411 0.930 . S
H404 C414 0.930 . S
H405 C415 0.930 . S
C406 H400 0.930 . S
C406 C407 1.355 . S
C406 C408 1.415 . S
C407 C406 1.355 . S
C407 C409 1.419 . S
C408 C406 1.415 . S
C408 C413 1.425 1_565 S
C408 C415 1.409 1_565 S
C409 H401 0.930 . S
C409 C407 1.419 . S
C409 C410 1.362 . S
C410 H402 0.930 . S
C410 C409 1.362 . S
C410 C413 1.409 1_565 S
C411 H403 0.930 . S
C411 C412 1.355 . S
C411 C413 1.415 . S
C412 C411 1.355 . S
C412 C414 1.419 . S
C413 C408 1.425 1_545 S
C413 C410 1.409 1_545 S
C413 C411 1.415 . S
C414 H404 0.930 . S
C414 C412 1.419 . S
C414 C415 1.362 . S
C415 H405 0.930 . S
C415 C408 1.409 1_545 S
C415 C414 1.362 . S
H416 C422 0.930 . S
H417 C425 0.930 . S
H418 C426 0.930 . S
H419 C427 0.930 . S
H420 C430 0.930 . S
H421 C431 0.930 . S
C422 H416 0.930 . S
C422 C423 1.355 . S
C422 C424 1.415 . S
C423 C422 1.355 . S
C423 C425 1.419 . S
C424 C422 1.415 . S
C424 C429 1.425 1_455 S
C424 C431 1.409 . S
C425 H417 0.930 . S
C425 C423 1.419 . S
C425 C426 1.362 1_455 S
C426 H418 0.930 . S
C426 C425 1.362 1_655 S
C426 C429 1.409 . S
C427 H419 0.930 . S
C427 C428 1.355 . S
C427 C429 1.415 . S
C428 C427 1.355 . S
C428 C430 1.419 . S
C429 C424 1.425 1_655 S
C429 C426 1.409 . S
C429 C427 1.415 . S
C430 H420 0.930 . S
C430 C428 1.419 . S
C430 C431 1.362 1_655 S
C431 H421 0.930 . S
C431 C424 1.409 . S
C431 C430 1.362 1_455 S
H432 C438 0.930 . S
H433 C441 0.930 . S
H434 C442 0.930 . S
H435 C443 0.930 . S
H436 C446 0.930 . S
H437 C447 0.930 . S
C438 H432 0.930 . S
C438 C439 1.355 . S
C438 C440 1.415 . S
C439 C438 1.355 . S
C439 C441 1.419 . S
C440 C438 1.415 . S
C440 C445 1.425 1_545 S
C440 C447 1.409 1_545 S
C441 H433 0.930 . S
C441 C439 1.419 . S
C441 C442 1.362 . S
C442 H434 0.930 . S
C442 C441 1.362 . S
C442 C445 1.409 1_545 S
C443 H435 0.930 . S
C443 C444 1.355 . S
C443 C445 1.415 . S
C444 C443 1.355 . S
C444 C446 1.419 . S
C445 C440 1.425 1_565 S
C445 C442 1.409 1_565 S
C445 C443 1.415 . S
C446 H436 0.930 . S
C446 C444 1.419 . S
C446 C447 1.362 . S
C447 H437 0.930 . S
C447 C440 1.409 1_565 S
C447 C446 1.362 . S
H448 C454 0.930 . S
H449 C457 0.930 . S
H450 C458 0.930 . S
H451 C459 0.930 . S
H452 C462 0.930 . S
H453 C463 0.930 . S
C454 H448 0.930 . S
C454 C455 1.355 . S
C454 C456 1.415 . S
C455 C454 1.355 . S
C455 C457 1.419 . S
C456 C454 1.415 . S
C456 C461 1.425 1_455 S
C456 C463 1.409 . S
C457 H449 0.930 . S
C457 C455 1.419 . S
C457 C458 1.362 1_455 S
C458 H450 0.930 . S
C458 C457 1.362 1_655 S
C458 C461 1.409 . S
C459 H451 0.930 . S
C459 C460 1.355 . S
C459 C461 1.415 . S
C460 C459 1.355 . S
C460 C462 1.419 . S
C461 C456 1.425 1_655 S
C461 C458 1.409 . S
C461 C459 1.415 . S
C462 H452 0.930 . S
C462 C460 1.419 . S
C462 C463 1.362 1_655 S
C463 H453 0.930 . S
C463 C456 1.409 . S
C463 C462 1.362 1_455 S
H464 C470 0.930 . S
H465 C473 0.930 . S
H466 C474 0.943 . S
H467 C475 0.930 . S
H468 C478 0.930 . S
H469 C479 0.943 . S
C470 H464 0.930 . S
C470 C471 1.355 1_565 S
C470 C472 1.415 . S
C471 C470 1.355 1_545 S
C471 C473 1.419 . S
C472 C470 1.415 . S
C472 C477 1.425 1_465 S
C472 C479 1.415 . S
C473 H465 0.930 . S
C473 C471 1.419 . S
C473 C474 1.344 1_455 S
C474 H466 0.943 . S
C474 C473 1.344 1_655 S
C474 C477 1.415 . S
C475 H467 0.930 . S
C475 C476 1.355 1_545 S
C475 C477 1.415 . S
C476 C475 1.355 1_565 S
C476 C478 1.419 . S
C477 C472 1.425 1_645 S
C477 C474 1.415 . S
C477 C475 1.415 . S
C478 H468 0.930 . S
C478 C476 1.419 . S
C478 C479 1.344 1_655 S
C479 H469 0.943 . S
C479 C472 1.415 . S
C479 C478 1.344 1_455 S
H480 C486 0.930 . S
H481 C489 0.930 . S
H482 C490 0.930 . S
H483 C491 0.930 . S
H484 C494 0.930 . S
H485 C495 0.930 . S
C486 H480 0.930 . S
C486 C487 1.355 . S
C486 C488 1.415 1_565 S
C487 C486 1.355 . S
C487 C489 1.419 1_455 S
C488 C486 1.415 1_545 S
C488 C493 1.425 1_445 S
C488 C495 1.409 . S
C489 H481 0.930 . S
C489 C487 1.419 1_655 S
C489 C490 1.362 . S
C490 H482 0.930 . S
C490 C489 1.362 . S
C490 C493 1.409 . S
C491 H483 0.930 . S
C491 C492 1.355 . S
C491 C493 1.415 1_545 S
C492 C491 1.355 . S
C492 C494 1.419 1_655 S
C493 C488 1.425 1_665 S
C493 C490 1.409 . S
C493 C491 1.415 1_565 S
C494 H484 0.930 . S
C494 C492 1.419 1_455 S
C494 C495 1.362 . S
C495 H485 0.930 . S
C495 C488 1.409 . S
C495 C494 1.362 . S
H496 C502 0.930 . S
H497 C505 0.930 . S
H498 C506 0.930 . S
H499 C507 0.930 . S
H500 C510 0.930 . S
H501 C511 0.930 . S
C502 H496 0.930 . S
C502 C503 1.355 . S
C502 C504 1.415 1_455 S
C503 C502 1.355 . S
C503 C505 1.419 1_565 S
C504 C502 1.415 1_655 S
C504 C509 1.425 1_665 S
C504 C511 1.409 . S
C505 H497 0.930 . S
C505 C503 1.419 1_545 S
C505 C506 1.362 . S
C506 H498 0.930 . S
C506 C505 1.362 . S
C506 C509 1.409 . S
C507 H499 0.930 . S
C507 C508 1.355 . S
C507 C509 1.415 1_655 S
C508 C507 1.355 . S
C508 C510 1.419 1_545 S
C509 C504 1.425 1_445 S
C509 C506 1.409 . S
C509 C507 1.415 1_455 S
C510 H500 0.930 . S
C510 C508 1.419 1_565 S
C510 C511 1.362 . S
C511 H501 0.930 . S
C511 C504 1.409 . S
C511 C510 1.362 . S
H512 C518 0.930 . S
H513 C521 0.930 . S
H514 C522 0.930 . S
H515 C523 0.930 . S
H516 C526 0.930 . S
H517 C527 0.930 . S
C518 H512 0.930 . S
C518 C519 1.355 . S
C518 C520 1.415 1_565 S
C519 C518 1.355 . S
C519 C521 1.419 1_655 S
C520 C518 1.415 1_545 S
C520 C525 1.425 1_645 S
C520 C527 1.409 . S
C521 H513 0.930 . S
C521 C519 1.419 1_455 S
C521 C522 1.362 . S
C522 H514 0.930 . S
C522 C521 1.362 . S
C522 C525 1.409 . S
C523 H515 0.930 . S
C523 C524 1.355 . S
C523 C525 1.415 1_545 S
C524 C523 1.355 . S
C524 C526 1.419 1_455 S
C525 C520 1.425 1_465 S
C525 C522 1.409 . S
C525 C523 1.415 1_565 S
C526 H516 0.930 . S
C526 C524 1.419 1_655 S
C526 C527 1.362 . S
C527 H517 0.930 . S
C527 C520 1.409 . S
C527 C526 1.362 . S
H528 C534 0.930 . S
H529 C537 0.930 . S
H530 C538 0.930 . S
H531 C539 0.930 . S
H532 C542 0.930 . S
H533 C543 0.930 . S
C534 H528 0.930 . S
C534 C535 1.355 . S
C534 C536 1.415 . S
C535 C534 1.355 . S
C535 C537 1.419 . S
C536 C534 1.415 . S
C536 C541 1.425 . S
C536 C543 1.409 . S
C537 H529 0.930 . S
C537 C535 1.419 . S
C537 C538 1.362 . S
C538 H530 0.930 . S
C538 C537 1.362 . S
C538 C541 1.409 . S
C539 H531 0.930 . S
C539 C540 1.355 . S
C539 C541 1.415 . S
C540 C539 1.355 . S
C540 C542 1.419 . S
C541 C536 1.425 . S
C541 C538 1.409 . S
C541 C539 1.415 . S
C542 H532 0.930 . S
C542 C540 1.419 . S
C542 C543 1.362 . S
C543 H533 0.930 . S
C543 C536 1.409 . S
C543 C542 1.362 . S
H544 C550 0.930 . S
H545 C553 0.930 . S
H546 C554 0.930 . S
H547 C555 0.930 . S
H548 C558 0.930 . S
H549 C559 0.930 . S
C550 H544 0.930 . S
C550 C551 1.355 . S
C550 C552 1.415 . S
C551 C550 1.355 . S
C551 C553 1.419 . S
C552 C550 1.415 . S
C552 C557 1.425 . S
C552 C559 1.409 . S
C553 H545 0.930 . S
C553 C551 1.419 . S
C553 C554 1.362 . S
C554 H546 0.930 . S
C554 C553 1.362 . S
C554 C557 1.409 . S
C555 H547 0.930 . S
C555 C556 1.355 . S
C555 C557 1.415 . S
C556 C555 1.355 . S
C556 C558 1.419 . S
C557 C552 1.425 . S
C557 C554 1.409 . S
C557 C555 1.415 . S
C558 H548 0.930 . S
C558 C556 1.419 . S
C558 C559 1.362 . S
C559 H549 0.930 . S
C559 C552 1.409 . S
C559 C558 1.362 . S
H560 C566 0.930 . S
H561 C569 0.930 . S
H562 C570 0.930 . S
H563 C571 0.930 . S
H564 C574 0.930 . S
H565 C575 0.930 . S
C566 H560 0.930 . S
C566 C567 1.355 . S
C566 C568 1.415 . S
C567 C566 1.355 . S
C567 C569 1.419 . S
C568 C566 1.415 . S
C568 C573 1.425 . S
C568 C575 1.409 . S
C569 H561 0.930 . S
C569 C567 1.419 . S
C569 C570 1.362 . S
C570 H562 0.930 . S
C570 C569 1.362 . S
C570 C573 1.409 . S
C571 H563 0.930 . S
C571 C572 1.355 . S
C571 C573 1.415 . S
C572 C571 1.355 . S
C572 C574 1.419 . S
C573 C568 1.425 . S
C573 C570 1.409 . S
C573 C571 1.415 . S
C574 H564 0.930 . S
C574 C572 1.419 . S
C574 C575 1.362 . S
C575 H565 0.930 . S
C575 C568 1.409 . S
C575 C574 1.362 . S
H576 C582 0.930 . S
H577 C585 0.930 . S
H578 C586 0.930 . S
H579 C587 0.930 . S
H580 C590 0.930 . S
H581 C591 0.930 . S
C582 H576 0.930 . S
C582 C583 1.355 . S
C582 C584 1.415 . S
C583 C582 1.355 . S
C583 C585 1.419 . S
C584 C582 1.415 . S
C584 C589 1.425 . S
C584 C591 1.409 . S
C585 H577 0.930 . S
C585 C583 1.419 . S
C585 C586 1.362 . S
C586 H578 0.930 . S
C586 C585 1.362 . S
C586 C589 1.409 . S
C587 H579 0.930 . S
C587 C588 1.355 . S
C587 C589 1.415 . S
C588 C587 1.355 . S
C588 C590 1.419 . S
C589 C584 1.425 . S
C589 C586 1.409 . S
C589 C587 1.415 . S
C590 H580 0.930 . S
C590 C588 1.419 . S
C590 C591 1.362 . S
C591 H581 0.930 . S
C591 C584 1.409 . S
C591 C590 1.362 . S
C279 C5 1.009 . S
C284 C67 1.037 . S
C295 C101 0.933 . S
C300 C39 0.978 . S
C311 C73 0.993 . S
C316 C135 0.910 . S
C327 C33 1.008 . S
C332 C107 1.035 . S
C343 C271 0.969 . S
C348 C141 0.968 . S
C359 C169 1.038 . S
C364 C175 1.003 . S
C375 C203 0.967 . S
C380 C209 0.969 . S
C391 C243 0.984 . S
C396 C237 1.031 . S
C407 C88 1.596 . S
C412 C20 1.610 . S
C423 C54 1.583 . S
C428 C122 1.570 . S
C439 C156 1.619 . S
C444 C224 1.606 . S
C455 C190 1.581 . S
C460 C258 1.569 . S
C471 C2 1.222 . S
C476 C70 1.251 . S
C487 C36 1.228 . S
C492 C104 1.231 . S
C503 C206 1.215 . S
C508 C138 1.246 . S
C519 C240 1.233 . S
C524 C172 1.226 . S
C535 C9 1.765 . S
C540 C179 1.776 . S
C551 C213 1.752 . S
C556 C43 1.769 . S
C567 C247 1.776 . S
C572 C77 1.765 . S
C583 C111 1.749 . S
C588 C145 1.753 . S
