# Generated by pormake.
# Topology snp, (6)-cn, num edge types: 1
# Building blocks:
#     Node 0, Type 0, BuildingBlock: LEVNOQ01_clean_sbu_1, # of connection points: 6
#     Node 1, Type 0, BuildingBlock: LEVNOQ01_clean_sbu_1, # of connection points: 6
#     Node 2, Type 0, BuildingBlock: LEVNOQ01_clean_sbu_1, # of connection points: 6
#     Node 3, Type 0, BuildingBlock: LEVNOQ01_clean_sbu_1, # of connection points: 6
#     Edge 4, Type (0, 0), BuildingBlock: KIFKEQ_clean_linker_1, # of connection points: 2
#     Edge 5, Type (0, 0), BuildingBlock: KIFKEQ_clean_linker_1, # of connection points: 2
#     Edge 6, Type (0, 0), BuildingBlock: KIFKEQ_clean_linker_1, # of connection points: 2
#     Edge 7, Type (0, 0), BuildingBlock: KIFKEQ_clean_linker_1, # of connection points: 2
#     Edge 8, Type (0, 0), BuildingBlock: KIFKEQ_clean_linker_1, # of connection points: 2
#     Edge 9, Type (0, 0), BuildingBlock: KIFKEQ_clean_linker_1, # of connection points: 2
#     Edge 10, Type (0, 0), BuildingBlock: KIFKEQ_clean_linker_1, # of connection points: 2
#     Edge 11, Type (0, 0), BuildingBlock: KIFKEQ_clean_linker_1, # of connection points: 2
#     Edge 12, Type (0, 0), BuildingBlock: KIFKEQ_clean_linker_1, # of connection points: 2
#     Edge 13, Type (0, 0), BuildingBlock: KIFKEQ_clean_linker_1, # of connection points: 2
#     Edge 14, Type (0, 0), BuildingBlock: KIFKEQ_clean_linker_1, # of connection points: 2
#     Edge 15, Type (0, 0), BuildingBlock: KIFKEQ_clean_linker_1, # of connection points: 2
# Relax obj value: 0.509
# Max RMSD: 0.249
# Mean RMSD: 0.247
data_MOF--net-snp--node1-LEVNOQ01_clean_sbu_1--edge1-KIFKEQ_clean_linker_1
_symmetry_space_group_name_H-M    P1
_symmetry_Int_Tables_number       1
_symmetry_cell_setting            triclinic
loop_
_symmetry_equiv_pos_as_xyz
'x, y, z'
_cell_length_a     26.514227
_cell_length_b     26.478722
_cell_length_c     25.371156
_cell_angle_alpha  100.56675
_cell_angle_beta   100.46748
_cell_angle_gamma 92.531425
loop_
_atom_site_label
_atom_site_type_symbol
_atom_site_fract_x
_atom_site_fract_y
_atom_site_fract_z
_atom_type_partial_charge
O0 O 0.17052 0.11512 0.03035 0.0
Mg1 Mg 0.12963 0.04124 0.01497 0.0
O2 O 0.24476 0.07969 0.04201 0.0
Mg3 Mg 0.23799 0.01563 0.09429 0.0
O4 O 0.15499 0.01577 0.08291 0.0
O5 O 0.07264 0.01489 0.0564 0.0
O6 O 0.22923 0.94838 0.14204 0.0
O7 O 0.24353 0.07645 0.17453 0.0
Mg8 Mg 0.33883 -0.00157 0.18449 0.0
O9 O 0.32336 0.01897 0.11078 0.0
O10 O 0.30453 0.92338 0.17747 0.0
O11 O 0.30914 0.05869 0.23514 0.0
O12 O 0.40317 0.01505 0.15242 0.0
C13 C 0.19711 0.95368 0.96616 0.0
C14 C 0.21725 0.11422 0.02517 0.0
C15 C 0.11037 -0.00075 0.08721 0.0
C16 C 0.25583 0.91689 0.16588 0.0
C17 C 0.27162 0.08544 0.22246 0.0
C18 C 0.3717 0.0267 0.11218 0.0
O19 O 0.16041 0.98318 0.95967 0.0
O20 O 0.22856 0.95689 0.01183 0.0
O21 O 0.98652 0.27861 0.71666 0.0
Mg22 Mg 0.04687 0.31203 0.68594 0.0
O23 O 0.95585 0.2258 0.63773 0.0
Mg24 Mg 0.0191 0.23563 0.58816 0.0
O25 O 0.01939 0.32488 0.60986 0.0
O26 O 0.04377 0.38723 0.68504 0.0
O27 O 0.08279 0.24777 0.53681 0.0
O28 O 0.95864 0.23724 0.50933 0.0
Mg29 Mg 0.04333 0.13912 0.49926 0.0
O30 O 0.0107 0.15137 0.56438 0.0
O31 O 0.11903 0.17459 0.52933 0.0
O32 O 0.9901 0.17965 0.44917 0.0
O33 O 0.01289 0.0724 0.52214 0.0
C34 C 0.12204 0.24541 0.69537 0.0
C35 C 0.95238 0.24509 0.68674 0.0
C36 C 0.02462 0.37315 0.63363 0.0
C37 C 0.12007 0.22159 0.52554 0.0
C38 C 0.9586 0.21355 0.46032 0.0
C39 C -0.00507 0.10397 0.55777 0.0
O40 O 0.12291 0.29376 0.70514 0.0
O41 O 0.0843 0.21969 0.66088 0.0
O42 O 0.72214 0.01493 0.86429 0.0
Mg43 Mg 0.69938 0.95304 0.90098 0.0
O44 O 0.78094 0.0517 0.93682 0.0
Mg45 Mg 0.7848 0.00293 1.00308 0.0
O46 O 0.69802 0.9848 0.98063 0.0
O47 O 0.6281 0.94873 0.92004 0.0
O48 O 0.79258 0.96004 0.07409 0.0
O49 O 0.77089 0.07491 0.06849 0.0
Mg50 Mg 0.88534 0.06621 0.09466 0.0
O51 O 0.86852 0.01911 0.02292 0.0
O52 O 0.85032 0.01403 0.13809 0.0
O53 O 0.83957 0.12628 0.07422 0.0
O54 O 0.9491 0.03807 0.05909 0.0
C55 C 0.78501 0.89156 0.90581 0.0
C56 C 0.75647 0.05096 0.88846 0.0
C57 C 0.6487 0.97454 0.96794 0.0
C58 C 0.81795 0.97413 0.12322 0.0
C59 C 0.79636 0.11877 0.0873 0.0
C60 C 0.91491 0.00818 0.02312 0.0
O61 O 0.73696 0.8848 0.88866 0.0
O62 O 0.80411 0.93143 0.94182 0.0
O63 O 0.95945 0.71344 0.3546 0.0
Mg64 Mg 0.00501 0.66415 0.39667 0.0
O65 O 0.94655 0.76725 0.42766 0.0
Mg66 Mg 0.01524 0.75741 0.49473 0.0
O67 O -0.00124 0.67104 0.47769 0.0
O68 O 0.95478 0.60999 0.41203 0.0
O69 O 0.0833 0.75103 0.56701 0.0
O70 O 0.96712 0.76964 0.56289 0.0
Mg71 Mg 0.07206 0.86629 0.57856 0.0
O72 O 0.02911 0.84083 0.50603 0.0
O73 O 0.13437 0.81939 0.57028 0.0
O74 O 0.01581 0.83664 0.6204 0.0
O75 O 0.04479 0.92333 0.53184 0.0
C76 C 0.09637 0.72248 0.40353 0.0
C77 C 0.93602 0.74996 0.37628 0.0
C78 C 0.96041 0.63642 0.46109 0.0
C79 C 0.12575 0.77842 0.58746 0.0
C80 C 0.97787 0.80204 0.60859 0.0
C81 C 0.0169 0.88543 0.49895 0.0
O82 O 0.08328 0.67443 0.39171 0.0
O83 O 0.07237 0.75273 0.43395 0.0
H84 H 0.98725 0.97907 0.9622 0.0
H85 H 0.87235 0.91853 0.03926 0.0
H86 H 0.03633 0.90581 0.97344 0.0
H87 H 0.92394 0.84739 0.05535 0.0
H88 H 0.05143 0.97883 0.16048 0.0
H89 H 0.99149 0.9031 0.13241 0.0
H90 H 0.0839 0.83482 0.02015 0.0
H91 H 0.14752 0.90772 0.05279 0.0
C92 C 0.97135 0.94876 0.97929 0.0
C93 C 0.92754 0.95569 1.00243 0.0
C94 C -0.00072 0.90611 0.9857 0.0
C95 C 0.98677 0.87407 0.02115 0.0
C96 C 0.93613 0.87318 0.03067 0.0
C97 C 0.90682 0.9147 0.0222 0.0
C98 C 0.06134 0.94587 0.13323 0.0
C99 C 0.1019 0.95068 0.10553 0.0
C100 C 0.02682 0.90194 0.11659 0.0
C101 C 0.02917 0.86862 0.06696 0.0
C102 C 0.07858 0.8635 0.05466 0.0
C103 C 0.11506 0.90599 0.07307 0.0
H104 H 0.98546 0.94801 0.42708 0.0
H105 H 0.92903 0.84515 0.52023 0.0
H106 H 0.91397 -0.00011 0.43762 0.0
H107 H 0.8591 0.89889 0.53411 0.0
H108 H 0.89957 0.12262 0.5114 0.0
H109 H 0.83936 0.04707 0.47623 0.0
H110 H 0.91721 0.97277 0.60188 0.0
H111 H 0.98012 0.04579 0.63308 0.0
C112 C 0.95593 0.93464 0.44687 0.0
C113 C 0.96402 0.8941 0.47503 0.0
C114 C 0.91439 0.96435 0.45303 0.0
C115 C 0.88359 0.95594 0.4911 0.0
C116 C 0.88364 0.90769 0.50664 0.0
C117 C 0.92443 0.87713 0.49928 0.0
C118 C 0.90169 0.09147 0.53392 0.0
C119 C 0.94641 0.08797 0.57213 0.0
C120 C 0.86666 0.04807 0.51385 0.0
C121 C 0.87757 0.00207 0.53228 0.0
C122 C 0.91044 0.00638 0.58363 0.0
C123 C 0.94691 0.04856 0.60209 0.0
H124 H 0.64175 0.07723 0.99379 0.0
H125 H 0.5761 0.92984 0.00902 0.0
H126 H 0.56237 0.11675 0.0109 0.0
H127 H 0.498 0.96885 0.02691 0.0
H128 H 0.3571 -0.00039 1.00159 0.0
H129 H 0.42884 0.01029 0.95549 0.0
H130 H 0.50622 0.12376 0.0944 0.0
H131 H 0.43407 0.11407 0.13967 0.0
C132 C 0.61115 0.05399 1.00322 0.0
C133 C 0.61444 0.00075 1.00051 0.0
C134 C 0.56561 0.07621 0.01151 0.0
C135 C 0.52347 0.04501 0.01685 0.0
C136 C 0.52923 0.99304 0.01995 0.0
C137 C 0.57425 0.971 0.01144 0.0
C138 C 0.38756 0.02963 0.02032 0.0
C139 C 0.3921 0.0541 0.07483 0.0
C140 C 0.42862 0.03585 0.99404 0.0
C141 C 0.47387 0.06544 0.02329 0.0
C142 C 0.47224 0.09963 0.07189 0.0
C143 C 0.43106 0.09378 0.09789 0.0
H144 H 0.07132 0.46004 0.61923 0.0
H145 H 0.92391 0.37377 0.59075 0.0
H146 H 0.0292 0.5342 0.59436 0.0
H147 H 0.8806 0.44921 0.56766 0.0
H148 H 0.88021 0.56302 0.43787 0.0
H149 H 0.87529 0.49876 0.49367 0.0
H150 H 0.97305 0.60028 0.63011 0.0
H151 H 0.98091 0.66351 0.57302 0.0
C152 C 0.02978 0.45714 0.60695 0.0
C153 C 0.00064 0.41171 0.60589 0.0
C154 C 0.00541 0.49986 0.59436 0.0
C155 C 0.95131 0.49827 0.58179 0.0
C156 C 0.9222 0.4518 0.57851 0.0
C157 C 0.94687 0.40858 0.59044 0.0
C158 C 0.89901 0.57257 0.48049 0.0
C159 C 0.93479 0.6157 0.5001 0.0
C160 C 0.89554 0.53588 0.51276 0.0
C161 C 0.92737 0.54327 0.56452 0.0
C162 C 0.9506 0.5929 0.5889 0.0
C163 C 0.95523 0.62908 0.5562 0.0
H164 H 0.08106 0.23289 0.42337 0.0
H165 H 0.22418 0.23711 0.53665 0.0
H166 H 0.12558 0.21704 0.34737 0.0
H167 H 0.27044 0.22688 0.46106 0.0
H168 H 0.30796 0.0982 0.33145 0.0
H169 H 0.27904 0.15307 0.4043 0.0
H170 H 0.17878 0.2212 0.28656 0.0
H171 H 0.20597 0.16265 0.21254 0.0
C172 C 0.12268 0.23358 0.43205 0.0
C173 C 0.14925 0.23561 0.48562 0.0
C174 C 0.14851 0.22444 0.38827 0.0
C175 C 0.20173 0.21833 0.39747 0.0
C176 C 0.22913 0.22862 0.45198 0.0
C177 C 0.20294 0.23563 0.4956 0.0
C178 C 0.28019 0.12526 0.32081 0.0
C179 C 0.25855 0.12519 0.26605 0.0
C180 C 0.26389 0.15767 0.36305 0.0
C181 C 0.226 0.19196 0.35206 0.0
C182 C 0.20704 0.19459 0.29699 0.0
C183 C 0.22275 0.16115 0.25442 0.0
H184 H 0.89007 0.15612 0.64903 0.0
H185 H 0.91867 0.29166 0.77765 0.0
H186 H 0.83037 0.11851 0.69616 0.0
H187 H 0.85745 0.25479 0.82399 0.0
H188 H 0.83125 0.12996 0.92603 0.0
H189 H 0.86642 0.1855 0.87351 0.0
H190 H 0.75112 0.11853 0.73124 0.0
H191 H 0.71643 0.06148 0.78377 0.0
C192 C 0.88262 0.17842 0.68669 0.0
C193 C 0.90997 0.22623 0.71035 0.0
C194 C 0.84801 0.15705 0.71354 0.0
C195 C 0.83968 0.18337 0.76427 0.0
C196 C 0.86392 0.23308 0.78558 0.0
C197 C 0.89896 0.25418 0.75905 0.0
C198 C 0.81272 0.12751 0.8838 0.0
C199 C 0.77169 0.09047 0.85878 0.0
C200 C 0.83266 0.15983 0.85372 0.0
C201 C 0.81189 0.15613 0.79797 0.0
C202 C 0.76849 0.12166 0.7739 0.0
C203 C 0.74856 0.0891 0.80404 0.0
H204 H 0.87007 0.8231 0.40468 0.0
H205 H 0.9189 0.7337 0.26532 0.0
H206 H 0.82375 0.87605 0.34545 0.0
H207 H 0.87193 0.78506 0.20645 0.0
H208 H 0.77876 0.87356 0.10295 0.0
H209 H 0.78901 0.81429 0.16663 0.0
H210 H 0.85947 0.93963 0.29727 0.0
H211 H 0.84854 -0.00103 0.23409 0.0
C212 C 0.87078 0.81465 0.36158 0.0
C213 C 0.89988 0.77565 0.34018 0.0
C214 C 0.84377 0.8445 0.32757 0.0
C215 C 0.84458 0.83499 0.27137 0.0
C216 C 0.8701 0.79315 0.24945 0.0
C217 C 0.89745 0.76387 0.28343 0.0
C218 C 0.79511 0.88875 0.14556 0.0
C219 C 0.81399 0.9407 0.16324 0.0
C220 C 0.80109 0.85476 0.18196 0.0
C221 C 0.82578 0.87218 0.23667 0.0
C222 C 0.84016 0.92503 0.25541 0.0
C223 C 0.83442 0.95895 0.21901 0.0
H224 H 0.0799 0.75168 0.66798 0.0
H225 H 0.2244 0.81077 0.63851 0.0
H226 H 0.10837 0.78427 0.76547 0.0
H227 H 0.25389 0.84169 0.73647 0.0
H228 H 0.23492 0.9726 0.87952 0.0
H229 H 0.22812 0.91522 0.7914 0.0
H230 H 0.16222 0.79196 0.85454 0.0
H231 H 0.16878 0.85057 0.94308 0.0
C232 C 0.11881 0.76929 0.6825 0.0
C233 C 0.14973 0.77911 0.64529 0.0
C234 C 0.13517 0.78826 0.73869 0.0
C235 C 0.18301 0.81692 0.75893 0.0
C236 C 0.21623 0.82112 0.72224 0.0
C237 C 0.19965 0.80276 0.66608 0.0
C238 C 0.2205 0.93278 0.8749 0.0
C239 C 0.20305 0.91565 0.91796 0.0
C240 C 0.21669 0.89965 0.82443 0.0
C241 C 0.19472 0.84863 0.81557 0.0
C242 C 0.17915 0.83095 0.85973 0.0
C243 C 0.18335 0.86422 0.91054 0.0
H244 H 0.76081 0.79939 0.83259 0.0
H245 H 0.88304 0.9192 0.90018 0.0
H246 H 0.80664 0.76738 0.75893 0.0
H247 H 0.93019 0.88515 0.83053 0.0
H248 H 0.94109 0.88694 0.65717 0.0
H249 H 0.8967 0.89665 0.73362 0.0
H250 H 0.89332 0.73254 0.72824 0.0
H251 H 0.93801 0.72268 0.64991 0.0
C252 C 0.79855 0.81734 0.83349 0.0
C253 C 0.8186 0.86174 0.873 0.0
C254 C 0.82476 0.79887 0.79138 0.0
C255 C 0.87143 0.82447 0.78852 0.0
C256 C 0.89391 0.86505 0.83135 0.0
C257 C 0.86748 0.88388 0.87248 0.0
C258 C 0.93048 0.8528 0.6719 0.0
C259 C 0.94352 0.80423 0.64835 0.0
C260 C 0.90537 0.85836 0.71587 0.0
C261 C 0.89302 0.81555 0.73791 0.0
C262 C 0.90297 0.76619 0.71228 0.0
C263 C 0.9282 0.76053 0.66753 0.0
H264 H 0.29304 0.8285 0.19349 0.0
H265 H 0.16245 0.92013 0.19579 0.0
H266 H 0.2592 0.77627 0.25159 0.0
H267 H 0.1285 0.86774 0.25276 0.0
H268 H 0.12894 0.82372 0.41641 0.0
H269 H 0.16703 0.8643 0.35288 0.0
H270 H 0.17974 0.7149 0.25645 0.0
H271 H 0.14088 0.67361 0.32003 0.0
C272 C 0.25646 0.8366 0.20514 0.0
C273 C 0.23026 0.87836 0.18987 0.0
C274 C 0.23719 0.80673 0.23835 0.0
C275 C 0.1918 0.81864 0.25739 0.0
C276 C 0.16403 0.85825 0.23928 0.0
C277 C 0.183 0.88772 0.2058 0.0
C278 C 0.14056 0.79924 0.38227 0.0
C279 C 0.13093 0.74537 0.37282 0.0
C280 C 0.16197 0.82261 0.34561 0.0
C281 C 0.17489 0.79274 0.29899 0.0
C282 C 0.16952 0.73876 0.29182 0.0
C283 C 0.14752 0.71521 0.32838 0.0
H284 H 0.20859 0.28992 0.76719 0.0
H285 H 0.11559 0.14524 0.71089 0.0
H286 H 0.25142 0.25867 0.84703 0.0
H287 H 0.15961 0.11374 0.79063 0.0
H288 H 0.20241 0.21183 0.00908 0.0
H289 H 0.19768 0.24085 0.92237 0.0
H290 H 0.25093 0.09704 0.85149 0.0
H291 H 0.25789 0.06889 0.93916 0.0
C292 C 0.19834 0.25084 0.77088 0.0
C293 C 0.15768 0.22054 0.73329 0.0
C294 C 0.22304 0.23302 0.81665 0.0
C295 C 0.20833 0.18417 0.82535 0.0
C296 C 0.17178 0.15159 0.78478 0.0
C297 C 0.14651 0.16966 0.73912 0.0
C298 C 0.21559 0.18757 0.97585 0.0
C299 C 0.23102 0.13844 0.98109 0.0
C300 C 0.21264 0.20398 0.9261 0.0
C301 C 0.22362 0.171 0.88016 0.0
C302 C 0.24232 0.1232 0.88629 0.0
C303 C 0.24681 0.10741 0.93663 0.0
H304 H 0.76639 0.08059 0.17099 0.0
H305 H 0.81989 0.22121 0.12838 0.0
H306 H 0.79311 0.11879 0.26744 0.0
H307 H 0.84485 0.26043 0.22509 0.0
H308 H 0.97625 0.252 0.37351 0.0
H309 H 0.91877 0.24188 0.28533 0.0
H310 H 0.79629 0.17963 0.35217 0.0
H311 H 0.85485 0.19001 0.44102 0.0
C312 C 0.78121 0.12067 0.18213 0.0
C313 C 0.79149 0.1477 0.14188 0.0
C314 C 0.7968 0.14268 0.23776 0.0
C315 C 0.82246 0.19239 0.25428 0.0
C316 C 0.82649 0.2216 0.21392 0.0
C317 C 0.81154 0.19939 0.15839 0.0
C318 C 0.93643 0.23818 0.36984 0.0
C319 C 0.91979 0.22228 0.41399 0.0
C320 C 0.90324 0.23233 0.31923 0.0
C321 C 0.85269 0.20954 0.31119 0.0
C322 C 0.83499 0.19694 0.35668 0.0
C323 C 0.86825 0.20345 0.40773 0.0
loop_
_geom_bond_atom_site_label_1
_geom_bond_atom_site_label_2
_geom_bond_distance
_geom_bond_site_symmetry_2
_ccdc_geom_bond_type
O0 Mg1 1.990 . S
O0 C14 1.253 . S
Mg1 O0 1.990 . S
Mg1 O4 2.180 1_556 S
Mg1 O5 2.117 1_556 S
Mg1 O19 2.030 1_545 S
O2 Mg3 2.072 . S
O2 C14 1.260 1_554 S
Mg3 O2 2.072 . S
Mg3 O4 2.099 . S
Mg3 O6 2.079 1_545 S
Mg3 O7 2.072 . S
Mg3 O9 2.099 . S
Mg3 O20 2.079 1_544 S
O4 Mg1 2.180 1_554 S
O4 Mg3 2.099 . S
O4 C15 1.279 . S
O5 Mg1 2.117 1_554 S
O5 C15 1.250 . S
O6 Mg3 2.079 1_565 S
O6 C16 1.264 . S
O7 Mg3 2.072 . S
O7 C17 1.260 . S
Mg8 O9 2.180 . S
Mg8 O10 2.030 1_545 S
Mg8 O11 1.990 . S
Mg8 O12 2.117 . S
O9 Mg3 2.099 . S
O9 Mg8 2.180 . S
O9 C18 1.279 . S
O10 Mg8 2.030 1_565 S
O10 C16 1.248 . S
O11 Mg8 1.990 . S
O11 C17 1.253 . S
O12 Mg8 2.117 . S
O12 C18 1.250 . S
C13 O19 1.248 . S
C13 O20 1.264 . S
C14 O0 1.253 . S
C14 O2 1.260 1_556 S
C15 O4 1.279 . S
C15 O5 1.250 . S
C16 O6 1.264 . S
C16 O10 1.248 . S
C17 O7 1.260 . S
C17 O11 1.253 . S
C18 O9 1.279 . S
C18 O12 1.250 . S
O19 Mg1 2.030 1_565 S
O19 C13 1.248 . S
O20 Mg3 2.079 1_566 S
O20 C13 1.264 . S
O21 Mg22 1.990 1_655 S
O21 C35 1.253 . S
Mg22 O21 1.990 1_455 S
Mg22 O25 2.180 . S
Mg22 O26 2.117 1_455 S
Mg22 O40 2.030 . S
O23 Mg24 2.072 1_655 S
O23 C35 1.260 . S
Mg24 O23 2.072 1_455 S
Mg24 O25 2.099 . S
Mg24 O27 2.079 . S
Mg24 O28 2.072 1_455 S
Mg24 O30 2.099 . S
Mg24 O41 2.079 . S
O25 Mg22 2.180 . S
O25 Mg24 2.099 . S
O25 C36 1.279 . S
O26 Mg22 2.117 1_655 S
O26 C36 1.250 1_655 S
O27 Mg24 2.079 . S
O27 C37 1.264 . S
O28 Mg24 2.072 1_655 S
O28 C38 1.260 . S
Mg29 O30 2.180 . S
Mg29 O31 2.030 . S
Mg29 O32 1.990 1_455 S
Mg29 O33 2.117 1_455 S
O30 Mg24 2.099 . S
O30 Mg29 2.180 . S
O30 C39 1.279 . S
O31 Mg29 2.030 . S
O31 C37 1.248 . S
O32 Mg29 1.990 1_655 S
O32 C38 1.253 . S
O33 Mg29 2.117 1_655 S
O33 C39 1.250 1_655 S
C34 O40 1.248 . S
C34 O41 1.264 . S
C35 O21 1.253 . S
C35 O23 1.260 . S
C36 O25 1.279 . S
C36 O26 1.250 1_455 S
C37 O27 1.264 . S
C37 O31 1.248 . S
C38 O28 1.260 . S
C38 O32 1.253 . S
C39 O30 1.279 . S
C39 O33 1.250 1_455 S
O40 Mg22 2.030 . S
O40 C34 1.248 . S
O41 Mg24 2.079 . S
O41 C34 1.264 . S
O42 Mg43 1.990 1_545 S
O42 C56 1.253 . S
Mg43 O42 1.990 1_565 S
Mg43 O46 2.180 . S
Mg43 O47 2.117 1_565 S
Mg43 O61 2.030 . S
O44 Mg45 2.072 1_546 S
O44 C56 1.260 . S
Mg45 O44 2.072 1_564 S
Mg45 O46 2.099 1_554 S
Mg45 O48 2.079 . S
Mg45 O49 2.072 1_565 S
Mg45 O51 2.099 . S
Mg45 O62 2.079 1_554 S
O46 Mg43 2.180 . S
O46 Mg45 2.099 1_556 S
O46 C57 1.279 1_565 S
O47 Mg43 2.117 1_545 S
O47 C57 1.250 . S
O48 Mg45 2.079 . S
O48 C58 1.264 . S
O49 Mg45 2.072 1_545 S
O49 C59 1.260 . S
Mg50 O51 2.181 1_545 S
Mg50 O52 2.020 1_545 S
Mg50 O53 2.003 . S
Mg50 O54 2.124 . S
O51 Mg45 2.099 . S
O51 Mg50 2.181 1_565 S
O51 C60 1.279 1_565 S
O52 Mg50 2.020 1_565 S
O52 C58 1.248 . S
O53 Mg50 2.003 . S
O53 C59 1.253 . S
O54 Mg50 2.124 . S
O54 C60 1.250 . S
C55 O61 1.248 . S
C55 O62 1.264 . S
C56 O42 1.253 . S
C56 O44 1.260 . S
C57 O46 1.279 1_545 S
C57 O47 1.250 . S
C58 O48 1.264 . S
C58 O52 1.248 . S
C59 O49 1.260 . S
C59 O53 1.253 . S
C60 O51 1.279 1_545 S
C60 O54 1.250 . S
O61 Mg43 2.030 . S
O61 C55 1.248 . S
O62 Mg45 2.079 1_556 S
O62 C55 1.264 . S
O63 Mg64 1.990 1_655 S
O63 C77 1.253 . S
Mg64 O63 1.990 1_455 S
Mg64 O67 2.180 . S
Mg64 O68 2.117 1_455 S
Mg64 O82 2.030 . S
O65 Mg66 2.072 1_655 S
O65 C77 1.260 . S
Mg66 O65 2.072 1_455 S
Mg66 O67 2.099 . S
Mg66 O69 2.079 . S
Mg66 O70 2.072 1_455 S
Mg66 O72 2.099 . S
Mg66 O83 2.079 . S
O67 Mg64 2.180 . S
O67 Mg66 2.099 . S
O67 C78 1.279 1_455 S
O68 Mg64 2.117 1_655 S
O68 C78 1.250 . S
O69 Mg66 2.079 . S
O69 C79 1.264 . S
O70 Mg66 2.072 1_655 S
O70 C80 1.260 . S
Mg71 O72 2.180 . S
Mg71 O73 2.030 . S
Mg71 O74 1.990 1_455 S
Mg71 O75 2.117 1_455 S
O72 Mg66 2.099 . S
O72 Mg71 2.180 . S
O72 C81 1.279 1_455 S
O73 Mg71 2.030 . S
O73 C79 1.248 . S
O74 Mg71 1.990 1_655 S
O74 C80 1.253 . S
O75 Mg71 2.117 1_655 S
O75 C81 1.250 . S
C76 O82 1.248 . S
C76 O83 1.264 . S
C77 O63 1.253 . S
C77 O65 1.260 . S
C78 O67 1.279 1_655 S
C78 O68 1.250 . S
C79 O69 1.264 . S
C79 O73 1.248 . S
C80 O70 1.260 . S
C80 O74 1.253 . S
C81 O72 1.279 1_655 S
C81 O75 1.250 . S
O82 Mg64 2.030 . S
O82 C76 1.248 . S
O83 Mg66 2.079 . S
O83 C76 1.264 . S
H84 C92 0.950 . S
H85 C97 0.950 . S
H86 C94 0.950 . S
H87 C96 0.950 . S
H88 C98 0.950 . S
H89 C100 0.950 . S
H90 C102 0.950 1_556 S
H91 C103 0.952 . S
C92 H84 0.950 . S
C92 C93 1.386 . S
C92 C94 1.391 . S
C93 C92 1.386 . S
C93 C97 1.393 1_556 S
C94 H86 0.950 . S
C94 C92 1.391 . S
C94 C95 1.400 1_556 S
C95 C94 1.400 1_554 S
C95 C96 1.398 . S
C95 C101 1.491 1_655 S
C96 H87 0.950 . S
C96 C95 1.398 . S
C96 C97 1.391 . S
C97 H85 0.950 . S
C97 C93 1.393 1_554 S
C97 C96 1.391 . S
C98 H88 0.950 . S
C98 C99 1.386 . S
C98 C100 1.391 . S
C99 C98 1.386 . S
C99 C103 1.393 . S
C100 H89 0.950 . S
C100 C98 1.391 . S
C100 C101 1.400 . S
C101 C95 1.491 1_455 S
C101 C100 1.400 . S
C101 C102 1.398 . S
C102 H90 0.950 1_554 S
C102 C101 1.398 . S
C102 C103 1.391 . S
C103 H91 0.952 . S
C103 C99 1.393 . S
C103 C102 1.391 . S
H104 C112 0.950 . S
H105 C117 0.950 . S
H106 C114 0.950 . S
H107 C116 0.950 . S
H108 C118 0.950 . S
H109 C120 0.950 . S
H110 C122 0.950 . S
H111 C123 0.950 . S
C112 H104 0.950 . S
C112 C113 1.386 1_455 S
C112 C114 1.391 . S
C113 C112 1.386 1_655 S
C113 C117 1.393 . S
C114 H106 0.950 . S
C114 C112 1.391 . S
C114 C115 1.400 1_455 S
C115 C114 1.400 1_655 S
C115 C116 1.398 . S
C115 C121 1.491 1_665 S
C116 H107 0.950 . S
C116 C115 1.398 . S
C116 C117 1.391 . S
C117 H105 0.950 . S
C117 C113 1.393 . S
C117 C116 1.391 . S
C118 H108 0.950 . S
C118 C119 1.386 1_655 S
C118 C120 1.391 . S
C119 C118 1.386 1_455 S
C119 C123 1.393 . S
C120 H109 0.950 . S
C120 C118 1.391 . S
C120 C121 1.400 1_655 S
C121 C115 1.491 1_445 S
C121 C120 1.400 1_455 S
C121 C122 1.398 . S
C122 H110 0.950 . S
C122 C121 1.398 . S
C122 C123 1.391 . S
C123 H111 0.950 . S
C123 C119 1.393 . S
C123 C122 1.391 . S
H124 C132 0.950 . S
H125 C137 0.950 . S
H126 C134 0.950 . S
H127 C136 0.950 1_556 S
H128 C138 0.950 . S
H129 C140 0.950 . S
H130 C142 0.950 . S
H131 C143 0.950 . S
C132 H124 0.950 . S
C132 C133 1.386 . S
C132 C134 1.391 . S
C133 C132 1.386 . S
C133 C137 1.393 1_544 S
C134 H126 0.950 . S
C134 C132 1.391 . S
C134 C135 1.400 . S
C135 C134 1.400 . S
C135 C136 1.398 1_545 S
C135 C141 1.491 . S
C136 H127 0.950 1_554 S
C136 C135 1.398 1_565 S
C136 C137 1.391 1_554 S
C137 H125 0.950 . S
C137 C133 1.393 1_566 S
C137 C136 1.391 1_556 S
C138 H128 0.950 . S
C138 C139 1.386 1_565 S
C138 C140 1.391 . S
C139 C138 1.386 1_545 S
C139 C143 1.393 . S
C140 H129 0.950 . S
C140 C138 1.391 . S
C140 C141 1.400 1_565 S
C141 C135 1.491 . S
C141 C140 1.400 1_545 S
C141 C142 1.398 . S
C142 H130 0.950 . S
C142 C141 1.398 . S
C142 C143 1.391 . S
C143 H131 0.950 . S
C143 C139 1.393 . S
C143 C142 1.391 . S
H144 C152 0.950 . S
H145 C157 0.950 . S
H146 C154 0.950 . S
H147 C156 0.950 . S
H148 C158 0.950 . S
H149 C160 0.950 . S
H150 C162 0.950 . S
H151 C163 0.950 . S
C152 H144 0.950 . S
C152 C153 1.386 . S
C152 C154 1.391 . S
C153 C152 1.386 . S
C153 C157 1.393 1_455 S
C154 H146 0.950 . S
C154 C152 1.391 . S
C154 C155 1.400 . S
C155 C154 1.400 . S
C155 C156 1.398 1_455 S
C155 C161 1.490 . S
C156 H147 0.950 . S
C156 C155 1.398 1_655 S
C156 C157 1.391 . S
C157 H145 0.950 . S
C157 C153 1.393 1_655 S
C157 C156 1.391 . S
C158 H148 0.950 . S
C158 C159 1.386 . S
C158 C160 1.391 . S
C159 C158 1.386 . S
C159 C163 1.393 1_655 S
C160 H149 0.950 . S
C160 C158 1.391 . S
C160 C161 1.401 1_655 S
C161 C155 1.490 . S
C161 C160 1.401 1_455 S
C161 C162 1.398 . S
C162 H150 0.950 . S
C162 C161 1.398 . S
C162 C163 1.391 . S
C163 H151 0.950 . S
C163 C159 1.393 1_455 S
C163 C162 1.391 . S
H164 C172 0.950 . S
H165 C177 0.950 . S
H166 C174 0.950 . S
H167 C176 0.950 . S
H168 C178 0.950 . S
H169 C180 0.950 . S
H170 C182 0.950 . S
H171 C183 0.950 . S
C172 H164 0.950 . S
C172 C173 1.386 . S
C172 C174 1.391 . S
C173 C172 1.386 . S
C173 C177 1.393 . S
C174 H166 0.950 . S
C174 C172 1.391 . S
C174 C175 1.400 . S
C175 C174 1.400 . S
C175 C176 1.398 . S
C175 C181 1.491 . S
C176 H167 0.950 . S
C176 C175 1.398 . S
C176 C177 1.391 . S
C177 H165 0.950 . S
C177 C173 1.393 . S
C177 C176 1.391 . S
C178 H168 0.950 . S
C178 C179 1.386 . S
C178 C180 1.391 . S
C179 C178 1.386 . S
C179 C183 1.393 . S
C180 H169 0.950 . S
C180 C178 1.391 . S
C180 C181 1.400 . S
C181 C175 1.491 . S
C181 C180 1.400 . S
C181 C182 1.398 . S
C182 H170 0.950 . S
C182 C181 1.398 . S
C182 C183 1.391 . S
C183 H171 0.950 . S
C183 C179 1.393 . S
C183 C182 1.391 . S
H184 C192 0.950 . S
H185 C197 0.950 . S
H186 C194 0.950 . S
H187 C196 0.950 . S
H188 C198 0.950 . S
H189 C200 0.950 . S
H190 C202 0.950 . S
H191 C203 0.950 . S
C192 H184 0.950 . S
C192 C193 1.386 . S
C192 C194 1.391 . S
C193 C192 1.386 . S
C193 C197 1.393 . S
C194 H186 0.950 . S
C194 C192 1.391 . S
C194 C195 1.400 . S
C195 C194 1.400 . S
C195 C196 1.398 . S
C195 C201 1.491 . S
C196 H187 0.950 . S
C196 C195 1.398 . S
C196 C197 1.391 . S
C197 H185 0.950 . S
C197 C193 1.393 . S
C197 C196 1.391 . S
C198 H188 0.950 . S
C198 C199 1.386 . S
C198 C200 1.391 . S
C199 C198 1.386 . S
C199 C203 1.393 . S
C200 H189 0.950 . S
C200 C198 1.391 . S
C200 C201 1.400 . S
C201 C195 1.491 . S
C201 C200 1.400 . S
C201 C202 1.398 . S
C202 H190 0.950 . S
C202 C201 1.398 . S
C202 C203 1.391 . S
C203 H191 0.950 . S
C203 C199 1.393 . S
C203 C202 1.391 . S
H204 C212 0.950 . S
H205 C217 0.950 . S
H206 C214 0.950 . S
H207 C216 0.950 . S
H208 C218 0.950 . S
H209 C220 0.950 . S
H210 C222 0.950 . S
H211 C223 0.950 . S
C212 H204 0.950 . S
C212 C213 1.386 . S
C212 C214 1.391 . S
C213 C212 1.386 . S
C213 C217 1.393 . S
C214 H206 0.950 . S
C214 C212 1.391 . S
C214 C215 1.400 . S
C215 C214 1.400 . S
C215 C216 1.398 . S
C215 C221 1.491 . S
C216 H207 0.950 . S
C216 C215 1.398 . S
C216 C217 1.391 . S
C217 H205 0.950 . S
C217 C213 1.393 . S
C217 C216 1.391 . S
C218 H208 0.950 . S
C218 C219 1.386 . S
C218 C220 1.391 . S
C219 C218 1.386 . S
C219 C223 1.393 . S
C220 H209 0.950 . S
C220 C218 1.391 . S
C220 C221 1.400 . S
C221 C215 1.491 . S
C221 C220 1.400 . S
C221 C222 1.398 . S
C222 H210 0.950 . S
C222 C221 1.398 . S
C222 C223 1.391 . S
C223 H211 0.950 . S
C223 C219 1.393 . S
C223 C222 1.391 . S
H224 C232 0.950 . S
H225 C237 0.950 . S
H226 C234 0.950 . S
H227 C236 0.950 . S
H228 C238 0.950 . S
H229 C240 0.950 . S
H230 C242 0.950 . S
H231 C243 0.950 . S
C232 H224 0.950 . S
C232 C233 1.386 . S
C232 C234 1.391 . S
C233 C232 1.386 . S
C233 C237 1.393 . S
C234 H226 0.950 . S
C234 C232 1.391 . S
C234 C235 1.400 . S
C235 C234 1.400 . S
C235 C236 1.398 . S
C235 C241 1.491 . S
C236 H227 0.950 . S
C236 C235 1.398 . S
C236 C237 1.391 . S
C237 H225 0.950 . S
C237 C233 1.393 . S
C237 C236 1.391 . S
C238 H228 0.950 . S
C238 C239 1.386 . S
C238 C240 1.391 . S
C239 C238 1.386 . S
C239 C243 1.393 . S
C240 H229 0.950 . S
C240 C238 1.391 . S
C240 C241 1.400 . S
C241 C235 1.491 . S
C241 C240 1.400 . S
C241 C242 1.398 . S
C242 H230 0.950 . S
C242 C241 1.398 . S
C242 C243 1.391 . S
C243 H231 0.950 . S
C243 C239 1.393 . S
C243 C242 1.391 . S
H244 C252 0.950 . S
H245 C257 0.950 . S
H246 C254 0.950 . S
H247 C256 0.950 . S
H248 C258 0.950 . S
H249 C260 0.950 . S
H250 C262 0.950 . S
H251 C263 0.950 . S
C252 H244 0.950 . S
C252 C253 1.386 . S
C252 C254 1.391 . S
C253 C252 1.386 . S
C253 C257 1.393 . S
C254 H246 0.950 . S
C254 C252 1.391 . S
C254 C255 1.400 . S
C255 C254 1.400 . S
C255 C256 1.398 . S
C255 C261 1.491 . S
C256 H247 0.950 . S
C256 C255 1.398 . S
C256 C257 1.391 . S
C257 H245 0.950 . S
C257 C253 1.393 . S
C257 C256 1.391 . S
C258 H248 0.950 . S
C258 C259 1.386 . S
C258 C260 1.391 . S
C259 C258 1.386 . S
C259 C263 1.393 . S
C260 H249 0.950 . S
C260 C258 1.391 . S
C260 C261 1.400 . S
C261 C255 1.491 . S
C261 C260 1.400 . S
C261 C262 1.398 . S
C262 H250 0.950 . S
C262 C261 1.398 . S
C262 C263 1.391 . S
C263 H251 0.950 . S
C263 C259 1.393 . S
C263 C262 1.391 . S
H264 C272 0.950 . S
H265 C277 0.950 . S
H266 C274 0.950 . S
H267 C276 0.950 . S
H268 C278 0.950 . S
H269 C280 0.950 . S
H270 C282 0.950 . S
H271 C283 0.950 . S
C272 H264 0.950 . S
C272 C273 1.386 . S
C272 C274 1.391 . S
C273 C272 1.386 . S
C273 C277 1.393 . S
C274 H266 0.950 . S
C274 C272 1.391 . S
C274 C275 1.400 . S
C275 C274 1.400 . S
C275 C276 1.398 . S
C275 C281 1.491 . S
C276 H267 0.950 . S
C276 C275 1.398 . S
C276 C277 1.391 . S
C277 H265 0.950 . S
C277 C273 1.393 . S
C277 C276 1.391 . S
C278 H268 0.950 . S
C278 C279 1.386 . S
C278 C280 1.391 . S
C279 C278 1.386 . S
C279 C283 1.393 . S
C280 H269 0.950 . S
C280 C278 1.391 . S
C280 C281 1.400 . S
C281 C275 1.491 . S
C281 C280 1.400 . S
C281 C282 1.398 . S
C282 H270 0.950 . S
C282 C281 1.398 . S
C282 C283 1.391 . S
C283 H271 0.950 . S
C283 C279 1.393 . S
C283 C282 1.391 . S
H284 C292 0.950 . S
H285 C297 0.950 . S
H286 C294 0.950 . S
H287 C296 0.950 . S
H288 C298 0.950 . S
H289 C300 0.950 . S
H290 C302 0.950 . S
H291 C303 0.950 . S
C292 H284 0.950 . S
C292 C293 1.386 . S
C292 C294 1.391 . S
C293 C292 1.386 . S
C293 C297 1.393 . S
C294 H286 0.950 . S
C294 C292 1.391 . S
C294 C295 1.400 . S
C295 C294 1.400 . S
C295 C296 1.398 . S
C295 C301 1.491 . S
C296 H287 0.950 . S
C296 C295 1.398 . S
C296 C297 1.391 . S
C297 H285 0.950 . S
C297 C293 1.393 . S
C297 C296 1.391 . S
C298 H288 0.950 . S
C298 C299 1.386 . S
C298 C300 1.391 . S
C299 C298 1.386 . S
C299 C303 1.393 . S
C300 H289 0.950 . S
C300 C298 1.391 . S
C300 C301 1.400 . S
C301 C295 1.491 . S
C301 C300 1.400 . S
C301 C302 1.398 . S
C302 H290 0.950 . S
C302 C301 1.398 . S
C302 C303 1.391 . S
C303 H291 0.950 . S
C303 C299 1.393 . S
C303 C302 1.391 . S
H304 C312 0.950 . S
H305 C317 0.950 . S
H306 C314 0.950 . S
H307 C316 0.950 . S
H308 C318 0.950 . S
H309 C320 0.950 . S
H310 C322 0.950 . S
H311 C323 0.950 . S
C312 H304 0.950 . S
C312 C313 1.386 . S
C312 C314 1.391 . S
C313 C312 1.386 . S
C313 C317 1.393 . S
C314 H306 0.950 . S
C314 C312 1.391 . S
C314 C315 1.400 . S
C315 C314 1.400 . S
C315 C316 1.398 . S
C315 C321 1.491 . S
C316 H307 0.950 . S
C316 C315 1.398 . S
C316 C317 1.391 . S
C317 H305 0.950 . S
C317 C313 1.393 . S
C317 C316 1.391 . S
C318 H308 0.950 . S
C318 C319 1.386 . S
C318 C320 1.391 . S
C319 C318 1.386 . S
C319 C323 1.393 . S
C320 H309 0.950 . S
C320 C318 1.391 . S
C320 C321 1.400 . S
C321 C315 1.491 . S
C321 C320 1.400 . S
C321 C322 1.398 . S
C322 H310 0.950 . S
C322 C321 1.398 . S
C322 C323 1.391 . S
C323 H311 0.950 . S
C323 C319 1.393 . S
C323 C322 1.391 . S
C93 C60 1.147 1_556 S
C99 C15 1.147 . S
C113 C81 1.167 . S
C119 C39 1.166 . S
C133 C57 0.802 1_554 S
C139 C18 0.802 . S
C153 C36 0.863 . S
C159 C78 0.863 . S
C173 C37 1.300 . S
C179 C17 1.432 . S
C193 C35 1.776 . S
C199 C56 1.777 . S
C213 C77 1.432 . S
C219 C58 1.302 . S
C233 C79 1.052 . S
C239 C13 0.993 . S
C253 C55 1.448 . S
C259 C80 1.307 . S
C273 C16 1.633 . S
C279 C76 1.631 . S
C293 C34 1.453 . S
C299 C14 1.295 . S
C313 C59 1.133 . S
C319 C38 1.174 . S
