# Generated by pormake.
# Topology gan, (5)-cn, num edge types: 1
# Building blocks:
#     Node 0, Type 0, BuildingBlock: BEQFEK_clean_sbu_0, # of connection points: 5
#     Node 1, Type 0, BuildingBlock: BEQFEK_clean_sbu_0, # of connection points: 5
#     Node 2, Type 0, BuildingBlock: BEQFEK_clean_sbu_0, # of connection points: 5
#     Node 3, Type 0, BuildingBlock: BEQFEK_clean_sbu_0, # of connection points: 5
#     Node 4, Type 0, BuildingBlock: BEQFEK_clean_sbu_0, # of connection points: 5
#     Node 5, Type 0, BuildingBlock: BEQFEK_clean_sbu_0, # of connection points: 5
#     Node 6, Type 0, BuildingBlock: BEQFEK_clean_sbu_0, # of connection points: 5
#     Node 7, Type 0, BuildingBlock: BEQFEK_clean_sbu_0, # of connection points: 5
#     Node 8, Type 0, BuildingBlock: BEQFEK_clean_sbu_0, # of connection points: 5
#     Node 9, Type 0, BuildingBlock: BEQFEK_clean_sbu_0, # of connection points: 5
#     Node 10, Type 0, BuildingBlock: BEQFEK_clean_sbu_0, # of connection points: 5
#     Node 11, Type 0, BuildingBlock: BEQFEK_clean_sbu_0, # of connection points: 5
#     Node 12, Type 0, BuildingBlock: BEQFEK_clean_sbu_0, # of connection points: 5
#     Node 13, Type 0, BuildingBlock: BEQFEK_clean_sbu_0, # of connection points: 5
#     Node 14, Type 0, BuildingBlock: BEQFEK_clean_sbu_0, # of connection points: 5
#     Node 15, Type 0, BuildingBlock: BEQFEK_clean_sbu_0, # of connection points: 5
#     Edge 16, Type (0, 0), BuildingBlock: XIVTED_clean_linker_0, # of connection points: 2
#     Edge 17, Type (0, 0), BuildingBlock: XIVTED_clean_linker_0, # of connection points: 2
#     Edge 18, Type (0, 0), BuildingBlock: XIVTED_clean_linker_0, # of connection points: 2
#     Edge 19, Type (0, 0), BuildingBlock: XIVTED_clean_linker_0, # of connection points: 2
#     Edge 20, Type (0, 0), BuildingBlock: XIVTED_clean_linker_0, # of connection points: 2
#     Edge 21, Type (0, 0), BuildingBlock: XIVTED_clean_linker_0, # of connection points: 2
#     Edge 22, Type (0, 0), BuildingBlock: XIVTED_clean_linker_0, # of connection points: 2
#     Edge 23, Type (0, 0), BuildingBlock: XIVTED_clean_linker_0, # of connection points: 2
#     Edge 24, Type (0, 0), BuildingBlock: XIVTED_clean_linker_0, # of connection points: 2
#     Edge 25, Type (0, 0), BuildingBlock: XIVTED_clean_linker_0, # of connection points: 2
#     Edge 26, Type (0, 0), BuildingBlock: XIVTED_clean_linker_0, # of connection points: 2
#     Edge 27, Type (0, 0), BuildingBlock: XIVTED_clean_linker_0, # of connection points: 2
#     Edge 28, Type (0, 0), BuildingBlock: XIVTED_clean_linker_0, # of connection points: 2
#     Edge 29, Type (0, 0), BuildingBlock: XIVTED_clean_linker_0, # of connection points: 2
#     Edge 30, Type (0, 0), BuildingBlock: XIVTED_clean_linker_0, # of connection points: 2
#     Edge 31, Type (0, 0), BuildingBlock: XIVTED_clean_linker_0, # of connection points: 2
#     Edge 32, Type (0, 0), BuildingBlock: XIVTED_clean_linker_0, # of connection points: 2
#     Edge 33, Type (0, 0), BuildingBlock: XIVTED_clean_linker_0, # of connection points: 2
#     Edge 34, Type (0, 0), BuildingBlock: XIVTED_clean_linker_0, # of connection points: 2
#     Edge 35, Type (0, 0), BuildingBlock: XIVTED_clean_linker_0, # of connection points: 2
#     Edge 36, Type (0, 0), BuildingBlock: XIVTED_clean_linker_0, # of connection points: 2
#     Edge 37, Type (0, 0), BuildingBlock: XIVTED_clean_linker_0, # of connection points: 2
#     Edge 38, Type (0, 0), BuildingBlock: XIVTED_clean_linker_0, # of connection points: 2
#     Edge 39, Type (0, 0), BuildingBlock: XIVTED_clean_linker_0, # of connection points: 2
#     Edge 40, Type (0, 0), BuildingBlock: XIVTED_clean_linker_0, # of connection points: 2
#     Edge 41, Type (0, 0), BuildingBlock: XIVTED_clean_linker_0, # of connection points: 2
#     Edge 42, Type (0, 0), BuildingBlock: XIVTED_clean_linker_0, # of connection points: 2
#     Edge 43, Type (0, 0), BuildingBlock: XIVTED_clean_linker_0, # of connection points: 2
#     Edge 44, Type (0, 0), BuildingBlock: XIVTED_clean_linker_0, # of connection points: 2
#     Edge 45, Type (0, 0), BuildingBlock: XIVTED_clean_linker_0, # of connection points: 2
#     Edge 46, Type (0, 0), BuildingBlock: XIVTED_clean_linker_0, # of connection points: 2
#     Edge 47, Type (0, 0), BuildingBlock: XIVTED_clean_linker_0, # of connection points: 2
#     Edge 48, Type (0, 0), BuildingBlock: XIVTED_clean_linker_0, # of connection points: 2
#     Edge 49, Type (0, 0), BuildingBlock: XIVTED_clean_linker_0, # of connection points: 2
#     Edge 50, Type (0, 0), BuildingBlock: XIVTED_clean_linker_0, # of connection points: 2
#     Edge 51, Type (0, 0), BuildingBlock: XIVTED_clean_linker_0, # of connection points: 2
#     Edge 52, Type (0, 0), BuildingBlock: XIVTED_clean_linker_0, # of connection points: 2
#     Edge 53, Type (0, 0), BuildingBlock: XIVTED_clean_linker_0, # of connection points: 2
#     Edge 54, Type (0, 0), BuildingBlock: XIVTED_clean_linker_0, # of connection points: 2
#     Edge 55, Type (0, 0), BuildingBlock: XIVTED_clean_linker_0, # of connection points: 2
# Relax obj value: 0.119
# Max RMSD: 0.207
# Mean RMSD: 0.185
data_MOF--net-gan--node1-BEQFEK_clean_sbu_0--edge1-XIVTED_clean_linker_0
_symmetry_space_group_name_H-M    P1
_symmetry_Int_Tables_number       1
_symmetry_cell_setting            triclinic
loop_
_symmetry_equiv_pos_as_xyz
'x, y, z'
_cell_length_a     45.042582
_cell_length_b     45.36528
_cell_length_c     44.273256
_cell_angle_alpha  91.421571
_cell_angle_beta   91.296707
_cell_angle_gamma 93.247876
loop_
_atom_site_label
_atom_site_type_symbol
_atom_site_fract_x
_atom_site_fract_y
_atom_site_fract_z
_atom_type_partial_charge
Co0 Co 0.10451 0.11587 0.09592 0.0
Co1 Co 0.14162 0.16429 0.13224 0.0
C2 C 0.13374 0.10553 0.15736 0.0
O3 O 0.11965 0.09769 0.13296 0.0
O4 O 0.14387 0.13212 0.162 0.0
C5 C 0.06121 0.06832 0.09212 0.0
O6 O 0.06662 0.06677 0.12129 0.0
C7 C 0.17895 0.20651 0.16953 0.0
C8 C 0.18312 0.24364 0.13811 0.0
C9 C 0.1935 0.23391 0.16556 0.0
N10 N 0.16128 0.20023 0.1452 0.0
N11 N 0.16365 0.22257 0.12666 0.0
C12 C 0.18129 0.18657 0.1958 0.0
H13 H 0.15924 0.17545 0.19996 0.0
H14 H 0.18923 0.19908 0.21656 0.0
H15 H 0.19697 0.16929 0.19043 0.0
C16 C 0.058 0.15924 0.1027 0.0
N17 N 0.0861 0.15096 0.10616 0.0
N18 N 0.10151 0.17094 0.12288 0.0
C19 C 0.08366 0.19238 0.13119 0.0
C20 C 0.05549 0.18572 0.11858 0.0
C21 C 0.03356 0.14072 0.08686 0.0
H22 H 0.02813 0.121 0.10043 0.0
H23 H 0.01313 0.15294 0.08383 0.0
H24 H 0.04119 0.133 0.06452 0.0
O25 O 0.13689 0.12216 0.06727 0.0
O26 O 0.16392 0.15474 0.09561 0.0
H27 H 0.07468 0.23004 0.16023 0.0
H28 H 0.10839 0.21189 0.16934 0.0
C29 C 0.09362 0.21871 0.1507 0.0
H30 H 0.10643 0.23475 0.13686 0.0
H31 H 0.15294 0.22281 0.10552 0.0
O32 O 0.075 0.08786 0.07696 0.0
C33 C 0.16024 0.13886 0.07165 0.0
Co34 Co 0.09717 0.90792 0.39131 0.0
Co35 Co 0.13771 0.86981 0.35059 0.0
C36 C 0.15801 0.88993 0.41236 0.0
O37 O 0.13358 0.90229 0.41617 0.0
O38 O 0.16332 0.87613 0.38774 0.0
C39 C 0.08354 0.95686 0.43026 0.0
O40 O 0.11259 0.96133 0.43234 0.0
C41 C 0.17899 0.83019 0.32032 0.0
C42 C 0.16093 0.8296 0.27346 0.0
C43 C 0.18242 0.81787 0.29163 0.0
N44 N 0.15659 0.84861 0.319 0.0
N45 N 0.14575 0.84782 0.29097 0.0
C46 C 0.19637 0.82456 0.34856 0.0
H47 H 0.2044 0.84593 0.35938 0.0
H48 H 0.21566 0.81113 0.34387 0.0
H49 H 0.18155 0.81295 0.36467 0.0
C50 C 0.10453 0.9485 0.33985 0.0
N51 N 0.10858 0.92253 0.35312 0.0
N52 N 0.12716 0.90751 0.33709 0.0
C53 C 0.13638 0.92398 0.31378 0.0
C54 C 0.12201 0.95026 0.31443 0.0
C55 C 0.08433 0.97105 0.35139 0.0
H56 H 0.09623 0.98482 0.3694 0.0
H57 H 0.07734 0.98561 0.33308 0.0
H58 H 0.06434 0.95997 0.36122 0.0
O59 O 0.07314 0.87035 0.38742 0.0
O60 O 0.10174 0.84396 0.35849 0.0
H61 H 0.17447 0.93741 0.28777 0.0
H62 H 0.1768 0.90218 0.30554 0.0
C63 C 0.16165 0.9169 0.29393 0.0
H64 H 0.15277 0.90587 0.27272 0.0
H65 H 0.12737 0.8591 0.28396 0.0
O66 O 0.07239 0.93583 0.41337 0.0
C67 C 0.0781 0.84652 0.37325 0.0
Co68 Co 0.3782 0.93294 0.59617 0.0
Co69 Co 0.33505 0.89417 0.63512 0.0
C70 C 0.36007 0.95188 0.65905 0.0
O71 O 0.37318 0.95654 0.63424 0.0
O72 O 0.34426 0.92819 0.66301 0.0
C73 C 0.4327 0.96686 0.58646 0.0
O74 O 0.43438 0.96836 0.61613 0.0
C75 C 0.30697 0.85891 0.6833 0.0
C76 C 0.27548 0.82969 0.65567 0.0
C77 C 0.28481 0.83659 0.68511 0.0
N78 N 0.31053 0.86491 0.65394 0.0
N79 N 0.29175 0.84727 0.63762 0.0
C80 C 0.32283 0.87588 0.70881 0.0
H81 H 0.31148 0.89661 0.71303 0.0
H82 H 0.34608 0.88196 0.70263 0.0
H83 H 0.3226 0.86314 0.72986 0.0
C84 C 0.41215 0.87877 0.5984 0.0
N85 N 0.38854 0.89424 0.60549 0.0
N86 N 0.37083 0.87818 0.62261 0.0
C87 C 0.3829 0.85219 0.62755 0.0
C88 C 0.40949 0.85164 0.61227 0.0
C89 C 0.43596 0.8893 0.57752 0.0
H90 H 0.426 0.90112 0.55852 0.0
H91 H 0.45192 0.9049 0.59007 0.0
H92 H 0.44816 0.87065 0.56826 0.0
O93 O 0.34197 0.93055 0.56991 0.0
O94 O 0.31123 0.90506 0.59921 0.0
H95 H 0.35 0.81826 0.63756 0.0
H96 H 0.38637 0.81277 0.65398 0.0
C97 C 0.37021 0.82946 0.64835 0.0
H98 H 0.36368 0.84041 0.66961 0.0
H99 H 0.28975 0.84754 0.6141 0.0
O100 O 0.41052 0.95293 0.57341 0.0
C101 C 0.31642 0.91845 0.57481 0.0
Co102 Co 0.36937 0.16246 0.84685 0.0
Co103 Co 0.40653 0.12318 0.8906 0.0
C104 C 0.39011 0.10219 0.82813 0.0
O105 O 0.37758 0.12623 0.82352 0.0
O106 O 0.40241 0.09696 0.85358 0.0
C107 C 0.31938 0.17174 0.8076 0.0
O108 O 0.31634 0.14277 0.80811 0.0
C109 C 0.4336 0.07767 0.92973 0.0
C110 C 0.4483 0.10655 0.96878 0.0
C111 C 0.44772 0.07758 0.95811 0.0
N112 N 0.42626 0.10549 0.92413 0.0
N113 N 0.43537 0.12253 0.94755 0.0
C114 C 0.4257 0.0517 0.90908 0.0
H115 H 0.40504 0.05537 0.89591 0.0
H116 H 0.4227 0.03116 0.92205 0.0
H117 H 0.44395 0.04907 0.89298 0.0
C118 C 0.32769 0.15772 0.89764 0.0
N119 N 0.35362 0.15201 0.88474 0.0
N120 N 0.36817 0.13424 0.90209 0.0
C121 C 0.35145 0.12736 0.92607 0.0
C122 C 0.32541 0.14216 0.92408 0.0
C123 C 0.3049 0.17654 0.8841 0.0
H124 H 0.31597 0.19657 0.87457 0.0
H125 H 0.29273 0.16385 0.8655 0.0
H126 H 0.28855 0.18312 0.901 0.0
O127 O 0.40649 0.18707 0.85217 0.0
O128 O 0.43229 0.15936 0.88269 0.0
H129 H 0.37751 0.11878 0.96538 0.0
H130 H 0.34115 0.1002 0.96446 0.0
C131 C 0.36031 0.10713 0.95047 0.0
H132 H 0.36992 0.08733 0.94031 0.0
H133 H 0.43248 0.14517 0.94914 0.0
O134 O 0.34059 0.18503 0.82285 0.0
C135 C 0.42995 0.18262 0.86747 0.0
Co136 Co 0.60551 0.40711 0.90068 0.0
Co137 Co 0.64729 0.37255 0.85796 0.0
C138 C 0.66601 0.38772 0.92156 0.0
O139 O 0.6415 0.39988 0.92567 0.0
O140 O 0.67201 0.3759 0.89608 0.0
C141 C 0.59082 0.45419 0.94148 0.0
O142 O 0.61983 0.45893 0.94401 0.0
C143 C 0.68809 0.33384 0.82577 0.0
C144 C 0.67132 0.337 0.77873 0.0
C145 C 0.69178 0.32322 0.79643 0.0
N146 N 0.66662 0.35335 0.82526 0.0
N147 N 0.65652 0.35476 0.79709 0.0
C148 C 0.70394 0.32513 0.85391 0.0
H149 H 0.6879 0.31305 0.86848 0.0
H150 H 0.7126 0.34526 0.86669 0.0
H151 H 0.7226 0.31102 0.84876 0.0
C152 C 0.61078 0.45004 0.85129 0.0
N153 N 0.61694 0.42415 0.86362 0.0
N154 N 0.63672 0.41126 0.84711 0.0
C155 C 0.645 0.42952 0.82477 0.0
C156 C 0.6285 0.45437 0.82642 0.0
C157 C 0.58926 0.47077 0.86388 0.0
H158 H 0.56896 0.45815 0.87116 0.0
H159 H 0.59967 0.48267 0.88396 0.0
H160 H 0.58312 0.4873 0.84713 0.0
O161 O 0.5819 0.36977 0.89408 0.0
O162 O 0.61112 0.34592 0.86346 0.0
H163 H 0.65882 0.41572 0.78102 0.0
H164 H 0.68193 0.44501 0.79831 0.0
C165 C 0.66901 0.42411 0.80283 0.0
H166 H 0.68437 0.408 0.81175 0.0
H167 H 0.63862 0.36696 0.79055 0.0
O168 O 0.58011 0.43356 0.92385 0.0
C169 C 0.58727 0.34711 0.87819 0.0
Co170 Co 0.82633 0.37617 0.16022 0.0
Co171 Co 0.87247 0.41199 0.12204 0.0
C172 C 0.81189 0.39814 0.09711 0.0
O173 O 0.80469 0.38563 0.12169 0.0
O174 O 0.83803 0.40969 0.09349 0.0
C175 C 0.78555 0.32698 0.17109 0.0
O176 O 0.78458 0.32412 0.14147 0.0
C177 C 0.91305 0.44184 0.07892 0.0
C178 C 0.95383 0.44739 0.10784 0.0
C179 C 0.94253 0.45246 0.0793 0.0
N180 N 0.90729 0.43062 0.10612 0.0
N181 N 0.93163 0.4344 0.12335 0.0
C182 C 0.89107 0.44122 0.05308 0.0
H183 H 0.88182 0.41825 0.04894 0.0
H184 H 0.90138 0.44963 0.03221 0.0
H185 H 0.87232 0.45487 0.05919 0.0
C186 C 0.87259 0.33171 0.15557 0.0
N187 N 0.86231 0.35858 0.15058 0.0
N188 N 0.88082 0.37318 0.13301 0.0
C189 C 0.90277 0.3557 0.12526 0.0
C190 C 0.89836 0.32898 0.13945 0.0
C191 C 0.85706 0.3084 0.17375 0.0
H192 H 0.84802 0.31849 0.19441 0.0
H193 H 0.83836 0.29775 0.16 0.0
H194 H 0.87223 0.29108 0.18022 0.0
O195 O 0.83452 0.41144 0.18689 0.0
O196 O 0.86512 0.43713 0.1578 0.0
H197 H 0.94463 0.3782 0.1172 0.0
H198 H 0.93813 0.34494 0.095 0.0
C199 C 0.92734 0.36435 0.10443 0.0
H200 H 0.91861 0.37725 0.08559 0.0
H201 H 0.93314 0.42773 0.1457 0.0
O202 O 0.80142 0.34811 0.18351 0.0
C203 C 0.85072 0.43459 0.18201 0.0
Co204 Co 0.86103 0.65928 0.35256 0.0
Co205 Co 0.89895 0.62287 0.39823 0.0
C206 C 0.88192 0.59876 0.33667 0.0
O207 O 0.86888 0.6222 0.33057 0.0
O208 O 0.89481 0.5954 0.36226 0.0
C209 C 0.83345 0.68275 0.30009 0.0
O210 O 0.85445 0.66908 0.2863 0.0
C211 C 0.92686 0.57848 0.43764 0.0
C212 C 0.94093 0.60761 0.47672 0.0
C213 C 0.94109 0.57871 0.46595 0.0
N214 N 0.91877 0.60606 0.43213 0.0
N215 N 0.92748 0.62327 0.45556 0.0
C216 C 0.91959 0.55242 0.41693 0.0
H217 H 0.89799 0.55495 0.40499 0.0
H218 H 0.91859 0.53159 0.42958 0.0
H219 H 0.93707 0.55127 0.39974 0.0
C220 C 0.81832 0.65372 0.40189 0.0
N221 N 0.84528 0.64964 0.39053 0.0
N222 N 0.86032 0.63342 0.40907 0.0
C223 C 0.8431 0.62618 0.43258 0.0
C224 C 0.816 0.63889 0.4288 0.0
C225 C 0.79456 0.66961 0.38597 0.0
H226 H 0.80306 0.69247 0.38144 0.0
H227 H 0.78906 0.65831 0.36387 0.0
H228 H 0.77407 0.67026 0.39935 0.0
O229 O 0.89802 0.68434 0.35693 0.0
O230 O 0.92427 0.65898 0.38927 0.0
H231 H 0.8696 0.61992 0.4722 0.0
H232 H 0.83353 0.60082 0.47248 0.0
C233 C 0.85242 0.60736 0.458 0.0
H234 H 0.86234 0.58729 0.44879 0.0
H235 H 0.92405 0.64581 0.45716 0.0
O236 O 0.83193 0.68142 0.32867 0.0
C237 C 0.9215 0.68127 0.37273 0.0
Co238 Co 0.85376 0.84356 0.85423 0.0
Co239 Co 0.8891 0.87854 0.90449 0.0
C240 C 0.87602 0.90821 0.84846 0.0
O241 O 0.86088 0.88477 0.83999 0.0
O242 O 0.89067 0.90956 0.87346 0.0
C243 C 0.85086 0.82541 0.79313 0.0
O244 O 0.87019 0.84786 0.79009 0.0
C245 C 0.92839 0.91397 0.94629 0.0
C246 C 0.91922 0.8914 0.98915 0.0
C247 C 0.93493 0.91525 0.97709 0.0
N248 N 0.90929 0.89069 0.94062 0.0
N249 N 0.90403 0.87716 0.9662 0.0
C250 C 0.94105 0.9332 0.92221 0.0
H251 H 0.94291 0.9201 0.90091 0.0
H252 H 0.96332 0.94312 0.92916 0.0
H253 H 0.92586 0.95112 0.91781 0.0
C254 C 0.90256 0.80282 0.86265 0.0
N255 N 0.88889 0.82775 0.86932 0.0
N256 N 0.90461 0.84311 0.89016 0.0
C257 C 0.92911 0.8287 0.89721 0.0
C258 C 0.92863 0.8026 0.88001 0.0
C259 C 0.88995 0.77894 0.84136 0.0
H260 H 0.86546 0.77646 0.84347 0.0
H261 H 0.89496 0.78509 0.81784 0.0
H262 H 0.89961 0.75749 0.84595 0.0
O263 O 0.82208 0.84276 0.88459 0.0
O264 O 0.84752 0.87229 0.91757 0.0
H265 H 0.94608 0.83633 0.9423 0.0
H266 H 0.9743 0.82974 0.91502 0.0
C267 C 0.95314 0.84048 0.91887 0.0
H268 H 0.95686 0.86466 0.9164 0.0
H269 H 0.88963 0.85848 0.96803 0.0
O270 O 0.84033 0.81984 0.81885 0.0
C271 C 0.82363 0.8578 0.90926 0.0
Co272 Co 0.84774 0.14455 0.65461 0.0
Co273 Co 0.8929 0.10786 0.61805 0.0
C274 C 0.83299 0.11823 0.59166 0.0
O275 O 0.82638 0.13294 0.61536 0.0
O276 O 0.85814 0.10682 0.58937 0.0
C277 C 0.79564 0.16234 0.69117 0.0
O278 O 0.78087 0.13714 0.68453 0.0
C279 C 0.93031 0.07347 0.57663 0.0
C280 C 0.97014 0.07026 0.60621 0.0
C281 C 0.95895 0.06333 0.57738 0.0
N282 N 0.9249 0.08544 0.60399 0.0
N283 N 0.94889 0.08349 0.6214 0.0
C284 C 0.90998 0.07531 0.54963 0.0
H285 H 0.89851 0.09628 0.55063 0.0
H286 H 0.89286 0.05674 0.54978 0.0
H287 H 0.92233 0.07413 0.52828 0.0
C288 C 0.85764 0.09772 0.69957 0.0
N289 N 0.8627 0.11067 0.67291 0.0
N290 N 0.8807 0.09469 0.65711 0.0
C291 C 0.8869 0.07065 0.67301 0.0
C292 C 0.87284 0.07198 0.70054 0.0
C293 C 0.83916 0.11005 0.72396 0.0
H294 H 0.84205 0.13449 0.72482 0.0
H295 H 0.81541 0.1036 0.71896 0.0
H296 H 0.84534 0.10134 0.7463 0.0
O297 O 0.8808 0.17389 0.64794 0.0
O298 O 0.9113 0.14856 0.6203 0.0
H299 H 0.92717 0.04861 0.6674 0.0
H300 H 0.89479 0.02421 0.67098 0.0
C301 C 0.90325 0.04519 0.66104 0.0
H302 H 0.90073 0.04327 0.6361 0.0
H303 H 0.95114 0.09222 0.64342 0.0
O304 O 0.82168 0.16727 0.68128 0.0
C305 C 0.90456 0.17245 0.63326 0.0
Co306 Co 0.62038 0.07188 0.40227 0.0
Co307 Co 0.65856 0.11179 0.35948 0.0
C308 C 0.68362 0.09617 0.41895 0.0
O309 O 0.65944 0.0811 0.42379 0.0
O310 O 0.68747 0.10983 0.39429 0.0
C311 C 0.59222 0.05894 0.45865 0.0
O312 O 0.61147 0.07921 0.4702 0.0
C313 C 0.69286 0.15683 0.32275 0.0
C314 C 0.66765 0.14855 0.27961 0.0
C315 C 0.69108 0.16561 0.29282 0.0
N316 N 0.67125 0.1356 0.32676 0.0
N317 N 0.6564 0.13091 0.30085 0.0
C318 C 0.71518 0.1674 0.34667 0.0
H319 H 0.70709 0.18718 0.35841 0.0
H320 H 0.7369 0.17356 0.33654 0.0
H321 H 0.71801 0.15011 0.3636 0.0
C322 C 0.5799 0.12144 0.39604 0.0
N323 N 0.60498 0.10785 0.38968 0.0
N324 N 0.62192 0.12524 0.3731 0.0
C325 C 0.60846 0.15063 0.36881 0.0
C326 C 0.58126 0.14907 0.38304 0.0
C327 C 0.55479 0.10784 0.41347 0.0
H328 H 0.55185 0.08388 0.40788 0.0
H329 H 0.56011 0.11066 0.438 0.0
H330 H 0.53369 0.11843 0.40843 0.0
O331 O 0.62389 0.04377 0.36738 0.0
O332 O 0.6518 0.0728 0.33882 0.0
H333 H 0.61975 0.17347 0.32866 0.0
H334 H 0.61228 0.19749 0.36036 0.0
C335 C 0.62253 0.17677 0.3535 0.0
H336 H 0.64664 0.17894 0.35927 0.0
H337 H 0.63841 0.11553 0.29768 0.0
O338 O 0.59258 0.05252 0.43057 0.0
C339 C 0.63781 0.04823 0.34309 0.0
Co340 Co 0.58925 0.88975 0.10557 0.0
Co341 Co 0.62547 0.84294 0.14089 0.0
C342 C 0.61524 0.90167 0.16912 0.0
O343 O 0.60068 0.90925 0.14571 0.0
O344 O 0.62645 0.87652 0.17045 0.0
C345 C 0.54808 0.93174 0.08751 0.0
O346 O 0.53806 0.92612 0.11453 0.0
C347 C 0.67127 0.81121 0.17518 0.0
C348 C 0.66303 0.76623 0.15536 0.0
C349 C 0.68099 0.78263 0.17612 0.0
N350 N 0.64865 0.81149 0.15474 0.0
N351 N 0.64377 0.78446 0.14323 0.0
C352 C 0.68451 0.83821 0.19158 0.0
H353 H 0.68168 0.858 0.17781 0.0
H354 H 0.70848 0.83601 0.19683 0.0
H355 H 0.67274 0.84123 0.2131 0.0
C356 C 0.63597 0.88007 0.06095 0.0
N357 N 0.62326 0.87476 0.08766 0.0
N358 N 0.63854 0.85549 0.10232 0.0
C359 C 0.66156 0.84801 0.08533 0.0
C360 C 0.66059 0.86317 0.0585 0.0
C361 C 0.62399 0.90018 0.03794 0.0
H362 H 0.6 0.89428 0.03363 0.0
H363 H 0.62605 0.92324 0.04705 0.0
H364 H 0.63593 0.8988 0.01635 0.0
O365 O 0.55883 0.8569 0.11055 0.0
O366 O 0.58425 0.82572 0.13751 0.0
H367 H 0.67574 0.80488 0.0942 0.0
H368 H 0.70482 0.82994 0.08089 0.0
C369 C 0.68503 0.82805 0.09533 0.0
H370 H 0.692 0.83367 0.11903 0.0
H371 H 0.62751 0.77855 0.12668 0.0
O372 O 0.57085 0.91894 0.07862 0.0
C373 C 0.56027 0.83289 0.12464 0.0
Co374 Co 0.34701 0.64273 0.15665 0.0
Co375 Co 0.39112 0.60562 0.11937 0.0
C376 C 0.33131 0.61543 0.09387 0.0
O377 O 0.3252 0.63026 0.11768 0.0
O378 O 0.35637 0.60399 0.09108 0.0
C379 C 0.29608 0.65863 0.19569 0.0
O380 O 0.2841 0.63158 0.19323 0.0
C381 C 0.42935 0.57069 0.07897 0.0
C382 C 0.4688 0.56863 0.10931 0.0
C383 C 0.45811 0.56086 0.08049 0.0
N384 N 0.42344 0.58333 0.10589 0.0
N385 N 0.4472 0.58204 0.12375 0.0
C386 C 0.40929 0.57136 0.05163 0.0
H387 H 0.3963 0.59138 0.05246 0.0
H388 H 0.39348 0.55168 0.05134 0.0
H389 H 0.42217 0.57113 0.03057 0.0
C390 C 0.36105 0.59825 0.2032 0.0
N391 N 0.36319 0.6097 0.17542 0.0
N392 N 0.37943 0.59285 0.15861 0.0
C393 C 0.38651 0.56917 0.17453 0.0
C394 C 0.37574 0.572 0.20366 0.0
C395 C 0.3473 0.61344 0.22932 0.0
H396 H 0.34849 0.63766 0.22634 0.0
H397 H 0.32361 0.60556 0.23058 0.0
H398 H 0.35878 0.60844 0.25088 0.0
O399 O 0.37929 0.67232 0.14892 0.0
O400 O 0.4092 0.64662 0.12092 0.0
H401 H 0.42458 0.54455 0.16506 0.0
H402 H 0.39127 0.52217 0.17153 0.0
C403 C 0.40017 0.54269 0.161 0.0
H404 H 0.39547 0.54105 0.1363 0.0
H405 H 0.449 0.59124 0.1456 0.0
O406 O 0.32047 0.66521 0.18291 0.0
C407 C 0.40266 0.67071 0.13367 0.0
Co408 Co 0.12207 0.57362 0.89882 0.0
Co409 Co 0.16134 0.61524 0.85926 0.0
C410 C 0.18335 0.5985 0.91984 0.0
O411 O 0.15907 0.58328 0.92351 0.0
O412 O 0.18819 0.6122 0.89544 0.0
C413 C 0.08582 0.56187 0.94985 0.0
O414 O 0.0962 0.58815 0.95954 0.0
C415 C 0.19527 0.66665 0.83328 0.0
C416 C 0.17824 0.66175 0.78606 0.0
C417 C 0.19608 0.6799 0.80536 0.0
N418 N 0.17727 0.64194 0.83056 0.0
N419 N 0.1677 0.63895 0.80215 0.0
C420 C 0.20877 0.67873 0.86251 0.0
H421 H 0.19646 0.66954 0.8819 0.0
H422 H 0.20883 0.70321 0.86333 0.0
H423 H 0.23215 0.67237 0.8643 0.0
C424 C 0.07919 0.62096 0.88922 0.0
N425 N 0.10571 0.60902 0.88557 0.0
N426 N 0.12319 0.62748 0.87066 0.0
C427 C 0.10863 0.65205 0.86514 0.0
C428 C 0.08025 0.64871 0.87665 0.0
C429 C 0.05249 0.6054 0.90238 0.0
H430 H 0.05308 0.5812 0.89857 0.0
H431 H 0.05222 0.61044 0.927 0.0
H432 H 0.03171 0.61311 0.89206 0.0
O433 O 0.12919 0.54694 0.86396 0.0
O434 O 0.15662 0.57711 0.83597 0.0
H435 H 0.12429 0.6747 0.82632 0.0
H436 H 0.10882 0.69847 0.85444 0.0
C437 C 0.12227 0.67901 0.85093 0.0
H438 H 0.14475 0.6842 0.86093 0.0
H439 H 0.15286 0.62192 0.79404 0.0
O440 O 0.09401 0.55166 0.92463 0.0
C441 C 0.14342 0.55203 0.83999 0.0
Co442 Co 0.09095 0.39111 0.60492 0.0
Co443 Co 0.12813 0.34502 0.64022 0.0
C444 C 0.11917 0.40464 0.66716 0.0
O445 O 0.10372 0.41154 0.6441 0.0
O446 O 0.13033 0.37949 0.66886 0.0
C447 C 0.0492 0.43252 0.58779 0.0
O448 O 0.04001 0.42683 0.61511 0.0
C449 C 0.16941 0.31059 0.67812 0.0
C450 C 0.16665 0.26834 0.652 0.0
C451 C 0.17974 0.28216 0.6776 0.0
N452 N 0.15141 0.31332 0.65368 0.0
N453 N 0.14987 0.2879 0.63835 0.0
C454 C 0.17419 0.33379 0.70262 0.0
H455 H 0.15333 0.34503 0.70625 0.0
H456 H 0.19145 0.35051 0.69561 0.0
H457 H 0.18135 0.32419 0.72421 0.0
C458 C 0.1369 0.3815 0.55966 0.0
N459 N 0.12442 0.37584 0.5864 0.0
N460 N 0.14033 0.35707 0.60108 0.0
C461 C 0.1637 0.35048 0.58412 0.0
C462 C 0.16212 0.3655 0.55724 0.0
C463 C 0.12455 0.40165 0.53689 0.0
H464 H 0.10048 0.39586 0.53305 0.0
H465 H 0.12692 0.42471 0.54596 0.0
H466 H 0.13608 0.40019 0.51507 0.0
O467 O 0.06073 0.35853 0.61127 0.0
O468 O 0.08671 0.3278 0.63817 0.0
H469 H 0.18209 0.30861 0.59009 0.0
H470 H 0.2092 0.33784 0.5821 0.0
C471 C 0.18854 0.33231 0.59445 0.0
H472 H 0.19301 0.33604 0.61901 0.0
H473 H 0.13704 0.28381 0.61861 0.0
O474 O 0.0718 0.41988 0.57821 0.0
C475 C 0.06245 0.33477 0.62571 0.0
Co476 Co 0.59601 0.6172 0.60425 0.0
Co477 Co 0.63858 0.66295 0.63797 0.0
C478 C 0.62512 0.60653 0.6661 0.0
O479 O 0.60924 0.5992 0.64261 0.0
O480 O 0.63877 0.63189 0.66874 0.0
C481 C 0.54446 0.57922 0.60566 0.0
O482 O 0.54842 0.58234 0.63507 0.0
C483 C 0.68486 0.70141 0.66811 0.0
C484 C 0.68819 0.73738 0.63523 0.0
C485 C 0.7018 0.72665 0.66069 0.0
N486 N 0.66273 0.6972 0.64747 0.0
N487 N 0.66469 0.71884 0.62805 0.0
C488 C 0.68922 0.68147 0.69407 0.0
H489 H 0.70219 0.66265 0.68657 0.0
H490 H 0.66735 0.67248 0.70179 0.0
H491 H 0.70117 0.69344 0.71328 0.0
C492 C 0.5571 0.66808 0.60528 0.0
N493 N 0.58253 0.65523 0.61219 0.0
N494 N 0.59977 0.67371 0.6289 0.0
C495 C 0.58563 0.69861 0.63403 0.0
C496 C 0.5582 0.69609 0.61891 0.0
C497 C 0.53321 0.65439 0.58451 0.0
H498 H 0.54311 0.64047 0.56688 0.0
H499 H 0.51776 0.64012 0.59772 0.0
H500 H 0.5204 0.6715 0.57347 0.0
O501 O 0.62804 0.61799 0.57424 0.0
O502 O 0.65761 0.6496 0.6011 0.0
H503 H 0.60974 0.74027 0.64129 0.0
H504 H 0.57886 0.73421 0.66584 0.0
C505 C 0.59738 0.72346 0.65463 0.0
H506 H 0.6127 0.71523 0.67206 0.0
H507 H 0.65095 0.71999 0.60887 0.0
O508 O 0.56252 0.59219 0.5881 0.0
C509 C 0.65247 0.63323 0.57773 0.0
Co510 Co 0.3625 0.35108 0.35885 0.0
Co511 Co 0.39486 0.38353 0.4134 0.0
C512 C 0.38688 0.41498 0.35674 0.0
O513 O 0.37351 0.39169 0.34539 0.0
O514 O 0.39723 0.416 0.38379 0.0
C515 C 0.34904 0.33705 0.29659 0.0
O516 O 0.3609 0.36354 0.2916 0.0
C517 C 0.4278 0.4199 0.45948 0.0
C518 C 0.4203 0.39292 0.49988 0.0
C519 C 0.43213 0.41994 0.49063 0.0
N520 N 0.41339 0.39432 0.45093 0.0
N521 N 0.40923 0.37815 0.47506 0.0
C522 C 0.43782 0.44306 0.43785 0.0
H523 H 0.44431 0.43245 0.41633 0.0
H524 H 0.45705 0.45694 0.44733 0.0
H525 H 0.41915 0.45727 0.43288 0.0
C526 C 0.40978 0.30937 0.36847 0.0
N527 N 0.39593 0.33398 0.37578 0.0
N528 N 0.4106 0.34822 0.39815 0.0
C529 C 0.43463 0.33325 0.40562 0.0
C530 C 0.43491 0.30804 0.38707 0.0
C531 C 0.3983 0.28711 0.34489 0.0
H532 H 0.37382 0.28362 0.34649 0.0
H533 H 0.40323 0.29569 0.32218 0.0
H534 H 0.40856 0.26563 0.34747 0.0
O535 O 0.32915 0.35143 0.38749 0.0
O536 O 0.35297 0.3772 0.4245 0.0
H537 H 0.45042 0.33709 0.45144 0.0
H538 H 0.47943 0.33428 0.42431 0.0
C539 C 0.45778 0.34386 0.42876 0.0
H540 H 0.46066 0.3683 0.42881 0.0
H541 H 0.39782 0.35747 0.47469 0.0
O542 O 0.34805 0.32767 0.32333 0.0
C543 C 0.32937 0.36425 0.41335 0.0
H544 H 0.2059 0.29287 0.17313 0.0
H545 H 0.33511 0.27796 0.29401 0.0
H546 H 0.23876 0.20855 0.1962 0.0
H547 H 0.32442 0.35797 0.2451 0.0
H548 H 0.29961 0.25178 0.25895 0.0
H549 H 0.24837 0.31749 0.20066 0.0
C550 C 0.22189 0.27956 0.18427 0.0
C551 C 0.21821 0.24867 0.1834 0.0
C552 C 0.30539 0.27495 0.2556 0.0
C553 C 0.26685 0.27652 0.21441 0.0
C554 C 0.3256 0.28986 0.27556 0.0
C555 C 0.33233 0.32016 0.27253 0.0
C556 C 0.29149 0.29064 0.23289 0.0
C557 C 0.31969 0.33459 0.24819 0.0
C558 C 0.24618 0.29359 0.19972 0.0
C559 C 0.23983 0.2324 0.19761 0.0
N560 N 0.29938 0.31977 0.22953 0.0
N561 N 0.26313 0.24655 0.21281 0.0
H562 H 0.01797 0.07264 0.56782 0.0
H563 H 0.02262 0.95227 0.43304 0.0
H564 H 0.93973 0.02334 0.5321 0.0
H565 H 0.09996 0.00229 0.4701 0.0
H566 H 0.99129 0.98001 0.4666 0.0
H567 H 0.04769 0.04891 0.52996 0.0
C568 C 0.00699 0.05695 0.5518 0.0
C569 C 0.97626 0.05022 0.5529 0.0
C570 C 0.01509 0.98501 0.46726 0.0
C571 C 0.01028 0.02264 0.50949 0.0
C572 C 0.03302 0.9692 0.44808 0.0
C573 C 0.06404 0.97482 0.44887 0.0
C574 C 0.02825 0.00659 0.4874 0.0
C575 C 0.07621 0.99708 0.46877 0.0
C576 C 0.02398 0.04341 0.53014 0.0
C577 C 0.96323 0.02968 0.53163 0.0
N578 N 0.05832 0.01202 0.48731 0.0
N579 N 0.98034 0.0165 0.51085 0.0
H580 H 0.25286 0.70378 0.81688 0.0
H581 H 0.22699 0.83113 0.69965 0.0
H582 H 0.16878 0.7217 0.77477 0.0
H583 H 0.31418 0.80831 0.72975 0.0
H584 H 0.20489 0.79898 0.73742 0.0
H585 H 0.27516 0.74907 0.79508 0.0
C586 C 0.23902 0.71763 0.80364 0.0
C587 C 0.20911 0.70903 0.79723 0.0
C588 C 0.22889 0.80131 0.73624 0.0
C589 C 0.23418 0.76034 0.77238 0.0
C590 C 0.24145 0.81974 0.71476 0.0
C591 C 0.27232 0.82228 0.71178 0.0
C592 C 0.24734 0.78467 0.75437 0.0
C593 C 0.29023 0.80708 0.73171 0.0
C594 C 0.25172 0.74331 0.79112 0.0
C595 C 0.19206 0.72744 0.77983 0.0
N596 N 0.27743 0.78844 0.75193 0.0
N597 N 0.20487 0.75207 0.76786 0.0
H598 H 0.47933 0.03105 0.93705 0.0
H599 H 0.5034 0.96719 0.10259 0.0
H600 H 0.44489 0.06908 0.01837 0.0
H601 H 0.55684 0.94279 0.02724 0.0
H602 H 0.47736 0.00041 0.07017 0.0
H603 H 0.50311 0.99407 0.96774 0.0
C604 C 0.47627 0.03126 0.96123 0.0
C605 C 0.45986 0.053 0.97516 0.0
C606 C 0.49478 0.98783 0.06065 0.0
C607 C 0.4873 0.01117 0.01036 0.0
C608 C 0.5097 0.96879 0.07919 0.0
C609 C 0.53249 0.95221 0.06771 0.0
C610 C 0.50243 0.9903 0.0302 0.0
C611 C 0.53954 0.95527 0.03711 0.0
C612 C 0.49013 0.01039 0.97876 0.0
C613 C 0.45733 0.05273 0.00669 0.0
N614 N 0.52453 0.9739 0.01939 0.0
N615 N 0.47081 0.0322 0.02314 0.0
H616 H 0.30711 0.71813 0.19239 0.0
H617 H 0.19118 0.76408 0.31632 0.0
H618 H 0.25104 0.65293 0.23669 0.0
H619 H 0.21766 0.81958 0.24289 0.0
H620 H 0.22034 0.72462 0.29486 0.0
H621 H 0.28169 0.7571 0.21832 0.0
C622 C 0.28954 0.71196 0.20771 0.0
C623 C 0.28107 0.68215 0.21222 0.0
C624 C 0.21995 0.74557 0.28369 0.0
C625 C 0.25204 0.72688 0.24222 0.0
C626 C 0.20366 0.76812 0.29606 0.0
C627 C 0.20244 0.79514 0.28147 0.0
C628 C 0.23537 0.75037 0.25687 0.0
C629 C 0.21826 0.79909 0.25486 0.0
C630 C 0.27499 0.73427 0.22243 0.0
C631 C 0.25811 0.67561 0.23237 0.0
N632 N 0.23419 0.77701 0.24349 0.0
N633 N 0.2444 0.69783 0.24674 0.0
H634 H 0.48155 0.00138 0.6064 0.0
H635 H 0.54645 0.01988 0.44065 0.0
H636 H 0.43863 0.96338 0.52516 0.0
H637 H 0.58547 0.06561 0.51988 0.0
H638 H 0.50803 0.99731 0.47191 0.0
H639 H 0.52098 0.02356 0.5757 0.0
C640 C 0.4804 0.99769 0.58212 0.0
C641 C 0.4567 0.98055 0.56832 0.0
C642 C 0.52499 0.01226 0.48251 0.0
C643 C 0.50177 0.00578 0.53311 0.0
C644 C 0.54701 0.02512 0.46466 0.0
C645 C 0.56925 0.04468 0.47766 0.0
C646 C 0.52516 0.01889 0.51366 0.0
C647 C 0.56875 0.05068 0.5089 0.0
C648 C 0.50291 0.01039 0.56462 0.0
C649 C 0.45639 0.97652 0.53678 0.0
N650 N 0.54705 0.03782 0.52586 0.0
N651 N 0.47858 0.98901 0.52028 0.0
H652 H 0.26997 0.15009 0.77554 0.0
H653 H 0.22893 0.3062 0.70999 0.0
H654 H 0.32006 0.23168 0.79906 0.0
H655 H 0.17649 0.22464 0.69336 0.0
H656 H 0.26219 0.28012 0.74337 0.0
H657 H 0.23543 0.17762 0.74569 0.0
C658 C 0.27373 0.17383 0.77446 0.0
C659 C 0.29806 0.18854 0.78979 0.0
C660 C 0.24322 0.26803 0.73263 0.0
C661 C 0.25841 0.22039 0.75544 0.0
C662 C 0.22402 0.28299 0.71383 0.0
C663 C 0.19951 0.26771 0.69931 0.0
C664 C 0.23802 0.23753 0.73668 0.0
C665 C 0.19503 0.23734 0.70416 0.0
C666 C 0.25392 0.18959 0.75739 0.0
C667 C 0.30165 0.21939 0.78757 0.0
N668 N 0.21404 0.22331 0.72237 0.0
N669 N 0.2821 0.23428 0.77064 0.0
H670 H 0.03474 0.07343 0.03688 0.0
H671 H 0.96826 0.90756 0.02787 0.0
H672 H 0.03976 0.01492 0.11207 0.0
H673 H 0.94033 0.97476 0.96782 0.0
H674 H 0.99703 0.94564 0.05793 0.0
H675 H 0.00233 0.03646 0.0097 0.0
C676 C 0.0289 0.05281 0.04769 0.0
C677 C 0.04003 0.04703 0.07662 0.0
C678 C 0.98467 0.95196 0.03807 0.0
C679 C 0.00321 0.0047 0.04567 0.0
C680 C 0.9684 0.93029 0.0209 0.0
C681 C 0.95278 0.93794 0.99477 0.0
C682 C 0.9852 0.98137 0.02897 0.0
C683 C 0.95319 0.96768 0.98694 0.0
C684 C 0.01034 0.03179 0.03223 0.0
C685 C 0.0316 0.02014 0.08976 0.0
N686 N 0.96936 0.98833 0.00388 0.0
N687 N 0.01385 0.99975 0.07401 0.0
H688 H 0.81279 0.22093 0.69468 0.0
H689 H 0.69517 0.2669 0.81677 0.0
H690 H 0.74769 0.15739 0.72869 0.0
H691 H 0.72943 0.3261 0.74961 0.0
H692 H 0.7218 0.22675 0.793 0.0
H693 H 0.78975 0.26001 0.72305 0.0
C694 C 0.79373 0.21513 0.70826 0.0
C695 C 0.78203 0.18581 0.70915 0.0
C696 C 0.72369 0.24863 0.78375 0.0
C697 C 0.75578 0.23058 0.74199 0.0
C698 C 0.70884 0.27154 0.79745 0.0
C699 C 0.71053 0.29982 0.78526 0.0
C700 C 0.74063 0.25432 0.75806 0.0
C701 C 0.72782 0.30461 0.75975 0.0
C702 C 0.78057 0.2375 0.72438 0.0
C703 C 0.75726 0.17972 0.72717 0.0
N704 N 0.74233 0.28213 0.74708 0.0
N705 N 0.74498 0.20193 0.74301 0.0
H706 H 0.07451 0.50229 0.94886 0.0
H707 H 0.93199 0.50397 0.0517 0.0
H708 H 0.04555 0.58312 0.98897 0.0
H709 H 0.99238 0.43367 0.05408 0.0
H710 H 0.9657 0.53095 0.01754 0.0
H711 H 0.03664 0.47438 0.97708 0.0
C712 C 0.0601 0.51413 0.96355 0.0
C713 C 0.06326 0.54497 0.96691 0.0
C714 C 0.97126 0.50944 0.02528 0.0
C715 C 0.01971 0.51336 0.99849 0.0
C716 C 0.95203 0.49403 0.04441 0.0
C717 C 0.9596 0.46668 0.05533 0.0
C718 C 0.99776 0.49698 0.01679 0.0
C719 C 0.98592 0.45473 0.04589 0.0
C720 C 0.03859 0.49823 0.97957 0.0
C721 C 0.04403 0.5593 0.98612 0.0
N722 N 0.0041 0.46994 0.02701 0.0
N723 N 0.02288 0.54335 1.00115 0.0
H724 H 0.79086 0.71864 0.32126 0.0
H725 H 0.71953 0.7425 0.15754 0.0
H726 H 0.82669 0.68462 0.23865 0.0
H727 H 0.69751 0.79469 0.23575 0.0
H728 H 0.75756 0.71963 0.18767 0.0
H729 H 0.7551 0.7452 0.29124 0.0
C730 C 0.79125 0.71677 0.29684 0.0
C731 C 0.81181 0.6993 0.28246 0.0
C732 C 0.74466 0.73629 0.19825 0.0
C733 C 0.77088 0.72954 0.24803 0.0
C734 C 0.7229 0.74933 0.18105 0.0
C735 C 0.70557 0.77077 0.19407 0.0
C736 C 0.74885 0.7443 0.22895 0.0
C737 C 0.7108 0.7787 0.22467 0.0
C738 C 0.7709 0.73202 0.27973 0.0
C739 C 0.81129 0.69778 0.25075 0.0
N740 N 0.73184 0.76529 0.24116 0.0
N741 N 0.7911 0.71254 0.23466 0.0
H742 H 0.93864 0.56928 0.52605 0.0
H743 H 0.05696 0.44437 0.5276 0.0
H744 H 0.97467 0.53404 0.44421 0.0
H745 H 0.00417 0.46706 0.60402 0.0
H746 H 0.02904 0.47805 0.49666 0.0
H747 H 0.96412 0.53279 0.55496 0.0
C748 C 0.95171 0.5536 0.51412 0.0
C749 C 0.95424 0.55447 0.48264 0.0
C750 C 0.02355 0.47553 0.52018 0.0
C751 C 0.98406 0.5128 0.51574 0.0
C752 C 0.03956 0.45643 0.53789 0.0
C753 C 0.03296 0.4529 0.56852 0.0
C754 C 0.001 0.49143 0.53326 0.0
C755 C 0.01009 0.46902 0.58057 0.0
C756 C 0.96627 0.53274 0.53064 0.0
C757 C 0.97162 0.53374 0.46838 0.0
N758 N 0.99509 0.4876 0.56299 0.0
N759 N 0.98608 0.51386 0.48507 0.0
H760 H 0.60622 0.50011 0.98102 0.0
H761 H 0.43984 0.52013 0.03544 0.0
H762 H 0.52985 0.44901 0.9433 0.0
H763 H 0.51744 0.5696 0.07248 0.0
H764 H 0.4715 0.49598 0.9991 0.0
H765 H 0.57322 0.52782 0.01245 0.0
C766 C 0.58249 0.49477 0.97925 0.0
C767 C 0.57084 0.47206 0.9596 0.0
C768 C 0.48152 0.51233 0.01501 0.0
C769 C 0.53278 0.50374 0.9957 0.0
C770 C 0.4634 0.52633 0.03557 0.0
C771 C 0.47597 0.54718 0.05679 0.0
C772 C 0.51239 0.51918 0.01585 0.0
C773 C 0.5068 0.55364 0.05655 0.0
C774 C 0.56361 0.51062 0.99724 0.0
C775 C 0.53984 0.46625 0.95822 0.0
N776 N 0.5239 0.5397 0.03648 0.0
N777 N 0.5219 0.48189 0.97614 0.0
H778 H 0.74742 0.69699 0.68606 0.0
H779 H 0.84043 0.84519 0.73649 0.0
H780 H 0.72179 0.78421 0.66358 0.0
H781 H 0.83405 0.76718 0.7903 0.0
H782 H 0.81045 0.81854 0.69642 0.0
H783 H 0.79211 0.71904 0.71176 0.0
C784 C 0.7509 0.72077 0.68692 0.0
C785 C 0.73003 0.73899 0.67431 0.0
C786 C 0.8163 0.80715 0.71674 0.0
C787 C 0.78187 0.76398 0.70177 0.0
C788 C 0.83341 0.82222 0.73944 0.0
C789 C 0.83899 0.80836 0.76673 0.0
C790 C 0.80537 0.7781 0.72148 0.0
C791 C 0.82957 0.77866 0.76967 0.0
C792 C 0.77671 0.73323 0.70099 0.0
C793 C 0.73694 0.76949 0.67389 0.0
N794 N 0.8129 0.76451 0.74737 0.0
N795 N 0.76218 0.78115 0.68784 0.0
H796 H 0.70572 0.16346 0.23395 0.0
H797 H 0.78226 0.32673 0.23283 0.0
H798 H 0.71557 0.21974 0.31397 0.0
H799 H 0.75746 0.27441 0.15246 0.0
H800 H 0.76158 0.28692 0.26369 0.0
H801 H 0.72925 0.20262 0.20471 0.0
C802 C 0.71318 0.18399 0.24547 0.0
C803 C 0.70889 0.18822 0.27653 0.0
C804 C 0.76061 0.28423 0.23931 0.0
C805 C 0.7356 0.23345 0.243 0.0
C806 C 0.77234 0.30694 0.22165 0.0
C807 C 0.77153 0.30392 0.18997 0.0
C808 C 0.74817 0.25822 0.22519 0.0
C809 C 0.75848 0.27778 0.17676 0.0
C810 C 0.72653 0.2064 0.22871 0.0
C811 C 0.71901 0.21525 0.29025 0.0
N812 N 0.74742 0.25593 0.19443 0.0
N813 N 0.7318 0.23696 0.27334 0.0
H814 H 0.46393 0.41556 0.54312 0.0
H815 H 0.51545 0.58324 0.55181 0.0
H816 H 0.42515 0.4792 0.48554 0.0
H817 H 0.52088 0.52873 0.63002 0.0
H818 H 0.48217 0.54535 0.52693 0.0
H819 H 0.48515 0.45622 0.57569 0.0
C820 C 0.45996 0.43809 0.53733 0.0
C821 C 0.444 0.44417 0.51089 0.0
C822 C 0.49022 0.54186 0.54973 0.0
C823 C 0.46776 0.49043 0.54791 0.0
C824 C 0.50925 0.56338 0.56384 0.0
C825 C 0.52102 0.55877 0.59275 0.0
C826 C 0.48359 0.51533 0.56442 0.0
C827 C 0.51221 0.53293 0.60762 0.0
C828 C 0.47187 0.4612 0.55596 0.0
C829 C 0.4388 0.47361 0.50472 0.0
N830 N 0.49439 0.51177 0.593 0.0
N831 N 0.45106 0.49572 0.52287 0.0
H832 H 0.12742 0.04595 0.14954 0.0
H833 H 0.13148 0.01009 0.32561 0.0
H834 H 0.14559 0.1138 0.21864 0.0
H835 H 0.11948 0.94478 0.25334 0.0
H836 H 0.13722 0.04879 0.28785 0.0
H837 H 0.12606 0.00891 0.18809 0.0
C838 C 0.13135 0.05308 0.17289 0.0
C839 C 0.13646 0.0831 0.18085 0.0
C840 C 0.13341 0.02597 0.28032 0.0
C841 C 0.13463 0.04047 0.22552 0.0
C842 C 0.12991 0.00397 0.30181 0.0
C843 C 0.12497 0.97427 0.29247 0.0
C844 C 0.13185 0.01809 0.24939 0.0
C845 C 0.12355 0.96738 0.26146 0.0
C846 C 0.13053 0.03183 0.19498 0.0
C847 C 0.14162 0.09089 0.21151 0.0
N848 N 0.12691 0.98908 0.24109 0.0
N849 N 0.14031 0.06968 0.23283 0.0
H850 H 0.15025 0.90315 0.47204 0.0
H851 H 0.32303 0.92619 0.51406 0.0
H852 H 0.21825 0.88476 0.40817 0.0
H853 H 0.25656 0.9073 0.5807 0.0
H854 H 0.28444 0.9189 0.47421 0.0
H855 H 0.18871 0.91167 0.51159 0.0
C856 C 0.17327 0.90079 0.46635 0.0
C857 C 0.18105 0.89314 0.43676 0.0
C858 C 0.27836 0.91649 0.49759 0.0
C859 C 0.22518 0.90338 0.48186 0.0
C860 C 0.30028 0.92091 0.52035 0.0
C861 C 0.29299 0.91734 0.55076 0.0
C862 C 0.24891 0.90893 0.50534 0.0
C863 C 0.26319 0.9102 0.55756 0.0
C864 C 0.19518 0.90565 0.48895 0.0
C865 C 0.21125 0.8904 0.43072 0.0
N866 N 0.24223 0.90631 0.53504 0.0
N867 N 0.23228 0.89576 0.45304 0.0
H868 H 0.35043 0.94378 0.71927 0.0
H869 H 0.38543 0.11185 0.76792 0.0
H870 H 0.38085 0.00962 0.6565 0.0
H871 H 0.39189 0.04184 0.83158 0.0
H872 H 0.37918 0.07503 0.72686 0.0
H873 H 0.36029 0.97983 0.7609 0.0
C874 C 0.35898 0.96585 0.7142 0.0
C875 C 0.36469 0.97375 0.68431 0.0
C876 C 0.3822 0.06769 0.74976 0.0
C877 C 0.37601 0.01495 0.73181 0.0
C878 C 0.38572 0.08868 0.77323 0.0
C879 C 0.38915 0.07986 0.80321 0.0
C880 C 0.38152 0.03758 0.75628 0.0
C881 C 0.38945 0.04955 0.80876 0.0
C882 C 0.36483 0.98629 0.738 0.0
C883 C 0.37609 0.00257 0.67915 0.0
N884 N 0.38531 0.02941 0.7855 0.0
N885 N 0.38118 0.02218 0.70264 0.0
H886 H 0.28677 0.09558 0.93509 0.0
H887 H 0.20637 0.18009 0.06754 0.0
H888 H 0.30805 0.18674 0.96036 0.0
H889 H 0.16796 0.10008 0.02417 0.0
H890 H 0.24614 0.181 0.03107 0.0
H891 H 0.24536 0.09472 0.97036 0.0
C892 C 0.28261 0.11536 0.94818 0.0
C893 C 0.30058 0.14125 0.9451 0.0
C894 C 0.22895 0.1633 0.02944 0.0
C895 C 0.25376 0.14053 0.98523 0.0
C896 C 0.20627 0.1627 0.05032 0.0
C897 C 0.1838 0.13993 0.04893 0.0
C898 C 0.22945 0.1408 0.00718 0.0
C899 C 0.18478 0.11808 0.02601 0.0
C900 C 0.25903 0.11493 0.96812 0.0
C901 C 0.29451 0.16641 0.96227 0.0
N902 N 0.20737 0.11894 0.00612 0.0
N903 N 0.27166 0.1654 0.98176 0.0
H904 H 0.02857 0.20001 0.17099 0.0
H905 H 0.9084 0.29619 0.08889 0.0
H906 H 0.02172 0.20904 0.07448 0.0
H907 H 0.92972 0.30372 0.1842 0.0
H908 H 0.94361 0.25718 0.08384 0.0
H909 H 0.98631 0.2313 0.17689 0.0
C910 C 0.01801 0.20859 0.15108 0.0
C911 C 0.02869 0.20248 0.12227 0.0
C912 C 0.94044 0.26717 0.10592 0.0
C913 C 0.98039 0.23774 0.12867 0.0
C914 C 0.9204 0.28932 0.10877 0.0
C915 C 0.91665 0.3032 0.1369 0.0
C916 C 0.95665 0.25882 0.13147 0.0
C917 C 0.93222 0.29347 0.16213 0.0
C918 C 0.99393 0.22631 0.15441 0.0
C919 C 0.01407 0.21346 0.09707 0.0
N920 N 0.95177 0.27196 0.1588 0.0
N921 N 0.99071 0.23074 0.10085 0.0
H922 H 0.55079 0.32804 0.92282 0.0
H923 H 0.44708 0.21923 0.82229 0.0
H924 H 0.57403 0.30853 0.83075 0.0
H925 H 0.46881 0.19768 0.91425 0.0
H926 H 0.48733 0.25816 0.82459 0.0
H927 H 0.51386 0.28608 0.92013 0.0
C928 C 0.54805 0.31494 0.90205 0.0
C929 C 0.5654 0.32166 0.87695 0.0
C930 C 0.4833 0.24474 0.84414 0.0
C931 C 0.52307 0.27429 0.87363 0.0
C932 C 0.46036 0.22271 0.84292 0.0
C933 C 0.45474 0.2053 0.86813 0.0
C934 C 0.50003 0.2499 0.87103 0.0
C935 C 0.47259 0.21057 0.8943 0.0
C936 C 0.52718 0.291 0.90062 0.0
C937 C 0.56115 0.30393 0.85061 0.0
N938 N 0.49423 0.23274 0.89524 0.0
N939 N 0.54006 0.28123 0.84947 0.0
H940 H 0.9382 0.71532 0.32543 0.0
H941 H 0.04121 0.83102 0.41902 0.0
H942 H 0.95973 0.69993 0.41896 0.0
H943 H 0.06458 0.80502 0.32862 0.0
H944 H 0.00411 0.78918 0.41914 0.0
H945 H 0.97785 0.75479 0.32551 0.0
C946 C 0.95128 0.72028 0.34595 0.0
C947 C 0.94582 0.7044 0.37222 0.0
C948 C 0.01748 0.79269 0.39937 0.0
C949 C 0.99043 0.74966 0.37259 0.0
C950 C 0.03845 0.81654 0.39921 0.0
C951 C 0.05591 0.82137 0.37377 0.0
C952 C 0.0134 0.77417 0.3736 0.0
C953 C 0.05162 0.80192 0.34871 0.0
C954 C 0.97388 0.74262 0.34592 0.0
C955 C 0.96342 0.71158 0.39821 0.0
N956 N 0.03047 0.77933 0.34908 0.0
N957 N 0.98474 0.73403 0.39788 0.0
H958 H 0.5686 0.7546 0.60828 0.0
H959 H 0.39795 0.79234 0.60231 0.0
H960 H 0.4977 0.68924 0.62399 0.0
H961 H 0.46952 0.85773 0.62167 0.0
H962 H 0.43393 0.7537 0.60331 0.0
H963 H 0.53224 0.79246 0.60612 0.0
C964 C 0.54537 0.74827 0.6115 0.0
C965 C 0.53612 0.71885 0.61665 0.0
C966 C 0.4417 0.77652 0.60733 0.0
C967 C 0.49437 0.76186 0.61346 0.0
C968 C 0.42124 0.79849 0.60684 0.0
C969 C 0.43088 0.82815 0.61202 0.0
C970 C 0.47199 0.78443 0.61261 0.0
C971 C 0.46128 0.83512 0.61726 0.0
C972 C 0.52464 0.76984 0.61009 0.0
C973 C 0.50567 0.71168 0.61975 0.0
N974 N 0.48081 0.81341 0.61735 0.0
N975 N 0.4858 0.73307 0.61808 0.0
H976 H 0.82497 0.04325 0.72562 0.0
H977 H 0.91782 0.95475 0.84561 0.0
H978 H 0.92078 0.05041 0.72964 0.0
H979 H 0.83381 0.92073 0.80637 0.0
H980 H 0.91716 0.99637 0.81097 0.0
H981 H 0.82559 0.00461 0.76352 0.0
C982 C 0.8461 0.03685 0.73477 0.0
C983 C 0.87286 0.04986 0.72459 0.0
C984 C 0.8989 0.97976 0.81011 0.0
C985 C 0.87379 0.00605 0.7679 0.0
C986 C 0.89919 0.95613 0.82989 0.0
C987 C 0.87592 0.93416 0.82875 0.0
C988 C 0.87483 0.98174 0.78964 0.0
C989 C 0.85234 0.93701 0.80789 0.0
C990 C 0.84647 0.01477 0.75621 0.0
C991 C 0.8997 0.0407 0.7369 0.0
N992 N 0.85232 0.96041 0.78931 0.0
N993 N 0.89952 0.01941 0.75804 0.0
H994 H 0.77268 0.12272 0.59311 0.0
H995 H 0.74334 0.11255 0.41502 0.0
H996 H 0.84334 0.10589 0.53188 0.0
H997 H 0.67652 0.08638 0.47898 0.0
H998 H 0.7804 0.11757 0.45684 0.0
H999 H 0.73688 0.1171 0.55064 0.0
C1000 C 0.78069 0.1179 0.57074 0.0
C1001 C 0.81107 0.11467 0.5661 0.0
C1002 C 0.75761 0.11063 0.46156 0.0
C1003 C 0.7702 0.10861 0.51731 0.0
C1004 C 0.73646 0.10785 0.43777 0.0
C1005 C 0.70678 0.09891 0.44345 0.0
C1006 C 0.74882 0.10511 0.49125 0.0
C1007 C 0.69914 0.09313 0.47343 0.0
C1008 C 0.76023 0.1146 0.54654 0.0
C1009 C 0.82011 0.10836 0.53654 0.0
N1010 N 0.71992 0.09656 0.49616 0.0
N1011 N 0.7998 0.10576 0.51321 0.0
H1012 H 0.64895 0.05694 0.28367 0.0
H1013 H 0.62852 0.88911 0.22805 0.0
H1014 H 0.62228 0.98853 0.34521 0.0
H1015 H 0.6107 0.96161 0.17024 0.0
H1016 H 0.63442 0.92408 0.27128 0.0
H1017 H 0.64372 0.02093 0.24184 0.0
C1018 C 0.64222 0.03427 0.28848 0.0
C1019 C 0.63602 0.02577 0.31809 0.0
C1020 C 0.62917 0.93222 0.24911 0.0
C1021 C 0.63014 0.98436 0.27005 0.0
C1022 C 0.62593 0.91236 0.22442 0.0
C1023 C 0.61906 0.92246 0.19546 0.0
C1024 C 0.62618 0.96243 0.24468 0.0
C1025 C 0.61586 0.95281 0.19213 0.0
C1026 C 0.63906 0.01378 0.2645 0.0
C1027 C 0.62719 0.99606 0.32276 0.0
N1028 N 0.61968 0.97173 0.21638 0.0
N1029 N 0.62466 0.97633 0.29898 0.0
H1030 H 0.67616 0.81513 0.02549 0.0
H1031 H 0.81296 0.90071 0.95087 0.0
H1032 H 0.69341 0.90927 0.03573 0.0
H1033 H 0.77508 0.81825 0.91241 0.0
H1034 H 0.77126 0.90251 0.98482 0.0
H1035 H 0.71405 0.81393 0.98641 0.0
C1036 C 0.68786 0.83553 0.01928 0.0
C1037 C 0.68186 0.86234 0.03366 0.0
C1038 C 0.77192 0.8841 0.96885 0.0
C1039 C 0.72514 0.86115 0.98957 0.0
C1040 C 0.79581 0.88295 0.94954 0.0
C1041 C 0.79755 0.85921 0.92884 0.0
C1042 C 0.74976 0.86109 0.96793 0.0
C1043 C 0.77455 0.83697 0.928 0.0
C1044 C 0.70932 0.83487 0.997 0.0
C1045 C 0.69743 0.88821 0.02498 0.0
N1046 N 0.7517 0.83827 0.94755 0.0
N1047 N 0.7186 0.88695 0.00368 0.0
H1048 H 0.05869 0.67815 0.82856 0.0
H1049 H 0.9526 0.77552 0.92854 0.0
H1050 H 0.04877 0.66824 0.92441 0.0
H1051 H 0.95481 0.77774 0.83137 0.0
H1052 H 0.98896 0.73728 0.92783 0.0
H1053 H 0.02147 0.71551 0.82921 0.0
C1054 C 0.0486 0.6839 0.84973 0.0
C1055 C 0.05681 0.6703 0.87648 0.0
C1056 C 0.98148 0.74608 0.90664 0.0
C1057 C 0.01425 0.71288 0.87751 0.0
C1058 C 0.96089 0.76799 0.90708 0.0
C1059 C 0.9508 0.77971 0.87998 0.0
C1060 C 0.99214 0.73595 0.87887 0.0
C1061 C 0.96191 0.76905 0.85273 0.0
C1062 C 0.02732 0.70512 0.85011 0.0
C1063 C 0.04289 0.67817 0.90327 0.0
N1064 N 0.98204 0.74782 0.85286 0.0
N1065 N 0.0224 0.69907 0.90315 0.0
H1066 H 0.41386 0.71451 0.17627 0.0
H1067 H 0.51965 0.81801 0.07926 0.0
H1068 H 0.43804 0.68657 0.0867 0.0
H1069 H 0.54166 0.80062 0.17221 0.0
H1070 H 0.47865 0.77973 0.08054 0.0
H1071 H 0.45027 0.75672 0.17384 0.0
C1072 C 0.42658 0.71749 0.15598 0.0
C1073 C 0.42316 0.69704 0.1317 0.0
C1074 C 0.49237 0.78463 0.10065 0.0
C1075 C 0.46402 0.74531 0.12862 0.0
C1076 C 0.51551 0.80646 0.10001 0.0
C1077 C 0.53395 0.81225 0.12566 0.0
C1078 C 0.48726 0.76936 0.12737 0.0
C1079 C 0.52796 0.7966 0.15195 0.0
C1080 C 0.44731 0.74142 0.15469 0.0
C1081 C 0.44025 0.70177 0.10597 0.0
N1082 N 0.50495 0.77595 0.15222 0.0
N1083 N 0.4599 0.7256 0.10499 0.0
H1084 H 0.91652 0.21493 0.6772 0.0
H1085 H 0.02055 0.32103 0.58134 0.0
H1086 H 0.93952 0.18951 0.58652 0.0
H1087 H 0.04526 0.30101 0.67295 0.0
H1088 H 0.97966 0.28275 0.5827 0.0
H1089 H 0.95328 0.25703 0.67565 0.0
C1090 C 0.92905 0.21845 0.65687 0.0
C1091 C 0.9252 0.19875 0.63198 0.0
C1092 C 0.99394 0.28707 0.60251 0.0
C1093 C 0.96639 0.24687 0.62991 0.0
C1094 C 0.01704 0.3089 0.60185 0.0
C1095 C 0.03622 0.31399 0.62705 0.0
C1096 C 0.98958 0.27101 0.62887 0.0
C1097 C 0.03098 0.29756 0.65302 0.0
C1098 C 0.94998 0.24229 0.65608 0.0
C1099 C 0.94206 0.20413 0.60623 0.0
N1100 N 0.00797 0.27687 0.65336 0.0
N1101 N 0.96184 0.22787 0.60574 0.0
H1102 H 0.46306 0.28621 0.3382 0.0
H1103 H 0.55356 0.17059 0.43269 0.0
H1104 H 0.45737 0.27831 0.43472 0.0
H1105 H 0.55904 0.17974 0.33629 0.0
H1106 H 0.51804 0.20961 0.4342 0.0
H1107 H 0.49838 0.24722 0.33723 0.0
C1108 C 0.46926 0.27615 0.35919 0.0
C1109 C 0.45721 0.28528 0.38655 0.0
C1110 C 0.52698 0.20308 0.4127 0.0
C1111 C 0.49776 0.24078 0.38575 0.0
C1112 C 0.54708 0.18071 0.41183 0.0
C1113 C 0.55916 0.17201 0.38433 0.0
C1114 C 0.51891 0.21679 0.38583 0.0
C1115 C 0.5504 0.18604 0.35799 0.0
C1116 C 0.48948 0.25397 0.35867 0.0
C1117 C 0.4663 0.27194 0.41319 0.0
N1118 N 0.53083 0.20772 0.35939 0.0
N1119 N 0.48597 0.25027 0.41213 0.0
H1120 H 0.58338 0.46493 0.78756 0.0
H1121 H 0.6629 0.60841 0.71618 0.0
H1122 H 0.67156 0.49765 0.81568 0.0
H1123 H 0.59044 0.55593 0.67258 0.0
H1124 H 0.66384 0.57234 0.75669 0.0
H1125 H 0.58252 0.50303 0.74933 0.0
C1126 C 0.60248 0.48035 0.78568 0.0
C1127 C 0.62759 0.47828 0.80449 0.0
C1128 C 0.6478 0.56883 0.73818 0.0
C1129 C 0.62693 0.5218 0.76102 0.0
C1130 C 0.6472 0.5894 0.71511 0.0
C1131 C 0.6266 0.58521 0.69087 0.0
C1132 C 0.62736 0.54421 0.73717 0.0
C1133 C 0.60679 0.56013 0.69068 0.0
C1134 C 0.60209 0.50196 0.76385 0.0
C1135 C 0.65188 0.49859 0.80132 0.0
N1136 N 0.6076 0.54073 0.71348 0.0
N1137 N 0.65097 0.51963 0.77995 0.0
H1138 H 0.72604 0.37969 0.91977 0.0
H1139 H 0.75143 0.38752 0.09881 0.0
H1140 H 0.65587 0.39667 0.98159 0.0
H1141 H 0.82239 0.40695 0.03715 0.0
H1142 H 0.71599 0.38432 0.05595 0.0
H1143 H 0.7618 0.38265 0.96257 0.0
C1144 C 0.71812 0.38384 0.94231 0.0
C1145 C 0.68792 0.38802 0.94708 0.0
C1146 C 0.73931 0.3894 0.05186 0.0
C1147 C 0.72861 0.39126 0.99602 0.0
C1148 C 0.75956 0.39121 0.07629 0.0
C1149 C 0.78993 0.39764 0.07161 0.0
C1150 C 0.74953 0.3935 0.02244 0.0
C1151 C 0.79916 0.40216 0.04187 0.0
C1152 C 0.73855 0.38571 0.96667 0.0
C1153 C 0.67894 0.39347 0.9768 0.0
N1154 N 0.77908 0.39979 0.01839 0.0
N1155 N 0.69915 0.39479 1.00012 0.0
H1156 H 0.84047 0.43168 0.2428 0.0
H1157 H 0.87511 0.60326 0.27579 0.0
H1158 H 0.86983 0.49191 0.17413 0.0
H1159 H 0.88418 0.5392 0.3454 0.0
H1160 H 0.86752 0.56304 0.23829 0.0
H1161 H 0.84999 0.4714 0.28108 0.0
C1162 C 0.84866 0.45329 0.23575 0.0
C1163 C 0.85435 0.45854 0.20525 0.0
C1164 C 0.87139 0.55777 0.26173 0.0
C1165 C 0.86522 0.5038 0.24874 0.0
C1166 C 0.87571 0.58069 0.28314 0.0
C1167 C 0.88032 0.57452 0.31373 0.0
C1168 C 0.87109 0.52842 0.27099 0.0
C1169 C 0.8809 0.54488 0.322 0.0
C1170 C 0.85432 0.4758 0.2576 0.0
C1171 C 0.8652 0.48686 0.19739 0.0
N1172 N 0.87599 0.52284 0.30075 0.0
N1173 N 0.87014 0.50845 0.21897 0.0
H1174 H 0.696 0.67583 0.56977 0.0
H1175 H 0.78164 0.58998 0.44328 0.0
H1176 H 0.6606 0.59207 0.53201 0.0
H1177 H 0.79258 0.68404 0.4594 0.0
H1178 H 0.73973 0.588 0.47809 0.0
H1179 H 0.73435 0.67696 0.53212 0.0
C1180 C 0.69631 0.65758 0.55353 0.0
C1181 C 0.67511 0.63371 0.55412 0.0
C1182 C 0.75121 0.60906 0.47384 0.0
C1183 C 0.71926 0.63493 0.51081 0.0
C1184 C 0.77509 0.61015 0.45421 0.0
C1185 C 0.79043 0.63719 0.44888 0.0
C1186 C 0.74309 0.63516 0.48837 0.0
C1187 C 0.78121 0.66281 0.46315 0.0
C1188 C 0.71817 0.65836 0.5319 0.0
C1189 C 0.67651 0.61088 0.53229 0.0
N1190 N 0.75826 0.66115 0.48247 0.0
N1191 N 0.69846 0.61191 0.51159 0.0
H1192 H 0.42532 0.54279 0.2189 0.0
H1193 H 0.36864 0.47036 0.36919 0.0
H1194 H 0.33571 0.55512 0.24719 0.0
H1195 H 0.40995 0.41844 0.30083 0.0
H1196 H 0.36706 0.51146 0.33372 0.0
H1197 H 0.43039 0.5062 0.25808 0.0
C1198 C 0.40665 0.53781 0.23321 0.0
C1199 C 0.3798 0.5517 0.22922 0.0
C1200 C 0.37681 0.49115 0.32679 0.0
C1201 C 0.38621 0.51105 0.27517 0.0
C1202 C 0.37795 0.46793 0.34698 0.0
C1203 C 0.38956 0.4412 0.33779 0.0
C1204 C 0.38821 0.48774 0.29774 0.0
C1205 C 0.40092 0.4388 0.30867 0.0
C1206 C 0.40975 0.51719 0.25576 0.0
C1207 C 0.3569 0.54522 0.2495 0.0
N1208 N 0.40017 0.46187 0.28971 0.0
N1209 N 0.36062 0.52537 0.27167 0.0
H1210 H 0.24319 0.61394 0.91735 0.0
H1211 H 0.271 0.62063 0.0957 0.0
H1212 H 0.17459 0.58862 0.97971 0.0
H1213 H 0.34124 0.60335 0.03409 0.0
H1214 H 0.23511 0.6163 0.05313 0.0
H1215 H 0.27951 0.61756 0.95972 0.0
C1216 C 0.23576 0.60918 0.9399 0.0
C1217 C 0.20583 0.60082 0.94495 0.0
C1218 C 0.25838 0.61339 0.04901 0.0
C1219 C 0.2471 0.60537 0.99344 0.0
C1220 C 0.27888 0.61594 0.07325 0.0
C1221 C 0.30917 0.61224 0.06849 0.0
C1222 C 0.26829 0.60774 0.01968 0.0
C1223 C 0.31809 0.60615 0.03886 0.0
C1224 C 0.2565 0.61114 0.96401 0.0
C1225 C 0.19746 0.59491 0.97469 0.0
N1226 N 0.29779 0.60433 0.01554 0.0
N1227 N 0.21791 0.59752 0.99781 0.0
H1228 H 0.13055 0.4923 0.8435 0.0
H1229 H 0.1158 0.46464 0.66595 0.0
H1230 H 0.15417 0.56004 0.78015 0.0
H1231 H 0.1339 0.39417 0.72624 0.0
H1232 H 0.12384 0.50018 0.70827 0.0
H1233 H 0.12622 0.45591 0.80145 0.0
C1234 C 0.13498 0.49949 0.82081 0.0
C1235 C 0.14276 0.52926 0.81535 0.0
C1236 C 0.12616 0.47694 0.71217 0.0
C1237 C 0.13731 0.48791 0.76723 0.0
C1238 C 0.12142 0.45663 0.68809 0.0
C1239 C 0.12421 0.42638 0.69255 0.0
C1240 C 0.13314 0.46691 0.74108 0.0
C1241 C 0.13169 0.41729 0.72174 0.0
C1242 C 0.13256 0.47872 0.79688 0.0
C1243 C 0.14827 0.53732 0.78546 0.0
N1244 N 0.13563 0.43745 0.74497 0.0
N1245 N 0.14511 0.51685 0.76251 0.0
H1246 H 0.2811 0.32415 0.41192 0.0
H1247 H 0.19269 0.41351 0.53544 0.0
H1248 H 0.31562 0.4056 0.45533 0.0
H1249 H 0.18115 0.31889 0.52433 0.0
H1250 H 0.23131 0.41388 0.49724 0.0
H1251 H 0.23767 0.32473 0.44471 0.0
C1252 C 0.27939 0.34224 0.42809 0.0
C1253 C 0.30203 0.36474 0.43111 0.0
C1254 C 0.22017 0.39306 0.50301 0.0
C1255 C 0.25261 0.36572 0.46811 0.0
C1256 C 0.19812 0.39288 0.52462 0.0
C1257 C 0.18393 0.36614 0.53287 0.0
C1258 C 0.22778 0.36632 0.48937 0.0
C1259 C 0.19181 0.33992 0.51851 0.0
C1260 C 0.25476 0.34249 0.44682 0.0
C1261 C 0.29881 0.38765 0.45247 0.0
N1262 N 0.21325 0.34062 0.49734 0.0
N1263 N 0.27455 0.3876 0.47007 0.0
loop_
_geom_bond_atom_site_label_1
_geom_bond_atom_site_label_2
_geom_bond_distance
_geom_bond_site_symmetry_2
_ccdc_geom_bond_type
Co0 O3 1.970 . S
Co0 N17 1.989 . S
Co0 O25 1.967 . S
Co0 O32 1.920 . S
Co1 O4 1.966 . S
Co1 N10 2.022 . S
Co1 N18 1.993 . S
Co1 O26 1.941 . S
C2 O3 1.258 . S
C2 O4 1.263 . S
O3 Co0 1.970 . S
O3 C2 1.258 . S
O4 Co1 1.966 . S
O4 C2 1.263 . S
C5 O6 1.235 . S
C5 O32 1.289 . S
O6 C5 1.235 . S
C7 C9 1.400 . S
C7 N10 1.351 . S
C7 C12 1.501 . S
C8 C9 1.387 . S
C8 N11 1.341 . S
C9 C7 1.400 . S
C9 C8 1.387 . S
N10 Co1 2.022 . S
N10 C7 1.351 . S
N10 N11 1.365 . S
N11 C8 1.341 . S
N11 N10 1.365 . S
N11 H31 0.862 . S
C12 C7 1.501 . S
C12 H13 0.961 . S
C12 H14 0.961 . S
C12 H15 0.960 . S
H13 C12 0.961 . S
H14 C12 0.961 . S
H15 C12 0.960 . S
C16 N17 1.342 . S
C16 C20 1.401 . S
C16 C21 1.499 . S
N17 Co0 1.989 . S
N17 C16 1.342 . S
N17 N18 1.388 . S
N18 Co1 1.993 . S
N18 N17 1.388 . S
N18 C19 1.346 . S
C19 N18 1.346 . S
C19 C20 1.396 . S
C19 C29 1.510 . S
C20 C16 1.401 . S
C20 C19 1.396 . S
C21 C16 1.499 . S
C21 H22 0.959 . S
C21 H23 0.960 . S
C21 H24 0.961 . S
H22 C21 0.959 . S
H23 C21 0.960 . S
H24 C21 0.961 . S
O25 Co0 1.967 . S
O25 C33 1.258 . S
O26 Co1 1.941 . S
O26 C33 1.266 . S
H27 C29 0.959 . S
H28 C29 0.961 . S
C29 C19 1.510 . S
C29 H27 0.959 . S
C29 H28 0.961 . S
C29 H30 0.960 . S
H30 C29 0.960 . S
H31 N11 0.862 . S
O32 Co0 1.920 . S
O32 C5 1.289 . S
C33 O25 1.258 . S
C33 O26 1.266 . S
Co34 O37 1.970 . S
Co34 N51 1.989 . S
Co34 O59 1.967 . S
Co34 O66 1.920 . S
Co35 O38 1.966 . S
Co35 N44 2.022 . S
Co35 N52 1.993 . S
Co35 O60 1.941 . S
C36 O37 1.258 . S
C36 O38 1.263 . S
O37 Co34 1.970 . S
O37 C36 1.258 . S
O38 Co35 1.966 . S
O38 C36 1.263 . S
C39 O40 1.235 . S
C39 O66 1.289 . S
O40 C39 1.235 . S
C41 C43 1.400 . S
C41 N44 1.351 . S
C41 C46 1.501 . S
C42 C43 1.387 . S
C42 N45 1.341 . S
C43 C41 1.400 . S
C43 C42 1.387 . S
N44 Co35 2.022 . S
N44 C41 1.351 . S
N44 N45 1.365 . S
N45 C42 1.341 . S
N45 N44 1.365 . S
N45 H65 0.862 . S
C46 C41 1.501 . S
C46 H47 0.961 . S
C46 H48 0.961 . S
C46 H49 0.960 . S
H47 C46 0.961 . S
H48 C46 0.961 . S
H49 C46 0.960 . S
C50 N51 1.342 . S
C50 C54 1.401 . S
C50 C55 1.499 . S
N51 Co34 1.989 . S
N51 C50 1.342 . S
N51 N52 1.388 . S
N52 Co35 1.993 . S
N52 N51 1.388 . S
N52 C53 1.346 . S
C53 N52 1.346 . S
C53 C54 1.396 . S
C53 C63 1.510 . S
C54 C50 1.401 . S
C54 C53 1.396 . S
C55 C50 1.499 . S
C55 H56 0.959 . S
C55 H57 0.960 . S
C55 H58 0.961 . S
H56 C55 0.959 . S
H57 C55 0.960 . S
H58 C55 0.961 . S
O59 Co34 1.967 . S
O59 C67 1.258 . S
O60 Co35 1.941 . S
O60 C67 1.266 . S
H61 C63 0.959 . S
H62 C63 0.961 . S
C63 C53 1.510 . S
C63 H61 0.959 . S
C63 H62 0.961 . S
C63 H64 0.960 . S
H64 C63 0.960 . S
H65 N45 0.862 . S
O66 Co34 1.920 . S
O66 C39 1.289 . S
C67 O59 1.258 . S
C67 O60 1.266 . S
Co68 O71 1.970 . S
Co68 N85 1.989 . S
Co68 O93 1.967 . S
Co68 O100 1.920 . S
Co69 O72 1.966 . S
Co69 N78 2.022 . S
Co69 N86 1.993 . S
Co69 O94 1.941 . S
C70 O71 1.258 . S
C70 O72 1.263 . S
O71 Co68 1.970 . S
O71 C70 1.258 . S
O72 Co69 1.966 . S
O72 C70 1.263 . S
C73 O74 1.235 . S
C73 O100 1.289 . S
O74 C73 1.235 . S
C75 C77 1.400 . S
C75 N78 1.351 . S
C75 C80 1.501 . S
C76 C77 1.387 . S
C76 N79 1.341 . S
C77 C75 1.400 . S
C77 C76 1.387 . S
N78 Co69 2.022 . S
N78 C75 1.351 . S
N78 N79 1.365 . S
N79 C76 1.341 . S
N79 N78 1.365 . S
N79 H99 0.862 . S
C80 C75 1.501 . S
C80 H81 0.961 . S
C80 H82 0.961 . S
C80 H83 0.960 . S
H81 C80 0.961 . S
H82 C80 0.961 . S
H83 C80 0.960 . S
C84 N85 1.342 . S
C84 C88 1.401 . S
C84 C89 1.499 . S
N85 Co68 1.989 . S
N85 C84 1.342 . S
N85 N86 1.388 . S
N86 Co69 1.993 . S
N86 N85 1.388 . S
N86 C87 1.346 . S
C87 N86 1.346 . S
C87 C88 1.396 . S
C87 C97 1.510 . S
C88 C84 1.401 . S
C88 C87 1.396 . S
C89 C84 1.499 . S
C89 H90 0.959 . S
C89 H91 0.960 . S
C89 H92 0.961 . S
H90 C89 0.959 . S
H91 C89 0.960 . S
H92 C89 0.961 . S
O93 Co68 1.967 . S
O93 C101 1.258 . S
O94 Co69 1.941 . S
O94 C101 1.266 . S
H95 C97 0.959 . S
H96 C97 0.961 . S
C97 C87 1.510 . S
C97 H95 0.959 . S
C97 H96 0.961 . S
C97 H98 0.960 . S
H98 C97 0.960 . S
H99 N79 0.862 . S
O100 Co68 1.920 . S
O100 C73 1.289 . S
C101 O93 1.258 . S
C101 O94 1.266 . S
Co102 O105 1.970 . S
Co102 N119 1.989 . S
Co102 O127 1.967 . S
Co102 O134 1.920 . S
Co103 O106 1.966 . S
Co103 N112 2.022 . S
Co103 N120 1.993 . S
Co103 O128 1.941 . S
C104 O105 1.258 . S
C104 O106 1.263 . S
O105 Co102 1.970 . S
O105 C104 1.258 . S
O106 Co103 1.966 . S
O106 C104 1.263 . S
C107 O108 1.235 . S
C107 O134 1.289 . S
O108 C107 1.235 . S
C109 C111 1.400 . S
C109 N112 1.351 . S
C109 C114 1.501 . S
C110 C111 1.387 . S
C110 N113 1.341 . S
C111 C109 1.400 . S
C111 C110 1.387 . S
N112 Co103 2.022 . S
N112 C109 1.351 . S
N112 N113 1.365 . S
N113 C110 1.341 . S
N113 N112 1.365 . S
N113 H133 0.862 . S
C114 C109 1.501 . S
C114 H115 0.961 . S
C114 H116 0.961 . S
C114 H117 0.960 . S
H115 C114 0.961 . S
H116 C114 0.961 . S
H117 C114 0.960 . S
C118 N119 1.342 . S
C118 C122 1.401 . S
C118 C123 1.499 . S
N119 Co102 1.989 . S
N119 C118 1.342 . S
N119 N120 1.388 . S
N120 Co103 1.993 . S
N120 N119 1.388 . S
N120 C121 1.346 . S
C121 N120 1.346 . S
C121 C122 1.396 . S
C121 C131 1.510 . S
C122 C118 1.401 . S
C122 C121 1.396 . S
C123 C118 1.499 . S
C123 H124 0.959 . S
C123 H125 0.960 . S
C123 H126 0.961 . S
H124 C123 0.959 . S
H125 C123 0.960 . S
H126 C123 0.961 . S
O127 Co102 1.967 . S
O127 C135 1.258 . S
O128 Co103 1.941 . S
O128 C135 1.266 . S
H129 C131 0.959 . S
H130 C131 0.961 . S
C131 C121 1.510 . S
C131 H129 0.959 . S
C131 H130 0.961 . S
C131 H132 0.960 . S
H132 C131 0.960 . S
H133 N113 0.862 . S
O134 Co102 1.920 . S
O134 C107 1.289 . S
C135 O127 1.258 . S
C135 O128 1.266 . S
Co136 O139 1.970 . S
Co136 N153 1.989 . S
Co136 O161 1.967 . S
Co136 O168 1.920 . S
Co137 O140 1.966 . S
Co137 N146 2.022 . S
Co137 N154 1.993 . S
Co137 O162 1.941 . S
C138 O139 1.258 . S
C138 O140 1.263 . S
O139 Co136 1.970 . S
O139 C138 1.258 . S
O140 Co137 1.966 . S
O140 C138 1.263 . S
C141 O142 1.235 . S
C141 O168 1.289 . S
O142 C141 1.235 . S
C143 C145 1.400 . S
C143 N146 1.351 . S
C143 C148 1.501 . S
C144 C145 1.387 . S
C144 N147 1.341 . S
C145 C143 1.400 . S
C145 C144 1.387 . S
N146 Co137 2.022 . S
N146 C143 1.351 . S
N146 N147 1.365 . S
N147 C144 1.341 . S
N147 N146 1.365 . S
N147 H167 0.862 . S
C148 C143 1.501 . S
C148 H149 0.961 . S
C148 H150 0.961 . S
C148 H151 0.960 . S
H149 C148 0.961 . S
H150 C148 0.961 . S
H151 C148 0.960 . S
C152 N153 1.342 . S
C152 C156 1.401 . S
C152 C157 1.499 . S
N153 Co136 1.989 . S
N153 C152 1.342 . S
N153 N154 1.388 . S
N154 Co137 1.993 . S
N154 N153 1.388 . S
N154 C155 1.346 . S
C155 N154 1.346 . S
C155 C156 1.396 . S
C155 C165 1.510 . S
C156 C152 1.401 . S
C156 C155 1.396 . S
C157 C152 1.499 . S
C157 H158 0.959 . S
C157 H159 0.960 . S
C157 H160 0.961 . S
H158 C157 0.959 . S
H159 C157 0.960 . S
H160 C157 0.961 . S
O161 Co136 1.967 . S
O161 C169 1.258 . S
O162 Co137 1.941 . S
O162 C169 1.266 . S
H163 C165 0.959 . S
H164 C165 0.961 . S
C165 C155 1.510 . S
C165 H163 0.959 . S
C165 H164 0.961 . S
C165 H166 0.960 . S
H166 C165 0.960 . S
H167 N147 0.862 . S
O168 Co136 1.920 . S
O168 C141 1.289 . S
C169 O161 1.258 . S
C169 O162 1.266 . S
Co170 O173 1.970 . S
Co170 N187 1.989 . S
Co170 O195 1.967 . S
Co170 O202 1.920 . S
Co171 O174 1.966 . S
Co171 N180 2.022 . S
Co171 N188 1.993 . S
Co171 O196 1.941 . S
C172 O173 1.258 . S
C172 O174 1.263 . S
O173 Co170 1.970 . S
O173 C172 1.258 . S
O174 Co171 1.966 . S
O174 C172 1.263 . S
C175 O176 1.235 . S
C175 O202 1.289 . S
O176 C175 1.235 . S
C177 C179 1.400 . S
C177 N180 1.351 . S
C177 C182 1.501 . S
C178 C179 1.387 . S
C178 N181 1.341 . S
C179 C177 1.400 . S
C179 C178 1.387 . S
N180 Co171 2.022 . S
N180 C177 1.351 . S
N180 N181 1.365 . S
N181 C178 1.341 . S
N181 N180 1.365 . S
N181 H201 0.862 . S
C182 C177 1.501 . S
C182 H183 0.961 . S
C182 H184 0.961 . S
C182 H185 0.960 . S
H183 C182 0.961 . S
H184 C182 0.961 . S
H185 C182 0.960 . S
C186 N187 1.342 . S
C186 C190 1.401 . S
C186 C191 1.499 . S
N187 Co170 1.989 . S
N187 C186 1.342 . S
N187 N188 1.388 . S
N188 Co171 1.993 . S
N188 N187 1.388 . S
N188 C189 1.346 . S
C189 N188 1.346 . S
C189 C190 1.396 . S
C189 C199 1.510 . S
C190 C186 1.401 . S
C190 C189 1.396 . S
C191 C186 1.499 . S
C191 H192 0.959 . S
C191 H193 0.960 . S
C191 H194 0.961 . S
H192 C191 0.959 . S
H193 C191 0.960 . S
H194 C191 0.961 . S
O195 Co170 1.967 . S
O195 C203 1.258 . S
O196 Co171 1.941 . S
O196 C203 1.266 . S
H197 C199 0.959 . S
H198 C199 0.961 . S
C199 C189 1.510 . S
C199 H197 0.959 . S
C199 H198 0.961 . S
C199 H200 0.960 . S
H200 C199 0.960 . S
H201 N181 0.862 . S
O202 Co170 1.920 . S
O202 C175 1.289 . S
C203 O195 1.258 . S
C203 O196 1.266 . S
Co204 O207 1.970 . S
Co204 N221 1.989 . S
Co204 O229 1.967 . S
Co204 O236 1.920 . S
Co205 O208 1.966 . S
Co205 N214 2.022 . S
Co205 N222 1.993 . S
Co205 O230 1.941 . S
C206 O207 1.258 . S
C206 O208 1.263 . S
O207 Co204 1.970 . S
O207 C206 1.258 . S
O208 Co205 1.966 . S
O208 C206 1.263 . S
C209 O210 1.235 . S
C209 O236 1.289 . S
O210 C209 1.235 . S
C211 C213 1.400 . S
C211 N214 1.351 . S
C211 C216 1.501 . S
C212 C213 1.387 . S
C212 N215 1.341 . S
C213 C211 1.400 . S
C213 C212 1.387 . S
N214 Co205 2.022 . S
N214 C211 1.351 . S
N214 N215 1.365 . S
N215 C212 1.341 . S
N215 N214 1.365 . S
N215 H235 0.862 . S
C216 C211 1.501 . S
C216 H217 0.961 . S
C216 H218 0.961 . S
C216 H219 0.960 . S
H217 C216 0.961 . S
H218 C216 0.961 . S
H219 C216 0.960 . S
C220 N221 1.342 . S
C220 C224 1.401 . S
C220 C225 1.499 . S
N221 Co204 1.989 . S
N221 C220 1.342 . S
N221 N222 1.388 . S
N222 Co205 1.993 . S
N222 N221 1.388 . S
N222 C223 1.346 . S
C223 N222 1.346 . S
C223 C224 1.396 . S
C223 C233 1.510 . S
C224 C220 1.401 . S
C224 C223 1.396 . S
C225 C220 1.499 . S
C225 H226 0.959 . S
C225 H227 0.960 . S
C225 H228 0.961 . S
H226 C225 0.959 . S
H227 C225 0.960 . S
H228 C225 0.961 . S
O229 Co204 1.967 . S
O229 C237 1.258 . S
O230 Co205 1.941 . S
O230 C237 1.266 . S
H231 C233 0.959 . S
H232 C233 0.961 . S
C233 C223 1.510 . S
C233 H231 0.959 . S
C233 H232 0.961 . S
C233 H234 0.960 . S
H234 C233 0.960 . S
H235 N215 0.862 . S
O236 Co204 1.920 . S
O236 C209 1.289 . S
C237 O229 1.258 . S
C237 O230 1.266 . S
Co238 O241 1.970 . S
Co238 N255 1.989 . S
Co238 O263 1.967 . S
Co238 O270 1.920 . S
Co239 O242 1.966 . S
Co239 N248 2.022 . S
Co239 N256 1.993 . S
Co239 O264 1.941 . S
C240 O241 1.258 . S
C240 O242 1.263 . S
O241 Co238 1.970 . S
O241 C240 1.258 . S
O242 Co239 1.966 . S
O242 C240 1.263 . S
C243 O244 1.235 . S
C243 O270 1.289 . S
O244 C243 1.235 . S
C245 C247 1.400 . S
C245 N248 1.351 . S
C245 C250 1.501 . S
C246 C247 1.387 . S
C246 N249 1.341 . S
C247 C245 1.400 . S
C247 C246 1.387 . S
N248 Co239 2.022 . S
N248 C245 1.351 . S
N248 N249 1.365 . S
N249 C246 1.341 . S
N249 N248 1.365 . S
N249 H269 0.862 . S
C250 C245 1.501 . S
C250 H251 0.961 . S
C250 H252 0.961 . S
C250 H253 0.960 . S
H251 C250 0.961 . S
H252 C250 0.961 . S
H253 C250 0.960 . S
C254 N255 1.342 . S
C254 C258 1.401 . S
C254 C259 1.499 . S
N255 Co238 1.989 . S
N255 C254 1.342 . S
N255 N256 1.388 . S
N256 Co239 1.993 . S
N256 N255 1.388 . S
N256 C257 1.346 . S
C257 N256 1.346 . S
C257 C258 1.396 . S
C257 C267 1.510 . S
C258 C254 1.401 . S
C258 C257 1.396 . S
C259 C254 1.499 . S
C259 H260 0.959 . S
C259 H261 0.960 . S
C259 H262 0.961 . S
H260 C259 0.959 . S
H261 C259 0.960 . S
H262 C259 0.961 . S
O263 Co238 1.967 . S
O263 C271 1.258 . S
O264 Co239 1.941 . S
O264 C271 1.266 . S
H265 C267 0.959 . S
H266 C267 0.961 . S
C267 C257 1.510 . S
C267 H265 0.959 . S
C267 H266 0.961 . S
C267 H268 0.960 . S
H268 C267 0.960 . S
H269 N249 0.862 . S
O270 Co238 1.920 . S
O270 C243 1.289 . S
C271 O263 1.258 . S
C271 O264 1.266 . S
Co272 O275 1.970 . S
Co272 N289 1.989 . S
Co272 O297 1.967 . S
Co272 O304 1.920 . S
Co273 O276 1.966 . S
Co273 N282 2.022 . S
Co273 N290 1.993 . S
Co273 O298 1.941 . S
C274 O275 1.258 . S
C274 O276 1.263 . S
O275 Co272 1.970 . S
O275 C274 1.258 . S
O276 Co273 1.966 . S
O276 C274 1.263 . S
C277 O278 1.235 . S
C277 O304 1.289 . S
O278 C277 1.235 . S
C279 C281 1.400 . S
C279 N282 1.351 . S
C279 C284 1.501 . S
C280 C281 1.387 . S
C280 N283 1.341 . S
C281 C279 1.400 . S
C281 C280 1.387 . S
N282 Co273 2.022 . S
N282 C279 1.351 . S
N282 N283 1.365 . S
N283 C280 1.341 . S
N283 N282 1.365 . S
N283 H303 0.862 . S
C284 C279 1.501 . S
C284 H285 0.961 . S
C284 H286 0.961 . S
C284 H287 0.960 . S
H285 C284 0.961 . S
H286 C284 0.961 . S
H287 C284 0.960 . S
C288 N289 1.342 . S
C288 C292 1.401 . S
C288 C293 1.499 . S
N289 Co272 1.989 . S
N289 C288 1.342 . S
N289 N290 1.388 . S
N290 Co273 1.993 . S
N290 N289 1.388 . S
N290 C291 1.346 . S
C291 N290 1.346 . S
C291 C292 1.396 . S
C291 C301 1.510 . S
C292 C288 1.401 . S
C292 C291 1.396 . S
C293 C288 1.499 . S
C293 H294 0.959 . S
C293 H295 0.960 . S
C293 H296 0.961 . S
H294 C293 0.959 . S
H295 C293 0.960 . S
H296 C293 0.961 . S
O297 Co272 1.967 . S
O297 C305 1.258 . S
O298 Co273 1.941 . S
O298 C305 1.266 . S
H299 C301 0.959 . S
H300 C301 0.961 . S
C301 C291 1.510 . S
C301 H299 0.959 . S
C301 H300 0.961 . S
C301 H302 0.960 . S
H302 C301 0.960 . S
H303 N283 0.862 . S
O304 Co272 1.920 . S
O304 C277 1.289 . S
C305 O297 1.258 . S
C305 O298 1.266 . S
Co306 O309 1.970 . S
Co306 N323 1.989 . S
Co306 O331 1.967 . S
Co306 O338 1.920 . S
Co307 O310 1.966 . S
Co307 N316 2.022 . S
Co307 N324 1.993 . S
Co307 O332 1.941 . S
C308 O309 1.258 . S
C308 O310 1.263 . S
O309 Co306 1.970 . S
O309 C308 1.258 . S
O310 Co307 1.966 . S
O310 C308 1.263 . S
C311 O312 1.235 . S
C311 O338 1.289 . S
O312 C311 1.235 . S
C313 C315 1.400 . S
C313 N316 1.351 . S
C313 C318 1.501 . S
C314 C315 1.387 . S
C314 N317 1.341 . S
C315 C313 1.400 . S
C315 C314 1.387 . S
N316 Co307 2.022 . S
N316 C313 1.351 . S
N316 N317 1.365 . S
N317 C314 1.341 . S
N317 N316 1.365 . S
N317 H337 0.862 . S
C318 C313 1.501 . S
C318 H319 0.961 . S
C318 H320 0.961 . S
C318 H321 0.960 . S
H319 C318 0.961 . S
H320 C318 0.961 . S
H321 C318 0.960 . S
C322 N323 1.342 . S
C322 C326 1.401 . S
C322 C327 1.499 . S
N323 Co306 1.989 . S
N323 C322 1.342 . S
N323 N324 1.388 . S
N324 Co307 1.993 . S
N324 N323 1.388 . S
N324 C325 1.346 . S
C325 N324 1.346 . S
C325 C326 1.396 . S
C325 C335 1.510 . S
C326 C322 1.401 . S
C326 C325 1.396 . S
C327 C322 1.499 . S
C327 H328 0.959 . S
C327 H329 0.960 . S
C327 H330 0.961 . S
H328 C327 0.959 . S
H329 C327 0.960 . S
H330 C327 0.961 . S
O331 Co306 1.967 . S
O331 C339 1.258 . S
O332 Co307 1.941 . S
O332 C339 1.266 . S
H333 C335 0.959 . S
H334 C335 0.961 . S
C335 C325 1.510 . S
C335 H333 0.959 . S
C335 H334 0.961 . S
C335 H336 0.960 . S
H336 C335 0.960 . S
H337 N317 0.862 . S
O338 Co306 1.920 . S
O338 C311 1.289 . S
C339 O331 1.258 . S
C339 O332 1.266 . S
Co340 O343 1.970 . S
Co340 N357 1.989 . S
Co340 O365 1.967 . S
Co340 O372 1.920 . S
Co341 O344 1.966 . S
Co341 N350 2.022 . S
Co341 N358 1.993 . S
Co341 O366 1.941 . S
C342 O343 1.258 . S
C342 O344 1.263 . S
O343 Co340 1.970 . S
O343 C342 1.258 . S
O344 Co341 1.966 . S
O344 C342 1.263 . S
C345 O346 1.235 . S
C345 O372 1.289 . S
O346 C345 1.235 . S
C347 C349 1.400 . S
C347 N350 1.351 . S
C347 C352 1.501 . S
C348 C349 1.387 . S
C348 N351 1.341 . S
C349 C347 1.400 . S
C349 C348 1.387 . S
N350 Co341 2.022 . S
N350 C347 1.351 . S
N350 N351 1.365 . S
N351 C348 1.341 . S
N351 N350 1.365 . S
N351 H371 0.862 . S
C352 C347 1.501 . S
C352 H353 0.961 . S
C352 H354 0.961 . S
C352 H355 0.960 . S
H353 C352 0.961 . S
H354 C352 0.961 . S
H355 C352 0.960 . S
C356 N357 1.342 . S
C356 C360 1.401 . S
C356 C361 1.499 . S
N357 Co340 1.989 . S
N357 C356 1.342 . S
N357 N358 1.388 . S
N358 Co341 1.993 . S
N358 N357 1.388 . S
N358 C359 1.346 . S
C359 N358 1.346 . S
C359 C360 1.396 . S
C359 C369 1.510 . S
C360 C356 1.401 . S
C360 C359 1.396 . S
C361 C356 1.499 . S
C361 H362 0.959 . S
C361 H363 0.960 . S
C361 H364 0.961 . S
H362 C361 0.959 . S
H363 C361 0.960 . S
H364 C361 0.961 . S
O365 Co340 1.967 . S
O365 C373 1.258 . S
O366 Co341 1.941 . S
O366 C373 1.266 . S
H367 C369 0.959 . S
H368 C369 0.961 . S
C369 C359 1.510 . S
C369 H367 0.959 . S
C369 H368 0.961 . S
C369 H370 0.960 . S
H370 C369 0.960 . S
H371 N351 0.862 . S
O372 Co340 1.920 . S
O372 C345 1.289 . S
C373 O365 1.258 . S
C373 O366 1.266 . S
Co374 O377 1.970 . S
Co374 N391 1.989 . S
Co374 O399 1.967 . S
Co374 O406 1.920 . S
Co375 O378 1.966 . S
Co375 N384 2.022 . S
Co375 N392 1.993 . S
Co375 O400 1.941 . S
C376 O377 1.258 . S
C376 O378 1.263 . S
O377 Co374 1.970 . S
O377 C376 1.258 . S
O378 Co375 1.966 . S
O378 C376 1.263 . S
C379 O380 1.235 . S
C379 O406 1.289 . S
O380 C379 1.235 . S
C381 C383 1.400 . S
C381 N384 1.351 . S
C381 C386 1.501 . S
C382 C383 1.387 . S
C382 N385 1.341 . S
C383 C381 1.400 . S
C383 C382 1.387 . S
N384 Co375 2.022 . S
N384 C381 1.351 . S
N384 N385 1.365 . S
N385 C382 1.341 . S
N385 N384 1.365 . S
N385 H405 0.862 . S
C386 C381 1.501 . S
C386 H387 0.961 . S
C386 H388 0.961 . S
C386 H389 0.960 . S
H387 C386 0.961 . S
H388 C386 0.961 . S
H389 C386 0.960 . S
C390 N391 1.342 . S
C390 C394 1.401 . S
C390 C395 1.499 . S
N391 Co374 1.989 . S
N391 C390 1.342 . S
N391 N392 1.388 . S
N392 Co375 1.993 . S
N392 N391 1.388 . S
N392 C393 1.346 . S
C393 N392 1.346 . S
C393 C394 1.396 . S
C393 C403 1.510 . S
C394 C390 1.401 . S
C394 C393 1.396 . S
C395 C390 1.499 . S
C395 H396 0.959 . S
C395 H397 0.960 . S
C395 H398 0.961 . S
H396 C395 0.959 . S
H397 C395 0.960 . S
H398 C395 0.961 . S
O399 Co374 1.967 . S
O399 C407 1.258 . S
O400 Co375 1.941 . S
O400 C407 1.266 . S
H401 C403 0.959 . S
H402 C403 0.961 . S
C403 C393 1.510 . S
C403 H401 0.959 . S
C403 H402 0.961 . S
C403 H404 0.960 . S
H404 C403 0.960 . S
H405 N385 0.862 . S
O406 Co374 1.920 . S
O406 C379 1.289 . S
C407 O399 1.258 . S
C407 O400 1.266 . S
Co408 O411 1.970 . S
Co408 N425 1.989 . S
Co408 O433 1.967 . S
Co408 O440 1.920 . S
Co409 O412 1.966 . S
Co409 N418 2.022 . S
Co409 N426 1.993 . S
Co409 O434 1.941 . S
C410 O411 1.258 . S
C410 O412 1.263 . S
O411 Co408 1.970 . S
O411 C410 1.258 . S
O412 Co409 1.966 . S
O412 C410 1.263 . S
C413 O414 1.235 . S
C413 O440 1.289 . S
O414 C413 1.235 . S
C415 C417 1.400 . S
C415 N418 1.351 . S
C415 C420 1.501 . S
C416 C417 1.387 . S
C416 N419 1.341 . S
C417 C415 1.400 . S
C417 C416 1.387 . S
N418 Co409 2.022 . S
N418 C415 1.351 . S
N418 N419 1.365 . S
N419 C416 1.341 . S
N419 N418 1.365 . S
N419 H439 0.862 . S
C420 C415 1.501 . S
C420 H421 0.961 . S
C420 H422 0.961 . S
C420 H423 0.960 . S
H421 C420 0.961 . S
H422 C420 0.961 . S
H423 C420 0.960 . S
C424 N425 1.342 . S
C424 C428 1.401 . S
C424 C429 1.499 . S
N425 Co408 1.989 . S
N425 C424 1.342 . S
N425 N426 1.388 . S
N426 Co409 1.993 . S
N426 N425 1.388 . S
N426 C427 1.346 . S
C427 N426 1.346 . S
C427 C428 1.396 . S
C427 C437 1.510 . S
C428 C424 1.401 . S
C428 C427 1.396 . S
C429 C424 1.499 . S
C429 H430 0.959 . S
C429 H431 0.960 . S
C429 H432 0.961 . S
H430 C429 0.959 . S
H431 C429 0.960 . S
H432 C429 0.961 . S
O433 Co408 1.967 . S
O433 C441 1.258 . S
O434 Co409 1.941 . S
O434 C441 1.266 . S
H435 C437 0.959 . S
H436 C437 0.961 . S
C437 C427 1.510 . S
C437 H435 0.959 . S
C437 H436 0.961 . S
C437 H438 0.960 . S
H438 C437 0.960 . S
H439 N419 0.862 . S
O440 Co408 1.920 . S
O440 C413 1.289 . S
C441 O433 1.258 . S
C441 O434 1.266 . S
Co442 O445 1.970 . S
Co442 N459 1.989 . S
Co442 O467 1.967 . S
Co442 O474 1.920 . S
Co443 O446 1.966 . S
Co443 N452 2.022 . S
Co443 N460 1.993 . S
Co443 O468 1.941 . S
C444 O445 1.258 . S
C444 O446 1.263 . S
O445 Co442 1.970 . S
O445 C444 1.258 . S
O446 Co443 1.966 . S
O446 C444 1.263 . S
C447 O448 1.235 . S
C447 O474 1.289 . S
O448 C447 1.235 . S
C449 C451 1.400 . S
C449 N452 1.351 . S
C449 C454 1.501 . S
C450 C451 1.387 . S
C450 N453 1.341 . S
C451 C449 1.400 . S
C451 C450 1.387 . S
N452 Co443 2.022 . S
N452 C449 1.351 . S
N452 N453 1.365 . S
N453 C450 1.341 . S
N453 N452 1.365 . S
N453 H473 0.862 . S
C454 C449 1.501 . S
C454 H455 0.961 . S
C454 H456 0.961 . S
C454 H457 0.960 . S
H455 C454 0.961 . S
H456 C454 0.961 . S
H457 C454 0.960 . S
C458 N459 1.342 . S
C458 C462 1.401 . S
C458 C463 1.499 . S
N459 Co442 1.989 . S
N459 C458 1.342 . S
N459 N460 1.388 . S
N460 Co443 1.993 . S
N460 N459 1.388 . S
N460 C461 1.346 . S
C461 N460 1.346 . S
C461 C462 1.396 . S
C461 C471 1.510 . S
C462 C458 1.401 . S
C462 C461 1.396 . S
C463 C458 1.499 . S
C463 H464 0.959 . S
C463 H465 0.960 . S
C463 H466 0.961 . S
H464 C463 0.959 . S
H465 C463 0.960 . S
H466 C463 0.961 . S
O467 Co442 1.967 . S
O467 C475 1.258 . S
O468 Co443 1.941 . S
O468 C475 1.266 . S
H469 C471 0.959 . S
H470 C471 0.961 . S
C471 C461 1.510 . S
C471 H469 0.959 . S
C471 H470 0.961 . S
C471 H472 0.960 . S
H472 C471 0.960 . S
H473 N453 0.862 . S
O474 Co442 1.920 . S
O474 C447 1.289 . S
C475 O467 1.258 . S
C475 O468 1.266 . S
Co476 O479 1.970 . S
Co476 N493 1.989 . S
Co476 O501 1.967 . S
Co476 O508 1.920 . S
Co477 O480 1.966 . S
Co477 N486 2.022 . S
Co477 N494 1.993 . S
Co477 O502 1.941 . S
C478 O479 1.258 . S
C478 O480 1.263 . S
O479 Co476 1.970 . S
O479 C478 1.258 . S
O480 Co477 1.966 . S
O480 C478 1.263 . S
C481 O482 1.235 . S
C481 O508 1.289 . S
O482 C481 1.235 . S
C483 C485 1.400 . S
C483 N486 1.351 . S
C483 C488 1.501 . S
C484 C485 1.387 . S
C484 N487 1.341 . S
C485 C483 1.400 . S
C485 C484 1.387 . S
N486 Co477 2.022 . S
N486 C483 1.351 . S
N486 N487 1.365 . S
N487 C484 1.341 . S
N487 N486 1.365 . S
N487 H507 0.862 . S
C488 C483 1.501 . S
C488 H489 0.961 . S
C488 H490 0.961 . S
C488 H491 0.960 . S
H489 C488 0.961 . S
H490 C488 0.961 . S
H491 C488 0.960 . S
C492 N493 1.342 . S
C492 C496 1.401 . S
C492 C497 1.499 . S
N493 Co476 1.989 . S
N493 C492 1.342 . S
N493 N494 1.388 . S
N494 Co477 1.993 . S
N494 N493 1.388 . S
N494 C495 1.346 . S
C495 N494 1.346 . S
C495 C496 1.396 . S
C495 C505 1.510 . S
C496 C492 1.401 . S
C496 C495 1.396 . S
C497 C492 1.499 . S
C497 H498 0.959 . S
C497 H499 0.960 . S
C497 H500 0.961 . S
H498 C497 0.959 . S
H499 C497 0.960 . S
H500 C497 0.961 . S
O501 Co476 1.967 . S
O501 C509 1.258 . S
O502 Co477 1.941 . S
O502 C509 1.266 . S
H503 C505 0.959 . S
H504 C505 0.961 . S
C505 C495 1.510 . S
C505 H503 0.959 . S
C505 H504 0.961 . S
C505 H506 0.960 . S
H506 C505 0.960 . S
H507 N487 0.862 . S
O508 Co476 1.920 . S
O508 C481 1.289 . S
C509 O501 1.258 . S
C509 O502 1.266 . S
Co510 O513 1.970 . S
Co510 N527 1.989 . S
Co510 O535 1.967 . S
Co510 O542 1.920 . S
Co511 O514 1.966 . S
Co511 N520 2.022 . S
Co511 N528 1.993 . S
Co511 O536 1.941 . S
C512 O513 1.258 . S
C512 O514 1.263 . S
O513 Co510 1.970 . S
O513 C512 1.258 . S
O514 Co511 1.966 . S
O514 C512 1.263 . S
C515 O516 1.235 . S
C515 O542 1.289 . S
O516 C515 1.235 . S
C517 C519 1.400 . S
C517 N520 1.351 . S
C517 C522 1.501 . S
C518 C519 1.387 . S
C518 N521 1.341 . S
C519 C517 1.400 . S
C519 C518 1.387 . S
N520 Co511 2.022 . S
N520 C517 1.351 . S
N520 N521 1.365 . S
N521 C518 1.341 . S
N521 N520 1.365 . S
N521 H541 0.862 . S
C522 C517 1.501 . S
C522 H523 0.961 . S
C522 H524 0.961 . S
C522 H525 0.960 . S
H523 C522 0.961 . S
H524 C522 0.961 . S
H525 C522 0.960 . S
C526 N527 1.342 . S
C526 C530 1.401 . S
C526 C531 1.499 . S
N527 Co510 1.989 . S
N527 C526 1.342 . S
N527 N528 1.388 . S
N528 Co511 1.993 . S
N528 N527 1.388 . S
N528 C529 1.346 . S
C529 N528 1.346 . S
C529 C530 1.396 . S
C529 C539 1.510 . S
C530 C526 1.401 . S
C530 C529 1.396 . S
C531 C526 1.499 . S
C531 H532 0.959 . S
C531 H533 0.960 . S
C531 H534 0.961 . S
H532 C531 0.959 . S
H533 C531 0.960 . S
H534 C531 0.961 . S
O535 Co510 1.967 . S
O535 C543 1.258 . S
O536 Co511 1.941 . S
O536 C543 1.266 . S
H537 C539 0.959 . S
H538 C539 0.961 . S
C539 C529 1.510 . S
C539 H537 0.959 . S
C539 H538 0.961 . S
C539 H540 0.960 . S
H540 C539 0.960 . S
H541 N521 0.862 . S
O542 Co510 1.920 . S
O542 C515 1.289 . S
C543 O535 1.258 . S
C543 O536 1.266 . S
H544 C550 0.930 . S
H545 C554 0.930 . S
H546 C559 0.929 . S
H547 C557 0.929 . S
H548 C552 0.929 . S
H549 C558 0.929 . S
C550 H544 0.930 . S
C550 C551 1.367 . S
C550 C558 1.378 . S
C551 C550 1.367 . S
C551 C559 1.433 . S
C552 H548 0.929 . S
C552 C554 1.378 . S
C552 C556 1.350 . S
C553 C556 1.463 . S
C553 C558 1.350 . S
C553 N561 1.427 . S
C554 H545 0.930 . S
C554 C552 1.378 . S
C554 C555 1.367 . S
C555 C554 1.367 . S
C555 C557 1.433 . S
C556 C552 1.350 . S
C556 C553 1.463 . S
C556 N560 1.427 . S
C557 H547 0.929 . S
C557 C555 1.433 . S
C557 N560 1.384 . S
C558 H549 0.929 . S
C558 C550 1.378 . S
C558 C553 1.350 . S
C559 H546 0.929 . S
C559 C551 1.433 . S
C559 N561 1.384 . S
N560 C556 1.427 . S
N560 C557 1.384 . S
N561 C553 1.427 . S
N561 C559 1.384 . S
H562 C568 0.930 . S
H563 C572 0.930 . S
H564 C577 0.929 . S
H565 C575 0.929 . S
H566 C570 0.929 1_655 S
H567 C576 0.929 1_455 S
C568 H562 0.930 . S
C568 C569 1.367 . S
C568 C576 1.378 . S
C569 C568 1.367 . S
C569 C577 1.433 1_545 S
C570 H566 0.929 1_455 S
C570 C572 1.378 . S
C570 C574 1.350 . S
C571 C574 1.463 1_655 S
C571 C576 1.350 1_565 S
C571 N579 1.427 . S
C572 H563 0.930 . S
C572 C570 1.378 . S
C572 C573 1.367 . S
C573 C572 1.367 . S
C573 C575 1.433 . S
C574 C570 1.350 . S
C574 C571 1.463 1_455 S
C574 N578 1.427 . S
C575 H565 0.929 . S
C575 C573 1.433 . S
C575 N578 1.384 . S
C576 H567 0.929 1_655 S
C576 C568 1.378 . S
C576 C571 1.350 1_545 S
C577 H564 0.929 . S
C577 C569 1.433 1_565 S
C577 N579 1.384 . S
N578 C574 1.427 . S
N578 C575 1.384 . S
N579 C571 1.427 . S
N579 C577 1.384 . S
H580 C586 0.930 . S
H581 C590 0.930 . S
H582 C595 0.929 . S
H583 C593 0.929 . S
H584 C588 0.929 . S
H585 C594 0.929 . S
C586 H580 0.930 . S
C586 C587 1.367 . S
C586 C594 1.378 . S
C587 C586 1.367 . S
C587 C595 1.433 . S
C588 H584 0.929 . S
C588 C590 1.378 . S
C588 C592 1.350 . S
C589 C592 1.463 . S
C589 C594 1.350 . S
C589 N597 1.427 . S
C590 H581 0.930 . S
C590 C588 1.378 . S
C590 C591 1.367 . S
C591 C590 1.367 . S
C591 C593 1.433 . S
C592 C588 1.350 . S
C592 C589 1.463 . S
C592 N596 1.427 . S
C593 H583 0.929 . S
C593 C591 1.433 . S
C593 N596 1.384 . S
C594 H585 0.929 . S
C594 C586 1.378 . S
C594 C589 1.350 . S
C595 H582 0.929 . S
C595 C587 1.433 . S
C595 N597 1.384 . S
N596 C592 1.427 . S
N596 C593 1.384 . S
N597 C589 1.427 . S
N597 C595 1.384 . S
H598 C604 0.930 . S
H599 C608 0.930 . S
H600 C613 0.929 1_554 S
H601 C611 0.929 . S
H602 C606 0.929 1_545 S
H603 C612 0.929 . S
C604 H598 0.930 . S
C604 C605 1.367 1_565 S
C604 C612 1.378 . S
C605 C604 1.367 1_545 S
C605 C613 1.433 . S
C606 H602 0.929 1_565 S
C606 C608 1.378 . S
C606 C610 1.350 . S
C607 C610 1.463 . S
C607 C612 1.350 1_554 S
C607 N615 1.427 1_565 S
C608 H599 0.930 . S
C608 C606 1.378 . S
C608 C609 1.367 . S
C609 C608 1.367 . S
C609 C611 1.433 . S
C610 C606 1.350 . S
C610 C607 1.463 . S
C610 N614 1.427 . S
C611 H601 0.929 . S
C611 C609 1.433 . S
C611 N614 1.384 . S
C612 H603 0.929 . S
C612 C604 1.378 . S
C612 C607 1.350 1_556 S
C613 H600 0.929 1_556 S
C613 C605 1.433 . S
C613 N615 1.384 1_556 S
N614 C610 1.427 . S
N614 C611 1.384 . S
N615 C607 1.427 1_545 S
N615 C613 1.384 1_554 S
H616 C622 0.930 . S
H617 C626 0.930 . S
H618 C631 0.929 . S
H619 C629 0.929 . S
H620 C624 0.929 . S
H621 C630 0.929 . S
C622 H616 0.930 . S
C622 C623 1.367 . S
C622 C630 1.378 . S
C623 C622 1.367 . S
C623 C631 1.433 . S
C624 H620 0.929 . S
C624 C626 1.378 . S
C624 C628 1.350 . S
C625 C628 1.463 . S
C625 C630 1.350 . S
C625 N633 1.427 . S
C626 H617 0.930 . S
C626 C624 1.378 . S
C626 C627 1.367 . S
C627 C626 1.367 . S
C627 C629 1.433 . S
C628 C624 1.350 . S
C628 C625 1.463 . S
C628 N632 1.427 . S
C629 H619 0.929 . S
C629 C627 1.433 . S
C629 N632 1.384 . S
C630 H621 0.929 . S
C630 C622 1.378 . S
C630 C625 1.350 . S
C631 H618 0.929 . S
C631 C623 1.433 . S
C631 N633 1.384 . S
N632 C628 1.427 . S
N632 C629 1.384 . S
N633 C625 1.427 . S
N633 C631 1.384 . S
H634 C640 0.930 . S
H635 C644 0.930 . S
H636 C649 0.929 . S
H637 C647 0.929 . S
H638 C642 0.929 . S
H639 C648 0.929 . S
C640 H634 0.930 . S
C640 C641 1.367 . S
C640 C648 1.378 . S
C641 C640 1.367 . S
C641 C649 1.433 . S
C642 H638 0.929 . S
C642 C644 1.378 . S
C642 C646 1.350 . S
C643 C646 1.463 . S
C643 C648 1.350 1_545 S
C643 N651 1.427 . S
C644 H635 0.930 . S
C644 C642 1.378 . S
C644 C645 1.367 . S
C645 C644 1.367 . S
C645 C647 1.433 . S
C646 C642 1.350 . S
C646 C643 1.463 . S
C646 N650 1.427 . S
C647 H637 0.929 . S
C647 C645 1.433 . S
C647 N650 1.384 . S
C648 H639 0.929 . S
C648 C640 1.378 . S
C648 C643 1.350 1_565 S
C649 H636 0.929 . S
C649 C641 1.433 . S
C649 N651 1.384 1_565 S
N650 C646 1.427 . S
N650 C647 1.384 . S
N651 C643 1.427 . S
N651 C649 1.384 1_545 S
H652 C658 0.930 . S
H653 C662 0.930 . S
H654 C667 0.929 . S
H655 C665 0.929 . S
H656 C660 0.929 . S
H657 C666 0.929 . S
C658 H652 0.930 . S
C658 C659 1.367 . S
C658 C666 1.378 . S
C659 C658 1.367 . S
C659 C667 1.433 . S
C660 H656 0.929 . S
C660 C662 1.378 . S
C660 C664 1.350 . S
C661 C664 1.463 . S
C661 C666 1.350 . S
C661 N669 1.427 . S
C662 H653 0.930 . S
C662 C660 1.378 . S
C662 C663 1.367 . S
C663 C662 1.367 . S
C663 C665 1.433 . S
C664 C660 1.350 . S
C664 C661 1.463 . S
C664 N668 1.427 . S
C665 H655 0.929 . S
C665 C663 1.433 . S
C665 N668 1.384 . S
C666 H657 0.929 . S
C666 C658 1.378 . S
C666 C661 1.350 . S
C667 H654 0.929 . S
C667 C659 1.433 . S
C667 N669 1.384 . S
N668 C664 1.427 . S
N668 C665 1.384 . S
N669 C661 1.427 . S
N669 C667 1.384 . S
H670 C676 0.930 . S
H671 C680 0.930 . S
H672 C685 0.929 . S
H673 C683 0.929 1_545 S
H674 C678 0.928 1_455 S
H675 C684 0.929 1_556 S
C676 H670 0.930 . S
C676 C677 1.367 . S
C676 C684 1.378 . S
C677 C676 1.367 . S
C677 C685 1.433 . S
C678 H674 0.928 1_655 S
C678 C680 1.379 1_554 S
C678 C682 1.350 1_664 S
C679 C682 1.463 1_554 S
C679 C684 1.350 . S
C679 N687 1.427 . S
C680 H671 0.930 . S
C680 C678 1.379 1_556 S
C680 C681 1.367 . S
C681 C680 1.367 . S
C681 C683 1.433 . S
C682 C678 1.350 1_446 S
C682 C679 1.463 1_556 S
C682 N686 1.427 1_455 S
C683 H673 0.929 1_565 S
C683 C681 1.433 . S
C683 N686 1.384 1_565 S
C684 H675 0.929 1_554 S
C684 C676 1.378 . S
C684 C679 1.350 . S
C685 H672 0.929 . S
C685 C677 1.433 . S
C685 N687 1.384 . S
N686 C682 1.427 1_655 S
N686 C683 1.384 1_545 S
N687 C679 1.427 . S
N687 C685 1.384 . S
H688 C694 0.930 . S
H689 C698 0.930 . S
H690 C703 0.929 . S
H691 C701 0.929 . S
H692 C696 0.929 . S
H693 C702 0.929 . S
C694 H688 0.930 . S
C694 C695 1.367 . S
C694 C702 1.378 . S
C695 C694 1.367 . S
C695 C703 1.433 . S
C696 H692 0.929 . S
C696 C698 1.378 . S
C696 C700 1.350 . S
C697 C700 1.463 . S
C697 C702 1.350 . S
C697 N705 1.427 . S
C698 H689 0.930 . S
C698 C696 1.378 . S
C698 C699 1.367 . S
C699 C698 1.367 . S
C699 C701 1.433 . S
C700 C696 1.350 . S
C700 C697 1.463 . S
C700 N704 1.427 . S
C701 H691 0.929 . S
C701 C699 1.433 . S
C701 N704 1.384 . S
C702 H693 0.929 . S
C702 C694 1.378 . S
C702 C697 1.350 . S
C703 H690 0.929 . S
C703 C695 1.433 . S
C703 N705 1.384 . S
N704 C700 1.427 . S
N704 C701 1.384 . S
N705 C697 1.427 . S
N705 C703 1.384 . S
H706 C712 0.930 . S
H707 C716 0.930 . S
H708 C721 0.929 . S
H709 C719 0.929 . S
H710 C714 0.929 . S
H711 C720 0.929 . S
C712 H706 0.930 . S
C712 C713 1.367 . S
C712 C720 1.378 . S
C713 C712 1.367 . S
C713 C721 1.433 . S
C714 H710 0.929 . S
C714 C716 1.378 . S
C714 C718 1.359 . S
C715 C718 1.445 1_456 S
C715 C720 1.350 . S
C715 N723 1.427 . S
C716 H707 0.930 . S
C716 C714 1.378 . S
C716 C717 1.367 . S
C717 C716 1.367 . S
C717 C719 1.433 . S
C718 C714 1.359 . S
C718 C715 1.445 1_654 S
C718 N722 1.437 1_655 S
C719 H709 0.929 . S
C719 C717 1.433 . S
C719 N722 1.384 1_655 S
C720 H711 0.929 . S
C720 C712 1.378 . S
C720 C715 1.350 . S
C721 H708 0.929 . S
C721 C713 1.433 . S
C721 N723 1.384 . S
N722 C718 1.437 1_455 S
N722 C719 1.384 1_455 S
N723 C715 1.427 . S
N723 C721 1.384 . S
H724 C730 0.930 . S
H725 C734 0.930 . S
H726 C739 0.929 . S
H727 C737 0.929 . S
H728 C732 0.929 . S
H729 C738 0.929 . S
C730 H724 0.930 . S
C730 C731 1.367 . S
C730 C738 1.378 . S
C731 C730 1.367 . S
C731 C739 1.433 . S
C732 H728 0.929 . S
C732 C734 1.378 . S
C732 C736 1.350 . S
C733 C736 1.463 . S
C733 C738 1.350 . S
C733 N741 1.427 . S
C734 H725 0.930 . S
C734 C732 1.378 . S
C734 C735 1.367 . S
C735 C734 1.367 . S
C735 C737 1.433 . S
C736 C732 1.350 . S
C736 C733 1.463 . S
C736 N740 1.427 . S
C737 H727 0.929 . S
C737 C735 1.433 . S
C737 N740 1.384 . S
C738 H729 0.929 . S
C738 C730 1.378 . S
C738 C733 1.350 . S
C739 H726 0.929 . S
C739 C731 1.433 . S
C739 N741 1.384 . S
N740 C736 1.427 . S
N740 C737 1.384 . S
N741 C733 1.427 . S
N741 C739 1.384 . S
H742 C748 0.930 . S
H743 C752 0.930 . S
H744 C757 0.929 . S
H745 C755 0.929 . S
H746 C750 0.929 . S
H747 C756 0.929 . S
C748 H742 0.930 . S
C748 C749 1.367 . S
C748 C756 1.378 . S
C749 C748 1.367 . S
C749 C757 1.433 . S
C750 H746 0.929 . S
C750 C752 1.378 . S
C750 C754 1.350 . S
C751 C754 1.463 1_655 S
C751 C756 1.350 . S
C751 N759 1.427 . S
C752 H743 0.930 . S
C752 C750 1.378 . S
C752 C753 1.367 . S
C753 C752 1.367 . S
C753 C755 1.433 . S
C754 C750 1.350 . S
C754 C751 1.463 1_455 S
C754 N758 1.427 . S
C755 H745 0.929 . S
C755 C753 1.433 . S
C755 N758 1.384 . S
C756 H747 0.929 . S
C756 C748 1.378 . S
C756 C751 1.350 . S
C757 H744 0.929 . S
C757 C749 1.433 . S
C757 N759 1.384 . S
N758 C754 1.427 . S
N758 C755 1.384 . S
N759 C751 1.427 . S
N759 C757 1.384 . S
H760 C766 0.930 . S
H761 C770 0.930 . S
H762 C775 0.929 . S
H763 C773 0.929 . S
H764 C768 0.935 . S
H765 C774 0.929 . S
C766 H760 0.930 . S
C766 C767 1.367 . S
C766 C774 1.378 . S
C767 C766 1.367 . S
C767 C775 1.433 . S
C768 H764 0.935 . S
C768 C770 1.378 . S
C768 C772 1.350 1_554 S
C769 C772 1.463 . S
C769 C774 1.350 . S
C769 N777 1.427 . S
C770 H761 0.930 . S
C770 C768 1.378 . S
C770 C771 1.367 . S
C771 C770 1.367 . S
C771 C773 1.433 . S
C772 C768 1.350 1_556 S
C772 C769 1.463 . S
C772 N776 1.430 . S
C773 H763 0.929 . S
C773 C771 1.433 . S
C773 N776 1.372 1_554 S
C774 H765 0.929 . S
C774 C766 1.378 . S
C774 C769 1.350 . S
C775 H762 0.929 . S
C775 C767 1.433 . S
C775 N777 1.384 . S
N776 C772 1.430 . S
N776 C773 1.372 1_556 S
N777 C769 1.427 . S
N777 C775 1.384 . S
H778 C784 0.930 . S
H779 C788 0.930 . S
H780 C793 0.929 . S
H781 C791 0.929 . S
H782 C786 0.929 . S
H783 C792 0.929 . S
C784 H778 0.930 . S
C784 C785 1.367 . S
C784 C792 1.378 . S
C785 C784 1.367 . S
C785 C793 1.433 . S
C786 H782 0.929 . S
C786 C788 1.378 . S
C786 C790 1.350 . S
C787 C790 1.463 . S
C787 C792 1.350 . S
C787 N795 1.427 . S
C788 H779 0.930 . S
C788 C786 1.378 . S
C788 C789 1.367 . S
C789 C788 1.367 . S
C789 C791 1.433 . S
C790 C786 1.350 . S
C790 C787 1.463 . S
C790 N794 1.427 . S
C791 H781 0.929 . S
C791 C789 1.433 . S
C791 N794 1.384 . S
C792 H783 0.929 . S
C792 C784 1.378 . S
C792 C787 1.350 . S
C793 H780 0.929 . S
C793 C785 1.433 . S
C793 N795 1.384 . S
N794 C790 1.427 . S
N794 C791 1.384 . S
N795 C787 1.427 . S
N795 C793 1.384 . S
H796 C802 0.930 . S
H797 C806 0.930 . S
H798 C811 0.929 . S
H799 C809 0.929 . S
H800 C804 0.929 . S
H801 C810 0.929 . S
C802 H796 0.930 . S
C802 C803 1.367 . S
C802 C810 1.378 . S
C803 C802 1.367 . S
C803 C811 1.433 . S
C804 H800 0.929 . S
C804 C806 1.378 . S
C804 C808 1.350 . S
C805 C808 1.463 . S
C805 C810 1.350 . S
C805 N813 1.427 . S
C806 H797 0.930 . S
C806 C804 1.378 . S
C806 C807 1.367 . S
C807 C806 1.367 . S
C807 C809 1.433 . S
C808 C804 1.350 . S
C808 C805 1.463 . S
C808 N812 1.427 . S
C809 H799 0.929 . S
C809 C807 1.433 . S
C809 N812 1.384 . S
C810 H801 0.929 . S
C810 C802 1.378 . S
C810 C805 1.350 . S
C811 H798 0.929 . S
C811 C803 1.433 . S
C811 N813 1.384 . S
N812 C808 1.427 . S
N812 C809 1.384 . S
N813 C805 1.427 . S
N813 C811 1.384 . S
H814 C820 0.930 . S
H815 C824 0.930 . S
H816 C829 0.929 . S
H817 C827 0.929 . S
H818 C822 0.929 . S
H819 C828 0.929 . S
C820 H814 0.930 . S
C820 C821 1.367 . S
C820 C828 1.378 . S
C821 C820 1.367 . S
C821 C829 1.433 . S
C822 H818 0.929 . S
C822 C824 1.378 . S
C822 C826 1.350 . S
C823 C826 1.463 . S
C823 C828 1.350 . S
C823 N831 1.427 . S
C824 H815 0.930 . S
C824 C822 1.378 . S
C824 C825 1.367 . S
C825 C824 1.367 . S
C825 C827 1.433 . S
C826 C822 1.350 . S
C826 C823 1.463 . S
C826 N830 1.427 . S
C827 H817 0.929 . S
C827 C825 1.433 . S
C827 N830 1.384 . S
C828 H819 0.929 . S
C828 C820 1.378 . S
C828 C823 1.350 . S
C829 H816 0.929 . S
C829 C821 1.433 . S
C829 N831 1.384 . S
N830 C826 1.427 . S
N830 C827 1.384 . S
N831 C823 1.427 . S
N831 C829 1.384 . S
H832 C838 0.930 . S
H833 C842 0.930 . S
H834 C847 0.929 . S
H835 C845 0.929 . S
H836 C840 0.929 . S
H837 C846 0.929 . S
C838 H832 0.930 . S
C838 C839 1.367 . S
C838 C846 1.378 . S
C839 C838 1.367 . S
C839 C847 1.433 . S
C840 H836 0.929 . S
C840 C842 1.378 . S
C840 C844 1.350 . S
C841 C844 1.463 1_545 S
C841 C846 1.350 . S
C841 N849 1.427 . S
C842 H833 0.930 . S
C842 C840 1.378 . S
C842 C843 1.367 . S
C843 C842 1.367 . S
C843 C845 1.433 . S
C844 C840 1.350 . S
C844 C841 1.463 1_565 S
C844 N848 1.427 . S
C845 H835 0.929 . S
C845 C843 1.433 . S
C845 N848 1.384 . S
C846 H837 0.929 . S
C846 C838 1.378 . S
C846 C841 1.350 . S
C847 H834 0.929 . S
C847 C839 1.433 . S
C847 N849 1.384 . S
N848 C844 1.427 . S
N848 C845 1.384 . S
N849 C841 1.427 . S
N849 C847 1.384 . S
H850 C856 0.930 . S
H851 C860 0.930 . S
H852 C865 0.929 . S
H853 C863 0.929 . S
H854 C858 0.929 . S
H855 C864 0.929 . S
C856 H850 0.930 . S
C856 C857 1.367 . S
C856 C864 1.378 . S
C857 C856 1.367 . S
C857 C865 1.433 . S
C858 H854 0.929 . S
C858 C860 1.378 . S
C858 C862 1.350 . S
C859 C862 1.463 . S
C859 C864 1.350 . S
C859 N867 1.427 . S
C860 H851 0.930 . S
C860 C858 1.378 . S
C860 C861 1.367 . S
C861 C860 1.367 . S
C861 C863 1.433 . S
C862 C858 1.350 . S
C862 C859 1.463 . S
C862 N866 1.427 . S
C863 H853 0.929 . S
C863 C861 1.433 . S
C863 N866 1.384 . S
C864 H855 0.929 . S
C864 C856 1.378 . S
C864 C859 1.350 . S
C865 H852 0.929 . S
C865 C857 1.433 . S
C865 N867 1.384 . S
N866 C862 1.427 . S
N866 C863 1.384 . S
N867 C859 1.427 . S
N867 C865 1.384 . S
H868 C874 0.930 . S
H869 C878 0.930 . S
H870 C883 0.919 1_545 S
H871 C881 0.929 . S
H872 C876 0.929 . S
H873 C882 0.929 . S
C874 H868 0.930 . S
C874 C875 1.367 . S
C874 C882 1.378 . S
C875 C874 1.367 . S
C875 C883 1.433 . S
C876 H872 0.929 . S
C876 C878 1.378 . S
C876 C880 1.350 . S
C877 C880 1.463 . S
C877 C882 1.350 1_545 S
C877 N885 1.427 . S
C878 H869 0.930 . S
C878 C876 1.378 . S
C878 C879 1.367 . S
C879 C878 1.367 . S
C879 C881 1.433 . S
C880 C876 1.350 . S
C880 C877 1.463 . S
C880 N884 1.427 . S
C881 H871 0.929 . S
C881 C879 1.433 . S
C881 N884 1.384 . S
C882 H873 0.929 . S
C882 C874 1.378 . S
C882 C877 1.350 1_565 S
C883 H870 0.919 1_565 S
C883 C875 1.433 . S
C883 N885 1.384 1_565 S
N884 C880 1.427 . S
N884 C881 1.384 . S
N885 C877 1.427 . S
N885 C883 1.384 1_545 S
H886 C892 0.930 . S
H887 C896 0.930 . S
H888 C901 0.929 . S
H889 C899 0.929 . S
H890 C894 0.929 . S
H891 C900 0.929 1_554 S
C892 H886 0.930 . S
C892 C893 1.367 . S
C892 C900 1.378 . S
C893 C892 1.367 . S
C893 C901 1.433 . S
C894 H890 0.929 . S
C894 C896 1.378 . S
C894 C898 1.350 . S
C895 C898 1.463 . S
C895 C900 1.350 1_554 S
C895 N903 1.427 1_554 S
C896 H887 0.930 . S
C896 C894 1.378 . S
C896 C897 1.367 . S
C897 C896 1.367 . S
C897 C899 1.433 . S
C898 C894 1.350 . S
C898 C895 1.463 . S
C898 N902 1.427 . S
C899 H889 0.929 . S
C899 C897 1.433 . S
C899 N902 1.384 . S
C900 H891 0.929 1_556 S
C900 C892 1.378 . S
C900 C895 1.350 1_556 S
C901 H888 0.929 . S
C901 C893 1.433 . S
C901 N903 1.384 . S
N902 C898 1.427 . S
N902 C899 1.384 . S
N903 C895 1.427 1_556 S
N903 C901 1.384 . S
H904 C910 0.930 . S
H905 C914 0.930 . S
H906 C919 0.929 . S
H907 C917 0.929 . S
H908 C912 0.929 . S
H909 C918 0.929 . S
C910 H904 0.930 . S
C910 C911 1.367 . S
C910 C918 1.378 . S
C911 C910 1.367 . S
C911 C919 1.433 . S
C912 H908 0.929 . S
C912 C914 1.378 . S
C912 C916 1.350 . S
C913 C916 1.463 1_455 S
C913 C918 1.350 . S
C913 N921 1.427 . S
C914 H905 0.930 . S
C914 C912 1.378 . S
C914 C915 1.367 . S
C915 C914 1.367 . S
C915 C917 1.433 . S
C916 C912 1.350 . S
C916 C913 1.463 1_655 S
C916 N920 1.427 . S
C917 H907 0.929 . S
C917 C915 1.433 . S
C917 N920 1.384 . S
C918 H909 0.929 . S
C918 C910 1.378 . S
C918 C913 1.350 . S
C919 H906 0.929 . S
C919 C911 1.433 . S
C919 N921 1.384 . S
N920 C916 1.427 . S
N920 C917 1.384 . S
N921 C913 1.427 . S
N921 C919 1.384 . S
H922 C928 0.930 . S
H923 C932 0.930 . S
H924 C937 0.929 . S
H925 C935 0.929 . S
H926 C930 0.929 . S
H927 C936 0.929 . S
C928 H922 0.930 . S
C928 C929 1.367 . S
C928 C936 1.378 . S
C929 C928 1.367 . S
C929 C937 1.433 . S
C930 H926 0.929 . S
C930 C932 1.378 . S
C930 C934 1.350 . S
C931 C934 1.463 . S
C931 C936 1.350 . S
C931 N939 1.427 . S
C932 H923 0.930 . S
C932 C930 1.378 . S
C932 C933 1.367 . S
C933 C932 1.367 . S
C933 C935 1.433 . S
C934 C930 1.350 . S
C934 C931 1.463 . S
C934 N938 1.427 . S
C935 H925 0.929 . S
C935 C933 1.433 . S
C935 N938 1.384 . S
C936 H927 0.929 . S
C936 C928 1.378 . S
C936 C931 1.350 . S
C937 H924 0.929 . S
C937 C929 1.433 . S
C937 N939 1.384 . S
N938 C934 1.427 . S
N938 C935 1.384 . S
N939 C931 1.427 . S
N939 C937 1.384 . S
H940 C946 0.930 . S
H941 C950 0.930 . S
H942 C955 0.929 . S
H943 C953 0.929 . S
H944 C948 0.929 . S
H945 C954 0.929 . S
C946 H940 0.930 . S
C946 C947 1.367 . S
C946 C954 1.378 . S
C947 C946 1.367 . S
C947 C955 1.433 . S
C948 H944 0.929 . S
C948 C950 1.378 . S
C948 C952 1.350 . S
C949 C952 1.463 1_655 S
C949 C954 1.350 . S
C949 N957 1.427 . S
C950 H941 0.930 . S
C950 C948 1.378 . S
C950 C951 1.367 . S
C951 C950 1.367 . S
C951 C953 1.433 . S
C952 C948 1.350 . S
C952 C949 1.463 1_455 S
C952 N956 1.427 . S
C953 H943 0.929 . S
C953 C951 1.433 . S
C953 N956 1.384 . S
C954 H945 0.929 . S
C954 C946 1.378 . S
C954 C949 1.350 . S
C955 H942 0.929 . S
C955 C947 1.433 . S
C955 N957 1.384 . S
N956 C952 1.427 . S
N956 C953 1.384 . S
N957 C949 1.427 . S
N957 C955 1.384 . S
H958 C964 0.930 . S
H959 C968 0.930 . S
H960 C973 0.929 . S
H961 C971 0.929 . S
H962 C966 0.929 . S
H963 C972 0.929 . S
C964 H958 0.930 . S
C964 C965 1.367 . S
C964 C972 1.378 . S
C965 C964 1.367 . S
C965 C973 1.433 . S
C966 H962 0.929 . S
C966 C968 1.378 . S
C966 C970 1.350 . S
C967 C970 1.463 . S
C967 C972 1.350 . S
C967 N975 1.427 . S
C968 H959 0.930 . S
C968 C966 1.378 . S
C968 C969 1.367 . S
C969 C968 1.367 . S
C969 C971 1.433 . S
C970 C966 1.350 . S
C970 C967 1.463 . S
C970 N974 1.427 . S
C971 H961 0.929 . S
C971 C969 1.433 . S
C971 N974 1.384 . S
C972 H963 0.929 . S
C972 C964 1.378 . S
C972 C967 1.350 . S
C973 H960 0.929 . S
C973 C965 1.433 . S
C973 N975 1.384 . S
N974 C970 1.427 . S
N974 C971 1.384 . S
N975 C967 1.427 . S
N975 C973 1.384 . S
H976 C982 0.930 . S
H977 C986 0.930 . S
H978 C991 0.929 . S
H979 C989 0.929 . S
H980 C984 0.929 . S
H981 C990 0.929 . S
C982 H976 0.930 . S
C982 C983 1.367 . S
C982 C990 1.378 . S
C983 C982 1.367 . S
C983 C991 1.433 . S
C984 H980 0.929 . S
C984 C986 1.378 . S
C984 C988 1.350 . S
C985 C988 1.463 1_545 S
C985 C990 1.350 . S
C985 N993 1.427 . S
C986 H977 0.930 . S
C986 C984 1.378 . S
C986 C987 1.367 . S
C987 C986 1.367 . S
C987 C989 1.433 . S
C988 C984 1.350 . S
C988 C985 1.463 1_565 S
C988 N992 1.427 . S
C989 H979 0.929 . S
C989 C987 1.433 . S
C989 N992 1.384 . S
C990 H981 0.929 . S
C990 C982 1.378 . S
C990 C985 1.350 . S
C991 H978 0.929 . S
C991 C983 1.433 . S
C991 N993 1.384 . S
N992 C988 1.427 . S
N992 C989 1.384 . S
N993 C985 1.427 . S
N993 C991 1.384 . S
H994 C1000 0.930 . S
H995 C1004 0.930 . S
H996 C1009 0.929 . S
H997 C1007 0.929 . S
H998 C1002 0.929 . S
H999 C1008 0.929 . S
C1000 H994 0.930 . S
C1000 C1001 1.367 . S
C1000 C1008 1.378 . S
C1001 C1000 1.367 . S
C1001 C1009 1.433 . S
C1002 H998 0.929 . S
C1002 C1004 1.378 . S
C1002 C1006 1.350 . S
C1003 C1006 1.463 . S
C1003 C1008 1.350 . S
C1003 N1011 1.427 . S
C1004 H995 0.930 . S
C1004 C1002 1.378 . S
C1004 C1005 1.367 . S
C1005 C1004 1.367 . S
C1005 C1007 1.433 . S
C1006 C1002 1.350 . S
C1006 C1003 1.463 . S
C1006 N1010 1.427 . S
C1007 H997 0.929 . S
C1007 C1005 1.433 . S
C1007 N1010 1.384 . S
C1008 H999 0.929 . S
C1008 C1000 1.378 . S
C1008 C1003 1.350 . S
C1009 H996 0.929 . S
C1009 C1001 1.433 . S
C1009 N1011 1.384 . S
N1010 C1006 1.427 . S
N1010 C1007 1.384 . S
N1011 C1003 1.427 . S
N1011 C1009 1.384 . S
H1012 C1018 0.930 . S
H1013 C1022 0.930 . S
H1014 C1027 0.929 . S
H1015 C1025 0.929 . S
H1016 C1020 0.929 . S
H1017 C1026 0.929 . S
C1018 H1012 0.930 . S
C1018 C1019 1.367 . S
C1018 C1026 1.378 . S
C1019 C1018 1.367 . S
C1019 C1027 1.433 . S
C1020 H1016 0.929 . S
C1020 C1022 1.378 . S
C1020 C1024 1.350 . S
C1021 C1024 1.463 . S
C1021 C1026 1.350 1_565 S
C1021 N1029 1.427 . S
C1022 H1013 0.930 . S
C1022 C1020 1.378 . S
C1022 C1023 1.367 . S
C1023 C1022 1.367 . S
C1023 C1025 1.433 . S
C1024 C1020 1.350 . S
C1024 C1021 1.463 . S
C1024 N1028 1.427 . S
C1025 H1015 0.929 . S
C1025 C1023 1.433 . S
C1025 N1028 1.384 . S
C1026 H1017 0.929 . S
C1026 C1018 1.378 . S
C1026 C1021 1.350 1_545 S
C1027 H1014 0.929 . S
C1027 C1019 1.433 . S
C1027 N1029 1.384 1_545 S
N1028 C1024 1.427 . S
N1028 C1025 1.384 . S
N1029 C1021 1.427 . S
N1029 C1027 1.384 1_565 S
H1030 C1036 0.930 . S
H1031 C1040 0.930 . S
H1032 C1045 0.929 . S
H1033 C1043 0.929 . S
H1034 C1038 0.929 . S
H1035 C1044 0.929 . S
C1036 H1030 0.930 . S
C1036 C1037 1.367 . S
C1036 C1044 1.378 . S
C1037 C1036 1.367 . S
C1037 C1045 1.433 . S
C1038 H1034 0.929 . S
C1038 C1040 1.378 . S
C1038 C1042 1.350 . S
C1039 C1042 1.463 1_554 S
C1039 C1044 1.350 . S
C1039 N1047 1.427 . S
C1040 H1031 0.930 . S
C1040 C1038 1.378 . S
C1040 C1041 1.367 . S
C1041 C1040 1.367 . S
C1041 C1043 1.433 . S
C1042 C1038 1.350 . S
C1042 C1039 1.463 1_556 S
C1042 N1046 1.427 . S
C1043 H1033 0.929 . S
C1043 C1041 1.433 . S
C1043 N1046 1.384 . S
C1044 H1035 0.929 . S
C1044 C1036 1.378 . S
C1044 C1039 1.350 . S
C1045 H1032 0.929 . S
C1045 C1037 1.433 . S
C1045 N1047 1.384 . S
N1046 C1042 1.427 . S
N1046 C1043 1.384 . S
N1047 C1039 1.427 . S
N1047 C1045 1.384 . S
H1048 C1054 0.930 . S
H1049 C1058 0.930 . S
H1050 C1063 0.929 . S
H1051 C1061 0.929 . S
H1052 C1056 0.929 1_455 S
H1053 C1062 0.929 1_655 S
C1054 H1048 0.930 . S
C1054 C1055 1.367 . S
C1054 C1062 1.378 . S
C1055 C1054 1.367 . S
C1055 C1063 1.433 . S
C1056 H1052 0.929 1_655 S
C1056 C1058 1.378 . S
C1056 C1060 1.350 . S
C1057 C1060 1.463 1_455 S
C1057 C1062 1.350 . S
C1057 N1065 1.427 . S
C1058 H1049 0.930 . S
C1058 C1056 1.378 . S
C1058 C1059 1.367 . S
C1059 C1058 1.367 . S
C1059 C1061 1.433 . S
C1060 C1056 1.350 . S
C1060 C1057 1.463 1_655 S
C1060 N1064 1.427 . S
C1061 H1051 0.929 . S
C1061 C1059 1.433 . S
C1061 N1064 1.384 . S
C1062 H1053 0.929 1_455 S
C1062 C1054 1.378 . S
C1062 C1057 1.350 . S
C1063 H1050 0.929 . S
C1063 C1055 1.433 . S
C1063 N1065 1.384 . S
N1064 C1060 1.427 . S
N1064 C1061 1.384 . S
N1065 C1057 1.427 . S
N1065 C1063 1.384 . S
H1066 C1072 0.930 . S
H1067 C1076 0.930 . S
H1068 C1081 0.929 . S
H1069 C1079 0.929 . S
H1070 C1074 0.929 . S
H1071 C1080 0.929 . S
C1072 H1066 0.930 . S
C1072 C1073 1.367 . S
C1072 C1080 1.378 . S
C1073 C1072 1.367 . S
C1073 C1081 1.433 . S
C1074 H1070 0.929 . S
C1074 C1076 1.378 . S
C1074 C1078 1.350 . S
C1075 C1078 1.463 . S
C1075 C1080 1.350 . S
C1075 N1083 1.427 . S
C1076 H1067 0.930 . S
C1076 C1074 1.378 . S
C1076 C1077 1.367 . S
C1077 C1076 1.367 . S
C1077 C1079 1.433 . S
C1078 C1074 1.350 . S
C1078 C1075 1.463 . S
C1078 N1082 1.427 . S
C1079 H1069 0.929 . S
C1079 C1077 1.433 . S
C1079 N1082 1.384 . S
C1080 H1071 0.929 . S
C1080 C1072 1.378 . S
C1080 C1075 1.350 . S
C1081 H1068 0.929 . S
C1081 C1073 1.433 . S
C1081 N1083 1.384 . S
N1082 C1078 1.427 . S
N1082 C1079 1.384 . S
N1083 C1075 1.427 . S
N1083 C1081 1.384 . S
H1084 C1090 0.930 . S
H1085 C1094 0.930 . S
H1086 C1099 0.929 . S
H1087 C1097 0.929 . S
H1088 C1092 0.929 1_655 S
H1089 C1098 0.929 . S
C1090 H1084 0.930 . S
C1090 C1091 1.367 . S
C1090 C1098 1.378 . S
C1091 C1090 1.367 . S
C1091 C1099 1.433 . S
C1092 H1088 0.929 1_455 S
C1092 C1094 1.378 . S
C1092 C1096 1.350 1_455 S
C1093 C1096 1.463 . S
C1093 C1098 1.350 . S
C1093 N1101 1.427 . S
C1094 H1085 0.930 . S
C1094 C1092 1.378 . S
C1094 C1095 1.367 . S
C1095 C1094 1.367 . S
C1095 C1097 1.433 . S
C1096 C1092 1.350 1_655 S
C1096 C1093 1.463 . S
C1096 N1100 1.427 1_655 S
C1097 H1087 0.929 . S
C1097 C1095 1.433 . S
C1097 N1100 1.384 . S
C1098 H1089 0.929 . S
C1098 C1090 1.378 . S
C1098 C1093 1.350 . S
C1099 H1086 0.929 . S
C1099 C1091 1.433 . S
C1099 N1101 1.384 . S
N1100 C1096 1.427 1_455 S
N1100 C1097 1.384 . S
N1101 C1093 1.427 . S
N1101 C1099 1.384 . S
H1102 C1108 0.930 . S
H1103 C1112 0.930 . S
H1104 C1117 0.929 . S
H1105 C1115 0.929 . S
H1106 C1110 0.929 . S
H1107 C1116 0.929 . S
C1108 H1102 0.930 . S
C1108 C1109 1.367 . S
C1108 C1116 1.378 . S
C1109 C1108 1.367 . S
C1109 C1117 1.433 . S
C1110 H1106 0.929 . S
C1110 C1112 1.378 . S
C1110 C1114 1.350 . S
C1111 C1114 1.463 . S
C1111 C1116 1.350 . S
C1111 N1119 1.427 . S
C1112 H1103 0.930 . S
C1112 C1110 1.378 . S
C1112 C1113 1.367 . S
C1113 C1112 1.367 . S
C1113 C1115 1.433 . S
C1114 C1110 1.350 . S
C1114 C1111 1.463 . S
C1114 N1118 1.427 . S
C1115 H1105 0.929 . S
C1115 C1113 1.433 . S
C1115 N1118 1.384 . S
C1116 H1107 0.929 . S
C1116 C1108 1.378 . S
C1116 C1111 1.350 . S
C1117 H1104 0.929 . S
C1117 C1109 1.433 . S
C1117 N1119 1.384 . S
N1118 C1114 1.427 . S
N1118 C1115 1.384 . S
N1119 C1111 1.427 . S
N1119 C1117 1.384 . S
H1120 C1126 0.930 . S
H1121 C1130 0.930 . S
H1122 C1135 0.929 . S
H1123 C1133 0.929 . S
H1124 C1128 0.929 . S
H1125 C1134 0.929 . S
C1126 H1120 0.930 . S
C1126 C1127 1.367 . S
C1126 C1134 1.378 . S
C1127 C1126 1.367 . S
C1127 C1135 1.433 . S
C1128 H1124 0.929 . S
C1128 C1130 1.378 . S
C1128 C1132 1.350 . S
C1129 C1132 1.463 . S
C1129 C1134 1.350 . S
C1129 N1137 1.427 . S
C1130 H1121 0.930 . S
C1130 C1128 1.378 . S
C1130 C1131 1.367 . S
C1131 C1130 1.367 . S
C1131 C1133 1.433 . S
C1132 C1128 1.350 . S
C1132 C1129 1.463 . S
C1132 N1136 1.427 . S
C1133 H1123 0.929 . S
C1133 C1131 1.433 . S
C1133 N1136 1.384 . S
C1134 H1125 0.929 . S
C1134 C1126 1.378 . S
C1134 C1129 1.350 . S
C1135 H1122 0.929 . S
C1135 C1127 1.433 . S
C1135 N1137 1.384 . S
N1136 C1132 1.427 . S
N1136 C1133 1.384 . S
N1137 C1129 1.427 . S
N1137 C1135 1.384 . S
H1138 C1144 0.930 . S
H1139 C1148 0.930 . S
H1140 C1153 0.929 . S
H1141 C1151 0.929 . S
H1142 C1146 0.929 . S
H1143 C1152 0.929 . S
C1144 H1138 0.930 . S
C1144 C1145 1.367 . S
C1144 C1152 1.378 . S
C1145 C1144 1.367 . S
C1145 C1153 1.433 . S
C1146 H1142 0.929 . S
C1146 C1148 1.378 . S
C1146 C1150 1.350 . S
C1147 C1150 1.463 1_556 S
C1147 C1152 1.350 . S
C1147 N1155 1.427 . S
C1148 H1139 0.930 . S
C1148 C1146 1.378 . S
C1148 C1149 1.367 . S
C1149 C1148 1.367 . S
C1149 C1151 1.433 . S
C1150 C1146 1.350 . S
C1150 C1147 1.463 1_554 S
C1150 N1154 1.427 . S
C1151 H1141 0.929 . S
C1151 C1149 1.433 . S
C1151 N1154 1.384 . S
C1152 H1143 0.929 . S
C1152 C1144 1.378 . S
C1152 C1147 1.350 . S
C1153 H1140 0.929 . S
C1153 C1145 1.433 . S
C1153 N1155 1.384 . S
N1154 C1150 1.427 . S
N1154 C1151 1.384 . S
N1155 C1147 1.427 . S
N1155 C1153 1.384 . S
H1156 C1162 0.930 . S
H1157 C1166 0.930 . S
H1158 C1171 0.929 . S
H1159 C1169 0.929 . S
H1160 C1164 0.929 . S
H1161 C1170 0.929 . S
C1162 H1156 0.930 . S
C1162 C1163 1.367 . S
C1162 C1170 1.378 . S
C1163 C1162 1.367 . S
C1163 C1171 1.433 . S
C1164 H1160 0.929 . S
C1164 C1166 1.378 . S
C1164 C1168 1.350 . S
C1165 C1168 1.463 . S
C1165 C1170 1.350 . S
C1165 N1173 1.427 . S
C1166 H1157 0.930 . S
C1166 C1164 1.378 . S
C1166 C1167 1.367 . S
C1167 C1166 1.367 . S
C1167 C1169 1.433 . S
C1168 C1164 1.350 . S
C1168 C1165 1.463 . S
C1168 N1172 1.427 . S
C1169 H1159 0.929 . S
C1169 C1167 1.433 . S
C1169 N1172 1.384 . S
C1170 H1161 0.929 . S
C1170 C1162 1.378 . S
C1170 C1165 1.350 . S
C1171 H1158 0.929 . S
C1171 C1163 1.433 . S
C1171 N1173 1.384 . S
N1172 C1168 1.427 . S
N1172 C1169 1.384 . S
N1173 C1165 1.427 . S
N1173 C1171 1.384 . S
H1174 C1180 0.930 . S
H1175 C1184 0.930 . S
H1176 C1189 0.929 . S
H1177 C1187 0.929 . S
H1178 C1182 0.929 . S
H1179 C1188 0.929 . S
C1180 H1174 0.930 . S
C1180 C1181 1.367 . S
C1180 C1188 1.378 . S
C1181 C1180 1.367 . S
C1181 C1189 1.433 . S
C1182 H1178 0.929 . S
C1182 C1184 1.378 . S
C1182 C1186 1.350 . S
C1183 C1186 1.463 . S
C1183 C1188 1.350 . S
C1183 N1191 1.427 . S
C1184 H1175 0.930 . S
C1184 C1182 1.378 . S
C1184 C1185 1.367 . S
C1185 C1184 1.367 . S
C1185 C1187 1.433 . S
C1186 C1182 1.350 . S
C1186 C1183 1.463 . S
C1186 N1190 1.427 . S
C1187 H1177 0.929 . S
C1187 C1185 1.433 . S
C1187 N1190 1.384 . S
C1188 H1179 0.929 . S
C1188 C1180 1.378 . S
C1188 C1183 1.350 . S
C1189 H1176 0.929 . S
C1189 C1181 1.433 . S
C1189 N1191 1.384 . S
N1190 C1186 1.427 . S
N1190 C1187 1.384 . S
N1191 C1183 1.427 . S
N1191 C1189 1.384 . S
H1192 C1198 0.930 . S
H1193 C1202 0.930 . S
H1194 C1207 0.929 . S
H1195 C1205 0.929 . S
H1196 C1200 0.929 . S
H1197 C1206 0.929 . S
C1198 H1192 0.930 . S
C1198 C1199 1.367 . S
C1198 C1206 1.378 . S
C1199 C1198 1.367 . S
C1199 C1207 1.433 . S
C1200 H1196 0.929 . S
C1200 C1202 1.378 . S
C1200 C1204 1.350 . S
C1201 C1204 1.463 . S
C1201 C1206 1.350 . S
C1201 N1209 1.427 . S
C1202 H1193 0.930 . S
C1202 C1200 1.378 . S
C1202 C1203 1.367 . S
C1203 C1202 1.367 . S
C1203 C1205 1.433 . S
C1204 C1200 1.350 . S
C1204 C1201 1.463 . S
C1204 N1208 1.427 . S
C1205 H1195 0.929 . S
C1205 C1203 1.433 . S
C1205 N1208 1.384 . S
C1206 H1197 0.929 . S
C1206 C1198 1.378 . S
C1206 C1201 1.350 . S
C1207 H1194 0.929 . S
C1207 C1199 1.433 . S
C1207 N1209 1.384 . S
N1208 C1204 1.427 . S
N1208 C1205 1.384 . S
N1209 C1201 1.427 . S
N1209 C1207 1.384 . S
H1210 C1216 0.930 . S
H1211 C1220 0.930 . S
H1212 C1225 0.929 . S
H1213 C1223 0.929 . S
H1214 C1218 0.929 . S
H1215 C1224 0.929 . S
C1216 H1210 0.930 . S
C1216 C1217 1.367 . S
C1216 C1224 1.378 . S
C1217 C1216 1.367 . S
C1217 C1225 1.433 . S
C1218 H1214 0.929 . S
C1218 C1220 1.378 . S
C1218 C1222 1.350 . S
C1219 C1222 1.463 1_556 S
C1219 C1224 1.350 . S
C1219 N1227 1.427 . S
C1220 H1211 0.930 . S
C1220 C1218 1.378 . S
C1220 C1221 1.367 . S
C1221 C1220 1.367 . S
C1221 C1223 1.433 . S
C1222 C1218 1.350 . S
C1222 C1219 1.463 1_554 S
C1222 N1226 1.427 1_554 S
C1223 H1213 0.929 . S
C1223 C1221 1.433 . S
C1223 N1226 1.384 1_554 S
C1224 H1215 0.929 . S
C1224 C1216 1.378 . S
C1224 C1219 1.350 . S
C1225 H1212 0.929 . S
C1225 C1217 1.433 . S
C1225 N1227 1.384 . S
N1226 C1222 1.427 1_556 S
N1226 C1223 1.384 1_556 S
N1227 C1219 1.427 . S
N1227 C1225 1.384 . S
H1228 C1234 0.930 . S
H1229 C1238 0.930 . S
H1230 C1243 0.929 . S
H1231 C1241 0.929 . S
H1232 C1236 0.929 . S
H1233 C1242 0.929 . S
C1234 H1228 0.930 . S
C1234 C1235 1.367 . S
C1234 C1242 1.378 . S
C1235 C1234 1.367 . S
C1235 C1243 1.433 . S
C1236 H1232 0.929 . S
C1236 C1238 1.378 . S
C1236 C1240 1.350 . S
C1237 C1240 1.463 . S
C1237 C1242 1.350 . S
C1237 N1245 1.427 . S
C1238 H1229 0.930 . S
C1238 C1236 1.378 . S
C1238 C1239 1.367 . S
C1239 C1238 1.367 . S
C1239 C1241 1.433 . S
C1240 C1236 1.350 . S
C1240 C1237 1.463 . S
C1240 N1244 1.427 . S
C1241 H1231 0.929 . S
C1241 C1239 1.433 . S
C1241 N1244 1.384 . S
C1242 H1233 0.929 . S
C1242 C1234 1.378 . S
C1242 C1237 1.350 . S
C1243 H1230 0.929 . S
C1243 C1235 1.433 . S
C1243 N1245 1.384 . S
N1244 C1240 1.427 . S
N1244 C1241 1.384 . S
N1245 C1237 1.427 . S
N1245 C1243 1.384 . S
H1246 C1252 0.930 . S
H1247 C1256 0.930 . S
H1248 C1261 0.929 . S
H1249 C1259 0.929 . S
H1250 C1254 0.929 . S
H1251 C1260 0.929 . S
C1252 H1246 0.930 . S
C1252 C1253 1.367 . S
C1252 C1260 1.378 . S
C1253 C1252 1.367 . S
C1253 C1261 1.433 . S
C1254 H1250 0.929 . S
C1254 C1256 1.378 . S
C1254 C1258 1.350 . S
C1255 C1258 1.463 . S
C1255 C1260 1.350 . S
C1255 N1263 1.427 . S
C1256 H1247 0.930 . S
C1256 C1254 1.378 . S
C1256 C1257 1.367 . S
C1257 C1256 1.367 . S
C1257 C1259 1.433 . S
C1258 C1254 1.350 . S
C1258 C1255 1.463 . S
C1258 N1262 1.427 . S
C1259 H1249 0.929 . S
C1259 C1257 1.433 . S
C1259 N1262 1.384 . S
C1260 H1251 0.929 . S
C1260 C1252 1.378 . S
C1260 C1255 1.350 . S
C1261 H1248 0.929 . S
C1261 C1253 1.433 . S
C1261 N1263 1.384 . S
N1262 C1258 1.427 . S
N1262 C1259 1.384 . S
N1263 C1255 1.427 . S
N1263 C1261 1.384 . S
C551 C9 0.869 . S
C555 C515 0.913 . S
C569 C281 1.730 . S
C573 C39 1.935 . S
C587 C417 1.178 . S
C591 C77 1.169 . S
C605 C111 1.697 . S
C609 C345 1.817 . S
C623 C379 1.618 . S
C627 C43 1.456 . S
C641 C73 1.491 . S
C645 C311 1.488 . S
C659 C107 1.812 . S
C663 C451 1.662 . S
C677 C5 1.151 . S
C681 C247 1.046 . S
C695 C277 1.672 . S
C699 C145 1.511 . S
C713 C413 1.228 . S
C717 C179 1.127 . S
C731 C209 1.902 . S
C735 C349 1.730 . S
C749 C213 1.623 . S
C753 C447 1.758 . S
C767 C141 1.843 . S
C771 C383 1.665 . S
C785 C485 0.924 . S
C789 C243 0.998 . S
C803 C315 1.463 . S
C807 C175 1.627 . S
C821 C519 0.979 . S
C825 C481 1.053 . S
C839 C2 1.596 . S
C843 C54 1.596 . S
C857 C36 1.924 . S
C861 C101 1.941 . S
C875 C70 1.802 . S
C879 C104 1.817 . S
C893 C122 1.221 . S
C897 C33 1.227 . S
C911 C20 1.555 . S
C915 C190 1.553 . S
C929 C169 1.388 . S
C933 C135 1.388 . S
C947 C237 1.630 . S
C951 C67 1.630 . S
C965 C496 1.547 . S
C969 C88 1.549 . S
C983 C292 1.810 . S
C987 C240 1.793 . S
C1001 C274 1.778 . S
C1005 C308 1.784 . S
C1019 C339 1.864 . S
C1023 C342 1.835 . S
C1037 C360 1.583 . S
C1041 C271 1.598 . S
C1055 C428 1.485 . S
C1059 C258 1.483 . S
C1073 C407 1.270 . S
C1077 C373 1.267 . S
C1091 C305 1.262 . S
C1095 C475 1.261 . S
C1109 C530 1.413 . S
C1113 C326 1.415 . S
C1127 C156 1.748 . S
C1131 C478 1.749 . S
C1145 C138 2.115 . S
C1149 C172 2.113 . S
C1163 C203 1.621 . S
C1167 C206 1.613 . S
C1181 C509 1.083 . S
C1185 C224 1.076 . S
C1199 C394 1.791 . S
C1203 C512 1.778 . S
C1217 C410 1.706 . S
C1221 C376 1.701 . S
C1235 C441 1.803 . S
C1239 C444 1.766 . S
C1253 C543 1.571 . S
C1257 C462 1.555 . S
