# Generated by pormake.
# Topology lcv-a, (4)-cn, num edge types: 1
# Building blocks:
#     Node 0, Type 0, BuildingBlock: AZAVOO_clean_sbu_0, # of connection points: 4
#     Node 1, Type 0, BuildingBlock: AZAVOO_clean_sbu_0, # of connection points: 4
#     Node 2, Type 0, BuildingBlock: AZAVOO_clean_sbu_0, # of connection points: 4
#     Node 3, Type 0, BuildingBlock: AZAVOO_clean_sbu_0, # of connection points: 4
#     Node 4, Type 0, BuildingBlock: AZAVOO_clean_sbu_0, # of connection points: 4
#     Node 5, Type 0, BuildingBlock: AZAVOO_clean_sbu_0, # of connection points: 4
#     Node 6, Type 0, BuildingBlock: AZAVOO_clean_sbu_0, # of connection points: 4
#     Node 7, Type 0, BuildingBlock: AZAVOO_clean_sbu_0, # of connection points: 4
#     Node 8, Type 0, BuildingBlock: AZAVOO_clean_sbu_0, # of connection points: 4
#     Node 9, Type 0, BuildingBlock: AZAVOO_clean_sbu_0, # of connection points: 4
#     Node 10, Type 0, BuildingBlock: AZAVOO_clean_sbu_0, # of connection points: 4
#     Node 11, Type 0, BuildingBlock: AZAVOO_clean_sbu_0, # of connection points: 4
#     Node 12, Type 0, BuildingBlock: AZAVOO_clean_sbu_0, # of connection points: 4
#     Node 13, Type 0, BuildingBlock: AZAVOO_clean_sbu_0, # of connection points: 4
#     Node 14, Type 0, BuildingBlock: AZAVOO_clean_sbu_0, # of connection points: 4
#     Node 15, Type 0, BuildingBlock: AZAVOO_clean_sbu_0, # of connection points: 4
#     Node 16, Type 0, BuildingBlock: AZAVOO_clean_sbu_0, # of connection points: 4
#     Node 17, Type 0, BuildingBlock: AZAVOO_clean_sbu_0, # of connection points: 4
#     Node 18, Type 0, BuildingBlock: AZAVOO_clean_sbu_0, # of connection points: 4
#     Node 19, Type 0, BuildingBlock: AZAVOO_clean_sbu_0, # of connection points: 4
#     Node 20, Type 0, BuildingBlock: AZAVOO_clean_sbu_0, # of connection points: 4
#     Node 21, Type 0, BuildingBlock: AZAVOO_clean_sbu_0, # of connection points: 4
#     Node 22, Type 0, BuildingBlock: AZAVOO_clean_sbu_0, # of connection points: 4
#     Node 23, Type 0, BuildingBlock: AZAVOO_clean_sbu_0, # of connection points: 4
#     Node 24, Type 0, BuildingBlock: AZAVOO_clean_sbu_0, # of connection points: 4
#     Node 25, Type 0, BuildingBlock: AZAVOO_clean_sbu_0, # of connection points: 4
#     Node 26, Type 0, BuildingBlock: AZAVOO_clean_sbu_0, # of connection points: 4
#     Node 27, Type 0, BuildingBlock: AZAVOO_clean_sbu_0, # of connection points: 4
#     Node 28, Type 0, BuildingBlock: AZAVOO_clean_sbu_0, # of connection points: 4
#     Node 29, Type 0, BuildingBlock: AZAVOO_clean_sbu_0, # of connection points: 4
#     Node 30, Type 0, BuildingBlock: AZAVOO_clean_sbu_0, # of connection points: 4
#     Node 31, Type 0, BuildingBlock: AZAVOO_clean_sbu_0, # of connection points: 4
#     Node 32, Type 0, BuildingBlock: AZAVOO_clean_sbu_0, # of connection points: 4
#     Node 33, Type 0, BuildingBlock: AZAVOO_clean_sbu_0, # of connection points: 4
#     Node 34, Type 0, BuildingBlock: AZAVOO_clean_sbu_0, # of connection points: 4
#     Node 35, Type 0, BuildingBlock: AZAVOO_clean_sbu_0, # of connection points: 4
#     Node 36, Type 0, BuildingBlock: AZAVOO_clean_sbu_0, # of connection points: 4
#     Node 37, Type 0, BuildingBlock: AZAVOO_clean_sbu_0, # of connection points: 4
#     Node 38, Type 0, BuildingBlock: AZAVOO_clean_sbu_0, # of connection points: 4
#     Node 39, Type 0, BuildingBlock: AZAVOO_clean_sbu_0, # of connection points: 4
#     Node 40, Type 0, BuildingBlock: AZAVOO_clean_sbu_0, # of connection points: 4
#     Node 41, Type 0, BuildingBlock: AZAVOO_clean_sbu_0, # of connection points: 4
#     Node 42, Type 0, BuildingBlock: AZAVOO_clean_sbu_0, # of connection points: 4
#     Node 43, Type 0, BuildingBlock: AZAVOO_clean_sbu_0, # of connection points: 4
#     Node 44, Type 0, BuildingBlock: AZAVOO_clean_sbu_0, # of connection points: 4
#     Node 45, Type 0, BuildingBlock: AZAVOO_clean_sbu_0, # of connection points: 4
#     Node 46, Type 0, BuildingBlock: AZAVOO_clean_sbu_0, # of connection points: 4
#     Node 47, Type 0, BuildingBlock: AZAVOO_clean_sbu_0, # of connection points: 4
#     Edge 48, Type (0, 0), BuildingBlock: CIFDUS_clean_linker_0, # of connection points: 2
#     Edge 49, Type (0, 0), BuildingBlock: CIFDUS_clean_linker_0, # of connection points: 2
#     Edge 50, Type (0, 0), BuildingBlock: CIFDUS_clean_linker_0, # of connection points: 2
#     Edge 51, Type (0, 0), BuildingBlock: CIFDUS_clean_linker_0, # of connection points: 2
#     Edge 52, Type (0, 0), BuildingBlock: CIFDUS_clean_linker_0, # of connection points: 2
#     Edge 53, Type (0, 0), BuildingBlock: CIFDUS_clean_linker_0, # of connection points: 2
#     Edge 54, Type (0, 0), BuildingBlock: CIFDUS_clean_linker_0, # of connection points: 2
#     Edge 55, Type (0, 0), BuildingBlock: CIFDUS_clean_linker_0, # of connection points: 2
#     Edge 56, Type (0, 0), BuildingBlock: CIFDUS_clean_linker_0, # of connection points: 2
#     Edge 57, Type (0, 0), BuildingBlock: CIFDUS_clean_linker_0, # of connection points: 2
#     Edge 58, Type (0, 0), BuildingBlock: CIFDUS_clean_linker_0, # of connection points: 2
#     Edge 59, Type (0, 0), BuildingBlock: CIFDUS_clean_linker_0, # of connection points: 2
#     Edge 60, Type (0, 0), BuildingBlock: CIFDUS_clean_linker_0, # of connection points: 2
#     Edge 61, Type (0, 0), BuildingBlock: CIFDUS_clean_linker_0, # of connection points: 2
#     Edge 62, Type (0, 0), BuildingBlock: CIFDUS_clean_linker_0, # of connection points: 2
#     Edge 63, Type (0, 0), BuildingBlock: CIFDUS_clean_linker_0, # of connection points: 2
#     Edge 64, Type (0, 0), BuildingBlock: CIFDUS_clean_linker_0, # of connection points: 2
#     Edge 65, Type (0, 0), BuildingBlock: CIFDUS_clean_linker_0, # of connection points: 2
#     Edge 66, Type (0, 0), BuildingBlock: CIFDUS_clean_linker_0, # of connection points: 2
#     Edge 67, Type (0, 0), BuildingBlock: CIFDUS_clean_linker_0, # of connection points: 2
#     Edge 68, Type (0, 0), BuildingBlock: CIFDUS_clean_linker_0, # of connection points: 2
#     Edge 69, Type (0, 0), BuildingBlock: CIFDUS_clean_linker_0, # of connection points: 2
#     Edge 70, Type (0, 0), BuildingBlock: CIFDUS_clean_linker_0, # of connection points: 2
#     Edge 71, Type (0, 0), BuildingBlock: CIFDUS_clean_linker_0, # of connection points: 2
#     Edge 72, Type (0, 0), BuildingBlock: CIFDUS_clean_linker_0, # of connection points: 2
#     Edge 73, Type (0, 0), BuildingBlock: CIFDUS_clean_linker_0, # of connection points: 2
#     Edge 74, Type (0, 0), BuildingBlock: CIFDUS_clean_linker_0, # of connection points: 2
#     Edge 75, Type (0, 0), BuildingBlock: CIFDUS_clean_linker_0, # of connection points: 2
#     Edge 76, Type (0, 0), BuildingBlock: CIFDUS_clean_linker_0, # of connection points: 2
#     Edge 77, Type (0, 0), BuildingBlock: CIFDUS_clean_linker_0, # of connection points: 2
#     Edge 78, Type (0, 0), BuildingBlock: CIFDUS_clean_linker_0, # of connection points: 2
#     Edge 79, Type (0, 0), BuildingBlock: CIFDUS_clean_linker_0, # of connection points: 2
#     Edge 80, Type (0, 0), BuildingBlock: CIFDUS_clean_linker_0, # of connection points: 2
#     Edge 81, Type (0, 0), BuildingBlock: CIFDUS_clean_linker_0, # of connection points: 2
#     Edge 82, Type (0, 0), BuildingBlock: CIFDUS_clean_linker_0, # of connection points: 2
#     Edge 83, Type (0, 0), BuildingBlock: CIFDUS_clean_linker_0, # of connection points: 2
#     Edge 84, Type (0, 0), BuildingBlock: CIFDUS_clean_linker_0, # of connection points: 2
#     Edge 85, Type (0, 0), BuildingBlock: CIFDUS_clean_linker_0, # of connection points: 2
#     Edge 86, Type (0, 0), BuildingBlock: CIFDUS_clean_linker_0, # of connection points: 2
#     Edge 87, Type (0, 0), BuildingBlock: CIFDUS_clean_linker_0, # of connection points: 2
#     Edge 88, Type (0, 0), BuildingBlock: CIFDUS_clean_linker_0, # of connection points: 2
#     Edge 89, Type (0, 0), BuildingBlock: CIFDUS_clean_linker_0, # of connection points: 2
#     Edge 90, Type (0, 0), BuildingBlock: CIFDUS_clean_linker_0, # of connection points: 2
#     Edge 91, Type (0, 0), BuildingBlock: CIFDUS_clean_linker_0, # of connection points: 2
#     Edge 92, Type (0, 0), BuildingBlock: CIFDUS_clean_linker_0, # of connection points: 2
#     Edge 93, Type (0, 0), BuildingBlock: CIFDUS_clean_linker_0, # of connection points: 2
#     Edge 94, Type (0, 0), BuildingBlock: CIFDUS_clean_linker_0, # of connection points: 2
#     Edge 95, Type (0, 0), BuildingBlock: CIFDUS_clean_linker_0, # of connection points: 2
#     Edge 96, Type (0, 0), BuildingBlock: CIFDUS_clean_linker_0, # of connection points: 2
#     Edge 97, Type (0, 0), BuildingBlock: CIFDUS_clean_linker_0, # of connection points: 2
#     Edge 98, Type (0, 0), BuildingBlock: CIFDUS_clean_linker_0, # of connection points: 2
#     Edge 99, Type (0, 0), BuildingBlock: CIFDUS_clean_linker_0, # of connection points: 2
#     Edge 100, Type (0, 0), BuildingBlock: CIFDUS_clean_linker_0, # of connection points: 2
#     Edge 101, Type (0, 0), BuildingBlock: CIFDUS_clean_linker_0, # of connection points: 2
#     Edge 102, Type (0, 0), BuildingBlock: CIFDUS_clean_linker_0, # of connection points: 2
#     Edge 103, Type (0, 0), BuildingBlock: CIFDUS_clean_linker_0, # of connection points: 2
#     Edge 104, Type (0, 0), BuildingBlock: CIFDUS_clean_linker_0, # of connection points: 2
#     Edge 105, Type (0, 0), BuildingBlock: CIFDUS_clean_linker_0, # of connection points: 2
#     Edge 106, Type (0, 0), BuildingBlock: CIFDUS_clean_linker_0, # of connection points: 2
#     Edge 107, Type (0, 0), BuildingBlock: CIFDUS_clean_linker_0, # of connection points: 2
#     Edge 108, Type (0, 0), BuildingBlock: CIFDUS_clean_linker_0, # of connection points: 2
#     Edge 109, Type (0, 0), BuildingBlock: CIFDUS_clean_linker_0, # of connection points: 2
#     Edge 110, Type (0, 0), BuildingBlock: CIFDUS_clean_linker_0, # of connection points: 2
#     Edge 111, Type (0, 0), BuildingBlock: CIFDUS_clean_linker_0, # of connection points: 2
#     Edge 112, Type (0, 0), BuildingBlock: CIFDUS_clean_linker_0, # of connection points: 2
#     Edge 113, Type (0, 0), BuildingBlock: CIFDUS_clean_linker_0, # of connection points: 2
#     Edge 114, Type (0, 0), BuildingBlock: CIFDUS_clean_linker_0, # of connection points: 2
#     Edge 115, Type (0, 0), BuildingBlock: CIFDUS_clean_linker_0, # of connection points: 2
#     Edge 116, Type (0, 0), BuildingBlock: CIFDUS_clean_linker_0, # of connection points: 2
#     Edge 117, Type (0, 0), BuildingBlock: CIFDUS_clean_linker_0, # of connection points: 2
#     Edge 118, Type (0, 0), BuildingBlock: CIFDUS_clean_linker_0, # of connection points: 2
#     Edge 119, Type (0, 0), BuildingBlock: CIFDUS_clean_linker_0, # of connection points: 2
#     Edge 120, Type (0, 0), BuildingBlock: CIFDUS_clean_linker_0, # of connection points: 2
#     Edge 121, Type (0, 0), BuildingBlock: CIFDUS_clean_linker_0, # of connection points: 2
#     Edge 122, Type (0, 0), BuildingBlock: CIFDUS_clean_linker_0, # of connection points: 2
#     Edge 123, Type (0, 0), BuildingBlock: CIFDUS_clean_linker_0, # of connection points: 2
#     Edge 124, Type (0, 0), BuildingBlock: CIFDUS_clean_linker_0, # of connection points: 2
#     Edge 125, Type (0, 0), BuildingBlock: CIFDUS_clean_linker_0, # of connection points: 2
#     Edge 126, Type (0, 0), BuildingBlock: CIFDUS_clean_linker_0, # of connection points: 2
#     Edge 127, Type (0, 0), BuildingBlock: CIFDUS_clean_linker_0, # of connection points: 2
#     Edge 128, Type (0, 0), BuildingBlock: CIFDUS_clean_linker_0, # of connection points: 2
#     Edge 129, Type (0, 0), BuildingBlock: CIFDUS_clean_linker_0, # of connection points: 2
#     Edge 130, Type (0, 0), BuildingBlock: CIFDUS_clean_linker_0, # of connection points: 2
#     Edge 131, Type (0, 0), BuildingBlock: CIFDUS_clean_linker_0, # of connection points: 2
#     Edge 132, Type (0, 0), BuildingBlock: CIFDUS_clean_linker_0, # of connection points: 2
#     Edge 133, Type (0, 0), BuildingBlock: CIFDUS_clean_linker_0, # of connection points: 2
#     Edge 134, Type (0, 0), BuildingBlock: CIFDUS_clean_linker_0, # of connection points: 2
#     Edge 135, Type (0, 0), BuildingBlock: CIFDUS_clean_linker_0, # of connection points: 2
#     Edge 136, Type (0, 0), BuildingBlock: CIFDUS_clean_linker_0, # of connection points: 2
#     Edge 137, Type (0, 0), BuildingBlock: CIFDUS_clean_linker_0, # of connection points: 2
#     Edge 138, Type (0, 0), BuildingBlock: CIFDUS_clean_linker_0, # of connection points: 2
#     Edge 139, Type (0, 0), BuildingBlock: CIFDUS_clean_linker_0, # of connection points: 2
#     Edge 140, Type (0, 0), BuildingBlock: CIFDUS_clean_linker_0, # of connection points: 2
#     Edge 141, Type (0, 0), BuildingBlock: CIFDUS_clean_linker_0, # of connection points: 2
#     Edge 142, Type (0, 0), BuildingBlock: CIFDUS_clean_linker_0, # of connection points: 2
#     Edge 143, Type (0, 0), BuildingBlock: CIFDUS_clean_linker_0, # of connection points: 2
# Relax obj value: 0.776
# Max RMSD: 0.302
# Mean RMSD: 0.289
data_MOF--net-lcv-a--node1-AZAVOO_clean_sbu_0--edge1-CIFDUS_clean_linker_0
_symmetry_space_group_name_H-M    P1
_symmetry_Int_Tables_number       1
_symmetry_cell_setting            triclinic
loop_
_symmetry_equiv_pos_as_xyz
'x, y, z'
_cell_length_a     76.652785
_cell_length_b     76.703076
_cell_length_c     76.607933
_cell_angle_alpha  95.70321
_cell_angle_beta   95.607984
_cell_angle_gamma 95.638718
loop_
_atom_site_label
_atom_site_type_symbol
_atom_site_fract_x
_atom_site_fract_y
_atom_site_fract_z
_atom_type_partial_charge
Mg0 Mg 0.01844 0.32423 0.22132 0.0
O1 O 0.00209 0.31551 0.19417 0.0
O2 O 0.01758 0.29739 0.1789 0.0
Mg3 Mg 0.04315 0.2943 0.19651 0.0
C4 C 0.00392 0.30551 0.18028 0.0
C5 C 0.99675 0.34028 0.24684 0.0
O6 O 0.00951 0.33737 0.25733 0.0
O7 O 0.00924 0.29723 0.22992 0.0
O8 O 0.02633 0.28018 0.21528 0.0
O9 O 0.03388 0.3463 0.2106 0.0
O10 O 0.04199 0.31954 0.2122 0.0
C11 C 0.01485 0.28228 0.22614 0.0
C12 C 0.04513 0.33511 0.20764 0.0
O13 O 0.99623 0.33618 0.23038 0.0
Mg14 Mg 0.9028 0.79908 0.3938 0.0
O15 O 0.92537 0.78159 0.40166 0.0
O16 O 0.94976 0.78813 0.38847 0.0
Mg17 Mg 0.946 0.8136 0.37523 0.0
C18 C 0.94094 0.77869 0.39817 0.0
C19 C 0.87208 0.77556 0.40888 0.0
O20 O 0.86333 0.77335 0.39305 0.0
O21 O 0.91359 0.82017 0.41749 0.0
O22 O 0.93108 0.8195 0.39756 0.0
O23 O 0.89755 0.78285 0.36739 0.0
O24 O 0.91649 0.80693 0.37221 0.0
C25 C 0.92821 0.82581 0.41264 0.0
C26 C 0.90928 0.79355 0.36172 0.0
O27 O 0.88667 0.7852 0.41183 0.0
Mg28 Mg 0.48097 0.653 0.68182 0.0
O29 O 0.50054 0.66807 0.66542 0.0
O30 O 0.48505 0.68735 0.65242 0.0
Mg31 Mg 0.45718 0.68567 0.66163 0.0
C32 C 0.49932 0.68024 0.65524 0.0
C33 C 0.49836 0.62952 0.70486 0.0
O34 O 0.48164 0.62631 0.70721 0.0
O35 O 0.48528 0.67657 0.70335 0.0
O36 O 0.46889 0.6951 0.69014 0.0
O37 O 0.47074 0.63421 0.65805 0.0
O38 O 0.45914 0.65849 0.66688 0.0
C39 C 0.47847 0.69114 0.70348 0.0
C40 C 0.4592 0.64516 0.65535 0.0
O41 O 0.50285 0.64037 0.69425 0.0
Mg42 Mg 0.54593 0.34683 0.9873 0.0
O43 O 0.54033 0.34281 0.95729 0.0
O44 O 0.51301 0.3285 0.95399 0.0
Mg45 Mg 0.50543 0.31638 0.97959 0.0
C46 C 0.52608 0.33659 0.94768 0.0
C47 C 0.56669 0.38064 0.00088 0.0
O48 O 0.55534 0.3766 0.01202 0.0
O49 O 0.52315 0.36439 0.98686 0.0
O50 O 0.51098 0.34194 0.99745 0.0
O51 O 0.56252 0.32393 0.98768 0.0
O52 O 0.53384 0.32074 0.98763 0.0
C53 C 0.50912 0.35597 0.9905 0.0
C54 C 0.54818 0.31348 0.98748 0.0
O55 O 0.56532 0.37057 0.9869 0.0
Mg56 Mg 0.04629 0.69465 0.43176 0.0
O57 O 0.01927 0.70687 0.42803 0.0
O58 O 0.02674 0.73543 0.42558 0.0
Mg59 Mg 0.05689 0.74107 0.42784 0.0
C60 C 0.0151 0.72236 0.42582 0.0
C61 C 0.04507 0.65674 0.42614 0.0
O62 O 0.06177 0.66308 0.42937 0.0
O63 O 0.04723 0.69527 0.40206 0.0
O64 O 0.05511 0.72401 0.40122 0.0
O65 O 0.04895 0.70101 0.46118 0.0
O66 O 0.05979 0.7182 0.44244 0.0
C67 C 0.05136 0.70831 0.39363 0.0
C68 C 0.05701 0.71594 0.45839 0.0
O69 O 0.03335 0.6673 0.42699 0.0
Mg70 Mg 0.58623 0.7799 0.60389 0.0
O71 O 0.57841 0.75554 0.61937 0.0
O72 O 0.55324 0.76164 0.62995 0.0
Mg73 Mg 0.54635 0.78915 0.6244 0.0
C74 C 0.56516 0.75138 0.62772 0.0
C75 C 0.61533 0.7546 0.59408 0.0
O76 O 0.61669 0.7514 0.61065 0.0
O77 O 0.56373 0.77015 0.58186 0.0
O78 O 0.54113 0.77985 0.59515 0.0
O79 O 0.60123 0.79769 0.62784 0.0
O80 O 0.57303 0.79612 0.61883 0.0
C81 C 0.54765 0.77335 0.58155 0.0
C82 C 0.58614 0.80369 0.62918 0.0
O83 O 0.60515 0.76555 0.58899 0.0
Mg84 Mg 0.5243 0.28919 0.80708 0.0
O85 O 0.53112 0.30262 0.83556 0.0
O86 O 0.51654 0.28534 0.85238 0.0
Mg87 Mg 0.50242 0.26061 0.83538 0.0
C88 C 0.52658 0.29919 0.85052 0.0
C89 C 0.54884 0.3065 0.7833 0.0
O90 O 0.54222 0.29217 0.77304 0.0
O91 O 0.54448 0.2695 0.81137 0.0
O92 O 0.5285 0.25241 0.82721 0.0
O93 O 0.49892 0.30238 0.80522 0.0
O94 O 0.50094 0.27574 0.81293 0.0
C95 C 0.54207 0.25563 0.81912 0.0
C96 C 0.49144 0.28836 0.81067 0.0
O97 O 0.54495 0.30845 0.799 0.0
Mg98 Mg 0.92307 0.23237 0.06711 0.0
O99 O 0.93278 0.25059 0.09413 0.0
O100 O 0.95041 0.23569 0.1108 0.0
Mg101 Mg 0.96333 0.22055 0.08943 0.0
C102 C 0.94116 0.2485 0.10902 0.0
C103 C 0.88972 0.24908 0.06783 0.0
O104 O 0.88696 0.23441 0.07508 0.0
O105 O 0.9436 0.24469 0.05021 0.0
O106 O 0.95855 0.2442 0.07543 0.0
O107 O 0.90979 0.21214 0.08263 0.0
O108 O 0.93682 0.21111 0.0756 0.0
C109 C 0.95845 0.24469 0.05901 0.0
C110 C 0.92406 0.20448 0.08334 0.0
O111 O 0.90395 0.25226 0.06106 0.0
Mg112 Mg 0.22072 0.01408 0.32088 0.0
O113 O 0.19374 -0.00129 0.30837 0.0
O114 O 0.17715 0.0175 0.29552 0.0
Mg115 Mg 0.19462 0.04323 0.29306 0.0
C116 C 0.17915 0.00234 0.30065 0.0
C117 C 0.23145 0.9922 0.3484 0.0
O118 O 0.23335 0.00673 0.35758 0.0
O119 O 0.23439 0.00754 0.29516 0.0
O120 O 0.21578 0.02611 0.29149 0.0
O121 O 0.20657 0.02648 0.34223 0.0
O122 O 0.21047 0.03894 0.31792 0.0
C123 C 0.22724 0.01756 0.28508 0.0
C124 C 0.20378 0.03904 0.33262 0.0
O125 O 0.2272 0.99068 0.33188 0.0
Mg126 Mg 0.34043 0.98984 0.54041 0.0
O127 O 0.34246 0.96081 0.5453 0.0
O128 O 0.32183 0.94538 0.52556 0.0
Mg129 Mg 0.30521 0.96362 0.51061 0.0
C130 C 0.33462 0.94619 0.53773 0.0
C131 C 0.36599 0.00579 0.57056 0.0
O132 O 0.35069 0.01136 0.57312 0.0
O133 O 0.35334 0.98549 0.51448 0.0
O134 O 0.32943 0.972 0.49756 0.0
O135 O 0.31956 0.99194 0.55984 0.0
O136 O 0.31372 0.98496 0.53129 0.0
C137 C 0.34535 0.97913 0.49942 0.0
C138 C 0.30794 0.98745 0.54635 0.0
O139 O 0.3669 0.99697 0.55661 0.0
Mg140 Mg 0.30716 0.02219 0.7919 0.0
O141 O 0.33559 0.0301 0.80458 0.0
O142 O 0.35308 0.01894 0.78568 0.0
Mg143 Mg 0.33576 0.0025 0.76217 0.0
C144 C 0.35084 0.02799 0.80006 0.0
C145 C 0.28593 0.05054 0.80872 0.0
O146 O 0.27689 0.04783 0.79304 0.0
O147 O 0.30994 0.04246 0.77199 0.0
O148 O 0.32519 0.02734 0.75345 0.0
O149 O 0.30636 -0.00339 0.80461 0.0
O150 O 0.3137 -0.00039 0.77794 0.0
C151 C 0.31654 0.04033 0.75736 0.0
C152 C 0.31122 0.99069 0.79022 0.0
O153 O 0.29925 0.04235 0.8118 0.0
Mg154 Mg 0.27482 0.10431 0.09005 0.0
O155 O 0.25764 0.12131 0.07291 0.0
O156 O 0.27651 0.13078 0.05467 0.0
Mg157 Mg 0.30321 0.12037 0.05833 0.0
C158 C 0.26117 0.12983 0.05993 0.0
C159 C 0.25503 0.08983 0.11767 0.0
O160 O 0.27143 0.09302 0.125 0.0
O161 O 0.26922 0.08217 0.06668 0.0
O162 O 0.28834 0.09324 0.04924 0.0
O163 O 0.28727 0.12808 0.10829 0.0
O164 O 0.29873 0.11675 0.08508 0.0
C165 C 0.27685 0.08113 0.05253 0.0
C166 C 0.29944 0.12911 0.09774 0.0
O167 O 0.25118 0.09455 0.10249 0.0
Mg168 Mg 0.18213 0.98036 0.15219 0.0
O169 O 0.16531 -0.00176 0.16679 0.0
O170 O 0.15532 0.98568 0.18905 0.0
Mg171 Mg 0.16701 0.95908 0.18911 0.0
C172 C 0.1566 -0.00211 0.18018 0.0
C173 C 0.20592 -0.0018 0.13086 0.0
O174 O 0.21174 0.98401 0.13222 0.0
O175 O 0.20436 0.98966 0.17435 0.0
O176 O 0.19433 0.97464 0.19565 0.0
O177 O 0.15885 0.96504 0.13563 0.0
O178 O 0.17076 0.95833 0.16124 0.0
C179 C 0.20609 0.98487 0.18986 0.0
C180 C 0.15889 0.95472 0.14805 0.0
O181 O 0.19144 0.00072 0.13682 0.0
Mg182 Mg 0.29061 0.88867 0.40246 0.0
O183 O 0.27277 0.89536 0.42465 0.0
O184 O 0.28604 0.88563 0.4485 0.0
Mg185 Mg 0.31224 0.87545 0.44262 0.0
C186 C 0.27327 0.89257 0.44086 0.0
C187 C 0.28532 0.91613 0.37776 0.0
O188 O 0.30232 0.9149 0.37806 0.0
O189 O 0.31012 0.9128 0.4137 0.0
O190 O 0.32313 0.90325 0.43774 0.0
O191 O 0.27557 0.86172 0.39834 0.0
O192 O 0.30085 0.86906 0.41524 0.0
C193 C 0.32144 0.91512 0.42731 0.0
C194 C 0.28727 0.85784 0.41032 0.0
O195 O 0.2759 0.90556 0.3856 0.0
Mg196 Mg 0.42513 0.05122 0.7006 0.0
O197 O 0.42211 0.02465 0.71256 0.0
O198 O 0.43003 0.0302 0.74146 0.0
Mg199 Mg 0.43629 0.06032 0.7482 0.0
C200 C 0.42486 0.01936 0.72775 0.0
C201 C 0.42038 0.03048 0.66301 0.0
O202 O 0.43756 0.03438 0.66408 0.0
O203 O 0.39869 0.05852 0.71024 0.0
O204 O 0.40807 0.06474 0.73899 0.0
O205 O 0.45436 0.0488 0.70038 0.0
O206 O 0.4424 0.06361 0.72144 0.0
C207 C 0.39608 0.064 0.72605 0.0
C208 C 0.45614 0.05796 0.7157 0.0
O209 O 0.4119 0.0361 0.67546 0.0
Mg210 Mg 0.22672 0.06896 0.92577 0.0
O211 O 0.24405 0.09598 0.93663 0.0
O212 O 0.22787 0.11051 0.95482 0.0
Mg213 Mg 0.21283 0.08776 0.96552 0.0
C214 C 0.24089 0.11014 0.94564 0.0
C215 C 0.24158 0.04882 0.89662 0.0
O216 O 0.22799 0.03831 0.89994 0.0
O217 O 0.23871 0.05252 0.94641 0.0
O218 O 0.23913 0.07644 0.96468 0.0
O219 O 0.20764 0.08426 0.91139 0.0
O220 O 0.20511 0.0764 0.9381 0.0
C221 C 0.24116 0.06024 0.96201 0.0
C222 C 0.19935 0.08476 0.92536 0.0
O223 O 0.24615 0.06299 0.9067 0.0
Mg224 Mg 0.32226 0.22141 0.02205 0.0
O225 O 0.31249 0.19569 0.00405 0.0
O226 O 0.29325 0.18024 0.01832 0.0
Mg227 Mg 0.29114 0.1958 0.04524 0.0
C228 C 0.30167 0.18215 0.00491 0.0
C229 C 0.35002 0.23676 -0.00103 0.0
O230 O 0.36072 0.23559 0.0132 0.0
O231 O 0.29569 0.23141 0.01407 0.0
O232 O 0.2779 0.21609 0.02995 0.0
O233 O 0.34356 0.20776 0.03595 0.0
O234 O 0.31716 0.21004 0.04459 0.0
C235 C 0.28061 0.22768 0.01937 0.0
C236 C 0.3321 0.20388 0.0467 0.0
O237 O 0.33367 0.23204 -0.00121 0.0
Mg238 Mg 0.7872 0.29994 0.01995 0.0
O239 O 0.80866 0.32285 0.03335 0.0
O240 O 0.79776 0.34665 0.02341 0.0
Mg241 Mg 0.77283 0.34002 0.00413 0.0
C242 C 0.80929 0.33961 0.03277 0.0
C243 C 0.80341 0.27624 0.05026 0.0
O244 O 0.79965 0.26257 0.05885 0.0
O245 O 0.76858 0.30868 0.03947 0.0
O246 O 0.75852 0.33141 0.02712 0.0
O247 O 0.80171 0.29544 0.99626 0.0
O248 O 0.78202 0.3144 -0.00051 0.0
C249 C 0.75824 0.3206 0.03875 0.0
C250 C 0.79273 0.30748 0.99037 0.0
O251 O 0.7921 0.27941 0.03823 0.0
Mg252 Mg 0.98139 0.54042 0.3476 0.0
O253 O 0.95074 0.54048 0.34946 0.0
O254 O 0.93677 0.52211 0.32668 0.0
Mg255 Mg 0.95727 0.50367 0.32134 0.0
C256 C 0.93666 0.53394 0.33962 0.0
C257 C 3e-05 0.56969 0.36993 0.0
O258 O 0.00971 0.56517 0.35732 0.0
O259 O 0.98669 0.51784 0.36474 0.0
O260 O 0.96112 0.50844 0.35122 0.0
O261 O 0.97872 0.55569 0.32468 0.0
O262 O 0.9778 0.52657 0.32188 0.0
C263 C 0.97476 0.50516 0.36038 0.0
C264 C 0.97724 0.54096 0.31454 0.0
O265 O 0.9863 0.56089 0.3705 0.0
Mg266 Mg 0.65663 0.68114 0.48659 0.0
O267 O 0.66168 0.66577 0.51191 0.0
O268 O 0.68022 0.65854 0.49406 0.0
Mg269 Mg 0.69472 0.657 0.47026 0.0
C270 C 0.67491 0.65755 0.50903 0.0
C271 C 0.62672 0.69679 0.50622 0.0
O272 O 0.61956 0.68034 0.50426 0.0
O273 O 0.68254 0.69937 0.49413 0.0
O274 O 0.70248 0.68632 0.47903 0.0
O275 O 0.63796 0.65989 0.46855 0.0
O276 O 0.66689 0.6622 0.47084 0.0
C277 C 0.69756 0.6996 0.48804 0.0
C278 C 0.65225 0.65545 0.46246 0.0
O279 O 0.64125 0.70062 0.50026 0.0
Mg280 Mg 0.06587 0.92746 0.22181 0.0
O281 O 0.09316 0.93422 0.23839 0.0
O282 O 0.10576 0.9585 0.22887 0.0
Mg283 Mg 0.08798 0.96611 0.20542 0.0
C284 C 0.10581 0.94652 0.23931 0.0
C285 C 0.06693 0.89335 0.23835 0.0
O286 O 0.07686 0.89134 0.22544 0.0
O287 O 0.056 0.95067 0.23832 0.0
O288 O 0.06864 0.97279 0.22516 0.0
O289 O 0.07709 0.91163 0.20004 0.0
O290 O 0.07373 0.93983 0.20044 0.0
C291 C 0.05844 0.96701 0.236 0.0
C292 C 0.07897 0.92601 0.19269 0.0
O293 O 0.0596 0.90747 0.24066 0.0
Mg294 Mg 0.1916 0.927 0.54743 0.0
O295 O 0.2096 0.92388 0.52491 0.0
O296 O 0.23679 0.92396 0.53837 0.0
Mg297 Mg 0.23633 0.92663 0.56834 0.0
C298 C 0.22604 0.92277 0.52434 0.0
C299 C 0.156 0.92829 0.52486 0.0
O300 O 0.15732 0.94398 0.53381 0.0
O301 O 0.1935 0.89808 0.55015 0.0
O302 O 0.22097 0.89906 0.56343 0.0
O303 O 0.1977 0.95648 0.54954 0.0
O304 O 0.21208 0.93917 0.56567 0.0
C305 C 0.20625 0.89055 0.55681 0.0
C306 C 0.21094 0.95454 0.56078 0.0
O307 O 0.16825 0.9186 0.52725 0.0
Mg308 Mg 0.89257 0.40291 0.29411 0.0
O309 O 0.89327 0.42279 0.27356 0.0
O310 O 0.88564 0.44826 0.28543 0.0
Mg311 Mg 0.88154 0.44464 0.31433 0.0
C312 C 0.89029 0.43869 0.27246 0.0
C313 C 0.90667 0.37076 0.27229 0.0
O314 O 0.89743 0.36029 0.28138 0.0
O315 O 0.91931 0.41646 0.30687 0.0
O316 O 0.91116 0.44172 0.31914 0.0
O317 O 0.86364 0.39597 0.28656 0.0
O318 O 0.87515 0.41584 0.30856 0.0
C319 C 0.92292 0.4315 0.31588 0.0
C320 C 0.86143 0.40833 0.29868 0.0
O321 O 0.90633 0.38724 0.2749 0.0
Mg322 Mg 0.60316 0.59159 0.78093 0.0
O323 O 0.62063 0.57784 0.7621 0.0
O324 O 0.62956 0.55517 0.77536 0.0
Mg325 Mg 0.62119 0.5571 0.80356 0.0
C326 C 0.62855 0.56399 0.76208 0.0
C327 C 0.58603 0.61855 0.7622 0.0
O328 O 0.58703 0.62496 0.77887 0.0
O329 O 0.58224 0.56773 0.774 0.0
O330 O 0.59326 0.54789 0.79029 0.0
O331 O 0.62603 0.61004 0.79357 0.0
O332 O 0.61646 0.58487 0.80318 0.0
C333 C 0.58107 0.55257 0.7797 0.0
C334 C 0.62802 0.59839 0.80454 0.0
O335 O 0.59278 0.60452 0.7582 0.0
Mg336 Mg 0.52179 0.82322 0.72547 0.0
O337 O 0.50174 0.81446 0.70047 0.0
O338 O 0.51549 0.7984 0.68133 0.0
Mg339 Mg 0.54373 0.79638 0.69404 0.0
C340 C 0.50182 0.80537 0.68557 0.0
C341 C 0.49278 0.84655 0.73276 0.0
O342 O 0.49833 0.8525 0.71855 0.0
O343 O 0.51629 0.79518 0.73384 0.0
O344 O 0.53211 0.78092 0.71502 0.0
O345 O 0.53506 0.84662 0.71365 0.0
O346 O 0.54345 0.8199 0.71227 0.0
C347 C 0.52284 0.78126 0.72803 0.0
C348 C 0.54605 0.83582 0.70876 0.0
O349 O 0.49988 0.83401 0.73923 0.0
Mg350 Mg 0.40375 0.29297 0.89346 0.0
O351 O 0.4231 0.27168 0.89602 0.0
O352 O 0.44851 0.28264 0.88744 0.0
Mg353 Mg 0.44575 0.31035 0.87924 0.0
C354 C 0.43906 0.27029 0.89321 0.0
C355 C 0.37018 0.27292 0.90931 0.0
O356 O 0.35947 0.27715 0.89632 0.0
O357 O 0.41833 0.3086 0.91883 0.0
O358 O 0.44262 0.31926 0.90767 0.0
O359 O 0.39708 0.28388 0.86388 0.0
O360 O 0.41716 0.30543 0.87524 0.0
C361 C 0.43316 0.31818 0.92041 0.0
C362 C 0.40939 0.296 0.86158 0.0
O363 O 0.38667 0.2772 0.90997 0.0
Mg364 Mg 0.98282 0.1508 0.17853 0.0
O365 O 0.0021 0.16714 0.16412 0.0
O366 O 0.98922 0.18941 0.15489 0.0
Mg367 Mg 0.96059 0.18632 0.1619 0.0
C368 C 0.00193 0.18123 0.15651 0.0
C369 C -0.00093 0.12581 0.20045 0.0
O370 O 0.9833 0.12159 0.20198 0.0
O371 O 0.98759 0.17285 0.20166 0.0
O372 O 0.97214 0.19331 0.19076 0.0
O373 O 0.97336 0.13439 0.15325 0.0
O374 O 0.96181 0.15819 0.16374 0.0
C375 C 0.9817 0.18789 0.20329 0.0
C376 C 0.96257 0.14616 0.15099 0.0
O377 O 0.00337 0.13718 0.19029 0.0
Mg378 Mg 0.04171 0.84693 0.49286 0.0
O379 O 0.04751 0.85287 0.46485 0.0
O380 O 0.02294 0.83737 0.45046 0.0
Mg381 Mg 0.00861 0.81711 0.46664 0.0
C382 C 0.03693 0.84814 0.45074 0.0
C383 C 0.06454 0.88521 0.51161 0.0
O384 O 0.06278 0.89825 0.52357 0.0
O385 O 0.01662 0.8605 0.48686 0.0
O386 O 0.00284 0.8353 0.49017 0.0
O387 O 0.06151 0.82575 0.49392 0.0
O388 O 0.0344 0.82165 0.48149 0.0
C389 C 0.00215 0.85125 0.48774 0.0
C390 C 0.04884 0.81522 0.48496 0.0
O391 O 0.05234 0.87265 0.50854 0.0
Mg392 Mg 0.54976 0.19721 0.92954 0.0
O393 O 0.52438 0.21179 0.92684 0.0
O394 O 0.53441 0.24036 0.92887 0.0
Mg395 Mg 0.56469 0.24374 0.93026 0.0
C396 C 0.52169 0.22803 0.92744 0.0
C397 C 0.53882 0.15829 0.92961 0.0
O398 O 0.5531 0.16078 0.94093 0.0
O399 O 0.55385 0.19983 0.90054 0.0
O400 O 0.56407 0.22839 0.90291 0.0
O401 O 0.55064 0.20229 0.95894 0.0
O402 O 0.56517 0.21913 0.94212 0.0
C403 C 0.56021 0.21337 0.89383 0.0
C404 C 0.56053 0.21662 0.95738 0.0
O405 O 0.53337 0.17137 0.92262 0.0
Mg406 Mg 0.08445 0.28043 0.10097 0.0
O407 O 0.07584 0.2587 0.11904 0.0
O408 O 0.05069 0.26706 0.12782 0.0
Mg409 Mg 0.04313 0.29186 0.11615 0.0
C410 C 0.06249 0.25644 0.12771 0.0
C411 C 0.11723 0.25679 0.09386 0.0
O412 O 0.12584 0.26002 0.10971 0.0
O413 O 0.06388 0.26733 0.07875 0.0
O414 O 0.03941 0.27619 0.08891 0.0
O415 O 0.09817 0.299 0.12429 0.0
O416 O 0.07066 0.29877 0.11269 0.0
C417 C 0.04728 0.2681 0.07715 0.0
C418 C 0.08321 0.30557 0.12432 0.0
O419 O 0.1032 0.26359 0.09005 0.0
Mg420 Mg 0.02813 0.7894 0.31603 0.0
O421 O 0.03986 0.80494 0.34378 0.0
O422 O 0.02797 0.79095 0.36487 0.0
Mg423 Mg 0.02209 0.7631 0.35132 0.0
C424 C 0.03673 0.80425 0.35988 0.0
C425 C 0.0326 0.82161 0.29738 0.0
O426 O 0.01557 0.81879 0.2982 0.0
O427 O 0.04958 0.77038 0.3126 0.0
O428 O 0.04767 0.77149 0.34049 0.0
O429 O 0.00269 0.79937 0.32054 0.0
O430 O 0.00877 0.77326 0.32773 0.0
C431 C 0.05289 0.76384 0.32691 0.0
C432 C -0.00212 0.78502 0.32707 0.0
O433 O 0.04262 0.81067 0.30294 0.0
Mg434 Mg 0.42443 0.72646 0.57088 0.0
O435 O 0.43348 0.74756 0.5952 0.0
O436 O 0.4555 0.73675 0.61052 0.0
Mg437 Mg 0.46073 0.71008 0.59659 0.0
C438 C 0.44521 0.74868 0.60848 0.0
C439 C 0.3936 0.73486 0.54952 0.0
O440 O 0.39464 0.71794 0.54558 0.0
O441 O 0.44789 0.73632 0.55675 0.0
O442 O 0.46785 0.7228 0.57223 0.0
O443 O 0.40664 0.70941 0.58621 0.0
O444 O 0.43445 0.70662 0.58303 0.0
C445 C 0.46327 0.73133 0.55933 0.0
C446 C 0.42026 0.70095 0.58902 0.0
O447 O 0.4064 0.74406 0.559 0.0
Mg448 Mg 0.71914 0.51466 0.82324 0.0
O449 O 0.69342 0.49481 0.81506 0.0
O450 O 0.67508 0.50811 0.79768 0.0
Mg451 Mg 0.69532 0.52189 0.78248 0.0
C452 C 0.67807 0.49579 0.80722 0.0
C453 C 0.7403 0.50026 0.85395 0.0
O454 O 0.75099 0.51452 0.85294 0.0
O455 O 0.73583 0.50191 0.80258 0.0
O456 O 0.7103 0.49854 0.78736 0.0
O457 O 0.70342 0.53465 0.83559 0.0
O458 O 0.70994 0.53375 0.80802 0.0
C459 C 0.72687 0.49938 0.78753 0.0
C460 C 0.70253 0.54122 0.82061 0.0
O461 O 0.72608 0.49718 0.84379 0.0
Mg462 Mg 0.8499 0.47834 0.04214 0.0
O463 O 0.84921 0.4479 0.04605 0.0
O464 O 0.82597 0.4338 0.02834 0.0
Mg465 Mg 0.8222 0.45225 0.0073 0.0
C466 C 0.83837 0.43409 0.04082 0.0
C467 C 0.87292 0.50051 0.06884 0.0
O468 O 0.86093 0.50964 0.06182 0.0
O469 O 0.86739 0.47956 0.01937 0.0
O470 O 0.85203 0.45451 0.01175 0.0
O471 O 0.82704 0.47926 0.05755 0.0
O472 O 0.82387 0.47496 0.02836 0.0
C473 C 0.86216 0.46702 0.00749 0.0
C474 C 0.8167 0.47648 0.04293 0.0
O475 O 0.8732 0.48465 0.06253 0.0
Mg476 Mg 0.80575 0.52442 0.28477 0.0
O477 O 0.83015 0.53779 0.30325 0.0
O478 O 0.85348 0.53011 0.2902 0.0
Mg479 Mg 0.84475 0.51178 0.26478 0.0
C480 C 0.84676 0.53837 0.30272 0.0
C481 C 0.7821 0.53353 0.31176 0.0
O482 O 0.78261 0.51647 0.31149 0.0
O483 O 0.80861 0.54436 0.26428 0.0
O484 O 0.83112 0.5331 0.25238 0.0
O485 O 0.80723 0.49951 0.29865 0.0
O486 O 0.81973 0.5043 0.27477 0.0
C487 C 0.8192 0.54359 0.25243 0.0
C488 C 0.81681 0.49414 0.2867 0.0
O489 O 0.78953 0.5417 0.30048 0.0
Mg490 Mg 0.78056 0.60384 0.59119 0.0
O491 O 0.75855 0.61733 0.57552 0.0
O492 O 0.77258 0.62998 0.55508 0.0
Mg493 Mg 0.80239 0.62754 0.55974 0.0
C494 C 0.75841 0.62584 0.56196 0.0
C495 C 0.7663 0.57814 0.61332 0.0
O496 O 0.78346 0.57895 0.61725 0.0
O497 O 0.77946 0.58352 0.56702 0.0
O498 O 0.79509 0.59844 0.54907 0.0
O499 O 0.78704 0.62739 0.61087 0.0
O500 O 0.80054 0.62165 0.58697 0.0
C501 C 0.78642 0.58434 0.55259 0.0
C502 C 0.79843 0.63234 0.60043 0.0
O503 O 0.76011 0.58789 0.60239 0.0
Mg504 Mg 0.68167 0.4863 0.65737 0.0
O505 O 0.66343 0.50055 0.67522 0.0
O506 O 0.6555 0.48128 0.69381 0.0
Mg507 Mg 0.66975 0.45657 0.6893 0.0
C508 C 0.65481 0.49622 0.68787 0.0
C509 C 0.69009 0.50816 0.6293 0.0
O510 O 0.68843 0.4919 0.62162 0.0
O511 O 0.70453 0.49343 0.67954 0.0
O512 O 0.69625 0.47355 0.69747 0.0
O513 O 0.65844 0.4735 0.63955 0.0
O514 O 0.67108 0.46154 0.66196 0.0
C515 C 0.70714 0.4859 0.69356 0.0
C516 C 0.65818 0.46105 0.64977 0.0
O517 O 0.6878 0.5109 0.64545 0.0
Mg518 Mg 0.79105 0.39325 0.90184 0.0
O519 O 0.77147 0.3993 0.92227 0.0
O520 O 0.78128 0.39002 0.94779 0.0
Mg521 Mg 0.8088 0.38158 0.94444 0.0
C522 C 0.76972 0.39684 0.93828 0.0
C523 C 0.78082 0.41231 0.86927 0.0
O524 O 0.79506 0.40618 0.86395 0.0
O525 O 0.80745 0.41893 0.91407 0.0
O526 O 0.81717 0.41026 0.94001 0.0
O527 O 0.77863 0.36549 0.89658 0.0
O528 O 0.80175 0.37466 0.91612 0.0
C529 C 0.81615 0.42198 0.92932 0.0
C530 C 0.78978 0.36229 0.90939 0.0
O531 O 0.77549 0.40805 0.88356 0.0
Mg532 Mg 0.93013 0.54807 0.19975 0.0
O533 O 0.92646 0.52108 0.21105 0.0
O534 O 0.93071 0.52731 0.24038 0.0
Mg535 Mg 0.93514 0.55736 0.24759 0.0
C536 C 0.92765 0.51625 0.22656 0.0
C537 C 0.91355 0.54574 0.16337 0.0
O538 O 0.91331 0.56211 0.1702 0.0
O539 O 0.90206 0.55401 0.20567 0.0
O540 O 0.90769 0.56112 0.23487 0.0
O541 O 0.95964 0.54689 0.20256 0.0
O542 O 0.94477 0.56037 0.22215 0.0
C543 C 0.89731 0.55969 0.22057 0.0
C544 C 0.95945 0.55559 0.21791 0.0
O545 O 0.92027 0.53492 0.17278 0.0
Mg546 Mg 0.72231 0.56833 0.42898 0.0
O547 O 0.74004 0.59399 0.43902 0.0
O548 O 0.72648 0.60893 0.45916 0.0
Mg549 Mg 0.70034 0.59229 0.4623 0.0
C550 C 0.73949 0.60738 0.4501 0.0
C551 C 0.74057 0.55893 0.39818 0.0
O552 O 0.72427 0.56073 0.39234 0.0
O553 O 0.73221 0.55723 0.45436 0.0
O554 O 0.71676 0.57161 0.47343 0.0
O555 O 0.70576 0.58214 0.40935 0.0
O556 O 0.69942 0.57791 0.43613 0.0
C557 C 0.72744 0.5603 0.46982 0.0
C558 C 0.69521 0.58376 0.42139 0.0
O559 O 0.74489 0.55987 0.41466 0.0
Mg560 Mg 0.82517 0.72231 0.51996 0.0
O561 O 0.81127 0.6979 0.50217 0.0
O562 O 0.78876 0.68738 0.51609 0.0
Mg563 Mg 0.78857 0.70525 0.54233 0.0
C564 C 0.79802 0.68668 0.50305 0.0
C565 C 0.85489 0.73615 0.4982 0.0
O566 O 0.86492 0.73769 0.51332 0.0
O567 O 0.80213 0.73736 0.5103 0.0
O568 O 0.78139 0.72672 0.52601 0.0
O569 O 0.84282 0.70519 0.53453 0.0
O570 O 0.81696 0.7122 0.54179 0.0
C571 C 0.78659 0.73696 0.51504 0.0
C572 C 0.83001 0.70301 0.54418 0.0
O573 O 0.83886 0.73001 0.49734 0.0
Mg574 Mg 0.29159 0.80873 0.53057 0.0
O575 O 0.30601 0.83743 0.53781 0.0
O576 O 0.29347 0.85372 0.51841 0.0
Mg577 Mg 0.26585 0.83975 0.5135 0.0
C578 C 0.30607 0.85129 0.52978 0.0
C579 C 0.30935 0.78523 0.55472 0.0
O580 O 0.29488 0.77489 0.5487 0.0
O581 O 0.2704 0.80969 0.54929 0.0
O582 O 0.27061 0.83675 0.54295 0.0
O583 O 0.30565 0.80819 0.5069 0.0
O584 O 0.27832 0.81539 0.50688 0.0
C585 C 0.26385 0.82417 0.55052 0.0
C586 C 0.29216 0.81393 0.49868 0.0
O587 O 0.3106 0.80105 0.5513 0.0
Mg588 Mg 0.48793 0.04052 0.84478 0.0
O589 O 0.45782 0.03855 0.84448 0.0
O590 O 0.44865 0.01214 0.82924 0.0
Mg591 Mg 0.47075 0.0001 0.8143 0.0
C592 C 0.44569 0.02608 0.83874 0.0
C593 C 0.50049 0.07487 0.86536 0.0
O594 O 0.50653 0.07593 0.85002 0.0
O595 O 0.48764 0.01828 0.86304 0.0
O596 O 0.49162 0.00688 0.8373 0.0
O597 O 0.48689 0.05625 0.82127 0.0
O598 O 0.48387 0.0274 0.81834 0.0
C599 C 0.48766 0.00446 0.85252 0.0
C600 C 0.48415 0.04168 0.81092 0.0
O601 O 0.49168 0.06084 0.86831 0.0
Mg602 Mg 0.15183 0.18403 0.98208 0.0
O603 O 0.17132 0.16935 -0.0018 0.0
O604 O 0.18621 0.15355 0.98019 0.0
Mg605 Mg 0.18027 0.16161 0.95229 0.0
C606 C 0.18239 0.15783 0.99586 0.0
C607 C 0.12701 0.19394 0.00852 0.0
O608 O 0.11517 0.18487 0.99665 0.0
O609 O 0.17416 0.2077 0.98403 0.0
O610 O 0.18421 0.18792 0.96689 0.0
O611 O 0.13404 0.15862 0.97533 0.0
O612 O 0.15409 0.16745 0.9585 0.0
C613 C 0.18649 0.20304 0.97528 0.0
C614 C 0.14283 0.15524 0.96208 0.0
O615 O 0.14318 0.19595 0.00619 0.0
Mg616 Mg 0.57019 0.42162 0.72516 0.0
O617 O 0.59669 0.431 0.74161 0.0
O618 O 0.61037 0.4523 0.7284 0.0
Mg619 Mg 0.59133 0.45778 0.70482 0.0
C620 C 0.60991 0.44215 0.74064 0.0
C621 C 0.54805 0.39924 0.74775 0.0
O622 O 0.53522 0.40488 0.73789 0.0
O623 O 0.55873 0.44539 0.7381 0.0
O624 O 0.57178 0.46642 0.72402 0.0
O625 O 0.5838 0.40366 0.70728 0.0
O626 O 0.57872 0.43077 0.70265 0.0
C627 C 0.5612 0.46142 0.73491 0.0
C628 C 0.58585 0.4168 0.69804 0.0
O629 O 0.56381 0.40528 0.7466 0.0
Mg630 Mg 0.69876 0.43167 0.0522 0.0
O631 O 0.70871 0.42692 0.02471 0.0
O632 O 0.7381 0.42843 0.02905 0.0
Mg633 Mg 0.74655 0.43217 0.05901 0.0
C634 C 0.7237 0.42658 0.01881 0.0
C635 C 0.66216 0.41327 0.04848 0.0
O636 O 0.66923 0.4094 0.06375 0.0
O637 O 0.70278 0.40311 0.05643 0.0
O638 O 0.73217 0.40505 0.06176 0.0
O639 O 0.70414 0.46114 0.0516 0.0
O640 O 0.7225 0.44407 0.06358 0.0
C641 C 0.71695 0.39629 0.06054 0.0
C642 C 0.71951 0.45933 0.05944 0.0
O643 O 0.67111 0.42341 0.03977 0.0
Mg644 Mg 0.38867 0.90109 0.79281 0.0
O645 O 0.3933 0.92241 0.77362 0.0
O646 O 0.38399 0.94698 0.78572 0.0
Mg647 Mg 0.37362 0.9418 0.81206 0.0
C648 C 0.39095 0.93865 0.7734 0.0
C649 C 0.41387 0.87389 0.78577 0.0
O650 O 0.41156 0.87283 0.80243 0.0
O651 O 0.4135 0.91501 0.80981 0.0
O652 O 0.40207 0.93876 0.82142 0.0
O653 O 0.35974 0.89441 0.78193 0.0
O654 O 0.36991 0.91354 0.80485 0.0
C655 C 0.41492 0.92949 0.81998 0.0
C656 C 0.35674 0.90598 0.79448 0.0
O657 O 0.40497 0.88392 0.77714 0.0
Mg658 Mg 0.10284 0.09014 0.2776 0.0
O659 O 0.11507 0.07363 0.25521 0.0
O660 O 0.12438 0.04939 0.26574 0.0
Mg661 Mg 0.12131 0.04853 0.29537 0.0
C662 C 0.12197 0.05908 0.2532 0.0
C663 C 0.08364 0.11928 0.26471 0.0
O664 O 0.08194 0.12089 0.28169 0.0
O665 O 0.07743 0.07018 0.2722 0.0
O666 O 0.09814 0.06333 0.29032 0.0
O667 O 0.12888 0.10335 0.29047 0.0
O668 O 0.11699 0.07757 0.2969 0.0
C669 C 0.08343 0.0586 0.28119 0.0
C670 C 0.1296 0.09019 0.2998 0.0
O671 O 0.09296 0.10788 0.25859 0.0
H672 H 0.02962 0.25286 0.23373 0.0
H673 H 0.98115 0.27528 0.23093 0.0
H674 H 0.96517 0.24584 0.22875 0.0
H675 H 0.9656 0.21437 0.21874 0.0
H676 H 0.01415 0.19213 0.21997 0.0
H677 H 0.02974 0.22062 0.23235 0.0
C678 C 0.01536 0.2513 0.23332 0.0
C679 C 0.00602 0.26612 0.2319 0.0
C680 C 0.00628 0.23429 0.23153 0.0
C681 C 0.98861 0.26406 0.23181 0.0
C682 C 0.97946 0.24718 0.23039 0.0
C683 C 0.97973 0.21561 0.22248 0.0
C684 C 0.98929 0.20136 0.21793 0.0
C685 C 0.98866 0.23223 0.22889 0.0
C686 C 0.00651 0.20294 0.22316 0.0
C687 C 0.01547 0.21934 0.23 0.0
H688 H -0.00119 0.85929 0.45432 0.0
H689 H 0.97049 0.84965 0.49818 0.0
H690 H 0.94316 0.84314 0.47827 0.0
H691 H 0.92901 0.83445 0.44805 0.0
H692 H 0.95963 0.84012 0.40417 0.0
H693 H 0.98512 0.85339 0.42425 0.0
C694 C 0.98732 0.85643 0.45953 0.0
C695 C 0.98702 0.85501 0.4776 0.0
C696 C 0.972 0.85131 0.44788 0.0
C697 C 0.97086 0.85105 0.48428 0.0
C698 C 0.95533 0.84701 0.47287 0.0
C699 C 0.94113 0.839 0.44289 0.0
C700 C 0.94245 0.83628 0.42469 0.0
C701 C 0.95592 0.84618 0.45457 0.0
C702 C 0.9583 0.84204 0.41816 0.0
C703 C 0.97289 0.84965 0.42962 0.0
H704 H 0.51123 0.70143 0.72001 0.0
H705 H 0.45733 0.71306 0.71891 0.0
H706 H 0.46702 0.74296 0.73274 0.0
H707 H 0.49073 0.76755 0.73566 0.0
H708 H 0.54453 0.75622 0.73405 0.0
H709 H 0.53519 0.72468 0.73129 0.0
C710 C 0.50162 0.71027 0.72359 0.0
C711 C 0.48366 0.70532 0.71807 0.0
C712 C 0.50736 0.72776 0.73063 0.0
C713 C 0.47127 0.7168 0.72279 0.0
C714 C 0.47683 0.73395 0.73056 0.0
C715 C 0.50045 0.75818 0.73562 0.0
C716 C 0.51819 0.7641 0.73454 0.0
C717 C 0.49485 0.73997 0.73314 0.0
C718 C 0.53072 0.75187 0.73454 0.0
C719 C 0.52537 0.73381 0.73281 0.0
H720 H 0.45416 0.34852 0.92495 0.0
H721 H 0.42969 0.30912 0.9539 0.0
H722 H 0.44945 0.32096 0.9805 0.0
H723 H 0.47742 0.33821 0.99303 0.0
H724 H 0.50376 0.37473 0.96211 0.0
H725 H 0.47933 0.36853 0.93878 0.0
C726 C 0.45289 0.34276 0.93721 0.0
C727 C 0.44081 0.32779 0.93746 0.0
C728 C 0.46479 0.349 0.95196 0.0
C729 C 0.43896 0.32063 0.95343 0.0
C730 C 0.45037 0.32729 0.96854 0.0
C731 C 0.47759 0.34514 0.98136 0.0
C732 C 0.49258 0.35656 0.97909 0.0
C733 C 0.46393 0.34084 0.96762 0.0
C734 C 0.4925 0.36574 0.96411 0.0
C735 C 0.47858 0.3621 0.9507 0.0
H736 H 0.07614 0.71076 0.37105 0.0
H737 H 0.02009 0.70354 0.37356 0.0
H738 H 0.01497 0.71599 0.34564 0.0
H739 H 0.02713 0.73767 0.32735 0.0
H740 H 0.08331 0.74842 0.32788 0.0
H741 H 0.08783 0.72475 0.3464 0.0
C742 C 0.06282 0.71094 0.36486 0.0
C743 C 0.04852 0.70647 0.37428 0.0
C744 C 0.06008 0.71893 0.34924 0.0
C745 C 0.03126 0.70684 0.36639 0.0
C746 C 0.02835 0.7142 0.35053 0.0
C747 C 0.04029 0.73409 0.33076 0.0
C748 C 0.0549 0.74501 0.3269 0.0
C749 C 0.04274 0.72161 0.34273 0.0
C750 C 0.0719 0.74026 0.33097 0.0
C751 C 0.07447 0.72696 0.34187 0.0
H752 H 0.53924 0.74204 0.56109 0.0
H753 H 0.52803 0.7961 0.56654 0.0
H754 H 0.49817 0.78755 0.55239 0.0
H755 H 0.47365 0.76383 0.55026 0.0
H756 H 0.4848 0.70979 0.5446 0.0
H757 H 0.51623 0.71907 0.54614 0.0
C758 C 0.53061 0.752 0.55811 0.0
C759 C 0.53539 0.76951 0.56537 0.0
C760 C 0.51324 0.7469 0.55036 0.0
C761 C 0.52429 0.78243 0.56136 0.0
C762 C 0.50715 0.77753 0.55341 0.0
C763 C 0.48286 0.75415 0.54811 0.0
C764 C 0.47727 0.73626 0.54839 0.0
C765 C 0.50103 0.75964 0.54955 0.0
C766 C 0.48911 0.72374 0.54507 0.0
C767 C 0.50713 0.72903 0.54622 0.0
H768 H 0.53877 0.22022 0.81628 0.0
H769 H 0.57705 0.2656 0.82967 0.0
H770 H 0.59054 0.25191 0.85429 0.0
H771 H 0.58314 0.23361 0.87768 0.0
H772 H 0.54065 0.19147 0.86695 0.0
H773 H 0.53682 0.19715 0.83605 0.0
C774 C 0.5507 0.2266 0.82405 0.0
C775 C 0.55622 0.24428 0.82213 0.0
C776 C 0.55686 0.21957 0.83939 0.0
C777 C 0.57216 0.25221 0.83141 0.0
C778 C 0.57956 0.24455 0.84581 0.0
C779 C 0.57342 0.2253 0.86843 0.0
C780 C 0.56175 0.21258 0.87466 0.0
C781 C 0.5707 0.22928 0.85097 0.0
C782 C 0.54957 0.20155 0.86252 0.0
C783 C 0.54734 0.20485 0.84485 0.0
H784 H 0.97804 0.26369 0.03875 0.0
H785 H 0.97367 0.21433 0.06099 0.0
H786 H 0.00465 0.21461 0.06432 0.0
H787 H 0.03233 0.23455 0.07078 0.0
H788 H 0.03641 0.28424 0.04911 0.0
H789 H 0.00638 0.27782 0.03462 0.0
C790 C 0.98408 0.25248 0.04323 0.0
C791 C 0.97385 0.23957 0.05061 0.0
C792 C 0.00152 0.25298 0.04543 0.0
C793 C 0.98158 0.22487 0.05608 0.0
C794 C -0.00114 0.22505 0.05803 0.0
C795 C 0.027 0.24337 0.06189 0.0
C796 C 0.0362 0.25998 0.06125 0.0
C797 C 0.00942 0.23991 0.05432 0.0
C798 C 0.02936 0.27141 0.0498 0.0
C799 C 0.01207 0.26786 0.04176 0.0
H800 H 0.21026 0.0172 0.20466 0.0
H801 H 0.23295 0.9694 0.20533 0.0
H802 H 0.24569 0.9779 0.23587 0.0
H803 H 0.24239 0.99503 0.26414 0.0
H804 H 0.21703 0.0415 0.26363 0.0
H805 H 0.21327 0.03789 0.23154 0.0
C806 C 0.21891 0.00892 0.21124 0.0
C807 C 0.22042 0.99323 0.20298 0.0
C808 C 0.22507 0.01336 0.22914 0.0
C809 C 0.2314 0.98239 0.21156 0.0
C810 C 0.2384 0.98712 0.22911 0.0
C811 C 0.2369 0.00381 0.25697 0.0
C812 C 0.22967 0.01762 0.2662 0.0
C813 C 0.23431 0.00138 0.23841 0.0
C814 C 0.22227 0.03045 0.25678 0.0
C815 C 0.22012 0.02843 0.2384 0.0
H816 H 0.33647 0.9888 0.46728 0.0
H817 H 0.37436 0.96175 0.49618 0.0
H818 H 0.37312 0.93924 0.47112 0.0
H819 H 0.35306 0.92242 0.44697 0.0
H820 H 0.31141 0.94736 0.42073 0.0
H821 H 0.32199 0.97531 0.43852 0.0
C822 C 0.34526 0.97854 0.46759 0.0
C823 C 0.35478 0.97632 0.48374 0.0
C824 C 0.34291 0.96468 0.45388 0.0
C825 C 0.36659 0.96347 0.484 0.0
C826 C 0.36547 0.95029 0.46981 0.0
C827 C 0.34669 0.93414 0.44473 0.0
C828 C 0.33117 0.93273 0.43299 0.0
C829 C 0.35234 0.9499 0.45558 0.0
C830 C 0.32325 0.94806 0.42986 0.0
C831 C 0.32924 0.96404 0.44012 0.0
H832 H 0.36333 0.0546 0.70741 0.0
H833 H 0.38978 0.08531 0.75456 0.0
H834 H 0.36184 0.08754 0.76652 0.0
H835 H 0.33229 0.07305 0.76733 0.0
H836 H 0.30642 0.03983 0.72198 0.0
H837 H 0.33072 0.04774 0.70492 0.0
C838 C 0.36288 0.06228 0.72 0.0
C839 C 0.37869 0.06913 0.73036 0.0
C840 C 0.34667 0.06321 0.7271 0.0
C841 C 0.37786 0.07933 0.74655 0.0
C842 C 0.36184 0.08075 0.75341 0.0
C843 C 0.3315 0.06846 0.75337 0.0
C844 C 0.31857 0.05477 0.74626 0.0
C845 C 0.34638 0.07167 0.74437 0.0
C846 C 0.31691 0.04975 0.72796 0.0
C847 C 0.3311 0.05383 0.71836 0.0
H848 H 0.24352 0.06716 0.03889 0.0
H849 H 0.29852 0.06359 0.03346 0.0
H850 H 0.29123 0.05014 0.00317 0.0
H851 H 0.27018 0.04815 0.97722 0.0
H852 H 0.21534 0.05248 0.9821 0.0
H853 H 0.2213 0.05604 0.01348 0.0
C854 C 0.25376 0.06254 0.03136 0.0
C855 C 0.27156 0.06667 0.03821 0.0
C856 C 0.24949 0.05522 0.01366 0.0
C857 C 0.28475 0.06073 0.02832 0.0
C858 C 0.2806 0.05313 0.01093 0.0
C859 C 0.25936 0.04853 0.98534 0.0
C860 C 0.24252 0.05057 0.97753 0.0
C861 C 0.26318 0.05162 0.00309 0.0
C862 C 0.22848 0.05102 0.98802 0.0
C863 C 0.23206 0.05372 0.00568 0.0
H864 H 0.20131 0.23154 -0.00098 0.0
H865 H 0.21303 0.19499 0.95645 0.0
H866 H 0.24424 0.20262 0.96483 0.0
H867 H 0.26793 0.21513 0.98722 0.0
H868 H 0.25712 0.24949 0.03147 0.0
H869 H 0.22616 0.24823 0.01909 0.0
C870 C 0.2105 0.22527 0.99178 0.0
C871 C 0.20463 0.21217 0.97767 0.0
C872 C 0.22875 0.22951 0.99687 0.0
C873 C 0.2171 0.20497 0.96752 0.0
C874 C 0.23505 0.20927 0.9723 0.0
C875 C 0.25886 0.22278 0.99389 0.0
C876 C 0.26478 0.23283 0.0097 0.0
C877 C 0.24101 0.22095 0.98733 0.0
C878 C 0.25295 0.24237 0.01857 0.0
C879 C 0.23523 0.24142 0.0116 0.0
H880 H 0.73881 0.38008 0.08178 0.0
H881 H 0.69385 0.36978 0.04232 0.0
H882 H 0.69959 0.33903 0.03704 0.0
H883 H 0.72304 0.31955 0.03641 0.0
H884 H 0.76997 0.33167 0.0729 0.0
H885 H 0.75745 0.35653 0.0875 0.0
C886 C 0.72991 0.3709 0.0725 0.0
C887 C 0.71633 0.37721 0.062 0.0
C888 C 0.73375 0.3535 0.06904 0.0
C889 C 0.70456 0.36523 0.05035 0.0
C890 C 0.7079 0.34767 0.04727 0.0
C891 C 0.72996 0.32702 0.04828 0.0
C892 C 0.74757 0.32451 0.05316 0.0
C893 C 0.72328 0.34215 0.05549 0.0
C894 C 0.75645 0.3337 0.06875 0.0
C895 C 0.74945 0.3482 0.07682 0.0
H896 H 0.93945 0.43456 0.34877 0.0
H897 H 0.94657 0.4453 0.29569 0.0
H898 H 0.97183 0.46695 0.30662 0.0
H899 H 0.98485 0.48841 0.33133 0.0
H900 H 0.97308 0.48101 0.38396 0.0
H901 H 0.95844 0.45156 0.37371 0.0
C902 C 0.94718 0.44102 0.33964 0.0
C903 C 0.94133 0.43848 0.32155 0.0
C904 C 0.96108 0.45403 0.34613 0.0
C905 C 0.95107 0.44701 0.30968 0.0
C906 C 0.96541 0.45948 0.31595 0.0
C907 C 0.97992 0.47985 0.34063 0.0
C908 C 0.9792 0.48698 0.35813 0.0
C909 C 0.96967 0.46395 0.3342 0.0
C910 C 0.97338 0.47586 0.37032 0.0
C911 C 0.96458 0.45919 0.36434 0.0
H912 H 0.75859 0.75211 0.526 0.0
H913 H 0.7818 0.73468 0.47927 0.0
H914 H 0.75275 0.72355 0.4644 0.0
H915 H 0.72329 0.71024 0.46865 0.0
H916 H 0.70083 0.72428 0.51692 0.0
H917 H 0.72681 0.74524 0.52728 0.0
C918 C 0.7571 0.74685 0.51219 0.0
C919 C 0.77227 0.74338 0.50402 0.0
C920 C 0.74051 0.73903 0.50436 0.0
C921 C 0.77034 0.73714 0.48599 0.0
C922 C 0.75371 0.7303 0.47763 0.0
C923 C 0.72391 0.71821 0.48127 0.0
C924 C 0.71054 0.71532 0.49232 0.0
C925 C 0.73908 0.72973 0.48733 0.0
C926 C 0.71115 0.72607 0.50835 0.0
C927 C 0.72601 0.73803 0.51427 0.0
H928 H 0.05525 0.04302 0.25818 0.0
H929 H 0.09439 0.03176 0.29875 0.0
H930 H 0.08633 0.00032 0.2911 0.0
H931 H 0.07171 0.97737 0.26932 0.0
H932 H 0.03322 0.98831 0.22826 0.0
H933 H 0.03632 0.01822 0.2405 0.0
C934 C 0.06179 0.03369 0.26554 0.0
C935 C 0.07608 0.03977 0.27836 0.0
C936 C 0.05685 0.01547 0.26126 0.0
C937 C 0.08403 0.02749 0.28813 0.0
C938 C 0.07923 0.00944 0.28398 0.0
C939 C 0.0632 0.98636 0.26369 0.0
C940 C 0.05234 0.9807 0.24795 0.0
C941 C 0.06618 0.00327 0.27008 0.0
C942 C 0.04156 0.99244 0.24052 0.0
C943 C 0.04384 0.00918 0.24728 0.0
H944 H 0.2358 0.82535 0.52776 0.0
H945 H 0.25224 0.82577 0.58312 0.0
H946 H 0.22869 0.84369 0.59042 0.0
H947 H 0.21257 0.86775 0.58057 0.0
H948 H 0.20089 0.87132 0.52498 0.0
H949 H 0.21349 0.84381 0.51799 0.0
C950 C 0.23353 0.82866 0.54141 0.0
C951 C 0.24583 0.82492 0.55492 0.0
C952 C 0.2213 0.84043 0.54531 0.0
C953 C 0.24293 0.82882 0.57257 0.0
C954 C 0.22969 0.83934 0.57669 0.0
C955 C 0.21193 0.86188 0.567 0.0
C956 C 0.20595 0.87139 0.55331 0.0
C957 C 0.22011 0.84662 0.56314 0.0
C958 C 0.20527 0.86401 0.5357 0.0
C959 C 0.21268 0.8484 0.53171 0.0
H960 H 0.56921 0.52248 0.7928 0.0
H961 H 0.56259 0.55084 0.7471 0.0
H962 H 0.55003 0.52367 0.72913 0.0
H963 H 0.54972 0.49147 0.72501 0.0
H964 H 0.55858 0.46298 0.77022 0.0
H965 H 0.56086 0.49043 0.78984 0.0
C966 C 0.56442 0.52282 0.77904 0.0
C967 C 0.5674 0.53852 0.77115 0.0
C968 C 0.55786 0.507 0.76863 0.0
C969 C 0.5607 0.53889 0.75346 0.0
C970 C 0.55366 0.52329 0.74311 0.0
C971 C 0.55139 0.49124 0.73921 0.0
C972 C 0.55454 0.47543 0.7462 0.0
C973 C 0.55348 0.50715 0.7503 0.0
C974 C 0.55631 0.47507 0.76457 0.0
C975 C 0.55786 0.49082 0.77577 0.0
H976 H 0.74522 0.48159 0.76454 0.0
H977 H 0.72454 0.53122 0.77528 0.0
H978 H 0.71971 0.53396 0.74376 0.0
H979 H 0.71283 0.51717 0.71409 0.0
H980 H 0.73418 0.46781 0.70361 0.0
H981 H 0.74853 0.47061 0.73378 0.0
C982 C 0.74072 0.49351 0.76001 0.0
C983 C 0.73434 0.50571 0.772 0.0
C984 C 0.73796 0.49495 0.7418 0.0
C985 C 0.72879 0.52126 0.7661 0.0
C986 C 0.72596 0.52281 0.74805 0.0
C987 C 0.72147 0.50759 0.71816 0.0
C988 C 0.72218 0.49212 0.7069 0.0
C989 C 0.72912 0.50897 0.73579 0.0
C990 C 0.73336 0.47974 0.71222 0.0
C991 C 0.74138 0.48123 0.72955 0.0
H992 H 0.85036 0.43485 0.93405 0.0
H993 H 0.79828 0.4483 0.9418 0.0
H994 H 0.81041 0.47049 0.96618 0.0
H995 H 0.83421 0.47778 0.99042 0.0
H996 H 0.8854 0.46089 0.98457 0.0
H997 H 0.87587 0.44955 0.95382 0.0
C998 C 0.84187 0.44343 0.94043 0.0
C999 C 0.82354 0.43996 0.93637 0.0
C1000 C 0.84891 0.4555 0.95496 0.0
C1001 C 0.81246 0.45088 0.94473 0.0
C1002 C 0.8194 0.46341 0.95883 0.0
C1003 C 0.84349 0.47248 0.98203 0.0
C1004 C 0.86024 0.46962 0.98965 0.0
C1005 C 0.83741 0.46471 0.9649 0.0
C1006 C 0.87236 0.46299 0.97889 0.0
C1007 C 0.86679 0.45623 0.96141 0.0
H1008 H 0.83153 0.57822 0.25458 0.0
H1009 H 0.80756 0.5351 0.21745 0.0
H1010 H 0.8326 0.53764 0.20017 0.0
H1011 H 0.86538 0.54499 0.20285 0.0
H1012 H 0.8894 0.58733 0.24166 0.0
H1013 H 0.86074 0.59234 0.25105 0.0
C1014 C 0.8313 0.57017 0.24206 0.0
C1015 C 0.81902 0.55519 0.23829 0.0
C1016 C 0.84646 0.57098 0.23311 0.0
C1017 C 0.81778 0.54598 0.2213 0.0
C1018 C 0.83242 0.54702 0.21169 0.0
C1019 C 0.86421 0.5557 0.21289 0.0
C1020 C 0.87953 0.56535 0.22202 0.0
C1021 C 0.8476 0.55829 0.21859 0.0
C1022 C 0.87782 0.57935 0.23485 0.0
C1023 C 0.86141 0.58231 0.24019 0.0
H1024 H 0.76237 0.55784 0.47571 0.0
H1025 H 0.71342 0.54857 0.49827 0.0
H1026 H 0.7294 0.54985 0.52762 0.0
H1027 H 0.75586 0.56262 0.5469 0.0
H1028 H 0.80421 0.5757 0.52433 0.0
H1029 H 0.79021 0.56341 0.49515 0.0
C1030 C 0.75531 0.55523 0.48695 0.0
C1031 C 0.73679 0.55346 0.48499 0.0
C1032 C 0.76454 0.55714 0.50392 0.0
C1033 C 0.72771 0.55017 0.49959 0.0
C1034 C 0.73684 0.55108 0.5164 0.0
C1035 C 0.76357 0.56204 0.53574 0.0
C1036 C 0.78088 0.57052 0.53766 0.0
C1037 C 0.75511 0.55594 0.51883 0.0
C1038 C 0.79074 0.56956 0.5231 0.0
C1039 C 0.78268 0.56266 0.50637 0.0
H1040 H 0.48834 0.97327 0.83585 0.0
H1041 H 0.45977 0.0013 0.87223 0.0
H1042 H 0.43532 0.97847 0.86764 0.0
H1043 H 0.42054 0.9525 0.84923 0.0
H1044 H 0.44793 0.92498 0.81025 0.0
H1045 H 0.47489 0.94479 0.82026 0.0
C1046 C 0.47696 0.97408 0.84316 0.0
C1047 C 0.47547 0.98956 0.85419 0.0
C1048 C 0.4629 0.96067 0.83984 0.0
C1049 C 0.46081 0.99054 0.86372 0.0
C1050 C 0.44699 0.97698 0.86094 0.0
C1051 C 0.43253 0.95056 0.84318 0.0
C1052 C 0.43221 0.9375 0.82887 0.0
C1053 C 0.44758 0.96244 0.84842 0.0
C1054 C 0.44786 0.93494 0.82131 0.0
C1055 C 0.4632 0.94638 0.82691 0.0
H1056 H 0.97307 0.28702 0.18127 0.0
H1057 H 0.0032 0.31497 0.14696 0.0
H1058 H 0.98293 0.30328 0.12152 0.0
H1059 H 0.95965 0.27996 0.10846 0.0
H1060 H 0.9312 0.24876 0.14229 0.0
H1061 H 0.94649 0.26711 0.16839 0.0
C1062 C 0.97485 0.29091 0.16827 0.0
C1063 C 0.9902 0.30174 0.1659 0.0
C1064 C 0.963 0.28337 0.15357 0.0
C1065 C 0.99253 0.30659 0.14903 0.0
C1066 C 0.98038 0.29986 0.13449 0.0
C1067 C 0.95627 0.27773 0.12154 0.0
C1068 C 0.94432 0.26309 0.12349 0.0
C1069 C 0.96611 0.2875 0.13646 0.0
C1070 C 0.94026 0.26004 0.14049 0.0
C1071 C 0.94922 0.27039 0.15542 0.0
H1072 H -0.00336 0.74499 0.4441 0.0
H1073 H 0.99297 0.70753 0.39776 0.0
H1074 H 0.96682 0.72018 0.38558 0.0
H1075 H 0.94943 0.74611 0.3856 0.0
H1076 H 0.95398 0.78301 0.43244 0.0
H1077 H 0.97583 0.76647 0.44698 0.0
C1078 C 0.99058 0.73931 0.43157 0.0
C1079 C -0.0036 0.72557 0.4217 0.0
C1080 C 0.97573 0.74686 0.42457 0.0
C1081 C 0.98797 0.71809 0.40561 0.0
C1082 C 0.97313 0.72549 0.39855 0.0
C1083 C 0.9549 0.75021 0.39914 0.0
C1084 C 0.95038 0.76595 0.40785 0.0
C1085 C 0.96752 0.74054 0.40746 0.0
C1086 C 0.95735 0.77101 0.42546 0.0
C1087 C 0.96991 0.76159 0.43375 0.0
H1088 H 0.53178 0.69532 0.67075 0.0
H1089 H 0.50128 0.68071 0.62023 0.0
H1090 H 0.52306 0.69815 0.60597 0.0
H1091 H 0.54627 0.72307 0.60907 0.0
H1092 H 0.57503 0.74042 0.65987 0.0
H1093 H 0.55913 0.71628 0.67269 0.0
C1094 C 0.53026 0.69555 0.65655 0.0
C1095 C 0.51481 0.68692 0.64656 0.0
C1096 C 0.5425 0.70638 0.64853 0.0
C1097 C 0.51294 0.68738 0.62819 0.0
C1098 C 0.52538 0.69741 0.62005 0.0
C1099 C 0.54959 0.72106 0.62277 0.0
C1100 C 0.56178 0.73352 0.6335 0.0
C1101 C 0.5396 0.70781 0.63022 0.0
C1102 C 0.5658 0.73094 0.6513 0.0
C1103 C 0.55648 0.71726 0.65869 0.0
H1104 H 0.55276 0.33397 0.92662 0.0
H1105 H 0.49724 0.3398 0.92518 0.0
H1106 H 0.49363 0.33274 0.89319 0.0
H1107 H 0.50455 0.31785 0.86737 0.0
H1108 H 0.55934 0.30956 0.86854 0.0
H1109 H 0.56513 0.32481 0.89868 0.0
C1110 C 0.53999 0.33415 0.91921 0.0
C1111 C 0.52515 0.33688 0.92829 0.0
C1112 C 0.53785 0.32923 0.90082 0.0
C1113 C 0.50874 0.33731 0.91853 0.0
C1114 C 0.50667 0.33324 0.90024 0.0
C1115 C 0.51784 0.31984 0.87411 0.0
C1116 C 0.5314 0.3123 0.8661 0.0
C1117 C 0.52084 0.32803 0.89149 0.0
C1118 C 0.54867 0.31512 0.87464 0.0
C1119 C 0.55192 0.32373 0.8919 0.0
H1120 H 0.10533 0.96708 0.26956 0.0
H1121 H 0.13719 0.93206 0.24293 0.0
H1122 H 0.16306 0.94401 0.26372 0.0
H1123 H 0.17767 0.96993 0.28396 0.0
H1124 H 0.14588 0.00513 0.3085 0.0
H1125 H 0.11876 0.98809 0.29466 0.0
C1126 C 0.11783 0.96168 0.26873 0.0
C1127 C 0.11954 0.94903 0.2546 0.0
C1128 C 0.1327 0.96916 0.28021 0.0
C1129 C 0.13568 0.94197 0.25362 0.0
C1130 C 0.15048 0.94891 0.26544 0.0
C1131 C 0.16478 0.97349 0.2867 0.0
C1132 C 0.16346 0.98962 0.2968 0.0
C1133 C 0.14941 0.96339 0.27796 0.0
C1134 C 0.14674 0.99403 0.30044 0.0
C1135 C 0.13147 0.98372 0.29247 0.0
H1136 H 0.31756 0.87338 0.55977 0.0
H1137 H 0.32807 0.85999 0.50613 0.0
H1138 H 0.34437 0.88892 0.50604 0.0
H1139 H 0.34603 0.92004 0.5175 0.0
H1140 H 0.33388 0.9345 0.57029 0.0
H1141 H 0.32861 0.9033 0.57486 0.0
C1142 C 0.32417 0.87658 0.54842 0.0
C1143 C 0.32131 0.8649 0.53281 0.0
C1144 C 0.33287 0.89363 0.54821 0.0
C1145 C 0.32994 0.869 0.51817 0.0
C1146 C 0.33915 0.88558 0.51808 0.0
C1147 C 0.34301 0.9163 0.53026 0.0
C1148 C 0.33965 0.92933 0.5433 0.0
C1149 C 0.33927 0.89843 0.53243 0.0
C1150 C 0.33617 0.92456 0.55995 0.0
C1151 C 0.33296 0.90671 0.56247 0.0
H1152 H 0.36453 0.01275 0.82759 0.0
H1153 H 0.37241 0.05835 0.79961 0.0
H1154 H 0.40256 0.06503 0.81434 0.0
H1155 H 0.42848 0.05303 0.82848 0.0
H1156 H 0.42126 0.00485 0.85263 0.0
H1157 H 0.38919 0.0043 0.84692 0.0
C1158 C 0.37274 0.02444 0.82521 0.0
C1159 C 0.36656 0.03487 0.81238 0.0
C1160 C 0.39033 0.02753 0.83293 0.0
C1161 C 0.37709 0.05006 0.80932 0.0
C1162 C 0.39434 0.0538 0.81768 0.0
C1163 C 0.41981 0.04278 0.83301 0.0
C1164 C 0.4271 0.02879 0.84061 0.0
C1165 C 0.40146 0.0419 0.8285 0.0
C1166 C 0.41586 0.01557 0.8465 0.0
C1167 C 0.39755 0.01522 0.84312 0.0
H1168 H 0.22733 0.14041 0.06521 0.0
H1169 H 0.26212 0.12883 0.02527 0.0
H1170 H 0.2406 0.13498 0.00267 0.0
H1171 H 0.21289 0.14398 0.99408 0.0
H1172 H 0.17706 0.15864 0.03082 0.0
H1173 H 0.19746 0.15037 0.05488 0.0
C1174 C 0.23015 0.13938 0.05158 0.0
C1175 C 0.24677 0.13457 0.04723 0.0
C1176 C 0.21742 0.14328 0.03803 0.0
C1177 C 0.24991 0.13302 0.02937 0.0
C1178 C 0.23746 0.13637 0.01621 0.0
C1179 C 0.20948 0.14583 0.00673 0.0
C1180 C 0.19355 0.1523 0.01013 0.0
C1181 C 0.22137 0.14169 0.02032 0.0
C1182 C 0.18929 0.15374 0.02771 0.0
C1183 C 0.20102 0.14905 0.04151 0.0
H1184 H 0.14834 0.06459 0.23134 0.0
H1185 H 0.09861 0.03433 0.2349 0.0
H1186 H 0.10332 0.01384 0.2098 0.0
H1187 H 0.12443 0.00099 0.19147 0.0
H1188 H 0.17362 0.03128 0.18628 0.0
H1189 H 0.16622 0.05535 0.20688 0.0
C1190 C 0.13833 0.05384 0.22619 0.0
C1191 C 0.12328 0.05071 0.23515 0.0
C1192 C 0.1412 0.0419 0.21165 0.0
C1193 C 0.11036 0.03684 0.22831 0.0
C1194 C 0.11309 0.02505 0.21401 0.0
C1195 C 0.13326 0.0131 0.19442 0.0
C1196 C 0.14969 0.01418 0.18768 0.0
C1197 C 0.1289 0.02686 0.20626 0.0
C1198 C 0.16091 0.03007 0.19137 0.0
C1199 C 0.15675 0.04379 0.20332 0.0
H1200 H 0.26408 0.87869 0.4698 0.0
H1201 H 0.25049 0.9183 0.43631 0.0
H1202 H 0.23232 0.93052 0.45838 0.0
H1203 H 0.22452 0.93261 0.48992 0.0
H1204 H 0.24017 0.8927 0.52239 0.0
H1205 H 0.25323 0.87808 0.49819 0.0
C1206 C 0.25708 0.88996 0.46721 0.0
C1207 C 0.25923 0.89798 0.45177 0.0
C1208 C 0.24724 0.89712 0.48006 0.0
C1209 C 0.24939 0.91208 0.4483 0.0
C1210 C 0.23909 0.91915 0.461 0.0
C1211 C 0.2307 0.92067 0.49153 0.0
C1212 C 0.232 0.91409 0.50816 0.0
C1213 C 0.23863 0.9123 0.47739 0.0
C1214 C 0.2396 0.89836 0.50995 0.0
C1215 C 0.24697 0.88989 0.49607 0.0
H1216 H 0.43839 0.00141 0.75372 0.0
H1217 H 0.40125 0.99535 0.70663 0.0
H1218 H 0.38889 0.9669 0.71475 0.0
H1219 H 0.3844 0.94751 0.73904 0.0
H1220 H 0.42263 0.95482 0.78507 0.0
H1221 H 0.43853 0.97945 0.77353 0.0
C1222 C 0.42749 0.99456 0.74503 0.0
C1223 C 0.42046 0.00038 0.73003 0.0
C1224 C 0.42045 0.97829 0.7498 0.0
C1225 C 0.40693 0.99064 0.71855 0.0
C1226 C 0.39978 0.97436 0.72324 0.0
C1227 C 0.3965 0.95419 0.7462 0.0
C1228 C 0.40215 0.94967 0.7631 0.0
C1229 C 0.40572 0.96856 0.73943 0.0
C1230 C 0.41795 0.95826 0.77216 0.0
C1231 C 0.42702 0.9724 0.76561 0.0
H1232 H 0.27619 0.1126 0.95578 0.0
H1233 H 0.23391 0.14358 0.94226 0.0
H1234 H 0.25134 0.17015 0.95724 0.0
H1235 H 0.27505 0.18268 0.98029 0.0
H1236 H 0.31645 0.15157 0.99594 0.0
H1237 H 0.30331 0.12712 0.97393 0.0
C1238 C 0.27117 0.12532 0.95546 0.0
C1239 C 0.25372 0.12615 0.94813 0.0
C1240 C 0.28097 0.14044 0.96497 0.0
C1241 C 0.24727 0.14265 0.94791 0.0
C1242 C 0.25716 0.15782 0.95665 0.0
C1243 C 0.28142 0.17071 0.97846 0.0
C1244 C 0.29645 0.16868 0.98979 0.0
C1245 C 0.27347 0.15661 0.96623 0.0
C1246 C 0.30475 0.15324 0.9874 0.0
C1247 C 0.29719 0.13928 0.97488 0.0
H1248 H 0.80981 0.36301 0.06165 0.0
H1249 H 0.84173 0.34499 0.02179 0.0
H1250 H 0.85783 0.37439 0.02388 0.0
H1251 H 0.85568 0.40644 0.03013 0.0
H1252 H 0.8228 0.42446 0.06913 0.0
H1253 H 0.81459 0.39405 0.07475 0.0
C1254 C 0.82103 0.36529 0.05423 0.0
C1255 C 0.82441 0.35194 0.0414 0.0
C1256 C 0.82968 0.38248 0.05498 0.0
C1257 C 0.8389 0.35503 0.03179 0.0
C1258 C 0.84788 0.37199 0.03274 0.0
C1259 C 0.84742 0.4037 0.04046 0.0
C1260 C 0.83971 0.41759 0.04911 0.0
C1261 C 0.84235 0.38608 0.04321 0.0
C1262 C 0.8289 0.41396 0.06236 0.0
C1263 C 0.82407 0.39653 0.06543 0.0
H1264 H 0.92056 0.56357 0.33501 0.0
H1265 H 0.91337 0.51244 0.35354 0.0
H1266 H 0.88143 0.51232 0.34892 0.0
H1267 H 0.8572 0.52213 0.33047 0.0
H1268 H 0.86463 0.57145 0.30851 0.0
H1269 H 0.89424 0.57763 0.32448 0.0
C1270 C 0.91193 0.55289 0.33888 0.0
C1271 C 0.91916 0.5379 0.3443 0.0
C1272 C 0.89349 0.55255 0.3353 0.0
C1273 C 0.90798 0.52404 0.34924 0.0
C1274 C 0.88971 0.52391 0.34643 0.0
C1275 C 0.86501 0.53464 0.32996 0.0
C1276 C 0.85905 0.54615 0.31813 0.0
C1277 C 0.88243 0.53738 0.33808 0.0
C1278 C 0.86911 0.56234 0.31747 0.0
C1279 C 0.88615 0.56572 0.3264 0.0
H1280 H 0.72886 0.6414 0.57224 0.0
H1281 H 0.74959 0.61444 0.52792 0.0
H1282 H 0.72398 0.61933 0.50845 0.0
H1283 H 0.69789 0.63415 0.50294 0.0
H1284 H 0.6767 0.66291 0.54572 0.0
H1285 H 0.69977 0.65413 0.56681 0.0
C1286 C 0.72759 0.63647 0.55837 0.0
C1287 C 0.74137 0.62784 0.55148 0.0
C1288 C 0.71275 0.63974 0.54692 0.0
C1289 C 0.73943 0.62142 0.53349 0.0
C1290 C 0.72473 0.62415 0.52232 0.0
C1291 C 0.6981 0.63834 0.51693 0.0
C1292 C 0.68574 0.64942 0.52265 0.0
C1293 C 0.71165 0.63377 0.52873 0.0
C1294 C 0.68607 0.65442 0.54088 0.0
C1295 C 0.69941 0.64953 0.55293 0.0
H1296 H 0.92303 0.44917 0.26506 0.0
H1297 H 0.86853 0.44692 0.24464 0.0
H1298 H 0.8759 0.46943 0.22516 0.0
H1299 H 0.89712 0.49436 0.21951 0.0
H1300 H 0.95174 0.49586 0.23937 0.0
H1301 H 0.9454 0.46869 0.25299 0.0
C1302 C 0.91288 0.45326 0.25594 0.0
C1303 C 0.89512 0.44727 0.25691 0.0
C1304 C 0.91731 0.46621 0.24485 0.0
C1305 C 0.8821 0.45224 0.24481 0.0
C1306 C 0.88638 0.46496 0.23356 0.0
C1307 C 0.90768 0.48836 0.2263 0.0
C1308 C 0.92478 0.49735 0.22908 0.0
C1309 C 0.9038 0.47288 0.23435 0.0
C1310 C 0.93842 0.48942 0.23771 0.0
C1311 C 0.93477 0.47389 0.24544 0.0
H1312 H 0.6637 0.53184 0.69667 0.0
H1313 H 0.6234 0.48936 0.70037 0.0
H1314 H 0.61046 0.50778 0.72234 0.0
H1315 H 0.61386 0.53361 0.74434 0.0
H1316 H 0.65376 0.57652 0.74163 0.0
H1317 H 0.66364 0.56046 0.71552 0.0
C1318 C 0.65181 0.52684 0.70196 0.0
C1319 C 0.64473 0.5091 0.69722 0.0
C1320 C 0.64472 0.53741 0.71513 0.0
C1321 C 0.62926 0.50283 0.70406 0.0
C1322 C 0.62191 0.51333 0.7167 0.0
C1323 C 0.62464 0.53948 0.73791 0.0
C1324 C 0.63351 0.55586 0.74516 0.0
C1325 C 0.63011 0.53022 0.72303 0.0
C1326 C 0.64703 0.5637 0.73645 0.0
C1327 C 0.65264 0.55452 0.72153 0.0
H1328 H 0.44106 0.75449 0.64359 0.0
H1329 H 0.45975 0.77991 0.60025 0.0
H1330 H 0.47744 0.80276 0.62095 0.0
H1331 H 0.49318 0.81054 0.65109 0.0
H1332 H 0.47281 0.78678 0.69462 0.0
H1333 H 0.44992 0.76861 0.67431 0.0
C1334 C 0.44842 0.76547 0.63872 0.0
C1335 C 0.44942 0.76534 0.62043 0.0
C1336 C 0.45857 0.77864 0.65077 0.0
C1337 C 0.45885 0.7797 0.61426 0.0
C1338 C 0.46914 0.79267 0.62612 0.0
C1339 C 0.4833 0.80187 0.65616 0.0
C1340 C 0.48494 0.79966 0.67426 0.0
C1341 C 0.47003 0.79155 0.64438 0.0
C1342 C 0.47191 0.78859 0.68072 0.0
C1343 C 0.45889 0.77807 0.66908 0.0
H1344 H 0.45831 0.27282 0.92427 0.0
H1345 H 0.44093 0.23633 0.87811 0.0
H1346 H 0.46326 0.21701 0.88713 0.0
H1347 H 0.4922 0.21458 0.90462 0.0
H1348 H 0.51044 0.2536 0.94875 0.0
H1349 H 0.48339 0.26755 0.94444 0.0
C1350 C 0.45913 0.26037 0.91647 0.0
C1351 C 0.44831 0.2561 0.90046 0.0
C1352 C 0.47249 0.24993 0.92128 0.0
C1353 C 0.44928 0.23992 0.89044 0.0
C1354 C 0.46215 0.22897 0.89555 0.0
C1355 C 0.48997 0.22584 0.91353 0.0
C1356 C 0.50347 0.23327 0.92683 0.0
C1357 C 0.47459 0.23443 0.91038 0.0
C1358 C 0.50039 0.24781 0.93832 0.0
C1359 C 0.48492 0.25584 0.93582 0.0
H1360 H 0.05921 0.22053 0.117 0.0
H1361 H 0.05876 0.25876 0.16215 0.0
H1362 H 0.04124 0.23736 0.17646 0.0
H1363 H 0.02022 0.21076 0.1729 0.0
H1364 H 0.02101 0.17117 0.12917 0.0
H1365 H 0.04448 0.18974 0.11775 0.0
C1366 C 0.056 0.22384 0.13032 0.0
C1367 C 0.05986 0.2414 0.13834 0.0
C1368 C 0.04552 0.21137 0.13848 0.0
C1369 C 0.05572 0.24545 0.15563 0.0
C1370 C 0.04549 0.23326 0.16375 0.0
C1371 C 0.02585 0.20603 0.16109 0.0
C1372 C 0.01861 0.18995 0.15158 0.0
C1373 C 0.0393 0.21668 0.15476 0.0
C1374 C 0.02621 0.18371 0.13652 0.0
C1375 C 0.0396 0.19436 0.12999 0.0
H1376 H 0.06361 0.83472 0.43572 0.0
H1377 H 0.02141 0.86677 0.42613 0.0
H1378 H 0.02088 0.85913 0.39428 0.0
H1379 H 0.02593 0.83602 0.3708 0.0
H1380 H 0.06608 0.8018 0.38129 0.0
H1381 H 0.07399 0.81737 0.41082 0.0
C1382 C 0.05497 0.84076 0.42657 0.0
C1383 C 0.04247 0.85117 0.43322 0.0
C1384 C 0.0539 0.83524 0.40836 0.0
C1385 C 0.03115 0.85874 0.4213 0.0
C1386 C 0.03066 0.85411 0.40307 0.0
C1387 C 0.03694 0.83259 0.3793 0.0
C1388 C 0.04537 0.81776 0.374 0.0
C1389 C 0.04095 0.84123 0.3966 0.0
C1390 C 0.05947 0.81321 0.38514 0.0
C1391 C 0.06389 0.82203 0.4021 0.0
H1392 H 0.68113 0.46692 0.78598 0.0
H1393 H 0.64582 0.49031 0.81944 0.0
H1394 H 0.62076 0.47114 0.80322 0.0
H1395 H 0.60853 0.45442 0.77466 0.0
H1396 H 0.64391 0.43582 0.73841 0.0
H1397 H 0.66924 0.44611 0.76029 0.0
C1398 C 0.66803 0.46717 0.79019 0.0
C1399 C 0.66521 0.47995 0.80377 0.0
C1400 C 0.65361 0.45736 0.77975 0.0
C1401 C 0.64823 0.48048 0.80904 0.0
C1402 C 0.63389 0.46972 0.79957 0.0
C1403 C 0.62179 0.45221 0.77184 0.0
C1404 C 0.62452 0.44463 0.75498 0.0
C1405 C 0.6363 0.45916 0.78409 0.0
C1406 C 0.64164 0.44183 0.75128 0.0
C1407 C 0.65608 0.44772 0.76378 0.0
H1408 H 0.73953 0.44395 0.99551 0.0
H1409 H 0.70981 0.3955 0.00074 0.0
H1410 H 0.71885 0.38133 0.97403 0.0
H1411 H 0.74131 0.38197 0.95266 0.0
H1412 H 0.76894 0.4318 0.94499 0.0
H1413 H 0.75453 0.44671 0.96843 0.0
C1414 C 0.73457 0.43049 0.99042 0.0
C1415 C 0.72454 0.42089 -8e-05 0.0
C1416 C 0.73981 0.42289 0.9745 0.0
C1417 C 0.71764 0.40288 0.99385 0.0
C1418 C 0.72307 0.39513 0.97824 0.0
C1419 C 0.7436 0.39618 0.9557 0.0
C1420 C 0.75644 0.40577 0.94748 0.0
C1421 C 0.73504 0.40472 0.96907 0.0
C1422 C 0.75921 0.42418 0.9513 0.0
C1423 C 0.75106 0.43269 0.9648 0.0
H1424 H 0.80108 0.65148 0.49837 0.0
H1425 H 0.78004 0.69371 0.47299 0.0
H1426 H 0.7616 0.67237 0.45123 0.0
H1427 H 0.74652 0.64189 0.44435 0.0
H1428 H 0.76889 0.59958 0.46848 0.0
H1429 H 0.79197 0.62055 0.48548 0.0
C1430 C 0.79285 0.65592 0.48772 0.0
C1431 C 0.79144 0.67402 0.48747 0.0
C1432 C 0.78229 0.64354 0.47525 0.0
C1433 C 0.78106 0.67977 0.4735 0.0
C1434 C 0.77045 0.66757 0.46113 0.0
C1435 C 0.75681 0.63728 0.45292 0.0
C1436 C 0.75581 0.61937 0.45561 0.0
C1437 C 0.77012 0.64944 0.4626 0.0
C1438 C 0.76933 0.6134 0.46644 0.0
C1439 C 0.78247 0.62539 0.47624 0.0
H1440 H 0.04112 0.34646 0.17574 0.0
H1441 H 0.07931 0.32924 0.21342 0.0
H1442 H 0.0979 0.322 0.1901 0.0
H1443 H 0.09863 0.31298 0.15835 0.0
H1444 H 0.05861 0.32801 0.12087 0.0
H1445 H 0.04542 0.34359 0.14451 0.0
C1446 C 0.05393 0.34195 0.17889 0.0
C1447 C 0.05888 0.33816 0.19602 0.0
C1448 C 0.06389 0.33677 0.16529 0.0
C1449 C 0.07533 0.33212 0.20014 0.0
C1450 C 0.08583 0.32779 0.1868 0.0
C1451 C 0.08745 0.32024 0.15538 0.0
C1452 C 0.07926 0.31894 0.13806 0.0
C1453 C 0.07957 0.32883 0.16916 0.0
C1454 C 0.06484 0.32847 0.13425 0.0
C1455 C 0.05727 0.33742 0.14774 0.0
H1456 H 0.97108 0.8028 0.31859 0.0
H1457 H 0.98642 0.76001 0.34718 0.0
H1458 H 0.95677 0.7554 0.3563 0.0
H1459 H 0.92793 0.76606 0.35922 0.0
H1460 H 0.91398 0.81075 0.33322 0.0
H1461 H 0.94117 0.81142 0.31896 0.0
C1462 C 0.96792 0.79241 0.32676 0.0
C1463 C 0.98097 0.78192 0.33244 0.0
C1464 C 0.95092 0.78988 0.33195 0.0
C1465 C 0.97663 0.76835 0.34279 0.0
C1466 C 0.95966 0.76565 0.34791 0.0
C1467 C 0.93049 0.77532 0.3497 0.0
C1468 C 0.91903 0.7882 0.34704 0.0
C1469 C 0.9468 0.77652 0.34282 0.0
C1470 C 0.92254 0.8005 0.3351 0.0
C1471 C 0.93828 0.80116 0.32735 0.0
H1472 H 0.42579 0.65203 0.64884 0.0
H1473 H 0.47211 0.64124 0.62377 0.0
H1474 H 0.46155 0.65568 0.5984 0.0
H1475 H 0.44287 0.67673 0.58708 0.0
H1476 H 0.39839 0.6909 0.61372 0.0
H1477 H 0.40405 0.66924 0.6346 0.0
C1478 C 0.43306 0.65213 0.63738 0.0
C1479 C 0.44965 0.64573 0.63802 0.0
C1480 C 0.42739 0.66137 0.62341 0.0
C1481 C 0.45919 0.64589 0.62334 0.0
C1482 C 0.4533 0.65445 0.60903 0.0
C1483 C 0.43425 0.67496 0.59734 0.0
C1484 C 0.42063 0.68579 0.59936 0.0
C1485 C 0.43802 0.66313 0.60951 0.0
C1486 C 0.40915 0.68292 0.6122 0.0
C1487 C 0.41243 0.67059 0.6241 0.0
H1488 H 0.57637 0.29471 0.9859 0.0
H1489 H 0.5198 0.2887 0.98608 0.0
H1490 H 0.51929 0.25676 0.98131 0.0
H1491 H 0.53431 0.23102 0.97222 0.0
H1492 H 0.59046 0.23727 0.96995 0.0
H1493 H 0.5919 0.26846 0.98094 0.0
C1494 C 0.56395 0.2864 0.98505 0.0
C1495 C 0.54812 0.29411 0.98598 0.0
C1496 C 0.56371 0.26803 0.98204 0.0
C1497 C 0.53216 0.28315 0.98508 0.0
C1498 C 0.53185 0.26485 0.98241 0.0
C1499 C 0.54693 0.23907 0.97502 0.0
C1500 C 0.56229 0.232 0.97055 0.0
C1501 C 0.54746 0.25718 0.98031 0.0
C1502 C 0.57855 0.24253 0.97362 0.0
C1503 C 0.57931 0.2604 0.97957 0.0
H1504 H 0.07314 0.79275 0.49591 0.0
H1505 H 0.02715 0.79563 0.45928 0.0
H1506 H 0.02284 0.76413 0.45332 0.0
H1507 H 0.03136 0.73564 0.45849 0.0
H1508 H 0.08279 0.73177 0.4845 0.0
H1509 H 0.08509 0.76318 0.49642 0.0
C1510 C 0.06233 0.78641 0.48653 0.0
C1511 C 0.04981 0.79652 0.47893 0.0
C1512 C 0.06049 0.76796 0.48206 0.0
C1513 C 0.0363 0.7882 0.46623 0.0
C1514 C 0.03377 0.77009 0.46274 0.0
C1515 C 0.04309 0.74172 0.4667 0.0
C1516 C 0.05679 0.73169 0.47063 0.0
C1517 C 0.0455 0.75988 0.47086 0.0
C1518 C 0.07188 0.73938 0.48162 0.0
C1519 C 0.07336 0.75736 0.48801 0.0
H1520 H 0.60127 0.81302 0.66329 0.0
H1521 H 0.56323 0.82715 0.62332 0.0
H1522 H 0.54925 0.84396 0.64551 0.0
H1523 H 0.543 0.84714 0.67641 0.0
H1524 H 0.58038 0.83253 0.71652 0.0
H1525 H 0.59984 0.82431 0.69445 0.0
C1526 C 0.59044 0.82042 0.65946 0.0
C1527 C 0.58284 0.81833 0.64191 0.0
C1528 C 0.58218 0.82993 0.6724 0.0
C1529 C 0.56893 0.82816 0.63696 0.0
C1530 C 0.56088 0.83779 0.64962 0.0
C1531 C 0.55587 0.84316 0.68036 0.0
C1532 C 0.56022 0.84015 0.69788 0.0
C1533 C 0.56662 0.83771 0.66747 0.0
C1534 C 0.57683 0.83482 0.70296 0.0
C1535 C 0.58784 0.82987 0.69032 0.0
H1536 H 0.4201 0.26878 0.84176 0.0
H1537 H 0.42023 0.32517 0.84704 0.0
H1538 H 0.44567 0.32818 0.83028 0.0
H1539 H 0.47087 0.31492 0.81842 0.0
H1540 H 0.47115 0.25844 0.81461 0.0
H1541 H 0.4428 0.25532 0.82636 0.0
C1542 C 0.42513 0.28159 0.83839 0.0
C1543 C 0.41824 0.29667 0.84543 0.0
C1544 C 0.4403 0.28327 0.82946 0.0
C1545 C 0.4252 0.31333 0.84147 0.0
C1546 C 0.43998 0.31509 0.83218 0.0
C1547 C 0.46454 0.30194 0.81985 0.0
C1548 C 0.47325 0.28697 0.81584 0.0
C1549 C 0.44815 0.30019 0.82681 0.0
C1550 C 0.46488 0.27023 0.81784 0.0
C1551 C 0.44858 0.26839 0.82448 0.0
H1552 H 0.95305 0.18732 0.08693 0.0
H1553 H 0.90098 0.18851 0.10371 0.0
H1554 H 0.90717 0.16643 0.12386 0.0
H1555 H 0.9292 0.15082 0.13999 0.0
H1556 H 0.98154 0.1512 0.12395 0.0
H1557 H 0.97349 0.16874 0.10011 0.0
C1558 C 0.94298 0.18274 0.09492 0.0
C1559 C 0.92675 0.18989 0.09419 0.0
C1560 C 0.94672 0.17035 0.10656 0.0
C1561 C 0.9137 0.18343 0.10428 0.0
C1562 C 0.91721 0.17079 0.11575 0.0
C1563 C 0.93849 0.15407 0.13067 0.0
C1564 C 0.95579 0.14962 0.13339 0.0
C1565 C 0.93389 0.16463 0.11741 0.0
C1566 C 0.96801 0.15412 0.12168 0.0
C1567 C 0.9635 0.16444 0.10831 0.0
H1568 H 0.13157 0.06733 0.32407 0.0
H1569 H 0.16284 0.10793 0.30217 0.0
H1570 H 0.18983 0.09764 0.31539 0.0
H1571 H 0.20389 0.07273 0.32627 0.0
H1572 H 0.17207 0.02975 0.34388 0.0
H1573 H 0.14577 0.04493 0.33879 0.0
C1574 C 0.14431 0.07401 0.32227 0.0
C1575 C 0.14536 0.08776 0.31145 0.0
C1576 C 0.15958 0.06729 0.32883 0.0
C1577 C 0.16179 0.09699 0.31006 0.0
C1578 C 0.17718 0.09102 0.31751 0.0
C1579 C 0.19127 0.0671 0.32964 0.0
C1580 C 0.18976 0.05028 0.33544 0.0
C1581 C 0.17619 0.07552 0.32589 0.0
C1582 C 0.17347 0.04284 0.33967 0.0
C1583 C 0.15844 0.05142 0.33655 0.0
H1584 H 0.29054 0.98293 0.57576 0.0
H1585 H 0.28201 0.98575 0.51958 0.0
H1586 H 0.25045 0.97965 0.52008 0.0
H1587 H 0.22549 0.97047 0.53547 0.0
H1588 H 0.23338 0.96418 0.59079 0.0
H1589 H 0.2646 0.97548 0.59189 0.0
C1590 C 0.28172 0.98241 0.56371 0.0
C1591 C 0.28871 0.98464 0.54763 0.0
C1592 C 0.26335 0.97858 0.56399 0.0
C1593 C 0.27709 0.98385 0.53211 0.0
C1594 C 0.25895 0.98049 0.53237 0.0
C1595 C 0.23389 0.97228 0.54791 0.0
C1596 C 0.22719 0.96681 0.56305 0.0
C1597 C 0.25196 0.97755 0.54812 0.0
C1598 C 0.2383 0.96863 0.57901 0.0
C1599 C 0.25619 0.9748 0.57956 0.0
H1600 H 0.31574 0.96767 0.81519 0.0
H1601 H 0.31635 0.97223 0.75952 0.0
H1602 H 0.3261 0.94311 0.75493 0.0
H1603 H 0.3389 0.91846 0.76728 0.0
H1604 H 0.3399 0.91421 0.82294 0.0
H1605 H 0.32445 0.94046 0.82687 0.0
C1606 C 0.31776 0.96216 0.80204 0.0
C1607 C 0.31565 0.9723 0.78781 0.0
C1608 C 0.32348 0.94527 0.79942 0.0
C1609 C 0.31825 0.96491 0.77082 0.0
C1610 C 0.32369 0.94814 0.7681 0.0
C1611 C 0.33481 0.92273 0.78004 0.0
C1612 C 0.34045 0.9145 0.79475 0.0
C1613 C 0.32683 0.9384 0.78235 0.0
C1614 C 0.33547 0.92033 0.81137 0.0
C1615 C 0.327 0.93557 0.8137 0.0
H1616 H 0.31921 0.20354 0.07792 0.0
H1617 H 0.34943 0.17434 0.04302 0.0
H1618 H 0.34554 0.14883 0.05976 0.0
H1619 H 0.32847 0.13345 0.08037 0.0
H1620 H 0.29537 0.16212 0.11262 0.0
H1621 H 0.30633 0.18953 0.10175 0.0
C1622 C 0.32537 0.19174 0.07432 0.0
C1623 C 0.33436 0.19063 0.05918 0.0
C1624 C 0.32254 0.17707 0.0836 0.0
C1625 C 0.34247 0.17544 0.05466 0.0
C1626 C 0.34011 0.16084 0.06414 0.0
C1627 C 0.32391 0.14578 0.08525 0.0
C1628 C 0.31058 0.14572 0.0967 0.0
C1629 C 0.32941 0.16126 0.07806 0.0
C1630 C 0.30538 0.16179 0.10357 0.0
C1631 C 0.31149 0.17743 0.09718 0.0
H1632 H 0.12448 0.95698 0.13866 0.0
H1633 H 0.16047 0.92371 0.16167 0.0
H1634 H 0.13659 0.90829 0.17493 0.0
H1635 H 0.10768 0.90978 0.18594 0.0
H1636 H 0.07317 0.94612 0.16615 0.0
H1637 H 0.09389 0.95459 0.14542 0.0
C1638 C 0.12684 0.94582 0.1459 0.0
C1639 C 0.14406 0.9416 0.14951 0.0
C1640 C 0.11331 0.93786 0.15443 0.0
C1641 C 0.14719 0.92722 0.15896 0.0
C1642 C 0.1336 0.91854 0.16668 0.0
C1643 C 0.10451 0.9191 0.17666 0.0
C1644 C 0.08919 0.92756 0.17763 0.0
C1645 C 0.11691 0.92458 0.16549 0.0
C1646 C 0.08511 0.93968 0.16569 0.0
C1647 C 0.09694 0.94453 0.15388 0.0
H1648 H 0.3105 0.8394 0.42642 0.0
H1649 H 0.25556 0.84771 0.42187 0.0
H1650 H 0.25196 0.83428 0.44923 0.0
H1651 H 0.26555 0.8235 0.47629 0.0
H1652 H 0.32127 0.81776 0.48129 0.0
H1653 H 0.3236 0.82741 0.45222 0.0
C1654 C 0.2976 0.83769 0.43113 0.0
C1655 C 0.28331 0.84437 0.42216 0.0
C1656 C 0.29594 0.83097 0.44728 0.0
C1657 C 0.26668 0.84231 0.42839 0.0
C1658 C 0.26473 0.835 0.44423 0.0
C1659 C 0.27816 0.82425 0.47094 0.0
C1660 C 0.29319 0.81979 0.48093 0.0
C1661 C 0.27944 0.82987 0.45412 0.0
C1662 C 0.30946 0.82096 0.47387 0.0
C1663 C 0.31081 0.82642 0.4572 0.0
H1664 H 0.48733 0.06973 0.79198 0.0
H1665 H 0.47509 0.01317 0.78621 0.0
H1666 H 0.47059 0.01285 0.75423 0.0
H1667 H 0.46641 0.02896 0.72835 0.0
H1668 H 0.47642 0.08554 0.73432 0.0
H1669 H 0.4865 0.08553 0.76557 0.0
C1670 C 0.48376 0.05732 0.78373 0.0
C1671 C 0.48138 0.04152 0.79152 0.0
C1672 C 0.48121 0.05722 0.76531 0.0
C1673 C 0.47685 0.02555 0.78061 0.0
C1674 C 0.47439 0.02533 0.76229 0.0
C1675 C 0.4718 0.04116 0.7363 0.0
C1676 C 0.47087 0.05719 0.72911 0.0
C1677 C 0.47627 0.04109 0.75451 0.0
C1678 C 0.47739 0.07301 0.73957 0.0
C1679 C 0.48265 0.07303 0.75754 0.0
H1680 H 0.14753 0.14326 0.92898 0.0
H1681 H 0.14612 0.12785 0.98144 0.0
H1682 H 0.16274 0.10313 0.97383 0.0
H1683 H 0.18125 0.08889 0.95381 0.0
H1684 H 0.18512 0.10594 0.90215 0.0
H1685 H 0.16363 0.12687 0.90771 0.0
C1686 C 0.15018 0.13395 0.93842 0.0
C1687 C 0.14548 0.13716 0.95564 0.0
C1688 C 0.16052 0.12036 0.93421 0.0
C1689 C 0.14922 0.12534 0.96798 0.0
C1690 C 0.15907 0.11144 0.96374 0.0
C1691 C 0.17739 0.09712 0.9437 0.0
C1692 C 0.18509 0.09613 0.92774 0.0
C1693 C 0.1654 0.10933 0.94715 0.0
C1694 C 0.17958 0.10661 0.91465 0.0
C1695 C 0.16727 0.11854 0.91781 0.0
H1696 H 0.81218 0.34005 0.9214 0.0
H1697 H 0.75912 0.35395 0.92237 0.0
H1698 H 0.75541 0.33766 0.9478 0.0
H1699 H 0.76826 0.32228 0.97135 0.0
H1700 H 0.82109 0.30755 0.97079 0.0
H1701 H 0.82391 0.32111 0.94328 0.0
C1702 C 0.7996 0.33882 0.9268 0.0
C1703 C 0.78582 0.34786 0.91998 0.0
C1704 C 0.79768 0.32958 0.94155 0.0
C1705 C 0.76968 0.34664 0.92716 0.0
C1706 C 0.76769 0.33761 0.94187 0.0
C1707 C 0.7804 0.32195 0.96519 0.0
C1708 C 0.79456 0.31421 0.97318 0.0
C1709 C 0.78177 0.32952 0.94945 0.0
C1710 C 0.81006 0.31354 0.96488 0.0
C1711 C 0.81165 0.32127 0.94919 0.0
H1712 H 0.97035 0.5274 0.23178 0.0
H1713 H 0.97712 0.58411 0.2375 0.0
H1714 H 0.9838 0.5847 0.26939 0.0
H1715 H 0.98166 0.56909 0.29577 0.0
H1716 H 0.97299 0.51224 0.28997 0.0
H1717 H 0.97337 0.51168 0.25819 0.0
C1718 C 0.97435 0.53982 0.23994 0.0
C1719 C 0.97326 0.55567 0.23245 0.0
C1720 C 0.97688 0.54003 0.25836 0.0
C1721 C 0.97811 0.57175 0.24307 0.0
C1722 C 0.98141 0.57208 0.26135 0.0
C1723 C 0.97972 0.55657 0.28753 0.0
C1724 C 0.97687 0.54075 0.2952 0.0
C1725 C 0.97968 0.55632 0.26917 0.0
C1726 C 0.9748 0.52463 0.28438 0.0
C1727 C 0.97502 0.52428 0.26616 0.0
H1728 H 0.69392 0.61688 0.41227 0.0
H1729 H 0.66227 0.57258 0.42753 0.0
H1730 H 0.64091 0.59179 0.4377 0.0
H1731 H 0.63757 0.62174 0.45122 0.0
H1732 H 0.66975 0.66598 0.43646 0.0
H1733 H 0.68439 0.64651 0.4171 0.0
C1734 C 0.68188 0.6114 0.41698 0.0
C1735 C 0.67977 0.59358 0.41969 0.0
C1736 C 0.67003 0.62265 0.42347 0.0
C1737 C 0.66418 0.58645 0.42572 0.0
C1738 C 0.65204 0.59743 0.43166 0.0
C1739 C 0.64698 0.62709 0.44291 0.0
C1740 C 0.65298 0.64506 0.44551 0.0
C1741 C 0.65567 0.61571 0.43202 0.0
C1742 C 0.66517 0.65202 0.43473 0.0
C1743 C 0.67371 0.64089 0.4238 0.0
H1744 H 0.85278 0.42506 0.27125 0.0
H1745 H 0.83813 0.41584 0.32259 0.0
H1746 H 0.82143 0.44168 0.3232 0.0
H1747 H 0.81511 0.46958 0.31069 0.0
H1748 H 0.83454 0.47979 0.26116 0.0
H1749 H 0.84551 0.45142 0.25859 0.0
C1750 C 0.84542 0.4284 0.2823 0.0
C1751 C 0.84637 0.41857 0.29669 0.0
C1752 C 0.83749 0.44406 0.28329 0.0
C1753 C 0.83722 0.42315 0.3112 0.0
C1754 C 0.82802 0.43811 0.31169 0.0
C1755 C 0.82188 0.46558 0.29941 0.0
C1756 C 0.82411 0.47698 0.28624 0.0
C1757 C 0.82882 0.44918 0.29814 0.0
C1758 C 0.83287 0.47157 0.2717 0.0
C1759 C 0.83919 0.45524 0.27012 0.0
H1760 H 0.68227 0.55852 0.84252 0.0
H1761 H 0.70036 0.55738 0.79076 0.0
H1762 H 0.68188 0.58001 0.78326 0.0
H1763 H 0.65737 0.59644 0.78946 0.0
H1764 H 0.63595 0.59467 0.83918 0.0
H1765 H 0.65969 0.578 0.84998 0.0
C1766 C 0.68234 0.56345 0.82973 0.0
C1767 C 0.6924 0.55606 0.81715 0.0
C1768 C 0.67138 0.57633 0.82531 0.0
C1769 C 0.69249 0.56262 0.80063 0.0
C1770 C 0.68203 0.57569 0.79632 0.0
C1771 C 0.6585 0.59316 0.80297 0.0
C1772 C 0.64524 0.59677 0.81363 0.0
C1773 C 0.67106 0.58224 0.80835 0.0
C1774 C 0.64632 0.59213 0.83093 0.0
C1775 C 0.65963 0.58229 0.83692 0.0
H1776 H 0.79844 0.4794 0.07151 0.0
H1777 H 0.79151 0.47357 0.01455 0.0
H1778 H 0.75961 0.47315 0.01486 0.0
H1779 H 0.73364 0.47033 0.0313 0.0
H1780 H 0.7408 0.4742 0.08802 0.0
H1781 H 0.77264 0.48036 0.08793 0.0
C1782 C 0.78999 0.47815 0.05915 0.0
C1783 C 0.79735 0.47623 0.04303 0.0
C1784 C 0.77169 0.47794 0.05942 0.0
C1785 C 0.78618 0.47478 0.02715 0.0
C1786 C 0.76794 0.47471 0.02731 0.0
C1787 C 0.74213 0.47358 0.04362 0.0
C1788 C 0.73499 0.47208 0.05964 0.0
C1789 C 0.76052 0.47593 0.04336 0.0
C1790 C 0.74607 0.47571 0.07557 0.0
C1791 C 0.7643 0.47875 0.07548 0.0
H1792 H 0.83117 0.65045 0.60275 0.0
H1793 H 0.77543 0.65458 0.5927 0.0
H1794 H 0.78095 0.67377 0.57007 0.0
H1795 H 0.80107 0.68298 0.54959 0.0
H1796 H 0.85683 0.6903 0.56511 0.0
H1797 H 0.85237 0.67021 0.58809 0.0
C1798 C 0.82043 0.65662 0.59648 0.0
C1799 C 0.80287 0.65086 0.59885 0.0
C1800 C 0.82378 0.66825 0.58387 0.0
C1801 C 0.78899 0.65888 0.59094 0.0
C1802 C 0.79208 0.66937 0.57763 0.0
C1803 C 0.81215 0.68201 0.55895 0.0
C1804 C 0.82895 0.68937 0.55642 0.0
C1805 C 0.80931 0.67329 0.57351 0.0
C1806 C 0.8436 0.68499 0.56697 0.0
C1807 C 0.84102 0.67391 0.58031 0.0
H1808 H 0.58506 0.43622 0.67084 0.0
H1809 H 0.61535 0.39945 0.69613 0.0
H1810 H 0.64018 0.4076 0.67963 0.0
H1811 H 0.65493 0.42969 0.66309 0.0
H1812 H 0.62477 0.46763 0.63952 0.0
H1813 H 0.5981 0.45436 0.65002 0.0
C1814 C 0.59696 0.42967 0.67239 0.0
C1815 C 0.5986 0.41757 0.68489 0.0
C1816 C 0.61123 0.43482 0.66333 0.0
C1817 C 0.61387 0.40889 0.68661 0.0
C1818 C 0.6281 0.41366 0.6773 0.0
C1819 C 0.64238 0.43466 0.65982 0.0
C1820 C 0.6418 0.44978 0.6509 0.0
C1821 C 0.62721 0.42728 0.66636 0.0
C1822 C 0.62552 0.45602 0.64643 0.0
C1823 C 0.6103 0.44855 0.65259 0.0
H1824 H 0.97626 0.36482 0.23686 0.0
H1825 H 0.98106 0.32464 0.27202 0.0
H1826 H 0.95165 0.32831 0.2807 0.0
H1827 H 0.92506 0.3435 0.27887 0.0
H1828 H 0.92121 0.38548 0.24563 0.0
H1829 H 0.94964 0.38043 0.2353 0.0
C1830 C 0.97085 0.3571 0.24659 0.0
C1831 C 0.9806 0.34461 0.25398 0.0
C1832 C 0.95408 0.35941 0.25158 0.0
C1833 C 0.97372 0.33455 0.2665 0.0
C1834 C 0.95688 0.33647 0.27125 0.0
C1835 C 0.93023 0.35118 0.269 0.0
C1836 C 0.92109 0.36468 0.26289 0.0
C1837 C 0.94692 0.3488 0.26382 0.0
C1838 C 0.92805 0.37487 0.25038 0.0
C1839 C 0.94437 0.37216 0.24465 0.0
H1840 H 0.89175 0.77041 0.43848 0.0
H1841 H 0.83887 0.75979 0.41184 0.0
H1842 H 0.82918 0.74585 0.43722 0.0
H1843 H 0.83568 0.73797 0.4671 0.0
H1844 H 0.88849 0.74944 0.49391 0.0
H1845 H 0.89839 0.76192 0.46794 0.0
C1846 C 0.87806 0.76508 0.43817 0.0
C1847 C 0.86595 0.76628 0.42342 0.0
C1848 C 0.87267 0.7573 0.45272 0.0
C1849 C 0.84838 0.75904 0.42309 0.0
C1850 C 0.84287 0.75114 0.43758 0.0
C1851 C 0.84941 0.74309 0.46729 0.0
C1852 C 0.86137 0.74283 0.48242 0.0
C1853 C 0.8549 0.75038 0.45249 0.0
C1854 C 0.87906 0.74953 0.48243 0.0
C1855 C 0.8847 0.75666 0.46763 0.0
H1856 H 0.55366 0.6251 0.7688 0.0
H1857 H 0.58752 0.62025 0.72722 0.0
H1858 H 0.56236 0.62103 0.70507 0.0
H1859 H 0.53076 0.62285 0.69788 0.0
H1860 H 0.49671 0.62563 0.73947 0.0
H1861 H 0.52192 0.62502 0.76148 0.0
C1862 C 0.55555 0.6247 0.75491 0.0
C1863 C 0.5723 0.6231 0.7495 0.0
C1864 C 0.54099 0.62413 0.74237 0.0
C1865 C 0.57467 0.6219 0.73152 0.0
C1866 C 0.56031 0.62204 0.71893 0.0
C1867 C 0.5289 0.623 0.71176 0.0
C1868 C 0.51213 0.62443 0.71721 0.0
C1869 C 0.5434 0.62292 0.72423 0.0
C1870 C 0.5096 0.6244 0.73508 0.0
C1871 C 0.524 0.62437 0.74764 0.0
H1872 H 0.6408 0.42406 0.02224 0.0
H1873 H 0.64396 0.38444 0.05842 0.0
H1874 H 0.61437 0.37119 0.04685 0.0
H1875 H 0.58754 0.37119 0.02697 0.0
H1876 H 0.58397 0.40891 0.99047 0.0
H1877 H 0.614 0.42338 0.00142 0.0
C1878 C 0.63497 0.41254 0.02758 0.0
C1879 C 0.64438 0.40535 0.0413 0.0
C1880 C 0.61795 0.40502 0.02087 0.0
C1881 C 0.63681 0.39036 0.04805 0.0
C1882 C 0.61995 0.38276 0.04142 0.0
C1883 C 0.59333 0.38272 0.0216 0.0
C1884 C 0.58385 0.38977 0.00794 0.0
C1885 C 0.61037 0.39011 0.02802 0.0
C1886 C 0.59142 0.40429 0.00053 0.0
C1887 C 0.60836 0.41204 0.00713 0.0
H1888 H 0.03336 0.58466 0.37867 0.0
H1889 H 0.98066 0.5892 0.38945 0.0
H1890 H 0.99033 0.61592 0.40951 0.0
H1891 H 0.01273 0.63875 0.42243 0.0
H1892 H 0.06644 0.63431 0.41155 0.0
H1893 H 0.05711 0.60638 0.39335 0.0
C1894 C 0.02382 0.59147 0.3855 0.0
C1895 C 0.00589 0.58513 0.38264 0.0
C1896 C 0.02946 0.60666 0.39704 0.0
C1897 C 0.99459 0.59389 0.39159 0.0
C1898 C -0.00093 0.60913 0.40301 0.0
C1899 C 0.02241 0.63153 0.41627 0.0
C1900 C 0.04015 0.63858 0.41811 0.0
C1901 C 0.01695 0.6157 0.40567 0.0
C1902 C 0.05267 0.62908 0.41029 0.0
C1903 C 0.04734 0.61322 0.39977 0.0
H1904 H 0.62 0.69045 0.53863 0.0
H1905 H 0.6244 0.73169 0.50449 0.0
H1906 H 0.6235 0.75397 0.52958 0.0
H1907 H 0.62209 0.76141 0.56137 0.0
H1908 H 0.61975 0.72002 0.59562 0.0
H1909 H 0.6202 0.69801 0.5704 0.0
C1910 C 0.62026 0.70429 0.53667 0.0
C1911 C 0.62181 0.70952 0.51985 0.0
C1912 C 0.62083 0.71694 0.55122 0.0
C1913 C 0.62281 0.72748 0.51739 0.0
C1914 C 0.6226 0.74017 0.53172 0.0
C1915 C 0.62203 0.74759 0.56331 0.0
C1916 C 0.62077 0.74227 0.58025 0.0
C1917 C 0.62194 0.73503 0.54875 0.0
C1918 C 0.62087 0.72441 0.58272 0.0
C1919 C 0.62078 0.7118 0.56827 0.0
H1920 H 0.52497 0.32375 0.76749 0.0
H1921 H 0.58065 0.32593 0.78343 0.0
H1922 H 0.58509 0.35618 0.77534 0.0
H1923 H 0.57273 0.38178 0.76429 0.0
H1924 H 0.51662 0.37969 0.74947 0.0
H1925 H 0.5125 0.34968 0.75756 0.0
C1926 C 0.53811 0.33079 0.76876 0.0
C1927 C 0.55258 0.32274 0.77543 0.0
C1928 C 0.54031 0.34822 0.76492 0.0
C1929 C 0.5695 0.33192 0.77779 0.0
C1930 C 0.57193 0.3492 0.77345 0.0
C1931 C 0.55956 0.37486 0.76298 0.0
C1932 C 0.54501 0.38285 0.75604 0.0
C1933 C 0.55736 0.35752 0.76721 0.0
C1934 C 0.52802 0.37379 0.75468 0.0
C1935 C 0.52569 0.35659 0.75911 0.0
H1936 H 0.87851 0.27025 0.04338 0.0
H1937 H 0.873 0.25702 0.09614 0.0
H1938 H 0.84768 0.2736 0.09767 0.0
H1939 H 0.82289 0.28349 0.0812 0.0
H1940 H 0.82402 0.28948 0.02612 0.0
H1941 H 0.85561 0.28629 0.02856 0.0
C1942 C 0.87202 0.27155 0.05533 0.0
C1943 C 0.87718 0.26219 0.06948 0.0
C1944 C 0.85668 0.28018 0.05567 0.0
C1945 C 0.86887 0.26385 0.08498 0.0
C1946 C 0.85449 0.27342 0.08591 0.0
C1947 C 0.83032 0.28483 0.06994 0.0
C1948 C 0.82123 0.28559 0.05337 0.0
C1949 C 0.84759 0.2805 0.07092 0.0
C1950 C 0.83079 0.28828 0.03896 0.0
C1951 C 0.84877 0.28601 0.04027 0.0
H1952 H 0.25166 0.9186 0.36556 0.0
H1953 H 0.30252 0.94893 0.37877 0.0
H1954 H 0.28939 0.97602 0.37375 0.0
H1955 H 0.2636 0.99083 0.3646 0.0
H1956 H 0.2134 0.9602 0.34868 0.0
H1957 H 0.22587 0.93339 0.35644 0.0
C1958 C 0.25984 0.93115 0.36717 0.0
C1959 C 0.27796 0.93188 0.37233 0.0
C1960 C 0.25224 0.94656 0.36417 0.0
C1961 C 0.28855 0.94811 0.37444 0.0
C1962 C 0.28103 0.96359 0.37183 0.0
C1963 C 0.2554 0.9783 0.36324 0.0
C1964 C 0.23773 0.97722 0.3563 0.0
C1965 C 0.2629 0.96295 0.36669 0.0
C1966 C 0.22708 0.96107 0.35416 0.0
C1967 C 0.23422 0.94582 0.3584 0.0
H1968 H 0.36223 -0.00167 0.60312 0.0
H1969 H 0.4008 0.0179 0.57054 0.0
H1970 H 0.42268 0.02511 0.59665 0.0
H1971 H 0.42904 0.02935 0.62929 0.0
H1972 H 0.38961 0.00974 0.66117 0.0
H1973 H 0.36995 -0.00157 0.63471 0.0
C1974 C 0.37552 0.004 0.60178 0.0
C1975 C 0.37997 0.00801 0.58526 0.0
C1976 C 0.38779 0.00801 0.61667 0.0
C1977 C 0.39721 0.01493 0.58334 0.0
C1978 C 0.40963 0.01905 0.59822 0.0
C1979 C 0.41629 0.02227 0.63035 0.0
C1980 C 0.4105 0.02075 0.64705 0.0
C1981 C 0.40485 0.01617 0.61505 0.0
C1982 C 0.39409 0.01141 0.64839 0.0
C1983 C 0.38285 0.00496 0.6333 0.0
H1984 H 0.26924 0.06817 0.88577 0.0
H1985 H 0.22912 0.02459 0.86865 0.0
H1986 H 0.23733 0.02392 0.83868 0.0
H1987 H 0.25604 0.03538 0.81749 0.0
H1988 H 0.29814 0.07667 0.83488 0.0
H1989 H 0.28842 0.07935 0.86453 0.0
C1990 C 0.26237 0.05846 0.8755 0.0
C1991 C 0.2485 0.04656 0.87938 0.0
C1992 C 0.26709 0.0582 0.85829 0.0
C1993 C 0.23985 0.0339 0.86601 0.0
C1994 C 0.24438 0.03364 0.84882 0.0
C1995 C 0.26263 0.04538 0.82766 0.0
C1996 C 0.27735 0.0562 0.82411 0.0
C1997 C 0.2578 0.04587 0.8448 0.0
C1998 C 0.28642 0.06862 0.83739 0.0
C1999 C 0.28109 0.06987 0.85435 0.0
H2000 H 0.19607 0.02875 0.12082 0.0
H2001 H 0.24172 0.00223 0.13491 0.0
H2002 H 0.26083 0.02972 0.13557 0.0
H2003 H 0.26454 0.061 0.13153 0.0
H2004 H 0.21929 0.0871 0.11527 0.0
H2005 H 0.19979 0.06019 0.11695 0.0
C2006 C 0.21024 0.029 0.12382 0.0
C2007 C 0.21754 0.0136 0.12776 0.0
C2008 C 0.22107 0.04482 0.12431 0.0
C2009 C 0.23586 0.01393 0.13158 0.0
C2010 C 0.24675 0.02968 0.13225 0.0
C2011 C 0.25036 0.06092 0.12884 0.0
C2012 C 0.24323 0.07588 0.12338 0.0
C2013 C 0.23947 0.0452 0.12877 0.0
C2014 C 0.22493 0.07564 0.11961 0.0
C2015 C 0.21386 0.06024 0.12031 0.0
H2016 H 0.33142 0.23706 0.96771 0.0
H2017 H 0.38312 0.25065 0.99648 0.0
H2018 H 0.39385 0.26283 0.97076 0.0
H2019 H 0.38845 0.27007 0.94063 0.0
H2020 H 0.33676 0.2572 0.91173 0.0
H2021 H 0.32608 0.24413 0.93718 0.0
C2022 C 0.34505 0.24267 0.96837 0.0
C2023 C 0.35645 0.24299 0.98402 0.0
C2024 C 0.3511 0.24972 0.95358 0.0
C2025 C 0.37408 0.25022 0.98461 0.0
C2026 C 0.38022 0.25721 0.96993 0.0
C2027 C 0.37484 0.26433 0.93978 0.0
C2028 C 0.36341 0.26457 0.92426 0.0
C2029 C 0.36882 0.25707 0.95441 0.0
C2030 C 0.3458 0.2572 0.92352 0.0
C2031 C 0.33971 0.24974 0.93805 0.0
H2032 H 0.05906 0.82462 0.27665 0.0
H2033 H 0.02152 0.8538 0.30212 0.0
H2034 H 0.03025 0.87953 0.28733 0.0
H2035 H 0.04612 0.89247 0.26486 0.0
H2036 H 0.08195 0.86252 0.2374 0.0
H2037 H 0.07629 0.83831 0.25516 0.0
C2038 C 0.05305 0.83674 0.2791 0.0
C2039 C 0.03963 0.83744 0.29021 0.0
C2040 C 0.05761 0.85119 0.27001 0.0
C2041 C 0.03177 0.85305 0.29337 0.0
C2042 C 0.03672 0.86771 0.28494 0.0
C2043 C 0.05279 0.8807 0.26285 0.0
C2044 C 0.06427 0.87921 0.24976 0.0
C2045 C 0.04921 0.86672 0.27281 0.0
C2046 C 0.0729 0.86392 0.24733 0.0
C2047 C 0.06972 0.85008 0.25749 0.0
H2048 H 0.07756 0.91159 0.49549 0.0
H2049 H 0.08789 0.86038 0.50949 0.0
H2050 H 0.11974 0.8689 0.51079 0.0
H2051 H 0.1434 0.89373 0.51712 0.0
H2052 H 0.13131 0.94639 0.5092 0.0
H2053 H 0.10148 0.93484 0.49666 0.0
C2054 C 0.08687 0.90209 0.49803 0.0
C2055 C 0.0807 0.88571 0.50291 0.0
C2056 C 0.10487 0.90775 0.50065 0.0
C2057 C 0.09252 0.87319 0.50586 0.0
C2058 C 0.11071 0.87823 0.50699 0.0
C2059 C 0.13436 0.90259 0.51218 0.0
C2060 C 0.13937 0.92093 0.51429 0.0
C2061 C 0.11691 0.89595 0.50594 0.0
C2062 C 0.1276 0.93228 0.50793 0.0
C2063 C 0.11059 0.92567 0.50071 0.0
H2064 H 0.48528 0.84691 0.76652 0.0
H2065 H 0.46593 0.86089 0.71554 0.0
H2066 H 0.43898 0.86922 0.72718 0.0
H2067 H 0.42094 0.87229 0.75174 0.0
H2068 H 0.44074 0.85934 0.80306 0.0
H2069 H 0.46744 0.8506 0.79132 0.0
C2070 C 0.47515 0.85183 0.75801 0.0
C2071 C 0.47742 0.85316 0.74021 0.0
C2072 C 0.45976 0.85661 0.76479 0.0
C2073 C 0.46443 0.85981 0.72932 0.0
C2074 C 0.44898 0.86443 0.73592 0.0
C2075 C 0.43102 0.8674 0.76032 0.0
C2076 C 0.42885 0.86643 0.77822 0.0
C2077 C 0.44647 0.86275 0.75359 0.0
C2078 C 0.44202 0.86008 0.78919 0.0
C2079 C 0.45737 0.85522 0.78253 0.0
H2080 H 0.04919 0.11814 0.26794 0.0
H2081 H 0.08838 0.13143 0.23331 0.0
H2082 H 0.06514 0.13276 0.20931 0.0
H2083 H 0.03395 0.12863 0.19806 0.0
H2084 H 0.99577 0.11396 0.23235 0.0
H2085 H 0.01795 0.11363 0.25654 0.0
C2086 C 0.05257 0.12185 0.25528 0.0
C2087 C 0.07029 0.12498 0.2523 0.0
C2088 C 0.03927 0.12157 0.24141 0.0
C2089 C 0.0747 0.12927 0.2358 0.0
C2090 C 0.06148 0.12972 0.22207 0.0
C2091 C 0.03051 0.12518 0.21079 0.0
C2092 C 0.01276 0.12151 0.21354 0.0
C2093 C 0.04378 0.12546 0.22465 0.0
C2094 C 0.0084 0.11678 0.22994 0.0
C2095 C 0.02159 0.11688 0.24383 0.0
H2096 H 0.52288 0.08008 0.89508 0.0
H2097 H 0.48379 0.1039 0.86393 0.0
H2098 H 0.49033 0.1315 0.88347 0.0
H2099 H 0.50949 0.14954 0.9069 0.0
H2100 H 0.55081 0.1269 0.9365 0.0
H2101 H 0.54088 0.09793 0.92037 0.0
C2102 C 0.51566 0.09129 0.89291 0.0
C2103 C 0.50292 0.09027 0.87835 0.0
C2104 C 0.51995 0.10722 0.9038 0.0
C2105 C 0.49364 0.10467 0.87522 0.0
C2106 C 0.49739 0.12036 0.88632 0.0
C2107 C 0.51619 0.13823 0.91003 0.0
C2108 C 0.53101 0.14037 0.92263 0.0
C2109 C 0.51087 0.12191 0.9003 0.0
C2110 C 0.53941 0.12558 0.92673 0.0
C2111 C 0.53382 0.10905 0.91745 0.0
H2112 H 0.14751 0.20492 0.03885 0.0
H2113 H 0.09417 0.20277 0.01392 0.0
H2114 H 0.08653 0.22169 0.03899 0.0
H2115 H 0.09563 0.24024 0.06638 0.0
H2116 H 0.14918 0.24374 0.09116 0.0
H2117 H 0.1563 0.22265 0.0673 0.0
C2118 C 0.13417 0.20848 0.03899 0.0
C2119 C 0.12145 0.20274 0.02455 0.0
C2120 C 0.13004 0.2196 0.05316 0.0
C2121 C 0.10414 0.20709 0.02493 0.0
C2122 C 0.09983 0.21799 0.03915 0.0
C2123 C 0.10892 0.23646 0.06667 0.0
C2124 C 0.12197 0.24361 0.08042 0.0
C2125 C 0.11281 0.22459 0.05307 0.0
C2126 C 0.13898 0.23835 0.0807 0.0
C2127 C 0.143 0.22637 0.0671 0.0
H2128 H 0.31501 0.75084 0.55007 0.0
H2129 H 0.34115 0.80303 0.56756 0.0
H2130 H 0.36975 0.79228 0.56522 0.0
H2131 H 0.38716 0.76861 0.55664 0.0
H2132 H 0.36133 0.71624 0.53954 0.0
H2133 H 0.33264 0.72675 0.54263 0.0
C2134 C 0.32697 0.75976 0.55381 0.0
C2135 C 0.32597 0.77771 0.55876 0.0
C2136 C 0.34336 0.75363 0.55195 0.0
C2137 C 0.34159 0.78913 0.56362 0.0
C2138 C 0.35793 0.78308 0.56204 0.0
C2139 C 0.37525 0.75952 0.55342 0.0
C2140 C 0.37635 0.74171 0.54791 0.0
C2141 C 0.35892 0.76548 0.55575 0.0
C2142 C 0.36082 0.73008 0.54369 0.0
C2143 C 0.34443 0.736 0.54571 0.0
H2144 H 0.75057 0.42565 0.8757 0.0
H2145 H 0.79625 0.43389 0.84747 0.0
H2146 H 0.78887 0.46342 0.84259 0.0
H2147 H 0.77029 0.48727 0.84761 0.0
H2148 H 0.72404 0.47864 0.87471 0.0
H2149 H 0.73143 0.44905 0.87986 0.0
C2150 C 0.75881 0.43384 0.8683 0.0
C2151 C 0.77408 0.42776 0.86221 0.0
C2152 C 0.75483 0.4509 0.86607 0.0
C2153 C 0.78443 0.4383 0.85231 0.0
C2154 C 0.7804 0.45528 0.84979 0.0
C2155 C 0.76218 0.47906 0.85511 0.0
C2156 C 0.74698 0.48508 0.86124 0.0
C2157 C 0.76595 0.46186 0.85707 0.0
C2158 C 0.73606 0.47425 0.87033 0.0
C2159 C 0.7401 0.4573 0.87295 0.0
H2160 H 0.9222 0.51973 0.14026 0.0
H2161 H 0.88556 0.55853 0.14696 0.0
H2162 H 0.87019 0.54824 0.11783 0.0
H2163 H 0.86679 0.52801 0.09099 0.0
H2164 H 0.90298 0.48886 0.08372 0.0
H2165 H 0.91927 0.49977 0.1125 0.0
C2166 C 0.91089 0.52591 0.13523 0.0
C2167 C 0.90495 0.53982 0.14558 0.0
C2168 C 0.90222 0.52003 0.11842 0.0
C2169 C 0.89039 0.54789 0.13906 0.0
C2170 C 0.88159 0.54199 0.12247 0.0
C2171 C 0.87836 0.52197 0.09558 0.0
C2172 C 0.88373 0.50771 0.08532 0.0
C2173 C 0.88738 0.52809 0.11209 0.0
C2174 C 0.89862 0.49987 0.09149 0.0
C2175 C 0.90789 0.50607 0.10791 0.0
H2176 H 0.78918 0.52813 0.34539 0.0
H2177 H 0.76173 0.56069 0.31168 0.0
H2178 H 0.7482 0.5737 0.33694 0.0
H2179 H 0.74106 0.57217 0.36728 0.0
H2180 H 0.76866 0.5397 0.40102 0.0
H2181 H 0.78587 0.53049 0.37705 0.0
C2182 C 0.78033 0.53819 0.34369 0.0
C2183 C 0.77584 0.54315 0.32685 0.0
C2184 C 0.77277 0.54551 0.35814 0.0
C2185 C 0.76498 0.55658 0.32462 0.0
C2186 C 0.7573 0.56395 0.33899 0.0
C2187 C 0.75102 0.56324 0.3694 0.0
C2188 C 0.75332 0.55609 0.38551 0.0
C2189 C 0.76058 0.55795 0.35561 0.0
C2190 C 0.76659 0.54507 0.38852 0.0
C2191 C 0.77631 0.53977 0.37484 0.0
H2192 H 0.73155 0.57793 0.61497 0.0
H2193 H 0.77481 0.54644 0.62253 0.0
H2194 H 0.75408 0.52076 0.6252 0.0
H2195 H 0.72373 0.50742 0.62503 0.0
H2196 H 0.68072 0.53936 0.61995 0.0
H2197 H 0.70127 0.5648 0.61561 0.0
C2198 C 0.7364 0.56546 0.61734 0.0
C2199 C 0.75452 0.56388 0.6184 0.0
C2200 C 0.72448 0.55085 0.61865 0.0
C2201 C 0.76084 0.54786 0.62177 0.0
C2202 C 0.74902 0.53317 0.62302 0.0
C2203 C 0.71892 0.51987 0.62245 0.0
C2204 C 0.70095 0.52171 0.62229 0.0
C2205 C 0.73084 0.53449 0.62117 0.0
C2206 C 0.69459 0.53783 0.61964 0.0
C2207 C 0.70631 0.55233 0.61749 0.0
loop_
_geom_bond_atom_site_label_1
_geom_bond_atom_site_label_2
_geom_bond_distance
_geom_bond_site_symmetry_2
_ccdc_geom_bond_type
Mg0 O1 2.028 1_455 S
Mg0 O7 1.986 . S
Mg0 O9 2.114 . S
Mg0 O10 2.251 . S
Mg0 O13 2.010 . S
O1 Mg0 2.028 1_655 S
O1 C4 1.250 . S
O2 Mg3 2.028 1_655 S
O2 C4 1.248 . S
Mg3 O2 2.028 1_455 S
Mg3 O8 2.032 . S
Mg3 O10 2.079 . S
C4 O1 1.250 . S
C4 O2 1.248 . S
C5 O6 1.261 . S
C5 O13 1.247 . S
O6 C5 1.261 . S
O7 Mg0 1.986 . S
O7 C11 1.246 . S
O8 Mg3 2.032 . S
O8 C11 1.259 . S
O9 Mg0 2.114 . S
O9 C12 1.252 . S
O10 Mg0 2.251 . S
O10 Mg3 2.079 . S
O10 C12 1.273 . S
C11 O7 1.246 . S
C11 O8 1.259 . S
C12 O9 1.252 . S
C12 O10 1.273 . S
O13 Mg0 2.010 . S
O13 C5 1.247 . S
Mg14 O15 2.028 . S
Mg14 O21 1.986 . S
Mg14 O23 2.114 . S
Mg14 O24 2.251 . S
Mg14 O27 2.010 . S
O15 Mg14 2.028 . S
O15 C18 1.250 . S
O16 Mg17 2.028 . S
O16 C18 1.248 . S
Mg17 O16 2.028 . S
Mg17 O22 2.032 . S
Mg17 O24 2.079 . S
C18 O15 1.250 . S
C18 O16 1.248 . S
C19 O20 1.264 . S
C19 O27 1.249 . S
O20 C19 1.264 . S
O21 Mg14 1.986 . S
O21 C25 1.246 . S
O22 Mg17 2.032 . S
O22 C25 1.259 . S
O23 Mg14 2.114 . S
O23 C26 1.252 . S
O24 Mg14 2.251 . S
O24 Mg17 2.079 . S
O24 C26 1.273 . S
C25 O21 1.246 . S
C25 O22 1.259 . S
C26 O23 1.252 . S
C26 O24 1.273 . S
O27 Mg14 2.010 . S
O27 C19 1.249 . S
Mg28 O29 2.028 . S
Mg28 O35 1.986 . S
Mg28 O37 2.114 . S
Mg28 O38 2.251 . S
Mg28 O41 2.010 . S
O29 Mg28 2.028 . S
O29 C32 1.250 . S
O30 Mg31 2.028 . S
O30 C32 1.248 . S
Mg31 O30 2.028 . S
Mg31 O36 2.032 . S
Mg31 O38 2.079 . S
C32 O29 1.250 . S
C32 O30 1.248 . S
C33 O34 1.264 . S
C33 O41 1.249 . S
O34 C33 1.264 . S
O35 Mg28 1.986 . S
O35 C39 1.246 . S
O36 Mg31 2.032 . S
O36 C39 1.259 . S
O37 Mg28 2.114 . S
O37 C40 1.252 . S
O38 Mg28 2.251 . S
O38 Mg31 2.079 . S
O38 C40 1.273 . S
C39 O35 1.246 . S
C39 O36 1.259 . S
C40 O37 1.252 . S
C40 O38 1.273 . S
O41 Mg28 2.010 . S
O41 C33 1.249 . S
Mg42 O43 2.028 . S
Mg42 O49 1.986 . S
Mg42 O51 2.114 . S
Mg42 O52 2.251 . S
Mg42 O55 2.010 . S
O43 Mg42 2.028 . S
O43 C46 1.250 . S
O44 Mg45 2.028 . S
O44 C46 1.248 . S
Mg45 O44 2.028 . S
Mg45 O50 2.032 . S
Mg45 O52 2.079 . S
C46 O43 1.250 . S
C46 O44 1.248 . S
C47 O48 1.244 1_556 S
C47 O55 1.256 . S
O48 C47 1.244 1_554 S
O49 Mg42 1.986 . S
O49 C53 1.246 . S
O50 Mg45 2.032 . S
O50 C53 1.259 . S
O51 Mg42 2.114 . S
O51 C54 1.252 . S
O52 Mg42 2.251 . S
O52 Mg45 2.079 . S
O52 C54 1.273 . S
C53 O49 1.246 . S
C53 O50 1.259 . S
C54 O51 1.252 . S
C54 O52 1.273 . S
O55 Mg42 2.010 . S
O55 C47 1.256 . S
Mg56 O57 2.028 . S
Mg56 O63 1.986 . S
Mg56 O65 2.114 . S
Mg56 O66 2.251 . S
Mg56 O69 2.010 . S
O57 Mg56 2.028 . S
O57 C60 1.250 . S
O58 Mg59 2.028 . S
O58 C60 1.248 . S
Mg59 O58 2.028 . S
Mg59 O64 2.032 . S
Mg59 O66 2.079 . S
C60 O57 1.250 . S
C60 O58 1.248 . S
C61 O62 1.264 . S
C61 O69 1.249 . S
O62 C61 1.264 . S
O63 Mg56 1.986 . S
O63 C67 1.246 . S
O64 Mg59 2.032 . S
O64 C67 1.259 . S
O65 Mg56 2.114 . S
O65 C68 1.252 . S
O66 Mg56 2.251 . S
O66 Mg59 2.079 . S
O66 C68 1.273 . S
C67 O63 1.246 . S
C67 O64 1.259 . S
C68 O65 1.252 . S
C68 O66 1.273 . S
O69 Mg56 2.010 . S
O69 C61 1.249 . S
Mg70 O71 2.028 . S
Mg70 O77 1.986 . S
Mg70 O79 2.114 . S
Mg70 O80 2.251 . S
Mg70 O83 2.010 . S
O71 Mg70 2.028 . S
O71 C74 1.250 . S
O72 Mg73 2.028 . S
O72 C74 1.248 . S
Mg73 O72 2.028 . S
Mg73 O78 2.032 . S
Mg73 O80 2.079 . S
C74 O71 1.250 . S
C74 O72 1.248 . S
C75 O76 1.264 . S
C75 O83 1.249 . S
O76 C75 1.264 . S
O77 Mg70 1.986 . S
O77 C81 1.246 . S
O78 Mg73 2.032 . S
O78 C81 1.259 . S
O79 Mg70 2.114 . S
O79 C82 1.252 . S
O80 Mg70 2.251 . S
O80 Mg73 2.079 . S
O80 C82 1.273 . S
C81 O77 1.246 . S
C81 O78 1.259 . S
C82 O79 1.252 . S
C82 O80 1.273 . S
O83 Mg70 2.010 . S
O83 C75 1.249 . S
Mg84 O85 2.028 . S
Mg84 O91 1.986 . S
Mg84 O93 2.114 . S
Mg84 O94 2.251 . S
Mg84 O97 2.010 . S
O85 Mg84 2.028 . S
O85 C88 1.250 . S
O86 Mg87 2.028 . S
O86 C88 1.248 . S
Mg87 O86 2.028 . S
Mg87 O92 2.032 . S
Mg87 O94 2.079 . S
C88 O85 1.250 . S
C88 O86 1.248 . S
C89 O90 1.264 . S
C89 O97 1.249 . S
O90 C89 1.264 . S
O91 Mg84 1.986 . S
O91 C95 1.246 . S
O92 Mg87 2.032 . S
O92 C95 1.259 . S
O93 Mg84 2.114 . S
O93 C96 1.252 . S
O94 Mg84 2.251 . S
O94 Mg87 2.079 . S
O94 C96 1.273 . S
C95 O91 1.246 . S
C95 O92 1.259 . S
C96 O93 1.252 . S
C96 O94 1.273 . S
O97 Mg84 2.010 . S
O97 C89 1.249 . S
Mg98 O99 2.028 . S
Mg98 O105 1.986 . S
Mg98 O107 2.114 . S
Mg98 O108 2.251 . S
Mg98 O111 2.010 . S
O99 Mg98 2.028 . S
O99 C102 1.250 . S
O100 Mg101 2.028 . S
O100 C102 1.248 . S
Mg101 O100 2.028 . S
Mg101 O106 2.032 . S
Mg101 O108 2.079 . S
C102 O99 1.250 . S
C102 O100 1.248 . S
C103 O104 1.264 . S
C103 O111 1.249 . S
O104 C103 1.264 . S
O105 Mg98 1.986 . S
O105 C109 1.246 . S
O106 Mg101 2.032 . S
O106 C109 1.259 . S
O107 Mg98 2.114 . S
O107 C110 1.252 . S
O108 Mg98 2.251 . S
O108 Mg101 2.079 . S
O108 C110 1.273 . S
C109 O105 1.246 . S
C109 O106 1.259 . S
C110 O107 1.252 . S
C110 O108 1.273 . S
O111 Mg98 2.010 . S
O111 C103 1.249 . S
Mg112 O113 2.028 1_545 S
Mg112 O119 1.986 . S
Mg112 O121 2.114 . S
Mg112 O122 2.251 . S
Mg112 O125 2.010 . S
O113 Mg112 2.028 1_565 S
O113 C116 1.250 . S
O114 Mg115 2.028 1_565 S
O114 C116 1.248 . S
Mg115 O114 2.028 1_545 S
Mg115 O120 2.032 . S
Mg115 O122 2.079 . S
C116 O113 1.250 . S
C116 O114 1.248 . S
C117 O118 1.267 1_565 S
C117 O125 1.253 1_565 S
O118 C117 1.267 1_545 S
O119 Mg112 1.986 . S
O119 C123 1.246 . S
O120 Mg115 2.032 . S
O120 C123 1.259 . S
O121 Mg112 2.114 . S
O121 C124 1.252 . S
O122 Mg112 2.251 . S
O122 Mg115 2.079 . S
O122 C124 1.273 . S
C123 O119 1.246 . S
C123 O120 1.259 . S
C124 O121 1.252 . S
C124 O122 1.273 . S
O125 Mg112 2.010 . S
O125 C117 1.253 1_545 S
Mg126 O127 2.028 . S
Mg126 O133 1.986 . S
Mg126 O135 2.114 . S
Mg126 O136 2.251 . S
Mg126 O139 2.010 . S
O127 Mg126 2.028 . S
O127 C130 1.250 . S
O128 Mg129 2.028 . S
O128 C130 1.248 . S
Mg129 O128 2.028 . S
Mg129 O134 2.032 . S
Mg129 O136 2.079 . S
C130 O127 1.250 . S
C130 O128 1.248 . S
C131 O132 1.243 1_565 S
C131 O139 1.257 . S
O132 C131 1.243 1_545 S
O133 Mg126 1.986 . S
O133 C137 1.246 . S
O134 Mg129 2.032 . S
O134 C137 1.259 . S
O135 Mg126 2.114 . S
O135 C138 1.252 . S
O136 Mg126 2.251 . S
O136 Mg129 2.079 . S
O136 C138 1.273 . S
C137 O133 1.246 . S
C137 O134 1.259 . S
C138 O135 1.252 . S
C138 O136 1.273 . S
O139 Mg126 2.010 . S
O139 C131 1.257 . S
Mg140 O141 2.028 . S
Mg140 O147 1.986 . S
Mg140 O149 2.114 . S
Mg140 O150 2.251 . S
Mg140 O153 2.010 . S
O141 Mg140 2.028 . S
O141 C144 1.250 . S
O142 Mg143 2.028 . S
O142 C144 1.248 . S
Mg143 O142 2.028 . S
Mg143 O148 2.032 . S
Mg143 O150 2.079 . S
C144 O141 1.250 . S
C144 O142 1.248 . S
C145 O146 1.264 . S
C145 O153 1.249 . S
O146 C145 1.264 . S
O147 Mg140 1.986 . S
O147 C151 1.246 . S
O148 Mg143 2.032 . S
O148 C151 1.259 . S
O149 Mg140 2.114 . S
O149 C152 1.235 1_545 S
O150 Mg140 2.251 . S
O150 Mg143 2.079 . S
O150 C152 1.247 1_545 S
C151 O147 1.246 . S
C151 O148 1.259 . S
C152 O149 1.235 1_565 S
C152 O150 1.247 1_565 S
O153 Mg140 2.010 . S
O153 C145 1.249 . S
Mg154 O155 2.028 . S
Mg154 O161 1.986 . S
Mg154 O163 2.114 . S
Mg154 O164 2.251 . S
Mg154 O167 2.010 . S
O155 Mg154 2.028 . S
O155 C158 1.250 . S
O156 Mg157 2.028 . S
O156 C158 1.248 . S
Mg157 O156 2.028 . S
Mg157 O162 2.032 . S
Mg157 O164 2.079 . S
C158 O155 1.250 . S
C158 O156 1.248 . S
C159 O160 1.264 . S
C159 O167 1.249 . S
O160 C159 1.264 . S
O161 Mg154 1.986 . S
O161 C165 1.246 . S
O162 Mg157 2.032 . S
O162 C165 1.259 . S
O163 Mg154 2.114 . S
O163 C166 1.252 . S
O164 Mg154 2.251 . S
O164 Mg157 2.079 . S
O164 C166 1.273 . S
C165 O161 1.246 . S
C165 O162 1.259 . S
C166 O163 1.252 . S
C166 O164 1.273 . S
O167 Mg154 2.010 . S
O167 C159 1.249 . S
Mg168 O169 2.028 1_565 S
Mg168 O175 1.986 . S
Mg168 O177 2.114 . S
Mg168 O178 2.251 . S
Mg168 O181 2.010 1_565 S
O169 Mg168 2.028 1_545 S
O169 C172 1.250 . S
O170 Mg171 2.028 1_545 S
O170 C172 1.248 . S
Mg171 O170 2.028 1_565 S
Mg171 O176 2.032 . S
Mg171 O178 2.079 . S
C172 O169 1.250 . S
C172 O170 1.248 . S
C173 O174 1.261 . S
C173 O181 1.249 . S
O174 C173 1.261 . S
O175 Mg168 1.986 . S
O175 C179 1.246 . S
O176 Mg171 2.032 . S
O176 C179 1.259 . S
O177 Mg168 2.114 . S
O177 C180 1.252 . S
O178 Mg168 2.251 . S
O178 Mg171 2.079 . S
O178 C180 1.273 . S
C179 O175 1.246 . S
C179 O176 1.259 . S
C180 O177 1.252 . S
C180 O178 1.273 . S
O181 Mg168 2.010 1_545 S
O181 C173 1.249 . S
Mg182 O183 2.028 . S
Mg182 O189 1.986 . S
Mg182 O191 2.114 . S
Mg182 O192 2.251 . S
Mg182 O195 2.010 . S
O183 Mg182 2.028 . S
O183 C186 1.250 . S
O184 Mg185 2.028 . S
O184 C186 1.248 . S
Mg185 O184 2.028 . S
Mg185 O190 2.032 . S
Mg185 O192 2.079 . S
C186 O183 1.250 . S
C186 O184 1.248 . S
C187 O188 1.264 . S
C187 O195 1.249 . S
O188 C187 1.264 . S
O189 Mg182 1.986 . S
O189 C193 1.246 . S
O190 Mg185 2.032 . S
O190 C193 1.259 . S
O191 Mg182 2.114 . S
O191 C194 1.252 . S
O192 Mg182 2.251 . S
O192 Mg185 2.079 . S
O192 C194 1.273 . S
C193 O189 1.246 . S
C193 O190 1.259 . S
C194 O191 1.252 . S
C194 O192 1.273 . S
O195 Mg182 2.010 . S
O195 C187 1.249 . S
Mg196 O197 2.028 . S
Mg196 O203 1.986 . S
Mg196 O205 2.114 . S
Mg196 O206 2.251 . S
Mg196 O209 2.010 . S
O197 Mg196 2.028 . S
O197 C200 1.250 . S
O198 Mg199 2.028 . S
O198 C200 1.248 . S
Mg199 O198 2.028 . S
Mg199 O204 2.032 . S
Mg199 O206 2.079 . S
C200 O197 1.250 . S
C200 O198 1.248 . S
C201 O202 1.264 . S
C201 O209 1.249 . S
O202 C201 1.264 . S
O203 Mg196 1.986 . S
O203 C207 1.246 . S
O204 Mg199 2.032 . S
O204 C207 1.259 . S
O205 Mg196 2.114 . S
O205 C208 1.252 . S
O206 Mg196 2.251 . S
O206 Mg199 2.079 . S
O206 C208 1.273 . S
C207 O203 1.246 . S
C207 O204 1.259 . S
C208 O205 1.252 . S
C208 O206 1.273 . S
O209 Mg196 2.010 . S
O209 C201 1.249 . S
Mg210 O211 2.028 . S
Mg210 O217 1.986 . S
Mg210 O219 2.114 . S
Mg210 O220 2.251 . S
Mg210 O223 2.010 . S
O211 Mg210 2.028 . S
O211 C214 1.250 . S
O212 Mg213 2.028 . S
O212 C214 1.248 . S
Mg213 O212 2.028 . S
Mg213 O218 2.032 . S
Mg213 O220 2.079 . S
C214 O211 1.250 . S
C214 O212 1.248 . S
C215 O216 1.264 . S
C215 O223 1.249 . S
O216 C215 1.264 . S
O217 Mg210 1.986 . S
O217 C221 1.246 . S
O218 Mg213 2.032 . S
O218 C221 1.259 . S
O219 Mg210 2.114 . S
O219 C222 1.252 . S
O220 Mg210 2.251 . S
O220 Mg213 2.079 . S
O220 C222 1.273 . S
C221 O217 1.246 . S
C221 O218 1.259 . S
C222 O219 1.252 . S
C222 O220 1.273 . S
O223 Mg210 2.010 . S
O223 C215 1.249 . S
Mg224 O225 2.028 1_554 S
Mg224 O231 1.986 . S
Mg224 O233 2.114 . S
Mg224 O234 2.251 . S
Mg224 O237 2.010 . S
O225 Mg224 2.028 1_556 S
O225 C228 1.250 . S
O226 Mg227 2.028 1_556 S
O226 C228 1.248 . S
Mg227 O226 2.028 1_554 S
Mg227 O232 2.032 . S
Mg227 O234 2.079 . S
C228 O225 1.250 . S
C228 O226 1.248 . S
C229 O230 1.262 . S
C229 O237 1.247 . S
O230 C229 1.262 . S
O231 Mg224 1.986 . S
O231 C235 1.246 . S
O232 Mg227 2.032 . S
O232 C235 1.259 . S
O233 Mg224 2.114 . S
O233 C236 1.252 . S
O234 Mg224 2.251 . S
O234 Mg227 2.079 . S
O234 C236 1.273 . S
C235 O231 1.246 . S
C235 O232 1.259 . S
C236 O233 1.252 . S
C236 O234 1.273 . S
O237 Mg224 2.010 . S
O237 C229 1.247 . S
Mg238 O239 2.028 . S
Mg238 O245 1.986 . S
Mg238 O247 2.114 . S
Mg238 O248 2.251 . S
Mg238 O251 2.010 . S
O239 Mg238 2.028 . S
O239 C242 1.250 . S
O240 Mg241 2.028 . S
O240 C242 1.248 . S
Mg241 O240 2.028 . S
Mg241 O246 2.032 . S
Mg241 O248 2.079 . S
C242 O239 1.250 . S
C242 O240 1.248 . S
C243 O244 1.264 . S
C243 O251 1.249 . S
O244 C243 1.264 . S
O245 Mg238 1.986 . S
O245 C249 1.246 . S
O246 Mg241 2.032 . S
O246 C249 1.259 . S
O247 Mg238 2.114 . S
O247 C250 1.235 1_554 S
O248 Mg238 2.251 . S
O248 Mg241 2.079 . S
O248 C250 1.247 1_554 S
C249 O245 1.246 . S
C249 O246 1.259 . S
C250 O247 1.235 1_556 S
C250 O248 1.247 1_556 S
O251 Mg238 2.010 . S
O251 C243 1.249 . S
Mg252 O253 2.028 . S
Mg252 O259 1.986 . S
Mg252 O261 2.114 . S
Mg252 O262 2.251 . S
Mg252 O265 2.010 . S
O253 Mg252 2.028 . S
O253 C256 1.250 . S
O254 Mg255 2.028 . S
O254 C256 1.248 . S
Mg255 O254 2.028 . S
Mg255 O260 2.032 . S
Mg255 O262 2.079 . S
C256 O253 1.250 . S
C256 O254 1.248 . S
C257 O258 1.245 1_655 S
C257 O265 1.256 . S
O258 C257 1.245 1_455 S
O259 Mg252 1.986 . S
O259 C263 1.246 . S
O260 Mg255 2.032 . S
O260 C263 1.259 . S
O261 Mg252 2.114 . S
O261 C264 1.252 . S
O262 Mg252 2.251 . S
O262 Mg255 2.079 . S
O262 C264 1.273 . S
C263 O259 1.246 . S
C263 O260 1.259 . S
C264 O261 1.252 . S
C264 O262 1.273 . S
O265 Mg252 2.010 . S
O265 C257 1.256 . S
Mg266 O267 2.028 . S
Mg266 O273 1.986 . S
Mg266 O275 2.114 . S
Mg266 O276 2.251 . S
Mg266 O279 2.010 . S
O267 Mg266 2.028 . S
O267 C270 1.250 . S
O268 Mg269 2.028 . S
O268 C270 1.248 . S
Mg269 O268 2.028 . S
Mg269 O274 2.032 . S
Mg269 O276 2.079 . S
C270 O267 1.250 . S
C270 O268 1.248 . S
C271 O272 1.264 . S
C271 O279 1.249 . S
O272 C271 1.264 . S
O273 Mg266 1.986 . S
O273 C277 1.246 . S
O274 Mg269 2.032 . S
O274 C277 1.259 . S
O275 Mg266 2.114 . S
O275 C278 1.252 . S
O276 Mg266 2.251 . S
O276 Mg269 2.079 . S
O276 C278 1.273 . S
C277 O273 1.246 . S
C277 O274 1.259 . S
C278 O275 1.252 . S
C278 O276 1.273 . S
O279 Mg266 2.010 . S
O279 C271 1.249 . S
Mg280 O281 2.028 . S
Mg280 O287 1.986 . S
Mg280 O289 2.114 . S
Mg280 O290 2.251 . S
Mg280 O293 2.010 . S
O281 Mg280 2.028 . S
O281 C284 1.250 . S
O282 Mg283 2.028 . S
O282 C284 1.248 . S
Mg283 O282 2.028 . S
Mg283 O288 2.032 . S
Mg283 O290 2.079 . S
C284 O281 1.250 . S
C284 O282 1.248 . S
C285 O286 1.264 . S
C285 O293 1.249 . S
O286 C285 1.264 . S
O287 Mg280 1.986 . S
O287 C291 1.246 . S
O288 Mg283 2.032 . S
O288 C291 1.259 . S
O289 Mg280 2.114 . S
O289 C292 1.252 . S
O290 Mg280 2.251 . S
O290 Mg283 2.079 . S
O290 C292 1.273 . S
C291 O287 1.246 . S
C291 O288 1.259 . S
C292 O289 1.252 . S
C292 O290 1.273 . S
O293 Mg280 2.010 . S
O293 C285 1.249 . S
Mg294 O295 2.028 . S
Mg294 O301 1.986 . S
Mg294 O303 2.114 . S
Mg294 O304 2.251 . S
Mg294 O307 2.010 . S
O295 Mg294 2.028 . S
O295 C298 1.250 . S
O296 Mg297 2.028 . S
O296 C298 1.248 . S
Mg297 O296 2.028 . S
Mg297 O302 2.032 . S
Mg297 O304 2.079 . S
C298 O295 1.250 . S
C298 O296 1.248 . S
C299 O300 1.264 . S
C299 O307 1.249 . S
O300 C299 1.264 . S
O301 Mg294 1.986 . S
O301 C305 1.246 . S
O302 Mg297 2.032 . S
O302 C305 1.259 . S
O303 Mg294 2.114 . S
O303 C306 1.252 . S
O304 Mg294 2.251 . S
O304 Mg297 2.079 . S
O304 C306 1.273 . S
C305 O301 1.246 . S
C305 O302 1.259 . S
C306 O303 1.252 . S
C306 O304 1.273 . S
O307 Mg294 2.010 . S
O307 C299 1.249 . S
Mg308 O309 2.028 . S
Mg308 O315 1.986 . S
Mg308 O317 2.114 . S
Mg308 O318 2.251 . S
Mg308 O321 2.010 . S
O309 Mg308 2.028 . S
O309 C312 1.250 . S
O310 Mg311 2.028 . S
O310 C312 1.248 . S
Mg311 O310 2.028 . S
Mg311 O316 2.032 . S
Mg311 O318 2.079 . S
C312 O309 1.250 . S
C312 O310 1.248 . S
C313 O314 1.264 . S
C313 O321 1.249 . S
O314 C313 1.264 . S
O315 Mg308 1.986 . S
O315 C319 1.246 . S
O316 Mg311 2.032 . S
O316 C319 1.259 . S
O317 Mg308 2.114 . S
O317 C320 1.252 . S
O318 Mg308 2.251 . S
O318 Mg311 2.079 . S
O318 C320 1.273 . S
C319 O315 1.246 . S
C319 O316 1.259 . S
C320 O317 1.252 . S
C320 O318 1.273 . S
O321 Mg308 2.010 . S
O321 C313 1.249 . S
Mg322 O323 2.028 . S
Mg322 O329 1.986 . S
Mg322 O331 2.114 . S
Mg322 O332 2.251 . S
Mg322 O335 2.010 . S
O323 Mg322 2.028 . S
O323 C326 1.250 . S
O324 Mg325 2.028 . S
O324 C326 1.248 . S
Mg325 O324 2.028 . S
Mg325 O330 2.032 . S
Mg325 O332 2.079 . S
C326 O323 1.250 . S
C326 O324 1.248 . S
C327 O328 1.264 . S
C327 O335 1.249 . S
O328 C327 1.264 . S
O329 Mg322 1.986 . S
O329 C333 1.246 . S
O330 Mg325 2.032 . S
O330 C333 1.259 . S
O331 Mg322 2.114 . S
O331 C334 1.252 . S
O332 Mg322 2.251 . S
O332 Mg325 2.079 . S
O332 C334 1.273 . S
C333 O329 1.246 . S
C333 O330 1.259 . S
C334 O331 1.252 . S
C334 O332 1.273 . S
O335 Mg322 2.010 . S
O335 C327 1.249 . S
Mg336 O337 2.028 . S
Mg336 O343 1.986 . S
Mg336 O345 2.114 . S
Mg336 O346 2.251 . S
Mg336 O349 2.010 . S
O337 Mg336 2.028 . S
O337 C340 1.250 . S
O338 Mg339 2.028 . S
O338 C340 1.248 . S
Mg339 O338 2.028 . S
Mg339 O344 2.032 . S
Mg339 O346 2.079 . S
C340 O337 1.250 . S
C340 O338 1.248 . S
C341 O342 1.264 . S
C341 O349 1.249 . S
O342 C341 1.264 . S
O343 Mg336 1.986 . S
O343 C347 1.246 . S
O344 Mg339 2.032 . S
O344 C347 1.259 . S
O345 Mg336 2.114 . S
O345 C348 1.252 . S
O346 Mg336 2.251 . S
O346 Mg339 2.079 . S
O346 C348 1.273 . S
C347 O343 1.246 . S
C347 O344 1.259 . S
C348 O345 1.252 . S
C348 O346 1.273 . S
O349 Mg336 2.010 . S
O349 C341 1.249 . S
Mg350 O351 2.028 . S
Mg350 O357 1.986 . S
Mg350 O359 2.114 . S
Mg350 O360 2.251 . S
Mg350 O363 2.010 . S
O351 Mg350 2.028 . S
O351 C354 1.250 . S
O352 Mg353 2.028 . S
O352 C354 1.248 . S
Mg353 O352 2.028 . S
Mg353 O358 2.032 . S
Mg353 O360 2.079 . S
C354 O351 1.250 . S
C354 O352 1.248 . S
C355 O356 1.264 . S
C355 O363 1.249 . S
O356 C355 1.264 . S
O357 Mg350 1.986 . S
O357 C361 1.246 . S
O358 Mg353 2.032 . S
O358 C361 1.259 . S
O359 Mg350 2.114 . S
O359 C362 1.252 . S
O360 Mg350 2.251 . S
O360 Mg353 2.079 . S
O360 C362 1.273 . S
C361 O357 1.246 . S
C361 O358 1.259 . S
C362 O359 1.252 . S
C362 O360 1.273 . S
O363 Mg350 2.010 . S
O363 C355 1.249 . S
Mg364 O365 2.028 1_655 S
Mg364 O371 1.986 . S
Mg364 O373 2.114 . S
Mg364 O374 2.251 . S
Mg364 O377 2.010 1_655 S
O365 Mg364 2.028 1_455 S
O365 C368 1.250 . S
O366 Mg367 2.028 1_455 S
O366 C368 1.248 . S
Mg367 O366 2.028 1_655 S
Mg367 O372 2.032 . S
Mg367 O374 2.079 . S
C368 O365 1.250 . S
C368 O366 1.248 . S
C369 O370 1.262 . S
C369 O377 1.249 . S
O370 C369 1.262 . S
O371 Mg364 1.986 . S
O371 C375 1.246 . S
O372 Mg367 2.032 . S
O372 C375 1.259 . S
O373 Mg364 2.114 . S
O373 C376 1.252 . S
O374 Mg364 2.251 . S
O374 Mg367 2.079 . S
O374 C376 1.273 . S
C375 O371 1.246 . S
C375 O372 1.259 . S
C376 O373 1.252 . S
C376 O374 1.273 . S
O377 Mg364 2.010 1_455 S
O377 C369 1.249 . S
Mg378 O379 2.028 . S
Mg378 O385 1.986 . S
Mg378 O387 2.114 . S
Mg378 O388 2.251 . S
Mg378 O391 2.010 . S
O379 Mg378 2.028 . S
O379 C382 1.250 . S
O380 Mg381 2.028 . S
O380 C382 1.248 . S
Mg381 O380 2.028 . S
Mg381 O386 2.032 . S
Mg381 O388 2.079 . S
C382 O379 1.250 . S
C382 O380 1.248 . S
C383 O384 1.264 . S
C383 O391 1.249 . S
O384 C383 1.264 . S
O385 Mg378 1.986 . S
O385 C389 1.246 . S
O386 Mg381 2.032 . S
O386 C389 1.259 . S
O387 Mg378 2.114 . S
O387 C390 1.252 . S
O388 Mg378 2.251 . S
O388 Mg381 2.079 . S
O388 C390 1.273 . S
C389 O385 1.246 . S
C389 O386 1.259 . S
C390 O387 1.252 . S
C390 O388 1.273 . S
O391 Mg378 2.010 . S
O391 C383 1.249 . S
Mg392 O393 2.028 . S
Mg392 O399 1.986 . S
Mg392 O401 2.114 . S
Mg392 O402 2.251 . S
Mg392 O405 2.010 . S
O393 Mg392 2.028 . S
O393 C396 1.250 . S
O394 Mg395 2.028 . S
O394 C396 1.248 . S
Mg395 O394 2.028 . S
Mg395 O400 2.032 . S
Mg395 O402 2.079 . S
C396 O393 1.250 . S
C396 O394 1.248 . S
C397 O398 1.264 . S
C397 O405 1.249 . S
O398 C397 1.264 . S
O399 Mg392 1.986 . S
O399 C403 1.246 . S
O400 Mg395 2.032 . S
O400 C403 1.259 . S
O401 Mg392 2.114 . S
O401 C404 1.252 . S
O402 Mg392 2.251 . S
O402 Mg395 2.079 . S
O402 C404 1.273 . S
C403 O399 1.246 . S
C403 O400 1.259 . S
C404 O401 1.252 . S
C404 O402 1.273 . S
O405 Mg392 2.010 . S
O405 C397 1.249 . S
Mg406 O407 2.028 . S
Mg406 O413 1.986 . S
Mg406 O415 2.114 . S
Mg406 O416 2.251 . S
Mg406 O419 2.010 . S
O407 Mg406 2.028 . S
O407 C410 1.250 . S
O408 Mg409 2.028 . S
O408 C410 1.248 . S
Mg409 O408 2.028 . S
Mg409 O414 2.032 . S
Mg409 O416 2.079 . S
C410 O407 1.250 . S
C410 O408 1.248 . S
C411 O412 1.264 . S
C411 O419 1.249 . S
O412 C411 1.264 . S
O413 Mg406 1.986 . S
O413 C417 1.246 . S
O414 Mg409 2.032 . S
O414 C417 1.259 . S
O415 Mg406 2.114 . S
O415 C418 1.252 . S
O416 Mg406 2.251 . S
O416 Mg409 2.079 . S
O416 C418 1.273 . S
C417 O413 1.246 . S
C417 O414 1.259 . S
C418 O415 1.252 . S
C418 O416 1.273 . S
O419 Mg406 2.010 . S
O419 C411 1.249 . S
Mg420 O421 2.028 . S
Mg420 O427 1.986 . S
Mg420 O429 2.114 . S
Mg420 O430 2.251 . S
Mg420 O433 2.010 . S
O421 Mg420 2.028 . S
O421 C424 1.250 . S
O422 Mg423 2.028 . S
O422 C424 1.248 . S
Mg423 O422 2.028 . S
Mg423 O428 2.032 . S
Mg423 O430 2.079 . S
C424 O421 1.250 . S
C424 O422 1.248 . S
C425 O426 1.264 . S
C425 O433 1.249 . S
O426 C425 1.264 . S
O427 Mg420 1.986 . S
O427 C431 1.246 . S
O428 Mg423 2.032 . S
O428 C431 1.259 . S
O429 Mg420 2.114 . S
O429 C432 1.235 1_455 S
O430 Mg420 2.251 . S
O430 Mg423 2.079 . S
O430 C432 1.247 1_455 S
C431 O427 1.246 . S
C431 O428 1.259 . S
C432 O429 1.235 1_655 S
C432 O430 1.247 1_655 S
O433 Mg420 2.010 . S
O433 C425 1.249 . S
Mg434 O435 2.028 . S
Mg434 O441 1.986 . S
Mg434 O443 2.114 . S
Mg434 O444 2.251 . S
Mg434 O447 2.010 . S
O435 Mg434 2.028 . S
O435 C438 1.250 . S
O436 Mg437 2.028 . S
O436 C438 1.248 . S
Mg437 O436 2.028 . S
Mg437 O442 2.032 . S
Mg437 O444 2.079 . S
C438 O435 1.250 . S
C438 O436 1.248 . S
C439 O440 1.264 . S
C439 O447 1.249 . S
O440 C439 1.264 . S
O441 Mg434 1.986 . S
O441 C445 1.246 . S
O442 Mg437 2.032 . S
O442 C445 1.259 . S
O443 Mg434 2.114 . S
O443 C446 1.252 . S
O444 Mg434 2.251 . S
O444 Mg437 2.079 . S
O444 C446 1.273 . S
C445 O441 1.246 . S
C445 O442 1.259 . S
C446 O443 1.252 . S
C446 O444 1.273 . S
O447 Mg434 2.010 . S
O447 C439 1.249 . S
Mg448 O449 2.028 . S
Mg448 O455 1.986 . S
Mg448 O457 2.114 . S
Mg448 O458 2.251 . S
Mg448 O461 2.010 . S
O449 Mg448 2.028 . S
O449 C452 1.250 . S
O450 Mg451 2.028 . S
O450 C452 1.248 . S
Mg451 O450 2.028 . S
Mg451 O456 2.032 . S
Mg451 O458 2.079 . S
C452 O449 1.250 . S
C452 O450 1.248 . S
C453 O454 1.264 . S
C453 O461 1.249 . S
O454 C453 1.264 . S
O455 Mg448 1.986 . S
O455 C459 1.246 . S
O456 Mg451 2.032 . S
O456 C459 1.259 . S
O457 Mg448 2.114 . S
O457 C460 1.252 . S
O458 Mg448 2.251 . S
O458 Mg451 2.079 . S
O458 C460 1.273 . S
C459 O455 1.246 . S
C459 O456 1.259 . S
C460 O457 1.252 . S
C460 O458 1.273 . S
O461 Mg448 2.010 . S
O461 C453 1.249 . S
Mg462 O463 2.028 . S
Mg462 O469 1.986 . S
Mg462 O471 2.114 . S
Mg462 O472 2.251 . S
Mg462 O475 2.010 . S
O463 Mg462 2.028 . S
O463 C466 1.250 . S
O464 Mg465 2.028 . S
O464 C466 1.248 . S
Mg465 O464 2.028 . S
Mg465 O470 2.032 . S
Mg465 O472 2.079 . S
C466 O463 1.250 . S
C466 O464 1.248 . S
C467 O468 1.264 . S
C467 O475 1.249 . S
O468 C467 1.264 . S
O469 Mg462 1.986 . S
O469 C473 1.246 . S
O470 Mg465 2.032 . S
O470 C473 1.259 . S
O471 Mg462 2.114 . S
O471 C474 1.252 . S
O472 Mg462 2.251 . S
O472 Mg465 2.079 . S
O472 C474 1.273 . S
C473 O469 1.246 . S
C473 O470 1.259 . S
C474 O471 1.252 . S
C474 O472 1.273 . S
O475 Mg462 2.010 . S
O475 C467 1.249 . S
Mg476 O477 2.028 . S
Mg476 O483 1.986 . S
Mg476 O485 2.114 . S
Mg476 O486 2.251 . S
Mg476 O489 2.010 . S
O477 Mg476 2.028 . S
O477 C480 1.250 . S
O478 Mg479 2.028 . S
O478 C480 1.248 . S
Mg479 O478 2.028 . S
Mg479 O484 2.032 . S
Mg479 O486 2.079 . S
C480 O477 1.250 . S
C480 O478 1.248 . S
C481 O482 1.264 . S
C481 O489 1.249 . S
O482 C481 1.264 . S
O483 Mg476 1.986 . S
O483 C487 1.246 . S
O484 Mg479 2.032 . S
O484 C487 1.259 . S
O485 Mg476 2.114 . S
O485 C488 1.252 . S
O486 Mg476 2.251 . S
O486 Mg479 2.079 . S
O486 C488 1.273 . S
C487 O483 1.246 . S
C487 O484 1.259 . S
C488 O485 1.252 . S
C488 O486 1.273 . S
O489 Mg476 2.010 . S
O489 C481 1.249 . S
Mg490 O491 2.028 . S
Mg490 O497 1.986 . S
Mg490 O499 2.114 . S
Mg490 O500 2.251 . S
Mg490 O503 2.010 . S
O491 Mg490 2.028 . S
O491 C494 1.250 . S
O492 Mg493 2.028 . S
O492 C494 1.248 . S
Mg493 O492 2.028 . S
Mg493 O498 2.032 . S
Mg493 O500 2.079 . S
C494 O491 1.250 . S
C494 O492 1.248 . S
C495 O496 1.264 . S
C495 O503 1.249 . S
O496 C495 1.264 . S
O497 Mg490 1.986 . S
O497 C501 1.246 . S
O498 Mg493 2.032 . S
O498 C501 1.259 . S
O499 Mg490 2.114 . S
O499 C502 1.252 . S
O500 Mg490 2.251 . S
O500 Mg493 2.079 . S
O500 C502 1.273 . S
C501 O497 1.246 . S
C501 O498 1.259 . S
C502 O499 1.252 . S
C502 O500 1.273 . S
O503 Mg490 2.010 . S
O503 C495 1.249 . S
Mg504 O505 2.028 . S
Mg504 O511 1.986 . S
Mg504 O513 2.114 . S
Mg504 O514 2.251 . S
Mg504 O517 2.010 . S
O505 Mg504 2.028 . S
O505 C508 1.250 . S
O506 Mg507 2.028 . S
O506 C508 1.248 . S
Mg507 O506 2.028 . S
Mg507 O512 2.032 . S
Mg507 O514 2.079 . S
C508 O505 1.250 . S
C508 O506 1.248 . S
C509 O510 1.264 . S
C509 O517 1.249 . S
O510 C509 1.264 . S
O511 Mg504 1.986 . S
O511 C515 1.246 . S
O512 Mg507 2.032 . S
O512 C515 1.259 . S
O513 Mg504 2.114 . S
O513 C516 1.252 . S
O514 Mg504 2.251 . S
O514 Mg507 2.079 . S
O514 C516 1.273 . S
C515 O511 1.246 . S
C515 O512 1.259 . S
C516 O513 1.252 . S
C516 O514 1.273 . S
O517 Mg504 2.010 . S
O517 C509 1.249 . S
Mg518 O519 2.028 . S
Mg518 O525 1.986 . S
Mg518 O527 2.114 . S
Mg518 O528 2.251 . S
Mg518 O531 2.010 . S
O519 Mg518 2.028 . S
O519 C522 1.250 . S
O520 Mg521 2.028 . S
O520 C522 1.248 . S
Mg521 O520 2.028 . S
Mg521 O526 2.032 . S
Mg521 O528 2.079 . S
C522 O519 1.250 . S
C522 O520 1.248 . S
C523 O524 1.264 . S
C523 O531 1.249 . S
O524 C523 1.264 . S
O525 Mg518 1.986 . S
O525 C529 1.246 . S
O526 Mg521 2.032 . S
O526 C529 1.259 . S
O527 Mg518 2.114 . S
O527 C530 1.252 . S
O528 Mg518 2.251 . S
O528 Mg521 2.079 . S
O528 C530 1.273 . S
C529 O525 1.246 . S
C529 O526 1.259 . S
C530 O527 1.252 . S
C530 O528 1.273 . S
O531 Mg518 2.010 . S
O531 C523 1.249 . S
Mg532 O533 2.028 . S
Mg532 O539 1.986 . S
Mg532 O541 2.114 . S
Mg532 O542 2.251 . S
Mg532 O545 2.010 . S
O533 Mg532 2.028 . S
O533 C536 1.250 . S
O534 Mg535 2.028 . S
O534 C536 1.248 . S
Mg535 O534 2.028 . S
Mg535 O540 2.032 . S
Mg535 O542 2.079 . S
C536 O533 1.250 . S
C536 O534 1.248 . S
C537 O538 1.264 . S
C537 O545 1.249 . S
O538 C537 1.264 . S
O539 Mg532 1.986 . S
O539 C543 1.246 . S
O540 Mg535 2.032 . S
O540 C543 1.259 . S
O541 Mg532 2.114 . S
O541 C544 1.252 . S
O542 Mg532 2.251 . S
O542 Mg535 2.079 . S
O542 C544 1.273 . S
C543 O539 1.246 . S
C543 O540 1.259 . S
C544 O541 1.252 . S
C544 O542 1.273 . S
O545 Mg532 2.010 . S
O545 C537 1.249 . S
Mg546 O547 2.028 . S
Mg546 O553 1.986 . S
Mg546 O555 2.114 . S
Mg546 O556 2.251 . S
Mg546 O559 2.010 . S
O547 Mg546 2.028 . S
O547 C550 1.250 . S
O548 Mg549 2.028 . S
O548 C550 1.248 . S
Mg549 O548 2.028 . S
Mg549 O554 2.032 . S
Mg549 O556 2.079 . S
C550 O547 1.250 . S
C550 O548 1.248 . S
C551 O552 1.264 . S
C551 O559 1.249 . S
O552 C551 1.264 . S
O553 Mg546 1.986 . S
O553 C557 1.246 . S
O554 Mg549 2.032 . S
O554 C557 1.259 . S
O555 Mg546 2.114 . S
O555 C558 1.252 . S
O556 Mg546 2.251 . S
O556 Mg549 2.079 . S
O556 C558 1.273 . S
C557 O553 1.246 . S
C557 O554 1.259 . S
C558 O555 1.252 . S
C558 O556 1.273 . S
O559 Mg546 2.010 . S
O559 C551 1.249 . S
Mg560 O561 2.028 . S
Mg560 O567 1.986 . S
Mg560 O569 2.114 . S
Mg560 O570 2.251 . S
Mg560 O573 2.010 . S
O561 Mg560 2.028 . S
O561 C564 1.250 . S
O562 Mg563 2.028 . S
O562 C564 1.248 . S
Mg563 O562 2.028 . S
Mg563 O568 2.032 . S
Mg563 O570 2.079 . S
C564 O561 1.250 . S
C564 O562 1.248 . S
C565 O566 1.264 . S
C565 O573 1.249 . S
O566 C565 1.264 . S
O567 Mg560 1.986 . S
O567 C571 1.246 . S
O568 Mg563 2.032 . S
O568 C571 1.259 . S
O569 Mg560 2.114 . S
O569 C572 1.252 . S
O570 Mg560 2.251 . S
O570 Mg563 2.079 . S
O570 C572 1.273 . S
C571 O567 1.246 . S
C571 O568 1.259 . S
C572 O569 1.252 . S
C572 O570 1.273 . S
O573 Mg560 2.010 . S
O573 C565 1.249 . S
Mg574 O575 2.028 . S
Mg574 O581 1.986 . S
Mg574 O583 2.114 . S
Mg574 O584 2.251 . S
Mg574 O587 2.010 . S
O575 Mg574 2.028 . S
O575 C578 1.250 . S
O576 Mg577 2.028 . S
O576 C578 1.248 . S
Mg577 O576 2.028 . S
Mg577 O582 2.032 . S
Mg577 O584 2.079 . S
C578 O575 1.250 . S
C578 O576 1.248 . S
C579 O580 1.264 . S
C579 O587 1.249 . S
O580 C579 1.264 . S
O581 Mg574 1.986 . S
O581 C585 1.246 . S
O582 Mg577 2.032 . S
O582 C585 1.259 . S
O583 Mg574 2.114 . S
O583 C586 1.252 . S
O584 Mg574 2.251 . S
O584 Mg577 2.079 . S
O584 C586 1.273 . S
C585 O581 1.246 . S
C585 O582 1.259 . S
C586 O583 1.252 . S
C586 O584 1.273 . S
O587 Mg574 2.010 . S
O587 C579 1.249 . S
Mg588 O589 2.028 . S
Mg588 O595 1.986 . S
Mg588 O597 2.114 . S
Mg588 O598 2.251 . S
Mg588 O601 2.010 . S
O589 Mg588 2.028 . S
O589 C592 1.250 . S
O590 Mg591 2.028 . S
O590 C592 1.248 . S
Mg591 O590 2.028 . S
Mg591 O596 2.032 . S
Mg591 O598 2.079 . S
C592 O589 1.250 . S
C592 O590 1.248 . S
C593 O594 1.264 . S
C593 O601 1.249 . S
O594 C593 1.264 . S
O595 Mg588 1.986 . S
O595 C599 1.246 . S
O596 Mg591 2.032 . S
O596 C599 1.259 . S
O597 Mg588 2.114 . S
O597 C600 1.252 . S
O598 Mg588 2.251 . S
O598 Mg591 2.079 . S
O598 C600 1.273 . S
C599 O595 1.246 . S
C599 O596 1.259 . S
C600 O597 1.252 . S
C600 O598 1.273 . S
O601 Mg588 2.010 . S
O601 C593 1.249 . S
Mg602 O603 2.028 1_556 S
Mg602 O609 1.986 . S
Mg602 O611 2.114 . S
Mg602 O612 2.251 . S
Mg602 O615 2.010 1_556 S
O603 Mg602 2.028 1_554 S
O603 C606 1.250 . S
O604 Mg605 2.028 1_554 S
O604 C606 1.248 . S
Mg605 O604 2.028 1_556 S
Mg605 O610 2.032 . S
Mg605 O612 2.079 . S
C606 O603 1.250 . S
C606 O604 1.248 . S
C607 O608 1.263 . S
C607 O615 1.249 . S
O608 C607 1.263 . S
O609 Mg602 1.986 . S
O609 C613 1.246 . S
O610 Mg605 2.032 . S
O610 C613 1.259 . S
O611 Mg602 2.114 . S
O611 C614 1.252 . S
O612 Mg602 2.251 . S
O612 Mg605 2.079 . S
O612 C614 1.273 . S
C613 O609 1.246 . S
C613 O610 1.259 . S
C614 O611 1.252 . S
C614 O612 1.273 . S
O615 Mg602 2.010 1_554 S
O615 C607 1.249 . S
Mg616 O617 2.028 . S
Mg616 O623 1.986 . S
Mg616 O625 2.114 . S
Mg616 O626 2.251 . S
Mg616 O629 2.010 . S
O617 Mg616 2.028 . S
O617 C620 1.250 . S
O618 Mg619 2.028 . S
O618 C620 1.248 . S
Mg619 O618 2.028 . S
Mg619 O624 2.032 . S
Mg619 O626 2.079 . S
C620 O617 1.250 . S
C620 O618 1.248 . S
C621 O622 1.264 . S
C621 O629 1.249 . S
O622 C621 1.264 . S
O623 Mg616 1.986 . S
O623 C627 1.246 . S
O624 Mg619 2.032 . S
O624 C627 1.259 . S
O625 Mg616 2.114 . S
O625 C628 1.252 . S
O626 Mg616 2.251 . S
O626 Mg619 2.079 . S
O626 C628 1.273 . S
C627 O623 1.246 . S
C627 O624 1.259 . S
C628 O625 1.252 . S
C628 O626 1.273 . S
O629 Mg616 2.010 . S
O629 C621 1.249 . S
Mg630 O631 2.028 . S
Mg630 O637 1.986 . S
Mg630 O639 2.114 . S
Mg630 O640 2.251 . S
Mg630 O643 2.010 . S
O631 Mg630 2.028 . S
O631 C634 1.250 . S
O632 Mg633 2.028 . S
O632 C634 1.248 . S
Mg633 O632 2.028 . S
Mg633 O638 2.032 . S
Mg633 O640 2.079 . S
C634 O631 1.250 . S
C634 O632 1.248 . S
C635 O636 1.264 . S
C635 O643 1.249 . S
O636 C635 1.264 . S
O637 Mg630 1.986 . S
O637 C641 1.246 . S
O638 Mg633 2.032 . S
O638 C641 1.259 . S
O639 Mg630 2.114 . S
O639 C642 1.252 . S
O640 Mg630 2.251 . S
O640 Mg633 2.079 . S
O640 C642 1.273 . S
C641 O637 1.246 . S
C641 O638 1.259 . S
C642 O639 1.252 . S
C642 O640 1.273 . S
O643 Mg630 2.010 . S
O643 C635 1.249 . S
Mg644 O645 2.028 . S
Mg644 O651 1.986 . S
Mg644 O653 2.114 . S
Mg644 O654 2.251 . S
Mg644 O657 2.010 . S
O645 Mg644 2.028 . S
O645 C648 1.250 . S
O646 Mg647 2.028 . S
O646 C648 1.248 . S
Mg647 O646 2.028 . S
Mg647 O652 2.032 . S
Mg647 O654 2.079 . S
C648 O645 1.250 . S
C648 O646 1.248 . S
C649 O650 1.264 . S
C649 O657 1.249 . S
O650 C649 1.264 . S
O651 Mg644 1.986 . S
O651 C655 1.246 . S
O652 Mg647 2.032 . S
O652 C655 1.259 . S
O653 Mg644 2.114 . S
O653 C656 1.252 . S
O654 Mg644 2.251 . S
O654 Mg647 2.079 . S
O654 C656 1.273 . S
C655 O651 1.246 . S
C655 O652 1.259 . S
C656 O653 1.252 . S
C656 O654 1.273 . S
O657 Mg644 2.010 . S
O657 C649 1.249 . S
Mg658 O659 2.028 . S
Mg658 O665 1.986 . S
Mg658 O667 2.114 . S
Mg658 O668 2.251 . S
Mg658 O671 2.010 . S
O659 Mg658 2.028 . S
O659 C662 1.250 . S
O660 Mg661 2.028 . S
O660 C662 1.248 . S
Mg661 O660 2.028 . S
Mg661 O666 2.032 . S
Mg661 O668 2.079 . S
C662 O659 1.250 . S
C662 O660 1.248 . S
C663 O664 1.264 . S
C663 O671 1.249 . S
O664 C663 1.264 . S
O665 Mg658 1.986 . S
O665 C669 1.246 . S
O666 Mg661 2.032 . S
O666 C669 1.259 . S
O667 Mg658 2.114 . S
O667 C670 1.252 . S
O668 Mg658 2.251 . S
O668 Mg661 2.079 . S
O668 C670 1.273 . S
C669 O665 1.246 . S
C669 O666 1.259 . S
C670 O667 1.252 . S
C670 O668 1.273 . S
O671 Mg658 2.010 . S
O671 C663 1.249 . S
H672 C678 0.930 . S
H673 C681 0.930 . S
H674 C682 0.930 . S
H675 C683 0.930 . S
H676 C686 0.930 . S
H677 C687 0.930 . S
C678 H672 0.930 . S
C678 C679 1.355 . S
C678 C680 1.415 . S
C679 C678 1.355 . S
C679 C681 1.419 1_455 S
C680 C678 1.415 . S
C680 C685 1.425 1_455 S
C680 C687 1.409 . S
C681 H673 0.930 . S
C681 C679 1.419 1_655 S
C681 C682 1.362 . S
C682 H674 0.930 . S
C682 C681 1.362 . S
C682 C685 1.409 . S
C683 H675 0.930 . S
C683 C684 1.355 . S
C683 C685 1.415 . S
C684 C683 1.355 . S
C684 C686 1.419 1_655 S
C685 C680 1.425 1_655 S
C685 C682 1.409 . S
C685 C683 1.415 . S
C686 H676 0.930 . S
C686 C684 1.419 1_455 S
C686 C687 1.362 . S
C687 H677 0.930 . S
C687 C680 1.409 . S
C687 C686 1.362 . S
H688 C694 0.924 1_455 S
H689 C697 0.930 . S
H690 C698 0.930 . S
H691 C699 0.930 . S
H692 C702 0.930 . S
H693 C703 0.930 . S
C694 H688 0.924 1_655 S
C694 C695 1.355 1_655 S
C694 C696 1.419 . S
C695 C694 1.355 1_455 S
C695 C697 1.419 1_455 S
C696 C694 1.419 . S
C696 C701 1.425 . S
C696 C703 1.409 . S
C697 H689 0.930 . S
C697 C695 1.419 1_655 S
C697 C698 1.362 . S
C698 H690 0.930 . S
C698 C697 1.362 . S
C698 C701 1.409 . S
C699 H691 0.930 . S
C699 C700 1.355 . S
C699 C701 1.415 . S
C700 C699 1.355 . S
C700 C702 1.419 . S
C701 C696 1.425 . S
C701 C698 1.409 . S
C701 C699 1.415 . S
C702 H692 0.930 . S
C702 C700 1.419 . S
C702 C703 1.362 . S
C703 H693 0.930 . S
C703 C696 1.409 . S
C703 C702 1.362 . S
H704 C710 0.930 . S
H705 C713 0.930 . S
H706 C714 0.930 . S
H707 C715 0.930 . S
H708 C718 0.930 . S
H709 C719 0.930 . S
C710 H704 0.930 . S
C710 C711 1.355 . S
C710 C712 1.415 . S
C711 C710 1.355 . S
C711 C713 1.419 . S
C712 C710 1.415 . S
C712 C717 1.425 . S
C712 C719 1.409 . S
C713 H705 0.930 . S
C713 C711 1.419 . S
C713 C714 1.362 . S
C714 H706 0.930 . S
C714 C713 1.362 . S
C714 C717 1.409 . S
C715 H707 0.930 . S
C715 C716 1.355 . S
C715 C717 1.415 . S
C716 C715 1.355 . S
C716 C718 1.419 . S
C717 C712 1.425 . S
C717 C714 1.409 . S
C717 C715 1.415 . S
C718 H708 0.930 . S
C718 C716 1.419 . S
C718 C719 1.362 . S
C719 H709 0.930 . S
C719 C712 1.409 . S
C719 C718 1.362 . S
H720 C726 0.930 . S
H721 C729 0.930 . S
H722 C730 0.930 . S
H723 C731 0.930 . S
H724 C734 0.930 . S
H725 C735 0.930 . S
C726 H720 0.930 . S
C726 C727 1.355 . S
C726 C728 1.415 . S
C727 C726 1.355 . S
C727 C729 1.419 . S
C728 C726 1.415 . S
C728 C733 1.425 . S
C728 C735 1.409 . S
C729 H721 0.930 . S
C729 C727 1.419 . S
C729 C730 1.362 . S
C730 H722 0.930 . S
C730 C729 1.362 . S
C730 C733 1.409 . S
C731 H723 0.930 . S
C731 C732 1.355 . S
C731 C733 1.415 . S
C732 C731 1.355 . S
C732 C734 1.419 . S
C733 C728 1.425 . S
C733 C730 1.409 . S
C733 C731 1.415 . S
C734 H724 0.930 . S
C734 C732 1.419 . S
C734 C735 1.362 . S
C735 H725 0.930 . S
C735 C728 1.409 . S
C735 C734 1.362 . S
H736 C742 0.930 . S
H737 C745 0.930 . S
H738 C746 0.930 . S
H739 C747 0.930 . S
H740 C750 0.930 . S
H741 C751 0.930 . S
C742 H736 0.930 . S
C742 C743 1.355 . S
C742 C744 1.415 . S
C743 C742 1.355 . S
C743 C745 1.419 . S
C744 C742 1.415 . S
C744 C749 1.425 . S
C744 C751 1.409 . S
C745 H737 0.930 . S
C745 C743 1.419 . S
C745 C746 1.362 . S
C746 H738 0.930 . S
C746 C745 1.362 . S
C746 C749 1.409 . S
C747 H739 0.930 . S
C747 C748 1.355 . S
C747 C749 1.415 . S
C748 C747 1.355 . S
C748 C750 1.419 . S
C749 C744 1.425 . S
C749 C746 1.409 . S
C749 C747 1.415 . S
C750 H740 0.930 . S
C750 C748 1.419 . S
C750 C751 1.362 . S
C751 H741 0.930 . S
C751 C744 1.409 . S
C751 C750 1.362 . S
H752 C758 0.930 . S
H753 C761 0.930 . S
H754 C762 0.930 . S
H755 C763 0.930 . S
H756 C766 0.930 . S
H757 C767 0.930 . S
C758 H752 0.930 . S
C758 C759 1.355 . S
C758 C760 1.415 . S
C759 C758 1.355 . S
C759 C761 1.419 . S
C760 C758 1.415 . S
C760 C765 1.425 . S
C760 C767 1.409 . S
C761 H753 0.930 . S
C761 C759 1.419 . S
C761 C762 1.362 . S
C762 H754 0.930 . S
C762 C761 1.362 . S
C762 C765 1.409 . S
C763 H755 0.930 . S
C763 C764 1.355 . S
C763 C765 1.415 . S
C764 C763 1.355 . S
C764 C766 1.419 . S
C765 C760 1.425 . S
C765 C762 1.409 . S
C765 C763 1.415 . S
C766 H756 0.930 . S
C766 C764 1.419 . S
C766 C767 1.362 . S
C767 H757 0.930 . S
C767 C760 1.409 . S
C767 C766 1.362 . S
H768 C774 0.930 . S
H769 C777 0.930 . S
H770 C778 0.930 . S
H771 C779 0.930 . S
H772 C782 0.930 . S
H773 C783 0.930 . S
C774 H768 0.930 . S
C774 C775 1.355 . S
C774 C776 1.415 . S
C775 C774 1.355 . S
C775 C777 1.419 . S
C776 C774 1.415 . S
C776 C781 1.425 . S
C776 C783 1.409 . S
C777 H769 0.930 . S
C777 C775 1.419 . S
C777 C778 1.362 . S
C778 H770 0.930 . S
C778 C777 1.362 . S
C778 C781 1.409 . S
C779 H771 0.930 . S
C779 C780 1.355 . S
C779 C781 1.415 . S
C780 C779 1.355 . S
C780 C782 1.419 . S
C781 C776 1.425 . S
C781 C778 1.409 . S
C781 C779 1.415 . S
C782 H772 0.930 . S
C782 C780 1.419 . S
C782 C783 1.362 . S
C783 H773 0.930 . S
C783 C776 1.409 . S
C783 C782 1.362 . S
H784 C790 0.930 . S
H785 C793 0.930 . S
H786 C794 0.930 . S
H787 C795 0.930 . S
H788 C798 0.930 . S
H789 C799 0.930 . S
C790 H784 0.930 . S
C790 C791 1.355 . S
C790 C792 1.355 1_655 S
C791 C790 1.355 . S
C791 C793 1.419 . S
C792 C790 1.355 1_455 S
C792 C797 1.444 . S
C792 C799 1.454 . S
C793 H785 0.930 . S
C793 C791 1.419 . S
C793 C794 1.362 . S
C794 H786 0.930 . S
C794 C793 1.362 . S
C794 C797 1.409 1_655 S
C795 H787 0.930 . S
C795 C796 1.355 . S
C795 C797 1.415 . S
C796 C795 1.355 . S
C796 C798 1.419 . S
C797 C792 1.444 . S
C797 C794 1.409 1_455 S
C797 C795 1.415 . S
C798 H788 0.930 . S
C798 C796 1.419 . S
C798 C799 1.362 . S
C799 H789 0.930 . S
C799 C792 1.454 . S
C799 C798 1.362 . S
H800 C806 0.930 . S
H801 C809 0.930 . S
H802 C810 0.930 . S
H803 C811 0.930 1_565 S
H804 C814 0.930 . S
H805 C815 0.930 . S
C806 H800 0.930 . S
C806 C807 1.355 1_545 S
C806 C808 1.415 . S
C807 C806 1.355 1_565 S
C807 C809 1.419 . S
C808 C806 1.415 . S
C808 C813 1.403 1_545 S
C808 C815 1.409 . S
C809 H801 0.930 . S
C809 C807 1.419 . S
C809 C810 1.362 . S
C810 H802 0.930 . S
C810 C809 1.362 . S
C810 C813 1.432 . S
C811 H803 0.930 1_545 S
C811 C812 1.355 . S
C811 C813 1.415 1_545 S
C812 C811 1.355 . S
C812 C814 1.419 . S
C813 C808 1.403 1_565 S
C813 C810 1.432 . S
C813 C811 1.415 1_565 S
C814 H804 0.930 . S
C814 C812 1.419 . S
C814 C815 1.362 . S
C815 H805 0.930 . S
C815 C808 1.409 . S
C815 C814 1.362 . S
H816 C822 0.930 . S
H817 C825 0.930 . S
H818 C826 0.930 . S
H819 C827 0.930 . S
H820 C830 0.930 . S
H821 C831 0.930 . S
C822 H816 0.930 . S
C822 C823 1.355 . S
C822 C824 1.415 . S
C823 C822 1.355 . S
C823 C825 1.419 . S
C824 C822 1.415 . S
C824 C829 1.425 . S
C824 C831 1.409 . S
C825 H817 0.930 . S
C825 C823 1.419 . S
C825 C826 1.362 . S
C826 H818 0.930 . S
C826 C825 1.362 . S
C826 C829 1.409 . S
C827 H819 0.930 . S
C827 C828 1.355 . S
C827 C829 1.415 . S
C828 C827 1.355 . S
C828 C830 1.419 . S
C829 C824 1.425 . S
C829 C826 1.409 . S
C829 C827 1.415 . S
C830 H820 0.930 . S
C830 C828 1.419 . S
C830 C831 1.362 . S
C831 H821 0.930 . S
C831 C824 1.409 . S
C831 C830 1.362 . S
H832 C838 0.930 . S
H833 C841 0.930 . S
H834 C842 0.930 . S
H835 C843 0.930 . S
H836 C846 0.930 . S
H837 C847 0.930 . S
C838 H832 0.930 . S
C838 C839 1.355 . S
C838 C840 1.415 . S
C839 C838 1.355 . S
C839 C841 1.419 . S
C840 C838 1.415 . S
C840 C845 1.425 . S
C840 C847 1.409 . S
C841 H833 0.930 . S
C841 C839 1.419 . S
C841 C842 1.362 . S
C842 H834 0.930 . S
C842 C841 1.362 . S
C842 C845 1.409 . S
C843 H835 0.930 . S
C843 C844 1.355 . S
C843 C845 1.415 . S
C844 C843 1.355 . S
C844 C846 1.419 . S
C845 C840 1.425 . S
C845 C842 1.409 . S
C845 C843 1.415 . S
C846 H836 0.930 . S
C846 C844 1.419 . S
C846 C847 1.362 . S
C847 H837 0.930 . S
C847 C840 1.409 . S
C847 C846 1.362 . S
H848 C854 0.930 . S
H849 C857 0.930 . S
H850 C858 0.930 . S
H851 C859 0.930 . S
H852 C862 0.930 . S
H853 C863 0.928 . S
C854 H848 0.930 . S
C854 C855 1.355 . S
C854 C856 1.415 . S
C855 C854 1.355 . S
C855 C857 1.419 . S
C856 C854 1.415 . S
C856 C861 1.425 1_554 S
C856 C863 1.407 . S
C857 H849 0.930 . S
C857 C855 1.419 . S
C857 C858 1.362 . S
C858 H850 0.930 . S
C858 C857 1.362 . S
C858 C861 1.409 1_554 S
C859 H851 0.930 . S
C859 C860 1.355 . S
C859 C861 1.415 . S
C860 C859 1.355 . S
C860 C862 1.419 . S
C861 C856 1.425 1_556 S
C861 C858 1.409 1_556 S
C861 C859 1.415 . S
C862 H852 0.930 . S
C862 C860 1.419 . S
C862 C863 1.366 1_556 S
C863 H853 0.928 . S
C863 C856 1.407 . S
C863 C862 1.366 1_554 S
H864 C870 0.933 . S
H865 C873 0.930 . S
H866 C874 0.930 . S
H867 C875 0.930 . S
H868 C878 0.930 . S
H869 C879 0.930 . S
C870 H864 0.933 . S
C870 C871 1.349 1_554 S
C870 C872 1.418 . S
C871 C870 1.349 1_556 S
C871 C873 1.419 . S
C872 C870 1.418 . S
C872 C877 1.425 . S
C872 C879 1.409 . S
C873 H865 0.930 . S
C873 C871 1.419 . S
C873 C874 1.362 . S
C874 H866 0.930 . S
C874 C873 1.362 . S
C874 C877 1.409 1_556 S
C875 H867 0.930 . S
C875 C876 1.355 . S
C875 C877 1.415 . S
C876 C875 1.355 . S
C876 C878 1.419 . S
C877 C872 1.425 . S
C877 C874 1.409 1_554 S
C877 C875 1.415 . S
C878 H868 0.930 . S
C878 C876 1.419 . S
C878 C879 1.362 . S
C879 H869 0.930 . S
C879 C872 1.409 . S
C879 C878 1.362 . S
H880 C886 0.930 . S
H881 C889 0.930 . S
H882 C890 0.930 . S
H883 C891 0.930 . S
H884 C894 0.930 . S
H885 C895 0.930 . S
C886 H880 0.930 . S
C886 C887 1.355 . S
C886 C888 1.415 . S
C887 C886 1.355 . S
C887 C889 1.419 . S
C888 C886 1.415 . S
C888 C893 1.425 . S
C888 C895 1.409 . S
C889 H881 0.930 . S
C889 C887 1.419 . S
C889 C890 1.362 . S
C890 H882 0.930 . S
C890 C889 1.362 . S
C890 C893 1.409 . S
C891 H883 0.930 . S
C891 C892 1.355 . S
C891 C893 1.415 . S
C892 C891 1.355 . S
C892 C894 1.419 . S
C893 C888 1.425 . S
C893 C890 1.409 . S
C893 C891 1.415 . S
C894 H884 0.930 . S
C894 C892 1.419 . S
C894 C895 1.362 . S
C895 H885 0.930 . S
C895 C888 1.409 . S
C895 C894 1.362 . S
H896 C902 0.930 . S
H897 C905 0.930 . S
H898 C906 0.930 . S
H899 C907 0.930 . S
H900 C910 0.930 . S
H901 C911 0.930 . S
C902 H896 0.930 . S
C902 C903 1.355 . S
C902 C904 1.415 . S
C903 C902 1.355 . S
C903 C905 1.419 . S
C904 C902 1.415 . S
C904 C909 1.425 . S
C904 C911 1.409 . S
C905 H897 0.930 . S
C905 C903 1.419 . S
C905 C906 1.362 . S
C906 H898 0.930 . S
C906 C905 1.362 . S
C906 C909 1.409 . S
C907 H899 0.930 . S
C907 C908 1.355 . S
C907 C909 1.415 . S
C908 C907 1.355 . S
C908 C910 1.419 . S
C909 C904 1.425 . S
C909 C906 1.409 . S
C909 C907 1.415 . S
C910 H900 0.930 . S
C910 C908 1.419 . S
C910 C911 1.362 . S
C911 H901 0.930 . S
C911 C904 1.409 . S
C911 C910 1.362 . S
H912 C918 0.930 . S
H913 C921 0.930 . S
H914 C922 0.930 . S
H915 C923 0.930 . S
H916 C926 0.930 . S
H917 C927 0.930 . S
C918 H912 0.930 . S
C918 C919 1.355 . S
C918 C920 1.415 . S
C919 C918 1.355 . S
C919 C921 1.419 . S
C920 C918 1.415 . S
C920 C925 1.425 . S
C920 C927 1.409 . S
C921 H913 0.930 . S
C921 C919 1.419 . S
C921 C922 1.362 . S
C922 H914 0.930 . S
C922 C921 1.362 . S
C922 C925 1.409 . S
C923 H915 0.930 . S
C923 C924 1.355 . S
C923 C925 1.415 . S
C924 C923 1.355 . S
C924 C926 1.419 . S
C925 C920 1.425 . S
C925 C922 1.409 . S
C925 C923 1.415 . S
C926 H916 0.930 . S
C926 C924 1.419 . S
C926 C927 1.362 . S
C927 H917 0.930 . S
C927 C920 1.409 . S
C927 C926 1.362 . S
H928 C934 0.930 . S
H929 C937 0.930 . S
H930 C938 0.930 . S
H931 C939 0.930 . S
H932 C942 0.930 . S
H933 C943 0.909 1_545 S
C934 H928 0.930 . S
C934 C935 1.355 . S
C934 C936 1.415 . S
C935 C934 1.355 . S
C935 C937 1.419 . S
C936 C934 1.415 . S
C936 C941 1.394 1_545 S
C936 C943 1.396 1_545 S
C937 H929 0.930 . S
C937 C935 1.419 . S
C937 C938 1.362 . S
C938 H930 0.930 . S
C938 C937 1.362 . S
C938 C941 1.390 1_545 S
C939 H931 0.930 . S
C939 C940 1.355 . S
C939 C941 1.466 . S
C940 C939 1.355 . S
C940 C942 1.419 . S
C941 C936 1.394 1_565 S
C941 C938 1.390 1_565 S
C941 C939 1.466 . S
C942 H932 0.930 . S
C942 C940 1.419 . S
C942 C943 1.398 . S
C943 H933 0.909 1_565 S
C943 C936 1.396 1_565 S
C943 C942 1.398 . S
H944 C950 0.930 . S
H945 C953 0.930 . S
H946 C954 0.930 . S
H947 C955 0.930 . S
H948 C958 0.930 . S
H949 C959 0.930 . S
C950 H944 0.930 . S
C950 C951 1.355 . S
C950 C952 1.415 . S
C951 C950 1.355 . S
C951 C953 1.419 . S
C952 C950 1.415 . S
C952 C957 1.425 . S
C952 C959 1.409 . S
C953 H945 0.930 . S
C953 C951 1.419 . S
C953 C954 1.362 . S
C954 H946 0.930 . S
C954 C953 1.362 . S
C954 C957 1.409 . S
C955 H947 0.930 . S
C955 C956 1.355 . S
C955 C957 1.415 . S
C956 C955 1.355 . S
C956 C958 1.419 . S
C957 C952 1.425 . S
C957 C954 1.409 . S
C957 C955 1.415 . S
C958 H948 0.930 . S
C958 C956 1.419 . S
C958 C959 1.362 . S
C959 H949 0.930 . S
C959 C952 1.409 . S
C959 C958 1.362 . S
H960 C966 0.930 . S
H961 C969 0.930 . S
H962 C970 0.930 . S
H963 C971 0.930 . S
H964 C974 0.930 . S
H965 C975 0.930 . S
C966 H960 0.930 . S
C966 C967 1.355 . S
C966 C968 1.415 . S
C967 C966 1.355 . S
C967 C969 1.419 . S
C968 C966 1.415 . S
C968 C973 1.425 . S
C968 C975 1.409 . S
C969 H961 0.930 . S
C969 C967 1.419 . S
C969 C970 1.362 . S
C970 H962 0.930 . S
C970 C969 1.362 . S
C970 C973 1.409 . S
C971 H963 0.930 . S
C971 C972 1.355 . S
C971 C973 1.415 . S
C972 C971 1.355 . S
C972 C974 1.419 . S
C973 C968 1.425 . S
C973 C970 1.409 . S
C973 C971 1.415 . S
C974 H964 0.930 . S
C974 C972 1.419 . S
C974 C975 1.362 . S
C975 H965 0.930 . S
C975 C968 1.409 . S
C975 C974 1.362 . S
H976 C982 0.930 . S
H977 C985 0.930 . S
H978 C986 0.930 . S
H979 C987 0.930 . S
H980 C990 0.930 . S
H981 C991 0.930 . S
C982 H976 0.930 . S
C982 C983 1.355 . S
C982 C984 1.415 . S
C983 C982 1.355 . S
C983 C985 1.419 . S
C984 C982 1.415 . S
C984 C989 1.425 . S
C984 C991 1.409 . S
C985 H977 0.930 . S
C985 C983 1.419 . S
C985 C986 1.362 . S
C986 H978 0.930 . S
C986 C985 1.362 . S
C986 C989 1.409 . S
C987 H979 0.930 . S
C987 C988 1.355 . S
C987 C989 1.415 . S
C988 C987 1.355 . S
C988 C990 1.419 . S
C989 C984 1.425 . S
C989 C986 1.409 . S
C989 C987 1.415 . S
C990 H980 0.930 . S
C990 C988 1.419 . S
C990 C991 1.362 . S
C991 H981 0.930 . S
C991 C984 1.409 . S
C991 C990 1.362 . S
H992 C998 0.930 . S
H993 C1001 0.930 . S
H994 C1002 0.930 . S
H995 C1003 0.930 1_554 S
H996 C1006 0.930 . S
H997 C1007 0.930 . S
C998 H992 0.930 . S
C998 C999 1.355 . S
C998 C1000 1.415 . S
C999 C998 1.355 . S
C999 C1001 1.419 . S
C1000 C998 1.415 . S
C1000 C1005 1.425 . S
C1000 C1007 1.409 . S
C1001 H993 0.930 . S
C1001 C999 1.419 . S
C1001 C1002 1.362 . S
C1002 H994 0.930 . S
C1002 C1001 1.362 . S
C1002 C1005 1.409 . S
C1003 H995 0.930 1_556 S
C1003 C1004 1.355 1_556 S
C1003 C1005 1.415 . S
C1004 C1003 1.355 1_554 S
C1004 C1006 1.419 1_554 S
C1005 C1000 1.425 . S
C1005 C1002 1.409 . S
C1005 C1003 1.415 . S
C1006 H996 0.930 . S
C1006 C1004 1.419 1_556 S
C1006 C1007 1.362 . S
C1007 H997 0.930 . S
C1007 C1000 1.409 . S
C1007 C1006 1.362 . S
H1008 C1014 0.930 . S
H1009 C1017 0.930 . S
H1010 C1018 0.930 . S
H1011 C1019 0.930 . S
H1012 C1022 0.930 . S
H1013 C1023 0.930 . S
C1014 H1008 0.930 . S
C1014 C1015 1.355 . S
C1014 C1016 1.415 . S
C1015 C1014 1.355 . S
C1015 C1017 1.419 . S
C1016 C1014 1.415 . S
C1016 C1021 1.425 . S
C1016 C1023 1.409 . S
C1017 H1009 0.930 . S
C1017 C1015 1.419 . S
C1017 C1018 1.362 . S
C1018 H1010 0.930 . S
C1018 C1017 1.362 . S
C1018 C1021 1.409 . S
C1019 H1011 0.930 . S
C1019 C1020 1.355 . S
C1019 C1021 1.415 . S
C1020 C1019 1.355 . S
C1020 C1022 1.419 . S
C1021 C1016 1.425 . S
C1021 C1018 1.409 . S
C1021 C1019 1.415 . S
C1022 H1012 0.930 . S
C1022 C1020 1.419 . S
C1022 C1023 1.362 . S
C1023 H1013 0.930 . S
C1023 C1016 1.409 . S
C1023 C1022 1.362 . S
H1024 C1030 0.930 . S
H1025 C1033 0.930 . S
H1026 C1034 0.930 . S
H1027 C1035 0.930 . S
H1028 C1038 0.930 . S
H1029 C1039 0.930 . S
C1030 H1024 0.930 . S
C1030 C1031 1.355 . S
C1030 C1032 1.415 . S
C1031 C1030 1.355 . S
C1031 C1033 1.419 . S
C1032 C1030 1.415 . S
C1032 C1037 1.425 . S
C1032 C1039 1.409 . S
C1033 H1025 0.930 . S
C1033 C1031 1.419 . S
C1033 C1034 1.362 . S
C1034 H1026 0.930 . S
C1034 C1033 1.362 . S
C1034 C1037 1.409 . S
C1035 H1027 0.930 . S
C1035 C1036 1.355 . S
C1035 C1037 1.415 . S
C1036 C1035 1.355 . S
C1036 C1038 1.419 . S
C1037 C1032 1.425 . S
C1037 C1034 1.409 . S
C1037 C1035 1.415 . S
C1038 H1028 0.930 . S
C1038 C1036 1.419 . S
C1038 C1039 1.362 . S
C1039 H1029 0.930 . S
C1039 C1032 1.409 . S
C1039 C1038 1.362 . S
H1040 C1046 0.930 . S
H1041 C1049 0.930 . S
H1042 C1050 0.930 . S
H1043 C1051 0.930 . S
H1044 C1054 0.930 . S
H1045 C1055 0.930 . S
C1046 H1040 0.930 . S
C1046 C1047 1.355 1_565 S
C1046 C1048 1.415 . S
C1047 C1046 1.355 1_545 S
C1047 C1049 1.419 . S
C1048 C1046 1.415 . S
C1048 C1053 1.425 . S
C1048 C1055 1.409 . S
C1049 H1041 0.930 . S
C1049 C1047 1.419 . S
C1049 C1050 1.362 1_545 S
C1050 H1042 0.930 . S
C1050 C1049 1.362 1_565 S
C1050 C1053 1.409 . S
C1051 H1043 0.930 . S
C1051 C1052 1.355 . S
C1051 C1053 1.415 . S
C1052 C1051 1.355 . S
C1052 C1054 1.419 . S
C1053 C1048 1.425 . S
C1053 C1050 1.409 . S
C1053 C1051 1.415 . S
C1054 H1044 0.930 . S
C1054 C1052 1.419 . S
C1054 C1055 1.362 . S
C1055 H1045 0.930 . S
C1055 C1048 1.409 . S
C1055 C1054 1.362 . S
H1056 C1062 0.930 . S
H1057 C1065 0.930 . S
H1058 C1066 0.930 . S
H1059 C1067 0.930 . S
H1060 C1070 0.930 . S
H1061 C1071 0.930 . S
C1062 H1056 0.930 . S
C1062 C1063 1.355 . S
C1062 C1064 1.415 . S
C1063 C1062 1.355 . S
C1063 C1065 1.419 . S
C1064 C1062 1.415 . S
C1064 C1069 1.425 . S
C1064 C1071 1.409 . S
C1065 H1057 0.930 . S
C1065 C1063 1.419 . S
C1065 C1066 1.362 . S
C1066 H1058 0.930 . S
C1066 C1065 1.362 . S
C1066 C1069 1.409 . S
C1067 H1059 0.930 . S
C1067 C1068 1.355 . S
C1067 C1069 1.415 . S
C1068 C1067 1.355 . S
C1068 C1070 1.419 . S
C1069 C1064 1.425 . S
C1069 C1066 1.409 . S
C1069 C1067 1.415 . S
C1070 H1060 0.930 . S
C1070 C1068 1.419 . S
C1070 C1071 1.362 . S
C1071 H1061 0.930 . S
C1071 C1064 1.409 . S
C1071 C1070 1.362 . S
H1072 C1078 0.930 1_455 S
H1073 C1081 0.930 . S
H1074 C1082 0.930 . S
H1075 C1083 0.930 . S
H1076 C1086 0.930 . S
H1077 C1087 0.930 . S
C1078 H1072 0.930 1_655 S
C1078 C1079 1.355 . S
C1078 C1080 1.415 . S
C1079 C1078 1.355 . S
C1079 C1081 1.419 . S
C1080 C1078 1.415 . S
C1080 C1085 1.425 . S
C1080 C1087 1.409 . S
C1081 H1073 0.930 . S
C1081 C1079 1.419 . S
C1081 C1082 1.362 . S
C1082 H1074 0.930 . S
C1082 C1081 1.362 . S
C1082 C1085 1.409 . S
C1083 H1075 0.930 . S
C1083 C1084 1.355 . S
C1083 C1085 1.415 . S
C1084 C1083 1.355 . S
C1084 C1086 1.419 . S
C1085 C1080 1.425 . S
C1085 C1082 1.409 . S
C1085 C1083 1.415 . S
C1086 H1076 0.930 . S
C1086 C1084 1.419 . S
C1086 C1087 1.362 . S
C1087 H1077 0.930 . S
C1087 C1080 1.409 . S
C1087 C1086 1.362 . S
H1088 C1094 0.930 . S
H1089 C1097 0.930 . S
H1090 C1098 0.930 . S
H1091 C1099 0.930 . S
H1092 C1102 0.930 . S
H1093 C1103 0.930 . S
C1094 H1088 0.930 . S
C1094 C1095 1.355 . S
C1094 C1096 1.415 . S
C1095 C1094 1.355 . S
C1095 C1097 1.419 . S
C1096 C1094 1.415 . S
C1096 C1101 1.425 . S
C1096 C1103 1.409 . S
C1097 H1089 0.930 . S
C1097 C1095 1.419 . S
C1097 C1098 1.362 . S
C1098 H1090 0.930 . S
C1098 C1097 1.362 . S
C1098 C1101 1.409 . S
C1099 H1091 0.930 . S
C1099 C1100 1.355 . S
C1099 C1101 1.415 . S
C1100 C1099 1.355 . S
C1100 C1102 1.419 . S
C1101 C1096 1.425 . S
C1101 C1098 1.409 . S
C1101 C1099 1.415 . S
C1102 H1092 0.930 . S
C1102 C1100 1.419 . S
C1102 C1103 1.362 . S
C1103 H1093 0.930 . S
C1103 C1096 1.409 . S
C1103 C1102 1.362 . S
H1104 C1110 0.930 . S
H1105 C1113 0.930 . S
H1106 C1114 0.930 . S
H1107 C1115 0.930 . S
H1108 C1118 0.930 . S
H1109 C1119 0.930 . S
C1110 H1104 0.930 . S
C1110 C1111 1.355 . S
C1110 C1112 1.415 . S
C1111 C1110 1.355 . S
C1111 C1113 1.419 . S
C1112 C1110 1.415 . S
C1112 C1117 1.425 . S
C1112 C1119 1.409 . S
C1113 H1105 0.930 . S
C1113 C1111 1.419 . S
C1113 C1114 1.362 . S
C1114 H1106 0.930 . S
C1114 C1113 1.362 . S
C1114 C1117 1.409 . S
C1115 H1107 0.930 . S
C1115 C1116 1.355 . S
C1115 C1117 1.415 . S
C1116 C1115 1.355 . S
C1116 C1118 1.419 . S
C1117 C1112 1.425 . S
C1117 C1114 1.409 . S
C1117 C1115 1.415 . S
C1118 H1108 0.930 . S
C1118 C1116 1.419 . S
C1118 C1119 1.362 . S
C1119 H1109 0.930 . S
C1119 C1112 1.409 . S
C1119 C1118 1.362 . S
H1120 C1126 0.930 . S
H1121 C1129 0.930 . S
H1122 C1130 0.930 . S
H1123 C1131 0.930 . S
H1124 C1134 0.930 1_545 S
H1125 C1135 0.930 . S
C1126 H1120 0.930 . S
C1126 C1127 1.355 . S
C1126 C1128 1.415 . S
C1127 C1126 1.355 . S
C1127 C1129 1.419 . S
C1128 C1126 1.415 . S
C1128 C1133 1.425 . S
C1128 C1135 1.409 . S
C1129 H1121 0.930 . S
C1129 C1127 1.419 . S
C1129 C1130 1.362 . S
C1130 H1122 0.930 . S
C1130 C1129 1.362 . S
C1130 C1133 1.409 . S
C1131 H1123 0.930 . S
C1131 C1132 1.355 . S
C1131 C1133 1.415 . S
C1132 C1131 1.355 . S
C1132 C1134 1.419 . S
C1133 C1128 1.425 . S
C1133 C1130 1.409 . S
C1133 C1131 1.415 . S
C1134 H1124 0.930 1_565 S
C1134 C1132 1.419 . S
C1134 C1135 1.362 . S
C1135 H1125 0.930 . S
C1135 C1128 1.409 . S
C1135 C1134 1.362 . S
H1136 C1142 0.930 . S
H1137 C1145 0.930 . S
H1138 C1146 0.930 . S
H1139 C1147 0.930 . S
H1140 C1150 0.930 . S
H1141 C1151 0.930 . S
C1142 H1136 0.930 . S
C1142 C1143 1.355 . S
C1142 C1144 1.415 . S
C1143 C1142 1.355 . S
C1143 C1145 1.419 . S
C1144 C1142 1.415 . S
C1144 C1149 1.425 . S
C1144 C1151 1.409 . S
C1145 H1137 0.930 . S
C1145 C1143 1.419 . S
C1145 C1146 1.362 . S
C1146 H1138 0.930 . S
C1146 C1145 1.362 . S
C1146 C1149 1.409 . S
C1147 H1139 0.930 . S
C1147 C1148 1.355 . S
C1147 C1149 1.415 . S
C1148 C1147 1.355 . S
C1148 C1150 1.419 . S
C1149 C1144 1.425 . S
C1149 C1146 1.409 . S
C1149 C1147 1.415 . S
C1150 H1140 0.930 . S
C1150 C1148 1.419 . S
C1150 C1151 1.362 . S
C1151 H1141 0.930 . S
C1151 C1144 1.409 . S
C1151 C1150 1.362 . S
H1152 C1158 0.930 . S
H1153 C1161 0.930 . S
H1154 C1162 0.930 . S
H1155 C1163 0.930 . S
H1156 C1166 0.930 . S
H1157 C1167 0.930 . S
C1158 H1152 0.930 . S
C1158 C1159 1.355 . S
C1158 C1160 1.415 . S
C1159 C1158 1.355 . S
C1159 C1161 1.419 . S
C1160 C1158 1.415 . S
C1160 C1165 1.425 . S
C1160 C1167 1.409 . S
C1161 H1153 0.930 . S
C1161 C1159 1.419 . S
C1161 C1162 1.362 . S
C1162 H1154 0.930 . S
C1162 C1161 1.362 . S
C1162 C1165 1.409 . S
C1163 H1155 0.930 . S
C1163 C1164 1.355 . S
C1163 C1165 1.415 . S
C1164 C1163 1.355 . S
C1164 C1166 1.419 . S
C1165 C1160 1.425 . S
C1165 C1162 1.409 . S
C1165 C1163 1.415 . S
C1166 H1156 0.930 . S
C1166 C1164 1.419 . S
C1166 C1167 1.362 . S
C1167 H1157 0.930 . S
C1167 C1160 1.409 . S
C1167 C1166 1.362 . S
H1168 C1174 0.930 . S
H1169 C1177 0.930 . S
H1170 C1178 0.930 . S
H1171 C1179 0.930 . S
H1172 C1182 0.930 . S
H1173 C1183 0.930 . S
C1174 H1168 0.930 . S
C1174 C1175 1.355 . S
C1174 C1176 1.415 . S
C1175 C1174 1.355 . S
C1175 C1177 1.419 . S
C1176 C1174 1.415 . S
C1176 C1181 1.425 . S
C1176 C1183 1.409 . S
C1177 H1169 0.930 . S
C1177 C1175 1.419 . S
C1177 C1178 1.362 . S
C1178 H1170 0.930 . S
C1178 C1177 1.362 . S
C1178 C1181 1.409 . S
C1179 H1171 0.930 . S
C1179 C1180 1.355 . S
C1179 C1181 1.415 . S
C1180 C1179 1.355 . S
C1180 C1182 1.419 . S
C1181 C1176 1.425 . S
C1181 C1178 1.409 . S
C1181 C1179 1.415 . S
C1182 H1172 0.930 . S
C1182 C1180 1.419 . S
C1182 C1183 1.362 . S
C1183 H1173 0.930 . S
C1183 C1176 1.409 . S
C1183 C1182 1.362 . S
H1184 C1190 0.930 . S
H1185 C1193 0.930 . S
H1186 C1194 0.930 . S
H1187 C1195 0.930 . S
H1188 C1198 0.930 . S
H1189 C1199 0.930 . S
C1190 H1184 0.930 . S
C1190 C1191 1.355 . S
C1190 C1192 1.415 . S
C1191 C1190 1.355 . S
C1191 C1193 1.419 . S
C1192 C1190 1.415 . S
C1192 C1197 1.425 . S
C1192 C1199 1.409 . S
C1193 H1185 0.930 . S
C1193 C1191 1.419 . S
C1193 C1194 1.362 . S
C1194 H1186 0.930 . S
C1194 C1193 1.362 . S
C1194 C1197 1.409 . S
C1195 H1187 0.930 . S
C1195 C1196 1.355 . S
C1195 C1197 1.415 . S
C1196 C1195 1.355 . S
C1196 C1198 1.419 . S
C1197 C1192 1.425 . S
C1197 C1194 1.409 . S
C1197 C1195 1.415 . S
C1198 H1188 0.930 . S
C1198 C1196 1.419 . S
C1198 C1199 1.362 . S
C1199 H1189 0.930 . S
C1199 C1192 1.409 . S
C1199 C1198 1.362 . S
H1200 C1206 0.930 . S
H1201 C1209 0.930 . S
H1202 C1210 0.930 . S
H1203 C1211 0.930 . S
H1204 C1214 0.930 . S
H1205 C1215 0.930 . S
C1206 H1200 0.930 . S
C1206 C1207 1.355 . S
C1206 C1208 1.415 . S
C1207 C1206 1.355 . S
C1207 C1209 1.419 . S
C1208 C1206 1.415 . S
C1208 C1213 1.425 . S
C1208 C1215 1.409 . S
C1209 H1201 0.930 . S
C1209 C1207 1.419 . S
C1209 C1210 1.362 . S
C1210 H1202 0.930 . S
C1210 C1209 1.362 . S
C1210 C1213 1.409 . S
C1211 H1203 0.930 . S
C1211 C1212 1.355 . S
C1211 C1213 1.415 . S
C1212 C1211 1.355 . S
C1212 C1214 1.419 . S
C1213 C1208 1.425 . S
C1213 C1210 1.409 . S
C1213 C1211 1.415 . S
C1214 H1204 0.930 . S
C1214 C1212 1.419 . S
C1214 C1215 1.362 . S
C1215 H1205 0.930 . S
C1215 C1208 1.409 . S
C1215 C1214 1.362 . S
H1216 C1222 0.930 1_545 S
H1217 C1225 0.930 . S
H1218 C1226 0.930 . S
H1219 C1227 0.930 . S
H1220 C1230 0.930 . S
H1221 C1231 0.930 . S
C1222 H1216 0.930 1_565 S
C1222 C1223 1.355 . S
C1222 C1224 1.415 . S
C1223 C1222 1.355 . S
C1223 C1225 1.419 . S
C1224 C1222 1.415 . S
C1224 C1229 1.425 . S
C1224 C1231 1.409 . S
C1225 H1217 0.930 . S
C1225 C1223 1.419 . S
C1225 C1226 1.362 . S
C1226 H1218 0.930 . S
C1226 C1225 1.362 . S
C1226 C1229 1.409 . S
C1227 H1219 0.930 . S
C1227 C1228 1.355 . S
C1227 C1229 1.415 . S
C1228 C1227 1.355 . S
C1228 C1230 1.419 . S
C1229 C1224 1.425 . S
C1229 C1226 1.409 . S
C1229 C1227 1.415 . S
C1230 H1220 0.930 . S
C1230 C1228 1.419 . S
C1230 C1231 1.362 . S
C1231 H1221 0.930 . S
C1231 C1224 1.409 . S
C1231 C1230 1.362 . S
H1232 C1238 0.930 . S
H1233 C1241 0.930 . S
H1234 C1242 0.930 . S
H1235 C1243 0.930 . S
H1236 C1246 0.930 . S
H1237 C1247 0.930 . S
C1238 H1232 0.930 . S
C1238 C1239 1.355 . S
C1238 C1240 1.415 . S
C1239 C1238 1.355 . S
C1239 C1241 1.419 . S
C1240 C1238 1.415 . S
C1240 C1245 1.425 . S
C1240 C1247 1.409 . S
C1241 H1233 0.930 . S
C1241 C1239 1.419 . S
C1241 C1242 1.362 . S
C1242 H1234 0.930 . S
C1242 C1241 1.362 . S
C1242 C1245 1.409 . S
C1243 H1235 0.930 . S
C1243 C1244 1.355 . S
C1243 C1245 1.415 . S
C1244 C1243 1.355 . S
C1244 C1246 1.419 . S
C1245 C1240 1.425 . S
C1245 C1242 1.409 . S
C1245 C1243 1.415 . S
C1246 H1236 0.930 . S
C1246 C1244 1.419 . S
C1246 C1247 1.362 . S
C1247 H1237 0.930 . S
C1247 C1240 1.409 . S
C1247 C1246 1.362 . S
H1248 C1254 0.930 . S
H1249 C1257 0.930 . S
H1250 C1258 0.930 . S
H1251 C1259 0.930 . S
H1252 C1262 0.930 . S
H1253 C1263 0.930 . S
C1254 H1248 0.930 . S
C1254 C1255 1.355 . S
C1254 C1256 1.415 . S
C1255 C1254 1.355 . S
C1255 C1257 1.419 . S
C1256 C1254 1.415 . S
C1256 C1261 1.425 . S
C1256 C1263 1.409 . S
C1257 H1249 0.930 . S
C1257 C1255 1.419 . S
C1257 C1258 1.362 . S
C1258 H1250 0.930 . S
C1258 C1257 1.362 . S
C1258 C1261 1.409 . S
C1259 H1251 0.930 . S
C1259 C1260 1.355 . S
C1259 C1261 1.415 . S
C1260 C1259 1.355 . S
C1260 C1262 1.419 . S
C1261 C1256 1.425 . S
C1261 C1258 1.409 . S
C1261 C1259 1.415 . S
C1262 H1252 0.930 . S
C1262 C1260 1.419 . S
C1262 C1263 1.362 . S
C1263 H1253 0.930 . S
C1263 C1256 1.409 . S
C1263 C1262 1.362 . S
H1264 C1270 0.930 . S
H1265 C1273 0.930 . S
H1266 C1274 0.930 . S
H1267 C1275 0.930 . S
H1268 C1278 0.930 . S
H1269 C1279 0.930 . S
C1270 H1264 0.930 . S
C1270 C1271 1.355 . S
C1270 C1272 1.415 . S
C1271 C1270 1.355 . S
C1271 C1273 1.419 . S
C1272 C1270 1.415 . S
C1272 C1277 1.425 . S
C1272 C1279 1.409 . S
C1273 H1265 0.930 . S
C1273 C1271 1.419 . S
C1273 C1274 1.362 . S
C1274 H1266 0.930 . S
C1274 C1273 1.362 . S
C1274 C1277 1.409 . S
C1275 H1267 0.930 . S
C1275 C1276 1.355 . S
C1275 C1277 1.415 . S
C1276 C1275 1.355 . S
C1276 C1278 1.419 . S
C1277 C1272 1.425 . S
C1277 C1274 1.409 . S
C1277 C1275 1.415 . S
C1278 H1268 0.930 . S
C1278 C1276 1.419 . S
C1278 C1279 1.362 . S
C1279 H1269 0.930 . S
C1279 C1272 1.409 . S
C1279 C1278 1.362 . S
H1280 C1286 0.930 . S
H1281 C1289 0.930 . S
H1282 C1290 0.930 . S
H1283 C1291 0.930 . S
H1284 C1294 0.930 . S
H1285 C1295 0.930 . S
C1286 H1280 0.930 . S
C1286 C1287 1.355 . S
C1286 C1288 1.415 . S
C1287 C1286 1.355 . S
C1287 C1289 1.419 . S
C1288 C1286 1.415 . S
C1288 C1293 1.425 . S
C1288 C1295 1.409 . S
C1289 H1281 0.930 . S
C1289 C1287 1.419 . S
C1289 C1290 1.362 . S
C1290 H1282 0.930 . S
C1290 C1289 1.362 . S
C1290 C1293 1.409 . S
C1291 H1283 0.930 . S
C1291 C1292 1.355 . S
C1291 C1293 1.415 . S
C1292 C1291 1.355 . S
C1292 C1294 1.419 . S
C1293 C1288 1.425 . S
C1293 C1290 1.409 . S
C1293 C1291 1.415 . S
C1294 H1284 0.930 . S
C1294 C1292 1.419 . S
C1294 C1295 1.362 . S
C1295 H1285 0.930 . S
C1295 C1288 1.409 . S
C1295 C1294 1.362 . S
H1296 C1302 0.930 . S
H1297 C1305 0.930 . S
H1298 C1306 0.930 . S
H1299 C1307 0.930 . S
H1300 C1310 0.930 . S
H1301 C1311 0.930 . S
C1302 H1296 0.930 . S
C1302 C1303 1.355 . S
C1302 C1304 1.415 . S
C1303 C1302 1.355 . S
C1303 C1305 1.419 . S
C1304 C1302 1.415 . S
C1304 C1309 1.425 . S
C1304 C1311 1.409 . S
C1305 H1297 0.930 . S
C1305 C1303 1.419 . S
C1305 C1306 1.362 . S
C1306 H1298 0.930 . S
C1306 C1305 1.362 . S
C1306 C1309 1.409 . S
C1307 H1299 0.930 . S
C1307 C1308 1.355 . S
C1307 C1309 1.415 . S
C1308 C1307 1.355 . S
C1308 C1310 1.419 . S
C1309 C1304 1.425 . S
C1309 C1306 1.409 . S
C1309 C1307 1.415 . S
C1310 H1300 0.930 . S
C1310 C1308 1.419 . S
C1310 C1311 1.362 . S
C1311 H1301 0.930 . S
C1311 C1304 1.409 . S
C1311 C1310 1.362 . S
H1312 C1318 0.930 . S
H1313 C1321 0.930 . S
H1314 C1322 0.930 . S
H1315 C1323 0.930 . S
H1316 C1326 0.930 . S
H1317 C1327 0.930 . S
C1318 H1312 0.930 . S
C1318 C1319 1.355 . S
C1318 C1320 1.415 . S
C1319 C1318 1.355 . S
C1319 C1321 1.419 . S
C1320 C1318 1.415 . S
C1320 C1325 1.425 . S
C1320 C1327 1.409 . S
C1321 H1313 0.930 . S
C1321 C1319 1.419 . S
C1321 C1322 1.362 . S
C1322 H1314 0.930 . S
C1322 C1321 1.362 . S
C1322 C1325 1.409 . S
C1323 H1315 0.930 . S
C1323 C1324 1.355 . S
C1323 C1325 1.415 . S
C1324 C1323 1.355 . S
C1324 C1326 1.419 . S
C1325 C1320 1.425 . S
C1325 C1322 1.409 . S
C1325 C1323 1.415 . S
C1326 H1316 0.930 . S
C1326 C1324 1.419 . S
C1326 C1327 1.362 . S
C1327 H1317 0.930 . S
C1327 C1320 1.409 . S
C1327 C1326 1.362 . S
H1328 C1334 0.930 . S
H1329 C1337 0.930 . S
H1330 C1338 0.930 . S
H1331 C1339 0.930 . S
H1332 C1342 0.930 . S
H1333 C1343 0.930 . S
C1334 H1328 0.930 . S
C1334 C1335 1.355 . S
C1334 C1336 1.415 . S
C1335 C1334 1.355 . S
C1335 C1337 1.419 . S
C1336 C1334 1.415 . S
C1336 C1341 1.425 . S
C1336 C1343 1.409 . S
C1337 H1329 0.930 . S
C1337 C1335 1.419 . S
C1337 C1338 1.362 . S
C1338 H1330 0.930 . S
C1338 C1337 1.362 . S
C1338 C1341 1.409 . S
C1339 H1331 0.930 . S
C1339 C1340 1.355 . S
C1339 C1341 1.415 . S
C1340 C1339 1.355 . S
C1340 C1342 1.419 . S
C1341 C1336 1.425 . S
C1341 C1338 1.409 . S
C1341 C1339 1.415 . S
C1342 H1332 0.930 . S
C1342 C1340 1.419 . S
C1342 C1343 1.362 . S
C1343 H1333 0.930 . S
C1343 C1336 1.409 . S
C1343 C1342 1.362 . S
H1344 C1350 0.930 . S
H1345 C1353 0.930 . S
H1346 C1354 0.930 . S
H1347 C1355 0.930 . S
H1348 C1358 0.930 . S
H1349 C1359 0.930 . S
C1350 H1344 0.930 . S
C1350 C1351 1.355 . S
C1350 C1352 1.415 . S
C1351 C1350 1.355 . S
C1351 C1353 1.419 . S
C1352 C1350 1.415 . S
C1352 C1357 1.425 . S
C1352 C1359 1.409 . S
C1353 H1345 0.930 . S
C1353 C1351 1.419 . S
C1353 C1354 1.362 . S
C1354 H1346 0.930 . S
C1354 C1353 1.362 . S
C1354 C1357 1.409 . S
C1355 H1347 0.930 . S
C1355 C1356 1.355 . S
C1355 C1357 1.415 . S
C1356 C1355 1.355 . S
C1356 C1358 1.419 . S
C1357 C1352 1.425 . S
C1357 C1354 1.409 . S
C1357 C1355 1.415 . S
C1358 H1348 0.930 . S
C1358 C1356 1.419 . S
C1358 C1359 1.362 . S
C1359 H1349 0.930 . S
C1359 C1352 1.409 . S
C1359 C1358 1.362 . S
H1360 C1366 0.930 . S
H1361 C1369 0.930 . S
H1362 C1370 0.930 . S
H1363 C1371 0.930 . S
H1364 C1374 0.930 . S
H1365 C1375 0.930 . S
C1366 H1360 0.930 . S
C1366 C1367 1.355 . S
C1366 C1368 1.415 . S
C1367 C1366 1.355 . S
C1367 C1369 1.419 . S
C1368 C1366 1.415 . S
C1368 C1373 1.425 . S
C1368 C1375 1.409 . S
C1369 H1361 0.930 . S
C1369 C1367 1.419 . S
C1369 C1370 1.362 . S
C1370 H1362 0.930 . S
C1370 C1369 1.362 . S
C1370 C1373 1.409 . S
C1371 H1363 0.930 . S
C1371 C1372 1.355 . S
C1371 C1373 1.415 . S
C1372 C1371 1.355 . S
C1372 C1374 1.419 . S
C1373 C1368 1.425 . S
C1373 C1370 1.409 . S
C1373 C1371 1.415 . S
C1374 H1364 0.930 . S
C1374 C1372 1.419 . S
C1374 C1375 1.362 . S
C1375 H1365 0.930 . S
C1375 C1368 1.409 . S
C1375 C1374 1.362 . S
H1376 C1382 0.930 . S
H1377 C1385 0.930 . S
H1378 C1386 0.930 . S
H1379 C1387 0.930 . S
H1380 C1390 0.930 . S
H1381 C1391 0.930 . S
C1382 H1376 0.930 . S
C1382 C1383 1.355 . S
C1382 C1384 1.415 . S
C1383 C1382 1.355 . S
C1383 C1385 1.419 . S
C1384 C1382 1.415 . S
C1384 C1389 1.425 . S
C1384 C1391 1.409 . S
C1385 H1377 0.930 . S
C1385 C1383 1.419 . S
C1385 C1386 1.362 . S
C1386 H1378 0.930 . S
C1386 C1385 1.362 . S
C1386 C1389 1.409 . S
C1387 H1379 0.930 . S
C1387 C1388 1.355 . S
C1387 C1389 1.415 . S
C1388 C1387 1.355 . S
C1388 C1390 1.419 . S
C1389 C1384 1.425 . S
C1389 C1386 1.409 . S
C1389 C1387 1.415 . S
C1390 H1380 0.930 . S
C1390 C1388 1.419 . S
C1390 C1391 1.362 . S
C1391 H1381 0.930 . S
C1391 C1384 1.409 . S
C1391 C1390 1.362 . S
H1392 C1398 0.930 . S
H1393 C1401 0.930 . S
H1394 C1402 0.930 . S
H1395 C1403 0.930 . S
H1396 C1406 0.930 . S
H1397 C1407 0.930 . S
C1398 H1392 0.930 . S
C1398 C1399 1.355 . S
C1398 C1400 1.415 . S
C1399 C1398 1.355 . S
C1399 C1401 1.419 . S
C1400 C1398 1.415 . S
C1400 C1405 1.425 . S
C1400 C1407 1.409 . S
C1401 H1393 0.930 . S
C1401 C1399 1.419 . S
C1401 C1402 1.362 . S
C1402 H1394 0.930 . S
C1402 C1401 1.362 . S
C1402 C1405 1.409 . S
C1403 H1395 0.930 . S
C1403 C1404 1.355 . S
C1403 C1405 1.415 . S
C1404 C1403 1.355 . S
C1404 C1406 1.419 . S
C1405 C1400 1.425 . S
C1405 C1402 1.409 . S
C1405 C1403 1.415 . S
C1406 H1396 0.930 . S
C1406 C1404 1.419 . S
C1406 C1407 1.362 . S
C1407 H1397 0.930 . S
C1407 C1400 1.409 . S
C1407 C1406 1.362 . S
H1408 C1414 0.930 . S
H1409 C1417 0.930 . S
H1410 C1418 0.930 . S
H1411 C1419 0.930 . S
H1412 C1422 0.930 . S
H1413 C1423 0.930 . S
C1414 H1408 0.930 . S
C1414 C1415 1.355 . S
C1414 C1416 1.415 . S
C1415 C1414 1.355 . S
C1415 C1417 1.419 . S
C1416 C1414 1.415 . S
C1416 C1421 1.425 . S
C1416 C1423 1.409 . S
C1417 H1409 0.930 . S
C1417 C1415 1.419 . S
C1417 C1418 1.362 . S
C1418 H1410 0.930 . S
C1418 C1417 1.362 . S
C1418 C1421 1.409 . S
C1419 H1411 0.930 . S
C1419 C1420 1.355 . S
C1419 C1421 1.415 . S
C1420 C1419 1.355 . S
C1420 C1422 1.419 . S
C1421 C1416 1.425 . S
C1421 C1418 1.409 . S
C1421 C1419 1.415 . S
C1422 H1412 0.930 . S
C1422 C1420 1.419 . S
C1422 C1423 1.362 . S
C1423 H1413 0.930 . S
C1423 C1416 1.409 . S
C1423 C1422 1.362 . S
H1424 C1430 0.930 . S
H1425 C1433 0.930 . S
H1426 C1434 0.930 . S
H1427 C1435 0.930 . S
H1428 C1438 0.930 . S
H1429 C1439 0.930 . S
C1430 H1424 0.930 . S
C1430 C1431 1.355 . S
C1430 C1432 1.415 . S
C1431 C1430 1.355 . S
C1431 C1433 1.419 . S
C1432 C1430 1.415 . S
C1432 C1437 1.425 . S
C1432 C1439 1.409 . S
C1433 H1425 0.930 . S
C1433 C1431 1.419 . S
C1433 C1434 1.362 . S
C1434 H1426 0.930 . S
C1434 C1433 1.362 . S
C1434 C1437 1.409 . S
C1435 H1427 0.930 . S
C1435 C1436 1.355 . S
C1435 C1437 1.415 . S
C1436 C1435 1.355 . S
C1436 C1438 1.419 . S
C1437 C1432 1.425 . S
C1437 C1434 1.409 . S
C1437 C1435 1.415 . S
C1438 H1428 0.930 . S
C1438 C1436 1.419 . S
C1438 C1439 1.362 . S
C1439 H1429 0.930 . S
C1439 C1432 1.409 . S
C1439 C1438 1.362 . S
H1440 C1446 0.930 . S
H1441 C1449 0.930 . S
H1442 C1450 0.930 . S
H1443 C1451 0.930 . S
H1444 C1454 0.930 . S
H1445 C1455 0.930 . S
C1446 H1440 0.930 . S
C1446 C1447 1.355 . S
C1446 C1448 1.415 . S
C1447 C1446 1.355 . S
C1447 C1449 1.419 . S
C1448 C1446 1.415 . S
C1448 C1453 1.425 . S
C1448 C1455 1.409 . S
C1449 H1441 0.930 . S
C1449 C1447 1.419 . S
C1449 C1450 1.362 . S
C1450 H1442 0.930 . S
C1450 C1449 1.362 . S
C1450 C1453 1.409 . S
C1451 H1443 0.930 . S
C1451 C1452 1.355 . S
C1451 C1453 1.415 . S
C1452 C1451 1.355 . S
C1452 C1454 1.419 . S
C1453 C1448 1.425 . S
C1453 C1450 1.409 . S
C1453 C1451 1.415 . S
C1454 H1444 0.930 . S
C1454 C1452 1.419 . S
C1454 C1455 1.362 . S
C1455 H1445 0.930 . S
C1455 C1448 1.409 . S
C1455 C1454 1.362 . S
H1456 C1462 0.930 . S
H1457 C1465 0.939 . S
H1458 C1466 0.930 . S
H1459 C1467 0.930 . S
H1460 C1470 0.930 . S
H1461 C1471 0.930 . S
C1462 H1456 0.930 . S
C1462 C1463 1.355 . S
C1462 C1464 1.415 . S
C1463 C1462 1.355 . S
C1463 C1465 1.419 . S
C1464 C1462 1.415 . S
C1464 C1469 1.425 . S
C1464 C1471 1.409 . S
C1465 H1457 0.939 . S
C1465 C1463 1.419 . S
C1465 C1466 1.362 . S
C1466 H1458 0.930 . S
C1466 C1465 1.362 . S
C1466 C1469 1.409 . S
C1467 H1459 0.930 . S
C1467 C1468 1.355 . S
C1467 C1469 1.415 . S
C1468 C1467 1.355 . S
C1468 C1470 1.419 . S
C1469 C1464 1.425 . S
C1469 C1466 1.409 . S
C1469 C1467 1.415 . S
C1470 H1460 0.930 . S
C1470 C1468 1.419 . S
C1470 C1471 1.362 . S
C1471 H1461 0.930 . S
C1471 C1464 1.409 . S
C1471 C1470 1.362 . S
H1472 C1478 0.930 . S
H1473 C1481 0.930 . S
H1474 C1482 0.930 . S
H1475 C1483 0.930 . S
H1476 C1486 0.930 . S
H1477 C1487 0.930 . S
C1478 H1472 0.930 . S
C1478 C1479 1.355 . S
C1478 C1480 1.415 . S
C1479 C1478 1.355 . S
C1479 C1481 1.419 . S
C1480 C1478 1.415 . S
C1480 C1485 1.425 . S
C1480 C1487 1.409 . S
C1481 H1473 0.930 . S
C1481 C1479 1.419 . S
C1481 C1482 1.362 . S
C1482 H1474 0.930 . S
C1482 C1481 1.362 . S
C1482 C1485 1.409 . S
C1483 H1475 0.930 . S
C1483 C1484 1.355 . S
C1483 C1485 1.415 . S
C1484 C1483 1.355 . S
C1484 C1486 1.419 . S
C1485 C1480 1.425 . S
C1485 C1482 1.409 . S
C1485 C1483 1.415 . S
C1486 H1476 0.930 . S
C1486 C1484 1.419 . S
C1486 C1487 1.362 . S
C1487 H1477 0.930 . S
C1487 C1480 1.409 . S
C1487 C1486 1.362 . S
H1488 C1494 0.930 . S
H1489 C1497 0.930 . S
H1490 C1498 0.930 . S
H1491 C1499 0.930 . S
H1492 C1502 0.930 . S
H1493 C1503 0.930 . S
C1494 H1488 0.930 . S
C1494 C1495 1.355 . S
C1494 C1496 1.415 . S
C1495 C1494 1.355 . S
C1495 C1497 1.419 . S
C1496 C1494 1.415 . S
C1496 C1501 1.425 . S
C1496 C1503 1.409 . S
C1497 H1489 0.930 . S
C1497 C1495 1.419 . S
C1497 C1498 1.362 . S
C1498 H1490 0.930 . S
C1498 C1497 1.362 . S
C1498 C1501 1.409 . S
C1499 H1491 0.930 . S
C1499 C1500 1.355 . S
C1499 C1501 1.415 . S
C1500 C1499 1.355 . S
C1500 C1502 1.419 . S
C1501 C1496 1.425 . S
C1501 C1498 1.409 . S
C1501 C1499 1.415 . S
C1502 H1492 0.930 . S
C1502 C1500 1.419 . S
C1502 C1503 1.362 . S
C1503 H1493 0.930 . S
C1503 C1496 1.409 . S
C1503 C1502 1.362 . S
H1504 C1510 0.930 . S
H1505 C1513 0.930 . S
H1506 C1514 0.930 . S
H1507 C1515 0.930 . S
H1508 C1518 0.930 . S
H1509 C1519 0.930 . S
C1510 H1504 0.930 . S
C1510 C1511 1.355 . S
C1510 C1512 1.415 . S
C1511 C1510 1.355 . S
C1511 C1513 1.419 . S
C1512 C1510 1.415 . S
C1512 C1517 1.425 . S
C1512 C1519 1.409 . S
C1513 H1505 0.930 . S
C1513 C1511 1.419 . S
C1513 C1514 1.362 . S
C1514 H1506 0.930 . S
C1514 C1513 1.362 . S
C1514 C1517 1.409 . S
C1515 H1507 0.930 . S
C1515 C1516 1.355 . S
C1515 C1517 1.415 . S
C1516 C1515 1.355 . S
C1516 C1518 1.419 . S
C1517 C1512 1.425 . S
C1517 C1514 1.409 . S
C1517 C1515 1.415 . S
C1518 H1508 0.930 . S
C1518 C1516 1.419 . S
C1518 C1519 1.362 . S
C1519 H1509 0.930 . S
C1519 C1512 1.409 . S
C1519 C1518 1.362 . S
H1520 C1526 0.930 . S
H1521 C1529 0.930 . S
H1522 C1530 0.930 . S
H1523 C1531 0.930 . S
H1524 C1534 0.930 . S
H1525 C1535 0.930 . S
C1526 H1520 0.930 . S
C1526 C1527 1.355 . S
C1526 C1528 1.415 . S
C1527 C1526 1.355 . S
C1527 C1529 1.419 . S
C1528 C1526 1.415 . S
C1528 C1533 1.425 . S
C1528 C1535 1.409 . S
C1529 H1521 0.930 . S
C1529 C1527 1.419 . S
C1529 C1530 1.362 . S
C1530 H1522 0.930 . S
C1530 C1529 1.362 . S
C1530 C1533 1.409 . S
C1531 H1523 0.930 . S
C1531 C1532 1.355 . S
C1531 C1533 1.415 . S
C1532 C1531 1.355 . S
C1532 C1534 1.419 . S
C1533 C1528 1.425 . S
C1533 C1530 1.409 . S
C1533 C1531 1.415 . S
C1534 H1524 0.930 . S
C1534 C1532 1.419 . S
C1534 C1535 1.362 . S
C1535 H1525 0.930 . S
C1535 C1528 1.409 . S
C1535 C1534 1.362 . S
H1536 C1542 0.930 . S
H1537 C1545 0.930 . S
H1538 C1546 0.930 . S
H1539 C1547 0.930 . S
H1540 C1550 0.930 . S
H1541 C1551 0.930 . S
C1542 H1536 0.930 . S
C1542 C1543 1.355 . S
C1542 C1544 1.415 . S
C1543 C1542 1.355 . S
C1543 C1545 1.419 . S
C1544 C1542 1.415 . S
C1544 C1549 1.425 . S
C1544 C1551 1.409 . S
C1545 H1537 0.930 . S
C1545 C1543 1.419 . S
C1545 C1546 1.362 . S
C1546 H1538 0.930 . S
C1546 C1545 1.362 . S
C1546 C1549 1.409 . S
C1547 H1539 0.930 . S
C1547 C1548 1.355 . S
C1547 C1549 1.415 . S
C1548 C1547 1.355 . S
C1548 C1550 1.419 . S
C1549 C1544 1.425 . S
C1549 C1546 1.409 . S
C1549 C1547 1.415 . S
C1550 H1540 0.930 . S
C1550 C1548 1.419 . S
C1550 C1551 1.362 . S
C1551 H1541 0.930 . S
C1551 C1544 1.409 . S
C1551 C1550 1.362 . S
H1552 C1558 0.930 . S
H1553 C1561 0.930 . S
H1554 C1562 0.930 . S
H1555 C1563 0.930 . S
H1556 C1566 0.930 . S
H1557 C1567 0.930 . S
C1558 H1552 0.930 . S
C1558 C1559 1.355 . S
C1558 C1560 1.415 . S
C1559 C1558 1.355 . S
C1559 C1561 1.419 . S
C1560 C1558 1.415 . S
C1560 C1565 1.425 . S
C1560 C1567 1.409 . S
C1561 H1553 0.930 . S
C1561 C1559 1.419 . S
C1561 C1562 1.362 . S
C1562 H1554 0.930 . S
C1562 C1561 1.362 . S
C1562 C1565 1.409 . S
C1563 H1555 0.930 . S
C1563 C1564 1.355 . S
C1563 C1565 1.415 . S
C1564 C1563 1.355 . S
C1564 C1566 1.419 . S
C1565 C1560 1.425 . S
C1565 C1562 1.409 . S
C1565 C1563 1.415 . S
C1566 H1556 0.930 . S
C1566 C1564 1.419 . S
C1566 C1567 1.362 . S
C1567 H1557 0.930 . S
C1567 C1560 1.409 . S
C1567 C1566 1.362 . S
H1568 C1574 0.930 . S
H1569 C1577 0.930 . S
H1570 C1578 0.930 . S
H1571 C1579 0.930 . S
H1572 C1582 0.930 . S
H1573 C1583 0.930 . S
C1574 H1568 0.930 . S
C1574 C1575 1.355 . S
C1574 C1576 1.415 . S
C1575 C1574 1.355 . S
C1575 C1577 1.419 . S
C1576 C1574 1.415 . S
C1576 C1581 1.425 . S
C1576 C1583 1.409 . S
C1577 H1569 0.930 . S
C1577 C1575 1.419 . S
C1577 C1578 1.362 . S
C1578 H1570 0.930 . S
C1578 C1577 1.362 . S
C1578 C1581 1.409 . S
C1579 H1571 0.930 . S
C1579 C1580 1.355 . S
C1579 C1581 1.415 . S
C1580 C1579 1.355 . S
C1580 C1582 1.419 . S
C1581 C1576 1.425 . S
C1581 C1578 1.409 . S
C1581 C1579 1.415 . S
C1582 H1572 0.930 . S
C1582 C1580 1.419 . S
C1582 C1583 1.362 . S
C1583 H1573 0.930 . S
C1583 C1576 1.409 . S
C1583 C1582 1.362 . S
H1584 C1590 0.930 . S
H1585 C1593 0.930 . S
H1586 C1594 0.930 . S
H1587 C1595 0.930 . S
H1588 C1598 0.930 . S
H1589 C1599 0.930 . S
C1590 H1584 0.930 . S
C1590 C1591 1.355 . S
C1590 C1592 1.415 . S
C1591 C1590 1.355 . S
C1591 C1593 1.419 . S
C1592 C1590 1.415 . S
C1592 C1597 1.425 . S
C1592 C1599 1.409 . S
C1593 H1585 0.930 . S
C1593 C1591 1.419 . S
C1593 C1594 1.362 . S
C1594 H1586 0.930 . S
C1594 C1593 1.362 . S
C1594 C1597 1.409 . S
C1595 H1587 0.930 . S
C1595 C1596 1.355 . S
C1595 C1597 1.415 . S
C1596 C1595 1.355 . S
C1596 C1598 1.419 . S
C1597 C1592 1.425 . S
C1597 C1594 1.409 . S
C1597 C1595 1.415 . S
C1598 H1588 0.930 . S
C1598 C1596 1.419 . S
C1598 C1599 1.362 . S
C1599 H1589 0.930 . S
C1599 C1592 1.409 . S
C1599 C1598 1.362 . S
H1600 C1606 0.930 . S
H1601 C1609 0.930 . S
H1602 C1610 0.930 . S
H1603 C1611 0.930 . S
H1604 C1614 0.930 . S
H1605 C1615 0.930 . S
C1606 H1600 0.930 . S
C1606 C1607 1.355 . S
C1606 C1608 1.415 . S
C1607 C1606 1.355 . S
C1607 C1609 1.419 . S
C1608 C1606 1.415 . S
C1608 C1613 1.425 . S
C1608 C1615 1.409 . S
C1609 H1601 0.930 . S
C1609 C1607 1.419 . S
C1609 C1610 1.362 . S
C1610 H1602 0.930 . S
C1610 C1609 1.362 . S
C1610 C1613 1.409 . S
C1611 H1603 0.930 . S
C1611 C1612 1.355 . S
C1611 C1613 1.415 . S
C1612 C1611 1.355 . S
C1612 C1614 1.419 . S
C1613 C1608 1.425 . S
C1613 C1610 1.409 . S
C1613 C1611 1.415 . S
C1614 H1604 0.930 . S
C1614 C1612 1.419 . S
C1614 C1615 1.362 . S
C1615 H1605 0.930 . S
C1615 C1608 1.409 . S
C1615 C1614 1.362 . S
H1616 C1622 0.930 . S
H1617 C1625 0.930 . S
H1618 C1626 0.930 . S
H1619 C1627 0.930 . S
H1620 C1630 0.930 . S
H1621 C1631 0.930 . S
C1622 H1616 0.930 . S
C1622 C1623 1.355 . S
C1622 C1624 1.415 . S
C1623 C1622 1.355 . S
C1623 C1625 1.419 . S
C1624 C1622 1.415 . S
C1624 C1629 1.425 . S
C1624 C1631 1.409 . S
C1625 H1617 0.930 . S
C1625 C1623 1.419 . S
C1625 C1626 1.362 . S
C1626 H1618 0.930 . S
C1626 C1625 1.362 . S
C1626 C1629 1.409 . S
C1627 H1619 0.930 . S
C1627 C1628 1.355 . S
C1627 C1629 1.415 . S
C1628 C1627 1.355 . S
C1628 C1630 1.419 . S
C1629 C1624 1.425 . S
C1629 C1626 1.409 . S
C1629 C1627 1.415 . S
C1630 H1620 0.930 . S
C1630 C1628 1.419 . S
C1630 C1631 1.362 . S
C1631 H1621 0.930 . S
C1631 C1624 1.409 . S
C1631 C1630 1.362 . S
H1632 C1638 0.930 . S
H1633 C1641 0.930 . S
H1634 C1642 0.930 . S
H1635 C1643 0.930 . S
H1636 C1646 0.930 . S
H1637 C1647 0.930 . S
C1638 H1632 0.930 . S
C1638 C1639 1.355 . S
C1638 C1640 1.415 . S
C1639 C1638 1.355 . S
C1639 C1641 1.419 . S
C1640 C1638 1.415 . S
C1640 C1645 1.425 . S
C1640 C1647 1.409 . S
C1641 H1633 0.930 . S
C1641 C1639 1.419 . S
C1641 C1642 1.362 . S
C1642 H1634 0.930 . S
C1642 C1641 1.362 . S
C1642 C1645 1.409 . S
C1643 H1635 0.930 . S
C1643 C1644 1.355 . S
C1643 C1645 1.415 . S
C1644 C1643 1.355 . S
C1644 C1646 1.419 . S
C1645 C1640 1.425 . S
C1645 C1642 1.409 . S
C1645 C1643 1.415 . S
C1646 H1636 0.930 . S
C1646 C1644 1.419 . S
C1646 C1647 1.362 . S
C1647 H1637 0.930 . S
C1647 C1640 1.409 . S
C1647 C1646 1.362 . S
H1648 C1654 0.930 . S
H1649 C1657 0.930 . S
H1650 C1658 0.930 . S
H1651 C1659 0.930 . S
H1652 C1662 0.930 . S
H1653 C1663 0.930 . S
C1654 H1648 0.930 . S
C1654 C1655 1.355 . S
C1654 C1656 1.415 . S
C1655 C1654 1.355 . S
C1655 C1657 1.419 . S
C1656 C1654 1.415 . S
C1656 C1661 1.425 . S
C1656 C1663 1.409 . S
C1657 H1649 0.930 . S
C1657 C1655 1.419 . S
C1657 C1658 1.362 . S
C1658 H1650 0.930 . S
C1658 C1657 1.362 . S
C1658 C1661 1.409 . S
C1659 H1651 0.930 . S
C1659 C1660 1.355 . S
C1659 C1661 1.415 . S
C1660 C1659 1.355 . S
C1660 C1662 1.419 . S
C1661 C1656 1.425 . S
C1661 C1658 1.409 . S
C1661 C1659 1.415 . S
C1662 H1652 0.930 . S
C1662 C1660 1.419 . S
C1662 C1663 1.362 . S
C1663 H1653 0.930 . S
C1663 C1656 1.409 . S
C1663 C1662 1.362 . S
H1664 C1670 0.930 . S
H1665 C1673 0.930 . S
H1666 C1674 0.930 . S
H1667 C1675 0.930 . S
H1668 C1678 0.930 . S
H1669 C1679 0.930 . S
C1670 H1664 0.930 . S
C1670 C1671 1.355 . S
C1670 C1672 1.415 . S
C1671 C1670 1.355 . S
C1671 C1673 1.419 . S
C1672 C1670 1.415 . S
C1672 C1677 1.425 . S
C1672 C1679 1.409 . S
C1673 H1665 0.930 . S
C1673 C1671 1.419 . S
C1673 C1674 1.362 . S
C1674 H1666 0.930 . S
C1674 C1673 1.362 . S
C1674 C1677 1.409 . S
C1675 H1667 0.930 . S
C1675 C1676 1.355 . S
C1675 C1677 1.415 . S
C1676 C1675 1.355 . S
C1676 C1678 1.419 . S
C1677 C1672 1.425 . S
C1677 C1674 1.409 . S
C1677 C1675 1.415 . S
C1678 H1668 0.930 . S
C1678 C1676 1.419 . S
C1678 C1679 1.362 . S
C1679 H1669 0.930 . S
C1679 C1672 1.409 . S
C1679 C1678 1.362 . S
H1680 C1686 0.930 . S
H1681 C1689 0.930 . S
H1682 C1690 0.930 . S
H1683 C1691 0.930 . S
H1684 C1694 0.930 . S
H1685 C1695 0.930 . S
C1686 H1680 0.930 . S
C1686 C1687 1.355 . S
C1686 C1688 1.415 . S
C1687 C1686 1.355 . S
C1687 C1689 1.419 . S
C1688 C1686 1.415 . S
C1688 C1693 1.425 . S
C1688 C1695 1.409 . S
C1689 H1681 0.930 . S
C1689 C1687 1.419 . S
C1689 C1690 1.362 . S
C1690 H1682 0.930 . S
C1690 C1689 1.362 . S
C1690 C1693 1.409 . S
C1691 H1683 0.930 . S
C1691 C1692 1.355 . S
C1691 C1693 1.415 . S
C1692 C1691 1.355 . S
C1692 C1694 1.419 . S
C1693 C1688 1.425 . S
C1693 C1690 1.409 . S
C1693 C1691 1.415 . S
C1694 H1684 0.930 . S
C1694 C1692 1.419 . S
C1694 C1695 1.362 . S
C1695 H1685 0.930 . S
C1695 C1688 1.409 . S
C1695 C1694 1.362 . S
H1696 C1702 0.930 . S
H1697 C1705 0.930 . S
H1698 C1706 0.930 . S
H1699 C1707 0.930 . S
H1700 C1710 0.930 . S
H1701 C1711 0.930 . S
C1702 H1696 0.930 . S
C1702 C1703 1.355 . S
C1702 C1704 1.415 . S
C1703 C1702 1.355 . S
C1703 C1705 1.419 . S
C1704 C1702 1.415 . S
C1704 C1709 1.425 . S
C1704 C1711 1.409 . S
C1705 H1697 0.930 . S
C1705 C1703 1.419 . S
C1705 C1706 1.362 . S
C1706 H1698 0.930 . S
C1706 C1705 1.362 . S
C1706 C1709 1.409 . S
C1707 H1699 0.930 . S
C1707 C1708 1.355 . S
C1707 C1709 1.415 . S
C1708 C1707 1.355 . S
C1708 C1710 1.419 . S
C1709 C1704 1.425 . S
C1709 C1706 1.409 . S
C1709 C1707 1.415 . S
C1710 H1700 0.930 . S
C1710 C1708 1.419 . S
C1710 C1711 1.362 . S
C1711 H1701 0.930 . S
C1711 C1704 1.409 . S
C1711 C1710 1.362 . S
H1712 C1718 0.930 . S
H1713 C1721 0.930 . S
H1714 C1722 0.930 . S
H1715 C1723 0.930 . S
H1716 C1726 0.930 . S
H1717 C1727 0.930 . S
C1718 H1712 0.930 . S
C1718 C1719 1.355 . S
C1718 C1720 1.415 . S
C1719 C1718 1.355 . S
C1719 C1721 1.419 . S
C1720 C1718 1.415 . S
C1720 C1725 1.425 . S
C1720 C1727 1.409 . S
C1721 H1713 0.930 . S
C1721 C1719 1.419 . S
C1721 C1722 1.362 . S
C1722 H1714 0.930 . S
C1722 C1721 1.362 . S
C1722 C1725 1.409 . S
C1723 H1715 0.930 . S
C1723 C1724 1.355 . S
C1723 C1725 1.415 . S
C1724 C1723 1.355 . S
C1724 C1726 1.419 . S
C1725 C1720 1.425 . S
C1725 C1722 1.409 . S
C1725 C1723 1.415 . S
C1726 H1716 0.930 . S
C1726 C1724 1.419 . S
C1726 C1727 1.362 . S
C1727 H1717 0.930 . S
C1727 C1720 1.409 . S
C1727 C1726 1.362 . S
H1728 C1734 0.930 . S
H1729 C1737 0.930 . S
H1730 C1738 0.930 . S
H1731 C1739 0.930 . S
H1732 C1742 0.930 . S
H1733 C1743 0.930 . S
C1734 H1728 0.930 . S
C1734 C1735 1.355 . S
C1734 C1736 1.415 . S
C1735 C1734 1.355 . S
C1735 C1737 1.419 . S
C1736 C1734 1.415 . S
C1736 C1741 1.425 . S
C1736 C1743 1.409 . S
C1737 H1729 0.930 . S
C1737 C1735 1.419 . S
C1737 C1738 1.362 . S
C1738 H1730 0.930 . S
C1738 C1737 1.362 . S
C1738 C1741 1.409 . S
C1739 H1731 0.930 . S
C1739 C1740 1.355 . S
C1739 C1741 1.415 . S
C1740 C1739 1.355 . S
C1740 C1742 1.419 . S
C1741 C1736 1.425 . S
C1741 C1738 1.409 . S
C1741 C1739 1.415 . S
C1742 H1732 0.930 . S
C1742 C1740 1.419 . S
C1742 C1743 1.362 . S
C1743 H1733 0.930 . S
C1743 C1736 1.409 . S
C1743 C1742 1.362 . S
H1744 C1750 0.930 . S
H1745 C1753 0.930 . S
H1746 C1754 0.930 . S
H1747 C1755 0.930 . S
H1748 C1758 0.930 . S
H1749 C1759 0.930 . S
C1750 H1744 0.930 . S
C1750 C1751 1.355 . S
C1750 C1752 1.415 . S
C1751 C1750 1.355 . S
C1751 C1753 1.419 . S
C1752 C1750 1.415 . S
C1752 C1757 1.425 . S
C1752 C1759 1.409 . S
C1753 H1745 0.930 . S
C1753 C1751 1.419 . S
C1753 C1754 1.362 . S
C1754 H1746 0.930 . S
C1754 C1753 1.362 . S
C1754 C1757 1.409 . S
C1755 H1747 0.930 . S
C1755 C1756 1.355 . S
C1755 C1757 1.415 . S
C1756 C1755 1.355 . S
C1756 C1758 1.419 . S
C1757 C1752 1.425 . S
C1757 C1754 1.409 . S
C1757 C1755 1.415 . S
C1758 H1748 0.930 . S
C1758 C1756 1.419 . S
C1758 C1759 1.362 . S
C1759 H1749 0.930 . S
C1759 C1752 1.409 . S
C1759 C1758 1.362 . S
H1760 C1766 0.930 . S
H1761 C1769 0.930 . S
H1762 C1770 0.930 . S
H1763 C1771 0.930 . S
H1764 C1774 0.930 . S
H1765 C1775 0.930 . S
C1766 H1760 0.930 . S
C1766 C1767 1.355 . S
C1766 C1768 1.415 . S
C1767 C1766 1.355 . S
C1767 C1769 1.419 . S
C1768 C1766 1.415 . S
C1768 C1773 1.425 . S
C1768 C1775 1.409 . S
C1769 H1761 0.930 . S
C1769 C1767 1.419 . S
C1769 C1770 1.362 . S
C1770 H1762 0.930 . S
C1770 C1769 1.362 . S
C1770 C1773 1.409 . S
C1771 H1763 0.930 . S
C1771 C1772 1.355 . S
C1771 C1773 1.415 . S
C1772 C1771 1.355 . S
C1772 C1774 1.419 . S
C1773 C1768 1.425 . S
C1773 C1770 1.409 . S
C1773 C1771 1.415 . S
C1774 H1764 0.930 . S
C1774 C1772 1.419 . S
C1774 C1775 1.362 . S
C1775 H1765 0.930 . S
C1775 C1768 1.409 . S
C1775 C1774 1.362 . S
H1776 C1782 0.930 . S
H1777 C1785 0.930 . S
H1778 C1786 0.930 . S
H1779 C1787 0.930 . S
H1780 C1790 0.930 . S
H1781 C1791 0.930 . S
C1782 H1776 0.930 . S
C1782 C1783 1.355 . S
C1782 C1784 1.415 . S
C1783 C1782 1.355 . S
C1783 C1785 1.419 . S
C1784 C1782 1.415 . S
C1784 C1789 1.425 . S
C1784 C1791 1.409 . S
C1785 H1777 0.930 . S
C1785 C1783 1.419 . S
C1785 C1786 1.362 . S
C1786 H1778 0.930 . S
C1786 C1785 1.362 . S
C1786 C1789 1.409 . S
C1787 H1779 0.930 . S
C1787 C1788 1.355 . S
C1787 C1789 1.415 . S
C1788 C1787 1.355 . S
C1788 C1790 1.419 . S
C1789 C1784 1.425 . S
C1789 C1786 1.409 . S
C1789 C1787 1.415 . S
C1790 H1780 0.930 . S
C1790 C1788 1.419 . S
C1790 C1791 1.362 . S
C1791 H1781 0.930 . S
C1791 C1784 1.409 . S
C1791 C1790 1.362 . S
H1792 C1798 0.930 . S
H1793 C1801 0.930 . S
H1794 C1802 0.930 . S
H1795 C1803 0.930 . S
H1796 C1806 0.930 . S
H1797 C1807 0.930 . S
C1798 H1792 0.930 . S
C1798 C1799 1.355 . S
C1798 C1800 1.415 . S
C1799 C1798 1.355 . S
C1799 C1801 1.419 . S
C1800 C1798 1.415 . S
C1800 C1805 1.425 . S
C1800 C1807 1.409 . S
C1801 H1793 0.930 . S
C1801 C1799 1.419 . S
C1801 C1802 1.362 . S
C1802 H1794 0.930 . S
C1802 C1801 1.362 . S
C1802 C1805 1.409 . S
C1803 H1795 0.930 . S
C1803 C1804 1.355 . S
C1803 C1805 1.415 . S
C1804 C1803 1.355 . S
C1804 C1806 1.419 . S
C1805 C1800 1.425 . S
C1805 C1802 1.409 . S
C1805 C1803 1.415 . S
C1806 H1796 0.930 . S
C1806 C1804 1.419 . S
C1806 C1807 1.362 . S
C1807 H1797 0.930 . S
C1807 C1800 1.409 . S
C1807 C1806 1.362 . S
H1808 C1814 0.930 . S
H1809 C1817 0.930 . S
H1810 C1818 0.930 . S
H1811 C1819 0.930 . S
H1812 C1822 0.930 . S
H1813 C1823 0.930 . S
C1814 H1808 0.930 . S
C1814 C1815 1.355 . S
C1814 C1816 1.415 . S
C1815 C1814 1.355 . S
C1815 C1817 1.419 . S
C1816 C1814 1.415 . S
C1816 C1821 1.425 . S
C1816 C1823 1.409 . S
C1817 H1809 0.930 . S
C1817 C1815 1.419 . S
C1817 C1818 1.362 . S
C1818 H1810 0.930 . S
C1818 C1817 1.362 . S
C1818 C1821 1.409 . S
C1819 H1811 0.930 . S
C1819 C1820 1.355 . S
C1819 C1821 1.415 . S
C1820 C1819 1.355 . S
C1820 C1822 1.419 . S
C1821 C1816 1.425 . S
C1821 C1818 1.409 . S
C1821 C1819 1.415 . S
C1822 H1812 0.930 . S
C1822 C1820 1.419 . S
C1822 C1823 1.362 . S
C1823 H1813 0.930 . S
C1823 C1816 1.409 . S
C1823 C1822 1.362 . S
H1824 C1830 0.930 . S
H1825 C1833 0.930 . S
H1826 C1834 0.930 . S
H1827 C1835 0.930 . S
H1828 C1838 0.930 . S
H1829 C1839 0.930 . S
C1830 H1824 0.930 . S
C1830 C1831 1.355 . S
C1830 C1832 1.415 . S
C1831 C1830 1.355 . S
C1831 C1833 1.419 . S
C1832 C1830 1.415 . S
C1832 C1837 1.425 . S
C1832 C1839 1.409 . S
C1833 H1825 0.930 . S
C1833 C1831 1.419 . S
C1833 C1834 1.362 . S
C1834 H1826 0.930 . S
C1834 C1833 1.362 . S
C1834 C1837 1.409 . S
C1835 H1827 0.930 . S
C1835 C1836 1.355 . S
C1835 C1837 1.415 . S
C1836 C1835 1.355 . S
C1836 C1838 1.419 . S
C1837 C1832 1.425 . S
C1837 C1834 1.409 . S
C1837 C1835 1.415 . S
C1838 H1828 0.930 . S
C1838 C1836 1.419 . S
C1838 C1839 1.362 . S
C1839 H1829 0.930 . S
C1839 C1832 1.409 . S
C1839 C1838 1.362 . S
H1840 C1846 0.930 . S
H1841 C1849 0.930 . S
H1842 C1850 0.930 . S
H1843 C1851 0.930 . S
H1844 C1854 0.930 . S
H1845 C1855 0.930 . S
C1846 H1840 0.930 . S
C1846 C1847 1.355 . S
C1846 C1848 1.415 . S
C1847 C1846 1.355 . S
C1847 C1849 1.419 . S
C1848 C1846 1.415 . S
C1848 C1853 1.425 . S
C1848 C1855 1.409 . S
C1849 H1841 0.930 . S
C1849 C1847 1.419 . S
C1849 C1850 1.362 . S
C1850 H1842 0.930 . S
C1850 C1849 1.362 . S
C1850 C1853 1.409 . S
C1851 H1843 0.930 . S
C1851 C1852 1.355 . S
C1851 C1853 1.415 . S
C1852 C1851 1.355 . S
C1852 C1854 1.419 . S
C1853 C1848 1.425 . S
C1853 C1850 1.409 . S
C1853 C1851 1.415 . S
C1854 H1844 0.930 . S
C1854 C1852 1.419 . S
C1854 C1855 1.362 . S
C1855 H1845 0.930 . S
C1855 C1848 1.409 . S
C1855 C1854 1.362 . S
H1856 C1862 0.930 . S
H1857 C1865 0.930 . S
H1858 C1866 0.930 . S
H1859 C1867 0.930 . S
H1860 C1870 0.930 . S
H1861 C1871 0.930 . S
C1862 H1856 0.930 . S
C1862 C1863 1.355 . S
C1862 C1864 1.415 . S
C1863 C1862 1.355 . S
C1863 C1865 1.419 . S
C1864 C1862 1.415 . S
C1864 C1869 1.425 . S
C1864 C1871 1.409 . S
C1865 H1857 0.930 . S
C1865 C1863 1.419 . S
C1865 C1866 1.362 . S
C1866 H1858 0.930 . S
C1866 C1865 1.362 . S
C1866 C1869 1.409 . S
C1867 H1859 0.930 . S
C1867 C1868 1.355 . S
C1867 C1869 1.415 . S
C1868 C1867 1.355 . S
C1868 C1870 1.419 . S
C1869 C1864 1.425 . S
C1869 C1866 1.409 . S
C1869 C1867 1.415 . S
C1870 H1860 0.930 . S
C1870 C1868 1.419 . S
C1870 C1871 1.362 . S
C1871 H1861 0.930 . S
C1871 C1864 1.409 . S
C1871 C1870 1.362 . S
H1872 C1878 0.930 . S
H1873 C1881 0.930 . S
H1874 C1882 0.930 . S
H1875 C1883 0.930 . S
H1876 C1886 0.930 . S
H1877 C1887 0.930 . S
C1878 H1872 0.930 . S
C1878 C1879 1.355 . S
C1878 C1880 1.415 . S
C1879 C1878 1.355 . S
C1879 C1881 1.419 . S
C1880 C1878 1.415 . S
C1880 C1885 1.425 . S
C1880 C1887 1.409 1_554 S
C1881 H1873 0.930 . S
C1881 C1879 1.419 . S
C1881 C1882 1.362 . S
C1882 H1874 0.930 . S
C1882 C1881 1.362 . S
C1882 C1885 1.409 . S
C1883 H1875 0.930 . S
C1883 C1884 1.355 1_554 S
C1883 C1885 1.415 . S
C1884 C1883 1.355 1_556 S
C1884 C1886 1.419 . S
C1885 C1880 1.425 . S
C1885 C1882 1.409 . S
C1885 C1883 1.415 . S
C1886 H1876 0.930 . S
C1886 C1884 1.419 . S
C1886 C1887 1.362 . S
C1887 H1877 0.930 . S
C1887 C1880 1.409 1_556 S
C1887 C1886 1.362 . S
H1888 C1894 0.930 . S
H1889 C1897 0.930 . S
H1890 C1898 0.930 . S
H1891 C1899 0.930 . S
H1892 C1902 0.930 . S
H1893 C1903 0.930 . S
C1894 H1888 0.930 . S
C1894 C1895 1.355 1_455 S
C1894 C1896 1.415 . S
C1895 C1894 1.355 1_655 S
C1895 C1897 1.419 . S
C1896 C1894 1.415 . S
C1896 C1901 1.425 . S
C1896 C1903 1.409 . S
C1897 H1889 0.930 . S
C1897 C1895 1.419 . S
C1897 C1898 1.362 . S
C1898 H1890 0.930 . S
C1898 C1897 1.362 . S
C1898 C1901 1.409 1_655 S
C1899 H1891 0.930 . S
C1899 C1900 1.355 . S
C1899 C1901 1.415 . S
C1900 C1899 1.355 . S
C1900 C1902 1.419 . S
C1901 C1896 1.425 . S
C1901 C1898 1.409 1_455 S
C1901 C1899 1.415 . S
C1902 H1892 0.930 . S
C1902 C1900 1.419 . S
C1902 C1903 1.362 . S
C1903 H1893 0.930 . S
C1903 C1896 1.409 . S
C1903 C1902 1.362 . S
H1904 C1910 0.930 . S
H1905 C1913 0.930 . S
H1906 C1914 0.930 . S
H1907 C1915 0.930 . S
H1908 C1918 0.930 . S
H1909 C1919 0.930 . S
C1910 H1904 0.930 . S
C1910 C1911 1.355 . S
C1910 C1912 1.415 . S
C1911 C1910 1.355 . S
C1911 C1913 1.419 . S
C1912 C1910 1.415 . S
C1912 C1917 1.425 . S
C1912 C1919 1.409 . S
C1913 H1905 0.930 . S
C1913 C1911 1.419 . S
C1913 C1914 1.362 . S
C1914 H1906 0.930 . S
C1914 C1913 1.362 . S
C1914 C1917 1.409 . S
C1915 H1907 0.930 . S
C1915 C1916 1.355 . S
C1915 C1917 1.415 . S
C1916 C1915 1.355 . S
C1916 C1918 1.419 . S
C1917 C1912 1.425 . S
C1917 C1914 1.409 . S
C1917 C1915 1.415 . S
C1918 H1908 0.930 . S
C1918 C1916 1.419 . S
C1918 C1919 1.362 . S
C1919 H1909 0.930 . S
C1919 C1912 1.409 . S
C1919 C1918 1.362 . S
H1920 C1926 0.930 . S
H1921 C1929 0.930 . S
H1922 C1930 0.930 . S
H1923 C1931 0.930 . S
H1924 C1934 0.930 . S
H1925 C1935 0.930 . S
C1926 H1920 0.930 . S
C1926 C1927 1.355 . S
C1926 C1928 1.415 . S
C1927 C1926 1.355 . S
C1927 C1929 1.419 . S
C1928 C1926 1.415 . S
C1928 C1933 1.425 . S
C1928 C1935 1.409 . S
C1929 H1921 0.930 . S
C1929 C1927 1.419 . S
C1929 C1930 1.362 . S
C1930 H1922 0.930 . S
C1930 C1929 1.362 . S
C1930 C1933 1.409 . S
C1931 H1923 0.930 . S
C1931 C1932 1.355 . S
C1931 C1933 1.415 . S
C1932 C1931 1.355 . S
C1932 C1934 1.419 . S
C1933 C1928 1.425 . S
C1933 C1930 1.409 . S
C1933 C1931 1.415 . S
C1934 H1924 0.930 . S
C1934 C1932 1.419 . S
C1934 C1935 1.362 . S
C1935 H1925 0.930 . S
C1935 C1928 1.409 . S
C1935 C1934 1.362 . S
H1936 C1942 0.930 . S
H1937 C1945 0.930 . S
H1938 C1946 0.930 . S
H1939 C1947 0.930 . S
H1940 C1950 0.930 . S
H1941 C1951 0.930 . S
C1942 H1936 0.930 . S
C1942 C1943 1.355 . S
C1942 C1944 1.415 . S
C1943 C1942 1.355 . S
C1943 C1945 1.419 . S
C1944 C1942 1.415 . S
C1944 C1949 1.425 . S
C1944 C1951 1.409 . S
C1945 H1937 0.930 . S
C1945 C1943 1.419 . S
C1945 C1946 1.362 . S
C1946 H1938 0.930 . S
C1946 C1945 1.362 . S
C1946 C1949 1.409 . S
C1947 H1939 0.930 . S
C1947 C1948 1.355 . S
C1947 C1949 1.415 . S
C1948 C1947 1.355 . S
C1948 C1950 1.419 . S
C1949 C1944 1.425 . S
C1949 C1946 1.409 . S
C1949 C1947 1.415 . S
C1950 H1940 0.930 . S
C1950 C1948 1.419 . S
C1950 C1951 1.362 . S
C1951 H1941 0.930 . S
C1951 C1944 1.409 . S
C1951 C1950 1.362 . S
H1952 C1958 0.930 . S
H1953 C1961 0.930 . S
H1954 C1962 0.930 . S
H1955 C1963 0.930 . S
H1956 C1966 0.930 . S
H1957 C1967 0.930 . S
C1958 H1952 0.930 . S
C1958 C1959 1.355 . S
C1958 C1960 1.415 . S
C1959 C1958 1.355 . S
C1959 C1961 1.419 . S
C1960 C1958 1.415 . S
C1960 C1965 1.425 . S
C1960 C1967 1.409 . S
C1961 H1953 0.930 . S
C1961 C1959 1.419 . S
C1961 C1962 1.362 . S
C1962 H1954 0.930 . S
C1962 C1961 1.362 . S
C1962 C1965 1.409 . S
C1963 H1955 0.930 . S
C1963 C1964 1.355 . S
C1963 C1965 1.415 . S
C1964 C1963 1.355 . S
C1964 C1966 1.419 . S
C1965 C1960 1.425 . S
C1965 C1962 1.409 . S
C1965 C1963 1.415 . S
C1966 H1956 0.930 . S
C1966 C1964 1.419 . S
C1966 C1967 1.362 . S
C1967 H1957 0.930 . S
C1967 C1960 1.409 . S
C1967 C1966 1.362 . S
H1968 C1974 0.930 . S
H1969 C1977 0.930 . S
H1970 C1978 0.930 . S
H1971 C1979 0.930 . S
H1972 C1982 0.930 . S
H1973 C1983 0.918 1_565 S
C1974 H1968 0.930 . S
C1974 C1975 1.361 . S
C1974 C1976 1.415 1_565 S
C1975 C1974 1.361 . S
C1975 C1977 1.395 1_565 S
C1976 C1974 1.415 1_545 S
C1976 C1981 1.425 . S
C1976 C1983 1.409 . S
C1977 H1969 0.930 . S
C1977 C1975 1.395 1_545 S
C1977 C1978 1.362 . S
C1978 H1970 0.930 . S
C1978 C1977 1.362 . S
C1978 C1981 1.409 . S
C1979 H1971 0.930 . S
C1979 C1980 1.355 . S
C1979 C1981 1.415 . S
C1980 C1979 1.355 . S
C1980 C1982 1.419 . S
C1981 C1976 1.425 . S
C1981 C1978 1.409 . S
C1981 C1979 1.415 . S
C1982 H1972 0.930 . S
C1982 C1980 1.419 . S
C1982 C1983 1.362 . S
C1983 H1973 0.918 1_545 S
C1983 C1976 1.409 . S
C1983 C1982 1.362 . S
H1984 C1990 0.930 . S
H1985 C1993 0.930 . S
H1986 C1994 0.930 . S
H1987 C1995 0.930 . S
H1988 C1998 0.930 . S
H1989 C1999 0.930 . S
C1990 H1984 0.930 . S
C1990 C1991 1.355 . S
C1990 C1992 1.415 . S
C1991 C1990 1.355 . S
C1991 C1993 1.419 . S
C1992 C1990 1.415 . S
C1992 C1997 1.425 . S
C1992 C1999 1.409 . S
C1993 H1985 0.930 . S
C1993 C1991 1.419 . S
C1993 C1994 1.362 . S
C1994 H1986 0.930 . S
C1994 C1993 1.362 . S
C1994 C1997 1.409 . S
C1995 H1987 0.930 . S
C1995 C1996 1.355 . S
C1995 C1997 1.415 . S
C1996 C1995 1.355 . S
C1996 C1998 1.419 . S
C1997 C1992 1.425 . S
C1997 C1994 1.409 . S
C1997 C1995 1.415 . S
C1998 H1988 0.930 . S
C1998 C1996 1.419 . S
C1998 C1999 1.362 . S
C1999 H1989 0.930 . S
C1999 C1992 1.409 . S
C1999 C1998 1.362 . S
H2000 C2006 0.930 . S
H2001 C2009 0.930 . S
H2002 C2010 0.930 . S
H2003 C2011 0.930 . S
H2004 C2014 0.930 . S
H2005 C2015 0.930 . S
C2006 H2000 0.930 . S
C2006 C2007 1.355 . S
C2006 C2008 1.415 . S
C2007 C2006 1.355 . S
C2007 C2009 1.419 . S
C2008 C2006 1.415 . S
C2008 C2013 1.425 . S
C2008 C2015 1.409 . S
C2009 H2001 0.930 . S
C2009 C2007 1.419 . S
C2009 C2010 1.362 . S
C2010 H2002 0.930 . S
C2010 C2009 1.362 . S
C2010 C2013 1.409 . S
C2011 H2003 0.930 . S
C2011 C2012 1.355 . S
C2011 C2013 1.415 . S
C2012 C2011 1.355 . S
C2012 C2014 1.419 . S
C2013 C2008 1.425 . S
C2013 C2010 1.409 . S
C2013 C2011 1.415 . S
C2014 H2004 0.930 . S
C2014 C2012 1.419 . S
C2014 C2015 1.362 . S
C2015 H2005 0.930 . S
C2015 C2008 1.409 . S
C2015 C2014 1.362 . S
H2016 C2022 0.930 . S
H2017 C2025 0.936 . S
H2018 C2026 0.930 . S
H2019 C2027 0.930 . S
H2020 C2030 0.930 . S
H2021 C2031 0.930 . S
C2022 H2016 0.930 . S
C2022 C2023 1.355 . S
C2022 C2024 1.415 . S
C2023 C2022 1.355 . S
C2023 C2025 1.419 . S
C2024 C2022 1.415 . S
C2024 C2029 1.425 . S
C2024 C2031 1.409 . S
C2025 H2017 0.936 . S
C2025 C2023 1.419 . S
C2025 C2026 1.362 . S
C2026 H2018 0.930 . S
C2026 C2025 1.362 . S
C2026 C2029 1.409 . S
C2027 H2019 0.930 . S
C2027 C2028 1.355 . S
C2027 C2029 1.415 . S
C2028 C2027 1.355 . S
C2028 C2030 1.419 . S
C2029 C2024 1.425 . S
C2029 C2026 1.409 . S
C2029 C2027 1.415 . S
C2030 H2020 0.930 . S
C2030 C2028 1.419 . S
C2030 C2031 1.362 . S
C2031 H2021 0.930 . S
C2031 C2024 1.409 . S
C2031 C2030 1.362 . S
H2032 C2038 0.930 . S
H2033 C2041 0.930 . S
H2034 C2042 0.930 . S
H2035 C2043 0.930 . S
H2036 C2046 0.930 . S
H2037 C2047 0.930 . S
C2038 H2032 0.930 . S
C2038 C2039 1.355 . S
C2038 C2040 1.415 . S
C2039 C2038 1.355 . S
C2039 C2041 1.419 . S
C2040 C2038 1.415 . S
C2040 C2045 1.425 . S
C2040 C2047 1.409 . S
C2041 H2033 0.930 . S
C2041 C2039 1.419 . S
C2041 C2042 1.362 . S
C2042 H2034 0.930 . S
C2042 C2041 1.362 . S
C2042 C2045 1.409 . S
C2043 H2035 0.930 . S
C2043 C2044 1.355 . S
C2043 C2045 1.415 . S
C2044 C2043 1.355 . S
C2044 C2046 1.419 . S
C2045 C2040 1.425 . S
C2045 C2042 1.409 . S
C2045 C2043 1.415 . S
C2046 H2036 0.930 . S
C2046 C2044 1.419 . S
C2046 C2047 1.362 . S
C2047 H2037 0.930 . S
C2047 C2040 1.409 . S
C2047 C2046 1.362 . S
H2048 C2054 0.930 . S
H2049 C2057 0.930 . S
H2050 C2058 0.930 . S
H2051 C2059 0.930 . S
H2052 C2062 0.930 . S
H2053 C2063 0.930 . S
C2054 H2048 0.930 . S
C2054 C2055 1.355 . S
C2054 C2056 1.415 . S
C2055 C2054 1.355 . S
C2055 C2057 1.419 . S
C2056 C2054 1.415 . S
C2056 C2061 1.425 . S
C2056 C2063 1.409 . S
C2057 H2049 0.930 . S
C2057 C2055 1.419 . S
C2057 C2058 1.362 . S
C2058 H2050 0.930 . S
C2058 C2057 1.362 . S
C2058 C2061 1.409 . S
C2059 H2051 0.930 . S
C2059 C2060 1.355 . S
C2059 C2061 1.415 . S
C2060 C2059 1.355 . S
C2060 C2062 1.419 . S
C2061 C2056 1.425 . S
C2061 C2058 1.409 . S
C2061 C2059 1.415 . S
C2062 H2052 0.930 . S
C2062 C2060 1.419 . S
C2062 C2063 1.362 . S
C2063 H2053 0.930 . S
C2063 C2056 1.409 . S
C2063 C2062 1.362 . S
H2064 C2070 0.930 . S
H2065 C2073 0.930 . S
H2066 C2074 0.930 . S
H2067 C2075 0.930 . S
H2068 C2078 0.930 . S
H2069 C2079 0.930 . S
C2070 H2064 0.930 . S
C2070 C2071 1.355 . S
C2070 C2072 1.415 . S
C2071 C2070 1.355 . S
C2071 C2073 1.419 . S
C2072 C2070 1.415 . S
C2072 C2077 1.425 . S
C2072 C2079 1.409 . S
C2073 H2065 0.930 . S
C2073 C2071 1.419 . S
C2073 C2074 1.362 . S
C2074 H2066 0.930 . S
C2074 C2073 1.362 . S
C2074 C2077 1.409 . S
C2075 H2067 0.930 . S
C2075 C2076 1.355 . S
C2075 C2077 1.415 . S
C2076 C2075 1.355 . S
C2076 C2078 1.419 . S
C2077 C2072 1.425 . S
C2077 C2074 1.409 . S
C2077 C2075 1.415 . S
C2078 H2068 0.930 . S
C2078 C2076 1.419 . S
C2078 C2079 1.362 . S
C2079 H2069 0.930 . S
C2079 C2072 1.409 . S
C2079 C2078 1.362 . S
H2080 C2086 0.930 . S
H2081 C2089 0.930 . S
H2082 C2090 0.930 . S
H2083 C2091 0.930 . S
H2084 C2094 0.930 . S
H2085 C2095 0.930 . S
C2086 H2080 0.930 . S
C2086 C2087 1.355 . S
C2086 C2088 1.415 . S
C2087 C2086 1.355 . S
C2087 C2089 1.419 . S
C2088 C2086 1.415 . S
C2088 C2093 1.425 . S
C2088 C2095 1.409 . S
C2089 H2081 0.930 . S
C2089 C2087 1.419 . S
C2089 C2090 1.362 . S
C2090 H2082 0.930 . S
C2090 C2089 1.362 . S
C2090 C2093 1.409 . S
C2091 H2083 0.930 . S
C2091 C2092 1.355 . S
C2091 C2093 1.415 . S
C2092 C2091 1.355 . S
C2092 C2094 1.419 . S
C2093 C2088 1.425 . S
C2093 C2090 1.409 . S
C2093 C2091 1.415 . S
C2094 H2084 0.930 . S
C2094 C2092 1.419 . S
C2094 C2095 1.362 . S
C2095 H2085 0.930 . S
C2095 C2088 1.409 . S
C2095 C2094 1.362 . S
H2096 C2102 0.930 . S
H2097 C2105 0.930 . S
H2098 C2106 0.930 . S
H2099 C2107 0.930 . S
H2100 C2110 0.930 . S
H2101 C2111 0.930 . S
C2102 H2096 0.930 . S
C2102 C2103 1.355 . S
C2102 C2104 1.415 . S
C2103 C2102 1.355 . S
C2103 C2105 1.419 . S
C2104 C2102 1.415 . S
C2104 C2109 1.425 . S
C2104 C2111 1.409 . S
C2105 H2097 0.930 . S
C2105 C2103 1.419 . S
C2105 C2106 1.362 . S
C2106 H2098 0.930 . S
C2106 C2105 1.362 . S
C2106 C2109 1.409 . S
C2107 H2099 0.930 . S
C2107 C2108 1.355 . S
C2107 C2109 1.415 . S
C2108 C2107 1.355 . S
C2108 C2110 1.419 . S
C2109 C2104 1.425 . S
C2109 C2106 1.409 . S
C2109 C2107 1.415 . S
C2110 H2100 0.930 . S
C2110 C2108 1.419 . S
C2110 C2111 1.362 . S
C2111 H2101 0.930 . S
C2111 C2104 1.409 . S
C2111 C2110 1.362 . S
H2112 C2118 0.930 . S
H2113 C2121 0.930 . S
H2114 C2122 0.930 . S
H2115 C2123 0.930 . S
H2116 C2126 0.930 . S
H2117 C2127 0.930 . S
C2118 H2112 0.930 . S
C2118 C2119 1.355 . S
C2118 C2120 1.415 . S
C2119 C2118 1.355 . S
C2119 C2121 1.419 . S
C2120 C2118 1.415 . S
C2120 C2125 1.425 . S
C2120 C2127 1.409 . S
C2121 H2113 0.930 . S
C2121 C2119 1.419 . S
C2121 C2122 1.362 . S
C2122 H2114 0.930 . S
C2122 C2121 1.362 . S
C2122 C2125 1.409 . S
C2123 H2115 0.930 . S
C2123 C2124 1.355 . S
C2123 C2125 1.415 . S
C2124 C2123 1.355 . S
C2124 C2126 1.419 . S
C2125 C2120 1.425 . S
C2125 C2122 1.409 . S
C2125 C2123 1.415 . S
C2126 H2116 0.930 . S
C2126 C2124 1.419 . S
C2126 C2127 1.362 . S
C2127 H2117 0.930 . S
C2127 C2120 1.409 . S
C2127 C2126 1.362 . S
H2128 C2134 0.930 . S
H2129 C2137 0.930 . S
H2130 C2138 0.930 . S
H2131 C2139 0.930 . S
H2132 C2142 0.930 . S
H2133 C2143 0.930 . S
C2134 H2128 0.930 . S
C2134 C2135 1.355 . S
C2134 C2136 1.415 . S
C2135 C2134 1.355 . S
C2135 C2137 1.419 . S
C2136 C2134 1.415 . S
C2136 C2141 1.425 . S
C2136 C2143 1.409 . S
C2137 H2129 0.930 . S
C2137 C2135 1.419 . S
C2137 C2138 1.362 . S
C2138 H2130 0.930 . S
C2138 C2137 1.362 . S
C2138 C2141 1.409 . S
C2139 H2131 0.930 . S
C2139 C2140 1.355 . S
C2139 C2141 1.415 . S
C2140 C2139 1.355 . S
C2140 C2142 1.419 . S
C2141 C2136 1.425 . S
C2141 C2138 1.409 . S
C2141 C2139 1.415 . S
C2142 H2132 0.930 . S
C2142 C2140 1.419 . S
C2142 C2143 1.362 . S
C2143 H2133 0.930 . S
C2143 C2136 1.409 . S
C2143 C2142 1.362 . S
H2144 C2150 0.930 . S
H2145 C2153 0.930 . S
H2146 C2154 0.930 . S
H2147 C2155 0.930 . S
H2148 C2158 0.930 . S
H2149 C2159 0.930 . S
C2150 H2144 0.930 . S
C2150 C2151 1.355 . S
C2150 C2152 1.415 . S
C2151 C2150 1.355 . S
C2151 C2153 1.419 . S
C2152 C2150 1.415 . S
C2152 C2157 1.425 . S
C2152 C2159 1.409 . S
C2153 H2145 0.930 . S
C2153 C2151 1.419 . S
C2153 C2154 1.362 . S
C2154 H2146 0.930 . S
C2154 C2153 1.362 . S
C2154 C2157 1.409 . S
C2155 H2147 0.930 . S
C2155 C2156 1.355 . S
C2155 C2157 1.415 . S
C2156 C2155 1.355 . S
C2156 C2158 1.419 . S
C2157 C2152 1.425 . S
C2157 C2154 1.409 . S
C2157 C2155 1.415 . S
C2158 H2148 0.930 . S
C2158 C2156 1.419 . S
C2158 C2159 1.362 . S
C2159 H2149 0.930 . S
C2159 C2152 1.409 . S
C2159 C2158 1.362 . S
H2160 C2166 0.930 . S
H2161 C2169 0.930 . S
H2162 C2170 0.930 . S
H2163 C2171 0.930 . S
H2164 C2174 0.930 . S
H2165 C2175 0.930 . S
C2166 H2160 0.930 . S
C2166 C2167 1.355 . S
C2166 C2168 1.415 . S
C2167 C2166 1.355 . S
C2167 C2169 1.419 . S
C2168 C2166 1.415 . S
C2168 C2173 1.425 . S
C2168 C2175 1.409 . S
C2169 H2161 0.930 . S
C2169 C2167 1.419 . S
C2169 C2170 1.362 . S
C2170 H2162 0.930 . S
C2170 C2169 1.362 . S
C2170 C2173 1.409 . S
C2171 H2163 0.930 . S
C2171 C2172 1.355 . S
C2171 C2173 1.415 . S
C2172 C2171 1.355 . S
C2172 C2174 1.419 . S
C2173 C2168 1.425 . S
C2173 C2170 1.409 . S
C2173 C2171 1.415 . S
C2174 H2164 0.930 . S
C2174 C2172 1.419 . S
C2174 C2175 1.362 . S
C2175 H2165 0.930 . S
C2175 C2168 1.409 . S
C2175 C2174 1.362 . S
H2176 C2182 0.930 . S
H2177 C2185 0.930 . S
H2178 C2186 0.930 . S
H2179 C2187 0.930 . S
H2180 C2190 0.930 . S
H2181 C2191 0.930 . S
C2182 H2176 0.930 . S
C2182 C2183 1.355 . S
C2182 C2184 1.415 . S
C2183 C2182 1.355 . S
C2183 C2185 1.419 . S
C2184 C2182 1.415 . S
C2184 C2189 1.425 . S
C2184 C2191 1.409 . S
C2185 H2177 0.930 . S
C2185 C2183 1.419 . S
C2185 C2186 1.362 . S
C2186 H2178 0.930 . S
C2186 C2185 1.362 . S
C2186 C2189 1.409 . S
C2187 H2179 0.930 . S
C2187 C2188 1.355 . S
C2187 C2189 1.415 . S
C2188 C2187 1.355 . S
C2188 C2190 1.419 . S
C2189 C2184 1.425 . S
C2189 C2186 1.409 . S
C2189 C2187 1.415 . S
C2190 H2180 0.930 . S
C2190 C2188 1.419 . S
C2190 C2191 1.362 . S
C2191 H2181 0.930 . S
C2191 C2184 1.409 . S
C2191 C2190 1.362 . S
H2192 C2198 0.930 . S
H2193 C2201 0.930 . S
H2194 C2202 0.930 . S
H2195 C2203 0.930 . S
H2196 C2206 0.930 . S
H2197 C2207 0.930 . S
C2198 H2192 0.930 . S
C2198 C2199 1.355 . S
C2198 C2200 1.415 . S
C2199 C2198 1.355 . S
C2199 C2201 1.419 . S
C2200 C2198 1.415 . S
C2200 C2205 1.425 . S
C2200 C2207 1.409 . S
C2201 H2193 0.930 . S
C2201 C2199 1.419 . S
C2201 C2202 1.362 . S
C2202 H2194 0.930 . S
C2202 C2201 1.362 . S
C2202 C2205 1.409 . S
C2203 H2195 0.930 . S
C2203 C2204 1.355 . S
C2203 C2205 1.415 . S
C2204 C2203 1.355 . S
C2204 C2206 1.419 . S
C2205 C2200 1.425 . S
C2205 C2202 1.409 . S
C2205 C2203 1.415 . S
C2206 H2196 0.930 . S
C2206 C2204 1.419 . S
C2206 C2207 1.362 . S
C2207 H2197 0.930 . S
C2207 C2200 1.409 . S
C2207 C2206 1.362 . S
C679 C11 0.620 . S
C684 C375 0.672 . S
C695 C389 0.878 . S
C700 C25 0.656 . S
C711 C39 0.738 . S
C716 C347 0.620 . S
C727 C361 0.780 . S
C732 C53 0.691 . S
C743 C67 0.531 . S
C748 C431 0.860 . S
C759 C81 0.731 . S
C764 C445 0.629 . S
C775 C95 0.652 . S
C780 C403 0.683 . S
C791 C109 0.596 . S
C796 C417 0.746 . S
C807 C179 0.760 . S
C812 C123 0.554 . S
C823 C137 0.660 . S
C828 C193 0.797 . S
C839 C207 0.598 . S
C844 C151 0.805 . S
C855 C165 0.727 . S
C860 C221 0.637 . S
C871 C613 0.572 . S
C876 C235 0.793 . S
C887 C641 0.658 . S
C892 C249 0.690 . S
C903 C319 0.656 . S
C908 C263 0.874 . S
C919 C571 0.557 . S
C924 C277 0.734 . S
C935 C669 0.587 . S
C940 C291 0.792 . S
C951 C585 0.785 . S
C956 C305 0.588 . S
C967 C333 0.584 . S
C972 C627 0.721 . S
C983 C459 0.580 . S
C988 C515 0.755 . S
C999 C529 0.671 . S
C1004 C473 0.854 . S
C1015 C487 0.810 . S
C1020 C543 0.593 . S
C1031 C557 0.767 . S
C1036 C501 0.620 . S
C1047 C599 0.632 . S
C1052 C655 0.813 . S
C1063 C4 0.771 . S
C1068 C102 0.860 . S
C1079 C60 0.892 1_655 S
C1084 C18 0.724 . S
C1095 C32 0.888 . S
C1100 C74 0.958 . S
C1111 C46 0.676 . S
C1116 C88 0.845 . S
C1127 C284 0.851 . S
C1132 C116 0.782 . S
C1143 C578 0.666 . S
C1148 C130 0.857 . S
C1159 C144 0.834 . S
C1164 C592 0.697 . S
C1175 C158 0.823 . S
C1180 C606 0.986 . S
C1191 C662 0.852 . S
C1196 C172 0.949 . S
C1207 C186 0.896 . S
C1212 C298 0.714 . S
C1223 C200 0.898 1_565 S
C1228 C648 0.723 . S
C1239 C214 0.728 . S
C1244 C228 0.889 . S
C1255 C242 0.716 . S
C1260 C466 0.795 . S
C1271 C256 0.702 . S
C1276 C480 0.831 . S
C1287 C494 0.826 . S
C1292 C270 0.980 . S
C1303 C312 0.774 . S
C1308 C536 0.865 . S
C1319 C508 0.827 . S
C1324 C326 0.992 . S
C1335 C438 0.813 . S
C1340 C340 0.779 . S
C1351 C354 0.882 . S
C1356 C396 0.741 . S
C1367 C410 0.823 . S
C1372 C368 0.993 . S
C1383 C382 0.853 . S
C1388 C424 0.693 . S
C1399 C452 0.806 . S
C1404 C620 0.829 . S
C1415 C634 0.858 1_556 S
C1420 C522 0.753 . S
C1431 C564 0.853 . S
C1436 C550 0.740 . S
C1447 C12 0.923 . S
C1452 C418 0.802 . S
C1463 C432 1.061 . S
C1468 C26 1.043 . S
C1479 C40 0.813 . S
C1484 C446 0.910 . S
C1495 C54 1.071 . S
C1500 C404 1.019 . S
C1511 C390 1.056 . S
C1516 C68 1.022 . S
C1527 C82 0.770 . S
C1532 C348 0.942 . S
C1543 C362 0.909 . S
C1548 C96 1.081 . S
C1559 C110 0.946 . S
C1564 C376 0.772 . S
C1575 C670 0.944 . S
C1580 C124 0.799 . S
C1591 C138 1.077 . S
C1596 C306 0.997 . S
C1607 C152 1.100 . S
C1612 C656 0.979 . S
C1623 C236 0.881 . S
C1628 C166 0.845 . S
C1639 C180 0.848 . S
C1644 C292 0.895 . S
C1655 C194 0.933 . S
C1660 C586 1.051 . S
C1671 C600 1.062 . S
C1676 C208 1.033 . S
C1687 C614 0.786 . S
C1692 C222 0.931 . S
C1703 C530 0.882 . S
C1708 C250 1.118 . S
C1719 C544 0.977 . S
C1724 C264 1.082 . S
C1735 C558 0.890 . S
C1740 C278 0.853 . S
C1751 C320 1.028 . S
C1756 C488 1.032 . S
C1767 C460 0.799 . S
C1772 C334 0.944 . S
C1783 C474 1.079 . S
C1788 C642 0.989 . S
C1799 C502 0.779 . S
C1804 C572 0.931 . S
C1815 C628 0.913 . S
C1820 C516 0.808 . S
C1831 C5 1.471 1_655 S
C1836 C313 1.522 . S
C1847 C19 1.498 . S
C1852 C565 1.475 . S
C1863 C327 1.391 . S
C1868 C33 1.310 . S
C1879 C635 1.229 . S
C1884 C47 1.305 . S
C1895 C257 1.305 . S
C1900 C61 1.229 . S
C1911 C271 1.303 . S
C1916 C75 1.410 . S
C1927 C89 1.169 . S
C1932 C621 1.143 . S
C1943 C103 1.221 . S
C1948 C243 1.118 . S
C1959 C187 1.431 . S
C1964 C117 1.538 . S
C1975 C131 1.196 . S
C1980 C201 1.319 . S
C1991 C215 1.129 . S
C1996 C145 1.211 . S
C2007 C173 1.302 . S
C2012 C159 1.407 . S
C2023 C229 1.503 1_556 S
C2028 C355 1.474 . S
C2039 C425 1.174 . S
C2044 C285 1.176 . S
C2055 C383 1.215 . S
C2060 C299 1.293 . S
C2071 C341 1.543 . S
C2076 C649 1.435 . S
C2087 C663 1.406 . S
C2092 C369 1.303 . S
C2103 C593 1.279 . S
C2108 C397 1.240 . S
C2119 C607 1.375 . S
C2124 C411 1.359 . S
C2135 C579 1.211 . S
C2140 C439 1.129 . S
C2151 C523 1.436 . S
C2156 C453 1.534 . S
C2167 C537 1.229 . S
C2172 C467 1.299 . S
C2183 C481 1.098 . S
C2188 C551 1.202 . S
C2199 C495 1.297 . S
C2204 C509 1.420 . S
