# Generated by pormake.
# Topology soe, (5)-cn, num edge types: 1
# Building blocks:
#     Node 0, Type 0, BuildingBlock: BEQFEK_clean_sbu_0, # of connection points: 5
#     Node 1, Type 0, BuildingBlock: BEQFEK_clean_sbu_0, # of connection points: 5
#     Node 2, Type 0, BuildingBlock: BEQFEK_clean_sbu_0, # of connection points: 5
#     Node 3, Type 0, BuildingBlock: BEQFEK_clean_sbu_0, # of connection points: 5
#     Node 4, Type 0, BuildingBlock: BEQFEK_clean_sbu_0, # of connection points: 5
#     Node 5, Type 0, BuildingBlock: BEQFEK_clean_sbu_0, # of connection points: 5
#     Node 6, Type 0, BuildingBlock: BEQFEK_clean_sbu_0, # of connection points: 5
#     Node 7, Type 0, BuildingBlock: BEQFEK_clean_sbu_0, # of connection points: 5
#     Edge 8, Type (0, 0), BuildingBlock: EZIPEK_clean_linker_0, # of connection points: 2
#     Edge 9, Type (0, 0), BuildingBlock: EZIPEK_clean_linker_0, # of connection points: 2
#     Edge 10, Type (0, 0), BuildingBlock: EZIPEK_clean_linker_0, # of connection points: 2
#     Edge 11, Type (0, 0), BuildingBlock: EZIPEK_clean_linker_0, # of connection points: 2
#     Edge 12, Type (0, 0), BuildingBlock: EZIPEK_clean_linker_0, # of connection points: 2
#     Edge 13, Type (0, 0), BuildingBlock: EZIPEK_clean_linker_0, # of connection points: 2
#     Edge 14, Type (0, 0), BuildingBlock: EZIPEK_clean_linker_0, # of connection points: 2
#     Edge 15, Type (0, 0), BuildingBlock: EZIPEK_clean_linker_0, # of connection points: 2
#     Edge 16, Type (0, 0), BuildingBlock: EZIPEK_clean_linker_0, # of connection points: 2
#     Edge 17, Type (0, 0), BuildingBlock: EZIPEK_clean_linker_0, # of connection points: 2
#     Edge 18, Type (0, 0), BuildingBlock: EZIPEK_clean_linker_0, # of connection points: 2
#     Edge 19, Type (0, 0), BuildingBlock: EZIPEK_clean_linker_0, # of connection points: 2
#     Edge 20, Type (0, 0), BuildingBlock: EZIPEK_clean_linker_0, # of connection points: 2
#     Edge 21, Type (0, 0), BuildingBlock: EZIPEK_clean_linker_0, # of connection points: 2
#     Edge 22, Type (0, 0), BuildingBlock: EZIPEK_clean_linker_0, # of connection points: 2
#     Edge 23, Type (0, 0), BuildingBlock: EZIPEK_clean_linker_0, # of connection points: 2
#     Edge 24, Type (0, 0), BuildingBlock: EZIPEK_clean_linker_0, # of connection points: 2
#     Edge 25, Type (0, 0), BuildingBlock: EZIPEK_clean_linker_0, # of connection points: 2
#     Edge 26, Type (0, 0), BuildingBlock: EZIPEK_clean_linker_0, # of connection points: 2
#     Edge 27, Type (0, 0), BuildingBlock: EZIPEK_clean_linker_0, # of connection points: 2
# Relax obj value: 0.168
# Max RMSD: 0.236
# Mean RMSD: 0.178
data_MOF--net-soe--node1-BEQFEK_clean_sbu_0--edge1-EZIPEK_clean_linker_0
_symmetry_space_group_name_H-M    P1
_symmetry_Int_Tables_number       1
_symmetry_cell_setting            triclinic
loop_
_symmetry_equiv_pos_as_xyz
'x, y, z'
_cell_length_a     43.491593
_cell_length_b     29.187342
_cell_length_c     15.079614
_cell_angle_alpha  89.530981
_cell_angle_beta   90.451118
_cell_angle_gamma 93.030188
loop_
_atom_site_label
_atom_site_type_symbol
_atom_site_fract_x
_atom_site_fract_y
_atom_site_fract_z
_atom_type_partial_charge
Co0 Co 0.12377 0.01744 0.20711 0.0
Co1 Co 0.13159 0.05222 0.01121 0.0
C2 C 0.17899 0.99606 0.10956 0.0
O3 O 0.16111 0.98575 0.17389 0.0
O4 O 0.17026 0.02233 0.0474 0.0
C5 C 0.12204 0.97347 0.38416 0.0
O6 O 0.13176 0.93604 0.34837 0.0
C7 C 0.1313 0.02377 0.82514 0.0
C8 C 0.13056 0.0895 0.75192 0.0
C9 C 0.13002 0.0424 0.74062 0.0
N10 N 0.13227 0.05814 0.88427 0.0
N11 N 0.13203 0.09741 0.83994 0.0
C12 C 0.13037 0.9739 0.84895 0.0
H13 H 0.12978 0.96892 0.92197 0.0
H14 H 0.10985 0.95615 0.81797 0.0
H15 H 0.15093 0.95824 0.82157 0.0
C16 C 0.06176 0.98642 0.13849 0.0
N17 N 0.09074 0.00424 0.12772 0.0
N18 N 0.09397 0.01964 0.04576 0.0
C19 C 0.06686 0.01279 0.00243 0.0
C20 C 0.04572 0.9911 0.05914 0.0
C21 C 0.04922 0.96858 0.22477 0.0
H22 H 0.04752 0.99769 0.27105 0.0
H23 H 0.06537 0.94451 0.25461 0.0
H24 H 0.02611 0.95111 0.21609 0.0
O25 O 0.13273 0.0847 0.20645 0.0
O26 O 0.1338 0.11302 0.06896 0.0
H27 H 0.07272 0.06353 0.89903 0.0
H28 H 0.0353 0.03376 0.89981 0.0
C29 C 0.06027 0.02997 0.9108 0.0
H30 H 0.06793 0.00487 0.86209 0.0
H31 H 0.1323 0.12956 0.86977 0.0
O32 O 0.11458 0.00667 0.3349 0.0
C33 C 0.13531 0.11848 0.1527 0.0
Co34 Co 0.36367 0.92842 0.21331 0.0
Co35 Co 0.3578 0.89278 0.01816 0.0
C36 C 0.30659 0.94182 0.10986 0.0
O37 O 0.32293 0.94985 0.17886 0.0
O38 O 0.31715 0.92032 0.04426 0.0
C39 C 0.35446 0.96404 0.38695 0.0
O40 O 0.33173 0.98567 0.35082 0.0
C41 C 0.35481 0.91577 0.82914 0.0
C42 C 0.37208 0.85466 0.76501 0.0
C43 C 0.36249 0.89842 0.74774 0.0
N44 N 0.36008 0.88429 0.89236 0.0
N45 N 0.37033 0.84769 0.85344 0.0
C46 C 0.34321 0.96197 0.84658 0.0
H47 H 0.31782 0.95977 0.83868 0.0
H48 H 0.34945 0.97284 0.915 0.0
H49 H 0.35256 0.98776 0.79809 0.0
C50 C 0.42313 0.96896 0.1451 0.0
N51 N 0.39507 0.94775 0.13354 0.0
N52 N 0.39323 0.93028 0.05334 0.0
C53 C 0.42052 0.93841 0.01275 0.0
C54 C 0.4401 0.96384 0.06847 0.0
C55 C 0.43467 0.98829 0.23129 0.0
H56 H 0.44011 0.95962 0.2766 0.0
H57 H 0.41646 0.00775 0.26265 0.0
H58 H 0.45577 0.01083 0.22169 0.0
O59 O 0.36144 0.86069 0.21883 0.0
O60 O 0.35886 0.83273 0.08203 0.0
H61 H 0.42505 0.87821 0.93523 0.0
H62 H 0.45413 0.92336 0.91254 0.0
C63 C 0.42956 0.91585 0.92896 0.0
H64 H 0.41542 0.92831 0.87411 0.0
H65 H 0.37673 0.81833 0.88737 0.0
O66 O 0.37296 0.94364 0.33813 0.0
C67 C 0.36005 0.82694 0.16593 0.0
Co68 Co 0.1445 0.39548 0.28611 0.0
Co69 Co 0.15235 0.35651 0.48006 0.0
C70 C 0.20073 0.41889 0.39222 0.0
O71 O 0.18488 0.4234 0.32183 0.0
O72 O 0.19119 0.39386 0.45689 0.0
C73 C 0.12637 0.43502 0.09268 0.0
O74 O 0.1091 0.47058 0.09483 0.0
C75 C 0.16211 0.3674 0.6719 0.0
C76 C 0.12823 0.31534 0.72436 0.0
C77 C 0.14703 0.35307 0.74934 0.0
N78 N 0.15113 0.34128 0.60425 0.0
N79 N 0.13193 0.30897 0.63687 0.0
C80 C 0.18613 0.40572 0.66132 0.0
H81 H 0.20661 0.39244 0.62877 0.0
H82 H 0.17721 0.43269 0.61727 0.0
H83 H 0.19322 0.42067 0.7262 0.0
C84 C 0.08637 0.42656 0.36246 0.0
N85 N 0.11375 0.40714 0.36999 0.0
N86 N 0.11669 0.39032 0.45093 0.0
C87 C 0.09102 0.3987 0.4968 0.0
C88 C 0.07133 0.422 0.4428 0.0
C89 C 0.07406 0.44639 0.2787 0.0
H90 H 0.07487 0.42072 0.22504 0.0
H91 H 0.08891 0.47686 0.25953 0.0
H92 H 0.05004 0.45669 0.28676 0.0
O93 O 0.14638 0.32883 0.27293 0.0
O94 O 0.15144 0.29916 0.40835 0.0
H95 H 0.07949 0.34315 0.58508 0.0
H96 H 0.06228 0.39566 0.61378 0.0
C97 C 0.08335 0.38094 0.58755 0.0
H98 H 0.10247 0.38987 0.63316 0.0
H99 H 0.11937 0.28498 0.59824 0.0
O100 O 0.13478 0.41675 0.16494 0.0
C101 C 0.14875 0.29457 0.32451 0.0
Co102 Co 0.37339 0.54901 0.28394 0.0
Co103 Co 0.36682 0.58117 0.48034 0.0
C104 C 0.31913 0.51812 0.38995 0.0
O105 O 0.33411 0.51726 0.31808 0.0
O106 O 0.32917 0.54133 0.45612 0.0
C107 C 0.36378 0.51155 0.11171 0.0
O108 O 0.34051 0.48817 0.14823 0.0
C109 C 0.35906 0.55948 0.66836 0.0
C110 C 0.38371 0.61828 0.73356 0.0
C111 C 0.36897 0.57584 0.75018 0.0
N112 N 0.36838 0.59013 0.60567 0.0
N113 N 0.38269 0.62554 0.64523 0.0
C114 C 0.34199 0.51471 0.64956 0.0
H115 H 0.31852 0.52143 0.62504 0.0
H116 H 0.35396 0.49648 0.59669 0.0
H117 H 0.33994 0.4927 0.70979 0.0
C118 C 0.43226 0.51606 0.35614 0.0
N119 N 0.40533 0.53639 0.36461 0.0
N120 N 0.40324 0.55212 0.44584 0.0
C121 C 0.42923 0.54326 0.49071 0.0
C122 C 0.44816 0.51966 0.43618 0.0
C123 C 0.44267 0.49475 0.27255 0.0
H124 H 0.4473 0.52211 0.22213 0.0
H125 H 0.42397 0.47122 0.24614 0.0
H126 H 0.46385 0.47581 0.28375 0.0
O127 O 0.36836 0.61569 0.27837 0.0
O128 O 0.36375 0.64097 0.41607 0.0
H129 H 0.43649 0.59765 0.58346 0.0
H130 H 0.46014 0.54963 0.60418 0.0
C131 C 0.43706 0.55974 0.58206 0.0
H132 H 0.4198 0.54513 0.62865 0.0
H133 H 0.39272 0.65389 0.61168 0.0
O134 O 0.38279 0.53477 0.15996 0.0
C135 C 0.36489 0.6481 0.33253 0.0
Co136 Co 0.86193 0.8896 0.99636 0.0
Co137 Co 0.87658 0.91902 0.80368 0.0
C138 C 0.82009 0.94905 0.8947 0.0
O139 O 0.82667 0.92621 0.96344 0.0
O140 O 0.83761 0.95087 0.82735 0.0
C141 C 0.85469 0.90913 0.16319 0.0
O142 O 0.85238 0.94775 0.11889 0.0
C143 C 0.86628 0.92882 0.61235 0.0
C144 C 0.91274 0.91621 0.56232 0.0
C145 C 0.88267 0.92216 0.53554 0.0
N146 N 0.88562 0.9249 0.68164 0.0
N147 N 0.91346 0.91851 0.65124 0.0
C148 C 0.83278 0.93718 0.6205 0.0
H149 H 0.83019 0.97006 0.65534 0.0
H150 H 0.82142 0.90946 0.66133 0.0
H151 H 0.82131 0.93877 0.55463 0.0
C152 C 0.86346 0.79549 0.91965 0.0
N153 N 0.8651 0.84172 0.91442 0.0
N154 N 0.8719 0.85455 0.83255 0.0
C155 C 0.87522 0.81665 0.78376 0.0
C156 C 0.86981 0.7783 0.83657 0.0
C157 C 0.85699 0.76881 0.00296 0.0
H158 H 0.87608 0.77595 0.05095 0.0
H159 H 0.83561 0.78045 0.03334 0.0
H160 H 0.8546 0.73139 0.98999 0.0
O161 O 0.90227 0.92373 0.00281 0.0
O162 O 0.91356 0.94629 0.86617 0.0
H163 H 0.90899 0.82882 0.68336 0.0
H164 H 0.88193 0.78161 0.6595 0.0
C165 C 0.88456 0.81635 0.68874 0.0
H166 H 0.87007 0.83921 0.65084 0.0
H167 H 0.93265 0.91352 0.69149 0.0
O168 O 0.85651 0.87181 0.12083 0.0
C169 C 0.92039 0.94391 0.94805 0.0
Co170 Co 0.64025 0.03884 0.81028 0.0
Co171 Co 0.65182 0.07527 0.00465 0.0
C172 C 0.69895 0.02252 0.90797 0.0
O173 O 0.68178 0.01834 0.83944 0.0
O174 O 0.69009 0.04277 0.97718 0.0
C175 C 0.61975 0.99746 0.61812 0.0
O176 O 0.59965 0.96227 0.61526 0.0
C177 C 0.6624 0.06563 0.19703 0.0
C178 C 0.63069 0.11549 0.24843 0.0
C179 C 0.64823 0.07925 0.27453 0.0
N180 N 0.65201 0.0906 0.12856 0.0
N181 N 0.63415 0.12166 0.16046 0.0
C182 C 0.68496 0.02902 0.18705 0.0
H183 H 0.7059 0.04388 0.15376 0.0
H184 H 0.67493 0.00149 0.14362 0.0
H185 H 0.69157 0.01445 0.25223 0.0
C186 C 0.5816 0.00338 0.89077 0.0
N187 N 0.61043 0.02264 0.89804 0.0
N188 N 0.61484 0.038 0.97939 0.0
C189 C 0.58879 0.02838 0.02609 0.0
C190 C 0.5671 0.00622 0.97182 0.0
C191 C 0.56714 0.98718 0.80573 0.0
H192 H 0.56972 0.01481 0.75495 0.0
H193 H 0.57932 0.9572 0.78216 0.0
H194 H 0.54235 0.97713 0.81411 0.0
O195 O 0.64238 0.10554 0.79618 0.0
O196 O 0.65117 0.13317 0.93194 0.0
H197 H 0.57957 0.08265 0.11416 0.0
H198 H 0.56122 0.02821 0.145 0.0
C199 C 0.58248 0.04517 0.11706 0.0
H200 H 0.60181 0.03807 0.16134 0.0
H201 H 0.62224 0.14452 0.1212 0.0
O202 O 0.62782 0.01373 0.69311 0.0
C203 C 0.64672 0.13904 0.84886 0.0
Co204 Co 0.87817 0.50244 0.71015 0.0
Co205 Co 0.87375 0.54058 0.51384 0.0
C206 C 0.82133 0.48668 0.60402 0.0
O207 O 0.83626 0.48032 0.67553 0.0
O208 O 0.83355 0.50805 0.53831 0.0
C209 C 0.86661 0.4666 0.8844 0.0
O210 O 0.84205 0.44611 0.8482 0.0
C211 C 0.86595 0.51771 0.32678 0.0
C212 C 0.8891 0.57671 0.25763 0.0
C213 C 0.87493 0.53365 0.24361 0.0
N214 N 0.87515 0.54923 0.38754 0.0
N215 N 0.88865 0.5847 0.34559 0.0
C216 C 0.84969 0.47267 0.34887 0.0
H217 H 0.82577 0.47875 0.36902 0.0
H218 H 0.86138 0.45649 0.40588 0.0
H219 H 0.84883 0.44919 0.29129 0.0
C220 C 0.93491 0.46458 0.63663 0.0
N221 N 0.90855 0.48665 0.62817 0.0
N222 N 0.90747 0.50543 0.54853 0.0
C223 C 0.93353 0.49721 0.50519 0.0
C224 C 0.95143 0.47055 0.5586 0.0
C225 C 0.94527 0.44221 0.72032 0.0
H226 H 0.95427 0.46914 0.76666 0.0
H227 H 0.92543 0.42345 0.7525 0.0
H228 H 0.96377 0.41843 0.70707 0.0
O229 O 0.87758 0.56938 0.71671 0.0
O230 O 0.87507 0.59966 0.58086 0.0
H231 H 0.94102 0.55692 0.42368 0.0
H232 H 0.96708 0.51225 0.40148 0.0
C233 C 0.9431 0.51932 0.41922 0.0
H234 H 0.92773 0.50614 0.36588 0.0
H235 H 0.8984 0.61371 0.37717 0.0
O236 O 0.887 0.48624 0.83525 0.0
C237 C 0.87635 0.60381 0.66512 0.0
Co238 Co 0.63623 0.41574 0.71355 0.0
Co239 Co 0.6392 0.3766 0.52001 0.0
C240 C 0.692 0.43154 0.60817 0.0
O241 O 0.67716 0.44032 0.67765 0.0
O242 O 0.68013 0.40726 0.54585 0.0
C243 C 0.64944 0.44677 0.8885 0.0
O244 O 0.67552 0.46268 0.85389 0.0
C245 C 0.64792 0.39719 0.33214 0.0
C246 C 0.62178 0.33997 0.26633 0.0
C247 C 0.63793 0.38137 0.2499 0.0
N248 N 0.63739 0.36727 0.39463 0.0
N249 N 0.62213 0.3328 0.35476 0.0
C250 C 0.66633 0.44074 0.35172 0.0
H251 H 0.68951 0.43227 0.37604 0.0
H252 H 0.65502 0.45946 0.40519 0.0
H253 H 0.66903 0.46296 0.29194 0.0
C254 C 0.58002 0.456 0.63807 0.0
N255 N 0.60537 0.43159 0.63159 0.0
N256 N 0.60588 0.41286 0.55248 0.0
C257 C 0.58029 0.42347 0.50751 0.0
C258 C 0.56342 0.45168 0.55925 0.0
C259 C 0.57118 0.4806 0.71974 0.0
H260 H 0.5649 0.455 0.77222 0.0
H261 H 0.59123 0.50205 0.74445 0.0
H262 H 0.55138 0.50229 0.70679 0.0
O263 O 0.63792 0.34837 0.72162 0.0
O264 O 0.63731 0.3177 0.58692 0.0
H265 H 0.57049 0.36556 0.42439 0.0
H266 H 0.54719 0.4136 0.39987 0.0
C267 C 0.57046 0.40349 0.42018 0.0
H268 H 0.58694 0.41547 0.36894 0.0
H269 H 0.61111 0.30516 0.38807 0.0
O270 O 0.62776 0.4316 0.83802 0.0
C271 C 0.63799 0.3137 0.67118 0.0
C272 C 0.26035 0.97397 0.03246 0.0
C273 C 0.2738 0.95489 0.10917 0.0
C274 C 0.22681 0.96905 0.19006 0.0
C275 C 0.21127 0.97987 0.10938 0.0
N276 N 0.21331 0.97702 0.94833 0.0
N277 N 0.26436 0.92039 0.25363 0.0
C278 C 0.22798 0.97762 0.02864 0.0
C279 C 0.25538 0.94799 0.18581 0.0
N280 N 0.27837 0.9911 0.96529 0.0
N281 N 0.21608 0.98151 0.27074 0.0
H282 H 0.28377 0.90101 0.25007 0.0
H283 H 0.25027 0.91242 0.3079 0.0
H284 H 0.19805 0.00316 0.27859 0.0
H285 H 0.2283 0.97614 0.3294 0.0
H286 H 0.26942 0.00804 0.91044 0.0
H287 H 0.30224 0.99411 0.9714 0.0
H288 H 0.22498 0.97302 0.88894 0.0
H289 H 0.18946 0.9737 0.94194 0.0
C290 C 0.23381 0.48887 0.42864 0.0
C291 C 0.23133 0.44307 0.39814 0.0
C292 C 0.28709 0.44438 0.37617 0.0
C293 C 0.28905 0.49196 0.39602 0.0
N294 N 0.26331 0.56151 0.42651 0.0
N295 N 0.25449 0.37816 0.33325 0.0
C296 C 0.26219 0.51477 0.41909 0.0
C297 C 0.25767 0.42104 0.36915 0.0
N298 N 0.20908 0.50752 0.46725 0.0
N299 N 0.31336 0.42107 0.36776 0.0
H300 H 0.23344 0.35936 0.32984 0.0
H301 H 0.27227 0.36257 0.3012 0.0
H302 H 0.33536 0.4366 0.37539 0.0
H303 H 0.31339 0.38555 0.36192 0.0
H304 H 0.21046 0.53896 0.49963 0.0
H305 H 0.18774 0.48975 0.47373 0.0
H306 H 0.2438 0.58029 0.43399 0.0
H307 H 0.28328 0.58218 0.41653 0.0
C308 C 0.75679 0.03297 0.92564 0.0
C309 C 0.73027 0.00416 0.90531 0.0
C310 C 0.76368 0.94301 0.86178 0.0
C311 C 0.78979 0.96993 0.89137 0.0
N312 N 0.8112 0.03775 0.96365 0.0
N313 N 0.70849 0.92846 0.87112 0.0
C314 C 0.78634 0.01409 0.92711 0.0
C315 C 0.73371 0.95829 0.87756 0.0
N316 N 0.75407 0.07886 0.93887 0.0
N317 N 0.76752 0.90279 0.81836 0.0
H318 H 0.68628 0.93753 0.88635 0.0
H319 H 0.7099 0.89348 0.85986 0.0
H320 H 0.7891 0.88999 0.80728 0.0
H321 H 0.74958 0.88423 0.78662 0.0
H322 H 0.77292 0.10217 0.94512 0.0
H323 H 0.73315 0.09464 0.93483 0.0
H324 H 0.80944 0.06758 0.00033 0.0
H325 H 0.83338 0.02578 0.96258 0.0
C326 C 0.77865 0.42659 0.62638 0.0
C327 C 0.78823 0.47183 0.59975 0.0
C328 C 0.73452 0.48845 0.56739 0.0
C329 C 0.72497 0.44541 0.60417 0.0
N330 N 0.73713 0.37594 0.68172 0.0
N331 N 0.77443 0.54904 0.5614 0.0
C332 C 0.7468 0.41516 0.63762 0.0
C333 C 0.76598 0.50366 0.57398 0.0
N334 N 0.79984 0.39399 0.63723 0.0
N335 N 0.71356 0.51476 0.5259 0.0
H336 H 0.79689 0.56263 0.56888 0.0
H337 H 0.75861 0.57427 0.55219 0.0
H338 H 0.69012 0.50525 0.52242 0.0
H339 H 0.7198 0.54402 0.48882 0.0
H340 H 0.79386 0.3594 0.64831 0.0
H341 H 0.8233 0.4005 0.62591 0.0
H342 H 0.75203 0.35521 0.71604 0.0
H343 H 0.71394 0.3661 0.69048 0.0
C344 C 0.96106 0.00247 -0.00081 0.0
C345 C 0.95224 0.95638 0.97825 0.0
C346 C 0.00388 0.93213 0.01896 0.0
C347 C 0.01282 0.97841 0.03864 0.0
N348 N 0.99957 0.05636 0.06277 0.0
N349 N 0.96459 0.87728 0.96209 0.0
C350 C 0.99126 0.01327 0.03303 0.0
C351 C 0.97342 0.92106 0.98737 0.0
N352 N 0.94072 0.03594 0.9843 0.0
N353 N 0.02459 0.89887 0.03138 0.0
H354 H 0.94257 0.86788 0.93844 0.0
H355 H 0.97908 0.85015 0.96015 0.0
H356 H 0.04729 0.906 0.05164 0.0
H357 H 0.01938 0.86386 0.0259 0.0
H358 H 0.94636 0.0709 0.98908 0.0
H359 H 0.91824 0.02882 0.96178 0.0
H360 H 0.9845 0.08267 0.06812 0.0
H361 H 0.02141 0.06517 0.08849 0.0
C362 C 0.4949 0.94177 0.05794 0.0
C363 C 0.4732 0.97631 0.05202 0.0
C364 C 0.51315 0.03099 0.99431 0.0
C365 C 0.53418 0.99534 0.9937 0.0
N366 N 0.5446 0.91571 0.01384 0.0
N367 N 0.46017 0.0524 0.00788 0.0
C368 C 0.52489 0.95037 0.02235 0.0
C369 C 0.48196 0.02067 0.01884 0.0
N370 N 0.48688 0.90103 0.09919 0.0
N371 N 0.52314 0.07482 0.97243 0.0
H372 H 0.43743 0.04666 0.02833 0.0
H373 H 0.46404 0.08343 0.9743 0.0
H374 H 0.54517 0.0832 0.94848 0.0
H375 H 0.51025 0.10336 0.98224 0.0
H376 H 0.50236 0.87595 0.11355 0.0
H377 H 0.46511 0.89374 0.12603 0.0
H378 H 0.53821 0.88124 0.02424 0.0
H379 H 0.56691 0.92097 0.98956 0.0
C380 C 0.03613 0.47929 0.50154 0.0
C381 C 0.03998 0.43506 0.46655 0.0
C382 C 0.98588 0.41282 0.49682 0.0
C383 C 0.98262 0.45607 0.53689 0.0
N384 N 0.00495 0.5281 0.5896 0.0
N385 N 0.02022 0.35781 0.43812 0.0
C386 C 0.00791 0.48861 0.54294 0.0
C387 C 0.0153 0.40124 0.46618 0.0
N388 N 0.05934 0.51253 0.49372 0.0
N389 N 0.9606 0.3835 0.48552 0.0
H390 H 0.04092 0.3488 0.41028 0.0
H391 H 0.00446 0.33005 0.44651 0.0
H392 H 0.93898 0.39 0.51056 0.0
H393 H 0.96052 0.35393 0.44739 0.0
H394 H 0.05697 0.54682 0.50937 0.0
H395 H 0.08045 0.50663 0.46471 0.0
H396 H 0.02321 0.55139 0.60396 0.0
H397 H 0.98452 0.53587 0.6206 0.0
C398 C 0.50493 0.53181 0.46437 0.0
C399 C 0.47827 0.50162 0.46182 0.0
C400 C 0.50641 0.44177 0.53729 0.0
C401 C 0.53359 0.47076 0.53414 0.0
N402 N 0.56023 0.54111 0.48681 0.0
N403 N 0.45395 0.42644 0.48522 0.0
C404 C 0.53326 0.51527 0.49578 0.0
C405 C 0.47913 0.4561 0.49511 0.0
N406 N 0.50294 0.57658 0.43847 0.0
N407 N 0.50665 0.40092 0.58233 0.0
H408 H 0.43336 0.43603 0.45641 0.0
H409 H 0.45404 0.39148 0.4992 0.0
H410 H 0.5263 0.38949 0.61384 0.0
H411 H 0.48701 0.38003 0.59487 0.0
H412 H 0.52035 0.60184 0.44901 0.0
H413 H 0.48304 0.58923 0.41053 0.0
H414 H 0.56228 0.57146 0.4501 0.0
H415 H 0.58122 0.53085 0.51198 0.0
C416 C 0.09836 0.01298 0.61103 0.0
C417 C 0.12738 0.0177 0.65474 0.0
C418 C 0.15236 0.98336 0.52724 0.0
C419 C 0.12343 0.98089 0.48182 0.0
N420 N 0.06828 0.98194 0.48669 0.0
N421 N 0.18169 0.00576 0.66014 0.0
C422 C 0.09623 0.99231 0.52587 0.0
C423 C 0.15423 0.00155 0.61501 0.0
N424 N 0.07299 0.02973 0.64992 0.0
N425 N 0.17807 0.96952 0.48543 0.0
H426 H 0.18382 0.01939 0.72372 0.0
H427 H 0.20271 0.99616 0.6363 0.0
H428 H 0.17796 0.95744 0.42081 0.0
H429 H 0.19987 0.96898 0.51377 0.0
H430 H 0.05191 0.03257 0.61786 0.0
H431 H 0.07335 0.04328 0.71369 0.0
H432 H 0.04722 0.98546 0.51744 0.0
H433 H 0.06614 0.96559 0.42552 0.0
C434 C 0.37887 0.96904 0.53756 0.0
C435 C 0.35417 0.95262 0.48275 0.0
C436 C 0.33363 0.90351 0.60411 0.0
C437 C 0.35851 0.91969 0.65877 0.0
N438 N 0.40176 0.97332 0.68439 0.0
N439 N 0.30628 0.90774 0.46383 0.0
C440 C 0.38017 0.95424 0.62759 0.0
C441 C 0.33087 0.92117 0.51634 0.0
N442 N 0.40155 0.99786 0.5025 0.0
N443 N 0.31309 0.87023 0.63568 0.0
H444 H 0.30466 0.91622 0.39695 0.0
H445 H 0.2866 0.88973 0.48662 0.0
H446 H 0.31286 0.85902 0.70153 0.0
H447 H 0.29682 0.85221 0.59676 0.0
H448 H 0.42225 0.00664 0.53462 0.0
H449 H 0.40034 0.01156 0.43851 0.0
H450 H 0.416 0.00205 0.66938 0.0
H451 H 0.40394 0.96258 0.74979 0.0
C452 C 0.14187 0.42363 0.84672 0.0
C453 C 0.14583 0.37566 0.83805 0.0
C454 C 0.13392 0.36586 0.99587 0.0
C455 C 0.13431 0.41431 0.00633 0.0
N456 N 0.14927 0.48864 0.94368 0.0
N457 N 0.15444 0.30396 0.91341 0.0
C458 C 0.14173 0.44303 0.93253 0.0
C459 C 0.1448 0.3477 0.91564 0.0
N460 N 0.13581 0.45058 0.77502 0.0
N461 N 0.12134 0.33691 0.05907 0.0
H462 H 0.16409 0.29019 0.85708 0.0
H463 H 0.15622 0.28365 0.97028 0.0
H464 H 0.11011 0.34826 0.11486 0.0
H465 H 0.11855 0.30154 0.05012 0.0
H466 H 0.13022 0.48473 0.78098 0.0
H467 H 0.13261 0.43799 0.71136 0.0
H468 H 0.15716 0.50981 0.89168 0.0
H469 H 0.15132 0.50384 0.00594 0.0
C470 C 0.38273 0.50363 0.95684 0.0
C471 C 0.3624 0.52335 0.01656 0.0
C472 C 0.34395 0.57399 0.89904 0.0
C473 C 0.36441 0.55434 0.83906 0.0
N474 N 0.39868 0.49449 0.80488 0.0
N475 N 0.32107 0.57321 0.04543 0.0
C476 C 0.38234 0.51718 0.86607 0.0
C477 C 0.34207 0.55714 0.9877 0.0
N478 N 0.40311 0.473 0.98777 0.0
N479 N 0.32681 0.60949 0.87131 0.0
H480 H 0.32016 0.56406 0.11234 0.0
H481 H 0.30335 0.59393 0.02693 0.0
H482 H 0.32558 0.62013 0.80524 0.0
H483 H 0.3145 0.62965 0.91344 0.0
H484 H 0.42121 0.4615 0.95071 0.0
H485 H 0.40307 0.4609 0.0531 0.0
H486 H 0.40954 0.46424 0.81818 0.0
H487 H 0.39926 0.50353 0.7382 0.0
C488 C 0.88509 0.94207 0.28989 0.0
C489 C 0.86102 0.9114 0.25901 0.0
C490 C 0.84994 0.88714 0.41121 0.0
C491 C 0.87199 0.92129 0.44218 0.0
N492 N 0.90408 0.98937 0.41096 0.0
N493 N 0.81654 0.86125 0.29031 0.0
C494 C 0.8875 0.95134 0.38139 0.0
C495 C 0.84223 0.88576 0.31962 0.0
N496 N 0.90667 0.96062 0.23266 0.0
N497 N 0.83733 0.85475 0.46778 0.0
H498 H 0.81017 0.85942 0.22354 0.0
H499 H 0.80014 0.84608 0.33287 0.0
H500 H 0.84162 0.85475 0.53549 0.0
H501 H 0.82423 0.82596 0.44643 0.0
H502 H 0.92632 0.97958 0.25377 0.0
H503 H 0.90692 0.95277 0.16544 0.0
H504 H 0.91354 0.01459 0.36843 0.0
H505 H 0.90541 0.9983 0.4778 0.0
C506 C 0.63435 0.06712 0.52163 0.0
C507 C 0.63155 0.01871 0.53391 0.0
C508 C 0.63992 0.00875 0.37539 0.0
C509 C 0.64627 0.05691 0.36438 0.0
N510 N 0.65853 0.12939 0.43629 0.0
N511 N 0.64306 0.94459 0.47628 0.0
C512 C 0.64655 0.08524 0.44068 0.0
C513 C 0.63816 0.98991 0.46214 0.0
N514 N 0.62347 0.09601 0.58346 0.0
N515 N 0.63291 0.98099 0.30493 0.0
H516 H 0.64363 0.92992 0.53956 0.0
H517 H 0.65028 0.92331 0.42611 0.0
H518 H 0.6308 0.9929 0.24039 0.0
H519 H 0.6255 0.94662 0.31251 0.0
H520 H 0.62285 0.13131 0.57308 0.0
H521 H 0.61169 0.0846 0.63995 0.0
H522 H 0.66133 0.15014 0.49205 0.0
H523 H 0.66894 0.1432 0.37924 0.0
C524 C 0.84824 0.52989 0.09571 0.0
C525 C 0.86975 0.51146 0.15569 0.0
C526 C 0.88757 0.46076 0.03927 0.0
C527 C 0.86624 0.47937 0.97927 0.0
N528 N 0.82448 0.52887 0.94939 0.0
N529 N 0.90574 0.45366 0.19088 0.0
C530 C 0.84586 0.51288 0.00749 0.0
C531 C 0.8881 0.47503 0.12941 0.0
N532 N 0.83059 0.56453 0.123 0.0
N533 N 0.90793 0.43037 0.00914 0.0
H534 H 0.90703 0.46338 0.25695 0.0
H535 H 0.91713 0.42392 0.17876 0.0
H536 H 0.90717 0.41755 0.94472 0.0
H537 H 0.92663 0.41966 0.04581 0.0
H538 H 0.81724 0.58391 0.08103 0.0
H539 H 0.82983 0.57516 0.18878 0.0
H540 H 0.80656 0.54897 0.96744 0.0
H541 H 0.82369 0.52083 0.88221 0.0
C542 C 0.62788 0.44118 0.13272 0.0
C543 C 0.64381 0.40216 0.16076 0.0
C544 C 0.66619 0.396 0.01248 0.0
C545 C 0.64861 0.43314 0.98323 0.0
N546 N 0.61133 0.48925 0.01069 0.0
N547 N 0.67929 0.34359 0.13172 0.0
C548 C 0.62919 0.45539 0.0422 0.0
C549 C 0.66351 0.38015 0.10185 0.0
N550 N 0.61182 0.46502 0.19292 0.0
N551 N 0.68502 0.37546 0.95406 0.0
H552 H 0.67984 0.33354 0.19822 0.0
H553 H 0.6917 0.32249 0.09183 0.0
H554 H 0.6856 0.383 0.88642 0.0
H555 H 0.70073 0.35128 0.97144 0.0
H556 H 0.60244 0.49643 0.17971 0.0
H557 H 0.60974 0.45528 0.25905 0.0
H558 H 0.59386 0.50332 0.04655 0.0
H559 H 0.6128 0.50188 0.94584 0.0
C560 C 0.11424 0.17997 0.24463 0.0
C561 C 0.13841 0.165 0.19114 0.0
C562 C 0.16955 0.23529 0.225 0.0
C563 C 0.14639 0.24839 0.28433 0.0
N564 N 0.09792 0.23167 0.35796 0.0
N565 N 0.19049 0.17475 0.13813 0.0
C566 C 0.11917 0.2201 0.29673 0.0
C567 C 0.16641 0.19181 0.1828 0.0
N568 N 0.08605 0.1568 0.24229 0.0
N569 N 0.19451 0.26455 0.20878 0.0
H570 H 0.18895 0.14332 0.10556 0.0
H571 H 0.21266 0.19006 0.13825 0.0
H572 H 0.19889 0.29504 0.24337 0.0
H573 H 0.21009 0.25989 0.15799 0.0
H574 H 0.06646 0.16841 0.27222 0.0
H575 H 0.08138 0.12786 0.20328 0.0
H576 H 0.07958 0.20973 0.37795 0.0
H577 H 0.09957 0.26212 0.39371 0.0
C578 C 0.3355 0.74876 0.1994 0.0
C579 C 0.36138 0.78029 0.20503 0.0
C580 C 0.3873 0.728 0.30621 0.0
C581 C 0.36246 0.69497 0.29518 0.0
N582 N 0.31416 0.67135 0.22503 0.0
N583 N 0.41393 0.7975 0.25096 0.0
C584 C 0.33696 0.70459 0.23964 0.0
C585 C 0.38779 0.76932 0.25536 0.0
N586 N 0.309 0.76183 0.15933 0.0
N587 N 0.41055 0.7198 0.36492 0.0
H588 H 0.41544 0.82747 0.2127 0.0
H589 H 0.435 0.7893 0.27833 0.0
H590 H 0.412 0.68903 0.39988 0.0
H591 H 0.42732 0.74463 0.38393 0.0
H592 H 0.2882 0.74255 0.16181 0.0
H593 H 0.30709 0.79376 0.1288 0.0
H594 H 0.29724 0.67386 0.17629 0.0
H595 H 0.31298 0.63995 0.25875 0.0
C596 C 0.84362 0.7056 0.78032 0.0
C597 C 0.87114 0.73024 0.8062 0.0
C598 C 0.90189 0.67459 0.73031 0.0
C599 C 0.87441 0.64904 0.70729 0.0
N600 N 0.81964 0.63457 0.72483 0.0
N601 N 0.92631 0.73465 0.82141 0.0
C602 C 0.8454 0.66286 0.73671 0.0
C603 C 0.90028 0.71346 0.7861 0.0
N604 N 0.81579 0.72398 0.79409 0.0
N605 N 0.92941 0.66206 0.69744 0.0
H606 H 0.92564 0.76294 0.86314 0.0
H607 H 0.94816 0.72208 0.81604 0.0
H608 H 0.93132 0.63347 0.65711 0.0
H609 H 0.94996 0.68166 0.70435 0.0
H610 H 0.79521 0.71064 0.76669 0.0
H611 H 0.81346 0.75434 0.82883 0.0
H612 H 0.79853 0.64015 0.7538 0.0
H613 H 0.81987 0.60354 0.69116 0.0
C614 C 0.62021 0.21223 0.82487 0.0
C615 C 0.6461 0.18573 0.81029 0.0
C616 C 0.66715 0.24371 0.70514 0.0
C617 C 0.63997 0.2681 0.71381 0.0
N618 N 0.58885 0.27333 0.77205 0.0
N619 N 0.69324 0.17355 0.73274 0.0
C620 C 0.61607 0.25188 0.77149 0.0
C621 C 0.66927 0.20071 0.74917 0.0
N622 N 0.59951 0.19937 0.88945 0.0
N623 N 0.69153 0.26268 0.65836 0.0
H624 H 0.69704 0.1437 0.76885 0.0
H625 H 0.70855 0.17931 0.68061 0.0
H626 H 0.6908 0.29372 0.62392 0.0
H627 H 0.7133 0.24946 0.65863 0.0
H628 H 0.58215 0.21988 0.91038 0.0
H629 H 0.60092 0.16945 0.92717 0.0
H630 H 0.5693 0.26072 0.80547 0.0
H631 H 0.5848 0.30192 0.73251 0.0
loop_
_geom_bond_atom_site_label_1
_geom_bond_atom_site_label_2
_geom_bond_distance
_geom_bond_site_symmetry_2
_ccdc_geom_bond_type
Co0 O3 1.970 . S
Co0 N17 1.989 . S
Co0 O25 1.967 . S
Co0 O32 1.920 . S
Co1 O4 1.966 . S
Co1 N10 2.022 1_554 S
Co1 N18 1.993 . S
Co1 O26 1.941 . S
C2 O3 1.258 . S
C2 O4 1.263 . S
O3 Co0 1.970 . S
O3 C2 1.258 . S
O4 Co1 1.966 . S
O4 C2 1.263 . S
C5 O6 1.235 . S
C5 O32 1.289 1_565 S
O6 C5 1.235 . S
C7 C9 1.400 . S
C7 N10 1.351 . S
C7 C12 1.501 . S
C8 C9 1.387 . S
C8 N11 1.341 . S
C9 C7 1.400 . S
C9 C8 1.387 . S
N10 Co1 2.022 1_556 S
N10 C7 1.351 . S
N10 N11 1.365 . S
N11 C8 1.341 . S
N11 N10 1.365 . S
N11 H31 0.862 . S
C12 C7 1.501 . S
C12 H13 0.961 . S
C12 H14 0.961 1_545 S
C12 H15 0.960 . S
H13 C12 0.961 . S
H14 C12 0.961 1_565 S
H15 C12 0.960 . S
C16 N17 1.342 1_565 S
C16 C20 1.401 . S
C16 C21 1.499 . S
N17 Co0 1.989 . S
N17 C16 1.342 1_545 S
N17 N18 1.388 . S
N18 Co1 1.993 . S
N18 N17 1.388 . S
N18 C19 1.346 1_545 S
C19 N18 1.346 1_565 S
C19 C20 1.396 . S
C19 C29 1.510 1_554 S
C20 C16 1.401 . S
C20 C19 1.396 . S
C21 C16 1.499 . S
C21 H22 0.959 . S
C21 H23 0.960 . S
C21 H24 0.961 . S
H22 C21 0.959 . S
H23 C21 0.960 . S
H24 C21 0.961 . S
O25 Co0 1.967 . S
O25 C33 1.258 . S
O26 Co1 1.941 . S
O26 C33 1.266 . S
H27 C29 0.959 1_545 S
H28 C29 0.961 . S
C29 C19 1.510 1_556 S
C29 H27 0.959 1_565 S
C29 H28 0.961 . S
C29 H30 0.960 1_565 S
H30 C29 0.960 1_545 S
H31 N11 0.862 . S
O32 Co0 1.920 . S
O32 C5 1.289 1_545 S
C33 O25 1.258 . S
C33 O26 1.266 . S
Co34 O37 1.970 . S
Co34 N51 1.989 . S
Co34 O59 1.967 . S
Co34 O66 1.920 . S
Co35 O38 1.966 . S
Co35 N44 2.022 1_554 S
Co35 N52 1.993 . S
Co35 O60 1.941 . S
C36 O37 1.258 . S
C36 O38 1.263 . S
O37 Co34 1.970 . S
O37 C36 1.258 . S
O38 Co35 1.966 . S
O38 C36 1.263 . S
C39 O40 1.235 1_565 S
C39 O66 1.289 . S
O40 C39 1.235 1_545 S
C41 C43 1.400 . S
C41 N44 1.351 . S
C41 C46 1.501 . S
C42 C43 1.387 . S
C42 N45 1.341 . S
C43 C41 1.400 . S
C43 C42 1.387 . S
N44 Co35 2.022 1_556 S
N44 C41 1.351 . S
N44 N45 1.365 . S
N45 C42 1.341 . S
N45 N44 1.365 . S
N45 H65 0.862 . S
C46 C41 1.501 . S
C46 H47 0.961 . S
C46 H48 0.961 . S
C46 H49 0.960 . S
H47 C46 0.961 . S
H48 C46 0.961 . S
H49 C46 0.960 . S
C50 N51 1.342 . S
C50 C54 1.401 . S
C50 C55 1.499 . S
N51 Co34 1.989 . S
N51 C50 1.342 . S
N51 N52 1.388 . S
N52 Co35 1.993 . S
N52 N51 1.388 . S
N52 C53 1.346 . S
C53 N52 1.346 . S
C53 C54 1.396 . S
C53 C63 1.510 1_554 S
C54 C50 1.401 . S
C54 C53 1.396 . S
C55 C50 1.499 . S
C55 H56 0.959 . S
C55 H57 0.960 1_565 S
C55 H58 0.961 . S
H56 C55 0.959 . S
H57 C55 0.960 1_545 S
H58 C55 0.961 . S
O59 Co34 1.967 . S
O59 C67 1.258 . S
O60 Co35 1.941 . S
O60 C67 1.266 . S
H61 C63 0.959 . S
H62 C63 0.961 . S
C63 C53 1.510 1_556 S
C63 H61 0.959 . S
C63 H62 0.961 . S
C63 H64 0.960 . S
H64 C63 0.960 . S
H65 N45 0.862 . S
O66 Co34 1.920 . S
O66 C39 1.289 . S
C67 O59 1.258 . S
C67 O60 1.266 . S
Co68 O71 1.970 . S
Co68 N85 1.989 . S
Co68 O93 1.967 . S
Co68 O100 1.920 . S
Co69 O72 1.966 . S
Co69 N78 2.022 . S
Co69 N86 1.993 . S
Co69 O94 1.941 . S
C70 O71 1.258 . S
C70 O72 1.263 . S
O71 Co68 1.970 . S
O71 C70 1.258 . S
O72 Co69 1.966 . S
O72 C70 1.263 . S
C73 O74 1.235 . S
C73 O100 1.289 . S
O74 C73 1.235 . S
C75 C77 1.400 . S
C75 N78 1.351 . S
C75 C80 1.501 . S
C76 C77 1.387 . S
C76 N79 1.341 . S
C77 C75 1.400 . S
C77 C76 1.387 . S
N78 Co69 2.022 . S
N78 C75 1.351 . S
N78 N79 1.365 . S
N79 C76 1.341 . S
N79 N78 1.365 . S
N79 H99 0.862 . S
C80 C75 1.501 . S
C80 H81 0.961 . S
C80 H82 0.961 . S
C80 H83 0.960 . S
H81 C80 0.961 . S
H82 C80 0.961 . S
H83 C80 0.960 . S
C84 N85 1.342 . S
C84 C88 1.401 . S
C84 C89 1.499 . S
N85 Co68 1.989 . S
N85 C84 1.342 . S
N85 N86 1.388 . S
N86 Co69 1.993 . S
N86 N85 1.388 . S
N86 C87 1.346 . S
C87 N86 1.346 . S
C87 C88 1.396 . S
C87 C97 1.510 . S
C88 C84 1.401 . S
C88 C87 1.396 . S
C89 C84 1.499 . S
C89 H90 0.959 . S
C89 H91 0.960 . S
C89 H92 0.961 . S
H90 C89 0.959 . S
H91 C89 0.960 . S
H92 C89 0.961 . S
O93 Co68 1.967 . S
O93 C101 1.258 . S
O94 Co69 1.941 . S
O94 C101 1.266 . S
H95 C97 0.959 . S
H96 C97 0.961 . S
C97 C87 1.510 . S
C97 H95 0.959 . S
C97 H96 0.961 . S
C97 H98 0.960 . S
H98 C97 0.960 . S
H99 N79 0.862 . S
O100 Co68 1.920 . S
O100 C73 1.289 . S
C101 O93 1.258 . S
C101 O94 1.266 . S
Co102 O105 1.970 . S
Co102 N119 1.989 . S
Co102 O127 1.967 . S
Co102 O134 1.920 . S
Co103 O106 1.966 . S
Co103 N112 2.022 . S
Co103 N120 1.993 . S
Co103 O128 1.941 . S
C104 O105 1.258 . S
C104 O106 1.263 . S
O105 Co102 1.970 . S
O105 C104 1.258 . S
O106 Co103 1.966 . S
O106 C104 1.263 . S
C107 O108 1.235 . S
C107 O134 1.289 . S
O108 C107 1.235 . S
C109 C111 1.400 . S
C109 N112 1.351 . S
C109 C114 1.501 . S
C110 C111 1.387 . S
C110 N113 1.341 . S
C111 C109 1.400 . S
C111 C110 1.387 . S
N112 Co103 2.022 . S
N112 C109 1.351 . S
N112 N113 1.365 . S
N113 C110 1.341 . S
N113 N112 1.365 . S
N113 H133 0.862 . S
C114 C109 1.501 . S
C114 H115 0.961 . S
C114 H116 0.961 . S
C114 H117 0.960 . S
H115 C114 0.961 . S
H116 C114 0.961 . S
H117 C114 0.960 . S
C118 N119 1.342 . S
C118 C122 1.401 . S
C118 C123 1.499 . S
N119 Co102 1.989 . S
N119 C118 1.342 . S
N119 N120 1.388 . S
N120 Co103 1.993 . S
N120 N119 1.388 . S
N120 C121 1.346 . S
C121 N120 1.346 . S
C121 C122 1.396 . S
C121 C131 1.510 . S
C122 C118 1.401 . S
C122 C121 1.396 . S
C123 C118 1.499 . S
C123 H124 0.959 . S
C123 H125 0.960 . S
C123 H126 0.961 . S
H124 C123 0.959 . S
H125 C123 0.960 . S
H126 C123 0.961 . S
O127 Co102 1.967 . S
O127 C135 1.258 . S
O128 Co103 1.941 . S
O128 C135 1.266 . S
H129 C131 0.959 . S
H130 C131 0.961 . S
C131 C121 1.510 . S
C131 H129 0.959 . S
C131 H130 0.961 . S
C131 H132 0.960 . S
H132 C131 0.960 . S
H133 N113 0.862 . S
O134 Co102 1.920 . S
O134 C107 1.289 . S
C135 O127 1.258 . S
C135 O128 1.266 . S
Co136 O139 1.970 . S
Co136 N153 1.989 . S
Co136 O161 1.967 . S
Co136 O168 1.920 1_556 S
Co137 O140 1.966 . S
Co137 N146 2.022 . S
Co137 N154 1.993 . S
Co137 O162 1.941 . S
C138 O139 1.258 . S
C138 O140 1.263 . S
O139 Co136 1.970 . S
O139 C138 1.258 . S
O140 Co137 1.966 . S
O140 C138 1.263 . S
C141 O142 1.235 . S
C141 O168 1.289 . S
O142 C141 1.235 . S
C143 C145 1.400 . S
C143 N146 1.351 . S
C143 C148 1.501 . S
C144 C145 1.387 . S
C144 N147 1.341 . S
C145 C143 1.400 . S
C145 C144 1.387 . S
N146 Co137 2.022 . S
N146 C143 1.351 . S
N146 N147 1.365 . S
N147 C144 1.341 . S
N147 N146 1.365 . S
N147 H167 0.862 . S
C148 C143 1.501 . S
C148 H149 0.961 . S
C148 H150 0.961 . S
C148 H151 0.960 . S
H149 C148 0.961 . S
H150 C148 0.961 . S
H151 C148 0.960 . S
C152 N153 1.342 . S
C152 C156 1.401 . S
C152 C157 1.499 . S
N153 Co136 1.989 . S
N153 C152 1.342 . S
N153 N154 1.388 . S
N154 Co137 1.993 . S
N154 N153 1.388 . S
N154 C155 1.346 . S
C155 N154 1.346 . S
C155 C156 1.396 . S
C155 C165 1.510 . S
C156 C152 1.401 . S
C156 C155 1.396 . S
C157 C152 1.499 . S
C157 H158 0.959 1_556 S
C157 H159 0.960 1_556 S
C157 H160 0.961 1_556 S
H158 C157 0.959 1_554 S
H159 C157 0.960 1_554 S
H160 C157 0.961 1_554 S
O161 Co136 1.967 . S
O161 C169 1.258 . S
O162 Co137 1.941 . S
O162 C169 1.266 . S
H163 C165 0.959 . S
H164 C165 0.961 . S
C165 C155 1.510 . S
C165 H163 0.959 . S
C165 H164 0.961 . S
C165 H166 0.960 . S
H166 C165 0.960 . S
H167 N147 0.862 . S
O168 Co136 1.920 1_554 S
O168 C141 1.289 . S
C169 O161 1.258 . S
C169 O162 1.266 . S
Co170 O173 1.970 . S
Co170 N187 1.989 . S
Co170 O195 1.967 . S
Co170 O202 1.920 . S
Co171 O174 1.966 1_554 S
Co171 N180 2.022 . S
Co171 N188 1.993 1_554 S
Co171 O196 1.941 1_554 S
C172 O173 1.258 . S
C172 O174 1.263 . S
O173 Co170 1.970 . S
O173 C172 1.258 . S
O174 Co171 1.966 1_556 S
O174 C172 1.263 . S
C175 O176 1.235 1_545 S
C175 O202 1.289 . S
O176 C175 1.235 1_565 S
C177 C179 1.400 . S
C177 N180 1.351 . S
C177 C182 1.501 . S
C178 C179 1.387 . S
C178 N181 1.341 . S
C179 C177 1.400 . S
C179 C178 1.387 . S
N180 Co171 2.022 . S
N180 C177 1.351 . S
N180 N181 1.365 . S
N181 C178 1.341 . S
N181 N180 1.365 . S
N181 H201 0.862 . S
C182 C177 1.501 . S
C182 H183 0.961 . S
C182 H184 0.961 . S
C182 H185 0.960 . S
H183 C182 0.961 . S
H184 C182 0.961 . S
H185 C182 0.960 . S
C186 N187 1.342 . S
C186 C190 1.401 . S
C186 C191 1.499 . S
N187 Co170 1.989 . S
N187 C186 1.342 . S
N187 N188 1.388 . S
N188 Co171 1.993 1_556 S
N188 N187 1.388 . S
N188 C189 1.346 1_556 S
C189 N188 1.346 1_554 S
C189 C190 1.396 1_554 S
C189 C199 1.510 . S
C190 C186 1.401 . S
C190 C189 1.396 1_556 S
C191 C186 1.499 . S
C191 H192 0.959 . S
C191 H193 0.955 1_545 S
C191 H194 0.961 . S
H192 C191 0.959 . S
H193 C191 0.955 1_565 S
H194 C191 0.961 . S
O195 Co170 1.967 . S
O195 C203 1.258 . S
O196 Co171 1.941 1_556 S
O196 C203 1.266 . S
H197 C199 0.959 . S
H198 C199 0.961 . S
C199 C189 1.510 . S
C199 H197 0.959 . S
C199 H198 0.961 . S
C199 H200 0.960 . S
H200 C199 0.960 . S
H201 N181 0.862 . S
O202 Co170 1.920 . S
O202 C175 1.289 . S
C203 O195 1.258 . S
C203 O196 1.266 . S
Co204 O207 1.970 . S
Co204 N221 1.989 . S
Co204 O229 1.967 . S
Co204 O236 1.920 . S
Co205 O208 1.966 . S
Co205 N214 2.022 . S
Co205 N222 1.993 . S
Co205 O230 1.941 . S
C206 O207 1.258 . S
C206 O208 1.263 . S
O207 Co204 1.970 . S
O207 C206 1.258 . S
O208 Co205 1.966 . S
O208 C206 1.263 . S
C209 O210 1.235 . S
C209 O236 1.289 . S
O210 C209 1.235 . S
C211 C213 1.400 . S
C211 N214 1.351 . S
C211 C216 1.501 . S
C212 C213 1.387 . S
C212 N215 1.341 . S
C213 C211 1.400 . S
C213 C212 1.387 . S
N214 Co205 2.022 . S
N214 C211 1.351 . S
N214 N215 1.365 . S
N215 C212 1.341 . S
N215 N214 1.365 . S
N215 H235 0.862 . S
C216 C211 1.501 . S
C216 H217 0.961 . S
C216 H218 0.961 . S
C216 H219 0.960 . S
H217 C216 0.961 . S
H218 C216 0.961 . S
H219 C216 0.960 . S
C220 N221 1.342 . S
C220 C224 1.401 . S
C220 C225 1.499 . S
N221 Co204 1.989 . S
N221 C220 1.342 . S
N221 N222 1.388 . S
N222 Co205 1.993 . S
N222 N221 1.388 . S
N222 C223 1.346 . S
C223 N222 1.346 . S
C223 C224 1.396 . S
C223 C233 1.510 . S
C224 C220 1.401 . S
C224 C223 1.396 . S
C225 C220 1.499 . S
C225 H226 0.959 . S
C225 H227 0.960 . S
C225 H228 0.961 . S
H226 C225 0.959 . S
H227 C225 0.960 . S
H228 C225 0.961 . S
O229 Co204 1.967 . S
O229 C237 1.258 . S
O230 Co205 1.941 . S
O230 C237 1.266 . S
H231 C233 0.959 . S
H232 C233 0.961 . S
C233 C223 1.510 . S
C233 H231 0.959 . S
C233 H232 0.961 . S
C233 H234 0.960 . S
H234 C233 0.960 . S
H235 N215 0.862 . S
O236 Co204 1.920 . S
O236 C209 1.289 . S
C237 O229 1.258 . S
C237 O230 1.266 . S
Co238 O241 1.970 . S
Co238 N255 1.989 . S
Co238 O263 1.967 . S
Co238 O270 1.920 . S
Co239 O242 1.966 . S
Co239 N248 2.022 . S
Co239 N256 1.993 . S
Co239 O264 1.941 . S
C240 O241 1.258 . S
C240 O242 1.263 . S
O241 Co238 1.970 . S
O241 C240 1.258 . S
O242 Co239 1.966 . S
O242 C240 1.263 . S
C243 O244 1.235 . S
C243 O270 1.289 . S
O244 C243 1.235 . S
C245 C247 1.400 . S
C245 N248 1.351 . S
C245 C250 1.501 . S
C246 C247 1.387 . S
C246 N249 1.341 . S
C247 C245 1.400 . S
C247 C246 1.387 . S
N248 Co239 2.022 . S
N248 C245 1.351 . S
N248 N249 1.365 . S
N249 C246 1.341 . S
N249 N248 1.365 . S
N249 H269 0.862 . S
C250 C245 1.501 . S
C250 H251 0.961 . S
C250 H252 0.961 . S
C250 H253 0.960 . S
H251 C250 0.961 . S
H252 C250 0.961 . S
H253 C250 0.960 . S
C254 N255 1.342 . S
C254 C258 1.401 . S
C254 C259 1.499 . S
N255 Co238 1.989 . S
N255 C254 1.342 . S
N255 N256 1.388 . S
N256 Co239 1.993 . S
N256 N255 1.388 . S
N256 C257 1.346 . S
C257 N256 1.346 . S
C257 C258 1.396 . S
C257 C267 1.510 . S
C258 C254 1.401 . S
C258 C257 1.396 . S
C259 C254 1.499 . S
C259 H260 0.959 . S
C259 H261 0.960 . S
C259 H262 0.961 . S
H260 C259 0.959 . S
H261 C259 0.960 . S
H262 C259 0.961 . S
O263 Co238 1.967 . S
O263 C271 1.258 . S
O264 Co239 1.941 . S
O264 C271 1.266 . S
H265 C267 0.959 . S
H266 C267 0.961 . S
C267 C257 1.510 . S
C267 H265 0.959 . S
C267 H266 0.961 . S
C267 H268 0.960 . S
H268 C267 0.960 . S
H269 N249 0.862 . S
O270 Co238 1.920 . S
O270 C243 1.289 . S
C271 O263 1.258 . S
C271 O264 1.266 . S
C272 C273 1.363 . S
C272 C278 1.379 . S
C272 N280 1.356 1_554 S
C273 C272 1.363 . S
C273 C279 1.363 . S
C274 C275 1.363 . S
C274 C279 1.379 . S
C274 N281 1.356 . S
C275 C274 1.363 . S
C275 C278 1.363 . S
N276 C278 1.350 1_546 S
N276 H288 0.994 . S
N276 H289 0.981 1_556 S
N277 C279 1.356 . S
N277 H282 0.984 . S
N277 H283 0.985 . S
C278 C272 1.379 . S
C278 C275 1.363 . S
C278 N276 1.350 1_564 S
C279 C273 1.363 . S
C279 C274 1.379 . S
C279 N277 1.356 . S
N280 C272 1.356 1_556 S
N280 H286 0.984 . S
N280 H287 0.984 1_556 S
N281 C274 1.356 . S
N281 H284 0.984 . S
N281 H285 0.985 . S
H282 N277 0.984 . S
H283 N277 0.985 . S
H284 N281 0.984 . S
H285 N281 0.985 . S
H286 N280 0.984 . S
H287 N280 0.984 1_554 S
H288 N276 0.994 . S
H289 N276 0.981 1_554 S
C290 C291 1.363 . S
C290 C296 1.379 . S
C290 N298 1.356 . S
C291 C290 1.363 . S
C291 C297 1.363 . S
C292 C293 1.363 . S
C292 C297 1.379 . S
C292 N299 1.356 . S
C293 C292 1.363 . S
C293 C296 1.363 . S
N294 C296 1.356 . S
N294 H306 0.984 . S
N294 H307 0.985 . S
N295 C297 1.356 . S
N295 H300 0.984 . S
N295 H301 0.985 . S
C296 C290 1.379 . S
C296 C293 1.363 . S
C296 N294 1.356 . S
C297 C291 1.363 . S
C297 C292 1.379 . S
C297 N295 1.356 . S
N298 C290 1.356 . S
N298 H304 0.984 . S
N298 H305 0.984 . S
N299 C292 1.356 . S
N299 H302 0.984 . S
N299 H303 0.985 . S
H300 N295 0.984 . S
H301 N295 0.985 . S
H302 N299 0.984 . S
H303 N299 0.985 . S
H304 N298 0.984 . S
H305 N298 0.984 . S
H306 N294 0.984 . S
H307 N294 0.985 . S
C308 C309 1.363 . S
C308 C314 1.379 . S
C308 N316 1.356 1_556 S
C309 C308 1.363 . S
C309 C315 1.348 1_545 S
C310 C311 1.363 . S
C310 C315 1.392 . S
C310 N317 1.356 . S
C311 C310 1.363 . S
C311 C314 1.363 1_565 S
N312 C314 1.356 1_554 S
N312 H324 0.984 . S
N312 H325 0.985 1_544 S
N313 C315 1.353 1_545 S
N313 H318 0.984 . S
N313 H319 0.985 1_545 S
C314 C308 1.379 . S
C314 C311 1.363 1_545 S
C314 N312 1.356 1_556 S
C315 C309 1.348 1_565 S
C315 C310 1.392 . S
C315 N313 1.353 1_565 S
N316 C308 1.356 1_554 S
N316 H322 0.984 . S
N316 H323 0.984 . S
N317 C310 1.356 . S
N317 H320 0.984 . S
N317 H321 0.985 . S
H318 N313 0.984 . S
H319 N313 0.985 1_565 S
H320 N317 0.984 . S
H321 N317 0.985 . S
H322 N316 0.984 . S
H323 N316 0.984 . S
H324 N312 0.984 . S
H325 N312 0.985 1_566 S
C326 C327 1.363 . S
C326 C332 1.379 . S
C326 N334 1.356 . S
C327 C326 1.363 . S
C327 C333 1.363 . S
C328 C329 1.363 . S
C328 C333 1.379 . S
C328 N335 1.356 . S
C329 C328 1.363 . S
C329 C332 1.363 . S
N330 C332 1.356 . S
N330 H342 0.984 . S
N330 H343 0.985 . S
N331 C333 1.356 . S
N331 H336 0.984 . S
N331 H337 0.985 . S
C332 C326 1.379 . S
C332 C329 1.363 . S
C332 N330 1.356 . S
C333 C327 1.363 . S
C333 C328 1.379 . S
C333 N331 1.356 . S
N334 C326 1.356 . S
N334 H340 0.984 . S
N334 H341 0.984 . S
N335 C328 1.356 . S
N335 H338 0.984 . S
N335 H339 0.985 . S
H336 N331 0.984 . S
H337 N331 0.985 . S
H338 N335 0.984 . S
H339 N335 0.985 . S
H340 N334 0.984 . S
H341 N334 0.984 . S
H342 N330 0.984 . S
H343 N330 0.985 . S
C344 C345 1.363 . S
C344 C350 1.379 . S
C344 N352 1.356 1_565 S
C345 C344 1.363 . S
C345 C351 1.363 1_556 S
C346 C347 1.363 1_655 S
C346 C351 1.379 . S
C346 N353 1.356 . S
C347 C346 1.363 1_455 S
C347 C350 1.363 1_454 S
N348 C350 1.356 1_445 S
N348 H360 0.984 . S
N348 H361 0.985 1_556 S
N349 C351 1.356 . S
N349 H354 0.984 1_554 S
N349 H355 0.985 . S
C350 C344 1.379 . S
C350 C347 1.363 1_656 S
C350 N348 1.356 1_665 S
C351 C345 1.363 1_554 S
C351 C346 1.379 . S
C351 N349 1.356 . S
N352 C344 1.356 1_545 S
N352 H358 0.984 . S
N352 H359 0.982 1_545 S
N353 C346 1.356 . S
N353 H356 0.984 1_655 S
N353 H357 0.985 . S
H354 N349 0.984 1_556 S
H355 N349 0.985 . S
H356 N353 0.984 1_455 S
H357 N353 0.985 . S
H358 N352 0.984 . S
H359 N352 0.982 1_565 S
H360 N348 0.984 . S
H361 N348 0.985 1_554 S
C362 C363 1.363 . S
C362 C368 1.379 . S
C362 N370 1.356 . S
C363 C362 1.363 . S
C363 C369 1.363 1_565 S
C364 C365 1.363 1_554 S
C364 C369 1.379 . S
C364 N371 1.356 1_554 S
C365 C364 1.363 1_556 S
C365 C368 1.363 1_546 S
N366 C368 1.356 1_556 S
N366 H378 0.984 . S
N366 H379 0.985 . S
N367 C369 1.356 . S
N367 H372 0.984 . S
N367 H373 0.985 . S
C368 C362 1.379 . S
C368 C365 1.363 1_564 S
C368 N366 1.356 1_554 S
C369 C363 1.363 1_545 S
C369 C364 1.379 . S
C369 N367 1.356 . S
N370 C362 1.356 . S
N370 H376 0.984 . S
N370 H377 0.984 . S
N371 C364 1.356 1_556 S
N371 H374 0.984 . S
N371 H375 0.985 . S
H372 N367 0.984 . S
H373 N367 0.985 . S
H374 N371 0.984 . S
H375 N371 0.985 . S
H376 N370 0.984 . S
H377 N370 0.984 . S
H378 N366 0.984 . S
H379 N366 0.985 . S
C380 C381 1.363 . S
C380 C386 1.379 . S
C380 N388 1.356 . S
C381 C380 1.363 . S
C381 C387 1.363 . S
C382 C383 1.363 . S
C382 C387 1.379 1_655 S
C382 N389 1.356 . S
C383 C382 1.363 . S
C383 C386 1.363 1_655 S
N384 C386 1.356 1_655 S
N384 H396 0.984 1_655 S
N384 H397 0.985 . S
N385 C387 1.356 . S
N385 H390 0.984 . S
N385 H391 0.985 . S
C386 C380 1.379 . S
C386 C383 1.363 1_455 S
C386 N384 1.356 1_455 S
C387 C381 1.363 . S
C387 C382 1.379 1_455 S
C387 N385 1.356 . S
N388 C380 1.356 . S
N388 H394 0.984 . S
N388 H395 0.984 . S
N389 C382 1.356 . S
N389 H392 0.984 . S
N389 H393 0.985 . S
H390 N385 0.984 . S
H391 N385 0.985 . S
H392 N389 0.984 . S
H393 N389 0.985 . S
H394 N388 0.984 . S
H395 N388 0.984 . S
H396 N384 0.984 1_455 S
H397 N384 0.985 . S
C398 C399 1.363 . S
C398 C404 1.379 . S
C398 N406 1.356 . S
C399 C398 1.363 . S
C399 C405 1.363 . S
C400 C401 1.363 . S
C400 C405 1.379 . S
C400 N407 1.356 . S
C401 C400 1.363 . S
C401 C404 1.363 . S
N402 C404 1.356 . S
N402 H414 0.984 . S
N402 H415 0.985 . S
N403 C405 1.356 . S
N403 H408 0.984 . S
N403 H409 0.985 . S
C404 C398 1.379 . S
C404 C401 1.363 . S
C404 N402 1.356 . S
C405 C399 1.363 . S
C405 C400 1.379 . S
C405 N403 1.356 . S
N406 C398 1.356 . S
N406 H412 0.984 . S
N406 H413 0.984 . S
N407 C400 1.356 . S
N407 H410 0.984 . S
N407 H411 0.985 . S
H408 N403 0.984 . S
H409 N403 0.985 . S
H410 N407 0.984 . S
H411 N407 0.985 . S
H412 N406 0.984 . S
H413 N406 0.984 . S
H414 N402 0.984 . S
H415 N402 0.985 . S
C416 C417 1.363 . S
C416 C422 1.379 . S
C416 N424 1.356 . S
C417 C416 1.363 . S
C417 C423 1.363 1_545 S
C418 C419 1.363 . S
C418 C423 1.379 . S
C418 N425 1.356 . S
C419 C418 1.363 . S
C419 C422 1.363 1_565 S
N420 C422 1.356 . S
N420 H432 0.984 . S
N420 H433 0.985 . S
N421 C423 1.356 . S
N421 H426 0.984 . S
N421 H427 0.985 . S
C422 C416 1.379 . S
C422 C419 1.363 1_545 S
C422 N420 1.356 . S
C423 C417 1.363 1_565 S
C423 C418 1.379 . S
C423 N421 1.356 . S
N424 C416 1.356 . S
N424 H430 0.984 . S
N424 H431 0.984 . S
N425 C418 1.356 . S
N425 H428 0.984 . S
N425 H429 0.985 . S
H426 N421 0.984 . S
H427 N421 0.985 . S
H428 N425 0.984 . S
H429 N425 0.985 . S
H430 N424 0.984 . S
H431 N424 0.984 . S
H432 N420 0.984 . S
H433 N420 0.985 . S
C434 C435 1.363 . S
C434 C440 1.379 . S
C434 N442 1.364 . S
C435 C434 1.363 . S
C435 C441 1.363 . S
C436 C437 1.363 . S
C436 C441 1.379 . S
C436 N443 1.356 . S
C437 C436 1.363 . S
C437 C440 1.363 . S
N438 C440 1.356 . S
N438 H450 0.984 . S
N438 H451 0.985 . S
N439 C441 1.356 . S
N439 H444 0.984 . S
N439 H445 0.985 . S
C440 C434 1.379 . S
C440 C437 1.363 . S
C440 N438 1.356 . S
C441 C435 1.363 . S
C441 C436 1.379 . S
C441 N439 1.356 . S
N442 C434 1.364 . S
N442 H448 0.979 1_565 S
N442 H449 0.983 1_565 S
N443 C436 1.356 . S
N443 H446 0.984 . S
N443 H447 0.985 . S
H444 N439 0.984 . S
H445 N439 0.985 . S
H446 N443 0.984 . S
H447 N443 0.985 . S
H448 N442 0.979 1_545 S
H449 N442 0.983 1_545 S
H450 N438 0.984 . S
H451 N438 0.985 . S
C452 C453 1.363 . S
C452 C458 1.379 . S
C452 N460 1.356 . S
C453 C452 1.363 . S
C453 C459 1.363 . S
C454 C455 1.363 1_556 S
C454 C459 1.379 . S
C454 N461 1.356 1_556 S
C455 C454 1.363 1_554 S
C455 C458 1.363 1_554 S
N456 C458 1.356 1_554 S
N456 H468 0.984 1_554 S
N456 H469 0.985 . S
N457 C459 1.356 . S
N457 H462 0.984 . S
N457 H463 0.985 . S
C458 C452 1.379 . S
C458 C455 1.363 1_556 S
C458 N456 1.356 1_556 S
C459 C453 1.363 . S
C459 C454 1.379 . S
C459 N457 1.356 . S
N460 C452 1.356 . S
N460 H466 0.984 . S
N460 H467 0.984 . S
N461 C454 1.356 1_554 S
N461 H464 0.984 . S
N461 H465 0.985 . S
H462 N457 0.984 . S
H463 N457 0.985 . S
H464 N461 0.984 . S
H465 N461 0.985 . S
H466 N460 0.984 . S
H467 N460 0.984 . S
H468 N456 0.984 1_556 S
H469 N456 0.985 . S
C470 C471 1.363 1_556 S
C470 C476 1.379 . S
C470 N478 1.356 1_556 S
C471 C470 1.363 1_554 S
C471 C477 1.365 . S
C472 C473 1.363 . S
C472 C477 1.370 1_556 S
C472 N479 1.356 . S
C473 C472 1.363 . S
C473 C476 1.363 . S
N474 C476 1.356 . S
N474 H486 0.984 . S
N474 H487 0.985 . S
N475 C477 1.364 . S
N475 H480 0.984 . S
N475 H481 0.985 . S
C476 C470 1.379 . S
C476 C473 1.363 . S
C476 N474 1.356 . S
C477 C471 1.365 . S
C477 C472 1.370 1_554 S
C477 N475 1.364 . S
N478 C470 1.356 1_554 S
N478 H484 0.984 1_554 S
N478 H485 0.984 . S
N479 C472 1.356 . S
N479 H482 0.984 . S
N479 H483 0.985 . S
H480 N475 0.984 . S
H481 N475 0.985 . S
H482 N479 0.984 . S
H483 N479 0.985 . S
H484 N478 0.984 1_556 S
H485 N478 0.984 . S
H486 N474 0.984 . S
H487 N474 0.985 . S
C488 C489 1.363 . S
C488 C494 1.379 . S
C488 N496 1.356 . S
C489 C488 1.363 . S
C489 C495 1.363 . S
C490 C491 1.363 . S
C490 C495 1.379 . S
C490 N497 1.356 . S
C491 C490 1.363 . S
C491 C494 1.363 . S
N492 C494 1.356 . S
N492 H504 0.984 . S
N492 H505 0.985 . S
N493 C495 1.356 . S
N493 H498 0.984 . S
N493 H499 0.985 . S
C494 C488 1.379 . S
C494 C491 1.363 . S
C494 N492 1.356 . S
C495 C489 1.363 . S
C495 C490 1.379 . S
C495 N493 1.356 . S
N496 C488 1.356 . S
N496 H502 0.984 . S
N496 H503 0.984 . S
N497 C490 1.356 . S
N497 H500 0.984 . S
N497 H501 0.985 . S
H498 N493 0.984 . S
H499 N493 0.985 . S
H500 N497 0.984 . S
H501 N497 0.985 . S
H502 N496 0.984 . S
H503 N496 0.984 . S
H504 N492 0.984 . S
H505 N492 0.985 . S
C506 C507 1.363 . S
C506 C512 1.379 . S
C506 N514 1.356 . S
C507 C506 1.363 . S
C507 C513 1.363 . S
C508 C509 1.363 . S
C508 C513 1.379 . S
C508 N515 1.356 . S
C509 C508 1.363 . S
C509 C512 1.363 . S
N510 C512 1.356 . S
N510 H522 0.984 . S
N510 H523 0.985 . S
N511 C513 1.356 1_565 S
N511 H516 0.984 . S
N511 H517 0.985 . S
C512 C506 1.379 . S
C512 C509 1.363 . S
C512 N510 1.356 . S
C513 C507 1.363 . S
C513 C508 1.379 . S
C513 N511 1.356 1_545 S
N514 C506 1.356 . S
N514 H520 0.984 . S
N514 H521 0.984 . S
N515 C508 1.356 . S
N515 H518 0.984 . S
N515 H519 0.985 1_545 S
H516 N511 0.984 . S
H517 N511 0.985 . S
H518 N515 0.984 . S
H519 N515 0.985 1_565 S
H520 N514 0.984 . S
H521 N514 0.984 . S
H522 N510 0.984 . S
H523 N510 0.985 . S
C524 C525 1.363 . S
C524 C530 1.379 . S
C524 N532 1.356 . S
C525 C524 1.363 . S
C525 C531 1.363 . S
C526 C527 1.363 1_554 S
C526 C531 1.379 . S
C526 N533 1.356 . S
C527 C526 1.363 1_556 S
C527 C530 1.363 1_556 S
N528 C530 1.356 1_556 S
N528 H540 0.984 . S
N528 H541 0.985 . S
N529 C531 1.356 . S
N529 H534 0.984 . S
N529 H535 0.985 . S
C530 C524 1.379 . S
C530 C527 1.363 1_554 S
C530 N528 1.356 1_554 S
C531 C525 1.363 . S
C531 C526 1.379 . S
C531 N529 1.356 . S
N532 C524 1.356 . S
N532 H538 0.984 . S
N532 H539 0.984 . S
N533 C526 1.356 . S
N533 H536 0.984 1_554 S
N533 H537 0.985 . S
H534 N529 0.984 . S
H535 N529 0.985 . S
H536 N533 0.984 1_556 S
H537 N533 0.985 . S
H538 N532 0.984 . S
H539 N532 0.984 . S
H540 N528 0.984 . S
H541 N528 0.985 . S
C542 C543 1.363 . S
C542 C548 1.379 . S
C542 N550 1.356 . S
C543 C542 1.363 . S
C543 C549 1.363 . S
C544 C545 1.363 . S
C544 C549 1.379 1_556 S
C544 N551 1.356 . S
C545 C544 1.363 . S
C545 C548 1.363 1_556 S
N546 C548 1.356 . S
N546 H558 0.984 . S
N546 H559 0.985 1_554 S
N547 C549 1.356 . S
N547 H552 0.984 . S
N547 H553 0.985 . S
C548 C542 1.379 . S
C548 C545 1.363 1_554 S
C548 N546 1.356 . S
C549 C543 1.363 . S
C549 C544 1.379 1_554 S
C549 N547 1.356 . S
N550 C542 1.356 . S
N550 H556 0.984 . S
N550 H557 0.984 . S
N551 C544 1.356 . S
N551 H554 0.984 . S
N551 H555 0.985 . S
H552 N547 0.984 . S
H553 N547 0.985 . S
H554 N551 0.984 . S
H555 N551 0.985 . S
H556 N550 0.984 . S
H557 N550 0.984 . S
H558 N546 0.984 . S
H559 N546 0.985 1_556 S
C560 C561 1.363 . S
C560 C566 1.379 . S
C560 N568 1.356 . S
C561 C560 1.363 . S
C561 C567 1.363 . S
C562 C563 1.363 . S
C562 C567 1.379 . S
C562 N569 1.356 . S
C563 C562 1.363 . S
C563 C566 1.363 . S
N564 C566 1.356 . S
N564 H576 0.984 . S
N564 H577 0.985 . S
N565 C567 1.356 . S
N565 H570 0.984 . S
N565 H571 0.985 . S
C566 C560 1.379 . S
C566 C563 1.363 . S
C566 N564 1.356 . S
C567 C561 1.363 . S
C567 C562 1.379 . S
C567 N565 1.356 . S
N568 C560 1.356 . S
N568 H574 0.984 . S
N568 H575 0.984 . S
N569 C562 1.356 . S
N569 H572 0.984 . S
N569 H573 0.985 . S
H570 N565 0.984 . S
H571 N565 0.985 . S
H572 N569 0.984 . S
H573 N569 0.985 . S
H574 N568 0.984 . S
H575 N568 0.984 . S
H576 N564 0.984 . S
H577 N564 0.985 . S
C578 C579 1.363 . S
C578 C584 1.379 . S
C578 N586 1.356 . S
C579 C578 1.363 . S
C579 C585 1.363 . S
C580 C581 1.363 . S
C580 C585 1.379 . S
C580 N587 1.356 . S
C581 C580 1.363 . S
C581 C584 1.363 . S
N582 C584 1.356 . S
N582 H594 0.984 . S
N582 H595 0.985 . S
N583 C585 1.356 . S
N583 H588 0.984 . S
N583 H589 0.985 . S
C584 C578 1.379 . S
C584 C581 1.363 . S
C584 N582 1.356 . S
C585 C579 1.363 . S
C585 C580 1.379 . S
C585 N583 1.356 . S
N586 C578 1.356 . S
N586 H592 0.984 . S
N586 H593 0.984 . S
N587 C580 1.356 . S
N587 H590 0.984 . S
N587 H591 0.985 . S
H588 N583 0.984 . S
H589 N583 0.985 . S
H590 N587 0.984 . S
H591 N587 0.985 . S
H592 N586 0.984 . S
H593 N586 0.984 . S
H594 N582 0.984 . S
H595 N582 0.985 . S
C596 C597 1.363 . S
C596 C602 1.379 . S
C596 N604 1.356 . S
C597 C596 1.363 . S
C597 C603 1.363 . S
C598 C599 1.363 . S
C598 C603 1.379 . S
C598 N605 1.356 . S
C599 C598 1.363 . S
C599 C602 1.363 . S
N600 C602 1.356 . S
N600 H612 0.984 . S
N600 H613 0.985 . S
N601 C603 1.356 . S
N601 H606 0.984 . S
N601 H607 0.985 . S
C602 C596 1.379 . S
C602 C599 1.363 . S
C602 N600 1.356 . S
C603 C597 1.363 . S
C603 C598 1.379 . S
C603 N601 1.356 . S
N604 C596 1.356 . S
N604 H610 0.984 . S
N604 H611 0.984 . S
N605 C598 1.356 . S
N605 H608 0.984 . S
N605 H609 0.985 . S
H606 N601 0.984 . S
H607 N601 0.985 . S
H608 N605 0.984 . S
H609 N605 0.985 . S
H610 N604 0.984 . S
H611 N604 0.984 . S
H612 N600 0.984 . S
H613 N600 0.985 . S
C614 C615 1.363 . S
C614 C620 1.379 . S
C614 N622 1.356 . S
C615 C614 1.363 . S
C615 C621 1.363 . S
C616 C617 1.363 . S
C616 C621 1.379 . S
C616 N623 1.356 . S
C617 C616 1.363 . S
C617 C620 1.363 . S
N618 C620 1.356 . S
N618 H630 0.984 . S
N618 H631 0.985 . S
N619 C621 1.356 . S
N619 H624 0.984 . S
N619 H625 0.985 . S
C620 C614 1.379 . S
C620 C617 1.363 . S
C620 N618 1.356 . S
C621 C615 1.363 . S
C621 C616 1.379 . S
C621 N619 1.356 . S
N622 C614 1.356 . S
N622 H628 0.984 . S
N622 H629 0.984 . S
N623 C616 1.356 . S
N623 H626 0.984 . S
N623 H627 0.985 . S
H624 N619 0.984 . S
H625 N619 0.985 . S
H626 N623 0.984 . S
H627 N623 0.985 . S
H628 N622 0.984 . S
H629 N622 0.984 . S
H630 N618 0.984 . S
H631 N618 0.985 . S
C273 C36 1.758 . S
C275 C2 1.760 1_565 S
C291 C70 1.478 . S
C293 C104 1.479 . S
C309 C172 1.715 . S
C311 C138 1.705 . S
C327 C206 1.216 . S
C329 C240 1.218 . S
C345 C169 1.786 . S
C347 C20 1.804 . S
C363 C54 1.717 . S
C365 C190 1.720 . S
C381 C88 1.390 . S
C383 C224 1.387 . S
C399 C122 1.609 . S
C401 C258 1.608 . S
C417 C9 1.410 . S
C419 C5 1.419 . S
C435 C39 1.370 . S
C437 C43 1.351 . S
C453 C77 1.401 . S
C455 C73 1.411 . S
C471 C107 1.366 . S
C473 C111 1.348 . S
C489 C141 1.429 . S
C491 C145 1.389 . S
C507 C175 1.417 . S
C509 C179 1.397 . S
C525 C213 1.339 . S
C527 C209 1.361 . S
C543 C247 1.413 . S
C545 C243 1.413 . S
C561 C33 1.644 . S
C563 C101 1.634 . S
C579 C67 1.800 . S
C581 C135 1.804 . S
C597 C156 1.485 . S
C599 C237 1.498 . S
C615 C203 1.483 . S
C617 C271 1.500 . S
