# Generated by pormake.
# Topology ukc, (4)-cn, num edge types: 1
# Building blocks:
#     Node 0, Type 0, BuildingBlock: CEKHIL_clean_sbu_0, # of connection points: 4
#     Node 1, Type 0, BuildingBlock: CEKHIL_clean_sbu_0, # of connection points: 4
#     Node 2, Type 0, BuildingBlock: CEKHIL_clean_sbu_0, # of connection points: 4
#     Node 3, Type 0, BuildingBlock: CEKHIL_clean_sbu_0, # of connection points: 4
#     Node 4, Type 0, BuildingBlock: CEKHIL_clean_sbu_0, # of connection points: 4
#     Node 5, Type 0, BuildingBlock: CEKHIL_clean_sbu_0, # of connection points: 4
#     Node 6, Type 0, BuildingBlock: CEKHIL_clean_sbu_0, # of connection points: 4
#     Node 7, Type 0, BuildingBlock: CEKHIL_clean_sbu_0, # of connection points: 4
#     Node 8, Type 0, BuildingBlock: CEKHIL_clean_sbu_0, # of connection points: 4
#     Node 9, Type 0, BuildingBlock: CEKHIL_clean_sbu_0, # of connection points: 4
#     Node 10, Type 0, BuildingBlock: CEKHIL_clean_sbu_0, # of connection points: 4
#     Node 11, Type 0, BuildingBlock: CEKHIL_clean_sbu_0, # of connection points: 4
#     Node 12, Type 0, BuildingBlock: CEKHIL_clean_sbu_0, # of connection points: 4
#     Node 13, Type 0, BuildingBlock: CEKHIL_clean_sbu_0, # of connection points: 4
#     Node 14, Type 0, BuildingBlock: CEKHIL_clean_sbu_0, # of connection points: 4
#     Node 15, Type 0, BuildingBlock: CEKHIL_clean_sbu_0, # of connection points: 4
#     Node 16, Type 0, BuildingBlock: CEKHIL_clean_sbu_0, # of connection points: 4
#     Node 17, Type 0, BuildingBlock: CEKHIL_clean_sbu_0, # of connection points: 4
#     Node 18, Type 0, BuildingBlock: CEKHIL_clean_sbu_0, # of connection points: 4
#     Node 19, Type 0, BuildingBlock: CEKHIL_clean_sbu_0, # of connection points: 4
#     Node 20, Type 0, BuildingBlock: CEKHIL_clean_sbu_0, # of connection points: 4
#     Node 21, Type 0, BuildingBlock: CEKHIL_clean_sbu_0, # of connection points: 4
#     Node 22, Type 0, BuildingBlock: CEKHIL_clean_sbu_0, # of connection points: 4
#     Node 23, Type 0, BuildingBlock: CEKHIL_clean_sbu_0, # of connection points: 4
#     Node 24, Type 0, BuildingBlock: CEKHIL_clean_sbu_0, # of connection points: 4
#     Node 25, Type 0, BuildingBlock: CEKHIL_clean_sbu_0, # of connection points: 4
#     Node 26, Type 0, BuildingBlock: CEKHIL_clean_sbu_0, # of connection points: 4
#     Node 27, Type 0, BuildingBlock: CEKHIL_clean_sbu_0, # of connection points: 4
#     Node 28, Type 0, BuildingBlock: CEKHIL_clean_sbu_0, # of connection points: 4
#     Node 29, Type 0, BuildingBlock: CEKHIL_clean_sbu_0, # of connection points: 4
#     Node 30, Type 0, BuildingBlock: CEKHIL_clean_sbu_0, # of connection points: 4
#     Node 31, Type 0, BuildingBlock: CEKHIL_clean_sbu_0, # of connection points: 4
#     Edge 32, Type (0, 0), BuildingBlock: AJUNOK_clean_linker_0, # of connection points: 2
#     Edge 33, Type (0, 0), BuildingBlock: AJUNOK_clean_linker_0, # of connection points: 2
#     Edge 34, Type (0, 0), BuildingBlock: AJUNOK_clean_linker_0, # of connection points: 2
#     Edge 35, Type (0, 0), BuildingBlock: AJUNOK_clean_linker_0, # of connection points: 2
#     Edge 36, Type (0, 0), BuildingBlock: AJUNOK_clean_linker_0, # of connection points: 2
#     Edge 37, Type (0, 0), BuildingBlock: AJUNOK_clean_linker_0, # of connection points: 2
#     Edge 38, Type (0, 0), BuildingBlock: AJUNOK_clean_linker_0, # of connection points: 2
#     Edge 39, Type (0, 0), BuildingBlock: AJUNOK_clean_linker_0, # of connection points: 2
#     Edge 40, Type (0, 0), BuildingBlock: AJUNOK_clean_linker_0, # of connection points: 2
#     Edge 41, Type (0, 0), BuildingBlock: AJUNOK_clean_linker_0, # of connection points: 2
#     Edge 42, Type (0, 0), BuildingBlock: AJUNOK_clean_linker_0, # of connection points: 2
#     Edge 43, Type (0, 0), BuildingBlock: AJUNOK_clean_linker_0, # of connection points: 2
#     Edge 44, Type (0, 0), BuildingBlock: AJUNOK_clean_linker_0, # of connection points: 2
#     Edge 45, Type (0, 0), BuildingBlock: AJUNOK_clean_linker_0, # of connection points: 2
#     Edge 46, Type (0, 0), BuildingBlock: AJUNOK_clean_linker_0, # of connection points: 2
#     Edge 47, Type (0, 0), BuildingBlock: AJUNOK_clean_linker_0, # of connection points: 2
#     Edge 48, Type (0, 0), BuildingBlock: AJUNOK_clean_linker_0, # of connection points: 2
#     Edge 49, Type (0, 0), BuildingBlock: AJUNOK_clean_linker_0, # of connection points: 2
#     Edge 50, Type (0, 0), BuildingBlock: AJUNOK_clean_linker_0, # of connection points: 2
#     Edge 51, Type (0, 0), BuildingBlock: AJUNOK_clean_linker_0, # of connection points: 2
#     Edge 52, Type (0, 0), BuildingBlock: AJUNOK_clean_linker_0, # of connection points: 2
#     Edge 53, Type (0, 0), BuildingBlock: AJUNOK_clean_linker_0, # of connection points: 2
#     Edge 54, Type (0, 0), BuildingBlock: AJUNOK_clean_linker_0, # of connection points: 2
#     Edge 55, Type (0, 0), BuildingBlock: AJUNOK_clean_linker_0, # of connection points: 2
#     Edge 56, Type (0, 0), BuildingBlock: AJUNOK_clean_linker_0, # of connection points: 2
#     Edge 57, Type (0, 0), BuildingBlock: AJUNOK_clean_linker_0, # of connection points: 2
#     Edge 58, Type (0, 0), BuildingBlock: AJUNOK_clean_linker_0, # of connection points: 2
#     Edge 59, Type (0, 0), BuildingBlock: AJUNOK_clean_linker_0, # of connection points: 2
#     Edge 60, Type (0, 0), BuildingBlock: AJUNOK_clean_linker_0, # of connection points: 2
#     Edge 61, Type (0, 0), BuildingBlock: AJUNOK_clean_linker_0, # of connection points: 2
#     Edge 62, Type (0, 0), BuildingBlock: AJUNOK_clean_linker_0, # of connection points: 2
#     Edge 63, Type (0, 0), BuildingBlock: AJUNOK_clean_linker_0, # of connection points: 2
#     Edge 64, Type (0, 0), BuildingBlock: AJUNOK_clean_linker_0, # of connection points: 2
#     Edge 65, Type (0, 0), BuildingBlock: AJUNOK_clean_linker_0, # of connection points: 2
#     Edge 66, Type (0, 0), BuildingBlock: AJUNOK_clean_linker_0, # of connection points: 2
#     Edge 67, Type (0, 0), BuildingBlock: AJUNOK_clean_linker_0, # of connection points: 2
#     Edge 68, Type (0, 0), BuildingBlock: AJUNOK_clean_linker_0, # of connection points: 2
#     Edge 69, Type (0, 0), BuildingBlock: AJUNOK_clean_linker_0, # of connection points: 2
#     Edge 70, Type (0, 0), BuildingBlock: AJUNOK_clean_linker_0, # of connection points: 2
#     Edge 71, Type (0, 0), BuildingBlock: AJUNOK_clean_linker_0, # of connection points: 2
#     Edge 72, Type (0, 0), BuildingBlock: AJUNOK_clean_linker_0, # of connection points: 2
#     Edge 73, Type (0, 0), BuildingBlock: AJUNOK_clean_linker_0, # of connection points: 2
#     Edge 74, Type (0, 0), BuildingBlock: AJUNOK_clean_linker_0, # of connection points: 2
#     Edge 75, Type (0, 0), BuildingBlock: AJUNOK_clean_linker_0, # of connection points: 2
#     Edge 76, Type (0, 0), BuildingBlock: AJUNOK_clean_linker_0, # of connection points: 2
#     Edge 77, Type (0, 0), BuildingBlock: AJUNOK_clean_linker_0, # of connection points: 2
#     Edge 78, Type (0, 0), BuildingBlock: AJUNOK_clean_linker_0, # of connection points: 2
#     Edge 79, Type (0, 0), BuildingBlock: AJUNOK_clean_linker_0, # of connection points: 2
#     Edge 80, Type (0, 0), BuildingBlock: AJUNOK_clean_linker_0, # of connection points: 2
#     Edge 81, Type (0, 0), BuildingBlock: AJUNOK_clean_linker_0, # of connection points: 2
#     Edge 82, Type (0, 0), BuildingBlock: AJUNOK_clean_linker_0, # of connection points: 2
#     Edge 83, Type (0, 0), BuildingBlock: AJUNOK_clean_linker_0, # of connection points: 2
#     Edge 84, Type (0, 0), BuildingBlock: AJUNOK_clean_linker_0, # of connection points: 2
#     Edge 85, Type (0, 0), BuildingBlock: AJUNOK_clean_linker_0, # of connection points: 2
#     Edge 86, Type (0, 0), BuildingBlock: AJUNOK_clean_linker_0, # of connection points: 2
#     Edge 87, Type (0, 0), BuildingBlock: AJUNOK_clean_linker_0, # of connection points: 2
#     Edge 88, Type (0, 0), BuildingBlock: AJUNOK_clean_linker_0, # of connection points: 2
#     Edge 89, Type (0, 0), BuildingBlock: AJUNOK_clean_linker_0, # of connection points: 2
#     Edge 90, Type (0, 0), BuildingBlock: AJUNOK_clean_linker_0, # of connection points: 2
#     Edge 91, Type (0, 0), BuildingBlock: AJUNOK_clean_linker_0, # of connection points: 2
#     Edge 92, Type (0, 0), BuildingBlock: AJUNOK_clean_linker_0, # of connection points: 2
#     Edge 93, Type (0, 0), BuildingBlock: AJUNOK_clean_linker_0, # of connection points: 2
#     Edge 94, Type (0, 0), BuildingBlock: AJUNOK_clean_linker_0, # of connection points: 2
#     Edge 95, Type (0, 0), BuildingBlock: AJUNOK_clean_linker_0, # of connection points: 2
# Relax obj value: 0.051
# Max RMSD: 0.066
# Mean RMSD: 0.066
data_MOF--net-ukc--node1-CEKHIL_clean_sbu_0--edge1-AJUNOK_clean_linker_0
_symmetry_space_group_name_H-M    P1
_symmetry_Int_Tables_number       1
_symmetry_cell_setting            triclinic
loop_
_symmetry_equiv_pos_as_xyz
'x, y, z'
_cell_length_a     32.624199
_cell_length_b     32.610453
_cell_length_c     62.531664
_cell_angle_alpha  90.001968
_cell_angle_beta   90.000125
_cell_angle_gamma 90.001945
loop_
_atom_site_label
_atom_site_type_symbol
_atom_site_fract_x
_atom_site_fract_y
_atom_site_fract_z
_atom_type_partial_charge
Co0 Co 0.124 0.39766 0.04802 0.0
O1 O 0.1709 0.4332 0.0415 0.0
O2 O 0.15467 0.37798 0.02325 0.0
C3 C 0.13626 0.3934 0.08374 0.0
O4 O 0.08133 0.35085 0.04987 0.0
Co5 Co 0.05307 0.42014 0.07948 0.0
O6 O 0.03365 0.36333 0.07509 0.0
C7 C 0.05676 0.45895 0.03669 0.0
C8 C 0.1805 0.40775 0.0263 0.0
C9 C 0.04945 0.34029 0.06088 0.0
O10 O 0.08522 0.43379 0.03036 0.0
O11 O 0.0436 0.4601 0.05593 0.0
O12 O 0.15646 0.37049 0.07038 0.0
O13 O 0.11163 0.41934 0.07511 0.0
Co14 Co 0.86939 0.87391 0.29902 0.0
O15 O 0.83482 0.9213 0.29175 0.0
O16 O 0.89094 0.90425 0.27455 0.0
C17 C 0.87133 0.88653 0.33485 0.0
O18 O 0.91561 0.83082 0.30161 0.0
Co19 Co 0.84533 0.80361 0.33064 0.0
O20 O 0.90203 0.78358 0.32689 0.0
C21 C 0.81101 0.80431 0.28679 0.0
C22 C 0.86155 0.93068 0.27712 0.0
C23 C 0.92554 0.79889 0.31274 0.0
O24 O 0.83427 0.83474 0.28089 0.0
O25 O 0.80865 0.79164 0.30608 0.0
O26 O 0.89538 0.9064 0.32189 0.0
O27 O 0.84601 0.86198 0.32574 0.0
Co28 Co 0.39851 0.62277 0.54727 0.0
O29 O 0.3515 0.58775 0.54007 0.0
O30 O 0.36876 0.6434 0.52245 0.0
C31 C 0.38478 0.62624 0.58291 0.0
O32 O 0.44111 0.66939 0.54976 0.0
Co33 Co 0.46809 0.59991 0.57945 0.0
O34 O 0.48788 0.65671 0.57539 0.0
C35 C 0.46855 0.56426 0.53582 0.0
C36 C 0.3423 0.61411 0.52523 0.0
C37 C 0.47264 0.67983 0.56105 0.0
O38 O 0.4382 0.58733 0.52967 0.0
O39 O 0.48087 0.56251 0.5552 0.0
O40 O 0.36528 0.64949 0.56944 0.0
O41 O 0.40975 0.60042 0.57442 0.0
Co42 Co 0.64678 0.14683 0.79695 0.0
O43 O 0.68247 0.10018 0.79028 0.0
O44 O 0.62669 0.11583 0.77237 0.0
C45 C 0.64317 0.13473 0.83268 0.0
O46 O 0.59997 0.18935 0.79907 0.0
Co47 Co 0.67067 0.21805 0.82789 0.0
O48 O 0.6138 0.23764 0.8238 0.0
C49 C 0.70632 0.21528 0.78443 0.0
C50 C 0.65676 0.09028 0.77528 0.0
C51 C 0.59009 0.2216 0.80996 0.0
O52 O 0.68182 0.18572 0.77887 0.0
O53 O 0.70873 0.22879 0.80359 0.0
O54 O 0.62025 0.11436 0.81942 0.0
O55 O 0.66907 0.15933 0.82394 0.0
Co56 Co 0.12251 0.62403 0.46227 0.0
O57 O 0.17001 0.58958 0.46919 0.0
O58 O 0.15269 0.64505 0.48693 0.0
C59 C 0.13531 0.62727 0.42661 0.0
O60 O 0.07862 0.66976 0.45986 0.0
Co61 Co 0.0527 0.59879 0.43078 0.0
O62 O 0.03961 0.65805 0.43084 0.0
C63 C 0.05406 0.56446 0.47472 0.0
C64 C 0.17917 0.61575 0.4841 0.0
C65 C 0.05128 0.68119 0.44608 0.0
O66 O 0.08439 0.58806 0.48019 0.0
O67 O 0.03964 0.56287 0.4557 0.0
O68 O 0.15469 0.65112 0.43985 0.0
O69 O 0.11111 0.60103 0.43536 0.0
Co70 Co 0.6483 0.87094 0.71205 0.0
O71 O 0.68389 0.91763 0.71887 0.0
O72 O 0.62699 0.90281 0.73603 0.0
C73 C 0.64711 0.88168 0.67615 0.0
O74 O 0.60128 0.82872 0.7097 0.0
Co75 Co 0.67236 0.79832 0.68198 0.0
O76 O 0.61506 0.77982 0.68531 0.0
C77 C 0.70595 0.80188 0.72589 0.0
C78 C 0.65738 0.92807 0.73341 0.0
C79 C 0.59122 0.79646 0.69888 0.0
O80 O 0.68229 0.83248 0.73093 0.0
O81 O 0.70839 0.78721 0.70697 0.0
O82 O 0.62339 0.90274 0.68875 0.0
O83 O 0.67201 0.85714 0.68564 0.0
Co84 Co 0.39928 0.39804 0.96251 0.0
O85 O 0.35273 0.43387 0.96931 0.0
O86 O 0.3672 0.37684 0.98643 0.0
C87 C 0.38881 0.39698 0.92654 0.0
O88 O 0.4412 0.35073 0.96023 0.0
Co89 Co 0.47229 0.42144 0.93266 0.0
O90 O 0.49021 0.3639 0.93586 0.0
C91 C 0.46828 0.45555 0.97646 0.0
C92 C 0.34215 0.40741 0.98385 0.0
C93 C 0.47326 0.34015 0.94937 0.0
O94 O 0.43772 0.43185 0.98149 0.0
O95 O 0.48303 0.45786 0.95756 0.0
O96 O 0.36752 0.37336 0.9391 0.0
O97 O 0.41343 0.4217 0.93611 0.0
Co98 Co 0.87064 0.14868 0.21217 0.0
O99 O 0.83627 0.10136 0.21965 0.0
O100 O 0.89139 0.11976 0.23734 0.0
C101 C 0.87455 0.13387 0.17666 0.0
O102 O 0.91624 0.19265 0.20928 0.0
Co103 Co 0.84581 0.21629 0.17919 0.0
O104 O 0.9048 0.2304 0.17978 0.0
C105 C 0.81092 0.21807 0.22305 0.0
C106 C 0.86231 0.09295 0.23474 0.0
C107 C 0.92766 0.21964 0.19531 0.0
O108 O 0.83429 0.18805 0.22933 0.0
O109 O 0.80928 0.23034 0.20365 0.0
O110 O 0.89822 0.11528 0.19029 0.0
O111 O 0.84813 0.15838 0.18497 0.0
Co112 Co 0.89829 0.62207 0.96384 0.0
O113 O 0.85108 0.58699 0.97058 0.0
O114 O 0.86769 0.64264 0.98838 0.0
C115 C 0.88639 0.62582 0.92811 0.0
O116 O 0.94101 0.66862 0.9617 0.0
Co117 Co 0.96954 0.59814 0.93302 0.0
O118 O 0.98892 0.65526 0.93677 0.0
C119 C 0.96588 0.56171 0.97625 0.0
C120 C 0.84151 0.61314 0.98546 0.0
C121 C 0.97286 0.67894 0.95062 0.0
O122 O 0.93683 0.5867 0.98192 0.0
O123 O 0.97932 0.55921 0.95708 0.0
O124 O 0.86615 0.64886 0.94139 0.0
O125 O 0.91076 0.59967 0.93684 0.0
Co126 Co 0.14734 0.14923 0.71305 0.0
O127 O 0.18219 0.10172 0.71965 0.0
O128 O 0.12575 0.11749 0.73694 0.0
C129 C 0.14592 0.1391 0.67703 0.0
O130 O 0.1008 0.19209 0.71111 0.0
Co131 Co 0.17174 0.22214 0.68343 0.0
O132 O 0.11512 0.24232 0.6876 0.0
C133 C 0.20763 0.21572 0.72666 0.0
C134 C 0.1555 0.09156 0.73416 0.0
C135 C 0.09113 0.22526 0.70095 0.0
O136 O 0.182 0.18697 0.73201 0.0
O137 O 0.2107 0.22961 0.70761 0.0
O138 O 0.12191 0.11817 0.68955 0.0
O139 O 0.17103 0.16322 0.68664 0.0
Co140 Co 0.62478 0.39813 0.46307 0.0
O141 O 0.67246 0.43261 0.46983 0.0
O142 O 0.65514 0.37728 0.48767 0.0
C143 C 0.63685 0.39421 0.42731 0.0
O144 O 0.5814 0.35209 0.46097 0.0
Co145 Co 0.55405 0.42252 0.43192 0.0
O146 O 0.53417 0.36569 0.4357 0.0
C147 C 0.5562 0.45782 0.47555 0.0
C148 C 0.68173 0.40641 0.48473 0.0
C149 C 0.54949 0.34215 0.44984 0.0
O150 O 0.58649 0.43415 0.48109 0.0
O151 O 0.5421 0.45951 0.45649 0.0
O152 O 0.65672 0.37087 0.4406 0.0
O153 O 0.61272 0.42056 0.43604 0.0
Co154 Co 0.36885 0.87471 0.21258 0.0
O155 O 0.33423 0.92288 0.21745 0.0
O156 O 0.38651 0.90594 0.23774 0.0
C157 C 0.37607 0.88545 0.17687 0.0
O158 O 0.41481 0.831 0.21218 0.0
Co159 Co 0.34684 0.80288 0.18151 0.0
O160 O 0.40338 0.78348 0.18671 0.0
C161 C 0.30779 0.80662 0.22417 0.0
C162 C 0.35803 0.93249 0.23332 0.0
C163 C 0.42566 0.79897 0.20134 0.0
O164 O 0.33081 0.83726 0.22992 0.0
O165 O 0.30785 0.79161 0.20528 0.0
O166 O 0.39844 0.90566 0.19049 0.0
O167 O 0.34903 0.86164 0.1852 0.0
Co168 Co 0.90106 0.399 0.5485 0.0
O169 O 0.85385 0.43341 0.54089 0.0
O170 O 0.87075 0.37668 0.52419 0.0
C171 C 0.88802 0.39846 0.5843 0.0
O172 O 0.9445 0.35298 0.55167 0.0
Co173 Co 0.97064 0.42452 0.58018 0.0
O174 O 0.98382 0.36534 0.58049 0.0
C175 C 0.97049 0.45685 0.53573 0.0
C176 C 0.84448 0.40633 0.52646 0.0
C177 C 0.97197 0.34186 0.56544 0.0
O178 O 0.94002 0.4335 0.53009 0.0
O179 O 0.98342 0.45953 0.55498 0.0
O180 O 0.86847 0.37377 0.57155 0.0
O181 O 0.91255 0.42353 0.57499 0.0
Co182 Co 0.37061 0.14951 0.29836 0.0
O183 O 0.3358 0.10218 0.29211 0.0
O184 O 0.38902 0.11997 0.2727 0.0
C185 C 0.37631 0.13559 0.33386 0.0
O186 O 0.41659 0.19342 0.30058 0.0
Co187 Co 0.34599 0.21774 0.33118 0.0
O188 O 0.40517 0.23069 0.33032 0.0
C189 C 0.31016 0.21873 0.28766 0.0
C190 C 0.35993 0.09355 0.27626 0.0
C191 C 0.42826 0.21968 0.31492 0.0
O192 O 0.33341 0.18859 0.28144 0.0
O193 O 0.30883 0.23142 0.30699 0.0
O194 O 0.3993 0.11652 0.32008 0.0
O195 O 0.34952 0.15982 0.32568 0.0
Co196 Co 0.62259 0.62107 0.04903 0.0
O197 O 0.66975 0.58613 0.04198 0.0
O198 O 0.65229 0.64151 0.02418 0.0
C199 C 0.63571 0.62509 0.08467 0.0
O200 O 0.57983 0.66752 0.05133 0.0
Co201 Co 0.55264 0.59826 0.08102 0.0
O202 O 0.53372 0.65547 0.07733 0.0
C203 C 0.55298 0.56221 0.03752 0.0
C204 C 0.67879 0.61226 0.027 0.0
C205 C 0.54882 0.67846 0.06289 0.0
O206 O 0.5833 0.58537 0.03145 0.0
O207 O 0.54019 0.56064 0.05682 0.0
O208 O 0.65546 0.64818 0.07122 0.0
O209 O 0.61106 0.599 0.07616 0.0
Co210 Co 0.14785 0.87216 0.7976 0.0
O211 O 0.18248 0.91975 0.79083 0.0
O212 O 0.12715 0.90238 0.77299 0.0
C213 C 0.14405 0.88418 0.83333 0.0
O214 O 0.10162 0.82908 0.79959 0.0
Co215 Co 0.17125 0.80101 0.82865 0.0
O216 O 0.11423 0.7817 0.82489 0.0
C217 C 0.2072 0.80354 0.7852 0.0
C218 C 0.15633 0.92891 0.77588 0.0
C219 C 0.091 0.79741 0.81074 0.0
O220 O 0.18373 0.83392 0.77965 0.0
O221 O 0.2085 0.78907 0.8042 0.0
O222 O 0.12077 0.90417 0.82005 0.0
O223 O 0.1702 0.85981 0.82462 0.0
Co224 Co 0.62324 0.89841 0.54769 0.0
O225 O 0.67076 0.93316 0.54121 0.0
O226 O 0.65325 0.87848 0.52282 0.0
C227 C 0.63591 0.89326 0.58327 0.0
O228 O 0.5801 0.85217 0.5495 0.0
Co229 Co 0.55298 0.92106 0.57944 0.0
O230 O 0.53335 0.86424 0.57521 0.0
C231 C 0.55623 0.96039 0.53679 0.0
C232 C 0.67993 0.90739 0.52609 0.0
C233 C 0.54872 0.84134 0.5608 0.0
O234 O 0.58466 0.93531 0.53033 0.0
O235 O 0.54319 0.96131 0.55606 0.0
O236 O 0.65557 0.87031 0.56972 0.0
O237 O 0.61152 0.91978 0.57491 0.0
Co238 Co 0.37216 0.37345 0.79795 0.0
O239 O 0.33744 0.42097 0.79126 0.0
O240 O 0.39203 0.40307 0.77294 0.0
C241 C 0.37727 0.38633 0.83356 0.0
O242 O 0.41827 0.33018 0.7998 0.0
Co243 Co 0.34948 0.30338 0.82983 0.0
O244 O 0.40611 0.28332 0.82544 0.0
C245 C 0.31022 0.30641 0.78717 0.0
C246 C 0.36306 0.42976 0.77601 0.0
C247 C 0.429 0.29863 0.81102 0.0
O248 O 0.33531 0.33478 0.78067 0.0
O249 O 0.30923 0.29349 0.80646 0.0
O250 O 0.40023 0.40593 0.81998 0.0
O251 O 0.35078 0.36193 0.8252 0.0
Co252 Co 0.89885 0.1217 0.04774 0.0
O253 O 0.85147 0.08701 0.04059 0.0
O254 O 0.86815 0.14337 0.0235 0.0
C255 C 0.8875 0.12317 0.08366 0.0
O256 O 0.94156 0.16821 0.05018 0.0
Co257 Co 0.9707 0.09727 0.07801 0.0
O258 O 0.99039 0.15429 0.0745 0.0
C259 C 0.96588 0.06141 0.03476 0.0
C260 C 0.84197 0.11375 0.02597 0.0
C261 C 0.97385 0.1783 0.06096 0.0
O262 O 0.9373 0.08706 0.02917 0.0
O263 O 0.97911 0.05822 0.05393 0.0
O264 O 0.86697 0.14715 0.07093 0.0
O265 O 0.91188 0.09799 0.07427 0.0
Co266 Co 0.14501 0.64909 0.29762 0.0
O267 O 0.18103 0.60294 0.29027 0.0
O268 O 0.12358 0.61729 0.27359 0.0
C269 C 0.14502 0.63722 0.33353 0.0
O270 O 0.09741 0.69059 0.30055 0.0
Co271 Co 0.16807 0.72092 0.3285 0.0
O272 O 0.11064 0.73906 0.32525 0.0
C273 C 0.20095 0.71988 0.28435 0.0
C274 C 0.15423 0.59223 0.27594 0.0
C275 C 0.08691 0.72241 0.31163 0.0
O276 O 0.17801 0.68896 0.27884 0.0
O277 O 0.20389 0.73278 0.30358 0.0
O278 O 0.12118 0.61623 0.32096 0.0
O279 O 0.16909 0.66244 0.324 0.0
Co280 Co 0.62313 0.12136 0.96168 0.0
O281 O 0.67059 0.0866 0.96855 0.0
O282 O 0.65427 0.14298 0.98579 0.0
C283 C 0.63398 0.12305 0.92573 0.0
O284 O 0.58023 0.16779 0.9595 0.0
Co285 Co 0.55099 0.09718 0.93137 0.0
O286 O 0.5314 0.15407 0.93511 0.0
C287 C 0.55484 0.06247 0.97504 0.0
C288 C 0.68032 0.11329 0.98315 0.0
C289 C 0.54777 0.17777 0.94883 0.0
O290 O 0.58507 0.08641 0.98034 0.0
O291 O 0.54039 0.06032 0.95608 0.0
O292 O 0.65462 0.14704 0.9384 0.0
O293 O 0.60977 0.0978 0.93518 0.0
Co294 Co 0.14543 0.37219 0.21275 0.0
O295 O 0.18056 0.41905 0.21989 0.0
O296 O 0.12343 0.40404 0.23669 0.0
C297 C 0.14549 0.38365 0.17684 0.0
O298 O 0.09889 0.32913 0.2099 0.0
Co299 Co 0.17094 0.3007 0.18227 0.0
O300 O 0.11157 0.28867 0.18152 0.0
C301 C 0.20286 0.30309 0.22671 0.0
C302 C 0.15382 0.42942 0.23429 0.0
C303 C 0.08782 0.30136 0.19626 0.0
O304 O 0.17934 0.33383 0.23171 0.0
O305 O 0.20537 0.28843 0.20778 0.0
O306 O 0.12093 0.4041 0.18928 0.0
O307 O 0.17014 0.35918 0.18652 0.0
Co308 Co 0.8996 0.89871 0.46336 0.0
O309 O 0.85229 0.9331 0.47058 0.0
O310 O 0.86984 0.87738 0.48807 0.0
C311 C 0.88596 0.89575 0.42778 0.0
O312 O 0.94343 0.85301 0.46055 0.0
Co313 Co 0.96871 0.92459 0.43168 0.0
O314 O 0.98203 0.86538 0.43147 0.0
C315 C 0.96823 0.95818 0.47579 0.0
C316 C 0.84331 0.90671 0.48541 0.0
C317 C 0.97061 0.84191 0.44662 0.0
O318 O 0.93804 0.93441 0.48126 0.0
O319 O 0.98222 0.96019 0.45669 0.0
O320 O 0.86696 0.87181 0.44111 0.0
O321 O 0.91036 0.922 0.43641 0.0
Co322 Co 0.37121 0.64835 0.71179 0.0
O323 O 0.33598 0.60156 0.71919 0.0
O324 O 0.39286 0.61763 0.73601 0.0
C325 C 0.37208 0.63626 0.67592 0.0
O326 O 0.41819 0.69043 0.70906 0.0
Co327 Co 0.34812 0.71977 0.68077 0.0
O328 O 0.40544 0.73838 0.68408 0.0
C329 C 0.31439 0.71848 0.72476 0.0
C330 C 0.36292 0.59178 0.73364 0.0
C331 C 0.4289 0.72209 0.69794 0.0
O332 O 0.3374 0.68772 0.73034 0.0
O333 O 0.31186 0.7316 0.70555 0.0
O334 O 0.39598 0.61572 0.68866 0.0
O335 O 0.34743 0.66121 0.68525 0.0
Co336 Co 0.39858 0.12327 0.46277 0.0
O337 O 0.35162 0.0878 0.46932 0.0
O338 O 0.36632 0.14455 0.48664 0.0
C339 C 0.38852 0.12484 0.42678 0.0
O340 O 0.44096 0.17022 0.4607 0.0
Co341 Co 0.47164 0.0992 0.43311 0.0
O342 O 0.49051 0.15642 0.4367 0.0
C343 C 0.46551 0.06333 0.47636 0.0
C344 C 0.341 0.11427 0.48385 0.0
C345 C 0.47344 0.1804 0.45007 0.0
O346 O 0.43666 0.08886 0.48172 0.0
O347 O 0.47938 0.06032 0.45731 0.0
O348 O 0.36729 0.14849 0.43935 0.0
O349 O 0.41276 0.09976 0.43634 0.0
Co350 Co 0.64523 0.64872 0.21368 0.0
O351 O 0.68086 0.60178 0.22019 0.0
O352 O 0.62434 0.61644 0.23765 0.0
C353 C 0.64379 0.63823 0.17769 0.0
O354 O 0.59799 0.69089 0.21183 0.0
Co355 Co 0.66756 0.72177 0.18358 0.0
O356 O 0.61037 0.74016 0.18749 0.0
C357 C 0.70301 0.71793 0.22712 0.0
C358 C 0.65454 0.59108 0.23478 0.0
C359 C 0.58713 0.72318 0.20122 0.0
O360 O 0.67977 0.68713 0.23243 0.0
O361 O 0.7045 0.7327 0.2082 0.0
O362 O 0.62008 0.61714 0.19029 0.0
O363 O 0.66845 0.66294 0.18719 0.0
Co364 Co 0.12367 0.89771 0.96235 0.0
O365 O 0.17137 0.93236 0.96898 0.0
O366 O 0.15473 0.87658 0.98662 0.0
C367 C 0.13457 0.89536 0.9264 0.0
O368 O 0.08056 0.85131 0.96046 0.0
Co369 Co 0.05172 0.92122 0.93181 0.0
O370 O 0.03185 0.86453 0.93593 0.0
C371 C 0.05775 0.95951 0.97459 0.0
C372 C 0.18102 0.90599 0.98375 0.0
C373 C 0.04813 0.8411 0.9498 0.0
O374 O 0.08572 0.93358 0.98069 0.0
O375 O 0.04427 0.96132 0.95543 0.0
O376 O 0.15506 0.8714 0.93916 0.0
O377 O 0.11042 0.92072 0.93575 0.0
Co378 Co 0.87036 0.37397 0.71293 0.0
O379 O 0.83475 0.42119 0.71826 0.0
O380 O 0.8875 0.40474 0.73833 0.0
C381 C 0.87716 0.38599 0.67728 0.0
O382 O 0.91725 0.33126 0.71212 0.0
Co383 Co 0.85005 0.30277 0.68123 0.0
O384 O 0.90705 0.28451 0.68615 0.0
C385 C 0.80921 0.30573 0.72353 0.0
C386 C 0.85844 0.43083 0.73419 0.0
C387 C 0.92904 0.30007 0.70088 0.0
O388 O 0.83299 0.33527 0.72997 0.0
O389 O 0.80956 0.29209 0.70437 0.0
O390 O 0.89922 0.40624 0.69102 0.0
O391 O 0.85075 0.36136 0.68548 0.0
Co392 Co 0.39969 0.89788 0.04808 0.0
O393 O 0.35291 0.93314 0.04059 0.0
O394 O 0.36914 0.87634 0.02375 0.0
C395 C 0.38735 0.89695 0.08392 0.0
O396 O 0.4417 0.85079 0.05089 0.0
Co397 Co 0.47077 0.92098 0.07938 0.0
O398 O 0.48976 0.86384 0.07583 0.0
C399 C 0.46963 0.95532 0.03555 0.0
C400 C 0.34323 0.90624 0.02608 0.0
C401 C 0.47352 0.84036 0.06196 0.0
O402 O 0.43928 0.93193 0.02974 0.0
O403 O 0.48229 0.95787 0.05484 0.0
O404 O 0.36688 0.87305 0.07114 0.0
O405 O 0.41234 0.9216 0.07464 0.0
Co406 Co 0.87096 0.64778 0.79914 0.0
O407 O 0.83498 0.60093 0.79346 0.0
O408 O 0.88938 0.6162 0.77429 0.0
C409 C 0.87485 0.63686 0.83509 0.0
O410 O 0.91824 0.68998 0.80036 0.0
Co411 Co 0.8498 0.72013 0.83008 0.0
O412 O 0.90676 0.7385 0.8253 0.0
C413 C 0.81239 0.71729 0.78703 0.0
C414 C 0.85939 0.59093 0.77791 0.0
C415 C 0.92931 0.72208 0.81107 0.0
O416 O 0.83537 0.68667 0.78118 0.0
O417 O 0.81111 0.73079 0.80619 0.0
O418 O 0.89776 0.61581 0.82205 0.0
O419 O 0.84966 0.66153 0.82601 0.0
Co420 Co 0.12318 0.12359 0.54836 0.0
O421 O 0.1698 0.0884 0.54107 0.0
O422 O 0.15298 0.14405 0.52337 0.0
C423 C 0.13739 0.12688 0.58394 0.0
O424 O 0.0799 0.16983 0.55125 0.0
Co425 Co 0.05473 0.09908 0.58095 0.0
O426 O 0.04188 0.15838 0.58068 0.0
C427 C 0.05337 0.06484 0.53691 0.0
C428 C 0.17896 0.11421 0.526 0.0
C429 C 0.05309 0.18139 0.56529 0.0
O430 O 0.08361 0.08808 0.53084 0.0
O431 O 0.04093 0.06295 0.55628 0.0
O432 O 0.15661 0.15039 0.57049 0.0
O433 O 0.11268 0.1009 0.57542 0.0
Co434 Co 0.646 0.37139 0.29828 0.0
O435 O 0.68091 0.41828 0.29096 0.0
O436 O 0.62379 0.4029 0.27425 0.0
C437 C 0.64593 0.38326 0.33419 0.0
O438 O 0.59965 0.32809 0.30148 0.0
Co439 Co 0.67334 0.30062 0.3288 0.0
O440 O 0.61444 0.2867 0.3292 0.0
C441 C 0.70455 0.30298 0.28435 0.0
C442 C 0.65414 0.42839 0.27653 0.0
C443 C 0.58963 0.29972 0.31502 0.0
O444 O 0.6801 0.333 0.27934 0.0
O445 O 0.70799 0.28894 0.30336 0.0
O446 O 0.62132 0.40346 0.32168 0.0
O447 O 0.6709 0.35905 0.32456 0.0
C448 C 0.01094 0.50157 0.9852 0.0
C449 C 0.98738 0.53545 0.99226 0.0
C450 C 0.0344 0.47782 0.9994 0.0
C451 C 0.03538 0.48679 0.02134 0.0
H452 H 0.01128 0.4931 0.96846 0.0
H453 H 0.05116 0.45175 0.99317 0.0
S454 S 0.98141 0.57372 0.04796 0.0
N455 N 0.96795 0.57748 0.02261 0.0
N456 N 0.012 0.5335 0.04934 0.0
C457 C 0.01243 0.52102 0.02859 0.0
C458 C 0.98839 0.54502 0.0141 0.0
C459 C 0.74276 0.77981 0.23901 0.0
C460 C 0.72975 0.73905 0.24302 0.0
C461 C 0.76988 0.80048 0.25274 0.0
C462 C 0.78512 0.78137 0.27116 0.0
H463 H 0.73171 0.79625 0.22511 0.0
H464 H 0.77822 0.83188 0.24912 0.0
S465 S 0.7634 0.6739 0.2882 0.0
N466 N 0.73592 0.67993 0.26627 0.0
N467 N 0.78699 0.71807 0.29207 0.0
C468 C 0.77293 0.74029 0.27519 0.0
C469 C 0.74518 0.71939 0.26121 0.0
C470 C 0.49521 0.49986 0.48677 0.0
C471 C 0.53483 0.48448 0.49147 0.0
C472 C 0.47421 0.52612 0.50083 0.0
C473 C 0.49176 0.53816 0.52031 0.0
H474 H 0.47987 0.49135 0.47207 0.0
H475 H 0.44375 0.53646 0.49653 0.0
S476 S 0.59598 0.50902 0.5397 0.0
N477 N 0.59128 0.4848 0.51667 0.0
N478 N 0.55257 0.5342 0.54308 0.0
C479 C 0.53173 0.5235 0.52509 0.0
C480 C 0.55297 0.49664 0.51075 0.0
C481 C 0.78608 0.2884 0.76091 0.0
C482 C 0.78131 0.28386 0.73874 0.0
C483 C 0.76225 0.26555 0.77533 0.0
C484 C 0.73235 0.23703 0.76832 0.0
H485 H 0.80888 0.30926 0.76726 0.0
H486 H 0.7676 0.27041 0.79223 0.0
S487 S 0.70622 0.21458 0.71183 0.0
N488 N 0.74298 0.24921 0.7104 0.0
N489 N 0.69884 0.20645 0.73758 0.0
C490 C 0.72698 0.23238 0.74621 0.0
C491 C 0.75113 0.25574 0.73145 0.0
C492 C 0.97402 0.49493 0.50068 0.0
C493 C 0.99282 0.48265 0.51981 0.0
C494 C 0.99397 0.52168 0.48646 0.0
C495 C 0.03366 0.53732 0.4907 0.0
H496 H 0.94336 0.48451 0.49684 0.0
H497 H 0.9778 0.53042 0.47204 0.0
S498 S 0.0979 0.51198 0.53772 0.0
N499 N 0.0549 0.48638 0.54161 0.0
N500 N 0.09163 0.53675 0.51496 0.0
C501 C 0.05307 0.52478 0.50958 0.0
C502 C 0.03294 0.4974 0.52404 0.0
C503 C 0.74669 0.74092 0.73815 0.0
C504 C 0.73201 0.78108 0.74218 0.0
C505 C 0.77311 0.72066 0.75238 0.0
C506 C 0.78596 0.73955 0.77137 0.0
H507 H 0.7376 0.72468 0.7238 0.0
H508 H 0.78302 0.68979 0.74861 0.0
S509 S 0.75863 0.84548 0.78892 0.0
N510 N 0.73367 0.83938 0.7662 0.0
N511 N 0.78337 0.80202 0.79298 0.0
C512 C 0.77186 0.77999 0.77551 0.0
C513 C 0.74484 0.80048 0.76099 0.0
C514 C 0.52884 0.49706 0.98852 0.0
C515 C 0.48901 0.48175 0.99275 0.0
C516 C 0.54909 0.52349 1.00275 0.0
C517 C 0.53056 0.53573 0.02193 0.0
H518 H 0.54487 0.48848 0.97403 0.0
H519 H 0.57971 0.53388 0.99879 0.0
S520 S 0.42563 0.50649 0.04015 0.0
N521 N 0.4314 0.48211 0.01722 0.0
N522 N 0.46883 0.53177 0.04402 0.0
C523 C 0.49048 0.52097 0.02631 0.0
C524 C 0.46996 0.49396 0.01177 0.0
C525 C 0.7742 0.22316 0.25837 0.0
C526 C 0.78413 0.24053 0.23853 0.0
C527 C 0.74796 0.2434 0.27269 0.0
C528 C 0.73047 0.28211 0.26794 0.0
H529 H 0.78638 0.19347 0.26284 0.0
H530 H 0.74134 0.22823 0.28771 0.0
S531 S 0.74812 0.34217 0.21852 0.0
N532 N 0.7752 0.29993 0.2151 0.0
N533 N 0.72599 0.33736 0.24211 0.0
C534 C 0.7402 0.29997 0.24821 0.0
C535 C 0.76701 0.27944 0.23355 0.0
C536 C 0.29174 0.28345 0.75001 0.0
C537 C 0.2825 0.28474 0.7719 0.0
C538 C 0.26812 0.2599 0.73583 0.0
C539 C 0.23401 0.23662 0.74282 0.0
H540 H 0.3179 0.30009 0.7438 0.0
H541 H 0.27682 0.2601 0.71911 0.0
S542 S 0.19537 0.23102 0.79845 0.0
N543 N 0.23565 0.26154 0.79987 0.0
N544 N 0.19171 0.21743 0.7731 0.0
C545 C 0.22427 0.23775 0.76464 0.0
C546 C 0.24824 0.26183 0.77914 0.0
C547 C 0.23981 0.72446 0.24954 0.0
C548 C 0.22581 0.74312 0.26836 0.0
C549 C 0.26636 0.7453 0.23555 0.0
C550 C 0.28009 0.78576 0.23974 0.0
H551 H 0.23108 0.6932 0.24583 0.0
H552 H 0.27667 0.72912 0.22142 0.0
S553 S 0.24922 0.85 0.28584 0.0
N554 N 0.22539 0.80597 0.28968 0.0
N555 N 0.27552 0.8443 0.2635 0.0
C556 C 0.26559 0.8051 0.25824 0.0
C557 C 0.23837 0.78407 0.27244 0.0
C558 C 0.27156 0.22268 0.25286 0.0
C559 C 0.28325 0.24099 0.2722 0.0
C560 C 0.24498 0.2428 0.23865 0.0
C561 C 0.22896 0.28229 0.24305 0.0
H562 H 0.28256 0.19235 0.24873 0.0
H563 H 0.23693 0.22696 0.22402 0.0
S564 S 0.25181 0.34495 0.29099 0.0
N565 N 0.27779 0.3021 0.29468 0.0
N566 N 0.22792 0.33931 0.26792 0.0
C567 C 0.24053 0.30109 0.26226 0.0
C568 C 0.26767 0.28069 0.27678 0.0
C569 C 0.24769 0.74217 0.77323 0.0
C570 C 0.23429 0.78282 0.76936 0.0
C571 C 0.27447 0.72178 0.75921 0.0
C572 C 0.28898 0.74113 0.74068 0.0
H573 H 0.23708 0.72561 0.78719 0.0
H574 H 0.28307 0.69039 0.76268 0.0
S575 S 0.26638 0.84866 0.72412 0.0
N576 N 0.23956 0.84224 0.74624 0.0
N577 N 0.29007 0.80466 0.71995 0.0
C578 C 0.27658 0.78219 0.73688 0.0
C579 C 0.24915 0.80277 0.75112 0.0
C580 C 0.53338 0.97914 0.49962 0.0
C581 C 0.53462 0.98823 0.52153 0.0
C582 C 0.50983 1.00284 0.48547 0.0
C583 C 0.48648 0.0369 0.4925 0.0
H584 H 0.55004 0.95302 0.49337 0.0
H585 H 0.51006 0.99423 0.46874 0.0
S586 S 0.48075 0.07518 0.54819 0.0
N587 N 0.51131 0.03493 0.54956 0.0
N588 N 0.46721 0.07898 0.52284 0.0
C589 C 0.48757 0.0465 0.51433 0.0
C590 C 0.51166 0.02245 0.52881 0.0
C591 C 0.03279 0.97636 0.01165 0.0
C592 C 0.03682 0.98732 0.99007 0.0
C593 C 1.00864 0.99983 0.02566 0.0
C594 C 0.98744 0.03533 0.01874 0.0
H595 H 0.0475 0.9489 0.01767 0.0
H596 H 1.00655 0.98988 0.04215 0.0
S597 S 0.9902 0.07903 0.96409 0.0
N598 N 0.01912 0.03759 0.96264 0.0
N599 N 0.97371 0.08106 0.98902 0.0
C600 C 0.99157 0.0469 0.99728 0.0
C601 C 0.01635 0.0232 0.983 0.0
C602 C 0.49397 0.02114 0.98685 0.0
C603 C 0.53406 0.0358 0.99108 0.0
C604 C 0.4736 0.99438 1.00087 0.0
C605 C 0.49233 0.98116 0.01982 0.0
H606 H 0.47781 0.03061 0.97255 0.0
H607 H 0.44271 0.98469 0.99703 0.0
S608 S 0.59811 1.00792 0.03773 0.0
N609 N 0.59219 0.03348 0.01517 0.0
N610 N 0.55464 0.98307 0.04153 0.0
C611 C 0.53277 0.99504 0.0241 0.0
C612 C 0.55336 0.02243 0.00981 0.0
C613 C 0.04814 0.02842 0.50142 0.0
C614 C 0.03078 0.03851 0.52126 0.0
C615 C 0.02779 1.00221 0.48709 0.0
C616 C 0.98905 0.98488 0.49188 0.0
H617 H 0.07795 0.04035 0.49701 0.0
H618 H 0.04292 0.99532 0.4721 0.0
S619 S 0.92872 1.00353 0.54114 0.0
N620 N 0.97111 0.03036 0.54455 0.0
N621 N 0.93359 0.98112 0.51763 0.0
C622 C 0.97111 0.99503 0.51154 0.0
C623 C 0.99168 0.02182 0.52616 0.0
C624 C 0.03563 0.22442 0.0593 0.0
C625 C 0.99268 0.21963 0.05805 0.0
C626 C 0.05413 0.26346 0.0588 0.0
C627 C 0.03032 0.29931 0.05763 0.0
H628 H 0.05513 0.19774 0.06105 0.0
H629 H 0.08712 0.26565 0.06042 0.0
S630 S 0.91697 0.30391 0.05313 0.0
N631 N 0.9272 0.25436 0.05443 0.0
N632 N 0.9617 0.32755 0.05434 0.0
C633 C 0.98749 0.29496 0.05583 0.0
C634 C 0.96876 0.25522 0.05578 0.0
C635 C 0.04105 0.78396 0.3086 0.0
C636 C 0.04551 0.74092 0.30892 0.0
C637 C 1.00211 0.80262 0.30855 0.0
C638 C 0.96614 0.77895 0.30951 0.0
H639 H 0.06795 0.80343 0.30876 0.0
H640 H 1.00023 0.83578 0.30882 0.0
S641 S 0.96085 0.66519 0.30975 0.0
N642 N 0.01046 0.6753 0.30911 0.0
N643 N 0.93746 0.71013 0.30985 0.0
C644 C 0.97017 0.7359 0.3093 0.0
C645 C 0.00977 0.71695 0.30877 0.0
C646 C 0.46829 0.75658 0.5583 0.0
C647 C 0.49207 0.72064 0.5578 0.0
C648 C 0.48686 0.79558 0.55858 0.0
C649 C 0.52984 0.80017 0.55769 0.0
H650 H 0.43523 0.75453 0.55959 0.0
H651 H 0.46742 0.82239 0.55992 0.0
S652 S 0.60555 0.71563 0.55455 0.0
N653 N 0.56073 0.69211 0.55554 0.0
N654 N 0.59538 0.76524 0.55517 0.0
C655 C 0.55378 0.76449 0.55607 0.0
C656 C 0.53496 0.7248 0.55638 0.0
C657 C 0.51322 0.21751 0.80859 0.0
C658 C 0.54921 0.24099 0.80694 0.0
C659 C 0.47438 0.23636 0.80925 0.0
C660 C 0.46994 0.27931 0.80766 0.0
H661 H 0.51518 0.18454 0.81048 0.0
H662 H 0.4476 0.21717 0.81144 0.0
S663 S 0.55461 0.35419 0.80142 0.0
N664 N 0.57791 0.30928 0.80281 0.0
N665 N 0.50504 0.34441 0.8032 0.0
C666 C 0.50561 0.30288 0.80489 0.0
C667 C 0.54517 0.28381 0.80478 0.0
C668 C 1.00143 0.78102 0.4284 0.0
C669 C 0.99006 0.80044 0.44763 0.0
C670 C 0.02143 0.74295 0.42828 0.0
C671 C 0.03196 0.72267 0.44738 0.0
H672 H 0.99451 0.79526 0.41317 0.0
H673 H 0.02899 0.72939 0.41296 0.0
S674 S 0.00975 0.76021 0.5022 0.0
N675 N 0.99082 0.79625 0.48644 0.0
N676 N 0.02942 0.72496 0.48621 0.0
C677 C 0.02123 0.74176 0.46681 0.0
C678 C 0.99994 0.78042 0.46693 0.0
C679 C 0.51446 0.80175 0.7001 0.0
C680 C 0.55005 0.77768 0.70172 0.0
C681 C 0.47535 0.78353 0.69943 0.0
C682 C 0.47025 0.74064 0.70095 0.0
H683 H 0.51694 0.8347 0.6983 0.0
H684 H 0.44886 0.80317 0.69735 0.0
S685 S 0.5537 0.6644 0.70713 0.0
N686 N 0.5777 0.70894 0.70578 0.0
N687 N 0.5043 0.67496 0.70534 0.0
C688 C 0.50553 0.71648 0.70367 0.0
C689 C 0.54537 0.73492 0.70381 0.0
C690 C 0.55274 0.25447 0.95152 0.0
C691 C 0.52865 0.21876 0.95201 0.0
C692 C 0.53453 0.29362 0.9513 0.0
C693 C 0.49158 0.29863 0.95219 0.0
H694 H 0.58578 0.25215 0.95025 0.0
H695 H 0.55426 0.32024 0.95004 0.0
S696 S 0.41512 0.21479 0.95548 0.0
N697 N 0.45971 0.19087 0.95441 0.0
N698 N 0.42574 0.26431 0.95481 0.0
C699 C 0.46732 0.26317 0.95381 0.0
C700 C 0.48578 0.22332 0.95348 0.0
C701 C 0.02657 0.27178 0.17791 0.0
C702 C 0.04616 0.28239 0.19719 0.0
C703 C 0.98872 0.25139 0.17768 0.0
C704 C 0.96882 0.2397 0.19672 0.0
H705 H 0.04061 0.27943 0.16272 0.0
H706 H 0.97509 0.24435 0.16231 0.0
S707 S 1.0071 0.25964 0.25165 0.0
N708 N 0.04266 0.27971 0.23599 0.0
N709 N 0.97174 0.24044 0.23557 0.0
C710 C 0.98809 0.24979 0.2162 0.0
C711 C 0.02653 0.27146 0.21644 0.0
C712 C 0.0345 0.72518 0.95246 0.0
C713 C 0.99154 0.72034 0.9534 0.0
C714 C 0.05288 0.7643 0.95265 0.0
C715 C 0.02893 0.80014 0.95314 0.0
H716 H 0.05409 0.69847 0.95118 0.0
H717 H 0.08591 0.7665 0.95133 0.0
S718 S 0.91541 0.80452 0.95654 0.0
N719 N 0.92585 0.75496 0.95595 0.0
N720 N 0.9601 0.82826 0.95547 0.0
C721 C 0.98605 0.79572 0.95461 0.0
C722 C 0.96744 0.75592 0.95499 0.0
C723 C 0.97523 0.23856 0.70309 0.0
C724 C 0.97024 0.28149 0.7044 0.0
C725 C 0.01436 0.22028 0.70333 0.0
C726 C 0.0501 0.24431 0.70423 0.0
H727 H 0.94864 0.21894 0.70136 0.0
H728 H 0.01666 0.18729 0.70168 0.0
S729 S 0.05404 0.35774 0.70892 0.0
N730 N 1.00455 0.34719 0.70788 0.0
N731 N 0.07795 0.31315 0.70753 0.0
C732 C 0.04552 0.28713 0.70619 0.0
C733 C 1.00567 0.30563 0.70651 0.0
C734 C 0.55356 0.26543 0.45317 0.0
C735 C 0.52979 0.30138 0.45292 0.0
C736 C 0.53502 0.22642 0.45285 0.0
C737 C 0.492 0.22181 0.45294 0.0
H738 H 0.58669 0.26744 0.45254 0.0
H739 H 0.55457 0.1996 0.45218 0.0
S740 S 0.41611 0.30636 0.45389 0.0
N741 N 0.46096 0.32988 0.4536 0.0
N742 N 0.42633 0.25675 0.45385 0.0
C743 C 0.46797 0.25751 0.45376 0.0
C744 C 0.4868 0.29721 0.45351 0.0
C745 C 0.50225 0.8034 0.20452 0.0
C746 C 0.46635 0.7796 0.20507 0.0
C747 C 0.54122 0.78484 0.20401 0.0
C748 C 0.54589 0.74181 0.20462 0.0
H749 H 0.50018 0.83647 0.20328 0.0
H750 H 0.56796 0.80437 0.20264 0.0
S751 S 0.46147 0.66601 0.20797 0.0
N752 N 0.43793 0.71085 0.20726 0.0
N753 N 0.51105 0.67621 0.20713 0.0
C754 C 0.51027 0.71784 0.20639 0.0
C755 C 0.47058 0.73666 0.20636 0.0
C756 C 1.00329 0.28096 0.58339 0.0
C757 C 0.99146 0.30043 0.56426 0.0
C758 C 0.02349 0.243 0.58334 0.0
C759 C 0.03375 0.22288 0.56414 0.0
H760 H 0.99659 0.29507 0.59869 0.0
H761 H 0.03139 0.22938 0.5986 0.0
S762 S 0.01042 0.26074 0.50952 0.0
N763 N 0.9916 0.29657 0.52544 0.0
N764 N 0.03051 0.22544 0.52534 0.0
C765 C 0.02258 0.24206 0.54481 0.0
C766 C 1.00111 0.28061 0.54487 0.0
C767 C 0.48851 0.25203 0.29522 0.0
C768 C 0.47018 0.23826 0.31436 0.0
C769 C 0.52653 0.2731 0.29537 0.0
C770 C 0.54792 0.28044 0.31463 0.0
H771 H 0.47298 0.24733 0.28011 0.0
H772 H 0.53956 0.28304 0.28031 0.0
S773 S 0.5133 0.24996 0.36902 0.0
N774 N 0.47681 0.23324 0.35298 0.0
N775 N 0.54733 0.27213 0.3533 0.0
C776 C 0.52984 0.26645 0.33377 0.0
C777 C 0.49134 0.24556 0.33362 0.0
C778 C 0.46858 0.7636 0.06211 0.0
C779 C 0.49214 0.79917 0.05902 0.0
C780 C 0.48708 0.7246 0.06275 0.0
C781 C 0.52968 0.71956 0.05976 0.0
H782 H 0.43596 0.76608 0.06509 0.0
H783 H 0.46791 0.69819 0.06599 0.0
S784 S 0.60429 0.80305 0.04942 0.0
N785 N 0.5599 0.82692 0.05203 0.0
N786 N 0.59435 0.75369 0.0524 0.0
C787 C 0.55317 0.75481 0.05557 0.0
C788 C 0.53449 0.79457 0.05546 0.0
C789 C 1.00602 0.71706 0.80904 0.0
C790 C 0.97025 0.74086 0.80742 0.0
C791 C 0.04504 0.73555 0.80942 0.0
C792 C 0.04985 0.77844 0.80762 0.0
H793 H 1.00376 0.68416 0.81117 0.0
H794 H 0.07166 0.71614 0.8116 0.0
S795 S 0.96578 0.85397 0.80128 0.0
N796 N 0.9421 0.80931 0.80301 0.0
N797 N 0.01529 0.84377 0.80291 0.0
C798 C 0.01437 0.80228 0.80482 0.0
C799 C 0.97464 0.78357 0.80497 0.0
C800 C 0.27982 0.3724 0.9992 0.0
C801 C 0.30137 0.40902 0.99504 0.0
C802 C 0.24047 0.37258 0.0086 0.0
C803 C 0.22113 0.40933 0.01492 0.0
H804 H 0.29316 0.34318 0.99477 0.0
H805 H 0.22544 0.34344 0.01137 0.0
S806 S 0.26458 0.51376 0.0081 0.0
N807 N 0.29998 0.48326 0.99788 0.0
N808 N 0.22722 0.48352 0.01648 0.0
C809 C 0.24257 0.44619 0.01113 0.0
C810 C 0.28221 0.44607 1.00095 0.0
C811 C 0.82512 0.03152 0.25091 0.0
C812 C 0.86206 0.05234 0.24629 0.0
C813 C 0.82492 0.99248 0.26094 0.0
C814 C 0.86166 0.97169 0.26596 0.0
H815 H 0.79608 0.0457 0.24695 0.0
H816 H 0.79573 0.97819 0.26449 0.0
S817 S 0.96668 0.01212 0.25675 0.0
N818 N 0.93635 0.04875 0.2477 0.0
N819 N 0.93602 0.97545 0.26544 0.0
C820 C 0.89869 0.99201 0.26113 0.0
C821 C 0.89888 0.03216 0.25161 0.0
C822 C 0.24103 0.57818 0.49945 0.0
C823 C 0.22007 0.61524 0.49529 0.0
C824 C 0.28033 0.57774 0.50916 0.0
C825 C 0.30115 0.61439 0.5143 0.0
H826 H 0.22676 0.54922 0.49538 0.0
H827 H 0.29474 0.54847 0.51239 0.0
S828 S 0.26028 0.71965 0.50641 0.0
N829 N 0.2235 0.68953 0.49735 0.0
N830 N 0.29724 0.68877 0.51453 0.0
C831 C 0.28067 0.65155 0.50997 0.0
C832 C 0.2403 0.65196 0.50076 0.0
C833 C 0.62181 0.02943 0.75828 0.0
C834 C 0.65847 0.04956 0.764 0.0
C835 C 0.62191 0.98991 0.74906 0.0
C836 C 0.65872 0.96897 0.7445 0.0
H837 H 0.59256 0.04398 0.76138 0.0
H838 H 0.59276 0.97596 0.74507 0.0
S839 S 0.76331 1.00803 0.75594 0.0
N840 N 0.73278 0.04494 0.76457 0.0
N841 N 0.73301 0.97185 0.74631 0.0
C842 C 0.69566 0.98893 0.74983 0.0
C843 C 0.69552 0.02876 0.75982 0.0
C844 C 0.741 0.57549 0.01141 0.0
C845 C 0.71969 0.61223 0.01582 0.0
C846 C 0.78016 0.5757 1.00153 0.0
C847 C 0.80046 0.6127 0.99647 0.0
H848 H 0.72712 0.5463 0.01538 0.0
H849 H 0.79489 0.54667 0.99811 0.0
S850 S 0.75861 0.71733 1.00512 0.0
N851 N 0.72231 0.68661 0.01416 0.0
N852 N 0.79577 0.68702 0.99668 0.0
C853 C 0.77966 0.64953 1.0011 0.0
C854 C 0.73945 0.64929 0.01047 0.0
C855 C 0.19313 0.99116 0.7603 0.0
C856 C 0.1564 0.96981 0.76468 0.0
C857 C 0.19293 0.03025 0.75032 0.0
C858 C 0.15594 0.05041 0.7451 0.0
H859 H 0.22229 0.97736 0.76438 0.0
H860 H 0.22194 0.04504 0.74698 0.0
S861 S 0.05137 1.00836 0.75357 0.0
N862 N 0.08207 0.97222 0.76279 0.0
N863 N 0.08166 0.04552 0.74511 0.0
C864 C 0.11914 0.02955 0.74967 0.0
C865 C 0.11937 0.98942 0.75916 0.0
C866 C 0.78301 0.44328 0.51021 0.0
C867 C 0.8036 0.40639 0.5152 0.0
C868 C 0.74386 0.44332 0.50033 0.0
C869 C 0.72277 0.4065 0.49582 0.0
H870 H 0.79748 0.4724 0.51374 0.0
H871 H 0.72975 0.47246 0.49646 0.0
S872 S 0.76247 0.30158 0.50617 0.0
N873 N 0.79943 0.33204 0.51472 0.0
N874 N 0.72595 0.33214 0.49723 0.0
C875 C 0.74283 0.36953 0.50104 0.0
C876 C 0.78307 0.36947 0.51043 0.0
C877 C 0.36012 0.01612 0.27667 0.0
C878 C 0.35761 0.05301 0.26492 0.0
C879 C 0.36016 0.97736 0.26648 0.0
C880 C 0.356 0.97366 0.24413 0.0
H881 H 0.36321 0.01726 0.29391 0.0
H882 H 0.36325 0.95004 0.2762 0.0
S883 S 0.34752 0.06063 0.20601 0.0
N884 N 0.35127 0.08309 0.22963 0.0
N885 N 0.34898 0.01075 0.21062 0.0
C886 C 0.35252 0.01033 0.23226 0.0
C887 C 0.35395 0.04979 0.24258 0.0
C888 C 0.78173 0.9439 0.50122 0.0
C889 C 0.80242 0.90692 0.49656 0.0
C890 C 0.74234 0.9441 0.5108 0.0
C891 C 0.72117 0.90734 0.5153 0.0
H892 H 0.79626 0.97295 0.49762 0.0
H893 H 0.72811 0.97329 0.51443 0.0
S894 S 0.76123 0.80225 0.50586 0.0
N895 N 0.79838 0.83257 0.49742 0.0
N896 N 0.72443 0.83295 0.51436 0.0
C897 C 0.74138 0.87027 0.51046 0.0
C898 C 0.78186 0.87006 0.50138 0.0
C899 C 0.32586 0.53069 0.75027 0.0
C900 C 0.36272 0.55088 0.74483 0.0
C901 C 0.3259 0.49173 0.76038 0.0
C902 C 0.36274 0.47051 0.76467 0.0
H903 H 0.29676 0.54536 0.74697 0.0
H904 H 0.29683 0.47792 0.76462 0.0
S905 S 0.46753 0.50922 0.7531 0.0
N906 N 0.43702 0.54619 0.74462 0.0
N907 N 0.43703 0.4731 0.76254 0.0
C908 C 0.39964 0.49016 0.75897 0.0
C909 C 0.39965 0.53017 0.74935 0.0
C910 C 0.77915 0.07662 0.01119 0.0
C911 C 0.80135 0.11331 0.01443 0.0
C912 C 0.74033 0.07645 1.00094 0.0
C913 C 0.72128 0.11314 0.99424 0.0
H914 H 0.79203 0.04771 0.01643 0.0
H915 H 0.72482 0.04744 0.99857 0.0
S916 S 0.76592 0.21751 0.99896 0.0
N917 N 0.80096 0.18728 0.00964 0.0
N918 N 0.72817 0.18705 0.99143 0.0
C919 C 0.74301 0.14993 0.99757 0.0
C920 C 0.78286 0.15 0.00736 0.0
C921 C 0.11874 0.53067 0.25975 0.0
C922 C 0.15556 0.55121 0.26484 0.0
C923 C 0.11861 0.49102 0.25062 0.0
C924 C 0.15528 0.47029 0.24553 0.0
H925 H 0.08957 0.54503 0.26325 0.0
H926 H 0.08935 0.47684 0.24708 0.0
S927 S 0.26019 0.51034 0.25528 0.0
N928 N 0.22988 0.5471 0.26427 0.0
N929 N 0.22964 0.47383 0.24623 0.0
C930 C 0.19235 0.49063 0.25028 0.0
C931 C 0.19248 0.53059 0.26016 0.0
C932 C 0.23841 0.14934 0.50762 0.0
C933 C 0.21941 0.11271 0.51439 0.0
C934 C 0.27792 0.14948 0.49835 0.0
C935 C 0.29997 0.11289 0.4948 0.0
H936 H 0.22305 0.17844 0.50997 0.0
H937 H 0.29104 0.17859 0.49358 0.0
S938 S 0.26419 1.00845 0.50918 0.0
N939 N 0.22637 0.03868 0.51697 0.0
N940 N 0.29935 0.03884 0.49865 0.0
C941 C 0.2811 0.07596 0.50111 0.0
C942 C 0.24131 0.07591 0.51114 0.0
C943 C 0.61892 0.48972 0.25993 0.0
C944 C 0.65559 0.4691 0.26514 0.0
C945 C 0.61906 0.52933 0.25075 0.0
C946 C 0.65588 0.54991 0.24572 0.0
H947 H 0.58966 0.47553 0.26344 0.0
H948 H 0.58989 0.54367 0.2472 0.0
S949 S 0.7605 0.50937 0.25559 0.0
N950 N 0.72996 0.47281 0.26459 0.0
N951 N 0.73018 0.546 0.24646 0.0
C952 C 0.6928 0.52939 0.25048 0.0
C953 C 0.69266 0.48948 0.26042 0.0
C954 C 0.24287 0.94322 0.99955 0.0
C955 C 0.22199 0.90632 0.9949 0.0
C956 C 0.28183 0.94328 0.00968 0.0
C957 C 0.30237 0.90644 0.0148 0.0
H958 H 0.22876 0.97231 0.99562 0.0
H959 H 0.29618 0.97243 0.01327 0.0
S960 S 0.26171 0.80149 0.00551 0.0
N961 N 0.22533 0.83197 0.99634 0.0
N962 N 0.29836 0.83206 0.01429 0.0
C963 C 0.28202 0.86946 0.0099 0.0
C964 C 0.24203 0.86941 1.00025 0.0
C965 C 0.8652 0.47525 0.76735 0.0
C966 C 0.85548 0.47152 0.74545 0.0
C967 C 0.86493 0.51374 0.77781 0.0
C968 C 0.85631 0.55039 0.7667 0.0
H969 H 0.8731 0.44817 0.77649 0.0
H970 H 0.8727 0.51495 0.79464 0.0
S971 S 0.83024 0.55818 0.70917 0.0
N972 N 0.83679 0.5085 0.71312 0.0
N973 N 0.8383 0.58044 0.73253 0.0
C974 C 0.84686 0.54721 0.74484 0.0
C975 C 0.84589 0.50797 0.73432 0.0
C976 C 0.11231 0.41236 0.12048 0.0
C977 C 0.13896 0.38937 0.10736 0.0
C978 C 0.11445 0.41025 0.14286 0.0
C979 C 0.14349 0.38522 0.15309 0.0
H980 H 0.08951 0.43238 0.11345 0.0
H981 H 0.09326 0.42853 0.15219 0.0
S982 S 0.22089 0.31926 0.12609 0.0
N983 N 0.19535 0.34083 0.10629 0.0
N984 N 0.20001 0.33716 0.14824 0.0
C985 C 0.17043 0.36208 0.14015 0.0
C986 C 0.168 0.36405 0.11734 0.0
C987 C 0.90823 0.91491 0.39071 0.0
C988 C 0.88194 0.89231 0.40419 0.0
C989 C 0.90475 0.91292 0.36834 0.0
C990 C 0.87466 0.88845 0.35855 0.0
H991 H 0.93182 0.93437 0.39744 0.0
H992 H 0.92578 0.93075 0.35869 0.0
S993 S 0.79732 0.82419 0.38671 0.0
N994 N 0.82452 0.84506 0.4061 0.0
N995 N 0.81731 0.84173 0.36427 0.0
C996 C 0.84795 0.8659 0.3719 0.0
C997 C 0.85177 0.8677 0.39464 0.0
C998 C 0.404 0.60897 0.64227 0.0
C999 C 0.37489 0.63438 0.65219 0.0
C1000 C 0.40698 0.60677 0.61991 0.0
C1001 C 0.38112 0.63006 0.6065 0.0
H1002 H 0.42464 0.5905 0.65183 0.0
H1003 H 0.42983 0.58652 0.61311 0.0
S1004 S 0.29925 0.70112 0.62435 0.0
N1005 N 0.31907 0.68302 0.64672 0.0
N1006 N 0.32529 0.6792 0.60483 0.0
C1007 C 0.35195 0.65568 0.61618 0.0
C1008 C 0.34867 0.65775 0.63896 0.0
C1009 C 0.66263 0.1578 0.86956 0.0
C1010 C 0.6394 0.13163 0.8563 0.0
C1011 C 0.66061 0.15505 0.89195 0.0
C1012 C 0.63542 0.12589 0.902 0.0
H1013 H 0.68274 0.18063 0.86263 0.0
H1014 H 0.6791 0.17584 0.90141 0.0
S1015 S 0.56866 0.04976 0.87454 0.0
N1016 N 0.59038 0.07565 0.85491 0.0
N1017 N 0.58687 0.06991 0.89681 0.0
C1018 C 0.612 0.0995 0.8889 0.0
C1019 C 0.6139 0.10252 0.86612 0.0
C1020 C 0.11448 0.60954 0.36743 0.0
C1021 C 0.1429 0.63537 0.35727 0.0
C1022 C 0.11224 0.60734 0.38983 0.0
C1023 C 0.13816 0.63105 0.40299 0.0
H1024 H 0.09384 0.59074 0.35806 0.0
H1025 H 0.08992 0.58675 0.39683 0.0
S1026 S 0.21837 0.70332 0.38444 0.0
N1027 N 0.19814 0.68487 0.36225 0.0
N1028 N 0.19326 0.68106 0.40418 0.0
C1029 C 0.16662 0.65711 0.39306 0.0
C1030 C 0.16916 0.65917 0.37027 0.0
C1031 C 0.61594 0.90954 0.64255 0.0
C1032 C 0.64443 0.88343 0.65245 0.0
C1033 C 0.61334 0.91216 0.62021 0.0
C1034 C 0.63897 0.88863 0.60682 0.0
H1035 H 0.59559 0.92835 0.6521 0.0
H1036 H 0.59104 0.93303 0.61342 0.0
S1037 S 0.71887 0.81536 0.62465 0.0
N1038 N 0.69913 0.83353 0.64703 0.0
N1039 N 0.69366 0.8382 0.60512 0.0
C1040 C 0.66738 0.86213 0.61647 0.0
C1041 C 0.67026 0.85961 0.63925 0.0
C1042 C 0.35805 0.36389 0.87049 0.0
C1043 C 0.38191 0.3893 0.85714 0.0
C1044 C 0.36067 0.36633 0.89285 0.0
C1045 C 0.38713 0.39442 0.90282 0.0
H1046 H 0.33688 0.34191 0.86368 0.0
H1047 H 0.34157 0.34618 0.90235 0.0
S1048 S 0.45627 0.46805 0.87514 0.0
N1049 N 0.43309 0.44329 0.85556 0.0
N1050 N 0.4378 0.44844 0.89748 0.0
C1051 C 0.4113 0.42 0.88965 0.0
C1052 C 0.40877 0.41729 0.86686 0.0
C1053 C 0.85555 0.15605 0.13961 0.0
C1054 C 0.87921 0.13065 0.15308 0.0
C1055 C 0.85861 0.1537 0.11726 0.0
C1056 C 0.88526 0.12565 0.10739 0.0
H1057 H 0.83429 0.17804 0.14633 0.0
H1058 H 0.83972 0.1739 0.10766 0.0
S1059 S 0.95366 0.05174 0.13539 0.0
N1060 N 0.93019 0.07653 0.15486 0.0
N1061 N 0.93565 0.07146 0.11297 0.0
C1062 C 0.90908 0.09995 0.12068 0.0
C1063 C 0.90614 0.10261 0.14346 0.0
C1064 C 0.90668 0.60903 0.86874 0.0
C1065 C 0.87804 0.63497 0.85881 0.0
C1066 C 0.90932 0.60652 0.89113 0.0
C1067 C 0.88354 0.62999 0.9045 0.0
H1068 H 0.92708 0.59031 0.85917 0.0
H1069 H 0.93172 0.58584 0.89799 0.0
S1070 S 0.80316 0.70271 0.88662 0.0
N1071 N 0.82299 0.68453 0.86428 0.0
N1072 N 0.82859 0.6801 0.90613 0.0
C1073 C 0.85501 0.65626 0.89481 0.0
C1074 C 0.85209 0.65866 0.87205 0.0
C1075 C 0.11456 0.10737 0.62081 0.0
C1076 C 0.14006 0.13136 0.60755 0.0
C1077 C 0.11635 0.11031 0.64318 0.0
C1078 C 0.14388 0.13717 0.65327 0.0
H1079 H 0.09297 0.08593 0.6139 0.0
H1080 H 0.09614 0.09111 0.6526 0.0
S1081 S 0.21764 0.20664 0.6259 0.0
N1082 N 0.19362 0.18299 0.60622 0.0
N1083 N 0.19759 0.18825 0.64815 0.0
C1084 C 0.16962 0.16139 0.6402 0.0
C1085 C 0.16756 0.15855 0.6174 0.0
C1086 C 0.61289 0.41294 0.3905 0.0
C1087 C 0.63943 0.38999 0.40369 0.0
C1088 C 0.61499 0.41046 0.36811 0.0
C1089 C 0.64388 0.38512 0.35795 0.0
H1090 H 0.59023 0.43317 0.39748 0.0
H1091 H 0.59389 0.42873 0.35872 0.0
S1092 S 0.72088 0.31906 0.38518 0.0
N1093 N 0.69551 0.34109 0.4049 0.0
N1094 N 0.70009 0.33679 0.36297 0.0
C1095 C 0.67068 0.36201 0.37097 0.0
C1096 C 0.66829 0.36434 0.39378 0.0
C1097 C 0.36042 0.86476 0.11756 0.0
C1098 C 0.38549 0.89415 0.10764 0.0
C1099 C 0.35808 0.86196 0.13992 0.0
C1100 C 0.38086 0.88831 0.15331 0.0
H1101 H 0.34226 0.84382 0.10801 0.0
H1102 H 0.33799 0.83898 0.14673 0.0
S1103 S 0.45109 0.97085 0.13545 0.0
N1104 N 0.43346 0.95058 0.11309 0.0
N1105 N 0.42933 0.9447 0.15498 0.0
C1106 C 0.4063 0.91762 0.14364 0.0
C1107 C 0.40851 0.92071 0.12086 0.0
C1108 C 0.85978 0.36244 0.64027 0.0
C1109 C 0.88181 0.38932 0.65371 0.0
C1110 C 0.86198 0.36547 0.61791 0.0
C1111 C 0.88615 0.39565 0.60803 0.0
H1112 H 0.84039 0.33881 0.64702 0.0
H1113 H 0.84446 0.34405 0.60834 0.0
S1114 S 0.94941 0.47411 0.63598 0.0
N1115 N 0.92853 0.44715 0.65548 0.0
N1116 N 0.93235 0.45351 0.61358 0.0
C1117 C 0.90836 0.42282 0.62131 0.0
C1118 C 0.90631 0.41947 0.64409 0.0
C1119 C 0.35733 0.1578 0.37083 0.0
C1120 C 0.38135 0.13266 0.35741 0.0
C1121 C 0.36016 0.15539 0.39316 0.0
C1122 C 0.38694 0.12756 0.40307 0.0
H1123 H 0.33583 0.17953 0.36409 0.0
H1124 H 0.34088 0.1753 0.40271 0.0
S1125 S 0.4568 0.05483 0.37522 0.0
N1126 N 0.43318 0.07934 0.35569 0.0
N1127 N 0.43825 0.07418 0.39761 0.0
C1128 C 0.41136 0.1023 0.38984 0.0
C1129 C 0.40863 0.10501 0.36705 0.0
C1130 C 0.6142 0.60919 0.1439 0.0
C1131 C 0.6418 0.63604 0.15395 0.0
C1132 C 0.61249 0.60608 0.12153 0.0
C1133 C 0.63816 0.62984 0.10826 0.0
H1134 H 0.59388 0.59017 0.15335 0.0
H1135 H 0.59082 0.58467 0.11464 0.0
S1136 S 0.71598 0.70497 0.12649 0.0
N1137 N 0.69575 0.68686 0.14876 0.0
N1138 N 0.69194 0.68124 0.10685 0.0
C1139 C 0.66572 0.65701 0.11806 0.0
C1140 C 0.66769 0.66005 0.14085 0.0
C1141 C 0.16334 0.86083 0.87019 0.0
C1142 C 0.14018 0.88712 0.85695 0.0
C1143 C 0.16125 0.86342 0.89258 0.0
C1144 C 0.13608 0.89254 0.90266 0.0
H1145 H 0.18345 0.83802 0.86324 0.0
H1146 H 0.17968 0.84255 0.90203 0.0
S1147 S 0.06957 0.96901 0.87525 0.0
N1148 N 0.09128 0.94318 0.8556 0.0
N1149 N 0.08766 0.94869 0.89749 0.0
C1150 C 0.11275 0.91907 0.88957 0.0
C1151 C 0.11469 0.91619 0.86679 0.0
loop_
_geom_bond_atom_site_label_1
_geom_bond_atom_site_label_2
_geom_bond_distance
_geom_bond_site_symmetry_2
_ccdc_geom_bond_type
Co0 O1 2.216 . S
Co0 O2 2.091 . S
Co0 O4 2.004 . S
Co0 O10 2.021 . S
Co0 O12 2.137 . S
Co0 O13 2.244 . S
O1 Co0 2.216 . S
O1 C8 1.247 . S
O2 Co0 2.091 . S
O2 C8 1.261 . S
C3 O12 1.247 . S
C3 O13 1.272 . S
O4 Co0 2.004 . S
O4 C9 1.259 . S
Co5 O6 2.061 . S
Co5 O11 2.052 . S
Co5 O13 2.135 . S
O6 Co5 2.061 . S
O6 C9 1.235 . S
C7 O10 1.238 . S
C7 O11 1.241 . S
C8 O1 1.247 . S
C8 O2 1.261 . S
C9 O4 1.259 . S
C9 O6 1.235 . S
O10 Co0 2.021 . S
O10 C7 1.238 . S
O11 Co5 2.052 . S
O11 C7 1.241 . S
O12 Co0 2.137 . S
O12 C3 1.247 . S
O13 Co0 2.244 . S
O13 C3 1.272 . S
O13 Co5 2.135 . S
Co14 O15 2.216 . S
Co14 O16 2.091 . S
Co14 O18 2.004 . S
Co14 O24 2.021 . S
Co14 O26 2.137 . S
Co14 O27 2.244 . S
O15 Co14 2.216 . S
O15 C22 1.247 . S
O16 Co14 2.091 . S
O16 C22 1.261 . S
C17 O26 1.247 . S
C17 O27 1.272 . S
O18 Co14 2.004 . S
O18 C23 1.259 . S
Co19 O20 2.061 . S
Co19 O25 2.052 . S
Co19 O27 2.135 . S
O20 Co19 2.061 . S
O20 C23 1.235 . S
C21 O24 1.238 . S
C21 O25 1.241 . S
C22 O15 1.247 . S
C22 O16 1.261 . S
C23 O18 1.259 . S
C23 O20 1.235 . S
O24 Co14 2.021 . S
O24 C21 1.238 . S
O25 Co19 2.052 . S
O25 C21 1.241 . S
O26 Co14 2.137 . S
O26 C17 1.247 . S
O27 Co14 2.244 . S
O27 C17 1.272 . S
O27 Co19 2.135 . S
Co28 O29 2.216 . S
Co28 O30 2.091 . S
Co28 O32 2.004 . S
Co28 O38 2.021 . S
Co28 O40 2.137 . S
Co28 O41 2.244 . S
O29 Co28 2.216 . S
O29 C36 1.247 . S
O30 Co28 2.091 . S
O30 C36 1.261 . S
C31 O40 1.247 . S
C31 O41 1.272 . S
O32 Co28 2.004 . S
O32 C37 1.259 . S
Co33 O34 2.061 . S
Co33 O39 2.052 . S
Co33 O41 2.135 . S
O34 Co33 2.061 . S
O34 C37 1.235 . S
C35 O38 1.238 . S
C35 O39 1.241 . S
C36 O29 1.247 . S
C36 O30 1.261 . S
C37 O32 1.259 . S
C37 O34 1.235 . S
O38 Co28 2.021 . S
O38 C35 1.238 . S
O39 Co33 2.052 . S
O39 C35 1.241 . S
O40 Co28 2.137 . S
O40 C31 1.247 . S
O41 Co28 2.244 . S
O41 C31 1.272 . S
O41 Co33 2.135 . S
Co42 O43 2.216 . S
Co42 O44 2.091 . S
Co42 O46 2.004 . S
Co42 O52 2.021 . S
Co42 O54 2.137 . S
Co42 O55 2.244 . S
O43 Co42 2.216 . S
O43 C50 1.247 . S
O44 Co42 2.091 . S
O44 C50 1.261 . S
C45 O54 1.247 . S
C45 O55 1.272 . S
O46 Co42 2.004 . S
O46 C51 1.259 . S
Co47 O48 2.061 . S
Co47 O53 2.052 . S
Co47 O55 2.135 . S
O48 Co47 2.061 . S
O48 C51 1.235 . S
C49 O52 1.238 . S
C49 O53 1.241 . S
C50 O43 1.247 . S
C50 O44 1.261 . S
C51 O46 1.259 . S
C51 O48 1.235 . S
O52 Co42 2.021 . S
O52 C49 1.238 . S
O53 Co47 2.052 . S
O53 C49 1.241 . S
O54 Co42 2.137 . S
O54 C45 1.247 . S
O55 Co42 2.244 . S
O55 C45 1.272 . S
O55 Co47 2.135 . S
Co56 O57 2.216 . S
Co56 O58 2.091 . S
Co56 O60 2.004 . S
Co56 O66 2.021 . S
Co56 O68 2.137 . S
Co56 O69 2.244 . S
O57 Co56 2.216 . S
O57 C64 1.247 . S
O58 Co56 2.091 . S
O58 C64 1.261 . S
C59 O68 1.247 . S
C59 O69 1.272 . S
O60 Co56 2.004 . S
O60 C65 1.259 . S
Co61 O62 2.061 . S
Co61 O67 2.052 . S
Co61 O69 2.135 . S
O62 Co61 2.061 . S
O62 C65 1.235 . S
C63 O66 1.238 . S
C63 O67 1.241 . S
C64 O57 1.247 . S
C64 O58 1.261 . S
C65 O60 1.259 . S
C65 O62 1.235 . S
O66 Co56 2.021 . S
O66 C63 1.238 . S
O67 Co61 2.052 . S
O67 C63 1.241 . S
O68 Co56 2.137 . S
O68 C59 1.247 . S
O69 Co56 2.244 . S
O69 C59 1.272 . S
O69 Co61 2.135 . S
Co70 O71 2.216 . S
Co70 O72 2.091 . S
Co70 O74 2.004 . S
Co70 O80 2.021 . S
Co70 O82 2.137 . S
Co70 O83 2.244 . S
O71 Co70 2.216 . S
O71 C78 1.247 . S
O72 Co70 2.091 . S
O72 C78 1.261 . S
C73 O82 1.247 . S
C73 O83 1.272 . S
O74 Co70 2.004 . S
O74 C79 1.259 . S
Co75 O76 2.061 . S
Co75 O81 2.052 . S
Co75 O83 2.135 . S
O76 Co75 2.061 . S
O76 C79 1.235 . S
C77 O80 1.238 . S
C77 O81 1.241 . S
C78 O71 1.247 . S
C78 O72 1.261 . S
C79 O74 1.259 . S
C79 O76 1.235 . S
O80 Co70 2.021 . S
O80 C77 1.238 . S
O81 Co75 2.052 . S
O81 C77 1.241 . S
O82 Co70 2.137 . S
O82 C73 1.247 . S
O83 Co70 2.244 . S
O83 C73 1.272 . S
O83 Co75 2.135 . S
Co84 O85 2.216 . S
Co84 O86 2.091 . S
Co84 O88 2.004 . S
Co84 O94 2.021 . S
Co84 O96 2.137 . S
Co84 O97 2.244 . S
O85 Co84 2.216 . S
O85 C92 1.247 . S
O86 Co84 2.091 . S
O86 C92 1.261 . S
C87 O96 1.247 . S
C87 O97 1.272 . S
O88 Co84 2.004 . S
O88 C93 1.259 . S
Co89 O90 2.061 . S
Co89 O95 2.052 . S
Co89 O97 2.135 . S
O90 Co89 2.061 . S
O90 C93 1.235 . S
C91 O94 1.238 . S
C91 O95 1.241 . S
C92 O85 1.247 . S
C92 O86 1.261 . S
C93 O88 1.259 . S
C93 O90 1.235 . S
O94 Co84 2.021 . S
O94 C91 1.238 . S
O95 Co89 2.052 . S
O95 C91 1.241 . S
O96 Co84 2.137 . S
O96 C87 1.247 . S
O97 Co84 2.244 . S
O97 C87 1.272 . S
O97 Co89 2.135 . S
Co98 O99 2.216 . S
Co98 O100 2.091 . S
Co98 O102 2.004 . S
Co98 O108 2.021 . S
Co98 O110 2.137 . S
Co98 O111 2.244 . S
O99 Co98 2.216 . S
O99 C106 1.247 . S
O100 Co98 2.091 . S
O100 C106 1.261 . S
C101 O110 1.247 . S
C101 O111 1.272 . S
O102 Co98 2.004 . S
O102 C107 1.259 . S
Co103 O104 2.061 . S
Co103 O109 2.052 . S
Co103 O111 2.135 . S
O104 Co103 2.061 . S
O104 C107 1.235 . S
C105 O108 1.238 . S
C105 O109 1.241 . S
C106 O99 1.247 . S
C106 O100 1.261 . S
C107 O102 1.259 . S
C107 O104 1.235 . S
O108 Co98 2.021 . S
O108 C105 1.238 . S
O109 Co103 2.052 . S
O109 C105 1.241 . S
O110 Co98 2.137 . S
O110 C101 1.247 . S
O111 Co98 2.244 . S
O111 C101 1.272 . S
O111 Co103 2.135 . S
Co112 O113 2.216 . S
Co112 O114 2.091 . S
Co112 O116 2.004 . S
Co112 O122 2.021 . S
Co112 O124 2.137 . S
Co112 O125 2.244 . S
O113 Co112 2.216 . S
O113 C120 1.247 . S
O114 Co112 2.091 . S
O114 C120 1.261 . S
C115 O124 1.247 . S
C115 O125 1.272 . S
O116 Co112 2.004 . S
O116 C121 1.259 . S
Co117 O118 2.061 . S
Co117 O123 2.052 . S
Co117 O125 2.135 . S
O118 Co117 2.061 . S
O118 C121 1.235 . S
C119 O122 1.238 . S
C119 O123 1.241 . S
C120 O113 1.247 . S
C120 O114 1.261 . S
C121 O116 1.259 . S
C121 O118 1.235 . S
O122 Co112 2.021 . S
O122 C119 1.238 . S
O123 Co117 2.052 . S
O123 C119 1.241 . S
O124 Co112 2.137 . S
O124 C115 1.247 . S
O125 Co112 2.244 . S
O125 C115 1.272 . S
O125 Co117 2.135 . S
Co126 O127 2.216 . S
Co126 O128 2.091 . S
Co126 O130 2.004 . S
Co126 O136 2.021 . S
Co126 O138 2.137 . S
Co126 O139 2.244 . S
O127 Co126 2.216 . S
O127 C134 1.247 . S
O128 Co126 2.091 . S
O128 C134 1.261 . S
C129 O138 1.247 . S
C129 O139 1.272 . S
O130 Co126 2.004 . S
O130 C135 1.259 . S
Co131 O132 2.061 . S
Co131 O137 2.052 . S
Co131 O139 2.135 . S
O132 Co131 2.061 . S
O132 C135 1.235 . S
C133 O136 1.238 . S
C133 O137 1.241 . S
C134 O127 1.247 . S
C134 O128 1.261 . S
C135 O130 1.259 . S
C135 O132 1.235 . S
O136 Co126 2.021 . S
O136 C133 1.238 . S
O137 Co131 2.052 . S
O137 C133 1.241 . S
O138 Co126 2.137 . S
O138 C129 1.247 . S
O139 Co126 2.244 . S
O139 C129 1.272 . S
O139 Co131 2.135 . S
Co140 O141 2.216 . S
Co140 O142 2.091 . S
Co140 O144 2.004 . S
Co140 O150 2.021 . S
Co140 O152 2.137 . S
Co140 O153 2.244 . S
O141 Co140 2.216 . S
O141 C148 1.247 . S
O142 Co140 2.091 . S
O142 C148 1.261 . S
C143 O152 1.247 . S
C143 O153 1.272 . S
O144 Co140 2.004 . S
O144 C149 1.259 . S
Co145 O146 2.061 . S
Co145 O151 2.052 . S
Co145 O153 2.135 . S
O146 Co145 2.061 . S
O146 C149 1.235 . S
C147 O150 1.238 . S
C147 O151 1.241 . S
C148 O141 1.247 . S
C148 O142 1.261 . S
C149 O144 1.259 . S
C149 O146 1.235 . S
O150 Co140 2.021 . S
O150 C147 1.238 . S
O151 Co145 2.052 . S
O151 C147 1.241 . S
O152 Co140 2.137 . S
O152 C143 1.247 . S
O153 Co140 2.244 . S
O153 C143 1.272 . S
O153 Co145 2.135 . S
Co154 O155 2.216 . S
Co154 O156 2.091 . S
Co154 O158 2.004 . S
Co154 O164 2.021 . S
Co154 O166 2.137 . S
Co154 O167 2.244 . S
O155 Co154 2.216 . S
O155 C162 1.247 . S
O156 Co154 2.091 . S
O156 C162 1.261 . S
C157 O166 1.247 . S
C157 O167 1.272 . S
O158 Co154 2.004 . S
O158 C163 1.259 . S
Co159 O160 2.061 . S
Co159 O165 2.052 . S
Co159 O167 2.135 . S
O160 Co159 2.061 . S
O160 C163 1.235 . S
C161 O164 1.238 . S
C161 O165 1.241 . S
C162 O155 1.247 . S
C162 O156 1.261 . S
C163 O158 1.259 . S
C163 O160 1.235 . S
O164 Co154 2.021 . S
O164 C161 1.238 . S
O165 Co159 2.052 . S
O165 C161 1.241 . S
O166 Co154 2.137 . S
O166 C157 1.247 . S
O167 Co154 2.244 . S
O167 C157 1.272 . S
O167 Co159 2.135 . S
Co168 O169 2.216 . S
Co168 O170 2.091 . S
Co168 O172 2.004 . S
Co168 O178 2.021 . S
Co168 O180 2.137 . S
Co168 O181 2.244 . S
O169 Co168 2.216 . S
O169 C176 1.247 . S
O170 Co168 2.091 . S
O170 C176 1.261 . S
C171 O180 1.247 . S
C171 O181 1.272 . S
O172 Co168 2.004 . S
O172 C177 1.259 . S
Co173 O174 2.061 . S
Co173 O179 2.052 . S
Co173 O181 2.135 . S
O174 Co173 2.061 . S
O174 C177 1.235 . S
C175 O178 1.238 . S
C175 O179 1.241 . S
C176 O169 1.247 . S
C176 O170 1.261 . S
C177 O172 1.259 . S
C177 O174 1.235 . S
O178 Co168 2.021 . S
O178 C175 1.238 . S
O179 Co173 2.052 . S
O179 C175 1.241 . S
O180 Co168 2.137 . S
O180 C171 1.247 . S
O181 Co168 2.244 . S
O181 C171 1.272 . S
O181 Co173 2.135 . S
Co182 O183 2.216 . S
Co182 O184 2.091 . S
Co182 O186 2.004 . S
Co182 O192 2.021 . S
Co182 O194 2.137 . S
Co182 O195 2.244 . S
O183 Co182 2.216 . S
O183 C190 1.247 . S
O184 Co182 2.091 . S
O184 C190 1.261 . S
C185 O194 1.247 . S
C185 O195 1.272 . S
O186 Co182 2.004 . S
O186 C191 1.259 . S
Co187 O188 2.061 . S
Co187 O193 2.052 . S
Co187 O195 2.135 . S
O188 Co187 2.061 . S
O188 C191 1.235 . S
C189 O192 1.238 . S
C189 O193 1.241 . S
C190 O183 1.247 . S
C190 O184 1.261 . S
C191 O186 1.259 . S
C191 O188 1.235 . S
O192 Co182 2.021 . S
O192 C189 1.238 . S
O193 Co187 2.052 . S
O193 C189 1.241 . S
O194 Co182 2.137 . S
O194 C185 1.247 . S
O195 Co182 2.244 . S
O195 C185 1.272 . S
O195 Co187 2.135 . S
Co196 O197 2.216 . S
Co196 O198 2.091 . S
Co196 O200 2.004 . S
Co196 O206 2.021 . S
Co196 O208 2.137 . S
Co196 O209 2.244 . S
O197 Co196 2.216 . S
O197 C204 1.247 . S
O198 Co196 2.091 . S
O198 C204 1.261 . S
C199 O208 1.247 . S
C199 O209 1.272 . S
O200 Co196 2.004 . S
O200 C205 1.259 . S
Co201 O202 2.061 . S
Co201 O207 2.052 . S
Co201 O209 2.135 . S
O202 Co201 2.061 . S
O202 C205 1.235 . S
C203 O206 1.238 . S
C203 O207 1.241 . S
C204 O197 1.247 . S
C204 O198 1.261 . S
C205 O200 1.259 . S
C205 O202 1.235 . S
O206 Co196 2.021 . S
O206 C203 1.238 . S
O207 Co201 2.052 . S
O207 C203 1.241 . S
O208 Co196 2.137 . S
O208 C199 1.247 . S
O209 Co196 2.244 . S
O209 C199 1.272 . S
O209 Co201 2.135 . S
Co210 O211 2.216 . S
Co210 O212 2.091 . S
Co210 O214 2.004 . S
Co210 O220 2.021 . S
Co210 O222 2.137 . S
Co210 O223 2.244 . S
O211 Co210 2.216 . S
O211 C218 1.247 . S
O212 Co210 2.091 . S
O212 C218 1.261 . S
C213 O222 1.247 . S
C213 O223 1.272 . S
O214 Co210 2.004 . S
O214 C219 1.259 . S
Co215 O216 2.061 . S
Co215 O221 2.052 . S
Co215 O223 2.135 . S
O216 Co215 2.061 . S
O216 C219 1.235 . S
C217 O220 1.238 . S
C217 O221 1.241 . S
C218 O211 1.247 . S
C218 O212 1.261 . S
C219 O214 1.259 . S
C219 O216 1.235 . S
O220 Co210 2.021 . S
O220 C217 1.238 . S
O221 Co215 2.052 . S
O221 C217 1.241 . S
O222 Co210 2.137 . S
O222 C213 1.247 . S
O223 Co210 2.244 . S
O223 C213 1.272 . S
O223 Co215 2.135 . S
Co224 O225 2.216 . S
Co224 O226 2.091 . S
Co224 O228 2.004 . S
Co224 O234 2.021 . S
Co224 O236 2.137 . S
Co224 O237 2.244 . S
O225 Co224 2.216 . S
O225 C232 1.247 . S
O226 Co224 2.091 . S
O226 C232 1.261 . S
C227 O236 1.247 . S
C227 O237 1.272 . S
O228 Co224 2.004 . S
O228 C233 1.259 . S
Co229 O230 2.061 . S
Co229 O235 2.052 . S
Co229 O237 2.135 . S
O230 Co229 2.061 . S
O230 C233 1.235 . S
C231 O234 1.238 . S
C231 O235 1.241 . S
C232 O225 1.247 . S
C232 O226 1.261 . S
C233 O228 1.259 . S
C233 O230 1.235 . S
O234 Co224 2.021 . S
O234 C231 1.238 . S
O235 Co229 2.052 . S
O235 C231 1.241 . S
O236 Co224 2.137 . S
O236 C227 1.247 . S
O237 Co224 2.244 . S
O237 C227 1.272 . S
O237 Co229 2.135 . S
Co238 O239 2.216 . S
Co238 O240 2.091 . S
Co238 O242 2.004 . S
Co238 O248 2.021 . S
Co238 O250 2.137 . S
Co238 O251 2.244 . S
O239 Co238 2.216 . S
O239 C246 1.247 . S
O240 Co238 2.091 . S
O240 C246 1.261 . S
C241 O250 1.247 . S
C241 O251 1.272 . S
O242 Co238 2.004 . S
O242 C247 1.259 . S
Co243 O244 2.061 . S
Co243 O249 2.052 . S
Co243 O251 2.135 . S
O244 Co243 2.061 . S
O244 C247 1.235 . S
C245 O248 1.238 . S
C245 O249 1.241 . S
C246 O239 1.247 . S
C246 O240 1.261 . S
C247 O242 1.259 . S
C247 O244 1.235 . S
O248 Co238 2.021 . S
O248 C245 1.238 . S
O249 Co243 2.052 . S
O249 C245 1.241 . S
O250 Co238 2.137 . S
O250 C241 1.247 . S
O251 Co238 2.244 . S
O251 C241 1.272 . S
O251 Co243 2.135 . S
Co252 O253 2.216 . S
Co252 O254 2.091 . S
Co252 O256 2.004 . S
Co252 O262 2.021 . S
Co252 O264 2.137 . S
Co252 O265 2.244 . S
O253 Co252 2.216 . S
O253 C260 1.247 . S
O254 Co252 2.091 . S
O254 C260 1.261 . S
C255 O264 1.247 . S
C255 O265 1.272 . S
O256 Co252 2.004 . S
O256 C261 1.259 . S
Co257 O258 2.061 . S
Co257 O263 2.052 . S
Co257 O265 2.135 . S
O258 Co257 2.061 . S
O258 C261 1.235 . S
C259 O262 1.238 . S
C259 O263 1.241 . S
C260 O253 1.247 . S
C260 O254 1.261 . S
C261 O256 1.259 . S
C261 O258 1.235 . S
O262 Co252 2.021 . S
O262 C259 1.238 . S
O263 Co257 2.052 . S
O263 C259 1.241 . S
O264 Co252 2.137 . S
O264 C255 1.247 . S
O265 Co252 2.244 . S
O265 C255 1.272 . S
O265 Co257 2.135 . S
Co266 O267 2.216 . S
Co266 O268 2.091 . S
Co266 O270 2.004 . S
Co266 O276 2.021 . S
Co266 O278 2.137 . S
Co266 O279 2.244 . S
O267 Co266 2.216 . S
O267 C274 1.247 . S
O268 Co266 2.091 . S
O268 C274 1.261 . S
C269 O278 1.247 . S
C269 O279 1.272 . S
O270 Co266 2.004 . S
O270 C275 1.259 . S
Co271 O272 2.061 . S
Co271 O277 2.052 . S
Co271 O279 2.135 . S
O272 Co271 2.061 . S
O272 C275 1.235 . S
C273 O276 1.238 . S
C273 O277 1.241 . S
C274 O267 1.247 . S
C274 O268 1.261 . S
C275 O270 1.259 . S
C275 O272 1.235 . S
O276 Co266 2.021 . S
O276 C273 1.238 . S
O277 Co271 2.052 . S
O277 C273 1.241 . S
O278 Co266 2.137 . S
O278 C269 1.247 . S
O279 Co266 2.244 . S
O279 C269 1.272 . S
O279 Co271 2.135 . S
Co280 O281 2.216 . S
Co280 O282 2.091 . S
Co280 O284 2.004 . S
Co280 O290 2.021 . S
Co280 O292 2.137 . S
Co280 O293 2.244 . S
O281 Co280 2.216 . S
O281 C288 1.247 . S
O282 Co280 2.091 . S
O282 C288 1.261 . S
C283 O292 1.247 . S
C283 O293 1.272 . S
O284 Co280 2.004 . S
O284 C289 1.259 . S
Co285 O286 2.061 . S
Co285 O291 2.052 . S
Co285 O293 2.135 . S
O286 Co285 2.061 . S
O286 C289 1.235 . S
C287 O290 1.238 . S
C287 O291 1.241 . S
C288 O281 1.247 . S
C288 O282 1.261 . S
C289 O284 1.259 . S
C289 O286 1.235 . S
O290 Co280 2.021 . S
O290 C287 1.238 . S
O291 Co285 2.052 . S
O291 C287 1.241 . S
O292 Co280 2.137 . S
O292 C283 1.247 . S
O293 Co280 2.244 . S
O293 C283 1.272 . S
O293 Co285 2.135 . S
Co294 O295 2.216 . S
Co294 O296 2.091 . S
Co294 O298 2.004 . S
Co294 O304 2.021 . S
Co294 O306 2.137 . S
Co294 O307 2.244 . S
O295 Co294 2.216 . S
O295 C302 1.247 . S
O296 Co294 2.091 . S
O296 C302 1.261 . S
C297 O306 1.247 . S
C297 O307 1.272 . S
O298 Co294 2.004 . S
O298 C303 1.259 . S
Co299 O300 2.061 . S
Co299 O305 2.052 . S
Co299 O307 2.135 . S
O300 Co299 2.061 . S
O300 C303 1.235 . S
C301 O304 1.238 . S
C301 O305 1.241 . S
C302 O295 1.247 . S
C302 O296 1.261 . S
C303 O298 1.259 . S
C303 O300 1.235 . S
O304 Co294 2.021 . S
O304 C301 1.238 . S
O305 Co299 2.052 . S
O305 C301 1.241 . S
O306 Co294 2.137 . S
O306 C297 1.247 . S
O307 Co294 2.244 . S
O307 C297 1.272 . S
O307 Co299 2.135 . S
Co308 O309 2.216 . S
Co308 O310 2.091 . S
Co308 O312 2.004 . S
Co308 O318 2.021 . S
Co308 O320 2.137 . S
Co308 O321 2.244 . S
O309 Co308 2.216 . S
O309 C316 1.247 . S
O310 Co308 2.091 . S
O310 C316 1.261 . S
C311 O320 1.247 . S
C311 O321 1.272 . S
O312 Co308 2.004 . S
O312 C317 1.259 . S
Co313 O314 2.061 . S
Co313 O319 2.052 . S
Co313 O321 2.135 . S
O314 Co313 2.061 . S
O314 C317 1.235 . S
C315 O318 1.238 . S
C315 O319 1.241 . S
C316 O309 1.247 . S
C316 O310 1.261 . S
C317 O312 1.259 . S
C317 O314 1.235 . S
O318 Co308 2.021 . S
O318 C315 1.238 . S
O319 Co313 2.052 . S
O319 C315 1.241 . S
O320 Co308 2.137 . S
O320 C311 1.247 . S
O321 Co308 2.244 . S
O321 C311 1.272 . S
O321 Co313 2.135 . S
Co322 O323 2.216 . S
Co322 O324 2.091 . S
Co322 O326 2.004 . S
Co322 O332 2.021 . S
Co322 O334 2.137 . S
Co322 O335 2.244 . S
O323 Co322 2.216 . S
O323 C330 1.247 . S
O324 Co322 2.091 . S
O324 C330 1.261 . S
C325 O334 1.247 . S
C325 O335 1.272 . S
O326 Co322 2.004 . S
O326 C331 1.259 . S
Co327 O328 2.061 . S
Co327 O333 2.052 . S
Co327 O335 2.135 . S
O328 Co327 2.061 . S
O328 C331 1.235 . S
C329 O332 1.238 . S
C329 O333 1.241 . S
C330 O323 1.247 . S
C330 O324 1.261 . S
C331 O326 1.259 . S
C331 O328 1.235 . S
O332 Co322 2.021 . S
O332 C329 1.238 . S
O333 Co327 2.052 . S
O333 C329 1.241 . S
O334 Co322 2.137 . S
O334 C325 1.247 . S
O335 Co322 2.244 . S
O335 C325 1.272 . S
O335 Co327 2.135 . S
Co336 O337 2.216 . S
Co336 O338 2.091 . S
Co336 O340 2.004 . S
Co336 O346 2.021 . S
Co336 O348 2.137 . S
Co336 O349 2.244 . S
O337 Co336 2.216 . S
O337 C344 1.247 . S
O338 Co336 2.091 . S
O338 C344 1.261 . S
C339 O348 1.247 . S
C339 O349 1.272 . S
O340 Co336 2.004 . S
O340 C345 1.259 . S
Co341 O342 2.061 . S
Co341 O347 2.052 . S
Co341 O349 2.135 . S
O342 Co341 2.061 . S
O342 C345 1.235 . S
C343 O346 1.238 . S
C343 O347 1.241 . S
C344 O337 1.247 . S
C344 O338 1.261 . S
C345 O340 1.259 . S
C345 O342 1.235 . S
O346 Co336 2.021 . S
O346 C343 1.238 . S
O347 Co341 2.052 . S
O347 C343 1.241 . S
O348 Co336 2.137 . S
O348 C339 1.247 . S
O349 Co336 2.244 . S
O349 C339 1.272 . S
O349 Co341 2.135 . S
Co350 O351 2.216 . S
Co350 O352 2.091 . S
Co350 O354 2.004 . S
Co350 O360 2.021 . S
Co350 O362 2.137 . S
Co350 O363 2.244 . S
O351 Co350 2.216 . S
O351 C358 1.247 . S
O352 Co350 2.091 . S
O352 C358 1.261 . S
C353 O362 1.247 . S
C353 O363 1.272 . S
O354 Co350 2.004 . S
O354 C359 1.259 . S
Co355 O356 2.061 . S
Co355 O361 2.052 . S
Co355 O363 2.135 . S
O356 Co355 2.061 . S
O356 C359 1.235 . S
C357 O360 1.238 . S
C357 O361 1.241 . S
C358 O351 1.247 . S
C358 O352 1.261 . S
C359 O354 1.259 . S
C359 O356 1.235 . S
O360 Co350 2.021 . S
O360 C357 1.238 . S
O361 Co355 2.052 . S
O361 C357 1.241 . S
O362 Co350 2.137 . S
O362 C353 1.247 . S
O363 Co350 2.244 . S
O363 C353 1.272 . S
O363 Co355 2.135 . S
Co364 O365 2.216 . S
Co364 O366 2.091 . S
Co364 O368 2.004 . S
Co364 O374 2.021 . S
Co364 O376 2.137 . S
Co364 O377 2.244 . S
O365 Co364 2.216 . S
O365 C372 1.247 . S
O366 Co364 2.091 . S
O366 C372 1.261 . S
C367 O376 1.247 . S
C367 O377 1.272 . S
O368 Co364 2.004 . S
O368 C373 1.259 . S
Co369 O370 2.061 . S
Co369 O375 2.052 . S
Co369 O377 2.135 . S
O370 Co369 2.061 . S
O370 C373 1.235 . S
C371 O374 1.238 . S
C371 O375 1.241 . S
C372 O365 1.247 . S
C372 O366 1.261 . S
C373 O368 1.259 . S
C373 O370 1.235 . S
O374 Co364 2.021 . S
O374 C371 1.238 . S
O375 Co369 2.052 . S
O375 C371 1.241 . S
O376 Co364 2.137 . S
O376 C367 1.247 . S
O377 Co364 2.244 . S
O377 C367 1.272 . S
O377 Co369 2.135 . S
Co378 O379 2.216 . S
Co378 O380 2.091 . S
Co378 O382 2.004 . S
Co378 O388 2.021 . S
Co378 O390 2.137 . S
Co378 O391 2.244 . S
O379 Co378 2.216 . S
O379 C386 1.247 . S
O380 Co378 2.091 . S
O380 C386 1.261 . S
C381 O390 1.247 . S
C381 O391 1.272 . S
O382 Co378 2.004 . S
O382 C387 1.259 . S
Co383 O384 2.061 . S
Co383 O389 2.052 . S
Co383 O391 2.135 . S
O384 Co383 2.061 . S
O384 C387 1.235 . S
C385 O388 1.238 . S
C385 O389 1.241 . S
C386 O379 1.247 . S
C386 O380 1.261 . S
C387 O382 1.259 . S
C387 O384 1.235 . S
O388 Co378 2.021 . S
O388 C385 1.238 . S
O389 Co383 2.052 . S
O389 C385 1.241 . S
O390 Co378 2.137 . S
O390 C381 1.247 . S
O391 Co378 2.244 . S
O391 C381 1.272 . S
O391 Co383 2.135 . S
Co392 O393 2.216 . S
Co392 O394 2.091 . S
Co392 O396 2.004 . S
Co392 O402 2.021 . S
Co392 O404 2.137 . S
Co392 O405 2.244 . S
O393 Co392 2.216 . S
O393 C400 1.247 . S
O394 Co392 2.091 . S
O394 C400 1.261 . S
C395 O404 1.247 . S
C395 O405 1.272 . S
O396 Co392 2.004 . S
O396 C401 1.259 . S
Co397 O398 2.061 . S
Co397 O403 2.052 . S
Co397 O405 2.135 . S
O398 Co397 2.061 . S
O398 C401 1.235 . S
C399 O402 1.238 . S
C399 O403 1.241 . S
C400 O393 1.247 . S
C400 O394 1.261 . S
C401 O396 1.259 . S
C401 O398 1.235 . S
O402 Co392 2.021 . S
O402 C399 1.238 . S
O403 Co397 2.052 . S
O403 C399 1.241 . S
O404 Co392 2.137 . S
O404 C395 1.247 . S
O405 Co392 2.244 . S
O405 C395 1.272 . S
O405 Co397 2.135 . S
Co406 O407 2.216 . S
Co406 O408 2.091 . S
Co406 O410 2.004 . S
Co406 O416 2.021 . S
Co406 O418 2.137 . S
Co406 O419 2.244 . S
O407 Co406 2.216 . S
O407 C414 1.247 . S
O408 Co406 2.091 . S
O408 C414 1.261 . S
C409 O418 1.247 . S
C409 O419 1.272 . S
O410 Co406 2.004 . S
O410 C415 1.259 . S
Co411 O412 2.061 . S
Co411 O417 2.052 . S
Co411 O419 2.135 . S
O412 Co411 2.061 . S
O412 C415 1.235 . S
C413 O416 1.238 . S
C413 O417 1.241 . S
C414 O407 1.247 . S
C414 O408 1.261 . S
C415 O410 1.259 . S
C415 O412 1.235 . S
O416 Co406 2.021 . S
O416 C413 1.238 . S
O417 Co411 2.052 . S
O417 C413 1.241 . S
O418 Co406 2.137 . S
O418 C409 1.247 . S
O419 Co406 2.244 . S
O419 C409 1.272 . S
O419 Co411 2.135 . S
Co420 O421 2.216 . S
Co420 O422 2.091 . S
Co420 O424 2.004 . S
Co420 O430 2.021 . S
Co420 O432 2.137 . S
Co420 O433 2.244 . S
O421 Co420 2.216 . S
O421 C428 1.247 . S
O422 Co420 2.091 . S
O422 C428 1.261 . S
C423 O432 1.247 . S
C423 O433 1.272 . S
O424 Co420 2.004 . S
O424 C429 1.259 . S
Co425 O426 2.061 . S
Co425 O431 2.052 . S
Co425 O433 2.135 . S
O426 Co425 2.061 . S
O426 C429 1.235 . S
C427 O430 1.238 . S
C427 O431 1.241 . S
C428 O421 1.247 . S
C428 O422 1.261 . S
C429 O424 1.259 . S
C429 O426 1.235 . S
O430 Co420 2.021 . S
O430 C427 1.238 . S
O431 Co425 2.052 . S
O431 C427 1.241 . S
O432 Co420 2.137 . S
O432 C423 1.247 . S
O433 Co420 2.244 . S
O433 C423 1.272 . S
O433 Co425 2.135 . S
Co434 O435 2.216 . S
Co434 O436 2.091 . S
Co434 O438 2.004 . S
Co434 O444 2.021 . S
Co434 O446 2.137 . S
Co434 O447 2.244 . S
O435 Co434 2.216 . S
O435 C442 1.247 . S
O436 Co434 2.091 . S
O436 C442 1.261 . S
C437 O446 1.247 . S
C437 O447 1.272 . S
O438 Co434 2.004 . S
O438 C443 1.259 . S
Co439 O440 2.061 . S
Co439 O445 2.052 . S
Co439 O447 2.135 . S
O440 Co439 2.061 . S
O440 C443 1.235 . S
C441 O444 1.238 . S
C441 O445 1.241 . S
C442 O435 1.247 . S
C442 O436 1.261 . S
C443 O438 1.259 . S
C443 O440 1.235 . S
O444 Co434 2.021 . S
O444 C441 1.238 . S
O445 Co439 2.052 . S
O445 C441 1.241 . S
O446 Co434 2.137 . S
O446 C437 1.247 . S
O447 Co434 2.244 . S
O447 C437 1.272 . S
O447 Co439 2.135 . S
C448 C449 1.369 . S
C448 C450 1.419 1_655 S
C448 H452 0.930 . S
C449 C448 1.369 . S
C449 C458 1.429 1_556 S
C450 C448 1.419 1_455 S
C450 C451 1.363 1_556 S
C450 H453 0.929 . S
C451 C450 1.363 1_554 S
C451 C457 1.428 . S
H452 C448 0.930 . S
H453 C450 0.929 . S
S454 N455 1.613 1_455 S
S454 N456 1.610 . S
N455 S454 1.613 1_655 S
N455 C458 1.350 . S
N456 S454 1.610 . S
N456 C457 1.351 . S
C457 C451 1.428 . S
C457 N456 1.351 . S
C457 C458 1.434 1_455 S
C458 C449 1.429 1_554 S
C458 N455 1.350 . S
C458 C457 1.434 1_655 S
C459 C460 1.369 . S
C459 C461 1.419 . S
C459 H463 0.930 . S
C460 C459 1.369 . S
C460 C469 1.429 . S
C461 C459 1.419 . S
C461 C462 1.363 . S
C461 H464 0.929 . S
C462 C461 1.363 . S
C462 C468 1.428 . S
H463 C459 0.930 . S
H464 C461 0.929 . S
S465 N466 1.613 . S
S465 N467 1.610 . S
N466 S465 1.613 . S
N466 C469 1.350 . S
N467 S465 1.610 . S
N467 C468 1.351 . S
C468 C462 1.428 . S
C468 N467 1.351 . S
C468 C469 1.434 . S
C469 C460 1.429 . S
C469 N466 1.350 . S
C469 C468 1.434 . S
C470 C471 1.369 . S
C470 C472 1.419 . S
C470 H474 0.930 . S
C471 C470 1.369 . S
C471 C480 1.429 . S
C472 C470 1.419 . S
C472 C473 1.363 . S
C472 H475 0.929 . S
C473 C472 1.363 . S
C473 C479 1.428 . S
H474 C470 0.930 . S
H475 C472 0.929 . S
S476 N477 1.613 . S
S476 N478 1.610 . S
N477 S476 1.613 . S
N477 C480 1.350 . S
N478 S476 1.610 . S
N478 C479 1.351 . S
C479 C473 1.428 . S
C479 N478 1.351 . S
C479 C480 1.434 . S
C480 C471 1.429 . S
C480 N477 1.350 . S
C480 C479 1.434 . S
C481 C482 1.369 . S
C481 C483 1.419 . S
C481 H485 0.930 . S
C482 C481 1.369 . S
C482 C491 1.429 . S
C483 C481 1.419 . S
C483 C484 1.363 . S
C483 H486 0.929 . S
C484 C483 1.363 . S
C484 C490 1.428 . S
H485 C481 0.930 . S
H486 C483 0.929 . S
S487 N488 1.613 . S
S487 N489 1.610 . S
N488 S487 1.613 . S
N488 C491 1.350 . S
N489 S487 1.610 . S
N489 C490 1.351 . S
C490 C484 1.428 . S
C490 N489 1.351 . S
C490 C491 1.434 . S
C491 C482 1.429 . S
C491 N488 1.350 . S
C491 C490 1.434 . S
C492 C493 1.369 . S
C492 C494 1.419 . S
C492 H496 0.930 . S
C493 C492 1.369 . S
C493 C502 1.429 1_655 S
C494 C492 1.419 . S
C494 C495 1.363 1_655 S
C494 H497 0.929 . S
C495 C494 1.363 1_455 S
C495 C501 1.428 . S
H496 C492 0.930 . S
H497 C494 0.929 . S
S498 N499 1.613 . S
S498 N500 1.610 . S
N499 S498 1.613 . S
N499 C502 1.350 . S
N500 S498 1.610 . S
N500 C501 1.351 . S
C501 C495 1.428 . S
C501 N500 1.351 . S
C501 C502 1.434 . S
C502 C493 1.429 1_455 S
C502 N499 1.350 . S
C502 C501 1.434 . S
C503 C504 1.369 . S
C503 C505 1.419 . S
C503 H507 0.930 . S
C504 C503 1.369 . S
C504 C513 1.429 . S
C505 C503 1.419 . S
C505 C506 1.363 . S
C505 H508 0.929 . S
C506 C505 1.363 . S
C506 C512 1.428 . S
H507 C503 0.930 . S
H508 C505 0.929 . S
S509 N510 1.613 . S
S509 N511 1.610 . S
N510 S509 1.613 . S
N510 C513 1.350 . S
N511 S509 1.610 . S
N511 C512 1.351 . S
C512 C506 1.428 . S
C512 N511 1.351 . S
C512 C513 1.434 . S
C513 C504 1.429 . S
C513 N510 1.350 . S
C513 C512 1.434 . S
C514 C515 1.369 . S
C514 C516 1.419 1_556 S
C514 H518 0.930 . S
C515 C514 1.369 . S
C515 C524 1.429 . S
C516 C514 1.419 1_554 S
C516 C517 1.363 . S
C516 H519 0.929 . S
C517 C516 1.363 . S
C517 C523 1.428 . S
H518 C514 0.930 . S
H519 C516 0.929 . S
S520 N521 1.613 1_554 S
S520 N522 1.610 . S
N521 S520 1.613 1_556 S
N521 C524 1.350 . S
N522 S520 1.610 . S
N522 C523 1.351 . S
C523 C517 1.428 . S
C523 N522 1.351 . S
C523 C524 1.434 1_554 S
C524 C515 1.429 . S
C524 N521 1.350 . S
C524 C523 1.434 1_556 S
C525 C526 1.369 . S
C525 C527 1.419 . S
C525 H529 0.930 . S
C526 C525 1.369 . S
C526 C535 1.429 . S
C527 C525 1.419 . S
C527 C528 1.363 . S
C527 H530 0.929 . S
C528 C527 1.363 . S
C528 C534 1.428 . S
H529 C525 0.930 . S
H530 C527 0.929 . S
S531 N532 1.613 . S
S531 N533 1.610 . S
N532 S531 1.613 . S
N532 C535 1.350 . S
N533 S531 1.610 . S
N533 C534 1.351 . S
C534 C528 1.428 . S
C534 N533 1.351 . S
C534 C535 1.434 . S
C535 C526 1.429 . S
C535 N532 1.350 . S
C535 C534 1.434 . S
C536 C537 1.369 . S
C536 C538 1.419 . S
C536 H540 0.930 . S
C537 C536 1.369 . S
C537 C546 1.429 . S
C538 C536 1.419 . S
C538 C539 1.363 . S
C538 H541 0.929 . S
C539 C538 1.363 . S
C539 C545 1.428 . S
H540 C536 0.930 . S
H541 C538 0.929 . S
S542 N543 1.613 . S
S542 N544 1.610 . S
N543 S542 1.613 . S
N543 C546 1.350 . S
N544 S542 1.610 . S
N544 C545 1.351 . S
C545 C539 1.428 . S
C545 N544 1.351 . S
C545 C546 1.434 . S
C546 C537 1.429 . S
C546 N543 1.350 . S
C546 C545 1.434 . S
C547 C548 1.369 . S
C547 C549 1.419 . S
C547 H551 0.930 . S
C548 C547 1.369 . S
C548 C557 1.429 . S
C549 C547 1.419 . S
C549 C550 1.363 . S
C549 H552 0.929 . S
C550 C549 1.363 . S
C550 C556 1.428 . S
H551 C547 0.930 . S
H552 C549 0.929 . S
S553 N554 1.613 . S
S553 N555 1.610 . S
N554 S553 1.613 . S
N554 C557 1.350 . S
N555 S553 1.610 . S
N555 C556 1.351 . S
C556 C550 1.428 . S
C556 N555 1.351 . S
C556 C557 1.434 . S
C557 C548 1.429 . S
C557 N554 1.350 . S
C557 C556 1.434 . S
C558 C559 1.369 . S
C558 C560 1.419 . S
C558 H562 0.930 . S
C559 C558 1.369 . S
C559 C568 1.429 . S
C560 C558 1.419 . S
C560 C561 1.363 . S
C560 H563 0.929 . S
C561 C560 1.363 . S
C561 C567 1.428 . S
H562 C558 0.930 . S
H563 C560 0.929 . S
S564 N565 1.613 . S
S564 N566 1.610 . S
N565 S564 1.613 . S
N565 C568 1.350 . S
N566 S564 1.610 . S
N566 C567 1.351 . S
C567 C561 1.428 . S
C567 N566 1.351 . S
C567 C568 1.434 . S
C568 C559 1.429 . S
C568 N565 1.350 . S
C568 C567 1.434 . S
C569 C570 1.369 . S
C569 C571 1.419 . S
C569 H573 0.930 . S
C570 C569 1.369 . S
C570 C579 1.429 . S
C571 C569 1.419 . S
C571 C572 1.363 . S
C571 H574 0.929 . S
C572 C571 1.363 . S
C572 C578 1.428 . S
H573 C569 0.930 . S
H574 C571 0.929 . S
S575 N576 1.613 . S
S575 N577 1.610 . S
N576 S575 1.613 . S
N576 C579 1.350 . S
N577 S575 1.610 . S
N577 C578 1.351 . S
C578 C572 1.428 . S
C578 N577 1.351 . S
C578 C579 1.434 . S
C579 C570 1.429 . S
C579 N576 1.350 . S
C579 C578 1.434 . S
C580 C581 1.369 . S
C580 C582 1.419 . S
C580 H584 0.930 . S
C581 C580 1.369 . S
C581 C590 1.429 1_565 S
C582 C580 1.419 . S
C582 C583 1.363 1_565 S
C582 H585 0.929 . S
C583 C582 1.363 1_545 S
C583 C589 1.428 . S
H584 C580 0.930 . S
H585 C582 0.929 . S
S586 N587 1.613 . S
S586 N588 1.610 . S
N587 S586 1.613 . S
N587 C590 1.350 . S
N588 S586 1.610 . S
N588 C589 1.351 . S
C589 C583 1.428 . S
C589 N588 1.351 . S
C589 C590 1.434 . S
C590 C581 1.429 1_545 S
C590 N587 1.350 . S
C590 C589 1.434 . S
C591 C592 1.384 1_655 S
C591 C593 1.404 1_556 S
C591 H595 0.930 . S
C592 C591 1.384 1_455 S
C592 C601 1.429 1_565 S
C593 C591 1.404 1_554 S
C593 C594 1.363 1_565 S
C593 H596 0.929 . S
C594 C593 1.363 1_545 S
C594 C600 1.441 1_655 S
H595 C591 0.930 . S
H596 C593 0.929 . S
S597 N598 1.613 . S
S597 N599 1.604 1_556 S
N598 S597 1.613 . S
N598 C601 1.350 . S
N599 S597 1.604 1_554 S
N599 C600 1.351 . S
C600 C594 1.441 1_455 S
C600 N599 1.351 . S
C600 C601 1.421 1_554 S
C601 C592 1.429 1_545 S
C601 N598 1.350 . S
C601 C600 1.421 1_556 S
C602 C603 1.369 . S
C602 C604 1.419 1_545 S
C602 H606 0.930 . S
C603 C602 1.369 . S
C603 C612 1.429 1_556 S
C604 C602 1.419 1_565 S
C604 C605 1.363 1_556 S
C604 H607 0.929 . S
C605 C604 1.363 1_554 S
C605 C611 1.428 . S
H606 C602 0.930 . S
H607 C604 0.929 . S
S608 N609 1.613 1_565 S
S608 N610 1.610 . S
N609 S608 1.613 1_545 S
N609 C612 1.350 . S
N610 S608 1.610 . S
N610 C611 1.351 . S
C611 C605 1.428 . S
C611 N610 1.351 . S
C611 C612 1.434 1_565 S
C612 C603 1.429 1_554 S
C612 N609 1.350 . S
C612 C611 1.434 1_545 S
C613 C614 1.361 1_565 S
C613 C615 1.427 . S
C613 H617 0.931 . S
C614 C613 1.361 1_545 S
C614 C623 1.429 1_455 S
C615 C613 1.427 . S
C615 C616 1.363 1_455 S
C615 H618 0.929 . S
C616 C615 1.363 1_655 S
C616 C622 1.428 1_565 S
H617 C613 0.931 . S
H618 C615 0.929 . S
S619 N620 1.613 . S
S619 N621 1.610 . S
N620 S619 1.613 . S
N620 C623 1.350 . S
N621 S619 1.610 . S
N621 C622 1.351 . S
C622 C616 1.428 1_545 S
C622 N621 1.351 . S
C622 C623 1.434 . S
C623 C614 1.429 1_655 S
C623 N620 1.350 . S
C623 C622 1.434 . S
C624 C625 1.369 1_455 S
C624 C626 1.419 . S
C624 H628 0.930 . S
C625 C624 1.369 1_655 S
C625 C634 1.429 . S
C626 C624 1.419 . S
C626 C627 1.363 . S
C626 H629 0.929 . S
C627 C626 1.363 . S
C627 C633 1.428 1_455 S
H628 C624 0.930 . S
H629 C626 0.929 . S
S630 N631 1.613 . S
S630 N632 1.610 . S
N631 S630 1.613 . S
N631 C634 1.350 . S
N632 S630 1.610 . S
N632 C633 1.351 . S
C633 C627 1.428 1_655 S
C633 N632 1.351 . S
C633 C634 1.434 . S
C634 C625 1.429 . S
C634 N631 1.350 . S
C634 C633 1.434 . S
C635 C636 1.369 . S
C635 C637 1.419 1_455 S
C635 H639 0.930 . S
C636 C635 1.369 . S
C636 C645 1.429 . S
C637 C635 1.419 1_655 S
C637 C638 1.363 . S
C637 H640 0.929 . S
C638 C637 1.363 . S
C638 C644 1.428 . S
H639 C635 0.930 . S
H640 C637 0.929 . S
S641 N642 1.613 1_655 S
S641 N643 1.610 . S
N642 S641 1.613 1_455 S
N642 C645 1.350 . S
N643 S641 1.610 . S
N643 C644 1.351 . S
C644 C638 1.428 . S
C644 N643 1.351 . S
C644 C645 1.434 1_655 S
C645 C636 1.429 . S
C645 N642 1.350 . S
C645 C644 1.434 1_455 S
C646 C647 1.369 . S
C646 C648 1.419 . S
C646 H650 0.930 . S
C647 C646 1.369 . S
C647 C656 1.429 . S
C648 C646 1.419 . S
C648 C649 1.363 . S
C648 H651 0.929 . S
C649 C648 1.363 . S
C649 C655 1.428 . S
H650 C646 0.930 . S
H651 C648 0.929 . S
S652 N653 1.613 . S
S652 N654 1.610 . S
N653 S652 1.613 . S
N653 C656 1.350 . S
N654 S652 1.610 . S
N654 C655 1.351 . S
C655 C649 1.428 . S
C655 N654 1.351 . S
C655 C656 1.434 . S
C656 C647 1.429 . S
C656 N653 1.350 . S
C656 C655 1.434 . S
C657 C658 1.369 . S
C657 C659 1.419 . S
C657 H661 0.930 . S
C658 C657 1.369 . S
C658 C667 1.429 . S
C659 C657 1.419 . S
C659 C660 1.363 . S
C659 H662 0.929 . S
C660 C659 1.363 . S
C660 C666 1.428 . S
H661 C657 0.930 . S
H662 C659 0.929 . S
S663 N664 1.613 . S
S663 N665 1.610 . S
N664 S663 1.613 . S
N664 C667 1.350 . S
N665 S663 1.610 . S
N665 C666 1.351 . S
C666 C660 1.428 . S
C666 N665 1.351 . S
C666 C667 1.434 . S
C667 C658 1.429 . S
C667 N664 1.350 . S
C667 C666 1.434 . S
C668 C669 1.369 1_455 S
C668 C670 1.419 . S
C668 H672 0.930 . S
C669 C668 1.369 1_655 S
C669 C678 1.429 . S
C670 C668 1.419 . S
C670 C671 1.363 . S
C670 H673 0.929 . S
C671 C670 1.363 . S
C671 C677 1.428 1_455 S
H672 C668 0.930 . S
H673 C670 0.929 . S
S674 N675 1.613 . S
S674 N676 1.610 . S
N675 S674 1.613 . S
N675 C678 1.350 . S
N676 S674 1.610 . S
N676 C677 1.351 . S
C677 C671 1.428 1_655 S
C677 N676 1.351 . S
C677 C678 1.434 . S
C678 C669 1.429 . S
C678 N675 1.350 . S
C678 C677 1.434 . S
C679 C680 1.369 . S
C679 C681 1.419 . S
C679 H683 0.930 . S
C680 C679 1.369 . S
C680 C689 1.429 . S
C681 C679 1.419 . S
C681 C682 1.363 . S
C681 H684 0.929 . S
C682 C681 1.363 . S
C682 C688 1.428 . S
H683 C679 0.930 . S
H684 C681 0.929 . S
S685 N686 1.613 . S
S685 N687 1.610 . S
N686 S685 1.613 . S
N686 C689 1.350 . S
N687 S685 1.610 . S
N687 C688 1.351 . S
C688 C682 1.428 . S
C688 N687 1.351 . S
C688 C689 1.434 . S
C689 C680 1.429 . S
C689 N686 1.350 . S
C689 C688 1.434 . S
C690 C691 1.369 . S
C690 C692 1.419 . S
C690 H694 0.930 . S
C691 C690 1.369 . S
C691 C700 1.429 . S
C692 C690 1.419 . S
C692 C693 1.363 . S
C692 H695 0.929 . S
C693 C692 1.363 . S
C693 C699 1.428 . S
H694 C690 0.930 . S
H695 C692 0.929 . S
S696 N697 1.613 . S
S696 N698 1.610 . S
N697 S696 1.613 . S
N697 C700 1.350 . S
N698 S696 1.610 . S
N698 C699 1.351 . S
C699 C693 1.428 . S
C699 N698 1.351 . S
C699 C700 1.434 . S
C700 C691 1.429 . S
C700 N697 1.350 . S
C700 C699 1.434 . S
C701 C702 1.369 . S
C701 C703 1.419 1_455 S
C701 H705 0.930 . S
C702 C701 1.369 . S
C702 C711 1.429 . S
C703 C701 1.419 1_655 S
C703 C704 1.363 . S
C703 H706 0.929 . S
C704 C703 1.363 . S
C704 C710 1.428 . S
H705 C701 0.930 . S
H706 C703 0.929 . S
S707 N708 1.613 . S
S707 N709 1.610 1_455 S
N708 S707 1.613 . S
N708 C711 1.350 . S
N709 S707 1.610 1_655 S
N709 C710 1.351 . S
C710 C704 1.428 . S
C710 N709 1.351 . S
C710 C711 1.434 1_655 S
C711 C702 1.429 . S
C711 N708 1.350 . S
C711 C710 1.434 1_455 S
C712 C713 1.369 1_455 S
C712 C714 1.419 . S
C712 H716 0.930 . S
C713 C712 1.369 1_655 S
C713 C722 1.429 . S
C714 C712 1.419 . S
C714 C715 1.363 . S
C714 H717 0.929 . S
C715 C714 1.363 . S
C715 C721 1.428 1_455 S
H716 C712 0.930 . S
H717 C714 0.929 . S
S718 N719 1.613 . S
S718 N720 1.610 . S
N719 S718 1.613 . S
N719 C722 1.350 . S
N720 S718 1.610 . S
N720 C721 1.351 . S
C721 C715 1.428 1_655 S
C721 N720 1.351 . S
C721 C722 1.434 . S
C722 C713 1.429 . S
C722 N719 1.350 . S
C722 C721 1.434 . S
C723 C724 1.369 . S
C723 C725 1.419 1_655 S
C723 H727 0.930 . S
C724 C723 1.369 . S
C724 C733 1.429 . S
C725 C723 1.419 1_455 S
C725 C726 1.363 . S
C725 H728 0.929 . S
C726 C725 1.363 . S
C726 C732 1.428 . S
H727 C723 0.930 . S
H728 C725 0.929 . S
S729 N730 1.613 1_455 S
S729 N731 1.610 . S
N730 S729 1.613 1_655 S
N730 C733 1.350 . S
N731 S729 1.610 . S
N731 C732 1.351 . S
C732 C726 1.428 . S
C732 N731 1.351 . S
C732 C733 1.434 1_455 S
C733 C724 1.429 . S
C733 N730 1.350 . S
C733 C732 1.434 1_655 S
C734 C735 1.369 . S
C734 C736 1.419 . S
C734 H738 0.930 . S
C735 C734 1.369 . S
C735 C744 1.429 . S
C736 C734 1.419 . S
C736 C737 1.363 . S
C736 H739 0.929 . S
C737 C736 1.363 . S
C737 C743 1.428 . S
H738 C734 0.930 . S
H739 C736 0.929 . S
S740 N741 1.613 . S
S740 N742 1.610 . S
N741 S740 1.613 . S
N741 C744 1.350 . S
N742 S740 1.610 . S
N742 C743 1.351 . S
C743 C737 1.428 . S
C743 N742 1.351 . S
C743 C744 1.434 . S
C744 C735 1.429 . S
C744 N741 1.350 . S
C744 C743 1.434 . S
C745 C746 1.369 . S
C745 C747 1.419 . S
C745 H749 0.930 . S
C746 C745 1.369 . S
C746 C755 1.429 . S
C747 C745 1.419 . S
C747 C748 1.363 . S
C747 H750 0.929 . S
C748 C747 1.363 . S
C748 C754 1.428 . S
H749 C745 0.930 . S
H750 C747 0.929 . S
S751 N752 1.613 . S
S751 N753 1.610 . S
N752 S751 1.613 . S
N752 C755 1.350 . S
N753 S751 1.610 . S
N753 C754 1.351 . S
C754 C748 1.428 . S
C754 N753 1.351 . S
C754 C755 1.434 . S
C755 C746 1.429 . S
C755 N752 1.350 . S
C755 C754 1.434 . S
C756 C757 1.369 . S
C756 C758 1.419 . S
C756 H760 0.930 . S
C757 C756 1.369 . S
C757 C766 1.429 1_655 S
C758 C756 1.419 . S
C758 C759 1.363 1_655 S
C758 H761 0.929 . S
C759 C758 1.363 1_455 S
C759 C765 1.428 . S
H760 C756 0.930 . S
H761 C758 0.929 . S
S762 N763 1.613 . S
S762 N764 1.610 . S
N763 S762 1.613 . S
N763 C766 1.350 . S
N764 S762 1.610 . S
N764 C765 1.351 . S
C765 C759 1.428 . S
C765 N764 1.351 . S
C765 C766 1.434 . S
C766 C757 1.429 1_455 S
C766 N763 1.350 . S
C766 C765 1.434 . S
C767 C768 1.369 . S
C767 C769 1.419 . S
C767 H771 0.930 . S
C768 C767 1.369 . S
C768 C777 1.429 . S
C769 C767 1.419 . S
C769 C770 1.363 . S
C769 H772 0.929 . S
C770 C769 1.363 . S
C770 C776 1.428 . S
H771 C767 0.930 . S
H772 C769 0.929 . S
S773 N774 1.613 . S
S773 N775 1.610 . S
N774 S773 1.613 . S
N774 C777 1.350 . S
N775 S773 1.610 . S
N775 C776 1.351 . S
C776 C770 1.428 . S
C776 N775 1.351 . S
C776 C777 1.434 . S
C777 C768 1.429 . S
C777 N774 1.350 . S
C777 C776 1.434 . S
C778 C779 1.369 . S
C778 C780 1.419 . S
C778 H782 0.930 . S
C779 C778 1.369 . S
C779 C788 1.429 . S
C780 C778 1.419 . S
C780 C781 1.363 . S
C780 H783 0.929 . S
C781 C780 1.363 . S
C781 C787 1.428 . S
H782 C778 0.930 . S
H783 C780 0.929 . S
S784 N785 1.613 1_556 S
S784 N786 1.610 1_556 S
N785 S784 1.613 1_554 S
N785 C788 1.350 . S
N786 S784 1.610 1_554 S
N786 C787 1.351 . S
C787 C781 1.428 . S
C787 N786 1.351 . S
C787 C788 1.434 . S
C788 C779 1.429 . S
C788 N785 1.350 . S
C788 C787 1.434 . S
C789 C790 1.369 . S
C789 C791 1.419 1_655 S
C789 H793 0.930 . S
C790 C789 1.369 . S
C790 C799 1.429 . S
C791 C789 1.419 1_455 S
C791 C792 1.363 . S
C791 H794 0.929 . S
C792 C791 1.363 . S
C792 C798 1.428 . S
H793 C789 0.930 . S
H794 C791 0.929 . S
S795 N796 1.613 . S
S795 N797 1.610 1_655 S
N796 S795 1.613 . S
N796 C799 1.350 . S
N797 S795 1.610 1_455 S
N797 C798 1.351 . S
C798 C792 1.428 . S
C798 N797 1.351 . S
C798 C799 1.434 1_455 S
C799 C790 1.429 . S
C799 N796 1.350 . S
C799 C798 1.434 1_655 S
C800 C801 1.369 . S
C800 C802 1.419 . S
C800 H804 0.930 . S
C801 C800 1.369 . S
C801 C810 1.429 1_556 S
C802 C800 1.419 . S
C802 C803 1.363 1_556 S
C802 H805 0.929 . S
C803 C802 1.363 1_554 S
C803 C809 1.428 . S
H804 C800 0.930 . S
H805 C802 0.929 . S
S806 N807 1.613 . S
S806 N808 1.610 . S
N807 S806 1.613 . S
N807 C810 1.350 . S
N808 S806 1.610 . S
N808 C809 1.351 . S
C809 C803 1.428 . S
C809 N808 1.351 . S
C809 C810 1.434 . S
C810 C801 1.429 1_554 S
C810 N807 1.350 . S
C810 C809 1.434 . S
C811 C812 1.369 . S
C811 C813 1.419 1_545 S
C811 H815 0.930 . S
C812 C811 1.369 . S
C812 C821 1.429 . S
C813 C811 1.419 1_565 S
C813 C814 1.363 . S
C813 H816 0.929 . S
C814 C813 1.363 . S
C814 C820 1.428 . S
H815 C811 0.930 . S
H816 C813 0.929 . S
S817 N818 1.613 1_565 S
S817 N819 1.610 . S
N818 S817 1.613 1_545 S
N818 C821 1.350 . S
N819 S817 1.610 . S
N819 C820 1.351 . S
C820 C814 1.428 . S
C820 N819 1.351 . S
C820 C821 1.434 1_565 S
C821 C812 1.429 . S
C821 N818 1.350 . S
C821 C820 1.434 1_545 S
C822 C823 1.369 . S
C822 C824 1.419 . S
C822 H826 0.930 . S
C823 C822 1.369 . S
C823 C832 1.429 . S
C824 C822 1.419 . S
C824 C825 1.363 . S
C824 H827 0.929 . S
C825 C824 1.363 . S
C825 C831 1.428 . S
H826 C822 0.930 . S
H827 C824 0.929 . S
S828 N829 1.613 . S
S828 N830 1.610 . S
N829 S828 1.613 . S
N829 C832 1.350 . S
N830 S828 1.610 . S
N830 C831 1.351 . S
C831 C825 1.428 . S
C831 N830 1.351 . S
C831 C832 1.434 . S
C832 C823 1.429 . S
C832 N829 1.350 . S
C832 C831 1.434 . S
C833 C834 1.369 . S
C833 C835 1.419 1_545 S
C833 H837 0.930 . S
C834 C833 1.369 . S
C834 C843 1.429 . S
C835 C833 1.419 1_565 S
C835 C836 1.363 . S
C835 H838 0.929 . S
C836 C835 1.363 . S
C836 C842 1.428 . S
H837 C833 0.930 . S
H838 C835 0.929 . S
S839 N840 1.613 . S
S839 N841 1.610 1_545 S
N840 S839 1.613 . S
N840 C843 1.350 . S
N841 S839 1.610 1_565 S
N841 C842 1.351 . S
C842 C836 1.428 . S
C842 N841 1.351 . S
C842 C843 1.434 1_565 S
C843 C834 1.429 . S
C843 N840 1.350 . S
C843 C842 1.434 1_545 S
C844 C845 1.369 . S
C844 C846 1.415 1_554 S
C844 H848 0.930 . S
C845 C844 1.369 . S
C845 C854 1.404 1_554 S
C846 C844 1.415 1_556 S
C846 C847 1.366 . S
C846 H849 0.929 1_556 S
C847 C846 1.366 . S
C847 C853 1.428 . S
H848 C844 0.930 . S
H849 C846 0.929 1_554 S
S850 N851 1.613 . S
S850 N852 1.610 . S
N851 S850 1.613 . S
N851 C854 1.357 . S
N852 S850 1.610 . S
N852 C853 1.351 . S
C853 C847 1.428 . S
C853 N852 1.351 . S
C853 C854 1.458 . S
C854 C845 1.404 1_556 S
C854 N851 1.357 . S
C854 C853 1.458 . S
C855 C856 1.369 . S
C855 C857 1.419 1_565 S
C855 H859 0.930 . S
C856 C855 1.369 . S
C856 C865 1.429 . S
C857 C855 1.419 1_545 S
C857 C858 1.363 . S
C857 H860 0.929 . S
C858 C857 1.363 . S
C858 C864 1.428 . S
H859 C855 0.930 . S
H860 C857 0.929 . S
S861 N862 1.613 . S
S861 N863 1.610 1_565 S
N862 S861 1.613 . S
N862 C865 1.350 . S
N863 S861 1.610 1_545 S
N863 C864 1.351 . S
C864 C858 1.428 . S
C864 N863 1.351 . S
C864 C865 1.434 1_545 S
C865 C856 1.429 . S
C865 N862 1.350 . S
C865 C864 1.434 1_565 S
C866 C867 1.369 . S
C866 C868 1.419 . S
C866 H870 0.930 . S
C867 C866 1.369 . S
C867 C876 1.429 . S
C868 C866 1.419 . S
C868 C869 1.363 . S
C868 H871 0.929 . S
C869 C868 1.363 . S
C869 C875 1.428 . S
H870 C866 0.930 . S
H871 C868 0.929 . S
S872 N873 1.613 . S
S872 N874 1.610 . S
N873 S872 1.613 . S
N873 C876 1.350 . S
N874 S872 1.610 . S
N874 C875 1.351 . S
C875 C869 1.428 . S
C875 N874 1.351 . S
C875 C876 1.434 . S
C876 C867 1.429 . S
C876 N873 1.350 . S
C876 C875 1.434 . S
C877 C878 1.389 . S
C877 C879 1.400 1_545 S
C877 H881 0.929 1_545 S
C878 C877 1.389 . S
C878 C887 1.429 . S
C879 C877 1.400 1_565 S
C879 C880 1.363 . S
C879 H882 0.929 . S
C880 C879 1.363 . S
C880 C886 1.414 1_565 S
H881 C877 0.929 1_565 S
H882 C879 0.929 . S
S883 N884 1.613 . S
S883 N885 1.610 . S
N884 S883 1.613 . S
N884 C887 1.350 . S
N885 S883 1.610 . S
N885 C886 1.353 . S
C886 C880 1.414 1_545 S
C886 N885 1.353 . S
C886 C887 1.448 . S
C887 C878 1.429 . S
C887 N884 1.350 . S
C887 C886 1.448 . S
C888 C889 1.369 . S
C888 C890 1.419 . S
C888 H892 0.930 . S
C889 C888 1.369 . S
C889 C898 1.429 . S
C890 C888 1.419 . S
C890 C891 1.363 . S
C890 H893 0.929 . S
C891 C890 1.363 . S
C891 C897 1.428 . S
H892 C888 0.930 . S
H893 C890 0.929 . S
S894 N895 1.613 . S
S894 N896 1.610 . S
N895 S894 1.613 . S
N895 C898 1.350 . S
N896 S894 1.610 . S
N896 C897 1.351 . S
C897 C891 1.428 . S
C897 N896 1.351 . S
C897 C898 1.434 . S
C898 C889 1.429 . S
C898 N895 1.350 . S
C898 C897 1.434 . S
C899 C900 1.369 . S
C899 C901 1.419 . S
C899 H903 0.930 . S
C900 C899 1.369 . S
C900 C909 1.429 . S
C901 C899 1.419 . S
C901 C902 1.363 . S
C901 H904 0.929 . S
C902 C901 1.363 . S
C902 C908 1.428 . S
H903 C899 0.930 . S
H904 C901 0.929 . S
S905 N906 1.613 . S
S905 N907 1.610 . S
N906 S905 1.613 . S
N906 C909 1.350 . S
N907 S905 1.610 . S
N907 C908 1.351 . S
C908 C902 1.428 . S
C908 N907 1.351 . S
C908 C909 1.434 . S
C909 C900 1.429 . S
C909 N906 1.350 . S
C909 C908 1.434 . S
C910 C911 1.369 . S
C910 C912 1.419 . S
C910 H914 0.930 . S
C911 C910 1.369 . S
C911 C920 1.429 1_554 S
C912 C910 1.419 . S
C912 C913 1.363 1_554 S
C912 H915 0.929 . S
C913 C912 1.363 1_556 S
C913 C919 1.428 . S
H914 C910 0.930 . S
H915 C912 0.929 . S
S916 N917 1.613 . S
S916 N918 1.610 . S
N917 S916 1.613 . S
N917 C920 1.350 . S
N918 S916 1.610 . S
N918 C919 1.351 . S
C919 C913 1.428 . S
C919 N918 1.351 . S
C919 C920 1.434 . S
C920 C911 1.429 1_556 S
C920 N917 1.350 . S
C920 C919 1.434 . S
C921 C922 1.369 . S
C921 C923 1.419 . S
C921 H925 0.930 . S
C922 C921 1.369 . S
C922 C931 1.429 . S
C923 C921 1.419 . S
C923 C924 1.363 . S
C923 H926 0.929 . S
C924 C923 1.363 . S
C924 C930 1.428 . S
H925 C921 0.930 . S
H926 C923 0.929 . S
S927 N928 1.613 . S
S927 N929 1.610 . S
N928 S927 1.613 . S
N928 C931 1.350 . S
N929 S927 1.610 . S
N929 C930 1.351 . S
C930 C924 1.428 . S
C930 N929 1.351 . S
C930 C931 1.434 . S
C931 C922 1.429 . S
C931 N928 1.350 . S
C931 C930 1.434 . S
C932 C933 1.369 . S
C932 C934 1.419 . S
C932 H936 0.930 . S
C933 C932 1.369 . S
C933 C942 1.429 . S
C934 C932 1.419 . S
C934 C935 1.363 . S
C934 H937 0.929 . S
C935 C934 1.363 . S
C935 C941 1.428 . S
H936 C932 0.930 . S
H937 C934 0.929 . S
S938 N939 1.613 . S
S938 N940 1.610 . S
N939 S938 1.613 . S
N939 C942 1.350 . S
N940 S938 1.610 . S
N940 C941 1.351 . S
C941 C935 1.428 . S
C941 N940 1.351 . S
C941 C942 1.434 . S
C942 C933 1.429 . S
C942 N939 1.350 . S
C942 C941 1.434 . S
C943 C944 1.369 . S
C943 C945 1.419 . S
C943 H947 0.930 . S
C944 C943 1.369 . S
C944 C953 1.429 . S
C945 C943 1.419 . S
C945 C946 1.363 . S
C945 H948 0.929 . S
C946 C945 1.363 . S
C946 C952 1.428 . S
H947 C943 0.930 . S
H948 C945 0.929 . S
S949 N950 1.613 . S
S949 N951 1.610 . S
N950 S949 1.613 . S
N950 C953 1.350 . S
N951 S949 1.610 . S
N951 C952 1.351 . S
C952 C946 1.428 . S
C952 N951 1.351 . S
C952 C953 1.434 . S
C953 C944 1.429 . S
C953 N950 1.350 . S
C953 C952 1.434 . S
C954 C955 1.369 . S
C954 C956 1.419 1_556 S
C954 H958 0.930 . S
C955 C954 1.369 . S
C955 C964 1.429 . S
C956 C954 1.419 1_554 S
C956 C957 1.363 . S
C956 H959 0.929 . S
C957 C956 1.363 . S
C957 C963 1.428 . S
H958 C954 0.930 . S
H959 C956 0.929 . S
S960 N961 1.613 . S
S960 N962 1.610 1_556 S
N961 S960 1.613 . S
N961 C964 1.350 . S
N962 S960 1.610 1_554 S
N962 C963 1.351 . S
C963 C957 1.428 . S
C963 N962 1.351 . S
C963 C964 1.434 1_554 S
C964 C955 1.429 . S
C964 N961 1.350 . S
C964 C963 1.434 1_556 S
C965 C966 1.369 . S
C965 C967 1.419 . S
C965 H969 0.930 . S
C966 C965 1.369 . S
C966 C975 1.429 . S
C967 C965 1.419 . S
C967 C968 1.363 . S
C967 H970 0.929 . S
C968 C967 1.363 . S
C968 C974 1.428 . S
H969 C965 0.930 . S
H970 C967 0.929 . S
S971 N972 1.613 . S
S971 N973 1.610 . S
N972 S971 1.613 . S
N972 C975 1.350 . S
N973 S971 1.610 . S
N973 C974 1.351 . S
C974 C968 1.428 . S
C974 N973 1.351 . S
C974 C975 1.434 . S
C975 C966 1.429 . S
C975 N972 1.350 . S
C975 C974 1.434 . S
C976 C977 1.369 . S
C976 C978 1.419 . S
C976 H980 0.930 . S
C977 C976 1.369 . S
C977 C986 1.429 . S
C978 C976 1.419 . S
C978 C979 1.363 . S
C978 H981 0.929 . S
C979 C978 1.363 . S
C979 C985 1.428 . S
H980 C976 0.930 . S
H981 C978 0.929 . S
S982 N983 1.613 . S
S982 N984 1.610 . S
N983 S982 1.613 . S
N983 C986 1.350 . S
N984 S982 1.610 . S
N984 C985 1.351 . S
C985 C979 1.428 . S
C985 N984 1.351 . S
C985 C986 1.434 . S
C986 C977 1.429 . S
C986 N983 1.350 . S
C986 C985 1.434 . S
C987 C988 1.369 . S
C987 C989 1.419 . S
C987 H991 0.930 . S
C988 C987 1.369 . S
C988 C997 1.429 . S
C989 C987 1.419 . S
C989 C990 1.363 . S
C989 H992 0.929 . S
C990 C989 1.363 . S
C990 C996 1.428 . S
H991 C987 0.930 . S
H992 C989 0.929 . S
S993 N994 1.613 . S
S993 N995 1.610 . S
N994 S993 1.613 . S
N994 C997 1.350 . S
N995 S993 1.610 . S
N995 C996 1.351 . S
C996 C990 1.428 . S
C996 N995 1.351 . S
C996 C997 1.434 . S
C997 C988 1.429 . S
C997 N994 1.350 . S
C997 C996 1.434 . S
C998 C999 1.369 . S
C998 C1000 1.419 . S
C998 H1002 0.930 . S
C999 C998 1.369 . S
C999 C1008 1.429 . S
C1000 C998 1.419 . S
C1000 C1001 1.363 . S
C1000 H1003 0.929 . S
C1001 C1000 1.363 . S
C1001 C1007 1.428 . S
H1002 C998 0.930 . S
H1003 C1000 0.929 . S
S1004 N1005 1.613 . S
S1004 N1006 1.610 . S
N1005 S1004 1.613 . S
N1005 C1008 1.350 . S
N1006 S1004 1.610 . S
N1006 C1007 1.351 . S
C1007 C1001 1.428 . S
C1007 N1006 1.351 . S
C1007 C1008 1.434 . S
C1008 C999 1.429 . S
C1008 N1005 1.350 . S
C1008 C1007 1.434 . S
C1009 C1010 1.369 . S
C1009 C1011 1.419 . S
C1009 H1013 0.930 . S
C1010 C1009 1.369 . S
C1010 C1019 1.429 . S
C1011 C1009 1.419 . S
C1011 C1012 1.363 . S
C1011 H1014 0.929 . S
C1012 C1011 1.363 . S
C1012 C1018 1.428 . S
H1013 C1009 0.930 . S
H1014 C1011 0.929 . S
S1015 N1016 1.613 . S
S1015 N1017 1.610 . S
N1016 S1015 1.613 . S
N1016 C1019 1.350 . S
N1017 S1015 1.610 . S
N1017 C1018 1.351 . S
C1018 C1012 1.428 . S
C1018 N1017 1.351 . S
C1018 C1019 1.434 . S
C1019 C1010 1.429 . S
C1019 N1016 1.350 . S
C1019 C1018 1.434 . S
C1020 C1021 1.369 . S
C1020 C1022 1.419 . S
C1020 H1024 0.930 . S
C1021 C1020 1.369 . S
C1021 C1030 1.429 . S
C1022 C1020 1.419 . S
C1022 C1023 1.363 . S
C1022 H1025 0.929 . S
C1023 C1022 1.363 . S
C1023 C1029 1.428 . S
H1024 C1020 0.930 . S
H1025 C1022 0.929 . S
S1026 N1027 1.613 . S
S1026 N1028 1.610 . S
N1027 S1026 1.613 . S
N1027 C1030 1.350 . S
N1028 S1026 1.610 . S
N1028 C1029 1.351 . S
C1029 C1023 1.428 . S
C1029 N1028 1.351 . S
C1029 C1030 1.434 . S
C1030 C1021 1.429 . S
C1030 N1027 1.350 . S
C1030 C1029 1.434 . S
C1031 C1032 1.369 . S
C1031 C1033 1.419 . S
C1031 H1035 0.930 . S
C1032 C1031 1.369 . S
C1032 C1041 1.429 . S
C1033 C1031 1.419 . S
C1033 C1034 1.363 . S
C1033 H1036 0.929 . S
C1034 C1033 1.363 . S
C1034 C1040 1.428 . S
H1035 C1031 0.930 . S
H1036 C1033 0.929 . S
S1037 N1038 1.613 . S
S1037 N1039 1.610 . S
N1038 S1037 1.613 . S
N1038 C1041 1.350 . S
N1039 S1037 1.610 . S
N1039 C1040 1.351 . S
C1040 C1034 1.428 . S
C1040 N1039 1.351 . S
C1040 C1041 1.434 . S
C1041 C1032 1.429 . S
C1041 N1038 1.350 . S
C1041 C1040 1.434 . S
C1042 C1043 1.369 . S
C1042 C1044 1.419 . S
C1042 H1046 0.930 . S
C1043 C1042 1.369 . S
C1043 C1052 1.429 . S
C1044 C1042 1.419 . S
C1044 C1045 1.363 . S
C1044 H1047 0.929 . S
C1045 C1044 1.363 . S
C1045 C1051 1.428 . S
H1046 C1042 0.930 . S
H1047 C1044 0.929 . S
S1048 N1049 1.613 . S
S1048 N1050 1.610 . S
N1049 S1048 1.613 . S
N1049 C1052 1.350 . S
N1050 S1048 1.610 . S
N1050 C1051 1.351 . S
C1051 C1045 1.428 . S
C1051 N1050 1.351 . S
C1051 C1052 1.434 . S
C1052 C1043 1.429 . S
C1052 N1049 1.350 . S
C1052 C1051 1.434 . S
C1053 C1054 1.369 . S
C1053 C1055 1.419 . S
C1053 H1057 0.930 . S
C1054 C1053 1.369 . S
C1054 C1063 1.429 . S
C1055 C1053 1.419 . S
C1055 C1056 1.363 . S
C1055 H1058 0.929 . S
C1056 C1055 1.363 . S
C1056 C1062 1.428 . S
H1057 C1053 0.930 . S
H1058 C1055 0.929 . S
S1059 N1060 1.613 . S
S1059 N1061 1.610 . S
N1060 S1059 1.613 . S
N1060 C1063 1.350 . S
N1061 S1059 1.610 . S
N1061 C1062 1.351 . S
C1062 C1056 1.428 . S
C1062 N1061 1.351 . S
C1062 C1063 1.434 . S
C1063 C1054 1.429 . S
C1063 N1060 1.350 . S
C1063 C1062 1.434 . S
C1064 C1065 1.369 . S
C1064 C1066 1.419 . S
C1064 H1068 0.930 . S
C1065 C1064 1.369 . S
C1065 C1074 1.429 . S
C1066 C1064 1.419 . S
C1066 C1067 1.363 . S
C1066 H1069 0.929 . S
C1067 C1066 1.363 . S
C1067 C1073 1.428 . S
H1068 C1064 0.930 . S
H1069 C1066 0.929 . S
S1070 N1071 1.613 . S
S1070 N1072 1.610 . S
N1071 S1070 1.613 . S
N1071 C1074 1.350 . S
N1072 S1070 1.610 . S
N1072 C1073 1.351 . S
C1073 C1067 1.428 . S
C1073 N1072 1.351 . S
C1073 C1074 1.434 . S
C1074 C1065 1.429 . S
C1074 N1071 1.350 . S
C1074 C1073 1.434 . S
C1075 C1076 1.369 . S
C1075 C1077 1.419 . S
C1075 H1079 0.930 . S
C1076 C1075 1.369 . S
C1076 C1085 1.429 . S
C1077 C1075 1.419 . S
C1077 C1078 1.363 . S
C1077 H1080 0.929 . S
C1078 C1077 1.363 . S
C1078 C1084 1.428 . S
H1079 C1075 0.930 . S
H1080 C1077 0.929 . S
S1081 N1082 1.613 . S
S1081 N1083 1.610 . S
N1082 S1081 1.613 . S
N1082 C1085 1.350 . S
N1083 S1081 1.610 . S
N1083 C1084 1.351 . S
C1084 C1078 1.428 . S
C1084 N1083 1.351 . S
C1084 C1085 1.434 . S
C1085 C1076 1.429 . S
C1085 N1082 1.350 . S
C1085 C1084 1.434 . S
C1086 C1087 1.369 . S
C1086 C1088 1.419 . S
C1086 H1090 0.930 . S
C1087 C1086 1.369 . S
C1087 C1096 1.429 . S
C1088 C1086 1.419 . S
C1088 C1089 1.363 . S
C1088 H1091 0.929 . S
C1089 C1088 1.363 . S
C1089 C1095 1.428 . S
H1090 C1086 0.930 . S
H1091 C1088 0.929 . S
S1092 N1093 1.613 . S
S1092 N1094 1.610 . S
N1093 S1092 1.613 . S
N1093 C1096 1.350 . S
N1094 S1092 1.610 . S
N1094 C1095 1.351 . S
C1095 C1089 1.428 . S
C1095 N1094 1.351 . S
C1095 C1096 1.434 . S
C1096 C1087 1.429 . S
C1096 N1093 1.350 . S
C1096 C1095 1.434 . S
C1097 C1098 1.369 . S
C1097 C1099 1.419 . S
C1097 H1101 0.930 . S
C1098 C1097 1.369 . S
C1098 C1107 1.429 . S
C1099 C1097 1.419 . S
C1099 C1100 1.363 . S
C1099 H1102 0.929 . S
C1100 C1099 1.363 . S
C1100 C1106 1.428 . S
H1101 C1097 0.930 . S
H1102 C1099 0.929 . S
S1103 N1104 1.613 . S
S1103 N1105 1.610 . S
N1104 S1103 1.613 . S
N1104 C1107 1.350 . S
N1105 S1103 1.610 . S
N1105 C1106 1.351 . S
C1106 C1100 1.428 . S
C1106 N1105 1.351 . S
C1106 C1107 1.434 . S
C1107 C1098 1.429 . S
C1107 N1104 1.350 . S
C1107 C1106 1.434 . S
C1108 C1109 1.369 . S
C1108 C1110 1.419 . S
C1108 H1112 0.930 . S
C1109 C1108 1.369 . S
C1109 C1118 1.429 . S
C1110 C1108 1.419 . S
C1110 C1111 1.363 . S
C1110 H1113 0.929 . S
C1111 C1110 1.363 . S
C1111 C1117 1.428 . S
H1112 C1108 0.930 . S
H1113 C1110 0.929 . S
S1114 N1115 1.613 . S
S1114 N1116 1.610 . S
N1115 S1114 1.613 . S
N1115 C1118 1.350 . S
N1116 S1114 1.610 . S
N1116 C1117 1.351 . S
C1117 C1111 1.428 . S
C1117 N1116 1.351 . S
C1117 C1118 1.434 . S
C1118 C1109 1.429 . S
C1118 N1115 1.350 . S
C1118 C1117 1.434 . S
C1119 C1120 1.369 . S
C1119 C1121 1.419 . S
C1119 H1123 0.930 . S
C1120 C1119 1.369 . S
C1120 C1129 1.429 . S
C1121 C1119 1.419 . S
C1121 C1122 1.363 . S
C1121 H1124 0.929 . S
C1122 C1121 1.363 . S
C1122 C1128 1.428 . S
H1123 C1119 0.930 . S
H1124 C1121 0.929 . S
S1125 N1126 1.613 . S
S1125 N1127 1.610 . S
N1126 S1125 1.613 . S
N1126 C1129 1.350 . S
N1127 S1125 1.610 . S
N1127 C1128 1.351 . S
C1128 C1122 1.428 . S
C1128 N1127 1.351 . S
C1128 C1129 1.434 . S
C1129 C1120 1.429 . S
C1129 N1126 1.350 . S
C1129 C1128 1.434 . S
C1130 C1131 1.369 . S
C1130 C1132 1.419 . S
C1130 H1134 0.930 . S
C1131 C1130 1.369 . S
C1131 C1140 1.429 . S
C1132 C1130 1.419 . S
C1132 C1133 1.363 . S
C1132 H1135 0.929 . S
C1133 C1132 1.363 . S
C1133 C1139 1.428 . S
H1134 C1130 0.930 . S
H1135 C1132 0.929 . S
S1136 N1137 1.613 . S
S1136 N1138 1.610 . S
N1137 S1136 1.613 . S
N1137 C1140 1.350 . S
N1138 S1136 1.610 . S
N1138 C1139 1.351 . S
C1139 C1133 1.428 . S
C1139 N1138 1.351 . S
C1139 C1140 1.434 . S
C1140 C1131 1.429 . S
C1140 N1137 1.350 . S
C1140 C1139 1.434 . S
C1141 C1142 1.369 . S
C1141 C1143 1.419 . S
C1141 H1145 0.930 . S
C1142 C1141 1.369 . S
C1142 C1151 1.429 . S
C1143 C1141 1.419 . S
C1143 C1144 1.363 . S
C1143 H1146 0.929 . S
C1144 C1143 1.363 . S
C1144 C1150 1.428 . S
H1145 C1141 0.930 . S
H1146 C1143 0.929 . S
S1147 N1148 1.613 . S
S1147 N1149 1.610 . S
N1148 S1147 1.613 . S
N1148 C1151 1.350 . S
N1149 S1147 1.610 . S
N1149 C1150 1.351 . S
C1150 C1144 1.428 . S
C1150 N1149 1.351 . S
C1150 C1151 1.434 . S
C1151 C1142 1.429 . S
C1151 N1148 1.350 . S
C1151 C1150 1.434 . S
C449 C119 1.514 . S
C451 C7 1.515 . S
C460 C357 1.519 . S
C462 C21 1.512 . S
C471 C147 1.519 . S
C473 C35 1.512 . S
C482 C385 1.512 . S
C484 C49 1.517 . S
C493 C175 1.511 . S
C495 C63 1.517 . S
C504 C77 1.519 . S
C506 C413 1.511 . S
C515 C91 1.517 . S
C517 C203 1.513 . S
C526 C105 1.510 . S
C528 C441 1.518 . S
C537 C245 1.511 . S
C539 C133 1.518 . S
C548 C273 1.511 . S
C550 C161 1.518 . S
C559 C189 1.511 . S
C561 C301 1.518 . S
C570 C217 1.518 . S
C572 C329 1.512 . S
C581 C231 1.513 . S
C583 C343 1.515 . S
C592 C371 1.518 . S
C594 C259 1.512 . S
C603 C287 1.519 . S
C605 C399 1.511 . S
C614 C427 1.511 . S
C616 C315 1.518 . S
C625 C261 1.587 . S
C627 C9 1.588 . S
C636 C275 1.587 . S
C638 C23 1.588 . S
C647 C37 1.587 . S
C649 C233 1.587 . S
C658 C51 1.588 . S
C660 C247 1.588 . S
C669 C317 1.590 . S
C671 C65 1.590 . S
C680 C79 1.588 . S
C682 C331 1.588 . S
C691 C289 1.587 . S
C693 C93 1.587 . S
C702 C303 1.590 . S
C704 C107 1.590 . S
C713 C121 1.587 . S
C715 C373 1.587 . S
C724 C387 1.588 . S
C726 C135 1.589 . S
C735 C149 1.588 . S
C737 C345 1.587 . S
C746 C163 1.590 . S
C748 C359 1.589 . S
C757 C177 1.590 . S
C759 C429 1.590 . S
C768 C191 1.587 . S
C770 C443 1.587 . S
C779 C401 1.590 . S
C781 C205 1.590 . S
C790 C415 1.589 . S
C792 C219 1.588 . S
C801 C92 1.525 . S
C803 C8 1.526 . S
C812 C106 1.523 . S
C814 C22 1.523 . S
C823 C64 1.523 . S
C825 C36 1.523 . S
C834 C50 1.526 . S
C836 C78 1.526 . S
C845 C204 1.523 . S
C847 C120 1.524 . S
C856 C218 1.523 . S
C858 C134 1.524 . S
C867 C176 1.523 . S
C869 C148 1.523 . S
C878 C190 1.525 . S
C880 C162 1.525 . S
C889 C316 1.523 . S
C891 C232 1.523 . S
C900 C330 1.523 . S
C902 C246 1.523 . S
C911 C260 1.523 . S
C913 C288 1.524 . S
C922 C274 1.524 . S
C924 C302 1.525 . S
C933 C428 1.525 . S
C935 C344 1.524 . S
C944 C442 1.526 . S
C946 C358 1.525 . S
C955 C372 1.523 . S
C957 C400 1.523 . S
C966 C386 1.525 . S
C968 C414 1.524 . S
C977 C3 1.429 . S
C979 C297 1.431 . S
C988 C311 1.429 . S
C990 C17 1.432 . S
C999 C325 1.431 . S
C1001 C31 1.429 . S
C1010 C45 1.430 . S
C1012 C283 1.432 . S
C1021 C269 1.430 . S
C1023 C59 1.429 . S
C1032 C73 1.431 . S
C1034 C227 1.432 . S
C1043 C241 1.430 . S
C1045 C87 1.432 . S
C1054 C101 1.431 . S
C1056 C255 1.432 . S
C1065 C409 1.431 . S
C1067 C115 1.429 . S
C1076 C423 1.429 . S
C1078 C129 1.430 . S
C1087 C143 1.430 . S
C1089 C437 1.432 . S
C1098 C395 1.431 . S
C1100 C157 1.429 . S
C1109 C381 1.431 . S
C1111 C171 1.432 . S
C1120 C185 1.429 . S
C1122 C339 1.431 . S
C1131 C353 1.431 . S
C1133 C199 1.429 . S
C1142 C213 1.431 . S
C1144 C367 1.432 . S
