# Generated by pormake.
# Topology atn, (4)-cn, num edge types: 1
# Building blocks:
#     Node 0, Type 0, BuildingBlock: TATPOV_clean_sbu_0, # of connection points: 4
#     Node 1, Type 0, BuildingBlock: TATPOV_clean_sbu_0, # of connection points: 4
#     Node 2, Type 0, BuildingBlock: TATPOV_clean_sbu_0, # of connection points: 4
#     Node 3, Type 0, BuildingBlock: TATPOV_clean_sbu_0, # of connection points: 4
#     Node 4, Type 0, BuildingBlock: TATPOV_clean_sbu_0, # of connection points: 4
#     Node 5, Type 0, BuildingBlock: TATPOV_clean_sbu_0, # of connection points: 4
#     Node 6, Type 0, BuildingBlock: TATPOV_clean_sbu_0, # of connection points: 4
#     Node 7, Type 0, BuildingBlock: TATPOV_clean_sbu_0, # of connection points: 4
#     Node 8, Type 0, BuildingBlock: TATPOV_clean_sbu_0, # of connection points: 4
#     Node 9, Type 0, BuildingBlock: TATPOV_clean_sbu_0, # of connection points: 4
#     Node 10, Type 0, BuildingBlock: TATPOV_clean_sbu_0, # of connection points: 4
#     Node 11, Type 0, BuildingBlock: TATPOV_clean_sbu_0, # of connection points: 4
#     Node 12, Type 0, BuildingBlock: TATPOV_clean_sbu_0, # of connection points: 4
#     Node 13, Type 0, BuildingBlock: TATPOV_clean_sbu_0, # of connection points: 4
#     Node 14, Type 0, BuildingBlock: TATPOV_clean_sbu_0, # of connection points: 4
#     Node 15, Type 0, BuildingBlock: TATPOV_clean_sbu_0, # of connection points: 4
#     Edge 16, Type (0, 0), BuildingBlock: UVAHIK_clean_linker_0, # of connection points: 2
#     Edge 17, Type (0, 0), BuildingBlock: UVAHIK_clean_linker_0, # of connection points: 2
#     Edge 18, Type (0, 0), BuildingBlock: UVAHIK_clean_linker_0, # of connection points: 2
#     Edge 19, Type (0, 0), BuildingBlock: UVAHIK_clean_linker_0, # of connection points: 2
#     Edge 20, Type (0, 0), BuildingBlock: UVAHIK_clean_linker_0, # of connection points: 2
#     Edge 21, Type (0, 0), BuildingBlock: UVAHIK_clean_linker_0, # of connection points: 2
#     Edge 22, Type (0, 0), BuildingBlock: UVAHIK_clean_linker_0, # of connection points: 2
#     Edge 23, Type (0, 0), BuildingBlock: UVAHIK_clean_linker_0, # of connection points: 2
#     Edge 24, Type (0, 0), BuildingBlock: UVAHIK_clean_linker_0, # of connection points: 2
#     Edge 25, Type (0, 0), BuildingBlock: UVAHIK_clean_linker_0, # of connection points: 2
#     Edge 26, Type (0, 0), BuildingBlock: UVAHIK_clean_linker_0, # of connection points: 2
#     Edge 27, Type (0, 0), BuildingBlock: UVAHIK_clean_linker_0, # of connection points: 2
#     Edge 28, Type (0, 0), BuildingBlock: UVAHIK_clean_linker_0, # of connection points: 2
#     Edge 29, Type (0, 0), BuildingBlock: UVAHIK_clean_linker_0, # of connection points: 2
#     Edge 30, Type (0, 0), BuildingBlock: UVAHIK_clean_linker_0, # of connection points: 2
#     Edge 31, Type (0, 0), BuildingBlock: UVAHIK_clean_linker_0, # of connection points: 2
#     Edge 32, Type (0, 0), BuildingBlock: UVAHIK_clean_linker_0, # of connection points: 2
#     Edge 33, Type (0, 0), BuildingBlock: UVAHIK_clean_linker_0, # of connection points: 2
#     Edge 34, Type (0, 0), BuildingBlock: UVAHIK_clean_linker_0, # of connection points: 2
#     Edge 35, Type (0, 0), BuildingBlock: UVAHIK_clean_linker_0, # of connection points: 2
#     Edge 36, Type (0, 0), BuildingBlock: UVAHIK_clean_linker_0, # of connection points: 2
#     Edge 37, Type (0, 0), BuildingBlock: UVAHIK_clean_linker_0, # of connection points: 2
#     Edge 38, Type (0, 0), BuildingBlock: UVAHIK_clean_linker_0, # of connection points: 2
#     Edge 39, Type (0, 0), BuildingBlock: UVAHIK_clean_linker_0, # of connection points: 2
#     Edge 40, Type (0, 0), BuildingBlock: UVAHIK_clean_linker_0, # of connection points: 2
#     Edge 41, Type (0, 0), BuildingBlock: UVAHIK_clean_linker_0, # of connection points: 2
#     Edge 42, Type (0, 0), BuildingBlock: UVAHIK_clean_linker_0, # of connection points: 2
#     Edge 43, Type (0, 0), BuildingBlock: UVAHIK_clean_linker_0, # of connection points: 2
#     Edge 44, Type (0, 0), BuildingBlock: UVAHIK_clean_linker_0, # of connection points: 2
#     Edge 45, Type (0, 0), BuildingBlock: UVAHIK_clean_linker_0, # of connection points: 2
#     Edge 46, Type (0, 0), BuildingBlock: UVAHIK_clean_linker_0, # of connection points: 2
#     Edge 47, Type (0, 0), BuildingBlock: UVAHIK_clean_linker_0, # of connection points: 2
# Relax obj value: 0.076
# Max RMSD: 0.103
# Mean RMSD: 0.103
data_MOF--net-atn--node1-TATPOV_clean_sbu_0--edge1-UVAHIK_clean_linker_0
_symmetry_space_group_name_H-M    P1
_symmetry_Int_Tables_number       1
_symmetry_cell_setting            triclinic
loop_
_symmetry_equiv_pos_as_xyz
'x, y, z'
_cell_length_a     79.10346
_cell_length_b     79.096218
_cell_length_c     33.951028
_cell_angle_alpha  90.082089
_cell_angle_beta   90.112527
_cell_angle_gamma 90.009436
loop_
_atom_site_label
_atom_site_type_symbol
_atom_site_fract_x
_atom_site_fract_y
_atom_site_fract_z
_atom_type_partial_charge
Zn0 Zn 0.19261 0.34271 0.00024 0.0
Zn1 Zn 0.20304 0.37486 -0.00192 0.0
O2 O 0.1863 0.37319 0.9513 0.0
O3 O 0.1769 0.34706 0.95546 0.0
O4 O 0.21007 0.39933 -0.00149 0.0
O5 O 0.18362 0.34595 0.05476 0.0
O6 O 0.19163 0.37259 0.05214 0.0
C7 C 0.17663 0.36139 0.93902 0.0
C8 C 0.22846 0.34596 0.98766 0.0
O9 O 0.22547 0.36172 -0.00865 0.0
O10 O 0.21652 0.33533 0.98968 0.0
C11 C 0.21127 0.40832 0.96763 0.0
O12 O 0.20838 0.40138 0.93309 0.0
C13 C 0.18444 0.36048 0.07027 0.0
Zn14 Zn 0.6582 0.19998 0.02157 0.0
Zn15 Zn 0.6251 0.20319 0.00984 0.0
O16 O 0.63259 0.19163 0.9586 0.0
O17 O 0.66016 0.19015 0.96707 0.0
O18 O 0.59993 0.20553 0.0047 0.0
O19 O 0.65436 0.18419 0.0665 0.0
O20 O 0.62699 0.18764 0.05841 0.0
C21 C 0.64718 0.1874 0.94612 0.0
C22 C 0.64744 0.23442 0.02484 0.0
O23 O 0.63324 0.22793 0.01548 0.0
O24 O 0.66014 0.22503 0.03079 0.0
C25 C 0.59262 0.21475 0.97923 0.0
O26 O 0.60178 0.22321 0.95375 0.0
C27 C 0.63935 0.1809 0.07669 0.0
Zn28 Zn 0.79974 0.65915 0.96108 0.0
Zn29 Zn 0.79239 0.6268 0.97543 0.0
O30 O 0.81102 0.62565 0.93258 0.0
O31 O 0.81736 0.65236 0.92233 0.0
O32 O 0.78736 0.60223 0.98561 0.0
O33 O 0.80679 0.6622 0.01748 0.0
O34 O 0.80096 0.63542 0.02902 0.0
C35 C 0.81985 0.63686 0.91518 0.0
C36 C 0.76489 0.65119 0.94615 0.0
O37 O 0.76923 0.63665 0.95876 0.0
O38 O 0.77573 0.66291 0.94344 0.0
C39 C 0.78511 0.59218 0.95683 0.0
O40 O 0.78575 0.59815 0.92077 0.0
C41 C 0.80631 0.64976 0.04084 0.0
Zn42 Zn 0.34408 0.79477 0.98949 0.0
Zn43 Zn 0.37719 0.79186 -0.00928 0.0
O44 O 0.37296 0.80425 0.93807 0.0
O45 O 0.34516 0.80428 0.93508 0.0
O46 O 0.40251 0.79004 -0.0057 0.0
O47 O 0.34434 0.81078 0.03481 0.0
O48 O 0.37174 0.80652 0.03959 0.0
C49 C 0.35931 0.80799 0.92002 0.0
C50 C 0.35452 0.76054 -0.00169 0.0
O51 O 0.36917 0.76687 -0.00672 0.0
O52 O 0.34162 0.76996 -0.0006 0.0
C53 C 0.41132 0.78089 0.97137 0.0
O54 O 0.40375 0.77223 0.94339 0.0
C55 C 0.35824 0.81345 0.0522 0.0
Zn56 Zn 0.20173 0.65609 -0.00747 0.0
Zn57 Zn 0.20674 0.62296 0.98465 0.0
O58 O 0.19232 0.62466 0.03544 0.0
O59 O 0.18752 0.65202 0.03979 0.0
O60 O 0.21028 0.59793 0.97832 0.0
O61 O 0.18972 0.65676 0.94061 0.0
O62 O 0.19342 0.62926 0.93459 0.0
C63 C 0.18533 0.63718 0.05262 0.0
C64 C 0.23681 0.64717 -0.00508 0.0
O65 O 0.23112 0.63235 0.98844 0.0
O66 O 0.22677 0.65954 -0.00155 0.0
C67 C 0.21572 0.58906 0.00684 0.0
O68 O 0.21919 0.59649 0.04054 0.0
C69 C 0.18741 0.64315 0.92176 0.0
Zn70 Zn 0.34793 0.18804 0.97739 0.0
Zn71 Zn 0.37906 0.19975 0.99032 0.0
O72 O 0.37397 0.18508 0.0392 0.0
O73 O 0.34788 0.17624 0.0292 0.0
O74 O 0.40309 0.20701 -0.00068 0.0
O75 O 0.35609 0.17465 0.9315 0.0
O76 O 0.38123 0.18634 0.93833 0.0
C77 C 0.36114 0.17653 0.05005 0.0
C78 C 0.35013 0.22459 0.97687 0.0
O79 O 0.36554 0.22199 0.98603 0.0
O80 O 0.34026 0.21222 0.9709 0.0
C81 C 0.4109 0.21558 0.97347 0.0
O82 O 0.40273 0.22053 0.9418 0.0
C83 C 0.37116 0.1765 0.92008 0.0
Zn84 Zn 0.79314 0.34508 -0.00529 0.0
Zn85 Zn 0.78807 0.37776 0.98949 0.0
O86 O 0.79885 0.37503 0.04447 0.0
O87 O 0.79853 0.34739 0.05217 0.0
O88 O 0.78465 0.40291 0.98433 0.0
O89 O 0.81199 0.34623 0.95544 0.0
O90 O 0.80425 0.37247 0.9435 0.0
C91 C 0.80136 0.36202 0.06578 0.0
C92 C 0.75878 0.35302 0.97732 0.0
O93 O 0.76389 0.36802 0.98417 0.0
O94 O 0.76921 0.34087 0.97707 0.0
C95 C 0.78011 0.41211 0.01316 0.0
O96 O 0.7773 0.40505 0.04752 0.0
C97 C 0.81344 0.35967 0.93561 0.0
Zn98 Zn 0.65851 0.80289 0.97762 0.0
Zn99 Zn 0.62594 0.79731 0.98574 0.0
O100 O 0.63312 0.80486 0.04158 0.0
O101 O 0.66081 0.8061 0.03586 0.0
O102 O 0.60072 0.79442 0.98919 0.0
O103 O 0.65439 0.82338 0.94439 0.0
O104 O 0.62754 0.81608 0.94364 0.0
C105 C 0.64766 0.80733 0.05685 0.0
C106 C 0.64907 0.76927 0.95519 0.0
O107 O 0.63481 0.77375 0.96912 0.0
O108 O 0.66108 0.77981 0.95313 0.0
C109 C 0.59303 0.78166 0.00316 0.0
O110 O 0.60183 0.76903 0.01769 0.0
C111 C 0.63945 0.82575 0.9323 0.0
Zn112 Zn 0.69561 0.84241 0.53223 0.0
Zn113 Zn 0.70635 0.87346 0.5159 0.0
O114 O 0.69543 0.86567 0.46362 0.0
O115 O 0.68829 0.83933 0.47618 0.0
O116 O 0.71362 0.89746 0.50582 0.0
O117 O 0.67884 0.85139 0.57101 0.0
O118 O 0.68966 0.87671 0.56197 0.0
C119 C 0.68906 0.85164 0.45248 0.0
C120 C 0.7314 0.84656 0.54408 0.0
O121 O 0.72861 0.86121 0.52989 0.0
O122 O 0.71927 0.83638 0.54949 0.0
C123 C 0.70311 0.90779 0.4909 0.0
O124 O 0.68804 0.90229 0.48075 0.0
C125 C 0.67928 0.86697 0.57945 0.0
Zn126 Zn 0.15159 0.69948 0.4903 0.0
Zn127 Zn 0.1189 0.70488 0.48315 0.0
O128 O 0.12494 0.69128 0.43313 0.0
O129 O 0.1527 0.68996 0.43583 0.0
O130 O 0.09377 0.70828 0.4785 0.0
O131 O 0.14766 0.68351 0.53493 0.0
O132 O 0.12087 0.69105 0.53443 0.0
C133 C 0.13899 0.68672 0.41814 0.0
C134 C 0.14304 0.73457 0.49617 0.0
O135 O 0.12837 0.72926 0.48674 0.0
O136 O 0.15505 0.72422 0.50122 0.0
C137 C 0.08582 0.71511 0.50688 0.0
O138 O 0.09435 0.72018 0.53799 0.0
C139 C 0.13302 0.68276 0.54974 0.0
Zn140 Zn 0.30125 0.15655 0.48525 0.0
Zn141 Zn 0.29342 0.12376 0.49237 0.0
O142 O 0.30746 0.12445 0.44139 0.0
O143 O 0.31574 0.15101 0.43876 0.0
O144 O 0.28836 0.09902 0.49911 0.0
O145 O 0.31233 0.15651 0.53839 0.0
O146 O 0.30751 0.12914 0.54169 0.0
C147 C 0.31599 0.13614 0.425 0.0
C148 C 0.26543 0.15005 0.4814 0.0
O149 O 0.26986 0.13489 0.48867 0.0
O150 O 0.27648 0.16153 0.47767 0.0
C151 C 0.28386 0.08986 0.47015 0.0
O152 O 0.28204 0.09683 0.43529 0.0
C153 C 0.31405 0.14253 0.55604 0.0
Zn154 Zn 0.84014 0.29942 0.49182 0.0
Zn155 Zn 0.87315 0.29346 0.48977 0.0
O156 O 0.86972 0.31015 0.44341 0.0
O157 O 0.84295 0.3172 0.45075 0.0
O158 O 0.89834 0.29017 0.49156 0.0
O159 O 0.84124 0.30701 0.54795 0.0
O160 O 0.86885 0.30384 0.54455 0.0
C161 C 0.85697 0.31906 0.43348 0.0
C162 C 0.84824 0.26465 0.47466 0.0
O163 O 0.86337 0.26952 0.48083 0.0
O164 O 0.83614 0.27512 0.4763 0.0
C165 C 0.90669 0.27987 0.47044 0.0
O166 O 0.89869 0.27033 0.44476 0.0
C167 C 0.85573 0.30844 0.56345 0.0
Zn168 Zn 0.70008 0.15473 0.48026 0.0
Zn169 Zn 0.70502 0.12189 0.48716 0.0
O170 O 0.69651 0.12828 0.54252 0.0
O171 O 0.69434 0.15594 0.53761 0.0
O172 O 0.70747 0.09659 0.48872 0.0
O173 O 0.68136 0.15156 0.44157 0.0
O174 O 0.68681 0.12433 0.44372 0.0
C175 C 0.69305 0.14258 0.55787 0.0
C176 C 0.73414 0.14527 0.46293 0.0
O177 O 0.72907 0.13071 0.47387 0.0
O178 O 0.72391 0.15756 0.46145 0.0
C179 C 0.71953 0.08836 0.50432 0.0
O180 O 0.73182 0.09657 0.52207 0.0
C181 C 0.67833 0.13668 0.42988 0.0
Zn182 Zn 0.83865 0.68843 0.52197 0.0
Zn183 Zn 0.87112 0.69613 0.51092 0.0
O184 O 0.87177 0.67728 0.55333 0.0
O185 O 0.84499 0.67035 0.56001 0.0
O186 O 0.89578 0.70118 0.50268 0.0
O187 O 0.83632 0.6822 0.46493 0.0
O188 O 0.86323 0.68829 0.45612 0.0
C189 C 0.86036 0.66809 0.56895 0.0
C190 C 0.84629 0.72317 0.53983 0.0
O191 O 0.86102 0.71907 0.52806 0.0
O192 O 0.83461 0.71223 0.54097 0.0
C193 C 0.90461 0.70761 0.53019 0.0
O194 O 0.89732 0.71123 0.56392 0.0
C195 C 0.84909 0.68312 0.44265 0.0
Zn196 Zn 0.29324 0.84145 0.49761 0.0
Zn197 Zn 0.2892 0.87461 0.49406 0.0
O198 O 0.30496 0.87167 0.54231 0.0
O199 O 0.30994 0.8443 0.54128 0.0
O200 O 0.2861 0.89978 0.48973 0.0
O201 O 0.30193 0.84099 0.44219 0.0
O202 O 0.30095 0.86879 0.44181 0.0
C203 C 0.31258 0.85875 0.55608 0.0
C204 C 0.25881 0.8511 0.50756 0.0
O205 O 0.26466 0.86576 0.50007 0.0
O206 O 0.26862 0.83851 0.50982 0.0
C207 C 0.28426 0.90929 0.51962 0.0
O208 O 0.28428 0.90255 0.55497 0.0
C209 C 0.3049 0.8549 0.42516 0.0
Zn210 Zn 0.15407 0.30029 0.50036 0.0
Zn211 Zn 0.12143 0.29506 0.49719 0.0
O212 O 0.1247 0.30625 0.5516 0.0
O213 O 0.15241 0.30658 0.55721 0.0
O214 O 0.09628 0.29197 0.4929 0.0
O215 O 0.15255 0.31886 0.46062 0.0
O216 O 0.12606 0.31132 0.45105 0.0
C217 C 0.13796 0.30949 0.57162 0.0
C218 C 0.14607 0.26589 0.48345 0.0
O219 O 0.13107 0.27085 0.49082 0.0
O220 O 0.15817 0.27635 0.48326 0.0
C221 C 0.08799 0.28053 0.51064 0.0
O222 O 0.09602 0.26988 0.53369 0.0
C223 C 0.13876 0.32044 0.44209 0.0
C224 C 0.21455 0.56267 0.96597 0.0
C225 C 0.21756 0.57053 0.00249 0.0
C226 C 0.2157 0.54511 0.9622 0.0
C227 C 0.21266 0.50619 0.02044 0.0
H228 H 0.2332 0.48517 0.92902 0.0
C229 C 0.21858 0.4339 0.00774 0.0
C230 C 0.21465 0.42667 0.971 0.0
C231 C 0.22061 0.45137 0.01156 0.0
C232 C 0.22729 0.49085 0.95457 0.0
H233 H 0.22444 0.56613 0.06352 0.0
H234 H 0.22644 0.53548 0.05687 0.0
H235 H 0.23359 0.51591 0.93574 0.0
H236 H 0.21017 0.4321 0.90925 0.0
H237 H 0.21342 0.46261 0.91604 0.0
H238 H 0.20604 0.48125 0.03897 0.0
C239 C 0.22306 0.5429 0.03126 0.0
C240 C 0.22754 0.50845 0.95842 0.0
C241 C 0.22199 0.56047 0.035 0.0
C242 C 0.21323 0.43726 0.93796 0.0
C243 C 0.21518 0.45476 0.94182 0.0
C244 C 0.21236 0.48862 0.01651 0.0
C245 C 0.21981 0.53502 -0.00511 0.0
C246 C 0.22015 0.51631 -0.00867 0.0
C247 C 0.21867 0.46204 0.97878 0.0
C248 C 0.2196 0.48072 0.98346 0.0
H249 H 0.21113 0.57005 0.94032 0.0
H250 H 0.21296 0.5394 0.93388 0.0
H251 H 0.20663 0.51187 0.04581 0.0
H252 H 0.2199 0.42609 0.03374 0.0
H253 H 0.22361 0.45651 0.04031 0.0
C254 C 0.43832 0.22685 0.9474 0.0
C255 C 0.42937 0.21822 0.97693 0.0
C256 C 0.45597 0.22785 0.94875 0.0
C257 C 0.49239 0.20479 0.98834 0.0
H258 H 0.51777 0.24516 0.96207 0.0
C259 C 0.56441 0.20789 0.00822 0.0
C260 C 0.57395 0.216 0.97892 0.0
C261 C 0.54681 0.20894 0.00818 0.0
C262 C 0.51086 0.23373 0.96903 0.0
H263 H 0.43191 0.2045 0.03196 0.0
H264 H 0.46263 0.2063 0.03431 0.0
H265 H 0.48687 0.24606 0.9625 0.0
H266 H 0.57244 0.23168 0.92667 0.0
H267 H 0.5416 0.23328 0.92622 0.0
H268 H 0.51622 0.19235 -0.00562 0.0
C269 C 0.45602 0.2121 0.00984 0.0
C270 C 0.49318 0.23427 0.96937 0.0
C271 C 0.4384 0.21116 0.00859 0.0
C272 C 0.56546 0.22529 0.94967 0.0
C273 C 0.5478 0.2263 0.94956 0.0
C274 C 0.51002 0.20423 0.98783 0.0
C275 C 0.46501 0.22017 0.97956 0.0
C276 C 0.48377 0.21981 0.97926 0.0
C277 C 0.53827 0.21805 0.97874 0.0
C278 C 0.51948 0.21871 0.9784 0.0
H279 H 0.43174 0.23246 0.92265 0.0
H280 H 0.46255 0.23409 0.9249 0.0
H281 H 0.4855 0.19334 -0.00474 0.0
H282 H 0.57053 0.20073 0.03138 0.0
H283 H 0.53989 0.20269 0.03151 0.0
C284 C 0.78016 0.43805 0.97087 0.0
C285 C 0.77861 0.43065 0.00831 0.0
C286 C 0.77928 0.45559 0.96641 0.0
C287 C 0.78591 0.49514 0.02069 0.0
H288 H 0.76115 0.51527 0.93392 0.0
C289 C 0.78087 0.56753 0.00217 0.0
C290 C 0.78252 0.57388 0.96373 0.0
C291 C 0.77904 0.55017 0.00864 0.0
C292 C 0.76826 0.50985 0.95809 0.0
H293 H 0.7747 0.43588 0.07039 0.0
H294 H 0.77323 0.46652 0.06254 0.0
H295 H 0.76046 0.4847 0.94322 0.0
H296 H 0.78339 0.56698 0.9019 0.0
H297 H 0.78053 0.53675 0.91318 0.0
H298 H 0.79404 0.52018 0.03512 0.0
C299 C 0.77521 0.45873 0.0367 0.0
C300 C 0.76783 0.49234 0.96345 0.0
C301 C 0.77597 0.44117 0.04114 0.0
C302 C 0.78209 0.56252 0.93188 0.0
C303 C 0.78034 0.54517 0.93835 0.0
C304 C 0.78642 0.51264 0.01522 0.0
C305 C 0.77693 0.46612 -0.0007 0.0
C306 C 0.77674 0.48478 -0.00536 0.0
C307 C 0.7789 0.53875 0.97682 0.0
C308 C 0.77771 0.52021 0.98367 0.0
H309 H 0.78219 0.43031 0.94496 0.0
H310 H 0.78083 0.46092 0.93727 0.0
H311 H 0.79309 0.48967 0.0447 0.0
H312 H 0.78106 0.57595 0.02735 0.0
H313 H 0.7777 0.5457 0.03861 0.0
C314 C 0.56513 0.79435 0.98488 0.0
C315 C 0.57432 0.78102 0.00199 0.0
C316 C 0.54752 0.79379 0.98309 0.0
C317 C 0.51124 0.76448 0.98647 0.0
H318 H 0.48592 0.80571 0.00483 0.0
C319 C 0.43996 0.77076 0.95004 0.0
C320 C 0.42991 0.7801 0.97635 0.0
C321 C 0.45754 0.77027 0.95458 0.0
C322 C 0.49276 0.79403 -2e-05 0.0
H323 H 0.57214 0.75666 0.03077 0.0
H324 H 0.54127 0.75578 0.02804 0.0
H325 H 0.51654 0.80593 0.01142 0.0
H326 H 0.43044 0.79598 0.02853 0.0
H327 H 0.46098 0.79495 0.03667 0.0
H328 H 0.48737 0.75254 0.97563 0.0
C329 C 0.54777 0.76657 0.01558 0.0
C330 C 0.51035 0.79421 0.0033 0.0
C331 C 0.56545 0.76712 0.01735 0.0
C332 C 0.4378 0.78876 0.00754 0.0
C333 C 0.45534 0.78824 0.01212 0.0
C334 C 0.49361 0.7643 0.98316 0.0
C335 C 0.5386 0.77992 -0.00156 0.0
C336 C 0.51983 0.77947 -0.00367 0.0
C337 C 0.46544 0.77909 0.98556 0.0
C338 C 0.48417 0.7791 0.98973 0.0
H339 H 0.57155 0.80522 0.97255 0.0
H340 H 0.54089 0.80416 0.9691 0.0
H341 H 0.51817 0.75294 0.98058 0.0
H342 H 0.43428 0.76396 0.92567 0.0
H343 H 0.46496 0.76327 0.93333 0.0
C344 C 0.7067 0.06115 0.48149 0.0
C345 C 0.71971 0.06966 0.50164 0.0
C346 C 0.70677 0.04356 0.47843 0.0
C347 C 0.72371 0.00513 0.52506 0.0
H348 H 0.70919 0.98405 0.42746 0.0
C349 C 0.72217 0.93249 0.50465 0.0
C350 C 0.70725 0.926 0.48782 0.0
C351 C 0.72542 0.94987 0.50419 0.0
C352 C 0.7132 0.98975 0.45497 0.0
H353 H 0.74302 0.06631 0.53445 0.0
H354 H 0.74317 0.03548 0.52895 0.0
H355 H 0.71175 0.01473 0.43115 0.0
H356 H 0.68431 0.93262 0.45634 0.0
H357 H 0.68997 0.96288 0.45556 0.0
H358 H 0.72494 0.98012 0.54898 0.0
C359 C 0.73285 0.04248 0.51576 0.0
C360 C 0.71465 0.00732 0.45711 0.0
C361 C 0.7328 0.06014 0.51877 0.0
C362 C 0.69591 0.9372 0.46959 0.0
C363 C 0.6992 0.95455 0.46894 0.0
C364 C 0.72229 0.98753 0.52289 0.0
C365 C 0.71985 0.034 0.49544 0.0
C366 C 0.71964 0.01525 0.49238 0.0
C367 C 0.71389 0.96111 0.48664 0.0
C368 C 0.71675 0.97966 0.48799 0.0
H369 H 0.69638 0.06806 0.46802 0.0
H370 H 0.6964 0.03742 0.46319 0.0
H371 H 0.72742 0.01084 0.55278 0.0
H372 H 0.73118 0.92419 0.5189 0.0
H373 H 0.73693 0.95453 0.5177 0.0
C374 C 0.93283 0.71722 0.5554 0.0
C375 C 0.92299 0.71031 0.52485 0.0
C376 C 0.9503 0.7191 0.55097 0.0
C377 C 0.98619 0.702 0.49483 0.0
H378 H 0.0098 0.74145 0.53475 0.0
C379 C 0.05794 0.71071 0.47309 0.0
C380 C 0.06716 0.71644 0.50594 0.0
C381 C 0.04027 0.71114 0.47314 0.0
C382 C 0.0034 0.73029 0.52373 0.0
H383 H 0.92374 0.70031 0.46532 0.0
H384 H 0.95418 0.70369 0.45756 0.0
H385 H 0.97903 0.74006 0.53904 0.0
H386 H 0.06503 0.72745 0.56429 0.0
H387 H 0.03425 0.72802 0.56455 0.0
H388 H 0.01052 0.6921 0.48004 0.0
C389 C 0.94842 0.70746 0.48512 0.0
C390 C 0.98578 0.7295 0.52618 0.0
C391 C 0.93095 0.7056 0.48952 0.0
C392 C 0.05832 0.72295 0.53848 0.0
C393 C 0.04066 0.72337 0.53854 0.0
C394 C 0.0038 0.70278 0.49244 0.0
C395 C 0.95831 0.71409 0.51591 0.0
C396 C 0.97698 0.7153 0.51198 0.0
C397 C 0.03142 0.71731 0.50604 0.0
C398 C 0.01263 0.71688 0.50707 0.0
H399 H 0.9271 0.72097 0.58301 0.0
H400 H 0.95758 0.72409 0.57541 0.0
H401 H 0.97982 0.69076 0.48418 0.0
H402 H 0.06436 0.7057 0.44745 0.0
H403 H 0.03355 0.70661 0.44739 0.0
C404 C 0.27887 0.0609 0.44246 0.0
C405 C 0.28168 0.0714 0.47525 0.0
C406 C 0.27779 0.04337 0.44701 0.0
C407 C 0.27023 0.00973 0.52012 0.0
H408 H 0.29593 0.98195 0.44757 0.0
C409 C 0.28261 0.93865 0.54733 0.0
C410 C 0.28253 0.92779 0.51453 0.0
C411 C 0.2815 0.95616 0.54232 0.0
C412 C 0.28847 0.98948 0.46774 0.0
H413 H 0.2851 0.07177 0.53869 0.0
H414 H 0.28321 0.04119 0.54655 0.0
H415 H 0.29542 0.0125 0.43899 0.0
H416 H 0.28081 0.92679 0.45077 0.0
H417 H 0.27857 0.95725 0.4421 0.0
H418 H 0.26326 0.9867 0.54888 0.0
C419 C 0.28178 0.04652 0.51736 0.0
C420 C 0.2882 0.007 0.46283 0.0
C421 C 0.28295 0.06404 0.5128 0.0
C422 C 0.28104 0.9348 0.47667 0.0
C423 C 0.27984 0.95229 0.47167 0.0
C424 C 0.27043 0.99218 0.52493 0.0
C425 C 0.27939 0.03599 0.48446 0.0
C426 C 0.27914 0.01733 0.48905 0.0
C427 C 0.28021 0.9632 0.5044 0.0
C428 C 0.27962 0.98184 0.4989 0.0
H429 H 0.27779 0.06617 0.41313 0.0
H430 H 0.27574 0.03559 0.42116 0.0
H431 H 0.26297 0.01735 0.54053 0.0
H432 H 0.28379 0.93366 0.5769 0.0
H433 H 0.28204 0.96419 0.56815 0.0
C434 C 0.06101 0.29087 0.48054 0.0
C435 C 0.06942 0.27946 0.50551 0.0
C436 C 0.04349 0.29019 0.47611 0.0
C437 C 0.00632 0.26253 0.48927 0.0
H438 H 0.98188 0.30503 0.48875 0.0
C439 C 0.93489 0.26772 0.45157 0.0
C440 C 0.92529 0.27891 0.47471 0.0
C441 C 0.9525 0.26716 0.45537 0.0
C442 C 0.9885 0.29304 0.48909 0.0
H443 H 0.066 0.2582 0.54501 0.0
H444 H 0.03529 0.25712 0.53752 0.0
H445 H 0.0125 0.30513 0.49575 0.0
H446 H 0.92668 0.29806 0.52049 0.0
H447 H 0.95726 0.29698 0.52721 0.0
H448 H 0.98219 0.25046 0.48327 0.0
C449 C 0.04233 0.2665 0.5211 0.0
C450 C 0.00607 0.2931 0.49265 0.0
C451 C 0.05991 0.26719 0.52556 0.0
C452 C 0.93367 0.28936 0.502 0.0
C453 C 0.95123 0.28881 0.50574 0.0
C454 C 0.9887 0.26246 0.4856 0.0
C455 C 0.03391 0.27809 0.49654 0.0
C456 C 0.0152 0.27786 0.49278 0.0
C457 C 0.96087 0.27781 0.4823 0.0
C458 C 0.97959 0.27773 0.48561 0.0
H459 H 0.06795 0.30042 0.46443 0.0
H460 H 0.03743 0.29912 0.45649 0.0
H461 H 0.01301 0.25058 0.48895 0.0
H462 H 0.92882 0.25949 0.43029 0.0
H463 H 0.9596 0.25864 0.43666 0.0
C464 C 0.25997 0.34737 -0.00253 0.0
C465 C 0.24573 0.3397 0.98023 0.0
C466 C 0.27601 0.33998 -0.00669 0.0
C467 C 0.30005 0.30943 0.93319 0.0
H468 H 0.31995 0.29378 0.03104 0.0
C469 C 0.32903 0.24463 0.94924 0.0
C470 C 0.34343 0.24194 0.97261 0.0
C471 C 0.32177 0.26061 0.94657 0.0
C472 C 0.3149 0.29841 0.00341 0.0
H473 H 0.23711 0.31898 0.94348 0.0
H474 H 0.26493 0.30644 0.93541 0.0
H475 H 0.29819 0.31577 0.03242 0.0
H476 H 0.36182 0.254 0.01084 0.0
H477 H 0.34871 0.28217 0.00696 0.0
H478 H 0.3159 0.29136 0.90432 0.0
C479 C 0.26382 0.318 0.95237 0.0
C480 C 0.30245 0.311 0.00421 0.0
C481 C 0.24787 0.3251 0.95726 0.0
C482 C 0.35071 0.25574 -0.00742 0.0
C483 C 0.34322 0.2718 0.99043 0.0
C484 C 0.31248 0.29693 0.93237 0.0
C485 C 0.27801 0.32515 0.97089 0.0
C486 C 0.2943 0.31594 0.96925 0.0
C487 C 0.32861 0.27433 0.96753 0.0
C488 C 0.31935 0.29064 0.96763 0.0
H489 H 0.25861 0.3586 0.01546 0.0
H490 H 0.28677 0.34567 0.008 0.0
H491 H 0.29411 0.3132 0.90578 0.0
H492 H 0.32318 0.23429 0.93329 0.0
H493 H 0.31036 0.26207 0.92921 0.0
C494 C 0.72831 0.35839 -0.0066 0.0
C495 C 0.74063 0.34918 0.97272 0.0
C496 C 0.71166 0.35238 -0.00449 0.0
C497 C 0.68231 0.31944 0.95592 0.0
H498 H 0.67162 0.31168 0.06579 0.0
C499 C 0.64061 0.26356 0.00042 0.0
C500 C 0.6498 0.25293 0.02576 0.0
C501 C 0.64544 0.28048 -0.00441 0.0
C502 C 0.67419 0.31397 0.03492 0.0
H503 H 0.74496 0.32748 0.93505 0.0
H504 H 0.71612 0.31716 0.93829 0.0
H505 H 0.69237 0.33315 0.04831 0.0
H506 H 0.67012 0.25195 0.06857 0.0
H507 H 0.67839 0.28128 0.06062 0.0
H508 H 0.66528 0.2992 0.94278 0.0
C509 C 0.71913 0.32893 0.95302 0.0
C510 C 0.68598 0.32638 0.02485 0.0
C511 C 0.73573 0.33476 0.95144 0.0
C512 C 0.6629 0.25983 0.04862 0.0
C513 C 0.66752 0.27672 0.0443 0.0
C514 C 0.6705 0.30704 0.96599 0.0
C515 C 0.70706 0.33727 0.97636 0.0
C516 C 0.69092 0.32851 0.98541 0.0
C517 C 0.65931 0.28707 0.01661 0.0
C518 C 0.66712 0.30348 0.00575 0.0
H519 H 0.73178 0.36955 0.0101 0.0
H520 H 0.7026 0.35909 0.01359 0.0
H521 H 0.68568 0.321 0.92522 0.0
H522 H 0.63046 0.25853 0.98241 0.0
H523 H 0.63884 0.28819 0.97416 0.0
C524 C 0.73372 0.6476 0.95737 0.0
C525 C 0.74711 0.65506 0.9365 0.0
C526 C 0.71719 0.65374 0.95293 0.0
C527 C 0.69039 0.68243 0.89207 0.0
H528 H 0.67376 0.69874 -0.00751 0.0
C529 C 0.66466 0.74817 0.91497 0.0
C530 C 0.65235 0.75158 0.94357 0.0
C531 C 0.67015 0.73169 0.90831 0.0
C532 C 0.67783 0.69393 0.96418 0.0
H533 H 0.75359 0.67372 0.89237 0.0
H534 H 0.72497 0.68421 0.88423 0.0
H535 H 0.69534 0.67681 -0.00903 0.0
H536 H 0.63535 0.74034 0.9861 0.0
H537 H 0.64532 0.7113 0.9751 0.0
H538 H 0.67378 0.70048 0.86539 0.0
C539 C 0.72707 0.67371 0.9041 0.0
C540 C 0.69022 0.68132 0.9633 0.0
C541 C 0.74353 0.66781 0.90902 0.0
C542 C 0.64485 0.73803 0.9638 0.0
C543 C 0.65058 0.72146 0.95762 0.0
C544 C 0.67801 0.69502 0.89294 0.0
C545 C 0.7138 0.66717 0.92695 0.0
C546 C 0.69733 0.67618 0.9273 0.0
C547 C 0.66363 0.7182 0.93052 0.0
C548 C 0.67234 0.70158 0.92907 0.0
H549 H 0.73617 0.63777 0.97881 0.0
H550 H 0.7072 0.64845 0.97086 0.0
H551 H 0.69541 0.67847 0.86386 0.0
H552 H 0.67059 0.75838 0.89881 0.0
H553 H 0.68036 0.72969 0.88761 0.0
C554 C 0.26698 0.64268 0.97432 0.0
C555 C 0.25507 0.65027 -0.00058 0.0
C556 C 0.28399 0.64771 0.97575 0.0
C557 C 0.3153 0.67087 0.03654 0.0
H558 H 0.32803 0.69368 0.94007 0.0
C559 C 0.34105 0.73674 0.03318 0.0
C560 C 0.35208 0.74225 0.00364 0.0
C561 C 0.33587 0.71994 0.03461 0.0
C562 C 0.32509 0.68695 0.96697 0.0
H563 H 0.25161 0.66805 0.04728 0.0
H564 H 0.28115 0.67643 0.05057 0.0
H565 H 0.30544 0.67268 0.93885 0.0
H566 H 0.36711 0.73455 0.95354 0.0
H567 H 0.35755 0.70491 0.95521 0.0
H568 H 0.33401 0.68608 0.06524 0.0
C569 C 0.27749 0.66676 0.0296 0.0
C570 C 0.31212 0.67492 0.96626 0.0
C571 C 0.26055 0.66208 0.02749 0.0
C572 C 0.35866 0.73048 0.97674 0.0
C573 C 0.35316 0.71361 0.97763 0.0
C574 C 0.32829 0.68281 0.03723 0.0
C575 C 0.28932 0.65997 0.00314 0.0
C576 C 0.3064 0.66761 0.00149 0.0
C577 C 0.34135 0.7083 0.00603 0.0
C578 C 0.33252 0.69179 0.00293 0.0
H579 H 0.26299 0.63357 0.95233 0.0
H580 H 0.29286 0.64239 0.95488 0.0
H581 H 0.31126 0.66522 0.06402 0.0
H582 H 0.33581 0.74562 0.0542 0.0
H583 H 0.32657 0.71639 0.05648 0.0
C584 C 0.82906 0.744 0.57709 0.0
C585 C 0.84222 0.74081 0.55045 0.0
C586 C 0.82323 0.76042 0.58312 0.0
C587 C 0.81686 0.79861 0.52799 0.0
H588 H 0.79792 0.81388 0.62711 0.0
C589 C 0.76279 0.84748 0.53267 0.0
C590 C 0.74879 0.84085 0.5529 0.0
C591 C 0.77883 0.84018 0.53735 0.0
C592 C 0.80329 0.80994 0.59925 0.0
H593 H 0.86023 0.75234 0.51066 0.0
H594 H 0.84965 0.78125 0.52052 0.0
H595 H 0.81903 0.79136 0.62683 0.0
H596 H 0.74077 0.82226 0.59586 0.0
H597 H 0.76853 0.80972 0.60422 0.0
H598 H 0.80024 0.81633 0.50018 0.0
C599 C 0.844 0.77098 0.53696 0.0
C600 C 0.81538 0.79707 0.5991 0.0
C601 C 0.85007 0.75449 0.53144 0.0
C602 C 0.7513 0.82757 0.57965 0.0
C603 C 0.76727 0.82048 0.58475 0.0
C604 C 0.80474 0.81149 0.52813 0.0
C605 C 0.83026 0.77403 0.56224 0.0
C606 C 0.8216 0.79066 0.56333 0.0
C607 C 0.78114 0.82638 0.5629 0.0
C608 C 0.79717 0.81662 0.56362 0.0
H609 H 0.82284 0.73371 0.59229 0.0
H610 H 0.81249 0.76228 0.60239 0.0
H611 H 0.82137 0.7939 0.49994 0.0
H612 H 0.76121 0.85771 0.51184 0.0
H613 H 0.7893 0.84499 0.5202 0.0
C614 C 0.2286 0.85554 0.48744 0.0
C615 C 0.24056 0.84826 0.51293 0.0
C616 C 0.21173 0.85005 0.48816 0.0
C617 C 0.18104 0.82441 0.54571 0.0
H618 H 0.16995 0.80352 0.44556 0.0
C619 C 0.15792 0.75761 0.53147 0.0
C620 C 0.14641 0.75272 0.50213 0.0
C621 C 0.163 0.77439 0.5349 0.0
C622 C 0.17245 0.80966 0.47351 0.0
H623 H 0.24421 0.83069 0.56101 0.0
H624 H 0.21494 0.82146 0.56302 0.0
H625 H 0.19147 0.82558 0.44836 0.0
H626 H 0.13061 0.76157 0.45425 0.0
H627 H 0.14009 0.79117 0.4593 0.0
H628 H 0.16305 0.80747 0.57131 0.0
C629 C 0.2184 0.83128 0.54233 0.0
C630 C 0.1848 0.82232 0.47513 0.0
C631 C 0.23521 0.83645 0.54101 0.0
C632 C 0.13948 0.76509 0.47719 0.0
C633 C 0.1449 0.78195 0.48004 0.0
C634 C 0.16873 0.81178 0.54409 0.0
C635 C 0.20658 0.83756 0.51507 0.0
C636 C 0.18995 0.82902 0.51161 0.0
C637 C 0.15693 0.78667 0.5086 0.0
C638 C 0.16511 0.80354 0.50835 0.0
H639 H 0.23249 0.86461 0.46538 0.0
H640 H 0.20288 0.85506 0.46676 0.0
H641 H 0.18457 0.82957 0.57413 0.0
H642 H 0.16337 0.74832 0.5512 0.0
H643 H 0.17249 0.77754 0.55679 0.0
C644 C 0.2432 0.16769 0.45033 0.0
C645 C 0.24747 0.15455 0.4762 0.0
C646 C 0.22655 0.17318 0.44705 0.0
C647 C 0.18992 0.17974 0.50581 0.0
H648 H 0.17156 0.19505 0.40605 0.0
C649 C 0.14257 0.23498 0.49806 0.0
C650 C 0.14983 0.24797 0.47554 0.0
C651 C 0.14871 0.21839 0.4949 0.0
C652 C 0.1763 0.19062 0.43415 0.0
H653 H 0.23764 0.13646 0.5182 0.0
H654 H 0.20827 0.14663 0.51357 0.0
H655 H 0.19416 0.17404 0.40677 0.0
H656 H 0.1681 0.25378 0.43012 0.0
H657 H 0.17848 0.22502 0.42391 0.0
H658 H 0.17308 0.19741 0.53306 0.0
C659 C 0.2179 0.1524 0.49536 0.0
C660 C 0.18921 0.1786 0.43456 0.0
C661 C 0.23463 0.14661 0.49798 0.0
C662 C 0.16235 0.24397 0.4479 0.0
C663 C 0.16818 0.22746 0.44413 0.0
C664 C 0.177 0.19182 0.5054 0.0
C665 C 0.21377 0.16585 0.47005 0.0
C666 C 0.19683 0.17383 0.47027 0.0
C667 C 0.16185 0.21457 0.46844 0.0
C668 C 0.17083 0.19812 0.46944 0.0
H669 H 0.25283 0.17396 0.433 0.0
H670 H 0.22382 0.18375 0.42779 0.0
H671 H 0.1956 0.1763 0.53374 0.0
H672 H 0.13294 0.23783 0.51972 0.0
H673 H 0.14365 0.20869 0.51403 0.0
C674 C 0.85279 0.23347 0.48416 0.0
C675 C 0.8444 0.24686 0.46522 0.0
C676 C 0.84726 0.21677 0.47868 0.0
C677 C 0.82077 0.18953 0.41485 0.0
H678 H 0.8029 0.17078 0.51163 0.0
C679 C 0.75599 0.16088 0.42553 0.0
C680 C 0.75205 0.14855 0.45369 0.0
C681 C 0.77247 0.16679 0.42163 0.0
C682 C 0.80822 0.17542 0.48433 0.0
H683 H 0.82456 0.25333 0.42386 0.0
H684 H 0.81527 0.22436 0.41347 0.0
H685 H 0.82376 0.19345 0.5146 0.0
H686 H 0.76237 0.13188 0.49819 0.0
H687 H 0.79144 0.14254 0.49193 0.0
H688 H 0.80442 0.17231 0.38452 0.0
C689 C 0.82597 0.22663 0.43276 0.0
C690 C 0.82017 0.18844 0.48607 0.0
C691 C 0.83118 0.24324 0.43896 0.0
C692 C 0.76513 0.14137 0.47615 0.0
C693 C 0.78171 0.14752 0.4727 0.0
C694 C 0.80893 0.17645 0.41309 0.0
C695 C 0.83364 0.21326 0.45327 0.0
C696 C 0.82575 0.19628 0.45135 0.0
C697 C 0.78542 0.16068 0.44619 0.0
C698 C 0.80172 0.17001 0.44781 0.0
H699 H 0.86299 0.236 0.50467 0.0
H700 H 0.85331 0.20667 0.49498 0.0
H701 H 0.82507 0.19522 0.38764 0.0
H702 H 0.74613 0.16657 0.40774 0.0
H703 H 0.77477 0.17707 0.40128 0.0
C704 C 0.14844 0.34664 0.40861 0.0
C705 C 0.13796 0.33232 0.40886 0.0
C706 C 0.14979 0.35655 0.37486 0.0
C707 C 0.13347 0.36158 0.2718 0.0
H708 H 0.18091 0.36935 0.24948 0.0
C709 C 0.18121 0.37697 0.13298 0.0
C710 C 0.1764 0.36335 0.10881 0.0
C711 C 0.17402 0.37892 0.17033 0.0
C712 C 0.16756 0.3677 0.25548 0.0
H713 H 0.11979 0.31773 0.37529 0.0
H714 H 0.12276 0.33444 0.31556 0.0
H715 H 0.17229 0.3624 0.31591 0.0
H716 H 0.15966 0.34171 0.10365 0.0
H717 H 0.14712 0.34519 0.16843 0.0
H718 H 0.12915 0.36552 0.21014 0.0
C719 C 0.12961 0.33841 0.34161 0.0
C720 C 0.16255 0.36374 0.29369 0.0
C721 C 0.12798 0.32871 0.37575 0.0
C722 C 0.16377 0.35221 0.12182 0.0
C723 C 0.15641 0.35433 0.15869 0.0
C724 C 0.13853 0.36535 0.23342 0.0
C725 C 0.14103 0.35208 0.34033 0.0
C726 C 0.14554 0.35994 0.30202 0.0
C727 C 0.16168 0.3675 0.18357 0.0
C728 C 0.15572 0.36777 0.22474 0.0
H729 H 0.15602 0.34987 0.43416 0.0
H730 H 0.15832 0.36726 0.37531 0.0
H731 H 0.12021 0.35915 0.27735 0.0
H732 H 0.19088 0.38578 0.12354 0.0
H733 H 0.17832 0.38913 0.18915 0.0
C734 C 0.6561 0.14784 0.38493 0.0
C735 C 0.66546 0.134 0.39887 0.0
C736 C 0.64558 0.14615 0.35228 0.0
C737 C 0.64447 0.12128 0.26223 0.0
H738 H 0.61141 0.15586 0.23751 0.0
C739 C 0.62011 0.16589 0.12424 0.0
C740 C 0.63643 0.16906 0.10964 0.0
C741 C 0.61783 0.1553 0.15685 0.0
C742 C 0.62025 0.14575 0.24365 0.0
H743 H 0.66989 0.10711 0.39177 0.0
H744 H 0.65129 0.10409 0.33457 0.0
H745 H 0.61612 0.14783 0.30565 0.0
H746 H 0.66303 0.16294 0.11659 0.0
H747 H 0.65917 0.14508 0.17329 0.0
H748 H 0.6488 0.1194 0.20029 0.0
C749 C 0.65239 0.11636 0.34853 0.0
C750 C 0.62312 0.14129 0.28288 0.0
C751 C 0.66303 0.11808 0.3813 0.0
C752 C 0.65028 0.1609 0.12718 0.0
C753 C 0.64802 0.15038 0.15949 0.0
C754 C 0.64133 0.12547 0.223 0.0
C755 C 0.64403 0.13054 0.33271 0.0
C756 C 0.63631 0.13011 0.29273 0.0
C757 C 0.63182 0.14764 0.17523 0.0
C758 C 0.63027 0.13878 0.2136 0.0
H759 H 0.65747 0.16026 0.39806 0.0
H760 H 0.63965 0.15747 0.34088 0.0
H761 H 0.65456 0.11242 0.26842 0.0
H762 H 0.60916 0.17188 0.11109 0.0
H763 H 0.60518 0.1534 0.16819 0.0
C764 C 0.8343 0.66713 0.38959 0.0
C765 C 0.84738 0.67812 0.40101 0.0
C766 C 0.83207 0.66284 0.3501 0.0
C767 C 0.83701 0.64963 0.2658 0.0
H768 H 0.82999 0.68742 0.19509 0.0
C769 C 0.80723 0.64112 0.11176 0.0
C770 C 0.8125 0.65195 0.0815 0.0
C771 C 0.8129 0.64365 0.15035 0.0
C772 C 0.83225 0.67668 0.21409 0.0
H773 H 0.86854 0.69307 0.38029 0.0
H774 H 0.86427 0.6859 0.31065 0.0
H775 H 0.83844 0.69269 0.26295 0.0
H776 H 0.82837 0.67347 0.06738 0.0
H777 H 0.83879 0.67744 0.13402 0.0
H778 H 0.83108 0.63355 0.21706 0.0
C779 C 0.85592 0.68051 0.33254 0.0
C780 C 0.83705 0.67974 0.253 0.0
C781 C 0.85837 0.68455 0.37225 0.0
C782 C 0.82387 0.66507 0.09027 0.0
C783 C 0.82979 0.6674 0.12857 0.0
C784 C 0.8325 0.64653 0.22667 0.0
C785 C 0.84269 0.66969 0.32122 0.0
C786 C 0.83924 0.66627 0.27926 0.0
C787 C 0.82421 0.65688 0.15925 0.0
C788 C 0.82983 0.66003 0.20043 0.0
H789 H 0.8257 0.66189 0.41118 0.0
H790 H 0.8217 0.65458 0.34197 0.0
H791 H 0.83873 0.63905 0.28562 0.0
H792 H 0.79843 0.63093 0.10579 0.0
H793 H 0.80812 0.63545 0.17327 0.0
C794 C 0.31761 0.83938 0.36857 0.0
C795 C 0.31388 0.85483 0.38703 0.0
C796 C 0.32684 0.83899 0.33374 0.0
C797 C 0.3376 0.86429 0.24765 0.0
H798 H 0.36737 0.8262 0.22859 0.0
C799 C 0.37248 0.82467 0.11311 0.0
C800 C 0.35835 0.82408 0.088 0.0
C801 C 0.37152 0.83313 0.14929 0.0
C802 C 0.35948 0.83719 0.23347 0.0
H803 H 0.31689 0.88205 0.38327 0.0
H804 H 0.33309 0.88135 0.32194 0.0
H805 H 0.3574 0.83182 0.29494 0.0
H806 H 0.33262 0.83297 0.07968 0.0
H807 H 0.33084 0.84724 0.14247 0.0
H808 H 0.33942 0.86944 0.18596 0.0
C809 C 0.32879 0.86955 0.33461 0.0
C810 C 0.35355 0.84025 0.27146 0.0
C811 C 0.31949 0.86994 0.36963 0.0
C812 C 0.34369 0.833 0.09853 0.0
C813 C 0.34274 0.84142 0.13446 0.0
C814 C 0.34364 0.8613 0.20964 0.0
C815 C 0.33266 0.85403 0.31648 0.0
C816 C 0.34186 0.85328 0.27853 0.0
C817 C 0.35644 0.84117 0.16081 0.0
C818 C 0.35392 0.84718 0.20181 0.0
H819 H 0.31342 0.8275 0.38102 0.0
H820 H 0.32918 0.82685 0.31998 0.0
H821 H 0.32868 0.87449 0.25218 0.0
H822 H 0.38402 0.81804 0.1056 0.0
H823 H 0.38236 0.83287 0.1688 0.0
C824 C 0.11853 0.6782 0.61425 0.0
C825 C 0.13067 0.67319 0.58648 0.0
C826 C 0.11879 0.67135 0.6522 0.0
C827 C 0.13647 0.66828 0.73139 0.0
H828 H 0.1473 0.62226 0.76155 0.0
C829 C 0.16324 0.65499 0.88427 0.0
C830 C 0.17667 0.64345 0.88636 0.0
C831 C 0.15321 0.65594 0.85062 0.0
C832 C 0.14438 0.63519 0.75358 0.0
H833 H 0.15134 0.65589 0.57489 0.0
H834 H 0.15169 0.64387 0.64079 0.0
H835 H 0.1363 0.62802 0.69554 0.0
H836 H 0.18989 0.62343 0.8557 0.0
H837 H 0.17304 0.62578 0.79553 0.0
H838 H 0.14569 0.67582 0.7876 0.0
C839 C 0.14207 0.65311 0.63357 0.0
C840 C 0.13791 0.63843 0.71597 0.0
C841 C 0.14198 0.66012 0.59597 0.0
C842 C 0.17962 0.63249 0.85462 0.0
C843 C 0.16983 0.63374 0.82037 0.0
C844 C 0.14314 0.6651 0.76862 0.0
C845 C 0.13099 0.6592 0.66253 0.0
C846 C 0.1343 0.65507 0.70428 0.0
C847 C 0.15667 0.64571 0.81772 0.0
C848 C 0.14758 0.64857 0.77992 0.0
H849 H 0.10964 0.68822 0.60759 0.0
H850 H 0.11007 0.67618 0.67405 0.0
H851 H 0.13412 0.68127 0.72291 0.0
H852 H 0.16045 0.66331 0.9088 0.0
H853 H 0.14289 0.66494 0.85022 0.0
C854 C 0.33384 0.15598 0.60404 0.0
C855 C 0.32462 0.1417 0.59189 0.0
C856 C 0.34428 0.15524 0.63709 0.0
C857 C 0.34787 0.13383 0.73049 0.0
H858 H 0.39038 0.15819 0.73696 0.0
C859 C 0.3729 0.15038 0.88043 0.0
C860 C 0.37636 0.16768 0.88418 0.0
C861 C 0.37296 0.14274 0.84344 0.0
C862 C 0.37858 0.15126 0.73562 0.0
H863 H 0.31932 0.11535 0.60458 0.0
H864 H 0.33739 0.11418 0.66305 0.0
H865 H 0.37722 0.15325 0.67275 0.0
H866 H 0.38405 0.19034 0.85356 0.0
H867 H 0.38338 0.17731 0.78847 0.0
H868 H 0.3484 0.1328 0.79304 0.0
C869 C 0.33655 0.1259 0.6467 0.0
C870 C 0.37107 0.14842 0.69891 0.0
C871 C 0.32617 0.1266 0.61337 0.0
C872 C 0.38145 0.17693 0.85114 0.0
C873 C 0.3811 0.16939 0.81389 0.0
C874 C 0.35528 0.13676 0.76712 0.0
C875 C 0.34566 0.14025 0.65889 0.0
C876 C 0.35534 0.14024 0.69622 0.0
C877 C 0.37589 0.15245 0.80947 0.0
C878 C 0.3704 0.14607 0.77029 0.0
H879 H 0.33303 0.1678 0.58805 0.0
H880 H 0.35088 0.1666 0.64624 0.0
H881 H 0.33567 0.12763 0.72937 0.0
H882 H 0.36906 0.14304 0.90582 0.0
H883 H 0.36942 0.12954 0.84122 0.0
C884 C 0.83932 0.34936 0.90166 0.0
C885 C 0.825 0.35983 0.9017 0.0
C886 C 0.84881 0.34725 0.86743 0.0
C887 C 0.85255 0.36154 0.7624 0.0
H888 H 0.86201 0.314 0.74478 0.0
C889 C 0.87129 0.31328 0.62697 0.0
C890 C 0.8573 0.31645 0.60249 0.0
C891 C 0.87229 0.32076 0.66429 0.0
C892 C 0.85982 0.32738 0.74949 0.0
H893 H 0.80992 0.37715 0.86701 0.0
H894 H 0.82587 0.37287 0.80665 0.0
H895 H 0.85491 0.32372 0.8105 0.0
H896 H 0.83384 0.33048 0.59691 0.0
H897 H 0.83577 0.34369 0.66154 0.0
H898 H 0.85606 0.36469 0.70023 0.0
C899 C 0.8302 0.36661 0.83315 0.0
C900 C 0.85579 0.33303 0.78725 0.0
C901 C 0.82094 0.36901 0.8677 0.0
C902 C 0.84468 0.32765 0.61533 0.0
C903 C 0.84587 0.33538 0.65208 0.0
C904 C 0.8563 0.35581 0.72449 0.0
C905 C 0.84391 0.35523 0.83223 0.0
C906 C 0.85149 0.35008 0.79396 0.0
C907 C 0.85956 0.33186 0.67706 0.0
C908 C 0.8594 0.33858 0.7176 0.0
H909 H 0.84287 0.34235 0.92781 0.0
H910 H 0.85957 0.3388 0.8682 0.0
H911 H 0.84975 0.37482 0.7666 0.0
H912 H 0.88121 0.30473 0.61766 0.0
H913 H 0.8829 0.31781 0.6833 0.0
C914 C 0.62518 0.8365 0.87173 0.0
C915 C 0.63631 0.83918 0.90329 0.0
C916 C 0.62492 0.84777 0.84004 0.0
C917 C 0.65516 0.87638 0.79263 0.0
H918 H 0.6199 0.87801 0.71333 0.0
C919 C 0.67337 0.8875 0.63398 0.0
C920 C 0.66857 0.87327 0.61181 0.0
C921 C 0.66519 0.89115 0.6695 0.0
C922 C 0.6298 0.87794 0.73543 0.0
H923 H 0.65432 0.85659 0.92919 0.0
H924 H 0.65322 0.87673 0.87505 0.0
H925 H 0.6128 0.87002 0.78079 0.0
H926 H 0.65028 0.85296 0.60673 0.0
H927 H 0.63613 0.85925 0.66835 0.0
H928 H 0.67227 0.88343 0.74711 0.0
C929 C 0.64529 0.86559 0.87357 0.0
C930 C 0.62577 0.87324 0.77399 0.0
C931 C 0.64588 0.85411 0.90468 0.0
C932 C 0.65442 0.86385 0.62357 0.0
C933 C 0.64616 0.8676 0.65871 0.0
C934 C 0.65912 0.88122 0.75433 0.0
C935 C 0.63554 0.86209 0.83982 0.0
C936 C 0.63859 0.87147 0.8025 0.0
C937 C 0.65199 0.88075 0.68302 0.0
C938 C 0.64667 0.88113 0.72483 0.0
H939 H 0.61767 0.82507 0.8701 0.0
H940 H 0.61733 0.8445 0.81458 0.0
H941 H 0.66547 0.87505 0.81339 0.0
H942 H 0.68417 0.89506 0.62541 0.0
H943 H 0.66986 0.90145 0.68755 0.0
C944 C 0.88088 0.65396 0.61532 0.0
C945 C 0.86457 0.65528 0.59914 0.0
C946 C 0.88383 0.64346 0.64788 0.0
C947 C 0.88125 0.63523 0.73448 0.0
H948 H 0.84689 0.6027 0.76371 0.0
C949 C 0.84278 0.64492 0.86888 0.0
C950 C 0.83282 0.63217 0.88577 0.0
C951 C 0.85379 0.64127 0.83818 0.0
C952 C 0.85699 0.61139 0.75648 0.0
H953 H 0.839 0.64541 0.60195 0.0
H954 H 0.84378 0.62802 0.65866 0.0
H955 H 0.85435 0.6061 0.6951 0.0
H956 H 0.82761 0.60526 0.88578 0.0
H957 H 0.84714 0.59874 0.83198 0.0
H958 H 0.88409 0.64032 0.7959 0.0
C959 C 0.85455 0.63464 0.64649 0.0
C960 C 0.86108 0.61356 0.71681 0.0
C961 C 0.85167 0.64494 0.61404 0.0
C962 C 0.83497 0.6154 0.87296 0.0
C963 C 0.84615 0.61169 0.84211 0.0
C964 C 0.87761 0.63261 0.77422 0.0
C965 C 0.87049 0.63421 0.66495 0.0
C966 C 0.87194 0.62675 0.70516 0.0
C967 C 0.85532 0.62469 0.8235 0.0
C968 C 0.86419 0.62196 0.78531 0.0
H969 H 0.89116 0.66159 0.60406 0.0
H970 H 0.89637 0.64322 0.66071 0.0
H971 H 0.89003 0.64522 0.72709 0.0
H972 H 0.84163 0.65797 0.87824 0.0
H973 H 0.86024 0.65178 0.82444 0.0
C974 C 0.32491 0.87481 0.61341 0.0
C975 C 0.32422 0.86016 0.59002 0.0
C976 C 0.33451 0.87499 0.64814 0.0
C977 C 0.36522 0.84905 0.70723 0.0
H978 H 0.33694 0.86284 0.79458 0.0
C979 C 0.34421 0.82158 0.86407 0.0
C980 C 0.35957 0.81762 0.88271 0.0
C981 C 0.34393 0.83144 0.83024 0.0
C982 C 0.3451 0.85906 0.77052 0.0
H983 H 0.33415 0.83474 0.58293 0.0
H984 H 0.35033 0.83489 0.64318 0.0
H985 H 0.33014 0.87242 0.72857 0.0
H986 H 0.38679 0.82084 0.88011 0.0
H987 H 0.38629 0.83808 0.82005 0.0
H988 H 0.37918 0.83435 0.74901 0.0
C989 C 0.34373 0.84635 0.63497 0.0
C990 C 0.34133 0.86475 0.73266 0.0
C991 C 0.33419 0.84617 0.60054 0.0
C992 C 0.37474 0.82364 0.86634 0.0
C993 C 0.37447 0.83354 0.83211 0.0
C994 C 0.36888 0.84321 0.74513 0.0
C995 C 0.34362 0.86054 0.6599 0.0
C996 C 0.35075 0.85899 0.70026 0.0
C997 C 0.359 0.83766 0.81399 0.0
C998 C 0.35823 0.84737 0.77671 0.0
H999 H 0.31749 0.88585 0.60582 0.0
H1000 H 0.3343 0.8862 0.6665 0.0
H1001 H 0.373 0.84476 0.68298 0.0
H1002 H 0.33227 0.81712 0.87565 0.0
H1003 H 0.33184 0.83393 0.81638 0.0
C1004 C 0.12192 0.32612 0.62251 0.0
C1005 C 0.13691 0.31818 0.61005 0.0
C1006 C 0.12186 0.33613 0.65661 0.0
C1007 C 0.15145 0.3592 0.72202 0.0
H1008 H 0.11819 0.35187 0.8038 0.0
C1009 C 0.15376 0.35125 0.89453 0.0
C1010 C 0.16564 0.36379 0.90426 0.0
C1011 C 0.14524 0.35171 0.85869 0.0
C1012 C 0.1275 0.35422 0.7811 0.0
H1013 H 0.1633 0.31383 0.62455 0.0
H1014 H 0.16307 0.33084 0.68384 0.0
H1015 H 0.11366 0.33975 0.73848 0.0
H1016 H 0.17659 0.38763 0.88587 0.0
H1017 H 0.16151 0.38854 0.82291 0.0
H1018 H 0.16609 0.37225 0.76508 0.0
C1019 C 0.15151 0.32984 0.66682 0.0
C1020 C 0.12482 0.34738 0.74361 0.0
C1021 C 0.15158 0.31991 0.63303 0.0
C1022 C 0.16769 0.37765 0.87889 0.0
C1023 C 0.15908 0.37814 0.84283 0.0
C1024 C 0.15422 0.36587 0.75948 0.0
C1025 C 0.13678 0.33837 0.67855 0.0
C1026 C 0.13727 0.349 0.71446 0.0
C1027 C 0.14831 0.36477 0.83163 0.0
C1028 C 0.14275 0.3626 0.79009 0.0
H1029 H 0.11043 0.32505 0.60531 0.0
H1030 H 0.11029 0.34244 0.66523 0.0
H1031 H 0.16103 0.36105 0.69967 0.0
H1032 H 0.15165 0.34053 0.91373 0.0
H1033 H 0.13722 0.34109 0.85116 0.0
C1034 C 0.63518 0.17585 0.88299 0.0
C1035 C 0.64919 0.17905 0.90743 0.0
C1036 C 0.63739 0.16823 0.84615 0.0
C1037 C 0.66863 0.14451 0.7856 0.0
H1038 H 0.64672 0.16703 0.698 0.0
C1039 C 0.68257 0.15979 0.61425 0.0
C1040 C 0.68667 0.14385 0.59867 0.0
C1041 C 0.67576 0.16128 0.65181 0.0
C1042 C 0.65287 0.16055 0.72219 0.0
H1043 H 0.67643 0.1764 0.91271 0.0
H1044 H 0.68026 0.1635 0.84859 0.0
H1045 H 0.63879 0.17441 0.76507 0.0
H1046 H 0.68698 0.11691 0.61064 0.0
H1047 H 0.67507 0.11956 0.67698 0.0
H1048 H 0.68341 0.13138 0.74253 0.0
C1049 C 0.66754 0.16656 0.85798 0.0
C1050 C 0.64819 0.16463 0.76062 0.0
C1051 C 0.66535 0.17416 0.89464 0.0
C1052 C 0.68398 0.12937 0.62185 0.0
C1053 C 0.67717 0.13088 0.65975 0.0
C1054 C 0.67333 0.14044 0.7471 0.0
C1055 C 0.65363 0.16363 0.83316 0.0
C1056 C 0.65643 0.15708 0.79275 0.0
C1057 C 0.67285 0.14686 0.67488 0.0
C1058 C 0.66591 0.14888 0.71509 0.0
H1059 H 0.62255 0.17937 0.89211 0.0
H1060 H 0.62641 0.16603 0.82772 0.0
H1061 H 0.67499 0.13826 0.80981 0.0
H1062 H 0.68454 0.17124 0.59734 0.0
H1063 H 0.67295 0.1738 0.663 0.0
C1064 C 0.8662 0.32695 0.36552 0.0
C1065 C 0.85779 0.3311 0.40056 0.0
C1066 C 0.8632 0.33638 0.33133 0.0
C1067 C 0.85526 0.35975 0.26167 0.0
H1068 H 0.8065 0.36349 0.2522 0.0
C1069 C 0.81868 0.37708 0.11689 0.0
C1070 C 0.80794 0.36367 0.10619 0.0
C1071 C 0.82605 0.37752 0.15444 0.0
C1072 C 0.82015 0.36281 0.25463 0.0
H1073 H 0.84147 0.34938 0.42902 0.0
H1074 H 0.83668 0.36611 0.36991 0.0
H1075 H 0.81901 0.35698 0.31575 0.0
H1076 H 0.79594 0.34063 0.12647 0.0
H1077 H 0.80833 0.3417 0.19213 0.0
H1078 H 0.85605 0.3647 0.19949 0.0
C1079 C 0.8451 0.35533 0.36825 0.0
C1080 C 0.82737 0.35919 0.29106 0.0
C1081 C 0.84787 0.34579 0.40208 0.0
C1082 C 0.80422 0.35108 0.13391 0.0
C1083 C 0.81124 0.35172 0.17148 0.0
C1084 C 0.84799 0.36354 0.22509 0.0
C1085 C 0.85191 0.35015 0.33203 0.0
C1086 C 0.84496 0.35709 0.29481 0.0
C1087 C 0.82236 0.3648 0.18191 0.0
C1088 C 0.83034 0.3645 0.22118 0.0
H1089 H 0.8739 0.31565 0.36373 0.0
H1090 H 0.8686 0.33204 0.30384 0.0
H1091 H 0.86885 0.35829 0.26375 0.0
H1092 H 0.82182 0.38688 0.09588 0.0
H1093 H 0.83461 0.38771 0.16202 0.0
C1094 C 0.66569 0.81404 0.11507 0.0
C1095 C 0.64947 0.81262 0.09844 0.0
C1096 C 0.66782 0.82022 0.15315 0.0
C1097 C 0.6699 0.84306 0.22374 0.0
H1098 H 0.64224 0.82661 0.3096 0.0
C1099 C 0.68242 0.86292 0.38499 0.0
C1100 C 0.68235 0.84951 0.41209 0.0
C1101 C 0.67615 0.86056 0.34679 0.0
C1102 C 0.65005 0.83134 0.28589 0.0
H1103 H 0.62269 0.81625 0.10917 0.0
H1104 H 0.62645 0.82714 0.17619 0.0
H1105 H 0.63576 0.81796 0.24222 0.0
H1106 H 0.67542 0.82317 0.42045 0.0
H1107 H 0.66488 0.81904 0.35411 0.0
H1108 H 0.68471 0.85574 0.26743 0.0
C1109 C 0.6375 0.82339 0.15952 0.0
C1110 C 0.64623 0.82652 0.24729 0.0
C1111 C 0.63535 0.81716 0.1212 0.0
C1112 C 0.67568 0.8338 0.40038 0.0
C1113 C 0.66945 0.83146 0.36238 0.0
C1114 C 0.67374 0.84784 0.2623 0.0
C1115 C 0.6538 0.8252 0.17563 0.0
C1116 C 0.65641 0.83195 0.21594 0.0
C1117 C 0.66968 0.84476 0.33505 0.0
C1118 C 0.66414 0.84167 0.2939 0.0
H1119 H 0.67686 0.81051 0.09854 0.0
H1120 H 0.68051 0.82102 0.16507 0.0
H1121 H 0.67779 0.84771 0.20008 0.0
H1122 H 0.68737 0.8752 0.39318 0.0
H1123 H 0.67639 0.87109 0.32644 0.0
C1124 C 0.15516 0.6735 0.36333 0.0
C1125 C 0.13953 0.67673 0.38135 0.0
C1126 C 0.15613 0.66335 0.32993 0.0
C1127 C 0.15697 0.63574 0.26991 0.0
H1128 H 0.12629 0.646 0.18419 0.0
C1129 C 0.17572 0.62033 0.11134 0.0
C1130 C 0.1746 0.63485 0.08771 0.0
C1131 C 0.16689 0.61953 0.14707 0.0
C1132 C 0.13487 0.64283 0.20796 0.0
H1133 H 0.11258 0.67175 0.37844 0.0
H1134 H 0.11429 0.65388 0.31962 0.0
H1135 H 0.12021 0.6566 0.24997 0.0
H1136 H 0.1623 0.65922 0.08112 0.0
H1137 H 0.14737 0.65799 0.14286 0.0
H1138 H 0.17249 0.62342 0.2273 0.0
C1139 C 0.12579 0.65932 0.33147 0.0
C1140 C 0.13129 0.64878 0.24578 0.0
C1141 C 0.12481 0.6696 0.36502 0.0
C1142 C 0.16365 0.64796 0.09896 0.0
C1143 C 0.15483 0.64712 0.13425 0.0
C1144 C 0.16066 0.62998 0.23203 0.0
C1145 C 0.1415 0.65603 0.31369 0.0
C1146 C 0.14283 0.64612 0.27665 0.0
C1147 C 0.15671 0.63316 0.15938 0.0
C1148 C 0.15015 0.63434 0.20023 0.0
H1149 H 0.16675 0.67886 0.37496 0.0
H1150 H 0.16838 0.66155 0.31636 0.0
H1151 H 0.16583 0.63302 0.29343 0.0
H1152 H 0.18397 0.60998 0.10317 0.0
H1153 H 0.1685 0.60853 0.16567 0.0
C1154 C 0.32173 0.11928 0.36393 0.0
C1155 C 0.32585 0.13279 0.38905 0.0
C1156 C 0.32951 0.11786 0.32711 0.0
C1157 C 0.36399 0.13488 0.26424 0.0
H1158 H 0.32916 0.13611 0.18392 0.0
C1159 C 0.37103 0.17156 0.11919 0.0
C1160 C 0.3616 0.16638 0.08632 0.0
C1161 C 0.36981 0.16267 0.15467 0.0
C1162 C 0.33921 0.13535 0.20554 0.0
H1163 H 0.34235 0.15443 0.39719 0.0
H1164 H 0.35583 0.15198 0.33327 0.0
H1165 H 0.32188 0.12772 0.25022 0.0
H1166 H 0.34478 0.14709 0.06332 0.0
H1167 H 0.34317 0.13124 0.12444 0.0
H1168 H 0.38122 0.14314 0.21965 0.0
C1169 C 0.34664 0.14249 0.34171 0.0
C1170 C 0.33499 0.1305 0.24369 0.0
C1171 C 0.33876 0.14402 0.37815 0.0
C1172 C 0.35188 0.15157 0.08859 0.0
C1173 C 0.35094 0.14251 0.12364 0.0
C1174 C 0.36827 0.13961 0.22587 0.0
C1175 C 0.34166 0.12979 0.31523 0.0
C1176 C 0.34719 0.13084 0.27372 0.0
C1177 C 0.35937 0.14828 0.15753 0.0
C1178 C 0.35578 0.14049 0.19642 0.0
H1179 H 0.31189 0.11038 0.37176 0.0
H1180 H 0.32552 0.10789 0.30724 0.0
H1181 H 0.37367 0.1351 0.28686 0.0
H1182 H 0.37867 0.18292 0.11804 0.0
H1183 H 0.37636 0.1676 0.18025 0.0
loop_
_geom_bond_atom_site_label_1
_geom_bond_atom_site_label_2
_geom_bond_distance
_geom_bond_site_symmetry_2
_ccdc_geom_bond_type
Zn0 O3 2.031 1_554 S
Zn0 O5 2.049 . S
Zn0 O10 2.067 . S
Zn1 O2 1.962 1_554 S
Zn1 O4 1.986 . S
Zn1 O6 1.996 . S
Zn1 O9 1.943 . S
O2 Zn1 1.962 1_556 S
O2 C7 1.254 . S
O3 Zn0 2.031 1_556 S
O3 C7 1.269 . S
O4 Zn1 1.986 . S
O4 C11 1.262 . S
O5 Zn0 2.049 . S
O5 C13 1.260 . S
O6 Zn1 1.996 . S
O6 C13 1.257 . S
C7 O2 1.254 . S
C7 O3 1.269 . S
C8 O9 1.249 . S
C8 O10 1.270 . S
O9 Zn1 1.943 . S
O9 C8 1.249 . S
O10 Zn0 2.067 . S
O10 C8 1.270 . S
C11 O4 1.262 . S
C11 O12 1.232 1_554 S
O12 C11 1.232 1_556 S
C13 O5 1.260 . S
C13 O6 1.257 . S
Zn14 O17 2.031 1_554 S
Zn14 O19 2.049 . S
Zn14 O24 2.067 . S
Zn15 O16 1.962 1_554 S
Zn15 O18 1.986 . S
Zn15 O20 1.996 . S
Zn15 O23 1.943 . S
O16 Zn15 1.962 1_556 S
O16 C21 1.254 . S
O17 Zn14 2.031 1_556 S
O17 C21 1.269 . S
O18 Zn15 1.986 . S
O18 C25 1.262 . S
O19 Zn14 2.049 . S
O19 C27 1.260 . S
O20 Zn15 1.996 . S
O20 C27 1.257 . S
C21 O16 1.254 . S
C21 O17 1.269 . S
C22 O23 1.249 . S
C22 O24 1.270 . S
O23 Zn15 1.943 . S
O23 C22 1.249 . S
O24 Zn14 2.067 . S
O24 C22 1.270 . S
C25 O18 1.262 . S
C25 O26 1.232 1_554 S
O26 C25 1.232 1_556 S
C27 O19 1.260 . S
C27 O20 1.257 . S
Zn28 O31 2.031 1_554 S
Zn28 O33 2.049 . S
Zn28 O38 2.067 . S
Zn29 O30 1.962 1_554 S
Zn29 O32 1.986 . S
Zn29 O34 1.996 . S
Zn29 O37 1.943 . S
O30 Zn29 1.962 1_556 S
O30 C35 1.254 . S
O31 Zn28 2.031 1_556 S
O31 C35 1.269 . S
O32 Zn29 1.986 . S
O32 C39 1.262 . S
O33 Zn28 2.049 . S
O33 C41 1.260 . S
O34 Zn29 1.996 . S
O34 C41 1.257 . S
C35 O30 1.254 . S
C35 O31 1.269 . S
C36 O37 1.249 . S
C36 O38 1.270 . S
O37 Zn29 1.943 . S
O37 C36 1.249 . S
O38 Zn28 2.067 . S
O38 C36 1.270 . S
C39 O32 1.262 . S
C39 O40 1.232 1_554 S
O40 C39 1.232 1_556 S
C41 O33 1.260 . S
C41 O34 1.257 . S
Zn42 O45 2.031 1_554 S
Zn42 O47 2.049 . S
Zn42 O52 2.067 . S
Zn43 O44 1.962 1_554 S
Zn43 O46 1.986 . S
Zn43 O48 1.996 . S
Zn43 O51 1.943 . S
O44 Zn43 1.962 1_556 S
O44 C49 1.254 . S
O45 Zn42 2.031 1_556 S
O45 C49 1.269 . S
O46 Zn43 1.986 . S
O46 C53 1.262 . S
O47 Zn42 2.049 . S
O47 C55 1.260 . S
O48 Zn43 1.996 . S
O48 C55 1.257 . S
C49 O44 1.254 . S
C49 O45 1.269 . S
C50 O51 1.249 . S
C50 O52 1.270 . S
O51 Zn43 1.943 . S
O51 C50 1.249 . S
O52 Zn42 2.067 . S
O52 C50 1.270 . S
C53 O46 1.262 . S
C53 O54 1.232 1_554 S
O54 C53 1.232 1_556 S
C55 O47 1.260 . S
C55 O48 1.257 . S
Zn56 O59 2.031 1_556 S
Zn56 O61 2.049 . S
Zn56 O66 2.067 . S
Zn57 O58 1.962 . S
Zn57 O60 1.986 1_554 S
Zn57 O62 1.996 1_554 S
Zn57 O65 1.943 . S
O58 Zn57 1.962 . S
O58 C63 1.254 . S
O59 Zn56 2.031 1_554 S
O59 C63 1.269 . S
O60 Zn57 1.986 1_556 S
O60 C67 1.262 1_556 S
O61 Zn56 2.049 . S
O61 C69 1.260 . S
O62 Zn57 1.996 1_556 S
O62 C69 1.257 . S
C63 O58 1.254 . S
C63 O59 1.269 . S
C64 O65 1.248 1_556 S
C64 O66 1.273 . S
O65 Zn57 1.943 . S
O65 C64 1.248 1_554 S
O66 Zn56 2.067 . S
O66 C64 1.273 . S
C67 O60 1.262 1_554 S
C67 O68 1.232 . S
O68 C67 1.232 . S
C69 O61 1.260 . S
C69 O62 1.257 . S
Zn70 O73 2.031 1_556 S
Zn70 O75 2.049 . S
Zn70 O80 2.067 . S
Zn71 O72 1.962 . S
Zn71 O74 1.986 1_554 S
Zn71 O76 1.996 1_554 S
Zn71 O79 1.943 . S
O72 Zn71 1.962 . S
O72 C77 1.254 . S
O73 Zn70 2.031 1_554 S
O73 C77 1.269 . S
O74 Zn71 1.986 1_556 S
O74 C81 1.262 1_556 S
O75 Zn70 2.049 . S
O75 C83 1.260 . S
O76 Zn71 1.996 1_556 S
O76 C83 1.257 . S
C77 O72 1.254 . S
C77 O73 1.269 . S
C78 O79 1.248 1_556 S
C78 O80 1.273 . S
O79 Zn71 1.943 . S
O79 C78 1.248 1_554 S
O80 Zn70 2.067 . S
O80 C78 1.273 . S
C81 O74 1.262 1_554 S
C81 O82 1.232 . S
O82 C81 1.232 . S
C83 O75 1.260 . S
C83 O76 1.257 . S
Zn84 O87 2.031 1_556 S
Zn84 O89 2.049 . S
Zn84 O94 2.067 . S
Zn85 O86 1.962 . S
Zn85 O88 1.986 1_554 S
Zn85 O90 1.996 1_554 S
Zn85 O93 1.943 . S
O86 Zn85 1.962 . S
O86 C91 1.254 . S
O87 Zn84 2.031 1_554 S
O87 C91 1.269 . S
O88 Zn85 1.986 1_556 S
O88 C95 1.262 1_556 S
O89 Zn84 2.049 . S
O89 C97 1.260 . S
O90 Zn85 1.996 1_556 S
O90 C97 1.257 . S
C91 O86 1.254 . S
C91 O87 1.269 . S
C92 O93 1.248 1_556 S
C92 O94 1.273 . S
O93 Zn85 1.943 . S
O93 C92 1.248 1_554 S
O94 Zn84 2.067 . S
O94 C92 1.273 . S
C95 O88 1.262 1_554 S
C95 O96 1.232 . S
O96 C95 1.232 . S
C97 O89 1.260 . S
C97 O90 1.257 . S
Zn98 O101 2.031 1_556 S
Zn98 O103 2.049 . S
Zn98 O108 2.067 . S
Zn99 O100 1.962 . S
Zn99 O102 1.986 1_554 S
Zn99 O104 1.996 1_554 S
Zn99 O107 1.943 . S
O100 Zn99 1.962 . S
O100 C105 1.254 . S
O101 Zn98 2.031 1_554 S
O101 C105 1.269 . S
O102 Zn99 1.986 1_556 S
O102 C109 1.262 1_556 S
O103 Zn98 2.049 . S
O103 C111 1.260 . S
O104 Zn99 1.996 1_556 S
O104 C111 1.257 . S
C105 O100 1.254 . S
C105 O101 1.269 . S
C106 O107 1.248 1_556 S
C106 O108 1.273 . S
O107 Zn99 1.943 . S
O107 C106 1.248 1_554 S
O108 Zn98 2.067 . S
O108 C106 1.273 . S
C109 O102 1.262 1_554 S
C109 O110 1.232 . S
O110 C109 1.232 . S
C111 O103 1.260 . S
C111 O104 1.257 . S
Zn112 O115 2.031 . S
Zn112 O117 2.049 . S
Zn112 O122 2.067 . S
Zn113 O114 1.962 . S
Zn113 O116 1.986 . S
Zn113 O118 1.996 . S
Zn113 O121 1.943 . S
O114 Zn113 1.962 . S
O114 C119 1.254 . S
O115 Zn112 2.031 . S
O115 C119 1.269 . S
O116 Zn113 1.986 . S
O116 C123 1.262 . S
O117 Zn112 2.049 . S
O117 C125 1.260 . S
O118 Zn113 1.996 . S
O118 C125 1.257 . S
C119 O114 1.254 . S
C119 O115 1.269 . S
C120 O121 1.249 . S
C120 O122 1.270 . S
O121 Zn113 1.943 . S
O121 C120 1.249 . S
O122 Zn112 2.067 . S
O122 C120 1.270 . S
C123 O116 1.262 . S
C123 O124 1.232 . S
O124 C123 1.232 . S
C125 O117 1.260 . S
C125 O118 1.257 . S
Zn126 O129 2.031 . S
Zn126 O131 2.049 . S
Zn126 O136 2.067 . S
Zn127 O128 1.962 . S
Zn127 O130 1.986 . S
Zn127 O132 1.996 . S
Zn127 O135 1.943 . S
O128 Zn127 1.962 . S
O128 C133 1.254 . S
O129 Zn126 2.031 . S
O129 C133 1.269 . S
O130 Zn127 1.986 . S
O130 C137 1.262 . S
O131 Zn126 2.049 . S
O131 C139 1.260 . S
O132 Zn127 1.996 . S
O132 C139 1.257 . S
C133 O128 1.254 . S
C133 O129 1.269 . S
C134 O135 1.249 . S
C134 O136 1.270 . S
O135 Zn127 1.943 . S
O135 C134 1.249 . S
O136 Zn126 2.067 . S
O136 C134 1.270 . S
C137 O130 1.262 . S
C137 O138 1.232 . S
O138 C137 1.232 . S
C139 O131 1.260 . S
C139 O132 1.257 . S
Zn140 O143 2.031 . S
Zn140 O145 2.049 . S
Zn140 O150 2.067 . S
Zn141 O142 1.962 . S
Zn141 O144 1.986 . S
Zn141 O146 1.996 . S
Zn141 O149 1.943 . S
O142 Zn141 1.962 . S
O142 C147 1.254 . S
O143 Zn140 2.031 . S
O143 C147 1.269 . S
O144 Zn141 1.986 . S
O144 C151 1.262 . S
O145 Zn140 2.049 . S
O145 C153 1.260 . S
O146 Zn141 1.996 . S
O146 C153 1.257 . S
C147 O142 1.254 . S
C147 O143 1.269 . S
C148 O149 1.249 . S
C148 O150 1.270 . S
O149 Zn141 1.943 . S
O149 C148 1.249 . S
O150 Zn140 2.067 . S
O150 C148 1.270 . S
C151 O144 1.262 . S
C151 O152 1.232 . S
O152 C151 1.232 . S
C153 O145 1.260 . S
C153 O146 1.257 . S
Zn154 O157 2.031 . S
Zn154 O159 2.049 . S
Zn154 O164 2.067 . S
Zn155 O156 1.962 . S
Zn155 O158 1.986 . S
Zn155 O160 1.996 . S
Zn155 O163 1.943 . S
O156 Zn155 1.962 . S
O156 C161 1.254 . S
O157 Zn154 2.031 . S
O157 C161 1.269 . S
O158 Zn155 1.986 . S
O158 C165 1.262 . S
O159 Zn154 2.049 . S
O159 C167 1.260 . S
O160 Zn155 1.996 . S
O160 C167 1.257 . S
C161 O156 1.254 . S
C161 O157 1.269 . S
C162 O163 1.249 . S
C162 O164 1.270 . S
O163 Zn155 1.943 . S
O163 C162 1.249 . S
O164 Zn154 2.067 . S
O164 C162 1.270 . S
C165 O158 1.262 . S
C165 O166 1.232 . S
O166 C165 1.232 . S
C167 O159 1.260 . S
C167 O160 1.257 . S
Zn168 O171 2.031 . S
Zn168 O173 2.049 . S
Zn168 O178 2.067 . S
Zn169 O170 1.962 . S
Zn169 O172 1.986 . S
Zn169 O174 1.996 . S
Zn169 O177 1.943 . S
O170 Zn169 1.962 . S
O170 C175 1.254 . S
O171 Zn168 2.031 . S
O171 C175 1.269 . S
O172 Zn169 1.986 . S
O172 C179 1.262 . S
O173 Zn168 2.049 . S
O173 C181 1.260 . S
O174 Zn169 1.996 . S
O174 C181 1.257 . S
C175 O170 1.254 . S
C175 O171 1.269 . S
C176 O177 1.249 . S
C176 O178 1.270 . S
O177 Zn169 1.943 . S
O177 C176 1.249 . S
O178 Zn168 2.067 . S
O178 C176 1.270 . S
C179 O172 1.262 . S
C179 O180 1.232 . S
O180 C179 1.232 . S
C181 O173 1.260 . S
C181 O174 1.257 . S
Zn182 O185 2.031 . S
Zn182 O187 2.049 . S
Zn182 O192 2.067 . S
Zn183 O184 1.962 . S
Zn183 O186 1.986 . S
Zn183 O188 1.996 . S
Zn183 O191 1.943 . S
O184 Zn183 1.962 . S
O184 C189 1.254 . S
O185 Zn182 2.031 . S
O185 C189 1.269 . S
O186 Zn183 1.986 . S
O186 C193 1.262 . S
O187 Zn182 2.049 . S
O187 C195 1.260 . S
O188 Zn183 1.996 . S
O188 C195 1.257 . S
C189 O184 1.254 . S
C189 O185 1.269 . S
C190 O191 1.249 . S
C190 O192 1.270 . S
O191 Zn183 1.943 . S
O191 C190 1.249 . S
O192 Zn182 2.067 . S
O192 C190 1.270 . S
C193 O186 1.262 . S
C193 O194 1.232 . S
O194 C193 1.232 . S
C195 O187 1.260 . S
C195 O188 1.257 . S
Zn196 O199 2.031 . S
Zn196 O201 2.049 . S
Zn196 O206 2.067 . S
Zn197 O198 1.962 . S
Zn197 O200 1.986 . S
Zn197 O202 1.996 . S
Zn197 O205 1.943 . S
O198 Zn197 1.962 . S
O198 C203 1.254 . S
O199 Zn196 2.031 . S
O199 C203 1.269 . S
O200 Zn197 1.986 . S
O200 C207 1.262 . S
O201 Zn196 2.049 . S
O201 C209 1.260 . S
O202 Zn197 1.996 . S
O202 C209 1.257 . S
C203 O198 1.254 . S
C203 O199 1.269 . S
C204 O205 1.249 . S
C204 O206 1.270 . S
O205 Zn197 1.943 . S
O205 C204 1.249 . S
O206 Zn196 2.067 . S
O206 C204 1.270 . S
C207 O200 1.262 . S
C207 O208 1.232 . S
O208 C207 1.232 . S
C209 O201 1.260 . S
C209 O202 1.257 . S
Zn210 O213 2.031 . S
Zn210 O215 2.049 . S
Zn210 O220 2.067 . S
Zn211 O212 1.962 . S
Zn211 O214 1.986 . S
Zn211 O216 1.996 . S
Zn211 O219 1.943 . S
O212 Zn211 1.962 . S
O212 C217 1.254 . S
O213 Zn210 2.031 . S
O213 C217 1.269 . S
O214 Zn211 1.986 . S
O214 C221 1.262 . S
O215 Zn210 2.049 . S
O215 C223 1.260 . S
O216 Zn211 1.996 . S
O216 C223 1.257 . S
C217 O212 1.254 . S
C217 O213 1.269 . S
C218 O219 1.249 . S
C218 O220 1.270 . S
O219 Zn211 1.943 . S
O219 C218 1.249 . S
O220 Zn210 2.067 . S
O220 C218 1.270 . S
C221 O214 1.262 . S
C221 O222 1.232 . S
O222 C221 1.232 . S
C223 O215 1.260 . S
C223 O216 1.257 . S
C224 C225 1.331 1_556 S
C224 C226 1.327 . S
C224 H249 0.950 . S
C225 C224 1.331 1_554 S
C225 C241 1.367 . S
C226 C224 1.327 . S
C226 C245 1.429 1_556 S
C226 H250 0.950 . S
C227 C244 1.574 . S
C227 C246 1.368 . S
C227 H251 0.949 . S
H228 C232 0.949 . S
C229 C230 1.349 . S
C229 C231 1.327 . S
C229 H252 0.950 . S
C230 C229 1.349 . S
C230 C242 1.349 1_554 S
C231 C229 1.327 . S
C231 C247 1.429 . S
C231 H253 0.950 . S
C232 H228 0.949 . S
C232 C240 1.574 . S
C232 C248 1.368 1_556 S
H233 C241 0.950 . S
H234 C239 0.950 . S
H235 C240 0.949 . S
H236 C242 0.950 . S
H237 C243 0.950 . S
H238 C244 0.949 . S
C239 H234 0.950 . S
C239 C241 1.327 . S
C239 C245 1.429 . S
C240 C232 1.574 . S
C240 H235 0.949 . S
C240 C246 1.368 1_556 S
C241 C225 1.367 . S
C241 H233 0.950 . S
C241 C239 1.327 . S
C242 C230 1.349 1_556 S
C242 H236 0.950 . S
C242 C243 1.327 . S
C243 H237 0.950 . S
C243 C242 1.327 . S
C243 C247 1.429 1_556 S
C244 C227 1.574 . S
C244 H238 0.949 . S
C244 C248 1.368 . S
C245 C226 1.429 1_554 S
C245 C239 1.429 . S
C245 C246 1.523 . S
C246 C227 1.368 . S
C246 C240 1.368 1_554 S
C246 C245 1.523 . S
C247 C231 1.429 . S
C247 C243 1.429 1_554 S
C247 C248 1.523 . S
C248 C232 1.368 1_554 S
C248 C244 1.368 . S
C248 C247 1.523 . S
H249 C224 0.950 . S
H250 C226 0.950 . S
H251 C227 0.949 . S
H252 C229 0.950 . S
H253 C231 0.950 . S
C254 C255 1.362 . S
C254 C256 1.327 . S
C254 H279 0.950 . S
C255 C254 1.362 . S
C255 C271 1.336 1_554 S
C256 C254 1.327 . S
C256 C275 1.429 . S
C256 H280 0.950 . S
C257 C274 1.574 . S
C257 C276 1.368 1_556 S
C257 H281 0.949 . S
H258 C262 0.949 . S
C259 C260 1.349 1_556 S
C259 C261 1.327 . S
C259 H282 0.950 . S
C260 C259 1.349 1_554 S
C260 C272 1.349 . S
C261 C259 1.327 . S
C261 C277 1.429 1_556 S
C261 H283 0.950 . S
C262 H258 0.949 . S
C262 C270 1.574 . S
C262 C278 1.368 . S
H263 C271 0.950 . S
H264 C269 0.950 . S
H265 C270 0.949 . S
H266 C272 0.950 . S
H267 C273 0.950 . S
H268 C274 0.949 . S
C269 H264 0.950 . S
C269 C271 1.327 . S
C269 C275 1.429 1_556 S
C270 C262 1.574 . S
C270 H265 0.949 . S
C270 C276 1.368 . S
C271 C255 1.336 1_556 S
C271 H263 0.950 . S
C271 C269 1.327 . S
C272 C260 1.349 . S
C272 H266 0.950 . S
C272 C273 1.327 . S
C273 H267 0.950 . S
C273 C272 1.327 . S
C273 C277 1.429 . S
C274 C257 1.574 . S
C274 H268 0.949 . S
C274 C278 1.368 1_556 S
C275 C256 1.429 . S
C275 C269 1.429 1_554 S
C275 C276 1.523 . S
C276 C257 1.368 1_554 S
C276 C270 1.368 . S
C276 C275 1.523 . S
C277 C261 1.429 1_554 S
C277 C273 1.429 . S
C277 C278 1.523 . S
C278 C262 1.368 . S
C278 C274 1.368 1_554 S
C278 C277 1.523 . S
H279 C254 0.950 . S
H280 C256 0.950 . S
H281 C257 0.949 . S
H282 C259 0.950 . S
H283 C261 0.950 . S
C284 C285 1.331 1_556 S
C284 C286 1.327 . S
C284 H309 0.950 . S
C285 C284 1.331 1_554 S
C285 C301 1.367 . S
C286 C284 1.327 . S
C286 C305 1.429 1_556 S
C286 H310 0.950 . S
C287 C304 1.574 . S
C287 C306 1.368 . S
C287 H311 0.949 . S
H288 C292 0.949 . S
C289 C290 1.349 . S
C289 C291 1.327 . S
C289 H312 0.950 . S
C290 C289 1.349 . S
C290 C302 1.349 1_554 S
C291 C289 1.327 . S
C291 C307 1.429 . S
C291 H313 0.950 . S
C292 H288 0.949 . S
C292 C300 1.574 . S
C292 C308 1.368 1_556 S
H293 C301 0.950 . S
H294 C299 0.950 . S
H295 C300 0.949 . S
H296 C302 0.950 . S
H297 C303 0.950 . S
H298 C304 0.949 . S
C299 H294 0.950 . S
C299 C301 1.327 . S
C299 C305 1.429 . S
C300 C292 1.574 . S
C300 H295 0.949 . S
C300 C306 1.368 1_556 S
C301 C285 1.367 . S
C301 H293 0.950 . S
C301 C299 1.327 . S
C302 C290 1.349 1_556 S
C302 H296 0.950 . S
C302 C303 1.327 . S
C303 H297 0.950 . S
C303 C302 1.327 . S
C303 C307 1.429 1_556 S
C304 C287 1.574 . S
C304 H298 0.949 . S
C304 C308 1.368 . S
C305 C286 1.429 1_554 S
C305 C299 1.429 . S
C305 C306 1.523 . S
C306 C287 1.368 . S
C306 C300 1.368 1_554 S
C306 C305 1.523 . S
C307 C291 1.429 . S
C307 C303 1.429 1_554 S
C307 C308 1.523 . S
C308 C292 1.368 1_554 S
C308 C304 1.368 . S
C308 C307 1.523 . S
H309 C284 0.950 . S
H310 C286 0.950 . S
H311 C287 0.949 . S
H312 C289 0.950 . S
H313 C291 0.950 . S
C314 C315 1.336 1_556 S
C314 C316 1.327 . S
C314 H339 0.950 . S
C315 C314 1.336 1_554 S
C315 C331 1.362 . S
C316 C314 1.327 . S
C316 C335 1.429 1_556 S
C316 H340 0.950 . S
C317 C334 1.574 . S
C317 C336 1.368 . S
C317 H341 0.949 . S
H318 C322 0.949 . S
C319 C320 1.349 . S
C319 C321 1.327 . S
C319 H342 0.950 . S
C320 C319 1.349 . S
C320 C332 1.349 1_554 S
C321 C319 1.327 . S
C321 C337 1.429 . S
C321 H343 0.950 . S
C322 H318 0.949 . S
C322 C330 1.574 . S
C322 C338 1.368 1_556 S
H323 C331 0.950 . S
H324 C329 0.950 . S
H325 C330 0.949 . S
H326 C332 0.950 . S
H327 C333 0.950 . S
H328 C334 0.949 . S
C329 H324 0.950 . S
C329 C331 1.327 . S
C329 C335 1.429 . S
C330 C322 1.574 . S
C330 H325 0.949 . S
C330 C336 1.368 1_556 S
C331 C315 1.362 . S
C331 H323 0.950 . S
C331 C329 1.327 . S
C332 C320 1.349 1_556 S
C332 H326 0.950 . S
C332 C333 1.327 . S
C333 H327 0.950 . S
C333 C332 1.327 . S
C333 C337 1.429 1_556 S
C334 C317 1.574 . S
C334 H328 0.949 . S
C334 C338 1.368 . S
C335 C316 1.429 1_554 S
C335 C329 1.429 . S
C335 C336 1.523 . S
C336 C317 1.368 . S
C336 C330 1.368 1_554 S
C336 C335 1.523 . S
C337 C321 1.429 . S
C337 C333 1.429 1_554 S
C337 C338 1.523 . S
C338 C322 1.368 1_554 S
C338 C334 1.368 . S
C338 C337 1.523 . S
H339 C314 0.950 . S
H340 C316 0.950 . S
H341 C317 0.949 . S
H342 C319 0.950 . S
H343 C321 0.950 . S
C344 C345 1.349 . S
C344 C346 1.327 . S
C344 H369 0.950 . S
C345 C344 1.349 . S
C345 C361 1.349 . S
C346 C344 1.327 . S
C346 C365 1.429 . S
C346 H370 0.950 . S
C347 C364 1.574 1_545 S
C347 C366 1.368 . S
C347 H371 0.949 . S
H348 C352 0.949 . S
C349 C350 1.349 . S
C349 C351 1.327 . S
C349 H372 0.950 . S
C350 C349 1.349 . S
C350 C362 1.349 . S
C351 C349 1.327 . S
C351 C367 1.429 . S
C351 H373 0.950 . S
C352 H348 0.949 . S
C352 C360 1.574 1_565 S
C352 C368 1.368 . S
H353 C361 0.950 . S
H354 C359 0.950 . S
H355 C360 0.949 . S
H356 C362 0.950 . S
H357 C363 0.950 . S
H358 C364 0.949 . S
C359 H354 0.950 . S
C359 C361 1.327 . S
C359 C365 1.429 . S
C360 C352 1.574 1_545 S
C360 H355 0.949 . S
C360 C366 1.368 . S
C361 C345 1.349 . S
C361 H353 0.950 . S
C361 C359 1.327 . S
C362 C350 1.349 . S
C362 H356 0.950 . S
C362 C363 1.327 . S
C363 H357 0.950 . S
C363 C362 1.327 . S
C363 C367 1.429 . S
C364 C347 1.574 1_565 S
C364 H358 0.949 . S
C364 C368 1.368 . S
C365 C346 1.429 . S
C365 C359 1.429 . S
C365 C366 1.523 . S
C366 C347 1.368 . S
C366 C360 1.368 . S
C366 C365 1.523 . S
C367 C351 1.429 . S
C367 C363 1.429 . S
C367 C368 1.523 . S
C368 C352 1.368 . S
C368 C364 1.368 . S
C368 C367 1.523 . S
H369 C344 0.950 . S
H370 C346 0.950 . S
H371 C347 0.949 . S
H372 C349 0.950 . S
H373 C351 0.950 . S
C374 C375 1.349 . S
C374 C376 1.327 . S
C374 H399 0.950 . S
C375 C374 1.349 . S
C375 C391 1.349 . S
C376 C374 1.327 . S
C376 C395 1.429 . S
C376 H400 0.950 . S
C377 C394 1.574 1_655 S
C377 C396 1.368 . S
C377 H401 0.949 . S
H378 C382 0.949 . S
C379 C380 1.349 . S
C379 C381 1.327 . S
C379 H402 0.950 . S
C380 C379 1.349 . S
C380 C392 1.349 . S
C381 C379 1.327 . S
C381 C397 1.429 . S
C381 H403 0.950 . S
C382 H378 0.949 . S
C382 C390 1.574 1_455 S
C382 C398 1.368 . S
H383 C391 0.950 . S
H384 C389 0.950 . S
H385 C390 0.949 . S
H386 C392 0.950 . S
H387 C393 0.950 . S
H388 C394 0.949 . S
C389 H384 0.950 . S
C389 C391 1.327 . S
C389 C395 1.429 . S
C390 C382 1.574 1_655 S
C390 H385 0.949 . S
C390 C396 1.368 . S
C391 C375 1.349 . S
C391 H383 0.950 . S
C391 C389 1.327 . S
C392 C380 1.349 . S
C392 H386 0.950 . S
C392 C393 1.327 . S
C393 H387 0.950 . S
C393 C392 1.327 . S
C393 C397 1.429 . S
C394 C377 1.574 1_455 S
C394 H388 0.949 . S
C394 C398 1.368 . S
C395 C376 1.429 . S
C395 C389 1.429 . S
C395 C396 1.523 . S
C396 C377 1.368 . S
C396 C390 1.368 . S
C396 C395 1.523 . S
C397 C381 1.429 . S
C397 C393 1.429 . S
C397 C398 1.523 . S
C398 C382 1.368 . S
C398 C394 1.368 . S
C398 C397 1.523 . S
H399 C374 0.950 . S
H400 C376 0.950 . S
H401 C377 0.949 . S
H402 C379 0.950 . S
H403 C381 0.950 . S
C404 C405 1.349 . S
C404 C406 1.327 . S
C404 H429 0.950 . S
C405 C404 1.349 . S
C405 C421 1.349 . S
C406 C404 1.327 . S
C406 C425 1.429 . S
C406 H430 0.950 . S
C407 C424 1.574 1_545 S
C407 C426 1.368 . S
C407 H431 0.949 . S
H408 C412 0.949 . S
C409 C410 1.349 . S
C409 C411 1.327 . S
C409 H432 0.950 . S
C410 C409 1.349 . S
C410 C422 1.349 . S
C411 C409 1.327 . S
C411 C427 1.429 . S
C411 H433 0.950 . S
C412 H408 0.949 . S
C412 C420 1.574 1_565 S
C412 C428 1.368 . S
H413 C421 0.950 . S
H414 C419 0.950 . S
H415 C420 0.949 . S
H416 C422 0.950 . S
H417 C423 0.950 . S
H418 C424 0.949 . S
C419 H414 0.950 . S
C419 C421 1.327 . S
C419 C425 1.429 . S
C420 C412 1.574 1_545 S
C420 H415 0.949 . S
C420 C426 1.368 . S
C421 C405 1.349 . S
C421 H413 0.950 . S
C421 C419 1.327 . S
C422 C410 1.349 . S
C422 H416 0.950 . S
C422 C423 1.327 . S
C423 H417 0.950 . S
C423 C422 1.327 . S
C423 C427 1.429 . S
C424 C407 1.574 1_565 S
C424 H418 0.949 . S
C424 C428 1.368 . S
C425 C406 1.429 . S
C425 C419 1.429 . S
C425 C426 1.523 . S
C426 C407 1.368 . S
C426 C420 1.368 . S
C426 C425 1.523 . S
C427 C411 1.429 . S
C427 C423 1.429 . S
C427 C428 1.523 . S
C428 C412 1.368 . S
C428 C424 1.368 . S
C428 C427 1.523 . S
H429 C404 0.950 . S
H430 C406 0.950 . S
H431 C407 0.949 . S
H432 C409 0.950 . S
H433 C411 0.950 . S
C434 C435 1.349 . S
C434 C436 1.327 . S
C434 H459 0.950 . S
C435 C434 1.349 . S
C435 C451 1.349 . S
C436 C434 1.327 . S
C436 C455 1.429 . S
C436 H460 0.950 . S
C437 C454 1.574 1_455 S
C437 C456 1.368 . S
C437 H461 0.949 . S
H438 C442 0.949 . S
C439 C440 1.349 . S
C439 C441 1.327 . S
C439 H462 0.950 . S
C440 C439 1.349 . S
C440 C452 1.349 . S
C441 C439 1.327 . S
C441 C457 1.429 . S
C441 H463 0.950 . S
C442 H438 0.949 . S
C442 C450 1.574 1_655 S
C442 C458 1.368 . S
H443 C451 0.950 . S
H444 C449 0.950 . S
H445 C450 0.949 . S
H446 C452 0.950 . S
H447 C453 0.950 . S
H448 C454 0.949 . S
C449 H444 0.950 . S
C449 C451 1.327 . S
C449 C455 1.429 . S
C450 C442 1.574 1_455 S
C450 H445 0.949 . S
C450 C456 1.368 . S
C451 C435 1.349 . S
C451 H443 0.950 . S
C451 C449 1.327 . S
C452 C440 1.349 . S
C452 H446 0.950 . S
C452 C453 1.327 . S
C453 H447 0.950 . S
C453 C452 1.327 . S
C453 C457 1.429 . S
C454 C437 1.574 1_655 S
C454 H448 0.949 . S
C454 C458 1.368 . S
C455 C436 1.429 . S
C455 C449 1.429 . S
C455 C456 1.523 . S
C456 C437 1.368 . S
C456 C450 1.368 . S
C456 C455 1.523 . S
C457 C441 1.429 . S
C457 C453 1.429 . S
C457 C458 1.523 . S
C458 C442 1.368 . S
C458 C454 1.368 . S
C458 C457 1.523 . S
H459 C434 0.950 . S
H460 C436 0.950 . S
H461 C437 0.949 . S
H462 C439 0.950 . S
H463 C441 0.950 . S
C464 C465 1.342 1_554 S
C464 C466 1.327 . S
C464 H489 0.950 . S
C465 C464 1.342 1_556 S
C465 C481 1.355 . S
C466 C464 1.327 . S
C466 C485 1.429 . S
C466 H490 0.950 . S
C467 C484 1.574 . S
C467 C486 1.368 1_556 S
C467 H491 0.949 . S
H468 C472 0.949 . S
C469 C470 1.349 1_556 S
C469 C471 1.327 . S
C469 H492 0.950 . S
C470 C469 1.349 1_554 S
C470 C482 1.349 . S
C471 C469 1.327 . S
C471 C487 1.429 1_556 S
C471 H493 0.950 . S
C472 H468 0.949 . S
C472 C480 1.574 . S
C472 C488 1.368 . S
H473 C481 0.950 . S
H474 C479 0.950 . S
H475 C480 0.949 . S
H476 C482 0.950 . S
H477 C483 0.950 . S
H478 C484 0.949 . S
C479 H474 0.950 . S
C479 C481 1.327 . S
C479 C485 1.429 1_556 S
C480 C472 1.574 . S
C480 H475 0.949 . S
C480 C486 1.368 . S
C481 C465 1.355 . S
C481 H473 0.950 . S
C481 C479 1.327 . S
C482 C470 1.349 . S
C482 H476 0.950 . S
C482 C483 1.327 . S
C483 H477 0.950 . S
C483 C482 1.327 . S
C483 C487 1.429 . S
C484 C467 1.574 . S
C484 H478 0.949 . S
C484 C488 1.368 1_556 S
C485 C466 1.429 . S
C485 C479 1.429 1_554 S
C485 C486 1.523 . S
C486 C467 1.368 1_554 S
C486 C480 1.368 . S
C486 C485 1.523 . S
C487 C471 1.429 1_554 S
C487 C483 1.429 . S
C487 C488 1.523 . S
C488 C472 1.368 . S
C488 C484 1.368 1_554 S
C488 C487 1.523 . S
H489 C464 0.950 . S
H490 C466 0.950 . S
H491 C467 0.949 . S
H492 C469 0.950 . S
H493 C471 0.950 . S
C494 C495 1.349 . S
C494 C496 1.327 . S
C494 H519 0.950 . S
C495 C494 1.349 . S
C495 C511 1.349 1_554 S
C496 C494 1.327 . S
C496 C515 1.429 . S
C496 H520 0.950 . S
C497 C514 1.574 . S
C497 C516 1.368 1_556 S
C497 H521 0.949 . S
H498 C502 0.949 . S
C499 C500 1.351 . S
C499 C501 1.327 . S
C499 H522 0.950 . S
C500 C499 1.351 . S
C500 C512 1.347 1_556 S
C501 C499 1.327 . S
C501 C517 1.429 1_556 S
C501 H523 0.950 . S
C502 H498 0.949 . S
C502 C510 1.574 . S
C502 C518 1.368 . S
H503 C511 0.950 . S
H504 C509 0.950 . S
H505 C510 0.949 . S
H506 C512 0.950 . S
H507 C513 0.950 . S
H508 C514 0.949 . S
C509 H504 0.950 . S
C509 C511 1.327 . S
C509 C515 1.429 1_556 S
C510 C502 1.574 . S
C510 H505 0.949 . S
C510 C516 1.368 . S
C511 C495 1.349 1_556 S
C511 H503 0.950 . S
C511 C509 1.327 . S
C512 C500 1.347 1_554 S
C512 H506 0.950 . S
C512 C513 1.327 . S
C513 H507 0.950 . S
C513 C512 1.327 . S
C513 C517 1.429 . S
C514 C497 1.574 . S
C514 H508 0.949 . S
C514 C518 1.368 1_556 S
C515 C496 1.429 . S
C515 C509 1.429 1_554 S
C515 C516 1.523 . S
C516 C497 1.368 1_554 S
C516 C510 1.368 . S
C516 C515 1.523 . S
C517 C501 1.429 1_554 S
C517 C513 1.429 . S
C517 C518 1.523 . S
C518 C502 1.368 . S
C518 C514 1.368 1_554 S
C518 C517 1.523 . S
H519 C494 0.950 . S
H520 C496 0.950 . S
H521 C497 0.949 . S
H522 C499 0.950 . S
H523 C501 0.950 . S
C524 C525 1.342 1_554 S
C524 C526 1.327 . S
C524 H549 0.950 . S
C525 C524 1.342 1_556 S
C525 C541 1.355 . S
C526 C524 1.327 . S
C526 C545 1.429 . S
C526 H550 0.950 . S
C527 C544 1.574 . S
C527 C546 1.368 1_556 S
C527 H551 0.949 . S
H528 C532 0.949 . S
C529 C530 1.349 1_556 S
C529 C531 1.327 . S
C529 H552 0.950 . S
C530 C529 1.349 1_554 S
C530 C542 1.349 . S
C531 C529 1.327 . S
C531 C547 1.429 1_556 S
C531 H553 0.950 . S
C532 H528 0.949 . S
C532 C540 1.574 . S
C532 C548 1.368 . S
H533 C541 0.950 . S
H534 C539 0.950 . S
H535 C540 0.949 . S
H536 C542 0.950 . S
H537 C543 0.950 . S
H538 C544 0.949 . S
C539 H534 0.950 . S
C539 C541 1.327 . S
C539 C545 1.429 1_556 S
C540 C532 1.574 . S
C540 H535 0.949 . S
C540 C546 1.368 . S
C541 C525 1.355 . S
C541 H533 0.950 . S
C541 C539 1.327 . S
C542 C530 1.349 . S
C542 H536 0.950 . S
C542 C543 1.327 . S
C543 H537 0.950 . S
C543 C542 1.327 . S
C543 C547 1.429 . S
C544 C527 1.574 . S
C544 H538 0.949 . S
C544 C548 1.368 1_556 S
C545 C526 1.429 . S
C545 C539 1.429 1_554 S
C545 C546 1.523 . S
C546 C527 1.368 1_554 S
C546 C540 1.368 . S
C546 C545 1.523 . S
C547 C531 1.429 1_554 S
C547 C543 1.429 . S
C547 C548 1.523 . S
C548 C532 1.368 . S
C548 C544 1.368 1_554 S
C548 C547 1.523 . S
H549 C524 0.950 . S
H550 C526 0.950 . S
H551 C527 0.949 . S
H552 C529 0.950 . S
H553 C531 0.950 . S
C554 C555 1.349 1_556 S
C554 C556 1.327 . S
C554 H579 0.950 . S
C555 C554 1.349 1_554 S
C555 C571 1.349 . S
C556 C554 1.327 . S
C556 C575 1.429 1_556 S
C556 H580 0.950 . S
C557 C574 1.574 . S
C557 C576 1.368 . S
C557 H581 0.949 . S
H558 C562 0.949 . S
C559 C560 1.342 1_554 S
C559 C561 1.327 . S
C559 H582 0.950 . S
C560 C559 1.342 1_556 S
C560 C572 1.355 . S
C561 C559 1.327 . S
C561 C577 1.429 . S
C561 H583 0.950 . S
C562 H558 0.949 . S
C562 C570 1.574 . S
C562 C578 1.368 1_556 S
H563 C571 0.950 . S
H564 C569 0.950 . S
H565 C570 0.949 . S
H566 C572 0.950 . S
H567 C573 0.950 . S
H568 C574 0.949 . S
C569 H564 0.950 . S
C569 C571 1.327 . S
C569 C575 1.429 . S
C570 C562 1.574 . S
C570 H565 0.949 . S
C570 C576 1.368 1_556 S
C571 C555 1.349 . S
C571 H563 0.950 . S
C571 C569 1.327 . S
C572 C560 1.355 . S
C572 H566 0.950 . S
C572 C573 1.327 . S
C573 H567 0.950 . S
C573 C572 1.327 . S
C573 C577 1.429 1_556 S
C574 C557 1.574 . S
C574 H568 0.949 . S
C574 C578 1.368 . S
C575 C556 1.429 1_554 S
C575 C569 1.429 . S
C575 C576 1.523 . S
C576 C557 1.368 . S
C576 C570 1.368 1_554 S
C576 C575 1.523 . S
C577 C561 1.429 . S
C577 C573 1.429 1_554 S
C577 C578 1.523 . S
C578 C562 1.368 1_554 S
C578 C574 1.368 . S
C578 C577 1.523 . S
H579 C554 0.950 . S
H580 C556 0.950 . S
H581 C557 0.949 . S
H582 C559 0.950 . S
H583 C561 0.950 . S
C584 C585 1.349 . S
C584 C586 1.327 . S
C584 H609 0.950 . S
C585 C584 1.349 . S
C585 C601 1.349 . S
C586 C584 1.327 . S
C586 C605 1.429 . S
C586 H610 0.950 . S
C587 C604 1.574 . S
C587 C606 1.368 . S
C587 H611 0.949 . S
H588 C592 0.949 . S
C589 C590 1.349 . S
C589 C591 1.327 . S
C589 H612 0.950 . S
C590 C589 1.349 . S
C590 C602 1.349 . S
C591 C589 1.327 . S
C591 C607 1.429 . S
C591 H613 0.950 . S
C592 H588 0.949 . S
C592 C600 1.574 . S
C592 C608 1.368 . S
H593 C601 0.950 . S
H594 C599 0.950 . S
H595 C600 0.949 . S
H596 C602 0.950 . S
H597 C603 0.950 . S
H598 C604 0.949 . S
C599 H594 0.950 . S
C599 C601 1.327 . S
C599 C605 1.429 . S
C600 C592 1.574 . S
C600 H595 0.949 . S
C600 C606 1.368 . S
C601 C585 1.349 . S
C601 H593 0.950 . S
C601 C599 1.327 . S
C602 C590 1.349 . S
C602 H596 0.950 . S
C602 C603 1.327 . S
C603 H597 0.950 . S
C603 C602 1.327 . S
C603 C607 1.429 . S
C604 C587 1.574 . S
C604 H598 0.949 . S
C604 C608 1.368 . S
C605 C586 1.429 . S
C605 C599 1.429 . S
C605 C606 1.523 . S
C606 C587 1.368 . S
C606 C600 1.368 . S
C606 C605 1.523 . S
C607 C591 1.429 . S
C607 C603 1.429 . S
C607 C608 1.523 . S
C608 C592 1.368 . S
C608 C604 1.368 . S
C608 C607 1.523 . S
H609 C584 0.950 . S
H610 C586 0.950 . S
H611 C587 0.949 . S
H612 C589 0.950 . S
H613 C591 0.950 . S
C614 C615 1.349 . S
C614 C616 1.327 . S
C614 H639 0.950 . S
C615 C614 1.349 . S
C615 C631 1.349 . S
C616 C614 1.327 . S
C616 C635 1.429 . S
C616 H640 0.950 . S
C617 C634 1.574 . S
C617 C636 1.368 . S
C617 H641 0.949 . S
H618 C622 0.949 . S
C619 C620 1.349 . S
C619 C621 1.327 . S
C619 H642 0.950 . S
C620 C619 1.349 . S
C620 C632 1.349 . S
C621 C619 1.327 . S
C621 C637 1.429 . S
C621 H643 0.950 . S
C622 H618 0.949 . S
C622 C630 1.574 . S
C622 C638 1.368 . S
H623 C631 0.950 . S
H624 C629 0.950 . S
H625 C630 0.949 . S
H626 C632 0.950 . S
H627 C633 0.950 . S
H628 C634 0.949 . S
C629 H624 0.950 . S
C629 C631 1.327 . S
C629 C635 1.429 . S
C630 C622 1.574 . S
C630 H625 0.949 . S
C630 C636 1.368 . S
C631 C615 1.349 . S
C631 H623 0.950 . S
C631 C629 1.327 . S
C632 C620 1.349 . S
C632 H626 0.950 . S
C632 C633 1.327 . S
C633 H627 0.950 . S
C633 C632 1.327 . S
C633 C637 1.429 . S
C634 C617 1.574 . S
C634 H628 0.949 . S
C634 C638 1.368 . S
C635 C616 1.429 . S
C635 C629 1.429 . S
C635 C636 1.523 . S
C636 C617 1.368 . S
C636 C630 1.368 . S
C636 C635 1.523 . S
C637 C621 1.429 . S
C637 C633 1.429 . S
C637 C638 1.523 . S
C638 C622 1.368 . S
C638 C634 1.368 . S
C638 C637 1.523 . S
H639 C614 0.950 . S
H640 C616 0.950 . S
H641 C617 0.949 . S
H642 C619 0.950 . S
H643 C621 0.950 . S
C644 C645 1.349 . S
C644 C646 1.327 . S
C644 H669 0.950 . S
C645 C644 1.349 . S
C645 C661 1.349 . S
C646 C644 1.327 . S
C646 C665 1.429 . S
C646 H670 0.950 . S
C647 C664 1.574 . S
C647 C666 1.368 . S
C647 H671 0.949 . S
H648 C652 0.949 . S
C649 C650 1.349 . S
C649 C651 1.327 . S
C649 H672 0.950 . S
C650 C649 1.349 . S
C650 C662 1.349 . S
C651 C649 1.327 . S
C651 C667 1.429 . S
C651 H673 0.950 . S
C652 H648 0.949 . S
C652 C660 1.574 . S
C652 C668 1.368 . S
H653 C661 0.950 . S
H654 C659 0.950 . S
H655 C660 0.949 . S
H656 C662 0.950 . S
H657 C663 0.950 . S
H658 C664 0.949 . S
C659 H654 0.950 . S
C659 C661 1.327 . S
C659 C665 1.429 . S
C660 C652 1.574 . S
C660 H655 0.949 . S
C660 C666 1.368 . S
C661 C645 1.349 . S
C661 H653 0.950 . S
C661 C659 1.327 . S
C662 C650 1.349 . S
C662 H656 0.950 . S
C662 C663 1.327 . S
C663 H657 0.950 . S
C663 C662 1.327 . S
C663 C667 1.429 . S
C664 C647 1.574 . S
C664 H658 0.949 . S
C664 C668 1.368 . S
C665 C646 1.429 . S
C665 C659 1.429 . S
C665 C666 1.523 . S
C666 C647 1.368 . S
C666 C660 1.368 . S
C666 C665 1.523 . S
C667 C651 1.429 . S
C667 C663 1.429 . S
C667 C668 1.523 . S
C668 C652 1.368 . S
C668 C664 1.368 . S
C668 C667 1.523 . S
H669 C644 0.950 . S
H670 C646 0.950 . S
H671 C647 0.949 . S
H672 C649 0.950 . S
H673 C651 0.950 . S
C674 C675 1.349 . S
C674 C676 1.327 . S
C674 H699 0.950 . S
C675 C674 1.349 . S
C675 C691 1.349 . S
C676 C674 1.327 . S
C676 C695 1.429 . S
C676 H700 0.950 . S
C677 C694 1.574 . S
C677 C696 1.368 . S
C677 H701 0.949 . S
H678 C682 0.949 . S
C679 C680 1.349 . S
C679 C681 1.327 . S
C679 H702 0.950 . S
C680 C679 1.349 . S
C680 C692 1.349 . S
C681 C679 1.327 . S
C681 C697 1.429 . S
C681 H703 0.950 . S
C682 H678 0.949 . S
C682 C690 1.574 . S
C682 C698 1.368 . S
H683 C691 0.950 . S
H684 C689 0.950 . S
H685 C690 0.949 . S
H686 C692 0.950 . S
H687 C693 0.950 . S
H688 C694 0.949 . S
C689 H684 0.950 . S
C689 C691 1.327 . S
C689 C695 1.429 . S
C690 C682 1.574 . S
C690 H685 0.949 . S
C690 C696 1.368 . S
C691 C675 1.349 . S
C691 H683 0.950 . S
C691 C689 1.327 . S
C692 C680 1.349 . S
C692 H686 0.950 . S
C692 C693 1.327 . S
C693 H687 0.950 . S
C693 C692 1.327 . S
C693 C697 1.429 . S
C694 C677 1.574 . S
C694 H688 0.949 . S
C694 C698 1.368 . S
C695 C676 1.429 . S
C695 C689 1.429 . S
C695 C696 1.523 . S
C696 C677 1.368 . S
C696 C690 1.368 . S
C696 C695 1.523 . S
C697 C681 1.429 . S
C697 C693 1.429 . S
C697 C698 1.523 . S
C698 C682 1.368 . S
C698 C694 1.368 . S
C698 C697 1.523 . S
H699 C674 0.950 . S
H700 C676 0.950 . S
H701 C677 0.949 . S
H702 C679 0.950 . S
H703 C681 0.950 . S
C704 C705 1.349 . S
C704 C706 1.327 . S
C704 H729 0.950 . S
C705 C704 1.349 . S
C705 C721 1.349 . S
C706 C704 1.327 . S
C706 C725 1.429 . S
C706 H730 0.950 . S
C707 C724 1.574 . S
C707 C726 1.368 . S
C707 H731 0.949 . S
H708 C712 0.949 . S
C709 C710 1.349 . S
C709 C711 1.327 . S
C709 H732 0.950 . S
C710 C709 1.349 . S
C710 C722 1.349 . S
C711 C709 1.327 . S
C711 C727 1.429 . S
C711 H733 0.950 . S
C712 H708 0.949 . S
C712 C720 1.574 . S
C712 C728 1.368 . S
H713 C721 0.950 . S
H714 C719 0.950 . S
H715 C720 0.949 . S
H716 C722 0.950 . S
H717 C723 0.950 . S
H718 C724 0.949 . S
C719 H714 0.950 . S
C719 C721 1.327 . S
C719 C725 1.429 . S
C720 C712 1.574 . S
C720 H715 0.949 . S
C720 C726 1.368 . S
C721 C705 1.349 . S
C721 H713 0.950 . S
C721 C719 1.327 . S
C722 C710 1.349 . S
C722 H716 0.950 . S
C722 C723 1.327 . S
C723 H717 0.950 . S
C723 C722 1.327 . S
C723 C727 1.429 . S
C724 C707 1.574 . S
C724 H718 0.949 . S
C724 C728 1.368 . S
C725 C706 1.429 . S
C725 C719 1.429 . S
C725 C726 1.523 . S
C726 C707 1.368 . S
C726 C720 1.368 . S
C726 C725 1.523 . S
C727 C711 1.429 . S
C727 C723 1.429 . S
C727 C728 1.523 . S
C728 C712 1.368 . S
C728 C724 1.368 . S
C728 C727 1.523 . S
H729 C704 0.950 . S
H730 C706 0.950 . S
H731 C707 0.949 . S
H732 C709 0.950 . S
H733 C711 0.950 . S
C734 C735 1.349 . S
C734 C736 1.327 . S
C734 H759 0.950 . S
C735 C734 1.349 . S
C735 C751 1.349 . S
C736 C734 1.327 . S
C736 C755 1.429 . S
C736 H760 0.950 . S
C737 C754 1.574 . S
C737 C756 1.368 . S
C737 H761 0.949 . S
H738 C742 0.949 . S
C739 C740 1.349 . S
C739 C741 1.327 . S
C739 H762 0.950 . S
C740 C739 1.349 . S
C740 C752 1.349 . S
C741 C739 1.327 . S
C741 C757 1.429 . S
C741 H763 0.950 . S
C742 H738 0.949 . S
C742 C750 1.574 . S
C742 C758 1.368 . S
H743 C751 0.950 . S
H744 C749 0.950 . S
H745 C750 0.949 . S
H746 C752 0.950 . S
H747 C753 0.950 . S
H748 C754 0.949 . S
C749 H744 0.950 . S
C749 C751 1.327 . S
C749 C755 1.429 . S
C750 C742 1.574 . S
C750 H745 0.949 . S
C750 C756 1.368 . S
C751 C735 1.349 . S
C751 H743 0.950 . S
C751 C749 1.327 . S
C752 C740 1.349 . S
C752 H746 0.950 . S
C752 C753 1.327 . S
C753 H747 0.950 . S
C753 C752 1.327 . S
C753 C757 1.429 . S
C754 C737 1.574 . S
C754 H748 0.949 . S
C754 C758 1.368 . S
C755 C736 1.429 . S
C755 C749 1.429 . S
C755 C756 1.523 . S
C756 C737 1.368 . S
C756 C750 1.368 . S
C756 C755 1.523 . S
C757 C741 1.429 . S
C757 C753 1.429 . S
C757 C758 1.523 . S
C758 C742 1.368 . S
C758 C754 1.368 . S
C758 C757 1.523 . S
H759 C734 0.950 . S
H760 C736 0.950 . S
H761 C737 0.949 . S
H762 C739 0.950 . S
H763 C741 0.950 . S
C764 C765 1.349 . S
C764 C766 1.327 . S
C764 H789 0.950 . S
C765 C764 1.349 . S
C765 C781 1.349 . S
C766 C764 1.327 . S
C766 C785 1.429 . S
C766 H790 0.950 . S
C767 C784 1.574 . S
C767 C786 1.368 . S
C767 H791 0.949 . S
H768 C772 0.949 . S
C769 C770 1.349 . S
C769 C771 1.327 . S
C769 H792 0.950 . S
C770 C769 1.349 . S
C770 C782 1.349 . S
C771 C769 1.327 . S
C771 C787 1.429 . S
C771 H793 0.950 . S
C772 H768 0.949 . S
C772 C780 1.574 . S
C772 C788 1.368 . S
H773 C781 0.950 . S
H774 C779 0.950 . S
H775 C780 0.949 . S
H776 C782 0.950 . S
H777 C783 0.950 . S
H778 C784 0.949 . S
C779 H774 0.950 . S
C779 C781 1.327 . S
C779 C785 1.429 . S
C780 C772 1.574 . S
C780 H775 0.949 . S
C780 C786 1.368 . S
C781 C765 1.349 . S
C781 H773 0.950 . S
C781 C779 1.327 . S
C782 C770 1.349 . S
C782 H776 0.950 . S
C782 C783 1.327 . S
C783 H777 0.950 . S
C783 C782 1.327 . S
C783 C787 1.429 . S
C784 C767 1.574 . S
C784 H778 0.949 . S
C784 C788 1.368 . S
C785 C766 1.429 . S
C785 C779 1.429 . S
C785 C786 1.523 . S
C786 C767 1.368 . S
C786 C780 1.368 . S
C786 C785 1.523 . S
C787 C771 1.429 . S
C787 C783 1.429 . S
C787 C788 1.523 . S
C788 C772 1.368 . S
C788 C784 1.368 . S
C788 C787 1.523 . S
H789 C764 0.950 . S
H790 C766 0.950 . S
H791 C767 0.949 . S
H792 C769 0.950 . S
H793 C771 0.950 . S
C794 C795 1.349 . S
C794 C796 1.327 . S
C794 H819 0.950 . S
C795 C794 1.349 . S
C795 C811 1.349 . S
C796 C794 1.327 . S
C796 C815 1.429 . S
C796 H820 0.950 . S
C797 C814 1.574 . S
C797 C816 1.368 . S
C797 H821 0.949 . S
H798 C802 0.949 . S
C799 C800 1.349 . S
C799 C801 1.327 . S
C799 H822 0.950 . S
C800 C799 1.349 . S
C800 C812 1.349 . S
C801 C799 1.327 . S
C801 C817 1.429 . S
C801 H823 0.950 . S
C802 H798 0.949 . S
C802 C810 1.574 . S
C802 C818 1.368 . S
H803 C811 0.950 . S
H804 C809 0.950 . S
H805 C810 0.949 . S
H806 C812 0.950 . S
H807 C813 0.950 . S
H808 C814 0.949 . S
C809 H804 0.950 . S
C809 C811 1.327 . S
C809 C815 1.429 . S
C810 C802 1.574 . S
C810 H805 0.949 . S
C810 C816 1.368 . S
C811 C795 1.349 . S
C811 H803 0.950 . S
C811 C809 1.327 . S
C812 C800 1.349 . S
C812 H806 0.950 . S
C812 C813 1.327 . S
C813 H807 0.950 . S
C813 C812 1.327 . S
C813 C817 1.429 . S
C814 C797 1.574 . S
C814 H808 0.949 . S
C814 C818 1.368 . S
C815 C796 1.429 . S
C815 C809 1.429 . S
C815 C816 1.523 . S
C816 C797 1.368 . S
C816 C810 1.368 . S
C816 C815 1.523 . S
C817 C801 1.429 . S
C817 C813 1.429 . S
C817 C818 1.523 . S
C818 C802 1.368 . S
C818 C814 1.368 . S
C818 C817 1.523 . S
H819 C794 0.950 . S
H820 C796 0.950 . S
H821 C797 0.949 . S
H822 C799 0.950 . S
H823 C801 0.950 . S
C824 C825 1.349 . S
C824 C826 1.327 . S
C824 H849 0.950 . S
C825 C824 1.349 . S
C825 C841 1.349 . S
C826 C824 1.327 . S
C826 C845 1.429 . S
C826 H850 0.950 . S
C827 C844 1.574 . S
C827 C846 1.368 . S
C827 H851 0.949 . S
H828 C832 0.949 . S
C829 C830 1.349 . S
C829 C831 1.327 . S
C829 H852 0.950 . S
C830 C829 1.349 . S
C830 C842 1.349 . S
C831 C829 1.327 . S
C831 C847 1.429 . S
C831 H853 0.950 . S
C832 H828 0.949 . S
C832 C840 1.574 . S
C832 C848 1.368 . S
H833 C841 0.950 . S
H834 C839 0.950 . S
H835 C840 0.949 . S
H836 C842 0.950 . S
H837 C843 0.950 . S
H838 C844 0.949 . S
C839 H834 0.950 . S
C839 C841 1.327 . S
C839 C845 1.429 . S
C840 C832 1.574 . S
C840 H835 0.949 . S
C840 C846 1.368 . S
C841 C825 1.349 . S
C841 H833 0.950 . S
C841 C839 1.327 . S
C842 C830 1.349 . S
C842 H836 0.950 . S
C842 C843 1.327 . S
C843 H837 0.950 . S
C843 C842 1.327 . S
C843 C847 1.429 . S
C844 C827 1.574 . S
C844 H838 0.949 . S
C844 C848 1.368 . S
C845 C826 1.429 . S
C845 C839 1.429 . S
C845 C846 1.523 . S
C846 C827 1.368 . S
C846 C840 1.368 . S
C846 C845 1.523 . S
C847 C831 1.429 . S
C847 C843 1.429 . S
C847 C848 1.523 . S
C848 C832 1.368 . S
C848 C844 1.368 . S
C848 C847 1.523 . S
H849 C824 0.950 . S
H850 C826 0.950 . S
H851 C827 0.949 . S
H852 C829 0.950 . S
H853 C831 0.950 . S
C854 C855 1.349 . S
C854 C856 1.327 . S
C854 H879 0.950 . S
C855 C854 1.349 . S
C855 C871 1.349 . S
C856 C854 1.327 . S
C856 C875 1.429 . S
C856 H880 0.950 . S
C857 C874 1.574 . S
C857 C876 1.368 . S
C857 H881 0.949 . S
H858 C862 0.949 . S
C859 C860 1.349 . S
C859 C861 1.327 . S
C859 H882 0.950 . S
C860 C859 1.349 . S
C860 C872 1.349 . S
C861 C859 1.327 . S
C861 C877 1.429 . S
C861 H883 0.950 . S
C862 H858 0.949 . S
C862 C870 1.574 . S
C862 C878 1.368 . S
H863 C871 0.950 . S
H864 C869 0.950 . S
H865 C870 0.949 . S
H866 C872 0.950 . S
H867 C873 0.950 . S
H868 C874 0.949 . S
C869 H864 0.950 . S
C869 C871 1.327 . S
C869 C875 1.429 . S
C870 C862 1.574 . S
C870 H865 0.949 . S
C870 C876 1.368 . S
C871 C855 1.349 . S
C871 H863 0.950 . S
C871 C869 1.327 . S
C872 C860 1.349 . S
C872 H866 0.950 . S
C872 C873 1.327 . S
C873 H867 0.950 . S
C873 C872 1.327 . S
C873 C877 1.429 . S
C874 C857 1.574 . S
C874 H868 0.949 . S
C874 C878 1.368 . S
C875 C856 1.429 . S
C875 C869 1.429 . S
C875 C876 1.523 . S
C876 C857 1.368 . S
C876 C870 1.368 . S
C876 C875 1.523 . S
C877 C861 1.429 . S
C877 C873 1.429 . S
C877 C878 1.523 . S
C878 C862 1.368 . S
C878 C874 1.368 . S
C878 C877 1.523 . S
H879 C854 0.950 . S
H880 C856 0.950 . S
H881 C857 0.949 . S
H882 C859 0.950 . S
H883 C861 0.950 . S
C884 C885 1.349 . S
C884 C886 1.327 . S
C884 H909 0.950 . S
C885 C884 1.349 . S
C885 C901 1.349 . S
C886 C884 1.327 . S
C886 C905 1.429 . S
C886 H910 0.950 . S
C887 C904 1.574 . S
C887 C906 1.368 . S
C887 H911 0.949 . S
H888 C892 0.949 . S
C889 C890 1.349 . S
C889 C891 1.327 . S
C889 H912 0.950 . S
C890 C889 1.349 . S
C890 C902 1.349 . S
C891 C889 1.327 . S
C891 C907 1.429 . S
C891 H913 0.950 . S
C892 H888 0.949 . S
C892 C900 1.574 . S
C892 C908 1.368 . S
H893 C901 0.950 . S
H894 C899 0.950 . S
H895 C900 0.949 . S
H896 C902 0.950 . S
H897 C903 0.950 . S
H898 C904 0.949 . S
C899 H894 0.950 . S
C899 C901 1.327 . S
C899 C905 1.429 . S
C900 C892 1.574 . S
C900 H895 0.949 . S
C900 C906 1.368 . S
C901 C885 1.349 . S
C901 H893 0.950 . S
C901 C899 1.327 . S
C902 C890 1.349 . S
C902 H896 0.950 . S
C902 C903 1.327 . S
C903 H897 0.950 . S
C903 C902 1.327 . S
C903 C907 1.429 . S
C904 C887 1.574 . S
C904 H898 0.949 . S
C904 C908 1.368 . S
C905 C886 1.429 . S
C905 C899 1.429 . S
C905 C906 1.523 . S
C906 C887 1.368 . S
C906 C900 1.368 . S
C906 C905 1.523 . S
C907 C891 1.429 . S
C907 C903 1.429 . S
C907 C908 1.523 . S
C908 C892 1.368 . S
C908 C904 1.368 . S
C908 C907 1.523 . S
H909 C884 0.950 . S
H910 C886 0.950 . S
H911 C887 0.949 . S
H912 C889 0.950 . S
H913 C891 0.950 . S
C914 C915 1.349 . S
C914 C916 1.327 . S
C914 H939 0.950 . S
C915 C914 1.349 . S
C915 C931 1.349 . S
C916 C914 1.327 . S
C916 C935 1.429 . S
C916 H940 0.950 . S
C917 C934 1.574 . S
C917 C936 1.368 . S
C917 H941 0.949 . S
H918 C922 0.949 . S
C919 C920 1.349 . S
C919 C921 1.327 . S
C919 H942 0.950 . S
C920 C919 1.349 . S
C920 C932 1.349 . S
C921 C919 1.327 . S
C921 C937 1.429 . S
C921 H943 0.950 . S
C922 H918 0.949 . S
C922 C930 1.574 . S
C922 C938 1.368 . S
H923 C931 0.950 . S
H924 C929 0.950 . S
H925 C930 0.949 . S
H926 C932 0.950 . S
H927 C933 0.950 . S
H928 C934 0.949 . S
C929 H924 0.950 . S
C929 C931 1.327 . S
C929 C935 1.429 . S
C930 C922 1.574 . S
C930 H925 0.949 . S
C930 C936 1.368 . S
C931 C915 1.349 . S
C931 H923 0.950 . S
C931 C929 1.327 . S
C932 C920 1.349 . S
C932 H926 0.950 . S
C932 C933 1.327 . S
C933 H927 0.950 . S
C933 C932 1.327 . S
C933 C937 1.429 . S
C934 C917 1.574 . S
C934 H928 0.949 . S
C934 C938 1.368 . S
C935 C916 1.429 . S
C935 C929 1.429 . S
C935 C936 1.523 . S
C936 C917 1.368 . S
C936 C930 1.368 . S
C936 C935 1.523 . S
C937 C921 1.429 . S
C937 C933 1.429 . S
C937 C938 1.523 . S
C938 C922 1.368 . S
C938 C934 1.368 . S
C938 C937 1.523 . S
H939 C914 0.950 . S
H940 C916 0.950 . S
H941 C917 0.949 . S
H942 C919 0.950 . S
H943 C921 0.950 . S
C944 C945 1.349 . S
C944 C946 1.327 . S
C944 H969 0.950 . S
C945 C944 1.349 . S
C945 C961 1.349 . S
C946 C944 1.327 . S
C946 C965 1.429 . S
C946 H970 0.950 . S
C947 C964 1.574 . S
C947 C966 1.368 . S
C947 H971 0.949 . S
H948 C952 0.949 . S
C949 C950 1.349 . S
C949 C951 1.327 . S
C949 H972 0.950 . S
C950 C949 1.349 . S
C950 C962 1.349 . S
C951 C949 1.327 . S
C951 C967 1.429 . S
C951 H973 0.950 . S
C952 H948 0.949 . S
C952 C960 1.574 . S
C952 C968 1.368 . S
H953 C961 0.950 . S
H954 C959 0.950 . S
H955 C960 0.949 . S
H956 C962 0.950 . S
H957 C963 0.950 . S
H958 C964 0.949 . S
C959 H954 0.950 . S
C959 C961 1.327 . S
C959 C965 1.429 . S
C960 C952 1.574 . S
C960 H955 0.949 . S
C960 C966 1.368 . S
C961 C945 1.349 . S
C961 H953 0.950 . S
C961 C959 1.327 . S
C962 C950 1.349 . S
C962 H956 0.950 . S
C962 C963 1.327 . S
C963 H957 0.950 . S
C963 C962 1.327 . S
C963 C967 1.429 . S
C964 C947 1.574 . S
C964 H958 0.949 . S
C964 C968 1.368 . S
C965 C946 1.429 . S
C965 C959 1.429 . S
C965 C966 1.523 . S
C966 C947 1.368 . S
C966 C960 1.368 . S
C966 C965 1.523 . S
C967 C951 1.429 . S
C967 C963 1.429 . S
C967 C968 1.523 . S
C968 C952 1.368 . S
C968 C964 1.368 . S
C968 C967 1.523 . S
H969 C944 0.950 . S
H970 C946 0.950 . S
H971 C947 0.949 . S
H972 C949 0.950 . S
H973 C951 0.950 . S
C974 C975 1.349 . S
C974 C976 1.327 . S
C974 H999 0.950 . S
C975 C974 1.349 . S
C975 C991 1.349 . S
C976 C974 1.327 . S
C976 C995 1.429 . S
C976 H1000 0.950 . S
C977 C994 1.574 . S
C977 C996 1.368 . S
C977 H1001 0.949 . S
H978 C982 0.949 . S
C979 C980 1.349 . S
C979 C981 1.327 . S
C979 H1002 0.950 . S
C980 C979 1.349 . S
C980 C992 1.349 . S
C981 C979 1.327 . S
C981 C997 1.429 . S
C981 H1003 0.950 . S
C982 H978 0.949 . S
C982 C990 1.574 . S
C982 C998 1.368 . S
H983 C991 0.950 . S
H984 C989 0.950 . S
H985 C990 0.949 . S
H986 C992 0.950 . S
H987 C993 0.950 . S
H988 C994 0.949 . S
C989 H984 0.950 . S
C989 C991 1.327 . S
C989 C995 1.429 . S
C990 C982 1.574 . S
C990 H985 0.949 . S
C990 C996 1.368 . S
C991 C975 1.349 . S
C991 H983 0.950 . S
C991 C989 1.327 . S
C992 C980 1.349 . S
C992 H986 0.950 . S
C992 C993 1.327 . S
C993 H987 0.950 . S
C993 C992 1.327 . S
C993 C997 1.429 . S
C994 C977 1.574 . S
C994 H988 0.949 . S
C994 C998 1.368 . S
C995 C976 1.429 . S
C995 C989 1.429 . S
C995 C996 1.523 . S
C996 C977 1.368 . S
C996 C990 1.368 . S
C996 C995 1.523 . S
C997 C981 1.429 . S
C997 C993 1.429 . S
C997 C998 1.523 . S
C998 C982 1.368 . S
C998 C994 1.368 . S
C998 C997 1.523 . S
H999 C974 0.950 . S
H1000 C976 0.950 . S
H1001 C977 0.949 . S
H1002 C979 0.950 . S
H1003 C981 0.950 . S
C1004 C1005 1.349 . S
C1004 C1006 1.327 . S
C1004 H1029 0.950 . S
C1005 C1004 1.349 . S
C1005 C1021 1.349 . S
C1006 C1004 1.327 . S
C1006 C1025 1.429 . S
C1006 H1030 0.950 . S
C1007 C1024 1.574 . S
C1007 C1026 1.368 . S
C1007 H1031 0.949 . S
H1008 C1012 0.949 . S
C1009 C1010 1.349 . S
C1009 C1011 1.327 . S
C1009 H1032 0.950 . S
C1010 C1009 1.349 . S
C1010 C1022 1.349 . S
C1011 C1009 1.327 . S
C1011 C1027 1.429 . S
C1011 H1033 0.950 . S
C1012 H1008 0.949 . S
C1012 C1020 1.574 . S
C1012 C1028 1.368 . S
H1013 C1021 0.950 . S
H1014 C1019 0.950 . S
H1015 C1020 0.949 . S
H1016 C1022 0.950 . S
H1017 C1023 0.950 . S
H1018 C1024 0.949 . S
C1019 H1014 0.950 . S
C1019 C1021 1.327 . S
C1019 C1025 1.429 . S
C1020 C1012 1.574 . S
C1020 H1015 0.949 . S
C1020 C1026 1.368 . S
C1021 C1005 1.349 . S
C1021 H1013 0.950 . S
C1021 C1019 1.327 . S
C1022 C1010 1.349 . S
C1022 H1016 0.950 . S
C1022 C1023 1.327 . S
C1023 H1017 0.950 . S
C1023 C1022 1.327 . S
C1023 C1027 1.429 . S
C1024 C1007 1.574 . S
C1024 H1018 0.949 . S
C1024 C1028 1.368 . S
C1025 C1006 1.429 . S
C1025 C1019 1.429 . S
C1025 C1026 1.523 . S
C1026 C1007 1.368 . S
C1026 C1020 1.368 . S
C1026 C1025 1.523 . S
C1027 C1011 1.429 . S
C1027 C1023 1.429 . S
C1027 C1028 1.523 . S
C1028 C1012 1.368 . S
C1028 C1024 1.368 . S
C1028 C1027 1.523 . S
H1029 C1004 0.950 . S
H1030 C1006 0.950 . S
H1031 C1007 0.949 . S
H1032 C1009 0.950 . S
H1033 C1011 0.950 . S
C1034 C1035 1.349 . S
C1034 C1036 1.327 . S
C1034 H1059 0.950 . S
C1035 C1034 1.349 . S
C1035 C1051 1.349 . S
C1036 C1034 1.327 . S
C1036 C1055 1.429 . S
C1036 H1060 0.950 . S
C1037 C1054 1.574 . S
C1037 C1056 1.368 . S
C1037 H1061 0.949 . S
H1038 C1042 0.949 . S
C1039 C1040 1.349 . S
C1039 C1041 1.327 . S
C1039 H1062 0.950 . S
C1040 C1039 1.349 . S
C1040 C1052 1.349 . S
C1041 C1039 1.327 . S
C1041 C1057 1.429 . S
C1041 H1063 0.950 . S
C1042 H1038 0.949 . S
C1042 C1050 1.574 . S
C1042 C1058 1.368 . S
H1043 C1051 0.950 . S
H1044 C1049 0.950 . S
H1045 C1050 0.949 . S
H1046 C1052 0.950 . S
H1047 C1053 0.950 . S
H1048 C1054 0.949 . S
C1049 H1044 0.950 . S
C1049 C1051 1.327 . S
C1049 C1055 1.429 . S
C1050 C1042 1.574 . S
C1050 H1045 0.949 . S
C1050 C1056 1.368 . S
C1051 C1035 1.349 . S
C1051 H1043 0.950 . S
C1051 C1049 1.327 . S
C1052 C1040 1.349 . S
C1052 H1046 0.950 . S
C1052 C1053 1.327 . S
C1053 H1047 0.950 . S
C1053 C1052 1.327 . S
C1053 C1057 1.429 . S
C1054 C1037 1.574 . S
C1054 H1048 0.949 . S
C1054 C1058 1.368 . S
C1055 C1036 1.429 . S
C1055 C1049 1.429 . S
C1055 C1056 1.523 . S
C1056 C1037 1.368 . S
C1056 C1050 1.368 . S
C1056 C1055 1.523 . S
C1057 C1041 1.429 . S
C1057 C1053 1.429 . S
C1057 C1058 1.523 . S
C1058 C1042 1.368 . S
C1058 C1054 1.368 . S
C1058 C1057 1.523 . S
H1059 C1034 0.950 . S
H1060 C1036 0.950 . S
H1061 C1037 0.949 . S
H1062 C1039 0.950 . S
H1063 C1041 0.950 . S
C1064 C1065 1.349 . S
C1064 C1066 1.327 . S
C1064 H1089 0.950 . S
C1065 C1064 1.349 . S
C1065 C1081 1.349 . S
C1066 C1064 1.327 . S
C1066 C1085 1.429 . S
C1066 H1090 0.950 . S
C1067 C1084 1.574 . S
C1067 C1086 1.368 . S
C1067 H1091 0.949 . S
H1068 C1072 0.949 . S
C1069 C1070 1.349 . S
C1069 C1071 1.327 . S
C1069 H1092 0.950 . S
C1070 C1069 1.349 . S
C1070 C1082 1.349 . S
C1071 C1069 1.327 . S
C1071 C1087 1.429 . S
C1071 H1093 0.950 . S
C1072 H1068 0.949 . S
C1072 C1080 1.574 . S
C1072 C1088 1.368 . S
H1073 C1081 0.950 . S
H1074 C1079 0.950 . S
H1075 C1080 0.949 . S
H1076 C1082 0.950 . S
H1077 C1083 0.950 . S
H1078 C1084 0.949 . S
C1079 H1074 0.950 . S
C1079 C1081 1.327 . S
C1079 C1085 1.429 . S
C1080 C1072 1.574 . S
C1080 H1075 0.949 . S
C1080 C1086 1.368 . S
C1081 C1065 1.349 . S
C1081 H1073 0.950 . S
C1081 C1079 1.327 . S
C1082 C1070 1.349 . S
C1082 H1076 0.950 . S
C1082 C1083 1.327 . S
C1083 H1077 0.950 . S
C1083 C1082 1.327 . S
C1083 C1087 1.429 . S
C1084 C1067 1.574 . S
C1084 H1078 0.949 . S
C1084 C1088 1.368 . S
C1085 C1066 1.429 . S
C1085 C1079 1.429 . S
C1085 C1086 1.523 . S
C1086 C1067 1.368 . S
C1086 C1080 1.368 . S
C1086 C1085 1.523 . S
C1087 C1071 1.429 . S
C1087 C1083 1.429 . S
C1087 C1088 1.523 . S
C1088 C1072 1.368 . S
C1088 C1084 1.368 . S
C1088 C1087 1.523 . S
H1089 C1064 0.950 . S
H1090 C1066 0.950 . S
H1091 C1067 0.949 . S
H1092 C1069 0.950 . S
H1093 C1071 0.950 . S
C1094 C1095 1.349 . S
C1094 C1096 1.327 . S
C1094 H1119 0.950 . S
C1095 C1094 1.349 . S
C1095 C1111 1.349 . S
C1096 C1094 1.327 . S
C1096 C1115 1.429 . S
C1096 H1120 0.950 . S
C1097 C1114 1.574 . S
C1097 C1116 1.368 . S
C1097 H1121 0.949 . S
H1098 C1102 0.949 . S
C1099 C1100 1.349 . S
C1099 C1101 1.327 . S
C1099 H1122 0.950 . S
C1100 C1099 1.349 . S
C1100 C1112 1.349 . S
C1101 C1099 1.327 . S
C1101 C1117 1.429 . S
C1101 H1123 0.950 . S
C1102 H1098 0.949 . S
C1102 C1110 1.574 . S
C1102 C1118 1.368 . S
H1103 C1111 0.950 . S
H1104 C1109 0.950 . S
H1105 C1110 0.949 . S
H1106 C1112 0.950 . S
H1107 C1113 0.950 . S
H1108 C1114 0.949 . S
C1109 H1104 0.950 . S
C1109 C1111 1.327 . S
C1109 C1115 1.429 . S
C1110 C1102 1.574 . S
C1110 H1105 0.949 . S
C1110 C1116 1.368 . S
C1111 C1095 1.349 . S
C1111 H1103 0.950 . S
C1111 C1109 1.327 . S
C1112 C1100 1.349 . S
C1112 H1106 0.950 . S
C1112 C1113 1.327 . S
C1113 H1107 0.950 . S
C1113 C1112 1.327 . S
C1113 C1117 1.429 . S
C1114 C1097 1.574 . S
C1114 H1108 0.949 . S
C1114 C1118 1.368 . S
C1115 C1096 1.429 . S
C1115 C1109 1.429 . S
C1115 C1116 1.523 . S
C1116 C1097 1.368 . S
C1116 C1110 1.368 . S
C1116 C1115 1.523 . S
C1117 C1101 1.429 . S
C1117 C1113 1.429 . S
C1117 C1118 1.523 . S
C1118 C1102 1.368 . S
C1118 C1114 1.368 . S
C1118 C1117 1.523 . S
H1119 C1094 0.950 . S
H1120 C1096 0.950 . S
H1121 C1097 0.949 . S
H1122 C1099 0.950 . S
H1123 C1101 0.950 . S
C1124 C1125 1.349 . S
C1124 C1126 1.327 . S
C1124 H1149 0.950 . S
C1125 C1124 1.349 . S
C1125 C1141 1.349 . S
C1126 C1124 1.327 . S
C1126 C1145 1.429 . S
C1126 H1150 0.950 . S
C1127 C1144 1.574 . S
C1127 C1146 1.368 . S
C1127 H1151 0.949 . S
H1128 C1132 0.949 . S
C1129 C1130 1.349 . S
C1129 C1131 1.327 . S
C1129 H1152 0.950 . S
C1130 C1129 1.349 . S
C1130 C1142 1.349 . S
C1131 C1129 1.327 . S
C1131 C1147 1.429 . S
C1131 H1153 0.950 . S
C1132 H1128 0.949 . S
C1132 C1140 1.574 . S
C1132 C1148 1.368 . S
H1133 C1141 0.950 . S
H1134 C1139 0.950 . S
H1135 C1140 0.949 . S
H1136 C1142 0.950 . S
H1137 C1143 0.950 . S
H1138 C1144 0.949 . S
C1139 H1134 0.950 . S
C1139 C1141 1.327 . S
C1139 C1145 1.429 . S
C1140 C1132 1.574 . S
C1140 H1135 0.949 . S
C1140 C1146 1.368 . S
C1141 C1125 1.349 . S
C1141 H1133 0.950 . S
C1141 C1139 1.327 . S
C1142 C1130 1.349 . S
C1142 H1136 0.950 . S
C1142 C1143 1.327 . S
C1143 H1137 0.950 . S
C1143 C1142 1.327 . S
C1143 C1147 1.429 . S
C1144 C1127 1.574 . S
C1144 H1138 0.949 . S
C1144 C1148 1.368 . S
C1145 C1126 1.429 . S
C1145 C1139 1.429 . S
C1145 C1146 1.523 . S
C1146 C1127 1.368 . S
C1146 C1140 1.368 . S
C1146 C1145 1.523 . S
C1147 C1131 1.429 . S
C1147 C1143 1.429 . S
C1147 C1148 1.523 . S
C1148 C1132 1.368 . S
C1148 C1144 1.368 . S
C1148 C1147 1.523 . S
H1149 C1124 0.950 . S
H1150 C1126 0.950 . S
H1151 C1127 0.949 . S
H1152 C1129 0.950 . S
H1153 C1131 0.950 . S
C1154 C1155 1.349 . S
C1154 C1156 1.327 . S
C1154 H1179 0.950 . S
C1155 C1154 1.349 . S
C1155 C1171 1.349 . S
C1156 C1154 1.327 . S
C1156 C1175 1.429 . S
C1156 H1180 0.950 . S
C1157 C1174 1.574 . S
C1157 C1176 1.368 . S
C1157 H1181 0.949 . S
H1158 C1162 0.949 . S
C1159 C1160 1.349 . S
C1159 C1161 1.327 . S
C1159 H1182 0.950 . S
C1160 C1159 1.349 . S
C1160 C1172 1.349 . S
C1161 C1159 1.327 . S
C1161 C1177 1.429 . S
C1161 H1183 0.950 . S
C1162 H1158 0.949 . S
C1162 C1170 1.574 . S
C1162 C1178 1.368 . S
H1163 C1171 0.950 . S
H1164 C1169 0.950 . S
H1165 C1170 0.949 . S
H1166 C1172 0.950 . S
H1167 C1173 0.950 . S
H1168 C1174 0.949 . S
C1169 H1164 0.950 . S
C1169 C1171 1.327 . S
C1169 C1175 1.429 . S
C1170 C1162 1.574 . S
C1170 H1165 0.949 . S
C1170 C1176 1.368 . S
C1171 C1155 1.349 . S
C1171 H1163 0.950 . S
C1171 C1169 1.327 . S
C1172 C1160 1.349 . S
C1172 H1166 0.950 . S
C1172 C1173 1.327 . S
C1173 H1167 0.950 . S
C1173 C1172 1.327 . S
C1173 C1177 1.429 . S
C1174 C1157 1.574 . S
C1174 H1168 0.949 . S
C1174 C1178 1.368 . S
C1175 C1156 1.429 . S
C1175 C1169 1.429 . S
C1175 C1176 1.523 . S
C1176 C1157 1.368 . S
C1176 C1170 1.368 . S
C1176 C1175 1.523 . S
C1177 C1161 1.429 . S
C1177 C1173 1.429 . S
C1177 C1178 1.523 . S
C1178 C1162 1.368 . S
C1178 C1174 1.368 . S
C1178 C1177 1.523 . S
H1179 C1154 0.950 . S
H1180 C1156 0.950 . S
H1181 C1157 0.949 . S
H1182 C1159 0.950 . S
H1183 C1161 0.950 . S
C225 C67 1.160 . S
C230 C11 1.157 . S
C255 C81 1.160 . S
C260 C25 1.157 . S
C285 C95 1.160 . S
C290 C39 1.157 . S
C315 C109 1.160 . S
C320 C53 1.157 . S
C345 C179 1.157 . S
C350 C123 1.157 . S
C375 C193 1.157 . S
C380 C137 1.157 . S
C405 C151 1.157 . S
C410 C207 1.157 . S
C435 C221 1.157 . S
C440 C165 1.157 . S
C465 C8 1.097 1_556 S
C470 C78 1.098 1_554 S
C495 C92 1.098 1_554 S
C500 C22 1.097 1_556 S
C525 C36 1.097 1_556 S
C530 C106 1.098 1_554 S
C555 C64 1.098 1_554 S
C560 C50 1.097 1_556 S
C585 C190 1.099 . S
C590 C120 1.099 . S
C615 C204 1.099 . S
C620 C134 1.099 . S
C645 C148 1.099 . S
C650 C218 1.099 . S
C675 C162 1.099 . S
C680 C176 1.099 . S
C705 C223 1.324 . S
C710 C13 1.324 . S
C735 C181 1.324 . S
C740 C27 1.324 . S
C765 C195 1.324 . S
C770 C41 1.324 . S
C795 C209 1.324 . S
C800 C55 1.324 . S
C825 C139 1.324 . S
C830 C69 1.324 . S
C855 C153 1.324 . S
C860 C83 1.324 . S
C885 C97 1.324 . S
C890 C167 1.324 . S
C915 C111 1.324 . S
C920 C125 1.324 . S
C945 C189 1.548 . S
C950 C35 1.548 . S
C975 C203 1.548 . S
C980 C49 1.548 . S
C1005 C217 1.548 . S
C1010 C7 1.548 . S
C1035 C21 1.548 . S
C1040 C175 1.548 . S
C1065 C161 1.548 . S
C1070 C91 1.548 . S
C1095 C105 1.548 . S
C1100 C119 1.548 . S
C1125 C133 1.548 . S
C1130 C63 1.548 . S
C1155 C147 1.548 . S
C1160 C77 1.548 . S
