# Generated by pormake.
# Topology sxe, (6)-cn, num edge types: 1
# Building blocks:
#     Node 0, Type 0, BuildingBlock: IZENUY_clean_sbu_0, # of connection points: 6
#     Node 1, Type 0, BuildingBlock: IZENUY_clean_sbu_0, # of connection points: 6
#     Node 2, Type 0, BuildingBlock: IZENUY_clean_sbu_0, # of connection points: 6
#     Node 3, Type 0, BuildingBlock: IZENUY_clean_sbu_0, # of connection points: 6
#     Node 4, Type 0, BuildingBlock: IZENUY_clean_sbu_0, # of connection points: 6
#     Node 5, Type 0, BuildingBlock: IZENUY_clean_sbu_0, # of connection points: 6
#     Node 6, Type 0, BuildingBlock: IZENUY_clean_sbu_0, # of connection points: 6
#     Node 7, Type 0, BuildingBlock: IZENUY_clean_sbu_0, # of connection points: 6
#     Node 8, Type 0, BuildingBlock: IZENUY_clean_sbu_0, # of connection points: 6
#     Node 9, Type 0, BuildingBlock: IZENUY_clean_sbu_0, # of connection points: 6
#     Node 10, Type 0, BuildingBlock: IZENUY_clean_sbu_0, # of connection points: 6
#     Node 11, Type 0, BuildingBlock: IZENUY_clean_sbu_0, # of connection points: 6
#     Node 12, Type 0, BuildingBlock: IZENUY_clean_sbu_0, # of connection points: 6
#     Node 13, Type 0, BuildingBlock: IZENUY_clean_sbu_0, # of connection points: 6
#     Node 14, Type 0, BuildingBlock: IZENUY_clean_sbu_0, # of connection points: 6
#     Node 15, Type 0, BuildingBlock: IZENUY_clean_sbu_0, # of connection points: 6
#     Node 16, Type 0, BuildingBlock: IZENUY_clean_sbu_0, # of connection points: 6
#     Node 17, Type 0, BuildingBlock: IZENUY_clean_sbu_0, # of connection points: 6
#     Node 18, Type 0, BuildingBlock: IZENUY_clean_sbu_0, # of connection points: 6
#     Node 19, Type 0, BuildingBlock: IZENUY_clean_sbu_0, # of connection points: 6
#     Node 20, Type 0, BuildingBlock: IZENUY_clean_sbu_0, # of connection points: 6
#     Node 21, Type 0, BuildingBlock: IZENUY_clean_sbu_0, # of connection points: 6
#     Node 22, Type 0, BuildingBlock: IZENUY_clean_sbu_0, # of connection points: 6
#     Node 23, Type 0, BuildingBlock: IZENUY_clean_sbu_0, # of connection points: 6
#     Edge 24, Type (0, 0), BuildingBlock: ZUJKAS_clean_linker_0, # of connection points: 2
#     Edge 25, Type (0, 0), BuildingBlock: ZUJKAS_clean_linker_0, # of connection points: 2
#     Edge 26, Type (0, 0), BuildingBlock: ZUJKAS_clean_linker_0, # of connection points: 2
#     Edge 27, Type (0, 0), BuildingBlock: ZUJKAS_clean_linker_0, # of connection points: 2
#     Edge 28, Type (0, 0), BuildingBlock: ZUJKAS_clean_linker_0, # of connection points: 2
#     Edge 29, Type (0, 0), BuildingBlock: ZUJKAS_clean_linker_0, # of connection points: 2
#     Edge 30, Type (0, 0), BuildingBlock: ZUJKAS_clean_linker_0, # of connection points: 2
#     Edge 31, Type (0, 0), BuildingBlock: ZUJKAS_clean_linker_0, # of connection points: 2
#     Edge 32, Type (0, 0), BuildingBlock: ZUJKAS_clean_linker_0, # of connection points: 2
#     Edge 33, Type (0, 0), BuildingBlock: ZUJKAS_clean_linker_0, # of connection points: 2
#     Edge 34, Type (0, 0), BuildingBlock: ZUJKAS_clean_linker_0, # of connection points: 2
#     Edge 35, Type (0, 0), BuildingBlock: ZUJKAS_clean_linker_0, # of connection points: 2
#     Edge 36, Type (0, 0), BuildingBlock: ZUJKAS_clean_linker_0, # of connection points: 2
#     Edge 37, Type (0, 0), BuildingBlock: ZUJKAS_clean_linker_0, # of connection points: 2
#     Edge 38, Type (0, 0), BuildingBlock: ZUJKAS_clean_linker_0, # of connection points: 2
#     Edge 39, Type (0, 0), BuildingBlock: ZUJKAS_clean_linker_0, # of connection points: 2
#     Edge 40, Type (0, 0), BuildingBlock: ZUJKAS_clean_linker_0, # of connection points: 2
#     Edge 41, Type (0, 0), BuildingBlock: ZUJKAS_clean_linker_0, # of connection points: 2
#     Edge 42, Type (0, 0), BuildingBlock: ZUJKAS_clean_linker_0, # of connection points: 2
#     Edge 43, Type (0, 0), BuildingBlock: ZUJKAS_clean_linker_0, # of connection points: 2
#     Edge 44, Type (0, 0), BuildingBlock: ZUJKAS_clean_linker_0, # of connection points: 2
#     Edge 45, Type (0, 0), BuildingBlock: ZUJKAS_clean_linker_0, # of connection points: 2
#     Edge 46, Type (0, 0), BuildingBlock: ZUJKAS_clean_linker_0, # of connection points: 2
#     Edge 47, Type (0, 0), BuildingBlock: ZUJKAS_clean_linker_0, # of connection points: 2
#     Edge 48, Type (0, 0), BuildingBlock: ZUJKAS_clean_linker_0, # of connection points: 2
#     Edge 49, Type (0, 0), BuildingBlock: ZUJKAS_clean_linker_0, # of connection points: 2
#     Edge 50, Type (0, 0), BuildingBlock: ZUJKAS_clean_linker_0, # of connection points: 2
#     Edge 51, Type (0, 0), BuildingBlock: ZUJKAS_clean_linker_0, # of connection points: 2
#     Edge 52, Type (0, 0), BuildingBlock: ZUJKAS_clean_linker_0, # of connection points: 2
#     Edge 53, Type (0, 0), BuildingBlock: ZUJKAS_clean_linker_0, # of connection points: 2
#     Edge 54, Type (0, 0), BuildingBlock: ZUJKAS_clean_linker_0, # of connection points: 2
#     Edge 55, Type (0, 0), BuildingBlock: ZUJKAS_clean_linker_0, # of connection points: 2
#     Edge 56, Type (0, 0), BuildingBlock: ZUJKAS_clean_linker_0, # of connection points: 2
#     Edge 57, Type (0, 0), BuildingBlock: ZUJKAS_clean_linker_0, # of connection points: 2
#     Edge 58, Type (0, 0), BuildingBlock: ZUJKAS_clean_linker_0, # of connection points: 2
#     Edge 59, Type (0, 0), BuildingBlock: ZUJKAS_clean_linker_0, # of connection points: 2
#     Edge 60, Type (0, 0), BuildingBlock: ZUJKAS_clean_linker_0, # of connection points: 2
#     Edge 61, Type (0, 0), BuildingBlock: ZUJKAS_clean_linker_0, # of connection points: 2
#     Edge 62, Type (0, 0), BuildingBlock: ZUJKAS_clean_linker_0, # of connection points: 2
#     Edge 63, Type (0, 0), BuildingBlock: ZUJKAS_clean_linker_0, # of connection points: 2
#     Edge 64, Type (0, 0), BuildingBlock: ZUJKAS_clean_linker_0, # of connection points: 2
#     Edge 65, Type (0, 0), BuildingBlock: ZUJKAS_clean_linker_0, # of connection points: 2
#     Edge 66, Type (0, 0), BuildingBlock: ZUJKAS_clean_linker_0, # of connection points: 2
#     Edge 67, Type (0, 0), BuildingBlock: ZUJKAS_clean_linker_0, # of connection points: 2
#     Edge 68, Type (0, 0), BuildingBlock: ZUJKAS_clean_linker_0, # of connection points: 2
#     Edge 69, Type (0, 0), BuildingBlock: ZUJKAS_clean_linker_0, # of connection points: 2
#     Edge 70, Type (0, 0), BuildingBlock: ZUJKAS_clean_linker_0, # of connection points: 2
#     Edge 71, Type (0, 0), BuildingBlock: ZUJKAS_clean_linker_0, # of connection points: 2
#     Edge 72, Type (0, 0), BuildingBlock: ZUJKAS_clean_linker_0, # of connection points: 2
#     Edge 73, Type (0, 0), BuildingBlock: ZUJKAS_clean_linker_0, # of connection points: 2
#     Edge 74, Type (0, 0), BuildingBlock: ZUJKAS_clean_linker_0, # of connection points: 2
#     Edge 75, Type (0, 0), BuildingBlock: ZUJKAS_clean_linker_0, # of connection points: 2
#     Edge 76, Type (0, 0), BuildingBlock: ZUJKAS_clean_linker_0, # of connection points: 2
#     Edge 77, Type (0, 0), BuildingBlock: ZUJKAS_clean_linker_0, # of connection points: 2
#     Edge 78, Type (0, 0), BuildingBlock: ZUJKAS_clean_linker_0, # of connection points: 2
#     Edge 79, Type (0, 0), BuildingBlock: ZUJKAS_clean_linker_0, # of connection points: 2
#     Edge 80, Type (0, 0), BuildingBlock: ZUJKAS_clean_linker_0, # of connection points: 2
#     Edge 81, Type (0, 0), BuildingBlock: ZUJKAS_clean_linker_0, # of connection points: 2
#     Edge 82, Type (0, 0), BuildingBlock: ZUJKAS_clean_linker_0, # of connection points: 2
#     Edge 83, Type (0, 0), BuildingBlock: ZUJKAS_clean_linker_0, # of connection points: 2
#     Edge 84, Type (0, 0), BuildingBlock: ZUJKAS_clean_linker_0, # of connection points: 2
#     Edge 85, Type (0, 0), BuildingBlock: ZUJKAS_clean_linker_0, # of connection points: 2
#     Edge 86, Type (0, 0), BuildingBlock: ZUJKAS_clean_linker_0, # of connection points: 2
#     Edge 87, Type (0, 0), BuildingBlock: ZUJKAS_clean_linker_0, # of connection points: 2
#     Edge 88, Type (0, 0), BuildingBlock: ZUJKAS_clean_linker_0, # of connection points: 2
#     Edge 89, Type (0, 0), BuildingBlock: ZUJKAS_clean_linker_0, # of connection points: 2
#     Edge 90, Type (0, 0), BuildingBlock: ZUJKAS_clean_linker_0, # of connection points: 2
#     Edge 91, Type (0, 0), BuildingBlock: ZUJKAS_clean_linker_0, # of connection points: 2
#     Edge 92, Type (0, 0), BuildingBlock: ZUJKAS_clean_linker_0, # of connection points: 2
#     Edge 93, Type (0, 0), BuildingBlock: ZUJKAS_clean_linker_0, # of connection points: 2
#     Edge 94, Type (0, 0), BuildingBlock: ZUJKAS_clean_linker_0, # of connection points: 2
#     Edge 95, Type (0, 0), BuildingBlock: ZUJKAS_clean_linker_0, # of connection points: 2
# Relax obj value: 0.307
# Max RMSD: 0.230
# Mean RMSD: 0.230
data_MOF--net-sxe--node1-IZENUY_clean_sbu_0--edge1-ZUJKAS_clean_linker_0
_symmetry_space_group_name_H-M    P1
_symmetry_Int_Tables_number       1
_symmetry_cell_setting            triclinic
loop_
_symmetry_equiv_pos_as_xyz
'x, y, z'
_cell_length_a     60.767216
_cell_length_b     60.763277
_cell_length_c     60.76465
_cell_angle_alpha  89.999328
_cell_angle_beta   90.022512
_cell_angle_gamma 89.986508
loop_
_atom_site_label
_atom_site_type_symbol
_atom_site_fract_x
_atom_site_fract_y
_atom_site_fract_z
_atom_type_partial_charge
Fe0 Fe 0.15943 0.43438 0.25878 0.0
Fe1 Fe 0.17821 0.39832 0.22891 0.0
O2 O 0.17621 0.42639 0.23628 0.0
Fe3 Fe 0.19115 0.44638 0.22117 0.0
O4 O 0.19561 0.46494 0.24477 0.0
O5 O 0.18252 0.44661 0.27301 0.0
O6 O 0.16476 0.4093 0.27506 0.0
C7 C 0.18031 0.39544 0.27368 0.0
C8 C 0.15185 0.46747 0.22669 0.0
O9 O 0.18936 0.39142 0.25549 0.0
C10 C 0.17616 0.41677 0.18823 0.0
O11 O 0.13497 0.42263 0.24628 0.0
O12 O 0.1502 0.39113 0.23745 0.0
O13 O 0.16601 0.46026 0.21338 0.0
O14 O 0.15134 0.46091 0.2465 0.0
C15 C 0.22169 0.41359 0.2243 0.0
O16 O 0.16743 0.40357 0.20165 0.0
O17 O 0.18929 0.4316 0.1948 0.0
C18 C 0.13322 0.40273 0.24071 0.0
O19 O 0.20662 0.40016 0.21927 0.0
O20 O 0.21736 0.43356 0.22796 0.0
C21 C 0.19465 0.46155 0.26534 0.0
Fe22 Fe 0.33965 0.55929 0.75826 0.0
Fe23 Fe 0.32023 0.5978 0.73213 0.0
O24 O 0.32085 0.56939 0.73837 0.0
Fe25 Fe 0.30251 0.55106 0.72495 0.0
O26 O 0.29022 0.54282 0.75096 0.0
O27 O 0.32164 0.53721 0.76796 0.0
O28 O 0.32766 0.57646 0.77965 0.0
C29 C 0.3258 0.59709 0.77835 0.0
C30 C 0.34247 0.52719 0.72689 0.0
O31 O 0.32749 0.60681 0.76 0.0
C32 C 0.31402 0.57742 0.69042 0.0
O33 O 0.3611 0.57975 0.75235 0.0
O34 O 0.34882 0.5977 0.72352 0.0
O35 O 0.3217 0.52784 0.72523 0.0
O36 O 0.35271 0.54135 0.73817 0.0
C37 C 0.27619 0.58892 0.73205 0.0
O38 O 0.3128 0.59391 0.70312 0.0
O39 O 0.3134 0.55809 0.69803 0.0
C40 C 0.3645 0.59215 0.73594 0.0
O41 O 0.29162 0.60001 0.74038 0.0
O42 O 0.28011 0.57108 0.72207 0.0
C43 C 0.30092 0.53535 0.76712 0.0
Fe44 Fe 0.69733 0.05046 0.78169 0.0
Fe45 Fe 0.6644 0.06564 0.74616 0.0
O46 O 0.68128 0.07143 0.76924 0.0
Fe47 Fe 0.68235 0.09841 0.78 0.0
O48 O 0.71082 0.0964 0.78969 0.0
O49 O 0.72286 0.06523 0.77618 0.0
O50 O 0.7022 0.03497 0.75608 0.0
C51 C 0.70041 0.04046 0.73605 0.0
C52 C 0.6814 0.07529 0.81811 0.0
O53 O 0.68752 0.05564 0.73036 0.0
C54 C 0.63749 0.09452 0.76748 0.0
O55 O 0.67305 0.03446 0.78795 0.0
O56 O 0.65703 0.03775 0.75555 0.0
O57 O 0.67158 0.08919 0.8062 0.0
O58 O 0.69524 0.06206 0.80971 0.0
C59 C 0.68424 0.10669 0.73588 0.0
O60 O 0.63969 0.07534 0.75993 0.0
O61 O 0.65423 0.10591 0.77221 0.0
C62 C 0.65869 0.02843 0.7742 0.0
O63 O 0.66917 0.09251 0.73285 0.0
O64 O 0.69323 0.10891 0.75445 0.0
C65 C 0.72655 0.08441 0.78322 0.0
Fe66 Fe 0.84603 0.93882 0.23702 0.0
Fe67 Fe 0.82676 0.89941 0.26177 0.0
O68 O 0.82685 0.92791 0.25607 0.0
Fe69 Fe 0.80776 0.9456 0.26909 0.0
O70 O 0.7963 0.9541 0.24278 0.0
O71 O 0.82826 0.96143 0.22778 0.0
O72 O 0.8344 0.92234 0.21495 0.0
C73 C 0.83267 0.90165 0.21567 0.0
C74 C 0.84766 0.96956 0.2696 0.0
O75 O 0.8347 0.89134 0.23371 0.0
C76 C 0.81871 0.91894 0.3036 0.0
O77 O 0.8675 0.91821 0.24252 0.0
O78 O 0.85511 0.90005 0.27105 0.0
O79 O 0.82679 0.96901 0.27009 0.0
O80 O 0.85842 0.95592 0.25816 0.0
C81 C 0.78248 0.90718 0.26079 0.0
O82 O 0.8186 0.90254 0.29071 0.0
O83 O 0.81774 0.9383 0.29619 0.0
C84 C 0.87088 0.90577 0.2589 0.0
O85 O 0.79846 0.89659 0.2529 0.0
O86 O 0.78555 0.92522 0.27074 0.0
C87 C 0.80751 0.96312 0.22784 0.0
Fe88 Fe 0.22097 0.19003 0.45051 0.0
Fe89 Fe 0.25479 0.15373 0.4408 0.0
O90 O 0.23452 0.17253 0.43148 0.0
Fe91 Fe 0.2281 0.1739 0.40312 0.0
O92 O 0.23584 0.20266 0.40174 0.0
O93 O 0.21795 0.21315 0.43135 0.0
O94 O 0.24684 0.2023 0.45923 0.0
C95 C 0.26315 0.19157 0.46628 0.0
C96 C 0.1864 0.17919 0.42383 0.0
O97 O 0.26429 0.17098 0.46357 0.0
C98 C 0.23261 0.12956 0.40745 0.0
O99 O 0.22147 0.16991 0.47297 0.0
O100 O 0.23497 0.1397 0.45822 0.0
O101 O 0.19904 0.1808 0.40733 0.0
O102 O 0.19408 0.17923 0.44313 0.0
C103 C 0.27441 0.16935 0.4035 0.0
O104 O 0.24918 0.13296 0.41962 0.0
O105 O 0.21992 0.14518 0.40241 0.0
C106 C 0.22357 0.14915 0.47281 0.0
O107 O 0.27584 0.16678 0.42405 0.0
O108 O 0.25608 0.1674 0.39377 0.0
C109 C 0.22763 0.21768 0.41348 0.0
Fe110 Fe 0.27651 0.81891 0.90276 0.0
Fe111 Fe 0.28159 0.80331 0.95029 0.0
O112 O 0.26746 0.81926 0.93038 0.0
Fe113 Fe 0.24436 0.83539 0.93786 0.0
O114 O 0.22965 0.83091 0.91167 0.0
O115 O 0.25064 0.80747 0.89371 0.0
O116 O 0.28711 0.7907 0.90365 0.0
C117 C 0.28206 0.77462 0.91587 0.0
C118 C 0.2633 0.86336 0.9084 0.0
O119 O 0.27609 0.77786 0.93547 0.0
C120 C 0.27422 0.84115 0.97357 0.0
O121 O 0.30294 0.83025 0.91048 0.0
O122 O 0.30875 0.80656 0.93719 0.0
O123 O 0.25702 0.86061 0.92798 0.0
O124 O 0.26751 0.84695 0.89634 0.0
C125 C 0.23675 0.79845 0.96254 0.0
O126 O 0.28805 0.82748 0.96633 0.0
O127 O 0.25503 0.84239 0.96539 0.0
C128 C 0.3159 0.82082 0.92369 0.0
O129 O 0.25708 0.79734 0.96705 0.0
O130 O 0.22981 0.81159 0.94811 0.0
C131 C 0.23206 0.81605 0.89717 0.0
Fe132 Fe 0.7193 0.30945 0.55075 0.0
Fe133 Fe 0.7537 0.34603 0.55677 0.0
O134 O 0.73355 0.32815 0.56792 0.0
Fe135 Fe 0.72818 0.32878 0.59646 0.0
O136 O 0.73646 0.30038 0.59957 0.0
O137 O 0.71733 0.28758 0.57165 0.0
O138 O 0.7449 0.29661 0.54193 0.0
C139 C 0.76072 0.30677 0.53317 0.0
C140 C 0.68581 0.32168 0.57802 0.0
O141 O 0.76212 0.32746 0.5346 0.0
C142 C 0.73242 0.37249 0.58903 0.0
O143 O 0.71868 0.32832 0.52706 0.0
O144 O 0.73362 0.35919 0.53915 0.0
O145 O 0.69917 0.3211 0.59397 0.0
O146 O 0.69265 0.32071 0.55845 0.0
C147 C 0.77415 0.33262 0.59437 0.0
O148 O 0.74888 0.36818 0.57692 0.0
O149 O 0.71965 0.3573 0.59508 0.0
C150 C 0.72142 0.349 0.52576 0.0
O151 O 0.77507 0.33345 0.57365 0.0
O152 O 0.75629 0.33638 0.60433 0.0
C153 C 0.72792 0.28446 0.58937 0.0
Fe154 Fe 0.77709 0.69785 0.04838 0.0
Fe155 Fe 0.73963 0.66548 0.05883 0.0
O156 O 0.76174 0.68234 0.06773 0.0
Fe157 Fe 0.7685 0.68374 0.09598 0.0
O158 O 0.7777 0.71244 0.09511 0.0
O159 O 0.77001 0.72367 0.06161 0.0
O160 O 0.75376 0.70263 0.02967 0.0
C161 C 0.7332 0.70174 0.03304 0.0
C162 C 0.80962 0.68254 0.07813 0.0
O163 O 0.72535 0.68883 0.04722 0.0
C164 C 0.75782 0.63867 0.08995 0.0
O165 O 0.78533 0.67312 0.03398 0.0
O166 O 0.75229 0.65846 0.03221 0.0
O167 O 0.79604 0.67345 0.09092 0.0
O168 O 0.80314 0.69595 0.06355 0.0
C169 C 0.72358 0.68477 0.09808 0.0
O170 O 0.75227 0.64082 0.07005 0.0
O171 O 0.76044 0.65536 0.10213 0.0
C172 C 0.77217 0.65927 0.02594 0.0
O173 O 0.72293 0.66966 0.08372 0.0
O174 O 0.74147 0.69417 0.10279 0.0
C175 C 0.77362 0.72778 0.08162 0.0
Fe176 Fe 0.44675 0.21775 0.19916 0.0
Fe177 Fe 0.43583 0.25527 0.16691 0.0
O178 O 0.42728 0.23273 0.18339 0.0
Fe179 Fe 0.39917 0.22522 0.18428 0.0
O180 O 0.39982 0.2157 0.21284 0.0
O181 O 0.43281 0.2243 0.22481 0.0
O182 O 0.46478 0.24144 0.20448 0.0
C183 C 0.46114 0.26194 0.20356 0.0
C184 C 0.41796 0.18451 0.18326 0.0
O185 O 0.44691 0.2696 0.19056 0.0
C186 C 0.40532 0.237 0.13942 0.0
O187 O 0.46197 0.21013 0.17465 0.0
O188 O 0.46283 0.2433 0.16015 0.0
O189 O 0.4051 0.19785 0.17385 0.0
O190 O 0.43229 0.19135 0.19677 0.0
C191 C 0.39591 0.27011 0.18584 0.0
O192 O 0.42515 0.24272 0.14189 0.0
O193 O 0.39318 0.23354 0.15597 0.0
C194 C 0.47002 0.22374 0.16123 0.0
O195 O 0.41052 0.27136 0.17101 0.0
O196 O 0.3915 0.25196 0.19489 0.0
C197 C 0.4128 0.22018 0.22849 0.0
Fe198 Fe 0.94663 0.28153 0.79943 0.0
Fe199 Fe 0.93857 0.24649 0.83504 0.0
O200 O 0.92832 0.26661 0.81656 0.0
Fe201 Fe 0.89968 0.2716 0.81494 0.0
O202 O 0.89908 0.26388 0.78611 0.0
O203 O 0.92727 0.28424 0.77635 0.0
O204 O 0.95654 0.2564 0.78653 0.0
C205 C 0.96431 0.2401 0.79682 0.0
C206 C 0.91823 0.31436 0.81093 0.0
O207 O 0.9615 0.23814 0.81737 0.0
C208 C 0.90399 0.26695 0.8593 0.0
O209 O 0.96926 0.28157 0.81937 0.0
O210 O 0.95549 0.26663 0.84932 0.0
O211 O 0.9025 0.30093 0.80827 0.0
O212 O 0.9379 0.30768 0.81113 0.0
C213 C 0.90194 0.22533 0.81961 0.0
O214 O 0.91728 0.25119 0.85601 0.0
O215 O 0.89832 0.27944 0.8437 0.0
C216 C 0.9697 0.2786 0.84 0.0
O217 O 0.92256 0.22481 0.82194 0.0
O218 O 0.89153 0.24328 0.82128 0.0
C219 C 0.91034 0.27316 0.77138 0.0
Fe220 Fe 0.59931 0.71993 0.32047 0.0
Fe221 Fe 0.55125 0.71624 0.30661 0.0
O222 O 0.57205 0.73004 0.32164 0.0
Fe223 Fe 0.56574 0.7537 0.33755 0.0
O224 O 0.59197 0.76775 0.33132 0.0
O225 O 0.60879 0.74526 0.30834 0.0
O226 O 0.59695 0.70907 0.29246 0.0
C227 C 0.5845 0.71478 0.27678 0.0
C228 C 0.59604 0.73456 0.36475 0.0
O229 O 0.56519 0.72139 0.2806 0.0
C230 C 0.53028 0.72419 0.34564 0.0
O231 O 0.5912 0.69383 0.33246 0.0
O232 O 0.56377 0.68886 0.30947 0.0
O233 O 0.57665 0.74158 0.36262 0.0
O234 O 0.60716 0.72911 0.34805 0.0
C235 C 0.53911 0.76113 0.3019 0.0
O236 O 0.53636 0.71029 0.3315 0.0
O237 O 0.53847 0.74343 0.34618 0.0
C238 C 0.57714 0.68134 0.32362 0.0
O239 O 0.53456 0.74084 0.3012 0.0
O240 O 0.55438 0.7681 0.31404 0.0
C241 C 0.60607 0.76424 0.31628 0.0
Fe242 Fe 0.05165 0.77964 0.69195 0.0
Fe243 Fe 0.06021 0.74486 0.65633 0.0
O244 O 0.07005 0.76563 0.67422 0.0
Fe245 Fe 0.0984 0.77211 0.6744 0.0
O246 O 0.10081 0.76476 0.70314 0.0
O247 O 0.07164 0.78294 0.71444 0.0
O248 O 0.04318 0.75416 0.70508 0.0
C249 C 0.03551 0.73772 0.69501 0.0
C250 C 0.07801 0.81385 0.67958 0.0
O251 O 0.03784 0.73589 0.67441 0.0
C252 C 0.09255 0.76661 0.63048 0.0
O253 O 0.0286 0.77882 0.67241 0.0
O254 O 0.04252 0.76433 0.64224 0.0
O255 O 0.0945 0.80123 0.68113 0.0
O256 O 0.05873 0.80621 0.68024 0.0
C257 C 0.09798 0.72592 0.67122 0.0
O258 O 0.08081 0.74991 0.63477 0.0
O259 O 0.09787 0.77982 0.64558 0.0
C260 C 0.02833 0.77622 0.6517 0.0
O261 O 0.07736 0.72425 0.66969 0.0
O262 O 0.10753 0.7441 0.66788 0.0
C263 C 0.08961 0.77314 0.71846 0.0
Fe264 Fe 0.81677 0.60257 0.77012 0.0
Fe265 Fe 0.83574 0.56606 0.74079 0.0
O266 O 0.81875 0.57435 0.7631 0.0
Fe267 Fe 0.8036 0.55446 0.7782 0.0
O268 O 0.77747 0.56746 0.77161 0.0
O269 O 0.7881 0.60119 0.77912 0.0
O270 O 0.8064 0.60953 0.74307 0.0
C271 C 0.81604 0.60536 0.7252 0.0
C272 C 0.81827 0.58429 0.81111 0.0
O273 O 0.83127 0.59114 0.72442 0.0
C274 C 0.84236 0.53235 0.77259 0.0
O275 O 0.84513 0.60917 0.76236 0.0
O276 O 0.86023 0.57746 0.75357 0.0
O277 O 0.8056 0.56909 0.80456 0.0
O278 O 0.82682 0.59762 0.79771 0.0
C279 C 0.79971 0.53996 0.734 0.0
O280 O 0.84319 0.53929 0.75294 0.0
O281 O 0.82854 0.54007 0.78598 0.0
C282 C 0.862 0.59727 0.75957 0.0
O283 O 0.81253 0.55434 0.72635 0.0
O284 O 0.79884 0.53623 0.7545 0.0
C285 C 0.77302 0.58743 0.77512 0.0
Fe286 Fe 0.69393 0.44799 0.27379 0.0
Fe287 Fe 0.6782 0.40095 0.26454 0.0
O288 O 0.67634 0.42955 0.25962 0.0
Fe289 Fe 0.65692 0.43974 0.24044 0.0
O290 O 0.67396 0.46298 0.23166 0.0
O291 O 0.70577 0.45789 0.24816 0.0
O292 O 0.71721 0.4287 0.2757 0.0
C293 C 0.72176 0.41146 0.26488 0.0
C294 C 0.65303 0.47023 0.27318 0.0
O295 O 0.7067 0.40037 0.25593 0.0
C296 C 0.6337 0.40509 0.26161 0.0
O297 O 0.68318 0.43929 0.30031 0.0
O298 O 0.68587 0.40382 0.29362 0.0
O299 O 0.64337 0.45601 0.26151 0.0
O300 O 0.67383 0.47048 0.27457 0.0
C301 C 0.67224 0.40364 0.21848 0.0
O302 O 0.64979 0.39951 0.27346 0.0
O303 O 0.63639 0.41816 0.2456 0.0
C304 C 0.68347 0.41963 0.30698 0.0
O305 O 0.67098 0.39296 0.23633 0.0
O306 O 0.66941 0.42419 0.2182 0.0
C307 C 0.69462 0.46561 0.23241 0.0
Fe308 Fe 0.30251 0.9432 0.22453 0.0
Fe309 Fe 0.32086 0.89733 0.23466 0.0
O310 O 0.32039 0.92597 0.23983 0.0
Fe311 Fe 0.33758 0.93738 0.26046 0.0
O312 O 0.31819 0.95923 0.26822 0.0
O313 O 0.28828 0.95193 0.24925 0.0
O314 O 0.28093 0.92247 0.22095 0.0
C315 C 0.27672 0.90508 0.23156 0.0
C316 C 0.34143 0.96849 0.22819 0.0
O317 O 0.29184 0.89466 0.24122 0.0
C318 C 0.36467 0.90432 0.24099 0.0
O319 O 0.31542 0.93556 0.19874 0.0
O320 O 0.31518 0.89995 0.20508 0.0
O321 O 0.35135 0.95504 0.24057 0.0
O322 O 0.32087 0.96705 0.22521 0.0
C323 C 0.32372 0.89988 0.28112 0.0
O324 O 0.34989 0.89792 0.22788 0.0
O325 O 0.36004 0.91739 0.25659 0.0
C326 C 0.31681 0.91602 0.19187 0.0
O327 O 0.32661 0.88956 0.26325 0.0
O328 O 0.32486 0.9206 0.28172 0.0
C329 C 0.29754 0.96058 0.26569 0.0
Fe330 Fe 0.17938 0.09633 0.72643 0.0
Fe331 Fe 0.15892 0.06282 0.75824 0.0
O332 O 0.17665 0.06893 0.73586 0.0
Fe333 Fe 0.19182 0.04773 0.72283 0.0
O334 O 0.21799 0.06072 0.72956 0.0
O335 O 0.20796 0.09327 0.71747 0.0
O336 O 0.1899 0.10508 0.75288 0.0
C337 C 0.18033 0.10217 0.77109 0.0
C338 C 0.17815 0.07477 0.68725 0.0
O339 O 0.16441 0.08878 0.77282 0.0
C340 C 0.15181 0.0278 0.72822 0.0
O341 O 0.15135 0.10466 0.73359 0.0
O342 O 0.13509 0.07424 0.74423 0.0
O343 O 0.19105 0.06055 0.69544 0.0
O344 O 0.16913 0.08905 0.69936 0.0
C345 C 0.19361 0.03576 0.76795 0.0
O346 O 0.1506 0.03567 0.74752 0.0
O347 O 0.16679 0.03366 0.71515 0.0
C348 C 0.13404 0.09365 0.73697 0.0
O349 O 0.18123 0.05116 0.77413 0.0
O350 O 0.1952 0.03087 0.74775 0.0
C351 C 0.22277 0.07997 0.72347 0.0
Fe352 Fe 0.78137 0.82824 0.59373 0.0
Fe353 Fe 0.74751 0.84438 0.55989 0.0
O354 O 0.77102 0.82838 0.56653 0.0
Fe355 Fe 0.78434 0.81218 0.54627 0.0
O356 O 0.77929 0.78687 0.56165 0.0
O357 O 0.79217 0.8002 0.59252 0.0
O358 O 0.75604 0.81663 0.60387 0.0
C359 C 0.73713 0.82468 0.60093 0.0
C360 C 0.81969 0.8302 0.57103 0.0
O361 O 0.73378 0.83943 0.5865 0.0
C362 C 0.77622 0.8501 0.5232 0.0
O363 O 0.77239 0.8561 0.60059 0.0
O364 O 0.76018 0.86974 0.56959 0.0
O365 O 0.81194 0.81561 0.55824 0.0
O366 O 0.8074 0.83973 0.58482 0.0
C367 C 0.73916 0.80754 0.53509 0.0
O368 O 0.75739 0.85166 0.53215 0.0
O369 O 0.79015 0.83618 0.52977 0.0
C370 C 0.76725 0.87248 0.5889 0.0
O371 O 0.73259 0.82064 0.54973 0.0
O372 O 0.75938 0.80611 0.5304 0.0
C373 C 0.78601 0.78396 0.58109 0.0
Fe374 Fe 0.73136 0.1886 0.09943 0.0
Fe375 Fe 0.75774 0.16765 0.06189 0.0
O376 O 0.73638 0.18541 0.0709 0.0
Fe377 Fe 0.72017 0.20003 0.05151 0.0
O378 O 0.72795 0.2265 0.06301 0.0
O379 O 0.72227 0.2172 0.09745 0.0
O380 O 0.75884 0.19909 0.10392 0.0
C381 C 0.77626 0.1889 0.09917 0.0
C382 C 0.68922 0.18679 0.08406 0.0
O383 O 0.7759 0.173 0.08564 0.0
C384 C 0.72363 0.16031 0.03067 0.0
O385 O 0.73966 0.16052 0.10681 0.0
O386 O 0.74516 0.14401 0.07518 0.0
O387 O 0.69484 0.19887 0.068 0.0
O388 O 0.70343 0.17854 0.09678 0.0
C389 C 0.76336 0.20241 0.03375 0.0
O390 O 0.74364 0.15921 0.03644 0.0
O391 O 0.71111 0.17481 0.03859 0.0
C392 C 0.74117 0.14309 0.09552 0.0
O393 O 0.77177 0.18998 0.04809 0.0
O394 O 0.74265 0.20374 0.03155 0.0
C395 C 0.72554 0.23174 0.08293 0.0
Fe396 Fe 0.28265 0.6933 0.45219 0.0
Fe397 Fe 0.27862 0.67986 0.40392 0.0
O398 O 0.26883 0.67838 0.43128 0.0
Fe399 Fe 0.24529 0.66228 0.43753 0.0
O400 O 0.23078 0.6858 0.44874 0.0
O401 O 0.25798 0.69878 0.46863 0.0
O402 O 0.27766 0.71946 0.43838 0.0
C403 C 0.28404 0.72348 0.41904 0.0
C404 C 0.27438 0.65444 0.4735 0.0
O405 O 0.28933 0.70791 0.40629 0.0
C406 C 0.26458 0.63537 0.40715 0.0
O407 O 0.30999 0.69045 0.43964 0.0
O408 O 0.30489 0.66806 0.41172 0.0
O409 O 0.25537 0.6538 0.46486 0.0
O410 O 0.2885 0.66834 0.46729 0.0
C411 C 0.23428 0.68345 0.39735 0.0
O412 O 0.26963 0.65222 0.39607 0.0
O413 O 0.25769 0.6373 0.42663 0.0
C414 C 0.3175 0.67689 0.42567 0.0
O415 O 0.25306 0.69186 0.39465 0.0
O416 O 0.23124 0.66823 0.41134 0.0
C417 C 0.23777 0.69833 0.46368 0.0
Fe418 Fe 0.22649 0.31948 0.90276 0.0
Fe419 Fe 0.25567 0.33791 0.93954 0.0
O420 O 0.23411 0.32029 0.93081 0.0
Fe421 Fe 0.22018 0.30334 0.95005 0.0
O422 O 0.22834 0.27837 0.9357 0.0
O423 O 0.21867 0.29045 0.90302 0.0
O424 O 0.2537 0.31049 0.89482 0.0
C425 C 0.27138 0.32034 0.89935 0.0
C426 C 0.1859 0.31779 0.9216 0.0
O427 O 0.2719 0.33509 0.9141 0.0
C428 C 0.22369 0.34156 0.9734 0.0
O429 O 0.23312 0.34832 0.89719 0.0
O430 O 0.24166 0.36229 0.92937 0.0
O431 O 0.19354 0.3043 0.93559 0.0
O432 O 0.19869 0.32827 0.90903 0.0
C433 C 0.26469 0.30157 0.96444 0.0
O434 O 0.24332 0.34362 0.96664 0.0
O435 O 0.21106 0.32715 0.96545 0.0
C436 C 0.23557 0.36478 0.90969 0.0
O437 O 0.27136 0.31499 0.95015 0.0
O438 O 0.24427 0.29929 0.96813 0.0
C439 C 0.22451 0.27492 0.91558 0.0
Fe440 Fe 0.55835 0.74322 0.83545 0.0
Fe441 Fe 0.55185 0.77784 0.79913 0.0
O442 O 0.56932 0.76333 0.81743 0.0
Fe443 Fe 0.59788 0.76873 0.81766 0.0
O444 O 0.60593 0.74048 0.82476 0.0
O445 O 0.57511 0.72172 0.8231 0.0
O446 O 0.5362 0.73465 0.81679 0.0
C447 C 0.53436 0.73645 0.79612 0.0
C448 C 0.59097 0.76436 0.86156 0.0
O449 O 0.54281 0.75253 0.7861 0.0
C450 C 0.57918 0.8112 0.81166 0.0
O451 O 0.54088 0.76343 0.84873 0.0
O452 O 0.52832 0.77807 0.81805 0.0
O453 O 0.5971 0.77695 0.84627 0.0
O454 O 0.57858 0.74807 0.85748 0.0
C455 C 0.59002 0.76963 0.77351 0.0
O456 O 0.55965 0.80427 0.8107 0.0
O457 O 0.59521 0.79793 0.8105 0.0
C458 C 0.52731 0.77558 0.83874 0.0
O459 O 0.57242 0.78022 0.7771 0.0
O460 O 0.60047 0.76081 0.78911 0.0
C461 C 0.59582 0.72248 0.822 0.0
Fe462 Fe 0.05262 0.71673 0.19276 0.0
Fe463 Fe 0.09812 0.72504 0.1726 0.0
O464 O 0.06968 0.73106 0.17401 0.0
Fe465 Fe 0.05845 0.75171 0.1568 0.0
O466 O 0.03714 0.76035 0.17631 0.0
O467 O 0.04465 0.74204 0.20652 0.0
O468 O 0.07394 0.71361 0.21398 0.0
C469 C 0.09181 0.72389 0.21708 0.0
C470 C 0.02667 0.72006 0.15414 0.0
O471 O 0.10203 0.73245 0.20118 0.0
C472 C 0.08983 0.73055 0.12911 0.0
O473 O 0.05936 0.69036 0.18044 0.0
O474 O 0.09505 0.69586 0.17951 0.0
O475 O 0.04007 0.7321 0.14376 0.0
O476 O 0.02844 0.71733 0.17475 0.0
C477 C 0.09678 0.77117 0.16958 0.0
O478 O 0.09611 0.71737 0.14386 0.0
O479 O 0.07782 0.74691 0.13401 0.0
C480 C 0.07868 0.68301 0.17873 0.0
O481 O 0.10642 0.75317 0.1656 0.0
O482 O 0.07608 0.77251 0.16917 0.0
C483 C 0.03617 0.75842 0.19702 0.0
Fe484 Fe 0.40089 0.2725 0.68015 0.0
Fe485 Fe 0.43698 0.24137 0.66341 0.0
O486 O 0.42875 0.26416 0.67971 0.0
Fe487 Fe 0.44831 0.27874 0.69572 0.0
O488 O 0.4339 0.27235 0.72123 0.0
O489 O 0.40154 0.28223 0.70859 0.0
O490 O 0.39239 0.24612 0.69091 0.0
C491 C 0.39645 0.22772 0.6822 0.0
C492 C 0.42063 0.31263 0.67926 0.0
O493 O 0.41128 0.22581 0.66763 0.0
C494 C 0.47117 0.27267 0.65743 0.0
O495 O 0.39489 0.26414 0.65186 0.0
O496 O 0.42671 0.25388 0.63827 0.0
O497 O 0.43436 0.30548 0.69325 0.0
O498 O 0.40776 0.29955 0.66954 0.0
C499 C 0.46229 0.23429 0.69993 0.0
O500 O 0.46414 0.25302 0.65653 0.0
O501 O 0.46368 0.28613 0.67133 0.0
C502 C 0.40716 0.26026 0.63553 0.0
O503 O 0.44778 0.22692 0.68711 0.0
O504 O 0.46602 0.25477 0.70107 0.0
C505 C 0.41395 0.27716 0.72451 0.0
Fe506 Fe 0.94814 0.21712 0.30928 0.0
Fe507 Fe 0.89998 0.22067 0.32316 0.0
O508 O 0.92734 0.2304 0.3248 0.0
Fe509 Fe 0.9336 0.25328 0.34176 0.0
O510 O 0.94469 0.26869 0.31884 0.0
O511 O 0.96448 0.2421 0.30445 0.0
O512 O 0.93403 0.22285 0.28339 0.0
C513 C 0.9147 0.2164 0.27938 0.0
C514 C 0.96978 0.2241 0.34828 0.0
O515 O 0.90224 0.21049 0.29493 0.0
C516 C 0.9033 0.23312 0.36796 0.0
O517 O 0.93563 0.18963 0.31157 0.0
O518 O 0.90794 0.19422 0.3344 0.0
O519 O 0.96099 0.243 0.3498 0.0
O520 O 0.96355 0.21053 0.33386 0.0
C521 C 0.89357 0.26506 0.32069 0.0
O522 O 0.89211 0.22911 0.35093 0.0
O523 O 0.92286 0.23979 0.36627 0.0
C524 C 0.92192 0.18184 0.32528 0.0
O525 O 0.8908 0.24653 0.31175 0.0
O526 O 0.90733 0.26753 0.33627 0.0
C527 C 0.95967 0.26231 0.30603 0.0
H528 H 0.19152 0.46247 0.3103 0.0
H529 H 0.20677 0.48984 0.33547 0.0
H530 H 0.2382 0.52265 0.28097 0.0
H531 H 0.22258 0.49562 0.25553 0.0
H532 H 0.24897 0.50316 0.34554 0.0
H533 H 0.20154 0.57158 0.30795 0.0
H534 H 0.19608 0.54309 0.30167 0.0
H535 H 0.21868 0.55715 0.28872 0.0
C536 C 0.20174 0.47544 0.30362 0.0
C537 C 0.20556 0.47701 0.28081 0.0
C538 C 0.2105 0.49106 0.31807 0.0
C539 C 0.22325 0.50854 0.31006 0.0
C540 C 0.22795 0.50959 0.28745 0.0
H541 H 0.28078 0.62512 0.36665 0.0
H542 H 0.27264 0.59267 0.34451 0.0
C543 C 0.21909 0.49406 0.27294 0.0
C544 C 0.23098 0.52604 0.32528 0.0
H545 H 0.22798 0.58133 0.33487 0.0
C546 C 0.24436 0.52026 0.34325 0.0
C547 C 0.22474 0.54831 0.32241 0.0
C548 C 0.2093 0.55543 0.30429 0.0
C549 C 0.25208 0.53624 0.35812 0.0
C550 C 0.24613 0.5585 0.35497 0.0
C551 C 0.23264 0.56424 0.33713 0.0
C552 C 0.25369 0.57635 0.3698 0.0
C553 C 0.26686 0.52934 0.37683 0.0
C554 C 0.24618 0.57769 0.39162 0.0
C555 C 0.25079 0.59633 0.40442 0.0
C556 C 0.26286 0.61397 0.39549 0.0
C557 C 0.27131 0.61195 0.37402 0.0
C558 C 0.26669 0.59339 0.36131 0.0
H559 H 0.27339 0.51242 0.3745 0.0
H560 H 0.28089 0.54092 0.37854 0.0
H561 H 0.25737 0.52972 0.39243 0.0
H562 H 0.23587 0.56483 0.3984 0.0
H563 H 0.24397 0.59738 0.42085 0.0
H564 H 0.217 0.37697 0.87075 0.0
H565 H 0.22334 0.41111 0.85048 0.0
H566 H 0.26068 0.4368 0.90504 0.0
H567 H 0.25441 0.40264 0.92558 0.0
H568 H 0.21872 0.46084 0.86248 0.0
H569 H 0.30328 0.42789 0.84903 0.0
H570 H 0.28061 0.41042 0.85696 0.0
H571 H 0.29296 0.42844 0.8768 0.0
C572 C 0.22614 0.39006 0.87868 0.0
C573 C 0.23549 0.38697 0.89965 0.0
C574 C 0.22964 0.40959 0.8671 0.0
C575 C 0.24261 0.4263 0.87623 0.0
C576 C 0.25064 0.42399 0.89776 0.0
H577 H 0.31521 0.5283 0.80879 0.0
H578 H 0.29903 0.50446 0.83671 0.0
C579 C 0.24702 0.40449 0.90946 0.0
C580 C 0.25017 0.44458 0.8621 0.0
H581 H 0.29456 0.46145 0.83229 0.0
C582 C 0.23533 0.46118 0.85597 0.0
C583 C 0.27179 0.44475 0.85359 0.0
C584 C 0.28815 0.42691 0.85924 0.0
C585 C 0.2417 0.47817 0.84159 0.0
C586 C 0.26327 0.47813 0.83278 0.0
C587 C 0.27806 0.46154 0.8391 0.0
C588 C 0.2711 0.49486 0.81679 0.0
C589 C 0.2254 0.49611 0.83625 0.0
C590 C 0.26057 0.49774 0.79638 0.0
C591 C 0.26972 0.51162 0.7804 0.0
C592 C 0.28976 0.52242 0.78444 0.0
C593 C 0.29988 0.51997 0.8051 0.0
C594 C 0.29062 0.50641 0.8211 0.0
H595 H 0.2125 0.49749 0.84913 0.0
H596 H 0.2337 0.5123 0.83451 0.0
H597 H 0.21712 0.49218 0.82045 0.0
H598 H 0.24578 0.48862 0.79246 0.0
H599 H 0.26161 0.51314 0.76459 0.0
H600 H 0.78194 0.88369 0.62973 0.0
H601 H 0.77389 0.91707 0.65032 0.0
H602 H 0.74135 0.94456 0.59354 0.0
H603 H 0.74883 0.91073 0.57281 0.0
H604 H 0.78265 0.96095 0.64573 0.0
H605 H 0.69271 0.94495 0.63937 0.0
H606 H 0.713 0.92493 0.63113 0.0
H607 H 0.7068 0.94793 0.61358 0.0
C608 C 0.77326 0.89688 0.62145 0.0
C609 C 0.76568 0.89433 0.5997 0.0
C610 C 0.76873 0.91602 0.63328 0.0
C611 C 0.75657 0.93311 0.62367 0.0
C612 C 0.7503 0.93134 0.60146 0.0
H613 H 0.69682 0.04516 0.69138 0.0
H614 H 0.71226 0.02146 0.66283 0.0
C615 C 0.75475 0.91206 0.58958 0.0
C616 C 0.74936 0.95189 0.63756 0.0
H617 H 0.70365 0.97568 0.66005 0.0
C618 C 0.76537 0.96431 0.64871 0.0
C619 C 0.7268 0.95617 0.64156 0.0
C620 C 0.70879 0.94272 0.63096 0.0
C621 C 0.75943 0.98066 0.66395 0.0
C622 C 0.73692 0.98455 0.66827 0.0
C623 C 0.72091 0.97264 0.65665 0.0
C624 C 0.72947 0.00013 0.68552 0.0
C625 C 0.77727 0.99357 0.67541 0.0
C626 C 0.73413 0.99605 0.70778 0.0
C627 C 0.72524 0.0095 0.72423 0.0
C628 C 0.71145 0.02727 0.71869 0.0
C629 C 0.70734 0.03163 0.69629 0.0
C630 C 0.71615 0.01811 0.67991 0.0
H631 H 0.79312 0.99271 0.66634 0.0
H632 H 0.77246 0.0111 0.67728 0.0
H633 H 0.77993 0.98662 0.69209 0.0
H634 H 0.74407 0.98202 0.71249 0.0
H635 H 0.72874 0.00565 0.74127 0.0
H636 H 0.82676 0.99649 0.20517 0.0
H637 H 0.80945 0.0225 0.18013 0.0
H638 H 0.74712 0.98952 0.18858 0.0
H639 H 0.76429 0.9639 0.21468 0.0
H640 H 0.79009 0.01783 0.142 0.0
H641 H 0.72919 0.05132 0.20147 0.0
H642 H 0.75103 0.03306 0.20979 0.0
H643 H 0.72688 0.02232 0.19645 0.0
C644 C 0.80935 0.99474 0.20175 0.0
C645 C 0.79684 0.97825 0.21205 0.0
C646 C 0.79946 0.00962 0.18736 0.0
C647 C 0.77689 0.00822 0.18266 0.0
C648 C 0.76443 0.99133 0.19239 0.0
H649 H 0.73641 0.10159 0.07811 0.0
H650 H 0.74081 0.06639 0.09741 0.0
C651 C 0.77427 0.97663 0.20719 0.0
C652 C 0.7668 0.0248 0.16775 0.0
H653 H 0.72936 0.06667 0.16604 0.0
C654 C 0.77669 0.02842 0.14717 0.0
C655 C 0.74931 0.03862 0.17453 0.0
C656 C 0.73858 0.03633 0.19682 0.0
C657 C 0.77053 0.04621 0.13377 0.0
C658 C 0.75328 0.06026 0.14072 0.0
C659 C 0.74253 0.05586 0.16071 0.0
C660 C 0.74806 0.08114 0.12906 0.0
C661 C 0.78357 0.05052 0.11306 0.0
C662 C 0.74946 0.10109 0.14061 0.0
C663 C 0.7464 0.12108 0.1298 0.0
C664 C 0.74213 0.12165 0.10707 0.0
C665 C 0.73997 0.10167 0.09558 0.0
C666 C 0.74263 0.08156 0.10656 0.0
H667 H 0.79935 0.04127 0.11286 0.0
H668 H 0.77382 0.04521 0.09857 0.0
H669 H 0.78732 0.06831 0.11127 0.0
H670 H 0.75361 0.10125 0.15795 0.0
H671 H 0.74819 0.13614 0.13917 0.0
H672 H 0.42133 0.23732 0.59935 0.0
H673 H 0.40034 0.23011 0.56566 0.0
H674 H 0.34876 0.27321 0.58835 0.0
H675 H 0.36949 0.28043 0.62204 0.0
H676 H 0.35624 0.21128 0.57081 0.0
H677 H 0.35593 0.28816 0.52125 0.0
H678 H 0.37732 0.28185 0.54096 0.0
H679 H 0.35093 0.2913 0.55027 0.0
C680 C 0.40582 0.24576 0.59688 0.0
C681 C 0.39697 0.25929 0.61343 0.0
C682 C 0.39385 0.2416 0.57765 0.0
C683 C 0.37309 0.25124 0.5745 0.0
C684 C 0.36489 0.26586 0.59033 0.0
H685 H 0.25994 0.22977 0.49029 0.0
H686 H 0.28769 0.24508 0.51538 0.0
C687 C 0.3767 0.26984 0.60964 0.0
C688 C 0.35859 0.24357 0.55651 0.0
H689 H 0.33036 0.26037 0.51089 0.0
C690 C 0.35078 0.2219 0.55753 0.0
C691 C 0.35121 0.25766 0.53954 0.0
C692 C 0.35935 0.28102 0.53773 0.0
C693 C 0.33538 0.21399 0.54229 0.0
C694 C 0.32812 0.22797 0.5251 0.0
C695 C 0.33602 0.24967 0.52401 0.0
C696 C 0.31219 0.2202 0.5083 0.0
C697 C 0.32646 0.19099 0.5453 0.0
C698 C 0.31706 0.20164 0.49547 0.0
C699 C 0.3012 0.19272 0.4815 0.0
C700 C 0.28028 0.20245 0.47969 0.0
C701 C 0.27587 0.22186 0.49146 0.0
C702 C 0.2917 0.23063 0.50575 0.0
H703 H 0.32871 0.18505 0.56245 0.0
H704 H 0.30867 0.1902 0.54118 0.0
H705 H 0.33543 0.17956 0.53424 0.0
H706 H 0.33298 0.19372 0.49668 0.0
H707 H 0.30524 0.178 0.47227 0.0
H708 H 0.07813 0.75307 0.09204 0.0
H709 H 0.10048 0.75873 0.05912 0.0
H710 H 0.14959 0.71429 0.08469 0.0
H711 H 0.12709 0.70805 0.11733 0.0
H712 H 0.13983 0.77785 0.0618 0.0
H713 H 0.14979 0.69711 0.02072 0.0
H714 H 0.1288 0.70211 0.04116 0.0
H715 H 0.15662 0.69615 0.04943 0.0
C716 C 0.09339 0.744 0.09037 0.0
C717 C 0.1009 0.73025 0.1074 0.0
C718 C 0.10616 0.74727 0.07154 0.0
C719 C 0.1267 0.7369 0.06937 0.0
C720 C 0.13362 0.72213 0.08574 0.0
H721 H 0.2447 0.77087 0.99746 0.0
H722 H 0.21744 0.75405 0.02199 0.0
C723 C 0.12074 0.71866 0.10449 0.0
C724 C 0.14206 0.74391 0.05173 0.0
H725 H 0.17561 0.72531 0.01056 0.0
C726 C 0.1474 0.76636 0.05043 0.0
C727 C 0.15213 0.7289 0.03702 0.0
C728 C 0.14639 0.70476 0.03698 0.0
C729 C 0.16276 0.77416 0.03512 0.0
C730 C 0.17302 0.75915 0.02066 0.0
C731 C 0.1677 0.73672 0.02178 0.0
C732 C 0.1893 0.7668 0.00432 0.0
C733 C 0.16829 0.79838 0.03476 0.0
C734 C 0.18239 0.77906 0.98606 0.0
C735 C 0.19783 0.78869 0.97205 0.0
C736 C 0.22053 0.78629 0.97611 0.0
C737 C 0.22737 0.77315 0.99392 0.0
C738 C 0.21185 0.76346 0.00791 0.0
H739 H 0.16141 0.80726 0.04919 0.0
H740 H 0.18641 0.80077 0.03449 0.0
H741 H 0.16145 0.80591 0.01959 0.0
H742 H 0.16502 0.78172 0.98304 0.0
H743 H 0.19194 0.79853 0.95841 0.0
H744 H 0.92123 0.23708 0.40949 0.0
H745 H 0.90121 0.24158 0.44431 0.0
H746 H 0.8396 0.23699 0.40925 0.0
H747 H 0.85921 0.23141 0.37508 0.0
H748 H 0.8768 0.27309 0.45661 0.0
H749 H 0.82375 0.20026 0.45986 0.0
H750 H 0.84645 0.20207 0.44081 0.0
H751 H 0.81969 0.21286 0.43358 0.0
C752 C 0.90341 0.23653 0.40937 0.0
C753 C 0.89185 0.23381 0.3895 0.0
C754 C 0.89198 0.2391 0.42926 0.0
C755 C 0.86881 0.23914 0.42959 0.0
C756 C 0.85739 0.23615 0.40974 0.0
H757 H 0.78363 0.32265 0.49834 0.0
H758 H 0.81167 0.30397 0.47671 0.0
C759 C 0.86872 0.23321 0.39005 0.0
C760 C 0.85634 0.24487 0.44988 0.0
H761 H 0.80792 0.23396 0.47617 0.0
C762 C 0.86205 0.26418 0.46122 0.0
C763 C 0.83741 0.23302 0.45659 0.0
C764 C 0.8317 0.21076 0.44718 0.0
C765 C 0.84836 0.27293 0.47763 0.0
C766 C 0.82792 0.26265 0.48214 0.0
C767 C 0.82321 0.2423 0.47228 0.0
C768 C 0.81056 0.27365 0.49545 0.0
C769 C 0.8559 0.29331 0.48967 0.0
C770 C 0.79952 0.26245 0.51243 0.0
C771 C 0.78284 0.27295 0.52443 0.0
C772 C 0.77713 0.29487 0.51977 0.0
C773 C 0.78791 0.30586 0.50254 0.0
C774 C 0.80417 0.29526 0.49031 0.0
H775 H 0.87412 0.29357 0.49122 0.0
H776 H 0.85103 0.3081 0.48012 0.0
H777 H 0.84862 0.29439 0.50639 0.0
H778 H 0.80393 0.24567 0.51654 0.0
H779 H 0.77481 0.26412 0.53768 0.0
H780 H 0.62431 0.79219 0.87378 0.0
H781 H 0.64765 0.78902 0.90642 0.0
H782 H 0.60708 0.73613 0.93059 0.0
H783 H 0.58359 0.73907 0.89806 0.0
H784 H 0.62489 0.77004 0.96384 0.0
H785 H 0.68636 0.73034 0.90848 0.0
H786 H 0.67515 0.75647 0.90017 0.0
H787 H 0.65768 0.73271 0.90109 0.0
C788 C 0.62002 0.78019 0.88625 0.0
C789 C 0.60229 0.7656 0.88311 0.0
C790 C 0.63339 0.77843 0.90487 0.0
C791 C 0.62918 0.76217 0.92067 0.0
C792 C 0.61056 0.74875 0.91848 0.0
H793 H 0.68844 0.69793 0.0305 0.0
H794 H 0.66375 0.71602 0.00459 0.0
C795 C 0.59721 0.75042 0.89984 0.0
C796 C 0.64549 0.75732 0.93801 0.0
H797 H 0.69496 0.73207 0.94598 0.0
C798 C 0.64033 0.76194 0.96001 0.0
C799 C 0.66558 0.74681 0.93282 0.0
C800 C 0.67162 0.74112 0.9094 0.0
C801 C 0.65475 0.75606 0.9771 0.0
C802 C 0.6745 0.74478 0.97198 0.0
C803 C 0.67986 0.74075 0.94988 0.0
C804 C 0.6892 0.7356 0.98916 0.0
C805 C 0.64871 0.76202 0.00043 0.0
C806 C 0.71182 0.74028 0.98889 0.0
C807 C 0.7261 0.72963 0.00345 0.0
C808 C 0.718 0.71408 0.01855 0.0
C809 C 0.69524 0.70986 0.01915 0.0
C810 C 0.68103 0.72038 0.00448 0.0
H811 H 0.63777 0.77667 0.0009 0.0
H812 H 0.63965 0.7481 0.00801 0.0
H813 H 0.66356 0.76545 0.01051 0.0
H814 H 0.71849 0.75186 0.97709 0.0
H815 H 0.74352 0.73334 0.00263 0.0
H816 H 0.49169 0.25178 0.23504 0.0
H817 H 0.51769 0.27673 0.25291 0.0
H818 H 0.48993 0.33142 0.21715 0.0
H819 H 0.46354 0.30676 0.19965 0.0
H820 H 0.54858 0.29975 0.2319 0.0
H821 H 0.49551 0.35783 0.27763 0.0
H822 H 0.48536 0.33204 0.26693 0.0
H823 H 0.48766 0.35572 0.24926 0.0
C824 C 0.49088 0.26918 0.23123 0.0
C825 C 0.4756 0.27725 0.21582 0.0
C826 C 0.50573 0.28342 0.2415 0.0
C827 C 0.50558 0.306 0.23662 0.0
C828 C 0.49 0.31418 0.22164 0.0
H829 H 0.59551 0.41258 0.23907 0.0
H830 H 0.56336 0.38855 0.2371 0.0
C831 C 0.47503 0.29999 0.21148 0.0
C832 C 0.52318 0.32054 0.24525 0.0
H833 H 0.53259 0.37003 0.27027 0.0
C834 C 0.5451 0.3149 0.24067 0.0
C835 C 0.5186 0.34036 0.25662 0.0
C836 C 0.49551 0.34674 0.2631 0.0
C837 C 0.5625 0.32897 0.24625 0.0
C838 C 0.55787 0.34911 0.25694 0.0
C839 C 0.53603 0.35454 0.26209 0.0
C840 C 0.57547 0.36535 0.26121 0.0
C841 C 0.58565 0.32264 0.23979 0.0
C842 C 0.59248 0.36067 0.2761 0.0
C843 C 0.61093 0.37437 0.27728 0.0
C844 C 0.61266 0.39291 0.2635 0.0
C845 C 0.59483 0.39832 0.24974 0.0
C846 C 0.57639 0.38466 0.24864 0.0
H847 H 0.58598 0.30828 0.22847 0.0
H848 H 0.59409 0.33667 0.23167 0.0
H849 H 0.59514 0.3183 0.25477 0.0
H850 H 0.5919 0.34593 0.28611 0.0
H851 H 0.62428 0.36979 0.28818 0.0
H852 H 0.97735 0.20003 0.81199 0.0
H853 H 0.00271 0.17414 0.79471 0.0
H854 H 0.00886 0.21718 0.73866 0.0
H855 H 0.98332 0.24338 0.75586 0.0
H856 H 0.00125 0.15333 0.74947 0.0
H857 H 0.07276 0.20841 0.76595 0.0
H858 H 0.04707 0.21115 0.78062 0.0
H859 H 0.04902 0.22002 0.75254 0.0
C860 C 0.98397 0.20401 0.79593 0.0
C861 C 0.97853 0.22392 0.78542 0.0
C862 C 0.99835 0.18911 0.78604 0.0
C863 C 0.0077 0.19384 0.76552 0.0
C864 C 0.00184 0.21334 0.75459 0.0
H865 H 0.12381 0.12947 0.71222 0.0
H866 H 0.09098 0.15249 0.71494 0.0
C867 C 0.98726 0.22825 0.76442 0.0
C868 C 0.02469 0.17894 0.75649 0.0
H869 H 0.08024 0.1738 0.75085 0.0
C870 C 0.01853 0.15782 0.74948 0.0
C871 C 0.04714 0.18492 0.75657 0.0
C872 C 0.05457 0.20729 0.76441 0.0
C873 C 0.03437 0.14235 0.74274 0.0
C874 C 0.05694 0.14804 0.74364 0.0
C875 C 0.06296 0.16942 0.75011 0.0
C876 C 0.07482 0.13197 0.73915 0.0
C877 C 0.02672 0.12015 0.73469 0.0
C878 C 0.07643 0.11238 0.75137 0.0
C879 C 0.0951 0.09899 0.7496 0.0
C880 C 0.11267 0.10524 0.73593 0.0
C881 C 0.11058 0.12431 0.72299 0.0
C882 C 0.09183 0.13749 0.72454 0.0
H883 H 0.00979 0.12106 0.72783 0.0
H884 H 0.03789 0.11348 0.72187 0.0
H885 H 0.02639 0.10848 0.74873 0.0
H886 H 0.06382 0.10802 0.76317 0.0
H887 H 0.09633 0.08451 0.75992 0.0
H888 H 0.50712 0.75247 0.27141 0.0
H889 H 0.48085 0.77835 0.25532 0.0
H890 H 0.51109 0.83157 0.29127 0.0
H891 H 0.53777 0.80595 0.30696 0.0
H892 H 0.45107 0.80149 0.27757 0.0
H893 H 0.50415 0.85964 0.23178 0.0
H894 H 0.5141 0.83348 0.24174 0.0
H895 H 0.51233 0.85676 0.25999 0.0
C896 C 0.50842 0.76975 0.27563 0.0
C897 C 0.52454 0.77711 0.29053 0.0
C898 C 0.49339 0.78453 0.2664 0.0
C899 C 0.49412 0.80698 0.27185 0.0
C900 C 0.5105 0.81445 0.28634 0.0
H901 H 0.40043 0.91285 0.2671 0.0
H902 H 0.43311 0.88982 0.2719 0.0
C903 C 0.52567 0.79971 0.29545 0.0
C904 C 0.47654 0.8221 0.26404 0.0
H905 H 0.46711 0.87154 0.23879 0.0
C906 C 0.4546 0.81665 0.26883 0.0
C907 C 0.48112 0.84195 0.2527 0.0
C908 C 0.50419 0.84822 0.24605 0.0
C909 C 0.4372 0.83071 0.26313 0.0
C910 C 0.44182 0.85072 0.25221 0.0
C911 C 0.46368 0.85616 0.24718 0.0
C912 C 0.424 0.8664 0.24673 0.0
C913 C 0.414 0.8244 0.26936 0.0
C914 C 0.40851 0.86125 0.23041 0.0
C915 C 0.38983 0.87439 0.22754 0.0
C916 C 0.38625 0.89286 0.24108 0.0
C917 C 0.40256 0.89869 0.25649 0.0
C918 C 0.42128 0.88558 0.25924 0.0
H919 H 0.41355 0.81002 0.28065 0.0
H920 H 0.4055 0.83844 0.27739 0.0
H921 H 0.40464 0.82013 0.25426 0.0
H922 H 0.41044 0.84655 0.2205 0.0
H923 H 0.3777 0.86943 0.21546 0.0
H924 H 0.87441 0.63289 0.78354 0.0
H925 H 0.90773 0.65495 0.77895 0.0
H926 H 0.93146 0.60912 0.73022 0.0
H927 H 0.89847 0.58649 0.73536 0.0
H928 H 0.96503 0.62561 0.75563 0.0
H929 H 0.91196 0.69345 0.72503 0.0
H930 H 0.90551 0.68495 0.75254 0.0
H931 H 0.90154 0.66614 0.73 0.0
C932 C 0.88694 0.6273 0.77215 0.0
C933 C 0.88374 0.60814 0.75959 0.0
C934 C 0.90589 0.63999 0.76945 0.0
C935 C 0.92174 0.63405 0.75375 0.0
C936 C 0.91933 0.61411 0.74229 0.0
H937 H 0.02429 0.69663 0.68121 0.0
H938 H 0.99878 0.67093 0.69863 0.0
C939 C 0.9005 0.60117 0.74526 0.0
C940 C 0.93985 0.6494 0.74807 0.0
H941 H 0.94988 0.701 0.7281 0.0
C942 C 0.96174 0.64212 0.74969 0.0
C943 C 0.93551 0.67092 0.74014 0.0
C944 C 0.91237 0.6793 0.73659 0.0
C945 C 0.97937 0.65579 0.7436 0.0
C946 C 0.97495 0.67721 0.73571 0.0
C947 C 0.95316 0.68463 0.73444 0.0
C948 C 0.99243 0.69164 0.72686 0.0
C949 C 0.0026 0.64728 0.74551 0.0
C950 C 0.99732 0.71179 0.73703 0.0
C951 C 0.01199 0.72655 0.72715 0.0
C952 C 0.02161 0.72152 0.70671 0.0
C953 C 0.01703 0.70106 0.69688 0.0
C954 C 0.00261 0.68626 0.70689 0.0
H955 H 0.00359 0.63254 0.75629 0.0
H956 H 0.00865 0.64263 0.72891 0.0
H957 H 0.01369 0.66022 0.7521 0.0
H958 H 0.98942 0.71628 0.75237 0.0
H959 H 0.01517 0.74218 0.73511 0.0
H960 H 0.75802 0.40877 0.58174 0.0
H961 H 0.76192 0.44078 0.60579 0.0
H962 H 0.70921 0.41681 0.6467 0.0
H963 H 0.70509 0.38469 0.6228 0.0
H964 H 0.72919 0.47436 0.62494 0.0
H965 H 0.76852 0.41662 0.68446 0.0
H966 H 0.76546 0.40995 0.65567 0.0
H967 H 0.742 0.40921 0.67355 0.0
C968 C 0.74689 0.41052 0.59555 0.0
C969 C 0.73151 0.39395 0.60056 0.0
C970 C 0.74912 0.42886 0.60922 0.0
C971 C 0.73605 0.43091 0.6281 0.0
C972 C 0.71954 0.41535 0.63224 0.0
H973 H 0.76792 0.50961 0.74391 0.0
H974 H 0.74887 0.48488 0.7185 0.0
C975 C 0.71722 0.39703 0.61854 0.0
C976 C 0.74158 0.44774 0.64474 0.0
H977 H 0.76778 0.45393 0.69397 0.0
C978 C 0.73743 0.46996 0.64015 0.0
C979 C 0.75229 0.44183 0.66453 0.0
C980 C 0.7575 0.41814 0.66994 0.0
C981 C 0.74395 0.48657 0.65487 0.0
C982 C 0.7554 0.48071 0.67432 0.0
C983 C 0.75898 0.4584 0.6791 0.0
C984 C 0.76509 0.49733 0.68933 0.0
C985 C 0.73845 0.51017 0.64946 0.0
C986 C 0.78051 0.51256 0.68139 0.0
C987 C 0.79133 0.52678 0.69583 0.0
C988 C 0.78723 0.5258 0.71859 0.0
C989 C 0.77155 0.51073 0.72649 0.0
C990 C 0.7606 0.49662 0.71199 0.0
H991 H 0.72371 0.51125 0.63869 0.0
H992 H 0.7354 0.51994 0.66459 0.0
H993 H 0.75245 0.51767 0.64046 0.0
H994 H 0.78473 0.513 0.66408 0.0
H995 H 0.80337 0.53812 0.68918 0.0
H996 H 0.73241 0.4902 0.23594 0.0
H997 H 0.74691 0.51641 0.20879 0.0
H998 H 0.69539 0.49805 0.16352 0.0
H999 H 0.68047 0.47255 0.1907 0.0
H1000 H 0.76185 0.51361 0.166 0.0
H1001 H 0.68545 0.56341 0.16964 0.0
H1002 H 0.6912 0.54168 0.18901 0.0
H1003 H 0.68041 0.53531 0.16215 0.0
C1004 C 0.7243 0.4917 0.22013 0.0
C1005 C 0.70506 0.4797 0.21558 0.0
C1006 C 0.7326 0.50663 0.20464 0.0
C1007 C 0.72188 0.50959 0.18436 0.0
C1008 C 0.70352 0.49654 0.17931 0.0
H1009 H 0.73671 0.60143 0.07568 0.0
H1010 H 0.73057 0.5676 0.09681 0.0
C1011 C 0.69505 0.48194 0.19484 0.0
C1012 C 0.72913 0.52698 0.16884 0.0
H1013 H 0.71105 0.57282 0.14179 0.0
C1014 C 0.75078 0.52658 0.16072 0.0
C1015 C 0.71469 0.544 0.1621 0.0
C1016 C 0.69173 0.54631 0.17134 0.0
C1017 C 0.75823 0.54262 0.14579 0.0
C1018 C 0.74364 0.55933 0.13885 0.0
C1019 C 0.72205 0.55971 0.14692 0.0
C1020 C 0.75066 0.57763 0.12444 0.0
C1021 C 0.78155 0.54162 0.13742 0.0
C1022 C 0.7643 0.59419 0.13286 0.0
C1023 C 0.76763 0.61358 0.12099 0.0
C1024 C 0.75742 0.6167 0.10043 0.0
C1025 C 0.74486 0.59948 0.09142 0.0
C1026 C 0.74132 0.58017 0.10346 0.0
H1027 H 0.78947 0.52555 0.14111 0.0
H1028 H 0.78198 0.54445 0.11937 0.0
H1029 H 0.79136 0.55482 0.14536 0.0
H1030 H 0.7714 0.59264 0.14914 0.0
H1031 H 0.77748 0.62651 0.12831 0.0
H1032 H 0.25945 0.09383 0.41158 0.0
H1033 H 0.26106 0.0617 0.38776 0.0
H1034 H 0.2036 0.08437 0.35277 0.0
H1035 H 0.20219 0.11713 0.37625 0.0
H1036 H 0.23349 0.02774 0.37675 0.0
H1037 H 0.2495 0.08166 0.30434 0.0
H1038 H 0.24958 0.09208 0.33211 0.0
H1039 H 0.22397 0.08627 0.31849 0.0
C1040 C 0.24695 0.09194 0.39901 0.0
C1041 C 0.23095 0.10832 0.39556 0.0
C1042 C 0.24787 0.07348 0.38543 0.0
C1043 C 0.23277 0.0709 0.36816 0.0
C1044 C 0.21575 0.08633 0.36566 0.0
H1045 H 0.25572 0.97679 0.26016 0.0
H1046 H 0.23555 0.00142 0.28501 0.0
C1047 C 0.21489 0.10497 0.3792 0.0
C1048 C 0.23624 0.05296 0.35198 0.0
H1049 H 0.25246 0.04367 0.29896 0.0
C1050 C 0.23729 0.03118 0.35965 0.0
C1051 C 0.24123 0.05747 0.32966 0.0
C1052 C 0.24121 0.08062 0.3206 0.0
C1053 C 0.24409 0.01395 0.34585 0.0
C1054 C 0.25007 0.01867 0.32389 0.0
C1055 C 0.2478 0.04017 0.31584 0.0
C1056 C 0.26111 0.0022 0.30977 0.0
C1057 C 0.24542 0.99092 0.35501 0.0
C1058 C 0.28215 0.99463 0.31548 0.0
C1059 C 0.29378 0.98083 0.30129 0.0
C1060 C 0.28458 0.9743 0.28108 0.0
C1061 C 0.26325 0.98151 0.27561 0.0
C1062 C 0.2517 0.99553 0.28977 0.0
H1063 H 0.23461 0.98887 0.36961 0.0
H1064 H 0.24075 0.97856 0.34238 0.0
H1065 H 0.2626 0.98752 0.3602 0.0
H1066 H 0.28986 -8e-05 0.33066 0.0
H1067 H 0.31011 0.97549 0.30605 0.0
H1068 H 0.24741 0.90186 0.9263 0.0
H1069 H 0.23962 0.93628 0.90674 0.0
H1070 H 0.26698 0.90881 0.84731 0.0
H1071 H 0.27526 0.87472 0.86669 0.0
H1072 H 0.27771 0.95279 0.85281 0.0
H1073 H 0.1879 0.93863 0.86393 0.0
H1074 H 0.20373 0.94034 0.88884 0.0
H1075 H 0.20813 0.91783 0.87017 0.0
C1076 C 0.25212 0.90328 0.90917 0.0
C1077 C 0.26164 0.88538 0.89799 0.0
C1078 C 0.24752 0.92291 0.89798 0.0
C1079 C 0.25225 0.92489 0.87544 0.0
C1080 C 0.26304 0.90759 0.86466 0.0
H1081 H 0.221 0.00056 0.76122 0.0
H1082 H 0.23688 0.97616 0.78899 0.0
C1083 C 0.2677 0.88806 0.87579 0.0
C1084 C 0.24472 0.94418 0.86249 0.0
H1085 H 0.19836 0.96944 0.84318 0.0
C1086 C 0.26037 0.95659 0.85086 0.0
C1087 C 0.22208 0.94904 0.8599 0.0
C1088 C 0.20442 0.9357 0.8712 0.0
C1089 C 0.25396 0.97349 0.83644 0.0
C1090 C 0.23132 0.97788 0.8334 0.0
C1091 C 0.21572 0.96601 0.84558 0.0
C1092 C 0.22328 0.99381 0.81677 0.0
C1093 C 0.27145 0.98639 0.82446 0.0
C1094 C 0.21021 0.01173 0.82316 0.0
C1095 C 0.20103 0.02567 0.80733 0.0
C1096 C 0.20454 0.02181 0.78475 0.0
C1097 C 0.21796 0.00404 0.77844 0.0
C1098 C 0.22719 0.99015 0.7943 0.0
H1099 H 0.28759 0.98538 0.833 0.0
H1100 H 0.27352 0.97952 0.80767 0.0
H1101 H 0.2667 0.00397 0.82287 0.0
H1102 H 0.20688 0.01474 0.84042 0.0
H1103 H 0.19082 0.03922 0.81282 0.0
H1104 H 0.69412 0.81084 0.53641 0.0
H1105 H 0.66763 0.79453 0.51089 0.0
H1106 H 0.72044 0.76126 0.47713 0.0
H1107 H 0.74708 0.77774 0.50229 0.0
H1108 H 0.69403 0.78545 0.44953 0.0
H1109 H 0.64272 0.73256 0.50353 0.0
H1110 H 0.64548 0.76051 0.51276 0.0
H1111 H 0.66928 0.74296 0.51191 0.0
C1112 C 0.7001 0.79978 0.52377 0.0
C1113 C 0.72279 0.79573 0.52133 0.0
C1114 C 0.68488 0.79034 0.50928 0.0
C1115 C 0.69202 0.7765 0.49223 0.0
C1116 C 0.71456 0.77185 0.49022 0.0
H1117 H 0.6359 0.71738 0.37607 0.0
H1118 H 0.65788 0.72604 0.40856 0.0
C1119 C 0.72978 0.78131 0.50463 0.0
C1120 C 0.67641 0.76856 0.47521 0.0
H1121 H 0.6299 0.73798 0.46687 0.0
C1122 C 0.6801 0.77496 0.45333 0.0
C1123 C 0.65809 0.75507 0.48023 0.0
C1124 C 0.65369 0.74718 0.50335 0.0
C1125 C 0.66597 0.76834 0.43635 0.0
C1126 C 0.64781 0.75465 0.44129 0.0
C1127 C 0.64389 0.74841 0.46317 0.0
C1128 C 0.63305 0.74658 0.42364 0.0
C1129 C 0.67042 0.7763 0.41323 0.0
C1130 C 0.61139 0.75439 0.42193 0.0
C1131 C 0.59867 0.7494 0.40335 0.0
C1132 C 0.6075 0.73655 0.38621 0.0
C1133 C 0.62868 0.72755 0.3888 0.0
C1134 C 0.6413 0.73248 0.40735 0.0
H1135 H 0.68182 0.79059 0.41302 0.0
H1136 H 0.67809 0.76281 0.4036 0.0
H1137 H 0.65488 0.78108 0.40488 0.0
H1138 H 0.60473 0.76524 0.43441 0.0
H1139 H 0.5824 0.75656 0.40191 0.0
H1140 H 0.91249 0.24391 0.89697 0.0
H1141 H 0.88836 0.23967 0.92884 0.0
H1142 H 0.84308 0.28673 0.90113 0.0
H1143 H 0.86707 0.29111 0.86907 0.0
H1144 H 0.86795 0.27147 0.96009 0.0
H1145 H 0.80864 0.22683 0.90625 0.0
H1146 H 0.83686 0.23154 0.89826 0.0
H1147 H 0.81734 0.25368 0.89732 0.0
C1148 C 0.89761 0.25369 0.89779 0.0
C1149 C 0.89158 0.26762 0.88029 0.0
C1150 C 0.88387 0.25126 0.91605 0.0
C1151 C 0.86383 0.26263 0.91712 0.0
C1152 C 0.8584 0.27764 0.90044 0.0
H1153 H 0.7517 0.23203 0.0018 0.0
H1154 H 0.77571 0.24973 0.97477 0.0
C1155 C 0.87219 0.28017 0.88218 0.0
C1156 C 0.84785 0.25719 0.93467 0.0
H1157 H 0.79982 0.22954 0.9437 0.0
C1158 C 0.85294 0.26247 0.95656 0.0
C1159 C 0.82832 0.24546 0.92993 0.0
C1160 C 0.8224 0.23885 0.90672 0.0
C1161 C 0.83902 0.25618 0.97392 0.0
C1162 C 0.81983 0.24381 0.96924 0.0
C1163 C 0.81451 0.23904 0.94727 0.0
C1164 C 0.80561 0.23458 0.98682 0.0
C1165 C 0.84498 0.26293 0.99706 0.0
C1166 C 0.81442 0.22015 0.00256 0.0
C1167 C 0.80078 0.21007 0.01807 0.0
C1168 C 0.77795 0.21397 0.01798 0.0
C1169 C 0.76919 0.2286 0.00231 0.0
C1170 C 0.78289 0.23877 0.98687 0.0
H1171 H 0.85547 0.2779 0.99714 0.0
H1172 H 0.83006 0.26616 0.00709 0.0
H1173 H 0.85446 0.24947 0.00497 0.0
H1174 H 0.8318 0.21618 0.00249 0.0
H1175 H 0.8081 0.19884 0.02983 0.0
H1176 H 0.08465 0.7418 0.59385 0.0
H1177 H 0.10853 0.7377 0.56179 0.0
H1178 H 0.15095 0.78887 0.58655 0.0
H1179 H 0.12721 0.79312 0.6188 0.0
H1180 H 0.12784 0.76896 0.52851 0.0
H1181 H 0.18784 0.72987 0.58585 0.0
H1182 H 0.15931 0.73382 0.59306 0.0
H1183 H 0.17785 0.75679 0.59307 0.0
C1184 C 0.09879 0.75254 0.59229 0.0
C1185 C 0.10423 0.76752 0.6091 0.0
C1186 C 0.11237 0.75021 0.57391 0.0
C1187 C 0.13161 0.76276 0.57203 0.0
C1188 C 0.13622 0.77891 0.58787 0.0
H1189 H 0.24686 0.73102 0.49316 0.0
H1190 H 0.22109 0.75006 0.51743 0.0
C1191 C 0.1226 0.78133 0.60625 0.0
C1192 C 0.14803 0.757 0.55504 0.0
H1193 H 0.19716 0.7307 0.54849 0.0
C1194 C 0.14312 0.76079 0.53281 0.0
C1195 C 0.16787 0.74629 0.56079 0.0
C1196 C 0.1736 0.74126 0.58445 0.0
C1197 C 0.15759 0.75403 0.51607 0.0
C1198 C 0.17715 0.74273 0.52181 0.0
C1199 C 0.18221 0.7394 0.54411 0.0
C1200 C 0.19223 0.73319 0.50515 0.0
C1201 C 0.15184 0.75915 0.49248 0.0
C1202 C 0.18455 0.71749 0.49002 0.0
C1203 C 0.19924 0.70666 0.47601 0.0
C1204 C 0.22194 0.71105 0.47714 0.0
C1205 C 0.2295 0.72713 0.49197 0.0
C1206 C 0.21479 0.73808 0.50582 0.0
H1207 H 0.14077 0.77366 0.49132 0.0
H1208 H 0.16681 0.76237 0.48253 0.0
H1209 H 0.14305 0.74488 0.48522 0.0
H1210 H 0.16732 0.713 0.48958 0.0
H1211 H 0.19288 0.69431 0.46484 0.0
H1212 H 0.30956 0.30428 0.96195 0.0
H1213 H 0.33662 0.28896 0.98739 0.0
H1214 H 0.28451 0.25916 0.02518 0.0
H1215 H 0.25721 0.27433 0.99973 0.0
H1216 H 0.3381 0.2987 0.03234 0.0
H1217 H 0.32952 0.20888 0.01861 0.0
H1218 H 0.31949 0.2291 0.99924 0.0
H1219 H 0.30396 0.22288 0.02363 0.0
C1220 C 0.30379 0.29425 0.97551 0.0
C1221 C 0.28114 0.29063 0.97883 0.0
C1222 C 0.31933 0.28549 0.99002 0.0
C1223 C 0.31261 0.27275 0.00803 0.0
C1224 C 0.29009 0.26861 0.01114 0.0
H1225 H 0.36388 0.22389 0.12846 0.0
H1226 H 0.34405 0.23123 0.09443 0.0
C1227 C 0.27448 0.27742 0.99664 0.0
C1228 C 0.329 0.26538 0.02458 0.0
H1229 H 0.34931 0.21996 0.05073 0.0
C1230 C 0.34081 0.28148 0.03618 0.0
C1231 C 0.33244 0.24291 0.02953 0.0
C1232 C 0.32085 0.2249 0.01698 0.0
C1233 C 0.35525 0.27579 0.0533 0.0
C1234 C 0.35837 0.25331 0.05861 0.0
C1235 C 0.34699 0.23717 0.04658 0.0
C1236 C 0.37166 0.24646 0.07794 0.0
C1237 C 0.36617 0.29397 0.06625 0.0
C1238 C 0.3941 0.2518 0.07971 0.0
C1239 C 0.40556 0.24773 0.09932 0.0
C1240 C 0.39476 0.23816 0.11742 0.0
C1241 C 0.37269 0.23153 0.11497 0.0
C1242 C 0.36129 0.23564 0.09547 0.0
H1243 H 0.35845 0.31024 0.06309 0.0
H1244 H 0.36539 0.29055 0.08418 0.0
H1245 H 0.38375 0.29506 0.06145 0.0
H1246 H 0.40255 0.25972 0.06618 0.0
H1247 H 0.42257 0.25289 0.10058 0.0
H1248 H 0.5198 0.69659 0.81056 0.0
H1249 H 0.49502 0.67115 0.79182 0.0
H1250 H 0.49225 0.7146 0.7358 0.0
H1251 H 0.51722 0.74029 0.75445 0.0
H1252 H 0.45038 0.70113 0.75397 0.0
H1253 H 0.50524 0.63004 0.73805 0.0
H1254 H 0.50688 0.64055 0.76564 0.0
H1255 H 0.51552 0.65751 0.743 0.0
C1256 C 0.51411 0.7007 0.79417 0.0
C1257 C 0.5204 0.72054 0.78405 0.0
C1258 C 0.50009 0.68603 0.78341 0.0
C1259 C 0.49206 0.69088 0.76233 0.0
C1260 C 0.49847 0.7105 0.752 0.0
H1261 H 0.37732 0.62279 0.70517 0.0
H1262 H 0.41004 0.64629 0.70657 0.0
C1263 C 0.51271 0.72514 0.76268 0.0
C1264 C 0.47546 0.67624 0.75214 0.0
H1265 H 0.46643 0.62283 0.73731 0.0
C1266 C 0.4539 0.68412 0.74985 0.0
C1267 C 0.48019 0.65409 0.74689 0.0
C1268 C 0.50326 0.64504 0.74831 0.0
C1269 C 0.43659 0.67005 0.74384 0.0
C1270 C 0.44115 0.6476 0.73943 0.0
C1271 C 0.46295 0.64002 0.74066 0.0
C1272 C 0.42324 0.63134 0.73609 0.0
C1273 C 0.41342 0.67904 0.7437 0.0
C1274 C 0.42054 0.61427 0.75139 0.0
C1275 C 0.40208 0.60064 0.75047 0.0
C1276 C 0.38585 0.60387 0.73427 0.0
C1277 C 0.38936 0.62002 0.71803 0.0
C1278 C 0.40797 0.63357 0.71888 0.0
H1279 H 0.41234 0.6954 0.75179 0.0
H1280 H 0.40777 0.68092 0.72644 0.0
H1281 H 0.40198 0.66761 0.75221 0.0
H1282 H 0.43219 0.61214 0.76472 0.0
H1283 H 0.40006 0.58827 0.76314 0.0
H1284 H 0.02265 0.79892 0.18355 0.0
H1285 H 0.99917 0.82486 0.20318 0.0
H1286 H 0.99646 0.78082 0.25875 0.0
H1287 H 0.02015 0.75459 0.23916 0.0
H1288 H 0.95472 0.79545 0.24189 0.0
H1289 H 0.01126 0.86535 0.25673 0.0
H1290 H 0.01213 0.85514 0.22901 0.0
H1291 H 0.0209 0.83773 0.25128 0.0
C1292 C 0.01727 0.79478 0.20004 0.0
C1293 C 0.02316 0.77462 0.20975 0.0
C1294 C 0.00401 0.80975 0.21131 0.0
C1295 C 0.99635 0.80489 0.23252 0.0
C1296 C 0.00242 0.78494 0.24247 0.0
H1297 H 0.88374 0.87581 0.29027 0.0
H1298 H 0.91614 0.85187 0.2891 0.0
C1299 C 0.01592 0.76999 0.23125 0.0
C1300 C 0.98031 0.81984 0.24314 0.0
H1301 H 0.97254 0.87359 0.25747 0.0
C1302 C 0.95864 0.81241 0.24582 0.0
C1303 C 0.98556 0.84194 0.24813 0.0
C1304 C 0.00878 0.8505 0.24635 0.0
C1305 C 0.9417 0.82691 0.25188 0.0
C1306 C 0.94675 0.84931 0.25592 0.0
C1307 C 0.96869 0.85643 0.25439 0.0
C1308 C 0.9292 0.86598 0.25912 0.0
C1309 C 0.91836 0.8184 0.25241 0.0
C1310 C 0.92656 0.88274 0.24347 0.0
C1311 C 0.90827 0.89662 0.24425 0.0
C1312 C 0.89216 0.89394 0.26065 0.0
C1313 C 0.89567 0.87814 0.27724 0.0
C1314 C 0.91411 0.86435 0.27653 0.0
H1315 H 0.91686 0.8019 0.24468 0.0
H1316 H 0.91285 0.81699 0.26976 0.0
H1317 H 0.90707 0.82988 0.24378 0.0
H1318 H 0.93808 0.8844 0.22997 0.0
H1319 H 0.90623 0.90871 0.2313 0.0
H1320 H 0.49466 0.24365 0.72987 0.0
H1321 H 0.52144 0.21818 0.7458 0.0
H1322 H 0.49078 0.16414 0.71152 0.0
H1323 H 0.46363 0.18937 0.69587 0.0
H1324 H 0.50358 0.15316 0.75429 0.0
H1325 H 0.57153 0.19359 0.70859 0.0
H1326 H 0.55625 0.212 0.72589 0.0
H1327 H 0.54295 0.19911 0.70279 0.0
C1328 C 0.49347 0.22632 0.72585 0.0
C1329 C 0.47716 0.21863 0.71133 0.0
C1330 C 0.50885 0.2118 0.73491 0.0
C1331 C 0.50839 0.18935 0.72945 0.0
C1332 C 0.49152 0.18143 0.71584 0.0
H1333 H 0.59937 0.0803 0.74757 0.0
H1334 H 0.56615 0.10212 0.74067 0.0
C1335 C 0.47603 0.19591 0.70687 0.0
C1336 C 0.52613 0.17436 0.73702 0.0
H1337 H 0.58164 0.16623 0.73435 0.0
C1338 C 0.52065 0.15596 0.74993 0.0
C1339 C 0.54836 0.17793 0.7311 0.0
C1340 C 0.55516 0.19659 0.71616 0.0
C1341 C 0.53694 0.14134 0.7575 0.0
C1342 C 0.55917 0.14518 0.75184 0.0
C1343 C 0.56458 0.16346 0.73882 0.0
C1344 C 0.57731 0.13053 0.75902 0.0
C1345 C 0.53037 0.12214 0.77178 0.0
C1346 C 0.59439 0.13911 0.77194 0.0
C1347 C 0.61336 0.12677 0.77584 0.0
C1348 C 0.61575 0.1056 0.76674 0.0
C1349 C 0.59806 0.09651 0.75486 0.0
C1350 C 0.57902 0.10894 0.75095 0.0
H1351 H 0.51347 0.12409 0.77845 0.0
H1352 H 0.53086 0.10683 0.76184 0.0
H1353 H 0.54205 0.12016 0.7857 0.0
H1354 H 0.5934 0.15574 0.7783 0.0
H1355 H 0.62657 0.13423 0.7852 0.0
H1356 H 0.09337 0.4204 0.25293 0.0
H1357 H 0.05889 0.40049 0.25925 0.0
H1358 H 0.08952 0.34026 0.23759 0.0
H1359 H 0.1238 0.35994 0.23085 0.0
H1360 H 0.0459 0.345 0.22287 0.0
H1361 H 0.05377 0.35987 0.31295 0.0
H1362 H 0.05322 0.38402 0.2959 0.0
H1363 H 0.07596 0.36523 0.29399 0.0
C1364 C 0.09268 0.40298 0.2492 0.0
C1365 C 0.11148 0.3917 0.24171 0.0
C1366 C 0.07299 0.39162 0.25293 0.0
C1367 C 0.07182 0.36883 0.24932 0.0
C1368 C 0.09012 0.35783 0.2406 0.0
H1369 H 0.99528 0.25518 0.27934 0.0
H1370 H 0.01986 0.28272 0.26347 0.0
C1371 C 0.10975 0.36913 0.23683 0.0
C1372 C 0.05221 0.35596 0.25598 0.0
H1373 H 0.02403 0.33827 0.30123 0.0
C1374 C 0.04095 0.34368 0.23997 0.0
C1375 C 0.04584 0.35424 0.27831 0.0
C1376 C 0.05788 0.36637 0.29636 0.0
C1377 C 0.02368 0.32944 0.24575 0.0
C1378 C 0.0178 0.32722 0.26816 0.0
C1379 C 0.02856 0.34005 0.28405 0.0
C1380 C 0.00157 0.3107 0.27579 0.0
C1381 C 0.01198 0.31682 0.22786 0.0
C1382 C 0.98321 0.31727 0.28812 0.0
C1383 C 0.96919 0.30156 0.29737 0.0
C1384 C 0.9734 0.27894 0.29463 0.0
C1385 C 0.99152 0.27244 0.28178 0.0
C1386 C 0.00551 0.28817 0.27253 0.0
H1387 H 0.01366 0.32509 0.21164 0.0
H1388 H 0.01937 0.30018 0.22646 0.0
H1389 H 0.99422 0.31489 0.23168 0.0
H1390 H 0.97996 0.33458 0.29095 0.0
H1391 H 0.95537 0.30718 0.30711 0.0
H1392 H 0.1824 0.35657 0.98226 0.0
H1393 H 0.16984 0.37553 0.01555 0.0
H1394 H 0.23551 0.37139 0.04243 0.0
H1395 H 0.24831 0.35393 0.00864 0.0
H1396 H 0.16639 0.36247 0.05436 0.0
H1397 H 0.22338 0.4326 0.05828 0.0
H1398 H 0.22149 0.41539 0.03419 0.0
H1399 H 0.2392 0.40781 0.05685 0.0
C1400 C 0.19418 0.36015 0.99517 0.0
C1401 C 0.21634 0.35402 0.99286 0.0
C1402 C 0.18701 0.37094 0.01418 0.0
C1403 C 0.20178 0.37538 0.03144 0.0
C1404 C 0.22392 0.36904 0.02911 0.0
H1405 H 0.17321 0.37681 0.1684 0.0
H1406 H 0.17627 0.36883 0.12924 0.0
C1407 C 0.23121 0.35885 0.00985 0.0
C1408 C 0.19381 0.38496 0.05252 0.0
H1409 H 0.20805 0.42077 0.09332 0.0
C1410 C 0.17527 0.37555 0.06265 0.0
C1411 C 0.20484 0.40248 0.06323 0.0
C1412 C 0.22315 0.41529 0.05239 0.0
C1413 C 0.1683 0.38225 0.08362 0.0
C1414 C 0.18087 0.398 0.09533 0.0
C1415 C 0.1986 0.40834 0.08467 0.0
C1416 C 0.17693 0.40302 0.11899 0.0
C1417 C 0.14747 0.37234 0.09283 0.0
C1418 C 0.17687 0.42489 0.12657 0.0
C1419 C 0.17596 0.42944 0.14911 0.0
C1420 C 0.17461 0.41222 0.16445 0.0
C1421 C 0.17382 0.39041 0.15689 0.0
C1422 C 0.17538 0.38585 0.13443 0.0
H1423 H 0.13563 0.36848 0.07944 0.0
H1424 H 0.15147 0.35662 0.10123 0.0
H1425 H 0.13931 0.38353 0.10474 0.0
H1426 H 0.17812 0.43846 0.11507 0.0
H1427 H 0.17664 0.4464 0.15458 0.0
H1428 H 0.31257 0.65302 0.49733 0.0
H1429 H 0.31941 0.63326 0.53153 0.0
H1430 H 0.2546 0.60456 0.52819 0.0
H1431 H 0.24738 0.62464 0.49404 0.0
H1432 H 0.26238 0.6237 0.56744 0.0
H1433 H 0.33261 0.56975 0.54656 0.0
H1434 H 0.33775 0.59785 0.53914 0.0
H1435 H 0.31588 0.58294 0.52581 0.0
C1436 C 0.29983 0.64227 0.50364 0.0
C1437 C 0.27934 0.64056 0.49297 0.0
C1438 C 0.30388 0.63079 0.52313 0.0
C1439 C 0.28765 0.61716 0.53227 0.0
C1440 C 0.26741 0.61487 0.52134 0.0
H1441 H 0.30801 0.54677 0.65758 0.0
H1442 H 0.30135 0.55406 0.6184 0.0
C1443 C 0.26331 0.62639 0.50183 0.0
C1444 C 0.291 0.60733 0.55437 0.0
H1445 H 0.32725 0.57736 0.58525 0.0
C1446 C 0.27637 0.61327 0.57123 0.0
C1447 C 0.30911 0.59351 0.55931 0.0
C1448 C 0.32459 0.58545 0.54168 0.0
C1449 C 0.27998 0.60672 0.59305 0.0
C1450 C 0.29891 0.5942 0.59822 0.0
C1451 C 0.31292 0.58724 0.58125 0.0
C1452 C 0.30488 0.58936 0.62133 0.0
C1453 C 0.26367 0.61358 0.61048 0.0
C1454 C 0.30982 0.60672 0.63569 0.0
C1455 C 0.31361 0.60266 0.65795 0.0
C1456 C 0.31263 0.5811 0.66634 0.0
C1457 C 0.30879 0.56357 0.65168 0.0
C1458 C 0.30496 0.56769 0.62931 0.0
H1459 H 0.24739 0.61767 0.60323 0.0
H1460 H 0.26143 0.60038 0.62293 0.0
H1461 H 0.26992 0.62846 0.61903 0.0
H1462 H 0.31025 0.62352 0.62973 0.0
H1463 H 0.31679 0.61654 0.66868 0.0
H1464 H 0.68332 0.16194 0.0106 0.0
H1465 H 0.67173 0.14254 0.97737 0.0
H1466 H 0.73393 0.10849 0.97526 0.0
H1467 H 0.74578 0.12781 0.00854 0.0
H1468 H 0.69648 0.1468 0.93726 0.0
H1469 H 0.68719 0.05956 0.96302 0.0
H1470 H 0.6862 0.08219 0.98231 0.0
H1471 H 0.71215 0.07294 0.97164 0.0
C1472 C 0.69445 0.15007 0.00333 0.0
C1473 C 0.71559 0.14659 0.01216 0.0
C1474 C 0.68775 0.13897 0.98434 0.0
C1475 C 0.7019 0.12398 0.97399 0.0
C1476 C 0.72263 0.11975 0.98322 0.0
H1477 H 0.71026 0.05924 0.84873 0.0
H1478 H 0.71275 0.06965 0.88748 0.0
C1479 C 0.72942 0.13093 0.00217 0.0
C1480 C 0.69599 0.11474 0.95224 0.0
H1481 H 0.68667 0.06675 0.92453 0.0
C1482 C 0.69408 0.12933 0.93448 0.0
C1483 C 0.69312 0.09193 0.94874 0.0
C1484 C 0.69459 0.07569 0.96743 0.0
C1485 C 0.68999 0.1217 0.9131 0.0
C1486 C 0.68706 0.09886 0.9095 0.0
C1487 C 0.68874 0.08425 0.92735 0.0
C1488 C 0.68346 0.0899 0.88708 0.0
C1489 C 0.68979 0.13814 0.89446 0.0
C1490 C 0.6656 0.097 0.87426 0.0
C1491 C 0.66426 0.09131 0.85202 0.0
C1492 C 0.68058 0.07808 0.84231 0.0
C1493 C 0.69746 0.06952 0.85566 0.0
C1494 C 0.69892 0.07545 0.87784 0.0
H1495 H 0.69782 0.15388 0.89917 0.0
H1496 H 0.6983 0.13148 0.87973 0.0
H1497 H 0.6725 0.14186 0.88988 0.0
H1498 H 0.65315 0.10768 0.88124 0.0
H1499 H 0.65087 0.0979 0.84226 0.0
H1500 H 0.81456 0.8504 0.49977 0.0
H1501 H 0.82161 0.86814 0.46456 0.0
H1502 H 0.75661 0.89665 0.46555 0.0
H1503 H 0.74916 0.87854 0.50077 0.0
H1504 H 0.76511 0.87527 0.42744 0.0
H1505 H 0.83454 0.93088 0.44652 0.0
H1506 H 0.83979 0.90329 0.45558 0.0
H1507 H 0.81757 0.91872 0.46767 0.0
C1508 C 0.80181 0.86068 0.49271 0.0
C1509 C 0.78122 0.86291 0.50306 0.0
C1510 C 0.80598 0.871 0.47264 0.0
C1511 C 0.78976 0.88398 0.46258 0.0
C1512 C 0.76941 0.88681 0.47313 0.0
H1513 H 0.81312 0.94978 0.33614 0.0
H1514 H 0.80568 0.94301 0.37516 0.0
C1515 C 0.76519 0.87644 0.49325 0.0
C1516 C 0.79337 0.89258 0.44005 0.0
H1517 H 0.82989 0.92112 0.40827 0.0
C1518 C 0.77908 0.88557 0.42331 0.0
C1519 C 0.81146 0.90622 0.43469 0.0
C1520 C 0.82657 0.9154 0.45212 0.0
C1521 C 0.78299 0.89097 0.40123 0.0
C1522 C 0.80191 0.90334 0.39572 0.0
C1523 C 0.81561 0.9113 0.41253 0.0
C1524 C 0.80798 0.90759 0.37253 0.0
C1525 C 0.76689 0.88322 0.38397 0.0
C1526 C 0.81246 0.88994 0.35835 0.0
C1527 C 0.81668 0.8937 0.33609 0.0
C1528 C 0.81663 0.91523 0.3276 0.0
C1529 C 0.81316 0.93298 0.3421 0.0
C1530 C 0.8089 0.92917 0.3644 0.0
H1531 H 0.75049 0.8796 0.39121 0.0
H1532 H 0.76484 0.89571 0.37078 0.0
H1533 H 0.77317 0.86785 0.37637 0.0
H1534 H 0.81233 0.87319 0.36445 0.0
H1535 H 0.81951 0.87966 0.32548 0.0
H1536 H 0.1645 0.17721 0.38474 0.0
H1537 H 0.12568 0.1846 0.37792 0.0
H1538 H 0.11464 0.19264 0.44753 0.0
H1539 H 0.15371 0.18513 0.45465 0.0
H1540 H 0.08088 0.16785 0.42384 0.0
H1541 H 0.10056 0.24795 0.38481 0.0
H1542 H 0.11584 0.22524 0.37365 0.0
H1543 H 0.11995 0.23321 0.40185 0.0
C1544 C 0.15386 0.18035 0.39869 0.0
C1545 C 0.16232 0.18085 0.42024 0.0
C1546 C 0.13167 0.18465 0.39472 0.0
C1547 C 0.11744 0.18962 0.41218 0.0
C1548 C 0.12546 0.18901 0.43383 0.0
H1549 H 0.99104 0.25025 0.3784 0.0
H1550 H 0.02524 0.24211 0.39809 0.0
C1551 C 0.14776 0.18469 0.43785 0.0
C1552 C 0.09445 0.19617 0.40745 0.0
H1553 H 0.06441 0.23386 0.37863 0.0
C1554 C 0.07718 0.18242 0.41421 0.0
C1555 C 0.08967 0.21542 0.39526 0.0
C1556 C 0.10745 0.23145 0.38864 0.0
C1557 C 0.05532 0.18682 0.40803 0.0
C1558 C 0.05075 0.20526 0.39453 0.0
C1559 C 0.06791 0.21962 0.38882 0.0
C1560 C 0.02869 0.20924 0.38481 0.0
C1561 C 0.03737 0.17158 0.41586 0.0
C1562 C 0.0192 0.19344 0.3709 0.0
C1563 C 0.9997 0.19803 0.35964 0.0
C1564 C 0.98934 0.21863 0.36186 0.0
C1565 C 0.99857 0.23424 0.37627 0.0
C1566 C 0.01811 0.22961 0.38756 0.0
H1567 H 0.04211 0.16317 0.43139 0.0
H1568 H 0.02171 0.1806 0.41859 0.0
H1569 H 0.03449 0.15872 0.40322 0.0
H1570 H 0.02732 0.17782 0.36809 0.0
H1571 H 0.99309 0.18559 0.3487 0.0
H1572 H 0.33727 0.84769 0.89449 0.0
H1573 H 0.37596 0.84572 0.88371 0.0
H1574 H 0.38757 0.79635 0.93331 0.0
H1575 H 0.34896 0.79825 0.9444 0.0
H1576 H 0.42338 0.82913 0.92645 0.0
H1577 H 0.39344 0.78781 0.85036 0.0
H1578 H 0.38136 0.81414 0.85634 0.0
H1579 H 0.37635 0.79128 0.87438 0.0
C1580 C 0.34811 0.83671 0.90343 0.0
C1581 C 0.3399 0.82279 0.92002 0.0
C1582 C 0.3702 0.83563 0.89724 0.0
C1583 C 0.38443 0.82063 0.9075 0.0
C1584 C 0.37676 0.80797 0.92518 0.0
H1585 H 0.51309 0.76577 0.88047 0.0
H1586 H 0.47962 0.77904 0.89851 0.0
C1587 C 0.35467 0.80905 0.93143 0.0
C1588 C 0.40642 0.81625 0.89814 0.0
H1589 H 0.43151 0.79371 0.85332 0.0
C1590 C 0.42525 0.82147 0.91044 0.0
C1591 C 0.40868 0.8061 0.87733 0.0
C1592 C 0.38893 0.79931 0.86384 0.0
C1593 C 0.44643 0.81708 0.90223 0.0
C1594 C 0.44865 0.80685 0.88143 0.0
C1595 C 0.42976 0.80169 0.8692 0.0
C1596 C 0.47027 0.80086 0.87193 0.0
C1597 C 0.4662 0.82368 0.91572 0.0
C1598 C 0.47606 0.80864 0.85099 0.0
C1599 C 0.49494 0.80086 0.84052 0.0
C1600 C 0.50842 0.7851 0.85079 0.0
C1601 C 0.50306 0.77793 0.87214 0.0
C1602 C 0.48403 0.78563 0.88255 0.0
H1603 H 0.462 0.8366 0.92795 0.0
H1604 H 0.47237 0.80911 0.92484 0.0
H1605 H 0.47968 0.82984 0.90503 0.0
H1606 H 0.46563 0.82034 0.84249 0.0
H1607 H 0.49871 0.80688 0.82418 0.0
H1608 H 0.50435 0.24656 0.64207 0.0
H1609 H 0.5382 0.25843 0.6238 0.0
H1610 H 0.51452 0.32539 0.62328 0.0
H1611 H 0.48119 0.31376 0.64264 0.0
H1612 H 0.54898 0.27772 0.58638 0.0
H1613 H 0.57101 0.33354 0.65526 0.0
H1614 H 0.54817 0.31475 0.65683 0.0
H1615 H 0.54541 0.34047 0.64235 0.0
C1616 C 0.50632 0.26378 0.63792 0.0
C1617 C 0.49034 0.27931 0.64408 0.0
C1618 C 0.52565 0.27056 0.62745 0.0
C1619 C 0.52919 0.29291 0.62266 0.0
C1620 C 0.51253 0.30819 0.62747 0.0
H1621 H 0.6508 0.3282 0.54989 0.0
H1622 H 0.61153 0.3237 0.55838 0.0
C1623 C 0.49344 0.30151 0.63841 0.0
C1624 C 0.55075 0.3002 0.61371 0.0
H1625 H 0.59486 0.33316 0.62484 0.0
C1626 C 0.559 0.28991 0.59472 0.0
C1627 C 0.56389 0.316 0.62472 0.0
C1628 C 0.5568 0.32668 0.64602 0.0
C1629 C 0.58027 0.29445 0.58684 0.0
C1630 C 0.59336 0.31027 0.59785 0.0
C1631 C 0.58476 0.32114 0.61633 0.0
C1632 C 0.61687 0.31401 0.59227 0.0
C1633 C 0.58888 0.28143 0.56752 0.0
C1634 C 0.63283 0.31087 0.60865 0.0
C1635 C 0.65506 0.31391 0.60401 0.0
C1636 C 0.66197 0.31995 0.58277 0.0
C1637 C 0.64599 0.32339 0.56636 0.0
C1638 C 0.62358 0.32065 0.57114 0.0
H1639 H 0.57874 0.26658 0.56421 0.0
H1640 H 0.58852 0.29191 0.55257 0.0
H1641 H 0.60614 0.27615 0.57038 0.0
H1642 H 0.62812 0.30574 0.62506 0.0
H1643 H 0.66686 0.31101 0.61706 0.0
H1644 H 0.99864 0.68877 0.16952 0.0
H1645 H 0.96402 0.6767 0.15325 0.0
H1646 H 0.97516 0.71915 0.09747 0.0
H1647 H 0.01015 0.73116 0.11352 0.0
H1648 H 0.93013 0.70567 0.1454 0.0
H1649 H 0.95347 0.66213 0.06855 0.0
H1650 H 0.97284 0.66743 0.09049 0.0
H1651 H 0.96546 0.68898 0.07161 0.0
C1652 C 0.99392 0.69535 0.15364 0.0
C1653 C 0.00703 0.71112 0.14292 0.0
C1654 C 0.97416 0.68835 0.14433 0.0
C1655 C 0.96711 0.69691 0.12411 0.0
C1656 C 0.98052 0.71203 0.11291 0.0
H1657 H 0.84338 0.70286 0.05648 0.0
H1658 H 0.88215 0.70356 0.06695 0.0
C1659 C 0.00043 0.71898 0.12217 0.0
C1660 C 0.94466 0.6919 0.11616 0.0
H1661 H 0.91543 0.67077 0.07307 0.0
C1662 C 0.92691 0.69782 0.12969 0.0
C1663 C 0.94057 0.68182 0.0956 0.0
C1664 C 0.95908 0.67453 0.08077 0.0
C1665 C 0.90513 0.69438 0.12303 0.0
C1666 C 0.901 0.68434 0.10245 0.0
C1667 C 0.91872 0.6783 0.08891 0.0
C1668 C 0.87827 0.6812 0.09437 0.0
C1669 C 0.88672 0.7022 0.13779 0.0
C1670 C 0.86345 0.66775 0.10586 0.0
C1671 C 0.84121 0.66741 0.10004 0.0
C1672 C 0.83348 0.68045 0.08254 0.0
C1673 C 0.84871 0.69279 0.07019 0.0
C1674 C 0.87091 0.69316 0.07608 0.0
H1675 H 0.89267 0.71382 0.15059 0.0
H1676 H 0.87364 0.71046 0.12805 0.0
H1677 H 0.87928 0.68783 0.14624 0.0
H1678 H 0.86896 0.65811 0.11981 0.0
H1679 H 0.82998 0.65751 0.10972 0.0
H1680 H 0.32672 0.99623 0.19637 0.0
H1681 H 0.34331 0.03056 0.18404 0.0
H1682 H 0.39865 0.01956 0.2271 0.0
H1683 H 0.38219 0.98482 0.2395 0.0
H1684 H 0.35166 0.06499 0.21324 0.0
H1685 H 0.42762 0.03984 0.16894 0.0
H1686 H 0.40522 0.02102 0.17426 0.0
H1687 H 0.42407 0.02813 0.19588 0.0
C1688 C 0.34257 0.00091 0.20307 0.0
C1689 C 0.35303 0.98789 0.21912 0.0
C1690 C 0.35205 0.02052 0.19592 0.0
C1691 C 0.37223 0.02755 0.20456 0.0
C1692 C 0.38322 0.01424 0.21996 0.0
H1693 H 0.4409 0.15137 0.20319 0.0
H1694 H 0.4305 0.1127 0.20591 0.0
C1695 C 0.37374 0.99446 0.22711 0.0
C1696 C 0.3804 0.04984 0.1991 0.0
H1697 H 0.42287 0.07811 0.17555 0.0
C1698 C 0.36716 0.06786 0.20485 0.0
C1699 C 0.40067 0.05348 0.18831 0.0
C1700 C 0.4152 0.03462 0.1813 0.0
C1701 C 0.37376 0.08949 0.2004 0.0
C1702 C 0.39396 0.09319 0.18945 0.0
C1703 C 0.40728 0.07518 0.18373 0.0
C1704 C 0.4019 0.11578 0.18496 0.0
C1705 C 0.35933 0.10822 0.20806 0.0
C1706 C 0.38974 0.13014 0.17154 0.0
C1707 C 0.39554 0.15236 0.17003 0.0
C1708 C 0.41368 0.16054 0.18186 0.0
C1709 C 0.42669 0.14572 0.19405 0.0
C1710 C 0.42083 0.12356 0.19558 0.0
H1711 H 0.34713 0.10278 0.22054 0.0
H1712 H 0.36938 0.12169 0.21524 0.0
H1713 H 0.35014 0.11498 0.19379 0.0
H1714 H 0.37529 0.12432 0.16287 0.0
H1715 H 0.38531 0.16325 0.1603 0.0
H1716 H 0.94604 0.34882 0.82065 0.0
H1717 H 0.93753 0.38831 0.81926 0.0
H1718 H 0.8714 0.37327 0.7983 0.0
H1719 H 0.87944 0.33416 0.80035 0.0
H1720 H 0.92592 0.41397 0.78589 0.0
H1721 H 0.85869 0.41569 0.84668 0.0
H1722 H 0.87654 0.39217 0.84357 0.0
H1723 H 0.85293 0.3956 0.8259 0.0
C1724 C 0.92962 0.35397 0.81599 0.0
C1725 C 0.91338 0.3383 0.81081 0.0
C1726 C 0.92479 0.37653 0.81518 0.0
C1727 C 0.90366 0.3838 0.80916 0.0
C1728 C 0.88758 0.36814 0.80372 0.0
H1729 H 0.86063 0.50132 0.7457 0.0
H1730 H 0.87841 0.467 0.75647 0.0
C1731 C 0.89229 0.3457 0.80476 0.0
C1732 C 0.89845 0.40765 0.80738 0.0
H1733 H 0.85876 0.44529 0.82003 0.0
C1734 C 0.91145 0.42095 0.79366 0.0
C1735 C 0.87991 0.41701 0.81794 0.0
C1736 C 0.86641 0.4044 0.83454 0.0
C1737 C 0.90565 0.4429 0.78918 0.0
C1738 C 0.88592 0.45157 0.79808 0.0
C1739 C 0.87368 0.43865 0.81283 0.0
C1740 C 0.87694 0.47343 0.79152 0.0
C1741 C 0.92079 0.45647 0.77494 0.0
C1742 C 0.86965 0.48842 0.80756 0.0
C1743 C 0.85891 0.50785 0.80142 0.0
C1744 C 0.85542 0.5128 0.77908 0.0
C1745 C 0.86331 0.49813 0.76303 0.0
C1746 C 0.87367 0.47853 0.76919 0.0
H1747 H 0.93813 0.45092 0.77665 0.0
H1748 H 0.91607 0.45437 0.75743 0.0
H1749 H 0.91991 0.47423 0.77918 0.0
H1750 H 0.87186 0.48488 0.82489 0.0
H1751 H 0.85307 0.51885 0.81417 0.0
H1752 H 0.60865 0.47857 0.27005 0.0
H1753 H 0.58884 0.51072 0.28426 0.0
H1754 H 0.64896 0.53525 0.31289 0.0
H1755 H 0.66877 0.50323 0.29916 0.0
H1756 H 0.61136 0.54048 0.34027 0.0
H1757 H 0.59786 0.57116 0.2549 0.0
H1758 H 0.58772 0.54403 0.26087 0.0
H1759 H 0.61682 0.54915 0.26101 0.0
C1760 C 0.61761 0.49071 0.27955 0.0
C1761 C 0.64038 0.4885 0.28315 0.0
C1762 C 0.60627 0.50906 0.28761 0.0
C1763 C 0.61754 0.52547 0.29933 0.0
C1764 C 0.63999 0.52278 0.30384 0.0
H1765 H 0.61134 0.65798 0.34157 0.0
H1766 H 0.61737 0.61833 0.33901 0.0
C1767 C 0.65131 0.5045 0.29584 0.0
C1768 C 0.6066 0.54629 0.30562 0.0
H1769 H 0.58647 0.59389 0.28377 0.0
C1770 C 0.60562 0.55209 0.32797 0.0
C1771 C 0.59919 0.56136 0.28951 0.0
C1772 C 0.60054 0.55629 0.26521 0.0
C1773 C 0.59787 0.57283 0.33461 0.0
C1774 C 0.5913 0.5882 0.31843 0.0
C1775 C 0.59146 0.58204 0.29616 0.0
C1776 C 0.58592 0.61138 0.32376 0.0
C1777 C 0.59699 0.57814 0.35883 0.0
C1778 C 0.56614 0.62063 0.31626 0.0
C1779 C 0.56278 0.64332 0.31744 0.0
C1780 C 0.57917 0.6572 0.32607 0.0
C1781 C 0.59838 0.64775 0.33486 0.0
C1782 C 0.60179 0.62503 0.33355 0.0
H1783 H 0.59538 0.56297 0.36891 0.0
H1784 H 0.61252 0.58643 0.36372 0.0
H1785 H 0.58305 0.5893 0.36269 0.0
H1786 H 0.55371 0.6104 0.30861 0.0
H1787 H 0.5477 0.65007 0.31071 0.0
H1788 H 0.13635 0.01913 0.68723 0.0
H1789 H 0.11574 0.98676 0.67515 0.0
H1790 H 0.11578 0.96205 0.74178 0.0
H1791 H 0.13519 0.99507 0.75406 0.0
H1792 H 0.12962 0.94785 0.67437 0.0
H1793 H 0.05505 0.94599 0.72575 0.0
H1794 H 0.07246 0.97 0.72428 0.0
H1795 H 0.07875 0.94792 0.74315 0.0
C1796 C 0.13146 0.00699 0.69935 0.0
C1797 C 0.13732 0.00953 0.72156 0.0
C1798 C 0.11969 0.98851 0.69245 0.0
C1799 C 0.11391 0.97199 0.70755 0.0
C1800 C 0.11934 0.97482 0.72988 0.0
H1801 H 0.11661 0.83528 0.68699 0.0
H1802 H 0.12258 0.87457 0.69084 0.0
C1803 C 0.13063 0.9936 0.73688 0.0
C1804 C 0.10475 0.95073 0.69957 0.0
H1805 H 0.06759 0.91043 0.71188 0.0
C1806 C 0.11573 0.93994 0.68232 0.0
C1807 C 0.08633 0.94043 0.70946 0.0
C1808 C 0.07235 0.95186 0.7265 0.0
C1809 C 0.10972 0.91871 0.67566 0.0
C1810 C 0.09283 0.90754 0.68714 0.0
C1811 C 0.08085 0.91881 0.70337 0.0
C1812 C 0.08883 0.88368 0.68393 0.0
C1813 C 0.1218 0.90839 0.65657 0.0
C1814 C 0.06766 0.87555 0.67941 0.0
C1815 C 0.06406 0.85285 0.67755 0.0
C1816 C 0.08159 0.83795 0.6802 0.0
C1817 C 0.10275 0.84624 0.68458 0.0
C1818 C 0.10625 0.86879 0.68665 0.0
H1819 H 0.1275 0.92113 0.64476 0.0
H1820 H 0.13659 0.89967 0.6628 0.0
H1821 H 0.11128 0.89642 0.64761 0.0
H1822 H 0.05393 0.88676 0.67745 0.0
H1823 H 0.04756 0.84699 0.67423 0.0
H1824 H 0.82141 0.62411 0.83124 0.0
H1825 H 0.81863 0.63177 0.8705 0.0
H1826 H 0.8167 0.56203 0.8841 0.0
H1827 H 0.81795 0.55441 0.84453 0.0
H1828 H 0.78677 0.57974 0.90604 0.0
H1829 H 0.85964 0.63139 0.92013 0.0
H1830 H 0.84377 0.6435 0.89848 0.0
H1831 H 0.85576 0.61655 0.89473 0.0
C1832 C 0.82083 0.61042 0.84265 0.0
C1833 C 0.81995 0.58867 0.83491 0.0
C1834 C 0.81944 0.61479 0.86516 0.0
C1835 C 0.81794 0.5975 0.88045 0.0
C1836 C 0.81791 0.57569 0.87271 0.0
H1837 H 0.81311 0.64308 0.01744 0.0
H1838 H 0.82541 0.62383 0.98424 0.0
C1839 C 0.81868 0.57133 0.85012 0.0
C1840 C 0.81413 0.6023 0.90416 0.0
H1841 H 0.82905 0.63731 0.94542 0.0
C1842 C 0.79635 0.59201 0.91478 0.0
C1843 C 0.82687 0.61784 0.91597 0.0
C1844 C 0.84771 0.6277 0.90676 0.0
C1845 C 0.79021 0.59773 0.93628 0.0
C1846 C 0.80144 0.61504 0.94712 0.0
C1847 C 0.82003 0.62439 0.93704 0.0
C1848 C 0.79354 0.62457 0.96824 0.0
C1849 C 0.77178 0.58504 0.94705 0.0
C1850 C 0.7715 0.63127 0.9705 0.0
C1851 C 0.76434 0.64166 0.9897 0.0
C1852 C 0.77926 0.6463 0.00671 0.0
C1853 C 0.80129 0.63967 0.00453 0.0
C1854 C 0.80832 0.62872 0.98555 0.0
H1855 H 0.77136 0.56777 0.94103 0.0
H1856 H 0.77344 0.58479 0.96524 0.0
H1857 H 0.7558 0.59271 0.94265 0.0
H1858 H 0.75992 0.62912 0.95714 0.0
H1859 H 0.74735 0.64695 0.99081 0.0
H1860 H 0.74267 0.37934 0.50076 0.0
H1861 H 0.73036 0.39505 0.46591 0.0
H1862 H 0.66812 0.36138 0.47266 0.0
H1863 H 0.68124 0.34429 0.50674 0.0
H1864 H 0.68086 0.35515 0.43465 0.0
H1865 H 0.69269 0.44383 0.44784 0.0
H1866 H 0.71826 0.43022 0.45308 0.0
H1867 H 0.69464 0.42439 0.47018 0.0
C1868 C 0.72623 0.37563 0.49494 0.0
C1869 C 0.71286 0.36067 0.50634 0.0
C1870 C 0.71908 0.3848 0.47511 0.0
C1871 C 0.69806 0.37988 0.46674 0.0
C1872 C 0.68438 0.36553 0.4787 0.0
H1873 H 0.66422 0.44319 0.34029 0.0
H1874 H 0.66413 0.43412 0.37971 0.0
C1875 C 0.69182 0.35579 0.49817 0.0
C1876 C 0.69144 0.38762 0.44444 0.0
H1877 H 0.69426 0.43161 0.40956 0.0
C1878 C 0.68338 0.37202 0.4294 0.0
C1879 C 0.69409 0.40972 0.43744 0.0
C1880 C 0.70013 0.42799 0.45313 0.0
C1881 C 0.67914 0.37754 0.40741 0.0
C1882 C 0.68421 0.399 0.39986 0.0
C1883 C 0.69093 0.41499 0.41514 0.0
C1884 C 0.68391 0.40467 0.37607 0.0
C1885 C 0.66928 0.36021 0.39259 0.0
C1886 C 0.69542 0.39147 0.361 0.0
C1887 C 0.69505 0.39632 0.3386 0.0
C1888 C 0.68378 0.41493 0.3308 0.0
C1889 C 0.67297 0.4287 0.3459 0.0
C1890 C 0.67292 0.42353 0.36837 0.0
H1891 H 0.65866 0.34875 0.40209 0.0
H1892 H 0.65928 0.36763 0.37921 0.0
H1893 H 0.68269 0.3503 0.38514 0.0
H1894 H 0.70483 0.37739 0.36656 0.0
H1895 H 0.70392 0.38566 0.32739 0.0
H1896 H 0.32215 0.87649 0.17131 0.0
H1897 H 0.31677 0.86819 0.13241 0.0
H1898 H 0.30449 0.93683 0.11918 0.0
H1899 H 0.31017 0.94541 0.15814 0.0
H1900 H 0.27757 0.87578 0.11046 0.0
H1901 H 0.34691 0.91921 0.06959 0.0
H1902 H 0.34665 0.91339 0.09874 0.0
H1903 H 0.3306 0.93573 0.08793 0.0
C1904 C 0.31866 0.88992 0.16011 0.0
C1905 C 0.31647 0.9116 0.16789 0.0
C1906 C 0.31557 0.88512 0.13787 0.0
C1907 C 0.3103 0.90188 0.1229 0.0
C1908 C 0.30888 0.92369 0.1304 0.0
H1909 H 0.2478 0.86948 0.99686 0.0
H1910 H 0.25608 0.88717 0.03212 0.0
C1911 C 0.31206 0.92854 0.1527 0.0
C1912 C 0.3046 0.89609 0.09991 0.0
H1913 H 0.32037 0.90261 0.04636 0.0
C1914 C 0.28687 0.8817 0.09643 0.0
C1915 C 0.31682 0.90382 0.08168 0.0
C1916 C 0.33643 0.91875 0.08457 0.0
C1917 C 0.28122 0.87451 0.07525 0.0
C1918 C 0.29337 0.88228 0.05698 0.0
C1919 C 0.31095 0.89689 0.0604 0.0
C1920 C 0.28909 0.87399 0.03445 0.0
C1921 C 0.26281 0.85801 0.07271 0.0
C1922 C 0.30522 0.86153 0.02367 0.0
C1923 C 0.30062 0.85152 0.00351 0.0
C1924 C 0.27974 0.85378 0.99371 0.0
C1925 C 0.26396 0.86721 0.00404 0.0
C1926 C 0.26862 0.87727 0.02422 0.0
H1927 H 0.25836 0.85022 0.08864 0.0
H1928 H 0.24798 0.86648 0.06623 0.0
H1929 H 0.26745 0.84486 0.0609 0.0
H1930 H 0.32115 0.85887 0.03125 0.0
H1931 H 0.31326 0.84147 0.99595 0.0
H1932 H 0.19298 0.04579 0.65629 0.0
H1933 H 0.19629 0.05194 0.61669 0.0
H1934 H 0.16493 0.11521 0.62372 0.0
H1935 H 0.16118 0.10909 0.66333 0.0
H1936 H 0.15206 0.09153 0.58528 0.0
H1937 H 0.24306 0.09569 0.59509 0.0
H1938 H 0.23032 0.07079 0.60463 0.0
H1939 H 0.22454 0.09637 0.61826 0.0
C1940 C 0.18651 0.06091 0.6494 0.0
C1941 C 0.17715 0.07713 0.66303 0.0
C1942 C 0.18847 0.06439 0.62677 0.0
C1943 C 0.18129 0.08422 0.61741 0.0
C1944 C 0.17069 0.09984 0.6307 0.0
H1945 H 0.19487 0.16342 0.50409 0.0
H1946 H 0.18277 0.14405 0.53699 0.0
C1947 C 0.16859 0.09633 0.65333 0.0
C1948 C 0.18631 0.08947 0.59417 0.0
H1949 H 0.22895 0.1012 0.55957 0.0
C1950 C 0.16886 0.09345 0.57957 0.0
C1951 C 0.20826 0.09192 0.58679 0.0
C1952 C 0.22766 0.08866 0.60199 0.0
C1953 C 0.17281 0.10023 0.55783 0.0
C1954 C 0.19474 0.1034 0.55071 0.0
C1955 C 0.21217 0.09863 0.56507 0.0
C1956 C 0.20004 0.11385 0.52936 0.0
C1957 C 0.15348 0.10416 0.54276 0.0
C1958 C 0.21394 0.10335 0.51418 0.0
C1959 C 0.22106 0.11448 0.49531 0.0
C1960 C 0.21463 0.1364 0.49153 0.0
C1961 C 0.20023 0.14659 0.50652 0.0
C1962 C 0.19308 0.13546 0.52526 0.0
H1963 H 0.13889 0.09444 0.54796 0.0
H1964 H 0.1489 0.12184 0.54337 0.0
H1965 H 0.15757 0.09988 0.52547 0.0
H1966 H 0.21966 0.08674 0.5172 0.0
H1967 H 0.23213 0.10616 0.48409 0.0
H1968 H 0.99494 0.80217 0.6668 0.0
H1969 H 0.96333 0.81598 0.64628 0.0
H1970 H 0.98835 0.78606 0.58701 0.0
H1971 H 0.02006 0.77185 0.60747 0.0
H1972 H 0.96021 0.84311 0.60761 0.0
H1973 H 0.92661 0.75865 0.59551 0.0
H1974 H 0.94821 0.76446 0.61505 0.0
H1975 H 0.95427 0.76335 0.58615 0.0
C1976 C 0.99382 0.79853 0.64938 0.0
C1977 C 0.00988 0.7856 0.63885 0.0
C1978 C 0.9758 0.80657 0.63767 0.0
C1979 C 0.97343 0.80183 0.61523 0.0
C1980 C 0.98978 0.78963 0.60442 0.0
H1981 H 0.85088 0.81541 0.54236 0.0
H1982 H 0.89039 0.81227 0.54904 0.0
C1983 C 0.00787 0.78154 0.61613 0.0
C1984 C 0.95311 0.80861 0.6037 0.0
H1985 H 0.90531 0.78807 0.58276 0.0
C1986 C 0.94828 0.83113 0.6019 0.0
C1987 C 0.93766 0.79289 0.59628 0.0
C1988 C 0.94176 0.76847 0.59842 0.0
C1989 C 0.92809 0.83836 0.59328 0.0
C1990 C 0.91227 0.82262 0.58672 0.0
C1991 C 0.9175 0.80013 0.58773 0.0
C1992 C 0.88946 0.8287 0.58062 0.0
C1993 C 0.92384 0.86275 0.59148 0.0
C1994 C 0.87593 0.8396 0.59585 0.0
C1995 C 0.85334 0.84153 0.59203 0.0
C1996 C 0.84385 0.83224 0.57307 0.0
C1997 C 0.85766 0.82255 0.55723 0.0
C1998 C 0.88025 0.82077 0.56099 0.0
H1999 H 0.93946 0.87208 0.58978 0.0
H2000 H 0.91308 0.86661 0.57722 0.0
H2001 H 0.91555 0.86852 0.60669 0.0
H2002 H 0.88257 0.84542 0.61133 0.0
H2003 H 0.84317 0.84905 0.60459 0.0
H2004 H 0.48258 0.18344 0.14565 0.0
H2005 H 0.51789 0.17367 0.12878 0.0
H2006 H 0.53962 0.24098 0.1356 0.0
H2007 H 0.50394 0.25099 0.15099 0.0
H2008 H 0.55337 0.22652 0.09897 0.0
H2009 H 0.57299 0.16272 0.16112 0.0
H2010 H 0.54852 0.15647 0.14589 0.0
H2011 H 0.54927 0.18032 0.16351 0.0
C2012 C 0.49488 0.19613 0.1433 0.0
C2013 C 0.49058 0.21795 0.14965 0.0
C2014 C 0.51514 0.19051 0.1339 0.0
C2015 C 0.53176 0.20643 0.13147 0.0
C2016 C 0.52718 0.22833 0.13733 0.0
H2017 H 0.67163 0.1861 0.12524 0.0
H2018 H 0.63282 0.18941 0.1352 0.0
C2019 C 0.50675 0.23407 0.14612 0.0
C2020 C 0.55402 0.20053 0.12305 0.0
H2021 H 0.59792 0.16641 0.13151 0.0
C2022 C 0.56312 0.21339 0.10613 0.0
C2023 C 0.56691 0.18354 0.13253 0.0
C2024 C 0.55903 0.17013 0.1519 0.0
C2025 C 0.5848 0.2102 0.09884 0.0
C2026 C 0.59748 0.19281 0.10786 0.0
C2027 C 0.58819 0.1796 0.12441 0.0
C2028 C 0.62087 0.18905 0.10158 0.0
C2029 C 0.59414 0.22631 0.08237 0.0
C2030 C 0.62716 0.18703 0.07941 0.0
C2031 C 0.64943 0.18578 0.07369 0.0
C2032 C 0.66573 0.18561 0.09007 0.0
C2033 C 0.65938 0.1861 0.11228 0.0
C2034 C 0.63718 0.18802 0.11797 0.0
H2035 H 0.58484 0.24206 0.08231 0.0
H2036 H 0.61167 0.23004 0.08592 0.0
H2037 H 0.59296 0.21917 0.06561 0.0
H2038 H 0.61492 0.18689 0.06648 0.0
H2039 H 0.65392 0.18514 0.05645 0.0
H2040 H 0.34 0.65791 0.3915 0.0
H2041 H 0.37899 0.66262 0.38284 0.0
H2042 H 0.38842 0.6983 0.44345 0.0
H2043 H 0.34956 0.69356 0.45239 0.0
H2044 H 0.39571 0.70597 0.37821 0.0
H2045 H 0.4432 0.6578 0.43982 0.0
H2046 H 0.41468 0.65215 0.43353 0.0
H2047 H 0.42179 0.67503 0.45081 0.0
C2048 C 0.35046 0.66624 0.40329 0.0
C2049 C 0.3416 0.67561 0.42251 0.0
C2050 C 0.37272 0.66894 0.3983 0.0
C2051 C 0.38652 0.68078 0.41253 0.0
C2052 C 0.37809 0.68887 0.4324 0.0
H2053 H 0.50353 0.75194 0.36925 0.0
H2054 H 0.46943 0.74207 0.38849 0.0
C2055 C 0.35582 0.68624 0.43739 0.0
C2056 C 0.4088 0.68719 0.40525 0.0
H2057 H 0.46348 0.68251 0.41727 0.0
C2058 C 0.41054 0.70082 0.38671 0.0
C2059 C 0.42803 0.68047 0.41649 0.0
C2060 C 0.42697 0.66541 0.43618 0.0
C2061 C 0.43105 0.7079 0.379 0.0
C2062 C 0.4503 0.70139 0.39033 0.0
C2063 C 0.44861 0.68771 0.40886 0.0
C2064 C 0.47231 0.7072 0.38189 0.0
C2065 C 0.43203 0.72185 0.35845 0.0
C2066 C 0.4855 0.69073 0.37264 0.0
C2067 C 0.50484 0.69627 0.36165 0.0
C2068 C 0.5114 0.71841 0.35981 0.0
C2069 C 0.49885 0.73477 0.37029 0.0
C2070 C 0.47937 0.72919 0.38122 0.0
H2071 H 0.41605 0.72216 0.34957 0.0
H2072 H 0.43634 0.739 0.36301 0.0
H2073 H 0.44492 0.71565 0.34708 0.0
H2074 H 0.48031 0.67367 0.37305 0.0
H2075 H 0.5143 0.68324 0.35401 0.0
H2076 H 0.16389 0.34083 0.88964 0.0
H2077 H 0.12502 0.33784 0.87975 0.0
H2078 H 0.11461 0.29266 0.93344 0.0
H2079 H 0.15341 0.29562 0.94361 0.0
H2080 H 0.10612 0.29723 0.86765 0.0
H2081 H 0.06143 0.33472 0.93805 0.0
H2082 H 0.0902 0.34 0.93271 0.0
H2083 H 0.08187 0.31459 0.94529 0.0
C2084 C 0.15329 0.33055 0.89963 0.0
C2085 C 0.16186 0.31833 0.91734 0.0
C2086 C 0.13106 0.32888 0.89393 0.0
C2087 C 0.1169 0.31516 0.90595 0.0
C2088 C 0.12516 0.30363 0.92417 0.0
H2089 H 0.98494 0.26481 0.88037 0.0
H2090 H 0.02007 0.27472 0.89771 0.0
C2091 C 0.1474 0.30525 0.92986 0.0
C2092 C 0.0942 0.31111 0.89797 0.0
H2093 H 0.03981 0.31554 0.91165 0.0
C2094 C 0.09162 0.30138 0.8772 0.0
C2095 C 0.07535 0.31625 0.91062 0.0
C2096 C 0.07723 0.32713 0.93285 0.0
C2097 C 0.07072 0.29649 0.86876 0.0
C2098 C 0.05182 0.30194 0.88122 0.0
C2099 C 0.05434 0.31148 0.90211 0.0
C2100 C 0.02938 0.29802 0.87245 0.0
C2101 C 0.0691 0.28511 0.84673 0.0
C2102 C 0.02265 0.30848 0.85302 0.0
C2103 C 0.00277 0.30277 0.84304 0.0
C2104 C 0.98907 0.28665 0.85242 0.0
C2105 C 0.99515 0.27723 0.87269 0.0
C2106 C 0.01521 0.28286 0.88261 0.0
H2107 H 0.08479 0.27689 0.84217 0.0
H2108 H 0.05577 0.27261 0.84674 0.0
H2109 H 0.06531 0.29748 0.83384 0.0
H2110 H 0.03313 0.32057 0.84517 0.0
H2111 H 0.99842 0.3106 0.82762 0.0
H2112 H 0.62844 0.00799 0.7476 0.0
H2113 H 0.60884 0.97354 0.75475 0.0
H2114 H 0.63955 0.96919 0.81859 0.0
H2115 H 0.65888 0.00367 0.81181 0.0
H2116 H 0.62836 0.93395 0.76164 0.0
H2117 H 0.57608 0.95458 0.83326 0.0
H2118 H 0.58887 0.97537 0.8163 0.0
H2119 H 0.60437 0.9618 0.8376 0.0
C2120 C 0.63077 -0.0001 0.76331 0.0
C2121 C 0.64533 0.00859 0.77908 0.0
C2122 C 0.61954 0.98021 0.76737 0.0
C2123 C 0.62249 0.96894 0.78732 0.0
C2124 C 0.6366 0.97784 0.80329 0.0
H2125 H 0.61908 0.83157 0.81426 0.0
H2126 H 0.62728 0.87039 0.80839 0.0
C2127 C 0.64781 0.9975 0.79927 0.0
C2128 C 0.61263 0.94686 0.79066 0.0
H2129 H 0.58267 0.91597 0.82688 0.0
C2130 C 0.6181 0.93011 0.77573 0.0
C2131 C 0.59905 0.94188 0.80893 0.0
C2132 C 0.59155 0.95942 0.82481 0.0
C2133 C 0.61123 0.90835 0.77911 0.0
C2134 C 0.59884 0.90312 0.7981 0.0
C2135 C 0.59244 0.92 0.8125 0.0
C2136 C 0.59335 0.88003 0.80363 0.0
C2137 C 0.61753 0.89104 0.76244 0.0
C2138 C 0.57143 0.87277 0.80383 0.0
C2139 C 0.56662 0.85048 0.80727 0.0
C2140 C 0.58369 0.83517 0.81063 0.0
C2141 C 0.60553 0.84281 0.81148 0.0
C2142 C 0.61028 0.865 0.80805 0.0
H2143 H 0.62168 0.89847 0.74625 0.0
H2144 H 0.63223 0.882 0.76843 0.0
H2145 H 0.604 0.87899 0.76006 0.0
H2146 H 0.55813 0.8842 0.80061 0.0
H2147 H 0.54962 0.84517 0.8066 0.0
H2148 H 0.13627 0.47618 0.1856 0.0
H2149 H 0.11705 0.5094 0.17329 0.0
H2150 H 0.11845 0.53472 0.23964 0.0
H2151 H 0.13652 0.50103 0.25219 0.0
H2152 H 0.08126 0.54589 0.22022 0.0
H2153 H 0.1506 0.56476 0.16374 0.0
H2154 H 0.13681 0.53944 0.15755 0.0
H2155 H 0.15162 0.54233 0.18306 0.0
C2156 C 0.13217 0.48875 0.19757 0.0
C2157 C 0.13809 0.48622 0.21978 0.0
C2158 C 0.12134 0.50776 0.19051 0.0
C2159 C 0.11692 0.52486 0.20541 0.0
C2160 C 0.12181 0.52182 0.22781 0.0
H2161 H 0.11712 0.66219 0.18817 0.0
H2162 H 0.12346 0.62296 0.19235 0.0
C2163 C 0.13215 0.50258 0.23497 0.0
C2164 C 0.10856 0.54647 0.19767 0.0
H2165 H 0.1214 0.58997 0.16454 0.0
C2166 C 0.08993 0.55551 0.20795 0.0
C2167 C 0.12002 0.55906 0.18174 0.0
C2168 C 0.14098 0.55103 0.17103 0.0
C2169 C 0.08297 0.57708 0.20341 0.0
C2170 C 0.09452 0.58967 0.18758 0.0
C2171 C 0.11251 0.58024 0.17658 0.0
C2172 C 0.09013 0.61343 0.18407 0.0
C2173 C 0.06412 0.58655 0.21653 0.0
C2174 C 0.06931 0.62122 0.17769 0.0
C2175 C 0.0655 0.64387 0.17561 0.0
C2176 C 0.0826 0.659 0.17944 0.0
C2177 C 0.10358 0.65103 0.18502 0.0
C2178 C 0.10725 0.62855 0.18743 0.0
H2179 H 0.06034 0.57649 0.23132 0.0
H2180 H 0.06785 0.60361 0.22193 0.0
H2181 H 0.04915 0.58702 0.20608 0.0
H2182 H 0.056 0.60984 0.17445 0.0
H2183 H 0.04921 0.64952 0.17109 0.0
H2184 H 0.38743 0.33417 0.6575 0.0
H2185 H 0.37785 0.37315 0.66039 0.0
H2186 H 0.43489 0.38437 0.70108 0.0
H2187 H 0.44476 0.34555 0.69815 0.0
H2188 H 0.36879 0.39158 0.70171 0.0
H2189 H 0.43534 0.43785 0.65956 0.0
H2190 H 0.43019 0.40899 0.65451 0.0
H2191 H 0.4447 0.41747 0.67885 0.0
C2192 C 0.39825 0.345 0.66663 0.0
C2193 C 0.41674 0.33667 0.67779 0.0
C2194 C 0.39273 0.36728 0.66826 0.0
C2195 C 0.40573 0.38166 0.68084 0.0
C2196 C 0.42484 0.37365 0.69099 0.0
H2197 H 0.38353 0.51131 0.73766 0.0
H2198 H 0.40014 0.47662 0.72516 0.0
C2199 C 0.43035 0.35138 0.68942 0.0
C2200 C 0.39779 0.40417 0.68573 0.0
H2201 H 0.41088 0.45874 0.68206 0.0
C2202 C 0.37789 0.40627 0.69722 0.0
C2203 C 0.40989 0.42325 0.68017 0.0
C2204 C 0.43114 0.42189 0.66743 0.0
C2205 C 0.36984 0.42692 0.70354 0.0
C2206 C 0.38178 0.44606 0.69778 0.0
C2207 C 0.40176 0.44402 0.68638 0.0
C2208 C 0.37333 0.46824 0.70327 0.0
C2209 C 0.34882 0.42803 0.71675 0.0
C2210 C 0.35321 0.47529 0.69449 0.0
C2211 C 0.34365 0.49486 0.70169 0.0
C2212 C 0.35414 0.50792 0.71766 0.0
C2213 C 0.375 0.50154 0.72543 0.0
C2214 C 0.38451 0.48177 0.7183 0.0
H2215 H 0.34491 0.412 0.72463 0.0
H2216 H 0.34992 0.44082 0.72976 0.0
H2217 H 0.33497 0.43236 0.70566 0.0
H2218 H 0.34455 0.46528 0.68254 0.0
H2219 H 0.32776 0.4995 0.69507 0.0
H2220 H 0.94585 0.15005 0.30424 0.0
H2221 H 0.93664 0.11108 0.30091 0.0
H2222 H 0.88273 0.11974 0.34618 0.0
H2223 H 0.89159 0.15885 0.34949 0.0
H2224 H 0.9289 0.07433 0.33159 0.0
H2225 H 0.85463 0.10235 0.28586 0.0
H2226 H 0.87745 0.1204 0.29178 0.0
H2227 H 0.85796 0.11371 0.31297 0.0
C2228 C 0.93228 0.14364 0.31384 0.0
C2229 C 0.91913 0.15769 0.32675 0.0
C2230 C 0.92712 0.12132 0.31197 0.0
C2231 C 0.90881 0.11272 0.323 0.0
C2232 C 0.89677 0.12623 0.33732 0.0
H2233 H 0.8313 0.99611 0.30157 0.0
H2234 H 0.84803 0.02911 0.31705 0.0
C2235 C 0.90187 0.14857 0.33918 0.0
C2236 C 0.90074 0.09049 0.3174 0.0
H2237 H 0.85871 0.06428 0.29108 0.0
C2238 C 0.91352 0.07203 0.32282 0.0
C2239 C 0.88081 0.0877 0.30572 0.0
C2240 C 0.86695 0.10705 0.29854 0.0
C2241 C 0.90661 0.05068 0.31719 0.0
C2242 C 0.88663 0.04793 0.30556 0.0
C2243 C 0.87395 0.06645 0.30013 0.0
C2244 C 0.87831 0.02614 0.29859 0.0
C2245 C 0.92051 0.03127 0.32396 0.0
C2246 C 0.89 0.01329 0.28334 0.0
C2247 C 0.88047 0.99429 0.27446 0.0
C2248 C 0.859 0.98811 0.28047 0.0
C2249 C 0.84775 0.00059 0.29638 0.0
C2250 C 0.85732 0.0194 0.30533 0.0
H2251 H 0.9321 0.03562 0.33742 0.0
H2252 H 0.91004 0.01734 0.32946 0.0
H2253 H 0.93034 0.02565 0.30963 0.0
H2254 H 0.90605 0.01845 0.2776 0.0
H2255 H 0.88953 0.98501 0.26223 0.0
H2256 H 0.16047 0.39358 0.31429 0.0
H2257 H 0.17019 0.36931 0.34506 0.0
H2258 H 0.22397 0.34271 0.30715 0.0
H2259 H 0.21472 0.36691 0.27668 0.0
H2260 H 0.17007 0.32429 0.3433 0.0
H2261 H 0.25318 0.35325 0.36608 0.0
H2262 H 0.23458 0.36954 0.34956 0.0
H2263 H 0.25105 0.34828 0.33707 0.0
C2264 C 0.17456 0.38279 0.31266 0.0
C2265 C 0.18674 0.38209 0.29299 0.0
C2266 C 0.1801 0.36898 0.33025 0.0
C2267 C 0.19803 0.35451 0.32851 0.0
C2268 C 0.21043 0.35414 0.30907 0.0
H2269 H 0.2461 0.23375 0.37566 0.0
H2270 H 0.23925 0.26953 0.35857 0.0
C2271 C 0.20493 0.36785 0.29155 0.0
C2272 C 0.20261 0.33808 0.34589 0.0
H2273 H 0.24452 0.3155 0.37575 0.0
C2274 C 0.18617 0.32265 0.35084 0.0
C2275 C 0.22365 0.336 0.35565 0.0
C2276 C 0.24153 0.35281 0.35198 0.0
C2277 C 0.19065 0.30436 0.36417 0.0
C2278 C 0.21204 0.30166 0.37292 0.0
C2279 C 0.22818 0.31762 0.36887 0.0
C2280 C 0.21829 0.28141 0.38477 0.0
C2281 C 0.17285 0.28741 0.36782 0.0
C2282 C 0.2093 0.27664 0.40545 0.0
C2283 C 0.21318 0.25624 0.41528 0.0
C2284 C 0.22606 0.24026 0.40452 0.0
C2285 C 0.23597 0.2456 0.38431 0.0
C2286 C 0.23213 0.26604 0.37454 0.0
H2287 H 0.15814 0.29046 0.35739 0.0
H2288 H 0.1792 0.27064 0.36426 0.0
H2289 H 0.16764 0.28778 0.38532 0.0
H2290 H 0.19875 0.28845 0.41364 0.0
H2291 H 0.2054 0.25273 0.43093 0.0
H2292 H 0.29742 0.76302 0.87551 0.0
H2293 H 0.30486 0.72633 0.86147 0.0
H2294 H 0.28291 0.69792 0.92264 0.0
H2295 H 0.27532 0.73501 0.93713 0.0
H2296 H 0.33449 0.69302 0.88454 0.0
H2297 H 0.24792 0.66648 0.86932 0.0
H2298 H 0.25495 0.69535 0.87023 0.0
H2299 H 0.25546 0.67937 0.895 0.0
C2300 C 0.29409 0.74907 0.8861 0.0
C2301 C 0.28582 0.75201 0.90752 0.0
C2302 C 0.2984 0.72809 0.87801 0.0
C2303 C 0.29445 0.7095 0.89103 0.0
C2304 C 0.28599 0.71215 0.91235 0.0
H2305 H 0.31169 0.58377 0.81924 0.0
H2306 H 0.30517 0.60719 0.85166 0.0
C2307 C 0.2817 0.7333 0.92058 0.0
C2308 C 0.29959 0.68761 0.88177 0.0
H2309 H 0.27604 0.64619 0.85204 0.0
C2310 C 0.32174 0.68239 0.87796 0.0
C2311 C 0.28291 0.67379 0.87333 0.0
C2312 C 0.25891 0.67887 0.87707 0.0
C2313 C 0.32763 0.66458 0.86454 0.0
C2314 C 0.31092 0.65193 0.85448 0.0
C2315 C 0.2888 0.65599 0.85978 0.0
C2316 C 0.31588 0.63717 0.83576 0.0
C2317 C 0.35167 0.66017 0.86024 0.0
C2318 C 0.32387 0.64637 0.81618 0.0
C2319 C 0.32739 0.63321 0.79775 0.0
C2320 C 0.32305 0.61051 0.79849 0.0
C2321 C 0.31532 0.60119 0.81824 0.0
C2322 C 0.31156 0.61451 0.83672 0.0
H2323 H 0.36212 0.66633 0.87393 0.0
H2324 H 0.3548 0.64231 0.85796 0.0
H2325 H 0.35671 0.66886 0.84498 0.0
H2326 H 0.32696 0.66389 0.81501 0.0
H2327 H 0.33337 0.64093 0.78283 0.0
H2328 H 0.70226 0.24898 0.57854 0.0
H2329 H 0.69627 0.21579 0.60058 0.0
H2330 H 0.74509 0.23773 0.64717 0.0
H2331 H 0.75109 0.271 0.62546 0.0
H2332 H 0.72523 0.18151 0.61793 0.0
H2333 H 0.68671 0.23334 0.68263 0.0
H2334 H 0.69166 0.24323 0.65506 0.0
H2335 H 0.71383 0.24192 0.67461 0.0
C2336 C 0.71201 0.24658 0.59327 0.0
C2337 C 0.72688 0.26282 0.60045 0.0
C2338 C 0.70856 0.2276 0.60582 0.0
C2339 C 0.71994 0.2246 0.62567 0.0
C2340 C 0.73587 0.24 0.63208 0.0
H2341 H 0.71583 0.13856 0.7369 0.0
H2342 H 0.72443 0.16556 0.70853 0.0
C2343 C 0.73929 0.25898 0.61962 0.0
C2344 C 0.71403 0.20633 0.64058 0.0
H2345 H 0.69309 0.19595 0.6916 0.0
C2346 C 0.71809 0.18457 0.63399 0.0
C2347 C 0.7045 0.21049 0.66139 0.0
C2348 C 0.6987 0.23348 0.66883 0.0
C2349 C 0.7136 0.16683 0.64813 0.0
C2350 C 0.70461 0.17108 0.66916 0.0
C2351 C 0.70012 0.19281 0.67549 0.0
C2352 C 0.70034 0.15342 0.68532 0.0
C2353 C 0.71907 0.14376 0.6408 0.0
C2354 C 0.68395 0.13759 0.68158 0.0
C2355 C 0.6789 0.12208 0.69783 0.0
C2356 C 0.69009 0.12229 0.71812 0.0
C2357 C 0.70678 0.13797 0.72155 0.0
C2358 C 0.71178 0.1534 0.70534 0.0
H2359 H 0.7297 0.14364 0.62592 0.0
H2360 H 0.72753 0.1346 0.65417 0.0
H2361 H 0.70361 0.13488 0.63684 0.0
H2362 H 0.67471 0.13758 0.66633 0.0
H2363 H 0.66597 0.11023 0.69466 0.0
H2364 H 0.76858 0.74292 0.12325 0.0
H2365 H 0.77648 0.77974 0.13712 0.0
H2366 H 0.79252 0.80137 0.07147 0.0
H2367 H 0.78438 0.76434 0.05729 0.0
H2368 H 0.82593 0.80866 0.10545 0.0
H2369 H 0.74391 0.83983 0.13008 0.0
H2370 H 0.74886 0.81193 0.13856 0.0
H2371 H 0.74755 0.81843 0.10971 0.0
C2372 C 0.77345 0.75558 0.11168 0.0
C2373 C 0.77596 0.75075 0.08921 0.0
C2374 C 0.7778 0.77665 0.11961 0.0
C2375 C 0.78485 0.79329 0.10527 0.0
C2376 C 0.78688 0.78875 0.08272 0.0
H2377 H 0.81425 0.91602 0.1771 0.0
H2378 H 0.80393 0.89344 0.14515 0.0
C2379 C 0.7822 0.76765 0.07467 0.0
C2380 C 0.79219 0.81452 0.1146 0.0
H2381 H 0.77516 0.85516 0.14935 0.0
C2382 C 0.81479 0.81923 0.11455 0.0
C2383 C 0.7776 0.82835 0.12628 0.0
C2384 C 0.75308 0.82453 0.12603 0.0
C2385 C 0.82337 0.83634 0.12747 0.0
C2386 C 0.80897 0.84889 0.14072 0.0
C2387 C 0.78619 0.8454 0.13926 0.0
C2388 C 0.8173 0.86327 0.15848 0.0
C2389 C 0.84789 0.84016 0.12771 0.0
C2390 C 0.82823 0.85372 0.17642 0.0
C2391 C 0.83387 0.86641 0.19468 0.0
C2392 C 0.82879 0.88896 0.1953 0.0
C2393 C 0.81852 0.89871 0.17698 0.0
C2394 C 0.81259 0.88587 0.15877 0.0
H2395 H 0.85574 0.83407 0.11236 0.0
H2396 H 0.85174 0.85792 0.12972 0.0
H2397 H 0.85523 0.8311 0.14177 0.0
H2398 H 0.83167 0.83622 0.17666 0.0
H2399 H 0.8418 0.85843 0.20852 0.0
H2400 H 0.43631 0.21256 0.26653 0.0
H2401 H 0.42112 0.20541 0.30342 0.0
H2402 H 0.35556 0.21601 0.27842 0.0
H2403 H 0.3704 0.223 0.24184 0.0
H2404 H 0.36797 0.23705 0.32229 0.0
H2405 H 0.38272 0.14675 0.31433 0.0
H2406 H 0.40457 0.16591 0.30831 0.0
H2407 H 0.38126 0.16421 0.29033 0.0
C2408 C 0.4187 0.21364 0.26903 0.0
C2409 C 0.40451 0.2181 0.25127 0.0
C2410 C 0.41008 0.20951 0.29004 0.0
C2411 C 0.38724 0.21008 0.29351 0.0
C2412 C 0.37323 0.21549 0.27603 0.0
H2413 H 0.27885 0.1653 0.35913 0.0
H2414 H 0.31064 0.17479 0.33661 0.0
C2415 C 0.38174 0.21937 0.25512 0.0
C2416 C 0.37732 0.20373 0.31479 0.0
H2417 H 0.35855 0.15841 0.34213 0.0
C2418 C 0.36644 0.21993 0.32712 0.0
C2419 C 0.37525 0.18136 0.3208 0.0
C2420 C 0.38649 0.16342 0.30783 0.0
C2421 C 0.35244 0.21419 0.34458 0.0
C2422 C 0.34928 0.19173 0.34967 0.0
C2423 C 0.36119 0.17562 0.33821 0.0
C2424 C 0.33104 0.1846 0.36407 0.0
C2425 C 0.33981 0.23198 0.35641 0.0
C2426 C 0.33217 0.1867 0.38703 0.0
C2427 C 0.31397 0.18115 0.40007 0.0
C2428 C 0.29438 0.17363 0.39023 0.0
C2429 C 0.29361 0.17114 0.36724 0.0
C2430 C 0.31179 0.17648 0.35433 0.0
H2431 H 0.34391 0.24869 0.35023 0.0
H2432 H 0.32186 0.22922 0.35438 0.0
H2433 H 0.34351 0.23129 0.37429 0.0
H2434 H 0.34696 0.19293 0.39479 0.0
H2435 H 0.31503 0.1833 0.41773 0.0
H2436 H 0.19049 0.83372 0.8964 0.0
H2437 H 0.16045 0.82449 0.87113 0.0
H2438 H 0.20164 0.77593 0.83978 0.0
H2439 H 0.23153 0.78474 0.86498 0.0
H2440 H 0.16184 0.82837 0.82586 0.0
H2441 H 0.14464 0.74208 0.84919 0.0
H2442 H 0.16008 0.76057 0.86661 0.0
H2443 H 0.17332 0.74676 0.84399 0.0
C2444 C 0.19307 0.82091 0.88428 0.0
C2445 C 0.21345 0.81002 0.88267 0.0
C2446 C 0.17588 0.81564 0.8699 0.0
C2447 C 0.17871 0.79927 0.85386 0.0
C2448 C 0.19892 0.78824 0.85239 0.0
H2449 H 0.12776 0.75422 0.733 0.0
H2450 H 0.14611 0.76025 0.76823 0.0
C2451 C 0.21608 0.79347 0.8667 0.0
C2452 C 0.16135 0.79487 0.83737 0.0
H2453 H 0.13242 0.75327 0.81311 0.0
C2454 C 0.15503 0.81207 0.82332 0.0
C2455 C 0.15253 0.77357 0.83414 0.0
C2456 C 0.15782 0.75474 0.84944 0.0
C2457 C 0.14113 0.80826 0.80529 0.0
C2458 C 0.13311 0.78673 0.80149 0.0
C2459 C 0.13866 0.76973 0.81608 0.0
C2460 C 0.12056 0.78127 0.78139 0.0
C2461 C 0.13611 0.827 0.78977 0.0
C2462 C 0.0998 0.79055 0.77745 0.0
C2463 C 0.08926 0.78719 0.75728 0.0
C2464 C 0.09934 0.77448 0.74075 0.0
C2465 C 0.11963 0.76427 0.74527 0.0
C2466 C 0.13012 0.76764 0.76542 0.0
H2467 H 0.14667 0.84159 0.79294 0.0
H2468 H 0.13841 0.82177 0.77241 0.0
H2469 H 0.11868 0.83206 0.79184 0.0
H2470 H 0.09204 0.80084 0.78976 0.0
H2471 H 0.07357 0.79514 0.75442 0.0
H2472 H 0.8071 0.30362 0.58436 0.0
H2473 H 0.83467 0.2889 0.61014 0.0
H2474 H 0.81254 0.3346 0.65975 0.0
H2475 H 0.78469 0.34874 0.63449 0.0
H2476 H 0.86911 0.3054 0.63563 0.0
H2477 H 0.80151 0.27509 0.68829 0.0
H2478 H 0.79693 0.28511 0.66071 0.0
H2479 H 0.79907 0.30408 0.6834 0.0
C2480 C 0.80852 0.31079 0.60063 0.0
C2481 C 0.79368 0.3271 0.6076 0.0
C2482 C 0.82416 0.30233 0.61533 0.0
C2483 C 0.82516 0.31024 0.63703 0.0
C2484 C 0.81158 0.32783 0.64329 0.0
H2485 H 0.91762 0.30529 0.74102 0.0
H2486 H 0.89898 0.31029 0.70591 0.0
C2487 C 0.7958 0.33599 0.62881 0.0
C2488 C 0.83925 0.29947 0.65376 0.0
H2489 H 0.83696 0.27799 0.70548 0.0
C2490 C 0.86214 0.29908 0.6508 0.0
C2491 C 0.83008 0.29051 0.67319 0.0
C2492 C 0.80554 0.28847 0.67649 0.0
C2493 C 0.87619 0.29131 0.66747 0.0
C2494 C 0.86707 0.28441 0.68781 0.0
C2495 C 0.8441 0.28353 0.69009 0.0
C2496 C 0.88072 0.2797 0.70756 0.0
C2497 C 0.90061 0.29065 0.66306 0.0
C2498 C 0.87653 0.26099 0.72052 0.0
C2499 C 0.88668 0.25845 0.74101 0.0
C2500 C 0.90148 0.27442 0.74878 0.0
C2501 C 0.90648 0.29257 0.73536 0.0
C2502 C 0.89597 0.29535 0.71512 0.0
H2503 H 0.90395 0.28766 0.64533 0.0
H2504 H 0.90792 0.30682 0.66735 0.0
H2505 H 0.90891 0.27764 0.67285 0.0
H2506 H 0.86479 0.24871 0.71512 0.0
H2507 H 0.8826 0.24424 0.75098 0.0
H2508 H 0.56501 0.728 0.23794 0.0
H2509 H 0.57962 0.72308 0.20046 0.0
H2510 H 0.63632 0.68966 0.22704 0.0
H2511 H 0.62207 0.69428 0.26401 0.0
H2512 H 0.62055 0.73849 0.18416 0.0
H2513 H 0.61573 0.64799 0.17829 0.0
H2514 H 0.59999 0.66358 0.19813 0.0
H2515 H 0.62819 0.65632 0.20371 0.0
C2516 C 0.58046 0.7194 0.2357 0.0
C2517 C 0.59232 0.71146 0.25396 0.0
C2518 C 0.58876 0.71662 0.21434 0.0
C2519 C 0.60881 0.70561 0.21101 0.0
C2520 C 0.62055 0.69771 0.2292 0.0
H2521 H 0.72017 0.71235 0.13345 0.0
H2522 H 0.68799 0.71888 0.15637 0.0
C2523 C 0.61241 0.70055 0.25039 0.0
C2524 C 0.61869 0.7034 0.18888 0.0
H2525 H 0.64476 0.66543 0.15691 0.0
C2526 C 0.62536 0.72252 0.1778 0.0
C2527 C 0.62456 0.68257 0.18034 0.0
C2528 C 0.61652 0.66146 0.19064 0.0
C2529 C 0.63949 0.72134 0.15957 0.0
C2530 C 0.64742 0.70056 0.15263 0.0
C2531 C 0.63903 0.68141 0.16244 0.0
C2532 C 0.66613 0.6983 0.13715 0.0
C2533 C 0.64634 0.74242 0.14841 0.0
C2534 C 0.66474 0.68419 0.11892 0.0
C2535 C 0.68329 0.68009 0.10594 0.0
C2536 C 0.70361 0.68997 0.11103 0.0
C2537 C 0.7048 0.70448 0.12901 0.0
C2538 C 0.6863 0.70846 0.14202 0.0
H2539 H 0.63316 0.75505 0.14962 0.0
H2540 H 0.66115 0.7491 0.15676 0.0
H2541 H 0.6503 0.73971 0.13077 0.0
H2542 H 0.64939 0.67601 0.11498 0.0
H2543 H 0.68178 0.66891 0.09214 0.0
H2544 H 0.35956 0.27211 0.21222 0.0
H2545 H 0.33676 0.30414 0.22022 0.0
H2546 H 0.37947 0.34482 0.18075 0.0
H2547 H 0.40219 0.31266 0.17217 0.0
H2548 H 0.34663 0.34383 0.24017 0.0
H2549 H 0.31943 0.35644 0.15347 0.0
H2550 H 0.33343 0.33176 0.16221 0.0
H2551 H 0.3486 0.35682 0.15828 0.0
C2552 C 0.36415 0.28784 0.20519 0.0
C2553 C 0.38256 0.28975 0.19132 0.0
C2554 C 0.35113 0.30617 0.20986 0.0
C2555 C 0.35625 0.3268 0.20085 0.0
C2556 C 0.37497 0.32896 0.18751 0.0
H2557 H 0.25937 0.43539 0.21178 0.0
H2558 H 0.29638 0.41915 0.20773 0.0
C2559 C 0.38796 0.31057 0.18269 0.0
C2560 C 0.34143 0.34569 0.20514 0.0
H2561 H 0.303 0.37848 0.18047 0.0
C2562 C 0.33738 0.3517 0.22708 0.0
C2563 C 0.32948 0.35607 0.18802 0.0
C2564 C 0.33276 0.34992 0.16417 0.0
C2565 C 0.3208 0.36683 0.23243 0.0
C2566 C 0.30795 0.3761 0.21543 0.0
C2567 C 0.31303 0.37137 0.19343 0.0
C2568 C 0.28684 0.38718 0.22017 0.0
C2569 C 0.31639 0.37202 0.2563 0.0
C2570 C 0.26946 0.37456 0.22853 0.0
C2571 C 0.24851 0.38358 0.23047 0.0
C2572 C 0.24453 0.40548 0.22427 0.0
C2573 C 0.26211 0.4185 0.21677 0.0
C2574 C 0.28315 0.40927 0.21443 0.0
H2575 H 0.33115 0.36895 0.26665 0.0
H2576 H 0.31117 0.38941 0.25836 0.0
H2577 H 0.30291 0.36128 0.26236 0.0
H2578 H 0.27192 0.3574 0.23274 0.0
H2579 H 0.23527 0.37323 0.23642 0.0
H2580 H 0.85843 0.21914 0.82756 0.0
H2581 H 0.83667 0.18607 0.82152 0.0
H2582 H 0.89437 0.15171 0.79867 0.0
H2583 H 0.91664 0.18504 0.80493 0.0
H2584 H 0.85251 0.1509 0.77035 0.0
H2585 H 0.84003 0.12606 0.85718 0.0
H2586 H 0.8369 0.15509 0.85244 0.0
H2587 H 0.86328 0.14236 0.84827 0.0
C2588 C 0.86662 0.20457 0.82137 0.0
C2589 C 0.88928 0.20472 0.81672 0.0
C2590 C 0.85415 0.18564 0.81803 0.0
C2591 C 0.86397 0.16645 0.80986 0.0
C2592 C 0.88658 0.16637 0.80516 0.0
H2593 H 0.76577 0.06446 0.77154 0.0
H2594 H 0.80319 0.07904 0.77717 0.0
C2595 C 0.89924 0.18536 0.80878 0.0
C2596 C 0.84987 0.1471 0.80545 0.0
H2597 H 0.8121 0.1147 0.83133 0.0
C2598 C 0.84415 0.14233 0.78359 0.0
C2599 C 0.83908 0.13602 0.8228 0.0
C2600 C 0.84525 0.13996 0.84651 0.0
C2601 C 0.8264 0.1283 0.77873 0.0
C2602 C 0.81435 0.11878 0.7962 0.0
C2603 C 0.82137 0.12205 0.81796 0.0
C2604 C 0.79225 0.10919 0.79265 0.0
C2605 C 0.8194 0.12525 0.75512 0.0
C2606 C 0.77389 0.12126 0.79957 0.0
C2607 C 0.75274 0.11311 0.7964 0.0
C2608 C 0.74936 0.09255 0.78629 0.0
C2609 C 0.76782 0.08033 0.77938 0.0
C2610 C 0.78916 0.08863 0.78253 0.0
H2611 H 0.83022 0.13425 0.74346 0.0
H2612 H 0.81974 0.10749 0.75087 0.0
H2613 H 0.80223 0.13113 0.75292 0.0
H2614 H 0.77595 0.13718 0.80735 0.0
H2615 H 0.73901 0.12303 0.80194 0.0
H2616 H 0.7699 0.86814 0.24225 0.0
H2617 H 0.73618 0.84758 0.24958 0.0
H2618 H 0.71225 0.90074 0.29004 0.0
H2619 H 0.74581 0.92159 0.28265 0.0
H2620 H 0.72543 0.83574 0.29309 0.0
H2621 H 0.65766 0.88301 0.25364 0.0
H2622 H 0.68614 0.8863 0.24578 0.0
H2623 H 0.67612 0.89867 0.27066 0.0
C2624 C 0.75729 0.8757 0.25232 0.0
C2625 C 0.76067 0.89643 0.26205 0.0
C2626 C 0.73803 0.86392 0.25648 0.0
C2627 C 0.72174 0.87269 0.27028 0.0
C2628 C 0.72449 0.89384 0.27907 0.0
H2629 H 0.61005 0.80615 0.33299 0.0
H2630 H 0.63711 0.8342 0.32223 0.0
C2631 C 0.74375 0.90567 0.2749 0.0
C2632 C 0.70327 0.85862 0.27752 0.0
H2633 H 0.64735 0.85295 0.27636 0.0
C2634 C 0.70836 0.8395 0.2894 0.0
C2635 C 0.68104 0.86378 0.27294 0.0
C2636 C 0.67481 0.88397 0.25992 0.0
C2637 C 0.69183 0.82519 0.29662 0.0
C2638 C 0.66967 0.83001 0.29156 0.0
C2639 C 0.66443 0.84939 0.28016 0.0
C2640 C 0.65203 0.8142 0.29685 0.0
C2641 C 0.69818 0.80494 0.30953 0.0
C2642 C 0.65129 0.79403 0.28577 0.0
C2643 C 0.63603 0.77806 0.29184 0.0
C2644 C 0.62114 0.78197 0.30914 0.0
C2645 C 0.62137 0.80259 0.3197 0.0
C2646 C 0.63673 0.81862 0.31356 0.0
H2647 H 0.71512 0.8062 0.31631 0.0
H2648 H 0.68652 0.80213 0.32332 0.0
H2649 H 0.69753 0.79036 0.29855 0.0
H2650 H 0.66287 0.79047 0.27268 0.0
H2651 H 0.63617 0.7625 0.28314 0.0
H2652 H 0.24476 0.57979 0.70146 0.0
H2653 H 0.21081 0.60002 0.69465 0.0
H2654 H 0.22308 0.64019 0.75192 0.0
H2655 H 0.25781 0.62066 0.7582 0.0
H2656 H 0.17331 0.60856 0.71518 0.0
H2657 H 0.22053 0.68613 0.70504 0.0
H2658 H 0.23381 0.65983 0.70815 0.0
H2659 H 0.22328 0.67415 0.73186 0.0
C2660 C 0.24013 0.59276 0.71279 0.0
C2661 C 0.25412 0.59891 0.73017 0.0
C2662 C 0.22067 0.60429 0.70888 0.0
C2663 C 0.21466 0.62199 0.72244 0.0
C2664 C 0.22774 0.62704 0.74083 0.0
H2665 H 0.09096 0.6948 0.70272 0.0
H2666 H 0.1178 0.66763 0.71594 0.0
C2667 C 0.2475 0.61581 0.74449 0.0
C2668 C 0.1957 0.63603 0.71617 0.0
H2669 H 0.18209 0.68856 0.70189 0.0
C2670 C 0.17517 0.62607 0.7123 0.0
C2671 C 0.19826 0.65882 0.71208 0.0
C2672 C 0.22019 0.67035 0.71427 0.0
C2673 C 0.15726 0.63821 0.70411 0.0
C2674 C 0.1598 0.66104 0.70034 0.0
C2675 C 0.18016 0.67104 0.70475 0.0
C2676 C 0.14211 0.67501 0.69091 0.0
C2677 C 0.13614 0.6263 0.69879 0.0
C2678 C 0.14675 0.68807 0.67242 0.0
C2679 C 0.13176 0.70389 0.6653 0.0
C2680 C 0.11163 0.70662 0.67624 0.0
C2681 C 0.10629 0.69268 0.69386 0.0
C2682 C 0.12158 0.67714 0.70136 0.0
H2683 H 0.13888 0.60834 0.69663 0.0
H2684 H 0.12437 0.62853 0.71257 0.0
H2685 H 0.12847 0.6329 0.68357 0.0
H2686 H 0.16241 0.68667 0.66402 0.0
H2687 H 0.1362 0.7145 0.65167 0.0
H2688 H 0.83156 0.60001 0.68316 0.0
H2689 H 0.82517 0.62399 0.65141 0.0
H2690 H 0.78344 0.66551 0.69105 0.0
H2691 H 0.78923 0.64142 0.72263 0.0
H2692 H 0.76689 0.65917 0.64913 0.0
H2693 H 0.8552 0.68353 0.64656 0.0
H2694 H 0.84968 0.65464 0.6437 0.0
H2695 H 0.84366 0.66828 0.66924 0.0
C2696 C 0.82092 0.61418 0.68509 0.0
C2697 C 0.81116 0.61897 0.70554 0.0
C2698 C 0.81733 0.62788 0.66692 0.0
C2699 C 0.80415 0.64674 0.66897 0.0
C2700 C 0.79372 0.65106 0.68911 0.0
H2701 H 0.80193 0.77366 0.62151 0.0
H2702 H 0.80599 0.73766 0.63813 0.0
C2703 C 0.79714 0.63731 0.7072 0.0
C2704 C 0.80209 0.66284 0.65073 0.0
H2705 H 0.83124 0.70167 0.62249 0.0
C2706 C 0.78098 0.66824 0.64298 0.0
C2707 C 0.82053 0.67466 0.64281 0.0
C2708 C 0.84354 0.67018 0.65106 0.0
C2709 C 0.77769 0.68589 0.6284 0.0
C2710 C 0.79604 0.69823 0.62121 0.0
C2711 C 0.81725 0.69202 0.62795 0.0
C2712 C 0.79345 0.71975 0.61006 0.0
C2713 C 0.75455 0.69217 0.62194 0.0
C2714 C 0.78503 0.72167 0.5886 0.0
C2715 C 0.7826 0.7425 0.57887 0.0
C2716 C 0.78863 0.76161 0.59052 0.0
C2717 C 0.79715 0.7594 0.61194 0.0
C2718 C 0.79954 0.73877 0.62154 0.0
H2719 H 0.74198 0.68218 0.63067 0.0
H2720 H 0.75156 0.70983 0.62556 0.0
H2721 H 0.75239 0.68974 0.60397 0.0
H2722 H 0.78041 0.70712 0.5794 0.0
H2723 H 0.77599 0.74365 0.56236 0.0
H2724 H 0.73193 0.24863 0.12363 0.0
H2725 H 0.72444 0.28595 0.13615 0.0
H2726 H 0.70749 0.30518 0.06996 0.0
H2727 H 0.71502 0.26749 0.05714 0.0
H2728 H 0.74103 0.32924 0.12127 0.0
H2729 H 0.65098 0.31571 0.10928 0.0
H2730 H 0.66998 0.29289 0.11012 0.0
H2731 H 0.6696 0.31087 0.08672 0.0
C2732 C 0.72686 0.26082 0.11164 0.0
C2733 C 0.72377 0.25508 0.08946 0.0
C2734 C 0.72271 0.28217 0.11881 0.0
C2735 C 0.71526 0.29821 0.10401 0.0
C2736 C 0.71313 0.29293 0.08162 0.0
H2737 H 0.68498 0.42024 0.1784 0.0
H2738 H 0.69458 0.39915 0.14521 0.0
C2739 C 0.71749 0.27147 0.07434 0.0
C2740 C 0.708 0.31963 0.11294 0.0
H2741 H 0.66165 0.34464 0.13241 0.0
C2742 C 0.72371 0.33314 0.12312 0.0
C2743 C 0.68537 0.32446 0.11538 0.0
C2744 C 0.66788 0.31028 0.10489 0.0
C2745 C 0.71732 0.35038 0.13709 0.0
C2746 C 0.69468 0.3541 0.14087 0.0
C2747 C 0.67899 0.34172 0.12933 0.0
C2748 C 0.68719 0.36749 0.15971 0.0
C2749 C 0.73473 0.36326 0.14925 0.0
C2750 C 0.67952 0.35664 0.17854 0.0
C2751 C 0.67418 0.3685 0.1974 0.0
C2752 C 0.67623 0.39153 0.19777 0.0
C2753 C 0.68319 0.40251 0.17859 0.0
C2754 C 0.68873 0.39053 0.15967 0.0
H2755 H 0.75165 0.35792 0.14486 0.0
H2756 H 0.73304 0.38103 0.14537 0.0
H2757 H 0.73246 0.36129 0.16728 0.0
H2758 H 0.67828 0.33885 0.17885 0.0
H2759 H 0.66875 0.35953 0.21183 0.0
H2760 H 0.27351 0.76242 0.4401 0.0
H2761 H 0.27983 0.80007 0.42637 0.0
H2762 H 0.30901 0.7736 0.36738 0.0
H2763 H 0.3029 0.73644 0.38067 0.0
H2764 H 0.33376 0.80917 0.39143 0.0
H2765 H 0.24631 0.8284 0.37098 0.0
H2766 H 0.2534 0.81686 0.39741 0.0
H2767 H 0.2555 0.80022 0.37316 0.0
C2768 C 0.28131 0.76469 0.42423 0.0
C2769 C 0.28769 0.7464 0.4115 0.0
C2770 C 0.28485 0.78615 0.41643 0.0
C2771 C 0.29486 0.78951 0.39588 0.0
C2772 C 0.30131 0.77132 0.38331 0.0
H2773 H 0.33322 0.85669 0.28769 0.0
H2774 H 0.32681 0.83474 0.32058 0.0
C2775 C 0.29773 0.75005 0.39096 0.0
C2776 C 0.29873 0.81173 0.38674 0.0
H2777 H 0.27365 0.85032 0.35453 0.0
C2778 C 0.32058 0.81861 0.38393 0.0
C2779 C 0.28149 0.824 0.37706 0.0
C2780 C 0.25779 0.81714 0.37968 0.0
C2781 C 0.32576 0.83642 0.37021 0.0
C2782 C 0.30868 0.84738 0.35887 0.0
C2783 C 0.2867 0.84181 0.36325 0.0
C2784 C 0.31347 0.86162 0.33972 0.0
C2785 C 0.34959 0.8425 0.36686 0.0
C2786 C 0.30788 0.88404 0.33955 0.0
C2787 C 0.31167 0.89678 0.32067 0.0
C2788 C 0.32067 0.88711 0.30163 0.0
C2789 C 0.32622 0.86466 0.30202 0.0
C2790 C 0.3227 0.8521 0.32086 0.0
H2791 H 0.35981 0.83751 0.38118 0.0
H2792 H 0.35596 0.83383 0.3521 0.0
H2793 H 0.35146 0.86048 0.36418 0.0
H2794 H 0.30054 0.89159 0.35392 0.0
H2795 H 0.3071 0.91401 0.3208 0.0
H2796 H 0.23231 0.26327 0.87346 0.0
H2797 H 0.22779 0.2271 0.8567 0.0
H2798 H 0.21163 0.19943 0.92001 0.0
H2799 H 0.21636 0.23591 0.93714 0.0
H2800 H 0.248 0.18178 0.87075 0.0
H2801 H 0.15672 0.1912 0.87454 0.0
H2802 H 0.17447 0.21501 0.8753 0.0
H2803 H 0.1734 0.1968 0.89846 0.0
C2804 C 0.22806 0.24946 0.88391 0.0
C2805 C 0.22444 0.2524 0.90655 0.0
C2806 C 0.2256 0.22881 0.87432 0.0
C2807 C 0.21928 0.21074 0.88713 0.0
C2808 C 0.21652 0.21329 0.90993 0.0
H2809 H 0.16604 0.09837 0.81367 0.0
H2810 H 0.17685 0.12083 0.84531 0.0
C2811 C 0.21926 0.23404 0.91965 0.0
C2812 C 0.21392 0.18993 0.87584 0.0
H2813 H 0.17078 0.16401 0.85105 0.0
C2814 C 0.23112 0.17749 0.86683 0.0
C2815 C 0.19189 0.18443 0.87089 0.0
C2816 C 0.17293 0.19748 0.88021 0.0
C2817 C 0.22686 0.16029 0.85202 0.0
C2818 C 0.20488 0.15595 0.84564 0.0
C2819 C 0.18763 0.16745 0.85583 0.0
C2820 C 0.19951 0.14123 0.82694 0.0
C2821 C 0.246 0.14732 0.84299 0.0
C2822 C 0.20847 0.14541 0.80606 0.0
C2823 C 0.20239 0.13261 0.78799 0.0
C2824 C 0.18692 0.11557 0.79034 0.0
C2825 C 0.17792 0.11143 0.81127 0.0
C2826 C 0.18413 0.12418 0.82939 0.0
H2827 H 0.25986 0.14688 0.85491 0.0
H2828 H 0.24117 0.13016 0.83896 0.0
H2829 H 0.25206 0.15538 0.82777 0.0
H2830 H 0.21984 0.15891 0.80362 0.0
H2831 H 0.20959 0.13632 0.77211 0.0
H2832 H 0.69534 0.84169 0.60394 0.0
H2833 H 0.66663 0.83125 0.63034 0.0
H2834 H 0.70957 0.78179 0.65763 0.0
H2835 H 0.73828 0.79203 0.63162 0.0
H2836 H 0.64676 0.78738 0.63969 0.0
H2837 H 0.69298 0.82356 0.70977 0.0
H2838 H 0.69877 0.8305 0.68146 0.0
H2839 H 0.70877 0.80512 0.6929 0.0
C2840 C 0.69863 0.82854 0.61551 0.0
C2841 C 0.71921 0.81792 0.6159 0.0
C2842 C 0.6822 0.82257 0.63049 0.0
C2843 C 0.68619 0.80598 0.64602 0.0
C2844 C 0.70637 0.79485 0.64592 0.0
H2845 H 0.6274 0.74879 0.7598 0.0
H2846 H 0.64848 0.75635 0.72648 0.0
C2847 C 0.72275 0.80078 0.63105 0.0
C2848 C 0.66978 0.80073 0.66309 0.0
H2849 H 0.66262 0.80069 0.71869 0.0
C2850 C 0.65004 0.79044 0.65696 0.0
C2851 C 0.6742 0.80489 0.68553 0.0
C2852 C 0.69473 0.81681 0.69287 0.0
C2853 C 0.63489 0.78338 0.67294 0.0
C2854 C 0.6397 0.78695 0.69541 0.0
C2855 C 0.65917 0.79777 0.70142 0.0
C2856 C 0.62498 0.77959 0.71324 0.0
C2857 C 0.61424 0.77161 0.66582 0.0
C2858 C 0.60452 0.78975 0.71646 0.0
C2859 C 0.5924 0.78549 0.73552 0.0
C2860 C 0.60071 0.77117 0.75172 0.0
C2861 C 0.62062 0.76005 0.74776 0.0
C2862 C 0.63267 0.76431 0.72872 0.0
H2863 H 0.61496 0.76652 0.64828 0.0
H2864 H 0.61142 0.75681 0.67617 0.0
H2865 H 0.59993 0.78275 0.66797 0.0
H2866 H 0.59849 0.80183 0.70481 0.0
H2867 H 0.57712 0.79431 0.73806 0.0
H2868 H 0.87575 0.19871 0.26652 0.0
H2869 H 0.86159 0.19419 0.22953 0.0
H2870 H 0.92071 0.22291 0.20284 0.0
H2871 H 0.93525 0.22776 0.24039 0.0
H2872 H 0.88133 0.2401 0.18479 0.0
H2873 H 0.88005 0.14934 0.18299 0.0
H2874 H 0.86754 0.15957 0.20768 0.0
H2875 H 0.89631 0.16468 0.20262 0.0
C2876 C 0.88596 0.20399 0.25289 0.0
C2877 C 0.90676 0.2135 0.25648 0.0
C2878 C 0.87784 0.20121 0.23167 0.0
C2879 C 0.89028 0.20774 0.21341 0.0
C2880 C 0.91098 0.2175 0.21675 0.0
H2881 H 0.81708 0.16997 0.09476 0.0
H2882 H 0.84956 0.17612 0.11784 0.0
C2883 C 0.91925 0.22025 0.23817 0.0
C2884 C 0.88063 0.20523 0.19115 0.0
H2885 H 0.85278 0.16769 0.16013 0.0
C2886 C 0.87556 0.22422 0.17903 0.0
C2887 C 0.87352 0.18448 0.18336 0.0
C2888 C 0.87986 0.16335 0.19475 0.0
C2889 C 0.86186 0.22316 0.16042 0.0
C2890 C 0.85267 0.20268 0.15415 0.0
C2891 C 0.85945 0.18348 0.16509 0.0
C2892 C 0.8342 0.20098 0.13821 0.0
C2893 C 0.85688 0.24412 0.14809 0.0
C2894 C 0.81478 0.21293 0.1419 0.0
C2895 C 0.79627 0.20952 0.12873 0.0
C2896 C 0.79661 0.19379 0.11176 0.0
C2897 C 0.81623 0.18216 0.10773 0.0
C2898 C 0.83483 0.18569 0.12088 0.0
H2899 H 0.87098 0.25572 0.14899 0.0
H2900 H 0.85304 0.24086 0.13052 0.0
H2901 H 0.84251 0.25235 0.15579 0.0
H2902 H 0.81359 0.22432 0.15556 0.0
H2903 H 0.78146 0.21876 0.13237 0.0
H2904 H 0.23543 0.71448 0.36485 0.0
H2905 H 0.20648 0.72363 0.33866 0.0
H2906 H 0.16317 0.67677 0.36971 0.0
H2907 H 0.19223 0.66717 0.39591 0.0
H2908 H 0.16593 0.67158 0.32492 0.0
H2909 H 0.1501 0.75901 0.34502 0.0
H2910 H 0.17874 0.75342 0.34057 0.0
H2911 H 0.16472 0.74078 0.36339 0.0
C2912 C 0.2197 0.70623 0.3663 0.0
C2913 C 0.2162 0.68999 0.38242 0.0
C2914 C 0.20309 0.71166 0.35142 0.0
C2915 C 0.18258 0.70115 0.35249 0.0
C2916 C 0.17885 0.6852 0.36876 0.0
H2917 H 0.07696 0.70325 0.25425 0.0
H2918 H 0.09652 0.69869 0.28913 0.0
C2919 C 0.19549 0.67972 0.38367 0.0
C2920 C 0.16584 0.70545 0.33534 0.0
H2921 H 0.13774 0.74666 0.30948 0.0
C2922 C 0.15943 0.68791 0.32177 0.0
C2923 C 0.15748 0.72679 0.33127 0.0
C2924 C 0.16294 0.74603 0.34598 0.0
C2925 C 0.1457 0.69132 0.30355 0.0
C2926 C 0.13794 0.7128 0.29905 0.0
C2927 C 0.14378 0.73024 0.31301 0.0
C2928 C 0.12494 0.7176 0.27909 0.0
C2929 C 0.14043 0.67213 0.28868 0.0
C2930 C 0.13412 0.73048 0.2623 0.0
C2931 C 0.123 0.73319 0.24238 0.0
C2932 C 0.10247 0.72307 0.23895 0.0
C2933 C 0.09283 0.71109 0.25627 0.0
C2934 C 0.10399 0.7084 0.27618 0.0
H2935 H 0.15105 0.65764 0.29212 0.0
H2936 H 0.12305 0.66715 0.29119 0.0
H2937 H 0.14245 0.67682 0.27113 0.0
H2938 H 0.15026 0.73779 0.26433 0.0
H2939 H 0.13081 0.7427 0.22948 0.0
H2940 H 0.31229 0.33932 0.90266 0.0
H2941 H 0.34465 0.33194 0.87973 0.0
H2942 H 0.30782 0.28348 0.84324 0.0
H2943 H 0.27565 0.2904 0.86613 0.0
H2944 H 0.35116 0.27003 0.85408 0.0
H2945 H 0.34864 0.35329 0.81553 0.0
H2946 H 0.35035 0.35208 0.84505 0.0
H2947 H 0.32594 0.3426 0.83138 0.0
C2948 C 0.31111 0.32704 0.88979 0.0
C2949 C 0.29128 0.31565 0.88606 0.0
C2950 C 0.32961 0.32288 0.87671 0.0
C2951 C 0.32854 0.30733 0.85967 0.0
C2952 C 0.30899 0.29553 0.85633 0.0
H2953 H 0.37103 0.27946 0.73602 0.0
H2954 H 0.35549 0.28673 0.77214 0.0
C2955 C 0.29055 0.29964 0.86937 0.0
C2956 C 0.34718 0.30389 0.84437 0.0
H2957 H 0.37284 0.32749 0.80035 0.0
C2958 C 0.35635 0.28273 0.84266 0.0
C2959 C 0.35383 0.32051 0.82947 0.0
C2960 C 0.34416 0.34338 0.83023 0.0
C2961 C 0.37102 0.27742 0.82562 0.0
C2962 C 0.3766 0.29368 0.81004 0.0
C2963 C 0.36859 0.31517 0.81254 0.0
C2964 C 0.38687 0.2878 0.78884 0.0
C2965 C 0.37925 0.25412 0.82334 0.0
C2966 C 0.40974 0.28561 0.78643 0.0
C2967 C 0.41882 0.2814 0.7656 0.0
C2968 C 0.40506 0.27953 0.74705 0.0
C2969 C 0.38214 0.28108 0.74987 0.0
C2970 C 0.37318 0.2852 0.77051 0.0
H2971 H 0.3746 0.24372 0.83763 0.0
H2972 H 0.3723 0.24668 0.80816 0.0
H2973 H 0.39744 0.25409 0.82166 0.0
H2974 H 0.4205 0.28758 0.8005 0.0
H2975 H 0.43653 0.28027 0.76393 0.0
H2976 H 0.73616 0.56312 0.7852 0.0
H2977 H 0.69866 0.57725 0.79122 0.0
H2978 H 0.72063 0.64261 0.77448 0.0
H2979 H 0.75784 0.62882 0.76871 0.0
H2980 H 0.68901 0.61239 0.82311 0.0
H2981 H 0.66266 0.63389 0.73856 0.0
H2982 H 0.6839 0.6138 0.74419 0.0
H2983 H 0.69017 0.64273 0.74481 0.0
C2984 C 0.73284 0.58043 0.78247 0.0
C2985 C 0.74992 0.59491 0.77661 0.0
C2986 C 0.71148 0.58845 0.78593 0.0
C2987 C 0.70687 0.61091 0.78303 0.0
C2988 C 0.72376 0.62517 0.77647 0.0
H2989 H 0.63865 0.71563 0.83291 0.0
H2990 H 0.66132 0.68359 0.82465 0.0
C2991 C 0.74506 0.61728 0.77334 0.0
C2992 C 0.68515 0.62029 0.78877 0.0
H2993 H 0.64552 0.65431 0.76812 0.0
C2994 C 0.6791 0.62104 0.81103 0.0
C2995 C 0.67216 0.63139 0.77298 0.0
C2996 C 0.67741 0.63027 0.74875 0.0
C2997 C 0.66149 0.63421 0.81811 0.0
C2998 C 0.6498 0.64694 0.80253 0.0
C2999 C 0.65462 0.64464 0.78007 0.0
C3000 C 0.63504 0.66505 0.80938 0.0
C3001 C 0.65623 0.63531 0.84234 0.0
C3002 C 0.6127 0.66525 0.80348 0.0
C3003 C 0.59957 0.6836 0.80833 0.0
C3004 C 0.60877 0.70214 0.81871 0.0
C3005 C 0.63107 0.70165 0.82485 0.0
C3006 C 0.64402 0.68328 0.82029 0.0
H3007 H 0.66177 0.62021 0.85105 0.0
H3008 H 0.66493 0.64957 0.84972 0.0
H3009 H 0.6383 0.63752 0.84507 0.0
H3010 H 0.60556 0.6514 0.79482 0.0
H3011 H 0.58247 0.68359 0.80327 0.0
H3012 H 0.25809 0.87314 0.25738 0.0
H3013 H 0.22314 0.85405 0.25099 0.0
H3014 H 0.2114 0.89449 0.19381 0.0
H3015 H 0.24561 0.91422 0.20063 0.0
H3016 H 0.17382 0.88683 0.21501 0.0
H3017 H 0.21935 0.80833 0.20373 0.0
H3018 H 0.22257 0.82021 0.23055 0.0
H3019 H 0.2332 0.83435 0.20679 0.0
C3020 C 0.24789 0.8781 0.24361 0.0
C3021 C 0.25473 0.89496 0.22933 0.0
C3022 C 0.228 0.86713 0.23992 0.0
C3023 C 0.21495 0.87246 0.22158 0.0
C3024 C 0.22124 0.89003 0.20801 0.0
H3025 H 0.13455 0.78316 0.1495 0.0
H3026 H 0.16109 0.81048 0.16225 0.0
C3027 C 0.24086 0.90126 0.2119 0.0
C3028 C 0.19564 0.85889 0.21541 0.0
H3029 H 0.18091 0.80689 0.20036 0.0
C3030 C 0.1753 0.86932 0.21186 0.0
C3031 C 0.19772 0.83611 0.211 0.0
C3032 C 0.21941 0.8241 0.213 0.0
C3033 C 0.15709 0.85768 0.20361 0.0
C3034 C 0.15918 0.83489 0.1994 0.0
C3035 C 0.17935 0.82439 0.20355 0.0
C3036 C 0.14123 0.8215 0.18972 0.0
C3037 C 0.13614 0.87007 0.19869 0.0
C3038 C 0.12081 0.81925 0.20036 0.0
C3039 C 0.10534 0.804 0.19267 0.0
C3040 C 0.11038 0.79048 0.17463 0.0
C3041 C 0.13034 0.79344 0.16345 0.0
C3042 C 0.14552 0.80896 0.17079 0.0
H3043 H 0.13912 0.88804 0.19708 0.0
H3044 H 0.12838 0.86404 0.18328 0.0
H3045 H 0.12434 0.86756 0.21239 0.0
H3046 H 0.1173 0.82838 0.21525 0.0
H3047 H 0.09015 0.8017 0.20173 0.0
H3048 H 0.24036 0.08857 0.68388 0.0
H3049 H 0.27504 0.10758 0.67655 0.0
H3050 H 0.29033 0.10645 0.74591 0.0
H3051 H 0.25574 0.08673 0.75314 0.0
H3052 H 0.2806 0.14817 0.69348 0.0
H3053 H 0.35061 0.09498 0.71822 0.0
H3054 H 0.32337 0.08423 0.71301 0.0
H3055 H 0.32947 0.0975 0.73873 0.0
C3056 C 0.25159 0.09163 0.69741 0.0
C3057 C 0.24567 0.08611 0.71901 0.0
C3058 C 0.27132 0.10254 0.69324 0.0
C3059 C 0.28534 0.10838 0.71065 0.0
C3060 C 0.28002 0.1017 0.73217 0.0
H3061 H 0.3645 0.2257 0.71372 0.0
H3062 H 0.33912 0.19547 0.72109 0.0
C3063 C 0.2603 0.09049 0.73632 0.0
C3064 C 0.30336 0.12431 0.70658 0.0
H3065 H 0.35863 0.13307 0.71215 0.0
C3066 C 0.29768 0.14475 0.69741 0.0
C3067 C 0.32563 0.11984 0.71166 0.0
C3068 C 0.33274 0.09788 0.72077 0.0
C3069 C 0.31357 0.16094 0.69343 0.0
C3070 C 0.33571 0.15678 0.69917 0.0
C3071 C 0.34157 0.13623 0.70796 0.0
C3072 C 0.35276 0.17391 0.69629 0.0
C3073 C 0.30652 0.18238 0.68302 0.0
C3074 C 0.36926 0.17147 0.68034 0.0
C3075 C 0.38386 0.18877 0.67603 0.0
C3076 C 0.38214 0.20874 0.68765 0.0
C3077 C 0.36612 0.21068 0.70425 0.0
C3078 C 0.35161 0.19342 0.70854 0.0
H3079 H 0.29018 0.18098 0.67493 0.0
H3080 H 0.30535 0.19524 0.69594 0.0
H3081 H 0.31873 0.18792 0.67061 0.0
H3082 H 0.37038 0.15649 0.67075 0.0
H3083 H 0.39609 0.18667 0.66325 0.0
H3084 H 0.75663 0.42624 0.28934 0.0
H3085 H 0.7912 0.40692 0.29652 0.0
H3086 H 0.77168 0.35522 0.25199 0.0
H3087 H 0.73727 0.37446 0.24447 0.0
H3088 H 0.79208 0.36564 0.31528 0.0
H3089 H 0.83597 0.36445 0.23551 0.0
H3090 H 0.81377 0.38337 0.24126 0.0
H3091 H 0.80794 0.35548 0.23317 0.0
C3092 C 0.7599 0.41102 0.28065 0.0
C3093 C 0.74409 0.40181 0.26645 0.0
C3094 C 0.77967 0.4 0.28481 0.0
C3095 C 0.78408 0.37974 0.27466 0.0
C3096 C 0.76881 0.37105 0.25968 0.0
H3097 H 0.86127 0.26482 0.28945 0.0
H3098 H 0.83698 0.29496 0.27891 0.0
C3099 C 0.74905 0.38201 0.25553 0.0
C3100 C 0.80321 0.36635 0.28165 0.0
H3101 H 0.84686 0.33702 0.26198 0.0
C3102 C 0.80434 0.3597 0.30374 0.0
C3103 C 0.81909 0.35861 0.26653 0.0
C3104 C 0.81929 0.36602 0.24284 0.0
C3105 C 0.82022 0.34454 0.31089 0.0
C3106 C 0.83559 0.33614 0.29557 0.0
C3107 C 0.835 0.34346 0.27366 0.0
C3108 C 0.85122 0.31844 0.30156 0.0
C3109 C 0.81966 0.33675 0.33448 0.0
C3110 C 0.86748 0.32176 0.31763 0.0
C3111 C 0.88136 0.30447 0.32385 0.0
C3112 C 0.87926 0.28362 0.31399 0.0
C3113 C 0.86326 0.28058 0.29752 0.0
C3114 C 0.84941 0.29783 0.29138 0.0
H3115 H 0.80417 0.34154 0.34293 0.0
H3116 H 0.82139 0.31857 0.33533 0.0
H3117 H 0.83362 0.34417 0.34361 0.0
H3118 H 0.86936 0.33768 0.32542 0.0
H3119 H 0.89366 0.30743 0.33642 0.0
loop_
_geom_bond_atom_site_label_1
_geom_bond_atom_site_label_2
_geom_bond_distance
_geom_bond_site_symmetry_2
_ccdc_geom_bond_type
Fe0 O2 1.918 . S
Fe0 O5 1.997 . S
Fe0 O6 2.002 . S
Fe0 O11 1.976 . S
Fe0 O14 1.996 . S
Fe1 O2 1.918 . S
Fe1 O9 1.997 . S
Fe1 O12 1.996 . S
Fe1 O16 1.976 . S
Fe1 O19 2.002 . S
O2 Fe0 1.918 . S
O2 Fe1 1.918 . S
O2 Fe3 1.918 . S
Fe3 O2 1.918 . S
Fe3 O4 2.002 . S
Fe3 O13 1.976 . S
Fe3 O17 1.996 . S
Fe3 O20 1.997 . S
O4 Fe3 2.002 . S
O4 C21 1.295 . S
O5 Fe0 1.997 . S
O5 C21 1.235 . S
O6 Fe0 2.002 . S
O6 C7 1.295 . S
C7 O6 1.295 . S
C7 O9 1.235 . S
C8 O13 1.287 . S
C8 O14 1.255 . S
O9 Fe1 1.997 . S
O9 C7 1.235 . S
C10 O16 1.287 . S
C10 O17 1.255 . S
O11 Fe0 1.976 . S
O11 C18 1.287 . S
O12 Fe1 1.996 . S
O12 C18 1.255 . S
O13 Fe3 1.976 . S
O13 C8 1.287 . S
O14 Fe0 1.996 . S
O14 C8 1.255 . S
C15 O19 1.295 . S
C15 O20 1.235 . S
O16 Fe1 1.976 . S
O16 C10 1.287 . S
O17 Fe3 1.996 . S
O17 C10 1.255 . S
C18 O11 1.287 . S
C18 O12 1.255 . S
O19 Fe1 2.002 . S
O19 C15 1.295 . S
O20 Fe3 1.997 . S
O20 C15 1.235 . S
C21 O4 1.295 . S
C21 O5 1.235 . S
Fe22 O24 1.918 . S
Fe22 O27 1.997 . S
Fe22 O28 2.002 . S
Fe22 O33 1.976 . S
Fe22 O36 1.996 . S
Fe23 O24 1.918 . S
Fe23 O31 1.997 . S
Fe23 O34 1.996 . S
Fe23 O38 1.976 . S
Fe23 O41 2.002 . S
O24 Fe22 1.918 . S
O24 Fe23 1.918 . S
O24 Fe25 1.918 . S
Fe25 O24 1.918 . S
Fe25 O26 2.002 . S
Fe25 O35 1.976 . S
Fe25 O39 1.996 . S
Fe25 O42 1.997 . S
O26 Fe25 2.002 . S
O26 C43 1.295 . S
O27 Fe22 1.997 . S
O27 C43 1.235 . S
O28 Fe22 2.002 . S
O28 C29 1.295 . S
C29 O28 1.295 . S
C29 O31 1.235 . S
C30 O35 1.287 . S
C30 O36 1.255 . S
O31 Fe23 1.997 . S
O31 C29 1.235 . S
C32 O38 1.287 . S
C32 O39 1.255 . S
O33 Fe22 1.976 . S
O33 C40 1.287 . S
O34 Fe23 1.996 . S
O34 C40 1.255 . S
O35 Fe25 1.976 . S
O35 C30 1.287 . S
O36 Fe22 1.996 . S
O36 C30 1.255 . S
C37 O41 1.295 . S
C37 O42 1.235 . S
O38 Fe23 1.976 . S
O38 C32 1.287 . S
O39 Fe25 1.996 . S
O39 C32 1.255 . S
C40 O33 1.287 . S
C40 O34 1.255 . S
O41 Fe23 2.002 . S
O41 C37 1.295 . S
O42 Fe25 1.997 . S
O42 C37 1.235 . S
C43 O26 1.295 . S
C43 O27 1.235 . S
Fe44 O46 1.918 . S
Fe44 O49 1.997 . S
Fe44 O50 2.002 . S
Fe44 O55 1.976 . S
Fe44 O58 1.996 . S
Fe45 O46 1.918 . S
Fe45 O53 1.997 . S
Fe45 O56 1.996 . S
Fe45 O60 1.976 . S
Fe45 O63 2.002 . S
O46 Fe44 1.918 . S
O46 Fe45 1.918 . S
O46 Fe47 1.918 . S
Fe47 O46 1.918 . S
Fe47 O48 2.002 . S
Fe47 O57 1.976 . S
Fe47 O61 1.996 . S
Fe47 O64 1.997 . S
O48 Fe47 2.002 . S
O48 C65 1.295 . S
O49 Fe44 1.997 . S
O49 C65 1.235 . S
O50 Fe44 2.002 . S
O50 C51 1.295 . S
C51 O50 1.295 . S
C51 O53 1.235 . S
C52 O57 1.287 . S
C52 O58 1.255 . S
O53 Fe45 1.997 . S
O53 C51 1.235 . S
C54 O60 1.287 . S
C54 O61 1.255 . S
O55 Fe44 1.976 . S
O55 C62 1.287 . S
O56 Fe45 1.996 . S
O56 C62 1.255 . S
O57 Fe47 1.976 . S
O57 C52 1.287 . S
O58 Fe44 1.996 . S
O58 C52 1.255 . S
C59 O63 1.295 . S
C59 O64 1.235 . S
O60 Fe45 1.976 . S
O60 C54 1.287 . S
O61 Fe47 1.996 . S
O61 C54 1.255 . S
C62 O55 1.287 . S
C62 O56 1.255 . S
O63 Fe45 2.002 . S
O63 C59 1.295 . S
O64 Fe47 1.997 . S
O64 C59 1.235 . S
C65 O48 1.295 . S
C65 O49 1.235 . S
Fe66 O68 1.918 . S
Fe66 O71 1.997 . S
Fe66 O72 2.002 . S
Fe66 O77 1.976 . S
Fe66 O80 1.996 . S
Fe67 O68 1.918 . S
Fe67 O75 1.997 . S
Fe67 O78 1.996 . S
Fe67 O82 1.976 . S
Fe67 O85 2.002 . S
O68 Fe66 1.918 . S
O68 Fe67 1.918 . S
O68 Fe69 1.918 . S
Fe69 O68 1.918 . S
Fe69 O70 2.002 . S
Fe69 O79 1.976 . S
Fe69 O83 1.996 . S
Fe69 O86 1.997 . S
O70 Fe69 2.002 . S
O70 C87 1.295 . S
O71 Fe66 1.997 . S
O71 C87 1.235 . S
O72 Fe66 2.002 . S
O72 C73 1.295 . S
C73 O72 1.295 . S
C73 O75 1.235 . S
C74 O79 1.287 . S
C74 O80 1.255 . S
O75 Fe67 1.997 . S
O75 C73 1.235 . S
C76 O82 1.287 . S
C76 O83 1.255 . S
O77 Fe66 1.976 . S
O77 C84 1.287 . S
O78 Fe67 1.996 . S
O78 C84 1.255 . S
O79 Fe69 1.976 . S
O79 C74 1.287 . S
O80 Fe66 1.996 . S
O80 C74 1.255 . S
C81 O85 1.295 . S
C81 O86 1.235 . S
O82 Fe67 1.976 . S
O82 C76 1.287 . S
O83 Fe69 1.996 . S
O83 C76 1.255 . S
C84 O77 1.287 . S
C84 O78 1.255 . S
O85 Fe67 2.002 . S
O85 C81 1.295 . S
O86 Fe69 1.997 . S
O86 C81 1.235 . S
C87 O70 1.295 . S
C87 O71 1.235 . S
Fe88 O90 1.918 . S
Fe88 O93 1.997 . S
Fe88 O94 2.002 . S
Fe88 O99 1.976 . S
Fe88 O102 1.996 . S
Fe89 O90 1.918 . S
Fe89 O97 1.997 . S
Fe89 O100 1.996 . S
Fe89 O104 1.976 . S
Fe89 O107 2.002 . S
O90 Fe88 1.918 . S
O90 Fe89 1.918 . S
O90 Fe91 1.918 . S
Fe91 O90 1.918 . S
Fe91 O92 2.002 . S
Fe91 O101 1.976 . S
Fe91 O105 1.996 . S
Fe91 O108 1.997 . S
O92 Fe91 2.002 . S
O92 C109 1.295 . S
O93 Fe88 1.997 . S
O93 C109 1.235 . S
O94 Fe88 2.002 . S
O94 C95 1.295 . S
C95 O94 1.295 . S
C95 O97 1.235 . S
C96 O101 1.287 . S
C96 O102 1.255 . S
O97 Fe89 1.997 . S
O97 C95 1.235 . S
C98 O104 1.287 . S
C98 O105 1.255 . S
O99 Fe88 1.976 . S
O99 C106 1.287 . S
O100 Fe89 1.996 . S
O100 C106 1.255 . S
O101 Fe91 1.976 . S
O101 C96 1.287 . S
O102 Fe88 1.996 . S
O102 C96 1.255 . S
C103 O107 1.295 . S
C103 O108 1.235 . S
O104 Fe89 1.976 . S
O104 C98 1.287 . S
O105 Fe91 1.996 . S
O105 C98 1.255 . S
C106 O99 1.287 . S
C106 O100 1.255 . S
O107 Fe89 2.002 . S
O107 C103 1.295 . S
O108 Fe91 1.997 . S
O108 C103 1.235 . S
C109 O92 1.295 . S
C109 O93 1.235 . S
Fe110 O112 1.918 . S
Fe110 O115 1.997 . S
Fe110 O116 2.002 . S
Fe110 O121 1.976 . S
Fe110 O124 1.996 . S
Fe111 O112 1.918 . S
Fe111 O119 1.997 . S
Fe111 O122 1.996 . S
Fe111 O126 1.976 . S
Fe111 O129 2.002 . S
O112 Fe110 1.918 . S
O112 Fe111 1.918 . S
O112 Fe113 1.918 . S
Fe113 O112 1.918 . S
Fe113 O114 2.002 . S
Fe113 O123 1.976 . S
Fe113 O127 1.996 . S
Fe113 O130 1.997 . S
O114 Fe113 2.002 . S
O114 C131 1.295 . S
O115 Fe110 1.997 . S
O115 C131 1.235 . S
O116 Fe110 2.002 . S
O116 C117 1.295 . S
C117 O116 1.295 . S
C117 O119 1.235 . S
C118 O123 1.287 . S
C118 O124 1.255 . S
O119 Fe111 1.997 . S
O119 C117 1.235 . S
C120 O126 1.287 . S
C120 O127 1.255 . S
O121 Fe110 1.976 . S
O121 C128 1.287 . S
O122 Fe111 1.996 . S
O122 C128 1.255 . S
O123 Fe113 1.976 . S
O123 C118 1.287 . S
O124 Fe110 1.996 . S
O124 C118 1.255 . S
C125 O129 1.295 . S
C125 O130 1.235 . S
O126 Fe111 1.976 . S
O126 C120 1.287 . S
O127 Fe113 1.996 . S
O127 C120 1.255 . S
C128 O121 1.287 . S
C128 O122 1.255 . S
O129 Fe111 2.002 . S
O129 C125 1.295 . S
O130 Fe113 1.997 . S
O130 C125 1.235 . S
C131 O114 1.295 . S
C131 O115 1.235 . S
Fe132 O134 1.918 . S
Fe132 O137 1.997 . S
Fe132 O138 2.002 . S
Fe132 O143 1.976 . S
Fe132 O146 1.996 . S
Fe133 O134 1.918 . S
Fe133 O141 1.997 . S
Fe133 O144 1.996 . S
Fe133 O148 1.976 . S
Fe133 O151 2.002 . S
O134 Fe132 1.918 . S
O134 Fe133 1.918 . S
O134 Fe135 1.918 . S
Fe135 O134 1.918 . S
Fe135 O136 2.002 . S
Fe135 O145 1.976 . S
Fe135 O149 1.996 . S
Fe135 O152 1.997 . S
O136 Fe135 2.002 . S
O136 C153 1.295 . S
O137 Fe132 1.997 . S
O137 C153 1.235 . S
O138 Fe132 2.002 . S
O138 C139 1.295 . S
C139 O138 1.295 . S
C139 O141 1.235 . S
C140 O145 1.287 . S
C140 O146 1.255 . S
O141 Fe133 1.997 . S
O141 C139 1.235 . S
C142 O148 1.287 . S
C142 O149 1.255 . S
O143 Fe132 1.976 . S
O143 C150 1.287 . S
O144 Fe133 1.996 . S
O144 C150 1.255 . S
O145 Fe135 1.976 . S
O145 C140 1.287 . S
O146 Fe132 1.996 . S
O146 C140 1.255 . S
C147 O151 1.295 . S
C147 O152 1.235 . S
O148 Fe133 1.976 . S
O148 C142 1.287 . S
O149 Fe135 1.996 . S
O149 C142 1.255 . S
C150 O143 1.287 . S
C150 O144 1.255 . S
O151 Fe133 2.002 . S
O151 C147 1.295 . S
O152 Fe135 1.997 . S
O152 C147 1.235 . S
C153 O136 1.295 . S
C153 O137 1.235 . S
Fe154 O156 1.918 . S
Fe154 O159 1.997 . S
Fe154 O160 2.002 . S
Fe154 O165 1.976 . S
Fe154 O168 1.996 . S
Fe155 O156 1.918 . S
Fe155 O163 1.997 . S
Fe155 O166 1.996 . S
Fe155 O170 1.976 . S
Fe155 O173 2.002 . S
O156 Fe154 1.918 . S
O156 Fe155 1.918 . S
O156 Fe157 1.918 . S
Fe157 O156 1.918 . S
Fe157 O158 2.002 . S
Fe157 O167 1.976 . S
Fe157 O171 1.996 . S
Fe157 O174 1.997 . S
O158 Fe157 2.002 . S
O158 C175 1.295 . S
O159 Fe154 1.997 . S
O159 C175 1.235 . S
O160 Fe154 2.002 . S
O160 C161 1.295 . S
C161 O160 1.295 . S
C161 O163 1.235 . S
C162 O167 1.287 . S
C162 O168 1.255 . S
O163 Fe155 1.997 . S
O163 C161 1.235 . S
C164 O170 1.287 . S
C164 O171 1.255 . S
O165 Fe154 1.976 . S
O165 C172 1.287 . S
O166 Fe155 1.996 . S
O166 C172 1.255 . S
O167 Fe157 1.976 . S
O167 C162 1.287 . S
O168 Fe154 1.996 . S
O168 C162 1.255 . S
C169 O173 1.295 . S
C169 O174 1.235 . S
O170 Fe155 1.976 . S
O170 C164 1.287 . S
O171 Fe157 1.996 . S
O171 C164 1.255 . S
C172 O165 1.287 . S
C172 O166 1.255 . S
O173 Fe155 2.002 . S
O173 C169 1.295 . S
O174 Fe157 1.997 . S
O174 C169 1.235 . S
C175 O158 1.295 . S
C175 O159 1.235 . S
Fe176 O178 1.918 . S
Fe176 O181 1.997 . S
Fe176 O182 2.002 . S
Fe176 O187 1.976 . S
Fe176 O190 1.996 . S
Fe177 O178 1.918 . S
Fe177 O185 1.997 . S
Fe177 O188 1.996 . S
Fe177 O192 1.976 . S
Fe177 O195 2.002 . S
O178 Fe176 1.918 . S
O178 Fe177 1.918 . S
O178 Fe179 1.918 . S
Fe179 O178 1.918 . S
Fe179 O180 2.002 . S
Fe179 O189 1.976 . S
Fe179 O193 1.996 . S
Fe179 O196 1.997 . S
O180 Fe179 2.002 . S
O180 C197 1.295 . S
O181 Fe176 1.997 . S
O181 C197 1.235 . S
O182 Fe176 2.002 . S
O182 C183 1.295 . S
C183 O182 1.295 . S
C183 O185 1.235 . S
C184 O189 1.287 . S
C184 O190 1.255 . S
O185 Fe177 1.997 . S
O185 C183 1.235 . S
C186 O192 1.287 . S
C186 O193 1.255 . S
O187 Fe176 1.976 . S
O187 C194 1.287 . S
O188 Fe177 1.996 . S
O188 C194 1.255 . S
O189 Fe179 1.976 . S
O189 C184 1.287 . S
O190 Fe176 1.996 . S
O190 C184 1.255 . S
C191 O195 1.295 . S
C191 O196 1.235 . S
O192 Fe177 1.976 . S
O192 C186 1.287 . S
O193 Fe179 1.996 . S
O193 C186 1.255 . S
C194 O187 1.287 . S
C194 O188 1.255 . S
O195 Fe177 2.002 . S
O195 C191 1.295 . S
O196 Fe179 1.997 . S
O196 C191 1.235 . S
C197 O180 1.295 . S
C197 O181 1.235 . S
Fe198 O200 1.918 . S
Fe198 O203 1.997 . S
Fe198 O204 2.002 . S
Fe198 O209 1.976 . S
Fe198 O212 1.996 . S
Fe199 O200 1.918 . S
Fe199 O207 1.997 . S
Fe199 O210 1.996 . S
Fe199 O214 1.976 . S
Fe199 O217 2.002 . S
O200 Fe198 1.918 . S
O200 Fe199 1.918 . S
O200 Fe201 1.918 . S
Fe201 O200 1.918 . S
Fe201 O202 2.002 . S
Fe201 O211 1.976 . S
Fe201 O215 1.996 . S
Fe201 O218 1.997 . S
O202 Fe201 2.002 . S
O202 C219 1.295 . S
O203 Fe198 1.997 . S
O203 C219 1.235 . S
O204 Fe198 2.002 . S
O204 C205 1.295 . S
C205 O204 1.295 . S
C205 O207 1.235 . S
C206 O211 1.287 . S
C206 O212 1.255 . S
O207 Fe199 1.997 . S
O207 C205 1.235 . S
C208 O214 1.287 . S
C208 O215 1.255 . S
O209 Fe198 1.976 . S
O209 C216 1.287 . S
O210 Fe199 1.996 . S
O210 C216 1.255 . S
O211 Fe201 1.976 . S
O211 C206 1.287 . S
O212 Fe198 1.996 . S
O212 C206 1.255 . S
C213 O217 1.295 . S
C213 O218 1.235 . S
O214 Fe199 1.976 . S
O214 C208 1.287 . S
O215 Fe201 1.996 . S
O215 C208 1.255 . S
C216 O209 1.287 . S
C216 O210 1.255 . S
O217 Fe199 2.002 . S
O217 C213 1.295 . S
O218 Fe201 1.997 . S
O218 C213 1.235 . S
C219 O202 1.295 . S
C219 O203 1.235 . S
Fe220 O222 1.918 . S
Fe220 O225 1.997 . S
Fe220 O226 2.002 . S
Fe220 O231 1.976 . S
Fe220 O234 1.996 . S
Fe221 O222 1.918 . S
Fe221 O229 1.997 . S
Fe221 O232 1.996 . S
Fe221 O236 1.976 . S
Fe221 O239 2.002 . S
O222 Fe220 1.918 . S
O222 Fe221 1.918 . S
O222 Fe223 1.918 . S
Fe223 O222 1.918 . S
Fe223 O224 2.002 . S
Fe223 O233 1.976 . S
Fe223 O237 1.996 . S
Fe223 O240 1.997 . S
O224 Fe223 2.002 . S
O224 C241 1.295 . S
O225 Fe220 1.997 . S
O225 C241 1.235 . S
O226 Fe220 2.002 . S
O226 C227 1.295 . S
C227 O226 1.295 . S
C227 O229 1.235 . S
C228 O233 1.287 . S
C228 O234 1.255 . S
O229 Fe221 1.997 . S
O229 C227 1.235 . S
C230 O236 1.287 . S
C230 O237 1.255 . S
O231 Fe220 1.976 . S
O231 C238 1.287 . S
O232 Fe221 1.996 . S
O232 C238 1.255 . S
O233 Fe223 1.976 . S
O233 C228 1.287 . S
O234 Fe220 1.996 . S
O234 C228 1.255 . S
C235 O239 1.295 . S
C235 O240 1.235 . S
O236 Fe221 1.976 . S
O236 C230 1.287 . S
O237 Fe223 1.996 . S
O237 C230 1.255 . S
C238 O231 1.287 . S
C238 O232 1.255 . S
O239 Fe221 2.002 . S
O239 C235 1.295 . S
O240 Fe223 1.997 . S
O240 C235 1.235 . S
C241 O224 1.295 . S
C241 O225 1.235 . S
Fe242 O244 1.918 . S
Fe242 O247 1.997 . S
Fe242 O248 2.002 . S
Fe242 O253 1.976 . S
Fe242 O256 1.996 . S
Fe243 O244 1.918 . S
Fe243 O251 1.997 . S
Fe243 O254 1.996 . S
Fe243 O258 1.976 . S
Fe243 O261 2.002 . S
O244 Fe242 1.918 . S
O244 Fe243 1.918 . S
O244 Fe245 1.918 . S
Fe245 O244 1.918 . S
Fe245 O246 2.002 . S
Fe245 O255 1.976 . S
Fe245 O259 1.996 . S
Fe245 O262 1.997 . S
O246 Fe245 2.002 . S
O246 C263 1.295 . S
O247 Fe242 1.997 . S
O247 C263 1.235 . S
O248 Fe242 2.002 . S
O248 C249 1.295 . S
C249 O248 1.295 . S
C249 O251 1.235 . S
C250 O255 1.287 . S
C250 O256 1.255 . S
O251 Fe243 1.997 . S
O251 C249 1.235 . S
C252 O258 1.287 . S
C252 O259 1.255 . S
O253 Fe242 1.976 . S
O253 C260 1.287 . S
O254 Fe243 1.996 . S
O254 C260 1.255 . S
O255 Fe245 1.976 . S
O255 C250 1.287 . S
O256 Fe242 1.996 . S
O256 C250 1.255 . S
C257 O261 1.295 . S
C257 O262 1.235 . S
O258 Fe243 1.976 . S
O258 C252 1.287 . S
O259 Fe245 1.996 . S
O259 C252 1.255 . S
C260 O253 1.287 . S
C260 O254 1.255 . S
O261 Fe243 2.002 . S
O261 C257 1.295 . S
O262 Fe245 1.997 . S
O262 C257 1.235 . S
C263 O246 1.295 . S
C263 O247 1.235 . S
Fe264 O266 1.918 . S
Fe264 O269 1.997 . S
Fe264 O270 2.002 . S
Fe264 O275 1.976 . S
Fe264 O278 1.996 . S
Fe265 O266 1.918 . S
Fe265 O273 1.997 . S
Fe265 O276 1.996 . S
Fe265 O280 1.976 . S
Fe265 O283 2.002 . S
O266 Fe264 1.918 . S
O266 Fe265 1.918 . S
O266 Fe267 1.918 . S
Fe267 O266 1.918 . S
Fe267 O268 2.002 . S
Fe267 O277 1.976 . S
Fe267 O281 1.996 . S
Fe267 O284 1.997 . S
O268 Fe267 2.002 . S
O268 C285 1.295 . S
O269 Fe264 1.997 . S
O269 C285 1.235 . S
O270 Fe264 2.002 . S
O270 C271 1.295 . S
C271 O270 1.295 . S
C271 O273 1.235 . S
C272 O277 1.287 . S
C272 O278 1.255 . S
O273 Fe265 1.997 . S
O273 C271 1.235 . S
C274 O280 1.287 . S
C274 O281 1.255 . S
O275 Fe264 1.976 . S
O275 C282 1.287 . S
O276 Fe265 1.996 . S
O276 C282 1.255 . S
O277 Fe267 1.976 . S
O277 C272 1.287 . S
O278 Fe264 1.996 . S
O278 C272 1.255 . S
C279 O283 1.295 . S
C279 O284 1.235 . S
O280 Fe265 1.976 . S
O280 C274 1.287 . S
O281 Fe267 1.996 . S
O281 C274 1.255 . S
C282 O275 1.287 . S
C282 O276 1.255 . S
O283 Fe265 2.002 . S
O283 C279 1.295 . S
O284 Fe267 1.997 . S
O284 C279 1.235 . S
C285 O268 1.295 . S
C285 O269 1.235 . S
Fe286 O288 1.918 . S
Fe286 O291 1.997 . S
Fe286 O292 2.002 . S
Fe286 O297 1.976 . S
Fe286 O300 1.996 . S
Fe287 O288 1.918 . S
Fe287 O295 1.997 . S
Fe287 O298 1.996 . S
Fe287 O302 1.976 . S
Fe287 O305 2.002 . S
O288 Fe286 1.918 . S
O288 Fe287 1.918 . S
O288 Fe289 1.918 . S
Fe289 O288 1.918 . S
Fe289 O290 2.002 . S
Fe289 O299 1.976 . S
Fe289 O303 1.996 . S
Fe289 O306 1.997 . S
O290 Fe289 2.002 . S
O290 C307 1.295 . S
O291 Fe286 1.997 . S
O291 C307 1.235 . S
O292 Fe286 2.002 . S
O292 C293 1.295 . S
C293 O292 1.295 . S
C293 O295 1.235 . S
C294 O299 1.287 . S
C294 O300 1.255 . S
O295 Fe287 1.997 . S
O295 C293 1.235 . S
C296 O302 1.287 . S
C296 O303 1.255 . S
O297 Fe286 1.976 . S
O297 C304 1.287 . S
O298 Fe287 1.996 . S
O298 C304 1.255 . S
O299 Fe289 1.976 . S
O299 C294 1.287 . S
O300 Fe286 1.996 . S
O300 C294 1.255 . S
C301 O305 1.295 . S
C301 O306 1.235 . S
O302 Fe287 1.976 . S
O302 C296 1.287 . S
O303 Fe289 1.996 . S
O303 C296 1.255 . S
C304 O297 1.287 . S
C304 O298 1.255 . S
O305 Fe287 2.002 . S
O305 C301 1.295 . S
O306 Fe289 1.997 . S
O306 C301 1.235 . S
C307 O290 1.295 . S
C307 O291 1.235 . S
Fe308 O310 1.918 . S
Fe308 O313 1.997 . S
Fe308 O314 2.002 . S
Fe308 O319 1.976 . S
Fe308 O322 1.996 . S
Fe309 O310 1.918 . S
Fe309 O317 1.997 . S
Fe309 O320 1.996 . S
Fe309 O324 1.976 . S
Fe309 O327 2.002 . S
O310 Fe308 1.918 . S
O310 Fe309 1.918 . S
O310 Fe311 1.918 . S
Fe311 O310 1.918 . S
Fe311 O312 2.002 . S
Fe311 O321 1.976 . S
Fe311 O325 1.996 . S
Fe311 O328 1.997 . S
O312 Fe311 2.002 . S
O312 C329 1.295 . S
O313 Fe308 1.997 . S
O313 C329 1.235 . S
O314 Fe308 2.002 . S
O314 C315 1.295 . S
C315 O314 1.295 . S
C315 O317 1.235 . S
C316 O321 1.287 . S
C316 O322 1.255 . S
O317 Fe309 1.997 . S
O317 C315 1.235 . S
C318 O324 1.287 . S
C318 O325 1.255 . S
O319 Fe308 1.976 . S
O319 C326 1.287 . S
O320 Fe309 1.996 . S
O320 C326 1.255 . S
O321 Fe311 1.976 . S
O321 C316 1.287 . S
O322 Fe308 1.996 . S
O322 C316 1.255 . S
C323 O327 1.295 . S
C323 O328 1.235 . S
O324 Fe309 1.976 . S
O324 C318 1.287 . S
O325 Fe311 1.996 . S
O325 C318 1.255 . S
C326 O319 1.287 . S
C326 O320 1.255 . S
O327 Fe309 2.002 . S
O327 C323 1.295 . S
O328 Fe311 1.997 . S
O328 C323 1.235 . S
C329 O312 1.295 . S
C329 O313 1.235 . S
Fe330 O332 1.918 . S
Fe330 O335 1.997 . S
Fe330 O336 2.002 . S
Fe330 O341 1.976 . S
Fe330 O344 1.996 . S
Fe331 O332 1.918 . S
Fe331 O339 1.997 . S
Fe331 O342 1.996 . S
Fe331 O346 1.976 . S
Fe331 O349 2.002 . S
O332 Fe330 1.918 . S
O332 Fe331 1.918 . S
O332 Fe333 1.918 . S
Fe333 O332 1.918 . S
Fe333 O334 2.002 . S
Fe333 O343 1.976 . S
Fe333 O347 1.996 . S
Fe333 O350 1.997 . S
O334 Fe333 2.002 . S
O334 C351 1.295 . S
O335 Fe330 1.997 . S
O335 C351 1.235 . S
O336 Fe330 2.002 . S
O336 C337 1.295 . S
C337 O336 1.295 . S
C337 O339 1.235 . S
C338 O343 1.287 . S
C338 O344 1.255 . S
O339 Fe331 1.997 . S
O339 C337 1.235 . S
C340 O346 1.287 . S
C340 O347 1.255 . S
O341 Fe330 1.976 . S
O341 C348 1.287 . S
O342 Fe331 1.996 . S
O342 C348 1.255 . S
O343 Fe333 1.976 . S
O343 C338 1.287 . S
O344 Fe330 1.996 . S
O344 C338 1.255 . S
C345 O349 1.295 . S
C345 O350 1.235 . S
O346 Fe331 1.976 . S
O346 C340 1.287 . S
O347 Fe333 1.996 . S
O347 C340 1.255 . S
C348 O341 1.287 . S
C348 O342 1.255 . S
O349 Fe331 2.002 . S
O349 C345 1.295 . S
O350 Fe333 1.997 . S
O350 C345 1.235 . S
C351 O334 1.295 . S
C351 O335 1.235 . S
Fe352 O354 1.918 . S
Fe352 O357 1.997 . S
Fe352 O358 2.002 . S
Fe352 O363 1.976 . S
Fe352 O366 1.996 . S
Fe353 O354 1.918 . S
Fe353 O361 1.997 . S
Fe353 O364 1.996 . S
Fe353 O368 1.976 . S
Fe353 O371 2.002 . S
O354 Fe352 1.918 . S
O354 Fe353 1.918 . S
O354 Fe355 1.918 . S
Fe355 O354 1.918 . S
Fe355 O356 2.002 . S
Fe355 O365 1.976 . S
Fe355 O369 1.996 . S
Fe355 O372 1.997 . S
O356 Fe355 2.002 . S
O356 C373 1.295 . S
O357 Fe352 1.997 . S
O357 C373 1.235 . S
O358 Fe352 2.002 . S
O358 C359 1.295 . S
C359 O358 1.295 . S
C359 O361 1.235 . S
C360 O365 1.287 . S
C360 O366 1.255 . S
O361 Fe353 1.997 . S
O361 C359 1.235 . S
C362 O368 1.287 . S
C362 O369 1.255 . S
O363 Fe352 1.976 . S
O363 C370 1.287 . S
O364 Fe353 1.996 . S
O364 C370 1.255 . S
O365 Fe355 1.976 . S
O365 C360 1.287 . S
O366 Fe352 1.996 . S
O366 C360 1.255 . S
C367 O371 1.295 . S
C367 O372 1.235 . S
O368 Fe353 1.976 . S
O368 C362 1.287 . S
O369 Fe355 1.996 . S
O369 C362 1.255 . S
C370 O363 1.287 . S
C370 O364 1.255 . S
O371 Fe353 2.002 . S
O371 C367 1.295 . S
O372 Fe355 1.997 . S
O372 C367 1.235 . S
C373 O356 1.295 . S
C373 O357 1.235 . S
Fe374 O376 1.918 . S
Fe374 O379 1.997 . S
Fe374 O380 2.002 . S
Fe374 O385 1.976 . S
Fe374 O388 1.996 . S
Fe375 O376 1.918 . S
Fe375 O383 1.997 . S
Fe375 O386 1.996 . S
Fe375 O390 1.976 . S
Fe375 O393 2.002 . S
O376 Fe374 1.918 . S
O376 Fe375 1.918 . S
O376 Fe377 1.918 . S
Fe377 O376 1.918 . S
Fe377 O378 2.002 . S
Fe377 O387 1.976 . S
Fe377 O391 1.996 . S
Fe377 O394 1.997 . S
O378 Fe377 2.002 . S
O378 C395 1.295 . S
O379 Fe374 1.997 . S
O379 C395 1.235 . S
O380 Fe374 2.002 . S
O380 C381 1.295 . S
C381 O380 1.295 . S
C381 O383 1.235 . S
C382 O387 1.287 . S
C382 O388 1.255 . S
O383 Fe375 1.997 . S
O383 C381 1.235 . S
C384 O390 1.287 . S
C384 O391 1.255 . S
O385 Fe374 1.976 . S
O385 C392 1.287 . S
O386 Fe375 1.996 . S
O386 C392 1.255 . S
O387 Fe377 1.976 . S
O387 C382 1.287 . S
O388 Fe374 1.996 . S
O388 C382 1.255 . S
C389 O393 1.295 . S
C389 O394 1.235 . S
O390 Fe375 1.976 . S
O390 C384 1.287 . S
O391 Fe377 1.996 . S
O391 C384 1.255 . S
C392 O385 1.287 . S
C392 O386 1.255 . S
O393 Fe375 2.002 . S
O393 C389 1.295 . S
O394 Fe377 1.997 . S
O394 C389 1.235 . S
C395 O378 1.295 . S
C395 O379 1.235 . S
Fe396 O398 1.918 . S
Fe396 O401 1.997 . S
Fe396 O402 2.002 . S
Fe396 O407 1.976 . S
Fe396 O410 1.996 . S
Fe397 O398 1.918 . S
Fe397 O405 1.997 . S
Fe397 O408 1.996 . S
Fe397 O412 1.976 . S
Fe397 O415 2.002 . S
O398 Fe396 1.918 . S
O398 Fe397 1.918 . S
O398 Fe399 1.918 . S
Fe399 O398 1.918 . S
Fe399 O400 2.002 . S
Fe399 O409 1.976 . S
Fe399 O413 1.996 . S
Fe399 O416 1.997 . S
O400 Fe399 2.002 . S
O400 C417 1.295 . S
O401 Fe396 1.997 . S
O401 C417 1.235 . S
O402 Fe396 2.002 . S
O402 C403 1.295 . S
C403 O402 1.295 . S
C403 O405 1.235 . S
C404 O409 1.287 . S
C404 O410 1.255 . S
O405 Fe397 1.997 . S
O405 C403 1.235 . S
C406 O412 1.287 . S
C406 O413 1.255 . S
O407 Fe396 1.976 . S
O407 C414 1.287 . S
O408 Fe397 1.996 . S
O408 C414 1.255 . S
O409 Fe399 1.976 . S
O409 C404 1.287 . S
O410 Fe396 1.996 . S
O410 C404 1.255 . S
C411 O415 1.295 . S
C411 O416 1.235 . S
O412 Fe397 1.976 . S
O412 C406 1.287 . S
O413 Fe399 1.996 . S
O413 C406 1.255 . S
C414 O407 1.287 . S
C414 O408 1.255 . S
O415 Fe397 2.002 . S
O415 C411 1.295 . S
O416 Fe399 1.997 . S
O416 C411 1.235 . S
C417 O400 1.295 . S
C417 O401 1.235 . S
Fe418 O420 1.918 . S
Fe418 O423 1.997 . S
Fe418 O424 2.002 . S
Fe418 O429 1.976 . S
Fe418 O432 1.996 . S
Fe419 O420 1.918 . S
Fe419 O427 1.997 . S
Fe419 O430 1.996 . S
Fe419 O434 1.976 . S
Fe419 O437 2.002 . S
O420 Fe418 1.918 . S
O420 Fe419 1.918 . S
O420 Fe421 1.918 . S
Fe421 O420 1.918 . S
Fe421 O422 2.002 . S
Fe421 O431 1.976 . S
Fe421 O435 1.996 . S
Fe421 O438 1.997 . S
O422 Fe421 2.002 . S
O422 C439 1.295 . S
O423 Fe418 1.997 . S
O423 C439 1.235 . S
O424 Fe418 2.002 . S
O424 C425 1.295 . S
C425 O424 1.295 . S
C425 O427 1.235 . S
C426 O431 1.287 . S
C426 O432 1.255 . S
O427 Fe419 1.997 . S
O427 C425 1.235 . S
C428 O434 1.287 . S
C428 O435 1.255 . S
O429 Fe418 1.976 . S
O429 C436 1.287 . S
O430 Fe419 1.996 . S
O430 C436 1.255 . S
O431 Fe421 1.976 . S
O431 C426 1.287 . S
O432 Fe418 1.996 . S
O432 C426 1.255 . S
C433 O437 1.295 . S
C433 O438 1.235 . S
O434 Fe419 1.976 . S
O434 C428 1.287 . S
O435 Fe421 1.996 . S
O435 C428 1.255 . S
C436 O429 1.287 . S
C436 O430 1.255 . S
O437 Fe419 2.002 . S
O437 C433 1.295 . S
O438 Fe421 1.997 . S
O438 C433 1.235 . S
C439 O422 1.295 . S
C439 O423 1.235 . S
Fe440 O442 1.918 . S
Fe440 O445 1.997 . S
Fe440 O446 2.002 . S
Fe440 O451 1.976 . S
Fe440 O454 1.996 . S
Fe441 O442 1.918 . S
Fe441 O449 1.997 . S
Fe441 O452 1.996 . S
Fe441 O456 1.976 . S
Fe441 O459 2.002 . S
O442 Fe440 1.918 . S
O442 Fe441 1.918 . S
O442 Fe443 1.918 . S
Fe443 O442 1.918 . S
Fe443 O444 2.002 . S
Fe443 O453 1.976 . S
Fe443 O457 1.996 . S
Fe443 O460 1.997 . S
O444 Fe443 2.002 . S
O444 C461 1.295 . S
O445 Fe440 1.997 . S
O445 C461 1.235 . S
O446 Fe440 2.002 . S
O446 C447 1.295 . S
C447 O446 1.295 . S
C447 O449 1.235 . S
C448 O453 1.287 . S
C448 O454 1.255 . S
O449 Fe441 1.997 . S
O449 C447 1.235 . S
C450 O456 1.287 . S
C450 O457 1.255 . S
O451 Fe440 1.976 . S
O451 C458 1.287 . S
O452 Fe441 1.996 . S
O452 C458 1.255 . S
O453 Fe443 1.976 . S
O453 C448 1.287 . S
O454 Fe440 1.996 . S
O454 C448 1.255 . S
C455 O459 1.295 . S
C455 O460 1.235 . S
O456 Fe441 1.976 . S
O456 C450 1.287 . S
O457 Fe443 1.996 . S
O457 C450 1.255 . S
C458 O451 1.287 . S
C458 O452 1.255 . S
O459 Fe441 2.002 . S
O459 C455 1.295 . S
O460 Fe443 1.997 . S
O460 C455 1.235 . S
C461 O444 1.295 . S
C461 O445 1.235 . S
Fe462 O464 1.918 . S
Fe462 O467 1.997 . S
Fe462 O468 2.002 . S
Fe462 O473 1.976 . S
Fe462 O476 1.996 . S
Fe463 O464 1.918 . S
Fe463 O471 1.997 . S
Fe463 O474 1.996 . S
Fe463 O478 1.976 . S
Fe463 O481 2.002 . S
O464 Fe462 1.918 . S
O464 Fe463 1.918 . S
O464 Fe465 1.918 . S
Fe465 O464 1.918 . S
Fe465 O466 2.002 . S
Fe465 O475 1.976 . S
Fe465 O479 1.996 . S
Fe465 O482 1.997 . S
O466 Fe465 2.002 . S
O466 C483 1.295 . S
O467 Fe462 1.997 . S
O467 C483 1.235 . S
O468 Fe462 2.002 . S
O468 C469 1.295 . S
C469 O468 1.295 . S
C469 O471 1.235 . S
C470 O475 1.287 . S
C470 O476 1.255 . S
O471 Fe463 1.997 . S
O471 C469 1.235 . S
C472 O478 1.287 . S
C472 O479 1.255 . S
O473 Fe462 1.976 . S
O473 C480 1.287 . S
O474 Fe463 1.996 . S
O474 C480 1.255 . S
O475 Fe465 1.976 . S
O475 C470 1.287 . S
O476 Fe462 1.996 . S
O476 C470 1.255 . S
C477 O481 1.295 . S
C477 O482 1.235 . S
O478 Fe463 1.976 . S
O478 C472 1.287 . S
O479 Fe465 1.996 . S
O479 C472 1.255 . S
C480 O473 1.287 . S
C480 O474 1.255 . S
O481 Fe463 2.002 . S
O481 C477 1.295 . S
O482 Fe465 1.997 . S
O482 C477 1.235 . S
C483 O466 1.295 . S
C483 O467 1.235 . S
Fe484 O486 1.918 . S
Fe484 O489 1.997 . S
Fe484 O490 2.002 . S
Fe484 O495 1.976 . S
Fe484 O498 1.996 . S
Fe485 O486 1.918 . S
Fe485 O493 1.997 . S
Fe485 O496 1.996 . S
Fe485 O500 1.976 . S
Fe485 O503 2.002 . S
O486 Fe484 1.918 . S
O486 Fe485 1.918 . S
O486 Fe487 1.918 . S
Fe487 O486 1.918 . S
Fe487 O488 2.002 . S
Fe487 O497 1.976 . S
Fe487 O501 1.996 . S
Fe487 O504 1.997 . S
O488 Fe487 2.002 . S
O488 C505 1.295 . S
O489 Fe484 1.997 . S
O489 C505 1.235 . S
O490 Fe484 2.002 . S
O490 C491 1.295 . S
C491 O490 1.295 . S
C491 O493 1.235 . S
C492 O497 1.287 . S
C492 O498 1.255 . S
O493 Fe485 1.997 . S
O493 C491 1.235 . S
C494 O500 1.287 . S
C494 O501 1.255 . S
O495 Fe484 1.976 . S
O495 C502 1.287 . S
O496 Fe485 1.996 . S
O496 C502 1.255 . S
O497 Fe487 1.976 . S
O497 C492 1.287 . S
O498 Fe484 1.996 . S
O498 C492 1.255 . S
C499 O503 1.295 . S
C499 O504 1.235 . S
O500 Fe485 1.976 . S
O500 C494 1.287 . S
O501 Fe487 1.996 . S
O501 C494 1.255 . S
C502 O495 1.287 . S
C502 O496 1.255 . S
O503 Fe485 2.002 . S
O503 C499 1.295 . S
O504 Fe487 1.997 . S
O504 C499 1.235 . S
C505 O488 1.295 . S
C505 O489 1.235 . S
Fe506 O508 1.918 . S
Fe506 O511 1.997 . S
Fe506 O512 2.002 . S
Fe506 O517 1.976 . S
Fe506 O520 1.996 . S
Fe507 O508 1.918 . S
Fe507 O515 1.997 . S
Fe507 O518 1.996 . S
Fe507 O522 1.976 . S
Fe507 O525 2.002 . S
O508 Fe506 1.918 . S
O508 Fe507 1.918 . S
O508 Fe509 1.918 . S
Fe509 O508 1.918 . S
Fe509 O510 2.002 . S
Fe509 O519 1.976 . S
Fe509 O523 1.996 . S
Fe509 O526 1.997 . S
O510 Fe509 2.002 . S
O510 C527 1.295 . S
O511 Fe506 1.997 . S
O511 C527 1.235 . S
O512 Fe506 2.002 . S
O512 C513 1.295 . S
C513 O512 1.295 . S
C513 O515 1.235 . S
C514 O519 1.287 . S
C514 O520 1.255 . S
O515 Fe507 1.997 . S
O515 C513 1.235 . S
C516 O522 1.287 . S
C516 O523 1.255 . S
O517 Fe506 1.976 . S
O517 C524 1.287 . S
O518 Fe507 1.996 . S
O518 C524 1.255 . S
O519 Fe509 1.976 . S
O519 C514 1.287 . S
O520 Fe506 1.996 . S
O520 C514 1.255 . S
C521 O525 1.295 . S
C521 O526 1.235 . S
O522 Fe507 1.976 . S
O522 C516 1.287 . S
O523 Fe509 1.996 . S
O523 C516 1.255 . S
C524 O517 1.287 . S
C524 O518 1.255 . S
O525 Fe507 2.002 . S
O525 C521 1.295 . S
O526 Fe509 1.997 . S
O526 C521 1.235 . S
C527 O510 1.295 . S
C527 O511 1.235 . S
H528 C536 0.929 . S
H529 C538 0.930 . S
H530 C540 0.930 . S
H531 C543 0.929 . S
H532 C546 0.930 . S
H533 C548 0.960 . S
H534 C548 0.960 . S
H535 C548 0.960 . S
C536 H528 0.929 . S
C536 C537 1.377 . S
C536 C538 1.384 . S
C537 C536 1.377 . S
C537 C543 1.390 . S
C538 H529 0.930 . S
C538 C536 1.384 . S
C538 C539 1.372 . S
C539 C538 1.372 . S
C539 C540 1.400 . S
C539 C544 1.490 . S
C540 H530 0.930 . S
C540 C539 1.400 . S
C540 C543 1.386 . S
H541 C557 0.930 . S
H542 C558 0.931 . S
C543 H531 0.929 . S
C543 C537 1.390 . S
C543 C540 1.386 . S
C544 C539 1.490 . S
C544 C546 1.395 . S
C544 C547 1.403 . S
H545 C551 0.930 . S
C546 H532 0.930 . S
C546 C544 1.395 . S
C546 C549 1.403 . S
C547 C544 1.403 . S
C547 C548 1.524 . S
C547 C551 1.400 . S
C548 H533 0.960 . S
C548 H534 0.960 . S
C548 H535 0.960 . S
C548 C547 1.524 . S
C549 C546 1.403 . S
C549 C550 1.392 . S
C549 C553 1.495 . S
C550 C549 1.392 . S
C550 C551 1.385 . S
C550 C552 1.478 . S
C551 H545 0.930 . S
C551 C547 1.400 . S
C551 C550 1.385 . S
C552 C550 1.478 . S
C552 C554 1.381 . S
C552 C558 1.383 . S
C553 C549 1.495 . S
C553 H559 0.959 . S
C553 H560 0.961 . S
C553 H561 0.960 . S
C554 C552 1.381 . S
C554 C555 1.394 . S
C554 H562 0.930 . S
C555 C554 1.394 . S
C555 C556 1.383 . S
C555 H563 0.929 . S
C556 C555 1.383 . S
C556 C557 1.377 . S
C557 H541 0.930 . S
C557 C556 1.377 . S
C557 C558 1.379 . S
C558 H542 0.931 . S
C558 C552 1.383 . S
C558 C557 1.379 . S
H559 C553 0.959 . S
H560 C553 0.961 . S
H561 C553 0.960 . S
H562 C554 0.930 . S
H563 C555 0.929 . S
H564 C572 0.929 . S
H565 C574 0.930 . S
H566 C576 0.930 . S
H567 C579 0.929 . S
H568 C582 0.930 . S
H569 C584 0.960 . S
H570 C584 0.960 . S
H571 C584 0.960 . S
C572 H564 0.929 . S
C572 C573 1.377 . S
C572 C574 1.384 . S
C573 C572 1.377 . S
C573 C579 1.390 . S
C574 H565 0.930 . S
C574 C572 1.384 . S
C574 C575 1.372 . S
C575 C574 1.372 . S
C575 C576 1.400 . S
C575 C580 1.490 . S
C576 H566 0.930 . S
C576 C575 1.400 . S
C576 C579 1.386 . S
H577 C593 0.930 . S
H578 C594 0.931 . S
C579 H567 0.929 . S
C579 C573 1.390 . S
C579 C576 1.386 . S
C580 C575 1.490 . S
C580 C582 1.395 . S
C580 C583 1.403 . S
H581 C587 0.930 . S
C582 H568 0.930 . S
C582 C580 1.395 . S
C582 C585 1.403 . S
C583 C580 1.403 . S
C583 C584 1.524 . S
C583 C587 1.400 . S
C584 H569 0.960 . S
C584 H570 0.960 . S
C584 H571 0.960 . S
C584 C583 1.524 . S
C585 C582 1.403 . S
C585 C586 1.392 . S
C585 C589 1.495 . S
C586 C585 1.392 . S
C586 C587 1.385 . S
C586 C588 1.478 . S
C587 H581 0.930 . S
C587 C583 1.400 . S
C587 C586 1.385 . S
C588 C586 1.478 . S
C588 C590 1.381 . S
C588 C594 1.383 . S
C589 C585 1.495 . S
C589 H595 0.959 . S
C589 H596 0.961 . S
C589 H597 0.960 . S
C590 C588 1.381 . S
C590 C591 1.394 . S
C590 H598 0.930 . S
C591 C590 1.394 . S
C591 C592 1.383 . S
C591 H599 0.929 . S
C592 C591 1.383 . S
C592 C593 1.377 . S
C593 H577 0.930 . S
C593 C592 1.377 . S
C593 C594 1.379 . S
C594 H578 0.931 . S
C594 C588 1.383 . S
C594 C593 1.379 . S
H595 C589 0.959 . S
H596 C589 0.961 . S
H597 C589 0.960 . S
H598 C590 0.930 . S
H599 C591 0.929 . S
H600 C608 0.929 . S
H601 C610 0.930 . S
H602 C612 0.930 . S
H603 C615 0.929 . S
H604 C618 0.930 . S
H605 C620 0.960 . S
H606 C620 0.960 . S
H607 C620 0.960 . S
C608 H600 0.929 . S
C608 C609 1.377 . S
C608 C610 1.384 . S
C609 C608 1.377 . S
C609 C615 1.390 . S
C610 H601 0.930 . S
C610 C608 1.384 . S
C610 C611 1.372 . S
C611 C610 1.372 . S
C611 C612 1.400 . S
C611 C616 1.490 . S
C612 H602 0.930 . S
C612 C611 1.400 . S
C612 C615 1.386 . S
H613 C629 0.930 . S
H614 C630 0.931 . S
C615 H603 0.929 . S
C615 C609 1.390 . S
C615 C612 1.386 . S
C616 C611 1.490 . S
C616 C618 1.395 . S
C616 C619 1.403 . S
H617 C623 0.930 . S
C618 H604 0.930 . S
C618 C616 1.395 . S
C618 C621 1.403 . S
C619 C616 1.403 . S
C619 C620 1.524 . S
C619 C623 1.400 . S
C620 H605 0.960 . S
C620 H606 0.960 . S
C620 H607 0.960 . S
C620 C619 1.524 . S
C621 C618 1.403 . S
C621 C622 1.392 . S
C621 C625 1.461 1_565 S
C622 C621 1.392 . S
C622 C623 1.385 . S
C622 C624 1.472 1_565 S
C623 H617 0.930 . S
C623 C619 1.400 . S
C623 C622 1.385 . S
C624 C622 1.472 1_545 S
C624 C626 1.383 . S
C624 C630 1.387 . S
C625 C621 1.461 1_545 S
C625 H631 0.951 1_545 S
C625 H632 0.999 . S
C625 H633 0.966 . S
C626 C624 1.383 . S
C626 C627 1.394 . S
C626 H634 0.930 1_545 S
C627 C626 1.394 . S
C627 C628 1.383 . S
C627 H635 0.929 . S
C628 C627 1.383 . S
C628 C629 1.377 . S
C629 H613 0.930 . S
C629 C628 1.377 . S
C629 C630 1.379 . S
C630 H614 0.931 . S
C630 C624 1.387 . S
C630 C629 1.379 . S
H631 C625 0.951 1_565 S
H632 C625 0.999 . S
H633 C625 0.966 . S
H634 C626 0.930 1_565 S
H635 C627 0.929 . S
H636 C644 0.929 . S
H637 C646 0.930 . S
H638 C648 0.930 . S
H639 C651 0.929 . S
H640 C654 0.930 . S
H641 C656 0.960 . S
H642 C656 0.960 . S
H643 C656 0.960 . S
C644 H636 0.929 . S
C644 C645 1.377 . S
C644 C646 1.384 1_565 S
C645 C644 1.377 . S
C645 C651 1.390 . S
C646 H637 0.930 . S
C646 C644 1.384 1_545 S
C646 C647 1.372 . S
C647 C646 1.372 . S
C647 C648 1.400 1_545 S
C647 C652 1.490 . S
C648 H638 0.930 . S
C648 C647 1.400 1_565 S
C648 C651 1.386 . S
H649 C665 0.930 . S
H650 C666 0.931 . S
C651 H639 0.929 . S
C651 C645 1.390 . S
C651 C648 1.386 . S
C652 C647 1.490 . S
C652 C654 1.395 . S
C652 C655 1.403 . S
H653 C659 0.930 . S
C654 H640 0.930 . S
C654 C652 1.395 . S
C654 C657 1.403 . S
C655 C652 1.403 . S
C655 C656 1.524 . S
C655 C659 1.400 . S
C656 H641 0.960 . S
C656 H642 0.960 . S
C656 H643 0.960 . S
C656 C655 1.524 . S
C657 C654 1.403 . S
C657 C658 1.392 . S
C657 C661 1.495 . S
C658 C657 1.392 . S
C658 C659 1.385 . S
C658 C660 1.478 . S
C659 H653 0.930 . S
C659 C655 1.400 . S
C659 C658 1.385 . S
C660 C658 1.478 . S
C660 C662 1.381 . S
C660 C666 1.383 . S
C661 C657 1.495 . S
C661 H667 0.959 . S
C661 H668 0.961 . S
C661 H669 0.960 . S
C662 C660 1.381 . S
C662 C663 1.394 . S
C662 H670 0.930 . S
C663 C662 1.394 . S
C663 C664 1.383 . S
C663 H671 0.929 . S
C664 C663 1.383 . S
C664 C665 1.377 . S
C665 H649 0.930 . S
C665 C664 1.377 . S
C665 C666 1.379 . S
C666 H650 0.931 . S
C666 C660 1.383 . S
C666 C665 1.379 . S
H667 C661 0.959 . S
H668 C661 0.961 . S
H669 C661 0.960 . S
H670 C662 0.930 . S
H671 C663 0.929 . S
H672 C680 0.929 . S
H673 C682 0.930 . S
H674 C684 0.930 . S
H675 C687 0.929 . S
H676 C690 0.930 . S
H677 C692 0.960 . S
H678 C692 0.960 . S
H679 C692 0.960 . S
C680 H672 0.929 . S
C680 C681 1.377 . S
C680 C682 1.384 . S
C681 C680 1.377 . S
C681 C687 1.390 . S
C682 H673 0.930 . S
C682 C680 1.384 . S
C682 C683 1.372 . S
C683 C682 1.372 . S
C683 C684 1.400 . S
C683 C688 1.490 . S
C684 H674 0.930 . S
C684 C683 1.400 . S
C684 C687 1.386 . S
H685 C701 0.930 . S
H686 C702 0.931 . S
C687 H675 0.929 . S
C687 C681 1.390 . S
C687 C684 1.386 . S
C688 C683 1.490 . S
C688 C690 1.395 . S
C688 C691 1.403 . S
H689 C695 0.930 . S
C690 H676 0.930 . S
C690 C688 1.395 . S
C690 C693 1.403 . S
C691 C688 1.403 . S
C691 C692 1.524 . S
C691 C695 1.400 . S
C692 H677 0.960 . S
C692 H678 0.960 . S
C692 H679 0.960 . S
C692 C691 1.524 . S
C693 C690 1.403 . S
C693 C694 1.392 . S
C693 C697 1.495 . S
C694 C693 1.392 . S
C694 C695 1.385 . S
C694 C696 1.478 . S
C695 H689 0.930 . S
C695 C691 1.400 . S
C695 C694 1.385 . S
C696 C694 1.478 . S
C696 C698 1.381 . S
C696 C702 1.383 . S
C697 C693 1.495 . S
C697 H703 0.959 . S
C697 H704 0.961 . S
C697 H705 0.960 . S
C698 C696 1.381 . S
C698 C699 1.394 . S
C698 H706 0.930 . S
C699 C698 1.394 . S
C699 C700 1.383 . S
C699 H707 0.929 . S
C700 C699 1.383 . S
C700 C701 1.377 . S
C701 H685 0.930 . S
C701 C700 1.377 . S
C701 C702 1.379 . S
C702 H686 0.931 . S
C702 C696 1.383 . S
C702 C701 1.379 . S
H703 C697 0.959 . S
H704 C697 0.961 . S
H705 C697 0.960 . S
H706 C698 0.930 . S
H707 C699 0.929 . S
H708 C716 0.929 . S
H709 C718 0.930 . S
H710 C720 0.930 . S
H711 C723 0.929 . S
H712 C726 0.930 . S
H713 C728 0.960 . S
H714 C728 0.960 . S
H715 C728 0.960 . S
C716 H708 0.929 . S
C716 C717 1.377 . S
C716 C718 1.384 . S
C717 C716 1.377 . S
C717 C723 1.390 . S
C718 H709 0.930 . S
C718 C716 1.384 . S
C718 C719 1.372 . S
C719 C718 1.372 . S
C719 C720 1.400 . S
C719 C724 1.490 . S
C720 H710 0.930 . S
C720 C719 1.400 . S
C720 C723 1.386 . S
H721 C737 0.930 . S
H722 C738 0.931 . S
C723 H711 0.929 . S
C723 C717 1.390 . S
C723 C720 1.386 . S
C724 C719 1.490 . S
C724 C726 1.395 . S
C724 C727 1.403 . S
H725 C731 0.930 . S
C726 H712 0.930 . S
C726 C724 1.395 . S
C726 C729 1.403 . S
C727 C724 1.403 . S
C727 C728 1.524 . S
C727 C731 1.400 . S
C728 H713 0.960 . S
C728 H714 0.960 . S
C728 H715 0.960 . S
C728 C727 1.524 . S
C729 C726 1.403 . S
C729 C730 1.392 . S
C729 C733 1.495 . S
C730 C729 1.392 . S
C730 C731 1.385 . S
C730 C732 1.478 . S
C731 H725 0.930 . S
C731 C727 1.400 . S
C731 C730 1.385 . S
C732 C730 1.478 . S
C732 C734 1.381 1_554 S
C732 C738 1.383 . S
C733 C729 1.495 . S
C733 H739 0.959 . S
C733 H740 0.961 . S
C733 H741 0.960 1_554 S
C734 C732 1.381 1_556 S
C734 C735 1.394 . S
C734 H742 0.930 . S
C735 C734 1.394 . S
C735 C736 1.383 . S
C735 H743 0.929 . S
C736 C735 1.383 . S
C736 C737 1.377 . S
C737 H721 0.930 . S
C737 C736 1.377 . S
C737 C738 1.379 1_556 S
C738 H722 0.931 . S
C738 C732 1.383 . S
C738 C737 1.379 1_554 S
H739 C733 0.959 . S
H740 C733 0.961 . S
H741 C733 0.960 1_556 S
H742 C734 0.930 . S
H743 C735 0.929 . S
H744 C752 0.929 . S
H745 C754 0.930 . S
H746 C756 0.930 . S
H747 C759 0.929 . S
H748 C762 0.930 . S
H749 C764 0.960 . S
H750 C764 0.960 . S
H751 C764 0.960 . S
C752 H744 0.929 . S
C752 C753 1.377 . S
C752 C754 1.384 . S
C753 C752 1.377 . S
C753 C759 1.390 . S
C754 H745 0.930 . S
C754 C752 1.384 . S
C754 C755 1.372 . S
C755 C754 1.372 . S
C755 C756 1.400 . S
C755 C760 1.490 . S
C756 H746 0.930 . S
C756 C755 1.400 . S
C756 C759 1.386 . S
H757 C773 0.930 . S
H758 C774 0.931 . S
C759 H747 0.929 . S
C759 C753 1.390 . S
C759 C756 1.386 . S
C760 C755 1.490 . S
C760 C762 1.395 . S
C760 C763 1.403 . S
H761 C767 0.930 . S
C762 H748 0.930 . S
C762 C760 1.395 . S
C762 C765 1.403 . S
C763 C760 1.403 . S
C763 C764 1.524 . S
C763 C767 1.400 . S
C764 H749 0.960 . S
C764 H750 0.960 . S
C764 H751 0.960 . S
C764 C763 1.524 . S
C765 C762 1.403 . S
C765 C766 1.392 . S
C765 C769 1.495 . S
C766 C765 1.392 . S
C766 C767 1.385 . S
C766 C768 1.478 . S
C767 H761 0.930 . S
C767 C763 1.400 . S
C767 C766 1.385 . S
C768 C766 1.478 . S
C768 C770 1.381 . S
C768 C774 1.383 . S
C769 C765 1.495 . S
C769 H775 0.959 . S
C769 H776 0.961 . S
C769 H777 0.960 . S
C770 C768 1.381 . S
C770 C771 1.394 . S
C770 H778 0.930 . S
C771 C770 1.394 . S
C771 C772 1.383 . S
C771 H779 0.929 . S
C772 C771 1.383 . S
C772 C773 1.377 . S
C773 H757 0.930 . S
C773 C772 1.377 . S
C773 C774 1.379 . S
C774 H758 0.931 . S
C774 C768 1.383 . S
C774 C773 1.379 . S
H775 C769 0.959 . S
H776 C769 0.961 . S
H777 C769 0.960 . S
H778 C770 0.930 . S
H779 C771 0.929 . S
H780 C788 0.929 . S
H781 C790 0.930 . S
H782 C792 0.930 . S
H783 C795 0.929 . S
H784 C798 0.930 . S
H785 C800 0.960 . S
H786 C800 0.960 . S
H787 C800 0.960 . S
C788 H780 0.929 . S
C788 C789 1.377 . S
C788 C790 1.384 . S
C789 C788 1.377 . S
C789 C795 1.390 . S
C790 H781 0.930 . S
C790 C788 1.384 . S
C790 C791 1.372 . S
C791 C790 1.372 . S
C791 C792 1.400 . S
C791 C796 1.490 . S
C792 H782 0.930 . S
C792 C791 1.400 . S
C792 C795 1.386 . S
H793 C809 0.930 . S
H794 C810 0.931 . S
C795 H783 0.929 . S
C795 C789 1.390 . S
C795 C792 1.386 . S
C796 C791 1.490 . S
C796 C798 1.395 . S
C796 C799 1.403 . S
H797 C803 0.930 . S
C798 H784 0.930 . S
C798 C796 1.395 . S
C798 C801 1.403 . S
C799 C796 1.403 . S
C799 C800 1.524 . S
C799 C803 1.400 . S
C800 H785 0.960 . S
C800 H786 0.960 . S
C800 H787 0.960 . S
C800 C799 1.524 . S
C801 C798 1.403 . S
C801 C802 1.392 . S
C801 C805 1.495 1_556 S
C802 C801 1.392 . S
C802 C803 1.385 . S
C802 C804 1.458 1_556 S
C803 H797 0.930 . S
C803 C799 1.400 . S
C803 C802 1.385 . S
C804 C802 1.458 1_554 S
C804 C806 1.388 . S
C804 C810 1.394 . S
C805 C801 1.495 1_554 S
C805 H811 0.959 . S
C805 H812 0.961 . S
C805 H813 0.960 . S
C806 C804 1.388 . S
C806 C807 1.394 . S
C806 H814 0.934 . S
C807 C806 1.394 . S
C807 C808 1.383 . S
C807 H815 0.929 . S
C808 C807 1.383 . S
C808 C809 1.377 . S
C809 H793 0.930 . S
C809 C808 1.377 . S
C809 C810 1.379 . S
C810 H794 0.931 . S
C810 C804 1.394 . S
C810 C809 1.379 . S
H811 C805 0.959 . S
H812 C805 0.961 . S
H813 C805 0.960 . S
H814 C806 0.934 . S
H815 C807 0.929 . S
H816 C824 0.929 . S
H817 C826 0.930 . S
H818 C828 0.930 . S
H819 C831 0.929 . S
H820 C834 0.930 . S
H821 C836 0.960 . S
H822 C836 0.960 . S
H823 C836 0.960 . S
C824 H816 0.929 . S
C824 C825 1.377 . S
C824 C826 1.384 . S
C825 C824 1.377 . S
C825 C831 1.390 . S
C826 H817 0.930 . S
C826 C824 1.384 . S
C826 C827 1.372 . S
C827 C826 1.372 . S
C827 C828 1.400 . S
C827 C832 1.490 . S
C828 H818 0.930 . S
C828 C827 1.400 . S
C828 C831 1.386 . S
H829 C845 0.930 . S
H830 C846 0.931 . S
C831 H819 0.929 . S
C831 C825 1.390 . S
C831 C828 1.386 . S
C832 C827 1.490 . S
C832 C834 1.395 . S
C832 C835 1.403 . S
H833 C839 0.930 . S
C834 H820 0.930 . S
C834 C832 1.395 . S
C834 C837 1.403 . S
C835 C832 1.403 . S
C835 C836 1.524 . S
C835 C839 1.400 . S
C836 H821 0.960 . S
C836 H822 0.960 . S
C836 H823 0.960 . S
C836 C835 1.524 . S
C837 C834 1.403 . S
C837 C838 1.392 . S
C837 C841 1.495 . S
C838 C837 1.392 . S
C838 C839 1.385 . S
C838 C840 1.478 . S
C839 H833 0.930 . S
C839 C835 1.400 . S
C839 C838 1.385 . S
C840 C838 1.478 . S
C840 C842 1.381 . S
C840 C846 1.383 . S
C841 C837 1.495 . S
C841 H847 0.959 . S
C841 H848 0.961 . S
C841 H849 0.960 . S
C842 C840 1.381 . S
C842 C843 1.394 . S
C842 H850 0.930 . S
C843 C842 1.394 . S
C843 C844 1.383 . S
C843 H851 0.929 . S
C844 C843 1.383 . S
C844 C845 1.377 . S
C845 H829 0.930 . S
C845 C844 1.377 . S
C845 C846 1.379 . S
C846 H830 0.931 . S
C846 C840 1.383 . S
C846 C845 1.379 . S
H847 C841 0.959 . S
H848 C841 0.961 . S
H849 C841 0.960 . S
H850 C842 0.930 . S
H851 C843 0.929 . S
H852 C860 0.929 . S
H853 C862 0.940 . S
H854 C864 0.939 . S
H855 C867 0.929 . S
H856 C870 0.930 . S
H857 C872 0.960 . S
H858 C872 0.960 . S
H859 C872 0.960 . S
C860 H852 0.929 . S
C860 C861 1.377 . S
C860 C862 1.384 . S
C861 C860 1.377 . S
C861 C867 1.390 . S
C862 H853 0.940 . S
C862 C860 1.384 . S
C862 C863 1.372 1_655 S
C863 C862 1.372 1_455 S
C863 C864 1.400 1_455 S
C863 C868 1.490 . S
C864 H854 0.939 . S
C864 C863 1.400 1_655 S
C864 C867 1.386 . S
H865 C881 0.930 . S
H866 C882 0.931 . S
C867 H855 0.929 . S
C867 C861 1.390 . S
C867 C864 1.386 . S
C868 C863 1.490 . S
C868 C870 1.395 . S
C868 C871 1.403 . S
H869 C875 0.930 . S
C870 H856 0.930 . S
C870 C868 1.395 . S
C870 C873 1.403 . S
C871 C868 1.403 . S
C871 C872 1.524 . S
C871 C875 1.400 . S
C872 H857 0.960 . S
C872 H858 0.960 . S
C872 H859 0.960 . S
C872 C871 1.524 . S
C873 C870 1.403 . S
C873 C874 1.392 . S
C873 C877 1.495 . S
C874 C873 1.392 . S
C874 C875 1.385 . S
C874 C876 1.478 . S
C875 H869 0.930 . S
C875 C871 1.400 . S
C875 C874 1.385 . S
C876 C874 1.478 . S
C876 C878 1.381 . S
C876 C882 1.383 . S
C877 C873 1.495 . S
C877 H883 0.959 . S
C877 H884 0.961 . S
C877 H885 0.960 . S
C878 C876 1.381 . S
C878 C879 1.394 . S
C878 H886 0.930 . S
C879 C878 1.394 . S
C879 C880 1.383 . S
C879 H887 0.929 . S
C880 C879 1.383 . S
C880 C881 1.377 . S
C881 H865 0.930 . S
C881 C880 1.377 . S
C881 C882 1.379 . S
C882 H866 0.931 . S
C882 C876 1.383 . S
C882 C881 1.379 . S
H883 C877 0.959 . S
H884 C877 0.961 . S
H885 C877 0.960 . S
H886 C878 0.930 . S
H887 C879 0.929 . S
H888 C896 0.929 . S
H889 C898 0.930 . S
H890 C900 0.930 . S
H891 C903 0.929 . S
H892 C906 0.930 . S
H893 C908 0.960 . S
H894 C908 0.960 . S
H895 C908 0.960 . S
C896 H888 0.929 . S
C896 C897 1.377 . S
C896 C898 1.384 . S
C897 C896 1.377 . S
C897 C903 1.390 . S
C898 H889 0.930 . S
C898 C896 1.384 . S
C898 C899 1.372 . S
C899 C898 1.372 . S
C899 C900 1.400 . S
C899 C904 1.490 . S
C900 H890 0.930 . S
C900 C899 1.400 . S
C900 C903 1.386 . S
H901 C917 0.930 . S
H902 C918 0.931 . S
C903 H891 0.929 . S
C903 C897 1.390 . S
C903 C900 1.386 . S
C904 C899 1.490 . S
C904 C906 1.395 . S
C904 C907 1.403 . S
H905 C911 0.930 . S
C906 H892 0.930 . S
C906 C904 1.395 . S
C906 C909 1.403 . S
C907 C904 1.403 . S
C907 C908 1.524 . S
C907 C911 1.400 . S
C908 H893 0.960 . S
C908 H894 0.960 . S
C908 H895 0.960 . S
C908 C907 1.524 . S
C909 C906 1.403 . S
C909 C910 1.392 . S
C909 C913 1.495 . S
C910 C909 1.392 . S
C910 C911 1.385 . S
C910 C912 1.478 . S
C911 H905 0.930 . S
C911 C907 1.400 . S
C911 C910 1.385 . S
C912 C910 1.478 . S
C912 C914 1.381 . S
C912 C918 1.383 . S
C913 C909 1.495 . S
C913 H919 0.959 . S
C913 H920 0.961 . S
C913 H921 0.960 . S
C914 C912 1.381 . S
C914 C915 1.394 . S
C914 H922 0.930 . S
C915 C914 1.394 . S
C915 C916 1.383 . S
C915 H923 0.929 . S
C916 C915 1.383 . S
C916 C917 1.377 . S
C917 H901 0.930 . S
C917 C916 1.377 . S
C917 C918 1.379 . S
C918 H902 0.931 . S
C918 C912 1.383 . S
C918 C917 1.379 . S
H919 C913 0.959 . S
H920 C913 0.961 . S
H921 C913 0.960 . S
H922 C914 0.930 . S
H923 C915 0.929 . S
H924 C932 0.929 . S
H925 C934 0.930 . S
H926 C936 0.930 . S
H927 C939 0.929 . S
H928 C942 0.930 . S
H929 C944 0.960 . S
H930 C944 0.960 . S
H931 C944 0.960 . S
C932 H924 0.929 . S
C932 C933 1.377 . S
C932 C934 1.384 . S
C933 C932 1.377 . S
C933 C939 1.390 . S
C934 H925 0.930 . S
C934 C932 1.384 . S
C934 C935 1.372 . S
C935 C934 1.372 . S
C935 C936 1.400 . S
C935 C940 1.490 . S
C936 H926 0.930 . S
C936 C935 1.400 . S
C936 C939 1.386 . S
H937 C953 0.930 . S
H938 C954 0.931 1_655 S
C939 H927 0.929 . S
C939 C933 1.390 . S
C939 C936 1.386 . S
C940 C935 1.490 . S
C940 C942 1.395 . S
C940 C943 1.403 . S
H941 C947 0.930 . S
C942 H928 0.930 . S
C942 C940 1.395 . S
C942 C945 1.403 . S
C943 C940 1.403 . S
C943 C944 1.524 . S
C943 C947 1.400 . S
C944 H929 0.960 . S
C944 H930 0.960 . S
C944 H931 0.960 . S
C944 C943 1.524 . S
C945 C942 1.403 . S
C945 C946 1.392 . S
C945 C949 1.495 1_655 S
C946 C945 1.392 . S
C946 C947 1.385 . S
C946 C948 1.478 1_655 S
C947 H941 0.930 . S
C947 C943 1.400 . S
C947 C946 1.385 . S
C948 C946 1.478 1_455 S
C948 C950 1.381 . S
C948 C954 1.383 . S
C949 C945 1.495 1_455 S
C949 H955 0.959 . S
C949 H956 0.961 . S
C949 H957 0.960 . S
C950 C948 1.381 . S
C950 C951 1.394 . S
C950 H958 0.930 . S
C951 C950 1.394 . S
C951 C952 1.383 . S
C951 H959 0.929 . S
C952 C951 1.383 . S
C952 C953 1.377 . S
C953 H937 0.930 . S
C953 C952 1.377 . S
C953 C954 1.379 . S
C954 H938 0.931 1_455 S
C954 C948 1.383 . S
C954 C953 1.379 . S
H955 C949 0.959 . S
H956 C949 0.961 . S
H957 C949 0.960 . S
H958 C950 0.930 . S
H959 C951 0.929 . S
H960 C968 0.929 . S
H961 C970 0.930 . S
H962 C972 0.930 . S
H963 C975 0.929 . S
H964 C978 0.930 . S
H965 C980 0.960 . S
H966 C980 0.960 . S
H967 C980 0.960 . S
C968 H960 0.929 . S
C968 C969 1.377 . S
C968 C970 1.384 . S
C969 C968 1.377 . S
C969 C975 1.390 . S
C970 H961 0.930 . S
C970 C968 1.384 . S
C970 C971 1.372 . S
C971 C970 1.372 . S
C971 C972 1.400 . S
C971 C976 1.490 . S
C972 H962 0.930 . S
C972 C971 1.400 . S
C972 C975 1.386 . S
H973 C989 0.930 . S
H974 C990 0.931 . S
C975 H963 0.929 . S
C975 C969 1.390 . S
C975 C972 1.386 . S
C976 C971 1.490 . S
C976 C978 1.395 . S
C976 C979 1.403 . S
H977 C983 0.930 . S
C978 H964 0.930 . S
C978 C976 1.395 . S
C978 C981 1.403 . S
C979 C976 1.403 . S
C979 C980 1.524 . S
C979 C983 1.400 . S
C980 H965 0.960 . S
C980 H966 0.960 . S
C980 H967 0.960 . S
C980 C979 1.524 . S
C981 C978 1.403 . S
C981 C982 1.392 . S
C981 C985 1.495 . S
C982 C981 1.392 . S
C982 C983 1.385 . S
C982 C984 1.478 . S
C983 H977 0.930 . S
C983 C979 1.400 . S
C983 C982 1.385 . S
C984 C982 1.478 . S
C984 C986 1.381 . S
C984 C990 1.383 . S
C985 C981 1.495 . S
C985 H991 0.959 . S
C985 H992 0.961 . S
C985 H993 0.960 . S
C986 C984 1.381 . S
C986 C987 1.394 . S
C986 H994 0.930 . S
C987 C986 1.394 . S
C987 C988 1.383 . S
C987 H995 0.929 . S
C988 C987 1.383 . S
C988 C989 1.377 . S
C989 H973 0.930 . S
C989 C988 1.377 . S
C989 C990 1.379 . S
C990 H974 0.931 . S
C990 C984 1.383 . S
C990 C989 1.379 . S
H991 C985 0.959 . S
H992 C985 0.961 . S
H993 C985 0.960 . S
H994 C986 0.930 . S
H995 C987 0.929 . S
H996 C1004 0.929 . S
H997 C1006 0.930 . S
H998 C1008 0.930 . S
H999 C1011 0.929 . S
H1000 C1014 0.930 . S
H1001 C1016 0.960 . S
H1002 C1016 0.960 . S
H1003 C1016 0.960 . S
C1004 H996 0.929 . S
C1004 C1005 1.377 . S
C1004 C1006 1.384 . S
C1005 C1004 1.377 . S
C1005 C1011 1.390 . S
C1006 H997 0.930 . S
C1006 C1004 1.384 . S
C1006 C1007 1.372 . S
C1007 C1006 1.372 . S
C1007 C1008 1.400 . S
C1007 C1012 1.490 . S
C1008 H998 0.930 . S
C1008 C1007 1.400 . S
C1008 C1011 1.386 . S
H1009 C1025 0.930 . S
H1010 C1026 0.931 . S
C1011 H999 0.929 . S
C1011 C1005 1.390 . S
C1011 C1008 1.386 . S
C1012 C1007 1.490 . S
C1012 C1014 1.395 . S
C1012 C1015 1.403 . S
H1013 C1019 0.930 . S
C1014 H1000 0.930 . S
C1014 C1012 1.395 . S
C1014 C1017 1.403 . S
C1015 C1012 1.403 . S
C1015 C1016 1.524 . S
C1015 C1019 1.400 . S
C1016 H1001 0.960 . S
C1016 H1002 0.960 . S
C1016 H1003 0.960 . S
C1016 C1015 1.524 . S
C1017 C1014 1.403 . S
C1017 C1018 1.392 . S
C1017 C1021 1.495 . S
C1018 C1017 1.392 . S
C1018 C1019 1.385 . S
C1018 C1020 1.478 . S
C1019 H1013 0.930 . S
C1019 C1015 1.400 . S
C1019 C1018 1.385 . S
C1020 C1018 1.478 . S
C1020 C1022 1.381 . S
C1020 C1026 1.383 . S
C1021 C1017 1.495 . S
C1021 H1027 0.959 . S
C1021 H1028 0.961 . S
C1021 H1029 0.960 . S
C1022 C1020 1.381 . S
C1022 C1023 1.394 . S
C1022 H1030 0.930 . S
C1023 C1022 1.394 . S
C1023 C1024 1.383 . S
C1023 H1031 0.929 . S
C1024 C1023 1.383 . S
C1024 C1025 1.377 . S
C1025 H1009 0.930 . S
C1025 C1024 1.377 . S
C1025 C1026 1.379 . S
C1026 H1010 0.931 . S
C1026 C1020 1.383 . S
C1026 C1025 1.379 . S
H1027 C1021 0.959 . S
H1028 C1021 0.961 . S
H1029 C1021 0.960 . S
H1030 C1022 0.930 . S
H1031 C1023 0.929 . S
H1032 C1040 0.929 . S
H1033 C1042 0.930 . S
H1034 C1044 0.930 . S
H1035 C1047 0.929 . S
H1036 C1050 0.930 . S
H1037 C1052 0.960 . S
H1038 C1052 0.960 . S
H1039 C1052 0.960 . S
C1040 H1032 0.929 . S
C1040 C1041 1.377 . S
C1040 C1042 1.384 . S
C1041 C1040 1.377 . S
C1041 C1047 1.390 . S
C1042 H1033 0.930 . S
C1042 C1040 1.384 . S
C1042 C1043 1.372 . S
C1043 C1042 1.372 . S
C1043 C1044 1.400 . S
C1043 C1048 1.490 . S
C1044 H1034 0.930 . S
C1044 C1043 1.400 . S
C1044 C1047 1.386 . S
H1045 C1061 0.930 . S
H1046 C1062 0.931 . S
C1047 H1035 0.929 . S
C1047 C1041 1.390 . S
C1047 C1044 1.386 . S
C1048 C1043 1.490 . S
C1048 C1050 1.395 . S
C1048 C1051 1.403 . S
H1049 C1055 0.930 . S
C1050 H1036 0.930 . S
C1050 C1048 1.395 . S
C1050 C1053 1.403 . S
C1051 C1048 1.403 . S
C1051 C1052 1.524 . S
C1051 C1055 1.400 . S
C1052 H1037 0.960 . S
C1052 H1038 0.960 . S
C1052 H1039 0.960 . S
C1052 C1051 1.524 . S
C1053 C1050 1.403 . S
C1053 C1054 1.392 . S
C1053 C1057 1.495 . S
C1054 C1053 1.392 . S
C1054 C1055 1.385 . S
C1054 C1056 1.478 . S
C1055 H1049 0.930 . S
C1055 C1051 1.400 . S
C1055 C1054 1.385 . S
C1056 C1054 1.478 . S
C1056 C1058 1.381 . S
C1056 C1062 1.383 1_545 S
C1057 C1053 1.495 . S
C1057 H1063 0.959 . S
C1057 H1064 0.961 1_545 S
C1057 H1065 0.960 . S
C1058 C1056 1.381 . S
C1058 C1059 1.394 1_545 S
C1058 H1066 0.930 . S
C1059 C1058 1.394 1_565 S
C1059 C1060 1.383 . S
C1059 H1067 0.929 . S
C1060 C1059 1.383 . S
C1060 C1061 1.377 . S
C1061 H1045 0.930 . S
C1061 C1060 1.377 . S
C1061 C1062 1.379 . S
C1062 H1046 0.931 . S
C1062 C1056 1.383 1_565 S
C1062 C1061 1.379 . S
H1063 C1057 0.959 . S
H1064 C1057 0.961 1_565 S
H1065 C1057 0.960 . S
H1066 C1058 0.930 . S
H1067 C1059 0.929 . S
H1068 C1076 0.929 . S
H1069 C1078 0.930 . S
H1070 C1080 0.930 . S
H1071 C1083 0.929 . S
H1072 C1086 0.930 . S
H1073 C1088 0.960 . S
H1074 C1088 0.960 . S
H1075 C1088 0.960 . S
C1076 H1068 0.929 . S
C1076 C1077 1.377 . S
C1076 C1078 1.384 . S
C1077 C1076 1.377 . S
C1077 C1083 1.390 . S
C1078 H1069 0.930 . S
C1078 C1076 1.384 . S
C1078 C1079 1.372 . S
C1079 C1078 1.372 . S
C1079 C1080 1.400 . S
C1079 C1084 1.490 . S
C1080 H1070 0.930 . S
C1080 C1079 1.400 . S
C1080 C1083 1.386 . S
H1081 C1097 0.930 . S
H1082 C1098 0.931 . S
C1083 H1071 0.929 . S
C1083 C1077 1.390 . S
C1083 C1080 1.386 . S
C1084 C1079 1.490 . S
C1084 C1086 1.395 . S
C1084 C1087 1.403 . S
H1085 C1091 0.930 . S
C1086 H1072 0.930 . S
C1086 C1084 1.395 . S
C1086 C1089 1.403 . S
C1087 C1084 1.403 . S
C1087 C1088 1.524 . S
C1087 C1091 1.400 . S
C1088 H1073 0.960 . S
C1088 H1074 0.960 . S
C1088 H1075 0.960 . S
C1088 C1087 1.524 . S
C1089 C1086 1.403 . S
C1089 C1090 1.392 . S
C1089 C1093 1.495 . S
C1090 C1089 1.392 . S
C1090 C1091 1.385 . S
C1090 C1092 1.478 . S
C1091 H1085 0.930 . S
C1091 C1087 1.400 . S
C1091 C1090 1.385 . S
C1092 C1090 1.478 . S
C1092 C1094 1.380 1_565 S
C1092 C1098 1.383 . S
C1093 C1089 1.495 . S
C1093 H1099 0.959 . S
C1093 H1100 0.961 . S
C1093 H1101 0.960 1_565 S
C1094 C1092 1.380 1_545 S
C1094 C1095 1.394 . S
C1094 H1102 0.930 . S
C1095 C1094 1.394 . S
C1095 C1096 1.383 . S
C1095 H1103 0.929 . S
C1096 C1095 1.383 . S
C1096 C1097 1.377 . S
C1097 H1081 0.930 . S
C1097 C1096 1.377 . S
C1097 C1098 1.379 1_545 S
C1098 H1082 0.931 . S
C1098 C1092 1.383 . S
C1098 C1097 1.379 1_565 S
H1099 C1093 0.959 . S
H1100 C1093 0.961 . S
H1101 C1093 0.960 1_545 S
H1102 C1094 0.930 . S
H1103 C1095 0.929 . S
H1104 C1112 0.929 . S
H1105 C1114 0.930 . S
H1106 C1116 0.930 . S
H1107 C1119 0.929 . S
H1108 C1122 0.930 . S
H1109 C1124 0.960 . S
H1110 C1124 0.960 . S
H1111 C1124 0.960 . S
C1112 H1104 0.929 . S
C1112 C1113 1.377 . S
C1112 C1114 1.384 . S
C1113 C1112 1.377 . S
C1113 C1119 1.390 . S
C1114 H1105 0.930 . S
C1114 C1112 1.384 . S
C1114 C1115 1.372 . S
C1115 C1114 1.372 . S
C1115 C1116 1.400 . S
C1115 C1120 1.490 . S
C1116 H1106 0.930 . S
C1116 C1115 1.400 . S
C1116 C1119 1.386 . S
H1117 C1133 0.930 . S
H1118 C1134 0.931 . S
C1119 H1107 0.929 . S
C1119 C1113 1.390 . S
C1119 C1116 1.386 . S
C1120 C1115 1.490 . S
C1120 C1122 1.395 . S
C1120 C1123 1.403 . S
H1121 C1127 0.930 . S
C1122 H1108 0.930 . S
C1122 C1120 1.395 . S
C1122 C1125 1.403 . S
C1123 C1120 1.403 . S
C1123 C1124 1.524 . S
C1123 C1127 1.400 . S
C1124 H1109 0.960 . S
C1124 H1110 0.960 . S
C1124 H1111 0.960 . S
C1124 C1123 1.524 . S
C1125 C1122 1.403 . S
C1125 C1126 1.392 . S
C1125 C1129 1.495 . S
C1126 C1125 1.392 . S
C1126 C1127 1.385 . S
C1126 C1128 1.478 . S
C1127 H1121 0.930 . S
C1127 C1123 1.400 . S
C1127 C1126 1.385 . S
C1128 C1126 1.478 . S
C1128 C1130 1.381 . S
C1128 C1134 1.383 . S
C1129 C1125 1.495 . S
C1129 H1135 0.959 . S
C1129 H1136 0.961 . S
C1129 H1137 0.960 . S
C1130 C1128 1.381 . S
C1130 C1131 1.394 . S
C1130 H1138 0.930 . S
C1131 C1130 1.394 . S
C1131 C1132 1.383 . S
C1131 H1139 0.929 . S
C1132 C1131 1.383 . S
C1132 C1133 1.377 . S
C1133 H1117 0.930 . S
C1133 C1132 1.377 . S
C1133 C1134 1.379 . S
C1134 H1118 0.931 . S
C1134 C1128 1.383 . S
C1134 C1133 1.379 . S
H1135 C1129 0.959 . S
H1136 C1129 0.961 . S
H1137 C1129 0.960 . S
H1138 C1130 0.930 . S
H1139 C1131 0.929 . S
H1140 C1148 0.929 . S
H1141 C1150 0.930 . S
H1142 C1152 0.930 . S
H1143 C1155 0.929 . S
H1144 C1158 0.930 . S
H1145 C1160 0.960 . S
H1146 C1160 0.960 . S
H1147 C1160 0.960 . S
C1148 H1140 0.929 . S
C1148 C1149 1.377 . S
C1148 C1150 1.384 . S
C1149 C1148 1.377 . S
C1149 C1155 1.390 . S
C1150 H1141 0.930 . S
C1150 C1148 1.384 . S
C1150 C1151 1.372 . S
C1151 C1150 1.372 . S
C1151 C1152 1.400 . S
C1151 C1156 1.490 . S
C1152 H1142 0.930 . S
C1152 C1151 1.400 . S
C1152 C1155 1.386 . S
H1153 C1169 0.930 . S
H1154 C1170 0.931 1_556 S
C1155 H1143 0.929 . S
C1155 C1149 1.390 . S
C1155 C1152 1.386 . S
C1156 C1151 1.490 . S
C1156 C1158 1.395 . S
C1156 C1159 1.403 . S
H1157 C1163 0.930 . S
C1158 H1144 0.930 . S
C1158 C1156 1.395 . S
C1158 C1161 1.403 . S
C1159 C1156 1.403 . S
C1159 C1160 1.524 . S
C1159 C1163 1.400 . S
C1160 H1145 0.960 . S
C1160 H1146 0.960 . S
C1160 H1147 0.960 . S
C1160 C1159 1.524 . S
C1161 C1158 1.403 . S
C1161 C1162 1.392 . S
C1161 C1165 1.495 1_556 S
C1162 C1161 1.392 . S
C1162 C1163 1.385 . S
C1162 C1164 1.478 1_556 S
C1163 H1157 0.930 . S
C1163 C1159 1.400 . S
C1163 C1162 1.385 . S
C1164 C1162 1.478 1_554 S
C1164 C1166 1.381 . S
C1164 C1170 1.383 . S
C1165 C1161 1.495 1_554 S
C1165 H1171 0.959 . S
C1165 H1172 0.961 . S
C1165 H1173 0.960 . S
C1166 C1164 1.381 . S
C1166 C1167 1.394 . S
C1166 H1174 0.930 . S
C1167 C1166 1.394 . S
C1167 C1168 1.383 . S
C1167 H1175 0.929 . S
C1168 C1167 1.383 . S
C1168 C1169 1.377 . S
C1169 H1153 0.930 . S
C1169 C1168 1.377 . S
C1169 C1170 1.379 . S
C1170 H1154 0.931 1_554 S
C1170 C1164 1.383 . S
C1170 C1169 1.379 . S
H1171 C1165 0.959 . S
H1172 C1165 0.961 . S
H1173 C1165 0.960 . S
H1174 C1166 0.930 . S
H1175 C1167 0.929 . S
H1176 C1184 0.929 . S
H1177 C1186 0.930 . S
H1178 C1188 0.930 . S
H1179 C1191 0.929 . S
H1180 C1194 0.930 . S
H1181 C1196 0.960 . S
H1182 C1196 0.960 . S
H1183 C1196 0.960 . S
C1184 H1176 0.929 . S
C1184 C1185 1.377 . S
C1184 C1186 1.384 . S
C1185 C1184 1.377 . S
C1185 C1191 1.390 . S
C1186 H1177 0.930 . S
C1186 C1184 1.384 . S
C1186 C1187 1.372 . S
C1187 C1186 1.372 . S
C1187 C1188 1.400 . S
C1187 C1192 1.490 . S
C1188 H1178 0.930 . S
C1188 C1187 1.400 . S
C1188 C1191 1.386 . S
H1189 C1205 0.930 . S
H1190 C1206 0.931 . S
C1191 H1179 0.929 . S
C1191 C1185 1.390 . S
C1191 C1188 1.386 . S
C1192 C1187 1.490 . S
C1192 C1194 1.395 . S
C1192 C1195 1.403 . S
H1193 C1199 0.930 . S
C1194 H1180 0.930 . S
C1194 C1192 1.395 . S
C1194 C1197 1.403 . S
C1195 C1192 1.403 . S
C1195 C1196 1.524 . S
C1195 C1199 1.400 . S
C1196 H1181 0.960 . S
C1196 H1182 0.960 . S
C1196 H1183 0.960 . S
C1196 C1195 1.524 . S
C1197 C1194 1.403 . S
C1197 C1198 1.392 . S
C1197 C1201 1.495 . S
C1198 C1197 1.392 . S
C1198 C1199 1.385 . S
C1198 C1200 1.478 . S
C1199 H1193 0.930 . S
C1199 C1195 1.400 . S
C1199 C1198 1.385 . S
C1200 C1198 1.478 . S
C1200 C1202 1.381 . S
C1200 C1206 1.383 . S
C1201 C1197 1.495 . S
C1201 H1207 0.959 . S
C1201 H1208 0.961 . S
C1201 H1209 0.960 . S
C1202 C1200 1.381 . S
C1202 C1203 1.394 . S
C1202 H1210 0.930 . S
C1203 C1202 1.394 . S
C1203 C1204 1.383 . S
C1203 H1211 0.929 . S
C1204 C1203 1.383 . S
C1204 C1205 1.377 . S
C1205 H1189 0.930 . S
C1205 C1204 1.377 . S
C1205 C1206 1.379 . S
C1206 H1190 0.931 . S
C1206 C1200 1.383 . S
C1206 C1205 1.379 . S
H1207 C1201 0.959 . S
H1208 C1201 0.961 . S
H1209 C1201 0.960 . S
H1210 C1202 0.930 . S
H1211 C1203 0.929 . S
H1212 C1220 0.929 . S
H1213 C1222 0.930 . S
H1214 C1224 0.930 . S
H1215 C1227 0.929 . S
H1216 C1230 0.930 . S
H1217 C1232 0.960 . S
H1218 C1232 0.960 . S
H1219 C1232 0.960 . S
C1220 H1212 0.929 . S
C1220 C1221 1.377 . S
C1220 C1222 1.384 . S
C1221 C1220 1.377 . S
C1221 C1227 1.390 . S
C1222 H1213 0.930 . S
C1222 C1220 1.384 . S
C1222 C1223 1.372 1_556 S
C1223 C1222 1.372 1_554 S
C1223 C1224 1.400 . S
C1223 C1228 1.490 . S
C1224 H1214 0.930 . S
C1224 C1223 1.400 . S
C1224 C1227 1.386 1_554 S
H1225 C1241 0.930 . S
H1226 C1242 0.931 . S
C1227 H1215 0.929 . S
C1227 C1221 1.390 . S
C1227 C1224 1.386 1_556 S
C1228 C1223 1.490 . S
C1228 C1230 1.395 . S
C1228 C1231 1.403 . S
H1229 C1235 0.930 . S
C1230 H1216 0.930 . S
C1230 C1228 1.395 . S
C1230 C1233 1.403 . S
C1231 C1228 1.403 . S
C1231 C1232 1.524 . S
C1231 C1235 1.400 . S
C1232 H1217 0.960 . S
C1232 H1218 0.960 . S
C1232 H1219 0.960 . S
C1232 C1231 1.524 . S
C1233 C1230 1.403 . S
C1233 C1234 1.392 . S
C1233 C1237 1.495 . S
C1234 C1233 1.392 . S
C1234 C1235 1.385 . S
C1234 C1236 1.478 . S
C1235 H1229 0.930 . S
C1235 C1231 1.400 . S
C1235 C1234 1.385 . S
C1236 C1234 1.478 . S
C1236 C1238 1.381 . S
C1236 C1242 1.383 . S
C1237 C1233 1.495 . S
C1237 H1243 0.959 . S
C1237 H1244 0.961 . S
C1237 H1245 0.960 . S
C1238 C1236 1.381 . S
C1238 C1239 1.394 . S
C1238 H1246 0.930 . S
C1239 C1238 1.394 . S
C1239 C1240 1.383 . S
C1239 H1247 0.929 . S
C1240 C1239 1.383 . S
C1240 C1241 1.377 . S
C1241 H1225 0.930 . S
C1241 C1240 1.377 . S
C1241 C1242 1.379 . S
C1242 H1226 0.931 . S
C1242 C1236 1.383 . S
C1242 C1241 1.379 . S
H1243 C1237 0.959 . S
H1244 C1237 0.961 . S
H1245 C1237 0.960 . S
H1246 C1238 0.930 . S
H1247 C1239 0.929 . S
H1248 C1256 0.929 . S
H1249 C1258 0.930 . S
H1250 C1260 0.930 . S
H1251 C1263 0.929 . S
H1252 C1266 0.930 . S
H1253 C1268 0.960 . S
H1254 C1268 0.960 . S
H1255 C1268 0.960 . S
C1256 H1248 0.929 . S
C1256 C1257 1.377 . S
C1256 C1258 1.384 . S
C1257 C1256 1.377 . S
C1257 C1263 1.390 . S
C1258 H1249 0.930 . S
C1258 C1256 1.384 . S
C1258 C1259 1.372 . S
C1259 C1258 1.372 . S
C1259 C1260 1.400 . S
C1259 C1264 1.490 . S
C1260 H1250 0.930 . S
C1260 C1259 1.400 . S
C1260 C1263 1.386 . S
H1261 C1277 0.930 . S
H1262 C1278 0.931 . S
C1263 H1251 0.929 . S
C1263 C1257 1.390 . S
C1263 C1260 1.386 . S
C1264 C1259 1.490 . S
C1264 C1266 1.395 . S
C1264 C1267 1.403 . S
H1265 C1271 0.930 . S
C1266 H1252 0.930 . S
C1266 C1264 1.395 . S
C1266 C1269 1.403 . S
C1267 C1264 1.403 . S
C1267 C1268 1.524 . S
C1267 C1271 1.400 . S
C1268 H1253 0.960 . S
C1268 H1254 0.960 . S
C1268 H1255 0.960 . S
C1268 C1267 1.524 . S
C1269 C1266 1.403 . S
C1269 C1270 1.392 . S
C1269 C1273 1.495 . S
C1270 C1269 1.392 . S
C1270 C1271 1.385 . S
C1270 C1272 1.478 . S
C1271 H1265 0.930 . S
C1271 C1267 1.400 . S
C1271 C1270 1.385 . S
C1272 C1270 1.478 . S
C1272 C1274 1.381 . S
C1272 C1278 1.383 . S
C1273 C1269 1.495 . S
C1273 H1279 0.959 . S
C1273 H1280 0.961 . S
C1273 H1281 0.960 . S
C1274 C1272 1.381 . S
C1274 C1275 1.394 . S
C1274 H1282 0.930 . S
C1275 C1274 1.394 . S
C1275 C1276 1.383 . S
C1275 H1283 0.929 . S
C1276 C1275 1.383 . S
C1276 C1277 1.377 . S
C1277 H1261 0.930 . S
C1277 C1276 1.377 . S
C1277 C1278 1.379 . S
C1278 H1262 0.931 . S
C1278 C1272 1.383 . S
C1278 C1277 1.379 . S
H1279 C1273 0.959 . S
H1280 C1273 0.961 . S
H1281 C1273 0.960 . S
H1282 C1274 0.930 . S
H1283 C1275 0.929 . S
H1284 C1292 0.929 . S
H1285 C1294 0.930 . S
H1286 C1296 0.938 . S
H1287 C1299 0.929 . S
H1288 C1302 0.930 . S
H1289 C1304 0.958 1_655 S
H1290 C1304 0.960 . S
H1291 C1304 0.960 . S
C1292 H1284 0.929 . S
C1292 C1293 1.377 . S
C1292 C1294 1.384 . S
C1293 C1292 1.377 . S
C1293 C1299 1.390 . S
C1294 H1285 0.930 . S
C1294 C1292 1.384 . S
C1294 C1295 1.372 1_455 S
C1295 C1294 1.372 1_655 S
C1295 C1296 1.400 1_655 S
C1295 C1300 1.490 . S
C1296 H1286 0.938 . S
C1296 C1295 1.400 1_455 S
C1296 C1299 1.386 . S
H1297 C1313 0.930 . S
H1298 C1314 0.931 . S
C1299 H1287 0.929 . S
C1299 C1293 1.390 . S
C1299 C1296 1.386 . S
C1300 C1295 1.490 . S
C1300 C1302 1.395 . S
C1300 C1303 1.403 . S
H1301 C1307 0.930 . S
C1302 H1288 0.930 . S
C1302 C1300 1.395 . S
C1302 C1305 1.403 . S
C1303 C1300 1.403 . S
C1303 C1304 1.524 1_655 S
C1303 C1307 1.400 . S
C1304 H1289 0.958 1_455 S
C1304 H1290 0.960 . S
C1304 H1291 0.960 . S
C1304 C1303 1.524 1_455 S
C1305 C1302 1.403 . S
C1305 C1306 1.392 . S
C1305 C1309 1.495 . S
C1306 C1305 1.392 . S
C1306 C1307 1.385 . S
C1306 C1308 1.478 . S
C1307 H1301 0.930 . S
C1307 C1303 1.400 . S
C1307 C1306 1.385 . S
C1308 C1306 1.478 . S
C1308 C1310 1.381 . S
C1308 C1314 1.383 . S
C1309 C1305 1.495 . S
C1309 H1315 0.959 . S
C1309 H1316 0.961 . S
C1309 H1317 0.960 . S
C1310 C1308 1.381 . S
C1310 C1311 1.394 . S
C1310 H1318 0.930 . S
C1311 C1310 1.394 . S
C1311 C1312 1.383 . S
C1311 H1319 0.929 . S
C1312 C1311 1.383 . S
C1312 C1313 1.377 . S
C1313 H1297 0.930 . S
C1313 C1312 1.377 . S
C1313 C1314 1.379 . S
C1314 H1298 0.931 . S
C1314 C1308 1.383 . S
C1314 C1313 1.379 . S
H1315 C1309 0.959 . S
H1316 C1309 0.961 . S
H1317 C1309 0.960 . S
H1318 C1310 0.930 . S
H1319 C1311 0.929 . S
H1320 C1328 0.929 . S
H1321 C1330 0.930 . S
H1322 C1332 0.930 . S
H1323 C1335 0.929 . S
H1324 C1338 0.930 . S
H1325 C1340 0.960 . S
H1326 C1340 0.960 . S
H1327 C1340 0.960 . S
C1328 H1320 0.929 . S
C1328 C1329 1.377 . S
C1328 C1330 1.384 . S
C1329 C1328 1.377 . S
C1329 C1335 1.390 . S
C1330 H1321 0.930 . S
C1330 C1328 1.384 . S
C1330 C1331 1.372 . S
C1331 C1330 1.372 . S
C1331 C1332 1.400 . S
C1331 C1336 1.490 . S
C1332 H1322 0.930 . S
C1332 C1331 1.400 . S
C1332 C1335 1.386 . S
H1333 C1349 0.930 . S
H1334 C1350 0.931 . S
C1335 H1323 0.929 . S
C1335 C1329 1.390 . S
C1335 C1332 1.386 . S
C1336 C1331 1.490 . S
C1336 C1338 1.395 . S
C1336 C1339 1.403 . S
H1337 C1343 0.930 . S
C1338 H1324 0.930 . S
C1338 C1336 1.395 . S
C1338 C1341 1.403 . S
C1339 C1336 1.403 . S
C1339 C1340 1.524 . S
C1339 C1343 1.400 . S
C1340 H1325 0.960 . S
C1340 H1326 0.960 . S
C1340 H1327 0.960 . S
C1340 C1339 1.524 . S
C1341 C1338 1.403 . S
C1341 C1342 1.392 . S
C1341 C1345 1.495 . S
C1342 C1341 1.392 . S
C1342 C1343 1.385 . S
C1342 C1344 1.478 . S
C1343 H1337 0.930 . S
C1343 C1339 1.400 . S
C1343 C1342 1.385 . S
C1344 C1342 1.478 . S
C1344 C1346 1.381 . S
C1344 C1350 1.383 . S
C1345 C1341 1.495 . S
C1345 H1351 0.959 . S
C1345 H1352 0.961 . S
C1345 H1353 0.960 . S
C1346 C1344 1.381 . S
C1346 C1347 1.394 . S
C1346 H1354 0.930 . S
C1347 C1346 1.394 . S
C1347 C1348 1.383 . S
C1347 H1355 0.929 . S
C1348 C1347 1.383 . S
C1348 C1349 1.377 . S
C1349 H1333 0.930 . S
C1349 C1348 1.377 . S
C1349 C1350 1.379 . S
C1350 H1334 0.931 . S
C1350 C1344 1.383 . S
C1350 C1349 1.379 . S
H1351 C1345 0.959 . S
H1352 C1345 0.961 . S
H1353 C1345 0.960 . S
H1354 C1346 0.930 . S
H1355 C1347 0.929 . S
H1356 C1364 0.929 . S
H1357 C1366 0.930 . S
H1358 C1368 0.930 . S
H1359 C1371 0.929 . S
H1360 C1374 0.930 . S
H1361 C1376 0.960 . S
H1362 C1376 0.960 . S
H1363 C1376 0.960 . S
C1364 H1356 0.929 . S
C1364 C1365 1.377 . S
C1364 C1366 1.384 . S
C1365 C1364 1.377 . S
C1365 C1371 1.390 . S
C1366 H1357 0.930 . S
C1366 C1364 1.384 . S
C1366 C1367 1.372 . S
C1367 C1366 1.372 . S
C1367 C1368 1.400 . S
C1367 C1372 1.490 . S
C1368 H1358 0.930 . S
C1368 C1367 1.400 . S
C1368 C1371 1.386 . S
H1369 C1385 0.930 . S
H1370 C1386 0.931 . S
C1371 H1359 0.929 . S
C1371 C1365 1.390 . S
C1371 C1368 1.386 . S
C1372 C1367 1.490 . S
C1372 C1374 1.395 . S
C1372 C1375 1.403 . S
H1373 C1379 0.930 . S
C1374 H1360 0.930 . S
C1374 C1372 1.395 . S
C1374 C1377 1.403 . S
C1375 C1372 1.403 . S
C1375 C1376 1.524 . S
C1375 C1379 1.400 . S
C1376 H1361 0.960 . S
C1376 H1362 0.960 . S
C1376 H1363 0.960 . S
C1376 C1375 1.524 . S
C1377 C1374 1.403 . S
C1377 C1378 1.392 . S
C1377 C1381 1.495 . S
C1378 C1377 1.392 . S
C1378 C1379 1.385 . S
C1378 C1380 1.478 . S
C1379 H1373 0.930 . S
C1379 C1375 1.400 . S
C1379 C1378 1.385 . S
C1380 C1378 1.478 . S
C1380 C1382 1.381 1_455 S
C1380 C1386 1.383 . S
C1381 C1377 1.495 . S
C1381 H1387 0.959 . S
C1381 H1388 0.961 . S
C1381 H1389 0.960 . S
C1382 C1380 1.381 1_655 S
C1382 C1383 1.394 . S
C1382 H1390 0.930 . S
C1383 C1382 1.394 . S
C1383 C1384 1.383 . S
C1383 H1391 0.929 . S
C1384 C1383 1.383 . S
C1384 C1385 1.377 . S
C1385 H1369 0.930 . S
C1385 C1384 1.377 . S
C1385 C1386 1.379 1_655 S
C1386 H1370 0.931 . S
C1386 C1380 1.383 . S
C1386 C1385 1.379 1_455 S
H1387 C1381 0.959 . S
H1388 C1381 0.961 . S
H1389 C1381 0.960 . S
H1390 C1382 0.930 . S
H1391 C1383 0.929 . S
H1392 C1400 0.929 . S
H1393 C1402 0.930 . S
H1394 C1404 0.930 . S
H1395 C1407 0.929 . S
H1396 C1410 0.930 . S
H1397 C1412 0.960 . S
H1398 C1412 0.960 . S
H1399 C1412 0.960 . S
C1400 H1392 0.929 . S
C1400 C1401 1.377 . S
C1400 C1402 1.384 1_556 S
C1401 C1400 1.377 . S
C1401 C1407 1.390 . S
C1402 H1393 0.930 . S
C1402 C1400 1.384 1_554 S
C1402 C1403 1.372 . S
C1403 C1402 1.372 . S
C1403 C1404 1.400 . S
C1403 C1408 1.490 . S
C1404 H1394 0.930 . S
C1404 C1403 1.400 . S
C1404 C1407 1.386 1_554 S
H1405 C1421 0.930 . S
H1406 C1422 0.931 . S
C1407 H1395 0.929 . S
C1407 C1401 1.390 . S
C1407 C1404 1.386 1_556 S
C1408 C1403 1.490 . S
C1408 C1410 1.395 . S
C1408 C1411 1.403 . S
H1409 C1415 0.930 . S
C1410 H1396 0.930 . S
C1410 C1408 1.395 . S
C1410 C1413 1.403 . S
C1411 C1408 1.403 . S
C1411 C1412 1.524 . S
C1411 C1415 1.400 . S
C1412 H1397 0.960 . S
C1412 H1398 0.960 . S
C1412 H1399 0.960 . S
C1412 C1411 1.524 . S
C1413 C1410 1.403 . S
C1413 C1414 1.392 . S
C1413 C1417 1.495 . S
C1414 C1413 1.392 . S
C1414 C1415 1.385 . S
C1414 C1416 1.478 . S
C1415 H1409 0.930 . S
C1415 C1411 1.400 . S
C1415 C1414 1.385 . S
C1416 C1414 1.478 . S
C1416 C1418 1.381 . S
C1416 C1422 1.383 . S
C1417 C1413 1.495 . S
C1417 H1423 0.959 . S
C1417 H1424 0.961 . S
C1417 H1425 0.960 . S
C1418 C1416 1.381 . S
C1418 C1419 1.394 . S
C1418 H1426 0.930 . S
C1419 C1418 1.394 . S
C1419 C1420 1.383 . S
C1419 H1427 0.929 . S
C1420 C1419 1.383 . S
C1420 C1421 1.377 . S
C1421 H1405 0.930 . S
C1421 C1420 1.377 . S
C1421 C1422 1.379 . S
C1422 H1406 0.931 . S
C1422 C1416 1.383 . S
C1422 C1421 1.379 . S
H1423 C1417 0.959 . S
H1424 C1417 0.961 . S
H1425 C1417 0.960 . S
H1426 C1418 0.930 . S
H1427 C1419 0.929 . S
H1428 C1436 0.929 . S
H1429 C1438 0.930 . S
H1430 C1440 0.930 . S
H1431 C1443 0.929 . S
H1432 C1446 0.930 . S
H1433 C1448 0.960 . S
H1434 C1448 0.960 . S
H1435 C1448 0.960 . S
C1436 H1428 0.929 . S
C1436 C1437 1.377 . S
C1436 C1438 1.384 . S
C1437 C1436 1.377 . S
C1437 C1443 1.390 . S
C1438 H1429 0.930 . S
C1438 C1436 1.384 . S
C1438 C1439 1.372 . S
C1439 C1438 1.372 . S
C1439 C1440 1.400 . S
C1439 C1444 1.490 . S
C1440 H1430 0.930 . S
C1440 C1439 1.400 . S
C1440 C1443 1.386 . S
H1441 C1457 0.930 . S
H1442 C1458 0.931 . S
C1443 H1431 0.929 . S
C1443 C1437 1.390 . S
C1443 C1440 1.386 . S
C1444 C1439 1.490 . S
C1444 C1446 1.395 . S
C1444 C1447 1.403 . S
H1445 C1451 0.930 . S
C1446 H1432 0.930 . S
C1446 C1444 1.395 . S
C1446 C1449 1.403 . S
C1447 C1444 1.403 . S
C1447 C1448 1.524 . S
C1447 C1451 1.400 . S
C1448 H1433 0.960 . S
C1448 H1434 0.960 . S
C1448 H1435 0.960 . S
C1448 C1447 1.524 . S
C1449 C1446 1.403 . S
C1449 C1450 1.392 . S
C1449 C1453 1.495 . S
C1450 C1449 1.392 . S
C1450 C1451 1.385 . S
C1450 C1452 1.478 . S
C1451 H1445 0.930 . S
C1451 C1447 1.400 . S
C1451 C1450 1.385 . S
C1452 C1450 1.478 . S
C1452 C1454 1.381 . S
C1452 C1458 1.383 . S
C1453 C1449 1.495 . S
C1453 H1459 0.959 . S
C1453 H1460 0.961 . S
C1453 H1461 0.960 . S
C1454 C1452 1.381 . S
C1454 C1455 1.394 . S
C1454 H1462 0.930 . S
C1455 C1454 1.394 . S
C1455 C1456 1.383 . S
C1455 H1463 0.929 . S
C1456 C1455 1.383 . S
C1456 C1457 1.377 . S
C1457 H1441 0.930 . S
C1457 C1456 1.377 . S
C1457 C1458 1.379 . S
C1458 H1442 0.931 . S
C1458 C1452 1.383 . S
C1458 C1457 1.379 . S
H1459 C1453 0.959 . S
H1460 C1453 0.961 . S
H1461 C1453 0.960 . S
H1462 C1454 0.930 . S
H1463 C1455 0.929 . S
H1464 C1472 0.929 . S
H1465 C1474 0.930 . S
H1466 C1476 0.930 . S
H1467 C1479 0.929 . S
H1468 C1482 0.930 . S
H1469 C1484 0.960 . S
H1470 C1484 0.960 . S
H1471 C1484 0.960 . S
C1472 H1464 0.929 . S
C1472 C1473 1.377 . S
C1472 C1474 1.384 1_554 S
C1473 C1472 1.377 . S
C1473 C1479 1.390 . S
C1474 H1465 0.930 . S
C1474 C1472 1.384 1_556 S
C1474 C1475 1.372 . S
C1475 C1474 1.372 . S
C1475 C1476 1.400 . S
C1475 C1480 1.490 . S
C1476 H1466 0.930 . S
C1476 C1475 1.400 . S
C1476 C1479 1.386 1_556 S
H1477 C1493 0.930 . S
H1478 C1494 0.931 . S
C1479 H1467 0.929 . S
C1479 C1473 1.390 . S
C1479 C1476 1.386 1_554 S
C1480 C1475 1.490 . S
C1480 C1482 1.395 . S
C1480 C1483 1.403 . S
H1481 C1487 0.930 . S
C1482 H1468 0.930 . S
C1482 C1480 1.395 . S
C1482 C1485 1.403 . S
C1483 C1480 1.403 . S
C1483 C1484 1.524 . S
C1483 C1487 1.400 . S
C1484 H1469 0.960 . S
C1484 H1470 0.960 . S
C1484 H1471 0.960 . S
C1484 C1483 1.524 . S
C1485 C1482 1.403 . S
C1485 C1486 1.392 . S
C1485 C1489 1.495 . S
C1486 C1485 1.392 . S
C1486 C1487 1.385 . S
C1486 C1488 1.478 . S
C1487 H1481 0.930 . S
C1487 C1483 1.400 . S
C1487 C1486 1.385 . S
C1488 C1486 1.478 . S
C1488 C1490 1.381 . S
C1488 C1494 1.383 . S
C1489 C1485 1.495 . S
C1489 H1495 0.959 . S
C1489 H1496 0.961 . S
C1489 H1497 0.960 . S
C1490 C1488 1.381 . S
C1490 C1491 1.394 . S
C1490 H1498 0.930 . S
C1491 C1490 1.394 . S
C1491 C1492 1.383 . S
C1491 H1499 0.929 . S
C1492 C1491 1.383 . S
C1492 C1493 1.377 . S
C1493 H1477 0.930 . S
C1493 C1492 1.377 . S
C1493 C1494 1.379 . S
C1494 H1478 0.931 . S
C1494 C1488 1.383 . S
C1494 C1493 1.379 . S
H1495 C1489 0.959 . S
H1496 C1489 0.961 . S
H1497 C1489 0.960 . S
H1498 C1490 0.930 . S
H1499 C1491 0.929 . S
H1500 C1508 0.929 . S
H1501 C1510 0.930 . S
H1502 C1512 0.930 . S
H1503 C1515 0.929 . S
H1504 C1518 0.930 . S
H1505 C1520 0.960 . S
H1506 C1520 0.960 . S
H1507 C1520 0.960 . S
C1508 H1500 0.929 . S
C1508 C1509 1.377 . S
C1508 C1510 1.384 . S
C1509 C1508 1.377 . S
C1509 C1515 1.390 . S
C1510 H1501 0.930 . S
C1510 C1508 1.384 . S
C1510 C1511 1.372 . S
C1511 C1510 1.372 . S
C1511 C1512 1.400 . S
C1511 C1516 1.490 . S
C1512 H1502 0.930 . S
C1512 C1511 1.400 . S
C1512 C1515 1.386 . S
H1513 C1529 0.930 . S
H1514 C1530 0.931 . S
C1515 H1503 0.929 . S
C1515 C1509 1.390 . S
C1515 C1512 1.386 . S
C1516 C1511 1.490 . S
C1516 C1518 1.395 . S
C1516 C1519 1.403 . S
H1517 C1523 0.930 . S
C1518 H1504 0.930 . S
C1518 C1516 1.395 . S
C1518 C1521 1.403 . S
C1519 C1516 1.403 . S
C1519 C1520 1.524 . S
C1519 C1523 1.400 . S
C1520 H1505 0.960 . S
C1520 H1506 0.960 . S
C1520 H1507 0.960 . S
C1520 C1519 1.524 . S
C1521 C1518 1.403 . S
C1521 C1522 1.392 . S
C1521 C1525 1.495 . S
C1522 C1521 1.392 . S
C1522 C1523 1.385 . S
C1522 C1524 1.478 . S
C1523 H1517 0.930 . S
C1523 C1519 1.400 . S
C1523 C1522 1.385 . S
C1524 C1522 1.478 . S
C1524 C1526 1.381 . S
C1524 C1530 1.383 . S
C1525 C1521 1.495 . S
C1525 H1531 0.959 . S
C1525 H1532 0.961 . S
C1525 H1533 0.960 . S
C1526 C1524 1.381 . S
C1526 C1527 1.394 . S
C1526 H1534 0.930 . S
C1527 C1526 1.394 . S
C1527 C1528 1.383 . S
C1527 H1535 0.929 . S
C1528 C1527 1.383 . S
C1528 C1529 1.377 . S
C1529 H1513 0.930 . S
C1529 C1528 1.377 . S
C1529 C1530 1.379 . S
C1530 H1514 0.931 . S
C1530 C1524 1.383 . S
C1530 C1529 1.379 . S
H1531 C1525 0.959 . S
H1532 C1525 0.961 . S
H1533 C1525 0.960 . S
H1534 C1526 0.930 . S
H1535 C1527 0.929 . S
H1536 C1544 0.929 . S
H1537 C1546 0.930 . S
H1538 C1548 0.930 . S
H1539 C1551 0.929 . S
H1540 C1554 0.930 . S
H1541 C1556 0.960 . S
H1542 C1556 0.960 . S
H1543 C1556 0.960 . S
C1544 H1536 0.929 . S
C1544 C1545 1.377 . S
C1544 C1546 1.384 . S
C1545 C1544 1.377 . S
C1545 C1551 1.390 . S
C1546 H1537 0.930 . S
C1546 C1544 1.384 . S
C1546 C1547 1.372 . S
C1547 C1546 1.372 . S
C1547 C1548 1.400 . S
C1547 C1552 1.490 . S
C1548 H1538 0.930 . S
C1548 C1547 1.400 . S
C1548 C1551 1.386 . S
H1549 C1565 0.930 . S
H1550 C1566 0.931 . S
C1551 H1539 0.929 . S
C1551 C1545 1.390 . S
C1551 C1548 1.386 . S
C1552 C1547 1.490 . S
C1552 C1554 1.395 . S
C1552 C1555 1.403 . S
H1553 C1559 0.930 . S
C1554 H1540 0.930 . S
C1554 C1552 1.395 . S
C1554 C1557 1.403 . S
C1555 C1552 1.403 . S
C1555 C1556 1.524 . S
C1555 C1559 1.400 . S
C1556 H1541 0.960 . S
C1556 H1542 0.960 . S
C1556 H1543 0.960 . S
C1556 C1555 1.524 . S
C1557 C1554 1.403 . S
C1557 C1558 1.392 . S
C1557 C1561 1.495 . S
C1558 C1557 1.392 . S
C1558 C1559 1.385 . S
C1558 C1560 1.478 . S
C1559 H1553 0.930 . S
C1559 C1555 1.400 . S
C1559 C1558 1.385 . S
C1560 C1558 1.478 . S
C1560 C1562 1.381 . S
C1560 C1566 1.383 . S
C1561 C1557 1.495 . S
C1561 H1567 0.959 . S
C1561 H1568 0.961 . S
C1561 H1569 0.960 . S
C1562 C1560 1.381 . S
C1562 C1563 1.394 1_455 S
C1562 H1570 0.930 . S
C1563 C1562 1.394 1_655 S
C1563 C1564 1.383 . S
C1563 H1571 0.929 . S
C1564 C1563 1.383 . S
C1564 C1565 1.377 . S
C1565 H1549 0.930 . S
C1565 C1564 1.377 . S
C1565 C1566 1.379 1_655 S
C1566 H1550 0.931 . S
C1566 C1560 1.383 . S
C1566 C1565 1.379 1_455 S
H1567 C1561 0.959 . S
H1568 C1561 0.961 . S
H1569 C1561 0.960 . S
H1570 C1562 0.930 . S
H1571 C1563 0.929 . S
H1572 C1580 0.929 . S
H1573 C1582 0.930 . S
H1574 C1584 0.930 . S
H1575 C1587 0.929 . S
H1576 C1590 0.930 . S
H1577 C1592 0.960 . S
H1578 C1592 0.960 . S
H1579 C1592 0.960 . S
C1580 H1572 0.929 . S
C1580 C1581 1.377 . S
C1580 C1582 1.384 . S
C1581 C1580 1.377 . S
C1581 C1587 1.390 . S
C1582 H1573 0.930 . S
C1582 C1580 1.384 . S
C1582 C1583 1.372 . S
C1583 C1582 1.372 . S
C1583 C1584 1.400 . S
C1583 C1588 1.490 . S
C1584 H1574 0.930 . S
C1584 C1583 1.400 . S
C1584 C1587 1.386 . S
H1585 C1601 0.930 . S
H1586 C1602 0.931 . S
C1587 H1575 0.929 . S
C1587 C1581 1.390 . S
C1587 C1584 1.386 . S
C1588 C1583 1.490 . S
C1588 C1590 1.395 . S
C1588 C1591 1.403 . S
H1589 C1595 0.930 . S
C1590 H1576 0.930 . S
C1590 C1588 1.395 . S
C1590 C1593 1.403 . S
C1591 C1588 1.403 . S
C1591 C1592 1.524 . S
C1591 C1595 1.400 . S
C1592 H1577 0.960 . S
C1592 H1578 0.960 . S
C1592 H1579 0.960 . S
C1592 C1591 1.524 . S
C1593 C1590 1.403 . S
C1593 C1594 1.392 . S
C1593 C1597 1.495 . S
C1594 C1593 1.392 . S
C1594 C1595 1.385 . S
C1594 C1596 1.478 . S
C1595 H1589 0.930 . S
C1595 C1591 1.400 . S
C1595 C1594 1.385 . S
C1596 C1594 1.478 . S
C1596 C1598 1.381 . S
C1596 C1602 1.383 . S
C1597 C1593 1.495 . S
C1597 H1603 0.959 . S
C1597 H1604 0.961 . S
C1597 H1605 0.960 . S
C1598 C1596 1.381 . S
C1598 C1599 1.394 . S
C1598 H1606 0.930 . S
C1599 C1598 1.394 . S
C1599 C1600 1.383 . S
C1599 H1607 0.929 . S
C1600 C1599 1.383 . S
C1600 C1601 1.377 . S
C1601 H1585 0.930 . S
C1601 C1600 1.377 . S
C1601 C1602 1.379 . S
C1602 H1586 0.931 . S
C1602 C1596 1.383 . S
C1602 C1601 1.379 . S
H1603 C1597 0.959 . S
H1604 C1597 0.961 . S
H1605 C1597 0.960 . S
H1606 C1598 0.930 . S
H1607 C1599 0.929 . S
H1608 C1616 0.929 . S
H1609 C1618 0.930 . S
H1610 C1620 0.930 . S
H1611 C1623 0.929 . S
H1612 C1626 0.930 . S
H1613 C1628 0.960 . S
H1614 C1628 0.960 . S
H1615 C1628 0.960 . S
C1616 H1608 0.929 . S
C1616 C1617 1.377 . S
C1616 C1618 1.384 . S
C1617 C1616 1.377 . S
C1617 C1623 1.390 . S
C1618 H1609 0.930 . S
C1618 C1616 1.384 . S
C1618 C1619 1.372 . S
C1619 C1618 1.372 . S
C1619 C1620 1.400 . S
C1619 C1624 1.490 . S
C1620 H1610 0.930 . S
C1620 C1619 1.400 . S
C1620 C1623 1.386 . S
H1621 C1637 0.930 . S
H1622 C1638 0.931 . S
C1623 H1611 0.929 . S
C1623 C1617 1.390 . S
C1623 C1620 1.386 . S
C1624 C1619 1.490 . S
C1624 C1626 1.395 . S
C1624 C1627 1.403 . S
H1625 C1631 0.930 . S
C1626 H1612 0.930 . S
C1626 C1624 1.395 . S
C1626 C1629 1.403 . S
C1627 C1624 1.403 . S
C1627 C1628 1.524 . S
C1627 C1631 1.400 . S
C1628 H1613 0.960 . S
C1628 H1614 0.960 . S
C1628 H1615 0.960 . S
C1628 C1627 1.524 . S
C1629 C1626 1.403 . S
C1629 C1630 1.392 . S
C1629 C1633 1.495 . S
C1630 C1629 1.392 . S
C1630 C1631 1.385 . S
C1630 C1632 1.478 . S
C1631 H1625 0.930 . S
C1631 C1627 1.400 . S
C1631 C1630 1.385 . S
C1632 C1630 1.478 . S
C1632 C1634 1.381 . S
C1632 C1638 1.383 . S
C1633 C1629 1.495 . S
C1633 H1639 0.959 . S
C1633 H1640 0.961 . S
C1633 H1641 0.960 . S
C1634 C1632 1.381 . S
C1634 C1635 1.394 . S
C1634 H1642 0.930 . S
C1635 C1634 1.394 . S
C1635 C1636 1.383 . S
C1635 H1643 0.929 . S
C1636 C1635 1.383 . S
C1636 C1637 1.377 . S
C1637 H1621 0.930 . S
C1637 C1636 1.377 . S
C1637 C1638 1.379 . S
C1638 H1622 0.931 . S
C1638 C1632 1.383 . S
C1638 C1637 1.379 . S
H1639 C1633 0.959 . S
H1640 C1633 0.961 . S
H1641 C1633 0.960 . S
H1642 C1634 0.930 . S
H1643 C1635 0.929 . S
H1644 C1652 0.929 . S
H1645 C1654 0.930 . S
H1646 C1656 0.930 . S
H1647 C1659 0.929 . S
H1648 C1662 0.930 . S
H1649 C1664 0.960 . S
H1650 C1664 0.960 . S
H1651 C1664 0.960 . S
C1652 H1644 0.929 . S
C1652 C1653 1.377 . S
C1652 C1654 1.384 1_455 S
C1653 C1652 1.377 . S
C1653 C1659 1.390 . S
C1654 H1645 0.930 . S
C1654 C1652 1.384 1_655 S
C1654 C1655 1.372 . S
C1655 C1654 1.372 . S
C1655 C1656 1.400 . S
C1655 C1660 1.490 . S
C1656 H1646 0.930 . S
C1656 C1655 1.400 . S
C1656 C1659 1.386 1_655 S
H1657 C1673 0.930 . S
H1658 C1674 0.931 . S
C1659 H1647 0.929 . S
C1659 C1653 1.390 . S
C1659 C1656 1.386 1_455 S
C1660 C1655 1.490 . S
C1660 C1662 1.395 . S
C1660 C1663 1.403 . S
H1661 C1667 0.930 . S
C1662 H1648 0.930 . S
C1662 C1660 1.395 . S
C1662 C1665 1.403 . S
C1663 C1660 1.403 . S
C1663 C1664 1.524 . S
C1663 C1667 1.400 . S
C1664 H1649 0.960 . S
C1664 H1650 0.960 . S
C1664 H1651 0.960 . S
C1664 C1663 1.524 . S
C1665 C1662 1.403 . S
C1665 C1666 1.392 . S
C1665 C1669 1.495 . S
C1666 C1665 1.392 . S
C1666 C1667 1.385 . S
C1666 C1668 1.478 . S
C1667 H1661 0.930 . S
C1667 C1663 1.400 . S
C1667 C1666 1.385 . S
C1668 C1666 1.478 . S
C1668 C1670 1.381 . S
C1668 C1674 1.383 . S
C1669 C1665 1.495 . S
C1669 H1675 0.959 . S
C1669 H1676 0.961 . S
C1669 H1677 0.960 . S
C1670 C1668 1.381 . S
C1670 C1671 1.394 . S
C1670 H1678 0.930 . S
C1671 C1670 1.394 . S
C1671 C1672 1.383 . S
C1671 H1679 0.929 . S
C1672 C1671 1.383 . S
C1672 C1673 1.377 . S
C1673 H1657 0.930 . S
C1673 C1672 1.377 . S
C1673 C1674 1.379 . S
C1674 H1658 0.931 . S
C1674 C1668 1.383 . S
C1674 C1673 1.379 . S
H1675 C1669 0.959 . S
H1676 C1669 0.961 . S
H1677 C1669 0.960 . S
H1678 C1670 0.930 . S
H1679 C1671 0.929 . S
H1680 C1688 0.929 . S
H1681 C1690 0.930 . S
H1682 C1692 0.930 . S
H1683 C1695 0.929 . S
H1684 C1698 0.930 . S
H1685 C1700 0.960 . S
H1686 C1700 0.960 . S
H1687 C1700 0.960 . S
C1688 H1680 0.929 . S
C1688 C1689 1.377 . S
C1688 C1690 1.384 1_565 S
C1689 C1688 1.377 . S
C1689 C1695 1.390 . S
C1690 H1681 0.930 . S
C1690 C1688 1.384 1_545 S
C1690 C1691 1.372 . S
C1691 C1690 1.372 . S
C1691 C1692 1.400 . S
C1691 C1696 1.490 . S
C1692 H1682 0.930 . S
C1692 C1691 1.400 . S
C1692 C1695 1.386 1_545 S
H1693 C1709 0.930 . S
H1694 C1710 0.931 . S
C1695 H1683 0.929 . S
C1695 C1689 1.390 . S
C1695 C1692 1.386 1_565 S
C1696 C1691 1.490 . S
C1696 C1698 1.395 . S
C1696 C1699 1.403 . S
H1697 C1703 0.930 . S
C1698 H1684 0.930 . S
C1698 C1696 1.395 . S
C1698 C1701 1.403 . S
C1699 C1696 1.403 . S
C1699 C1700 1.524 . S
C1699 C1703 1.400 . S
C1700 H1685 0.960 . S
C1700 H1686 0.960 . S
C1700 H1687 0.960 . S
C1700 C1699 1.524 . S
C1701 C1698 1.403 . S
C1701 C1702 1.392 . S
C1701 C1705 1.495 . S
C1702 C1701 1.392 . S
C1702 C1703 1.385 . S
C1702 C1704 1.478 . S
C1703 H1697 0.930 . S
C1703 C1699 1.400 . S
C1703 C1702 1.385 . S
C1704 C1702 1.478 . S
C1704 C1706 1.381 . S
C1704 C1710 1.383 . S
C1705 C1701 1.495 . S
C1705 H1711 0.959 . S
C1705 H1712 0.961 . S
C1705 H1713 0.960 . S
C1706 C1704 1.381 . S
C1706 C1707 1.394 . S
C1706 H1714 0.930 . S
C1707 C1706 1.394 . S
C1707 C1708 1.383 . S
C1707 H1715 0.929 . S
C1708 C1707 1.383 . S
C1708 C1709 1.377 . S
C1709 H1693 0.930 . S
C1709 C1708 1.377 . S
C1709 C1710 1.379 . S
C1710 H1694 0.931 . S
C1710 C1704 1.383 . S
C1710 C1709 1.379 . S
H1711 C1705 0.959 . S
H1712 C1705 0.961 . S
H1713 C1705 0.960 . S
H1714 C1706 0.930 . S
H1715 C1707 0.929 . S
H1716 C1724 0.929 . S
H1717 C1726 0.930 . S
H1718 C1728 0.930 . S
H1719 C1731 0.929 . S
H1720 C1734 0.930 . S
H1721 C1736 0.960 . S
H1722 C1736 0.960 . S
H1723 C1736 0.960 . S
C1724 H1716 0.929 . S
C1724 C1725 1.377 . S
C1724 C1726 1.384 . S
C1725 C1724 1.377 . S
C1725 C1731 1.390 . S
C1726 H1717 0.930 . S
C1726 C1724 1.384 . S
C1726 C1727 1.372 . S
C1727 C1726 1.372 . S
C1727 C1728 1.400 . S
C1727 C1732 1.490 . S
C1728 H1718 0.930 . S
C1728 C1727 1.400 . S
C1728 C1731 1.386 . S
H1729 C1745 0.930 . S
H1730 C1746 0.931 . S
C1731 H1719 0.929 . S
C1731 C1725 1.390 . S
C1731 C1728 1.386 . S
C1732 C1727 1.490 . S
C1732 C1734 1.395 . S
C1732 C1735 1.403 . S
H1733 C1739 0.930 . S
C1734 H1720 0.930 . S
C1734 C1732 1.395 . S
C1734 C1737 1.403 . S
C1735 C1732 1.403 . S
C1735 C1736 1.524 . S
C1735 C1739 1.400 . S
C1736 H1721 0.960 . S
C1736 H1722 0.960 . S
C1736 H1723 0.960 . S
C1736 C1735 1.524 . S
C1737 C1734 1.403 . S
C1737 C1738 1.392 . S
C1737 C1741 1.495 . S
C1738 C1737 1.392 . S
C1738 C1739 1.385 . S
C1738 C1740 1.478 . S
C1739 H1733 0.930 . S
C1739 C1735 1.400 . S
C1739 C1738 1.385 . S
C1740 C1738 1.478 . S
C1740 C1742 1.381 . S
C1740 C1746 1.383 . S
C1741 C1737 1.495 . S
C1741 H1747 0.959 . S
C1741 H1748 0.961 . S
C1741 H1749 0.960 . S
C1742 C1740 1.381 . S
C1742 C1743 1.394 . S
C1742 H1750 0.930 . S
C1743 C1742 1.394 . S
C1743 C1744 1.383 . S
C1743 H1751 0.929 . S
C1744 C1743 1.383 . S
C1744 C1745 1.377 . S
C1745 H1729 0.930 . S
C1745 C1744 1.377 . S
C1745 C1746 1.379 . S
C1746 H1730 0.931 . S
C1746 C1740 1.383 . S
C1746 C1745 1.379 . S
H1747 C1741 0.959 . S
H1748 C1741 0.961 . S
H1749 C1741 0.960 . S
H1750 C1742 0.930 . S
H1751 C1743 0.929 . S
H1752 C1760 0.929 . S
H1753 C1762 0.930 . S
H1754 C1764 0.930 . S
H1755 C1767 0.929 . S
H1756 C1770 0.930 . S
H1757 C1772 0.960 . S
H1758 C1772 0.960 . S
H1759 C1772 0.960 . S
C1760 H1752 0.929 . S
C1760 C1761 1.377 . S
C1760 C1762 1.384 . S
C1761 C1760 1.377 . S
C1761 C1767 1.390 . S
C1762 H1753 0.930 . S
C1762 C1760 1.384 . S
C1762 C1763 1.372 . S
C1763 C1762 1.372 . S
C1763 C1764 1.400 . S
C1763 C1768 1.490 . S
C1764 H1754 0.930 . S
C1764 C1763 1.400 . S
C1764 C1767 1.386 . S
H1765 C1781 0.930 . S
H1766 C1782 0.931 . S
C1767 H1755 0.929 . S
C1767 C1761 1.390 . S
C1767 C1764 1.386 . S
C1768 C1763 1.490 . S
C1768 C1770 1.395 . S
C1768 C1771 1.403 . S
H1769 C1775 0.930 . S
C1770 H1756 0.930 . S
C1770 C1768 1.395 . S
C1770 C1773 1.403 . S
C1771 C1768 1.403 . S
C1771 C1772 1.524 . S
C1771 C1775 1.400 . S
C1772 H1757 0.960 . S
C1772 H1758 0.960 . S
C1772 H1759 0.960 . S
C1772 C1771 1.524 . S
C1773 C1770 1.403 . S
C1773 C1774 1.392 . S
C1773 C1777 1.495 . S
C1774 C1773 1.392 . S
C1774 C1775 1.385 . S
C1774 C1776 1.478 . S
C1775 H1769 0.930 . S
C1775 C1771 1.400 . S
C1775 C1774 1.385 . S
C1776 C1774 1.478 . S
C1776 C1778 1.381 . S
C1776 C1782 1.383 . S
C1777 C1773 1.495 . S
C1777 H1783 0.959 . S
C1777 H1784 0.961 . S
C1777 H1785 0.960 . S
C1778 C1776 1.381 . S
C1778 C1779 1.394 . S
C1778 H1786 0.930 . S
C1779 C1778 1.394 . S
C1779 C1780 1.383 . S
C1779 H1787 0.929 . S
C1780 C1779 1.383 . S
C1780 C1781 1.377 . S
C1781 H1765 0.930 . S
C1781 C1780 1.377 . S
C1781 C1782 1.379 . S
C1782 H1766 0.931 . S
C1782 C1776 1.383 . S
C1782 C1781 1.379 . S
H1783 C1777 0.959 . S
H1784 C1777 0.961 . S
H1785 C1777 0.960 . S
H1786 C1778 0.930 . S
H1787 C1779 0.929 . S
H1788 C1796 0.929 . S
H1789 C1798 0.930 . S
H1790 C1800 0.930 . S
H1791 C1803 0.929 . S
H1792 C1806 0.930 . S
H1793 C1808 0.960 . S
H1794 C1808 0.960 . S
H1795 C1808 0.960 . S
C1796 H1788 0.929 . S
C1796 C1797 1.377 . S
C1796 C1798 1.384 1_545 S
C1797 C1796 1.377 . S
C1797 C1803 1.390 . S
C1798 H1789 0.930 . S
C1798 C1796 1.384 1_565 S
C1798 C1799 1.372 . S
C1799 C1798 1.372 . S
C1799 C1800 1.400 . S
C1799 C1804 1.490 . S
C1800 H1790 0.930 . S
C1800 C1799 1.400 . S
C1800 C1803 1.386 1_565 S
H1801 C1817 0.930 . S
H1802 C1818 0.931 . S
C1803 H1791 0.929 . S
C1803 C1797 1.390 . S
C1803 C1800 1.386 1_545 S
C1804 C1799 1.490 . S
C1804 C1806 1.395 . S
C1804 C1807 1.403 . S
H1805 C1811 0.930 . S
C1806 H1792 0.930 . S
C1806 C1804 1.395 . S
C1806 C1809 1.403 . S
C1807 C1804 1.403 . S
C1807 C1808 1.524 . S
C1807 C1811 1.400 . S
C1808 H1793 0.960 . S
C1808 H1794 0.960 . S
C1808 H1795 0.960 . S
C1808 C1807 1.524 . S
C1809 C1806 1.403 . S
C1809 C1810 1.392 . S
C1809 C1813 1.495 . S
C1810 C1809 1.392 . S
C1810 C1811 1.385 . S
C1810 C1812 1.478 . S
C1811 H1805 0.930 . S
C1811 C1807 1.400 . S
C1811 C1810 1.385 . S
C1812 C1810 1.478 . S
C1812 C1814 1.381 . S
C1812 C1818 1.383 . S
C1813 C1809 1.495 . S
C1813 H1819 0.959 . S
C1813 H1820 0.961 . S
C1813 H1821 0.960 . S
C1814 C1812 1.381 . S
C1814 C1815 1.394 . S
C1814 H1822 0.930 . S
C1815 C1814 1.394 . S
C1815 C1816 1.383 . S
C1815 H1823 0.929 . S
C1816 C1815 1.383 . S
C1816 C1817 1.377 . S
C1817 H1801 0.930 . S
C1817 C1816 1.377 . S
C1817 C1818 1.379 . S
C1818 H1802 0.931 . S
C1818 C1812 1.383 . S
C1818 C1817 1.379 . S
H1819 C1813 0.959 . S
H1820 C1813 0.961 . S
H1821 C1813 0.960 . S
H1822 C1814 0.930 . S
H1823 C1815 0.929 . S
H1824 C1832 0.929 . S
H1825 C1834 0.930 . S
H1826 C1836 0.930 . S
H1827 C1839 0.929 . S
H1828 C1842 0.930 . S
H1829 C1844 0.960 . S
H1830 C1844 0.960 . S
H1831 C1844 0.960 . S
C1832 H1824 0.929 . S
C1832 C1833 1.377 . S
C1832 C1834 1.384 . S
C1833 C1832 1.377 . S
C1833 C1839 1.390 . S
C1834 H1825 0.930 . S
C1834 C1832 1.384 . S
C1834 C1835 1.372 . S
C1835 C1834 1.372 . S
C1835 C1836 1.400 . S
C1835 C1840 1.490 . S
C1836 H1826 0.930 . S
C1836 C1835 1.400 . S
C1836 C1839 1.386 . S
H1837 C1853 0.930 . S
H1838 C1854 0.931 . S
C1839 H1827 0.929 . S
C1839 C1833 1.390 . S
C1839 C1836 1.386 . S
C1840 C1835 1.490 . S
C1840 C1842 1.395 . S
C1840 C1843 1.403 . S
H1841 C1847 0.930 . S
C1842 H1828 0.930 . S
C1842 C1840 1.395 . S
C1842 C1845 1.403 . S
C1843 C1840 1.403 . S
C1843 C1844 1.524 . S
C1843 C1847 1.400 . S
C1844 H1829 0.960 . S
C1844 H1830 0.960 . S
C1844 H1831 0.960 . S
C1844 C1843 1.524 . S
C1845 C1842 1.403 . S
C1845 C1846 1.392 . S
C1845 C1849 1.495 . S
C1846 C1845 1.392 . S
C1846 C1847 1.385 . S
C1846 C1848 1.478 . S
C1847 H1841 0.930 . S
C1847 C1843 1.400 . S
C1847 C1846 1.385 . S
C1848 C1846 1.478 . S
C1848 C1850 1.381 . S
C1848 C1854 1.383 . S
C1849 C1845 1.495 . S
C1849 H1855 0.959 . S
C1849 H1856 0.961 . S
C1849 H1857 0.960 . S
C1850 C1848 1.381 . S
C1850 C1851 1.394 1_556 S
C1850 H1858 0.930 . S
C1851 C1850 1.394 1_554 S
C1851 C1852 1.383 . S
C1851 H1859 0.929 . S
C1852 C1851 1.383 . S
C1852 C1853 1.377 . S
C1853 H1837 0.930 . S
C1853 C1852 1.377 . S
C1853 C1854 1.379 1_554 S
C1854 H1838 0.931 . S
C1854 C1848 1.383 . S
C1854 C1853 1.379 1_556 S
H1855 C1849 0.959 . S
H1856 C1849 0.961 . S
H1857 C1849 0.960 . S
H1858 C1850 0.930 . S
H1859 C1851 0.929 . S
H1860 C1868 0.929 . S
H1861 C1870 0.930 . S
H1862 C1872 0.930 . S
H1863 C1875 0.929 . S
H1864 C1878 0.930 . S
H1865 C1880 0.960 . S
H1866 C1880 0.960 . S
H1867 C1880 0.960 . S
C1868 H1860 0.929 . S
C1868 C1869 1.377 . S
C1868 C1870 1.384 . S
C1869 C1868 1.377 . S
C1869 C1875 1.390 . S
C1870 H1861 0.930 . S
C1870 C1868 1.384 . S
C1870 C1871 1.372 . S
C1871 C1870 1.372 . S
C1871 C1872 1.400 . S
C1871 C1876 1.490 . S
C1872 H1862 0.930 . S
C1872 C1871 1.400 . S
C1872 C1875 1.386 . S
H1873 C1889 0.930 . S
H1874 C1890 0.931 . S
C1875 H1863 0.929 . S
C1875 C1869 1.390 . S
C1875 C1872 1.386 . S
C1876 C1871 1.490 . S
C1876 C1878 1.395 . S
C1876 C1879 1.403 . S
H1877 C1883 0.930 . S
C1878 H1864 0.930 . S
C1878 C1876 1.395 . S
C1878 C1881 1.403 . S
C1879 C1876 1.403 . S
C1879 C1880 1.524 . S
C1879 C1883 1.400 . S
C1880 H1865 0.960 . S
C1880 H1866 0.960 . S
C1880 H1867 0.960 . S
C1880 C1879 1.524 . S
C1881 C1878 1.403 . S
C1881 C1882 1.392 . S
C1881 C1885 1.495 . S
C1882 C1881 1.392 . S
C1882 C1883 1.385 . S
C1882 C1884 1.478 . S
C1883 H1877 0.930 . S
C1883 C1879 1.400 . S
C1883 C1882 1.385 . S
C1884 C1882 1.478 . S
C1884 C1886 1.381 . S
C1884 C1890 1.383 . S
C1885 C1881 1.495 . S
C1885 H1891 0.959 . S
C1885 H1892 0.961 . S
C1885 H1893 0.960 . S
C1886 C1884 1.381 . S
C1886 C1887 1.394 . S
C1886 H1894 0.930 . S
C1887 C1886 1.394 . S
C1887 C1888 1.383 . S
C1887 H1895 0.929 . S
C1888 C1887 1.383 . S
C1888 C1889 1.377 . S
C1889 H1873 0.930 . S
C1889 C1888 1.377 . S
C1889 C1890 1.379 . S
C1890 H1874 0.931 . S
C1890 C1884 1.383 . S
C1890 C1889 1.379 . S
H1891 C1885 0.959 . S
H1892 C1885 0.961 . S
H1893 C1885 0.960 . S
H1894 C1886 0.930 . S
H1895 C1887 0.929 . S
H1896 C1904 0.929 . S
H1897 C1906 0.930 . S
H1898 C1908 0.930 . S
H1899 C1911 0.929 . S
H1900 C1914 0.930 . S
H1901 C1916 0.960 . S
H1902 C1916 0.960 . S
H1903 C1916 0.960 . S
C1904 H1896 0.929 . S
C1904 C1905 1.377 . S
C1904 C1906 1.384 . S
C1905 C1904 1.377 . S
C1905 C1911 1.390 . S
C1906 H1897 0.930 . S
C1906 C1904 1.384 . S
C1906 C1907 1.372 . S
C1907 C1906 1.372 . S
C1907 C1908 1.400 . S
C1907 C1912 1.490 . S
C1908 H1898 0.930 . S
C1908 C1907 1.400 . S
C1908 C1911 1.386 . S
H1909 C1925 0.930 . S
H1910 C1926 0.931 . S
C1911 H1899 0.929 . S
C1911 C1905 1.390 . S
C1911 C1908 1.386 . S
C1912 C1907 1.490 . S
C1912 C1914 1.395 . S
C1912 C1915 1.403 . S
H1913 C1919 0.930 . S
C1914 H1900 0.930 . S
C1914 C1912 1.395 . S
C1914 C1917 1.403 . S
C1915 C1912 1.403 . S
C1915 C1916 1.524 . S
C1915 C1919 1.400 . S
C1916 H1901 0.960 . S
C1916 H1902 0.960 . S
C1916 H1903 0.960 . S
C1916 C1915 1.524 . S
C1917 C1914 1.403 . S
C1917 C1918 1.392 . S
C1917 C1921 1.495 . S
C1918 C1917 1.392 . S
C1918 C1919 1.385 . S
C1918 C1920 1.478 . S
C1919 H1913 0.930 . S
C1919 C1915 1.400 . S
C1919 C1918 1.385 . S
C1920 C1918 1.478 . S
C1920 C1922 1.381 . S
C1920 C1926 1.383 . S
C1921 C1917 1.495 . S
C1921 H1927 0.959 . S
C1921 H1928 0.961 . S
C1921 H1929 0.960 . S
C1922 C1920 1.381 . S
C1922 C1923 1.394 1_554 S
C1922 H1930 0.930 . S
C1923 C1922 1.394 1_556 S
C1923 C1924 1.383 . S
C1923 H1931 0.929 . S
C1924 C1923 1.383 . S
C1924 C1925 1.377 . S
C1925 H1909 0.930 . S
C1925 C1924 1.377 . S
C1925 C1926 1.379 1_556 S
C1926 H1910 0.931 . S
C1926 C1920 1.383 . S
C1926 C1925 1.379 1_554 S
H1927 C1921 0.959 . S
H1928 C1921 0.961 . S
H1929 C1921 0.960 . S
H1930 C1922 0.930 . S
H1931 C1923 0.929 . S
H1932 C1940 0.929 . S
H1933 C1942 0.930 . S
H1934 C1944 0.930 . S
H1935 C1947 0.929 . S
H1936 C1950 0.930 . S
H1937 C1952 0.960 . S
H1938 C1952 0.960 . S
H1939 C1952 0.960 . S
C1940 H1932 0.929 . S
C1940 C1941 1.377 . S
C1940 C1942 1.384 . S
C1941 C1940 1.377 . S
C1941 C1947 1.390 . S
C1942 H1933 0.930 . S
C1942 C1940 1.384 . S
C1942 C1943 1.372 . S
C1943 C1942 1.372 . S
C1943 C1944 1.400 . S
C1943 C1948 1.490 . S
C1944 H1934 0.930 . S
C1944 C1943 1.400 . S
C1944 C1947 1.386 . S
H1945 C1961 0.930 . S
H1946 C1962 0.931 . S
C1947 H1935 0.929 . S
C1947 C1941 1.390 . S
C1947 C1944 1.386 . S
C1948 C1943 1.490 . S
C1948 C1950 1.395 . S
C1948 C1951 1.403 . S
H1949 C1955 0.930 . S
C1950 H1936 0.930 . S
C1950 C1948 1.395 . S
C1950 C1953 1.403 . S
C1951 C1948 1.403 . S
C1951 C1952 1.524 . S
C1951 C1955 1.400 . S
C1952 H1937 0.960 . S
C1952 H1938 0.960 . S
C1952 H1939 0.960 . S
C1952 C1951 1.524 . S
C1953 C1950 1.403 . S
C1953 C1954 1.392 . S
C1953 C1957 1.495 . S
C1954 C1953 1.392 . S
C1954 C1955 1.385 . S
C1954 C1956 1.478 . S
C1955 H1949 0.930 . S
C1955 C1951 1.400 . S
C1955 C1954 1.385 . S
C1956 C1954 1.478 . S
C1956 C1958 1.381 . S
C1956 C1962 1.383 . S
C1957 C1953 1.495 . S
C1957 H1963 0.959 . S
C1957 H1964 0.961 . S
C1957 H1965 0.960 . S
C1958 C1956 1.381 . S
C1958 C1959 1.394 . S
C1958 H1966 0.930 . S
C1959 C1958 1.394 . S
C1959 C1960 1.383 . S
C1959 H1967 0.929 . S
C1960 C1959 1.383 . S
C1960 C1961 1.377 . S
C1961 H1945 0.930 . S
C1961 C1960 1.377 . S
C1961 C1962 1.379 . S
C1962 H1946 0.931 . S
C1962 C1956 1.383 . S
C1962 C1961 1.379 . S
H1963 C1957 0.959 . S
H1964 C1957 0.961 . S
H1965 C1957 0.960 . S
H1966 C1958 0.930 . S
H1967 C1959 0.929 . S
H1968 C1976 0.929 . S
H1969 C1978 0.930 . S
H1970 C1980 0.930 . S
H1971 C1983 0.929 . S
H1972 C1986 0.930 . S
H1973 C1988 0.960 . S
H1974 C1988 0.960 . S
H1975 C1988 0.960 . S
C1976 H1968 0.929 . S
C1976 C1977 1.377 . S
C1976 C1978 1.384 1_455 S
C1977 C1976 1.377 . S
C1977 C1983 1.390 . S
C1978 H1969 0.930 . S
C1978 C1976 1.384 1_655 S
C1978 C1979 1.372 . S
C1979 C1978 1.372 . S
C1979 C1980 1.400 . S
C1979 C1984 1.490 . S
C1980 H1970 0.930 . S
C1980 C1979 1.400 . S
C1980 C1983 1.386 1_655 S
H1981 C1997 0.930 . S
H1982 C1998 0.931 . S
C1983 H1971 0.929 . S
C1983 C1977 1.390 . S
C1983 C1980 1.386 1_455 S
C1984 C1979 1.490 . S
C1984 C1986 1.395 . S
C1984 C1987 1.403 . S
H1985 C1991 0.930 . S
C1986 H1972 0.930 . S
C1986 C1984 1.395 . S
C1986 C1989 1.403 . S
C1987 C1984 1.403 . S
C1987 C1988 1.524 . S
C1987 C1991 1.400 . S
C1988 H1973 0.960 . S
C1988 H1974 0.960 . S
C1988 H1975 0.960 . S
C1988 C1987 1.524 . S
C1989 C1986 1.403 . S
C1989 C1990 1.392 . S
C1989 C1993 1.495 . S
C1990 C1989 1.392 . S
C1990 C1991 1.385 . S
C1990 C1992 1.478 . S
C1991 H1985 0.930 . S
C1991 C1987 1.400 . S
C1991 C1990 1.385 . S
C1992 C1990 1.478 . S
C1992 C1994 1.381 . S
C1992 C1998 1.383 . S
C1993 C1989 1.495 . S
C1993 H1999 0.959 . S
C1993 H2000 0.961 . S
C1993 H2001 0.960 . S
C1994 C1992 1.381 . S
C1994 C1995 1.394 . S
C1994 H2002 0.930 . S
C1995 C1994 1.394 . S
C1995 C1996 1.383 . S
C1995 H2003 0.929 . S
C1996 C1995 1.383 . S
C1996 C1997 1.377 . S
C1997 H1981 0.930 . S
C1997 C1996 1.377 . S
C1997 C1998 1.379 . S
C1998 H1982 0.931 . S
C1998 C1992 1.383 . S
C1998 C1997 1.379 . S
H1999 C1993 0.959 . S
H2000 C1993 0.961 . S
H2001 C1993 0.960 . S
H2002 C1994 0.930 . S
H2003 C1995 0.929 . S
H2004 C2012 0.929 . S
H2005 C2014 0.930 . S
H2006 C2016 0.930 . S
H2007 C2019 0.929 . S
H2008 C2022 0.930 . S
H2009 C2024 0.960 . S
H2010 C2024 0.960 . S
H2011 C2024 0.960 . S
C2012 H2004 0.929 . S
C2012 C2013 1.377 . S
C2012 C2014 1.384 . S
C2013 C2012 1.377 . S
C2013 C2019 1.390 . S
C2014 H2005 0.930 . S
C2014 C2012 1.384 . S
C2014 C2015 1.372 . S
C2015 C2014 1.372 . S
C2015 C2016 1.400 . S
C2015 C2020 1.490 . S
C2016 H2006 0.930 . S
C2016 C2015 1.400 . S
C2016 C2019 1.386 . S
H2017 C2033 0.930 . S
H2018 C2034 0.931 . S
C2019 H2007 0.929 . S
C2019 C2013 1.390 . S
C2019 C2016 1.386 . S
C2020 C2015 1.490 . S
C2020 C2022 1.395 . S
C2020 C2023 1.403 . S
H2021 C2027 0.930 . S
C2022 H2008 0.930 . S
C2022 C2020 1.395 . S
C2022 C2025 1.403 . S
C2023 C2020 1.403 . S
C2023 C2024 1.524 . S
C2023 C2027 1.400 . S
C2024 H2009 0.960 . S
C2024 H2010 0.960 . S
C2024 H2011 0.960 . S
C2024 C2023 1.524 . S
C2025 C2022 1.403 . S
C2025 C2026 1.392 . S
C2025 C2029 1.495 . S
C2026 C2025 1.392 . S
C2026 C2027 1.385 . S
C2026 C2028 1.478 . S
C2027 H2021 0.930 . S
C2027 C2023 1.400 . S
C2027 C2026 1.385 . S
C2028 C2026 1.478 . S
C2028 C2030 1.381 . S
C2028 C2034 1.383 . S
C2029 C2025 1.495 . S
C2029 H2035 0.959 . S
C2029 H2036 0.961 . S
C2029 H2037 0.960 . S
C2030 C2028 1.381 . S
C2030 C2031 1.394 . S
C2030 H2038 0.930 . S
C2031 C2030 1.394 . S
C2031 C2032 1.383 . S
C2031 H2039 0.929 . S
C2032 C2031 1.383 . S
C2032 C2033 1.377 . S
C2033 H2017 0.930 . S
C2033 C2032 1.377 . S
C2033 C2034 1.379 . S
C2034 H2018 0.931 . S
C2034 C2028 1.383 . S
C2034 C2033 1.379 . S
H2035 C2029 0.959 . S
H2036 C2029 0.961 . S
H2037 C2029 0.960 . S
H2038 C2030 0.930 . S
H2039 C2031 0.929 . S
H2040 C2048 0.929 . S
H2041 C2050 0.930 . S
H2042 C2052 0.930 . S
H2043 C2055 0.929 . S
H2044 C2058 0.930 . S
H2045 C2060 0.960 . S
H2046 C2060 0.960 . S
H2047 C2060 0.960 . S
C2048 H2040 0.929 . S
C2048 C2049 1.377 . S
C2048 C2050 1.384 . S
C2049 C2048 1.377 . S
C2049 C2055 1.390 . S
C2050 H2041 0.930 . S
C2050 C2048 1.384 . S
C2050 C2051 1.372 . S
C2051 C2050 1.372 . S
C2051 C2052 1.400 . S
C2051 C2056 1.490 . S
C2052 H2042 0.930 . S
C2052 C2051 1.400 . S
C2052 C2055 1.386 . S
H2053 C2069 0.930 . S
H2054 C2070 0.931 . S
C2055 H2043 0.929 . S
C2055 C2049 1.390 . S
C2055 C2052 1.386 . S
C2056 C2051 1.490 . S
C2056 C2058 1.395 . S
C2056 C2059 1.403 . S
H2057 C2063 0.930 . S
C2058 H2044 0.930 . S
C2058 C2056 1.395 . S
C2058 C2061 1.403 . S
C2059 C2056 1.403 . S
C2059 C2060 1.524 . S
C2059 C2063 1.400 . S
C2060 H2045 0.960 . S
C2060 H2046 0.960 . S
C2060 H2047 0.960 . S
C2060 C2059 1.524 . S
C2061 C2058 1.403 . S
C2061 C2062 1.392 . S
C2061 C2065 1.495 . S
C2062 C2061 1.392 . S
C2062 C2063 1.385 . S
C2062 C2064 1.478 . S
C2063 H2057 0.930 . S
C2063 C2059 1.400 . S
C2063 C2062 1.385 . S
C2064 C2062 1.478 . S
C2064 C2066 1.381 . S
C2064 C2070 1.383 . S
C2065 C2061 1.495 . S
C2065 H2071 0.959 . S
C2065 H2072 0.961 . S
C2065 H2073 0.960 . S
C2066 C2064 1.381 . S
C2066 C2067 1.394 . S
C2066 H2074 0.930 . S
C2067 C2066 1.394 . S
C2067 C2068 1.383 . S
C2067 H2075 0.929 . S
C2068 C2067 1.383 . S
C2068 C2069 1.377 . S
C2069 H2053 0.930 . S
C2069 C2068 1.377 . S
C2069 C2070 1.379 . S
C2070 H2054 0.931 . S
C2070 C2064 1.383 . S
C2070 C2069 1.379 . S
H2071 C2065 0.959 . S
H2072 C2065 0.961 . S
H2073 C2065 0.960 . S
H2074 C2066 0.930 . S
H2075 C2067 0.929 . S
H2076 C2084 0.929 . S
H2077 C2086 0.930 . S
H2078 C2088 0.930 . S
H2079 C2091 0.929 . S
H2080 C2094 0.930 . S
H2081 C2096 0.960 . S
H2082 C2096 0.960 . S
H2083 C2096 0.960 . S
C2084 H2076 0.929 . S
C2084 C2085 1.377 . S
C2084 C2086 1.384 . S
C2085 C2084 1.377 . S
C2085 C2091 1.390 . S
C2086 H2077 0.930 . S
C2086 C2084 1.384 . S
C2086 C2087 1.372 . S
C2087 C2086 1.372 . S
C2087 C2088 1.400 . S
C2087 C2092 1.490 . S
C2088 H2078 0.930 . S
C2088 C2087 1.400 . S
C2088 C2091 1.386 . S
H2089 C2105 0.930 . S
H2090 C2106 0.931 . S
C2091 H2079 0.929 . S
C2091 C2085 1.390 . S
C2091 C2088 1.386 . S
C2092 C2087 1.490 . S
C2092 C2094 1.395 . S
C2092 C2095 1.403 . S
H2093 C2099 0.930 . S
C2094 H2080 0.930 . S
C2094 C2092 1.395 . S
C2094 C2097 1.403 . S
C2095 C2092 1.403 . S
C2095 C2096 1.524 . S
C2095 C2099 1.400 . S
C2096 H2081 0.960 . S
C2096 H2082 0.960 . S
C2096 H2083 0.960 . S
C2096 C2095 1.524 . S
C2097 C2094 1.403 . S
C2097 C2098 1.392 . S
C2097 C2101 1.495 . S
C2098 C2097 1.392 . S
C2098 C2099 1.385 . S
C2098 C2100 1.478 . S
C2099 H2093 0.930 . S
C2099 C2095 1.400 . S
C2099 C2098 1.385 . S
C2100 C2098 1.478 . S
C2100 C2102 1.381 . S
C2100 C2106 1.383 . S
C2101 C2097 1.495 . S
C2101 H2107 0.959 . S
C2101 H2108 0.961 . S
C2101 H2109 0.960 . S
C2102 C2100 1.381 . S
C2102 C2103 1.394 1_455 S
C2102 H2110 0.930 . S
C2103 C2102 1.394 1_655 S
C2103 C2104 1.383 . S
C2103 H2111 0.929 . S
C2104 C2103 1.383 . S
C2104 C2105 1.377 . S
C2105 H2089 0.930 . S
C2105 C2104 1.377 . S
C2105 C2106 1.379 1_655 S
C2106 H2090 0.931 . S
C2106 C2100 1.383 . S
C2106 C2105 1.379 1_455 S
H2107 C2101 0.959 . S
H2108 C2101 0.961 . S
H2109 C2101 0.960 . S
H2110 C2102 0.930 . S
H2111 C2103 0.929 . S
H2112 C2120 0.929 . S
H2113 C2122 0.930 . S
H2114 C2124 0.930 . S
H2115 C2127 0.929 . S
H2116 C2130 0.930 . S
H2117 C2132 0.960 . S
H2118 C2132 0.960 . S
H2119 C2132 0.960 . S
C2120 H2112 0.929 . S
C2120 C2121 1.377 . S
C2120 C2122 1.384 1_545 S
C2121 C2120 1.377 . S
C2121 C2127 1.390 . S
C2122 H2113 0.930 . S
C2122 C2120 1.384 1_565 S
C2122 C2123 1.372 . S
C2123 C2122 1.372 . S
C2123 C2124 1.400 . S
C2123 C2128 1.490 . S
C2124 H2114 0.930 . S
C2124 C2123 1.400 . S
C2124 C2127 1.386 1_565 S
H2125 C2141 0.930 . S
H2126 C2142 0.931 . S
C2127 H2115 0.929 . S
C2127 C2121 1.390 . S
C2127 C2124 1.386 1_545 S
C2128 C2123 1.490 . S
C2128 C2130 1.395 . S
C2128 C2131 1.403 . S
H2129 C2135 0.930 . S
C2130 H2116 0.930 . S
C2130 C2128 1.395 . S
C2130 C2133 1.403 . S
C2131 C2128 1.403 . S
C2131 C2132 1.524 . S
C2131 C2135 1.400 . S
C2132 H2117 0.960 . S
C2132 H2118 0.960 . S
C2132 H2119 0.960 . S
C2132 C2131 1.524 . S
C2133 C2130 1.403 . S
C2133 C2134 1.392 . S
C2133 C2137 1.495 . S
C2134 C2133 1.392 . S
C2134 C2135 1.385 . S
C2134 C2136 1.478 . S
C2135 H2129 0.930 . S
C2135 C2131 1.400 . S
C2135 C2134 1.385 . S
C2136 C2134 1.478 . S
C2136 C2138 1.381 . S
C2136 C2142 1.383 . S
C2137 C2133 1.495 . S
C2137 H2143 0.959 . S
C2137 H2144 0.961 . S
C2137 H2145 0.960 . S
C2138 C2136 1.381 . S
C2138 C2139 1.394 . S
C2138 H2146 0.930 . S
C2139 C2138 1.394 . S
C2139 C2140 1.383 . S
C2139 H2147 0.929 . S
C2140 C2139 1.383 . S
C2140 C2141 1.377 . S
C2141 H2125 0.930 . S
C2141 C2140 1.377 . S
C2141 C2142 1.379 . S
C2142 H2126 0.931 . S
C2142 C2136 1.383 . S
C2142 C2141 1.379 . S
H2143 C2137 0.959 . S
H2144 C2137 0.961 . S
H2145 C2137 0.960 . S
H2146 C2138 0.930 . S
H2147 C2139 0.929 . S
H2148 C2156 0.929 . S
H2149 C2158 0.930 . S
H2150 C2160 0.930 . S
H2151 C2163 0.929 . S
H2152 C2166 0.930 . S
H2153 C2168 0.960 . S
H2154 C2168 0.960 . S
H2155 C2168 0.960 . S
C2156 H2148 0.929 . S
C2156 C2157 1.377 . S
C2156 C2158 1.384 . S
C2157 C2156 1.377 . S
C2157 C2163 1.390 . S
C2158 H2149 0.930 . S
C2158 C2156 1.384 . S
C2158 C2159 1.372 . S
C2159 C2158 1.372 . S
C2159 C2160 1.400 . S
C2159 C2164 1.490 . S
C2160 H2150 0.930 . S
C2160 C2159 1.400 . S
C2160 C2163 1.386 . S
H2161 C2177 0.930 . S
H2162 C2178 0.931 . S
C2163 H2151 0.929 . S
C2163 C2157 1.390 . S
C2163 C2160 1.386 . S
C2164 C2159 1.490 . S
C2164 C2166 1.395 . S
C2164 C2167 1.403 . S
H2165 C2171 0.930 . S
C2166 H2152 0.930 . S
C2166 C2164 1.395 . S
C2166 C2169 1.403 . S
C2167 C2164 1.403 . S
C2167 C2168 1.524 . S
C2167 C2171 1.400 . S
C2168 H2153 0.960 . S
C2168 H2154 0.960 . S
C2168 H2155 0.960 . S
C2168 C2167 1.524 . S
C2169 C2166 1.403 . S
C2169 C2170 1.392 . S
C2169 C2173 1.495 . S
C2170 C2169 1.392 . S
C2170 C2171 1.385 . S
C2170 C2172 1.478 . S
C2171 H2165 0.930 . S
C2171 C2167 1.400 . S
C2171 C2170 1.385 . S
C2172 C2170 1.478 . S
C2172 C2174 1.381 . S
C2172 C2178 1.383 . S
C2173 C2169 1.495 . S
C2173 H2179 0.959 . S
C2173 H2180 0.961 . S
C2173 H2181 0.960 . S
C2174 C2172 1.381 . S
C2174 C2175 1.394 . S
C2174 H2182 0.930 . S
C2175 C2174 1.394 . S
C2175 C2176 1.383 . S
C2175 H2183 0.929 . S
C2176 C2175 1.383 . S
C2176 C2177 1.377 . S
C2177 H2161 0.930 . S
C2177 C2176 1.377 . S
C2177 C2178 1.379 . S
C2178 H2162 0.931 . S
C2178 C2172 1.383 . S
C2178 C2177 1.379 . S
H2179 C2173 0.959 . S
H2180 C2173 0.961 . S
H2181 C2173 0.960 . S
H2182 C2174 0.930 . S
H2183 C2175 0.929 . S
H2184 C2192 0.929 . S
H2185 C2194 0.930 . S
H2186 C2196 0.930 . S
H2187 C2199 0.929 . S
H2188 C2202 0.930 . S
H2189 C2204 0.960 . S
H2190 C2204 0.960 . S
H2191 C2204 0.960 . S
C2192 H2184 0.929 . S
C2192 C2193 1.377 . S
C2192 C2194 1.384 . S
C2193 C2192 1.377 . S
C2193 C2199 1.390 . S
C2194 H2185 0.930 . S
C2194 C2192 1.384 . S
C2194 C2195 1.372 . S
C2195 C2194 1.372 . S
C2195 C2196 1.400 . S
C2195 C2200 1.490 . S
C2196 H2186 0.930 . S
C2196 C2195 1.400 . S
C2196 C2199 1.386 . S
H2197 C2213 0.930 . S
H2198 C2214 0.931 . S
C2199 H2187 0.929 . S
C2199 C2193 1.390 . S
C2199 C2196 1.386 . S
C2200 C2195 1.490 . S
C2200 C2202 1.395 . S
C2200 C2203 1.403 . S
H2201 C2207 0.930 . S
C2202 H2188 0.930 . S
C2202 C2200 1.395 . S
C2202 C2205 1.403 . S
C2203 C2200 1.403 . S
C2203 C2204 1.524 . S
C2203 C2207 1.400 . S
C2204 H2189 0.960 . S
C2204 H2190 0.960 . S
C2204 H2191 0.960 . S
C2204 C2203 1.524 . S
C2205 C2202 1.403 . S
C2205 C2206 1.392 . S
C2205 C2209 1.495 . S
C2206 C2205 1.392 . S
C2206 C2207 1.385 . S
C2206 C2208 1.478 . S
C2207 H2201 0.930 . S
C2207 C2203 1.400 . S
C2207 C2206 1.385 . S
C2208 C2206 1.478 . S
C2208 C2210 1.381 . S
C2208 C2214 1.383 . S
C2209 C2205 1.495 . S
C2209 H2215 0.959 . S
C2209 H2216 0.961 . S
C2209 H2217 0.960 . S
C2210 C2208 1.381 . S
C2210 C2211 1.394 . S
C2210 H2218 0.930 . S
C2211 C2210 1.394 . S
C2211 C2212 1.383 . S
C2211 H2219 0.929 . S
C2212 C2211 1.383 . S
C2212 C2213 1.377 . S
C2213 H2197 0.930 . S
C2213 C2212 1.377 . S
C2213 C2214 1.379 . S
C2214 H2198 0.931 . S
C2214 C2208 1.383 . S
C2214 C2213 1.379 . S
H2215 C2209 0.959 . S
H2216 C2209 0.961 . S
H2217 C2209 0.960 . S
H2218 C2210 0.930 . S
H2219 C2211 0.929 . S
H2220 C2228 0.929 . S
H2221 C2230 0.930 . S
H2222 C2232 0.930 . S
H2223 C2235 0.929 . S
H2224 C2238 0.930 . S
H2225 C2240 0.960 . S
H2226 C2240 0.960 . S
H2227 C2240 0.960 . S
C2228 H2220 0.929 . S
C2228 C2229 1.377 . S
C2228 C2230 1.384 . S
C2229 C2228 1.377 . S
C2229 C2235 1.390 . S
C2230 H2221 0.930 . S
C2230 C2228 1.384 . S
C2230 C2231 1.372 . S
C2231 C2230 1.372 . S
C2231 C2232 1.400 . S
C2231 C2236 1.490 . S
C2232 H2222 0.930 . S
C2232 C2231 1.400 . S
C2232 C2235 1.386 . S
H2233 C2249 0.930 . S
H2234 C2250 0.931 . S
C2235 H2223 0.929 . S
C2235 C2229 1.390 . S
C2235 C2232 1.386 . S
C2236 C2231 1.490 . S
C2236 C2238 1.395 . S
C2236 C2239 1.403 . S
H2237 C2243 0.930 . S
C2238 H2224 0.930 . S
C2238 C2236 1.395 . S
C2238 C2241 1.403 . S
C2239 C2236 1.403 . S
C2239 C2240 1.524 . S
C2239 C2243 1.400 . S
C2240 H2225 0.960 . S
C2240 H2226 0.960 . S
C2240 H2227 0.960 . S
C2240 C2239 1.524 . S
C2241 C2238 1.403 . S
C2241 C2242 1.392 . S
C2241 C2245 1.495 . S
C2242 C2241 1.392 . S
C2242 C2243 1.385 . S
C2242 C2244 1.478 . S
C2243 H2237 0.930 . S
C2243 C2239 1.400 . S
C2243 C2242 1.385 . S
C2244 C2242 1.478 . S
C2244 C2246 1.381 . S
C2244 C2250 1.383 . S
C2245 C2241 1.495 . S
C2245 H2251 0.959 . S
C2245 H2252 0.961 . S
C2245 H2253 0.960 . S
C2246 C2244 1.381 . S
C2246 C2247 1.394 1_545 S
C2246 H2254 0.930 . S
C2247 C2246 1.394 1_565 S
C2247 C2248 1.383 . S
C2247 H2255 0.929 . S
C2248 C2247 1.383 . S
C2248 C2249 1.377 . S
C2249 H2233 0.930 . S
C2249 C2248 1.377 . S
C2249 C2250 1.379 1_565 S
C2250 H2234 0.931 . S
C2250 C2244 1.383 . S
C2250 C2249 1.379 1_545 S
H2251 C2245 0.959 . S
H2252 C2245 0.961 . S
H2253 C2245 0.960 . S
H2254 C2246 0.930 . S
H2255 C2247 0.929 . S
H2256 C2264 0.929 . S
H2257 C2266 0.930 . S
H2258 C2268 0.930 . S
H2259 C2271 0.929 . S
H2260 C2274 0.930 . S
H2261 C2276 0.960 . S
H2262 C2276 0.960 . S
H2263 C2276 0.960 . S
C2264 H2256 0.929 . S
C2264 C2265 1.377 . S
C2264 C2266 1.384 . S
C2265 C2264 1.377 . S
C2265 C2271 1.390 . S
C2266 H2257 0.930 . S
C2266 C2264 1.384 . S
C2266 C2267 1.372 . S
C2267 C2266 1.372 . S
C2267 C2268 1.400 . S
C2267 C2272 1.490 . S
C2268 H2258 0.930 . S
C2268 C2267 1.400 . S
C2268 C2271 1.386 . S
H2269 C2285 0.930 . S
H2270 C2286 0.931 . S
C2271 H2259 0.929 . S
C2271 C2265 1.390 . S
C2271 C2268 1.386 . S
C2272 C2267 1.490 . S
C2272 C2274 1.395 . S
C2272 C2275 1.403 . S
H2273 C2279 0.930 . S
C2274 H2260 0.930 . S
C2274 C2272 1.395 . S
C2274 C2277 1.403 . S
C2275 C2272 1.403 . S
C2275 C2276 1.524 . S
C2275 C2279 1.400 . S
C2276 H2261 0.960 . S
C2276 H2262 0.960 . S
C2276 H2263 0.960 . S
C2276 C2275 1.524 . S
C2277 C2274 1.403 . S
C2277 C2278 1.392 . S
C2277 C2281 1.495 . S
C2278 C2277 1.392 . S
C2278 C2279 1.385 . S
C2278 C2280 1.478 . S
C2279 H2273 0.930 . S
C2279 C2275 1.400 . S
C2279 C2278 1.385 . S
C2280 C2278 1.478 . S
C2280 C2282 1.381 . S
C2280 C2286 1.383 . S
C2281 C2277 1.495 . S
C2281 H2287 0.959 . S
C2281 H2288 0.961 . S
C2281 H2289 0.960 . S
C2282 C2280 1.381 . S
C2282 C2283 1.394 . S
C2282 H2290 0.930 . S
C2283 C2282 1.394 . S
C2283 C2284 1.383 . S
C2283 H2291 0.929 . S
C2284 C2283 1.383 . S
C2284 C2285 1.377 . S
C2285 H2269 0.930 . S
C2285 C2284 1.377 . S
C2285 C2286 1.379 . S
C2286 H2270 0.931 . S
C2286 C2280 1.383 . S
C2286 C2285 1.379 . S
H2287 C2281 0.959 . S
H2288 C2281 0.961 . S
H2289 C2281 0.960 . S
H2290 C2282 0.930 . S
H2291 C2283 0.929 . S
H2292 C2300 0.929 . S
H2293 C2302 0.930 . S
H2294 C2304 0.930 . S
H2295 C2307 0.929 . S
H2296 C2310 0.930 . S
H2297 C2312 0.960 . S
H2298 C2312 0.960 . S
H2299 C2312 0.960 . S
C2300 H2292 0.929 . S
C2300 C2301 1.377 . S
C2300 C2302 1.384 . S
C2301 C2300 1.377 . S
C2301 C2307 1.390 . S
C2302 H2293 0.930 . S
C2302 C2300 1.384 . S
C2302 C2303 1.372 . S
C2303 C2302 1.372 . S
C2303 C2304 1.400 . S
C2303 C2308 1.490 . S
C2304 H2294 0.930 . S
C2304 C2303 1.400 . S
C2304 C2307 1.386 . S
H2305 C2321 0.930 . S
H2306 C2322 0.931 . S
C2307 H2295 0.929 . S
C2307 C2301 1.390 . S
C2307 C2304 1.386 . S
C2308 C2303 1.490 . S
C2308 C2310 1.395 . S
C2308 C2311 1.403 . S
H2309 C2315 0.930 . S
C2310 H2296 0.930 . S
C2310 C2308 1.395 . S
C2310 C2313 1.403 . S
C2311 C2308 1.403 . S
C2311 C2312 1.524 . S
C2311 C2315 1.400 . S
C2312 H2297 0.960 . S
C2312 H2298 0.960 . S
C2312 H2299 0.960 . S
C2312 C2311 1.524 . S
C2313 C2310 1.403 . S
C2313 C2314 1.392 . S
C2313 C2317 1.495 . S
C2314 C2313 1.392 . S
C2314 C2315 1.385 . S
C2314 C2316 1.478 . S
C2315 H2309 0.930 . S
C2315 C2311 1.400 . S
C2315 C2314 1.385 . S
C2316 C2314 1.478 . S
C2316 C2318 1.381 . S
C2316 C2322 1.383 . S
C2317 C2313 1.495 . S
C2317 H2323 0.959 . S
C2317 H2324 0.961 . S
C2317 H2325 0.960 . S
C2318 C2316 1.381 . S
C2318 C2319 1.394 . S
C2318 H2326 0.930 . S
C2319 C2318 1.394 . S
C2319 C2320 1.383 . S
C2319 H2327 0.929 . S
C2320 C2319 1.383 . S
C2320 C2321 1.377 . S
C2321 H2305 0.930 . S
C2321 C2320 1.377 . S
C2321 C2322 1.379 . S
C2322 H2306 0.931 . S
C2322 C2316 1.383 . S
C2322 C2321 1.379 . S
H2323 C2317 0.959 . S
H2324 C2317 0.961 . S
H2325 C2317 0.960 . S
H2326 C2318 0.930 . S
H2327 C2319 0.929 . S
H2328 C2336 0.929 . S
H2329 C2338 0.930 . S
H2330 C2340 0.930 . S
H2331 C2343 0.929 . S
H2332 C2346 0.930 . S
H2333 C2348 0.960 . S
H2334 C2348 0.960 . S
H2335 C2348 0.960 . S
C2336 H2328 0.929 . S
C2336 C2337 1.377 . S
C2336 C2338 1.384 . S
C2337 C2336 1.377 . S
C2337 C2343 1.390 . S
C2338 H2329 0.930 . S
C2338 C2336 1.384 . S
C2338 C2339 1.372 . S
C2339 C2338 1.372 . S
C2339 C2340 1.400 . S
C2339 C2344 1.490 . S
C2340 H2330 0.930 . S
C2340 C2339 1.400 . S
C2340 C2343 1.386 . S
H2341 C2357 0.930 . S
H2342 C2358 0.931 . S
C2343 H2331 0.929 . S
C2343 C2337 1.390 . S
C2343 C2340 1.386 . S
C2344 C2339 1.490 . S
C2344 C2346 1.395 . S
C2344 C2347 1.403 . S
H2345 C2351 0.930 . S
C2346 H2332 0.930 . S
C2346 C2344 1.395 . S
C2346 C2349 1.403 . S
C2347 C2344 1.403 . S
C2347 C2348 1.524 . S
C2347 C2351 1.400 . S
C2348 H2333 0.960 . S
C2348 H2334 0.960 . S
C2348 H2335 0.960 . S
C2348 C2347 1.524 . S
C2349 C2346 1.403 . S
C2349 C2350 1.392 . S
C2349 C2353 1.495 . S
C2350 C2349 1.392 . S
C2350 C2351 1.385 . S
C2350 C2352 1.478 . S
C2351 H2345 0.930 . S
C2351 C2347 1.400 . S
C2351 C2350 1.385 . S
C2352 C2350 1.478 . S
C2352 C2354 1.381 . S
C2352 C2358 1.383 . S
C2353 C2349 1.495 . S
C2353 H2359 0.959 . S
C2353 H2360 0.961 . S
C2353 H2361 0.960 . S
C2354 C2352 1.381 . S
C2354 C2355 1.394 . S
C2354 H2362 0.930 . S
C2355 C2354 1.394 . S
C2355 C2356 1.383 . S
C2355 H2363 0.929 . S
C2356 C2355 1.383 . S
C2356 C2357 1.377 . S
C2357 H2341 0.930 . S
C2357 C2356 1.377 . S
C2357 C2358 1.379 . S
C2358 H2342 0.931 . S
C2358 C2352 1.383 . S
C2358 C2357 1.379 . S
H2359 C2353 0.959 . S
H2360 C2353 0.961 . S
H2361 C2353 0.960 . S
H2362 C2354 0.930 . S
H2363 C2355 0.929 . S
H2364 C2372 0.929 . S
H2365 C2374 0.930 . S
H2366 C2376 0.930 . S
H2367 C2379 0.929 . S
H2368 C2382 0.930 . S
H2369 C2384 0.960 . S
H2370 C2384 0.960 . S
H2371 C2384 0.960 . S
C2372 H2364 0.929 . S
C2372 C2373 1.377 . S
C2372 C2374 1.384 . S
C2373 C2372 1.377 . S
C2373 C2379 1.390 . S
C2374 H2365 0.930 . S
C2374 C2372 1.384 . S
C2374 C2375 1.372 . S
C2375 C2374 1.372 . S
C2375 C2376 1.400 . S
C2375 C2380 1.490 . S
C2376 H2366 0.930 . S
C2376 C2375 1.400 . S
C2376 C2379 1.386 . S
H2377 C2393 0.930 . S
H2378 C2394 0.931 . S
C2379 H2367 0.929 . S
C2379 C2373 1.390 . S
C2379 C2376 1.386 . S
C2380 C2375 1.490 . S
C2380 C2382 1.395 . S
C2380 C2383 1.403 . S
H2381 C2387 0.930 . S
C2382 H2368 0.930 . S
C2382 C2380 1.395 . S
C2382 C2385 1.403 . S
C2383 C2380 1.403 . S
C2383 C2384 1.524 . S
C2383 C2387 1.400 . S
C2384 H2369 0.960 . S
C2384 H2370 0.960 . S
C2384 H2371 0.960 . S
C2384 C2383 1.524 . S
C2385 C2382 1.403 . S
C2385 C2386 1.392 . S
C2385 C2389 1.495 . S
C2386 C2385 1.392 . S
C2386 C2387 1.385 . S
C2386 C2388 1.478 . S
C2387 H2381 0.930 . S
C2387 C2383 1.400 . S
C2387 C2386 1.385 . S
C2388 C2386 1.478 . S
C2388 C2390 1.381 . S
C2388 C2394 1.383 . S
C2389 C2385 1.495 . S
C2389 H2395 0.959 . S
C2389 H2396 0.961 . S
C2389 H2397 0.960 . S
C2390 C2388 1.381 . S
C2390 C2391 1.394 . S
C2390 H2398 0.930 . S
C2391 C2390 1.394 . S
C2391 C2392 1.383 . S
C2391 H2399 0.929 . S
C2392 C2391 1.383 . S
C2392 C2393 1.377 . S
C2393 H2377 0.930 . S
C2393 C2392 1.377 . S
C2393 C2394 1.379 . S
C2394 H2378 0.931 . S
C2394 C2388 1.383 . S
C2394 C2393 1.379 . S
H2395 C2389 0.959 . S
H2396 C2389 0.961 . S
H2397 C2389 0.960 . S
H2398 C2390 0.930 . S
H2399 C2391 0.929 . S
H2400 C2408 0.929 . S
H2401 C2410 0.930 . S
H2402 C2412 0.930 . S
H2403 C2415 0.929 . S
H2404 C2418 0.930 . S
H2405 C2420 0.960 . S
H2406 C2420 0.960 . S
H2407 C2420 0.960 . S
C2408 H2400 0.929 . S
C2408 C2409 1.377 . S
C2408 C2410 1.384 . S
C2409 C2408 1.377 . S
C2409 C2415 1.390 . S
C2410 H2401 0.930 . S
C2410 C2408 1.384 . S
C2410 C2411 1.372 . S
C2411 C2410 1.372 . S
C2411 C2412 1.400 . S
C2411 C2416 1.490 . S
C2412 H2402 0.930 . S
C2412 C2411 1.400 . S
C2412 C2415 1.386 . S
H2413 C2429 0.930 . S
H2414 C2430 0.931 . S
C2415 H2403 0.929 . S
C2415 C2409 1.390 . S
C2415 C2412 1.386 . S
C2416 C2411 1.490 . S
C2416 C2418 1.395 . S
C2416 C2419 1.403 . S
H2417 C2423 0.930 . S
C2418 H2404 0.930 . S
C2418 C2416 1.395 . S
C2418 C2421 1.403 . S
C2419 C2416 1.403 . S
C2419 C2420 1.524 . S
C2419 C2423 1.400 . S
C2420 H2405 0.960 . S
C2420 H2406 0.960 . S
C2420 H2407 0.960 . S
C2420 C2419 1.524 . S
C2421 C2418 1.403 . S
C2421 C2422 1.392 . S
C2421 C2425 1.495 . S
C2422 C2421 1.392 . S
C2422 C2423 1.385 . S
C2422 C2424 1.478 . S
C2423 H2417 0.930 . S
C2423 C2419 1.400 . S
C2423 C2422 1.385 . S
C2424 C2422 1.478 . S
C2424 C2426 1.381 . S
C2424 C2430 1.383 . S
C2425 C2421 1.495 . S
C2425 H2431 0.959 . S
C2425 H2432 0.961 . S
C2425 H2433 0.960 . S
C2426 C2424 1.381 . S
C2426 C2427 1.394 . S
C2426 H2434 0.930 . S
C2427 C2426 1.394 . S
C2427 C2428 1.383 . S
C2427 H2435 0.929 . S
C2428 C2427 1.383 . S
C2428 C2429 1.377 . S
C2429 H2413 0.930 . S
C2429 C2428 1.377 . S
C2429 C2430 1.379 . S
C2430 H2414 0.931 . S
C2430 C2424 1.383 . S
C2430 C2429 1.379 . S
H2431 C2425 0.959 . S
H2432 C2425 0.961 . S
H2433 C2425 0.960 . S
H2434 C2426 0.930 . S
H2435 C2427 0.929 . S
H2436 C2444 0.929 . S
H2437 C2446 0.930 . S
H2438 C2448 0.930 . S
H2439 C2451 0.929 . S
H2440 C2454 0.930 . S
H2441 C2456 0.960 . S
H2442 C2456 0.960 . S
H2443 C2456 0.960 . S
C2444 H2436 0.929 . S
C2444 C2445 1.377 . S
C2444 C2446 1.384 . S
C2445 C2444 1.377 . S
C2445 C2451 1.390 . S
C2446 H2437 0.930 . S
C2446 C2444 1.384 . S
C2446 C2447 1.372 . S
C2447 C2446 1.372 . S
C2447 C2448 1.400 . S
C2447 C2452 1.490 . S
C2448 H2438 0.930 . S
C2448 C2447 1.400 . S
C2448 C2451 1.386 . S
H2449 C2465 0.930 . S
H2450 C2466 0.931 . S
C2451 H2439 0.929 . S
C2451 C2445 1.390 . S
C2451 C2448 1.386 . S
C2452 C2447 1.490 . S
C2452 C2454 1.395 . S
C2452 C2455 1.403 . S
H2453 C2459 0.930 . S
C2454 H2440 0.930 . S
C2454 C2452 1.395 . S
C2454 C2457 1.403 . S
C2455 C2452 1.403 . S
C2455 C2456 1.524 . S
C2455 C2459 1.400 . S
C2456 H2441 0.960 . S
C2456 H2442 0.960 . S
C2456 H2443 0.960 . S
C2456 C2455 1.524 . S
C2457 C2454 1.403 . S
C2457 C2458 1.392 . S
C2457 C2461 1.495 . S
C2458 C2457 1.392 . S
C2458 C2459 1.385 . S
C2458 C2460 1.478 . S
C2459 H2453 0.930 . S
C2459 C2455 1.400 . S
C2459 C2458 1.385 . S
C2460 C2458 1.478 . S
C2460 C2462 1.381 . S
C2460 C2466 1.383 . S
C2461 C2457 1.495 . S
C2461 H2467 0.959 . S
C2461 H2468 0.961 . S
C2461 H2469 0.960 . S
C2462 C2460 1.381 . S
C2462 C2463 1.394 . S
C2462 H2470 0.930 . S
C2463 C2462 1.394 . S
C2463 C2464 1.383 . S
C2463 H2471 0.929 . S
C2464 C2463 1.383 . S
C2464 C2465 1.377 . S
C2465 H2449 0.930 . S
C2465 C2464 1.377 . S
C2465 C2466 1.379 . S
C2466 H2450 0.931 . S
C2466 C2460 1.383 . S
C2466 C2465 1.379 . S
H2467 C2461 0.959 . S
H2468 C2461 0.961 . S
H2469 C2461 0.960 . S
H2470 C2462 0.930 . S
H2471 C2463 0.929 . S
H2472 C2480 0.929 . S
H2473 C2482 0.930 . S
H2474 C2484 0.930 . S
H2475 C2487 0.929 . S
H2476 C2490 0.930 . S
H2477 C2492 0.960 . S
H2478 C2492 0.960 . S
H2479 C2492 0.960 . S
C2480 H2472 0.929 . S
C2480 C2481 1.377 . S
C2480 C2482 1.384 . S
C2481 C2480 1.377 . S
C2481 C2487 1.390 . S
C2482 H2473 0.930 . S
C2482 C2480 1.384 . S
C2482 C2483 1.372 . S
C2483 C2482 1.372 . S
C2483 C2484 1.400 . S
C2483 C2488 1.490 . S
C2484 H2474 0.930 . S
C2484 C2483 1.400 . S
C2484 C2487 1.386 . S
H2485 C2501 0.930 . S
H2486 C2502 0.931 . S
C2487 H2475 0.929 . S
C2487 C2481 1.390 . S
C2487 C2484 1.386 . S
C2488 C2483 1.490 . S
C2488 C2490 1.395 . S
C2488 C2491 1.403 . S
H2489 C2495 0.930 . S
C2490 H2476 0.930 . S
C2490 C2488 1.395 . S
C2490 C2493 1.403 . S
C2491 C2488 1.403 . S
C2491 C2492 1.524 . S
C2491 C2495 1.400 . S
C2492 H2477 0.960 . S
C2492 H2478 0.960 . S
C2492 H2479 0.960 . S
C2492 C2491 1.524 . S
C2493 C2490 1.403 . S
C2493 C2494 1.392 . S
C2493 C2497 1.495 . S
C2494 C2493 1.392 . S
C2494 C2495 1.385 . S
C2494 C2496 1.478 . S
C2495 H2489 0.930 . S
C2495 C2491 1.400 . S
C2495 C2494 1.385 . S
C2496 C2494 1.478 . S
C2496 C2498 1.381 . S
C2496 C2502 1.383 . S
C2497 C2493 1.495 . S
C2497 H2503 0.959 . S
C2497 H2504 0.961 . S
C2497 H2505 0.960 . S
C2498 C2496 1.381 . S
C2498 C2499 1.394 . S
C2498 H2506 0.930 . S
C2499 C2498 1.394 . S
C2499 C2500 1.383 . S
C2499 H2507 0.929 . S
C2500 C2499 1.383 . S
C2500 C2501 1.377 . S
C2501 H2485 0.930 . S
C2501 C2500 1.377 . S
C2501 C2502 1.379 . S
C2502 H2486 0.931 . S
C2502 C2496 1.383 . S
C2502 C2501 1.379 . S
H2503 C2497 0.959 . S
H2504 C2497 0.961 . S
H2505 C2497 0.960 . S
H2506 C2498 0.930 . S
H2507 C2499 0.929 . S
H2508 C2516 0.929 . S
H2509 C2518 0.930 . S
H2510 C2520 0.930 . S
H2511 C2523 0.929 . S
H2512 C2526 0.930 . S
H2513 C2528 0.960 . S
H2514 C2528 0.960 . S
H2515 C2528 0.960 . S
C2516 H2508 0.929 . S
C2516 C2517 1.377 . S
C2516 C2518 1.384 . S
C2517 C2516 1.377 . S
C2517 C2523 1.390 . S
C2518 H2509 0.930 . S
C2518 C2516 1.384 . S
C2518 C2519 1.372 . S
C2519 C2518 1.372 . S
C2519 C2520 1.400 . S
C2519 C2524 1.490 . S
C2520 H2510 0.930 . S
C2520 C2519 1.400 . S
C2520 C2523 1.386 . S
H2521 C2537 0.930 . S
H2522 C2538 0.931 . S
C2523 H2511 0.929 . S
C2523 C2517 1.390 . S
C2523 C2520 1.386 . S
C2524 C2519 1.490 . S
C2524 C2526 1.395 . S
C2524 C2527 1.403 . S
H2525 C2531 0.930 . S
C2526 H2512 0.930 . S
C2526 C2524 1.395 . S
C2526 C2529 1.403 . S
C2527 C2524 1.403 . S
C2527 C2528 1.524 . S
C2527 C2531 1.400 . S
C2528 H2513 0.960 . S
C2528 H2514 0.960 . S
C2528 H2515 0.960 . S
C2528 C2527 1.524 . S
C2529 C2526 1.403 . S
C2529 C2530 1.392 . S
C2529 C2533 1.495 . S
C2530 C2529 1.392 . S
C2530 C2531 1.385 . S
C2530 C2532 1.478 . S
C2531 H2525 0.930 . S
C2531 C2527 1.400 . S
C2531 C2530 1.385 . S
C2532 C2530 1.478 . S
C2532 C2534 1.381 . S
C2532 C2538 1.383 . S
C2533 C2529 1.495 . S
C2533 H2539 0.959 . S
C2533 H2540 0.961 . S
C2533 H2541 0.960 . S
C2534 C2532 1.381 . S
C2534 C2535 1.394 . S
C2534 H2542 0.930 . S
C2535 C2534 1.394 . S
C2535 C2536 1.383 . S
C2535 H2543 0.929 . S
C2536 C2535 1.383 . S
C2536 C2537 1.377 . S
C2537 H2521 0.930 . S
C2537 C2536 1.377 . S
C2537 C2538 1.379 . S
C2538 H2522 0.931 . S
C2538 C2532 1.383 . S
C2538 C2537 1.379 . S
H2539 C2533 0.959 . S
H2540 C2533 0.961 . S
H2541 C2533 0.960 . S
H2542 C2534 0.930 . S
H2543 C2535 0.929 . S
H2544 C2552 0.929 . S
H2545 C2554 0.930 . S
H2546 C2556 0.930 . S
H2547 C2559 0.929 . S
H2548 C2562 0.930 . S
H2549 C2564 0.960 . S
H2550 C2564 0.960 . S
H2551 C2564 0.960 . S
C2552 H2544 0.929 . S
C2552 C2553 1.377 . S
C2552 C2554 1.384 . S
C2553 C2552 1.377 . S
C2553 C2559 1.390 . S
C2554 H2545 0.930 . S
C2554 C2552 1.384 . S
C2554 C2555 1.372 . S
C2555 C2554 1.372 . S
C2555 C2556 1.400 . S
C2555 C2560 1.490 . S
C2556 H2546 0.930 . S
C2556 C2555 1.400 . S
C2556 C2559 1.386 . S
H2557 C2573 0.930 . S
H2558 C2574 0.931 . S
C2559 H2547 0.929 . S
C2559 C2553 1.390 . S
C2559 C2556 1.386 . S
C2560 C2555 1.490 . S
C2560 C2562 1.395 . S
C2560 C2563 1.403 . S
H2561 C2567 0.930 . S
C2562 H2548 0.930 . S
C2562 C2560 1.395 . S
C2562 C2565 1.403 . S
C2563 C2560 1.403 . S
C2563 C2564 1.524 . S
C2563 C2567 1.400 . S
C2564 H2549 0.960 . S
C2564 H2550 0.960 . S
C2564 H2551 0.960 . S
C2564 C2563 1.524 . S
C2565 C2562 1.403 . S
C2565 C2566 1.392 . S
C2565 C2569 1.495 . S
C2566 C2565 1.392 . S
C2566 C2567 1.385 . S
C2566 C2568 1.478 . S
C2567 H2561 0.930 . S
C2567 C2563 1.400 . S
C2567 C2566 1.385 . S
C2568 C2566 1.478 . S
C2568 C2570 1.381 . S
C2568 C2574 1.383 . S
C2569 C2565 1.495 . S
C2569 H2575 0.959 . S
C2569 H2576 0.961 . S
C2569 H2577 0.960 . S
C2570 C2568 1.381 . S
C2570 C2571 1.394 . S
C2570 H2578 0.930 . S
C2571 C2570 1.394 . S
C2571 C2572 1.383 . S
C2571 H2579 0.929 . S
C2572 C2571 1.383 . S
C2572 C2573 1.377 . S
C2573 H2557 0.930 . S
C2573 C2572 1.377 . S
C2573 C2574 1.379 . S
C2574 H2558 0.931 . S
C2574 C2568 1.383 . S
C2574 C2573 1.379 . S
H2575 C2569 0.959 . S
H2576 C2569 0.961 . S
H2577 C2569 0.960 . S
H2578 C2570 0.930 . S
H2579 C2571 0.929 . S
H2580 C2588 0.929 . S
H2581 C2590 0.930 . S
H2582 C2592 0.930 . S
H2583 C2595 0.929 . S
H2584 C2598 0.930 . S
H2585 C2600 0.960 . S
H2586 C2600 0.960 . S
H2587 C2600 0.960 . S
C2588 H2580 0.929 . S
C2588 C2589 1.377 . S
C2588 C2590 1.384 . S
C2589 C2588 1.377 . S
C2589 C2595 1.390 . S
C2590 H2581 0.930 . S
C2590 C2588 1.384 . S
C2590 C2591 1.372 . S
C2591 C2590 1.372 . S
C2591 C2592 1.400 . S
C2591 C2596 1.490 . S
C2592 H2582 0.930 . S
C2592 C2591 1.400 . S
C2592 C2595 1.386 . S
H2593 C2609 0.930 . S
H2594 C2610 0.931 . S
C2595 H2583 0.929 . S
C2595 C2589 1.390 . S
C2595 C2592 1.386 . S
C2596 C2591 1.490 . S
C2596 C2598 1.395 . S
C2596 C2599 1.403 . S
H2597 C2603 0.930 . S
C2598 H2584 0.930 . S
C2598 C2596 1.395 . S
C2598 C2601 1.403 . S
C2599 C2596 1.403 . S
C2599 C2600 1.524 . S
C2599 C2603 1.400 . S
C2600 H2585 0.960 . S
C2600 H2586 0.960 . S
C2600 H2587 0.960 . S
C2600 C2599 1.524 . S
C2601 C2598 1.403 . S
C2601 C2602 1.392 . S
C2601 C2605 1.495 . S
C2602 C2601 1.392 . S
C2602 C2603 1.385 . S
C2602 C2604 1.478 . S
C2603 H2597 0.930 . S
C2603 C2599 1.400 . S
C2603 C2602 1.385 . S
C2604 C2602 1.478 . S
C2604 C2606 1.381 . S
C2604 C2610 1.383 . S
C2605 C2601 1.495 . S
C2605 H2611 0.959 . S
C2605 H2612 0.961 . S
C2605 H2613 0.960 . S
C2606 C2604 1.381 . S
C2606 C2607 1.394 . S
C2606 H2614 0.930 . S
C2607 C2606 1.394 . S
C2607 C2608 1.383 . S
C2607 H2615 0.929 . S
C2608 C2607 1.383 . S
C2608 C2609 1.377 . S
C2609 H2593 0.930 . S
C2609 C2608 1.377 . S
C2609 C2610 1.379 . S
C2610 H2594 0.931 . S
C2610 C2604 1.383 . S
C2610 C2609 1.379 . S
H2611 C2605 0.959 . S
H2612 C2605 0.961 . S
H2613 C2605 0.960 . S
H2614 C2606 0.930 . S
H2615 C2607 0.929 . S
H2616 C2624 0.929 . S
H2617 C2626 0.930 . S
H2618 C2628 0.930 . S
H2619 C2631 0.929 . S
H2620 C2634 0.930 . S
H2621 C2636 0.960 . S
H2622 C2636 0.960 . S
H2623 C2636 0.960 . S
C2624 H2616 0.929 . S
C2624 C2625 1.377 . S
C2624 C2626 1.384 . S
C2625 C2624 1.377 . S
C2625 C2631 1.390 . S
C2626 H2617 0.930 . S
C2626 C2624 1.384 . S
C2626 C2627 1.372 . S
C2627 C2626 1.372 . S
C2627 C2628 1.400 . S
C2627 C2632 1.490 . S
C2628 H2618 0.930 . S
C2628 C2627 1.400 . S
C2628 C2631 1.386 . S
H2629 C2645 0.930 . S
H2630 C2646 0.931 . S
C2631 H2619 0.929 . S
C2631 C2625 1.390 . S
C2631 C2628 1.386 . S
C2632 C2627 1.490 . S
C2632 C2634 1.395 . S
C2632 C2635 1.403 . S
H2633 C2639 0.930 . S
C2634 H2620 0.930 . S
C2634 C2632 1.395 . S
C2634 C2637 1.403 . S
C2635 C2632 1.403 . S
C2635 C2636 1.524 . S
C2635 C2639 1.400 . S
C2636 H2621 0.960 . S
C2636 H2622 0.960 . S
C2636 H2623 0.960 . S
C2636 C2635 1.524 . S
C2637 C2634 1.403 . S
C2637 C2638 1.392 . S
C2637 C2641 1.495 . S
C2638 C2637 1.392 . S
C2638 C2639 1.385 . S
C2638 C2640 1.478 . S
C2639 H2633 0.930 . S
C2639 C2635 1.400 . S
C2639 C2638 1.385 . S
C2640 C2638 1.478 . S
C2640 C2642 1.381 . S
C2640 C2646 1.383 . S
C2641 C2637 1.495 . S
C2641 H2647 0.959 . S
C2641 H2648 0.961 . S
C2641 H2649 0.960 . S
C2642 C2640 1.381 . S
C2642 C2643 1.394 . S
C2642 H2650 0.930 . S
C2643 C2642 1.394 . S
C2643 C2644 1.383 . S
C2643 H2651 0.929 . S
C2644 C2643 1.383 . S
C2644 C2645 1.377 . S
C2645 H2629 0.930 . S
C2645 C2644 1.377 . S
C2645 C2646 1.379 . S
C2646 H2630 0.931 . S
C2646 C2640 1.383 . S
C2646 C2645 1.379 . S
H2647 C2641 0.959 . S
H2648 C2641 0.961 . S
H2649 C2641 0.960 . S
H2650 C2642 0.930 . S
H2651 C2643 0.929 . S
H2652 C2660 0.929 . S
H2653 C2662 0.930 . S
H2654 C2664 0.930 . S
H2655 C2667 0.929 . S
H2656 C2670 0.930 . S
H2657 C2672 0.960 . S
H2658 C2672 0.960 . S
H2659 C2672 0.960 . S
C2660 H2652 0.929 . S
C2660 C2661 1.377 . S
C2660 C2662 1.384 . S
C2661 C2660 1.377 . S
C2661 C2667 1.390 . S
C2662 H2653 0.930 . S
C2662 C2660 1.384 . S
C2662 C2663 1.372 . S
C2663 C2662 1.372 . S
C2663 C2664 1.400 . S
C2663 C2668 1.490 . S
C2664 H2654 0.930 . S
C2664 C2663 1.400 . S
C2664 C2667 1.386 . S
H2665 C2681 0.930 . S
H2666 C2682 0.931 . S
C2667 H2655 0.929 . S
C2667 C2661 1.390 . S
C2667 C2664 1.386 . S
C2668 C2663 1.490 . S
C2668 C2670 1.395 . S
C2668 C2671 1.403 . S
H2669 C2675 0.930 . S
C2670 H2656 0.930 . S
C2670 C2668 1.395 . S
C2670 C2673 1.403 . S
C2671 C2668 1.403 . S
C2671 C2672 1.524 . S
C2671 C2675 1.400 . S
C2672 H2657 0.960 . S
C2672 H2658 0.960 . S
C2672 H2659 0.960 . S
C2672 C2671 1.524 . S
C2673 C2670 1.403 . S
C2673 C2674 1.392 . S
C2673 C2677 1.495 . S
C2674 C2673 1.392 . S
C2674 C2675 1.385 . S
C2674 C2676 1.478 . S
C2675 H2669 0.930 . S
C2675 C2671 1.400 . S
C2675 C2674 1.385 . S
C2676 C2674 1.478 . S
C2676 C2678 1.381 . S
C2676 C2682 1.383 . S
C2677 C2673 1.495 . S
C2677 H2683 0.959 . S
C2677 H2684 0.961 . S
C2677 H2685 0.960 . S
C2678 C2676 1.381 . S
C2678 C2679 1.394 . S
C2678 H2686 0.930 . S
C2679 C2678 1.394 . S
C2679 C2680 1.383 . S
C2679 H2687 0.929 . S
C2680 C2679 1.383 . S
C2680 C2681 1.377 . S
C2681 H2665 0.930 . S
C2681 C2680 1.377 . S
C2681 C2682 1.379 . S
C2682 H2666 0.931 . S
C2682 C2676 1.383 . S
C2682 C2681 1.379 . S
H2683 C2677 0.959 . S
H2684 C2677 0.961 . S
H2685 C2677 0.960 . S
H2686 C2678 0.930 . S
H2687 C2679 0.929 . S
H2688 C2696 0.929 . S
H2689 C2698 0.930 . S
H2690 C2700 0.930 . S
H2691 C2703 0.929 . S
H2692 C2706 0.930 . S
H2693 C2708 0.960 . S
H2694 C2708 0.960 . S
H2695 C2708 0.960 . S
C2696 H2688 0.929 . S
C2696 C2697 1.377 . S
C2696 C2698 1.384 . S
C2697 C2696 1.377 . S
C2697 C2703 1.390 . S
C2698 H2689 0.930 . S
C2698 C2696 1.384 . S
C2698 C2699 1.372 . S
C2699 C2698 1.372 . S
C2699 C2700 1.400 . S
C2699 C2704 1.490 . S
C2700 H2690 0.930 . S
C2700 C2699 1.400 . S
C2700 C2703 1.386 . S
H2701 C2717 0.930 . S
H2702 C2718 0.931 . S
C2703 H2691 0.929 . S
C2703 C2697 1.390 . S
C2703 C2700 1.386 . S
C2704 C2699 1.490 . S
C2704 C2706 1.395 . S
C2704 C2707 1.403 . S
H2705 C2711 0.930 . S
C2706 H2692 0.930 . S
C2706 C2704 1.395 . S
C2706 C2709 1.403 . S
C2707 C2704 1.403 . S
C2707 C2708 1.524 . S
C2707 C2711 1.400 . S
C2708 H2693 0.960 . S
C2708 H2694 0.960 . S
C2708 H2695 0.960 . S
C2708 C2707 1.524 . S
C2709 C2706 1.403 . S
C2709 C2710 1.392 . S
C2709 C2713 1.495 . S
C2710 C2709 1.392 . S
C2710 C2711 1.385 . S
C2710 C2712 1.478 . S
C2711 H2705 0.930 . S
C2711 C2707 1.400 . S
C2711 C2710 1.385 . S
C2712 C2710 1.478 . S
C2712 C2714 1.381 . S
C2712 C2718 1.383 . S
C2713 C2709 1.495 . S
C2713 H2719 0.959 . S
C2713 H2720 0.961 . S
C2713 H2721 0.960 . S
C2714 C2712 1.381 . S
C2714 C2715 1.394 . S
C2714 H2722 0.930 . S
C2715 C2714 1.394 . S
C2715 C2716 1.383 . S
C2715 H2723 0.929 . S
C2716 C2715 1.383 . S
C2716 C2717 1.377 . S
C2717 H2701 0.930 . S
C2717 C2716 1.377 . S
C2717 C2718 1.379 . S
C2718 H2702 0.931 . S
C2718 C2712 1.383 . S
C2718 C2717 1.379 . S
H2719 C2713 0.959 . S
H2720 C2713 0.961 . S
H2721 C2713 0.960 . S
H2722 C2714 0.930 . S
H2723 C2715 0.929 . S
H2724 C2732 0.929 . S
H2725 C2734 0.930 . S
H2726 C2736 0.930 . S
H2727 C2739 0.929 . S
H2728 C2742 0.930 . S
H2729 C2744 0.960 . S
H2730 C2744 0.960 . S
H2731 C2744 0.960 . S
C2732 H2724 0.929 . S
C2732 C2733 1.377 . S
C2732 C2734 1.384 . S
C2733 C2732 1.377 . S
C2733 C2739 1.390 . S
C2734 H2725 0.930 . S
C2734 C2732 1.384 . S
C2734 C2735 1.372 . S
C2735 C2734 1.372 . S
C2735 C2736 1.400 . S
C2735 C2740 1.490 . S
C2736 H2726 0.930 . S
C2736 C2735 1.400 . S
C2736 C2739 1.386 . S
H2737 C2753 0.930 . S
H2738 C2754 0.931 . S
C2739 H2727 0.929 . S
C2739 C2733 1.390 . S
C2739 C2736 1.386 . S
C2740 C2735 1.490 . S
C2740 C2742 1.395 . S
C2740 C2743 1.403 . S
H2741 C2747 0.930 . S
C2742 H2728 0.930 . S
C2742 C2740 1.395 . S
C2742 C2745 1.403 . S
C2743 C2740 1.403 . S
C2743 C2744 1.524 . S
C2743 C2747 1.400 . S
C2744 H2729 0.960 . S
C2744 H2730 0.960 . S
C2744 H2731 0.960 . S
C2744 C2743 1.524 . S
C2745 C2742 1.403 . S
C2745 C2746 1.392 . S
C2745 C2749 1.495 . S
C2746 C2745 1.392 . S
C2746 C2747 1.385 . S
C2746 C2748 1.478 . S
C2747 H2741 0.930 . S
C2747 C2743 1.400 . S
C2747 C2746 1.385 . S
C2748 C2746 1.478 . S
C2748 C2750 1.381 . S
C2748 C2754 1.383 . S
C2749 C2745 1.495 . S
C2749 H2755 0.959 . S
C2749 H2756 0.961 . S
C2749 H2757 0.960 . S
C2750 C2748 1.381 . S
C2750 C2751 1.394 . S
C2750 H2758 0.930 . S
C2751 C2750 1.394 . S
C2751 C2752 1.383 . S
C2751 H2759 0.929 . S
C2752 C2751 1.383 . S
C2752 C2753 1.377 . S
C2753 H2737 0.930 . S
C2753 C2752 1.377 . S
C2753 C2754 1.379 . S
C2754 H2738 0.931 . S
C2754 C2748 1.383 . S
C2754 C2753 1.379 . S
H2755 C2749 0.959 . S
H2756 C2749 0.961 . S
H2757 C2749 0.960 . S
H2758 C2750 0.930 . S
H2759 C2751 0.929 . S
H2760 C2768 0.929 . S
H2761 C2770 0.930 . S
H2762 C2772 0.930 . S
H2763 C2775 0.929 . S
H2764 C2778 0.930 . S
H2765 C2780 0.960 . S
H2766 C2780 0.960 . S
H2767 C2780 0.960 . S
C2768 H2760 0.929 . S
C2768 C2769 1.377 . S
C2768 C2770 1.384 . S
C2769 C2768 1.377 . S
C2769 C2775 1.390 . S
C2770 H2761 0.930 . S
C2770 C2768 1.384 . S
C2770 C2771 1.372 . S
C2771 C2770 1.372 . S
C2771 C2772 1.400 . S
C2771 C2776 1.490 . S
C2772 H2762 0.930 . S
C2772 C2771 1.400 . S
C2772 C2775 1.386 . S
H2773 C2789 0.930 . S
H2774 C2790 0.931 . S
C2775 H2763 0.929 . S
C2775 C2769 1.390 . S
C2775 C2772 1.386 . S
C2776 C2771 1.490 . S
C2776 C2778 1.395 . S
C2776 C2779 1.403 . S
H2777 C2783 0.930 . S
C2778 H2764 0.930 . S
C2778 C2776 1.395 . S
C2778 C2781 1.403 . S
C2779 C2776 1.403 . S
C2779 C2780 1.524 . S
C2779 C2783 1.400 . S
C2780 H2765 0.960 . S
C2780 H2766 0.960 . S
C2780 H2767 0.960 . S
C2780 C2779 1.524 . S
C2781 C2778 1.403 . S
C2781 C2782 1.392 . S
C2781 C2785 1.495 . S
C2782 C2781 1.392 . S
C2782 C2783 1.385 . S
C2782 C2784 1.478 . S
C2783 H2777 0.930 . S
C2783 C2779 1.400 . S
C2783 C2782 1.385 . S
C2784 C2782 1.478 . S
C2784 C2786 1.381 . S
C2784 C2790 1.383 . S
C2785 C2781 1.495 . S
C2785 H2791 0.959 . S
C2785 H2792 0.961 . S
C2785 H2793 0.960 . S
C2786 C2784 1.381 . S
C2786 C2787 1.394 . S
C2786 H2794 0.930 . S
C2787 C2786 1.394 . S
C2787 C2788 1.383 . S
C2787 H2795 0.929 . S
C2788 C2787 1.383 . S
C2788 C2789 1.377 . S
C2789 H2773 0.930 . S
C2789 C2788 1.377 . S
C2789 C2790 1.379 . S
C2790 H2774 0.931 . S
C2790 C2784 1.383 . S
C2790 C2789 1.379 . S
H2791 C2785 0.959 . S
H2792 C2785 0.961 . S
H2793 C2785 0.960 . S
H2794 C2786 0.930 . S
H2795 C2787 0.929 . S
H2796 C2804 0.929 . S
H2797 C2806 0.930 . S
H2798 C2808 0.930 . S
H2799 C2811 0.929 . S
H2800 C2814 0.930 . S
H2801 C2816 0.960 . S
H2802 C2816 0.960 . S
H2803 C2816 0.960 . S
C2804 H2796 0.929 . S
C2804 C2805 1.377 . S
C2804 C2806 1.384 . S
C2805 C2804 1.377 . S
C2805 C2811 1.390 . S
C2806 H2797 0.930 . S
C2806 C2804 1.384 . S
C2806 C2807 1.372 . S
C2807 C2806 1.372 . S
C2807 C2808 1.400 . S
C2807 C2812 1.490 . S
C2808 H2798 0.930 . S
C2808 C2807 1.400 . S
C2808 C2811 1.386 . S
H2809 C2825 0.930 . S
H2810 C2826 0.931 . S
C2811 H2799 0.929 . S
C2811 C2805 1.390 . S
C2811 C2808 1.386 . S
C2812 C2807 1.490 . S
C2812 C2814 1.395 . S
C2812 C2815 1.403 . S
H2813 C2819 0.930 . S
C2814 H2800 0.930 . S
C2814 C2812 1.395 . S
C2814 C2817 1.403 . S
C2815 C2812 1.403 . S
C2815 C2816 1.524 . S
C2815 C2819 1.400 . S
C2816 H2801 0.960 . S
C2816 H2802 0.960 . S
C2816 H2803 0.960 . S
C2816 C2815 1.524 . S
C2817 C2814 1.403 . S
C2817 C2818 1.392 . S
C2817 C2821 1.495 . S
C2818 C2817 1.392 . S
C2818 C2819 1.385 . S
C2818 C2820 1.478 . S
C2819 H2813 0.930 . S
C2819 C2815 1.400 . S
C2819 C2818 1.385 . S
C2820 C2818 1.478 . S
C2820 C2822 1.381 . S
C2820 C2826 1.383 . S
C2821 C2817 1.495 . S
C2821 H2827 0.959 . S
C2821 H2828 0.961 . S
C2821 H2829 0.960 . S
C2822 C2820 1.381 . S
C2822 C2823 1.394 . S
C2822 H2830 0.930 . S
C2823 C2822 1.394 . S
C2823 C2824 1.383 . S
C2823 H2831 0.929 . S
C2824 C2823 1.383 . S
C2824 C2825 1.377 . S
C2825 H2809 0.930 . S
C2825 C2824 1.377 . S
C2825 C2826 1.379 . S
C2826 H2810 0.931 . S
C2826 C2820 1.383 . S
C2826 C2825 1.379 . S
H2827 C2821 0.959 . S
H2828 C2821 0.961 . S
H2829 C2821 0.960 . S
H2830 C2822 0.930 . S
H2831 C2823 0.929 . S
H2832 C2840 0.929 . S
H2833 C2842 0.930 . S
H2834 C2844 0.930 . S
H2835 C2847 0.929 . S
H2836 C2850 0.930 . S
H2837 C2852 0.960 . S
H2838 C2852 0.960 . S
H2839 C2852 0.960 . S
C2840 H2832 0.929 . S
C2840 C2841 1.377 . S
C2840 C2842 1.384 . S
C2841 C2840 1.377 . S
C2841 C2847 1.390 . S
C2842 H2833 0.930 . S
C2842 C2840 1.384 . S
C2842 C2843 1.372 . S
C2843 C2842 1.372 . S
C2843 C2844 1.400 . S
C2843 C2848 1.490 . S
C2844 H2834 0.930 . S
C2844 C2843 1.400 . S
C2844 C2847 1.386 . S
H2845 C2861 0.930 . S
H2846 C2862 0.931 . S
C2847 H2835 0.929 . S
C2847 C2841 1.390 . S
C2847 C2844 1.386 . S
C2848 C2843 1.490 . S
C2848 C2850 1.395 . S
C2848 C2851 1.403 . S
H2849 C2855 0.930 . S
C2850 H2836 0.930 . S
C2850 C2848 1.395 . S
C2850 C2853 1.403 . S
C2851 C2848 1.403 . S
C2851 C2852 1.524 . S
C2851 C2855 1.400 . S
C2852 H2837 0.960 . S
C2852 H2838 0.960 . S
C2852 H2839 0.960 . S
C2852 C2851 1.524 . S
C2853 C2850 1.403 . S
C2853 C2854 1.392 . S
C2853 C2857 1.495 . S
C2854 C2853 1.392 . S
C2854 C2855 1.385 . S
C2854 C2856 1.478 . S
C2855 H2849 0.930 . S
C2855 C2851 1.400 . S
C2855 C2854 1.385 . S
C2856 C2854 1.478 . S
C2856 C2858 1.381 . S
C2856 C2862 1.383 . S
C2857 C2853 1.495 . S
C2857 H2863 0.959 . S
C2857 H2864 0.961 . S
C2857 H2865 0.960 . S
C2858 C2856 1.381 . S
C2858 C2859 1.394 . S
C2858 H2866 0.930 . S
C2859 C2858 1.394 . S
C2859 C2860 1.383 . S
C2859 H2867 0.929 . S
C2860 C2859 1.383 . S
C2860 C2861 1.377 . S
C2861 H2845 0.930 . S
C2861 C2860 1.377 . S
C2861 C2862 1.379 . S
C2862 H2846 0.931 . S
C2862 C2856 1.383 . S
C2862 C2861 1.379 . S
H2863 C2857 0.959 . S
H2864 C2857 0.961 . S
H2865 C2857 0.960 . S
H2866 C2858 0.930 . S
H2867 C2859 0.929 . S
H2868 C2876 0.929 . S
H2869 C2878 0.930 . S
H2870 C2880 0.930 . S
H2871 C2883 0.929 . S
H2872 C2886 0.930 . S
H2873 C2888 0.960 . S
H2874 C2888 0.960 . S
H2875 C2888 0.960 . S
C2876 H2868 0.929 . S
C2876 C2877 1.377 . S
C2876 C2878 1.384 . S
C2877 C2876 1.377 . S
C2877 C2883 1.390 . S
C2878 H2869 0.930 . S
C2878 C2876 1.384 . S
C2878 C2879 1.372 . S
C2879 C2878 1.372 . S
C2879 C2880 1.400 . S
C2879 C2884 1.490 . S
C2880 H2870 0.930 . S
C2880 C2879 1.400 . S
C2880 C2883 1.386 . S
H2881 C2897 0.930 . S
H2882 C2898 0.931 . S
C2883 H2871 0.929 . S
C2883 C2877 1.390 . S
C2883 C2880 1.386 . S
C2884 C2879 1.490 . S
C2884 C2886 1.395 . S
C2884 C2887 1.403 . S
H2885 C2891 0.930 . S
C2886 H2872 0.930 . S
C2886 C2884 1.395 . S
C2886 C2889 1.403 . S
C2887 C2884 1.403 . S
C2887 C2888 1.524 . S
C2887 C2891 1.400 . S
C2888 H2873 0.960 . S
C2888 H2874 0.960 . S
C2888 H2875 0.960 . S
C2888 C2887 1.524 . S
C2889 C2886 1.403 . S
C2889 C2890 1.392 . S
C2889 C2893 1.495 . S
C2890 C2889 1.392 . S
C2890 C2891 1.385 . S
C2890 C2892 1.478 . S
C2891 H2885 0.930 . S
C2891 C2887 1.400 . S
C2891 C2890 1.385 . S
C2892 C2890 1.478 . S
C2892 C2894 1.381 . S
C2892 C2898 1.383 . S
C2893 C2889 1.495 . S
C2893 H2899 0.959 . S
C2893 H2900 0.961 . S
C2893 H2901 0.960 . S
C2894 C2892 1.381 . S
C2894 C2895 1.394 . S
C2894 H2902 0.930 . S
C2895 C2894 1.394 . S
C2895 C2896 1.383 . S
C2895 H2903 0.929 . S
C2896 C2895 1.383 . S
C2896 C2897 1.377 . S
C2897 H2881 0.930 . S
C2897 C2896 1.377 . S
C2897 C2898 1.379 . S
C2898 H2882 0.931 . S
C2898 C2892 1.383 . S
C2898 C2897 1.379 . S
H2899 C2893 0.959 . S
H2900 C2893 0.961 . S
H2901 C2893 0.960 . S
H2902 C2894 0.930 . S
H2903 C2895 0.929 . S
H2904 C2912 0.929 . S
H2905 C2914 0.930 . S
H2906 C2916 0.930 . S
H2907 C2919 0.929 . S
H2908 C2922 0.930 . S
H2909 C2924 0.960 . S
H2910 C2924 0.960 . S
H2911 C2924 0.960 . S
C2912 H2904 0.929 . S
C2912 C2913 1.377 . S
C2912 C2914 1.384 . S
C2913 C2912 1.377 . S
C2913 C2919 1.390 . S
C2914 H2905 0.930 . S
C2914 C2912 1.384 . S
C2914 C2915 1.372 . S
C2915 C2914 1.372 . S
C2915 C2916 1.400 . S
C2915 C2920 1.490 . S
C2916 H2906 0.930 . S
C2916 C2915 1.400 . S
C2916 C2919 1.386 . S
H2917 C2933 0.930 . S
H2918 C2934 0.931 . S
C2919 H2907 0.929 . S
C2919 C2913 1.390 . S
C2919 C2916 1.386 . S
C2920 C2915 1.490 . S
C2920 C2922 1.395 . S
C2920 C2923 1.403 . S
H2921 C2927 0.930 . S
C2922 H2908 0.930 . S
C2922 C2920 1.395 . S
C2922 C2925 1.403 . S
C2923 C2920 1.403 . S
C2923 C2924 1.524 . S
C2923 C2927 1.400 . S
C2924 H2909 0.960 . S
C2924 H2910 0.960 . S
C2924 H2911 0.960 . S
C2924 C2923 1.524 . S
C2925 C2922 1.403 . S
C2925 C2926 1.392 . S
C2925 C2929 1.495 . S
C2926 C2925 1.392 . S
C2926 C2927 1.385 . S
C2926 C2928 1.478 . S
C2927 H2921 0.930 . S
C2927 C2923 1.400 . S
C2927 C2926 1.385 . S
C2928 C2926 1.478 . S
C2928 C2930 1.381 . S
C2928 C2934 1.383 . S
C2929 C2925 1.495 . S
C2929 H2935 0.959 . S
C2929 H2936 0.961 . S
C2929 H2937 0.960 . S
C2930 C2928 1.381 . S
C2930 C2931 1.394 . S
C2930 H2938 0.930 . S
C2931 C2930 1.394 . S
C2931 C2932 1.383 . S
C2931 H2939 0.929 . S
C2932 C2931 1.383 . S
C2932 C2933 1.377 . S
C2933 H2917 0.930 . S
C2933 C2932 1.377 . S
C2933 C2934 1.379 . S
C2934 H2918 0.931 . S
C2934 C2928 1.383 . S
C2934 C2933 1.379 . S
H2935 C2929 0.959 . S
H2936 C2929 0.961 . S
H2937 C2929 0.960 . S
H2938 C2930 0.930 . S
H2939 C2931 0.929 . S
H2940 C2948 0.929 . S
H2941 C2950 0.930 . S
H2942 C2952 0.930 . S
H2943 C2955 0.929 . S
H2944 C2958 0.930 . S
H2945 C2960 0.960 . S
H2946 C2960 0.960 . S
H2947 C2960 0.960 . S
C2948 H2940 0.929 . S
C2948 C2949 1.377 . S
C2948 C2950 1.384 . S
C2949 C2948 1.377 . S
C2949 C2955 1.390 . S
C2950 H2941 0.930 . S
C2950 C2948 1.384 . S
C2950 C2951 1.372 . S
C2951 C2950 1.372 . S
C2951 C2952 1.400 . S
C2951 C2956 1.490 . S
C2952 H2942 0.930 . S
C2952 C2951 1.400 . S
C2952 C2955 1.386 . S
H2953 C2969 0.930 . S
H2954 C2970 0.931 . S
C2955 H2943 0.929 . S
C2955 C2949 1.390 . S
C2955 C2952 1.386 . S
C2956 C2951 1.490 . S
C2956 C2958 1.395 . S
C2956 C2959 1.403 . S
H2957 C2963 0.930 . S
C2958 H2944 0.930 . S
C2958 C2956 1.395 . S
C2958 C2961 1.403 . S
C2959 C2956 1.403 . S
C2959 C2960 1.524 . S
C2959 C2963 1.400 . S
C2960 H2945 0.960 . S
C2960 H2946 0.960 . S
C2960 H2947 0.960 . S
C2960 C2959 1.524 . S
C2961 C2958 1.403 . S
C2961 C2962 1.392 . S
C2961 C2965 1.495 . S
C2962 C2961 1.392 . S
C2962 C2963 1.385 . S
C2962 C2964 1.478 . S
C2963 H2957 0.930 . S
C2963 C2959 1.400 . S
C2963 C2962 1.385 . S
C2964 C2962 1.478 . S
C2964 C2966 1.381 . S
C2964 C2970 1.383 . S
C2965 C2961 1.495 . S
C2965 H2971 0.959 . S
C2965 H2972 0.961 . S
C2965 H2973 0.960 . S
C2966 C2964 1.381 . S
C2966 C2967 1.394 . S
C2966 H2974 0.930 . S
C2967 C2966 1.394 . S
C2967 C2968 1.383 . S
C2967 H2975 0.929 . S
C2968 C2967 1.383 . S
C2968 C2969 1.377 . S
C2969 H2953 0.930 . S
C2969 C2968 1.377 . S
C2969 C2970 1.379 . S
C2970 H2954 0.931 . S
C2970 C2964 1.383 . S
C2970 C2969 1.379 . S
H2971 C2965 0.959 . S
H2972 C2965 0.961 . S
H2973 C2965 0.960 . S
H2974 C2966 0.930 . S
H2975 C2967 0.929 . S
H2976 C2984 0.929 . S
H2977 C2986 0.930 . S
H2978 C2988 0.930 . S
H2979 C2991 0.929 . S
H2980 C2994 0.930 . S
H2981 C2996 0.960 . S
H2982 C2996 0.960 . S
H2983 C2996 0.960 . S
C2984 H2976 0.929 . S
C2984 C2985 1.377 . S
C2984 C2986 1.384 . S
C2985 C2984 1.377 . S
C2985 C2991 1.390 . S
C2986 H2977 0.930 . S
C2986 C2984 1.384 . S
C2986 C2987 1.372 . S
C2987 C2986 1.372 . S
C2987 C2988 1.400 . S
C2987 C2992 1.490 . S
C2988 H2978 0.930 . S
C2988 C2987 1.400 . S
C2988 C2991 1.386 . S
H2989 C3005 0.930 . S
H2990 C3006 0.931 . S
C2991 H2979 0.929 . S
C2991 C2985 1.390 . S
C2991 C2988 1.386 . S
C2992 C2987 1.490 . S
C2992 C2994 1.395 . S
C2992 C2995 1.403 . S
H2993 C2999 0.930 . S
C2994 H2980 0.930 . S
C2994 C2992 1.395 . S
C2994 C2997 1.403 . S
C2995 C2992 1.403 . S
C2995 C2996 1.524 . S
C2995 C2999 1.400 . S
C2996 H2981 0.960 . S
C2996 H2982 0.960 . S
C2996 H2983 0.960 . S
C2996 C2995 1.524 . S
C2997 C2994 1.403 . S
C2997 C2998 1.392 . S
C2997 C3001 1.495 . S
C2998 C2997 1.392 . S
C2998 C2999 1.385 . S
C2998 C3000 1.478 . S
C2999 H2993 0.930 . S
C2999 C2995 1.400 . S
C2999 C2998 1.385 . S
C3000 C2998 1.478 . S
C3000 C3002 1.381 . S
C3000 C3006 1.383 . S
C3001 C2997 1.495 . S
C3001 H3007 0.959 . S
C3001 H3008 0.961 . S
C3001 H3009 0.960 . S
C3002 C3000 1.381 . S
C3002 C3003 1.394 . S
C3002 H3010 0.930 . S
C3003 C3002 1.394 . S
C3003 C3004 1.383 . S
C3003 H3011 0.929 . S
C3004 C3003 1.383 . S
C3004 C3005 1.377 . S
C3005 H2989 0.930 . S
C3005 C3004 1.377 . S
C3005 C3006 1.379 . S
C3006 H2990 0.931 . S
C3006 C3000 1.383 . S
C3006 C3005 1.379 . S
H3007 C3001 0.959 . S
H3008 C3001 0.961 . S
H3009 C3001 0.960 . S
H3010 C3002 0.930 . S
H3011 C3003 0.929 . S
H3012 C3020 0.929 . S
H3013 C3022 0.930 . S
H3014 C3024 0.930 . S
H3015 C3027 0.929 . S
H3016 C3030 0.930 . S
H3017 C3032 0.960 . S
H3018 C3032 0.960 . S
H3019 C3032 0.960 . S
C3020 H3012 0.929 . S
C3020 C3021 1.377 . S
C3020 C3022 1.384 . S
C3021 C3020 1.377 . S
C3021 C3027 1.390 . S
C3022 H3013 0.930 . S
C3022 C3020 1.384 . S
C3022 C3023 1.372 . S
C3023 C3022 1.372 . S
C3023 C3024 1.400 . S
C3023 C3028 1.490 . S
C3024 H3014 0.930 . S
C3024 C3023 1.400 . S
C3024 C3027 1.386 . S
H3025 C3041 0.930 . S
H3026 C3042 0.931 . S
C3027 H3015 0.929 . S
C3027 C3021 1.390 . S
C3027 C3024 1.386 . S
C3028 C3023 1.490 . S
C3028 C3030 1.395 . S
C3028 C3031 1.403 . S
H3029 C3035 0.930 . S
C3030 H3016 0.930 . S
C3030 C3028 1.395 . S
C3030 C3033 1.403 . S
C3031 C3028 1.403 . S
C3031 C3032 1.524 . S
C3031 C3035 1.400 . S
C3032 H3017 0.960 . S
C3032 H3018 0.960 . S
C3032 H3019 0.960 . S
C3032 C3031 1.524 . S
C3033 C3030 1.403 . S
C3033 C3034 1.392 . S
C3033 C3037 1.495 . S
C3034 C3033 1.392 . S
C3034 C3035 1.385 . S
C3034 C3036 1.478 . S
C3035 H3029 0.930 . S
C3035 C3031 1.400 . S
C3035 C3034 1.385 . S
C3036 C3034 1.478 . S
C3036 C3038 1.381 . S
C3036 C3042 1.383 . S
C3037 C3033 1.495 . S
C3037 H3043 0.959 . S
C3037 H3044 0.961 . S
C3037 H3045 0.960 . S
C3038 C3036 1.381 . S
C3038 C3039 1.394 . S
C3038 H3046 0.930 . S
C3039 C3038 1.394 . S
C3039 C3040 1.383 . S
C3039 H3047 0.929 . S
C3040 C3039 1.383 . S
C3040 C3041 1.377 . S
C3041 H3025 0.930 . S
C3041 C3040 1.377 . S
C3041 C3042 1.379 . S
C3042 H3026 0.931 . S
C3042 C3036 1.383 . S
C3042 C3041 1.379 . S
H3043 C3037 0.959 . S
H3044 C3037 0.961 . S
H3045 C3037 0.960 . S
H3046 C3038 0.930 . S
H3047 C3039 0.929 . S
H3048 C3056 0.929 . S
H3049 C3058 0.930 . S
H3050 C3060 0.930 . S
H3051 C3063 0.929 . S
H3052 C3066 0.930 . S
H3053 C3068 0.960 . S
H3054 C3068 0.960 . S
H3055 C3068 0.960 . S
C3056 H3048 0.929 . S
C3056 C3057 1.377 . S
C3056 C3058 1.384 . S
C3057 C3056 1.377 . S
C3057 C3063 1.390 . S
C3058 H3049 0.930 . S
C3058 C3056 1.384 . S
C3058 C3059 1.372 . S
C3059 C3058 1.372 . S
C3059 C3060 1.400 . S
C3059 C3064 1.490 . S
C3060 H3050 0.930 . S
C3060 C3059 1.400 . S
C3060 C3063 1.386 . S
H3061 C3077 0.930 . S
H3062 C3078 0.931 . S
C3063 H3051 0.929 . S
C3063 C3057 1.390 . S
C3063 C3060 1.386 . S
C3064 C3059 1.490 . S
C3064 C3066 1.395 . S
C3064 C3067 1.403 . S
H3065 C3071 0.930 . S
C3066 H3052 0.930 . S
C3066 C3064 1.395 . S
C3066 C3069 1.403 . S
C3067 C3064 1.403 . S
C3067 C3068 1.524 . S
C3067 C3071 1.400 . S
C3068 H3053 0.960 . S
C3068 H3054 0.960 . S
C3068 H3055 0.960 . S
C3068 C3067 1.524 . S
C3069 C3066 1.403 . S
C3069 C3070 1.392 . S
C3069 C3073 1.495 . S
C3070 C3069 1.392 . S
C3070 C3071 1.385 . S
C3070 C3072 1.478 . S
C3071 H3065 0.930 . S
C3071 C3067 1.400 . S
C3071 C3070 1.385 . S
C3072 C3070 1.478 . S
C3072 C3074 1.381 . S
C3072 C3078 1.383 . S
C3073 C3069 1.495 . S
C3073 H3079 0.959 . S
C3073 H3080 0.961 . S
C3073 H3081 0.960 . S
C3074 C3072 1.381 . S
C3074 C3075 1.394 . S
C3074 H3082 0.930 . S
C3075 C3074 1.394 . S
C3075 C3076 1.383 . S
C3075 H3083 0.929 . S
C3076 C3075 1.383 . S
C3076 C3077 1.377 . S
C3077 H3061 0.930 . S
C3077 C3076 1.377 . S
C3077 C3078 1.379 . S
C3078 H3062 0.931 . S
C3078 C3072 1.383 . S
C3078 C3077 1.379 . S
H3079 C3073 0.959 . S
H3080 C3073 0.961 . S
H3081 C3073 0.960 . S
H3082 C3074 0.930 . S
H3083 C3075 0.929 . S
H3084 C3092 0.929 . S
H3085 C3094 0.930 . S
H3086 C3096 0.930 . S
H3087 C3099 0.929 . S
H3088 C3102 0.930 . S
H3089 C3104 0.960 . S
H3090 C3104 0.960 . S
H3091 C3104 0.960 . S
C3092 H3084 0.929 . S
C3092 C3093 1.377 . S
C3092 C3094 1.384 . S
C3093 C3092 1.377 . S
C3093 C3099 1.390 . S
C3094 H3085 0.930 . S
C3094 C3092 1.384 . S
C3094 C3095 1.372 . S
C3095 C3094 1.372 . S
C3095 C3096 1.400 . S
C3095 C3100 1.490 . S
C3096 H3086 0.930 . S
C3096 C3095 1.400 . S
C3096 C3099 1.386 . S
H3097 C3113 0.930 . S
H3098 C3114 0.931 . S
C3099 H3087 0.929 . S
C3099 C3093 1.390 . S
C3099 C3096 1.386 . S
C3100 C3095 1.490 . S
C3100 C3102 1.395 . S
C3100 C3103 1.403 . S
H3101 C3107 0.930 . S
C3102 H3088 0.930 . S
C3102 C3100 1.395 . S
C3102 C3105 1.403 . S
C3103 C3100 1.403 . S
C3103 C3104 1.524 . S
C3103 C3107 1.400 . S
C3104 H3089 0.960 . S
C3104 H3090 0.960 . S
C3104 H3091 0.960 . S
C3104 C3103 1.524 . S
C3105 C3102 1.403 . S
C3105 C3106 1.392 . S
C3105 C3109 1.495 . S
C3106 C3105 1.392 . S
C3106 C3107 1.385 . S
C3106 C3108 1.478 . S
C3107 H3101 0.930 . S
C3107 C3103 1.400 . S
C3107 C3106 1.385 . S
C3108 C3106 1.478 . S
C3108 C3110 1.381 . S
C3108 C3114 1.383 . S
C3109 C3105 1.495 . S
C3109 H3115 0.959 . S
C3109 H3116 0.961 . S
C3109 H3117 0.960 . S
C3110 C3108 1.381 . S
C3110 C3111 1.394 . S
C3110 H3118 0.930 . S
C3111 C3110 1.394 . S
C3111 C3112 1.383 . S
C3111 H3119 0.929 . S
C3112 C3111 1.383 . S
C3112 C3113 1.377 . S
C3113 H3097 0.930 . S
C3113 C3112 1.377 . S
C3113 C3114 1.379 . S
C3114 H3098 0.931 . S
C3114 C3108 1.383 . S
C3114 C3113 1.379 . S
H3115 C3109 0.959 . S
H3116 C3109 0.961 . S
H3117 C3109 0.960 . S
H3118 C3110 0.930 . S
H3119 C3111 0.929 . S
C537 C21 1.487 . S
C556 C406 1.502 . S
C573 C436 1.479 . S
C592 C43 1.505 . S
C609 C370 1.480 . S
C628 C51 1.507 . S
C645 C87 1.488 . S
C664 C392 1.469 . S
C681 C502 1.487 . S
C700 C95 1.478 . S
C717 C472 1.487 . S
C736 C125 1.477 . S
C753 C516 1.486 . S
C772 C139 1.488 . S
C789 C448 1.481 . S
C808 C161 1.506 . S
C825 C183 1.493 . S
C844 C296 1.458 . S
C861 C205 1.486 . S
C880 C348 1.493 . S
C897 C235 1.491 . S
C916 C318 1.460 . S
C933 C282 1.483 . S
C952 C249 1.502 . S
C969 C142 1.480 . S
C988 C279 1.496 . S
C1005 C307 1.486 . S
C1024 C164 1.496 . S
C1041 C98 1.480 . S
C1060 C329 1.478 . S
C1077 C118 1.485 . S
C1096 C345 1.507 . S
C1113 C367 1.487 . S
C1132 C228 1.464 . S
C1149 C208 1.481 . S
C1168 C389 1.501 . S
C1185 C252 1.480 . S
C1204 C417 1.490 . S
C1221 C433 1.494 . S
C1240 C186 1.483 . S
C1257 C447 1.487 . S
C1276 C40 1.466 . S
C1293 C483 1.490 . S
C1312 C84 1.459 . S
C1329 C499 1.489 . S
C1348 C54 1.504 . S
C1365 C18 1.488 . S
C1384 C527 1.500 . S
C1401 C428 1.060 . S
C1420 C10 1.073 . S
C1437 C404 1.055 . S
C1456 C32 1.031 . S
C1473 C384 1.060 . S
C1492 C52 1.061 . S
C1509 C362 1.058 . S
C1528 C76 1.047 . S
C1545 C96 1.050 . S
C1564 C514 1.058 . S
C1581 C128 1.056 . S
C1600 C458 1.076 . S
C1617 C494 1.051 . S
C1636 C140 1.037 . S
C1653 C470 1.058 . S
C1672 C162 1.044 . S
C1689 C316 1.057 . S
C1708 C184 1.039 . S
C1725 C206 1.058 . S
C1744 C274 1.076 . S
C1761 C294 1.058 . S
C1780 C238 1.076 . S
C1797 C340 1.060 . S
C1816 C250 1.070 . S
C1833 C272 1.054 . S
C1852 C172 1.055 . S
C1869 C150 1.059 . S
C1888 C304 1.049 . S
C1905 C326 1.060 . S
C1924 C120 1.037 . S
C1941 C338 1.058 . S
C1960 C106 1.051 . S
C1977 C260 1.057 . S
C1996 C360 1.058 . S
C2013 C194 1.061 . S
C2032 C382 1.045 . S
C2049 C414 1.059 . S
C2068 C230 1.037 . S
C2085 C426 1.060 . S
C2104 C216 1.038 . S
C2121 C62 1.063 . S
C2140 C450 1.028 . S
C2157 C8 1.060 . S
C2176 C480 1.055 . S
C2193 C492 1.060 . S
C2212 C30 1.037 . S
C2229 C524 1.051 . S
C2248 C74 1.067 . S
C2265 C7 0.758 . S
C2284 C109 0.720 . S
C2301 C117 0.763 . S
C2320 C29 0.727 . S
C2337 C153 0.750 . S
C2356 C59 0.784 . S
C2373 C175 0.758 . S
C2392 C73 0.728 . S
C2409 C197 0.756 . S
C2428 C103 0.786 . S
C2445 C131 0.763 . S
C2464 C263 0.754 . S
C2481 C147 0.755 . S
C2500 C219 0.796 . S
C2517 C227 0.751 . S
C2536 C169 0.787 . S
C2553 C191 0.753 . S
C2572 C15 0.795 . S
C2589 C213 0.751 . S
C2608 C65 0.789 . S
C2625 C81 0.765 . S
C2644 C241 0.737 . S
C2661 C37 0.749 . S
C2680 C257 0.782 . S
C2697 C271 0.763 . S
C2716 C373 0.785 . S
C2733 C395 0.754 . S
C2752 C301 0.790 . S
C2769 C403 0.765 . S
C2788 C323 0.728 . S
C2805 C439 0.752 . S
C2824 C337 0.758 . S
C2841 C359 0.752 . S
C2860 C455 0.774 . S
C2877 C513 0.758 . S
C2896 C381 0.795 . S
C2913 C411 0.753 . S
C2932 C469 0.748 . S
C2949 C425 0.754 . S
C2968 C505 0.789 . S
C2985 C285 0.761 . S
C3004 C461 0.791 . S
C3021 C315 0.761 . S
C3040 C477 0.791 . S
C3057 C351 0.763 . S
C3076 C491 0.724 . S
C3093 C293 0.763 . S
C3112 C521 0.786 . S
