# Generated by pormake.
# Topology fnh, (5)-cn, num edge types: 1
# Building blocks:
#     Node 0, Type 0, BuildingBlock: BEQFEK_clean_sbu_0, # of connection points: 5
#     Node 1, Type 0, BuildingBlock: BEQFEK_clean_sbu_0, # of connection points: 5
#     Node 2, Type 0, BuildingBlock: BEQFEK_clean_sbu_0, # of connection points: 5
#     Node 3, Type 0, BuildingBlock: BEQFEK_clean_sbu_0, # of connection points: 5
#     Node 4, Type 0, BuildingBlock: BEQFEK_clean_sbu_0, # of connection points: 5
#     Node 5, Type 0, BuildingBlock: BEQFEK_clean_sbu_0, # of connection points: 5
#     Node 6, Type 0, BuildingBlock: BEQFEK_clean_sbu_0, # of connection points: 5
#     Node 7, Type 0, BuildingBlock: BEQFEK_clean_sbu_0, # of connection points: 5
#     Node 8, Type 0, BuildingBlock: BEQFEK_clean_sbu_0, # of connection points: 5
#     Node 9, Type 0, BuildingBlock: BEQFEK_clean_sbu_0, # of connection points: 5
#     Node 10, Type 0, BuildingBlock: BEQFEK_clean_sbu_0, # of connection points: 5
#     Node 11, Type 0, BuildingBlock: BEQFEK_clean_sbu_0, # of connection points: 5
#     Node 12, Type 0, BuildingBlock: BEQFEK_clean_sbu_0, # of connection points: 5
#     Node 13, Type 0, BuildingBlock: BEQFEK_clean_sbu_0, # of connection points: 5
#     Node 14, Type 0, BuildingBlock: BEQFEK_clean_sbu_0, # of connection points: 5
#     Node 15, Type 0, BuildingBlock: BEQFEK_clean_sbu_0, # of connection points: 5
#     Node 16, Type 0, BuildingBlock: BEQFEK_clean_sbu_0, # of connection points: 5
#     Node 17, Type 0, BuildingBlock: BEQFEK_clean_sbu_0, # of connection points: 5
#     Edge 18, Type (0, 0), None
#     Edge 19, Type (0, 0), None
#     Edge 20, Type (0, 0), None
#     Edge 21, Type (0, 0), None
#     Edge 22, Type (0, 0), None
#     Edge 23, Type (0, 0), None
#     Edge 24, Type (0, 0), None
#     Edge 25, Type (0, 0), None
#     Edge 26, Type (0, 0), None
#     Edge 27, Type (0, 0), None
#     Edge 28, Type (0, 0), None
#     Edge 29, Type (0, 0), None
#     Edge 30, Type (0, 0), None
#     Edge 31, Type (0, 0), None
#     Edge 32, Type (0, 0), None
#     Edge 33, Type (0, 0), None
#     Edge 34, Type (0, 0), None
#     Edge 35, Type (0, 0), None
#     Edge 36, Type (0, 0), None
#     Edge 37, Type (0, 0), None
#     Edge 38, Type (0, 0), None
#     Edge 39, Type (0, 0), None
#     Edge 40, Type (0, 0), None
#     Edge 41, Type (0, 0), None
#     Edge 42, Type (0, 0), None
#     Edge 43, Type (0, 0), None
#     Edge 44, Type (0, 0), None
#     Edge 45, Type (0, 0), None
#     Edge 46, Type (0, 0), None
#     Edge 47, Type (0, 0), None
#     Edge 48, Type (0, 0), None
#     Edge 49, Type (0, 0), None
#     Edge 50, Type (0, 0), None
#     Edge 51, Type (0, 0), None
#     Edge 52, Type (0, 0), None
#     Edge 53, Type (0, 0), None
#     Edge 54, Type (0, 0), None
#     Edge 55, Type (0, 0), None
#     Edge 56, Type (0, 0), None
#     Edge 57, Type (0, 0), None
#     Edge 58, Type (0, 0), None
#     Edge 59, Type (0, 0), None
#     Edge 60, Type (0, 0), None
#     Edge 61, Type (0, 0), None
#     Edge 62, Type (0, 0), None
# Relax obj value: 0.587
# Max RMSD: 0.092
# Mean RMSD: 0.092
data_MOF--net-fnh--node1-BEQFEK_clean_sbu_0--edge1-none
_symmetry_space_group_name_H-M    P1
_symmetry_Int_Tables_number       1
_symmetry_cell_setting            triclinic
loop_
_symmetry_equiv_pos_as_xyz
'x, y, z'
_cell_length_a     32.323177
_cell_length_b     32.323478
_cell_length_c     11.354941
_cell_angle_alpha  90.006324
_cell_angle_beta   89.987742
_cell_angle_gamma 120.00224
loop_
_atom_site_label
_atom_site_type_symbol
_atom_site_fract_x
_atom_site_fract_y
_atom_site_fract_z
_atom_type_partial_charge
Co0 Co 0.20208 0.2675 0.46038 0.0
Co1 Co 0.14243 0.27238 0.32224 0.0
C2 C 0.09697 0.23124 0.54338 0.0
O3 O 0.14133 0.24993 0.56832 0.0
O4 O 0.08648 0.22971 0.43472 0.0
C5 C 0.20194 0.19908 0.56717 0.0
O6 O 0.15929 0.17524 0.51964 0.0
C7 C 0.0876 0.30827 0.21815 0.0
C8 C 0.14211 0.36996 0.12211 0.0
C9 C 0.09335 0.34492 0.14308 0.0
N10 N 0.12768 0.30641 0.21961 0.0
N11 N 0.16128 0.34509 0.16741 0.0
C12 C 1.04428 0.27435 0.28693 0.0
H13 H 1.05265 0.28132 0.38195 0.0
H14 H 1.03566 0.23733 0.26869 0.0
H15 H 1.01276 0.27798 0.26886 0.0
C16 C 0.22654 0.21868 0.25797 0.0
N17 N 0.20107 0.23674 0.31129 0.0
N18 N 0.17235 0.23946 0.23572 0.0
C19 C 0.17716 0.22101 0.13109 0.0
C20 C 0.21218 0.20651 0.1396 0.0
C21 C 0.26901 0.22009 0.31439 0.0
H22 H 0.28552 0.24982 0.37884 0.0
H23 H 0.25737 0.18619 0.36255 0.0
H24 H 0.29601 0.22482 0.24731 0.0
O25 O 0.25056 0.33527 0.4465 0.0
O26 O 0.18608 0.33639 0.40078 0.0
H27 H 0.16955 0.25063 0.97133 0.0
H28 H 0.14238 0.18643 0.96931 0.0
C29 C 0.14902 0.21765 1.0239 0.0
H30 H 0.11482 0.2153 1.04905 0.0
H31 H 0.19742 0.35526 0.16607 0.0
O32 O 0.22792 0.2436 0.55511 0.0
C33 C 0.23028 0.35883 0.42373 0.0
Co34 Co 0.86204 0.96061 0.46041 0.0
Co35 Co 0.85717 0.89609 0.32224 0.0
C36 C 0.8983 0.89177 0.54339 0.0
O37 O 0.8796 0.91743 0.56834 0.0
O38 O 0.89983 0.88281 0.43472 0.0
C39 C 0.93046 1.02889 0.56721 0.0
O40 O 0.9543 1.01008 0.51965 0.0
C41 C 0.82126 0.80536 0.21816 0.0
C42 C 0.75957 0.79816 0.12214 0.0
C43 C 0.78461 0.77445 0.1431 0.0
N44 N 0.82313 0.84729 0.21961 0.0
N45 N 0.78445 0.84221 0.16742 0.0
C46 C 0.85516 0.79595 0.28696 0.0
H47 H 0.84819 0.79736 0.38197 0.0
H48 H 0.89219 0.82434 0.2687 0.0
H49 H 0.85153 0.76079 0.26889 0.0
C50 C 0.91086 1.03389 0.25803 0.0
N51 N 0.89281 0.99036 0.31132 0.0
N52 N 0.89008 0.95892 0.23572 0.0
C53 C 0.90853 0.98219 0.13109 0.0
C54 C 0.92302 1.0317 0.13964 0.0
C55 C 0.90945 0.07495 0.31449 0.0
H56 H 0.87972 0.06172 0.37896 0.0
H57 H 0.94335 0.09722 0.36264 0.0
H58 H 0.90472 0.09722 0.24744 0.0
O59 O 0.79427 0.94132 0.44654 0.0
O60 O 0.79315 0.87573 0.40079 0.0
H61 H 0.87891 0.94495 0.97134 0.0
H62 H 0.94311 0.982 0.96927 0.0
C63 C 0.91189 0.95741 1.02387 0.0
H64 H 0.91424 0.92556 1.04899 0.0
H65 H 0.77429 0.86819 0.16609 0.0
O66 O 0.88594 1.01035 0.55516 0.0
C67 C 0.77071 0.89748 0.42373 0.0
Co68 Co 0.16892 0.92746 0.46032 0.0
Co69 Co 0.23345 0.9871 0.32217 0.0
C70 C 0.23775 1.03255 0.54334 0.0
O71 O 0.21209 0.98819 0.56828 0.0
O72 O 0.24671 1.04305 0.43468 0.0
C73 C 0.10063 0.92761 0.56713 0.0
O74 O 0.11945 0.97026 0.51958 0.0
C75 C 0.32419 1.04198 0.21813 0.0
C76 C 0.33143 0.98751 0.12207 0.0
C77 C 0.35512 1.03626 0.14305 0.0
N78 N 0.28227 1.00189 0.21957 0.0
N79 N 0.28738 0.96831 0.16737 0.0
C80 C 0.33358 0.08528 0.28694 0.0
H81 H 0.33217 0.07691 0.38195 0.0
H82 H 0.30518 0.0939 0.2687 0.0
H83 H 0.36873 0.11681 0.26889 0.0
C84 C 0.09564 0.903 0.25795 0.0
N85 N 0.13917 0.92847 0.31123 0.0
N86 N 0.17063 0.95719 0.23564 0.0
C87 C 0.14736 0.95238 0.13102 0.0
C88 C 0.09784 0.91736 0.13958 0.0
C89 C 1.05458 0.86053 0.3144 0.0
H90 H 1.0678 0.84403 0.37885 0.0
H91 H 1.03232 0.87218 0.36258 0.0
H92 H 1.0323 0.83354 0.24735 0.0
O93 O 0.18819 0.87897 0.44648 0.0
O94 O 0.25379 0.94344 0.40069 0.0
H95 H 0.18458 0.96 0.97122 0.0
H96 H 0.14755 0.98716 0.96927 0.0
C97 C 0.17214 0.98052 1.02382 0.0
H98 H 0.204 1.01472 1.04895 0.0
H99 H 0.26142 0.93216 0.16602 0.0
O100 O 0.11917 0.90163 0.55506 0.0
C101 C 0.23204 0.89924 0.4237 0.0
Co102 Co 0.29332 0.17625 0.72311 0.0
Co103 Co 0.29821 0.1166 0.86124 0.0
C104 C 0.25706 0.07115 0.64011 0.0
O105 O 0.27575 0.11551 0.61517 0.0
O106 O 0.25554 0.06065 0.74876 0.0
C107 C 0.22491 0.17611 0.6163 0.0
O108 O 0.20105 0.13347 0.66391 0.0
C109 C 0.33405 0.06175 0.96537 0.0
C110 C 0.3958 0.11629 1.06144 0.0
C111 C 0.37072 0.06755 1.04039 0.0
N112 N 0.33224 0.10184 0.96386 0.0
N113 N 0.37093 0.13545 1.01606 0.0
C114 C 0.30013 1.01842 0.89664 0.0
H115 H 0.30709 1.02677 0.80161 0.0
H116 H 0.26312 1.00981 0.9149 0.0
H117 H 0.30376 0.98689 0.91473 0.0
C118 C 0.24451 0.20071 0.92554 0.0
N119 N 0.26256 0.17524 0.87221 0.0
N120 N 0.2653 0.14652 0.94778 0.0
C121 C 0.24686 0.15133 1.05243 0.0
C122 C 0.23238 0.18636 1.04394 0.0
C123 C 0.24591 0.24317 0.86911 0.0
H124 H 0.27564 0.25968 0.80465 0.0
H125 H 0.212 0.23152 0.82095 0.0
H126 H 0.25063 0.27016 0.93617 0.0
O127 O 0.3611 0.22473 0.73698 0.0
O128 O 0.36222 0.16026 0.78269 0.0
H129 H 0.27649 0.14373 0.21218 0.0
H130 H 0.21229 0.11655 0.21423 0.0
C131 C 0.24351 0.1232 0.15963 0.0
H132 H 0.24118 0.089 0.13449 0.0
H133 H 0.3811 0.17159 1.01737 0.0
O134 O 0.26942 0.2021 0.62838 0.0
C135 C 0.38466 0.20446 0.75976 0.0
Co136 Co 0.95327 0.1431 0.72319 0.0
Co137 Co 1.01291 0.20765 0.86131 0.0
C138 C 1.05836 0.21194 0.64015 0.0
O139 O 1.01401 0.18627 0.61521 0.0
O140 O 1.06886 0.22091 0.7488 0.0
C141 C 0.95343 0.07482 0.61637 0.0
O142 O 0.99607 0.09362 0.66397 0.0
C143 C 1.06784 0.29837 0.96539 0.0
C144 C 1.01333 0.30564 1.0615 0.0
C145 C 1.06207 0.32925 1.04043 0.0
N146 N 1.02772 0.25647 0.96389 0.0
N147 N 0.99413 0.2616 1.0161 0.0
C148 C 0.11116 0.30774 0.89664 0.0
H149 H 0.10281 0.30635 0.80162 0.0
H150 H 0.11974 0.27932 0.9149 0.0
H151 H 0.1427 0.34288 0.91473 0.0
C152 C 0.92882 0.06984 0.92561 0.0
N153 N 0.95428 0.11337 0.8723 0.0
N154 N 0.983 0.14483 0.94786 0.0
C155 C 0.97819 0.12157 1.0525 0.0
C156 C 0.94317 0.07206 1.04399 0.0
C157 C 0.88636 1.02877 0.86918 0.0
H158 H 0.86984 1.04198 0.80474 0.0
H159 H 0.89802 1.00652 0.82099 0.0
H160 H 0.85937 1.00649 0.93624 0.0
O161 O 0.90478 0.16239 0.73702 0.0
O162 O 0.96925 0.22799 0.7828 0.0
H163 H 0.98581 0.1588 0.21229 0.0
H164 H 1.01299 0.12178 0.21423 0.0
C165 C 1.00634 0.14636 0.15968 0.0
H166 H 1.04053 0.17823 0.13452 0.0
H167 H 0.95798 0.23564 1.01744 0.0
O168 O 0.92744 0.09335 0.62847 0.0
C169 C 0.92505 0.20623 0.7598 0.0
Co170 Co 0.98642 0.83622 0.72315 0.0
Co171 Co 0.92189 0.83133 0.8613 0.0
C172 C 0.91759 0.87247 0.64015 0.0
O173 O 0.94326 0.85377 0.6152 0.0
O174 O 0.90863 0.874 0.74881 0.0
C175 C 1.0547 0.90465 0.6163 0.0
O176 O 1.03591 0.92849 0.66393 0.0
C177 C 0.83116 0.79549 0.9654 0.0
C178 C 0.82392 0.73373 1.06149 0.0
C179 C 0.80028 0.75883 1.04044 0.0
N180 N 0.87307 0.79729 0.9639 0.0
N181 N 0.86797 0.7586 1.01611 0.0
C182 C 0.82177 0.82941 0.89664 0.0
H183 H 0.82318 0.82245 0.80162 0.0
H184 H 0.85017 0.86642 0.9149 0.0
H185 H 0.78662 0.82578 0.91472 0.0
C186 C 1.05969 0.88503 0.92554 0.0
N187 N 1.01617 0.86697 0.87224 0.0
N188 N 0.98471 0.86423 0.94784 0.0
C189 C 1.00797 0.88268 1.05247 0.0
C190 C 1.05748 0.89716 1.04394 0.0
C191 C 0.10076 0.88364 0.86906 0.0
H192 H 0.08755 0.85391 0.8046 0.0
H193 H 0.12302 0.91755 0.82089 0.0
H194 H 0.12304 0.87892 0.9361 0.0
O195 O 0.96714 0.76844 0.73699 0.0
O196 O 0.90154 0.76731 0.78277 0.0
H197 H 0.97074 0.85306 0.21225 0.0
H198 H 1.00776 0.91725 0.21426 0.0
C199 C 0.98318 0.88603 0.15969 0.0
H200 H 0.95132 0.88837 0.13457 0.0
H201 H 0.89393 0.74842 1.01744 0.0
O202 O 1.03617 0.86013 0.62839 0.0
C203 C 0.9233 0.74488 0.75979 0.0
Co204 Co 0.86875 0.60083 0.79372 0.0
Co205 Co 0.8091 0.6057 0.65558 0.0
C206 C 0.76364 0.56457 0.87671 0.0
O207 O 0.808 0.58326 0.90165 0.0
O208 O 0.75315 0.56303 0.76805 0.0
C209 C 0.86861 0.53241 0.90053 0.0
O210 O 0.82596 0.50857 0.85299 0.0
C211 C 0.75429 0.6416 0.55148 0.0
C212 C 0.8088 0.70329 0.45543 0.0
C213 C 0.76004 0.67826 0.47641 0.0
N214 N 0.79436 0.63974 0.55294 0.0
N215 N 0.82797 0.67841 0.50074 0.0
C216 C 0.71096 0.6077 0.62028 0.0
H217 H 0.71933 0.61467 0.71529 0.0
H218 H 0.70233 0.57068 0.60203 0.0
H219 H 0.67945 0.61134 0.60221 0.0
C220 C 0.89321 0.55201 0.59133 0.0
N221 N 0.86774 0.57007 0.64464 0.0
N222 N 0.83902 0.57279 0.56907 0.0
C223 C 0.84383 0.55433 0.46444 0.0
C224 C 0.87885 0.53984 0.47296 0.0
C225 C 0.93568 0.55342 0.64775 0.0
H226 H 0.95219 0.58315 0.7122 0.0
H227 H 0.92404 0.51951 0.69591 0.0
H228 H 0.96268 0.55814 0.58067 0.0
O229 O 0.91723 0.6686 0.77983 0.0
O230 O 0.85275 0.66971 0.73414 0.0
H231 H 0.83622 0.58395 0.30468 0.0
H232 H 0.80906 0.51975 0.30266 0.0
C233 C 0.81569 0.55097 0.35725 0.0
H234 H 0.78149 0.54862 0.38239 0.0
H235 H 0.86411 0.68858 0.4994 0.0
O236 O 0.89459 0.57693 0.88846 0.0
C237 C 0.89695 0.69216 0.75707 0.0
Co238 Co 0.52871 0.29395 0.79374 0.0
Co239 Co 0.52384 0.22943 0.65558 0.0
C240 C 0.56496 0.22511 0.87671 0.0
O241 O 0.54626 0.25077 0.90167 0.0
O242 O 0.5665 0.21615 0.76805 0.0
C243 C 0.59713 0.36223 0.90057 0.0
O244 O 0.62097 0.34341 0.853 0.0
C245 C 0.48792 0.1387 0.55149 0.0
C246 C 0.42624 0.13153 0.45547 0.0
C247 C 0.45126 0.1078 0.47643 0.0
N248 N 0.4898 0.18064 0.55294 0.0
N249 N 0.45113 0.17558 0.50075 0.0
C250 C 0.5218 0.12928 0.6203 0.0
H251 H 0.51483 0.13069 0.71531 0.0
H252 H 0.55883 0.15766 0.60205 0.0
H253 H 0.51815 0.09412 0.60224 0.0
C254 C 0.57753 0.36724 0.59138 0.0
N255 N 0.55948 0.32371 0.64467 0.0
N256 N 0.55676 0.29226 0.56907 0.0
C257 C 0.57521 0.31553 0.46444 0.0
C258 C 0.5897 0.36504 0.47299 0.0
C259 C 0.57612 0.4083 0.64784 0.0
H260 H 0.54639 0.39507 0.7123 0.0
H261 H 0.61002 0.43056 0.69599 0.0
H262 H 0.57139 0.43056 0.58079 0.0
O263 O 0.46094 0.27466 0.77986 0.0
O264 O 0.45983 0.20907 0.73415 0.0
H265 H 0.54559 0.2783 0.30469 0.0
H266 H 0.60978 0.31535 0.30262 0.0
C267 C 0.57856 0.29075 0.35722 0.0
H268 H 0.58092 0.25891 0.38233 0.0
H269 H 0.44097 0.20156 0.49942 0.0
O270 O 0.55261 0.34369 0.88851 0.0
C271 C 0.43738 0.23082 0.75707 0.0
Co272 Co 0.83557 0.26079 0.79366 0.0
Co273 Co 0.9001 0.32043 0.65551 0.0
C274 C 0.90441 0.36588 0.87666 0.0
O275 O 0.87875 0.32152 0.9016 0.0
O276 O 0.91337 0.37638 0.768 0.0
C277 C 0.76729 0.26094 0.9005 0.0
O278 O 0.78611 0.3036 0.85294 0.0
C279 C 0.99084 0.37528 0.55145 0.0
C280 C 0.99804 0.32079 0.45538 0.0
C281 C 1.02175 0.36954 0.47636 0.0
N282 N 0.9489 0.3352 0.55289 0.0
N283 N 0.95399 0.30161 0.50068 0.0
C284 C 1.00025 0.41859 0.62027 0.0
H285 H 0.99883 0.4102 0.71528 0.0
H286 H 0.97186 0.42722 0.60203 0.0
H287 H 1.0354 0.4501 0.60222 0.0
C288 C 0.76229 0.23632 0.59131 0.0
N289 N 0.80582 0.2618 0.64459 0.0
N290 N 0.83727 0.29052 0.56899 0.0
C291 C 0.814 0.28571 0.46438 0.0
C292 C 0.76449 0.25069 0.47294 0.0
C293 C 0.72122 0.19386 0.64776 0.0
H294 H 0.73444 0.17735 0.71221 0.0
H295 H 0.69896 0.20551 0.69594 0.0
H296 H 0.69895 0.16686 0.58071 0.0
O297 O 0.85485 0.2123 0.77981 0.0
O298 O 0.92045 0.27678 0.73406 0.0
H299 H 0.85123 0.29333 0.30458 0.0
H300 H 0.81419 0.32049 0.30263 0.0
C301 C 0.83878 0.31385 0.35717 0.0
H302 H 0.87064 0.34805 0.3823 0.0
H303 H 0.92802 0.26546 0.49934 0.0
O304 O 0.78583 0.23496 0.88842 0.0
C305 C 0.89869 0.23258 0.75704 0.0
Co306 Co 0.95999 0.50958 1.05646 0.0
Co307 Co 0.96488 0.44992 0.19458 0.0
C308 C 0.92372 0.40448 0.97343 0.0
O309 O 0.94242 0.44884 0.9485 0.0
O310 O 0.9222 0.39399 1.08209 0.0
C311 C 0.89157 0.50945 0.94967 0.0
O312 O 0.86772 0.4668 0.99727 0.0
C313 C 1.0007 0.39504 0.29868 0.0
C314 C 1.06246 0.44957 0.39475 0.0
C315 C 1.03736 0.40083 0.3737 0.0
N316 N 0.9989 0.43515 0.29717 0.0
N317 N 1.0376 0.46874 0.34937 0.0
C318 C 0.96677 0.35172 0.22995 0.0
H319 H 0.97372 0.36007 0.13493 0.0
H320 H 0.92975 0.34312 0.24824 0.0
H321 H 0.97038 0.32019 0.24803 0.0
C322 C 0.91118 0.53403 0.2589 0.0
N323 N 0.92924 0.50856 0.20557 0.0
N324 N 0.93197 0.47984 0.28113 0.0
C325 C 0.91353 0.48465 0.38579 0.0
C326 C 0.89905 0.51968 0.3773 0.0
C327 C 0.91258 0.5765 0.20247 0.0
H328 H 0.94232 0.59301 0.13802 0.0
H329 H 0.87868 0.56485 0.1543 0.0
H330 H 0.9173 0.60349 0.26954 0.0
O331 O 1.02777 0.55806 1.07032 0.0
O332 O 1.02889 0.49358 0.11603 0.0
H333 H 0.94316 0.47705 0.54553 0.0
H334 H 0.87896 0.44987 0.54758 0.0
C335 C 0.91019 0.45652 0.49298 0.0
H336 H 0.90785 0.42233 0.46784 0.0
H337 H 1.04778 0.50489 0.3507 0.0
O338 O 0.93609 0.53543 0.96175 0.0
C339 C 1.05133 0.53778 0.0931 0.0
Co340 Co 0.61994 0.47644 1.05653 0.0
Co341 Co 0.67959 0.54099 0.19464 0.0
C342 C 0.72504 0.54527 0.97348 0.0
O343 O 0.68068 0.5196 0.94855 0.0
O344 O 0.73553 0.55424 1.08213 0.0
C345 C 0.62009 0.40816 0.94972 0.0
O346 O 0.66273 0.42695 0.99731 0.0
C347 C 0.73452 0.63171 0.29872 0.0
C348 C 0.68002 0.63899 0.39483 0.0
C349 C 0.72876 0.6626 0.37376 0.0
N350 N 0.6944 0.58982 0.29722 0.0
N351 N 0.66082 0.59495 0.34943 0.0
C352 C 0.77784 0.64108 0.22998 0.0
H353 H 0.76949 0.63968 0.13495 0.0
H354 H 0.78642 0.61265 0.24824 0.0
H355 H 0.80938 0.67621 0.24805 0.0
C356 C 0.59549 0.40319 0.25896 0.0
N357 N 0.62096 0.44671 0.20564 0.0
N358 N 0.64968 0.47817 0.28121 0.0
C359 C 0.64487 0.45492 0.38584 0.0
C360 C 0.60984 0.4054 0.37734 0.0
C361 C 0.55303 0.36211 0.20253 0.0
H362 H 0.53652 0.37532 0.13809 0.0
H363 H 0.56469 0.33987 0.15434 0.0
H364 H 0.52604 0.33983 0.2696 0.0
O365 O 0.57146 0.49573 1.07036 0.0
O366 O 0.63592 0.56133 0.11614 0.0
H367 H 0.65248 0.49214 0.54563 0.0
H368 H 0.67967 0.45513 0.54758 0.0
C369 C 0.67301 0.47971 0.49303 0.0
H370 H 0.7072 0.51157 0.46787 0.0
H371 H 0.62467 0.569 0.35077 0.0
O372 O 0.5941 0.42669 0.96182 0.0
C373 C 0.59173 0.53957 0.09313 0.0
Co374 Co 0.65308 0.16955 1.0565 0.0
Co375 Co 0.58854 0.16466 0.19464 0.0
C376 C 0.58425 0.2058 0.97348 0.0
O377 O 0.60992 0.18711 0.94853 0.0
O378 O 0.57529 0.20734 1.08214 0.0
C379 C 0.72136 0.23798 0.94967 0.0
O380 O 0.70257 0.26183 0.99729 0.0
C381 C 0.49781 0.12883 0.29872 0.0
C382 C 0.49055 0.06707 0.39482 0.0
C383 C 0.46693 0.09217 0.37376 0.0
N384 N 0.53971 0.13062 0.29723 0.0
N385 N 0.5346 0.09192 0.34943 0.0
C386 C 0.48843 0.16276 0.22998 0.0
H387 H 0.48984 0.1558 0.13495 0.0
H388 H 0.51684 0.19977 0.24825 0.0
H389 H 0.45328 0.15915 0.24805 0.0
C390 C 0.72634 0.21835 0.2589 0.0
N391 N 0.68282 0.2003 0.2056 0.0
N392 N 0.65136 0.19756 0.28119 0.0
C393 C 0.67461 0.216 0.38583 0.0
C394 C 0.72413 0.23049 0.3773 0.0
C395 C 0.76741 0.21696 0.20243 0.0
H396 H 0.75419 0.18724 0.13797 0.0
H397 H 0.78966 0.25087 0.15426 0.0
H398 H 0.78969 0.21225 0.26947 0.0
O399 O 0.6338 0.10178 1.07033 0.0
O400 O 0.5682 0.10065 0.11611 0.0
H401 H 0.63738 0.18638 0.54561 0.0
H402 H 0.6744 0.25058 0.54761 0.0
C403 C 0.64982 0.21935 0.49304 0.0
H404 H 0.61796 0.22168 0.46792 0.0
H405 H 0.56056 0.08174 0.35076 0.0
O406 O 0.70283 0.19346 0.96176 0.0
C407 C 0.58996 0.07821 0.09312 0.0
Co408 Co 0.53541 0.93416 0.12703 0.0
Co409 Co 0.47576 0.93904 0.9889 0.0
C410 C 0.4303 0.8979 0.21005 0.0
O411 O 0.47466 0.91659 0.23499 0.0
O412 O 0.41981 0.89637 0.1014 0.0
C413 C 0.53528 0.86575 0.23381 0.0
O414 O 0.49262 0.8419 0.18629 0.0
C415 C 0.42091 0.97491 0.88484 0.0
C416 C 0.4754 1.03662 0.78879 0.0
C417 C 0.42664 1.01156 0.80977 0.0
N418 N 0.46099 0.97307 0.88629 0.0
N419 N 0.49458 1.01176 0.83409 0.0
C420 C 0.37759 0.94099 0.95362 0.0
H421 H 0.38595 0.94796 1.04864 0.0
H422 H 0.36898 0.90398 0.93536 0.0
H423 H 0.34606 0.94461 0.93556 0.0
C424 C 0.55987 0.88535 0.92462 0.0
N425 N 0.5344 0.90341 0.97794 0.0
N426 N 0.50567 0.90613 0.90237 0.0
C427 C 0.51049 0.88768 0.79774 0.0
C428 C 0.5455 0.87319 0.80625 0.0
C429 C 0.60234 0.88677 0.98104 0.0
H430 H 0.61885 0.9165 1.04548 0.0
H431 H 0.5907 0.85286 1.02921 0.0
H432 H 0.62933 0.89149 0.91396 0.0
O433 O 0.58389 1.00194 0.11316 0.0
O434 O 0.51941 1.00305 1.06744 0.0
H435 H 0.50287 0.91729 0.63798 0.0
H436 H 0.47571 0.8531 0.63597 0.0
C437 C 0.48235 0.88432 0.69055 0.0
H438 H 0.44815 0.88198 0.7157 0.0
H439 H 0.53073 1.02194 0.83275 0.0
O440 O 0.56126 0.91027 0.22175 0.0
C441 C 0.56361 1.0255 1.0904 0.0
Co442 Co 0.19537 0.62727 0.12706 0.0
Co443 Co 0.1905 0.56274 0.9889 0.0
C444 C 0.23163 0.55843 0.21005 0.0
O445 O 0.21293 0.5841 0.235 0.0
O446 O 0.23317 0.54947 0.10139 0.0
C447 C 0.2638 0.69556 0.23385 0.0
O448 O 0.28764 0.67674 0.1863 0.0
C449 C 0.1546 0.47201 0.88484 0.0
C450 C 0.09291 0.46481 0.78881 0.0
C451 C 0.11795 0.4411 0.80977 0.0
N452 N 0.15646 0.51394 0.88628 0.0
N453 N 0.11778 0.50886 0.8341 0.0
C454 C 0.18851 0.46261 0.95362 0.0
H455 H 0.18154 0.46402 1.04864 0.0
H456 H 0.22553 0.491 0.93535 0.0
H457 H 0.18488 0.42746 0.93556 0.0
C458 C 0.24419 0.70055 0.92467 0.0
N459 N 0.22614 0.65702 0.97797 0.0
N460 N 0.22341 0.62557 0.90238 0.0
C461 C 0.24186 0.64884 0.79774 0.0
C462 C 0.25635 0.69835 0.80629 0.0
C463 C 0.24277 0.7416 0.98113 0.0
H464 H 0.21304 0.72837 1.04559 0.0
H465 H 0.27668 0.76387 1.02929 0.0
H466 H 0.23805 0.76387 0.91407 0.0
O467 O 0.1276 0.60798 0.11319 0.0
O468 O 0.12649 0.54239 1.06746 0.0
H469 H 0.21224 0.6116 0.63799 0.0
H470 H 0.27643 0.64865 0.63593 0.0
C471 C 0.24521 0.62405 0.69052 0.0
H472 H 0.24756 0.5922 0.71564 0.0
H473 H 0.10761 0.53483 0.83276 0.0
O474 O 0.21928 0.67702 0.2218 0.0
C475 C 0.10404 0.56414 1.0904 0.0
Co476 Co 0.50225 0.59413 0.12698 0.0
Co477 Co 0.56679 0.65378 0.98884 0.0
C478 C 0.57109 0.69922 0.21 0.0
O479 O 0.54542 0.65486 0.23494 0.0
O480 O 0.58004 0.70972 0.10134 0.0
C481 C 0.43396 0.59428 0.23379 0.0
O482 O 0.45278 0.63693 0.18624 0.0
C483 C 0.65753 0.70866 0.8848 0.0
C484 C 0.66477 0.65419 0.78874 0.0
C485 C 0.68846 0.70294 0.80971 0.0
N486 N 0.61561 0.66857 0.88624 0.0
N487 N 0.62072 0.63499 0.83404 0.0
C488 C 0.66692 0.75196 0.95361 0.0
H489 H 0.6655 0.74358 1.04862 0.0
H490 H 0.63852 0.76058 0.93536 0.0
H491 H 0.70207 0.78349 0.93557 0.0
C492 C 0.42898 0.56967 0.9246 0.0
N493 N 0.47251 0.59514 0.97789 0.0
N494 N 0.50396 0.62387 0.9023 0.0
C495 C 0.4807 0.61906 0.79768 0.0
C496 C 0.43118 0.58404 0.80623 0.0
C497 C 0.38792 0.5272 0.98106 0.0
H498 H 0.40114 0.5107 1.0455 0.0
H499 H 0.36566 0.53885 1.02923 0.0
H500 H 0.36564 0.50021 0.914 0.0
O501 O 0.52153 0.54564 0.11314 0.0
O502 O 0.58713 0.61012 1.06736 0.0
H503 H 0.51792 0.62667 0.63788 0.0
H504 H 0.48089 0.65384 0.63593 0.0
C505 C 0.50548 0.6472 0.69048 0.0
H506 H 0.53734 0.6814 0.7156 0.0
H507 H 0.59476 0.59884 0.83269 0.0
O508 O 0.4525 0.5683 0.22172 0.0
C509 C 0.56537 0.56592 1.09037 0.0
Co510 Co 0.62666 0.84292 0.38978 0.0
Co511 Co 0.63154 0.78327 0.5279 0.0
C512 C 0.59039 0.73782 0.30678 0.0
O513 O 0.60908 0.78218 0.28184 0.0
O514 O 0.58886 0.72732 0.41543 0.0
C515 C 0.55824 0.84278 0.28295 0.0
O516 O 0.53439 0.80014 0.33057 0.0
C517 C 0.66739 0.72842 0.63203 0.0
C518 C 0.72913 0.78297 0.72811 0.0
C519 C 0.70406 0.73423 0.70706 0.0
N520 N 0.66557 0.76851 0.63052 0.0
N521 N 0.70426 0.80212 0.68272 0.0
C522 C 0.63348 0.68509 0.56329 0.0
H523 H 0.64043 0.69345 0.46827 0.0
H524 H 0.59646 0.67647 0.58156 0.0
H525 H 0.63711 0.65357 0.58138 0.0
C526 C 0.57784 0.86738 0.5922 0.0
N527 N 0.59589 0.84191 0.53887 0.0
N528 N 0.59863 0.81319 0.61444 0.0
C529 C 0.58019 0.818 0.71909 0.0
C530 C 0.5657 0.85303 0.71059 0.0
C531 C 0.57924 0.90984 0.53576 0.0
H532 H 0.60897 0.92635 0.4713 0.0
H533 H 0.54533 0.89819 0.4876 0.0
H534 H 0.58396 0.93684 0.60283 0.0
O535 O 0.69443 0.8914 0.40366 0.0
O536 O 0.69555 0.82692 0.44934 0.0
H537 H 0.60981 0.8104 0.87883 0.0
H538 H 0.54561 0.78322 0.88089 0.0
C539 C 0.57684 0.78987 0.82629 0.0
H540 H 0.5745 0.75567 0.80115 0.0
H541 H 0.71442 0.83827 0.68404 0.0
O542 O 0.60276 0.86877 0.29504 0.0
C543 C 0.71799 0.87112 0.42642 0.0
Co544 Co 0.2866 0.80976 0.38985 0.0
Co545 Co 0.34625 0.8743 0.52797 0.0
C546 C 0.3917 0.8786 0.30682 0.0
O547 O 0.34734 0.85293 0.28189 0.0
O548 O 0.40219 0.88756 0.41548 0.0
C549 C 0.28676 0.74149 0.28301 0.0
O550 O 0.3294 0.76028 0.33061 0.0
C551 C 0.40114 0.96502 0.63207 0.0
C552 C 0.34662 0.97226 0.72819 0.0
C553 C 0.39536 0.99589 0.70712 0.0
N554 N 0.36103 0.92311 0.63057 0.0
N555 N 0.32744 0.92822 0.68278 0.0
C556 C 0.44447 0.97441 0.56332 0.0
H557 H 0.43611 0.97301 0.4683 0.0
H558 H 0.45307 0.946 0.58157 0.0
H559 H 0.476 1.00955 0.58139 0.0
C560 C 0.26215 0.73649 0.59226 0.0
N561 N 0.28761 0.78002 0.53894 0.0
N562 N 0.31633 0.81148 0.61451 0.0
C563 C 0.31152 0.78822 0.71915 0.0
C564 C 0.2765 0.73871 0.71064 0.0
C565 C 0.21969 0.69542 0.53582 0.0
H566 H 0.20318 0.70863 0.47138 0.0
H567 H 0.23135 0.67317 0.48764 0.0
H568 H 0.1927 0.67314 0.60289 0.0
O569 O 0.23812 0.82904 0.4037 0.0
O570 O 0.30259 0.89465 0.44944 0.0
H571 H 0.31914 0.82544 0.87893 0.0
H572 H 0.34632 0.78843 0.88088 0.0
C573 C 0.33967 0.81301 0.82633 0.0
H574 H 0.37386 0.84487 0.80118 0.0
H575 H 0.29129 0.90226 0.68412 0.0
O576 O 0.26077 0.76001 0.29512 0.0
C577 C 0.25839 0.87289 0.42645 0.0
Co578 Co 0.31976 0.50288 0.38982 0.0
Co579 Co 0.25523 0.498 0.52796 0.0
C580 C 0.25093 0.53914 0.30682 0.0
O581 O 0.27659 0.52044 0.28187 0.0
O582 O 0.24196 0.54067 0.41548 0.0
C583 C 0.38803 0.57131 0.28295 0.0
O584 O 0.36924 0.59516 0.33059 0.0
C585 C 0.1645 0.46214 0.63206 0.0
C586 C 0.15727 0.4004 0.72816 0.0
C587 C 0.13363 0.42548 0.7071 0.0
N588 N 0.20642 0.46396 0.63057 0.0
N589 N 0.20132 0.42527 0.68278 0.0
C590 C 0.1551 0.49605 0.5633 0.0
H591 H 0.15651 0.4891 0.46828 0.0
H592 H 0.18349 0.53308 0.58156 0.0
H593 H 0.11994 0.49242 0.58137 0.0
C594 C 0.39303 0.5517 0.5922 0.0
N595 N 0.34951 0.53364 0.5389 0.0
N596 N 0.31805 0.53091 0.6145 0.0
C597 C 0.34131 0.54935 0.71913 0.0
C598 C 0.39082 0.56383 0.7106 0.0
C599 C 0.4341 0.55031 0.53572 0.0
H600 H 0.42089 0.52058 0.47126 0.0
H601 H 0.45636 0.58422 0.48755 0.0
H602 H 0.45638 0.54559 0.60276 0.0
O603 O 0.30048 0.43511 0.40367 0.0
O604 O 0.23488 0.43399 0.44942 0.0
H605 H 0.30408 0.51973 0.87891 0.0
H606 H 0.3411 0.58393 0.88092 0.0
C607 C 0.31652 0.5527 0.82635 0.0
H608 H 0.28466 0.55504 0.80123 0.0
H609 H 0.22729 0.4151 0.6841 0.0
O610 O 0.3695 0.5268 0.29505 0.0
C611 C 0.25664 0.41155 0.42645 0.0
loop_
_geom_bond_atom_site_label_1
_geom_bond_atom_site_label_2
_geom_bond_distance
_geom_bond_site_symmetry_2
_ccdc_geom_bond_type
Co0 O3 1.970 . S
Co0 N17 1.989 . S
Co0 O25 1.967 . S
Co0 O32 1.920 . S
Co1 O4 1.966 . S
Co1 N10 2.022 . S
Co1 N18 1.993 . S
Co1 O26 1.941 . S
C2 O3 1.258 . S
C2 O4 1.263 . S
O3 Co0 1.970 . S
O3 C2 1.258 . S
O4 Co1 1.966 . S
O4 C2 1.263 . S
C5 O6 1.235 . S
C5 O32 1.289 . S
O6 C5 1.235 . S
C7 C9 1.400 1_554 S
C7 N10 1.351 . S
C7 C12 1.501 1_455 S
C8 C9 1.387 . S
C8 N11 1.341 1_556 S
C9 C7 1.400 1_556 S
C9 C8 1.387 . S
N10 Co1 2.022 . S
N10 C7 1.351 . S
N10 N11 1.365 . S
N11 C8 1.341 1_554 S
N11 N10 1.365 . S
N11 H31 0.862 . S
C12 C7 1.501 1_655 S
C12 H13 0.961 1_655 S
C12 H14 0.961 . S
C12 H15 0.960 . S
H13 C12 0.961 1_455 S
H14 C12 0.961 . S
H15 C12 0.960 . S
C16 N17 1.342 . S
C16 C20 1.401 . S
C16 C21 1.499 . S
N17 Co0 1.989 . S
N17 C16 1.342 . S
N17 N18 1.388 . S
N18 Co1 1.993 . S
N18 N17 1.388 . S
N18 C19 1.346 . S
C19 N18 1.346 . S
C19 C20 1.396 . S
C19 C29 1.510 1_554 S
C20 C16 1.401 . S
C20 C19 1.396 . S
C21 C16 1.499 . S
C21 H22 0.959 . S
C21 H23 0.960 . S
C21 H24 0.961 . S
H22 C21 0.959 . S
H23 C21 0.960 . S
H24 C21 0.961 . S
O25 Co0 1.967 . S
O25 C33 1.258 . S
O26 Co1 1.941 . S
O26 C33 1.266 . S
H27 C29 0.959 . S
H28 C29 0.961 . S
C29 C19 1.510 1_556 S
C29 H27 0.959 . S
C29 H28 0.961 . S
C29 H30 0.960 1_556 S
H30 C29 0.960 1_554 S
H31 N11 0.862 . S
O32 Co0 1.920 . S
O32 C5 1.289 . S
C33 O25 1.258 . S
C33 O26 1.266 . S
Co34 O37 1.970 . S
Co34 N51 1.989 . S
Co34 O59 1.967 . S
Co34 O66 1.920 . S
Co35 O38 1.966 . S
Co35 N44 2.022 . S
Co35 N52 1.993 . S
Co35 O60 1.941 . S
C36 O37 1.258 . S
C36 O38 1.263 . S
O37 Co34 1.970 . S
O37 C36 1.258 . S
O38 Co35 1.966 . S
O38 C36 1.263 . S
C39 O40 1.235 . S
C39 O66 1.289 . S
O40 C39 1.235 . S
C41 C43 1.400 1_554 S
C41 N44 1.351 . S
C41 C46 1.501 . S
C42 C43 1.387 . S
C42 N45 1.341 1_556 S
C43 C41 1.400 1_556 S
C43 C42 1.387 . S
N44 Co35 2.022 . S
N44 C41 1.351 . S
N44 N45 1.365 . S
N45 C42 1.341 1_554 S
N45 N44 1.365 . S
N45 H65 0.862 . S
C46 C41 1.501 . S
C46 H47 0.961 . S
C46 H48 0.961 . S
C46 H49 0.960 . S
H47 C46 0.961 . S
H48 C46 0.961 . S
H49 C46 0.960 . S
C50 N51 1.342 . S
C50 C54 1.401 . S
C50 C55 1.499 1_565 S
N51 Co34 1.989 . S
N51 C50 1.342 . S
N51 N52 1.388 . S
N52 Co35 1.993 . S
N52 N51 1.388 . S
N52 C53 1.346 . S
C53 N52 1.346 . S
C53 C54 1.396 . S
C53 C63 1.510 1_554 S
C54 C50 1.401 . S
C54 C53 1.396 . S
C55 C50 1.499 1_545 S
C55 H56 0.959 . S
C55 H57 0.960 . S
C55 H58 0.961 . S
H56 C55 0.959 . S
H57 C55 0.960 . S
H58 C55 0.961 . S
O59 Co34 1.967 . S
O59 C67 1.258 . S
O60 Co35 1.941 . S
O60 C67 1.266 . S
H61 C63 0.959 . S
H62 C63 0.961 . S
C63 C53 1.510 1_556 S
C63 H61 0.959 . S
C63 H62 0.961 . S
C63 H64 0.960 1_556 S
H64 C63 0.960 1_554 S
H65 N45 0.862 . S
O66 Co34 1.920 . S
O66 C39 1.289 . S
C67 O59 1.258 . S
C67 O60 1.266 . S
Co68 O71 1.970 . S
Co68 N85 1.989 . S
Co68 O93 1.967 . S
Co68 O100 1.920 . S
Co69 O72 1.966 . S
Co69 N78 2.022 . S
Co69 N86 1.993 . S
Co69 O94 1.941 . S
C70 O71 1.258 . S
C70 O72 1.263 . S
O71 Co68 1.970 . S
O71 C70 1.258 . S
O72 Co69 1.966 . S
O72 C70 1.263 . S
C73 O74 1.235 . S
C73 O100 1.289 . S
O74 C73 1.235 . S
C75 C77 1.400 1_554 S
C75 N78 1.351 . S
C75 C80 1.501 1_565 S
C76 C77 1.387 . S
C76 N79 1.341 1_556 S
C77 C75 1.400 1_556 S
C77 C76 1.387 . S
N78 Co69 2.022 . S
N78 C75 1.351 . S
N78 N79 1.365 . S
N79 C76 1.341 1_554 S
N79 N78 1.365 . S
N79 H99 0.862 . S
C80 C75 1.501 1_545 S
C80 H81 0.952 1_545 S
C80 H82 0.961 . S
C80 H83 0.960 . S
H81 C80 0.952 1_565 S
H82 C80 0.961 . S
H83 C80 0.960 . S
C84 N85 1.342 . S
C84 C88 1.401 . S
C84 C89 1.499 1_455 S
N85 Co68 1.989 . S
N85 C84 1.342 . S
N85 N86 1.388 . S
N86 Co69 1.993 . S
N86 N85 1.388 . S
N86 C87 1.346 . S
C87 N86 1.346 . S
C87 C88 1.396 . S
C87 C97 1.510 1_554 S
C88 C84 1.401 . S
C88 C87 1.396 . S
C89 C84 1.499 1_655 S
C89 H90 0.959 . S
C89 H91 0.960 . S
C89 H92 0.961 . S
H90 C89 0.959 . S
H91 C89 0.960 . S
H92 C89 0.961 . S
O93 Co68 1.967 . S
O93 C101 1.258 . S
O94 Co69 1.941 . S
O94 C101 1.266 . S
H95 C97 0.959 . S
H96 C97 0.961 . S
C97 C87 1.510 1_556 S
C97 H95 0.959 . S
C97 H96 0.961 . S
C97 H98 0.960 1_556 S
H98 C97 0.960 1_554 S
H99 N79 0.862 . S
O100 Co68 1.920 . S
O100 C73 1.289 . S
C101 O93 1.258 . S
C101 O94 1.266 . S
Co102 O105 1.970 . S
Co102 N119 1.989 . S
Co102 O127 1.967 . S
Co102 O134 1.920 . S
Co103 O106 1.966 . S
Co103 N112 2.022 . S
Co103 N120 1.993 . S
Co103 O128 1.941 . S
C104 O105 1.258 . S
C104 O106 1.263 . S
O105 Co102 1.970 . S
O105 C104 1.258 . S
O106 Co103 1.966 . S
O106 C104 1.263 . S
C107 O108 1.235 . S
C107 O134 1.289 . S
O108 C107 1.235 . S
C109 C111 1.400 1_556 S
C109 N112 1.351 . S
C109 C114 1.501 1_545 S
C110 C111 1.387 . S
C110 N113 1.341 1_554 S
C111 C109 1.400 1_554 S
C111 C110 1.387 . S
N112 Co103 2.022 . S
N112 C109 1.351 . S
N112 N113 1.365 . S
N113 C110 1.341 1_556 S
N113 N112 1.365 . S
N113 H133 0.862 . S
C114 C109 1.501 1_565 S
C114 H115 0.961 1_565 S
C114 H116 0.961 . S
C114 H117 0.960 . S
H115 C114 0.961 1_545 S
H116 C114 0.961 . S
H117 C114 0.960 . S
C118 N119 1.342 . S
C118 C122 1.401 . S
C118 C123 1.499 . S
N119 Co102 1.989 . S
N119 C118 1.342 . S
N119 N120 1.388 . S
N120 Co103 1.993 . S
N120 N119 1.388 . S
N120 C121 1.346 . S
C121 N120 1.346 . S
C121 C122 1.396 . S
C121 C131 1.510 1_556 S
C122 C118 1.401 . S
C122 C121 1.396 . S
C123 C118 1.499 . S
C123 H124 0.959 . S
C123 H125 0.960 . S
C123 H126 0.961 . S
H124 C123 0.959 . S
H125 C123 0.960 . S
H126 C123 0.961 . S
O127 Co102 1.967 . S
O127 C135 1.258 . S
O128 Co103 1.941 . S
O128 C135 1.266 . S
H129 C131 0.959 . S
H130 C131 0.961 . S
C131 C121 1.510 1_554 S
C131 H129 0.959 . S
C131 H130 0.961 . S
C131 H132 0.960 1_554 S
H132 C131 0.960 1_556 S
H133 N113 0.862 . S
O134 Co102 1.920 . S
O134 C107 1.289 . S
C135 O127 1.258 . S
C135 O128 1.266 . S
Co136 O139 1.970 . S
Co136 N153 1.989 . S
Co136 O161 1.967 . S
Co136 O168 1.920 . S
Co137 O140 1.966 . S
Co137 N146 2.022 . S
Co137 N154 1.993 . S
Co137 O162 1.941 . S
C138 O139 1.258 . S
C138 O140 1.263 . S
O139 Co136 1.970 . S
O139 C138 1.258 . S
O140 Co137 1.966 . S
O140 C138 1.263 . S
C141 O142 1.235 . S
C141 O168 1.289 . S
O142 C141 1.235 . S
C143 C145 1.400 1_556 S
C143 N146 1.351 . S
C143 C148 1.501 1_655 S
C144 C145 1.387 . S
C144 N147 1.341 1_554 S
C145 C143 1.400 1_554 S
C145 C144 1.387 . S
N146 Co137 2.022 . S
N146 C143 1.351 . S
N146 N147 1.365 . S
N147 C144 1.341 1_556 S
N147 N146 1.365 . S
N147 H167 0.862 . S
C148 C143 1.501 1_455 S
C148 H149 0.952 1_455 S
C148 H150 0.961 . S
C148 H151 0.960 . S
H149 C148 0.952 1_655 S
H150 C148 0.961 . S
H151 C148 0.960 . S
C152 N153 1.342 . S
C152 C156 1.401 . S
C152 C157 1.499 1_545 S
N153 Co136 1.989 . S
N153 C152 1.342 . S
N153 N154 1.388 . S
N154 Co137 1.993 . S
N154 N153 1.388 . S
N154 C155 1.346 . S
C155 N154 1.346 . S
C155 C156 1.396 . S
C155 C165 1.510 1_556 S
C156 C152 1.401 . S
C156 C155 1.396 . S
C157 C152 1.499 1_565 S
C157 H158 0.959 . S
C157 H159 0.960 . S
C157 H160 0.961 . S
H158 C157 0.959 . S
H159 C157 0.960 . S
H160 C157 0.961 . S
O161 Co136 1.967 . S
O161 C169 1.258 . S
O162 Co137 1.941 . S
O162 C169 1.266 . S
H163 C165 0.959 . S
H164 C165 0.961 . S
C165 C155 1.510 1_554 S
C165 H163 0.959 . S
C165 H164 0.961 . S
C165 H166 0.960 1_554 S
H166 C165 0.960 1_556 S
H167 N147 0.862 . S
O168 Co136 1.920 . S
O168 C141 1.289 . S
C169 O161 1.258 . S
C169 O162 1.266 . S
Co170 O173 1.970 . S
Co170 N187 1.989 . S
Co170 O195 1.967 . S
Co170 O202 1.920 . S
Co171 O174 1.966 . S
Co171 N180 2.022 . S
Co171 N188 1.993 . S
Co171 O196 1.941 . S
C172 O173 1.258 . S
C172 O174 1.263 . S
O173 Co170 1.970 . S
O173 C172 1.258 . S
O174 Co171 1.966 . S
O174 C172 1.263 . S
C175 O176 1.235 . S
C175 O202 1.289 . S
O176 C175 1.235 . S
C177 C179 1.400 1_556 S
C177 N180 1.351 . S
C177 C182 1.501 . S
C178 C179 1.387 . S
C178 N181 1.341 1_554 S
C179 C177 1.400 1_554 S
C179 C178 1.387 . S
N180 Co171 2.022 . S
N180 C177 1.351 . S
N180 N181 1.365 . S
N181 C178 1.341 1_556 S
N181 N180 1.365 . S
N181 H201 0.862 . S
C182 C177 1.501 . S
C182 H183 0.961 . S
C182 H184 0.961 . S
C182 H185 0.960 . S
H183 C182 0.961 . S
H184 C182 0.961 . S
H185 C182 0.960 . S
C186 N187 1.342 . S
C186 C190 1.401 . S
C186 C191 1.499 1_655 S
N187 Co170 1.989 . S
N187 C186 1.342 . S
N187 N188 1.388 . S
N188 Co171 1.993 . S
N188 N187 1.388 . S
N188 C189 1.346 . S
C189 N188 1.346 . S
C189 C190 1.396 . S
C189 C199 1.510 1_556 S
C190 C186 1.401 . S
C190 C189 1.396 . S
C191 C186 1.499 1_455 S
C191 H192 0.959 . S
C191 H193 0.960 . S
C191 H194 0.961 . S
H192 C191 0.959 . S
H193 C191 0.960 . S
H194 C191 0.961 . S
O195 Co170 1.967 . S
O195 C203 1.258 . S
O196 Co171 1.941 . S
O196 C203 1.266 . S
H197 C199 0.959 . S
H198 C199 0.961 . S
C199 C189 1.510 1_554 S
C199 H197 0.959 . S
C199 H198 0.961 . S
C199 H200 0.960 1_554 S
H200 C199 0.960 1_556 S
H201 N181 0.862 . S
O202 Co170 1.920 . S
O202 C175 1.289 . S
C203 O195 1.258 . S
C203 O196 1.266 . S
Co204 O207 1.970 . S
Co204 N221 1.989 . S
Co204 O229 1.967 . S
Co204 O236 1.920 . S
Co205 O208 1.966 . S
Co205 N214 2.022 . S
Co205 N222 1.993 . S
Co205 O230 1.941 . S
C206 O207 1.258 . S
C206 O208 1.263 . S
O207 Co204 1.970 . S
O207 C206 1.258 . S
O208 Co205 1.966 . S
O208 C206 1.263 . S
C209 O210 1.235 . S
C209 O236 1.289 . S
O210 C209 1.235 . S
C211 C213 1.400 . S
C211 N214 1.351 . S
C211 C216 1.501 . S
C212 C213 1.387 . S
C212 N215 1.341 . S
C213 C211 1.400 . S
C213 C212 1.387 . S
N214 Co205 2.022 . S
N214 C211 1.351 . S
N214 N215 1.365 . S
N215 C212 1.341 . S
N215 N214 1.365 . S
N215 H235 0.862 . S
C216 C211 1.501 . S
C216 H217 0.961 . S
C216 H218 0.961 . S
C216 H219 0.960 . S
H217 C216 0.961 . S
H218 C216 0.961 . S
H219 C216 0.960 . S
C220 N221 1.342 . S
C220 C224 1.401 . S
C220 C225 1.499 . S
N221 Co204 1.989 . S
N221 C220 1.342 . S
N221 N222 1.388 . S
N222 Co205 1.993 . S
N222 N221 1.388 . S
N222 C223 1.346 . S
C223 N222 1.346 . S
C223 C224 1.396 . S
C223 C233 1.510 . S
C224 C220 1.401 . S
C224 C223 1.396 . S
C225 C220 1.499 . S
C225 H226 0.959 . S
C225 H227 0.960 . S
C225 H228 0.961 . S
H226 C225 0.959 . S
H227 C225 0.960 . S
H228 C225 0.961 . S
O229 Co204 1.967 . S
O229 C237 1.258 . S
O230 Co205 1.941 . S
O230 C237 1.266 . S
H231 C233 0.959 . S
H232 C233 0.961 . S
C233 C223 1.510 . S
C233 H231 0.959 . S
C233 H232 0.961 . S
C233 H234 0.960 . S
H234 C233 0.960 . S
H235 N215 0.862 . S
O236 Co204 1.920 . S
O236 C209 1.289 . S
C237 O229 1.258 . S
C237 O230 1.266 . S
Co238 O241 1.970 . S
Co238 N255 1.989 . S
Co238 O263 1.967 . S
Co238 O270 1.920 . S
Co239 O242 1.966 . S
Co239 N248 2.022 . S
Co239 N256 1.993 . S
Co239 O264 1.941 . S
C240 O241 1.258 . S
C240 O242 1.263 . S
O241 Co238 1.970 . S
O241 C240 1.258 . S
O242 Co239 1.966 . S
O242 C240 1.263 . S
C243 O244 1.235 . S
C243 O270 1.289 . S
O244 C243 1.235 . S
C245 C247 1.400 . S
C245 N248 1.351 . S
C245 C250 1.501 . S
C246 C247 1.387 . S
C246 N249 1.341 . S
C247 C245 1.400 . S
C247 C246 1.387 . S
N248 Co239 2.022 . S
N248 C245 1.351 . S
N248 N249 1.365 . S
N249 C246 1.341 . S
N249 N248 1.365 . S
N249 H269 0.862 . S
C250 C245 1.501 . S
C250 H251 0.961 . S
C250 H252 0.961 . S
C250 H253 0.960 . S
H251 C250 0.961 . S
H252 C250 0.961 . S
H253 C250 0.960 . S
C254 N255 1.342 . S
C254 C258 1.401 . S
C254 C259 1.499 . S
N255 Co238 1.989 . S
N255 C254 1.342 . S
N255 N256 1.388 . S
N256 Co239 1.993 . S
N256 N255 1.388 . S
N256 C257 1.346 . S
C257 N256 1.346 . S
C257 C258 1.396 . S
C257 C267 1.510 . S
C258 C254 1.401 . S
C258 C257 1.396 . S
C259 C254 1.499 . S
C259 H260 0.959 . S
C259 H261 0.960 . S
C259 H262 0.961 . S
H260 C259 0.959 . S
H261 C259 0.960 . S
H262 C259 0.961 . S
O263 Co238 1.967 . S
O263 C271 1.258 . S
O264 Co239 1.941 . S
O264 C271 1.266 . S
H265 C267 0.959 . S
H266 C267 0.961 . S
C267 C257 1.510 . S
C267 H265 0.959 . S
C267 H266 0.961 . S
C267 H268 0.960 . S
H268 C267 0.960 . S
H269 N249 0.862 . S
O270 Co238 1.920 . S
O270 C243 1.289 . S
C271 O263 1.258 . S
C271 O264 1.266 . S
Co272 O275 1.970 . S
Co272 N289 1.989 . S
Co272 O297 1.967 . S
Co272 O304 1.920 . S
Co273 O276 1.966 . S
Co273 N282 2.022 . S
Co273 N290 1.993 . S
Co273 O298 1.941 . S
C274 O275 1.258 . S
C274 O276 1.263 . S
O275 Co272 1.970 . S
O275 C274 1.258 . S
O276 Co273 1.966 . S
O276 C274 1.263 . S
C277 O278 1.235 . S
C277 O304 1.289 . S
O278 C277 1.235 . S
C279 C281 1.400 . S
C279 N282 1.351 . S
C279 C284 1.501 . S
C280 C281 1.387 . S
C280 N283 1.341 . S
C281 C279 1.400 . S
C281 C280 1.387 . S
N282 Co273 2.022 . S
N282 C279 1.351 . S
N282 N283 1.365 . S
N283 C280 1.341 . S
N283 N282 1.365 . S
N283 H303 0.862 . S
C284 C279 1.501 . S
C284 H285 0.961 . S
C284 H286 0.961 . S
C284 H287 0.960 . S
H285 C284 0.961 . S
H286 C284 0.961 . S
H287 C284 0.960 . S
C288 N289 1.342 . S
C288 C292 1.401 . S
C288 C293 1.499 . S
N289 Co272 1.989 . S
N289 C288 1.342 . S
N289 N290 1.388 . S
N290 Co273 1.993 . S
N290 N289 1.388 . S
N290 C291 1.346 . S
C291 N290 1.346 . S
C291 C292 1.396 . S
C291 C301 1.510 . S
C292 C288 1.401 . S
C292 C291 1.396 . S
C293 C288 1.499 . S
C293 H294 0.959 . S
C293 H295 0.960 . S
C293 H296 0.961 . S
H294 C293 0.959 . S
H295 C293 0.960 . S
H296 C293 0.961 . S
O297 Co272 1.967 . S
O297 C305 1.258 . S
O298 Co273 1.941 . S
O298 C305 1.266 . S
H299 C301 0.959 . S
H300 C301 0.961 . S
C301 C291 1.510 . S
C301 H299 0.959 . S
C301 H300 0.961 . S
C301 H302 0.960 . S
H302 C301 0.960 . S
H303 N283 0.862 . S
O304 Co272 1.920 . S
O304 C277 1.289 . S
C305 O297 1.258 . S
C305 O298 1.266 . S
Co306 O309 1.970 . S
Co306 N323 1.989 1_556 S
Co306 O331 1.967 . S
Co306 O338 1.920 . S
Co307 O310 1.966 . S
Co307 N316 2.022 . S
Co307 N324 1.993 . S
Co307 O332 1.941 . S
C308 O309 1.258 . S
C308 O310 1.263 1_556 S
O309 Co306 1.970 . S
O309 C308 1.258 . S
O310 Co307 1.966 . S
O310 C308 1.263 1_554 S
C311 O312 1.235 . S
C311 O338 1.289 . S
O312 C311 1.235 . S
C313 C315 1.400 . S
C313 N316 1.351 . S
C313 C318 1.501 . S
C314 C315 1.387 . S
C314 N317 1.341 . S
C315 C313 1.400 . S
C315 C314 1.387 . S
N316 Co307 2.022 . S
N316 C313 1.351 . S
N316 N317 1.365 . S
N317 C314 1.341 . S
N317 N316 1.365 . S
N317 H337 0.862 . S
C318 C313 1.501 . S
C318 H319 0.961 . S
C318 H320 0.961 . S
C318 H321 0.960 . S
H319 C318 0.961 . S
H320 C318 0.961 . S
H321 C318 0.960 . S
C322 N323 1.342 . S
C322 C326 1.401 . S
C322 C327 1.499 . S
N323 Co306 1.989 1_554 S
N323 C322 1.342 . S
N323 N324 1.388 . S
N324 Co307 1.993 . S
N324 N323 1.388 . S
N324 C325 1.346 . S
C325 N324 1.346 . S
C325 C326 1.396 . S
C325 C335 1.510 . S
C326 C322 1.401 . S
C326 C325 1.396 . S
C327 C322 1.499 . S
C327 H328 0.959 . S
C327 H329 0.960 . S
C327 H330 0.961 . S
H328 C327 0.959 . S
H329 C327 0.960 . S
H330 C327 0.961 . S
O331 Co306 1.967 . S
O331 C339 1.258 1_556 S
O332 Co307 1.941 . S
O332 C339 1.266 . S
H333 C335 0.959 . S
H334 C335 0.961 . S
C335 C325 1.510 . S
C335 H333 0.959 . S
C335 H334 0.961 . S
C335 H336 0.960 . S
H336 C335 0.960 . S
H337 N317 0.862 . S
O338 Co306 1.920 . S
O338 C311 1.289 . S
C339 O331 1.258 1_554 S
C339 O332 1.266 . S
Co340 O343 1.970 . S
Co340 N357 1.989 1_556 S
Co340 O365 1.967 . S
Co340 O372 1.920 . S
Co341 O344 1.966 . S
Co341 N350 2.022 . S
Co341 N358 1.993 . S
Co341 O366 1.941 . S
C342 O343 1.258 . S
C342 O344 1.263 1_556 S
O343 Co340 1.970 . S
O343 C342 1.258 . S
O344 Co341 1.966 . S
O344 C342 1.263 1_554 S
C345 O346 1.235 . S
C345 O372 1.289 . S
O346 C345 1.235 . S
C347 C349 1.400 . S
C347 N350 1.351 . S
C347 C352 1.501 . S
C348 C349 1.387 . S
C348 N351 1.341 . S
C349 C347 1.400 . S
C349 C348 1.387 . S
N350 Co341 2.022 . S
N350 C347 1.351 . S
N350 N351 1.365 . S
N351 C348 1.341 . S
N351 N350 1.365 . S
N351 H371 0.862 . S
C352 C347 1.501 . S
C352 H353 0.961 . S
C352 H354 0.961 . S
C352 H355 0.960 . S
H353 C352 0.961 . S
H354 C352 0.961 . S
H355 C352 0.960 . S
C356 N357 1.342 . S
C356 C360 1.401 . S
C356 C361 1.499 . S
N357 Co340 1.989 1_554 S
N357 C356 1.342 . S
N357 N358 1.388 . S
N358 Co341 1.993 . S
N358 N357 1.388 . S
N358 C359 1.346 . S
C359 N358 1.346 . S
C359 C360 1.396 . S
C359 C369 1.510 . S
C360 C356 1.401 . S
C360 C359 1.396 . S
C361 C356 1.499 . S
C361 H362 0.959 . S
C361 H363 0.960 . S
C361 H364 0.961 . S
H362 C361 0.959 . S
H363 C361 0.960 . S
H364 C361 0.961 . S
O365 Co340 1.967 . S
O365 C373 1.258 1_556 S
O366 Co341 1.941 . S
O366 C373 1.266 . S
H367 C369 0.959 . S
H368 C369 0.961 . S
C369 C359 1.510 . S
C369 H367 0.959 . S
C369 H368 0.961 . S
C369 H370 0.960 . S
H370 C369 0.960 . S
H371 N351 0.862 . S
O372 Co340 1.920 . S
O372 C345 1.289 . S
C373 O365 1.258 1_554 S
C373 O366 1.266 . S
Co374 O377 1.970 . S
Co374 N391 1.989 1_556 S
Co374 O399 1.967 . S
Co374 O406 1.920 . S
Co375 O378 1.966 . S
Co375 N384 2.022 . S
Co375 N392 1.993 . S
Co375 O400 1.941 . S
C376 O377 1.258 . S
C376 O378 1.263 1_556 S
O377 Co374 1.970 . S
O377 C376 1.258 . S
O378 Co375 1.966 . S
O378 C376 1.263 1_554 S
C379 O380 1.235 . S
C379 O406 1.289 . S
O380 C379 1.235 . S
C381 C383 1.400 . S
C381 N384 1.351 . S
C381 C386 1.501 . S
C382 C383 1.387 . S
C382 N385 1.341 . S
C383 C381 1.400 . S
C383 C382 1.387 . S
N384 Co375 2.022 . S
N384 C381 1.351 . S
N384 N385 1.365 . S
N385 C382 1.341 . S
N385 N384 1.365 . S
N385 H405 0.862 . S
C386 C381 1.501 . S
C386 H387 0.961 . S
C386 H388 0.961 . S
C386 H389 0.960 . S
H387 C386 0.961 . S
H388 C386 0.961 . S
H389 C386 0.960 . S
C390 N391 1.342 . S
C390 C394 1.401 . S
C390 C395 1.499 . S
N391 Co374 1.989 1_554 S
N391 C390 1.342 . S
N391 N392 1.388 . S
N392 Co375 1.993 . S
N392 N391 1.388 . S
N392 C393 1.346 . S
C393 N392 1.346 . S
C393 C394 1.396 . S
C393 C403 1.510 . S
C394 C390 1.401 . S
C394 C393 1.396 . S
C395 C390 1.499 . S
C395 H396 0.959 . S
C395 H397 0.960 . S
C395 H398 0.961 . S
H396 C395 0.959 . S
H397 C395 0.960 . S
H398 C395 0.961 . S
O399 Co374 1.967 . S
O399 C407 1.258 1_556 S
O400 Co375 1.941 . S
O400 C407 1.266 . S
H401 C403 0.959 . S
H402 C403 0.961 . S
C403 C393 1.510 . S
C403 H401 0.959 . S
C403 H402 0.961 . S
C403 H404 0.960 . S
H404 C403 0.960 . S
H405 N385 0.862 . S
O406 Co374 1.920 . S
O406 C379 1.289 . S
C407 O399 1.258 1_554 S
C407 O400 1.266 . S
Co408 O411 1.970 . S
Co408 N425 1.989 1_554 S
Co408 O433 1.967 . S
Co408 O440 1.920 . S
Co409 O412 1.966 . S
Co409 N418 2.022 . S
Co409 N426 1.993 . S
Co409 O434 1.941 . S
C410 O411 1.258 . S
C410 O412 1.263 1_554 S
O411 Co408 1.970 . S
O411 C410 1.258 . S
O412 Co409 1.966 . S
O412 C410 1.263 1_556 S
C413 O414 1.235 . S
C413 O440 1.289 . S
O414 C413 1.235 . S
C415 C417 1.400 . S
C415 N418 1.351 . S
C415 C420 1.501 . S
C416 C417 1.387 . S
C416 N419 1.341 . S
C417 C415 1.400 . S
C417 C416 1.387 . S
N418 Co409 2.022 . S
N418 C415 1.351 . S
N418 N419 1.365 . S
N419 C416 1.341 . S
N419 N418 1.365 . S
N419 H439 0.862 . S
C420 C415 1.501 . S
C420 H421 0.961 . S
C420 H422 0.961 . S
C420 H423 0.960 . S
H421 C420 0.961 . S
H422 C420 0.961 . S
H423 C420 0.960 . S
C424 N425 1.342 . S
C424 C428 1.401 . S
C424 C429 1.499 . S
N425 Co408 1.989 1_556 S
N425 C424 1.342 . S
N425 N426 1.388 . S
N426 Co409 1.993 . S
N426 N425 1.388 . S
N426 C427 1.346 . S
C427 N426 1.346 . S
C427 C428 1.396 . S
C427 C437 1.510 . S
C428 C424 1.401 . S
C428 C427 1.396 . S
C429 C424 1.499 . S
C429 H430 0.959 . S
C429 H431 0.960 . S
C429 H432 0.961 . S
H430 C429 0.959 . S
H431 C429 0.960 . S
H432 C429 0.961 . S
O433 Co408 1.967 . S
O433 C441 1.258 1_554 S
O434 Co409 1.941 . S
O434 C441 1.266 . S
H435 C437 0.959 . S
H436 C437 0.961 . S
C437 C427 1.510 . S
C437 H435 0.959 . S
C437 H436 0.961 . S
C437 H438 0.960 . S
H438 C437 0.960 . S
H439 N419 0.862 . S
O440 Co408 1.920 . S
O440 C413 1.289 . S
C441 O433 1.258 1_556 S
C441 O434 1.266 . S
Co442 O445 1.970 . S
Co442 N459 1.989 1_554 S
Co442 O467 1.967 . S
Co442 O474 1.920 . S
Co443 O446 1.966 . S
Co443 N452 2.022 . S
Co443 N460 1.993 . S
Co443 O468 1.941 . S
C444 O445 1.258 . S
C444 O446 1.263 1_554 S
O445 Co442 1.970 . S
O445 C444 1.258 . S
O446 Co443 1.966 . S
O446 C444 1.263 1_556 S
C447 O448 1.235 . S
C447 O474 1.289 . S
O448 C447 1.235 . S
C449 C451 1.400 . S
C449 N452 1.351 . S
C449 C454 1.501 . S
C450 C451 1.387 . S
C450 N453 1.341 . S
C451 C449 1.400 . S
C451 C450 1.387 . S
N452 Co443 2.022 . S
N452 C449 1.351 . S
N452 N453 1.365 . S
N453 C450 1.341 . S
N453 N452 1.365 . S
N453 H473 0.862 . S
C454 C449 1.501 . S
C454 H455 0.961 . S
C454 H456 0.961 . S
C454 H457 0.960 . S
H455 C454 0.961 . S
H456 C454 0.961 . S
H457 C454 0.960 . S
C458 N459 1.342 . S
C458 C462 1.401 . S
C458 C463 1.499 . S
N459 Co442 1.989 1_556 S
N459 C458 1.342 . S
N459 N460 1.388 . S
N460 Co443 1.993 . S
N460 N459 1.388 . S
N460 C461 1.346 . S
C461 N460 1.346 . S
C461 C462 1.396 . S
C461 C471 1.510 . S
C462 C458 1.401 . S
C462 C461 1.396 . S
C463 C458 1.499 . S
C463 H464 0.959 . S
C463 H465 0.960 . S
C463 H466 0.961 . S
H464 C463 0.959 . S
H465 C463 0.960 . S
H466 C463 0.961 . S
O467 Co442 1.967 . S
O467 C475 1.258 1_554 S
O468 Co443 1.941 . S
O468 C475 1.266 . S
H469 C471 0.959 . S
H470 C471 0.961 . S
C471 C461 1.510 . S
C471 H469 0.959 . S
C471 H470 0.961 . S
C471 H472 0.960 . S
H472 C471 0.960 . S
H473 N453 0.862 . S
O474 Co442 1.920 . S
O474 C447 1.289 . S
C475 O467 1.258 1_556 S
C475 O468 1.266 . S
Co476 O479 1.970 . S
Co476 N493 1.989 1_554 S
Co476 O501 1.967 . S
Co476 O508 1.920 . S
Co477 O480 1.966 . S
Co477 N486 2.022 . S
Co477 N494 1.993 . S
Co477 O502 1.941 . S
C478 O479 1.258 . S
C478 O480 1.263 1_554 S
O479 Co476 1.970 . S
O479 C478 1.258 . S
O480 Co477 1.966 . S
O480 C478 1.263 1_556 S
C481 O482 1.235 . S
C481 O508 1.289 . S
O482 C481 1.235 . S
C483 C485 1.400 . S
C483 N486 1.351 . S
C483 C488 1.501 . S
C484 C485 1.387 . S
C484 N487 1.341 . S
C485 C483 1.400 . S
C485 C484 1.387 . S
N486 Co477 2.022 . S
N486 C483 1.351 . S
N486 N487 1.365 . S
N487 C484 1.341 . S
N487 N486 1.365 . S
N487 H507 0.862 . S
C488 C483 1.501 . S
C488 H489 0.961 . S
C488 H490 0.961 . S
C488 H491 0.960 . S
H489 C488 0.961 . S
H490 C488 0.961 . S
H491 C488 0.960 . S
C492 N493 1.342 . S
C492 C496 1.401 . S
C492 C497 1.499 . S
N493 Co476 1.989 1_556 S
N493 C492 1.342 . S
N493 N494 1.388 . S
N494 Co477 1.993 . S
N494 N493 1.388 . S
N494 C495 1.346 . S
C495 N494 1.346 . S
C495 C496 1.396 . S
C495 C505 1.510 . S
C496 C492 1.401 . S
C496 C495 1.396 . S
C497 C492 1.499 . S
C497 H498 0.959 . S
C497 H499 0.960 . S
C497 H500 0.961 . S
H498 C497 0.959 . S
H499 C497 0.960 . S
H500 C497 0.961 . S
O501 Co476 1.967 . S
O501 C509 1.258 1_554 S
O502 Co477 1.941 . S
O502 C509 1.266 . S
H503 C505 0.959 . S
H504 C505 0.961 . S
C505 C495 1.510 . S
C505 H503 0.959 . S
C505 H504 0.961 . S
C505 H506 0.960 . S
H506 C505 0.960 . S
H507 N487 0.862 . S
O508 Co476 1.920 . S
O508 C481 1.289 . S
C509 O501 1.258 1_556 S
C509 O502 1.266 . S
Co510 O513 1.970 . S
Co510 N527 1.989 . S
Co510 O535 1.967 . S
Co510 O542 1.920 . S
Co511 O514 1.966 . S
Co511 N520 2.022 . S
Co511 N528 1.993 . S
Co511 O536 1.941 . S
C512 O513 1.258 . S
C512 O514 1.263 . S
O513 Co510 1.970 . S
O513 C512 1.258 . S
O514 Co511 1.966 . S
O514 C512 1.263 . S
C515 O516 1.235 . S
C515 O542 1.289 . S
O516 C515 1.235 . S
C517 C519 1.400 . S
C517 N520 1.351 . S
C517 C522 1.501 . S
C518 C519 1.387 . S
C518 N521 1.341 . S
C519 C517 1.400 . S
C519 C518 1.387 . S
N520 Co511 2.022 . S
N520 C517 1.351 . S
N520 N521 1.365 . S
N521 C518 1.341 . S
N521 N520 1.365 . S
N521 H541 0.862 . S
C522 C517 1.501 . S
C522 H523 0.961 . S
C522 H524 0.961 . S
C522 H525 0.960 . S
H523 C522 0.961 . S
H524 C522 0.961 . S
H525 C522 0.960 . S
C526 N527 1.342 . S
C526 C530 1.401 . S
C526 C531 1.499 . S
N527 Co510 1.989 . S
N527 C526 1.342 . S
N527 N528 1.388 . S
N528 Co511 1.993 . S
N528 N527 1.388 . S
N528 C529 1.346 . S
C529 N528 1.346 . S
C529 C530 1.396 . S
C529 C539 1.510 . S
C530 C526 1.401 . S
C530 C529 1.396 . S
C531 C526 1.499 . S
C531 H532 0.959 . S
C531 H533 0.960 . S
C531 H534 0.961 . S
H532 C531 0.959 . S
H533 C531 0.960 . S
H534 C531 0.961 . S
O535 Co510 1.967 . S
O535 C543 1.258 . S
O536 Co511 1.941 . S
O536 C543 1.266 . S
H537 C539 0.959 . S
H538 C539 0.961 . S
C539 C529 1.510 . S
C539 H537 0.959 . S
C539 H538 0.961 . S
C539 H540 0.960 . S
H540 C539 0.960 . S
H541 N521 0.862 . S
O542 Co510 1.920 . S
O542 C515 1.289 . S
C543 O535 1.258 . S
C543 O536 1.266 . S
Co544 O547 1.970 . S
Co544 N561 1.989 . S
Co544 O569 1.967 . S
Co544 O576 1.920 . S
Co545 O548 1.966 . S
Co545 N554 2.022 . S
Co545 N562 1.993 . S
Co545 O570 1.941 . S
C546 O547 1.258 . S
C546 O548 1.263 . S
O547 Co544 1.970 . S
O547 C546 1.258 . S
O548 Co545 1.966 . S
O548 C546 1.263 . S
C549 O550 1.235 . S
C549 O576 1.289 . S
O550 C549 1.235 . S
C551 C553 1.400 . S
C551 N554 1.351 . S
C551 C556 1.501 . S
C552 C553 1.387 . S
C552 N555 1.341 . S
C553 C551 1.400 . S
C553 C552 1.387 . S
N554 Co545 2.022 . S
N554 C551 1.351 . S
N554 N555 1.365 . S
N555 C552 1.341 . S
N555 N554 1.365 . S
N555 H575 0.862 . S
C556 C551 1.501 . S
C556 H557 0.961 . S
C556 H558 0.961 . S
C556 H559 0.960 . S
H557 C556 0.961 . S
H558 C556 0.961 . S
H559 C556 0.960 . S
C560 N561 1.342 . S
C560 C564 1.401 . S
C560 C565 1.499 . S
N561 Co544 1.989 . S
N561 C560 1.342 . S
N561 N562 1.388 . S
N562 Co545 1.993 . S
N562 N561 1.388 . S
N562 C563 1.346 . S
C563 N562 1.346 . S
C563 C564 1.396 . S
C563 C573 1.510 . S
C564 C560 1.401 . S
C564 C563 1.396 . S
C565 C560 1.499 . S
C565 H566 0.959 . S
C565 H567 0.960 . S
C565 H568 0.961 . S
H566 C565 0.959 . S
H567 C565 0.960 . S
H568 C565 0.961 . S
O569 Co544 1.967 . S
O569 C577 1.258 . S
O570 Co545 1.941 . S
O570 C577 1.266 . S
H571 C573 0.959 . S
H572 C573 0.961 . S
C573 C563 1.510 . S
C573 H571 0.959 . S
C573 H572 0.961 . S
C573 H574 0.960 . S
H574 C573 0.960 . S
H575 N555 0.862 . S
O576 Co544 1.920 . S
O576 C549 1.289 . S
C577 O569 1.258 . S
C577 O570 1.266 . S
Co578 O581 1.970 . S
Co578 N595 1.989 . S
Co578 O603 1.967 . S
Co578 O610 1.920 . S
Co579 O582 1.966 . S
Co579 N588 2.022 . S
Co579 N596 1.993 . S
Co579 O604 1.941 . S
C580 O581 1.258 . S
C580 O582 1.263 . S
O581 Co578 1.970 . S
O581 C580 1.258 . S
O582 Co579 1.966 . S
O582 C580 1.263 . S
C583 O584 1.235 . S
C583 O610 1.289 . S
O584 C583 1.235 . S
C585 C587 1.400 . S
C585 N588 1.351 . S
C585 C590 1.501 . S
C586 C587 1.387 . S
C586 N589 1.341 . S
C587 C585 1.400 . S
C587 C586 1.387 . S
N588 Co579 2.022 . S
N588 C585 1.351 . S
N588 N589 1.365 . S
N589 C586 1.341 . S
N589 N588 1.365 . S
N589 H609 0.862 . S
C590 C585 1.501 . S
C590 H591 0.961 . S
C590 H592 0.961 . S
C590 H593 0.960 . S
H591 C590 0.961 . S
H592 C590 0.961 . S
H593 C590 0.960 . S
C594 N595 1.342 . S
C594 C598 1.401 . S
C594 C599 1.499 . S
N595 Co578 1.989 . S
N595 C594 1.342 . S
N595 N596 1.388 . S
N596 Co579 1.993 . S
N596 N595 1.388 . S
N596 C597 1.346 . S
C597 N596 1.346 . S
C597 C598 1.396 . S
C597 C607 1.510 . S
C598 C594 1.401 . S
C598 C597 1.396 . S
C599 C594 1.499 . S
C599 H600 0.959 . S
C599 H601 0.960 . S
C599 H602 0.961 . S
H600 C599 0.959 . S
H601 C599 0.960 . S
H602 C599 0.961 . S
O603 Co578 1.967 . S
O603 C611 1.258 . S
O604 Co579 1.941 . S
O604 C611 1.266 . S
H605 C607 0.959 . S
H606 C607 0.961 . S
C607 C597 1.510 . S
C607 H605 0.959 . S
C607 H606 0.961 . S
C607 H608 0.960 . S
H608 C607 0.960 . S
H609 N589 0.862 . S
O610 Co578 1.920 . S
O610 C583 1.289 . S
C611 O603 1.258 . S
C611 O604 1.266 . S
C122 C20 3.256 1_556 S
C156 C54 3.257 1_546 S
C88 C190 3.257 1_454 S
C43 C179 0.789 1_556 S
C111 C77 0.788 1_544 S
C145 C9 0.788 1_654 S
C224 C326 3.257 . S
C360 C258 3.257 . S
C292 C394 3.257 . S
C383 C247 0.789 . S
C315 C281 0.789 . S
C349 C213 0.788 . S
C530 C428 3.257 . S
C462 C564 3.257 . S
C598 C496 3.257 . S
C451 C587 0.789 . S
C519 C485 0.789 . S
C417 C553 0.789 . S
C611 C33 0.711 . S
C67 C543 0.710 . S
C577 C101 0.711 . S
C271 C135 0.711 . S
C169 C305 0.711 . S
C203 C237 0.710 . S
C475 C339 0.710 1_456 S
C509 C373 0.711 1_556 S
C407 C441 0.710 1_544 S
C5 C107 0.965 . S
C141 C39 0.965 1_545 S
C73 C175 0.965 1_455 S
C172 C36 4.373 . S
C70 C104 4.373 1_565 S
C138 C2 4.373 1_655 S
C209 C311 0.965 . S
C345 C243 0.965 . S
C379 C277 0.965 . S
C376 C240 4.373 . S
C308 C274 4.373 . S
C342 C206 4.373 . S
C515 C413 0.965 . S
C549 C447 0.965 . S
C583 C481 0.965 . S
C580 C444 4.373 . S
C512 C478 4.373 . S
C546 C410 4.373 . S
